# Generated by pormake.
# Topology nom, (4,4)-cn, num edge types: 1
# Building blocks:
#     Node 0, Type 0, BuildingBlock: NAWXER_clean_linker_0, # of connection points: 4
#     Node 1, Type 0, BuildingBlock: NAWXER_clean_linker_0, # of connection points: 4
#     Node 2, Type 0, BuildingBlock: NAWXER_clean_linker_0, # of connection points: 4
#     Node 3, Type 0, BuildingBlock: NAWXER_clean_linker_0, # of connection points: 4
#     Node 4, Type 0, BuildingBlock: NAWXER_clean_linker_0, # of connection points: 4
#     Node 5, Type 0, BuildingBlock: NAWXER_clean_linker_0, # of connection points: 4
#     Node 6, Type 1, BuildingBlock: TATPOV_clean_sbu_0, # of connection points: 4
#     Node 7, Type 1, BuildingBlock: TATPOV_clean_sbu_0, # of connection points: 4
#     Node 8, Type 1, BuildingBlock: TATPOV_clean_sbu_0, # of connection points: 4
#     Node 9, Type 1, BuildingBlock: TATPOV_clean_sbu_0, # of connection points: 4
#     Node 10, Type 1, BuildingBlock: TATPOV_clean_sbu_0, # of connection points: 4
#     Node 11, Type 1, BuildingBlock: TATPOV_clean_sbu_0, # of connection points: 4
#     Edge 12, Type (0, 1), BuildingBlock: MIFKUJ_clean_linker_0, # of connection points: 2
#     Edge 13, Type (0, 1), BuildingBlock: MIFKUJ_clean_linker_0, # of connection points: 2
#     Edge 14, Type (0, 1), BuildingBlock: MIFKUJ_clean_linker_0, # of connection points: 2
#     Edge 15, Type (0, 1), BuildingBlock: MIFKUJ_clean_linker_0, # of connection points: 2
#     Edge 16, Type (0, 1), BuildingBlock: MIFKUJ_clean_linker_0, # of connection points: 2
#     Edge 17, Type (0, 1), BuildingBlock: MIFKUJ_clean_linker_0, # of connection points: 2
#     Edge 18, Type (0, 1), BuildingBlock: MIFKUJ_clean_linker_0, # of connection points: 2
#     Edge 19, Type (0, 1), BuildingBlock: MIFKUJ_clean_linker_0, # of connection points: 2
#     Edge 20, Type (0, 1), BuildingBlock: MIFKUJ_clean_linker_0, # of connection points: 2
#     Edge 21, Type (0, 1), BuildingBlock: MIFKUJ_clean_linker_0, # of connection points: 2
#     Edge 22, Type (0, 1), BuildingBlock: MIFKUJ_clean_linker_0, # of connection points: 2
#     Edge 23, Type (0, 1), BuildingBlock: MIFKUJ_clean_linker_0, # of connection points: 2
#     Edge 24, Type (0, 1), BuildingBlock: MIFKUJ_clean_linker_0, # of connection points: 2
#     Edge 25, Type (0, 1), BuildingBlock: MIFKUJ_clean_linker_0, # of connection points: 2
#     Edge 26, Type (0, 1), BuildingBlock: MIFKUJ_clean_linker_0, # of connection points: 2
#     Edge 27, Type (0, 1), BuildingBlock: MIFKUJ_clean_linker_0, # of connection points: 2
#     Edge 28, Type (0, 1), BuildingBlock: MIFKUJ_clean_linker_0, # of connection points: 2
#     Edge 29, Type (0, 1), BuildingBlock: MIFKUJ_clean_linker_0, # of connection points: 2
#     Edge 30, Type (0, 1), BuildingBlock: MIFKUJ_clean_linker_0, # of connection points: 2
#     Edge 31, Type (0, 1), BuildingBlock: MIFKUJ_clean_linker_0, # of connection points: 2
#     Edge 32, Type (0, 1), BuildingBlock: MIFKUJ_clean_linker_0, # of connection points: 2
#     Edge 33, Type (0, 1), BuildingBlock: MIFKUJ_clean_linker_0, # of connection points: 2
#     Edge 34, Type (0, 1), BuildingBlock: MIFKUJ_clean_linker_0, # of connection points: 2
#     Edge 35, Type (0, 1), BuildingBlock: MIFKUJ_clean_linker_0, # of connection points: 2
# Relax obj value: 0.024
# Max RMSD: 0.116
# Mean RMSD: 0.109
data_MOF--net-nom--node1-TATPOV_clean_sbu_0--node2-NAWXER_clean_linker_0--edge1-MIFKUJ_clean_linker_0
_symmetry_space_group_name_H-M    P1
_symmetry_Int_Tables_number       1
_symmetry_cell_setting            triclinic
loop_
_symmetry_equiv_pos_as_xyz
'x, y, z'
_cell_length_a     64.681148
_cell_length_b     65.574143
_cell_length_c     71.692226
_cell_angle_alpha  90.494529
_cell_angle_beta   90.628257
_cell_angle_gamma 120.00438
loop_
_atom_site_label
_atom_site_type_symbol
_atom_site_fract_x
_atom_site_fract_y
_atom_site_fract_z
_atom_type_partial_charge
C0 C 0.91866 0.45004 0.34134 0.0
C1 C 0.91038 0.43176 0.35431 0.0
C2 C 0.94146 0.4595 0.33404 0.0
C3 C 0.95649 0.45076 0.33935 0.0
C4 C 0.92547 0.42305 0.3597 0.0
C5 C 0.9484 0.43258 0.35235 0.0
C6 C 0.98133 0.46226 0.33269 0.0
C7 C 0.9354 0.42815 0.28115 0.0
C8 C 0.93645 0.4444 0.26794 0.0
C9 C 0.95157 0.43566 0.29627 0.0
C10 C 0.96903 0.45953 0.29845 0.0
C11 C 0.95375 0.46832 0.27043 0.0
C12 C 0.96997 0.47573 0.28538 0.0
C13 C 0.98706 0.46786 0.31378 0.0
C14 C 0.09557 0.52597 0.31597 0.0
C15 C 0.0979 0.54366 0.30375 0.0
C16 C 0.07301 0.50871 0.3219 0.0
C17 C 0.05242 0.5091 0.31597 0.0
C18 C 0.07715 0.54341 0.29736 0.0
C19 C 0.05473 0.52638 0.30341 0.0
C20 C 0.02824 0.49163 0.32231 0.0
C21 C 0.06937 0.53036 0.37425 0.0
C22 C 0.07435 0.51614 0.38594 0.0
C23 C 0.05262 0.52034 0.35967 0.0
C24 C 0.04047 0.49591 0.35647 0.0
C25 C 0.06196 0.4916 0.38271 0.0
C26 C 0.04501 0.48158 0.36821 0.0
C27 C 0.02263 0.48532 0.34115 0.0
H28 H 0.90784 0.45767 0.33728 0.0
H29 H 0.94761 0.4742 0.32467 0.0
H30 H 0.91961 0.40895 0.36964 0.0
H31 H 0.95985 0.42584 0.35687 0.0
H32 H 0.92249 0.40957 0.27957 0.0
H33 H 0.95075 0.42276 0.30603 0.0
H34 H 0.95477 0.48144 0.26083 0.0
H35 H 0.9832 0.49426 0.28683 0.0
H36 H 0.11118 0.52562 0.32115 0.0
H37 H 0.07172 0.49513 0.33109 0.0
H38 H 0.07817 0.55635 0.28756 0.0
H39 H 0.03914 0.52692 0.29842 0.0
H40 H 0.07808 0.54922 0.37655 0.0
H41 H 0.04899 0.53166 0.35097 0.0
H42 H 0.06548 0.48011 0.39126 0.0
H43 H 0.0357 0.46267 0.36598 0.0
N44 N -0.00061 0.47091 0.34564 0.0
N45 N 0.01022 0.48252 0.3094 0.0
C46 C 0.46504 0.93685 0.50232 0.0
C47 C 0.47446 0.92868 0.51621 0.0
C48 C 0.47922 0.95876 0.49432 0.0
C49 C 0.50325 0.9729 0.49987 0.0
C50 C 0.49863 0.94261 0.52154 0.0
C51 C 0.51285 0.96468 0.51356 0.0
C52 C 0.51732 0.99718 0.49286 0.0
C53 C 0.50601 0.95043 0.44283 0.0
C54 C 0.49017 0.95075 0.42935 0.0
C55 C 0.51492 0.96705 0.45745 0.0
C56 C 0.50825 0.98436 0.4588 0.0
C57 C 0.48337 0.968 0.43099 0.0
C58 C 0.49254 0.98476 0.44541 0.0
C59 C 0.518 0.00254 0.47378 0.0
C60 C 0.57382 0.10954 0.47437 0.0
C61 C 0.5594 0.11312 0.46151 0.0
C62 C 0.56683 0.08691 0.48073 0.0
C63 C 0.54506 0.06755 0.47461 0.0
C64 C 0.53803 0.09361 0.455 0.0
C65 C 0.53097 0.07109 0.46145 0.0
C66 C 0.53662 0.04347 0.48156 0.0
C67 C 0.5399 0.0865 0.532 0.0
C68 C 0.55569 0.08774 0.5462 0.0
C69 C 0.53392 0.07065 0.51705 0.0
C70 C 0.5439 0.05598 0.51582 0.0
C71 C 0.56566 0.07302 0.54493 0.0
C72 C 0.55968 0.05717 0.52993 0.0
C73 C 0.53655 0.03816 0.50066 0.0
H74 H 0.44652 0.92643 0.49784 0.0
H75 H 0.47112 0.96496 0.48423 0.0
H76 H 0.50629 0.93681 0.53234 0.0
H77 H 0.53123 0.97548 0.51826 0.0
H78 H 0.51193 0.93766 0.44189 0.0
H79 H 0.52733 0.96666 0.46751 0.0
H80 H 0.47077 0.9685 0.4212 0.0
H81 H 0.48708 0.9979 0.44626 0.0
H82 H 0.59059 0.1242 0.47939 0.0
H83 H 0.5784 0.08458 0.49043 0.0
H84 H 0.52643 0.09583 0.44522 0.0
H85 H 0.51416 0.05645 0.45644 0.0
H86 H 0.53203 0.0977 0.5325 0.0
H87 H 0.52118 0.0696 0.5066 0.0
H88 H 0.57756 0.07327 0.55579 0.0
H89 H 0.56727 0.04573 0.5294 0.0
N90 N 0.5269 0.01522 0.50555 0.0
N91 N 0.52739 0.02541 0.4689 0.0
C92 C 0.55591 0.50329 0.61173 0.0
C93 C 0.53989 0.48784 0.59805 0.0
C94 C 0.5478 0.51161 0.62625 0.0
C95 C 0.5235 0.50467 0.62735 0.0
C96 C 0.51554 0.4808 0.5992 0.0
C97 C 0.50746 0.48937 0.61365 0.0
C98 C 0.51505 0.51404 0.64246 0.0
C99 C 0.53093 0.46238 0.66979 0.0
C100 C 0.55084 0.47236 0.68204 0.0
C101 C 0.5215 0.47591 0.66291 0.0
C102 C 0.53173 0.49974 0.66808 0.0
C103 C 0.56102 0.49627 0.68726 0.0
C104 C 0.55141 0.50978 0.68045 0.0
C105 C 0.52094 0.51366 0.66138 0.0
C106 C 0.4656 0.55001 0.70291 0.0
C107 C 0.483 0.56375 0.71649 0.0
C108 C 0.47162 0.54102 0.68743 0.0
C109 C 0.4953 0.54623 0.68503 0.0
C110 C 0.50663 0.56891 0.71408 0.0
C111 C 0.51271 0.56026 0.69849 0.0
C112 C 0.50194 0.53559 0.66958 0.0
C113 C 0.47132 0.57703 0.64285 0.0
C114 C 0.45218 0.56372 0.63038 0.0
C115 C 0.48566 0.56808 0.64932 0.0
C116 C 0.48062 0.54538 0.64386 0.0
C117 C 0.44767 0.54138 0.62447 0.0
C118 C 0.46173 0.53231 0.63116 0.0
C119 C 0.49513 0.53511 0.65065 0.0
H120 H 0.57475 0.50892 0.6112 0.0
H121 H 0.56057 0.52375 0.63648 0.0
H122 H 0.50288 0.4691 0.58871 0.0
H123 H 0.48867 0.48394 0.61419 0.0
H124 H 0.52217 0.44391 0.66586 0.0
H125 H 0.50583 0.46756 0.65384 0.0
H126 H 0.57646 0.50459 0.69654 0.0
H127 H 0.55944 0.5281 0.68474 0.0
H128 H 0.44716 0.54544 0.70464 0.0
H129 H 0.45766 0.52954 0.67764 0.0
H130 H 0.52037 0.57948 0.72436 0.0
H131 H 0.53104 0.5643 0.69706 0.0
H132 H 0.47536 0.59445 0.64739 0.0
H133 H 0.50066 0.57892 0.65855 0.0
H134 H 0.43294 0.53069 0.61496 0.0
H135 H 0.45761 0.51486 0.62658 0.0
N136 N 0.5021 0.52443 0.63784 0.0
N137 N 0.51449 0.52473 0.67417 0.0
C138 C 0.91087 0.42759 0.80163 0.0
C139 C 0.89999 0.43478 0.78816 0.0
C140 C 0.93378 0.44327 0.80852 0.0
C141 C 0.94614 0.46658 0.80228 0.0
C142 C 0.91267 0.45794 0.78154 0.0
C143 C 0.9356 0.47365 0.78849 0.0
C144 C 0.97039 0.48327 0.80958 0.0
C145 C 0.92112 0.46748 0.85795 0.0
C146 C 0.92669 0.45865 0.87382 0.0
C147 C 0.9371 0.47638 0.84322 0.0
C148 C 0.95863 0.47594 0.84385 0.0
C149 C 0.94826 0.45839 0.87453 0.0
C150 C 0.96403 0.46691 0.85969 0.0
C151 C 0.97641 0.48629 0.82881 0.0
C152 C 0.08243 0.55847 0.82943 0.0
C153 C 0.08959 0.54807 0.8432 0.0
C154 C 0.05892 0.54679 0.8225 0.0
C155 C 0.04243 0.52418 0.82881 0.0
C156 C 0.07287 0.5259 0.84998 0.0
C157 C 0.04956 0.51409 0.84285 0.0
C158 C 0.01754 0.5109 0.82147 0.0
C159 C 0.06372 0.52387 0.77099 0.0
C160 C 0.06268 0.54012 0.75884 0.0
C161 C 0.04712 0.51366 0.7852 0.0
C162 C 0.02913 0.51943 0.7875 0.0
C163 C 0.04455 0.5458 0.7613 0.0
C164 C 0.0278 0.53535 0.77534 0.0
C165 C 0.01134 0.50863 0.8023 0.0
H166 H 0.90179 0.40973 0.80671 0.0
H167 H 0.94187 0.43715 0.81869 0.0
H168 H 0.90472 0.46404 0.77125 0.0
H169 H 0.94494 0.49147 0.78331 0.0
H170 H 0.90478 0.46825 0.85722 0.0
H171 H 0.93283 0.48409 0.83156 0.0
H172 H 0.95294 0.45163 0.88662 0.0
H173 H 0.98057 0.46654 0.86064 0.0
H174 H 0.09497 0.57568 0.82415 0.0
H175 H 0.05369 0.55548 0.81228 0.0
H176 H 0.07801 0.51739 0.86047 0.0
H177 H 0.03718 0.4968 0.84809 0.0
H178 H 0.07709 0.51869 0.76934 0.0
H179 H 0.04819 0.50111 0.79431 0.0
H180 H 0.04338 0.55854 0.7525 0.0
H181 H 0.01402 0.53999 0.77691 0.0
N182 N 0.98803 0.4949 0.79709 0.0
N183 N -0.00022 0.49971 0.83393 0.0
C184 C 0.50134 0.92094 0.97699 0.0
C185 C 0.48245 0.91195 0.96382 0.0
C186 C 0.51162 0.94414 0.98353 0.0
C187 C 0.50313 0.95885 0.97719 0.0
C188 C 0.47428 0.92686 0.95718 0.0
C189 C 0.48463 0.95014 0.96375 0.0
C190 C 0.51419 0.98353 0.98408 0.0
C191 C 0.4751 0.93955 0.03268 0.0
C192 C 0.48956 0.94037 0.04777 0.0
C193 C 0.48481 0.9554 0.01811 0.0
C194 C 0.50925 0.97228 0.01821 0.0
C195 C 0.51405 0.95721 0.04784 0.0
C196 C 0.52376 0.97317 0.03325 0.0
C197 C 0.51924 0.98979 0.00316 0.0
C198 C 0.56187 0.09547 0.00389 0.0
C199 C 0.58272 0.10221 0.01463 0.0
C200 C 0.54749 0.07208 0.99784 0.0
C201 C 0.5539 0.0551 0.00217 0.0
C202 C 0.58849 0.0849 0.01954 0.0
C203 C 0.57419 0.0616 0.01341 0.0
C204 C 0.53963 0.03045 0.9953 0.0
C205 C 0.56698 0.07698 0.94504 0.0
C206 C 0.54854 0.07467 0.93303 0.0
C207 C 0.56231 0.06045 0.95896 0.0
C208 C 0.53903 0.04156 0.96134 0.0
C209 C 0.52546 0.05523 0.93507 0.0
C210 C 0.5208 0.03888 0.94904 0.0
C211 C 0.53326 0.02418 0.97629 0.0
H212 H 0.50849 0.91015 0.98204 0.0
H213 H 0.52643 0.95066 0.99343 0.0
H214 H 0.45967 0.92045 0.94711 0.0
H215 H 0.47795 0.96126 0.95852 0.0
H216 H 0.45621 0.92671 0.03218 0.0
H217 H 0.47309 0.95471 0.00691 0.0
H218 H 0.52556 0.95845 0.0594 0.0
H219 H 0.54259 0.98622 0.03372 0.0
H220 H 0.55691 0.10834 -0.00016 0.0
H221 H 0.53153 0.06735 0.98961 0.0
H222 H 0.60409 0.08935 0.02815 0.0
H223 H 0.57925 0.04871 0.01718 0.0
H224 H 0.58495 0.09172 0.94388 0.0
H225 H 0.57685 0.06253 0.96792 0.0
H226 H 0.51096 0.05253 0.92578 0.0
H227 H 0.50278 0.02423 0.95041 0.0
N228 N 0.52094 0.00094 0.97142 0.0
N229 N 0.53221 0.01299 0.00801 0.0
C230 C 0.48652 0.57946 0.18374 0.0
C231 C 0.46933 0.57167 0.19778 0.0
C232 C 0.49452 0.56478 0.17675 0.0
C233 C 0.48522 0.54177 0.18336 0.0
C234 C 0.46047 0.54882 0.20475 0.0
C235 C 0.46847 0.53406 0.19767 0.0
C236 C 0.49362 0.52623 0.17562 0.0
C237 C 0.45118 0.53397 0.12923 0.0
C238 C 0.46488 0.54716 0.11415 0.0
C239 C 0.46128 0.52667 0.14308 0.0
C240 C 0.48527 0.53242 0.14208 0.0
C241 C 0.48894 0.55307 0.11326 0.0
C242 C 0.49898 0.54557 0.12703 0.0
C243 C 0.49578 0.52386 0.15627 0.0
C244 C 0.54015 0.46151 0.1515 0.0
C245 C 0.55867 0.47526 0.13921 0.0
C246 C 0.52585 0.47002 0.15881 0.0
C247 C 0.5301 0.49256 0.15414 0.0
C248 C 0.56206 0.49732 0.13396 0.0
C249 C 0.54793 0.50583 0.14133 0.0
C250 C 0.51625 0.50277 0.16223 0.0
C251 C 0.55349 0.48945 0.21 0.0
C252 C 0.53764 0.47379 0.22316 0.0
C253 C 0.54557 0.49945 0.19659 0.0
C254 C 0.52153 0.49362 0.19583 0.0
C255 C 0.51368 0.46843 0.22259 0.0
C256 C 0.50575 0.47833 0.2091 0.0
C257 C 0.51275 0.50381 0.1816 0.0
H258 H 0.49358 0.59683 0.17791 0.0
H259 H 0.50803 0.57146 0.16613 0.0
H260 H 0.44749 0.54242 0.21577 0.0
H261 H 0.46135 0.51651 0.20318 0.0
H262 H 0.4326 0.52921 0.13026 0.0
H263 H 0.45023 0.51617 0.1544 0.0
H264 H 0.49981 0.56295 0.10164 0.0
H265 H 0.51747 0.55004 0.12593 0.0
H266 H 0.53704 0.44442 0.1558 0.0
H267 H 0.51172 0.45914 0.16825 0.0
H268 H 0.57573 0.50811 0.12415 0.0
H269 H 0.5513 0.5231 0.13727 0.0
H270 H 0.57202 0.49389 0.20995 0.0
H271 H 0.55823 0.51169 0.18679 0.0
H272 H 0.50111 0.45685 0.23274 0.0
H273 H 0.4872 0.47388 0.20893 0.0
N274 N 0.5017 0.51566 0.18757 0.0
N275 N 0.50742 0.51267 0.15034 0.0
Zn276 Zn 0.6706 0.44373 0.41098 0.0
Zn277 Zn 0.6429 0.39676 0.41404 0.0
O278 O 0.67732 0.40288 0.41295 0.0
O279 O 0.70047 0.44125 0.41108 0.0
O280 O 0.62486 0.36186 0.41838 0.0
O281 O 0.6572 0.44834 0.435 0.0
O282 O 0.6343 0.40992 0.43696 0.0
C283 C 0.69808 0.4209 0.41182 0.0
C284 C 0.63653 0.42084 0.38015 0.0
O285 O 0.62998 0.402 0.38924 0.0
O286 O 0.65326 0.44035 0.38647 0.0
C287 C 0.62109 0.34661 0.40575 0.0
O288 O 0.62773 0.35355 0.38861 0.0
C289 C 0.64134 0.43057 0.44342 0.0
Zn290 Zn 0.23176 0.67974 0.57205 0.0
Zn291 Zn 0.25519 0.65581 0.57696 0.0
O292 O 0.28179 0.69024 0.57446 0.0
O293 O 0.26323 0.71051 0.57205 0.0
O294 O 0.27422 0.63985 0.58238 0.0
O295 O 0.21394 0.66634 0.59598 0.0
O296 O 0.23415 0.64786 0.60011 0.0
C297 C 0.28248 0.70989 0.57285 0.0
C298 C 0.2225 0.64497 0.5428 0.0
O299 O 0.23627 0.64048 0.55261 0.0
O300 O 0.2183 0.66107 0.54795 0.0
C301 C 0.28696 0.63726 0.57028 0.0
O302 O 0.28694 0.64412 0.55312 0.0
C303 C 0.21854 0.65292 0.60558 0.0
Zn304 Zn 0.55642 0.23132 0.74337 0.0
Zn305 Zn 0.60472 0.25366 0.7456 0.0
O306 O 0.59734 0.2806 0.74333 0.0
O307 O 0.55813 0.26296 0.74168 0.0
O308 O 0.6404 0.27102 0.7487 0.0
O309 O 0.55466 0.21659 0.76854 0.0
O310 O 0.5939 0.2341 0.76936 0.0
C311 C 0.57828 0.28169 0.74181 0.0
C312 C 0.5787 0.21967 0.71313 0.0
O313 O 0.59807 0.23402 0.72165 0.0
O314 O 0.5588 0.21549 0.71958 0.0
C315 C 0.65432 0.28263 0.73563 0.0
O316 O 0.64521 0.28295 0.71923 0.0
C317 C 0.57382 0.22049 0.77668 0.0
Zn318 Zn 0.35176 0.57456 0.91061 0.0
Zn319 Zn 0.37215 0.62122 0.91446 0.0
O320 O 0.33726 0.61115 0.90807 0.0
O321 O 0.32107 0.57312 0.90236 0.0
O322 O 0.38718 0.65614 0.91888 0.0
O323 O 0.35798 0.57144 0.93768 0.0
O324 O 0.37823 0.61012 0.93978 0.0
C325 C 0.31934 0.59152 0.90301 0.0
C326 C 0.39044 0.60003 0.88539 0.0
O327 O 0.39019 0.61793 0.89217 0.0
O328 O 0.37668 0.57967 0.8916 0.0
C329 C 0.38757 0.67015 0.90656 0.0
O330 O 0.37825 0.66177 0.88994 0.0
C331 C 0.37096 0.59007 0.94711 0.0
Zn332 Zn 0.78888 0.4406 0.07442 0.0
Zn333 Zn 0.76017 0.39362 0.07196 0.0
O334 O 0.73692 0.40594 0.07583 0.0
O335 O 0.75995 0.44443 0.07788 0.0
O336 O 0.73781 0.35871 0.06892 0.0
O337 O 0.80172 0.44082 0.04896 0.0
O338 O 0.77838 0.40231 0.04711 0.0
C339 C 0.73934 0.42632 0.07804 0.0
C340 C 0.79805 0.41523 0.10314 0.0
O341 O 0.78064 0.3971 0.09538 0.0
O342 O 0.80499 0.43553 0.09669 0.0
C343 C 0.74524 0.34472 0.06446 0.0
O344 O 0.76824 0.35316 0.06232 0.0
C345 C 0.79425 0.42156 0.04008 0.0
Zn346 Zn 0.34772 0.7886 0.23826 0.0
Zn347 Zn 0.37193 0.76491 0.23883 0.0
O348 O 0.33652 0.73961 0.24121 0.0
O349 O 0.31643 0.75848 0.24178 0.0
O350 O 0.38841 0.74561 0.23786 0.0
O351 O 0.35996 0.80025 0.21254 0.0
O352 O 0.38181 0.78318 0.21415 0.0
C353 C 0.3168 0.73938 0.24256 0.0
C354 C 0.38247 0.80222 0.26876 0.0
O355 O 0.38581 0.78597 0.26224 0.0
O356 O 0.36776 0.80693 0.26082 0.0
C357 C 0.37987 0.72605 0.24618 0.0
O358 O 0.36079 0.71894 0.25638 0.0
C359 C 0.37532 0.79602 0.20549 0.0
H360 H 0.13697 0.53968 0.29464 0.0
H361 H 0.17547 0.57065 0.28325 0.0
H362 H 0.15097 0.62076 0.2871 0.0
H363 H 0.1129 0.59031 0.29904 0.0
H364 H 0.17095 0.62061 0.2526 0.0
H365 H 0.18874 0.62296 0.31853 0.0
H366 H 0.19165 0.60595 0.34832 0.0
H367 H 0.24041 0.58725 0.32404 0.0
H368 H 0.23752 0.60386 0.294 0.0
H369 H 0.2722 0.73307 0.24766 0.0
H370 H 0.23619 0.69707 0.25625 0.0
H371 H 0.27464 0.65906 0.25463 0.0
H372 H 0.31101 0.69521 0.24625 0.0
H373 H 0.24861 0.64929 0.2857 0.0
H374 H 0.23393 0.65009 0.22061 0.0
H375 H 0.23104 0.66682 0.19068 0.0
H376 H 0.17642 0.6787 0.21271 0.0
H377 H 0.17921 0.66235 0.24287 0.0
C378 C 0.1399 0.55737 0.29335 0.0
C379 C 0.12174 0.56244 0.29762 0.0
C380 C 0.16186 0.57499 0.28674 0.0
C381 C 0.16595 0.59792 0.28427 0.0
C382 C 0.14803 0.6031 0.28875 0.0
C383 C 0.12624 0.58562 0.29549 0.0
C384 C 0.18871 0.6166 0.27667 0.0
C385 C 0.18793 0.62702 0.25988 0.0
C386 C 0.21089 0.62432 0.2859 0.0
C387 C 0.21268 0.61439 0.30395 0.0
C388 C 0.1999 0.61502 0.31949 0.0
C389 C 0.20158 0.60549 0.33643 0.0
C390 C 0.21614 0.59545 0.33805 0.0
C391 C 0.2291 0.59499 0.32275 0.0
C392 C 0.22746 0.60446 0.30577 0.0
C393 C 0.27301 0.71704 0.24894 0.0
C394 C 0.29452 0.71706 0.24626 0.0
C395 C 0.25235 0.69642 0.2538 0.0
C396 C 0.25266 0.67531 0.25591 0.0
C397 C 0.27401 0.67516 0.25305 0.0
C398 C 0.29475 0.69582 0.2482 0.0
C399 C 0.23081 0.65373 0.26179 0.0
C400 C 0.23172 0.64271 0.27825 0.0
C401 C 0.20872 0.64534 0.25221 0.0
C402 C 0.20691 0.65513 0.23406 0.0
C403 C 0.22142 0.65643 0.21912 0.0
C404 C 0.21978 0.66581 0.20211 0.0
C405 C 0.20359 0.67385 0.19981 0.0
C406 C 0.18896 0.67247 0.21451 0.0
C407 C 0.19054 0.66312 0.23157 0.0
H408 H 0.20234 0.68112 0.18662 0.0
H409 H 0.21742 0.5881 0.35119 0.0
H410 H 0.55735 0.12699 0.426 0.0
H411 H 0.56656 0.16613 0.41581 0.0
H412 H 0.58616 0.19263 0.47233 0.0
H413 H 0.57658 0.1534 0.48267 0.0
H414 H 0.55631 0.20601 0.45551 0.0
H415 H 0.62867 0.20554 0.44088 0.0
H416 H 0.65226 0.18974 0.42637 0.0
H417 H 0.62684 0.19519 0.37211 0.0
H418 H 0.60283 0.21074 0.38632 0.0
H419 H 0.61517 0.32847 0.44067 0.0
H420 H 0.60305 0.28816 0.44908 0.0
H421 H 0.59322 0.26779 0.39082 0.0
H422 H 0.60622 0.30847 0.38226 0.0
H423 H 0.61644 0.25015 0.4074 0.0
H424 H 0.54507 0.2515 0.42106 0.0
H425 H 0.52045 0.26654 0.43489 0.0
H426 H 0.5421 0.25838 0.48985 0.0
H427 H 0.56711 0.24358 0.47634 0.0
C428 C 0.5636 0.14116 0.43625 0.0
C429 C 0.56626 0.13714 0.45514 0.0
C430 C 0.569 0.16352 0.43039 0.0
C431 C 0.57716 0.18229 0.4433 0.0
C432 C 0.57991 0.17837 0.46215 0.0
C433 C 0.57463 0.15602 0.468 0.0
C434 C 0.58243 0.20594 0.43721 0.0
C435 C 0.56966 0.21583 0.44516 0.0
C436 C 0.59925 0.21832 0.42324 0.0
C437 C 0.61377 0.20908 0.41468 0.0
C438 C 0.62796 0.20319 0.42586 0.0
C439 C 0.64144 0.19431 0.41769 0.0
C440 C 0.641 0.1914 0.39833 0.0
C441 C 0.62713 0.19742 0.3871 0.0
C442 C 0.61361 0.20629 0.3952 0.0
C443 C 0.61018 0.31539 0.42962 0.0
C444 C 0.61163 0.32168 0.41078 0.0
C445 C 0.60313 0.29227 0.43447 0.0
C446 C 0.59689 0.2748 0.4206 0.0
C447 C 0.59793 0.28095 0.40177 0.0
C448 C 0.60528 0.30418 0.3969 0.0
C449 C 0.59043 0.25044 0.42579 0.0
C450 C 0.60297 0.24036 0.41768 0.0
C451 C 0.57321 0.23777 0.43949 0.0
C452 C 0.55813 0.24662 0.44767 0.0
C453 C 0.54472 0.25307 0.43609 0.0
C454 C 0.53067 0.26153 0.44387 0.0
C455 C 0.52975 0.26346 0.46323 0.0
C456 C 0.54284 0.25689 0.47485 0.0
C457 C 0.55694 0.24844 0.46714 0.0
H458 H 0.51886 0.27002 0.46923 0.0
H459 H 0.65144 0.18452 0.39203 0.0
H460 H 0.43092 0.58292 0.65118 0.0
H461 H 0.40297 0.59545 0.64029 0.0
H462 H 0.4103 0.5774 0.58371 0.0
H463 H 0.43815 0.56473 0.59453 0.0
H464 H 0.41207 0.62177 0.58802 0.0
H465 H 0.36339 0.54044 0.60498 0.0
H466 H 0.34936 0.50671 0.62605 0.0
H467 H 0.328 0.54178 0.66573 0.0
H468 H 0.34225 0.5759 0.64499 0.0
H469 H 0.31348 0.6255 0.54777 0.0
H470 H 0.34151 0.61266 0.55738 0.0
H471 H 0.32549 0.6168 0.61509 0.0
H472 H 0.29695 0.62891 0.60557 0.0
H473 H 0.32847 0.57911 0.60977 0.0
H474 H 0.37714 0.66042 0.59428 0.0
H475 H 0.3921 0.69541 0.57449 0.0
H476 H 0.41461 0.66247 0.53377 0.0
H477 H 0.39947 0.62712 0.55321 0.0
C478 C 0.42675 0.58189 0.63641 0.0
C479 C 0.43659 0.5728 0.62369 0.0
C480 C 0.41073 0.58892 0.63023 0.0
C481 C 0.40449 0.58717 0.61122 0.0
C482 C 0.41489 0.57883 0.59843 0.0
C483 C 0.43066 0.57151 0.60463 0.0
C484 C 0.38658 0.59344 0.60477 0.0
C485 C 0.3937 0.61229 0.59256 0.0
C486 C 0.36282 0.58137 0.61108 0.0
C487 C 0.35411 0.56082 0.62352 0.0
C488 C 0.35589 0.54105 0.61827 0.0
C489 C 0.34787 0.52184 0.63014 0.0
C490 C 0.33785 0.52212 0.64724 0.0
C491 C 0.33579 0.5416 0.65249 0.0
C492 C 0.34383 0.56087 0.64068 0.0
C493 C 0.31583 0.62355 0.56249 0.0
C494 C 0.30306 0.62833 0.5759 0.0
C495 C 0.33197 0.61634 0.56798 0.0
C496 C 0.33595 0.61416 0.58699 0.0
C497 C 0.32278 0.6184 0.60035 0.0
C498 C 0.30648 0.62536 0.59488 0.0
C499 C 0.35389 0.60762 0.59302 0.0
C500 C 0.34681 0.58865 0.60517 0.0
C501 C 0.37778 0.61979 0.58682 0.0
C502 C 0.38694 0.64103 0.57511 0.0
C503 C 0.38511 0.66056 0.58104 0.0
C504 C 0.39365 0.68047 0.5699 0.0
C505 C 0.40424 0.68114 0.55286 0.0
C506 C 0.40636 0.66191 0.54695 0.0
C507 C 0.39782 0.64194 0.55803 0.0
H508 H 0.41084 0.69657 0.54425 0.0
H509 H 0.33164 0.50723 0.65641 0.0
H510 H 0.88278 0.42787 0.75218 0.0
H511 H 0.84203 0.40078 0.74099 0.0
H512 H 0.82099 0.37718 0.7972 0.0
H513 H 0.86159 0.40422 0.80848 0.0
H514 H 0.80334 0.34058 0.77276 0.0
H515 H 0.80765 0.4162 0.77708 0.0
H516 H 0.82445 0.45833 0.77029 0.0
H517 H 0.81107 0.44195 0.71174 0.0
H518 H 0.79448 0.39973 0.71816 0.0
H519 H 0.67817 0.28837 0.76866 0.0
H520 H 0.72088 0.31272 0.775 0.0
H521 H 0.73242 0.3326 0.7172 0.0
H522 H 0.68947 0.30856 0.71078 0.0
H523 H 0.75617 0.37013 0.7394 0.0
H524 H 0.74871 0.29406 0.73525 0.0
H525 H 0.73184 0.25193 0.74201 0.0
H526 H 0.75113 0.26882 0.79991 0.0
H527 H 0.76783 0.31105 0.79354 0.0
C528 C 0.86942 0.41702 0.76216 0.0
C529 C 0.87539 0.41822 0.78122 0.0
C530 C 0.84618 0.40151 0.75574 0.0
C531 C 0.82844 0.38709 0.76829 0.0
C532 C 0.83442 0.38807 0.78727 0.0
C533 C 0.85764 0.40351 0.79369 0.0
C534 C 0.80353 0.37113 0.76177 0.0
C535 C 0.79294 0.34705 0.7656 0.0
C536 C 0.79023 0.37949 0.75194 0.0
C537 C 0.80007 0.40485 0.74808 0.0
C538 C 0.80846 0.4216 0.76274 0.0
C539 C 0.81791 0.44549 0.75897 0.0
C540 C 0.81889 0.45282 0.74059 0.0
C541 C 0.81034 0.43626 0.72596 0.0
C542 C 0.8009 0.41235 0.72966 0.0
C543 C 0.68977 0.29777 0.75723 0.0
C544 C 0.6804 0.29651 0.73919 0.0
C545 C 0.71424 0.31161 0.76087 0.0
C546 C 0.72991 0.32425 0.74652 0.0
C547 C 0.72065 0.32293 0.72847 0.0
C548 C 0.69611 0.30915 0.72482 0.0
C549 C 0.7558 0.33958 0.75065 0.0
C550 C 0.76661 0.36357 0.74637 0.0
C551 C 0.76931 0.33111 0.76005 0.0
C552 C 0.75937 0.30572 0.76393 0.0
C553 C 0.74921 0.28878 0.74944 0.0
C554 C 0.7397 0.26488 0.75321 0.0
C555 C 0.74037 0.2577 0.77138 0.0
C556 C 0.75061 0.27441 0.78583 0.0
C557 C 0.76013 0.29833 0.78215 0.0
H558 H 0.73299 0.23918 0.77427 0.0
H559 H 0.82621 0.47132 0.7377 0.0
H560 H 0.46836 0.89484 0.92806 0.0
H561 H 0.45186 0.85417 0.91687 0.0
H562 H 0.45583 0.83248 0.97279 0.0
H563 H 0.47196 0.87293 0.98414 0.0
H564 H 0.4746 0.81538 0.94739 0.0
H565 H 0.40291 0.82006 0.95365 0.0
H566 H 0.37672 0.83675 0.94792 0.0
H567 H 0.37664 0.8238 0.8891 0.0
H568 H 0.40311 0.80732 0.89446 0.0
H569 H 0.40471 0.69208 0.94036 0.0
H570 H 0.42093 0.73361 0.94823 0.0
H571 H 0.4102 0.74735 0.89124 0.0
H572 H 0.3934 0.70554 0.8833 0.0
H573 H 0.39614 0.76952 0.91479 0.0
H574 H 0.46616 0.76334 0.90822 0.0
H575 H 0.49267 0.74692 0.91348 0.0
H576 H 0.49673 0.76326 0.972 0.0
H577 H 0.46997 0.7795 0.96714 0.0
C578 C 0.4654 0.88136 0.93802 0.0
C579 C 0.47156 0.88716 0.95699 0.0
C580 C 0.45604 0.85814 0.93159 0.0
C581 C 0.45257 0.84031 0.94401 0.0
C582 C 0.4585 0.84601 0.96295 0.0
C583 C 0.46779 0.86916 0.9694 0.0
C584 C 0.44332 0.81575 0.93729 0.0
C585 C 0.45733 0.80525 0.94044 0.0
C586 C 0.42115 0.80285 0.92767 0.0
C587 C 0.4052 0.8127 0.92444 0.0
C588 C 0.39747 0.82096 0.93948 0.0
C589 C 0.38255 0.83034 0.9363 0.0
C590 C 0.37508 0.8314 0.91815 0.0
C591 C 0.38247 0.82301 0.90315 0.0
C592 C 0.39742 0.81363 0.90625 0.0
C593 C 0.40586 0.7039 0.92945 0.0
C594 C 0.39785 0.69549 0.91117 0.0
C595 C 0.41524 0.72769 0.93397 0.0
C596 C 0.41712 0.74368 0.92026 0.0
C597 C 0.40899 0.73534 0.90202 0.0
C598 C 0.39946 0.71146 0.8975 0.0
C599 C 0.42727 0.76899 0.92516 0.0
C600 C 0.41348 0.77967 0.92163 0.0
C601 C 0.44973 0.78215 0.93435 0.0
C602 C 0.4659 0.77246 0.93733 0.0
C603 C 0.47256 0.76328 0.92223 0.0
C604 C 0.48766 0.75403 0.92514 0.0
C605 C 0.49633 0.754 0.94307 0.0
C606 C 0.48998 0.76328 0.95812 0.0
C607 C 0.47487 0.77253 0.9553 0.0
H608 H 0.50802 0.74683 0.94529 0.0
H609 H 0.36352 0.83866 0.91572 0.0
H610 H 0.60691 0.50135 0.13522 0.0
H611 H 0.63353 0.48888 0.12219 0.0
H612 H 0.57426 0.41824 0.1146 0.0
H613 H 0.54721 0.43074 0.12737 0.0
H614 H 0.61529 0.42004 0.12989 0.0
H615 H 0.59434 0.4508 0.0775 0.0
H616 H 0.58802 0.47974 0.06037 0.0
H617 H 0.66234 0.53122 0.06728 0.0
H618 H 0.66904 0.5027 0.08471 0.0
H619 H 0.69225 0.39162 0.07895 0.0
H620 H 0.65793 0.39603 0.08676 0.0
H621 H 0.70448 0.47104 0.09363 0.0
H622 H 0.73869 0.46689 0.0855 0.0
H623 H 0.66472 0.46192 0.07553 0.0
H624 H 0.6846 0.43356 0.13119 0.0
H625 H 0.69146 0.40565 0.14937 0.0
H626 H 0.61978 0.35055 0.13698 0.0
H627 H 0.6126 0.37809 0.11852 0.0
C628 C 0.59942 0.4832 0.1306 0.0
C629 C 0.57485 0.46711 0.13209 0.0
C630 C 0.61469 0.47609 0.12322 0.0
C631 C 0.60578 0.45274 0.11716 0.0
C632 C 0.58143 0.43638 0.11913 0.0
C633 C 0.56604 0.44353 0.12648 0.0
C634 C 0.62218 0.44573 0.10879 0.0
C635 C 0.62576 0.42881 0.11777 0.0
C636 C 0.63605 0.45747 0.09314 0.0
C637 C 0.63215 0.47464 0.08252 0.0
C638 C 0.6093 0.46834 0.07548 0.0
C639 C 0.60566 0.48466 0.0657 0.0
C640 C 0.62476 0.50731 0.06276 0.0
C641 C 0.64756 0.51367 0.06957 0.0
C642 C 0.6513 0.49742 0.07938 0.0
C643 C 0.69515 0.40908 0.082 0.0
C644 C 0.71825 0.4289 0.08169 0.0
C645 C 0.67552 0.41155 0.08653 0.0
C646 C 0.67868 0.43383 0.091 0.0
C647 C 0.70161 0.45367 0.09022 0.0
C648 C 0.72118 0.45125 0.08562 0.0
C649 C 0.65836 0.43669 0.09694 0.0
C650 C 0.654 0.45284 0.08747 0.0
C651 C 0.64388 0.42433 0.11219 0.0
C652 C 0.64817 0.4078 0.1233 0.0
C653 C 0.67037 0.41544 0.13223 0.0
C654 C 0.67431 0.39971 0.1426 0.0
C655 C 0.6561 0.37632 0.14427 0.0
C656 C 0.63389 0.36865 0.13563 0.0
C657 C 0.62987 0.38432 0.12522 0.0
H658 H 0.65917 0.36417 0.15231 0.0
H659 H 0.6219 0.51992 0.05519 0.0
H660 H 0.48312 0.89271 0.52414 0.0
H661 H 0.45556 0.85471 0.53818 0.0
H662 H 0.40271 0.87613 0.54329 0.0
H663 H 0.43012 0.91401 0.52959 0.0
H664 H 0.40533 0.85366 0.57446 0.0
H665 H 0.40058 0.8421 0.50707 0.0
H666 H 0.41731 0.84266 0.4762 0.0
H667 H 0.44021 0.79516 0.49544 0.0
H668 H 0.42388 0.79459 0.52652 0.0
H669 H 0.29049 0.75489 0.57203 0.0
H670 H 0.32815 0.79099 0.56696 0.0
H671 H 0.36478 0.75125 0.56451 0.0
H672 H 0.32696 0.71482 0.56945 0.0
H673 H 0.37636 0.78111 0.53567 0.0
H674 H 0.37443 0.78717 0.60147 0.0
H675 H 0.35723 0.78633 0.63215 0.0
H676 H 0.34697 0.84374 0.61643 0.0
H677 H 0.3638 0.84471 0.58553 0.0
C678 C 0.46571 0.88935 0.52848 0.0
C679 C 0.45863 0.90617 0.52558 0.0
C680 C 0.44999 0.86765 0.53641 0.0
C681 C 0.42703 0.86255 0.54163 0.0
C682 C 0.42032 0.87968 0.53935 0.0
C683 C 0.43591 0.90123 0.53136 0.0
C684 C 0.40933 0.83907 0.54864 0.0
C685 C 0.39895 0.83777 0.566 0.0
C686 C 0.40158 0.81826 0.53785 0.0
C687 C 0.4113 0.81855 0.51917 0.0
C688 C 0.40936 0.83194 0.50475 0.0
C689 C 0.41874 0.83223 0.48722 0.0
C690 C 0.42989 0.81902 0.48388 0.0
C691 C 0.43162 0.80543 0.49806 0.0
C692 C 0.42231 0.80511 0.51564 0.0
C693 C 0.30655 0.75378 0.57059 0.0
C694 C 0.30568 0.73194 0.57112 0.0
C695 C 0.32813 0.77449 0.56781 0.0
C696 C 0.34933 0.77385 0.56555 0.0
C697 C 0.34863 0.75214 0.56629 0.0
C698 C 0.32702 0.73136 0.56916 0.0
C699 C 0.37178 0.79579 0.56125 0.0
C700 C 0.38306 0.79683 0.54439 0.0
C701 C 0.38037 0.81636 0.57252 0.0
C702 C 0.37027 0.81591 0.59112 0.0
C703 C 0.36835 0.79951 0.60449 0.0
C704 C 0.35869 0.79903 0.62194 0.0
C705 C 0.35098 0.81495 0.62623 0.0
C706 C 0.35296 0.83141 0.61309 0.0
C707 C 0.36259 0.83196 0.59561 0.0
H708 H 0.34351 0.81455 0.63975 0.0
H709 H 0.43712 0.81926 0.47029 0.0
H710 H 0.56788 0.47334 0.71751 0.0
H711 H 0.58054 0.44697 0.73058 0.0
H712 H 0.56596 0.4103 0.67754 0.0
H713 H 0.55487 0.43748 0.66409 0.0
H714 H 0.55588 0.40281 0.73628 0.0
H715 H 0.59749 0.38414 0.67116 0.0
H716 H 0.622 0.40579 0.64436 0.0
H717 H 0.65051 0.47085 0.6754 0.0
H718 H 0.62638 0.44958 0.70246 0.0
H719 H 0.54121 0.28984 0.73635 0.0
H720 H 0.54323 0.32715 0.7298 0.0
H721 H 0.62007 0.36311 0.73478 0.0
H722 H 0.61825 0.32558 0.74099 0.0
H723 H 0.60725 0.37723 0.70482 0.0
H724 H 0.58682 0.37019 0.76854 0.0
H725 H 0.56487 0.35087 0.79696 0.0
H726 H 0.50012 0.34216 0.77224 0.0
H727 H 0.5216 0.36112 0.74356 0.0
C728 C 0.568 0.46009 0.70848 0.0
C729 C 0.56025 0.45752 0.68974 0.0
C730 C 0.57503 0.44486 0.71603 0.0
C731 C 0.57442 0.42672 0.70504 0.0
C732 C 0.56709 0.4244 0.68626 0.0
C733 C 0.56035 0.43977 0.67864 0.0
C734 C 0.57965 0.4091 0.71344 0.0
C735 C 0.5673 0.3974 0.72949 0.0
C736 C 0.59503 0.40237 0.70491 0.0
C737 C 0.61001 0.41525 0.68882 0.0
C738 C 0.60911 0.40304 0.67232 0.0
C739 C 0.6229 0.41526 0.65707 0.0
C740 C 0.63777 0.43968 0.65817 0.0
C741 C 0.63893 0.45194 0.67455 0.0
C742 C 0.62517 0.43982 0.68984 0.0
C743 C 0.55856 0.30567 0.73624 0.0
C744 C 0.57957 0.30469 0.73921 0.0
C745 C 0.55968 0.32706 0.73258 0.0
C746 C 0.58178 0.34801 0.73202 0.0
C747 C 0.60281 0.34718 0.73519 0.0
C748 C 0.60172 0.32572 0.7388 0.0
C749 C 0.58275 0.37043 0.72718 0.0
C750 C 0.5962 0.38297 0.7118 0.0
C751 C 0.56885 0.37833 0.73659 0.0
C752 C 0.55582 0.36698 0.75385 0.0
C753 C 0.56787 0.36402 0.76911 0.0
C754 C 0.55551 0.35315 0.78528 0.0
C755 C 0.53111 0.34527 0.78639 0.0
C756 C 0.51902 0.34828 0.77136 0.0
C757 C 0.53129 0.35912 0.75515 0.0
H758 H 0.52158 0.33685 0.79892 0.0
H759 H 0.64841 0.44911 0.64634 0.0
H760 H 0.12993 0.56632 0.82252 0.0
H761 H 0.17056 0.57901 0.83376 0.0
H762 H 0.14625 0.56861 0.89054 0.0
H763 H 0.10555 0.55537 0.87932 0.0
H764 H 0.2045 0.61158 0.85641 0.0
H765 H 0.17092 0.54159 0.91405 0.0
H766 H 0.13523 0.50359 0.92116 0.0
H767 H 0.11839 0.48969 0.86267 0.0
H768 H 0.15416 0.52741 0.85522 0.0
H769 H 0.30552 0.6244 0.90871 0.0
H770 H 0.26748 0.62134 0.89948 0.0
H771 H 0.24427 0.5528 0.87483 0.0
H772 H 0.28168 0.55537 0.88454 0.0
H773 H 0.20995 0.55088 0.89356 0.0
H774 H 0.26407 0.60413 0.84847 0.0
H775 H 0.3 0.63985 0.83792 0.0
H776 H 0.27666 0.6832 0.86517 0.0
H777 H 0.24073 0.64772 0.87609 0.0
C778 C 0.13341 0.56726 0.83741 0.0
C779 C 0.11463 0.55958 0.85006 0.0
C780 C 0.15661 0.57452 0.84382 0.0
C781 C 0.16133 0.57432 0.86296 0.0
C782 C 0.1429 0.56845 0.87568 0.0
C783 C 0.1197 0.56089 0.86928 0.0
C784 C 0.18475 0.5778 0.86942 0.0
C785 C 0.20574 0.5984 0.86463 0.0
C786 C 0.18637 0.56037 0.8798 0.0
C787 C 0.16505 0.53744 0.88411 0.0
C788 C 0.15964 0.53037 0.90272 0.0
C789 C 0.1394 0.50889 0.9068 0.0
C790 C 0.1245 0.49428 0.89238 0.0
C791 C 0.12989 0.50106 0.87383 0.0
C792 C 0.15014 0.52249 0.86967 0.0
C793 C 0.29227 0.60869 0.90133 0.0
C794 C 0.29657 0.59009 0.89741 0.0
C795 C 0.27059 0.60702 0.89598 0.0
C796 C 0.25306 0.58692 0.88631 0.0
C797 C 0.25744 0.56843 0.88235 0.0
C798 C 0.27889 0.56995 0.8879 0.0
C799 C 0.22988 0.58467 0.88056 0.0
C800 C 0.20883 0.56424 0.88552 0.0
C801 C 0.22832 0.60194 0.86987 0.0
C802 C 0.24985 0.62328 0.86326 0.0
C803 C 0.26669 0.62128 0.85232 0.0
C804 C 0.28704 0.64148 0.84626 0.0
C805 C 0.29065 0.66378 0.85092 0.0
C806 C 0.27387 0.66592 0.8616 0.0
C807 C 0.2535 0.64577 0.86772 0.0
H808 H 0.30641 0.6794 0.84622 0.0
H809 H 0.10882 0.47768 0.89557 0.0
H810 H 0.63154 0.12697 0.01525 0.0
H811 H 0.65786 0.16778 0.02522 0.0
H812 H 0.59663 0.17522 0.03673 0.0
H813 H 0.57006 0.13416 0.02702 0.0
H814 H 0.63075 0.21267 0.01764 0.0
H815 H 0.62753 0.16973 0.07217 0.0
H816 H 0.63011 0.13922 0.0902 0.0
H817 H 0.70387 0.16911 0.07591 0.0
H818 H 0.70163 0.19963 0.05756 0.0
H819 H 0.6965 0.32215 0.06614 0.0
H820 H 0.66811 0.28081 0.05882 0.0
H821 H 0.72643 0.26877 0.04704 0.0
H822 H 0.755 0.31006 0.05451 0.0
H823 H 0.69238 0.23348 0.06739 0.0
H824 H 0.69516 0.27531 0.01187 0.0
H825 H 0.69263 0.3057 0.9936 0.0
H826 H 0.61972 0.27776 0.00967 0.0
H827 H 0.62192 0.24738 0.02826 0.0
C828 C 0.62362 0.13716 0.02012 0.0
C829 C 0.59866 0.1272 0.02048 0.0
C830 C 0.63871 0.16052 0.02576 0.0
C831 C 0.6292 0.17444 0.03193 0.0
C832 C 0.60433 0.16475 0.03203 0.0
C833 C 0.58918 0.14132 0.02642 0.0
C834 C 0.64533 0.1992 0.03807 0.0
C835 C 0.64397 0.21722 0.02873 0.0
C836 C 0.6629 0.20512 0.05226 0.0
C837 C 0.66434 0.18684 0.06334 0.0
C838 C 0.64425 0.16969 0.07274 0.0
C839 C 0.64566 0.15241 0.08305 0.0
C840 C 0.66713 0.15219 0.08416 0.0
C841 C 0.68724 0.16929 0.07502 0.0
C842 C 0.68592 0.1866 0.06468 0.0
C843 C 0.70332 0.31071 0.06207 0.0
C844 C 0.72804 0.31945 0.06082 0.0
C845 C 0.68705 0.2871 0.05782 0.0
C846 C 0.69514 0.27179 0.05216 0.0
C847 C 0.7198 0.2803 0.05134 0.0
C848 C 0.7361 0.30393 0.05557 0.0
C849 C 0.67792 0.24696 0.04688 0.0
C850 C 0.67908 0.22893 0.05637 0.0
C851 C 0.66018 0.24102 0.03282 0.0
C852 C 0.65879 0.25923 0.02162 0.0
C853 C 0.67865 0.27577 0.01163 0.0
C854 C 0.67726 0.29297 0.0012 0.0
C855 C 0.65605 0.29371 0.00052 0.0
C856 C 0.63615 0.2772 0.01024 0.0
C857 C 0.63745 0.25997 0.02071 0.0
H858 H 0.65501 0.30704 0.99243 0.0
H859 H 0.66818 0.1388 0.09215 0.0
H860 H 0.42346 0.55969 0.20637 0.0
H861 H 0.40884 0.58592 0.21621 0.0
H862 H 0.48037 0.64536 0.214 0.0
H863 H 0.49529 0.61913 0.20503 0.0
H864 H 0.45921 0.64971 0.24335 0.0
H865 H 0.43931 0.63388 0.17866 0.0
H866 H 0.42227 0.60989 0.14996 0.0
H867 H 0.35218 0.57794 0.17317 0.0
H868 H 0.36885 0.60159 0.20209 0.0
H869 H 0.42434 0.73812 0.23371 0.0
H870 H 0.44008 0.71166 0.2273 0.0
H871 H 0.37373 0.65242 0.24466 0.0
H872 H 0.35805 0.67872 0.25152 0.0
H873 H 0.39238 0.64852 0.20775 0.0
H874 H 0.41529 0.66755 0.2729 0.0
H875 H 0.43463 0.69476 0.29964 0.0
H876 H 0.50234 0.72454 0.27263 0.0
H877 H 0.48332 0.69771 0.24559 0.0
C878 C 0.43615 0.57828 0.20828 0.0
C879 C 0.46053 0.58732 0.20477 0.0
C880 C 0.42772 0.59331 0.21369 0.0
C881 C 0.44344 0.61768 0.2155 0.0
C882 C 0.46788 0.62665 0.21257 0.0
C883 C 0.47634 0.61164 0.20727 0.0
C884 C 0.4344 0.63388 0.22022 0.0
C885 C 0.44477 0.64959 0.23543 0.0
C886 C 0.41547 0.6337 0.20995 0.0
C887 C 0.40537 0.61932 0.19263 0.0
C888 C 0.42029 0.62159 0.17771 0.0
C889 C 0.4107 0.60809 0.16138 0.0
C890 C 0.38617 0.59234 0.15977 0.0
C891 C 0.37118 0.59012 0.17445 0.0
C892 C 0.38069 0.60358 0.19081 0.0
C893 C 0.41319 0.71949 0.2363 0.0
C894 C 0.38999 0.71049 0.24314 0.0
C895 C 0.4222 0.70444 0.23265 0.0
C896 C 0.40802 0.68016 0.23552 0.0
C897 C 0.3849 0.67113 0.24238 0.0
C898 C 0.37605 0.6862 0.24636 0.0
C899 C 0.41707 0.66405 0.23091 0.0
C900 C 0.40675 0.64847 0.21567 0.0
C901 C 0.43637 0.66472 0.24087 0.0
C902 C 0.44783 0.6808 0.25714 0.0
C903 C 0.43426 0.68005 0.27258 0.0
C904 C 0.44518 0.69538 0.28781 0.0
C905 C 0.46969 0.71142 0.28781 0.0
C906 C 0.48335 0.71213 0.2726 0.0
C907 C 0.47251 0.69686 0.25733 0.0
H908 H 0.47811 0.72326 0.29961 0.0
H909 H 0.37877 0.58191 0.14712 0.0
H910 H 0.89801 0.42065 0.39085 0.0
H911 H 0.85992 0.41041 0.40516 0.0
H912 H 0.83147 0.41423 0.35141 0.0
H913 H 0.8689 0.42321 0.33694 0.0
H914 H 0.84068 0.43631 0.40829 0.0
H915 H 0.77279 0.38149 0.34828 0.0
H916 H 0.76672 0.35093 0.32508 0.0
H917 H 0.8077 0.33022 0.35939 0.0
H918 H 0.81373 0.36042 0.38294 0.0
H919 H 0.74373 0.45481 0.40432 0.0
H920 H 0.77814 0.44985 0.39952 0.0
H921 H 0.7354 0.37584 0.41138 0.0
H922 H 0.70049 0.38055 0.41567 0.0
H923 H 0.76021 0.38081 0.38202 0.0
H924 H 0.77961 0.41482 0.44253 0.0
H925 H 0.78519 0.44273 0.46799 0.0
H926 H 0.84018 0.49948 0.43725 0.0
H927 H 0.83472 0.47198 0.41147 0.0
C928 C 0.8834 0.41862 0.382 0.0
C929 C 0.88655 0.42288 0.36275 0.0
C930 C 0.8617 0.41297 0.39023 0.0
C931 C 0.84273 0.4114 0.37938 0.0
C932 C 0.84562 0.41489 0.36007 0.0
C933 C 0.86719 0.42036 0.35183 0.0
C934 C 0.82071 0.4083 0.38827 0.0
C935 C 0.82307 0.42398 0.40269 0.0
C936 C 0.79763 0.39176 0.38137 0.0
C937 C 0.79382 0.37334 0.36734 0.0
C938 C 0.78038 0.37032 0.35095 0.0
C939 C 0.77698 0.35308 0.33771 0.0
C940 C 0.78686 0.33868 0.34074 0.0
C941 C 0.80011 0.34144 0.35704 0.0
C942 C 0.80356 0.35864 0.37032 0.0
C943 C 0.74164 0.4375 0.40612 0.0
C944 C 0.71933 0.41808 0.41039 0.0
C945 C 0.76142 0.43471 0.40348 0.0
C946 C 0.7595 0.41253 0.40536 0.0
C947 C 0.73733 0.39313 0.40991 0.0
C948 C 0.71742 0.39587 0.4124 0.0
C949 C 0.78035 0.40957 0.4014 0.0
C950 C 0.77777 0.39278 0.3879 0.0
C951 C 0.80316 0.42466 0.40951 0.0
C952 C 0.80667 0.44131 0.42502 0.0
C953 C 0.7928 0.43327 0.44115 0.0
C954 C 0.79596 0.44902 0.45564 0.0
C955 C 0.81302 0.47286 0.45423 0.0
C956 C 0.82699 0.481 0.43833 0.0
C957 C 0.8239 0.46533 0.42378 0.0
H958 H 0.81542 0.48503 0.46546 0.0
H959 H 0.78422 0.32535 0.33047 0.0
H960 H 0.11658 0.55829 0.38676 0.0
H961 H 0.14371 0.57715 0.41329 0.0
H962 H 0.10009 0.51679 0.44701 0.0
H963 H 0.07201 0.49848 0.42092 0.0
H964 H 0.11031 0.55427 0.46563 0.0
H965 H 0.15683 0.52983 0.43054 0.0
H966 H 0.17629 0.52591 0.40242 0.0
H967 H 0.22012 0.60112 0.40001 0.0
H968 H 0.20075 0.60552 0.428 0.0
H969 H 0.22502 0.60753 0.5277 0.0
H970 H 0.2022 0.58275 0.50077 0.0
H971 H 0.17003 0.62592 0.49246 0.0
H972 H 0.19245 0.65054 0.51918 0.0
H973 H 0.19853 0.59203 0.46287 0.0
H974 H 0.1113 0.59012 0.48358 0.0
H975 H 0.0915 0.59246 0.51208 0.0
H976 H 0.12858 0.56538 0.54426 0.0
H977 H 0.14833 0.56255 0.51592 0.0
C978 C 0.11263 0.54905 0.39984 0.0
C979 C 0.09196 0.52687 0.40167 0.0
C980 C 0.12841 0.55972 0.41495 0.0
C981 C 0.12417 0.54828 0.43213 0.0
C982 C 0.10382 0.52595 0.43389 0.0
C983 C 0.08787 0.51538 0.41886 0.0
C984 C 0.14002 0.56025 0.44858 0.0
C985 C 0.12958 0.56234 0.46501 0.0
C986 C 0.16519 0.57059 0.44793 0.0
C987 C 0.17723 0.568 0.43132 0.0
C988 C 0.17055 0.54554 0.42397 0.0
C989 C 0.18158 0.54323 0.40806 0.0
C990 C 0.1994 0.56326 0.39942 0.0
C991 C 0.20631 0.58563 0.40672 0.0
C992 C 0.19535 0.58804 0.42263 0.0
C993 C 0.21322 0.61183 0.52004 0.0
C994 C 0.21039 0.63088 0.52573 0.0
C995 C 0.20028 0.59772 0.50463 0.0
C996 C 0.18421 0.60234 0.4948 0.0
C997 C 0.18208 0.62185 0.50003 0.0
C998 C 0.19497 0.63593 0.51532 0.0
C999 C 0.16873 0.58635 0.47959 0.0
C1000 C 0.17924 0.58363 0.46345 0.0
C1001 C 0.14356 0.57507 0.48055 0.0
C1002 C 0.13143 0.57631 0.49763 0.0
C1003 C 0.11513 0.58455 0.49672 0.0
C1004 C 0.10394 0.58598 0.51285 0.0
C1005 C 0.10883 0.57913 0.52997 0.0
C1006 C 0.12487 0.57075 0.53099 0.0
C1007 C 0.13609 0.56926 0.5149 0.0
H1008 H 0.10016 0.58028 0.54245 0.0
H1009 H 0.20787 0.56144 0.38708 0.0
H1010 H 0.59882 0.1155 0.56401 0.0
H1011 H 0.6069 0.14085 0.59161 0.0
H1012 H 0.53253 0.12112 0.59306 0.0
H1013 H 0.52433 0.09576 0.56564 0.0
H1014 H 0.56087 0.16774 0.59843 0.0
H1015 H 0.55586 0.0967 0.6224 0.0
H1016 H 0.56719 0.06603 0.62454 0.0
H1017 H 0.63906 0.11856 0.63953 0.0
H1018 H 0.62821 0.14959 0.63723 0.0
H1019 H 0.54113 0.19155 0.68994 0.0
H1020 H 0.54185 0.17258 0.66077 0.0
H1021 H 0.61799 0.20218 0.66703 0.0
H1022 H 0.61749 0.22131 0.69642 0.0
H1023 H 0.59451 0.15488 0.65675 0.0
H1024 H 0.5982 0.22543 0.63602 0.0
H1025 H 0.58647 0.25583 0.63426 0.0
H1026 H 0.51703 0.20428 0.6133 0.0
H1027 H 0.52822 0.17348 0.61519 0.0
C1028 C 0.58419 0.1165 0.57028 0.0
C1029 C 0.56093 0.10363 0.56263 0.0
C1030 C 0.58884 0.13101 0.58601 0.0
C1031 C 0.57027 0.13275 0.59446 0.0
C1032 C 0.54714 0.12014 0.58671 0.0
C1033 C 0.54249 0.1057 0.571 0.0
C1034 C 0.57468 0.14744 0.61149 0.0
C1035 C 0.56808 0.16482 0.61122 0.0
C1036 C 0.58479 0.14413 0.628 0.0
C1037 C 0.5913 0.12548 0.62943 0.0
C1038 C 0.57413 0.10173 0.626 0.0
C1039 C 0.58045 0.08427 0.62727 0.0
C1040 C 0.60385 0.09035 0.63211 0.0
C1041 C 0.62095 0.11388 0.63574 0.0
C1042 C 0.61473 0.13141 0.63447 0.0
C1043 C 0.55807 0.19407 0.68517 0.0
C1044 C 0.57927 0.20801 0.69551 0.0
C1045 C 0.55845 0.18329 0.66843 0.0
C1046 C 0.58001 0.18622 0.66164 0.0
C1047 C 0.60119 0.1998 0.67202 0.0
C1048 C 0.60086 0.21074 0.68877 0.0
C1049 C 0.58013 0.17473 0.64379 0.0
C1050 C 0.58761 0.15801 0.64389 0.0
C1051 C 0.5708 0.17862 0.62711 0.0
C1052 C 0.564 0.19711 0.62588 0.0
C1053 C 0.58036 0.22053 0.63117 0.0
C1054 C 0.57382 0.23785 0.63012 0.0
C1055 C 0.55101 0.23198 0.6237 0.0
C1056 C 0.5347 0.2088 0.61828 0.0
C1057 C 0.54114 0.19141 0.61931 0.0
H1058 H 0.54598 0.24541 0.6229 0.0
H1059 H 0.60871 0.07681 0.63309 0.0
H1060 H 0.45732 0.58641 0.71972 0.0
H1061 H 0.44495 0.59734 0.7487 0.0
H1062 H 0.48061 0.56841 0.78095 0.0
H1063 H 0.4933 0.55784 0.75216 0.0
H1064 H 0.42978 0.55162 0.78886 0.0
H1065 H 0.50616 0.6229 0.78141 0.0
H1066 H 0.53531 0.65766 0.76417 0.0
H1067 H 0.48544 0.6827 0.76099 0.0
H1068 H 0.45585 0.64788 0.77799 0.0
H1069 H 0.41493 0.57706 0.8798 0.0
H1070 H 0.43468 0.5758 0.85134 0.0
H1071 H 0.41783 0.62527 0.82585 0.0
H1072 H 0.39937 0.62769 0.8549 0.0
H1073 H 0.4582 0.63267 0.81306 0.0
H1074 H 0.38186 0.5639 0.81914 0.0
H1075 H 0.34997 0.52897 0.83449 0.0
H1076 H 0.39524 0.49854 0.83747 0.0
H1077 H 0.42754 0.53345 0.82236 0.0
C1078 C 0.46262 0.58257 0.73303 0.0
C1079 C 0.47628 0.57135 0.73377 0.0
C1080 C 0.45568 0.5889 0.7495 0.0
C1081 C 0.462 0.58374 0.76688 0.0
C1082 C 0.4757 0.57263 0.76763 0.0
C1083 C 0.48298 0.56668 0.75122 0.0
C1084 C 0.45317 0.58857 0.78434 0.0
C1085 C 0.43617 0.56931 0.79431 0.0
C1086 C 0.46088 0.61169 0.79092 0.0
C1087 C 0.47869 0.63265 0.78078 0.0
C1088 C 0.50132 0.63569 0.77687 0.0
C1089 C 0.51794 0.65544 0.76718 0.0
C1090 C 0.5122 0.67234 0.76144 0.0
C1091 C 0.48985 0.66957 0.76542 0.0
C1092 C 0.47315 0.64985 0.77509 0.0
C1093 C 0.41592 0.58804 0.86824 0.0
C1094 C 0.4055 0.60231 0.8694 0.0
C1095 C 0.42702 0.58718 0.85193 0.0
C1096 C 0.427 0.5998 0.83619 0.0
C1097 C 0.41788 0.61521 0.83773 0.0
C1098 C 0.40736 0.6166 0.85431 0.0
C1099 C 0.43506 0.59563 0.81793 0.0
C1100 C 0.45175 0.61495 0.80769 0.0
C1101 C 0.42663 0.57251 0.81079 0.0
C1102 C 0.40718 0.55138 0.81976 0.0
C1103 C 0.38506 0.54982 0.82317 0.0
C1104 C 0.36691 0.53002 0.83182 0.0
C1105 C 0.3706 0.51157 0.83699 0.0
C1106 C 0.39242 0.51285 0.83347 0.0
C1107 C 0.41065 0.53263 0.82485 0.0
H1108 H 0.35653 0.49625 0.84369 0.0
H1109 H 0.5251 0.68762 0.75394 0.0
H1110 H 0.93875 0.47238 0.91001 0.0
H1111 H 0.91261 0.46039 0.93685 0.0
H1112 H 0.85239 0.41489 0.90116 0.0
H1113 H 0.87857 0.42773 0.87404 0.0
H1114 H 0.83902 0.43592 0.92417 0.0
H1115 H 0.87907 0.39285 0.93226 0.0
H1116 H 0.91289 0.38552 0.93401 0.0
H1117 H 0.94224 0.43298 0.98105 0.0
H1118 H 0.90879 0.44088 0.97943 0.0
H1119 H 0.77559 0.38824 0.01187 0.0
H1120 H 0.7943 0.38895 0.98197 0.0
H1121 H 0.85603 0.45511 0.99805 0.0
H1122 H 0.83739 0.45492 0.02751 0.0
H1123 H 0.86333 0.41516 0.98368 0.0
H1124 H 0.82387 0.46112 0.97072 0.0
H1125 H 0.78827 0.46561 0.96859 0.0
H1126 H 0.75509 0.40699 0.93007 0.0
H1127 H 0.79041 0.40197 0.93219 0.0
C1128 C 0.91997 0.45968 0.90794 0.0
C1129 C 0.91068 0.45081 0.89002 0.0
C1130 C 0.90503 0.45272 0.92329 0.0
C1131 C 0.88057 0.43626 0.92116 0.0
C1132 C 0.8712 0.42749 0.9032 0.0
C1133 C 0.88613 0.4348 0.88774 0.0
C1134 C 0.86484 0.42901 0.93767 0.0
C1135 C 0.84412 0.43088 0.93703 0.0
C1136 C 0.8713 0.42231 0.95453 0.0
C1137 C 0.89145 0.41756 0.95565 0.0
C1138 C 0.89281 0.40184 0.94291 0.0
C1139 C 0.91191 0.39757 0.94388 0.0
C1140 C 0.92972 0.4088 0.95761 0.0
C1141 C 0.92843 0.4243 0.97042 0.0
C1142 C 0.90938 0.42865 0.9695 0.0
C1143 C 0.79311 0.40294 0.00896 0.0
C1144 C 0.80498 0.42157 0.02198 0.0
C1145 C 0.80372 0.40331 0.99193 0.0
C1146 C 0.8265 0.42207 0.98792 0.0
C1147 C 0.83844 0.44049 0.00096 0.0
C1148 C 0.8277 0.44039 0.01773 0.0
C1149 C 0.83823 0.42286 0.97017 0.0
C1150 C 0.85812 0.41972 0.97063 0.0
C1151 C 0.83074 0.42787 0.9531 0.0
C1152 C 0.80961 0.43097 0.95182 0.0
C1153 C 0.80888 0.44903 0.96196 0.0
C1154 C 0.78878 0.45172 0.96071 0.0
C1155 C 0.76939 0.43654 0.94926 0.0
C1156 C 0.77009 0.4187 0.93897 0.0
C1157 C 0.79014 0.41593 0.94019 0.0
H1158 H 0.75385 0.43865 0.94831 0.0
H1159 H 0.94449 0.40548 0.95834 0.0
H1160 H 0.50676 0.91527 0.06617 0.0
H1161 H 0.48885 0.88899 0.09266 0.0
H1162 H 0.43031 0.90285 0.09158 0.0
H1163 H 0.44822 0.9293 0.06541 0.0
H1164 H 0.44864 0.90642 0.1267 0.0
H1165 H 0.42294 0.85186 0.07439 0.0
H1166 H 0.42891 0.83333 0.04646 0.0
H1167 H 0.47066 0.81182 0.07897 0.0
H1168 H 0.46521 0.83054 0.10706 0.0
H1169 H 0.36198 0.81993 0.18191 0.0
H1170 H 0.38298 0.84244 0.1547 0.0
H1171 H 0.43574 0.82113 0.1618 0.0
H1172 H 0.41454 0.79812 0.18907 0.0
H1173 H 0.42418 0.82161 0.12475 0.0
H1174 H 0.44835 0.8742 0.17734 0.0
H1175 H 0.44268 0.89276 0.20539 0.0
H1176 H 0.40486 0.91849 0.17256 0.0
H1177 H 0.41 0.89978 0.14434 0.0
C1178 C 0.49012 0.91275 0.07166 0.0
C1179 C 0.47884 0.92426 0.06368 0.0
C1180 C 0.47983 0.89762 0.08667 0.0
C1181 C 0.45816 0.89385 0.09398 0.0
C1182 C 0.447 0.90547 0.08611 0.0
C1183 C 0.45717 0.92044 0.07108 0.0
C1184 C 0.44719 0.87822 0.11008 0.0
C1185 C 0.4431 0.88784 0.12621 0.0
C1186 C 0.44068 0.85415 0.10963 0.0
C1187 C 0.4439 0.84284 0.09278 0.0
C1188 C 0.43357 0.84337 0.07555 0.0
C1189 C 0.43682 0.83279 0.0597 0.0
C1190 C 0.45022 0.82147 0.06093 0.0
C1191 C 0.46033 0.82064 0.07803 0.0
C1192 C 0.45715 0.83122 0.09392 0.0
C1193 C 0.37792 0.8198 0.17764 0.0
C1194 C 0.38673 0.80743 0.18782 0.0
C1195 C 0.38994 0.83274 0.16208 0.0
C1196 C 0.41119 0.83385 0.15647 0.0
C1197 C 0.41945 0.82061 0.16599 0.0
C1198 C 0.40732 0.8075 0.18157 0.0
C1199 C 0.42514 0.84973 0.14119 0.0
C1200 C 0.42989 0.84023 0.12528 0.0
C1201 C 0.4324 0.87399 0.14183 0.0
C1202 C 0.4294 0.88542 0.15875 0.0
C1203 C 0.43868 0.88367 0.17612 0.0
C1204 C 0.43558 0.89424 0.19205 0.0
C1205 C 0.42338 0.90675 0.19076 0.0
C1206 C 0.4143 0.90877 0.17353 0.0
C1207 C 0.41732 0.89821 0.15757 0.0
H1208 H 0.42099 0.91492 0.20311 0.0
H1209 H 0.45271 0.81329 0.04864 0.0
H1210 H 0.51455 0.42877 0.23663 0.0
H1211 H 0.52836 0.41252 0.26125 0.0
H1212 H 0.59384 0.47909 0.2669 0.0
H1213 H 0.58005 0.49559 0.24267 0.0
H1214 H 0.60159 0.44146 0.26645 0.0
H1215 H 0.54918 0.46422 0.29707 0.0
H1216 H 0.51078 0.46285 0.30169 0.0
H1217 H 0.47648 0.38845 0.31107 0.0
H1218 H 0.51466 0.38935 0.30626 0.0
H1219 H 0.65145 0.45615 0.35512 0.0
H1220 H 0.63169 0.4569 0.32633 0.0
H1221 H 0.57506 0.38581 0.33544 0.0
H1222 H 0.59488 0.38487 0.36463 0.0
H1223 H 0.55828 0.41589 0.32609 0.0
H1224 H 0.61231 0.39455 0.30117 0.0
H1225 H 0.65072 0.39588 0.29688 0.0
H1226 H 0.68173 0.46642 0.27661 0.0
H1227 H 0.64361 0.46567 0.28103 0.0
C1228 C 0.53182 0.44 0.2432 0.0
C1229 C 0.54617 0.46353 0.23769 0.0
C1230 C 0.53972 0.43064 0.2572 0.0
C1231 C 0.56208 0.44463 0.26593 0.0
C1232 C 0.57658 0.46795 0.26024 0.0
C1233 C 0.56869 0.47733 0.24634 0.0
C1234 C 0.57038 0.43544 0.28136 0.0
C1235 C 0.59217 0.4359 0.27951 0.0
C1236 C 0.55758 0.4273 0.29812 0.0
C1237 C 0.53468 0.4268 0.30107 0.0
C1238 C 0.53341 0.44754 0.29996 0.0
C1239 C 0.51169 0.44686 0.30264 0.0
C1240 C 0.49118 0.42556 0.30661 0.0
C1241 C 0.49237 0.40492 0.30796 0.0
C1242 C 0.51404 0.40551 0.30526 0.0
C1243 C 0.63486 0.44055 0.35103 0.0
C1244 C 0.62473 0.42044 0.36222 0.0
C1245 C 0.62366 0.44098 0.33447 0.0
C1246 C 0.60206 0.42132 0.32863 0.0
C1247 C 0.59181 0.40111 0.33967 0.0
C1248 C 0.60317 0.4006 0.35629 0.0
C1249 C 0.58997 0.42278 0.31142 0.0
C1250 C 0.56746 0.42087 0.3129 0.0
C1251 C 0.60207 0.4295 0.29427 0.0
C1252 C 0.62509 0.43008 0.29152 0.0
C1253 C 0.62736 0.41041 0.29592 0.0
C1254 C 0.64908 0.41105 0.29345 0.0
C1255 C 0.66866 0.43123 0.2865 0.0
C1256 C 0.66655 0.4508 0.28198 0.0
C1257 C 0.64487 0.45026 0.28444 0.0
H1258 H 0.68547 0.43169 0.28459 0.0
H1259 H 0.47439 0.42507 0.30868 0.0
H1260 H 0.47779 0.90394 0.42937 0.0
H1261 H 0.46107 0.87548 0.40335 0.0
H1262 H 0.4637 0.92942 0.36789 0.0
H1263 H 0.48154 0.95824 0.39329 0.0
H1264 H 0.41688 0.88412 0.37116 0.0
H1265 H 0.50191 0.91644 0.35966 0.0
H1266 H 0.54249 0.9253 0.3687 0.0
H1267 H 0.51667 0.85179 0.37744 0.0
H1268 H 0.47583 0.84254 0.3687 0.0
H1269 H 0.39096 0.84558 0.27944 0.0
H1270 H 0.41016 0.86726 0.30812 0.0
H1271 H 0.4218 0.81092 0.32564 0.0
H1272 H 0.40329 0.7894 0.29636 0.0
H1273 H 0.45921 0.8516 0.33507 0.0
H1274 H 0.37605 0.81742 0.34395 0.0
H1275 H 0.33439 0.80634 0.3365 0.0
H1276 H 0.35415 0.87932 0.3355 0.0
H1277 H 0.39601 0.89087 0.34268 0.0
C1278 C 0.47527 0.9099 0.41595 0.0
C1279 C 0.48084 0.93341 0.41354 0.0
C1280 C 0.46558 0.89356 0.40116 0.0
C1281 C 0.4611 0.90042 0.38381 0.0
C1282 C 0.4669 0.92383 0.38126 0.0
C1283 C 0.47691 0.94021 0.39588 0.0
C1284 C 0.44946 0.88317 0.36838 0.0
C1285 C 0.42611 0.87706 0.36317 0.0
C1286 C 0.46124 0.87326 0.35859 0.0
C1287 C 0.48578 0.87884 0.36377 0.0
C1288 C 0.50484 0.9022 0.3637 0.0
C1289 C 0.5279 0.90728 0.36872 0.0
C1290 C 0.53214 0.88913 0.37371 0.0
C1291 C 0.51335 0.86584 0.37362 0.0
C1292 C 0.49025 0.86067 0.36862 0.0
C1293 C 0.39766 0.83779 0.28935 0.0
C1294 C 0.39538 0.81566 0.28576 0.0
C1295 C 0.40854 0.85016 0.30581 0.0
C1296 C 0.41683 0.84044 0.3193 0.0
C1297 C 0.41534 0.81868 0.3155 0.0
C1298 C 0.40476 0.8064 0.2988 0.0
C1299 C 0.42678 0.85314 0.33733 0.0
C1300 C 0.44974 0.85832 0.34314 0.0
C1301 C 0.41443 0.86184 0.34798 0.0
C1302 C 0.38922 0.85501 0.34375 0.0
C1303 C 0.37155 0.83111 0.34203 0.0
C1304 C 0.34789 0.82475 0.33786 0.0
C1305 C 0.34163 0.84212 0.3355 0.0
C1306 C 0.35902 0.86589 0.33733 0.0
C1307 C 0.38272 0.87236 0.34148 0.0
H1308 H 0.3233 0.83715 0.33227 0.0
H1309 H 0.55001 0.89309 0.37759 0.0
H1310 H 0.52189 0.44289 0.58442 0.0
H1311 H 0.53705 0.42986 0.55833 0.0
H1312 H 0.59285 0.5016 0.5502 0.0
H1313 H 0.57785 0.51466 0.57617 0.0
H1314 H 0.56842 0.47798 0.51722 0.0
H1315 H 0.60648 0.4658 0.57105 0.0
H1316 H 0.60707 0.44925 0.60168 0.0
H1317 H 0.56507 0.37919 0.57894 0.0
H1318 H 0.56395 0.39534 0.54822 0.0
H1319 H 0.65241 0.47215 0.46068 0.0
H1320 H 0.63269 0.47827 0.48713 0.0
H1321 H 0.58538 0.40328 0.49078 0.0
H1322 H 0.60525 0.39689 0.4643 0.0
H1323 H 0.601 0.42423 0.52534 0.0
H1324 H 0.56499 0.43561 0.47118 0.0
H1325 H 0.56357 0.45144 0.44043 0.0
H1326 H 0.59984 0.52172 0.46345 0.0
H1327 H 0.6018 0.50633 0.4943 0.0
C1328 C 0.53735 0.45583 0.577 0.0
C1329 C 0.54877 0.47976 0.58231 0.0
C1330 C 0.54604 0.44838 0.56221 0.0
C1331 C 0.56612 0.46478 0.55244 0.0
C1332 C 0.57735 0.48868 0.5576 0.0
C1333 C 0.56886 0.49609 0.57248 0.0
C1334 C 0.57545 0.45727 0.53667 0.0
C1335 C 0.57572 0.46638 0.519 0.0
C1336 C 0.5842 0.4415 0.53894 0.0
C1337 C 0.58488 0.43178 0.5574 0.0
C1338 C 0.59717 0.44686 0.57263 0.0
C1339 C 0.59764 0.43756 0.58999 0.0
C1340 C 0.58605 0.41318 0.59227 0.0
C1341 C 0.574 0.39806 0.57717 0.0
C1342 C 0.57345 0.40728 0.55977 0.0
C1343 C 0.63791 0.45689 0.46713 0.0
C1344 C 0.6303 0.43402 0.46026 0.0
C1345 C 0.62659 0.46045 0.48222 0.0
C1346 C 0.60732 0.44126 0.49071 0.0
C1347 C 0.60016 0.41833 0.48435 0.0
C1348 C 0.6115 0.41473 0.4692 0.0
C1349 C 0.5945 0.44542 0.50595 0.0
C1350 C 0.59349 0.43564 0.52349 0.0
C1351 C 0.58487 0.46045 0.50356 0.0
C1352 C 0.58371 0.46982 0.48503 0.0
C1353 C 0.57283 0.45445 0.46966 0.0
C1354 C 0.5719 0.46335 0.45221 0.0
C1355 C 0.58165 0.48758 0.44998 0.0
C1356 C 0.59231 0.50296 0.4652 0.0
C1357 C 0.59331 0.49416 0.48268 0.0
H1358 H 0.58091 0.49443 0.43646 0.0
H1359 H 0.58645 0.40602 0.60573 0.0
H1360 H 0.0547 0.55117 0.72366 0.0
H1361 H 0.08336 0.5698 0.69899 0.0
H1362 H 0.13868 0.57075 0.73381 0.0
H1363 H 0.11044 0.55369 0.75921 0.0
H1364 H 0.15647 0.61007 0.71672 0.0
H1365 H 0.11132 0.53037 0.69642 0.0
H1366 H 0.07545 0.49219 0.68893 0.0
H1367 H 0.05463 0.52474 0.64668 0.0
H1368 H 0.09021 0.5632 0.65409 0.0
H1369 H 0.22985 0.63272 0.63434 0.0
H1370 H 0.20559 0.61312 0.66162 0.0
H1371 H 0.15151 0.62825 0.64201 0.0
H1372 H 0.17573 0.64826 0.61503 0.0
H1373 H 0.13596 0.57856 0.65185 0.0
H1374 H 0.18201 0.65939 0.67525 0.0
H1375 H 0.21957 0.69601 0.68286 0.0
H1376 H 0.24092 0.65808 0.71944 0.0
H1377 H 0.2036 0.62114 0.71182 0.0
C1378 C 0.07302 0.55562 0.72626 0.0
C1379 C 0.08017 0.55089 0.74353 0.0
C1380 C 0.08936 0.56595 0.71196 0.0
C1381 C 0.11313 0.57127 0.71435 0.0
C1382 C 0.12041 0.56668 0.73157 0.0
C1383 C 0.10413 0.55665 0.74602 0.0
C1384 C 0.13036 0.58208 0.69895 0.0
C1385 C 0.15211 0.60289 0.70262 0.0
C1386 C 0.12479 0.57283 0.68047 0.0
C1387 C 0.10336 0.54972 0.67592 0.0
C1388 C 0.09901 0.52943 0.68562 0.0
C1389 C 0.07874 0.50773 0.68137 0.0
C1390 C 0.06275 0.50605 0.66736 0.0
C1391 C 0.06702 0.52607 0.65754 0.0
C1392 C 0.08726 0.54782 0.66174 0.0
C1393 C 0.21287 0.63201 0.63593 0.0
C1394 C 0.20471 0.64206 0.62255 0.0
C1395 C 0.19909 0.62085 0.6515 0.0
C1396 C 0.17681 0.61926 0.65374 0.0
C1397 C 0.16867 0.62931 0.64047 0.0
C1398 C 0.18259 0.64082 0.62512 0.0
C1399 C 0.16155 0.60663 0.66966 0.0
C1400 C 0.14027 0.58547 0.66604 0.0
C1401 C 0.16779 0.61526 0.68819 0.0
C1402 C 0.19017 0.63746 0.69278 0.0
C1403 C 0.19482 0.65881 0.68476 0.0
C1404 C 0.21604 0.67964 0.68911 0.0
C1405 C 0.23266 0.67936 0.70157 0.0
C1406 C 0.22806 0.65826 0.70976 0.0
C1407 C 0.20687 0.63738 0.70544 0.0
H1408 H 0.24907 0.6955 0.70493 0.0
H1409 H 0.04706 0.48923 0.6641 0.0
H1410 H 0.51984 0.09221 0.92219 0.0
H1411 H 0.52596 0.11896 0.89668 0.0
H1412 H 0.59395 0.12458 0.88546 0.0
H1413 H 0.58772 0.09723 0.91069 0.0
H1414 H 0.59438 0.16836 0.88456 0.0
H1415 H 0.54946 0.0897 0.85873 0.0
H1416 H 0.5162 0.04865 0.85748 0.0
H1417 H 0.46589 0.07298 0.85253 0.0
H1418 H 0.49884 0.1142 0.85404 0.0
H1419 H 0.60948 0.21605 0.79354 0.0
H1420 H 0.60674 0.19355 0.82129 0.0
H1421 H 0.53325 0.17548 0.82763 0.0
H1422 H 0.53563 0.19726 0.79951 0.0
H1423 H 0.53645 0.13811 0.8314 0.0
H1424 H 0.58014 0.2164 0.85707 0.0
H1425 H 0.6126 0.25778 0.85916 0.0
H1426 H 0.66417 0.23518 0.86528 0.0
H1427 H 0.63203 0.19365 0.86298 0.0
C1428 C 0.53605 0.09897 0.91424 0.0
C1429 C 0.55315 0.09229 0.91836 0.0
C1430 C 0.53957 0.11439 0.89975 0.0
C1431 C 0.5603 0.12354 0.8891 0.0
C1432 C 0.57785 0.1177 0.89356 0.0
C1433 C 0.57427 0.10212 0.90801 0.0
C1434 C 0.56305 0.13838 0.87281 0.0
C1435 C 0.58194 0.16174 0.87279 0.0
C1436 C 0.54643 0.12981 0.85774 0.0
C1437 C 0.5266 0.10503 0.85668 0.0
C1438 C 0.53129 0.0863 0.85753 0.0
C1439 C 0.5125 0.063 0.85675 0.0
C1440 C 0.48894 0.05821 0.85497 0.0
C1441 C 0.48414 0.07672 0.85393 0.0
C1442 C 0.50287 0.10005 0.85473 0.0
C1443 C 0.5928 0.20747 0.80094 0.0
C1444 C 0.57275 0.20841 0.7943 0.0
C1445 C 0.59129 0.19469 0.81688 0.0
C1446 C 0.56985 0.18299 0.82671 0.0
C1447 C 0.54997 0.18431 0.82028 0.0
C1448 C 0.55137 0.19682 0.80422 0.0
C1449 C 0.56771 0.16836 0.8431 0.0
C1450 C 0.54894 0.14491 0.84313 0.0
C1451 C 0.58433 0.17696 0.85824 0.0
C1452 C 0.60369 0.20192 0.85967 0.0
C1453 C 0.59842 0.22026 0.85872 0.0
C1454 C 0.61675 0.24374 0.85997 0.0
C1455 C 0.64044 0.24911 0.8623 0.0
C1456 C 0.64582 0.231 0.86345 0.0
C1457 C 0.62755 0.20749 0.86219 0.0
H1458 H 0.65461 0.2673 0.86327 0.0
H1459 H 0.47442 0.04016 0.85437 0.0
H1460 H 0.48234 0.59001 0.09762 0.0
H1461 H 0.46498 0.59977 0.07093 0.0
H1462 H 0.40542 0.52869 0.06944 0.0
H1463 H 0.42263 0.51884 0.09604 0.0
H1464 H 0.42797 0.54449 0.0351 0.0
H1465 H 0.39626 0.57021 0.08447 0.0
H1466 H 0.3989 0.59272 0.11299 0.0
H1467 H 0.44312 0.65755 0.08485 0.0
H1468 H 0.44106 0.6354 0.05622 0.0
H1469 H 0.35265 0.55102 0.96864 0.0
H1470 H 0.36761 0.54661 -0.00122 0.0
H1471 H 0.4216 0.62016 -0.00084 0.0
H1472 H 0.40636 0.62488 0.96899 0.0
H1473 H 0.40358 0.60522 0.0342 0.0
H1474 H 0.43601 0.58029 0.98521 0.0
H1475 H 0.43483 0.55835 0.95673 0.0
H1476 H 0.39115 0.49288 0.98424 0.0
H1477 H 0.39179 0.51445 0.01282 0.0
C1478 C 0.46548 0.57654 0.09164 0.0
C1479 C 0.45381 0.55367 0.09886 0.0
C1480 C 0.45553 0.58217 0.07651 0.0
C1481 C 0.4339 0.56495 0.0683 0.0
C1482 C 0.4221 0.54221 0.07564 0.0
C1483 C 0.43187 0.53666 0.09087 0.0
C1484 C 0.42422 0.57015 0.05137 0.0
C1485 C 0.42233 0.55754 0.03495 0.0
C1486 C 0.41767 0.58775 0.05112 0.0
C1487 C 0.41872 0.60113 0.06825 0.0
C1488 C 0.40672 0.58926 0.08441 0.0
C1489 C 0.40808 0.60196 0.10059 0.0
C1490 C 0.42122 0.62655 0.10076 0.0
C1491 C 0.43297 0.6385 0.08471 0.0
C1492 C 0.4317 0.62588 0.0685 0.0
C1493 C 0.36755 0.56635 0.97518 0.0
C1494 C 0.37853 0.58824 0.96629 0.0
C1495 C 0.37609 0.56379 0.99242 0.0
C1496 C 0.39601 0.58294 0.00102 0.0
C1497 C 0.40627 0.60513 0.9927 0.0
C1498 C 0.39758 0.60778 0.97545 0.0
C1499 C 0.40693 0.57922 0.018 0.0
C1500 C 0.40921 0.59218 0.03436 0.0
C1501 C 0.41407 0.56203 0.01823 0.0
C1502 C 0.41377 0.54899 0.0011 0.0
C1503 C 0.42601 0.56121 0.98515 0.0
C1504 C 0.42546 0.54885 0.96899 0.0
C1505 C 0.41288 0.52424 0.96866 0.0
C1506 C 0.40087 0.51195 0.98451 0.0
C1507 C 0.40134 0.52423 0.00069 0.0
H1508 H 0.41247 0.5147 0.95614 0.0
H1509 H 0.42226 0.63634 0.11331 0.0
H1510 H 0.88871 0.41065 0.26605 0.0
H1511 H 0.86146 0.40009 0.23901 0.0
H1512 H 0.91938 0.45052 0.20581 0.0
H1513 H 0.94682 0.4605 0.23231 0.0
H1514 H 0.87708 0.4551 0.2066 0.0
H1515 H 0.90138 0.3963 0.19791 0.0
H1516 H 0.9053 0.36246 0.20785 0.0
H1517 H 0.82929 0.32089 0.21369 0.0
H1518 H 0.82496 0.35462 0.20403 0.0
H1519 H 0.84384 0.44467 0.11414 0.0
H1520 H 0.86347 0.44421 0.14315 0.0
H1521 H 0.79957 0.38135 0.15963 0.0
H1522 H 0.77997 0.38122 0.12998 0.0
H1523 H 0.83829 0.3796 0.17073 0.0
H1524 H 0.81228 0.43526 0.17706 0.0
H1525 H 0.80649 0.46835 0.16825 0.0
H1526 H 0.88239 0.51503 0.16917 0.0
H1527 H 0.88867 0.48215 0.17772 0.0
C1528 C 0.89574 0.41918 0.2529 0.0
C1529 C 0.91993 0.43667 0.25145 0.0
C1530 C 0.88012 0.41317 0.23751 0.0
C1531 C 0.88844 0.42465 0.22051 0.0
C1532 C 0.91261 0.44163 0.21889 0.0
C1533 C 0.92823 0.44742 0.23412 0.0
C1534 C 0.87199 0.42014 0.20451 0.0
C1535 C 0.86867 0.43865 0.19868 0.0
C1536 C 0.86024 0.39831 0.19475 0.0
C1537 C 0.86288 0.37806 0.20048 0.0
C1538 C 0.88553 0.38002 0.2015 0.0
C1539 C 0.88782 0.36084 0.20704 0.0
C1540 C 0.86756 0.33956 0.21146 0.0
C1541 C 0.84497 0.33739 0.2103 0.0
C1542 C 0.84258 0.35653 0.20478 0.0
C1543 C 0.83399 0.43061 0.12385 0.0
C1544 C 0.81027 0.41316 0.11993 0.0
C1545 C 0.84521 0.43041 0.14047 0.0
C1546 C 0.83276 0.41316 0.15383 0.0
C1547 C 0.80942 0.39497 0.1496 0.0
C1548 C 0.79826 0.39492 0.1327 0.0
C1549 C 0.84414 0.41496 0.17234 0.0
C1550 C 0.84639 0.39596 0.17875 0.0
C1551 C 0.85461 0.43625 0.18292 0.0
C1552 C 0.85094 0.45618 0.17794 0.0
C1553 C 0.82775 0.45255 0.17528 0.0
C1554 C 0.82438 0.47127 0.17034 0.0
C1555 C 0.84406 0.49377 0.16813 0.0
C1556 C 0.86716 0.49759 0.17089 0.0
C1557 C 0.87064 0.47892 0.17581 0.0
H1558 H 0.84141 0.50824 0.16429 0.0
H1559 H 0.86937 0.32474 0.21575 0.0
loop_
_geom_bond_atom_site_label_1
_geom_bond_atom_site_label_2
_geom_bond_distance
_geom_bond_site_symmetry_2
_ccdc_geom_bond_type
C0 C1 1.384 . S
C0 C2 1.384 . S
C0 H28 0.931 . S
C1 C0 1.384 . S
C1 C4 1.382 . S
C2 C0 1.384 . S
C2 C3 1.381 . S
C2 H29 0.930 . S
C3 C2 1.381 . S
C3 C5 1.381 . S
C3 C6 1.487 . S
C4 C1 1.382 . S
C4 C5 1.387 . S
C4 H30 0.930 . S
C5 C3 1.381 . S
C5 C4 1.387 . S
C5 H31 0.931 . S
C6 C3 1.487 . S
C6 C13 1.399 . S
C6 N44 1.343 1_655 S
C7 C8 1.384 . S
C7 C9 1.384 . S
C7 H32 0.931 . S
C8 C7 1.384 . S
C8 C11 1.382 . S
C9 C7 1.384 . S
C9 C10 1.381 . S
C9 H33 0.930 . S
C10 C9 1.381 . S
C10 C12 1.381 . S
C10 C13 1.487 . S
C11 C8 1.382 . S
C11 C12 1.387 . S
C11 H34 0.930 . S
C12 C10 1.381 . S
C12 C11 1.387 . S
C12 H35 0.931 . S
C13 C6 1.399 . S
C13 C10 1.487 . S
C13 N45 1.343 1_655 S
C14 C15 1.384 . S
C14 C16 1.384 . S
C14 H36 0.931 . S
C15 C14 1.384 . S
C15 C18 1.382 . S
C16 C14 1.384 . S
C16 C17 1.381 . S
C16 H37 0.930 . S
C17 C16 1.381 . S
C17 C19 1.381 . S
C17 C20 1.487 . S
C18 C15 1.382 . S
C18 C19 1.387 . S
C18 H38 0.930 . S
C19 C17 1.381 . S
C19 C18 1.387 . S
C19 H39 0.931 . S
C20 C17 1.487 . S
C20 C27 1.399 . S
C20 N45 1.343 . S
C21 C22 1.384 . S
C21 C23 1.384 . S
C21 H40 0.931 . S
C22 C21 1.384 . S
C22 C25 1.382 . S
C23 C21 1.384 . S
C23 C24 1.381 . S
C23 H41 0.930 . S
C24 C23 1.381 . S
C24 C26 1.381 . S
C24 C27 1.487 . S
C25 C22 1.382 . S
C25 C26 1.387 . S
C25 H42 0.930 . S
C26 C24 1.381 . S
C26 C25 1.387 . S
C26 H43 0.931 . S
C27 C20 1.399 . S
C27 C24 1.487 . S
C27 N44 1.343 . S
H28 C0 0.931 . S
H29 C2 0.930 . S
H30 C4 0.930 . S
H31 C5 0.931 . S
H32 C7 0.931 . S
H33 C9 0.930 . S
H34 C11 0.930 . S
H35 C12 0.931 . S
H36 C14 0.931 . S
H37 C16 0.930 . S
H38 C18 0.930 . S
H39 C19 0.931 . S
H40 C21 0.931 . S
H41 C23 0.930 . S
H42 C25 0.930 . S
H43 C26 0.931 . S
N44 C6 1.343 1_455 S
N44 C27 1.343 . S
N45 C13 1.343 1_455 S
N45 C20 1.343 . S
C46 C47 1.384 . S
C46 C48 1.384 . S
C46 H74 0.931 . S
C47 C46 1.384 . S
C47 C50 1.382 . S
C48 C46 1.384 . S
C48 C49 1.381 . S
C48 H75 0.930 . S
C49 C48 1.381 . S
C49 C51 1.381 . S
C49 C52 1.487 . S
C50 C47 1.382 . S
C50 C51 1.387 . S
C50 H76 0.930 . S
C51 C49 1.381 . S
C51 C50 1.387 . S
C51 H77 0.931 . S
C52 C49 1.487 . S
C52 C59 1.399 . S
C52 N90 1.348 . S
C53 C54 1.384 . S
C53 C55 1.384 . S
C53 H78 0.931 . S
C54 C53 1.384 . S
C54 C57 1.382 . S
C55 C53 1.384 . S
C55 C56 1.381 . S
C55 H79 0.930 . S
C56 C55 1.381 . S
C56 C58 1.381 . S
C56 C59 1.487 . S
C57 C54 1.382 . S
C57 C58 1.387 . S
C57 H80 0.930 . S
C58 C56 1.381 . S
C58 C57 1.387 . S
C58 H81 0.931 . S
C59 C52 1.399 . S
C59 C56 1.487 . S
C59 N91 1.343 1_565 S
C60 C61 1.384 . S
C60 C62 1.384 . S
C60 H82 0.931 . S
C61 C60 1.384 . S
C61 C64 1.382 . S
C62 C60 1.384 . S
C62 C63 1.381 . S
C62 H83 0.930 . S
C63 C62 1.381 . S
C63 C65 1.381 . S
C63 C66 1.487 . S
C64 C61 1.382 . S
C64 C65 1.387 . S
C64 H84 0.930 . S
C65 C63 1.381 . S
C65 C64 1.387 . S
C65 H85 0.931 . S
C66 C63 1.487 . S
C66 C73 1.399 . S
C66 N91 1.343 . S
C67 C68 1.384 . S
C67 C69 1.384 . S
C67 H86 0.931 . S
C68 C67 1.384 . S
C68 C71 1.382 . S
C69 C67 1.384 . S
C69 C70 1.381 . S
C69 H87 0.930 . S
C70 C69 1.381 . S
C70 C72 1.381 . S
C70 C73 1.487 . S
C71 C68 1.382 . S
C71 C72 1.387 . S
C71 H88 0.930 . S
C72 C70 1.381 . S
C72 C71 1.387 . S
C72 H89 0.931 . S
C73 C66 1.399 . S
C73 C70 1.487 . S
C73 N90 1.335 1_545 S
H74 C46 0.931 . S
H75 C48 0.930 . S
H76 C50 0.930 . S
H77 C51 0.931 . S
H78 C53 0.931 . S
H79 C55 0.930 . S
H80 C57 0.930 . S
H81 C58 0.931 . S
H82 C60 0.931 . S
H83 C62 0.930 . S
H84 C64 0.930 . S
H85 C65 0.931 . S
H86 C67 0.931 . S
H87 C69 0.930 . S
H88 C71 0.930 . S
H89 C72 0.931 . S
N90 C52 1.348 . S
N90 C73 1.335 1_565 S
N91 C59 1.343 1_545 S
N91 C66 1.343 . S
C92 C93 1.384 . S
C92 C94 1.384 . S
C92 H120 0.931 . S
C93 C92 1.384 . S
C93 C96 1.382 . S
C94 C92 1.384 . S
C94 C95 1.381 . S
C94 H121 0.930 . S
C95 C94 1.381 . S
C95 C97 1.381 . S
C95 C98 1.487 . S
C96 C93 1.382 . S
C96 C97 1.387 . S
C96 H122 0.930 . S
C97 C95 1.381 . S
C97 C96 1.387 . S
C97 H123 0.931 . S
C98 C95 1.487 . S
C98 C105 1.399 . S
C98 N136 1.343 . S
C99 C100 1.384 . S
C99 C101 1.384 . S
C99 H124 0.931 . S
C100 C99 1.384 . S
C100 C103 1.382 . S
C101 C99 1.384 . S
C101 C102 1.381 . S
C101 H125 0.930 . S
C102 C101 1.381 . S
C102 C104 1.381 . S
C102 C105 1.487 . S
C103 C100 1.382 . S
C103 C104 1.387 . S
C103 H126 0.930 . S
C104 C102 1.381 . S
C104 C103 1.387 . S
C104 H127 0.931 . S
C105 C98 1.399 . S
C105 C102 1.487 . S
C105 N137 1.343 . S
C106 C107 1.384 . S
C106 C108 1.384 . S
C106 H128 0.931 . S
C107 C106 1.384 . S
C107 C110 1.382 . S
C108 C106 1.384 . S
C108 C109 1.381 . S
C108 H129 0.930 . S
C109 C108 1.381 . S
C109 C111 1.381 . S
C109 C112 1.487 . S
C110 C107 1.382 . S
C110 C111 1.387 . S
C110 H130 0.930 . S
C111 C109 1.381 . S
C111 C110 1.387 . S
C111 H131 0.931 . S
C112 C109 1.487 . S
C112 C119 1.399 . S
C112 N137 1.343 . S
C113 C114 1.384 . S
C113 C115 1.384 . S
C113 H132 0.931 . S
C114 C113 1.384 . S
C114 C117 1.382 . S
C115 C113 1.384 . S
C115 C116 1.381 . S
C115 H133 0.930 . S
C116 C115 1.381 . S
C116 C118 1.381 . S
C116 C119 1.487 . S
C117 C114 1.382 . S
C117 C118 1.387 . S
C117 H134 0.930 . S
C118 C116 1.381 . S
C118 C117 1.387 . S
C118 H135 0.931 . S
C119 C112 1.399 . S
C119 C116 1.487 . S
C119 N136 1.343 . S
H120 C92 0.931 . S
H121 C94 0.930 . S
H122 C96 0.930 . S
H123 C97 0.931 . S
H124 C99 0.931 . S
H125 C101 0.930 . S
H126 C103 0.930 . S
H127 C104 0.931 . S
H128 C106 0.931 . S
H129 C108 0.930 . S
H130 C110 0.930 . S
H131 C111 0.931 . S
H132 C113 0.931 . S
H133 C115 0.930 . S
H134 C117 0.930 . S
H135 C118 0.931 . S
N136 C98 1.343 . S
N136 C119 1.343 . S
N137 C105 1.343 . S
N137 C112 1.343 . S
C138 C139 1.384 . S
C138 C140 1.384 . S
C138 H166 0.931 . S
C139 C138 1.384 . S
C139 C142 1.382 . S
C140 C138 1.384 . S
C140 C141 1.381 . S
C140 H167 0.930 . S
C141 C140 1.381 . S
C141 C143 1.381 . S
C141 C144 1.487 . S
C142 C139 1.382 . S
C142 C143 1.387 . S
C142 H168 0.930 . S
C143 C141 1.381 . S
C143 C142 1.387 . S
C143 H169 0.931 . S
C144 C141 1.487 . S
C144 C151 1.399 . S
C144 N182 1.343 1_655 S
C145 C146 1.384 . S
C145 C147 1.384 . S
C145 H170 0.931 . S
C146 C145 1.384 . S
C146 C149 1.382 . S
C147 C145 1.384 . S
C147 C148 1.381 . S
C147 H171 0.930 . S
C148 C147 1.381 . S
C148 C150 1.381 . S
C148 C151 1.487 . S
C149 C146 1.382 . S
C149 C150 1.387 . S
C149 H172 0.930 . S
C150 C148 1.381 . S
C150 C149 1.387 . S
C150 H173 0.931 . S
C151 C144 1.399 . S
C151 C148 1.487 . S
C151 N183 1.343 1_655 S
C152 C153 1.384 . S
C152 C154 1.384 . S
C152 H174 0.931 . S
C153 C152 1.384 . S
C153 C156 1.382 . S
C154 C152 1.384 . S
C154 C155 1.381 . S
C154 H175 0.930 . S
C155 C154 1.381 . S
C155 C157 1.381 . S
C155 C158 1.487 . S
C156 C153 1.382 . S
C156 C157 1.387 . S
C156 H176 0.930 . S
C157 C155 1.381 . S
C157 C156 1.387 . S
C157 H177 0.931 . S
C158 C155 1.487 . S
C158 C165 1.399 . S
C158 N183 1.343 . S
C159 C160 1.384 . S
C159 C161 1.384 . S
C159 H178 0.931 . S
C160 C159 1.384 . S
C160 C163 1.382 . S
C161 C159 1.384 . S
C161 C162 1.381 . S
C161 H179 0.930 . S
C162 C161 1.381 . S
C162 C164 1.381 . S
C162 C165 1.487 . S
C163 C160 1.382 . S
C163 C164 1.387 . S
C163 H180 0.930 . S
C164 C162 1.381 . S
C164 C163 1.387 . S
C164 H181 0.931 . S
C165 C158 1.399 . S
C165 C162 1.487 . S
C165 N182 1.343 . S
H166 C138 0.931 . S
H167 C140 0.930 . S
H168 C142 0.930 . S
H169 C143 0.931 . S
H170 C145 0.931 . S
H171 C147 0.930 . S
H172 C149 0.930 . S
H173 C150 0.931 . S
H174 C152 0.931 . S
H175 C154 0.930 . S
H176 C156 0.930 . S
H177 C157 0.931 . S
H178 C159 0.931 . S
H179 C161 0.930 . S
H180 C163 0.930 . S
H181 C164 0.931 . S
N182 C144 1.343 1_455 S
N182 C165 1.343 . S
N183 C151 1.343 1_455 S
N183 C158 1.343 . S
C184 C185 1.384 . S
C184 C186 1.384 . S
C184 H212 0.931 . S
C185 C184 1.384 . S
C185 C188 1.382 . S
C186 C184 1.384 . S
C186 C187 1.381 . S
C186 H213 0.950 . S
C187 C186 1.381 . S
C187 C189 1.381 . S
C187 C190 1.487 . S
C188 C185 1.382 . S
C188 C189 1.387 . S
C188 H214 0.930 . S
C189 C187 1.381 . S
C189 C188 1.387 . S
C189 H215 0.931 . S
C190 C187 1.487 . S
C190 C197 1.399 1_556 S
C190 N228 1.343 1_565 S
C191 C192 1.384 . S
C191 C193 1.384 . S
C191 H216 0.931 . S
C192 C191 1.384 . S
C192 C195 1.382 . S
C193 C191 1.384 . S
C193 C194 1.381 . S
C193 H217 0.930 . S
C194 C193 1.381 . S
C194 C196 1.381 . S
C194 C197 1.487 . S
C195 C192 1.382 . S
C195 C196 1.387 . S
C195 H218 0.930 . S
C196 C194 1.381 . S
C196 C195 1.387 . S
C196 H219 0.931 . S
C197 C190 1.399 1_554 S
C197 C194 1.487 . S
C197 N229 1.343 1_565 S
C198 C199 1.384 . S
C198 C200 1.384 1_554 S
C198 H220 0.931 1_554 S
C199 C198 1.384 . S
C199 C202 1.382 . S
C200 C198 1.384 1_556 S
C200 C201 1.381 1_556 S
C200 H221 0.930 . S
C201 C200 1.381 1_554 S
C201 C203 1.381 . S
C201 C204 1.487 1_554 S
C202 C199 1.382 . S
C202 C203 1.387 . S
C202 H222 0.930 . S
C203 C201 1.381 . S
C203 C202 1.387 . S
C203 H223 0.931 . S
C204 C201 1.487 1_556 S
C204 C211 1.399 . S
C204 N229 1.343 1_556 S
C205 C206 1.384 . S
C205 C207 1.384 . S
C205 H224 0.931 . S
C206 C205 1.384 . S
C206 C209 1.382 . S
C207 C205 1.384 . S
C207 C208 1.381 . S
C207 H225 0.930 . S
C208 C207 1.381 . S
C208 C210 1.381 . S
C208 C211 1.487 . S
C209 C206 1.382 . S
C209 C210 1.387 . S
C209 H226 0.930 . S
C210 C208 1.381 . S
C210 C209 1.387 . S
C210 H227 0.931 . S
C211 C204 1.399 . S
C211 C208 1.487 . S
C211 N228 1.343 . S
H212 C184 0.931 . S
H213 C186 0.950 . S
H214 C188 0.930 . S
H215 C189 0.931 . S
H216 C191 0.931 . S
H217 C193 0.930 . S
H218 C195 0.930 . S
H219 C196 0.931 . S
H220 C198 0.931 1_556 S
H221 C200 0.930 . S
H222 C202 0.930 . S
H223 C203 0.931 . S
H224 C205 0.931 . S
H225 C207 0.930 . S
H226 C209 0.930 . S
H227 C210 0.931 . S
N228 C190 1.343 1_545 S
N228 C211 1.343 . S
N229 C197 1.343 1_545 S
N229 C204 1.343 1_554 S
C230 C231 1.384 . S
C230 C232 1.384 . S
C230 H258 0.931 . S
C231 C230 1.384 . S
C231 C234 1.382 . S
C232 C230 1.384 . S
C232 C233 1.381 . S
C232 H259 0.930 . S
C233 C232 1.381 . S
C233 C235 1.381 . S
C233 C236 1.487 . S
C234 C231 1.382 . S
C234 C235 1.387 . S
C234 H260 0.930 . S
C235 C233 1.381 . S
C235 C234 1.387 . S
C235 H261 0.931 . S
C236 C233 1.487 . S
C236 C243 1.399 . S
C236 N274 1.343 . S
C237 C238 1.384 . S
C237 C239 1.384 . S
C237 H262 0.931 . S
C238 C237 1.384 . S
C238 C241 1.382 . S
C239 C237 1.384 . S
C239 C240 1.381 . S
C239 H263 0.930 . S
C240 C239 1.381 . S
C240 C242 1.381 . S
C240 C243 1.487 . S
C241 C238 1.382 . S
C241 C242 1.387 . S
C241 H264 0.930 . S
C242 C240 1.381 . S
C242 C241 1.387 . S
C242 H265 0.931 . S
C243 C236 1.399 . S
C243 C240 1.487 . S
C243 N275 1.343 . S
C244 C245 1.384 . S
C244 C246 1.384 . S
C244 H266 0.931 . S
C245 C244 1.384 . S
C245 C248 1.382 . S
C246 C244 1.384 . S
C246 C247 1.381 . S
C246 H267 0.930 . S
C247 C246 1.381 . S
C247 C249 1.381 . S
C247 C250 1.487 . S
C248 C245 1.382 . S
C248 C249 1.387 . S
C248 H268 0.930 . S
C249 C247 1.381 . S
C249 C248 1.387 . S
C249 H269 0.931 . S
C250 C247 1.487 . S
C250 C257 1.399 . S
C250 N275 1.343 . S
C251 C252 1.384 . S
C251 C253 1.384 . S
C251 H270 0.931 . S
C252 C251 1.384 . S
C252 C255 1.382 . S
C253 C251 1.384 . S
C253 C254 1.381 . S
C253 H271 0.930 . S
C254 C253 1.381 . S
C254 C256 1.381 . S
C254 C257 1.487 . S
C255 C252 1.382 . S
C255 C256 1.387 . S
C255 H272 0.930 . S
C256 C254 1.381 . S
C256 C255 1.387 . S
C256 H273 0.931 . S
C257 C250 1.399 . S
C257 C254 1.487 . S
C257 N274 1.343 . S
H258 C230 0.931 . S
H259 C232 0.930 . S
H260 C234 0.930 . S
H261 C235 0.931 . S
H262 C237 0.931 . S
H263 C239 0.930 . S
H264 C241 0.930 . S
H265 C242 0.931 . S
H266 C244 0.931 . S
H267 C246 0.930 . S
H268 C248 0.930 . S
H269 C249 0.931 . S
H270 C251 0.931 . S
H271 C253 0.930 . S
H272 C255 0.930 . S
H273 C256 0.931 . S
N274 C236 1.343 . S
N274 C257 1.343 . S
N275 C243 1.343 . S
N275 C250 1.343 . S
Zn276 O279 2.031 . S
Zn276 O281 2.049 . S
Zn276 O286 2.067 . S
Zn277 O278 1.962 . S
Zn277 O280 1.986 . S
Zn277 O282 1.996 . S
Zn277 O285 1.943 . S
O278 Zn277 1.962 . S
O278 C283 1.254 . S
O279 Zn276 2.031 . S
O279 C283 1.269 . S
O280 Zn277 1.986 . S
O280 C287 1.262 . S
O281 Zn276 2.049 . S
O281 C289 1.260 . S
O282 Zn277 1.996 . S
O282 C289 1.257 . S
C283 O278 1.254 . S
C283 O279 1.269 . S
C284 O285 1.249 . S
C284 O286 1.270 . S
O285 Zn277 1.943 . S
O285 C284 1.249 . S
O286 Zn276 2.067 . S
O286 C284 1.270 . S
C287 O280 1.262 . S
C287 O288 1.232 . S
O288 C287 1.232 . S
C289 O281 1.260 . S
C289 O282 1.257 . S
Zn290 O293 2.031 . S
Zn290 O295 2.049 . S
Zn290 O300 2.067 . S
Zn291 O292 1.962 . S
Zn291 O294 1.986 . S
Zn291 O296 1.996 . S
Zn291 O299 1.943 . S
O292 Zn291 1.962 . S
O292 C297 1.254 . S
O293 Zn290 2.031 . S
O293 C297 1.269 . S
O294 Zn291 1.986 . S
O294 C301 1.262 . S
O295 Zn290 2.049 . S
O295 C303 1.260 . S
O296 Zn291 1.996 . S
O296 C303 1.257 . S
C297 O292 1.254 . S
C297 O293 1.269 . S
C298 O299 1.249 . S
C298 O300 1.270 . S
O299 Zn291 1.943 . S
O299 C298 1.249 . S
O300 Zn290 2.067 . S
O300 C298 1.270 . S
C301 O294 1.262 . S
C301 O302 1.232 . S
O302 C301 1.232 . S
C303 O295 1.260 . S
C303 O296 1.257 . S
Zn304 O307 2.031 . S
Zn304 O309 2.049 . S
Zn304 O314 2.067 . S
Zn305 O306 1.962 . S
Zn305 O308 1.986 . S
Zn305 O310 1.996 . S
Zn305 O313 1.943 . S
O306 Zn305 1.962 . S
O306 C311 1.254 . S
O307 Zn304 2.031 . S
O307 C311 1.269 . S
O308 Zn305 1.986 . S
O308 C315 1.262 . S
O309 Zn304 2.049 . S
O309 C317 1.260 . S
O310 Zn305 1.996 . S
O310 C317 1.257 . S
C311 O306 1.254 . S
C311 O307 1.269 . S
C312 O313 1.249 . S
C312 O314 1.270 . S
O313 Zn305 1.943 . S
O313 C312 1.249 . S
O314 Zn304 2.067 . S
O314 C312 1.270 . S
C315 O308 1.262 . S
C315 O316 1.232 . S
O316 C315 1.232 . S
C317 O309 1.260 . S
C317 O310 1.257 . S
Zn318 O321 2.031 . S
Zn318 O323 2.049 . S
Zn318 O328 2.067 . S
Zn319 O320 1.962 . S
Zn319 O322 1.986 . S
Zn319 O324 1.996 . S
Zn319 O327 1.943 . S
O320 Zn319 1.962 . S
O320 C325 1.254 . S
O321 Zn318 2.031 . S
O321 C325 1.269 . S
O322 Zn319 1.986 . S
O322 C329 1.262 . S
O323 Zn318 2.049 . S
O323 C331 1.260 . S
O324 Zn319 1.996 . S
O324 C331 1.257 . S
C325 O320 1.254 . S
C325 O321 1.269 . S
C326 O327 1.249 . S
C326 O328 1.270 . S
O327 Zn319 1.943 . S
O327 C326 1.249 . S
O328 Zn318 2.067 . S
O328 C326 1.270 . S
C329 O322 1.262 . S
C329 O330 1.232 . S
O330 C329 1.232 . S
C331 O323 1.260 . S
C331 O324 1.257 . S
Zn332 O335 2.031 . S
Zn332 O337 2.049 . S
Zn332 O342 2.067 . S
Zn333 O334 1.962 . S
Zn333 O336 1.986 . S
Zn333 O338 1.996 . S
Zn333 O341 1.943 . S
O334 Zn333 1.962 . S
O334 C339 1.254 . S
O335 Zn332 2.031 . S
O335 C339 1.269 . S
O336 Zn333 1.986 . S
O336 C343 1.262 . S
O337 Zn332 2.049 . S
O337 C345 1.260 . S
O338 Zn333 1.996 . S
O338 C345 1.257 . S
C339 O334 1.254 . S
C339 O335 1.269 . S
C340 O341 1.249 . S
C340 O342 1.270 . S
O341 Zn333 1.943 . S
O341 C340 1.249 . S
O342 Zn332 2.067 . S
O342 C340 1.270 . S
C343 O336 1.262 . S
C343 O344 1.232 . S
O344 C343 1.232 . S
C345 O337 1.260 . S
C345 O338 1.257 . S
Zn346 O349 2.031 . S
Zn346 O351 2.049 . S
Zn346 O356 2.067 . S
Zn347 O348 1.962 . S
Zn347 O350 1.986 . S
Zn347 O352 1.996 . S
Zn347 O355 1.943 . S
O348 Zn347 1.962 . S
O348 C353 1.254 . S
O349 Zn346 2.031 . S
O349 C353 1.269 . S
O350 Zn347 1.986 . S
O350 C357 1.262 . S
O351 Zn346 2.049 . S
O351 C359 1.260 . S
O352 Zn347 1.996 . S
O352 C359 1.257 . S
C353 O348 1.254 . S
C353 O349 1.269 . S
C354 O355 1.249 . S
C354 O356 1.270 . S
O355 Zn347 1.943 . S
O355 C354 1.249 . S
O356 Zn346 2.067 . S
O356 C354 1.270 . S
C357 O350 1.262 . S
C357 O358 1.232 . S
O358 C357 1.232 . S
C359 O351 1.260 . S
C359 O352 1.257 . S
H360 C378 0.951 . S
H361 C380 0.951 . S
H362 C382 0.950 . S
H363 C383 0.950 . S
H364 C385 0.950 . S
H365 C388 0.950 . S
H366 C389 0.950 . S
H367 C391 0.950 . S
H368 C392 0.950 . S
H369 C393 0.951 . S
H370 C395 0.951 . S
H371 C397 0.950 . S
H372 C398 0.950 . S
H373 C400 0.950 . S
H374 C403 0.950 . S
H375 C404 0.950 . S
H376 C406 0.950 . S
H377 C407 0.950 . S
C378 H360 0.951 . S
C378 C379 1.366 . S
C378 C380 1.388 . S
C379 C378 1.366 . S
C379 C383 1.385 . S
C380 H361 0.951 . S
C380 C378 1.388 . S
C380 C381 1.366 . S
C381 C380 1.366 . S
C381 C382 1.414 . S
C381 C384 1.499 . S
C382 H362 0.950 . S
C382 C381 1.414 . S
C382 C383 1.374 . S
C383 H363 0.950 . S
C383 C379 1.385 . S
C383 C382 1.374 . S
C384 C381 1.499 . S
C384 C385 1.373 . S
C384 C386 1.389 . S
C385 H364 0.950 . S
C385 C384 1.373 . S
C385 C401 1.377 . S
C386 C384 1.389 . S
C386 C387 1.524 . S
C386 C400 1.377 . S
C387 C386 1.524 . S
C387 C388 1.397 . S
C387 C392 1.363 . S
C388 H365 0.950 . S
C388 C387 1.397 . S
C388 C389 1.334 . S
C389 H366 0.950 . S
C389 C388 1.334 . S
C389 C390 1.287 . S
C390 C389 1.287 . S
C390 C391 1.524 . S
C390 H409 0.913 . S
C391 H367 0.950 . S
C391 C390 1.524 . S
C391 C392 1.415 . S
C392 H368 0.950 . S
C392 C387 1.363 . S
C392 C391 1.415 . S
C393 H369 0.951 . S
C393 C394 1.366 . S
C393 C395 1.388 . S
C394 C393 1.366 . S
C394 C398 1.385 . S
C395 H370 0.951 . S
C395 C393 1.388 . S
C395 C396 1.366 . S
C396 C395 1.366 . S
C396 C397 1.414 . S
C396 C399 1.499 . S
C397 H371 0.950 . S
C397 C396 1.414 . S
C397 C398 1.374 . S
C398 H372 0.950 . S
C398 C394 1.385 . S
C398 C397 1.374 . S
C399 C396 1.499 . S
C399 C400 1.373 . S
C399 C401 1.389 . S
C400 H373 0.950 . S
C400 C386 1.377 . S
C400 C399 1.373 . S
C401 C385 1.377 . S
C401 C399 1.389 . S
C401 C402 1.524 . S
C402 C401 1.524 . S
C402 C403 1.397 . S
C402 C407 1.363 . S
C403 H374 0.950 . S
C403 C402 1.397 . S
C403 C404 1.334 . S
C404 H375 0.950 . S
C404 C403 1.334 . S
C404 C405 1.287 . S
C405 C404 1.287 . S
C405 C406 1.524 . S
C405 H408 0.999 . S
C406 H376 0.950 . S
C406 C405 1.524 . S
C406 C407 1.415 . S
C407 H377 0.950 . S
C407 C402 1.363 . S
C407 C406 1.415 . S
H408 C405 0.999 . S
H409 C390 0.913 . S
H410 C428 0.951 . S
H411 C430 0.951 . S
H412 C432 0.950 . S
H413 C433 0.950 . S
H414 C435 0.950 . S
H415 C438 0.950 . S
H416 C439 0.950 . S
H417 C441 0.950 . S
H418 C442 0.950 . S
H419 C443 0.951 . S
H420 C445 0.951 . S
H421 C447 0.950 . S
H422 C448 0.950 . S
H423 C450 0.950 . S
H424 C453 0.950 . S
H425 C454 0.950 . S
H426 C456 0.950 . S
H427 C457 0.950 . S
C428 H410 0.951 . S
C428 C429 1.366 . S
C428 C430 1.388 . S
C429 C428 1.366 . S
C429 C433 1.385 . S
C430 H411 0.951 . S
C430 C428 1.388 . S
C430 C431 1.366 . S
C431 C430 1.366 . S
C431 C432 1.414 . S
C431 C434 1.499 . S
C432 H412 0.950 . S
C432 C431 1.414 . S
C432 C433 1.374 . S
C433 H413 0.950 . S
C433 C429 1.385 . S
C433 C432 1.374 . S
C434 C431 1.499 . S
C434 C435 1.373 . S
C434 C436 1.389 . S
C435 H414 0.950 . S
C435 C434 1.373 . S
C435 C451 1.377 . S
C436 C434 1.389 . S
C436 C437 1.524 . S
C436 C450 1.377 . S
C437 C436 1.524 . S
C437 C438 1.397 . S
C437 C442 1.363 . S
C438 H415 0.950 . S
C438 C437 1.397 . S
C438 C439 1.334 . S
C439 H416 0.950 . S
C439 C438 1.334 . S
C439 C440 1.287 . S
C440 C439 1.287 . S
C440 C441 1.524 . S
C440 H459 0.913 . S
C441 H417 0.950 . S
C441 C440 1.524 . S
C441 C442 1.415 . S
C442 H418 0.950 . S
C442 C437 1.363 . S
C442 C441 1.415 . S
C443 H419 0.951 . S
C443 C444 1.366 . S
C443 C445 1.388 . S
C444 C443 1.366 . S
C444 C448 1.385 . S
C445 H420 0.951 . S
C445 C443 1.388 . S
C445 C446 1.366 . S
C446 C445 1.366 . S
C446 C447 1.414 . S
C446 C449 1.499 . S
C447 H421 0.950 . S
C447 C446 1.414 . S
C447 C448 1.374 . S
C448 H422 0.950 . S
C448 C444 1.385 . S
C448 C447 1.374 . S
C449 C446 1.499 . S
C449 C450 1.373 . S
C449 C451 1.389 . S
C450 H423 0.950 . S
C450 C436 1.377 . S
C450 C449 1.373 . S
C451 C435 1.377 . S
C451 C449 1.389 . S
C451 C452 1.524 . S
C452 C451 1.524 . S
C452 C453 1.397 . S
C452 C457 1.363 . S
C453 H424 0.950 . S
C453 C452 1.397 . S
C453 C454 1.334 . S
C454 H425 0.950 . S
C454 C453 1.334 . S
C454 C455 1.287 . S
C455 C454 1.287 . S
C455 C456 1.524 . S
C455 H458 0.999 . S
C456 H426 0.950 . S
C456 C455 1.524 . S
C456 C457 1.415 . S
C457 H427 0.950 . S
C457 C452 1.363 . S
C457 C456 1.415 . S
H458 C455 0.999 . S
H459 C440 0.913 . S
H460 C478 0.951 . S
H461 C480 0.951 . S
H462 C482 0.950 . S
H463 C483 0.950 . S
H464 C485 0.950 . S
H465 C488 0.950 . S
H466 C489 0.950 . S
H467 C491 0.950 . S
H468 C492 0.950 . S
H469 C493 0.951 . S
H470 C495 0.951 . S
H471 C497 0.950 . S
H472 C498 0.950 . S
H473 C500 0.950 . S
H474 C503 0.950 . S
H475 C504 0.950 . S
H476 C506 0.950 . S
H477 C507 0.950 . S
C478 H460 0.951 . S
C478 C479 1.366 . S
C478 C480 1.388 . S
C479 C478 1.366 . S
C479 C483 1.385 . S
C480 H461 0.951 . S
C480 C478 1.388 . S
C480 C481 1.366 . S
C481 C480 1.366 . S
C481 C482 1.414 . S
C481 C484 1.499 . S
C482 H462 0.950 . S
C482 C481 1.414 . S
C482 C483 1.374 . S
C483 H463 0.950 . S
C483 C479 1.385 . S
C483 C482 1.374 . S
C484 C481 1.499 . S
C484 C485 1.373 . S
C484 C486 1.389 . S
C485 H464 0.950 . S
C485 C484 1.373 . S
C485 C501 1.377 . S
C486 C484 1.389 . S
C486 C487 1.524 . S
C486 C500 1.377 . S
C487 C486 1.524 . S
C487 C488 1.397 . S
C487 C492 1.363 . S
C488 H465 0.950 . S
C488 C487 1.397 . S
C488 C489 1.334 . S
C489 H466 0.950 . S
C489 C488 1.334 . S
C489 C490 1.287 . S
C490 C489 1.287 . S
C490 C491 1.524 . S
C490 H509 0.913 . S
C491 H467 0.950 . S
C491 C490 1.524 . S
C491 C492 1.415 . S
C492 H468 0.950 . S
C492 C487 1.363 . S
C492 C491 1.415 . S
C493 H469 0.951 . S
C493 C494 1.366 . S
C493 C495 1.388 . S
C494 C493 1.366 . S
C494 C498 1.385 . S
C495 H470 0.951 . S
C495 C493 1.388 . S
C495 C496 1.366 . S
C496 C495 1.366 . S
C496 C497 1.414 . S
C496 C499 1.499 . S
C497 H471 0.950 . S
C497 C496 1.414 . S
C497 C498 1.374 . S
C498 H472 0.950 . S
C498 C494 1.385 . S
C498 C497 1.374 . S
C499 C496 1.499 . S
C499 C500 1.373 . S
C499 C501 1.389 . S
C500 H473 0.950 . S
C500 C486 1.377 . S
C500 C499 1.373 . S
C501 C485 1.377 . S
C501 C499 1.389 . S
C501 C502 1.524 . S
C502 C501 1.524 . S
C502 C503 1.397 . S
C502 C507 1.363 . S
C503 H474 0.950 . S
C503 C502 1.397 . S
C503 C504 1.334 . S
C504 H475 0.950 . S
C504 C503 1.334 . S
C504 C505 1.287 . S
C505 C504 1.287 . S
C505 C506 1.524 . S
C505 H508 0.999 . S
C506 H476 0.950 . S
C506 C505 1.524 . S
C506 C507 1.415 . S
C507 H477 0.950 . S
C507 C502 1.363 . S
C507 C506 1.415 . S
H508 C505 0.999 . S
H509 C490 0.913 . S
H510 C528 0.951 . S
H511 C530 0.951 . S
H512 C532 0.950 . S
H513 C533 0.950 . S
H514 C535 0.950 . S
H515 C538 0.950 . S
H516 C539 0.950 . S
H517 C541 0.950 . S
H518 C542 0.950 . S
H519 C543 0.951 . S
H520 C545 0.951 . S
H521 C547 0.950 . S
H522 C548 0.950 . S
H523 C550 0.950 . S
H524 C553 0.950 . S
H525 C554 0.950 . S
H526 C556 0.950 . S
H527 C557 0.950 . S
C528 H510 0.951 . S
C528 C529 1.366 . S
C528 C530 1.388 . S
C529 C528 1.366 . S
C529 C533 1.385 . S
C530 H511 0.951 . S
C530 C528 1.388 . S
C530 C531 1.366 . S
C531 C530 1.366 . S
C531 C532 1.414 . S
C531 C534 1.499 . S
C532 H512 0.950 . S
C532 C531 1.414 . S
C532 C533 1.374 . S
C533 H513 0.950 . S
C533 C529 1.385 . S
C533 C532 1.374 . S
C534 C531 1.499 . S
C534 C535 1.373 . S
C534 C536 1.389 . S
C535 H514 0.950 . S
C535 C534 1.373 . S
C535 C551 1.377 . S
C536 C534 1.389 . S
C536 C537 1.524 . S
C536 C550 1.377 . S
C537 C536 1.524 . S
C537 C538 1.397 . S
C537 C542 1.363 . S
C538 H515 0.950 . S
C538 C537 1.397 . S
C538 C539 1.334 . S
C539 H516 0.950 . S
C539 C538 1.334 . S
C539 C540 1.287 . S
C540 C539 1.287 . S
C540 C541 1.524 . S
C540 H559 0.913 . S
C541 H517 0.950 . S
C541 C540 1.524 . S
C541 C542 1.415 . S
C542 H518 0.950 . S
C542 C537 1.363 . S
C542 C541 1.415 . S
C543 H519 0.951 . S
C543 C544 1.366 . S
C543 C545 1.388 . S
C544 C543 1.366 . S
C544 C548 1.385 . S
C545 H520 0.951 . S
C545 C543 1.388 . S
C545 C546 1.366 . S
C546 C545 1.366 . S
C546 C547 1.414 . S
C546 C549 1.499 . S
C547 H521 0.950 . S
C547 C546 1.414 . S
C547 C548 1.374 . S
C548 H522 0.950 . S
C548 C544 1.385 . S
C548 C547 1.374 . S
C549 C546 1.499 . S
C549 C550 1.373 . S
C549 C551 1.389 . S
C550 H523 0.950 . S
C550 C536 1.377 . S
C550 C549 1.373 . S
C551 C535 1.377 . S
C551 C549 1.389 . S
C551 C552 1.524 . S
C552 C551 1.524 . S
C552 C553 1.397 . S
C552 C557 1.363 . S
C553 H524 0.950 . S
C553 C552 1.397 . S
C553 C554 1.334 . S
C554 H525 0.950 . S
C554 C553 1.334 . S
C554 C555 1.287 . S
C555 C554 1.287 . S
C555 C556 1.524 . S
C555 H558 0.999 . S
C556 H526 0.950 . S
C556 C555 1.524 . S
C556 C557 1.415 . S
C557 H527 0.950 . S
C557 C552 1.363 . S
C557 C556 1.415 . S
H558 C555 0.999 . S
H559 C540 0.913 . S
H560 C578 0.951 . S
H561 C580 0.951 . S
H562 C582 0.950 . S
H563 C583 0.950 . S
H564 C585 0.950 . S
H565 C588 0.950 . S
H566 C589 0.950 . S
H567 C591 0.950 . S
H568 C592 0.950 . S
H569 C593 0.951 . S
H570 C595 0.951 . S
H571 C597 0.950 . S
H572 C598 0.950 . S
H573 C600 0.950 . S
H574 C603 0.950 . S
H575 C604 0.950 . S
H576 C606 0.941 1_554 S
H577 C607 0.950 . S
C578 H560 0.951 . S
C578 C579 1.366 . S
C578 C580 1.388 . S
C579 C578 1.366 . S
C579 C583 1.385 . S
C580 H561 0.951 . S
C580 C578 1.388 . S
C580 C581 1.366 . S
C581 C580 1.366 . S
C581 C582 1.414 . S
C581 C584 1.499 . S
C582 H562 0.950 . S
C582 C581 1.414 . S
C582 C583 1.374 . S
C583 H563 0.950 . S
C583 C579 1.385 . S
C583 C582 1.374 . S
C584 C581 1.499 . S
C584 C585 1.373 . S
C584 C586 1.389 . S
C585 H564 0.950 . S
C585 C584 1.373 . S
C585 C601 1.377 . S
C586 C584 1.389 . S
C586 C587 1.524 . S
C586 C600 1.377 . S
C587 C586 1.524 . S
C587 C588 1.397 . S
C587 C592 1.363 . S
C588 H565 0.950 . S
C588 C587 1.397 . S
C588 C589 1.334 . S
C589 H566 0.950 . S
C589 C588 1.334 . S
C589 C590 1.287 . S
C590 C589 1.287 . S
C590 C591 1.524 . S
C590 H609 0.913 . S
C591 H567 0.950 . S
C591 C590 1.524 . S
C591 C592 1.415 . S
C592 H568 0.950 . S
C592 C587 1.363 . S
C592 C591 1.415 . S
C593 H569 0.951 . S
C593 C594 1.366 . S
C593 C595 1.388 . S
C594 C593 1.366 . S
C594 C598 1.385 . S
C595 H570 0.951 . S
C595 C593 1.388 . S
C595 C596 1.366 . S
C596 C595 1.366 . S
C596 C597 1.414 . S
C596 C599 1.499 . S
C597 H571 0.950 . S
C597 C596 1.414 . S
C597 C598 1.374 . S
C598 H572 0.950 . S
C598 C594 1.385 . S
C598 C597 1.374 . S
C599 C596 1.499 . S
C599 C600 1.373 . S
C599 C601 1.389 . S
C600 H573 0.950 . S
C600 C586 1.377 . S
C600 C599 1.373 . S
C601 C585 1.377 . S
C601 C599 1.389 . S
C601 C602 1.524 . S
C602 C601 1.524 . S
C602 C603 1.397 . S
C602 C607 1.363 . S
C603 H574 0.950 . S
C603 C602 1.397 . S
C603 C604 1.334 . S
C604 H575 0.950 . S
C604 C603 1.334 . S
C604 C605 1.287 . S
C605 C604 1.287 . S
C605 C606 1.528 . S
C605 H608 0.999 . S
C606 H576 0.941 1_556 S
C606 C605 1.528 . S
C606 C607 1.420 . S
C607 H577 0.950 . S
C607 C602 1.363 . S
C607 C606 1.420 . S
H608 C605 0.999 . S
H609 C590 0.913 . S
H610 C628 0.951 . S
H611 C630 0.951 . S
H612 C632 0.950 . S
H613 C633 0.950 . S
H614 C635 0.950 . S
H615 C638 0.950 . S
H616 C639 0.950 . S
H617 C641 0.950 . S
H618 C642 0.950 . S
H619 C643 0.951 . S
H620 C645 0.951 . S
H621 C647 0.950 . S
H622 C648 0.950 . S
H623 C650 0.950 . S
H624 C653 0.950 . S
H625 C654 0.950 . S
H626 C656 0.950 . S
H627 C657 0.950 . S
C628 H610 0.951 . S
C628 C629 1.366 . S
C628 C630 1.388 . S
C629 C628 1.366 . S
C629 C633 1.385 . S
C630 H611 0.951 . S
C630 C628 1.388 . S
C630 C631 1.366 . S
C631 C630 1.366 . S
C631 C632 1.414 . S
C631 C634 1.499 . S
C632 H612 0.950 . S
C632 C631 1.414 . S
C632 C633 1.374 . S
C633 H613 0.950 . S
C633 C629 1.385 . S
C633 C632 1.374 . S
C634 C631 1.499 . S
C634 C635 1.373 . S
C634 C636 1.389 . S
C635 H614 0.950 . S
C635 C634 1.373 . S
C635 C651 1.377 . S
C636 C634 1.389 . S
C636 C637 1.524 . S
C636 C650 1.377 . S
C637 C636 1.524 . S
C637 C638 1.397 . S
C637 C642 1.363 . S
C638 H615 0.950 . S
C638 C637 1.397 . S
C638 C639 1.334 . S
C639 H616 0.950 . S
C639 C638 1.334 . S
C639 C640 1.287 . S
C640 C639 1.287 . S
C640 C641 1.524 . S
C640 H659 0.913 . S
C641 H617 0.950 . S
C641 C640 1.524 . S
C641 C642 1.415 . S
C642 H618 0.950 . S
C642 C637 1.363 . S
C642 C641 1.415 . S
C643 H619 0.951 . S
C643 C644 1.366 . S
C643 C645 1.388 . S
C644 C643 1.366 . S
C644 C648 1.385 . S
C645 H620 0.951 . S
C645 C643 1.388 . S
C645 C646 1.366 . S
C646 C645 1.366 . S
C646 C647 1.414 . S
C646 C649 1.499 . S
C647 H621 0.950 . S
C647 C646 1.414 . S
C647 C648 1.374 . S
C648 H622 0.950 . S
C648 C644 1.385 . S
C648 C647 1.374 . S
C649 C646 1.499 . S
C649 C650 1.373 . S
C649 C651 1.389 . S
C650 H623 0.950 . S
C650 C636 1.377 . S
C650 C649 1.373 . S
C651 C635 1.377 . S
C651 C649 1.389 . S
C651 C652 1.524 . S
C652 C651 1.524 . S
C652 C653 1.397 . S
C652 C657 1.363 . S
C653 H624 0.950 . S
C653 C652 1.397 . S
C653 C654 1.334 . S
C654 H625 0.950 . S
C654 C653 1.334 . S
C654 C655 1.287 . S
C655 C654 1.287 . S
C655 C656 1.524 . S
C655 H658 0.999 . S
C656 H626 0.950 . S
C656 C655 1.524 . S
C656 C657 1.415 . S
C657 H627 0.950 . S
C657 C652 1.363 . S
C657 C656 1.415 . S
H658 C655 0.999 . S
H659 C640 0.913 . S
H660 C678 0.951 . S
H661 C680 0.951 . S
H662 C682 0.950 . S
H663 C683 0.950 . S
H664 C685 0.950 . S
H665 C688 0.950 . S
H666 C689 0.950 . S
H667 C691 0.950 . S
H668 C692 0.950 . S
H669 C693 0.951 . S
H670 C695 0.951 . S
H671 C697 0.950 . S
H672 C698 0.950 . S
H673 C700 0.950 . S
H674 C703 0.950 . S
H675 C704 0.950 . S
H676 C706 0.950 . S
H677 C707 0.950 . S
C678 H660 0.951 . S
C678 C679 1.366 . S
C678 C680 1.388 . S
C679 C678 1.366 . S
C679 C683 1.385 . S
C680 H661 0.951 . S
C680 C678 1.388 . S
C680 C681 1.366 . S
C681 C680 1.366 . S
C681 C682 1.414 . S
C681 C684 1.499 . S
C682 H662 0.950 . S
C682 C681 1.414 . S
C682 C683 1.374 . S
C683 H663 0.950 . S
C683 C679 1.385 . S
C683 C682 1.374 . S
C684 C681 1.499 . S
C684 C685 1.373 . S
C684 C686 1.389 . S
C685 H664 0.950 . S
C685 C684 1.373 . S
C685 C701 1.377 . S
C686 C684 1.389 . S
C686 C687 1.524 . S
C686 C700 1.377 . S
C687 C686 1.524 . S
C687 C688 1.397 . S
C687 C692 1.363 . S
C688 H665 0.950 . S
C688 C687 1.397 . S
C688 C689 1.334 . S
C689 H666 0.950 . S
C689 C688 1.334 . S
C689 C690 1.287 . S
C690 C689 1.287 . S
C690 C691 1.524 . S
C690 H709 0.913 . S
C691 H667 0.950 . S
C691 C690 1.524 . S
C691 C692 1.415 . S
C692 H668 0.950 . S
C692 C687 1.363 . S
C692 C691 1.415 . S
C693 H669 0.951 . S
C693 C694 1.366 . S
C693 C695 1.388 . S
C694 C693 1.366 . S
C694 C698 1.385 . S
C695 H670 0.951 . S
C695 C693 1.388 . S
C695 C696 1.366 . S
C696 C695 1.366 . S
C696 C697 1.414 . S
C696 C699 1.499 . S
C697 H671 0.950 . S
C697 C696 1.414 . S
C697 C698 1.374 . S
C698 H672 0.950 . S
C698 C694 1.385 . S
C698 C697 1.374 . S
C699 C696 1.499 . S
C699 C700 1.373 . S
C699 C701 1.389 . S
C700 H673 0.950 . S
C700 C686 1.377 . S
C700 C699 1.373 . S
C701 C685 1.377 . S
C701 C699 1.389 . S
C701 C702 1.524 . S
C702 C701 1.524 . S
C702 C703 1.397 . S
C702 C707 1.363 . S
C703 H674 0.950 . S
C703 C702 1.397 . S
C703 C704 1.334 . S
C704 H675 0.950 . S
C704 C703 1.334 . S
C704 C705 1.287 . S
C705 C704 1.287 . S
C705 C706 1.524 . S
C705 H708 0.999 . S
C706 H676 0.950 . S
C706 C705 1.524 . S
C706 C707 1.415 . S
C707 H677 0.950 . S
C707 C702 1.363 . S
C707 C706 1.415 . S
H708 C705 0.999 . S
H709 C690 0.913 . S
H710 C728 0.951 . S
H711 C730 0.951 . S
H712 C732 0.950 . S
H713 C733 0.950 . S
H714 C735 0.950 . S
H715 C738 0.950 . S
H716 C739 0.950 . S
H717 C741 0.950 . S
H718 C742 0.950 . S
H719 C743 0.951 . S
H720 C745 0.951 . S
H721 C747 0.950 . S
H722 C748 0.950 . S
H723 C750 0.950 . S
H724 C753 0.950 . S
H725 C754 0.950 . S
H726 C756 0.950 . S
H727 C757 0.950 . S
C728 H710 0.951 . S
C728 C729 1.366 . S
C728 C730 1.388 . S
C729 C728 1.366 . S
C729 C733 1.385 . S
C730 H711 0.951 . S
C730 C728 1.388 . S
C730 C731 1.366 . S
C731 C730 1.366 . S
C731 C732 1.414 . S
C731 C734 1.499 . S
C732 H712 0.950 . S
C732 C731 1.414 . S
C732 C733 1.374 . S
C733 H713 0.950 . S
C733 C729 1.385 . S
C733 C732 1.374 . S
C734 C731 1.499 . S
C734 C735 1.373 . S
C734 C736 1.389 . S
C735 H714 0.950 . S
C735 C734 1.373 . S
C735 C751 1.377 . S
C736 C734 1.389 . S
C736 C737 1.524 . S
C736 C750 1.377 . S
C737 C736 1.524 . S
C737 C738 1.397 . S
C737 C742 1.363 . S
C738 H715 0.950 . S
C738 C737 1.397 . S
C738 C739 1.334 . S
C739 H716 0.950 . S
C739 C738 1.334 . S
C739 C740 1.287 . S
C740 C739 1.287 . S
C740 C741 1.524 . S
C740 H759 0.913 . S
C741 H717 0.950 . S
C741 C740 1.524 . S
C741 C742 1.415 . S
C742 H718 0.950 . S
C742 C737 1.363 . S
C742 C741 1.415 . S
C743 H719 0.951 . S
C743 C744 1.366 . S
C743 C745 1.388 . S
C744 C743 1.366 . S
C744 C748 1.385 . S
C745 H720 0.951 . S
C745 C743 1.388 . S
C745 C746 1.366 . S
C746 C745 1.366 . S
C746 C747 1.414 . S
C746 C749 1.499 . S
C747 H721 0.950 . S
C747 C746 1.414 . S
C747 C748 1.374 . S
C748 H722 0.950 . S
C748 C744 1.385 . S
C748 C747 1.374 . S
C749 C746 1.499 . S
C749 C750 1.373 . S
C749 C751 1.389 . S
C750 H723 0.950 . S
C750 C736 1.377 . S
C750 C749 1.373 . S
C751 C735 1.377 . S
C751 C749 1.389 . S
C751 C752 1.524 . S
C752 C751 1.524 . S
C752 C753 1.397 . S
C752 C757 1.363 . S
C753 H724 0.950 . S
C753 C752 1.397 . S
C753 C754 1.334 . S
C754 H725 0.950 . S
C754 C753 1.334 . S
C754 C755 1.287 . S
C755 C754 1.287 . S
C755 C756 1.524 . S
C755 H758 0.999 . S
C756 H726 0.950 . S
C756 C755 1.524 . S
C756 C757 1.415 . S
C757 H727 0.950 . S
C757 C752 1.363 . S
C757 C756 1.415 . S
H758 C755 0.999 . S
H759 C740 0.913 . S
H760 C778 0.951 . S
H761 C780 0.951 . S
H762 C782 0.950 . S
H763 C783 0.950 . S
H764 C785 0.950 . S
H765 C788 0.950 . S
H766 C789 0.950 . S
H767 C791 0.950 . S
H768 C792 0.950 . S
H769 C793 0.951 . S
H770 C795 0.951 . S
H771 C797 0.950 . S
H772 C798 0.950 . S
H773 C800 0.950 . S
H774 C803 0.950 . S
H775 C804 0.950 . S
H776 C806 0.950 . S
H777 C807 0.950 . S
C778 H760 0.951 . S
C778 C779 1.366 . S
C778 C780 1.388 . S
C779 C778 1.366 . S
C779 C783 1.385 . S
C780 H761 0.951 . S
C780 C778 1.388 . S
C780 C781 1.366 . S
C781 C780 1.366 . S
C781 C782 1.414 . S
C781 C784 1.499 . S
C782 H762 0.950 . S
C782 C781 1.414 . S
C782 C783 1.374 . S
C783 H763 0.950 . S
C783 C779 1.385 . S
C783 C782 1.374 . S
C784 C781 1.499 . S
C784 C785 1.373 . S
C784 C786 1.389 . S
C785 H764 0.950 . S
C785 C784 1.373 . S
C785 C801 1.377 . S
C786 C784 1.389 . S
C786 C787 1.524 . S
C786 C800 1.377 . S
C787 C786 1.524 . S
C787 C788 1.397 . S
C787 C792 1.363 . S
C788 H765 0.950 . S
C788 C787 1.397 . S
C788 C789 1.334 . S
C789 H766 0.950 . S
C789 C788 1.334 . S
C789 C790 1.287 . S
C790 C789 1.287 . S
C790 C791 1.524 . S
C790 H809 0.913 . S
C791 H767 0.950 . S
C791 C790 1.524 . S
C791 C792 1.415 . S
C792 H768 0.950 . S
C792 C787 1.363 . S
C792 C791 1.415 . S
C793 H769 0.951 . S
C793 C794 1.366 . S
C793 C795 1.388 . S
C794 C793 1.366 . S
C794 C798 1.385 . S
C795 H770 0.951 . S
C795 C793 1.388 . S
C795 C796 1.366 . S
C796 C795 1.366 . S
C796 C797 1.414 . S
C796 C799 1.499 . S
C797 H771 0.950 . S
C797 C796 1.414 . S
C797 C798 1.374 . S
C798 H772 0.950 . S
C798 C794 1.385 . S
C798 C797 1.374 . S
C799 C796 1.499 . S
C799 C800 1.373 . S
C799 C801 1.389 . S
C800 H773 0.950 . S
C800 C786 1.377 . S
C800 C799 1.373 . S
C801 C785 1.377 . S
C801 C799 1.389 . S
C801 C802 1.524 . S
C802 C801 1.524 . S
C802 C803 1.397 . S
C802 C807 1.363 . S
C803 H774 0.950 . S
C803 C802 1.397 . S
C803 C804 1.334 . S
C804 H775 0.950 . S
C804 C803 1.334 . S
C804 C805 1.287 . S
C805 C804 1.287 . S
C805 C806 1.524 . S
C805 H808 0.999 . S
C806 H776 0.950 . S
C806 C805 1.524 . S
C806 C807 1.415 . S
C807 H777 0.950 . S
C807 C802 1.363 . S
C807 C806 1.415 . S
H808 C805 0.999 . S
H809 C790 0.913 . S
H810 C828 0.951 . S
H811 C830 0.951 . S
H812 C832 0.950 . S
H813 C833 0.950 . S
H814 C835 0.950 . S
H815 C838 0.950 . S
H816 C839 0.950 . S
H817 C841 0.950 . S
H818 C842 0.950 . S
H819 C843 0.951 . S
H820 C845 0.951 . S
H821 C847 0.950 . S
H822 C848 0.950 . S
H823 C850 0.950 . S
H824 C853 0.950 . S
H825 C854 0.950 . S
H826 C856 0.950 . S
H827 C857 0.950 . S
C828 H810 0.951 . S
C828 C829 1.366 . S
C828 C830 1.388 . S
C829 C828 1.366 . S
C829 C833 1.385 . S
C830 H811 0.951 . S
C830 C828 1.388 . S
C830 C831 1.366 . S
C831 C830 1.366 . S
C831 C832 1.414 . S
C831 C834 1.499 . S
C832 H812 0.950 . S
C832 C831 1.414 . S
C832 C833 1.374 . S
C833 H813 0.950 . S
C833 C829 1.385 . S
C833 C832 1.374 . S
C834 C831 1.499 . S
C834 C835 1.373 . S
C834 C836 1.389 . S
C835 H814 0.950 . S
C835 C834 1.373 . S
C835 C851 1.377 . S
C836 C834 1.389 . S
C836 C837 1.524 . S
C836 C850 1.377 . S
C837 C836 1.524 . S
C837 C838 1.397 . S
C837 C842 1.363 . S
C838 H815 0.950 . S
C838 C837 1.397 . S
C838 C839 1.334 . S
C839 H816 0.950 . S
C839 C838 1.334 . S
C839 C840 1.287 . S
C840 C839 1.287 . S
C840 C841 1.524 . S
C840 H859 0.913 . S
C841 H817 0.950 . S
C841 C840 1.524 . S
C841 C842 1.415 . S
C842 H818 0.950 . S
C842 C837 1.363 . S
C842 C841 1.415 . S
C843 H819 0.951 . S
C843 C844 1.366 . S
C843 C845 1.388 . S
C844 C843 1.366 . S
C844 C848 1.385 . S
C845 H820 0.951 . S
C845 C843 1.388 . S
C845 C846 1.366 . S
C846 C845 1.366 . S
C846 C847 1.414 . S
C846 C849 1.499 . S
C847 H821 0.950 . S
C847 C846 1.414 . S
C847 C848 1.374 . S
C848 H822 0.950 . S
C848 C844 1.385 . S
C848 C847 1.374 . S
C849 C846 1.499 . S
C849 C850 1.373 . S
C849 C851 1.389 . S
C850 H823 0.950 . S
C850 C836 1.377 . S
C850 C849 1.373 . S
C851 C835 1.377 . S
C851 C849 1.389 . S
C851 C852 1.524 . S
C852 C851 1.524 . S
C852 C853 1.397 . S
C852 C857 1.363 . S
C853 H824 0.950 . S
C853 C852 1.397 . S
C853 C854 1.334 1_554 S
C854 H825 0.950 . S
C854 C853 1.334 1_556 S
C854 C855 1.287 . S
C855 C854 1.287 . S
C855 C856 1.524 . S
C855 H858 0.999 . S
C856 H826 0.950 . S
C856 C855 1.524 . S
C856 C857 1.415 1_556 S
C857 H827 0.950 . S
C857 C852 1.363 . S
C857 C856 1.415 1_554 S
H858 C855 0.999 . S
H859 C840 0.913 . S
H860 C878 0.951 . S
H861 C880 0.951 . S
H862 C882 0.950 . S
H863 C883 0.950 . S
H864 C885 0.950 . S
H865 C888 0.950 . S
H866 C889 0.950 . S
H867 C891 0.950 . S
H868 C892 0.950 . S
H869 C893 0.951 . S
H870 C895 0.951 . S
H871 C897 0.950 . S
H872 C898 0.950 . S
H873 C900 0.950 . S
H874 C903 0.950 . S
H875 C904 0.950 . S
H876 C906 0.950 . S
H877 C907 0.950 . S
C878 H860 0.951 . S
C878 C879 1.366 . S
C878 C880 1.388 . S
C879 C878 1.366 . S
C879 C883 1.385 . S
C880 H861 0.951 . S
C880 C878 1.388 . S
C880 C881 1.366 . S
C881 C880 1.366 . S
C881 C882 1.414 . S
C881 C884 1.499 . S
C882 H862 0.950 . S
C882 C881 1.414 . S
C882 C883 1.374 . S
C883 H863 0.950 . S
C883 C879 1.385 . S
C883 C882 1.374 . S
C884 C881 1.499 . S
C884 C885 1.373 . S
C884 C886 1.389 . S
C885 H864 0.950 . S
C885 C884 1.373 . S
C885 C901 1.377 . S
C886 C884 1.389 . S
C886 C887 1.524 . S
C886 C900 1.377 . S
C887 C886 1.524 . S
C887 C888 1.397 . S
C887 C892 1.363 . S
C888 H865 0.950 . S
C888 C887 1.397 . S
C888 C889 1.334 . S
C889 H866 0.950 . S
C889 C888 1.334 . S
C889 C890 1.287 . S
C890 C889 1.287 . S
C890 C891 1.524 . S
C890 H909 0.913 . S
C891 H867 0.950 . S
C891 C890 1.524 . S
C891 C892 1.415 . S
C892 H868 0.950 . S
C892 C887 1.363 . S
C892 C891 1.415 . S
C893 H869 0.951 . S
C893 C894 1.366 . S
C893 C895 1.388 . S
C894 C893 1.366 . S
C894 C898 1.385 . S
C895 H870 0.951 . S
C895 C893 1.388 . S
C895 C896 1.366 . S
C896 C895 1.366 . S
C896 C897 1.414 . S
C896 C899 1.499 . S
C897 H871 0.950 . S
C897 C896 1.414 . S
C897 C898 1.374 . S
C898 H872 0.950 . S
C898 C894 1.385 . S
C898 C897 1.374 . S
C899 C896 1.499 . S
C899 C900 1.373 . S
C899 C901 1.389 . S
C900 H873 0.950 . S
C900 C886 1.377 . S
C900 C899 1.373 . S
C901 C885 1.377 . S
C901 C899 1.389 . S
C901 C902 1.524 . S
C902 C901 1.524 . S
C902 C903 1.397 . S
C902 C907 1.363 . S
C903 H874 0.950 . S
C903 C902 1.397 . S
C903 C904 1.334 . S
C904 H875 0.950 . S
C904 C903 1.334 . S
C904 C905 1.287 . S
C905 C904 1.287 . S
C905 C906 1.524 . S
C905 H908 0.999 . S
C906 H876 0.950 . S
C906 C905 1.524 . S
C906 C907 1.415 . S
C907 H877 0.950 . S
C907 C902 1.363 . S
C907 C906 1.415 . S
H908 C905 0.999 . S
H909 C890 0.913 . S
H910 C928 0.951 . S
H911 C930 0.951 . S
H912 C932 0.950 . S
H913 C933 0.950 . S
H914 C935 0.950 . S
H915 C938 0.950 . S
H916 C939 0.950 . S
H917 C941 0.950 . S
H918 C942 0.950 . S
H919 C943 0.951 . S
H920 C945 0.951 . S
H921 C947 0.950 . S
H922 C948 0.950 . S
H923 C950 0.950 . S
H924 C953 0.950 . S
H925 C954 0.950 . S
H926 C956 0.950 . S
H927 C957 0.950 . S
C928 H910 0.951 . S
C928 C929 1.366 . S
C928 C930 1.388 . S
C929 C928 1.366 . S
C929 C933 1.385 . S
C930 H911 0.951 . S
C930 C928 1.388 . S
C930 C931 1.366 . S
C931 C930 1.366 . S
C931 C932 1.414 . S
C931 C934 1.499 . S
C932 H912 0.950 . S
C932 C931 1.414 . S
C932 C933 1.374 . S
C933 H913 0.950 . S
C933 C929 1.385 . S
C933 C932 1.374 . S
C934 C931 1.499 . S
C934 C935 1.373 . S
C934 C936 1.389 . S
C935 H914 0.950 . S
C935 C934 1.373 . S
C935 C951 1.377 . S
C936 C934 1.389 . S
C936 C937 1.524 . S
C936 C950 1.377 . S
C937 C936 1.524 . S
C937 C938 1.397 . S
C937 C942 1.363 . S
C938 H915 0.950 . S
C938 C937 1.397 . S
C938 C939 1.334 . S
C939 H916 0.950 . S
C939 C938 1.334 . S
C939 C940 1.287 . S
C940 C939 1.287 . S
C940 C941 1.524 . S
C940 H959 0.913 . S
C941 H917 0.950 . S
C941 C940 1.524 . S
C941 C942 1.415 . S
C942 H918 0.950 . S
C942 C937 1.363 . S
C942 C941 1.415 . S
C943 H919 0.951 . S
C943 C944 1.366 . S
C943 C945 1.388 . S
C944 C943 1.366 . S
C944 C948 1.385 . S
C945 H920 0.951 . S
C945 C943 1.388 . S
C945 C946 1.366 . S
C946 C945 1.366 . S
C946 C947 1.414 . S
C946 C949 1.499 . S
C947 H921 0.950 . S
C947 C946 1.414 . S
C947 C948 1.374 . S
C948 H922 0.950 . S
C948 C944 1.385 . S
C948 C947 1.374 . S
C949 C946 1.499 . S
C949 C950 1.373 . S
C949 C951 1.389 . S
C950 H923 0.950 . S
C950 C936 1.377 . S
C950 C949 1.373 . S
C951 C935 1.377 . S
C951 C949 1.389 . S
C951 C952 1.524 . S
C952 C951 1.524 . S
C952 C953 1.397 . S
C952 C957 1.363 . S
C953 H924 0.950 . S
C953 C952 1.397 . S
C953 C954 1.334 . S
C954 H925 0.950 . S
C954 C953 1.334 . S
C954 C955 1.287 . S
C955 C954 1.287 . S
C955 C956 1.524 . S
C955 H958 0.999 . S
C956 H926 0.950 . S
C956 C955 1.524 . S
C956 C957 1.415 . S
C957 H927 0.950 . S
C957 C952 1.363 . S
C957 C956 1.415 . S
H958 C955 0.999 . S
H959 C940 0.913 . S
H960 C978 0.951 . S
H961 C980 0.951 . S
H962 C982 0.950 . S
H963 C983 0.950 . S
H964 C985 0.950 . S
H965 C988 0.950 . S
H966 C989 0.950 . S
H967 C991 0.950 . S
H968 C992 0.950 . S
H969 C993 0.951 . S
H970 C995 0.951 . S
H971 C997 0.950 . S
H972 C998 0.950 . S
H973 C1000 0.950 . S
H974 C1003 0.950 . S
H975 C1004 0.950 . S
H976 C1006 0.950 . S
H977 C1007 0.950 . S
C978 H960 0.951 . S
C978 C979 1.366 . S
C978 C980 1.388 . S
C979 C978 1.366 . S
C979 C983 1.385 . S
C980 H961 0.951 . S
C980 C978 1.388 . S
C980 C981 1.366 . S
C981 C980 1.366 . S
C981 C982 1.414 . S
C981 C984 1.499 . S
C982 H962 0.950 . S
C982 C981 1.414 . S
C982 C983 1.374 . S
C983 H963 0.950 . S
C983 C979 1.385 . S
C983 C982 1.374 . S
C984 C981 1.499 . S
C984 C985 1.373 . S
C984 C986 1.389 . S
C985 H964 0.950 . S
C985 C984 1.373 . S
C985 C1001 1.377 . S
C986 C984 1.389 . S
C986 C987 1.524 . S
C986 C1000 1.377 . S
C987 C986 1.524 . S
C987 C988 1.397 . S
C987 C992 1.363 . S
C988 H965 0.950 . S
C988 C987 1.397 . S
C988 C989 1.334 . S
C989 H966 0.950 . S
C989 C988 1.334 . S
C989 C990 1.287 . S
C990 C989 1.287 . S
C990 C991 1.524 . S
C990 H1009 0.913 . S
C991 H967 0.950 . S
C991 C990 1.524 . S
C991 C992 1.415 . S
C992 H968 0.950 . S
C992 C987 1.363 . S
C992 C991 1.415 . S
C993 H969 0.951 . S
C993 C994 1.366 . S
C993 C995 1.388 . S
C994 C993 1.366 . S
C994 C998 1.385 . S
C995 H970 0.951 . S
C995 C993 1.388 . S
C995 C996 1.366 . S
C996 C995 1.366 . S
C996 C997 1.414 . S
C996 C999 1.499 . S
C997 H971 0.950 . S
C997 C996 1.414 . S
C997 C998 1.374 . S
C998 H972 0.950 . S
C998 C994 1.385 . S
C998 C997 1.374 . S
C999 C996 1.499 . S
C999 C1000 1.373 . S
C999 C1001 1.389 . S
C1000 H973 0.950 . S
C1000 C986 1.377 . S
C1000 C999 1.373 . S
C1001 C985 1.377 . S
C1001 C999 1.389 . S
C1001 C1002 1.524 . S
C1002 C1001 1.524 . S
C1002 C1003 1.397 . S
C1002 C1007 1.363 . S
C1003 H974 0.950 . S
C1003 C1002 1.397 . S
C1003 C1004 1.334 . S
C1004 H975 0.950 . S
C1004 C1003 1.334 . S
C1004 C1005 1.287 . S
C1005 C1004 1.287 . S
C1005 C1006 1.524 . S
C1005 H1008 0.999 . S
C1006 H976 0.950 . S
C1006 C1005 1.524 . S
C1006 C1007 1.415 . S
C1007 H977 0.950 . S
C1007 C1002 1.363 . S
C1007 C1006 1.415 . S
H1008 C1005 0.999 . S
H1009 C990 0.913 . S
H1010 C1028 0.951 . S
H1011 C1030 0.951 . S
H1012 C1032 0.950 . S
H1013 C1033 0.950 . S
H1014 C1035 0.950 . S
H1015 C1038 0.950 . S
H1016 C1039 0.950 . S
H1017 C1041 0.950 . S
H1018 C1042 0.950 . S
H1019 C1043 0.951 . S
H1020 C1045 0.951 . S
H1021 C1047 0.950 . S
H1022 C1048 0.950 . S
H1023 C1050 0.950 . S
H1024 C1053 0.950 . S
H1025 C1054 0.950 . S
H1026 C1056 0.950 . S
H1027 C1057 0.950 . S
C1028 H1010 0.951 . S
C1028 C1029 1.366 . S
C1028 C1030 1.388 . S
C1029 C1028 1.366 . S
C1029 C1033 1.385 . S
C1030 H1011 0.951 . S
C1030 C1028 1.388 . S
C1030 C1031 1.366 . S
C1031 C1030 1.366 . S
C1031 C1032 1.414 . S
C1031 C1034 1.499 . S
C1032 H1012 0.950 . S
C1032 C1031 1.414 . S
C1032 C1033 1.374 . S
C1033 H1013 0.950 . S
C1033 C1029 1.385 . S
C1033 C1032 1.374 . S
C1034 C1031 1.499 . S
C1034 C1035 1.373 . S
C1034 C1036 1.389 . S
C1035 H1014 0.950 . S
C1035 C1034 1.373 . S
C1035 C1051 1.377 . S
C1036 C1034 1.389 . S
C1036 C1037 1.524 . S
C1036 C1050 1.377 . S
C1037 C1036 1.524 . S
C1037 C1038 1.397 . S
C1037 C1042 1.363 . S
C1038 H1015 0.950 . S
C1038 C1037 1.397 . S
C1038 C1039 1.334 . S
C1039 H1016 0.950 . S
C1039 C1038 1.334 . S
C1039 C1040 1.287 . S
C1040 C1039 1.287 . S
C1040 C1041 1.524 . S
C1040 H1059 0.913 . S
C1041 H1017 0.950 . S
C1041 C1040 1.524 . S
C1041 C1042 1.415 . S
C1042 H1018 0.950 . S
C1042 C1037 1.363 . S
C1042 C1041 1.415 . S
C1043 H1019 0.951 . S
C1043 C1044 1.366 . S
C1043 C1045 1.388 . S
C1044 C1043 1.366 . S
C1044 C1048 1.385 . S
C1045 H1020 0.951 . S
C1045 C1043 1.388 . S
C1045 C1046 1.366 . S
C1046 C1045 1.366 . S
C1046 C1047 1.414 . S
C1046 C1049 1.499 . S
C1047 H1021 0.950 . S
C1047 C1046 1.414 . S
C1047 C1048 1.374 . S
C1048 H1022 0.950 . S
C1048 C1044 1.385 . S
C1048 C1047 1.374 . S
C1049 C1046 1.499 . S
C1049 C1050 1.373 . S
C1049 C1051 1.389 . S
C1050 H1023 0.950 . S
C1050 C1036 1.377 . S
C1050 C1049 1.373 . S
C1051 C1035 1.377 . S
C1051 C1049 1.389 . S
C1051 C1052 1.524 . S
C1052 C1051 1.524 . S
C1052 C1053 1.397 . S
C1052 C1057 1.363 . S
C1053 H1024 0.950 . S
C1053 C1052 1.397 . S
C1053 C1054 1.334 . S
C1054 H1025 0.950 . S
C1054 C1053 1.334 . S
C1054 C1055 1.287 . S
C1055 C1054 1.287 . S
C1055 C1056 1.524 . S
C1055 H1058 0.999 . S
C1056 H1026 0.950 . S
C1056 C1055 1.524 . S
C1056 C1057 1.415 . S
C1057 H1027 0.950 . S
C1057 C1052 1.363 . S
C1057 C1056 1.415 . S
H1058 C1055 0.999 . S
H1059 C1040 0.913 . S
H1060 C1078 0.951 . S
H1061 C1080 0.951 . S
H1062 C1082 0.950 . S
H1063 C1083 0.950 . S
H1064 C1085 0.950 . S
H1065 C1088 0.950 . S
H1066 C1089 0.950 . S
H1067 C1091 0.950 . S
H1068 C1092 0.950 . S
H1069 C1093 0.951 . S
H1070 C1095 0.951 . S
H1071 C1097 0.950 . S
H1072 C1098 0.950 . S
H1073 C1100 0.950 . S
H1074 C1103 0.950 . S
H1075 C1104 0.950 . S
H1076 C1106 0.950 . S
H1077 C1107 0.950 . S
C1078 H1060 0.951 . S
C1078 C1079 1.366 . S
C1078 C1080 1.388 . S
C1079 C1078 1.366 . S
C1079 C1083 1.385 . S
C1080 H1061 0.951 . S
C1080 C1078 1.388 . S
C1080 C1081 1.366 . S
C1081 C1080 1.366 . S
C1081 C1082 1.414 . S
C1081 C1084 1.499 . S
C1082 H1062 0.950 . S
C1082 C1081 1.414 . S
C1082 C1083 1.374 . S
C1083 H1063 0.950 . S
C1083 C1079 1.385 . S
C1083 C1082 1.374 . S
C1084 C1081 1.499 . S
C1084 C1085 1.373 . S
C1084 C1086 1.389 . S
C1085 H1064 0.950 . S
C1085 C1084 1.373 . S
C1085 C1101 1.377 . S
C1086 C1084 1.389 . S
C1086 C1087 1.524 . S
C1086 C1100 1.377 . S
C1087 C1086 1.524 . S
C1087 C1088 1.397 . S
C1087 C1092 1.363 . S
C1088 H1065 0.950 . S
C1088 C1087 1.397 . S
C1088 C1089 1.334 . S
C1089 H1066 0.950 . S
C1089 C1088 1.334 . S
C1089 C1090 1.287 . S
C1090 C1089 1.287 . S
C1090 C1091 1.524 . S
C1090 H1109 0.913 . S
C1091 H1067 0.950 . S
C1091 C1090 1.524 . S
C1091 C1092 1.415 . S
C1092 H1068 0.950 . S
C1092 C1087 1.363 . S
C1092 C1091 1.415 . S
C1093 H1069 0.951 . S
C1093 C1094 1.366 . S
C1093 C1095 1.388 . S
C1094 C1093 1.366 . S
C1094 C1098 1.385 . S
C1095 H1070 0.951 . S
C1095 C1093 1.388 . S
C1095 C1096 1.366 . S
C1096 C1095 1.366 . S
C1096 C1097 1.414 . S
C1096 C1099 1.499 . S
C1097 H1071 0.950 . S
C1097 C1096 1.414 . S
C1097 C1098 1.374 . S
C1098 H1072 0.950 . S
C1098 C1094 1.385 . S
C1098 C1097 1.374 . S
C1099 C1096 1.499 . S
C1099 C1100 1.373 . S
C1099 C1101 1.389 . S
C1100 H1073 0.950 . S
C1100 C1086 1.377 . S
C1100 C1099 1.373 . S
C1101 C1085 1.377 . S
C1101 C1099 1.389 . S
C1101 C1102 1.524 . S
C1102 C1101 1.524 . S
C1102 C1103 1.397 . S
C1102 C1107 1.363 . S
C1103 H1074 0.950 . S
C1103 C1102 1.397 . S
C1103 C1104 1.334 . S
C1104 H1075 0.950 . S
C1104 C1103 1.334 . S
C1104 C1105 1.287 . S
C1105 C1104 1.287 . S
C1105 C1106 1.524 . S
C1105 H1108 0.999 . S
C1106 H1076 0.950 . S
C1106 C1105 1.524 . S
C1106 C1107 1.415 . S
C1107 H1077 0.950 . S
C1107 C1102 1.363 . S
C1107 C1106 1.415 . S
H1108 C1105 0.999 . S
H1109 C1090 0.913 . S
H1110 C1128 0.951 . S
H1111 C1130 0.951 . S
H1112 C1132 0.950 . S
H1113 C1133 0.950 . S
H1114 C1135 0.950 . S
H1115 C1138 0.950 . S
H1116 C1139 0.950 . S
H1117 C1141 0.950 1_554 S
H1118 C1142 0.950 . S
H1119 C1143 0.951 . S
H1120 C1145 0.951 . S
H1121 C1147 0.950 . S
H1122 C1148 0.950 . S
H1123 C1150 0.950 . S
H1124 C1153 0.950 . S
H1125 C1154 0.950 . S
H1126 C1156 0.950 . S
H1127 C1157 0.950 . S
C1128 H1110 0.951 . S
C1128 C1129 1.366 . S
C1128 C1130 1.388 . S
C1129 C1128 1.366 . S
C1129 C1133 1.385 . S
C1130 H1111 0.951 . S
C1130 C1128 1.388 . S
C1130 C1131 1.366 . S
C1131 C1130 1.366 . S
C1131 C1132 1.414 . S
C1131 C1134 1.499 . S
C1132 H1112 0.950 . S
C1132 C1131 1.414 . S
C1132 C1133 1.374 . S
C1133 H1113 0.950 . S
C1133 C1129 1.385 . S
C1133 C1132 1.374 . S
C1134 C1131 1.499 . S
C1134 C1135 1.373 . S
C1134 C1136 1.389 . S
C1135 H1114 0.950 . S
C1135 C1134 1.373 . S
C1135 C1151 1.377 . S
C1136 C1134 1.389 . S
C1136 C1137 1.524 . S
C1136 C1150 1.377 . S
C1137 C1136 1.524 . S
C1137 C1138 1.397 . S
C1137 C1142 1.363 . S
C1138 H1115 0.950 . S
C1138 C1137 1.397 . S
C1138 C1139 1.334 . S
C1139 H1116 0.950 . S
C1139 C1138 1.334 . S
C1139 C1140 1.287 . S
C1140 C1139 1.287 . S
C1140 C1141 1.524 . S
C1140 H1159 0.913 . S
C1141 H1117 0.950 1_556 S
C1141 C1140 1.524 . S
C1141 C1142 1.415 . S
C1142 H1118 0.950 . S
C1142 C1137 1.363 . S
C1142 C1141 1.415 . S
C1143 H1119 0.951 . S
C1143 C1144 1.366 . S
C1143 C1145 1.388 1_554 S
C1144 C1143 1.366 . S
C1144 C1148 1.385 . S
C1145 H1120 0.951 . S
C1145 C1143 1.388 1_556 S
C1145 C1146 1.369 . S
C1146 C1145 1.369 . S
C1146 C1147 1.383 1_556 S
C1146 C1149 1.526 . S
C1147 H1121 0.950 . S
C1147 C1146 1.383 1_554 S
C1147 C1148 1.374 . S
C1148 H1122 0.950 . S
C1148 C1144 1.385 . S
C1148 C1147 1.374 . S
C1149 C1146 1.526 . S
C1149 C1150 1.373 . S
C1149 C1151 1.389 . S
C1150 H1123 0.950 . S
C1150 C1136 1.377 . S
C1150 C1149 1.373 . S
C1151 C1135 1.377 . S
C1151 C1149 1.389 . S
C1151 C1152 1.524 . S
C1152 C1151 1.524 . S
C1152 C1153 1.397 . S
C1152 C1157 1.363 . S
C1153 H1124 0.950 . S
C1153 C1152 1.397 . S
C1153 C1154 1.334 . S
C1154 H1125 0.950 . S
C1154 C1153 1.334 . S
C1154 C1155 1.287 . S
C1155 C1154 1.287 . S
C1155 C1156 1.524 . S
C1155 H1158 0.999 . S
C1156 H1126 0.950 . S
C1156 C1155 1.524 . S
C1156 C1157 1.415 . S
C1157 H1127 0.950 . S
C1157 C1152 1.363 . S
C1157 C1156 1.415 . S
H1158 C1155 0.999 . S
H1159 C1140 0.913 . S
H1160 C1178 0.951 . S
H1161 C1180 0.951 . S
H1162 C1182 0.950 . S
H1163 C1183 0.950 . S
H1164 C1185 0.950 . S
H1165 C1188 0.950 . S
H1166 C1189 0.950 . S
H1167 C1191 0.950 . S
H1168 C1192 0.950 . S
H1169 C1193 0.951 . S
H1170 C1195 0.951 . S
H1171 C1197 0.950 . S
H1172 C1198 0.950 . S
H1173 C1200 0.950 . S
H1174 C1203 0.950 . S
H1175 C1204 0.950 . S
H1176 C1206 0.950 . S
H1177 C1207 0.950 . S
C1178 H1160 0.951 . S
C1178 C1179 1.366 . S
C1178 C1180 1.388 . S
C1179 C1178 1.366 . S
C1179 C1183 1.385 . S
C1180 H1161 0.951 . S
C1180 C1178 1.388 . S
C1180 C1181 1.366 . S
C1181 C1180 1.366 . S
C1181 C1182 1.414 . S
C1181 C1184 1.499 . S
C1182 H1162 0.950 . S
C1182 C1181 1.414 . S
C1182 C1183 1.374 . S
C1183 H1163 0.950 . S
C1183 C1179 1.385 . S
C1183 C1182 1.374 . S
C1184 C1181 1.499 . S
C1184 C1185 1.373 . S
C1184 C1186 1.389 . S
C1185 H1164 0.950 . S
C1185 C1184 1.373 . S
C1185 C1201 1.377 . S
C1186 C1184 1.389 . S
C1186 C1187 1.524 . S
C1186 C1200 1.377 . S
C1187 C1186 1.524 . S
C1187 C1188 1.397 . S
C1187 C1192 1.363 . S
C1188 H1165 0.950 . S
C1188 C1187 1.397 . S
C1188 C1189 1.334 . S
C1189 H1166 0.950 . S
C1189 C1188 1.334 . S
C1189 C1190 1.287 . S
C1190 C1189 1.287 . S
C1190 C1191 1.524 . S
C1190 H1209 0.913 . S
C1191 H1167 0.950 . S
C1191 C1190 1.524 . S
C1191 C1192 1.415 . S
C1192 H1168 0.950 . S
C1192 C1187 1.363 . S
C1192 C1191 1.415 . S
C1193 H1169 0.951 . S
C1193 C1194 1.366 . S
C1193 C1195 1.388 . S
C1194 C1193 1.366 . S
C1194 C1198 1.385 . S
C1195 H1170 0.951 . S
C1195 C1193 1.388 . S
C1195 C1196 1.366 . S
C1196 C1195 1.366 . S
C1196 C1197 1.414 . S
C1196 C1199 1.499 . S
C1197 H1171 0.950 . S
C1197 C1196 1.414 . S
C1197 C1198 1.374 . S
C1198 H1172 0.950 . S
C1198 C1194 1.385 . S
C1198 C1197 1.374 . S
C1199 C1196 1.499 . S
C1199 C1200 1.373 . S
C1199 C1201 1.389 . S
C1200 H1173 0.950 . S
C1200 C1186 1.377 . S
C1200 C1199 1.373 . S
C1201 C1185 1.377 . S
C1201 C1199 1.389 . S
C1201 C1202 1.524 . S
C1202 C1201 1.524 . S
C1202 C1203 1.397 . S
C1202 C1207 1.363 . S
C1203 H1174 0.950 . S
C1203 C1202 1.397 . S
C1203 C1204 1.334 . S
C1204 H1175 0.950 . S
C1204 C1203 1.334 . S
C1204 C1205 1.287 . S
C1205 C1204 1.287 . S
C1205 C1206 1.524 . S
C1205 H1208 0.999 . S
C1206 H1176 0.950 . S
C1206 C1205 1.524 . S
C1206 C1207 1.415 . S
C1207 H1177 0.950 . S
C1207 C1202 1.363 . S
C1207 C1206 1.415 . S
H1208 C1205 0.999 . S
H1209 C1190 0.913 . S
H1210 C1228 0.951 . S
H1211 C1230 0.951 . S
H1212 C1232 0.950 . S
H1213 C1233 0.950 . S
H1214 C1235 0.950 . S
H1215 C1238 0.950 . S
H1216 C1239 0.950 . S
H1217 C1241 0.950 . S
H1218 C1242 0.950 . S
H1219 C1243 0.951 . S
H1220 C1245 0.951 . S
H1221 C1247 0.950 . S
H1222 C1248 0.950 . S
H1223 C1250 0.950 . S
H1224 C1253 0.950 . S
H1225 C1254 0.950 . S
H1226 C1256 0.950 . S
H1227 C1257 0.950 . S
C1228 H1210 0.951 . S
C1228 C1229 1.366 . S
C1228 C1230 1.388 . S
C1229 C1228 1.366 . S
C1229 C1233 1.385 . S
C1230 H1211 0.951 . S
C1230 C1228 1.388 . S
C1230 C1231 1.366 . S
C1231 C1230 1.366 . S
C1231 C1232 1.414 . S
C1231 C1234 1.499 . S
C1232 H1212 0.950 . S
C1232 C1231 1.414 . S
C1232 C1233 1.374 . S
C1233 H1213 0.950 . S
C1233 C1229 1.385 . S
C1233 C1232 1.374 . S
C1234 C1231 1.499 . S
C1234 C1235 1.373 . S
C1234 C1236 1.389 . S
C1235 H1214 0.950 . S
C1235 C1234 1.373 . S
C1235 C1251 1.377 . S
C1236 C1234 1.389 . S
C1236 C1237 1.524 . S
C1236 C1250 1.377 . S
C1237 C1236 1.524 . S
C1237 C1238 1.397 . S
C1237 C1242 1.363 . S
C1238 H1215 0.950 . S
C1238 C1237 1.397 . S
C1238 C1239 1.334 . S
C1239 H1216 0.950 . S
C1239 C1238 1.334 . S
C1239 C1240 1.287 . S
C1240 C1239 1.287 . S
C1240 C1241 1.524 . S
C1240 H1259 0.913 . S
C1241 H1217 0.950 . S
C1241 C1240 1.524 . S
C1241 C1242 1.415 . S
C1242 H1218 0.950 . S
C1242 C1237 1.363 . S
C1242 C1241 1.415 . S
C1243 H1219 0.951 . S
C1243 C1244 1.366 . S
C1243 C1245 1.388 . S
C1244 C1243 1.366 . S
C1244 C1248 1.385 . S
C1245 H1220 0.951 . S
C1245 C1243 1.388 . S
C1245 C1246 1.366 . S
C1246 C1245 1.366 . S
C1246 C1247 1.414 . S
C1246 C1249 1.499 . S
C1247 H1221 0.950 . S
C1247 C1246 1.414 . S
C1247 C1248 1.374 . S
C1248 H1222 0.950 . S
C1248 C1244 1.385 . S
C1248 C1247 1.374 . S
C1249 C1246 1.499 . S
C1249 C1250 1.373 . S
C1249 C1251 1.389 . S
C1250 H1223 0.950 . S
C1250 C1236 1.377 . S
C1250 C1249 1.373 . S
C1251 C1235 1.377 . S
C1251 C1249 1.389 . S
C1251 C1252 1.524 . S
C1252 C1251 1.524 . S
C1252 C1253 1.397 . S
C1252 C1257 1.363 . S
C1253 H1224 0.950 . S
C1253 C1252 1.397 . S
C1253 C1254 1.334 . S
C1254 H1225 0.950 . S
C1254 C1253 1.334 . S
C1254 C1255 1.287 . S
C1255 C1254 1.287 . S
C1255 C1256 1.524 . S
C1255 H1258 0.999 . S
C1256 H1226 0.950 . S
C1256 C1255 1.524 . S
C1256 C1257 1.415 . S
C1257 H1227 0.950 . S
C1257 C1252 1.363 . S
C1257 C1256 1.415 . S
H1258 C1255 0.999 . S
H1259 C1240 0.913 . S
H1260 C1278 0.951 . S
H1261 C1280 0.951 . S
H1262 C1282 0.950 . S
H1263 C1283 0.950 . S
H1264 C1285 0.950 . S
H1265 C1288 0.950 . S
H1266 C1289 0.950 . S
H1267 C1291 0.950 . S
H1268 C1292 0.950 . S
H1269 C1293 0.951 . S
H1270 C1295 0.951 . S
H1271 C1297 0.950 . S
H1272 C1298 0.950 . S
H1273 C1300 0.950 . S
H1274 C1303 0.950 . S
H1275 C1304 0.950 . S
H1276 C1306 0.950 . S
H1277 C1307 0.950 . S
C1278 H1260 0.951 . S
C1278 C1279 1.366 . S
C1278 C1280 1.388 . S
C1279 C1278 1.366 . S
C1279 C1283 1.385 . S
C1280 H1261 0.951 . S
C1280 C1278 1.388 . S
C1280 C1281 1.366 . S
C1281 C1280 1.366 . S
C1281 C1282 1.414 . S
C1281 C1284 1.499 . S
C1282 H1262 0.950 . S
C1282 C1281 1.414 . S
C1282 C1283 1.374 . S
C1283 H1263 0.950 . S
C1283 C1279 1.385 . S
C1283 C1282 1.374 . S
C1284 C1281 1.499 . S
C1284 C1285 1.373 . S
C1284 C1286 1.389 . S
C1285 H1264 0.950 . S
C1285 C1284 1.373 . S
C1285 C1301 1.377 . S
C1286 C1284 1.389 . S
C1286 C1287 1.524 . S
C1286 C1300 1.377 . S
C1287 C1286 1.524 . S
C1287 C1288 1.397 . S
C1287 C1292 1.363 . S
C1288 H1265 0.950 . S
C1288 C1287 1.397 . S
C1288 C1289 1.334 . S
C1289 H1266 0.950 . S
C1289 C1288 1.334 . S
C1289 C1290 1.287 . S
C1290 C1289 1.287 . S
C1290 C1291 1.524 . S
C1290 H1309 0.913 . S
C1291 H1267 0.950 . S
C1291 C1290 1.524 . S
C1291 C1292 1.415 . S
C1292 H1268 0.950 . S
C1292 C1287 1.363 . S
C1292 C1291 1.415 . S
C1293 H1269 0.951 . S
C1293 C1294 1.366 . S
C1293 C1295 1.388 . S
C1294 C1293 1.366 . S
C1294 C1298 1.385 . S
C1295 H1270 0.951 . S
C1295 C1293 1.388 . S
C1295 C1296 1.366 . S
C1296 C1295 1.366 . S
C1296 C1297 1.414 . S
C1296 C1299 1.499 . S
C1297 H1271 0.950 . S
C1297 C1296 1.414 . S
C1297 C1298 1.374 . S
C1298 H1272 0.950 . S
C1298 C1294 1.385 . S
C1298 C1297 1.374 . S
C1299 C1296 1.499 . S
C1299 C1300 1.373 . S
C1299 C1301 1.389 . S
C1300 H1273 0.950 . S
C1300 C1286 1.377 . S
C1300 C1299 1.373 . S
C1301 C1285 1.377 . S
C1301 C1299 1.389 . S
C1301 C1302 1.524 . S
C1302 C1301 1.524 . S
C1302 C1303 1.397 . S
C1302 C1307 1.363 . S
C1303 H1274 0.950 . S
C1303 C1302 1.397 . S
C1303 C1304 1.334 . S
C1304 H1275 0.950 . S
C1304 C1303 1.334 . S
C1304 C1305 1.287 . S
C1305 C1304 1.287 . S
C1305 C1306 1.524 . S
C1305 H1308 0.999 . S
C1306 H1276 0.950 . S
C1306 C1305 1.524 . S
C1306 C1307 1.415 . S
C1307 H1277 0.950 . S
C1307 C1302 1.363 . S
C1307 C1306 1.415 . S
H1308 C1305 0.999 . S
H1309 C1290 0.913 . S
H1310 C1328 0.951 . S
H1311 C1330 0.951 . S
H1312 C1332 0.950 . S
H1313 C1333 0.950 . S
H1314 C1335 0.950 . S
H1315 C1338 0.950 . S
H1316 C1339 0.950 . S
H1317 C1341 0.950 . S
H1318 C1342 0.950 . S
H1319 C1343 0.951 . S
H1320 C1345 0.951 . S
H1321 C1347 0.950 . S
H1322 C1348 0.950 . S
H1323 C1350 0.950 . S
H1324 C1353 0.950 . S
H1325 C1354 0.950 . S
H1326 C1356 0.950 . S
H1327 C1357 0.950 . S
C1328 H1310 0.951 . S
C1328 C1329 1.366 . S
C1328 C1330 1.388 . S
C1329 C1328 1.366 . S
C1329 C1333 1.385 . S
C1330 H1311 0.951 . S
C1330 C1328 1.388 . S
C1330 C1331 1.366 . S
C1331 C1330 1.366 . S
C1331 C1332 1.414 . S
C1331 C1334 1.499 . S
C1332 H1312 0.950 . S
C1332 C1331 1.414 . S
C1332 C1333 1.374 . S
C1333 H1313 0.950 . S
C1333 C1329 1.385 . S
C1333 C1332 1.374 . S
C1334 C1331 1.499 . S
C1334 C1335 1.373 . S
C1334 C1336 1.389 . S
C1335 H1314 0.950 . S
C1335 C1334 1.373 . S
C1335 C1351 1.377 . S
C1336 C1334 1.389 . S
C1336 C1337 1.524 . S
C1336 C1350 1.377 . S
C1337 C1336 1.524 . S
C1337 C1338 1.397 . S
C1337 C1342 1.363 . S
C1338 H1315 0.950 . S
C1338 C1337 1.397 . S
C1338 C1339 1.334 . S
C1339 H1316 0.950 . S
C1339 C1338 1.334 . S
C1339 C1340 1.287 . S
C1340 C1339 1.287 . S
C1340 C1341 1.524 . S
C1340 H1359 0.913 . S
C1341 H1317 0.950 . S
C1341 C1340 1.524 . S
C1341 C1342 1.415 . S
C1342 H1318 0.950 . S
C1342 C1337 1.363 . S
C1342 C1341 1.415 . S
C1343 H1319 0.951 . S
C1343 C1344 1.366 . S
C1343 C1345 1.388 . S
C1344 C1343 1.366 . S
C1344 C1348 1.385 . S
C1345 H1320 0.951 . S
C1345 C1343 1.388 . S
C1345 C1346 1.366 . S
C1346 C1345 1.366 . S
C1346 C1347 1.414 . S
C1346 C1349 1.499 . S
C1347 H1321 0.950 . S
C1347 C1346 1.414 . S
C1347 C1348 1.374 . S
C1348 H1322 0.950 . S
C1348 C1344 1.385 . S
C1348 C1347 1.374 . S
C1349 C1346 1.499 . S
C1349 C1350 1.373 . S
C1349 C1351 1.389 . S
C1350 H1323 0.950 . S
C1350 C1336 1.377 . S
C1350 C1349 1.373 . S
C1351 C1335 1.377 . S
C1351 C1349 1.389 . S
C1351 C1352 1.524 . S
C1352 C1351 1.524 . S
C1352 C1353 1.397 . S
C1352 C1357 1.363 . S
C1353 H1324 0.950 . S
C1353 C1352 1.397 . S
C1353 C1354 1.334 . S
C1354 H1325 0.950 . S
C1354 C1353 1.334 . S
C1354 C1355 1.287 . S
C1355 C1354 1.287 . S
C1355 C1356 1.524 . S
C1355 H1358 0.999 . S
C1356 H1326 0.950 . S
C1356 C1355 1.524 . S
C1356 C1357 1.415 . S
C1357 H1327 0.950 . S
C1357 C1352 1.363 . S
C1357 C1356 1.415 . S
H1358 C1355 0.999 . S
H1359 C1340 0.913 . S
H1360 C1378 0.951 . S
H1361 C1380 0.951 . S
H1362 C1382 0.950 . S
H1363 C1383 0.950 . S
H1364 C1385 0.950 . S
H1365 C1388 0.950 . S
H1366 C1389 0.950 . S
H1367 C1391 0.950 . S
H1368 C1392 0.950 . S
H1369 C1393 0.951 . S
H1370 C1395 0.951 . S
H1371 C1397 0.950 . S
H1372 C1398 0.950 . S
H1373 C1400 0.950 . S
H1374 C1403 0.950 . S
H1375 C1404 0.950 . S
H1376 C1406 0.950 . S
H1377 C1407 0.950 . S
C1378 H1360 0.951 . S
C1378 C1379 1.366 . S
C1378 C1380 1.388 . S
C1379 C1378 1.366 . S
C1379 C1383 1.385 . S
C1380 H1361 0.951 . S
C1380 C1378 1.388 . S
C1380 C1381 1.366 . S
C1381 C1380 1.366 . S
C1381 C1382 1.414 . S
C1381 C1384 1.499 . S
C1382 H1362 0.950 . S
C1382 C1381 1.414 . S
C1382 C1383 1.374 . S
C1383 H1363 0.950 . S
C1383 C1379 1.385 . S
C1383 C1382 1.374 . S
C1384 C1381 1.499 . S
C1384 C1385 1.373 . S
C1384 C1386 1.389 . S
C1385 H1364 0.950 . S
C1385 C1384 1.373 . S
C1385 C1401 1.377 . S
C1386 C1384 1.389 . S
C1386 C1387 1.524 . S
C1386 C1400 1.377 . S
C1387 C1386 1.524 . S
C1387 C1388 1.397 . S
C1387 C1392 1.363 . S
C1388 H1365 0.950 . S
C1388 C1387 1.397 . S
C1388 C1389 1.334 . S
C1389 H1366 0.950 . S
C1389 C1388 1.334 . S
C1389 C1390 1.287 . S
C1390 C1389 1.287 . S
C1390 C1391 1.524 . S
C1390 H1409 0.913 . S
C1391 H1367 0.950 . S
C1391 C1390 1.524 . S
C1391 C1392 1.415 . S
C1392 H1368 0.950 . S
C1392 C1387 1.363 . S
C1392 C1391 1.415 . S
C1393 H1369 0.951 . S
C1393 C1394 1.366 . S
C1393 C1395 1.388 . S
C1394 C1393 1.366 . S
C1394 C1398 1.385 . S
C1395 H1370 0.951 . S
C1395 C1393 1.388 . S
C1395 C1396 1.366 . S
C1396 C1395 1.366 . S
C1396 C1397 1.414 . S
C1396 C1399 1.499 . S
C1397 H1371 0.950 . S
C1397 C1396 1.414 . S
C1397 C1398 1.374 . S
C1398 H1372 0.950 . S
C1398 C1394 1.385 . S
C1398 C1397 1.374 . S
C1399 C1396 1.499 . S
C1399 C1400 1.373 . S
C1399 C1401 1.389 . S
C1400 H1373 0.950 . S
C1400 C1386 1.377 . S
C1400 C1399 1.373 . S
C1401 C1385 1.377 . S
C1401 C1399 1.389 . S
C1401 C1402 1.524 . S
C1402 C1401 1.524 . S
C1402 C1403 1.397 . S
C1402 C1407 1.363 . S
C1403 H1374 0.950 . S
C1403 C1402 1.397 . S
C1403 C1404 1.334 . S
C1404 H1375 0.950 . S
C1404 C1403 1.334 . S
C1404 C1405 1.287 . S
C1405 C1404 1.287 . S
C1405 C1406 1.524 . S
C1405 H1408 0.999 . S
C1406 H1376 0.950 . S
C1406 C1405 1.524 . S
C1406 C1407 1.415 . S
C1407 H1377 0.950 . S
C1407 C1402 1.363 . S
C1407 C1406 1.415 . S
H1408 C1405 0.999 . S
H1409 C1390 0.913 . S
H1410 C1428 0.951 . S
H1411 C1430 0.951 . S
H1412 C1432 0.950 . S
H1413 C1433 0.950 . S
H1414 C1435 0.950 . S
H1415 C1438 0.950 . S
H1416 C1439 0.950 . S
H1417 C1441 0.950 . S
H1418 C1442 0.950 . S
H1419 C1443 0.951 . S
H1420 C1445 0.951 . S
H1421 C1447 0.950 . S
H1422 C1448 0.950 . S
H1423 C1450 0.950 . S
H1424 C1453 0.950 . S
H1425 C1454 0.950 . S
H1426 C1456 0.950 . S
H1427 C1457 0.950 . S
C1428 H1410 0.951 . S
C1428 C1429 1.366 . S
C1428 C1430 1.388 . S
C1429 C1428 1.366 . S
C1429 C1433 1.385 . S
C1430 H1411 0.951 . S
C1430 C1428 1.388 . S
C1430 C1431 1.366 . S
C1431 C1430 1.366 . S
C1431 C1432 1.414 . S
C1431 C1434 1.499 . S
C1432 H1412 0.950 . S
C1432 C1431 1.414 . S
C1432 C1433 1.374 . S
C1433 H1413 0.950 . S
C1433 C1429 1.385 . S
C1433 C1432 1.374 . S
C1434 C1431 1.499 . S
C1434 C1435 1.373 . S
C1434 C1436 1.389 . S
C1435 H1414 0.950 . S
C1435 C1434 1.373 . S
C1435 C1451 1.377 . S
C1436 C1434 1.389 . S
C1436 C1437 1.524 . S
C1436 C1450 1.377 . S
C1437 C1436 1.524 . S
C1437 C1438 1.397 . S
C1437 C1442 1.363 . S
C1438 H1415 0.950 . S
C1438 C1437 1.397 . S
C1438 C1439 1.334 . S
C1439 H1416 0.950 . S
C1439 C1438 1.334 . S
C1439 C1440 1.287 . S
C1440 C1439 1.287 . S
C1440 C1441 1.524 . S
C1440 H1459 0.913 . S
C1441 H1417 0.950 . S
C1441 C1440 1.524 . S
C1441 C1442 1.415 . S
C1442 H1418 0.950 . S
C1442 C1437 1.363 . S
C1442 C1441 1.415 . S
C1443 H1419 0.951 . S
C1443 C1444 1.366 . S
C1443 C1445 1.388 . S
C1444 C1443 1.366 . S
C1444 C1448 1.385 . S
C1445 H1420 0.951 . S
C1445 C1443 1.388 . S
C1445 C1446 1.366 . S
C1446 C1445 1.366 . S
C1446 C1447 1.414 . S
C1446 C1449 1.499 . S
C1447 H1421 0.950 . S
C1447 C1446 1.414 . S
C1447 C1448 1.374 . S
C1448 H1422 0.950 . S
C1448 C1444 1.385 . S
C1448 C1447 1.374 . S
C1449 C1446 1.499 . S
C1449 C1450 1.373 . S
C1449 C1451 1.389 . S
C1450 H1423 0.950 . S
C1450 C1436 1.377 . S
C1450 C1449 1.373 . S
C1451 C1435 1.377 . S
C1451 C1449 1.389 . S
C1451 C1452 1.524 . S
C1452 C1451 1.524 . S
C1452 C1453 1.397 . S
C1452 C1457 1.363 . S
C1453 H1424 0.950 . S
C1453 C1452 1.397 . S
C1453 C1454 1.334 . S
C1454 H1425 0.950 . S
C1454 C1453 1.334 . S
C1454 C1455 1.287 . S
C1455 C1454 1.287 . S
C1455 C1456 1.524 . S
C1455 H1458 0.999 . S
C1456 H1426 0.950 . S
C1456 C1455 1.524 . S
C1456 C1457 1.415 . S
C1457 H1427 0.950 . S
C1457 C1452 1.363 . S
C1457 C1456 1.415 . S
H1458 C1455 0.999 . S
H1459 C1440 0.913 . S
H1460 C1478 0.951 . S
H1461 C1480 0.951 . S
H1462 C1482 0.950 . S
H1463 C1483 0.950 . S
H1464 C1485 0.950 . S
H1465 C1488 0.950 . S
H1466 C1489 0.950 . S
H1467 C1491 0.950 . S
H1468 C1492 0.950 . S
H1469 C1493 0.951 . S
H1470 C1495 0.951 . S
H1471 C1497 0.950 . S
H1472 C1498 0.950 . S
H1473 C1500 0.950 . S
H1474 C1503 0.950 . S
H1475 C1504 0.950 . S
H1476 C1506 0.948 1_554 S
H1477 C1507 0.950 . S
C1478 H1460 0.951 . S
C1478 C1479 1.366 . S
C1478 C1480 1.388 . S
C1479 C1478 1.366 . S
C1479 C1483 1.385 . S
C1480 H1461 0.951 . S
C1480 C1478 1.388 . S
C1480 C1481 1.366 . S
C1481 C1480 1.366 . S
C1481 C1482 1.414 . S
C1481 C1484 1.499 . S
C1482 H1462 0.950 . S
C1482 C1481 1.414 . S
C1482 C1483 1.374 . S
C1483 H1463 0.950 . S
C1483 C1479 1.385 . S
C1483 C1482 1.374 . S
C1484 C1481 1.499 . S
C1484 C1485 1.373 . S
C1484 C1486 1.389 . S
C1485 H1464 0.950 . S
C1485 C1484 1.373 . S
C1485 C1501 1.377 . S
C1486 C1484 1.389 . S
C1486 C1487 1.524 . S
C1486 C1500 1.377 . S
C1487 C1486 1.524 . S
C1487 C1488 1.397 . S
C1487 C1492 1.363 . S
C1488 H1465 0.950 . S
C1488 C1487 1.397 . S
C1488 C1489 1.334 . S
C1489 H1466 0.950 . S
C1489 C1488 1.334 . S
C1489 C1490 1.287 . S
C1490 C1489 1.287 . S
C1490 C1491 1.524 . S
C1490 H1509 0.913 . S
C1491 H1467 0.950 . S
C1491 C1490 1.524 . S
C1491 C1492 1.415 . S
C1492 H1468 0.950 . S
C1492 C1487 1.363 . S
C1492 C1491 1.415 . S
C1493 H1469 0.951 . S
C1493 C1494 1.366 . S
C1493 C1495 1.388 . S
C1494 C1493 1.366 . S
C1494 C1498 1.385 . S
C1495 H1470 0.951 . S
C1495 C1493 1.388 . S
C1495 C1496 1.366 . S
C1496 C1495 1.366 . S
C1496 C1497 1.414 . S
C1496 C1499 1.499 1_556 S
C1497 H1471 0.950 . S
C1497 C1496 1.414 . S
C1497 C1498 1.374 . S
C1498 H1472 0.950 . S
C1498 C1494 1.385 . S
C1498 C1497 1.374 . S
C1499 C1496 1.499 1_554 S
C1499 C1500 1.373 . S
C1499 C1501 1.389 . S
C1500 H1473 0.950 . S
C1500 C1486 1.377 . S
C1500 C1499 1.373 . S
C1501 C1485 1.377 . S
C1501 C1499 1.389 . S
C1501 C1502 1.525 . S
C1502 C1501 1.525 . S
C1502 C1503 1.395 1_554 S
C1502 C1507 1.363 . S
C1503 H1474 0.950 . S
C1503 C1502 1.395 1_556 S
C1503 C1504 1.334 . S
C1504 H1475 0.950 . S
C1504 C1503 1.334 . S
C1504 C1505 1.287 . S
C1505 C1504 1.287 . S
C1505 C1506 1.527 . S
C1505 H1508 0.999 . S
C1506 H1476 0.948 1_556 S
C1506 C1505 1.527 . S
C1506 C1507 1.414 1_556 S
C1507 H1477 0.950 . S
C1507 C1502 1.363 . S
C1507 C1506 1.414 1_554 S
H1508 C1505 0.999 . S
H1509 C1490 0.913 . S
H1510 C1528 0.951 . S
H1511 C1530 0.951 . S
H1512 C1532 0.950 . S
H1513 C1533 0.950 . S
H1514 C1535 0.950 . S
H1515 C1538 0.950 . S
H1516 C1539 0.950 . S
H1517 C1541 0.950 . S
H1518 C1542 0.950 . S
H1519 C1543 0.951 . S
H1520 C1545 0.951 . S
H1521 C1547 0.950 . S
H1522 C1548 0.950 . S
H1523 C1550 0.950 . S
H1524 C1553 0.950 . S
H1525 C1554 0.950 . S
H1526 C1556 0.950 . S
H1527 C1557 0.950 . S
C1528 H1510 0.951 . S
C1528 C1529 1.366 . S
C1528 C1530 1.388 . S
C1529 C1528 1.366 . S
C1529 C1533 1.385 . S
C1530 H1511 0.951 . S
C1530 C1528 1.388 . S
C1530 C1531 1.366 . S
C1531 C1530 1.366 . S
C1531 C1532 1.414 . S
C1531 C1534 1.499 . S
C1532 H1512 0.950 . S
C1532 C1531 1.414 . S
C1532 C1533 1.374 . S
C1533 H1513 0.950 . S
C1533 C1529 1.385 . S
C1533 C1532 1.374 . S
C1534 C1531 1.499 . S
C1534 C1535 1.373 . S
C1534 C1536 1.389 . S
C1535 H1514 0.950 . S
C1535 C1534 1.373 . S
C1535 C1551 1.377 . S
C1536 C1534 1.389 . S
C1536 C1537 1.524 . S
C1536 C1550 1.377 . S
C1537 C1536 1.524 . S
C1537 C1538 1.397 . S
C1537 C1542 1.363 . S
C1538 H1515 0.950 . S
C1538 C1537 1.397 . S
C1538 C1539 1.334 . S
C1539 H1516 0.950 . S
C1539 C1538 1.334 . S
C1539 C1540 1.287 . S
C1540 C1539 1.287 . S
C1540 C1541 1.524 . S
C1540 H1559 0.913 . S
C1541 H1517 0.950 . S
C1541 C1540 1.524 . S
C1541 C1542 1.415 . S
C1542 H1518 0.950 . S
C1542 C1537 1.363 . S
C1542 C1541 1.415 . S
C1543 H1519 0.951 . S
C1543 C1544 1.366 . S
C1543 C1545 1.388 . S
C1544 C1543 1.366 . S
C1544 C1548 1.385 . S
C1545 H1520 0.951 . S
C1545 C1543 1.388 . S
C1545 C1546 1.366 . S
C1546 C1545 1.366 . S
C1546 C1547 1.414 . S
C1546 C1549 1.499 . S
C1547 H1521 0.950 . S
C1547 C1546 1.414 . S
C1547 C1548 1.374 . S
C1548 H1522 0.950 . S
C1548 C1544 1.385 . S
C1548 C1547 1.374 . S
C1549 C1546 1.499 . S
C1549 C1550 1.373 . S
C1549 C1551 1.389 . S
C1550 H1523 0.950 . S
C1550 C1536 1.377 . S
C1550 C1549 1.373 . S
C1551 C1535 1.377 . S
C1551 C1549 1.389 . S
C1551 C1552 1.524 . S
C1552 C1551 1.524 . S
C1552 C1553 1.397 . S
C1552 C1557 1.363 . S
C1553 H1524 0.950 . S
C1553 C1552 1.397 . S
C1553 C1554 1.334 . S
C1554 H1525 0.950 . S
C1554 C1553 1.334 . S
C1554 C1555 1.287 . S
C1555 C1554 1.287 . S
C1555 C1556 1.524 . S
C1555 H1558 0.999 . S
C1556 H1526 0.950 . S
C1556 C1555 1.524 . S
C1556 C1557 1.415 . S
C1557 H1527 0.950 . S
C1557 C1552 1.363 . S
C1557 C1556 1.415 . S
H1558 C1555 0.999 . S
H1559 C1540 0.913 . S
C394 C353 1.542 . S
C379 C15 1.526 . S
C429 C61 1.417 . S
C444 C287 1.415 . S
C479 C114 1.340 . S
C494 C301 1.339 . S
C529 C139 1.434 . S
C544 C315 1.421 . S
C594 C329 1.470 . S
C579 C185 1.485 . S
C629 C245 1.474 . S
C644 C339 1.495 . S
C679 C47 1.542 . S
C694 C297 1.552 . S
C729 C100 1.628 . S
C744 C311 1.642 . S
C779 C153 1.535 . S
C794 C325 1.560 . S
C844 C343 1.449 . S
C829 C199 1.450 . S
C894 C357 1.478 . S
C879 C231 1.490 . S
C944 C283 1.516 . S
C929 C1 1.509 . S
C979 C22 1.468 . S
C994 C298 1.422 . S
C1029 C68 1.565 . S
C1044 C312 1.516 . S
C1094 C326 1.520 . S
C1079 C107 1.569 . S
C1129 C146 1.448 . S
C1144 C345 1.387 . S
C1194 C359 1.358 . S
C1179 C192 1.423 . S
C1244 C284 1.391 . S
C1229 C252 1.439 . S
C1294 C354 1.396 . S
C1279 C54 1.446 . S
C1329 C93 1.324 . S
C1344 C289 1.271 . S
C1394 C303 1.278 . S
C1379 C160 1.326 . S
C1429 C206 1.429 . S
C1444 C317 1.367 . S
C1479 C238 1.452 . S
C1494 C331 1.392 . S
C1529 C8 1.480 . S
C1544 C340 1.429 . S
