# Generated by pormake.
# Topology pts, (4,4)-cn, num edge types: 1
# Building blocks:
#     Node 0, Type 0, BuildingBlock: GIZVER_clean_linker_0, # of connection points: 4
#     Node 1, Type 0, BuildingBlock: GIZVER_clean_linker_0, # of connection points: 4
#     Node 2, Type 1, BuildingBlock: UXUYUI_clean_sbu_0, # of connection points: 4
#     Node 3, Type 1, BuildingBlock: UXUYUI_clean_sbu_0, # of connection points: 4
#     Edge 4, Type (0, 1), BuildingBlock: UVAHIK_clean_linker_0, # of connection points: 2
#     Edge 5, Type (0, 1), BuildingBlock: UVAHIK_clean_linker_0, # of connection points: 2
#     Edge 6, Type (0, 1), BuildingBlock: UVAHIK_clean_linker_0, # of connection points: 2
#     Edge 7, Type (0, 1), BuildingBlock: UVAHIK_clean_linker_0, # of connection points: 2
#     Edge 8, Type (0, 1), BuildingBlock: UVAHIK_clean_linker_0, # of connection points: 2
#     Edge 9, Type (0, 1), BuildingBlock: UVAHIK_clean_linker_0, # of connection points: 2
#     Edge 10, Type (0, 1), BuildingBlock: UVAHIK_clean_linker_0, # of connection points: 2
#     Edge 11, Type (0, 1), BuildingBlock: UVAHIK_clean_linker_0, # of connection points: 2
# Relax obj value: 0.010
# Max RMSD: 0.058
# Mean RMSD: 0.057
data_MOF--net-pts--node1-UXUYUI_clean_sbu_0--node2-GIZVER_clean_linker_0--edge1-UVAHIK_clean_linker_0
_symmetry_space_group_name_H-M    P1
_symmetry_Int_Tables_number       1
_symmetry_cell_setting            triclinic
loop_
_symmetry_equiv_pos_as_xyz
'x, y, z'
_cell_length_a     39.612642
_cell_length_b     39.511765
_cell_length_c     51.257312
_cell_angle_alpha  90.260393
_cell_angle_beta   89.726176
_cell_angle_gamma 90.036194
loop_
_atom_site_label
_atom_site_type_symbol
_atom_site_fract_x
_atom_site_fract_y
_atom_site_fract_z
_atom_type_partial_charge
H0 H 0.56222 0.06467 0.03368 0.0
H1 H 0.56051 0.07034 0.94978 0.0
H2 H 0.64324 0.02177 0.98851 0.0
H3 H 0.52651 0.1066 0.011 0.0
H4 H 0.52461 0.10752 0.97624 0.0
H5 H 0.49029 0.06896 0.03599 0.0
H6 H 0.40944 0.01937 -0.00475 0.0
H7 H 0.49018 0.06548 0.95195 0.0
C8 C 0.57328 0.05837 0.01489 0.0
C9 C 0.60409 0.04085 0.01375 0.0
C10 C 0.55724 0.06877 0.99185 0.0
C11 C 0.57236 0.0616 0.96753 0.0
C12 C 0.60327 0.04423 0.96615 0.0
C13 C 0.61857 0.03361 0.98934 0.0
C14 C 0.52578 0.09022 -0.00671 0.0
C15 C 0.49436 0.06861 -0.00607 0.0
C16 C 0.47902 0.06036 0.0179 0.0
C17 C 0.44843 0.04234 0.01854 0.0
C18 C 0.43386 0.03181 -0.00503 0.0
C19 C 0.44857 0.04016 0.97092 0.0
C20 C 0.47901 0.05837 0.97048 0.0
H21 H 0.05829 0.55381 0.44476 0.0
H22 H 0.07069 0.57134 0.52727 0.0
H23 H 0.0163 0.64276 0.48048 0.0
H24 H 0.10286 0.52448 0.47061 0.0
H25 H 0.10394 0.52842 0.50526 0.0
H26 H 0.05911 0.48888 0.44892 0.0
H27 H 0.01835 0.40884 0.49599 0.0
H28 H 0.06926 0.49231 0.53258 0.0
C29 C 0.05287 0.56859 0.46215 0.0
C30 C 0.03501 0.59908 0.45999 0.0
C31 C 0.06488 0.55783 0.48658 0.0
C32 C 0.05979 0.57853 0.50875 0.0
C33 C 0.04292 0.60966 0.50654 0.0
C34 C 0.02937 0.61877 0.48235 0.0
C35 C 0.08659 0.52652 0.48831 0.0
C36 C 0.06549 0.49479 0.49056 0.0
C37 C 0.05373 0.47826 0.46795 0.0
C38 C 0.03624 0.44741 0.46981 0.0
C39 C 0.03018 0.43353 0.49453 0.0
C40 C 0.04213 0.44932 0.51722 0.0
C41 C 0.05947 0.48021 0.51516 0.0
Li42 Li 0.02249 0.05322 0.26041 0.0
Li43 Li 0.02243 0.99215 0.2595 0.0
Li44 Li 0.05587 0.02526 0.22717 0.0
Li45 Li 0.99196 0.02415 0.22631 0.0
C46 C 0.07125 0.02029 0.29119 0.0
N47 N 0.09022 0.01429 0.34276 0.0
C48 C 0.04728 0.02397 0.31111 0.0
C49 C 0.10485 0.01356 0.29749 0.0
C50 C 0.05737 0.02085 0.33706 0.0
C51 C 0.11394 0.01062 0.32369 0.0
C52 C 0.9558 1.00596 0.27341 0.0
C53 C 0.91557 0.96044 0.26944 0.0
N54 N 0.90071 0.97059 0.29214 0.0
C55 C 0.94014 0.01598 0.29667 0.0
C56 C 0.94348 0.97799 0.25966 0.0
C57 C 0.91231 0.99775 0.30583 0.0
C58 C 0.99038 0.10809 0.28543 0.0
N59 N 0.02086 0.09308 0.28158 0.0
C60 C 0.04875 0.13807 0.30414 0.0
C61 C 0.04977 0.10722 0.29075 0.0
C62 C 0.0177 0.15469 0.30796 0.0
C63 C 0.98821 0.13909 0.29852 0.0
H64 H 0.96786 0.09643 0.27759 0.0
H65 H 0.07373 0.0949 0.28714 0.0
C66 C 0.0379 0.92374 0.26636 0.0
N67 N 0.02239 0.95046 0.27811 0.0
C68 C 0.03744 0.89186 0.27801 0.0
C69 C 1.00566 0.91575 0.31399 0.0
C70 C 1.00673 0.94717 0.30162 0.0
C71 C 0.02096 0.88746 0.30209 0.0
H72 H 0.05045 0.92715 0.24777 0.0
H73 H 0.99472 0.9688 0.31067 0.0
C74 C 0.02172 0.09718 0.22218 0.0
N75 N 0.01786 0.1669 0.22502 0.0
C76 C 0.99064 0.11342 0.21932 0.0
C77 C 0.05089 0.11638 0.22625 0.0
C78 C 0.98921 0.14871 0.22085 0.0
C79 C 0.04839 0.15161 0.2277 0.0
C80 C 0.02055 0.96626 0.19999 0.0
C81 C 0.03562 0.97515 0.17627 0.0
C82 C 1.00132 0.93666 0.2016 0.0
C83 C 0.03079 0.95446 0.15442 0.0
C84 C 0.99704 0.91669 0.1793 0.0
N85 N 0.01173 0.92593 0.15637 0.0
C86 C 0.11958 1.0007 0.21262 0.0
C87 C 0.10355 0.05083 0.19067 0.0
C88 C 0.15094 1.00075 0.20003 0.0
N89 N 0.09682 0.02561 0.20786 0.0
C90 C 0.13471 0.05205 0.17781 0.0
C91 C 0.15897 0.0269 0.18257 0.0
H92 H 0.11349 0.98105 0.22651 0.0
H93 H 0.08485 0.07017 0.18712 0.0
C94 C 0.92384 0.03907 0.21717 0.0
N95 N 0.95162 0.02511 0.20571 0.0
C96 C 0.89285 0.03903 0.20431 0.0
C97 C 0.91971 0.01131 0.16762 0.0
C98 C 0.95021 0.01196 0.18118 0.0
C99 C 0.8904 0.02464 0.17929 0.0
H100 H 0.92566 0.04994 0.23651 0.0
H101 H 0.97261 1.00189 0.17205 0.0
O102 O 0.06205 0.02296 0.26559 0.0
O103 O 0.98345 0.0232 0.26452 0.0
O104 O 0.02348 0.06263 0.2215 0.0
O105 O 0.02523 0.98602 0.22165 0.0
H106 H 0.02116 0.02917 0.30664 0.0
H107 H 0.12368 0.01058 0.28227 0.0
H108 H 0.03908 0.02362 0.35266 0.0
H109 H 0.13986 1.0054 0.32885 0.0
H110 H 0.90576 0.93874 0.25901 0.0
H111 H 0.94953 0.03751 0.30758 0.0
H112 H 0.95533 0.96997 0.24165 0.0
H113 H 0.89998 1.00515 0.32384 0.0
H114 H 0.07208 0.14878 0.31138 0.0
H115 H 0.96378 0.15109 0.3006 0.0
H116 H 0.05007 0.87096 0.26834 0.0
H117 H 0.9924 0.91352 0.33243 0.0
H118 H 0.96784 0.09892 0.2162 0.0
H119 H 0.0751 0.10416 0.22878 0.0
H120 H 0.9653 0.16161 0.21883 0.0
H121 H 0.0707 0.16678 0.2311 0.0
H122 H 0.05053 0.99798 0.17464 0.0
H123 H 0.98989 0.92909 0.21987 0.0
H124 H 0.04213 0.96114 0.13591 0.0
H125 H 0.98211 0.89379 0.18024 0.0
H126 H 0.16901 0.98104 0.2044 0.0
H127 H 0.13972 0.07237 0.16422 0.0
H128 H 0.87092 0.04951 0.2141 0.0
H129 H 0.91914 1.00066 0.14812 0.0
Li130 Li 0.99642 0.03138 0.75996 0.0
Li131 Li 0.05856 0.02753 0.76153 0.0
Li132 Li 0.03076 0.05939 0.72736 0.0
Li133 Li 0.02981 0.9977 0.72607 0.0
C134 C 0.02832 0.08447 0.78876 0.0
N135 N 0.02533 0.117 0.83656 0.0
C136 C 0.03316 0.06629 0.81174 0.0
C137 C 0.02231 0.1193 0.79007 0.0
C138 C 0.03148 0.08315 0.83572 0.0
C139 C 0.02077 0.13526 0.81442 0.0
C140 C 0.02562 0.96696 0.78381 0.0
C141 C 0.04145 0.91193 0.79996 0.0
N142 N 0.02656 0.91941 0.82324 0.0
C143 C 0.01004 0.97385 0.8078 0.0
C144 C 0.04107 0.93553 0.77975 0.0
C145 C 0.01096 0.94959 0.82751 0.0
C146 C 0.93594 1.00389 0.77893 0.0
N147 N 0.95445 0.03284 0.77811 0.0
C148 C 0.91072 0.0633 0.80028 0.0
C149 C 0.94247 0.0623 0.78832 0.0
C150 C 0.89091 0.03378 0.80146 0.0
C151 C 0.90401 1.00376 0.79062 0.0
H152 H 0.94587 0.98098 0.77018 0.0
H153 H 0.95728 0.08517 0.78686 0.0
C154 C 0.1233 0.04797 0.77487 0.0
N155 N 0.09823 0.02677 0.7827 0.0
C156 C 0.15451 0.04779 0.78738 0.0
C157 C 0.13332 1.00456 0.81636 0.0
C158 C 0.10256 1.00541 0.80314 0.0
C159 C 0.15999 0.0257 0.80836 0.0
H160 H 0.11923 0.0645 0.75842 0.0
H161 H 0.08238 0.98881 0.80913 0.0
C162 C 0.9762 0.0449 0.70105 0.0
N163 N 0.94742 0.07891 0.65983 0.0
C164 C 0.98961 0.04131 0.67592 0.0
C165 C 0.94805 0.06553 0.70523 0.0
C166 C 0.97473 0.05881 0.65534 0.0
C167 C 0.93388 0.08257 0.68412 0.0
C168 C 0.09811 1.00936 0.71795 0.0
C169 C 0.12057 0.01917 0.69827 0.0
C170 C 0.10471 0.98018 0.73232 0.0
C171 C 0.14919 0.9995 0.69325 0.0
C172 C 0.1336 0.96119 0.72676 0.0
N173 N 0.15506 0.97115 0.70748 0.0
C174 C 1.00901 0.12443 0.71381 0.0
C175 C 0.05559 0.10502 0.68871 0.0
C176 C 0.00935 0.15541 0.70084 0.0
N177 N 0.03193 0.10008 0.7076 0.0
C178 C 0.05707 0.1358 0.6754 0.0
C179 C 0.03381 0.16153 0.68151 0.0
H180 H 0.99062 0.11983 0.72905 0.0
H181 H 0.07346 0.08519 0.68416 0.0
C182 C 0.00956 0.93135 0.71422 0.0
N183 N 0.02903 0.9574 0.70564 0.0
C184 C 1.00898 0.90065 0.70059 0.0
C185 C 0.04813 0.92437 0.66931 0.0
C186 C 0.04786 0.95463 0.6835 0.0
C187 C 0.02855 0.89677 0.67783 0.0
H188 H 0.99457 0.93441 0.73176 0.0
H189 H 0.06287 0.97583 0.67695 0.0
O190 O 0.02983 0.06855 0.76503 0.0
O191 O 0.02474 0.99034 0.76415 0.0
O192 O 0.99096 0.02872 0.72153 0.0
O193 O 0.06991 0.02836 0.72305 0.0
H194 H 0.03845 0.03955 0.81107 0.0
H195 H 0.01876 0.13383 0.77246 0.0
H196 H 0.03515 0.06934 0.85365 0.0
H197 H 0.016 0.16217 0.81572 0.0
H198 H 0.05347 0.88762 0.7971 0.0
H199 H 0.99722 0.9976 0.81121 0.0
H200 H 0.05254 0.92923 0.76117 0.0
H201 H 0.99916 0.95471 0.84619 0.0
H202 H 0.90187 0.08695 0.80858 0.0
H203 H 0.88949 0.98054 0.79063 0.0
H204 H 0.17437 0.0642 0.78025 0.0
H205 H 0.13613 0.98753 0.8327 0.0
H206 H 0.0115 0.02551 0.67245 0.0
H207 H 0.93748 0.06857 0.72462 0.0
H208 H 0.98494 0.05647 0.6358 0.0
H209 H 0.91219 0.09879 0.68706 0.0
H210 H 0.11594 0.0417 0.68694 0.0
H211 H 0.08786 0.97246 0.74774 0.0
H212 H 0.16675 1.00677 0.67805 0.0
H213 H 0.13898 0.93857 0.7378 0.0
H214 H 0.99117 0.17467 0.70633 0.0
H215 H 0.07611 0.13938 0.66042 0.0
H216 H 0.99306 0.88035 0.70766 0.0
H217 H 0.06386 0.9225 0.65203 0.0
C218 C 0.41184 1.0079 0.04839 0.0
C219 C 0.4288 0.03839 0.04309 0.0
C220 C 0.38752 1.00632 0.06819 0.0
C221 C 0.32647 0.06215 0.09987 0.0
H222 H 0.30814 0.98471 0.14391 0.0
C223 C 0.21034 0.05894 0.168 0.0
C224 C 0.19261 0.02822 0.16968 0.0
C225 C 0.24188 0.06035 0.15571 0.0
C226 C 0.31275 1.00643 0.13157 0.0
H227 H 0.43513 0.09051 0.05548 0.0
H228 H 0.39293 0.08765 0.0903 0.0
H229 H 0.36007 0.98649 0.11803 0.0
H230 H 0.19403 0.97487 0.15977 0.0
H231 H 0.24873 0.97737 0.13781 0.0
H232 H 0.27882 0.08164 0.11251 0.0
C233 C 0.3982 0.06507 0.07893 0.0
C234 C 0.34259 1.00749 0.11686 0.0
C235 C 0.42266 0.0666 0.0592 0.0
C236 C 0.20724 0.99885 0.159 0.0
C237 C 0.23869 1.0003 0.14651 0.0
C238 C 0.2966 0.061 0.11442 0.0
C239 C 0.37954 0.03526 0.08303 0.0
C240 C 0.34963 0.03524 0.10066 0.0
C241 C 0.25636 0.03111 0.14459 0.0
C242 C 0.28914 0.03298 0.13026 0.0
H243 H 0.41621 0.98571 0.03634 0.0
H244 H 0.37354 0.983 0.07078 0.0
H245 H 0.33079 0.0836 0.08719 0.0
H246 H 0.19998 0.08189 0.17645 0.0
H247 H 0.25499 0.08439 0.15504 0.0
C248 C 0.01004 0.41438 0.54957 0.0
C249 C 0.04018 0.43059 0.54221 0.0
C250 C 0.00992 0.39036 0.5695 0.0
C251 C 0.06701 0.328 0.59706 0.0
H252 H 0.99404 0.31193 0.64613 0.0
C253 C 0.06645 0.21118 0.6643 0.0
C254 C 0.03535 0.19479 0.66816 0.0
C255 C 0.06789 0.24267 0.652 0.0
C256 C 0.01449 0.31589 0.63238 0.0
H257 H 0.09335 0.43603 0.55101 0.0
H258 H 0.09312 0.39419 0.58603 0.0
H259 H 0.99481 0.36399 0.62062 0.0
H260 H 0.98141 0.19838 0.66192 0.0
H261 H 0.98391 0.25291 0.63993 0.0
H262 H 0.0861 0.27954 0.60791 0.0
C263 C 0.06965 0.39988 0.57623 0.0
C264 C 0.015 0.34582 0.61789 0.0
C265 C 0.0697 0.42411 0.55641 0.0
C266 C 1.00572 0.21058 0.65947 0.0
C267 C 1.00716 0.24194 0.64698 0.0
C268 C 0.06639 0.29801 0.61139 0.0
C269 C 0.04001 0.38189 0.58234 0.0
C270 C 0.04108 0.35203 0.59986 0.0
C271 C 0.03828 0.25841 0.64306 0.0
C272 C 0.0399 0.29134 0.62901 0.0
H273 H 0.98693 0.41898 0.53895 0.0
H274 H 0.98671 0.37688 0.57365 0.0
H275 H 0.08713 0.33171 0.58297 0.0
H276 H 0.08967 0.19989 0.67115 0.0
H277 H 0.09223 0.2548 0.64972 0.0
C278 C 0.63062 0.05932 0.05574 0.0
C279 C 0.62381 0.03349 0.03759 0.0
C280 C 0.6553 0.0548 0.07485 0.0
C281 C 0.73347 1.00655 0.0834 0.0
H282 H 0.7329 0.04574 0.15287 0.0
C283 C 0.84798 0.99423 0.15148 0.0
C284 C 0.85747 0.02333 0.16552 0.0
C285 C 0.81723 0.99303 0.13826 0.0
C286 C 0.73351 0.03486 0.13344 0.0
H287 H 0.63512 0.9817 0.02664 0.0
H288 H 0.67774 0.97354 0.06025 0.0
H289 H 0.68153 0.04698 0.12662 0.0
H290 H 0.84197 0.074 0.1767 0.0
H291 H 0.78842 0.07205 0.15345 0.0
H292 H 0.78547 0.99512 0.0898 0.0
C293 C 0.66472 0.9976 0.05933 0.0
C294 C 0.70405 0.0355 0.11845 0.0
C295 C 0.64018 1.00217 0.04021 0.0
C296 C 0.83526 0.05107 0.1663 0.0
C297 C 0.80451 0.04991 0.15302 0.0
C298 C 0.76284 1.00595 0.09832 0.0
C299 C 0.67355 0.02431 0.0762 0.0
C300 C 0.70378 0.02154 0.09317 0.0
C301 C 0.79522 0.02095 0.13869 0.0
C302 C 0.76334 0.02032 0.12345 0.0
H303 H 0.61861 0.08383 0.05403 0.0
H304 H 0.66157 0.07594 0.08744 0.0
H305 H 0.73442 0.99624 0.06379 0.0
H306 H 0.86422 0.97218 0.15089 0.0
H307 H 0.81063 0.97012 0.12779 0.0
C308 C 0.03416 0.62618 0.55394 0.0
C309 C 0.0425 0.63497 0.52812 0.0
C310 C 0.03126 0.65139 0.57327 0.0
C311 C 0.01035 0.74072 0.57925 0.0
H312 H 0.06078 0.74329 0.64385 0.0
C313 C 0.02864 0.86465 0.63545 0.0
C314 C 0.02822 0.86438 0.66286 0.0
C315 C 0.02829 0.83441 0.62128 0.0
C316 C 0.04604 0.74269 0.62612 0.0
H317 H 0.05718 0.67659 0.50296 0.0
H318 H 0.05128 0.72008 0.53622 0.0
H319 H 0.06402 0.69309 0.6156 0.0
H320 H 0.02746 0.83181 0.69684 0.0
H321 H 0.02603 0.77892 0.672 0.0
H322 H 0.99238 0.79003 0.58933 0.0
C323 C 0.04632 0.694 0.54146 0.0
C324 C 0.04795 0.71397 0.61 0.0
C325 C 0.04955 0.66905 0.52241 0.0
C326 C 0.02741 0.83298 0.67573 0.0
C327 C 0.02698 0.80263 0.66151 0.0
C328 C 1.00819 0.76916 0.59537 0.0
C329 C 0.03647 0.6856 0.56692 0.0
C330 C 0.03085 0.71321 0.58608 0.0
C331 C 0.02728 0.803 0.63408 0.0
C332 C 0.02679 0.77099 0.61862 0.0
H333 H 0.02881 0.60012 0.55894 0.0
H334 H 0.02384 0.64434 0.59287 0.0
H335 H 0.99653 0.74053 0.56106 0.0
H336 H 0.02886 0.88829 0.62485 0.0
H337 H 0.02915 0.83571 0.60018 0.0
C338 C 0.42042 0.06074 0.93048 0.0
C339 C 0.42914 0.0337 0.94678 0.0
C340 C 0.39571 0.05657 0.91132 0.0
C341 C 0.3213 1.00272 0.89894 0.0
H342 H 0.31596 0.05449 0.83503 0.0
C343 C 0.20681 0.99344 0.83003 0.0
C344 C 0.19339 0.02444 0.82154 0.0
C345 C 0.23801 0.99227 0.84261 0.0
C346 C 0.31711 0.03995 0.85287 0.0
H347 H 0.42118 0.98048 0.9545 0.0
H348 H 0.37901 0.97271 0.92042 0.0
H349 H 0.36802 0.05528 0.86042 0.0
H350 H 0.20253 0.07855 0.81972 0.0
H351 H 0.25711 0.07639 0.84141 0.0
H352 H 0.27037 0.98762 0.89151 0.0
C353 C 0.39031 0.99747 0.92292 0.0
C354 C 0.34691 0.0404 0.86744 0.0
C355 C 0.41469 1.00177 0.94226 0.0
C356 C 0.21224 0.05417 0.82564 0.0
C357 C 0.24356 0.05296 0.83806 0.0
C358 C 0.29169 1.00206 0.8843 0.0
C359 C 0.37946 0.02515 0.90795 0.0
C360 C 0.34923 0.02216 0.89088 0.0
C361 C 0.25668 0.02203 0.84684 0.0
C362 C 0.28907 0.02104 0.86131 0.0
H363 H 0.43089 0.08572 0.93378 0.0
H364 H 0.3879 0.07854 0.90036 0.0
H365 H 0.32175 0.98894 0.91715 0.0
H366 H 0.19336 0.96994 0.82674 0.0
H367 H 0.24766 0.968 0.84889 0.0
C368 C 0.05256 0.42035 0.42721 0.0
C369 C 0.02784 0.42691 0.44634 0.0
C370 C 0.04751 0.39492 0.40852 0.0
C371 C 1.00261 0.31445 0.40331 0.0
H372 H 0.03333 0.31473 0.33141 0.0
C373 C 0.98904 0.19613 0.33823 0.0
C374 C 0.01611 0.18815 0.32145 0.0
C375 C 0.98775 0.22734 0.35114 0.0
C376 C 0.02491 0.31414 0.35153 0.0
H377 H 0.97728 0.41433 0.45937 0.0
H378 H 0.96836 0.37017 0.42668 0.0
H379 H 0.03514 0.36704 0.35705 0.0
H380 H 0.06263 0.20746 0.30461 0.0
H381 H 0.06109 0.26123 0.32791 0.0
H382 H 0.99344 0.26158 0.39834 0.0
C383 C 0.99192 0.38411 0.42646 0.0
C384 C 0.02582 0.34417 0.36615 0.0
C385 C 0.99695 0.40948 0.44508 0.0
C386 C 0.04167 0.21243 0.31772 0.0
C387 C 0.04051 0.24357 0.33078 0.0
C388 C 1.00193 0.28447 0.38881 0.0
C389 C 0.01766 0.37561 0.40864 0.0
C390 C 0.01478 0.3446 0.39225 0.0
C391 C 0.01364 0.25136 0.34781 0.0
C392 C 0.01321 0.28382 0.36276 0.0
H393 H 0.07674 0.43314 0.42783 0.0
H394 H 0.06787 0.38891 0.39511 0.0
H395 H 0.99462 0.31371 0.42354 0.0
H396 H 0.96902 0.17803 0.34179 0.0
H397 H 0.9664 0.2326 0.36379 0.0
C398 C 0.64023 0.01061 0.93582 0.0
C399 C 0.62217 0.04048 0.94117 0.0
C400 C 0.66382 1.00942 0.91551 0.0
C401 C 0.71967 0.06745 0.87976 0.0
H402 H 0.74457 0.98593 0.84195 0.0
C403 C 0.83532 0.06246 0.81063 0.0
C404 C 0.85674 0.03437 0.81372 0.0
C405 C 0.8035 0.06326 0.82255 0.0
C406 C 0.73794 1.00887 0.85243 0.0
H407 H 0.61285 0.09171 0.92808 0.0
H408 H 0.65331 0.08933 0.89207 0.0
H409 H 0.69255 0.98698 0.8677 0.0
H410 H 0.86124 0.98507 0.83186 0.0
H411 H 0.80568 0.98639 0.85243 0.0
H412 H 0.76532 0.08913 0.86485 0.0
C413 C 0.64983 0.06705 0.90402 0.0
C414 C 0.70814 1.00949 0.86718 0.0
C415 C 0.62627 0.06827 0.92444 0.0
C416 C 0.84528 1.00689 0.82872 0.0
C417 C 0.81339 1.00763 0.84051 0.0
C418 C 0.74934 0.06688 0.86491 0.0
C419 C 0.6698 0.03804 0.89993 0.0
C420 C 0.69897 0.03858 0.88147 0.0
C421 C 0.79223 0.03591 0.83772 0.0
C422 C 0.75916 0.03737 0.8515 0.0
H423 H 0.63733 0.98864 0.94821 0.0
H424 H 0.67877 0.98668 0.91309 0.0
H425 H 0.71382 0.09011 0.89085 0.0
H426 H 0.843 0.08379 0.79881 0.0
H427 H 0.78762 0.08525 0.81978 0.0
C428 C 0.05313 0.62211 0.41699 0.0
C429 C 0.02688 0.61416 0.4344 0.0
C430 C 0.04813 0.64606 0.39735 0.0
C431 C 0.03032 0.69647 0.35451 0.0
H432 H 0.98312 0.77378 0.38397 0.0
C433 C 0.01447 0.82411 0.29971 0.0
C434 C 0.01961 0.85361 0.31467 0.0
C435 C 0.01282 0.79236 0.31164 0.0
C436 C 0.99643 0.75246 0.37545 0.0
H437 H 0.974 0.62192 0.44332 0.0
H438 H 0.96483 0.66281 0.40849 0.0
H439 H 0.98358 0.7206 0.40748 0.0
H440 H 0.02793 0.87263 0.35388 0.0
H441 H 0.02495 0.81741 0.37465 0.0
H442 H 0.04432 0.72915 0.32296 0.0
C443 C 0.98955 0.65144 0.41041 0.0
C444 C 0.99626 0.72172 0.38874 0.0
C445 C 0.99465 0.62774 0.43014 0.0
C446 C 0.02329 0.85055 0.34182 0.0
C447 C 0.02159 0.81886 0.35373 0.0
C448 C 0.03043 0.72733 0.34115 0.0
C449 C 0.01671 0.6623 0.39475 0.0
C450 C 0.01362 0.69344 0.37867 0.0
C451 C 0.01617 0.7894 0.33882 0.0
C452 C 0.01403 0.75585 0.35176 0.0
H453 H 0.07832 0.61228 0.42008 0.0
H454 H 0.06964 0.65385 0.38572 0.0
H455 H 0.0438 0.67516 0.34615 0.0
H456 H 0.01108 0.82559 0.27879 0.0
H457 H 1.0083 0.77019 0.29964 0.0
loop_
_geom_bond_atom_site_label_1
_geom_bond_atom_site_label_2
_geom_bond_distance
_geom_bond_site_symmetry_2
_ccdc_geom_bond_type
H0 C8 0.930 . S
H1 C11 0.930 . S
H2 C13 0.949 . S
H3 C14 1.001 . S
H4 C14 0.940 1_556 S
H5 C16 0.930 . S
H6 C18 0.930 1_565 S
H7 C20 0.930 . S
C8 H0 0.930 . S
C8 C9 1.382 . S
C8 C10 1.457 . S
C9 C8 1.382 . S
C9 C13 1.389 . S
C10 C8 1.457 . S
C10 C11 1.345 1_554 S
C10 C14 1.532 . S
C11 H1 0.930 . S
C11 C10 1.345 1_556 S
C11 C12 1.416 . S
C12 C11 1.416 . S
C12 C13 1.371 1_556 S
C13 H2 0.949 . S
C13 C9 1.389 . S
C13 C12 1.371 1_554 S
C14 H3 1.001 . S
C14 H4 0.940 1_554 S
C14 C10 1.532 . S
C14 C15 1.499 . S
C15 C14 1.499 . S
C15 C16 1.383 . S
C15 C20 1.402 1_554 S
C16 H5 0.930 . S
C16 C15 1.383 . S
C16 C17 1.407 . S
C17 C16 1.407 . S
C17 C18 1.376 . S
C18 H6 0.930 1_545 S
C18 C17 1.376 . S
C18 C19 1.382 1_554 S
C19 C18 1.382 1_556 S
C19 C20 1.387 . S
C20 H7 0.930 . S
C20 C15 1.402 1_556 S
C20 C19 1.387 . S
H21 C29 0.930 . S
H22 C32 0.930 . S
H23 C34 0.949 . S
H24 C35 0.970 . S
H25 C35 0.970 . S
H26 C37 0.930 . S
H27 C39 0.930 1_655 S
H28 C41 0.930 . S
C29 H21 0.930 . S
C29 C30 1.382 . S
C29 C31 1.426 . S
C30 C29 1.382 . S
C30 C34 1.389 . S
C31 C29 1.426 . S
C31 C32 1.375 . S
C31 C35 1.532 . S
C32 H22 0.930 . S
C32 C31 1.375 . S
C32 C33 1.416 . S
C33 C32 1.416 . S
C33 C34 1.371 . S
C34 H23 0.949 . S
C34 C30 1.389 . S
C34 C33 1.371 . S
C35 H24 0.970 . S
C35 H25 0.970 . S
C35 C31 1.532 . S
C35 C36 1.499 . S
C36 C35 1.499 . S
C36 C37 1.370 . S
C36 C41 1.415 . S
C37 H26 0.930 . S
C37 C36 1.370 . S
C37 C38 1.407 . S
C38 C37 1.407 . S
C38 C39 1.365 . S
C39 H27 0.930 1_455 S
C39 C38 1.365 . S
C39 C40 1.393 . S
C40 C39 1.393 . S
C40 C41 1.387 . S
C41 H28 0.930 . S
C41 C36 1.415 . S
C41 C40 1.387 . S
Li42 N59 1.990 . S
Li42 O102 1.956 . S
Li42 O103 1.970 1_455 S
Li42 O104 1.961 . S
Li43 N67 1.990 . S
Li43 O102 1.970 1_565 S
Li43 O103 1.956 1_465 S
Li43 O105 1.961 . S
Li44 N89 1.990 . S
Li44 O102 1.961 . S
Li44 O104 1.956 . S
Li44 O105 1.970 1_545 S
Li45 N95 1.990 . S
Li45 O103 1.961 . S
Li45 O104 1.970 1_655 S
Li45 O105 1.956 1_645 S
C46 C48 1.340 1_545 S
C46 C49 1.356 . S
C46 O102 1.325 . S
N47 C50 1.314 . S
N47 C51 1.279 . S
C48 C46 1.340 1_565 S
C48 C50 1.352 1_565 S
C48 H106 0.938 . S
C49 C46 1.356 . S
C49 C51 1.358 . S
C49 H107 0.930 . S
C50 N47 1.314 . S
C50 C48 1.352 1_545 S
C50 H108 0.930 1_545 S
C51 N47 1.279 . S
C51 C49 1.358 . S
C51 H109 0.930 . S
C52 C55 1.348 . S
C52 C56 1.356 1_545 S
C52 O103 1.325 . S
C53 N54 1.279 1_565 S
C53 C56 1.358 . S
C53 H110 0.930 . S
N54 C53 1.279 1_545 S
N54 C57 1.314 . S
C55 C52 1.348 . S
C55 C57 1.353 . S
C55 H111 0.929 . S
C56 C52 1.356 1_565 S
C56 C53 1.358 . S
C56 H112 0.930 . S
C57 N54 1.314 . S
C57 C55 1.353 . S
C57 H113 0.930 . S
C58 N59 1.314 . S
C58 C63 1.351 1_455 S
C58 H64 0.930 1_455 S
N59 Li42 1.990 . S
N59 C58 1.314 . S
N59 C61 1.279 . S
C60 C61 1.358 . S
C60 C62 1.356 . S
C60 H114 0.930 . S
C61 N59 1.279 . S
C61 C60 1.358 . S
C61 H65 0.930 . S
C62 C60 1.356 . S
C62 C63 1.333 1_455 S
C63 C58 1.351 1_655 S
C63 C62 1.333 1_655 S
C63 H115 0.946 . S
H64 C58 0.930 1_655 S
H65 C61 0.930 . S
C66 N67 1.314 . S
C66 C68 1.353 . S
C66 H72 0.930 . S
N67 Li43 1.990 . S
N67 C66 1.314 . S
N67 C70 1.279 1_455 S
C68 C66 1.353 . S
C68 C71 1.348 . S
C68 H116 0.929 . S
C69 C70 1.358 . S
C69 C71 1.356 1_655 S
C69 H117 0.930 . S
C70 N67 1.279 1_655 S
C70 C69 1.358 . S
C70 H73 0.930 . S
C71 C68 1.348 . S
C71 C69 1.356 1_455 S
H72 C66 0.930 . S
H73 C70 0.930 . S
C74 C76 1.340 1_455 S
C74 C77 1.356 . S
C74 O104 1.325 . S
N75 C78 1.314 . S
N75 C79 1.279 . S
C76 C74 1.340 1_655 S
C76 C78 1.352 1_655 S
C76 H118 0.938 . S
C77 C74 1.356 . S
C77 C79 1.358 . S
C77 H119 0.930 . S
C78 N75 1.314 . S
C78 C76 1.352 1_455 S
C78 H120 0.930 1_455 S
C79 N75 1.279 . S
C79 C77 1.358 . S
C79 H121 0.930 . S
C80 C81 1.348 . S
C80 C82 1.356 1_455 S
C80 O105 1.325 . S
C81 C80 1.348 . S
C81 C83 1.353 . S
C81 H122 0.929 . S
C82 C80 1.356 1_655 S
C82 C84 1.358 . S
C82 H123 0.930 . S
C83 C81 1.353 . S
C83 N85 1.314 . S
C83 H124 0.930 . S
C84 C82 1.358 . S
C84 N85 1.279 1_655 S
C84 H125 0.930 . S
N85 C83 1.314 . S
N85 C84 1.279 1_455 S
C86 C88 1.351 1_545 S
C86 N89 1.314 . S
C86 H92 0.930 1_545 S
C87 N89 1.279 . S
C87 C90 1.358 . S
C87 H93 0.930 . S
C88 C86 1.351 1_565 S
C88 C91 1.333 1_565 S
C88 H126 0.946 . S
N89 Li44 1.990 . S
N89 C86 1.314 . S
N89 C87 1.279 . S
C90 C87 1.358 . S
C90 C91 1.356 . S
C90 H127 0.930 . S
C91 C88 1.333 1_545 S
C91 C90 1.356 . S
H92 C86 0.930 1_565 S
H93 C87 0.930 . S
C94 N95 1.314 . S
C94 C96 1.353 . S
C94 H100 0.930 . S
N95 Li45 1.990 . S
N95 C94 1.314 . S
N95 C98 1.279 1_545 S
C96 C94 1.353 . S
C96 C99 1.348 . S
C96 H128 0.929 . S
C97 C98 1.358 . S
C97 C99 1.356 1_565 S
C97 H129 0.930 . S
C98 N95 1.279 1_565 S
C98 C97 1.358 . S
C98 H101 0.930 . S
C99 C96 1.348 . S
C99 C97 1.356 1_545 S
H100 C94 0.930 . S
H101 C98 0.930 . S
O102 Li42 1.956 . S
O102 Li43 1.970 1_545 S
O102 Li44 1.961 . S
O102 C46 1.325 . S
O103 Li42 1.970 1_655 S
O103 Li43 1.956 1_645 S
O103 Li45 1.961 . S
O103 C52 1.325 . S
O104 Li42 1.961 . S
O104 Li44 1.956 . S
O104 Li45 1.970 1_455 S
O104 C74 1.325 . S
O105 Li43 1.961 . S
O105 Li44 1.970 1_565 S
O105 Li45 1.956 1_465 S
O105 C80 1.325 . S
H106 C48 0.938 . S
H107 C49 0.930 . S
H108 C50 0.930 1_565 S
H109 C51 0.930 . S
H110 C53 0.930 . S
H111 C55 0.929 . S
H112 C56 0.930 . S
H113 C57 0.930 . S
H114 C60 0.930 . S
H115 C63 0.946 . S
H116 C68 0.929 . S
H117 C69 0.930 . S
H118 C76 0.938 . S
H119 C77 0.930 . S
H120 C78 0.930 1_655 S
H121 C79 0.930 . S
H122 C81 0.929 . S
H123 C82 0.930 . S
H124 C83 0.930 . S
H125 C84 0.930 . S
H126 C88 0.946 . S
H127 C90 0.930 . S
H128 C96 0.929 . S
H129 C97 0.930 . S
Li130 N147 1.990 . S
Li130 O190 1.956 1_655 S
Li130 O191 1.970 1_645 S
Li130 O192 1.961 . S
Li131 N155 1.990 . S
Li131 O190 1.970 . S
Li131 O191 1.956 1_545 S
Li131 O193 1.961 . S
Li132 N177 1.990 . S
Li132 O190 1.961 . S
Li132 O192 1.956 1_455 S
Li132 O193 1.970 . S
Li133 N183 1.990 . S
Li133 O191 1.961 . S
Li133 O192 1.970 1_465 S
Li133 O193 1.956 1_565 S
C134 C136 1.348 . S
C134 C137 1.356 1_455 S
C134 O190 1.325 . S
N135 C138 1.314 . S
N135 C139 1.279 1_455 S
C136 C134 1.348 . S
C136 C138 1.353 . S
C136 H194 0.929 . S
C137 C134 1.356 1_655 S
C137 C139 1.358 . S
C137 H195 0.930 . S
C138 N135 1.314 . S
C138 C136 1.353 . S
C138 H196 0.930 . S
C139 N135 1.279 1_655 S
C139 C137 1.358 . S
C139 H197 0.930 . S
C140 C143 1.348 1_455 S
C140 C144 1.356 . S
C140 O191 1.325 . S
C141 N142 1.279 . S
C141 C144 1.358 . S
C141 H198 0.930 . S
N142 C141 1.279 . S
N142 C145 1.320 . S
C143 C140 1.348 1_655 S
C143 C145 1.352 1_655 S
C143 H199 0.929 . S
C144 C140 1.356 . S
C144 C141 1.358 . S
C144 H200 0.930 . S
C145 N142 1.320 . S
C145 C143 1.352 1_455 S
C145 H201 0.924 1_455 S
C146 N147 1.328 . S
C146 C151 1.352 1_545 S
C146 H152 0.916 1_545 S
N147 Li130 1.990 . S
N147 C146 1.328 . S
N147 C149 1.279 . S
C148 C149 1.358 . S
C148 C150 1.356 . S
C148 H202 0.930 . S
C149 N147 1.279 . S
C149 C148 1.358 . S
C149 H153 0.930 . S
C150 C148 1.356 . S
C150 C151 1.348 1_545 S
C151 C146 1.352 1_565 S
C151 C150 1.348 1_565 S
C151 H203 0.929 . S
H152 C146 0.916 1_565 S
H153 C149 0.930 . S
C154 N155 1.314 . S
C154 C156 1.353 . S
C154 H160 0.930 . S
N155 Li131 1.990 . S
N155 C154 1.314 . S
N155 C158 1.279 1_545 S
C156 C154 1.353 . S
C156 C159 1.348 . S
C156 H204 0.929 . S
C157 C158 1.358 . S
C157 C159 1.356 1_565 S
C157 H205 0.930 . S
C158 N155 1.279 1_565 S
C158 C157 1.358 . S
C158 H161 0.930 . S
C159 C156 1.348 . S
C159 C157 1.356 1_545 S
H160 C154 0.930 . S
H161 C158 0.930 . S
C162 C164 1.348 1_545 S
C162 C165 1.356 . S
C162 O192 1.325 . S
N163 C166 1.320 . S
N163 C167 1.279 . S
C164 C162 1.348 1_565 S
C164 C166 1.352 1_565 S
C164 H206 0.929 . S
C165 C162 1.356 . S
C165 C167 1.358 . S
C165 H207 0.930 . S
C166 N163 1.320 . S
C166 C164 1.352 1_545 S
C166 H208 0.924 1_545 S
C167 N163 1.279 . S
C167 C165 1.358 . S
C167 H209 0.930 . S
C168 C169 1.348 . S
C168 C170 1.356 1_545 S
C168 O193 1.325 . S
C169 C168 1.348 . S
C169 C171 1.353 . S
C169 H210 0.929 . S
C170 C168 1.356 1_565 S
C170 C172 1.358 . S
C170 H211 0.930 . S
C171 C169 1.353 . S
C171 N173 1.314 . S
C171 H212 0.930 . S
C172 C170 1.358 . S
C172 N173 1.279 1_565 S
C172 H213 0.930 . S
N173 C171 1.314 . S
N173 C172 1.279 1_545 S
C174 C176 1.353 . S
C174 N177 1.314 . S
C174 H180 0.930 . S
C175 N177 1.279 1_655 S
C175 C178 1.358 . S
C175 H181 0.930 . S
C176 C174 1.353 . S
C176 C179 1.348 . S
C176 H214 0.929 . S
N177 Li132 1.990 . S
N177 C174 1.314 . S
N177 C175 1.279 1_455 S
C178 C175 1.358 . S
C178 C179 1.356 1_655 S
C178 H215 0.930 . S
C179 C176 1.348 . S
C179 C178 1.356 1_455 S
H180 C174 0.930 . S
H181 C175 0.930 . S
C182 N183 1.328 . S
C182 C184 1.352 1_455 S
C182 H188 0.916 1_455 S
N183 Li133 1.990 . S
N183 C182 1.328 . S
N183 C186 1.279 . S
C184 C182 1.352 1_655 S
C184 C187 1.348 1_655 S
C184 H216 0.929 . S
C185 C186 1.358 . S
C185 C187 1.356 . S
C185 H217 0.930 . S
C186 N183 1.279 . S
C186 C185 1.358 . S
C186 H189 0.930 . S
C187 C184 1.348 1_455 S
C187 C185 1.356 . S
H188 C182 0.916 1_655 S
H189 C186 0.930 . S
O190 Li130 1.956 1_455 S
O190 Li131 1.970 . S
O190 Li132 1.961 . S
O190 C134 1.325 . S
O191 Li130 1.970 1_465 S
O191 Li131 1.956 1_565 S
O191 Li133 1.961 . S
O191 C140 1.325 . S
O192 Li130 1.961 . S
O192 Li132 1.956 1_655 S
O192 Li133 1.970 1_645 S
O192 C162 1.325 . S
O193 Li131 1.961 . S
O193 Li132 1.970 . S
O193 Li133 1.956 1_545 S
O193 C168 1.325 . S
H194 C136 0.929 . S
H195 C137 0.930 . S
H196 C138 0.930 . S
H197 C139 0.930 . S
H198 C141 0.930 . S
H199 C143 0.929 . S
H200 C144 0.930 . S
H201 C145 0.924 1_655 S
H202 C148 0.930 . S
H203 C151 0.929 . S
H204 C156 0.929 . S
H205 C157 0.930 . S
H206 C164 0.929 . S
H207 C165 0.930 . S
H208 C166 0.924 1_565 S
H209 C167 0.930 . S
H210 C169 0.929 . S
H211 C170 0.930 . S
H212 C171 0.930 . S
H213 C172 0.930 . S
H214 C176 0.929 . S
H215 C178 0.930 . S
H216 C184 0.929 . S
H217 C185 0.930 . S
C218 C219 1.349 1_565 S
C218 C220 1.327 . S
C218 H243 0.950 . S
C219 C218 1.349 1_545 S
C219 C235 1.349 . S
C220 C218 1.327 . S
C220 C239 1.429 1_565 S
C220 H244 0.950 . S
C221 C238 1.574 . S
C221 C240 1.368 . S
C221 H245 0.949 . S
H222 C226 0.949 . S
C223 C224 1.349 . S
C223 C225 1.327 . S
C223 H246 0.950 . S
C224 C223 1.349 . S
C224 C236 1.349 1_545 S
C225 C223 1.327 . S
C225 C241 1.429 . S
C225 H247 0.950 . S
C226 H222 0.949 . S
C226 C234 1.574 . S
C226 C242 1.368 1_565 S
H227 C235 0.950 . S
H228 C233 0.950 . S
H229 C234 0.949 . S
H230 C236 0.950 . S
H231 C237 0.950 . S
H232 C238 0.949 . S
C233 H228 0.950 . S
C233 C235 1.327 . S
C233 C239 1.429 . S
C234 C226 1.574 . S
C234 H229 0.949 . S
C234 C240 1.368 1_565 S
C235 C219 1.349 . S
C235 H227 0.950 . S
C235 C233 1.327 . S
C236 C224 1.349 1_565 S
C236 H230 0.950 . S
C236 C237 1.327 . S
C237 H231 0.950 . S
C237 C236 1.327 . S
C237 C241 1.429 1_565 S
C238 C221 1.574 . S
C238 H232 0.949 . S
C238 C242 1.368 . S
C239 C220 1.429 1_545 S
C239 C233 1.429 . S
C239 C240 1.523 . S
C240 C221 1.368 . S
C240 C234 1.368 1_545 S
C240 C239 1.523 . S
C241 C225 1.429 . S
C241 C237 1.429 1_545 S
C241 C242 1.523 . S
C242 C226 1.368 1_545 S
C242 C238 1.368 . S
C242 C241 1.523 . S
H243 C218 0.950 . S
H244 C220 0.950 . S
H245 C221 0.949 . S
H246 C223 0.950 . S
H247 C225 0.950 . S
C248 C249 1.349 . S
C248 C250 1.327 . S
C248 H273 0.950 . S
C249 C248 1.349 . S
C249 C265 1.349 . S
C250 C248 1.327 . S
C250 C269 1.429 . S
C250 H274 0.950 . S
C251 C268 1.574 . S
C251 C270 1.368 . S
C251 H275 0.949 . S
H252 C256 0.949 . S
C253 C254 1.349 . S
C253 C255 1.327 . S
C253 H276 0.950 . S
C254 C253 1.349 . S
C254 C266 1.349 . S
C255 C253 1.327 . S
C255 C271 1.429 . S
C255 H277 0.950 . S
C256 H252 0.949 . S
C256 C264 1.574 . S
C256 C272 1.368 . S
H257 C265 0.950 . S
H258 C263 0.950 . S
H259 C264 0.949 . S
H260 C266 0.950 . S
H261 C267 0.950 . S
H262 C268 0.949 . S
C263 H258 0.950 . S
C263 C265 1.327 . S
C263 C269 1.429 . S
C264 C256 1.574 . S
C264 H259 0.949 . S
C264 C270 1.368 . S
C265 C249 1.349 . S
C265 H257 0.950 . S
C265 C263 1.327 . S
C266 C254 1.349 . S
C266 H260 0.950 . S
C266 C267 1.327 . S
C267 H261 0.950 . S
C267 C266 1.327 . S
C267 C271 1.429 . S
C268 C251 1.574 . S
C268 H262 0.949 . S
C268 C272 1.368 . S
C269 C250 1.429 . S
C269 C263 1.429 . S
C269 C270 1.523 . S
C270 C251 1.368 . S
C270 C264 1.368 . S
C270 C269 1.523 . S
C271 C255 1.429 . S
C271 C267 1.429 . S
C271 C272 1.523 . S
C272 C256 1.368 . S
C272 C268 1.368 . S
C272 C271 1.523 . S
H273 C248 0.950 . S
H274 C250 0.950 . S
H275 C251 0.949 . S
H276 C253 0.950 . S
H277 C255 0.950 . S
C278 C279 1.349 . S
C278 C280 1.327 . S
C278 H303 0.950 . S
C279 C278 1.349 . S
C279 C295 1.349 1_545 S
C280 C278 1.327 . S
C280 C299 1.429 . S
C280 H304 0.950 . S
C281 C298 1.574 . S
C281 C300 1.368 1_565 S
C281 H305 0.949 . S
H282 C286 0.949 . S
C283 C284 1.349 1_565 S
C283 C285 1.327 . S
C283 H306 0.950 . S
C284 C283 1.349 1_545 S
C284 C296 1.349 . S
C285 C283 1.327 . S
C285 C301 1.429 1_565 S
C285 H307 0.950 . S
C286 H282 0.949 . S
C286 C294 1.574 . S
C286 C302 1.368 . S
H287 C295 0.950 . S
H288 C293 0.950 . S
H289 C294 0.949 . S
H290 C296 0.950 . S
H291 C297 0.950 . S
H292 C298 0.949 . S
C293 H288 0.950 . S
C293 C295 1.327 . S
C293 C299 1.429 1_565 S
C294 C286 1.574 . S
C294 H289 0.949 . S
C294 C300 1.368 . S
C295 C279 1.349 1_565 S
C295 H287 0.950 . S
C295 C293 1.327 . S
C296 C284 1.349 . S
C296 H290 0.950 . S
C296 C297 1.327 . S
C297 H291 0.950 . S
C297 C296 1.327 . S
C297 C301 1.429 . S
C298 C281 1.574 . S
C298 H292 0.949 . S
C298 C302 1.368 1_565 S
C299 C280 1.429 . S
C299 C293 1.429 1_545 S
C299 C300 1.523 . S
C300 C281 1.368 1_545 S
C300 C294 1.368 . S
C300 C299 1.523 . S
C301 C285 1.429 1_545 S
C301 C297 1.429 . S
C301 C302 1.523 . S
C302 C286 1.368 . S
C302 C298 1.368 1_545 S
C302 C301 1.523 . S
H303 C278 0.950 . S
H304 C280 0.950 . S
H305 C281 0.949 . S
H306 C283 0.950 . S
H307 C285 0.950 . S
C308 C309 1.349 . S
C308 C310 1.327 . S
C308 H333 0.950 . S
C309 C308 1.349 . S
C309 C325 1.349 . S
C310 C308 1.327 . S
C310 C329 1.429 . S
C310 H334 0.950 . S
C311 C328 1.574 . S
C311 C330 1.368 . S
C311 H335 0.949 . S
H312 C316 0.949 . S
C313 C314 1.349 . S
C313 C315 1.327 . S
C313 H336 0.950 . S
C314 C313 1.349 . S
C314 C326 1.349 . S
C315 C313 1.327 . S
C315 C331 1.429 . S
C315 H337 0.950 . S
C316 H312 0.949 . S
C316 C324 1.574 . S
C316 C332 1.368 . S
H317 C325 0.950 . S
H318 C323 0.950 . S
H319 C324 0.949 . S
H320 C326 0.950 . S
H321 C327 0.950 . S
H322 C328 0.949 . S
C323 H318 0.950 . S
C323 C325 1.327 . S
C323 C329 1.429 . S
C324 C316 1.574 . S
C324 H319 0.949 . S
C324 C330 1.368 . S
C325 C309 1.349 . S
C325 H317 0.950 . S
C325 C323 1.327 . S
C326 C314 1.349 . S
C326 H320 0.950 . S
C326 C327 1.327 . S
C327 H321 0.950 . S
C327 C326 1.327 . S
C327 C331 1.429 . S
C328 C311 1.574 . S
C328 H322 0.949 . S
C328 C332 1.368 . S
C329 C310 1.429 . S
C329 C323 1.429 . S
C329 C330 1.523 . S
C330 C311 1.368 . S
C330 C324 1.368 . S
C330 C329 1.523 . S
C331 C315 1.429 . S
C331 C327 1.429 . S
C331 C332 1.523 . S
C332 C316 1.368 . S
C332 C328 1.368 . S
C332 C331 1.523 . S
H333 C308 0.950 . S
H334 C310 0.950 . S
H335 C311 0.949 . S
H336 C313 0.950 . S
H337 C315 0.950 . S
C338 C339 1.349 . S
C338 C340 1.327 . S
C338 H363 0.950 . S
C339 C338 1.349 . S
C339 C355 1.349 1_545 S
C340 C338 1.327 . S
C340 C359 1.429 . S
C340 H364 0.950 . S
C341 C358 1.574 . S
C341 C360 1.368 1_565 S
C341 H365 0.949 . S
H342 C346 0.949 . S
C343 C344 1.349 1_565 S
C343 C345 1.327 . S
C343 H366 0.950 . S
C344 C343 1.349 1_545 S
C344 C356 1.349 . S
C345 C343 1.327 . S
C345 C361 1.429 1_565 S
C345 H367 0.950 . S
C346 H342 0.949 . S
C346 C354 1.574 . S
C346 C362 1.368 . S
H347 C355 0.950 . S
H348 C353 0.950 . S
H349 C354 0.949 . S
H350 C356 0.950 . S
H351 C357 0.950 . S
H352 C358 0.949 . S
C353 H348 0.950 . S
C353 C355 1.327 . S
C353 C359 1.429 1_565 S
C354 C346 1.574 . S
C354 H349 0.949 . S
C354 C360 1.368 . S
C355 C339 1.349 1_565 S
C355 H347 0.950 . S
C355 C353 1.327 . S
C356 C344 1.349 . S
C356 H350 0.950 . S
C356 C357 1.327 . S
C357 H351 0.950 . S
C357 C356 1.327 . S
C357 C361 1.429 . S
C358 C341 1.574 . S
C358 H352 0.949 . S
C358 C362 1.368 1_565 S
C359 C340 1.429 . S
C359 C353 1.429 1_545 S
C359 C360 1.523 . S
C360 C341 1.368 1_545 S
C360 C354 1.368 . S
C360 C359 1.523 . S
C361 C345 1.429 1_545 S
C361 C357 1.429 . S
C361 C362 1.523 . S
C362 C346 1.368 . S
C362 C358 1.368 1_545 S
C362 C361 1.523 . S
H363 C338 0.950 . S
H364 C340 0.950 . S
H365 C341 0.949 . S
H366 C343 0.950 . S
H367 C345 0.950 . S
C368 C369 1.349 . S
C368 C370 1.327 . S
C368 H393 0.950 . S
C369 C368 1.349 . S
C369 C385 1.349 1_455 S
C370 C368 1.327 . S
C370 C389 1.429 . S
C370 H394 0.950 . S
C371 C388 1.574 . S
C371 C390 1.368 1_655 S
C371 H395 0.949 . S
H372 C376 0.949 . S
C373 C374 1.349 1_655 S
C373 C375 1.327 . S
C373 H396 0.950 . S
C374 C373 1.349 1_455 S
C374 C386 1.349 . S
C375 C373 1.327 . S
C375 C391 1.429 1_655 S
C375 H397 0.950 . S
C376 H372 0.949 . S
C376 C384 1.574 . S
C376 C392 1.368 . S
H377 C385 0.950 . S
H378 C383 0.950 . S
H379 C384 0.949 . S
H380 C386 0.950 . S
H381 C387 0.950 . S
H382 C388 0.949 . S
C383 H378 0.950 . S
C383 C385 1.327 . S
C383 C389 1.429 1_655 S
C384 C376 1.574 . S
C384 H379 0.949 . S
C384 C390 1.368 . S
C385 C369 1.349 1_655 S
C385 H377 0.950 . S
C385 C383 1.327 . S
C386 C374 1.349 . S
C386 H380 0.950 . S
C386 C387 1.327 . S
C387 H381 0.950 . S
C387 C386 1.327 . S
C387 C391 1.429 . S
C388 C371 1.574 . S
C388 H382 0.949 . S
C388 C392 1.368 1_655 S
C389 C370 1.429 . S
C389 C383 1.429 1_455 S
C389 C390 1.523 . S
C390 C371 1.368 1_455 S
C390 C384 1.368 . S
C390 C389 1.523 . S
C391 C375 1.429 1_455 S
C391 C387 1.429 . S
C391 C392 1.523 . S
C392 C376 1.368 . S
C392 C388 1.368 1_455 S
C392 C391 1.523 . S
H393 C368 0.950 . S
H394 C370 0.950 . S
H395 C371 0.949 . S
H396 C373 0.950 . S
H397 C375 0.950 . S
C398 C399 1.349 1_565 S
C398 C400 1.327 . S
C398 H423 0.950 . S
C399 C398 1.349 1_545 S
C399 C415 1.349 . S
C400 C398 1.327 . S
C400 C419 1.429 1_565 S
C400 H424 0.950 . S
C401 C418 1.574 . S
C401 C420 1.368 . S
C401 H425 0.949 . S
H402 C406 0.949 . S
C403 C404 1.349 . S
C403 C405 1.327 . S
C403 H426 0.950 . S
C404 C403 1.349 . S
C404 C416 1.349 1_545 S
C405 C403 1.327 . S
C405 C421 1.429 . S
C405 H427 0.950 . S
C406 H402 0.949 . S
C406 C414 1.574 . S
C406 C422 1.368 1_565 S
H407 C415 0.950 . S
H408 C413 0.950 . S
H409 C414 0.949 . S
H410 C416 0.950 . S
H411 C417 0.950 . S
H412 C418 0.949 . S
C413 H408 0.950 . S
C413 C415 1.327 . S
C413 C419 1.429 . S
C414 C406 1.574 . S
C414 H409 0.949 . S
C414 C420 1.368 1_565 S
C415 C399 1.349 . S
C415 H407 0.950 . S
C415 C413 1.327 . S
C416 C404 1.349 1_565 S
C416 H410 0.950 . S
C416 C417 1.327 . S
C417 H411 0.950 . S
C417 C416 1.327 . S
C417 C421 1.429 1_565 S
C418 C401 1.574 . S
C418 H412 0.949 . S
C418 C422 1.368 . S
C419 C400 1.429 1_545 S
C419 C413 1.429 . S
C419 C420 1.523 . S
C420 C401 1.368 . S
C420 C414 1.368 1_545 S
C420 C419 1.523 . S
C421 C405 1.429 . S
C421 C417 1.429 1_545 S
C421 C422 1.523 . S
C422 C406 1.368 1_545 S
C422 C418 1.368 . S
C422 C421 1.523 . S
H423 C398 0.950 . S
H424 C400 0.950 . S
H425 C401 0.949 . S
H426 C403 0.950 . S
H427 C405 0.950 . S
C428 C429 1.349 . S
C428 C430 1.327 . S
C428 H453 0.950 . S
C429 C428 1.349 . S
C429 C445 1.349 . S
C430 C428 1.327 . S
C430 C449 1.429 . S
C430 H454 0.950 . S
C431 C448 1.574 . S
C431 C450 1.368 . S
C431 H455 0.949 1_455 S
H432 C436 0.949 . S
C433 C434 1.349 . S
C433 C435 1.327 . S
C433 H456 0.950 1_455 S
C434 C433 1.349 . S
C434 C446 1.349 . S
C435 C433 1.327 . S
C435 C451 1.429 . S
C435 H457 0.950 1_455 S
C436 H432 0.949 . S
C436 C444 1.574 . S
C436 C452 1.368 . S
H437 C445 0.950 1_655 S
H438 C443 0.950 1_655 S
H439 C444 0.949 . S
H440 C446 0.950 . S
H441 C447 0.950 . S
H442 C448 0.949 1_655 S
C443 H438 0.950 1_455 S
C443 C445 1.327 . S
C443 C449 1.429 . S
C444 C436 1.574 . S
C444 H439 0.949 . S
C444 C450 1.368 . S
C445 C429 1.349 . S
C445 H437 0.950 1_455 S
C445 C443 1.327 . S
C446 C434 1.349 . S
C446 H440 0.950 . S
C446 C447 1.327 . S
C447 H441 0.950 . S
C447 C446 1.327 . S
C447 C451 1.429 . S
C448 C431 1.574 . S
C448 H442 0.949 1_455 S
C448 C452 1.368 . S
C449 C430 1.429 . S
C449 C443 1.429 . S
C449 C450 1.523 . S
C450 C431 1.368 . S
C450 C444 1.368 . S
C450 C449 1.523 . S
C451 C435 1.429 . S
C451 C447 1.429 . S
C451 C452 1.523 . S
C452 C436 1.368 . S
C452 C448 1.368 . S
C452 C451 1.523 . S
H453 C428 0.950 . S
H454 C430 0.950 . S
H455 C431 0.949 1_655 S
H456 C433 0.950 1_655 S
H457 C435 0.950 1_655 S
C224 C91 1.571 . S
C219 C17 1.475 . S
C254 C179 1.559 . S
C249 C40 1.490 . S
C284 C99 1.573 . S
C279 C9 1.492 . S
C314 C187 1.563 . S
C309 C33 1.460 . S
C344 C159 1.559 . S
C339 C19 1.490 . S
C374 C62 1.570 . S
C369 C38 1.475 . S
C404 C150 1.563 . S
C399 C12 1.460 . S
C429 C30 1.491 . S
C434 C71 1.573 . S
