# Generated by pormake.
# Topology anh, (6,3)-cn, num edge types: 1
# Building blocks:
#     Node 0, Type 0, BuildingBlock: VOLQOD_clean_sbu_1, # of connection points: 6
#     Node 1, Type 0, BuildingBlock: VOLQOD_clean_sbu_1, # of connection points: 6
#     Node 2, Type 0, BuildingBlock: VOLQOD_clean_sbu_1, # of connection points: 6
#     Node 3, Type 1, BuildingBlock: MIDCAF_clean_linker_0, # of connection points: 3
#     Node 4, Type 1, BuildingBlock: MIDCAF_clean_linker_0, # of connection points: 3
#     Node 5, Type 1, BuildingBlock: MIDCAF_clean_linker_0, # of connection points: 3
#     Node 6, Type 1, BuildingBlock: MIDCAF_clean_linker_0, # of connection points: 3
#     Node 7, Type 1, BuildingBlock: MIDCAF_clean_linker_0, # of connection points: 3
#     Node 8, Type 1, BuildingBlock: MIDCAF_clean_linker_0, # of connection points: 3
#     Edge 9, Type (0, 1), BuildingBlock: CIFDUS_clean_linker_0, # of connection points: 2
#     Edge 10, Type (0, 1), BuildingBlock: CIFDUS_clean_linker_0, # of connection points: 2
#     Edge 11, Type (0, 1), BuildingBlock: CIFDUS_clean_linker_0, # of connection points: 2
#     Edge 12, Type (0, 1), BuildingBlock: CIFDUS_clean_linker_0, # of connection points: 2
#     Edge 13, Type (0, 1), BuildingBlock: CIFDUS_clean_linker_0, # of connection points: 2
#     Edge 14, Type (0, 1), BuildingBlock: CIFDUS_clean_linker_0, # of connection points: 2
#     Edge 15, Type (0, 1), BuildingBlock: CIFDUS_clean_linker_0, # of connection points: 2
#     Edge 16, Type (0, 1), BuildingBlock: CIFDUS_clean_linker_0, # of connection points: 2
#     Edge 17, Type (0, 1), BuildingBlock: CIFDUS_clean_linker_0, # of connection points: 2
#     Edge 18, Type (0, 1), BuildingBlock: CIFDUS_clean_linker_0, # of connection points: 2
#     Edge 19, Type (0, 1), BuildingBlock: CIFDUS_clean_linker_0, # of connection points: 2
#     Edge 20, Type (0, 1), BuildingBlock: CIFDUS_clean_linker_0, # of connection points: 2
#     Edge 21, Type (0, 1), BuildingBlock: CIFDUS_clean_linker_0, # of connection points: 2
#     Edge 22, Type (0, 1), BuildingBlock: CIFDUS_clean_linker_0, # of connection points: 2
#     Edge 23, Type (0, 1), BuildingBlock: CIFDUS_clean_linker_0, # of connection points: 2
#     Edge 24, Type (0, 1), BuildingBlock: CIFDUS_clean_linker_0, # of connection points: 2
#     Edge 25, Type (0, 1), BuildingBlock: CIFDUS_clean_linker_0, # of connection points: 2
#     Edge 26, Type (0, 1), BuildingBlock: CIFDUS_clean_linker_0, # of connection points: 2
# Relax obj value: 0.167
# Max RMSD: 0.230
# Mean RMSD: 0.115
data_MOF--net-anh--node1-VOLQOD_clean_sbu_1--node2-MIDCAF_clean_linker_0--edge1-CIFDUS_clean_linker_0
_symmetry_space_group_name_H-M    P1
_symmetry_Int_Tables_number       1
_symmetry_cell_setting            triclinic
loop_
_symmetry_equiv_pos_as_xyz
'x, y, z'
_cell_length_a     31.107734
_cell_length_b     31.215672
_cell_length_c     66.982463
_cell_angle_alpha  89.862405
_cell_angle_beta   89.924814
_cell_angle_gamma 120.07587
loop_
_atom_site_label
_atom_site_type_symbol
_atom_site_fract_x
_atom_site_fract_y
_atom_site_fract_z
_atom_type_partial_charge
O0 O 0.98139 0.54255 0.21492 0.0
Zn1 Zn 0.98072 0.56258 0.18638 0.0
O2 O -0.00084 0.52519 0.16853 0.0
Zn3 Zn 0.94412 0.48129 0.15163 0.0
Zn4 Zn 0.01838 0.4858 0.18452 0.0
Zn5 Zn 0.05394 0.5701 0.15168 0.0
O6 O 0.95891 0.49837 0.12233 0.0
O7 O 0.0319 0.5678 0.12341 0.0
O8 O 0.91228 0.55136 0.18013 0.0
O9 O 0.88642 0.48949 0.15838 0.0
O10 O 0.92058 0.40941 0.15709 0.0
O11 O 0.96503 0.41429 0.18375 0.0
O12 O 0.08062 0.49035 0.17389 0.0
O13 O 0.03197 0.63518 0.18527 0.0
O14 O 0.10568 0.54963 0.15094 0.0
O15 O 0.08467 0.63972 0.16177 0.0
C16 C 0.00519 0.52419 0.22338 0.0
C17 C -0.00557 0.53581 0.11365 0.0
C18 C 0.93016 0.38889 0.17151 0.0
C19 C 0.87858 0.51833 0.16919 0.0
C20 C 0.11125 0.51732 0.16042 0.0
C21 C 0.07152 0.66004 0.17504 0.0
O22 O 0.02677 0.50579 0.21334 0.0
O23 O 0.47138 0.00893 0.44596 0.0
Zn24 Zn 0.46261 0.00794 0.47587 0.0
O25 O 0.51344 -0.00131 0.48946 0.0
Zn26 Zn 0.55474 0.05432 0.50647 0.0
Zn27 Zn 0.55647 0.99225 0.46981 0.0
Zn28 Zn 0.48097 0.94064 0.50645 0.0
O29 O 0.5518 0.03604 0.53535 0.0
O30 O 0.49508 0.95639 0.53575 0.0
O31 O 0.46577 0.07142 0.48454 0.0
O32 O 0.52969 0.10108 0.50537 0.0
O33 O 0.62552 0.09166 0.49748 0.0
O34 O 0.62588 0.05093 0.47048 0.0
O35 O 0.56051 0.93062 0.47477 0.0
O36 O 0.39351 0.95149 0.48201 0.0
O37 O 0.50417 0.89418 0.49891 0.0
O38 O 0.40752 0.90481 0.50298 0.0
C39 C 0.49875 -0.00046 0.43474 0.0
C40 C 0.52499 -0.00402 0.54488 0.0
C41 C 0.64809 0.08682 0.48259 0.0
C42 C 0.49532 0.10452 0.49662 0.0
C43 C 0.53563 0.89459 0.48665 0.0
C44 C 0.37771 0.91316 0.49303 0.0
O45 O 0.53114 0.99037 0.44202 0.0
O46 O 0.44867 0.45373 0.78922 0.0
Zn47 Zn 0.43437 0.4281 0.81723 0.0
O48 O 0.49156 0.4703 0.83414 0.0
Zn49 Zn 0.47187 0.50089 0.85461 0.0
Zn50 Zn 0.54546 0.52243 0.81828 0.0
Zn51 Zn 0.51474 0.43001 0.84709 0.0
O52 O 0.48739 0.48724 0.88209 0.0
O53 O 0.50685 0.42877 0.87699 0.0
O54 O 0.37147 0.42679 0.82649 0.0
O55 O 0.39865 0.47277 0.85388 0.0
O56 O 0.50161 0.57418 0.84994 0.0
O57 O 0.55339 0.58885 0.82469 0.0
O58 O 0.61103 0.52486 0.82303 0.0
O59 O 0.42297 0.3582 0.81583 0.0
O60 O 0.58691 0.45737 0.84156 0.0
O61 O 0.47977 0.36088 0.83658 0.0
C62 C 0.4874 0.48547 0.7799 0.0
C63 C 0.49813 0.45552 0.88875 0.0
C64 C 0.53326 0.60383 0.83732 0.0
C65 C 0.36376 0.44564 0.84197 0.0
C66 C 0.62055 0.4949 0.83231 0.0
C67 C 0.44462 0.33746 0.82423 0.0
O68 O 0.52827 0.51247 0.78897 0.0
C69 C 0.32224 0.93794 0.21191 0.0
C70 C 0.31765 0.91287 0.19388 0.0
C71 C 0.36128 0.9206 0.18423 0.0
C72 C 0.40777 0.95051 0.19283 0.0
H73 H 0.56138 0.09484 0.18628 0.0
H74 H 0.63962 0.15054 0.16996 0.0
H75 H 0.71651 0.10644 0.21173 0.0
H76 H 0.6382 0.0533 0.22885 0.0
H77 H 0.58896 0.05092 0.2752 0.0
H78 H 0.5923 0.04458 0.31128 0.0
H79 H 0.43198 0.96413 0.31399 0.0
H80 H 0.42835 0.97113 0.27789 0.0
H81 H 0.3709 0.98397 0.23506 0.0
H82 H 0.28985 0.93425 0.21954 0.0
H83 H 0.35968 0.9015 0.17055 0.0
H84 H 0.44036 0.9541 0.18539 0.0
N85 N 0.50283 0.02162 0.21111 0.0
N86 N 0.54896 0.0388 0.24065 0.0
N87 N 0.46195 -0.00499 0.24198 0.0
C88 C 0.54743 0.0423 0.22048 0.0
C89 C 0.50635 0.01531 0.25153 0.0
C90 C 0.45998 -0.00214 0.22179 0.0
C91 C 0.5939 0.07043 0.209 0.0
C92 C 0.59497 0.09667 0.1918 0.0
C93 C 0.64 0.12835 0.18233 0.0
C94 C 0.6849 0.13367 0.18958 0.0
C95 C 0.68307 0.10456 0.20602 0.0
C96 C 0.63816 0.07384 0.21579 0.0
C97 C 0.50836 0.01154 0.27355 0.0
C98 C 0.55432 0.03189 0.28342 0.0
C99 C 0.5563 0.02802 0.30414 0.0
C100 C 0.51241 0.00373 0.31549 0.0
C101 C 0.46646 0.98353 0.30568 0.0
C102 C 0.46444 0.98735 0.28495 0.0
C103 C 0.41171 0.97242 0.21149 0.0
C104 C 0.36871 0.96676 0.22078 0.0
C105 C 0.48646 0.33597 0.56756 0.0
C106 C 0.48559 0.32956 0.54681 0.0
C107 C 0.4817 0.36325 0.53415 0.0
C108 C 0.48213 0.40472 0.54209 0.0
H109 H 0.47791 0.52945 0.52763 0.0
H110 H 0.48258 0.59256 0.50485 0.0
H111 H 0.55876 0.70421 0.54982 0.0
H112 H 0.55393 0.64106 0.57288 0.0
H113 H 0.5379 0.59785 0.62018 0.0
H114 H 0.54197 0.60665 0.65664 0.0
H115 H 0.49359 0.45129 0.6629 0.0
H116 H 0.48917 0.44211 0.62702 0.0
H117 H 0.48925 0.38197 0.59157 0.0
H118 H 0.48873 0.30991 0.5776 0.0
H119 H 0.48105 0.35897 0.51809 0.0
H120 H 0.48119 0.43123 0.53191 0.0
N121 N 0.49967 0.49681 0.55874 0.0
N122 N 0.51483 0.5492 0.58615 0.0
N123 N 0.49873 0.46806 0.59101 0.0
C124 C 0.51004 0.54138 0.56608 0.0
C125 C 0.50895 0.51233 0.59872 0.0
C126 C 0.49403 0.46 0.57108 0.0
C127 C 0.51522 0.58029 0.55214 0.0
C128 C 0.49617 0.56751 0.53266 0.0
C129 C 0.49883 0.60348 0.51958 0.0
C130 C 0.52123 0.65295 0.52562 0.0
C131 C 0.54186 0.66621 0.5448 0.0
C132 C 0.53859 0.63007 0.55803 0.0
C133 C 0.51291 0.51923 0.62063 0.0
C134 C 0.52815 0.56563 0.62936 0.0
C135 C 0.53072 0.57079 0.65018 0.0
C136 C 0.51755 0.52952 0.6625 0.0
C137 C 0.50313 0.48353 0.65374 0.0
C138 C 0.50088 0.47843 0.63311 0.0
C139 C 0.48629 0.41291 0.56283 0.0
C140 C 0.48668 0.37721 0.57552 0.0
C141 C 0.91041 0.6076 0.88305 0.0
C142 C 0.89569 0.58169 0.86494 0.0
C143 C 0.92026 0.55705 0.85815 0.0
C144 C 0.95757 0.55673 0.86964 0.0
H145 H 0.05461 0.49839 0.87276 0.0
H146 H 0.10429 0.46161 0.86215 0.0
H147 H 0.20303 0.53115 0.91204 0.0
H148 H 0.15287 0.56603 0.92291 0.0
H149 H 0.1137 0.60016 0.96006 0.0
H150 H 0.11085 0.60519 0.99626 0.0
H151 H 0.96417 0.58725 0.99254 0.0
H152 H 0.96686 0.58226 0.95614 0.0
H153 H 0.95671 0.62602 0.90882 0.0
H154 H 0.89173 0.62647 0.88875 0.0
H155 H 0.9097 0.53695 0.84418 0.0
H156 H 0.97486 0.53627 0.86424 0.0
N157 N 0.0359 0.55916 0.89411 0.0
N158 N 0.07 0.56589 0.92592 0.0
N159 N 0.0084 0.58702 0.92118 0.0
C160 C 0.06807 0.55429 0.90631 0.0
C161 C 0.04023 0.58202 0.9335 0.0
C162 C 0.00636 0.57612 0.90143 0.0
C163 C 0.09956 0.53475 0.89878 0.0
C164 C 0.08706 0.50584 0.88138 0.0
C165 C 0.11551 0.48479 0.8753 0.0
C166 C 0.15717 0.49264 0.88643 0.0
C167 C 0.17031 0.5229 0.90344 0.0
C168 C 0.14173 0.54334 0.90961 0.0
C169 C 0.04038 0.59053 0.95522 0.0
C170 C 0.081 0.59781 0.9669 0.0
C171 C 0.07954 0.60099 0.98763 0.0
C172 C 0.03722 0.59644 0.99718 0.0
C173 C -0.00291 0.59052 0.98552 0.0
C174 C -0.00119 0.588 0.96471 0.0
C175 C 0.97056 0.58055 0.88827 0.0
C176 C 0.94729 0.60687 0.89464 0.0
C177 C 0.09545 0.71304 0.44187 0.0
C178 C 0.10411 0.71629 0.46254 0.0
C179 C 0.07616 0.67394 0.47444 0.0
C180 C 0.04326 0.62851 0.46566 0.0
H181 H 0.91275 0.46856 0.47129 0.0
H182 H 0.86339 0.38787 0.48715 0.0
H183 H 0.92009 0.32428 0.44451 0.0
H184 H 0.96645 0.40432 0.42795 0.0
H185 H 0.91469 0.45528 0.3822 0.0
H186 H 0.91032 0.45279 0.34568 0.0
H187 H 0.04618 0.5937 0.34258 0.0
H188 H 0.05019 0.59704 0.37906 0.0
H189 H 0.05864 0.66656 0.41704 0.0
H190 H 0.11659 0.74465 0.43218 0.0
H191 H 0.08131 0.67543 0.49046 0.0
H192 H 0.02405 0.59615 0.47515 0.0
N193 N 0.98788 0.53321 0.44595 0.0
N194 N 0.96393 0.48653 0.41642 0.0
N195 N 0.0077 0.57305 0.41477 0.0
C196 C 0.96548 0.48855 0.43666 0.0
C197 C 0.9848 0.52868 0.4054 0.0
C198 C 0.0093 0.57575 0.43501 0.0
C199 C 0.94245 0.44219 0.44823 0.0
C200 C 0.91501 0.43733 0.46555 0.0
C201 C 0.88705 0.39107 0.47471 0.0
C202 C 0.88696 0.34909 0.46694 0.0
C203 C 0.91789 0.35527 0.45054 0.0
C204 C 0.9447 0.40116 0.4411 0.0
C205 C 0.98273 0.52641 0.38343 0.0
C206 C 0.94366 0.48565 0.37372 0.0
C207 C 0.94099 0.48427 0.3529 0.0
C208 C 0.97792 0.52305 0.34151 0.0
C209 C 0.01741 0.56336 0.35116 0.0
C210 C 0.01953 0.5653 0.37196 0.0
C211 C 0.03753 0.62464 0.44481 0.0
C212 C 0.06247 0.66785 0.43313 0.0
C213 C 0.45918 0.10116 0.76817 0.0
C214 C 0.45737 0.10097 0.78915 0.0
C215 C 0.46261 0.0648 0.79965 0.0
C216 C 0.47109 0.0307 0.78946 0.0
H217 H 0.51835 0.92952 0.79888 0.0
H218 H 0.54226 0.87626 0.8167 0.0
H219 H 0.56292 0.82175 0.76037 0.0
H220 H 0.5402 0.8751 0.74264 0.0
H221 H 0.50106 0.89632 0.70357 0.0
H222 H 0.50078 0.89345 0.66726 0.0
H223 H 0.48747 0.02453 0.66475 0.0
H224 H 0.48796 0.02781 0.70118 0.0
H225 H 0.46965 0.06895 0.74182 0.0
H226 H 0.45602 0.12892 0.7596 0.0
H227 H 0.46067 0.06314 0.8158 0.0
H228 H 0.47564 0.00385 0.79808 0.0
N229 N 0.49976 0.96854 0.76801 0.0
N230 N 0.50958 0.9361 0.73797 0.0
N231 N 0.48459 -0.00455 0.73743 0.0
C232 C 0.51168 0.93782 0.75821 0.0
C233 C 0.49609 0.96465 0.72746 0.0
C234 C 0.48611 -0.00254 0.75772 0.0
C235 C 0.52713 0.90658 0.7693 0.0
C236 C 0.52832 0.9064 0.7903 0.0
C237 C 0.54192 0.87583 0.80053 0.0
C238 C 0.55481 0.84499 0.78996 0.0
C239 C 0.5542 0.84575 0.76899 0.0
C240 C 0.54062 0.87611 0.75881 0.0
C241 C 0.49464 0.9624 0.70534 0.0
C242 C 0.49803 0.9246 0.69534 0.0
C243 C 0.49757 0.9227 0.67451 0.0
C244 C 0.49415 0.95876 0.66319 0.0
C245 C 0.4906 -0.00351 0.67312 0.0
C246 C 0.49059 -0.00183 0.69399 0.0
C247 C 0.4743 0.03179 0.7685 0.0
C248 C 0.46742 0.06692 0.75797 0.0
C249 C 0.61259 0.45474 0.11775 0.0
C250 C 0.60618 0.43499 0.13707 0.0
C251 C 0.55808 0.40524 0.14472 0.0
C252 C 0.51684 0.39597 0.13323 0.0
H253 H 0.3801 0.39068 0.14005 0.0
H254 H 0.31751 0.404 0.15631 0.0
H255 H 0.25939 0.41119 0.09871 0.0
H256 H 0.32156 0.39804 0.08233 0.0
H257 H 0.37855 0.40692 0.04416 0.0
H258 H 0.3887 0.42269 0.00843 0.0
H259 H 0.53329 0.43525 0.01088 0.0
H260 H 0.52321 0.41893 0.0467 0.0
H261 H 0.57759 0.46041 0.09126 0.0
H262 H 0.64946 0.47721 0.11149 0.0
H263 H 0.5525 0.38942 0.15956 0.0
H264 H 0.48001 0.37321 0.13947 0.0
N265 N 0.438 0.39941 0.1108 0.0
N266 N 0.40342 0.39841 0.07965 0.0
N267 N 0.48365 0.4099 0.08149 0.0
C268 C 0.39943 0.39528 0.09986 0.0
C269 C 0.4452 0.40535 0.07033 0.0
C270 C 0.48012 0.40664 0.10171 0.0
C271 C 0.35651 0.39423 0.10985 0.0
C272 C 0.35348 0.39424 0.13083 0.0
C273 C 0.31759 0.40169 0.14018 0.0
C274 C 0.28442 0.40947 0.12871 0.0
C275 C 0.28527 0.40615 0.10784 0.0
C276 C 0.3208 0.39841 0.0985 0.0
C277 C 0.45018 0.41187 0.04838 0.0
C278 C 0.41245 0.41272 0.03714 0.0
C279 C 0.41835 0.42209 0.01666 0.0
C280 C 0.46195 0.43062 0.00692 0.0
C281 C 0.49917 0.42855 0.018 0.0
C282 C 0.49341 0.41938 0.03853 0.0
C283 C 0.52326 0.41531 0.11378 0.0
C284 C 0.5715 0.44463 0.10613 0.0
H285 H 0.12924 0.44611 0.17474 0.0
H286 H 0.18298 0.56653 0.13219 0.0
H287 H 0.24228 0.54425 0.11917 0.0
H288 H 0.27523 0.48777 0.11843 0.0
H289 H 0.2218 0.36698 0.16052 0.0
H290 H 0.16591 0.39241 0.1753 0.0
C291 C 0.15426 0.46787 0.16277 0.0
C292 C 0.15129 0.50767 0.15435 0.0
C293 C 0.18791 0.45453 0.15517 0.0
C294 C 0.18421 0.53556 0.1389 0.0
C295 C 0.21806 0.52277 0.13138 0.0
C296 C 0.25113 0.46693 0.13079 0.0
C297 C 0.25177 0.42517 0.13821 0.0
C298 C 0.21945 0.48176 0.13912 0.0
C299 C 0.22154 0.39913 0.15455 0.0
C300 C 0.18967 0.41362 0.16294 0.0
H301 H 0.71223 0.15962 0.50742 0.0
H302 H 0.69802 0.10476 0.44724 0.0
H303 H 0.77439 0.17962 0.43768 0.0
H304 H 0.83732 0.26465 0.44514 0.0
H305 H 0.85389 0.31957 0.50544 0.0
H306 H 0.78369 0.24052 0.51613 0.0
C307 C 0.72628 0.16368 0.49229 0.0
C308 C 0.69898 0.12706 0.47798 0.0
C309 C 0.76999 0.20706 0.48682 0.0
C310 C 0.71811 0.13247 0.45854 0.0
C311 C 0.76164 0.17543 0.45301 0.0
C312 C 0.82692 0.25916 0.46078 0.0
C313 C 0.85061 0.29861 0.47436 0.0
C314 C 0.78685 0.21361 0.46686 0.0
C315 C 0.83562 0.29045 0.49451 0.0
C316 C 0.79562 0.24513 0.50067 0.0
H317 H 0.60184 0.67865 0.81417 0.0
H318 H 0.48131 0.64269 0.85529 0.0
H319 H 0.48156 0.71837 0.84592 0.0
H320 H 0.50727 0.78755 0.82236 0.0
H321 H 0.62726 0.82288 0.78107 0.0
H322 H 0.63573 0.75452 0.79418 0.0
C323 C 0.57621 0.68776 0.82138 0.0
C324 C 0.54102 0.65449 0.83514 0.0
C325 C 0.57585 0.73083 0.81564 0.0
C326 C 0.50861 0.66736 0.84454 0.0
C327 C 0.50848 0.71054 0.83909 0.0
C328 C 0.53616 0.78116 0.81659 0.0
C329 C 0.5659 0.80968 0.80048 0.0
C330 C 0.54063 0.74151 0.8241 0.0
C331 C 0.60304 0.8007 0.79314 0.0
C332 C 0.60805 0.76172 0.80067 0.0
H333 H 0.79214 0.43305 0.17053 0.0
H334 H 0.85465 0.59098 0.16584 0.0
H335 H 0.7726 0.57918 0.15748 0.0
H336 H 0.68602 0.52287 0.14696 0.0
H337 H 0.62416 0.36506 0.15222 0.0
H338 H 0.70304 0.37762 0.16527 0.0
C339 C 0.78742 0.46483 0.16805 0.0
C340 C 0.82893 0.51269 0.16845 0.0
C341 C 0.74055 0.45766 0.16326 0.0
C342 C 0.82286 0.55384 0.16556 0.0
C343 C 0.77617 0.54704 0.16065 0.0
C344 C 0.68979 0.49145 0.15137 0.0
C345 C 0.65001 0.44317 0.14849 0.0
C346 C 0.73519 0.49903 0.15877 0.0
C347 C 0.65456 0.40249 0.15438 0.0
C348 C 0.69962 0.40966 0.16169 0.0
H349 H 0.30159 0.91776 0.47482 0.0
H350 H 0.33357 0.82305 0.51146 0.0
H351 H 0.24867 0.75561 0.50758 0.0
H352 H 0.16977 0.72024 0.49002 0.0
H353 H 0.13631 0.81371 0.45339 0.0
H354 H 0.21743 0.88501 0.46117 0.0
C355 C 0.28981 0.8826 0.48218 0.0
C356 C 0.32429 0.87529 0.49306 0.0
C357 C 0.24084 0.84358 0.47977 0.0
C358 C 0.30812 0.82967 0.50277 0.0
C359 C 0.25949 0.79094 0.50056 0.0
C360 C 0.17932 0.75643 0.48424 0.0
C361 C 0.14723 0.76138 0.47089 0.0
C362 C 0.22608 0.79701 0.48857 0.0
C363 C 0.16076 0.80865 0.46339 0.0
C364 C 0.20714 0.84944 0.46782 0.0
H365 H 0.48459 0.28387 0.83871 0.0
H366 H 0.37942 0.27839 0.79531 0.0
H367 H 0.37088 0.20199 0.78163 0.0
H368 H 0.39917 0.14108 0.78008 0.0
H369 H 0.50783 0.15033 0.82254 0.0
H370 H 0.50839 0.22042 0.83864 0.0
C371 C 0.45926 0.26576 0.82641 0.0
C372 C 0.43312 0.28728 0.81794 0.0
C373 C 0.45533 0.22254 0.81836 0.0
C374 C 0.40019 0.26287 0.8021 0.0
C375 C 0.39546 0.21926 0.79419 0.0
C376 C 0.4229 0.15839 0.79288 0.0
C377 C 0.45359 0.1405 0.79999 0.0
C378 C 0.42389 0.19953 0.80186 0.0
C379 C 0.4834 0.16282 0.81684 0.0
C380 C 0.48407 0.20324 0.82599 0.0
H381 H 0.46614 0.79908 0.48548 0.0
H382 H 0.62405 0.89735 0.49024 0.0
H383 H 0.63494 0.8281 0.50089 0.0
H384 H 0.59694 0.7426 0.51401 0.0
H385 H 0.43866 0.64533 0.509 0.0
H386 H 0.43025 0.711 0.49295 0.0
C387 C 0.50302 0.80483 0.4883 0.0
C388 C 0.54421 0.8527 0.48736 0.0
C389 C 0.50869 0.76527 0.4946 0.0
C390 C 0.59198 0.86039 0.49087 0.0
C391 C 0.59807 0.82101 0.49714 0.0
C392 C 0.56089 0.7358 0.50902 0.0
C393 C 0.51838 0.68981 0.51284 0.0
C394 C 0.55636 0.77378 0.49989 0.0
C395 C 0.4718 0.68067 0.50616 0.0
C396 C 0.46695 0.71818 0.4971 0.0
H397 H 0.70555 0.58414 0.83444 0.0
H398 H 0.65002 0.4268 0.83364 0.0
H399 H 0.73283 0.44074 0.84106 0.0
H400 H 0.81798 0.49651 0.85183 0.0
H401 H 0.87294 0.65341 0.85539 0.0
H402 H 0.79359 0.64103 0.8428 0.0
C403 C 0.71199 0.55312 0.83547 0.0
C404 C 0.67193 0.50456 0.83358 0.0
C405 C 0.7594 0.56132 0.84049 0.0
C406 C 0.68038 0.4645 0.83518 0.0
C407 C 0.72764 0.47242 0.83946 0.0
C408 C 0.81301 0.52812 0.84936 0.0
C409 C 0.8511 0.57576 0.85449 0.0
C410 C 0.76702 0.52052 0.84273 0.0
C411 C 0.8439 0.61633 0.85162 0.0
C412 C 0.79859 0.60925 0.84445 0.0
H413 H 0.13873 0.73335 0.15104 0.0
H414 H 0.08328 0.70235 0.21153 0.0
H415 H 0.15245 0.78148 0.22245 0.0
H416 H 0.23456 0.85213 0.21567 0.0
H417 H 0.28805 0.88685 0.15485 0.0
H418 H 0.21365 0.81305 0.14327 0.0
C419 C 0.14133 0.74447 0.16653 0.0
C420 C 0.10652 0.71184 0.18052 0.0
C421 C 0.18118 0.79005 0.17272 0.0
C422 C 0.1097 0.72684 0.20048 0.0
C423 C 0.14945 0.77192 0.20676 0.0
C424 C 0.2296 0.84492 0.19978 0.0
C425 C 0.26797 0.87466 0.18628 0.0
C426 C 0.18633 0.80291 0.19313 0.0
C427 C 0.26024 0.86381 0.16575 0.0
C428 C 0.21746 0.82172 0.15905 0.0
H429 H 0.55105 0.1777 0.52224 0.0
H430 H 0.42415 0.12564 0.48325 0.0
H431 H 0.41049 0.19227 0.49496 0.0
H432 H 0.43281 0.26295 0.5177 0.0
H433 H 0.55825 0.31074 0.55711 0.0
H434 H 0.57395 0.24731 0.54388 0.0
C435 C 0.52042 0.18077 0.51614 0.0
C436 C 0.4885 0.14656 0.50197 0.0
C437 C 0.51225 0.21804 0.52319 0.0
C438 C 0.44924 0.15152 0.49421 0.0
C439 C 0.44132 0.18944 0.50095 0.0
C440 C 0.46357 0.25933 0.52326 0.0
C441 C 0.49398 0.29078 0.53849 0.0
C442 C 0.47223 0.22248 0.51566 0.0
C443 C 0.53382 0.28614 0.54567 0.0
C444 C 0.54303 0.25021 0.53803 0.0
H445 H 0.31774 0.42869 0.87739 0.0
H446 H 0.30153 0.45258 0.81516 0.0
H447 H 0.23139 0.46473 0.82319 0.0
H448 H 0.18374 0.48085 0.84867 0.0
H449 H 0.19897 0.45346 0.9108 0.0
H450 H 0.26061 0.43048 0.90203 0.0
C451 C 0.29795 0.43534 0.86556 0.0
C452 C 0.31473 0.44024 0.84579 0.0
C453 C 0.25826 0.44263 0.87032 0.0
C454 C 0.28889 0.44846 0.83049 0.0
C455 C 0.2492 0.4559 0.83512 0.0
C456 C 0.19957 0.46868 0.86025 0.0
C457 C 0.18783 0.47046 0.88044 0.0
C458 C 0.23482 0.45491 0.85509 0.0
C459 C 0.20865 0.45426 0.89521 0.0
C460 C 0.24367 0.44073 0.89022 0.0
H461 H 0.85909 0.31985 0.14717 0.0
H462 H 0.92252 0.33918 0.20606 0.0
H463 H 0.85439 0.25862 0.21617 0.0
H464 H 0.77115 0.18979 0.20997 0.0
H465 H 0.70839 0.16742 0.15079 0.0
H466 H 0.78194 0.24263 0.13926 0.0
C467 C 0.85852 0.30602 0.16209 0.0
C468 C 0.89536 0.33602 0.17593 0.0
C469 C 0.81894 0.25967 0.16792 0.0
C470 C 0.89451 0.31716 0.19512 0.0
C471 C 0.85535 0.27113 0.20098 0.0
C472 C 0.77387 0.20008 0.19436 0.0
C473 C 0.73339 0.17324 0.18145 0.0
C474 C 0.81646 0.24301 0.18774 0.0
C475 C 0.73808 0.18807 0.16131 0.0
C476 C 0.78033 0.23098 0.15463 0.0
H477 H 0.06518 0.60858 0.09044 0.0
H478 H 0.92012 0.47734 0.0876 0.0
H479 H 0.91922 0.48661 0.0514 0.0
H480 H 0.96143 0.52977 0.02038 0.0
H481 H 0.10711 0.65962 0.02338 0.0
H482 H 0.10586 0.65316 0.05977 0.0
C483 C 0.03319 0.58203 0.08197 0.0
C484 C -0.00711 0.54217 0.09177 0.0
C485 C 0.03305 0.58733 0.06118 0.0
C486 C 0.95178 0.50826 0.08047 0.0
C487 C 0.95119 0.51355 0.05976 0.0
C488 C -0.00749 0.55707 0.02906 0.0
C489 C 0.0343 0.59512 0.01926 0.0
C490 C -0.00818 0.55268 0.04994 0.0
C491 C 0.0747 0.62983 0.03062 0.0
C492 C 0.07398 0.62616 0.0514 0.0
H493 H 0.55166 0.98312 0.40646 0.0
H494 H 0.43439 0.01781 0.4135 0.0
H495 H 0.42775 0.0213 0.3773 0.0
H496 H 0.45668 0.01663 0.34364 0.0
H497 H 0.57346 0.98136 0.33676 0.0
H498 H 0.57911 0.97651 0.37295 0.0
C499 C 0.5245 0.99132 0.40013 0.0
C500 C 0.49367 0.00028 0.41276 0.0
C501 C 0.52096 -0.00654 0.37931 0.0
C502 C 0.4587 0.01081 0.40419 0.0
C503 C 0.45486 0.01285 0.38347 0.0
C504 C 0.48299 0.00735 0.35006 0.0
C505 C 0.51472 -0.00045 0.33751 0.0
C506 C 0.48596 0.00447 0.37089 0.0
C507 C 0.54909 0.98824 0.34608 0.0
C508 C 0.55217 0.98519 0.36677 0.0
H509 H 0.55743 0.55541 0.75512 0.0
H510 H 0.41041 0.42628 0.75551 0.0
H511 H 0.40572 0.43133 0.71944 0.0
H512 H 0.44441 0.46945 0.68767 0.0
H513 H 0.59137 0.59759 0.68647 0.0
H514 H 0.59464 0.5966 0.72306 0.0
C515 C 0.52434 0.52845 0.74732 0.0
C516 C 0.48456 0.49025 0.75804 0.0
C517 C 0.52175 0.53151 0.72647 0.0
C518 C 0.44172 0.45595 0.74769 0.0
C519 C 0.43892 0.45876 0.72703 0.0
C520 C 0.4771 0.49724 0.69545 0.0
C521 C 0.5178 0.53316 0.6845 0.0
C522 C 0.47888 0.49594 0.71628 0.0
C523 C 0.55956 0.56964 0.69467 0.0
C524 C 0.56155 0.56882 0.71553 0.0
H525 H 0.47354 0.91828 0.57038 0.0
H526 H 0.58027 0.07492 0.56922 0.0
H527 H 0.57985 0.07713 0.60558 0.0
H528 H 0.54827 0.03511 0.63777 0.0
H529 H 0.44189 0.8787 0.63907 0.0
H530 H 0.44328 0.8759 0.60261 0.0
C531 C 0.49692 0.95288 0.57805 0.0
C532 C 0.52678 -0.00365 0.567 0.0
C533 C 0.49647 0.95402 0.59901 0.0
C534 C 0.55689 0.04082 0.57728 0.0
C535 C 0.55661 0.04222 0.5981 0.0
C536 C 0.52514 0.00052 0.63004 0.0
C537 C 0.49486 0.95725 0.64107 0.0
C538 C 0.52627 -0.00084 0.60911 0.0
C539 C 0.46574 0.91246 0.6309 0.0
C540 C 0.46641 0.91087 0.61006 0.0
H541 H 0.47106 0.4982 0.91764 0.0
H542 H 0.52446 0.39574 0.90896 0.0
H543 H 0.51951 0.38019 0.94488 0.0
H544 H 0.4967 0.39319 0.97861 0.0
H545 H 0.44244 0.49493 0.9869 0.0
H546 H 0.45073 0.51296 0.95118 0.0
C547 C 0.48197 0.47268 0.92356 0.0
C548 C 0.498 0.44811 0.91058 0.0
C549 C 0.47851 0.46348 0.94415 0.0
C550 C 0.51185 0.41509 0.91859 0.0
C551 C 0.50899 0.40612 0.93913 0.0
C552 C 0.48719 0.41967 0.97259 0.0
C553 C 0.46871 0.44247 0.98533 0.0
C554 C 0.49191 0.42975 0.95202 0.0
C555 C 0.45604 0.47633 0.97733 0.0
C556 C 0.46101 0.48686 0.95695 0.0
H557 H 0.93707 0.52089 0.24941 0.0
H558 H 0.07828 0.52635 0.24646 0.0
H559 H 0.0827 0.52722 0.28292 0.0
H560 H 0.04645 0.527 0.31566 0.0
H561 H 0.9029 0.51606 0.31857 0.0
H562 H 0.89906 0.51661 0.28204 0.0
C563 C 0.96885 0.52243 0.25678 0.0
C564 C 0.00748 0.52398 0.24534 0.0
C565 C 0.97059 0.52183 0.27768 0.0
C566 C 0.04809 0.52511 0.25501 0.0
C567 C 0.05068 0.5257 0.27582 0.0
C568 C 0.01445 0.52476 0.30819 0.0
C569 C 0.97514 0.5218 0.31956 0.0
C570 C 0.01219 0.52416 0.28729 0.0
C571 C 0.93345 0.51827 0.30995 0.0
C572 C 0.93135 0.51872 0.28915 0.0
loop_
_geom_bond_atom_site_label_1
_geom_bond_atom_site_label_2
_geom_bond_distance
_geom_bond_site_symmetry_2
_ccdc_geom_bond_type
O0 Zn1 1.953 . S
O0 C16 1.225 1_655 S
Zn1 O0 1.953 . S
Zn1 O2 1.949 1_655 S
Zn1 O8 1.919 . S
Zn1 O13 1.924 1_655 S
O2 Zn1 1.949 1_455 S
O2 Zn3 1.923 1_455 S
O2 Zn4 1.950 . S
O2 Zn5 1.945 . S
Zn3 O2 1.923 1_655 S
Zn3 O6 1.933 . S
Zn3 O9 1.941 . S
Zn3 O10 1.965 . S
Zn4 O2 1.950 . S
Zn4 O11 1.938 1_455 S
Zn4 O12 1.906 . S
Zn4 O22 1.953 . S
Zn5 O2 1.945 . S
Zn5 O7 1.932 . S
Zn5 O14 1.977 . S
Zn5 O15 1.910 . S
O6 Zn3 1.933 . S
O6 C17 1.226 1_655 S
O7 Zn5 1.932 . S
O7 C17 1.307 . S
O8 Zn1 1.919 . S
O8 C19 1.253 . S
O9 Zn3 1.941 . S
O9 C19 1.283 . S
O10 Zn3 1.965 . S
O10 C18 1.303 . S
O11 Zn4 1.938 1_655 S
O11 C18 1.247 . S
O12 Zn4 1.906 . S
O12 C20 1.304 . S
O13 Zn1 1.924 1_455 S
O13 C21 1.311 . S
O14 Zn5 1.977 . S
O14 C20 1.272 . S
O15 Zn5 1.910 . S
O15 C21 1.231 . S
C16 O0 1.225 1_455 S
C16 O22 1.298 . S
C17 O6 1.226 1_455 S
C17 O7 1.307 . S
C18 O10 1.303 . S
C18 O11 1.247 . S
C19 O8 1.253 . S
C19 O9 1.283 . S
C20 O12 1.304 . S
C20 O14 1.272 . S
C21 O13 1.311 . S
C21 O15 1.231 . S
O22 Zn4 1.953 . S
O22 C16 1.298 . S
O23 Zn24 1.953 . S
O23 C39 1.225 . S
Zn24 O23 1.953 . S
Zn24 O25 1.949 . S
Zn24 O31 1.919 . S
Zn24 O36 1.924 1_545 S
O25 Zn24 1.949 . S
O25 Zn26 1.923 . S
O25 Zn27 1.950 1_545 S
O25 Zn28 1.945 1_545 S
Zn26 O25 1.923 . S
Zn26 O29 1.933 . S
Zn26 O32 1.941 . S
Zn26 O33 1.965 . S
Zn27 O25 1.950 1_565 S
Zn27 O34 1.938 1_565 S
Zn27 O35 1.906 . S
Zn27 O45 1.953 . S
Zn28 O25 1.945 1_565 S
Zn28 O30 1.932 . S
Zn28 O37 1.977 . S
Zn28 O38 1.910 . S
O29 Zn26 1.933 . S
O29 C40 1.226 . S
O30 Zn28 1.932 . S
O30 C40 1.307 1_565 S
O31 Zn24 1.919 . S
O31 C42 1.253 . S
O32 Zn26 1.941 . S
O32 C42 1.283 . S
O33 Zn26 1.965 . S
O33 C41 1.303 . S
O34 Zn27 1.938 1_545 S
O34 C41 1.247 . S
O35 Zn27 1.906 . S
O35 C43 1.304 . S
O36 Zn24 1.924 1_565 S
O36 C44 1.311 . S
O37 Zn28 1.977 . S
O37 C43 1.272 . S
O38 Zn28 1.910 . S
O38 C44 1.231 . S
C39 O23 1.225 . S
C39 O45 1.298 1_545 S
C40 O29 1.226 . S
C40 O30 1.307 1_545 S
C41 O33 1.303 . S
C41 O34 1.247 . S
C42 O31 1.253 . S
C42 O32 1.283 . S
C43 O35 1.304 . S
C43 O37 1.272 . S
C44 O36 1.311 . S
C44 O38 1.231 . S
O45 Zn27 1.953 . S
O45 C39 1.298 1_565 S
O46 Zn47 1.953 . S
O46 C62 1.225 . S
Zn47 O46 1.953 . S
Zn47 O48 1.949 . S
Zn47 O54 1.919 . S
Zn47 O59 1.924 . S
O48 Zn47 1.949 . S
O48 Zn49 1.923 . S
O48 Zn50 1.950 . S
O48 Zn51 1.945 . S
Zn49 O48 1.923 . S
Zn49 O52 1.933 . S
Zn49 O55 1.941 . S
Zn49 O56 1.965 . S
Zn50 O48 1.950 . S
Zn50 O57 1.938 . S
Zn50 O58 1.906 . S
Zn50 O68 1.953 . S
Zn51 O48 1.945 . S
Zn51 O53 1.932 . S
Zn51 O60 1.977 . S
Zn51 O61 1.910 . S
O52 Zn49 1.933 . S
O52 C63 1.226 . S
O53 Zn51 1.932 . S
O53 C63 1.307 . S
O54 Zn47 1.919 . S
O54 C65 1.253 . S
O55 Zn49 1.941 . S
O55 C65 1.283 . S
O56 Zn49 1.965 . S
O56 C64 1.303 . S
O57 Zn50 1.938 . S
O57 C64 1.247 . S
O58 Zn50 1.906 . S
O58 C66 1.304 . S
O59 Zn47 1.924 . S
O59 C67 1.311 . S
O60 Zn51 1.977 . S
O60 C66 1.272 . S
O61 Zn51 1.910 . S
O61 C67 1.231 . S
C62 O46 1.225 . S
C62 O68 1.298 . S
C63 O52 1.226 . S
C63 O53 1.307 . S
C64 O56 1.303 . S
C64 O57 1.247 . S
C65 O54 1.253 . S
C65 O55 1.283 . S
C66 O58 1.304 . S
C66 O60 1.272 . S
C67 O59 1.311 . S
C67 O61 1.231 . S
O68 Zn50 1.953 . S
O68 C62 1.298 . S
C69 C70 1.384 . S
C69 H82 0.947 . S
C69 C104 1.382 . S
C70 C69 1.384 . S
C70 C71 1.378 . S
C71 C70 1.378 . S
C71 C72 1.378 . S
C71 H83 0.952 . S
C72 C71 1.378 . S
C72 H84 0.950 . S
C72 C103 1.383 . S
H73 C92 0.947 . S
H74 C93 0.946 . S
H75 C95 0.953 . S
H76 C96 0.945 . S
H77 C98 0.952 . S
H78 C99 0.949 . S
H79 C101 0.950 . S
H80 C102 0.948 . S
H81 C104 0.951 . S
H82 C69 0.947 . S
H83 C71 0.952 . S
H84 C72 0.950 . S
N85 C88 1.382 . S
N85 C90 1.363 1_545 S
N86 C88 1.371 . S
N86 C89 1.372 . S
N87 C89 1.361 1_565 S
N87 C90 1.377 . S
C88 N85 1.382 . S
C88 N86 1.371 . S
C88 C91 1.480 . S
C89 N86 1.372 . S
C89 N87 1.361 1_545 S
C89 C97 1.457 . S
C90 N85 1.363 1_565 S
C90 N87 1.377 . S
C90 C103 1.479 . S
C91 C88 1.480 . S
C91 C92 1.383 . S
C91 C96 1.385 . S
C92 H73 0.947 . S
C92 C91 1.383 . S
C92 C93 1.388 . S
C93 H74 0.946 . S
C93 C92 1.388 . S
C93 C94 1.384 . S
C94 C93 1.384 . S
C94 C95 1.377 . S
C95 H75 0.953 . S
C95 C94 1.377 . S
C95 C96 1.369 . S
C96 H76 0.945 . S
C96 C91 1.385 . S
C96 C95 1.369 . S
C97 C89 1.457 . S
C97 C98 1.372 . S
C97 C102 1.364 1_545 S
C98 H77 0.952 . S
C98 C97 1.372 . S
C98 C99 1.389 . S
C99 H78 0.949 . S
C99 C98 1.389 . S
C99 C100 1.387 . S
C100 C99 1.387 . S
C100 C101 1.372 1_545 S
C101 H79 0.950 . S
C101 C100 1.372 1_565 S
C101 C102 1.379 . S
C102 H80 0.948 . S
C102 C97 1.364 1_565 S
C102 C101 1.379 . S
C103 C72 1.383 . S
C103 C90 1.479 . S
C103 C104 1.398 . S
C104 C69 1.382 . S
C104 H81 0.951 . S
C104 C103 1.398 . S
C105 C106 1.384 . S
C105 H118 0.947 . S
C105 C140 1.382 . S
C106 C105 1.384 . S
C106 C107 1.378 . S
C107 C106 1.378 . S
C107 C108 1.378 . S
C107 H119 0.952 . S
C108 C107 1.378 . S
C108 H120 0.950 . S
C108 C139 1.383 . S
H109 C128 0.947 . S
H110 C129 0.946 . S
H111 C131 0.953 . S
H112 C132 0.945 . S
H113 C134 0.952 . S
H114 C135 0.949 . S
H115 C137 0.950 . S
H116 C138 0.948 . S
H117 C140 0.951 . S
H118 C105 0.947 . S
H119 C107 0.952 . S
H120 C108 0.950 . S
N121 C124 1.382 . S
N121 C126 1.363 . S
N122 C124 1.371 . S
N122 C125 1.372 . S
N123 C125 1.361 . S
N123 C126 1.377 . S
C124 N121 1.382 . S
C124 N122 1.371 . S
C124 C127 1.480 . S
C125 N122 1.372 . S
C125 N123 1.361 . S
C125 C133 1.457 . S
C126 N121 1.363 . S
C126 N123 1.377 . S
C126 C139 1.479 . S
C127 C124 1.480 . S
C127 C128 1.383 . S
C127 C132 1.385 . S
C128 H109 0.947 . S
C128 C127 1.383 . S
C128 C129 1.388 . S
C129 H110 0.946 . S
C129 C128 1.388 . S
C129 C130 1.384 . S
C130 C129 1.384 . S
C130 C131 1.377 . S
C131 H111 0.953 . S
C131 C130 1.377 . S
C131 C132 1.369 . S
C132 H112 0.945 . S
C132 C127 1.385 . S
C132 C131 1.369 . S
C133 C125 1.457 . S
C133 C134 1.372 . S
C133 C138 1.364 . S
C134 H113 0.952 . S
C134 C133 1.372 . S
C134 C135 1.389 . S
C135 H114 0.949 . S
C135 C134 1.389 . S
C135 C136 1.387 . S
C136 C135 1.387 . S
C136 C137 1.372 . S
C137 H115 0.950 . S
C137 C136 1.372 . S
C137 C138 1.379 . S
C138 H116 0.948 . S
C138 C133 1.364 . S
C138 C137 1.379 . S
C139 C108 1.383 . S
C139 C126 1.479 . S
C139 C140 1.398 . S
C140 C105 1.382 . S
C140 H117 0.951 . S
C140 C139 1.398 . S
C141 C142 1.384 . S
C141 H154 0.947 . S
C141 C176 1.382 . S
C142 C141 1.384 . S
C142 C143 1.378 . S
C143 C142 1.378 . S
C143 C144 1.378 . S
C143 H155 0.952 . S
C144 C143 1.378 . S
C144 H156 0.950 . S
C144 C175 1.383 . S
H145 C164 0.947 . S
H146 C165 0.946 . S
H147 C167 0.953 . S
H148 C168 0.945 . S
H149 C170 0.952 . S
H150 C171 0.949 . S
H151 C173 0.950 . S
H152 C174 0.948 . S
H153 C176 0.951 . S
H154 C141 0.947 . S
H155 C143 0.952 . S
H156 C144 0.950 . S
N157 C160 1.382 . S
N157 C162 1.363 1_455 S
N158 C160 1.371 . S
N158 C161 1.372 . S
N159 C161 1.361 1_655 S
N159 C162 1.377 . S
C160 N157 1.382 . S
C160 N158 1.371 . S
C160 C163 1.480 . S
C161 N158 1.372 . S
C161 N159 1.361 1_455 S
C161 C169 1.457 . S
C162 N157 1.363 1_655 S
C162 N159 1.377 . S
C162 C175 1.479 . S
C163 C160 1.480 . S
C163 C164 1.383 . S
C163 C168 1.385 . S
C164 H145 0.947 . S
C164 C163 1.383 . S
C164 C165 1.388 . S
C165 H146 0.946 . S
C165 C164 1.388 . S
C165 C166 1.384 . S
C166 C165 1.384 . S
C166 C167 1.377 . S
C167 H147 0.953 . S
C167 C166 1.377 . S
C167 C168 1.369 . S
C168 H148 0.945 . S
C168 C163 1.385 . S
C168 C167 1.369 . S
C169 C161 1.457 . S
C169 C170 1.372 . S
C169 C174 1.364 1_455 S
C170 H149 0.952 . S
C170 C169 1.372 . S
C170 C171 1.389 . S
C171 H150 0.949 . S
C171 C170 1.389 . S
C171 C172 1.387 . S
C172 C171 1.387 . S
C172 C173 1.372 1_455 S
C173 H151 0.950 . S
C173 C172 1.372 1_655 S
C173 C174 1.379 . S
C174 H152 0.948 . S
C174 C169 1.364 1_655 S
C174 C173 1.379 . S
C175 C144 1.383 . S
C175 C162 1.479 . S
C175 C176 1.398 . S
C176 C141 1.382 . S
C176 H153 0.951 . S
C176 C175 1.398 . S
C177 C178 1.384 . S
C177 H190 0.947 . S
C177 C212 1.382 . S
C178 C177 1.384 . S
C178 C179 1.378 . S
C179 C178 1.378 . S
C179 C180 1.378 . S
C179 H191 0.952 . S
C180 C179 1.378 . S
C180 H192 0.950 . S
C180 C211 1.383 . S
H181 C200 0.947 . S
H182 C201 0.946 . S
H183 C203 0.953 . S
H184 C204 0.945 . S
H185 C206 0.952 . S
H186 C207 0.949 . S
H187 C209 0.950 . S
H188 C210 0.948 . S
H189 C212 0.951 . S
H190 C177 0.947 . S
H191 C179 0.952 . S
H192 C180 0.950 . S
N193 C196 1.382 1_455 S
N193 C198 1.363 . S
N194 C196 1.371 . S
N194 C197 1.372 1_655 S
N195 C197 1.361 . S
N195 C198 1.377 . S
C196 N193 1.382 1_655 S
C196 N194 1.371 . S
C196 C199 1.480 . S
C197 N194 1.372 1_455 S
C197 N195 1.361 . S
C197 C205 1.457 . S
C198 N193 1.363 . S
C198 N195 1.377 . S
C198 C211 1.479 . S
C199 C196 1.480 . S
C199 C200 1.383 . S
C199 C204 1.385 . S
C200 H181 0.947 . S
C200 C199 1.383 . S
C200 C201 1.388 . S
C201 H182 0.946 . S
C201 C200 1.388 . S
C201 C202 1.384 . S
C202 C201 1.384 . S
C202 C203 1.377 . S
C203 H183 0.953 . S
C203 C202 1.377 . S
C203 C204 1.369 . S
C204 H184 0.945 . S
C204 C199 1.385 . S
C204 C203 1.369 . S
C205 C197 1.457 . S
C205 C206 1.372 1_455 S
C205 C210 1.364 . S
C206 H185 0.952 . S
C206 C205 1.372 1_655 S
C206 C207 1.389 . S
C207 H186 0.949 . S
C207 C206 1.389 . S
C207 C208 1.387 1_655 S
C208 C207 1.387 1_455 S
C208 C209 1.372 . S
C209 H187 0.950 . S
C209 C208 1.372 . S
C209 C210 1.379 . S
C210 H188 0.948 . S
C210 C205 1.364 . S
C210 C209 1.379 . S
C211 C180 1.383 . S
C211 C198 1.479 . S
C211 C212 1.398 . S
C212 C177 1.382 . S
C212 H189 0.951 . S
C212 C211 1.398 . S
C213 C214 1.384 . S
C213 H226 0.947 . S
C213 C248 1.382 . S
C214 C213 1.384 . S
C214 C215 1.378 . S
C215 C214 1.378 . S
C215 C216 1.378 . S
C215 H227 0.952 . S
C216 C215 1.378 . S
C216 H228 0.950 . S
C216 C247 1.383 . S
H217 C236 0.947 . S
H218 C237 0.946 . S
H219 C239 0.953 . S
H220 C240 0.945 . S
H221 C242 0.952 . S
H222 C243 0.949 . S
H223 C245 0.950 . S
H224 C246 0.948 . S
H225 C248 0.951 . S
H226 C213 0.947 . S
H227 C215 0.952 . S
H228 C216 0.950 . S
N229 C232 1.382 1_545 S
N229 C234 1.363 . S
N230 C232 1.371 . S
N230 C233 1.372 1_565 S
N231 C233 1.361 . S
N231 C234 1.377 . S
C232 N229 1.382 1_565 S
C232 N230 1.371 . S
C232 C235 1.480 . S
C233 N230 1.372 1_545 S
C233 N231 1.361 . S
C233 C241 1.457 . S
C234 N229 1.363 . S
C234 N231 1.377 . S
C234 C247 1.479 . S
C235 C232 1.480 . S
C235 C236 1.383 . S
C235 C240 1.385 . S
C236 H217 0.947 . S
C236 C235 1.383 . S
C236 C237 1.388 . S
C237 H218 0.946 . S
C237 C236 1.388 . S
C237 C238 1.384 . S
C238 C237 1.384 . S
C238 C239 1.377 . S
C239 H219 0.953 . S
C239 C238 1.377 . S
C239 C240 1.369 . S
C240 H220 0.945 . S
C240 C235 1.385 . S
C240 C239 1.369 . S
C241 C233 1.457 . S
C241 C242 1.372 1_545 S
C241 C246 1.364 . S
C242 H221 0.952 . S
C242 C241 1.372 1_565 S
C242 C243 1.389 . S
C243 H222 0.949 . S
C243 C242 1.389 . S
C243 C244 1.387 1_565 S
C244 C243 1.387 1_545 S
C244 C245 1.372 . S
C245 H223 0.950 . S
C245 C244 1.372 . S
C245 C246 1.379 . S
C246 H224 0.948 . S
C246 C241 1.364 . S
C246 C245 1.379 . S
C247 C216 1.383 . S
C247 C234 1.479 . S
C247 C248 1.398 . S
C248 C213 1.382 . S
C248 H225 0.951 . S
C248 C247 1.398 . S
C249 C250 1.384 . S
C249 H262 0.947 . S
C249 C284 1.382 . S
C250 C249 1.384 . S
C250 C251 1.378 . S
C251 C250 1.378 . S
C251 C252 1.378 . S
C251 H263 0.952 . S
C252 C251 1.378 . S
C252 H264 0.950 . S
C252 C283 1.383 . S
H253 C272 0.947 . S
H254 C273 0.946 . S
H255 C275 0.953 . S
H256 C276 0.945 . S
H257 C278 0.952 . S
H258 C279 0.949 . S
H259 C281 0.950 . S
H260 C282 0.948 . S
H261 C284 0.951 . S
H262 C249 0.947 . S
H263 C251 0.952 . S
H264 C252 0.950 . S
N265 C268 1.382 . S
N265 C270 1.363 . S
N266 C268 1.371 . S
N266 C269 1.372 . S
N267 C269 1.361 . S
N267 C270 1.377 . S
C268 N265 1.382 . S
C268 N266 1.371 . S
C268 C271 1.480 . S
C269 N266 1.372 . S
C269 N267 1.361 . S
C269 C277 1.457 . S
C270 N265 1.363 . S
C270 N267 1.377 . S
C270 C283 1.479 . S
C271 C268 1.480 . S
C271 C272 1.383 . S
C271 C276 1.385 . S
C272 H253 0.947 . S
C272 C271 1.383 . S
C272 C273 1.388 . S
C273 H254 0.946 . S
C273 C272 1.388 . S
C273 C274 1.384 . S
C274 C273 1.384 . S
C274 C275 1.377 . S
C275 H255 0.953 . S
C275 C274 1.377 . S
C275 C276 1.369 . S
C276 H256 0.945 . S
C276 C271 1.385 . S
C276 C275 1.369 . S
C277 C269 1.457 . S
C277 C278 1.372 . S
C277 C282 1.364 . S
C278 H257 0.952 . S
C278 C277 1.372 . S
C278 C279 1.389 . S
C279 H258 0.949 . S
C279 C278 1.389 . S
C279 C280 1.387 . S
C280 C279 1.387 . S
C280 C281 1.372 . S
C281 H259 0.950 . S
C281 C280 1.372 . S
C281 C282 1.379 . S
C282 H260 0.948 . S
C282 C277 1.364 . S
C282 C281 1.379 . S
C283 C252 1.383 . S
C283 C270 1.479 . S
C283 C284 1.398 . S
C284 C249 1.382 . S
C284 H261 0.951 . S
C284 C283 1.398 . S
H285 C291 0.930 . S
H286 C294 0.930 . S
H287 C295 0.930 . S
H288 C296 0.930 . S
H289 C299 0.930 . S
H290 C300 0.930 . S
C291 H285 0.930 . S
C291 C292 1.355 . S
C291 C293 1.415 . S
C292 C291 1.355 . S
C292 C294 1.419 . S
C293 C291 1.415 . S
C293 C298 1.425 . S
C293 C300 1.409 . S
C294 H286 0.930 . S
C294 C292 1.419 . S
C294 C295 1.362 . S
C295 H287 0.930 . S
C295 C294 1.362 . S
C295 C298 1.409 . S
C296 H288 0.930 . S
C296 C297 1.355 . S
C296 C298 1.415 . S
C297 C296 1.355 . S
C297 C299 1.419 . S
C298 C293 1.425 . S
C298 C295 1.409 . S
C298 C296 1.415 . S
C299 H289 0.930 . S
C299 C297 1.419 . S
C299 C300 1.362 . S
C300 H290 0.930 . S
C300 C293 1.409 . S
C300 C299 1.362 . S
H301 C307 0.930 . S
H302 C310 0.930 . S
H303 C311 0.930 . S
H304 C312 0.930 . S
H305 C315 0.930 . S
H306 C316 0.930 . S
C307 H301 0.930 . S
C307 C308 1.355 . S
C307 C309 1.415 . S
C308 C307 1.355 . S
C308 C310 1.419 . S
C309 C307 1.415 . S
C309 C314 1.425 . S
C309 C316 1.409 . S
C310 H302 0.930 . S
C310 C308 1.419 . S
C310 C311 1.362 . S
C311 H303 0.930 . S
C311 C310 1.362 . S
C311 C314 1.409 . S
C312 H304 0.930 . S
C312 C313 1.355 . S
C312 C314 1.415 . S
C313 C312 1.355 . S
C313 C315 1.419 . S
C314 C309 1.425 . S
C314 C311 1.409 . S
C314 C312 1.415 . S
C315 H305 0.930 . S
C315 C313 1.419 . S
C315 C316 1.362 . S
C316 H306 0.930 . S
C316 C309 1.409 . S
C316 C315 1.362 . S
H317 C323 0.930 . S
H318 C326 0.930 . S
H319 C327 0.930 . S
H320 C328 0.930 . S
H321 C331 0.930 . S
H322 C332 0.930 . S
C323 H317 0.930 . S
C323 C324 1.355 . S
C323 C325 1.415 . S
C324 C323 1.355 . S
C324 C326 1.419 . S
C325 C323 1.415 . S
C325 C330 1.425 . S
C325 C332 1.409 . S
C326 H318 0.930 . S
C326 C324 1.419 . S
C326 C327 1.362 . S
C327 H319 0.930 . S
C327 C326 1.362 . S
C327 C330 1.409 . S
C328 H320 0.930 . S
C328 C329 1.355 . S
C328 C330 1.415 . S
C329 C328 1.355 . S
C329 C331 1.419 . S
C330 C325 1.425 . S
C330 C327 1.409 . S
C330 C328 1.415 . S
C331 H321 0.930 . S
C331 C329 1.419 . S
C331 C332 1.362 . S
C332 H322 0.930 . S
C332 C325 1.409 . S
C332 C331 1.362 . S
H333 C339 0.930 . S
H334 C342 0.930 . S
H335 C343 0.930 . S
H336 C344 0.930 . S
H337 C347 0.930 . S
H338 C348 0.930 . S
C339 H333 0.930 . S
C339 C340 1.355 . S
C339 C341 1.415 . S
C340 C339 1.355 . S
C340 C342 1.419 . S
C341 C339 1.415 . S
C341 C346 1.425 . S
C341 C348 1.409 . S
C342 H334 0.930 . S
C342 C340 1.419 . S
C342 C343 1.362 . S
C343 H335 0.930 . S
C343 C342 1.362 . S
C343 C346 1.409 . S
C344 H336 0.930 . S
C344 C345 1.355 . S
C344 C346 1.415 . S
C345 C344 1.355 . S
C345 C347 1.419 . S
C346 C341 1.425 . S
C346 C343 1.409 . S
C346 C344 1.415 . S
C347 H337 0.930 . S
C347 C345 1.419 . S
C347 C348 1.362 . S
C348 H338 0.930 . S
C348 C341 1.409 . S
C348 C347 1.362 . S
H349 C355 0.930 . S
H350 C358 0.930 . S
H351 C359 0.930 . S
H352 C360 0.930 . S
H353 C363 0.930 . S
H354 C364 0.930 . S
C355 H349 0.930 . S
C355 C356 1.355 . S
C355 C357 1.415 . S
C356 C355 1.355 . S
C356 C358 1.419 . S
C357 C355 1.415 . S
C357 C362 1.425 . S
C357 C364 1.409 . S
C358 H350 0.930 . S
C358 C356 1.419 . S
C358 C359 1.362 . S
C359 H351 0.930 . S
C359 C358 1.362 . S
C359 C362 1.409 . S
C360 H352 0.930 . S
C360 C361 1.355 . S
C360 C362 1.415 . S
C361 C360 1.355 . S
C361 C363 1.419 . S
C362 C357 1.425 . S
C362 C359 1.409 . S
C362 C360 1.415 . S
C363 H353 0.930 . S
C363 C361 1.419 . S
C363 C364 1.362 . S
C364 H354 0.930 . S
C364 C357 1.409 . S
C364 C363 1.362 . S
H365 C371 0.930 . S
H366 C374 0.930 . S
H367 C375 0.930 . S
H368 C376 0.930 . S
H369 C379 0.930 . S
H370 C380 0.930 . S
C371 H365 0.930 . S
C371 C372 1.355 . S
C371 C373 1.415 . S
C372 C371 1.355 . S
C372 C374 1.419 . S
C373 C371 1.415 . S
C373 C378 1.425 . S
C373 C380 1.409 . S
C374 H366 0.930 . S
C374 C372 1.419 . S
C374 C375 1.362 . S
C375 H367 0.930 . S
C375 C374 1.362 . S
C375 C378 1.409 . S
C376 H368 0.930 . S
C376 C377 1.355 . S
C376 C378 1.415 . S
C377 C376 1.355 . S
C377 C379 1.419 . S
C378 C373 1.425 . S
C378 C375 1.409 . S
C378 C376 1.415 . S
C379 H369 0.930 . S
C379 C377 1.419 . S
C379 C380 1.362 . S
C380 H370 0.930 . S
C380 C373 1.409 . S
C380 C379 1.362 . S
H381 C387 0.930 . S
H382 C390 0.930 . S
H383 C391 0.930 . S
H384 C392 0.930 . S
H385 C395 0.930 . S
H386 C396 0.930 . S
C387 H381 0.930 . S
C387 C388 1.355 . S
C387 C389 1.415 . S
C388 C387 1.355 . S
C388 C390 1.419 . S
C389 C387 1.415 . S
C389 C394 1.425 . S
C389 C396 1.409 . S
C390 H382 0.930 . S
C390 C388 1.419 . S
C390 C391 1.362 . S
C391 H383 0.930 . S
C391 C390 1.362 . S
C391 C394 1.409 . S
C392 H384 0.930 . S
C392 C393 1.355 . S
C392 C394 1.415 . S
C393 C392 1.355 . S
C393 C395 1.419 . S
C394 C389 1.425 . S
C394 C391 1.409 . S
C394 C392 1.415 . S
C395 H385 0.930 . S
C395 C393 1.419 . S
C395 C396 1.362 . S
C396 H386 0.930 . S
C396 C389 1.409 . S
C396 C395 1.362 . S
H397 C403 0.930 . S
H398 C406 0.930 . S
H399 C407 0.930 . S
H400 C408 0.930 . S
H401 C411 0.930 . S
H402 C412 0.930 . S
C403 H397 0.930 . S
C403 C404 1.355 . S
C403 C405 1.415 . S
C404 C403 1.355 . S
C404 C406 1.419 . S
C405 C403 1.415 . S
C405 C410 1.425 . S
C405 C412 1.409 . S
C406 H398 0.930 . S
C406 C404 1.419 . S
C406 C407 1.362 . S
C407 H399 0.930 . S
C407 C406 1.362 . S
C407 C410 1.409 . S
C408 H400 0.930 . S
C408 C409 1.355 . S
C408 C410 1.415 . S
C409 C408 1.355 . S
C409 C411 1.419 . S
C410 C405 1.425 . S
C410 C407 1.409 . S
C410 C408 1.415 . S
C411 H401 0.930 . S
C411 C409 1.419 . S
C411 C412 1.362 . S
C412 H402 0.930 . S
C412 C405 1.409 . S
C412 C411 1.362 . S
H413 C419 0.930 . S
H414 C422 0.930 . S
H415 C423 0.930 . S
H416 C424 0.930 . S
H417 C427 0.930 . S
H418 C428 0.930 . S
C419 H413 0.930 . S
C419 C420 1.355 . S
C419 C421 1.415 . S
C420 C419 1.355 . S
C420 C422 1.419 . S
C421 C419 1.415 . S
C421 C426 1.425 . S
C421 C428 1.409 . S
C422 H414 0.930 . S
C422 C420 1.419 . S
C422 C423 1.362 . S
C423 H415 0.930 . S
C423 C422 1.362 . S
C423 C426 1.409 . S
C424 H416 0.930 . S
C424 C425 1.355 . S
C424 C426 1.415 . S
C425 C424 1.355 . S
C425 C427 1.419 . S
C426 C421 1.425 . S
C426 C423 1.409 . S
C426 C424 1.415 . S
C427 H417 0.930 . S
C427 C425 1.419 . S
C427 C428 1.362 . S
C428 H418 0.930 . S
C428 C421 1.409 . S
C428 C427 1.362 . S
H429 C435 0.930 . S
H430 C438 0.930 . S
H431 C439 0.930 . S
H432 C440 0.930 . S
H433 C443 0.930 . S
H434 C444 0.930 . S
C435 H429 0.930 . S
C435 C436 1.355 . S
C435 C437 1.415 . S
C436 C435 1.355 . S
C436 C438 1.419 . S
C437 C435 1.415 . S
C437 C442 1.425 . S
C437 C444 1.409 . S
C438 H430 0.930 . S
C438 C436 1.419 . S
C438 C439 1.362 . S
C439 H431 0.930 . S
C439 C438 1.362 . S
C439 C442 1.409 . S
C440 H432 0.930 . S
C440 C441 1.355 . S
C440 C442 1.415 . S
C441 C440 1.355 . S
C441 C443 1.419 . S
C442 C437 1.425 . S
C442 C439 1.409 . S
C442 C440 1.415 . S
C443 H433 0.930 . S
C443 C441 1.419 . S
C443 C444 1.362 . S
C444 H434 0.930 . S
C444 C437 1.409 . S
C444 C443 1.362 . S
H445 C451 0.930 . S
H446 C454 0.930 . S
H447 C455 0.930 . S
H448 C456 0.930 . S
H449 C459 0.930 . S
H450 C460 0.930 . S
C451 H445 0.930 . S
C451 C452 1.355 . S
C451 C453 1.415 . S
C452 C451 1.355 . S
C452 C454 1.419 . S
C453 C451 1.415 . S
C453 C458 1.425 . S
C453 C460 1.409 . S
C454 H446 0.930 . S
C454 C452 1.419 . S
C454 C455 1.362 . S
C455 H447 0.930 . S
C455 C454 1.362 . S
C455 C458 1.409 . S
C456 H448 0.930 . S
C456 C457 1.355 . S
C456 C458 1.415 . S
C457 C456 1.355 . S
C457 C459 1.419 . S
C458 C453 1.425 . S
C458 C455 1.409 . S
C458 C456 1.415 . S
C459 H449 0.930 . S
C459 C457 1.419 . S
C459 C460 1.362 . S
C460 H450 0.930 . S
C460 C453 1.409 . S
C460 C459 1.362 . S
H461 C467 0.930 . S
H462 C470 0.930 . S
H463 C471 0.930 . S
H464 C472 0.930 . S
H465 C475 0.930 . S
H466 C476 0.930 . S
C467 H461 0.930 . S
C467 C468 1.355 . S
C467 C469 1.415 . S
C468 C467 1.355 . S
C468 C470 1.419 . S
C469 C467 1.415 . S
C469 C474 1.425 . S
C469 C476 1.409 . S
C470 H462 0.930 . S
C470 C468 1.419 . S
C470 C471 1.362 . S
C471 H463 0.930 . S
C471 C470 1.362 . S
C471 C474 1.409 . S
C472 H464 0.930 . S
C472 C473 1.355 . S
C472 C474 1.415 . S
C473 C472 1.355 . S
C473 C475 1.419 . S
C474 C469 1.425 . S
C474 C471 1.409 . S
C474 C472 1.415 . S
C475 H465 0.930 . S
C475 C473 1.419 . S
C475 C476 1.362 . S
C476 H466 0.930 . S
C476 C469 1.409 . S
C476 C475 1.362 . S
H477 C483 0.930 . S
H478 C486 0.930 . S
H479 C487 0.930 . S
H480 C488 0.931 1_655 S
H481 C491 0.930 . S
H482 C492 0.930 . S
C483 H477 0.930 . S
C483 C484 1.355 . S
C483 C485 1.415 . S
C484 C483 1.355 . S
C484 C486 1.419 1_455 S
C485 C483 1.415 . S
C485 C490 1.425 . S
C485 C492 1.409 . S
C486 H478 0.930 . S
C486 C484 1.419 1_655 S
C486 C487 1.362 . S
C487 H479 0.930 . S
C487 C486 1.362 . S
C487 C490 1.409 1_655 S
C488 H480 0.931 1_455 S
C488 C489 1.355 . S
C488 C490 1.414 . S
C489 C488 1.355 . S
C489 C491 1.419 . S
C490 C485 1.425 . S
C490 C487 1.409 1_455 S
C490 C488 1.414 . S
C491 H481 0.930 . S
C491 C489 1.419 . S
C491 C492 1.362 . S
C492 H482 0.930 . S
C492 C485 1.409 . S
C492 C491 1.362 . S
H493 C499 0.930 . S
H494 C502 0.930 . S
H495 C503 0.930 . S
H496 C504 0.930 . S
H497 C507 0.930 . S
H498 C508 0.930 . S
C499 H493 0.930 . S
C499 C500 1.355 . S
C499 C501 1.415 . S
C500 C499 1.355 . S
C500 C502 1.419 1_545 S
C501 C499 1.415 . S
C501 C506 1.422 . S
C501 C508 1.409 . S
C502 H494 0.930 . S
C502 C500 1.419 1_565 S
C502 C503 1.362 . S
C503 H495 0.930 . S
C503 C502 1.362 . S
C503 C506 1.412 1_565 S
C504 H496 0.930 . S
C504 C505 1.355 1_565 S
C504 C506 1.415 1_565 S
C505 C504 1.355 1_545 S
C505 C507 1.419 . S
C506 C501 1.422 . S
C506 C503 1.412 1_545 S
C506 C504 1.415 1_545 S
C507 H497 0.930 . S
C507 C505 1.419 . S
C507 C508 1.362 . S
C508 H498 0.930 . S
C508 C501 1.409 . S
C508 C507 1.362 . S
H509 C515 0.930 . S
H510 C518 0.930 . S
H511 C519 0.930 . S
H512 C520 0.930 . S
H513 C523 0.930 . S
H514 C524 0.930 . S
C515 H509 0.930 . S
C515 C516 1.355 . S
C515 C517 1.415 . S
C516 C515 1.355 . S
C516 C518 1.419 . S
C517 C515 1.415 . S
C517 C522 1.425 . S
C517 C524 1.409 . S
C518 H510 0.930 . S
C518 C516 1.419 . S
C518 C519 1.362 . S
C519 H511 0.930 . S
C519 C518 1.362 . S
C519 C522 1.409 . S
C520 H512 0.930 . S
C520 C521 1.355 . S
C520 C522 1.415 . S
C521 C520 1.355 . S
C521 C523 1.419 . S
C522 C517 1.425 . S
C522 C519 1.409 . S
C522 C520 1.415 . S
C523 H513 0.930 . S
C523 C521 1.419 . S
C523 C524 1.362 . S
C524 H514 0.930 . S
C524 C517 1.409 . S
C524 C523 1.362 . S
H525 C531 0.930 . S
H526 C534 0.930 . S
H527 C535 0.930 . S
H528 C536 0.930 . S
H529 C539 0.930 . S
H530 C540 0.930 . S
C531 H525 0.930 . S
C531 C532 1.355 1_565 S
C531 C533 1.415 . S
C532 C531 1.355 1_545 S
C532 C534 1.419 . S
C533 C531 1.415 . S
C533 C538 1.425 1_565 S
C533 C540 1.409 . S
C534 H526 0.930 . S
C534 C532 1.419 . S
C534 C535 1.362 . S
C535 H527 0.930 . S
C535 C534 1.362 . S
C535 C538 1.409 . S
C536 H528 0.930 . S
C536 C537 1.355 1_545 S
C536 C538 1.415 . S
C537 C536 1.355 1_565 S
C537 C539 1.419 . S
C538 C533 1.425 1_545 S
C538 C535 1.409 . S
C538 C536 1.415 . S
C539 H529 0.930 . S
C539 C537 1.419 . S
C539 C540 1.362 . S
C540 H530 0.930 . S
C540 C533 1.409 . S
C540 C539 1.362 . S
H541 C547 0.930 . S
H542 C550 0.930 . S
H543 C551 0.930 . S
H544 C552 0.930 . S
H545 C555 0.930 . S
H546 C556 0.930 . S
C547 H541 0.930 . S
C547 C548 1.355 . S
C547 C549 1.415 . S
C548 C547 1.355 . S
C548 C550 1.419 . S
C549 C547 1.415 . S
C549 C554 1.425 . S
C549 C556 1.409 . S
C550 H542 0.930 . S
C550 C548 1.419 . S
C550 C551 1.362 . S
C551 H543 0.930 . S
C551 C550 1.362 . S
C551 C554 1.409 . S
C552 H544 0.930 . S
C552 C553 1.355 . S
C552 C554 1.415 . S
C553 C552 1.355 . S
C553 C555 1.419 . S
C554 C549 1.425 . S
C554 C551 1.409 . S
C554 C552 1.415 . S
C555 H545 0.930 . S
C555 C553 1.419 . S
C555 C556 1.362 . S
C556 H546 0.930 . S
C556 C549 1.409 . S
C556 C555 1.362 . S
H557 C563 0.930 . S
H558 C566 0.930 . S
H559 C567 0.930 . S
H560 C568 0.930 . S
H561 C571 0.930 . S
H562 C572 0.930 . S
C563 H557 0.930 . S
C563 C564 1.355 1_655 S
C563 C565 1.415 . S
C564 C563 1.355 1_455 S
C564 C566 1.419 . S
C565 C563 1.415 . S
C565 C570 1.425 1_655 S
C565 C572 1.409 . S
C566 H558 0.930 . S
C566 C564 1.419 . S
C566 C567 1.362 . S
C567 H559 0.930 . S
C567 C566 1.362 . S
C567 C570 1.409 . S
C568 H560 0.930 . S
C568 C569 1.355 1_455 S
C568 C570 1.415 . S
C569 C568 1.355 1_655 S
C569 C571 1.419 . S
C570 C565 1.425 1_455 S
C570 C567 1.409 . S
C570 C568 1.415 . S
C571 H561 0.930 . S
C571 C569 1.419 . S
C571 C572 1.362 . S
C572 H562 0.930 . S
C572 C565 1.409 . S
C572 C571 1.362 . S
C292 C20 1.175 . S
C297 C274 1.218 . S
C308 C41 1.287 . S
C313 C202 1.250 . S
C324 C64 1.302 . S
C329 C238 1.244 . S
C340 C19 1.278 . S
C345 C250 1.336 . S
C361 C178 1.266 . S
C356 C44 1.254 . S
C377 C214 1.280 . S
C372 C67 1.286 . S
C388 C43 1.230 . S
C393 C130 1.262 . S
C404 C66 1.206 . S
C409 C142 1.233 . S
C420 C21 1.253 . S
C425 C70 1.277 . S
C441 C106 1.307 . S
C436 C42 1.289 . S
C457 C166 1.263 . S
C452 C65 1.248 . S
C468 C18 1.300 . S
C473 C94 1.281 . S
C489 C172 1.467 1_554 S
C484 C17 1.459 . S
C500 C39 1.452 . S
C505 C100 1.445 . S
C516 C62 1.472 . S
C521 C136 1.464 . S
C537 C244 1.443 1_565 S
C532 C40 1.444 . S
C553 C280 1.462 1_556 S
C548 C63 1.458 . S
C564 C16 1.457 . S
C569 C208 1.461 1_655 S
