# Generated by pormake.
# Topology rtl, (3,6)-cn, num edge types: 1
# Building blocks:
#     Node 0, Type 0, BuildingBlock: VETTIZ_charged_linker_0, # of connection points: 3
#     Node 1, Type 0, BuildingBlock: VETTIZ_charged_linker_0, # of connection points: 3
#     Node 2, Type 0, BuildingBlock: VETTIZ_charged_linker_0, # of connection points: 3
#     Node 3, Type 0, BuildingBlock: VETTIZ_charged_linker_0, # of connection points: 3
#     Node 4, Type 1, BuildingBlock: LEVNOQ01_clean_sbu_1, # of connection points: 6
#     Node 5, Type 1, BuildingBlock: LEVNOQ01_clean_sbu_1, # of connection points: 6
#     Edge 6, Type (0, 1), BuildingBlock: UVAHIK_clean_linker_0, # of connection points: 2
#     Edge 7, Type (0, 1), BuildingBlock: UVAHIK_clean_linker_0, # of connection points: 2
#     Edge 8, Type (0, 1), BuildingBlock: UVAHIK_clean_linker_0, # of connection points: 2
#     Edge 9, Type (0, 1), BuildingBlock: UVAHIK_clean_linker_0, # of connection points: 2
#     Edge 10, Type (0, 1), BuildingBlock: UVAHIK_clean_linker_0, # of connection points: 2
#     Edge 11, Type (0, 1), BuildingBlock: UVAHIK_clean_linker_0, # of connection points: 2
#     Edge 12, Type (0, 1), BuildingBlock: UVAHIK_clean_linker_0, # of connection points: 2
#     Edge 13, Type (0, 1), BuildingBlock: UVAHIK_clean_linker_0, # of connection points: 2
#     Edge 14, Type (0, 1), BuildingBlock: UVAHIK_clean_linker_0, # of connection points: 2
#     Edge 15, Type (0, 1), BuildingBlock: UVAHIK_clean_linker_0, # of connection points: 2
#     Edge 16, Type (0, 1), BuildingBlock: UVAHIK_clean_linker_0, # of connection points: 2
#     Edge 17, Type (0, 1), BuildingBlock: UVAHIK_clean_linker_0, # of connection points: 2
# Relax obj value: 0.027
# Max RMSD: 0.061
# Mean RMSD: 0.048
data_MOF--net-rtl--node1-LEVNOQ01_clean_sbu_1--node2-VETTIZ_charged_linker_0--edge1-UVAHIK_clean_linker_0
_symmetry_space_group_name_H-M    P1
_symmetry_Int_Tables_number       1
_symmetry_cell_setting            triclinic
loop_
_symmetry_equiv_pos_as_xyz
'x, y, z'
_cell_length_a     45.982201
_cell_length_b     52.688582
_cell_length_c     37.020218
_cell_angle_alpha  90.001788
_cell_angle_beta   97.482726
_cell_angle_gamma 90.347449
loop_
_atom_site_label
_atom_site_type_symbol
_atom_site_fract_x
_atom_site_fract_y
_atom_site_fract_z
_atom_type_partial_charge
C0 C 0.22695 0.89478 0.95908 0.0
C1 C 0.20275 0.91099 0.95122 0.0
C2 C 0.1923 0.92421 0.97997 0.0
C3 C 0.22854 0.9038 0.02371 0.0
C4 C 0.23931 0.89131 0.99546 0.0
C5 C 0.2636 0.87327 0.00904 0.0
H6 H 0.33553 0.80807 0.1505 0.0
C7 C 0.2448 0.8948 0.05839 0.0
C8 C 0.26543 0.87688 0.05006 0.0
H9 H 0.34511 0.80139 0.03647 0.0
H10 H 0.31296 0.8373 0.0224 0.0
H11 H 0.34303 0.8678 0.15203 0.0
H12 H 0.26552 0.82084 0.1424 0.0
H13 H 0.26355 0.84414 0.17632 0.0
H14 H 0.29299 0.82176 0.18165 0.0
H15 H 0.32925 0.85521 0.1915 0.0
H16 H 0.31664 0.88518 0.17168 0.0
C17 C 0.29203 0.88221 0.99444 0.0
C18 C 0.25342 0.84613 -0.00302 0.0
C19 C 0.21464 0.92495 0.1784 0.0
C20 C 0.22475 0.91954 0.21517 0.0
C21 C 0.2491 0.90331 0.22302 0.0
C22 C 0.26229 0.89202 0.19496 0.0
C23 C 0.25123 0.89704 0.1585 0.0
C24 C 0.22834 0.91381 0.15077 0.0
C25 C 0.2201 0.91762 0.11049 0.0
C26 C 0.2417 0.90019 0.09529 0.0
C27 C 0.25954 0.88785 0.12352 0.0
C28 C 0.22572 0.94585 0.10168 0.0
C29 C 0.18789 0.90862 0.10026 0.0
C30 C 0.33056 0.81443 0.12257 0.0
C31 C 0.34224 0.8018 0.09439 0.0
C32 C 0.33609 0.81086 0.05845 0.0
C33 C 0.31731 0.83154 0.05037 0.0
C34 C 0.30461 0.8433 0.07856 0.0
C35 C 0.31218 0.83532 0.11412 0.0
C36 C 0.29828 0.85129 0.1408 0.0
C37 C 0.27981 0.86919 0.1152 0.0
C38 C 0.28321 0.86414 0.0787 0.0
C39 C 0.32292 0.86555 0.16554 0.0
C40 C 0.27911 0.83372 0.16166 0.0
H41 H 0.19593 0.93126 0.03665 0.0
H42 H 0.23532 0.88426 0.93755 0.0
H43 H 0.23007 0.84307 0.00087 0.0
H44 H 0.26561 0.83106 0.01289 0.0
H45 H 0.2553 0.84305 0.96769 0.0
H46 H 0.29268 0.90325 0.99198 0.0
H47 H 0.29361 0.87411 0.96707 0.0
H48 H 0.31204 0.87741 0.01303 0.0
H49 H 0.19586 0.93702 0.17095 0.0
H50 H 0.25801 0.89921 0.25092 0.0
H51 H 0.28038 0.87956 0.20274 0.0
H52 H 0.24556 0.95325 0.11901 0.0
H53 H 0.2069 0.95787 0.10672 0.0
H54 H 0.23029 0.94878 0.07341 0.0
H55 H 0.18266 0.89245 0.1177 0.0
H56 H 0.18333 0.90126 0.07217 0.0
H57 H 0.17225 0.92411 0.1039 0.0
H58 H 0.17396 0.93706 0.9745 0.0
C59 C 0.20515 0.92084 0.01605 0.0
C60 C 0.72488 0.60973 0.69683 0.0
C61 C 0.70542 0.58899 0.69734 0.0
C62 C 0.69434 0.57733 0.66403 0.0
C63 C 0.72079 0.60747 0.63077 0.0
C64 C 0.73228 0.61856 0.6634 0.0
C65 C 0.75229 0.64059 0.65792 0.0
H66 H 0.81509 0.71678 0.54192 0.0
C67 C 0.73189 0.62173 0.60089 0.0
C68 C 0.75055 0.64109 0.61663 0.0
H69 H 0.82423 0.72135 0.65961 0.0
H70 H 0.79289 0.6846 0.66133 0.0
H71 H 0.81694 0.65456 0.53514 0.0
H72 H 0.74798 0.70962 0.53216 0.0
H73 H 0.73441 0.68538 0.50205 0.0
H74 H 0.76619 0.70348 0.4931 0.0
H75 H 0.80881 0.67734 0.4992 0.0
H76 H 0.78997 0.64724 0.49822 0.0
C77 C 0.7835 0.63403 0.67641 0.0
C78 C 0.73919 0.66484 0.6729 0.0
C79 C 0.69519 0.59918 0.46905 0.0
C80 C 0.69936 0.61027 0.43541 0.0
C81 C 0.7191 0.63093 0.43556 0.0
C82 C 0.73396 0.6405 0.46829 0.0
C83 C 0.7289 0.6296 0.50158 0.0
C84 C 0.70983 0.60925 0.50154 0.0
C85 C 0.70626 0.60067 0.53952 0.0
C86 C 0.7262 0.61934 0.56235 0.0
C87 C 0.73952 0.63614 0.53998 0.0
C88 C 0.71758 0.57308 0.54432 0.0
C89 C 0.67363 0.60404 0.54492 0.0
C90 C 0.81028 0.71011 0.56817 0.0
C91 C 0.82232 0.72228 0.60067 0.0
C92 C 0.81571 0.71233 0.63411 0.0
C93 C 0.79724 0.69105 0.63506 0.0
C94 C 0.78495 0.67954 0.60224 0.0
C95 C 0.79161 0.68914 0.56955 0.0
C96 C 0.77574 0.67526 0.53724 0.0
C97 C 0.75882 0.65544 0.55587 0.0
C98 C 0.76431 0.65795 0.59397 0.0
C99 C 0.79891 0.66301 0.516 0.0
C100 C 0.7551 0.69429 0.51466 0.0
H101 H 0.69246 0.57682 0.60656 0.0
H102 H 0.73413 0.61895 0.7219 0.0
H103 H 0.71482 0.66453 0.66731 0.0
H104 H 0.74588 0.68239 0.65984 0.0
H105 H 0.7453 0.66646 0.70285 0.0
H106 H 0.7883 0.61358 0.67269 0.0
H107 H 0.78578 0.63787 0.70615 0.0
H108 H 0.80092 0.64436 0.66453 0.0
H109 H 0.68067 0.58304 0.47029 0.0
H110 H 0.72258 0.64026 0.41041 0.0
H111 H 0.74849 0.65631 0.46643 0.0
H112 H 0.73653 0.56999 0.529 0.0
H113 H 0.7002 0.55917 0.53405 0.0
H114 H 0.72598 0.56847 0.57288 0.0
H115 H 0.66439 0.62142 0.5308 0.0
H116 H 0.67039 0.60676 0.57366 0.0
H117 H 0.66015 0.58762 0.53363 0.0
H118 H 0.67908 0.56155 0.66344 0.0
C119 C 0.70194 0.58639 0.63089 0.0
C120 C 0.79482 0.12638 0.126 0.0
C121 C 0.81617 0.10736 0.13293 0.0
C122 C 0.82358 0.09287 0.10343 0.0
C123 C 0.78971 0.1171 0.06118 0.0
C124 C 0.78193 0.13087 0.09016 0.0
C125 C 0.75965 0.15095 0.07815 0.0
H126 H 0.68117 0.21639 0.94176 0.0
C127 C 0.77307 0.12723 0.02734 0.0
C128 C 0.75529 0.14697 0.03716 0.0
H129 H 0.6898 0.23073 0.05753 0.0
H130 H 0.71886 0.19293 0.06916 0.0
H131 H 0.74847 0.2029 0.94078 0.0
H132 H 0.6736 0.15408 0.9463 0.0
H133 H 0.69606 0.13942 0.91757 0.0
H134 H 0.67979 0.1698 0.90494 0.0
H135 H 0.71973 0.19896 0.90339 0.0
H136 H 0.75027 0.1776 0.91028 0.0
C137 C 0.77353 0.17724 0.08908 0.0
C138 C 0.73135 0.14478 0.09508 0.0
C139 C 0.7954 0.0959 0.90428 0.0
C140 C 0.78488 0.10274 0.86825 0.0
C141 C 0.76081 0.11931 0.86192 0.0
C142 C 0.74862 0.13012 0.89115 0.0
C143 C 0.76069 0.12439 0.92709 0.0
C144 C 0.78298 0.10681 0.93313 0.0
C145 C 0.79261 0.10247 0.97304 0.0
C146 C 0.77327 0.1211 0.98999 0.0
C147 C 0.75484 0.13413 0.96295 0.0
C148 C 0.82556 0.10963 0.98127 0.0
C149 C 0.78539 0.0746 0.98205 0.0
C150 C 0.68904 0.21104 0.96956 0.0
C151 C 0.68338 0.22646 -0.00117 0.0
C152 C 0.69416 0.21918 0.03464 0.0
C153 C 0.71106 0.19726 0.04129 0.0
C154 C 0.71777 0.18263 0.01178 0.0
C155 C 0.70652 0.18938 0.97664 0.0
C156 C 0.71721 0.17217 0.9487 0.0
C157 C 0.73689 0.15421 0.97289 0.0
C158 C 0.73709 0.16048 0.0098 0.0
C159 C 0.73472 0.18858 0.9242 0.0
C160 C 0.69039 0.15817 0.92795 0.0
H161 H 0.81736 0.08614 0.04646 0.0
H162 H 0.78824 0.13764 0.14801 0.0
H163 H 0.72689 0.12399 0.09433 0.0
H164 H 0.71157 0.15344 0.08004 0.0
H165 H 0.73342 0.15096 0.124 0.0
H166 H 0.79783 0.17687 0.09023 0.0
H167 H 0.76847 0.18323 0.11633 0.0
H168 H 0.76652 0.19225 0.06903 0.0
H169 H 0.81355 0.08286 0.90992 0.0
H170 H 0.75231 0.12483 0.83439 0.0
H171 H 0.73086 0.14314 0.88466 0.0
H172 H 0.83049 0.12694 0.9659 0.0
H173 H 0.83961 0.09409 0.9732 0.0
H174 H 0.83251 0.11434 0.01012 0.0
H175 H 0.76538 0.06775 0.96452 0.0
H176 H 0.78027 0.07224 0.01022 0.0
H177 H 0.80367 0.06176 0.97761 0.0
H178 H 0.84008 0.07822 0.10784 0.0
C179 C 0.81045 0.09759 0.0677 0.0
C180 C 0.25353 0.41564 0.36803 0.0
C181 C 0.27439 0.43543 0.36927 0.0
C182 C 0.28578 0.44557 0.40357 0.0
C183 C 0.25706 0.41548 0.43411 0.0
C184 C 0.24537 0.40595 0.40053 0.0
C185 C 0.22481 0.38399 0.40381 0.0
H186 H 0.1604 0.30182 0.5102 0.0
C187 C 0.24507 0.4003 0.46256 0.0
C188 C 0.22612 0.38185 0.44489 0.0
H189 H 0.15462 0.30249 0.39292 0.0
H190 H 0.18509 0.34025 0.39544 0.0
H191 H 0.22672 0.31052 0.52368 0.0
H192 H 0.1573 0.36508 0.52214 0.0
H193 H 0.18342 0.37123 0.5604 0.0
H194 H 0.16454 0.34108 0.55653 0.0
H195 H 0.20687 0.31459 0.56188 0.0
H196 H 0.23899 0.3334 0.55661 0.0
C197 C 0.23752 0.3602 0.38691 0.0
C198 C 0.19389 0.39169 0.3856 0.0
C199 C 0.27955 0.41744 0.59671 0.0
C200 C 0.27387 0.40542 0.62905 0.0
C201 C 0.2535 0.38519 0.6268 0.0
C202 C 0.23925 0.37693 0.59298 0.0
C203 C 0.24562 0.38879 0.56086 0.0
C204 C 0.26537 0.40878 0.56309 0.0
C205 C 0.2701 0.41862 0.52609 0.0
C206 C 0.25006 0.40115 0.50128 0.0
C207 C 0.2357 0.38377 0.52182 0.0
C208 C 0.30283 0.41492 0.52148 0.0
C209 C 0.25968 0.44651 0.52306 0.0
C210 C 0.16539 0.31047 0.48515 0.0
C211 C 0.15501 0.29955 0.45128 0.0
C212 C 0.16239 0.31079 0.41921 0.0
C213 C 0.18013 0.33262 0.42082 0.0
C214 C 0.19106 0.34304 0.45493 0.0
C215 C 0.1836 0.332 0.48637 0.0
C216 C 0.19872 0.34469 0.52021 0.0
C217 C 0.21629 0.36527 0.50391 0.0
C218 C 0.21157 0.36431 0.46567 0.0
C219 C 0.21876 0.3249 0.54205 0.0
C220 C 0.1749 0.35605 0.54127 0.0
H221 H 0.28696 0.44412 0.46102 0.0
H222 H 0.24393 0.40757 0.34228 0.0
H223 H 0.18918 0.41174 0.39218 0.0
H224 H 0.17614 0.38042 0.39529 0.0
H225 H 0.19214 0.39002 0.35548 0.0
H226 H 0.2619 0.36107 0.38965 0.0
H227 H 0.22933 0.3585 0.35743 0.0
H228 H 0.23269 0.34241 0.40083 0.0
H229 H 0.29534 0.43284 0.59745 0.0
H230 H 0.2485 0.37581 0.65131 0.0
H231 H 0.22403 0.36144 0.59314 0.0
H232 H 0.31153 0.39722 0.53518 0.0
H233 H 0.31647 0.431 0.53362 0.0
H234 H 0.30648 0.41258 0.49279 0.0
H235 H 0.23954 0.44904 0.53637 0.0
H236 H 0.25349 0.4527 0.49462 0.0
H237 H 0.27676 0.4596 0.5366 0.0
H238 H 0.30209 0.46059 0.40561 0.0
C239 C 0.27717 0.43579 0.43586 0.0
O240 O 0.00648 0.0499 0.62465 0.0
Mg241 Mg 0.04562 0.04493 0.60084 0.0
O242 O 0.97715 0.02685 0.5848 0.0
Mg243 Mg 0.0074 0.01071 0.5441 0.0
O244 O 0.03574 0.04729 0.54601 0.0
O245 O 0.06492 0.07528 0.57852 0.0
O246 O 0.03832 -0.00493 0.50521 0.0
O247 O 0.98132 0.03697 0.49663 0.0
Mg248 Mg 0.97338 0.99268 0.49798 0.0
O249 O 0.97935 0.97087 0.54401 0.0
O250 O 0.00393 0.99366 0.45866 0.0
O251 O 0.93875 0.01886 0.49399 0.0
O252 O 0.95384 0.95889 0.49086 0.0
C253 C 0.06033 0.99161 0.61237 0.0
C254 C 0.98123 0.04091 0.61322 0.0
C255 C 0.05171 0.06776 0.54747 0.0
C256 C 0.0308 0.99233 0.47122 0.0
C257 C 0.95382 0.03748 0.48595 0.0
C258 C 0.96281 0.95428 0.52458 0.0
O259 O 0.07177 0.01347 0.61628 0.0
O260 O 0.03622 0.98806 0.59142 0.0
O261 O 0.51691 0.48627 0.1193 0.0
Mg262 Mg 0.49333 0.46547 0.07567 0.0
O263 O 0.52199 0.51864 0.08292 0.0
Mg264 Mg 0.48908 0.50781 0.03143 0.0
O265 O 0.50889 0.46638 0.02619 0.0
O266 O 0.51281 0.43296 0.06453 0.0
O267 O 0.45536 0.49583 0.97965 0.0
O268 O 0.52699 0.5182 0.99572 0.0
Mg269 Mg 0.47268 0.55183 0.98212 0.0
O270 O 0.47209 0.54952 0.03705 0.0
O271 O 0.44066 0.53072 0.95002 0.0
O272 O 0.51472 0.55403 0.96678 0.0
O273 O 0.45833 0.58391 0.00319 0.0
C274 C 0.4369 0.48015 0.07775 0.0
C275 C 0.52757 0.50797 0.11397 0.0
C276 C 0.51716 0.44314 0.03402 0.0
C277 C 0.43912 0.50693 0.95374 0.0
C278 C 0.53294 0.53643 0.97497 0.0
C279 C 0.46253 0.57278 0.03445 0.0
O280 O 0.44882 0.45881 0.07637 0.0
O281 O 0.45 0.49974 0.06723 0.0
C282 C 0.15113 0.2531 0.43899 0.0
C283 C 0.13826 0.27548 0.44954 0.0
C284 C 0.13626 0.22991 0.43949 0.0
C285 C 0.07477 0.19941 0.48034 0.0
H286 H 0.09303 0.14286 0.42026 0.0
C287 C 0.03001 0.10012 0.50366 0.0
C288 C 0.05353 0.08408 0.5157 0.0
C289 C 0.03483 0.12231 0.48437 0.0
C290 C 0.08745 0.15858 0.43686 0.0
H291 H 0.09955 0.2917 0.46754 0.0
H292 H 0.07268 0.25147 0.46663 0.0
H293 H 0.11147 0.18524 0.40861 0.0
H294 H 0.09972 0.0772 0.51476 0.0
H295 H 0.10792 0.11523 0.4796 0.0
H296 H 0.05072 0.17259 0.50845 0.0
C297 C 0.09469 0.25142 0.45924 0.0
C298 C 0.0983 0.18286 0.43058 0.0
C299 C 0.1099 0.27454 0.45952 0.0
C300 C 0.08118 0.08908 0.50507 0.0
C301 C 0.08586 0.1109 0.48512 0.0
C302 C 0.06343 0.17528 0.48606 0.0
C303 C 0.10784 0.22862 0.44985 0.0
C304 C 0.09294 0.20351 0.45303 0.0
C305 C 0.06312 0.12842 0.47636 0.0
C306 C 0.07034 0.15449 0.46509 0.0
H307 H 0.17313 0.25345 0.43147 0.0
H308 H 0.14758 0.21292 0.43287 0.0
H309 H 0.07042 0.21448 0.49871 0.0
H310 H 0.00865 0.09686 0.51222 0.0
H311 H 0.01694 0.1355 0.47786 0.0
C312 C 0.34624 0.75667 0.11451 0.0
C313 C 0.35949 0.77841 0.10195 0.0
C314 C 0.36147 0.73373 0.11832 0.0
C315 C 0.42549 0.70207 0.08567 0.0
H316 H 0.40616 0.64843 0.15045 0.0
C317 C 0.47891 0.60632 0.07859 0.0
C318 C 0.45772 0.58795 0.06628 0.0
C319 C 0.47083 0.62841 0.09552 0.0
C320 C 0.41195 0.66336 0.13252 0.0
H321 H 0.39928 0.7939 0.0853 0.0
H322 H 0.42669 0.75438 0.09398 0.0
H323 H 0.38527 0.69071 0.15523 0.0
H324 H 0.41223 0.57691 0.06478 0.0
H325 H 0.39812 0.61526 0.0954 0.0
H326 H 0.45223 0.67475 0.06318 0.0
C327 C 0.40414 0.75447 0.09944 0.0
C328 C 0.39977 0.68754 0.1349 0.0
C329 C 0.38861 0.77723 0.09476 0.0
C330 C 0.42906 0.59057 0.07486 0.0
C331 C 0.42098 0.61261 0.09213 0.0
C332 C 0.43808 0.67816 0.08388 0.0
C333 C 0.39056 0.73216 0.11036 0.0
C334 C 0.40586 0.70713 0.11092 0.0
C335 C 0.44141 0.6324 0.10043 0.0
C336 C 0.43106 0.65843 0.10678 0.0
H337 H 0.32366 0.75718 0.11995 0.0
H338 H 0.34992 0.71707 0.12615 0.0
H339 H 0.43029 0.71618 0.06603 0.0
H340 H 0.501 0.6049 0.07154 0.0
H341 H 0.48702 0.64331 0.10187 0.0
C342 C 0.83488 0.76298 0.57054 0.0
C343 C 0.84091 0.74557 0.59935 0.0
C344 C 0.85275 0.78422 0.56801 0.0
C345 C 0.90157 0.8299 0.61726 0.0
H346 H 0.92907 0.83953 0.52352 0.0
C347 C 0.96467 0.92098 0.57466 0.0
C348 C 0.95316 0.93004 0.53997 0.0
C349 C 0.95546 0.8973 0.58702 0.0
C350 C 0.92164 0.83715 0.54992 0.0
H351 H 0.87036 0.73765 0.64881 0.0
H352 H 0.90105 0.77553 0.64483 0.0
H353 H 0.90379 0.80035 0.53575 0.0
H354 H 0.92203 0.92167 0.49195 0.0
H355 H 0.90628 0.88139 0.5133 0.0
H356 H 0.91816 0.86749 0.63056 0.0
C357 C 0.88252 0.77226 0.62408 0.0
C358 C 0.90721 0.81469 0.55689 0.0
C359 C 0.86484 0.75064 0.62635 0.0
C360 C 0.93188 0.91529 0.51855 0.0
C361 C 0.92285 0.89197 0.53073 0.0
C362 C 0.91586 0.85267 0.61011 0.0
C363 C 0.87688 0.78899 0.59452 0.0
C364 C 0.89617 0.81115 0.59011 0.0
C365 C 0.93479 0.88238 0.56474 0.0
C366 C 0.92505 0.85686 0.57579 0.0
H367 H 0.81621 0.76032 0.54983 0.0
H368 H 0.84761 0.79708 0.54526 0.0
H369 H 0.89328 0.82756 0.64315 0.0
H370 H 0.981 0.93192 0.59189 0.0
H371 H 0.96492 0.89043 0.61351 0.0
C372 C 0.68176 0.27342 0.00605 0.0
C373 C 0.66798 0.25095 0.9924 0.0
C374 C 0.66711 0.29657 0.00188 0.0
C375 C 0.59977 0.32815 0.95427 0.0
H376 H 0.61478 0.37455 0.03595 0.0
C377 C 0.52092 0.40509 0.99589 0.0
C378 C 0.53325 0.42805 0.00991 0.0
C379 C 0.5387 0.38618 0.9841 0.0
C380 C 0.61071 0.36204 0.01257 0.0
H381 H 0.62837 0.23492 0.96308 0.0
H382 H 0.60197 0.2752 0.9572 0.0
H383 H 0.64264 0.33566 0.03606 0.0
H384 H 0.57332 0.44996 0.02105 0.0
H385 H 0.60467 0.41672 0.0008 0.0
H386 H 0.56627 0.35421 0.93225 0.0
C387 C 0.62445 0.27522 0.97023 0.0
C388 C 0.62677 0.33965 0.01254 0.0
C389 C 0.63943 0.25207 0.97377 0.0
C390 C 0.56329 0.43259 0.00958 0.0
C391 C 0.58121 0.41349 -0.0016 0.0
C392 C 0.58329 0.35044 0.95466 0.0
C393 C 0.63797 0.29779 0.98467 0.0
C394 C 0.62149 0.32225 0.9835 0.0
C395 C 0.56923 0.38971 0.98702 0.0
C396 C 0.58855 0.36755 0.98392 0.0
H397 H 0.70398 0.27305 0.02004 0.0
H398 H 0.67869 0.31349 0.01244 0.0
H399 H 0.59531 0.31552 0.93113 0.0
H400 H 0.49788 0.40104 0.99666 0.0
H401 H 0.5289 0.36801 0.97576 0.0
C402 C 0.19522 0.95367 0.24115 0.0
C403 C 0.20913 0.92987 0.24487 0.0
C404 C 0.17808 0.96215 0.26719 0.0
C405 C 0.16522 0.96013 0.36038 0.0
H406 H 0.08214 0.96442 0.32571 0.0
C407 C 0.07912 0.97474 0.45939 0.0
C408 C 0.05296 0.98729 0.44664 0.0
C409 C 0.0994 0.9689 0.43558 0.0
C410 C 0.10528 0.96394 0.33589 0.0
H411 H 0.21646 0.89688 0.28012 0.0
H412 H 0.18767 0.91247 0.3263 0.0
H413 H 0.1164 0.9534 0.28347 0.0
H414 H 0.028 0.00464 0.39952 0.0
H415 H 0.06392 -0.00408 0.35849 0.0
H416 H 0.15461 0.97157 0.41246 0.0
C417 C 0.18994 0.92423 0.30281 0.0
C418 C 0.12484 0.9574 0.31162 0.0
C419 C 0.20657 0.91544 0.27638 0.0
C420 C 0.04784 -0.00539 0.40995 0.0
C421 C 0.06841 0.98939 0.38636 0.0
C422 C 0.14575 0.9673 0.38458 0.0
C423 C 0.17508 0.94738 0.29798 0.0
C424 C 0.15488 0.95528 0.32371 0.0
C425 C 0.0943 0.97605 0.39861 0.0
C426 C 0.11541 0.96914 0.37276 0.0
H427 H 0.19723 0.9657 0.21789 0.0
H428 H 0.16691 0.98018 0.26315 0.0
H429 H 0.1884 0.95865 0.37017 0.0
H430 H 0.08353 0.96875 0.48756 0.0
H431 H 0.1187 0.95824 0.44612 0.0
C432 C 0.69182 0.55411 0.73877 0.0
C433 C 0.69563 0.58013 0.73209 0.0
C434 C 0.68053 0.54595 0.77018 0.0
C435 C 0.66482 0.56758 0.86154 0.0
H436 H 0.60361 0.51621 0.84842 0.0
C437 C 0.57234 0.5609 0.95052 0.0
C438 C 0.56047 0.5372 0.95828 0.0
C439 C 0.59482 0.56269 0.92875 0.0
C440 C 0.6211 0.53016 0.85284 0.0
H441 H 0.69083 0.61794 0.7536 0.0
H442 H 0.67112 0.60379 0.80813 0.0
H443 H 0.63132 0.52618 0.79836 0.0
H444 H 0.5638 0.4966 0.95086 0.0
H445 H 0.60326 0.49971 0.9121 0.0
H446 H 0.65371 0.57227 0.91556 0.0
C447 C 0.6773 0.58959 0.78945 0.0
C448 C 0.63699 0.53594 0.82407 0.0
C449 C 0.68861 0.59774 0.75809 0.0
C450 C 0.57268 0.5151 0.94545 0.0
C451 C 0.59505 0.51692 0.92305 0.0
C452 C 0.6489 0.56184 0.89024 0.0
C453 C 0.67277 0.5636 0.79571 0.0
C454 C 0.65851 0.55523 0.82772 0.0
C455 C 0.60586 0.54082 0.91378 0.0
C456 C 0.62628 0.54357 0.88591 0.0
H457 H 0.69745 0.54 0.7196 0.0
H458 H 0.67776 0.52578 0.77436 0.0
H459 H 0.68167 0.58213 0.86562 0.0
H460 H 0.56337 0.57825 0.9601 0.0
H461 H 0.60234 0.58139 0.92193 0.0
C462 C 0.83682 0.07816 0.18356 0.0
C463 C 0.83097 0.10294 0.17062 0.0
C464 C 0.8506 0.07405 0.21901 0.0
C465 C 0.89647 0.10533 0.29636 0.0
H466 H 0.86765 0.05034 0.35174 0.0
C467 C 0.91023 0.05721 0.45006 0.0
C468 C 0.94087 0.05483 0.45686 0.0
C469 C 0.89692 0.06736 0.41724 0.0
C470 C 0.87579 0.06601 0.3369 0.0
H471 H 0.83566 0.14285 0.18473 0.0
H472 H 0.85921 0.13565 0.2468 0.0
H473 H 0.84439 0.05863 0.29019 0.0
H474 H 0.98174 0.06325 0.43594 0.0
H475 H 0.95843 0.08084 0.37828 0.0
H476 H 0.92782 0.11273 0.34346 0.0
C477 C 0.85332 0.1194 0.22941 0.0
C478 C 0.86269 0.07051 0.30132 0.0
C479 C 0.83948 0.1235 0.19396 0.0
C480 C 0.95807 0.06493 0.43153 0.0
C481 C 0.94468 0.07494 0.39841 0.0
C482 C 0.90968 0.10077 0.33206 0.0
C483 C 0.85893 0.09461 0.24245 0.0
C484 C 0.8729 0.09015 0.28051 0.0
C485 C 0.91389 0.07518 0.39025 0.0
C486 C 0.89946 0.08105 0.35279 0.0
H487 H 0.83039 0.06188 0.16644 0.0
H488 H 0.85489 0.05472 0.22801 0.0
H489 H 0.90505 0.12049 0.28097 0.0
H490 H 0.89642 0.04981 0.46924 0.0
H491 H 0.87319 0.06797 0.41231 0.0
C492 C 0.30188 0.39576 0.69049 0.0
C493 C 0.28952 0.41367 0.66487 0.0
C494 C 0.31774 0.40364 0.72352 0.0
C495 C 0.35692 0.46023 0.7662 0.0
H496 H 0.35344 0.42423 0.857 0.0
C497 C 0.39852 0.50602 0.90217 0.0
C498 C 0.41926 0.49257 0.92601 0.0
C499 C 0.38236 0.49401 0.87255 0.0
C500 C 0.35481 0.43427 0.83174 0.0
H501 H 0.28309 0.45382 0.65446 0.0
H502 H 0.31002 0.46759 0.71218 0.0
H503 H 0.32542 0.40831 0.80053 0.0
H504 H 0.43784 0.45538 0.93857 0.0
H505 H 0.409 0.43412 0.8863 0.0
H506 H 0.38558 0.4865 0.79742 0.0
C507 C 0.30834 0.44745 0.70646 0.0
C508 C 0.33881 0.42519 0.79937 0.0
C509 C 0.29277 0.43958 0.67337 0.0
C510 C 0.4221 0.46629 0.92067 0.0
C511 C 0.40564 0.45414 0.89081 0.0
C512 C 0.37256 0.46937 0.79843 0.0
C513 C 0.32144 0.42962 0.73181 0.0
C514 C 0.33932 0.43831 0.76624 0.0
C515 C 0.38629 0.46815 0.86587 0.0
C516 C 0.37136 0.45675 0.83163 0.0
H517 H 0.29996 0.37564 0.68457 0.0
H518 H 0.32772 0.38936 0.74211 0.0
H519 H 0.35865 0.47045 0.74118 0.0
H520 H 0.39531 0.52618 0.90568 0.0
H521 H 0.36716 0.50517 0.85425 0.0
C522 C 0.69477 0.60158 0.36764 0.0
C523 C 0.68249 0.60096 0.40056 0.0
C524 C 0.67852 0.59358 0.33492 0.0
C525 C 0.60145 0.57875 0.29367 0.0
H526 H 0.63987 0.54473 0.22011 0.0
C527 C 0.54165 0.51506 0.18062 0.0
C528 C 0.5457 0.52098 0.14458 0.0
C529 C 0.55849 0.527 0.20994 0.0
C530 C 0.62896 0.55445 0.2403 0.0
H531 H 0.64306 0.59134 0.42426 0.0
H532 H 0.61569 0.576 0.36823 0.0
H533 H 0.66913 0.56052 0.27546 0.0
H534 H 0.57077 0.54396 0.111 0.0
H535 H 0.60119 0.56429 0.16275 0.0
H536 H 0.56114 0.57133 0.2591 0.0
C537 C 0.63757 0.58341 0.36725 0.0
C538 C 0.64568 0.56362 0.27202 0.0
C539 C 0.65361 0.59179 0.39979 0.0
C540 C 0.56714 0.53907 0.13848 0.0
C541 C 0.58456 0.55061 0.16799 0.0
C542 C 0.58476 0.56915 0.26234 0.0
C543 C 0.64964 0.58437 0.33421 0.0
C544 C 0.63213 0.57566 0.29943 0.0
C545 C 0.58023 0.54474 0.20395 0.0
C546 C 0.59831 0.55673 0.23553 0.0
H547 H 0.71705 0.60814 0.36702 0.0
H548 H 0.6886 0.59491 0.31014 0.0
H549 H 0.59017 0.58851 0.31344 0.0
H550 H 0.5252 0.50132 0.18623 0.0
H551 H 0.55484 0.52207 0.23741 0.0
C552 C 0.83147 0.09757 0.84136 0.0
C553 C 0.80085 0.0947 0.83788 0.0
C554 C 0.84682 0.09172 0.81239 0.0
C555 C 0.84754 0.05365 0.73141 0.0
H556 H 0.90186 0.10524 0.70598 0.0
C557 C 0.92785 0.03815 0.62308 0.0
C558 C 0.9566 0.04705 0.63394 0.0
C559 C 0.90512 0.04426 0.64346 0.0
C560 C 0.8869 0.09056 0.71279 0.0
H561 H 0.76232 0.08291 0.80159 0.0
H562 H 0.78956 0.07203 0.75074 0.0
H563 H 0.86907 0.11472 0.75073 0.0
H564 H 0.98386 0.06914 0.67501 0.0
H565 H 0.94485 0.07931 0.71022 0.0
H566 H 0.86647 0.02906 0.69464 0.0
C567 C 0.80145 0.07904 0.77599 0.0
C568 C 0.86806 0.09606 0.73831 0.0
C569 C 0.78593 0.08533 0.80493 0.0
C570 C 0.96203 0.06206 0.66553 0.0
C571 C 0.93951 0.0681 0.6857 0.0
C572 C 0.86672 0.04801 0.70601 0.0
C573 C 0.83199 0.08259 0.77936 0.0
C574 C 0.84879 0.07748 0.74862 0.0
C575 C 0.91073 0.05947 0.6749 0.0
C576 C 0.88726 0.0662 0.6973 0.0
H577 H 0.84353 0.10501 0.86624 0.0
H578 H 0.8704 0.09442 0.81578 0.0
H579 H 0.83284 0.03901 0.73896 0.0
H580 H 0.92291 0.02653 0.59891 0.0
H581 H 0.88316 0.03735 0.6344 0.0
C582 C 0.28948 0.42734 0.30736 0.0
C583 C 0.28523 0.44458 0.33521 0.0
C584 C 0.30061 0.43553 0.27595 0.0
C585 C 0.3461 0.48542 0.24231 0.0
H586 H 0.31689 0.4567 0.14802 0.0
C587 C 0.40528 0.50438 0.11626 0.0
C588 C 0.41093 0.48214 0.09747 0.0
C589 C 0.38481 0.50412 0.14129 0.0
C590 C 0.32535 0.46491 0.17413 0.0
H591 H 0.28891 0.48423 0.35113 0.0
H592 H 0.30888 0.49842 0.29645 0.0
H593 H 0.29142 0.44763 0.20041 0.0
H594 H 0.39798 0.44281 0.08805 0.0
H595 H 0.36259 0.44234 0.13117 0.0
H596 H 0.38072 0.50186 0.2164 0.0
C597 C 0.30363 0.4785 0.29917 0.0
C598 C 0.31075 0.45968 0.20417 0.0
C599 C 0.29226 0.47033 0.33057 0.0
C600 C 0.39421 0.46025 0.10218 0.0
C601 C 0.37374 0.46003 0.12686 0.0
C602 C 0.36081 0.49056 0.21226 0.0
C603 C 0.308 0.46117 0.27153 0.0
C604 C 0.32138 0.46933 0.23882 0.0
C605 C 0.36941 0.48169 0.14765 0.0
C606 C 0.35108 0.4798 0.17798 0.0
H607 H 0.28499 0.40729 0.31019 0.0
H608 H 0.30424 0.42158 0.25554 0.0
H609 H 0.35499 0.49302 0.26866 0.0
H610 H 0.41788 0.52153 0.1133 0.0
H611 H 0.38173 0.52123 0.15651 0.0
C612 C 0.20321 0.91791 0.88409 0.0
C613 C 0.18747 0.91339 0.91353 0.0
C614 C 0.18843 0.92094 0.84882 0.0
C615 C 0.11448 0.93626 0.80046 0.0
H616 H 0.14952 0.9163 0.7151 0.0
C617 C 0.0561 0.9565 0.65682 0.0
C618 C 0.0736 0.97149 0.63676 0.0
C619 C 0.06893 0.94317 0.68755 0.0
C620 C 0.13939 0.9218 0.73872 0.0
H621 H 0.14413 0.90738 0.92901 0.0
H622 H 0.11841 0.91188 0.86762 0.0
H623 H 0.17413 0.90585 0.77575 0.0
H624 H 0.11817 0.98249 0.63078 0.0
H625 H 0.14057 0.9587 0.68352 0.0
H626 H 0.07989 0.95234 0.76339 0.0
C627 C 0.14205 0.91397 0.87166 0.0
C628 C 0.15361 0.91604 0.77352 0.0
C629 C 0.15678 0.9113 0.90689 0.0
C630 C 0.10423 0.97099 0.64577 0.0
C631 C 0.11705 0.95735 0.67598 0.0
C632 C 0.10014 0.94171 0.76573 0.0
C633 C 0.15759 0.91917 0.84214 0.0
C634 C 0.1416 0.92361 0.80491 0.0
C635 C 0.09945 0.94427 0.69818 0.0
C636 C 0.11266 0.93495 0.73448 0.0
H637 H 0.22688 0.91974 0.88849 0.0
H638 H 0.20119 0.92533 0.827 0.0
H639 H 0.10474 0.94287 0.82381 0.0
H640 H 0.03242 0.95678 0.65063 0.0
H641 H 0.05488 0.93305 0.70405 0.0
loop_
_geom_bond_atom_site_label_1
_geom_bond_atom_site_label_2
_geom_bond_distance
_geom_bond_site_symmetry_2
_ccdc_geom_bond_type
C0 C1 1.391 . S
C0 C4 1.391 . S
C0 H42 0.948 . S
C1 C0 1.391 . S
C1 C2 1.391 . S
C2 C1 1.391 . S
C2 H58 0.947 . S
C2 C59 1.392 1_556 S
C3 C4 1.391 1_554 S
C3 C7 1.397 . S
C3 C59 1.419 . S
C4 C0 1.391 . S
C4 C3 1.391 1_556 S
C4 C5 1.399 1_556 S
C5 C4 1.399 1_554 S
C5 C8 1.396 . S
C5 C17 1.453 1_554 S
C5 C18 1.684 1_554 S
H6 C30 0.948 . S
C7 C3 1.397 . S
C7 C8 1.394 . S
C7 C26 1.723 . S
C8 C5 1.396 . S
C8 C7 1.394 . S
C8 C38 1.723 . S
H9 C32 0.947 . S
H10 C33 0.948 . S
H11 C39 0.982 . S
H12 C40 0.979 . S
H13 C40 0.980 . S
H14 C40 0.983 . S
H15 C39 0.979 . S
H16 C39 0.977 . S
C17 C5 1.453 1_556 S
C17 H46 0.982 1_556 S
C17 H47 0.979 . S
C17 H48 0.977 1_556 S
C18 C5 1.684 1_556 S
C18 H43 0.979 . S
C18 H44 0.980 . S
C18 H45 0.983 . S
C19 C20 1.391 . S
C19 C24 1.391 . S
C19 H49 0.948 . S
C20 C19 1.391 . S
C20 C21 1.391 . S
C21 C20 1.391 . S
C21 C22 1.392 . S
C21 H50 0.947 . S
C22 C21 1.392 . S
C22 C23 1.419 . S
C22 H51 0.948 . S
C23 C22 1.419 . S
C23 C24 1.391 . S
C23 C27 1.397 . S
C24 C19 1.391 . S
C24 C23 1.391 . S
C24 C25 1.399 . S
C25 C24 1.399 . S
C25 C26 1.396 . S
C25 C28 1.453 . S
C25 C29 1.684 . S
C26 C7 1.723 . S
C26 C25 1.396 . S
C26 C27 1.394 . S
C27 C23 1.397 . S
C27 C26 1.394 . S
C27 C37 1.723 . S
C28 C25 1.453 . S
C28 H52 0.982 . S
C28 H53 0.979 . S
C28 H54 0.977 . S
C29 C25 1.684 . S
C29 H55 0.979 . S
C29 H56 0.980 . S
C29 H57 0.983 . S
C30 H6 0.948 . S
C30 C31 1.391 . S
C30 C35 1.391 . S
C31 C30 1.391 . S
C31 C32 1.391 . S
C32 H9 0.947 . S
C32 C31 1.391 . S
C32 C33 1.392 . S
C33 H10 0.948 . S
C33 C32 1.392 . S
C33 C34 1.419 . S
C34 C33 1.419 . S
C34 C35 1.391 . S
C34 C38 1.397 . S
C35 C30 1.391 . S
C35 C34 1.391 . S
C35 C36 1.399 . S
C36 C35 1.399 . S
C36 C37 1.396 . S
C36 C39 1.453 . S
C36 C40 1.684 . S
C37 C27 1.723 . S
C37 C36 1.396 . S
C37 C38 1.394 . S
C38 C8 1.723 . S
C38 C34 1.397 . S
C38 C37 1.394 . S
C39 H11 0.982 . S
C39 H15 0.979 . S
C39 H16 0.977 . S
C39 C36 1.453 . S
C40 H12 0.979 . S
C40 H13 0.980 . S
C40 H14 0.983 . S
C40 C36 1.684 . S
H41 C59 0.948 . S
H42 C0 0.948 . S
H43 C18 0.979 . S
H44 C18 0.980 . S
H45 C18 0.983 . S
H46 C17 0.982 1_554 S
H47 C17 0.979 . S
H48 C17 0.977 1_554 S
H49 C19 0.948 . S
H50 C21 0.947 . S
H51 C22 0.948 . S
H52 C28 0.982 . S
H53 C28 0.979 . S
H54 C28 0.977 . S
H55 C29 0.979 . S
H56 C29 0.980 . S
H57 C29 0.983 . S
H58 C2 0.947 . S
C59 C2 1.392 1_554 S
C59 C3 1.419 . S
C59 H41 0.948 . S
C60 C61 1.391 . S
C60 C64 1.391 . S
C60 H102 0.948 . S
C61 C60 1.391 . S
C61 C62 1.391 . S
C62 C61 1.391 . S
C62 H118 0.947 . S
C62 C119 1.392 . S
C63 C64 1.391 . S
C63 C67 1.397 . S
C63 C119 1.419 . S
C64 C60 1.391 . S
C64 C63 1.391 . S
C64 C65 1.399 . S
C65 C64 1.399 . S
C65 C68 1.396 . S
C65 C77 1.453 . S
C65 C78 1.684 . S
H66 C90 0.948 . S
C67 C63 1.397 . S
C67 C68 1.394 . S
C67 C86 1.723 . S
C68 C65 1.396 . S
C68 C67 1.394 . S
C68 C98 1.723 . S
H69 C92 0.947 . S
H70 C93 0.948 . S
H71 C99 0.982 . S
H72 C100 0.979 . S
H73 C100 0.980 . S
H74 C100 0.983 . S
H75 C99 0.979 . S
H76 C99 0.977 . S
C77 C65 1.453 . S
C77 H106 0.982 . S
C77 H107 0.979 . S
C77 H108 0.977 . S
C78 C65 1.684 . S
C78 H103 0.979 . S
C78 H104 0.980 . S
C78 H105 0.983 . S
C79 C80 1.391 . S
C79 C84 1.391 . S
C79 H109 0.948 . S
C80 C79 1.391 . S
C80 C81 1.391 . S
C81 C80 1.391 . S
C81 C82 1.392 . S
C81 H110 0.947 . S
C82 C81 1.392 . S
C82 C83 1.419 . S
C82 H111 0.948 . S
C83 C82 1.419 . S
C83 C84 1.391 . S
C83 C87 1.397 . S
C84 C79 1.391 . S
C84 C83 1.391 . S
C84 C85 1.399 . S
C85 C84 1.399 . S
C85 C86 1.396 . S
C85 C88 1.453 . S
C85 C89 1.684 . S
C86 C67 1.723 . S
C86 C85 1.396 . S
C86 C87 1.394 . S
C87 C83 1.397 . S
C87 C86 1.394 . S
C87 C97 1.723 . S
C88 C85 1.453 . S
C88 H112 0.982 . S
C88 H113 0.979 . S
C88 H114 0.977 . S
C89 C85 1.684 . S
C89 H115 0.979 . S
C89 H116 0.980 . S
C89 H117 0.983 . S
C90 H66 0.948 . S
C90 C91 1.391 . S
C90 C95 1.391 . S
C91 C90 1.391 . S
C91 C92 1.391 . S
C92 H69 0.947 . S
C92 C91 1.391 . S
C92 C93 1.392 . S
C93 H70 0.948 . S
C93 C92 1.392 . S
C93 C94 1.419 . S
C94 C93 1.419 . S
C94 C95 1.391 . S
C94 C98 1.397 . S
C95 C90 1.391 . S
C95 C94 1.391 . S
C95 C96 1.399 . S
C96 C95 1.399 . S
C96 C97 1.396 . S
C96 C99 1.453 . S
C96 C100 1.684 . S
C97 C87 1.723 . S
C97 C96 1.396 . S
C97 C98 1.394 . S
C98 C68 1.723 . S
C98 C94 1.397 . S
C98 C97 1.394 . S
C99 H71 0.982 . S
C99 H75 0.979 . S
C99 H76 0.977 . S
C99 C96 1.453 . S
C100 H72 0.979 . S
C100 H73 0.980 . S
C100 H74 0.983 . S
C100 C96 1.684 . S
H101 C119 0.948 . S
H102 C60 0.948 . S
H103 C78 0.979 . S
H104 C78 0.980 . S
H105 C78 0.983 . S
H106 C77 0.982 . S
H107 C77 0.979 . S
H108 C77 0.977 . S
H109 C79 0.948 . S
H110 C81 0.947 . S
H111 C82 0.948 . S
H112 C88 0.982 . S
H113 C88 0.979 . S
H114 C88 0.977 . S
H115 C89 0.979 . S
H116 C89 0.980 . S
H117 C89 0.983 . S
H118 C62 0.947 . S
C119 C62 1.392 . S
C119 C63 1.419 . S
C119 H101 0.948 . S
C120 C121 1.391 . S
C120 C124 1.391 . S
C120 H162 0.948 . S
C121 C120 1.391 . S
C121 C122 1.391 . S
C122 C121 1.391 . S
C122 H178 0.947 . S
C122 C179 1.392 . S
C123 C124 1.391 . S
C123 C127 1.397 . S
C123 C179 1.419 . S
C124 C120 1.391 . S
C124 C123 1.391 . S
C124 C125 1.399 . S
C125 C124 1.399 . S
C125 C128 1.396 . S
C125 C137 1.453 . S
C125 C138 1.684 . S
H126 C150 0.948 . S
C127 C123 1.397 . S
C127 C128 1.394 . S
C127 C146 1.723 1_554 S
C128 C125 1.396 . S
C128 C127 1.394 . S
C128 C158 1.723 . S
H129 C152 0.947 . S
H130 C153 0.948 . S
H131 C159 0.982 . S
H132 C160 0.979 . S
H133 C160 0.980 . S
H134 C160 0.983 . S
H135 C159 0.979 . S
H136 C159 0.977 . S
C137 C125 1.453 . S
C137 H166 0.982 . S
C137 H167 0.979 . S
C137 H168 0.977 . S
C138 C125 1.684 . S
C138 H163 0.979 . S
C138 H164 0.980 . S
C138 H165 0.983 . S
C139 C140 1.391 . S
C139 C144 1.391 . S
C139 H169 0.948 . S
C140 C139 1.391 . S
C140 C141 1.391 . S
C141 C140 1.391 . S
C141 C142 1.392 . S
C141 H170 0.947 . S
C142 C141 1.392 . S
C142 C143 1.419 . S
C142 H171 0.948 . S
C143 C142 1.419 . S
C143 C144 1.391 . S
C143 C147 1.397 . S
C144 C139 1.391 . S
C144 C143 1.391 . S
C144 C145 1.399 . S
C145 C144 1.399 . S
C145 C146 1.396 . S
C145 C148 1.453 . S
C145 C149 1.684 . S
C146 C127 1.723 1_556 S
C146 C145 1.396 . S
C146 C147 1.394 . S
C147 C143 1.397 . S
C147 C146 1.394 . S
C147 C157 1.723 . S
C148 C145 1.453 . S
C148 H172 0.982 . S
C148 H173 0.979 . S
C148 H174 0.977 1_556 S
C149 C145 1.684 . S
C149 H175 0.979 . S
C149 H176 0.980 1_556 S
C149 H177 0.983 . S
C150 H126 0.948 . S
C150 C151 1.401 . S
C150 C155 1.391 . S
C151 C150 1.401 . S
C151 C152 1.381 1_556 S
C152 H129 0.947 . S
C152 C151 1.381 1_554 S
C152 C153 1.392 . S
C153 H130 0.948 . S
C153 C152 1.392 . S
C153 C154 1.419 . S
C154 C153 1.419 . S
C154 C155 1.391 1_554 S
C154 C158 1.397 . S
C155 C150 1.391 . S
C155 C154 1.391 1_556 S
C155 C156 1.399 . S
C156 C155 1.399 . S
C156 C157 1.396 . S
C156 C159 1.453 . S
C156 C160 1.684 . S
C157 C147 1.723 . S
C157 C156 1.396 . S
C157 C158 1.394 1_556 S
C158 C128 1.723 . S
C158 C154 1.397 . S
C158 C157 1.394 1_554 S
C159 H131 0.982 . S
C159 H135 0.979 . S
C159 H136 0.977 . S
C159 C156 1.453 . S
C160 H132 0.979 . S
C160 H133 0.980 . S
C160 H134 0.983 . S
C160 C156 1.684 . S
H161 C179 0.948 . S
H162 C120 0.948 . S
H163 C138 0.979 . S
H164 C138 0.980 . S
H165 C138 0.983 . S
H166 C137 0.982 . S
H167 C137 0.979 . S
H168 C137 0.977 . S
H169 C139 0.948 . S
H170 C141 0.947 . S
H171 C142 0.948 . S
H172 C148 0.982 . S
H173 C148 0.979 . S
H174 C148 0.977 1_554 S
H175 C149 0.979 . S
H176 C149 0.980 1_554 S
H177 C149 0.983 . S
H178 C122 0.947 . S
C179 C122 1.392 . S
C179 C123 1.419 . S
C179 H161 0.948 . S
C180 C181 1.391 . S
C180 C184 1.391 . S
C180 H222 0.948 . S
C181 C180 1.391 . S
C181 C182 1.391 . S
C182 C181 1.391 . S
C182 H238 0.947 . S
C182 C239 1.392 . S
C183 C184 1.391 . S
C183 C187 1.397 . S
C183 C239 1.419 . S
C184 C180 1.391 . S
C184 C183 1.391 . S
C184 C185 1.399 . S
C185 C184 1.399 . S
C185 C188 1.396 . S
C185 C197 1.453 . S
C185 C198 1.684 . S
H186 C210 0.948 . S
C187 C183 1.397 . S
C187 C188 1.394 . S
C187 C206 1.723 . S
C188 C185 1.396 . S
C188 C187 1.394 . S
C188 C218 1.723 . S
H189 C212 0.947 . S
H190 C213 0.948 . S
H191 C219 0.982 . S
H192 C220 0.979 . S
H193 C220 0.980 . S
H194 C220 0.983 . S
H195 C219 0.979 . S
H196 C219 0.977 . S
C197 C185 1.453 . S
C197 H226 0.982 . S
C197 H227 0.979 . S
C197 H228 0.977 . S
C198 C185 1.684 . S
C198 H223 0.979 . S
C198 H224 0.980 . S
C198 H225 0.983 . S
C199 C200 1.391 . S
C199 C204 1.391 . S
C199 H229 0.948 . S
C200 C199 1.391 . S
C200 C201 1.391 . S
C201 C200 1.391 . S
C201 C202 1.392 . S
C201 H230 0.947 . S
C202 C201 1.392 . S
C202 C203 1.419 . S
C202 H231 0.948 . S
C203 C202 1.419 . S
C203 C204 1.391 . S
C203 C207 1.397 . S
C204 C199 1.391 . S
C204 C203 1.391 . S
C204 C205 1.399 . S
C205 C204 1.399 . S
C205 C206 1.396 . S
C205 C208 1.453 . S
C205 C209 1.684 . S
C206 C187 1.723 . S
C206 C205 1.396 . S
C206 C207 1.394 . S
C207 C203 1.397 . S
C207 C206 1.394 . S
C207 C217 1.723 . S
C208 C205 1.453 . S
C208 H232 0.982 . S
C208 H233 0.979 . S
C208 H234 0.977 . S
C209 C205 1.684 . S
C209 H235 0.979 . S
C209 H236 0.980 . S
C209 H237 0.983 . S
C210 H186 0.948 . S
C210 C211 1.391 . S
C210 C215 1.391 . S
C211 C210 1.391 . S
C211 C212 1.391 . S
C212 H189 0.947 . S
C212 C211 1.391 . S
C212 C213 1.392 . S
C213 H190 0.948 . S
C213 C212 1.392 . S
C213 C214 1.419 . S
C214 C213 1.419 . S
C214 C215 1.391 . S
C214 C218 1.397 . S
C215 C210 1.391 . S
C215 C214 1.391 . S
C215 C216 1.399 . S
C216 C215 1.399 . S
C216 C217 1.396 . S
C216 C219 1.453 . S
C216 C220 1.684 . S
C217 C207 1.723 . S
C217 C216 1.396 . S
C217 C218 1.394 . S
C218 C188 1.723 . S
C218 C214 1.397 . S
C218 C217 1.394 . S
C219 H191 0.982 . S
C219 H195 0.979 . S
C219 H196 0.977 . S
C219 C216 1.453 . S
C220 H192 0.979 . S
C220 H193 0.980 . S
C220 H194 0.983 . S
C220 C216 1.684 . S
H221 C239 0.948 . S
H222 C180 0.948 . S
H223 C198 0.979 . S
H224 C198 0.980 . S
H225 C198 0.983 . S
H226 C197 0.982 . S
H227 C197 0.979 . S
H228 C197 0.977 . S
H229 C199 0.948 . S
H230 C201 0.947 . S
H231 C202 0.948 . S
H232 C208 0.982 . S
H233 C208 0.979 . S
H234 C208 0.977 . S
H235 C209 0.979 . S
H236 C209 0.980 . S
H237 C209 0.983 . S
H238 C182 0.947 . S
C239 C182 1.392 . S
C239 C183 1.419 . S
C239 H221 0.948 . S
O240 Mg241 1.990 1_655 S
O240 C254 1.253 . S
Mg241 O240 1.990 1_455 S
Mg241 O244 2.180 . S
Mg241 O245 2.117 . S
Mg241 O259 2.030 . S
O242 Mg243 2.072 1_655 S
O242 C254 1.260 . S
Mg243 O242 2.072 1_455 S
Mg243 O244 2.099 . S
Mg243 O246 2.070 1_545 S
Mg243 O247 2.072 1_455 S
Mg243 O249 2.099 1_445 S
Mg243 O260 2.079 1_545 S
O244 Mg241 2.180 . S
O244 Mg243 2.099 . S
O244 C255 1.279 . S
O245 Mg241 2.117 . S
O245 C255 1.250 . S
O246 Mg243 2.070 1_565 S
O246 C256 1.275 . S
O247 Mg243 2.072 1_655 S
O247 C257 1.260 . S
Mg248 O249 2.180 . S
Mg248 O250 2.030 1_655 S
Mg248 O251 1.990 1_565 S
Mg248 O252 2.117 . S
O249 Mg243 2.099 1_665 S
O249 Mg248 2.180 . S
O249 C258 1.279 . S
O250 Mg248 2.030 1_455 S
O250 C256 1.248 . S
O251 Mg248 1.990 1_545 S
O251 C257 1.253 . S
O252 Mg248 2.117 . S
O252 C258 1.250 . S
C253 O259 1.250 1_565 S
C253 O260 1.263 . S
C254 O240 1.253 . S
C254 O242 1.260 . S
C255 O244 1.279 . S
C255 O245 1.250 . S
C256 O246 1.275 . S
C256 O250 1.248 . S
C257 O247 1.260 . S
C257 O251 1.253 . S
C258 O249 1.279 . S
C258 O252 1.250 . S
O259 Mg241 2.030 . S
O259 C253 1.250 1_545 S
O260 Mg243 2.079 1_565 S
O260 C253 1.263 . S
O261 Mg262 1.990 . S
O261 C275 1.253 . S
Mg262 O261 1.990 . S
Mg262 O265 2.180 . S
Mg262 O266 2.117 . S
Mg262 O280 2.030 . S
O263 Mg264 2.072 . S
O263 C275 1.260 . S
Mg264 O263 2.072 . S
Mg264 O265 2.099 . S
Mg264 O267 2.079 1_554 S
Mg264 O268 2.072 . S
Mg264 O270 2.099 . S
Mg264 O281 2.079 . S
O265 Mg262 2.180 . S
O265 Mg264 2.099 . S
O265 C276 1.279 . S
O266 Mg262 2.117 . S
O266 C276 1.250 . S
O267 Mg264 2.079 1_556 S
O267 C277 1.264 . S
O268 Mg264 2.072 . S
O268 C278 1.260 1_554 S
Mg269 O270 2.180 1_556 S
Mg269 O271 2.030 . S
Mg269 O272 1.990 . S
Mg269 O273 2.117 1_556 S
O270 Mg264 2.099 . S
O270 Mg269 2.180 1_554 S
O270 C279 1.279 . S
O271 Mg269 2.030 . S
O271 C277 1.248 . S
O272 Mg269 1.990 . S
O272 C278 1.253 . S
O273 Mg269 2.117 1_554 S
O273 C279 1.250 . S
C274 O280 1.248 . S
C274 O281 1.264 . S
C275 O261 1.253 . S
C275 O263 1.260 . S
C276 O265 1.279 . S
C276 O266 1.250 . S
C277 O267 1.264 . S
C277 O271 1.248 . S
C278 O268 1.260 1_556 S
C278 O272 1.253 . S
C279 O270 1.279 . S
C279 O273 1.250 . S
O280 Mg262 2.030 . S
O280 C274 1.248 . S
O281 Mg264 2.079 . S
O281 C274 1.264 . S
C282 C283 1.349 . S
C282 C284 1.327 . S
C282 H307 0.950 . S
C283 C282 1.349 . S
C283 C299 1.349 . S
C284 C282 1.327 . S
C284 C303 1.429 . S
C284 H308 0.950 . S
C285 C302 1.574 . S
C285 C304 1.368 . S
C285 H309 0.949 . S
H286 C290 0.949 . S
C287 C288 1.349 . S
C287 C289 1.327 . S
C287 H310 0.950 . S
C288 C287 1.349 . S
C288 C300 1.349 . S
C289 C287 1.327 . S
C289 C305 1.429 . S
C289 H311 0.950 . S
C290 H286 0.949 . S
C290 C298 1.574 . S
C290 C306 1.368 . S
H291 C299 0.950 . S
H292 C297 0.950 . S
H293 C298 0.949 . S
H294 C300 0.950 . S
H295 C301 0.950 . S
H296 C302 0.949 . S
C297 H292 0.950 . S
C297 C299 1.327 . S
C297 C303 1.429 . S
C298 C290 1.574 . S
C298 H293 0.949 . S
C298 C304 1.368 . S
C299 C283 1.349 . S
C299 H291 0.950 . S
C299 C297 1.327 . S
C300 C288 1.349 . S
C300 H294 0.950 . S
C300 C301 1.327 . S
C301 H295 0.950 . S
C301 C300 1.327 . S
C301 C305 1.429 . S
C302 C285 1.574 . S
C302 H296 0.949 . S
C302 C306 1.368 . S
C303 C284 1.429 . S
C303 C297 1.429 . S
C303 C304 1.523 . S
C304 C285 1.368 . S
C304 C298 1.368 . S
C304 C303 1.523 . S
C305 C289 1.429 . S
C305 C301 1.429 . S
C305 C306 1.523 . S
C306 C290 1.368 . S
C306 C302 1.368 . S
C306 C305 1.523 . S
H307 C282 0.950 . S
H308 C284 0.950 . S
H309 C285 0.949 . S
H310 C287 0.950 . S
H311 C289 0.950 . S
C312 C313 1.349 . S
C312 C314 1.327 . S
C312 H337 0.950 . S
C313 C312 1.349 . S
C313 C329 1.349 . S
C314 C312 1.327 . S
C314 C333 1.429 . S
C314 H338 0.950 . S
C315 C332 1.574 . S
C315 C334 1.368 . S
C315 H339 0.949 . S
H316 C320 0.949 . S
C317 C318 1.349 . S
C317 C319 1.327 . S
C317 H340 0.950 . S
C318 C317 1.349 . S
C318 C330 1.349 . S
C319 C317 1.327 . S
C319 C335 1.429 . S
C319 H341 0.950 . S
C320 H316 0.949 . S
C320 C328 1.574 . S
C320 C336 1.368 . S
H321 C329 0.950 . S
H322 C327 0.950 . S
H323 C328 0.949 . S
H324 C330 0.950 . S
H325 C331 0.950 . S
H326 C332 0.949 . S
C327 H322 0.950 . S
C327 C329 1.327 . S
C327 C333 1.429 . S
C328 C320 1.574 . S
C328 H323 0.949 . S
C328 C334 1.368 . S
C329 C313 1.349 . S
C329 H321 0.950 . S
C329 C327 1.327 . S
C330 C318 1.349 . S
C330 H324 0.950 . S
C330 C331 1.327 . S
C331 H325 0.950 . S
C331 C330 1.327 . S
C331 C335 1.429 . S
C332 C315 1.574 . S
C332 H326 0.949 . S
C332 C336 1.368 . S
C333 C314 1.429 . S
C333 C327 1.429 . S
C333 C334 1.523 . S
C334 C315 1.368 . S
C334 C328 1.368 . S
C334 C333 1.523 . S
C335 C319 1.429 . S
C335 C331 1.429 . S
C335 C336 1.523 . S
C336 C320 1.368 . S
C336 C332 1.368 . S
C336 C335 1.523 . S
H337 C312 0.950 . S
H338 C314 0.950 . S
H339 C315 0.949 . S
H340 C317 0.950 . S
H341 C319 0.950 . S
C342 C343 1.349 . S
C342 C344 1.327 . S
C342 H367 0.950 . S
C343 C342 1.349 . S
C343 C359 1.349 . S
C344 C342 1.327 . S
C344 C363 1.429 . S
C344 H368 0.950 . S
C345 C362 1.574 . S
C345 C364 1.368 . S
C345 H369 0.949 . S
H346 C350 0.949 . S
C347 C348 1.349 . S
C347 C349 1.327 . S
C347 H370 0.950 . S
C348 C347 1.349 . S
C348 C360 1.349 . S
C349 C347 1.327 . S
C349 C365 1.429 . S
C349 H371 0.950 . S
C350 H346 0.949 . S
C350 C358 1.574 . S
C350 C366 1.368 . S
H351 C359 0.950 . S
H352 C357 0.950 . S
H353 C358 0.949 . S
H354 C360 0.950 . S
H355 C361 0.950 . S
H356 C362 0.949 . S
C357 H352 0.950 . S
C357 C359 1.327 . S
C357 C363 1.429 . S
C358 C350 1.574 . S
C358 H353 0.949 . S
C358 C364 1.368 . S
C359 C343 1.349 . S
C359 H351 0.950 . S
C359 C357 1.327 . S
C360 C348 1.349 . S
C360 H354 0.950 . S
C360 C361 1.327 . S
C361 H355 0.950 . S
C361 C360 1.327 . S
C361 C365 1.429 . S
C362 C345 1.574 . S
C362 H356 0.949 . S
C362 C366 1.368 . S
C363 C344 1.429 . S
C363 C357 1.429 . S
C363 C364 1.523 . S
C364 C345 1.368 . S
C364 C358 1.368 . S
C364 C363 1.523 . S
C365 C349 1.429 . S
C365 C361 1.429 . S
C365 C366 1.523 . S
C366 C350 1.368 . S
C366 C362 1.368 . S
C366 C365 1.523 . S
H367 C342 0.950 . S
H368 C344 0.950 . S
H369 C345 0.949 . S
H370 C347 0.950 . S
H371 C349 0.950 . S
C372 C373 1.349 1_554 S
C372 C374 1.327 . S
C372 H397 0.950 . S
C373 C372 1.349 1_556 S
C373 C389 1.349 . S
C374 C372 1.327 . S
C374 C393 1.429 . S
C374 H398 0.950 . S
C375 C392 1.574 . S
C375 C394 1.368 1_556 S
C375 H399 0.949 . S
H376 C380 0.949 . S
C377 C378 1.349 1_556 S
C377 C379 1.327 . S
C377 H400 0.950 . S
C378 C377 1.349 1_554 S
C378 C390 1.349 . S
C379 C377 1.327 . S
C379 C395 1.429 1_556 S
C379 H401 0.950 . S
C380 H376 0.949 . S
C380 C388 1.574 . S
C380 C396 1.368 . S
H381 C389 0.950 . S
H382 C387 0.950 . S
H383 C388 0.949 . S
H384 C390 0.950 . S
H385 C391 0.950 . S
H386 C392 0.949 . S
C387 H382 0.950 . S
C387 C389 1.327 . S
C387 C393 1.429 1_556 S
C388 C380 1.574 . S
C388 H383 0.949 . S
C388 C394 1.368 . S
C389 C373 1.349 . S
C389 H381 0.950 . S
C389 C387 1.327 . S
C390 C378 1.349 . S
C390 H384 0.950 . S
C390 C391 1.327 . S
C391 H385 0.950 . S
C391 C390 1.327 . S
C391 C395 1.429 . S
C392 C375 1.574 . S
C392 H386 0.949 . S
C392 C396 1.368 1_556 S
C393 C374 1.429 . S
C393 C387 1.429 1_554 S
C393 C394 1.523 . S
C394 C375 1.368 1_554 S
C394 C388 1.368 . S
C394 C393 1.523 . S
C395 C379 1.429 1_554 S
C395 C391 1.429 . S
C395 C396 1.523 . S
C396 C380 1.368 . S
C396 C392 1.368 1_554 S
C396 C395 1.523 . S
H397 C372 0.950 . S
H398 C374 0.950 . S
H399 C375 0.949 . S
H400 C377 0.950 . S
H401 C379 0.950 . S
C402 C403 1.349 . S
C402 C404 1.327 . S
C402 H427 0.950 . S
C403 C402 1.349 . S
C403 C419 1.349 . S
C404 C402 1.327 . S
C404 C423 1.429 . S
C404 H428 0.950 . S
C405 C422 1.574 . S
C405 C424 1.368 . S
C405 H429 0.949 . S
H406 C410 0.940 1_545 S
C407 C408 1.349 . S
C407 C409 1.327 . S
C407 H430 0.950 . S
C408 C407 1.349 . S
C408 C420 1.349 1_565 S
C409 C407 1.327 . S
C409 C425 1.429 . S
C409 H431 0.950 . S
C410 H406 0.940 1_565 S
C410 C418 1.574 . S
C410 C426 1.368 . S
H411 C419 0.950 . S
H412 C417 0.950 . S
H413 C418 0.949 . S
H414 C420 0.950 . S
H415 C421 0.950 1_545 S
H416 C422 0.949 . S
C417 H412 0.950 . S
C417 C419 1.327 . S
C417 C423 1.429 . S
C418 C410 1.574 . S
C418 H413 0.949 . S
C418 C424 1.368 . S
C419 C403 1.349 . S
C419 H411 0.950 . S
C419 C417 1.327 . S
C420 C408 1.349 1_545 S
C420 H414 0.950 . S
C420 C421 1.327 1_545 S
C421 H415 0.950 1_565 S
C421 C420 1.327 1_565 S
C421 C425 1.429 . S
C422 C405 1.574 . S
C422 H416 0.949 . S
C422 C426 1.368 . S
C423 C404 1.429 . S
C423 C417 1.429 . S
C423 C424 1.523 . S
C424 C405 1.368 . S
C424 C418 1.368 . S
C424 C423 1.523 . S
C425 C409 1.429 . S
C425 C421 1.429 . S
C425 C426 1.523 . S
C426 C410 1.368 . S
C426 C422 1.368 . S
C426 C425 1.523 . S
H427 C402 0.950 . S
H428 C404 0.950 . S
H429 C405 0.949 . S
H430 C407 0.950 . S
H431 C409 0.950 . S
C432 C433 1.349 . S
C432 C434 1.327 . S
C432 H457 0.950 . S
C433 C432 1.349 . S
C433 C449 1.349 . S
C434 C432 1.327 . S
C434 C453 1.429 . S
C434 H458 0.950 . S
C435 C452 1.574 . S
C435 C454 1.368 . S
C435 H459 0.949 . S
H436 C440 0.949 . S
C437 C438 1.349 . S
C437 C439 1.327 . S
C437 H460 0.950 . S
C438 C437 1.349 . S
C438 C450 1.349 . S
C439 C437 1.327 . S
C439 C455 1.429 . S
C439 H461 0.950 . S
C440 H436 0.949 . S
C440 C448 1.574 . S
C440 C456 1.368 . S
H441 C449 0.950 . S
H442 C447 0.950 . S
H443 C448 0.949 . S
H444 C450 0.950 . S
H445 C451 0.950 . S
H446 C452 0.949 . S
C447 H442 0.950 . S
C447 C449 1.327 . S
C447 C453 1.429 . S
C448 C440 1.574 . S
C448 H443 0.949 . S
C448 C454 1.368 . S
C449 C433 1.349 . S
C449 H441 0.950 . S
C449 C447 1.327 . S
C450 C438 1.349 . S
C450 H444 0.950 . S
C450 C451 1.327 . S
C451 H445 0.950 . S
C451 C450 1.327 . S
C451 C455 1.429 . S
C452 C435 1.574 . S
C452 H446 0.949 . S
C452 C456 1.368 . S
C453 C434 1.429 . S
C453 C447 1.429 . S
C453 C454 1.523 . S
C454 C435 1.368 . S
C454 C448 1.368 . S
C454 C453 1.523 . S
C455 C439 1.429 . S
C455 C451 1.429 . S
C455 C456 1.523 . S
C456 C440 1.368 . S
C456 C452 1.368 . S
C456 C455 1.523 . S
H457 C432 0.950 . S
H458 C434 0.950 . S
H459 C435 0.949 . S
H460 C437 0.950 . S
H461 C439 0.950 . S
C462 C463 1.349 . S
C462 C464 1.327 . S
C462 H487 0.950 . S
C463 C462 1.349 . S
C463 C479 1.349 . S
C464 C462 1.327 . S
C464 C483 1.429 . S
C464 H488 0.950 . S
C465 C482 1.574 . S
C465 C484 1.368 . S
C465 H489 0.949 . S
H466 C470 0.949 . S
C467 C468 1.349 . S
C467 C469 1.327 . S
C467 H490 0.950 . S
C468 C467 1.349 . S
C468 C480 1.349 . S
C469 C467 1.327 . S
C469 C485 1.429 . S
C469 H491 0.950 . S
C470 H466 0.949 . S
C470 C478 1.574 . S
C470 C486 1.368 . S
H471 C479 0.950 . S
H472 C477 0.950 . S
H473 C478 0.949 . S
H474 C480 0.950 . S
H475 C481 0.950 . S
H476 C482 0.949 . S
C477 H472 0.950 . S
C477 C479 1.327 . S
C477 C483 1.429 . S
C478 C470 1.574 . S
C478 H473 0.949 . S
C478 C484 1.368 . S
C479 C463 1.349 . S
C479 H471 0.950 . S
C479 C477 1.327 . S
C480 C468 1.349 . S
C480 H474 0.950 . S
C480 C481 1.327 . S
C481 H475 0.950 . S
C481 C480 1.327 . S
C481 C485 1.429 . S
C482 C465 1.574 . S
C482 H476 0.949 . S
C482 C486 1.368 . S
C483 C464 1.429 . S
C483 C477 1.429 . S
C483 C484 1.523 . S
C484 C465 1.368 . S
C484 C478 1.368 . S
C484 C483 1.523 . S
C485 C469 1.429 . S
C485 C481 1.429 . S
C485 C486 1.523 . S
C486 C470 1.368 . S
C486 C482 1.368 . S
C486 C485 1.523 . S
H487 C462 0.950 . S
H488 C464 0.950 . S
H489 C465 0.949 . S
H490 C467 0.950 . S
H491 C469 0.950 . S
C492 C493 1.349 . S
C492 C494 1.327 . S
C492 H517 0.950 . S
C493 C492 1.349 . S
C493 C509 1.349 . S
C494 C492 1.327 . S
C494 C513 1.429 . S
C494 H518 0.950 . S
C495 C512 1.574 . S
C495 C514 1.368 . S
C495 H519 0.949 . S
H496 C500 0.949 . S
C497 C498 1.349 . S
C497 C499 1.327 . S
C497 H520 0.950 . S
C498 C497 1.349 . S
C498 C510 1.349 . S
C499 C497 1.327 . S
C499 C515 1.429 . S
C499 H521 0.950 . S
C500 H496 0.949 . S
C500 C508 1.574 . S
C500 C516 1.368 . S
H501 C509 0.950 . S
H502 C507 0.950 . S
H503 C508 0.949 . S
H504 C510 0.950 . S
H505 C511 0.950 . S
H506 C512 0.949 . S
C507 H502 0.950 . S
C507 C509 1.327 . S
C507 C513 1.429 . S
C508 C500 1.574 . S
C508 H503 0.949 . S
C508 C514 1.368 . S
C509 C493 1.349 . S
C509 H501 0.950 . S
C509 C507 1.327 . S
C510 C498 1.349 . S
C510 H504 0.950 . S
C510 C511 1.327 . S
C511 H505 0.950 . S
C511 C510 1.327 . S
C511 C515 1.429 . S
C512 C495 1.574 . S
C512 H506 0.949 . S
C512 C516 1.368 . S
C513 C494 1.429 . S
C513 C507 1.429 . S
C513 C514 1.523 . S
C514 C495 1.368 . S
C514 C508 1.368 . S
C514 C513 1.523 . S
C515 C499 1.429 . S
C515 C511 1.429 . S
C515 C516 1.523 . S
C516 C500 1.368 . S
C516 C512 1.368 . S
C516 C515 1.523 . S
H517 C492 0.950 . S
H518 C494 0.950 . S
H519 C495 0.949 . S
H520 C497 0.950 . S
H521 C499 0.950 . S
C522 C523 1.349 . S
C522 C524 1.327 . S
C522 H547 0.950 . S
C523 C522 1.349 . S
C523 C539 1.349 . S
C524 C522 1.327 . S
C524 C543 1.429 . S
C524 H548 0.950 . S
C525 C542 1.574 . S
C525 C544 1.368 . S
C525 H549 0.949 . S
H526 C530 0.949 . S
C527 C528 1.349 . S
C527 C529 1.327 . S
C527 H550 0.950 . S
C528 C527 1.349 . S
C528 C540 1.349 . S
C529 C527 1.327 . S
C529 C545 1.429 . S
C529 H551 0.950 . S
C530 H526 0.949 . S
C530 C538 1.574 . S
C530 C546 1.368 . S
H531 C539 0.950 . S
H532 C537 0.950 . S
H533 C538 0.949 . S
H534 C540 0.950 . S
H535 C541 0.950 . S
H536 C542 0.949 . S
C537 H532 0.950 . S
C537 C539 1.327 . S
C537 C543 1.429 . S
C538 C530 1.574 . S
C538 H533 0.949 . S
C538 C544 1.368 . S
C539 C523 1.349 . S
C539 H531 0.950 . S
C539 C537 1.327 . S
C540 C528 1.349 . S
C540 H534 0.950 . S
C540 C541 1.327 . S
C541 H535 0.950 . S
C541 C540 1.327 . S
C541 C545 1.429 . S
C542 C525 1.574 . S
C542 H536 0.949 . S
C542 C546 1.368 . S
C543 C524 1.429 . S
C543 C537 1.429 . S
C543 C544 1.523 . S
C544 C525 1.368 . S
C544 C538 1.368 . S
C544 C543 1.523 . S
C545 C529 1.429 . S
C545 C541 1.429 . S
C545 C546 1.523 . S
C546 C530 1.368 . S
C546 C542 1.368 . S
C546 C545 1.523 . S
H547 C522 0.950 . S
H548 C524 0.950 . S
H549 C525 0.949 . S
H550 C527 0.950 . S
H551 C529 0.950 . S
C552 C553 1.349 . S
C552 C554 1.327 . S
C552 H577 0.950 . S
C553 C552 1.349 . S
C553 C569 1.349 . S
C554 C552 1.327 . S
C554 C573 1.429 . S
C554 H578 0.950 . S
C555 C572 1.574 . S
C555 C574 1.368 . S
C555 H579 0.949 . S
H556 C560 0.949 . S
C557 C558 1.349 . S
C557 C559 1.327 . S
C557 H580 0.950 . S
C558 C557 1.349 . S
C558 C570 1.349 . S
C559 C557 1.327 . S
C559 C575 1.429 . S
C559 H581 0.950 . S
C560 H556 0.949 . S
C560 C568 1.574 . S
C560 C576 1.368 . S
H561 C569 0.950 . S
H562 C567 0.950 . S
H563 C568 0.949 . S
H564 C570 0.950 . S
H565 C571 0.950 . S
H566 C572 0.949 . S
C567 H562 0.950 . S
C567 C569 1.327 . S
C567 C573 1.429 . S
C568 C560 1.574 . S
C568 H563 0.949 . S
C568 C574 1.368 . S
C569 C553 1.349 . S
C569 H561 0.950 . S
C569 C567 1.327 . S
C570 C558 1.349 . S
C570 H564 0.950 . S
C570 C571 1.327 . S
C571 H565 0.950 . S
C571 C570 1.327 . S
C571 C575 1.429 . S
C572 C555 1.574 . S
C572 H566 0.949 . S
C572 C576 1.368 . S
C573 C554 1.429 . S
C573 C567 1.429 . S
C573 C574 1.523 . S
C574 C555 1.368 . S
C574 C568 1.368 . S
C574 C573 1.523 . S
C575 C559 1.429 . S
C575 C571 1.429 . S
C575 C576 1.523 . S
C576 C560 1.368 . S
C576 C572 1.368 . S
C576 C575 1.523 . S
H577 C552 0.950 . S
H578 C554 0.950 . S
H579 C555 0.949 . S
H580 C557 0.950 . S
H581 C559 0.950 . S
C582 C583 1.349 . S
C582 C584 1.327 . S
C582 H607 0.950 . S
C583 C582 1.349 . S
C583 C599 1.349 . S
C584 C582 1.327 . S
C584 C603 1.429 . S
C584 H608 0.950 . S
C585 C602 1.574 . S
C585 C604 1.368 . S
C585 H609 0.949 . S
H586 C590 0.949 . S
C587 C588 1.349 . S
C587 C589 1.327 . S
C587 H610 0.950 . S
C588 C587 1.349 . S
C588 C600 1.349 . S
C589 C587 1.327 . S
C589 C605 1.429 . S
C589 H611 0.950 . S
C590 H586 0.949 . S
C590 C598 1.574 . S
C590 C606 1.368 . S
H591 C599 0.950 . S
H592 C597 0.950 . S
H593 C598 0.949 . S
H594 C600 0.950 . S
H595 C601 0.950 . S
H596 C602 0.949 . S
C597 H592 0.950 . S
C597 C599 1.327 . S
C597 C603 1.429 . S
C598 C590 1.574 . S
C598 H593 0.949 . S
C598 C604 1.368 . S
C599 C583 1.349 . S
C599 H591 0.950 . S
C599 C597 1.327 . S
C600 C588 1.349 . S
C600 H594 0.950 . S
C600 C601 1.327 . S
C601 H595 0.950 . S
C601 C600 1.327 . S
C601 C605 1.429 . S
C602 C585 1.574 . S
C602 H596 0.949 . S
C602 C606 1.368 . S
C603 C584 1.429 . S
C603 C597 1.429 . S
C603 C604 1.523 . S
C604 C585 1.368 . S
C604 C598 1.368 . S
C604 C603 1.523 . S
C605 C589 1.429 . S
C605 C601 1.429 . S
C605 C606 1.523 . S
C606 C590 1.368 . S
C606 C602 1.368 . S
C606 C605 1.523 . S
H607 C582 0.950 . S
H608 C584 0.950 . S
H609 C585 0.949 . S
H610 C587 0.950 . S
H611 C589 0.950 . S
C612 C613 1.349 . S
C612 C614 1.327 . S
C612 H637 0.950 . S
C613 C612 1.349 . S
C613 C629 1.349 . S
C614 C612 1.327 . S
C614 C633 1.429 . S
C614 H638 0.950 . S
C615 C632 1.574 . S
C615 C634 1.368 . S
C615 H639 0.949 . S
H616 C620 0.949 . S
C617 C618 1.349 . S
C617 C619 1.327 . S
C617 H640 0.950 . S
C618 C617 1.349 . S
C618 C630 1.349 . S
C619 C617 1.327 . S
C619 C635 1.429 . S
C619 H641 0.950 . S
C620 H616 0.949 . S
C620 C628 1.574 . S
C620 C636 1.368 . S
H621 C629 0.950 . S
H622 C627 0.950 . S
H623 C628 0.949 . S
H624 C630 0.950 . S
H625 C631 0.950 . S
H626 C632 0.949 . S
C627 H622 0.950 . S
C627 C629 1.327 . S
C627 C633 1.429 . S
C628 C620 1.574 . S
C628 H623 0.949 . S
C628 C634 1.368 . S
C629 C613 1.349 . S
C629 H621 0.950 . S
C629 C627 1.327 . S
C630 C618 1.349 . S
C630 H624 0.950 . S
C630 C631 1.327 . S
C631 H625 0.950 . S
C631 C630 1.327 . S
C631 C635 1.429 . S
C632 C615 1.574 . S
C632 H626 0.949 . S
C632 C636 1.368 . S
C633 C614 1.429 . S
C633 C627 1.429 . S
C633 C634 1.523 . S
C634 C615 1.368 . S
C634 C628 1.368 . S
C634 C633 1.523 . S
C635 C619 1.429 . S
C635 C631 1.429 . S
C635 C636 1.523 . S
C636 C620 1.368 . S
C636 C632 1.368 . S
C636 C635 1.523 . S
H637 C612 0.950 . S
H638 C614 0.950 . S
H639 C615 0.949 . S
H640 C617 0.950 . S
H641 C619 0.950 . S
C288 C255 1.320 . S
C283 C211 1.511 . S
C313 C31 1.435 . S
C318 C279 1.320 . S
C343 C91 1.641 . S
C348 C258 1.467 . S
C373 C151 1.653 . S
C378 C276 1.467 . S
C408 C256 1.596 . S
C403 C20 1.577 . S
C438 C278 1.565 . S
C433 C61 1.539 . S
C463 C121 1.570 . S
C468 C257 1.515 . S
C493 C200 1.595 . S
C498 C277 1.531 . S
C528 C275 1.515 . S
C523 C80 1.540 . S
C558 C254 1.565 . S
C553 C140 1.617 . S
C588 C274 1.596 . S
C583 C181 1.586 . S
C613 C1 1.539 . S
C618 C253 1.530 . S
