# Generated by pormake.
# Topology ctn, (3,4)-cn, num edge types: 1
# Building blocks:
#     Node 0, Type 0, BuildingBlock: MIDCAF_clean_linker_0, # of connection points: 3
#     Node 1, Type 0, BuildingBlock: MIDCAF_clean_linker_0, # of connection points: 3
#     Node 2, Type 0, BuildingBlock: MIDCAF_clean_linker_0, # of connection points: 3
#     Node 3, Type 0, BuildingBlock: MIDCAF_clean_linker_0, # of connection points: 3
#     Node 4, Type 0, BuildingBlock: MIDCAF_clean_linker_0, # of connection points: 3
#     Node 5, Type 0, BuildingBlock: MIDCAF_clean_linker_0, # of connection points: 3
#     Node 6, Type 0, BuildingBlock: MIDCAF_clean_linker_0, # of connection points: 3
#     Node 7, Type 0, BuildingBlock: MIDCAF_clean_linker_0, # of connection points: 3
#     Node 8, Type 0, BuildingBlock: MIDCAF_clean_linker_0, # of connection points: 3
#     Node 9, Type 0, BuildingBlock: MIDCAF_clean_linker_0, # of connection points: 3
#     Node 10, Type 0, BuildingBlock: MIDCAF_clean_linker_0, # of connection points: 3
#     Node 11, Type 0, BuildingBlock: MIDCAF_clean_linker_0, # of connection points: 3
#     Node 12, Type 0, BuildingBlock: MIDCAF_clean_linker_0, # of connection points: 3
#     Node 13, Type 0, BuildingBlock: MIDCAF_clean_linker_0, # of connection points: 3
#     Node 14, Type 0, BuildingBlock: MIDCAF_clean_linker_0, # of connection points: 3
#     Node 15, Type 0, BuildingBlock: MIDCAF_clean_linker_0, # of connection points: 3
#     Node 16, Type 1, BuildingBlock: TATPOV_clean_sbu_0, # of connection points: 4
#     Node 17, Type 1, BuildingBlock: TATPOV_clean_sbu_0, # of connection points: 4
#     Node 18, Type 1, BuildingBlock: TATPOV_clean_sbu_0, # of connection points: 4
#     Node 19, Type 1, BuildingBlock: TATPOV_clean_sbu_0, # of connection points: 4
#     Node 20, Type 1, BuildingBlock: TATPOV_clean_sbu_0, # of connection points: 4
#     Node 21, Type 1, BuildingBlock: TATPOV_clean_sbu_0, # of connection points: 4
#     Node 22, Type 1, BuildingBlock: TATPOV_clean_sbu_0, # of connection points: 4
#     Node 23, Type 1, BuildingBlock: TATPOV_clean_sbu_0, # of connection points: 4
#     Node 24, Type 1, BuildingBlock: TATPOV_clean_sbu_0, # of connection points: 4
#     Node 25, Type 1, BuildingBlock: TATPOV_clean_sbu_0, # of connection points: 4
#     Node 26, Type 1, BuildingBlock: TATPOV_clean_sbu_0, # of connection points: 4
#     Node 27, Type 1, BuildingBlock: TATPOV_clean_sbu_0, # of connection points: 4
#     Edge 28, Type (0, 1), BuildingBlock: AJUNOK_clean_linker_0, # of connection points: 2
#     Edge 29, Type (0, 1), BuildingBlock: AJUNOK_clean_linker_0, # of connection points: 2
#     Edge 30, Type (0, 1), BuildingBlock: AJUNOK_clean_linker_0, # of connection points: 2
#     Edge 31, Type (0, 1), BuildingBlock: AJUNOK_clean_linker_0, # of connection points: 2
#     Edge 32, Type (0, 1), BuildingBlock: AJUNOK_clean_linker_0, # of connection points: 2
#     Edge 33, Type (0, 1), BuildingBlock: AJUNOK_clean_linker_0, # of connection points: 2
#     Edge 34, Type (0, 1), BuildingBlock: AJUNOK_clean_linker_0, # of connection points: 2
#     Edge 35, Type (0, 1), BuildingBlock: AJUNOK_clean_linker_0, # of connection points: 2
#     Edge 36, Type (0, 1), BuildingBlock: AJUNOK_clean_linker_0, # of connection points: 2
#     Edge 37, Type (0, 1), BuildingBlock: AJUNOK_clean_linker_0, # of connection points: 2
#     Edge 38, Type (0, 1), BuildingBlock: AJUNOK_clean_linker_0, # of connection points: 2
#     Edge 39, Type (0, 1), BuildingBlock: AJUNOK_clean_linker_0, # of connection points: 2
#     Edge 40, Type (0, 1), BuildingBlock: AJUNOK_clean_linker_0, # of connection points: 2
#     Edge 41, Type (0, 1), BuildingBlock: AJUNOK_clean_linker_0, # of connection points: 2
#     Edge 42, Type (0, 1), BuildingBlock: AJUNOK_clean_linker_0, # of connection points: 2
#     Edge 43, Type (0, 1), BuildingBlock: AJUNOK_clean_linker_0, # of connection points: 2
#     Edge 44, Type (0, 1), BuildingBlock: AJUNOK_clean_linker_0, # of connection points: 2
#     Edge 45, Type (0, 1), BuildingBlock: AJUNOK_clean_linker_0, # of connection points: 2
#     Edge 46, Type (0, 1), BuildingBlock: AJUNOK_clean_linker_0, # of connection points: 2
#     Edge 47, Type (0, 1), BuildingBlock: AJUNOK_clean_linker_0, # of connection points: 2
#     Edge 48, Type (0, 1), BuildingBlock: AJUNOK_clean_linker_0, # of connection points: 2
#     Edge 49, Type (0, 1), BuildingBlock: AJUNOK_clean_linker_0, # of connection points: 2
#     Edge 50, Type (0, 1), BuildingBlock: AJUNOK_clean_linker_0, # of connection points: 2
#     Edge 51, Type (0, 1), BuildingBlock: AJUNOK_clean_linker_0, # of connection points: 2
#     Edge 52, Type (0, 1), BuildingBlock: AJUNOK_clean_linker_0, # of connection points: 2
#     Edge 53, Type (0, 1), BuildingBlock: AJUNOK_clean_linker_0, # of connection points: 2
#     Edge 54, Type (0, 1), BuildingBlock: AJUNOK_clean_linker_0, # of connection points: 2
#     Edge 55, Type (0, 1), BuildingBlock: AJUNOK_clean_linker_0, # of connection points: 2
#     Edge 56, Type (0, 1), BuildingBlock: AJUNOK_clean_linker_0, # of connection points: 2
#     Edge 57, Type (0, 1), BuildingBlock: AJUNOK_clean_linker_0, # of connection points: 2
#     Edge 58, Type (0, 1), BuildingBlock: AJUNOK_clean_linker_0, # of connection points: 2
#     Edge 59, Type (0, 1), BuildingBlock: AJUNOK_clean_linker_0, # of connection points: 2
#     Edge 60, Type (0, 1), BuildingBlock: AJUNOK_clean_linker_0, # of connection points: 2
#     Edge 61, Type (0, 1), BuildingBlock: AJUNOK_clean_linker_0, # of connection points: 2
#     Edge 62, Type (0, 1), BuildingBlock: AJUNOK_clean_linker_0, # of connection points: 2
#     Edge 63, Type (0, 1), BuildingBlock: AJUNOK_clean_linker_0, # of connection points: 2
#     Edge 64, Type (0, 1), BuildingBlock: AJUNOK_clean_linker_0, # of connection points: 2
#     Edge 65, Type (0, 1), BuildingBlock: AJUNOK_clean_linker_0, # of connection points: 2
#     Edge 66, Type (0, 1), BuildingBlock: AJUNOK_clean_linker_0, # of connection points: 2
#     Edge 67, Type (0, 1), BuildingBlock: AJUNOK_clean_linker_0, # of connection points: 2
#     Edge 68, Type (0, 1), BuildingBlock: AJUNOK_clean_linker_0, # of connection points: 2
#     Edge 69, Type (0, 1), BuildingBlock: AJUNOK_clean_linker_0, # of connection points: 2
#     Edge 70, Type (0, 1), BuildingBlock: AJUNOK_clean_linker_0, # of connection points: 2
#     Edge 71, Type (0, 1), BuildingBlock: AJUNOK_clean_linker_0, # of connection points: 2
#     Edge 72, Type (0, 1), BuildingBlock: AJUNOK_clean_linker_0, # of connection points: 2
#     Edge 73, Type (0, 1), BuildingBlock: AJUNOK_clean_linker_0, # of connection points: 2
#     Edge 74, Type (0, 1), BuildingBlock: AJUNOK_clean_linker_0, # of connection points: 2
#     Edge 75, Type (0, 1), BuildingBlock: AJUNOK_clean_linker_0, # of connection points: 2
# Relax obj value: 0.003
# Max RMSD: 0.047
# Mean RMSD: 0.021
data_MOF--net-ctn--node1-TATPOV_clean_sbu_0--node2-MIDCAF_clean_linker_0--edge1-AJUNOK_clean_linker_0
_symmetry_space_group_name_H-M    P1
_symmetry_Int_Tables_number       1
_symmetry_cell_setting            triclinic
loop_
_symmetry_equiv_pos_as_xyz
'x, y, z'
_cell_length_a     52.363589
_cell_length_b     52.339175
_cell_length_c     52.313392
_cell_angle_alpha  91.120781
_cell_angle_beta   91.171211
_cell_angle_gamma 91.222627
loop_
_atom_site_label
_atom_site_type_symbol
_atom_site_fract_x
_atom_site_fract_y
_atom_site_fract_z
_atom_type_partial_charge
C0 C 0.95777 0.04039 0.08617 0.0
C1 C 0.95927 0.02053 0.1038 0.0
C2 C 0.97898 0.00289 0.10153 0.0
C3 C 0.99718 0.0054 0.08251 0.0
H4 H 0.06538 0.97761 0.06129 0.0
H5 H 0.10199 0.94971 0.06207 0.0
H6 H 0.13132 0.98596 0.99505 0.0
H7 H 0.09452 0.01389 0.99391 0.0
H8 H 0.06796 0.06448 0.97446 0.0
H9 H 0.06541 0.09934 0.94424 0.0
H10 H 0.99162 0.119 0.97306 0.0
H11 H 0.99384 0.08408 0.00312 0.0
H12 H 0.9744 0.05865 0.05403 0.0
H13 H 0.94277 0.05427 0.08745 0.0
H14 H 0.98028 0.98702 0.11445 0.0
H15 H 0.01217 0.9915 0.08154 0.0
N16 N 0.03617 0.01277 0.045 0.0
N17 N 0.05291 0.0344 0.01006 0.0
N18 N 0.01439 0.04738 0.02791 0.0
C19 C 0.05474 0.01548 0.02742 0.0
C20 C 0.03278 0.05044 0.01013 0.0
C21 C 0.01592 0.02857 0.04541 0.0
C22 C 0.07694 0.99819 0.02759 0.0
C23 C 0.07956 0.97974 0.04666 0.0
C24 C 0.10064 0.96381 0.04724 0.0
C25 C 0.11966 0.96589 0.02882 0.0
C26 C 0.11693 0.98397 0.0095 0.0
C27 C 0.09586 1e-05 0.00894 0.0
C28 C 0.03109 0.07134 0.9913 0.0
C29 C 0.05108 0.07608 0.97431 0.0
C30 C 0.04969 0.0961 0.95701 0.0
C31 C 0.02822 0.11172 0.95611 0.0
C32 C 0.00819 0.10697 0.97297 0.0
C33 C 0.0096 0.08703 0.99034 0.0
C34 C 0.99605 0.02557 0.06513 0.0
C35 C 0.97596 0.04291 0.06707 0.0
C36 C 0.22325 0.63001 0.26929 0.0
C37 C 0.19931 0.62665 0.25697 0.0
C38 C 0.19196 0.64405 0.23822 0.0
C39 C 0.2084 0.66422 0.23169 0.0
H40 H 0.22743 0.71366 0.1708 0.0
H41 H 0.22133 0.73902 0.13241 0.0
H42 H 0.27303 0.79727 0.16384 0.0
H43 H 0.27957 0.77188 0.20207 0.0
H44 H 0.32403 0.75096 0.24031 0.0
H45 H 0.36627 0.75492 0.26034 0.0
H46 H 0.35496 0.68217 0.29633 0.0
H47 H 0.3122 0.67831 0.27676 0.0
H48 H 0.25801 0.65198 0.27267 0.0
H49 H 0.22947 0.61681 0.28373 0.0
H50 H 0.17342 0.64221 0.22874 0.0
H51 H 0.20214 0.67726 0.21713 0.0
N52 N 0.24401 0.70467 0.21766 0.0
N53 N 0.28282 0.72728 0.22434 0.0
N54 N 0.27295 0.69211 0.24962 0.0
C55 C 0.26022 0.72408 0.21131 0.0
C56 C 0.28939 0.71133 0.24347 0.0
C57 C 0.25016 0.68871 0.23696 0.0
C58 C 0.25414 0.74066 0.18943 0.0
C59 C 0.23717 0.73207 0.16975 0.0
C60 C 0.23366 0.74653 0.14778 0.0
C61 C 0.24657 0.77011 0.14533 0.0
C62 C 0.2626 0.77929 0.16545 0.0
C63 C 0.26649 0.76464 0.18721 0.0
C64 C 0.31471 0.7142 0.25667 0.0
C65 C 0.33043 0.73574 0.25246 0.0
C66 C 0.35476 0.73794 0.2638 0.0
C67 C 0.36417 0.71854 0.2794 0.0
C68 C 0.34826 0.69733 0.28427 0.0
C69 C 0.32378 0.69516 0.27301 0.0
C70 C 0.2325 0.66749 0.24389 0.0
C71 C 0.23965 0.65016 0.26284 0.0
C72 C 0.01528 0.35899 0.99889 0.0
C73 C 0.99616 0.34954 0.98179 0.0
C74 C 0.97119 0.35836 0.98394 0.0
C75 C 0.96558 0.37709 0.0022 0.0
H76 H 0.93108 0.44957 0.00102 0.0
H77 H 0.89776 0.47894 0.98933 0.0
H78 H 0.89515 0.50647 0.06756 0.0
H79 H 0.92939 0.47753 0.07928 0.0
H80 H 0.97145 0.45572 0.1191 0.0
H81 H 0.99475 0.46098 0.15984 0.0
H82 H 0.05835 0.42061 0.12877 0.0
H83 H 0.03498 0.41482 0.08787 0.0
H84 H 0.02474 0.38479 0.03021 0.0
H85 H 0.03469 0.35242 0.99748 0.0
H86 H 0.95619 0.35145 0.97083 0.0
H87 H 0.94623 0.38395 0.00298 0.0
N88 N 0.9594 0.42395 0.03163 0.0
N89 N 0.96718 0.44664 0.07011 0.0
N90 N 0.99274 0.41188 0.05917 0.0
C91 C 0.95352 0.44335 0.04792 0.0
C92 C 0.98684 0.43104 0.07585 0.0
C93 C 0.97887 0.4081 0.03712 0.0
C94 C 0.9328 0.461 0.04115 0.0
C95 C 0.92336 0.46171 0.01585 0.0
C96 C 0.9041 0.47846 0.00915 0.0
C97 C 0.89342 0.49461 0.02765 0.0
C98 C 0.90297 0.49417 0.05292 0.0
C99 C 0.92252 0.47756 0.05961 0.0
C100 C 0.00133 0.43476 0.10026 0.0
C101 C 0.99043 0.44802 0.12083 0.0
C102 C 0.00367 0.451 0.14415 0.0
C103 C 0.02819 0.44113 0.14724 0.0
C104 C 0.03942 0.42837 0.12666 0.0
C105 C 0.026 0.42498 0.10339 0.0
C106 C 0.98476 0.38708 0.01899 0.0
C107 C 0.00957 0.37744 0.01755 0.0
C108 C 0.76962 0.71325 0.13898 0.0
C109 C 0.75228 0.69326 0.13229 0.0
C110 C 0.73044 0.68971 0.14709 0.0
C111 C 0.72571 0.70621 0.16774 0.0
H112 H 0.67147 0.72417 0.22415 0.0
H113 H 0.63353 0.72171 0.25078 0.0
H114 H 0.66916 0.77522 0.30496 0.0
H115 H 0.70668 0.77818 0.27838 0.0
H116 H 0.73996 0.82203 0.25286 0.0
H117 H 0.76379 0.8621 0.25806 0.0
H118 H 0.8111 0.8416 0.19463 0.0
H119 H 0.78688 0.8012 0.18892 0.0
H120 H 0.77857 0.74513 0.16392 0.0
H121 H 0.78697 0.71605 0.12836 0.0
H122 H 0.71674 0.67446 0.14237 0.0
H123 H 0.7085 0.70314 0.1785 0.0
N124 N 0.71814 0.73981 0.21177 0.0
N125 N 0.72767 0.77826 0.23398 0.0
N126 N 0.75158 0.76678 0.19842 0.0
C127 C 0.71331 0.75644 0.23128 0.0
C128 C 0.74675 0.78369 0.21764 0.0
C129 C 0.73742 0.74476 0.19537 0.0
C130 C 0.69189 0.7518 0.24885 0.0
C131 C 0.67136 0.7351 0.24194 0.0
C132 C 0.64969 0.7336 0.2572 0.0
C133 C 0.64828 0.74865 0.27964 0.0
C134 C 0.66955 0.76384 0.28746 0.0
C135 C 0.69102 0.76553 0.27218 0.0
C136 C 0.76159 0.80813 0.2206 0.0
C137 C 0.75545 0.82583 0.23997 0.0
C138 C 0.76919 0.84883 0.24306 0.0
C139 C 0.78958 0.85473 0.22704 0.0
C140 C 0.79552 0.83742 0.2073 0.0
C141 C 0.7817 0.81428 0.20414 0.0
C142 C 0.74273 0.72665 0.17403 0.0
C143 C 0.76484 0.72983 0.15949 0.0
C144 C 0.04653 0.91755 0.51439 0.0
C145 C 0.02592 0.90046 0.50932 0.0
C146 C 0.0127 0.90155 0.48577 0.0
C147 C 0.0194 0.91976 0.4679 0.0
H148 H 0.98753 0.95621 0.40946 0.0
H149 H 0.95464 0.96611 0.37802 0.0
H150 H 0.00445 0.02288 0.34542 0.0
H151 H 0.03785 0.01321 0.37718 0.0
H152 H 0.10498 0.00623 0.40386 0.0
H153 H 0.14455 0.03128 0.4101 0.0
H154 H 0.12861 0.04017 0.49056 0.0
H155 H 0.09029 0.01321 0.4845 0.0
H156 H 0.06898 0.9491 0.50104 0.0
H157 H 0.05683 0.91731 0.53255 0.0
H158 H 0.99689 0.88842 0.48127 0.0
H159 H 0.00851 0.92012 0.45008 0.0
N160 N 0.02951 0.96106 0.43417 0.0
N161 N 0.05578 0.9944 0.4199 0.0
N162 N 0.06662 0.97288 0.45755 0.0
C163 C 0.03433 0.97946 0.41688 0.0
C164 C 0.0719 0.9912 0.44025 0.0
C165 C 0.04555 0.9575 0.45443 0.0
C166 C 0.01536 0.9841 0.3961 0.0
C167 C 0.99176 0.97071 0.39558 0.0
C168 C 0.97281 0.9764 0.37763 0.0
C169 C 0.97699 0.99546 0.35965 0.0
C170 C 0.00084 0.00817 0.35926 0.0
C171 C 0.01987 0.00264 0.37745 0.0
C172 C 0.09489 0.00763 0.44376 0.0
C173 C 0.11011 0.01351 0.42286 0.0
C174 C 0.13267 0.02797 0.42646 0.0
C175 C 0.1401 0.03743 0.45095 0.0
C176 C 0.12413 0.03237 0.47165 0.0
C177 C 0.10202 0.01719 0.46816 0.0
C178 C 0.03957 0.93738 0.47309 0.0
C179 C 0.05334 0.93583 0.4964 0.0
C180 C 0.24198 0.76149 0.85688 0.0
C181 C 0.22998 0.78453 0.86293 0.0
C182 C 0.21324 0.79496 0.84476 0.0
C183 C 0.20854 0.78252 0.82112 0.0
H184 H 0.15477 0.77558 0.76152 0.0
H185 H 0.11837 0.78642 0.73436 0.0
H186 H 0.14282 0.73296 0.67644 0.0
H187 H 0.17892 0.72155 0.70371 0.0
H188 H 0.21328 0.67347 0.72771 0.0
H189 H 0.23734 0.63456 0.72005 0.0
H190 H 0.29803 0.66369 0.77019 0.0
H191 H 0.27401 0.70243 0.77824 0.0
H192 H 0.24708 0.73144 0.82941 0.0
H193 H 0.25483 0.75285 0.87054 0.0
H194 H 0.20411 0.81296 0.84862 0.0
H195 H 0.1956 0.79111 0.80752 0.0
N196 N 0.19635 0.75305 0.77433 0.0
N197 N 0.20637 0.72033 0.74512 0.0
N198 N 0.23067 0.72628 0.78297 0.0
C199 C 0.19149 0.74027 0.75179 0.0
C200 C 0.22607 0.71331 0.76056 0.0
C201 C 0.2159 0.74614 0.79005 0.0
C202 C 0.16976 0.74754 0.73494 0.0
C203 C 0.15246 0.76609 0.74301 0.0
C204 C 0.13161 0.77239 0.72743 0.0
C205 C 0.12758 0.76032 0.70341 0.0
C206 C 0.1451 0.74215 0.6951 0.0
C207 C 0.1659 0.73575 0.71071 0.0
C208 C 0.24165 0.69097 0.75374 0.0
C209 C 0.23193 0.67179 0.73679 0.0
C210 C 0.24564 0.64953 0.73238 0.0
C211 C 0.26955 0.64632 0.74437 0.0
C212 C 0.27978 0.66592 0.76043 0.0
C213 C 0.26591 0.68796 0.7652 0.0
C214 C 0.2207 0.75952 0.81505 0.0
C215 C 0.23748 0.74919 0.83326 0.0
C216 C 0.94874 0.64539 0.50766 0.0
C217 C 0.94055 0.64641 0.53299 0.0
C218 C 0.92937 0.62458 0.54363 0.0
C219 C 0.92629 0.60199 0.52901 0.0
H220 H 0.87487 0.53702 0.51581 0.0
H221 H 0.84462 0.50216 0.52534 0.0
H222 H 0.87647 0.45585 0.46529 0.0
H223 H 0.90646 0.49004 0.45576 0.0
H224 H 0.94294 0.51345 0.41739 0.0
H225 H 0.97463 0.50169 0.38629 0.0
H226 H 0.02368 0.56441 0.41289 0.0
H227 H 0.99166 0.57665 0.44408 0.0
H228 H 0.95276 0.62255 0.47374 0.0
H229 H 0.95739 0.66209 0.49913 0.0
H230 H 0.9228 0.6251 0.56314 0.0
H231 H 0.91761 0.58538 0.53763 0.0
N232 N 0.91442 0.55871 0.4937 0.0
N233 N 0.92852 0.53321 0.45972 0.0
N234 N 0.94844 0.5729 0.46851 0.0
C235 C 0.91234 0.53678 0.47934 0.0
C236 C 0.94661 0.55105 0.45415 0.0
C237 C 0.93238 0.5769 0.48824 0.0
C238 C 0.89325 0.51639 0.48508 0.0
C239 C 0.87535 0.51943 0.50459 0.0
C240 C 0.85796 0.49958 0.50999 0.0
C241 C 0.85832 0.47636 0.49607 0.0
C242 C 0.87595 0.47349 0.47646 0.0
C243 C 0.89311 0.49321 0.47098 0.0
C244 C 0.96485 0.54584 0.43349 0.0
C245 C 0.96032 0.52498 0.41656 0.0
C246 C 0.97847 0.5182 0.39871 0.0
C247 C 0.00165 0.53203 0.39733 0.0
C248 C 0.00585 0.55357 0.41343 0.0
C249 C 0.98756 0.56047 0.43133 0.0
C250 C 0.93481 0.60084 0.50369 0.0
C251 C 0.94613 0.62276 0.49322 0.0
C252 C 0.90613 0.80885 0.77345 0.0
C253 C 0.89945 0.81996 0.75005 0.0
C254 C 0.87605 0.83249 0.7479 0.0
C255 C 0.85977 0.83396 0.76856 0.0
H256 H 0.79982 0.87319 0.79384 0.0
H257 H 0.76142 0.89778 0.78776 0.0
H258 H 0.72886 0.86378 0.85453 0.0
H259 H 0.76713 0.83854 0.86047 0.0
H260 H 0.79214 0.78869 0.88167 0.0
H261 H 0.78925 0.75011 0.90684 0.0
H262 H 0.86403 0.72847 0.88216 0.0
H263 H 0.86691 0.76676 0.85647 0.0
H264 H 0.89499 0.80083 0.81175 0.0
H265 H 0.92402 0.79904 0.77568 0.0
H266 H 0.86977 0.84039 0.72992 0.0
H267 H 0.8417 0.84335 0.76591 0.0
N268 N 0.82764 0.83833 0.81216 0.0
N269 N 0.81011 0.81866 0.84777 0.0
N270 N 0.84842 0.80396 0.83085 0.0
C271 C 0.80899 0.83694 0.82971 0.0
C272 C 0.82983 0.80216 0.84856 0.0
C273 C 0.84745 0.82205 0.81262 0.0
C274 C 0.7866 0.85372 0.82761 0.0
C275 C 0.78467 0.87107 0.80747 0.0
C276 C 0.76271 0.88537 0.80405 0.0
C277 C 0.74225 0.88283 0.82078 0.0
C278 C 0.74436 0.86602 0.8413 0.0
C279 C 0.76632 0.85164 0.84472 0.0
C280 C 0.82959 0.78068 0.86665 0.0
C281 C 0.80815 0.77592 0.88177 0.0
C282 C 0.80648 0.75385 0.89629 0.0
C283 C 0.8262 0.73609 0.89604 0.0
C284 C 0.84828 0.74155 0.88218 0.0
C285 C 0.84994 0.76357 0.86758 0.0
C286 C 0.86611 0.82237 0.79177 0.0
C287 C 0.88955 0.80993 0.79409 0.0
C288 C 0.3955 0.3088 0.27016 0.0
C289 C 0.39326 0.32526 0.2494 0.0
C290 C 0.37725 0.34637 0.25142 0.0
C291 C 0.36289 0.35033 0.2733 0.0
H292 H 0.30803 0.40048 0.31286 0.0
H293 H 0.27096 0.42773 0.30774 0.0
H294 H 0.22318 0.36904 0.34056 0.0
H295 H 0.2603 0.34287 0.34724 0.0
H296 H 0.29037 0.3063 0.38586 0.0
H297 H 0.28584 0.26851 0.41191 0.0
H298 H 0.35879 0.24221 0.38637 0.0
H299 H 0.36326 0.27973 0.35982 0.0
H300 H 0.38271 0.29913 0.30732 0.0
H301 H 0.4074 0.29216 0.26899 0.0
H302 H 0.37532 0.35945 0.23573 0.0
H303 H 0.35015 0.36634 0.27383 0.0
N304 N 0.32735 0.35261 0.3147 0.0
N305 N 0.3093 0.33436 0.35091 0.0
N306 N 0.3463 0.31727 0.33367 0.0
C307 C 0.30894 0.35239 0.33261 0.0
C308 C 0.32808 0.3169 0.35178 0.0
C309 C 0.34613 0.33506 0.31508 0.0
C310 C 0.28704 0.3696 0.33048 0.0
C311 C 0.28959 0.39362 0.31916 0.0
C312 C 0.2683 0.40908 0.31598 0.0
C313 C 0.24394 0.40045 0.32336 0.0
C314 C 0.24163 0.3765 0.33494 0.0
C315 C 0.26294 0.36141 0.3387 0.0
C316 C 0.32705 0.29595 0.37044 0.0
C317 C 0.30571 0.29274 0.38608 0.0
C318 C 0.30316 0.27116 0.40121 0.0
C319 C 0.32198 0.25246 0.40118 0.0
C320 C 0.34392 0.25629 0.38661 0.0
C321 C 0.34645 0.2778 0.37141 0.0
C322 C 0.36415 0.33317 0.29363 0.0
C323 C 0.38118 0.31276 0.29208 0.0
C324 C 0.50149 0.86543 0.49747 0.0
C325 C 0.49931 0.87013 0.47112 0.0
C326 C 0.49626 0.89543 0.46321 0.0
C327 C 0.49425 0.91534 0.4811 0.0
H328 H 0.45084 0.9807 0.48942 0.0
H329 H 0.41572 0.00823 0.47805 0.0
H330 H 0.40233 0.02338 0.55803 0.0
H331 H 0.43823 0.99636 0.56956 0.0
H332 H 0.48062 0.97552 0.60993 0.0
H333 H 0.50162 0.97738 0.65209 0.0
H334 H 0.5628 0.93172 0.62352 0.0
H335 H 0.54178 0.92944 0.58124 0.0
H336 H 0.50103 0.88132 0.53562 0.0
H337 H 0.50332 0.84615 0.50429 0.0
H338 H 0.49498 0.89983 0.44308 0.0
H339 H 0.49118 0.9345 0.47435 0.0
N340 N 0.4734 0.9492 0.51991 0.0
N341 N 0.47873 0.96835 0.56054 0.0
N342 N 0.50232 0.93218 0.5495 0.0
C343 C 0.46717 0.96768 0.53707 0.0
C344 C 0.49657 0.95087 0.56678 0.0
C345 C 0.49076 0.93133 0.52599 0.0
C346 C 0.44712 0.98606 0.5304 0.0
C347 C 0.44051 0.98994 0.50463 0.0
C348 C 0.42027 0.00558 0.49811 0.0
C349 C 0.40584 0.01736 0.51718 0.0
C350 C 0.41305 0.01439 0.54295 0.0
C351 C 0.43357 0.99893 0.54952 0.0
C352 C 0.50945 0.9522 0.59225 0.0
C353 C 0.49858 0.96591 0.61254 0.0
C354 C 0.51052 0.96698 0.63666 0.0
C355 C 0.53372 0.95467 0.64087 0.0
C356 C 0.54493 0.94141 0.62059 0.0
C357 C 0.53279 0.93998 0.59651 0.0
C358 C 0.49581 0.91057 0.50737 0.0
C359 C 0.50006 0.88554 0.51544 0.0
C360 C 0.27246 0.22623 0.63577 0.0
C361 C 0.25879 0.20333 0.63041 0.0
C362 C 0.23835 0.19652 0.6461 0.0
C363 C 0.23129 0.21267 0.66629 0.0
H364 H 0.17732 0.22172 0.72429 0.0
H365 H 0.13687 0.21552 0.74657 0.0
H366 H 0.14502 0.29129 0.77986 0.0
H367 H 0.18521 0.29766 0.75814 0.0
H368 H 0.23151 0.33177 0.7482 0.0
H369 H 0.25487 0.37191 0.75581 0.0
H370 H 0.30887 0.35111 0.69821 0.0
H371 H 0.28528 0.31079 0.69011 0.0
H372 H 0.2763 0.26 0.65916 0.0
H373 H 0.28824 0.23202 0.62396 0.0
H374 H 0.22778 0.17872 0.64273 0.0
H375 H 0.21527 0.20697 0.67781 0.0
N376 N 0.21568 0.24845 0.70608 0.0
N377 N 0.22144 0.28759 0.72825 0.0
N378 N 0.24977 0.2762 0.69618 0.0
C379 C 0.208 0.2653 0.72436 0.0
C380 C 0.24234 0.29321 0.71432 0.0
C381 C 0.23662 0.25378 0.69191 0.0
C382 C 0.18452 0.26029 0.73918 0.0
C383 C 0.17066 0.23696 0.73658 0.0
C384 C 0.14762 0.2333 0.7494 0.0
C385 C 0.13802 0.25296 0.76481 0.0
C386 C 0.15215 0.27587 0.76805 0.0
C387 C 0.17516 0.27947 0.75551 0.0
C388 C 0.25658 0.31782 0.71868 0.0
C389 C 0.24835 0.33558 0.7371 0.0
C390 C 0.2618 0.35859 0.74158 0.0
C391 C 0.28391 0.36441 0.72789 0.0
C392 C 0.29191 0.34703 0.70906 0.0
C393 C 0.27843 0.32392 0.70454 0.0
C394 C 0.24463 0.23592 0.6713 0.0
C395 C 0.26548 0.24232 0.65593 0.0
C396 C 0.71966 0.12724 0.76403 0.0
C397 C 0.69772 0.12103 0.74906 0.0
C398 C 0.69188 0.13612 0.72791 0.0
C399 C 0.70784 0.15671 0.72158 0.0
H400 H 0.72338 0.20696 0.66255 0.0
H401 H 0.71694 0.23066 0.62314 0.0
H402 H 0.77033 0.28915 0.65093 0.0
H403 H 0.77701 0.26561 0.69024 0.0
H404 H 0.82161 0.24565 0.72683 0.0
H405 H 0.86136 0.25481 0.75024 0.0
H406 H 0.84377 0.19483 0.80292 0.0
H407 H 0.80382 0.18512 0.77917 0.0
H408 H 0.75243 0.15195 0.76965 0.0
H409 H 0.72436 0.11627 0.78076 0.0
H410 H 0.67512 0.13175 0.71601 0.0
H411 H 0.7028 0.16774 0.70499 0.0
N412 N 0.74132 0.19901 0.70886 0.0
N413 N 0.77866 0.22374 0.71622 0.0
N414 N 0.76912 0.18965 0.74306 0.0
C415 C 0.75691 0.21879 0.70227 0.0
C416 C 0.785 0.20928 0.73659 0.0
C417 C 0.7472 0.18441 0.72933 0.0
C418 C 0.75095 0.23422 0.67947 0.0
C419 C 0.73351 0.22503 0.66045 0.0
C420 C 0.72982 0.23854 0.63788 0.0
C421 C 0.74323 0.26163 0.63404 0.0
C422 C 0.75968 0.27145 0.65351 0.0
C423 C 0.76363 0.25782 0.67592 0.0
C424 C 0.80926 0.21474 0.75116 0.0
C425 C 0.82601 0.23436 0.74342 0.0
C426 C 0.8488 0.23975 0.75692 0.0
C427 C 0.85545 0.22583 0.77866 0.0
C428 C 0.83906 0.2059 0.78626 0.0
C429 C 0.81615 0.20045 0.77269 0.0
C430 C 0.73003 0.16276 0.73632 0.0
C431 C 0.73565 0.14781 0.75771 0.0
C432 C 0.45791 0.53122 0.59015 0.0
C433 C 0.46296 0.51402 0.60987 0.0
C434 C 0.4854 0.49982 0.60899 0.0
C435 C 0.50246 0.50279 0.58901 0.0
H436 H 0.56702 0.47312 0.56136 0.0
H437 H 0.60349 0.4451 0.55964 0.0
H438 H 0.62592 0.47832 0.48848 0.0
H439 H 0.58922 0.50642 0.48989 0.0
H440 H 0.55933 0.55433 0.46962 0.0
H441 H 0.55499 0.58881 0.43925 0.0
H442 H 0.48916 0.61576 0.47912 0.0
H443 H 0.49353 0.58155 0.50981 0.0
H444 H 0.47054 0.54767 0.55527 0.0
H445 H 0.44053 0.54205 0.58997 0.0
H446 H 0.48993 0.48654 0.62396 0.0
H447 H 0.51958 0.49155 0.58915 0.0
N448 N 0.53604 0.50727 0.54632 0.0
N449 N 0.54986 0.52828 0.50979 0.0
N450 N 0.51295 0.54168 0.53054 0.0
C451 C 0.55308 0.50963 0.52723 0.0
C452 C 0.52987 0.54443 0.51129 0.0
C453 C 0.5159 0.5231 0.54814 0.0
C454 C 0.57515 0.49223 0.52583 0.0
C455 C 0.57963 0.47455 0.54528 0.0
C456 C 0.60063 0.45855 0.54441 0.0
C457 C 0.6177 0.45977 0.5241 0.0
C458 C 0.61305 0.47701 0.50437 0.0
C459 C 0.59207 0.49316 0.50528 0.0
C460 C 0.52686 0.56511 0.49236 0.0
C461 C 0.54391 0.56757 0.47203 0.0
C462 C 0.54141 0.58729 0.45452 0.0
C463 C 0.52192 0.60516 0.45697 0.0
C464 C 0.50468 0.60259 0.47705 0.0
C465 C 0.50712 0.58283 0.49454 0.0
C466 C 0.49758 0.5201 0.56932 0.0
C467 C 0.47507 0.5343 0.57016 0.0
C468 C 0.53728 0.42231 0.01917 0.0
C469 C 0.5164 0.40592 0.013 0.0
C470 C 0.50389 0.40811 0.98918 0.0
C471 C 0.5113 0.42705 0.97231 0.0
H472 H 0.49542 0.45595 0.90025 0.0
H473 H 0.4655 0.4647 0.86521 0.0
H474 H 0.49257 0.54307 0.86462 0.0
H475 H 0.52289 0.53443 0.89951 0.0
H476 H 0.58055 0.54253 0.92456 0.0
H477 H 0.62052 0.5668 0.93048 0.0
H478 H 0.64047 0.52072 0.99511 0.0
H479 H 0.60037 0.49654 0.9896 0.0
H480 H 0.56054 0.45408 0.00783 0.0
H481 H 0.54728 0.42092 0.03741 0.0
H482 H 0.48809 0.3953 0.98371 0.0
H483 H 0.50086 0.42841 0.95431 0.0
N484 N 0.52312 0.46979 0.94062 0.0
N485 N 0.54885 0.50522 0.93063 0.0
N486 N 0.55865 0.48109 0.96673 0.0
C487 C 0.52833 0.48966 0.92512 0.0
C488 C 0.5642 0.501 0.95133 0.0
C489 C 0.53811 0.46541 0.96152 0.0
C490 C 0.51141 0.49455 0.9028 0.0
C491 C 0.49519 0.47501 0.89255 0.0
C492 C 0.47821 0.47992 0.87239 0.0
C493 C 0.47683 0.50452 0.86237 0.0
C494 C 0.49335 0.52395 0.87214 0.0
C495 C 0.51067 0.51897 0.89204 0.0
C496 C 0.58729 0.51735 0.95644 0.0
C497 C 0.59323 0.53772 0.94028 0.0
C498 C 0.61611 0.55167 0.94364 0.0
C499 C 0.6335 0.54568 0.96328 0.0
C500 C 0.62719 0.52603 0.98008 0.0
C501 C 0.6043 0.51204 0.97673 0.0
C502 C 0.53155 0.4442 0.97879 0.0
C503 C 0.54478 0.44132 0.00224 0.0
C504 C 0.74514 0.25767 0.34569 0.0
C505 C 0.73135 0.27954 0.35211 0.0
C506 C 0.71228 0.28772 0.33506 0.0
C507 C 0.70754 0.27462 0.31177 0.0
H508 H 0.66249 0.27439 0.246 0.0
H509 H 0.62628 0.28537 0.21868 0.0
H510 H 0.63697 0.2172 0.17272 0.0
H511 H 0.67362 0.20638 0.19959 0.0
H512 H 0.71666 0.16739 0.2158 0.0
H513 H 0.74045 0.12829 0.20849 0.0
H514 H 0.79628 0.15293 0.26604 0.0
H515 H 0.77268 0.19198 0.27353 0.0
H516 H 0.75162 0.22793 0.31824 0.0
H517 H 0.75952 0.25053 0.35873 0.0
H518 H 0.70134 0.30449 0.33957 0.0
H519 H 0.69286 0.28157 0.29896 0.0
N520 N 0.69749 0.2456 0.26445 0.0
N521 N 0.70736 0.21209 0.23609 0.0
N522 N 0.73155 0.2188 0.27391 0.0
C523 C 0.6926 0.23231 0.24221 0.0
C524 C 0.72698 0.2053 0.25178 0.0
C525 C 0.7169 0.23893 0.28045 0.0
C526 C 0.67095 0.23938 0.22517 0.0
C527 C 0.6572 0.26169 0.23009 0.0
C528 C 0.63633 0.26794 0.21452 0.0
C529 C 0.62855 0.25193 0.19381 0.0
C530 C 0.64255 0.22992 0.18854 0.0
C531 C 0.66352 0.2237 0.20402 0.0
C532 C 0.74256 0.18273 0.2455 0.0
C533 C 0.73417 0.16468 0.2267 0.0
C534 C 0.74773 0.14227 0.2225 0.0
C535 C 0.77008 0.13761 0.2368 0.0
C536 C 0.77916 0.15616 0.25468 0.0
C537 C 0.76549 0.17841 0.25909 0.0
C538 C 0.72172 0.25299 0.30511 0.0
C539 C 0.74049 0.24464 0.32247 0.0
C540 C 0.4755 0.13607 0.01899 0.0
C541 C 0.46241 0.14035 0.04172 0.0
C542 C 0.44781 0.12044 0.05202 0.0
C543 C 0.44538 0.09683 0.03908 0.0
H544 H 0.40609 0.02185 0.03656 0.0
H545 H 0.37162 0.9906 0.04461 0.0
H546 H 0.36601 0.97214 0.96397 0.0
H547 H 0.40068 0.00269 0.95587 0.0
H548 H 0.45548 0.00588 0.9279 0.0
H549 H 0.48414 0.99331 0.89417 0.0
H550 H 0.53953 0.05053 0.92089 0.0
H551 H 0.51058 0.06366 0.95457 0.0
H552 H 0.48321 0.11 0.98836 0.0
H553 H 0.4868 0.15129 0.01075 0.0
H554 H 0.43747 0.12351 0.06951 0.0
H555 H 0.43337 0.08203 0.04706 0.0
N556 N 0.43327 0.05282 0.00572 0.0
N557 N 0.44346 0.02668 0.97062 0.0
N558 N 0.46858 0.06318 0.98062 0.0
C559 C 0.42817 0.03182 0.99064 0.0
C560 C 0.46382 0.04212 0.96558 0.0
C561 C 0.45338 0.06873 0.00067 0.0
C562 C 0.40615 0.01459 0.99561 0.0
C563 C 0.39729 0.01131 0.02055 0.0
C564 C 0.37766 0.99349 0.02517 0.0
C565 C 0.36616 0.97927 0.00484 0.0
C566 C 0.37444 0.98314 0.97987 0.0
C567 C 0.39438 0.00047 0.97531 0.0
C568 C 0.48076 0.03568 0.94412 0.0
C569 C 0.47366 0.01598 0.92658 0.0
C570 C 0.49009 0.00873 0.90724 0.0
C571 C 0.51407 0.02091 0.90494 0.0
C572 C 0.52101 0.04105 0.922 0.0
C573 C 0.50447 0.04843 0.94137 0.0
C574 C 0.45778 0.09272 0.01578 0.0
C575 C 0.47338 0.11243 0.00623 0.0
Zn576 Zn 0.2874 0.83806 0.00777 0.0
Zn577 Zn 0.24458 0.86466 0.01007 0.0
O578 O 0.24299 0.84229 0.04242 0.0
O579 O 0.27625 0.81762 0.03796 0.0
O580 O 0.21258 0.88567 0.01131 0.0
O581 O 0.3086 0.87051 0.01319 0.0
O582 O 0.27323 0.8924 0.01088 0.0
C583 C 0.2567 0.824 0.0502 0.0
C584 C 0.25573 0.83101 0.96269 0.0
O585 O 0.24065 0.84496 0.97543 0.0
O586 O 0.27752 0.82595 0.97199 0.0
C587 C 0.20845 0.90018 0.03051 0.0
O588 O 0.22506 0.9008 0.04968 0.0
C589 C 0.29752 0.89177 0.01277 0.0
Zn590 Zn 0.0926 0.44489 0.29877 0.0
Zn591 Zn 0.11161 0.48978 0.28259 0.0
O592 O 0.08781 0.50068 0.31183 0.0
O593 O 0.07261 0.46381 0.32502 0.0
O594 O 0.12732 0.52288 0.27077 0.0
O595 O 0.12802 0.43355 0.30807 0.0
O596 O 0.14345 0.46966 0.29307 0.0
C597 C 0.07366 0.48797 0.3268 0.0
C598 C 0.07952 0.45487 0.24611 0.0
O599 O 0.09246 0.47542 0.25063 0.0
O600 O 0.077 0.43847 0.26342 0.0
C601 C 0.13793 0.53838 0.28692 0.0
O602 O 0.13749 0.53281 0.3113 0.0
C603 C 0.14688 0.448 0.30313 0.0
Zn604 Zn 0.7893 0.58683 0.94814 0.0
Zn605 Zn 0.78453 0.61204 0.99281 0.0
O606 O 0.81058 0.58465 0.00257 0.0
O607 O 0.81233 0.56242 0.96641 0.0
O608 O 0.78004 0.6333 0.02483 0.0
O609 O 0.80338 0.61858 0.93173 0.0
O610 O 0.79728 0.63926 0.96793 0.0
C611 C 0.81886 0.56573 0.98971 0.0
C612 C 0.738 0.58547 0.96598 0.0
O613 O 0.74824 0.59757 0.98506 0.0
O614 O 0.75144 0.57938 0.94705 0.0
C615 C 0.77011 0.62512 0.04515 0.0
O616 O 0.76312 0.60091 0.04626 0.0
C617 C 0.80424 0.63923 0.94473 0.0
Zn618 Zn 0.83768 0.00134 0.27751 0.0
Zn619 Zn 0.86618 0.00413 0.23679 0.0
O620 O 0.84232 0.03534 0.23337 0.0
O621 O 0.81596 0.02985 0.26517 0.0
O622 O 0.89011 0.00702 0.20701 0.0
O623 O 0.86784 0.00833 0.3011 0.0
O624 O 0.89199 0.00637 0.26734 0.0
C625 C 0.82277 0.04214 0.24578 0.0
C626 C 0.83514 0.95513 0.24732 0.0
O627 O 0.84871 0.9681 0.23201 0.0
O628 O 0.82842 0.96498 0.26834 0.0
C629 C 0.88361 0.0111 0.18392 0.0
O630 O 0.85927 0.01339 0.17801 0.0
C631 C 0.88982 0.00853 0.29152 0.0
Zn632 Zn 0.28889 0.09985 0.44319 0.0
Zn633 Zn 0.28145 0.11991 0.48994 0.0
O634 O 0.31102 0.09584 0.49762 0.0
O635 O 0.31438 0.07661 0.46 0.0
O636 O 0.27257 0.13623 0.52375 0.0
O637 O 0.30015 0.13428 0.43072 0.0
O638 O 0.29148 0.15098 0.46833 0.0
C639 C 0.32116 0.07904 0.48333 0.0
C640 C 0.23853 0.09044 0.45945 0.0
O641 O 0.24776 0.10089 0.47991 0.0
O642 O 0.25188 0.08882 0.43964 0.0
C643 C 0.28886 0.14499 0.54017 0.0
O644 O 0.3133 0.14283 0.53558 0.0
C645 C 0.29887 0.15365 0.44546 0.0
Zn646 Zn 0.33762 0.50927 0.78224 0.0
Zn647 Zn 0.36395 0.51143 0.73976 0.0
O648 O 0.34069 0.54317 0.73894 0.0
O649 O 0.31551 0.53815 0.77173 0.0
O650 O 0.38468 0.51572 0.70768 0.0
O651 O 0.36951 0.51625 0.80352 0.0
O652 O 0.3918 0.51227 0.76848 0.0
C653 C 0.32203 0.55057 0.75233 0.0
C654 C 0.33227 0.46326 0.75156 0.0
O655 O 0.34524 0.47605 0.73562 0.0
O656 O 0.32719 0.47306 0.77312 0.0
C657 C 0.39579 0.49755 0.69624 0.0
O658 O 0.39337 0.47431 0.70506 0.0
C659 C 0.39086 0.51529 0.79269 0.0
Zn660 Zn 0.78415 0.33224 0.49828 0.0
Zn661 Zn 0.7411 0.35769 0.50028 0.0
O662 O 0.73903 0.33385 0.53165 0.0
O663 O 0.77309 0.31029 0.52728 0.0
O664 O 0.70889 0.37843 0.50208 0.0
O665 O 0.80497 0.36454 0.50492 0.0
O666 O 0.76938 0.38592 0.503 0.0
C667 C 0.75293 0.31554 0.53903 0.0
C668 C 0.75443 0.3264 0.45195 0.0
O669 O 0.73839 0.3394 0.46455 0.0
O670 O 0.77582 0.32124 0.46206 0.0
C671 C 0.70633 0.39392 0.52085 0.0
O672 O 0.72441 0.39533 0.53863 0.0
C673 C 0.79366 0.38568 0.50521 0.0
Zn674 Zn 0.59241 0.93676 0.79251 0.0
Zn675 Zn 0.61693 0.98114 0.78289 0.0
O676 O 0.59382 0.99161 0.81263 0.0
O677 O 0.57532 0.9548 0.82166 0.0
O678 O 0.63823 0.01267 0.77559 0.0
O679 O 0.6257 0.91909 0.79891 0.0
O680 O 0.64502 0.95599 0.79252 0.0
C681 C 0.5786 0.97852 0.82619 0.0
C682 C 0.58156 0.95522 0.74205 0.0
O683 O 0.59733 0.97307 0.74897 0.0
O684 O 0.57621 0.93742 0.75722 0.0
C685 C 0.62981 0.035 0.77245 0.0
O686 O 0.60513 0.03865 0.77395 0.0
C687 C 0.64608 0.93247 0.79815 0.0
Zn688 Zn 0.99873 0.28349 0.83582 0.0
Zn689 Zn 0.00295 0.23859 0.85723 0.0
O690 O 0.03425 0.23983 0.83303 0.0
O691 O 0.02814 0.27593 0.81324 0.0
O692 O 0.00567 0.20483 0.87537 0.0
O693 O 0.00527 0.30212 0.86929 0.0
O694 O 0.00451 0.26468 0.88772 0.0
C695 C 0.04093 0.25594 0.81624 0.0
C696 C 0.95382 0.25209 0.82735 0.0
O697 O 0.96738 0.23568 0.83882 0.0
O698 O 0.96273 0.27445 0.82419 0.0
C699 C 0.02443 0.20063 0.89043 0.0
O700 O 0.04268 0.21816 0.89312 0.0
C701 C 0.00618 0.28901 0.88932 0.0
Zn702 Zn 0.50148 0.77986 0.33668 0.0
Zn703 Zn 0.50783 0.73987 0.36539 0.0
O704 O 0.54133 0.74049 0.34438 0.0
O705 O 0.53694 0.77645 0.3238 0.0
O706 O 0.51168 0.71018 0.38949 0.0
O707 O 0.4951 0.80264 0.36707 0.0
O708 O 0.50559 0.77036 0.39117 0.0
C709 C 0.55019 0.75733 0.32939 0.0
C710 C 0.46342 0.74193 0.32552 0.0
O711 O 0.47414 0.73112 0.34449 0.0
O712 O 0.47232 0.76286 0.31751 0.0
C713 C 0.51299 0.68679 0.38267 0.0
O714 O 0.51211 0.68079 0.35816 0.0
C715 C 0.4996 0.79371 0.38895 0.0
Zn716 Zn 0.94298 0.79634 0.59903 0.0
Zn717 Zn 0.98885 0.78205 0.61753 0.0
O718 O 0.99824 0.81165 0.59353 0.0
O719 O 0.96072 0.82297 0.5784 0.0
O720 O 0.02256 0.77148 0.63274 0.0
O721 O 0.9323 0.80573 0.6347 0.0
O722 O 0.96917 0.79213 0.64968 0.0
C723 C 0.98479 0.82591 0.57934 0.0
C724 C 0.95438 0.74394 0.58673 0.0
O725 O 0.97509 0.74948 0.59901 0.0
O726 O 0.93738 0.76061 0.58411 0.0
C727 C 0.0372 0.78798 0.64402 0.0
O728 O 0.03042 0.81202 0.64446 0.0
C729 C 0.94733 0.80161 0.65334 0.0
Zn730 Zn 0.43941 0.29185 0.09769 0.0
Zn731 Zn 0.48551 0.28559 0.1197 0.0
O732 O 0.49297 0.31522 0.09524 0.0
O733 O 0.45465 0.32134 0.07863 0.0
O734 O 0.51847 0.28034 0.1392 0.0
O735 O 0.42355 0.29845 0.13193 0.0
O736 O 0.46182 0.29481 0.14922 0.0
C737 C 0.47813 0.32755 0.08053 0.0
C738 C 0.45987 0.24231 0.08717 0.0
O739 O 0.47821 0.25075 0.10159 0.0
O740 O 0.44092 0.25622 0.08246 0.0
C741 C 0.53933 0.2733 0.1296 0.0
O742 O 0.54045 0.26964 0.10473 0.0
C743 C 0.43815 0.29918 0.15153 0.0
C744 C 0.2612 0.80018 0.89681 0.0
C745 C 0.23572 0.79772 0.88793 0.0
C746 C 0.26733 0.81125 0.92078 0.0
C747 C 0.24828 0.82052 0.93692 0.0
H748 H 0.27662 0.79342 0.88514 0.0
H749 H 0.28728 0.81247 0.92667 0.0
S750 S 0.1785 0.81859 0.92277 0.0
N751 N 0.19117 0.80531 0.89723 0.0
N752 N 0.20274 0.82663 0.94218 0.0
C753 C 0.2227 0.81865 0.92812 0.0
C754 C 0.21642 0.80717 0.90367 0.0
C755 C 0.02822 0.49652 0.38147 0.0
C756 C 0.02186 0.52241 0.38044 0.0
C757 C 0.04561 0.48598 0.3646 0.0
C758 C 0.05746 0.50086 0.34589 0.0
H759 H 0.01938 0.48415 0.39528 0.0
H760 H 0.0494 0.46579 0.36604 0.0
S761 S 0.04828 0.57017 0.33612 0.0
N762 N 0.02938 0.5631 0.36001 0.0
N763 N 0.0624 0.54331 0.32815 0.0
C764 C 0.05204 0.5271 0.34526 0.0
C765 C 0.03419 0.53787 0.36257 0.0
C766 C 0.81438 0.71039 0.93414 0.0
C767 C 0.82285 0.71123 0.90883 0.0
C768 C 0.80918 0.68702 0.94584 0.0
C769 C 0.81201 0.66357 0.9326 0.0
H770 H 0.81151 0.72796 0.94489 0.0
H771 H 0.80231 0.68745 0.96524 0.0
S772 S 0.83399 0.65553 0.86586 0.0
N773 N 0.83403 0.68675 0.87089 0.0
N774 N 0.82456 0.64284 0.89281 0.0
C775 C 0.821 0.6642 0.9074 0.0
C776 C 0.82635 0.688 0.89555 0.0
C777 C 0.95806 -0.0007 0.31553 0.0
C778 C 0.95585 0.0024 0.34211 0.0
C779 C 0.93687 0.00249 0.29906 0.0
C780 C 0.91282 0.00895 0.30868 0.0
H781 H 0.97593 0.99329 0.30753 0.0
H782 H 0.93915 0.99884 0.27879 0.0
S783 S 0.89858 0.02288 0.37682 0.0
N784 N 0.92888 0.01482 0.37718 0.0
N785 N 0.88913 0.02107 0.34653 0.0
C786 C 0.91098 0.01364 0.3352 0.0
C787 C 0.93247 0.01028 0.35184 0.0
C788 C 0.29137 0.18109 0.60404 0.0
C789 C 0.26568 0.18705 0.60809 0.0
C790 C 0.29858 0.16712 0.5823 0.0
C791 C 0.2804 0.15857 0.56367 0.0
H792 H 0.30608 0.1874 0.61774 0.0
H793 H 0.31865 0.16325 0.58002 0.0
S794 S 0.21051 0.16954 0.5652 0.0
N795 N 0.222 0.18363 0.59162 0.0
N796 N 0.23534 0.15713 0.55095 0.0
C797 C 0.25453 0.16414 0.5677 0.0
C798 C 0.24723 0.1784 0.58985 0.0
C799 C 0.43802 0.48576 0.63899 0.0
C800 C 0.44494 0.51054 0.63129 0.0
C801 C 0.42193 0.48183 0.65972 0.0
C802 C 0.41201 0.50251 0.6737 0.0
H803 H 0.44511 0.4692 0.62886 0.0
H804 H 0.41735 0.46234 0.66485 0.0
S805 S 0.42476 0.57132 0.66165 0.0
N806 N 0.44101 0.55612 0.63956 0.0
N807 N 0.41049 0.54885 0.67826 0.0
C808 C 0.41859 0.52745 0.66605 0.0
C809 C 0.43507 0.53143 0.64493 0.0
C810 C 0.73605 0.30034 0.60737 0.0
C811 C 0.74213 0.27434 0.60896 0.0
C812 C 0.73796 0.31333 0.58418 0.0
C813 C 0.74665 0.30085 0.56204 0.0
H814 H 0.73037 0.31083 0.62431 0.0
H815 H 0.73392 0.33354 0.58392 0.0
S816 S 0.76368 0.23259 0.55592 0.0
N817 N 0.75589 0.23634 0.58617 0.0
N818 N 0.75997 0.26075 0.54283 0.0
C819 C 0.75194 0.27467 0.56324 0.0
C820 C 0.74956 0.2614 0.58665 0.0
C821 C 0.57013 0.96587 0.67108 0.0
C822 C 0.54567 0.95488 0.6667 0.0
C823 C 0.58153 0.96634 0.69563 0.0
C824 C 0.56904 0.95529 0.71642 0.0
H825 H 0.58039 0.97435 0.65548 0.0
H826 H 0.60039 0.97502 0.69825 0.0
S827 S 0.50461 0.92414 0.71459 0.0
N828 N 0.50923 0.93296 0.68488 0.0
N829 N 0.53066 0.93331 0.73088 0.0
C830 C 0.54456 0.94417 0.71213 0.0
C831 C 0.53287 0.9441 0.6873 0.0
C832 C 0.89719 0.21335 0.79912 0.0
C833 C 0.87948 0.23235 0.79323 0.0
C834 C 0.92094 0.21969 0.81089 0.0
C835 C 0.92784 0.24526 0.81709 0.0
H836 H 0.893 0.19357 0.79385 0.0
H837 H 0.93429 0.20456 0.81438 0.0
S838 S 0.8866 0.30157 0.809 0.0
N839 N 0.86931 0.27731 0.79699 0.0
N840 N 0.91382 0.28932 0.81873 0.0
C841 C 0.90974 0.26423 0.81234 0.0
C842 C 0.88563 0.25776 0.80051 0.0
C843 C 0.48091 0.84934 0.43121 0.0
C844 C 0.49878 0.84891 0.45168 0.0
C845 C 0.48093 0.83095 0.41146 0.0
C846 C 0.49846 0.81101 0.41157 0.0
H847 H 0.4669 0.86424 0.43022 0.0
H848 H 0.4672 0.83251 0.39581 0.0
S849 S 0.54885 0.80055 0.46084 0.0
N850 N 0.53447 0.82658 0.47084 0.0
N851 N 0.53377 0.79136 0.43407 0.0
C852 C 0.51581 0.80963 0.43233 0.0
C853 C 0.51612 0.8287 0.45232 0.0
C854 C 0.10727 0.23513 0.79657 0.0
C855 C 0.11224 0.25098 0.77578 0.0
C856 C 0.08368 0.2359 0.80902 0.0
C857 C 0.06439 0.25255 0.80102 0.0
H858 H 0.12203 0.22286 0.80385 0.0
H859 H 0.08097 0.22415 0.8256 0.0
S860 S 0.0674 0.2954 0.74519 0.0
N861 N 0.09561 0.28195 0.74631 0.0
N862 N 0.05135 0.28334 0.76913 0.0
C863 C 0.06888 0.26741 0.77926 0.0
C864 C 0.09279 0.26665 0.76681 0.0
C865 C 0.51987 0.62111 0.41201 0.0
C866 C 0.5196 0.62634 0.43849 0.0
C867 C 0.51768 0.64072 0.39421 0.0
C868 C 0.51532 0.66645 0.40212 0.0
H869 H 0.5215 0.60162 0.40497 0.0
H870 H 0.51786 0.63557 0.37406 0.0
S871 S 0.51481 0.69036 0.46951 0.0
N872 N 0.51763 0.65913 0.47184 0.0
N873 N 0.51342 0.696 0.43858 0.0
C874 C 0.51526 0.67194 0.42863 0.0
C875 C 0.51739 0.65191 0.44673 0.0
C876 C 0.92537 0.79264 0.72089 0.0
C877 C 0.91557 0.8168 0.72718 0.0
C878 C 0.93708 0.78815 0.69739 0.0
C879 C 0.93899 0.80755 0.67935 0.0
H880 H 0.92281 0.77674 0.73359 0.0
H881 H 0.94339 0.76906 0.69275 0.0
S882 S 0.92049 0.87499 0.68794 0.0
N883 N 0.91213 0.86122 0.71474 0.0
N884 N 0.93289 0.85224 0.67007 0.0
C885 C 0.93067 0.83204 0.68587 0.0
C886 C 0.91929 0.83681 0.70994 0.0
C887 C 0.99072 0.88145 0.53441 0.0
C888 C 0.01684 0.88245 0.52886 0.0
C889 C 0.98087 0.86355 0.55123 0.0
C890 C 0.9967 0.84579 0.5633 0.0
H891 H 0.97766 0.89452 0.52545 0.0
H892 H 0.96051 0.86351 0.55449 0.0
S893 S 0.06683 0.84108 0.55589 0.0
N894 N 0.05865 0.86474 0.53717 0.0
N895 N 0.04018 0.83099 0.56914 0.0
C896 C 0.02309 0.84708 0.55857 0.0
C897 C 0.03314 0.86544 0.54129 0.0
C898 C 0.09907 0.79245 0.68329 0.0
C899 C 0.10504 0.76674 0.68722 0.0
C900 C 0.07741 0.79906 0.6689 0.0
C901 C 0.06078 0.78022 0.65786 0.0
H902 H 0.11124 0.80763 0.69144 0.0
H903 H 0.07362 0.81916 0.66663 0.0
S904 S 0.06774 0.70997 0.66287 0.0
N905 N 0.09248 0.72228 0.67924 0.0
N906 N 0.05196 0.73457 0.65191 0.0
C907 C 0.06672 0.75437 0.6614 0.0
C908 C 0.08879 0.74767 0.67612 0.0
C909 C 0.93067 0.69232 0.53968 0.0
C910 C 0.94339 0.67054 0.54795 0.0
C911 C 0.93394 0.71579 0.55275 0.0
C912 C 0.95046 0.71846 0.57427 0.0
H913 H 0.91818 0.69119 0.52291 0.0
H914 H 0.92388 0.73212 0.54552 0.0
S915 S 0.98793 0.6668 0.6036 0.0
N916 N 0.97264 0.65268 0.57907 0.0
N917 N 0.97932 0.69699 0.60349 0.0
C918 C 0.96319 0.69669 0.5828 0.0
C919 C 0.95948 0.67266 0.5697 0.0
C920 C 0.80808 0.89632 0.21148 0.0
C921 C 0.8045 0.87894 0.2314 0.0
C922 C 0.81926 0.92069 0.21633 0.0
C923 C 0.82701 0.9284 0.24127 0.0
H924 H 0.80118 0.89148 0.19229 0.0
H925 H 0.82068 0.93396 0.20076 0.0
S926 S 0.8259 0.88832 0.29901 0.0
N927 N 0.81272 0.86993 0.27616 0.0
N928 N 0.83321 0.91561 0.28536 0.0
C929 C 0.82496 0.91057 0.26093 0.0
C930 C 0.81384 0.88587 0.25598 0.0
C931 C 0.80907 0.11115 0.23076 0.0
C932 C 0.78267 0.11252 0.23508 0.0
C933 C 0.8218 0.08783 0.23242 0.0
C934 C 0.80861 0.0653 0.23906 0.0
H935 H 0.82004 0.12834 0.22677 0.0
H936 H 0.84228 0.08773 0.22994 0.0
S937 S 0.73917 0.0585 0.25072 0.0
N938 N 0.74362 0.08913 0.2448 0.0
N939 N 0.76751 0.04552 0.24837 0.0
C940 C 0.78207 0.0663 0.24241 0.0
C941 C 0.7691 0.08986 0.24031 0.0
C942 C 0.35419 0.93732 0.02336 0.0
C943 C 0.34699 0.95886 0.00959 0.0
C944 C 0.33769 0.916 0.02496 0.0
C945 C 0.31323 0.91566 0.01323 0.0
H946 H 0.37314 0.93651 0.03199 0.0
H947 H 0.34436 0.89945 0.03503 0.0
S948 S 0.28479 0.96832 0.97649 0.0
N949 N 0.31361 0.97925 0.98501 0.0
N950 N 0.2822 0.93944 0.98851 0.0
C951 C 0.30537 0.93765 0.00044 0.0
C952 C 0.32239 0.95917 0.99844 0.0
C953 C 0.20155 0.41642 0.33728 0.0
C954 C 0.22065 0.41571 0.3187 0.0
C955 C 0.17799 0.42759 0.3323 0.0
C956 C 0.17284 0.43917 0.30884 0.0
H957 H 0.20457 0.40769 0.35567 0.0
H958 H 0.16352 0.42687 0.34681 0.0
S959 S 0.21617 0.44355 0.25398 0.0
N960 N 0.23257 0.42794 0.27576 0.0
N961 N 0.18865 0.45024 0.26714 0.0
C962 C 0.19202 0.43984 0.29053 0.0
C963 C 0.21587 0.42785 0.2953 0.0
C964 C 0.17231 0.06987 0.4362 0.0
C965 C 0.16459 0.05221 0.45468 0.0
C966 C 0.19609 0.0826 0.43815 0.0
C967 C 0.21272 0.07874 0.45902 0.0
H968 H 0.16002 0.07371 0.41988 0.0
H969 H 0.20155 0.09551 0.42317 0.0
S970 S 0.20238 0.03446 0.51235 0.0
N971 N 0.17633 0.03102 0.49419 0.0
N972 N 0.22029 0.05627 0.49848 0.0
C973 C 0.20513 0.06181 0.47802 0.0
C974 C 0.18122 0.04826 0.47572 0.0
C975 C 0.65431 0.10177 0.75666 0.0
C976 C 0.68091 0.09887 0.7554 0.0
C977 C 0.63802 0.08111 0.76235 0.0
C978 C 0.64764 0.05663 0.76686 0.0
H979 H 0.64602 0.12025 0.75341 0.0
H980 H 0.6177 0.08441 0.76311 0.0
S981 S 0.71598 0.03884 0.76498 0.0
N982 N 0.71615 0.06958 0.75848 0.0
N983 N 0.68576 0.03078 0.76936 0.0
C984 C 0.67429 0.05349 0.76559 0.0
C985 C 0.69084 0.07458 0.75984 0.0
C986 C 0.37934 0.05676 0.52055 0.0
C987 C 0.38301 0.03219 0.50998 0.0
C988 C 0.35874 0.0716 0.51252 0.0
C989 C 0.34128 0.06242 0.49352 0.0
H990 H 0.3929 0.06486 0.53454 0.0
H991 H 0.357 0.0907 0.52057 0.0
S992 S 0.34022 0.99793 0.46273 0.0
N993 N 0.36572 0.99828 0.48182 0.0
N994 N 0.32752 0.02635 0.46627 0.0
C995 C 0.34412 0.03749 0.48367 0.0
C996 C 0.36485 0.02234 0.49201 0.0
C997 C 0.64533 0.42797 0.50191 0.0
C998 C 0.64041 0.4432 0.52363 0.0
C999 C 0.66648 0.41192 0.50129 0.0
C1000 C 0.68373 0.41068 0.52225 0.0
H1001 H 0.63255 0.42823 0.48538 0.0
H1002 H 0.66938 0.40053 0.48412 0.0
S1003 S 0.67975 0.44771 0.58337 0.0
N1004 N 0.65474 0.45665 0.56632 0.0
N1005 N 0.69442 0.42663 0.56531 0.0
C1006 C 0.67907 0.42606 0.54403 0.0
C1007 C 0.65745 0.44225 0.54468 0.0
C1008 C 0.71749 0.29985 0.39345 0.0
C1009 C 0.73713 0.29367 0.37655 0.0
C1010 C 0.72303 0.31129 0.41755 0.0
C1011 C 0.74841 0.31679 0.42559 0.0
H1012 H 0.69778 0.29506 0.38836 0.0
H1013 H 0.70742 0.31498 0.43029 0.0
S1014 S 0.80632 0.30788 0.38681 0.0
N1015 N 0.78258 0.29656 0.36837 0.0
N1016 N 0.79307 0.3176 0.41356 0.0
C1017 C 0.76805 0.31179 0.40831 0.0
C1018 C 0.7624 0.30035 0.38384 0.0
C1019 C 0.53618 0.98491 0.88362 0.0
C1020 C 0.5321 0.0113 0.88565 0.0
C1021 C 0.55174 0.97476 0.86476 0.0
C1022 C 0.564 0.99056 0.84708 0.0
H1023 H 0.52709 0.97189 0.89667 0.0
H1024 H 0.55392 0.95423 0.86395 0.0
S1025 S 0.56002 0.06121 0.84459 0.0
N1026 N 0.54185 0.05325 0.86875 0.0
N1027 N 0.57147 0.03419 0.83326 0.0
C1028 C 0.5607 0.01715 0.84931 0.0
C1029 C 0.54469 0.02751 0.8686 0.0
C1030 C 0.32046 0.20488 0.39988 0.0
C1031 C 0.31749 0.22774 0.41391 0.0
C1032 C 0.31469 0.18118 0.41044 0.0
C1033 C 0.30571 0.17926 0.43555 0.0
H1034 H 0.32666 0.2053 0.38025 0.0
H1035 H 0.31703 0.16424 0.39856 0.0
S1036 S 0.29617 0.23359 0.48089 0.0
N1037 N 0.30617 0.24717 0.45457 0.0
N1038 N 0.29514 0.20254 0.47459 0.0
C1039 C 0.30319 0.20202 0.45006 0.0
C1040 C 0.30906 0.22625 0.43919 0.0
C1041 C 0.45527 0.49649 0.81971 0.0
C1042 C 0.45672 0.51012 0.84315 0.0
C1043 C 0.4346 0.49947 0.80259 0.0
C1044 C 0.41443 0.51569 0.80871 0.0
H1045 H 0.46992 0.483 0.8149 0.0
H1046 H 0.43377 0.48803 0.7851 0.0
S1047 S 0.41 0.55658 0.86711 0.0
N1048 N 0.43708 0.54137 0.87099 0.0
N1049 N 0.39795 0.54658 0.83916 0.0
C1050 C 0.41614 0.53002 0.83171 0.0
C1051 C 0.43737 0.52734 0.84886 0.0
C1052 C 0.75459 0.64956 0.11193 0.0
C1053 C 0.75688 0.67626 0.10982 0.0
C1054 C 0.75897 0.63319 0.09098 0.0
C1055 C 0.76585 0.64289 0.06709 0.0
H1056 H 0.74963 0.64121 0.13 0.0
H1057 H 0.75707 0.61277 0.09362 0.0
S1058 S 0.77259 0.71157 0.05117 0.0
N1059 N 0.76512 0.71175 0.08166 0.0
N1060 N 0.77374 0.68116 0.04242 0.0
C1061 C 0.76795 0.66963 0.0647 0.0
C1062 C 0.76339 0.68625 0.08601 0.0
C1063 C 0.91403 0.01935 0.11892 0.0
C1064 C 0.94037 0.01827 0.12456 0.0
C1065 C 0.89589 0.01695 0.13817 0.0
C1066 C 0.90333 0.01349 0.1639 0.0
H1067 H 0.90737 0.02174 0.09939 0.0
H1068 H 0.87586 0.01777 0.13275 0.0
S1069 S 0.97021 0.01089 0.18885 0.0
N1070 N 0.9731 0.01463 0.15779 0.0
N1071 N 0.93921 0.00991 0.19394 0.0
C1072 C 0.9297 0.01266 0.1698 0.0
C1073 C 0.94814 0.01509 0.15016 0.0
C1074 C 0.25425 0.77119 0.09856 0.0
C1075 C 0.24579 0.78368 0.12073 0.0
C1076 C 0.25687 0.78426 0.07563 0.0
C1077 C 0.25066 0.81021 0.07385 0.0
H1078 H 0.25992 0.75141 0.09922 0.0
H1079 H 0.26431 0.77407 0.05927 0.0
S1080 S 0.2259 0.85109 0.12605 0.0
N1081 N 0.23012 0.82307 0.13936 0.0
N1082 N 0.2344 0.84759 0.09596 0.0
C1083 C 0.24103 0.82263 0.09557 0.0
C1084 C 0.23883 0.8094 0.11912 0.0
C1085 C 0.0642 0.45852 0.17495 0.0
C1086 C 0.04164 0.44364 0.17226 0.0
C1087 C 0.0764 0.4621 0.19894 0.0
C1088 C 0.0667 0.45045 0.22087 0.0
H1089 H 0.07216 0.46785 0.15851 0.0
H1090 H 0.0936 0.47397 0.20029 0.0
S1091 S 0.00825 0.40916 0.22339 0.0
N1092 N 0.01011 0.41705 0.19307 0.0
N1093 N 0.03315 0.42322 0.23807 0.0
C1094 C 0.04432 0.43514 0.21819 0.0
C1095 C 0.03175 0.43189 0.19389 0.0
C1096 C 0.39514 0.71721 0.31681 0.0
C1097 C 0.39053 0.72073 0.29048 0.0
C1098 C 0.41942 0.72237 0.32801 0.0
C1099 C 0.43974 0.73134 0.31321 0.0
H1100 H 0.37962 0.71163 0.32904 0.0
H1101 H 0.42187 0.72078 0.34852 0.0
S1102 S 0.43879 0.73922 0.24291 0.0
N1103 N 0.4093 0.73017 0.24951 0.0
N1104 N 0.45454 0.74049 0.27059 0.0
C1105 C 0.43577 0.73327 0.28669 0.0
C1106 C 0.41126 0.72781 0.27531 0.0
C1107 C 0.98952 0.30846 0.95697 0.0
C1108 C 0.0023 0.33225 0.96018 0.0
C1109 C 0.99223 0.29358 0.93459 0.0
C1110 C 0.00726 0.30241 0.91446 0.0
H1111 H 0.97674 0.3017 0.97152 0.0
H1112 H 0.98134 0.27581 0.93244 0.0
S1113 S 0.04588 0.36265 0.91427 0.0
N1114 N 0.03174 0.36318 0.9422 0.0
N1115 N 0.03637 0.33562 0.8999 0.0
C1116 C 0.02091 0.32569 0.91793 0.0
C1117 C 0.01854 0.34053 0.94087 0.0
C1118 C 0.61052 0.729 0.3018 0.0
C1119 C 0.62385 0.75081 0.29338 0.0
C1120 C 0.58703 0.73115 0.31424 0.0
C1121 C 0.5759 0.75514 0.31818 0.0
H1122 H 0.6183 0.7102 0.29876 0.0
H1123 H 0.57723 0.71389 0.32018 0.0
S1124 S 0.60339 0.81803 0.29967 0.0
N1125 N 0.62428 0.79702 0.28985 0.0
N1126 N 0.58054 0.80117 0.31315 0.0
C1127 C 0.58929 0.77705 0.31001 0.0
C1128 C 0.61313 0.77486 0.29761 0.0
C1129 C 0.04771 0.15115 0.93744 0.0
C1130 C 0.02714 0.1335 0.93827 0.0
C1131 C 0.04675 0.17251 0.92168 0.0
C1132 C 0.02523 0.17704 0.90591 0.0
H1133 H 0.0645 0.14876 0.94953 0.0
H1134 H 0.06298 0.18569 0.92211 0.0
S1135 S 0.96694 0.1354 0.89979 0.0
N1136 N 0.98514 0.12114 0.92109 0.0
N1137 N 0.98318 0.16121 0.89146 0.0
C1138 C 0.00474 0.15912 0.90611 0.0
C1139 C 0.00571 0.13743 0.9223 0.0
C1140 C 0.39092 0.31863 0.20208 0.0
C1141 C 0.40566 0.31917 0.22484 0.0
C1142 C 0.40161 0.31201 0.17864 0.0
C1143 C 0.42755 0.30572 0.17692 0.0
H1144 H 0.37079 0.32295 0.20242 0.0
H1145 H 0.38931 0.31184 0.16174 0.0
S1146 S 0.47458 0.30504 0.23109 0.0
N1147 N 0.44759 0.31346 0.24435 0.0
N1148 N 0.46785 0.30086 0.20029 0.0
C1149 C 0.44259 0.30634 0.19961 0.0
C1150 C 0.43161 0.31306 0.22355 0.0
C1151 C 0.52349 0.36964 0.04292 0.0
C1152 C 0.50689 0.38715 0.03162 0.0
C1153 C 0.51424 0.35077 0.05933 0.0
C1154 C 0.48809 0.34881 0.06495 0.0
H1155 H 0.54361 0.37008 0.0385 0.0
H1156 H 0.52756 0.33722 0.06705 0.0
S1157 S 0.4375 0.39249 0.04284 0.0
N1158 N 0.46369 0.40301 0.02912 0.0
N1159 N 0.44621 0.36767 0.05966 0.0
C1160 C 0.47155 0.36698 0.05456 0.0
C1161 C 0.48097 0.38611 0.03797 0.0
C1162 C 0.60689 0.25705 0.15103 0.0
C1163 C 0.60569 0.25794 0.17787 0.0
C1164 C 0.58545 0.26226 0.13562 0.0
C1165 C 0.56191 0.26852 0.14643 0.0
H1166 H 0.62461 0.25244 0.14184 0.0
H1167 H 0.58741 0.26132 0.11506 0.0
S1168 S 0.54852 0.27228 0.21593 0.0
N1169 N 0.5789 0.26469 0.21468 0.0
N1170 N 0.53872 0.2748 0.18592 0.0
C1171 C 0.56049 0.26943 0.17333 0.0
C1172 C 0.58232 0.26408 0.18898 0.0
C1173 C 0.47392 0.17186 0.07699 0.0
C1174 C 0.46197 0.16631 0.05318 0.0
C1175 C 0.47358 0.19666 0.08778 0.0
C1176 C 0.46074 0.21643 0.07534 0.0
H1177 H 0.48373 0.15702 0.08718 0.0
H1178 H 0.48303 0.20025 0.10615 0.0
S1179 S 0.4267 0.21123 0.01241 0.0
N1180 N 0.43737 0.18225 0.01734 0.0
N1181 N 0.43616 0.22863 0.03766 0.0
C1182 C 0.44869 0.21091 0.05151 0.0
C1183 C 0.44945 0.18588 0.04042 0.0
C1184 C 0.30489 0.40548 0.71414 0.0
C1185 C 0.29859 0.38848 0.7337 0.0
C1186 C 0.31672 0.42936 0.71983 0.0
C1187 C 0.32252 0.43703 0.74527 0.0
H1188 H 0.29984 0.40065 0.69442 0.0
H1189 H 0.32044 0.44225 0.70433 0.0
S1190 S 0.31359 0.39767 0.80289 0.0
N1191 N 0.30176 0.37969 0.77905 0.0
N1192 N 0.32362 0.42443 0.78983 0.0
C1193 C 0.3175 0.41957 0.76479 0.0
C1194 C 0.30563 0.39535 0.75899 0.0
C1195 C 0.26979 0.59936 0.7509 0.0
C1196 C 0.28251 0.62149 0.7426 0.0
C1197 C 0.28254 0.57624 0.75298 0.0
C1198 C 0.30837 0.57426 0.7464 0.0
H1199 H 0.25015 0.60021 0.75696 0.0
H1200 H 0.27224 0.55991 0.76041 0.0
S1201 S 0.34957 0.62628 0.72159 0.0
N1202 N 0.32184 0.63985 0.72643 0.0
N1203 N 0.34577 0.59612 0.72978 0.0
C1204 C 0.32093 0.59594 0.73679 0.0
C1205 C 0.30803 0.61965 0.73511 0.0
C1206 C 0.8516 0.43038 0.50579 0.0
C1207 C 0.84109 0.45451 0.50198 0.0
C1208 C 0.83601 0.40855 0.50795 0.0
C1209 C 0.80918 0.40984 0.50623 0.0
H1210 H 0.87214 0.42825 0.50643 0.0
H1211 H 0.84524 0.39037 0.51017 0.0
S1212 S 0.77217 0.46906 0.49832 0.0
N1213 N 0.80234 0.47893 0.49811 0.0
N1214 N 0.77277 0.43784 0.50223 0.0
C1215 C 0.79836 0.43414 0.50368 0.0
C1216 C 0.81438 0.45647 0.50156 0.0
C1217 C 0.69476 0.88256 0.81545 0.0
C1218 C 0.71809 0.89635 0.81583 0.0
C1219 C 0.67171 0.89443 0.8097 0.0
C1220 C 0.67099 0.92063 0.80411 0.0
H1221 H 0.69435 0.86226 0.81917 0.0
H1222 H 0.65433 0.88282 0.80951 0.0
S1223 S 0.72693 0.96556 0.80379 0.0
N1224 N 0.73916 0.93775 0.81108 0.0
N1225 N 0.69588 0.96018 0.80002 0.0
C1226 C 0.69424 0.93475 0.8047 0.0
C1227 C 0.71775 0.92259 0.81058 0.0
C1228 C 0.67389 0.55854 0.94228 0.0
C1229 C 0.65924 0.55803 0.96447 0.0
C1230 C 0.69904 0.56802 0.94297 0.0
C1231 C 0.71062 0.57753 0.96586 0.0
H1232 H 0.66611 0.55078 0.92434 0.0
H1233 H 0.7096 0.56748 0.92538 0.0
S1234 S 0.67964 0.58213 0.02898 0.0
N1235 N 0.65743 0.56904 0.00972 0.0
N1236 N 0.70489 0.58696 0.01114 0.0
C1237 C 0.69588 0.57792 0.98809 0.0
C1238 C 0.67019 0.56808 0.98738 0.0
C1239 C 0.17781 0.59991 0.28972 0.0
C1240 C 0.18223 0.60492 0.26386 0.0
C1241 C 0.16299 0.57873 0.29688 0.0
C1242 C 0.15202 0.56159 0.27848 0.0
H1243 H 0.18599 0.61244 0.30461 0.0
H1244 H 0.16044 0.57565 0.31709 0.0
S1245 S 0.15789 0.56623 0.20803 0.0
N1246 N 0.17451 0.59111 0.21971 0.0
N1247 N 0.14642 0.55141 0.23303 0.0
C1248 C 0.15592 0.56665 0.25245 0.0
C1249 C 0.17105 0.58827 0.24519 0.0
C1250 C 0.87397 0.53814 0.02764 0.0
C1251 C 0.87267 0.5121 0.02022 0.0
C1252 C 0.85584 0.55539 0.01859 0.0
C1253 C 0.83605 0.54718 0.00161 0.0
H1254 H 0.88961 0.54541 0.03975 0.0
H1255 H 0.85796 0.57541 0.02404 0.0
S1256 S 0.82179 0.48048 0.97972 0.0
N1257 N 0.84799 0.47854 0.9976 0.0
N1258 N 0.81456 0.51103 0.97995 0.0
C1259 C 0.83383 0.52105 0.99509 0.0
C1260 C 0.85197 0.5035 0.00456 0.0
C1261 C 0.14938 0.93528 0.00787 0.0
C1262 C 0.14232 0.94924 0.02975 0.0
C1263 C 0.17056 0.91928 0.00839 0.0
C1264 C 0.18571 0.91679 0.03076 0.0
H1265 H 0.13829 0.93654 0.99025 0.0
H1266 H 0.17517 0.90895 0.991 0.0
S1267 S 0.17556 0.94999 0.09307 0.0
N1268 N 0.15232 0.96002 0.07425 0.0
N1269 N 0.19204 0.93002 0.07538 0.0
C1270 C 0.17886 0.9308 0.05277 0.0
C1271 C 0.1572 0.94697 0.05223 0.0
loop_
_geom_bond_atom_site_label_1
_geom_bond_atom_site_label_2
_geom_bond_distance
_geom_bond_site_symmetry_2
_ccdc_geom_bond_type
C0 C1 1.384 . S
C0 H13 0.947 . S
C0 C35 1.382 . S
C1 C0 1.384 . S
C1 C2 1.374 . S
C2 C1 1.374 . S
C2 C3 1.381 1_655 S
C2 H14 0.953 1_645 S
C3 C2 1.381 1_455 S
C3 H15 0.950 . S
C3 C34 1.383 . S
H4 C23 0.947 . S
H5 C24 0.946 . S
H6 C26 0.953 1_546 S
H7 C27 0.945 . S
H8 C29 0.952 . S
H9 C30 0.949 . S
H10 C32 0.931 1_655 S
H11 C33 0.948 . S
H12 C35 0.951 . S
H13 C0 0.947 . S
H14 C2 0.953 1_465 S
H15 C3 0.950 . S
N16 C19 1.382 . S
N16 C21 1.363 . S
N17 C19 1.371 . S
N17 C20 1.372 . S
N18 C20 1.361 . S
N18 C21 1.377 . S
C19 N16 1.382 . S
C19 N17 1.371 . S
C19 C22 1.480 . S
C20 N17 1.372 . S
C20 N18 1.361 . S
C20 C28 1.457 . S
C21 N16 1.363 . S
C21 N18 1.377 . S
C21 C34 1.479 . S
C22 C19 1.480 . S
C22 C23 1.383 1_545 S
C22 C27 1.385 . S
C23 H4 0.947 . S
C23 C22 1.383 1_565 S
C23 C24 1.388 . S
C24 H5 0.946 . S
C24 C23 1.388 . S
C24 C25 1.384 . S
C25 C24 1.384 . S
C25 C26 1.374 . S
C26 H6 0.953 1_564 S
C26 C25 1.374 . S
C26 C27 1.371 1_565 S
C27 H7 0.945 . S
C27 C22 1.385 . S
C27 C26 1.371 1_545 S
C28 C20 1.457 . S
C28 C29 1.372 1_554 S
C28 C33 1.364 . S
C29 H8 0.952 . S
C29 C28 1.372 1_556 S
C29 C30 1.389 . S
C30 H9 0.949 . S
C30 C29 1.389 . S
C30 C31 1.387 . S
C31 C30 1.387 . S
C31 C32 1.372 1_556 S
C32 H10 0.931 1_455 S
C32 C31 1.372 1_554 S
C32 C33 1.379 . S
C33 H11 0.948 . S
C33 C28 1.364 . S
C33 C32 1.379 . S
C34 C3 1.383 . S
C34 C21 1.479 . S
C34 C35 1.398 1_455 S
C35 C0 1.382 . S
C35 H12 0.951 . S
C35 C34 1.398 1_655 S
C36 C37 1.384 . S
C36 H49 0.947 . S
C36 C71 1.382 . S
C37 C36 1.384 . S
C37 C38 1.378 . S
C38 C37 1.378 . S
C38 C39 1.378 . S
C38 H50 0.952 . S
C39 C38 1.378 . S
C39 H51 0.950 . S
C39 C70 1.383 . S
H40 C59 0.947 . S
H41 C60 0.946 . S
H42 C62 0.953 . S
H43 C63 0.945 . S
H44 C65 0.952 . S
H45 C66 0.949 . S
H46 C68 0.950 . S
H47 C69 0.948 . S
H48 C71 0.951 . S
H49 C36 0.947 . S
H50 C38 0.952 . S
H51 C39 0.950 . S
N52 C55 1.382 . S
N52 C57 1.363 . S
N53 C55 1.371 . S
N53 C56 1.372 . S
N54 C56 1.361 . S
N54 C57 1.377 . S
C55 N52 1.382 . S
C55 N53 1.371 . S
C55 C58 1.480 . S
C56 N53 1.372 . S
C56 N54 1.361 . S
C56 C64 1.457 . S
C57 N52 1.363 . S
C57 N54 1.377 . S
C57 C70 1.479 . S
C58 C55 1.480 . S
C58 C59 1.383 . S
C58 C63 1.385 . S
C59 H40 0.947 . S
C59 C58 1.383 . S
C59 C60 1.388 . S
C60 H41 0.946 . S
C60 C59 1.388 . S
C60 C61 1.384 . S
C61 C60 1.384 . S
C61 C62 1.377 . S
C62 H42 0.953 . S
C62 C61 1.377 . S
C62 C63 1.369 . S
C63 H43 0.945 . S
C63 C58 1.385 . S
C63 C62 1.369 . S
C64 C56 1.457 . S
C64 C65 1.372 . S
C64 C69 1.364 . S
C65 H44 0.952 . S
C65 C64 1.372 . S
C65 C66 1.389 . S
C66 H45 0.949 . S
C66 C65 1.389 . S
C66 C67 1.387 . S
C67 C66 1.387 . S
C67 C68 1.372 . S
C68 H46 0.950 . S
C68 C67 1.372 . S
C68 C69 1.379 . S
C69 H47 0.948 . S
C69 C64 1.364 . S
C69 C68 1.379 . S
C70 C39 1.383 . S
C70 C57 1.479 . S
C70 C71 1.398 . S
C71 C36 1.382 . S
C71 H48 0.951 . S
C71 C70 1.398 . S
C72 C73 1.384 1_554 S
C72 H85 0.947 . S
C72 C107 1.382 . S
C73 C72 1.384 1_556 S
C73 C74 1.378 . S
C74 C73 1.378 . S
C74 C75 1.378 . S
C74 H86 0.952 . S
C75 C74 1.378 . S
C75 H87 0.950 . S
C75 C106 1.383 1_556 S
H76 C95 0.947 . S
H77 C96 0.946 . S
H78 C98 0.953 . S
H79 C99 0.945 . S
H80 C101 0.952 . S
H81 C102 0.949 . S
H82 C104 0.950 . S
H83 C105 0.948 . S
H84 C107 0.951 . S
H85 C72 0.947 . S
H86 C74 0.952 . S
H87 C75 0.950 . S
N88 C91 1.382 . S
N88 C93 1.363 . S
N89 C91 1.371 . S
N89 C92 1.372 . S
N90 C92 1.361 . S
N90 C93 1.377 . S
C91 N88 1.382 . S
C91 N89 1.371 . S
C91 C94 1.480 . S
C92 N89 1.372 . S
C92 N90 1.361 . S
C92 C100 1.457 . S
C93 N88 1.363 . S
C93 N90 1.377 . S
C93 C106 1.479 . S
C94 C91 1.480 . S
C94 C95 1.383 . S
C94 C99 1.385 . S
C95 H76 0.947 . S
C95 C94 1.383 . S
C95 C96 1.388 . S
C96 H77 0.946 . S
C96 C95 1.388 . S
C96 C97 1.384 . S
C97 C96 1.384 . S
C97 C98 1.377 . S
C98 H78 0.953 . S
C98 C97 1.377 . S
C98 C99 1.369 . S
C99 H79 0.945 . S
C99 C94 1.385 . S
C99 C98 1.369 . S
C100 C92 1.457 . S
C100 C101 1.372 . S
C100 C105 1.364 1_655 S
C101 H80 0.952 . S
C101 C100 1.372 . S
C101 C102 1.389 . S
C102 H81 0.949 . S
C102 C101 1.389 . S
C102 C103 1.387 1_655 S
C103 C102 1.387 1_455 S
C103 C104 1.372 . S
C104 H82 0.950 . S
C104 C103 1.372 . S
C104 C105 1.379 . S
C105 H83 0.948 . S
C105 C100 1.364 1_455 S
C105 C104 1.379 . S
C106 C75 1.383 1_554 S
C106 C93 1.479 . S
C106 C107 1.398 . S
C107 C72 1.382 . S
C107 H84 0.951 . S
C107 C106 1.398 . S
C108 C109 1.384 . S
C108 H121 0.947 . S
C108 C143 1.382 . S
C109 C108 1.384 . S
C109 C110 1.378 . S
C110 C109 1.378 . S
C110 C111 1.378 . S
C110 H122 0.952 . S
C111 C110 1.378 . S
C111 H123 0.950 . S
C111 C142 1.383 . S
H112 C131 0.947 . S
H113 C132 0.946 . S
H114 C134 0.953 . S
H115 C135 0.945 . S
H116 C137 0.952 . S
H117 C138 0.949 . S
H118 C140 0.950 . S
H119 C141 0.948 . S
H120 C143 0.951 . S
H121 C108 0.947 . S
H122 C110 0.952 . S
H123 C111 0.950 . S
N124 C127 1.382 . S
N124 C129 1.363 . S
N125 C127 1.371 . S
N125 C128 1.372 . S
N126 C128 1.361 . S
N126 C129 1.377 . S
C127 N124 1.382 . S
C127 N125 1.371 . S
C127 C130 1.480 . S
C128 N125 1.372 . S
C128 N126 1.361 . S
C128 C136 1.457 . S
C129 N124 1.363 . S
C129 N126 1.377 . S
C129 C142 1.479 . S
C130 C127 1.480 . S
C130 C131 1.383 . S
C130 C135 1.385 . S
C131 H112 0.947 . S
C131 C130 1.383 . S
C131 C132 1.388 . S
C132 H113 0.946 . S
C132 C131 1.388 . S
C132 C133 1.384 . S
C133 C132 1.384 . S
C133 C134 1.377 . S
C134 H114 0.953 . S
C134 C133 1.377 . S
C134 C135 1.369 . S
C135 H115 0.945 . S
C135 C130 1.385 . S
C135 C134 1.369 . S
C136 C128 1.457 . S
C136 C137 1.372 . S
C136 C141 1.364 . S
C137 H116 0.952 . S
C137 C136 1.372 . S
C137 C138 1.389 . S
C138 H117 0.949 . S
C138 C137 1.389 . S
C138 C139 1.387 . S
C139 C138 1.387 . S
C139 C140 1.372 . S
C140 H118 0.950 . S
C140 C139 1.372 . S
C140 C141 1.379 . S
C141 H119 0.948 . S
C141 C136 1.364 . S
C141 C140 1.379 . S
C142 C111 1.383 . S
C142 C129 1.479 . S
C142 C143 1.398 . S
C143 C108 1.382 . S
C143 H120 0.951 . S
C143 C142 1.398 . S
C144 C145 1.384 . S
C144 H157 0.947 . S
C144 C179 1.382 . S
C145 C144 1.384 . S
C145 C146 1.378 . S
C146 C145 1.378 . S
C146 C147 1.378 . S
C146 H158 0.952 . S
C147 C146 1.378 . S
C147 H159 0.950 . S
C147 C178 1.383 . S
H148 C167 0.947 1_655 S
H149 C168 0.946 . S
H150 C170 0.953 . S
H151 C171 0.945 . S
H152 C173 0.952 . S
H153 C174 0.949 . S
H154 C176 0.950 . S
H155 C177 0.948 . S
H156 C179 0.951 . S
H157 C144 0.947 . S
H158 C146 0.952 . S
H159 C147 0.950 . S
N160 C163 1.382 . S
N160 C165 1.363 . S
N161 C163 1.371 . S
N161 C164 1.372 . S
N162 C164 1.361 . S
N162 C165 1.377 . S
C163 N160 1.382 . S
C163 N161 1.371 . S
C163 C166 1.480 . S
C164 N161 1.372 . S
C164 N162 1.361 . S
C164 C172 1.457 . S
C165 N160 1.363 . S
C165 N162 1.377 . S
C165 C178 1.479 . S
C166 C163 1.480 . S
C166 C167 1.383 . S
C166 C171 1.385 . S
C167 H148 0.947 1_455 S
C167 C166 1.383 . S
C167 C168 1.388 1_455 S
C168 H149 0.946 . S
C168 C167 1.388 1_655 S
C168 C169 1.384 . S
C169 C168 1.384 . S
C169 C170 1.377 1_655 S
C170 H150 0.953 . S
C170 C169 1.377 1_455 S
C170 C171 1.369 . S
C171 H151 0.945 . S
C171 C166 1.385 . S
C171 C170 1.369 . S
C172 C164 1.457 . S
C172 C173 1.372 1_565 S
C172 C177 1.364 . S
C173 H152 0.952 . S
C173 C172 1.372 1_545 S
C173 C174 1.389 . S
C174 H153 0.949 . S
C174 C173 1.389 . S
C174 C175 1.387 . S
C175 C174 1.387 . S
C175 C176 1.372 1_545 S
C176 H154 0.950 . S
C176 C175 1.372 1_565 S
C176 C177 1.379 . S
C177 H155 0.948 . S
C177 C172 1.364 . S
C177 C176 1.379 . S
C178 C147 1.383 . S
C178 C165 1.479 . S
C178 C179 1.398 . S
C179 C144 1.382 . S
C179 H156 0.951 . S
C179 C178 1.398 . S
C180 C181 1.384 . S
C180 H193 0.947 . S
C180 C215 1.382 . S
C181 C180 1.384 . S
C181 C182 1.378 . S
C182 C181 1.378 . S
C182 C183 1.378 . S
C182 H194 0.952 . S
C183 C182 1.378 . S
C183 H195 0.950 . S
C183 C214 1.383 . S
H184 C203 0.947 . S
H185 C204 0.946 . S
H186 C206 0.953 . S
H187 C207 0.945 . S
H188 C209 0.952 . S
H189 C210 0.949 . S
H190 C212 0.950 . S
H191 C213 0.948 . S
H192 C215 0.951 . S
H193 C180 0.947 . S
H194 C182 0.952 . S
H195 C183 0.950 . S
N196 C199 1.382 . S
N196 C201 1.363 . S
N197 C199 1.371 . S
N197 C200 1.372 . S
N198 C200 1.361 . S
N198 C201 1.377 . S
C199 N196 1.382 . S
C199 N197 1.371 . S
C199 C202 1.480 . S
C200 N197 1.372 . S
C200 N198 1.361 . S
C200 C208 1.457 . S
C201 N196 1.363 . S
C201 N198 1.377 . S
C201 C214 1.479 . S
C202 C199 1.480 . S
C202 C203 1.383 . S
C202 C207 1.385 . S
C203 H184 0.947 . S
C203 C202 1.383 . S
C203 C204 1.388 . S
C204 H185 0.946 . S
C204 C203 1.388 . S
C204 C205 1.384 . S
C205 C204 1.384 . S
C205 C206 1.377 . S
C206 H186 0.953 . S
C206 C205 1.377 . S
C206 C207 1.369 . S
C207 H187 0.945 . S
C207 C202 1.385 . S
C207 C206 1.369 . S
C208 C200 1.457 . S
C208 C209 1.372 . S
C208 C213 1.364 . S
C209 H188 0.952 . S
C209 C208 1.372 . S
C209 C210 1.389 . S
C210 H189 0.949 . S
C210 C209 1.389 . S
C210 C211 1.387 . S
C211 C210 1.387 . S
C211 C212 1.372 . S
C212 H190 0.950 . S
C212 C211 1.372 . S
C212 C213 1.379 . S
C213 H191 0.948 . S
C213 C208 1.364 . S
C213 C212 1.379 . S
C214 C183 1.383 . S
C214 C201 1.479 . S
C214 C215 1.398 . S
C215 C180 1.382 . S
C215 H192 0.951 . S
C215 C214 1.398 . S
C216 C217 1.384 . S
C216 H229 0.947 1_655 S
C216 C251 1.382 . S
C217 C216 1.384 . S
C217 C218 1.378 . S
C218 C217 1.378 . S
C218 C219 1.378 . S
C218 H230 0.952 . S
C219 C218 1.378 . S
C219 H231 0.950 . S
C219 C250 1.383 . S
H220 C239 0.947 . S
H221 C240 0.946 . S
H222 C242 0.953 . S
H223 C243 0.945 . S
H224 C245 0.952 . S
H225 C246 0.949 1_655 S
H226 C248 0.950 . S
H227 C249 0.948 . S
H228 C251 0.951 . S
H229 C216 0.947 1_455 S
H230 C218 0.952 . S
H231 C219 0.950 . S
N232 C235 1.382 . S
N232 C237 1.363 . S
N233 C235 1.371 . S
N233 C236 1.372 . S
N234 C236 1.361 . S
N234 C237 1.377 . S
C235 N232 1.382 . S
C235 N233 1.371 . S
C235 C238 1.480 . S
C236 N233 1.372 . S
C236 N234 1.361 . S
C236 C244 1.457 . S
C237 N232 1.363 . S
C237 N234 1.377 . S
C237 C250 1.479 . S
C238 C235 1.480 . S
C238 C239 1.383 . S
C238 C243 1.385 . S
C239 H220 0.947 . S
C239 C238 1.383 . S
C239 C240 1.388 . S
C240 H221 0.946 . S
C240 C239 1.388 . S
C240 C241 1.384 . S
C241 C240 1.384 . S
C241 C242 1.377 . S
C242 H222 0.953 . S
C242 C241 1.377 . S
C242 C243 1.369 . S
C243 H223 0.945 . S
C243 C238 1.385 . S
C243 C242 1.369 . S
C244 C236 1.457 . S
C244 C245 1.372 . S
C244 C249 1.364 1_655 S
C245 H224 0.952 . S
C245 C244 1.372 . S
C245 C246 1.389 1_655 S
C246 H225 0.949 1_455 S
C246 C245 1.389 1_455 S
C246 C247 1.387 . S
C247 C246 1.387 . S
C247 C248 1.372 . S
C248 H226 0.950 . S
C248 C247 1.372 . S
C248 C249 1.379 . S
C249 H227 0.948 . S
C249 C244 1.364 1_455 S
C249 C248 1.379 . S
C250 C219 1.383 . S
C250 C237 1.479 . S
C250 C251 1.398 . S
C251 C216 1.382 . S
C251 H228 0.951 . S
C251 C250 1.398 . S
C252 C253 1.384 . S
C252 H265 0.947 . S
C252 C287 1.382 . S
C253 C252 1.384 . S
C253 C254 1.378 . S
C254 C253 1.378 . S
C254 C255 1.378 . S
C254 H266 0.952 . S
C255 C254 1.378 . S
C255 H267 0.950 . S
C255 C286 1.383 . S
H256 C275 0.947 . S
H257 C276 0.946 . S
H258 C278 0.953 . S
H259 C279 0.945 . S
H260 C281 0.952 . S
H261 C282 0.949 . S
H262 C284 0.950 . S
H263 C285 0.948 . S
H264 C287 0.951 . S
H265 C252 0.947 . S
H266 C254 0.952 . S
H267 C255 0.950 . S
N268 C271 1.382 . S
N268 C273 1.363 . S
N269 C271 1.371 . S
N269 C272 1.372 . S
N270 C272 1.361 . S
N270 C273 1.377 . S
C271 N268 1.382 . S
C271 N269 1.371 . S
C271 C274 1.480 . S
C272 N269 1.372 . S
C272 N270 1.361 . S
C272 C280 1.457 . S
C273 N268 1.363 . S
C273 N270 1.377 . S
C273 C286 1.479 . S
C274 C271 1.480 . S
C274 C275 1.383 . S
C274 C279 1.385 . S
C275 H256 0.947 . S
C275 C274 1.383 . S
C275 C276 1.388 . S
C276 H257 0.946 . S
C276 C275 1.388 . S
C276 C277 1.384 . S
C277 C276 1.384 . S
C277 C278 1.377 . S
C278 H258 0.953 . S
C278 C277 1.377 . S
C278 C279 1.369 . S
C279 H259 0.945 . S
C279 C274 1.385 . S
C279 C278 1.369 . S
C280 C272 1.457 . S
C280 C281 1.372 . S
C280 C285 1.364 . S
C281 H260 0.952 . S
C281 C280 1.372 . S
C281 C282 1.389 . S
C282 H261 0.949 . S
C282 C281 1.389 . S
C282 C283 1.387 . S
C283 C282 1.387 . S
C283 C284 1.372 . S
C284 H262 0.950 . S
C284 C283 1.372 . S
C284 C285 1.379 . S
C285 H263 0.948 . S
C285 C280 1.364 . S
C285 C284 1.379 . S
C286 C255 1.383 . S
C286 C273 1.479 . S
C286 C287 1.398 . S
C287 C252 1.382 . S
C287 H264 0.951 . S
C287 C286 1.398 . S
C288 C289 1.384 . S
C288 H301 0.947 . S
C288 C323 1.382 . S
C289 C288 1.384 . S
C289 C290 1.378 . S
C290 C289 1.378 . S
C290 C291 1.378 . S
C290 H302 0.952 . S
C291 C290 1.378 . S
C291 H303 0.950 . S
C291 C322 1.383 . S
H292 C311 0.947 . S
H293 C312 0.946 . S
H294 C314 0.953 . S
H295 C315 0.945 . S
H296 C317 0.952 . S
H297 C318 0.949 . S
H298 C320 0.950 . S
H299 C321 0.948 . S
H300 C323 0.951 . S
H301 C288 0.947 . S
H302 C290 0.952 . S
H303 C291 0.950 . S
N304 C307 1.382 . S
N304 C309 1.363 . S
N305 C307 1.371 . S
N305 C308 1.372 . S
N306 C308 1.361 . S
N306 C309 1.377 . S
C307 N304 1.382 . S
C307 N305 1.371 . S
C307 C310 1.480 . S
C308 N305 1.372 . S
C308 N306 1.361 . S
C308 C316 1.457 . S
C309 N304 1.363 . S
C309 N306 1.377 . S
C309 C322 1.479 . S
C310 C307 1.480 . S
C310 C311 1.383 . S
C310 C315 1.385 . S
C311 H292 0.947 . S
C311 C310 1.383 . S
C311 C312 1.388 . S
C312 H293 0.946 . S
C312 C311 1.388 . S
C312 C313 1.384 . S
C313 C312 1.384 . S
C313 C314 1.377 . S
C314 H294 0.953 . S
C314 C313 1.377 . S
C314 C315 1.369 . S
C315 H295 0.945 . S
C315 C310 1.385 . S
C315 C314 1.369 . S
C316 C308 1.457 . S
C316 C317 1.372 . S
C316 C321 1.364 . S
C317 H296 0.952 . S
C317 C316 1.372 . S
C317 C318 1.389 . S
C318 H297 0.949 . S
C318 C317 1.389 . S
C318 C319 1.387 . S
C319 C318 1.387 . S
C319 C320 1.372 . S
C320 H298 0.950 . S
C320 C319 1.372 . S
C320 C321 1.379 . S
C321 H299 0.948 . S
C321 C316 1.364 . S
C321 C320 1.379 . S
C322 C291 1.383 . S
C322 C309 1.479 . S
C322 C323 1.398 . S
C323 C288 1.382 . S
C323 H300 0.951 . S
C323 C322 1.398 . S
C324 C325 1.384 . S
C324 H337 0.947 . S
C324 C359 1.382 . S
C325 C324 1.384 . S
C325 C326 1.378 . S
C326 C325 1.378 . S
C326 C327 1.378 . S
C326 H338 0.952 . S
C327 C326 1.378 . S
C327 H339 0.950 . S
C327 C358 1.383 . S
H328 C347 0.947 . S
H329 C348 0.946 1_565 S
H330 C350 0.953 . S
H331 C351 0.945 . S
H332 C353 0.952 . S
H333 C354 0.949 1_545 S
H334 C356 0.950 . S
H335 C357 0.948 . S
H336 C359 0.951 . S
H337 C324 0.947 . S
H338 C326 0.952 . S
H339 C327 0.950 . S
N340 C343 1.382 . S
N340 C345 1.363 . S
N341 C343 1.371 . S
N341 C344 1.372 . S
N342 C344 1.361 . S
N342 C345 1.377 . S
C343 N340 1.382 . S
C343 N341 1.371 . S
C343 C346 1.480 . S
C344 N341 1.372 . S
C344 N342 1.361 . S
C344 C352 1.457 . S
C345 N340 1.363 . S
C345 N342 1.377 . S
C345 C358 1.479 . S
C346 C343 1.480 . S
C346 C347 1.383 . S
C346 C351 1.385 1_565 S
C347 H328 0.947 . S
C347 C346 1.383 . S
C347 C348 1.388 1_565 S
C348 H329 0.946 1_545 S
C348 C347 1.388 1_545 S
C348 C349 1.384 . S
C349 C348 1.384 . S
C349 C350 1.377 . S
C350 H330 0.953 . S
C350 C349 1.377 . S
C350 C351 1.369 . S
C351 H331 0.945 . S
C351 C346 1.385 1_545 S
C351 C350 1.369 . S
C352 C344 1.457 . S
C352 C353 1.372 . S
C352 C357 1.364 . S
C353 H332 0.952 . S
C353 C352 1.372 . S
C353 C354 1.389 . S
C354 H333 0.949 1_565 S
C354 C353 1.389 . S
C354 C355 1.387 . S
C355 C354 1.387 . S
C355 C356 1.372 . S
C356 H334 0.950 . S
C356 C355 1.372 . S
C356 C357 1.379 . S
C357 H335 0.948 . S
C357 C352 1.364 . S
C357 C356 1.379 . S
C358 C327 1.383 . S
C358 C345 1.479 . S
C358 C359 1.398 . S
C359 C324 1.382 . S
C359 H336 0.951 . S
C359 C358 1.398 . S
C360 C361 1.384 . S
C360 H373 0.947 . S
C360 C395 1.382 . S
C361 C360 1.384 . S
C361 C362 1.378 . S
C362 C361 1.378 . S
C362 C363 1.378 . S
C362 H374 0.952 . S
C363 C362 1.378 . S
C363 H375 0.950 . S
C363 C394 1.383 . S
H364 C383 0.947 . S
H365 C384 0.946 . S
H366 C386 0.953 . S
H367 C387 0.945 . S
H368 C389 0.952 . S
H369 C390 0.949 . S
H370 C392 0.950 . S
H371 C393 0.948 . S
H372 C395 0.951 . S
H373 C360 0.947 . S
H374 C362 0.952 . S
H375 C363 0.950 . S
N376 C379 1.382 . S
N376 C381 1.363 . S
N377 C379 1.371 . S
N377 C380 1.372 . S
N378 C380 1.361 . S
N378 C381 1.377 . S
C379 N376 1.382 . S
C379 N377 1.371 . S
C379 C382 1.480 . S
C380 N377 1.372 . S
C380 N378 1.361 . S
C380 C388 1.457 . S
C381 N376 1.363 . S
C381 N378 1.377 . S
C381 C394 1.479 . S
C382 C379 1.480 . S
C382 C383 1.383 . S
C382 C387 1.385 . S
C383 H364 0.947 . S
C383 C382 1.383 . S
C383 C384 1.388 . S
C384 H365 0.946 . S
C384 C383 1.388 . S
C384 C385 1.384 . S
C385 C384 1.384 . S
C385 C386 1.377 . S
C386 H366 0.953 . S
C386 C385 1.377 . S
C386 C387 1.369 . S
C387 H367 0.945 . S
C387 C382 1.385 . S
C387 C386 1.369 . S
C388 C380 1.457 . S
C388 C389 1.372 . S
C388 C393 1.364 . S
C389 H368 0.952 . S
C389 C388 1.372 . S
C389 C390 1.389 . S
C390 H369 0.949 . S
C390 C389 1.389 . S
C390 C391 1.387 . S
C391 C390 1.387 . S
C391 C392 1.372 . S
C392 H370 0.950 . S
C392 C391 1.372 . S
C392 C393 1.379 . S
C393 H371 0.948 . S
C393 C388 1.364 . S
C393 C392 1.379 . S
C394 C363 1.383 . S
C394 C381 1.479 . S
C394 C395 1.398 . S
C395 C360 1.382 . S
C395 H372 0.951 . S
C395 C394 1.398 . S
C396 C397 1.384 . S
C396 H409 0.947 . S
C396 C431 1.382 . S
C397 C396 1.384 . S
C397 C398 1.378 . S
C398 C397 1.378 . S
C398 C399 1.378 . S
C398 H410 0.952 . S
C399 C398 1.378 . S
C399 H411 0.950 . S
C399 C430 1.383 . S
H400 C419 0.947 . S
H401 C420 0.946 . S
H402 C422 0.953 . S
H403 C423 0.945 . S
H404 C425 0.952 . S
H405 C426 0.949 . S
H406 C428 0.950 . S
H407 C429 0.948 . S
H408 C431 0.951 . S
H409 C396 0.947 . S
H410 C398 0.952 . S
H411 C399 0.950 . S
N412 C415 1.382 . S
N412 C417 1.363 . S
N413 C415 1.371 . S
N413 C416 1.372 . S
N414 C416 1.361 . S
N414 C417 1.377 . S
C415 N412 1.382 . S
C415 N413 1.371 . S
C415 C418 1.480 . S
C416 N413 1.372 . S
C416 N414 1.361 . S
C416 C424 1.457 . S
C417 N412 1.363 . S
C417 N414 1.377 . S
C417 C430 1.479 . S
C418 C415 1.480 . S
C418 C419 1.383 . S
C418 C423 1.385 . S
C419 H400 0.947 . S
C419 C418 1.383 . S
C419 C420 1.388 . S
C420 H401 0.946 . S
C420 C419 1.388 . S
C420 C421 1.384 . S
C421 C420 1.384 . S
C421 C422 1.377 . S
C422 H402 0.953 . S
C422 C421 1.377 . S
C422 C423 1.369 . S
C423 H403 0.945 . S
C423 C418 1.385 . S
C423 C422 1.369 . S
C424 C416 1.457 . S
C424 C425 1.372 . S
C424 C429 1.364 . S
C425 H404 0.952 . S
C425 C424 1.372 . S
C425 C426 1.389 . S
C426 H405 0.949 . S
C426 C425 1.389 . S
C426 C427 1.387 . S
C427 C426 1.387 . S
C427 C428 1.372 . S
C428 H406 0.950 . S
C428 C427 1.372 . S
C428 C429 1.379 . S
C429 H407 0.948 . S
C429 C424 1.364 . S
C429 C428 1.379 . S
C430 C399 1.383 . S
C430 C417 1.479 . S
C430 C431 1.398 . S
C431 C396 1.382 . S
C431 H408 0.951 . S
C431 C430 1.398 . S
C432 C433 1.384 . S
C432 H445 0.947 . S
C432 C467 1.382 . S
C433 C432 1.384 . S
C433 C434 1.378 . S
C434 C433 1.378 . S
C434 C435 1.378 . S
C434 H446 0.952 . S
C435 C434 1.378 . S
C435 H447 0.950 . S
C435 C466 1.383 . S
H436 C455 0.947 . S
H437 C456 0.946 . S
H438 C458 0.953 . S
H439 C459 0.945 . S
H440 C461 0.952 . S
H441 C462 0.949 . S
H442 C464 0.950 . S
H443 C465 0.948 . S
H444 C467 0.951 . S
H445 C432 0.947 . S
H446 C434 0.952 . S
H447 C435 0.950 . S
N448 C451 1.382 . S
N448 C453 1.363 . S
N449 C451 1.371 . S
N449 C452 1.372 . S
N450 C452 1.361 . S
N450 C453 1.377 . S
C451 N448 1.382 . S
C451 N449 1.371 . S
C451 C454 1.480 . S
C452 N449 1.372 . S
C452 N450 1.361 . S
C452 C460 1.457 . S
C453 N448 1.363 . S
C453 N450 1.377 . S
C453 C466 1.479 . S
C454 C451 1.480 . S
C454 C455 1.383 . S
C454 C459 1.385 . S
C455 H436 0.947 . S
C455 C454 1.383 . S
C455 C456 1.388 . S
C456 H437 0.946 . S
C456 C455 1.388 . S
C456 C457 1.384 . S
C457 C456 1.384 . S
C457 C458 1.377 . S
C458 H438 0.953 . S
C458 C457 1.377 . S
C458 C459 1.369 . S
C459 H439 0.945 . S
C459 C454 1.385 . S
C459 C458 1.369 . S
C460 C452 1.457 . S
C460 C461 1.372 . S
C460 C465 1.364 . S
C461 H440 0.952 . S
C461 C460 1.372 . S
C461 C462 1.389 . S
C462 H441 0.949 . S
C462 C461 1.389 . S
C462 C463 1.387 . S
C463 C462 1.387 . S
C463 C464 1.372 . S
C464 H442 0.950 . S
C464 C463 1.372 . S
C464 C465 1.379 . S
C465 H443 0.948 . S
C465 C460 1.364 . S
C465 C464 1.379 . S
C466 C435 1.383 . S
C466 C453 1.479 . S
C466 C467 1.398 . S
C467 C432 1.382 . S
C467 H444 0.951 . S
C467 C466 1.398 . S
C468 C469 1.384 . S
C468 H481 0.947 . S
C468 C503 1.382 . S
C469 C468 1.384 . S
C469 C470 1.354 1_554 S
C470 C469 1.354 1_556 S
C470 C471 1.398 . S
C470 H482 0.957 . S
C471 C470 1.398 . S
C471 H483 0.950 . S
C471 C502 1.383 . S
H472 C491 0.947 . S
H473 C492 0.946 . S
H474 C494 0.953 . S
H475 C495 0.945 . S
H476 C497 0.952 . S
H477 C498 0.949 . S
H478 C500 0.950 1_554 S
H479 C501 0.948 . S
H480 C503 0.951 . S
H481 C468 0.947 . S
H482 C470 0.957 . S
H483 C471 0.950 . S
N484 C487 1.382 . S
N484 C489 1.363 . S
N485 C487 1.371 . S
N485 C488 1.372 . S
N486 C488 1.361 . S
N486 C489 1.377 . S
C487 N484 1.382 . S
C487 N485 1.371 . S
C487 C490 1.480 . S
C488 N485 1.372 . S
C488 N486 1.361 . S
C488 C496 1.457 . S
C489 N484 1.363 . S
C489 N486 1.377 . S
C489 C502 1.479 . S
C490 C487 1.480 . S
C490 C491 1.383 . S
C490 C495 1.385 . S
C491 H472 0.947 . S
C491 C490 1.383 . S
C491 C492 1.388 . S
C492 H473 0.946 . S
C492 C491 1.388 . S
C492 C493 1.384 . S
C493 C492 1.384 . S
C493 C494 1.377 . S
C494 H474 0.953 . S
C494 C493 1.377 . S
C494 C495 1.369 . S
C495 H475 0.945 . S
C495 C490 1.385 . S
C495 C494 1.369 . S
C496 C488 1.457 . S
C496 C497 1.372 . S
C496 C501 1.364 . S
C497 H476 0.952 . S
C497 C496 1.372 . S
C497 C498 1.389 . S
C498 H477 0.949 . S
C498 C497 1.389 . S
C498 C499 1.387 . S
C499 C498 1.387 . S
C499 C500 1.372 . S
C500 H478 0.950 1_556 S
C500 C499 1.372 . S
C500 C501 1.379 . S
C501 H479 0.948 . S
C501 C496 1.364 . S
C501 C500 1.379 . S
C502 C471 1.383 . S
C502 C489 1.479 . S
C502 C503 1.398 1_556 S
C503 C468 1.382 . S
C503 H480 0.951 . S
C503 C502 1.398 1_554 S
C504 C505 1.384 . S
C504 H517 0.947 . S
C504 C539 1.382 . S
C505 C504 1.384 . S
C505 C506 1.378 . S
C506 C505 1.378 . S
C506 C507 1.378 . S
C506 H518 0.952 . S
C507 C506 1.378 . S
C507 H519 0.950 . S
C507 C538 1.383 . S
H508 C527 0.947 . S
H509 C528 0.946 . S
H510 C530 0.953 . S
H511 C531 0.945 . S
H512 C533 0.952 . S
H513 C534 0.949 . S
H514 C536 0.950 . S
H515 C537 0.948 . S
H516 C539 0.951 . S
H517 C504 0.947 . S
H518 C506 0.952 . S
H519 C507 0.950 . S
N520 C523 1.382 . S
N520 C525 1.363 . S
N521 C523 1.371 . S
N521 C524 1.372 . S
N522 C524 1.361 . S
N522 C525 1.377 . S
C523 N520 1.382 . S
C523 N521 1.371 . S
C523 C526 1.480 . S
C524 N521 1.372 . S
C524 N522 1.361 . S
C524 C532 1.457 . S
C525 N520 1.363 . S
C525 N522 1.377 . S
C525 C538 1.479 . S
C526 C523 1.480 . S
C526 C527 1.383 . S
C526 C531 1.385 . S
C527 H508 0.947 . S
C527 C526 1.383 . S
C527 C528 1.388 . S
C528 H509 0.946 . S
C528 C527 1.388 . S
C528 C529 1.384 . S
C529 C528 1.384 . S
C529 C530 1.377 . S
C530 H510 0.953 . S
C530 C529 1.377 . S
C530 C531 1.369 . S
C531 H511 0.945 . S
C531 C526 1.385 . S
C531 C530 1.369 . S
C532 C524 1.457 . S
C532 C533 1.372 . S
C532 C537 1.364 . S
C533 H512 0.952 . S
C533 C532 1.372 . S
C533 C534 1.389 . S
C534 H513 0.949 . S
C534 C533 1.389 . S
C534 C535 1.387 . S
C535 C534 1.387 . S
C535 C536 1.372 . S
C536 H514 0.950 . S
C536 C535 1.372 . S
C536 C537 1.379 . S
C537 H515 0.948 . S
C537 C532 1.364 . S
C537 C536 1.379 . S
C538 C507 1.383 . S
C538 C525 1.479 . S
C538 C539 1.398 . S
C539 C504 1.382 . S
C539 H516 0.951 . S
C539 C538 1.398 . S
C540 C541 1.384 1_556 S
C540 H553 0.947 . S
C540 C575 1.382 . S
C541 C540 1.384 1_554 S
C541 C542 1.378 . S
C542 C541 1.378 . S
C542 C543 1.378 . S
C542 H554 0.952 . S
C543 C542 1.378 . S
C543 H555 0.950 . S
C543 C574 1.383 1_554 S
H544 C563 0.947 . S
H545 C564 0.946 . S
H546 C566 0.953 . S
H547 C567 0.945 . S
H548 C569 0.952 . S
H549 C570 0.949 . S
H550 C572 0.950 . S
H551 C573 0.948 . S
H552 C575 0.951 . S
H553 C540 0.947 . S
H554 C542 0.952 . S
H555 C543 0.950 . S
N556 C559 1.382 . S
N556 C561 1.363 . S
N557 C559 1.371 . S
N557 C560 1.372 . S
N558 C560 1.361 . S
N558 C561 1.377 . S
C559 N556 1.382 . S
C559 N557 1.371 . S
C559 C562 1.480 . S
C560 N557 1.372 . S
C560 N558 1.361 . S
C560 C568 1.457 . S
C561 N556 1.363 . S
C561 N558 1.377 . S
C561 C574 1.479 . S
C562 C559 1.480 . S
C562 C563 1.383 . S
C562 C567 1.385 1_545 S
C563 H544 0.947 . S
C563 C562 1.383 . S
C563 C564 1.388 . S
C564 H545 0.946 . S
C564 C563 1.388 . S
C564 C565 1.384 1_545 S
C565 C564 1.384 1_565 S
C565 C566 1.377 . S
C566 H546 0.953 . S
C566 C565 1.377 . S
C566 C567 1.369 . S
C567 H547 0.945 . S
C567 C562 1.385 1_565 S
C567 C566 1.369 . S
C568 C560 1.457 . S
C568 C569 1.372 . S
C568 C573 1.364 . S
C569 H548 0.952 . S
C569 C568 1.372 . S
C569 C570 1.389 . S
C570 H549 0.949 . S
C570 C569 1.389 . S
C570 C571 1.387 . S
C571 C570 1.387 . S
C571 C572 1.372 . S
C572 H550 0.950 . S
C572 C571 1.372 . S
C572 C573 1.379 . S
C573 H551 0.948 . S
C573 C568 1.364 . S
C573 C572 1.379 . S
C574 C543 1.383 1_556 S
C574 C561 1.479 . S
C574 C575 1.398 . S
C575 C540 1.382 . S
C575 H552 0.951 . S
C575 C574 1.398 . S
Zn576 O579 2.030 . S
Zn576 O581 2.051 1_554 S
Zn576 O586 2.070 1_554 S
Zn577 O578 1.962 . S
Zn577 O580 1.986 . S
Zn577 O582 1.996 . S
Zn577 O585 1.943 1_554 S
O578 Zn577 1.962 . S
O578 C583 1.254 . S
O579 Zn576 2.030 . S
O579 C583 1.269 . S
O580 Zn577 1.986 . S
O580 C587 1.262 . S
O581 Zn576 2.051 1_556 S
O581 C589 1.260 . S
O582 Zn577 1.996 . S
O582 C589 1.257 1_554 S
C583 O578 1.254 . S
C583 O579 1.269 . S
C584 O585 1.249 . S
C584 O586 1.270 . S
O585 Zn577 1.943 1_556 S
O585 C584 1.249 . S
O586 Zn576 2.070 1_556 S
O586 C584 1.270 . S
C587 O580 1.262 . S
C587 O588 1.232 . S
O588 C587 1.232 . S
C589 O581 1.260 . S
C589 O582 1.257 1_556 S
Zn590 O593 2.031 . S
Zn590 O595 2.049 . S
Zn590 O600 2.067 . S
Zn591 O592 1.962 . S
Zn591 O594 1.986 . S
Zn591 O596 1.996 . S
Zn591 O599 1.943 . S
O592 Zn591 1.962 . S
O592 C597 1.254 . S
O593 Zn590 2.031 . S
O593 C597 1.269 . S
O594 Zn591 1.986 . S
O594 C601 1.262 . S
O595 Zn590 2.049 . S
O595 C603 1.260 . S
O596 Zn591 1.996 . S
O596 C603 1.257 . S
C597 O592 1.254 . S
C597 O593 1.269 . S
C598 O599 1.249 . S
C598 O600 1.270 . S
O599 Zn591 1.943 . S
O599 C598 1.249 . S
O600 Zn590 2.067 . S
O600 C598 1.270 . S
C601 O594 1.262 . S
C601 O602 1.232 . S
O602 C601 1.232 . S
C603 O595 1.260 . S
C603 O596 1.257 . S
Zn604 O607 2.031 . S
Zn604 O609 2.049 . S
Zn604 O614 2.067 . S
Zn605 O606 1.962 . S
Zn605 O608 1.986 . S
Zn605 O610 1.996 1_554 S
Zn605 O613 1.943 . S
O606 Zn605 1.962 . S
O606 C611 1.254 . S
O607 Zn604 2.031 . S
O607 C611 1.269 1_556 S
O608 Zn605 1.986 . S
O608 C615 1.262 . S
O609 Zn604 2.049 . S
O609 C617 1.260 . S
O610 Zn605 1.996 1_556 S
O610 C617 1.257 . S
C611 O606 1.254 . S
C611 O607 1.269 1_554 S
C612 O613 1.249 1_556 S
C612 O614 1.270 . S
O613 Zn605 1.943 . S
O613 C612 1.249 1_554 S
O614 Zn604 2.067 . S
O614 C612 1.270 . S
C615 O608 1.262 . S
C615 O616 1.232 . S
O616 C615 1.232 . S
C617 O609 1.260 . S
C617 O610 1.257 . S
Zn618 O621 2.029 1_565 S
Zn618 O623 2.051 . S
Zn618 O628 2.070 . S
Zn619 O620 1.962 . S
Zn619 O622 1.986 . S
Zn619 O624 1.996 . S
Zn619 O627 1.943 1_545 S
O620 Zn619 1.962 . S
O620 C625 1.254 . S
O621 Zn618 2.029 1_545 S
O621 C625 1.269 . S
O622 Zn619 1.986 . S
O622 C629 1.262 . S
O623 Zn618 2.051 . S
O623 C631 1.260 . S
O624 Zn619 1.996 . S
O624 C631 1.257 1_545 S
C625 O620 1.254 . S
C625 O621 1.269 . S
C626 O627 1.249 . S
C626 O628 1.270 . S
O627 Zn619 1.943 1_565 S
O627 C626 1.249 . S
O628 Zn618 2.070 . S
O628 C626 1.270 . S
C629 O622 1.262 . S
C629 O630 1.232 . S
O630 C629 1.232 . S
C631 O623 1.260 . S
C631 O624 1.257 1_565 S
Zn632 O635 2.031 . S
Zn632 O637 2.049 . S
Zn632 O642 2.067 . S
Zn633 O634 1.962 . S
Zn633 O636 1.986 . S
Zn633 O638 1.996 . S
Zn633 O641 1.943 . S
O634 Zn633 1.962 . S
O634 C639 1.254 . S
O635 Zn632 2.031 . S
O635 C639 1.269 . S
O636 Zn633 1.986 . S
O636 C643 1.262 . S
O637 Zn632 2.049 . S
O637 C645 1.260 . S
O638 Zn633 1.996 . S
O638 C645 1.257 . S
C639 O634 1.254 . S
C639 O635 1.269 . S
C640 O641 1.249 . S
C640 O642 1.270 . S
O641 Zn633 1.943 . S
O641 C640 1.249 . S
O642 Zn632 2.067 . S
O642 C640 1.270 . S
C643 O636 1.262 . S
C643 O644 1.232 . S
O644 C643 1.232 . S
C645 O637 1.260 . S
C645 O638 1.257 . S
Zn646 O649 2.031 . S
Zn646 O651 2.049 . S
Zn646 O656 2.067 . S
Zn647 O648 1.962 . S
Zn647 O650 1.986 . S
Zn647 O652 1.996 . S
Zn647 O655 1.943 . S
O648 Zn647 1.962 . S
O648 C653 1.254 . S
O649 Zn646 2.031 . S
O649 C653 1.269 . S
O650 Zn647 1.986 . S
O650 C657 1.262 . S
O651 Zn646 2.049 . S
O651 C659 1.260 . S
O652 Zn647 1.996 . S
O652 C659 1.257 . S
C653 O648 1.254 . S
C653 O649 1.269 . S
C654 O655 1.249 . S
C654 O656 1.270 . S
O655 Zn647 1.943 . S
O655 C654 1.249 . S
O656 Zn646 2.067 . S
O656 C654 1.270 . S
C657 O650 1.262 . S
C657 O658 1.232 . S
O658 C657 1.232 . S
C659 O651 1.260 . S
C659 O652 1.257 . S
Zn660 O663 2.031 . S
Zn660 O665 2.049 . S
Zn660 O670 2.067 . S
Zn661 O662 1.962 . S
Zn661 O664 1.986 . S
Zn661 O666 1.996 . S
Zn661 O669 1.943 . S
O662 Zn661 1.962 . S
O662 C667 1.254 . S
O663 Zn660 2.031 . S
O663 C667 1.269 . S
O664 Zn661 1.986 . S
O664 C671 1.262 . S
O665 Zn660 2.049 . S
O665 C673 1.260 . S
O666 Zn661 1.996 . S
O666 C673 1.257 . S
C667 O662 1.254 . S
C667 O663 1.269 . S
C668 O669 1.249 . S
C668 O670 1.270 . S
O669 Zn661 1.943 . S
O669 C668 1.249 . S
O670 Zn660 2.067 . S
O670 C668 1.270 . S
C671 O664 1.262 . S
C671 O672 1.232 . S
O672 C671 1.232 . S
C673 O665 1.260 . S
C673 O666 1.257 . S
Zn674 O677 2.031 . S
Zn674 O679 2.049 . S
Zn674 O684 2.067 . S
Zn675 O676 1.962 . S
Zn675 O678 1.986 . S
Zn675 O680 1.996 1_545 S
Zn675 O683 1.943 . S
O676 Zn675 1.962 . S
O676 C681 1.254 . S
O677 Zn674 2.031 . S
O677 C681 1.269 1_565 S
O678 Zn675 1.986 . S
O678 C685 1.262 . S
O679 Zn674 2.049 . S
O679 C687 1.260 . S
O680 Zn675 1.996 1_565 S
O680 C687 1.257 . S
C681 O676 1.254 . S
C681 O677 1.269 1_545 S
C682 O683 1.249 1_565 S
C682 O684 1.270 . S
O683 Zn675 1.943 . S
O683 C682 1.249 1_545 S
O684 Zn674 2.067 . S
O684 C682 1.270 . S
C685 O678 1.262 . S
C685 O686 1.232 . S
O686 C685 1.232 . S
C687 O679 1.260 . S
C687 O680 1.257 . S
Zn688 O691 2.021 1_655 S
Zn688 O693 2.057 . S
Zn688 O698 2.081 . S
Zn689 O690 1.962 . S
Zn689 O692 1.986 . S
Zn689 O694 1.996 . S
Zn689 O697 1.943 1_455 S
O690 Zn689 1.962 . S
O690 C695 1.254 . S
O691 Zn688 2.021 1_455 S
O691 C695 1.269 . S
O692 Zn689 1.986 . S
O692 C699 1.262 . S
O693 Zn688 2.057 . S
O693 C701 1.260 . S
O694 Zn689 1.996 . S
O694 C701 1.257 1_455 S
C695 O690 1.254 . S
C695 O691 1.269 . S
C696 O697 1.249 . S
C696 O698 1.270 . S
O697 Zn689 1.943 1_655 S
O697 C696 1.249 . S
O698 Zn688 2.081 . S
O698 C696 1.270 . S
C699 O692 1.262 . S
C699 O700 1.232 . S
O700 C699 1.232 . S
C701 O693 1.260 . S
C701 O694 1.257 1_655 S
Zn702 O705 2.031 . S
Zn702 O707 2.049 . S
Zn702 O712 2.067 . S
Zn703 O704 1.962 . S
Zn703 O706 1.986 . S
Zn703 O708 1.996 . S
Zn703 O711 1.943 . S
O704 Zn703 1.962 . S
O704 C709 1.254 . S
O705 Zn702 2.031 . S
O705 C709 1.269 . S
O706 Zn703 1.986 . S
O706 C713 1.262 . S
O707 Zn702 2.049 . S
O707 C715 1.260 . S
O708 Zn703 1.996 . S
O708 C715 1.257 . S
C709 O704 1.254 . S
C709 O705 1.269 . S
C710 O711 1.249 . S
C710 O712 1.270 . S
O711 Zn703 1.943 . S
O711 C710 1.249 . S
O712 Zn702 2.067 . S
O712 C710 1.270 . S
C713 O706 1.262 . S
C713 O714 1.232 . S
O714 C713 1.232 . S
C715 O707 1.260 . S
C715 O708 1.257 . S
Zn716 O719 2.031 . S
Zn716 O721 2.049 . S
Zn716 O726 2.067 . S
Zn717 O718 1.962 . S
Zn717 O720 1.986 . S
Zn717 O722 1.996 1_455 S
Zn717 O725 1.943 . S
O718 Zn717 1.962 . S
O718 C723 1.254 . S
O719 Zn716 2.031 . S
O719 C723 1.269 1_655 S
O720 Zn717 1.986 . S
O720 C727 1.262 . S
O721 Zn716 2.049 . S
O721 C729 1.260 . S
O722 Zn717 1.996 1_655 S
O722 C729 1.257 . S
C723 O718 1.254 . S
C723 O719 1.269 1_455 S
C724 O725 1.249 1_655 S
C724 O726 1.270 . S
O725 Zn717 1.943 . S
O725 C724 1.249 1_455 S
O726 Zn716 2.067 . S
O726 C724 1.270 . S
C727 O720 1.262 . S
C727 O728 1.232 . S
O728 C727 1.232 . S
C729 O721 1.260 . S
C729 O722 1.257 . S
Zn730 O733 2.031 . S
Zn730 O735 2.049 . S
Zn730 O740 2.067 . S
Zn731 O732 1.962 . S
Zn731 O734 1.986 . S
Zn731 O736 1.996 . S
Zn731 O739 1.943 . S
O732 Zn731 1.962 . S
O732 C737 1.254 . S
O733 Zn730 2.031 . S
O733 C737 1.269 . S
O734 Zn731 1.986 . S
O734 C741 1.262 . S
O735 Zn730 2.049 . S
O735 C743 1.260 . S
O736 Zn731 1.996 . S
O736 C743 1.257 . S
C737 O732 1.254 . S
C737 O733 1.269 . S
C738 O739 1.249 . S
C738 O740 1.270 . S
O739 Zn731 1.943 . S
O739 C738 1.249 . S
O740 Zn730 2.067 . S
O740 C738 1.270 . S
C741 O734 1.262 . S
C741 O742 1.232 . S
O742 C741 1.232 . S
C743 O735 1.260 . S
C743 O736 1.257 . S
C744 C745 1.369 . S
C744 C746 1.419 . S
C744 H748 0.930 . S
C745 C744 1.369 . S
C745 C754 1.429 . S
C746 C744 1.419 . S
C746 C747 1.363 . S
C746 H749 0.929 . S
C747 C746 1.363 . S
C747 C753 1.428 . S
H748 C744 0.930 . S
H749 C746 0.929 . S
S750 N751 1.613 . S
S750 N752 1.610 . S
N751 S750 1.613 . S
N751 C754 1.350 . S
N752 S750 1.610 . S
N752 C753 1.351 . S
C753 C747 1.428 . S
C753 N752 1.351 . S
C753 C754 1.434 . S
C754 C745 1.429 . S
C754 N751 1.350 . S
C754 C753 1.434 . S
C755 C756 1.369 . S
C755 C757 1.419 . S
C755 H759 0.930 . S
C756 C755 1.369 . S
C756 C765 1.429 . S
C757 C755 1.419 . S
C757 C758 1.363 . S
C757 H760 0.929 . S
C758 C757 1.363 . S
C758 C764 1.428 . S
H759 C755 0.930 . S
H760 C757 0.929 . S
S761 N762 1.613 . S
S761 N763 1.610 . S
N762 S761 1.613 . S
N762 C765 1.350 . S
N763 S761 1.610 . S
N763 C764 1.351 . S
C764 C758 1.428 . S
C764 N763 1.351 . S
C764 C765 1.434 . S
C765 C756 1.429 . S
C765 N762 1.350 . S
C765 C764 1.434 . S
C766 C767 1.369 . S
C766 C768 1.419 . S
C766 H770 0.930 . S
C767 C766 1.369 . S
C767 C776 1.429 . S
C768 C766 1.419 . S
C768 C769 1.363 . S
C768 H771 0.929 . S
C769 C768 1.363 . S
C769 C775 1.428 . S
H770 C766 0.930 . S
H771 C768 0.929 . S
S772 N773 1.613 . S
S772 N774 1.610 . S
N773 S772 1.613 . S
N773 C776 1.350 . S
N774 S772 1.610 . S
N774 C775 1.351 . S
C775 C769 1.428 . S
C775 N774 1.351 . S
C775 C776 1.434 . S
C776 C767 1.429 . S
C776 N773 1.350 . S
C776 C775 1.434 . S
C777 C778 1.369 . S
C777 C779 1.419 . S
C777 H781 0.930 . S
C778 C777 1.369 . S
C778 C787 1.429 . S
C779 C777 1.419 . S
C779 C780 1.363 . S
C779 H782 0.929 . S
C780 C779 1.363 . S
C780 C786 1.451 . S
H781 C777 0.930 . S
H782 C779 0.929 . S
S783 N784 1.613 . S
S783 N785 1.610 . S
N784 S783 1.613 . S
N784 C787 1.350 1_545 S
N785 S783 1.610 . S
N785 C786 1.315 1_545 S
C786 C780 1.451 . S
C786 N785 1.315 1_565 S
C786 C787 1.447 . S
C787 C778 1.429 . S
C787 N784 1.350 1_565 S
C787 C786 1.447 . S
C788 C789 1.369 . S
C788 C790 1.419 . S
C788 H792 0.930 . S
C789 C788 1.369 . S
C789 C798 1.429 . S
C790 C788 1.419 . S
C790 C791 1.363 . S
C790 H793 0.929 . S
C791 C790 1.363 . S
C791 C797 1.428 . S
H792 C788 0.930 . S
H793 C790 0.929 . S
S794 N795 1.613 . S
S794 N796 1.610 . S
N795 S794 1.613 . S
N795 C798 1.350 . S
N796 S794 1.610 . S
N796 C797 1.351 . S
C797 C791 1.428 . S
C797 N796 1.351 . S
C797 C798 1.434 . S
C798 C789 1.429 . S
C798 N795 1.350 . S
C798 C797 1.434 . S
C799 C800 1.369 . S
C799 C801 1.419 . S
C799 H803 0.930 . S
C800 C799 1.369 . S
C800 C809 1.429 . S
C801 C799 1.419 . S
C801 C802 1.363 . S
C801 H804 0.929 . S
C802 C801 1.363 . S
C802 C808 1.428 . S
H803 C799 0.930 . S
H804 C801 0.929 . S
S805 N806 1.613 . S
S805 N807 1.610 . S
N806 S805 1.613 . S
N806 C809 1.350 . S
N807 S805 1.610 . S
N807 C808 1.351 . S
C808 C802 1.428 . S
C808 N807 1.351 . S
C808 C809 1.434 . S
C809 C800 1.429 . S
C809 N806 1.350 . S
C809 C808 1.434 . S
C810 C811 1.369 . S
C810 C812 1.419 . S
C810 H814 0.930 . S
C811 C810 1.369 . S
C811 C820 1.429 . S
C812 C810 1.419 . S
C812 C813 1.363 . S
C812 H815 0.929 . S
C813 C812 1.363 . S
C813 C819 1.428 . S
H814 C810 0.930 . S
H815 C812 0.929 . S
S816 N817 1.613 . S
S816 N818 1.610 . S
N817 S816 1.613 . S
N817 C820 1.350 . S
N818 S816 1.610 . S
N818 C819 1.351 . S
C819 C813 1.428 . S
C819 N818 1.351 . S
C819 C820 1.434 . S
C820 C811 1.429 . S
C820 N817 1.350 . S
C820 C819 1.434 . S
C821 C822 1.369 . S
C821 C823 1.419 . S
C821 H825 0.930 . S
C822 C821 1.369 . S
C822 C831 1.429 . S
C823 C821 1.419 . S
C823 C824 1.363 . S
C823 H826 0.929 . S
C824 C823 1.363 . S
C824 C830 1.428 . S
H825 C821 0.930 . S
H826 C823 0.929 . S
S827 N828 1.613 1_545 S
S827 N829 1.610 . S
N828 S827 1.613 1_565 S
N828 C831 1.350 . S
N829 S827 1.610 . S
N829 C830 1.351 1_545 S
C830 C824 1.428 . S
C830 N829 1.351 1_565 S
C830 C831 1.434 . S
C831 C822 1.429 . S
C831 N828 1.350 . S
C831 C830 1.434 . S
C832 C833 1.369 . S
C832 C834 1.419 . S
C832 H836 0.930 . S
C833 C832 1.369 . S
C833 C842 1.429 . S
C834 C832 1.419 . S
C834 C835 1.363 . S
C834 H837 0.929 . S
C835 C834 1.363 . S
C835 C841 1.428 . S
H836 C832 0.930 . S
H837 C834 0.929 . S
S838 N839 1.613 . S
S838 N840 1.610 . S
N839 S838 1.613 . S
N839 C842 1.350 . S
N840 S838 1.610 . S
N840 C841 1.351 . S
C841 C835 1.428 . S
C841 N840 1.351 . S
C841 C842 1.434 . S
C842 C833 1.429 . S
C842 N839 1.350 . S
C842 C841 1.434 . S
C843 C844 1.369 . S
C843 C845 1.419 . S
C843 H847 0.930 . S
C844 C843 1.369 . S
C844 C853 1.429 . S
C845 C843 1.419 . S
C845 C846 1.363 . S
C845 H848 0.929 . S
C846 C845 1.363 . S
C846 C852 1.428 . S
H847 C843 0.930 . S
H848 C845 0.929 . S
S849 N850 1.613 . S
S849 N851 1.610 . S
N850 S849 1.613 . S
N850 C853 1.350 . S
N851 S849 1.610 . S
N851 C852 1.351 . S
C852 C846 1.428 . S
C852 N851 1.351 . S
C852 C853 1.434 . S
C853 C844 1.429 . S
C853 N850 1.350 . S
C853 C852 1.434 . S
C854 C855 1.369 . S
C854 C856 1.419 . S
C854 H858 0.930 . S
C855 C854 1.369 . S
C855 C864 1.429 . S
C856 C854 1.419 . S
C856 C857 1.363 . S
C856 H859 0.929 . S
C857 C856 1.363 . S
C857 C863 1.428 . S
H858 C854 0.930 . S
H859 C856 0.929 . S
S860 N861 1.613 . S
S860 N862 1.610 . S
N861 S860 1.613 . S
N861 C864 1.350 . S
N862 S860 1.610 . S
N862 C863 1.351 . S
C863 C857 1.428 . S
C863 N862 1.351 . S
C863 C864 1.434 . S
C864 C855 1.429 . S
C864 N861 1.350 . S
C864 C863 1.434 . S
C865 C866 1.369 . S
C865 C867 1.419 . S
C865 H869 0.930 . S
C866 C865 1.369 . S
C866 C875 1.429 . S
C867 C865 1.419 . S
C867 C868 1.363 . S
C867 H870 0.929 . S
C868 C867 1.363 . S
C868 C874 1.428 . S
H869 C865 0.930 . S
H870 C867 0.929 . S
S871 N872 1.613 . S
S871 N873 1.610 . S
N872 S871 1.613 . S
N872 C875 1.350 . S
N873 S871 1.610 . S
N873 C874 1.351 . S
C874 C868 1.428 . S
C874 N873 1.351 . S
C874 C875 1.434 . S
C875 C866 1.429 . S
C875 N872 1.350 . S
C875 C874 1.434 . S
C876 C877 1.369 . S
C876 C878 1.419 . S
C876 H880 0.930 . S
C877 C876 1.369 . S
C877 C886 1.429 . S
C878 C876 1.419 . S
C878 C879 1.363 . S
C878 H881 0.929 . S
C879 C878 1.363 . S
C879 C885 1.428 . S
H880 C876 0.930 . S
H881 C878 0.929 . S
S882 N883 1.613 . S
S882 N884 1.610 . S
N883 S882 1.613 . S
N883 C886 1.350 . S
N884 S882 1.610 . S
N884 C885 1.351 . S
C885 C879 1.428 . S
C885 N884 1.351 . S
C885 C886 1.434 . S
C886 C877 1.429 . S
C886 N883 1.350 . S
C886 C885 1.434 . S
C887 C888 1.369 . S
C887 C889 1.419 . S
C887 H891 0.930 . S
C888 C887 1.369 . S
C888 C897 1.429 . S
C889 C887 1.419 . S
C889 C890 1.363 . S
C889 H892 0.929 . S
C890 C889 1.363 . S
C890 C896 1.428 . S
H891 C887 0.930 . S
H892 C889 0.929 . S
S893 N894 1.613 . S
S893 N895 1.610 . S
N894 S893 1.613 . S
N894 C897 1.350 . S
N895 S893 1.610 . S
N895 C896 1.351 . S
C896 C890 1.428 . S
C896 N895 1.351 . S
C896 C897 1.434 . S
C897 C888 1.429 . S
C897 N894 1.350 . S
C897 C896 1.434 . S
C898 C899 1.369 . S
C898 C900 1.419 . S
C898 H902 0.930 . S
C899 C898 1.369 . S
C899 C908 1.429 . S
C900 C898 1.419 . S
C900 C901 1.363 . S
C900 H903 0.929 . S
C901 C900 1.363 . S
C901 C907 1.428 . S
H902 C898 0.930 . S
H903 C900 0.929 . S
S904 N905 1.613 . S
S904 N906 1.610 . S
N905 S904 1.613 . S
N905 C908 1.350 . S
N906 S904 1.610 . S
N906 C907 1.351 . S
C907 C901 1.428 . S
C907 N906 1.351 . S
C907 C908 1.434 . S
C908 C899 1.429 . S
C908 N905 1.350 . S
C908 C907 1.434 . S
C909 C910 1.369 . S
C909 C911 1.419 . S
C909 H913 0.930 . S
C910 C909 1.369 . S
C910 C919 1.429 . S
C911 C909 1.419 . S
C911 C912 1.363 . S
C911 H914 0.929 . S
C912 C911 1.363 . S
C912 C918 1.440 . S
H913 C909 0.930 . S
H914 C911 0.929 . S
S915 N916 1.613 . S
S915 N917 1.610 . S
N916 S915 1.613 . S
N916 C919 1.350 1_455 S
N917 S915 1.610 . S
N917 C918 1.336 1_455 S
C918 C912 1.440 . S
C918 N917 1.336 1_655 S
C918 C919 1.440 . S
C919 C910 1.429 . S
C919 N916 1.350 1_655 S
C919 C918 1.440 . S
C920 C921 1.369 . S
C920 C922 1.419 . S
C920 H924 0.930 . S
C921 C920 1.369 . S
C921 C930 1.429 . S
C922 C920 1.419 . S
C922 C923 1.363 . S
C922 H925 0.929 . S
C923 C922 1.363 . S
C923 C929 1.428 . S
H924 C920 0.930 . S
H925 C922 0.929 . S
S926 N927 1.613 . S
S926 N928 1.610 . S
N927 S926 1.613 . S
N927 C930 1.350 . S
N928 S926 1.610 . S
N928 C929 1.351 . S
C929 C923 1.428 . S
C929 N928 1.351 . S
C929 C930 1.434 . S
C930 C921 1.429 . S
C930 N927 1.350 . S
C930 C929 1.434 . S
C931 C932 1.369 . S
C931 C933 1.419 . S
C931 H935 0.930 . S
C932 C931 1.369 . S
C932 C941 1.429 . S
C933 C931 1.419 . S
C933 C934 1.363 . S
C933 H936 0.929 . S
C934 C933 1.363 . S
C934 C940 1.428 . S
H935 C931 0.930 . S
H936 C933 0.929 . S
S937 N938 1.613 . S
S937 N939 1.610 . S
N938 S937 1.613 . S
N938 C941 1.350 . S
N939 S937 1.610 . S
N939 C940 1.351 . S
C940 C934 1.428 . S
C940 N939 1.351 . S
C940 C941 1.434 . S
C941 C932 1.429 . S
C941 N938 1.350 . S
C941 C940 1.434 . S
C942 C943 1.369 . S
C942 C944 1.419 1_556 S
C942 H946 0.930 1_556 S
C943 C942 1.369 . S
C943 C952 1.429 . S
C944 C942 1.419 1_554 S
C944 C945 1.363 1_554 S
C944 H947 0.929 . S
C945 C944 1.363 1_556 S
C945 C951 1.428 . S
H946 C942 0.930 1_554 S
H947 C944 0.929 . S
S948 N949 1.613 . S
S948 N950 1.610 . S
N949 S948 1.613 . S
N949 C952 1.350 . S
N950 S948 1.610 . S
N950 C951 1.351 . S
C951 C945 1.428 . S
C951 N950 1.351 . S
C951 C952 1.434 . S
C952 C943 1.429 . S
C952 N949 1.350 . S
C952 C951 1.434 . S
C953 C954 1.369 . S
C953 C955 1.419 . S
C953 H957 0.930 . S
C954 C953 1.369 . S
C954 C963 1.429 . S
C955 C953 1.419 . S
C955 C956 1.363 . S
C955 H958 0.929 . S
C956 C955 1.363 . S
C956 C962 1.428 . S
H957 C953 0.930 . S
H958 C955 0.929 . S
S959 N960 1.613 . S
S959 N961 1.610 . S
N960 S959 1.613 . S
N960 C963 1.350 . S
N961 S959 1.610 . S
N961 C962 1.351 . S
C962 C956 1.428 . S
C962 N961 1.351 . S
C962 C963 1.434 . S
C963 C954 1.429 . S
C963 N960 1.350 . S
C963 C962 1.434 . S
C964 C965 1.369 . S
C964 C966 1.419 . S
C964 H968 0.930 . S
C965 C964 1.369 . S
C965 C974 1.429 . S
C966 C964 1.419 . S
C966 C967 1.363 . S
C966 H969 0.929 . S
C967 C966 1.363 . S
C967 C973 1.428 . S
H968 C964 0.930 . S
H969 C966 0.929 . S
S970 N971 1.613 . S
S970 N972 1.610 . S
N971 S970 1.613 . S
N971 C974 1.350 . S
N972 S970 1.610 . S
N972 C973 1.351 . S
C973 C967 1.428 . S
C973 N972 1.351 . S
C973 C974 1.434 . S
C974 C965 1.429 . S
C974 N971 1.350 . S
C974 C973 1.434 . S
C975 C976 1.369 . S
C975 C977 1.419 . S
C975 H979 0.930 . S
C976 C975 1.369 . S
C976 C985 1.429 . S
C977 C975 1.419 . S
C977 C978 1.363 . S
C977 H980 0.929 . S
C978 C977 1.363 . S
C978 C984 1.428 . S
H979 C975 0.930 . S
H980 C977 0.929 . S
S981 N982 1.613 . S
S981 N983 1.610 . S
N982 S981 1.613 . S
N982 C985 1.350 . S
N983 S981 1.610 . S
N983 C984 1.351 . S
C984 C978 1.428 . S
C984 N983 1.351 . S
C984 C985 1.434 . S
C985 C976 1.429 . S
C985 N982 1.350 . S
C985 C984 1.434 . S
C986 C987 1.369 . S
C986 C988 1.419 . S
C986 H990 0.930 . S
C987 C986 1.369 . S
C987 C996 1.429 . S
C988 C986 1.419 . S
C988 C989 1.363 . S
C988 H991 0.929 . S
C989 C988 1.363 . S
C989 C995 1.428 . S
H990 C986 0.930 . S
H991 C988 0.929 . S
S992 N993 1.613 . S
S992 N994 1.610 . S
N993 S992 1.613 . S
N993 C996 1.350 . S
N994 S992 1.610 . S
N994 C995 1.351 . S
C995 C989 1.428 . S
C995 N994 1.351 . S
C995 C996 1.434 . S
C996 C987 1.429 . S
C996 N993 1.350 . S
C996 C995 1.434 . S
C997 C998 1.369 . S
C997 C999 1.419 . S
C997 H1001 0.930 . S
C998 C997 1.369 . S
C998 C1007 1.429 . S
C999 C997 1.419 . S
C999 C1000 1.363 . S
C999 H1002 0.929 . S
C1000 C999 1.363 . S
C1000 C1006 1.428 . S
H1001 C997 0.930 . S
H1002 C999 0.929 . S
S1003 N1004 1.613 . S
S1003 N1005 1.610 . S
N1004 S1003 1.613 . S
N1004 C1007 1.350 . S
N1005 S1003 1.610 . S
N1005 C1006 1.351 . S
C1006 C1000 1.428 . S
C1006 N1005 1.351 . S
C1006 C1007 1.434 . S
C1007 C998 1.429 . S
C1007 N1004 1.350 . S
C1007 C1006 1.434 . S
C1008 C1009 1.369 . S
C1008 C1010 1.419 . S
C1008 H1012 0.930 . S
C1009 C1008 1.369 . S
C1009 C1018 1.429 . S
C1010 C1008 1.419 . S
C1010 C1011 1.363 . S
C1010 H1013 0.929 . S
C1011 C1010 1.363 . S
C1011 C1017 1.428 . S
H1012 C1008 0.930 . S
H1013 C1010 0.929 . S
S1014 N1015 1.613 . S
S1014 N1016 1.610 . S
N1015 S1014 1.613 . S
N1015 C1018 1.350 . S
N1016 S1014 1.610 . S
N1016 C1017 1.351 . S
C1017 C1011 1.428 . S
C1017 N1016 1.351 . S
C1017 C1018 1.434 . S
C1018 C1009 1.429 . S
C1018 N1015 1.350 . S
C1018 C1017 1.434 . S
C1019 C1020 1.369 . S
C1019 C1021 1.419 . S
C1019 H1023 0.930 . S
C1020 C1019 1.369 . S
C1020 C1029 1.429 . S
C1021 C1019 1.419 . S
C1021 C1022 1.363 . S
C1021 H1024 0.929 1_545 S
C1022 C1021 1.363 . S
C1022 C1028 1.428 . S
H1023 C1019 0.930 . S
H1024 C1021 0.929 1_565 S
S1025 N1026 1.613 . S
S1025 N1027 1.610 . S
N1026 S1025 1.613 . S
N1026 C1029 1.350 . S
N1027 S1025 1.610 . S
N1027 C1028 1.351 . S
C1028 C1022 1.428 . S
C1028 N1027 1.351 . S
C1028 C1029 1.434 . S
C1029 C1020 1.429 . S
C1029 N1026 1.350 . S
C1029 C1028 1.434 . S
C1030 C1031 1.369 . S
C1030 C1032 1.419 . S
C1030 H1034 0.930 . S
C1031 C1030 1.369 . S
C1031 C1040 1.429 . S
C1032 C1030 1.419 . S
C1032 C1033 1.363 . S
C1032 H1035 0.929 . S
C1033 C1032 1.363 . S
C1033 C1039 1.428 . S
H1034 C1030 0.930 . S
H1035 C1032 0.929 . S
S1036 N1037 1.613 . S
S1036 N1038 1.610 . S
N1037 S1036 1.613 . S
N1037 C1040 1.350 . S
N1038 S1036 1.610 . S
N1038 C1039 1.351 . S
C1039 C1033 1.428 . S
C1039 N1038 1.351 . S
C1039 C1040 1.434 . S
C1040 C1031 1.429 . S
C1040 N1037 1.350 . S
C1040 C1039 1.434 . S
C1041 C1042 1.369 . S
C1041 C1043 1.419 . S
C1041 H1045 0.930 . S
C1042 C1041 1.369 . S
C1042 C1051 1.429 . S
C1043 C1041 1.419 . S
C1043 C1044 1.363 . S
C1043 H1046 0.929 . S
C1044 C1043 1.363 . S
C1044 C1050 1.428 . S
H1045 C1041 0.930 . S
H1046 C1043 0.929 . S
S1047 N1048 1.613 . S
S1047 N1049 1.610 . S
N1048 S1047 1.613 . S
N1048 C1051 1.350 . S
N1049 S1047 1.610 . S
N1049 C1050 1.351 . S
C1050 C1044 1.428 . S
C1050 N1049 1.351 . S
C1050 C1051 1.434 . S
C1051 C1042 1.429 . S
C1051 N1048 1.350 . S
C1051 C1050 1.434 . S
C1052 C1053 1.369 . S
C1052 C1054 1.419 . S
C1052 H1056 0.930 . S
C1053 C1052 1.369 . S
C1053 C1062 1.429 . S
C1054 C1052 1.419 . S
C1054 C1055 1.363 . S
C1054 H1057 0.929 . S
C1055 C1054 1.363 . S
C1055 C1061 1.428 . S
H1056 C1052 0.930 . S
H1057 C1054 0.929 . S
S1058 N1059 1.613 . S
S1058 N1060 1.610 . S
N1059 S1058 1.613 . S
N1059 C1062 1.350 . S
N1060 S1058 1.610 . S
N1060 C1061 1.351 . S
C1061 C1055 1.428 . S
C1061 N1060 1.351 . S
C1061 C1062 1.434 . S
C1062 C1053 1.429 . S
C1062 N1059 1.350 . S
C1062 C1061 1.434 . S
C1063 C1064 1.369 . S
C1063 C1065 1.419 . S
C1063 H1067 0.930 1_545 S
C1064 C1063 1.369 . S
C1064 C1073 1.429 . S
C1065 C1063 1.419 . S
C1065 C1066 1.363 . S
C1065 H1068 0.929 1_545 S
C1066 C1065 1.363 . S
C1066 C1072 1.428 . S
H1067 C1063 0.930 1_565 S
H1068 C1065 0.929 1_565 S
S1069 N1070 1.613 . S
S1069 N1071 1.610 . S
N1070 S1069 1.613 . S
N1070 C1073 1.350 . S
N1071 S1069 1.610 . S
N1071 C1072 1.351 . S
C1072 C1066 1.428 . S
C1072 N1071 1.351 . S
C1072 C1073 1.434 . S
C1073 C1064 1.429 . S
C1073 N1070 1.350 . S
C1073 C1072 1.434 . S
C1074 C1075 1.369 . S
C1074 C1076 1.419 . S
C1074 H1078 0.930 . S
C1075 C1074 1.369 . S
C1075 C1084 1.429 . S
C1076 C1074 1.419 . S
C1076 C1077 1.363 . S
C1076 H1079 0.929 . S
C1077 C1076 1.363 . S
C1077 C1083 1.428 . S
H1078 C1074 0.930 . S
H1079 C1076 0.929 . S
S1080 N1081 1.613 . S
S1080 N1082 1.610 . S
N1081 S1080 1.613 . S
N1081 C1084 1.350 . S
N1082 S1080 1.610 . S
N1082 C1083 1.351 . S
C1083 C1077 1.428 . S
C1083 N1082 1.351 . S
C1083 C1084 1.434 . S
C1084 C1075 1.429 . S
C1084 N1081 1.350 . S
C1084 C1083 1.434 . S
C1085 C1086 1.369 . S
C1085 C1087 1.419 . S
C1085 H1089 0.930 . S
C1086 C1085 1.369 . S
C1086 C1095 1.429 . S
C1087 C1085 1.419 . S
C1087 C1088 1.363 . S
C1087 H1090 0.929 . S
C1088 C1087 1.363 . S
C1088 C1094 1.428 . S
H1089 C1085 0.930 . S
H1090 C1087 0.929 . S
S1091 N1092 1.613 . S
S1091 N1093 1.610 . S
N1092 S1091 1.613 . S
N1092 C1095 1.350 . S
N1093 S1091 1.610 . S
N1093 C1094 1.351 . S
C1094 C1088 1.428 . S
C1094 N1093 1.351 . S
C1094 C1095 1.434 . S
C1095 C1086 1.429 . S
C1095 N1092 1.350 . S
C1095 C1094 1.434 . S
C1096 C1097 1.369 . S
C1096 C1098 1.419 . S
C1096 H1100 0.930 . S
C1097 C1096 1.369 . S
C1097 C1106 1.429 . S
C1098 C1096 1.419 . S
C1098 C1099 1.363 . S
C1098 H1101 0.929 . S
C1099 C1098 1.363 . S
C1099 C1105 1.428 . S
H1100 C1096 0.930 . S
H1101 C1098 0.929 . S
S1102 N1103 1.613 . S
S1102 N1104 1.610 . S
N1103 S1102 1.613 . S
N1103 C1106 1.350 . S
N1104 S1102 1.610 . S
N1104 C1105 1.351 . S
C1105 C1099 1.428 . S
C1105 N1104 1.351 . S
C1105 C1106 1.434 . S
C1106 C1097 1.429 . S
C1106 N1103 1.350 . S
C1106 C1105 1.434 . S
C1107 C1108 1.369 . S
C1107 C1109 1.419 . S
C1107 H1111 0.930 . S
C1108 C1107 1.369 . S
C1108 C1117 1.429 . S
C1109 C1107 1.419 . S
C1109 C1110 1.363 . S
C1109 H1112 0.929 . S
C1110 C1109 1.363 . S
C1110 C1116 1.428 1_655 S
H1111 C1107 0.930 . S
H1112 C1109 0.929 . S
S1113 N1114 1.613 . S
S1113 N1115 1.610 . S
N1114 S1113 1.613 . S
N1114 C1117 1.350 1_455 S
N1115 S1113 1.610 . S
N1115 C1116 1.351 . S
C1116 C1110 1.428 1_455 S
C1116 N1115 1.351 . S
C1116 C1117 1.434 1_455 S
C1117 C1108 1.429 . S
C1117 N1114 1.350 1_655 S
C1117 C1116 1.434 1_655 S
C1118 C1119 1.369 . S
C1118 C1120 1.419 . S
C1118 H1122 0.930 . S
C1119 C1118 1.369 . S
C1119 C1128 1.429 . S
C1120 C1118 1.419 . S
C1120 C1121 1.363 . S
C1120 H1123 0.929 . S
C1121 C1120 1.363 . S
C1121 C1127 1.428 . S
H1122 C1118 0.930 . S
H1123 C1120 0.929 . S
S1124 N1125 1.613 . S
S1124 N1126 1.610 . S
N1125 S1124 1.613 . S
N1125 C1128 1.350 . S
N1126 S1124 1.610 . S
N1126 C1127 1.351 . S
C1127 C1121 1.428 . S
C1127 N1126 1.351 . S
C1127 C1128 1.434 . S
C1128 C1119 1.429 . S
C1128 N1125 1.350 . S
C1128 C1127 1.434 . S
C1129 C1130 1.369 . S
C1129 C1131 1.419 . S
C1129 H1133 0.930 . S
C1130 C1129 1.369 . S
C1130 C1139 1.429 1_455 S
C1131 C1129 1.419 . S
C1131 C1132 1.363 . S
C1131 H1134 0.929 . S
C1132 C1131 1.363 . S
C1132 C1138 1.428 1_455 S
H1133 C1129 0.930 . S
H1134 C1131 0.929 . S
S1135 N1136 1.613 . S
S1135 N1137 1.610 . S
N1136 S1135 1.613 . S
N1136 C1139 1.350 . S
N1137 S1135 1.610 . S
N1137 C1138 1.351 . S
C1138 C1132 1.428 1_655 S
C1138 N1137 1.351 . S
C1138 C1139 1.434 . S
C1139 C1130 1.429 1_655 S
C1139 N1136 1.350 . S
C1139 C1138 1.434 . S
C1140 C1141 1.369 . S
C1140 C1142 1.419 . S
C1140 H1144 0.930 . S
C1141 C1140 1.369 . S
C1141 C1150 1.429 . S
C1142 C1140 1.419 . S
C1142 C1143 1.363 . S
C1142 H1145 0.929 . S
C1143 C1142 1.363 . S
C1143 C1149 1.428 . S
H1144 C1140 0.930 . S
H1145 C1142 0.929 . S
S1146 N1147 1.613 . S
S1146 N1148 1.610 . S
N1147 S1146 1.613 . S
N1147 C1150 1.350 . S
N1148 S1146 1.610 . S
N1148 C1149 1.351 . S
C1149 C1143 1.428 . S
C1149 N1148 1.351 . S
C1149 C1150 1.434 . S
C1150 C1141 1.429 . S
C1150 N1147 1.350 . S
C1150 C1149 1.434 . S
C1151 C1152 1.369 . S
C1151 C1153 1.419 . S
C1151 H1155 0.930 . S
C1152 C1151 1.369 . S
C1152 C1161 1.429 . S
C1153 C1151 1.419 . S
C1153 C1154 1.363 . S
C1153 H1156 0.929 . S
C1154 C1153 1.363 . S
C1154 C1160 1.428 . S
H1155 C1151 0.930 . S
H1156 C1153 0.929 . S
S1157 N1158 1.613 . S
S1157 N1159 1.610 . S
N1158 S1157 1.613 . S
N1158 C1161 1.350 . S
N1159 S1157 1.610 . S
N1159 C1160 1.351 . S
C1160 C1154 1.428 . S
C1160 N1159 1.351 . S
C1160 C1161 1.434 . S
C1161 C1152 1.429 . S
C1161 N1158 1.350 . S
C1161 C1160 1.434 . S
C1162 C1163 1.369 . S
C1162 C1164 1.419 . S
C1162 H1166 0.930 . S
C1163 C1162 1.369 . S
C1163 C1172 1.429 . S
C1164 C1162 1.419 . S
C1164 C1165 1.363 . S
C1164 H1167 0.929 . S
C1165 C1164 1.363 . S
C1165 C1171 1.428 . S
H1166 C1162 0.930 . S
H1167 C1164 0.929 . S
S1168 N1169 1.613 . S
S1168 N1170 1.610 . S
N1169 S1168 1.613 . S
N1169 C1172 1.350 . S
N1170 S1168 1.610 . S
N1170 C1171 1.351 . S
C1171 C1165 1.428 . S
C1171 N1170 1.351 . S
C1171 C1172 1.434 . S
C1172 C1163 1.429 . S
C1172 N1169 1.350 . S
C1172 C1171 1.434 . S
C1173 C1174 1.369 . S
C1173 C1175 1.419 . S
C1173 H1177 0.930 . S
C1174 C1173 1.369 . S
C1174 C1183 1.429 . S
C1175 C1173 1.419 . S
C1175 C1176 1.363 . S
C1175 H1178 0.929 . S
C1176 C1175 1.363 . S
C1176 C1182 1.428 . S
H1177 C1173 0.930 . S
H1178 C1175 0.929 . S
S1179 N1180 1.613 . S
S1179 N1181 1.610 . S
N1180 S1179 1.613 . S
N1180 C1183 1.350 . S
N1181 S1179 1.610 . S
N1181 C1182 1.351 . S
C1182 C1176 1.428 . S
C1182 N1181 1.351 . S
C1182 C1183 1.434 . S
C1183 C1174 1.429 . S
C1183 N1180 1.350 . S
C1183 C1182 1.434 . S
C1184 C1185 1.369 . S
C1184 C1186 1.419 . S
C1184 H1188 0.930 . S
C1185 C1184 1.369 . S
C1185 C1194 1.429 . S
C1186 C1184 1.419 . S
C1186 C1187 1.363 . S
C1186 H1189 0.929 . S
C1187 C1186 1.363 . S
C1187 C1193 1.428 . S
H1188 C1184 0.930 . S
H1189 C1186 0.929 . S
S1190 N1191 1.613 . S
S1190 N1192 1.610 . S
N1191 S1190 1.613 . S
N1191 C1194 1.350 . S
N1192 S1190 1.610 . S
N1192 C1193 1.351 . S
C1193 C1187 1.428 . S
C1193 N1192 1.351 . S
C1193 C1194 1.434 . S
C1194 C1185 1.429 . S
C1194 N1191 1.350 . S
C1194 C1193 1.434 . S
C1195 C1196 1.369 . S
C1195 C1197 1.419 . S
C1195 H1199 0.930 . S
C1196 C1195 1.369 . S
C1196 C1205 1.429 . S
C1197 C1195 1.419 . S
C1197 C1198 1.363 . S
C1197 H1200 0.929 . S
C1198 C1197 1.363 . S
C1198 C1204 1.428 . S
H1199 C1195 0.930 . S
H1200 C1197 0.929 . S
S1201 N1202 1.613 . S
S1201 N1203 1.610 . S
N1202 S1201 1.613 . S
N1202 C1205 1.350 . S
N1203 S1201 1.610 . S
N1203 C1204 1.351 . S
C1204 C1198 1.428 . S
C1204 N1203 1.351 . S
C1204 C1205 1.434 . S
C1205 C1196 1.429 . S
C1205 N1202 1.350 . S
C1205 C1204 1.434 . S
C1206 C1207 1.369 . S
C1206 C1208 1.419 . S
C1206 H1210 0.930 . S
C1207 C1206 1.369 . S
C1207 C1216 1.429 . S
C1208 C1206 1.419 . S
C1208 C1209 1.363 . S
C1208 H1211 0.929 . S
C1209 C1208 1.363 . S
C1209 C1215 1.428 . S
H1210 C1206 0.930 . S
H1211 C1208 0.929 . S
S1212 N1213 1.613 . S
S1212 N1214 1.610 . S
N1213 S1212 1.613 . S
N1213 C1216 1.350 . S
N1214 S1212 1.610 . S
N1214 C1215 1.351 . S
C1215 C1209 1.428 . S
C1215 N1214 1.351 . S
C1215 C1216 1.434 . S
C1216 C1207 1.429 . S
C1216 N1213 1.350 . S
C1216 C1215 1.434 . S
C1217 C1218 1.369 . S
C1217 C1219 1.419 . S
C1217 H1221 0.930 . S
C1218 C1217 1.369 . S
C1218 C1227 1.429 . S
C1219 C1217 1.419 . S
C1219 C1220 1.363 . S
C1219 H1222 0.929 . S
C1220 C1219 1.363 . S
C1220 C1226 1.428 . S
H1221 C1217 0.930 . S
H1222 C1219 0.929 . S
S1223 N1224 1.613 . S
S1223 N1225 1.610 . S
N1224 S1223 1.613 . S
N1224 C1227 1.350 . S
N1225 S1223 1.610 . S
N1225 C1226 1.351 . S
C1226 C1220 1.428 . S
C1226 N1225 1.351 . S
C1226 C1227 1.434 . S
C1227 C1218 1.429 . S
C1227 N1224 1.350 . S
C1227 C1226 1.434 . S
C1228 C1229 1.369 . S
C1228 C1230 1.419 . S
C1228 H1232 0.930 . S
C1229 C1228 1.369 . S
C1229 C1238 1.429 . S
C1230 C1228 1.419 . S
C1230 C1231 1.363 . S
C1230 H1233 0.929 . S
C1231 C1230 1.363 . S
C1231 C1237 1.428 . S
H1232 C1228 0.930 . S
H1233 C1230 0.929 . S
S1234 N1235 1.613 . S
S1234 N1236 1.610 . S
N1235 S1234 1.613 . S
N1235 C1238 1.350 . S
N1236 S1234 1.610 . S
N1236 C1237 1.351 . S
C1237 C1231 1.428 . S
C1237 N1236 1.351 . S
C1237 C1238 1.434 . S
C1238 C1229 1.429 . S
C1238 N1235 1.350 . S
C1238 C1237 1.434 . S
C1239 C1240 1.369 . S
C1239 C1241 1.419 . S
C1239 H1243 0.930 . S
C1240 C1239 1.369 . S
C1240 C1249 1.429 . S
C1241 C1239 1.419 . S
C1241 C1242 1.363 . S
C1241 H1244 0.929 . S
C1242 C1241 1.363 . S
C1242 C1248 1.428 . S
H1243 C1239 0.930 . S
H1244 C1241 0.929 . S
S1245 N1246 1.613 . S
S1245 N1247 1.610 . S
N1246 S1245 1.613 . S
N1246 C1249 1.350 . S
N1247 S1245 1.610 . S
N1247 C1248 1.351 . S
C1248 C1242 1.428 . S
C1248 N1247 1.351 . S
C1248 C1249 1.434 . S
C1249 C1240 1.429 . S
C1249 N1246 1.350 . S
C1249 C1248 1.434 . S
C1250 C1251 1.369 . S
C1250 C1252 1.419 . S
C1250 H1254 0.930 . S
C1251 C1250 1.369 . S
C1251 C1260 1.429 . S
C1252 C1250 1.419 . S
C1252 C1253 1.363 . S
C1252 H1255 0.929 . S
C1253 C1252 1.363 . S
C1253 C1259 1.428 . S
H1254 C1250 0.930 . S
H1255 C1252 0.929 . S
S1256 N1257 1.613 . S
S1256 N1258 1.610 . S
N1257 S1256 1.613 . S
N1257 C1260 1.350 . S
N1258 S1256 1.610 . S
N1258 C1259 1.351 . S
C1259 C1253 1.428 . S
C1259 N1258 1.351 . S
C1259 C1260 1.434 . S
C1260 C1251 1.429 . S
C1260 N1257 1.350 . S
C1260 C1259 1.434 . S
C1261 C1262 1.373 1_556 S
C1261 C1263 1.418 . S
C1261 H1265 0.927 . S
C1262 C1261 1.373 1_554 S
C1262 C1271 1.429 . S
C1263 C1261 1.418 . S
C1263 C1264 1.363 1_556 S
C1263 H1266 0.929 . S
C1264 C1263 1.363 1_554 S
C1264 C1270 1.428 . S
H1265 C1261 0.927 . S
H1266 C1263 0.929 . S
S1267 N1268 1.613 . S
S1267 N1269 1.610 . S
N1268 S1267 1.613 . S
N1268 C1271 1.350 . S
N1269 S1267 1.610 . S
N1269 C1270 1.351 . S
C1270 C1264 1.428 . S
C1270 N1269 1.351 . S
C1270 C1271 1.434 . S
C1271 C1262 1.429 . S
C1271 N1268 1.350 . S
C1271 C1270 1.434 . S
C747 C584 1.483 . S
C745 C181 1.504 . S
C758 C597 1.492 . S
C756 C247 1.484 . S
C767 C283 1.629 . S
C769 C617 1.520 . S
C780 C631 1.399 . S
C778 C169 1.460 . S
C791 C643 1.511 . S
C789 C361 1.513 . S
C802 C657 1.441 . S
C800 C433 1.434 . S
C811 C421 1.487 . S
C813 C667 1.479 . S
C824 C682 1.523 . S
C822 C355 1.544 . S
C833 C427 1.524 . S
C835 C696 1.497 . S
C846 C715 1.397 . S
C844 C325 1.449 . S
C855 C385 1.491 . S
C857 C695 1.480 . S
C868 C713 1.446 . S
C866 C463 1.437 . S
C877 C253 1.631 . S
C879 C729 1.528 . S
C888 C145 1.497 . S
C890 C723 1.493 . S
C899 C205 1.497 . S
C901 C727 1.496 . S
C910 C217 1.524 . S
C912 C724 1.509 . S
C921 C139 1.523 . S
C923 C626 1.495 . S
C932 C535 1.489 . S
C934 C625 1.481 . S
C945 C589 1.384 . S
C943 C565 1.433 . S
C956 C603 1.521 . S
C954 C313 1.620 . S
C965 C175 1.559 . S
C967 C640 1.523 . S
C978 C685 1.507 . S
C976 C397 1.508 . S
C989 C639 1.493 . S
C987 C349 1.486 . S
C1000 C671 1.448 . S
C998 C457 1.440 . S
C1011 C668 1.480 . S
C1009 C505 1.506 . S
C1020 C571 1.485 . S
C1022 C681 1.491 . S
C1031 C319 1.625 . S
C1033 C645 1.529 . S
C1044 C659 1.394 . S
C1042 C493 1.461 . S
C1053 C109 1.513 . S
C1055 C615 1.512 . S
C1066 C629 1.441 . S
C1064 C1 1.434 . S
C1077 C583 1.480 . S
C1075 C61 1.489 . S
C1088 C598 1.521 . S
C1086 C103 1.544 . S
C1097 C67 1.523 . S
C1099 C710 1.499 . S
C1108 C73 1.450 . S
C1110 C701 1.399 . S
C1119 C133 1.490 . S
C1121 C709 1.480 . S
C1130 C31 1.439 . S
C1132 C699 1.445 . S
C1143 C743 1.533 . S
C1141 C289 1.632 . S
C1154 C737 1.492 . S
C1152 C469 1.497 . S
C1165 C741 1.497 . S
C1163 C529 1.497 . S
C1174 C541 1.529 . S
C1176 C738 1.508 . S
C1185 C391 1.523 . S
C1187 C654 1.495 . S
C1198 C653 1.480 . S
C1196 C211 1.490 . S
C1209 C673 1.386 . S
C1207 C241 1.432 . S
C1220 C687 1.522 . S
C1218 C277 1.615 . S
C1229 C499 1.559 . S
C1231 C612 1.524 . S
C1242 C601 1.507 . S
C1240 C37 1.508 . S
C1251 C97 1.486 . S
C1253 C611 1.493 . S
C1264 C587 1.448 . S
C1262 C25 1.440 . S
