# Generated by pormake.
# Topology nom, (4,4)-cn, num edge types: 1
# Building blocks:
#     Node 0, Type 0, BuildingBlock: MUDLON_clean_linker_0, # of connection points: 4
#     Node 1, Type 0, BuildingBlock: MUDLON_clean_linker_0, # of connection points: 4
#     Node 2, Type 0, BuildingBlock: MUDLON_clean_linker_0, # of connection points: 4
#     Node 3, Type 0, BuildingBlock: MUDLON_clean_linker_0, # of connection points: 4
#     Node 4, Type 0, BuildingBlock: MUDLON_clean_linker_0, # of connection points: 4
#     Node 5, Type 0, BuildingBlock: MUDLON_clean_linker_0, # of connection points: 4
#     Node 6, Type 1, BuildingBlock: CEKHIL_clean_sbu_0, # of connection points: 4
#     Node 7, Type 1, BuildingBlock: CEKHIL_clean_sbu_0, # of connection points: 4
#     Node 8, Type 1, BuildingBlock: CEKHIL_clean_sbu_0, # of connection points: 4
#     Node 9, Type 1, BuildingBlock: CEKHIL_clean_sbu_0, # of connection points: 4
#     Node 10, Type 1, BuildingBlock: CEKHIL_clean_sbu_0, # of connection points: 4
#     Node 11, Type 1, BuildingBlock: CEKHIL_clean_sbu_0, # of connection points: 4
#     Edge 12, Type (0, 1), BuildingBlock: CIFDUS_clean_linker_0, # of connection points: 2
#     Edge 13, Type (0, 1), BuildingBlock: CIFDUS_clean_linker_0, # of connection points: 2
#     Edge 14, Type (0, 1), BuildingBlock: CIFDUS_clean_linker_0, # of connection points: 2
#     Edge 15, Type (0, 1), BuildingBlock: CIFDUS_clean_linker_0, # of connection points: 2
#     Edge 16, Type (0, 1), BuildingBlock: CIFDUS_clean_linker_0, # of connection points: 2
#     Edge 17, Type (0, 1), BuildingBlock: CIFDUS_clean_linker_0, # of connection points: 2
#     Edge 18, Type (0, 1), BuildingBlock: CIFDUS_clean_linker_0, # of connection points: 2
#     Edge 19, Type (0, 1), BuildingBlock: CIFDUS_clean_linker_0, # of connection points: 2
#     Edge 20, Type (0, 1), BuildingBlock: CIFDUS_clean_linker_0, # of connection points: 2
#     Edge 21, Type (0, 1), BuildingBlock: CIFDUS_clean_linker_0, # of connection points: 2
#     Edge 22, Type (0, 1), BuildingBlock: CIFDUS_clean_linker_0, # of connection points: 2
#     Edge 23, Type (0, 1), BuildingBlock: CIFDUS_clean_linker_0, # of connection points: 2
#     Edge 24, Type (0, 1), BuildingBlock: CIFDUS_clean_linker_0, # of connection points: 2
#     Edge 25, Type (0, 1), BuildingBlock: CIFDUS_clean_linker_0, # of connection points: 2
#     Edge 26, Type (0, 1), BuildingBlock: CIFDUS_clean_linker_0, # of connection points: 2
#     Edge 27, Type (0, 1), BuildingBlock: CIFDUS_clean_linker_0, # of connection points: 2
#     Edge 28, Type (0, 1), BuildingBlock: CIFDUS_clean_linker_0, # of connection points: 2
#     Edge 29, Type (0, 1), BuildingBlock: CIFDUS_clean_linker_0, # of connection points: 2
#     Edge 30, Type (0, 1), BuildingBlock: CIFDUS_clean_linker_0, # of connection points: 2
#     Edge 31, Type (0, 1), BuildingBlock: CIFDUS_clean_linker_0, # of connection points: 2
#     Edge 32, Type (0, 1), BuildingBlock: CIFDUS_clean_linker_0, # of connection points: 2
#     Edge 33, Type (0, 1), BuildingBlock: CIFDUS_clean_linker_0, # of connection points: 2
#     Edge 34, Type (0, 1), BuildingBlock: CIFDUS_clean_linker_0, # of connection points: 2
#     Edge 35, Type (0, 1), BuildingBlock: CIFDUS_clean_linker_0, # of connection points: 2
# Relax obj value: 0.008
# Max RMSD: 0.106
# Mean RMSD: 0.066
data_MOF--net-nom--node1-CEKHIL_clean_sbu_0--node2-MUDLON_clean_linker_0--edge1-CIFDUS_clean_linker_0
_symmetry_space_group_name_H-M    P1
_symmetry_Int_Tables_number       1
_symmetry_cell_setting            triclinic
loop_
_symmetry_equiv_pos_as_xyz
'x, y, z'
_cell_length_a     55.308526
_cell_length_b     55.606437
_cell_length_c     55.189702
_cell_angle_alpha  90.349833
_cell_angle_beta   89.802686
_cell_angle_gamma 121.64532
loop_
_atom_site_label
_atom_site_type_symbol
_atom_site_fract_x
_atom_site_fract_y
_atom_site_fract_z
_atom_type_partial_charge
H0 H 0.13477 0.53596 0.31803 0.0
N1 N 0.11056 0.55583 0.34676 0.0
H2 H 0.17767 0.56366 0.29348 0.0
H3 H 0.13491 0.61162 0.33553 0.0
H4 H 0.17786 0.63953 0.31121 0.0
H5 H 0.10075 0.59135 0.37362 0.0
H6 H 0.12238 0.61257 0.41277 0.0
H7 H 0.14252 0.54431 0.37391 0.0
H8 H 0.16567 0.56648 0.41204 0.0
H9 H 0.06805 0.50553 0.36 0.0
H10 H 0.08612 0.5801 0.32101 0.0
H11 H 0.01792 0.48303 0.3497 0.0
H12 H 0.03629 0.55717 0.30927 0.0
H13 H 0.87386 0.4043 0.28458 0.0
H14 H 0.85632 0.3883 0.24337 0.0
H15 H 0.90105 0.47503 0.21936 0.0
H16 H 0.91866 0.49078 0.26083 0.0
H17 H 0.88459 0.49126 0.28964 0.0
H18 H 0.84442 0.49038 0.30943 0.0
H19 H 0.84158 0.4328 0.36302 0.0
H20 H 0.88101 0.43272 0.3425 0.0
H21 H 0.93827 0.43657 0.30557 0.0
H22 H 0.98839 0.46196 0.31647 0.0
H23 H 0.98861 0.53979 0.32082 0.0
N24 N 0.90491 0.45706 0.30057 0.0
H25 H 0.93857 0.5141 0.30842 0.0
C26 C 0.13163 0.57164 0.32848 0.0
C27 C 0.14362 0.55843 0.31596 0.0
C28 C 0.16824 0.57432 0.3022 0.0
C29 C 0.18132 0.60382 0.30068 0.0
C30 C 0.16819 0.61683 0.31191 0.0
C31 C 0.1436 0.6009 0.32578 0.0
C32 C 0.11982 0.56598 0.37108 0.0
C33 C 0.1143 0.58533 0.38232 0.0
C34 C 0.12704 0.59772 0.40456 0.0
C35 C 0.14601 0.59144 0.41571 0.0
C36 C 0.15082 0.57151 0.4045 0.0
C37 C 0.13771 0.55884 0.38258 0.0
C38 C 0.08099 0.54423 0.34103 0.0
C39 C 0.06116 0.51697 0.34908 0.0
C40 C 0.03252 0.50406 0.34292 0.0
C41 C 0.02294 0.51795 0.32813 0.0
C42 C 0.04275 0.54577 0.32071 0.0
C43 C 0.07146 0.55889 0.32726 0.0
C44 C 0.89739 0.44858 0.27568 0.0
C45 C 0.88018 0.41976 0.27031 0.0
C46 C 0.87028 0.41072 0.24677 0.0
C47 C 0.87728 0.43042 0.22811 0.0
C48 C 0.89511 0.45939 0.23341 0.0
C49 C 0.90526 0.46841 0.25701 0.0
C50 C 0.88542 0.46154 0.31439 0.0
C51 C 0.87561 0.47869 0.30577 0.0
C52 C 0.85272 0.47827 0.31711 0.0
C53 C 0.83992 0.46143 0.33763 0.0
C54 C 0.85122 0.44607 0.3473 0.0
C55 C 0.87366 0.44599 0.33564 0.0
C56 C 0.93467 0.47331 0.30651 0.0
C57 C 0.94925 0.45914 0.30878 0.0
C58 C 0.97786 0.47372 0.31528 0.0
C59 C 0.99263 0.50296 0.32008 0.0
C60 C 0.97807 0.51734 0.31723 0.0
C61 C 0.94937 0.50267 0.31032 0.0
H62 H 0.47966 0.87447 0.45191 0.0
N63 N 0.46911 0.9151 0.44482 0.0
H64 H 0.45251 0.83197 0.47585 0.0
H65 H 0.42483 0.9035 0.47524 0.0
H66 H 0.39889 0.86222 0.50119 0.0
H67 H 0.41613 0.8941 0.42572 0.0
H68 H 0.40043 0.87437 0.38535 0.0
H69 H 0.50089 0.91442 0.40901 0.0
H70 H 0.48496 0.89212 0.36934 0.0
H71 H 0.51336 0.95164 0.47145 0.0
H72 H 0.439 0.94114 0.43606 0.0
H73 H 0.52552 0.99841 0.48576 0.0
H74 H 0.45165 0.988 0.44902 0.0
H75 H 0.57312 0.13305 0.51164 0.0
H76 H 0.5955 0.15759 0.54921 0.0
H77 H 0.51282 0.12967 0.57979 0.0
H78 H 0.49067 0.10613 0.54145 0.0
H79 H 0.48692 0.13135 0.49049 0.0
H80 H 0.50198 0.17343 0.46577 0.0
H81 H 0.57841 0.17499 0.44612 0.0
H82 H 0.56311 0.1329 0.47042 0.0
H83 H 0.55448 0.09172 0.48795 0.0
H84 H 0.54277 0.04524 0.47376 0.0
H85 H 0.45343 0.01447 0.48276 0.0
N86 N 0.51659 0.10755 0.50045 0.0
H87 H 0.46551 0.06163 0.4956 0.0
C88 C 0.45463 0.89234 0.46195 0.0
C89 C 0.46221 0.87199 0.46286 0.0
C90 C 0.44666 0.8477 0.47679 0.0
C91 C 0.42337 0.84337 0.49081 0.0
C92 C 0.41627 0.86433 0.49041 0.0
C93 C 0.43144 0.88833 0.47584 0.0
C94 C 0.45999 0.90655 0.42013 0.0
C95 C 0.43155 0.89488 0.41312 0.0
C96 C 0.42243 0.88286 0.39011 0.0
C97 C 0.44122 0.88115 0.37388 0.0
C98 C 0.46983 0.89338 0.38091 0.0
C99 C 0.47907 0.90612 0.40368 0.0
C100 C 0.4755 0.94277 0.45248 0.0
C101 C 0.49982 0.95953 0.46656 0.0
C102 C 0.50683 0.98637 0.47456 0.0
C103 C 0.48967 0.99723 0.46851 0.0
C104 C 0.46522 0.98032 0.45439 0.0
C105 C 0.45806 0.95336 0.44666 0.0
C106 C 0.53009 0.11786 0.52366 0.0
C107 C 0.55971 0.1318 0.52645 0.0
C108 C 0.57254 0.1458 0.54812 0.0
C109 C 0.55603 0.14595 0.56753 0.0
C110 C 0.52627 0.13056 0.56508 0.0
C111 C 0.51351 0.1168 0.54332 0.0
C112 C 0.52382 0.12899 0.48247 0.0
C113 C 0.50656 0.14039 0.48032 0.0
C114 C 0.5152 0.16439 0.46624 0.0
C115 C 0.54151 0.17763 0.45425 0.0
C116 C 0.55819 0.1654 0.45545 0.0
C117 C 0.54937 0.1412 0.46931 0.0
C118 C 0.51075 0.08028 0.49249 0.0
C119 C 0.53239 0.07516 0.48657 0.0
C120 C 0.52561 0.0483 0.47872 0.0
C121 C 0.49708 0.02591 0.47695 0.0
C122 C 0.47559 0.03119 0.48331 0.0
C123 C 0.48242 0.05808 0.49086 0.0
H124 H 0.44039 0.56582 0.65322 0.0
N125 N 0.41321 0.51144 0.66983 0.0
H126 H 0.41863 0.58684 0.62998 0.0
H127 H 0.36344 0.48414 0.64725 0.0
H128 H 0.34123 0.50506 0.62433 0.0
H129 H 0.37524 0.5045 0.70287 0.0
H130 H 0.38279 0.53328 0.73876 0.0
H131 H 0.46521 0.55188 0.68847 0.0
H132 H 0.4733 0.57943 0.72519 0.0
H133 H 0.46311 0.5405 0.64407 0.0
H134 H 0.40496 0.46068 0.67762 0.0
H135 H 0.49436 0.5235 0.63313 0.0
H136 H 0.43561 0.44299 0.66604 0.0
H137 H 0.59419 0.46443 0.60137 0.0
H138 H 0.59986 0.44748 0.56216 0.0
H139 H 0.50848 0.39445 0.5557 0.0
H140 H 0.5033 0.41029 0.59564 0.0
H141 H 0.50643 0.39023 0.635 0.0
H142 H 0.51507 0.35617 0.6552 0.0
H143 H 0.60018 0.42367 0.67275 0.0
H144 H 0.5914 0.45748 0.65257 0.0
H145 H 0.53294 0.47708 0.59862 0.0
H146 H 0.49969 0.49198 0.60759 0.0
H147 H 0.48034 0.44904 0.67633 0.0
N148 N 0.54643 0.44589 0.62631 0.0
H149 H 0.51267 0.43337 0.6672 0.0
C150 C 0.40349 0.52325 0.65188 0.0
C151 C 0.41909 0.55223 0.6463 0.0
C152 C 0.40646 0.56431 0.63328 0.0
C153 C 0.37804 0.54771 0.62559 0.0
C154 C 0.36319 0.51844 0.62983 0.0
C155 C 0.37584 0.5064 0.64287 0.0
C156 C 0.41949 0.52571 0.693 0.0
C157 C 0.39673 0.52053 0.70793 0.0
C158 C 0.40118 0.53701 0.72856 0.0
C159 C 0.42872 0.55892 0.73502 0.0
C160 C 0.45173 0.5632 0.72061 0.0
C161 C 0.44716 0.54706 0.69966 0.0
C162 C 0.43158 0.50179 0.66175 0.0
C163 C 0.45684 0.51917 0.64884 0.0
C164 C 0.47468 0.50931 0.64247 0.0
C165 C 0.46761 0.48182 0.64871 0.0
C166 C 0.44205 0.46441 0.66126 0.0
C167 C 0.42436 0.47436 0.66773 0.0
C168 C 0.54844 0.43882 0.6014 0.0
C169 C 0.57543 0.44947 0.59125 0.0
C170 C 0.57857 0.43979 0.56874 0.0
C171 C 0.55465 0.41938 0.55564 0.0
C172 C 0.52747 0.40967 0.56541 0.0
C173 C 0.52439 0.41899 0.58816 0.0
C174 C 0.5484 0.42647 0.6423 0.0
C175 C 0.52667 0.39775 0.64373 0.0
C176 C 0.5316 0.37834 0.6553 0.0
C177 C 0.55839 0.38727 0.66526 0.0
C178 C 0.57942 0.41619 0.665 0.0
C179 C 0.57441 0.43555 0.65368 0.0
C180 C 0.52464 0.45253 0.63138 0.0
C181 C 0.52098 0.47004 0.61535 0.0
C182 C 0.5022 0.47903 0.62069 0.0
C183 C 0.487 0.4715 0.6426 0.0
C184 C 0.49101 0.4546 0.65895 0.0
C185 C 0.50969 0.44546 0.65357 0.0
H186 H 0.14617 0.57215 0.8021 0.0
N187 N 0.11225 0.51645 0.78944 0.0
H188 H 0.18906 0.59263 0.82671 0.0
H189 H 0.13003 0.48874 0.81565 0.0
H190 H 0.17361 0.50914 0.83977 0.0
H191 H 0.1363 0.49912 0.75802 0.0
H192 H 0.15866 0.52062 0.71948 0.0
H193 H 0.11001 0.55913 0.76684 0.0
H194 H 0.13094 0.57993 0.72769 0.0
H195 H 0.09806 0.55149 0.81253 0.0
H196 H 0.06386 0.46767 0.78333 0.0
H197 H 0.05045 0.53931 0.8247 0.0
H198 H 0.01606 0.45526 0.79551 0.0
H199 H 0.88794 0.48566 0.8632 0.0
H200 H 0.86395 0.46752 0.90195 0.0
H201 H 0.90057 0.41549 0.90704 0.0
H202 H 0.9229 0.43247 0.86761 0.0
H203 H 0.89919 0.41205 0.82863 0.0
H204 H 0.85701 0.37701 0.80608 0.0
H205 H 0.83738 0.44085 0.79011 0.0
H206 H 0.87972 0.47584 0.8126 0.0
H207 H 0.9638 0.49619 0.86432 0.0
H208 H 0.01175 0.50852 0.85347 0.0
H209 H 0.98139 0.46837 0.78378 0.0
N210 N 0.91567 0.46718 0.8373 0.0
H211 H 0.9339 0.45612 0.79422 0.0
C212 C 0.13477 0.52878 0.80714 0.0
C213 C 0.15146 0.55816 0.81085 0.0
C214 C 0.17624 0.56988 0.82471 0.0
C215 C 0.18502 0.55256 0.83493 0.0
C216 C 0.1674 0.52309 0.83232 0.0
C217 C 0.14253 0.51137 0.81853 0.0
C218 C 0.12129 0.52724 0.76524 0.0
C219 C 0.1347 0.51648 0.75125 0.0
C220 C 0.14739 0.5288 0.72915 0.0
C221 C 0.14674 0.55215 0.72033 0.0
C222 C 0.13234 0.56232 0.73403 0.0
C223 C 0.11996 0.55016 0.75635 0.0
C224 C 0.08459 0.51033 0.79707 0.0
C225 C 0.08042 0.53041 0.80884 0.0
C226 C 0.05311 0.52338 0.8159 0.0
C227 C 0.02946 0.4963 0.81112 0.0
C228 C 0.03377 0.47638 0.79927 0.0
C229 C 0.06103 0.48337 0.79238 0.0
C230 C 0.90727 0.46059 0.86245 0.0
C231 C 0.89123 0.47079 0.87299 0.0
C232 C 0.87756 0.46038 0.89523 0.0
C233 C 0.8799 0.43966 0.90764 0.0
C234 C 0.89758 0.43084 0.89777 0.0
C235 C 0.91077 0.44085 0.8753 0.0
C236 C 0.89264 0.44667 0.82215 0.0
C237 C 0.88598 0.41855 0.82005 0.0
C238 C 0.86198 0.3986 0.8071 0.0
C239 C 0.84393 0.40624 0.79646 0.0
C240 C 0.85085 0.43438 0.7983 0.0
C241 C 0.87504 0.45439 0.81096 0.0
C242 C 0.94403 0.47313 0.83109 0.0
C243 C 0.96709 0.48924 0.84693 0.0
C244 C 0.99473 0.49672 0.84058 0.0
C245 C 1.00027 0.48884 0.81797 0.0
C246 C 0.97769 0.47392 0.80168 0.0
C247 C 0.95017 0.46663 0.8079 0.0
H248 H 0.55446 0.16615 0.95532 0.0
N249 N 0.55332 0.1185 0.94777 0.0
H250 H 0.59021 0.20817 0.97653 0.0
H251 H 0.59757 0.12316 0.9748 0.0
H252 H 0.63192 0.16408 0.99823 0.0
H253 H 0.60328 0.13698 0.92376 0.0
H254 H 0.6148 0.15653 0.88308 0.0
H255 H 0.51724 0.11691 0.915 0.0
H256 H 0.52844 0.1361 0.87378 0.0
H257 H 0.51175 0.08588 0.97822 0.0
H258 H 0.5771 0.08755 0.93414 0.0
H259 H 0.49795 0.03896 0.9929 0.0
H260 H 0.56276 0.04039 0.9478 0.0
H261 H 0.44177 0.90146 0.01573 0.0
H262 H 0.41706 0.87979 0.05324 0.0
H263 H 0.49728 0.90697 0.08813 0.0
H264 H 0.52207 0.9286 0.05007 0.0
H265 H 0.52211 0.89503 0.00175 0.0
H266 H 0.50322 0.85123 0.9782 0.0
H267 H 0.43682 0.86236 0.95053 0.0
H268 H 0.45582 0.90599 0.97382 0.0
H269 H 0.46258 0.94467 0.99722 0.0
H270 H 0.47566 0.99069 0.9815 0.0
H271 H 0.5641 0.01596 0.98235 0.0
N272 N 0.49896 0.92614 0.00728 0.0
H273 H 0.55054 0.96915 0.99719 0.0
C274 C 0.5729 0.14131 0.96357 0.0
C275 C 0.57119 0.16552 0.96488 0.0
C276 C 0.59169 0.18955 0.97728 0.0
C277 C 0.61417 0.18981 0.98949 0.0
C278 C 0.61537 0.1651 0.9888 0.0
C279 C 0.59529 0.1413 0.97566 0.0
C280 C 0.55925 0.12527 0.92238 0.0
C281 C 0.5866 0.13597 0.91276 0.0
C282 C 0.59316 0.1472 0.88943 0.0
C283 C 0.57256 0.14802 0.87514 0.0
C284 C 0.54488 0.13613 0.8844 0.0
C285 C 0.53834 0.12486 0.9078 0.0
C286 C 0.54518 0.09025 0.95492 0.0
C287 C 0.52284 0.07594 0.97146 0.0
C288 C 0.5149 0.04904 0.97971 0.0
C289 C 0.52915 0.03572 0.9715 0.0
C290 C 0.55151 0.05007 0.95478 0.0
C291 C 0.55956 0.07707 0.94668 0.0
C292 C 0.484 0.91695 0.03006 0.0
C293 C 0.45426 0.90352 0.03148 0.0
C294 C 0.44004 0.89101 0.05306 0.0
C295 C 0.45516 0.89151 0.07368 0.0
C296 C 0.48498 0.90591 0.07249 0.0
C297 C 0.4992 0.91851 0.05087 0.0
C298 C 0.49043 0.90377 0.98973 0.0
C299 C 0.50395 0.88837 0.99007 0.0
C300 C 0.49314 0.8634 0.97663 0.0
C301 C 0.46837 0.85326 0.96275 0.0
C302 C 0.45574 0.86953 0.96133 0.0
C303 C 0.46671 0.89461 0.97461 0.0
C304 C 0.50567 0.9533 0.99832 0.0
C305 C 0.48475 0.95989 0.99393 0.0
C306 C 0.49234 0.98649 0.98507 0.0
C307 C 0.52098 0.00719 0.9806 0.0
C308 C 0.5418 1.00048 0.98514 0.0
C309 C 0.53415 0.97382 0.99381 0.0
H310 H 0.55477 0.42052 0.14417 0.0
N311 N 0.56099 0.46739 0.1629 0.0
H312 H 0.59129 0.41455 0.12504 0.0
H313 H 0.61405 0.51036 0.14886 0.0
H314 H 0.65067 0.50454 0.12961 0.0
H315 H 0.60717 0.48978 0.19306 0.0
H316 H 0.60869 0.47149 0.23251 0.0
H317 H 0.51658 0.43221 0.19 0.0
H318 H 0.51732 0.41539 0.23059 0.0
H319 H 0.51803 0.45866 0.13527 0.0
H320 H 0.58776 0.5226 0.17754 0.0
H321 H 0.50394 0.49229 0.12484 0.0
H322 H 0.57459 0.55689 0.16654 0.0
H323 H 0.46443 0.57735 0.09175 0.0
H324 H 0.452 0.58311 0.05056 0.0
H325 H 0.53605 0.65705 0.04183 0.0
H326 H 0.54832 0.65062 0.08274 0.0
H327 H 0.53331 0.66499 0.13016 0.0
H328 H 0.50625 0.68239 0.15073 0.0
H329 H 0.4346 0.59674 0.15647 0.0
H330 H 0.46191 0.57965 0.13545 0.0
H331 H 0.5086 0.56772 0.08791 0.0
H332 H 0.51941 0.53301 0.10052 0.0
H333 H 0.53951 0.56942 0.1724 0.0
N334 N 0.51463 0.61271 0.11522 0.0
H335 H 0.52938 0.60512 0.15959 0.0
C336 C 0.58151 0.46575 0.14789 0.0
C337 C 0.57546 0.43901 0.14053 0.0
C338 C 0.59639 0.43564 0.12982 0.0
C339 C 0.6239 0.45906 0.12612 0.0
C340 C 0.62961 0.48615 0.13219 0.0
C341 C 0.60863 0.48948 0.14315 0.0
C342 C 0.56176 0.4617 0.18826 0.0
C343 C 0.58745 0.47366 0.20116 0.0
C344 C 0.58821 0.46328 0.22399 0.0
C345 C 0.5632 0.44134 0.23473 0.0
C346 C 0.53721 0.43148 0.22264 0.0
C347 C 0.5366 0.44134 0.19956 0.0
C348 C 0.55397 0.48818 0.15693 0.0
C349 C 0.53042 0.48011 0.1421 0.0
C350 C 0.52251 0.49942 0.1361 0.0
C351 C 0.53817 0.52742 0.14473 0.0
C352 C 0.56181 0.53544 0.15979 0.0
C353 C 0.56959 0.51598 0.1659 0.0
C354 C 0.50746 0.61358 0.09022 0.0
C355 C 0.4802 0.59461 0.08084 0.0
C356 C 0.47309 0.59803 0.05732 0.0
C357 C 0.49299 0.62057 0.04282 0.0
C358 C 0.52033 0.63915 0.05224 0.0
C359 C 0.52742 0.63561 0.07564 0.0
C360 C 0.49968 0.62117 0.13125 0.0
C361 C 0.512 0.64997 0.13639 0.0
C362 C 0.49647 0.65983 0.14819 0.0
C363 C 0.46814 0.64099 0.15514 0.0
C364 C 0.45622 0.61186 0.15102 0.0
C365 C 0.47184 0.60202 0.13917 0.0
C366 C 0.51704 0.58906 0.12299 0.0
C367 C 0.51455 0.56823 0.10662 0.0
C368 C 0.52089 0.5481 0.11386 0.0
C369 C 0.53023 0.54822 0.13754 0.0
C370 C 0.53259 0.56877 0.15395 0.0
C371 C 0.52633 0.589 0.14671 0.0
Co372 Co 0.63622 0.37926 0.38996 0.0
O373 O 0.65996 0.37839 0.36483 0.0
O374 O 0.67277 0.41438 0.38994 0.0
C375 C 0.62167 0.33607 0.40505 0.0
O376 O 0.61802 0.38747 0.41854 0.0
Co377 Co 0.57125 0.33651 0.38992 0.0
O378 O 0.57303 0.35126 0.4231 0.0
C379 C 0.59633 0.38338 0.35485 0.0
C380 C 0.67937 0.40345 0.37214 0.0
C381 C 0.59448 0.37443 0.43044 0.0
O382 O 0.62019 0.39479 0.36619 0.0
O383 O 0.57499 0.35902 0.36023 0.0
O384 O 0.64597 0.35787 0.41138 0.0
O385 O 0.60819 0.34056 0.38835 0.0
Co386 Co 0.28369 0.65589 0.57325 0.0
O387 O 0.31169 0.65968 0.59627 0.0
O388 O 0.28496 0.6218 0.57363 0.0
C389 C 0.31123 0.69829 0.5556 0.0
O390 O 0.25373 0.6442 0.5469 0.0
Co391 Co 0.26001 0.69552 0.5737 0.0
O392 O 0.24244 0.67726 0.54225 0.0
C393 C 0.24209 0.652 0.61142 0.0
C394 C 0.30503 0.63446 0.58966 0.0
C395 C 0.24076 0.65444 0.53565 0.0
O396 O 0.2537 0.64071 0.59943 0.0
O397 O 0.24453 0.67538 0.60538 0.0
O398 O 0.31357 0.67703 0.54945 0.0
O399 O 0.29427 0.69406 0.57344 0.0
Co400 Co 0.64924 0.27718 0.7194 0.0
O401 O 0.654 0.30562 0.69713 0.0
O402 O 0.61384 0.27664 0.71618 0.0
C403 C 0.68932 0.30564 0.74059 0.0
O404 O 0.63733 0.24595 0.74453 0.0
Co405 Co 0.69364 0.25931 0.7191 0.0
O406 O 0.67316 0.23812 0.74848 0.0
C407 C 0.65044 0.23814 0.68067 0.0
C408 C 0.62781 0.2977 0.70133 0.0
C409 C 0.649 0.23377 0.75485 0.0
O410 O 0.63815 0.24927 0.69181 0.0
O411 O 0.67407 0.24149 0.68766 0.0
O412 O 0.66604 0.30513 0.74522 0.0
O413 O 0.68839 0.29101 0.7219 0.0
Co414 Co 0.39333 0.65755 0.88889 0.0
O415 O 0.36911 0.65987 0.86544 0.0
O416 O 0.35502 0.625 0.89164 0.0
C417 C 0.41413 0.70253 0.9022 0.0
O418 O 0.41221 0.64883 0.91634 0.0
Co419 Co 0.45861 0.69395 0.882 0.0
O420 O 0.45957 0.67886 0.91418 0.0
C421 C 0.42496 0.64427 0.85094 0.0
C422 C 0.34862 0.6362 0.87406 0.0
C423 C 0.43755 0.65899 0.92461 0.0
O424 O 0.4033 0.63679 0.86464 0.0
O425 O 0.44845 0.66788 0.85336 0.0
O426 O 0.38945 0.68318 0.9104 0.0
O427 O 0.42407 0.69474 0.88461 0.0
Co428 Co 0.74573 0.38264 0.06922 0.0
O429 O 0.71914 0.3776 0.09405 0.0
O430 O 0.74467 0.4169 0.07308 0.0
C431 C 0.71597 0.34137 0.05028 0.0
O432 O 0.77445 0.39498 0.04141 0.0
Co433 Co 0.76726 0.34176 0.06535 0.0
O434 O 0.78197 0.35974 0.03348 0.0
C435 C 0.78908 0.38443 0.10435 0.0
C436 C 0.72531 0.40303 0.08948 0.0
C437 C 0.785 0.38344 0.02823 0.0
O438 O 0.7766 0.39592 0.0944 0.0
O439 O 0.78635 0.3614 0.09652 0.0
O440 O 0.71495 0.36373 0.04604 0.0
O441 O 0.73342 0.3439 0.06712 0.0
Co442 Co 0.37289 0.74305 0.22283 0.0
O443 O 0.37435 0.71682 0.20069 0.0
O444 O 0.40844 0.74468 0.22643 0.0
C445 C 0.32847 0.71289 0.23635 0.0
O446 O 0.37899 0.77154 0.24925 0.0
Co447 Co 0.3302 0.76265 0.21737 0.0
O448 O 0.34013 0.77459 0.25171 0.0
C449 C 0.38068 0.78683 0.18551 0.0
C450 C 0.39915 0.72512 0.20985 0.0
C451 C 0.36366 0.77941 0.26016 0.0
O452 O 0.39007 0.77363 0.19754 0.0
O453 O 0.35652 0.784 0.18971 0.0
O454 O 0.3499 0.71229 0.24516 0.0
O455 O 0.33418 0.73001 0.21848 0.0
H456 H 0.20002 0.6484 0.26978 0.0
H457 H 0.22694 0.59839 0.30706 0.0
H458 H 0.27474 0.62781 0.2907 0.0
H459 H 0.30922 0.66818 0.2664 0.0
H460 H 0.28256 0.71783 0.2282 0.0
H461 H 0.23451 0.68838 0.24448 0.0
C462 C 0.21639 0.64399 0.27428 0.0
C463 C 0.20988 0.62115 0.28951 0.0
C464 C 0.24393 0.66103 0.26478 0.0
C465 C 0.23125 0.61555 0.29507 0.0
C466 C 0.25867 0.6325 0.28588 0.0
C467 C 0.29291 0.6726 0.26169 0.0
C468 C 0.29945 0.69522 0.24624 0.0
C469 C 0.26528 0.65535 0.27081 0.0
C470 C 0.27804 0.70052 0.24009 0.0
C471 C 0.25056 0.68369 0.24939 0.0
H472 H 0.59352 0.22481 0.45947 0.0
H473 H 0.51374 0.1924 0.42236 0.0
H474 H 0.53143 0.23862 0.40375 0.0
H475 H 0.56963 0.28842 0.39834 0.0
H476 H 0.64883 0.32073 0.43658 0.0
H477 H 0.63135 0.27439 0.45439 0.0
C478 C 0.58014 0.2278 0.44707 0.0
C479 C 0.55247 0.20521 0.4421 0.0
C480 C 0.59031 0.25444 0.43675 0.0
C481 C 0.53512 0.20951 0.42645 0.0
C482 C 0.54523 0.2359 0.41581 0.0
C483 C 0.58304 0.28529 0.41057 0.0
C484 C 0.61051 0.30799 0.41609 0.0
C485 C 0.57277 0.25857 0.4209 0.0
C486 C 0.62759 0.30364 0.43205 0.0
C487 C 0.61764 0.27712 0.44221 0.0
H488 H 0.38141 0.5961 0.64043 0.0
H489 H 0.34063 0.52903 0.58749 0.0
H490 H 0.31384 0.54943 0.57217 0.0
H491 H 0.30174 0.58622 0.57403 0.0
H492 H 0.3434 0.65365 0.62659 0.0
H493 H 0.37019 0.63327 0.64172 0.0
C494 C 0.36702 0.58617 0.62527 0.0
C495 C 0.36316 0.5611 0.61508 0.0
C496 C 0.35167 0.59798 0.61658 0.0
C497 C 0.3439 0.54821 0.5958 0.0
C498 C 0.32859 0.5599 0.587 0.0
C499 C 0.3166 0.59639 0.58886 0.0
C500 C 0.32046 0.62137 0.59922 0.0
C501 C 0.33217 0.58468 0.59736 0.0
C502 C 0.33996 0.63439 0.6183 0.0
C503 C 0.35534 0.62278 0.62695 0.0
H504 H 0.79137 0.39682 0.80391 0.0
H505 H 0.83682 0.36722 0.76224 0.0
H506 H 0.79272 0.33247 0.74173 0.0
H507 H 0.74133 0.31169 0.73477 0.0
H508 H 0.69639 0.34136 0.77737 0.0
H509 H 0.74012 0.37479 0.7984 0.0
C510 C 0.7916 0.38283 0.79025 0.0
C511 C 0.81727 0.38473 0.78436 0.0
C512 C 0.76624 0.36289 0.77873 0.0
C513 C 0.81725 0.3661 0.76703 0.0
C514 C 0.79208 0.34631 0.75529 0.0
C515 C 0.74112 0.32536 0.74876 0.0
C516 C 0.71567 0.32415 0.75436 0.0
C517 C 0.76645 0.34464 0.76088 0.0
C518 C 0.71569 0.34189 0.77263 0.0
C519 C 0.74071 0.3611 0.78466 0.0
H520 H 0.49237 0.82987 0.93563 0.0
H521 H 0.41263 0.81223 0.96578 0.0
H522 H 0.38906 0.76406 0.95001 0.0
H523 H 0.39112 0.72669 0.92838 0.0
H524 H 0.47006 0.74399 0.89676 0.0
H525 H 0.49403 0.79247 0.91251 0.0
C526 C 0.46984 0.81543 0.93866 0.0
C527 C 0.45424 0.82462 0.95176 0.0
C528 C 0.45634 0.7877 0.92943 0.0
C529 C 0.42501 0.8058 0.95546 0.0
C530 C 0.41156 0.77819 0.94661 0.0
C531 C 0.4136 0.74105 0.92499 0.0
C532 C 0.42887 0.73178 0.9116 0.0
C533 C 0.42702 0.76888 0.9337 0.0
C534 C 0.45788 0.75068 0.90706 0.0
C535 C 0.47157 0.77837 0.91606 0.0
H536 H 0.63666 0.422 0.14381 0.0
H537 H 0.6628 0.4867 0.0898 0.0
H538 H 0.69875 0.47703 0.07478 0.0
H539 H 0.72033 0.44751 0.0754 0.0
H540 H 0.69288 0.3827 0.12974 0.0
H541 H 0.6601 0.39522 0.14631 0.0
C542 C 0.65021 0.43395 0.12871 0.0
C543 C 0.64682 0.45468 0.11765 0.0
C544 C 0.67065 0.42828 0.12027 0.0
C545 C 0.66497 0.47053 0.09852 0.0
C546 C 0.68545 0.46496 0.08992 0.0
C547 C 0.7075 0.4365 0.09111 0.0
C548 C 0.70893 0.41407 0.1012 0.0
C549 C 0.68822 0.44356 0.10045 0.0
C550 C 0.69208 0.39991 0.1215 0.0
C551 C 0.67324 0.40699 0.13099 0.0
H552 H 0.36623 0.81491 0.50157 0.0
H553 H 0.44166 0.8113 0.51261 0.0
H554 H 0.41335 0.76562 0.53192 0.0
H555 H 0.36707 0.72608 0.54541 0.0
H556 H 0.29297 0.73244 0.5399 0.0
H557 H 0.32097 0.77795 0.51918 0.0
C558 C 0.37677 0.80461 0.50859 0.0
C559 C 0.4062 0.81667 0.50495 0.0
C560 C 0.36052 0.77868 0.52069 0.0
C561 C 0.41901 0.80239 0.51417 0.0
C562 C 0.40286 0.77625 0.52551 0.0
C563 C 0.35715 0.73751 0.53962 0.0
C564 C 0.32806 0.72595 0.54375 0.0
C565 C 0.37357 0.76405 0.52862 0.0
C566 C 0.31538 0.74103 0.53673 0.0
C567 C 0.33137 0.76699 0.52491 0.0
H568 H 0.60324 0.38407 0.65144 0.0
H569 H 0.52934 0.34355 0.69739 0.0
H570 H 0.54306 0.3106 0.71182 0.0
H571 H 0.5779 0.29506 0.71265 0.0
H572 H 0.65121 0.33647 0.6657 0.0
H573 H 0.63582 0.3671 0.65035 0.0
C574 C 0.5902 0.36808 0.6647 0.0
C575 C 0.56563 0.3665 0.67368 0.0
C576 C 0.5981 0.3493 0.67269 0.0
C577 C 0.54848 0.34524 0.69035 0.0
C578 C 0.55634 0.32646 0.6986 0.0
C579 C 0.59025 0.31056 0.69886 0.0
C580 C 0.61581 0.31356 0.69052 0.0
C581 C 0.58133 0.32847 0.69006 0.0
C582 C 0.63159 0.33378 0.67263 0.0
C583 C 0.62285 0.35141 0.66381 0.0
H584 H 0.23431 0.59762 0.81896 0.0
H585 H 0.20008 0.53562 0.87596 0.0
H586 H 0.24775 0.55548 0.89296 0.0
H587 H 0.29944 0.59067 0.89142 0.0
H588 H 0.33245 0.6528 0.83439 0.0
H589 H 0.28496 0.63282 0.81783 0.0
C590 C 0.23712 0.5887 0.83535 0.0
C591 C 0.21358 0.5653 0.84625 0.0
C592 C 0.26446 0.6002 0.84499 0.0
C593 C 0.21785 0.55357 0.86712 0.0
C594 C 0.24509 0.56495 0.87688 0.0
C595 C 0.2962 0.59975 0.87535 0.0
C596 C 0.31951 0.62318 0.86418 0.0
C597 C 0.26862 0.58823 0.8659 0.0
C598 C 0.31494 0.63479 0.84341 0.0
C599 C 0.28775 0.6234 0.83389 0.0
H600 H 0.60834 0.2307 0.01161 0.0
H601 H 0.67101 0.20863 0.99599 0.0
H602 H 0.70753 0.2523 0.01514 0.0
H603 H 0.72247 0.29847 0.03452 0.0
H604 H 0.66061 0.32262 0.04408 0.0
H605 H 0.6233 0.27696 0.0283 0.0
C606 C 0.63 0.23544 0.01184 0.0
C607 C 0.63656 0.21605 0.00211 0.0
C608 C 0.65128 0.26131 0.02164 0.0
C609 C 0.66485 0.22261 0.00362 0.0
C610 C 0.68598 0.24787 0.01435 0.0
C611 C 0.70078 0.29357 0.03311 0.0
C612 C 0.69417 0.31371 0.0404 0.0
C613 C 0.67952 0.26755 0.02319 0.0
C614 C 0.66614 0.30742 0.03837 0.0
C615 C 0.6448 0.2813 0.02946 0.0
H616 H 0.48405 0.68411 0.18755 0.0
H617 H 0.41297 0.62309 0.14429 0.0
H618 H 0.38538 0.64348 0.15756 0.0
H619 H 0.382 0.67983 0.18011 0.0
H620 H 0.45325 0.74136 0.22287 0.0
H621 H 0.48035 0.71993 0.21073 0.0
C622 C 0.46254 0.6753 0.18098 0.0
C623 C 0.45068 0.65207 0.16492 0.0
C624 C 0.4469 0.68742 0.18837 0.0
C625 C 0.42257 0.64067 0.15692 0.0
C626 C 0.40684 0.65251 0.16431 0.0
C627 C 0.40348 0.6886 0.18673 0.0
C628 C 0.41564 0.71228 0.20225 0.0
C629 C 0.41889 0.67608 0.1798 0.0
C630 C 0.44341 0.72321 0.21084 0.0
C631 C 0.45891 0.71094 0.20394 0.0
H632 H 0.7912 0.44233 0.31301 0.0
H633 H 0.82813 0.46973 0.38397 0.0
H634 H 0.78179 0.45743 0.40055 0.0
H635 H 0.72989 0.43492 0.39533 0.0
H636 H 0.69275 0.40278 0.32505 0.0
H637 H 0.73992 0.42115 0.30756 0.0
C638 C 0.78912 0.44608 0.332 0.0
C639 C 0.81292 0.45713 0.34726 0.0
C640 C 0.76231 0.43795 0.34148 0.0
C641 C 0.81 0.46134 0.37194 0.0
C642 C 0.78355 0.45426 0.38139 0.0
C643 C 0.73229 0.43248 0.37611 0.0
C644 C 0.70804 0.41774 0.3614 0.0
C645 C 0.75942 0.44202 0.36642 0.0
C646 C 0.71121 0.41411 0.33665 0.0
C647 C 0.73813 0.42454 0.32668 0.0
H648 H 0.16232 0.5709 0.45315 0.0
H649 H 0.16637 0.64663 0.42876 0.0
H650 H 0.19486 0.67224 0.464 0.0
H651 H 0.22055 0.67393 0.50082 0.0
H652 H 0.21965 0.59923 0.52333 0.0
H653 H 0.18884 0.57282 0.48928 0.0
C654 C 0.16962 0.59308 0.45529 0.0
C655 C 0.16201 0.60664 0.43811 0.0
C656 C 0.18693 0.60806 0.47517 0.0
C657 C 0.17127 0.6353 0.44176 0.0
C658 C 0.18792 0.65015 0.46183 0.0
C659 C 0.21358 0.65185 0.49833 0.0
C660 C 0.22245 0.63863 0.51467 0.0
C661 C 0.19611 0.63682 0.47852 0.0
C662 C 0.21334 0.61004 0.511 0.0
C663 C 0.1956 0.59486 0.49157 0.0
H664 H 0.60356 0.15465 0.5909 0.0
H665 H 0.53986 0.17723 0.59363 0.0
H666 H 0.56306 0.20722 0.62882 0.0
H667 H 0.60197 0.228 0.65832 0.0
H668 H 0.66674 0.20686 0.65467 0.0
H669 H 0.64289 0.17597 0.62006 0.0
C670 C 0.59482 0.16627 0.59905 0.0
C671 C 0.56984 0.16345 0.58958 0.0
C672 C 0.6086 0.18399 0.61905 0.0
C673 C 0.5587 0.17844 0.60072 0.0
C674 C 0.57212 0.19587 0.62075 0.0
C675 C 0.61095 0.21668 0.64999 0.0
C676 C 0.63619 0.21988 0.6592 0.0
C677 C 0.59715 0.19891 0.63001 0.0
C678 C 0.64742 0.20498 0.64802 0.0
C679 C 0.63375 0.1872 0.62822 0.0
H680 H 0.39928 0.54586 0.77784 0.0
H681 H 0.46786 0.61579 0.73897 0.0
H682 H 0.47369 0.64773 0.77184 0.0
H683 H 0.45797 0.65651 0.81073 0.0
H684 H 0.38673 0.58746 0.84788 0.0
H685 H 0.38283 0.55477 0.81619 0.0
C686 C 0.41534 0.56811 0.77634 0.0
C687 C 0.43311 0.57816 0.75579 0.0
C688 C 0.41794 0.5867 0.79493 0.0
C689 C 0.45419 0.6071 0.75465 0.0
C690 C 0.45737 0.62556 0.77337 0.0
C691 C 0.44166 0.63429 0.81196 0.0
C692 C 0.42271 0.62449 0.83169 0.0
C693 C 0.4392 0.61565 0.79348 0.0
C694 C 0.40153 0.59564 0.83285 0.0
C695 C 0.39932 0.57689 0.81477 0.0
H696 H 0.86428 0.46303 0.94402 0.0
H697 H 0.85475 0.38417 0.92057 0.0
H698 H 0.82512 0.36046 0.95552 0.0
H699 H 0.80122 0.36144 0.99229 0.0
H700 H 0.80793 0.43905 0.01532 0.0
H701 H 0.83856 0.46358 0.98052 0.0
C702 C 0.85558 0.44062 0.9464 0.0
C703 C 0.86228 0.42566 0.92964 0.0
C704 C 0.83774 0.42672 0.96634 0.0
C705 C 0.85085 0.39661 0.93335 0.0
C706 C 0.83352 0.38284 0.95325 0.0
C707 C 0.80933 0.38375 0.98979 0.0
C708 C 0.80233 0.39837 0.00654 0.0
C709 C 0.82681 0.39765 0.96981 0.0
C710 C 0.81287 0.42721 0.00273 0.0
C711 C 0.83051 0.44128 0.98288 0.0
H712 H 0.46625 0.85819 0.10157 0.0
H713 H 0.40886 0.88837 0.09506 0.0
H714 H 0.381 0.85891 0.12915 0.0
H715 H 0.37209 0.82356 0.15994 0.0
H716 H 0.42978 0.79366 0.16666 0.0
H717 H 0.45852 0.82435 0.13356 0.0
C718 C 0.44794 0.85872 0.10786 0.0
C719 C 0.43965 0.87546 0.09572 0.0
C720 C 0.43196 0.84167 0.12745 0.0
C721 C 0.41554 0.87545 0.10389 0.0
C722 C 0.39963 0.85867 0.12342 0.0
C723 C 0.39096 0.82372 0.15423 0.0
C724 C 0.39859 0.80613 0.16579 0.0
C725 C 0.40745 0.84144 0.13516 0.0
C726 C 0.42329 0.8069 0.15816 0.0
C727 C 0.43978 0.82445 0.13918 0.0
H728 H 0.59991 0.46473 0.2734 0.0
H729 H 0.5297 0.38538 0.24668 0.0
H730 H 0.53275 0.36131 0.28194 0.0
H731 H 0.5566 0.36183 0.31924 0.0
H732 H 0.62945 0.43987 0.34452 0.0
H733 H 0.62454 0.46507 0.31057 0.0
C734 C 0.58537 0.44214 0.2751 0.0
C735 C 0.56443 0.42716 0.25724 0.0
C736 C 0.58788 0.428 0.29509 0.0
C737 C 0.54558 0.39787 0.26024 0.0
C738 C 0.5475 0.38388 0.28033 0.0
C739 C 0.57135 0.38439 0.31746 0.0
C740 C 0.59332 0.3989 0.33448 0.0
C741 C 0.56872 0.39865 0.29772 0.0
C742 C 0.61238 0.42811 0.33166 0.0
C743 C 0.60955 0.44257 0.31227 0.0
H744 H 0.3887 0.83485 0.36386 0.0
H745 H 0.47009 0.89153 0.33059 0.0
H746 H 0.45399 0.8639 0.29331 0.0
H747 H 0.41654 0.82374 0.26975 0.0
H748 H 0.33365 0.77107 0.30143 0.0
H749 H 0.35042 0.79748 0.33958 0.0
C750 C 0.40288 0.84174 0.3484 0.0
C751 C 0.43077 0.86536 0.35041 0.0
C752 C 0.39317 0.82639 0.32664 0.0
C753 C 0.44876 0.87317 0.33004 0.0
C754 C 0.4395 0.85749 0.30854 0.0
C755 C 0.40227 0.81809 0.28509 0.0
C756 C 0.37404 0.79542 0.28302 0.0
C757 C 0.41179 0.83398 0.30665 0.0
C758 C 0.3555 0.78847 0.30275 0.0
C759 C 0.36508 0.80354 0.32451 0.0
H760 H 0.59518 0.44596 0.52026 0.0
H761 H 0.52219 0.36478 0.53931 0.0
H762 H 0.52789 0.34422 0.50238 0.0
H763 H 0.55384 0.34871 0.46506 0.0
H764 H 0.62861 0.4288 0.44695 0.0
H765 H 0.62241 0.45 0.48355 0.0
C766 C 0.58065 0.42369 0.51655 0.0
C767 C 0.55809 0.40715 0.53265 0.0
C768 C 0.5845 0.41165 0.49552 0.0
C769 C 0.53932 0.37838 0.52712 0.0
C770 C 0.54274 0.36643 0.50608 0.0
C771 C 0.56882 0.37083 0.46906 0.0
C772 C 0.5916 0.38714 0.45316 0.0
C773 C 0.56526 0.38283 0.49018 0.0
C774 C 0.61093 0.41569 0.45886 0.0
C775 C 0.60733 0.42788 0.47975 0.0
H776 H 0.17588 0.6087 0.71039 0.0
H777 H 0.1527 0.52807 0.67886 0.0
H778 H 0.18099 0.5518 0.64304 0.0
H779 H 0.21272 0.59552 0.62062 0.0
H780 H 0.23283 0.67567 0.65093 0.0
H781 H 0.20493 0.65195 0.68702 0.0
C782 C 0.17649 0.59616 0.69555 0.0
C783 C 0.16221 0.56654 0.6976 0.0
C784 C 0.19235 0.60989 0.67472 0.0
C785 C 0.16385 0.5509 0.67817 0.0
C786 C 0.17993 0.56444 0.65754 0.0
C787 C 0.21103 0.60778 0.63517 0.0
C788 C 0.22498 0.63733 0.63315 0.0
C789 C 0.19446 0.59394 0.6557 0.0
C790 C 0.22226 0.65289 0.652 0.0
C791 C 0.20634 0.63935 0.67266 0.0
H792 H 0.60698 0.14662 0.84061 0.0
H793 H 0.55658 0.18326 0.85647 0.0
H794 H 0.57387 0.21148 0.81958 0.0
H795 H 0.60652 0.2287 0.78439 0.0
H796 H 0.65837 0.19312 0.77037 0.0
H797 H 0.6376 0.16199 0.80497 0.0
C798 C 0.59977 0.16078 0.83603 0.0
C799 C 0.58067 0.1629 0.85143 0.0
C800 C 0.6103 0.17745 0.81515 0.0
C801 C 0.57108 0.18095 0.84487 0.0
C802 C 0.58117 0.19733 0.82386 0.0
C803 C 0.61302 0.21393 0.78879 0.0
C804 C 0.63421 0.21354 0.77489 0.0
C805 C 0.60123 0.19616 0.80907 0.0
C806 C 0.64241 0.19423 0.78089 0.0
C807 C 0.63049 0.1763 0.80067 0.0
H808 H 0.44276 0.61456 0.02833 0.0
H809 H 0.52585 0.63767 0.00201 0.0
H810 H 0.51559 0.65086 0.96312 0.0
H811 H 0.48425 0.65823 0.93733 0.0
H812 H 0.40038 0.63349 0.96236 0.0
H813 H 0.40951 0.61793 0.00088 0.0
C814 C 0.45845 0.62197 0.01397 0.0
C815 C 0.48525 0.62552 0.01832 0.0
C816 C 0.45232 0.62932 0.99145 0.0
C817 C 0.50533 0.63537 0.99945 0.0
C818 C 0.49944 0.64279 0.97712 0.0
C819 C 0.46791 0.64936 0.95118 0.0
C820 C 0.44182 0.64736 0.94714 0.0
C821 C 0.47324 0.64035 0.9731 0.0
C822 C 0.42066 0.63531 0.96507 0.0
C823 C 0.42592 0.62651 0.98711 0.0
H824 H 0.85308 0.45175 0.19939 0.0
H825 H 0.87311 0.38656 0.20197 0.0
H826 H 0.84858 0.36727 0.16349 0.0
H827 H 0.81946 0.36746 0.13023 0.0
H828 H 0.79877 0.43231 0.12783 0.0
H829 H 0.82579 0.45329 0.16492 0.0
C830 C 0.85248 0.43361 0.19131 0.0
C831 C 0.86481 0.42055 0.20358 0.0
C832 C 0.83807 0.42244 0.16928 0.0
C833 C 0.86351 0.39681 0.19303 0.0
C834 C 0.84953 0.3858 0.17101 0.0
C835 C 0.82093 0.38627 0.13769 0.0
C836 C 0.80688 0.39811 0.12619 0.0
C837 C 0.83634 0.39817 0.15916 0.0
C838 C 0.80924 0.4226 0.13621 0.0
C839 C 0.8247 0.43466 0.15749 0.0
loop_
_geom_bond_atom_site_label_1
_geom_bond_atom_site_label_2
_geom_bond_distance
_geom_bond_site_symmetry_2
_ccdc_geom_bond_type
H0 C27 0.929 . S
N1 C26 1.433 . S
N1 C32 1.435 . S
N1 C38 1.423 . S
H2 C28 0.930 . S
H3 C31 0.931 . S
H4 C30 0.929 . S
H5 C33 0.930 . S
H6 C34 0.932 . S
H7 C37 0.929 . S
H8 C36 0.931 . S
H9 C39 0.929 . S
H10 C43 0.932 . S
H11 C40 0.931 . S
H12 C42 0.929 . S
H13 C45 0.929 . S
H14 C46 0.930 . S
H15 C48 0.929 . S
H16 C49 0.931 . S
H17 C51 0.930 . S
H18 C52 0.932 . S
H19 C54 0.931 . S
H20 C55 0.929 . S
H21 C57 0.929 . S
H22 C58 0.931 . S
H23 C60 0.929 . S
N24 C44 1.433 . S
N24 C50 1.435 . S
N24 C56 1.423 . S
H25 C61 0.932 . S
C26 N1 1.433 . S
C26 C27 1.363 . S
C26 C31 1.370 . S
C27 H0 0.929 . S
C27 C26 1.363 . S
C27 C28 1.385 . S
C28 H2 0.930 . S
C28 C27 1.385 . S
C28 C29 1.357 . S
C29 C28 1.357 . S
C29 C30 1.406 . S
C30 H4 0.929 . S
C30 C29 1.406 . S
C30 C31 1.391 . S
C31 H3 0.931 . S
C31 C26 1.370 . S
C31 C30 1.391 . S
C32 N1 1.435 . S
C32 C33 1.358 . S
C32 C37 1.371 . S
C33 H5 0.930 . S
C33 C32 1.358 . S
C33 C34 1.405 . S
C34 H6 0.932 . S
C34 C33 1.405 . S
C34 C35 1.383 . S
C35 C34 1.383 . S
C35 C36 1.393 . S
C36 H8 0.931 . S
C36 C35 1.393 . S
C36 C37 1.382 . S
C37 H7 0.929 . S
C37 C32 1.371 . S
C37 C36 1.382 . S
C38 N1 1.423 . S
C38 C39 1.362 . S
C38 C43 1.388 . S
C39 H9 0.929 . S
C39 C38 1.362 . S
C39 C40 1.376 . S
C40 H11 0.931 . S
C40 C39 1.376 . S
C40 C41 1.396 . S
C41 C40 1.396 . S
C41 C42 1.348 . S
C41 C59 1.472 1_455 S
C42 H12 0.929 . S
C42 C41 1.348 . S
C42 C43 1.443 . S
C43 H10 0.932 . S
C43 C38 1.388 . S
C43 C42 1.443 . S
C44 N24 1.433 . S
C44 C45 1.363 . S
C44 C49 1.370 . S
C45 H13 0.929 . S
C45 C44 1.363 . S
C45 C46 1.385 . S
C46 H14 0.930 . S
C46 C45 1.385 . S
C46 C47 1.357 . S
C47 C46 1.357 . S
C47 C48 1.406 . S
C48 H15 0.929 . S
C48 C47 1.406 . S
C48 C49 1.391 . S
C49 H16 0.931 . S
C49 C44 1.370 . S
C49 C48 1.391 . S
C50 N24 1.435 . S
C50 C51 1.358 . S
C50 C55 1.371 . S
C51 H17 0.930 . S
C51 C50 1.358 . S
C51 C52 1.405 . S
C52 H18 0.932 . S
C52 C51 1.405 . S
C52 C53 1.383 . S
C53 C52 1.383 . S
C53 C54 1.393 . S
C54 H19 0.931 . S
C54 C53 1.393 . S
C54 C55 1.382 . S
C55 H20 0.929 . S
C55 C50 1.371 . S
C55 C54 1.382 . S
C56 N24 1.423 . S
C56 C57 1.362 . S
C56 C61 1.388 . S
C57 H21 0.929 . S
C57 C56 1.362 . S
C57 C58 1.376 . S
C58 H22 0.931 . S
C58 C57 1.376 . S
C58 C59 1.396 . S
C59 C41 1.472 1_655 S
C59 C58 1.396 . S
C59 C60 1.348 . S
C60 H23 0.929 . S
C60 C59 1.348 . S
C60 C61 1.443 . S
C61 H25 0.932 . S
C61 C56 1.388 . S
C61 C60 1.443 . S
H62 C89 0.929 . S
N63 C88 1.433 . S
N63 C94 1.435 . S
N63 C100 1.423 . S
H64 C90 0.930 . S
H65 C93 0.931 . S
H66 C92 0.929 . S
H67 C95 0.930 . S
H68 C96 0.932 . S
H69 C99 0.929 . S
H70 C98 0.931 . S
H71 C101 0.929 . S
H72 C105 0.932 . S
H73 C102 0.931 . S
H74 C104 0.929 1_545 S
H75 C107 0.929 . S
H76 C108 0.930 . S
H77 C110 0.929 . S
H78 C111 0.931 . S
H79 C113 0.930 . S
H80 C114 0.932 . S
H81 C116 0.931 . S
H82 C117 0.929 . S
H83 C119 0.929 . S
H84 C120 0.931 . S
H85 C122 0.929 . S
N86 C106 1.433 . S
N86 C112 1.435 . S
N86 C118 1.423 . S
H87 C123 0.932 . S
C88 N63 1.433 . S
C88 C89 1.363 . S
C88 C93 1.370 . S
C89 H62 0.929 . S
C89 C88 1.363 . S
C89 C90 1.385 . S
C90 H64 0.930 . S
C90 C89 1.385 . S
C90 C91 1.357 . S
C91 C90 1.357 . S
C91 C92 1.406 . S
C92 H66 0.929 . S
C92 C91 1.406 . S
C92 C93 1.391 . S
C93 H65 0.931 . S
C93 C88 1.370 . S
C93 C92 1.391 . S
C94 N63 1.435 . S
C94 C95 1.358 . S
C94 C99 1.371 . S
C95 H67 0.930 . S
C95 C94 1.358 . S
C95 C96 1.405 . S
C96 H68 0.932 . S
C96 C95 1.405 . S
C96 C97 1.383 . S
C97 C96 1.383 . S
C97 C98 1.393 . S
C98 H70 0.931 . S
C98 C97 1.393 . S
C98 C99 1.382 . S
C99 H69 0.929 . S
C99 C94 1.371 . S
C99 C98 1.382 . S
C100 N63 1.423 . S
C100 C101 1.362 . S
C100 C105 1.388 . S
C101 H71 0.929 . S
C101 C100 1.362 . S
C101 C102 1.376 . S
C102 H73 0.931 . S
C102 C101 1.376 . S
C102 C103 1.396 1_565 S
C103 C102 1.396 1_545 S
C103 C104 1.348 1_545 S
C103 C121 1.472 . S
C104 H74 0.929 1_565 S
C104 C103 1.348 1_565 S
C104 C105 1.443 . S
C105 H72 0.932 . S
C105 C100 1.388 . S
C105 C104 1.443 . S
C106 N86 1.433 . S
C106 C107 1.363 . S
C106 C111 1.370 . S
C107 H75 0.929 . S
C107 C106 1.363 . S
C107 C108 1.385 . S
C108 H76 0.930 . S
C108 C107 1.385 . S
C108 C109 1.357 . S
C109 C108 1.357 . S
C109 C110 1.406 . S
C110 H77 0.929 . S
C110 C109 1.406 . S
C110 C111 1.391 . S
C111 H78 0.931 . S
C111 C106 1.370 . S
C111 C110 1.391 . S
C112 N86 1.435 . S
C112 C113 1.358 . S
C112 C117 1.371 . S
C113 H79 0.930 . S
C113 C112 1.358 . S
C113 C114 1.405 . S
C114 H80 0.932 . S
C114 C113 1.405 . S
C114 C115 1.383 . S
C115 C114 1.383 . S
C115 C116 1.393 . S
C116 H81 0.931 . S
C116 C115 1.393 . S
C116 C117 1.382 . S
C117 H82 0.929 . S
C117 C112 1.371 . S
C117 C116 1.382 . S
C118 N86 1.423 . S
C118 C119 1.362 . S
C118 C123 1.388 . S
C119 H83 0.929 . S
C119 C118 1.362 . S
C119 C120 1.376 . S
C120 H84 0.931 . S
C120 C119 1.376 . S
C120 C121 1.396 . S
C121 C103 1.472 . S
C121 C120 1.396 . S
C121 C122 1.348 . S
C122 H85 0.929 . S
C122 C121 1.348 . S
C122 C123 1.443 . S
C123 H87 0.932 . S
C123 C118 1.388 . S
C123 C122 1.443 . S
H124 C151 0.929 . S
N125 C150 1.433 . S
N125 C156 1.435 . S
N125 C162 1.423 . S
H126 C152 0.930 . S
H127 C155 0.931 . S
H128 C154 0.929 . S
H129 C157 0.930 . S
H130 C158 0.932 . S
H131 C161 0.929 . S
H132 C160 0.931 . S
H133 C163 0.929 . S
H134 C167 0.932 . S
H135 C164 0.931 . S
H136 C166 0.929 . S
H137 C169 0.929 . S
H138 C170 0.930 . S
H139 C172 0.929 . S
H140 C173 0.931 . S
H141 C175 0.930 . S
H142 C176 0.932 . S
H143 C178 0.931 . S
H144 C179 0.929 . S
H145 C181 0.929 . S
H146 C182 0.931 . S
H147 C184 0.929 . S
N148 C168 1.433 . S
N148 C174 1.435 . S
N148 C180 1.423 . S
H149 C185 0.932 . S
C150 N125 1.433 . S
C150 C151 1.363 . S
C150 C155 1.370 . S
C151 H124 0.929 . S
C151 C150 1.363 . S
C151 C152 1.385 . S
C152 H126 0.930 . S
C152 C151 1.385 . S
C152 C153 1.357 . S
C153 C152 1.357 . S
C153 C154 1.406 . S
C154 H128 0.929 . S
C154 C153 1.406 . S
C154 C155 1.391 . S
C155 H127 0.931 . S
C155 C150 1.370 . S
C155 C154 1.391 . S
C156 N125 1.435 . S
C156 C157 1.358 . S
C156 C161 1.371 . S
C157 H129 0.930 . S
C157 C156 1.358 . S
C157 C158 1.405 . S
C158 H130 0.932 . S
C158 C157 1.405 . S
C158 C159 1.383 . S
C159 C158 1.383 . S
C159 C160 1.393 . S
C160 H132 0.931 . S
C160 C159 1.393 . S
C160 C161 1.382 . S
C161 H131 0.929 . S
C161 C156 1.371 . S
C161 C160 1.382 . S
C162 N125 1.423 . S
C162 C163 1.362 . S
C162 C167 1.388 . S
C163 H133 0.929 . S
C163 C162 1.362 . S
C163 C164 1.376 . S
C164 H135 0.931 . S
C164 C163 1.376 . S
C164 C165 1.396 . S
C165 C164 1.396 . S
C165 C166 1.348 . S
C165 C183 1.472 . S
C166 H136 0.929 . S
C166 C165 1.348 . S
C166 C167 1.443 . S
C167 H134 0.932 . S
C167 C162 1.388 . S
C167 C166 1.443 . S
C168 N148 1.433 . S
C168 C169 1.363 . S
C168 C173 1.370 . S
C169 H137 0.929 . S
C169 C168 1.363 . S
C169 C170 1.385 . S
C170 H138 0.930 . S
C170 C169 1.385 . S
C170 C171 1.357 . S
C171 C170 1.357 . S
C171 C172 1.406 . S
C172 H139 0.929 . S
C172 C171 1.406 . S
C172 C173 1.391 . S
C173 H140 0.931 . S
C173 C168 1.370 . S
C173 C172 1.391 . S
C174 N148 1.435 . S
C174 C175 1.358 . S
C174 C179 1.371 . S
C175 H141 0.930 . S
C175 C174 1.358 . S
C175 C176 1.405 . S
C176 H142 0.932 . S
C176 C175 1.405 . S
C176 C177 1.383 . S
C177 C176 1.383 . S
C177 C178 1.393 . S
C178 H143 0.931 . S
C178 C177 1.393 . S
C178 C179 1.382 . S
C179 H144 0.929 . S
C179 C174 1.371 . S
C179 C178 1.382 . S
C180 N148 1.423 . S
C180 C181 1.362 . S
C180 C185 1.388 . S
C181 H145 0.929 . S
C181 C180 1.362 . S
C181 C182 1.376 . S
C182 H146 0.931 . S
C182 C181 1.376 . S
C182 C183 1.396 . S
C183 C165 1.472 . S
C183 C182 1.396 . S
C183 C184 1.348 . S
C184 H147 0.929 . S
C184 C183 1.348 . S
C184 C185 1.443 . S
C185 H149 0.932 . S
C185 C180 1.388 . S
C185 C184 1.443 . S
H186 C213 0.929 . S
N187 C212 1.433 . S
N187 C218 1.435 . S
N187 C224 1.423 . S
H188 C214 0.930 . S
H189 C217 0.931 . S
H190 C216 0.929 . S
H191 C219 0.930 . S
H192 C220 0.932 . S
H193 C223 0.929 . S
H194 C222 0.931 . S
H195 C225 0.929 . S
H196 C229 0.932 . S
H197 C226 0.931 . S
H198 C228 0.929 . S
H199 C231 0.929 . S
H200 C232 0.930 . S
H201 C234 0.929 . S
H202 C235 0.931 . S
H203 C237 0.930 . S
H204 C238 0.932 . S
H205 C240 0.931 . S
H206 C241 0.929 . S
H207 C243 0.929 . S
H208 C244 0.931 . S
H209 C246 0.929 . S
N210 C230 1.433 . S
N210 C236 1.435 . S
N210 C242 1.423 . S
H211 C247 0.932 . S
C212 N187 1.433 . S
C212 C213 1.363 . S
C212 C217 1.370 . S
C213 H186 0.929 . S
C213 C212 1.363 . S
C213 C214 1.385 . S
C214 H188 0.930 . S
C214 C213 1.385 . S
C214 C215 1.357 . S
C215 C214 1.357 . S
C215 C216 1.406 . S
C216 H190 0.929 . S
C216 C215 1.406 . S
C216 C217 1.391 . S
C217 H189 0.931 . S
C217 C212 1.370 . S
C217 C216 1.391 . S
C218 N187 1.435 . S
C218 C219 1.358 . S
C218 C223 1.371 . S
C219 H191 0.930 . S
C219 C218 1.358 . S
C219 C220 1.405 . S
C220 H192 0.932 . S
C220 C219 1.405 . S
C220 C221 1.383 . S
C221 C220 1.383 . S
C221 C222 1.393 . S
C222 H194 0.931 . S
C222 C221 1.393 . S
C222 C223 1.382 . S
C223 H193 0.929 . S
C223 C218 1.371 . S
C223 C222 1.382 . S
C224 N187 1.423 . S
C224 C225 1.362 . S
C224 C229 1.388 . S
C225 H195 0.929 . S
C225 C224 1.362 . S
C225 C226 1.376 . S
C226 H197 0.931 . S
C226 C225 1.376 . S
C226 C227 1.396 . S
C227 C226 1.396 . S
C227 C228 1.348 . S
C227 C245 1.472 1_455 S
C228 H198 0.929 . S
C228 C227 1.348 . S
C228 C229 1.443 . S
C229 H196 0.932 . S
C229 C224 1.388 . S
C229 C228 1.443 . S
C230 N210 1.433 . S
C230 C231 1.363 . S
C230 C235 1.370 . S
C231 H199 0.929 . S
C231 C230 1.363 . S
C231 C232 1.385 . S
C232 H200 0.930 . S
C232 C231 1.385 . S
C232 C233 1.357 . S
C233 C232 1.357 . S
C233 C234 1.406 . S
C234 H201 0.929 . S
C234 C233 1.406 . S
C234 C235 1.391 . S
C235 H202 0.931 . S
C235 C230 1.370 . S
C235 C234 1.391 . S
C236 N210 1.435 . S
C236 C237 1.358 . S
C236 C241 1.371 . S
C237 H203 0.930 . S
C237 C236 1.358 . S
C237 C238 1.405 . S
C238 H204 0.932 . S
C238 C237 1.405 . S
C238 C239 1.383 . S
C239 C238 1.383 . S
C239 C240 1.393 . S
C240 H205 0.931 . S
C240 C239 1.393 . S
C240 C241 1.382 . S
C241 H206 0.929 . S
C241 C236 1.371 . S
C241 C240 1.382 . S
C242 N210 1.423 . S
C242 C243 1.362 . S
C242 C247 1.388 . S
C243 H207 0.929 . S
C243 C242 1.362 . S
C243 C244 1.376 . S
C244 H208 0.931 . S
C244 C243 1.376 . S
C244 C245 1.396 . S
C245 C227 1.472 1_655 S
C245 C244 1.396 . S
C245 C246 1.348 . S
C246 H209 0.929 . S
C246 C245 1.348 . S
C246 C247 1.443 . S
C247 H211 0.932 . S
C247 C242 1.388 . S
C247 C246 1.443 . S
H248 C275 0.929 . S
N249 C274 1.433 . S
N249 C280 1.435 . S
N249 C286 1.423 . S
H250 C276 0.930 . S
H251 C279 0.931 . S
H252 C278 0.929 . S
H253 C281 0.930 . S
H254 C282 0.932 . S
H255 C285 0.929 . S
H256 C284 0.931 . S
H257 C287 0.929 . S
H258 C291 0.932 . S
H259 C288 0.931 . S
H260 C290 0.929 . S
H261 C293 0.929 . S
H262 C294 0.930 . S
H263 C296 0.929 . S
H264 C297 0.931 . S
H265 C299 0.930 1_554 S
H266 C300 0.932 . S
H267 C302 0.931 . S
H268 C303 0.929 . S
H269 C305 0.929 . S
H270 C306 0.931 1_554 S
H271 C308 0.929 . S
N272 C292 1.433 . S
N272 C298 1.435 1_554 S
N272 C304 1.423 1_554 S
H273 C309 0.932 . S
C274 N249 1.433 . S
C274 C275 1.363 . S
C274 C279 1.370 . S
C275 H248 0.929 . S
C275 C274 1.363 . S
C275 C276 1.385 . S
C276 H250 0.930 . S
C276 C275 1.385 . S
C276 C277 1.357 1_556 S
C277 C276 1.357 1_554 S
C277 C278 1.406 . S
C278 H252 0.929 . S
C278 C277 1.406 . S
C278 C279 1.391 1_554 S
C279 H251 0.931 . S
C279 C274 1.370 . S
C279 C278 1.391 1_556 S
C280 N249 1.435 . S
C280 C281 1.358 . S
C280 C285 1.371 . S
C281 H253 0.930 . S
C281 C280 1.358 . S
C281 C282 1.405 . S
C282 H254 0.932 . S
C282 C281 1.405 . S
C282 C283 1.383 . S
C283 C282 1.383 . S
C283 C284 1.393 . S
C284 H256 0.931 . S
C284 C283 1.393 . S
C284 C285 1.382 . S
C285 H255 0.929 . S
C285 C280 1.371 . S
C285 C284 1.382 . S
C286 N249 1.423 . S
C286 C287 1.362 . S
C286 C291 1.388 . S
C287 H257 0.929 . S
C287 C286 1.362 . S
C287 C288 1.376 . S
C288 H259 0.931 . S
C288 C287 1.376 . S
C288 C289 1.396 . S
C289 C288 1.396 . S
C289 C290 1.348 . S
C289 C307 1.472 1_545 S
C290 H260 0.929 . S
C290 C289 1.348 . S
C290 C291 1.443 . S
C291 H258 0.932 . S
C291 C286 1.388 . S
C291 C290 1.443 . S
C292 N272 1.433 . S
C292 C293 1.363 . S
C292 C297 1.370 . S
C293 H261 0.929 . S
C293 C292 1.363 . S
C293 C294 1.385 . S
C294 H262 0.930 . S
C294 C293 1.385 . S
C294 C295 1.357 . S
C295 C294 1.357 . S
C295 C296 1.406 . S
C296 H263 0.929 . S
C296 C295 1.406 . S
C296 C297 1.391 . S
C297 H264 0.931 . S
C297 C292 1.370 . S
C297 C296 1.391 . S
C298 N272 1.435 1_556 S
C298 C299 1.358 . S
C298 C303 1.371 . S
C299 H265 0.930 1_556 S
C299 C298 1.358 . S
C299 C300 1.405 . S
C300 H266 0.932 . S
C300 C299 1.405 . S
C300 C301 1.383 . S
C301 C300 1.383 . S
C301 C302 1.393 . S
C302 H267 0.931 . S
C302 C301 1.393 . S
C302 C303 1.382 . S
C303 H268 0.929 . S
C303 C298 1.371 . S
C303 C302 1.382 . S
C304 N272 1.423 1_556 S
C304 C305 1.362 1_556 S
C304 C309 1.388 . S
C305 H269 0.929 . S
C305 C304 1.362 1_554 S
C305 C306 1.376 1_554 S
C306 H270 0.931 1_556 S
C306 C305 1.376 1_556 S
C306 C307 1.396 . S
C307 C289 1.472 1_565 S
C307 C306 1.396 . S
C307 C308 1.348 . S
C308 H271 0.929 . S
C308 C307 1.348 . S
C308 C309 1.443 . S
C309 H273 0.932 . S
C309 C304 1.388 . S
C309 C308 1.443 . S
H310 C337 0.929 . S
N311 C336 1.433 . S
N311 C342 1.435 . S
N311 C348 1.423 . S
H312 C338 0.930 . S
H313 C341 0.931 . S
H314 C340 0.929 . S
H315 C343 0.930 . S
H316 C344 0.932 . S
H317 C347 0.929 . S
H318 C346 0.931 . S
H319 C349 0.929 . S
H320 C353 0.932 . S
H321 C350 0.931 . S
H322 C352 0.929 . S
H323 C355 0.929 . S
H324 C356 0.930 . S
H325 C358 0.929 . S
H326 C359 0.931 . S
H327 C361 0.930 . S
H328 C362 0.932 . S
H329 C364 0.931 . S
H330 C365 0.929 . S
H331 C367 0.929 . S
H332 C368 0.931 . S
H333 C370 0.929 . S
N334 C354 1.433 . S
N334 C360 1.435 . S
N334 C366 1.423 . S
H335 C371 0.932 . S
C336 N311 1.433 . S
C336 C337 1.363 . S
C336 C341 1.370 . S
C337 H310 0.929 . S
C337 C336 1.363 . S
C337 C338 1.385 . S
C338 H312 0.930 . S
C338 C337 1.385 . S
C338 C339 1.357 . S
C339 C338 1.357 . S
C339 C340 1.406 . S
C340 H314 0.929 . S
C340 C339 1.406 . S
C340 C341 1.391 . S
C341 H313 0.931 . S
C341 C336 1.370 . S
C341 C340 1.391 . S
C342 N311 1.435 . S
C342 C343 1.358 . S
C342 C347 1.371 . S
C343 H315 0.930 . S
C343 C342 1.358 . S
C343 C344 1.405 . S
C344 H316 0.932 . S
C344 C343 1.405 . S
C344 C345 1.383 . S
C345 C344 1.383 . S
C345 C346 1.393 . S
C346 H318 0.931 . S
C346 C345 1.393 . S
C346 C347 1.382 . S
C347 H317 0.929 . S
C347 C342 1.371 . S
C347 C346 1.382 . S
C348 N311 1.423 . S
C348 C349 1.362 . S
C348 C353 1.388 . S
C349 H319 0.929 . S
C349 C348 1.362 . S
C349 C350 1.376 . S
C350 H321 0.931 . S
C350 C349 1.376 . S
C350 C351 1.396 . S
C351 C350 1.396 . S
C351 C352 1.348 . S
C351 C369 1.472 . S
C352 H322 0.929 . S
C352 C351 1.348 . S
C352 C353 1.443 . S
C353 H320 0.932 . S
C353 C348 1.388 . S
C353 C352 1.443 . S
C354 N334 1.433 . S
C354 C355 1.363 . S
C354 C359 1.370 . S
C355 H323 0.929 . S
C355 C354 1.363 . S
C355 C356 1.385 . S
C356 H324 0.930 . S
C356 C355 1.385 . S
C356 C357 1.357 . S
C357 C356 1.357 . S
C357 C358 1.406 . S
C358 H325 0.929 . S
C358 C357 1.406 . S
C358 C359 1.391 . S
C359 H326 0.931 . S
C359 C354 1.370 . S
C359 C358 1.391 . S
C360 N334 1.435 . S
C360 C361 1.358 . S
C360 C365 1.371 . S
C361 H327 0.930 . S
C361 C360 1.358 . S
C361 C362 1.405 . S
C362 H328 0.932 . S
C362 C361 1.405 . S
C362 C363 1.383 . S
C363 C362 1.383 . S
C363 C364 1.393 . S
C364 H329 0.931 . S
C364 C363 1.393 . S
C364 C365 1.382 . S
C365 H330 0.929 . S
C365 C360 1.371 . S
C365 C364 1.382 . S
C366 N334 1.423 . S
C366 C367 1.362 . S
C366 C371 1.388 . S
C367 H331 0.929 . S
C367 C366 1.362 . S
C367 C368 1.376 . S
C368 H332 0.931 . S
C368 C367 1.376 . S
C368 C369 1.396 . S
C369 C351 1.472 . S
C369 C368 1.396 . S
C369 C370 1.348 . S
C370 H333 0.929 . S
C370 C369 1.348 . S
C370 C371 1.443 . S
C371 H335 0.932 . S
C371 C366 1.388 . S
C371 C370 1.443 . S
Co372 O373 2.216 . S
Co372 O374 2.091 . S
Co372 O376 2.004 . S
Co372 O382 2.021 . S
Co372 O384 2.137 . S
Co372 O385 2.244 . S
O373 Co372 2.216 . S
O373 C380 1.247 . S
O374 Co372 2.091 . S
O374 C380 1.261 . S
C375 O384 1.247 . S
C375 O385 1.272 . S
O376 Co372 2.004 . S
O376 C381 1.259 . S
Co377 O378 2.061 . S
Co377 O383 2.052 . S
Co377 O385 2.135 . S
O378 Co377 2.061 . S
O378 C381 1.235 . S
C379 O382 1.238 . S
C379 O383 1.241 . S
C380 O373 1.247 . S
C380 O374 1.261 . S
C381 O376 1.259 . S
C381 O378 1.235 . S
O382 Co372 2.021 . S
O382 C379 1.238 . S
O383 Co377 2.052 . S
O383 C379 1.241 . S
O384 Co372 2.137 . S
O384 C375 1.247 . S
O385 Co372 2.244 . S
O385 C375 1.272 . S
O385 Co377 2.135 . S
Co386 O387 2.216 . S
Co386 O388 2.091 . S
Co386 O390 2.004 . S
Co386 O396 2.021 . S
Co386 O398 2.137 . S
Co386 O399 2.244 . S
O387 Co386 2.216 . S
O387 C394 1.247 . S
O388 Co386 2.091 . S
O388 C394 1.261 . S
C389 O398 1.247 . S
C389 O399 1.272 . S
O390 Co386 2.004 . S
O390 C395 1.259 . S
Co391 O392 2.061 . S
Co391 O397 2.052 . S
Co391 O399 2.135 . S
O392 Co391 2.061 . S
O392 C395 1.235 . S
C393 O396 1.238 . S
C393 O397 1.241 . S
C394 O387 1.247 . S
C394 O388 1.261 . S
C395 O390 1.259 . S
C395 O392 1.235 . S
O396 Co386 2.021 . S
O396 C393 1.238 . S
O397 Co391 2.052 . S
O397 C393 1.241 . S
O398 Co386 2.137 . S
O398 C389 1.247 . S
O399 Co386 2.244 . S
O399 C389 1.272 . S
O399 Co391 2.135 . S
Co400 O401 2.216 . S
Co400 O402 2.091 . S
Co400 O404 2.004 . S
Co400 O410 2.021 . S
Co400 O412 2.137 . S
Co400 O413 2.244 . S
O401 Co400 2.216 . S
O401 C408 1.247 . S
O402 Co400 2.091 . S
O402 C408 1.261 . S
C403 O412 1.247 . S
C403 O413 1.272 . S
O404 Co400 2.004 . S
O404 C409 1.259 . S
Co405 O406 2.061 . S
Co405 O411 2.052 . S
Co405 O413 2.135 . S
O406 Co405 2.061 . S
O406 C409 1.235 . S
C407 O410 1.238 . S
C407 O411 1.241 . S
C408 O401 1.247 . S
C408 O402 1.261 . S
C409 O404 1.259 . S
C409 O406 1.235 . S
O410 Co400 2.021 . S
O410 C407 1.238 . S
O411 Co405 2.052 . S
O411 C407 1.241 . S
O412 Co400 2.137 . S
O412 C403 1.247 . S
O413 Co400 2.244 . S
O413 C403 1.272 . S
O413 Co405 2.135 . S
Co414 O415 2.216 . S
Co414 O416 2.091 . S
Co414 O418 2.004 . S
Co414 O424 2.021 . S
Co414 O426 2.137 . S
Co414 O427 2.244 . S
O415 Co414 2.216 . S
O415 C422 1.247 . S
O416 Co414 2.091 . S
O416 C422 1.261 . S
C417 O426 1.247 . S
C417 O427 1.272 . S
O418 Co414 2.004 . S
O418 C423 1.259 . S
Co419 O420 2.061 . S
Co419 O425 2.052 . S
Co419 O427 2.135 . S
O420 Co419 2.061 . S
O420 C423 1.235 . S
C421 O424 1.238 . S
C421 O425 1.241 . S
C422 O415 1.247 . S
C422 O416 1.261 . S
C423 O418 1.259 . S
C423 O420 1.235 . S
O424 Co414 2.021 . S
O424 C421 1.238 . S
O425 Co419 2.052 . S
O425 C421 1.241 . S
O426 Co414 2.137 . S
O426 C417 1.247 . S
O427 Co414 2.244 . S
O427 C417 1.272 . S
O427 Co419 2.135 . S
Co428 O429 2.216 . S
Co428 O430 2.091 . S
Co428 O432 2.004 . S
Co428 O438 2.021 . S
Co428 O440 2.137 . S
Co428 O441 2.244 . S
O429 Co428 2.216 . S
O429 C436 1.247 . S
O430 Co428 2.091 . S
O430 C436 1.261 . S
C431 O440 1.247 . S
C431 O441 1.272 . S
O432 Co428 2.004 . S
O432 C437 1.259 . S
Co433 O434 2.061 . S
Co433 O439 2.052 . S
Co433 O441 2.135 . S
O434 Co433 2.061 . S
O434 C437 1.235 . S
C435 O438 1.238 . S
C435 O439 1.241 . S
C436 O429 1.247 . S
C436 O430 1.261 . S
C437 O432 1.259 . S
C437 O434 1.235 . S
O438 Co428 2.021 . S
O438 C435 1.238 . S
O439 Co433 2.052 . S
O439 C435 1.241 . S
O440 Co428 2.137 . S
O440 C431 1.247 . S
O441 Co428 2.244 . S
O441 C431 1.272 . S
O441 Co433 2.135 . S
Co442 O443 2.216 . S
Co442 O444 2.091 . S
Co442 O446 2.004 . S
Co442 O452 2.021 . S
Co442 O454 2.137 . S
Co442 O455 2.244 . S
O443 Co442 2.216 . S
O443 C450 1.247 . S
O444 Co442 2.091 . S
O444 C450 1.261 . S
C445 O454 1.247 . S
C445 O455 1.272 . S
O446 Co442 2.004 . S
O446 C451 1.259 . S
Co447 O448 2.061 . S
Co447 O453 2.052 . S
Co447 O455 2.135 . S
O448 Co447 2.061 . S
O448 C451 1.235 . S
C449 O452 1.238 . S
C449 O453 1.241 . S
C450 O443 1.247 . S
C450 O444 1.261 . S
C451 O446 1.259 . S
C451 O448 1.235 . S
O452 Co442 2.021 . S
O452 C449 1.238 . S
O453 Co447 2.052 . S
O453 C449 1.241 . S
O454 Co442 2.137 . S
O454 C445 1.247 . S
O455 Co442 2.244 . S
O455 C445 1.272 . S
O455 Co447 2.135 . S
H456 C462 0.930 . S
H457 C465 0.930 . S
H458 C466 0.930 . S
H459 C467 0.930 . S
H460 C470 0.930 . S
H461 C471 0.930 . S
C462 H456 0.930 . S
C462 C463 1.355 . S
C462 C464 1.415 . S
C463 C462 1.355 . S
C463 C465 1.419 . S
C464 C462 1.415 . S
C464 C469 1.425 . S
C464 C471 1.409 . S
C465 H457 0.930 . S
C465 C463 1.419 . S
C465 C466 1.362 . S
C466 H458 0.930 . S
C466 C465 1.362 . S
C466 C469 1.409 . S
C467 H459 0.930 . S
C467 C468 1.355 . S
C467 C469 1.415 . S
C468 C467 1.355 . S
C468 C470 1.419 . S
C469 C464 1.425 . S
C469 C466 1.409 . S
C469 C467 1.415 . S
C470 H460 0.930 . S
C470 C468 1.419 . S
C470 C471 1.362 . S
C471 H461 0.930 . S
C471 C464 1.409 . S
C471 C470 1.362 . S
H472 C478 0.930 . S
H473 C481 0.930 . S
H474 C482 0.930 . S
H475 C483 0.930 . S
H476 C486 0.930 . S
H477 C487 0.930 . S
C478 H472 0.930 . S
C478 C479 1.355 . S
C478 C480 1.415 . S
C479 C478 1.355 . S
C479 C481 1.419 . S
C480 C478 1.415 . S
C480 C485 1.425 . S
C480 C487 1.409 . S
C481 H473 0.930 . S
C481 C479 1.419 . S
C481 C482 1.362 . S
C482 H474 0.930 . S
C482 C481 1.362 . S
C482 C485 1.409 . S
C483 H475 0.930 . S
C483 C484 1.355 . S
C483 C485 1.415 . S
C484 C483 1.355 . S
C484 C486 1.419 . S
C485 C480 1.425 . S
C485 C482 1.409 . S
C485 C483 1.415 . S
C486 H476 0.930 . S
C486 C484 1.419 . S
C486 C487 1.362 . S
C487 H477 0.930 . S
C487 C480 1.409 . S
C487 C486 1.362 . S
H488 C494 0.930 . S
H489 C497 0.930 . S
H490 C498 0.930 . S
H491 C499 0.930 . S
H492 C502 0.930 . S
H493 C503 0.930 . S
C494 H488 0.930 . S
C494 C495 1.355 . S
C494 C496 1.415 . S
C495 C494 1.355 . S
C495 C497 1.419 . S
C496 C494 1.415 . S
C496 C501 1.425 . S
C496 C503 1.409 . S
C497 H489 0.930 . S
C497 C495 1.419 . S
C497 C498 1.362 . S
C498 H490 0.930 . S
C498 C497 1.362 . S
C498 C501 1.409 . S
C499 H491 0.930 . S
C499 C500 1.355 . S
C499 C501 1.415 . S
C500 C499 1.355 . S
C500 C502 1.419 . S
C501 C496 1.425 . S
C501 C498 1.409 . S
C501 C499 1.415 . S
C502 H492 0.930 . S
C502 C500 1.419 . S
C502 C503 1.362 . S
C503 H493 0.930 . S
C503 C496 1.409 . S
C503 C502 1.362 . S
H504 C510 0.930 . S
H505 C513 0.930 . S
H506 C514 0.930 . S
H507 C515 0.930 . S
H508 C518 0.930 . S
H509 C519 0.930 . S
C510 H504 0.930 . S
C510 C511 1.355 . S
C510 C512 1.415 . S
C511 C510 1.355 . S
C511 C513 1.419 . S
C512 C510 1.415 . S
C512 C517 1.425 . S
C512 C519 1.409 . S
C513 H505 0.930 . S
C513 C511 1.419 . S
C513 C514 1.362 . S
C514 H506 0.930 . S
C514 C513 1.362 . S
C514 C517 1.409 . S
C515 H507 0.930 . S
C515 C516 1.355 . S
C515 C517 1.415 . S
C516 C515 1.355 . S
C516 C518 1.419 . S
C517 C512 1.425 . S
C517 C514 1.409 . S
C517 C515 1.415 . S
C518 H508 0.930 . S
C518 C516 1.419 . S
C518 C519 1.362 . S
C519 H509 0.930 . S
C519 C512 1.409 . S
C519 C518 1.362 . S
H520 C526 0.930 . S
H521 C529 0.930 . S
H522 C530 0.930 . S
H523 C531 0.930 . S
H524 C534 0.930 . S
H525 C535 0.930 . S
C526 H520 0.930 . S
C526 C527 1.355 . S
C526 C528 1.415 . S
C527 C526 1.355 . S
C527 C529 1.419 . S
C528 C526 1.415 . S
C528 C533 1.425 . S
C528 C535 1.409 . S
C529 H521 0.930 . S
C529 C527 1.419 . S
C529 C530 1.362 . S
C530 H522 0.930 . S
C530 C529 1.362 . S
C530 C533 1.409 . S
C531 H523 0.930 . S
C531 C532 1.355 . S
C531 C533 1.415 . S
C532 C531 1.355 . S
C532 C534 1.419 . S
C533 C528 1.425 . S
C533 C530 1.409 . S
C533 C531 1.415 . S
C534 H524 0.930 . S
C534 C532 1.419 . S
C534 C535 1.362 . S
C535 H525 0.930 . S
C535 C528 1.409 . S
C535 C534 1.362 . S
H536 C542 0.930 . S
H537 C545 0.930 . S
H538 C546 0.930 . S
H539 C547 0.930 . S
H540 C550 0.930 . S
H541 C551 0.930 . S
C542 H536 0.930 . S
C542 C543 1.355 . S
C542 C544 1.415 . S
C543 C542 1.355 . S
C543 C545 1.419 . S
C544 C542 1.415 . S
C544 C549 1.425 . S
C544 C551 1.409 . S
C545 H537 0.930 . S
C545 C543 1.419 . S
C545 C546 1.362 . S
C546 H538 0.930 . S
C546 C545 1.362 . S
C546 C549 1.409 . S
C547 H539 0.930 . S
C547 C548 1.355 . S
C547 C549 1.415 . S
C548 C547 1.355 . S
C548 C550 1.419 . S
C549 C544 1.425 . S
C549 C546 1.409 . S
C549 C547 1.415 . S
C550 H540 0.930 . S
C550 C548 1.419 . S
C550 C551 1.362 . S
C551 H541 0.930 . S
C551 C544 1.409 . S
C551 C550 1.362 . S
H552 C558 0.930 . S
H553 C561 0.930 . S
H554 C562 0.930 . S
H555 C563 0.930 . S
H556 C566 0.930 . S
H557 C567 0.930 . S
C558 H552 0.930 . S
C558 C559 1.355 . S
C558 C560 1.415 . S
C559 C558 1.355 . S
C559 C561 1.419 . S
C560 C558 1.415 . S
C560 C565 1.425 . S
C560 C567 1.409 . S
C561 H553 0.930 . S
C561 C559 1.419 . S
C561 C562 1.362 . S
C562 H554 0.930 . S
C562 C561 1.362 . S
C562 C565 1.409 . S
C563 H555 0.930 . S
C563 C564 1.355 . S
C563 C565 1.415 . S
C564 C563 1.355 . S
C564 C566 1.419 . S
C565 C560 1.425 . S
C565 C562 1.409 . S
C565 C563 1.415 . S
C566 H556 0.930 . S
C566 C564 1.419 . S
C566 C567 1.362 . S
C567 H557 0.930 . S
C567 C560 1.409 . S
C567 C566 1.362 . S
H568 C574 0.930 . S
H569 C577 0.930 . S
H570 C578 0.930 . S
H571 C579 0.930 . S
H572 C582 0.930 . S
H573 C583 0.930 . S
C574 H568 0.930 . S
C574 C575 1.355 . S
C574 C576 1.415 . S
C575 C574 1.355 . S
C575 C577 1.419 . S
C576 C574 1.415 . S
C576 C581 1.425 . S
C576 C583 1.409 . S
C577 H569 0.930 . S
C577 C575 1.419 . S
C577 C578 1.362 . S
C578 H570 0.930 . S
C578 C577 1.362 . S
C578 C581 1.409 . S
C579 H571 0.930 . S
C579 C580 1.355 . S
C579 C581 1.415 . S
C580 C579 1.355 . S
C580 C582 1.419 . S
C581 C576 1.425 . S
C581 C578 1.409 . S
C581 C579 1.415 . S
C582 H572 0.930 . S
C582 C580 1.419 . S
C582 C583 1.362 . S
C583 H573 0.930 . S
C583 C576 1.409 . S
C583 C582 1.362 . S
H584 C590 0.930 . S
H585 C593 0.930 . S
H586 C594 0.930 . S
H587 C595 0.930 . S
H588 C598 0.930 . S
H589 C599 0.930 . S
C590 H584 0.930 . S
C590 C591 1.355 . S
C590 C592 1.415 . S
C591 C590 1.355 . S
C591 C593 1.419 . S
C592 C590 1.415 . S
C592 C597 1.425 . S
C592 C599 1.409 . S
C593 H585 0.930 . S
C593 C591 1.419 . S
C593 C594 1.362 . S
C594 H586 0.930 . S
C594 C593 1.362 . S
C594 C597 1.409 . S
C595 H587 0.930 . S
C595 C596 1.355 . S
C595 C597 1.415 . S
C596 C595 1.355 . S
C596 C598 1.419 . S
C597 C592 1.425 . S
C597 C594 1.409 . S
C597 C595 1.415 . S
C598 H588 0.930 . S
C598 C596 1.419 . S
C598 C599 1.362 . S
C599 H589 0.930 . S
C599 C592 1.409 . S
C599 C598 1.362 . S
H600 C606 0.930 . S
H601 C609 0.930 . S
H602 C610 0.930 . S
H603 C611 0.930 . S
H604 C614 0.930 . S
H605 C615 0.930 . S
C606 H600 0.930 . S
C606 C607 1.355 . S
C606 C608 1.415 . S
C607 C606 1.355 . S
C607 C609 1.419 . S
C608 C606 1.415 . S
C608 C613 1.425 . S
C608 C615 1.409 . S
C609 H601 0.930 . S
C609 C607 1.419 . S
C609 C610 1.362 . S
C610 H602 0.930 . S
C610 C609 1.362 . S
C610 C613 1.409 . S
C611 H603 0.930 . S
C611 C612 1.355 . S
C611 C613 1.415 . S
C612 C611 1.355 . S
C612 C614 1.419 . S
C613 C608 1.425 . S
C613 C610 1.409 . S
C613 C611 1.415 . S
C614 H604 0.930 . S
C614 C612 1.419 . S
C614 C615 1.362 . S
C615 H605 0.930 . S
C615 C608 1.409 . S
C615 C614 1.362 . S
H616 C622 0.930 . S
H617 C625 0.930 . S
H618 C626 0.930 . S
H619 C627 0.930 . S
H620 C630 0.930 . S
H621 C631 0.930 . S
C622 H616 0.930 . S
C622 C623 1.355 . S
C622 C624 1.415 . S
C623 C622 1.355 . S
C623 C625 1.419 . S
C624 C622 1.415 . S
C624 C629 1.425 . S
C624 C631 1.409 . S
C625 H617 0.930 . S
C625 C623 1.419 . S
C625 C626 1.362 . S
C626 H618 0.930 . S
C626 C625 1.362 . S
C626 C629 1.409 . S
C627 H619 0.930 . S
C627 C628 1.355 . S
C627 C629 1.415 . S
C628 C627 1.355 . S
C628 C630 1.419 . S
C629 C624 1.425 . S
C629 C626 1.409 . S
C629 C627 1.415 . S
C630 H620 0.930 . S
C630 C628 1.419 . S
C630 C631 1.362 . S
C631 H621 0.930 . S
C631 C624 1.409 . S
C631 C630 1.362 . S
H632 C638 0.930 . S
H633 C641 0.930 . S
H634 C642 0.930 . S
H635 C643 0.930 . S
H636 C646 0.930 . S
H637 C647 0.930 . S
C638 H632 0.930 . S
C638 C639 1.355 . S
C638 C640 1.415 . S
C639 C638 1.355 . S
C639 C641 1.419 . S
C640 C638 1.415 . S
C640 C645 1.425 . S
C640 C647 1.409 . S
C641 H633 0.930 . S
C641 C639 1.419 . S
C641 C642 1.362 . S
C642 H634 0.930 . S
C642 C641 1.362 . S
C642 C645 1.409 . S
C643 H635 0.930 . S
C643 C644 1.355 . S
C643 C645 1.415 . S
C644 C643 1.355 . S
C644 C646 1.419 . S
C645 C640 1.425 . S
C645 C642 1.409 . S
C645 C643 1.415 . S
C646 H636 0.930 . S
C646 C644 1.419 . S
C646 C647 1.362 . S
C647 H637 0.930 . S
C647 C640 1.409 . S
C647 C646 1.362 . S
H648 C654 0.930 . S
H649 C657 0.930 . S
H650 C658 0.930 . S
H651 C659 0.930 . S
H652 C662 0.930 . S
H653 C663 0.930 . S
C654 H648 0.930 . S
C654 C655 1.355 . S
C654 C656 1.415 . S
C655 C654 1.355 . S
C655 C657 1.419 . S
C656 C654 1.415 . S
C656 C661 1.425 . S
C656 C663 1.409 . S
C657 H649 0.930 . S
C657 C655 1.419 . S
C657 C658 1.362 . S
C658 H650 0.930 . S
C658 C657 1.362 . S
C658 C661 1.409 . S
C659 H651 0.930 . S
C659 C660 1.355 . S
C659 C661 1.415 . S
C660 C659 1.355 . S
C660 C662 1.419 . S
C661 C656 1.425 . S
C661 C658 1.409 . S
C661 C659 1.415 . S
C662 H652 0.930 . S
C662 C660 1.419 . S
C662 C663 1.362 . S
C663 H653 0.930 . S
C663 C656 1.409 . S
C663 C662 1.362 . S
H664 C670 0.930 . S
H665 C673 0.930 . S
H666 C674 0.930 . S
H667 C675 0.930 . S
H668 C678 0.930 . S
H669 C679 0.930 . S
C670 H664 0.930 . S
C670 C671 1.355 . S
C670 C672 1.415 . S
C671 C670 1.355 . S
C671 C673 1.419 . S
C672 C670 1.415 . S
C672 C677 1.425 . S
C672 C679 1.409 . S
C673 H665 0.930 . S
C673 C671 1.419 . S
C673 C674 1.362 . S
C674 H666 0.930 . S
C674 C673 1.362 . S
C674 C677 1.409 . S
C675 H667 0.930 . S
C675 C676 1.355 . S
C675 C677 1.415 . S
C676 C675 1.355 . S
C676 C678 1.419 . S
C677 C672 1.425 . S
C677 C674 1.409 . S
C677 C675 1.415 . S
C678 H668 0.930 . S
C678 C676 1.419 . S
C678 C679 1.362 . S
C679 H669 0.930 . S
C679 C672 1.409 . S
C679 C678 1.362 . S
H680 C686 0.930 . S
H681 C689 0.930 . S
H682 C690 0.930 . S
H683 C691 0.930 . S
H684 C694 0.930 . S
H685 C695 0.930 . S
C686 H680 0.930 . S
C686 C687 1.355 . S
C686 C688 1.415 . S
C687 C686 1.355 . S
C687 C689 1.419 . S
C688 C686 1.415 . S
C688 C693 1.425 . S
C688 C695 1.409 . S
C689 H681 0.930 . S
C689 C687 1.419 . S
C689 C690 1.362 . S
C690 H682 0.930 . S
C690 C689 1.362 . S
C690 C693 1.409 . S
C691 H683 0.930 . S
C691 C692 1.355 . S
C691 C693 1.415 . S
C692 C691 1.355 . S
C692 C694 1.419 . S
C693 C688 1.425 . S
C693 C690 1.409 . S
C693 C691 1.415 . S
C694 H684 0.930 . S
C694 C692 1.419 . S
C694 C695 1.362 . S
C695 H685 0.930 . S
C695 C688 1.409 . S
C695 C694 1.362 . S
H696 C702 0.930 . S
H697 C705 0.930 . S
H698 C706 0.930 . S
H699 C707 0.930 1_554 S
H700 C710 0.930 . S
H701 C711 0.930 . S
C702 H696 0.930 . S
C702 C703 1.355 . S
C702 C704 1.415 . S
C703 C702 1.355 . S
C703 C705 1.419 . S
C704 C702 1.415 . S
C704 C709 1.425 . S
C704 C711 1.409 . S
C705 H697 0.930 . S
C705 C703 1.419 . S
C705 C706 1.362 . S
C706 H698 0.930 . S
C706 C705 1.362 . S
C706 C709 1.409 . S
C707 H699 0.930 1_556 S
C707 C708 1.355 . S
C707 C709 1.415 . S
C708 C707 1.355 . S
C708 C710 1.419 . S
C709 C704 1.425 . S
C709 C706 1.409 . S
C709 C707 1.415 . S
C710 H700 0.930 . S
C710 C708 1.419 . S
C710 C711 1.362 . S
C711 H701 0.930 . S
C711 C704 1.409 . S
C711 C710 1.362 . S
H712 C718 0.930 . S
H713 C721 0.930 . S
H714 C722 0.930 . S
H715 C723 0.930 . S
H716 C726 0.930 . S
H717 C727 0.930 . S
C718 H712 0.930 . S
C718 C719 1.355 . S
C718 C720 1.415 . S
C719 C718 1.355 . S
C719 C721 1.419 . S
C720 C718 1.415 . S
C720 C725 1.425 . S
C720 C727 1.409 . S
C721 H713 0.930 . S
C721 C719 1.419 . S
C721 C722 1.362 . S
C722 H714 0.930 . S
C722 C721 1.362 . S
C722 C725 1.409 . S
C723 H715 0.930 . S
C723 C724 1.355 . S
C723 C725 1.415 . S
C724 C723 1.355 . S
C724 C726 1.419 . S
C725 C720 1.425 . S
C725 C722 1.409 . S
C725 C723 1.415 . S
C726 H716 0.930 . S
C726 C724 1.419 . S
C726 C727 1.362 . S
C727 H717 0.930 . S
C727 C720 1.409 . S
C727 C726 1.362 . S
H728 C734 0.930 . S
H729 C737 0.930 . S
H730 C738 0.930 . S
H731 C739 0.930 . S
H732 C742 0.930 . S
H733 C743 0.930 . S
C734 H728 0.930 . S
C734 C735 1.355 . S
C734 C736 1.415 . S
C735 C734 1.355 . S
C735 C737 1.419 . S
C736 C734 1.415 . S
C736 C741 1.425 . S
C736 C743 1.409 . S
C737 H729 0.930 . S
C737 C735 1.419 . S
C737 C738 1.362 . S
C738 H730 0.930 . S
C738 C737 1.362 . S
C738 C741 1.409 . S
C739 H731 0.930 . S
C739 C740 1.355 . S
C739 C741 1.415 . S
C740 C739 1.355 . S
C740 C742 1.419 . S
C741 C736 1.425 . S
C741 C738 1.409 . S
C741 C739 1.415 . S
C742 H732 0.930 . S
C742 C740 1.419 . S
C742 C743 1.362 . S
C743 H733 0.930 . S
C743 C736 1.409 . S
C743 C742 1.362 . S
H744 C750 0.930 . S
H745 C753 0.930 . S
H746 C754 0.930 . S
H747 C755 0.930 . S
H748 C758 0.930 . S
H749 C759 0.930 . S
C750 H744 0.930 . S
C750 C751 1.355 . S
C750 C752 1.415 . S
C751 C750 1.355 . S
C751 C753 1.419 . S
C752 C750 1.415 . S
C752 C757 1.425 . S
C752 C759 1.409 . S
C753 H745 0.930 . S
C753 C751 1.419 . S
C753 C754 1.362 . S
C754 H746 0.930 . S
C754 C753 1.362 . S
C754 C757 1.409 . S
C755 H747 0.930 . S
C755 C756 1.355 . S
C755 C757 1.415 . S
C756 C755 1.355 . S
C756 C758 1.419 . S
C757 C752 1.425 . S
C757 C754 1.409 . S
C757 C755 1.415 . S
C758 H748 0.930 . S
C758 C756 1.419 . S
C758 C759 1.362 . S
C759 H749 0.930 . S
C759 C752 1.409 . S
C759 C758 1.362 . S
H760 C766 0.930 . S
H761 C769 0.930 . S
H762 C770 0.930 . S
H763 C771 0.930 . S
H764 C774 0.930 . S
H765 C775 0.930 . S
C766 H760 0.930 . S
C766 C767 1.355 . S
C766 C768 1.415 . S
C767 C766 1.355 . S
C767 C769 1.419 . S
C768 C766 1.415 . S
C768 C773 1.425 . S
C768 C775 1.409 . S
C769 H761 0.930 . S
C769 C767 1.419 . S
C769 C770 1.362 . S
C770 H762 0.930 . S
C770 C769 1.362 . S
C770 C773 1.409 . S
C771 H763 0.930 . S
C771 C772 1.355 . S
C771 C773 1.415 . S
C772 C771 1.355 . S
C772 C774 1.419 . S
C773 C768 1.425 . S
C773 C770 1.409 . S
C773 C771 1.415 . S
C774 H764 0.930 . S
C774 C772 1.419 . S
C774 C775 1.362 . S
C775 H765 0.930 . S
C775 C768 1.409 . S
C775 C774 1.362 . S
H776 C782 0.930 . S
H777 C785 0.930 . S
H778 C786 0.930 . S
H779 C787 0.930 . S
H780 C790 0.930 . S
H781 C791 0.930 . S
C782 H776 0.930 . S
C782 C783 1.355 . S
C782 C784 1.415 . S
C783 C782 1.355 . S
C783 C785 1.419 . S
C784 C782 1.415 . S
C784 C789 1.425 . S
C784 C791 1.409 . S
C785 H777 0.930 . S
C785 C783 1.419 . S
C785 C786 1.362 . S
C786 H778 0.930 . S
C786 C785 1.362 . S
C786 C789 1.409 . S
C787 H779 0.930 . S
C787 C788 1.355 . S
C787 C789 1.415 . S
C788 C787 1.355 . S
C788 C790 1.419 . S
C789 C784 1.425 . S
C789 C786 1.409 . S
C789 C787 1.415 . S
C790 H780 0.930 . S
C790 C788 1.419 . S
C790 C791 1.362 . S
C791 H781 0.930 . S
C791 C784 1.409 . S
C791 C790 1.362 . S
H792 C798 0.930 . S
H793 C801 0.930 . S
H794 C802 0.930 . S
H795 C803 0.930 . S
H796 C806 0.930 . S
H797 C807 0.930 . S
C798 H792 0.930 . S
C798 C799 1.355 . S
C798 C800 1.415 . S
C799 C798 1.355 . S
C799 C801 1.419 . S
C800 C798 1.415 . S
C800 C805 1.425 . S
C800 C807 1.409 . S
C801 H793 0.930 . S
C801 C799 1.419 . S
C801 C802 1.362 . S
C802 H794 0.930 . S
C802 C801 1.362 . S
C802 C805 1.409 . S
C803 H795 0.930 . S
C803 C804 1.355 . S
C803 C805 1.415 . S
C804 C803 1.355 . S
C804 C806 1.419 . S
C805 C800 1.425 . S
C805 C802 1.409 . S
C805 C803 1.415 . S
C806 H796 0.930 . S
C806 C804 1.419 . S
C806 C807 1.362 . S
C807 H797 0.930 . S
C807 C800 1.409 . S
C807 C806 1.362 . S
H808 C814 0.930 . S
H809 C817 0.930 . S
H810 C818 0.930 . S
H811 C819 0.930 . S
H812 C822 0.930 . S
H813 C823 0.930 . S
C814 H808 0.930 . S
C814 C815 1.355 . S
C814 C816 1.415 . S
C815 C814 1.355 . S
C815 C817 1.419 1_554 S
C816 C814 1.415 . S
C816 C821 1.425 1_554 S
C816 C823 1.409 . S
C817 H809 0.930 . S
C817 C815 1.419 1_556 S
C817 C818 1.362 . S
C818 H810 0.930 . S
C818 C817 1.362 . S
C818 C821 1.409 . S
C819 H811 0.930 . S
C819 C820 1.355 . S
C819 C821 1.415 . S
C820 C819 1.355 . S
C820 C822 1.419 . S
C821 C816 1.425 1_556 S
C821 C818 1.409 . S
C821 C819 1.415 . S
C822 H812 0.930 . S
C822 C820 1.419 . S
C822 C823 1.362 1_556 S
C823 H813 0.930 . S
C823 C816 1.409 . S
C823 C822 1.362 1_554 S
H824 C830 0.930 . S
H825 C833 0.930 . S
H826 C834 0.930 . S
H827 C835 0.930 . S
H828 C838 0.930 . S
H829 C839 0.930 . S
C830 H824 0.930 . S
C830 C831 1.355 . S
C830 C832 1.415 . S
C831 C830 1.355 . S
C831 C833 1.419 . S
C832 C830 1.415 . S
C832 C837 1.425 . S
C832 C839 1.409 . S
C833 H825 0.930 . S
C833 C831 1.419 . S
C833 C834 1.362 . S
C834 H826 0.930 . S
C834 C833 1.362 . S
C834 C837 1.409 . S
C835 H827 0.930 . S
C835 C836 1.355 . S
C835 C837 1.415 . S
C836 C835 1.355 . S
C836 C838 1.419 . S
C837 C832 1.425 . S
C837 C834 1.409 . S
C837 C835 1.415 . S
C838 H828 0.930 . S
C838 C836 1.419 . S
C838 C839 1.362 . S
C839 H829 0.930 . S
C839 C832 1.409 . S
C839 C838 1.362 . S
C468 C445 1.691 . S
C463 C29 1.547 . S
C479 C115 1.576 . S
C484 C375 1.561 . S
C495 C153 1.638 . S
C500 C394 1.707 . S
C511 C239 1.532 . S
C516 C403 1.545 . S
C532 C417 1.623 . S
C527 C301 1.587 . S
C543 C339 1.863 . S
C548 C436 1.953 . S
C559 C91 1.588 . S
C564 C389 1.664 . S
C575 C177 1.539 . S
C580 C408 1.568 . S
C591 C215 1.618 . S
C596 C422 1.676 . S
C612 C431 1.896 . S
C607 C277 1.761 . S
C628 C450 1.633 . S
C623 C363 1.612 . S
C644 C380 1.577 . S
C639 C53 1.575 . S
C655 C35 1.542 . S
C660 C395 1.566 . S
C671 C109 1.436 . S
C676 C407 1.473 . S
C692 C421 1.471 . S
C687 C159 1.459 . S
C703 C233 1.634 . S
C708 C437 1.705 1_556 S
C724 C449 1.513 . S
C719 C295 1.347 . S
C740 C379 1.425 . S
C735 C345 1.393 . S
C756 C451 1.454 . S
C751 C97 1.460 . S
C767 C171 1.465 . S
C772 C381 1.534 . S
C788 C393 1.559 . S
C783 C221 1.578 . S
C799 C283 1.394 . S
C804 C409 1.402 . S
C815 C357 1.471 . S
C820 C423 1.555 . S
C831 C47 1.602 . S
C836 C435 1.714 . S
