# Generated by pormake.
# Topology nom, (4,4)-cn, num edge types: 1
# Building blocks:
#     Node 0, Type 0, BuildingBlock: MIFKUJ_clean_linker_1, # of connection points: 4
#     Node 1, Type 0, BuildingBlock: MIFKUJ_clean_linker_1, # of connection points: 4
#     Node 2, Type 0, BuildingBlock: MIFKUJ_clean_linker_1, # of connection points: 4
#     Node 3, Type 0, BuildingBlock: MIFKUJ_clean_linker_1, # of connection points: 4
#     Node 4, Type 0, BuildingBlock: MIFKUJ_clean_linker_1, # of connection points: 4
#     Node 5, Type 0, BuildingBlock: MIFKUJ_clean_linker_1, # of connection points: 4
#     Node 6, Type 1, BuildingBlock: QUQFOY_clean_sbu_3, # of connection points: 4
#     Node 7, Type 1, BuildingBlock: QUQFOY_clean_sbu_3, # of connection points: 4
#     Node 8, Type 1, BuildingBlock: QUQFOY_clean_sbu_3, # of connection points: 4
#     Node 9, Type 1, BuildingBlock: QUQFOY_clean_sbu_3, # of connection points: 4
#     Node 10, Type 1, BuildingBlock: QUQFOY_clean_sbu_3, # of connection points: 4
#     Node 11, Type 1, BuildingBlock: QUQFOY_clean_sbu_3, # of connection points: 4
#     Edge 12, Type (0, 1), BuildingBlock: OJICUG_clean_linker_0, # of connection points: 2
#     Edge 13, Type (0, 1), BuildingBlock: OJICUG_clean_linker_0, # of connection points: 2
#     Edge 14, Type (0, 1), BuildingBlock: OJICUG_clean_linker_0, # of connection points: 2
#     Edge 15, Type (0, 1), BuildingBlock: OJICUG_clean_linker_0, # of connection points: 2
#     Edge 16, Type (0, 1), BuildingBlock: OJICUG_clean_linker_0, # of connection points: 2
#     Edge 17, Type (0, 1), BuildingBlock: OJICUG_clean_linker_0, # of connection points: 2
#     Edge 18, Type (0, 1), BuildingBlock: OJICUG_clean_linker_0, # of connection points: 2
#     Edge 19, Type (0, 1), BuildingBlock: OJICUG_clean_linker_0, # of connection points: 2
#     Edge 20, Type (0, 1), BuildingBlock: OJICUG_clean_linker_0, # of connection points: 2
#     Edge 21, Type (0, 1), BuildingBlock: OJICUG_clean_linker_0, # of connection points: 2
#     Edge 22, Type (0, 1), BuildingBlock: OJICUG_clean_linker_0, # of connection points: 2
#     Edge 23, Type (0, 1), BuildingBlock: OJICUG_clean_linker_0, # of connection points: 2
#     Edge 24, Type (0, 1), BuildingBlock: OJICUG_clean_linker_0, # of connection points: 2
#     Edge 25, Type (0, 1), BuildingBlock: OJICUG_clean_linker_0, # of connection points: 2
#     Edge 26, Type (0, 1), BuildingBlock: OJICUG_clean_linker_0, # of connection points: 2
#     Edge 27, Type (0, 1), BuildingBlock: OJICUG_clean_linker_0, # of connection points: 2
#     Edge 28, Type (0, 1), BuildingBlock: OJICUG_clean_linker_0, # of connection points: 2
#     Edge 29, Type (0, 1), BuildingBlock: OJICUG_clean_linker_0, # of connection points: 2
#     Edge 30, Type (0, 1), BuildingBlock: OJICUG_clean_linker_0, # of connection points: 2
#     Edge 31, Type (0, 1), BuildingBlock: OJICUG_clean_linker_0, # of connection points: 2
#     Edge 32, Type (0, 1), BuildingBlock: OJICUG_clean_linker_0, # of connection points: 2
#     Edge 33, Type (0, 1), BuildingBlock: OJICUG_clean_linker_0, # of connection points: 2
#     Edge 34, Type (0, 1), BuildingBlock: OJICUG_clean_linker_0, # of connection points: 2
#     Edge 35, Type (0, 1), BuildingBlock: OJICUG_clean_linker_0, # of connection points: 2
# Relax obj value: 0.002
# Max RMSD: 0.101
# Mean RMSD: 0.065
data_MOF--net-nom--node1-QUQFOY_clean_sbu_3--node2-MIFKUJ_clean_linker_1--edge1-OJICUG_clean_linker_0
_symmetry_space_group_name_H-M    P1
_symmetry_Int_Tables_number       1
_symmetry_cell_setting            triclinic
loop_
_symmetry_equiv_pos_as_xyz
'x, y, z'
_cell_length_a     41.737926
_cell_length_b     42.758477
_cell_length_c     43.99167
_cell_angle_alpha  90.070368
_cell_angle_beta   89.945713
_cell_angle_gamma 120.04202
loop_
_atom_site_label
_atom_site_type_symbol
_atom_site_fract_x
_atom_site_fract_y
_atom_site_fract_z
_atom_type_partial_charge
H0 H 0.95019 0.41865 0.26072 0.0
H1 H 0.90828 0.40504 0.21734 0.0
H2 H 0.88761 0.49019 0.24552 0.0
H3 H 0.92974 0.50384 0.28851 0.0
H4 H 0.01529 0.49407 0.27009 0.0
H5 H 0.89409 0.40919 0.32007 0.0
H6 H 0.8322 0.39782 0.33378 0.0
H7 H 0.88175 0.49756 0.38501 0.0
H8 H 0.94272 0.5098 0.36976 0.0
H9 H 0.03428 0.55346 0.38671 0.0
H10 H 0.08296 0.58489 0.42425 0.0
H11 H 0.13041 0.51867 0.39919 0.0
H12 H 0.08293 0.48935 0.36016 0.0
H13 H 0.98195 0.48066 0.37943 0.0
H14 H 0.06614 0.57737 0.32788 0.0
H15 H 0.12527 0.62688 0.31079 0.0
H16 H 0.1467 0.55112 0.26251 0.0
H17 H 0.08726 0.50103 0.28069 0.0
C18 C 0.94276 0.46203 0.27786 0.0
C19 C 0.93622 0.43403 0.25767 0.0
C20 C 0.91218 0.42617 0.23305 0.0
C21 C 0.89477 0.44662 0.22802 0.0
C22 C 0.90089 0.47419 0.24868 0.0
C23 C 0.92472 0.48187 0.27334 0.0
C24 C 0.97047 0.47234 0.30239 0.0
C25 C 0.00796 0.48979 0.294 0.0
C26 C 0.96092 0.47019 0.33354 0.0
C27 C 0.92312 0.46051 0.34364 0.0
C28 C 0.8915 0.42864 0.3341 0.0
C29 C 0.85617 0.42205 0.34216 0.0
C30 C 0.85199 0.44705 0.36014 0.0
C31 C 0.88381 0.47818 0.37049 0.0
C32 C 0.91885 0.48492 0.36217 0.0
C33 C 0.05495 0.51897 0.37089 0.0
C34 C 0.05518 0.54573 0.38946 0.0
C35 C 0.08304 0.56357 0.41104 0.0
C36 C 0.11077 0.55434 0.4151 0.0
C37 C 0.11012 0.52715 0.39648 0.0
C38 C 0.08271 0.50995 0.37437 0.0
C39 C 0.02639 0.50153 0.34703 0.0
C40 C 0.98908 0.48291 0.3555 0.0
C41 C 0.03587 0.50647 0.31593 0.0
C42 C 0.07272 0.53551 0.30603 0.0
C43 C 0.08382 0.57128 0.31408 0.0
C44 C 0.11742 0.59962 0.30393 0.0
C45 C 0.14052 0.59292 0.28514 0.0
C46 C 0.12954 0.55701 0.27717 0.0
C47 C 0.09566 0.52847 0.2874 0.0
H48 H 0.45027 0.94687 0.54009 0.0
H49 H 0.41051 0.88638 0.55934 0.0
H50 H 0.46309 0.84586 0.49867 0.0
H51 H 0.50553 0.90732 0.48177 0.0
H52 H 0.5166 0.99237 0.54172 0.0
H53 H 0.43417 0.93119 0.45687 0.0
H54 H 0.40419 0.88804 0.41531 0.0
H55 H 0.51145 0.91597 0.37899 0.0
H56 H 0.5413 0.95901 0.42076 0.0
H57 H 0.59711 0.08682 0.4413 0.0
H58 H 0.61322 0.14747 0.42346 0.0
H59 H 0.51522 0.13622 0.46714 0.0
H60 H 0.49942 0.07603 0.48476 0.0
H61 H 0.52737 0.01842 0.43123 0.0
H62 H 0.60084 0.09748 0.51268 0.0
H63 H 0.6183 0.14475 0.55095 0.0
H64 H 0.51172 0.08117 0.59432 0.0
H65 H 0.49372 0.03533 0.55505 0.0
C66 C 0.48072 0.93183 0.50906 0.0
C67 C 0.45387 0.92513 0.53132 0.0
C68 C 0.4306 0.89024 0.54202 0.0
C69 C 0.43288 0.86085 0.53023 0.0
C70 C 0.46052 0.8677 0.50853 0.0
C71 C 0.4845 0.90288 0.49837 0.0
C72 C 0.50365 0.96906 0.49685 0.0
C73 C 0.51879 -0.00203 0.51753 0.0
C74 C 0.50786 0.97663 0.46527 0.0
C75 C 0.48992 0.94806 0.44194 0.0
C76 C 0.45119 0.92754 0.44024 0.0
C77 C 0.43413 0.90311 0.41642 0.0
C78 C 0.45551 0.89876 0.39389 0.0
C79 C 0.49431 0.91852 0.39619 0.0
C80 C 0.51137 0.9432 0.4199 0.0
C81 C 0.54738 0.0773 0.46461 0.0
C82 C 0.57913 0.0975 0.44684 0.0
C83 C 0.58829 0.13203 0.43677 0.0
C84 C 0.56538 0.14644 0.44388 0.0
C85 C 0.53314 0.12565 0.46102 0.0
C86 C 0.52426 0.09144 0.47132 0.0
C87 C 0.53769 0.0412 0.4762 0.0
C88 C 0.52579 0.01269 0.45539 0.0
C89 C 0.53479 0.03388 0.5077 0.0
C90 C 0.5459 0.06283 0.53088 0.0
C91 C 0.58105 0.09402 0.53016 0.0
C92 C 0.59114 0.12087 0.55229 0.0
C93 C 0.56644 0.11685 0.5758 0.0
C94 C 0.53126 0.08559 0.57633 0.0
C95 C 0.52109 0.05901 0.55408 0.0
H96 H 0.54764 0.59514 0.72631 0.0
H97 H 0.5238 0.61334 0.76991 0.0
H98 H 0.41447 0.52285 0.75304 0.0
H99 H 0.43849 0.50464 0.71003 0.0
H100 H 0.53677 0.51882 0.72267 0.0
H101 H 0.50549 0.60068 0.65183 0.0
H102 H 0.45811 0.61313 0.63172 0.0
H103 H 0.38024 0.49823 0.62846 0.0
H104 H 0.42806 0.48636 0.64693 0.0
H105 H 0.48765 0.45672 0.60179 0.0
H106 H 0.5045 0.42867 0.56152 0.0
H107 H 0.61558 0.4774 0.59779 0.0
H108 H 0.59922 0.50768 0.63665 0.0
H109 H 0.50388 0.51894 0.61436 0.0
H110 H 0.50173 0.42921 0.67253 0.0
H111 H 0.52014 0.38595 0.68868 0.0
H112 H 0.62303 0.47345 0.7233 0.0
H113 H 0.60427 0.51699 0.70687 0.0
C114 C 0.49471 0.5488 0.71482 0.0
C115 C 0.51846 0.5796 0.73184 0.0
C116 C 0.50481 0.59002 0.7566 0.0
C117 C 0.46733 0.5694 0.76492 0.0
C118 C 0.44355 0.53906 0.74732 0.0
C119 C 0.45713 0.52882 0.72257 0.0
C120 C 0.50951 0.53568 0.69051 0.0
C121 C 0.53077 0.51996 0.69884 0.0
C122 C 0.49881 0.53411 0.65989 0.0
C123 C 0.47013 0.54267 0.65062 0.0
C124 C 0.4781 0.57838 0.64683 0.0
C125 C 0.45094 0.58535 0.63548 0.0
C126 C 0.41543 0.55665 0.62805 0.0
C127 C 0.40748 0.52099 0.63307 0.0
C128 C 0.43465 0.51411 0.64391 0.0
C129 C 0.54213 0.48445 0.62234 0.0
C130 C 0.51577 0.46171 0.60092 0.0
C131 C 0.52533 0.44516 0.57811 0.0
C132 C 0.56142 0.45055 0.57634 0.0
C133 C 0.58766 0.47295 0.5981 0.0
C134 C 0.57821 0.48996 0.62066 0.0
C135 C 0.5319 0.50257 0.64624 0.0
C136 C 0.51158 0.51921 0.63795 0.0
C137 C 0.54024 0.5017 0.67729 0.0
C138 C 0.55186 0.47623 0.68823 0.0
C139 C 0.52823 0.43909 0.68367 0.0
C140 C 0.53864 0.4144 0.69313 0.0
C141 C 0.57295 0.42635 0.70734 0.0
C142 C 0.5965 0.46359 0.71227 0.0
C143 C 0.58582 0.48839 0.70304 0.0
H144 H 0.08547 0.59209 0.77713 0.0
H145 H 0.12592 0.60858 0.73261 0.0
H146 H 0.0774 0.4954 0.7096 0.0
H147 H 0.03607 0.47953 0.75313 0.0
H148 H 0.98389 0.49615 0.76656 0.0
H149 H 0.09377 0.59204 0.85827 0.0
H150 H 0.15585 0.60731 0.87559 0.0
H151 H 0.14689 0.51638 0.82532 0.0
H152 H 0.08492 0.50072 0.80899 0.0
H153 H 0.98656 0.47145 0.89664 0.0
H154 H 0.94248 0.44903 0.93861 0.0
H155 H 0.87425 0.48306 0.89141 0.0
H156 H 0.91965 0.50753 0.85052 0.0
H157 H 0.03082 0.53027 0.87199 0.0
H158 H 0.93306 0.42396 0.83685 0.0
H159 H 0.87134 0.37489 0.82376 0.0
H160 H 0.85747 0.44595 0.76224 0.0
H161 H 0.91916 0.49535 0.77599 0.0
C162 C 0.05761 0.53464 0.76823 0.0
C163 C 0.08361 0.57094 0.76237 0.0
C164 C 0.10688 0.58027 0.73701 0.0
C165 C 0.10486 0.55337 0.71726 0.0
C166 C 0.07918 0.51696 0.72373 0.0
C167 C 0.05561 0.50776 0.74874 0.0
C168 C 0.0323 0.52453 0.79464 0.0
C169 C -0.00592 0.50424 0.78957 0.0
C170 C 0.0457 0.53293 0.82476 0.0
C171 C 0.08494 0.54555 0.83201 0.0
C172 C 0.10551 0.5758 0.85066 0.0
C173 C 0.14095 0.58455 0.86042 0.0
C174 C 0.15605 0.56287 0.85194 0.0
C175 C 0.1358 0.53334 0.83249 0.0
C176 C 0.10056 0.52466 0.82278 0.0
C177 C 0.9564 0.49103 0.87025 0.0
C178 C 0.96245 0.47469 0.89558 0.0
C179 C 0.93687 0.46135 0.9194 0.0
C180 C 0.90451 0.46384 0.91835 0.0
C181 C 0.89896 0.48093 0.89323 0.0
C182 C 0.92476 0.49464 0.86961 0.0
C183 C 0.98217 0.50275 0.84389 0.0
C184 C 0.02048 0.52342 0.84892 0.0
C185 C 0.96905 0.49184 0.81389 0.0
C186 C 0.93047 0.46337 0.80763 0.0
C187 C 0.91645 0.42918 0.821 0.0
C188 C 0.88137 0.40109 0.81327 0.0
C189 C 0.85972 0.40658 0.79188 0.0
C190 C 0.87344 0.44106 0.77901 0.0
C191 C 0.90867 0.4692 0.7867 0.0
H192 H 0.56952 0.07454 0.03157 0.0
H193 H 0.61118 0.13676 0.04685 0.0
H194 H 0.53448 0.16747 0.01071 0.0
H195 H 0.49353 0.10502 0.99438 0.0
H196 H 0.49729 0.02596 0.04609 0.0
H197 H 0.57032 0.08535 0.95777 0.0
H198 H 0.59674 0.12587 0.91424 0.0
H199 H 0.48676 0.09552 0.88327 0.0
H200 H 0.46039 0.05508 0.92716 0.0
H201 H 0.40924 0.93037 0.94639 0.0
H202 H 0.39243 0.86994 0.9274 0.0
H203 H 0.48946 0.87874 0.97074 0.0
H204 H 0.50603 0.93875 0.98946 0.0
H205 H 0.47546 -0.00321 0.93622 0.0
H206 H 0.4078 0.92096 0.01834 0.0
H207 H 0.38935 0.87351 0.05627 0.0
H208 H 0.49637 0.93476 0.09947 0.0
H209 H 0.51553 0.9807 0.06015 0.0
C210 C 0.52854 0.08522 0.01175 0.0
C211 C 0.56154 0.09465 0.02719 0.0
C212 C 0.58526 0.13029 0.03609 0.0
C213 C 0.5763 0.15732 0.0301 0.0
C214 C 0.54263 0.14755 0.01528 0.0
C215 C 0.51905 0.11184 0.00606 0.0
C216 C 0.50505 0.04765 0.00087 0.0
C217 C 0.4924 0.01946 0.02209 0.0
C218 C 0.49766 0.03934 0.96964 0.0
C219 C 0.51343 0.06747 0.94579 0.0
C220 C 0.55192 0.08809 0.94204 0.0
C221 C 0.56695 0.11096 0.91704 0.0
C222 C 0.54376 0.1136 0.89531 0.0
C223 C 0.50525 0.09417 0.8998 0.0
C224 C 0.49019 0.07102 0.92475 0.0
C225 C 0.45856 0.9387 0.96965 0.0
C226 C 0.42682 0.91919 0.95169 0.0
C227 C 0.41726 0.88476 0.94094 0.0
C228 C 0.43974 0.86976 0.94752 0.0
C229 C 0.47187 0.88978 0.965 0.0
C230 C 0.48115 0.92388 0.97597 0.0
C231 C 0.46915 0.97509 0.98134 0.0
C232 C 0.47914 0.00308 0.96032 0.0
C233 C 0.47471 0.98318 0.01276 0.0
C234 C 0.4632 0.95439 0.03614 0.0
C235 C 0.42754 0.92388 0.03565 0.0
C236 C 0.41684 0.89693 0.05768 0.0
C237 C 0.4413 0.9002 0.0811 0.0
C238 C 0.47695 0.93089 0.08157 0.0
C239 C 0.4878 0.95755 0.05928 0.0
H240 H 0.45892 0.41851 0.22277 0.0
H241 H 0.48273 0.40049 0.26641 0.0
H242 H 0.59229 0.49024 0.24888 0.0
H243 H 0.56833 0.50835 0.20591 0.0
H244 H 0.46929 0.49347 0.21989 0.0
H245 H 0.50275 0.41449 0.14899 0.0
H246 H 0.55092 0.40263 0.1298 0.0
H247 H 0.62719 0.51782 0.125 0.0
H248 H 0.57852 0.52903 0.14229 0.0
H249 H 0.51955 0.56006 0.1005 0.0
H250 H 0.50267 0.58926 0.06134 0.0
H251 H 0.39136 0.53874 0.09743 0.0
H252 H 0.40771 0.50728 0.13499 0.0
H253 H 0.50376 0.49757 0.11141 0.0
H254 H 0.50499 0.58482 0.17293 0.0
H255 H 0.48582 0.62726 0.18999 0.0
H256 H 0.38193 0.53818 0.2213 0.0
H257 H 0.4015 0.4955 0.20401 0.0
C258 C 0.51197 0.46448 0.21096 0.0
C259 C 0.48816 0.43387 0.22812 0.0
C260 C 0.50178 0.42355 0.25291 0.0
C261 C 0.5393 0.4441 0.26109 0.0
C262 C 0.56319 0.4741 0.24325 0.0
C263 C 0.54963 0.48426 0.2185 0.0
C264 C 0.49713 0.47798 0.18705 0.0
C265 C 0.47561 0.49321 0.19599 0.0
C266 C 0.50829 0.48073 0.15641 0.0
C267 C 0.53717 0.47257 0.14674 0.0
C268 C 0.52991 0.43699 0.14368 0.0
C269 C 0.55756 0.43035 0.1329 0.0
C270 C 0.59295 0.45927 0.12543 0.0
C271 C 0.6001 0.49484 0.12956 0.0
C272 C 0.5724 0.50136 0.13973 0.0
C273 C 0.46494 0.53134 0.12079 0.0
C274 C 0.49137 0.55493 0.09981 0.0
C275 C 0.4818 0.57214 0.07765 0.0
C276 C 0.44562 0.56656 0.07615 0.0
C277 C 0.41934 0.54335 0.09752 0.0
C278 C 0.42879 0.52566 0.11936 0.0
C279 C 0.47514 0.51254 0.14399 0.0
C280 C 0.49573 0.49637 0.13503 0.0
C281 C 0.46635 0.51218 0.17511 0.0
C282 C 0.45444 0.53711 0.18693 0.0
C283 C 0.47815 0.57443 0.18361 0.0
C284 C 0.46729 0.59864 0.19359 0.0
C285 C 0.43244 0.586 0.20703 0.0
C286 C 0.40888 0.54856 0.21087 0.0
C287 C 0.42001 0.52425 0.20114 0.0
C288 C 0.71142 0.42785 0.40039 0.0
O289 O 0.71054 0.45541 0.4101 0.0
Cd290 Cd 0.65683 0.45333 0.43181 0.0
O291 O 0.68282 0.39652 0.40183 0.0
Cd292 Cd 0.61774 0.3665 0.41919 0.0
C293 C 0.59834 0.41655 0.37034 0.0
O294 O 0.63203 0.40251 0.46504 0.0
O295 O 0.57411 0.36492 0.45801 0.0
O296 O 0.63128 0.31923 0.43232 0.0
C297 C 0.59912 0.38914 0.47453 0.0
O298 O 0.61723 0.44309 0.38808 0.0
C299 C 0.60158 0.29337 0.42159 0.0
O300 O 0.59507 0.38573 0.3754 0.0
O301 O 0.57902 0.30146 0.4095 0.0
C302 C 0.30063 0.57901 0.57708 0.0
O303 O 0.27331 0.55281 0.56391 0.0
Cd304 Cd 0.22087 0.55608 0.54605 0.0
O305 O 0.3024 0.60951 0.57952 0.0
Cd306 Cd 0.26733 0.63899 0.56283 0.0
C307 C 0.19901 0.58703 0.61116 0.0
O308 O 0.24373 0.60804 0.51427 0.0
O309 O 0.21693 0.63601 0.53229 0.0
O310 O 0.32796 0.68763 0.54782 0.0
C311 C 0.22033 0.61835 0.5106 0.0
O312 O 0.19017 0.56234 0.59127 0.0
C313 C 0.32367 0.71293 0.5583 0.0
O314 O 0.22814 0.61778 0.6081 0.0
O315 O 0.29313 0.70392 0.57146 0.0
C316 C 0.72066 0.28774 0.7499 0.0
O317 O 0.71915 0.25876 0.74101 0.0
Cd318 Cd 0.66369 0.20815 0.72189 0.0
O319 O 0.69221 0.29137 0.74844 0.0
Cd320 Cd 0.62696 0.25835 0.73168 0.0
C321 C 0.60679 0.19217 0.7837 0.0
O322 O 0.64003 0.23406 0.68645 0.0
O323 O 0.5824 0.21601 0.69415 0.0
O324 O 0.64018 0.31842 0.71661 0.0
C325 C 0.6069 0.21556 0.6774 0.0
O326 O 0.62527 0.18254 0.76698 0.0
C327 C 0.61106 0.31582 0.72814 0.0
O328 O 0.60379 0.2195 0.77673 0.0
O329 O 0.58911 0.28627 0.74135 0.0
C330 C 0.29422 0.58658 0.90273 0.0
O331 O 0.29565 0.55997 0.91403 0.0
Cd332 Cd 0.35 0.56337 0.93541 0.0
O333 O 0.32265 0.61815 0.90281 0.0
Cd334 Cd 0.38791 0.6504 0.92035 0.0
C335 C 0.40783 0.59931 0.87297 0.0
O336 O 0.37439 0.61572 0.96657 0.0
O337 O 0.43215 0.65358 0.95947 0.0
O338 O 0.37342 0.69731 0.93273 0.0
C339 C 0.40728 0.62944 0.97612 0.0
O340 O 0.38916 0.57326 0.8912 0.0
C341 C 0.40307 0.72329 0.92205 0.0
O342 O 0.41095 0.63022 0.87734 0.0
O343 O 0.42585 0.71538 0.91005 0.0
C344 C 0.71156 0.43898 0.0801 0.0
O345 O 0.7405 0.46632 0.06991 0.0
Cd346 Cd 0.79494 0.46506 0.0548 0.0
O347 O 0.70903 0.40804 0.08084 0.0
Cd348 Cd 0.74476 0.3787 0.06481 0.0
C349 C 0.8098 0.42628 0.11833 0.0
O350 O 0.77391 0.41575 0.02032 0.0
O351 O 0.79402 0.37994 0.03288 0.0
O352 O 0.68855 0.3317 0.04115 0.0
C353 C 0.79535 0.40352 0.01465 0.0
O354 O 0.81922 0.45363 0.10132 0.0
C355 C 0.68698 0.30568 0.0562 0.0
O356 O 0.78261 0.39543 0.11121 0.0
O357 O 0.71246 0.31351 0.07562 0.0
C358 C 0.27806 0.71593 0.24547 0.0
O359 O 0.27858 0.74465 0.23723 0.0
Cd360 Cd 0.33415 0.79815 0.22199 0.0
O361 O 0.30764 0.7142 0.24538 0.0
Cd362 Cd 0.37384 0.75078 0.2319 0.0
C363 C 0.38855 0.81415 0.28548 0.0
O364 O 0.36289 0.77693 0.18683 0.0
O365 O 0.42019 0.79579 0.19695 0.0
O366 O 0.36345 0.69234 0.21499 0.0
C367 C 0.39654 0.79682 0.17956 0.0
O368 O 0.36978 0.82319 0.26857 0.0
C369 C 0.39185 0.6948 0.22779 0.0
O370 O 0.39333 0.78794 0.27814 0.0
O371 O 0.41236 0.7237 0.24244 0.0
C372 C 0.1765 0.65524 0.2635 0.0
C373 C 0.17558 0.62366 0.27372 0.0
H374 H 0.20939 0.709 0.24668 0.0
C375 C 0.20849 0.62229 0.2739 0.0
H376 H 0.15144 0.65689 0.26263 0.0
C377 C 0.24179 0.65221 0.26463 0.0
C378 C 0.24279 0.68404 0.25493 0.0
H379 H 0.20866 0.59842 0.28188 0.0
H380 H 0.26681 0.65046 0.26535 0.0
C381 C 0.2097 0.6851 0.25425 0.0
C382 C 0.61167 0.21239 0.44022 0.0
C383 C 0.5757 0.18369 0.43489 0.0
H384 H 0.64801 0.26964 0.44029 0.0
C385 C 0.54897 0.19117 0.42306 0.0
H386 H 0.63273 0.20743 0.44954 0.0
C387 C 0.55769 0.22678 0.41769 0.0
C388 C 0.59321 0.25558 0.42434 0.0
H389 H 0.52111 0.16947 0.41846 0.0
H390 H 0.53629 0.23177 0.40923 0.0
C391 C 0.62031 0.24801 0.43512 0.0
C392 C 0.36268 0.5399 0.59203 0.0
C393 C 0.38682 0.56338 0.61444 0.0
H394 H 0.31653 0.52626 0.56292 0.0
C395 C 0.38294 0.59275 0.62385 0.0
H396 H 0.3654 0.51755 0.58359 0.0
C397 C 0.35525 0.59817 0.61144 0.0
C398 C 0.33063 0.57408 0.58963 0.0
H399 H 0.40077 0.61116 0.64126 0.0
H400 H 0.35269 0.62081 0.61938 0.0
C401 C 0.33474 0.545 0.57999 0.0
C402 C 0.82048 0.34236 0.77527 0.0
C403 C 0.82373 0.37596 0.78198 0.0
H404 H 0.78551 0.28823 0.75984 0.0
C405 C 0.79268 0.38021 0.77857 0.0
H406 H 0.84411 0.33844 0.77733 0.0
C407 C 0.75907 0.35142 0.7685 0.0
C408 C 0.75591 0.31789 0.76145 0.0
H409 H 0.79436 0.40574 0.78382 0.0
H410 H 0.73563 0.3556 0.76599 0.0
C411 C 0.78697 0.31364 0.76507 0.0
C412 C 0.45594 0.82542 0.92529 0.0
C413 C 0.42922 0.83275 0.93748 0.0
H414 H 0.4685 0.78504 0.91045 0.0
C415 C 0.39307 0.80405 0.94213 0.0
H416 H 0.48392 0.84713 0.92115 0.0
C417 C 0.38428 0.76852 0.93616 0.0
C418 C 0.41139 0.76105 0.92516 0.0
H419 H 0.372 0.80889 0.95167 0.0
H420 H 0.35647 0.74684 0.94094 0.0
C421 C 0.44706 0.78992 0.91905 0.0
C422 C 0.62623 0.4237 0.12317 0.0
C423 C 0.62238 0.45286 0.11304 0.0
H424 H 0.65737 0.39631 0.12055 0.0
C425 C 0.64751 0.47654 0.09123 0.0
H426 H 0.60772 0.40515 0.14016 0.0
C427 C 0.67642 0.472 0.08065 0.0
C428 C 0.68046 0.44317 0.09104 0.0
H429 H 0.64489 0.49869 0.08217 0.0
H430 H 0.69543 0.49093 0.06408 0.0
C431 C 0.65481 0.41875 0.11208 0.0
C432 C 0.36864 0.81357 0.54616 0.0
C433 C 0.40552 0.82322 0.53957 0.0
H434 H 0.31413 0.77136 0.55779 0.0
C435 C 0.41548 0.7963 0.54101 0.0
H436 H 0.35952 0.83318 0.54471 0.0
C437 C 0.38901 0.76056 0.5477 0.0
C438 C 0.3522 0.75107 0.55374 0.0
H439 H 0.44368 0.8027 0.53679 0.0
H440 H 0.39733 0.74028 0.54798 0.0
C441 C 0.34242 0.77801 0.55351 0.0
C442 C 0.61936 0.40553 0.7075 0.0
C443 C 0.58429 0.39976 0.71572 0.0
H444 H 0.65526 0.38336 0.70483 0.0
C445 C 0.55903 0.36712 0.72989 0.0
H446 H 0.63924 0.43032 0.69633 0.0
C447 C 0.56813 0.34024 0.73475 0.0
C448 C 0.60259 0.34537 0.72535 0.0
H449 H 0.53194 0.36215 0.73676 0.0
H450 H 0.54777 0.31508 0.74515 0.0
C451 C 0.62838 0.37853 0.71217 0.0
C452 C 0.19489 0.54024 0.87574 0.0
C453 C 0.19168 0.56939 0.86477 0.0
H454 H 0.22954 0.52277 0.89629 0.0
C455 C 0.22245 0.60443 0.86644 0.0
H456 H 0.17145 0.51297 0.87522 0.0
C457 C 0.25588 0.61008 0.87863 0.0
C458 C 0.25907 0.58085 0.88957 0.0
H459 H 0.22077 0.62734 0.85802 0.0
H460 H 0.27921 0.63743 0.87953 0.0
C461 C 0.22815 0.54587 0.88801 0.0
C462 C 0.60782 0.22381 0.01858 0.0
C463 C 0.60287 0.19568 0.03807 0.0
H464 H 0.63806 0.28046 0.0091 0.0
C465 C 0.62489 0.20442 0.06442 0.0
H466 H 0.59188 0.21819 0.99786 0.0
C467 C 0.652 0.24016 0.07051 0.0
C468 C 0.65734 0.26803 0.05065 0.0
H469 H 0.62139 0.18362 0.08032 0.0
H470 H 0.66886 0.24592 0.09073 0.0
C471 C 0.63457 0.25956 0.02489 0.0
C472 C 0.38562 0.60621 0.20623 0.0
C473 C 0.42039 0.61206 0.21545 0.0
H474 H 0.34943 0.62796 0.20274 0.0
C475 C 0.44477 0.64437 0.23054 0.0
H476 H 0.36644 0.58169 0.19433 0.0
C477 C 0.4351 0.67089 0.23536 0.0
C478 C 0.40097 0.6657 0.22495 0.0
H479 H 0.47162 0.6494 0.23814 0.0
H480 H 0.45477 0.69582 0.24649 0.0
C481 C 0.37606 0.63284 0.21083 0.0
C482 C 0.78569 0.40679 0.37601 0.0
C483 C 0.81484 0.44128 0.36824 0.0
H484 H 0.73 0.37544 0.39221 0.0
C485 C 0.8088 0.47081 0.36946 0.0
H486 H 0.78948 0.38352 0.37553 0.0
C487 C 0.77507 0.46632 0.37951 0.0
C488 C 0.74632 0.43207 0.38812 0.0
H489 H 0.83029 0.49761 0.36285 0.0
H490 H 0.7716 0.48976 0.38067 0.0
C491 C 0.75169 0.40221 0.38571 0.0
C492 C 0.17565 0.5779 0.43497 0.0
C493 C 0.13971 0.57246 0.439 0.0
H494 H 0.22924 0.59646 0.45457 0.0
C495 C 0.13139 0.58389 0.46645 0.0
H496 H 0.18353 0.57035 0.41397 0.0
C497 C 0.15806 0.6 0.4892 0.0
C498 C 0.19341 0.60427 0.48543 0.0
H499 H 0.10396 0.57958 0.47086 0.0
H500 H 0.15052 0.60792 0.51022 0.0
C501 C 0.20205 0.59322 0.45809 0.0
C502 C 0.55166 0.15236 0.61331 0.0
C503 C 0.57757 0.14429 0.60041 0.0
H504 H 0.54055 0.18108 0.6478 0.0
C505 C 0.61374 0.1614 0.61221 0.0
H506 H 0.52378 0.14031 0.60442 0.0
C507 C 0.62348 0.18524 0.63673 0.0
C508 C 0.59718 0.19223 0.65022 0.0
H509 H 0.63431 0.15552 0.60318 0.0
H510 H 0.65136 0.1974 0.64565 0.0
C511 C 0.56129 0.17588 0.63806 0.0
C512 C 0.46175 0.61341 0.79958 0.0
C513 C 0.45327 0.57791 0.79287 0.0
H514 H 0.45385 0.64817 0.83011 0.0
C515 C 0.43095 0.55006 0.81312 0.0
H516 H 0.47888 0.63538 0.78431 0.0
C517 C 0.41687 0.5573 0.83924 0.0
C518 C 0.42455 0.5926 0.84576 0.0
H519 H 0.42448 0.52255 0.80883 0.0
H520 H 0.39954 0.53498 0.85413 0.0
C521 C 0.44734 0.62067 0.82572 0.0
C522 C 0.86863 0.41578 0.95744 0.0
C523 C 0.87647 0.44829 0.94311 0.0
H524 H 0.83692 0.37617 0.99127 0.0
C525 C 0.85703 0.46564 0.95248 0.0
H526 H 0.88249 0.40127 0.95048 0.0
C527 C 0.83038 0.45082 0.97542 0.0
C528 C 0.82286 0.41854 0.98983 0.0
H529 H 0.8627 0.49099 0.94239 0.0
H530 H 0.81608 0.46499 0.98219 0.0
C531 C 0.84228 0.4012 0.98067 0.0
C532 C 0.45469 0.86346 0.11837 0.0
C533 C 0.42942 0.87235 0.10543 0.0
H534 H 0.46418 0.83278 0.15199 0.0
C535 C 0.3929 0.8551 0.11657 0.0
H536 H 0.48282 0.87559 0.11002 0.0
C537 C 0.38208 0.83 0.14018 0.0
C538 C 0.40762 0.82192 0.15353 0.0
H539 H 0.37279 0.86161 0.10762 0.0
H540 H 0.3539 0.81761 0.14849 0.0
C541 C 0.44398 0.83874 0.1423 0.0
C542 C 0.5447 0.40079 0.29663 0.0
C543 C 0.55323 0.43614 0.28933 0.0
H544 H 0.55247 0.36671 0.32795 0.0
C545 C 0.5754 0.46442 0.3093 0.0
H546 H 0.52764 0.3785 0.28159 0.0
C547 C 0.58934 0.45776 0.33573 0.0
C548 C 0.58165 0.42262 0.34285 0.0
H549 H 0.58187 0.49183 0.30456 0.0
H550 H 0.60658 0.4804 0.35039 0.0
C551 C 0.55897 0.3941 0.3231 0.0
C552 C 0.44861 0.85175 0.3559 0.0
C553 C 0.43745 0.87568 0.36696 0.0
H554 H 0.4416 0.81312 0.32163 0.0
C555 C 0.40968 0.87858 0.35142 0.0
H556 H 0.46987 0.8489 0.36753 0.0
C557 C 0.39377 0.85845 0.32513 0.0
C558 C 0.40499 0.83464 0.31387 0.0
H559 H 0.40085 0.89713 0.3592 0.0
H560 H 0.37271 0.86169 0.31357 0.0
C561 C 0.43233 0.83121 0.32972 0.0
C562 C 0.60709 0.45253 0.53788 0.0
C563 C 0.57179 0.43376 0.55134 0.0
H564 H 0.64343 0.45301 0.50329 0.0
C565 C 0.5461 0.39936 0.53996 0.0
H566 H 0.62744 0.47928 0.54559 0.0
C567 C 0.55507 0.38467 0.5152 0.0
C568 C 0.59013 0.40375 0.50159 0.0
H569 H 0.51895 0.38371 0.55011 0.0
H570 H 0.53452 0.35838 0.50669 0.0
C571 C 0.61623 0.43757 0.51345 0.0
C572 C 0.16569 0.59204 0.69035 0.0
C573 C 0.129 0.563 0.68985 0.0
H574 H 0.21657 0.62261 0.66585 0.0
C575 C 0.11551 0.5428 0.66291 0.0
H576 H 0.17723 0.60795 0.71076 0.0
C577 C 0.13828 0.55074 0.63748 0.0
C578 C 0.17497 0.57949 0.63809 0.0
H579 H 0.08718 0.52086 0.6613 0.0
H580 H 0.12697 0.53443 0.61722 0.0
C581 C 0.18834 0.60035 0.66466 0.0
C582 C 0.54875 0.15812 0.85557 0.0
C583 C 0.55967 0.13415 0.86687 0.0
H584 H 0.55534 0.19566 0.82045 0.0
C585 C 0.58558 0.1291 0.85046 0.0
H586 H 0.52879 0.16247 0.86783 0.0
C587 C 0.6004 0.14763 0.82335 0.0
C588 C 0.58996 0.17199 0.81211 0.0
H589 H 0.59407 0.11037 0.8584 0.0
H590 H 0.62036 0.14305 0.81135 0.0
C591 C 0.564 0.17712 0.82853 0.0
C592 C 0.39981 0.56516 0.03826 0.0
C593 C 0.43511 0.58382 0.0517 0.0
H594 H 0.36331 0.5651 0.00413 0.0
C595 C 0.46064 0.61851 0.04078 0.0
H596 H 0.37959 0.53819 0.04558 0.0
C597 C 0.45151 0.63358 0.01644 0.0
C598 C 0.41645 0.61458 0.00284 0.0
H599 H 0.48779 0.63407 0.05094 0.0
H600 H 0.47193 0.66007 0.00823 0.0
C601 C 0.39051 0.58049 0.01429 0.0
C602 C 0.84597 0.40592 0.19055 0.0
C603 C 0.8722 0.44087 0.20032 0.0
H604 H 0.80526 0.37375 0.1571 0.0
C605 C 0.87751 0.47068 0.18305 0.0
H606 H 0.84122 0.38247 0.20351 0.0
C607 C 0.85721 0.46579 0.15656 0.0
C608 C 0.83087 0.43091 0.14671 0.0
H609 H 0.89792 0.49791 0.18975 0.0
H610 H 0.86225 0.48945 0.14381 0.0
C611 C 0.82533 0.401 0.16407 0.0
loop_
_geom_bond_atom_site_label_1
_geom_bond_atom_site_label_2
_geom_bond_distance
_geom_bond_site_symmetry_2
_ccdc_geom_bond_type
H0 C19 0.949 . S
H1 C20 0.950 . S
H2 C22 0.950 . S
H3 C23 0.950 . S
H4 C25 0.950 . S
H5 C28 0.950 . S
H6 C29 0.950 . S
H7 C31 0.951 . S
H8 C32 0.949 . S
H9 C34 0.949 . S
H10 C35 0.950 . S
H11 C37 0.950 . S
H12 C38 0.950 . S
H13 C40 0.950 1_655 S
H14 C43 0.950 . S
H15 C44 0.950 . S
H16 C46 0.951 . S
H17 C47 0.949 . S
C18 C19 1.376 . S
C18 C23 1.386 . S
C18 C24 1.483 . S
C19 H0 0.949 . S
C19 C18 1.376 . S
C19 C20 1.397 . S
C20 H1 0.950 . S
C20 C19 1.397 . S
C20 C21 1.391 . S
C21 C20 1.391 . S
C21 C22 1.405 . S
C22 H2 0.950 . S
C22 C21 1.405 . S
C22 C23 1.367 . S
C23 H3 0.950 . S
C23 C18 1.386 . S
C23 C22 1.367 . S
C24 C18 1.483 . S
C24 C25 1.382 1_655 S
C24 C26 1.403 . S
C25 H4 0.950 . S
C25 C24 1.382 1_455 S
C25 C41 1.411 . S
C26 C24 1.403 . S
C26 C27 1.489 . S
C26 C40 1.411 1_655 S
C27 C26 1.489 . S
C27 C28 1.383 . S
C27 C32 1.382 . S
C28 H5 0.950 . S
C28 C27 1.383 . S
C28 C29 1.395 . S
C29 H6 0.950 . S
C29 C28 1.395 . S
C29 C30 1.288 . S
C30 C29 1.288 . S
C30 C31 1.392 . S
C31 H7 0.951 . S
C31 C30 1.392 . S
C31 C32 1.392 . S
C32 H8 0.949 . S
C32 C27 1.382 . S
C32 C31 1.392 . S
C33 C34 1.376 . S
C33 C38 1.386 . S
C33 C39 1.483 . S
C34 H9 0.949 . S
C34 C33 1.376 . S
C34 C35 1.397 . S
C35 H10 0.950 . S
C35 C34 1.397 . S
C35 C36 1.391 . S
C36 C35 1.391 . S
C36 C37 1.405 . S
C37 H11 0.950 . S
C37 C36 1.405 . S
C37 C38 1.367 . S
C38 H12 0.950 . S
C38 C33 1.386 . S
C38 C37 1.367 . S
C39 C33 1.483 . S
C39 C40 1.382 . S
C39 C41 1.403 . S
C40 H13 0.950 1_455 S
C40 C26 1.411 1_455 S
C40 C39 1.382 . S
C41 C25 1.411 . S
C41 C39 1.403 . S
C41 C42 1.489 . S
C42 C41 1.489 . S
C42 C43 1.383 . S
C42 C47 1.382 . S
C43 H14 0.950 . S
C43 C42 1.383 . S
C43 C44 1.395 . S
C44 H15 0.950 . S
C44 C43 1.395 . S
C44 C45 1.288 . S
C45 C44 1.288 . S
C45 C46 1.392 . S
C46 H16 0.951 . S
C46 C45 1.392 . S
C46 C47 1.392 . S
C47 H17 0.949 . S
C47 C42 1.382 . S
C47 C46 1.392 . S
H48 C67 0.949 . S
H49 C68 0.950 . S
H50 C70 0.950 . S
H51 C71 0.950 . S
H52 C73 0.950 . S
H53 C76 0.950 . S
H54 C77 0.950 . S
H55 C79 0.951 . S
H56 C80 0.949 . S
H57 C82 0.949 . S
H58 C83 0.950 . S
H59 C85 0.950 . S
H60 C86 0.950 . S
H61 C88 0.950 . S
H62 C91 0.950 . S
H63 C92 0.950 . S
H64 C94 0.951 . S
H65 C95 0.949 . S
C66 C67 1.376 . S
C66 C71 1.386 . S
C66 C72 1.483 . S
C67 H48 0.949 . S
C67 C66 1.376 . S
C67 C68 1.397 . S
C68 H49 0.950 . S
C68 C67 1.397 . S
C68 C69 1.391 . S
C69 C68 1.391 . S
C69 C70 1.405 . S
C70 H50 0.950 . S
C70 C69 1.405 . S
C70 C71 1.367 . S
C71 H51 0.950 . S
C71 C66 1.386 . S
C71 C70 1.367 . S
C72 C66 1.483 . S
C72 C73 1.382 . S
C72 C74 1.403 . S
C73 H52 0.950 . S
C73 C72 1.382 . S
C73 C89 1.410 1_565 S
C74 C72 1.403 . S
C74 C75 1.489 . S
C74 C88 1.411 1_565 S
C75 C74 1.489 . S
C75 C76 1.383 . S
C75 C80 1.382 . S
C76 H53 0.950 . S
C76 C75 1.383 . S
C76 C77 1.395 . S
C77 H54 0.950 . S
C77 C76 1.395 . S
C77 C78 1.288 . S
C78 C77 1.288 . S
C78 C79 1.392 . S
C79 H55 0.951 . S
C79 C78 1.392 . S
C79 C80 1.392 . S
C80 H56 0.949 . S
C80 C75 1.382 . S
C80 C79 1.392 . S
C81 C82 1.376 . S
C81 C86 1.386 . S
C81 C87 1.483 . S
C82 H57 0.949 . S
C82 C81 1.376 . S
C82 C83 1.397 . S
C83 H58 0.950 . S
C83 C82 1.397 . S
C83 C84 1.391 . S
C84 C83 1.391 . S
C84 C85 1.405 . S
C85 H59 0.950 . S
C85 C84 1.405 . S
C85 C86 1.367 . S
C86 H60 0.950 . S
C86 C81 1.386 . S
C86 C85 1.367 . S
C87 C81 1.483 . S
C87 C88 1.382 . S
C87 C89 1.403 . S
C88 H61 0.950 . S
C88 C74 1.411 1_545 S
C88 C87 1.382 . S
C89 C73 1.410 1_545 S
C89 C87 1.403 . S
C89 C90 1.489 . S
C90 C89 1.489 . S
C90 C91 1.383 . S
C90 C95 1.382 . S
C91 H62 0.950 . S
C91 C90 1.383 . S
C91 C92 1.395 . S
C92 H63 0.950 . S
C92 C91 1.395 . S
C92 C93 1.288 . S
C93 C92 1.288 . S
C93 C94 1.392 . S
C94 H64 0.951 . S
C94 C93 1.392 . S
C94 C95 1.392 . S
C95 H65 0.949 . S
C95 C90 1.382 . S
C95 C94 1.392 . S
H96 C115 0.949 . S
H97 C116 0.950 . S
H98 C118 0.950 . S
H99 C119 0.950 . S
H100 C121 0.950 . S
H101 C124 0.950 . S
H102 C125 0.950 . S
H103 C127 0.951 . S
H104 C128 0.949 . S
H105 C130 0.949 . S
H106 C131 0.950 . S
H107 C133 0.950 . S
H108 C134 0.950 . S
H109 C136 0.950 . S
H110 C139 0.950 . S
H111 C140 0.950 . S
H112 C142 0.951 . S
H113 C143 0.949 . S
C114 C115 1.376 . S
C114 C119 1.386 . S
C114 C120 1.483 . S
C115 H96 0.949 . S
C115 C114 1.376 . S
C115 C116 1.397 . S
C116 H97 0.950 . S
C116 C115 1.397 . S
C116 C117 1.391 . S
C117 C116 1.391 . S
C117 C118 1.405 . S
C118 H98 0.950 . S
C118 C117 1.405 . S
C118 C119 1.367 . S
C119 H99 0.950 . S
C119 C114 1.386 . S
C119 C118 1.367 . S
C120 C114 1.483 . S
C120 C121 1.382 . S
C120 C122 1.403 . S
C121 H100 0.950 . S
C121 C120 1.382 . S
C121 C137 1.411 . S
C122 C120 1.403 . S
C122 C123 1.489 . S
C122 C136 1.411 . S
C123 C122 1.489 . S
C123 C124 1.383 . S
C123 C128 1.382 . S
C124 H101 0.950 . S
C124 C123 1.383 . S
C124 C125 1.395 . S
C125 H102 0.950 . S
C125 C124 1.395 . S
C125 C126 1.288 . S
C126 C125 1.288 . S
C126 C127 1.392 . S
C127 H103 0.951 . S
C127 C126 1.392 . S
C127 C128 1.392 . S
C128 H104 0.949 . S
C128 C123 1.382 . S
C128 C127 1.392 . S
C129 C130 1.376 . S
C129 C134 1.386 . S
C129 C135 1.483 . S
C130 H105 0.949 . S
C130 C129 1.376 . S
C130 C131 1.397 . S
C131 H106 0.950 . S
C131 C130 1.397 . S
C131 C132 1.391 . S
C132 C131 1.391 . S
C132 C133 1.405 . S
C133 H107 0.950 . S
C133 C132 1.405 . S
C133 C134 1.367 . S
C134 H108 0.950 . S
C134 C129 1.386 . S
C134 C133 1.367 . S
C135 C129 1.483 . S
C135 C136 1.382 . S
C135 C137 1.403 . S
C136 H109 0.950 . S
C136 C122 1.411 . S
C136 C135 1.382 . S
C137 C121 1.411 . S
C137 C135 1.403 . S
C137 C138 1.489 . S
C138 C137 1.489 . S
C138 C139 1.383 . S
C138 C143 1.382 . S
C139 H110 0.950 . S
C139 C138 1.383 . S
C139 C140 1.395 . S
C140 H111 0.950 . S
C140 C139 1.395 . S
C140 C141 1.288 . S
C141 C140 1.288 . S
C141 C142 1.392 . S
C142 H112 0.951 . S
C142 C141 1.392 . S
C142 C143 1.392 . S
C143 H113 0.949 . S
C143 C138 1.382 . S
C143 C142 1.392 . S
H144 C163 0.949 . S
H145 C164 0.950 . S
H146 C166 0.950 . S
H147 C167 0.950 . S
H148 C169 0.950 . S
H149 C172 0.950 . S
H150 C173 0.950 . S
H151 C175 0.951 . S
H152 C176 0.949 . S
H153 C178 0.949 . S
H154 C179 0.950 . S
H155 C181 0.950 . S
H156 C182 0.950 . S
H157 C184 0.950 . S
H158 C187 0.950 . S
H159 C188 0.950 . S
H160 C190 0.951 . S
H161 C191 0.949 . S
C162 C163 1.376 . S
C162 C167 1.386 . S
C162 C168 1.483 . S
C163 H144 0.949 . S
C163 C162 1.376 . S
C163 C164 1.397 . S
C164 H145 0.950 . S
C164 C163 1.397 . S
C164 C165 1.391 . S
C165 C164 1.391 . S
C165 C166 1.405 . S
C166 H146 0.950 . S
C166 C165 1.405 . S
C166 C167 1.367 . S
C167 H147 0.950 . S
C167 C162 1.386 . S
C167 C166 1.367 . S
C168 C162 1.483 . S
C168 C169 1.382 1_455 S
C168 C170 1.403 . S
C169 H148 0.950 . S
C169 C168 1.382 1_655 S
C169 C185 1.411 . S
C170 C168 1.403 . S
C170 C171 1.489 . S
C170 C184 1.411 . S
C171 C170 1.489 . S
C171 C172 1.383 . S
C171 C176 1.382 . S
C172 H149 0.950 . S
C172 C171 1.383 . S
C172 C173 1.395 . S
C173 H150 0.950 . S
C173 C172 1.395 . S
C173 C174 1.288 . S
C174 C173 1.288 . S
C174 C175 1.392 . S
C175 H151 0.951 . S
C175 C174 1.392 . S
C175 C176 1.392 . S
C176 H152 0.949 . S
C176 C171 1.382 . S
C176 C175 1.392 . S
C177 C178 1.376 . S
C177 C182 1.386 . S
C177 C183 1.483 . S
C178 H153 0.949 . S
C178 C177 1.376 . S
C178 C179 1.397 . S
C179 H154 0.950 . S
C179 C178 1.397 . S
C179 C180 1.391 . S
C180 C179 1.391 . S
C180 C181 1.405 . S
C181 H155 0.950 . S
C181 C180 1.405 . S
C181 C182 1.367 . S
C182 H156 0.950 . S
C182 C177 1.386 . S
C182 C181 1.367 . S
C183 C177 1.483 . S
C183 C184 1.382 1_655 S
C183 C185 1.403 . S
C184 H157 0.950 . S
C184 C170 1.411 . S
C184 C183 1.382 1_455 S
C185 C169 1.411 . S
C185 C183 1.403 . S
C185 C186 1.489 . S
C186 C185 1.489 . S
C186 C187 1.383 . S
C186 C191 1.382 . S
C187 H158 0.950 . S
C187 C186 1.383 . S
C187 C188 1.395 . S
C188 H159 0.950 . S
C188 C187 1.395 . S
C188 C189 1.288 . S
C189 C188 1.288 . S
C189 C190 1.392 . S
C190 H160 0.951 . S
C190 C189 1.392 . S
C190 C191 1.392 . S
C191 H161 0.949 . S
C191 C186 1.382 . S
C191 C190 1.392 . S
H192 C211 0.949 . S
H193 C212 0.950 . S
H194 C214 0.950 . S
H195 C215 0.950 1_556 S
H196 C217 0.950 . S
H197 C220 0.950 . S
H198 C221 0.950 . S
H199 C223 0.951 . S
H200 C224 0.949 . S
H201 C226 0.949 . S
H202 C227 0.950 . S
H203 C229 0.950 . S
H204 C230 0.959 . S
H205 C232 0.950 . S
H206 C235 0.950 . S
H207 C236 0.950 . S
H208 C238 0.951 . S
H209 C239 0.949 . S
C210 C211 1.376 . S
C210 C215 1.386 . S
C210 C216 1.489 . S
C211 H192 0.949 . S
C211 C210 1.376 . S
C211 C212 1.397 . S
C212 H193 0.950 . S
C212 C211 1.397 . S
C212 C213 1.391 . S
C213 C212 1.391 . S
C213 C214 1.405 . S
C214 H194 0.950 . S
C214 C213 1.405 . S
C214 C215 1.367 . S
C215 H195 0.950 1_554 S
C215 C210 1.386 . S
C215 C214 1.367 . S
C216 C210 1.489 . S
C216 C217 1.399 . S
C216 C218 1.381 1_554 S
C217 H196 0.950 . S
C217 C216 1.399 . S
C217 C233 1.411 1_545 S
C218 C216 1.381 1_556 S
C218 C219 1.489 . S
C218 C232 1.411 1_545 S
C219 C218 1.489 . S
C219 C220 1.383 . S
C219 C224 1.382 . S
C220 H197 0.950 . S
C220 C219 1.383 . S
C220 C221 1.395 . S
C221 H198 0.950 . S
C221 C220 1.395 . S
C221 C222 1.288 . S
C222 C221 1.288 . S
C222 C223 1.392 . S
C223 H199 0.951 . S
C223 C222 1.392 . S
C223 C224 1.392 . S
C224 H200 0.949 . S
C224 C219 1.382 . S
C224 C223 1.392 . S
C225 C226 1.376 . S
C225 C230 1.386 . S
C225 C231 1.483 . S
C226 H201 0.949 . S
C226 C225 1.376 . S
C226 C227 1.397 . S
C227 H202 0.950 . S
C227 C226 1.397 . S
C227 C228 1.391 . S
C228 C227 1.391 . S
C228 C229 1.405 . S
C229 H203 0.950 . S
C229 C228 1.405 . S
C229 C230 1.367 . S
C230 H204 0.959 . S
C230 C225 1.386 . S
C230 C229 1.367 . S
C231 C225 1.483 . S
C231 C232 1.382 . S
C231 C233 1.403 1_556 S
C232 H205 0.950 . S
C232 C218 1.411 1_565 S
C232 C231 1.382 . S
C233 C217 1.411 1_565 S
C233 C231 1.403 1_554 S
C233 C234 1.489 . S
C234 C233 1.489 . S
C234 C235 1.383 . S
C234 C239 1.382 . S
C235 H206 0.950 . S
C235 C234 1.383 . S
C235 C236 1.395 . S
C236 H207 0.950 . S
C236 C235 1.395 . S
C236 C237 1.288 . S
C237 C236 1.288 . S
C237 C238 1.392 . S
C238 H208 0.951 . S
C238 C237 1.392 . S
C238 C239 1.392 . S
C239 H209 0.949 . S
C239 C234 1.382 . S
C239 C238 1.392 . S
H240 C259 0.949 . S
H241 C260 0.950 . S
H242 C262 0.950 . S
H243 C263 0.950 . S
H244 C265 0.950 . S
H245 C268 0.950 . S
H246 C269 0.950 . S
H247 C271 0.951 . S
H248 C272 0.949 . S
H249 C274 0.949 . S
H250 C275 0.950 . S
H251 C277 0.950 . S
H252 C278 0.950 . S
H253 C280 0.950 . S
H254 C283 0.950 . S
H255 C284 0.950 . S
H256 C286 0.951 . S
H257 C287 0.949 . S
C258 C259 1.376 . S
C258 C263 1.386 . S
C258 C264 1.483 . S
C259 H240 0.949 . S
C259 C258 1.376 . S
C259 C260 1.397 . S
C260 H241 0.950 . S
C260 C259 1.397 . S
C260 C261 1.391 . S
C261 C260 1.391 . S
C261 C262 1.405 . S
C262 H242 0.950 . S
C262 C261 1.405 . S
C262 C263 1.367 . S
C263 H243 0.950 . S
C263 C258 1.386 . S
C263 C262 1.367 . S
C264 C258 1.483 . S
C264 C265 1.382 . S
C264 C266 1.403 . S
C265 H244 0.950 . S
C265 C264 1.382 . S
C265 C281 1.411 . S
C266 C264 1.403 . S
C266 C267 1.489 . S
C266 C280 1.411 . S
C267 C266 1.489 . S
C267 C268 1.383 . S
C267 C272 1.382 . S
C268 H245 0.950 . S
C268 C267 1.383 . S
C268 C269 1.395 . S
C269 H246 0.950 . S
C269 C268 1.395 . S
C269 C270 1.288 . S
C270 C269 1.288 . S
C270 C271 1.392 . S
C271 H247 0.951 . S
C271 C270 1.392 . S
C271 C272 1.392 . S
C272 H248 0.949 . S
C272 C267 1.382 . S
C272 C271 1.392 . S
C273 C274 1.376 . S
C273 C278 1.386 . S
C273 C279 1.483 . S
C274 H249 0.949 . S
C274 C273 1.376 . S
C274 C275 1.397 . S
C275 H250 0.950 . S
C275 C274 1.397 . S
C275 C276 1.391 . S
C276 C275 1.391 . S
C276 C277 1.405 . S
C277 H251 0.950 . S
C277 C276 1.405 . S
C277 C278 1.367 . S
C278 H252 0.950 . S
C278 C273 1.386 . S
C278 C277 1.367 . S
C279 C273 1.483 . S
C279 C280 1.382 . S
C279 C281 1.403 . S
C280 H253 0.950 . S
C280 C266 1.411 . S
C280 C279 1.382 . S
C281 C265 1.411 . S
C281 C279 1.403 . S
C281 C282 1.489 . S
C282 C281 1.489 . S
C282 C283 1.383 . S
C282 C287 1.382 . S
C283 H254 0.950 . S
C283 C282 1.383 . S
C283 C284 1.395 . S
C284 H255 0.950 . S
C284 C283 1.395 . S
C284 C285 1.288 . S
C285 C284 1.288 . S
C285 C286 1.392 . S
C286 H256 0.951 . S
C286 C285 1.392 . S
C286 C287 1.392 . S
C287 H257 0.949 . S
C287 C282 1.382 . S
C287 C286 1.392 . S
C288 O289 1.306 . S
C288 O291 1.160 . S
O289 C288 1.306 . S
O289 Cd290 2.228 . S
Cd290 O289 2.228 . S
Cd290 O294 2.273 . S
Cd290 O298 2.277 . S
O291 C288 1.160 . S
O291 Cd292 2.203 . S
Cd292 O291 2.203 . S
Cd292 O294 2.411 . S
Cd292 O295 2.333 . S
Cd292 O296 2.352 . S
Cd292 O300 2.277 . S
Cd292 O301 2.356 . S
C293 O298 1.209 . S
C293 O300 1.226 . S
O294 Cd290 2.273 . S
O294 Cd292 2.411 . S
O294 C297 1.320 . S
O295 Cd292 2.333 . S
O295 C297 1.214 . S
O296 Cd292 2.352 . S
O296 C299 1.258 . S
C297 O294 1.320 . S
C297 O295 1.214 . S
O298 Cd290 2.277 . S
O298 C293 1.209 . S
C299 O296 1.258 . S
C299 O301 1.282 . S
O300 Cd292 2.277 . S
O300 C293 1.226 . S
O301 Cd292 2.356 . S
O301 C299 1.282 . S
C302 O303 1.306 . S
C302 O305 1.160 . S
O303 C302 1.306 . S
O303 Cd304 2.228 . S
Cd304 O303 2.228 . S
Cd304 O308 2.273 . S
Cd304 O312 2.277 . S
O305 C302 1.160 . S
O305 Cd306 2.203 . S
Cd306 O305 2.203 . S
Cd306 O308 2.411 . S
Cd306 O309 2.333 . S
Cd306 O310 2.352 . S
Cd306 O314 2.277 . S
Cd306 O315 2.356 . S
C307 O312 1.209 . S
C307 O314 1.226 . S
O308 Cd304 2.273 . S
O308 Cd306 2.411 . S
O308 C311 1.320 . S
O309 Cd306 2.333 . S
O309 C311 1.214 . S
O310 Cd306 2.352 . S
O310 C313 1.258 . S
C311 O308 1.320 . S
C311 O309 1.214 . S
O312 Cd304 2.277 . S
O312 C307 1.209 . S
C313 O310 1.258 . S
C313 O315 1.282 . S
O314 Cd306 2.277 . S
O314 C307 1.226 . S
O315 Cd306 2.356 . S
O315 C313 1.282 . S
C316 O317 1.306 . S
C316 O319 1.160 . S
O317 C316 1.306 . S
O317 Cd318 2.228 . S
Cd318 O317 2.228 . S
Cd318 O322 2.273 . S
Cd318 O326 2.277 . S
O319 C316 1.160 . S
O319 Cd320 2.203 . S
Cd320 O319 2.203 . S
Cd320 O322 2.411 . S
Cd320 O323 2.333 . S
Cd320 O324 2.352 . S
Cd320 O328 2.277 . S
Cd320 O329 2.356 . S
C321 O326 1.209 . S
C321 O328 1.226 . S
O322 Cd318 2.273 . S
O322 Cd320 2.411 . S
O322 C325 1.320 . S
O323 Cd320 2.333 . S
O323 C325 1.214 . S
O324 Cd320 2.352 . S
O324 C327 1.258 . S
C325 O322 1.320 . S
C325 O323 1.214 . S
O326 Cd318 2.277 . S
O326 C321 1.209 . S
C327 O324 1.258 . S
C327 O329 1.282 . S
O328 Cd320 2.277 . S
O328 C321 1.226 . S
O329 Cd320 2.356 . S
O329 C327 1.282 . S
C330 O331 1.306 . S
C330 O333 1.160 . S
O331 C330 1.306 . S
O331 Cd332 2.228 . S
Cd332 O331 2.228 . S
Cd332 O336 2.273 . S
Cd332 O340 2.277 . S
O333 C330 1.160 . S
O333 Cd334 2.203 . S
Cd334 O333 2.203 . S
Cd334 O336 2.411 . S
Cd334 O337 2.333 . S
Cd334 O338 2.352 . S
Cd334 O342 2.277 . S
Cd334 O343 2.356 . S
C335 O340 1.209 . S
C335 O342 1.226 . S
O336 Cd332 2.273 . S
O336 Cd334 2.411 . S
O336 C339 1.320 . S
O337 Cd334 2.333 . S
O337 C339 1.214 . S
O338 Cd334 2.352 . S
O338 C341 1.258 . S
C339 O336 1.320 . S
C339 O337 1.214 . S
O340 Cd332 2.277 . S
O340 C335 1.209 . S
C341 O338 1.258 . S
C341 O343 1.282 . S
O342 Cd334 2.277 . S
O342 C335 1.226 . S
O343 Cd334 2.356 . S
O343 C341 1.282 . S
C344 O345 1.306 . S
C344 O347 1.160 . S
O345 C344 1.306 . S
O345 Cd346 2.228 . S
Cd346 O345 2.228 . S
Cd346 O350 2.273 . S
Cd346 O354 2.277 . S
O347 C344 1.160 . S
O347 Cd348 2.203 . S
Cd348 O347 2.203 . S
Cd348 O350 2.411 . S
Cd348 O351 2.333 . S
Cd348 O352 2.352 . S
Cd348 O356 2.277 . S
Cd348 O357 2.356 . S
C349 O354 1.209 . S
C349 O356 1.226 . S
O350 Cd346 2.273 . S
O350 Cd348 2.411 . S
O350 C353 1.320 . S
O351 Cd348 2.333 . S
O351 C353 1.214 . S
O352 Cd348 2.352 . S
O352 C355 1.258 . S
C353 O350 1.320 . S
C353 O351 1.214 . S
O354 Cd346 2.277 . S
O354 C349 1.209 . S
C355 O352 1.258 . S
C355 O357 1.282 . S
O356 Cd348 2.277 . S
O356 C349 1.226 . S
O357 Cd348 2.356 . S
O357 C355 1.282 . S
C358 O359 1.306 . S
C358 O361 1.160 . S
O359 C358 1.306 . S
O359 Cd360 2.228 . S
Cd360 O359 2.228 . S
Cd360 O364 2.273 . S
Cd360 O368 2.277 . S
O361 C358 1.160 . S
O361 Cd362 2.203 . S
Cd362 O361 2.203 . S
Cd362 O364 2.411 . S
Cd362 O365 2.333 . S
Cd362 O366 2.352 . S
Cd362 O370 2.277 . S
Cd362 O371 2.356 . S
C363 O368 1.209 . S
C363 O370 1.226 . S
O364 Cd360 2.273 . S
O364 Cd362 2.411 . S
O364 C367 1.320 . S
O365 Cd362 2.333 . S
O365 C367 1.214 . S
O366 Cd362 2.352 . S
O366 C369 1.258 . S
C367 O364 1.320 . S
C367 O365 1.214 . S
O368 Cd360 2.277 . S
O368 C363 1.209 . S
C369 O366 1.258 . S
C369 O371 1.282 . S
O370 Cd362 2.277 . S
O370 C363 1.226 . S
O371 Cd362 2.356 . S
O371 C369 1.282 . S
C372 C373 1.387 . S
C372 H376 0.950 . S
C372 C381 1.390 . S
C373 C372 1.387 . S
C373 C375 1.387 . S
H374 C381 0.950 . S
C375 C373 1.387 . S
C375 C377 1.390 . S
C375 H379 0.950 . S
H376 C372 0.950 . S
C377 C375 1.390 . S
C377 C378 1.387 . S
C377 H380 0.950 . S
C378 C377 1.387 . S
C378 C381 1.387 . S
H379 C375 0.950 . S
H380 C377 0.950 . S
C381 C372 1.390 . S
C381 H374 0.950 . S
C381 C378 1.387 . S
C382 C383 1.387 . S
C382 H386 0.950 . S
C382 C391 1.390 . S
C383 C382 1.387 . S
C383 C385 1.387 . S
H384 C391 0.950 . S
C385 C383 1.387 . S
C385 C387 1.390 . S
C385 H389 0.950 . S
H386 C382 0.950 . S
C387 C385 1.390 . S
C387 C388 1.387 . S
C387 H390 0.950 . S
C388 C387 1.387 . S
C388 C391 1.387 . S
H389 C385 0.950 . S
H390 C387 0.950 . S
C391 C382 1.390 . S
C391 H384 0.950 . S
C391 C388 1.387 . S
C392 C393 1.387 . S
C392 H396 0.950 . S
C392 C401 1.390 . S
C393 C392 1.387 . S
C393 C395 1.387 . S
H394 C401 0.950 . S
C395 C393 1.387 . S
C395 C397 1.390 . S
C395 H399 0.950 . S
H396 C392 0.950 . S
C397 C395 1.390 . S
C397 C398 1.387 . S
C397 H400 0.950 . S
C398 C397 1.387 . S
C398 C401 1.387 . S
H399 C395 0.950 . S
H400 C397 0.950 . S
C401 C392 1.390 . S
C401 H394 0.950 . S
C401 C398 1.387 . S
C402 C403 1.387 . S
C402 H406 0.950 . S
C402 C411 1.390 . S
C403 C402 1.387 . S
C403 C405 1.387 . S
H404 C411 0.950 . S
C405 C403 1.387 . S
C405 C407 1.390 . S
C405 H409 0.950 . S
H406 C402 0.950 . S
C407 C405 1.390 . S
C407 C408 1.387 . S
C407 H410 0.950 . S
C408 C407 1.387 . S
C408 C411 1.387 . S
H409 C405 0.950 . S
H410 C407 0.950 . S
C411 C402 1.390 . S
C411 H404 0.950 . S
C411 C408 1.387 . S
C412 C413 1.387 . S
C412 H416 0.950 . S
C412 C421 1.390 . S
C413 C412 1.387 . S
C413 C415 1.387 . S
H414 C421 0.950 . S
C415 C413 1.387 . S
C415 C417 1.390 . S
C415 H419 0.950 . S
H416 C412 0.950 . S
C417 C415 1.390 . S
C417 C418 1.387 . S
C417 H420 0.950 . S
C418 C417 1.387 . S
C418 C421 1.387 . S
H419 C415 0.950 . S
H420 C417 0.950 . S
C421 C412 1.390 . S
C421 H414 0.950 . S
C421 C418 1.387 . S
C422 C423 1.387 . S
C422 H426 0.950 . S
C422 C431 1.390 . S
C423 C422 1.387 . S
C423 C425 1.387 . S
H424 C431 0.950 . S
C425 C423 1.387 . S
C425 C427 1.390 . S
C425 H429 0.950 . S
H426 C422 0.950 . S
C427 C425 1.390 . S
C427 C428 1.387 . S
C427 H430 0.950 . S
C428 C427 1.387 . S
C428 C431 1.387 . S
H429 C425 0.950 . S
H430 C427 0.950 . S
C431 C422 1.390 . S
C431 H424 0.950 . S
C431 C428 1.387 . S
C432 C433 1.387 . S
C432 H436 0.950 . S
C432 C441 1.390 . S
C433 C432 1.387 . S
C433 C435 1.387 . S
H434 C441 0.950 . S
C435 C433 1.387 . S
C435 C437 1.390 . S
C435 H439 0.950 . S
H436 C432 0.950 . S
C437 C435 1.390 . S
C437 C438 1.387 . S
C437 H440 0.950 . S
C438 C437 1.387 . S
C438 C441 1.387 . S
H439 C435 0.950 . S
H440 C437 0.950 . S
C441 C432 1.390 . S
C441 H434 0.950 . S
C441 C438 1.387 . S
C442 C443 1.387 . S
C442 H446 0.950 . S
C442 C451 1.390 . S
C443 C442 1.387 . S
C443 C445 1.387 . S
H444 C451 0.950 . S
C445 C443 1.387 . S
C445 C447 1.390 . S
C445 H449 0.950 . S
H446 C442 0.950 . S
C447 C445 1.390 . S
C447 C448 1.387 . S
C447 H450 0.950 . S
C448 C447 1.387 . S
C448 C451 1.387 . S
H449 C445 0.950 . S
H450 C447 0.950 . S
C451 C442 1.390 . S
C451 H444 0.950 . S
C451 C448 1.387 . S
C452 C453 1.387 . S
C452 H456 0.950 . S
C452 C461 1.390 . S
C453 C452 1.387 . S
C453 C455 1.387 . S
H454 C461 0.950 . S
C455 C453 1.387 . S
C455 C457 1.390 . S
C455 H459 0.950 . S
H456 C452 0.950 . S
C457 C455 1.390 . S
C457 C458 1.387 . S
C457 H460 0.950 . S
C458 C457 1.387 . S
C458 C461 1.387 . S
H459 C455 0.950 . S
H460 C457 0.950 . S
C461 C452 1.390 . S
C461 H454 0.950 . S
C461 C458 1.387 . S
C462 C463 1.387 . S
C462 H466 0.950 1_554 S
C462 C471 1.390 . S
C463 C462 1.387 . S
C463 C465 1.387 . S
H464 C471 0.950 . S
C465 C463 1.387 . S
C465 C467 1.390 . S
C465 H469 0.950 . S
H466 C462 0.950 1_556 S
C467 C465 1.390 . S
C467 C468 1.387 . S
C467 H470 0.950 . S
C468 C467 1.387 . S
C468 C471 1.387 . S
H469 C465 0.950 . S
H470 C467 0.950 . S
C471 C462 1.390 . S
C471 H464 0.950 . S
C471 C468 1.387 . S
C472 C473 1.387 . S
C472 H476 0.950 . S
C472 C481 1.390 . S
C473 C472 1.387 . S
C473 C475 1.387 . S
H474 C481 0.950 . S
C475 C473 1.387 . S
C475 C477 1.390 . S
C475 H479 0.950 . S
H476 C472 0.950 . S
C477 C475 1.390 . S
C477 C478 1.387 . S
C477 H480 0.950 . S
C478 C477 1.387 . S
C478 C481 1.387 . S
H479 C475 0.950 . S
H480 C477 0.950 . S
C481 C472 1.390 . S
C481 H474 0.950 . S
C481 C478 1.387 . S
C482 C483 1.387 . S
C482 H486 0.950 . S
C482 C491 1.390 . S
C483 C482 1.387 . S
C483 C485 1.387 . S
H484 C491 0.950 . S
C485 C483 1.387 . S
C485 C487 1.390 . S
C485 H489 0.950 . S
H486 C482 0.950 . S
C487 C485 1.390 . S
C487 C488 1.387 . S
C487 H490 0.950 . S
C488 C487 1.387 . S
C488 C491 1.387 . S
H489 C485 0.950 . S
H490 C487 0.950 . S
C491 C482 1.390 . S
C491 H484 0.950 . S
C491 C488 1.387 . S
C492 C493 1.387 . S
C492 H496 0.950 . S
C492 C501 1.390 . S
C493 C492 1.387 . S
C493 C495 1.387 . S
H494 C501 0.950 . S
C495 C493 1.387 . S
C495 C497 1.390 . S
C495 H499 0.950 . S
H496 C492 0.950 . S
C497 C495 1.390 . S
C497 C498 1.387 . S
C497 H500 0.950 . S
C498 C497 1.387 . S
C498 C501 1.387 . S
H499 C495 0.950 . S
H500 C497 0.950 . S
C501 C492 1.390 . S
C501 H494 0.950 . S
C501 C498 1.387 . S
C502 C503 1.387 . S
C502 H506 0.950 . S
C502 C511 1.390 . S
C503 C502 1.387 . S
C503 C505 1.387 . S
H504 C511 0.950 . S
C505 C503 1.387 . S
C505 C507 1.390 . S
C505 H509 0.950 . S
H506 C502 0.950 . S
C507 C505 1.390 . S
C507 C508 1.387 . S
C507 H510 0.950 . S
C508 C507 1.387 . S
C508 C511 1.387 . S
H509 C505 0.950 . S
H510 C507 0.950 . S
C511 C502 1.390 . S
C511 H504 0.950 . S
C511 C508 1.387 . S
C512 C513 1.387 . S
C512 H516 0.950 . S
C512 C521 1.390 . S
C513 C512 1.387 . S
C513 C515 1.387 . S
H514 C521 0.950 . S
C515 C513 1.387 . S
C515 C517 1.390 . S
C515 H519 0.950 . S
H516 C512 0.950 . S
C517 C515 1.390 . S
C517 C518 1.387 . S
C517 H520 0.950 . S
C518 C517 1.387 . S
C518 C521 1.387 . S
H519 C515 0.950 . S
H520 C517 0.950 . S
C521 C512 1.390 . S
C521 H514 0.950 . S
C521 C518 1.387 . S
C522 C523 1.387 . S
C522 H526 0.950 . S
C522 C531 1.390 . S
C523 C522 1.387 . S
C523 C525 1.387 . S
H524 C531 0.950 . S
C525 C523 1.387 . S
C525 C527 1.390 1_556 S
C525 H529 0.950 . S
H526 C522 0.950 . S
C527 C525 1.390 1_554 S
C527 C528 1.387 . S
C527 H530 0.950 . S
C528 C527 1.387 . S
C528 C531 1.387 1_554 S
H529 C525 0.950 . S
H530 C527 0.950 . S
C531 C522 1.390 . S
C531 H524 0.950 . S
C531 C528 1.387 1_556 S
C532 C533 1.387 . S
C532 H536 0.950 . S
C532 C541 1.390 . S
C533 C532 1.387 . S
C533 C535 1.387 . S
H534 C541 0.950 . S
C535 C533 1.387 . S
C535 C537 1.390 . S
C535 H539 0.950 . S
H536 C532 0.950 . S
C537 C535 1.390 . S
C537 C538 1.387 . S
C537 H540 0.950 . S
C538 C537 1.387 . S
C538 C541 1.387 . S
H539 C535 0.950 . S
H540 C537 0.950 . S
C541 C532 1.390 . S
C541 H534 0.950 . S
C541 C538 1.387 . S
C542 C543 1.387 . S
C542 H546 0.950 . S
C542 C551 1.390 . S
C543 C542 1.387 . S
C543 C545 1.387 . S
H544 C551 0.950 . S
C545 C543 1.387 . S
C545 C547 1.390 . S
C545 H549 0.950 . S
H546 C542 0.950 . S
C547 C545 1.390 . S
C547 C548 1.387 . S
C547 H550 0.950 . S
C548 C547 1.387 . S
C548 C551 1.387 . S
H549 C545 0.950 . S
H550 C547 0.950 . S
C551 C542 1.390 . S
C551 H544 0.950 . S
C551 C548 1.387 . S
C552 C553 1.387 . S
C552 H556 0.950 . S
C552 C561 1.390 . S
C553 C552 1.387 . S
C553 C555 1.387 . S
H554 C561 0.950 . S
C555 C553 1.387 . S
C555 C557 1.390 . S
C555 H559 0.950 . S
H556 C552 0.950 . S
C557 C555 1.390 . S
C557 C558 1.387 . S
C557 H560 0.950 . S
C558 C557 1.387 . S
C558 C561 1.387 . S
H559 C555 0.950 . S
H560 C557 0.950 . S
C561 C552 1.390 . S
C561 H554 0.950 . S
C561 C558 1.387 . S
C562 C563 1.387 . S
C562 H566 0.950 . S
C562 C571 1.390 . S
C563 C562 1.387 . S
C563 C565 1.387 . S
H564 C571 0.950 . S
C565 C563 1.387 . S
C565 C567 1.390 . S
C565 H569 0.950 . S
H566 C562 0.950 . S
C567 C565 1.390 . S
C567 C568 1.387 . S
C567 H570 0.950 . S
C568 C567 1.387 . S
C568 C571 1.387 . S
H569 C565 0.950 . S
H570 C567 0.950 . S
C571 C562 1.390 . S
C571 H564 0.950 . S
C571 C568 1.387 . S
C572 C573 1.387 . S
C572 H576 0.950 . S
C572 C581 1.390 . S
C573 C572 1.387 . S
C573 C575 1.387 . S
H574 C581 0.950 . S
C575 C573 1.387 . S
C575 C577 1.390 . S
C575 H579 0.950 . S
H576 C572 0.950 . S
C577 C575 1.390 . S
C577 C578 1.387 . S
C577 H580 0.950 . S
C578 C577 1.387 . S
C578 C581 1.387 . S
H579 C575 0.950 . S
H580 C577 0.950 . S
C581 C572 1.390 . S
C581 H574 0.950 . S
C581 C578 1.387 . S
C582 C583 1.387 . S
C582 H586 0.950 . S
C582 C591 1.390 . S
C583 C582 1.387 . S
C583 C585 1.387 . S
H584 C591 0.950 . S
C585 C583 1.387 . S
C585 C587 1.390 . S
C585 H589 0.950 . S
H586 C582 0.950 . S
C587 C585 1.390 . S
C587 C588 1.387 . S
C587 H590 0.950 . S
C588 C587 1.387 . S
C588 C591 1.387 . S
H589 C585 0.950 . S
H590 C587 0.950 . S
C591 C582 1.390 . S
C591 H584 0.950 . S
C591 C588 1.387 . S
C592 C593 1.387 . S
C592 H596 0.950 . S
C592 C601 1.390 1_554 S
C593 C592 1.387 . S
C593 C595 1.387 . S
H594 C601 0.950 . S
C595 C593 1.387 . S
C595 C597 1.390 1_554 S
C595 H599 0.950 . S
H596 C592 0.950 . S
C597 C595 1.390 1_556 S
C597 C598 1.387 . S
C597 H600 0.950 . S
C598 C597 1.387 . S
C598 C601 1.387 . S
H599 C595 0.950 . S
H600 C597 0.950 . S
C601 C592 1.390 1_556 S
C601 H594 0.950 . S
C601 C598 1.387 . S
C602 C603 1.387 . S
C602 H606 0.950 . S
C602 C611 1.390 . S
C603 C602 1.387 . S
C603 C605 1.387 . S
H604 C611 0.950 . S
C605 C603 1.387 . S
C605 C607 1.390 . S
C605 H609 0.950 . S
H606 C602 0.950 . S
C607 C605 1.390 . S
C607 C608 1.387 . S
C607 H610 0.950 . S
C608 C607 1.387 . S
C608 C611 1.387 . S
H609 C605 0.950 . S
H610 C607 0.950 . S
C611 C602 1.390 . S
C611 H604 0.950 . S
C611 C608 1.387 . S
C378 C358 1.628 . S
C373 C45 1.622 . S
C383 C84 1.617 . S
C388 C299 1.640 . S
C393 C126 1.567 . S
C398 C302 1.624 . S
C403 C189 1.622 . S
C408 C316 1.628 . S
C418 C341 1.641 . S
C413 C228 1.619 . S
C423 C270 1.565 . S
C428 C344 1.624 . S
C433 C69 1.570 . S
C438 C313 1.611 . S
C443 C141 1.608 . S
C448 C327 1.613 . S
C453 C174 1.549 . S
C458 C330 1.599 . S
C468 C355 1.611 . S
C463 C213 1.569 . S
C478 C369 1.613 . S
C473 C285 1.608 . S
C488 C288 1.599 . S
C483 C30 1.547 . S
C493 C36 1.497 . S
C498 C311 1.488 . S
C503 C93 1.494 . S
C508 C325 1.492 . S
C518 C335 1.501 . S
C513 C117 1.498 . S
C523 C180 1.497 . S
C528 C353 1.489 . S
C538 C367 1.491 . S
C533 C237 1.494 . S
C548 C293 1.501 . S
C543 C261 1.498 . S
C558 C363 1.516 . S
C553 C78 1.509 . S
C563 C132 1.508 . S
C568 C297 1.504 . S
C578 C307 1.514 . S
C573 C165 1.508 . S
C583 C222 1.510 . S
C588 C321 1.517 . S
C593 C276 1.508 . S
C598 C339 1.504 . S
C603 C21 1.508 . S
C608 C349 1.514 . S
