# Generated by pormake.
# Topology cml, (3,6)-cn, num edge types: 1
# Building blocks:
#     Node 0, Type 0, BuildingBlock: PAMTOO_clean_linker_0, # of connection points: 3
#     Node 1, Type 0, BuildingBlock: PAMTOO_clean_linker_0, # of connection points: 3
#     Node 2, Type 0, BuildingBlock: PAMTOO_clean_linker_0, # of connection points: 3
#     Node 3, Type 0, BuildingBlock: PAMTOO_clean_linker_0, # of connection points: 3
#     Node 4, Type 0, BuildingBlock: PAMTOO_clean_linker_0, # of connection points: 3
#     Node 5, Type 0, BuildingBlock: PAMTOO_clean_linker_0, # of connection points: 3
#     Node 6, Type 0, BuildingBlock: PAMTOO_clean_linker_0, # of connection points: 3
#     Node 7, Type 0, BuildingBlock: PAMTOO_clean_linker_0, # of connection points: 3
#     Node 8, Type 1, BuildingBlock: IZENUY_clean_sbu_0, # of connection points: 6
#     Node 9, Type 1, BuildingBlock: IZENUY_clean_sbu_0, # of connection points: 6
#     Node 10, Type 1, BuildingBlock: IZENUY_clean_sbu_0, # of connection points: 6
#     Node 11, Type 1, BuildingBlock: IZENUY_clean_sbu_0, # of connection points: 6
#     Edge 12, Type (0, 1), BuildingBlock: OJICUG_clean_linker_0, # of connection points: 2
#     Edge 13, Type (0, 1), BuildingBlock: OJICUG_clean_linker_0, # of connection points: 2
#     Edge 14, Type (0, 1), BuildingBlock: OJICUG_clean_linker_0, # of connection points: 2
#     Edge 15, Type (0, 1), BuildingBlock: OJICUG_clean_linker_0, # of connection points: 2
#     Edge 16, Type (0, 1), BuildingBlock: OJICUG_clean_linker_0, # of connection points: 2
#     Edge 17, Type (0, 1), BuildingBlock: OJICUG_clean_linker_0, # of connection points: 2
#     Edge 18, Type (0, 1), BuildingBlock: OJICUG_clean_linker_0, # of connection points: 2
#     Edge 19, Type (0, 1), BuildingBlock: OJICUG_clean_linker_0, # of connection points: 2
#     Edge 20, Type (0, 1), BuildingBlock: OJICUG_clean_linker_0, # of connection points: 2
#     Edge 21, Type (0, 1), BuildingBlock: OJICUG_clean_linker_0, # of connection points: 2
#     Edge 22, Type (0, 1), BuildingBlock: OJICUG_clean_linker_0, # of connection points: 2
#     Edge 23, Type (0, 1), BuildingBlock: OJICUG_clean_linker_0, # of connection points: 2
#     Edge 24, Type (0, 1), BuildingBlock: OJICUG_clean_linker_0, # of connection points: 2
#     Edge 25, Type (0, 1), BuildingBlock: OJICUG_clean_linker_0, # of connection points: 2
#     Edge 26, Type (0, 1), BuildingBlock: OJICUG_clean_linker_0, # of connection points: 2
#     Edge 27, Type (0, 1), BuildingBlock: OJICUG_clean_linker_0, # of connection points: 2
#     Edge 28, Type (0, 1), BuildingBlock: OJICUG_clean_linker_0, # of connection points: 2
#     Edge 29, Type (0, 1), BuildingBlock: OJICUG_clean_linker_0, # of connection points: 2
#     Edge 30, Type (0, 1), BuildingBlock: OJICUG_clean_linker_0, # of connection points: 2
#     Edge 31, Type (0, 1), BuildingBlock: OJICUG_clean_linker_0, # of connection points: 2
#     Edge 32, Type (0, 1), BuildingBlock: OJICUG_clean_linker_0, # of connection points: 2
#     Edge 33, Type (0, 1), BuildingBlock: OJICUG_clean_linker_0, # of connection points: 2
#     Edge 34, Type (0, 1), BuildingBlock: OJICUG_clean_linker_0, # of connection points: 2
#     Edge 35, Type (0, 1), BuildingBlock: OJICUG_clean_linker_0, # of connection points: 2
# Relax obj value: 0.004
# Max RMSD: 0.065
# Mean RMSD: 0.051
data_MOF--net-cml--node1-IZENUY_clean_sbu_0--node2-PAMTOO_clean_linker_0--edge1-OJICUG_clean_linker_0
_symmetry_space_group_name_H-M    P1
_symmetry_Int_Tables_number       1
_symmetry_cell_setting            triclinic
loop_
_symmetry_equiv_pos_as_xyz
'x, y, z'
_cell_length_a     26.889566
_cell_length_b     29.934501
_cell_length_c     26.311426
_cell_angle_alpha  89.855346
_cell_angle_beta   89.369352
_cell_angle_gamma 90.780623
loop_
_atom_site_label
_atom_site_type_symbol
_atom_site_fract_x
_atom_site_fract_y
_atom_site_fract_z
_atom_type_partial_charge
H0 H 0.37893 0.46468 0.05648 0.0
H1 H 0.27586 0.43067 0.93854 0.0
H2 H 0.28485 0.34763 0.07149 0.0
H3 H 0.2783 0.30067 0.97057 0.0
C4 C 0.25255 0.32397 0.95139 0.0
O5 O 0.24091 0.35862 0.98374 0.0
H6 H 0.27201 0.33734 0.9169 0.0
C7 C 0.34918 0.44345 0.04237 0.0
C8 C 0.33381 0.40571 0.0707 0.0
C9 C 0.32876 0.45291 0.99476 0.0
C10 C 0.29204 0.42405 0.97529 0.0
C11 C 0.27633 0.38615 0.00293 0.0
C12 C 0.2973 0.37694 0.05045 0.0
H13 H 0.65182 0.571 0.55694 0.0
H14 H 0.7447 0.68889 0.56761 0.0
H15 H 0.74822 0.60926 0.43228 0.0
H16 H 0.84615 0.64233 0.47056 0.0
C17 C 0.83431 0.67572 0.48436 0.0
O18 O 0.78403 0.68062 0.47697 0.0
H19 H 0.84263 0.67762 0.52566 0.0
C20 C 0.68053 0.59287 0.54113 0.0
C21 C 0.69865 0.58479 0.49182 0.0
C22 C 0.6967 0.63025 0.56905 0.0
C23 C 0.73161 0.65987 0.54688 0.0
C24 C 0.75033 0.65198 0.49786 0.0
C25 C 0.73374 0.61471 0.47032 0.0
H26 H 0.65211 0.46889 0.05146 0.0
H27 H 0.75314 0.35921 0.05829 0.0
H28 H 0.74492 0.43798 0.92206 0.0
H29 H 0.75069 0.34086 0.90568 0.0
C30 C 0.77318 0.33157 0.93927 0.0
O31 O 0.78704 0.3696 0.96526 0.0
H32 H 0.74975 0.3095 0.96417 0.0
C33 C 0.68154 0.44961 0.03401 0.0
C34 C 0.69646 0.45875 0.98369 0.0
C35 C 0.70177 0.41406 0.06129 0.0
C36 C 0.73759 0.38717 0.03793 0.0
C37 C 0.75306 0.396 0.98782 0.0
C38 C 0.73269 0.43172 0.96083 0.0
H39 H 0.38821 0.57461 0.54742 0.0
H40 H 0.30099 0.61153 0.418 0.0
H41 H 0.29426 0.68958 0.55454 0.0
H42 H 0.19657 0.66197 0.49867 0.0
C43 C 0.21101 0.66932 0.45965 0.0
O44 O 0.26086 0.68054 0.46143 0.0
H45 H 0.20578 0.63858 0.4365 0.0
C46 C 0.36086 0.59586 0.52996 0.0
C47 C 0.34247 0.63233 0.5574 0.0
C48 C 0.34636 0.5878 0.47964 0.0
C49 C 0.31304 0.61714 0.45665 0.0
C50 C 0.29394 0.6534 0.48378 0.0
C51 C 0.3089 0.66124 0.53397 0.0
H52 H 0.87775 0.96533 0.05798 0.0
H53 H 0.77482 0.93171 0.93974 0.0
H54 H 0.78348 0.84838 0.07247 0.0
H55 H 0.77727 0.80174 0.97137 0.0
C56 C 0.75146 0.82501 0.95224 0.0
O57 O 0.73973 0.85959 0.98466 0.0
H58 H 0.77088 0.83847 0.91778 0.0
C59 C 0.84799 0.94419 0.04374 0.0
C60 C 0.83249 0.90641 0.07193 0.0
C61 C 0.82769 0.95377 0.9961 0.0
C62 C 0.79093 0.92501 0.97651 0.0
C63 C 0.77511 0.88707 0.00402 0.0
C64 C 0.79598 0.87773 0.05154 0.0
H65 H 0.15154 0.0701 0.55598 0.0
H66 H 0.24465 0.18778 0.56825 0.0
H67 H 0.24962 0.10841 0.43278 0.0
H68 H 0.34629 0.14046 0.47063 0.0
C69 C 0.33521 0.17405 0.48449 0.0
O70 O 0.2849 0.17962 0.47787 0.0
H71 H 0.34415 0.176 0.52564 0.0
C72 C 0.18051 0.09196 0.54069 0.0
C73 C 0.19934 0.08392 0.49164 0.0
C74 C 0.19635 0.12928 0.56893 0.0
C75 C 0.23174 0.15883 0.54731 0.0
C76 C 0.25102 0.15099 0.49847 0.0
C77 C 0.23468 0.11383 0.47065 0.0
H78 H 0.15052 0.96741 0.04944 0.0
H79 H 0.25085 0.85719 0.05609 0.0
H80 H 0.24327 0.93635 0.92006 0.0
H81 H 0.24937 0.83942 0.90308 0.0
C82 C 0.27156 0.82994 0.93681 0.0
O83 O 0.28517 0.86782 0.96321 0.0
H84 H 0.24794 0.80772 0.96135 0.0
C85 C 0.17978 0.94796 0.03194 0.0
C86 C 0.19484 0.95716 0.98168 0.0
C87 C 0.19976 0.91226 0.05915 0.0
C88 C 0.23542 0.88522 0.03575 0.0
C89 C 0.25105 0.89413 0.98569 0.0
C90 C 0.23092 0.93 0.95877 0.0
H91 H 0.88664 0.07741 0.5527 0.0
H92 H 0.81258 0.11841 0.41622 0.0
H93 H 0.78986 0.19039 0.55535 0.0
H94 H 0.69845 0.15917 0.49246 0.0
C95 C 0.71422 0.16952 0.45485 0.0
O96 O 0.76331 0.18255 0.45985 0.0
H97 H 0.71174 0.14015 0.4291 0.0
C98 C 0.8616 0.09947 0.53307 0.0
C99 C 0.83995 0.13465 0.56008 0.0
C100 C 0.8531 0.09355 0.48089 0.0
C101 C 0.8199 0.1221 0.4564 0.0
C102 C 0.79629 0.15621 0.48355 0.0
C103 C 0.80708 0.1631 0.53505 0.0
Fe104 Fe 0.02179 0.82975 0.30021 0.0
Fe105 Fe 0.02358 0.87832 0.40322 0.0
O106 O 0.02293 0.88012 0.33589 0.0
Fe107 Fe 0.02373 0.9325 0.30444 0.0
O108 O 0.98619 0.9137 0.25096 0.0
O109 O 0.964 0.84445 0.26904 0.0
O110 O 0.98389 0.7986 0.34718 0.0
C111 C 0.9567 0.8111 0.38404 0.0
C112 C 0.08799 0.88612 0.2437 0.0
O113 O 0.96461 0.84813 0.40563 0.0
C114 C 0.09002 0.94665 0.38632 0.0
O115 O 0.07944 0.81092 0.32844 0.0
O116 O 0.05845 0.82651 0.40724 0.0
O117 O 0.08121 0.91964 0.2717 0.0
O118 O 0.05952 0.85212 0.24701 0.0
C119 C 0.96124 0.9519 0.38278 0.0
O120 O 0.08272 0.9084 0.40558 0.0
O121 O 0.06164 0.96114 0.35213 0.0
C122 C 0.08631 0.80693 0.37564 0.0
O123 O 0.98909 0.93005 0.41188 0.0
O124 O 0.96609 0.94929 0.33522 0.0
C125 C 0.95702 0.88062 0.24554 0.0
Fe126 Fe 1.00707 0.15862 0.90603 0.0
Fe127 Fe 1.00676 0.10469 0.80699 0.0
O128 O 1.00921 0.15688 0.83864 0.0
Fe129 Fe 0.01355 0.20718 0.80262 0.0
O130 O 0.05147 0.23781 0.84938 0.0
O131 O 0.06617 0.18804 0.90862 0.0
O132 O 0.04231 0.1071 0.91432 0.0
C133 C 0.07044 0.08588 0.88416 0.0
C134 C 0.94577 0.23029 0.87646 0.0
O135 O 0.06341 0.08644 0.83685 0.0
C136 C 0.94558 0.15339 0.74671 0.0
O137 O 0.94773 0.12874 0.90909 0.0
O138 O 0.96804 0.07625 0.85507 0.0
O139 O 0.95599 0.22718 0.82976 0.0
O140 O 0.97167 0.21065 0.90945 0.0
C141 C 0.0767 0.15449 0.74817 0.0
O142 O 0.94993 0.1196 0.77502 0.0
O143 O 0.97634 0.1858 0.74938 0.0
C144 C 0.93992 0.09073 0.88993 0.0
O145 O 0.04534 0.12288 0.753 0.0
O146 O 0.07148 0.19053 0.77228 0.0
C147 C 0.07733 0.22401 0.88609 0.0
Fe148 Fe 0.52234 0.3297 0.29995 0.0
Fe149 Fe 0.52208 0.37788 0.40332 0.0
O150 O 0.52255 0.37992 0.33598 0.0
Fe151 Fe 0.52362 0.43234 0.3045 0.0
O152 O 0.48745 0.41315 0.25014 0.0
O153 O 0.46463 0.34413 0.26849 0.0
O154 O 0.4846 0.29753 0.34625 0.0
C155 C 0.45711 0.30933 0.38315 0.0
C156 C 0.5891 0.38659 0.24493 0.0
O157 O 0.46408 0.34637 0.40481 0.0
C158 C 0.58748 0.44759 0.38791 0.0
O159 O 0.57988 0.31144 0.32854 0.0
O160 O 0.55881 0.32694 0.40747 0.0
O161 O 0.582 0.41982 0.27328 0.0
O162 O 0.5603 0.35276 0.24726 0.0
C163 C 0.45759 0.44957 0.38108 0.0
O164 O 0.58024 0.40938 0.40721 0.0
O165 O 0.55977 0.46158 0.35298 0.0
C166 C 0.58672 0.30743 0.37574 0.0
O167 O 0.48504 0.42836 0.4113 0.0
O168 O 0.46538 0.44866 0.33377 0.0
C169 C 0.458 0.38024 0.24475 0.0
Fe170 Fe 0.50705 0.65858 0.90575 0.0
Fe171 Fe 0.50832 0.60448 0.80683 0.0
O172 O 0.50991 0.65672 0.83839 0.0
Fe173 Fe 0.51416 0.70701 0.80233 0.0
O174 O 0.55112 0.73803 0.84958 0.0
O175 O 0.5659 0.68835 0.90886 0.0
O176 O 0.54254 0.60729 0.91469 0.0
C177 C 0.57114 0.58615 0.88493 0.0
C178 C 0.44533 0.72963 0.87529 0.0
O179 O 0.56466 0.58661 0.83755 0.0
C180 C 0.44788 0.65248 0.74511 0.0
O181 O 0.44792 0.62836 0.90821 0.0
O182 O 0.46908 0.57593 0.85443 0.0
O183 O 0.45599 0.72649 0.82869 0.0
O184 O 0.47124 0.7104 0.90858 0.0
C185 C 0.57858 0.65477 0.74894 0.0
O186 O 0.45189 0.61893 0.77386 0.0
O187 O 0.478 0.6853 0.74849 0.0
C188 C 0.44055 0.5903 0.88901 0.0
O189 O 0.54755 0.62286 0.75347 0.0
O190 O 0.57264 0.69084 0.77282 0.0
C191 C 0.57691 0.72439 0.88642 0.0
C192 C 0.17753 0.31464 0.89495 0.0
C193 C 0.20586 0.29932 0.93584 0.0
H194 H 0.11487 0.30289 0.84686 0.0
C195 C 0.19028 0.26053 0.96184 0.0
H196 H 0.18856 0.34481 0.87471 0.0
C197 C 0.14827 0.23648 0.94604 0.0
C198 C 0.12054 0.25094 0.90411 0.0
H199 H 0.21117 0.24836 0.9939 0.0
H200 H 0.1379 0.20623 0.96645 0.0
C201 C 0.13538 0.29063 0.87911 0.0
C202 C 0.88351 0.70399 0.40842 0.0
C203 C 0.86265 0.71207 0.45655 0.0
H204 H 0.92937 0.72903 0.34759 0.0
C205 C 0.86873 0.75443 0.47858 0.0
H206 H 0.87846 0.67182 0.39029 0.0
C207 C 0.89766 0.78741 0.45415 0.0
C208 C 0.9209 0.7786 0.40711 0.0
H209 H 0.85214 0.76156 0.51533 0.0
H210 H 0.90304 0.81925 0.47289 0.0
C211 C 0.91251 0.73684 0.38402 0.0
C212 C 0.83441 0.30655 0.87205 0.0
C213 C 0.8188 0.30662 0.92311 0.0
H214 H 0.88667 0.28234 0.81719 0.0
C215 C 0.8464 0.28323 0.95919 0.0
H216 H 0.81398 0.32477 0.84364 0.0
C217 C 0.88821 0.25908 0.94427 0.0
C218 C 0.90326 0.25797 0.8929 0.0
H219 H 0.83517 0.28326 0.99887 0.0
H220 H 0.90824 0.24075 0.97289 0.0
C221 C 0.87609 0.28231 0.85703 0.0
C222 C 0.17424 0.70901 0.38409 0.0
C223 C 0.18233 0.707 0.43673 0.0
H224 H 0.13745 0.74235 0.32308 0.0
C225 C 0.1628 0.74036 0.46807 0.0
H226 H 0.18978 0.68395 0.35913 0.0
C227 C 0.13307 0.77363 0.44768 0.0
C228 C 0.12258 0.7745 0.39536 0.0
H229 H 0.16942 0.73995 0.50861 0.0
H230 H 0.11741 0.79816 0.47325 0.0
C231 C 0.14451 0.74247 0.36352 0.0
C232 C 0.68932 0.76146 0.96266 0.0
C233 C 0.70484 0.80027 0.93665 0.0
H234 H 0.63716 0.70699 0.96714 0.0
C235 C 0.67657 0.81546 0.89565 0.0
H236 H 0.71016 0.74939 0.99479 0.0
C237 C 0.63458 0.7913 0.87969 0.0
C238 C 0.61983 0.75157 0.90468 0.0
H239 H 0.68755 0.84563 0.8754 0.0
H240 H 0.61413 0.80344 0.84733 0.0
C241 C 0.64747 0.73726 0.94674 0.0
C242 C 0.36781 0.25313 0.4767 0.0
C243 C 0.3637 0.21004 0.4562 0.0
H244 H 0.40024 0.31855 0.46959 0.0
C245 C 0.38669 0.20094 0.4093 0.0
H246 H 0.34966 0.261 0.51247 0.0
C247 C 0.41561 0.23373 0.38461 0.0
C248 C 0.42179 0.27639 0.40621 0.0
H249 H 0.38329 0.16812 0.39235 0.0
H250 H 0.43409 0.22524 0.34922 0.0
C251 C 0.39661 0.28601 0.452 0.0
C252 C 0.34496 0.78201 0.95722 0.0
C253 C 0.31736 0.80513 0.92091 0.0
H254 H 0.40711 0.74004 0.97142 0.0
C255 C 0.33319 0.80495 0.86991 0.0
H256 H 0.33355 0.78211 0.99684 0.0
C257 C 0.37515 0.78095 0.8552 0.0
C258 C 0.40239 0.75697 0.89132 0.0
H259 H 0.31274 0.82295 0.84133 0.0
H260 H 0.38594 0.78092 0.81542 0.0
C261 C 0.38705 0.75812 0.94261 0.0
C262 C 0.67823 0.21205 0.38104 0.0
C263 C 0.68452 0.20735 0.4337 0.0
H264 H 0.64235 0.24748 0.32111 0.0
C265 C 0.66225 0.2381 0.46662 0.0
H266 H 0.69584 0.18908 0.35492 0.0
C267 C 0.63178 0.27145 0.4475 0.0
C268 C 0.62326 0.27497 0.39494 0.0
H269 H 0.6674 0.23557 0.5073 0.0
H270 H 0.61405 0.29389 0.47414 0.0
C271 C 0.64777 0.24553 0.36178 0.0
C272 C 0.36471 0.48484 0.91401 0.0
C273 C 0.34911 0.49113 0.96455 0.0
H274 H 0.40566 0.51145 0.8504 0.0
C275 C 0.35839 0.53267 0.98776 0.0
H276 H 0.35832 0.45316 0.89521 0.0
C277 C 0.38541 0.56622 0.96208 0.0
C278 C 0.40419 0.5587 0.91283 0.0
H279 H 0.34632 0.53859 0.02656 0.0
H280 H 0.39382 0.59705 0.98187 0.0
C281 C 0.39213 0.51819 0.88851 0.0
C282 C 0.66123 0.55382 0.41232 0.0
C283 C 0.67762 0.54695 0.46216 0.0
H284 H 0.62018 0.52766 0.3497 0.0
C285 C 0.66908 0.50501 0.48519 0.0
H286 H 0.66698 0.5858 0.39365 0.0
C287 C 0.64218 0.47156 0.46003 0.0
C288 C 0.62291 0.47955 0.41147 0.0
H289 H 0.68185 0.49858 0.52339 0.0
H290 H 0.6345 0.44031 0.47962 0.0
C291 C 0.63408 0.52054 0.38731 0.0
C292 C 0.65752 0.53427 0.97968 0.0
C293 C 0.67117 0.49459 0.95497 0.0
H294 H 0.61506 0.59409 0.97693 0.0
C295 C 0.65592 0.4877 0.90458 0.0
H296 H 0.66967 0.5412 0.01801 0.0
C297 C 0.6252 0.51854 0.88066 0.0
C298 C 0.60874 0.55649 0.90696 0.0
H299 H 0.6655 0.4574 0.88454 0.0
H300 H 0.61236 0.5115 0.8426 0.0
C301 C 0.62631 0.56464 0.95614 0.0
C302 C 0.38341 0.55464 0.40025 0.0
C303 C 0.36791 0.54971 0.45122 0.0
H304 H 0.42359 0.52636 0.33761 0.0
C305 C 0.37677 0.50908 0.47629 0.0
H306 H 0.37739 0.58554 0.37988 0.0
C307 C 0.40386 0.47561 0.4524 0.0
C308 C 0.422 0.48167 0.40262 0.0
H309 H 0.3641 0.50366 0.51506 0.0
H310 H 0.41193 0.44548 0.47351 0.0
C311 C 0.40999 0.52078 0.37604 0.0
C312 C 0.86351 0.98567 0.91526 0.0
C313 C 0.84827 0.99193 0.96591 0.0
H314 H 0.90421 1.01216 0.85144 0.0
C315 C 0.85805 0.03337 0.98918 0.0
H316 H 0.85676 0.95407 0.8964 0.0
C317 C 0.88517 0.06681 0.96342 0.0
C318 C 0.90355 0.05929 0.91401 0.0
H319 H 0.84625 0.03929 0.02806 0.0
H320 H 0.89395 0.09755 0.98322 0.0
C321 C 0.89101 0.0189 0.88966 0.0
C322 C 0.17044 1.00403 0.48447 0.0
C323 C 0.17891 0.04605 0.46165 0.0
H324 H 0.13638 0.93918 0.47831 0.0
C325 C 0.16319 0.05292 0.41158 0.0
H326 H 0.18272 0.99763 0.52285 0.0
C327 C 0.13664 0.01954 0.38611 0.0
C328 C 0.12546 0.97845 0.41005 0.0
H329 H 0.16894 0.08496 0.39306 0.0
H330 H 0.12311 0.02665 0.34836 0.0
C331 C 0.14416 0.97047 0.45885 0.0
C332 C 0.15439 0.98669 0.90283 0.0
C333 C 0.16998 0.99333 0.95314 0.0
H334 H 0.11068 1.01102 0.84121 0.0
C335 C 0.15701 0.03311 0.97802 0.0
H336 H 0.16349 0.95633 0.88267 0.0
C337 C 0.12604 0.06383 0.95476 0.0
C338 C 0.10801 0.05592 0.9057 0.0
H339 H 0.16944 0.03982 0.01631 0.0
H340 H 0.11526 0.09334 0.97571 0.0
C341 C 0.12388 0.01787 0.87919 0.0
C342 C 0.85851 0.0334 0.41354 0.0
C343 C 0.88081 0.05866 0.45252 0.0
H344 H 0.86686 0.97951 0.36011 0.0
C345 C 0.93026 0.04969 0.46558 0.0
H346 H 0.8205 0.0394 0.40252 0.0
C347 C 0.95574 1.01493 0.44267 0.0
C348 C 0.93312 0.98896 0.40495 0.0
H349 H 0.94953 0.06946 0.49381 0.0
H350 H 0.99358 1.00858 0.45423 0.0
C351 C 0.88476 0.99902 0.3895 0.0
C352 C 0.36893 0.43214 0.15315 0.0
C353 C 0.35796 0.39651 0.12026 0.0
H354 H 0.40893 0.45462 0.21818 0.0
C355 C 0.37483 0.35356 0.1328 0.0
H356 H 0.3555 0.4654 0.14539 0.0
C357 C 0.40507 0.34721 0.17538 0.0
C358 C 0.41915 0.3838 0.20563 0.0
H359 H 0.36709 0.32543 0.10819 0.0
H360 H 0.41979 0.31435 0.18276 0.0
C361 C 0.39942 0.42594 0.19499 0.0
C362 C 0.66457 0.60286 0.65324 0.0
C363 C 0.67467 0.6388 0.62009 0.0
H364 H 0.6264 0.58011 0.72032 0.0
C365 C 0.6591 0.68182 0.63409 0.0
H366 H 0.67718 0.56954 0.64429 0.0
C367 C 0.63068 0.68802 0.67841 0.0
C368 C 0.6171 0.6512 0.70896 0.0
H369 H 0.6662 0.71019 0.6093 0.0
H370 H 0.61657 0.72093 0.68684 0.0
C371 C 0.63577 0.60893 0.69693 0.0
C372 C 0.66091 0.36189 0.12378 0.0
C373 C 0.682 0.40399 0.11275 0.0
H374 H 0.61474 0.32321 0.1746 0.0
C375 C 0.67779 0.4384 0.14859 0.0
H376 H 0.66349 0.33492 0.09654 0.0
C377 C 0.65012 0.43183 0.19318 0.0
C378 C 0.62556 0.39079 0.20253 0.0
H379 H 0.69407 0.47109 0.14096 0.0
H380 H 0.64589 0.45972 0.21894 0.0
C381 C 0.63274 0.35536 0.16828 0.0
C382 C 0.36273 0.60501 0.64452 0.0
C383 C 0.36103 0.64044 0.60949 0.0
H384 H 0.39072 0.58113 0.71513 0.0
C385 C 0.38297 0.68167 0.62225 0.0
H386 H 0.34573 0.57296 0.63572 0.0
C387 C 0.40923 0.68634 0.66766 0.0
C388 C 0.41369 0.64995 0.70126 0.0
H389 H 0.38239 0.70944 0.59579 0.0
H390 H 0.42777 0.71792 0.67535 0.0
C391 C 0.38852 0.60975 0.69002 0.0
C392 C 0.86733 0.93254 0.15462 0.0
C393 C 0.85657 0.89704 0.12149 0.0
H394 H 0.90725 0.95486 0.21977 0.0
C395 C 0.87366 0.8541 0.13373 0.0
H396 H 0.85374 0.96579 0.14704 0.0
C397 C 0.90398 0.84767 0.17623 0.0
C398 C 0.91788 0.88417 0.20671 0.0
H399 H 0.86607 0.82608 0.10892 0.0
H400 H 0.91893 0.81485 0.18334 0.0
C401 C 0.89786 0.92626 0.1964 0.0
C402 C 0.16235 0.10184 0.65245 0.0
C403 C 0.17353 0.13783 0.61968 0.0
H404 H 0.12308 0.07922 0.71894 0.0
C405 C 0.15839 0.18097 0.63377 0.0
H406 H 0.17458 0.06841 0.6435 0.0
C407 C 0.12956 0.1873 0.67783 0.0
C408 C 0.11507 0.15051 0.70802 0.0
H409 H 0.16627 0.20939 0.60931 0.0
H410 H 0.116 0.22038 0.68639 0.0
C411 C 0.13311 0.10805 0.69582 0.0
C412 C 0.15856 0.86054 0.12196 0.0
C413 C 0.18012 0.90241 0.11072 0.0
H414 H 0.11226 0.82238 0.17318 0.0
C415 C 0.17653 0.93693 0.1465 0.0
H416 H 0.16066 0.8335 0.09476 0.0
C417 C 0.14906 0.9307 0.19128 0.0
C418 C 0.12408 0.88991 0.20091 0.0
H419 H 0.19317 0.96944 0.13871 0.0
H420 H 0.14537 0.95867 0.21702 0.0
C421 C 0.1306 0.85435 0.16667 0.0
C422 C 0.85751 0.10746 0.6479 0.0
C423 C 0.85619 0.14294 0.61291 0.0
H424 H 0.88618 0.08303 0.71798 0.0
C425 C 0.87859 0.18396 0.62568 0.0
H426 H 0.84032 0.07553 0.63896 0.0
C427 C 0.90543 0.18822 0.67074 0.0
C428 C 0.91008 0.15158 0.70394 0.0
H429 H 0.87841 0.21172 0.59918 0.0
H430 H 0.92459 0.21954 0.67824 0.0
C431 C 0.88395 0.11178 0.69307 0.0
loop_
_geom_bond_atom_site_label_1
_geom_bond_atom_site_label_2
_geom_bond_distance
_geom_bond_site_symmetry_2
_ccdc_geom_bond_type
H0 C7 0.929 . S
H1 C10 0.930 . S
H2 C12 0.929 . S
H3 C4 0.969 . S
C4 H3 0.969 . S
C4 O5 1.550 1_556 S
C4 H6 0.973 . S
O5 C4 1.550 1_554 S
O5 C11 1.412 . S
H6 C4 0.973 . S
C7 H0 0.929 . S
C7 C8 1.400 . S
C7 C9 1.364 1_554 S
C8 C7 1.400 . S
C8 C12 1.377 . S
C9 C7 1.364 1_556 S
C9 C10 1.374 . S
C10 H1 0.930 . S
C10 C9 1.374 . S
C10 C11 1.383 1_556 S
C11 O5 1.412 . S
C11 C10 1.383 1_554 S
C11 C12 1.394 . S
C12 H2 0.929 . S
C12 C8 1.377 . S
C12 C11 1.394 . S
H13 C20 0.929 . S
H14 C23 0.930 . S
H15 C25 0.929 . S
H16 C17 0.969 . S
C17 H16 0.969 . S
C17 O18 1.550 . S
C17 H19 0.973 . S
O18 C17 1.550 . S
O18 C24 1.412 . S
H19 C17 0.973 . S
C20 H13 0.929 . S
C20 C21 1.400 . S
C20 C22 1.364 . S
C21 C20 1.400 . S
C21 C25 1.377 . S
C22 C20 1.364 . S
C22 C23 1.374 . S
C23 H14 0.930 . S
C23 C22 1.374 . S
C23 C24 1.383 . S
C24 O18 1.412 . S
C24 C23 1.383 . S
C24 C25 1.394 . S
C25 H15 0.929 . S
C25 C21 1.377 . S
C25 C24 1.394 . S
H26 C33 0.929 . S
H27 C36 0.930 . S
H28 C38 0.929 . S
H29 C30 0.969 . S
C30 H29 0.969 . S
C30 O31 1.550 . S
C30 H32 0.973 1_556 S
O31 C30 1.550 . S
O31 C37 1.412 . S
H32 C30 0.973 1_554 S
C33 H26 0.929 . S
C33 C34 1.400 1_554 S
C33 C35 1.364 . S
C34 C33 1.400 1_556 S
C34 C38 1.377 . S
C35 C33 1.364 . S
C35 C36 1.374 . S
C36 H27 0.930 . S
C36 C35 1.374 . S
C36 C37 1.383 1_554 S
C37 O31 1.412 . S
C37 C36 1.383 1_556 S
C37 C38 1.394 . S
C38 H28 0.929 . S
C38 C34 1.377 . S
C38 C37 1.394 . S
H39 C46 0.929 . S
H40 C49 0.930 . S
H41 C51 0.929 . S
H42 C43 0.969 . S
C43 H42 0.969 . S
C43 O44 1.550 . S
C43 H45 0.973 . S
O44 C43 1.550 . S
O44 C50 1.412 . S
H45 C43 0.973 . S
C46 H39 0.929 . S
C46 C47 1.400 . S
C46 C48 1.364 . S
C47 C46 1.400 . S
C47 C51 1.377 . S
C48 C46 1.364 . S
C48 C49 1.374 . S
C49 H40 0.930 . S
C49 C48 1.374 . S
C49 C50 1.383 . S
C50 O44 1.412 . S
C50 C49 1.383 . S
C50 C51 1.394 . S
C51 H41 0.929 . S
C51 C47 1.377 . S
C51 C50 1.394 . S
H52 C59 0.929 . S
H53 C62 0.930 . S
H54 C64 0.929 . S
H55 C56 0.969 . S
C56 H55 0.969 . S
C56 O57 1.550 1_556 S
C56 H58 0.973 . S
O57 C56 1.550 1_554 S
O57 C63 1.412 . S
H58 C56 0.973 . S
C59 H52 0.929 . S
C59 C60 1.400 . S
C59 C61 1.364 1_554 S
C60 C59 1.400 . S
C60 C64 1.377 . S
C61 C59 1.364 1_556 S
C61 C62 1.374 . S
C62 H53 0.930 . S
C62 C61 1.374 . S
C62 C63 1.383 1_556 S
C63 O57 1.412 . S
C63 C62 1.383 1_554 S
C63 C64 1.394 . S
C64 H54 0.929 . S
C64 C60 1.377 . S
C64 C63 1.394 . S
H65 C72 0.929 . S
H66 C75 0.930 . S
H67 C77 0.929 . S
H68 C69 0.969 . S
C69 H68 0.969 . S
C69 O70 1.550 . S
C69 H71 0.973 . S
O70 C69 1.550 . S
O70 C76 1.412 . S
H71 C69 0.973 . S
C72 H65 0.929 . S
C72 C73 1.400 . S
C72 C74 1.364 . S
C73 C72 1.400 . S
C73 C77 1.377 . S
C74 C72 1.364 . S
C74 C75 1.374 . S
C75 H66 0.930 . S
C75 C74 1.374 . S
C75 C76 1.383 . S
C76 O70 1.412 . S
C76 C75 1.383 . S
C76 C77 1.394 . S
C77 H67 0.929 . S
C77 C73 1.377 . S
C77 C76 1.394 . S
H78 C85 0.929 . S
H79 C88 0.930 . S
H80 C90 0.929 . S
H81 C82 0.969 . S
C82 H81 0.969 . S
C82 O83 1.550 . S
C82 H84 0.973 1_556 S
O83 C82 1.550 . S
O83 C89 1.412 . S
H84 C82 0.973 1_554 S
C85 H78 0.929 . S
C85 C86 1.400 1_554 S
C85 C87 1.364 . S
C86 C85 1.400 1_556 S
C86 C90 1.377 . S
C87 C85 1.364 . S
C87 C88 1.374 . S
C88 H79 0.930 . S
C88 C87 1.374 . S
C88 C89 1.383 1_554 S
C89 O83 1.412 . S
C89 C88 1.383 1_556 S
C89 C90 1.394 . S
C90 H80 0.929 . S
C90 C86 1.377 . S
C90 C89 1.394 . S
H91 C98 0.929 . S
H92 C101 0.930 . S
H93 C103 0.929 . S
H94 C95 0.969 . S
C95 H94 0.969 . S
C95 O96 1.550 . S
C95 H97 0.973 . S
O96 C95 1.550 . S
O96 C102 1.412 . S
H97 C95 0.973 . S
C98 H91 0.929 . S
C98 C99 1.400 . S
C98 C100 1.364 . S
C99 C98 1.400 . S
C99 C103 1.377 . S
C100 C98 1.364 . S
C100 C101 1.374 . S
C101 H92 0.930 . S
C101 C100 1.374 . S
C101 C102 1.383 . S
C102 O96 1.412 . S
C102 C101 1.383 . S
C102 C103 1.394 . S
C103 H93 0.929 . S
C103 C99 1.377 . S
C103 C102 1.394 . S
Fe104 O106 1.918 . S
Fe104 O109 1.997 1_455 S
Fe104 O110 2.002 1_455 S
Fe104 O115 1.976 . S
Fe104 O118 1.996 . S
Fe105 O106 1.918 . S
Fe105 O113 1.997 1_455 S
Fe105 O116 1.996 . S
Fe105 O120 1.976 . S
Fe105 O123 2.002 1_455 S
O106 Fe104 1.918 . S
O106 Fe105 1.918 . S
O106 Fe107 1.918 . S
Fe107 O106 1.918 . S
Fe107 O108 2.002 1_455 S
Fe107 O117 1.976 . S
Fe107 O121 1.996 . S
Fe107 O124 1.997 1_455 S
O108 Fe107 2.002 1_655 S
O108 C125 1.295 . S
O109 Fe104 1.997 1_655 S
O109 C125 1.235 . S
O110 Fe104 2.002 1_655 S
O110 C111 1.295 . S
C111 O110 1.295 . S
C111 O113 1.235 . S
C112 O117 1.287 . S
C112 O118 1.255 . S
O113 Fe105 1.997 1_655 S
O113 C111 1.235 . S
C114 O120 1.287 . S
C114 O121 1.255 . S
O115 Fe104 1.976 . S
O115 C122 1.287 . S
O116 Fe105 1.996 . S
O116 C122 1.255 . S
O117 Fe107 1.976 . S
O117 C112 1.287 . S
O118 Fe104 1.996 . S
O118 C112 1.255 . S
C119 O123 1.295 . S
C119 O124 1.235 . S
O120 Fe105 1.976 . S
O120 C114 1.287 . S
O121 Fe107 1.996 . S
O121 C114 1.255 . S
C122 O115 1.287 . S
C122 O116 1.255 . S
O123 Fe105 2.002 1_655 S
O123 C119 1.295 . S
O124 Fe107 1.997 1_655 S
O124 C119 1.235 . S
C125 O108 1.295 . S
C125 O109 1.235 . S
Fe126 O128 1.918 1_655 S
Fe126 O131 1.993 1_655 S
Fe126 O132 1.999 1_655 S
Fe126 O137 1.979 . S
Fe126 O140 1.999 . S
Fe127 O128 1.918 . S
Fe127 O135 1.997 . S
Fe127 O138 1.996 1_455 S
Fe127 O142 1.976 1_455 S
Fe127 O145 2.002 . S
O128 Fe126 1.918 1_455 S
O128 Fe127 1.918 . S
O128 Fe129 1.918 . S
Fe129 O128 1.918 . S
Fe129 O130 2.002 . S
Fe129 O139 1.976 1_455 S
Fe129 O143 1.996 1_455 S
Fe129 O146 1.997 . S
O130 Fe129 2.002 . S
O130 C147 1.295 . S
O131 Fe126 1.993 1_455 S
O131 C147 1.235 . S
O132 Fe126 1.999 1_455 S
O132 C133 1.295 . S
C133 O132 1.295 . S
C133 O135 1.235 . S
C134 O139 1.287 . S
C134 O140 1.255 . S
O135 Fe127 1.997 . S
O135 C133 1.235 . S
C136 O142 1.287 . S
C136 O143 1.255 . S
O137 Fe126 1.979 . S
O137 C144 1.287 . S
O138 Fe127 1.996 1_655 S
O138 C144 1.255 . S
O139 Fe129 1.976 1_655 S
O139 C134 1.287 . S
O140 Fe126 1.999 . S
O140 C134 1.255 . S
C141 O145 1.295 . S
C141 O146 1.235 . S
O142 Fe127 1.976 1_655 S
O142 C136 1.287 . S
O143 Fe129 1.996 1_655 S
O143 C136 1.255 . S
C144 O137 1.287 . S
C144 O138 1.255 . S
O145 Fe127 2.002 . S
O145 C141 1.295 . S
O146 Fe129 1.997 . S
O146 C141 1.235 . S
C147 O130 1.295 . S
C147 O131 1.235 . S
Fe148 O150 1.918 . S
Fe148 O153 1.997 . S
Fe148 O154 2.002 . S
Fe148 O159 1.976 . S
Fe148 O162 1.996 . S
Fe149 O150 1.918 . S
Fe149 O157 1.997 . S
Fe149 O160 1.996 . S
Fe149 O164 1.976 . S
Fe149 O167 2.002 . S
O150 Fe148 1.918 . S
O150 Fe149 1.918 . S
O150 Fe151 1.918 . S
Fe151 O150 1.918 . S
Fe151 O152 2.002 . S
Fe151 O161 1.976 . S
Fe151 O165 1.996 . S
Fe151 O168 1.997 . S
O152 Fe151 2.002 . S
O152 C169 1.295 . S
O153 Fe148 1.997 . S
O153 C169 1.235 . S
O154 Fe148 2.002 . S
O154 C155 1.295 . S
C155 O154 1.295 . S
C155 O157 1.235 . S
C156 O161 1.287 . S
C156 O162 1.255 . S
O157 Fe149 1.997 . S
O157 C155 1.235 . S
C158 O164 1.287 . S
C158 O165 1.255 . S
O159 Fe148 1.976 . S
O159 C166 1.287 . S
O160 Fe149 1.996 . S
O160 C166 1.255 . S
O161 Fe151 1.976 . S
O161 C156 1.287 . S
O162 Fe148 1.996 . S
O162 C156 1.255 . S
C163 O167 1.295 . S
C163 O168 1.235 . S
O164 Fe149 1.976 . S
O164 C158 1.287 . S
O165 Fe151 1.996 . S
O165 C158 1.255 . S
C166 O159 1.287 . S
C166 O160 1.255 . S
O167 Fe149 2.002 . S
O167 C163 1.295 . S
O168 Fe151 1.997 . S
O168 C163 1.235 . S
C169 O152 1.295 . S
C169 O153 1.235 . S
Fe170 O172 1.918 . S
Fe170 O175 1.997 . S
Fe170 O176 2.002 . S
Fe170 O181 1.976 . S
Fe170 O184 1.996 . S
Fe171 O172 1.918 . S
Fe171 O179 1.997 . S
Fe171 O182 1.996 . S
Fe171 O186 1.976 . S
Fe171 O189 2.002 . S
O172 Fe170 1.918 . S
O172 Fe171 1.918 . S
O172 Fe173 1.918 . S
Fe173 O172 1.918 . S
Fe173 O174 2.002 . S
Fe173 O183 1.976 . S
Fe173 O187 1.996 . S
Fe173 O190 1.997 . S
O174 Fe173 2.002 . S
O174 C191 1.295 . S
O175 Fe170 1.997 . S
O175 C191 1.235 . S
O176 Fe170 2.002 . S
O176 C177 1.295 . S
C177 O176 1.295 . S
C177 O179 1.235 . S
C178 O183 1.287 . S
C178 O184 1.255 . S
O179 Fe171 1.997 . S
O179 C177 1.235 . S
C180 O186 1.287 . S
C180 O187 1.255 . S
O181 Fe170 1.976 . S
O181 C188 1.287 . S
O182 Fe171 1.996 . S
O182 C188 1.255 . S
O183 Fe173 1.976 . S
O183 C178 1.287 . S
O184 Fe170 1.996 . S
O184 C178 1.255 . S
C185 O189 1.295 . S
C185 O190 1.235 . S
O186 Fe171 1.976 . S
O186 C180 1.287 . S
O187 Fe173 1.996 . S
O187 C180 1.255 . S
C188 O181 1.287 . S
C188 O182 1.255 . S
O189 Fe171 2.002 . S
O189 C185 1.295 . S
O190 Fe173 1.997 . S
O190 C185 1.235 . S
C191 O174 1.295 . S
C191 O175 1.235 . S
C192 C193 1.387 . S
C192 H196 0.950 . S
C192 C201 1.390 . S
C193 C192 1.387 . S
C193 C195 1.387 . S
H194 C201 0.950 . S
C195 C193 1.387 . S
C195 C197 1.390 . S
C195 H199 0.950 . S
H196 C192 0.950 . S
C197 C195 1.390 . S
C197 C198 1.387 . S
C197 H200 0.950 . S
C198 C197 1.387 . S
C198 C201 1.387 . S
H199 C195 0.950 . S
H200 C197 0.950 . S
C201 C192 1.390 . S
C201 H194 0.950 . S
C201 C198 1.387 . S
C202 C203 1.387 . S
C202 H206 0.950 . S
C202 C211 1.390 . S
C203 C202 1.387 . S
C203 C205 1.387 . S
H204 C211 0.950 . S
C205 C203 1.387 . S
C205 C207 1.390 . S
C205 H209 0.950 . S
H206 C202 0.950 . S
C207 C205 1.390 . S
C207 C208 1.387 . S
C207 H210 0.950 . S
C208 C207 1.387 . S
C208 C211 1.387 . S
H209 C205 0.950 . S
H210 C207 0.950 . S
C211 C202 1.390 . S
C211 H204 0.950 . S
C211 C208 1.387 . S
C212 C213 1.387 . S
C212 H216 0.950 . S
C212 C221 1.390 . S
C213 C212 1.387 . S
C213 C215 1.387 . S
H214 C221 0.950 . S
C215 C213 1.387 . S
C215 C217 1.390 . S
C215 H219 0.951 1_556 S
H216 C212 0.950 . S
C217 C215 1.390 . S
C217 C218 1.387 . S
C217 H220 0.950 . S
C218 C217 1.387 . S
C218 C221 1.387 . S
H219 C215 0.951 1_554 S
H220 C217 0.950 . S
C221 C212 1.390 . S
C221 H214 0.950 . S
C221 C218 1.387 . S
C222 C223 1.387 . S
C222 H226 0.950 . S
C222 C231 1.390 . S
C223 C222 1.387 . S
C223 C225 1.387 . S
H224 C231 0.950 . S
C225 C223 1.387 . S
C225 C227 1.390 . S
C225 H229 0.950 . S
H226 C222 0.950 . S
C227 C225 1.390 . S
C227 C228 1.387 . S
C227 H230 0.950 . S
C228 C227 1.387 . S
C228 C231 1.387 . S
H229 C225 0.950 . S
H230 C227 0.950 . S
C231 C222 1.390 . S
C231 H224 0.950 . S
C231 C228 1.387 . S
C232 C233 1.387 . S
C232 H236 0.950 1_556 S
C232 C241 1.390 . S
C233 C232 1.387 . S
C233 C235 1.387 . S
H234 C241 0.950 . S
C235 C233 1.387 . S
C235 C237 1.390 . S
C235 H239 0.950 . S
H236 C232 0.950 1_554 S
C237 C235 1.390 . S
C237 C238 1.387 . S
C237 H240 0.950 . S
C238 C237 1.387 . S
C238 C241 1.387 . S
H239 C235 0.950 . S
H240 C237 0.950 . S
C241 C232 1.390 . S
C241 H234 0.950 . S
C241 C238 1.387 . S
C242 C243 1.387 . S
C242 H246 0.950 . S
C242 C251 1.390 . S
C243 C242 1.387 . S
C243 C245 1.387 . S
H244 C251 0.950 . S
C245 C243 1.387 . S
C245 C247 1.390 . S
C245 H249 0.950 . S
H246 C242 0.950 . S
C247 C245 1.390 . S
C247 C248 1.387 . S
C247 H250 0.950 . S
C248 C247 1.387 . S
C248 C251 1.387 . S
H249 C245 0.950 . S
H250 C247 0.950 . S
C251 C242 1.390 . S
C251 H244 0.950 . S
C251 C248 1.387 . S
C252 C253 1.387 . S
C252 H256 0.950 1_556 S
C252 C261 1.390 . S
C253 C252 1.387 . S
C253 C255 1.387 . S
H254 C261 0.950 . S
C255 C253 1.387 . S
C255 C257 1.390 . S
C255 H259 0.950 . S
H256 C252 0.950 1_554 S
C257 C255 1.390 . S
C257 C258 1.387 . S
C257 H260 0.950 . S
C258 C257 1.387 . S
C258 C261 1.387 . S
H259 C255 0.950 . S
H260 C257 0.950 . S
C261 C252 1.390 . S
C261 H254 0.950 . S
C261 C258 1.387 . S
C262 C263 1.387 . S
C262 H266 0.950 . S
C262 C271 1.390 . S
C263 C262 1.387 . S
C263 C265 1.387 . S
H264 C271 0.950 . S
C265 C263 1.387 . S
C265 C267 1.390 . S
C265 H269 0.950 . S
H266 C262 0.950 . S
C267 C265 1.390 . S
C267 C268 1.387 . S
C267 H270 0.950 . S
C268 C267 1.387 . S
C268 C271 1.387 . S
H269 C265 0.950 . S
H270 C267 0.950 . S
C271 C262 1.390 . S
C271 H264 0.950 . S
C271 C268 1.387 . S
C272 C273 1.387 . S
C272 H276 0.950 . S
C272 C281 1.390 . S
C273 C272 1.387 . S
C273 C275 1.387 . S
H274 C281 0.950 . S
C275 C273 1.387 . S
C275 C277 1.390 . S
C275 H279 0.950 1_556 S
H276 C272 0.950 . S
C277 C275 1.390 . S
C277 C278 1.387 . S
C277 H280 0.950 . S
C278 C277 1.387 . S
C278 C281 1.387 . S
H279 C275 0.950 1_554 S
H280 C277 0.950 . S
C281 C272 1.390 . S
C281 H274 0.950 . S
C281 C278 1.387 . S
C282 C283 1.387 . S
C282 H286 0.950 . S
C282 C291 1.390 . S
C283 C282 1.387 . S
C283 C285 1.387 . S
H284 C291 0.950 . S
C285 C283 1.387 . S
C285 C287 1.390 . S
C285 H289 0.950 . S
H286 C282 0.950 . S
C287 C285 1.390 . S
C287 C288 1.387 . S
C287 H290 0.950 . S
C288 C287 1.387 . S
C288 C291 1.387 . S
H289 C285 0.950 . S
H290 C287 0.950 . S
C291 C282 1.390 . S
C291 H284 0.950 . S
C291 C288 1.387 . S
C292 C293 1.387 . S
C292 H296 0.950 . S
C292 C301 1.390 . S
C293 C292 1.387 . S
C293 C295 1.387 . S
H294 C301 0.950 . S
C295 C293 1.387 . S
C295 C297 1.390 . S
C295 H299 0.950 . S
H296 C292 0.950 . S
C297 C295 1.390 . S
C297 C298 1.387 . S
C297 H300 0.950 . S
C298 C297 1.387 . S
C298 C301 1.387 . S
H299 C295 0.950 . S
H300 C297 0.950 . S
C301 C292 1.390 . S
C301 H294 0.950 . S
C301 C298 1.387 . S
C302 C303 1.387 . S
C302 H306 0.950 . S
C302 C311 1.390 . S
C303 C302 1.387 . S
C303 C305 1.387 . S
H304 C311 0.950 . S
C305 C303 1.387 . S
C305 C307 1.390 . S
C305 H309 0.950 . S
H306 C302 0.950 . S
C307 C305 1.390 . S
C307 C308 1.387 . S
C307 H310 0.950 . S
C308 C307 1.387 . S
C308 C311 1.387 . S
H309 C305 0.950 . S
H310 C307 0.950 . S
C311 C302 1.390 . S
C311 H304 0.950 . S
C311 C308 1.387 . S
C312 C313 1.387 . S
C312 H316 0.950 . S
C312 C321 1.390 . S
C313 C312 1.387 . S
C313 C315 1.387 . S
H314 C321 0.950 . S
C315 C313 1.387 . S
C315 C317 1.390 1_565 S
C315 H319 0.950 1_566 S
H316 C312 0.950 . S
C317 C315 1.390 1_545 S
C317 C318 1.387 . S
C317 H320 0.950 . S
C318 C317 1.387 . S
C318 C321 1.387 1_545 S
H319 C315 0.950 1_544 S
H320 C317 0.950 . S
C321 C312 1.390 . S
C321 H314 0.950 . S
C321 C318 1.387 1_565 S
C322 C323 1.387 1_565 S
C322 H326 0.950 . S
C322 C331 1.390 . S
C323 C322 1.387 1_545 S
C323 C325 1.387 . S
H324 C331 0.950 . S
C325 C323 1.387 . S
C325 C327 1.390 . S
C325 H329 0.950 . S
H326 C322 0.950 . S
C327 C325 1.390 . S
C327 C328 1.387 1_545 S
C327 H330 0.950 . S
C328 C327 1.387 1_565 S
C328 C331 1.387 . S
H329 C325 0.950 . S
H330 C327 0.950 . S
C331 C322 1.390 . S
C331 H324 0.950 . S
C331 C328 1.387 . S
C332 C333 1.387 . S
C332 H336 0.950 . S
C332 C341 1.390 . S
C333 C332 1.387 . S
C333 C335 1.387 1_565 S
H334 C341 0.950 . S
C335 C333 1.387 1_545 S
C335 C337 1.390 . S
C335 H339 0.948 1_556 S
H336 C332 0.950 . S
C337 C335 1.390 . S
C337 C338 1.387 . S
C337 H340 0.950 . S
C338 C337 1.387 . S
C338 C341 1.387 1_545 S
H339 C335 0.948 1_554 S
H340 C337 0.950 . S
C341 C332 1.390 . S
C341 H334 0.950 . S
C341 C338 1.387 1_565 S
C342 C343 1.387 . S
C342 H346 0.950 . S
C342 C351 1.390 1_545 S
C343 C342 1.387 . S
C343 C345 1.387 . S
H344 C351 0.950 . S
C345 C343 1.387 . S
C345 C347 1.390 1_545 S
C345 H349 0.950 . S
H346 C342 0.950 . S
C347 C345 1.390 1_565 S
C347 C348 1.387 . S
C347 H350 0.950 . S
C348 C347 1.387 . S
C348 C351 1.387 . S
H349 C345 0.950 . S
H350 C347 0.950 . S
C351 C342 1.390 1_565 S
C351 H344 0.950 . S
C351 C348 1.387 . S
C352 C353 1.387 . S
C352 H356 0.950 . S
C352 C361 1.390 . S
C353 C352 1.387 . S
C353 C355 1.387 . S
H354 C361 0.950 . S
C355 C353 1.387 . S
C355 C357 1.390 . S
C355 H359 0.950 . S
H356 C352 0.950 . S
C357 C355 1.390 . S
C357 C358 1.387 . S
C357 H360 0.950 . S
C358 C357 1.387 . S
C358 C361 1.387 . S
H359 C355 0.950 . S
H360 C357 0.950 . S
C361 C352 1.390 . S
C361 H354 0.950 . S
C361 C358 1.387 . S
C362 C363 1.387 . S
C362 H366 0.950 . S
C362 C371 1.390 . S
C363 C362 1.387 . S
C363 C365 1.387 . S
H364 C371 0.950 . S
C365 C363 1.387 . S
C365 C367 1.390 . S
C365 H369 0.950 . S
H366 C362 0.950 . S
C367 C365 1.390 . S
C367 C368 1.387 . S
C367 H370 0.950 . S
C368 C367 1.387 . S
C368 C371 1.387 . S
H369 C365 0.950 . S
H370 C367 0.950 . S
C371 C362 1.390 . S
C371 H364 0.950 . S
C371 C368 1.387 . S
C372 C373 1.387 . S
C372 H376 0.950 . S
C372 C381 1.390 . S
C373 C372 1.387 . S
C373 C375 1.387 . S
H374 C381 0.950 . S
C375 C373 1.387 . S
C375 C377 1.390 . S
C375 H379 0.950 . S
H376 C372 0.950 . S
C377 C375 1.390 . S
C377 C378 1.387 . S
C377 H380 0.950 . S
C378 C377 1.387 . S
C378 C381 1.387 . S
H379 C375 0.950 . S
H380 C377 0.950 . S
C381 C372 1.390 . S
C381 H374 0.950 . S
C381 C378 1.387 . S
C382 C383 1.387 . S
C382 H386 0.950 . S
C382 C391 1.390 . S
C383 C382 1.387 . S
C383 C385 1.387 . S
H384 C391 0.950 . S
C385 C383 1.387 . S
C385 C387 1.390 . S
C385 H389 0.950 . S
H386 C382 0.950 . S
C387 C385 1.390 . S
C387 C388 1.387 . S
C387 H390 0.950 . S
C388 C387 1.387 . S
C388 C391 1.387 . S
H389 C385 0.950 . S
H390 C387 0.950 . S
C391 C382 1.390 . S
C391 H384 0.950 . S
C391 C388 1.387 . S
C392 C393 1.387 . S
C392 H396 0.950 . S
C392 C401 1.390 . S
C393 C392 1.387 . S
C393 C395 1.387 . S
H394 C401 0.950 . S
C395 C393 1.387 . S
C395 C397 1.390 . S
C395 H399 0.950 . S
H396 C392 0.950 . S
C397 C395 1.390 . S
C397 C398 1.387 . S
C397 H400 0.950 . S
C398 C397 1.387 . S
C398 C401 1.387 . S
H399 C395 0.950 . S
H400 C397 0.950 . S
C401 C392 1.390 . S
C401 H394 0.950 . S
C401 C398 1.387 . S
C402 C403 1.387 . S
C402 H406 0.950 . S
C402 C411 1.390 . S
C403 C402 1.387 . S
C403 C405 1.387 . S
H404 C411 0.950 . S
C405 C403 1.387 . S
C405 C407 1.390 . S
C405 H409 0.950 . S
H406 C402 0.950 . S
C407 C405 1.390 . S
C407 C408 1.387 . S
C407 H410 0.950 . S
C408 C407 1.387 . S
C408 C411 1.387 . S
H409 C405 0.950 . S
H410 C407 0.950 . S
C411 C402 1.390 . S
C411 H404 0.950 . S
C411 C408 1.387 . S
C412 C413 1.387 . S
C412 H416 0.950 . S
C412 C421 1.390 . S
C413 C412 1.387 . S
C413 C415 1.387 . S
H414 C421 0.950 . S
C415 C413 1.387 . S
C415 C417 1.390 . S
C415 H419 0.950 . S
H416 C412 0.950 . S
C417 C415 1.390 . S
C417 C418 1.387 . S
C417 H420 0.950 . S
C418 C417 1.387 . S
C418 C421 1.387 . S
H419 C415 0.950 . S
H420 C417 0.950 . S
C421 C412 1.390 . S
C421 H414 0.950 . S
C421 C418 1.387 . S
C422 C423 1.387 . S
C422 H426 0.950 . S
C422 C431 1.390 . S
C423 C422 1.387 . S
C423 C425 1.387 . S
H424 C431 0.950 . S
C425 C423 1.387 . S
C425 C427 1.390 . S
C425 H429 0.950 . S
H426 C422 0.950 . S
C427 C425 1.390 . S
C427 C428 1.387 . S
C427 H430 0.950 . S
C428 C427 1.387 . S
C428 C431 1.387 . S
H429 C425 0.950 . S
H430 C427 0.950 . S
C431 C422 1.390 . S
C431 H424 0.950 . S
C431 C428 1.387 . S
C193 C4 1.524 . S
C198 C147 1.586 . S
C208 C111 1.480 . S
C203 C17 1.475 . S
C218 C134 1.483 . S
C213 C30 1.404 . S
C228 C122 1.592 . S
C223 C43 1.571 . S
C238 C191 1.585 . S
C233 C56 1.521 . S
C248 C155 1.478 . S
C243 C69 1.475 . S
C253 C82 1.407 . S
C258 C178 1.484 . S
C268 C166 1.592 . S
C263 C95 1.572 . S
C273 C9 1.536 . S
C278 C188 1.575 . S
C288 C158 1.467 . S
C283 C21 1.454 . S
C293 C34 1.467 . S
C298 C177 1.479 . S
C303 C48 1.560 . S
C308 C163 1.587 . S
C318 C144 1.575 . S
C313 C61 1.536 . S
C323 C73 1.455 . S
C328 C114 1.467 . S
C338 C133 1.477 . S
C333 C86 1.469 . S
C348 C119 1.587 . S
C343 C100 1.560 . S
C358 C169 1.530 . S
C353 C8 1.520 . S
C368 C185 1.535 . S
C363 C22 1.513 . S
C373 C35 1.484 . S
C378 C156 1.518 . S
C388 C180 1.514 . S
C383 C47 1.501 . S
C398 C125 1.530 . S
C393 C60 1.520 . S
C403 C74 1.513 . S
C408 C141 1.535 . S
C413 C87 1.484 . S
C418 C112 1.518 . S
C423 C99 1.501 . S
C428 C136 1.514 . S
