# Generated by pormake.
# Topology zzz, (3,6)-cn, num edge types: 1
# Building blocks:
#     Node 0, Type 0, BuildingBlock: CUQRIR_clean_linker_1, # of connection points: 3
#     Node 1, Type 0, BuildingBlock: CUQRIR_clean_linker_1, # of connection points: 3
#     Node 2, Type 0, BuildingBlock: CUQRIR_clean_linker_1, # of connection points: 3
#     Node 3, Type 0, BuildingBlock: CUQRIR_clean_linker_1, # of connection points: 3
#     Node 4, Type 0, BuildingBlock: CUQRIR_clean_linker_1, # of connection points: 3
#     Node 5, Type 0, BuildingBlock: CUQRIR_clean_linker_1, # of connection points: 3
#     Node 6, Type 0, BuildingBlock: CUQRIR_clean_linker_1, # of connection points: 3
#     Node 7, Type 0, BuildingBlock: CUQRIR_clean_linker_1, # of connection points: 3
#     Node 8, Type 1, BuildingBlock: BETFEN_clean_sbu_0, # of connection points: 6
#     Node 9, Type 1, BuildingBlock: BETFEN_clean_sbu_0, # of connection points: 6
#     Node 10, Type 1, BuildingBlock: BETFEN_clean_sbu_0, # of connection points: 6
#     Node 11, Type 1, BuildingBlock: BETFEN_clean_sbu_0, # of connection points: 6
#     Edge 12, Type (0, 1), None
#     Edge 13, Type (0, 1), None
#     Edge 14, Type (0, 1), None
#     Edge 15, Type (0, 1), None
#     Edge 16, Type (0, 1), None
#     Edge 17, Type (0, 1), None
#     Edge 18, Type (0, 1), None
#     Edge 19, Type (0, 1), None
#     Edge 20, Type (0, 1), None
#     Edge 21, Type (0, 1), None
#     Edge 22, Type (0, 1), None
#     Edge 23, Type (0, 1), None
#     Edge 24, Type (0, 1), None
#     Edge 25, Type (0, 1), None
#     Edge 26, Type (0, 1), None
#     Edge 27, Type (0, 1), None
#     Edge 28, Type (0, 1), None
#     Edge 29, Type (0, 1), None
#     Edge 30, Type (0, 1), None
#     Edge 31, Type (0, 1), None
#     Edge 32, Type (0, 1), None
#     Edge 33, Type (0, 1), None
#     Edge 34, Type (0, 1), None
#     Edge 35, Type (0, 1), None
# Relax obj value: 0.944
# Max RMSD: 0.280
# Mean RMSD: 0.145
data_MOF--net-zzz--node1-BETFEN_clean_sbu_0--node2-CUQRIR_clean_linker_1--edge1-none
_symmetry_space_group_name_H-M    P1
_symmetry_Int_Tables_number       1
_symmetry_cell_setting            triclinic
loop_
_symmetry_equiv_pos_as_xyz
'x, y, z'
_cell_length_a     20.410354
_cell_length_b     19.293929
_cell_length_c     6.3477839
_cell_angle_alpha  90.1299
_cell_angle_beta   83.541072
_cell_angle_gamma 90.552267
loop_
_atom_site_label
_atom_site_type_symbol
_atom_site_fract_x
_atom_site_fract_y
_atom_site_fract_z
_atom_type_partial_charge
C0 C 0.76718 0.63936 0.50104 0.0
N1 N 0.81845 0.59148 0.51129 0.0
N2 N 0.72516 0.62206 0.34729 0.0
C3 C 0.76019 0.70393 0.63039 0.0
C4 C 0.76158 0.57406 0.24162 0.0
N5 N 0.80907 0.54906 0.35077 0.0
C6 C 0.76828 0.5771 1.00602 0.0
H7 H 0.71855 0.69757 0.75635 0.0
H8 H 0.74972 0.74757 0.52677 0.0
H9 H 0.80557 0.71545 0.70533 0.0
H10 H 0.79454 0.53371 0.93429 0.0
H11 H 0.79594 0.62522 0.95962 0.0
H12 H 0.72029 0.57947 0.94329 0.0
C13 C 0.98108 0.80435 0.34454 0.0
N14 N 1.02402 0.86035 0.38857 0.0
N15 N 0.99969 0.76737 0.15157 0.0
C16 C 0.92049 0.78582 0.48592 0.0
C17 C 0.05259 0.80556 0.08346 0.0
N18 N 0.07242 0.85055 0.22893 0.0
C19 C 0.06713 0.81967 0.85473 0.0
H20 H 0.92872 0.73654 0.56316 0.0
H21 H 0.87876 0.77811 0.39018 0.0
H22 H 0.90904 0.82469 0.61201 0.0
H23 H 1.02462 0.80447 0.77081 0.0
H24 H 0.11034 0.79146 0.78646 0.0
H25 H 0.07907 0.87527 0.8364 0.0
C26 C 0.79702 0.98757 0.49245 0.0
N27 N 0.73599 1.02457 0.52461 0.0
N28 N 0.83767 1.00399 0.29899 0.0
C29 C 0.80796 0.92225 0.60772 0.0
C30 C 0.79463 1.04299 0.21348 0.0
N31 N 0.74352 0.06433 0.35093 0.0
C32 C 0.7929 1.04077 0.98219 0.0
H33 H 0.85107 0.92838 0.6974 0.0
H34 H 0.81837 0.88056 0.48913 0.0
H35 H 0.76387 0.90688 0.71588 0.0
H36 H 0.7741 0.98877 0.9508 0.0
H37 H 0.84217 1.04765 0.89762 0.0
H38 H 0.7605 0.07833 0.92529 0.0
C39 C 0.58392 0.82025 0.52941 0.0
N40 N 0.5392 0.76579 0.60156 0.0
N41 N 0.56274 0.8614 0.36471 0.0
C42 C 0.6435 0.83915 0.63349 0.0
C43 C 0.51249 0.82247 0.32019 0.0
N44 N 0.49173 0.77686 0.47481 0.0
C45 C 0.50598 0.80765 0.09312 0.0
H46 H 0.63379 0.88734 0.72598 0.0
H47 H 0.68513 0.8498 0.50967 0.0
H48 H 0.65605 0.79846 0.74369 0.0
H49 H 0.55423 0.81568 0.99789 0.0
H50 H 0.47051 0.84209 0.02863 0.0
H51 H 0.49004 0.75354 0.0813 0.0
C52 C 0.29093 0.52225 0.76136 0.0
N53 N 0.23251 0.53596 0.88837 0.0
N54 N 0.34344 0.51117 0.88004 0.0
C55 C 0.29055 0.48765 0.55894 0.0
C56 C 0.30956 0.5045 0.06944 0.0
N57 N 0.25382 0.54212 0.07525 0.0
C58 C 0.30209 0.42905 0.13388 0.0
H59 H 0.3029 0.43231 0.57961 0.0
H60 H 0.32983 0.51162 0.45124 0.0
H61 H 0.2415 0.49073 0.50173 0.0
H62 H 0.34281 0.4151 0.22508 0.0
H63 H 0.30581 0.39415 0.99333 0.0
H64 H 0.25377 0.41839 0.22564 0.0
C65 C 0.0682 0.32412 0.26931 0.0
N66 N 0.03048 0.26151 0.26298 0.0
N67 N 0.05014 0.36599 0.45112 0.0
C68 C 0.13243 0.33633 0.13538 0.0
C69 C 1.01144 0.31956 0.56083 0.0
N70 N 0.98959 0.2685 0.44209 0.0
C71 C 1.0097 0.31294 0.79257 0.0
H72 H 0.17191 0.3368 0.24156 0.0
H73 H 0.13319 0.38786 0.05867 0.0
H74 H 0.14375 0.29506 0.01588 0.0
H75 H 0.98884 0.35891 0.87247 0.0
H76 H 0.06117 0.30978 0.82527 0.0
H77 H 0.98223 0.26635 0.8489 0.0
C78 C 0.25986 0.12991 0.31572 0.0
N79 N 0.32228 0.09904 0.32785 0.0
N80 N 0.21441 0.11553 0.49561 0.0
C81 C 0.2577 0.20276 0.23453 0.0
C82 C 0.25572 0.09426 0.62589 0.0
N83 N 0.3134 0.07456 0.52527 0.0
C84 C 0.25443 0.12864 0.83145 0.0
H85 H 0.30113 0.21652 0.12122 0.0
H86 H 0.25836 0.23894 0.37065 0.0
H87 H 0.21018 0.21158 0.17122 0.0
H88 H 0.23548 0.09123 0.95192 0.0
H89 H 0.22209 0.17469 0.83792 0.0
H90 H 0.30528 0.14454 0.85498 0.0
C91 C 0.47497 0.3016 0.46223 0.0
N92 N 0.52062 0.35621 0.40736 0.0
N93 N 0.49409 0.25772 0.62027 0.0
C94 C 0.41387 0.2882 0.3589 0.0
C95 C 0.54153 0.2964 0.68703 0.0
N96 N 0.56449 0.3455 0.54708 0.0
C97 C 0.54307 0.3048 0.91943 0.0
H98 H 0.37053 0.28917 0.48121 0.0
H99 H 0.41598 0.23569 0.28764 0.0
H100 H 0.4078 0.32683 0.23536 0.0
H101 H 0.4919 0.31114 0.99146 0.0
H102 H 0.57086 0.35094 0.95429 0.0
H103 H 0.56233 0.25835 0.98967 0.0
Pr104 Pr 0.04309 0.06602 0.87513 0.0
Pr105 Pr 1.00453 1.04431 0.84501 0.0
C106 C 0.12016 1.02143 0.16873 0.0
C107 C 0.18415 0.987 0.17477 0.0
C108 C 0.1984 0.94228 1.00389 0.0
C109 C 0.18327 0.87292 0.04152 0.0
C110 C 0.14321 0.85821 0.23461 0.0
C111 C 0.16605 0.8903 0.40694 0.0
C112 C 0.19188 0.9561 0.37038 0.0
C113 C 0.14517 0.10593 0.55397 0.0
C114 C 1.01891 0.91884 0.54339 0.0
C115 C 0.93436 0.10097 0.54832 0.0
C116 C 0.87469 0.14141 0.52741 0.0
C117 C 0.86096 0.1887 0.69262 0.0
C118 C 0.8808 0.25658 0.6484 0.0
C119 C 0.91864 0.26692 0.45043 0.0
C120 C 0.89219 0.23682 0.28417 0.0
C121 C 0.87147 0.1701 0.3231 0.0
C122 C 0.90613 1.00323 0.20247 0.0
C123 C 0.03317 0.19916 0.12665 0.0
O124 O 0.07249 0.98488 0.10162 0.0
O125 O 0.12186 0.08375 0.09606 0.0
O126 O 0.11986 1.04722 0.62704 0.0
O127 O 0.10851 0.1526 0.65932 0.0
O128 O 0.97928 0.92457 0.71864 0.0
O129 O 0.05547 0.97757 0.5459 0.0
O130 O 0.92665 1.03865 0.61913 0.0
O131 O 0.98254 0.1328 0.62691 0.0
O132 O 0.93901 1.05963 0.1433 0.0
O133 O 0.92976 0.96019 0.05341 0.0
O134 O 0.06752 0.19002 0.94432 0.0
O135 O 0.99873 0.13915 0.15435 0.0
H136 H 0.20256 0.96092 0.84343 0.0
H137 H 0.19044 0.83829 0.9091 0.0
H138 H 0.15775 0.87 0.56391 0.0
H139 H 0.20825 0.98308 0.49907 0.0
H140 H 0.85731 0.17194 0.8541 0.0
H141 H 0.88219 0.29202 0.77777 0.0
H142 H 0.90527 0.2536 0.12335 0.0
H143 H 0.86532 0.1423 0.1837 0.0
Pr144 Pr 0.54501 0.07439 0.03555 0.0
Pr145 Pr 0.51638 1.03436 0.87969 0.0
C146 C 0.58712 0.15573 0.33562 0.0
C147 C 0.63089 0.21423 0.36717 0.0
C148 C 0.6783 0.22377 0.19313 0.0
C149 C 0.73238 0.18092 0.18841 0.0
C150 C 0.73626 0.13822 0.36783 0.0
C151 C 0.71281 0.1671 0.56117 0.0
C152 C 0.6583 0.20747 0.56072 0.0
C153 C 0.48034 0.19016 0.7052 0.0
C154 C 0.67277 1.02332 0.66799 0.0
C155 C 0.47002 0.94267 0.61674 0.0
C156 C 0.40894 0.90381 0.62709 0.0
C157 C 0.36626 0.92177 0.80425 0.0
C158 C 0.33067 0.98128 0.77788 0.0
C159 C 0.32758 1.00508 0.56949 0.0
C160 C 0.3406 0.95867 0.40319 0.0
C161 C 0.38304 0.90659 0.43237 0.0
C162 C 0.57666 0.92603 0.25442 0.0
C163 C 0.38649 0.09234 0.19972 0.0
O164 O 0.61646 0.10061 0.25373 0.0
O165 O 0.5318 0.16689 0.26039 0.0
O166 O 0.52881 0.1504 0.7526 0.0
O167 O 0.53038 0.15097 0.74812 0.0
O168 O 0.6151 1.03662 0.6061 0.0
O169 O 0.66091 1.02844 0.87986 0.0
O170 O 0.46319 1.00909 0.60475 0.0
O171 O 0.51076 0.92614 0.74855 0.0
O172 O 0.52894 0.96184 0.18135 0.0
O173 O 0.52712 0.96126 0.18536 0.0
O174 O 0.44092 0.07673 0.28005 0.0
O175 O 0.40109 0.08558 0.99182 0.0
H176 H 0.66617 0.24463 0.04625 0.0
H177 H 0.76336 0.17663 0.04297 0.0
H178 H 0.72543 0.148 0.70912 0.0
H179 H 0.63252 0.21621 0.71348 0.0
H180 H 0.37727 0.90783 0.96035 0.0
H181 H 0.31251 1.01071 0.91491 0.0
H182 H 0.32887 0.96984 0.24582 0.0
H183 H 0.41006 0.88988 0.28913 0.0
Pr184 Pr 0.51416 0.5659 0.10134 0.0
Pr185 Pr 0.5566 0.56898 0.97496 0.0
C186 C 0.44582 0.60706 0.45934 0.0
C187 C 0.38169 0.63916 0.4885 0.0
C188 C 0.37464 0.68175 0.31451 0.0
C189 C 0.38583 0.75112 0.34296 0.0
C190 C 0.42145 0.76571 0.51664 0.0
C191 C 0.39419 0.737 0.70593 0.0
C192 C 0.36758 0.67141 0.68646 0.0
C193 C 0.4125 0.51965 0.8591 0.0
C194 C 0.54257 0.70633 0.74595 0.0
C195 C 0.62312 0.5236 0.61363 0.0
C196 C 0.67898 0.47944 0.5517 0.0
C197 C 0.6924 0.43336 0.71002 0.0
C198 C 0.67126 0.36573 0.68555 0.0
C199 C 0.6352 0.3536 0.51185 0.0
C200 C 0.66258 0.3824 0.32617 0.0
C201 C 0.67998 0.45051 0.34656 0.0
C202 C 0.66075 0.63563 0.29143 0.0
C203 C 0.51824 0.41821 0.27714 0.0
O204 O 0.49342 0.64392 0.35701 0.0
O205 O 0.44493 0.54388 0.39486 0.0
O206 O 0.44063 0.57848 0.88327 0.0
O207 O 0.44987 0.47647 0.949 0.0
O208 O 0.5926 0.68631 0.83848 0.0
O209 O 0.4952 0.66021 0.81529 0.0
O210 O 0.57113 0.49183 0.70843 0.0
O211 O 0.63556 0.582 0.70263 0.0
O212 O 0.62284 0.58283 0.24178 0.0
O213 O 0.62396 0.58256 0.24607 0.0
O214 O 0.4679 0.45693 0.26643 0.0
O215 O 0.56788 0.45204 0.16475 0.0
H216 H 0.37837 0.66163 0.15553 0.0
H217 H 0.38532 0.78384 0.20699 0.0
H218 H 0.40519 0.75628 0.85701 0.0
H219 H 0.35274 0.64296 0.82615 0.0
H220 H 0.70173 0.45139 0.86402 0.0
H221 H 0.67067 0.33061 0.81627 0.0
H222 H 0.65136 0.36313 0.17508 0.0
H223 H 0.68315 0.4794 0.20355 0.0
Pr224 Pr 1.01381 0.54168 0.87055 0.0
Pr225 Pr 1.02858 0.60397 0.67588 0.0
C226 C 0.96999 0.46653 0.21273 0.0
C227 C 0.92603 0.40889 0.27792 0.0
C228 C 0.87868 0.39698 0.13854 0.0
C229 C 0.82119 0.43358 0.18092 0.0
C230 C 0.81564 0.47517 0.36431 0.0
C231 C 0.84135 0.4471 0.53715 0.0
C232 C 0.90069 0.41505 0.49301 0.0
C233 C 0.06168 0.43388 0.53815 0.0
C234 C 0.88071 0.59567 0.59874 0.0
C235 C 0.08679 0.69241 0.38868 0.0
C236 C 0.15324 0.6841 0.30824 0.0
C237 C 0.18269 0.704 0.10825 0.0
C238 C 0.23855 0.66789 0.02406 0.0
C239 C 0.25969 0.61224 0.14894 0.0
C240 C 0.24383 0.62026 0.36367 0.0
C241 C 0.17884 0.62733 0.39805 0.0
C242 C 0.98924 0.69957 0.05743 0.0
C243 C 0.16511 0.54707 0.86064 0.0
O244 O 0.94197 0.5231 0.15646 0.0
O245 O 1.02326 0.45246 0.09153 0.0
O246 O 1.02374 0.48769 0.52348 0.0
O247 O 0.07469 0.43981 0.73272 0.0
O248 O 0.93407 0.61575 0.48683 0.0
O249 O 0.89718 0.561 0.76913 0.0
O250 O 0.0493 0.64124 0.34235 0.0
O251 O 0.08147 0.70278 0.58975 0.0
O252 O 0.03564 0.65424 0.01687 0.0
O253 O 0.95618 0.68817 0.89525 0.0
O254 O 0.11857 0.55997 1.01151 0.0
O255 O 0.13877 0.54652 0.68521 0.0
H256 H 0.89099 0.38145 0.9777 0.0
H257 H 0.78837 0.43584 0.06085 0.0
H258 H 0.82637 0.46355 0.69539 0.0
H259 H 0.93014 0.41458 0.62215 0.0
H260 H 0.15695 0.73328 1.00457 0.0
H261 H 0.24754 0.66854 0.85353 0.0
H262 H 0.26228 0.66429 0.44327 0.0
H263 H 0.1521 0.58086 0.35923 0.0
loop_
_geom_bond_atom_site_label_1
_geom_bond_atom_site_label_2
_geom_bond_distance
_geom_bond_site_symmetry_2
_ccdc_geom_bond_type
C0 N1 1.317 . S
C0 N2 1.348 . S
C0 C3 1.485 1_556 S
N1 C0 1.317 . S
N1 N5 1.370 . S
N2 C0 1.348 . S
N2 C4 1.346 . S
C3 C0 1.485 1_554 S
C3 H7 0.960 . S
C3 H8 0.961 . S
C3 H9 0.960 . S
C4 N2 1.346 . S
C4 N5 1.307 . S
C4 C6 1.486 . S
N5 N1 1.370 . S
N5 C4 1.307 . S
C6 C4 1.486 . S
C6 H10 0.960 . S
C6 H11 0.960 . S
C6 H12 0.959 . S
H7 C3 0.960 . S
H8 C3 0.961 . S
H9 C3 0.960 . S
H10 C6 0.960 . S
H11 C6 0.960 . S
H12 C6 0.959 . S
C13 N14 1.317 . S
C13 N15 1.348 . S
C13 C16 1.485 1_556 S
N14 C13 1.317 . S
N14 N18 1.371 . S
N15 C13 1.348 . S
N15 C17 1.346 1_655 S
C16 C13 1.485 1_554 S
C16 H20 0.960 1_655 S
C16 H21 0.961 . S
C16 H22 0.960 . S
C17 N15 1.346 1_455 S
C17 N18 1.307 1_455 S
C17 C19 1.486 . S
N18 N14 1.371 . S
N18 C17 1.307 1_655 S
C19 C17 1.486 . S
C19 H23 0.960 1_455 S
C19 H24 0.960 . S
C19 H25 0.959 . S
H20 C16 0.960 1_455 S
H21 C16 0.961 . S
H22 C16 0.960 . S
H23 C19 0.960 1_655 S
H24 C19 0.960 . S
H25 C19 0.959 . S
C26 N27 1.317 . S
C26 N28 1.348 . S
C26 C29 1.485 1_556 S
N27 C26 1.317 . S
N27 N31 1.371 . S
N28 C26 1.348 . S
N28 C30 1.346 1_565 S
C29 C26 1.485 1_554 S
C29 H33 0.960 1_565 S
C29 H34 0.961 . S
C29 H35 0.960 . S
C30 N28 1.346 1_545 S
C30 N31 1.307 1_545 S
C30 C32 1.486 . S
N31 N27 1.371 . S
N31 C30 1.307 1_565 S
C32 C30 1.486 . S
C32 H36 0.960 1_545 S
C32 H37 0.960 . S
C32 H38 0.959 . S
H33 C29 0.960 1_545 S
H34 C29 0.961 . S
H35 C29 0.960 . S
H36 C32 0.960 1_565 S
H37 C32 0.960 . S
H38 C32 0.959 . S
C39 N40 1.317 . S
C39 N41 1.348 . S
C39 C42 1.485 1_556 S
N40 C39 1.317 . S
N40 N44 1.370 . S
N41 C39 1.348 . S
N41 C43 1.346 . S
C42 C39 1.485 1_554 S
C42 H46 0.960 . S
C42 H47 0.961 . S
C42 H48 0.960 . S
C43 N41 1.346 . S
C43 N44 1.307 . S
C43 C45 1.486 . S
N44 N40 1.370 . S
N44 C43 1.307 . S
C45 C43 1.486 . S
C45 H49 0.960 . S
C45 H50 0.960 . S
C45 H51 0.959 . S
H46 C42 0.960 . S
H47 C42 0.961 . S
H48 C42 0.960 . S
H49 C45 0.960 . S
H50 C45 0.960 . S
H51 C45 0.959 . S
C52 N53 1.317 . S
C52 N54 1.348 1_556 S
C52 C55 1.485 . S
N53 C52 1.317 . S
N53 N57 1.370 1_556 S
N54 C52 1.348 1_554 S
N54 C56 1.346 . S
C55 C52 1.485 . S
C55 H59 0.960 . S
C55 H60 0.961 . S
C55 H61 0.960 . S
C56 N54 1.346 . S
C56 N57 1.307 . S
C56 C58 1.486 . S
N57 N53 1.370 1_554 S
N57 C56 1.307 . S
C58 C56 1.486 . S
C58 H62 0.960 . S
C58 H63 0.960 . S
C58 H64 0.959 . S
H59 C55 0.960 . S
H60 C55 0.961 . S
H61 C55 0.960 . S
H62 C58 0.960 . S
H63 C58 0.960 . S
H64 C58 0.959 . S
C65 N66 1.317 . S
C65 N67 1.348 1_556 S
C65 C68 1.485 . S
N66 C65 1.317 . S
N66 N70 1.371 1_556 S
N67 C65 1.348 1_554 S
N67 C69 1.346 1_655 S
C68 C65 1.485 . S
C68 H72 0.960 1_655 S
C68 H73 0.961 . S
C68 H74 0.960 . S
C69 N67 1.346 1_455 S
C69 N70 1.307 1_455 S
C69 C71 1.487 . S
N70 N66 1.371 1_554 S
N70 C69 1.307 1_655 S
C71 C69 1.487 . S
C71 H75 0.960 1_455 S
C71 H76 0.960 . S
C71 H77 0.959 . S
H72 C68 0.960 1_455 S
H73 C68 0.961 . S
H74 C68 0.960 . S
H75 C71 0.960 1_655 S
H76 C71 0.960 . S
H77 C71 0.959 . S
C78 N79 1.317 . S
C78 N80 1.348 1_556 S
C78 C81 1.485 . S
N79 C78 1.317 . S
N79 N83 1.371 1_556 S
N80 C78 1.348 1_554 S
N80 C82 1.346 1_565 S
C81 C78 1.485 . S
C81 H85 0.960 1_565 S
C81 H86 0.961 . S
C81 H87 0.960 . S
C82 N80 1.346 1_545 S
C82 N83 1.307 1_545 S
C82 C84 1.487 . S
N83 N79 1.371 1_554 S
N83 C82 1.307 1_565 S
C84 C82 1.487 . S
C84 H88 0.960 1_545 S
C84 H89 0.960 . S
C84 H90 0.959 . S
H85 C81 0.960 1_545 S
H86 C81 0.961 . S
H87 C81 0.960 . S
H88 C84 0.960 1_565 S
H89 C84 0.960 . S
H90 C84 0.959 . S
C91 N92 1.317 . S
C91 N93 1.348 1_556 S
C91 C94 1.485 . S
N92 C91 1.317 . S
N92 N96 1.370 1_556 S
N93 C91 1.348 1_554 S
N93 C95 1.346 . S
C94 C91 1.485 . S
C94 H98 0.960 . S
C94 H99 0.961 . S
C94 H100 0.960 . S
C95 N93 1.346 . S
C95 N96 1.307 . S
C95 C97 1.486 . S
N96 N92 1.370 1_554 S
N96 C95 1.307 . S
C97 C95 1.486 . S
C97 H101 0.960 . S
C97 H102 0.960 . S
C97 H103 0.959 . S
H98 C94 0.960 . S
H99 C94 0.961 . S
H100 C94 0.960 . S
H101 C97 0.960 . S
H102 C97 0.960 . S
H103 C97 0.959 . S
Pr104 C106 2.880 . S
Pr104 O124 2.562 . S
Pr104 O125 2.490 . S
Pr104 O126 2.695 1_564 S
Pr104 O127 2.512 1_554 S
Pr104 O129 2.437 1_554 S
Pr104 O132 2.436 1_455 S
Pr104 O134 2.438 1_565 S
Pr105 C115 2.880 . S
Pr105 O126 2.436 1_655 S
Pr105 O128 2.438 1_545 S
Pr105 O130 2.562 . S
Pr105 O131 2.490 . S
Pr105 O132 2.695 1_546 S
Pr105 O133 2.512 . S
Pr105 O135 2.437 . S
C106 Pr104 2.880 . S
C106 C107 1.491 . S
C106 O124 1.254 . S
C106 O125 1.225 . S
C107 C106 1.491 . S
C107 C108 1.392 . S
C107 C112 1.356 . S
C108 C107 1.392 . S
C108 C109 1.368 . S
C108 H136 0.929 . S
C109 C108 1.368 . S
C109 C110 1.386 . S
C109 H137 0.929 . S
C110 C109 1.386 . S
C110 C111 1.373 . S
C111 C110 1.373 . S
C111 C112 1.409 . S
C111 H138 0.931 . S
C112 C107 1.356 . S
C112 C111 1.409 . S
C112 H139 0.930 . S
C113 O126 1.270 1_565 S
C113 O127 1.248 . S
C114 O128 1.267 . S
C114 O129 1.278 1_655 S
C115 Pr105 2.880 . S
C115 C116 1.491 . S
C115 O130 1.254 . S
C115 O131 1.225 . S
C116 C115 1.491 . S
C116 C117 1.392 . S
C116 C121 1.356 . S
C117 C116 1.392 . S
C117 C118 1.368 . S
C117 H140 0.929 . S
C118 C117 1.368 . S
C118 C119 1.386 . S
C118 H141 0.929 . S
C119 C118 1.386 . S
C119 C120 1.373 . S
C120 C119 1.373 . S
C120 C121 1.409 . S
C120 H142 0.931 . S
C121 C116 1.356 . S
C121 C120 1.409 . S
C121 H143 0.930 . S
C122 O132 1.270 1_545 S
C122 O133 1.248 1_554 S
C123 O134 1.267 1_556 S
C123 O135 1.278 1_455 S
O124 Pr104 2.562 . S
O124 C106 1.254 . S
O125 Pr104 2.490 . S
O125 C106 1.225 . S
O126 Pr104 2.695 1_546 S
O126 Pr105 2.436 1_455 S
O126 C113 1.270 1_545 S
O127 Pr104 2.512 1_556 S
O127 C113 1.248 . S
O128 Pr105 2.438 1_565 S
O128 C114 1.267 . S
O129 Pr104 2.437 1_556 S
O129 C114 1.278 1_455 S
O130 Pr105 2.562 . S
O130 C115 1.254 . S
O131 Pr105 2.490 . S
O131 C115 1.225 . S
O132 Pr104 2.436 1_655 S
O132 Pr105 2.695 1_564 S
O132 C122 1.270 1_565 S
O133 Pr105 2.512 . S
O133 C122 1.248 1_556 S
O134 Pr104 2.438 1_545 S
O134 C123 1.267 1_554 S
O135 Pr105 2.437 . S
O135 C123 1.278 1_655 S
H136 C108 0.929 . S
H137 C109 0.929 . S
H138 C111 0.931 . S
H139 C112 0.930 . S
H140 C117 0.929 . S
H141 C118 0.929 . S
H142 C120 0.931 . S
H143 C121 0.930 . S
Pr144 C146 2.880 . S
Pr144 O164 2.562 . S
Pr144 O165 2.490 . S
Pr144 O166 2.695 1_554 S
Pr144 O167 2.512 1_554 S
Pr144 O169 2.437 1_554 S
Pr144 O172 2.436 1_545 S
Pr144 O174 2.438 . S
Pr145 C155 2.880 . S
Pr145 O166 2.436 1_565 S
Pr145 O168 2.438 . S
Pr145 O170 2.562 . S
Pr145 O171 2.490 . S
Pr145 O172 2.695 1_556 S
Pr145 O173 2.512 . S
Pr145 O175 2.437 . S
C146 Pr144 2.880 . S
C146 C147 1.491 . S
C146 O164 1.254 . S
C146 O165 1.225 . S
C147 C146 1.491 . S
C147 C148 1.392 . S
C147 C152 1.356 . S
C148 C147 1.392 . S
C148 C149 1.368 . S
C148 H176 0.929 . S
C149 C148 1.368 . S
C149 C150 1.386 . S
C149 H177 0.929 . S
C150 C149 1.386 . S
C150 C151 1.373 . S
C151 C150 1.373 . S
C151 C152 1.409 . S
C151 H178 0.931 . S
C152 C147 1.356 . S
C152 C151 1.409 . S
C152 H179 0.930 . S
C153 O166 1.270 . S
C153 O167 1.248 . S
C154 O168 1.267 . S
C154 O169 1.278 1_565 S
C155 Pr145 2.880 . S
C155 C156 1.491 . S
C155 O170 1.254 . S
C155 O171 1.225 . S
C156 C155 1.491 . S
C156 C157 1.392 . S
C156 C161 1.356 . S
C157 C156 1.392 . S
C157 C158 1.368 . S
C157 H180 0.929 . S
C158 C157 1.368 . S
C158 C159 1.386 . S
C158 H181 0.929 . S
C159 C158 1.386 . S
C159 C160 1.373 . S
C160 C159 1.373 . S
C160 C161 1.409 . S
C160 H182 0.931 . S
C161 C156 1.356 . S
C161 C160 1.409 . S
C161 H183 0.930 . S
C162 O172 1.270 . S
C162 O173 1.248 1_554 S
C163 O174 1.267 1_556 S
C163 O175 1.278 1_545 S
O164 Pr144 2.562 . S
O164 C146 1.254 . S
O165 Pr144 2.490 . S
O165 C146 1.225 . S
O166 Pr144 2.695 1_556 S
O166 Pr145 2.436 1_545 S
O166 C153 1.270 . S
O167 Pr144 2.512 1_556 S
O167 C153 1.248 . S
O168 Pr145 2.438 . S
O168 C154 1.267 . S
O169 Pr144 2.437 1_556 S
O169 C154 1.278 1_545 S
O170 Pr145 2.562 . S
O170 C155 1.254 . S
O171 Pr145 2.490 . S
O171 C155 1.225 . S
O172 Pr144 2.436 1_565 S
O172 Pr145 2.695 1_554 S
O172 C162 1.270 . S
O173 Pr145 2.512 . S
O173 C162 1.248 1_556 S
O174 Pr144 2.438 . S
O174 C163 1.267 1_554 S
O175 Pr145 2.437 . S
O175 C163 1.278 1_565 S
H176 C148 0.929 . S
H177 C149 0.929 . S
H178 C151 0.931 . S
H179 C152 0.930 . S
H180 C157 0.929 . S
H181 C158 0.929 . S
H182 C160 0.931 . S
H183 C161 0.930 . S
Pr184 C186 2.880 . S
Pr184 O204 2.562 . S
Pr184 O205 2.490 . S
Pr184 O206 2.695 1_554 S
Pr184 O207 2.512 1_554 S
Pr184 O209 2.437 1_554 S
Pr184 O212 2.436 . S
Pr184 O214 2.438 . S
Pr185 C195 2.880 . S
Pr185 O206 2.436 . S
Pr185 O208 2.438 . S
Pr185 O210 2.562 . S
Pr185 O211 2.490 . S
Pr185 O212 2.695 1_556 S
Pr185 O213 2.512 . S
Pr185 O215 2.437 . S
C186 Pr184 2.880 . S
C186 C187 1.491 . S
C186 O204 1.254 . S
C186 O205 1.225 . S
C187 C186 1.491 . S
C187 C188 1.392 . S
C187 C192 1.356 . S
C188 C187 1.392 . S
C188 C189 1.368 . S
C188 H216 0.929 . S
C189 C188 1.368 . S
C189 C190 1.386 . S
C189 H217 0.929 . S
C190 C189 1.386 . S
C190 C191 1.373 . S
C191 C190 1.373 . S
C191 C192 1.409 . S
C191 H218 0.931 . S
C192 C187 1.356 . S
C192 C191 1.409 . S
C192 H219 0.930 . S
C193 O206 1.270 . S
C193 O207 1.248 . S
C194 O208 1.267 . S
C194 O209 1.278 . S
C195 Pr185 2.880 . S
C195 C196 1.491 . S
C195 O210 1.254 . S
C195 O211 1.225 . S
C196 C195 1.491 . S
C196 C197 1.392 . S
C196 C201 1.356 . S
C197 C196 1.392 . S
C197 C198 1.368 . S
C197 H220 0.929 . S
C198 C197 1.368 . S
C198 C199 1.386 . S
C198 H221 0.929 . S
C199 C198 1.386 . S
C199 C200 1.373 . S
C200 C199 1.373 . S
C200 C201 1.409 . S
C200 H222 0.931 . S
C201 C196 1.356 . S
C201 C200 1.409 . S
C201 H223 0.930 . S
C202 O212 1.270 . S
C202 O213 1.248 1_554 S
C203 O214 1.267 1_556 S
C203 O215 1.278 . S
O204 Pr184 2.562 . S
O204 C186 1.254 . S
O205 Pr184 2.490 . S
O205 C186 1.225 . S
O206 Pr184 2.695 1_556 S
O206 Pr185 2.436 . S
O206 C193 1.270 . S
O207 Pr184 2.512 1_556 S
O207 C193 1.248 . S
O208 Pr185 2.438 . S
O208 C194 1.267 . S
O209 Pr184 2.437 1_556 S
O209 C194 1.278 . S
O210 Pr185 2.562 . S
O210 C195 1.254 . S
O211 Pr185 2.490 . S
O211 C195 1.225 . S
O212 Pr184 2.436 . S
O212 Pr185 2.695 1_554 S
O212 C202 1.270 . S
O213 Pr185 2.512 . S
O213 C202 1.248 1_556 S
O214 Pr184 2.438 . S
O214 C203 1.267 1_554 S
O215 Pr185 2.437 . S
O215 C203 1.278 . S
H216 C188 0.929 . S
H217 C189 0.929 . S
H218 C191 0.931 . S
H219 C192 0.930 . S
H220 C197 0.929 . S
H221 C198 0.929 . S
H222 C200 0.931 . S
H223 C201 0.930 . S
Pr224 C226 2.880 . S
Pr224 O244 2.562 . S
Pr224 O245 2.490 . S
Pr224 O246 2.695 1_654 S
Pr224 O247 2.512 1_554 S
Pr224 O249 2.437 1_554 S
Pr224 O252 2.436 . S
Pr224 O254 2.438 1_655 S
Pr225 C235 2.880 . S
Pr225 O246 2.436 . S
Pr225 O248 2.438 1_455 S
Pr225 O250 2.562 . S
Pr225 O251 2.490 . S
Pr225 O252 2.695 1_456 S
Pr225 O253 2.512 . S
Pr225 O255 2.437 . S
C226 Pr224 2.880 . S
C226 C227 1.491 . S
C226 O244 1.254 . S
C226 O245 1.225 . S
C227 C226 1.491 . S
C227 C228 1.392 . S
C227 C232 1.356 . S
C228 C227 1.392 . S
C228 C229 1.368 . S
C228 H256 0.929 . S
C229 C228 1.368 . S
C229 C230 1.386 . S
C229 H257 0.929 . S
C230 C229 1.386 . S
C230 C231 1.373 . S
C231 C230 1.373 . S
C231 C232 1.409 . S
C231 H258 0.931 . S
C232 C227 1.356 . S
C232 C231 1.409 . S
C232 H259 0.930 . S
C233 O246 1.265 1_655 S
C233 O247 1.256 . S
C234 O248 1.267 . S
C234 O249 1.278 . S
C235 Pr225 2.880 . S
C235 C236 1.491 . S
C235 O250 1.254 . S
C235 O251 1.225 . S
C236 C235 1.491 . S
C236 C237 1.392 . S
C236 C241 1.356 . S
C237 C236 1.392 . S
C237 C238 1.368 . S
C237 H260 0.929 . S
C238 C237 1.368 . S
C238 C239 1.386 . S
C238 H261 0.929 . S
C239 C238 1.386 . S
C239 C240 1.373 . S
C240 C239 1.373 . S
C240 C241 1.409 . S
C240 H262 0.931 . S
C241 C236 1.356 . S
C241 C240 1.409 . S
C241 H263 0.930 . S
C242 O252 1.270 1_455 S
C242 O253 1.248 1_554 S
C243 O254 1.267 1_556 S
C243 O255 1.278 . S
O244 Pr224 2.562 . S
O244 C226 1.254 . S
O245 Pr224 2.490 . S
O245 C226 1.225 . S
O246 Pr224 2.695 1_456 S
O246 Pr225 2.436 . S
O246 C233 1.265 1_455 S
O247 Pr224 2.512 1_556 S
O247 C233 1.256 . S
O248 Pr225 2.438 1_655 S
O248 C234 1.267 . S
O249 Pr224 2.437 1_556 S
O249 C234 1.278 . S
O250 Pr225 2.562 . S
O250 C235 1.254 . S
O251 Pr225 2.490 . S
O251 C235 1.225 . S
O252 Pr224 2.436 . S
O252 Pr225 2.695 1_654 S
O252 C242 1.270 1_655 S
O253 Pr225 2.512 . S
O253 C242 1.248 1_556 S
O254 Pr224 2.438 1_455 S
O254 C243 1.267 1_554 S
O255 Pr225 2.437 . S
O255 C243 1.278 . S
H256 C228 0.929 . S
H257 C229 0.929 . S
H258 C231 0.931 . S
H259 C232 0.930 . S
H260 C237 0.929 . S
H261 C238 0.929 . S
H262 C240 0.931 . S
H263 C241 0.930 . S
N80 C113 2.922 1_554 S
C153 N93 2.948 1_556 S
C193 N54 2.953 1_556 S
C233 N67 2.889 1_556 S
C122 N28 2.927 1_544 S
N41 C162 2.938 1_556 S
N2 C202 2.938 1_556 S
N15 C242 2.890 1_656 S
C119 N70 2.817 . S
C159 N83 2.629 . S
C199 N96 2.550 . S
N57 C239 2.699 . S
N18 C110 2.824 1_655 S
C150 N31 2.637 1_545 S
C190 N44 2.575 . S
N5 C230 2.724 . S
N66 C123 4.070 1_655 S
N79 C163 3.989 1_565 S
C203 N92 3.999 . S
C243 N53 4.074 . S
N14 C114 4.051 . S
C154 N27 3.963 . S
C194 N40 3.956 . S
N1 C234 4.038 . S
