# Generated by pormake.
# Topology ssa, (4,4)-cn, num edge types: 1
# Building blocks:
#     Node 0, Type 0, BuildingBlock: KOZSID_clean_sbu_0, # of connection points: 4
#     Node 1, Type 0, BuildingBlock: KOZSID_clean_sbu_0, # of connection points: 4
#     Node 2, Type 0, BuildingBlock: KOZSID_clean_sbu_0, # of connection points: 4
#     Node 3, Type 0, BuildingBlock: KOZSID_clean_sbu_0, # of connection points: 4
#     Node 4, Type 0, BuildingBlock: KOZSID_clean_sbu_0, # of connection points: 4
#     Node 5, Type 0, BuildingBlock: KOZSID_clean_sbu_0, # of connection points: 4
#     Node 6, Type 1, BuildingBlock: KUFVIS_clean_linker_0, # of connection points: 4
#     Node 7, Type 1, BuildingBlock: KUFVIS_clean_linker_0, # of connection points: 4
#     Node 8, Type 1, BuildingBlock: KUFVIS_clean_linker_0, # of connection points: 4
#     Node 9, Type 1, BuildingBlock: KUFVIS_clean_linker_0, # of connection points: 4
#     Node 10, Type 1, BuildingBlock: KUFVIS_clean_linker_0, # of connection points: 4
#     Node 11, Type 1, BuildingBlock: KUFVIS_clean_linker_0, # of connection points: 4
#     Edge 12, Type (0, 1), None
#     Edge 13, Type (0, 1), None
#     Edge 14, Type (0, 1), None
#     Edge 15, Type (0, 1), None
#     Edge 16, Type (0, 1), None
#     Edge 17, Type (0, 1), None
#     Edge 18, Type (0, 1), None
#     Edge 19, Type (0, 1), None
#     Edge 20, Type (0, 1), None
#     Edge 21, Type (0, 1), None
#     Edge 22, Type (0, 1), None
#     Edge 23, Type (0, 1), None
#     Edge 24, Type (0, 1), None
#     Edge 25, Type (0, 1), None
#     Edge 26, Type (0, 1), None
#     Edge 27, Type (0, 1), None
#     Edge 28, Type (0, 1), None
#     Edge 29, Type (0, 1), None
#     Edge 30, Type (0, 1), None
#     Edge 31, Type (0, 1), None
#     Edge 32, Type (0, 1), None
#     Edge 33, Type (0, 1), None
#     Edge 34, Type (0, 1), None
#     Edge 35, Type (0, 1), None
# Relax obj value: 0.013
# Max RMSD: 0.058
# Mean RMSD: 0.033
data_MOF--net-ssa--node1-KOZSID_clean_sbu_0--node2-KUFVIS_clean_linker_0--edge1-none
_symmetry_space_group_name_H-M    P1
_symmetry_Int_Tables_number       1
_symmetry_cell_setting            triclinic
loop_
_symmetry_equiv_pos_as_xyz
'x, y, z'
_cell_length_a     28.854138
_cell_length_b     30.184827
_cell_length_c     16.978456
_cell_angle_alpha  83.486507
_cell_angle_beta   90.486067
_cell_angle_gamma 123.78352
loop_
_atom_site_label
_atom_site_type_symbol
_atom_site_fract_x
_atom_site_fract_y
_atom_site_fract_z
_atom_type_partial_charge
C0 C 0.92807 0.51943 0.0431 0.0
C1 C 0.88038 0.49251 0.09388 0.0
C2 C 0.8823 0.4542 0.14279 0.0
C3 C 0.9308 0.45969 0.1187 0.0
N4 N 0.96072 0.50022 0.05907 0.0
Co5 Co 0.0299 0.51686 -0.00065 0.0
N6 N 0.03267 0.461 0.06854 0.0
C7 C 0.99233 0.42255 0.1223 0.0
C8 C 1.00477 0.3874 0.15759 0.0
C9 C 0.05651 0.4053 0.1245 0.0
C10 C 0.07247 0.45017 0.07044 0.0
N11 N 0.09957 0.53479 0.94034 0.0
C12 C 0.1362 0.52137 0.96168 0.0
C13 C 0.18144 0.54518 0.90698 0.0
C14 C 0.17335 0.57527 0.84901 0.0
C15 C 0.12366 0.56799 0.87168 0.0
N16 N 1.02785 0.57351 0.93008 0.0
C17 C 0.0646 0.60722 0.86897 0.0
C18 C 0.05604 0.64593 0.83793 0.0
C19 C 1.01067 0.6357 0.88165 0.0
C20 C 0.99399 0.59115 0.93704 0.0
N21 N 0.07862 0.57251 0.06997 0.0
C22 C 0.14794 0.64596 0.17783 0.0
C23 C 0.16675 0.65372 0.09844 0.0
C24 C 0.13117 0.61754 0.04541 0.0
C25 C 0.09197 0.60303 0.19848 0.0
C26 C 0.0598 0.56623 0.14646 0.0
N27 N 0.98049 0.45898 0.9295 0.0
C28 C 0.97106 0.40495 0.8269 0.0
C29 C 0.91277 0.37915 0.82846 0.0
C30 C 0.88855 0.38992 0.88741 0.0
C31 C 0.92258 0.42824 0.93819 0.0
C32 C 1.00361 0.44407 0.87662 0.0
H33 H 0.8998 0.43443 0.97948 0.0
H34 H 0.04755 0.46137 0.87053 0.0
H35 H 0.14766 0.62627 0.98525 0.0
H36 H 1.02008 0.53206 0.17046 0.0
C37 C 0.94674 0.42443 0.14377 0.0
C38 C 0.93657 0.55691 0.97318 0.0
C39 C 0.12964 0.48695 0.03386 0.0
C40 C 0.10591 0.60086 0.8418 0.0
H41 H 0.84644 0.49812 0.09238 0.0
H42 H 0.85043 0.42384 0.18717 0.0
H43 H 0.9806 0.35454 0.20474 0.0
H44 H 0.08122 0.38927 0.14117 0.0
H45 H 0.21715 0.54224 0.91025 0.0
H46 H 0.20246 0.60252 0.79977 0.0
H47 H 0.07872 0.67663 0.78764 0.0
H48 H 0.989 0.65545 0.86969 0.0
H49 H 0.20875 0.68668 0.07746 0.0
H50 H 0.07245 0.59588 0.2564 0.0
H51 H 0.99207 0.39679 0.78412 0.0
H52 H 0.84379 0.37124 0.89167 0.0
C53 C 0.62237 0.03747 0.59567 0.0
C54 C 0.63249 1.0061 0.64964 0.0
C55 C 0.58133 0.96085 0.67611 0.0
C56 C 0.5433 0.96608 0.63436 0.0
N57 N 0.567 1.01156 0.5829 0.0
Co58 Co 0.53217 0.02159 0.48682 0.0
N59 N 0.45566 0.95446 0.5223 0.0
C60 C 0.44324 0.92182 0.59086 0.0
C61 C 0.38826 0.87947 0.60091 0.0
C62 C 0.36425 0.88465 0.53362 0.0
C63 C 0.40637 0.92933 0.48478 0.0
N64 N 0.49742 0.03156 0.39061 0.0
C65 C 0.44214 1.0052 0.37692 0.0
C66 C 0.43191 0.03679 0.32368 0.0
C67 C 0.48294 0.0824 0.29789 0.0
C68 C 0.52102 0.0773 0.33969 0.0
N69 N 0.60876 0.08889 0.45181 0.0
C70 C 0.62099 0.12245 0.38435 0.0
C71 C 0.67547 0.16601 0.37619 0.0
C72 C 0.69931 0.1606 0.44354 0.0
C73 C 0.65772 0.11425 0.49014 0.0
N74 N 0.55207 0.97672 0.4366 0.0
C75 C 0.58059 0.91192 0.37187 0.0
C76 C 0.62192 0.96282 0.39029 0.0
C77 C 0.60698 0.99375 0.4241 0.0
C78 C 0.52517 0.8925 0.39117 0.0
C79 C 0.51187 0.9256 0.42124 0.0
N80 N 0.51203 0.06641 0.53675 0.0
C81 C 0.53804 0.15026 0.58266 0.0
C82 C 0.4823 0.13085 0.59968 0.0
C83 C 0.44149 0.0804 0.57955 0.0
C84 C 0.45705 0.04965 0.54692 0.0
C85 C 0.55191 0.11733 0.55318 0.0
H86 H 0.42331 1.01187 0.53243 0.0
H87 H 0.59529 0.1333 0.54961 0.0
H88 H 0.64094 0.03193 0.43737 0.0
H89 H 0.46847 0.90935 0.42655 0.0
C90 C 0.48578 0.92783 0.63792 0.0
C91 C 0.66401 0.09562 0.57175 0.0
C92 C 0.40006 0.94729 0.40261 0.0
C93 C 0.57836 0.11616 0.33729 0.0
H94 H 0.67224 0.01733 0.67255 0.0
H95 H 0.57292 0.92801 0.72031 0.0
H96 H 0.36823 0.84755 0.65031 0.0
H97 H 0.3206 0.8586 0.52369 0.0
H98 H 0.39209 0.02574 0.30123 0.0
H99 H 0.49121 0.11557 0.25454 0.0
H100 H 0.69502 0.19912 0.32843 0.0
H101 H 0.74226 0.18806 0.45586 0.0
H102 H 0.66554 0.97989 0.37457 0.0
H103 H 0.49174 0.85412 0.37477 0.0
H104 H 0.57104 0.1883 0.60052 0.0
H105 H 0.39764 0.06336 0.59338 0.0
C106 C 0.64233 0.59787 0.91776 0.0
C107 C 0.66952 0.64311 0.86122 0.0
C108 C 0.62893 0.6477 0.82688 0.0
C109 C 0.57934 0.60534 0.8645 0.0
N110 N 0.58602 0.57446 0.92065 0.0
Co111 Co 0.52607 0.51404 -0.00368 0.0
N112 N 0.46469 0.51831 0.94486 0.0
C113 C 0.47214 0.55308 0.88133 0.0
C114 C 0.42372 0.54899 0.8614 0.0
C115 C 0.38294 0.50972 0.91666 0.0
C116 C 0.40876 0.49198 0.96749 0.0
N117 N 0.46581 0.45268 0.0703 0.0
C118 C 0.40947 0.4253 0.06421 0.0
C119 C 0.38219 0.37498 0.10916 0.0
C120 C 0.42261 0.37175 0.14718 0.0
C121 C 0.47221 0.41964 0.12216 0.0
N122 N 0.58726 0.51072 0.04985 0.0
C123 C 0.57961 0.47641 0.11428 0.0
C124 C 0.62799 0.48066 0.13504 0.0
C125 C 0.66876 0.51922 0.0792 0.0
C126 C 0.643 0.53651 0.0275 0.0
N127 N 0.53745 0.56821 0.06393 0.0
C128 C 0.55555 0.65083 0.14731 0.0
C129 C 0.60014 0.64813 0.12415 0.0
C130 C 0.59028 0.60684 0.08233 0.0
C131 C 0.50248 0.61311 0.12634 0.0
C132 C 0.4945 0.57232 0.08553 0.0
N133 N 0.51502 0.46011 0.92772 0.0
C134 C 0.54742 0.41211 0.86768 0.0
C135 C 0.498 0.38398 0.83076 0.0
C136 C 0.45557 0.39136 0.84649 0.0
C137 C 0.46481 0.42929 0.89487 0.0
C138 C 0.55468 0.44918 0.91646 0.0
H139 H 0.43056 0.43284 0.90428 0.0
H140 H 0.59336 0.46842 0.94252 0.0
H141 H 0.62585 0.60651 0.06626 0.0
H142 H 0.45287 0.54342 0.076 0.0
C143 C 0.52595 0.59259 0.84808 0.0
C144 C 0.66964 0.57105 0.95119 0.0
C145 C 0.3805 0.45201 0.03948 0.0
C146 C 0.52551 0.43413 0.14276 0.0
H147 H 0.71365 0.66765 0.843 0.0
H148 H 0.6348 0.67743 0.77863 0.0
H149 H 0.41899 0.5731 0.81399 0.0
H150 H 0.33953 0.49624 0.9195 0.0
H151 H 0.33749 0.34625 0.11939 0.0
H152 H 0.41642 0.33876 0.18898 0.0
H153 H 0.6323 0.4558 0.18163 0.0
H154 H 0.71164 0.53106 0.07459 0.0
H155 H 0.64178 0.67586 0.14245 0.0
H156 H 0.46658 0.61238 0.14707 0.0
H157 H 0.58139 0.40768 0.85571 0.0
H158 H 0.41648 0.36993 0.81796 0.0
C159 C 0.92796 0.41194 0.48037 0.0
C160 C 0.88062 0.38867 0.43773 0.0
C161 C 0.88635 0.42906 0.38383 0.0
C162 C 0.93657 0.47448 0.39722 0.0
N163 N 0.96383 0.46517 0.45497 0.0
Co164 Co 0.03501 0.52028 0.50069 0.0
N165 N 0.03862 0.58054 0.43314 0.0
C166 C 1.00127 0.57717 0.38162 0.0
C167 C 1.01511 0.62646 0.34546 0.0
C168 C 0.0651 0.66306 0.37422 0.0
C169 C 0.07866 0.63389 0.42678 0.0
N170 N 0.1055 0.57563 0.54774 0.0
C171 C 0.14205 0.62858 0.52098 0.0
C172 C 0.18944 0.65189 0.56335 0.0
C173 C 0.18324 0.61176 0.61829 0.0
C174 C 0.1325 0.56641 0.60613 0.0
N175 N 0.03209 0.46014 0.56691 0.0
C176 C 0.07053 0.46356 0.61616 0.0
C177 C 0.05897 0.41419 0.64742 0.0
C178 C 1.0096 0.37746 0.61722 0.0
C179 C 0.99404 0.40665 0.56878 0.0
N180 N 0.08193 0.51619 0.41828 0.0
C181 C 0.14819 0.51267 0.29827 0.0
C182 C 0.16904 0.52834 0.37167 0.0
C183 C 0.13519 0.52877 0.43078 0.0
C184 C 0.09208 0.49505 0.28932 0.0
C185 C 0.06098 0.49867 0.34749 0.0
N186 N 0.98816 0.52383 0.58341 0.0
C187 C 0.97427 0.53356 0.71843 0.0
C188 C 0.92301 0.52822 0.70529 0.0
C189 C 0.90641 0.5223 0.62726 0.0
C190 C 0.93959 0.52095 0.56774 0.0
C191 C 1.0044 0.52971 0.65913 0.0
H192 H 0.92462 0.51725 0.50967 0.0
H193 H 0.0404 0.53053 0.67656 0.0
H194 H 0.1541 0.54057 0.48527 0.0
H195 H 1.02044 0.48807 0.33242 0.0
C196 C 0.95603 0.5272 0.36481 0.0
C197 C 0.93615 0.3836 0.54814 0.0
C198 C 0.13578 0.65606 0.45007 0.0
C199 C 0.11509 0.51351 0.63446 0.0
H200 H 0.84504 0.34731 0.44643 0.0
H201 H 0.85607 0.42622 0.34299 0.0
H202 H 0.99333 0.6346 0.3 0.0
H203 H 0.09115 0.70576 0.35388 0.0
H204 H 0.22592 0.69275 0.55223 0.0
H205 H 0.21438 0.61434 0.657 0.0
H206 H 0.082 0.40584 0.69029 0.0
H207 H 0.98515 0.33435 0.63426 0.0
H208 H 0.21152 0.54135 0.38313 0.0
H209 H 0.07193 0.47987 0.23582 0.0
H210 H 0.99266 0.54066 0.77457 0.0
H211 H 0.86797 0.51834 0.61163 0.0
C212 C 0.48524 0.96005 0.15109 0.0
C213 C 0.50547 0.95848 0.22467 0.0
C214 C 0.55363 1.00751 0.22734 0.0
C215 C 0.56154 0.03534 0.15389 0.0
N216 N 0.52086 1.00724 0.10498 0.0
Co217 Co 0.52798 0.01934 0.98735 0.0
N218 N 0.60545 0.08731 0.98544 0.0
C219 C 0.63401 0.10841 0.04935 0.0
C220 C 0.68742 0.15234 0.03086 0.0
C221 C 0.69332 0.16045 0.94991 0.0
C222 C 0.6425 0.12129 0.92348 0.0
N223 N 0.53517 0.03136 0.86982 0.0
C224 C 0.57117 0.07828 0.82335 0.0
C225 C 0.55111 0.07944 0.7496 0.0
C226 C 0.50291 0.03039 0.74699 0.0
C227 C 0.49464 1.00294 0.82089 0.0
N228 N 0.45047 0.95139 0.98943 0.0
C229 C 0.42191 0.93008 0.92566 0.0
C230 C 0.3686 0.88593 0.94445 0.0
C231 C 0.36282 0.87795 0.0255 0.0
C232 C 0.41354 0.91749 0.05155 0.0
N233 N 0.49511 0.06382 0.9802 0.0
C234 C 0.46426 0.12475 0.88347 0.0
C235 C 0.42495 0.07048 0.91093 0.0
C236 C 0.44052 0.04146 0.96174 0.0
C237 C 0.51545 0.15005 0.91867 0.0
C238 C 0.52935 0.11915 0.9687 0.0
N239 N 0.56077 0.97484 -0.00583 0.0
C240 C 0.54089 0.8886 0.05463 0.0
C241 C 0.59246 0.91394 0.08872 0.0
C242 C 0.63167 0.96818 0.06083 0.0
C243 C 0.61559 0.99725 0.01132 0.0
C244 C 0.52656 0.91951 0.00563 0.0
H245 H 0.64752 0.0387 -0.00708 0.0
H246 H 0.48581 0.89782 0.9832 0.0
H247 H 0.40843 1.00004 0.98007 0.0
H248 H 0.56986 0.14077 -0.00806 0.0
C249 C 0.61172 0.08238 0.1252 0.0
C250 C 0.42694 0.92076 0.13464 0.0
C251 C 0.62934 0.11811 0.84021 0.0
C252 C 0.44435 0.95592 0.84969 0.0
H253 H 0.48509 0.92555 0.272 0.0
H254 H 0.58148 0.02036 0.27504 0.0
H255 H 0.71899 0.17471 0.07146 0.0
H256 H 0.73134 0.19137 0.91574 0.0
H257 H 0.57161 0.11228 0.70234 0.0
H258 H 0.47525 0.01744 0.69904 0.0
H259 H 0.33709 0.86317 0.90401 0.0
H260 H 0.32519 0.84667 0.06021 0.0
H261 H 0.3838 0.04942 0.88804 0.0
H262 H 0.54679 0.19247 0.90161 0.0
H263 H 0.50963 0.84619 0.07192 0.0
H264 H 0.67312 0.98923 0.08276 0.0
C265 C 0.55185 0.63248 0.49754 0.0
C266 C 0.53635 0.65903 0.54051 0.0
C267 C 0.50481 0.62371 0.60659 0.0
C268 C 0.50284 0.57764 0.60025 0.0
N269 N 0.53171 0.58198 0.5347 0.0
Co270 Co 0.53535 0.52331 0.49728 0.0
N271 N 0.47155 0.46656 0.5715 0.0
C272 C 0.44631 0.47468 0.6292 0.0
C273 C 0.3993 0.42789 0.66442 0.0
C274 C 0.39566 0.38779 0.62804 0.0
C275 C 0.44116 0.41222 0.57287 0.0
N276 N 0.53725 0.46393 0.45712 0.0
C277 C 0.50575 0.40959 0.48103 0.0
C278 C 0.52553 0.38433 0.44338 0.0
C279 C 0.57159 0.42394 0.39566 0.0
C280 C 0.57766 0.4712 0.40713 0.0
N281 N 0.59971 0.5804 0.42467 0.0
C282 C 0.63584 0.57471 0.38496 0.0
C283 C 0.67895 0.62237 0.34447 0.0
C284 C 0.66914 0.6603 0.35983 0.0
C285 C 0.62054 0.63356 0.40898 0.0
N286 N 0.59067 0.53236 0.57519 0.0
C287 C 0.67469 0.54849 0.67668 0.0
C288 C 0.66864 0.59053 0.65 0.0
C289 C 0.62696 0.58185 0.59885 0.0
C290 C 0.6402 0.49941 0.6489 0.0
C291 C 0.59913 0.49241 0.59823 0.0
N292 N 0.48206 0.51566 0.41869 0.0
C293 C 0.45939 0.51112 0.28325 0.0
C294 C 0.40708 0.50229 0.30182 0.0
C295 C 0.39487 0.50375 0.38064 0.0
C296 C 0.43329 0.51116 0.43799 0.0
C297 C 0.49467 0.51564 0.34194 0.0
H298 H 0.42271 0.51236 0.4978 0.0
H299 H 0.53282 0.52 0.32447 0.0
H300 H 0.62459 0.6156 0.57889 0.0
H301 H 0.57444 0.45379 0.57994 0.0
C302 C 0.4644 0.52689 0.64243 0.0
C303 C 0.58909 0.65723 0.42492 0.0
C304 C 0.46623 0.38336 0.55173 0.0
C305 C 0.62317 0.52323 0.37834 0.0
H306 H 0.54656 0.69943 0.52542 0.0
H307 H 0.483 0.62977 0.65125 0.0
H308 H 0.37158 0.4233 0.71191 0.0
H309 H 0.36681 0.34507 0.64631 0.0
H310 H 0.51056 0.34227 0.45367 0.0
H311 H 0.59929 0.41913 0.36055 0.0
H312 H 0.71171 0.62834 0.3049 0.0
H313 H 0.69273 0.70208 0.33394 0.0
H314 H 0.69395 0.62899 0.67219 0.0
H315 H 0.64242 0.46544 0.6703 0.0
H316 H 0.47297 0.51239 0.22359 0.0
H317 H 0.35556 0.49761 0.39849 0.0
H318 H 0.39348 0.44272 0.19546 0.0
H319 H 0.32269 0.5209 0.27612 0.0
H320 H 0.29212 0.47049 0.04108 0.0
H321 H 0.22222 0.47925 0.03961 0.0
H322 H 0.14156 0.54136 0.14817 0.0
H323 H 0.23626 0.49726 0.28975 0.0
C324 C 0.3693 0.45929 0.1818 0.0
C325 C 0.35084 0.4602 0.10578 0.0
C326 C 0.36575 0.4869 0.23873 0.0
C327 C 0.32648 0.50065 0.23059 0.0
C328 C 0.29365 0.48933 0.16297 0.0
C329 C 0.31056 0.47361 0.09727 0.0
C330 C 0.24516 0.49714 0.16118 0.0
C331 C 0.21577 0.4934 0.09133 0.0
C332 C 0.17555 0.50633 0.08947 0.0
C333 C 0.16855 0.52703 0.15356 0.0
C334 C 0.18291 0.51652 0.22832 0.0
C335 C 0.22368 0.50394 0.23195 0.0
H336 H 0.63342 0.06949 0.7285 0.0
H337 H 0.7213 0.22448 0.80056 0.0
H338 H 0.76663 0.20119 0.57508 0.0
H339 H 0.8329 0.28599 0.56302 0.0
H340 H 0.94327 0.42117 0.68162 0.0
H341 H 0.8126 0.2773 0.81917 0.0
C342 C 0.66575 0.11132 0.71428 0.0
C343 C 0.69178 0.13221 0.6376 0.0
C344 C 0.67337 0.14357 0.77213 0.0
C345 C 0.71757 0.19812 0.75933 0.0
C346 C 0.75612 0.21901 0.69226 0.0
C347 C 0.74038 0.1861 0.62885 0.0
C348 C 0.81074 0.27489 0.68993 0.0
C349 C 0.84391 0.30359 0.61767 0.0
C350 C 0.89304 0.35553 0.61601 0.0
C351 C 0.90727 0.3802 0.68464 0.0
C352 C 0.88189 0.35179 0.7585 0.0
C353 C 0.83244 0.29927 0.76142 0.0
H354 H 0.55951 0.61863 0.29082 0.0
H355 H 0.55818 0.74106 0.14798 0.0
H356 H 0.59733 0.75679 0.39633 0.0
H357 H 0.57432 0.81701 0.3824 0.0
H358 H 0.60609 0.95296 0.22355 0.0
H359 H 0.59214 0.82296 0.1262 0.0
C360 C 0.5642 0.65689 0.28735 0.0
C361 C 0.57729 0.68352 0.35381 0.0
C362 C 0.56116 0.67953 0.21412 0.0
C363 C 0.56504 0.72783 0.20587 0.0
C364 C 0.57781 0.75765 0.27074 0.0
C365 C 0.58459 0.73472 0.34579 0.0
C366 C 0.58563 0.81245 0.25743 0.0
C367 C 0.58391 0.83742 0.32231 0.0
C368 C 0.59245 0.88852 0.30959 0.0
C369 C 0.60185 0.91471 0.23254 0.0
C370 C 0.59842 0.88972 0.1668 0.0
C371 C 0.59195 0.83954 0.17902 0.0
H372 H 0.92698 0.50408 0.85931 0.0
H373 H 0.84515 0.56769 0.95785 0.0
H374 H 0.8389 0.54879 0.70731 0.0
H375 H 0.76862 0.55086 0.70178 0.0
H376 H 0.63369 0.54234 0.8119 0.0
H377 H 0.76855 0.56781 0.95387 0.0
C378 C 0.90131 0.51906 0.85038 0.0
C379 C 0.88946 0.52916 0.77367 0.0
C380 C 0.89254 0.5394 0.91369 0.0
C381 C 0.85342 0.55373 0.90737 0.0
C382 C 0.82673 0.55086 0.83493 0.0
C383 C 0.84994 0.54321 0.76642 0.0
C384 C 0.7761 0.55574 0.83009 0.0
C385 C 0.7512 0.55242 0.75632 0.0
C386 C 0.70169 0.55026 0.75107 0.0
C387 C 0.67436 0.5487 0.81831 0.0
C388 C 0.69895 0.55913 0.89063 0.0
C389 C 0.74987 0.56135 0.89745 0.0
H390 H 0.13875 0.61026 0.33111 0.0
H391 H 0.24333 0.75465 0.17128 0.0
H392 H 0.23328 0.7575 0.42543 0.0
H393 H 0.29944 0.84023 0.40717 0.0
H394 H 0.42356 0.97151 0.24315 0.0
H395 H 0.33562 0.81475 0.1776 0.0
C396 C 0.16826 0.65309 0.31986 0.0
C397 C 0.17974 0.68205 0.38334 0.0
C398 C 0.18401 0.67873 0.24193 0.0
C399 C 0.22876 0.73418 0.23117 0.0
C400 C 0.25271 0.76315 0.2985 0.0
C401 C 0.22356 0.73666 0.37396 0.0
C402 C 0.3049 0.82091 0.28924 0.0
C403 C 0.32271 0.85517 0.35105 0.0
C404 C 0.36972 0.90973 0.33848 0.0
C405 C 0.39213 0.92968 0.25988 0.0
C406 C 0.38344 0.89635 0.2031 0.0
C407 C 0.34031 0.84154 0.21873 0.0
H408 H 0.50091 0.42131 0.68768 0.0
H409 H 0.49775 0.29558 0.82573 0.0
H410 H 0.45602 0.28172 0.57809 0.0
H411 H 0.48481 0.22407 0.59025 0.0
H412 H 0.45618 0.08851 0.74747 0.0
H413 H 0.45923 0.21283 0.84622 0.0
C414 C 0.49293 0.38166 0.68956 0.0
C415 C 0.47744 0.35523 0.62229 0.0
C416 C 0.49509 0.35779 0.76205 0.0
C417 C 0.49069 0.30944 0.76847 0.0
C418 C 0.47712 0.28028 0.70289 0.0
C419 C 0.46943 0.30363 0.62883 0.0
C420 C 0.47008 0.22592 0.71508 0.0
C421 C 0.47484 0.2029 0.64991 0.0
C422 C 0.46883 0.15292 0.66212 0.0
C423 C 0.4589 0.12601 0.73883 0.0
C424 C 0.45897 0.14916 0.805 0.0
C425 C 0.46258 0.19795 0.79326 0.0
loop_
_geom_bond_atom_site_label_1
_geom_bond_atom_site_label_2
_geom_bond_distance
_geom_bond_site_symmetry_2
_ccdc_geom_bond_type
C0 C1 1.443 1_556 S
C0 N4 1.376 1_556 S
C0 C38 1.390 . S
C1 C0 1.443 1_554 S
C1 C2 1.340 . S
C1 H41 0.951 . S
C2 C1 1.340 . S
C2 C3 1.439 . S
C2 H42 0.950 . S
C3 C2 1.439 . S
C3 N4 1.374 . S
C3 C37 1.395 . S
N4 C0 1.376 1_554 S
N4 C3 1.374 . S
N4 Co5 2.010 1_655 S
Co5 N4 2.010 1_455 S
Co5 N6 2.000 . S
Co5 N11 2.006 1_554 S
Co5 N16 1.989 1_554 S
Co5 N21 2.287 . S
Co5 N27 2.278 1_454 S
N6 Co5 2.000 . S
N6 C7 1.376 1_455 S
N6 C10 1.383 . S
C7 N6 1.376 1_655 S
C7 C8 1.446 . S
C7 C37 1.391 . S
C8 C7 1.446 . S
C8 C9 1.339 1_655 S
C8 H43 0.949 . S
C9 C8 1.339 1_455 S
C9 C10 1.439 . S
C9 H44 0.950 . S
C10 N6 1.383 . S
C10 C9 1.439 . S
C10 C39 1.392 . S
N11 Co5 2.006 1_556 S
N11 C12 1.376 1_556 S
N11 C15 1.374 . S
C12 N11 1.376 1_554 S
C12 C13 1.443 1_554 S
C12 C39 1.389 . S
C13 C12 1.443 1_556 S
C13 C14 1.340 . S
C13 H45 0.951 . S
C14 C13 1.340 . S
C14 C15 1.439 . S
C14 H46 0.950 . S
C15 N11 1.374 . S
C15 C14 1.439 . S
C15 C40 1.395 . S
N16 Co5 1.989 1_556 S
N16 C17 1.376 . S
N16 C20 1.383 1_455 S
C17 N16 1.376 . S
C17 C18 1.446 . S
C17 C40 1.391 . S
C18 C17 1.446 . S
C18 C19 1.339 1_455 S
C18 H47 0.949 . S
C19 C18 1.339 1_655 S
C19 C20 1.439 . S
C19 H48 0.950 . S
C20 N16 1.383 1_655 S
C20 C19 1.439 . S
C20 C38 1.392 . S
N21 Co5 2.287 . S
N21 C24 1.332 . S
N21 C26 1.332 . S
C22 C23 1.386 . S
C22 C25 1.388 . S
C23 C22 1.386 . S
C23 C24 1.382 . S
C23 H49 0.950 . S
C24 N21 1.332 . S
C24 C23 1.382 . S
C24 H35 0.952 1_554 S
C25 C22 1.388 . S
C25 C26 1.382 . S
C25 H50 0.950 . S
C26 N21 1.332 . S
C26 C25 1.382 . S
C26 H36 0.948 . S
N27 Co5 2.278 1_656 S
N27 C31 1.332 . S
N27 C32 1.332 . S
C28 C29 1.388 . S
C28 C32 1.382 . S
C28 H51 0.950 . S
C29 C28 1.388 . S
C29 C30 1.386 . S
C30 C29 1.386 . S
C30 C31 1.382 . S
C30 H52 0.950 . S
C31 N27 1.332 . S
C31 C30 1.382 . S
C31 H33 0.952 1_556 S
C32 N27 1.332 . S
C32 C28 1.382 . S
C32 H34 0.948 . S
H33 C31 0.952 1_554 S
H34 C32 0.948 . S
H35 C24 0.952 1_556 S
H36 C26 0.948 . S
C37 C3 1.395 . S
C37 C7 1.391 . S
C38 C0 1.390 . S
C38 C20 1.392 . S
C39 C10 1.392 . S
C39 C12 1.389 . S
C40 C15 1.395 . S
C40 C17 1.391 . S
H41 C1 0.951 . S
H42 C2 0.950 . S
H43 C8 0.949 . S
H44 C9 0.950 . S
H45 C13 0.951 . S
H46 C14 0.950 . S
H47 C18 0.949 . S
H48 C19 0.950 . S
H49 C23 0.950 . S
H50 C25 0.950 . S
H51 C28 0.950 . S
H52 C30 0.950 . S
C53 C54 1.443 . S
C53 N57 1.376 . S
C53 C91 1.389 . S
C54 C53 1.443 . S
C54 C55 1.340 1_545 S
C54 H94 0.951 . S
C55 C54 1.340 1_565 S
C55 C56 1.439 . S
C55 H95 0.950 . S
C56 C55 1.439 . S
C56 N57 1.374 1_565 S
C56 C90 1.395 . S
N57 C53 1.376 . S
N57 C56 1.374 1_545 S
N57 Co58 2.008 . S
Co58 N57 2.008 . S
Co58 N59 1.995 1_545 S
Co58 N64 2.008 . S
Co58 N69 1.995 . S
Co58 N74 2.282 1_545 S
Co58 N80 2.282 . S
N59 Co58 1.995 1_565 S
N59 C60 1.376 . S
N59 C63 1.383 . S
C60 N59 1.376 . S
C60 C61 1.446 . S
C60 C90 1.391 . S
C61 C60 1.446 . S
C61 C62 1.339 . S
C61 H96 0.949 . S
C62 C61 1.339 . S
C62 C63 1.439 . S
C62 H97 0.950 . S
C63 N59 1.383 . S
C63 C62 1.439 . S
C63 C92 1.392 . S
N64 Co58 2.008 . S
N64 C65 1.373 1_545 S
N64 C68 1.376 . S
C65 N64 1.373 1_565 S
C65 C66 1.443 . S
C65 C92 1.389 . S
C66 C65 1.443 . S
C66 C67 1.340 1_565 S
C66 H98 0.951 . S
C67 C66 1.340 1_545 S
C67 C68 1.439 . S
C67 H99 0.950 . S
C68 N64 1.376 . S
C68 C67 1.439 . S
C68 C93 1.395 . S
N69 Co58 1.995 . S
N69 C70 1.376 . S
N69 C73 1.383 . S
C70 N69 1.376 . S
C70 C71 1.446 . S
C70 C93 1.391 . S
C71 C70 1.446 . S
C71 C72 1.339 . S
C71 H100 0.949 . S
C72 C71 1.339 . S
C72 C73 1.439 . S
C72 H101 0.950 . S
C73 N69 1.383 . S
C73 C72 1.439 . S
C73 C91 1.392 . S
N74 Co58 2.282 1_565 S
N74 C77 1.332 . S
N74 C79 1.332 . S
C75 C76 1.386 . S
C75 C78 1.388 . S
C76 C75 1.386 . S
C76 C77 1.382 . S
C76 H102 0.950 . S
C77 N74 1.332 . S
C77 C76 1.382 . S
C77 H88 0.952 1_565 S
C78 C75 1.388 . S
C78 C79 1.382 . S
C78 H103 0.950 . S
C79 N74 1.332 . S
C79 C78 1.382 . S
C79 H89 0.948 . S
N80 Co58 2.282 . S
N80 C84 1.332 . S
N80 C85 1.332 . S
C81 C82 1.388 . S
C81 C85 1.382 . S
C81 H104 0.950 . S
C82 C81 1.388 . S
C82 C83 1.386 . S
C83 C82 1.386 . S
C83 C84 1.382 . S
C83 H105 0.950 . S
C84 N80 1.332 . S
C84 C83 1.382 . S
C84 H86 0.972 . S
C85 N80 1.332 . S
C85 C81 1.382 . S
C85 H87 0.948 . S
H86 C84 0.972 . S
H87 C85 0.948 . S
H88 C77 0.952 1_545 S
H89 C79 0.948 . S
C90 C56 1.395 . S
C90 C60 1.391 . S
C91 C53 1.389 . S
C91 C73 1.392 . S
C92 C63 1.392 . S
C92 C65 1.389 . S
C93 C68 1.395 . S
C93 C70 1.391 . S
H94 C54 0.951 . S
H95 C55 0.950 . S
H96 C61 0.949 . S
H97 C62 0.950 . S
H98 C66 0.951 . S
H99 C67 0.950 . S
H100 C71 0.949 . S
H101 C72 0.950 . S
H102 C76 0.950 . S
H103 C78 0.950 . S
H104 C81 0.950 . S
H105 C83 0.950 . S
C106 C107 1.443 . S
C106 N110 1.376 . S
C106 C144 1.389 . S
C107 C106 1.443 . S
C107 C108 1.340 . S
C107 H147 0.951 . S
C108 C107 1.340 . S
C108 C109 1.439 . S
C108 H148 0.950 . S
C109 C108 1.439 . S
C109 N110 1.374 . S
C109 C143 1.395 . S
N110 C106 1.376 . S
N110 C109 1.374 . S
N110 Co111 1.998 1_556 S
Co111 N110 1.998 1_554 S
Co111 N112 1.990 1_554 S
Co111 N117 2.019 . S
Co111 N122 2.000 . S
Co111 N127 2.290 . S
Co111 N133 2.275 1_554 S
N112 Co111 1.990 1_556 S
N112 C113 1.376 . S
N112 C116 1.383 . S
C113 N112 1.376 . S
C113 C114 1.446 . S
C113 C143 1.391 . S
C114 C113 1.446 . S
C114 C115 1.339 . S
C114 H149 0.949 . S
C115 C114 1.339 . S
C115 C116 1.439 . S
C115 H150 0.950 . S
C116 N112 1.383 . S
C116 C115 1.439 . S
C116 C145 1.392 1_556 S
N117 Co111 2.019 . S
N117 C118 1.376 . S
N117 C121 1.374 . S
C118 N117 1.376 . S
C118 C119 1.443 . S
C118 C145 1.389 . S
C119 C118 1.443 . S
C119 C120 1.340 . S
C119 H151 0.951 . S
C120 C119 1.340 . S
C120 C121 1.439 . S
C120 H152 0.950 . S
C121 N117 1.374 . S
C121 C120 1.439 . S
C121 C146 1.395 . S
N122 Co111 2.000 . S
N122 C123 1.376 . S
N122 C126 1.383 . S
C123 N122 1.376 . S
C123 C124 1.446 . S
C123 C146 1.391 . S
C124 C123 1.446 . S
C124 C125 1.339 . S
C124 H153 0.949 . S
C125 C124 1.339 . S
C125 C126 1.439 . S
C125 H154 0.950 . S
C126 N122 1.383 . S
C126 C125 1.439 . S
C126 C144 1.392 1_554 S
N127 Co111 2.290 . S
N127 C130 1.332 . S
N127 C132 1.332 . S
C128 C129 1.386 . S
C128 C131 1.388 . S
C129 C128 1.386 . S
C129 C130 1.382 . S
C129 H155 0.950 . S
C130 N127 1.332 . S
C130 C129 1.382 . S
C130 H141 0.952 . S
C131 C128 1.388 . S
C131 C132 1.382 . S
C131 H156 0.950 . S
C132 N127 1.332 . S
C132 C131 1.382 . S
C132 H142 0.948 1_554 S
N133 Co111 2.275 1_556 S
N133 C137 1.332 . S
N133 C138 1.332 . S
C134 C135 1.388 . S
C134 C138 1.382 . S
C134 H157 0.950 . S
C135 C134 1.388 . S
C135 C136 1.386 . S
C136 C135 1.386 . S
C136 C137 1.382 . S
C136 H158 0.950 . S
C137 N133 1.332 . S
C137 C136 1.382 . S
C137 H139 0.952 . S
C138 N133 1.332 . S
C138 C134 1.382 . S
C138 H140 0.948 1_556 S
H139 C137 0.952 . S
H140 C138 0.948 1_554 S
H141 C130 0.952 . S
H142 C132 0.948 1_556 S
C143 C109 1.395 . S
C143 C113 1.391 . S
C144 C106 1.389 . S
C144 C126 1.392 1_556 S
C145 C116 1.392 1_554 S
C145 C118 1.389 . S
C146 C121 1.395 . S
C146 C123 1.391 . S
H147 C107 0.951 . S
H148 C108 0.950 . S
H149 C114 0.949 . S
H150 C115 0.950 . S
H151 C119 0.951 . S
H152 C120 0.950 . S
H153 C124 0.949 . S
H154 C125 0.950 . S
H155 C129 0.950 . S
H156 C131 0.950 . S
H157 C134 0.950 . S
H158 C136 0.950 . S
C159 C160 1.443 . S
C159 N163 1.376 . S
C159 C197 1.389 . S
C160 C159 1.443 . S
C160 C161 1.340 . S
C160 H200 0.951 . S
C161 C160 1.340 . S
C161 C162 1.439 . S
C161 H201 0.950 . S
C162 C161 1.439 . S
C162 N163 1.374 . S
C162 C196 1.395 . S
N163 C159 1.376 . S
N163 C162 1.374 . S
N163 Co164 2.008 1_655 S
Co164 N163 2.008 1_455 S
Co164 N165 1.995 . S
Co164 N170 2.008 . S
Co164 N175 1.995 1_455 S
Co164 N180 2.282 . S
Co164 N186 2.282 1_455 S
N165 Co164 1.995 . S
N165 C166 1.376 1_455 S
N165 C169 1.383 . S
C166 N165 1.376 1_655 S
C166 C167 1.446 . S
C166 C196 1.391 . S
C167 C166 1.446 . S
C167 C168 1.339 1_655 S
C167 H202 0.949 . S
C168 C167 1.339 1_455 S
C168 C169 1.439 . S
C168 H203 0.950 . S
C169 N165 1.383 . S
C169 C168 1.439 . S
C169 C198 1.392 . S
N170 Co164 2.008 . S
N170 C171 1.376 . S
N170 C174 1.374 . S
C171 N170 1.376 . S
C171 C172 1.443 . S
C171 C198 1.389 . S
C172 C171 1.443 . S
C172 C173 1.340 . S
C172 H204 0.951 . S
C173 C172 1.340 . S
C173 C174 1.439 . S
C173 H205 0.950 . S
C174 N170 1.374 . S
C174 C173 1.439 . S
C174 C199 1.395 . S
N175 Co164 1.995 1_655 S
N175 C176 1.376 1_655 S
N175 C179 1.383 . S
C176 N175 1.376 1_455 S
C176 C177 1.446 . S
C176 C199 1.391 . S
C177 C176 1.446 . S
C177 C178 1.339 1_455 S
C177 H206 0.949 . S
C178 C177 1.339 1_655 S
C178 C179 1.439 . S
C178 H207 0.950 . S
C179 N175 1.383 . S
C179 C178 1.439 . S
C179 C197 1.392 . S
N180 Co164 2.282 . S
N180 C183 1.332 . S
N180 C185 1.332 . S
C181 C182 1.386 . S
C181 C184 1.388 . S
C182 C181 1.386 . S
C182 C183 1.382 . S
C182 H208 0.950 . S
C183 N180 1.332 . S
C183 C182 1.382 . S
C183 H194 0.952 . S
C184 C181 1.388 . S
C184 C185 1.382 . S
C184 H209 0.950 . S
C185 N180 1.332 . S
C185 C184 1.382 . S
C185 H195 0.948 . S
N186 Co164 2.282 1_655 S
N186 C190 1.332 . S
N186 C191 1.332 . S
C187 C188 1.388 . S
C187 C191 1.382 . S
C187 H210 0.950 . S
C188 C187 1.388 . S
C188 C189 1.386 . S
C189 C188 1.386 . S
C189 C190 1.382 . S
C189 H211 0.950 . S
C190 N186 1.332 . S
C190 C189 1.382 . S
C190 H192 0.952 . S
C191 N186 1.332 . S
C191 C187 1.382 . S
C191 H193 0.948 . S
H192 C190 0.952 . S
H193 C191 0.948 . S
H194 C183 0.952 . S
H195 C185 0.948 . S
C196 C162 1.395 . S
C196 C166 1.391 . S
C197 C159 1.389 . S
C197 C179 1.392 . S
C198 C169 1.392 . S
C198 C171 1.389 . S
C199 C174 1.395 . S
C199 C176 1.391 . S
H200 C160 0.951 . S
H201 C161 0.950 . S
H202 C167 0.949 . S
H203 C168 0.950 . S
H204 C172 0.951 . S
H205 C173 0.950 . S
H206 C177 0.949 . S
H207 C178 0.950 . S
H208 C182 0.950 . S
H209 C184 0.950 . S
H210 C187 0.950 . S
H211 C189 0.950 . S
C212 C213 1.443 . S
C212 N216 1.376 . S
C212 C250 1.389 . S
C213 C212 1.443 . S
C213 C214 1.340 1_565 S
C213 H253 0.951 . S
C214 C213 1.340 1_545 S
C214 C215 1.439 . S
C214 H254 0.950 . S
C215 C214 1.439 . S
C215 N216 1.374 1_545 S
C215 C249 1.395 . S
N216 C212 1.376 . S
N216 C215 1.374 1_565 S
N216 Co217 2.008 1_565 S
Co217 N216 2.008 1_545 S
Co217 N218 1.995 . S
Co217 N223 2.008 1_554 S
Co217 N228 1.995 1_544 S
Co217 N233 2.282 1_554 S
Co217 N239 2.282 1_545 S
N218 Co217 1.995 . S
N218 C219 1.376 . S
N218 C222 1.383 1_554 S
C219 N218 1.376 . S
C219 C220 1.446 . S
C219 C249 1.391 . S
C220 C219 1.446 . S
C220 C221 1.339 1_554 S
C220 H255 0.949 . S
C221 C220 1.339 1_556 S
C221 C222 1.439 . S
C221 H256 0.950 . S
C222 N218 1.383 1_556 S
C222 C221 1.439 . S
C222 C251 1.392 . S
N223 Co217 2.008 1_556 S
N223 C224 1.376 . S
N223 C227 1.374 1_545 S
C224 N223 1.376 . S
C224 C225 1.443 . S
C224 C251 1.389 . S
C225 C224 1.443 . S
C225 C226 1.340 1_545 S
C225 H257 0.951 . S
C226 C225 1.340 1_565 S
C226 C227 1.439 . S
C226 H258 0.950 . S
C227 N223 1.374 1_565 S
C227 C226 1.439 . S
C227 C252 1.395 . S
N228 Co217 1.995 1_566 S
N228 C229 1.376 . S
N228 C232 1.383 1_556 S
C229 N228 1.376 . S
C229 C230 1.446 . S
C229 C252 1.391 . S
C230 C229 1.446 . S
C230 C231 1.339 1_556 S
C230 H259 0.949 . S
C231 C230 1.339 1_554 S
C231 C232 1.439 . S
C231 H260 0.950 . S
C232 N228 1.383 1_554 S
C232 C231 1.439 . S
C232 C250 1.392 . S
N233 Co217 2.282 1_556 S
N233 C236 1.332 . S
N233 C238 1.332 . S
C234 C235 1.386 . S
C234 C237 1.388 . S
C235 C234 1.386 . S
C235 C236 1.382 . S
C235 H261 0.950 . S
C236 N233 1.332 . S
C236 C235 1.382 . S
C236 H247 0.952 . S
C237 C234 1.388 . S
C237 C238 1.382 . S
C237 H262 0.950 . S
C238 N233 1.332 . S
C238 C237 1.382 . S
C238 H248 0.948 1_556 S
N239 Co217 2.282 1_565 S
N239 C243 1.332 . S
N239 C244 1.332 . S
C240 C241 1.388 . S
C240 C244 1.382 . S
C240 H263 0.950 . S
C241 C240 1.388 . S
C241 C242 1.386 . S
C242 C241 1.386 . S
C242 C243 1.382 . S
C242 H264 0.950 . S
C243 N239 1.332 . S
C243 C242 1.382 . S
C243 H245 0.952 1_565 S
C244 N239 1.332 . S
C244 C240 1.382 . S
C244 H246 0.950 . S
H245 C243 0.952 1_545 S
H246 C244 0.950 . S
H247 C236 0.952 . S
H248 C238 0.948 1_554 S
C249 C215 1.395 . S
C249 C219 1.391 . S
C250 C212 1.389 . S
C250 C232 1.392 . S
C251 C222 1.392 . S
C251 C224 1.389 . S
C252 C227 1.395 . S
C252 C229 1.391 . S
H253 C213 0.951 . S
H254 C214 0.950 . S
H255 C220 0.949 . S
H256 C221 0.950 . S
H257 C225 0.951 . S
H258 C226 0.950 . S
H259 C230 0.949 . S
H260 C231 0.950 . S
H261 C235 0.950 . S
H262 C237 0.950 . S
H263 C240 0.950 . S
H264 C242 0.950 . S
C265 C266 1.443 . S
C265 N269 1.376 . S
C265 C303 1.389 . S
C266 C265 1.443 . S
C266 C267 1.340 . S
C266 H306 0.951 . S
C267 C266 1.340 . S
C267 C268 1.439 . S
C267 H307 0.950 . S
C268 C267 1.439 . S
C268 N269 1.374 . S
C268 C302 1.395 . S
N269 C265 1.376 . S
N269 C268 1.374 . S
N269 Co270 2.008 . S
Co270 N269 2.008 . S
Co270 N271 1.995 . S
Co270 N276 2.008 . S
Co270 N281 1.995 . S
Co270 N286 2.282 . S
Co270 N292 2.282 . S
N271 Co270 1.995 . S
N271 C272 1.376 . S
N271 C275 1.383 . S
C272 N271 1.376 . S
C272 C273 1.446 . S
C272 C302 1.391 . S
C273 C272 1.446 . S
C273 C274 1.339 . S
C273 H308 0.949 . S
C274 C273 1.339 . S
C274 C275 1.439 . S
C274 H309 0.950 . S
C275 N271 1.383 . S
C275 C274 1.439 . S
C275 C304 1.392 . S
N276 Co270 2.008 . S
N276 C277 1.376 . S
N276 C280 1.374 . S
C277 N276 1.376 . S
C277 C278 1.443 . S
C277 C304 1.389 . S
C278 C277 1.443 . S
C278 C279 1.340 . S
C278 H310 0.951 . S
C279 C278 1.340 . S
C279 C280 1.439 . S
C279 H311 0.950 . S
C280 N276 1.374 . S
C280 C279 1.439 . S
C280 C305 1.395 . S
N281 Co270 1.995 . S
N281 C282 1.376 . S
N281 C285 1.383 . S
C282 N281 1.376 . S
C282 C283 1.446 . S
C282 C305 1.391 . S
C283 C282 1.446 . S
C283 C284 1.339 . S
C283 H312 0.949 . S
C284 C283 1.339 . S
C284 C285 1.439 . S
C284 H313 0.950 . S
C285 N281 1.383 . S
C285 C284 1.439 . S
C285 C303 1.392 . S
N286 Co270 2.282 . S
N286 C289 1.332 . S
N286 C291 1.332 . S
C287 C288 1.386 . S
C287 C290 1.388 . S
C288 C287 1.386 . S
C288 C289 1.382 . S
C288 H314 0.950 . S
C289 N286 1.332 . S
C289 C288 1.382 . S
C289 H300 0.952 . S
C290 C287 1.388 . S
C290 C291 1.382 . S
C290 H315 0.950 . S
C291 N286 1.332 . S
C291 C290 1.382 . S
C291 H301 0.948 . S
N292 Co270 2.282 . S
N292 C296 1.332 . S
N292 C297 1.332 . S
C293 C294 1.388 . S
C293 C297 1.382 . S
C293 H316 0.950 . S
C294 C293 1.388 . S
C294 C295 1.386 . S
C295 C294 1.386 . S
C295 C296 1.382 . S
C295 H317 0.950 . S
C296 N292 1.332 . S
C296 C295 1.382 . S
C296 H298 0.952 . S
C297 N292 1.332 . S
C297 C293 1.382 . S
C297 H299 0.948 . S
H298 C296 0.952 . S
H299 C297 0.948 . S
H300 C289 0.952 . S
H301 C291 0.948 . S
C302 C268 1.395 . S
C302 C272 1.391 . S
C303 C265 1.389 . S
C303 C285 1.392 . S
C304 C275 1.392 . S
C304 C277 1.389 . S
C305 C280 1.395 . S
C305 C282 1.391 . S
H306 C266 0.951 . S
H307 C267 0.950 . S
H308 C273 0.949 . S
H309 C274 0.950 . S
H310 C278 0.951 . S
H311 C279 0.950 . S
H312 C283 0.949 . S
H313 C284 0.950 . S
H314 C288 0.950 . S
H315 C290 0.950 . S
H316 C293 0.950 . S
H317 C295 0.950 . S
H318 C324 0.930 . S
H319 C327 0.931 . S
H320 C329 0.931 . S
H321 C331 0.930 . S
H322 C333 0.930 . S
H323 C335 0.931 . S
C324 H318 0.930 . S
C324 C325 1.380 . S
C324 C326 1.394 . S
C325 C324 1.380 . S
C325 C329 1.382 . S
C326 C324 1.394 . S
C326 C327 1.400 . S
C327 H319 0.931 . S
C327 C326 1.400 . S
C327 C328 1.375 . S
C328 C327 1.375 . S
C328 C329 1.415 . S
C328 C330 1.501 . S
C329 H320 0.931 . S
C329 C325 1.382 . S
C329 C328 1.415 . S
C330 C328 1.501 . S
C330 C331 1.384 . S
C330 C335 1.408 . S
C331 H321 0.930 . S
C331 C330 1.384 . S
C331 C332 1.389 . S
C332 C331 1.389 . S
C332 C333 1.405 . S
C333 H322 0.930 . S
C333 C332 1.405 . S
C333 C334 1.364 . S
C334 C333 1.364 . S
C334 C335 1.400 . S
C335 H323 0.931 . S
C335 C330 1.408 . S
C335 C334 1.400 . S
H336 C342 0.930 . S
H337 C345 0.931 . S
H338 C347 0.931 . S
H339 C349 0.930 . S
H340 C351 0.930 . S
H341 C353 0.931 . S
C342 H336 0.930 . S
C342 C343 1.380 . S
C342 C344 1.394 . S
C343 C342 1.380 . S
C343 C347 1.382 . S
C344 C342 1.394 . S
C344 C345 1.400 . S
C345 H337 0.931 . S
C345 C344 1.400 . S
C345 C346 1.375 . S
C346 C345 1.375 . S
C346 C347 1.415 . S
C346 C348 1.501 . S
C347 H338 0.931 . S
C347 C343 1.382 . S
C347 C346 1.415 . S
C348 C346 1.501 . S
C348 C349 1.384 . S
C348 C353 1.408 . S
C349 H339 0.930 . S
C349 C348 1.384 . S
C349 C350 1.389 . S
C350 C349 1.389 . S
C350 C351 1.405 . S
C351 H340 0.930 . S
C351 C350 1.405 . S
C351 C352 1.364 . S
C352 C351 1.364 . S
C352 C353 1.400 . S
C353 H341 0.931 . S
C353 C348 1.408 . S
C353 C352 1.400 . S
H354 C360 0.930 . S
H355 C363 0.931 . S
H356 C365 0.931 . S
H357 C367 0.930 . S
H358 C369 0.930 . S
H359 C371 0.931 . S
C360 H354 0.930 . S
C360 C361 1.380 . S
C360 C362 1.394 . S
C361 C360 1.380 . S
C361 C365 1.382 . S
C362 C360 1.394 . S
C362 C363 1.400 . S
C363 H355 0.931 . S
C363 C362 1.400 . S
C363 C364 1.375 . S
C364 C363 1.375 . S
C364 C365 1.415 . S
C364 C366 1.501 . S
C365 H356 0.931 . S
C365 C361 1.382 . S
C365 C364 1.415 . S
C366 C364 1.501 . S
C366 C367 1.384 . S
C366 C371 1.408 . S
C367 H357 0.930 . S
C367 C366 1.384 . S
C367 C368 1.389 . S
C368 C367 1.389 . S
C368 C369 1.405 . S
C369 H358 0.930 . S
C369 C368 1.405 . S
C369 C370 1.364 . S
C370 C369 1.364 . S
C370 C371 1.400 . S
C371 H359 0.931 . S
C371 C366 1.408 . S
C371 C370 1.400 . S
H372 C378 0.930 . S
H373 C381 0.931 . S
H374 C383 0.931 . S
H375 C385 0.930 . S
H376 C387 0.930 . S
H377 C389 0.931 . S
C378 H372 0.930 . S
C378 C379 1.380 . S
C378 C380 1.394 . S
C379 C378 1.380 . S
C379 C383 1.382 . S
C380 C378 1.394 . S
C380 C381 1.400 . S
C381 H373 0.931 . S
C381 C380 1.400 . S
C381 C382 1.375 . S
C382 C381 1.375 . S
C382 C383 1.415 . S
C382 C384 1.501 . S
C383 H374 0.931 . S
C383 C379 1.382 . S
C383 C382 1.415 . S
C384 C382 1.501 . S
C384 C385 1.384 . S
C384 C389 1.408 . S
C385 H375 0.930 . S
C385 C384 1.384 . S
C385 C386 1.389 . S
C386 C385 1.389 . S
C386 C387 1.405 . S
C387 H376 0.930 . S
C387 C386 1.405 . S
C387 C388 1.364 . S
C388 C387 1.364 . S
C388 C389 1.400 . S
C389 H377 0.931 . S
C389 C384 1.408 . S
C389 C388 1.400 . S
H390 C396 0.930 . S
H391 C399 0.931 . S
H392 C401 0.931 . S
H393 C403 0.930 . S
H394 C405 0.930 . S
H395 C407 0.931 . S
C396 H390 0.930 . S
C396 C397 1.380 . S
C396 C398 1.394 . S
C397 C396 1.380 . S
C397 C401 1.382 . S
C398 C396 1.394 . S
C398 C399 1.400 . S
C399 H391 0.931 . S
C399 C398 1.400 . S
C399 C400 1.375 . S
C400 C399 1.375 . S
C400 C401 1.415 . S
C400 C402 1.501 . S
C401 H392 0.931 . S
C401 C397 1.382 . S
C401 C400 1.415 . S
C402 C400 1.501 . S
C402 C403 1.384 . S
C402 C407 1.408 . S
C403 H393 0.930 . S
C403 C402 1.384 . S
C403 C404 1.389 . S
C404 C403 1.389 . S
C404 C405 1.405 . S
C405 H394 0.930 . S
C405 C404 1.405 . S
C405 C406 1.364 . S
C406 C405 1.364 . S
C406 C407 1.400 . S
C407 H395 0.931 . S
C407 C402 1.408 . S
C407 C406 1.400 . S
H408 C414 0.930 . S
H409 C417 0.931 . S
H410 C419 0.931 . S
H411 C421 0.930 . S
H412 C423 0.930 . S
H413 C425 0.931 . S
C414 H408 0.930 . S
C414 C415 1.380 . S
C414 C416 1.394 . S
C415 C414 1.380 . S
C415 C419 1.382 . S
C416 C414 1.394 . S
C416 C417 1.400 . S
C417 H409 0.931 . S
C417 C416 1.400 . S
C417 C418 1.375 . S
C418 C417 1.375 . S
C418 C419 1.415 . S
C418 C420 1.501 . S
C419 H410 0.931 . S
C419 C415 1.382 . S
C419 C418 1.415 . S
C420 C418 1.501 . S
C420 C421 1.384 . S
C420 C425 1.408 . S
C421 H411 0.930 . S
C421 C420 1.384 . S
C421 C422 1.389 . S
C422 C421 1.389 . S
C422 C423 1.405 . S
C423 H412 0.930 . S
C423 C422 1.405 . S
C423 C424 1.364 . S
C424 C423 1.364 . S
C424 C425 1.400 . S
C425 H413 0.931 . S
C425 C420 1.408 . S
C425 C424 1.400 . S
C39 C332 1.706 . S
C91 C343 1.665 . S
C362 C128 1.518 . S
C379 C188 1.520 . S
C406 C250 1.662 . S
C415 C304 1.729 . S
C75 C368 1.497 . S
C144 C388 1.715 . S
C397 C198 1.598 . S
C424 C234 1.503 . S
C294 C326 1.469 . S
C352 C29 1.446 . S
C380 C38 1.846 . S
C92 C404 1.782 . S
C416 C135 1.653 . S
C181 C334 1.586 . S
C251 C344 1.775 . S
C303 C361 1.856 . S
C82 C422 1.683 . S
C325 C145 1.791 . S
C197 C350 1.744 . S
C241 C370 1.566 . S
C287 C386 1.590 . S
C22 C398 1.552 . S
