# Generated by pormake.
# Topology apo, (3,6)-cn, num edge types: 1
# Building blocks:
#     Node 0, Type 0, BuildingBlock: ESEHIV_clean_linker_0, # of connection points: 3
#     Node 1, Type 0, BuildingBlock: ESEHIV_clean_linker_0, # of connection points: 3
#     Node 2, Type 0, BuildingBlock: ESEHIV_clean_linker_0, # of connection points: 3
#     Node 3, Type 0, BuildingBlock: ESEHIV_clean_linker_0, # of connection points: 3
#     Node 4, Type 0, BuildingBlock: ESEHIV_clean_linker_0, # of connection points: 3
#     Node 5, Type 0, BuildingBlock: ESEHIV_clean_linker_0, # of connection points: 3
#     Node 6, Type 0, BuildingBlock: ESEHIV_clean_linker_0, # of connection points: 3
#     Node 7, Type 0, BuildingBlock: ESEHIV_clean_linker_0, # of connection points: 3
#     Node 8, Type 1, BuildingBlock: KUMBUR_clean_sbu_1, # of connection points: 6
#     Node 9, Type 1, BuildingBlock: KUMBUR_clean_sbu_1, # of connection points: 6
#     Node 10, Type 1, BuildingBlock: KUMBUR_clean_sbu_1, # of connection points: 6
#     Node 11, Type 1, BuildingBlock: KUMBUR_clean_sbu_1, # of connection points: 6
#     Edge 12, Type (0, 1), BuildingBlock: MIFKUJ_clean_linker_0, # of connection points: 2
#     Edge 13, Type (0, 1), BuildingBlock: MIFKUJ_clean_linker_0, # of connection points: 2
#     Edge 14, Type (0, 1), BuildingBlock: MIFKUJ_clean_linker_0, # of connection points: 2
#     Edge 15, Type (0, 1), BuildingBlock: MIFKUJ_clean_linker_0, # of connection points: 2
#     Edge 16, Type (0, 1), BuildingBlock: MIFKUJ_clean_linker_0, # of connection points: 2
#     Edge 17, Type (0, 1), BuildingBlock: MIFKUJ_clean_linker_0, # of connection points: 2
#     Edge 18, Type (0, 1), BuildingBlock: MIFKUJ_clean_linker_0, # of connection points: 2
#     Edge 19, Type (0, 1), BuildingBlock: MIFKUJ_clean_linker_0, # of connection points: 2
#     Edge 20, Type (0, 1), BuildingBlock: MIFKUJ_clean_linker_0, # of connection points: 2
#     Edge 21, Type (0, 1), BuildingBlock: MIFKUJ_clean_linker_0, # of connection points: 2
#     Edge 22, Type (0, 1), BuildingBlock: MIFKUJ_clean_linker_0, # of connection points: 2
#     Edge 23, Type (0, 1), BuildingBlock: MIFKUJ_clean_linker_0, # of connection points: 2
#     Edge 24, Type (0, 1), BuildingBlock: MIFKUJ_clean_linker_0, # of connection points: 2
#     Edge 25, Type (0, 1), BuildingBlock: MIFKUJ_clean_linker_0, # of connection points: 2
#     Edge 26, Type (0, 1), BuildingBlock: MIFKUJ_clean_linker_0, # of connection points: 2
#     Edge 27, Type (0, 1), BuildingBlock: MIFKUJ_clean_linker_0, # of connection points: 2
#     Edge 28, Type (0, 1), BuildingBlock: MIFKUJ_clean_linker_0, # of connection points: 2
#     Edge 29, Type (0, 1), BuildingBlock: MIFKUJ_clean_linker_0, # of connection points: 2
#     Edge 30, Type (0, 1), BuildingBlock: MIFKUJ_clean_linker_0, # of connection points: 2
#     Edge 31, Type (0, 1), BuildingBlock: MIFKUJ_clean_linker_0, # of connection points: 2
#     Edge 32, Type (0, 1), BuildingBlock: MIFKUJ_clean_linker_0, # of connection points: 2
#     Edge 33, Type (0, 1), BuildingBlock: MIFKUJ_clean_linker_0, # of connection points: 2
#     Edge 34, Type (0, 1), BuildingBlock: MIFKUJ_clean_linker_0, # of connection points: 2
#     Edge 35, Type (0, 1), BuildingBlock: MIFKUJ_clean_linker_0, # of connection points: 2
# Relax obj value: 0.009
# Max RMSD: 0.097
# Mean RMSD: 0.076
data_MOF--net-apo--node1-KUMBUR_clean_sbu_1--node2-ESEHIV_clean_linker_0--edge1-MIFKUJ_clean_linker_0
_symmetry_space_group_name_H-M    P1
_symmetry_Int_Tables_number       1
_symmetry_cell_setting            triclinic
loop_
_symmetry_equiv_pos_as_xyz
'x, y, z'
_cell_length_a     29.662874
_cell_length_b     52.985508
_cell_length_c     64.679784
_cell_angle_alpha  90.00856
_cell_angle_beta   90.012768
_cell_angle_gamma 90.238922
loop_
_atom_site_label
_atom_site_type_symbol
_atom_site_fract_x
_atom_site_fract_y
_atom_site_fract_z
_atom_type_partial_charge
H0 H 0.31951 0.41772 0.43062 0.0
H1 H 0.25521 0.38943 0.37591 0.0
H2 H 0.2574 0.34425 0.43144 0.0
C3 C 0.30078 0.40289 0.42282 0.0
C4 C 0.2887 0.38092 0.43361 0.0
C5 C 0.28906 0.40585 0.40202 0.0
C6 C 0.26473 0.38675 0.39193 0.0
C7 C 0.25343 0.36419 0.40226 0.0
C8 C 0.26568 0.36146 0.42319 0.0
H9 H 0.18417 0.08613 0.92842 0.0
H10 H 0.25221 0.11422 0.8746 0.0
H11 H 0.25917 0.15567 0.93195 0.0
C12 C 0.20494 0.10048 0.92114 0.0
C13 C 0.22022 0.12128 0.93266 0.0
C14 C 0.21733 0.09772 0.90038 0.0
C15 C 0.24421 0.11618 0.89087 0.0
C16 C 0.25908 0.13748 0.902 0.0
C17 C 0.24747 0.13961 0.92304 0.0
H18 H 0.82144 0.0845 0.58126 0.0
H19 H 0.77143 0.11712 0.63758 0.0
H20 H 0.76182 0.15844 0.58045 0.0
C21 C 0.80472 0.09981 0.58926 0.0
C22 C 0.79231 0.12158 0.5783 0.0
C23 C 0.79803 0.09833 0.61072 0.0
C24 C 0.77744 0.11851 0.62108 0.0
C25 C 0.76361 0.14014 0.61028 0.0
C26 C 0.77146 0.14161 0.58887 0.0
H27 H 0.68309 0.41641 0.08412 0.0
H28 H 0.74202 0.38654 0.13962 0.0
H29 H 0.75235 0.34532 0.08234 0.0
C30 C 0.70225 0.40187 0.09195 0.0
C31 C 0.71675 0.38067 0.08088 0.0
C32 C 0.7113 0.40404 0.11314 0.0
C33 C 0.73546 0.38492 0.12318 0.0
C34 C 0.75081 0.36369 0.11225 0.0
C35 C 0.74106 0.36163 0.091 0.0
H36 H 0.68798 0.58499 0.58298 0.0
H37 H 0.74936 0.65872 0.5823 0.0
H38 H 0.74307 0.61614 0.63893 0.0
C39 C 0.70517 0.6002 0.59101 0.0
C40 C 0.71406 0.59798 0.61223 0.0
C41 C 0.7179 0.62199 0.58012 0.0
C42 C 0.7398 0.64177 0.59063 0.0
C43 C 0.74908 0.63976 0.61188 0.0
C44 C 0.73622 0.61776 0.62252 0.0
H45 H 0.81137 0.91933 0.08286 0.0
H46 H 0.7687 0.88334 0.13933 0.0
H47 H 0.75386 0.84484 0.08137 0.0
C48 C 0.79685 0.90342 0.091 0.0
C49 C 0.78431 0.88187 0.07966 0.0
C50 C 0.79161 0.90437 0.11262 0.0
C51 C 0.77248 0.88334 0.12269 0.0
C52 C 0.75804 0.86205 0.11152 0.0
C53 C 0.76426 0.8614 0.09002 0.0
H54 H 0.17378 0.91457 0.42892 0.0
H55 H 0.24369 0.84384 0.42885 0.0
H56 H 0.24838 0.89274 0.37531 0.0
C57 C 0.19479 0.90089 0.42106 0.0
C58 C 0.20899 0.90557 0.40081 0.0
C59 C 0.20899 0.87911 0.43144 0.0
C60 C 0.23527 0.86116 0.42092 0.0
C61 C 0.24893 0.86524 0.40024 0.0
C62 C 0.23696 0.88824 0.39077 0.0
H63 H 0.31884 0.58582 0.93024 0.0
H64 H 0.26834 0.61834 0.8738 0.0
H65 H 0.25742 0.65929 0.93088 0.0
C66 C 0.30248 0.60113 0.9221 0.0
C67 C 0.28936 0.62275 0.93312 0.0
C68 C 0.2952 0.59925 0.90067 0.0
C69 C 0.27382 0.61928 0.89036 0.0
C70 C 0.25998 0.64081 0.90121 0.0
C71 C 0.268 0.64258 0.92254 0.0
Tb72 Tb 0.05562 0.14387 0.23511 0.0
C73 C 0.86086 0.117 0.26757 0.0
N74 N 0.88322 0.13914 0.26467 0.0
C75 C 0.81758 0.15702 0.24882 0.0
C76 C 0.81641 0.11365 0.26035 0.0
C77 C 0.86163 0.15943 0.25629 0.0
C78 C 0.79504 0.13394 0.25061 0.0
C79 C 0.86059 0.07453 0.28144 0.0
C80 C 0.88275 0.09774 0.27797 0.0
C81 C 0.81665 0.07084 0.27386 0.0
C82 C 0.7946 0.09036 0.26335 0.0
Tb83 Tb 0.95438 0.14106 0.27789 0.0
N84 N 0.9255 0.10189 0.28487 0.0
C85 C 0.88326 0.05575 0.29248 0.0
C86 C 0.94663 0.08415 0.2967 0.0
C87 C 0.92627 0.0607 0.30032 0.0
H88 H 0.87769 0.17769 0.25571 0.0
H89 H 0.94351 0.04658 0.30943 0.0
H90 H 0.12923 0.10058 0.25308 0.0
H91 H 0.07944 0.24149 0.21501 0.0
H92 H 0.97856 0.08815 0.30394 0.0
H93 H 0.86751 0.03761 0.2954 0.0
H94 H 0.03866 0.20062 0.21621 0.0
H95 H 0.80085 0.17308 0.24193 0.0
H96 H 0.79923 0.05306 0.27623 0.0
H97 H 0.76052 0.08736 0.25781 0.0
H98 H 0.20271 0.10093 0.27036 0.0
H99 H 0.76083 0.13216 0.24489 0.0
H100 H 0.15407 0.24575 0.23181 0.0
N101 N 0.12487 0.14074 0.25075 0.0
C102 C 0.1487 0.16273 0.25183 0.0
C103 C 0.18754 0.11853 0.26559 0.0
C104 C 0.19211 0.16361 0.26072 0.0
C105 C 0.14499 0.11854 0.25626 0.0
C106 C 0.21087 0.14123 0.26819 0.0
N107 N 0.0888 0.18262 0.23442 0.0
C108 C 0.07093 0.20252 0.22382 0.0
C109 C 0.15523 0.20699 0.24246 0.0
C110 C 0.13066 0.18418 0.24286 0.0
C111 C 0.13628 0.22787 0.23245 0.0
C112 C 0.09409 0.22555 0.22296 0.0
H113 H 0.2441 0.14109 0.27514 0.0
H114 H 0.24931 0.18761 0.26804 0.0
H115 H 0.21698 0.2256 0.25204 0.0
O116 O 0.04711 0.15018 0.20325 0.0
O117 O 0.04715 0.1743 0.258 0.0
O118 O 0.02303 0.1519 0.28576 0.0
O119 O 0.10474 0.13025 0.21448 0.0
O120 O 0.98937 0.15863 0.2269 0.0
O121 O 0.95933 0.17422 0.25745 0.0
O122 O 0.93104 0.13712 0.30863 0.0
O123 O 0.942 0.12313 0.24761 0.0
O124 O 0.01165 0.11059 0.23452 0.0
O125 O 0.93127 0.17371 0.29314 0.0
O126 O 0.01715 0.12083 0.28493 0.0
O127 O 0.05171 0.10919 0.25393 0.0
C128 C 0.04216 0.172 0.27806 0.0
C129 C 0.07848 0.11989 0.18122 0.0
C130 C 0.08501 0.11022 0.1445 0.0
C131 C 0.06318 0.08702 0.14802 0.0
C132 C 0.05827 0.09632 0.18458 0.0
C133 C 0.05004 0.08017 0.16798 0.0
C134 C 0.09246 0.12667 0.16122 0.0
C135 C 0.96393 0.17456 0.23716 0.0
C136 C 0.08338 0.13802 0.19819 0.0
C137 C 0.21607 0.18655 0.26114 0.0
C138 C 0.19774 0.20817 0.25196 0.0
C139 C 0.96744 0.10859 0.23593 0.0
C140 C 0.90307 0.17287 0.32864 0.0
C141 C 0.88628 0.17238 0.36568 0.0
C142 C 0.86959 0.19707 0.364 0.0
C143 C 0.88616 0.19754 0.32744 0.0
C144 C 0.90249 0.16012 0.34784 0.0
C145 C 0.86933 0.20946 0.345 0.0
C146 C 0.04208 0.10551 0.27365 0.0
C147 C 0.92208 0.16104 0.3099 0.0
H148 H 0.05689 0.07405 0.13538 0.0
H149 H 0.04808 0.09063 0.19996 0.0
H150 H 0.03304 0.06243 0.17061 0.0
H151 H 0.10833 0.14487 0.15862 0.0
H152 H 0.85657 0.2068 0.37746 0.0
H153 H 0.88597 0.20768 0.3129 0.0
H154 H 0.91572 0.14114 0.34905 0.0
H155 H 0.85631 0.22846 0.34391 0.0
Tb156 Tb 0.45343 0.3656 0.73714 0.0
C157 C 0.65372 0.38511 0.76712 0.0
N158 N 0.63292 0.36225 0.76674 0.0
C159 C 0.70078 0.34309 0.75415 0.0
C160 C 0.69877 0.38798 0.76054 0.0
C161 C 0.65589 0.34129 0.76059 0.0
C162 C 0.72229 0.36657 0.75401 0.0
C163 C 0.64916 0.42999 0.77381 0.0
C164 C 0.62909 0.4058 0.77356 0.0
C165 C 0.69384 0.43305 0.76702 0.0
C166 C 0.71864 0.41207 0.76046 0.0
Tb167 Tb 0.55932 0.36123 0.77718 0.0
N168 N 0.58563 0.40212 0.77971 0.0
C169 C 0.624 0.4503 0.78123 0.0
C170 C 0.56306 0.42147 0.78901 0.0
C171 C 0.58109 0.4459 0.78928 0.0
H172 H 0.64002 0.32308 0.76127 0.0
H173 H 0.56233 0.4612 0.79622 0.0
H174 H 0.38786 0.41241 0.75271 0.0
H175 H 0.42115 0.26621 0.7246 0.0
H176 H 0.53233 0.41823 0.79722 0.0
H177 H 0.63807 0.4692 0.78163 0.0
H178 H 0.46757 0.30454 0.72569 0.0
H179 H 0.71879 0.32634 0.74938 0.0
H180 H 0.7097 0.45151 0.76701 0.0
H181 H 0.75314 0.41469 0.75537 0.0
H182 H 0.3093 0.41775 0.7643 0.0
H183 H 0.757 0.36795 0.74891 0.0
H184 H 0.34054 0.26806 0.73423 0.0
N185 N 0.38187 0.37277 0.74856 0.0
C186 C 0.35392 0.3524 0.74874 0.0
C187 C 0.32149 0.39921 0.76013 0.0
C188 C 0.30824 0.35472 0.75439 0.0
C189 C 0.36625 0.39607 0.7539 0.0
C190 C 0.29232 0.37844 0.76041 0.0
N191 N 0.41528 0.32797 0.7372 0.0
C192 C 0.43317 0.30569 0.73059 0.0
C193 C 0.34265 0.30795 0.74145 0.0
C194 C 0.37093 0.32933 0.74244 0.0
C195 C 0.36113 0.28497 0.73513 0.0
C196 C 0.40662 0.28384 0.72973 0.0
H197 H 0.25746 0.38101 0.76491 0.0
H198 H 0.2444 0.33495 0.75721 0.0
H199 H 0.27428 0.29428 0.74502 0.0
O200 O 0.45781 0.35956 0.70493 0.0
O201 O 0.44191 0.34524 0.76629 0.0
O202 O 0.51198 0.32953 0.77452 0.0
O203 O 0.41707 0.38935 0.71727 0.0
O204 O 0.51248 0.34389 0.72694 0.0
O205 O 0.55385 0.3294 0.75535 0.0
O206 O 0.55956 0.36569 0.8101 0.0
O207 O 0.57286 0.37834 0.74671 0.0
O208 O 0.5039 0.39517 0.74061 0.0
O209 O 0.59905 0.33681 0.79466 0.0
O210 O 0.49558 0.37884 0.7875 0.0
O211 O 0.46734 0.39702 0.75794 0.0
C212 C 0.46809 0.33007 0.77688 0.0
C213 C 0.39224 0.37065 0.68616 0.0
C214 C 0.36355 0.3687 0.65088 0.0
C215 C 0.32118 0.36137 0.65849 0.0
C216 C 0.3495 0.36339 0.69343 0.0
C217 C 0.31436 0.35857 0.67967 0.0
C218 C 0.39931 0.37301 0.66474 0.0
C219 C 0.54232 0.32868 0.73553 0.0
C220 C 0.42877 0.37717 0.70071 0.0
C221 C 0.27978 0.33351 0.75324 0.0
C222 C 0.29684 0.31029 0.74649 0.0
C223 C 0.54639 0.39286 0.73569 0.0
C224 C 0.60447 0.3368 0.83183 0.0
C225 C 0.61855 0.34014 0.86891 0.0
C226 C 0.63528 0.31542 0.8689 0.0
C227 C 0.62158 0.31209 0.83225 0.0
C228 C 0.60301 0.35092 0.85033 0.0
C229 C 0.63682 0.30152 0.85066 0.0
C230 C 0.46841 0.3949 0.77818 0.0
C231 C 0.58747 0.34696 0.81206 0.0
H232 H 0.29334 0.35791 0.64801 0.0
H233 H 0.34281 0.36193 0.7097 0.0
H234 H 0.28154 0.35305 0.68547 0.0
H235 H 0.43197 0.37892 0.65892 0.0
H236 H 0.64731 0.3069 0.88309 0.0
H237 H 0.62279 0.30074 0.81832 0.0
H238 H 0.58989 0.36998 0.8503 0.0
H239 H 0.64976 0.28245 0.85081 0.0
Tb240 Tb 0.05692 0.86133 0.73555 0.0
C241 C 0.85176 0.85519 0.76557 0.0
N242 N 0.88068 0.87506 0.76424 0.0
C243 C 0.8221 0.9005 0.74957 0.0
C244 C 0.80687 0.85705 0.75867 0.0
C245 C 0.86616 0.89779 0.75694 0.0
C246 C 0.7924 0.87998 0.75027 0.0
C247 C 0.83755 0.81258 0.77763 0.0
C248 C 0.86691 0.83326 0.77481 0.0
C249 C 0.79303 0.81404 0.77032 0.0
C250 C 0.77775 0.83622 0.76081 0.0
Tb251 Tb 0.95204 0.86818 0.77628 0.0
N252 N 0.9104 0.83246 0.78135 0.0
C253 C 0.85374 0.79126 0.78798 0.0
C254 C 0.92524 0.81256 0.79277 0.0
C255 C 0.89761 0.79143 0.79587 0.0
H256 H 0.88813 0.91405 0.75725 0.0
H257 H 0.90986 0.7755 0.80467 0.0
H258 H 0.13461 0.82308 0.75436 0.0
H259 H 0.06079 0.96107 0.71649 0.0
H260 H 0.95768 0.81329 0.80014 0.0
H261 H 0.8323 0.77495 0.7905 0.0
H262 H 0.03015 0.91819 0.71557 0.0
H263 H 0.8109 0.91851 0.74364 0.0
H264 H 0.77 0.79829 0.7722 0.0
H265 H 0.74315 0.83723 0.75552 0.0
H266 H 0.21292 0.82643 0.76708 0.0
H267 H 0.75815 0.88221 0.74477 0.0
H268 H 0.13675 0.96882 0.73095 0.0
N269 N 0.12936 0.86217 0.74733 0.0
C270 C 0.15056 0.88493 0.74677 0.0
C271 C 0.19571 0.84305 0.76147 0.0
C272 C 0.1951 0.88776 0.754 0.0
C273 C 0.15129 0.84125 0.75436 0.0
C274 C 0.21769 0.86643 0.76137 0.0
N275 N 0.08342 0.90204 0.73304 0.0
C276 C 0.0611 0.92137 0.72365 0.0
C277 C 0.14705 0.92968 0.73926 0.0
C278 C 0.12664 0.9056 0.73961 0.0
C279 C 0.12243 0.94998 0.73141 0.0
C280 C 0.07948 0.94571 0.72333 0.0
H281 H 0.25199 0.8678 0.76703 0.0
H282 H 0.24954 0.91435 0.75942 0.0
H283 H 0.20752 0.95106 0.74647 0.0
O284 O 0.06192 0.86588 0.70278 0.0
O285 O 0.07009 0.87811 0.76619 0.0
O286 O 0.00267 0.89704 0.77057 0.0
O287 O 0.09696 0.83593 0.71911 0.0
O288 O 0.99321 0.87797 0.72437 0.0
O289 O 0.96633 0.89747 0.75349 0.0
O290 O 0.96215 0.86713 0.80859 0.0
O291 O 0.93881 0.84409 0.74911 0.0
O292 O 0.00838 0.83035 0.73731 0.0
O293 O 0.91578 0.89333 0.79499 0.0
O294 O 0.00958 0.84451 0.78594 0.0
O295 O 0.04925 0.82957 0.75702 0.0
C296 C 0.04483 0.89451 0.77586 0.0
C297 C 0.10761 0.83634 0.68211 0.0
C298 C 0.12644 0.84005 0.64551 0.0
C299 C 0.14575 0.81593 0.64613 0.0
C300 C 0.12702 0.81216 0.68229 0.0
C301 C 0.14581 0.80205 0.66439 0.0
C302 C 0.10692 0.85024 0.6635 0.0
C303 C 0.96528 0.89379 0.7334 0.0
C304 C 0.08849 0.84646 0.70148 0.0
C305 C 0.21537 0.91176 0.75387 0.0
C306 C 0.19139 0.93267 0.74655 0.0
C307 C 0.96409 0.8302 0.73682 0.0
C308 C 0.89632 0.87659 0.82759 0.0
C309 C 0.8731 0.87158 0.86347 0.0
C310 C 0.83094 0.86265 0.85685 0.0
C311 C 0.85346 0.86815 0.82131 0.0
C312 C 0.90596 0.87847 0.84883 0.0
C313 C 0.8212 0.861 0.83584 0.0
C314 C 0.03826 0.829 0.77683 0.0
C315 C 0.9307 0.88365 0.81212 0.0
H316 H 0.16079 0.80783 0.63239 0.0
H317 H 0.12765 0.80096 0.69629 0.0
H318 H 0.16065 0.78343 0.66471 0.0
H319 H 0.09213 0.86891 0.66308 0.0
H320 H 0.80526 0.85741 0.86799 0.0
H321 H 0.84449 0.86738 0.80521 0.0
H322 H 0.93858 0.88534 0.85394 0.0
H323 H 0.78837 0.85446 0.8308 0.0
Tb324 Tb 0.44736 0.64137 0.23563 0.0
C325 C 0.65154 0.65027 0.26676 0.0
N326 N 0.62397 0.6298 0.26547 0.0
C327 C 0.68505 0.6049 0.25247 0.0
C328 C 0.69716 0.64889 0.26083 0.0
C329 C 0.64012 0.60715 0.25873 0.0
C330 C 0.71368 0.62588 0.25345 0.0
C331 C 0.6615 0.6942 0.27633 0.0
C332 C 0.63393 0.6726 0.27442 0.0
C333 C 0.707 0.69297 0.2704 0.0
C334 C 0.72476 0.67039 0.26263 0.0
Tb335 Tb 0.55169 0.63576 0.2763 0.0
N336 N 0.58933 0.67329 0.27931 0.0
C337 C 0.64229 0.71645 0.28386 0.0
C338 C 0.57088 0.69469 0.28736 0.0
C339 C 0.59684 0.71664 0.28946 0.0
H340 H 0.61871 0.59064 0.25865 0.0
H341 H 0.58184 0.73366 0.29554 0.0
H342 H 0.37188 0.67861 0.25758 0.0
H343 H 0.44285 0.54222 0.21477 0.0
H344 H 0.53651 0.695 0.29253 0.0
H345 H 0.66226 0.7335 0.2855 0.0
H346 H 0.47427 0.58489 0.21492 0.0
H347 H 0.6977 0.58693 0.2471 0.0
H348 H 0.72869 0.7094 0.27168 0.0
H349 H 0.75991 0.66973 0.25812 0.0
H350 H 0.29408 0.67493 0.27078 0.0
H351 H 0.74855 0.62404 0.24871 0.0
H352 H 0.3663 0.53443 0.2285 0.0
N353 N 0.3758 0.64016 0.24844 0.0
C354 C 0.35394 0.61766 0.24683 0.0
C355 C 0.31061 0.65864 0.26417 0.0
C356 C 0.30955 0.61466 0.25421 0.0
C357 C 0.35485 0.66062 0.25687 0.0
C358 C 0.28785 0.63556 0.26286 0.0
N359 N 0.42064 0.60084 0.23233 0.0
C360 C 0.4429 0.58169 0.22267 0.0
C361 C 0.35651 0.5733 0.23774 0.0
C362 C 0.37732 0.59725 0.23879 0.0
C363 C 0.38089 0.55318 0.22945 0.0
C364 C 0.42413 0.55747 0.22173 0.0
H365 H 0.25369 0.63404 0.26868 0.0
H366 H 0.25463 0.58814 0.25877 0.0
H367 H 0.2957 0.55194 0.24433 0.0
O368 O 0.44311 0.63819 0.20267 0.0
O369 O 0.43495 0.62332 0.26585 0.0
O370 O 0.50334 0.6054 0.27127 0.0
O371 O 0.4045 0.6659 0.21994 0.0
O372 O 0.51087 0.62438 0.22458 0.0
O373 O 0.53951 0.60574 0.25389 0.0
O374 O 0.54334 0.63922 0.30859 0.0
O375 O 0.56496 0.65849 0.24836 0.0
O376 O 0.49541 0.67268 0.23726 0.0
O377 O 0.58822 0.61161 0.2958 0.0
O378 O 0.49113 0.65638 0.28607 0.0
O379 O 0.4572 0.67325 0.25677 0.0
C380 C 0.46051 0.60715 0.27569 0.0
C381 C 0.3937 0.66699 0.18298 0.0
C382 C 0.38045 0.66655 0.14568 0.0
C383 C 0.35667 0.68932 0.14752 0.0
C384 C 0.36959 0.68974 0.18431 0.0
C385 C 0.35119 0.70074 0.16671 0.0
C386 C 0.39873 0.65522 0.16353 0.0
C387 C 0.53921 0.60884 0.23372 0.0
C388 C 0.4142 0.65659 0.20198 0.0
C389 C 0.28871 0.59085 0.25315 0.0
C390 C 0.31216 0.57021 0.24498 0.0
C391 C 0.53965 0.67254 0.23623 0.0
C392 C 0.60841 0.62923 0.32803 0.0
C393 C 0.63316 0.63181 0.36388 0.0
C394 C 0.67546 0.64055 0.35725 0.0
C395 C 0.65122 0.63769 0.32174 0.0
C396 C 0.59935 0.62645 0.34927 0.0
C397 C 0.68431 0.64357 0.33627 0.0
C398 C 0.46411 0.67265 0.27692 0.0
C399 C 0.57385 0.62231 0.31262 0.0
H400 H 0.34188 0.69818 0.13404 0.0
H401 H 0.36521 0.69927 0.19899 0.0
H402 H 0.33274 0.71825 0.16794 0.0
H403 H 0.41723 0.63769 0.16222 0.0
H404 H 0.70182 0.64474 0.36836 0.0
H405 H 0.65962 0.63927 0.30565 0.0
H406 H 0.56674 0.61954 0.35435 0.0
H407 H 0.71716 0.65006 0.33122 0.0
H408 H 0.12319 0.91611 0.3895 0.0
H409 H 0.09748 0.95119 0.36764 0.0
H410 H 0.23324 0.98045 0.36521 0.0
H411 H 0.25932 0.94488 0.3865 0.0
H412 H 0.14674 0.01609 0.37464 0.0
H413 H 0.21731 0.95535 0.32726 0.0
H414 H 0.22577 0.9121 0.31375 0.0
H415 H 0.08507 0.90997 0.29818 0.0
H416 H 0.07563 0.95305 0.312 0.0
H417 H 0.11371 0.10915 0.29929 0.0
H418 H 0.14742 0.07543 0.31987 0.0
H419 H 0.04975 0.02265 0.29516 0.0
H420 H 0.01998 0.0559 0.27272 0.0
H421 H 0.11846 0.99825 0.30043 0.0
H422 H 0.04294 0.05619 0.34536 0.0
H423 H 0.0254 0.09738 0.36114 0.0
H424 H 0.16073 0.10298 0.38433 0.0
H425 H 0.17941 0.06216 0.36826 0.0
C426 C 0.14729 0.93025 0.38446 0.0
C427 C 0.19307 0.92803 0.38959 0.0
C428 C 0.13268 0.95014 0.37202 0.0
C429 C 0.16357 0.96825 0.36489 0.0
C430 C 0.20904 0.9666 0.37066 0.0
C431 C 0.22384 0.94639 0.38273 0.0
C432 C 0.14867 0.98821 0.35056 0.0
C433 C 0.14103 0.01245 0.35834 0.0
C434 C 0.13972 0.98294 0.32957 0.0
C435 C 0.14568 0.95729 0.32087 0.0
C436 C 0.1881 0.94556 0.32115 0.0
C437 C 0.19309 0.9211 0.3134 0.0
C438 C 0.15595 0.90826 0.30517 0.0
C439 C 0.11379 0.91991 0.30459 0.0
C440 C 0.10861 0.94435 0.31237 0.0
C441 C 0.10044 0.09013 0.29794 0.0
C442 C 0.06462 0.08486 0.2845 0.0
C443 C 0.11909 0.07095 0.30996 0.0
C444 C 0.1002 0.04655 0.30974 0.0
C445 C 0.06499 0.04125 0.29577 0.0
C446 C 0.04784 0.06019 0.28299 0.0
C447 C 0.11633 0.02673 0.32431 0.0
C448 C 0.12411 0.00228 0.31666 0.0
C449 C 0.12402 0.03168 0.34564 0.0
C450 C 0.1127 0.05622 0.35542 0.0
C451 C 0.06905 0.0663 0.35369 0.0
C452 C 0.05893 0.08961 0.36267 0.0
C453 C 0.092 0.10287 0.37363 0.0
C454 C 0.13521 0.09279 0.37573 0.0
C455 C 0.1456 0.06957 0.36668 0.0
H456 H 0.08413 0.12092 0.38056 0.0
H457 H 0.15987 0.88932 0.29918 0.0
H458 H 0.3741 0.57317 0.9056 0.0
H459 H 0.40033 0.53671 0.88598 0.0
H460 H 0.27897 0.53825 0.84926 0.0
H461 H 0.25151 0.57406 0.86945 0.0
H462 H 0.30134 0.49054 0.85822 0.0
H463 H 0.37781 0.56422 0.83159 0.0
H464 H 0.42467 0.60268 0.83393 0.0
H465 H 0.53505 0.55905 0.85744 0.0
H466 H 0.48862 0.52038 0.85551 0.0
H467 H 0.44692 0.44275 0.76647 0.0
H468 H 0.41443 0.47613 0.78773 0.0
H469 H 0.40925 0.42541 0.83985 0.0
H470 H 0.44131 0.39166 0.81848 0.0
H471 H 0.4492 0.49751 0.82271 0.0
H472 H 0.32085 0.43888 0.86767 0.0
H473 H 0.27363 0.40085 0.86267 0.0
H474 H 0.26357 0.41697 0.79779 0.0
H475 H 0.31111 0.45493 0.80238 0.0
C476 C 0.35259 0.56553 0.89358 0.0
C477 C 0.31074 0.57666 0.88904 0.0
C478 C 0.36785 0.5448 0.88225 0.0
C479 C 0.3419 0.53495 0.86596 0.0
C480 C 0.29963 0.54558 0.86172 0.0
C481 C 0.28421 0.56624 0.87312 0.0
C482 C 0.35953 0.51421 0.85284 0.0
C483 C 0.33371 0.49209 0.85051 0.0
C484 C 0.40156 0.51624 0.84255 0.0
C485 C 0.4296 0.53945 0.84359 0.0
C486 C 0.41197 0.56286 0.83739 0.0
C487 C 0.43847 0.5847 0.83863 0.0
C488 C 0.48277 0.58332 0.84588 0.0
C489 C 0.50071 0.5601 0.85186 0.0
C490 C 0.47433 0.53821 0.85068 0.0
C491 C 0.43812 0.43854 0.78236 0.0
C492 C 0.44607 0.4145 0.79077 0.0
C493 C 0.41996 0.45771 0.79452 0.0
C494 C 0.40923 0.45321 0.81531 0.0
C495 C 0.41684 0.42918 0.82376 0.0
C496 C 0.43523 0.40997 0.81159 0.0
C497 C 0.39115 0.47393 0.82823 0.0
C498 C 0.41694 0.49599 0.83053 0.0
C499 C 0.3489 0.47203 0.83819 0.0
C500 C 0.31952 0.44964 0.83538 0.0
C501 C 0.30837 0.43433 0.85236 0.0
C502 C 0.28177 0.41274 0.84958 0.0
C503 C 0.26577 0.40646 0.8299 0.0
C504 C 0.27627 0.42177 0.81298 0.0
C505 C 0.30313 0.44327 0.81565 0.0
H506 H 0.24516 0.38975 0.82777 0.0
H507 H 0.50323 0.60025 0.84682 0.0
H508 H 0.76288 0.56947 0.6393 0.0
H509 H 0.73674 0.53297 0.65938 0.0
H510 H 0.6052 0.53922 0.63144 0.0
H511 H 0.63113 0.57569 0.61135 0.0
H512 H 0.60425 0.5351 0.67511 0.0
H513 H 0.67124 0.49381 0.61592 0.0
H514 H 0.73277 0.48445 0.59149 0.0
H515 H 0.81553 0.45855 0.6416 0.0
H516 H 0.75468 0.46808 0.66637 0.0
H517 H 0.5013 0.42425 0.70972 0.0
H518 H 0.53238 0.45735 0.68782 0.0
H519 H 0.66683 0.43759 0.70735 0.0
H520 H 0.636 0.40309 0.72805 0.0
H521 H 0.66932 0.4493 0.66892 0.0
H522 H 0.60655 0.48918 0.7283 0.0
H523 H 0.54824 0.49881 0.75425 0.0
H524 H 0.46283 0.52895 0.70675 0.0
H525 H 0.52033 0.5191 0.68044 0.0
C526 C 0.72843 0.563 0.63745 0.0
C527 C 0.699 0.57535 0.62379 0.0
C528 C 0.71364 0.54212 0.64882 0.0
C529 C 0.66913 0.5334 0.6468 0.0
C530 C 0.63971 0.54568 0.63316 0.0
C531 C 0.65461 0.56637 0.62163 0.0
C532 C 0.65273 0.51191 0.65937 0.0
C533 C 0.61802 0.51624 0.67361 0.0
C534 C 0.67201 0.48762 0.65791 0.0
C535 C 0.70858 0.4819 0.64301 0.0
C536 C 0.70271 0.48633 0.62175 0.0
C537 C 0.73743 0.48095 0.60784 0.0
C538 C 0.77808 0.47098 0.61499 0.0
C539 C 0.78405 0.46631 0.63608 0.0
C540 C 0.74945 0.47167 0.65005 0.0
C541 C 0.53754 0.42681 0.7093 0.0
C542 C 0.56612 0.41149 0.72121 0.0
C543 C 0.55526 0.44591 0.69686 0.0
C544 C 0.60187 0.4506 0.69648 0.0
C545 C 0.63068 0.4346 0.70761 0.0
C546 C 0.61298 0.41503 0.71966 0.0
C547 C 0.62026 0.47232 0.6846 0.0
C548 C 0.65549 0.46812 0.67053 0.0
C549 C 0.60206 0.49692 0.68653 0.0
C550 C 0.56763 0.50321 0.70236 0.0
C551 C 0.57523 0.49773 0.72336 0.0
C552 C 0.54232 0.50323 0.73814 0.0
C553 C 0.50182 0.51445 0.73215 0.0
C554 C 0.4942 0.52025 0.71137 0.0
C555 C 0.52695 0.51472 0.69651 0.0
H556 H 0.47637 0.51868 0.74361 0.0
H557 H 0.80491 0.46681 0.6042 0.0
H558 H 0.75675 0.92333 0.14909 0.0
H559 H 0.78543 0.9579 0.16984 0.0
H560 H 0.88607 0.9738 0.12339 0.0
H561 H 0.86195 0.93707 0.10399 0.0
H562 H 0.92391 0.97862 0.15662 0.0
H563 H 0.78134 0.01097 0.1335 0.0
H564 H 0.69897 0.01095 0.12822 0.0
H565 H 0.67821 0.00725 0.19385 0.0
H566 H 0.76045 0.00699 0.19951 0.0
H567 H 0.96752 0.10561 0.19413 0.0
H568 H 0.93774 0.07102 0.17264 0.0
H569 H 0.88655 0.03423 0.22733 0.0
H570 H 0.92005 0.06752 0.24878 0.0
H571 H 0.82379 0.04105 0.19024 0.0
H572 H 0.97062 0.01209 0.21158 0.0
H573 H 0.0533 0.0124 0.21486 0.0
H574 H 0.06659 0.01103 0.14877 0.0
H575 H 0.98392 0.01179 0.14505 0.0
C576 C 0.78562 0.93372 0.14337 0.0
C577 C 0.8069 0.92697 0.1247 0.0
C578 C 0.80135 0.95407 0.15512 0.0
C579 C 0.83738 0.96906 0.14806 0.0
C580 C 0.85811 0.96271 0.12925 0.0
C581 C 0.84359 0.94178 0.1179 0.0
C582 C 0.85505 0.99053 0.16066 0.0
C583 C 0.9019 0.99255 0.16355 0.0
C584 C 0.82652 0.00846 0.17029 0.0
C585 C 0.77705 0.00876 0.16691 0.0
C586 C 0.7592 0.01002 0.14679 0.0
C587 C 0.71254 0.01007 0.14374 0.0
C588 C 0.68338 0.00904 0.16069 0.0
C589 C 0.70083 0.00803 0.18074 0.0
C590 C 0.74745 0.00797 0.18388 0.0
C591 C 0.95031 0.08995 0.20148 0.0
C592 C 0.94557 0.08922 0.22305 0.0
C593 C 0.93312 0.07037 0.18925 0.0
C594 C 0.91008 0.05012 0.19845 0.0
C595 C 0.90407 0.0498 0.21997 0.0
C596 C 0.92242 0.06901 0.2322 0.0
C597 C 0.89229 0.02919 0.18566 0.0
C598 C 0.84554 0.02725 0.18293 0.0
C599 C 0.921 0.01173 0.17574 0.0
C600 C 0.97085 0.01251 0.17805 0.0
C601 C 0.99105 0.01248 0.19773 0.0
C602 C 0.038 0.01233 0.19967 0.0
C603 C 0.0652 0.01177 0.18204 0.0
C604 C 0.0455 0.01143 0.16242 0.0
C605 C 0.99858 0.01188 0.1604 0.0
H606 H 0.10153 0.01158 0.18358 0.0
H607 H 0.64727 0.00907 0.15829 0.0
H608 H 0.78098 0.04846 0.60299 0.0
H609 H 0.80662 0.01192 0.62317 0.0
H610 H 0.87697 0.06181 0.66497 0.0
H611 H 0.85096 0.09831 0.64506 0.0
H612 H 0.92887 0.02039 0.65186 0.0
H613 H 0.78492 0.03847 0.6809 0.0
H614 H 0.70313 0.0464 0.68112 0.0
H615 H 0.6786 0.9723 0.65659 0.0
H616 H 0.76042 0.96408 0.65587 0.0
H617 H 0.95503 0.94365 0.74185 0.0
H618 H 0.92392 0.97626 0.71928 0.0
H619 H 0.89411 0.92003 0.67302 0.0
H620 H 0.92661 0.88719 0.69542 0.0
H621 H 0.82117 0.96266 0.687 0.0
H622 H 0.96949 0.94571 0.65867 0.0
H623 H 0.05161 0.93939 0.66103 0.0
H624 H 0.06757 0.01349 0.68696 0.0
H625 H 0.98531 0.02001 0.68523 0.0
C626 C 0.802 0.05154 0.61647 0.0
C627 C 0.8139 0.07614 0.62256 0.0
C628 C 0.81644 0.03073 0.62799 0.0
C629 C 0.84353 0.03422 0.64558 0.0
C630 C 0.85607 0.05875 0.65145 0.0
C631 C 0.84104 0.07954 0.64016 0.0
C632 C 0.85886 0.01231 0.65792 0.0
C633 C 0.9053 0.00783 0.65959 0.0
C634 C 0.82806 0.99584 0.66787 0.0
C635 C 0.77887 1.0008 0.66803 0.0
C636 C 0.76215 0.02398 0.67529 0.0
C637 C 0.71577 0.02851 0.67556 0.0
C638 C 0.68569 0.0099 0.66879 0.0
C639 C 0.70195 0.98672 0.66177 0.0
C640 C 0.74834 0.98212 0.66142 0.0
C641 C 0.94133 0.93816 0.72698 0.0
C642 C 0.94298 0.9129 0.72036 0.0
C643 C 0.92375 0.9568 0.71411 0.0
C644 C 0.90686 0.95046 0.69456 0.0
C645 C 0.90701 0.92517 0.68812 0.0
C646 C 0.9256 0.90652 0.70084 0.0
C647 C 0.89097 0.97066 0.68065 0.0
C648 C 0.84454 0.97499 0.67891 0.0
C649 C 0.92175 0.98717 0.67081 0.0
C650 C 0.97117 0.98323 0.67204 0.0
C651 C 0.99042 0.96053 0.66514 0.0
C652 C 0.03702 0.95694 0.66628 0.0
C653 C 0.0648 0.97606 0.67408 0.0
C654 C 0.04601 0.99874 0.68086 0.0
C655 C 0.99939 0.00237 0.67983 0.0
H656 H 0.10087 0.97325 0.67495 0.0
H657 H 0.64978 0.01342 0.66906 0.0
H658 H 0.72382 0.4539 0.10433 0.0
H659 H 0.69694 0.49033 0.12426 0.0
H660 H 0.63403 0.44 0.16813 0.0
H661 H 0.66142 0.40358 0.14844 0.0
H662 H 0.57793 0.48024 0.15425 0.0
H663 H 0.72447 0.46565 0.18245 0.0
H664 H 0.8067 0.45929 0.18164 0.0
H665 H 0.82491 0.533 0.15527 0.0
H666 H 0.74261 0.53962 0.15557 0.0
H667 H 0.55212 0.55945 0.24311 0.0
H668 H 0.58313 0.52654 0.2208 0.0
H669 H 0.60802 0.58168 0.1731 0.0
H670 H 0.57551 0.61479 0.19522 0.0
H671 H 0.68355 0.5408 0.18749 0.0
H672 H 0.53451 0.55463 0.15945 0.0
H673 H 0.45199 0.5596 0.16084 0.0
H674 H 0.43878 0.48604 0.18807 0.0
H675 H 0.52142 0.48088 0.18728 0.0
C676 C 0.70419 0.4507 0.11822 0.0
C677 C 0.69474 0.42604 0.12495 0.0
C678 C 0.68904 0.47144 0.12959 0.0
C679 C 0.66369 0.46778 0.14767 0.0
C680 C 0.6536 0.44316 0.15422 0.0
C681 C 0.66939 0.42243 0.14306 0.0
C682 C 0.64759 0.48965 0.15977 0.0
C683 C 0.601 0.49339 0.16162 0.0
C684 C 0.67783 0.50696 0.1691 0.0
C685 C 0.72731 0.50299 0.16876 0.0
C686 C 0.74594 0.48038 0.17623 0.0
C687 C 0.79258 0.47676 0.17592 0.0
C688 C 0.82101 0.49569 0.16833 0.0
C689 C 0.80284 0.51832 0.16109 0.0
C690 C 0.75619 0.52202 0.16132 0.0
C691 C 0.56467 0.56464 0.22796 0.0
C692 C 0.56162 0.58964 0.22085 0.0
C693 C 0.58214 0.54582 0.21524 0.0
C694 C 0.59758 0.55177 0.19536 0.0
C695 C 0.59611 0.57685 0.18843 0.0
C696 C 0.57758 0.59564 0.20101 0.0
C697 C 0.614 0.53143 0.18177 0.0
C698 C 0.66059 0.52782 0.17985 0.0
C699 C 0.5838 0.51416 0.17244 0.0
C700 C 0.53422 0.51751 0.17355 0.0
C701 C 0.5141 0.53968 0.16605 0.0
C702 C 0.46727 0.54247 0.16661 0.0
C703 C 0.44014 0.5231 0.17445 0.0
C704 C 0.45983 0.50099 0.18192 0.0
C705 C 0.50667 0.49814 0.18145 0.0
H706 H 0.40389 0.52529 0.17486 0.0
H707 H 0.85712 0.49287 0.16813 0.0
H708 H 0.23655 0.44007 0.38192 0.0
H709 H 0.26166 0.4771 0.36227 0.0
H710 H 0.40021 0.45852 0.37585 0.0
H711 H 0.37479 0.42248 0.39651 0.0
H712 H 0.39334 0.50595 0.37755 0.0
H713 H 0.34404 0.44433 0.32782 0.0
H714 H 0.2904 0.41445 0.31185 0.0
H715 H 0.19834 0.47508 0.29999 0.0
H716 H 0.25121 0.50528 0.31616 0.0
H717 H 0.50253 0.56788 0.29474 0.0
H718 H 0.46921 0.53595 0.31719 0.0
H719 H 0.33895 0.57089 0.31053 0.0
H720 H 0.37224 0.60334 0.28825 0.0
H721 H 0.33748 0.5179 0.3059 0.0
H722 H 0.39594 0.57988 0.35359 0.0
H723 H 0.45535 0.60772 0.36762 0.0
H724 H 0.53739 0.54326 0.38121 0.0
H725 H 0.47882 0.51504 0.36692 0.0
C726 C 0.2723 0.4441 0.38074 0.0
C727 C 0.30385 0.42852 0.39056 0.0
C728 C 0.28669 0.46513 0.36944 0.0
C729 C 0.33296 0.47037 0.36715 0.0
C730 C 0.36437 0.45495 0.37733 0.0
C731 C 0.34991 0.43432 0.38906 0.0
C732 C 0.34891 0.49155 0.35387 0.0
C733 C 0.38134 0.50836 0.36183 0.0
C734 C 0.33289 0.49508 0.33341 0.0
C735 C 0.30137 0.47702 0.32339 0.0
C736 C 0.31225 0.45127 0.32191 0.0
C737 C 0.282 0.43427 0.31282 0.0
C738 C 0.24093 0.44285 0.30497 0.0
C739 C 0.23013 0.46846 0.30611 0.0
C740 C 0.26023 0.48553 0.31522 0.0
C741 C 0.46678 0.56888 0.29802 0.0
C742 C 0.43994 0.58808 0.28951 0.0
C743 C 0.44783 0.5506 0.3109 0.0
C744 C 0.40171 0.55117 0.31561 0.0
C745 C 0.37464 0.57014 0.30704 0.0
C746 C 0.39369 0.58861 0.29425 0.0
C747 C 0.38206 0.53189 0.32956 0.0
C748 C 0.34903 0.5155 0.3217 0.0
C749 C 0.39829 0.5284 0.34992 0.0
C750 C 0.43304 0.54534 0.35906 0.0
C751 C 0.42674 0.57164 0.35947 0.0
C752 C 0.46027 0.58749 0.36747 0.0
C753 C 0.50014 0.57727 0.37529 0.0
C754 C 0.50649 0.55116 0.37516 0.0
C755 C 0.47311 0.53522 0.36713 0.0
H756 H 0.52607 0.58957 0.38147 0.0
H757 H 0.21752 0.42966 0.29796 0.0
H758 H 0.26642 0.05707 0.88867 0.0
H759 H 0.24032 0.02017 0.86904 0.0
H760 H 0.10727 0.05268 0.86517 0.0
H761 H 0.13304 0.08885 0.88578 0.0
H762 H 0.09889 0.00528 0.8721 0.0
H763 H 0.18904 0.05372 0.82399 0.0
H764 H 0.25806 0.07531 0.81198 0.0
H765 H 0.33098 0.00559 0.8153 0.0
H766 H 0.26252 0.98365 0.82759 0.0
H767 H 0.00661 0.93815 0.78917 0.0
H768 H 0.03994 0.97074 0.81079 0.0
H769 H 0.16355 0.92831 0.81433 0.0
H770 H 0.13052 0.89557 0.79208 0.0
H771 H 0.18044 0.97769 0.80911 0.0
H772 H 0.08724 0.92881 0.85477 0.0
H773 H 0.01681 0.90761 0.86543 0.0
H774 H 0.94816 0.97878 0.86577 0.0
H775 H 0.01801 1.00038 0.85482 0.0
C776 C 0.23163 0.05615 0.8836 0.0
C777 C 0.20165 0.07563 0.88851 0.0
C778 C 0.21677 0.03521 0.8723 0.0
C779 C 0.17198 0.0338 0.86521 0.0
C780 C 0.14197 0.05329 0.8704 0.0
C781 C 0.15663 0.07396 0.88206 0.0
C782 C 0.15621 0.01215 0.85238 0.0
C783 C 0.11654 0.99945 0.85822 0.0
C784 C 0.17981 0.00397 0.83454 0.0
C785 C 0.22079 0.0171 0.82689 0.0
C786 C 0.21986 0.04303 0.82226 0.0
C787 C 0.25887 0.05532 0.8154 0.0
C788 C 0.2989 0.04184 0.81292 0.0
C789 C 0.29997 0.01601 0.81724 0.0
C790 C 0.26107 0.00364 0.82415 0.0
C791 C 0.0409 0.93561 0.79453 0.0
C792 C 0.06583 0.91413 0.78902 0.0
C793 C 0.05986 0.95429 0.80699 0.0
C794 C 0.10388 0.95173 0.8146 0.0
C795 C 0.12936 0.93058 0.80877 0.0
C796 C 0.11045 0.91188 0.79609 0.0
C797 C 0.12284 0.97123 0.82867 0.0
C798 C 0.16307 0.98345 0.82309 0.0
C799 C 0.09964 0.97907 0.84669 0.0
C800 C 0.05787 0.9662 0.85387 0.0
C801 C 0.05709 0.93994 0.85705 0.0
C802 C 0.01725 0.92784 0.86314 0.0
C803 C 0.97801 0.94183 0.86625 0.0
C804 C 0.97858 0.96797 0.86336 0.0
C805 C 0.01831 0.98015 0.85725 0.0
H806 H 0.94719 0.93243 0.87092 0.0
H807 H 0.32907 0.0514 0.80762 0.0
H808 H 0.27573 0.13106 0.9654 0.0
H809 H 0.25515 0.13345 1.00208 0.0
H810 H 0.11595 0.11956 0.98632 0.0
H811 H 0.13638 0.11704 0.94965 0.0
H812 H 0.12839 0.15886 0.01561 0.0
H813 H 0.17242 0.07283 1.00399 0.0
H814 H 0.22276 0.03868 0.99251 0.0
H815 H 0.32409 0.06361 0.0354 0.0
H816 H 0.27454 0.09817 0.04693 0.0
H817 H 0.03502 0.11026 0.10919 0.0
H818 H 0.06135 0.11796 0.07381 0.0
H819 H 0.19551 0.13243 0.09678 0.0
H820 H 0.16905 0.12512 0.1323 0.0
H821 H 0.19055 0.0959 0.06462 0.0
H822 H 0.14321 0.17994 0.0784 0.0
H823 H 0.09223 0.21381 0.0898 0.0
H824 H 0.99651 0.19254 0.04307 0.0
H825 H 0.04666 0.15826 0.03157 0.0
C826 C 0.24072 0.12874 0.96978 0.0
C827 C 0.20765 0.12377 0.95474 0.0
C828 C 0.22905 0.13001 0.9907 0.0
C829 C 0.18407 0.12658 0.99688 0.0
C830 C 0.15083 0.12228 0.98184 0.0
C831 C 0.16256 0.12068 0.96096 0.0
C832 C 0.17183 0.12669 0.01908 0.0
C833 C 0.14164 0.14499 0.02632 0.0
C834 C 0.19005 0.10895 0.03309 0.0
C835 C 0.22002 0.08828 0.02612 0.0
C836 C 0.20563 0.0712 0.01081 0.0
C837 C 0.23397 0.05173 1.00433 0.0
C838 C 0.27666 0.04903 0.01317 0.0
C839 C 0.29105 0.06576 0.02854 0.0
C840 C 0.26285 0.08529 0.03506 0.0
C841 C 0.06999 0.11535 0.10667 0.0
C842 C 0.10009 0.117 0.12339 0.0
C843 C 0.08494 0.11986 0.08652 0.0
C844 C 0.13034 0.12579 0.08272 0.0
C845 C 0.16032 0.12792 0.09943 0.0
C846 C 0.14519 0.12384 0.11965 0.0
C847 C 0.14682 0.12797 0.06117 0.0
C848 C 0.17769 0.11 0.054 0.0
C849 C 0.12911 0.14598 0.04725 0.0
C850 C 0.09852 0.16634 0.05426 0.0
C851 C 0.11107 0.18229 0.0707 0.0
C852 C 0.08237 0.20161 0.07714 0.0
C853 C 0.0411 0.20528 0.0672 0.0
C854 C 0.02847 0.18965 0.05077 0.0
C855 C 0.05704 0.17028 0.04427 0.0
H856 H 0.01896 0.22028 0.07219 0.0
H857 H 0.29854 0.03392 0.00815 0.0
H858 H 0.27112 0.41459 0.46417 0.0
H859 H 0.29269 0.41204 0.50054 0.0
H860 H 0.35547 0.33995 0.4893 0.0
H861 H 0.33217 0.34208 0.45293 0.0
H862 H 0.31405 0.33787 0.52406 0.0
H863 H 0.41798 0.39677 0.49516 0.0
H864 H 0.44272 0.43408 0.47532 0.0
H865 H 0.37031 0.48247 0.51682 0.0
H866 H 0.34461 0.44542 0.53675 0.0
H867 H 0.41503 0.34133 0.62419 0.0
H868 H 0.41307 0.34335 0.58617 0.0
H869 H 0.32146 0.40626 0.58947 0.0
H870 H 0.32296 0.40402 0.6273 0.0
H871 H 0.38798 0.4111 0.55809 0.0
H872 H 0.27904 0.34999 0.5844 0.0
H873 H 0.25737 0.31206 0.60419 0.0
H874 H 0.34551 0.2669 0.56686 0.0
H875 H 0.36821 0.30468 0.54705 0.0
C876 C 0.28951 0.39821 0.46951 0.0
C877 C 0.30032 0.37861 0.45578 0.0
C878 C 0.30212 0.39682 0.49025 0.0
C879 C 0.32685 0.37612 0.4976 0.0
C880 C 0.33673 0.35621 0.48398 0.0
C881 C 0.3234 0.3574 0.46325 0.0
C882 C 0.34163 0.37519 0.51956 0.0
C883 C 0.33106 0.35371 0.53134 0.0
C884 C 0.36353 0.3959 0.52923 0.0
C885 C 0.37913 0.41828 0.51737 0.0
C886 C 0.40711 0.41535 0.49998 0.0
C887 C 0.42133 0.43646 0.48873 0.0
C888 C 0.40804 0.46062 0.49479 0.0
C889 C 0.38057 0.46373 0.51214 0.0
C890 C 0.36622 0.44269 0.52344 0.0
C891 C 0.39538 0.35589 0.6167 0.0
C892 C 0.36905 0.3725 0.62846 0.0
C893 C 0.39412 0.35698 0.59508 0.0
C894 C 0.3668 0.37482 0.58508 0.0
C895 C 0.34274 0.39238 0.59691 0.0
C896 C 0.34353 0.39108 0.61844 0.0
C897 C 0.35987 0.374 0.56242 0.0
C898 C 0.37174 0.39516 0.55059 0.0
C899 C 0.33975 0.35289 0.55265 0.0
C900 C 0.3257 0.33018 0.56441 0.0
C901 C 0.29406 0.332 0.58052 0.0
C902 C 0.28155 0.31053 0.59173 0.0
C903 C 0.30015 0.28709 0.58683 0.0
C904 C 0.3312 0.28507 0.57067 0.0
C905 C 0.34388 0.3065 0.55945 0.0
H906 H 0.29043 0.27049 0.59552 0.0
H907 H 0.41908 0.47693 0.48605 0.0
H908 H 0.63795 0.36377 0.06486 0.0
H909 H 0.61663 0.36122 0.02823 0.0
H910 H 0.74738 0.39037 0.01094 0.0
H911 H 0.76858 0.3929 0.04768 0.0
H912 H 0.6777 0.41307 0.98925 0.0
H913 H 0.72632 0.32901 1.00593 0.0
H914 H 0.72705 0.2895 0.02607 0.0
H915 H 0.58693 0.27748 0.01239 0.0
H916 H 0.58521 0.31713 0.9924 0.0
H917 H 0.68155 0.37301 0.88331 0.0
H918 H 0.69245 0.3854 0.9195 0.0
H919 H 0.5669 0.34892 0.93562 0.0
H920 H 0.55675 0.3361 0.8995 0.0
H921 H 0.63194 0.33123 0.95834 0.0
H922 H 0.5831 0.41405 0.94035 0.0
H923 H 0.581 0.45397 0.9208 0.0
H924 H 0.71894 0.46889 0.93699 0.0
H925 H 0.7221 0.42887 0.95641 0.0
C926 C 0.66207 0.36945 0.05315 0.0
C927 C 0.70494 0.37824 0.05885 0.0
C928 C 0.64994 0.36804 0.03231 0.0
C929 C 0.68054 0.37545 0.01685 0.0
C930 C 0.7233 0.38455 0.02261 0.0
C931 C 0.7355 0.38582 0.04349 0.0
C932 C 0.66804 0.37334 0.99469 0.0
C933 C 0.66817 0.39516 0.98237 0.0
C934 C 0.65449 0.35008 0.98591 0.0
C935 C 0.65553 0.32616 0.99784 0.0
C936 C 0.69557 0.31804 0.00735 0.0
C937 C 0.69618 0.29561 0.01872 0.0
C938 C 0.65703 0.28102 0.02055 0.0
C939 C 0.61722 0.28882 0.01098 0.0
C940 C 0.61641 0.31126 0.99962 0.0
C941 C 0.65553 0.36858 0.8945 0.0
C942 C 0.61808 0.35393 0.88872 0.0
C943 C 0.66176 0.37558 0.91518 0.0
C944 C 0.63049 0.36809 0.93036 0.0
C945 C 0.59151 0.35489 0.92423 0.0
C946 C 0.58546 0.34778 0.9036 0.0
C947 C 0.64117 0.37104 0.95272 0.0
C948 C 0.64105 0.34927 0.96513 0.0
C949 C 0.65454 0.39437 0.96153 0.0
C950 C 0.65296 0.41831 0.94966 0.0
C951 C 0.61314 0.42571 0.93957 0.0
C952 C 0.61172 0.44839 0.92855 0.0
C953 C 0.64985 0.46392 0.92761 0.0
C954 C 0.68946 0.45682 0.93771 0.0
C955 C 0.69106 0.43415 0.94874 0.0
H956 H 0.64866 0.48149 0.91909 0.0
H957 H 0.65757 0.26366 0.02936 0.0
H958 H 0.84063 0.15886 0.55977 0.0
H959 H 0.86072 0.16268 0.52327 0.0
H960 H 0.78814 0.09375 0.50999 0.0
H961 H 0.77021 0.08923 0.54689 0.0
H962 H 0.85976 0.09436 0.48761 0.0
H963 H 0.74412 0.1554 0.49956 0.0
H964 H 0.70682 0.19098 0.5171 0.0
H965 H 0.81935 0.23915 0.50284 0.0
H966 H 0.85757 0.20378 0.48543 0.0
H967 H 0.84575 0.12813 0.37798 0.0
H968 H 0.83399 0.11396 0.41385 0.0
H969 H 0.91633 0.17577 0.43567 0.0
H970 H 0.92737 0.19004 0.40012 0.0
H971 H 0.83438 0.17638 0.45273 0.0
H972 H 0.94897 0.11358 0.43994 0.0
H973 H 0.98336 0.07722 0.42223 0.0
H974 H 0.86792 0.03152 0.43702 0.0
H975 H 0.83249 0.06773 0.45453 0.0
C976 C 0.82887 0.1446 0.54901 0.0
C977 C 0.80338 0.12395 0.55603 0.0
C978 C 0.8402 0.14681 0.52813 0.0
C979 C 0.82497 0.12887 0.51366 0.0
C980 C 0.80012 0.10794 0.52076 0.0
C981 C 0.78968 0.10541 0.54179 0.0
C982 C 0.83466 0.13223 0.49118 0.0
C983 C 0.85361 0.11219 0.4799 0.0
C984 C 0.82697 0.15551 0.48102 0.0
C985 C 0.80382 0.17689 0.49131 0.0
C986 C 0.76099 0.17355 0.50025 0.0
C987 C 0.73969 0.19368 0.51017 0.0
C988 C 0.76073 0.2173 0.51112 0.0
C989 C 0.80309 0.22085 0.5021 0.0
C990 C 0.82456 0.20078 0.49219 0.0
C991 C 0.86229 0.13818 0.39045 0.0
C992 C 0.88709 0.1603 0.38638 0.0
C993 C 0.85557 0.13011 0.41092 0.0
C994 C 0.87399 0.14393 0.4275 0.0
C995 C 0.90146 0.16492 0.42319 0.0
C996 C 0.90784 0.17304 0.40288 0.0
C997 C 0.86067 0.13879 0.4493 0.0
C998 C 0.84051 0.15851 0.46041 0.0
C999 C 0.8667 0.11514 0.45909 0.0
C1000 C 0.88782 0.09348 0.44832 0.0
C1001 C 0.93067 0.09587 0.43921 0.0
C1002 C 0.95041 0.07526 0.42925 0.0
C1003 C 0.92778 0.0521 0.42844 0.0
C1004 C 0.88537 0.04949 0.43761 0.0
C1005 C 0.86546 0.07005 0.44756 0.0
H1006 H 0.94315 0.03616 0.42076 0.0
H1007 H 0.74419 0.23286 0.51881 0.0
H1008 H 0.81958 0.84217 0.05809 0.0
H1009 H 0.84035 0.84087 0.02151 0.0
H1010 H 0.7938 0.91735 0.01396 0.0
H1011 H 0.77159 0.91849 0.05036 0.0
H1012 H 0.76743 0.88837 0.98228 0.0
H1013 H 0.90625 0.90415 0.01854 0.0
H1014 H 0.96574 0.89598 0.04428 0.0
H1015 H 0.99235 0.82409 0.01627 0.0
H1016 H 0.93255 0.83169 0.99051 0.0
H1017 H 0.86448 0.91429 0.88595 0.0
H1018 H 0.85697 0.91691 0.92369 0.0
H1019 H 0.88831 0.83771 0.92873 0.0
H1020 H 0.89538 0.83508 0.89095 0.0
H1021 H 0.92432 0.86801 0.96161 0.0
H1022 H 0.78484 0.85149 0.92621 0.0
H1023 H 0.72619 0.85941 0.90003 0.0
H1024 H 0.70083 0.93227 0.92657 0.0
H1025 H 0.76002 0.92496 0.9527 0.0
C1026 C 0.81313 0.85858 0.04856 0.0
C1027 C 0.7941 0.88048 0.05715 0.0
C1028 C 0.82551 0.85791 0.02772 0.0
C1029 C 0.81936 0.87917 0.01509 0.0
C1030 C 0.79916 0.90079 0.02346 0.0
C1031 C 0.78673 0.90146 0.04429 0.0
C1032 C 0.83394 0.87895 0.99315 0.0
C1033 C 0.8019 0.88428 0.97782 0.0
C1034 C 0.87868 0.873 0.98726 0.0
C1035 C 0.91462 0.86839 1.00273 0.0
C1036 C 0.92453 0.88651 0.01797 0.0
C1037 C 0.95835 0.882 0.03255 0.0
C1038 C 0.98273 0.8595 0.03195 0.0
C1039 C 0.9734 0.84149 0.01673 0.0
C1040 C 0.93957 0.8459 1.00213 0.0
C1041 C 0.87131 0.89773 0.89525 0.0
C1042 C 0.88078 0.87454 0.88579 0.0
C1043 C 0.86676 0.89917 0.91671 0.0
C1044 C 0.87159 0.87742 0.92891 0.0
C1045 C 0.88454 0.85468 0.91956 0.0
C1046 C 0.88867 0.85319 0.89807 0.0
C1047 C 0.85794 0.87771 0.95092 0.0
C1048 C 0.88999 0.87225 0.96618 0.0
C1049 C 0.81319 0.88346 0.95679 0.0
C1050 C 0.77722 0.8878 0.94126 0.0
C1051 C 0.76704 0.86929 0.92635 0.0
C1052 C 0.73366 0.87366 0.91154 0.0
C1053 C 0.70988 0.89636 0.9116 0.0
C1054 C 0.71935 0.91472 0.92652 0.0
C1055 C 0.75281 0.91047 0.94133 0.0
H1056 H 0.68403 0.8997 0.90012 0.0
H1057 H 0.00892 0.85605 0.04324 0.0
H1058 H 0.67292 0.6598 0.56032 0.0
H1059 H 0.65144 0.66145 0.52363 0.0
H1060 H 0.71795 0.59035 0.5132 0.0
H1061 H 0.73886 0.58845 0.54984 0.0
H1062 H 0.73813 0.62922 0.48353 0.0
H1063 H 0.61146 0.58845 0.51654 0.0
H1064 H 0.54995 0.58489 0.54201 0.0
H1065 H 0.49015 0.65263 0.51826 0.0
H1066 H 0.55176 0.6568 0.49283 0.0
H1067 H 0.66669 0.59338 0.38626 0.0
H1068 H 0.67265 0.59129 0.42397 0.0
H1069 H 0.59356 0.65915 0.42921 0.0
H1070 H 0.58702 0.66098 0.39129 0.0
H1071 H 0.57772 0.62472 0.46174 0.0
H1072 H 0.7019 0.66556 0.42842 0.0
H1073 H 0.76261 0.6698 0.40262 0.0
H1074 H 0.82738 0.60394 0.42713 0.0
H1075 H 0.76655 0.59903 0.45286 0.0
C1076 C 0.6832 0.64467 0.55011 0.0
C1077 C 0.70747 0.62399 0.55781 0.0
C1078 C 0.67072 0.64555 0.52926 0.0
C1079 C 0.6829 0.62593 0.51582 0.0
C1080 C 0.70818 0.60562 0.52338 0.0
C1081 C 0.71999 0.60453 0.54425 0.0
C1082 C 0.66929 0.62644 0.49381 0.0
C1083 C 0.70311 0.628 0.47875 0.0
C1084 C 0.62351 0.62556 0.48768 0.0
C1085 C 0.58651 0.62311 0.50296 0.0
C1086 C 0.58546 0.60274 0.51689 0.0
C1087 C 0.55052 0.60057 0.53129 0.0
C1088 C 0.51624 0.61857 0.5318 0.0
C1089 C 0.51678 0.63873 0.51788 0.0
C1090 C 0.55168 0.641 0.50346 0.0
C1091 C 0.64932 0.60731 0.39555 0.0
C1092 C 0.62641 0.62731 0.3861 0.0
C1093 C 0.65293 0.60621 0.41702 0.0
C1094 C 0.63431 0.62535 0.42931 0.0
C1095 C 0.60825 0.64426 0.41996 0.0
C1096 C 0.60444 0.64528 0.39839 0.0
C1097 C 0.64665 0.62707 0.45147 0.0
C1098 C 0.6127 0.62605 0.46653 0.0
C1099 C 0.69238 0.6287 0.45767 0.0
C1100 C 0.72945 0.6318 0.44245 0.0
C1101 C 0.72892 0.65188 0.42822 0.0
C1102 C 0.76337 0.65441 0.41361 0.0
C1103 C 0.79879 0.63712 0.4132 0.0
C1104 C 0.79989 0.6173 0.42745 0.0
C1105 C 0.76544 0.61464 0.44205 0.0
H1106 H 0.82543 0.63911 0.40188 0.0
H1107 H 0.48919 0.61685 0.54295 0.0
H1108 H 0.32928 0.66189 0.95372 0.0
H1109 H 0.35023 0.6637 0.99037 0.0
H1110 H 0.29314 0.58959 0.99974 0.0
H1111 H 0.27227 0.58765 0.96307 0.0
H1112 H 0.26913 0.62484 0.03053 0.0
H1113 H 0.4013 0.59334 0.99739 0.0
H1114 H 0.46241 0.59269 0.97158 0.0
H1115 H 0.51019 0.66452 0.9934 0.0
H1116 H 0.44889 0.66579 0.01915 0.0
H1117 H 0.35284 0.61973 0.13287 0.0
H1118 H 0.34381 0.60574 0.09684 0.0
H1119 H 0.40676 0.67463 0.07572 0.0
H1120 H 0.41619 0.68837 0.11152 0.0
H1121 H 0.42925 0.63609 0.05098 0.0
H1122 H 0.29279 0.67003 0.08088 0.0
H1123 H 0.23102 0.67184 0.10635 0.0
H1124 H 0.19068 0.59646 0.09014 0.0
H1125 H 0.25269 0.59408 0.06477 0.0
C1126 C 0.32082 0.64611 0.96365 0.0
C1127 C 0.29923 0.62461 0.95557 0.0
C1128 C 0.33309 0.64707 0.98452 0.0
C1129 C 0.32364 0.62665 0.9977 0.0
C1130 C 0.30091 0.60548 0.9898 0.0
C1131 C 0.28915 0.60437 0.96888 0.0
C1132 C 0.33761 0.62747 0.01972 0.0
C1133 C 0.3042 0.62682 0.03504 0.0
C1134 C 0.38331 0.63041 0.02555 0.0
C1135 C 0.42023 0.62976 0.01008 0.0
C1136 C 0.42458 0.60911 0.99657 0.0
C1137 C 0.4593 0.60861 0.98197 0.0
C1138 C 0.4901 0.62858 0.98082 0.0
C1139 C 0.48628 0.64908 0.9943 0.0
C1140 C 0.45157 0.64969 0.00891 0.0
C1141 C 0.36601 0.63142 0.12051 0.0
C1142 C 0.38487 0.65518 0.12487 0.0
C1143 C 0.3605 0.62356 0.09996 0.0
C1144 C 0.37376 0.6394 0.08356 0.0
C1145 C 0.39605 0.66215 0.08806 0.0
C1146 C 0.40138 0.67 0.10851 0.0
C1147 C 0.36071 0.63382 0.06183 0.0
C1148 C 0.39424 0.63368 0.04652 0.0
C1149 C 0.31506 0.6303 0.05598 0.0
C1150 C 0.27769 0.63176 0.07114 0.0
C1151 C 0.27096 0.65377 0.08287 0.0
C1152 C 0.23589 0.65491 0.09727 0.0
C1153 C 0.20704 0.63425 0.09991 0.0
C1154 C 0.21313 0.61243 0.08811 0.0
C1155 C 0.24822 0.61117 0.07373 0.0
H1156 H 0.17989 0.63517 0.11106 0.0
H1157 H 0.51699 0.62815 0.96952 0.0
H1158 H 0.12523 0.87891 0.44892 0.0
H1159 H 0.10649 0.87538 0.4857 0.0
H1160 H 0.2482 0.86993 0.50037 0.0
H1161 H 0.26651 0.87192 0.46352 0.0
H1162 H 0.2072 0.83931 0.52315 0.0
H1163 H 0.17971 0.92649 0.5068 0.0
H1164 H 0.14564 0.96185 0.48762 0.0
H1165 H 0.01347 0.93663 0.50541 0.0
H1166 H 0.04674 0.90094 0.52449 0.0
H1167 H 0.19951 0.86222 0.62842 0.0
H1168 H 0.20859 0.87418 0.59209 0.0
H1169 H 0.06752 0.85907 0.58133 0.0
H1170 H 0.05833 0.84738 0.61792 0.0
H1171 H 0.10437 0.90036 0.55698 0.0
H1172 H 0.13568 0.81299 0.5737 0.0
H1173 H 0.17274 0.77967 0.59411 0.0
H1174 H 0.30265 0.80817 0.5761 0.0
H1175 H 0.26632 0.8419 0.55583 0.0
C1176 C 0.1522 0.87675 0.46007 0.0
C1177 C 0.19725 0.87562 0.45349 0.0
C1178 C 0.14157 0.87501 0.48109 0.0
C1179 C 0.17594 0.87298 0.49598 0.0
C1180 C 0.22098 0.87151 0.48928 0.0
C1181 C 0.23149 0.87262 0.46824 0.0
C1182 C 0.16528 0.87199 0.51851 0.0
C1183 C 0.18519 0.85294 0.53048 0.0
C1184 C 0.13573 0.88936 0.52822 0.0
C1185 C 0.1157 0.91092 0.51691 0.0
C1186 C 0.14337 0.92841 0.50652 0.0
C1187 C 0.1242 0.94852 0.49568 0.0
C1188 C 0.07742 0.95145 0.49526 0.0
C1189 C 0.0497 0.93432 0.50573 0.0
C1190 C 0.06869 0.91416 0.51657 0.0
C1191 C 0.17014 0.86245 0.61845 0.0
C1192 C 0.12824 0.85404 0.62582 0.0
C1193 C 0.17536 0.86913 0.59772 0.0
C1194 C 0.13889 0.86709 0.58397 0.0
C1195 C 0.09606 0.86076 0.59171 0.0
C1196 C 0.09078 0.85418 0.61256 0.0
C1197 C 0.14704 0.8681 0.56136 0.0
C1198 C 0.12645 0.88691 0.54947 0.0
C1199 C 0.17647 0.85077 0.55169 0.0
C1200 C 0.19829 0.83006 0.56338 0.0
C1201 C 0.17215 0.8122 0.57417 0.0
C1202 C 0.19302 0.79325 0.58571 0.0
C1203 C 0.24002 0.79183 0.58643 0.0
C1204 C 0.26625 0.8093 0.57554 0.0
C1205 C 0.24554 0.82832 0.564 0.0
H1206 H 0.25612 0.77716 0.59539 0.0
H1207 H 0.06264 0.96702 0.48685 0.0
H1208 H 0.26565 0.34899 0.36214 0.0
H1209 H 0.2241 0.31665 0.34315 0.0
H1210 H 0.14681 0.29923 0.39777 0.0
H1211 H 0.18705 0.33233 0.41684 0.0
H1212 H 0.18168 0.2559 0.3753 0.0
H1213 H 0.09699 0.33245 0.36304 0.0
H1214 H 0.08955 0.37705 0.3527 0.0
H1215 H 0.14152 0.35952 0.29245 0.0
H1216 H 0.14979 0.31487 0.30252 0.0
H1217 H 0.03552 0.17406 0.32033 0.0
H1218 H 0.06396 0.20706 0.34329 0.0
H1219 H 0.1144 0.24828 0.29046 0.0
H1220 H 0.08078 0.21714 0.26766 0.0
H1221 H 0.08848 0.28017 0.31484 0.0
H1222 H 0.18256 0.20733 0.3254 0.0
H1223 H 0.19771 0.16271 0.33365 0.0
H1224 H 0.13908 0.17247 0.3938 0.0
H1225 H 0.12323 0.21713 0.38583 0.0
C1226 C 0.23945 0.33857 0.37013 0.0
C1227 C 0.22942 0.34356 0.39101 0.0
C1228 C 0.21596 0.31995 0.35926 0.0
C1229 C 0.18217 0.30574 0.36902 0.0
C1230 C 0.17283 0.31004 0.38998 0.0
C1231 C 0.19602 0.32889 0.40086 0.0
C1232 C 0.15625 0.2867 0.35711 0.0
C1233 C 0.1607 0.26113 0.36225 0.0
C1234 C 0.13004 0.29359 0.33977 0.0
C1235 C 0.12426 0.32035 0.33359 0.0
C1236 C 0.10706 0.33814 0.34763 0.0
C1237 C 0.10266 0.36342 0.34181 0.0
C1238 C 0.11513 0.37112 0.32195 0.0
C1239 C 0.13188 0.35353 0.30783 0.0
C1240 C 0.13635 0.32823 0.31358 0.0
C1241 C 0.05244 0.19025 0.31362 0.0
C1242 C 0.05771 0.19238 0.29208 0.0
C1243 C 0.06918 0.20903 0.3268 0.0
C1244 C 0.0931 0.22983 0.31878 0.0
C1245 C 0.09677 0.23235 0.29723 0.0
C1246 C 0.07841 0.21414 0.28409 0.0
C1247 C 0.11454 0.24897 0.33261 0.0
C1248 C 0.1092 0.2747 0.3279 0.0
C1249 C 0.14109 0.24215 0.34998 0.0
C1250 C 0.15141 0.21549 0.35497 0.0
C1251 C 0.17281 0.19993 0.34036 0.0
C1252 C 0.1815 0.17465 0.34499 0.0
C1253 C 0.16931 0.16477 0.36423 0.0
C1254 C 0.1485 0.18016 0.37891 0.0
C1255 C 0.13972 0.20547 0.37437 0.0
H1256 H 0.17613 0.14521 0.36777 0.0
H1257 H 0.11177 0.39071 0.31748 0.0
H1258 H 0.32477 0.13281 0.87226 0.0
H1259 H 0.362 0.16647 0.8529 0.0
H1260 H 0.29079 0.22215 0.88882 0.0
H1261 H 0.25147 0.18862 0.90741 0.0
H1262 H 0.28574 0.23366 0.85003 0.0
H1263 H 0.40715 0.2102 0.89483 0.0
H1264 H 0.46076 0.1812 0.91156 0.0
H1265 H 0.51481 0.16103 0.85227 0.0
H1266 H 0.46112 0.18967 0.83515 0.0
H1267 H 0.40179 0.33743 0.80499 0.0
H1268 H 0.36872 0.30635 0.82844 0.0
H1269 H 0.44994 0.24804 0.80047 0.0
H1270 H 0.48609 0.2798 0.77847 0.0
H1271 H 0.45038 0.23926 0.83768 0.0
H1272 H 0.31517 0.25328 0.79353 0.0
H1273 H 0.25556 0.27848 0.77693 0.0
H1274 H 0.22903 0.31611 0.83436 0.0
H1275 H 0.28644 0.28986 0.85165 0.0
C1276 C 0.31688 0.15221 0.87603 0.0
C1277 C 0.28494 0.15792 0.89141 0.0
C1278 C 0.33873 0.17148 0.86511 0.0
C1279 C 0.32969 0.19692 0.86954 0.0
C1280 C 0.29851 0.20269 0.88516 0.0
C1281 C 0.27635 0.18344 0.89594 0.0
C1282 C 0.35045 0.21749 0.85703 0.0
C1283 C 0.32186 0.23507 0.84759 0.0
C1284 C 0.39744 0.21912 0.85342 0.0
C1285 C 0.42986 0.20195 0.8637 0.0
C1286 C 0.43025 0.19945 0.88535 0.0
C1287 C 0.46069 0.1831 0.8949 0.0
C1288 C 0.49111 0.16925 0.88298 0.0
C1289 C 0.49121 0.17176 0.86148 0.0
C1290 C 0.46083 0.18807 0.85185 0.0
C1291 C 0.41236 0.31791 0.80391 0.0
C1292 C 0.44645 0.31091 0.79007 0.0
C1293 C 0.39296 0.30001 0.81711 0.0
C1294 C 0.40567 0.27446 0.81601 0.0
C1295 C 0.43938 0.26752 0.80179 0.0
C1296 C 0.46001 0.28562 0.78916 0.0
C1297 C 0.38552 0.25514 0.83016 0.0
C1298 C 0.41426 0.23785 0.84006 0.0
C1299 C 0.33861 0.25364 0.83417 0.0
C1300 C 0.30547 0.27 0.82373 0.0
C1301 C 0.29681 0.26708 0.80254 0.0
C1302 C 0.26335 0.28148 0.79303 0.0
C1303 C 0.23929 0.29935 0.80441 0.0
C1304 C 0.24791 0.30242 0.8255 0.0
C1305 C 0.28048 0.28757 0.83523 0.0
H1306 H 0.21365 0.3106 0.79694 0.0
H1307 H 0.51465 0.1566 0.89041 0.0
H1308 H 0.78903 0.16174 0.64682 0.0
H1309 H 0.74929 0.19401 0.66663 0.0
H1310 H 0.64698 0.19776 0.61932 0.0
H1311 H 0.68724 0.16572 0.59921 0.0
H1312 H 0.667 0.24394 0.63329 0.0
H1313 H 0.63014 0.16404 0.66499 0.0
H1314 H 0.64824 0.12299 0.6809 0.0
H1315 H 0.72166 0.16067 0.72918 0.0
H1316 H 0.70443 0.20192 0.71343 0.0
H1317 H 0.52127 0.3176 0.69517 0.0
H1318 H 0.55266 0.28487 0.67333 0.0
H1319 H 0.64271 0.26318 0.72265 0.0
H1320 H 0.60527 0.29251 0.74559 0.0
H1321 H 0.62482 0.22468 0.70577 0.0
H1322 H 0.66849 0.30455 0.67298 0.0
H1323 H 0.6524 0.34579 0.65687 0.0
H1324 H 0.57017 0.30935 0.61099 0.0
H1325 H 0.58556 0.26795 0.6269 0.0
C1326 C 0.75808 0.16946 0.64063 0.0
C1327 C 0.74101 0.16102 0.62155 0.0
C1328 C 0.73533 0.18787 0.65199 0.0
C1329 C 0.69456 0.19794 0.64471 0.0
C1330 C 0.67823 0.19019 0.62531 0.0
C1331 C 0.70128 0.17192 0.61382 0.0
C1332 C 0.66871 0.21619 0.65754 0.0
C1333 C 0.65745 0.23972 0.64911 0.0
C1334 C 0.65668 0.21083 0.67826 0.0
C1335 C 0.66621 0.18605 0.68796 0.0
C1336 C 0.65028 0.16356 0.67896 0.0
C1337 C 0.66038 0.14026 0.68795 0.0
C1338 C 0.68614 0.13922 0.70602 0.0
C1339 C 0.70171 0.1615 0.71518 0.0
C1340 C 0.69173 0.18484 0.70625 0.0
C1341 C 0.54767 0.30582 0.70146 0.0
C1342 C 0.56216 0.30874 0.72207 0.0
C1343 C 0.56631 0.28725 0.68872 0.0
C1344 C 0.60207 0.27214 0.69575 0.0
C1345 C 0.61585 0.27472 0.71647 0.0
C1346 C 0.59521 0.29219 0.72958 0.0
C1347 C 0.62449 0.25323 0.68194 0.0
C1348 C 0.6347 0.22928 0.69007 0.0
C1349 C 0.63612 0.25839 0.66103 0.0
C1350 C 0.62794 0.28322 0.6512 0.0
C1351 C 0.64698 0.30537 0.65946 0.0
C1352 C 0.63795 0.32876 0.65038 0.0
C1353 C 0.61022 0.33019 0.63294 0.0
C1354 C 0.59164 0.30822 0.62449 0.0
C1355 C 0.60057 0.28479 0.6335 0.0
H1356 H 0.60317 0.34832 0.62597 0.0
H1357 H 0.69398 0.12117 0.71293 0.0
H1358 H 0.7391 0.31248 0.10952 0.0
H1359 H 0.77647 0.2798 0.13003 0.0
H1360 H 0.85575 0.33692 0.16089 0.0
H1361 H 0.81925 0.36957 0.14013 0.0
H1362 H 0.90635 0.29596 0.1523 0.0
H1363 H 0.76408 0.31303 0.18393 0.0
H1364 H 0.68159 0.31816 0.18544 0.0
H1365 H 0.66334 0.24064 0.16784 0.0
H1366 H 0.74581 0.23516 0.16589 0.0
H1367 H 0.95431 0.22465 0.24561 0.0
H1368 H 0.91834 0.25663 0.22351 0.0
H1369 H 0.88154 0.19874 0.17972 0.0
H1370 H 0.91898 0.16698 0.20127 0.0
H1371 H 0.81006 0.23977 0.19519 0.0
H1372 H 0.95507 0.22426 0.16265 0.0
H1373 H 0.0378 0.22012 0.16322 0.0
H1374 H 0.05053 0.29646 0.18482 0.0
H1375 H 0.96768 0.30084 0.18484 0.0
C1376 C 0.76501 0.31802 0.12043 0.0
C1377 C 0.77597 0.34361 0.12334 0.0
C1378 C 0.78608 0.29936 0.13226 0.0
C1379 C 0.81844 0.30596 0.14721 0.0
C1380 C 0.83075 0.3314 0.14952 0.0
C1381 C 0.80962 0.35004 0.13776 0.0
C1382 C 0.83817 0.28651 0.16102 0.0
C1383 C 0.88524 0.28384 0.16177 0.0
C1384 C 0.81071 0.27056 0.17336 0.0
C1385 C 0.76112 0.27376 0.17453 0.0
C1386 C 0.74248 0.29714 0.18019 0.0
C1387 C 0.69573 0.3001 0.18116 0.0
C1388 C 0.66724 0.27976 0.17668 0.0
C1389 C 0.68546 0.25639 0.17126 0.0
C1390 C 0.73221 0.25334 0.17023 0.0
C1391 C 0.93819 0.21884 0.23134 0.0
C1392 C 0.93937 0.19352 0.22501 0.0
C1393 C 0.91784 0.23703 0.21876 0.0
C1394 C 0.8975 0.22994 0.20003 0.0
C1395 C 0.89716 0.20449 0.19412 0.0
C1396 C 0.91859 0.18646 0.20637 0.0
C1397 C 0.87787 0.24919 0.18622 0.0
C1398 C 0.83093 0.25187 0.18559 0.0
C1399 C 0.9054 0.26527 0.17415 0.0
C1400 C 0.95517 0.26276 0.17402 0.0
C1401 C 0.97547 0.24006 0.16778 0.0
C1402 C 0.02238 0.23769 0.16793 0.0
C1403 C 0.0494 0.25802 0.17405 0.0
C1404 C 0.02954 0.28073 0.18007 0.0
C1405 C 0.9826 0.28316 0.18002 0.0
H1406 H 0.08572 0.25616 0.17414 0.0
H1407 H 0.63104 0.28209 0.17745 0.0
H1408 H 0.72334 0.66078 0.64842 0.0
H1409 H 0.76154 0.69415 0.66794 0.0
H1410 H 0.86374 0.69918 0.62068 0.0
H1411 H 0.82553 0.66564 0.60102 0.0
H1412 H 0.89768 0.69706 0.66234 0.0
H1413 H 0.78969 0.74367 0.62191 0.0
H1414 H 0.71368 0.75267 0.60841 0.0
H1415 H 0.66496 0.76367 0.67026 0.0
H1416 H 0.74059 0.75441 0.68415 0.0
H1417 H 0.00102 0.80649 0.70349 0.0
H1418 H 0.96555 0.77588 0.68048 0.0
H1419 H 0.8426 0.78038 0.71596 0.0
H1420 H 0.87684 0.81238 0.73789 0.0
H1421 H 0.82084 0.77771 0.67844 0.0
H1422 H 0.92378 0.73002 0.71986 0.0
H1423 H 0.99769 0.72027 0.7352 0.0
H1424 H 0.05329 0.70871 0.67465 0.0
H1425 H 0.97983 0.71901 0.65891 0.0
C1426 C 0.75398 0.66898 0.6422 0.0
C1427 C 0.77152 0.66064 0.62322 0.0
C1428 C 0.77564 0.68808 0.65332 0.0
C1429 C 0.81535 0.69915 0.64571 0.0
C1430 C 0.83311 0.69084 0.62679 0.0
C1431 C 0.81113 0.67187 0.61553 0.0
C1432 C 0.83813 0.71939 0.65764 0.0
C1433 C 0.88131 0.71488 0.66563 0.0
C1434 C 0.81606 0.74226 0.66239 0.0
C1435 C 0.77072 0.74817 0.65406 0.0
C1436 C 0.7627 0.74785 0.63264 0.0
C1437 C 0.7197 0.75303 0.62492 0.0
C1438 C 0.68449 0.7587 0.63847 0.0
C1439 C 0.69225 0.75927 0.65978 0.0
C1440 C 0.73519 0.7541 0.66758 0.0
C1441 C 0.96643 0.80093 0.70646 0.0
C1442 C 0.94211 0.81152 0.72298 0.0
C1443 C 0.94622 0.78328 0.6933 0.0
C1444 C 0.90169 0.77517 0.69676 0.0
C1445 C 0.87711 0.7861 0.71299 0.0
C1446 C 0.89693 0.80429 0.72576 0.0
C1447 C 0.88057 0.75544 0.68346 0.0
C1448 C 0.83756 0.75999 0.67517 0.0
C1449 C 0.90251 0.73239 0.67878 0.0
C1450 C 0.94639 0.72549 0.6882 0.0
C1451 C 0.95181 0.72549 0.70981 0.0
C1452 C 0.99364 0.71987 0.71858 0.0
C1453 C 0.0302 0.71383 0.70592 0.0
C1454 C 0.02495 0.71338 0.68444 0.0
C1455 C 0.98322 0.71913 0.67559 0.0
H1456 H 0.06257 0.7095 0.71274 0.0
H1457 H 0.65121 0.76268 0.63247 0.0
H1458 H 0.68041 0.83713 0.10106 0.0
H1459 H 0.64235 0.80341 0.12041 0.0
H1460 H 0.74828 0.8052 0.16609 0.0
H1461 H 0.78663 0.83866 0.14673 0.0
H1462 H 0.72355 0.75655 0.15482 0.0
H1463 H 0.65088 0.8346 0.17508 0.0
H1464 H 0.60917 0.87401 0.1687 0.0
H1465 H 0.50038 0.83173 0.14159 0.0
H1466 H 0.54178 0.7921 0.14753 0.0
H1467 H 0.62794 0.68836 0.2362 0.0
H1468 H 0.66273 0.72032 0.21479 0.0
H1469 H 0.53845 0.72824 0.18065 0.0
H1470 H 0.50185 0.69832 0.20401 0.0
H1471 H 0.57097 0.77119 0.1837 0.0
H1472 H 0.63935 0.69323 0.16332 0.0
H1473 H 0.6789 0.65296 0.16897 0.0
H1474 H 0.79309 0.69294 0.19362 0.0
H1475 H 0.75399 0.73343 0.18838 0.0
C1476 C 0.69578 0.8301 0.1151 0.0
C1477 C 0.73633 0.8406 0.12247 0.0
C1478 C 0.67388 0.81099 0.1262 0.0
C1479 C 0.69228 0.80201 0.14479 0.0
C1480 C 0.73345 0.81193 0.15182 0.0
C1481 C 0.75516 0.83113 0.14083 0.0
C1482 C 0.6684 0.78261 0.15722 0.0
C1483 C 0.69028 0.75974 0.16126 0.0
C1484 C 0.62448 0.78655 0.16508 0.0
C1485 C 0.59966 0.81041 0.16153 0.0
C1486 C 0.61826 0.83373 0.16759 0.0
C1487 C 0.59463 0.8561 0.16408 0.0
C1488 C 0.55221 0.85538 0.15469 0.0
C1489 C 0.53328 0.83227 0.14883 0.0
C1490 C 0.5568 0.80985 0.15226 0.0
C1491 C 0.60755 0.69728 0.22461 0.0
C1492 C 0.56175 0.69112 0.22233 0.0
C1493 C 0.6279 0.71527 0.21189 0.0
C1494 C 0.60377 0.72639 0.1956 0.0
C1495 C 0.55802 0.72003 0.19307 0.0
C1496 C 0.53713 0.7028 0.20642 0.0
C1497 C 0.62604 0.74486 0.18145 0.0
C1498 C 0.60396 0.76767 0.17709 0.0
C1499 C 0.66949 0.74064 0.17296 0.0
C1500 C 0.69361 0.71635 0.17556 0.0
C1501 C 0.67285 0.69342 0.16998 0.0
C1502 C 0.69518 0.67056 0.17313 0.0
C1503 C 0.73845 0.67039 0.18168 0.0
C1504 C 0.75957 0.6931 0.187 0.0
C1505 C 0.73737 0.71601 0.18392 0.0
H1506 H 0.75564 0.65266 0.18414 0.0
H1507 H 0.53397 0.87272 0.152 0.0
H1508 H 0.24954 0.85749 0.35791 0.0
H1509 H 0.28977 0.82624 0.33841 0.0
H1510 H 0.33949 0.79322 0.39489 0.0
H1511 H 0.30507 0.82708 0.41465 0.0
H1512 H 0.40056 0.78841 0.36908 0.0
H1513 H 0.24304 0.76892 0.36384 0.0
H1514 H 0.16279 0.77761 0.35693 0.0
H1515 H 0.19416 0.79563 0.29381 0.0
H1516 H 0.27465 0.78729 0.3004 0.0
H1517 H 0.45446 0.67236 0.31895 0.0
H1518 H 0.41904 0.70434 0.34066 0.0
H1519 H 0.38946 0.74887 0.28654 0.0
H1520 H 0.42454 0.71685 0.26465 0.0
H1521 H 0.31765 0.74566 0.3123 0.0
H1522 H 0.47763 0.76464 0.3196 0.0
H1523 H 0.55623 0.75338 0.32788 0.0
H1524 H 0.51643 0.73179 0.38921 0.0
H1525 H 0.43759 0.74293 0.3813 0.0
C1526 C 0.27012 0.84432 0.36645 0.0
C1527 C 0.27364 0.84536 0.3882 0.0
C1528 C 0.29228 0.82577 0.3551 0.0
C1529 C 0.3164 0.80658 0.36508 0.0
C1530 C 0.32064 0.80756 0.38672 0.0
C1531 C 0.30007 0.82686 0.3981 0.0
C1532 C 0.3371 0.78568 0.35289 0.0
C1533 C 0.38202 0.77885 0.35691 0.0
C1534 C 0.31343 0.77313 0.33677 0.0
C1535 C 0.26489 0.77762 0.33266 0.0
C1536 C 0.23282 0.77479 0.34851 0.0
C1537 C 0.1873 0.77967 0.34465 0.0
C1538 C 0.1734 0.78721 0.32496 0.0
C1539 C 0.20497 0.78979 0.30906 0.0
C1540 C 0.25052 0.78494 0.31283 0.0
C1541 C 0.44054 0.68898 0.31164 0.0
C1542 C 0.44229 0.69202 0.29004 0.0
C1543 C 0.42042 0.7073 0.3241 0.0
C1544 C 0.40208 0.72916 0.31526 0.0
C1545 C 0.40345 0.73216 0.2937 0.0
C1546 C 0.42349 0.71382 0.28121 0.0
C1547 C 0.38087 0.74877 0.32842 0.0
C1548 C 0.33588 0.75525 0.32457 0.0
C1549 C 0.40412 0.76054 0.34494 0.0
C1550 C 0.4517 0.75446 0.34982 0.0
C1551 C 0.48564 0.75742 0.33483 0.0
C1552 C 0.53022 0.75105 0.33945 0.0
C1553 C 0.54127 0.74175 0.35901 0.0
C1554 C 0.50782 0.73897 0.37405 0.0
C1555 C 0.46322 0.74539 0.36954 0.0
H1556 H 0.57578 0.73676 0.36252 0.0
H1557 H 0.13816 0.79102 0.32201 0.0
H1558 H 0.29854 0.6784 0.87869 0.0
H1559 H 0.26002 0.71105 0.85831 0.0
H1560 H 0.13127 0.68116 0.87764 0.0
H1561 H 0.1699 0.64871 0.89821 0.0
H1562 H 0.14025 0.68934 0.83398 0.0
H1563 H 0.16549 0.734 0.89853 0.0
H1564 H 0.21338 0.74998 0.92688 0.0
H1565 H 0.29286 0.79214 0.88334 0.0
H1566 H 0.24577 0.77616 0.85471 0.0
H1567 H 0.00494 0.78297 0.78827 0.0
H1568 H 0.03945 0.75244 0.81143 0.0
H1569 H 0.15988 0.79864 0.81397 0.0
H1570 H 0.12132 0.83132 0.79416 0.0
H1571 H 0.15545 0.78107 0.84753 0.0
H1572 H 0.13852 0.73709 0.78267 0.0
H1573 H 0.09867 0.71951 0.75237 0.0
H1574 H 0.01474 0.67487 0.79235 0.0
H1575 H 0.05368 0.69239 0.82288 0.0
C1576 C 0.26204 0.6791 0.87871 0.0
C1577 C 0.23697 0.66135 0.89004 0.0
C1578 C 0.24011 0.69766 0.86711 0.0
C1579 C 0.19278 0.69857 0.86653 0.0
C1580 C 0.16778 0.68078 0.87789 0.0
C1581 C 0.18974 0.6624 0.88967 0.0
C1582 C 0.16937 0.7177 0.85368 0.0
C1583 C 0.14308 0.70944 0.83697 0.0
C1584 C 0.17447 0.74386 0.85721 0.0
C1585 C 0.20232 0.75373 0.87447 0.0
C1586 C 0.19335 0.74655 0.895 0.0
C1587 C 0.22032 0.75563 0.91112 0.0
C1588 C 0.25619 0.77203 0.90691 0.0
C1589 C 0.26508 0.77944 0.88658 0.0
C1590 C 0.23823 0.7704 0.87041 0.0
C1591 C 0.0381 0.78696 0.79442 0.0
C1592 C 0.0602 0.80968 0.78973 0.0
C1593 C 0.05866 0.76903 0.80715 0.0
C1594 C 0.10327 0.77249 0.81414 0.0
C1595 C 0.12557 0.79518 0.80898 0.0
C1596 C 0.10387 0.81376 0.79731 0.0
C1597 C 0.12633 0.75299 0.8272 0.0
C1598 C 0.15256 0.76109 0.84414 0.0
C1599 C 0.12237 0.72662 0.82343 0.0
C1600 C 0.09883 0.71618 0.80506 0.0
C1601 C 0.11141 0.72363 0.78499 0.0
C1602 C 0.08899 0.71366 0.76778 0.0
C1603 C 0.05423 0.69608 0.77045 0.0
C1604 C 0.0417 0.68847 0.79031 0.0
C1605 C 0.06394 0.69839 0.80757 0.0
H1606 H 0.0371 0.68826 0.75712 0.0
H1607 H 0.27705 0.77902 0.91941 0.0
loop_
_geom_bond_atom_site_label_1
_geom_bond_atom_site_label_2
_geom_bond_distance
_geom_bond_site_symmetry_2
_ccdc_geom_bond_type
H0 C3 0.931 . S
H1 C6 0.928 . S
H2 C8 0.930 . S
C3 H0 0.931 . S
C3 C4 1.413 . S
C3 C5 1.360 . S
C4 C3 1.413 . S
C4 C8 1.429 . S
C5 C3 1.360 . S
C5 C6 1.372 . S
C6 H1 0.928 . S
C6 C5 1.372 . S
C6 C7 1.404 . S
C7 C6 1.404 . S
C7 C8 1.391 . S
C8 H2 0.930 . S
C8 C4 1.429 . S
C8 C7 1.391 . S
H9 C12 0.931 . S
H10 C15 0.928 . S
H11 C17 0.930 . S
C12 H9 0.931 . S
C12 C13 1.413 . S
C12 C14 1.360 . S
C13 C12 1.413 . S
C13 C17 1.429 . S
C14 C12 1.360 . S
C14 C15 1.372 . S
C15 H10 0.928 . S
C15 C14 1.372 . S
C15 C16 1.404 . S
C16 C15 1.404 . S
C16 C17 1.391 . S
C17 H11 0.930 . S
C17 C13 1.429 . S
C17 C16 1.391 . S
H18 C21 0.931 . S
H19 C24 0.928 . S
H20 C26 0.930 . S
C21 H18 0.931 . S
C21 C22 1.413 . S
C21 C23 1.360 . S
C22 C21 1.413 . S
C22 C26 1.429 . S
C23 C21 1.360 . S
C23 C24 1.372 . S
C24 H19 0.928 . S
C24 C23 1.372 . S
C24 C25 1.404 . S
C25 C24 1.404 . S
C25 C26 1.391 . S
C26 H20 0.930 . S
C26 C22 1.429 . S
C26 C25 1.391 . S
H27 C30 0.931 . S
H28 C33 0.928 . S
H29 C35 0.930 . S
C30 H27 0.931 . S
C30 C31 1.413 . S
C30 C32 1.360 . S
C31 C30 1.413 . S
C31 C35 1.429 . S
C32 C30 1.360 . S
C32 C33 1.372 . S
C33 H28 0.928 . S
C33 C32 1.372 . S
C33 C34 1.404 . S
C34 C33 1.404 . S
C34 C35 1.391 . S
C35 H29 0.930 . S
C35 C31 1.429 . S
C35 C34 1.391 . S
H36 C39 0.931 . S
H37 C42 0.928 . S
H38 C44 0.930 . S
C39 H36 0.931 . S
C39 C40 1.413 . S
C39 C41 1.360 . S
C40 C39 1.413 . S
C40 C44 1.429 . S
C41 C39 1.360 . S
C41 C42 1.372 . S
C42 H37 0.928 . S
C42 C41 1.372 . S
C42 C43 1.404 . S
C43 C42 1.404 . S
C43 C44 1.391 . S
C44 H38 0.930 . S
C44 C40 1.429 . S
C44 C43 1.391 . S
H45 C48 0.931 . S
H46 C51 0.928 . S
H47 C53 0.930 . S
C48 H45 0.931 . S
C48 C49 1.413 . S
C48 C50 1.360 . S
C49 C48 1.413 . S
C49 C53 1.429 . S
C50 C48 1.360 . S
C50 C51 1.372 . S
C51 H46 0.928 . S
C51 C50 1.372 . S
C51 C52 1.404 . S
C52 C51 1.404 . S
C52 C53 1.391 . S
C53 H47 0.930 . S
C53 C49 1.429 . S
C53 C52 1.391 . S
H54 C57 0.931 . S
H55 C60 0.928 . S
H56 C62 0.930 . S
C57 H54 0.931 . S
C57 C58 1.413 . S
C57 C59 1.360 . S
C58 C57 1.413 . S
C58 C62 1.429 . S
C59 C57 1.360 . S
C59 C60 1.372 . S
C60 H55 0.928 . S
C60 C59 1.372 . S
C60 C61 1.404 . S
C61 C60 1.404 . S
C61 C62 1.391 . S
C62 H56 0.930 . S
C62 C58 1.429 . S
C62 C61 1.391 . S
H63 C66 0.931 . S
H64 C69 0.928 . S
H65 C71 0.930 . S
C66 H63 0.931 . S
C66 C67 1.413 . S
C66 C68 1.360 . S
C67 C66 1.413 . S
C67 C71 1.429 . S
C68 C66 1.360 . S
C68 C69 1.372 . S
C69 H64 0.928 . S
C69 C68 1.372 . S
C69 C70 1.404 . S
C70 C69 1.404 . S
C70 C71 1.391 . S
C71 H65 0.930 . S
C71 C67 1.429 . S
C71 C70 1.391 . S
Tb72 N101 2.617 . S
Tb72 N107 2.572 . S
Tb72 O116 2.465 . S
Tb72 O117 2.387 . S
Tb72 O119 2.428 . S
Tb72 O120 2.315 . S
Tb72 O124 2.349 . S
Tb72 O127 2.393 . S
Tb72 C136 2.802 . S
C73 N74 1.379 . S
C73 C76 1.416 . S
C73 C80 1.424 . S
N74 C73 1.379 . S
N74 C77 1.334 . S
N74 Tb83 2.617 . S
C75 C77 1.390 . S
C75 C78 1.339 . S
C75 H95 0.930 . S
C76 C73 1.416 . S
C76 C78 1.416 . S
C76 C82 1.448 . S
C77 N74 1.334 . S
C77 C75 1.390 . S
C77 H88 0.930 . S
C78 C75 1.339 . S
C78 C76 1.416 . S
C78 H99 0.930 . S
C79 C80 1.413 . S
C79 C81 1.427 . S
C79 C85 1.416 . S
C80 C73 1.424 . S
C80 C79 1.413 . S
C80 N84 1.361 . S
C81 C79 1.427 . S
C81 C82 1.328 . S
C81 H96 0.929 . S
C82 C76 1.448 . S
C82 C81 1.328 . S
C82 H97 0.930 . S
Tb83 N74 2.617 . S
Tb83 N84 2.572 . S
Tb83 O118 2.346 1_655 S
Tb83 O121 2.393 . S
Tb83 O122 2.465 . S
Tb83 O123 2.387 . S
Tb83 O125 2.428 . S
Tb83 O126 2.308 1_655 S
Tb83 C147 2.802 . S
N84 C80 1.361 . S
N84 Tb83 2.572 . S
N84 C86 1.340 . S
C85 C79 1.416 . S
C85 C87 1.332 . S
C85 H93 0.931 . S
C86 N84 1.340 . S
C86 C87 1.407 . S
C86 H92 0.930 . S
C87 C85 1.332 . S
C87 C86 1.407 . S
C87 H89 0.929 . S
H88 C77 0.930 . S
H89 C87 0.929 . S
H90 C105 0.930 . S
H91 C112 0.929 . S
H92 C86 0.930 . S
H93 C85 0.931 . S
H94 C108 0.930 . S
H95 C75 0.930 . S
H96 C81 0.929 . S
H97 C82 0.930 . S
H98 C103 0.930 . S
H99 C78 0.930 . S
H100 C111 0.931 . S
N101 Tb72 2.617 . S
N101 C102 1.379 . S
N101 C105 1.334 . S
C102 N101 1.379 . S
C102 C104 1.416 . S
C102 C110 1.424 . S
C103 H98 0.930 . S
C103 C105 1.390 . S
C103 C106 1.339 . S
C104 C102 1.416 . S
C104 C106 1.416 . S
C104 C137 1.448 . S
C105 H90 0.930 . S
C105 N101 1.334 . S
C105 C103 1.390 . S
C106 C103 1.339 . S
C106 C104 1.416 . S
C106 H113 0.930 . S
N107 Tb72 2.572 . S
N107 C108 1.340 . S
N107 C110 1.361 . S
C108 H94 0.930 . S
C108 N107 1.340 . S
C108 C112 1.407 . S
C109 C110 1.413 . S
C109 C111 1.416 . S
C109 C138 1.427 . S
C110 C102 1.424 . S
C110 N107 1.361 . S
C110 C109 1.413 . S
C111 H100 0.931 . S
C111 C109 1.416 . S
C111 C112 1.332 . S
C112 H91 0.929 . S
C112 C108 1.407 . S
C112 C111 1.332 . S
H113 C106 0.930 . S
H114 C137 0.930 . S
H115 C138 0.929 . S
O116 Tb72 2.465 . S
O116 C136 1.264 . S
O117 Tb72 2.387 . S
O117 C128 1.264 . S
O118 Tb83 2.346 1_455 S
O118 C128 1.247 . S
O119 Tb72 2.428 . S
O119 C136 1.256 . S
O120 Tb72 2.315 . S
O120 C135 1.258 1_455 S
O121 Tb83 2.393 . S
O121 C135 1.248 . S
O122 Tb83 2.465 . S
O122 C147 1.264 . S
O123 Tb83 2.387 . S
O123 C139 1.264 . S
O124 Tb72 2.349 . S
O124 C139 1.243 1_455 S
O125 Tb83 2.428 . S
O125 C147 1.256 . S
O126 Tb83 2.308 1_455 S
O126 C146 1.266 . S
O127 Tb72 2.393 . S
O127 C146 1.248 . S
C128 O117 1.264 . S
C128 O118 1.247 . S
C129 C132 1.399 . S
C129 C134 1.383 . S
C129 C136 1.496 . S
C130 C131 1.399 . S
C130 C134 1.389 . S
C131 C130 1.399 . S
C131 C133 1.380 . S
C131 H148 0.929 . S
C132 C129 1.399 . S
C132 C133 1.392 . S
C132 H149 0.929 . S
C133 C131 1.380 . S
C133 C132 1.392 . S
C133 H150 0.929 . S
C134 C129 1.383 . S
C134 C130 1.389 . S
C134 H151 0.931 . S
C135 O120 1.258 1_655 S
C135 O121 1.248 . S
C136 Tb72 2.802 . S
C136 O116 1.264 . S
C136 O119 1.256 . S
C136 C129 1.496 . S
C137 C104 1.448 . S
C137 H114 0.930 . S
C137 C138 1.328 . S
C138 C109 1.427 . S
C138 H115 0.929 . S
C138 C137 1.328 . S
C139 O123 1.264 . S
C139 O124 1.243 1_655 S
C140 C143 1.399 . S
C140 C144 1.383 . S
C140 C147 1.496 . S
C141 C142 1.399 . S
C141 C144 1.389 . S
C142 C141 1.399 . S
C142 C145 1.380 . S
C142 H152 0.929 . S
C143 C140 1.399 . S
C143 C145 1.392 . S
C143 H153 0.929 . S
C144 C140 1.383 . S
C144 C141 1.389 . S
C144 H154 0.931 . S
C145 C142 1.380 . S
C145 C143 1.392 . S
C145 H155 0.929 . S
C146 O126 1.266 . S
C146 O127 1.248 . S
C147 Tb83 2.802 . S
C147 O122 1.264 . S
C147 O125 1.256 . S
C147 C140 1.496 . S
H148 C131 0.929 . S
H149 C132 0.929 . S
H150 C133 0.929 . S
H151 C134 0.931 . S
H152 C142 0.929 . S
H153 C143 0.929 . S
H154 C144 0.931 . S
H155 C145 0.929 . S
Tb156 N185 2.617 . S
Tb156 N191 2.572 . S
Tb156 O200 2.465 . S
Tb156 O201 2.387 . S
Tb156 O203 2.428 . S
Tb156 O204 2.308 . S
Tb156 O208 2.349 . S
Tb156 O211 2.393 . S
Tb156 C220 2.802 . S
C157 N158 1.379 . S
C157 C160 1.416 . S
C157 C164 1.424 . S
N158 C157 1.379 . S
N158 C161 1.334 . S
N158 Tb167 2.617 . S
C159 C161 1.390 . S
C159 C162 1.339 . S
C159 H179 0.930 . S
C160 C157 1.416 . S
C160 C162 1.416 . S
C160 C166 1.448 . S
C161 N158 1.334 . S
C161 C159 1.390 . S
C161 H172 0.930 . S
C162 C159 1.339 . S
C162 C160 1.416 . S
C162 H183 0.930 . S
C163 C164 1.413 . S
C163 C165 1.427 . S
C163 C169 1.416 . S
C164 C157 1.424 . S
C164 C163 1.413 . S
C164 N168 1.361 . S
C165 C163 1.427 . S
C165 C166 1.328 . S
C165 H180 0.929 . S
C166 C160 1.448 . S
C166 C165 1.328 . S
C166 H181 0.930 . S
Tb167 N158 2.617 . S
Tb167 N168 2.572 . S
Tb167 O202 2.349 . S
Tb167 O205 2.393 . S
Tb167 O206 2.465 . S
Tb167 O207 2.387 . S
Tb167 O209 2.428 . S
Tb167 O210 2.308 . S
Tb167 C231 2.802 . S
N168 C164 1.361 . S
N168 Tb167 2.572 . S
N168 C170 1.340 . S
C169 C163 1.416 . S
C169 C171 1.332 . S
C169 H177 0.931 . S
C170 N168 1.340 . S
C170 C171 1.407 . S
C170 H176 0.930 . S
C171 C169 1.332 . S
C171 C170 1.407 . S
C171 H173 0.929 . S
H172 C161 0.930 . S
H173 C171 0.929 . S
H174 C189 0.930 . S
H175 C196 0.929 . S
H176 C170 0.930 . S
H177 C169 0.931 . S
H178 C192 0.930 . S
H179 C159 0.930 . S
H180 C165 0.929 . S
H181 C166 0.930 . S
H182 C187 0.930 . S
H183 C162 0.930 . S
H184 C195 0.931 . S
N185 Tb156 2.617 . S
N185 C186 1.379 . S
N185 C189 1.334 . S
C186 N185 1.379 . S
C186 C188 1.416 . S
C186 C194 1.424 . S
C187 H182 0.930 . S
C187 C189 1.390 . S
C187 C190 1.339 . S
C188 C186 1.416 . S
C188 C190 1.416 . S
C188 C221 1.448 . S
C189 H174 0.930 . S
C189 N185 1.334 . S
C189 C187 1.390 . S
C190 C187 1.339 . S
C190 C188 1.416 . S
C190 H197 0.930 . S
N191 Tb156 2.572 . S
N191 C192 1.340 . S
N191 C194 1.361 . S
C192 H178 0.930 . S
C192 N191 1.340 . S
C192 C196 1.407 . S
C193 C194 1.413 . S
C193 C195 1.416 . S
C193 C222 1.427 . S
C194 C186 1.424 . S
C194 N191 1.361 . S
C194 C193 1.413 . S
C195 H184 0.931 . S
C195 C193 1.416 . S
C195 C196 1.332 . S
C196 H175 0.929 . S
C196 C192 1.407 . S
C196 C195 1.332 . S
H197 C190 0.930 . S
H198 C221 0.930 . S
H199 C222 0.929 . S
O200 Tb156 2.465 . S
O200 C220 1.264 . S
O201 Tb156 2.387 . S
O201 C212 1.264 . S
O202 Tb167 2.349 . S
O202 C212 1.243 . S
O203 Tb156 2.428 . S
O203 C220 1.256 . S
O204 Tb156 2.308 . S
O204 C219 1.266 . S
O205 Tb167 2.393 . S
O205 C219 1.248 . S
O206 Tb167 2.465 . S
O206 C231 1.264 . S
O207 Tb167 2.387 . S
O207 C223 1.264 . S
O208 Tb156 2.349 . S
O208 C223 1.243 . S
O209 Tb167 2.428 . S
O209 C231 1.256 . S
O210 Tb167 2.308 . S
O210 C230 1.266 . S
O211 Tb156 2.393 . S
O211 C230 1.248 . S
C212 O201 1.264 . S
C212 O202 1.243 . S
C213 C216 1.399 . S
C213 C218 1.383 . S
C213 C220 1.496 . S
C214 C215 1.399 . S
C214 C218 1.389 . S
C215 C214 1.399 . S
C215 C217 1.380 . S
C215 H232 0.929 . S
C216 C213 1.399 . S
C216 C217 1.392 . S
C216 H233 0.929 . S
C217 C215 1.380 . S
C217 C216 1.392 . S
C217 H234 0.929 . S
C218 C213 1.383 . S
C218 C214 1.389 . S
C218 H235 0.931 . S
C219 O204 1.266 . S
C219 O205 1.248 . S
C220 Tb156 2.802 . S
C220 O200 1.264 . S
C220 O203 1.256 . S
C220 C213 1.496 . S
C221 C188 1.448 . S
C221 H198 0.930 . S
C221 C222 1.328 . S
C222 C193 1.427 . S
C222 H199 0.929 . S
C222 C221 1.328 . S
C223 O207 1.264 . S
C223 O208 1.243 . S
C224 C227 1.399 . S
C224 C228 1.383 . S
C224 C231 1.496 . S
C225 C226 1.399 . S
C225 C228 1.389 . S
C226 C225 1.399 . S
C226 C229 1.380 . S
C226 H236 0.929 . S
C227 C224 1.399 . S
C227 C229 1.392 . S
C227 H237 0.929 . S
C228 C224 1.383 . S
C228 C225 1.389 . S
C228 H238 0.931 . S
C229 C226 1.380 . S
C229 C227 1.392 . S
C229 H239 0.929 . S
C230 O210 1.266 . S
C230 O211 1.248 . S
C231 Tb167 2.802 . S
C231 O206 1.264 . S
C231 O209 1.256 . S
C231 C224 1.496 . S
H232 C215 0.929 . S
H233 C216 0.929 . S
H234 C217 0.929 . S
H235 C218 0.931 . S
H236 C226 0.929 . S
H237 C227 0.929 . S
H238 C228 0.931 . S
H239 C229 0.929 . S
Tb240 N269 2.617 . S
Tb240 N275 2.572 . S
Tb240 O284 2.465 . S
Tb240 O285 2.387 . S
Tb240 O287 2.428 . S
Tb240 O288 2.308 . S
Tb240 O292 2.349 . S
Tb240 O295 2.393 . S
Tb240 C304 2.802 . S
C241 N242 1.379 . S
C241 C244 1.416 . S
C241 C248 1.424 . S
N242 C241 1.379 . S
N242 C245 1.334 . S
N242 Tb251 2.617 . S
C243 C245 1.390 . S
C243 C246 1.339 . S
C243 H263 0.930 . S
C244 C241 1.416 . S
C244 C246 1.416 . S
C244 C250 1.448 . S
C245 N242 1.334 . S
C245 C243 1.390 . S
C245 H256 0.930 . S
C246 C243 1.339 . S
C246 C244 1.416 . S
C246 H267 0.930 . S
C247 C248 1.413 . S
C247 C249 1.427 . S
C247 C253 1.416 . S
C248 C241 1.424 . S
C248 C247 1.413 . S
C248 N252 1.361 . S
C249 C247 1.427 . S
C249 C250 1.328 . S
C249 H264 0.929 . S
C250 C244 1.448 . S
C250 C249 1.328 . S
C250 H265 0.930 . S
Tb251 N242 2.617 . S
Tb251 N252 2.572 . S
Tb251 O286 2.349 1_655 S
Tb251 O289 2.393 . S
Tb251 O290 2.465 . S
Tb251 O291 2.387 . S
Tb251 O293 2.428 . S
Tb251 O294 2.308 1_655 S
Tb251 C315 2.802 . S
N252 C248 1.361 . S
N252 Tb251 2.572 . S
N252 C254 1.340 . S
C253 C247 1.416 . S
C253 C255 1.332 . S
C253 H261 0.931 . S
C254 N252 1.340 . S
C254 C255 1.407 . S
C254 H260 0.930 . S
C255 C253 1.332 . S
C255 C254 1.407 . S
C255 H257 0.929 . S
H256 C245 0.930 . S
H257 C255 0.929 . S
H258 C273 0.930 . S
H259 C280 0.929 . S
H260 C254 0.930 . S
H261 C253 0.931 . S
H262 C276 0.930 . S
H263 C243 0.930 . S
H264 C249 0.929 . S
H265 C250 0.930 . S
H266 C271 0.930 . S
H267 C246 0.930 . S
H268 C279 0.931 . S
N269 Tb240 2.617 . S
N269 C270 1.379 . S
N269 C273 1.334 . S
C270 N269 1.379 . S
C270 C272 1.416 . S
C270 C278 1.424 . S
C271 H266 0.930 . S
C271 C273 1.390 . S
C271 C274 1.339 . S
C272 C270 1.416 . S
C272 C274 1.416 . S
C272 C305 1.448 . S
C273 H258 0.930 . S
C273 N269 1.334 . S
C273 C271 1.390 . S
C274 C271 1.339 . S
C274 C272 1.416 . S
C274 H281 0.930 . S
N275 Tb240 2.572 . S
N275 C276 1.340 . S
N275 C278 1.361 . S
C276 H262 0.930 . S
C276 N275 1.340 . S
C276 C280 1.407 . S
C277 C278 1.413 . S
C277 C279 1.416 . S
C277 C306 1.427 . S
C278 C270 1.424 . S
C278 N275 1.361 . S
C278 C277 1.413 . S
C279 H268 0.931 . S
C279 C277 1.416 . S
C279 C280 1.332 . S
C280 H259 0.929 . S
C280 C276 1.407 . S
C280 C279 1.332 . S
H281 C274 0.930 . S
H282 C305 0.930 . S
H283 C306 0.929 . S
O284 Tb240 2.465 . S
O284 C304 1.264 . S
O285 Tb240 2.387 . S
O285 C296 1.264 . S
O286 Tb251 2.349 1_455 S
O286 C296 1.243 . S
O287 Tb240 2.428 . S
O287 C304 1.256 . S
O288 Tb240 2.308 . S
O288 C303 1.266 1_455 S
O289 Tb251 2.393 . S
O289 C303 1.248 . S
O290 Tb251 2.465 . S
O290 C315 1.264 . S
O291 Tb251 2.387 . S
O291 C307 1.264 . S
O292 Tb240 2.349 . S
O292 C307 1.243 1_455 S
O293 Tb251 2.428 . S
O293 C315 1.256 . S
O294 Tb251 2.308 1_455 S
O294 C314 1.266 . S
O295 Tb240 2.393 . S
O295 C314 1.248 . S
C296 O285 1.264 . S
C296 O286 1.243 . S
C297 C300 1.399 . S
C297 C302 1.383 . S
C297 C304 1.496 . S
C298 C299 1.399 . S
C298 C302 1.389 . S
C299 C298 1.399 . S
C299 C301 1.380 . S
C299 H316 0.929 . S
C300 C297 1.399 . S
C300 C301 1.392 . S
C300 H317 0.929 . S
C301 C299 1.380 . S
C301 C300 1.392 . S
C301 H318 0.929 . S
C302 C297 1.383 . S
C302 C298 1.389 . S
C302 H319 0.931 . S
C303 O288 1.266 1_655 S
C303 O289 1.248 . S
C304 Tb240 2.802 . S
C304 O284 1.264 . S
C304 O287 1.256 . S
C304 C297 1.496 . S
C305 C272 1.448 . S
C305 H282 0.930 . S
C305 C306 1.328 . S
C306 C277 1.427 . S
C306 H283 0.929 . S
C306 C305 1.328 . S
C307 O291 1.264 . S
C307 O292 1.243 1_655 S
C308 C311 1.399 . S
C308 C312 1.383 . S
C308 C315 1.496 . S
C309 C310 1.399 . S
C309 C312 1.389 . S
C310 C309 1.399 . S
C310 C313 1.380 . S
C310 H320 0.929 . S
C311 C308 1.399 . S
C311 C313 1.392 . S
C311 H321 0.929 . S
C312 C308 1.383 . S
C312 C309 1.389 . S
C312 H322 0.931 . S
C313 C310 1.380 . S
C313 C311 1.392 . S
C313 H323 0.929 . S
C314 O294 1.266 . S
C314 O295 1.248 . S
C315 Tb251 2.802 . S
C315 O290 1.264 . S
C315 O293 1.256 . S
C315 C308 1.496 . S
H316 C299 0.929 . S
H317 C300 0.929 . S
H318 C301 0.929 . S
H319 C302 0.931 . S
H320 C310 0.929 . S
H321 C311 0.929 . S
H322 C312 0.931 . S
H323 C313 0.929 . S
Tb324 N353 2.617 . S
Tb324 N359 2.572 . S
Tb324 O368 2.465 . S
Tb324 O369 2.387 . S
Tb324 O371 2.428 . S
Tb324 O372 2.308 . S
Tb324 O376 2.349 . S
Tb324 O379 2.393 . S
Tb324 C388 2.802 . S
C325 N326 1.379 . S
C325 C328 1.416 . S
C325 C332 1.424 . S
N326 C325 1.379 . S
N326 C329 1.334 . S
N326 Tb335 2.617 . S
C327 C329 1.390 . S
C327 C330 1.339 . S
C327 H347 0.930 . S
C328 C325 1.416 . S
C328 C330 1.416 . S
C328 C334 1.448 . S
C329 N326 1.334 . S
C329 C327 1.390 . S
C329 H340 0.930 . S
C330 C327 1.339 . S
C330 C328 1.416 . S
C330 H351 0.930 . S
C331 C332 1.413 . S
C331 C333 1.427 . S
C331 C337 1.416 . S
C332 C325 1.424 . S
C332 C331 1.413 . S
C332 N336 1.361 . S
C333 C331 1.427 . S
C333 C334 1.328 . S
C333 H348 0.929 . S
C334 C328 1.448 . S
C334 C333 1.328 . S
C334 H349 0.930 . S
Tb335 N326 2.617 . S
Tb335 N336 2.572 . S
Tb335 O370 2.349 . S
Tb335 O373 2.393 . S
Tb335 O374 2.465 . S
Tb335 O375 2.387 . S
Tb335 O377 2.428 . S
Tb335 O378 2.308 . S
Tb335 C399 2.802 . S
N336 C332 1.361 . S
N336 Tb335 2.572 . S
N336 C338 1.340 . S
C337 C331 1.416 . S
C337 C339 1.332 . S
C337 H345 0.931 . S
C338 N336 1.340 . S
C338 C339 1.407 . S
C338 H344 0.930 . S
C339 C337 1.332 . S
C339 C338 1.407 . S
C339 H341 0.929 . S
H340 C329 0.930 . S
H341 C339 0.929 . S
H342 C357 0.930 . S
H343 C364 0.929 . S
H344 C338 0.930 . S
H345 C337 0.931 . S
H346 C360 0.930 . S
H347 C327 0.930 . S
H348 C333 0.929 . S
H349 C334 0.930 . S
H350 C355 0.930 . S
H351 C330 0.930 . S
H352 C363 0.931 . S
N353 Tb324 2.617 . S
N353 C354 1.379 . S
N353 C357 1.334 . S
C354 N353 1.379 . S
C354 C356 1.416 . S
C354 C362 1.424 . S
C355 H350 0.930 . S
C355 C357 1.390 . S
C355 C358 1.339 . S
C356 C354 1.416 . S
C356 C358 1.416 . S
C356 C389 1.448 . S
C357 H342 0.930 . S
C357 N353 1.334 . S
C357 C355 1.390 . S
C358 C355 1.339 . S
C358 C356 1.416 . S
C358 H365 0.930 . S
N359 Tb324 2.572 . S
N359 C360 1.340 . S
N359 C362 1.361 . S
C360 H346 0.930 . S
C360 N359 1.340 . S
C360 C364 1.407 . S
C361 C362 1.413 . S
C361 C363 1.416 . S
C361 C390 1.427 . S
C362 C354 1.424 . S
C362 N359 1.361 . S
C362 C361 1.413 . S
C363 H352 0.931 . S
C363 C361 1.416 . S
C363 C364 1.332 . S
C364 H343 0.929 . S
C364 C360 1.407 . S
C364 C363 1.332 . S
H365 C358 0.930 . S
H366 C389 0.930 . S
H367 C390 0.929 . S
O368 Tb324 2.465 . S
O368 C388 1.264 . S
O369 Tb324 2.387 . S
O369 C380 1.264 . S
O370 Tb335 2.349 . S
O370 C380 1.243 . S
O371 Tb324 2.428 . S
O371 C388 1.256 . S
O372 Tb324 2.308 . S
O372 C387 1.266 . S
O373 Tb335 2.393 . S
O373 C387 1.248 . S
O374 Tb335 2.465 . S
O374 C399 1.264 . S
O375 Tb335 2.387 . S
O375 C391 1.264 . S
O376 Tb324 2.349 . S
O376 C391 1.243 . S
O377 Tb335 2.428 . S
O377 C399 1.256 . S
O378 Tb335 2.308 . S
O378 C398 1.266 . S
O379 Tb324 2.393 . S
O379 C398 1.248 . S
C380 O369 1.264 . S
C380 O370 1.243 . S
C381 C384 1.399 . S
C381 C386 1.383 . S
C381 C388 1.496 . S
C382 C383 1.399 . S
C382 C386 1.389 . S
C383 C382 1.399 . S
C383 C385 1.380 . S
C383 H400 0.929 . S
C384 C381 1.399 . S
C384 C385 1.392 . S
C384 H401 0.929 . S
C385 C383 1.380 . S
C385 C384 1.392 . S
C385 H402 0.929 . S
C386 C381 1.383 . S
C386 C382 1.389 . S
C386 H403 0.931 . S
C387 O372 1.266 . S
C387 O373 1.248 . S
C388 Tb324 2.802 . S
C388 O368 1.264 . S
C388 O371 1.256 . S
C388 C381 1.496 . S
C389 C356 1.448 . S
C389 H366 0.930 . S
C389 C390 1.328 . S
C390 C361 1.427 . S
C390 H367 0.929 . S
C390 C389 1.328 . S
C391 O375 1.264 . S
C391 O376 1.243 . S
C392 C395 1.399 . S
C392 C396 1.383 . S
C392 C399 1.496 . S
C393 C394 1.399 . S
C393 C396 1.389 . S
C394 C393 1.399 . S
C394 C397 1.380 . S
C394 H404 0.929 . S
C395 C392 1.399 . S
C395 C397 1.392 . S
C395 H405 0.929 . S
C396 C392 1.383 . S
C396 C393 1.389 . S
C396 H406 0.931 . S
C397 C394 1.380 . S
C397 C395 1.392 . S
C397 H407 0.929 . S
C398 O378 1.266 . S
C398 O379 1.248 . S
C399 Tb335 2.802 . S
C399 O374 1.264 . S
C399 O377 1.256 . S
C399 C392 1.496 . S
H400 C383 0.929 . S
H401 C384 0.929 . S
H402 C385 0.929 . S
H403 C386 0.931 . S
H404 C394 0.929 . S
H405 C395 0.929 . S
H406 C396 0.931 . S
H407 C397 0.929 . S
H408 C426 0.951 . S
H409 C428 0.951 . S
H410 C430 0.950 . S
H411 C431 0.950 . S
H412 C433 0.950 . S
H413 C436 0.950 . S
H414 C437 0.950 . S
H415 C439 0.950 . S
H416 C440 0.950 . S
H417 C441 0.951 . S
H418 C443 0.951 . S
H419 C445 0.950 . S
H420 C446 0.950 . S
H421 C448 0.951 . S
H422 C451 0.950 . S
H423 C452 0.950 . S
H424 C454 0.950 . S
H425 C455 0.950 . S
C426 H408 0.951 . S
C426 C427 1.366 . S
C426 C428 1.388 . S
C427 C426 1.366 . S
C427 C431 1.385 . S
C428 H409 0.951 . S
C428 C426 1.388 . S
C428 C429 1.366 . S
C429 C428 1.366 . S
C429 C430 1.414 . S
C429 C432 1.499 . S
C430 H410 0.950 . S
C430 C429 1.414 . S
C430 C431 1.374 . S
C431 H411 0.950 . S
C431 C427 1.385 . S
C431 C430 1.374 . S
C432 C429 1.499 . S
C432 C433 1.373 1_565 S
C432 C434 1.389 . S
C433 H412 0.950 . S
C433 C432 1.373 1_545 S
C433 C449 1.377 . S
C434 C432 1.389 . S
C434 C435 1.524 . S
C434 C448 1.380 . S
C435 C434 1.524 . S
C435 C436 1.397 . S
C435 C440 1.363 . S
C436 H413 0.950 . S
C436 C435 1.397 . S
C436 C437 1.334 . S
C437 H414 0.950 . S
C437 C436 1.334 . S
C437 C438 1.287 . S
C438 C437 1.287 . S
C438 C439 1.524 . S
C438 H457 0.913 . S
C439 H415 0.950 . S
C439 C438 1.524 . S
C439 C440 1.415 . S
C440 H416 0.950 . S
C440 C435 1.363 . S
C440 C439 1.415 . S
C441 H417 0.951 . S
C441 C442 1.366 . S
C441 C443 1.388 . S
C442 C441 1.366 . S
C442 C446 1.385 . S
C443 H418 0.951 . S
C443 C441 1.388 . S
C443 C444 1.366 . S
C444 C443 1.366 . S
C444 C445 1.414 . S
C444 C447 1.499 . S
C445 H419 0.950 . S
C445 C444 1.414 . S
C445 C446 1.374 . S
C446 H420 0.950 . S
C446 C442 1.385 . S
C446 C445 1.374 . S
C447 C444 1.499 . S
C447 C448 1.369 1_545 S
C447 C449 1.389 . S
C448 H421 0.951 . S
C448 C434 1.380 . S
C448 C447 1.369 1_565 S
C449 C433 1.377 . S
C449 C447 1.389 . S
C449 C450 1.524 . S
C450 C449 1.524 . S
C450 C451 1.397 . S
C450 C455 1.363 . S
C451 H422 0.950 . S
C451 C450 1.397 . S
C451 C452 1.334 . S
C452 H423 0.950 . S
C452 C451 1.334 . S
C452 C453 1.287 . S
C453 C452 1.287 . S
C453 C454 1.524 . S
C453 H456 0.999 . S
C454 H424 0.950 . S
C454 C453 1.524 . S
C454 C455 1.415 . S
C455 H425 0.950 . S
C455 C450 1.363 . S
C455 C454 1.415 . S
H456 C453 0.999 . S
H457 C438 0.913 . S
H458 C476 0.951 . S
H459 C478 0.951 . S
H460 C480 0.950 . S
H461 C481 0.950 . S
H462 C483 0.950 . S
H463 C486 0.950 . S
H464 C487 0.950 . S
H465 C489 0.950 . S
H466 C490 0.950 . S
H467 C491 0.951 . S
H468 C493 0.951 . S
H469 C495 0.950 . S
H470 C496 0.950 . S
H471 C498 0.950 . S
H472 C501 0.950 . S
H473 C502 0.950 . S
H474 C504 0.950 . S
H475 C505 0.950 . S
C476 H458 0.951 . S
C476 C477 1.366 . S
C476 C478 1.388 . S
C477 C476 1.366 . S
C477 C481 1.385 . S
C478 H459 0.951 . S
C478 C476 1.388 . S
C478 C479 1.366 . S
C479 C478 1.366 . S
C479 C480 1.414 . S
C479 C482 1.499 . S
C480 H460 0.950 . S
C480 C479 1.414 . S
C480 C481 1.374 . S
C481 H461 0.950 . S
C481 C477 1.385 . S
C481 C480 1.374 . S
C482 C479 1.499 . S
C482 C483 1.373 . S
C482 C484 1.389 . S
C483 H462 0.950 . S
C483 C482 1.373 . S
C483 C499 1.377 . S
C484 C482 1.389 . S
C484 C485 1.524 . S
C484 C498 1.377 . S
C485 C484 1.524 . S
C485 C486 1.397 . S
C485 C490 1.363 . S
C486 H463 0.950 . S
C486 C485 1.397 . S
C486 C487 1.334 . S
C487 H464 0.950 . S
C487 C486 1.334 . S
C487 C488 1.287 . S
C488 C487 1.287 . S
C488 C489 1.524 . S
C488 H507 0.913 . S
C489 H465 0.950 . S
C489 C488 1.524 . S
C489 C490 1.415 . S
C490 H466 0.950 . S
C490 C485 1.363 . S
C490 C489 1.415 . S
C491 H467 0.951 . S
C491 C492 1.366 . S
C491 C493 1.388 . S
C492 C491 1.366 . S
C492 C496 1.385 . S
C493 H468 0.951 . S
C493 C491 1.388 . S
C493 C494 1.366 . S
C494 C493 1.366 . S
C494 C495 1.414 . S
C494 C497 1.499 . S
C495 H469 0.950 . S
C495 C494 1.414 . S
C495 C496 1.374 . S
C496 H470 0.950 . S
C496 C492 1.385 . S
C496 C495 1.374 . S
C497 C494 1.499 . S
C497 C498 1.373 . S
C497 C499 1.389 . S
C498 H471 0.950 . S
C498 C484 1.377 . S
C498 C497 1.373 . S
C499 C483 1.377 . S
C499 C497 1.389 . S
C499 C500 1.524 . S
C500 C499 1.524 . S
C500 C501 1.397 . S
C500 C505 1.363 . S
C501 H472 0.950 . S
C501 C500 1.397 . S
C501 C502 1.334 . S
C502 H473 0.950 . S
C502 C501 1.334 . S
C502 C503 1.287 . S
C503 C502 1.287 . S
C503 C504 1.524 . S
C503 H506 0.999 . S
C504 H474 0.950 . S
C504 C503 1.524 . S
C504 C505 1.415 . S
C505 H475 0.950 . S
C505 C500 1.363 . S
C505 C504 1.415 . S
H506 C503 0.999 . S
H507 C488 0.913 . S
H508 C526 0.951 . S
H509 C528 0.951 . S
H510 C530 0.950 . S
H511 C531 0.950 . S
H512 C533 0.950 . S
H513 C536 0.950 . S
H514 C537 0.950 . S
H515 C539 0.950 . S
H516 C540 0.950 . S
H517 C541 0.951 . S
H518 C543 0.951 . S
H519 C545 0.950 . S
H520 C546 0.950 . S
H521 C548 0.950 . S
H522 C551 0.950 . S
H523 C552 0.950 . S
H524 C554 0.950 . S
H525 C555 0.950 . S
C526 H508 0.951 . S
C526 C527 1.366 . S
C526 C528 1.388 . S
C527 C526 1.366 . S
C527 C531 1.385 . S
C528 H509 0.951 . S
C528 C526 1.388 . S
C528 C529 1.366 . S
C529 C528 1.366 . S
C529 C530 1.414 . S
C529 C532 1.499 . S
C530 H510 0.950 . S
C530 C529 1.414 . S
C530 C531 1.374 . S
C531 H511 0.950 . S
C531 C527 1.385 . S
C531 C530 1.374 . S
C532 C529 1.499 . S
C532 C533 1.373 . S
C532 C534 1.389 . S
C533 H512 0.950 . S
C533 C532 1.373 . S
C533 C549 1.377 . S
C534 C532 1.389 . S
C534 C535 1.524 . S
C534 C548 1.377 . S
C535 C534 1.524 . S
C535 C536 1.397 . S
C535 C540 1.363 . S
C536 H513 0.950 . S
C536 C535 1.397 . S
C536 C537 1.334 . S
C537 H514 0.950 . S
C537 C536 1.334 . S
C537 C538 1.287 . S
C538 C537 1.287 . S
C538 C539 1.524 . S
C538 H557 0.913 . S
C539 H515 0.950 . S
C539 C538 1.524 . S
C539 C540 1.415 . S
C540 H516 0.950 . S
C540 C535 1.363 . S
C540 C539 1.415 . S
C541 H517 0.951 . S
C541 C542 1.366 . S
C541 C543 1.388 . S
C542 C541 1.366 . S
C542 C546 1.385 . S
C543 H518 0.951 . S
C543 C541 1.388 . S
C543 C544 1.366 . S
C544 C543 1.366 . S
C544 C545 1.414 . S
C544 C547 1.499 . S
C545 H519 0.950 . S
C545 C544 1.414 . S
C545 C546 1.374 . S
C546 H520 0.950 . S
C546 C542 1.385 . S
C546 C545 1.374 . S
C547 C544 1.499 . S
C547 C548 1.373 . S
C547 C549 1.389 . S
C548 H521 0.950 . S
C548 C534 1.377 . S
C548 C547 1.373 . S
C549 C533 1.377 . S
C549 C547 1.389 . S
C549 C550 1.524 . S
C550 C549 1.524 . S
C550 C551 1.397 . S
C550 C555 1.363 . S
C551 H522 0.950 . S
C551 C550 1.397 . S
C551 C552 1.334 . S
C552 H523 0.950 . S
C552 C551 1.334 . S
C552 C553 1.287 . S
C553 C552 1.287 . S
C553 C554 1.524 . S
C553 H556 0.999 . S
C554 H524 0.950 . S
C554 C553 1.524 . S
C554 C555 1.415 . S
C555 H525 0.950 . S
C555 C550 1.363 . S
C555 C554 1.415 . S
H556 C553 0.999 . S
H557 C538 0.913 . S
H558 C576 0.951 . S
H559 C578 0.951 . S
H560 C580 0.950 . S
H561 C581 0.950 . S
H562 C583 0.950 . S
H563 C586 0.950 . S
H564 C587 0.950 . S
H565 C589 0.950 . S
H566 C590 0.950 . S
H567 C591 0.951 . S
H568 C593 0.951 . S
H569 C595 0.950 . S
H570 C596 0.950 . S
H571 C598 0.950 . S
H572 C601 0.950 . S
H573 C602 0.950 . S
H574 C604 0.950 . S
H575 C605 0.950 . S
C576 H558 0.951 . S
C576 C577 1.366 . S
C576 C578 1.388 . S
C577 C576 1.366 . S
C577 C581 1.385 . S
C578 H559 0.951 . S
C578 C576 1.388 . S
C578 C579 1.366 . S
C579 C578 1.366 . S
C579 C580 1.414 . S
C579 C582 1.499 . S
C580 H560 0.950 . S
C580 C579 1.414 . S
C580 C581 1.374 . S
C581 H561 0.950 . S
C581 C577 1.385 . S
C581 C580 1.374 . S
C582 C579 1.499 . S
C582 C583 1.373 . S
C582 C584 1.365 1_565 S
C583 H562 0.950 . S
C583 C582 1.373 . S
C583 C599 1.377 1_565 S
C584 C582 1.365 1_545 S
C584 C585 1.522 1_545 S
C584 C598 1.408 . S
C585 C584 1.522 1_565 S
C585 C586 1.392 1_565 S
C585 C590 1.367 . S
C586 H563 0.950 . S
C586 C585 1.392 1_545 S
C586 C587 1.334 . S
C587 H564 0.950 . S
C587 C586 1.334 . S
C587 C588 1.287 . S
C588 C587 1.287 . S
C588 C589 1.524 1_545 S
C588 H607 0.912 1_545 S
C589 H565 0.950 . S
C589 C588 1.524 1_565 S
C589 C590 1.415 . S
C590 H566 0.950 . S
C590 C585 1.367 . S
C590 C589 1.415 . S
C591 H567 0.951 . S
C591 C592 1.366 . S
C591 C593 1.388 . S
C592 C591 1.366 . S
C592 C596 1.385 . S
C593 H568 0.951 . S
C593 C591 1.388 . S
C593 C594 1.366 . S
C594 C593 1.366 . S
C594 C595 1.414 . S
C594 C597 1.499 . S
C595 H569 0.950 . S
C595 C594 1.414 . S
C595 C596 1.374 . S
C596 H570 0.950 . S
C596 C592 1.385 . S
C596 C595 1.374 . S
C597 C594 1.499 . S
C597 C598 1.373 . S
C597 C599 1.389 . S
C598 H571 0.950 . S
C598 C584 1.408 . S
C598 C597 1.373 . S
C599 C583 1.377 1_545 S
C599 C597 1.389 . S
C599 C600 1.524 . S
C600 C599 1.524 . S
C600 C601 1.397 . S
C600 C605 1.363 . S
C601 H572 0.950 . S
C601 C600 1.397 . S
C601 C602 1.334 1_655 S
C602 H573 0.950 . S
C602 C601 1.334 1_455 S
C602 C603 1.287 . S
C603 C602 1.287 . S
C603 C604 1.524 . S
C603 H606 0.999 . S
C604 H574 0.950 . S
C604 C603 1.524 . S
C604 C605 1.415 1_455 S
C605 H575 0.950 . S
C605 C600 1.363 . S
C605 C604 1.415 1_655 S
H606 C603 0.999 . S
H607 C588 0.912 1_565 S
H608 C626 0.951 . S
H609 C628 0.951 . S
H610 C630 0.950 . S
H611 C631 0.950 . S
H612 C633 0.950 . S
H613 C636 0.950 . S
H614 C637 0.950 . S
H615 C639 0.950 . S
H616 C640 0.950 . S
H617 C641 0.951 . S
H618 C643 0.951 . S
H619 C645 0.950 . S
H620 C646 0.950 . S
H621 C648 0.950 . S
H622 C651 0.950 . S
H623 C652 0.950 . S
H624 C654 0.950 . S
H625 C655 0.951 1_655 S
C626 H608 0.951 . S
C626 C627 1.366 . S
C626 C628 1.388 . S
C627 C626 1.366 . S
C627 C631 1.385 . S
C628 H609 0.951 . S
C628 C626 1.388 . S
C628 C629 1.366 . S
C629 C628 1.366 . S
C629 C630 1.414 . S
C629 C632 1.499 . S
C630 H610 0.950 . S
C630 C629 1.414 . S
C630 C631 1.374 . S
C631 H611 0.950 . S
C631 C627 1.385 . S
C631 C630 1.374 . S
C632 C629 1.499 . S
C632 C633 1.373 . S
C632 C634 1.366 1_545 S
C633 H612 0.950 . S
C633 C632 1.373 . S
C633 C649 1.377 1_545 S
C634 C632 1.366 1_565 S
C634 C635 1.520 1_565 S
C634 C648 1.406 . S
C635 C634 1.520 1_545 S
C635 C636 1.397 . S
C635 C640 1.363 1_545 S
C636 H613 0.950 . S
C636 C635 1.397 . S
C636 C637 1.334 . S
C637 H614 0.950 . S
C637 C636 1.334 . S
C637 C638 1.287 . S
C638 C637 1.287 . S
C638 C639 1.524 1_545 S
C638 H657 0.913 . S
C639 H615 0.950 . S
C639 C638 1.524 1_565 S
C639 C640 1.415 . S
C640 H616 0.950 . S
C640 C635 1.363 1_565 S
C640 C639 1.415 . S
C641 H617 0.951 . S
C641 C642 1.366 . S
C641 C643 1.388 . S
C642 C641 1.366 . S
C642 C646 1.385 . S
C643 H618 0.951 . S
C643 C641 1.388 . S
C643 C644 1.366 . S
C644 C643 1.366 . S
C644 C645 1.414 . S
C644 C647 1.499 . S
C645 H619 0.950 . S
C645 C644 1.414 . S
C645 C646 1.374 . S
C646 H620 0.950 . S
C646 C642 1.385 . S
C646 C645 1.374 . S
C647 C644 1.499 . S
C647 C648 1.373 . S
C647 C649 1.389 . S
C648 H621 0.950 . S
C648 C634 1.406 . S
C648 C647 1.373 . S
C649 C633 1.377 1_565 S
C649 C647 1.389 . S
C649 C650 1.524 . S
C650 C649 1.524 . S
C650 C651 1.397 . S
C650 C655 1.364 1_665 S
C651 H622 0.950 . S
C651 C650 1.397 . S
C651 C652 1.334 1_655 S
C652 H623 0.950 . S
C652 C651 1.334 1_455 S
C652 C653 1.287 . S
C653 C652 1.287 . S
C653 C654 1.524 1_565 S
C653 H656 0.999 . S
C654 H624 0.950 . S
C654 C653 1.524 1_545 S
C654 C655 1.413 . S
C655 H625 0.951 1_455 S
C655 C650 1.364 1_445 S
C655 C654 1.413 . S
H656 C653 0.999 . S
H657 C638 0.913 . S
H658 C676 0.951 . S
H659 C678 0.951 . S
H660 C680 0.950 . S
H661 C681 0.950 . S
H662 C683 0.950 . S
H663 C686 0.950 . S
H664 C687 0.950 . S
H665 C689 0.950 . S
H666 C690 0.950 . S
H667 C691 0.951 . S
H668 C693 0.951 . S
H669 C695 0.950 . S
H670 C696 0.950 . S
H671 C698 0.950 . S
H672 C701 0.950 . S
H673 C702 0.950 . S
H674 C704 0.950 . S
H675 C705 0.950 . S
C676 H658 0.951 . S
C676 C677 1.366 . S
C676 C678 1.388 . S
C677 C676 1.366 . S
C677 C681 1.385 . S
C678 H659 0.951 . S
C678 C676 1.388 . S
C678 C679 1.366 . S
C679 C678 1.366 . S
C679 C680 1.414 . S
C679 C682 1.499 . S
C680 H660 0.950 . S
C680 C679 1.414 . S
C680 C681 1.374 . S
C681 H661 0.950 . S
C681 C677 1.385 . S
C681 C680 1.374 . S
C682 C679 1.499 . S
C682 C683 1.373 . S
C682 C684 1.389 . S
C683 H662 0.950 . S
C683 C682 1.373 . S
C683 C699 1.377 . S
C684 C682 1.389 . S
C684 C685 1.524 . S
C684 C698 1.377 . S
C685 C684 1.524 . S
C685 C686 1.397 . S
C685 C690 1.363 . S
C686 H663 0.950 . S
C686 C685 1.397 . S
C686 C687 1.334 . S
C687 H664 0.950 . S
C687 C686 1.334 . S
C687 C688 1.287 . S
C688 C687 1.287 . S
C688 C689 1.524 . S
C688 H707 0.913 . S
C689 H665 0.950 . S
C689 C688 1.524 . S
C689 C690 1.415 . S
C690 H666 0.950 . S
C690 C685 1.363 . S
C690 C689 1.415 . S
C691 H667 0.951 . S
C691 C692 1.366 . S
C691 C693 1.388 . S
C692 C691 1.366 . S
C692 C696 1.385 . S
C693 H668 0.951 . S
C693 C691 1.388 . S
C693 C694 1.366 . S
C694 C693 1.366 . S
C694 C695 1.414 . S
C694 C697 1.499 . S
C695 H669 0.950 . S
C695 C694 1.414 . S
C695 C696 1.374 . S
C696 H670 0.950 . S
C696 C692 1.385 . S
C696 C695 1.374 . S
C697 C694 1.499 . S
C697 C698 1.373 . S
C697 C699 1.389 . S
C698 H671 0.950 . S
C698 C684 1.377 . S
C698 C697 1.373 . S
C699 C683 1.377 . S
C699 C697 1.389 . S
C699 C700 1.524 . S
C700 C699 1.524 . S
C700 C701 1.397 . S
C700 C705 1.363 . S
C701 H672 0.950 . S
C701 C700 1.397 . S
C701 C702 1.334 . S
C702 H673 0.950 . S
C702 C701 1.334 . S
C702 C703 1.287 . S
C703 C702 1.287 . S
C703 C704 1.524 . S
C703 H706 0.999 . S
C704 H674 0.950 . S
C704 C703 1.524 . S
C704 C705 1.415 . S
C705 H675 0.950 . S
C705 C700 1.363 . S
C705 C704 1.415 . S
H706 C703 0.999 . S
H707 C688 0.913 . S
H708 C726 0.951 . S
H709 C728 0.951 . S
H710 C730 0.950 . S
H711 C731 0.950 . S
H712 C733 0.950 . S
H713 C736 0.950 . S
H714 C737 0.950 . S
H715 C739 0.950 . S
H716 C740 0.950 . S
H717 C741 0.951 . S
H718 C743 0.951 . S
H719 C745 0.950 . S
H720 C746 0.950 . S
H721 C748 0.950 . S
H722 C751 0.950 . S
H723 C752 0.950 . S
H724 C754 0.950 . S
H725 C755 0.950 . S
C726 H708 0.951 . S
C726 C727 1.366 . S
C726 C728 1.388 . S
C727 C726 1.366 . S
C727 C731 1.385 . S
C728 H709 0.951 . S
C728 C726 1.388 . S
C728 C729 1.366 . S
C729 C728 1.366 . S
C729 C730 1.414 . S
C729 C732 1.499 . S
C730 H710 0.950 . S
C730 C729 1.414 . S
C730 C731 1.374 . S
C731 H711 0.950 . S
C731 C727 1.385 . S
C731 C730 1.374 . S
C732 C729 1.499 . S
C732 C733 1.373 . S
C732 C734 1.389 . S
C733 H712 0.950 . S
C733 C732 1.373 . S
C733 C749 1.377 . S
C734 C732 1.389 . S
C734 C735 1.524 . S
C734 C748 1.377 . S
C735 C734 1.524 . S
C735 C736 1.397 . S
C735 C740 1.363 . S
C736 H713 0.950 . S
C736 C735 1.397 . S
C736 C737 1.334 . S
C737 H714 0.950 . S
C737 C736 1.334 . S
C737 C738 1.287 . S
C738 C737 1.287 . S
C738 C739 1.524 . S
C738 H757 0.913 . S
C739 H715 0.950 . S
C739 C738 1.524 . S
C739 C740 1.415 . S
C740 H716 0.950 . S
C740 C735 1.363 . S
C740 C739 1.415 . S
C741 H717 0.951 . S
C741 C742 1.366 . S
C741 C743 1.388 . S
C742 C741 1.366 . S
C742 C746 1.385 . S
C743 H718 0.951 . S
C743 C741 1.388 . S
C743 C744 1.366 . S
C744 C743 1.366 . S
C744 C745 1.414 . S
C744 C747 1.499 . S
C745 H719 0.950 . S
C745 C744 1.414 . S
C745 C746 1.374 . S
C746 H720 0.950 . S
C746 C742 1.385 . S
C746 C745 1.374 . S
C747 C744 1.499 . S
C747 C748 1.373 . S
C747 C749 1.389 . S
C748 H721 0.950 . S
C748 C734 1.377 . S
C748 C747 1.373 . S
C749 C733 1.377 . S
C749 C747 1.389 . S
C749 C750 1.524 . S
C750 C749 1.524 . S
C750 C751 1.397 . S
C750 C755 1.363 . S
C751 H722 0.950 . S
C751 C750 1.397 . S
C751 C752 1.334 . S
C752 H723 0.950 . S
C752 C751 1.334 . S
C752 C753 1.287 . S
C753 C752 1.287 . S
C753 C754 1.524 . S
C753 H756 0.999 . S
C754 H724 0.950 . S
C754 C753 1.524 . S
C754 C755 1.415 . S
C755 H725 0.950 . S
C755 C750 1.363 . S
C755 C754 1.415 . S
H756 C753 0.999 . S
H757 C738 0.913 . S
H758 C776 0.951 . S
H759 C778 0.951 . S
H760 C780 0.950 . S
H761 C781 0.950 . S
H762 C783 0.950 . S
H763 C786 0.950 . S
H764 C787 0.950 . S
H765 C789 0.950 1_565 S
H766 C790 0.950 . S
H767 C791 0.951 . S
H768 C793 0.951 . S
H769 C795 0.950 . S
H770 C796 0.950 . S
H771 C798 0.950 . S
H772 C801 0.950 . S
H773 C802 0.950 . S
H774 C804 0.950 . S
H775 C805 0.950 1_545 S
C776 H758 0.951 . S
C776 C777 1.366 . S
C776 C778 1.388 . S
C777 C776 1.366 . S
C777 C781 1.385 . S
C778 H759 0.951 . S
C778 C776 1.388 . S
C778 C779 1.366 . S
C779 C778 1.366 . S
C779 C780 1.414 . S
C779 C782 1.499 . S
C780 H760 0.950 . S
C780 C779 1.414 . S
C780 C781 1.374 . S
C781 H761 0.950 . S
C781 C777 1.385 . S
C781 C780 1.374 . S
C782 C779 1.499 . S
C782 C783 1.373 . S
C782 C784 1.389 . S
C783 H762 0.950 . S
C783 C782 1.373 . S
C783 C799 1.377 1_545 S
C784 C782 1.389 . S
C784 C785 1.524 . S
C784 C798 1.377 1_545 S
C785 C784 1.524 . S
C785 C786 1.397 . S
C785 C790 1.363 1_545 S
C786 H763 0.950 . S
C786 C785 1.397 . S
C786 C787 1.334 . S
C787 H764 0.950 . S
C787 C786 1.334 . S
C787 C788 1.287 . S
C788 C787 1.287 . S
C788 C789 1.524 . S
C788 H807 0.913 . S
C789 H765 0.950 1_545 S
C789 C788 1.524 . S
C789 C790 1.415 1_545 S
C790 H766 0.950 . S
C790 C785 1.363 1_565 S
C790 C789 1.415 1_565 S
C791 H767 0.951 . S
C791 C792 1.366 . S
C791 C793 1.388 . S
C792 C791 1.366 . S
C792 C796 1.385 . S
C793 H768 0.951 . S
C793 C791 1.388 . S
C793 C794 1.366 . S
C794 C793 1.366 . S
C794 C795 1.414 . S
C794 C797 1.499 . S
C795 H769 0.950 . S
C795 C794 1.414 . S
C795 C796 1.374 . S
C796 H770 0.950 . S
C796 C792 1.385 . S
C796 C795 1.374 . S
C797 C794 1.499 . S
C797 C798 1.373 . S
C797 C799 1.389 . S
C798 H771 0.950 . S
C798 C784 1.377 1_565 S
C798 C797 1.373 . S
C799 C783 1.377 1_565 S
C799 C797 1.389 . S
C799 C800 1.524 . S
C800 C799 1.524 . S
C800 C801 1.397 . S
C800 C805 1.363 . S
C801 H772 0.950 . S
C801 C800 1.397 . S
C801 C802 1.334 . S
C802 H773 0.950 . S
C802 C801 1.334 . S
C802 C803 1.287 1_455 S
C803 C802 1.287 1_655 S
C803 C804 1.524 . S
C803 H806 0.999 . S
C804 H774 0.950 . S
C804 C803 1.524 . S
C804 C805 1.415 1_655 S
C805 H775 0.950 1_565 S
C805 C800 1.363 . S
C805 C804 1.415 1_455 S
H806 C803 0.999 . S
H807 C788 0.913 . S
H808 C826 0.951 . S
H809 C828 0.951 . S
H810 C830 0.950 . S
H811 C831 0.950 . S
H812 C833 0.950 . S
H813 C836 0.950 . S
H814 C837 0.950 1_556 S
H815 C839 0.950 . S
H816 C840 0.950 . S
H817 C841 0.951 . S
H818 C843 0.951 . S
H819 C845 0.950 . S
H820 C846 0.950 . S
H821 C848 0.950 . S
H822 C851 0.950 . S
H823 C852 0.950 . S
H824 C854 0.950 . S
H825 C855 0.950 . S
C826 H808 0.951 . S
C826 C827 1.366 . S
C826 C828 1.388 . S
C827 C826 1.366 . S
C827 C831 1.385 . S
C828 H809 0.951 . S
C828 C826 1.388 . S
C828 C829 1.366 . S
C829 C828 1.366 . S
C829 C830 1.414 . S
C829 C832 1.499 1_556 S
C830 H810 0.950 . S
C830 C829 1.414 . S
C830 C831 1.374 . S
C831 H811 0.950 . S
C831 C827 1.385 . S
C831 C830 1.374 . S
C832 C829 1.499 1_554 S
C832 C833 1.373 . S
C832 C834 1.389 . S
C833 H812 0.950 . S
C833 C832 1.373 . S
C833 C849 1.377 . S
C834 C832 1.389 . S
C834 C835 1.524 . S
C834 C848 1.377 . S
C835 C834 1.524 . S
C835 C836 1.397 . S
C835 C840 1.363 . S
C836 H813 0.950 . S
C836 C835 1.397 . S
C836 C837 1.334 . S
C837 H814 0.950 1_554 S
C837 C836 1.334 . S
C837 C838 1.287 . S
C838 C837 1.287 . S
C838 C839 1.524 . S
C838 H857 0.913 . S
C839 H815 0.950 . S
C839 C838 1.524 . S
C839 C840 1.415 . S
C840 H816 0.950 . S
C840 C835 1.363 . S
C840 C839 1.415 . S
C841 H817 0.951 . S
C841 C842 1.366 . S
C841 C843 1.388 . S
C842 C841 1.366 . S
C842 C846 1.385 . S
C843 H818 0.951 . S
C843 C841 1.388 . S
C843 C844 1.366 . S
C844 C843 1.366 . S
C844 C845 1.414 . S
C844 C847 1.499 . S
C845 H819 0.950 . S
C845 C844 1.414 . S
C845 C846 1.374 . S
C846 H820 0.950 . S
C846 C842 1.385 . S
C846 C845 1.374 . S
C847 C844 1.499 . S
C847 C848 1.373 . S
C847 C849 1.389 . S
C848 H821 0.950 . S
C848 C834 1.377 . S
C848 C847 1.373 . S
C849 C833 1.377 . S
C849 C847 1.389 . S
C849 C850 1.524 . S
C850 C849 1.524 . S
C850 C851 1.397 . S
C850 C855 1.363 . S
C851 H822 0.950 . S
C851 C850 1.397 . S
C851 C852 1.334 . S
C852 H823 0.950 . S
C852 C851 1.334 . S
C852 C853 1.287 . S
C853 C852 1.287 . S
C853 C854 1.524 . S
C853 H856 0.999 . S
C854 H824 0.950 . S
C854 C853 1.524 . S
C854 C855 1.415 . S
C855 H825 0.950 . S
C855 C850 1.363 . S
C855 C854 1.415 . S
H856 C853 0.999 . S
H857 C838 0.913 . S
H858 C876 0.951 . S
H859 C878 0.951 . S
H860 C880 0.950 . S
H861 C881 0.950 . S
H862 C883 0.950 . S
H863 C886 0.950 . S
H864 C887 0.950 . S
H865 C889 0.950 . S
H866 C890 0.950 . S
H867 C891 0.951 . S
H868 C893 0.951 . S
H869 C895 0.950 . S
H870 C896 0.950 . S
H871 C898 0.950 . S
H872 C901 0.950 . S
H873 C902 0.950 . S
H874 C904 0.950 . S
H875 C905 0.950 . S
C876 H858 0.951 . S
C876 C877 1.366 . S
C876 C878 1.388 . S
C877 C876 1.366 . S
C877 C881 1.385 . S
C878 H859 0.951 . S
C878 C876 1.388 . S
C878 C879 1.366 . S
C879 C878 1.366 . S
C879 C880 1.414 . S
C879 C882 1.499 . S
C880 H860 0.950 . S
C880 C879 1.414 . S
C880 C881 1.374 . S
C881 H861 0.950 . S
C881 C877 1.385 . S
C881 C880 1.374 . S
C882 C879 1.499 . S
C882 C883 1.373 . S
C882 C884 1.389 . S
C883 H862 0.950 . S
C883 C882 1.373 . S
C883 C899 1.377 . S
C884 C882 1.389 . S
C884 C885 1.524 . S
C884 C898 1.377 . S
C885 C884 1.524 . S
C885 C886 1.397 . S
C885 C890 1.363 . S
C886 H863 0.950 . S
C886 C885 1.397 . S
C886 C887 1.334 . S
C887 H864 0.950 . S
C887 C886 1.334 . S
C887 C888 1.287 . S
C888 C887 1.287 . S
C888 C889 1.524 . S
C888 H907 0.913 . S
C889 H865 0.950 . S
C889 C888 1.524 . S
C889 C890 1.415 . S
C890 H866 0.950 . S
C890 C885 1.363 . S
C890 C889 1.415 . S
C891 H867 0.951 . S
C891 C892 1.366 . S
C891 C893 1.388 . S
C892 C891 1.366 . S
C892 C896 1.385 . S
C893 H868 0.951 . S
C893 C891 1.388 . S
C893 C894 1.366 . S
C894 C893 1.366 . S
C894 C895 1.414 . S
C894 C897 1.499 . S
C895 H869 0.950 . S
C895 C894 1.414 . S
C895 C896 1.374 . S
C896 H870 0.950 . S
C896 C892 1.385 . S
C896 C895 1.374 . S
C897 C894 1.499 . S
C897 C898 1.373 . S
C897 C899 1.389 . S
C898 H871 0.950 . S
C898 C884 1.377 . S
C898 C897 1.373 . S
C899 C883 1.377 . S
C899 C897 1.389 . S
C899 C900 1.524 . S
C900 C899 1.524 . S
C900 C901 1.397 . S
C900 C905 1.363 . S
C901 H872 0.950 . S
C901 C900 1.397 . S
C901 C902 1.334 . S
C902 H873 0.950 . S
C902 C901 1.334 . S
C902 C903 1.287 . S
C903 C902 1.287 . S
C903 C904 1.524 . S
C903 H906 0.999 . S
C904 H874 0.950 . S
C904 C903 1.524 . S
C904 C905 1.415 . S
C905 H875 0.950 . S
C905 C900 1.363 . S
C905 C904 1.415 . S
H906 C903 0.999 . S
H907 C888 0.913 . S
H908 C926 0.951 . S
H909 C928 0.951 . S
H910 C930 0.950 . S
H911 C931 0.950 . S
H912 C933 0.950 . S
H913 C936 0.944 1_556 S
H914 C937 0.950 . S
H915 C939 0.950 . S
H916 C940 0.950 . S
H917 C941 0.951 . S
H918 C943 0.951 . S
H919 C945 0.950 . S
H920 C946 0.950 . S
H921 C948 0.950 . S
H922 C951 0.950 . S
H923 C952 0.950 . S
H924 C954 0.950 . S
H925 C955 0.950 . S
C926 H908 0.951 . S
C926 C927 1.366 . S
C926 C928 1.388 . S
C927 C926 1.366 . S
C927 C931 1.385 . S
C928 H909 0.951 . S
C928 C926 1.388 . S
C928 C929 1.366 . S
C929 C928 1.366 . S
C929 C930 1.414 . S
C929 C932 1.499 1_554 S
C930 H910 0.950 . S
C930 C929 1.414 . S
C930 C931 1.374 . S
C931 H911 0.950 . S
C931 C927 1.385 . S
C931 C930 1.374 . S
C932 C929 1.499 1_556 S
C932 C933 1.373 . S
C932 C934 1.389 . S
C933 H912 0.950 . S
C933 C932 1.373 . S
C933 C949 1.377 . S
C934 C932 1.389 . S
C934 C935 1.524 . S
C934 C948 1.377 . S
C935 C934 1.524 . S
C935 C936 1.397 1_556 S
C935 C940 1.363 . S
C936 H913 0.944 1_554 S
C936 C935 1.397 1_554 S
C936 C937 1.334 . S
C937 H914 0.950 . S
C937 C936 1.334 . S
C937 C938 1.287 . S
C938 C937 1.287 . S
C938 C939 1.524 . S
C938 H957 0.913 . S
C939 H915 0.950 . S
C939 C938 1.524 . S
C939 C940 1.415 1_554 S
C940 H916 0.950 . S
C940 C935 1.363 . S
C940 C939 1.415 1_556 S
C941 H917 0.951 . S
C941 C942 1.366 . S
C941 C943 1.388 . S
C942 C941 1.366 . S
C942 C946 1.385 . S
C943 H918 0.951 . S
C943 C941 1.388 . S
C943 C944 1.366 . S
C944 C943 1.366 . S
C944 C945 1.414 . S
C944 C947 1.499 . S
C945 H919 0.950 . S
C945 C944 1.414 . S
C945 C946 1.374 . S
C946 H920 0.950 . S
C946 C942 1.385 . S
C946 C945 1.374 . S
C947 C944 1.499 . S
C947 C948 1.373 . S
C947 C949 1.389 . S
C948 H921 0.950 . S
C948 C934 1.377 . S
C948 C947 1.373 . S
C949 C933 1.377 . S
C949 C947 1.389 . S
C949 C950 1.524 . S
C950 C949 1.524 . S
C950 C951 1.397 . S
C950 C955 1.363 . S
C951 H922 0.950 . S
C951 C950 1.397 . S
C951 C952 1.334 . S
C952 H923 0.950 . S
C952 C951 1.334 . S
C952 C953 1.287 . S
C953 C952 1.287 . S
C953 C954 1.524 . S
C953 H956 0.999 . S
C954 H924 0.950 . S
C954 C953 1.524 . S
C954 C955 1.415 . S
C955 H925 0.950 . S
C955 C950 1.363 . S
C955 C954 1.415 . S
H956 C953 0.999 . S
H957 C938 0.913 . S
H958 C976 0.951 . S
H959 C978 0.951 . S
H960 C980 0.950 . S
H961 C981 0.950 . S
H962 C983 0.950 . S
H963 C986 0.950 . S
H964 C987 0.950 . S
H965 C989 0.950 . S
H966 C990 0.950 . S
H967 C991 0.951 . S
H968 C993 0.951 . S
H969 C995 0.950 . S
H970 C996 0.950 . S
H971 C998 0.950 . S
H972 C1001 0.950 . S
H973 C1002 0.950 . S
H974 C1004 0.950 . S
H975 C1005 0.950 . S
C976 H958 0.951 . S
C976 C977 1.366 . S
C976 C978 1.388 . S
C977 C976 1.366 . S
C977 C981 1.385 . S
C978 H959 0.951 . S
C978 C976 1.388 . S
C978 C979 1.366 . S
C979 C978 1.366 . S
C979 C980 1.414 . S
C979 C982 1.499 . S
C980 H960 0.950 . S
C980 C979 1.414 . S
C980 C981 1.374 . S
C981 H961 0.950 . S
C981 C977 1.385 . S
C981 C980 1.374 . S
C982 C979 1.499 . S
C982 C983 1.373 . S
C982 C984 1.389 . S
C983 H962 0.950 . S
C983 C982 1.373 . S
C983 C999 1.377 . S
C984 C982 1.389 . S
C984 C985 1.524 . S
C984 C998 1.377 . S
C985 C984 1.524 . S
C985 C986 1.397 . S
C985 C990 1.363 . S
C986 H963 0.950 . S
C986 C985 1.397 . S
C986 C987 1.334 . S
C987 H964 0.950 . S
C987 C986 1.334 . S
C987 C988 1.287 . S
C988 C987 1.287 . S
C988 C989 1.524 . S
C988 H1007 0.913 . S
C989 H965 0.950 . S
C989 C988 1.524 . S
C989 C990 1.415 . S
C990 H966 0.950 . S
C990 C985 1.363 . S
C990 C989 1.415 . S
C991 H967 0.951 . S
C991 C992 1.366 . S
C991 C993 1.388 . S
C992 C991 1.366 . S
C992 C996 1.385 . S
C993 H968 0.951 . S
C993 C991 1.388 . S
C993 C994 1.366 . S
C994 C993 1.366 . S
C994 C995 1.414 . S
C994 C997 1.499 . S
C995 H969 0.950 . S
C995 C994 1.414 . S
C995 C996 1.374 . S
C996 H970 0.950 . S
C996 C992 1.385 . S
C996 C995 1.374 . S
C997 C994 1.499 . S
C997 C998 1.373 . S
C997 C999 1.389 . S
C998 H971 0.950 . S
C998 C984 1.377 . S
C998 C997 1.373 . S
C999 C983 1.377 . S
C999 C997 1.389 . S
C999 C1000 1.524 . S
C1000 C999 1.524 . S
C1000 C1001 1.397 . S
C1000 C1005 1.363 . S
C1001 H972 0.950 . S
C1001 C1000 1.397 . S
C1001 C1002 1.334 . S
C1002 H973 0.950 . S
C1002 C1001 1.334 . S
C1002 C1003 1.287 . S
C1003 C1002 1.287 . S
C1003 C1004 1.524 . S
C1003 H1006 0.999 . S
C1004 H974 0.950 . S
C1004 C1003 1.524 . S
C1004 C1005 1.415 . S
C1005 H975 0.950 . S
C1005 C1000 1.363 . S
C1005 C1004 1.415 . S
H1006 C1003 0.999 . S
H1007 C988 0.913 . S
H1008 C1026 0.951 . S
H1009 C1028 0.951 . S
H1010 C1030 0.950 . S
H1011 C1031 0.950 . S
H1012 C1033 0.950 . S
H1013 C1036 0.950 . S
H1014 C1037 0.950 . S
H1015 C1039 0.950 . S
H1016 C1040 0.950 . S
H1017 C1041 0.951 . S
H1018 C1043 0.951 . S
H1019 C1045 0.950 . S
H1020 C1046 0.950 . S
H1021 C1048 0.950 . S
H1022 C1051 0.950 . S
H1023 C1052 0.950 . S
H1024 C1054 0.950 . S
H1025 C1055 0.950 . S
C1026 H1008 0.951 . S
C1026 C1027 1.366 . S
C1026 C1028 1.388 . S
C1027 C1026 1.366 . S
C1027 C1031 1.385 . S
C1028 H1009 0.951 . S
C1028 C1026 1.388 . S
C1028 C1029 1.366 . S
C1029 C1028 1.366 . S
C1029 C1030 1.414 . S
C1029 C1032 1.499 1_554 S
C1030 H1010 0.950 . S
C1030 C1029 1.414 . S
C1030 C1031 1.374 . S
C1031 H1011 0.950 . S
C1031 C1027 1.385 . S
C1031 C1030 1.374 . S
C1032 C1029 1.499 1_556 S
C1032 C1033 1.373 . S
C1032 C1034 1.389 . S
C1033 H1012 0.950 . S
C1033 C1032 1.373 . S
C1033 C1049 1.377 . S
C1034 C1032 1.389 . S
C1034 C1035 1.524 . S
C1034 C1048 1.377 . S
C1035 C1034 1.524 . S
C1035 C1036 1.397 1_556 S
C1035 C1040 1.363 . S
C1036 H1013 0.950 . S
C1036 C1035 1.397 1_554 S
C1036 C1037 1.334 . S
C1037 H1014 0.950 . S
C1037 C1036 1.334 . S
C1037 C1038 1.287 . S
C1038 C1037 1.287 . S
C1038 C1039 1.524 . S
C1038 H1057 0.913 1_655 S
C1039 H1015 0.950 . S
C1039 C1038 1.524 . S
C1039 C1040 1.415 1_554 S
C1040 H1016 0.950 . S
C1040 C1035 1.363 . S
C1040 C1039 1.415 1_556 S
C1041 H1017 0.951 . S
C1041 C1042 1.366 . S
C1041 C1043 1.388 . S
C1042 C1041 1.366 . S
C1042 C1046 1.385 . S
C1043 H1018 0.951 . S
C1043 C1041 1.388 . S
C1043 C1044 1.366 . S
C1044 C1043 1.366 . S
C1044 C1045 1.414 . S
C1044 C1047 1.499 . S
C1045 H1019 0.950 . S
C1045 C1044 1.414 . S
C1045 C1046 1.374 . S
C1046 H1020 0.950 . S
C1046 C1042 1.385 . S
C1046 C1045 1.374 . S
C1047 C1044 1.499 . S
C1047 C1048 1.373 . S
C1047 C1049 1.389 . S
C1048 H1021 0.950 . S
C1048 C1034 1.377 . S
C1048 C1047 1.373 . S
C1049 C1033 1.377 . S
C1049 C1047 1.389 . S
C1049 C1050 1.524 . S
C1050 C1049 1.524 . S
C1050 C1051 1.397 . S
C1050 C1055 1.363 . S
C1051 H1022 0.950 . S
C1051 C1050 1.397 . S
C1051 C1052 1.334 . S
C1052 H1023 0.950 . S
C1052 C1051 1.334 . S
C1052 C1053 1.287 . S
C1053 C1052 1.287 . S
C1053 C1054 1.524 . S
C1053 H1056 0.999 . S
C1054 H1024 0.950 . S
C1054 C1053 1.524 . S
C1054 C1055 1.415 . S
C1055 H1025 0.950 . S
C1055 C1050 1.363 . S
C1055 C1054 1.415 . S
H1056 C1053 0.999 . S
H1057 C1038 0.913 1_455 S
H1058 C1076 0.951 . S
H1059 C1078 0.951 . S
H1060 C1080 0.950 . S
H1061 C1081 0.950 . S
H1062 C1083 0.950 . S
H1063 C1086 0.950 . S
H1064 C1087 0.950 . S
H1065 C1089 0.950 . S
H1066 C1090 0.950 . S
H1067 C1091 0.951 . S
H1068 C1093 0.951 . S
H1069 C1095 0.950 . S
H1070 C1096 0.950 . S
H1071 C1098 0.950 . S
H1072 C1101 0.950 . S
H1073 C1102 0.950 . S
H1074 C1104 0.950 . S
H1075 C1105 0.950 . S
C1076 H1058 0.951 . S
C1076 C1077 1.366 . S
C1076 C1078 1.388 . S
C1077 C1076 1.366 . S
C1077 C1081 1.385 . S
C1078 H1059 0.951 . S
C1078 C1076 1.388 . S
C1078 C1079 1.366 . S
C1079 C1078 1.366 . S
C1079 C1080 1.414 . S
C1079 C1082 1.499 . S
C1080 H1060 0.950 . S
C1080 C1079 1.414 . S
C1080 C1081 1.374 . S
C1081 H1061 0.950 . S
C1081 C1077 1.385 . S
C1081 C1080 1.374 . S
C1082 C1079 1.499 . S
C1082 C1083 1.373 . S
C1082 C1084 1.389 . S
C1083 H1062 0.950 . S
C1083 C1082 1.373 . S
C1083 C1099 1.377 . S
C1084 C1082 1.389 . S
C1084 C1085 1.524 . S
C1084 C1098 1.377 . S
C1085 C1084 1.524 . S
C1085 C1086 1.397 . S
C1085 C1090 1.363 . S
C1086 H1063 0.950 . S
C1086 C1085 1.397 . S
C1086 C1087 1.334 . S
C1087 H1064 0.950 . S
C1087 C1086 1.334 . S
C1087 C1088 1.287 . S
C1088 C1087 1.287 . S
C1088 C1089 1.524 . S
C1088 H1107 0.913 . S
C1089 H1065 0.950 . S
C1089 C1088 1.524 . S
C1089 C1090 1.415 . S
C1090 H1066 0.950 . S
C1090 C1085 1.363 . S
C1090 C1089 1.415 . S
C1091 H1067 0.951 . S
C1091 C1092 1.366 . S
C1091 C1093 1.388 . S
C1092 C1091 1.366 . S
C1092 C1096 1.385 . S
C1093 H1068 0.951 . S
C1093 C1091 1.388 . S
C1093 C1094 1.366 . S
C1094 C1093 1.366 . S
C1094 C1095 1.414 . S
C1094 C1097 1.499 . S
C1095 H1069 0.950 . S
C1095 C1094 1.414 . S
C1095 C1096 1.374 . S
C1096 H1070 0.950 . S
C1096 C1092 1.385 . S
C1096 C1095 1.374 . S
C1097 C1094 1.499 . S
C1097 C1098 1.373 . S
C1097 C1099 1.389 . S
C1098 H1071 0.950 . S
C1098 C1084 1.377 . S
C1098 C1097 1.373 . S
C1099 C1083 1.377 . S
C1099 C1097 1.389 . S
C1099 C1100 1.524 . S
C1100 C1099 1.524 . S
C1100 C1101 1.397 . S
C1100 C1105 1.363 . S
C1101 H1072 0.950 . S
C1101 C1100 1.397 . S
C1101 C1102 1.334 . S
C1102 H1073 0.950 . S
C1102 C1101 1.334 . S
C1102 C1103 1.287 . S
C1103 C1102 1.287 . S
C1103 C1104 1.524 . S
C1103 H1106 0.999 . S
C1104 H1074 0.950 . S
C1104 C1103 1.524 . S
C1104 C1105 1.415 . S
C1105 H1075 0.950 . S
C1105 C1100 1.363 . S
C1105 C1104 1.415 . S
H1106 C1103 0.999 . S
H1107 C1088 0.913 . S
H1108 C1126 0.951 . S
H1109 C1128 0.951 . S
H1110 C1130 0.950 . S
H1111 C1131 0.950 . S
H1112 C1133 0.950 . S
H1113 C1136 0.950 . S
H1114 C1137 0.950 . S
H1115 C1139 0.950 . S
H1116 C1140 0.932 1_554 S
H1117 C1141 0.951 . S
H1118 C1143 0.951 . S
H1119 C1145 0.950 . S
H1120 C1146 0.950 . S
H1121 C1148 0.950 . S
H1122 C1151 0.950 . S
H1123 C1152 0.950 . S
H1124 C1154 0.950 . S
H1125 C1155 0.950 . S
C1126 H1108 0.951 . S
C1126 C1127 1.366 . S
C1126 C1128 1.388 . S
C1127 C1126 1.366 . S
C1127 C1131 1.385 . S
C1128 H1109 0.951 . S
C1128 C1126 1.388 . S
C1128 C1129 1.366 . S
C1129 C1128 1.366 . S
C1129 C1130 1.414 . S
C1129 C1132 1.499 1_556 S
C1130 H1110 0.950 . S
C1130 C1129 1.414 . S
C1130 C1131 1.374 . S
C1131 H1111 0.950 . S
C1131 C1127 1.385 . S
C1131 C1130 1.374 . S
C1132 C1129 1.499 1_554 S
C1132 C1133 1.373 . S
C1132 C1134 1.389 . S
C1133 H1112 0.950 . S
C1133 C1132 1.373 . S
C1133 C1149 1.377 . S
C1134 C1132 1.389 . S
C1134 C1135 1.526 1_554 S
C1134 C1148 1.377 . S
C1135 C1134 1.526 1_556 S
C1135 C1136 1.395 . S
C1135 C1140 1.362 . S
C1136 H1113 0.950 . S
C1136 C1135 1.395 . S
C1136 C1137 1.334 . S
C1137 H1114 0.950 . S
C1137 C1136 1.334 . S
C1137 C1138 1.287 . S
C1138 C1137 1.287 . S
C1138 C1139 1.524 . S
C1138 H1157 0.913 . S
C1139 H1115 0.950 . S
C1139 C1138 1.524 . S
C1139 C1140 1.434 . S
C1140 H1116 0.932 1_556 S
C1140 C1135 1.362 . S
C1140 C1139 1.434 . S
C1141 H1117 0.951 . S
C1141 C1142 1.366 . S
C1141 C1143 1.388 . S
C1142 C1141 1.366 . S
C1142 C1146 1.385 . S
C1143 H1118 0.951 . S
C1143 C1141 1.388 . S
C1143 C1144 1.366 . S
C1144 C1143 1.366 . S
C1144 C1145 1.414 . S
C1144 C1147 1.499 . S
C1145 H1119 0.950 . S
C1145 C1144 1.414 . S
C1145 C1146 1.374 . S
C1146 H1120 0.950 . S
C1146 C1142 1.385 . S
C1146 C1145 1.374 . S
C1147 C1144 1.499 . S
C1147 C1148 1.373 . S
C1147 C1149 1.389 . S
C1148 H1121 0.950 . S
C1148 C1134 1.377 . S
C1148 C1147 1.373 . S
C1149 C1133 1.377 . S
C1149 C1147 1.389 . S
C1149 C1150 1.524 . S
C1150 C1149 1.524 . S
C1150 C1151 1.397 . S
C1150 C1155 1.363 . S
C1151 H1122 0.950 . S
C1151 C1150 1.397 . S
C1151 C1152 1.334 . S
C1152 H1123 0.950 . S
C1152 C1151 1.334 . S
C1152 C1153 1.287 . S
C1153 C1152 1.287 . S
C1153 C1154 1.524 . S
C1153 H1156 0.999 . S
C1154 H1124 0.950 . S
C1154 C1153 1.524 . S
C1154 C1155 1.415 . S
C1155 H1125 0.950 . S
C1155 C1150 1.363 . S
C1155 C1154 1.415 . S
H1156 C1153 0.999 . S
H1157 C1138 0.913 . S
H1158 C1176 0.951 . S
H1159 C1178 0.951 . S
H1160 C1180 0.950 . S
H1161 C1181 0.950 . S
H1162 C1183 0.950 . S
H1163 C1186 0.950 . S
H1164 C1187 0.950 . S
H1165 C1189 0.950 . S
H1166 C1190 0.950 . S
H1167 C1191 0.951 . S
H1168 C1193 0.951 . S
H1169 C1195 0.950 . S
H1170 C1196 0.950 . S
H1171 C1198 0.950 . S
H1172 C1201 0.950 . S
H1173 C1202 0.950 . S
H1174 C1204 0.950 . S
H1175 C1205 0.950 . S
C1176 H1158 0.951 . S
C1176 C1177 1.366 . S
C1176 C1178 1.388 . S
C1177 C1176 1.366 . S
C1177 C1181 1.385 . S
C1178 H1159 0.951 . S
C1178 C1176 1.388 . S
C1178 C1179 1.366 . S
C1179 C1178 1.366 . S
C1179 C1180 1.414 . S
C1179 C1182 1.499 . S
C1180 H1160 0.950 . S
C1180 C1179 1.414 . S
C1180 C1181 1.374 . S
C1181 H1161 0.950 . S
C1181 C1177 1.385 . S
C1181 C1180 1.374 . S
C1182 C1179 1.499 . S
C1182 C1183 1.373 . S
C1182 C1184 1.389 . S
C1183 H1162 0.950 . S
C1183 C1182 1.373 . S
C1183 C1199 1.377 . S
C1184 C1182 1.389 . S
C1184 C1185 1.524 . S
C1184 C1198 1.377 . S
C1185 C1184 1.524 . S
C1185 C1186 1.397 . S
C1185 C1190 1.363 . S
C1186 H1163 0.950 . S
C1186 C1185 1.397 . S
C1186 C1187 1.334 . S
C1187 H1164 0.950 . S
C1187 C1186 1.334 . S
C1187 C1188 1.287 . S
C1188 C1187 1.287 . S
C1188 C1189 1.524 . S
C1188 H1207 0.913 . S
C1189 H1165 0.950 . S
C1189 C1188 1.524 . S
C1189 C1190 1.415 . S
C1190 H1166 0.950 . S
C1190 C1185 1.363 . S
C1190 C1189 1.415 . S
C1191 H1167 0.951 . S
C1191 C1192 1.366 . S
C1191 C1193 1.388 . S
C1192 C1191 1.366 . S
C1192 C1196 1.385 . S
C1193 H1168 0.951 . S
C1193 C1191 1.388 . S
C1193 C1194 1.366 . S
C1194 C1193 1.366 . S
C1194 C1195 1.414 . S
C1194 C1197 1.499 . S
C1195 H1169 0.950 . S
C1195 C1194 1.414 . S
C1195 C1196 1.374 . S
C1196 H1170 0.950 . S
C1196 C1192 1.385 . S
C1196 C1195 1.374 . S
C1197 C1194 1.499 . S
C1197 C1198 1.373 . S
C1197 C1199 1.389 . S
C1198 H1171 0.950 . S
C1198 C1184 1.377 . S
C1198 C1197 1.373 . S
C1199 C1183 1.377 . S
C1199 C1197 1.389 . S
C1199 C1200 1.524 . S
C1200 C1199 1.524 . S
C1200 C1201 1.397 . S
C1200 C1205 1.363 . S
C1201 H1172 0.950 . S
C1201 C1200 1.397 . S
C1201 C1202 1.334 . S
C1202 H1173 0.950 . S
C1202 C1201 1.334 . S
C1202 C1203 1.287 . S
C1203 C1202 1.287 . S
C1203 C1204 1.524 . S
C1203 H1206 0.999 . S
C1204 H1174 0.950 . S
C1204 C1203 1.524 . S
C1204 C1205 1.415 . S
C1205 H1175 0.950 . S
C1205 C1200 1.363 . S
C1205 C1204 1.415 . S
H1206 C1203 0.999 . S
H1207 C1188 0.913 . S
H1208 C1226 0.951 . S
H1209 C1228 0.951 . S
H1210 C1230 0.950 . S
H1211 C1231 0.950 . S
H1212 C1233 0.950 . S
H1213 C1236 0.950 . S
H1214 C1237 0.950 . S
H1215 C1239 0.950 . S
H1216 C1240 0.950 . S
H1217 C1241 0.951 . S
H1218 C1243 0.951 . S
H1219 C1245 0.950 . S
H1220 C1246 0.950 . S
H1221 C1248 0.950 . S
H1222 C1251 0.950 . S
H1223 C1252 0.950 . S
H1224 C1254 0.950 . S
H1225 C1255 0.950 . S
C1226 H1208 0.951 . S
C1226 C1227 1.366 . S
C1226 C1228 1.388 . S
C1227 C1226 1.366 . S
C1227 C1231 1.385 . S
C1228 H1209 0.951 . S
C1228 C1226 1.388 . S
C1228 C1229 1.366 . S
C1229 C1228 1.366 . S
C1229 C1230 1.414 . S
C1229 C1232 1.499 . S
C1230 H1210 0.950 . S
C1230 C1229 1.414 . S
C1230 C1231 1.374 . S
C1231 H1211 0.950 . S
C1231 C1227 1.385 . S
C1231 C1230 1.374 . S
C1232 C1229 1.499 . S
C1232 C1233 1.373 . S
C1232 C1234 1.389 . S
C1233 H1212 0.950 . S
C1233 C1232 1.373 . S
C1233 C1249 1.377 . S
C1234 C1232 1.389 . S
C1234 C1235 1.524 . S
C1234 C1248 1.377 . S
C1235 C1234 1.524 . S
C1235 C1236 1.397 . S
C1235 C1240 1.363 . S
C1236 H1213 0.950 . S
C1236 C1235 1.397 . S
C1236 C1237 1.334 . S
C1237 H1214 0.950 . S
C1237 C1236 1.334 . S
C1237 C1238 1.287 . S
C1238 C1237 1.287 . S
C1238 C1239 1.524 . S
C1238 H1257 0.913 . S
C1239 H1215 0.950 . S
C1239 C1238 1.524 . S
C1239 C1240 1.415 . S
C1240 H1216 0.950 . S
C1240 C1235 1.363 . S
C1240 C1239 1.415 . S
C1241 H1217 0.951 . S
C1241 C1242 1.366 . S
C1241 C1243 1.388 . S
C1242 C1241 1.366 . S
C1242 C1246 1.385 . S
C1243 H1218 0.951 . S
C1243 C1241 1.388 . S
C1243 C1244 1.366 . S
C1244 C1243 1.366 . S
C1244 C1245 1.414 . S
C1244 C1247 1.499 . S
C1245 H1219 0.950 . S
C1245 C1244 1.414 . S
C1245 C1246 1.374 . S
C1246 H1220 0.950 . S
C1246 C1242 1.385 . S
C1246 C1245 1.374 . S
C1247 C1244 1.499 . S
C1247 C1248 1.373 . S
C1247 C1249 1.389 . S
C1248 H1221 0.950 . S
C1248 C1234 1.377 . S
C1248 C1247 1.373 . S
C1249 C1233 1.377 . S
C1249 C1247 1.389 . S
C1249 C1250 1.524 . S
C1250 C1249 1.524 . S
C1250 C1251 1.397 . S
C1250 C1255 1.363 . S
C1251 H1222 0.950 . S
C1251 C1250 1.397 . S
C1251 C1252 1.334 . S
C1252 H1223 0.950 . S
C1252 C1251 1.334 . S
C1252 C1253 1.287 . S
C1253 C1252 1.287 . S
C1253 C1254 1.524 . S
C1253 H1256 0.999 . S
C1254 H1224 0.950 . S
C1254 C1253 1.524 . S
C1254 C1255 1.415 . S
C1255 H1225 0.950 . S
C1255 C1250 1.363 . S
C1255 C1254 1.415 . S
H1256 C1253 0.999 . S
H1257 C1238 0.913 . S
H1258 C1276 0.951 . S
H1259 C1278 0.951 . S
H1260 C1280 0.950 . S
H1261 C1281 0.950 . S
H1262 C1283 0.950 . S
H1263 C1286 0.950 . S
H1264 C1287 0.950 . S
H1265 C1289 0.950 . S
H1266 C1290 0.950 . S
H1267 C1291 0.951 . S
H1268 C1293 0.951 . S
H1269 C1295 0.950 . S
H1270 C1296 0.950 . S
H1271 C1298 0.950 . S
H1272 C1301 0.950 . S
H1273 C1302 0.950 . S
H1274 C1304 0.950 . S
H1275 C1305 0.950 . S
C1276 H1258 0.951 . S
C1276 C1277 1.366 . S
C1276 C1278 1.388 . S
C1277 C1276 1.366 . S
C1277 C1281 1.385 . S
C1278 H1259 0.951 . S
C1278 C1276 1.388 . S
C1278 C1279 1.366 . S
C1279 C1278 1.366 . S
C1279 C1280 1.414 . S
C1279 C1282 1.499 . S
C1280 H1260 0.950 . S
C1280 C1279 1.414 . S
C1280 C1281 1.374 . S
C1281 H1261 0.950 . S
C1281 C1277 1.385 . S
C1281 C1280 1.374 . S
C1282 C1279 1.499 . S
C1282 C1283 1.373 . S
C1282 C1284 1.389 . S
C1283 H1262 0.950 . S
C1283 C1282 1.373 . S
C1283 C1299 1.377 . S
C1284 C1282 1.389 . S
C1284 C1285 1.524 . S
C1284 C1298 1.377 . S
C1285 C1284 1.524 . S
C1285 C1286 1.397 . S
C1285 C1290 1.363 . S
C1286 H1263 0.950 . S
C1286 C1285 1.397 . S
C1286 C1287 1.334 . S
C1287 H1264 0.950 . S
C1287 C1286 1.334 . S
C1287 C1288 1.287 . S
C1288 C1287 1.287 . S
C1288 C1289 1.524 . S
C1288 H1307 0.913 . S
C1289 H1265 0.950 . S
C1289 C1288 1.524 . S
C1289 C1290 1.415 . S
C1290 H1266 0.950 . S
C1290 C1285 1.363 . S
C1290 C1289 1.415 . S
C1291 H1267 0.951 . S
C1291 C1292 1.366 . S
C1291 C1293 1.388 . S
C1292 C1291 1.366 . S
C1292 C1296 1.385 . S
C1293 H1268 0.951 . S
C1293 C1291 1.388 . S
C1293 C1294 1.366 . S
C1294 C1293 1.366 . S
C1294 C1295 1.414 . S
C1294 C1297 1.499 . S
C1295 H1269 0.950 . S
C1295 C1294 1.414 . S
C1295 C1296 1.374 . S
C1296 H1270 0.950 . S
C1296 C1292 1.385 . S
C1296 C1295 1.374 . S
C1297 C1294 1.499 . S
C1297 C1298 1.373 . S
C1297 C1299 1.389 . S
C1298 H1271 0.950 . S
C1298 C1284 1.377 . S
C1298 C1297 1.373 . S
C1299 C1283 1.377 . S
C1299 C1297 1.389 . S
C1299 C1300 1.524 . S
C1300 C1299 1.524 . S
C1300 C1301 1.397 . S
C1300 C1305 1.363 . S
C1301 H1272 0.950 . S
C1301 C1300 1.397 . S
C1301 C1302 1.334 . S
C1302 H1273 0.950 . S
C1302 C1301 1.334 . S
C1302 C1303 1.287 . S
C1303 C1302 1.287 . S
C1303 C1304 1.524 . S
C1303 H1306 0.999 . S
C1304 H1274 0.950 . S
C1304 C1303 1.524 . S
C1304 C1305 1.415 . S
C1305 H1275 0.950 . S
C1305 C1300 1.363 . S
C1305 C1304 1.415 . S
H1306 C1303 0.999 . S
H1307 C1288 0.913 . S
H1308 C1326 0.951 . S
H1309 C1328 0.951 . S
H1310 C1330 0.950 . S
H1311 C1331 0.950 . S
H1312 C1333 0.950 . S
H1313 C1336 0.950 . S
H1314 C1337 0.950 . S
H1315 C1339 0.950 . S
H1316 C1340 0.950 . S
H1317 C1341 0.951 . S
H1318 C1343 0.951 . S
H1319 C1345 0.950 . S
H1320 C1346 0.950 . S
H1321 C1348 0.950 . S
H1322 C1351 0.950 . S
H1323 C1352 0.950 . S
H1324 C1354 0.950 . S
H1325 C1355 0.950 . S
C1326 H1308 0.951 . S
C1326 C1327 1.366 . S
C1326 C1328 1.388 . S
C1327 C1326 1.366 . S
C1327 C1331 1.385 . S
C1328 H1309 0.951 . S
C1328 C1326 1.388 . S
C1328 C1329 1.366 . S
C1329 C1328 1.366 . S
C1329 C1330 1.414 . S
C1329 C1332 1.499 . S
C1330 H1310 0.950 . S
C1330 C1329 1.414 . S
C1330 C1331 1.374 . S
C1331 H1311 0.950 . S
C1331 C1327 1.385 . S
C1331 C1330 1.374 . S
C1332 C1329 1.499 . S
C1332 C1333 1.373 . S
C1332 C1334 1.389 . S
C1333 H1312 0.950 . S
C1333 C1332 1.373 . S
C1333 C1349 1.377 . S
C1334 C1332 1.389 . S
C1334 C1335 1.524 . S
C1334 C1348 1.377 . S
C1335 C1334 1.524 . S
C1335 C1336 1.397 . S
C1335 C1340 1.363 . S
C1336 H1313 0.950 . S
C1336 C1335 1.397 . S
C1336 C1337 1.334 . S
C1337 H1314 0.950 . S
C1337 C1336 1.334 . S
C1337 C1338 1.287 . S
C1338 C1337 1.287 . S
C1338 C1339 1.524 . S
C1338 H1357 0.913 . S
C1339 H1315 0.950 . S
C1339 C1338 1.524 . S
C1339 C1340 1.415 . S
C1340 H1316 0.950 . S
C1340 C1335 1.363 . S
C1340 C1339 1.415 . S
C1341 H1317 0.951 . S
C1341 C1342 1.366 . S
C1341 C1343 1.388 . S
C1342 C1341 1.366 . S
C1342 C1346 1.385 . S
C1343 H1318 0.951 . S
C1343 C1341 1.388 . S
C1343 C1344 1.366 . S
C1344 C1343 1.366 . S
C1344 C1345 1.414 . S
C1344 C1347 1.499 . S
C1345 H1319 0.950 . S
C1345 C1344 1.414 . S
C1345 C1346 1.374 . S
C1346 H1320 0.950 . S
C1346 C1342 1.385 . S
C1346 C1345 1.374 . S
C1347 C1344 1.499 . S
C1347 C1348 1.373 . S
C1347 C1349 1.389 . S
C1348 H1321 0.950 . S
C1348 C1334 1.377 . S
C1348 C1347 1.373 . S
C1349 C1333 1.377 . S
C1349 C1347 1.389 . S
C1349 C1350 1.524 . S
C1350 C1349 1.524 . S
C1350 C1351 1.397 . S
C1350 C1355 1.363 . S
C1351 H1322 0.950 . S
C1351 C1350 1.397 . S
C1351 C1352 1.334 . S
C1352 H1323 0.950 . S
C1352 C1351 1.334 . S
C1352 C1353 1.287 . S
C1353 C1352 1.287 . S
C1353 C1354 1.524 . S
C1353 H1356 0.999 . S
C1354 H1324 0.950 . S
C1354 C1353 1.524 . S
C1354 C1355 1.415 . S
C1355 H1325 0.950 . S
C1355 C1350 1.363 . S
C1355 C1354 1.415 . S
H1356 C1353 0.999 . S
H1357 C1338 0.913 . S
H1358 C1376 0.951 . S
H1359 C1378 0.951 . S
H1360 C1380 0.950 . S
H1361 C1381 0.950 . S
H1362 C1383 0.950 . S
H1363 C1386 0.950 . S
H1364 C1387 0.950 . S
H1365 C1389 0.950 . S
H1366 C1390 0.950 . S
H1367 C1391 0.951 . S
H1368 C1393 0.951 . S
H1369 C1395 0.950 . S
H1370 C1396 0.950 . S
H1371 C1398 0.950 . S
H1372 C1401 0.950 . S
H1373 C1402 0.950 . S
H1374 C1404 0.950 . S
H1375 C1405 0.950 . S
C1376 H1358 0.951 . S
C1376 C1377 1.366 . S
C1376 C1378 1.388 . S
C1377 C1376 1.366 . S
C1377 C1381 1.385 . S
C1378 H1359 0.951 . S
C1378 C1376 1.388 . S
C1378 C1379 1.366 . S
C1379 C1378 1.366 . S
C1379 C1380 1.414 . S
C1379 C1382 1.499 . S
C1380 H1360 0.950 . S
C1380 C1379 1.414 . S
C1380 C1381 1.374 . S
C1381 H1361 0.950 . S
C1381 C1377 1.385 . S
C1381 C1380 1.374 . S
C1382 C1379 1.499 . S
C1382 C1383 1.373 . S
C1382 C1384 1.389 . S
C1383 H1362 0.950 . S
C1383 C1382 1.373 . S
C1383 C1399 1.377 . S
C1384 C1382 1.389 . S
C1384 C1385 1.524 . S
C1384 C1398 1.377 . S
C1385 C1384 1.524 . S
C1385 C1386 1.397 . S
C1385 C1390 1.363 . S
C1386 H1363 0.950 . S
C1386 C1385 1.397 . S
C1386 C1387 1.334 . S
C1387 H1364 0.950 . S
C1387 C1386 1.334 . S
C1387 C1388 1.287 . S
C1388 C1387 1.287 . S
C1388 C1389 1.524 . S
C1388 H1407 0.913 . S
C1389 H1365 0.950 . S
C1389 C1388 1.524 . S
C1389 C1390 1.415 . S
C1390 H1366 0.950 . S
C1390 C1385 1.363 . S
C1390 C1389 1.415 . S
C1391 H1367 0.951 . S
C1391 C1392 1.366 . S
C1391 C1393 1.388 . S
C1392 C1391 1.366 . S
C1392 C1396 1.385 . S
C1393 H1368 0.951 . S
C1393 C1391 1.388 . S
C1393 C1394 1.366 . S
C1394 C1393 1.366 . S
C1394 C1395 1.414 . S
C1394 C1397 1.499 . S
C1395 H1369 0.950 . S
C1395 C1394 1.414 . S
C1395 C1396 1.374 . S
C1396 H1370 0.950 . S
C1396 C1392 1.385 . S
C1396 C1395 1.374 . S
C1397 C1394 1.499 . S
C1397 C1398 1.373 . S
C1397 C1399 1.389 . S
C1398 H1371 0.950 . S
C1398 C1384 1.377 . S
C1398 C1397 1.373 . S
C1399 C1383 1.377 . S
C1399 C1397 1.389 . S
C1399 C1400 1.524 . S
C1400 C1399 1.524 . S
C1400 C1401 1.397 . S
C1400 C1405 1.363 . S
C1401 H1372 0.950 . S
C1401 C1400 1.397 . S
C1401 C1402 1.334 1_655 S
C1402 H1373 0.950 . S
C1402 C1401 1.334 1_455 S
C1402 C1403 1.287 . S
C1403 C1402 1.287 . S
C1403 C1404 1.524 . S
C1403 H1406 0.999 . S
C1404 H1374 0.950 . S
C1404 C1403 1.524 . S
C1404 C1405 1.415 1_455 S
C1405 H1375 0.950 . S
C1405 C1400 1.363 . S
C1405 C1404 1.415 1_655 S
H1406 C1403 0.999 . S
H1407 C1388 0.913 . S
H1408 C1426 0.951 . S
H1409 C1428 0.951 . S
H1410 C1430 0.950 . S
H1411 C1431 0.950 . S
H1412 C1433 0.950 . S
H1413 C1436 0.950 . S
H1414 C1437 0.950 . S
H1415 C1439 0.950 . S
H1416 C1440 0.950 . S
H1417 C1441 0.951 . S
H1418 C1443 0.951 . S
H1419 C1445 0.950 . S
H1420 C1446 0.950 . S
H1421 C1448 0.950 . S
H1422 C1451 0.950 . S
H1423 C1452 0.950 . S
H1424 C1454 0.950 . S
H1425 C1455 0.950 . S
C1426 H1408 0.951 . S
C1426 C1427 1.366 . S
C1426 C1428 1.388 . S
C1427 C1426 1.366 . S
C1427 C1431 1.385 . S
C1428 H1409 0.951 . S
C1428 C1426 1.388 . S
C1428 C1429 1.366 . S
C1429 C1428 1.366 . S
C1429 C1430 1.414 . S
C1429 C1432 1.499 . S
C1430 H1410 0.950 . S
C1430 C1429 1.414 . S
C1430 C1431 1.374 . S
C1431 H1411 0.950 . S
C1431 C1427 1.385 . S
C1431 C1430 1.374 . S
C1432 C1429 1.499 . S
C1432 C1433 1.373 . S
C1432 C1434 1.389 . S
C1433 H1412 0.950 . S
C1433 C1432 1.373 . S
C1433 C1449 1.377 . S
C1434 C1432 1.389 . S
C1434 C1435 1.524 . S
C1434 C1448 1.377 . S
C1435 C1434 1.524 . S
C1435 C1436 1.397 . S
C1435 C1440 1.363 . S
C1436 H1413 0.950 . S
C1436 C1435 1.397 . S
C1436 C1437 1.334 . S
C1437 H1414 0.950 . S
C1437 C1436 1.334 . S
C1437 C1438 1.287 . S
C1438 C1437 1.287 . S
C1438 C1439 1.524 . S
C1438 H1457 0.913 . S
C1439 H1415 0.950 . S
C1439 C1438 1.524 . S
C1439 C1440 1.415 . S
C1440 H1416 0.950 . S
C1440 C1435 1.363 . S
C1440 C1439 1.415 . S
C1441 H1417 0.951 . S
C1441 C1442 1.366 . S
C1441 C1443 1.388 . S
C1442 C1441 1.366 . S
C1442 C1446 1.385 . S
C1443 H1418 0.951 . S
C1443 C1441 1.388 . S
C1443 C1444 1.366 . S
C1444 C1443 1.366 . S
C1444 C1445 1.414 . S
C1444 C1447 1.499 . S
C1445 H1419 0.950 . S
C1445 C1444 1.414 . S
C1445 C1446 1.374 . S
C1446 H1420 0.950 . S
C1446 C1442 1.385 . S
C1446 C1445 1.374 . S
C1447 C1444 1.499 . S
C1447 C1448 1.373 . S
C1447 C1449 1.389 . S
C1448 H1421 0.950 . S
C1448 C1434 1.377 . S
C1448 C1447 1.373 . S
C1449 C1433 1.377 . S
C1449 C1447 1.389 . S
C1449 C1450 1.524 . S
C1450 C1449 1.524 . S
C1450 C1451 1.397 . S
C1450 C1455 1.363 . S
C1451 H1422 0.950 . S
C1451 C1450 1.397 . S
C1451 C1452 1.334 1_655 S
C1452 H1423 0.950 . S
C1452 C1451 1.334 1_455 S
C1452 C1453 1.287 . S
C1453 C1452 1.287 . S
C1453 C1454 1.524 . S
C1453 H1456 0.999 . S
C1454 H1424 0.950 . S
C1454 C1453 1.524 . S
C1454 C1455 1.415 1_455 S
C1455 H1425 0.950 . S
C1455 C1450 1.363 . S
C1455 C1454 1.415 1_655 S
H1456 C1453 0.999 . S
H1457 C1438 0.913 . S
H1458 C1476 0.951 . S
H1459 C1478 0.951 . S
H1460 C1480 0.950 . S
H1461 C1481 0.950 . S
H1462 C1483 0.950 . S
H1463 C1486 0.950 . S
H1464 C1487 0.950 . S
H1465 C1489 0.950 . S
H1466 C1490 0.950 . S
H1467 C1491 0.951 . S
H1468 C1493 0.951 . S
H1469 C1495 0.950 . S
H1470 C1496 0.950 . S
H1471 C1498 0.950 . S
H1472 C1501 0.950 . S
H1473 C1502 0.950 . S
H1474 C1504 0.950 . S
H1475 C1505 0.950 . S
C1476 H1458 0.951 . S
C1476 C1477 1.366 . S
C1476 C1478 1.388 . S
C1477 C1476 1.366 . S
C1477 C1481 1.385 . S
C1478 H1459 0.951 . S
C1478 C1476 1.388 . S
C1478 C1479 1.366 . S
C1479 C1478 1.366 . S
C1479 C1480 1.414 . S
C1479 C1482 1.499 . S
C1480 H1460 0.950 . S
C1480 C1479 1.414 . S
C1480 C1481 1.374 . S
C1481 H1461 0.950 . S
C1481 C1477 1.385 . S
C1481 C1480 1.374 . S
C1482 C1479 1.499 . S
C1482 C1483 1.373 . S
C1482 C1484 1.389 . S
C1483 H1462 0.950 . S
C1483 C1482 1.373 . S
C1483 C1499 1.377 . S
C1484 C1482 1.389 . S
C1484 C1485 1.524 . S
C1484 C1498 1.377 . S
C1485 C1484 1.524 . S
C1485 C1486 1.397 . S
C1485 C1490 1.363 . S
C1486 H1463 0.950 . S
C1486 C1485 1.397 . S
C1486 C1487 1.334 . S
C1487 H1464 0.950 . S
C1487 C1486 1.334 . S
C1487 C1488 1.287 . S
C1488 C1487 1.287 . S
C1488 C1489 1.524 . S
C1488 H1507 0.913 . S
C1489 H1465 0.950 . S
C1489 C1488 1.524 . S
C1489 C1490 1.415 . S
C1490 H1466 0.950 . S
C1490 C1485 1.363 . S
C1490 C1489 1.415 . S
C1491 H1467 0.951 . S
C1491 C1492 1.366 . S
C1491 C1493 1.388 . S
C1492 C1491 1.366 . S
C1492 C1496 1.385 . S
C1493 H1468 0.951 . S
C1493 C1491 1.388 . S
C1493 C1494 1.366 . S
C1494 C1493 1.366 . S
C1494 C1495 1.414 . S
C1494 C1497 1.499 . S
C1495 H1469 0.950 . S
C1495 C1494 1.414 . S
C1495 C1496 1.374 . S
C1496 H1470 0.950 . S
C1496 C1492 1.385 . S
C1496 C1495 1.374 . S
C1497 C1494 1.499 . S
C1497 C1498 1.373 . S
C1497 C1499 1.389 . S
C1498 H1471 0.950 . S
C1498 C1484 1.377 . S
C1498 C1497 1.373 . S
C1499 C1483 1.377 . S
C1499 C1497 1.389 . S
C1499 C1500 1.524 . S
C1500 C1499 1.524 . S
C1500 C1501 1.397 . S
C1500 C1505 1.363 . S
C1501 H1472 0.950 . S
C1501 C1500 1.397 . S
C1501 C1502 1.334 . S
C1502 H1473 0.950 . S
C1502 C1501 1.334 . S
C1502 C1503 1.287 . S
C1503 C1502 1.287 . S
C1503 C1504 1.524 . S
C1503 H1506 0.999 . S
C1504 H1474 0.950 . S
C1504 C1503 1.524 . S
C1504 C1505 1.415 . S
C1505 H1475 0.950 . S
C1505 C1500 1.363 . S
C1505 C1504 1.415 . S
H1506 C1503 0.999 . S
H1507 C1488 0.913 . S
H1508 C1526 0.951 . S
H1509 C1528 0.951 . S
H1510 C1530 0.950 . S
H1511 C1531 0.950 . S
H1512 C1533 0.950 . S
H1513 C1536 0.950 . S
H1514 C1537 0.950 . S
H1515 C1539 0.950 . S
H1516 C1540 0.950 . S
H1517 C1541 0.951 . S
H1518 C1543 0.951 . S
H1519 C1545 0.950 . S
H1520 C1546 0.950 . S
H1521 C1548 0.950 . S
H1522 C1551 0.950 . S
H1523 C1552 0.950 . S
H1524 C1554 0.950 . S
H1525 C1555 0.950 . S
C1526 H1508 0.951 . S
C1526 C1527 1.366 . S
C1526 C1528 1.388 . S
C1527 C1526 1.366 . S
C1527 C1531 1.385 . S
C1528 H1509 0.951 . S
C1528 C1526 1.388 . S
C1528 C1529 1.366 . S
C1529 C1528 1.366 . S
C1529 C1530 1.414 . S
C1529 C1532 1.499 . S
C1530 H1510 0.950 . S
C1530 C1529 1.414 . S
C1530 C1531 1.374 . S
C1531 H1511 0.950 . S
C1531 C1527 1.385 . S
C1531 C1530 1.374 . S
C1532 C1529 1.499 . S
C1532 C1533 1.373 . S
C1532 C1534 1.389 . S
C1533 H1512 0.950 . S
C1533 C1532 1.373 . S
C1533 C1549 1.377 . S
C1534 C1532 1.389 . S
C1534 C1535 1.524 . S
C1534 C1548 1.377 . S
C1535 C1534 1.524 . S
C1535 C1536 1.397 . S
C1535 C1540 1.363 . S
C1536 H1513 0.950 . S
C1536 C1535 1.397 . S
C1536 C1537 1.334 . S
C1537 H1514 0.950 . S
C1537 C1536 1.334 . S
C1537 C1538 1.287 . S
C1538 C1537 1.287 . S
C1538 C1539 1.524 . S
C1538 H1557 0.913 . S
C1539 H1515 0.950 . S
C1539 C1538 1.524 . S
C1539 C1540 1.415 . S
C1540 H1516 0.950 . S
C1540 C1535 1.363 . S
C1540 C1539 1.415 . S
C1541 H1517 0.951 . S
C1541 C1542 1.366 . S
C1541 C1543 1.388 . S
C1542 C1541 1.366 . S
C1542 C1546 1.385 . S
C1543 H1518 0.951 . S
C1543 C1541 1.388 . S
C1543 C1544 1.366 . S
C1544 C1543 1.366 . S
C1544 C1545 1.414 . S
C1544 C1547 1.499 . S
C1545 H1519 0.950 . S
C1545 C1544 1.414 . S
C1545 C1546 1.374 . S
C1546 H1520 0.950 . S
C1546 C1542 1.385 . S
C1546 C1545 1.374 . S
C1547 C1544 1.499 . S
C1547 C1548 1.373 . S
C1547 C1549 1.389 . S
C1548 H1521 0.950 . S
C1548 C1534 1.377 . S
C1548 C1547 1.373 . S
C1549 C1533 1.377 . S
C1549 C1547 1.389 . S
C1549 C1550 1.524 . S
C1550 C1549 1.524 . S
C1550 C1551 1.397 . S
C1550 C1555 1.363 . S
C1551 H1522 0.950 . S
C1551 C1550 1.397 . S
C1551 C1552 1.334 . S
C1552 H1523 0.950 . S
C1552 C1551 1.334 . S
C1552 C1553 1.287 . S
C1553 C1552 1.287 . S
C1553 C1554 1.524 . S
C1553 H1556 0.999 . S
C1554 H1524 0.950 . S
C1554 C1553 1.524 . S
C1554 C1555 1.415 . S
C1555 H1525 0.950 . S
C1555 C1550 1.363 . S
C1555 C1554 1.415 . S
H1556 C1553 0.999 . S
H1557 C1538 0.913 . S
H1558 C1576 0.951 . S
H1559 C1578 0.951 . S
H1560 C1580 0.950 . S
H1561 C1581 0.950 . S
H1562 C1583 0.950 . S
H1563 C1586 0.950 . S
H1564 C1587 0.950 . S
H1565 C1589 0.950 . S
H1566 C1590 0.950 . S
H1567 C1591 0.951 . S
H1568 C1593 0.951 . S
H1569 C1595 0.950 . S
H1570 C1596 0.950 . S
H1571 C1598 0.950 . S
H1572 C1601 0.950 . S
H1573 C1602 0.950 . S
H1574 C1604 0.950 1_655 S
H1575 C1605 0.950 . S
C1576 H1558 0.951 . S
C1576 C1577 1.366 . S
C1576 C1578 1.388 . S
C1577 C1576 1.366 . S
C1577 C1581 1.385 . S
C1578 H1559 0.951 . S
C1578 C1576 1.388 . S
C1578 C1579 1.366 . S
C1579 C1578 1.366 . S
C1579 C1580 1.414 . S
C1579 C1582 1.499 . S
C1580 H1560 0.950 . S
C1580 C1579 1.414 . S
C1580 C1581 1.374 . S
C1581 H1561 0.950 . S
C1581 C1577 1.385 . S
C1581 C1580 1.374 . S
C1582 C1579 1.499 . S
C1582 C1583 1.373 . S
C1582 C1584 1.389 . S
C1583 H1562 0.950 . S
C1583 C1582 1.373 . S
C1583 C1599 1.377 . S
C1584 C1582 1.389 . S
C1584 C1585 1.524 . S
C1584 C1598 1.377 . S
C1585 C1584 1.524 . S
C1585 C1586 1.397 . S
C1585 C1590 1.363 . S
C1586 H1563 0.950 . S
C1586 C1585 1.397 . S
C1586 C1587 1.334 . S
C1587 H1564 0.950 . S
C1587 C1586 1.334 . S
C1587 C1588 1.287 . S
C1588 C1587 1.287 . S
C1588 C1589 1.524 . S
C1588 H1607 0.913 . S
C1589 H1565 0.950 . S
C1589 C1588 1.524 . S
C1589 C1590 1.415 . S
C1590 H1566 0.950 . S
C1590 C1585 1.363 . S
C1590 C1589 1.415 . S
C1591 H1567 0.951 . S
C1591 C1592 1.366 . S
C1591 C1593 1.388 . S
C1592 C1591 1.366 . S
C1592 C1596 1.385 . S
C1593 H1568 0.951 . S
C1593 C1591 1.388 . S
C1593 C1594 1.366 . S
C1594 C1593 1.366 . S
C1594 C1595 1.414 . S
C1594 C1597 1.499 . S
C1595 H1569 0.950 . S
C1595 C1594 1.414 . S
C1595 C1596 1.374 . S
C1596 H1570 0.950 . S
C1596 C1592 1.385 . S
C1596 C1595 1.374 . S
C1597 C1594 1.499 . S
C1597 C1598 1.373 . S
C1597 C1599 1.389 . S
C1598 H1571 0.950 . S
C1598 C1584 1.377 . S
C1598 C1597 1.373 . S
C1599 C1583 1.377 . S
C1599 C1597 1.389 . S
C1599 C1600 1.524 . S
C1600 C1599 1.524 . S
C1600 C1601 1.397 . S
C1600 C1605 1.363 . S
C1601 H1572 0.950 . S
C1601 C1600 1.397 . S
C1601 C1602 1.334 . S
C1602 H1573 0.950 . S
C1602 C1601 1.334 . S
C1602 C1603 1.287 . S
C1603 C1602 1.287 . S
C1603 C1604 1.524 . S
C1603 H1606 0.999 . S
C1604 H1574 0.950 1_455 S
C1604 C1603 1.524 . S
C1604 C1605 1.415 . S
C1605 H1575 0.950 . S
C1605 C1600 1.363 . S
C1605 C1604 1.415 . S
H1606 C1603 0.999 . S
H1607 C1588 0.913 . S
C427 C58 1.465 . S
C442 C146 1.444 . S
C492 C230 1.445 . S
C477 C68 1.465 . S
C542 C223 1.451 . S
C527 C40 1.452 . S
C577 C50 1.451 . S
C592 C139 1.452 . S
C642 C303 1.446 . S
C627 C23 1.468 . S
C692 C387 1.445 . S
C677 C32 1.467 . S
C727 C5 1.455 . S
C742 C380 1.454 . S
C777 C14 1.453 . S
C792 C296 1.452 . S
C842 C130 1.335 . S
C827 C13 1.499 . S
C892 C214 1.336 . S
C877 C4 1.499 . S
C942 C225 1.397 . S
C927 C31 1.525 . S
C992 C141 1.397 . S
C977 C22 1.525 . S
C1042 C309 1.338 . S
C1027 C49 1.500 . S
C1077 C41 1.502 . S
C1092 C393 1.338 . S
C1142 C382 1.400 . S
C1127 C67 1.526 . S
C1177 C59 1.527 . S
C1192 C298 1.400 . S
C1242 C128 1.547 . S
C1227 C7 1.545 . S
C1292 C212 1.544 . S
C1277 C16 1.542 . S
C1327 C25 1.539 . S
C1342 C219 1.521 . S
C1392 C135 1.518 . S
C1377 C34 1.536 . S
C1442 C307 1.546 . S
C1427 C43 1.546 . S
C1477 C52 1.544 . S
C1492 C391 1.548 . S
C1527 C61 1.540 . S
C1542 C398 1.520 . S
C1577 C70 1.538 . S
C1592 C314 1.523 . S
