# Generated by pormake.
# Topology pyr, (3,6)-cn, num edge types: 1
# Building blocks:
#     Node 0, Type 0, BuildingBlock: MIDCAF_clean_linker_0, # of connection points: 3
#     Node 1, Type 0, BuildingBlock: MIDCAF_clean_linker_0, # of connection points: 3
#     Node 2, Type 0, BuildingBlock: MIDCAF_clean_linker_0, # of connection points: 3
#     Node 3, Type 0, BuildingBlock: MIDCAF_clean_linker_0, # of connection points: 3
#     Node 4, Type 0, BuildingBlock: MIDCAF_clean_linker_0, # of connection points: 3
#     Node 5, Type 0, BuildingBlock: MIDCAF_clean_linker_0, # of connection points: 3
#     Node 6, Type 0, BuildingBlock: MIDCAF_clean_linker_0, # of connection points: 3
#     Node 7, Type 0, BuildingBlock: MIDCAF_clean_linker_0, # of connection points: 3
#     Node 8, Type 1, BuildingBlock: PAMTOO_clean_sbu_0, # of connection points: 6
#     Node 9, Type 1, BuildingBlock: PAMTOO_clean_sbu_0, # of connection points: 6
#     Node 10, Type 1, BuildingBlock: PAMTOO_clean_sbu_0, # of connection points: 6
#     Node 11, Type 1, BuildingBlock: PAMTOO_clean_sbu_0, # of connection points: 6
#     Edge 12, Type (0, 1), BuildingBlock: OJICUG_clean_linker_0, # of connection points: 2
#     Edge 13, Type (0, 1), BuildingBlock: OJICUG_clean_linker_0, # of connection points: 2
#     Edge 14, Type (0, 1), BuildingBlock: OJICUG_clean_linker_0, # of connection points: 2
#     Edge 15, Type (0, 1), BuildingBlock: OJICUG_clean_linker_0, # of connection points: 2
#     Edge 16, Type (0, 1), BuildingBlock: OJICUG_clean_linker_0, # of connection points: 2
#     Edge 17, Type (0, 1), BuildingBlock: OJICUG_clean_linker_0, # of connection points: 2
#     Edge 18, Type (0, 1), BuildingBlock: OJICUG_clean_linker_0, # of connection points: 2
#     Edge 19, Type (0, 1), BuildingBlock: OJICUG_clean_linker_0, # of connection points: 2
#     Edge 20, Type (0, 1), BuildingBlock: OJICUG_clean_linker_0, # of connection points: 2
#     Edge 21, Type (0, 1), BuildingBlock: OJICUG_clean_linker_0, # of connection points: 2
#     Edge 22, Type (0, 1), BuildingBlock: OJICUG_clean_linker_0, # of connection points: 2
#     Edge 23, Type (0, 1), BuildingBlock: OJICUG_clean_linker_0, # of connection points: 2
#     Edge 24, Type (0, 1), BuildingBlock: OJICUG_clean_linker_0, # of connection points: 2
#     Edge 25, Type (0, 1), BuildingBlock: OJICUG_clean_linker_0, # of connection points: 2
#     Edge 26, Type (0, 1), BuildingBlock: OJICUG_clean_linker_0, # of connection points: 2
#     Edge 27, Type (0, 1), BuildingBlock: OJICUG_clean_linker_0, # of connection points: 2
#     Edge 28, Type (0, 1), BuildingBlock: OJICUG_clean_linker_0, # of connection points: 2
#     Edge 29, Type (0, 1), BuildingBlock: OJICUG_clean_linker_0, # of connection points: 2
#     Edge 30, Type (0, 1), BuildingBlock: OJICUG_clean_linker_0, # of connection points: 2
#     Edge 31, Type (0, 1), BuildingBlock: OJICUG_clean_linker_0, # of connection points: 2
#     Edge 32, Type (0, 1), BuildingBlock: OJICUG_clean_linker_0, # of connection points: 2
#     Edge 33, Type (0, 1), BuildingBlock: OJICUG_clean_linker_0, # of connection points: 2
#     Edge 34, Type (0, 1), BuildingBlock: OJICUG_clean_linker_0, # of connection points: 2
#     Edge 35, Type (0, 1), BuildingBlock: OJICUG_clean_linker_0, # of connection points: 2
# Relax obj value: 0.129
# Max RMSD: 0.174
# Mean RMSD: 0.073
data_MOF--net-pyr--node1-PAMTOO_clean_sbu_0--node2-MIDCAF_clean_linker_0--edge1-OJICUG_clean_linker_0
_symmetry_space_group_name_H-M    P1
_symmetry_Int_Tables_number       1
_symmetry_cell_setting            triclinic
loop_
_symmetry_equiv_pos_as_xyz
'x, y, z'
_cell_length_a     36.114267
_cell_length_b     37.334211
_cell_length_c     35.098285
_cell_angle_alpha  90.028556
_cell_angle_beta   90.073881
_cell_angle_gamma 103.25333
loop_
_atom_site_label
_atom_site_type_symbol
_atom_site_fract_x
_atom_site_fract_y
_atom_site_fract_z
_atom_type_partial_charge
C0 C 0.29814 0.26774 0.39676 0.0
C1 C 0.31336 0.23931 0.41179 0.0
C2 C 0.34743 0.23345 0.39641 0.0
C3 C 0.36312 0.25228 0.36372 0.0
H4 H 0.43769 0.24723 0.27196 0.0
H5 H 0.46544 0.20165 0.24002 0.0
H6 H 0.39779 0.20891 0.14005 0.0
H7 H 0.36981 0.25454 0.17196 0.0
H8 H 0.31141 0.30975 0.17429 0.0
H9 H 0.25946 0.33382 0.14729 0.0
H10 H 0.24409 0.38262 0.25613 0.0
H11 H 0.29614 0.35989 0.28244 0.0
H12 H 0.29968 0.3065 0.35187 0.0
H13 H 0.27198 0.27313 0.40784 0.0
H14 H 0.36051 0.21246 0.40806 0.0
H15 H 0.38767 0.24501 0.3509 0.0
N16 N 0.37712 0.27235 0.28507 0.0
N17 N 0.35755 0.2965 0.22867 0.0
N18 N 0.33296 0.30917 0.28769 0.0
C19 C 0.37942 0.27634 0.24661 0.0
C20 C 0.33469 0.31357 0.24931 0.0
C21 C 0.35392 0.28862 0.30586 0.0
C22 C 0.40119 0.25422 0.22465 0.0
C23 C 0.4292 0.23963 0.2429 0.0
C24 C 0.44527 0.21364 0.22457 0.0
C25 C 0.43342 0.20143 0.18776 0.0
C26 C 0.40706 0.21753 0.16866 0.0
C27 C 0.39127 0.24387 0.18683 0.0
C28 C 0.30775 0.3326 0.23063 0.0
C29 C 0.29747 0.32636 0.19211 0.0
C30 C 0.26746 0.33983 0.17676 0.0
C31 C 0.24737 0.35996 0.19957 0.0
C32 C 0.25909 0.36767 0.23748 0.0
C33 C 0.28888 0.35429 0.25273 0.0
C34 C 0.34511 0.27748 0.34597 0.0
C35 C 0.31398 0.28678 0.36431 0.0
C36 C 0.05597 0.83612 0.72302 0.0
C37 C 0.06862 0.84966 0.68688 0.0
C38 C 0.09653 0.83528 0.66833 0.0
C39 C 0.11318 0.80958 0.68655 0.0
H40 H 0.1874 0.73415 0.6739 0.0
H41 H 0.24329 0.71717 0.64569 0.0
H42 H 0.29035 0.71165 0.75796 0.0
H43 H 0.23523 0.7277 0.78616 0.0
H44 H 0.19927 0.74487 0.85605 0.0
H45 H 0.22374 0.77731 0.91364 0.0
H46 H 0.13567 0.83841 0.90868 0.0
H47 H 0.11188 0.80685 0.84981 0.0
H48 H 0.06368 0.80216 0.77001 0.0
H49 H 0.03457 0.84672 0.73803 0.0
H50 H 0.1064 0.84485 0.64018 0.0
H51 H 0.13586 0.8004 0.67215 0.0
N52 N 0.15105 0.76096 0.72894 0.0
N53 N 0.17402 0.74832 0.7887 0.0
N54 N 0.12481 0.77919 0.78495 0.0
C55 C 0.17529 0.74607 0.75018 0.0
C56 C 0.14901 0.76473 0.80643 0.0
C57 C 0.12529 0.77716 0.74628 0.0
C58 C 0.20675 0.73252 0.73231 0.0
C59 C 0.2095 0.72894 0.69254 0.0
C60 C 0.24139 0.71927 0.67638 0.0
C61 C 0.27122 0.71374 0.69973 0.0
C62 C 0.26799 0.71639 0.73934 0.0
C63 C 0.23613 0.72538 0.75544 0.0
C64 C 0.15458 0.77436 0.84734 0.0
C65 C 0.18434 0.76448 0.86765 0.0
C66 C 0.19828 0.78296 0.90108 0.0
C67 C 0.18245 0.81139 0.91513 0.0
C68 C 0.14925 0.81746 0.89784 0.0
C69 C 0.13547 0.79917 0.86417 0.0
C70 C 0.10253 0.79807 0.72388 0.0
C71 C 0.07283 0.81069 0.74138 0.0
C72 C 0.61907 0.23673 0.96903 0.0
C73 C 0.58633 0.21446 0.95255 0.0
C74 C 0.56944 0.2285 0.92138 0.0
C75 C 0.58517 0.26392 0.90704 0.0
H76 H 0.58737 0.33981 0.81208 0.0
H77 H 0.56351 0.36826 0.75723 0.0
H78 H 0.63302 0.47393 0.7898 0.0
H79 H 0.65685 0.44582 0.84435 0.0
H80 H 0.74102 0.43449 0.89228 0.0
H81 H 0.79852 0.46427 0.92681 0.0
H82 H 0.75615 0.40115 1.02732 0.0
H83 H 0.69991 0.37028 0.99221 0.0
H84 H 0.65979 0.28787 0.96885 0.0
H85 H 0.63246 0.22731 0.99351 0.0
H86 H 0.54425 0.21202 0.90789 0.0
H87 H 0.57156 0.27389 0.88305 0.0
N88 N 0.62191 0.33874 0.8785 0.0
N89 N 0.6693 0.39332 0.88638 0.0
N90 N 0.66539 0.34454 0.92907 0.0
C91 C 0.6388 0.37356 0.86665 0.0
C92 C 0.68264 0.37895 0.91771 0.0
C93 C 0.63526 0.32405 0.90986 0.0
C94 C 0.62409 0.3904 0.83287 0.0
C95 C 0.5976 0.36911 0.80758 0.0
C96 C 0.58406 0.38538 0.77596 0.0
C97 C 0.59627 0.42343 0.7691 0.0
C98 C 0.62269 0.44465 0.79439 0.0
C99 C 0.63653 0.42838 0.82565 0.0
C100 C 0.71603 0.3998 0.93934 0.0
C101 C 0.74396 0.42722 0.92182 0.0
C102 C 0.77691 0.44441 0.9418 0.0
C103 C 0.78242 0.43503 0.98 0.0
C104 C 0.75364 0.40852 0.99776 0.0
C105 C 0.72112 0.39095 0.97764 0.0
C106 C 0.61796 0.28613 0.92377 0.0
C107 C 0.63461 0.27186 0.95492 0.0
C108 C 0.74565 0.63842 0.49787 0.0
C109 C 0.71682 0.61206 0.47985 0.0
C110 C 0.72229 0.60298 0.44155 0.0
C111 C 0.75524 0.62031 0.42175 0.0
H112 H 0.84417 0.60156 0.34602 0.0
H113 H 0.8682 0.57344 0.29161 0.0
H114 H 0.93496 0.67968 0.25737 0.0
H115 H 0.91095 0.70814 0.31213 0.0
H116 H 0.927 0.77428 0.38362 0.0
H117 H 0.95391 0.83627 0.40846 0.0
H118 H 0.86607 0.82038 0.49424 0.0
H119 H 0.8391 0.75968 0.46955 0.0
H120 H 0.79938 0.6767 0.49266 0.0
H121 H 0.7432 0.64556 0.52751 0.0
H122 H 0.70066 0.58326 0.42637 0.0
H123 H 0.75815 0.61327 0.39214 0.0
N124 N 0.83012 0.65426 0.38688 0.0
N125 N 0.87726 0.70903 0.37919 0.0
N126 N 0.83359 0.70309 0.4295 0.0
C127 C 0.86061 0.67412 0.36732 0.0
C128 C 0.8637 0.7237 0.41043 0.0
C129 C 0.81657 0.6686 0.41808 0.0
C130 C 0.87555 0.65728 0.3337 0.0
C131 C 0.86393 0.61912 0.32698 0.0
C132 C 0.8779 0.60285 0.29581 0.0
C133 C 0.90358 0.62423 0.27009 0.0
C134 C 0.91499 0.66243 0.27647 0.0
C135 C 0.90137 0.67872 0.30802 0.0
C136 C 0.88078 0.76171 0.42439 0.0
C137 C 0.91337 0.78414 0.40765 0.0
C138 C 0.92889 0.81963 0.422 0.0
C139 C 0.912 0.83355 0.45322 0.0
C140 C 0.87946 0.81107 0.46972 0.0
C141 C 0.86413 0.77585 0.45559 0.0
C142 C 0.78319 0.6476 0.43953 0.0
C143 C 0.77815 0.65615 0.47791 0.0
C144 C 0.55962 0.84687 0.91803 0.0
C145 C 0.55846 0.84631 0.95802 0.0
C146 C 0.57329 0.81969 0.97745 0.0
C147 C 0.59099 0.7958 0.95752 0.0
H148 H 0.69129 0.75346 0.96882 0.0
H149 H 0.74422 0.73181 0.99717 0.0
H150 H 0.74981 0.66609 0.89698 0.0
H151 H 0.69723 0.68753 0.86877 0.0
H152 H 0.70092 0.74641 0.7947 0.0
H153 H 0.72845 0.77888 0.73819 0.0
H154 H 0.63647 0.83513 0.73322 0.0
H155 H 0.60941 0.80348 0.79088 0.0
H156 H 0.57861 0.82512 0.86734 0.0
H157 H 0.54875 0.8671 0.90211 0.0
H158 H 0.57211 0.81793 1.00824 0.0
H159 H 0.60326 0.77657 0.97354 0.0
N160 N 0.6391 0.75674 0.91571 0.0
N161 N 0.66558 0.74348 0.85787 0.0
N162 N 0.62051 0.77948 0.85817 0.0
C163 C 0.66299 0.7399 0.8963 0.0
C164 C 0.64452 0.76319 0.83852 0.0
C165 C 0.61727 0.77618 0.89664 0.0
C166 C 0.69019 0.72231 0.91649 0.0
C167 C 0.70329 0.73376 0.95325 0.0
C168 C 0.73382 0.72168 0.96932 0.0
C169 C 0.75133 0.69748 0.94916 0.0
C170 C 0.7368 0.68455 0.91332 0.0
C171 C 0.70673 0.69696 0.89711 0.0
C172 C 0.65372 0.77338 0.79824 0.0
C173 C 0.68584 0.7649 0.78109 0.0
C174 C 0.70158 0.78341 0.74831 0.0
C175 C 0.68528 0.81047 0.73179 0.0
C176 C 0.65033 0.81524 0.74599 0.0
C177 C 0.63474 0.79696 0.779 0.0
C178 C 0.59404 0.79777 0.91764 0.0
C179 C 0.57707 0.82283 0.89808 0.0
C180 C 0.84761 0.23271 0.24779 0.0
C181 C 0.81284 0.23756 0.23309 0.0
C182 C 0.79664 0.26495 0.24905 0.0
C183 C 0.81233 0.28383 0.28171 0.0
H184 H 0.79605 0.35775 0.36544 0.0
H185 H 0.7438 0.37935 0.39319 0.0
H186 H 0.76029 0.32756 0.49998 0.0
H187 H 0.81253 0.30496 0.47168 0.0
H188 H 0.89194 0.27213 0.47541 0.0
H189 H 0.92265 0.23045 0.51027 0.0
H190 H 0.95133 0.18519 0.40391 0.0
H191 H 0.92201 0.22748 0.36911 0.0
H192 H 0.88836 0.24487 0.29292 0.0
H193 H 0.86138 0.21254 0.23547 0.0
H194 H 0.76991 0.26952 0.23853 0.0
H195 H 0.79735 0.30264 0.29485 0.0
N196 N 0.83263 0.30649 0.35826 0.0
N197 N 0.85917 0.29436 0.41653 0.0
N198 N 0.87749 0.27035 0.35957 0.0
C199 C 0.83532 0.31092 0.39662 0.0
C200 C 0.88083 0.27438 0.39798 0.0
C201 C 0.85354 0.28632 0.33944 0.0
C202 C 0.80831 0.32928 0.41619 0.0
C203 C 0.789 0.35131 0.39503 0.0
C204 C 0.75908 0.36397 0.41107 0.0
C205 C 0.7476 0.35502 0.44879 0.0
C206 C 0.7681 0.33451 0.47067 0.0
C207 C 0.79829 0.32189 0.45457 0.0
C208 C 0.90389 0.2529 0.41941 0.0
C209 C 0.90533 0.25374 0.45942 0.0
C210 C 0.92275 0.22963 0.47942 0.0
C211 C 0.93894 0.20398 0.45992 0.0
C212 C 0.9394 0.20464 0.41992 0.0
C213 C 0.92223 0.22885 0.39993 0.0
C214 C 0.84431 0.27543 0.29931 0.0
C215 C 0.86316 0.25139 0.28067 0.0
C216 C 0.22428 0.59643 0.22029 0.0
C217 C 0.21431 0.61241 0.18654 0.0
C218 C 0.23985 0.64338 0.17173 0.0
C219 C 0.27387 0.65864 0.19055 0.0
H220 H 0.37174 0.73566 0.17731 0.0
H221 H 0.39701 0.79642 0.15152 0.0
H222 H 0.4408 0.8348 0.26246 0.0
H223 H 0.41589 0.77274 0.28847 0.0
H224 H 0.42924 0.68995 0.3369 0.0
H225 H 0.45286 0.66097 0.39095 0.0
H226 H 0.35431 0.57026 0.38494 0.0
H227 H 0.33104 0.59879 0.33024 0.0
H228 H 0.26501 0.5993 0.26555 0.0
H229 H 0.20516 0.57263 0.23259 0.0
H230 H 0.23359 0.65595 0.14541 0.0
H231 H 0.29244 0.6827 0.17809 0.0
N232 N 0.33917 0.69469 0.2327 0.0
N233 N 0.38349 0.69786 0.28208 0.0
N234 N 0.33164 0.64652 0.27667 0.0
C235 C 0.37116 0.71306 0.25061 0.0
C236 C 0.36398 0.66431 0.29517 0.0
C237 C 0.31907 0.66168 0.24532 0.0
C238 C 0.39129 0.74938 0.23513 0.0
C239 C 0.38693 0.75687 0.19635 0.0
C240 C 0.40125 0.79192 0.18154 0.0
C241 C 0.42009 0.8209 0.20505 0.0
C242 C 0.42629 0.81315 0.24355 0.0
C243 C 0.41207 0.77763 0.25846 0.0
C244 C 0.3781 0.6469 0.32895 0.0
C245 C 0.41247 0.66385 0.34702 0.0
C246 C 0.42598 0.64724 0.37831 0.0
C247 C 0.40553 0.61318 0.39263 0.0
C248 C 0.37116 0.59621 0.37455 0.0
C249 C 0.35766 0.6128 0.34321 0.0
C250 C 0.28357 0.64342 0.22484 0.0
C251 C 0.25854 0.61179 0.23927 0.0
C252 C 0.09808 0.25763 0.68099 0.0
C253 C 0.07882 0.22884 0.70443 0.0
C254 C 0.07242 0.23682 0.74281 0.0
C255 C 0.08678 0.27237 0.75769 0.0
H256 H 0.06993 0.35979 0.83616 0.0
H257 H 0.04622 0.38865 0.89021 0.0
H258 H 0.14421 0.47991 0.88414 0.0
H259 H 0.16758 0.45147 0.82945 0.0
H260 H 0.23408 0.45071 0.76518 0.0
H261 H 0.29393 0.47737 0.73238 0.0
H262 H 0.26531 0.3942 0.64492 0.0
H263 H 0.20647 0.36746 0.67744 0.0
H264 H 0.12799 0.31376 0.67678 0.0
H265 H 0.10249 0.25299 0.65104 0.0
H266 H 0.05761 0.21534 0.76167 0.0
H267 H 0.08273 0.27743 0.78761 0.0
N268 N 0.1156 0.35208 0.78134 0.0
N269 N 0.16732 0.40352 0.77603 0.0
N270 N 0.15994 0.35526 0.7321 0.0
C271 C 0.13501 0.38569 0.79445 0.0
C272 C 0.17995 0.38834 0.74473 0.0
C273 C 0.12799 0.33684 0.74993 0.0
C274 C 0.12081 0.4031 0.82818 0.0
C275 C 0.08656 0.38598 0.84626 0.0
C276 C 0.073 0.40253 0.87755 0.0
C277 C 0.09327 0.4367 0.89187 0.0
C278 C 0.1275 0.45386 0.87377 0.0
C279 C 0.14107 0.43733 0.84242 0.0
C280 C 0.21543 0.40665 0.72432 0.0
C281 C 0.2405 0.43825 0.73887 0.0
C282 C 0.27477 0.45361 0.71998 0.0
C283 C 0.2847 0.43766 0.68621 0.0
C284 C 0.25909 0.40675 0.67127 0.0
C285 C 0.22508 0.39149 0.68999 0.0
C286 C 0.10791 0.30043 0.73445 0.0
C287 C 0.11254 0.29271 0.69577 0.0
Dy288 Dy 0.0435 0.03556 0.55991 0.0
Dy289 Dy 0.96001 1.02119 0.60247 0.0
C290 C 0.02952 0.08775 0.6283 0.0
O291 O 0.04586 1.00294 0.61266 0.0
O292 O 0.98366 0.97265 0.61692 0.0
O293 O 0.10403 0.04224 0.56655 0.0
O294 O 0.07917 0.03974 0.51002 0.0
O295 O 0.95043 0.98907 0.54785 0.0
O296 O 0.01076 0.98125 0.53806 0.0
O297 O 0.96615 0.07412 0.5718 0.0
O298 O 0.01059 0.06919 0.5265 0.0
O299 O 0.90018 1.02051 0.59903 0.0
O300 O 0.92487 1.00756 0.65236 0.0
C301 C 0.01971 0.97435 0.6235 0.0
O302 O 0.04666 0.08538 0.5957 0.0
O303 O -0.00016 0.06228 0.6394 0.0
C304 C 0.14206 0.07497 0.51829 0.0
C305 C 0.20382 0.131 0.49452 0.0
C306 C 0.16703 0.1376 0.49685 0.0
C307 C 0.13634 0.10977 0.50876 0.0
C308 C 0.17876 0.06862 0.51712 0.0
C309 C 0.20941 0.09639 0.50541 0.0
C310 C 0.11045 0.04495 0.53005 0.0
C311 C 0.97399 0.97149 0.53175 0.0
C312 C 0.98387 0.08461 0.53973 0.0
C313 C 0.86082 0.97773 0.63927 0.0
C314 C 0.79679 0.92046 0.65426 0.0
C315 C 0.83362 0.91383 0.65508 0.0
C316 C 0.86539 0.94221 0.64752 0.0
C317 C 0.82414 0.98405 0.63675 0.0
C318 C 0.79238 0.95567 0.64404 0.0
C319 C 0.89371 1.00874 0.6339 0.0
H320 H 0.16171 0.16383 0.48826 0.0
H321 H 0.10815 0.11521 0.50994 0.0
H322 H 0.18366 0.04201 0.52494 0.0
H323 H 0.23745 0.09061 0.50445 0.0
H324 H 0.83808 0.88716 0.66325 0.0
H325 H 0.8935 0.93663 0.64914 0.0
H326 H 0.8201 1.0112 0.62992 0.0
H327 H 0.7644 0.96154 0.64258 0.0
Dy328 Dy 0.45415 1.01392 1.06052 0.0
Dy329 Dy 0.53809 0.02773 0.10242 0.0
C330 C 0.46844 0.96179 0.12875 0.0
O331 O 0.45283 0.04715 0.11309 0.0
O332 O 0.51531 0.07674 0.11695 0.0
O333 O 0.39384 1.00813 1.06788 0.0
O334 O 0.41769 1.00941 1.01105 0.0
O335 O 0.54732 0.05959 1.04769 0.0
O336 O 0.48708 0.06788 1.03821 0.0
O337 O 0.53102 0.97469 1.07172 0.0
O338 O 0.48662 0.98029 1.02654 0.0
O339 O 0.59785 0.02818 0.09845 0.0
O340 O 0.57369 0.04077 0.15216 0.0
C341 C 0.47941 0.07553 0.1237 0.0
O342 O 0.4511 0.96411 0.09622 0.0
O343 O 0.49827 0.98721 0.13969 0.0
C344 C 0.35457 0.97522 1.02046 0.0
C345 C 0.29166 0.91964 0.9981 0.0
C346 C 0.32812 0.91227 1.00072 0.0
C347 C 0.35938 0.93987 1.01191 0.0
C348 C 0.3182 0.98236 1.01905 0.0
C349 C 0.28698 0.95482 1.00803 0.0
C350 C 0.38678 1.00499 1.03149 0.0
C351 C 0.5238 0.07728 1.03166 0.0
C352 C 0.51321 0.96455 1.03955 0.0
C353 C 0.63764 0.07048 0.13899 0.0
C354 C 0.70174 0.12752 0.15466 0.0
C355 C 0.665 0.13441 0.15465 0.0
C356 C 0.63321 0.10613 0.14675 0.0
C357 C 0.67425 0.06389 0.13727 0.0
C358 C 0.70605 0.09216 0.1449 0.0
C359 C 0.60465 0.0396 0.13344 0.0
H360 H 0.33275 0.88559 0.99283 0.0
H361 H 0.3873 0.93384 1.01331 0.0
H362 H 0.31401 1.00941 1.02611 0.0
H363 H 0.25922 0.96121 1.0068 0.0
H364 H 0.6606 0.16119 0.16245 0.0
H365 H 0.60515 0.11189 0.14777 0.0
H366 H 0.67819 0.03662 0.13082 0.0
H367 H 0.73396 0.0861 0.14407 0.0
Dy368 Dy 0.49872 0.48174 0.55828 0.0
Dy369 Dy 0.50384 0.55853 0.60612 0.0
C370 C 0.53659 0.49238 0.64101 0.0
O371 O 0.44936 0.47015 0.59853 0.0
O372 O 0.44255 0.52915 0.6065 0.0
O373 O 0.49369 0.4229 0.55758 0.0
O374 O 0.50019 0.45348 0.50477 0.0
O375 O 0.48803 0.56965 0.54641 0.0
O376 O 0.46065 0.51118 0.52621 0.0
O377 O 0.56357 0.56219 0.58679 0.0
O378 O 0.55008 0.52172 0.53665 0.0
O379 O 0.51745 0.61793 0.60928 0.0
O380 O 0.49325 0.58549 0.65808 0.0
C381 C 0.42949 0.49351 0.6101 0.0
O382 O 0.53926 0.48022 0.60625 0.0
O383 O 0.51888 0.51875 0.64792 0.0
C384 C 0.5356 0.40782 0.51115 0.0
C385 C 0.60488 0.38852 0.49341 0.0
C386 C 0.58874 0.38143 0.52981 0.0
C387 C 0.55451 0.39107 0.53865 0.0
C388 C 0.55088 0.41323 0.47424 0.0
C389 C 0.58521 0.40388 0.46553 0.0
C390 C 0.50227 0.42278 0.52147 0.0
C391 C 0.4665 0.54712 0.52231 0.0
C392 C 0.57342 0.54832 0.55494 0.0
C393 C 0.47146 0.63861 0.64558 0.0
C394 C 0.40826 0.67022 0.6556 0.0
C395 C 0.41347 0.65284 0.62109 0.0
C396 C 0.44465 0.63699 0.61621 0.0
C397 C 0.46706 0.65679 0.67955 0.0
C398 C 0.43575 0.67241 0.68458 0.0
C399 C 0.5015 0.61805 0.64259 0.0
H400 H 0.60325 0.36964 0.55188 0.0
H401 H 0.54356 0.38639 0.56738 0.0
H402 H 0.53687 0.42578 0.45235 0.0
H403 H 0.59658 0.40899 0.437 0.0
H404 H 0.39316 0.65098 0.59803 0.0
H405 H 0.44728 0.62263 0.58987 0.0
H406 H 0.48714 0.6578 0.70272 0.0
H407 H 0.43238 0.68491 0.71182 0.0
Dy408 Dy -0.00048 0.56663 1.05882 0.0
Dy409 Dy -0.00385 0.48999 0.10631 0.0
C410 C 0.9628 0.55539 0.14168 0.0
O411 O 0.0494 0.57895 0.09862 0.0
O412 O 0.05709 0.5202 0.10634 0.0
O413 O 0.00285 0.62521 1.05896 0.0
O414 O -0.00354 0.5952 1.00579 0.0
O415 O 0.01137 0.47935 1.04628 0.0
O416 O 0.03777 0.53801 1.02601 0.0
O417 O 0.93611 0.48478 0.08697 0.0
O418 O 0.94877 0.52572 1.03721 0.0
O419 O 0.98787 0.43074 0.1087 0.0
O420 O 0.00399 0.46353 0.15939 0.0
C421 C 0.06971 0.55588 0.11002 0.0
O422 O 0.95888 0.56678 0.10688 0.0
O423 O 0.9817 0.52991 0.14837 0.0
C424 C 0.95903 0.63801 1.0147 0.0
C425 C 0.89079 0.65904 0.99721 0.0
C426 C 0.89014 0.62679 1.01805 0.0
C427 C 0.92391 0.61646 1.02678 0.0
C428 C 0.96006 0.67052 0.9944 0.0
C429 C 0.92614 0.68106 0.98581 0.0
C430 C -0.00606 0.62552 1.02297 0.0
C431 C 0.03239 0.50209 1.02206 0.0
C432 C 0.92584 0.49877 1.05536 0.0
C433 C 0.03426 0.41495 0.14959 0.0
C434 C 0.10386 0.3945 0.16159 0.0
C435 C 0.0879 0.39264 0.12494 0.0
C436 C 0.05352 0.40304 0.1189 0.0
C437 C 0.04932 0.41488 0.18646 0.0
C438 C 0.08388 0.40501 0.19238 0.0
C439 C 0.00135 0.4316 0.14327 0.0
H440 H 0.86348 0.6095 1.02767 0.0
H441 H 0.92259 0.59137 1.04273 0.0
H442 H 0.98693 0.68745 0.98486 0.0
H443 H 0.92749 0.70591 0.96944 0.0
H444 H 0.1028 0.38464 0.10076 0.0
H445 H 0.04282 0.40298 0.09006 0.0
H446 H 0.03506 0.4239 0.21056 0.0
H447 H 0.09536 0.40615 0.221 0.0
C448 C 0.28694 0.17431 0.43178 0.0
C449 C 0.29026 0.21208 0.43828 0.0
H450 H 0.25687 0.11939 0.44394 0.0
C451 C 0.2673 0.22292 0.46638 0.0
H452 H 0.30346 0.16486 0.40981 0.0
C453 C 0.24014 0.19659 0.4859 0.0
C454 C 0.23556 0.15895 0.4778 0.0
H455 H 0.26945 0.25178 0.47238 0.0
H456 H 0.22214 0.20573 0.50667 0.0
C457 C 0.25997 0.14811 0.45129 0.0
C458 C 0.20847 0.87647 0.93519 0.0
C459 C 0.20465 0.83871 0.94222 0.0
H460 H 0.23911 0.93133 0.94686 0.0
C461 C 0.22686 0.82798 0.97115 0.0
H462 H 0.19252 0.88586 0.91265 0.0
C463 C 0.25407 0.85432 0.99069 0.0
C464 C 0.2594 0.89188 0.98183 0.0
H465 H 0.22429 0.79916 0.97761 0.0
H466 H 0.27167 0.84523 1.01194 0.0
C467 C 0.23546 0.90268 0.95475 0.0
C468 C 0.57045 0.47477 0.74063 0.0
C469 C 0.58134 0.44116 0.73604 0.0
H470 H 0.54782 0.51712 0.71463 0.0
C471 C 0.578 0.42487 0.69965 0.0
H472 H 0.57231 0.48795 0.76829 0.0
C473 C 0.56423 0.4418 0.66869 0.0
C474 C 0.55296 0.47523 0.67342 0.0
H475 H 0.58644 0.39918 0.69501 0.0
H476 H 0.56196 0.42838 0.64114 0.0
C477 C 0.55626 0.49146 0.70983 0.0
C478 C 0.92056 0.62223 0.2004 0.0
C479 C 0.91848 0.60653 0.23699 0.0
H480 H 0.93545 0.61824 0.14165 0.0
C481 C 0.9305 0.57351 0.24174 0.0
H482 H 0.91122 0.64744 0.19564 0.0
C483 C 0.9446 0.55684 0.21086 0.0
C484 C 0.94661 0.57247 0.17424 0.0
H485 H 0.9296 0.5608 0.26956 0.0
H486 H 0.95395 0.53166 0.21577 0.0
C487 C 0.93419 0.60529 0.16937 0.0
C488 C 0.48422 0.16757 0.17195 0.0
C489 C 0.44588 0.16975 0.17081 0.0
H490 H 0.52507 0.13607 0.15782 0.0
C491 C 0.4188 0.14047 0.15489 0.0
H492 H 0.50566 0.18977 0.18409 0.0
C493 C 0.42972 0.10967 0.1404 0.0
C494 C 0.46807 0.1075 0.14114 0.0
H495 H 0.38897 0.1411 0.15421 0.0
H496 H 0.40802 0.08771 0.12821 0.0
C497 C 0.49528 0.13683 0.15697 0.0
C498 C 0.08207 0.91124 0.6554 0.0
C499 C 0.0554 0.88107 0.67022 0.0
H500 H 0.09185 0.96437 0.62973 0.0
C501 C 0.01672 0.88209 0.67051 0.0
H502 H 0.11214 0.91157 0.65543 0.0
C503 C 0.00495 0.91253 0.65574 0.0
C504 C 0.03174 0.94271 0.64091 0.0
H505 H -0.00444 0.85919 0.6818 0.0
H506 H 0.97492 0.91237 0.65588 0.0
C507 C 0.07042 0.94172 0.64107 0.0
C508 C 0.83764 0.48862 0.99381 0.0
C509 C 0.81831 0.45201 1.00091 0.0
H510 H 0.88645 0.53194 1.00537 0.0
C511 C 0.83407 0.43149 1.02765 0.0
H512 H 0.82619 0.50567 0.97418 0.0
C513 C 0.86831 0.44697 1.04633 0.0
C514 C 0.88802 0.48313 1.03825 0.0
H515 H 0.82057 0.40304 1.03352 0.0
H516 H 0.87995 0.43019 1.06614 0.0
C517 C 0.87215 0.50384 1.012 0.0
C518 C 0.66129 0.55854 0.49305 0.0
C519 C 0.68088 0.59501 0.5006 0.0
H520 H 0.61228 0.5153 0.50426 0.0
C521 C 0.66535 0.61536 0.52767 0.0
H522 H 0.67254 0.54161 0.47313 0.0
C523 C 0.63116 0.59986 0.54628 0.0
C524 C 0.61121 0.56385 0.53782 0.0
H525 H 0.67901 0.64371 0.53388 0.0
H526 H 0.61973 0.61654 0.56637 0.0
C527 C 0.62679 0.54329 0.51118 0.0
C528 C 0.20452 0.40421 0.19704 0.0
C529 C 0.21265 0.37079 0.18536 0.0
H530 H 0.16372 0.43771 0.19871 0.0
C531 C 0.18564 0.34642 0.16304 0.0
H532 H 0.22496 0.42402 0.21348 0.0
C533 C 0.15066 0.35457 0.15417 0.0
C534 C 0.14192 0.38701 0.16782 0.0
H535 H 0.19076 0.32028 0.15387 0.0
H536 H 0.12985 0.33483 0.13803 0.0
C537 C 0.16948 0.4121 0.1886 0.0
C538 C 0.53027 0.16497 0.97414 0.0
C539 C 0.56975 0.17733 0.96901 0.0
H540 H 0.4848 0.12388 0.99779 0.0
C541 C 0.59364 0.15497 0.98219 0.0
H542 H 0.51103 0.18154 0.96466 0.0
C543 C 0.57867 0.12202 1.00145 0.0
C544 C 0.53934 0.11039 1.00796 0.0
H545 H 0.62413 0.16324 0.97815 0.0
H546 H 0.59811 0.1061 1.01195 0.0
C547 C 0.51526 0.13194 0.99339 0.0
C548 C 0.96785 0.88358 0.47451 0.0
C549 C 0.92836 0.8708 0.46966 0.0
H550 H 0.01322 0.92517 0.49775 0.0
C551 C 0.90431 0.89291 0.48301 0.0
H552 H 0.98723 0.86723 0.4649 0.0
C553 C 0.91915 0.92605 0.5021 0.0
C554 C 0.95851 0.93812 0.50829 0.0
H555 H 0.87379 0.88434 0.4792 0.0
H556 H 0.89959 0.94178 0.51272 0.0
C557 C 0.98273 0.91679 0.49359 0.0
C558 C 0.30427 0.67501 0.65977 0.0
C559 C 0.30617 0.70552 0.68361 0.0
H560 H 0.335 0.63936 0.63281 0.0
C561 C 0.34189 0.72637 0.6951 0.0
H562 H 0.27699 0.6584 0.65078 0.0
C563 C 0.37511 0.71594 0.68445 0.0
C564 C 0.37334 0.68409 0.66248 0.0
H565 H 0.34404 0.75031 0.71316 0.0
H566 H 0.40216 0.73241 0.6942 0.0
C567 C 0.33755 0.66424 0.64945 0.0
C568 C 0.70992 0.87552 0.71116 0.0
C569 C 0.70817 0.83791 0.70535 0.0
H570 H 0.73938 0.93082 0.70004 0.0
C571 C 0.73281 0.82769 0.67855 0.0
H572 H 0.69199 0.88454 0.73208 0.0
C573 C 0.76038 0.85453 0.66013 0.0
C574 C 0.76376 0.89206 0.6681 0.0
H575 H 0.73186 0.79895 0.67304 0.0
H576 H 0.7799 0.84586 0.64069 0.0
C577 C 0.73734 0.90223 0.69279 0.0
C578 C 0.78794 0.17239 0.21282 0.0
C579 C 0.79004 0.21001 0.20662 0.0
H580 H 0.7583 0.11712 0.20172 0.0
C581 C 0.76588 0.2202 0.17926 0.0
H582 H 0.80551 0.16341 0.23417 0.0
C583 C 0.73843 0.19337 0.1606 0.0
C584 C 0.73469 0.15586 0.16888 0.0
H585 H 0.76712 0.24894 0.17346 0.0
H586 H 0.71928 0.20204 0.14068 0.0
C587 C 0.76063 0.14569 0.19421 0.0
C588 C 0.43816 0.61749 0.45668 0.0
C589 C 0.41999 0.59571 0.42633 0.0
H590 H 0.46658 0.6195 0.51037 0.0
C591 C 0.41615 0.5573 0.42846 0.0
H592 H 0.44103 0.64701 0.45663 0.0
C593 C 0.43063 0.54131 0.45972 0.0
C594 C 0.4494 0.5633 0.48966 0.0
H595 H 0.40266 0.53958 0.40555 0.0
H596 H 0.42765 0.51178 0.4601 0.0
C597 C 0.45267 0.60158 0.48777 0.0
C598 C 0.06093 0.43214 0.956 0.0
C599 C 0.0788 0.45404 0.92566 0.0
H600 H 0.03279 0.42987 1.00977 0.0
C601 C 0.08234 0.4924 0.9279 0.0
H602 H 0.05831 0.40266 0.95586 0.0
C603 C 0.06786 0.50824 0.95927 0.0
C604 C 0.04941 0.48612 0.98921 0.0
H605 H 0.0956 0.51021 0.90501 0.0
H606 H 0.07063 0.53774 0.95975 0.0
C607 C 0.04644 0.44789 0.98719 0.0
C608 C 0.56509 0.89122 1.01187 0.0
C609 C 0.54507 0.8754 0.97941 0.0
H610 H 0.57099 0.93142 1.05581 0.0
C611 C 0.5139 0.88905 0.96675 0.0
H612 H 0.58976 0.88213 1.02198 0.0
C613 C 0.50325 0.91802 0.98608 0.0
C614 C 0.52355 0.93383 1.01845 0.0
H615 H 0.4977 0.87732 0.94195 0.0
H616 H 0.47918 0.92796 0.9757 0.0
C617 C 0.55445 0.91989 1.03113 0.0
C618 C 0.98409 0.16188 0.46895 0.0
C619 C 0.95216 0.1746 0.48101 0.0
H620 H 0.0193 0.12341 0.47788 0.0
C621 C 0.93126 0.15751 0.51238 0.0
H622 H 0.001 0.1746 0.44503 0.0
C623 C 0.94178 0.1285 0.53115 0.0
C624 C 0.97344 0.1155 0.51903 0.0
H625 H 0.90601 0.16587 0.52196 0.0
H626 H 0.92459 0.11597 0.555 0.0
C627 C -0.0054 0.13257 0.48775 0.0
C628 C 0.1626 0.55952 0.16294 0.0
C629 C 0.17724 0.59762 0.16695 0.0
H630 H 0.1176 0.51647 0.14152 0.0
C631 C 0.15636 0.62178 0.15162 0.0
H632 H 0.17807 0.54014 0.17405 0.0
C633 C 0.12183 0.60828 0.13276 0.0
C634 C 0.10719 0.57022 0.12866 0.0
H635 H 0.16646 0.65128 0.15465 0.0
H636 H 0.10649 0.62777 0.12165 0.0
C637 C 0.12805 0.54599 0.14395 0.0
C638 C 0.34259 0.42806 0.65152 0.0
C639 C 0.32183 0.45234 0.66677 0.0
H640 H 0.39235 0.42179 0.62171 0.0
C641 C 0.33667 0.49041 0.66283 0.0
H642 H 0.33236 0.39857 0.6545 0.0
C643 C 0.37128 0.5038 0.64395 0.0
C644 C 0.39199 0.47943 0.62872 0.0
H645 H 0.32131 0.50989 0.6739 0.0
H646 H 0.38187 0.5333 0.64152 0.0
C647 C 0.37715 0.4414 0.63277 0.0
C648 C 0.81639 0.71435 0.9787 0.0
C649 C 0.786 0.68727 0.96411 0.0
H650 H 0.87344 0.72672 1.00046 0.0
C651 C 0.79 0.6508 0.96151 0.0
H652 H 0.81429 0.74277 0.98064 0.0
C653 C 0.82381 0.64167 0.97268 0.0
C654 C 0.85454 0.66885 0.98649 0.0
H655 H 0.76702 0.62933 0.95052 0.0
H656 H 0.8262 0.61341 0.96967 0.0
C657 C 0.8504 0.70526 0.9896 0.0
C658 C 0.46698 0.88257 0.19777 0.0
C659 C 0.43165 0.85893 0.18902 0.0
H660 H 0.50648 0.93382 0.18572 0.0
C661 C 0.40753 0.87122 0.16308 0.0
H662 H 0.48628 0.87402 0.2176 0.0
C663 C 0.41912 0.90508 0.14474 0.0
C664 C 0.45507 0.92802 0.15203 0.0
H665 H 0.37966 0.85433 0.15642 0.0
H666 H 0.4 0.91297 0.12423 0.0
C667 C 0.47857 0.91682 0.17947 0.0
C668 C 0.0315 0.16737 0.69707 0.0
C669 C 0.06697 0.19076 0.68843 0.0
H670 H 0.99169 0.11625 0.68499 0.0
C671 C 0.09099 0.17817 0.66265 0.0
H672 H 0.01228 0.17614 0.71677 0.0
C673 C 0.07916 0.14427 0.64435 0.0
C674 C 0.04308 0.12157 0.65154 0.0
H675 H 0.11895 0.19483 0.65608 0.0
H676 H 0.09821 0.13615 0.62397 0.0
C677 C 0.01969 0.13306 0.67883 0.0
C678 C 0.70461 0.39903 0.45436 0.0
C679 C 0.7128 0.36507 0.46386 0.0
H680 H 0.66433 0.43304 0.45641 0.0
C681 C 0.68598 0.33965 0.4852 0.0
H682 H 0.7249 0.41953 0.4386 0.0
C683 C 0.65125 0.3475 0.49555 0.0
C684 C 0.64253 0.38083 0.48459 0.0
H685 H 0.69112 0.31305 0.49261 0.0
H686 H 0.63068 0.32694 0.51096 0.0
C687 C 0.66988 0.40675 0.46448 0.0
loop_
_geom_bond_atom_site_label_1
_geom_bond_atom_site_label_2
_geom_bond_distance
_geom_bond_site_symmetry_2
_ccdc_geom_bond_type
C0 C1 1.384 . S
C0 H13 0.947 . S
C0 C35 1.382 . S
C1 C0 1.384 . S
C1 C2 1.378 . S
C2 C1 1.378 . S
C2 C3 1.378 . S
C2 H14 0.952 . S
C3 C2 1.378 . S
C3 H15 0.950 . S
C3 C34 1.383 . S
H4 C23 0.947 . S
H5 C24 0.946 . S
H6 C26 0.953 . S
H7 C27 0.945 . S
H8 C29 0.952 . S
H9 C30 0.949 . S
H10 C32 0.950 . S
H11 C33 0.948 . S
H12 C35 0.951 . S
H13 C0 0.947 . S
H14 C2 0.952 . S
H15 C3 0.950 . S
N16 C19 1.382 . S
N16 C21 1.363 . S
N17 C19 1.371 . S
N17 C20 1.372 . S
N18 C20 1.361 . S
N18 C21 1.377 . S
C19 N16 1.382 . S
C19 N17 1.371 . S
C19 C22 1.480 . S
C20 N17 1.372 . S
C20 N18 1.361 . S
C20 C28 1.457 . S
C21 N16 1.363 . S
C21 N18 1.377 . S
C21 C34 1.479 . S
C22 C19 1.480 . S
C22 C23 1.383 . S
C22 C27 1.385 . S
C23 H4 0.947 . S
C23 C22 1.383 . S
C23 C24 1.388 . S
C24 H5 0.946 . S
C24 C23 1.388 . S
C24 C25 1.384 . S
C25 C24 1.384 . S
C25 C26 1.377 . S
C26 H6 0.953 . S
C26 C25 1.377 . S
C26 C27 1.369 . S
C27 H7 0.945 . S
C27 C22 1.385 . S
C27 C26 1.369 . S
C28 C20 1.457 . S
C28 C29 1.372 . S
C28 C33 1.364 . S
C29 H8 0.952 . S
C29 C28 1.372 . S
C29 C30 1.389 . S
C30 H9 0.949 . S
C30 C29 1.389 . S
C30 C31 1.387 . S
C31 C30 1.387 . S
C31 C32 1.372 . S
C32 H10 0.950 . S
C32 C31 1.372 . S
C32 C33 1.379 . S
C33 H11 0.948 . S
C33 C28 1.364 . S
C33 C32 1.379 . S
C34 C3 1.383 . S
C34 C21 1.479 . S
C34 C35 1.398 . S
C35 C0 1.382 . S
C35 H12 0.951 . S
C35 C34 1.398 . S
C36 C37 1.384 . S
C36 H49 0.947 . S
C36 C71 1.382 . S
C37 C36 1.384 . S
C37 C38 1.378 . S
C38 C37 1.378 . S
C38 C39 1.378 . S
C38 H50 0.952 . S
C39 C38 1.378 . S
C39 H51 0.950 . S
C39 C70 1.383 . S
H40 C59 0.947 . S
H41 C60 0.946 . S
H42 C62 0.953 . S
H43 C63 0.945 . S
H44 C65 0.952 . S
H45 C66 0.949 . S
H46 C68 0.950 . S
H47 C69 0.948 . S
H48 C71 0.951 . S
H49 C36 0.947 . S
H50 C38 0.952 . S
H51 C39 0.950 . S
N52 C55 1.382 . S
N52 C57 1.363 . S
N53 C55 1.371 . S
N53 C56 1.372 . S
N54 C56 1.361 . S
N54 C57 1.377 . S
C55 N52 1.382 . S
C55 N53 1.371 . S
C55 C58 1.480 . S
C56 N53 1.372 . S
C56 N54 1.361 . S
C56 C64 1.457 . S
C57 N52 1.363 . S
C57 N54 1.377 . S
C57 C70 1.479 . S
C58 C55 1.480 . S
C58 C59 1.383 . S
C58 C63 1.385 . S
C59 H40 0.947 . S
C59 C58 1.383 . S
C59 C60 1.388 . S
C60 H41 0.946 . S
C60 C59 1.388 . S
C60 C61 1.384 . S
C61 C60 1.384 . S
C61 C62 1.377 . S
C62 H42 0.953 . S
C62 C61 1.377 . S
C62 C63 1.369 . S
C63 H43 0.945 . S
C63 C58 1.385 . S
C63 C62 1.369 . S
C64 C56 1.457 . S
C64 C65 1.372 . S
C64 C69 1.364 . S
C65 H44 0.952 . S
C65 C64 1.372 . S
C65 C66 1.389 . S
C66 H45 0.949 . S
C66 C65 1.389 . S
C66 C67 1.387 . S
C67 C66 1.387 . S
C67 C68 1.372 . S
C68 H46 0.950 . S
C68 C67 1.372 . S
C68 C69 1.379 . S
C69 H47 0.948 . S
C69 C64 1.364 . S
C69 C68 1.379 . S
C70 C39 1.383 . S
C70 C57 1.479 . S
C70 C71 1.398 . S
C71 C36 1.382 . S
C71 H48 0.951 . S
C71 C70 1.398 . S
C72 C73 1.384 . S
C72 H85 0.947 . S
C72 C107 1.382 . S
C73 C72 1.384 . S
C73 C74 1.378 . S
C74 C73 1.378 . S
C74 C75 1.378 . S
C74 H86 0.952 . S
C75 C74 1.378 . S
C75 H87 0.950 . S
C75 C106 1.383 . S
H76 C95 0.947 . S
H77 C96 0.946 . S
H78 C98 0.953 . S
H79 C99 0.945 . S
H80 C101 0.952 . S
H81 C102 0.949 . S
H82 C104 0.950 . S
H83 C105 0.948 . S
H84 C107 0.951 . S
H85 C72 0.947 . S
H86 C74 0.952 . S
H87 C75 0.950 . S
N88 C91 1.382 . S
N88 C93 1.363 . S
N89 C91 1.371 . S
N89 C92 1.372 . S
N90 C92 1.361 . S
N90 C93 1.377 . S
C91 N88 1.382 . S
C91 N89 1.371 . S
C91 C94 1.480 . S
C92 N89 1.372 . S
C92 N90 1.361 . S
C92 C100 1.457 . S
C93 N88 1.363 . S
C93 N90 1.377 . S
C93 C106 1.479 . S
C94 C91 1.480 . S
C94 C95 1.383 . S
C94 C99 1.385 . S
C95 H76 0.947 . S
C95 C94 1.383 . S
C95 C96 1.388 . S
C96 H77 0.946 . S
C96 C95 1.388 . S
C96 C97 1.384 . S
C97 C96 1.384 . S
C97 C98 1.377 . S
C98 H78 0.953 . S
C98 C97 1.377 . S
C98 C99 1.369 . S
C99 H79 0.945 . S
C99 C94 1.385 . S
C99 C98 1.369 . S
C100 C92 1.457 . S
C100 C101 1.372 . S
C100 C105 1.364 . S
C101 H80 0.952 . S
C101 C100 1.372 . S
C101 C102 1.389 . S
C102 H81 0.949 . S
C102 C101 1.389 . S
C102 C103 1.387 . S
C103 C102 1.387 . S
C103 C104 1.372 . S
C104 H82 0.950 . S
C104 C103 1.372 . S
C104 C105 1.379 . S
C105 H83 0.948 . S
C105 C100 1.364 . S
C105 C104 1.379 . S
C106 C75 1.383 . S
C106 C93 1.479 . S
C106 C107 1.398 . S
C107 C72 1.382 . S
C107 H84 0.951 . S
C107 C106 1.398 . S
C108 C109 1.384 . S
C108 H121 0.947 . S
C108 C143 1.382 . S
C109 C108 1.384 . S
C109 C110 1.378 . S
C110 C109 1.378 . S
C110 C111 1.378 . S
C110 H122 0.952 . S
C111 C110 1.378 . S
C111 H123 0.950 . S
C111 C142 1.383 . S
H112 C131 0.947 . S
H113 C132 0.946 . S
H114 C134 0.953 . S
H115 C135 0.945 . S
H116 C137 0.952 . S
H117 C138 0.949 . S
H118 C140 0.950 . S
H119 C141 0.948 . S
H120 C143 0.951 . S
H121 C108 0.947 . S
H122 C110 0.952 . S
H123 C111 0.950 . S
N124 C127 1.382 . S
N124 C129 1.363 . S
N125 C127 1.371 . S
N125 C128 1.372 . S
N126 C128 1.361 . S
N126 C129 1.377 . S
C127 N124 1.382 . S
C127 N125 1.371 . S
C127 C130 1.480 . S
C128 N125 1.372 . S
C128 N126 1.361 . S
C128 C136 1.457 . S
C129 N124 1.363 . S
C129 N126 1.377 . S
C129 C142 1.479 . S
C130 C127 1.480 . S
C130 C131 1.383 . S
C130 C135 1.385 . S
C131 H112 0.947 . S
C131 C130 1.383 . S
C131 C132 1.388 . S
C132 H113 0.946 . S
C132 C131 1.388 . S
C132 C133 1.384 . S
C133 C132 1.384 . S
C133 C134 1.377 . S
C134 H114 0.953 . S
C134 C133 1.377 . S
C134 C135 1.369 . S
C135 H115 0.945 . S
C135 C130 1.385 . S
C135 C134 1.369 . S
C136 C128 1.457 . S
C136 C137 1.372 . S
C136 C141 1.364 . S
C137 H116 0.952 . S
C137 C136 1.372 . S
C137 C138 1.389 . S
C138 H117 0.949 . S
C138 C137 1.389 . S
C138 C139 1.387 . S
C139 C138 1.387 . S
C139 C140 1.372 . S
C140 H118 0.950 . S
C140 C139 1.372 . S
C140 C141 1.379 . S
C141 H119 0.948 . S
C141 C136 1.364 . S
C141 C140 1.379 . S
C142 C111 1.383 . S
C142 C129 1.479 . S
C142 C143 1.398 . S
C143 C108 1.382 . S
C143 H120 0.951 . S
C143 C142 1.398 . S
C144 C145 1.384 . S
C144 H157 0.947 . S
C144 C179 1.382 . S
C145 C144 1.384 . S
C145 C146 1.378 . S
C146 C145 1.378 . S
C146 C147 1.378 . S
C146 H158 0.952 . S
C147 C146 1.378 . S
C147 H159 0.950 . S
C147 C178 1.383 . S
H148 C167 0.947 . S
H149 C168 0.946 . S
H150 C170 0.953 . S
H151 C171 0.945 . S
H152 C173 0.952 . S
H153 C174 0.949 . S
H154 C176 0.950 . S
H155 C177 0.948 . S
H156 C179 0.951 . S
H157 C144 0.947 . S
H158 C146 0.952 . S
H159 C147 0.950 . S
N160 C163 1.382 . S
N160 C165 1.363 . S
N161 C163 1.371 . S
N161 C164 1.372 . S
N162 C164 1.361 . S
N162 C165 1.377 . S
C163 N160 1.382 . S
C163 N161 1.371 . S
C163 C166 1.480 . S
C164 N161 1.372 . S
C164 N162 1.361 . S
C164 C172 1.457 . S
C165 N160 1.363 . S
C165 N162 1.377 . S
C165 C178 1.479 . S
C166 C163 1.480 . S
C166 C167 1.383 . S
C166 C171 1.385 . S
C167 H148 0.947 . S
C167 C166 1.383 . S
C167 C168 1.388 . S
C168 H149 0.946 . S
C168 C167 1.388 . S
C168 C169 1.384 . S
C169 C168 1.384 . S
C169 C170 1.377 . S
C170 H150 0.953 . S
C170 C169 1.377 . S
C170 C171 1.369 . S
C171 H151 0.945 . S
C171 C166 1.385 . S
C171 C170 1.369 . S
C172 C164 1.457 . S
C172 C173 1.372 . S
C172 C177 1.364 . S
C173 H152 0.952 . S
C173 C172 1.372 . S
C173 C174 1.389 . S
C174 H153 0.949 . S
C174 C173 1.389 . S
C174 C175 1.387 . S
C175 C174 1.387 . S
C175 C176 1.372 . S
C176 H154 0.950 . S
C176 C175 1.372 . S
C176 C177 1.379 . S
C177 H155 0.948 . S
C177 C172 1.364 . S
C177 C176 1.379 . S
C178 C147 1.383 . S
C178 C165 1.479 . S
C178 C179 1.398 . S
C179 C144 1.382 . S
C179 H156 0.951 . S
C179 C178 1.398 . S
C180 C181 1.384 . S
C180 H193 0.947 . S
C180 C215 1.382 . S
C181 C180 1.384 . S
C181 C182 1.378 . S
C182 C181 1.378 . S
C182 C183 1.378 . S
C182 H194 0.952 . S
C183 C182 1.378 . S
C183 H195 0.950 . S
C183 C214 1.383 . S
H184 C203 0.947 . S
H185 C204 0.946 . S
H186 C206 0.953 . S
H187 C207 0.945 . S
H188 C209 0.952 . S
H189 C210 0.949 . S
H190 C212 0.950 . S
H191 C213 0.948 . S
H192 C215 0.951 . S
H193 C180 0.947 . S
H194 C182 0.952 . S
H195 C183 0.950 . S
N196 C199 1.382 . S
N196 C201 1.363 . S
N197 C199 1.371 . S
N197 C200 1.372 . S
N198 C200 1.361 . S
N198 C201 1.377 . S
C199 N196 1.382 . S
C199 N197 1.371 . S
C199 C202 1.480 . S
C200 N197 1.372 . S
C200 N198 1.361 . S
C200 C208 1.457 . S
C201 N196 1.363 . S
C201 N198 1.377 . S
C201 C214 1.479 . S
C202 C199 1.480 . S
C202 C203 1.383 . S
C202 C207 1.385 . S
C203 H184 0.947 . S
C203 C202 1.383 . S
C203 C204 1.388 . S
C204 H185 0.946 . S
C204 C203 1.388 . S
C204 C205 1.384 . S
C205 C204 1.384 . S
C205 C206 1.377 . S
C206 H186 0.953 . S
C206 C205 1.377 . S
C206 C207 1.369 . S
C207 H187 0.945 . S
C207 C202 1.385 . S
C207 C206 1.369 . S
C208 C200 1.457 . S
C208 C209 1.372 . S
C208 C213 1.364 . S
C209 H188 0.952 . S
C209 C208 1.372 . S
C209 C210 1.389 . S
C210 H189 0.949 . S
C210 C209 1.389 . S
C210 C211 1.387 . S
C211 C210 1.387 . S
C211 C212 1.372 . S
C212 H190 0.950 . S
C212 C211 1.372 . S
C212 C213 1.379 . S
C213 H191 0.948 . S
C213 C208 1.364 . S
C213 C212 1.379 . S
C214 C183 1.383 . S
C214 C201 1.479 . S
C214 C215 1.398 . S
C215 C180 1.382 . S
C215 H192 0.951 . S
C215 C214 1.398 . S
C216 C217 1.384 . S
C216 H229 0.947 . S
C216 C251 1.382 . S
C217 C216 1.384 . S
C217 C218 1.378 . S
C218 C217 1.378 . S
C218 C219 1.378 . S
C218 H230 0.952 . S
C219 C218 1.378 . S
C219 H231 0.950 . S
C219 C250 1.383 . S
H220 C239 0.947 . S
H221 C240 0.946 . S
H222 C242 0.953 . S
H223 C243 0.945 . S
H224 C245 0.952 . S
H225 C246 0.949 . S
H226 C248 0.950 . S
H227 C249 0.948 . S
H228 C251 0.951 . S
H229 C216 0.947 . S
H230 C218 0.952 . S
H231 C219 0.950 . S
N232 C235 1.382 . S
N232 C237 1.363 . S
N233 C235 1.371 . S
N233 C236 1.372 . S
N234 C236 1.361 . S
N234 C237 1.377 . S
C235 N232 1.382 . S
C235 N233 1.371 . S
C235 C238 1.480 . S
C236 N233 1.372 . S
C236 N234 1.361 . S
C236 C244 1.457 . S
C237 N232 1.363 . S
C237 N234 1.377 . S
C237 C250 1.479 . S
C238 C235 1.480 . S
C238 C239 1.383 . S
C238 C243 1.385 . S
C239 H220 0.947 . S
C239 C238 1.383 . S
C239 C240 1.388 . S
C240 H221 0.946 . S
C240 C239 1.388 . S
C240 C241 1.384 . S
C241 C240 1.384 . S
C241 C242 1.377 . S
C242 H222 0.953 . S
C242 C241 1.377 . S
C242 C243 1.369 . S
C243 H223 0.945 . S
C243 C238 1.385 . S
C243 C242 1.369 . S
C244 C236 1.457 . S
C244 C245 1.372 . S
C244 C249 1.364 . S
C245 H224 0.952 . S
C245 C244 1.372 . S
C245 C246 1.389 . S
C246 H225 0.949 . S
C246 C245 1.389 . S
C246 C247 1.387 . S
C247 C246 1.387 . S
C247 C248 1.372 . S
C248 H226 0.950 . S
C248 C247 1.372 . S
C248 C249 1.379 . S
C249 H227 0.948 . S
C249 C244 1.364 . S
C249 C248 1.379 . S
C250 C219 1.383 . S
C250 C237 1.479 . S
C250 C251 1.398 . S
C251 C216 1.382 . S
C251 H228 0.951 . S
C251 C250 1.398 . S
C252 C253 1.384 . S
C252 H265 0.947 . S
C252 C287 1.382 . S
C253 C252 1.384 . S
C253 C254 1.378 . S
C254 C253 1.378 . S
C254 C255 1.378 . S
C254 H266 0.952 . S
C255 C254 1.378 . S
C255 H267 0.950 . S
C255 C286 1.383 . S
H256 C275 0.947 . S
H257 C276 0.946 . S
H258 C278 0.953 . S
H259 C279 0.945 . S
H260 C281 0.952 . S
H261 C282 0.949 . S
H262 C284 0.950 . S
H263 C285 0.948 . S
H264 C287 0.951 . S
H265 C252 0.947 . S
H266 C254 0.952 . S
H267 C255 0.950 . S
N268 C271 1.382 . S
N268 C273 1.363 . S
N269 C271 1.371 . S
N269 C272 1.372 . S
N270 C272 1.361 . S
N270 C273 1.377 . S
C271 N268 1.382 . S
C271 N269 1.371 . S
C271 C274 1.480 . S
C272 N269 1.372 . S
C272 N270 1.361 . S
C272 C280 1.457 . S
C273 N268 1.363 . S
C273 N270 1.377 . S
C273 C286 1.479 . S
C274 C271 1.480 . S
C274 C275 1.383 . S
C274 C279 1.385 . S
C275 H256 0.947 . S
C275 C274 1.383 . S
C275 C276 1.388 . S
C276 H257 0.946 . S
C276 C275 1.388 . S
C276 C277 1.384 . S
C277 C276 1.384 . S
C277 C278 1.377 . S
C278 H258 0.953 . S
C278 C277 1.377 . S
C278 C279 1.369 . S
C279 H259 0.945 . S
C279 C274 1.385 . S
C279 C278 1.369 . S
C280 C272 1.457 . S
C280 C281 1.372 . S
C280 C285 1.364 . S
C281 H260 0.952 . S
C281 C280 1.372 . S
C281 C282 1.389 . S
C282 H261 0.949 . S
C282 C281 1.389 . S
C282 C283 1.387 . S
C283 C282 1.387 . S
C283 C284 1.372 . S
C284 H262 0.950 . S
C284 C283 1.372 . S
C284 C285 1.379 . S
C285 H263 0.948 . S
C285 C280 1.364 . S
C285 C284 1.379 . S
C286 C255 1.383 . S
C286 C273 1.479 . S
C286 C287 1.398 . S
C287 C252 1.382 . S
C287 H264 0.951 . S
C287 C286 1.398 . S
Dy288 O291 2.307 1_545 S
Dy288 O293 2.395 . S
Dy288 O294 2.379 . S
Dy288 O296 2.339 1_545 S
Dy288 O298 2.298 . S
Dy288 O302 2.275 . S
Dy288 C310 2.738 . S
Dy289 O292 2.298 1_655 S
Dy289 O295 2.275 . S
Dy289 O297 2.307 1_565 S
Dy289 O299 2.395 . S
Dy289 O300 2.379 . S
Dy289 O303 2.339 1_565 S
Dy289 C319 2.738 . S
C290 O302 1.254 . S
C290 O303 1.257 1_455 S
O291 Dy288 2.307 1_565 S
O291 C301 1.266 . S
O292 Dy289 2.298 1_455 S
O292 C301 1.236 . S
O293 Dy288 2.395 . S
O293 C310 1.255 . S
O294 Dy288 2.379 . S
O294 C310 1.249 . S
O295 Dy289 2.275 . S
O295 C311 1.254 . S
O296 Dy288 2.339 1_565 S
O296 C311 1.257 1_455 S
O297 Dy289 2.307 1_545 S
O297 C312 1.266 . S
O298 Dy288 2.298 . S
O298 C312 1.236 1_455 S
O299 Dy289 2.395 . S
O299 C319 1.255 . S
O300 Dy289 2.379 . S
O300 C319 1.249 . S
C301 O291 1.266 . S
C301 O292 1.236 . S
O302 Dy288 2.275 . S
O302 C290 1.254 . S
O303 Dy289 2.339 1_545 S
O303 C290 1.257 1_655 S
C304 C307 1.344 . S
C304 C308 1.328 . S
C304 C310 1.516 . S
C305 C306 1.304 . S
C305 C309 1.323 . S
C306 C305 1.304 . S
C306 C307 1.371 . S
C306 H320 0.930 . S
C307 C304 1.344 . S
C307 C306 1.371 . S
C307 H321 0.931 . S
C308 C304 1.328 . S
C308 C309 1.433 . S
C308 H322 0.931 . S
C309 C305 1.323 . S
C309 C308 1.433 . S
C309 H323 0.933 . S
C310 Dy288 2.738 . S
C310 O293 1.255 . S
C310 O294 1.249 . S
C310 C304 1.516 . S
C311 O295 1.254 . S
C311 O296 1.257 1_655 S
C312 O297 1.266 . S
C312 O298 1.236 1_655 S
C313 C316 1.344 . S
C313 C317 1.328 . S
C313 C319 1.516 . S
C314 C315 1.304 . S
C314 C318 1.323 . S
C315 C314 1.304 . S
C315 C316 1.371 . S
C315 H324 0.930 . S
C316 C313 1.344 . S
C316 C315 1.371 . S
C316 H325 0.931 . S
C317 C313 1.328 . S
C317 C318 1.433 . S
C317 H326 0.931 . S
C318 C314 1.323 . S
C318 C317 1.433 . S
C318 H327 0.933 . S
C319 Dy289 2.738 . S
C319 O299 1.255 . S
C319 O300 1.249 . S
C319 C313 1.516 . S
H320 C306 0.930 . S
H321 C307 0.931 . S
H322 C308 0.931 . S
H323 C309 0.933 . S
H324 C315 0.930 . S
H325 C316 0.931 . S
H326 C317 0.931 . S
H327 C318 0.933 . S
Dy328 O331 2.307 1_566 S
Dy328 O333 2.395 . S
Dy328 O334 2.379 . S
Dy328 O336 2.339 1_565 S
Dy328 O338 2.298 . S
Dy328 O342 2.275 1_556 S
Dy328 C350 2.738 . S
Dy329 O332 2.298 . S
Dy329 O335 2.275 1_554 S
Dy329 O337 2.307 1_544 S
Dy329 O339 2.395 . S
Dy329 O340 2.379 . S
Dy329 O343 2.339 1_545 S
Dy329 C359 2.738 . S
C330 O342 1.254 . S
C330 O343 1.257 . S
O331 Dy328 2.307 1_544 S
O331 C341 1.266 . S
O332 Dy329 2.298 . S
O332 C341 1.236 . S
O333 Dy328 2.395 . S
O333 C350 1.255 . S
O334 Dy328 2.379 . S
O334 C350 1.249 . S
O335 Dy329 2.275 1_556 S
O335 C351 1.254 . S
O336 Dy328 2.339 1_545 S
O336 C351 1.257 . S
O337 Dy329 2.307 1_566 S
O337 C352 1.266 . S
O338 Dy328 2.298 . S
O338 C352 1.236 . S
O339 Dy329 2.395 . S
O339 C359 1.255 . S
O340 Dy329 2.379 . S
O340 C359 1.249 . S
C341 O331 1.266 . S
C341 O332 1.236 . S
O342 Dy328 2.275 1_554 S
O342 C330 1.254 . S
O343 Dy329 2.339 1_565 S
O343 C330 1.257 . S
C344 C347 1.344 . S
C344 C348 1.328 . S
C344 C350 1.516 . S
C345 C346 1.304 . S
C345 C349 1.323 . S
C346 C345 1.304 . S
C346 C347 1.371 . S
C346 H360 0.930 . S
C347 C344 1.344 . S
C347 C346 1.371 . S
C347 H361 0.931 . S
C348 C344 1.328 . S
C348 C349 1.433 . S
C348 H362 0.931 . S
C349 C345 1.323 . S
C349 C348 1.433 . S
C349 H363 0.933 . S
C350 Dy328 2.738 . S
C350 O333 1.255 . S
C350 O334 1.249 . S
C350 C344 1.516 . S
C351 O335 1.254 . S
C351 O336 1.257 . S
C352 O337 1.266 . S
C352 O338 1.236 . S
C353 C356 1.344 . S
C353 C357 1.328 . S
C353 C359 1.516 . S
C354 C355 1.304 . S
C354 C358 1.323 . S
C355 C354 1.304 . S
C355 C356 1.371 . S
C355 H364 0.930 . S
C356 C353 1.344 . S
C356 C355 1.371 . S
C356 H365 0.931 . S
C357 C353 1.328 . S
C357 C358 1.433 . S
C357 H366 0.931 . S
C358 C354 1.323 . S
C358 C357 1.433 . S
C358 H367 0.933 . S
C359 Dy329 2.738 . S
C359 O339 1.255 . S
C359 O340 1.249 . S
C359 C353 1.516 . S
H360 C346 0.930 . S
H361 C347 0.931 . S
H362 C348 0.931 . S
H363 C349 0.933 . S
H364 C355 0.930 . S
H365 C356 0.931 . S
H366 C357 0.931 . S
H367 C358 0.933 . S
Dy368 O371 2.307 . S
Dy368 O373 2.395 . S
Dy368 O374 2.379 . S
Dy368 O376 2.339 . S
Dy368 O378 2.298 . S
Dy368 O382 2.275 . S
Dy368 C390 2.738 . S
Dy369 O372 2.298 . S
Dy369 O375 2.275 . S
Dy369 O377 2.307 . S
Dy369 O379 2.395 . S
Dy369 O380 2.379 . S
Dy369 O383 2.339 . S
Dy369 C399 2.738 . S
C370 O382 1.254 . S
C370 O383 1.257 . S
O371 Dy368 2.307 . S
O371 C381 1.266 . S
O372 Dy369 2.298 . S
O372 C381 1.236 . S
O373 Dy368 2.395 . S
O373 C390 1.255 . S
O374 Dy368 2.379 . S
O374 C390 1.249 . S
O375 Dy369 2.275 . S
O375 C391 1.254 . S
O376 Dy368 2.339 . S
O376 C391 1.257 . S
O377 Dy369 2.307 . S
O377 C392 1.266 . S
O378 Dy368 2.298 . S
O378 C392 1.236 . S
O379 Dy369 2.395 . S
O379 C399 1.255 . S
O380 Dy369 2.379 . S
O380 C399 1.249 . S
C381 O371 1.266 . S
C381 O372 1.236 . S
O382 Dy368 2.275 . S
O382 C370 1.254 . S
O383 Dy369 2.339 . S
O383 C370 1.257 . S
C384 C387 1.344 . S
C384 C388 1.328 . S
C384 C390 1.516 . S
C385 C386 1.304 . S
C385 C389 1.323 . S
C386 C385 1.304 . S
C386 C387 1.371 . S
C386 H400 0.930 . S
C387 C384 1.344 . S
C387 C386 1.371 . S
C387 H401 0.931 . S
C388 C384 1.328 . S
C388 C389 1.433 . S
C388 H402 0.931 . S
C389 C385 1.323 . S
C389 C388 1.433 . S
C389 H403 0.933 . S
C390 Dy368 2.738 . S
C390 O373 1.255 . S
C390 O374 1.249 . S
C390 C384 1.516 . S
C391 O375 1.254 . S
C391 O376 1.257 . S
C392 O377 1.266 . S
C392 O378 1.236 . S
C393 C396 1.344 . S
C393 C397 1.328 . S
C393 C399 1.516 . S
C394 C395 1.304 . S
C394 C398 1.323 . S
C395 C394 1.304 . S
C395 C396 1.371 . S
C395 H404 0.930 . S
C396 C393 1.344 . S
C396 C395 1.371 . S
C396 H405 0.931 . S
C397 C393 1.328 . S
C397 C398 1.433 . S
C397 H406 0.931 . S
C398 C394 1.323 . S
C398 C397 1.433 . S
C398 H407 0.933 . S
C399 Dy369 2.738 . S
C399 O379 1.255 . S
C399 O380 1.249 . S
C399 C393 1.516 . S
H400 C386 0.930 . S
H401 C387 0.931 . S
H402 C388 0.931 . S
H403 C389 0.933 . S
H404 C395 0.930 . S
H405 C396 0.931 . S
H406 C397 0.931 . S
H407 C398 0.933 . S
Dy408 O411 2.307 1_556 S
Dy408 O413 2.395 1_455 S
Dy408 O414 2.379 1_455 S
Dy408 O416 2.339 . S
Dy408 O418 2.298 1_455 S
Dy408 O422 2.275 1_456 S
Dy408 C430 2.738 1_455 S
Dy409 O412 2.298 . S
Dy409 O415 2.275 1_554 S
Dy409 O417 2.307 1_455 S
Dy409 O419 2.395 . S
Dy409 O420 2.379 . S
Dy409 O423 2.339 1_455 S
Dy409 C439 2.738 . S
C410 O422 1.254 . S
C410 O423 1.257 . S
O411 Dy408 2.307 1_554 S
O411 C421 1.266 . S
O412 Dy409 2.298 . S
O412 C421 1.236 . S
O413 Dy408 2.395 1_655 S
O413 C430 1.255 . S
O414 Dy408 2.379 1_655 S
O414 C430 1.249 . S
O415 Dy409 2.275 1_556 S
O415 C431 1.254 . S
O416 Dy408 2.339 . S
O416 C431 1.257 . S
O417 Dy409 2.307 1_655 S
O417 C432 1.266 1_554 S
O418 Dy408 2.298 1_655 S
O418 C432 1.236 . S
O419 Dy409 2.395 . S
O419 C439 1.255 . S
O420 Dy409 2.379 . S
O420 C439 1.249 . S
C421 O411 1.266 . S
C421 O412 1.236 . S
O422 Dy408 2.275 1_654 S
O422 C410 1.254 . S
O423 Dy409 2.339 1_655 S
O423 C410 1.257 . S
C424 C427 1.344 . S
C424 C428 1.328 . S
C424 C430 1.516 . S
C425 C426 1.304 . S
C425 C429 1.323 . S
C426 C425 1.304 . S
C426 C427 1.371 . S
C426 H440 0.930 . S
C427 C424 1.344 . S
C427 C426 1.371 . S
C427 H441 0.931 . S
C428 C424 1.328 . S
C428 C429 1.433 . S
C428 H442 0.931 . S
C429 C425 1.323 . S
C429 C428 1.433 . S
C429 H443 0.933 . S
C430 Dy408 2.738 1_655 S
C430 O413 1.255 . S
C430 O414 1.249 . S
C430 C424 1.516 . S
C431 O415 1.254 . S
C431 O416 1.257 . S
C432 O417 1.266 1_556 S
C432 O418 1.236 . S
C433 C436 1.344 . S
C433 C437 1.328 . S
C433 C439 1.516 . S
C434 C435 1.304 . S
C434 C438 1.323 . S
C435 C434 1.304 . S
C435 C436 1.371 . S
C435 H444 0.930 . S
C436 C433 1.344 . S
C436 C435 1.371 . S
C436 H445 0.931 . S
C437 C433 1.328 . S
C437 C438 1.433 . S
C437 H446 0.931 . S
C438 C434 1.323 . S
C438 C437 1.433 . S
C438 H447 0.933 . S
C439 Dy409 2.738 . S
C439 O419 1.255 . S
C439 O420 1.249 . S
C439 C433 1.516 . S
H440 C426 0.930 . S
H441 C427 0.931 . S
H442 C428 0.931 . S
H443 C429 0.933 . S
H444 C435 0.930 . S
H445 C436 0.931 . S
H446 C437 0.931 . S
H447 C438 0.933 . S
C448 C449 1.387 . S
C448 H452 0.950 . S
C448 C457 1.390 . S
C449 C448 1.387 . S
C449 C451 1.387 . S
H450 C457 0.950 . S
C451 C449 1.387 . S
C451 C453 1.390 . S
C451 H455 0.950 . S
H452 C448 0.950 . S
C453 C451 1.390 . S
C453 C454 1.387 . S
C453 H456 0.950 . S
C454 C453 1.387 . S
C454 C457 1.387 . S
H455 C451 0.950 . S
H456 C453 0.950 . S
C457 C448 1.390 . S
C457 H450 0.950 . S
C457 C454 1.387 . S
C458 C459 1.387 . S
C458 H462 0.950 . S
C458 C467 1.390 . S
C459 C458 1.387 . S
C459 C461 1.387 . S
H460 C467 0.950 . S
C461 C459 1.387 . S
C461 C463 1.390 . S
C461 H465 0.950 . S
H462 C458 0.950 . S
C463 C461 1.390 . S
C463 C464 1.387 . S
C463 H466 0.950 . S
C464 C463 1.387 . S
C464 C467 1.387 . S
H465 C461 0.950 . S
H466 C463 0.950 . S
C467 C458 1.390 . S
C467 H460 0.950 . S
C467 C464 1.387 . S
C468 C469 1.387 . S
C468 H472 0.950 . S
C468 C477 1.390 . S
C469 C468 1.387 . S
C469 C471 1.387 . S
H470 C477 0.950 . S
C471 C469 1.387 . S
C471 C473 1.390 . S
C471 H475 0.950 . S
H472 C468 0.950 . S
C473 C471 1.390 . S
C473 C474 1.387 . S
C473 H476 0.950 . S
C474 C473 1.387 . S
C474 C477 1.387 . S
H475 C471 0.950 . S
H476 C473 0.950 . S
C477 C468 1.390 . S
C477 H470 0.950 . S
C477 C474 1.387 . S
C478 C479 1.387 . S
C478 H482 0.950 . S
C478 C487 1.390 . S
C479 C478 1.387 . S
C479 C481 1.387 . S
H480 C487 0.950 1_455 S
C481 C479 1.387 . S
C481 C483 1.390 . S
C481 H485 0.950 . S
H482 C478 0.950 . S
C483 C481 1.390 . S
C483 C484 1.387 . S
C483 H486 0.950 . S
C484 C483 1.387 . S
C484 C487 1.387 . S
H485 C481 0.950 . S
H486 C483 0.950 . S
C487 C478 1.390 . S
C487 H480 0.950 1_655 S
C487 C484 1.387 . S
C488 C489 1.387 . S
C488 H492 0.950 . S
C488 C497 1.390 . S
C489 C488 1.387 . S
C489 C491 1.387 . S
H490 C497 0.950 . S
C491 C489 1.387 . S
C491 C493 1.390 . S
C491 H495 0.950 . S
H492 C488 0.950 . S
C493 C491 1.390 . S
C493 C494 1.387 . S
C493 H496 0.950 . S
C494 C493 1.387 . S
C494 C497 1.387 . S
H495 C491 0.950 . S
H496 C493 0.950 . S
C497 C488 1.390 . S
C497 H490 0.950 . S
C497 C494 1.387 . S
C498 C499 1.387 . S
C498 H502 0.950 . S
C498 C507 1.390 . S
C499 C498 1.387 . S
C499 C501 1.387 1_455 S
H500 C507 0.950 . S
C501 C499 1.387 1_655 S
C501 C503 1.390 . S
C501 H505 0.950 . S
H502 C498 0.950 . S
C503 C501 1.390 . S
C503 C504 1.387 1_655 S
C503 H506 0.950 . S
C504 C503 1.387 1_455 S
C504 C507 1.387 . S
H505 C501 0.950 . S
H506 C503 0.950 . S
C507 C498 1.390 . S
C507 H500 0.950 . S
C507 C504 1.387 . S
C508 C509 1.387 . S
C508 H512 0.950 . S
C508 C517 1.390 . S
C509 C508 1.387 . S
C509 C511 1.387 . S
H510 C517 0.950 . S
C511 C509 1.387 . S
C511 C513 1.390 . S
C511 H515 0.950 . S
H512 C508 0.950 . S
C513 C511 1.390 . S
C513 C514 1.387 . S
C513 H516 0.950 . S
C514 C513 1.387 . S
C514 C517 1.387 . S
H515 C511 0.950 . S
H516 C513 0.950 . S
C517 C508 1.390 . S
C517 H510 0.950 . S
C517 C514 1.387 . S
C518 C519 1.387 . S
C518 H522 0.950 . S
C518 C527 1.390 . S
C519 C518 1.387 . S
C519 C521 1.387 . S
H520 C527 0.950 . S
C521 C519 1.387 . S
C521 C523 1.390 . S
C521 H525 0.950 . S
H522 C518 0.950 . S
C523 C521 1.390 . S
C523 C524 1.387 . S
C523 H526 0.950 . S
C524 C523 1.387 . S
C524 C527 1.387 . S
H525 C521 0.950 . S
H526 C523 0.950 . S
C527 C518 1.390 . S
C527 H520 0.950 . S
C527 C524 1.387 . S
C528 C529 1.387 . S
C528 H532 0.950 . S
C528 C537 1.390 . S
C529 C528 1.387 . S
C529 C531 1.387 . S
H530 C537 0.950 . S
C531 C529 1.387 . S
C531 C533 1.390 . S
C531 H535 0.950 . S
H532 C528 0.950 . S
C533 C531 1.390 . S
C533 C534 1.387 . S
C533 H536 0.950 . S
C534 C533 1.387 . S
C534 C537 1.387 . S
H535 C531 0.950 . S
H536 C533 0.950 . S
C537 C528 1.390 . S
C537 H530 0.950 . S
C537 C534 1.387 . S
C538 C539 1.387 . S
C538 H542 0.950 . S
C538 C547 1.390 . S
C539 C538 1.387 . S
C539 C541 1.387 . S
H540 C547 0.950 . S
C541 C539 1.387 . S
C541 C543 1.390 . S
C541 H545 0.950 . S
H542 C538 0.950 . S
C543 C541 1.390 . S
C543 C544 1.387 . S
C543 H546 0.950 . S
C544 C543 1.387 . S
C544 C547 1.387 . S
H545 C541 0.950 . S
H546 C543 0.950 . S
C547 C538 1.390 . S
C547 H540 0.950 . S
C547 C544 1.387 . S
C548 C549 1.387 . S
C548 H552 0.950 1_655 S
C548 C557 1.390 . S
C549 C548 1.387 . S
C549 C551 1.387 . S
H550 C557 0.950 1_455 S
C551 C549 1.387 . S
C551 C553 1.390 . S
C551 H555 0.950 . S
H552 C548 0.950 1_455 S
C553 C551 1.390 . S
C553 C554 1.387 . S
C553 H556 0.950 . S
C554 C553 1.387 . S
C554 C557 1.387 . S
H555 C551 0.950 . S
H556 C553 0.950 . S
C557 C548 1.390 . S
C557 H550 0.950 1_655 S
C557 C554 1.387 . S
C558 C559 1.387 . S
C558 H562 0.950 . S
C558 C567 1.390 . S
C559 C558 1.387 . S
C559 C561 1.387 . S
H560 C567 0.950 . S
C561 C559 1.387 . S
C561 C563 1.390 . S
C561 H565 0.950 . S
H562 C558 0.950 . S
C563 C561 1.390 . S
C563 C564 1.387 . S
C563 H566 0.950 . S
C564 C563 1.387 . S
C564 C567 1.387 . S
H565 C561 0.950 . S
H566 C563 0.950 . S
C567 C558 1.390 . S
C567 H560 0.950 . S
C567 C564 1.387 . S
C568 C569 1.387 . S
C568 H572 0.950 . S
C568 C577 1.390 . S
C569 C568 1.387 . S
C569 C571 1.387 . S
H570 C577 0.950 . S
C571 C569 1.387 . S
C571 C573 1.390 . S
C571 H575 0.950 . S
H572 C568 0.950 . S
C573 C571 1.390 . S
C573 C574 1.387 . S
C573 H576 0.950 . S
C574 C573 1.387 . S
C574 C577 1.387 . S
H575 C571 0.950 . S
H576 C573 0.950 . S
C577 C568 1.390 . S
C577 H570 0.950 . S
C577 C574 1.387 . S
C578 C579 1.387 . S
C578 H582 0.950 . S
C578 C587 1.390 . S
C579 C578 1.387 . S
C579 C581 1.387 . S
H580 C587 0.950 . S
C581 C579 1.387 . S
C581 C583 1.390 . S
C581 H585 0.950 . S
H582 C578 0.950 . S
C583 C581 1.390 . S
C583 C584 1.387 . S
C583 H586 0.950 . S
C584 C583 1.387 . S
C584 C587 1.387 . S
H585 C581 0.950 . S
H586 C583 0.950 . S
C587 C578 1.390 . S
C587 H580 0.950 . S
C587 C584 1.387 . S
C588 C589 1.387 . S
C588 H592 0.950 . S
C588 C597 1.390 . S
C589 C588 1.387 . S
C589 C591 1.387 . S
H590 C597 0.950 . S
C591 C589 1.387 . S
C591 C593 1.390 . S
C591 H595 0.950 . S
H592 C588 0.950 . S
C593 C591 1.390 . S
C593 C594 1.387 . S
C593 H596 0.950 . S
C594 C593 1.387 . S
C594 C597 1.387 . S
H595 C591 0.950 . S
H596 C593 0.950 . S
C597 C588 1.390 . S
C597 H590 0.950 . S
C597 C594 1.387 . S
C598 C599 1.387 . S
C598 H602 0.950 . S
C598 C607 1.390 . S
C599 C598 1.387 . S
C599 C601 1.387 . S
H600 C607 0.950 . S
C601 C599 1.387 . S
C601 C603 1.390 . S
C601 H605 0.950 . S
H602 C598 0.950 . S
C603 C601 1.390 . S
C603 C604 1.387 . S
C603 H606 0.950 . S
C604 C603 1.387 . S
C604 C607 1.387 . S
H605 C601 0.950 . S
H606 C603 0.950 . S
C607 C598 1.390 . S
C607 H600 0.950 . S
C607 C604 1.387 . S
C608 C609 1.387 . S
C608 H612 0.950 . S
C608 C617 1.390 . S
C609 C608 1.387 . S
C609 C611 1.387 . S
H610 C617 0.950 . S
C611 C609 1.387 . S
C611 C613 1.390 . S
C611 H615 0.950 . S
H612 C608 0.950 . S
C613 C611 1.390 . S
C613 C614 1.387 . S
C613 H616 0.950 . S
C614 C613 1.387 . S
C614 C617 1.387 . S
H615 C611 0.950 . S
H616 C613 0.950 . S
C617 C608 1.390 . S
C617 H610 0.950 . S
C617 C614 1.387 . S
C618 C619 1.387 1_455 S
C618 H622 0.950 . S
C618 C627 1.390 . S
C619 C618 1.387 1_655 S
C619 C621 1.387 . S
H620 C627 0.950 . S
C621 C619 1.387 . S
C621 C623 1.390 . S
C621 H625 0.950 . S
H622 C618 0.950 . S
C623 C621 1.390 . S
C623 C624 1.387 . S
C623 H626 0.950 . S
C624 C623 1.387 . S
C624 C627 1.387 1_655 S
H625 C621 0.950 . S
H626 C623 0.950 . S
C627 C618 1.390 . S
C627 H620 0.950 . S
C627 C624 1.387 1_455 S
C628 C629 1.387 . S
C628 H632 0.950 . S
C628 C637 1.390 . S
C629 C628 1.387 . S
C629 C631 1.387 . S
H630 C637 0.950 . S
C631 C629 1.387 . S
C631 C633 1.390 . S
C631 H635 0.950 . S
H632 C628 0.950 . S
C633 C631 1.390 . S
C633 C634 1.387 . S
C633 H636 0.950 . S
C634 C633 1.387 . S
C634 C637 1.387 . S
H635 C631 0.950 . S
H636 C633 0.950 . S
C637 C628 1.390 . S
C637 H630 0.950 . S
C637 C634 1.387 . S
C638 C639 1.387 . S
C638 H642 0.950 . S
C638 C647 1.390 . S
C639 C638 1.387 . S
C639 C641 1.387 . S
H640 C647 0.950 . S
C641 C639 1.387 . S
C641 C643 1.390 . S
C641 H645 0.950 . S
H642 C638 0.950 . S
C643 C641 1.390 . S
C643 C644 1.387 . S
C643 H646 0.950 . S
C644 C643 1.387 . S
C644 C647 1.387 . S
H645 C641 0.950 . S
H646 C643 0.950 . S
C647 C638 1.390 . S
C647 H640 0.950 . S
C647 C644 1.387 . S
C648 C649 1.387 . S
C648 H652 0.950 . S
C648 C657 1.390 . S
C649 C648 1.387 . S
C649 C651 1.387 . S
H650 C657 0.950 . S
C651 C649 1.387 . S
C651 C653 1.390 . S
C651 H655 0.950 . S
H652 C648 0.950 . S
C653 C651 1.390 . S
C653 C654 1.387 . S
C653 H656 0.950 . S
C654 C653 1.387 . S
C654 C657 1.387 . S
H655 C651 0.950 . S
H656 C653 0.950 . S
C657 C648 1.390 . S
C657 H650 0.950 . S
C657 C654 1.387 . S
C658 C659 1.387 . S
C658 H662 0.950 . S
C658 C667 1.390 . S
C659 C658 1.387 . S
C659 C661 1.387 . S
H660 C667 0.950 . S
C661 C659 1.387 . S
C661 C663 1.390 . S
C661 H665 0.950 . S
H662 C658 0.950 . S
C663 C661 1.390 . S
C663 C664 1.387 . S
C663 H666 0.950 . S
C664 C663 1.387 . S
C664 C667 1.387 . S
H665 C661 0.950 . S
H666 C663 0.950 . S
C667 C658 1.390 . S
C667 H660 0.950 . S
C667 C664 1.387 . S
C668 C669 1.387 . S
C668 H672 0.950 . S
C668 C677 1.390 . S
C669 C668 1.387 . S
C669 C671 1.387 . S
H670 C677 0.950 . S
C671 C669 1.387 . S
C671 C673 1.390 . S
C671 H675 0.950 . S
H672 C668 0.950 . S
C673 C671 1.390 . S
C673 C674 1.387 . S
C673 H676 0.950 . S
C674 C673 1.387 . S
C674 C677 1.387 . S
H675 C671 0.950 . S
H676 C673 0.950 . S
C677 C668 1.390 . S
C677 H670 0.950 . S
C677 C674 1.387 . S
C678 C679 1.387 . S
C678 H682 0.950 . S
C678 C687 1.390 . S
C679 C678 1.387 . S
C679 C681 1.387 . S
H680 C687 0.950 . S
C681 C679 1.387 . S
C681 C683 1.390 . S
C681 H685 0.950 . S
H682 C678 0.950 . S
C683 C681 1.390 . S
C683 C684 1.387 . S
C683 H686 0.950 . S
C684 C683 1.387 . S
C684 C687 1.387 . S
H685 C681 0.950 . S
H686 C683 0.950 . S
C687 C678 1.390 . S
C687 H680 0.950 . S
C687 C684 1.387 . S
C449 C1 1.340 . S
C454 C305 1.377 . S
C459 C67 1.350 . S
C464 C345 1.383 . S
C474 C370 2.423 . S
C469 C97 2.470 . S
C479 C133 2.516 . S
C484 C410 2.446 . S
C494 C341 1.986 . S
C489 C25 1.884 . S
C504 C301 1.973 . S
C499 C37 1.860 . S
C514 C432 1.784 . S
C509 C103 1.809 . S
C524 C392 1.775 . S
C519 C109 1.814 . S
C529 C31 1.605 . S
C534 C434 1.644 . S
C544 C351 2.185 . S
C539 C73 2.238 . S
C549 C139 2.260 . S
C554 C311 2.214 . S
C559 C61 1.597 . S
C564 C394 1.640 . S
C574 C314 1.376 . S
C569 C175 1.263 . S
C579 C181 1.310 . S
C584 C354 1.367 . S
C589 C247 2.507 . S
C594 C391 2.445 . S
C599 C277 2.494 . S
C604 C431 2.435 . S
C609 C145 1.775 . S
C614 C352 1.974 . S
C624 C312 1.977 . S
C619 C211 1.862 . S
C634 C421 1.775 . S
C629 C217 1.790 . S
C644 C381 1.794 . S
C639 C283 1.812 . S
C649 C169 1.498 . S
C654 C425 1.637 . S
C664 C330 2.199 . S
C659 C241 2.262 . S
C674 C290 2.196 . S
C669 C253 2.258 . S
C679 C205 1.640 . S
C684 C385 1.648 . S
