# Generated by pormake.
# Topology nom, (4,4)-cn, num edge types: 1
# Building blocks:
#     Node 0, Type 0, BuildingBlock: KUFVIS_clean_linker_0, # of connection points: 4
#     Node 1, Type 0, BuildingBlock: KUFVIS_clean_linker_0, # of connection points: 4
#     Node 2, Type 0, BuildingBlock: KUFVIS_clean_linker_0, # of connection points: 4
#     Node 3, Type 0, BuildingBlock: KUFVIS_clean_linker_0, # of connection points: 4
#     Node 4, Type 0, BuildingBlock: KUFVIS_clean_linker_0, # of connection points: 4
#     Node 5, Type 0, BuildingBlock: KUFVIS_clean_linker_0, # of connection points: 4
#     Node 6, Type 1, BuildingBlock: KUFVIS_clean_sbu_0, # of connection points: 4
#     Node 7, Type 1, BuildingBlock: KUFVIS_clean_sbu_0, # of connection points: 4
#     Node 8, Type 1, BuildingBlock: KUFVIS_clean_sbu_0, # of connection points: 4
#     Node 9, Type 1, BuildingBlock: KUFVIS_clean_sbu_0, # of connection points: 4
#     Node 10, Type 1, BuildingBlock: KUFVIS_clean_sbu_0, # of connection points: 4
#     Node 11, Type 1, BuildingBlock: KUFVIS_clean_sbu_0, # of connection points: 4
#     Edge 12, Type (0, 1), BuildingBlock: TEMPAE_clean_linker_10, # of connection points: 2
#     Edge 13, Type (0, 1), BuildingBlock: TEMPAE_clean_linker_10, # of connection points: 2
#     Edge 14, Type (0, 1), BuildingBlock: TEMPAE_clean_linker_10, # of connection points: 2
#     Edge 15, Type (0, 1), BuildingBlock: TEMPAE_clean_linker_10, # of connection points: 2
#     Edge 16, Type (0, 1), BuildingBlock: TEMPAE_clean_linker_10, # of connection points: 2
#     Edge 17, Type (0, 1), BuildingBlock: TEMPAE_clean_linker_10, # of connection points: 2
#     Edge 18, Type (0, 1), BuildingBlock: TEMPAE_clean_linker_10, # of connection points: 2
#     Edge 19, Type (0, 1), BuildingBlock: TEMPAE_clean_linker_10, # of connection points: 2
#     Edge 20, Type (0, 1), BuildingBlock: TEMPAE_clean_linker_10, # of connection points: 2
#     Edge 21, Type (0, 1), BuildingBlock: TEMPAE_clean_linker_10, # of connection points: 2
#     Edge 22, Type (0, 1), BuildingBlock: TEMPAE_clean_linker_10, # of connection points: 2
#     Edge 23, Type (0, 1), BuildingBlock: TEMPAE_clean_linker_10, # of connection points: 2
#     Edge 24, Type (0, 1), BuildingBlock: TEMPAE_clean_linker_10, # of connection points: 2
#     Edge 25, Type (0, 1), BuildingBlock: TEMPAE_clean_linker_10, # of connection points: 2
#     Edge 26, Type (0, 1), BuildingBlock: TEMPAE_clean_linker_10, # of connection points: 2
#     Edge 27, Type (0, 1), BuildingBlock: TEMPAE_clean_linker_10, # of connection points: 2
#     Edge 28, Type (0, 1), BuildingBlock: TEMPAE_clean_linker_10, # of connection points: 2
#     Edge 29, Type (0, 1), BuildingBlock: TEMPAE_clean_linker_10, # of connection points: 2
#     Edge 30, Type (0, 1), BuildingBlock: TEMPAE_clean_linker_10, # of connection points: 2
#     Edge 31, Type (0, 1), BuildingBlock: TEMPAE_clean_linker_10, # of connection points: 2
#     Edge 32, Type (0, 1), BuildingBlock: TEMPAE_clean_linker_10, # of connection points: 2
#     Edge 33, Type (0, 1), BuildingBlock: TEMPAE_clean_linker_10, # of connection points: 2
#     Edge 34, Type (0, 1), BuildingBlock: TEMPAE_clean_linker_10, # of connection points: 2
#     Edge 35, Type (0, 1), BuildingBlock: TEMPAE_clean_linker_10, # of connection points: 2
# Relax obj value: 0.004
# Max RMSD: 0.052
# Mean RMSD: 0.039
data_MOF--net-nom--node1-KUFVIS_clean_sbu_0--node2-KUFVIS_clean_linker_0--edge1-TEMPAE_clean_linker_10
_symmetry_space_group_name_H-M    P1
_symmetry_Int_Tables_number       1
_symmetry_cell_setting            triclinic
loop_
_symmetry_equiv_pos_as_xyz
'x, y, z'
_cell_length_a     45.467616
_cell_length_b     45.910559
_cell_length_c     47.128318
_cell_angle_alpha  90.374179
_cell_angle_beta   90.481282
_cell_angle_gamma 120.02743
loop_
_atom_site_label
_atom_site_type_symbol
_atom_site_fract_x
_atom_site_fract_y
_atom_site_fract_z
_atom_type_partial_charge
H0 H 0.14704 0.64446 0.34415 0.0
H1 H 0.07778 0.5963 0.27517 0.0
H2 H 0.04069 0.59504 0.36023 0.0
H3 H 0.99243 0.55594 0.34606 0.0
H4 H 0.92315 0.52936 0.27624 0.0
H5 H 0.02937 0.58632 0.26029 0.0
C6 C 0.121 0.63073 0.33631 0.0
C7 C 0.09421 0.6197 0.3553 0.0
C8 C 0.11494 0.62282 0.30748 0.0
C9 C 0.08133 0.60319 0.29739 0.0
C10 C 0.05327 0.59303 0.31588 0.0
C11 C 0.06061 0.60171 0.34503 0.0
C12 C 1.01683 0.5743 0.30495 0.0
C13 C 0.98879 0.55748 0.32358 0.0
C14 C 0.95509 0.54259 0.31333 0.0
C15 C 0.94913 0.54236 0.28425 0.0
C16 C 0.97593 0.55732 0.26527 0.0
C17 C 1.00949 0.57377 0.2756 0.0
H18 H 0.52663 0.14078 0.51012 0.0
H19 H 0.48899 0.0698 0.44174 0.0
H20 H 0.48298 0.03669 0.52893 0.0
H21 H 0.44733 0.9877 0.51575 0.0
H22 H 0.4182 0.91642 0.44814 0.0
H23 H 0.47656 0.02084 0.42895 0.0
C24 C 0.51375 0.11474 0.50291 0.0
C25 C 0.50368 0.08904 0.52262 0.0
C26 C 0.50919 0.1077 0.47391 0.0
C27 C 0.4931 0.07407 0.46431 0.0
C28 C 0.48237 0.04704 0.48377 0.0
C29 C 0.48894 0.05556 0.51305 0.0
C30 C 0.46461 1.01046 0.47389 0.0
C31 C 0.44823 0.98345 0.49334 0.0
C32 C 0.43191 0.94978 0.48399 0.0
C33 C 0.4305 0.94253 0.45514 0.0
C34 C 0.44601 0.96818 0.43535 0.0
C35 C 0.46369 1.00187 0.44476 0.0
H36 H 0.53627 0.42355 0.62195 0.0
H37 H 0.49949 0.46026 0.68819 0.0
H38 H 0.49945 0.49027 0.60097 0.0
H39 H 0.45648 0.49622 0.61396 0.0
H40 H 0.4381 0.55021 0.67881 0.0
H41 H 0.5003 0.50723 0.69839 0.0
C42 C 0.52459 0.43813 0.62841 0.0
C43 C 0.51698 0.45547 0.6081 0.0
C44 C 0.51908 0.44053 0.65715 0.0
C45 C 0.50465 0.4599 0.66588 0.0
C46 C 0.49658 0.47794 0.6458 0.0
C47 C 0.50378 0.47592 0.61688 0.0
C48 C 0.4809 0.49875 0.65482 0.0
C49 C 0.4613 0.50599 0.63547 0.0
C50 C 0.44637 0.52495 0.64413 0.0
C51 C 0.4505 0.53639 0.67212 0.0
C52 C 0.46951 0.52974 0.69174 0.0
C53 C 0.48492 0.51125 0.68304 0.0
H54 H 0.14233 0.56494 0.7841 0.0
H55 H 0.06908 0.51534 0.84884 0.0
H56 H 0.03672 0.52392 0.76389 0.0
H57 H 0.99023 0.47502 0.77554 0.0
H58 H 0.91701 0.44819 0.84115 0.0
H59 H 1.02186 0.51628 0.86074 0.0
C60 C 0.11601 0.55213 0.79069 0.0
C61 C 0.09034 0.54558 0.77091 0.0
C62 C 0.10845 0.54164 0.81867 0.0
C63 C 0.07443 0.52425 0.82726 0.0
C64 C 0.04771 0.51735 0.80773 0.0
C65 C 0.05625 0.52826 0.77938 0.0
C66 C 1.01121 0.49857 0.8168 0.0
C67 C 0.9847 0.4781 0.79729 0.0
C68 C 0.95079 0.46018 0.80617 0.0
C69 C 0.94319 0.46266 0.83434 0.0
C70 C 0.96862 0.4825 0.85405 0.0
C71 C 1.00255 0.50052 0.84529 0.0
H72 H 0.50444 0.91153 0.00445 0.0
H73 H 0.55151 0.98709 0.94148 0.0
H74 H 0.54523 1.01509 0.02845 0.0
H75 H 0.5943 0.06184 0.01716 0.0
H76 H 0.61888 0.13742 0.9547 0.0
H77 H 0.54981 0.03437 0.93249 0.0
C78 C 0.51695 0.93792 -0.00116 0.0
C79 C 0.52379 0.9623 0.01975 0.0
C80 C 0.52629 0.94673 0.97077 0.0
C81 C 0.54357 0.98079 0.96323 0.0
C82 C 0.55104 1.00631 0.98389 0.0
C83 C 0.54079 0.99647 0.01223 0.0
C84 C 0.56943 0.04291 0.97593 0.0
C85 C 0.59053 0.06829 -0.00408 0.0
C86 C 0.60811 0.10232 0.98816 0.0
C87 C 0.60468 0.11113 0.96061 0.0
C88 C 0.58391 0.08691 0.94046 0.0
C89 C 0.56631 0.05283 0.94813 0.0
H90 H 0.5315 0.63189 0.12003 0.0
H91 H 0.56768 0.59556 0.18726 0.0
H92 H 0.56382 0.56149 0.10036 0.0
H93 H 0.60432 0.5526 0.1132 0.0
H94 H 0.61972 0.49658 0.17738 0.0
H95 H 0.56724 0.54935 0.19852 0.0
C96 C 0.54251 0.61686 0.12691 0.0
C97 C 0.54881 0.59818 0.10692 0.0
C98 C 0.54861 0.61543 0.15577 0.0
C99 C 0.56199 0.59523 0.16491 0.0
C100 C 0.56855 0.57568 0.14514 0.0
C101 C 0.56083 0.57697 0.11612 0.0
C102 C 0.58308 0.55392 0.1544 0.0
C103 C 0.59999 0.54382 0.13481 0.0
C104 C 0.61205 0.52235 0.14304 0.0
C105 C 0.60902 0.51209 0.17109 0.0
C106 C 0.59361 0.52239 0.19124 0.0
C107 C 0.58023 0.54283 0.18281 0.0
Mn108 Mn 0.6525 0.40318 0.40911 0.0
Mn109 Mn 0.69641 0.48477 0.43074 0.0
C110 C 0.6278 0.42445 0.43974 0.0
C111 C 0.63635 0.34626 0.41355 0.0
C112 C 0.66089 0.46233 0.37361 0.0
O113 O 0.7015 0.41739 0.39806 0.0
O114 O 0.72765 0.47018 0.41589 0.0
C115 C 0.73283 0.4757 0.47922 0.0
N116 N 0.7127 0.48732 0.46868 0.0
C117 C 0.71251 0.5121 0.51374 0.0
C118 C 0.73355 0.50071 0.52505 0.0
C119 C 0.74353 0.4822 0.50775 0.0
C120 C 0.70226 0.5044 0.4853 0.0
H121 H 0.74062 0.46157 0.46595 0.0
C122 C 0.72827 0.4455 0.40376 0.0
O123 O 0.63415 0.35867 0.38951 0.0
O124 O 0.64963 0.36732 0.43473 0.0
N125 N 0.67036 0.50327 0.44598 0.0
C126 C 0.64902 0.5113 0.43209 0.0
C127 C 0.63683 0.53002 0.44629 0.0
C128 C 0.64718 0.54077 0.47443 0.0
C129 C 0.66883 0.53189 0.48841 0.0
C130 C 0.68029 0.51334 0.47313 0.0
H131 H 0.64169 0.50387 0.41023 0.0
O132 O 0.60927 0.39715 0.42507 0.0
O133 O 0.66053 0.43802 0.43706 0.0
O134 O 0.6488 0.43089 0.37699 0.0
O135 O 0.67986 0.48482 0.39178 0.0
C136 C 0.67976 0.54094 0.51682 0.0
C137 C 0.70125 0.5307 0.52958 0.0
H138 H 0.74203 0.50587 0.54699 0.0
H139 H 0.75959 0.47315 0.51636 0.0
H140 H 0.61998 0.53665 0.43543 0.0
H141 H 0.6384 0.55595 0.48504 0.0
H142 H 0.67158 0.55553 0.52915 0.0
H143 H 0.70899 0.5373 0.55158 0.0
Mn144 Mn 0.27477 0.6584 0.55637 0.0
Mn145 Mn 0.22886 0.57698 0.53469 0.0
C146 C 0.22778 0.64104 0.52672 0.0
C147 C 0.31892 0.71397 0.55119 0.0
C148 C 0.22117 0.60163 0.59224 0.0
O149 O 0.30666 0.64019 0.56601 0.0
O150 O 0.27412 0.58733 0.54925 0.0
C151 C 0.27158 0.58136 0.48596 0.0
N152 N 0.2406 0.57286 0.49664 0.0
C153 C 0.21309 0.54976 0.45164 0.0
C154 C 0.24466 0.55802 0.44018 0.0
C155 C 0.27406 0.5741 0.45737 0.0
C156 C 0.21228 0.55805 0.48014 0.0
H157 H 0.29419 0.59355 0.49915 0.0
C158 C 0.30159 0.61067 0.5606 0.0
O159 O 0.30521 0.70246 0.57562 0.0
O160 O 0.30848 0.69256 0.53015 0.0
N161 N 0.1844 0.56251 0.51969 0.0
C162 C 0.15615 0.55737 0.53374 0.0
C163 C 0.12452 0.54129 0.51966 0.0
C164 C 0.12219 0.5302 0.49146 0.0
C165 C 0.15164 0.53614 0.4773 0.0
C166 C 0.18242 0.55209 0.49248 0.0
H167 H 0.15764 0.56504 0.55564 0.0
O168 O 0.23959 0.66845 0.54175 0.0
O169 O 0.24444 0.62486 0.5286 0.0
O170 O 0.24352 0.63244 0.58909 0.0
O171 O 0.2141 0.57865 0.57367 0.0
C172 C 0.15166 0.52664 0.4488 0.0
C173 C 0.18241 0.53375 0.4359 0.0
H174 H 0.24664 0.55228 0.41819 0.0
H175 H 0.29854 0.58069 0.44866 0.0
H176 H 0.1019 0.53693 0.53066 0.0
H177 H 0.0976 0.51704 0.48094 0.0
H178 H 0.12823 0.51412 0.43653 0.0
H179 H 0.18218 0.52682 0.41385 0.0
Mn180 Mn 0.64314 0.26958 0.72536 0.0
Mn181 Mn 0.68324 0.22776 0.70456 0.0
C182 C 0.61593 0.22339 0.69501 0.0
C183 C 0.62985 0.31247 0.72039 0.0
C184 C 0.64962 0.218 0.76157 0.0
O185 O 0.69297 0.30254 0.73612 0.0
O186 O 0.71661 0.27343 0.71855 0.0
C187 C 0.71935 0.27018 0.65541 0.0
N188 N 0.69845 0.23931 0.66648 0.0
C189 C 0.69562 0.21188 0.62206 0.0
C190 C 0.71746 0.24334 0.61025 0.0
C191 C 0.72915 0.27265 0.62695 0.0
C192 C 0.68637 0.21106 0.65041 0.0
H193 H 0.72843 0.29273 0.66821 0.0
C194 C 0.71884 0.29969 0.7302 0.0
O195 O 0.62742 0.29811 0.74456 0.0
O196 O 0.64157 0.30301 0.69938 0.0
N197 N 0.65481 0.18314 0.69 0.0
C198 C 0.63248 0.15498 0.70417 0.0
C199 C 0.61809 0.12352 0.6904 0.0
C200 C 0.62728 0.12127 0.66244 0.0
C201 C 0.65008 0.15061 0.6482 0.0
C202 C 0.6636 0.18124 0.663 0.0
H203 H 0.62595 0.15645 0.72589 0.0
O204 O 0.59871 0.23379 0.70944 0.0
O205 O 0.64882 0.24104 0.69782 0.0
O206 O 0.63854 0.23826 0.75774 0.0
O207 O 0.66783 0.21323 0.74376 0.0
C208 C 0.6601 0.15068 0.61996 0.0
C209 C 0.68253 0.18132 0.60679 0.0
H210 H 0.72523 0.24532 0.58835 0.0
H211 H 0.74581 0.29704 0.61794 0.0
H212 H 0.60037 0.10098 0.70146 0.0
H213 H 0.61667 0.09687 0.65213 0.0
H214 H 0.65049 0.12735 0.60806 0.0
H215 H 0.6895 0.1811 0.5849 0.0
Mn216 Mn 0.41227 0.65131 0.90871 0.0
Mn217 Mn 0.36838 0.56993 0.92917 0.0
C218 C 0.4373 0.63035 0.93927 0.0
C219 C 0.42742 0.70799 0.91325 0.0
C220 C 0.40336 0.59183 0.87267 0.0
O221 O 0.36321 0.63692 0.8971 0.0
O222 O 0.33698 0.58459 0.9147 0.0
C223 C 0.33325 0.57963 0.97785 0.0
N224 N 0.35297 0.56774 0.96708 0.0
C225 C 0.35369 0.54288 0.01165 0.0
C226 C 0.3331 0.55458 0.02318 0.0
C227 C 0.32307 0.57327 0.00626 0.0
C228 C 0.3635 0.55052 0.98337 0.0
H229 H 0.32537 0.59386 0.96485 0.0
C230 C 0.3364 0.60919 0.90272 0.0
O231 O 0.42985 0.69527 0.88934 0.0
O232 O 0.41504 0.68745 0.9344 0.0
N233 N 0.39453 0.55127 0.94407 0.0
C234 C 0.41528 0.54281 0.92997 0.0
C235 C 0.42727 0.52369 0.94374 0.0
C236 C 0.41731 0.51297 0.97163 0.0
C237 C 0.3963 0.52233 0.98586 0.0
C238 C 0.38501 0.54126 0.97101 0.0
H239 H 0.42226 0.55015 0.90825 0.0
O240 O 0.45569 0.6577 0.92523 0.0
O241 O 0.40453 0.61674 0.9362 0.0
O242 O 0.41587 0.62331 0.87663 0.0
O243 O 0.38401 0.56947 0.89018 0.0
C244 C 0.38579 0.51332 0.01407 0.0
C245 C 0.36487 0.52397 0.02708 0.0
H246 H 0.32498 0.54948 0.04502 0.0
H247 H 0.30734 0.58253 0.01504 0.0
H248 H 0.44364 0.51669 0.9327 0.0
H249 H 0.42586 0.49744 0.98187 0.0
H250 H 0.39384 0.49843 0.02605 0.0
H251 H 0.35745 0.51739 0.04893 0.0
Mn252 Mn 0.78904 0.40616 0.0711 0.0
Mn253 Mn 0.83635 0.37155 0.09138 0.0
C254 C 0.83701 0.43668 0.09933 0.0
C255 C 0.74423 0.41668 0.07737 0.0
C256 C 0.84171 0.40233 0.03382 0.0
O257 O 0.75746 0.3561 0.06208 0.0
O258 O 0.79061 0.33615 0.07822 0.0
C259 C 0.79589 0.33527 0.14142 0.0
N260 N 0.82633 0.35721 0.12981 0.0
C261 C 0.85568 0.36378 0.17417 0.0
C262 C 0.8247 0.34101 0.18657 0.0
C263 C 0.79464 0.32687 0.17016 0.0
C264 C 0.85526 0.37151 0.14554 0.0
H265 H 0.77276 0.3243 0.12886 0.0
C266 C 0.76276 0.33185 0.0675 0.0
O267 O 0.75731 0.41858 0.05262 0.0
O268 O 0.75594 0.40684 0.09818 0.0
N269 N 0.88131 0.40199 0.10505 0.0
C270 C 0.90888 0.42443 0.09015 0.0
C271 C 0.94101 0.44067 0.10339 0.0
C272 C 0.94456 0.43328 0.13164 0.0
C273 C 0.91582 0.4104 0.14667 0.0
C274 C 0.88448 0.39481 0.1323 0.0
H275 H 0.90646 0.42963 0.06822 0.0
O276 O 0.82414 0.45165 0.08489 0.0
O277 O 0.82066 0.40392 0.09791 0.0
O278 O 0.8194 0.41091 0.03772 0.0
O279 O 0.84938 0.38659 0.05194 0.0
C280 C 0.91703 0.40225 0.17528 0.0
C281 C 0.88693 0.37922 0.1891 0.0
H282 H 0.82366 0.33434 0.20869 0.0
H283 H 0.7706 0.30943 0.17961 0.0
H284 H 0.96308 0.45844 0.09172 0.0
H285 H 0.96954 0.44524 0.14152 0.0
H286 H 0.94092 0.41378 0.18694 0.0
H287 H 0.88811 0.37358 0.21122 0.0
Mn288 Mn 0.41088 0.78392 0.23858 0.0
Mn289 Mn 0.49344 0.82929 0.25939 0.0
C290 C 0.4291 0.83098 0.26768 0.0
C291 C 0.35506 0.73965 0.24444 0.0
C292 C 0.46779 0.83582 0.20165 0.0
O293 O 0.42918 0.75225 0.22901 0.0
O294 O 0.48243 0.78382 0.24633 0.0
C295 C 0.48899 0.7888 0.30955 0.0
N296 N 0.498 0.81913 0.29784 0.0
C297 C 0.52213 0.84803 0.3421 0.0
C298 C 0.51354 0.81716 0.35456 0.0
C299 C 0.49664 0.78738 0.33826 0.0
C300 C 0.51345 0.8478 0.31351 0.0
H301 H 0.47602 0.76589 0.29707 0.0
C302 C 0.45866 0.75673 0.23504 0.0
O303 O 0.36611 0.75316 0.21988 0.0
O304 O 0.37696 0.75072 0.2653 0.0
N305 N 0.50855 0.87395 0.27305 0.0
C306 C 0.51346 0.90138 0.25821 0.0
C307 C 0.52975 0.93318 0.2715 0.0
C308 C 0.54136 0.93653 0.29969 0.0
C309 C 0.53582 0.90793 0.31461 0.0
C310 C 0.51948 0.87692 0.30025 0.0
H311 H 0.50531 0.89908 0.23632 0.0
O312 O 0.40097 0.81899 0.25318 0.0
O313 O 0.44529 0.81438 0.2657 0.0
O314 O 0.43654 0.81457 0.20551 0.0
O315 O 0.49137 0.84238 0.2198 0.0
C316 C 0.54601 0.90897 0.34311 0.0
C317 C 0.53881 0.87899 0.35694 0.0
H318 H 0.51956 0.816 0.37666 0.0
H319 H 0.48967 0.76343 0.34777 0.0
H320 H 0.53382 0.95513 0.2599 0.0
H321 H 0.55456 0.96121 0.30964 0.0
H322 H 0.55914 0.93263 0.35469 0.0
H323 H 0.54617 0.88004 0.37901 0.0
C324 C 0.16567 0.67055 0.28604 0.0
C325 C 0.14486 0.63571 0.2888 0.0
C326 C 0.19849 0.68446 0.27503 0.0
C327 C 0.21099 0.66298 0.26674 0.0
C328 C 0.18921 0.6276 0.26777 0.0
C329 C 0.15631 0.61434 0.27889 0.0
C330 C 0.22061 0.72227 0.27418 0.0
C331 C 0.20139 0.6038 0.259 0.0
C332 C 0.29456 0.70674 0.2269 0.0
C333 C 0.31841 0.71559 0.24914 0.0
C334 C 0.25942 0.68798 0.23196 0.0
C335 C 0.2478 0.6779 0.25993 0.0
C336 C 0.2718 0.68521 0.28216 0.0
C337 C 0.30673 0.70391 0.2765 0.0
C338 C 0.23477 0.68049 0.20763 0.0
C339 C 0.26059 0.67486 0.3123 0.0
H340 H 0.15687 0.68703 0.29406 0.0
H341 H 0.14041 0.58741 0.2815 0.0
H342 H 0.24148 0.73064 0.29012 0.0
H343 H 0.23242 0.73025 0.25306 0.0
H344 H 0.20612 0.7353 0.2788 0.0
H345 H 0.18011 0.57746 0.25688 0.0
H346 H 0.21494 0.61154 0.23854 0.0
H347 H 0.21964 0.60457 0.27518 0.0
H348 H 0.30329 0.71554 0.20566 0.0
H349 H 0.3249 0.71048 0.29381 0.0
H350 H 0.22238 0.69592 0.21006 0.0
H351 H 0.21442 0.65369 0.20773 0.0
H352 H 0.24752 0.68611 0.18675 0.0
H353 H 0.24826 0.6888 0.32047 0.0
H354 H 0.28218 0.67997 0.32669 0.0
H355 H 0.24154 0.64764 0.31304 0.0
C356 C 0.55465 0.14698 0.44154 0.0
C357 C 0.52342 0.13675 0.45452 0.0
C358 C 0.574 0.17968 0.43071 0.0
C359 C 0.5617 0.20253 0.43294 0.0
C360 C 0.52892 0.19128 0.44407 0.0
C361 C 0.51031 0.15861 0.4549 0.0
C362 C 0.60872 0.19053 0.419 0.0
C363 C 0.51457 0.21455 0.4466 0.0
C364 C 0.62236 0.29638 0.44388 0.0
C365 C 0.62102 0.30935 0.41735 0.0
C366 C 0.60431 0.26156 0.44882 0.0
C367 C 0.58425 0.23904 0.42673 0.0
C368 C 0.58398 0.25185 0.39954 0.0
C369 C 0.60238 0.28682 0.39517 0.0
C370 C 0.60561 0.249 0.47808 0.0
C371 C 0.56305 0.22878 0.37542 0.0
H372 H 0.5651 0.13031 0.44181 0.0
H373 H 0.4864 0.15084 0.46539 0.0
H374 H 0.61283 0.2048 0.39911 0.0
H375 H 0.62843 0.20751 0.43456 0.0
H376 H 0.6124 0.16875 0.41469 0.0
H377 H 0.48738 0.20094 0.45262 0.0
H378 H 0.52913 0.23414 0.463 0.0
H379 H 0.51707 0.22757 0.42626 0.0
H380 H 0.63673 0.31352 0.46113 0.0
H381 H 0.60115 0.29655 0.37457 0.0
H382 H 0.61252 0.22904 0.4767 0.0
H383 H 0.58013 0.2377 0.48781 0.0
H384 H 0.62419 0.26942 0.49235 0.0
H385 H 0.56821 0.20769 0.37307 0.0
H386 H 0.5682 0.24219 0.35492 0.0
H387 H 0.53565 0.21764 0.38012 0.0
C388 C 0.39193 0.52265 0.6323 0.0
C389 C 0.42553 0.53305 0.62495 0.0
C390 C 0.37388 0.53637 0.61921 0.0
C391 C 0.38982 0.56122 0.5982 0.0
C392 C 0.42322 0.57057 0.58963 0.0
C393 C 0.44075 0.55636 0.60318 0.0
C394 C 0.33824 0.52535 0.62883 0.0
C395 C 0.44098 0.59673 0.56716 0.0
C396 C 0.32767 0.57449 0.5538 0.0
C397 C 0.32792 0.60169 0.56793 0.0
C398 C 0.34918 0.56239 0.56233 0.0
C399 C 0.37139 0.57755 0.58582 0.0
C400 C 0.37311 0.60613 0.59928 0.0
C401 C 0.35147 0.61801 0.59006 0.0
C402 C 0.34677 0.53219 0.54711 0.0
C403 C 0.39649 0.62302 0.62442 0.0
H404 H 0.38036 0.50488 0.64938 0.0
H405 H 0.46696 0.56486 0.5979 0.0
H406 H 0.33743 0.54706 0.63846 0.0
H407 H 0.32042 0.5164 0.6104 0.0
H408 H 0.3291 0.50491 0.64466 0.0
H409 H 0.46545 0.59877 0.56092 0.0
H410 H 0.42451 0.59069 0.54801 0.0
H411 H 0.44616 0.62162 0.57528 0.0
H412 H 0.30992 0.56195 0.53637 0.0
H413 H 0.35188 0.63902 0.60106 0.0
H414 H 0.33493 0.51007 0.56122 0.0
H415 H 0.37245 0.53676 0.54182 0.0
H416 H 0.33133 0.52586 0.52725 0.0
H417 H 0.38777 0.60572 0.64272 0.0
H418 H 0.39725 0.64672 0.63083 0.0
H419 H 0.42266 0.62875 0.61951 0.0
C420 C 0.90269 0.40349 0.79432 0.0
C421 C 0.92215 0.4375 0.78721 0.0
C422 C 0.87032 0.38296 0.78235 0.0
C423 C 0.85709 0.39675 0.76263 0.0
C424 C 0.87754 0.43059 0.75402 0.0
C425 C 0.90991 0.4507 0.76655 0.0
C426 C 0.84958 0.347 0.79203 0.0
C427 C 0.86456 0.44604 0.73274 0.0
C428 C 0.78111 0.33032 0.72099 0.0
C429 C 0.75371 0.32771 0.73665 0.0
C430 C 0.81479 0.35413 0.72812 0.0
C431 C 0.8215 0.37564 0.75184 0.0
C432 C 0.79398 0.37424 0.76702 0.0
C433 C 0.76033 0.35044 0.75908 0.0
C434 C 0.84324 0.3551 0.71107 0.0
C435 C 0.80012 0.39665 0.79256 0.0
H436 H 0.91209 0.3935 0.81059 0.0
H437 H 0.92473 0.47717 0.76149 0.0
H438 H 0.82657 0.34348 0.80306 0.0
H439 H 0.8409 0.32955 0.77349 0.0
H440 H 0.86408 0.33983 0.8067 0.0
H441 H 0.88483 0.47124 0.7259 0.0
H442 H 0.8538 0.42946 0.71375 0.0
H443 H 0.84381 0.44874 0.74228 0.0
H444 H 0.77631 0.31317 0.70336 0.0
H445 H 0.73935 0.3486 0.77124 0.0
H446 H 0.85678 0.34524 0.72399 0.0
H447 H 0.86203 0.38136 0.70545 0.0
H448 H 0.8338 0.33979 0.69124 0.0
H449 H 0.81214 0.38975 0.80984 0.0
H450 H 0.77623 0.39451 0.80061 0.0
H451 H 0.81791 0.4233 0.78726 0.0
C452 C 0.53609 0.90261 0.95008 0.0
C453 C 0.51703 0.9189 0.95027 0.0
C454 C 0.52208 0.86954 0.93956 0.0
C455 C 0.48808 0.85233 0.92926 0.0
C456 C 0.46981 0.86979 0.92722 0.0
C457 C 0.4845 0.9029 0.93788 0.0
C458 C 0.54261 0.85205 0.94197 0.0
C459 C 0.43364 0.85257 0.91623 0.0
C460 C 0.45579 0.76652 0.89386 0.0
C461 C 0.44045 0.74466 0.91666 0.0
C462 C 0.47075 0.80159 0.89738 0.0
C463 C 0.47041 0.81515 0.92435 0.0
C464 C 0.45414 0.79314 0.94724 0.0
C465 C 0.43939 0.75822 0.94311 0.0
C466 C 0.48768 0.82414 0.87246 0.0
C467 C 0.45305 0.80652 0.97634 0.0
H468 H 0.56095 0.91477 0.96029 0.0
H469 H 0.4695 0.91527 0.93868 0.0
H470 H 0.53241 0.83347 0.95933 0.0
H471 H 0.54062 0.83808 0.92208 0.0
H472 H 0.56986 0.87003 0.94663 0.0
H473 H 0.42501 0.87084 0.91169 0.0
H474 H 0.43086 0.83785 0.89663 0.0
H475 H 0.41664 0.8347 0.93236 0.0
H476 H 0.45674 0.7563 0.87332 0.0
H477 H 0.4276 0.74157 0.96083 0.0
H478 H 0.51536 0.83988 0.87677 0.0
H479 H 0.47763 0.8415 0.86935 0.0
H480 H 0.48387 0.80964 0.85247 0.0
H481 H 0.47928 0.82241 0.98483 0.0
H482 H 0.43845 0.78608 0.99163 0.0
H483 H 0.44135 0.82266 0.97498 0.0
C484 C 0.66386 0.528 0.12061 0.0
C485 C 0.62851 0.51013 0.12314 0.0
C486 C 0.68114 0.51258 0.10904 0.0
C487 C 0.66251 0.47844 0.1 0.0
C488 C 0.62655 0.46116 0.10066 0.0
C489 C 0.60997 0.47719 0.11241 0.0
C490 C 0.71947 0.53198 0.10866 0.0
C491 C 0.60568 0.42489 0.09109 0.0
C492 C 0.71077 0.44322 0.06019 0.0
C493 C 0.71995 0.42885 0.08231 0.0
C494 C 0.69126 0.45867 0.06539 0.0
C495 C 0.68075 0.45982 0.09336 0.0
C496 C 0.68888 0.44424 0.11555 0.0
C497 C 0.70833 0.42895 0.10975 0.0
C498 C 0.68291 0.47475 0.04116 0.0
C499 C 0.678 0.4447 0.14567 0.0
H500 H 0.67813 0.55325 0.12949 0.0
H501 H 0.58263 0.46324 0.11494 0.0
H502 H 0.72955 0.52184 0.12499 0.0
H503 H 0.72884 0.52902 0.0878 0.0
H504 H 0.72989 0.55923 0.1131 0.0
H505 H 0.57829 0.41679 0.08885 0.0
H506 H 0.61484 0.42087 0.0705 0.0
H507 H 0.60841 0.40855 0.10688 0.0
H508 H 0.71966 0.4433 0.03891 0.0
H509 H 0.71527 0.41792 0.12696 0.0
H510 H 0.69619 0.50241 0.04451 0.0
H511 H 0.65526 0.46571 0.04043 0.0
H512 H 0.69055 0.46936 0.02033 0.0
H513 H 0.68992 0.47104 0.15361 0.0
H514 H 0.68519 0.43031 0.16026 0.0
H515 H 0.65007 0.4339 0.14641 0.0
C516 C 0.38211 0.89872 0.50306 0.0
C517 C 0.4172 0.92104 0.50367 0.0
C518 C 0.36822 0.86662 0.51499 0.0
C519 C 0.39007 0.85638 0.52739 0.0
C520 C 0.42538 0.87969 0.52963 0.0
C521 C 0.43854 0.91184 0.51774 0.0
C522 C 0.3304 0.84282 0.51245 0.0
C523 C 0.44958 0.86987 0.54259 0.0
C524 C 0.34634 0.77406 0.56796 0.0
C525 C 0.34181 0.75056 0.54666 0.0
C526 C 0.3633 0.80878 0.56244 0.0
C527 C 0.37622 0.82032 0.53503 0.0
C528 C 0.37341 0.79684 0.51396 0.0
C529 C 0.35616 0.7623 0.51999 0.0
C530 C 0.36576 0.8329 0.5855 0.0
C531 C 0.38722 0.80806 0.48455 0.0
H532 H 0.36574 0.90571 0.49175 0.0
H533 H 0.46577 0.92889 0.51765 0.0
H534 H 0.32532 0.82247 0.49696 0.0
H535 H 0.32001 0.83083 0.53312 0.0
H536 H 0.3166 0.85576 0.50523 0.0
H537 H 0.47518 0.89205 0.54656 0.0
H538 H 0.43961 0.85656 0.56287 0.0
H539 H 0.45224 0.85231 0.52796 0.0
H540 H 0.33531 0.76526 0.58863 0.0
H541 H 0.35292 0.74438 0.50344 0.0
H542 H 0.34907 0.84327 0.57993 0.0
H543 H 0.39208 0.85443 0.58737 0.0
H544 H 0.35799 0.82054 0.60645 0.0
H545 H 0.37274 0.8184 0.47368 0.0
H546 H 0.38552 0.78711 0.47136 0.0
H547 H 0.41417 0.82842 0.48581 0.0
C548 C 0.5148 0.38843 0.67662 0.0
C549 C 0.53066 0.42359 0.67726 0.0
C550 C 0.531 0.37182 0.688 0.0
C551 C 0.56411 0.39092 0.69993 0.0
C552 C 0.57914 0.42634 0.70249 0.0
C553 C 0.56218 0.44229 0.69109 0.0
C554 C 0.51379 0.33402 0.6851 0.0
C555 C 0.61432 0.44768 0.71505 0.0
C556 C 0.59921 0.34163 0.73819 0.0
C557 C 0.61664 0.33597 0.71632 0.0
C558 C 0.58297 0.36047 0.73356 0.0
C559 C 0.58425 0.3741 0.70643 0.0
C560 C 0.60308 0.36971 0.68466 0.0
C561 C 0.61895 0.35067 0.68985 0.0
C562 C 0.56324 0.36458 0.75732 0.0
C563 C 0.6054 0.38407 0.65548 0.0
H564 H 0.49068 0.37407 0.66545 0.0
H565 H 0.57475 0.46953 0.69101 0.0
H566 H 0.52699 0.3273 0.66885 0.0
H567 H 0.51534 0.32275 0.70541 0.0
H568 H 0.48665 0.32264 0.67865 0.0
H569 H 0.62016 0.47383 0.71957 0.0
H570 H 0.61723 0.43656 0.73496 0.0
H571 H 0.63332 0.44864 0.6999 0.0
H572 H 0.59726 0.33037 0.75874 0.0
H573 H 0.63242 0.34654 0.67285 0.0
H574 H 0.5357 0.35035 0.75201 0.0
H575 H 0.57051 0.3914 0.75995 0.0
H576 H 0.5674 0.35534 0.77785 0.0
H577 H 0.57982 0.37186 0.6453 0.0
H578 H 0.62278 0.38031 0.64147 0.0
H579 H 0.61448 0.4114 0.6571 0.0
C580 C 0.15683 0.53366 0.83163 0.0
C581 C 0.13713 0.54845 0.83784 0.0
C582 C 0.18863 0.5452 0.84468 0.0
C583 C 0.20115 0.57239 0.86436 0.0
C584 C 0.18063 0.58644 0.87168 0.0
C585 C 0.14876 0.57429 0.85824 0.0
C586 C 0.20946 0.52923 0.83645 0.0
C587 C 0.19298 0.61528 0.89267 0.0
C588 C 0.27382 0.58031 0.90998 0.0
C589 C 0.30236 0.60398 0.89502 0.0
C590 C 0.24078 0.57137 0.90126 0.0
C591 C 0.23597 0.5861 0.87672 0.0
C592 C 0.26467 0.61131 0.86234 0.0
C593 C 0.29761 0.62015 0.8718 0.0
C594 C 0.21101 0.54478 0.91746 0.0
C595 C 0.26055 0.62758 0.83604 0.0
H596 H 0.14792 0.514 0.8155 0.0
H597 H 0.13375 0.58615 0.86254 0.0
H598 H 0.23324 0.54817 0.82621 0.0
H599 H 0.2168 0.52034 0.85562 0.0
H600 H 0.19554 0.50759 0.82156 0.0
H601 H 0.17284 0.6213 0.898 0.0
H602 H 0.20209 0.60931 0.91251 0.0
H603 H 0.21481 0.63801 0.88367 0.0
H604 H 0.27722 0.56799 0.92822 0.0
H605 H 0.31951 0.63843 0.86017 0.0
H606 H 0.19781 0.52136 0.90446 0.0
H607 H 0.19235 0.55305 0.92181 0.0
H608 H 0.21899 0.53882 0.93793 0.0
H609 H 0.24961 0.60863 0.81859 0.0
H610 H 0.28511 0.6489 0.82893 0.0
H611 H 0.24263 0.63688 0.83994 0.0
C612 C 0.61728 0.14 0.02988 0.0
C613 C 0.63083 0.12995 0.00783 0.0
C614 C 0.6368 0.17164 0.0433 0.0
C615 C 0.67042 0.19362 0.03418 0.0
C616 C 0.68474 0.18253 0.01311 0.0
C617 C 0.6648 0.15083 0.00028 0.0
C618 C 0.62079 0.18229 0.06599 0.0
C619 C 0.72047 0.20497 0.00279 0.0
C620 C 0.71175 0.289 0.03949 0.0
C621 C 0.73598 0.2966 0.06109 0.0
C622 C 0.68911 0.2554 0.03132 0.0
C623 C 0.69039 0.22882 0.04542 0.0
C624 C 0.71341 0.23635 0.06837 0.0
C625 C 0.73606 0.27006 0.07574 0.0
C626 C 0.66505 0.24842 0.00662 0.0
C627 C 0.71523 0.20887 0.08432 0.0
H628 H 0.59082 0.12409 0.03535 0.0
H629 H 0.67509 0.14314 0.98298 0.0
H630 H 0.63827 0.19342 0.08452 0.0
H631 H 0.61583 0.20195 0.05753 0.0
H632 H 0.59638 0.16091 0.0733 0.0
H633 H 0.72837 0.19192 0.9873 0.0
H634 H 0.72222 0.22744 0.99247 0.0
H635 H 0.73872 0.21401 0.02093 0.0
H636 H 0.71151 0.30932 0.02809 0.0
H637 H 0.75437 0.27563 0.09276 0.0
H638 H 0.63875 0.22953 0.01251 0.0
H639 H 0.67227 0.2377 0.9886 0.0
H640 H 0.66529 0.27151 -0.00067 0.0
H641 H 0.68943 0.18893 0.09043 0.0
H642 H 0.73139 0.21858 0.10376 0.0
H643 H 0.72592 0.19697 0.0704 0.0
C644 C 0.55186 0.66904 0.17046 0.0
C645 C 0.53935 0.63479 0.17548 0.0
C646 C 0.53707 0.68628 0.18304 0.0
C647 C 0.50915 0.66893 0.20136 0.0
C648 C 0.49783 0.63487 0.20801 0.0
C649 C 0.51304 0.61811 0.19488 0.0
C650 C 0.5502 0.72263 0.17548 0.0
C651 C 0.46854 0.61566 0.22777 0.0
C652 C 0.49207 0.72827 0.24509 0.0
C653 C 0.46705 0.73001 0.22869 0.0
C654 C 0.50424 0.70665 0.23758 0.0
C655 C 0.49162 0.68662 0.21269 0.0
C656 C 0.46504 0.68685 0.19684 0.0
C657 C 0.45283 0.70837 0.20518 0.0
C658 C 0.53206 0.70677 0.25541 0.0
C659 C 0.45098 0.66594 0.17009 0.0
H660 H 0.57207 0.68185 0.1553 0.0
H661 H 0.503 0.59149 0.19843 0.0
H662 H 0.52998 0.72504 0.16427 0.0
H663 H 0.5571 0.73843 0.19501 0.0
H664 H 0.57281 0.73275 0.16166 0.0
H665 H 0.46557 0.5909 0.2335 0.0
H666 H 0.47208 0.63043 0.24751 0.0
H667 H 0.44465 0.61131 0.21742 0.0
H668 H 0.50296 0.74461 0.26352 0.0
H669 H 0.43355 0.70961 0.19242 0.0
H670 H 0.55636 0.71961 0.24379 0.0
H671 H 0.52631 0.68067 0.25948 0.0
H672 H 0.53567 0.71998 0.27609 0.0
H673 H 0.47077 0.67572 0.15353 0.0
H674 H 0.42829 0.66637 0.16173 0.0
H675 H 0.44401 0.63947 0.17402 0.0
C676 C 0.91811 0.50024 0.34967 0.0
C677 C 0.92513 0.52751 0.3322 0.0
C678 C 0.88679 0.48272 0.36378 0.0
C679 C 0.86217 0.49283 0.36028 0.0
C680 C 0.86984 0.52111 0.34339 0.0
C681 C 0.90113 0.53803 0.32965 0.0
C682 C 0.87966 0.45285 0.38172 0.0
C683 C 0.84466 0.53315 0.33927 0.0
C684 C 0.7668 0.43768 0.37031 0.0
C685 C 0.76229 0.45158 0.39533 0.0
C686 C 0.7996 0.44909 0.35957 0.0
C687 C 0.82843 0.47466 0.37438 0.0
C688 C 0.82402 0.48654 0.40085 0.0
C689 C 0.7911 0.47504 0.41088 0.0
C690 C 0.80319 0.43565 0.33131 0.0
C691 C 0.85388 0.51343 0.41758 0.0
H692 H 0.93647 0.49183 0.35136 0.0
H693 H 0.90657 0.55915 0.31616 0.0
H694 H 0.87135 0.45556 0.40316 0.0
H695 H 0.85859 0.42963 0.37194 0.0
H696 H 0.90223 0.44966 0.38397 0.0
H697 H 0.85464 0.55562 0.32554 0.0
H698 H 0.82086 0.51279 0.32949 0.0
H699 H 0.83804 0.53955 0.3601 0.0
H700 H 0.7447 0.41958 0.35819 0.0
H701 H 0.7879 0.48562 0.43045 0.0
H702 H 0.82399 0.42967 0.33223 0.0
H703 H 0.80991 0.45518 0.31493 0.0
H704 H 0.77933 0.41272 0.32451 0.0
H705 H 0.87485 0.50772 0.41863 0.0
H706 H 0.84681 0.51615 0.43955 0.0
H707 H 0.8637 0.53794 0.40681 0.0
C708 C 0.08861 0.59578 0.40345 0.0
C709 C 0.10225 0.62406 0.38608 0.0
C710 C 0.10322 0.59706 0.43008 0.0
C711 C 0.13215 0.62732 0.43939 0.0
C712 C 0.14329 0.65694 0.42337 0.0
C713 C 0.12826 0.65492 0.39679 0.0
C714 C 0.08973 0.56497 0.44646 0.0
C715 C 0.17315 0.6901 0.43299 0.0
C716 C 0.1731 0.63702 0.51217 0.0
C717 C 0.20096 0.63324 0.50537 0.0
C718 C 0.14957 0.63394 0.49115 0.0
C719 C 0.15422 0.62703 0.46275 0.0
C720 C 0.18198 0.62243 0.45602 0.0
C721 C 0.20542 0.62635 0.47733 0.0
C722 C 0.12063 0.63946 0.49908 0.0
C723 C 0.1876 0.61446 0.42609 0.0
H724 H 0.06846 0.57185 0.39524 0.0
H725 H 0.13844 0.67699 0.38351 0.0
H726 H 0.10277 0.55144 0.43908 0.0
H727 H 0.09425 0.56979 0.46959 0.0
H728 H 0.06206 0.5483 0.44248 0.0
H729 H 0.17477 0.71155 0.42091 0.0
H730 H 0.17146 0.69453 0.45594 0.0
H731 H 0.19702 0.68954 0.42979 0.0
H732 H 0.17015 0.64308 0.53385 0.0
H733 H 0.22778 0.62491 0.47192 0.0
H734 H 0.09616 0.61841 0.49097 0.0
H735 H 0.12421 0.6628 0.48906 0.0
H736 H 0.1189 0.64179 0.52241 0.0
H737 H 0.16423 0.59215 0.41774 0.0
H738 H 0.20902 0.60939 0.42481 0.0
H739 H 0.19316 0.6359 0.41208 0.0
C740 C 0.50457 0.12272 0.5647 0.0
C741 C 0.51106 0.09833 0.55309 0.0
C742 C 0.51833 0.13776 0.59111 0.0
C743 C 0.53895 0.12803 0.6063 0.0
C744 C 0.54239 0.10082 0.59607 0.0
C745 C 0.5286 0.08642 0.56941 0.0
C746 C 0.51306 0.16596 0.60158 0.0
C747 C 0.56303 0.0887 0.61185 0.0
C748 C 0.61037 0.20218 0.64559 0.0
C749 C 0.59851 0.19675 0.67339 0.0
C750 C 0.59221 0.17872 0.62396 0.0
C751 C 0.56071 0.14976 0.63013 0.0
C752 C 0.54881 0.14395 0.65834 0.0
C753 C 0.56784 0.16769 0.67967 0.0
C754 C 0.60608 0.18567 0.59424 0.0
C755 C 0.51527 0.11362 0.66572 0.0
H756 H 0.49028 0.13141 0.55235 0.0
H757 H 0.53361 0.06748 0.56057 0.0
H758 H 0.5066 0.16294 0.62441 0.0
H759 H 0.53696 0.19033 0.59924 0.0
H760 H 0.49259 0.16715 0.58952 0.0
H761 H 0.55482 0.06214 0.60626 0.0
H762 H 0.58994 0.10439 0.60575 0.0
H763 H 0.56123 0.09084 0.63513 0.0
H764 H 0.6334 0.22533 0.64061 0.0
H765 H 0.55845 0.1639 0.70118 0.0
H766 H 0.58908 0.19009 0.58012 0.0
H767 H 0.60691 0.16352 0.58567 0.0
H768 H 0.63201 0.208 0.59342 0.0
H769 H 0.51184 0.11042 0.68903 0.0
H770 H 0.51314 0.09041 0.65633 0.0
H771 H 0.49423 0.11643 0.65669 0.0
C772 C 0.47556 0.57287 0.72726 0.0
C773 C 0.47065 0.54069 0.7216 0.0
C774 C 0.46744 0.58091 0.75366 0.0
C775 C 0.45496 0.55644 0.77521 0.0
C776 C 0.45321 0.52508 0.77056 0.0
C777 C 0.46087 0.51744 0.74365 0.0
C778 C 0.46965 0.61464 0.75766 0.0
C779 C 0.44108 0.49877 0.79335 0.0
C780 C 0.44987 0.58983 0.84769 0.0
C781 C 0.41564 0.58107 0.84836 0.0
C782 C 0.46274 0.58045 0.82463 0.0
C783 C 0.44097 0.5628 0.80141 0.0
C784 C 0.40614 0.55347 0.80229 0.0
C785 C 0.39374 0.56234 0.82606 0.0
C786 C 0.49971 0.59001 0.82487 0.0
C787 C 0.38227 0.53518 0.77771 0.0
H788 H 0.48365 0.59107 0.71033 0.0
H789 H 0.45701 0.49252 0.73935 0.0
H790 H 0.4437 0.61089 0.75987 0.0
H791 H 0.48404 0.62723 0.77737 0.0
H792 H 0.48208 0.63166 0.73953 0.0
H793 H 0.4465 0.47831 0.78812 0.0
H794 H 0.45326 0.51027 0.81408 0.0
H795 H 0.41325 0.4875 0.79582 0.0
H796 H 0.46654 0.60396 0.86534 0.0
H797 H 0.36724 0.55556 0.82686 0.0
H798 H 0.5135 0.60921 0.80849 0.0
H799 H 0.50224 0.56779 0.81955 0.0
H800 H 0.51219 0.60036 0.84579 0.0
H801 H 0.39115 0.55094 0.75845 0.0
H802 H 0.35581 0.52908 0.78202 0.0
H803 H 0.38219 0.51146 0.77289 0.0
C804 C 0.97299 0.47132 0.9053 0.0
C805 C 0.95867 0.48168 0.88401 0.0
C806 C 0.95748 0.4614 0.93191 0.0
C807 C 0.92693 0.46165 0.937 0.0
C808 C 0.91403 0.47469 0.91632 0.0
C809 C 0.93026 0.48483 0.89017 0.0
C810 C 0.97246 0.44848 0.95375 0.0
C811 C 0.88158 0.47547 0.92087 0.0
C812 C 0.86089 0.39667 0.98576 0.0
C813 C 0.86392 0.41655 0.00937 0.0
C814 C 0.88185 0.41097 0.9622 0.0
C815 C 0.90671 0.44571 0.96275 0.0
C816 C 0.91048 0.46549 0.98712 0.0
C817 C 0.88873 0.45069 0.01006 0.0
C818 C 0.87679 0.38917 0.93642 0.0
C819 C 0.93701 0.50236 0.98875 0.0
H820 H 0.99485 0.46872 0.90052 0.0
H821 H 0.91939 0.49314 0.87373 0.0
H822 H 0.97291 0.45916 0.97504 0.0
H823 H 0.95641 0.42074 0.95511 0.0
H824 H 0.99869 0.45468 0.94834 0.0
H825 H 0.87649 0.48881 0.90363 0.0
H826 H 0.85987 0.44933 0.92177 0.0
H827 H 0.88268 0.48795 0.94139 0.0
H828 H 0.84169 0.37022 0.98553 0.0
H829 H 0.89109 0.46579 0.02868 0.0
H830 H 0.90097 0.39016 0.93103 0.0
H831 H 0.86918 0.39885 0.91791 0.0
H832 H 0.85701 0.3625 0.93969 0.0
H833 H 0.96232 0.50597 0.98337 0.0
H834 H 0.9386 0.5134 0.01015 0.0
H835 H 0.93093 0.5165 0.97301 0.0
C836 C 0.5372 0.96489 0.07186 0.0
C837 C 0.5137 0.95088 0.04935 0.0
C838 C 0.53018 0.94929 0.09852 0.0
C839 C 0.49919 0.91884 0.10248 0.0
C840 C 0.47456 0.90592 0.08035 0.0
C841 C 0.48194 0.92235 0.05425 0.0
C842 C 0.55664 0.96439 0.1219 0.0
C843 C 0.44125 0.87349 0.08356 0.0
C844 C 0.49579 0.85447 0.15477 0.0
C845 C 0.4766 0.85719 0.17653 0.0
C846 C 0.50381 0.87483 0.13067 0.0
C847 C 0.49319 0.89906 0.12888 0.0
C848 C 0.47481 0.90259 0.15145 0.0
C849 C 0.46633 0.88125 0.17486 0.0
C850 C 0.52283 0.86981 0.1068 0.0
C851 C 0.46379 0.92861 0.15072 0.0
H852 H 0.56179 0.98689 0.06819 0.0
H853 H 0.46344 0.91178 0.03704 0.0
H854 H 0.5448 0.96507 0.1422 0.0
H855 H 0.56841 0.94852 0.12514 0.0
H856 H 0.57704 0.9903 0.11688 0.0
H857 H 0.42415 0.86777 0.06482 0.0
H858 H 0.44621 0.85234 0.08642 0.0
H859 H 0.42786 0.87469 0.10269 0.0
H860 H 0.50381 0.83591 0.15634 0.0
H861 H 0.45192 0.88354 0.19209 0.0
H862 H 0.54638 0.89379 0.10233 0.0
H863 H 0.50696 0.86211 0.08716 0.0
H864 H 0.52977 0.85035 0.11171 0.0
H865 H 0.48581 0.95376 0.14617 0.0
H866 H 0.45236 0.93011 0.17103 0.0
H867 H 0.44482 0.92242 0.13341 0.0
C868 C 0.6072 0.53755 0.24273 0.0
C869 C 0.59389 0.51285 0.22125 0.0
C870 C 0.61541 0.53034 0.26964 0.0
C871 C 0.61044 0.49784 0.27493 0.0
C872 C 0.59462 0.47222 0.25397 0.0
C873 C 0.58624 0.47998 0.22751 0.0
C874 C 0.63142 0.55808 0.29172 0.0
C875 C 0.58879 0.43722 0.2587 0.0
C876 C 0.67006 0.48787 0.32576 0.0
C877 C 0.64896 0.47294 0.3489 0.0
C878 C 0.65799 0.49678 0.3017 0.0
C879 C 0.62431 0.49114 0.30123 0.0
C880 C 0.6034 0.47707 0.32513 0.0
C881 C 0.6159 0.46779 0.34862 0.0
C882 C 0.68092 0.51128 0.27648 0.0
C883 C 0.56766 0.47127 0.32569 0.0
H884 H 0.61325 0.56301 0.23795 0.0
H885 H 0.57547 0.46071 0.21103 0.0
H886 H 0.61967 0.54885 0.31271 0.0
H887 H 0.65884 0.56643 0.29397 0.0
H888 H 0.62892 0.58018 0.28596 0.0
H889 H 0.57389 0.41958 0.24112 0.0
H890 H 0.61365 0.43823 0.26049 0.0
H891 H 0.57521 0.42696 0.27885 0.0
H892 H 0.69565 0.49182 0.32625 0.0
H893 H 0.59985 0.45645 0.36684 0.0
H894 H 0.68353 0.53588 0.27086 0.0
H895 H 0.66949 0.49425 0.25781 0.0
H896 H 0.70665 0.51489 0.28053 0.0
H897 H 0.56762 0.49467 0.32002 0.0
H898 H 0.55584 0.46292 0.34681 0.0
H899 H 0.55165 0.45179 0.30966 0.0
C900 C 0.41444 0.93329 0.39302 0.0
C901 C 0.44498 0.95863 0.4051 0.0
C902 C 0.4141 0.91779 0.36724 0.0
C903 C 0.44506 0.92807 0.3531 0.0
C904 C 0.47532 0.95617 0.36363 0.0
C905 C 0.475 0.971 0.3897 0.0
C906 C 0.38102 0.88854 0.35646 0.0
C907 C 0.50865 0.96886 0.34885 0.0
C908 C 0.4447 0.85415 0.3167 0.0
C909 C 0.43796 0.85826 0.28849 0.0
C910 C 0.44945 0.87808 0.33755 0.0
C911 C 0.44611 0.90618 0.33014 0.0
C912 C 0.43987 0.91073 0.30148 0.0
C913 C 0.43563 0.88651 0.28098 0.0
C914 C 0.4565 0.87245 0.36779 0.0
C915 C 0.43596 0.94017 0.29272 0.0
H916 H 0.39102 0.9242 0.40465 0.0
H917 H 0.49867 0.99066 0.39889 0.0
H918 H 0.37775 0.89086 0.33339 0.0
H919 H 0.3813 0.86475 0.35964 0.0
H920 H 0.35876 0.88668 0.36768 0.0
H921 H 0.52686 0.99549 0.35467 0.0
H922 H 0.51993 0.95346 0.3555 0.0
H923 H 0.50513 0.96674 0.32548 0.0
H924 H 0.44523 0.83164 0.32261 0.0
H925 H 0.42982 0.88929 0.25914 0.0
H926 H 0.43466 0.86761 0.38128 0.0
H927 H 0.47918 0.89532 0.37632 0.0
H928 H 0.46088 0.8508 0.36961 0.0
H929 H 0.43642 0.9429 0.26929 0.0
H930 H 0.4564 0.96392 0.30233 0.0
H931 H 0.41139 0.93653 0.3005 0.0
C932 C 0.51745 0.42201 0.56632 0.0
C933 C 0.52534 0.45329 0.57807 0.0
C934 C 0.53188 0.41985 0.54081 0.0
C935 C 0.55458 0.44972 0.52655 0.0
C936 C 0.55981 0.48105 0.53685 0.0
C937 C 0.5453 0.48252 0.56264 0.0
C938 C 0.52478 0.38576 0.5303 0.0
C939 C 0.58285 0.51342 0.52207 0.0
C940 C 0.62343 0.44117 0.48912 0.0
C941 C 0.6117 0.43545 0.461 0.0
C942 C 0.6062 0.44808 0.5103 0.0
C943 C 0.5758 0.44808 0.50333 0.0
C944 C 0.56413 0.44279 0.47478 0.0
C945 C 0.58215 0.43632 0.45396 0.0
C946 C 0.61979 0.45398 0.54039 0.0
C947 C 0.53181 0.44238 0.46646 0.0
H948 H 0.5014 0.39926 0.57797 0.0
H949 H 0.55147 0.50677 0.5716 0.0
H950 H 0.51859 0.38272 0.50727 0.0
H951 H 0.54782 0.38356 0.53338 0.0
H952 H 0.50347 0.36488 0.54174 0.0
H953 H 0.5772 0.53357 0.52794 0.0
H954 H 0.60939 0.52184 0.52861 0.0
H955 H 0.58065 0.50991 0.4987 0.0
H956 H 0.64558 0.43926 0.49469 0.0
H957 H 0.57282 0.43131 0.4322 0.0
H958 H 0.60181 0.43309 0.55399 0.0
H959 H 0.62213 0.4776 0.54905 0.0
H960 H 0.64501 0.4557 0.54189 0.0
H961 H 0.5097 0.41954 0.47504 0.0
H962 H 0.5286 0.44232 0.44306 0.0
H963 H 0.53145 0.46449 0.47567 0.0
C964 C 0.08871 0.53104 0.71955 0.0
C965 C 0.1004 0.5555 0.74117 0.0
C966 C 0.10503 0.53814 0.6932 0.0
C967 C 0.13365 0.57036 0.68864 0.0
C968 C 0.1437 0.59585 0.70966 0.0
C969 C 0.12683 0.58813 0.73562 0.0
C970 C 0.09319 0.5105 0.67109 0.0
C971 C 0.17395 0.63056 0.70565 0.0
C972 C 0.20403 0.57829 0.64069 0.0
C973 C 0.19882 0.59295 0.61674 0.0
C974 C 0.18254 0.57026 0.66413 0.0
C975 C 0.15509 0.57669 0.6632 0.0
C976 C 0.14942 0.59083 0.63861 0.0
C977 C 0.17159 0.59903 0.6157 0.0
C978 C 0.1896 0.55552 0.69009 0.0
C979 C 0.12028 0.59768 0.63666 0.0
H980 H 0.06845 0.50574 0.72392 0.0
H981 H 0.13575 0.60707 0.75238 0.0
H982 H 0.09171 0.52 0.64985 0.0
H983 H 0.1118 0.50162 0.66981 0.0
H984 H 0.06795 0.48869 0.67615 0.0
H985 H 0.17643 0.64834 0.72286 0.0
H986 H 0.19752 0.62898 0.70535 0.0
H987 H 0.17201 0.641 0.68502 0.0
H988 H 0.22511 0.57354 0.64119 0.0
H989 H 0.16765 0.61018 0.59687 0.0
H990 H 0.16686 0.53116 0.69529 0.0
H991 H 0.19513 0.57266 0.70859 0.0
H992 H 0.21146 0.55137 0.68716 0.0
H993 H 0.09601 0.57453 0.6414 0.0
H994 H 0.11811 0.60671 0.61536 0.0
H995 H 0.1238 0.61698 0.65272 0.0
C996 C 0.58047 0.1275 0.90766 0.0
C997 C 0.58282 0.09841 0.91128 0.0
C998 C 0.58856 0.14449 0.88182 0.0
C999 C 0.59824 0.13151 0.85867 0.0
C1000 C 0.59743 0.10037 0.86133 0.0
C1001 C 0.58997 0.08425 0.88776 0.0
C1002 C 0.58925 0.17768 0.88003 0.0
C1003 C 0.60645 0.08515 0.83682 0.0
C1004 C 0.60223 0.1728 0.78815 0.0
C1005 C 0.63707 0.19571 0.78614 0.0
C1006 C 0.58934 0.15052 0.81095 0.0
C1007 C 0.61179 0.15208 0.83267 0.0
C1008 C 0.64713 0.17516 0.83055 0.0
C1009 C 0.65945 0.19635 0.80695 0.0
C1010 C 0.55173 0.1256 0.81194 0.0
C1011 C 0.6718 0.17816 0.85359 0.0
H1012 H 0.57437 0.13819 0.92571 0.0
H1013 H 0.59185 0.0618 0.89044 0.0
H1014 H 0.61579 0.19829 0.87713 0.0
H1015 H 0.57421 0.17775 0.86143 0.0
H1016 H 0.57909 0.18325 0.8994 0.0
H1017 H 0.59935 0.05861 0.84084 0.0
H1018 H 0.5936 0.08608 0.81701 0.0
H1019 H 0.63423 0.09988 0.83329 0.0
H1020 H 0.58511 0.17203 0.7716 0.0
H1021 H 0.68641 0.21401 0.80511 0.0
H1022 H 0.54026 0.13186 0.82995 0.0
H1023 H 0.54739 0.09987 0.81551 0.0
H1024 H 0.5383 0.12541 0.79208 0.0
H1025 H 0.66502 0.18546 0.87394 0.0
H1026 H 0.69847 0.1971 0.84858 0.0
H1027 H 0.67021 0.1535 0.85681 0.0
C1028 C 0.54931 0.63135 0.06504 0.0
C1029 C 0.54057 0.60005 0.07671 0.0
C1030 C 0.53488 0.6335 0.03933 0.0
C1031 C 0.51149 0.60359 0.02475 0.0
C1032 C 0.5057 0.57217 0.03484 0.0
C1033 C 0.52007 0.57071 0.0609 0.0
C1034 C 0.54257 0.66767 0.02908 0.0
C1035 C 0.48218 0.53976 0.01954 0.0
C1036 C 0.44257 0.61343 0.98812 0.0
C1037 C 0.45361 0.61901 0.96008 0.0
C1038 C 0.45998 0.60605 0.00896 0.0
C1039 C 0.48984 0.60538 0.00171 0.0
C1040 C 0.50073 0.6104 0.9732 0.0
C1041 C 0.48258 0.61744 0.95272 0.0
C1042 C 0.44723 0.60045 0.03903 0.0
C1043 C 0.53239 0.60996 0.96458 0.0
H1044 H 0.56591 0.65419 0.07693 0.0
H1045 H 0.51334 0.54644 0.06974 0.0
H1046 H 0.54824 0.67021 0.00609 0.0
H1047 H 0.51996 0.67054 0.03211 0.0
H1048 H 0.5644 0.68846 0.04074 0.0
H1049 H 0.48782 0.51956 0.02509 0.0
H1050 H 0.45584 0.53153 0.02603 0.0
H1051 H 0.48388 0.54309 -0.00377 0.0
H1052 H 0.42082 0.61578 0.99391 0.0
H1053 H 0.49133 0.62229 0.93101 0.0
H1054 H 0.46584 0.62124 0.05295 0.0
H1055 H 0.44465 0.57667 0.04718 0.0
H1056 H 0.42227 0.59923 0.04069 0.0
H1057 H 0.55508 0.633 0.97284 0.0
H1058 H 0.53441 0.60904 0.94115 0.0
H1059 H 0.53288 0.58805 0.97384 0.0
C1060 C 0.98121 0.53663 0.21778 0.0
C1061 C 0.96787 0.55241 0.23453 0.0
C1062 C 0.96609 0.52189 0.19156 0.0
C1063 C 0.93696 0.5229 0.18214 0.0
C1064 C 0.92621 0.54253 0.19737 0.0
C1065 C 0.9418 0.55703 0.22348 0.0
C1066 C 0.97922 0.5022 0.17583 0.0
C1067 C 0.89603 0.54536 0.18765 0.0
C1068 C 0.89266 0.48724 0.11115 0.0
C1069 C 0.86509 0.45646 0.11943 0.0
C1070 C 0.91739 0.50866 0.13104 0.0
C1071 C 0.91414 0.49903 0.15981 0.0
C1072 C 0.88675 0.46744 0.16801 0.0
C1073 C 0.86219 0.44686 0.14778 0.0
C1074 C 0.94598 0.54218 0.12152 0.0
C1075 C 0.8826 0.45593 0.1984 0.0
H1076 H 1.00144 0.53309 0.22625 0.0
H1077 H 0.93187 0.56979 0.23631 0.0
H1078 H 0.96584 0.47602 0.18361 0.0
H1079 H 0.97472 0.50178 0.15264 0.0
H1080 H 1.00684 0.51275 0.17987 0.0
H1081 H 0.8946 0.56588 0.19902 0.0
H1082 H 0.8971 0.55 0.16451 0.0
H1083 H 0.87232 0.52132 0.19171 0.0
H1084 H 0.89443 0.49486 0.08921 0.0
H1085 H 0.84012 0.42367 0.1543 0.0
H1086 H 0.97071 0.54648 0.12996 0.0
H1087 H 0.94219 0.56263 0.13005 0.0
H1088 H 0.94733 0.54406 0.09803 0.0
H1089 H 0.90639 0.45743 0.20631 0.0
H1090 H 0.86138 0.42971 0.20081 0.0
H1091 H 0.87756 0.47271 0.21202 0.0
loop_
_geom_bond_atom_site_label_1
_geom_bond_atom_site_label_2
_geom_bond_distance
_geom_bond_site_symmetry_2
_ccdc_geom_bond_type
H0 C6 0.930 . S
H1 C9 0.931 . S
H2 C11 0.931 . S
H3 C13 0.930 . S
H4 C15 0.930 . S
H5 C17 0.931 . S
C6 H0 0.930 . S
C6 C7 1.380 . S
C6 C8 1.394 . S
C7 C6 1.380 . S
C7 C11 1.382 . S
C8 C6 1.394 . S
C8 C9 1.400 . S
C9 H1 0.931 . S
C9 C8 1.400 . S
C9 C10 1.375 . S
C10 C9 1.375 . S
C10 C11 1.415 . S
C10 C12 1.501 1_455 S
C11 H2 0.931 . S
C11 C7 1.382 . S
C11 C10 1.415 . S
C12 C10 1.501 1_655 S
C12 C13 1.384 . S
C12 C17 1.408 . S
C13 H3 0.930 . S
C13 C12 1.384 . S
C13 C14 1.389 . S
C14 C13 1.389 . S
C14 C15 1.405 . S
C15 H4 0.930 . S
C15 C14 1.405 . S
C15 C16 1.364 . S
C16 C15 1.364 . S
C16 C17 1.400 . S
C17 H5 0.931 . S
C17 C12 1.408 . S
C17 C16 1.400 . S
H18 C24 0.930 . S
H19 C27 0.931 . S
H20 C29 0.931 . S
H21 C31 0.930 . S
H22 C33 0.930 . S
H23 C35 0.931 1_545 S
C24 H18 0.930 . S
C24 C25 1.380 . S
C24 C26 1.394 . S
C25 C24 1.380 . S
C25 C29 1.382 . S
C26 C24 1.394 . S
C26 C27 1.400 . S
C27 H19 0.931 . S
C27 C26 1.400 . S
C27 C28 1.375 . S
C28 C27 1.375 . S
C28 C29 1.415 . S
C28 C30 1.501 1_545 S
C29 H20 0.931 . S
C29 C25 1.382 . S
C29 C28 1.415 . S
C30 C28 1.501 1_565 S
C30 C31 1.384 . S
C30 C35 1.408 . S
C31 H21 0.930 . S
C31 C30 1.384 . S
C31 C32 1.389 . S
C32 C31 1.389 . S
C32 C33 1.405 . S
C33 H22 0.930 . S
C33 C32 1.405 . S
C33 C34 1.364 . S
C34 C33 1.364 . S
C34 C35 1.400 . S
C35 H23 0.931 1_565 S
C35 C30 1.408 . S
C35 C34 1.400 . S
H36 C42 0.930 . S
H37 C45 0.931 . S
H38 C47 0.931 . S
H39 C49 0.930 . S
H40 C51 0.930 . S
H41 C53 0.931 . S
C42 H36 0.930 . S
C42 C43 1.380 . S
C42 C44 1.394 . S
C43 C42 1.380 . S
C43 C47 1.382 . S
C44 C42 1.394 . S
C44 C45 1.400 . S
C45 H37 0.931 . S
C45 C44 1.400 . S
C45 C46 1.375 . S
C46 C45 1.375 . S
C46 C47 1.415 . S
C46 C48 1.501 . S
C47 H38 0.931 . S
C47 C43 1.382 . S
C47 C46 1.415 . S
C48 C46 1.501 . S
C48 C49 1.384 . S
C48 C53 1.408 . S
C49 H39 0.930 . S
C49 C48 1.384 . S
C49 C50 1.389 . S
C50 C49 1.389 . S
C50 C51 1.405 . S
C51 H40 0.930 . S
C51 C50 1.405 . S
C51 C52 1.364 . S
C52 C51 1.364 . S
C52 C53 1.400 . S
C53 H41 0.931 . S
C53 C48 1.408 . S
C53 C52 1.400 . S
H54 C60 0.930 . S
H55 C63 0.931 . S
H56 C65 0.931 . S
H57 C67 0.930 . S
H58 C69 0.930 . S
H59 C71 0.950 . S
C60 H54 0.930 . S
C60 C61 1.380 . S
C60 C62 1.394 . S
C61 C60 1.380 . S
C61 C65 1.382 . S
C62 C60 1.394 . S
C62 C63 1.400 . S
C63 H55 0.931 . S
C63 C62 1.400 . S
C63 C64 1.375 . S
C64 C63 1.375 . S
C64 C65 1.415 . S
C64 C66 1.501 1_455 S
C65 H56 0.931 . S
C65 C61 1.382 . S
C65 C64 1.415 . S
C66 C64 1.501 1_655 S
C66 C67 1.384 . S
C66 C71 1.408 . S
C67 H57 0.930 . S
C67 C66 1.384 . S
C67 C68 1.389 . S
C68 C67 1.389 . S
C68 C69 1.405 . S
C69 H58 0.930 . S
C69 C68 1.405 . S
C69 C70 1.364 . S
C70 C69 1.364 . S
C70 C71 1.400 . S
C71 H59 0.950 . S
C71 C66 1.408 . S
C71 C70 1.400 . S
H72 C78 0.930 . S
H73 C81 0.931 . S
H74 C83 0.931 1_545 S
H75 C85 0.930 . S
H76 C87 0.930 . S
H77 C89 0.931 . S
C78 H72 0.930 . S
C78 C79 1.380 . S
C78 C80 1.394 1_554 S
C79 C78 1.380 . S
C79 C83 1.382 . S
C80 C78 1.394 1_556 S
C80 C81 1.400 . S
C81 H73 0.931 . S
C81 C80 1.400 . S
C81 C82 1.375 . S
C82 C81 1.375 . S
C82 C83 1.415 1_556 S
C82 C84 1.501 1_565 S
C83 H74 0.931 1_565 S
C83 C79 1.382 . S
C83 C82 1.415 1_554 S
C84 C82 1.501 1_545 S
C84 C85 1.384 1_556 S
C84 C89 1.408 . S
C85 H75 0.930 . S
C85 C84 1.384 1_554 S
C85 C86 1.389 1_554 S
C86 C85 1.389 1_556 S
C86 C87 1.405 . S
C87 H76 0.930 . S
C87 C86 1.405 . S
C87 C88 1.364 . S
C88 C87 1.364 . S
C88 C89 1.400 . S
C89 H77 0.931 . S
C89 C84 1.408 . S
C89 C88 1.400 . S
H90 C96 0.930 . S
H91 C99 0.931 . S
H92 C101 0.931 . S
H93 C103 0.930 . S
H94 C105 0.930 . S
H95 C107 0.931 . S
C96 H90 0.930 . S
C96 C97 1.380 . S
C96 C98 1.394 . S
C97 C96 1.380 . S
C97 C101 1.382 . S
C98 C96 1.394 . S
C98 C99 1.400 . S
C99 H91 0.931 . S
C99 C98 1.400 . S
C99 C100 1.375 . S
C100 C99 1.375 . S
C100 C101 1.415 . S
C100 C102 1.501 . S
C101 H92 0.931 . S
C101 C97 1.382 . S
C101 C100 1.415 . S
C102 C100 1.501 . S
C102 C103 1.384 . S
C102 C107 1.408 . S
C103 H93 0.930 . S
C103 C102 1.384 . S
C103 C104 1.389 . S
C104 C103 1.389 . S
C104 C105 1.405 . S
C105 H94 0.930 . S
C105 C104 1.405 . S
C105 C106 1.364 . S
C106 C105 1.364 . S
C106 C107 1.400 . S
C107 H95 0.931 . S
C107 C102 1.408 . S
C107 C106 1.400 . S
Mn108 O113 2.095 . S
Mn108 O123 2.162 . S
Mn108 O124 2.297 . S
Mn108 O132 2.385 . S
Mn108 O133 2.209 . S
Mn108 O134 2.094 . S
Mn109 O114 2.121 . S
Mn109 N116 2.257 . S
Mn109 N125 2.282 . S
Mn109 O133 2.215 . S
Mn109 O135 2.117 . S
C110 O132 1.234 . S
C110 O133 1.283 . S
C111 O123 1.281 . S
C111 O124 1.236 . S
C112 O134 1.240 . S
C112 O135 1.264 . S
O113 Mn108 2.095 . S
O113 C122 1.250 . S
O114 Mn109 2.121 . S
O114 C122 1.258 . S
C115 N116 1.326 . S
C115 C119 1.460 . S
C115 H121 0.929 . S
N116 Mn109 2.257 . S
N116 C115 1.326 . S
N116 C120 1.362 . S
C117 C118 1.258 . S
C117 C120 1.431 . S
C117 C137 1.449 . S
C118 C117 1.258 . S
C118 C119 1.477 . S
C118 H138 0.931 . S
C119 C115 1.460 . S
C119 C118 1.477 . S
C119 H139 0.930 . S
C120 N116 1.362 . S
C120 C117 1.431 . S
C120 C130 1.476 . S
H121 C115 0.929 . S
C122 O113 1.250 . S
C122 O114 1.258 . S
O123 Mn108 2.162 . S
O123 C111 1.281 . S
O124 Mn108 2.297 . S
O124 C111 1.236 . S
N125 Mn109 2.282 . S
N125 C126 1.328 . S
N125 C130 1.318 . S
C126 N125 1.328 . S
C126 C127 1.457 . S
C126 H131 0.929 . S
C127 C126 1.457 . S
C127 C128 1.291 . S
C127 H140 0.931 . S
C128 C127 1.291 . S
C128 C129 1.373 . S
C128 H141 0.929 . S
C129 C128 1.373 . S
C129 C130 1.396 . S
C129 C136 1.403 . S
C130 C120 1.476 . S
C130 N125 1.318 . S
C130 C129 1.396 . S
H131 C126 0.929 . S
O132 Mn108 2.385 . S
O132 C110 1.234 . S
O133 Mn108 2.209 . S
O133 Mn109 2.215 . S
O133 C110 1.283 . S
O134 Mn108 2.094 . S
O134 C112 1.240 . S
O135 Mn109 2.117 . S
O135 C112 1.264 . S
C136 C129 1.403 . S
C136 C137 1.399 . S
C136 H142 0.929 . S
C137 C117 1.449 . S
C137 C136 1.399 . S
C137 H143 0.930 . S
H138 C118 0.931 . S
H139 C119 0.930 . S
H140 C127 0.931 . S
H141 C128 0.929 . S
H142 C136 0.929 . S
H143 C137 0.930 . S
Mn144 O149 2.095 . S
Mn144 O159 2.162 . S
Mn144 O160 2.297 . S
Mn144 O168 2.385 . S
Mn144 O169 2.209 . S
Mn144 O170 2.094 . S
Mn145 O150 2.121 . S
Mn145 N152 2.257 . S
Mn145 N161 2.282 . S
Mn145 O169 2.215 . S
Mn145 O171 2.117 . S
C146 O168 1.234 . S
C146 O169 1.283 . S
C147 O159 1.281 . S
C147 O160 1.236 . S
C148 O170 1.240 . S
C148 O171 1.264 . S
O149 Mn144 2.095 . S
O149 C158 1.250 . S
O150 Mn145 2.121 . S
O150 C158 1.258 . S
C151 N152 1.326 . S
C151 C155 1.460 . S
C151 H157 0.929 . S
N152 Mn145 2.257 . S
N152 C151 1.326 . S
N152 C156 1.362 . S
C153 C154 1.258 . S
C153 C156 1.431 . S
C153 C173 1.449 . S
C154 C153 1.258 . S
C154 C155 1.477 . S
C154 H174 0.931 . S
C155 C151 1.460 . S
C155 C154 1.477 . S
C155 H175 0.930 . S
C156 N152 1.362 . S
C156 C153 1.431 . S
C156 C166 1.476 . S
H157 C151 0.929 . S
C158 O149 1.250 . S
C158 O150 1.258 . S
O159 Mn144 2.162 . S
O159 C147 1.281 . S
O160 Mn144 2.297 . S
O160 C147 1.236 . S
N161 Mn145 2.282 . S
N161 C162 1.328 . S
N161 C166 1.318 . S
C162 N161 1.328 . S
C162 C163 1.457 . S
C162 H167 0.929 . S
C163 C162 1.457 . S
C163 C164 1.291 . S
C163 H176 0.931 . S
C164 C163 1.291 . S
C164 C165 1.373 . S
C164 H177 0.929 . S
C165 C164 1.373 . S
C165 C166 1.396 . S
C165 C172 1.403 . S
C166 C156 1.476 . S
C166 N161 1.318 . S
C166 C165 1.396 . S
H167 C162 0.929 . S
O168 Mn144 2.385 . S
O168 C146 1.234 . S
O169 Mn144 2.209 . S
O169 Mn145 2.215 . S
O169 C146 1.283 . S
O170 Mn144 2.094 . S
O170 C148 1.240 . S
O171 Mn145 2.117 . S
O171 C148 1.264 . S
C172 C165 1.403 . S
C172 C173 1.399 . S
C172 H178 0.929 . S
C173 C153 1.449 . S
C173 C172 1.399 . S
C173 H179 0.930 . S
H174 C154 0.931 . S
H175 C155 0.930 . S
H176 C163 0.931 . S
H177 C164 0.929 . S
H178 C172 0.929 . S
H179 C173 0.930 . S
Mn180 O185 2.095 . S
Mn180 O195 2.162 . S
Mn180 O196 2.297 . S
Mn180 O204 2.385 . S
Mn180 O205 2.209 . S
Mn180 O206 2.094 . S
Mn181 O186 2.121 . S
Mn181 N188 2.257 . S
Mn181 N197 2.282 . S
Mn181 O205 2.215 . S
Mn181 O207 2.117 . S
C182 O204 1.234 . S
C182 O205 1.283 . S
C183 O195 1.281 . S
C183 O196 1.236 . S
C184 O206 1.240 . S
C184 O207 1.264 . S
O185 Mn180 2.095 . S
O185 C194 1.250 . S
O186 Mn181 2.121 . S
O186 C194 1.258 . S
C187 N188 1.326 . S
C187 C191 1.460 . S
C187 H193 0.929 . S
N188 Mn181 2.257 . S
N188 C187 1.326 . S
N188 C192 1.362 . S
C189 C190 1.258 . S
C189 C192 1.431 . S
C189 C209 1.449 . S
C190 C189 1.258 . S
C190 C191 1.477 . S
C190 H210 0.931 . S
C191 C187 1.460 . S
C191 C190 1.477 . S
C191 H211 0.930 . S
C192 N188 1.362 . S
C192 C189 1.431 . S
C192 C202 1.476 . S
H193 C187 0.929 . S
C194 O185 1.250 . S
C194 O186 1.258 . S
O195 Mn180 2.162 . S
O195 C183 1.281 . S
O196 Mn180 2.297 . S
O196 C183 1.236 . S
N197 Mn181 2.282 . S
N197 C198 1.328 . S
N197 C202 1.318 . S
C198 N197 1.328 . S
C198 C199 1.457 . S
C198 H203 0.929 . S
C199 C198 1.457 . S
C199 C200 1.291 . S
C199 H212 0.931 . S
C200 C199 1.291 . S
C200 C201 1.373 . S
C200 H213 0.929 . S
C201 C200 1.373 . S
C201 C202 1.396 . S
C201 C208 1.403 . S
C202 C192 1.476 . S
C202 N197 1.318 . S
C202 C201 1.396 . S
H203 C198 0.929 . S
O204 Mn180 2.385 . S
O204 C182 1.234 . S
O205 Mn180 2.209 . S
O205 Mn181 2.215 . S
O205 C182 1.283 . S
O206 Mn180 2.094 . S
O206 C184 1.240 . S
O207 Mn181 2.117 . S
O207 C184 1.264 . S
C208 C201 1.403 . S
C208 C209 1.399 . S
C208 H214 0.929 . S
C209 C189 1.449 . S
C209 C208 1.399 . S
C209 H215 0.930 . S
H210 C190 0.931 . S
H211 C191 0.930 . S
H212 C199 0.931 . S
H213 C200 0.929 . S
H214 C208 0.929 . S
H215 C209 0.930 . S
Mn216 O221 2.095 . S
Mn216 O231 2.162 . S
Mn216 O232 2.297 . S
Mn216 O240 2.385 . S
Mn216 O241 2.209 . S
Mn216 O242 2.094 . S
Mn217 O222 2.121 . S
Mn217 N224 2.257 . S
Mn217 N233 2.282 . S
Mn217 O241 2.215 . S
Mn217 O243 2.117 . S
C218 O240 1.234 . S
C218 O241 1.283 . S
C219 O231 1.281 . S
C219 O232 1.236 . S
C220 O242 1.240 . S
C220 O243 1.264 . S
O221 Mn216 2.095 . S
O221 C230 1.250 . S
O222 Mn217 2.121 . S
O222 C230 1.258 . S
C223 N224 1.326 . S
C223 C227 1.460 . S
C223 H229 0.929 . S
N224 Mn217 2.257 . S
N224 C223 1.326 . S
N224 C228 1.362 . S
C225 C226 1.258 . S
C225 C228 1.431 . S
C225 C245 1.449 . S
C226 C225 1.258 . S
C226 C227 1.477 . S
C226 H246 0.931 1_556 S
C227 C223 1.460 . S
C227 C226 1.477 . S
C227 H247 0.930 . S
C228 N224 1.362 . S
C228 C225 1.431 . S
C228 C238 1.476 . S
H229 C223 0.929 . S
C230 O221 1.250 . S
C230 O222 1.258 . S
O231 Mn216 2.162 . S
O231 C219 1.281 . S
O232 Mn216 2.297 . S
O232 C219 1.236 . S
N233 Mn217 2.282 . S
N233 C234 1.328 . S
N233 C238 1.318 . S
C234 N233 1.328 . S
C234 C235 1.457 . S
C234 H239 0.929 . S
C235 C234 1.457 . S
C235 C236 1.291 . S
C235 H248 0.931 . S
C236 C235 1.291 . S
C236 C237 1.373 . S
C236 H249 0.929 . S
C237 C236 1.373 . S
C237 C238 1.396 . S
C237 C244 1.403 . S
C238 C228 1.476 . S
C238 N233 1.318 . S
C238 C237 1.396 . S
H239 C234 0.929 . S
O240 Mn216 2.385 . S
O240 C218 1.234 . S
O241 Mn216 2.209 . S
O241 Mn217 2.215 . S
O241 C218 1.283 . S
O242 Mn216 2.094 . S
O242 C220 1.240 . S
O243 Mn217 2.117 . S
O243 C220 1.264 . S
C244 C237 1.403 . S
C244 C245 1.399 . S
C244 H250 0.929 . S
C245 C225 1.449 . S
C245 C244 1.399 . S
C245 H251 0.930 1_556 S
H246 C226 0.931 1_554 S
H247 C227 0.930 . S
H248 C235 0.931 . S
H249 C236 0.929 . S
H250 C244 0.929 . S
H251 C245 0.930 1_554 S
Mn252 O257 2.095 . S
Mn252 O267 2.162 . S
Mn252 O268 2.297 . S
Mn252 O276 2.385 . S
Mn252 O277 2.209 . S
Mn252 O278 2.094 . S
Mn253 O258 2.121 . S
Mn253 N260 2.257 . S
Mn253 N269 2.282 . S
Mn253 O277 2.215 . S
Mn253 O279 2.117 . S
C254 O276 1.234 . S
C254 O277 1.283 . S
C255 O267 1.281 . S
C255 O268 1.236 . S
C256 O278 1.240 . S
C256 O279 1.264 . S
O257 Mn252 2.095 . S
O257 C266 1.250 . S
O258 Mn253 2.121 . S
O258 C266 1.258 . S
C259 N260 1.326 . S
C259 C263 1.460 . S
C259 H265 0.929 . S
N260 Mn253 2.257 . S
N260 C259 1.326 . S
N260 C264 1.362 . S
C261 C262 1.258 . S
C261 C264 1.431 . S
C261 C281 1.449 . S
C262 C261 1.258 . S
C262 C263 1.477 . S
C262 H282 0.931 . S
C263 C259 1.460 . S
C263 C262 1.477 . S
C263 H283 0.930 . S
C264 N260 1.362 . S
C264 C261 1.431 . S
C264 C274 1.476 . S
H265 C259 0.929 . S
C266 O257 1.250 . S
C266 O258 1.258 . S
O267 Mn252 2.162 . S
O267 C255 1.281 . S
O268 Mn252 2.297 . S
O268 C255 1.236 . S
N269 Mn253 2.282 . S
N269 C270 1.328 . S
N269 C274 1.318 . S
C270 N269 1.328 . S
C270 C271 1.457 . S
C270 H275 0.929 . S
C271 C270 1.457 . S
C271 C272 1.291 . S
C271 H284 0.931 . S
C272 C271 1.291 . S
C272 C273 1.373 . S
C272 H285 0.929 . S
C273 C272 1.373 . S
C273 C274 1.396 . S
C273 C280 1.403 . S
C274 C264 1.476 . S
C274 N269 1.318 . S
C274 C273 1.396 . S
H275 C270 0.929 . S
O276 Mn252 2.385 . S
O276 C254 1.234 . S
O277 Mn252 2.209 . S
O277 Mn253 2.215 . S
O277 C254 1.283 . S
O278 Mn252 2.094 . S
O278 C256 1.240 . S
O279 Mn253 2.117 . S
O279 C256 1.264 . S
C280 C273 1.403 . S
C280 C281 1.399 . S
C280 H286 0.929 . S
C281 C261 1.449 . S
C281 C280 1.399 . S
C281 H287 0.930 . S
H282 C262 0.931 . S
H283 C263 0.930 . S
H284 C271 0.931 . S
H285 C272 0.929 . S
H286 C280 0.929 . S
H287 C281 0.930 . S
Mn288 O293 2.095 . S
Mn288 O303 2.162 . S
Mn288 O304 2.297 . S
Mn288 O312 2.385 . S
Mn288 O313 2.209 . S
Mn288 O314 2.094 . S
Mn289 O294 2.121 . S
Mn289 N296 2.257 . S
Mn289 N305 2.282 . S
Mn289 O313 2.215 . S
Mn289 O315 2.117 . S
C290 O312 1.234 . S
C290 O313 1.283 . S
C291 O303 1.281 . S
C291 O304 1.236 . S
C292 O314 1.240 . S
C292 O315 1.264 . S
O293 Mn288 2.095 . S
O293 C302 1.250 . S
O294 Mn289 2.121 . S
O294 C302 1.258 . S
C295 N296 1.326 . S
C295 C299 1.460 . S
C295 H301 0.929 . S
N296 Mn289 2.257 . S
N296 C295 1.326 . S
N296 C300 1.362 . S
C297 C298 1.258 . S
C297 C300 1.431 . S
C297 C317 1.449 . S
C298 C297 1.258 . S
C298 C299 1.477 . S
C298 H318 0.931 . S
C299 C295 1.460 . S
C299 C298 1.477 . S
C299 H319 0.930 . S
C300 N296 1.362 . S
C300 C297 1.431 . S
C300 C310 1.476 . S
H301 C295 0.929 . S
C302 O293 1.250 . S
C302 O294 1.258 . S
O303 Mn288 2.162 . S
O303 C291 1.281 . S
O304 Mn288 2.297 . S
O304 C291 1.236 . S
N305 Mn289 2.282 . S
N305 C306 1.328 . S
N305 C310 1.318 . S
C306 N305 1.328 . S
C306 C307 1.457 . S
C306 H311 0.929 . S
C307 C306 1.457 . S
C307 C308 1.291 . S
C307 H320 0.931 . S
C308 C307 1.291 . S
C308 C309 1.373 . S
C308 H321 0.929 . S
C309 C308 1.373 . S
C309 C310 1.396 . S
C309 C316 1.403 . S
C310 C300 1.476 . S
C310 N305 1.318 . S
C310 C309 1.396 . S
H311 C306 0.929 . S
O312 Mn288 2.385 . S
O312 C290 1.234 . S
O313 Mn288 2.209 . S
O313 Mn289 2.215 . S
O313 C290 1.283 . S
O314 Mn288 2.094 . S
O314 C292 1.240 . S
O315 Mn289 2.117 . S
O315 C292 1.264 . S
C316 C309 1.403 . S
C316 C317 1.399 . S
C316 H322 0.929 . S
C317 C297 1.449 . S
C317 C316 1.399 . S
C317 H323 0.930 . S
H318 C298 0.931 . S
H319 C299 0.930 . S
H320 C307 0.931 . S
H321 C308 0.929 . S
H322 C316 0.929 . S
H323 C317 0.930 . S
C324 C325 1.391 . S
C324 C326 1.394 . S
C324 H340 0.931 . S
C325 C324 1.391 . S
C325 C329 1.376 . S
C326 C324 1.394 . S
C326 C327 1.369 . S
C326 C330 1.531 . S
C327 C326 1.369 . S
C327 C328 1.410 . S
C327 C335 1.503 . S
C328 C327 1.410 . S
C328 C329 1.392 . S
C328 C331 1.511 . S
C329 C325 1.376 . S
C329 C328 1.392 . S
C329 H341 0.929 . S
C330 C326 1.531 . S
C330 H342 0.960 . S
C330 H343 0.962 . S
C330 H344 0.960 . S
C331 C328 1.511 . S
C331 H345 0.961 . S
C331 H346 0.961 . S
C331 H347 0.961 . S
C332 C333 1.370 . S
C332 C334 1.363 . S
C332 H348 0.931 . S
C333 C332 1.370 . S
C333 C337 1.408 . S
C334 C332 1.363 . S
C334 C335 1.370 . S
C334 C338 1.524 . S
C335 C327 1.503 . S
C335 C334 1.370 . S
C335 C336 1.403 . S
C336 C335 1.403 . S
C336 C337 1.404 . S
C336 C339 1.539 . S
C337 C333 1.408 . S
C337 C336 1.404 . S
C337 H349 0.930 . S
C338 C334 1.524 . S
C338 H350 0.956 . S
C338 H351 0.961 . S
C338 H352 0.961 . S
C339 C336 1.539 . S
C339 H353 0.958 . S
C339 H354 0.961 . S
C339 H355 0.960 . S
H340 C324 0.931 . S
H341 C329 0.929 . S
H342 C330 0.960 . S
H343 C330 0.962 . S
H344 C330 0.960 . S
H345 C331 0.961 . S
H346 C331 0.961 . S
H347 C331 0.961 . S
H348 C332 0.931 . S
H349 C337 0.930 . S
H350 C338 0.956 . S
H351 C338 0.961 . S
H352 C338 0.961 . S
H353 C339 0.958 . S
H354 C339 0.961 . S
H355 C339 0.960 . S
C356 C357 1.391 . S
C356 C358 1.394 . S
C356 H372 0.931 . S
C357 C356 1.391 . S
C357 C361 1.376 . S
C358 C356 1.394 . S
C358 C359 1.369 . S
C358 C362 1.531 . S
C359 C358 1.369 . S
C359 C360 1.410 . S
C359 C367 1.503 . S
C360 C359 1.410 . S
C360 C361 1.392 . S
C360 C363 1.511 . S
C361 C357 1.376 . S
C361 C360 1.392 . S
C361 H373 0.929 . S
C362 C358 1.531 . S
C362 H374 0.960 . S
C362 H375 0.962 . S
C362 H376 0.960 . S
C363 C360 1.511 . S
C363 H377 0.961 . S
C363 H378 0.961 . S
C363 H379 0.961 . S
C364 C365 1.370 . S
C364 C366 1.363 . S
C364 H380 0.931 . S
C365 C364 1.370 . S
C365 C369 1.408 . S
C366 C364 1.363 . S
C366 C367 1.370 . S
C366 C370 1.524 . S
C367 C359 1.503 . S
C367 C366 1.370 . S
C367 C368 1.403 . S
C368 C367 1.403 . S
C368 C369 1.404 . S
C368 C371 1.539 . S
C369 C365 1.408 . S
C369 C368 1.404 . S
C369 H381 0.930 . S
C370 C366 1.524 . S
C370 H382 0.956 . S
C370 H383 0.961 . S
C370 H384 0.961 . S
C371 C368 1.539 . S
C371 H385 0.958 . S
C371 H386 0.961 . S
C371 H387 0.960 . S
H372 C356 0.931 . S
H373 C361 0.929 . S
H374 C362 0.960 . S
H375 C362 0.962 . S
H376 C362 0.960 . S
H377 C363 0.961 . S
H378 C363 0.961 . S
H379 C363 0.961 . S
H380 C364 0.931 . S
H381 C369 0.930 . S
H382 C370 0.956 . S
H383 C370 0.961 . S
H384 C370 0.961 . S
H385 C371 0.958 . S
H386 C371 0.961 . S
H387 C371 0.960 . S
C388 C389 1.391 . S
C388 C390 1.394 . S
C388 H404 0.931 . S
C389 C388 1.391 . S
C389 C393 1.376 . S
C390 C388 1.394 . S
C390 C391 1.369 . S
C390 C394 1.531 . S
C391 C390 1.369 . S
C391 C392 1.410 . S
C391 C399 1.503 . S
C392 C391 1.410 . S
C392 C393 1.392 . S
C392 C395 1.511 . S
C393 C389 1.376 . S
C393 C392 1.392 . S
C393 H405 0.929 . S
C394 C390 1.531 . S
C394 H406 0.960 . S
C394 H407 0.962 . S
C394 H408 0.960 . S
C395 C392 1.511 . S
C395 H409 0.961 . S
C395 H410 0.961 . S
C395 H411 0.961 . S
C396 C397 1.370 . S
C396 C398 1.363 . S
C396 H412 0.931 . S
C397 C396 1.370 . S
C397 C401 1.408 . S
C398 C396 1.363 . S
C398 C399 1.370 . S
C398 C402 1.524 . S
C399 C391 1.503 . S
C399 C398 1.370 . S
C399 C400 1.403 . S
C400 C399 1.403 . S
C400 C401 1.404 . S
C400 C403 1.539 . S
C401 C397 1.408 . S
C401 C400 1.404 . S
C401 H413 0.930 . S
C402 C398 1.524 . S
C402 H414 0.956 . S
C402 H415 0.961 . S
C402 H416 0.961 . S
C403 C400 1.539 . S
C403 H417 0.958 . S
C403 H418 0.961 . S
C403 H419 0.960 . S
H404 C388 0.931 . S
H405 C393 0.929 . S
H406 C394 0.960 . S
H407 C394 0.962 . S
H408 C394 0.960 . S
H409 C395 0.961 . S
H410 C395 0.961 . S
H411 C395 0.961 . S
H412 C396 0.931 . S
H413 C401 0.930 . S
H414 C402 0.956 . S
H415 C402 0.961 . S
H416 C402 0.961 . S
H417 C403 0.958 . S
H418 C403 0.961 . S
H419 C403 0.960 . S
C420 C421 1.391 . S
C420 C422 1.394 . S
C420 H436 0.931 . S
C421 C420 1.391 . S
C421 C425 1.376 . S
C422 C420 1.394 . S
C422 C423 1.369 . S
C422 C426 1.531 . S
C423 C422 1.369 . S
C423 C424 1.410 . S
C423 C431 1.503 . S
C424 C423 1.410 . S
C424 C425 1.392 . S
C424 C427 1.511 . S
C425 C421 1.376 . S
C425 C424 1.392 . S
C425 H437 0.929 . S
C426 C422 1.531 . S
C426 H438 0.960 . S
C426 H439 0.962 . S
C426 H440 0.960 . S
C427 C424 1.511 . S
C427 H441 0.961 . S
C427 H442 0.961 . S
C427 H443 0.961 . S
C428 C429 1.370 . S
C428 C430 1.363 . S
C428 H444 0.931 . S
C429 C428 1.370 . S
C429 C433 1.408 . S
C430 C428 1.363 . S
C430 C431 1.370 . S
C430 C434 1.524 . S
C431 C423 1.503 . S
C431 C430 1.370 . S
C431 C432 1.403 . S
C432 C431 1.403 . S
C432 C433 1.404 . S
C432 C435 1.539 . S
C433 C429 1.408 . S
C433 C432 1.404 . S
C433 H445 0.930 . S
C434 C430 1.524 . S
C434 H446 0.956 . S
C434 H447 0.961 . S
C434 H448 0.961 . S
C435 C432 1.539 . S
C435 H449 0.958 . S
C435 H450 0.961 . S
C435 H451 0.960 . S
H436 C420 0.931 . S
H437 C425 0.929 . S
H438 C426 0.960 . S
H439 C426 0.962 . S
H440 C426 0.960 . S
H441 C427 0.961 . S
H442 C427 0.961 . S
H443 C427 0.961 . S
H444 C428 0.931 . S
H445 C433 0.930 . S
H446 C434 0.956 . S
H447 C434 0.961 . S
H448 C434 0.961 . S
H449 C435 0.958 . S
H450 C435 0.961 . S
H451 C435 0.960 . S
C452 C453 1.391 . S
C452 C454 1.394 . S
C452 H468 0.931 . S
C453 C452 1.391 . S
C453 C457 1.376 . S
C454 C452 1.394 . S
C454 C455 1.369 . S
C454 C458 1.531 . S
C455 C454 1.369 . S
C455 C456 1.410 . S
C455 C463 1.503 . S
C456 C455 1.410 . S
C456 C457 1.392 . S
C456 C459 1.511 . S
C457 C453 1.376 . S
C457 C456 1.392 . S
C457 H469 0.929 . S
C458 C454 1.531 . S
C458 H470 0.960 . S
C458 H471 0.962 . S
C458 H472 0.960 . S
C459 C456 1.511 . S
C459 H473 0.961 . S
C459 H474 0.961 . S
C459 H475 0.961 . S
C460 C461 1.370 . S
C460 C462 1.363 . S
C460 H476 0.931 . S
C461 C460 1.370 . S
C461 C465 1.408 . S
C462 C460 1.363 . S
C462 C463 1.370 . S
C462 C466 1.524 . S
C463 C455 1.503 . S
C463 C462 1.370 . S
C463 C464 1.403 . S
C464 C463 1.403 . S
C464 C465 1.404 . S
C464 C467 1.502 1_556 S
C465 C461 1.408 . S
C465 C464 1.404 . S
C465 H477 0.930 . S
C466 C462 1.524 . S
C466 H478 0.956 . S
C466 H479 0.961 . S
C466 H480 0.961 . S
C467 C464 1.502 1_554 S
C467 H481 0.967 . S
C467 H482 0.982 . S
C467 H483 0.969 . S
H468 C452 0.931 . S
H469 C457 0.929 . S
H470 C458 0.960 . S
H471 C458 0.962 . S
H472 C458 0.960 . S
H473 C459 0.961 . S
H474 C459 0.961 . S
H475 C459 0.961 . S
H476 C460 0.931 . S
H477 C465 0.930 . S
H478 C466 0.956 . S
H479 C466 0.961 . S
H480 C466 0.961 . S
H481 C467 0.967 . S
H482 C467 0.982 . S
H483 C467 0.969 . S
C484 C485 1.391 . S
C484 C486 1.394 . S
C484 H500 0.931 . S
C485 C484 1.391 . S
C485 C489 1.376 . S
C486 C484 1.394 . S
C486 C487 1.369 . S
C486 C490 1.531 . S
C487 C486 1.369 . S
C487 C488 1.410 . S
C487 C495 1.503 . S
C488 C487 1.410 . S
C488 C489 1.392 . S
C488 C491 1.511 . S
C489 C485 1.376 . S
C489 C488 1.392 . S
C489 H501 0.929 . S
C490 C486 1.531 . S
C490 H502 0.960 . S
C490 H503 0.962 . S
C490 H504 0.960 . S
C491 C488 1.511 . S
C491 H505 0.961 . S
C491 H506 0.961 . S
C491 H507 0.961 . S
C492 C493 1.370 . S
C492 C494 1.363 . S
C492 H508 0.931 . S
C493 C492 1.370 . S
C493 C497 1.408 . S
C494 C492 1.363 . S
C494 C495 1.370 . S
C494 C498 1.524 . S
C495 C487 1.503 . S
C495 C494 1.370 . S
C495 C496 1.403 . S
C496 C495 1.403 . S
C496 C497 1.404 . S
C496 C499 1.539 . S
C497 C493 1.408 . S
C497 C496 1.404 . S
C497 H509 0.930 . S
C498 C494 1.524 . S
C498 H510 0.956 . S
C498 H511 0.961 . S
C498 H512 0.961 . S
C499 C496 1.539 . S
C499 H513 0.958 . S
C499 H514 0.961 . S
C499 H515 0.960 . S
H500 C484 0.931 . S
H501 C489 0.929 . S
H502 C490 0.960 . S
H503 C490 0.962 . S
H504 C490 0.960 . S
H505 C491 0.961 . S
H506 C491 0.961 . S
H507 C491 0.961 . S
H508 C492 0.931 . S
H509 C497 0.930 . S
H510 C498 0.956 . S
H511 C498 0.961 . S
H512 C498 0.961 . S
H513 C499 0.958 . S
H514 C499 0.961 . S
H515 C499 0.960 . S
C516 C517 1.391 . S
C516 C518 1.394 . S
C516 H532 0.931 . S
C517 C516 1.391 . S
C517 C521 1.376 . S
C518 C516 1.394 . S
C518 C519 1.369 . S
C518 C522 1.531 . S
C519 C518 1.369 . S
C519 C520 1.410 . S
C519 C527 1.503 . S
C520 C519 1.410 . S
C520 C521 1.392 . S
C520 C523 1.511 . S
C521 C517 1.376 . S
C521 C520 1.392 . S
C521 H533 0.929 . S
C522 C518 1.531 . S
C522 H534 0.960 . S
C522 H535 0.962 . S
C522 H536 0.960 . S
C523 C520 1.511 . S
C523 H537 0.961 . S
C523 H538 0.961 . S
C523 H539 0.961 . S
C524 C525 1.370 . S
C524 C526 1.363 . S
C524 H540 0.931 . S
C525 C524 1.370 . S
C525 C529 1.408 . S
C526 C524 1.363 . S
C526 C527 1.370 . S
C526 C530 1.524 . S
C527 C519 1.503 . S
C527 C526 1.370 . S
C527 C528 1.403 . S
C528 C527 1.403 . S
C528 C529 1.404 . S
C528 C531 1.539 . S
C529 C525 1.408 . S
C529 C528 1.404 . S
C529 H541 0.930 . S
C530 C526 1.524 . S
C530 H542 0.956 . S
C530 H543 0.961 . S
C530 H544 0.961 . S
C531 C528 1.539 . S
C531 H545 0.958 . S
C531 H546 0.961 . S
C531 H547 0.960 . S
H532 C516 0.931 . S
H533 C521 0.929 . S
H534 C522 0.960 . S
H535 C522 0.962 . S
H536 C522 0.960 . S
H537 C523 0.961 . S
H538 C523 0.961 . S
H539 C523 0.961 . S
H540 C524 0.931 . S
H541 C529 0.930 . S
H542 C530 0.956 . S
H543 C530 0.961 . S
H544 C530 0.961 . S
H545 C531 0.958 . S
H546 C531 0.961 . S
H547 C531 0.960 . S
C548 C549 1.391 . S
C548 C550 1.394 . S
C548 H564 0.931 . S
C549 C548 1.391 . S
C549 C553 1.376 . S
C550 C548 1.394 . S
C550 C551 1.369 . S
C550 C554 1.531 . S
C551 C550 1.369 . S
C551 C552 1.410 . S
C551 C559 1.503 . S
C552 C551 1.410 . S
C552 C553 1.392 . S
C552 C555 1.511 . S
C553 C549 1.376 . S
C553 C552 1.392 . S
C553 H565 0.929 . S
C554 C550 1.531 . S
C554 H566 0.960 . S
C554 H567 0.962 . S
C554 H568 0.960 . S
C555 C552 1.511 . S
C555 H569 0.961 . S
C555 H570 0.961 . S
C555 H571 0.961 . S
C556 C557 1.370 . S
C556 C558 1.363 . S
C556 H572 0.931 . S
C557 C556 1.370 . S
C557 C561 1.408 . S
C558 C556 1.363 . S
C558 C559 1.370 . S
C558 C562 1.524 . S
C559 C551 1.503 . S
C559 C558 1.370 . S
C559 C560 1.403 . S
C560 C559 1.403 . S
C560 C561 1.404 . S
C560 C563 1.539 . S
C561 C557 1.408 . S
C561 C560 1.404 . S
C561 H573 0.930 . S
C562 C558 1.524 . S
C562 H574 0.956 . S
C562 H575 0.961 . S
C562 H576 0.961 . S
C563 C560 1.539 . S
C563 H577 0.958 . S
C563 H578 0.961 . S
C563 H579 0.960 . S
H564 C548 0.931 . S
H565 C553 0.929 . S
H566 C554 0.960 . S
H567 C554 0.962 . S
H568 C554 0.960 . S
H569 C555 0.961 . S
H570 C555 0.961 . S
H571 C555 0.961 . S
H572 C556 0.931 . S
H573 C561 0.930 . S
H574 C562 0.956 . S
H575 C562 0.961 . S
H576 C562 0.961 . S
H577 C563 0.958 . S
H578 C563 0.961 . S
H579 C563 0.960 . S
C580 C581 1.391 . S
C580 C582 1.394 . S
C580 H596 0.931 . S
C581 C580 1.391 . S
C581 C585 1.376 . S
C582 C580 1.394 . S
C582 C583 1.369 . S
C582 C586 1.531 . S
C583 C582 1.369 . S
C583 C584 1.410 . S
C583 C591 1.503 . S
C584 C583 1.410 . S
C584 C585 1.392 . S
C584 C587 1.511 . S
C585 C581 1.376 . S
C585 C584 1.392 . S
C585 H597 0.929 . S
C586 C582 1.531 . S
C586 H598 0.960 . S
C586 H599 0.962 . S
C586 H600 0.960 . S
C587 C584 1.511 . S
C587 H601 0.961 . S
C587 H602 0.961 . S
C587 H603 0.961 . S
C588 C589 1.370 . S
C588 C590 1.363 . S
C588 H604 0.931 . S
C589 C588 1.370 . S
C589 C593 1.408 . S
C590 C588 1.363 . S
C590 C591 1.370 . S
C590 C594 1.524 . S
C591 C583 1.503 . S
C591 C590 1.370 . S
C591 C592 1.403 . S
C592 C591 1.403 . S
C592 C593 1.404 . S
C592 C595 1.539 . S
C593 C589 1.408 . S
C593 C592 1.404 . S
C593 H605 0.930 . S
C594 C590 1.524 . S
C594 H606 0.956 . S
C594 H607 0.961 . S
C594 H608 0.961 . S
C595 C592 1.539 . S
C595 H609 0.958 . S
C595 H610 0.961 . S
C595 H611 0.960 . S
H596 C580 0.931 . S
H597 C585 0.929 . S
H598 C586 0.960 . S
H599 C586 0.962 . S
H600 C586 0.960 . S
H601 C587 0.961 . S
H602 C587 0.961 . S
H603 C587 0.961 . S
H604 C588 0.931 . S
H605 C593 0.930 . S
H606 C594 0.956 . S
H607 C594 0.961 . S
H608 C594 0.961 . S
H609 C595 0.958 . S
H610 C595 0.961 . S
H611 C595 0.960 . S
C612 C613 1.391 . S
C612 C614 1.394 . S
C612 H628 0.931 . S
C613 C612 1.391 . S
C613 C617 1.376 1_554 S
C614 C612 1.394 . S
C614 C615 1.369 . S
C614 C618 1.531 . S
C615 C614 1.369 . S
C615 C616 1.410 . S
C615 C623 1.503 . S
C616 C615 1.410 . S
C616 C617 1.392 1_554 S
C616 C619 1.511 1_554 S
C617 C613 1.376 1_556 S
C617 C616 1.392 1_556 S
C617 H629 0.929 . S
C618 C614 1.531 . S
C618 H630 0.960 . S
C618 H631 0.962 . S
C618 H632 0.960 . S
C619 C616 1.511 1_556 S
C619 H633 0.961 . S
C619 H634 0.961 . S
C619 H635 0.961 . S
C620 C621 1.370 . S
C620 C622 1.363 . S
C620 H636 0.931 . S
C621 C620 1.370 . S
C621 C625 1.408 . S
C622 C620 1.363 . S
C622 C623 1.370 . S
C622 C626 1.524 . S
C623 C615 1.503 . S
C623 C622 1.370 . S
C623 C624 1.403 . S
C624 C623 1.403 . S
C624 C625 1.404 . S
C624 C627 1.539 . S
C625 C621 1.408 . S
C625 C624 1.404 . S
C625 H637 0.930 . S
C626 C622 1.524 . S
C626 H638 0.956 . S
C626 H639 0.961 . S
C626 H640 0.961 . S
C627 C624 1.539 . S
C627 H641 0.958 . S
C627 H642 0.961 . S
C627 H643 0.960 . S
H628 C612 0.931 . S
H629 C617 0.929 . S
H630 C618 0.960 . S
H631 C618 0.962 . S
H632 C618 0.960 . S
H633 C619 0.961 . S
H634 C619 0.961 . S
H635 C619 0.961 . S
H636 C620 0.931 . S
H637 C625 0.930 . S
H638 C626 0.956 . S
H639 C626 0.961 . S
H640 C626 0.961 . S
H641 C627 0.958 . S
H642 C627 0.961 . S
H643 C627 0.960 . S
C644 C645 1.391 . S
C644 C646 1.394 . S
C644 H660 0.931 . S
C645 C644 1.391 . S
C645 C649 1.376 . S
C646 C644 1.394 . S
C646 C647 1.369 . S
C646 C650 1.531 . S
C647 C646 1.369 . S
C647 C648 1.410 . S
C647 C655 1.503 . S
C648 C647 1.410 . S
C648 C649 1.392 . S
C648 C651 1.511 . S
C649 C645 1.376 . S
C649 C648 1.392 . S
C649 H661 0.929 . S
C650 C646 1.531 . S
C650 H662 0.960 . S
C650 H663 0.962 . S
C650 H664 0.960 . S
C651 C648 1.511 . S
C651 H665 0.961 . S
C651 H666 0.961 . S
C651 H667 0.961 . S
C652 C653 1.370 . S
C652 C654 1.363 . S
C652 H668 0.931 . S
C653 C652 1.370 . S
C653 C657 1.408 . S
C654 C652 1.363 . S
C654 C655 1.370 . S
C654 C658 1.524 . S
C655 C647 1.503 . S
C655 C654 1.370 . S
C655 C656 1.403 . S
C656 C655 1.403 . S
C656 C657 1.404 . S
C656 C659 1.539 . S
C657 C653 1.408 . S
C657 C656 1.404 . S
C657 H669 0.930 . S
C658 C654 1.524 . S
C658 H670 0.956 . S
C658 H671 0.961 . S
C658 H672 0.961 . S
C659 C656 1.539 . S
C659 H673 0.958 . S
C659 H674 0.961 . S
C659 H675 0.960 . S
H660 C644 0.931 . S
H661 C649 0.929 . S
H662 C650 0.960 . S
H663 C650 0.962 . S
H664 C650 0.960 . S
H665 C651 0.961 . S
H666 C651 0.961 . S
H667 C651 0.961 . S
H668 C652 0.931 . S
H669 C657 0.930 . S
H670 C658 0.956 . S
H671 C658 0.961 . S
H672 C658 0.961 . S
H673 C659 0.958 . S
H674 C659 0.961 . S
H675 C659 0.960 . S
C676 C677 1.391 . S
C676 C678 1.394 . S
C676 H692 0.931 . S
C677 C676 1.391 . S
C677 C681 1.376 . S
C678 C676 1.394 . S
C678 C679 1.369 . S
C678 C682 1.531 . S
C679 C678 1.369 . S
C679 C680 1.410 . S
C679 C687 1.503 . S
C680 C679 1.410 . S
C680 C681 1.392 . S
C680 C683 1.511 . S
C681 C677 1.376 . S
C681 C680 1.392 . S
C681 H693 0.929 . S
C682 C678 1.531 . S
C682 H694 0.960 . S
C682 H695 0.962 . S
C682 H696 0.960 . S
C683 C680 1.511 . S
C683 H697 0.961 . S
C683 H698 0.961 . S
C683 H699 0.961 . S
C684 C685 1.370 . S
C684 C686 1.363 . S
C684 H700 0.931 . S
C685 C684 1.370 . S
C685 C689 1.408 . S
C686 C684 1.363 . S
C686 C687 1.370 . S
C686 C690 1.524 . S
C687 C679 1.503 . S
C687 C686 1.370 . S
C687 C688 1.403 . S
C688 C687 1.403 . S
C688 C689 1.404 . S
C688 C691 1.539 . S
C689 C685 1.408 . S
C689 C688 1.404 . S
C689 H701 0.930 . S
C690 C686 1.524 . S
C690 H702 0.956 . S
C690 H703 0.961 . S
C690 H704 0.961 . S
C691 C688 1.539 . S
C691 H705 0.958 . S
C691 H706 0.961 . S
C691 H707 0.960 . S
H692 C676 0.931 . S
H693 C681 0.929 . S
H694 C682 0.960 . S
H695 C682 0.962 . S
H696 C682 0.960 . S
H697 C683 0.961 . S
H698 C683 0.961 . S
H699 C683 0.961 . S
H700 C684 0.931 . S
H701 C689 0.930 . S
H702 C690 0.956 . S
H703 C690 0.961 . S
H704 C690 0.961 . S
H705 C691 0.958 . S
H706 C691 0.961 . S
H707 C691 0.960 . S
C708 C709 1.391 . S
C708 C710 1.394 . S
C708 H724 0.931 . S
C709 C708 1.391 . S
C709 C713 1.376 . S
C710 C708 1.394 . S
C710 C711 1.369 . S
C710 C714 1.531 . S
C711 C710 1.369 . S
C711 C712 1.410 . S
C711 C719 1.503 . S
C712 C711 1.410 . S
C712 C713 1.392 . S
C712 C715 1.511 . S
C713 C709 1.376 . S
C713 C712 1.392 . S
C713 H725 0.929 . S
C714 C710 1.531 . S
C714 H726 0.960 . S
C714 H727 0.962 . S
C714 H728 0.960 . S
C715 C712 1.511 . S
C715 H729 0.961 . S
C715 H730 0.961 . S
C715 H731 0.961 . S
C716 C717 1.370 . S
C716 C718 1.363 . S
C716 H732 0.931 . S
C717 C716 1.370 . S
C717 C721 1.408 . S
C718 C716 1.363 . S
C718 C719 1.370 . S
C718 C722 1.524 . S
C719 C711 1.503 . S
C719 C718 1.370 . S
C719 C720 1.403 . S
C720 C719 1.403 . S
C720 C721 1.404 . S
C720 C723 1.539 . S
C721 C717 1.408 . S
C721 C720 1.404 . S
C721 H733 0.930 . S
C722 C718 1.524 . S
C722 H734 0.956 . S
C722 H735 0.961 . S
C722 H736 0.961 . S
C723 C720 1.539 . S
C723 H737 0.958 . S
C723 H738 0.961 . S
C723 H739 0.960 . S
H724 C708 0.931 . S
H725 C713 0.929 . S
H726 C714 0.960 . S
H727 C714 0.962 . S
H728 C714 0.960 . S
H729 C715 0.961 . S
H730 C715 0.961 . S
H731 C715 0.961 . S
H732 C716 0.931 . S
H733 C721 0.930 . S
H734 C722 0.956 . S
H735 C722 0.961 . S
H736 C722 0.961 . S
H737 C723 0.958 . S
H738 C723 0.961 . S
H739 C723 0.960 . S
C740 C741 1.391 . S
C740 C742 1.394 . S
C740 H756 0.931 . S
C741 C740 1.391 . S
C741 C745 1.376 . S
C742 C740 1.394 . S
C742 C743 1.369 . S
C742 C746 1.531 . S
C743 C742 1.369 . S
C743 C744 1.410 . S
C743 C751 1.503 . S
C744 C743 1.410 . S
C744 C745 1.392 . S
C744 C747 1.511 . S
C745 C741 1.376 . S
C745 C744 1.392 . S
C745 H757 0.929 . S
C746 C742 1.531 . S
C746 H758 0.960 . S
C746 H759 0.962 . S
C746 H760 0.960 . S
C747 C744 1.511 . S
C747 H761 0.961 . S
C747 H762 0.961 . S
C747 H763 0.961 . S
C748 C749 1.370 . S
C748 C750 1.363 . S
C748 H764 0.931 . S
C749 C748 1.370 . S
C749 C753 1.408 . S
C750 C748 1.363 . S
C750 C751 1.370 . S
C750 C754 1.524 . S
C751 C743 1.503 . S
C751 C750 1.370 . S
C751 C752 1.403 . S
C752 C751 1.403 . S
C752 C753 1.404 . S
C752 C755 1.539 . S
C753 C749 1.408 . S
C753 C752 1.404 . S
C753 H765 0.930 . S
C754 C750 1.524 . S
C754 H766 0.956 . S
C754 H767 0.961 . S
C754 H768 0.961 . S
C755 C752 1.539 . S
C755 H769 0.958 . S
C755 H770 0.961 . S
C755 H771 0.960 . S
H756 C740 0.931 . S
H757 C745 0.929 . S
H758 C746 0.960 . S
H759 C746 0.962 . S
H760 C746 0.960 . S
H761 C747 0.961 . S
H762 C747 0.961 . S
H763 C747 0.961 . S
H764 C748 0.931 . S
H765 C753 0.930 . S
H766 C754 0.956 . S
H767 C754 0.961 . S
H768 C754 0.961 . S
H769 C755 0.958 . S
H770 C755 0.961 . S
H771 C755 0.960 . S
C772 C773 1.391 . S
C772 C774 1.394 . S
C772 H788 0.931 . S
C773 C772 1.391 . S
C773 C777 1.376 . S
C774 C772 1.394 . S
C774 C775 1.369 . S
C774 C778 1.531 . S
C775 C774 1.369 . S
C775 C776 1.410 . S
C775 C783 1.503 . S
C776 C775 1.410 . S
C776 C777 1.392 . S
C776 C779 1.511 . S
C777 C773 1.376 . S
C777 C776 1.392 . S
C777 H789 0.929 . S
C778 C774 1.531 . S
C778 H790 0.960 . S
C778 H791 0.962 . S
C778 H792 0.960 . S
C779 C776 1.511 . S
C779 H793 0.961 . S
C779 H794 0.961 . S
C779 H795 0.961 . S
C780 C781 1.370 . S
C780 C782 1.363 . S
C780 H796 0.931 . S
C781 C780 1.370 . S
C781 C785 1.408 . S
C782 C780 1.363 . S
C782 C783 1.370 . S
C782 C786 1.524 . S
C783 C775 1.503 . S
C783 C782 1.370 . S
C783 C784 1.403 . S
C784 C783 1.403 . S
C784 C785 1.404 . S
C784 C787 1.539 . S
C785 C781 1.408 . S
C785 C784 1.404 . S
C785 H797 0.930 . S
C786 C782 1.524 . S
C786 H798 0.956 . S
C786 H799 0.961 . S
C786 H800 0.961 . S
C787 C784 1.539 . S
C787 H801 0.958 . S
C787 H802 0.961 . S
C787 H803 0.960 . S
H788 C772 0.931 . S
H789 C777 0.929 . S
H790 C778 0.960 . S
H791 C778 0.962 . S
H792 C778 0.960 . S
H793 C779 0.961 . S
H794 C779 0.961 . S
H795 C779 0.961 . S
H796 C780 0.931 . S
H797 C785 0.930 . S
H798 C786 0.956 . S
H799 C786 0.961 . S
H800 C786 0.961 . S
H801 C787 0.958 . S
H802 C787 0.961 . S
H803 C787 0.960 . S
C804 C805 1.391 . S
C804 C806 1.394 . S
C804 H820 0.931 . S
C805 C804 1.391 . S
C805 C809 1.376 . S
C806 C804 1.394 . S
C806 C807 1.369 . S
C806 C810 1.531 . S
C807 C806 1.369 . S
C807 C808 1.410 . S
C807 C815 1.503 . S
C808 C807 1.410 . S
C808 C809 1.392 . S
C808 C811 1.511 . S
C809 C805 1.376 . S
C809 C808 1.392 . S
C809 H821 0.929 . S
C810 C806 1.531 . S
C810 H822 0.960 . S
C810 H823 0.962 . S
C810 H824 0.960 . S
C811 C808 1.511 . S
C811 H825 0.961 . S
C811 H826 0.961 . S
C811 H827 0.961 . S
C812 C813 1.357 1_556 S
C812 C814 1.363 . S
C812 H828 0.931 . S
C813 C812 1.357 1_554 S
C813 C817 1.403 1_554 S
C814 C812 1.363 . S
C814 C815 1.370 . S
C814 C818 1.524 . S
C815 C807 1.503 . S
C815 C814 1.370 . S
C815 C816 1.403 . S
C816 C815 1.403 . S
C816 C817 1.404 . S
C816 C819 1.539 . S
C817 C813 1.403 1_556 S
C817 C816 1.404 . S
C817 H829 0.930 1_556 S
C818 C814 1.524 . S
C818 H830 0.956 . S
C818 H831 0.961 . S
C818 H832 0.961 . S
C819 C816 1.539 . S
C819 H833 0.958 . S
C819 H834 0.961 . S
C819 H835 0.960 . S
H820 C804 0.931 . S
H821 C809 0.929 . S
H822 C810 0.960 . S
H823 C810 0.962 . S
H824 C810 0.960 . S
H825 C811 0.961 . S
H826 C811 0.961 . S
H827 C811 0.961 . S
H828 C812 0.931 . S
H829 C817 0.930 1_554 S
H830 C818 0.956 . S
H831 C818 0.961 . S
H832 C818 0.961 . S
H833 C819 0.958 . S
H834 C819 0.961 . S
H835 C819 0.960 . S
C836 C837 1.391 . S
C836 C838 1.394 . S
C836 H852 0.931 . S
C837 C836 1.391 . S
C837 C841 1.376 . S
C838 C836 1.394 . S
C838 C839 1.369 . S
C838 C842 1.531 . S
C839 C838 1.369 . S
C839 C840 1.410 . S
C839 C847 1.503 . S
C840 C839 1.410 . S
C840 C841 1.392 . S
C840 C843 1.511 . S
C841 C837 1.376 . S
C841 C840 1.392 . S
C841 H853 0.929 . S
C842 C838 1.531 . S
C842 H854 0.960 . S
C842 H855 0.962 . S
C842 H856 0.960 . S
C843 C840 1.511 . S
C843 H857 0.961 . S
C843 H858 0.961 . S
C843 H859 0.961 . S
C844 C845 1.370 . S
C844 C846 1.363 . S
C844 H860 0.931 . S
C845 C844 1.370 . S
C845 C849 1.408 . S
C846 C844 1.363 . S
C846 C847 1.370 . S
C846 C850 1.524 . S
C847 C839 1.503 . S
C847 C846 1.370 . S
C847 C848 1.403 . S
C848 C847 1.403 . S
C848 C849 1.404 . S
C848 C851 1.539 . S
C849 C845 1.408 . S
C849 C848 1.404 . S
C849 H861 0.930 . S
C850 C846 1.524 . S
C850 H862 0.956 . S
C850 H863 0.961 . S
C850 H864 0.961 . S
C851 C848 1.539 . S
C851 H865 0.958 . S
C851 H866 0.961 . S
C851 H867 0.960 . S
H852 C836 0.931 . S
H853 C841 0.929 . S
H854 C842 0.960 . S
H855 C842 0.962 . S
H856 C842 0.960 . S
H857 C843 0.961 . S
H858 C843 0.961 . S
H859 C843 0.961 . S
H860 C844 0.931 . S
H861 C849 0.930 . S
H862 C850 0.956 . S
H863 C850 0.961 . S
H864 C850 0.961 . S
H865 C851 0.958 . S
H866 C851 0.961 . S
H867 C851 0.960 . S
C868 C869 1.391 . S
C868 C870 1.394 . S
C868 H884 0.931 . S
C869 C868 1.391 . S
C869 C873 1.376 . S
C870 C868 1.394 . S
C870 C871 1.369 . S
C870 C874 1.531 . S
C871 C870 1.369 . S
C871 C872 1.410 . S
C871 C879 1.503 . S
C872 C871 1.410 . S
C872 C873 1.392 . S
C872 C875 1.511 . S
C873 C869 1.376 . S
C873 C872 1.392 . S
C873 H885 0.929 . S
C874 C870 1.531 . S
C874 H886 0.960 . S
C874 H887 0.962 . S
C874 H888 0.960 . S
C875 C872 1.511 . S
C875 H889 0.961 . S
C875 H890 0.961 . S
C875 H891 0.961 . S
C876 C877 1.370 . S
C876 C878 1.363 . S
C876 H892 0.931 . S
C877 C876 1.370 . S
C877 C881 1.408 . S
C878 C876 1.363 . S
C878 C879 1.370 . S
C878 C882 1.524 . S
C879 C871 1.503 . S
C879 C878 1.370 . S
C879 C880 1.403 . S
C880 C879 1.403 . S
C880 C881 1.404 . S
C880 C883 1.539 . S
C881 C877 1.408 . S
C881 C880 1.404 . S
C881 H893 0.930 . S
C882 C878 1.524 . S
C882 H894 0.956 . S
C882 H895 0.961 . S
C882 H896 0.961 . S
C883 C880 1.539 . S
C883 H897 0.958 . S
C883 H898 0.961 . S
C883 H899 0.960 . S
H884 C868 0.931 . S
H885 C873 0.929 . S
H886 C874 0.960 . S
H887 C874 0.962 . S
H888 C874 0.960 . S
H889 C875 0.961 . S
H890 C875 0.961 . S
H891 C875 0.961 . S
H892 C876 0.931 . S
H893 C881 0.930 . S
H894 C882 0.956 . S
H895 C882 0.961 . S
H896 C882 0.961 . S
H897 C883 0.958 . S
H898 C883 0.961 . S
H899 C883 0.960 . S
C900 C901 1.391 . S
C900 C902 1.394 . S
C900 H916 0.931 . S
C901 C900 1.391 . S
C901 C905 1.376 . S
C902 C900 1.394 . S
C902 C903 1.369 . S
C902 C906 1.531 . S
C903 C902 1.369 . S
C903 C904 1.410 . S
C903 C911 1.503 . S
C904 C903 1.410 . S
C904 C905 1.392 . S
C904 C907 1.511 . S
C905 C901 1.376 . S
C905 C904 1.392 . S
C905 H917 0.929 . S
C906 C902 1.531 . S
C906 H918 0.960 . S
C906 H919 0.962 . S
C906 H920 0.960 . S
C907 C904 1.511 . S
C907 H921 0.961 . S
C907 H922 0.961 . S
C907 H923 0.961 . S
C908 C909 1.370 . S
C908 C910 1.363 . S
C908 H924 0.931 . S
C909 C908 1.370 . S
C909 C913 1.408 . S
C910 C908 1.363 . S
C910 C911 1.370 . S
C910 C914 1.524 . S
C911 C903 1.503 . S
C911 C910 1.370 . S
C911 C912 1.403 . S
C912 C911 1.403 . S
C912 C913 1.404 . S
C912 C915 1.539 . S
C913 C909 1.408 . S
C913 C912 1.404 . S
C913 H925 0.930 . S
C914 C910 1.524 . S
C914 H926 0.956 . S
C914 H927 0.961 . S
C914 H928 0.961 . S
C915 C912 1.539 . S
C915 H929 0.958 . S
C915 H930 0.961 . S
C915 H931 0.960 . S
H916 C900 0.931 . S
H917 C905 0.929 . S
H918 C906 0.960 . S
H919 C906 0.962 . S
H920 C906 0.960 . S
H921 C907 0.961 . S
H922 C907 0.961 . S
H923 C907 0.961 . S
H924 C908 0.931 . S
H925 C913 0.930 . S
H926 C914 0.956 . S
H927 C914 0.961 . S
H928 C914 0.961 . S
H929 C915 0.958 . S
H930 C915 0.961 . S
H931 C915 0.960 . S
C932 C933 1.391 . S
C932 C934 1.394 . S
C932 H948 0.931 . S
C933 C932 1.391 . S
C933 C937 1.376 . S
C934 C932 1.394 . S
C934 C935 1.369 . S
C934 C938 1.531 . S
C935 C934 1.369 . S
C935 C936 1.410 . S
C935 C943 1.503 . S
C936 C935 1.410 . S
C936 C937 1.392 . S
C936 C939 1.511 . S
C937 C933 1.376 . S
C937 C936 1.392 . S
C937 H949 0.929 . S
C938 C934 1.531 . S
C938 H950 0.960 . S
C938 H951 0.962 . S
C938 H952 0.960 . S
C939 C936 1.511 . S
C939 H953 0.961 . S
C939 H954 0.961 . S
C939 H955 0.961 . S
C940 C941 1.370 . S
C940 C942 1.363 . S
C940 H956 0.931 . S
C941 C940 1.370 . S
C941 C945 1.408 . S
C942 C940 1.363 . S
C942 C943 1.370 . S
C942 C946 1.524 . S
C943 C935 1.503 . S
C943 C942 1.370 . S
C943 C944 1.403 . S
C944 C943 1.403 . S
C944 C945 1.404 . S
C944 C947 1.539 . S
C945 C941 1.408 . S
C945 C944 1.404 . S
C945 H957 0.930 . S
C946 C942 1.524 . S
C946 H958 0.956 . S
C946 H959 0.961 . S
C946 H960 0.961 . S
C947 C944 1.539 . S
C947 H961 0.958 . S
C947 H962 0.961 . S
C947 H963 0.960 . S
H948 C932 0.931 . S
H949 C937 0.929 . S
H950 C938 0.960 . S
H951 C938 0.962 . S
H952 C938 0.960 . S
H953 C939 0.961 . S
H954 C939 0.961 . S
H955 C939 0.961 . S
H956 C940 0.931 . S
H957 C945 0.930 . S
H958 C946 0.956 . S
H959 C946 0.961 . S
H960 C946 0.961 . S
H961 C947 0.958 . S
H962 C947 0.961 . S
H963 C947 0.960 . S
C964 C965 1.391 . S
C964 C966 1.394 . S
C964 H980 0.931 . S
C965 C964 1.391 . S
C965 C969 1.376 . S
C966 C964 1.394 . S
C966 C967 1.369 . S
C966 C970 1.531 . S
C967 C966 1.369 . S
C967 C968 1.410 . S
C967 C975 1.503 . S
C968 C967 1.410 . S
C968 C969 1.392 . S
C968 C971 1.511 . S
C969 C965 1.376 . S
C969 C968 1.392 . S
C969 H981 0.929 . S
C970 C966 1.531 . S
C970 H982 0.960 . S
C970 H983 0.962 . S
C970 H984 0.960 . S
C971 C968 1.511 . S
C971 H985 0.961 . S
C971 H986 0.961 . S
C971 H987 0.961 . S
C972 C973 1.370 . S
C972 C974 1.363 . S
C972 H988 0.931 . S
C973 C972 1.370 . S
C973 C977 1.408 . S
C974 C972 1.363 . S
C974 C975 1.370 . S
C974 C978 1.524 . S
C975 C967 1.503 . S
C975 C974 1.370 . S
C975 C976 1.403 . S
C976 C975 1.403 . S
C976 C977 1.404 . S
C976 C979 1.539 . S
C977 C973 1.408 . S
C977 C976 1.404 . S
C977 H989 0.930 . S
C978 C974 1.524 . S
C978 H990 0.956 . S
C978 H991 0.961 . S
C978 H992 0.961 . S
C979 C976 1.539 . S
C979 H993 0.958 . S
C979 H994 0.961 . S
C979 H995 0.960 . S
H980 C964 0.931 . S
H981 C969 0.929 . S
H982 C970 0.960 . S
H983 C970 0.962 . S
H984 C970 0.960 . S
H985 C971 0.961 . S
H986 C971 0.961 . S
H987 C971 0.961 . S
H988 C972 0.931 . S
H989 C977 0.930 . S
H990 C978 0.956 . S
H991 C978 0.961 . S
H992 C978 0.961 . S
H993 C979 0.958 . S
H994 C979 0.961 . S
H995 C979 0.960 . S
C996 C997 1.391 . S
C996 C998 1.394 . S
C996 H1012 0.931 . S
C997 C996 1.391 . S
C997 C1001 1.376 . S
C998 C996 1.394 . S
C998 C999 1.369 . S
C998 C1002 1.531 . S
C999 C998 1.369 . S
C999 C1000 1.410 . S
C999 C1007 1.503 . S
C1000 C999 1.410 . S
C1000 C1001 1.392 . S
C1000 C1003 1.511 . S
C1001 C997 1.376 . S
C1001 C1000 1.392 . S
C1001 H1013 0.929 . S
C1002 C998 1.531 . S
C1002 H1014 0.960 . S
C1002 H1015 0.962 . S
C1002 H1016 0.960 . S
C1003 C1000 1.511 . S
C1003 H1017 0.961 . S
C1003 H1018 0.961 . S
C1003 H1019 0.961 . S
C1004 C1005 1.370 . S
C1004 C1006 1.363 . S
C1004 H1020 0.931 . S
C1005 C1004 1.370 . S
C1005 C1009 1.408 . S
C1006 C1004 1.363 . S
C1006 C1007 1.370 . S
C1006 C1010 1.524 . S
C1007 C999 1.503 . S
C1007 C1006 1.370 . S
C1007 C1008 1.403 . S
C1008 C1007 1.403 . S
C1008 C1009 1.404 . S
C1008 C1011 1.539 . S
C1009 C1005 1.408 . S
C1009 C1008 1.404 . S
C1009 H1021 0.930 . S
C1010 C1006 1.524 . S
C1010 H1022 0.956 . S
C1010 H1023 0.961 . S
C1010 H1024 0.961 . S
C1011 C1008 1.539 . S
C1011 H1025 0.958 . S
C1011 H1026 0.961 . S
C1011 H1027 0.960 . S
H1012 C996 0.931 . S
H1013 C1001 0.929 . S
H1014 C1002 0.960 . S
H1015 C1002 0.962 . S
H1016 C1002 0.960 . S
H1017 C1003 0.961 . S
H1018 C1003 0.961 . S
H1019 C1003 0.961 . S
H1020 C1004 0.931 . S
H1021 C1009 0.930 . S
H1022 C1010 0.956 . S
H1023 C1010 0.961 . S
H1024 C1010 0.961 . S
H1025 C1011 0.958 . S
H1026 C1011 0.961 . S
H1027 C1011 0.960 . S
C1028 C1029 1.391 . S
C1028 C1030 1.394 . S
C1028 H1044 0.931 . S
C1029 C1028 1.391 . S
C1029 C1033 1.376 . S
C1030 C1028 1.394 . S
C1030 C1031 1.369 . S
C1030 C1034 1.531 . S
C1031 C1030 1.369 . S
C1031 C1032 1.410 . S
C1031 C1039 1.503 . S
C1032 C1031 1.410 . S
C1032 C1033 1.392 . S
C1032 C1035 1.511 . S
C1033 C1029 1.376 . S
C1033 C1032 1.392 . S
C1033 H1045 0.929 . S
C1034 C1030 1.531 . S
C1034 H1046 0.960 . S
C1034 H1047 0.962 . S
C1034 H1048 0.960 . S
C1035 C1032 1.511 . S
C1035 H1049 0.961 . S
C1035 H1050 0.961 1_554 S
C1035 H1051 0.961 1_554 S
C1036 C1037 1.370 . S
C1036 C1038 1.363 1_556 S
C1036 H1052 0.931 . S
C1037 C1036 1.370 . S
C1037 C1041 1.408 . S
C1038 C1036 1.363 1_554 S
C1038 C1039 1.370 . S
C1038 C1042 1.524 . S
C1039 C1031 1.503 . S
C1039 C1038 1.370 . S
C1039 C1040 1.403 1_554 S
C1040 C1039 1.403 1_556 S
C1040 C1041 1.404 . S
C1040 C1043 1.539 1_556 S
C1041 C1037 1.408 . S
C1041 C1040 1.404 . S
C1041 H1053 0.930 . S
C1042 C1038 1.524 . S
C1042 H1054 0.956 . S
C1042 H1055 0.961 . S
C1042 H1056 0.961 . S
C1043 C1040 1.539 1_554 S
C1043 H1057 0.958 . S
C1043 H1058 0.961 1_554 S
C1043 H1059 0.960 . S
H1044 C1028 0.931 . S
H1045 C1033 0.929 . S
H1046 C1034 0.960 . S
H1047 C1034 0.962 . S
H1048 C1034 0.960 . S
H1049 C1035 0.961 . S
H1050 C1035 0.961 1_556 S
H1051 C1035 0.961 1_556 S
H1052 C1036 0.931 . S
H1053 C1041 0.930 . S
H1054 C1042 0.956 . S
H1055 C1042 0.961 . S
H1056 C1042 0.961 . S
H1057 C1043 0.958 . S
H1058 C1043 0.961 1_556 S
H1059 C1043 0.960 . S
C1060 C1061 1.391 . S
C1060 C1062 1.394 . S
C1060 H1076 0.931 . S
C1061 C1060 1.391 . S
C1061 C1065 1.376 . S
C1062 C1060 1.394 . S
C1062 C1063 1.369 . S
C1062 C1066 1.531 . S
C1063 C1062 1.369 . S
C1063 C1064 1.410 . S
C1063 C1071 1.503 . S
C1064 C1063 1.410 . S
C1064 C1065 1.392 . S
C1064 C1067 1.511 . S
C1065 C1061 1.376 . S
C1065 C1064 1.392 . S
C1065 H1077 0.929 . S
C1066 C1062 1.531 . S
C1066 H1078 0.960 . S
C1066 H1079 0.962 . S
C1066 H1080 0.960 . S
C1067 C1064 1.511 . S
C1067 H1081 0.961 . S
C1067 H1082 0.961 . S
C1067 H1083 0.961 . S
C1068 C1069 1.370 . S
C1068 C1070 1.363 . S
C1068 H1084 0.931 . S
C1069 C1068 1.370 . S
C1069 C1073 1.408 . S
C1070 C1068 1.363 . S
C1070 C1071 1.370 . S
C1070 C1074 1.524 . S
C1071 C1063 1.503 . S
C1071 C1070 1.370 . S
C1071 C1072 1.403 . S
C1072 C1071 1.403 . S
C1072 C1073 1.404 . S
C1072 C1075 1.539 . S
C1073 C1069 1.408 . S
C1073 C1072 1.404 . S
C1073 H1085 0.930 . S
C1074 C1070 1.524 . S
C1074 H1086 0.956 . S
C1074 H1087 0.961 . S
C1074 H1088 0.961 . S
C1075 C1072 1.539 . S
C1075 H1089 0.958 . S
C1075 H1090 0.961 . S
C1075 H1091 0.960 . S
H1076 C1060 0.931 . S
H1077 C1065 0.929 . S
H1078 C1066 0.960 . S
H1079 C1066 0.962 . S
H1080 C1066 0.960 . S
H1081 C1067 0.961 . S
H1082 C1067 0.961 . S
H1083 C1067 0.961 . S
H1084 C1068 0.931 . S
H1085 C1073 0.930 . S
H1086 C1074 0.956 . S
H1087 C1074 0.961 . S
H1088 C1074 0.961 . S
H1089 C1075 0.958 . S
H1090 C1075 0.961 . S
H1091 C1075 0.960 . S
C333 C291 1.577 . S
C325 C8 1.510 . S
C357 C26 1.582 . S
C365 C111 1.606 . S
C389 C50 1.521 . S
C397 C158 1.557 . S
C421 C68 1.463 . S
C429 C194 1.499 . S
C461 C219 1.560 . S
C453 C80 1.479 . S
C485 C104 1.497 . S
C493 C255 1.574 . S
C517 C32 1.532 . S
C525 C147 1.607 . S
C549 C44 1.487 . S
C557 C183 1.558 . S
C581 C62 1.451 . S
C589 C230 1.476 . S
C621 C266 1.508 . S
C613 C86 1.506 1_554 S
C653 C302 1.533 . S
C645 C98 1.510 . S
C685 C122 1.532 . S
C677 C14 1.538 . S
C709 C7 1.431 . S
C717 C146 1.500 . S
C741 C25 1.499 . S
C749 C182 1.513 . S
C781 C220 1.506 . S
C773 C52 1.443 . S
C805 C70 1.478 . S
C813 C256 1.536 . S
C845 C292 1.483 . S
C837 C79 1.464 . S
C877 C112 1.468 . S
C869 C106 1.455 . S
C909 C290 1.491 . S
C901 C34 1.482 . S
C933 C43 1.483 . S
C941 C110 1.493 . S
C973 C148 1.498 . S
C965 C61 1.464 . S
C997 C88 1.433 . S
C1005 C184 1.506 . S
C1029 C97 1.496 . S
C1037 C218 1.530 . S
C1061 C16 1.486 . S
C1069 C254 1.528 . S
