# Generated by pormake.
# Topology tbo, (3,4)-cn, num edge types: 1
# Building blocks:
#     Node 0, Type 0, BuildingBlock: BETDIP_clean_linker_0, # of connection points: 3
#     Node 1, Type 0, BuildingBlock: BETDIP_clean_linker_0, # of connection points: 3
#     Node 2, Type 0, BuildingBlock: BETDIP_clean_linker_0, # of connection points: 3
#     Node 3, Type 0, BuildingBlock: BETDIP_clean_linker_0, # of connection points: 3
#     Node 4, Type 0, BuildingBlock: BETDIP_clean_linker_0, # of connection points: 3
#     Node 5, Type 0, BuildingBlock: BETDIP_clean_linker_0, # of connection points: 3
#     Node 6, Type 0, BuildingBlock: BETDIP_clean_linker_0, # of connection points: 3
#     Node 7, Type 0, BuildingBlock: BETDIP_clean_linker_0, # of connection points: 3
#     Node 8, Type 0, BuildingBlock: BETDIP_clean_linker_0, # of connection points: 3
#     Node 9, Type 0, BuildingBlock: BETDIP_clean_linker_0, # of connection points: 3
#     Node 10, Type 0, BuildingBlock: BETDIP_clean_linker_0, # of connection points: 3
#     Node 11, Type 0, BuildingBlock: BETDIP_clean_linker_0, # of connection points: 3
#     Node 12, Type 0, BuildingBlock: BETDIP_clean_linker_0, # of connection points: 3
#     Node 13, Type 0, BuildingBlock: BETDIP_clean_linker_0, # of connection points: 3
#     Node 14, Type 0, BuildingBlock: BETDIP_clean_linker_0, # of connection points: 3
#     Node 15, Type 0, BuildingBlock: BETDIP_clean_linker_0, # of connection points: 3
#     Node 16, Type 0, BuildingBlock: BETDIP_clean_linker_0, # of connection points: 3
#     Node 17, Type 0, BuildingBlock: BETDIP_clean_linker_0, # of connection points: 3
#     Node 18, Type 0, BuildingBlock: BETDIP_clean_linker_0, # of connection points: 3
#     Node 19, Type 0, BuildingBlock: BETDIP_clean_linker_0, # of connection points: 3
#     Node 20, Type 0, BuildingBlock: BETDIP_clean_linker_0, # of connection points: 3
#     Node 21, Type 0, BuildingBlock: BETDIP_clean_linker_0, # of connection points: 3
#     Node 22, Type 0, BuildingBlock: BETDIP_clean_linker_0, # of connection points: 3
#     Node 23, Type 0, BuildingBlock: BETDIP_clean_linker_0, # of connection points: 3
#     Node 24, Type 0, BuildingBlock: BETDIP_clean_linker_0, # of connection points: 3
#     Node 25, Type 0, BuildingBlock: BETDIP_clean_linker_0, # of connection points: 3
#     Node 26, Type 0, BuildingBlock: BETDIP_clean_linker_0, # of connection points: 3
#     Node 27, Type 0, BuildingBlock: BETDIP_clean_linker_0, # of connection points: 3
#     Node 28, Type 0, BuildingBlock: BETDIP_clean_linker_0, # of connection points: 3
#     Node 29, Type 0, BuildingBlock: BETDIP_clean_linker_0, # of connection points: 3
#     Node 30, Type 0, BuildingBlock: BETDIP_clean_linker_0, # of connection points: 3
#     Node 31, Type 0, BuildingBlock: BETDIP_clean_linker_0, # of connection points: 3
#     Node 32, Type 1, BuildingBlock: ESEHIV_clean_sbu_0, # of connection points: 4
#     Node 33, Type 1, BuildingBlock: ESEHIV_clean_sbu_0, # of connection points: 4
#     Node 34, Type 1, BuildingBlock: ESEHIV_clean_sbu_0, # of connection points: 4
#     Node 35, Type 1, BuildingBlock: ESEHIV_clean_sbu_0, # of connection points: 4
#     Node 36, Type 1, BuildingBlock: ESEHIV_clean_sbu_0, # of connection points: 4
#     Node 37, Type 1, BuildingBlock: ESEHIV_clean_sbu_0, # of connection points: 4
#     Node 38, Type 1, BuildingBlock: ESEHIV_clean_sbu_0, # of connection points: 4
#     Node 39, Type 1, BuildingBlock: ESEHIV_clean_sbu_0, # of connection points: 4
#     Node 40, Type 1, BuildingBlock: ESEHIV_clean_sbu_0, # of connection points: 4
#     Node 41, Type 1, BuildingBlock: ESEHIV_clean_sbu_0, # of connection points: 4
#     Node 42, Type 1, BuildingBlock: ESEHIV_clean_sbu_0, # of connection points: 4
#     Node 43, Type 1, BuildingBlock: ESEHIV_clean_sbu_0, # of connection points: 4
#     Node 44, Type 1, BuildingBlock: ESEHIV_clean_sbu_0, # of connection points: 4
#     Node 45, Type 1, BuildingBlock: ESEHIV_clean_sbu_0, # of connection points: 4
#     Node 46, Type 1, BuildingBlock: ESEHIV_clean_sbu_0, # of connection points: 4
#     Node 47, Type 1, BuildingBlock: ESEHIV_clean_sbu_0, # of connection points: 4
#     Node 48, Type 1, BuildingBlock: ESEHIV_clean_sbu_0, # of connection points: 4
#     Node 49, Type 1, BuildingBlock: ESEHIV_clean_sbu_0, # of connection points: 4
#     Node 50, Type 1, BuildingBlock: ESEHIV_clean_sbu_0, # of connection points: 4
#     Node 51, Type 1, BuildingBlock: ESEHIV_clean_sbu_0, # of connection points: 4
#     Node 52, Type 1, BuildingBlock: ESEHIV_clean_sbu_0, # of connection points: 4
#     Node 53, Type 1, BuildingBlock: ESEHIV_clean_sbu_0, # of connection points: 4
#     Node 54, Type 1, BuildingBlock: ESEHIV_clean_sbu_0, # of connection points: 4
#     Node 55, Type 1, BuildingBlock: ESEHIV_clean_sbu_0, # of connection points: 4
#     Edge 56, Type (0, 1), BuildingBlock: EZIPEK_clean_linker_0, # of connection points: 2
#     Edge 57, Type (0, 1), BuildingBlock: EZIPEK_clean_linker_0, # of connection points: 2
#     Edge 58, Type (0, 1), BuildingBlock: EZIPEK_clean_linker_0, # of connection points: 2
#     Edge 59, Type (0, 1), BuildingBlock: EZIPEK_clean_linker_0, # of connection points: 2
#     Edge 60, Type (0, 1), BuildingBlock: EZIPEK_clean_linker_0, # of connection points: 2
#     Edge 61, Type (0, 1), BuildingBlock: EZIPEK_clean_linker_0, # of connection points: 2
#     Edge 62, Type (0, 1), BuildingBlock: EZIPEK_clean_linker_0, # of connection points: 2
#     Edge 63, Type (0, 1), BuildingBlock: EZIPEK_clean_linker_0, # of connection points: 2
#     Edge 64, Type (0, 1), BuildingBlock: EZIPEK_clean_linker_0, # of connection points: 2
#     Edge 65, Type (0, 1), BuildingBlock: EZIPEK_clean_linker_0, # of connection points: 2
#     Edge 66, Type (0, 1), BuildingBlock: EZIPEK_clean_linker_0, # of connection points: 2
#     Edge 67, Type (0, 1), BuildingBlock: EZIPEK_clean_linker_0, # of connection points: 2
#     Edge 68, Type (0, 1), BuildingBlock: EZIPEK_clean_linker_0, # of connection points: 2
#     Edge 69, Type (0, 1), BuildingBlock: EZIPEK_clean_linker_0, # of connection points: 2
#     Edge 70, Type (0, 1), BuildingBlock: EZIPEK_clean_linker_0, # of connection points: 2
#     Edge 71, Type (0, 1), BuildingBlock: EZIPEK_clean_linker_0, # of connection points: 2
#     Edge 72, Type (0, 1), BuildingBlock: EZIPEK_clean_linker_0, # of connection points: 2
#     Edge 73, Type (0, 1), BuildingBlock: EZIPEK_clean_linker_0, # of connection points: 2
#     Edge 74, Type (0, 1), BuildingBlock: EZIPEK_clean_linker_0, # of connection points: 2
#     Edge 75, Type (0, 1), BuildingBlock: EZIPEK_clean_linker_0, # of connection points: 2
#     Edge 76, Type (0, 1), BuildingBlock: EZIPEK_clean_linker_0, # of connection points: 2
#     Edge 77, Type (0, 1), BuildingBlock: EZIPEK_clean_linker_0, # of connection points: 2
#     Edge 78, Type (0, 1), BuildingBlock: EZIPEK_clean_linker_0, # of connection points: 2
#     Edge 79, Type (0, 1), BuildingBlock: EZIPEK_clean_linker_0, # of connection points: 2
#     Edge 80, Type (0, 1), BuildingBlock: EZIPEK_clean_linker_0, # of connection points: 2
#     Edge 81, Type (0, 1), BuildingBlock: EZIPEK_clean_linker_0, # of connection points: 2
#     Edge 82, Type (0, 1), BuildingBlock: EZIPEK_clean_linker_0, # of connection points: 2
#     Edge 83, Type (0, 1), BuildingBlock: EZIPEK_clean_linker_0, # of connection points: 2
#     Edge 84, Type (0, 1), BuildingBlock: EZIPEK_clean_linker_0, # of connection points: 2
#     Edge 85, Type (0, 1), BuildingBlock: EZIPEK_clean_linker_0, # of connection points: 2
#     Edge 86, Type (0, 1), BuildingBlock: EZIPEK_clean_linker_0, # of connection points: 2
#     Edge 87, Type (0, 1), BuildingBlock: EZIPEK_clean_linker_0, # of connection points: 2
#     Edge 88, Type (0, 1), BuildingBlock: EZIPEK_clean_linker_0, # of connection points: 2
#     Edge 89, Type (0, 1), BuildingBlock: EZIPEK_clean_linker_0, # of connection points: 2
#     Edge 90, Type (0, 1), BuildingBlock: EZIPEK_clean_linker_0, # of connection points: 2
#     Edge 91, Type (0, 1), BuildingBlock: EZIPEK_clean_linker_0, # of connection points: 2
#     Edge 92, Type (0, 1), BuildingBlock: EZIPEK_clean_linker_0, # of connection points: 2
#     Edge 93, Type (0, 1), BuildingBlock: EZIPEK_clean_linker_0, # of connection points: 2
#     Edge 94, Type (0, 1), BuildingBlock: EZIPEK_clean_linker_0, # of connection points: 2
#     Edge 95, Type (0, 1), BuildingBlock: EZIPEK_clean_linker_0, # of connection points: 2
#     Edge 96, Type (0, 1), BuildingBlock: EZIPEK_clean_linker_0, # of connection points: 2
#     Edge 97, Type (0, 1), BuildingBlock: EZIPEK_clean_linker_0, # of connection points: 2
#     Edge 98, Type (0, 1), BuildingBlock: EZIPEK_clean_linker_0, # of connection points: 2
#     Edge 99, Type (0, 1), BuildingBlock: EZIPEK_clean_linker_0, # of connection points: 2
#     Edge 100, Type (0, 1), BuildingBlock: EZIPEK_clean_linker_0, # of connection points: 2
#     Edge 101, Type (0, 1), BuildingBlock: EZIPEK_clean_linker_0, # of connection points: 2
#     Edge 102, Type (0, 1), BuildingBlock: EZIPEK_clean_linker_0, # of connection points: 2
#     Edge 103, Type (0, 1), BuildingBlock: EZIPEK_clean_linker_0, # of connection points: 2
#     Edge 104, Type (0, 1), BuildingBlock: EZIPEK_clean_linker_0, # of connection points: 2
#     Edge 105, Type (0, 1), BuildingBlock: EZIPEK_clean_linker_0, # of connection points: 2
#     Edge 106, Type (0, 1), BuildingBlock: EZIPEK_clean_linker_0, # of connection points: 2
#     Edge 107, Type (0, 1), BuildingBlock: EZIPEK_clean_linker_0, # of connection points: 2
#     Edge 108, Type (0, 1), BuildingBlock: EZIPEK_clean_linker_0, # of connection points: 2
#     Edge 109, Type (0, 1), BuildingBlock: EZIPEK_clean_linker_0, # of connection points: 2
#     Edge 110, Type (0, 1), BuildingBlock: EZIPEK_clean_linker_0, # of connection points: 2
#     Edge 111, Type (0, 1), BuildingBlock: EZIPEK_clean_linker_0, # of connection points: 2
#     Edge 112, Type (0, 1), BuildingBlock: EZIPEK_clean_linker_0, # of connection points: 2
#     Edge 113, Type (0, 1), BuildingBlock: EZIPEK_clean_linker_0, # of connection points: 2
#     Edge 114, Type (0, 1), BuildingBlock: EZIPEK_clean_linker_0, # of connection points: 2
#     Edge 115, Type (0, 1), BuildingBlock: EZIPEK_clean_linker_0, # of connection points: 2
#     Edge 116, Type (0, 1), BuildingBlock: EZIPEK_clean_linker_0, # of connection points: 2
#     Edge 117, Type (0, 1), BuildingBlock: EZIPEK_clean_linker_0, # of connection points: 2
#     Edge 118, Type (0, 1), BuildingBlock: EZIPEK_clean_linker_0, # of connection points: 2
#     Edge 119, Type (0, 1), BuildingBlock: EZIPEK_clean_linker_0, # of connection points: 2
#     Edge 120, Type (0, 1), BuildingBlock: EZIPEK_clean_linker_0, # of connection points: 2
#     Edge 121, Type (0, 1), BuildingBlock: EZIPEK_clean_linker_0, # of connection points: 2
#     Edge 122, Type (0, 1), BuildingBlock: EZIPEK_clean_linker_0, # of connection points: 2
#     Edge 123, Type (0, 1), BuildingBlock: EZIPEK_clean_linker_0, # of connection points: 2
#     Edge 124, Type (0, 1), BuildingBlock: EZIPEK_clean_linker_0, # of connection points: 2
#     Edge 125, Type (0, 1), BuildingBlock: EZIPEK_clean_linker_0, # of connection points: 2
#     Edge 126, Type (0, 1), BuildingBlock: EZIPEK_clean_linker_0, # of connection points: 2
#     Edge 127, Type (0, 1), BuildingBlock: EZIPEK_clean_linker_0, # of connection points: 2
#     Edge 128, Type (0, 1), BuildingBlock: EZIPEK_clean_linker_0, # of connection points: 2
#     Edge 129, Type (0, 1), BuildingBlock: EZIPEK_clean_linker_0, # of connection points: 2
#     Edge 130, Type (0, 1), BuildingBlock: EZIPEK_clean_linker_0, # of connection points: 2
#     Edge 131, Type (0, 1), BuildingBlock: EZIPEK_clean_linker_0, # of connection points: 2
#     Edge 132, Type (0, 1), BuildingBlock: EZIPEK_clean_linker_0, # of connection points: 2
#     Edge 133, Type (0, 1), BuildingBlock: EZIPEK_clean_linker_0, # of connection points: 2
#     Edge 134, Type (0, 1), BuildingBlock: EZIPEK_clean_linker_0, # of connection points: 2
#     Edge 135, Type (0, 1), BuildingBlock: EZIPEK_clean_linker_0, # of connection points: 2
#     Edge 136, Type (0, 1), BuildingBlock: EZIPEK_clean_linker_0, # of connection points: 2
#     Edge 137, Type (0, 1), BuildingBlock: EZIPEK_clean_linker_0, # of connection points: 2
#     Edge 138, Type (0, 1), BuildingBlock: EZIPEK_clean_linker_0, # of connection points: 2
#     Edge 139, Type (0, 1), BuildingBlock: EZIPEK_clean_linker_0, # of connection points: 2
#     Edge 140, Type (0, 1), BuildingBlock: EZIPEK_clean_linker_0, # of connection points: 2
#     Edge 141, Type (0, 1), BuildingBlock: EZIPEK_clean_linker_0, # of connection points: 2
#     Edge 142, Type (0, 1), BuildingBlock: EZIPEK_clean_linker_0, # of connection points: 2
#     Edge 143, Type (0, 1), BuildingBlock: EZIPEK_clean_linker_0, # of connection points: 2
#     Edge 144, Type (0, 1), BuildingBlock: EZIPEK_clean_linker_0, # of connection points: 2
#     Edge 145, Type (0, 1), BuildingBlock: EZIPEK_clean_linker_0, # of connection points: 2
#     Edge 146, Type (0, 1), BuildingBlock: EZIPEK_clean_linker_0, # of connection points: 2
#     Edge 147, Type (0, 1), BuildingBlock: EZIPEK_clean_linker_0, # of connection points: 2
#     Edge 148, Type (0, 1), BuildingBlock: EZIPEK_clean_linker_0, # of connection points: 2
#     Edge 149, Type (0, 1), BuildingBlock: EZIPEK_clean_linker_0, # of connection points: 2
#     Edge 150, Type (0, 1), BuildingBlock: EZIPEK_clean_linker_0, # of connection points: 2
#     Edge 151, Type (0, 1), BuildingBlock: EZIPEK_clean_linker_0, # of connection points: 2
# Relax obj value: 0.052
# Max RMSD: 0.179
# Mean RMSD: 0.121
data_MOF--net-tbo--node1-ESEHIV_clean_sbu_0--node2-BETDIP_clean_linker_0--edge1-EZIPEK_clean_linker_0
_symmetry_space_group_name_H-M    P1
_symmetry_Int_Tables_number       1
_symmetry_cell_setting            triclinic
loop_
_symmetry_equiv_pos_as_xyz
'x, y, z'
_cell_length_a     51.768639
_cell_length_b     50.825779
_cell_length_c     55.267327
_cell_angle_alpha  95.398949
_cell_angle_beta   86.728328
_cell_angle_gamma 101.04984
loop_
_atom_site_label
_atom_site_type_symbol
_atom_site_fract_x
_atom_site_fract_y
_atom_site_fract_z
_atom_type_partial_charge
H0 H 0.17766 0.20276 0.24217 0.0
H1 H 0.23848 0.2149 0.18575 0.0
H2 H 0.1687 0.24821 0.18215 0.0
H3 H 0.24932 0.17781 0.19766 0.0
C4 C 0.24315 0.17624 0.21664 0.0
C5 C 0.18513 0.21116 0.22526 0.0
C6 C 0.16993 0.22586 0.21342 0.0
C7 C 0.20924 0.20598 0.21503 0.0
C8 C 0.21935 0.2175 0.19342 0.0
C9 C 0.20502 0.23317 0.18175 0.0
C10 C 0.18005 0.23673 0.19148 0.0
N11 N 0.22246 0.18903 0.22703 0.0
H12 H 0.89509 0.2557 0.16106 0.0
H13 H 0.84017 0.181 0.14787 0.0
H14 H 0.88921 0.19326 0.20962 0.0
H15 H 0.84739 0.19254 0.10798 0.0
C16 C 0.84756 0.21403 0.11016 0.0
C17 C 0.88625 0.23578 0.16615 0.0
C18 C 0.89448 0.22636 0.18697 0.0
C19 C 0.86701 0.21948 0.15161 0.0
C20 C 0.85551 0.19364 0.15844 0.0
C21 C 0.86342 0.18419 0.17942 0.0
C22 C 0.88295 0.20058 0.19352 0.0
N23 N 0.8593 0.22993 0.13067 0.0
H24 H 0.89347 0.831 0.19753 0.0
H25 H 0.89962 0.89832 0.25191 0.0
H26 H 0.85059 0.89409 0.19063 0.0
H27 H 0.90606 0.80955 0.22695 0.0
C28 C 0.91922 0.8245 0.23801 0.0
C29 C 0.88792 0.84969 0.20489 0.0
C30 C 0.871 0.86098 0.19161 0.0
C31 C 0.89785 0.86271 0.2271 0.0
C32 C 0.89138 0.88786 0.23529 0.0
C33 C 0.87417 0.89947 0.22247 0.0
C34 C 0.86381 0.88552 0.20075 0.0
N35 N 0.91488 0.8516 0.24123 0.0
H36 H 0.14723 0.8245 0.18048 0.0
H37 H 0.20479 0.89287 0.16025 0.0
H38 H 0.1715 0.89105 0.23316 0.0
H39 H 0.20124 0.8735 0.12282 0.0
C40 C 0.18905 0.85361 0.1225 0.0
C41 C 0.15899 0.84422 0.18512 0.0
C42 C 0.15739 0.85633 0.20879 0.0
C43 C 0.17533 0.8573 0.16723 0.0
C44 C 0.19122 0.88262 0.17342 0.0
C45 C 0.18987 0.89472 0.1973 0.0
C46 C 0.17261 0.88171 0.21475 0.0
N47 N 0.17537 0.84366 0.14363 0.0
H48 H 0.15419 0.8575 0.85396 0.0
H49 H 0.22208 0.9217 0.85456 0.0
H50 H 0.163 0.91664 0.80186 0.0
H51 H 0.22135 0.91249 0.89571 0.0
C52 C 0.21687 0.89066 0.89379 0.0
C53 C 0.16518 0.87564 0.84675 0.0
C54 C 0.15567 0.88582 0.82691 0.0
C55 C 0.18886 0.88865 0.85728 0.0
C56 C 0.2033 0.91189 0.84738 0.0
C57 C 0.19397 0.9219 0.82733 0.0
C58 C 0.1701 0.90897 0.81738 0.0
N59 N 0.19827 0.8769 0.87669 0.0
H60 H 0.24145 0.21225 0.93196 0.0
H61 H 0.24839 0.16745 0.86285 0.0
H62 H 0.31097 0.17837 0.9132 0.0
H63 H 0.22348 0.19665 0.85095 0.0
C64 C 0.21027 0.20017 0.86638 0.0
C65 C 0.25256 0.20058 0.91933 0.0
C66 C 0.27734 0.19635 0.92573 0.0
C67 C 0.2425 0.19149 0.89642 0.0
C68 C 0.25645 0.17563 0.88021 0.0
C69 C 0.28102 0.17023 0.8862 0.0
C70 C 0.29168 0.1814 0.9088 0.0
N71 N 0.21853 0.19905 0.89041 0.0
H72 H 0.87975 0.22596 0.81229 0.0
H73 H 0.9328 0.29177 0.84714 0.0
H74 H 0.94656 0.2107 0.84761 0.0
H75 H 0.87416 0.316 0.83278 0.0
C76 C 0.88066 0.29993 0.84097 0.0
C77 C 0.89695 0.23322 0.82305 0.0
C78 C 0.91272 0.21533 0.82873 0.0
C79 C 0.90331 0.26046 0.83102 0.0
C80 C 0.92678 0.27027 0.84301 0.0
C81 C 0.94283 0.25255 0.84902 0.0
C82 C 0.93473 0.22477 0.8429 0.0
N83 N 0.88679 0.278 0.82519 0.0
H84 H 0.84073 0.90092 0.90192 0.0
H85 H 0.8893 0.88944 0.83731 0.0
H86 H 0.89738 0.84876 0.90035 0.0
H87 H 0.85928 0.90846 0.81987 0.0
C88 C 0.85386 0.92318 0.83379 0.0
C89 C 0.85601 0.89164 0.89236 0.0
C90 C 0.86813 0.87421 0.90422 0.0
C91 C 0.86371 0.89784 0.86853 0.0
C92 C 0.8831 0.8852 0.85578 0.0
C93 C 0.89488 0.86699 0.8671 0.0
C94 C 0.88789 0.86231 0.89148 0.0
N95 N 0.85223 0.91766 0.85864 0.0
H96 H 0.1792 0.70061 0.71968 0.0
H97 H 0.23732 0.71444 0.66114 0.0
H98 H 0.17074 0.75413 0.66575 0.0
H99 H 0.23831 0.66886 0.66682 0.0
C100 C 0.24048 0.67194 0.68638 0.0
C101 C 0.18639 0.71035 0.70333 0.0
C102 C 0.17204 0.72788 0.69413 0.0
C103 C 0.20963 0.70483 0.69126 0.0
C104 C 0.21899 0.71779 0.67023 0.0
C105 C 0.20524 0.73571 0.66104 0.0
C106 C 0.18157 0.74052 0.6729 0.0
N107 N 0.22371 0.68687 0.70091 0.0
H108 H 0.8856 0.75439 0.65819 0.0
H109 H 0.82253 0.68522 0.65476 0.0
H110 H 0.8858 0.68958 0.70289 0.0
H111 H 0.81824 0.69867 0.61669 0.0
C112 C 0.82193 0.72043 0.61994 0.0
C113 C 0.87659 0.73482 0.66398 0.0
C114 C 0.88862 0.7235 0.68155 0.0
C115 C 0.85301 0.72104 0.65379 0.0
C116 C 0.84115 0.6958 0.66173 0.0
C117 C 0.8529 0.68445 0.6795 0.0
C118 C 0.87672 0.69827 0.68916 0.0
N119 N 0.84123 0.73374 0.63655 0.0
H120 H 0.9069 0.34586 0.70348 0.0
H121 H 0.91035 0.40979 0.76093 0.0
H122 H 0.86712 0.41164 0.697 0.0
H123 H 0.93798 0.38975 0.77808 0.0
C124 C 0.94006 0.37077 0.76822 0.0
C125 C 0.90181 0.36484 0.71082 0.0
C126 C 0.88577 0.37718 0.69757 0.0
C127 C 0.91131 0.37643 0.73345 0.0
C128 C 0.90401 0.40082 0.74324 0.0
C129 C 0.88812 0.41389 0.73022 0.0
C130 C 0.87945 0.402 0.70715 0.0
N131 N 0.92778 0.36256 0.74554 0.0
H132 H 0.16998 0.37572 0.74624 0.0
H133 H 0.22662 0.44423 0.72511 0.0
H134 H 0.19731 0.44115 0.79929 0.0
H135 H 0.214 0.42918 0.68716 0.0
C136 C 0.209 0.40746 0.68729 0.0
C137 C 0.18188 0.39539 0.75072 0.0
C138 C 0.18176 0.407 0.77474 0.0
C139 C 0.19746 0.40878 0.73245 0.0
C140 C 0.21353 0.43393 0.73862 0.0
C141 C 0.2135 0.44561 0.76273 0.0
C142 C 0.19724 0.43228 0.78066 0.0
N143 N 0.19749 0.39555 0.70858 0.0
H144 H 0.14922 0.35415 0.37849 0.0
H145 H 0.22322 0.40925 0.3711 0.0
H146 H 0.16428 0.40311 0.31803 0.0
H147 H 0.23669 0.37641 0.3922 0.0
C148 C 0.22067 0.37052 0.4053 0.0
C149 C 0.16206 0.36948 0.3688 0.0
C150 C 0.15387 0.37723 0.34714 0.0
C151 C 0.18709 0.38068 0.37763 0.0
C152 C 0.20391 0.40024 0.36461 0.0
C153 C 0.19555 0.40846 0.34316 0.0
C154 C 0.17051 0.3971 0.33476 0.0
N155 N 0.19445 0.37191 0.39961 0.0
H156 H 0.22603 0.68894 0.41538 0.0
H157 H 0.23498 0.64189 0.34755 0.0
H158 H 0.29625 0.65578 0.39924 0.0
H159 H 0.19825 0.6535 0.33754 0.0
C160 C 0.18992 0.66554 0.35206 0.0
C161 C 0.23731 0.67683 0.40339 0.0
C162 C 0.26213 0.67344 0.41032 0.0
C163 C 0.22735 0.66617 0.38074 0.0
C164 C 0.24214 0.65047 0.36509 0.0
C165 C 0.26689 0.64618 0.37179 0.0
C166 C 0.27687 0.65807 0.39435 0.0
N167 N 0.20307 0.67284 0.3744 0.0
H168 H 0.86984 0.70526 0.38094 0.0
H169 H 0.93948 0.76371 0.39852 0.0
H170 H 0.94025 0.70841 0.33496 0.0
H171 H 0.92034 0.76216 0.43693 0.0
C172 C 0.90046 0.76305 0.43222 0.0
C173 C 0.89023 0.71409 0.37696 0.0
C174 C 0.9037 0.70399 0.35645 0.0
C175 C 0.90302 0.73539 0.39247 0.0
C176 C 0.92944 0.74671 0.38719 0.0
C177 C 0.94294 0.73708 0.36657 0.0
C178 C 0.92995 0.71582 0.35104 0.0
N179 N 0.88853 0.74613 0.41237 0.0
H180 H 0.83568 0.38536 0.42301 0.0
H181 H 0.88772 0.37138 0.36143 0.0
H182 H 0.8815 0.32297 0.422 0.0
H183 H 0.85993 0.39114 0.34167 0.0
C184 C 0.85448 0.40647 0.35494 0.0
C185 C 0.84975 0.37416 0.41381 0.0
C186 C 0.85728 0.35341 0.4252 0.0
C187 C 0.86012 0.38056 0.39064 0.0
C188 C 0.87882 0.36626 0.37898 0.0
C189 C 0.88657 0.34541 0.39019 0.0
C190 C 0.87558 0.33897 0.41325 0.0
N191 N 0.85184 0.40196 0.38007 0.0
H192 H 0.66854 0.18175 0.7252 0.0
H193 H 0.73559 0.19435 0.67511 0.0
H194 H 0.66466 0.2203 0.6596 0.0
H195 H 0.75554 0.17602 0.70126 0.0
C196 C 0.74153 0.16538 0.71397 0.0
C197 C 0.67758 0.18916 0.70837 0.0
C198 C 0.66311 0.20132 0.69327 0.0
C199 C 0.70327 0.18554 0.7018 0.0
C200 C 0.71556 0.19616 0.68045 0.0
C201 C 0.70189 0.20944 0.6656 0.0
C202 C 0.67539 0.21092 0.67154 0.0
N203 N 0.71527 0.17016 0.7167 0.0
H204 H 0.39837 0.27839 0.65491 0.0
H205 H 0.3291 0.2154 0.65378 0.0
H206 H 0.39231 0.21362 0.7005 0.0
H207 H 0.31314 0.24083 0.62887 0.0
C208 C 0.3285 0.2569 0.62303 0.0
C209 C 0.38738 0.25978 0.66125 0.0
C210 C 0.39789 0.2474 0.67898 0.0
C211 C 0.36264 0.24859 0.65186 0.0
C212 C 0.34826 0.2244 0.66053 0.0
C213 C 0.35915 0.21152 0.67802 0.0
C214 C 0.38392 0.22325 0.68694 0.0
N215 N 0.35349 0.2626 0.63385 0.0
H216 H 0.40443 0.84941 0.70301 0.0
H217 H 0.41505 0.91379 0.76009 0.0
H218 H 0.36993 0.91928 0.69814 0.0
H219 H 0.45424 0.89718 0.76392 0.0
C220 C 0.4485 0.87553 0.76033 0.0
C221 C 0.40075 0.86886 0.71065 0.0
C222 C 0.38597 0.88292 0.6977 0.0
C223 C 0.41216 0.88001 0.73258 0.0
C224 C 0.40709 0.90522 0.74278 0.0
C225 C 0.3913 0.91932 0.7307 0.0
C226 C 0.38131 0.90823 0.70791 0.0
N227 N 0.42831 0.86495 0.74363 0.0
H228 H 0.63891 0.86947 0.71457 0.0
H229 H 0.69103 0.91809 0.66571 0.0
H230 H 0.70956 0.92059 0.74073 0.0
H231 H 0.63216 0.87998 0.63267 0.0
C232 C 0.64906 0.88135 0.64378 0.0
C233 C 0.65698 0.88363 0.71115 0.0
C234 C 0.67362 0.89386 0.73033 0.0
C235 C 0.66317 0.89173 0.68765 0.0
C236 C 0.68636 0.91051 0.68337 0.0
C237 C 0.7032 0.92073 0.70244 0.0
C238 C 0.69671 0.91249 0.72592 0.0
N239 N 0.64449 0.88214 0.66947 0.0
H240 H 0.63499 0.84341 0.37656 0.0
H241 H 0.70631 0.90303 0.37231 0.0
H242 H 0.64856 0.89511 0.31804 0.0
H243 H 0.70708 0.89778 0.41261 0.0
C244 C 0.69964 0.87648 0.414 0.0
C245 C 0.64718 0.85985 0.3677 0.0
C246 C 0.63883 0.86807 0.34633 0.0
C247 C 0.67131 0.8724 0.37756 0.0
C248 C 0.68728 0.89344 0.36559 0.0
C249 C 0.67893 0.90172 0.34421 0.0
C250 C 0.6548 0.88896 0.33471 0.0
N251 N 0.67923 0.86259 0.3988 0.0
H252 H 0.73131 0.22145 0.39652 0.0
H253 H 0.73627 0.16658 0.33276 0.0
H254 H 0.78021 0.16165 0.39549 0.0
H255 H 0.68919 0.22019 0.38087 0.0
C256 C 0.69408 0.22136 0.36158 0.0
C257 C 0.73886 0.20469 0.38707 0.0
C258 C 0.75693 0.19293 0.39871 0.0
C259 C 0.73124 0.19523 0.36314 0.0
C260 C 0.74205 0.17394 0.35108 0.0
C261 C 0.75944 0.16135 0.36266 0.0
C262 C 0.76686 0.17116 0.38642 0.0
N263 N 0.71341 0.20693 0.35043 0.0
H264 H 0.36512 0.18584 0.39418 0.0
H265 H 0.42289 0.25392 0.42054 0.0
H266 H 0.43793 0.20764 0.35373 0.0
H267 H 0.34507 0.18974 0.42953 0.0
C268 C 0.35197 0.20947 0.4386 0.0
C269 C 0.38417 0.19884 0.39272 0.0
C270 C 0.40068 0.19426 0.37239 0.0
C271 C 0.39217 0.22027 0.41041 0.0
C272 C 0.41672 0.23717 0.40721 0.0
C273 C 0.43328 0.23265 0.38685 0.0
C274 C 0.42523 0.21111 0.36953 0.0
N275 N 0.37591 0.22606 0.43112 0.0
H276 H 0.32573 0.89412 0.40933 0.0
H277 H 0.37829 0.88683 0.34679 0.0
H278 H 0.37854 0.83773 0.40582 0.0
H279 H 0.37903 0.93425 0.35077 0.0
C280 C 0.35819 0.93467 0.35375 0.0
C281 C 0.34131 0.88515 0.39998 0.0
C282 C 0.35129 0.86532 0.41073 0.0
C283 C 0.35187 0.89403 0.37753 0.0
C284 C 0.37111 0.88132 0.36476 0.0
C285 C 0.38031 0.86058 0.37476 0.0
C286 C 0.3711 0.85348 0.39803 0.0
N287 N 0.34226 0.91517 0.36788 0.0
H288 H 0.65681 0.68728 0.22613 0.0
H289 H 0.71902 0.70555 0.17154 0.0
H290 H 0.6521 0.74428 0.17443 0.0
H291 H 0.73552 0.67346 0.18441 0.0
C292 C 0.72639 0.66742 0.20165 0.0
C293 C 0.66508 0.69794 0.21054 0.0
C294 C 0.65151 0.71608 0.20144 0.0
C295 C 0.68939 0.69367 0.19999 0.0
C296 C 0.70016 0.70794 0.17992 0.0
C297 C 0.6867 0.72608 0.1706 0.0
C298 C 0.66238 0.73009 0.18141 0.0
N299 N 0.70239 0.67536 0.21047 0.0
H300 H 0.38435 0.76441 0.15066 0.0
H301 H 0.3192 0.69708 0.1482 0.0
H302 H 0.38284 0.70017 0.19597 0.0
H303 H 0.29924 0.72681 0.13008 0.0
C304 C 0.31464 0.73958 0.12013 0.0
C305 C 0.37457 0.74526 0.15686 0.0
C306 C 0.38572 0.73412 0.17502 0.0
C307 C 0.35058 0.73229 0.14702 0.0
C308 C 0.3377 0.70742 0.15554 0.0
C309 C 0.34954 0.69528 0.173 0.0
C310 C 0.37359 0.70898 0.18242 0.0
N311 N 0.34098 0.74449 0.12796 0.0
H312 H 0.4253 0.34126 0.18903 0.0
H313 H 0.42373 0.40494 0.24631 0.0
H314 H 0.37274 0.39657 0.18598 0.0
H315 H 0.45397 0.32775 0.21027 0.0
C316 C 0.46134 0.34258 0.22484 0.0
C317 C 0.41784 0.35866 0.19706 0.0
C318 C 0.39796 0.3672 0.18505 0.0
C319 C 0.42772 0.3725 0.21905 0.0
C320 C 0.41678 0.39472 0.22914 0.0
C321 C 0.39692 0.40381 0.21747 0.0
C322 C 0.3881 0.39006 0.19513 0.0
N323 N 0.44847 0.36495 0.23158 0.0
H324 H 0.7281 0.37523 0.20097 0.0
H325 H 0.79843 0.43421 0.18974 0.0
H326 H 0.75246 0.43915 0.25655 0.0
H327 H 0.81097 0.39823 0.16707 0.0
C328 C 0.79318 0.39001 0.15733 0.0
C329 C 0.74201 0.3929 0.20747 0.0
C330 C 0.73774 0.40598 0.23052 0.0
C331 C 0.76426 0.40242 0.19286 0.0
C332 C 0.78176 0.4258 0.20115 0.0
C333 C 0.77757 0.43899 0.22404 0.0
C334 C 0.75573 0.4289 0.23885 0.0
N335 N 0.76808 0.38889 0.16956 0.0
H336 H 0.67104 0.32346 0.85602 0.0
H337 H 0.73445 0.39221 0.85854 0.0
H338 H 0.67435 0.38439 0.80641 0.0
H339 H 0.6837 0.31912 0.8942 0.0
C340 C 0.70475 0.32682 0.89405 0.0
C341 C 0.68064 0.34256 0.8497 0.0
C342 C 0.66994 0.35261 0.83041 0.0
C343 C 0.70399 0.35697 0.86007 0.0
C344 C 0.71635 0.38117 0.8508 0.0
C345 C 0.70561 0.39122 0.83164 0.0
C346 C 0.68249 0.37682 0.82144 0.0
N347 N 0.71637 0.34749 0.879 0.0
H348 H 0.7483 0.73032 0.91644 0.0
H349 H 0.75998 0.68159 0.85012 0.0
H350 H 0.80553 0.67858 0.91221 0.0
H351 H 0.73691 0.70835 0.8334 0.0
C352 C 0.72332 0.71442 0.84756 0.0
C353 C 0.7586 0.71604 0.90606 0.0
C354 C 0.77823 0.7061 0.91711 0.0
C355 C 0.75176 0.70758 0.88192 0.0
C356 C 0.7652 0.68888 0.86855 0.0
C357 C 0.78473 0.67832 0.87929 0.0
C358 C 0.79094 0.68692 0.90366 0.0
N359 N 0.73044 0.71725 0.87241 0.0
H360 H 0.39986 0.71879 0.83203 0.0
H361 H 0.45764 0.77977 0.86709 0.0
H362 H 0.4773 0.70306 0.84044 0.0
H363 H 0.42005 0.76619 0.89858 0.0
C364 C 0.40295 0.76555 0.88785 0.0
C365 C 0.41993 0.72578 0.83762 0.0
C366 C 0.43811 0.70861 0.83381 0.0
C367 C 0.42647 0.75052 0.851 0.0
C368 C 0.45258 0.75997 0.85753 0.0
C369 C 0.47149 0.74322 0.85368 0.0
C370 C 0.46366 0.71692 0.8425 0.0
N371 N 0.40571 0.76248 0.86207 0.0
H372 H 0.35524 0.40235 0.89714 0.0
H373 H 0.41312 0.38546 0.84208 0.0
H374 H 0.39195 0.33371 0.90015 0.0
H375 H 0.38217 0.40003 0.81787 0.0
C376 C 0.3811 0.41839 0.82936 0.0
C377 C 0.3688 0.38969 0.88949 0.0
C378 C 0.37321 0.36827 0.9022 0.0
C379 C 0.38248 0.39542 0.86736 0.0
C380 C 0.40113 0.37984 0.85815 0.0
C381 C 0.40424 0.35687 0.8693 0.0
C382 C 0.38971 0.35114 0.89115 0.0
N383 N 0.37789 0.41745 0.85506 0.0
Cu384 Cu 0.32138 0.29727 0.05358 0.0
N385 N 0.33095 0.32842 0.03657 0.0
N386 N 0.34347 0.34903 1.00237 0.0
C387 C 0.32517 0.33075 1.01339 0.0
C388 C 0.36082 0.35939 1.01964 0.0
C389 C 0.35304 0.34684 0.04056 0.0
O390 O 0.32159 0.26762 0.02734 0.0
C391 C 0.34425 0.31988 0.09761 0.0
O392 O 0.32598 0.33435 0.09634 0.0
H393 H 0.3095 0.31754 1.00394 0.0
H394 H 0.36437 0.34907 0.05664 0.0
N395 N 0.28771 0.29369 0.06892 0.0
N396 N 0.25536 0.28132 0.09647 0.0
C397 C 0.27987 0.27907 0.08807 0.0
C398 C 0.26732 0.30549 0.06499 0.0
C399 C 0.24726 0.29787 0.08205 0.0
C400 C 0.30289 0.2475 0.02297 0.0
O401 O 0.28321 0.24264 0.03896 0.0
H402 H 0.29206 0.2673 0.09595 0.0
H403 H 0.26727 0.31909 0.05108 0.0
O404 O 0.34632 0.30131 0.08053 0.0
H405 H 0.37894 0.37362 1.01676 0.0
H406 H 0.22848 0.30439 0.08407 0.0
Cu407 Cu 0.81198 0.30577 0.99903 0.0
N408 N 0.80976 0.33669 1.01981 0.0
N409 N 0.80442 0.36167 0.05453 0.0
C410 C 0.81272 0.33957 0.04404 0.0
C411 C 0.79627 0.37349 0.03633 0.0
C412 C 0.79962 0.35805 1.0149 0.0
O413 O 0.81149 0.27616 1.01952 0.0
C414 C 0.78084 0.31373 0.96095 0.0
O415 O 0.80091 0.33313 0.95694 0.0
H416 H 0.81933 0.32509 0.05412 0.0
H417 H 0.79352 0.36139 0.99726 0.0
N418 N 0.84292 0.31067 0.97911 0.0
N419 N 0.86871 0.31025 0.94523 0.0
C420 C 0.84444 0.30246 0.95529 0.0
C421 C 0.86738 0.32382 0.98443 0.0
C422 C 0.88346 0.32326 0.96359 0.0
C423 C 0.83123 0.27622 0.03234 0.0
O424 O 0.85222 0.29511 0.03037 0.0
H425 H 0.82791 0.29152 0.94528 0.0
H426 H 0.87299 0.33375 1.00203 0.0
O427 O 0.78143 0.29888 0.97822 0.0
H428 H 0.78734 0.39121 0.03858 0.0
H429 H 0.90401 0.33265 0.96179 0.0
Cu430 Cu 0.80895 0.7971 0.05271 0.0
N431 N 0.82098 0.8278 0.03558 0.0
N432 N 0.83722 0.85074 1.00353 0.0
C433 C 0.81958 0.82975 1.01147 0.0
C434 C 0.84988 0.86273 0.02346 0.0
C435 C 0.83979 0.84869 0.04309 0.0
O436 O 0.80995 0.76557 0.02888 0.0
C437 C 0.82633 0.81872 0.09887 0.0
O438 O 0.80853 0.83326 0.09589 0.0
H439 H 0.80773 0.8148 0.99946 0.0
H440 H 0.84735 0.85222 0.06115 0.0
N441 N 0.77429 0.79433 0.06537 0.0
N442 N 0.73972 0.78127 0.09033 0.0
C443 C 0.76419 0.77805 0.08281 0.0
C444 C 0.75542 0.80827 0.0616 0.0
C445 C 0.7339 0.80013 0.07703 0.0
C446 C 0.79251 0.76064 1.01267 0.0
O447 O 0.77406 0.77529 1.0141 0.0
H448 H 0.77491 0.76467 0.09039 0.0
H449 H 0.75744 0.8237 0.04905 0.0
O450 O 0.8305 0.80078 0.0819 0.0
H451 H 0.86639 0.87942 0.02349 0.0
H452 H 0.71582 0.80799 0.07891 0.0
Cu453 Cu 0.26157 0.79116 0.99333 0.0
N454 N 0.2272 0.77995 1.00447 0.0
N455 N 0.1995 0.78552 0.036 0.0
C456 C 0.21707 0.79765 1.01985 0.0
C457 C 0.19745 0.75889 0.02993 0.0
C458 C 0.21476 0.75547 1.01037 0.0
O459 O 0.28133 0.7938 0.02341 0.0
C460 C 0.2453 0.82096 0.96039 0.0
O461 O 0.23064 0.79711 0.95556 0.0
H462 H 0.22609 0.81876 0.02213 0.0
H463 H 0.22065 0.73675 1.0037 0.0
N464 N 0.27379 0.76775 0.96949 0.0
N465 N 0.30418 0.75617 0.94259 0.0
C466 C 0.29397 0.77655 0.95413 0.0
C467 C 0.2704 0.7407 0.96699 0.0
C468 C 0.28938 0.73349 0.95042 0.0
C469 C 0.29515 0.77641 0.02737 0.0
O470 O 0.30141 0.75993 1.00927 0.0
H471 H 0.30263 0.7976 0.9532 0.0
H472 H 0.25691 0.72736 0.97802 0.0
O473 O 0.26158 0.8241 0.97747 0.0
H474 H 0.18732 0.74327 0.04096 0.0
H475 H 0.29318 0.71338 0.94574 0.0
Cu476 Cu 1.0165 0.28466 0.28387 0.0
N477 N 0.03369 0.25568 0.27362 0.0
N478 N 0.06681 0.23754 0.25516 0.0
C479 C 0.06008 0.25705 0.27134 0.0
C480 C 0.04378 0.22296 0.24738 0.0
C481 C 0.02352 0.23405 0.25878 0.0
O482 O 0.04396 0.31619 0.29088 0.0
C483 C 0.97224 0.26971 0.25629 0.0
O484 O 0.96626 0.25286 0.27324 0.0
H485 H 0.07423 0.27338 0.27956 0.0
H486 H 1.003 0.22819 0.25458 0.0
N487 N 0.99463 0.28064 0.31212 0.0
N488 N 0.9643 0.28994 0.34039 0.0
C489 C 0.97796 0.29735 0.31987 0.0
C490 C 0.99138 0.26199 0.32836 0.0
C491 C 0.97261 0.26774 0.34593 0.0
C492 C 0.05703 0.31564 0.30966 0.0
O493 O 0.05055 0.29513 0.32298 0.0
H494 H 0.97577 0.31456 0.31056 0.0
H495 H 1.00183 0.2454 0.32744 0.0
O496 O 0.99355 0.2872 0.25755 0.0
H497 H 0.04183 0.20653 0.23323 0.0
H498 H 0.96553 0.2565 0.36144 0.0
Cu499 Cu 0.80308 0.0339 0.26949 0.0
N500 N 0.80769 0.0496 0.2399 0.0
N501 N 0.81944 0.08075 0.21344 0.0
C502 C 0.81835 0.07551 0.23697 0.0
C503 C 0.80911 0.05737 0.20099 0.0
C504 C 0.80185 0.0381 0.21743 0.0
O505 O 0.80643 0.06464 0.29476 0.0
C506 C 0.84559 1.00445 0.2551 0.0
O507 O 0.85831 0.02654 0.24609 0.0
H508 H 0.82534 0.09023 0.25174 0.0
H509 H 0.79311 0.01717 0.21331 0.0
N510 N 0.76888 1.01465 0.27303 0.0
N511 N 0.73589 0.98492 0.28788 0.0
C512 C 0.76208 0.9938 0.28686 0.0
C513 C 0.74617 0.01895 0.2648 0.0
C514 C 0.72563 1.00053 0.27405 0.0
C515 C 0.79271 0.06449 0.31476 0.0
O516 O 0.781 0.04133 0.32243 0.0
H517 H 0.77599 0.98586 0.29667 0.0
H518 H 0.74463 0.03483 0.25354 0.0
O519 O 0.82456 1.00543 0.26816 0.0
H520 H 0.80713 0.05448 0.18148 0.0
H521 H 0.70485 0.99909 0.27136 0.0
Cu522 Cu 0.06162 0.76663 0.31252 0.0
N523 N 0.02794 0.76252 0.29925 0.0
N524 N 0.99348 0.77366 0.28212 0.0
C525 C 1.01408 0.78215 0.29678 0.0
C526 C 0.99433 0.74767 0.27518 0.0
C527 C 1.01551 0.74092 0.28565 0.0
O528 O 0.06624 0.79282 0.34067 0.0
C529 C 0.08734 0.8042 0.28177 0.0
O530 O 0.07028 0.8184 0.29184 0.0
H531 H 0.01988 0.80271 0.30431 0.0
H532 H 0.02226 0.722 0.28239 0.0
N533 N 0.07157 0.73476 0.32037 0.0
N534 N 0.09791 0.70744 0.33026 0.0
C535 C 0.09628 0.73268 0.32557 0.0
C536 C 0.05707 0.70991 0.32194 0.0
C537 C 0.07328 0.69303 0.32802 0.0
C538 C 0.04928 0.79638 0.35762 0.0
O539 O 0.05587 0.81492 0.37554 0.0
H540 H 0.11283 0.74934 0.32574 0.0
H541 H 0.03617 0.70447 0.31905 0.0
O542 O 0.08701 0.78077 0.288 0.0
H543 H 0.98108 0.73478 0.2627 0.0
H544 H 0.0675 0.67182 0.33057 0.0
Cu545 Cu 0.3039 0.04966 0.27302 0.0
N546 N 0.33637 0.07398 0.28233 0.0
N547 N 0.36404 0.10677 0.30198 0.0
C548 C 0.33876 0.09434 0.29992 0.0
C549 C 0.37812 0.09391 0.28513 0.0
C550 C 0.36087 0.07356 0.27291 0.0
O551 O 0.29257 0.07966 0.25645 0.0
C552 C 0.31969 0.02005 0.31137 0.0
O553 O 0.31664 0.04155 0.32557 0.0
H554 H 0.32246 0.09973 0.31119 0.0
H555 H 0.36579 0.05932 0.2584 0.0
N556 N 0.27142 0.02552 0.26375 0.0
N557 N 0.24349 0.99189 0.24542 0.0
C558 C 0.26852 1.00555 0.24577 0.0
C559 C 0.24755 0.02458 0.27499 0.0
C560 C 0.23018 1.00374 0.26364 0.0
C561 C 0.27878 0.09557 0.2676 0.0
O562 O 0.27187 0.09319 0.29064 0.0
H563 H 0.28446 1.00058 0.23375 0.0
H564 H 0.24328 0.03777 0.29062 0.0
O565 O 0.31533 0.01904 0.2888 0.0
H566 H 0.39928 0.09879 0.2821 0.0
H567 H 0.20957 0.99729 0.26866 0.0
Cu568 Cu 0.02068 0.78996 0.76502 0.0
N569 N 0.04089 0.7626 0.76 0.0
N570 N 0.07489 0.74365 0.7453 0.0
C571 C 0.06133 0.76351 0.74356 0.0
C572 C 0.06257 0.72948 0.76343 0.0
C573 C 0.0416 0.74125 0.77252 0.0
O574 O 0.04701 0.82268 0.76985 0.0
C575 C 0.98148 0.76478 0.73526 0.0
O576 O 0.9824 0.74614 0.74993 0.0
H577 H 0.06678 0.77908 0.73115 0.0
H578 H 0.02863 0.73525 0.78783 0.0
N579 N 0.99769 0.7896 0.79271 0.0
N580 N 0.96782 0.80428 0.81887 0.0
C581 C 0.98559 0.81035 0.80046 0.0
C582 C 0.98702 0.76966 0.80672 0.0
C583 C 0.96861 0.77871 0.82294 0.0
C584 C 0.06061 0.82255 0.78838 0.0
O585 O 0.05458 0.80235 0.80211 0.0
H586 H 0.989 0.82921 0.79211 0.0
H587 H 0.99131 0.74959 0.80467 0.0
O588 O 0.99799 0.78692 0.73751 0.0
H589 H 0.06887 0.7125 0.77016 0.0
H590 H 0.9561 0.76717 0.83607 0.0
Cu591 Cu 0.32401 0.05843 0.7743 0.0
N592 N 0.33529 0.08144 0.74926 0.0
N593 N 0.3406 0.11459 0.72425 0.0
C594 C 0.32478 0.10145 0.74145 0.0
C595 C 0.36149 0.10225 0.72097 0.0
C596 C 0.35816 0.08196 0.7363 0.0
O597 O 0.32203 0.07918 0.80654 0.0
C598 C 0.36593 0.02361 0.77012 0.0
O599 O 0.38415 0.04408 0.77748 0.0
H600 H 0.30645 0.10683 0.74867 0.0
H601 H 0.37189 0.0689 0.73834 0.0
N602 N 0.28923 0.04122 0.7711 0.0
N603 N 0.25338 1.01133 0.78002 0.0
C604 C 0.27937 0.01927 0.78281 0.0
C605 C 0.26868 0.0475 0.76046 0.0
C606 C 0.24633 0.02885 0.76595 0.0
C607 C 0.33085 0.1044 0.81078 0.0
O608 O 0.34777 0.11672 0.795 0.0
H609 H 0.29094 1.00969 0.79379 0.0
H610 H 0.2697 0.06469 0.75009 0.0
O611 O 0.34207 0.02681 0.7695 0.0
H612 H 0.37831 0.10802 0.70875 0.0
H613 H 0.22649 0.02847 0.76053 0.0
Cu614 Cu 0.07128 0.29614 0.84099 0.0
N615 N 0.04198 0.29329 0.82129 0.0
N616 N 1.01055 0.30719 0.80199 0.0
C617 C 0.02419 0.30985 0.8226 0.0
C618 C 0.02018 0.28845 0.78718 0.0
C619 C 0.03951 0.28008 0.799 0.0
O620 O 0.06461 0.30556 0.87562 0.0
C621 C 0.1156 0.33894 0.83953 0.0
O622 O 0.11934 0.33485 0.86208 0.0
H623 H 0.02274 0.32503 0.83746 0.0
H624 H 0.05241 0.26698 0.79099 0.0
N625 N 0.08821 0.266 0.83791 0.0
N626 N 0.11835 0.24067 0.84279 0.0
C627 C 0.11094 0.26471 0.84833 0.0
C628 C 0.08111 0.24181 0.82544 0.0
C629 C 0.09963 0.22619 0.82843 0.0
C630 C 0.04379 0.30135 0.88931 0.0
O631 O 0.04567 0.30873 0.91267 0.0
H632 H 0.1219 0.28106 0.85971 0.0
H633 H 0.06352 0.23569 0.81515 0.0
O634 O 0.0963 0.32501 0.82823 0.0
H635 H 1.01468 0.28246 0.76857 0.0
H636 H 0.0994 0.20578 0.82069 0.0
Cu637 Cu 0.81811 0.05344 0.7659 0.0
N638 N 0.85145 0.07465 0.76883 0.0
N639 N 0.88157 0.10958 0.78217 0.0
C640 C 0.85576 0.09896 0.78131 0.0
C641 C 0.89422 0.09134 0.7698 0.0
C642 C 0.87545 0.06968 0.76146 0.0
O643 O 0.79429 0.07937 0.76642 0.0
C644 C 0.82838 1.01047 0.78787 0.0
O645 O 0.84442 1.01071 0.76861 0.0
H646 H 0.84026 0.10857 0.78994 0.0
H647 H 0.87908 0.05156 0.75106 0.0
N648 N 0.81464 0.03251 0.73637 0.0
N649 N 0.7948 1.0004 0.70991 0.0
C650 C 0.79509 1.01121 0.73298 0.0
C651 C 0.82758 0.03514 0.7146 0.0
C652 C 0.81516 0.01519 0.69802 0.0
C653 C 0.773 0.07551 0.75498 0.0
O654 O 0.76254 0.05112 0.74632 0.0
H655 H 0.78037 1.00462 0.74694 0.0
H656 H 0.84407 0.05102 0.71085 0.0
O657 O 0.81358 0.02807 0.79118 0.0
H658 H 0.91538 0.09356 0.7671 0.0
H659 H 0.8199 1.01247 0.67874 0.0
Cu660 Cu 0.30654 0.7983 0.54658 0.0
N661 N 0.33347 0.81724 0.56741 0.0
N662 N 0.35325 0.83855 0.6011 0.0
C663 C 0.33517 0.81745 0.59192 0.0
C664 C 0.36317 0.85204 0.58183 0.0
C665 C 0.35097 0.83917 0.56139 0.0
O666 O 0.27363 0.79248 0.56639 0.0
C667 C 0.32671 0.82134 0.50389 0.0
O668 O 0.3469 0.81121 0.5094 0.0
H669 H 0.32242 0.80352 0.60302 0.0
H670 H 0.35343 0.84682 0.5437 0.0
N671 N 0.31069 0.7644 0.53118 0.0
N672 N 0.30219 0.73259 0.49991 0.0
C673 C 0.29205 0.74923 0.51689 0.0
C674 C 0.33321 0.75599 0.5238 0.0
C675 C 0.32804 0.73651 0.50456 0.0
C676 C 0.27126 0.77417 0.58112 0.0
O677 O 0.28992 0.75996 0.5812 0.0
H678 H 0.27197 0.75249 0.51721 0.0
H679 H 0.35249 0.76547 0.53001 0.0
O680 O 0.30636 0.81942 0.51842 0.0
H681 H 0.37746 0.87066 0.5827 0.0
H682 H 0.34255 0.72748 0.49355 0.0
Cu683 Cu 0.77059 0.82617 0.53135 0.0
N684 N 0.80353 0.83457 0.51578 0.0
N685 N 0.83833 0.82702 0.49266 0.0
C686 C 0.81535 0.81593 0.50324 0.0
C687 C 0.84127 0.85374 0.49854 0.0
C688 C 0.81954 0.85839 0.51284 0.0
O689 O 0.74494 0.82442 0.50642 0.0
C690 C 0.789 0.79416 0.56086 0.0
O691 O 0.8061 0.81674 0.5642 0.0
H692 H 0.80704 0.79465 0.50154 0.0
H693 H 0.81547 0.87775 0.52009 0.0
N694 N 0.76468 0.85195 0.5563 0.0
N695 N 0.7429 0.8716 0.58646 0.0
C696 C 0.74126 0.85211 0.56808 0.0
C697 C 0.78175 0.87199 0.56777 0.0
C698 C 0.76823 0.88432 0.58645 0.0
C699 C 0.74469 0.84665 0.49754 0.0
O700 O 0.75984 0.86865 0.5067 0.0
H701 H 0.72345 0.83788 0.56357 0.0
H702 H 0.80264 0.87681 0.56338 0.0
O703 O 0.77019 0.79299 0.5466 0.0
H704 H 0.85765 0.86866 0.49259 0.0
H705 H 0.77635 0.90085 0.59927 0.0
Cu706 Cu 0.80135 0.28372 0.55379 0.0
N707 N 0.8022 0.2536 0.53105 0.0
N708 N 0.79396 0.22868 0.49559 0.0
C709 C 0.78791 0.24916 0.51082 0.0
C710 C 0.81259 0.21949 0.5067 0.0
C711 C 0.81764 0.23489 0.5286 0.0
O712 O 0.80342 0.31268 0.53239 0.0
C713 C 0.76954 0.25576 0.58786 0.0
O714 O 0.78984 0.24356 0.58602 0.0
H715 H 0.7739 0.2613 0.50694 0.0
H716 H 0.83214 0.23308 0.54135 0.0
N717 N 0.82934 0.2939 0.57552 0.0
N718 N 0.85165 0.31502 0.6078 0.0
C719 C 0.8293 0.31171 0.59538 0.0
C720 C 0.85271 0.28589 0.57535 0.0
C721 C 0.86645 0.29884 0.59522 0.0
C722 C 0.82373 0.31466 0.5179 0.0
O723 O 0.8415 0.30007 0.52087 0.0
H724 H 0.81314 0.322 0.60071 0.0
H725 H 0.85939 0.27172 0.56175 0.0
O726 O 0.76939 0.2749 0.57445 0.0
H727 H 0.82238 0.20339 0.49916 0.0
H728 H 0.88581 0.29656 0.60009 0.0
Cu729 Cu 0.26889 0.32709 0.54048 0.0
N730 N 0.24215 0.32855 0.56443 0.0
N731 N 0.22057 0.34313 0.59749 0.0
C732 C 0.24245 0.34773 0.58298 0.0
C733 C 0.20552 0.32054 0.58755 0.0
C734 C 0.2189 0.31162 0.56698 0.0
O735 O 0.30152 0.34899 0.55264 0.0
C736 C 0.24747 0.32813 0.49365 0.0
O737 O 0.24157 0.30188 0.49423 0.0
H738 H 0.25832 0.36482 0.58578 0.0
H739 H 0.21223 0.29395 0.55485 0.0
N740 N 0.27421 0.29199 0.53247 0.0
N741 N 0.28952 0.25764 0.5125 0.0
C742 C 0.29046 0.28441 0.5144 0.0
C743 C 0.26274 0.2692 0.54243 0.0
C744 C 0.272 0.24783 0.52992 0.0
C745 C 0.31832 0.34453 0.56713 0.0
O746 O 0.33902 0.3634 0.57169 0.0
H747 H 0.30242 0.29817 0.50259 0.0
H748 H 0.24855 0.26813 0.55759 0.0
O749 O 0.25911 0.34236 0.51156 0.0
H750 H 0.18658 0.31099 0.59492 0.0
H751 H 0.2664 0.22682 0.53328 0.0
Cu752 Cu 0.82225 0.55078 0.78333 0.0
N753 N 0.81118 0.56055 0.75444 0.0
N754 N 0.81189 0.5869 0.7242 0.0
C755 C 0.82042 0.58489 0.74635 0.0
C756 C 0.79658 0.5629 0.71786 0.0
C757 C 0.79623 0.54654 0.73665 0.0
O758 O 0.82746 0.58624 0.80268 0.0
C759 C 0.85255 0.50811 0.78034 0.0
O760 O 0.83884 0.50088 0.8001 0.0
H761 H 0.83391 0.60065 0.75619 0.0
H762 H 0.7865 0.52575 0.73693 0.0
N763 N 0.79542 0.52788 0.79982 0.0
N764 N 0.76559 0.49237 0.81008 0.0
C765 C 0.77844 0.50563 0.79153 0.0
C766 C 0.79251 0.52852 0.82427 0.0
C767 C 0.77417 0.50685 0.8306 0.0
C768 C 0.8321 0.59334 0.82502 0.0
O769 O 0.84247 0.57785 0.83787 0.0
H770 H 0.77639 0.49856 0.77257 0.0
H771 H 0.80369 0.54304 0.83692 0.0
O772 O 0.85095 0.53063 0.77244 0.0
H773 H 0.78699 0.55746 0.70073 0.0
H774 H 0.76843 0.50135 0.84887 0.0
Cu775 Cu 0.33913 0.57349 0.77218 0.0
N776 N 0.35806 0.5454 0.76749 0.0
N777 N 0.37154 0.50865 0.7771 0.0
C778 C 0.35989 0.52947 0.78523 0.0
C779 C 0.3775 0.5115 0.7533 0.0
C780 C 0.36907 0.53428 0.74736 0.0
O781 O 0.30502 0.55628 0.78476 0.0
C782 C 0.38291 0.60962 0.78714 0.0
O783 O 0.3931 0.59718 0.76809 0.0
H784 H 0.3519 0.53251 0.80358 0.0
H785 H 0.36985 0.54147 0.72949 0.0
N786 N 0.33285 0.58914 0.74423 0.0
N787 N 0.31299 0.61258 0.72125 0.0
C788 C 0.31162 0.6004 0.74202 0.0
C789 C 0.34827 0.59458 0.72416 0.0
C790 C 0.33596 0.60905 0.70987 0.0
C791 C 0.29356 0.53829 0.76927 0.0
O792 O 0.30469 0.53509 0.74751 0.0
H793 H 0.29582 0.60035 0.75572 0.0
H794 H 0.36741 0.58918 0.72055 0.0
O795 O 0.35877 0.60191 0.79342 0.0
H796 H 0.38621 0.49751 0.74095 0.0
H797 H 0.34348 0.61685 0.69276 0.0
Cu798 Cu 0.31872 0.53652 0.2625 0.0
N799 N 0.28684 0.51189 0.26234 0.0
N800 N 0.25495 0.48103 0.27761 0.0
C801 C 0.27517 0.50144 0.28265 0.0
C802 C 0.25349 0.47863 0.25318 0.0
C803 C 0.27326 0.4978 0.24376 0.0
O804 O 0.34677 0.51391 0.25779 0.0
C805 C 0.32356 0.58441 0.29851 0.0
O806 O 0.34312 0.59649 0.28496 0.0
H807 H 0.28247 0.5075 0.30069 0.0
H808 H 0.27832 0.50022 0.22473 0.0
N809 N 0.32358 0.55734 0.23526 0.0
N810 N 0.32822 0.59143 0.21111 0.0
C811 C 0.31558 0.58035 0.23104 0.0
C812 C 0.34125 0.55363 0.21703 0.0
C813 C 0.34421 0.57446 0.20231 0.0
C814 C 0.34426 0.48987 0.2641 0.0
O815 O 0.32504 0.48121 0.27959 0.0
H816 H 0.30173 0.58939 0.24281 0.0
H817 H 0.35239 0.53755 0.21531 0.0
O818 O 0.31409 0.55954 0.29311 0.0
H819 H 0.24002 0.46328 0.2429 0.0
H820 H 0.35798 0.57759 0.18688 0.0
Cu821 Cu 0.82389 0.56077 0.28221 0.0
N822 N 0.81431 0.53119 0.30091 0.0
N823 N 0.81649 0.49511 0.32037 0.0
C824 C 0.82976 0.5143 0.30664 0.0
C825 C 0.79195 0.50034 0.3239 0.0
C826 C 0.7907 0.52269 0.31196 0.0
O827 O 0.85268 0.55544 0.25902 0.0
C828 C 0.85208 0.61261 0.29507 0.0
O829 O 0.85711 0.61262 0.27151 0.0
H830 H 0.85035 0.51621 0.30114 0.0
H831 H 0.77375 0.53216 0.31149 0.0
N832 N 0.79476 0.56745 0.26655 0.0
N833 N 0.76832 0.58845 0.2479 0.0
C834 C 0.79213 0.59051 0.25745 0.0
C835 C 0.77179 0.55036 0.26248 0.0
C836 C 0.75546 0.56325 0.25095 0.0
C837 C 0.85529 0.53509 0.24441 0.0
O838 O 0.87711 0.53586 0.23094 0.0
H839 H 0.80726 0.60843 0.25776 0.0
H840 H 0.76731 0.52979 0.26726 0.0
O841 O 0.83753 0.59222 0.30368 0.0
H842 H 0.77612 0.48872 0.33424 0.0
H843 H 0.73576 0.5548 0.24511 0.0
Cu844 Cu 0.52564 0.27266 0.76981 0.0
N845 N 0.50651 0.27328 0.80004 0.0
N846 N 0.47988 0.29254 0.82703 0.0
C847 C 0.48279 0.2808 0.80417 0.0
C848 C 0.50235 0.29157 0.83779 0.0
C849 C 0.5183 0.27943 0.82149 0.0
O850 O 0.50506 0.28278 0.74486 0.0
C851 C 0.57593 0.29029 0.7878 0.0
O852 O 0.57134 0.26573 0.79471 0.0
H853 H 0.46906 0.28024 0.79004 0.0
H854 H 0.53839 0.27833 0.82456 0.0
N855 N 0.53542 0.24005 0.75734 0.0
N856 N 0.56117 0.21592 0.73424 0.0
C857 C 0.55899 0.23998 0.74581 0.0
C858 C 0.52165 0.21495 0.7525 0.0
C859 C 0.53741 0.2001 0.73802 0.0
C860 C 0.48349 0.26674 0.74016 0.0
O861 O 0.47613 0.2457 0.75267 0.0
H862 H 0.5738 0.25791 0.74457 0.0
H863 H 0.50131 0.20814 0.75809 0.0
O864 O 0.55887 0.29785 0.77552 0.0
H865 H 0.50782 0.3009 0.85566 0.0
H866 H 0.53167 0.17949 0.73047 0.0
Cu867 Cu 0.58545 0.80717 0.8304 0.0
N868 N 0.60125 0.77758 0.81865 0.0
N869 N 0.63135 0.75088 0.81765 0.0
C870 C 0.62308 0.77284 0.82854 0.0
C871 C 0.61435 0.74147 0.79982 0.0
C872 C 0.59588 0.75813 0.80034 0.0
O873 O 0.6063 0.8369 0.81441 0.0
C874 C 0.5755 0.7972 0.88247 0.0
O875 O 0.58443 0.80041 0.90454 0.0
H876 H 0.63258 0.78514 0.84377 0.0
H877 H 0.57969 0.7561 0.78835 0.0
N878 N 0.55003 0.80826 0.82376 0.0
N879 N 0.51522 0.81875 0.80656 0.0
C880 C 0.5387 0.81039 0.8026 0.0
C881 C 0.53354 0.81686 0.84117 0.0
C882 C 0.51205 0.82253 0.83084 0.0
C883 C 0.63047 0.84654 0.81769 0.0
O884 O 0.6422 0.83963 0.83591 0.0
H885 H 0.54843 0.80821 0.78486 0.0
H886 H 0.53832 0.82219 0.85993 0.0
O887 O 0.58962 0.80971 0.86574 0.0
H888 H 0.61529 0.72394 0.78731 0.0
H889 H 0.4966 0.83157 0.84033 0.0
Cu890 Cu 0.50526 0.78306 0.2735 0.0
N891 N 0.47865 0.78056 0.29805 0.0
N892 N 0.44799 0.79432 0.32361 0.0
C893 C 0.46755 0.80153 0.30703 0.0
C894 C 0.44655 0.76775 0.32515 0.0
C895 C 0.46553 0.75925 0.30926 0.0
O896 O 0.48799 0.78714 0.24407 0.0
C897 C 0.54102 0.81088 0.30583 0.0
O898 O 0.52761 0.79283 0.31954 0.0
H899 H 0.47339 0.82164 0.3012 0.0
H900 H 0.46909 0.73893 0.30576 0.0
N901 N 0.52188 0.75335 0.26746 0.0
N902 N 0.55493 0.73344 0.25216 0.0
C903 C 0.53956 0.75132 0.2488 0.0
C904 C 0.52586 0.7357 0.28293 0.0
C905 C 0.54629 0.72336 0.27349 0.0
C906 C 0.47194 0.76602 0.23661 0.0
O907 O 0.46989 0.74416 0.24804 0.0
H908 H 0.54298 0.76474 0.23438 0.0
H909 H 0.51652 0.7339 0.30085 0.0
O910 O 0.53366 0.81196 0.28434 0.0
H911 H 0.43248 0.75538 0.33658 0.0
H912 H 0.5554 0.70961 0.28242 0.0
Cu913 Cu 0.58618 0.30703 0.30605 0.0
N914 N 0.56682 0.30746 0.3355 0.0
N915 N 0.53346 0.29535 0.36181 0.0
C916 C 0.54313 0.29174 0.33892 0.0
C917 C 0.55168 0.31396 0.37351 0.0
C918 C 0.57246 0.32139 0.35713 0.0
O919 O 0.56006 0.30503 0.28061 0.0
C920 C 0.62534 0.28242 0.32201 0.0
O921 O 0.62994 0.30572 0.33497 0.0
H922 H 0.53323 0.27769 0.32494 0.0
H923 H 0.59042 0.33569 0.36081 0.0
N924 N 0.61054 0.33891 0.30304 0.0
N925 N 0.64543 0.36693 0.28892 0.0
C926 C 0.63161 0.34159 0.2874 0.0
C927 C 0.61105 0.36348 0.31474 0.0
C928 C 0.63269 0.38089 0.30603 0.0
C929 C 0.54643 0.32381 0.28252 0.0
O930 O 0.55092 0.34271 0.30049 0.0
H931 H 0.63661 0.32534 0.27503 0.0
H932 H 0.59657 0.36847 0.3284 0.0
O933 O 0.60678 0.27795 0.30685 0.0
H934 H 0.55008 0.32145 0.39242 0.0
H935 H 0.63851 0.40211 0.31157 0.0
C936 C 0.23468 0.27138 0.16213 0.0
C937 C 0.21674 0.2464 0.15955 0.0
C938 C 0.22446 0.24464 0.11509 0.0
C939 C 0.24165 0.26992 0.11767 0.0
N940 N 0.26123 0.30904 0.14255 0.0
N941 N 0.19208 0.21049 0.13384 0.0
C942 C 0.24619 0.28377 0.14094 0.0
C943 C 0.21085 0.23342 0.13605 0.0
N944 N 0.24111 0.28292 0.18489 0.0
N945 N 0.22189 0.23113 0.09254 0.0
H946 H 0.18236 0.20134 0.1488 0.0
H947 H 0.1849 0.20132 0.11732 0.0
H948 H 0.23126 0.23929 0.07697 0.0
H949 H 0.21185 0.21144 0.08928 0.0
H950 H 0.25614 0.29944 0.18827 0.0
H951 H 0.2322 0.27512 0.20076 0.0
H952 H 0.26361 0.32163 0.15855 0.0
H953 H 0.27029 0.31818 0.12733 0.0
C954 C 0.8197 0.24149 0.09133 0.0
C955 C 0.84097 0.22736 0.08908 0.0
C956 C 0.84979 0.23892 0.04685 0.0
C957 C 0.83101 0.25603 0.05021 0.0
N958 N 0.79765 0.27383 0.07533 0.0
N959 N 0.87729 0.21336 0.06539 0.0
C960 C 0.81556 0.25711 0.07226 0.0
C961 C 0.85608 0.22595 0.06689 0.0
N962 N 0.80303 0.23932 0.11145 0.0
N963 N 0.86125 0.23479 0.02425 0.0
H964 H 0.88242 0.20346 0.07957 0.0
H965 H 0.89096 0.21427 0.05079 0.0
H966 H 0.85673 0.24381 1.00923 0.0
H967 H 0.87324 0.22064 1.01981 0.0
H968 H 0.78558 0.24678 0.11326 0.0
H969 H 0.80555 0.22811 0.12573 0.0
H970 H 0.78852 0.27863 0.09199 0.0
H971 H 0.7925 0.28379 0.06123 0.0
C972 C 0.87589 0.85246 0.14576 0.0
C973 C 0.861 0.84711 0.16779 0.0
C974 C 0.82565 0.81803 0.14444 0.0
C975 C 0.84032 0.82372 0.12237 0.0
N976 N 0.88155 0.84121 0.1022 0.0
N977 N 0.82427 0.82093 0.18871 0.0
C978 C 0.86621 0.83922 0.12314 0.0
C979 C 0.83667 0.8286 0.16728 0.0
N980 N 0.89884 0.87099 0.14641 0.0
N981 N 0.8008 0.80294 0.14343 0.0
H982 H 0.83145 0.82875 0.20567 0.0
H983 H 0.8079 0.80555 0.18985 0.0
H984 H 0.79301 0.79329 0.12724 0.0
H985 H 0.78757 0.80062 0.15831 0.0
H986 H 0.90922 0.87824 0.13099 0.0
H987 H 0.90681 0.88052 0.16259 0.0
H988 H 0.90138 0.85018 0.10157 0.0
H989 H 0.87502 0.8316 0.08555 0.0
C990 C 0.1688 0.82602 0.08593 0.0
C991 C 0.19077 0.83445 0.10093 0.0
C992 C 0.21525 0.80421 0.0763 0.0
C993 C 0.19462 0.79831 0.05968 0.0
N994 N 0.15251 0.80373 0.04736 0.0
N995 N 0.23546 0.83317 0.11018 0.0
C996 C 0.17142 0.80903 0.06431 0.0
C997 C 0.21415 0.82392 0.0961 0.0
N998 N 0.14558 0.83437 0.09233 0.0
N999 N 0.23581 0.79074 0.07304 0.0
H1000 H 0.23507 0.84689 0.12542 0.0
H1001 H 0.25405 0.82863 0.10601 0.0
H1002 H 0.23718 0.77627 0.05862 0.0
H1003 H 0.25036 0.7921 0.08558 0.0
H1004 H 0.1281 0.8269 0.08355 0.0
H1005 H 0.14337 0.84781 0.10744 0.0
H1006 H 0.13626 0.8131 0.04802 0.0
H1007 H 0.15386 0.79062 0.03182 0.0
C1008 C 0.24276 0.85582 0.90274 0.0
C1009 C 0.22746 0.87532 0.91148 0.0
C1010 C 0.23153 0.86457 0.95353 0.0
C1011 C 0.2435 0.84255 0.94441 0.0
N1012 N 0.26105 0.81704 0.91053 0.0
N1013 N 0.20644 0.89824 0.94492 0.0
C1014 C 0.24943 0.83829 0.91905 0.0
C1015 C 0.22202 0.88005 0.93687 0.0
N1016 N 0.25172 0.85475 0.87896 0.0
N1017 N 0.22893 0.87041 0.97809 0.0
H1018 H 0.19924 0.90998 0.93336 0.0
H1019 H 0.19914 0.9006 0.96276 0.0
H1020 H 0.23492 0.85901 0.99069 0.0
H1021 H 0.22277 0.88764 0.98609 0.0
H1022 H 0.26516 0.84294 0.87187 0.0
H1023 H 0.24752 0.86753 0.86663 0.0
H1024 H 0.26266 0.81042 0.8922 0.0
H1025 H 0.26827 0.80521 0.92199 0.0
C1026 C 0.29404 0.19411 0.96834 0.0
C1027 C 0.28819 0.20946 0.94972 0.0
C1028 C 0.29059 0.24871 0.97965 0.0
C1029 C 0.29929 0.23449 0.99752 0.0
N1030 N 0.31294 0.19442 1.00778 0.0
N1031 N 0.28885 0.25365 0.93676 0.0
C1032 C 0.30231 0.20743 0.99145 0.0
C1033 C 0.2892 0.23753 0.95511 0.0
N1034 N 0.29014 0.16672 0.96464 0.0
N1035 N 0.28158 0.27197 0.98634 0.0
H1036 H 0.28908 0.24644 0.91845 0.0
H1037 H 0.29119 0.27452 0.93969 0.0
H1038 H 0.2798 0.2794 1.00448 0.0
H1039 H 0.27287 0.28192 0.9743 0.0
H1040 H 0.29141 0.15434 0.97834 0.0
H1041 H 0.28334 0.15615 0.94847 0.0
H1042 H 0.31806 0.17562 1.00362 0.0
H1043 H 0.31863 0.2035 0.02487 0.0
C1044 C 0.86899 0.279 0.8812 0.0
C1045 C 0.88088 0.30128 0.8681 0.0
C1046 C 0.88527 0.33 0.9064 0.0
C1047 C 0.87579 0.30718 0.91957 0.0
N1048 N 0.86579 0.25902 0.91959 0.0
N1049 N 0.90648 0.34633 0.8691 0.0
C1050 C 0.87014 0.28134 0.90693 0.0
C1051 C 0.8911 0.32623 0.88101 0.0
N1052 N 0.85467 0.25646 0.86958 0.0
N1053 N 0.88683 0.35535 0.91755 0.0
H1054 H 0.91154 0.34415 0.85056 0.0
H1055 H 0.91638 0.364 0.87812 0.0
H1056 H 0.88097 0.35918 0.93566 0.0
H1057 H 0.8912 0.37256 0.9081 0.0
H1058 H 0.84385 0.24074 0.87884 0.0
H1059 H 0.85095 0.25477 0.85113 0.0
H1060 H 0.86371 0.23956 0.91113 0.0
H1061 H 0.86718 0.26026 0.93845 0.0
C1062 C 0.85285 0.84119 0.93606 0.0
C1063 C 0.85985 0.86823 0.92991 0.0
C1064 C 0.84746 0.88324 0.9718 0.0
C1065 C 0.84444 0.85658 0.9786 0.0
N1066 N 0.85351 0.81205 0.96783 0.0
N1067 N 0.87027 0.91533 0.94457 0.0
C1068 C 0.84968 0.836 0.96092 0.0
C1069 C 0.85899 0.88945 0.94854 0.0
N1070 N 0.8483 0.82039 0.91838 0.0
N1071 N 0.83868 0.9025 0.98723 0.0
H1072 H 0.8806 0.92055 0.92845 0.0
H1073 H 0.87197 0.93101 0.95832 0.0
H1074 H 0.82896 0.89828 1.00386 0.0
H1075 H 0.83848 0.92174 0.98226 0.0
H1076 H 0.84118 0.80059 0.92238 0.0
H1077 H 0.84864 0.82327 0.89992 0.0
H1078 H 0.85988 0.79758 0.95552 0.0
H1079 H 0.854 0.80837 0.98601 0.0
C1080 C 0.12412 0.20616 0.22963 0.0
C1081 C 0.14316 0.22914 0.22393 0.0
C1082 C 0.11012 0.25728 0.23576 0.0
C1083 C 0.09285 0.235 0.24512 0.0
N1084 N 0.08655 0.18923 0.25561 0.0
N1085 N 0.15553 0.27771 0.22758 0.0
C1086 C 0.10081 0.20971 0.24343 0.0
C1087 C 0.13656 0.25509 0.22877 0.0
N1088 N 0.1276 0.18095 0.221 0.0
N1089 N 0.101 0.27998 0.23207 0.0
H1090 H 0.17537 0.27708 0.22375 0.0
H1091 H 0.15189 0.2969 0.23305 0.0
H1092 H 0.08123 0.28147 0.2348 0.0
H1093 H 0.11239 0.29589 0.22344 0.0
H1094 H 0.11317 0.16383 0.223 0.0
H1095 H 0.14348 0.17748 0.20947 0.0
H1096 H 0.09278 0.17106 0.25665 0.0
H1097 H 0.07013 0.19157 0.26685 0.0
C1098 C 0.86532 0.13547 0.18232 0.0
C1099 C 0.85127 0.15697 0.18688 0.0
C1100 C 0.81482 0.12684 0.20637 0.0
C1101 C 0.82987 0.10618 0.20375 0.0
N1102 N 0.8703 0.0911 0.19206 0.0
N1103 N 0.81402 0.17436 0.20554 0.0
C1104 C 0.85534 0.11054 0.19238 0.0
C1105 C 0.8263 0.15297 0.19946 0.0
N1106 N 0.8879 0.13876 0.16794 0.0
N1107 N 0.7893 0.12113 0.21504 0.0
H1108 H 0.82167 0.19369 0.20053 0.0
H1109 H 0.79722 0.17346 0.21694 0.0
H1110 H 0.7806 0.10215 0.22032 0.0
H1111 H 0.7762 0.13434 0.21525 0.0
H1112 H 0.89768 0.12314 0.16189 0.0
H1113 H 0.89584 0.15678 0.16043 0.0
H1114 H 0.89009 0.09386 0.1864 0.0
H1115 H 0.86337 0.07266 0.19924 0.0
C1116 C 0.92931 0.79247 0.26697 0.0
C1117 C 0.93844 0.81451 0.25262 0.0
C1118 C 0.98428 0.81095 0.25934 0.0
C1119 C 0.97518 0.78908 0.27385 0.0
N1120 N 0.93952 0.76225 0.29522 0.0
N1121 N 0.97457 0.84753 0.23826 0.0
C1122 C 0.94777 0.78084 0.27873 0.0
C1123 C 0.9659 0.82481 0.25006 0.0
N1124 N 0.90289 0.78247 0.26917 0.0
N1125 N 1.01043 0.81723 0.2529 0.0
H1126 H 0.96217 0.85705 0.22944 0.0
H1127 H 0.99392 0.85805 0.23849 0.0
H1128 H 0.02432 0.80755 0.25917 0.0
H1129 H 1.01822 0.83049 0.23995 0.0
H1130 H 0.89495 0.76446 0.27661 0.0
H1131 H 0.88867 0.79173 0.26266 0.0
H1132 H 0.92009 0.7569 0.30158 0.0
H1133 H 0.95262 0.75377 0.30427 0.0
C1134 C 0.2285 0.91954 0.22016 0.0
C1135 C 0.20741 0.92039 0.20515 0.0
C1136 C 0.2151 0.96951 0.21242 0.0
C1137 C 0.23321 0.96807 0.23025 0.0
N1138 N 0.2557 0.94193 0.25305 0.0
N1139 N 0.17966 0.9457 0.18723 0.0
C1140 C 0.23984 0.94317 0.23443 0.0
C1141 C 0.20064 0.94531 0.20104 0.0
N1142 N 0.23755 0.89606 0.22074 0.0
N1143 N 0.21201 0.99414 0.2064 0.0
H1144 H 0.16908 0.9284 0.17817 0.0
H1145 H 0.17184 0.96286 0.18577 0.0
H1146 H 0.22251 1.01204 0.21461 0.0
H1147 H 0.20086 0.99686 0.19206 0.0
H1148 H 0.25439 0.89466 0.22961 0.0
H1149 H 0.22958 0.87841 0.2104 0.0
H1150 H 0.25901 0.92396 0.25879 0.0
H1151 H 0.26396 0.95884 0.26414 0.0
C1152 C 0.1319 0.8555 0.79332 0.0
C1153 C 0.1308 0.87191 0.81549 0.0
C1154 C 0.08252 0.86019 0.81691 0.0
C1155 C 0.08366 0.84378 0.79478 0.0
N1156 N 0.10842 0.83064 0.759 0.0
N1157 N 0.10548 0.89457 0.84575 0.0
C1158 C 0.10807 0.84315 0.78197 0.0
C1159 C 0.10618 0.87573 0.82647 0.0
N1160 N 0.15569 0.85074 0.78372 0.0
N1161 N 0.05877 0.86031 0.82905 0.0
H1162 H 0.12245 0.90605 0.85336 0.0
H1163 H 0.08824 0.90031 0.8531 0.0
H1164 H 0.04095 0.85069 0.82165 0.0
H1165 H 0.05671 0.86898 0.84671 0.0
H1166 H 0.15771 0.83662 0.76917 0.0
H1167 H 0.17356 0.85949 0.79144 0.0
H1168 H 0.12532 0.83142 0.74774 0.0
H1169 H 0.09129 0.82144 0.75028 0.0
C1170 C 0.30135 0.12858 0.87303 0.0
C1171 C 0.29575 0.15386 0.86792 0.0
C1172 C 0.30965 0.14446 0.82522 0.0
C1173 C 0.31847 0.12092 0.83078 0.0
N1174 N 0.32653 0.09323 0.8616 0.0
N1175 N 0.30152 0.18854 0.84009 0.0
C1176 C 0.31542 0.11372 0.85519 0.0
C1177 C 0.30217 0.16263 0.84432 0.0
N1178 N 0.29225 0.11808 0.89443 0.0
N1179 N 0.30645 0.14863 0.80162 0.0
H1180 H 0.29698 0.20275 0.85374 0.0
H1181 H 0.30832 0.19658 0.82372 0.0
H1182 H 0.30878 0.13444 0.78721 0.0
H1183 H 0.29801 0.16432 0.79673 0.0
H1184 H 0.29333 0.09859 0.89809 0.0
H1185 H 0.28141 0.12787 0.90762 0.0
H1186 H 0.32724 0.08884 0.87956 0.0
H1187 H 0.33721 0.08225 0.84924 0.0
C1188 C 0.97002 0.2841 0.88006 0.0
C1189 C 0.96856 0.26348 0.86066 0.0
C1190 C 1.0153 0.26349 0.86509 0.0
C1191 C 1.01783 0.288 0.87988 0.0
N1192 N 0.99706 0.3243 0.89817 0.0
N1193 N 0.99309 0.23852 0.83079 0.0
C1194 C 0.99502 0.29912 0.88652 0.0
C1195 C 0.99207 0.25435 0.85207 0.0
N1196 N 0.9478 0.28871 0.89299 0.0
N1197 N 0.03453 0.24843 0.86398 0.0
H1198 H 0.97772 0.23386 0.81884 0.0
H1199 H 1.01052 0.23295 0.82361 0.0
H1200 H 0.05122 0.25385 0.87439 0.0
H1201 H 0.03216 0.22918 0.85499 0.0
H1202 H 0.94833 0.30235 0.90835 0.0
H1203 H 0.92935 0.2766 0.89018 0.0
H1204 H 0.98094 0.33387 0.90142 0.0
H1205 H 1.01508 0.33668 0.90216 0.0
C1206 C 0.82291 0.94061 0.80872 0.0
C1207 C 0.84294 0.94605 0.82596 0.0
C1208 C 0.84449 0.99462 0.8247 0.0
C1209 C 0.82801 0.98908 0.80454 0.0
N1210 N 0.8011 0.9571 0.77713 0.0
N1211 N 0.87404 0.97829 0.84976 0.0
C1212 C 0.81681 0.96212 0.79671 0.0
C1213 C 0.8537 0.97309 0.83422 0.0
N1214 N 0.80933 0.91491 0.80423 0.0
N1215 N 0.85174 0.02059 0.83433 0.0
H1216 H 0.88173 0.96322 0.85677 0.0
H1217 H 0.8847 0.99748 0.85433 0.0
H1218 H 0.84549 0.03662 0.8274 0.0
H1219 H 0.8618 0.02597 0.85036 0.0
H1220 H 0.79285 0.9099 0.7936 0.0
H1221 H 0.81306 0.89879 0.81299 0.0
H1222 H 0.79514 0.93805 0.7683 0.0
H1223 H 0.79486 0.9724 0.76906 0.0
C1224 C 0.24669 0.12817 0.22064 0.0
C1225 C 0.25229 0.15564 0.22981 0.0
C1226 C 0.27734 0.14397 0.26244 0.0
C1227 C 0.26987 0.11628 0.25447 0.0
N1228 N 0.2437 0.08154 0.22863 0.0
N1229 N 0.27063 0.18973 0.2607 0.0
C1230 C 0.25366 0.10823 0.23418 0.0
C1231 C 0.2668 0.16352 0.25119 0.0
N1232 N 0.23462 0.12105 0.19899 0.0
N1233 N 0.29559 0.1517 0.27993 0.0
H1234 H 0.26478 0.20496 0.25217 0.0
H1235 H 0.27817 0.19617 0.27776 0.0
H1236 H 0.30405 0.13806 0.28831 0.0
H1237 H 0.30411 0.17165 0.2847 0.0
H1238 H 0.23302 0.10198 0.18984 0.0
H1239 H 0.22761 0.13464 0.18925 0.0
H1240 H 0.22943 0.0745 0.21585 0.0
H1241 H 0.24788 0.06632 0.23831 0.0
C1242 C 0.20769 0.97181 0.82474 0.0
C1243 C 0.2097 0.94521 0.81554 0.0
C1244 C 0.23747 0.96266 0.78098 0.0
C1245 C 0.23699 0.98917 0.7911 0.0
N1246 N 0.225 0.01966 0.82377 0.0
N1247 N 0.22874 0.91495 0.78671 0.0
C1248 C 0.22292 0.99394 0.81329 0.0
C1249 C 0.22522 0.94052 0.7941 0.0
N1250 N 0.19075 0.97583 0.84404 0.0
N1251 N 0.24936 0.95889 0.75855 0.0
H1252 H 0.21994 0.89824 0.79582 0.0
H1253 H 0.24184 0.9104 0.77266 0.0
H1254 H 0.25854 0.97493 0.74874 0.0
H1255 H 0.24848 0.94019 0.74885 0.0
H1256 H 0.18621 0.99452 0.84999 0.0
H1257 H 0.17979 0.9601 0.85323 0.0
H1258 H 0.21766 0.02447 0.84121 0.0
H1259 H 0.23574 0.03621 0.81553 0.0
C1260 C 0.1895 0.23379 0.84708 0.0
C1261 C 0.18662 0.21198 0.86203 0.0
C1262 C 0.13911 0.2125 0.86727 0.0
C1263 C 0.14162 0.23206 0.8502 0.0
N1264 N 0.1684 0.25915 0.82152 0.0
N1265 N 0.1579 0.17806 0.88374 0.0
C1266 C 0.16665 0.2422 0.83955 0.0
C1267 C 0.16122 0.20078 0.87162 0.0
N1268 N 0.21413 0.24713 0.8408 0.0
N1269 N 0.11555 0.20553 0.87963 0.0
H1270 H 0.17337 0.16851 0.88682 0.0
H1271 H 0.13953 0.16732 0.88891 0.0
H1272 H 0.09919 0.21388 0.87673 0.0
H1273 H 0.11288 0.19344 0.8941 0.0
H1274 H 0.21757 0.26482 0.83206 0.0
H1275 H 0.23131 0.24201 0.84635 0.0
H1276 H 0.18555 0.26509 0.81107 0.0
H1277 H 0.15204 0.26563 0.81567 0.0
C1278 C 0.89545 0.16585 0.83138 0.0
C1279 C 0.9076 0.18726 0.81748 0.0
C1280 C 0.90401 0.15681 0.78025 0.0
C1281 C 0.89271 0.13524 0.7942 0.0
N1282 N 0.88255 0.11749 0.83307 0.0
N1283 N 0.92923 0.20215 0.77999 0.0
C1284 C 0.88999 0.13927 0.81985 0.0
C1285 C 0.91376 0.1824 0.79229 0.0
N1286 N 0.88823 0.17107 0.85526 0.0
N1287 N 0.90405 0.15316 0.75545 0.0
H1288 H 0.93686 0.22114 0.78827 0.0
H1289 H 0.9365 0.19895 0.76221 0.0
H1290 H 0.89671 0.13471 0.74607 0.0
H1291 H 0.90932 0.16885 0.74423 0.0
H1292 H 0.87678 0.15678 0.86566 0.0
H1293 H 0.89222 0.19028 0.86431 0.0
H1294 H 0.88236 0.11864 0.85198 0.0
H1295 H 0.87883 0.09783 0.82491 0.0
C1296 C 0.90476 0.82948 0.83672 0.0
C1297 C 0.91407 0.85195 0.85335 0.0
C1298 C 0.95895 0.84226 0.84761 0.0
C1299 C 0.94983 0.82076 0.83013 0.0
N1300 N 0.91554 0.79677 0.80463 0.0
N1301 N 0.95051 0.88242 0.87185 0.0
C1302 C 0.92312 0.81523 0.8237 0.0
C1303 C 0.94137 0.85914 0.85797 0.0
N1304 N 0.87828 0.82108 0.83409 0.0
N1305 N 0.98428 0.84589 0.85481 0.0
H1306 H 0.93817 0.89516 0.87968 0.0
H1307 H 0.97041 0.89024 0.87407 0.0
H1308 H 0.99743 0.83382 0.84741 0.0
H1309 H 0.99172 0.85941 0.86919 0.0
H1310 H 0.8701 0.80315 0.82437 0.0
H1311 H 0.86421 0.83101 0.84314 0.0
H1312 H 0.89707 0.7937 0.79717 0.0
H1313 H 0.9286 0.78603 0.79489 0.0
C1314 C 0.8558 0.93111 0.255 0.0
C1315 C 0.86748 0.92658 0.23137 0.0
C1316 C 0.86162 0.97162 0.22253 0.0
C1317 C 0.85354 0.97769 0.24721 0.0
N1318 N 0.84859 0.964 0.28818 0.0
N1319 N 0.8878 0.94625 0.1952 0.0
C1320 C 0.85225 0.95764 0.26382 0.0
C1321 C 0.87234 0.94799 0.21594 0.0
N1322 N 0.847 0.90996 0.26873 0.0
N1323 N 0.85752 0.98725 0.20484 0.0
H1324 H 0.89701 0.92991 0.19018 0.0
H1325 H 0.89382 0.96237 0.18454 0.0
H1326 H 0.84739 1.00315 0.20805 0.0
H1327 H 0.86105 0.98216 0.18639 0.0
H1328 H 0.83605 0.91174 0.28502 0.0
H1329 H 0.84814 0.89016 0.26263 0.0
H1330 H 0.84993 0.95083 0.30121 0.0
H1331 H 0.84717 0.98335 0.29553 0.0
C1332 C 0.11224 0.83586 0.22408 0.0
C1333 C 0.13976 0.84216 0.22741 0.0
C1334 C 0.13315 0.82312 0.26688 0.0
C1335 C 0.10596 0.81513 0.26248 0.0
N1336 N 0.07157 0.8059 0.23369 0.0
N1337 N 0.17712 0.83613 0.2492 0.0
C1338 C 0.09603 0.81914 0.24011 0.0
C1339 C 0.1505 0.83415 0.24803 0.0
N1340 N 0.10141 0.84654 0.20618 0.0
N1341 N 0.14228 0.82085 0.28916 0.0
H1342 H 0.19045 0.84342 0.23544 0.0
H1343 H 0.18578 0.82817 0.26269 0.0
H1344 H 0.13018 0.81238 0.30326 0.0
H1345 H 0.16141 0.82913 0.29421 0.0
H1346 H 0.08114 0.84444 0.20459 0.0
H1347 H 0.11252 0.85972 0.19449 0.0
H1348 H 0.06411 0.80649 0.21667 0.0
H1349 H 0.06026 0.79165 0.24429 0.0
C1350 C 0.90859 0.25891 0.22299 0.0
C1351 C 0.9156 0.2431 0.202 0.0
C1352 C 0.96209 0.25436 0.21281 0.0
C1353 C 0.9544 0.26641 0.23563 0.0
N1354 N 0.92101 0.28151 0.26253 0.0
N1355 N 0.94859 0.22552 0.17634 0.0
C1356 C 0.92785 0.26942 0.24057 0.0
C1357 C 0.94234 0.24116 0.19651 0.0
N1358 N 0.88349 0.26381 0.22602 0.0
N1359 N 0.98822 0.25515 0.20693 0.0
H1360 H 0.9348 0.21632 0.16364 0.0
H1361 H 0.96703 0.22042 0.17269 0.0
H1362 H 1.00311 0.26418 0.2186 0.0
H1363 H 0.99543 0.24893 0.18982 0.0
H1364 H 0.87748 0.27705 0.23974 0.0
H1365 H 0.86894 0.25607 0.21359 0.0
H1366 H 0.90167 0.28146 0.26882 0.0
H1367 H 0.93495 0.291 0.27501 0.0
C1368 C 0.21384 0.73414 0.61581 0.0
C1369 C 0.21631 0.74915 0.6388 0.0
C1370 C 0.24712 0.78552 0.62026 0.0
C1371 C 0.2483 0.7684 0.59859 0.0
N1372 N 0.23208 0.7271 0.57469 0.0
N1373 N 0.23489 0.78925 0.66339 0.0
C1374 C 0.23111 0.74303 0.59596 0.0
C1375 C 0.23244 0.77516 0.64106 0.0
N1376 N 0.19495 0.71137 0.61311 0.0
N1377 N 0.26033 0.81155 0.62098 0.0
H1378 H 0.2239 0.78262 0.6788 0.0
H1379 H 0.2487 0.80676 0.66702 0.0
H1380 H 0.27125 0.81951 0.60605 0.0
H1381 H 0.25859 0.82587 0.63543 0.0
H1382 H 0.19048 0.70051 0.59648 0.0
H1383 H 0.18209 0.70454 0.6274 0.0
H1384 H 0.2226 0.7071 0.57237 0.0
H1385 H 0.24328 0.73381 0.5594 0.0
C1386 C 0.81304 0.73312 0.57855 0.0
C1387 C 0.80963 0.73653 0.60429 0.0
C1388 C 0.78749 0.77454 0.60085 0.0
C1389 C 0.7914 0.77152 0.57519 0.0
N1390 N 0.80238 0.7449 0.53912 0.0
N1391 N 0.78791 0.75556 0.63951 0.0
C1392 C 0.80222 0.74964 0.56388 0.0
C1393 C 0.79512 0.75581 0.61532 0.0
N1394 N 0.82797 0.71524 0.56822 0.0
N1395 N 0.77694 0.79575 0.61138 0.0
H1396 H 0.79272 0.74174 0.6505 0.0
H1397 H 0.77523 0.76733 0.64827 0.0
H1398 H 0.76932 0.80858 0.60122 0.0
H1399 H 0.77665 0.80131 0.62999 0.0
H1400 H 0.83384 0.71393 0.54989 0.0
H1401 H 0.83616 0.70276 0.57827 0.0
H1402 H 0.80775 0.72792 0.52972 0.0
H1403 H 0.79491 0.75687 0.52799 0.0
C1404 C 0.88824 0.36976 0.65143 0.0
C1405 C 0.87508 0.36318 0.67397 0.0
C1406 C 0.84589 0.32499 0.65256 0.0
C1407 C 0.85852 0.33207 0.63 0.0
N1408 N 0.8881 0.36377 0.60718 0.0
N1409 N 0.8384 0.33768 0.69557 0.0
C1410 C 0.87866 0.35527 0.62926 0.0
C1411 C 0.85293 0.34175 0.67436 0.0
N1412 N 0.91042 0.38929 0.65129 0.0
N1413 N 0.82799 0.30149 0.65324 0.0
H1414 H 0.84311 0.3494 0.71182 0.0
H1415 H 0.82055 0.32426 0.69672 0.0
H1416 H 0.8226 0.28883 0.63765 0.0
H1417 H 0.81994 0.29349 0.66925 0.0
H1418 H 0.92269 0.39308 0.63593 0.0
H1419 H 0.91754 0.40075 0.667 0.0
H1420 H 0.90097 0.38189 0.60501 0.0
H1421 H 0.88121 0.35363 0.59082 0.0
C1422 C 0.20117 0.39704 0.64253 0.0
C1423 C 0.21117 0.39037 0.66414 0.0
C1424 C 0.22326 0.35006 0.64205 0.0
C1425 C 0.21578 0.35819 0.62013 0.0
N1426 N 0.19999 0.39021 0.59843 0.0
N1427 N 0.23677 0.36359 0.68323 0.0
C1428 C 0.20542 0.38197 0.62008 0.0
C1429 C 0.2234 0.36756 0.66366 0.0
N1430 N 0.18668 0.41699 0.64363 0.0
N1431 N 0.23024 0.3255 0.64213 0.0
H1432 H 0.23874 0.37676 0.69894 0.0
H1433 H 0.24829 0.34886 0.68296 0.0
H1434 H 0.23135 0.31272 0.62636 0.0
H1435 H 0.23293 0.31702 0.65802 0.0
H1436 H 0.17669 0.42102 0.62899 0.0
H1437 H 0.18271 0.42815 0.65976 0.0
H1438 H 0.19518 0.40889 0.59664 0.0
H1439 H 0.20188 0.37884 0.58192 0.0
C1440 C 0.25051 0.37249 0.44043 0.0
C1441 C 0.22683 0.36048 0.42868 0.0
C1442 C 0.21479 0.3317 0.46244 0.0
C1443 C 0.24011 0.34072 0.47216 0.0
N1444 N 0.28427 0.36618 0.46673 0.0
N1445 N 0.19024 0.32281 0.4258 0.0
C1446 C 0.2586 0.36026 0.46023 0.0
C1447 C 0.2099 0.33853 0.43895 0.0
N1448 N 0.26507 0.39602 0.43321 0.0
N1449 N 0.19503 0.31719 0.47583 0.0
H1450 H 0.18752 0.32509 0.40765 0.0
H1451 H 0.17893 0.30525 0.43191 0.0
H1452 H 0.19729 0.31296 0.49361 0.0
H1453 H 0.17564 0.31221 0.47033 0.0
H1454 H 0.28102 0.40695 0.44273 0.0
H1455 H 0.25963 0.40611 0.4193 0.0
H1456 H 0.29901 0.37819 0.45691 0.0
H1457 H 0.29148 0.35691 0.48025 0.0
C1458 C 0.27786 0.6742 0.45344 0.0
C1459 C 0.2731 0.68823 0.43354 0.0
C1460 C 0.28168 0.73078 0.4596 0.0
C1461 C 0.28986 0.71739 0.47851 0.0
N1462 N 0.29666 0.67626 0.49309 0.0
N1463 N 0.27654 0.73068 0.41634 0.0
C1464 C 0.28833 0.68904 0.47519 0.0
C1465 C 0.27668 0.71674 0.43631 0.0
N1466 N 0.27125 0.64677 0.452 0.0
N1467 N 0.27813 0.75677 0.46367 0.0
H1468 H 0.27426 0.72135 0.39875 0.0
H1469 H 0.28151 0.75156 0.41682 0.0
H1470 H 0.28232 0.76861 0.47981 0.0
H1471 H 0.26907 0.76611 0.45142 0.0
H1472 H 0.27164 0.63543 0.46667 0.0
H1473 H 0.26332 0.63534 0.43659 0.0
H1474 H 0.29921 0.65634 0.49086 0.0
H1475 H 0.30214 0.68609 0.50997 0.0
C1476 C 0.88376 0.77895 0.4735 0.0
C1477 C 0.88528 0.78046 0.44791 0.0
C1478 C 0.85563 0.81297 0.45204 0.0
C1479 C 0.85547 0.8127 0.47759 0.0
N1480 N 0.87207 0.79924 0.51319 0.0
N1481 N 0.87792 0.80362 0.41341 0.0
C1482 C 0.87044 0.79683 0.48848 0.0
C1483 C 0.87266 0.79878 0.43728 0.0
N1484 N 0.89395 0.75965 0.48336 0.0
N1485 N 0.83877 0.82604 0.4419 0.0
H1486 H 0.89121 0.79455 0.40223 0.0
H1487 H 0.87122 0.81866 0.40537 0.0
H1488 H 0.82609 0.83665 0.45233 0.0
H1489 H 0.83583 0.82452 0.42329 0.0
H1490 H 0.89103 0.7557 0.50156 0.0
H1491 H 0.90361 0.74597 0.47299 0.0
H1492 H 0.88464 0.79023 0.52234 0.0
H1493 H 0.86235 0.81219 0.52447 0.0
C1494 C 0.82174 0.32912 0.45259 0.0
C1495 C 0.84619 0.34705 0.44996 0.0
C1496 C 0.85169 0.34976 0.49404 0.0
C1497 C 0.82765 0.33114 0.49657 0.0
N1498 N 0.78621 0.30957 0.47979 0.0
N1499 N 0.88169 0.37903 0.46827 0.0
C1500 C 0.81144 0.32301 0.47632 0.0
C1501 C 0.86025 0.35892 0.47078 0.0
N1502 N 0.80889 0.31708 0.43234 0.0
N1503 N 0.86666 0.358 0.51392 0.0
H1504 H 0.88878 0.38577 0.45145 0.0
H1505 H 0.89141 0.39038 0.48284 0.0
H1506 H 0.85989 0.3533 0.53144 0.0
H1507 H 0.88591 0.36872 0.51309 0.0
H1508 H 0.79268 0.30143 0.43279 0.0
H1509 H 0.81554 0.32146 0.41473 0.0
H1510 H 0.77268 0.30472 0.46611 0.0
H1511 H 0.77781 0.30593 0.497 0.0
C1512 C 0.12245 0.7164 0.6996 0.0
C1513 C 0.14678 0.73268 0.70678 0.0
C1514 C 0.12348 0.75542 0.74012 0.0
C1515 C 0.09915 0.74007 0.73221 0.0
N1516 N 0.07452 0.70868 0.70306 0.0
N1517 N 0.17038 0.77012 0.7316 0.0
C1518 C 0.09841 0.72131 0.71153 0.0
C1519 C 0.14725 0.75293 0.72641 0.0
N1520 N 0.12245 0.69584 0.68177 0.0
N1521 N 0.12378 0.77178 0.76122 0.0
H1522 H 0.18817 0.76857 0.72223 0.0
H1523 H 0.17172 0.78705 0.74395 0.0
H1524 H 0.10663 0.77412 0.77137 0.0
H1525 H 0.14091 0.78164 0.76956 0.0
H1526 H 0.10587 0.68142 0.67736 0.0
H1527 H 0.13954 0.69215 0.6722 0.0
H1528 H 0.07212 0.69673 0.6867 0.0
H1529 H 0.05677 0.71171 0.71178 0.0
C1530 C 0.81895 0.6575 0.70652 0.0
C1531 C 0.83998 0.65829 0.68874 0.0
C1532 C 0.84078 0.61076 0.69285 0.0
C1533 C 0.81946 0.60987 0.71018 0.0
N1534 N 0.78518 0.63008 0.73062 0.0
N1535 N 0.86768 0.63486 0.66155 0.0
C1536 C 0.80754 0.6326 0.716 0.0
C1537 C 0.84986 0.63459 0.6808 0.0
N1538 N 0.81072 0.68078 0.7151 0.0
N1539 N 0.85305 0.58915 0.68884 0.0
H1540 H 0.87483 0.65204 0.65247 0.0
H1541 H 0.87381 0.61769 0.65334 0.0
H1542 H 0.84653 0.57135 0.69717 0.0
H1543 H 0.87056 0.58936 0.67854 0.0
H1544 H 0.79751 0.68215 0.72987 0.0
H1545 H 0.8184 0.69933 0.70843 0.0
H1546 H 0.77386 0.64499 0.73399 0.0
H1547 H 0.77676 0.61201 0.73787 0.0
C1548 C 0.94851 0.32709 0.7821 0.0
C1549 C 0.95803 0.35448 0.77773 0.0
C1550 C 1.00199 0.35093 0.79076 0.0
C1551 C 0.9925 0.32361 0.79514 0.0
N1552 N 0.95798 0.28469 0.79303 0.0
N1553 N 0.99268 0.3937 0.78098 0.0
C1554 C 0.96605 0.31147 0.79025 0.0
C1555 C 0.9844 0.36677 0.78313 0.0
N1556 N 0.92229 0.31655 0.77993 0.0
N1557 N 0.02837 0.36109 0.79204 0.0
H1558 H 0.98129 0.40564 0.77373 0.0
H1559 H 1.01029 0.40471 0.7876 0.0
H1560 H 0.04192 0.34985 0.79668 0.0
H1561 H 0.03737 0.3798 0.78656 0.0
H1562 H 0.91341 0.29735 0.7842 0.0
H1563 H 0.90864 0.32771 0.77533 0.0
H1564 H 0.94032 0.27327 0.78695 0.0
H1565 H 0.96966 0.27341 0.80076 0.0
C1566 C 0.25433 0.47165 0.78243 0.0
C1567 C 0.23147 0.47144 0.76931 0.0
C1568 C 0.24633 0.51904 0.76278 0.0
C1569 C 0.26945 0.51896 0.77528 0.0
N1570 N 0.2919 0.49843 0.80312 0.0
N1571 N 0.20221 0.49605 0.75267 0.0
C1572 C 0.27209 0.49635 0.78736 0.0
C1573 C 0.22629 0.4956 0.76138 0.0
N1574 N 0.25994 0.44807 0.78881 0.0
N1575 N 0.24415 0.54122 0.75142 0.0
H1576 H 0.18714 0.47914 0.75151 0.0
H1577 H 0.19637 0.51355 0.74855 0.0
H1578 H 0.25786 0.55917 0.75343 0.0
H1579 H 0.22948 0.54156 0.7394 0.0
H1580 H 0.27769 0.44657 0.79603 0.0
H1581 H 0.2477 0.42945 0.78521 0.0
H1582 H 0.29381 0.48327 0.81396 0.0
H1583 H 0.30483 0.51648 0.80726 0.0
C1584 C 0.12855 0.34769 0.31389 0.0
C1585 C 0.12839 0.3636 0.33646 0.0
C1586 C 0.0801 0.35167 0.33931 0.0
C1587 C 0.08037 0.33649 0.3164 0.0
N1588 N 0.10408 0.32672 0.27886 0.0
N1589 N 0.1039 0.38577 0.36784 0.0
C1590 C 0.10435 0.3368 0.30265 0.0
C1591 C 0.10409 0.36713 0.34835 0.0
N1592 N 0.15168 0.34165 0.30382 0.0
N1593 N 0.05691 0.35095 0.35257 0.0
H1594 H 0.12107 0.39761 0.37476 0.0
H1595 H 0.08676 0.39117 0.37584 0.0
H1596 H 0.03878 0.3415 0.34569 0.0
H1597 H 0.05574 0.35869 0.37064 0.0
H1598 H 0.1526 0.32779 0.28881 0.0
H1599 H 0.1698 0.34839 0.31181 0.0
H1600 H 0.12085 0.32856 0.26733 0.0
H1601 H 0.08669 0.31927 0.2699 0.0
C1602 C 0.29294 0.64183 0.33201 0.0
C1603 C 0.2831 0.63088 0.3541 0.0
C1604 C 0.30346 0.59124 0.34155 0.0
C1605 C 0.31012 0.60059 0.31807 0.0
N1606 N 0.30452 0.63238 0.2897 0.0
N1607 N 0.27609 0.59323 0.3787 0.0
C1608 C 0.30321 0.62534 0.31302 0.0
C1609 C 0.28762 0.60505 0.35858 0.0
N1610 N 0.29285 0.66824 0.32918 0.0
N1611 N 0.31305 0.56976 0.34799 0.0
H1612 H 0.26455 0.60268 0.39153 0.0
H1613 H 0.27618 0.57331 0.38162 0.0
H1614 H 0.32524 0.55968 0.33639 0.0
H1615 H 0.3111 0.56364 0.36556 0.0
H1616 H 0.30229 0.67803 0.31446 0.0
H1617 H 0.28578 0.68109 0.34273 0.0
H1618 H 0.2973 0.64879 0.2847 0.0
H1619 H 0.30967 0.62002 0.27493 0.0
C1620 C 0.97483 0.77761 0.35446 0.0
C1621 C 0.97041 0.75075 0.36108 0.0
C1622 C 1.01804 0.75304 0.36342 0.0
C1623 C 0.02232 0.78018 0.35754 0.0
N1624 N 1.00537 0.81968 0.35042 0.0
N1625 N 0.98714 0.71138 0.36897 0.0
C1626 C 1.00086 0.79284 0.35388 0.0
C1627 C 0.99186 0.73794 0.36454 0.0
N1628 N 0.95412 0.78813 0.3478 0.0
N1629 N 0.03883 0.74253 0.36991 0.0
H1630 H 0.96829 0.70018 0.37165 0.0
H1631 H 1.00172 0.69983 0.3687 0.0
H1632 H 0.0582 0.7531 0.36958 0.0
H1633 H 0.03706 0.724 0.37698 0.0
H1634 H 0.95615 0.80639 0.34015 0.0
H1635 H 0.93479 0.77743 0.34772 0.0
H1636 H 0.99061 0.83104 0.35086 0.0
H1637 H 0.0242 0.83115 0.34817 0.0
C1638 C 0.85551 0.4563 0.35472 0.0
C1639 C 0.84465 0.42945 0.3461 0.0
C1640 C 0.81683 0.44639 0.31887 0.0
C1641 C 0.82618 0.47298 0.32892 0.0
N1642 N 0.85092 0.50321 0.35892 0.0
N1643 N 0.81221 0.39851 0.32263 0.0
C1644 C 0.84459 0.47791 0.34754 0.0
C1645 C 0.8246 0.42436 0.3288 0.0
N1646 N 0.877 0.46125 0.36889 0.0
N1647 N 0.80099 0.44238 0.29941 0.0
H1648 H 0.81711 0.38187 0.32969 0.0
H1649 H 0.79563 0.39358 0.31214 0.0
H1650 H 0.79518 0.45818 0.29171 0.0
H1651 H 0.7953 0.42382 0.28966 0.0
H1652 H 0.88747 0.48049 0.37365 0.0
H1653 H 0.88588 0.44604 0.37414 0.0
H1654 H 0.86207 0.50773 0.37437 0.0
H1655 H 0.84308 0.51932 0.35408 0.0
C1656 C 0.27991 0.67036 0.71075 0.0
C1657 C 0.25792 0.65653 0.69745 0.0
C1658 C 0.27285 0.61369 0.69958 0.0
C1659 C 0.29422 0.62738 0.71349 0.0
N1660 N 0.31647 0.66743 0.73553 0.0
N1661 N 0.23095 0.61482 0.68236 0.0
C1662 C 0.29719 0.65536 0.72009 0.0
C1663 C 0.25371 0.62809 0.69271 0.0
N1664 N 0.28506 0.69787 0.71332 0.0
N1665 N 0.27129 0.58694 0.6926 0.0
H1666 H 0.21642 0.62472 0.6774 0.0
H1667 H 0.22537 0.59397 0.68041 0.0
H1668 H 0.28469 0.57591 0.69803 0.0
H1669 H 0.25789 0.57602 0.68037 0.0
H1670 H 0.30225 0.70927 0.72045 0.0
H1671 H 0.27294 0.70954 0.70673 0.0
H1672 H 0.3182 0.68713 0.74327 0.0
H1673 H 0.32982 0.65699 0.74197 0.0
C1674 C 0.23171 0.41893 0.31122 0.0
C1675 C 0.21312 0.42806 0.32826 0.0
C1676 C 0.22148 0.4719 0.31102 0.0
C1677 C 0.2408 0.46312 0.29472 0.0
N1678 N 0.26824 0.43074 0.2824 0.0
N1679 N 0.19303 0.4642 0.3472 0.0
C1680 C 0.24704 0.4373 0.29573 0.0
C1681 C 0.20887 0.45492 0.32903 0.0
N1682 N 0.23402 0.39245 0.3092 0.0
N1683 N 0.21467 0.49616 0.30861 0.0
H1684 H 0.18354 0.4522 0.36059 0.0
H1685 H 0.19089 0.4842 0.35022 0.0
H1686 H 0.2237 0.50884 0.29555 0.0
H1687 H 0.19898 0.50289 0.31823 0.0
H1688 H 0.24486 0.38386 0.29521 0.0
H1689 H 0.22365 0.37849 0.32059 0.0
H1690 H 0.27571 0.41342 0.28412 0.0
H1691 H 0.27978 0.44392 0.27107 0.0
C1692 C 0.16538 0.68837 0.32443 0.0
C1693 C 0.1663 0.67707 0.34692 0.0
C1694 C 0.12324 0.68904 0.35935 0.0
C1695 C 0.1212 0.69766 0.33601 0.0
N1696 N 0.13818 0.70125 0.29486 0.0
N1697 N 0.14321 0.66172 0.38373 0.0
C1698 C 0.14173 0.69617 0.31814 0.0
C1699 C 0.14448 0.67617 0.36392 0.0
N1700 N 0.18744 0.69269 0.30943 0.0
N1701 N 0.10511 0.69377 0.37736 0.0
H1702 H 0.15755 0.65083 0.38712 0.0
H1703 H 0.12663 0.65819 0.39541 0.0
H1704 H 0.08958 0.70338 0.37455 0.0
H1705 H 0.10689 0.69049 0.39546 0.0
H1706 H 0.18876 0.70337 0.29409 0.0
H1707 H 0.20533 0.68793 0.31352 0.0
H1708 H 0.15117 0.69777 0.28034 0.0
H1709 H 0.12097 0.7066 0.28966 0.0
C1710 C 0.87372 0.68452 0.32248 0.0
C1711 C 0.8903 0.68055 0.34083 0.0
C1712 C 0.88282 0.63216 0.32847 0.0
C1713 C 0.86453 0.6358 0.31145 0.0
N1714 N 0.83912 0.66452 0.29494 0.0
N1715 N 0.90783 0.65056 0.36397 0.0
C1716 C 0.85906 0.66176 0.30914 0.0
C1717 C 0.894 0.65433 0.34463 0.0
N1718 N 0.87246 0.71007 0.31744 0.0
N1719 N 0.89052 0.60786 0.3284 0.0
H1720 H 0.91688 0.66637 0.37586 0.0
H1721 H 0.90864 0.63166 0.36938 0.0
H1722 H 0.88308 0.59116 0.31669 0.0
H1723 H 0.90595 0.60482 0.33844 0.0
H1724 H 0.86315 0.71435 0.30247 0.0
H1725 H 0.88252 0.72719 0.32718 0.0
H1726 H 0.83233 0.68246 0.29447 0.0
H1727 H 0.82767 0.64826 0.28523 0.0
C1728 C 0.93328 0.33736 0.38457 0.0
C1729 C 0.90656 0.33047 0.37777 0.0
C1730 C 0.91795 0.29544 0.34733 0.0
C1731 C 0.9447 0.30313 0.35346 0.0
N1732 N 0.9788 0.3321 0.37593 0.0
N1733 N 0.87317 0.304 0.35231 0.0
C1734 C 0.95258 0.32424 0.37164 0.0
C1735 C 0.89881 0.30973 0.35902 0.0
N1736 N 0.94005 0.35629 0.40355 0.0
N1737 N 0.91105 0.27415 0.33045 0.0
H1738 H 0.85847 0.31316 0.36122 0.0
H1739 H 0.86635 0.29095 0.33745 0.0
H1740 H 0.92489 0.26394 0.32133 0.0
H1741 H 0.89179 0.26569 0.3261 0.0
H1742 H 0.95845 0.36046 0.41118 0.0
H1743 H 0.92677 0.36719 0.41266 0.0
H1744 H 0.9867 0.34902 0.38709 0.0
H1745 H 0.99308 0.32223 0.36717 0.0
C1746 C 0.85234 0.44033 0.74502 0.0
C1747 C 0.87958 0.43942 0.74134 0.0
C1748 C 0.89005 0.48537 0.7621 0.0
C1749 C 0.86287 0.48663 0.76413 0.0
N1750 N 0.81952 0.46866 0.74979 0.0
N1751 N 0.9244 0.464 0.74151 0.0
C1752 C 0.84448 0.46512 0.75314 0.0
C1753 C 0.8985 0.46284 0.74847 0.0
N1754 N 0.83383 0.41729 0.74213 0.0
N1755 N 0.90775 0.50536 0.77359 0.0
H1756 H 0.93114 0.44844 0.73087 0.0
H1757 H 0.93872 0.48132 0.74423 0.0
H1758 H 0.90221 0.5224 0.78285 0.0
H1759 H 0.92745 0.50422 0.77515 0.0
H1760 H 0.81396 0.41661 0.74693 0.0
H1761 H 0.83859 0.39838 0.73758 0.0
H1762 H 0.80579 0.45444 0.74013 0.0
H1763 H 0.8138 0.48715 0.75415 0.0
C1764 C 0.13999 0.39602 0.80002 0.0
C1765 C 0.166 0.39197 0.79393 0.0
C1766 C 0.16003 0.35468 0.81997 0.0
C1767 C 0.13418 0.35905 0.82645 0.0
N1768 N 0.10129 0.38685 0.82702 0.0
N1769 N 0.20289 0.3717 0.80153 0.0
C1770 C 0.12471 0.38071 0.81781 0.0
C1771 C 0.17672 0.37269 0.8051 0.0
N1772 N 0.12966 0.41382 0.78818 0.0
N1773 N 0.16807 0.33241 0.82673 0.0
H1774 H 0.21556 0.38417 0.79027 0.0
H1775 H 0.21252 0.36011 0.81121 0.0
H1776 H 0.15655 0.31876 0.83774 0.0
H1777 H 0.1854 0.32632 0.82005 0.0
H1778 H 0.10987 0.41542 0.78965 0.0
H1779 H 0.14057 0.42598 0.77557 0.0
H1780 H 0.09434 0.40386 0.82322 0.0
H1781 H 0.08979 0.37612 0.84028 0.0
C1782 C 0.91284 0.75772 0.71246 0.0
C1783 C 0.91363 0.73811 0.69247 0.0
C1784 C 0.96092 0.74057 0.69747 0.0
C1785 C 0.96002 0.75979 0.71771 0.0
N1786 N 0.93713 0.79095 0.7415 0.0
N1787 N 0.93892 0.71505 0.66257 0.0
C1788 C 0.93662 0.76991 0.7241 0.0
C1789 C 0.93792 0.73093 0.68386 0.0
N1790 N 0.88914 0.76364 0.72108 0.0
N1791 N 0.98362 0.7309 0.69183 0.0
H1792 H 0.92236 0.7075 0.65236 0.0
H1793 H 0.95632 0.71102 0.65399 0.0
H1794 H 1.00117 0.73873 0.70052 0.0
H1795 H 0.98491 0.71452 0.67932 0.0
H1796 H 0.88662 0.77526 0.73727 0.0
H1797 H 0.87145 0.75556 0.71275 0.0
H1798 H 0.9215 0.801 0.74558 0.0
H1799 H 0.9541 0.79991 0.75063 0.0
C1800 C 0.71554 0.20887 0.62097 0.0
C1801 C 0.71595 0.22299 0.6444 0.0
C1802 C 0.74545 0.26199 0.6282 0.0
C1803 C 0.74764 0.24658 0.60564 0.0
N1804 N 0.73491 0.20576 0.57989 0.0
N1805 N 0.731 0.26275 0.67089 0.0
C1806 C 0.73247 0.22021 0.60179 0.0
C1807 C 0.73059 0.24965 0.64808 0.0
N1808 N 0.69881 0.18469 0.61713 0.0
N1809 N 0.75778 0.28836 0.63059 0.0
H1810 H 0.71956 0.25485 0.6856 0.0
H1811 H 0.74353 0.28083 0.67574 0.0
H1812 H 0.76913 0.29776 0.61655 0.0
H1813 H 0.75533 0.3016 0.6457 0.0
H1814 H 0.69549 0.17438 0.60009 0.0
H1815 H 0.68671 0.17559 0.63092 0.0
H1816 H 0.72716 0.18537 0.57656 0.0
H1817 H 0.74565 0.21411 0.565 0.0
C1818 C 0.30375 0.29282 0.61439 0.0
C1819 C 0.32219 0.2762 0.60643 0.0
C1820 C 0.33209 0.30019 0.56929 0.0
C1821 C 0.3161 0.31885 0.57878 0.0
N1822 N 0.29174 0.33635 0.61305 0.0
N1823 N 0.35492 0.26431 0.57686 0.0
C1824 C 0.30294 0.3159 0.6019 0.0
C1825 C 0.33658 0.2799 0.58394 0.0
N1826 N 0.28754 0.28709 0.63434 0.0
N1827 N 0.34323 0.30221 0.54634 0.0
H1828 H 0.35729 0.24805 0.58615 0.0
H1829 H 0.36848 0.268 0.56238 0.0
H1830 H 0.34031 0.31689 0.53533 0.0
H1831 H 0.3538 0.28846 0.53746 0.0
H1832 H 0.27205 0.29702 0.6396 0.0
H1833 H 0.28813 0.27097 0.64451 0.0
H1834 H 0.28474 0.33686 0.63109 0.0
H1835 H 0.29204 0.35421 0.60513 0.0
C1836 C 0.39564 0.86559 0.65425 0.0
C1837 C 0.37681 0.87131 0.67282 0.0
C1838 C 0.34169 0.85556 0.64359 0.0
C1839 C 0.36027 0.84709 0.62611 0.0
N1840 N 0.40403 0.8388 0.617 0.0
N1841 N 0.33105 0.86639 0.68625 0.0
C1842 C 0.38697 0.85048 0.63222 0.0
C1843 C 0.34953 0.86471 0.66782 0.0
N1844 N 0.42182 0.87569 0.6571 0.0
N1845 N 0.31696 0.85632 0.63675 0.0
H1846 H 0.33593 0.87247 0.70423 0.0
H1847 H 0.31098 0.85933 0.68407 0.0
H1848 H 0.31102 0.85098 0.61899 0.0
H1849 H 0.30334 0.86475 0.64804 0.0
H1850 H 0.43611 0.87426 0.64322 0.0
H1851 H 0.42896 0.88804 0.67234 0.0
H1852 H 0.42324 0.83842 0.62145 0.0
H1853 H 0.39801 0.82703 0.60108 0.0
C1854 C 0.69031 0.86133 0.63579 0.0
C1855 C 0.6751 0.88064 0.63101 0.0
C1856 C 0.7059 0.895 0.5973 0.0
C1857 C 0.72165 0.87677 0.60295 0.0
N1858 N 0.73245 0.84682 0.63014 0.0
N1859 N 0.67112 0.91951 0.61053 0.0
C1860 C 0.71503 0.86143 0.62319 0.0
C1861 C 0.68371 0.89858 0.61271 0.0
N1862 N 0.68042 0.84171 0.65091 0.0
N1863 N 0.71179 0.90818 0.57669 0.0
H1864 H 0.65501 0.92304 0.62174 0.0
H1865 H 0.67802 0.93475 0.59914 0.0
H1866 H 0.72839 0.9064 0.56549 0.0
H1867 H 0.69942 0.9194 0.56988 0.0
H1868 H 0.68963 0.82566 0.65321 0.0
H1869 H 0.66173 0.83981 0.65935 0.0
H1870 H 0.73006 0.83717 0.64616 0.0
H1871 H 0.75056 0.84651 0.62092 0.0
C1872 C 0.70008 0.875 0.45931 0.0
C1873 C 0.7068 0.86434 0.43563 0.0
C1874 C 0.73489 0.8376 0.453 0.0
C1875 C 0.72842 0.84858 0.47668 0.0
N1876 N 0.70035 0.87228 0.50299 0.0
N1877 N 0.72577 0.83137 0.40997 0.0
C1878 C 0.70951 0.86556 0.47998 0.0
C1879 C 0.72243 0.84407 0.43254 0.0
N1880 N 0.68511 0.89461 0.46199 0.0
N1881 N 0.75427 0.82256 0.44989 0.0
H1882 H 0.71789 0.83638 0.39446 0.0
H1883 H 0.73459 0.81453 0.40687 0.0
H1884 H 0.76364 0.81712 0.46434 0.0
H1885 H 0.76233 0.81683 0.43297 0.0
H1886 H 0.68217 0.90564 0.47842 0.0
H1887 H 0.67651 0.90079 0.44742 0.0
H1888 H 0.68488 0.88263 0.50678 0.0
H1889 H 0.70669 0.86531 0.51838 0.0
C1890 C 0.75421 0.18896 0.44423 0.0
C1891 C 0.76554 0.20314 0.42399 0.0
C1892 C 0.79599 0.23406 0.45128 0.0
C1893 C 0.78426 0.2202 0.47144 0.0
N1894 N 0.75054 0.18707 0.48825 0.0
N1895 N 0.79556 0.24047 0.40816 0.0
C1896 C 0.76289 0.19833 0.46817 0.0
C1897 C 0.78592 0.22617 0.42755 0.0
N1898 N 0.73541 0.16626 0.44042 0.0
N1899 N 0.81724 0.25438 0.45496 0.0
H1900 H 0.7894 0.23471 0.39049 0.0
H1901 H 0.80874 0.25871 0.40949 0.0
H1902 H 0.82459 0.26069 0.47216 0.0
H1903 H 0.82849 0.2642 0.44115 0.0
H1904 H 0.72828 0.1532 0.4537 0.0
H1905 H 0.72759 0.15964 0.42345 0.0
H1906 H 0.73323 0.17276 0.48788 0.0
H1907 H 0.75688 0.19337 0.50581 0.0
C1908 C 0.3431 0.22413 0.48244 0.0
C1909 C 0.33484 0.21994 0.4581 0.0
C1910 C 0.29526 0.23856 0.47031 0.0
C1911 C 0.30357 0.24279 0.49456 0.0
N1912 N 0.33186 0.23505 0.52498 0.0
N1913 N 0.30154 0.21896 0.42907 0.0
C1914 C 0.32645 0.23413 0.501 0.0
C1915 C 0.31034 0.22576 0.45211 0.0
N1916 N 0.367 0.21884 0.48771 0.0
N1917 N 0.27308 0.24725 0.4648 0.0
H1918 H 0.3125 0.21047 0.41507 0.0
H1919 H 0.2828 0.22021 0.424 0.0
H1920 H 0.26078 0.25496 0.47811 0.0
H1921 H 0.26726 0.24782 0.44718 0.0
H1922 H 0.37564 0.22442 0.50442 0.0
H1923 H 0.37896 0.2099 0.47491 0.0
H1924 H 0.34662 0.22653 0.53135 0.0
H1925 H 0.32021 0.24278 0.53884 0.0
C1926 C 0.33131 0.82716 0.43551 0.0
C1927 C 0.3402 0.85519 0.43452 0.0
C1928 C 0.33188 0.86124 0.47888 0.0
C1929 C 0.32789 0.83295 0.48 0.0
N1930 N 0.33034 0.78945 0.45894 0.0
N1931 N 0.35256 0.89896 0.45634 0.0
C1932 C 0.32937 0.81601 0.4582 0.0
C1933 C 0.34111 0.87242 0.45647 0.0
N1934 N 0.32453 0.81111 0.41474 0.0
N1935 N 0.3278 0.87748 0.4993 0.0
H1936 H 0.3607 0.90772 0.44067 0.0
H1937 H 0.35623 0.91174 0.47214 0.0
H1938 H 0.32199 0.87001 0.5161 0.0
H1939 H 0.32801 0.89799 0.49906 0.0
H1940 H 0.31616 0.79077 0.41483 0.0
H1941 H 0.32456 0.81877 0.39787 0.0
H1942 H 0.33445 0.77718 0.44355 0.0
H1943 H 0.32893 0.78009 0.47504 0.0
C1944 C 0.62639 0.22867 0.7004 0.0
C1945 C 0.63519 0.20386 0.70068 0.0
C1946 C 0.59426 0.18611 0.72318 0.0
C1947 C 0.58441 0.20987 0.72049 0.0
N1948 N 0.58807 0.24863 0.69757 0.0
N1949 N 0.62203 0.15605 0.70458 0.0
C1950 C 0.59948 0.22947 0.7061 0.0
C1951 C 0.61733 0.18157 0.70949 0.0
N1952 N 0.64365 0.25193 0.69648 0.0
N1953 N 0.58313 0.16878 0.7399 0.0
H1954 H 0.63781 0.15173 0.6933 0.0
H1955 H 0.60851 0.13915 0.70933 0.0
H1956 H 0.56799 0.1725 0.75216 0.0
H1957 H 0.59126 0.15237 0.74352 0.0
H1958 H 0.63787 0.2706 0.69802 0.0
H1959 H 0.66397 0.25312 0.6948 0.0
H1960 H 0.59805 0.26234 0.68576 0.0
H1961 H 0.56788 0.24846 0.69991 0.0
C1962 C 0.33982 0.1869 0.71382 0.0
C1963 C 0.34536 0.18607 0.68835 0.0
C1964 C 0.33753 0.13672 0.68683 0.0
C1965 C 0.33786 0.13821 0.71256 0.0
N1966 N 0.34289 0.16562 0.75059 0.0
N1967 N 0.35021 0.15975 0.65026 0.0
C1968 C 0.33938 0.16349 0.72617 0.0
C1969 C 0.34388 0.16079 0.67462 0.0
N1970 N 0.33586 0.21041 0.72623 0.0
N1971 N 0.33138 0.11211 0.67419 0.0
H1972 H 0.35468 0.17683 0.64065 0.0
H1973 H 0.35254 0.14211 0.63988 0.0
H1974 H 0.32652 0.09438 0.68294 0.0
H1975 H 0.32863 0.10954 0.65553 0.0
H1976 H 0.32973 0.21181 0.74452 0.0
H1977 H 0.33613 0.2278 0.71747 0.0
H1978 H 0.3467 0.18396 0.76109 0.0
H1979 H 0.34468 0.14925 0.75992 0.0
C1980 C 0.45483 0.83481 0.78136 0.0
C1981 C 0.46582 0.8579 0.76886 0.0
C1982 C 0.51033 0.85187 0.77791 0.0
C1983 C 0.4994 0.82884 0.78999 0.0
N1984 N 0.46224 0.79469 0.79878 0.0
N1985 N 0.50415 0.88435 0.75012 0.0
C1986 C 0.47189 0.81907 0.79008 0.0
C1987 C 0.4937 0.86521 0.76555 0.0
N1988 N 0.4283 0.82893 0.78642 0.0
N1989 N 0.53657 0.86147 0.78007 0.0
H1990 H 0.49255 0.89413 0.74055 0.0
H1991 H 0.52404 0.88863 0.74489 0.0
H1992 H 0.54659 0.87951 0.77379 0.0
H1993 H 0.54659 0.87951 0.77379 0.0
H1994 H 0.41945 0.81411 0.79762 0.0
H1995 H 0.41522 0.84034 0.78114 0.0
H1996 H 0.44267 0.78498 0.79766 0.0
H1997 H 0.4746 0.78305 0.80512 0.0
C1998 C 0.72619 0.96805 0.69643 0.0
C1999 C 0.72761 0.94069 0.69825 0.0
C2000 C 0.77547 0.95266 0.70151 0.0
C2001 C 0.77391 0.97995 0.70042 0.0
N2002 N 0.74995 1.01342 0.69121 0.0
N2003 N 0.7536 0.90589 0.69611 0.0
C2004 C 0.74989 0.98745 0.69571 0.0
C2005 C 0.75235 0.93263 0.69859 0.0
N2006 N 0.70221 0.97569 0.697 0.0
N2007 N 0.79883 0.94625 0.70677 0.0
H2008 H 0.73691 0.89083 0.69382 0.0
H2009 H 0.77121 0.89872 0.69423 0.0
H2010 H 0.81611 0.96067 0.70828 0.0
H2011 H 0.80083 0.92714 0.71078 0.0
H2012 H 0.69981 0.99565 0.69846 0.0
H2013 H 0.68439 0.96208 0.69751 0.0
H2014 H 0.73359 0.02007 0.68571 0.0
H2015 H 0.76722 0.02787 0.69097 0.0
C2016 C 0.61221 0.82705 0.3248 0.0
C2017 C 0.61393 0.85386 0.33518 0.0
C2018 C 0.56941 0.85404 0.32198 0.0
C2019 C 0.56666 0.82628 0.31427 0.0
N2020 N 0.58399 0.78511 0.31203 0.0
N2021 N 0.59322 0.89211 0.3466 0.0
C2022 C 0.58763 0.81242 0.31678 0.0
C2023 C 0.59231 0.86726 0.33445 0.0
N2024 N 0.63431 0.81586 0.32166 0.0
N2025 N 0.55007 0.86768 0.31757 0.0
H2026 H 0.60947 0.90221 0.35621 0.0
H2027 H 0.57714 0.90178 0.34891 0.0
H2028 H 0.53266 0.85837 0.30928 0.0
H2029 H 0.55206 0.8885 0.32045 0.0
H2030 H 0.63477 0.79751 0.31166 0.0
H2031 H 0.65286 0.82604 0.32693 0.0
H2032 H 0.59744 0.77367 0.31651 0.0
H2033 H 0.56683 0.77355 0.30496 0.0
C2034 C 0.79559 0.13724 0.34355 0.0
C2035 C 0.76855 0.13679 0.35035 0.0
C2036 C 0.75764 0.09097 0.33041 0.0
C2037 C 0.78487 0.08997 0.32639 0.0
N2038 N 0.83007 0.11143 0.33213 0.0
N2039 N 0.72475 0.11053 0.35487 0.0
C2040 C 0.80397 0.11297 0.33373 0.0
C2041 C 0.74987 0.11284 0.34514 0.0
N2042 N 0.81315 0.16103 0.34573 0.0
N2043 N 0.73903 0.0718 0.31902 0.0
H2044 H 0.71832 0.12574 0.36626 0.0
H2045 H 0.71115 0.09249 0.35371 0.0
H2046 H 0.74378 0.05653 0.30665 0.0
H2047 H 0.71913 0.07299 0.31952 0.0
H2048 H 0.83251 0.16327 0.3388 0.0
H2049 H 0.80773 0.17911 0.35257 0.0
H2050 H 0.84474 0.12651 0.33953 0.0
H2051 H 0.83686 0.09408 0.32522 0.0
C2052 C 0.46034 0.27398 0.37028 0.0
C2053 C 0.45901 0.25082 0.38316 0.0
C2054 C 0.50722 0.2585 0.38364 0.0
C2055 C 0.50848 0.28181 0.37119 0.0
N2056 N 0.48739 0.3145 0.35582 0.0
N2057 N 0.4803 0.22329 0.40575 0.0
C2058 C 0.48529 0.29042 0.36557 0.0
C2059 C 0.48224 0.24383 0.39106 0.0
N2060 N 0.43784 0.27961 0.36184 0.0
N2061 N 0.52998 0.24982 0.38729 0.0
H2062 H 0.46229 0.21187 0.41114 0.0
H2063 H 0.49627 0.21877 0.41405 0.0
H2064 H 0.5485 0.26047 0.38228 0.0
H2065 H 0.53055 0.23142 0.39384 0.0
H2066 H 0.43764 0.29439 0.35008 0.0
H2067 H 0.41916 0.26843 0.36555 0.0
H2068 H 0.47141 0.32341 0.35312 0.0
H2069 H 0.50557 0.32664 0.35204 0.0
C2070 C 0.35648 0.96296 0.31904 0.0
C2071 C 0.3472 0.95574 0.34267 0.0
C2072 C 0.31672 0.98739 0.34358 0.0
C2073 C 0.32867 0.99731 0.32163 0.0
N2074 N 0.36451 0.99812 0.29148 0.0
N2075 N 0.32331 0.96705 0.37995 0.0
C2076 C 0.34979 0.98605 0.31011 0.0
C2077 C 0.32856 0.96949 0.35567 0.0
N2078 N 0.37111 0.94739 0.30474 0.0
N2079 N 0.2936 0.99432 0.35262 0.0
H2080 H 0.33317 0.95617 0.39016 0.0
H2081 H 0.31161 0.97861 0.39054 0.0
H2082 H 0.28359 1.00636 0.34379 0.0
H2083 H 0.28292 0.9856 0.36734 0.0
H2084 H 0.37609 0.95032 0.28652 0.0
H2085 H 0.37587 0.92986 0.31018 0.0
H2086 H 0.38172 0.9922 0.28417 0.0
H2087 H 0.36135 0.01586 0.28512 0.0
C2088 C 0.74686 0.1405 0.75055 0.0
C2089 C 0.7489 0.14225 0.72495 0.0
C2090 C 0.76922 0.10215 0.7198 0.0
C2091 C 0.76487 0.09882 0.74505 0.0
N2092 N 0.74691 0.11288 0.78419 0.0
N2093 N 0.75735 0.12187 0.6848 0.0
C2094 C 0.75294 0.11748 0.76038 0.0
C2095 C 0.75881 0.12228 0.70947 0.0
N2096 N 0.74031 0.16138 0.76554 0.0
N2097 N 0.78433 0.08683 0.70577 0.0
H2098 H 0.7496 0.13603 0.67641 0.0
H2099 H 0.76144 0.10603 0.67274 0.0
H2100 H 0.79283 0.07224 0.71261 0.0
H2101 H 0.79061 0.09037 0.68793 0.0
H2102 H 0.74113 0.16264 0.78439 0.0
H2103 H 0.73616 0.17867 0.75905 0.0
H2104 H 0.73566 0.12404 0.79573 0.0
H2105 H 0.75157 0.09653 0.79197 0.0
C2106 C 0.69475 0.95075 0.33847 0.0
C2107 C 0.69552 0.92341 0.33097 0.0
C2108 C 0.72171 0.93689 0.29424 0.0
C2109 C 0.72195 0.96417 0.30231 0.0
N2110 N 0.71307 0.99773 0.33357 0.0
N2111 N 0.7129 0.89034 0.30401 0.0
C2112 C 0.70969 0.97129 0.32489 0.0
C2113 C 0.71001 0.91644 0.3095 0.0
N2114 N 0.67903 0.95699 0.35807 0.0
N2115 N 0.73204 0.93067 0.2716 0.0
H2116 H 0.70453 0.87489 0.31482 0.0
H2117 H 0.72523 0.88425 0.28992 0.0
H2118 H 0.74077 0.94539 0.26017 0.0
H2119 H 0.73031 0.91116 0.2634 0.0
H2120 H 0.67527 0.97625 0.36282 0.0
H2121 H 0.66828 0.94253 0.36878 0.0
H2122 H 0.70702 1.00427 0.35102 0.0
H2123 H 0.72384 1.0131 0.32387 0.0
C2124 C 0.64854 0.2249 0.34947 0.0
C2125 C 0.67632 0.23341 0.34688 0.0
C2126 C 0.66923 0.26793 0.32068 0.0
C2127 C 0.64173 0.2621 0.3264 0.0
N2128 N 0.60505 0.23582 0.34732 0.0
N2129 N 0.71333 0.26436 0.33115 0.0
C2130 C 0.63129 0.2405 0.34079 0.0
C2131 C 0.68675 0.255 0.33241 0.0
N2132 N 0.63865 0.2015 0.35986 0.0
N2133 N 0.67853 0.28597 0.30394 0.0
H2134 H 0.72675 0.25563 0.33948 0.0
H2135 H 0.72202 0.28195 0.32335 0.0
H2136 H 0.66612 0.29557 0.29511 0.0
H2137 H 0.69794 0.28954 0.29714 0.0
H2138 H 0.61876 0.19268 0.36022 0.0
H2139 H 0.65067 0.1895 0.36612 0.0
H2140 H 0.59668 0.2228 0.3603 0.0
H2141 H 0.59175 0.24619 0.34074 0.0
C2142 C 0.39556 0.14547 0.35744 0.0
C2143 C 0.39195 0.17178 0.35379 0.0
C2144 C 0.37206 0.15525 0.3147 0.0
C2145 C 0.37395 0.12878 0.31925 0.0
N2146 N 0.3841 0.09755 0.34557 0.0
N2147 N 0.37451 0.20181 0.33058 0.0
C2148 C 0.38485 0.12358 0.34079 0.0
C2149 C 0.37961 0.17674 0.33281 0.0
N2150 N 0.40969 0.14158 0.37653 0.0
N2151 N 0.36355 0.15969 0.29276 0.0
H2152 H 0.38027 0.21816 0.34325 0.0
H2153 H 0.36315 0.20615 0.31708 0.0
H2154 H 0.3577 0.14413 0.27937 0.0
H2155 H 0.36394 0.17873 0.2871 0.0
H2156 H 0.41535 0.12344 0.37884 0.0
H2157 H 0.41746 0.15712 0.38929 0.0
H2158 H 0.38917 0.092 0.36206 0.0
H2159 H 0.37652 0.0812 0.33351 0.0
C2160 C 0.4253 0.84894 0.36585 0.0
C2161 C 0.39826 0.8447 0.36039 0.0
C2162 C 0.40495 0.80884 0.32894 0.0
C2163 C 0.43123 0.81138 0.336 0.0
N2164 N 0.46598 0.83136 0.36263 0.0
N2165 N 0.36127 0.81828 0.33909 0.0
C2166 C 0.44132 0.83087 0.35482 0.0
C2167 C 0.38779 0.82405 0.34249 0.0
N2168 N 0.43569 0.87056 0.38122 0.0
N2169 N 0.39673 0.79243 0.30874 0.0
H2170 H 0.34805 0.82907 0.34845 0.0
H2171 H 0.35208 0.80156 0.32834 0.0
H2172 H 0.40893 0.78109 0.29852 0.0
H2173 H 0.37875 0.79175 0.30096 0.0
H2174 H 0.45573 0.87637 0.38419 0.0
H2175 H 0.42444 0.88407 0.38963 0.0
H2176 H 0.47378 0.84319 0.37786 0.0
H2177 H 0.478 0.81826 0.35487 0.0
C2178 C 0.36392 0.94708 0.75863 0.0
C2179 C 0.38548 0.94605 0.74165 0.0
C2180 C 0.3935 0.99559 0.74235 0.0
C2181 C 0.37325 0.99688 0.76083 0.0
N2182 N 0.34254 0.97359 0.7897 0.0
N2183 N 0.42362 0.96957 0.72052 0.0
C2184 C 0.35934 0.9725 0.76978 0.0
C2185 C 0.40113 0.97041 0.73455 0.0
N2186 N 0.3474 0.92372 0.76374 0.0
N2187 N 0.40447 0.01811 0.73104 0.0
H2188 H 0.42951 0.95161 0.714 0.0
H2189 H 0.43757 0.98664 0.71708 0.0
H2190 H 0.3992 0.03677 0.73549 0.0
H2191 H 0.41697 0.01781 0.71562 0.0
H2192 H 0.3296 0.92315 0.77365 0.0
H2193 H 0.35048 0.90481 0.75649 0.0
H2194 H 0.33384 0.95678 0.79865 0.0
H2195 H 0.33924 0.99164 0.7988 0.0
C2196 C 0.64674 0.89617 0.76957 0.0
C2197 C 0.6663 0.88514 0.75514 0.0
C2198 C 0.66551 0.85117 0.78397 0.0
C2199 C 0.64576 0.86204 0.79839 0.0
N2200 N 0.62197 0.89817 0.80819 0.0
N2201 N 0.69877 0.85663 0.75115 0.0
C2202 C 0.63778 0.88564 0.79218 0.0
C2203 C 0.67728 0.86424 0.76332 0.0
N2204 N 0.6363 0.91625 0.7613 0.0
N2205 N 0.67161 0.82722 0.78878 0.0
H2206 H 0.70718 0.86481 0.73528 0.0
H2207 H 0.70965 0.84385 0.75783 0.0
H2208 H 0.66342 0.81658 0.80342 0.0
H2209 H 0.68335 0.81671 0.77715 0.0
H2210 H 0.61978 0.92292 0.76932 0.0
H2211 H 0.64347 0.92549 0.74556 0.0
H2212 H 0.6172 0.91674 0.8059 0.0
H2213 H 0.61548 0.89106 0.82502 0.0
C2214 C 0.42446 0.27896 0.71011 0.0
C2215 C 0.42354 0.25937 0.68992 0.0
C2216 C 0.46725 0.25165 0.69858 0.0
C2217 C 0.46722 0.26968 0.71976 0.0
N2218 N 0.45069 0.30637 0.74169 0.0
N2219 N 0.44629 0.23271 0.66092 0.0
C2220 C 0.44746 0.28547 0.72405 0.0
C2221 C 0.44586 0.24772 0.68275 0.0
N2222 N 0.40279 0.29003 0.7168 0.0
N2223 N 0.48719 0.23743 0.69437 0.0
H2224 H 0.43076 0.22966 0.6491 0.0
H2225 H 0.46265 0.2252 0.6536 0.0
H2226 H 0.50375 0.24108 0.705 0.0
H2227 H 0.48706 0.22159 0.68097 0.0
H2228 H 0.40099 0.30197 0.73294 0.0
H2229 H 0.38589 0.2862 0.70666 0.0
H2230 H 0.43801 0.32005 0.74478 0.0
H2231 H 0.46771 0.31149 0.75165 0.0
C2232 C 0.69478 0.72943 0.12552 0.0
C2233 C 0.6986 0.74135 0.14966 0.0
C2234 C 0.72626 0.78153 0.13395 0.0
C2235 C 0.72432 0.7686 0.1101 0.0
N2236 N 0.70859 0.7302 0.08269 0.0
N2237 N 0.71931 0.77769 0.17743 0.0
C2238 C 0.70896 0.74254 0.10576 0.0
C2239 C 0.71458 0.76725 0.15403 0.0
N2240 N 0.67726 0.70579 0.12154 0.0
N2241 N 0.73927 0.80758 0.13721 0.0
H2242 H 0.71057 0.76812 0.19255 0.0
H2243 H 0.73304 0.795 0.18203 0.0
H2244 H 0.74886 0.81805 0.12291 0.0
H2245 H 0.73935 0.81937 0.15365 0.0
H2246 H 0.67159 0.69719 0.10437 0.0
H2247 H 0.66686 0.69551 0.13563 0.0
H2248 H 0.70022 0.71013 0.07834 0.0
H2249 H 0.71803 0.73987 0.06787 0.0
C2250 C 0.31721 0.77775 0.09279 0.0
C2251 C 0.30814 0.75028 0.09727 0.0
C2252 C 0.28508 0.74314 0.05889 0.0
C2253 C 0.29768 0.76911 0.0526 0.0
N2254 N 0.32717 0.81084 0.06289 0.0
N2255 N 0.28594 0.70583 0.08278 0.0
C2256 C 0.31404 0.78644 0.06943 0.0
C2257 C 0.29255 0.73276 0.07992 0.0
N2258 N 0.32769 0.79584 0.11116 0.0
N2259 N 0.26535 0.72856 0.04505 0.0
H2260 H 0.29131 0.6971 0.0976 0.0
H2261 H 0.27725 0.69172 0.06931 0.0
H2262 H 0.25892 0.73567 0.0298 0.0
H2263 H 0.25351 0.71081 0.05014 0.0
H2264 H 0.33236 0.8165 0.1097 0.0
H2265 H 0.3291 0.79055 0.12875 0.0
H2266 H 0.34173 0.82311 0.07322 0.0
H2267 H 0.32474 0.818 0.04624 0.0
C2268 C 0.36068 0.33471 0.16436 0.0
C2269 C 0.38613 0.35123 0.16256 0.0
C2270 C 0.38723 0.34005 0.11794 0.0
C2271 C 0.36093 0.32551 0.11964 0.0
N2272 N 0.32479 0.30385 0.14417 0.0
N2273 N 0.42501 0.3677 0.13838 0.0
C2274 C 0.34836 0.32133 0.14286 0.0
C2275 C 0.39993 0.35306 0.13952 0.0
N2276 N 0.34817 0.3322 0.18673 0.0
N2277 N 0.39968 0.34184 0.09551 0.0
H2278 H 0.43437 0.37815 0.15358 0.0
H2279 H 0.43702 0.36942 0.12268 0.0
H2280 H 0.39154 0.33089 0.07998 0.0
H2281 H 0.41809 0.35343 0.092 0.0
H2282 H 0.32856 0.32323 0.18957 0.0
H2283 H 0.35738 0.33974 0.2029 0.0
H2284 H 0.31474 0.29818 0.16024 0.0
H2285 H 0.31599 0.29323 0.12878 0.0
C2286 C 0.81219 0.40079 0.11582 0.0
C2287 C 0.79563 0.38265 0.13072 0.0
C2288 C 0.78276 0.35214 0.09461 0.0
C2289 C 0.80127 0.3689 0.08021 0.0
N2290 N 0.83657 0.40683 0.07727 0.0
N2291 N 0.76966 0.33832 0.13491 0.0
C2292 C 0.81682 0.39261 0.09088 0.0
C2293 C 0.78204 0.35756 0.12031 0.0
N2294 N 0.82264 0.42622 0.1252 0.0
N2295 N 0.7653 0.33152 0.08362 0.0
H2296 H 0.76968 0.34099 0.15384 0.0
H2297 H 0.76176 0.31873 0.12829 0.0
H2298 H 0.76491 0.32748 0.06478 0.0
H2299 H 0.74966 0.32016 0.09298 0.0
H2300 H 0.83259 0.44116 0.1146 0.0
H2301 H 0.81936 0.43326 0.14324 0.0
H2302 H 0.85047 0.42277 0.08456 0.0
H2303 H 0.8404 0.40115 0.05898 0.0
C2304 C 0.71633 0.32449 0.93736 0.0
C2305 C 0.72122 0.31847 0.91208 0.0
C2306 C 0.75981 0.30012 0.92102 0.0
C2307 C 0.7576 0.31046 0.9456 0.0
N2308 N 0.73394 0.33221 0.97781 0.0
N2309 N 0.74695 0.29981 0.87945 0.0
C2310 C 0.73562 0.32213 0.95407 0.0
C2311 C 0.74273 0.30593 0.9038 0.0
N2312 N 0.69348 0.3328 0.94532 0.0
N2313 N 0.77782 0.28406 0.91442 0.0
H2314 H 0.73375 0.30182 0.86647 0.0
H2315 H 0.76403 0.29383 0.87195 0.0
H2316 H 0.78928 0.27828 0.92713 0.0
H2317 H 0.77938 0.2741 0.89722 0.0
H2318 H 0.68749 0.33496 0.96358 0.0
H2319 H 0.6794 0.33567 0.93357 0.0
H2320 H 0.72037 0.34402 0.98457 0.0
H2321 H 0.74705 0.32972 0.99068 0.0
C2322 C 0.80913 0.73149 0.94936 0.0
C2323 C 0.78443 0.71524 0.94322 0.0
C2324 C 0.76813 0.72231 0.98565 0.0
C2325 C 0.79233 0.73976 0.99143 0.0
N2326 N 0.8387 0.7521 0.98124 0.0
N2327 N 0.74357 0.68871 0.95705 0.0
C2328 C 0.81381 0.74138 0.97412 0.0
C2329 C 0.76491 0.70859 0.96192 0.0
N2330 N 0.82761 0.7389 0.93138 0.0
N2331 N 0.74804 0.71922 1.00291 0.0
H2332 H 0.74096 0.67801 0.94003 0.0
H2333 H 0.72972 0.6811 0.97025 0.0
H2334 H 0.75062 0.72677 0.02102 0.0
H2335 H 0.72878 0.7099 0.99923 0.0
H2336 H 0.84488 0.75288 0.93438 0.0
H2337 H 0.82485 0.73265 0.91305 0.0
H2338 H 0.85543 0.75115 0.97004 0.0
H2339 H 0.84296 0.75924 0.99911 0.0
C2340 C 0.37513 0.77961 0.92335 0.0
C2341 C 0.37687 0.76372 0.90102 0.0
C2342 C 0.3296 0.74551 0.90496 0.0
C2343 C 0.32874 0.75862 0.9286 0.0
N2344 N 0.35277 0.78227 0.96277 0.0
N2345 N 0.35685 0.72465 0.87531 0.0
C2346 C 0.35209 0.77411 0.93853 0.0
C2347 C 0.35439 0.74483 0.89289 0.0
N2348 N 0.39523 0.80023 0.92997 0.0
N2349 N 0.30679 0.73385 0.89397 0.0
H2350 H 0.37502 0.72075 0.86866 0.0
H2351 H 0.34114 0.70939 0.87017 0.0
H2352 H 0.28827 0.73454 0.90222 0.0
H2353 H 0.30637 0.72601 0.87584 0.0
H2354 H 0.39372 0.8139 0.94503 0.0
H2355 H 0.41229 0.80536 0.91913 0.0
H2356 H 0.37003 0.79158 0.97127 0.0
H2357 H 0.33691 0.77682 0.97487 0.0
C2358 C 0.34895 0.33801 0.9334 0.0
C2359 C 0.36172 0.36409 0.92752 0.0
C2360 C 0.35432 0.38052 0.9701 0.0
C2361 C 0.34703 0.35377 0.97675 0.0
N2362 N 0.34386 0.30632 0.96396 0.0
N2363 N 0.38178 0.40931 0.94284 0.0
C2364 C 0.3458 0.33217 0.9582 0.0
C2365 C 0.36567 0.38528 0.94651 0.0
N2366 N 0.33982 0.31881 0.91537 0.0
N2367 N 0.35035 0.40145 0.98632 0.0
H2368 H 0.39258 0.41315 0.92666 0.0
H2369 H 0.38684 0.42428 0.95689 0.0
H2370 H 0.34102 0.39847 1.00335 0.0
H2371 H 0.35353 0.42127 0.98171 0.0
H2372 H 0.32894 0.29999 0.91889 0.0
H2373 H 0.34067 0.32281 0.89714 0.0
H2374 H 0.34496 0.29037 0.95086 0.0
H2375 H 0.34469 0.30122 0.98165 0.0
C2376 C 0.62642 0.74412 0.23044 0.0
C2377 C 0.62628 0.72114 0.21369 0.0
C2378 C 0.57893 0.70621 0.22269 0.0
C2379 C 0.57883 0.7298 0.2385 0.0
N2380 N 0.60118 0.77329 0.25477 0.0
N2381 N 0.60221 0.68213 0.19113 0.0
C2382 C 0.60222 0.74941 0.24152 0.0
C2383 C 0.60244 0.70265 0.20904 0.0
N2384 N 0.64985 0.76033 0.23646 0.0
N2385 N 0.55644 0.68715 0.221 0.0
H2386 H 0.61909 0.67891 0.18095 0.0
H2387 H 0.58515 0.66942 0.18513 0.0
H2388 H 0.53873 0.68994 0.22992 0.0
H2389 H 0.55556 0.66813 0.21193 0.0
H2390 H 0.65172 0.77551 0.25061 0.0
H2391 H 0.66794 0.75737 0.22849 0.0
H2392 H 0.61676 0.78963 0.25561 0.0
H2393 H 0.58399 0.77761 0.26354 0.0
C2394 C 0.33506 0.66669 0.20794 0.0
C2395 C 0.33753 0.6685 0.18237 0.0
C2396 C 0.32477 0.61913 0.17709 0.0
C2397 C 0.32821 0.61746 0.20217 0.0
N2398 N 0.34359 0.64102 0.24009 0.0
N2399 N 0.33796 0.64481 0.14225 0.0
C2400 C 0.33485 0.64161 0.21739 0.0
C2401 C 0.33288 0.64428 0.16674 0.0
N2402 N 0.3335 0.68907 0.22325 0.0
N2403 N 0.31388 0.59657 0.16317 0.0
H2404 H 0.34508 0.66242 0.13388 0.0
H2405 H 0.33743 0.62742 0.13054 0.0
H2406 H 0.3073 0.57816 0.17051 0.0
H2407 H 0.30889 0.5969 0.14521 0.0
H2408 H 0.32988 0.68832 0.24196 0.0
H2409 H 0.33294 0.70763 0.21685 0.0
H2410 H 0.35076 0.6584 0.2511 0.0
H2411 H 0.34677 0.6234 0.24659 0.0
C2412 C 0.48099 0.31241 0.24987 0.0
C2413 C 0.48359 0.3372 0.23901 0.0
C2414 C 0.52966 0.34929 0.25173 0.0
C2415 C 0.5261 0.32595 0.26478 0.0
N2416 N 0.49761 0.28635 0.27815 0.0
N2417 N 0.51031 0.37976 0.23008 0.0
C2418 C 0.50165 0.30762 0.2641 0.0
C2419 C 0.50791 0.35582 0.24017 0.0
N2420 N 0.45863 0.29336 0.24667 0.0
N2421 N 0.55431 0.3647 0.24967 0.0
H2422 H 0.49584 0.38441 0.21975 0.0
H2423 H 0.52609 0.39567 0.23289 0.0
H2424 H 0.57067 0.3601 0.25739 0.0
H2425 H 0.55921 0.38052 0.23859 0.0
H2426 H 0.45675 0.27369 0.25136 0.0
H2427 H 0.4423 0.29665 0.23801 0.0
H2428 H 0.47929 0.27426 0.28122 0.0
H2429 H 0.51243 0.28165 0.28801 0.0
C2430 C 0.79103 0.4891 0.2267 0.0
C2431 C 0.79615 0.46389 0.232 0.0
C2432 C 0.83863 0.48598 0.2485 0.0
C2433 C 0.83423 0.51095 0.24159 0.0
N2434 N 0.80952 0.53498 0.21868 0.0
N2435 N 0.82558 0.4373 0.2454 0.0
C2436 C 0.81123 0.51225 0.22939 0.0
C2437 C 0.82016 0.46204 0.24229 0.0
N2438 N 0.76685 0.49094 0.219 0.0
N2439 N 0.8604 0.48524 0.26113 0.0
H2440 H 0.81201 0.41945 0.24214 0.0
H2441 H 0.84388 0.43419 0.25009 0.0
H2442 H 0.87479 0.50222 0.26527 0.0
H2443 H 0.86328 0.4684 0.2692 0.0
H2444 H 0.76111 0.50921 0.21731 0.0
H2445 H 0.75174 0.4743 0.21613 0.0
H2446 H 0.7951 0.53558 0.20648 0.0
H2447 H 0.82374 0.55255 0.22029 0.0
C2448 C 0.64829 0.31755 0.79943 0.0
C2449 C 0.64591 0.33743 0.81872 0.0
C2450 C 0.59827 0.33076 0.81348 0.0
C2451 C 0.60022 0.30879 0.79595 0.0
N2452 N 0.62677 0.27972 0.77349 0.0
N2453 N 0.61917 0.3621 0.84573 0.0
C2454 C 0.62517 0.30182 0.78922 0.0
C2455 C 0.62105 0.34395 0.82608 0.0
N2456 N 0.67274 0.31412 0.79048 0.0
N2457 N 0.57464 0.33887 0.81828 0.0
H2458 H 0.6355 0.37247 0.85509 0.0
H2459 H 0.60141 0.3656 0.85393 0.0
H2460 H 0.55719 0.32909 0.81046 0.0
H2461 H 0.57251 0.35649 0.82876 0.0
H2462 H 0.67592 0.30235 0.77454 0.0
H2463 H 0.69017 0.32468 0.79797 0.0
H2464 H 0.64368 0.27141 0.77049 0.0
H2465 H 0.61076 0.26864 0.76429 0.0
C2466 C 0.78155 0.63169 0.85784 0.0
C2467 C 0.79738 0.6568 0.86538 0.0
C2468 C 0.83663 0.63996 0.84753 0.0
C2469 C 0.82031 0.61599 0.83781 0.0
N2470 N 0.7761 0.59206 0.82954 0.0
N2471 N 0.83963 0.68656 0.8638 0.0
C2472 C 0.79245 0.61283 0.84162 0.0
C2473 C 0.82489 0.6614 0.85929 0.0
N2474 N 0.75629 0.62517 0.8671 0.0
N2475 N 0.86338 0.64231 0.84551 0.0
H2476 H 0.83168 0.70277 0.87189 0.0
H2477 H 0.85913 0.69197 0.85761 0.0
H2478 H 0.87259 0.62769 0.836 0.0
H2479 H 0.87635 0.65786 0.85453 0.0
H2480 H 0.74479 0.60601 0.86439 0.0
H2481 H 0.74775 0.63793 0.87965 0.0
H2482 H 0.75574 0.59061 0.82965 0.0
H2483 H 0.78278 0.57775 0.81738 0.0
C2484 C 0.52166 0.74983 0.8486 0.0
C2485 C 0.49865 0.75304 0.86301 0.0
C2486 C 0.52639 0.78362 0.89222 0.0
C2487 C 0.54927 0.77959 0.87796 0.0
N2488 N 0.5672 0.74685 0.85162 0.0
N2489 N 0.48178 0.76348 0.90383 0.0
C2490 C 0.54656 0.759 0.85884 0.0
C2491 C 0.50181 0.7669 0.88659 0.0
N2492 N 0.52035 0.7399 0.82482 0.0
N2493 N 0.52753 0.80417 0.91014 0.0
H2494 H 0.46428 0.7497 0.90093 0.0
H2495 H 0.48394 0.77176 0.92175 0.0
H2496 H 0.54477 0.81778 0.91428 0.0
H2497 H 0.5107 0.80916 0.91925 0.0
H2498 H 0.53726 0.73891 0.81382 0.0
H2499 H 0.50295 0.73579 0.81544 0.0
H2500 H 0.56532 0.73001 0.83904 0.0
H2501 H 0.58485 0.75181 0.86068 0.0
C2502 C 0.39766 0.46607 0.81886 0.0
C2503 C 0.37775 0.44253 0.81739 0.0
C2504 C 0.35414 0.46257 0.78868 0.0
C2505 C 0.37373 0.48624 0.79057 0.0
N2506 N 0.41203 0.51253 0.80928 0.0
N2507 N 0.33531 0.41935 0.8039 0.0
C2508 C 0.39484 0.48857 0.8063 0.0
C2509 C 0.35551 0.44102 0.80304 0.0
N2510 N 0.41979 0.46639 0.83135 0.0
N2511 N 0.33432 0.46082 0.77295 0.0
H2512 H 0.33563 0.40339 0.81438 0.0
H2513 H 0.31742 0.41786 0.79574 0.0
H2514 H 0.33204 0.47687 0.76333 0.0
H2515 H 0.32083 0.4433 0.76849 0.0
H2516 H 0.43633 0.48168 0.8311 0.0
H2517 H 0.42238 0.45044 0.84095 0.0
H2518 H 0.42632 0.51688 0.82231 0.0
H2519 H 0.41097 0.52884 0.79948 0.0
C2520 C 0.74262 0.62368 0.19999 0.0
C2521 C 0.73721 0.64715 0.21385 0.0
C2522 C 0.75125 0.63099 0.25062 0.0
C2523 C 0.75854 0.60872 0.23638 0.0
N2524 N 0.76572 0.58617 0.19716 0.0
N2525 N 0.74128 0.67577 0.2514 0.0
C2526 C 0.75551 0.60576 0.21093 0.0
C2527 C 0.74279 0.65153 0.23896 0.0
N2528 N 0.73443 0.61787 0.17667 0.0
N2529 N 0.75174 0.63203 0.27537 0.0
H2530 H 0.736 0.69162 0.24336 0.0
H2531 H 0.74765 0.6811 0.26903 0.0
H2532 H 0.75789 0.61726 0.28431 0.0
H2533 H 0.74407 0.64622 0.28701 0.0
H2534 H 0.73532 0.59969 0.16657 0.0
H2535 H 0.72448 0.63016 0.16808 0.0
H2536 H 0.76668 0.58453 0.17822 0.0
H2537 H 0.77546 0.57303 0.20479 0.0
C2538 C 0.74366 0.41748 0.809 0.0
C2539 C 0.71911 0.4167 0.82191 0.0
C2540 C 0.72237 0.46487 0.81835 0.0
C2541 C 0.7487 0.46638 0.80952 0.0
N2542 N 0.78569 0.44472 0.79851 0.0
N2543 N 0.68524 0.43978 0.84024 0.0
C2544 C 0.75961 0.44278 0.80498 0.0
C2545 C 0.70823 0.44037 0.82665 0.0
N2546 N 0.75162 0.39405 0.80053 0.0
N2547 N 0.71122 0.4872 0.81903 0.0
H2548 H 0.67442 0.42228 0.84688 0.0
H2549 H 0.67783 0.45695 0.84645 0.0
H2550 H 0.72154 0.5053 0.81303 0.0
H2551 H 0.69137 0.48714 0.82335 0.0
H2552 H 0.76818 0.39338 0.78902 0.0
H2553 H 0.74026 0.37515 0.80311 0.0
H2554 H 0.79552 0.42857 0.7976 0.0
H2555 H 0.79802 0.463 0.79584 0.0
C2556 C 0.70195 0.74264 0.82217 0.0
C2557 C 0.69931 0.72374 0.84003 0.0
C2558 C 0.6513 0.72227 0.84257 0.0
C2559 C 0.65393 0.74022 0.82405 0.0
N2560 N 0.68058 0.76356 0.79305 0.0
N2561 N 0.67089 0.69181 0.86398 0.0
C2562 C 0.67896 0.74919 0.8129 0.0
C2563 C 0.67381 0.71264 0.84948 0.0
N2564 N 0.7265 0.75531 0.81486 0.0
N2565 N 0.62711 0.71446 0.85352 0.0
H2566 H 0.68669 0.68374 0.86891 0.0
H2567 H 0.65271 0.68098 0.86952 0.0
H2568 H 0.61015 0.71936 0.84733 0.0
H2569 H 0.624 0.70421 0.86919 0.0
H2570 H 0.72982 0.77128 0.80388 0.0
H2571 H 0.74377 0.75149 0.82147 0.0
H2572 H 0.69772 0.76856 0.78235 0.0
H2573 H 0.66401 0.76851 0.78603 0.0
C2574 C 0.41737 0.65996 0.836 0.0
C2575 C 0.42889 0.68136 0.82178 0.0
C2576 C 0.40942 0.65614 0.78529 0.0
C2577 C 0.39884 0.63416 0.79922 0.0
N2578 N 0.39713 0.61281 0.83659 0.0
N2579 N 0.44106 0.69777 0.78254 0.0
C2580 C 0.40412 0.63535 0.82425 0.0
C2581 C 0.4267 0.67865 0.79624 0.0
N2582 N 0.4182 0.66355 0.86078 0.0
N2583 N 0.40166 0.65632 0.76206 0.0
H2584 H 0.4538 0.71455 0.79018 0.0
H2585 H 0.44229 0.6957 0.7636 0.0
H2586 H 0.38813 0.64079 0.75361 0.0
H2587 H 0.40656 0.673 0.75197 0.0
H2588 H 0.40741 0.65003 0.8723 0.0
H2589 H 0.42857 0.68091 0.86995 0.0
H2590 H 0.40284 0.61167 0.85416 0.0
H2591 H 0.38747 0.59445 0.82852 0.0
C2592 C 0.43922 0.32819 0.87306 0.0
C2593 C 0.42298 0.33918 0.85829 0.0
C2594 C 0.44743 0.32268 0.82268 0.0
C2595 C 0.45962 0.30722 0.83714 0.0
N2596 N 0.45862 0.28926 0.87629 0.0
N2597 N 0.40651 0.33696 0.81768 0.0
C2598 C 0.45281 0.30798 0.86242 0.0
C2599 C 0.42534 0.33329 0.83264 0.0
N2600 N 0.44337 0.33799 0.89664 0.0
N2601 N 0.45795 0.32956 0.8005 0.0
H2602 H 0.38866 0.34202 0.82428 0.0
H2603 H 0.40746 0.33154 0.799 0.0
H2604 H 0.47661 0.32651 0.7943 0.0
H2605 H 0.44994 0.34208 0.7903 0.0
H2606 H 0.45639 0.33117 0.90722 0.0
H2607 H 0.43681 0.35516 0.90437 0.0
H2608 H 0.45263 0.28862 0.89461 0.0
H2609 H 0.46623 0.27261 0.86873 0.0
C2610 C 0.35638 0.42249 0.2335 0.0
C2611 C 0.38414 0.4267 0.22918 0.0
C2612 C 0.38672 0.47325 0.24844 0.0
C2613 C 0.35876 0.46949 0.2504 0.0
N2614 N 0.31789 0.44304 0.23603 0.0
N2615 N 0.42511 0.45875 0.22798 0.0
C2616 C 0.34389 0.44483 0.24035 0.0
C2617 C 0.39918 0.45289 0.23538 0.0
N2618 N 0.34181 0.39702 0.23214 0.0
N2619 N 0.40145 0.49582 0.25959 0.0
H2620 H 0.43462 0.44487 0.21774 0.0
H2621 H 0.43639 0.47808 0.22991 0.0
H2622 H 0.39305 0.51102 0.26909 0.0
H2623 H 0.42178 0.49841 0.26101 0.0
H2624 H 0.32182 0.39291 0.2372 0.0
H2625 H 0.35022 0.3799 0.22882 0.0
H2626 H 0.30667 0.42618 0.22691 0.0
H2627 H 0.30861 0.45962 0.23872 0.0
C2628 C 0.68953 0.40304 0.24117 0.0
C2629 C 0.71395 0.39603 0.24579 0.0
C2630 C 0.69328 0.37161 0.2803 0.0
C2631 C 0.66864 0.37704 0.27455 0.0
N2632 N 0.642 0.39432 0.24804 0.0
N2633 N 0.73908 0.3716 0.26791 0.0
C2634 C 0.66642 0.39184 0.25458 0.0
C2635 C 0.71585 0.37974 0.2649 0.0
N2636 N 0.68861 0.42098 0.22442 0.0
N2637 N 0.695 0.35919 0.30087 0.0
H2638 H 0.75609 0.37758 0.25722 0.0
H2639 H 0.7412 0.3576 0.27987 0.0
H2640 H 0.67864 0.35293 0.31226 0.0
H2641 H 0.71266 0.3567 0.3076 0.0
H2642 H 0.67205 0.42912 0.22202 0.0
H2643 H 0.70509 0.42936 0.21405 0.0
H2644 H 0.63856 0.40239 0.23217 0.0
H2645 H 0.62479 0.38635 0.25767 0.0
C2646 C 0.43464 0.74122 0.18003 0.0
C2647 C 0.41005 0.74867 0.18705 0.0
C2648 C 0.42917 0.77489 0.2235 0.0
C2649 C 0.45321 0.76592 0.2173 0.0
N2650 N 0.48133 0.74654 0.18761 0.0
N2651 N 0.38513 0.77727 0.21191 0.0
C2652 C 0.45674 0.75111 0.19474 0.0
C2653 C 0.40783 0.76728 0.20755 0.0
N2654 N 0.43644 0.72382 0.15985 0.0
N2655 N 0.42629 0.78921 0.24539 0.0
H2656 H 0.36886 0.77144 0.20104 0.0
H2657 H 0.38296 0.79275 0.22514 0.0
H2658 H 0.44183 0.79598 0.25698 0.0
H2659 H 0.40844 0.79358 0.25259 0.0
H2660 H 0.4528 0.71507 0.15504 0.0
H2661 H 0.42094 0.71731 0.14815 0.0
H2662 H 0.48605 0.73756 0.17066 0.0
H2663 H 0.49769 0.75387 0.19817 0.0
loop_
_geom_bond_atom_site_label_1
_geom_bond_atom_site_label_2
_geom_bond_distance
_geom_bond_site_symmetry_2
_ccdc_geom_bond_type
H0 C5 0.930 . S
H1 C8 0.930 . S
H2 C10 0.930 . S
H3 C4 1.016 . S
C4 H3 1.016 . S
C4 N11 1.286 . S
C5 H0 0.930 . S
C5 C6 1.397 . S
C5 C7 1.361 . S
C6 C5 1.397 . S
C6 C10 1.390 . S
C7 C5 1.361 . S
C7 C8 1.393 . S
C7 N11 1.413 . S
C8 H1 0.930 . S
C8 C7 1.393 . S
C8 C9 1.399 . S
C9 C8 1.399 . S
C9 C10 1.381 . S
C10 H2 0.930 . S
C10 C6 1.390 . S
C10 C9 1.381 . S
N11 C4 1.286 . S
N11 C7 1.413 . S
H12 C17 0.930 . S
H13 C20 0.930 . S
H14 C22 0.930 . S
H15 C16 1.016 . S
C16 H15 1.016 . S
C16 N23 1.286 . S
C17 H12 0.930 . S
C17 C18 1.397 . S
C17 C19 1.361 . S
C18 C17 1.397 . S
C18 C22 1.390 . S
C19 C17 1.361 . S
C19 C20 1.393 . S
C19 N23 1.413 . S
C20 H13 0.930 . S
C20 C19 1.393 . S
C20 C21 1.399 . S
C21 C20 1.399 . S
C21 C22 1.381 . S
C22 H14 0.930 . S
C22 C18 1.390 . S
C22 C21 1.381 . S
N23 C16 1.286 . S
N23 C19 1.413 . S
H24 C29 0.930 . S
H25 C32 0.930 . S
H26 C34 0.930 . S
H27 C28 1.016 . S
C28 H27 1.016 . S
C28 N35 1.286 . S
C29 H24 0.930 . S
C29 C30 1.397 . S
C29 C31 1.361 . S
C30 C29 1.397 . S
C30 C34 1.390 . S
C31 C29 1.361 . S
C31 C32 1.393 . S
C31 N35 1.413 . S
C32 H25 0.930 . S
C32 C31 1.393 . S
C32 C33 1.399 . S
C33 C32 1.399 . S
C33 C34 1.381 . S
C34 H26 0.930 . S
C34 C30 1.390 . S
C34 C33 1.381 . S
N35 C28 1.286 . S
N35 C31 1.413 . S
H36 C41 0.930 . S
H37 C44 0.930 . S
H38 C46 0.930 . S
H39 C40 1.016 . S
C40 H39 1.016 . S
C40 N47 1.286 . S
C41 H36 0.930 . S
C41 C42 1.397 . S
C41 C43 1.361 . S
C42 C41 1.397 . S
C42 C46 1.390 . S
C43 C41 1.361 . S
C43 C44 1.393 . S
C43 N47 1.413 . S
C44 H37 0.930 . S
C44 C43 1.393 . S
C44 C45 1.399 . S
C45 C44 1.399 . S
C45 C46 1.381 . S
C46 H38 0.930 . S
C46 C42 1.390 . S
C46 C45 1.381 . S
N47 C40 1.286 . S
N47 C43 1.413 . S
H48 C53 0.930 . S
H49 C56 0.930 . S
H50 C58 0.930 . S
H51 C52 1.016 . S
C52 H51 1.016 . S
C52 N59 1.286 . S
C53 H48 0.930 . S
C53 C54 1.397 . S
C53 C55 1.361 . S
C54 C53 1.397 . S
C54 C58 1.390 . S
C55 C53 1.361 . S
C55 C56 1.393 . S
C55 N59 1.413 . S
C56 H49 0.930 . S
C56 C55 1.393 . S
C56 C57 1.399 . S
C57 C56 1.399 . S
C57 C58 1.381 . S
C58 H50 0.930 . S
C58 C54 1.390 . S
C58 C57 1.381 . S
N59 C52 1.286 . S
N59 C55 1.413 . S
H60 C65 0.930 . S
H61 C68 0.930 . S
H62 C70 0.930 . S
H63 C64 1.016 . S
C64 H63 1.016 . S
C64 N71 1.286 . S
C65 H60 0.930 . S
C65 C66 1.397 . S
C65 C67 1.361 . S
C66 C65 1.397 . S
C66 C70 1.390 . S
C67 C65 1.361 . S
C67 C68 1.393 . S
C67 N71 1.413 . S
C68 H61 0.930 . S
C68 C67 1.393 . S
C68 C69 1.399 . S
C69 C68 1.399 . S
C69 C70 1.381 . S
C70 H62 0.930 . S
C70 C66 1.390 . S
C70 C69 1.381 . S
N71 C64 1.286 . S
N71 C67 1.413 . S
H72 C77 0.930 . S
H73 C80 0.930 . S
H74 C82 0.930 . S
H75 C76 1.016 . S
C76 H75 1.016 . S
C76 N83 1.286 . S
C77 H72 0.930 . S
C77 C78 1.397 . S
C77 C79 1.361 . S
C78 C77 1.397 . S
C78 C82 1.390 . S
C79 C77 1.361 . S
C79 C80 1.393 . S
C79 N83 1.413 . S
C80 H73 0.930 . S
C80 C79 1.393 . S
C80 C81 1.399 . S
C81 C80 1.399 . S
C81 C82 1.381 . S
C82 H74 0.930 . S
C82 C78 1.390 . S
C82 C81 1.381 . S
N83 C76 1.286 . S
N83 C79 1.413 . S
H84 C89 0.930 . S
H85 C92 0.930 . S
H86 C94 0.930 . S
H87 C88 1.016 . S
C88 H87 1.016 . S
C88 N95 1.286 . S
C89 H84 0.930 . S
C89 C90 1.397 . S
C89 C91 1.361 . S
C90 C89 1.397 . S
C90 C94 1.390 . S
C91 C89 1.361 . S
C91 C92 1.393 . S
C91 N95 1.413 . S
C92 H85 0.930 . S
C92 C91 1.393 . S
C92 C93 1.399 . S
C93 C92 1.399 . S
C93 C94 1.381 . S
C94 H86 0.930 . S
C94 C90 1.390 . S
C94 C93 1.381 . S
N95 C88 1.286 . S
N95 C91 1.413 . S
H96 C101 0.930 . S
H97 C104 0.930 . S
H98 C106 0.930 . S
H99 C100 1.016 . S
C100 H99 1.016 . S
C100 N107 1.286 . S
C101 H96 0.930 . S
C101 C102 1.397 . S
C101 C103 1.361 . S
C102 C101 1.397 . S
C102 C106 1.390 . S
C103 C101 1.361 . S
C103 C104 1.393 . S
C103 N107 1.413 . S
C104 H97 0.930 . S
C104 C103 1.393 . S
C104 C105 1.399 . S
C105 C104 1.399 . S
C105 C106 1.381 . S
C106 H98 0.930 . S
C106 C102 1.390 . S
C106 C105 1.381 . S
N107 C100 1.286 . S
N107 C103 1.413 . S
H108 C113 0.930 . S
H109 C116 0.930 . S
H110 C118 0.930 . S
H111 C112 1.016 . S
C112 H111 1.016 . S
C112 N119 1.286 . S
C113 H108 0.930 . S
C113 C114 1.397 . S
C113 C115 1.361 . S
C114 C113 1.397 . S
C114 C118 1.390 . S
C115 C113 1.361 . S
C115 C116 1.393 . S
C115 N119 1.413 . S
C116 H109 0.930 . S
C116 C115 1.393 . S
C116 C117 1.399 . S
C117 C116 1.399 . S
C117 C118 1.381 . S
C118 H110 0.930 . S
C118 C114 1.390 . S
C118 C117 1.381 . S
N119 C112 1.286 . S
N119 C115 1.413 . S
H120 C125 0.930 . S
H121 C128 0.930 . S
H122 C130 0.930 . S
H123 C124 1.016 . S
C124 H123 1.016 . S
C124 N131 1.286 . S
C125 H120 0.930 . S
C125 C126 1.397 . S
C125 C127 1.361 . S
C126 C125 1.397 . S
C126 C130 1.390 . S
C127 C125 1.361 . S
C127 C128 1.393 . S
C127 N131 1.413 . S
C128 H121 0.930 . S
C128 C127 1.393 . S
C128 C129 1.399 . S
C129 C128 1.399 . S
C129 C130 1.381 . S
C130 H122 0.930 . S
C130 C126 1.390 . S
C130 C129 1.381 . S
N131 C124 1.286 . S
N131 C127 1.413 . S
H132 C137 0.930 . S
H133 C140 0.930 . S
H134 C142 0.930 . S
H135 C136 1.016 . S
C136 H135 1.016 . S
C136 N143 1.286 . S
C137 H132 0.930 . S
C137 C138 1.397 . S
C137 C139 1.361 . S
C138 C137 1.397 . S
C138 C142 1.390 . S
C139 C137 1.361 . S
C139 C140 1.393 . S
C139 N143 1.413 . S
C140 H133 0.930 . S
C140 C139 1.393 . S
C140 C141 1.399 . S
C141 C140 1.399 . S
C141 C142 1.381 . S
C142 H134 0.930 . S
C142 C138 1.390 . S
C142 C141 1.381 . S
N143 C136 1.286 . S
N143 C139 1.413 . S
H144 C149 0.930 . S
H145 C152 0.930 . S
H146 C154 0.930 . S
H147 C148 1.016 . S
C148 H147 1.016 . S
C148 N155 1.286 . S
C149 H144 0.930 . S
C149 C150 1.397 . S
C149 C151 1.361 . S
C150 C149 1.397 . S
C150 C154 1.390 . S
C151 C149 1.361 . S
C151 C152 1.393 . S
C151 N155 1.413 . S
C152 H145 0.930 . S
C152 C151 1.393 . S
C152 C153 1.399 . S
C153 C152 1.399 . S
C153 C154 1.381 . S
C154 H146 0.930 . S
C154 C150 1.390 . S
C154 C153 1.381 . S
N155 C148 1.286 . S
N155 C151 1.413 . S
H156 C161 0.930 . S
H157 C164 0.930 . S
H158 C166 0.930 . S
H159 C160 1.016 . S
C160 H159 1.016 . S
C160 N167 1.286 . S
C161 H156 0.930 . S
C161 C162 1.397 . S
C161 C163 1.361 . S
C162 C161 1.397 . S
C162 C166 1.390 . S
C163 C161 1.361 . S
C163 C164 1.393 . S
C163 N167 1.413 . S
C164 H157 0.930 . S
C164 C163 1.393 . S
C164 C165 1.399 . S
C165 C164 1.399 . S
C165 C166 1.381 . S
C166 H158 0.930 . S
C166 C162 1.390 . S
C166 C165 1.381 . S
N167 C160 1.286 . S
N167 C163 1.413 . S
H168 C173 0.930 . S
H169 C176 0.930 . S
H170 C178 0.930 . S
H171 C172 1.016 . S
C172 H171 1.016 . S
C172 N179 1.286 . S
C173 H168 0.930 . S
C173 C174 1.397 . S
C173 C175 1.361 . S
C174 C173 1.397 . S
C174 C178 1.390 . S
C175 C173 1.361 . S
C175 C176 1.393 . S
C175 N179 1.413 . S
C176 H169 0.930 . S
C176 C175 1.393 . S
C176 C177 1.399 . S
C177 C176 1.399 . S
C177 C178 1.381 . S
C178 H170 0.930 . S
C178 C174 1.390 . S
C178 C177 1.381 . S
N179 C172 1.286 . S
N179 C175 1.413 . S
H180 C185 0.930 . S
H181 C188 0.930 . S
H182 C190 0.930 . S
H183 C184 1.016 . S
C184 H183 1.016 . S
C184 N191 1.286 . S
C185 H180 0.930 . S
C185 C186 1.397 . S
C185 C187 1.361 . S
C186 C185 1.397 . S
C186 C190 1.390 . S
C187 C185 1.361 . S
C187 C188 1.393 . S
C187 N191 1.413 . S
C188 H181 0.930 . S
C188 C187 1.393 . S
C188 C189 1.399 . S
C189 C188 1.399 . S
C189 C190 1.381 . S
C190 H182 0.930 . S
C190 C186 1.390 . S
C190 C189 1.381 . S
N191 C184 1.286 . S
N191 C187 1.413 . S
H192 C197 0.930 . S
H193 C200 0.930 . S
H194 C202 0.930 . S
H195 C196 1.016 . S
C196 H195 1.016 . S
C196 N203 1.286 . S
C197 H192 0.930 . S
C197 C198 1.397 . S
C197 C199 1.361 . S
C198 C197 1.397 . S
C198 C202 1.390 . S
C199 C197 1.361 . S
C199 C200 1.393 . S
C199 N203 1.413 . S
C200 H193 0.930 . S
C200 C199 1.393 . S
C200 C201 1.399 . S
C201 C200 1.399 . S
C201 C202 1.381 . S
C202 H194 0.930 . S
C202 C198 1.390 . S
C202 C201 1.381 . S
N203 C196 1.286 . S
N203 C199 1.413 . S
H204 C209 0.930 . S
H205 C212 0.930 . S
H206 C214 0.930 . S
H207 C208 1.016 . S
C208 H207 1.016 . S
C208 N215 1.286 . S
C209 H204 0.930 . S
C209 C210 1.397 . S
C209 C211 1.361 . S
C210 C209 1.397 . S
C210 C214 1.390 . S
C211 C209 1.361 . S
C211 C212 1.393 . S
C211 N215 1.413 . S
C212 H205 0.930 . S
C212 C211 1.393 . S
C212 C213 1.399 . S
C213 C212 1.399 . S
C213 C214 1.381 . S
C214 H206 0.930 . S
C214 C210 1.390 . S
C214 C213 1.381 . S
N215 C208 1.286 . S
N215 C211 1.413 . S
H216 C221 0.930 . S
H217 C224 0.930 . S
H218 C226 0.930 . S
H219 C220 1.016 . S
C220 H219 1.016 . S
C220 N227 1.286 . S
C221 H216 0.930 . S
C221 C222 1.397 . S
C221 C223 1.361 . S
C222 C221 1.397 . S
C222 C226 1.390 . S
C223 C221 1.361 . S
C223 C224 1.393 . S
C223 N227 1.413 . S
C224 H217 0.930 . S
C224 C223 1.393 . S
C224 C225 1.399 . S
C225 C224 1.399 . S
C225 C226 1.381 . S
C226 H218 0.930 . S
C226 C222 1.390 . S
C226 C225 1.381 . S
N227 C220 1.286 . S
N227 C223 1.413 . S
H228 C233 0.930 . S
H229 C236 0.930 . S
H230 C238 0.930 . S
H231 C232 1.016 . S
C232 H231 1.016 . S
C232 N239 1.286 . S
C233 H228 0.930 . S
C233 C234 1.397 . S
C233 C235 1.361 . S
C234 C233 1.397 . S
C234 C238 1.390 . S
C235 C233 1.361 . S
C235 C236 1.393 . S
C235 N239 1.413 . S
C236 H229 0.930 . S
C236 C235 1.393 . S
C236 C237 1.399 . S
C237 C236 1.399 . S
C237 C238 1.381 . S
C238 H230 0.930 . S
C238 C234 1.390 . S
C238 C237 1.381 . S
N239 C232 1.286 . S
N239 C235 1.413 . S
H240 C245 0.930 . S
H241 C248 0.930 . S
H242 C250 0.930 . S
H243 C244 1.016 . S
C244 H243 1.016 . S
C244 N251 1.286 . S
C245 H240 0.930 . S
C245 C246 1.397 . S
C245 C247 1.361 . S
C246 C245 1.397 . S
C246 C250 1.390 . S
C247 C245 1.361 . S
C247 C248 1.393 . S
C247 N251 1.413 . S
C248 H241 0.930 . S
C248 C247 1.393 . S
C248 C249 1.399 . S
C249 C248 1.399 . S
C249 C250 1.381 . S
C250 H242 0.930 . S
C250 C246 1.390 . S
C250 C249 1.381 . S
N251 C244 1.286 . S
N251 C247 1.413 . S
H252 C257 0.930 . S
H253 C260 0.930 . S
H254 C262 0.930 . S
H255 C256 1.016 . S
C256 H255 1.016 . S
C256 N263 1.286 . S
C257 H252 0.930 . S
C257 C258 1.397 . S
C257 C259 1.361 . S
C258 C257 1.397 . S
C258 C262 1.390 . S
C259 C257 1.361 . S
C259 C260 1.393 . S
C259 N263 1.413 . S
C260 H253 0.930 . S
C260 C259 1.393 . S
C260 C261 1.399 . S
C261 C260 1.399 . S
C261 C262 1.381 . S
C262 H254 0.930 . S
C262 C258 1.390 . S
C262 C261 1.381 . S
N263 C256 1.286 . S
N263 C259 1.413 . S
H264 C269 0.930 . S
H265 C272 0.930 . S
H266 C274 0.930 . S
H267 C268 1.016 . S
C268 H267 1.016 . S
C268 N275 1.286 . S
C269 H264 0.930 . S
C269 C270 1.397 . S
C269 C271 1.361 . S
C270 C269 1.397 . S
C270 C274 1.390 . S
C271 C269 1.361 . S
C271 C272 1.393 . S
C271 N275 1.413 . S
C272 H265 0.930 . S
C272 C271 1.393 . S
C272 C273 1.399 . S
C273 C272 1.399 . S
C273 C274 1.381 . S
C274 H266 0.930 . S
C274 C270 1.390 . S
C274 C273 1.381 . S
N275 C268 1.286 . S
N275 C271 1.413 . S
H276 C281 0.930 . S
H277 C284 0.930 . S
H278 C286 0.930 . S
H279 C280 1.016 . S
C280 H279 1.016 . S
C280 N287 1.286 . S
C281 H276 0.930 . S
C281 C282 1.397 . S
C281 C283 1.361 . S
C282 C281 1.397 . S
C282 C286 1.390 . S
C283 C281 1.361 . S
C283 C284 1.393 . S
C283 N287 1.413 . S
C284 H277 0.930 . S
C284 C283 1.393 . S
C284 C285 1.399 . S
C285 C284 1.399 . S
C285 C286 1.381 . S
C286 H278 0.930 . S
C286 C282 1.390 . S
C286 C285 1.381 . S
N287 C280 1.286 . S
N287 C283 1.413 . S
H288 C293 0.930 . S
H289 C296 0.930 . S
H290 C298 0.930 . S
H291 C292 1.016 . S
C292 H291 1.016 . S
C292 N299 1.286 . S
C293 H288 0.930 . S
C293 C294 1.397 . S
C293 C295 1.361 . S
C294 C293 1.397 . S
C294 C298 1.390 . S
C295 C293 1.361 . S
C295 C296 1.393 . S
C295 N299 1.413 . S
C296 H289 0.930 . S
C296 C295 1.393 . S
C296 C297 1.399 . S
C297 C296 1.399 . S
C297 C298 1.381 . S
C298 H290 0.930 . S
C298 C294 1.390 . S
C298 C297 1.381 . S
N299 C292 1.286 . S
N299 C295 1.413 . S
H300 C305 0.930 . S
H301 C308 0.930 . S
H302 C310 0.930 . S
H303 C304 1.016 . S
C304 H303 1.016 . S
C304 N311 1.286 . S
C305 H300 0.930 . S
C305 C306 1.397 . S
C305 C307 1.361 . S
C306 C305 1.397 . S
C306 C310 1.390 . S
C307 C305 1.361 . S
C307 C308 1.393 . S
C307 N311 1.413 . S
C308 H301 0.930 . S
C308 C307 1.393 . S
C308 C309 1.399 . S
C309 C308 1.399 . S
C309 C310 1.381 . S
C310 H302 0.930 . S
C310 C306 1.390 . S
C310 C309 1.381 . S
N311 C304 1.286 . S
N311 C307 1.413 . S
H312 C317 0.930 . S
H313 C320 0.930 . S
H314 C322 0.930 . S
H315 C316 1.016 . S
C316 H315 1.016 . S
C316 N323 1.286 . S
C317 H312 0.930 . S
C317 C318 1.397 . S
C317 C319 1.361 . S
C318 C317 1.397 . S
C318 C322 1.390 . S
C319 C317 1.361 . S
C319 C320 1.393 . S
C319 N323 1.413 . S
C320 H313 0.930 . S
C320 C319 1.393 . S
C320 C321 1.399 . S
C321 C320 1.399 . S
C321 C322 1.381 . S
C322 H314 0.930 . S
C322 C318 1.390 . S
C322 C321 1.381 . S
N323 C316 1.286 . S
N323 C319 1.413 . S
H324 C329 0.930 . S
H325 C332 0.930 . S
H326 C334 0.930 . S
H327 C328 1.016 . S
C328 H327 1.016 . S
C328 N335 1.286 . S
C329 H324 0.930 . S
C329 C330 1.397 . S
C329 C331 1.361 . S
C330 C329 1.397 . S
C330 C334 1.390 . S
C331 C329 1.361 . S
C331 C332 1.393 . S
C331 N335 1.413 . S
C332 H325 0.930 . S
C332 C331 1.393 . S
C332 C333 1.399 . S
C333 C332 1.399 . S
C333 C334 1.381 . S
C334 H326 0.930 . S
C334 C330 1.390 . S
C334 C333 1.381 . S
N335 C328 1.286 . S
N335 C331 1.413 . S
H336 C341 0.930 . S
H337 C344 0.930 . S
H338 C346 0.930 . S
H339 C340 1.016 . S
C340 H339 1.016 . S
C340 N347 1.286 . S
C341 H336 0.930 . S
C341 C342 1.397 . S
C341 C343 1.361 . S
C342 C341 1.397 . S
C342 C346 1.390 . S
C343 C341 1.361 . S
C343 C344 1.393 . S
C343 N347 1.413 . S
C344 H337 0.930 . S
C344 C343 1.393 . S
C344 C345 1.399 . S
C345 C344 1.399 . S
C345 C346 1.381 . S
C346 H338 0.930 . S
C346 C342 1.390 . S
C346 C345 1.381 . S
N347 C340 1.286 . S
N347 C343 1.413 . S
H348 C353 0.930 . S
H349 C356 0.930 . S
H350 C358 0.930 . S
H351 C352 1.016 . S
C352 H351 1.016 . S
C352 N359 1.286 . S
C353 H348 0.930 . S
C353 C354 1.397 . S
C353 C355 1.361 . S
C354 C353 1.397 . S
C354 C358 1.390 . S
C355 C353 1.361 . S
C355 C356 1.393 . S
C355 N359 1.413 . S
C356 H349 0.930 . S
C356 C355 1.393 . S
C356 C357 1.399 . S
C357 C356 1.399 . S
C357 C358 1.381 . S
C358 H350 0.930 . S
C358 C354 1.390 . S
C358 C357 1.381 . S
N359 C352 1.286 . S
N359 C355 1.413 . S
H360 C365 0.930 . S
H361 C368 0.930 . S
H362 C370 0.930 . S
H363 C364 1.016 . S
C364 H363 1.016 . S
C364 N371 1.286 . S
C365 H360 0.930 . S
C365 C366 1.397 . S
C365 C367 1.361 . S
C366 C365 1.397 . S
C366 C370 1.390 . S
C367 C365 1.361 . S
C367 C368 1.393 . S
C367 N371 1.413 . S
C368 H361 0.930 . S
C368 C367 1.393 . S
C368 C369 1.399 . S
C369 C368 1.399 . S
C369 C370 1.381 . S
C370 H362 0.930 . S
C370 C366 1.390 . S
C370 C369 1.381 . S
N371 C364 1.286 . S
N371 C367 1.413 . S
H372 C377 0.930 . S
H373 C380 0.930 . S
H374 C382 0.930 . S
H375 C376 1.016 . S
C376 H375 1.016 . S
C376 N383 1.286 . S
C377 H372 0.930 . S
C377 C378 1.397 . S
C377 C379 1.361 . S
C378 C377 1.397 . S
C378 C382 1.390 . S
C379 C377 1.361 . S
C379 C380 1.393 . S
C379 N383 1.413 . S
C380 H373 0.930 . S
C380 C379 1.393 . S
C380 C381 1.399 . S
C381 C380 1.399 . S
C381 C382 1.381 . S
C382 H374 0.930 . S
C382 C378 1.390 . S
C382 C381 1.381 . S
N383 C376 1.286 . S
N383 C379 1.413 . S
Cu384 N385 1.999 . S
Cu384 O390 1.974 1_554 S
Cu384 N395 1.985 . S
Cu384 O404 1.959 . S
N385 Cu384 1.999 . S
N385 C387 1.263 1_554 S
N385 C389 1.389 . S
N386 C387 1.358 . S
N386 C388 1.400 . S
C387 N385 1.263 1_556 S
C387 N386 1.358 . S
C387 H393 0.930 . S
C388 N386 1.400 . S
C388 C389 1.351 1_556 S
C388 H405 0.930 . S
C389 N385 1.389 . S
C389 C388 1.351 1_554 S
C389 H394 0.930 . S
O390 Cu384 1.974 1_556 S
O390 C400 1.282 . S
C391 O392 1.261 . S
C391 O404 1.251 . S
O392 C391 1.261 . S
H393 C387 0.930 . S
H394 C389 0.930 . S
N395 Cu384 1.985 . S
N395 C397 1.335 . S
N395 C398 1.390 . S
N396 C397 1.345 . S
N396 C399 1.336 . S
C397 N395 1.335 . S
C397 N396 1.345 . S
C397 H402 0.930 . S
C398 N395 1.390 . S
C398 C399 1.346 . S
C398 H403 0.930 . S
C399 N396 1.336 . S
C399 C398 1.346 . S
C399 H406 0.929 . S
C400 O390 1.282 . S
C400 O401 1.231 . S
O401 C400 1.231 . S
H402 C397 0.930 . S
H403 C398 0.930 . S
O404 Cu384 1.959 . S
O404 C391 1.251 . S
H405 C388 0.930 . S
H406 C399 0.929 . S
Cu407 N408 1.999 . S
Cu407 O413 1.974 . S
Cu407 N418 1.985 1_554 S
Cu407 O427 1.959 1_554 S
N408 Cu407 1.999 . S
N408 C410 1.263 . S
N408 C412 1.389 . S
N409 C410 1.358 . S
N409 C411 1.400 . S
C410 N408 1.263 . S
C410 N409 1.358 . S
C410 H416 0.930 . S
C411 N409 1.400 . S
C411 C412 1.351 . S
C411 H428 0.930 . S
C412 N408 1.389 . S
C412 C411 1.351 . S
C412 H417 0.930 . S
O413 Cu407 1.974 . S
O413 C423 1.282 . S
C414 O415 1.285 . S
C414 O427 1.251 . S
O415 C414 1.285 . S
H416 C410 0.930 . S
H417 C412 0.930 . S
N418 Cu407 1.985 1_556 S
N418 C420 1.335 . S
N418 C421 1.390 . S
N419 C420 1.345 . S
N419 C422 1.336 . S
C420 N418 1.335 . S
C420 N419 1.345 . S
C420 H425 0.930 . S
C421 N418 1.390 . S
C421 C422 1.346 . S
C421 H426 0.930 1_556 S
C422 N419 1.336 . S
C422 C421 1.346 . S
C422 H429 0.929 . S
C423 O413 1.282 . S
C423 O424 1.216 . S
O424 C423 1.216 . S
H425 C420 0.930 . S
H426 C421 0.930 1_554 S
O427 Cu407 1.959 1_556 S
O427 C414 1.251 . S
H428 C411 0.930 . S
H429 C422 0.929 . S
Cu430 N431 1.999 1_554 S
Cu430 O436 1.974 1_554 S
Cu430 N441 1.985 . S
Cu430 O450 1.959 . S
N431 Cu430 1.999 1_556 S
N431 C433 1.263 . S
N431 C435 1.389 . S
N432 C433 1.358 . S
N432 C434 1.400 . S
C433 N431 1.263 . S
C433 N432 1.358 . S
C433 H439 0.930 . S
C434 N432 1.400 . S
C434 C435 1.351 . S
C434 H451 0.930 . S
C435 N431 1.389 . S
C435 C434 1.351 . S
C435 H440 0.930 1_556 S
O436 Cu430 1.974 1_556 S
O436 C446 1.282 . S
C437 O438 1.261 . S
C437 O450 1.251 . S
O438 C437 1.261 . S
H439 C433 0.930 . S
H440 C435 0.930 1_554 S
N441 Cu430 1.985 . S
N441 C443 1.335 . S
N441 C444 1.390 . S
N442 C443 1.345 . S
N442 C445 1.336 . S
C443 N441 1.335 . S
C443 N442 1.345 . S
C443 H448 0.930 . S
C444 N441 1.390 . S
C444 C445 1.346 . S
C444 H449 0.930 . S
C445 N442 1.336 . S
C445 C444 1.346 . S
C445 H452 0.929 . S
C446 O436 1.282 . S
C446 O447 1.216 . S
O447 C446 1.216 . S
H448 C443 0.930 . S
H449 C444 0.930 . S
O450 Cu430 1.959 . S
O450 C437 1.251 . S
H451 C434 0.930 . S
H452 C445 0.929 . S
Cu453 N454 1.999 1_556 S
Cu453 O459 1.974 1_556 S
Cu453 N464 1.985 . S
Cu453 O473 1.959 . S
N454 Cu453 1.999 1_554 S
N454 C456 1.263 . S
N454 C458 1.389 . S
N455 C456 1.358 . S
N455 C457 1.400 . S
C456 N454 1.263 . S
C456 N455 1.358 . S
C456 H462 0.930 . S
C457 N455 1.400 . S
C457 C458 1.351 . S
C457 H474 0.930 . S
C458 N454 1.389 . S
C458 C457 1.351 . S
C458 H463 0.930 . S
O459 Cu453 1.974 1_554 S
O459 C469 1.282 . S
C460 O461 1.261 . S
C460 O473 1.251 . S
O461 C460 1.261 . S
H462 C456 0.930 . S
H463 C458 0.930 . S
N464 Cu453 1.985 . S
N464 C466 1.335 . S
N464 C467 1.390 . S
N465 C466 1.345 . S
N465 C468 1.336 . S
C466 N464 1.335 . S
C466 N465 1.345 . S
C466 H471 0.930 . S
C467 N464 1.390 . S
C467 C468 1.346 . S
C467 H472 0.930 . S
C468 N465 1.336 . S
C468 C467 1.346 . S
C468 H475 0.929 . S
C469 O459 1.282 . S
C469 O470 1.216 . S
O470 C469 1.216 . S
H471 C466 0.930 . S
H472 C467 0.930 . S
O473 Cu453 1.959 . S
O473 C460 1.251 . S
H474 C457 0.930 . S
H475 C468 0.929 . S
Cu476 N477 1.999 . S
Cu476 O482 1.974 . S
Cu476 N487 1.985 . S
Cu476 O496 1.959 . S
N477 Cu476 1.999 . S
N477 C479 1.263 . S
N477 C481 1.389 . S
N478 C479 1.358 . S
N478 C480 1.400 . S
C479 N477 1.263 . S
C479 N478 1.358 . S
C479 H485 0.930 . S
C480 N478 1.400 . S
C480 C481 1.351 . S
C480 H497 0.930 . S
C481 N477 1.389 . S
C481 C480 1.351 . S
C481 H486 0.930 . S
O482 Cu476 1.974 . S
O482 C492 1.282 . S
C483 O484 1.261 . S
C483 O496 1.251 1_655 S
O484 C483 1.261 . S
H485 C479 0.930 . S
H486 C481 0.930 . S
N487 Cu476 1.985 . S
N487 C489 1.335 1_455 S
N487 C490 1.390 . S
N488 C489 1.345 . S
N488 C491 1.336 . S
C489 N487 1.335 1_655 S
C489 N488 1.345 . S
C489 H494 0.930 . S
C490 N487 1.390 . S
C490 C491 1.346 1_455 S
C490 H495 0.930 . S
C491 N488 1.336 . S
C491 C490 1.346 1_655 S
C491 H498 0.929 . S
C492 O482 1.282 . S
C492 O493 1.216 . S
O493 C492 1.216 . S
H494 C489 0.930 . S
H495 C490 0.930 . S
O496 Cu476 1.959 . S
O496 C483 1.251 1_455 S
H497 C480 0.930 . S
H498 C491 0.929 . S
Cu499 N500 1.999 . S
Cu499 O505 1.974 . S
Cu499 N510 1.985 . S
Cu499 O519 1.949 1_545 S
N500 Cu499 1.999 . S
N500 C502 1.263 . S
N500 C504 1.389 . S
N501 C502 1.358 . S
N501 C503 1.400 . S
C502 N500 1.263 . S
C502 N501 1.358 . S
C502 H508 0.930 . S
C503 N501 1.400 . S
C503 C504 1.351 . S
C503 H520 0.930 . S
C504 N500 1.389 . S
C504 C503 1.351 . S
C504 H509 0.930 . S
O505 Cu499 1.974 . S
O505 C515 1.282 . S
C506 O507 1.261 1_565 S
C506 O519 1.256 . S
O507 C506 1.261 1_545 S
H508 C502 0.930 . S
H509 C504 0.930 . S
N510 Cu499 1.985 . S
N510 C512 1.335 1_545 S
N510 C513 1.390 . S
N511 C512 1.345 . S
N511 C514 1.336 . S
C512 N510 1.335 1_565 S
C512 N511 1.345 . S
C512 H517 0.930 . S
C513 N510 1.390 . S
C513 C514 1.346 1_545 S
C513 H518 0.930 . S
C514 N511 1.336 . S
C514 C513 1.346 1_565 S
C514 H521 0.929 . S
C515 O505 1.282 . S
C515 O516 1.216 . S
O516 C515 1.216 . S
H517 C512 0.930 . S
H518 C513 0.930 . S
O519 Cu499 1.949 1_565 S
O519 C506 1.256 . S
H520 C503 0.930 . S
H521 C514 0.929 . S
Cu522 N523 1.999 . S
Cu522 O528 1.974 . S
Cu522 N533 1.985 1_655 S
Cu522 O542 1.959 1_655 S
N523 Cu522 1.999 . S
N523 C525 1.263 . S
N523 C527 1.389 . S
N524 C525 1.358 . S
N524 C526 1.400 . S
C525 N523 1.263 . S
C525 N524 1.358 . S
C525 H531 0.930 . S
C526 N524 1.400 . S
C526 C527 1.351 . S
C526 H543 0.930 . S
C527 N523 1.389 . S
C527 C526 1.351 . S
C527 H532 0.930 1_655 S
O528 Cu522 1.974 . S
O528 C538 1.282 . S
C529 O530 1.261 . S
C529 O542 1.251 . S
O530 C529 1.261 . S
H531 C525 0.930 . S
H532 C527 0.930 1_455 S
N533 Cu522 1.985 1_455 S
N533 C535 1.335 . S
N533 C536 1.390 . S
N534 C535 1.345 . S
N534 C537 1.336 . S
C535 N533 1.335 . S
C535 N534 1.345 . S
C535 H540 0.930 . S
C536 N533 1.390 . S
C536 C537 1.346 . S
C536 H541 0.930 1_455 S
C537 N534 1.336 . S
C537 C536 1.346 . S
C537 H544 0.929 . S
C538 O528 1.282 . S
C538 O539 1.216 . S
O539 C538 1.216 . S
H540 C535 0.930 . S
H541 C536 0.930 1_655 S
O542 Cu522 1.959 1_455 S
O542 C529 1.251 . S
H543 C526 0.930 . S
H544 C537 0.929 . S
Cu545 N546 2.029 . S
Cu545 O551 2.009 . S
Cu545 N556 1.957 1_545 S
Cu545 O565 1.924 1_545 S
N546 Cu545 2.029 . S
N546 C548 1.263 . S
N546 C550 1.389 . S
N547 C548 1.358 . S
N547 C549 1.400 . S
C548 N546 1.263 . S
C548 N547 1.358 . S
C548 H554 0.930 . S
C549 N547 1.400 . S
C549 C550 1.351 . S
C549 H566 0.930 . S
C550 N546 1.389 . S
C550 C549 1.351 . S
C550 H555 0.930 . S
O551 Cu545 2.009 . S
O551 C561 1.282 . S
C552 O553 1.261 . S
C552 O565 1.251 . S
O553 C552 1.261 . S
H554 C548 0.930 . S
H555 C550 0.930 . S
N556 Cu545 1.957 1_565 S
N556 C558 1.335 . S
N556 C559 1.390 . S
N557 C558 1.345 . S
N557 C560 1.336 . S
C558 N556 1.335 . S
C558 N557 1.345 . S
C558 H563 0.930 . S
C559 N556 1.390 . S
C559 C560 1.346 . S
C559 H564 0.930 . S
C560 N557 1.336 . S
C560 C559 1.346 . S
C560 H567 0.929 . S
C561 O551 1.282 . S
C561 O562 1.216 . S
O562 C561 1.216 . S
H563 C558 0.930 . S
H564 C559 0.930 . S
O565 Cu545 1.924 1_565 S
O565 C552 1.251 . S
H566 C549 0.930 . S
H567 C560 0.929 . S
Cu568 N569 1.999 . S
Cu568 O574 1.974 . S
Cu568 N579 1.985 . S
Cu568 O588 1.959 . S
N569 Cu568 1.999 . S
N569 C571 1.263 . S
N569 C573 1.389 . S
N570 C571 1.358 . S
N570 C572 1.400 . S
C571 N569 1.263 . S
C571 N570 1.358 . S
C571 H577 0.930 . S
C572 N570 1.400 . S
C572 C573 1.351 . S
C572 H589 0.930 . S
C573 N569 1.389 . S
C573 C572 1.351 . S
C573 H578 0.930 . S
O574 Cu568 1.974 . S
O574 C584 1.282 . S
C575 O576 1.261 . S
C575 O588 1.251 1_655 S
O576 C575 1.261 . S
H577 C571 0.930 . S
H578 C573 0.930 . S
N579 Cu568 1.985 . S
N579 C581 1.335 1_455 S
N579 C582 1.390 . S
N580 C581 1.345 . S
N580 C583 1.336 . S
C581 N579 1.335 1_655 S
C581 N580 1.345 . S
C581 H586 0.930 . S
C582 N579 1.390 . S
C582 C583 1.346 1_455 S
C582 H587 0.930 . S
C583 N580 1.336 . S
C583 C582 1.346 1_655 S
C583 H590 0.929 . S
C584 O574 1.282 . S
C584 O585 1.216 . S
O585 C584 1.216 . S
H586 C581 0.930 . S
H587 C582 0.930 . S
O588 Cu568 1.959 . S
O588 C575 1.251 1_455 S
H589 C572 0.930 . S
H590 C583 0.929 . S
Cu591 N592 1.999 . S
Cu591 O597 1.974 . S
Cu591 N602 1.985 . S
Cu591 O611 1.959 . S
N592 Cu591 1.999 . S
N592 C594 1.263 . S
N592 C596 1.389 . S
N593 C594 1.358 . S
N593 C595 1.400 . S
C594 N592 1.263 . S
C594 N593 1.358 . S
C594 H600 0.930 . S
C595 N593 1.400 . S
C595 C596 1.351 . S
C595 H612 0.930 . S
C596 N592 1.389 . S
C596 C595 1.351 . S
C596 H601 0.930 . S
O597 Cu591 1.974 . S
O597 C607 1.282 . S
C598 O599 1.261 . S
C598 O611 1.251 . S
O599 C598 1.261 . S
H600 C594 0.930 . S
H601 C596 0.930 . S
N602 Cu591 1.985 . S
N602 C604 1.335 1_545 S
N602 C605 1.390 . S
N603 C604 1.345 . S
N603 C606 1.336 . S
C604 N602 1.335 1_565 S
C604 N603 1.345 . S
C604 H609 0.930 . S
C605 N602 1.390 . S
C605 C606 1.346 1_545 S
C605 H610 0.930 . S
C606 N603 1.336 . S
C606 C605 1.346 1_565 S
C606 H613 0.929 . S
C607 O597 1.282 . S
C607 O608 1.216 . S
O608 C607 1.216 . S
H609 C604 0.930 . S
H610 C605 0.930 . S
O611 Cu591 1.959 . S
O611 C598 1.251 . S
H612 C595 0.930 . S
H613 C606 0.929 . S
Cu614 N615 1.999 . S
Cu614 O620 1.974 . S
Cu614 N625 1.985 . S
Cu614 O634 1.959 . S
N615 Cu614 1.999 . S
N615 C617 1.263 . S
N615 C619 1.389 . S
N616 C617 1.358 . S
N616 C618 1.400 . S
C617 N615 1.263 . S
C617 N616 1.358 . S
C617 H623 0.930 . S
C618 N616 1.400 . S
C618 C619 1.351 . S
C618 H635 0.930 . S
C619 N615 1.389 . S
C619 C618 1.351 . S
C619 H624 0.930 . S
O620 Cu614 1.974 . S
O620 C630 1.282 . S
C621 O622 1.261 . S
C621 O634 1.251 . S
O622 C621 1.261 . S
H623 C617 0.930 . S
H624 C619 0.930 . S
N625 Cu614 1.985 . S
N625 C627 1.335 . S
N625 C628 1.390 . S
N626 C627 1.345 . S
N626 C629 1.336 . S
C627 N625 1.335 . S
C627 N626 1.345 . S
C627 H632 0.930 . S
C628 N625 1.390 . S
C628 C629 1.346 . S
C628 H633 0.930 . S
C629 N626 1.336 . S
C629 C628 1.346 . S
C629 H636 0.929 . S
C630 O620 1.282 . S
C630 O631 1.216 . S
O631 C630 1.216 . S
H632 C627 0.930 . S
H633 C628 0.930 . S
O634 Cu614 1.959 . S
O634 C621 1.251 . S
H635 C618 0.930 . S
H636 C629 0.929 . S
Cu637 N638 1.999 . S
Cu637 O643 1.974 . S
Cu637 N648 1.985 . S
Cu637 O657 1.959 . S
N638 Cu637 1.999 . S
N638 C640 1.263 . S
N638 C642 1.389 . S
N639 C640 1.358 . S
N639 C641 1.400 . S
C640 N638 1.263 . S
C640 N639 1.358 . S
C640 H646 0.930 . S
C641 N639 1.400 . S
C641 C642 1.351 . S
C641 H658 0.930 . S
C642 N638 1.389 . S
C642 C641 1.351 . S
C642 H647 0.930 . S
O643 Cu637 1.974 . S
O643 C653 1.282 . S
C644 O645 1.261 . S
C644 O657 1.251 . S
O645 C644 1.261 . S
H646 C640 0.930 . S
H647 C642 0.930 . S
N648 Cu637 1.985 . S
N648 C650 1.335 1_545 S
N648 C651 1.390 . S
N649 C650 1.345 . S
N649 C652 1.336 . S
C650 N648 1.335 1_565 S
C650 N649 1.345 . S
C650 H655 0.930 . S
C651 N648 1.390 . S
C651 C652 1.346 1_545 S
C651 H656 0.930 . S
C652 N649 1.336 . S
C652 C651 1.346 1_565 S
C652 H659 0.929 . S
C653 O643 1.282 . S
C653 O654 1.216 . S
O654 C653 1.216 . S
H655 C650 0.930 . S
H656 C651 0.930 . S
O657 Cu637 1.959 . S
O657 C644 1.251 . S
H658 C641 0.930 . S
H659 C652 0.929 . S
Cu660 N661 1.999 . S
Cu660 O666 1.974 . S
Cu660 N671 1.985 . S
Cu660 O680 1.959 . S
N661 Cu660 1.999 . S
N661 C663 1.263 . S
N661 C665 1.389 . S
N662 C663 1.358 . S
N662 C664 1.400 . S
C663 N661 1.263 . S
C663 N662 1.358 . S
C663 H669 0.930 . S
C664 N662 1.400 . S
C664 C665 1.351 . S
C664 H681 0.930 . S
C665 N661 1.389 . S
C665 C664 1.351 . S
C665 H670 0.930 . S
O666 Cu660 1.974 . S
O666 C676 1.282 . S
C667 O668 1.261 . S
C667 O680 1.251 . S
O668 C667 1.261 . S
H669 C663 0.930 . S
H670 C665 0.930 . S
N671 Cu660 1.985 . S
N671 C673 1.335 . S
N671 C674 1.390 . S
N672 C673 1.345 . S
N672 C675 1.336 . S
C673 N671 1.335 . S
C673 N672 1.345 . S
C673 H678 0.930 . S
C674 N671 1.390 . S
C674 C675 1.346 . S
C674 H679 0.930 . S
C675 N672 1.336 . S
C675 C674 1.346 . S
C675 H682 0.929 . S
C676 O666 1.282 . S
C676 O677 1.216 . S
O677 C676 1.216 . S
H678 C673 0.930 . S
H679 C674 0.930 . S
O680 Cu660 1.959 . S
O680 C667 1.251 . S
H681 C664 0.930 . S
H682 C675 0.929 . S
Cu683 N684 1.999 . S
Cu683 O689 1.974 . S
Cu683 N694 1.985 . S
Cu683 O703 1.959 . S
N684 Cu683 1.999 . S
N684 C686 1.263 . S
N684 C688 1.389 . S
N685 C686 1.358 . S
N685 C687 1.400 . S
C686 N684 1.263 . S
C686 N685 1.358 . S
C686 H692 0.930 . S
C687 N685 1.400 . S
C687 C688 1.351 . S
C687 H704 0.930 . S
C688 N684 1.389 . S
C688 C687 1.351 . S
C688 H693 0.930 . S
O689 Cu683 1.974 . S
O689 C699 1.282 . S
C690 O691 1.261 . S
C690 O703 1.251 . S
O691 C690 1.261 . S
H692 C686 0.930 . S
H693 C688 0.930 . S
N694 Cu683 1.985 . S
N694 C696 1.335 . S
N694 C697 1.390 . S
N695 C696 1.345 . S
N695 C698 1.336 . S
C696 N694 1.335 . S
C696 N695 1.345 . S
C696 H701 0.930 . S
C697 N694 1.390 . S
C697 C698 1.346 . S
C697 H702 0.930 . S
C698 N695 1.336 . S
C698 C697 1.346 . S
C698 H705 0.929 . S
C699 O689 1.282 . S
C699 O700 1.216 . S
O700 C699 1.216 . S
H701 C696 0.930 . S
H702 C697 0.930 . S
O703 Cu683 1.959 . S
O703 C690 1.251 . S
H704 C687 0.930 . S
H705 C698 0.929 . S
Cu706 N707 1.999 . S
Cu706 O712 1.974 . S
Cu706 N717 1.985 . S
Cu706 O726 1.959 . S
N707 Cu706 1.999 . S
N707 C709 1.263 . S
N707 C711 1.389 . S
N708 C709 1.358 . S
N708 C710 1.400 . S
C709 N707 1.263 . S
C709 N708 1.358 . S
C709 H715 0.930 . S
C710 N708 1.400 . S
C710 C711 1.351 . S
C710 H727 0.930 . S
C711 N707 1.389 . S
C711 C710 1.351 . S
C711 H716 0.930 . S
O712 Cu706 1.974 . S
O712 C722 1.282 . S
C713 O714 1.261 . S
C713 O726 1.251 . S
O714 C713 1.261 . S
H715 C709 0.930 . S
H716 C711 0.930 . S
N717 Cu706 1.985 . S
N717 C719 1.335 . S
N717 C720 1.390 . S
N718 C719 1.345 . S
N718 C721 1.336 . S
C719 N717 1.335 . S
C719 N718 1.345 . S
C719 H724 0.930 . S
C720 N717 1.390 . S
C720 C721 1.346 . S
C720 H725 0.930 . S
C721 N718 1.336 . S
C721 C720 1.346 . S
C721 H728 0.929 . S
C722 O712 1.282 . S
C722 O723 1.216 . S
O723 C722 1.216 . S
H724 C719 0.930 . S
H725 C720 0.930 . S
O726 Cu706 1.959 . S
O726 C713 1.251 . S
H727 C710 0.930 . S
H728 C721 0.929 . S
Cu729 N730 1.999 . S
Cu729 O735 1.974 . S
Cu729 N740 1.985 . S
Cu729 O749 1.959 . S
N730 Cu729 1.999 . S
N730 C732 1.263 . S
N730 C734 1.389 . S
N731 C732 1.358 . S
N731 C733 1.400 . S
C732 N730 1.263 . S
C732 N731 1.358 . S
C732 H738 0.930 . S
C733 N731 1.400 . S
C733 C734 1.351 . S
C733 H750 0.930 . S
C734 N730 1.389 . S
C734 C733 1.351 . S
C734 H739 0.930 . S
O735 Cu729 1.974 . S
O735 C745 1.282 . S
C736 O737 1.261 . S
C736 O749 1.251 . S
O737 C736 1.261 . S
H738 C732 0.930 . S
H739 C734 0.930 . S
N740 Cu729 1.985 . S
N740 C742 1.335 . S
N740 C743 1.390 . S
N741 C742 1.345 . S
N741 C744 1.336 . S
C742 N740 1.335 . S
C742 N741 1.345 . S
C742 H747 0.930 . S
C743 N740 1.390 . S
C743 C744 1.346 . S
C743 H748 0.930 . S
C744 N741 1.336 . S
C744 C743 1.346 . S
C744 H751 0.929 . S
C745 O735 1.282 . S
C745 O746 1.216 . S
O746 C745 1.216 . S
H747 C742 0.930 . S
H748 C743 0.930 . S
O749 Cu729 1.959 . S
O749 C736 1.251 . S
H750 C733 0.930 . S
H751 C744 0.929 . S
Cu752 N753 1.999 . S
Cu752 O758 1.974 . S
Cu752 N763 1.985 . S
Cu752 O772 1.959 . S
N753 Cu752 1.999 . S
N753 C755 1.263 . S
N753 C757 1.389 . S
N754 C755 1.358 . S
N754 C756 1.400 . S
C755 N753 1.263 . S
C755 N754 1.358 . S
C755 H761 0.930 . S
C756 N754 1.400 . S
C756 C757 1.351 . S
C756 H773 0.930 . S
C757 N753 1.389 . S
C757 C756 1.351 . S
C757 H762 0.930 . S
O758 Cu752 1.974 . S
O758 C768 1.282 . S
C759 O760 1.261 . S
C759 O772 1.251 . S
O760 C759 1.261 . S
H761 C755 0.930 . S
H762 C757 0.930 . S
N763 Cu752 1.985 . S
N763 C765 1.335 . S
N763 C766 1.390 . S
N764 C765 1.345 . S
N764 C767 1.336 . S
C765 N763 1.335 . S
C765 N764 1.345 . S
C765 H770 0.930 . S
C766 N763 1.390 . S
C766 C767 1.346 . S
C766 H771 0.930 . S
C767 N764 1.336 . S
C767 C766 1.346 . S
C767 H774 0.929 . S
C768 O758 1.282 . S
C768 O769 1.216 . S
O769 C768 1.216 . S
H770 C765 0.930 . S
H771 C766 0.930 . S
O772 Cu752 1.959 . S
O772 C759 1.251 . S
H773 C756 0.930 . S
H774 C767 0.929 . S
Cu775 N776 1.999 . S
Cu775 O781 1.974 . S
Cu775 N786 1.985 . S
Cu775 O795 1.959 . S
N776 Cu775 1.999 . S
N776 C778 1.263 . S
N776 C780 1.389 . S
N777 C778 1.358 . S
N777 C779 1.400 . S
C778 N776 1.263 . S
C778 N777 1.358 . S
C778 H784 0.930 . S
C779 N777 1.400 . S
C779 C780 1.351 . S
C779 H796 0.930 . S
C780 N776 1.389 . S
C780 C779 1.351 . S
C780 H785 0.930 . S
O781 Cu775 1.974 . S
O781 C791 1.282 . S
C782 O783 1.261 . S
C782 O795 1.251 . S
O783 C782 1.261 . S
H784 C778 0.930 . S
H785 C780 0.930 . S
N786 Cu775 1.985 . S
N786 C788 1.335 . S
N786 C789 1.390 . S
N787 C788 1.345 . S
N787 C790 1.336 . S
C788 N786 1.335 . S
C788 N787 1.345 . S
C788 H793 0.930 . S
C789 N786 1.390 . S
C789 C790 1.346 . S
C789 H794 0.930 . S
C790 N787 1.336 . S
C790 C789 1.346 . S
C790 H797 0.929 . S
C791 O781 1.282 . S
C791 O792 1.216 . S
O792 C791 1.216 . S
H793 C788 0.930 . S
H794 C789 0.930 . S
O795 Cu775 1.959 . S
O795 C782 1.251 . S
H796 C779 0.930 . S
H797 C790 0.929 . S
Cu798 N799 1.999 . S
Cu798 O804 1.974 . S
Cu798 N809 1.985 . S
Cu798 O818 1.959 . S
N799 Cu798 1.999 . S
N799 C801 1.263 . S
N799 C803 1.389 . S
N800 C801 1.358 . S
N800 C802 1.400 . S
C801 N799 1.263 . S
C801 N800 1.358 . S
C801 H807 0.930 . S
C802 N800 1.400 . S
C802 C803 1.351 . S
C802 H819 0.930 . S
C803 N799 1.389 . S
C803 C802 1.351 . S
C803 H808 0.930 . S
O804 Cu798 1.974 . S
O804 C814 1.282 . S
C805 O806 1.261 . S
C805 O818 1.251 . S
O806 C805 1.261 . S
H807 C801 0.930 . S
H808 C803 0.930 . S
N809 Cu798 1.985 . S
N809 C811 1.335 . S
N809 C812 1.390 . S
N810 C811 1.345 . S
N810 C813 1.336 . S
C811 N809 1.335 . S
C811 N810 1.345 . S
C811 H816 0.930 . S
C812 N809 1.390 . S
C812 C813 1.346 . S
C812 H817 0.930 . S
C813 N810 1.336 . S
C813 C812 1.346 . S
C813 H820 0.929 . S
C814 O804 1.282 . S
C814 O815 1.216 . S
O815 C814 1.216 . S
H816 C811 0.930 . S
H817 C812 0.930 . S
O818 Cu798 1.959 . S
O818 C805 1.251 . S
H819 C802 0.930 . S
H820 C813 0.929 . S
Cu821 N822 1.999 . S
Cu821 O827 1.974 . S
Cu821 N832 1.985 . S
Cu821 O841 1.959 . S
N822 Cu821 1.999 . S
N822 C824 1.263 . S
N822 C826 1.389 . S
N823 C824 1.358 . S
N823 C825 1.400 . S
C824 N822 1.263 . S
C824 N823 1.358 . S
C824 H830 0.930 . S
C825 N823 1.400 . S
C825 C826 1.351 . S
C825 H842 0.930 . S
C826 N822 1.389 . S
C826 C825 1.351 . S
C826 H831 0.930 . S
O827 Cu821 1.974 . S
O827 C837 1.282 . S
C828 O829 1.261 . S
C828 O841 1.251 . S
O829 C828 1.261 . S
H830 C824 0.930 . S
H831 C826 0.930 . S
N832 Cu821 1.985 . S
N832 C834 1.335 . S
N832 C835 1.390 . S
N833 C834 1.345 . S
N833 C836 1.336 . S
C834 N832 1.335 . S
C834 N833 1.345 . S
C834 H839 0.930 . S
C835 N832 1.390 . S
C835 C836 1.346 . S
C835 H840 0.930 . S
C836 N833 1.336 . S
C836 C835 1.346 . S
C836 H843 0.929 . S
C837 O827 1.282 . S
C837 O838 1.216 . S
O838 C837 1.216 . S
H839 C834 0.930 . S
H840 C835 0.930 . S
O841 Cu821 1.959 . S
O841 C828 1.251 . S
H842 C825 0.930 . S
H843 C836 0.929 . S
Cu844 N845 1.999 . S
Cu844 O850 1.974 . S
Cu844 N855 1.985 . S
Cu844 O864 1.959 . S
N845 Cu844 1.999 . S
N845 C847 1.263 . S
N845 C849 1.389 . S
N846 C847 1.358 . S
N846 C848 1.400 . S
C847 N845 1.263 . S
C847 N846 1.358 . S
C847 H853 0.930 . S
C848 N846 1.400 . S
C848 C849 1.351 . S
C848 H865 0.930 . S
C849 N845 1.389 . S
C849 C848 1.351 . S
C849 H854 0.930 . S
O850 Cu844 1.974 . S
O850 C860 1.282 . S
C851 O852 1.261 . S
C851 O864 1.251 . S
O852 C851 1.261 . S
H853 C847 0.930 . S
H854 C849 0.930 . S
N855 Cu844 1.985 . S
N855 C857 1.335 . S
N855 C858 1.390 . S
N856 C857 1.345 . S
N856 C859 1.336 . S
C857 N855 1.335 . S
C857 N856 1.345 . S
C857 H862 0.930 . S
C858 N855 1.390 . S
C858 C859 1.346 . S
C858 H863 0.930 . S
C859 N856 1.336 . S
C859 C858 1.346 . S
C859 H866 0.929 . S
C860 O850 1.282 . S
C860 O861 1.216 . S
O861 C860 1.216 . S
H862 C857 0.930 . S
H863 C858 0.930 . S
O864 Cu844 1.959 . S
O864 C851 1.251 . S
H865 C848 0.930 . S
H866 C859 0.929 . S
Cu867 N868 1.999 . S
Cu867 O873 1.974 . S
Cu867 N878 1.985 . S
Cu867 O887 1.959 . S
N868 Cu867 1.999 . S
N868 C870 1.263 . S
N868 C872 1.389 . S
N869 C870 1.358 . S
N869 C871 1.400 . S
C870 N868 1.263 . S
C870 N869 1.358 . S
C870 H876 0.930 . S
C871 N869 1.400 . S
C871 C872 1.351 . S
C871 H888 0.930 . S
C872 N868 1.389 . S
C872 C871 1.351 . S
C872 H877 0.930 . S
O873 Cu867 1.974 . S
O873 C883 1.282 . S
C874 O875 1.261 . S
C874 O887 1.251 . S
O875 C874 1.261 . S
H876 C870 0.930 . S
H877 C872 0.930 . S
N878 Cu867 1.985 . S
N878 C880 1.335 . S
N878 C881 1.390 . S
N879 C880 1.345 . S
N879 C882 1.336 . S
C880 N878 1.335 . S
C880 N879 1.345 . S
C880 H885 0.930 . S
C881 N878 1.390 . S
C881 C882 1.346 . S
C881 H886 0.930 . S
C882 N879 1.336 . S
C882 C881 1.346 . S
C882 H889 0.929 . S
C883 O873 1.282 . S
C883 O884 1.216 . S
O884 C883 1.216 . S
H885 C880 0.930 . S
H886 C881 0.930 . S
O887 Cu867 1.959 . S
O887 C874 1.251 . S
H888 C871 0.930 . S
H889 C882 0.929 . S
Cu890 N891 1.999 . S
Cu890 O896 1.974 . S
Cu890 N901 1.985 . S
Cu890 O910 1.959 . S
N891 Cu890 1.999 . S
N891 C893 1.263 . S
N891 C895 1.389 . S
N892 C893 1.358 . S
N892 C894 1.400 . S
C893 N891 1.263 . S
C893 N892 1.358 . S
C893 H899 0.930 . S
C894 N892 1.400 . S
C894 C895 1.351 . S
C894 H911 0.930 . S
C895 N891 1.389 . S
C895 C894 1.351 . S
C895 H900 0.930 . S
O896 Cu890 1.974 . S
O896 C906 1.282 . S
C897 O898 1.261 . S
C897 O910 1.251 . S
O898 C897 1.261 . S
H899 C893 0.930 . S
H900 C895 0.930 . S
N901 Cu890 1.985 . S
N901 C903 1.335 . S
N901 C904 1.390 . S
N902 C903 1.345 . S
N902 C905 1.336 . S
C903 N901 1.335 . S
C903 N902 1.345 . S
C903 H908 0.930 . S
C904 N901 1.390 . S
C904 C905 1.346 . S
C904 H909 0.930 . S
C905 N902 1.336 . S
C905 C904 1.346 . S
C905 H912 0.929 . S
C906 O896 1.282 . S
C906 O907 1.216 . S
O907 C906 1.216 . S
H908 C903 0.930 . S
H909 C904 0.930 . S
O910 Cu890 1.959 . S
O910 C897 1.251 . S
H911 C894 0.930 . S
H912 C905 0.929 . S
Cu913 N914 1.999 . S
Cu913 O919 1.974 . S
Cu913 N924 1.985 . S
Cu913 O933 1.959 . S
N914 Cu913 1.999 . S
N914 C916 1.263 . S
N914 C918 1.389 . S
N915 C916 1.358 . S
N915 C917 1.400 . S
C916 N914 1.263 . S
C916 N915 1.358 . S
C916 H922 0.930 . S
C917 N915 1.400 . S
C917 C918 1.351 . S
C917 H934 0.930 . S
C918 N914 1.389 . S
C918 C917 1.351 . S
C918 H923 0.930 . S
O919 Cu913 1.974 . S
O919 C929 1.282 . S
C920 O921 1.261 . S
C920 O933 1.251 . S
O921 C920 1.261 . S
H922 C916 0.930 . S
H923 C918 0.930 . S
N924 Cu913 1.985 . S
N924 C926 1.335 . S
N924 C927 1.390 . S
N925 C926 1.345 . S
N925 C928 1.336 . S
C926 N924 1.335 . S
C926 N925 1.345 . S
C926 H931 0.930 . S
C927 N924 1.390 . S
C927 C928 1.346 . S
C927 H932 0.930 . S
C928 N925 1.336 . S
C928 C927 1.346 . S
C928 H935 0.929 . S
C929 O919 1.282 . S
C929 O930 1.216 . S
O930 C929 1.216 . S
H931 C926 0.930 . S
H932 C927 0.930 . S
O933 Cu913 1.959 . S
O933 C920 1.251 . S
H934 C917 0.930 . S
H935 C928 0.929 . S
C936 C937 1.363 . S
C936 C942 1.379 . S
C936 N944 1.356 . S
C937 C936 1.363 . S
C937 C943 1.363 . S
C938 C939 1.363 . S
C938 C943 1.379 . S
C938 N945 1.356 . S
C939 C938 1.363 . S
C939 C942 1.363 . S
N940 C942 1.356 . S
N940 H952 0.984 . S
N940 H953 0.985 . S
N941 C943 1.356 . S
N941 H946 0.984 . S
N941 H947 0.985 . S
C942 C936 1.379 . S
C942 C939 1.363 . S
C942 N940 1.356 . S
C943 C937 1.363 . S
C943 C938 1.379 . S
C943 N941 1.356 . S
N944 C936 1.356 . S
N944 H950 0.984 . S
N944 H951 0.984 . S
N945 C938 1.356 . S
N945 H948 0.984 . S
N945 H949 0.985 . S
H946 N941 0.984 . S
H947 N941 0.985 . S
H948 N945 0.984 . S
H949 N945 0.985 . S
H950 N944 0.984 . S
H951 N944 0.984 . S
H952 N940 0.984 . S
H953 N940 0.985 . S
C954 C955 1.363 . S
C954 C960 1.379 . S
C954 N962 1.356 . S
C955 C954 1.363 . S
C955 C961 1.363 . S
C956 C957 1.363 . S
C956 C961 1.379 . S
C956 N963 1.356 . S
C957 C956 1.363 . S
C957 C960 1.363 . S
N958 C960 1.356 . S
N958 H970 0.984 . S
N958 H971 0.985 . S
N959 C961 1.356 . S
N959 H964 0.984 . S
N959 H965 0.985 . S
C960 C954 1.379 . S
C960 C957 1.363 . S
C960 N958 1.356 . S
C961 C955 1.363 . S
C961 C956 1.379 . S
C961 N959 1.356 . S
N962 C954 1.356 . S
N962 H968 0.984 . S
N962 H969 0.984 . S
N963 C956 1.356 . S
N963 H966 0.984 . S
N963 H967 0.985 . S
H964 N959 0.984 . S
H965 N959 0.985 . S
H966 N963 0.984 . S
H967 N963 0.985 . S
H968 N962 0.984 . S
H969 N962 0.984 . S
H970 N958 0.984 . S
H971 N958 0.985 . S
C972 C973 1.363 . S
C972 C978 1.379 . S
C972 N980 1.356 . S
C973 C972 1.363 . S
C973 C979 1.363 . S
C974 C975 1.363 . S
C974 C979 1.379 . S
C974 N981 1.356 . S
C975 C974 1.363 . S
C975 C978 1.363 . S
N976 C978 1.356 . S
N976 H988 0.984 . S
N976 H989 0.985 . S
N977 C979 1.356 . S
N977 H982 0.984 . S
N977 H983 0.985 . S
C978 C972 1.379 . S
C978 C975 1.363 . S
C978 N976 1.356 . S
C979 C973 1.363 . S
C979 C974 1.379 . S
C979 N977 1.356 . S
N980 C972 1.356 . S
N980 H986 0.984 . S
N980 H987 0.984 . S
N981 C974 1.356 . S
N981 H984 0.984 . S
N981 H985 0.985 . S
H982 N977 0.984 . S
H983 N977 0.985 . S
H984 N981 0.984 . S
H985 N981 0.985 . S
H986 N980 0.984 . S
H987 N980 0.984 . S
H988 N976 0.984 . S
H989 N976 0.985 . S
C990 C991 1.363 . S
C990 C996 1.379 . S
C990 N998 1.356 . S
C991 C990 1.363 . S
C991 C997 1.363 . S
C992 C993 1.363 . S
C992 C997 1.379 . S
C992 N999 1.356 . S
C993 C992 1.363 . S
C993 C996 1.363 . S
N994 C996 1.356 . S
N994 H1006 0.984 . S
N994 H1007 0.985 . S
N995 C997 1.356 . S
N995 H1000 0.984 . S
N995 H1001 0.985 . S
C996 C990 1.379 . S
C996 C993 1.363 . S
C996 N994 1.356 . S
C997 C991 1.363 . S
C997 C992 1.379 . S
C997 N995 1.356 . S
N998 C990 1.356 . S
N998 H1004 0.984 . S
N998 H1005 0.984 . S
N999 C992 1.356 . S
N999 H1002 0.984 . S
N999 H1003 0.985 . S
H1000 N995 0.984 . S
H1001 N995 0.985 . S
H1002 N999 0.984 . S
H1003 N999 0.985 . S
H1004 N998 0.984 . S
H1005 N998 0.984 . S
H1006 N994 0.984 . S
H1007 N994 0.985 . S
C1008 C1009 1.363 . S
C1008 C1014 1.379 . S
C1008 N1016 1.356 . S
C1009 C1008 1.363 . S
C1009 C1015 1.363 . S
C1010 C1011 1.363 . S
C1010 C1015 1.379 . S
C1010 N1017 1.356 . S
C1011 C1010 1.363 . S
C1011 C1014 1.363 . S
N1012 C1014 1.356 . S
N1012 H1024 0.984 . S
N1012 H1025 0.985 . S
N1013 C1015 1.356 . S
N1013 H1018 0.984 . S
N1013 H1019 0.985 . S
C1014 C1008 1.379 . S
C1014 C1011 1.363 . S
C1014 N1012 1.356 . S
C1015 C1009 1.363 . S
C1015 C1010 1.379 . S
C1015 N1013 1.356 . S
N1016 C1008 1.356 . S
N1016 H1022 0.984 . S
N1016 H1023 0.984 . S
N1017 C1010 1.356 . S
N1017 H1020 0.984 . S
N1017 H1021 0.985 . S
H1018 N1013 0.984 . S
H1019 N1013 0.985 . S
H1020 N1017 0.984 . S
H1021 N1017 0.985 . S
H1022 N1016 0.984 . S
H1023 N1016 0.984 . S
H1024 N1012 0.984 . S
H1025 N1012 0.985 . S
C1026 C1027 1.363 . S
C1026 C1032 1.379 . S
C1026 N1034 1.356 . S
C1027 C1026 1.363 . S
C1027 C1033 1.363 . S
C1028 C1029 1.363 . S
C1028 C1033 1.379 . S
C1028 N1035 1.356 . S
C1029 C1028 1.363 . S
C1029 C1032 1.363 . S
N1030 C1032 1.356 . S
N1030 H1042 0.984 . S
N1030 H1043 0.985 . S
N1031 C1033 1.356 . S
N1031 H1036 0.984 . S
N1031 H1037 0.985 . S
C1032 C1026 1.379 . S
C1032 C1029 1.363 . S
C1032 N1030 1.356 . S
C1033 C1027 1.363 . S
C1033 C1028 1.379 . S
C1033 N1031 1.356 . S
N1034 C1026 1.356 . S
N1034 H1040 0.984 . S
N1034 H1041 0.984 . S
N1035 C1028 1.356 . S
N1035 H1038 0.984 . S
N1035 H1039 0.985 . S
H1036 N1031 0.984 . S
H1037 N1031 0.985 . S
H1038 N1035 0.984 . S
H1039 N1035 0.985 . S
H1040 N1034 0.984 . S
H1041 N1034 0.984 . S
H1042 N1030 0.984 . S
H1043 N1030 0.985 . S
C1044 C1045 1.363 . S
C1044 C1050 1.379 . S
C1044 N1052 1.356 . S
C1045 C1044 1.363 . S
C1045 C1051 1.363 . S
C1046 C1047 1.363 . S
C1046 C1051 1.379 . S
C1046 N1053 1.356 . S
C1047 C1046 1.363 . S
C1047 C1050 1.363 . S
N1048 C1050 1.356 . S
N1048 H1060 0.984 . S
N1048 H1061 0.985 . S
N1049 C1051 1.356 . S
N1049 H1054 0.984 . S
N1049 H1055 0.985 . S
C1050 C1044 1.379 . S
C1050 C1047 1.363 . S
C1050 N1048 1.356 . S
C1051 C1045 1.363 . S
C1051 C1046 1.379 . S
C1051 N1049 1.356 . S
N1052 C1044 1.356 . S
N1052 H1058 0.984 . S
N1052 H1059 0.984 . S
N1053 C1046 1.356 . S
N1053 H1056 0.984 . S
N1053 H1057 0.985 . S
H1054 N1049 0.984 . S
H1055 N1049 0.985 . S
H1056 N1053 0.984 . S
H1057 N1053 0.985 . S
H1058 N1052 0.984 . S
H1059 N1052 0.984 . S
H1060 N1048 0.984 . S
H1061 N1048 0.985 . S
C1062 C1063 1.363 . S
C1062 C1068 1.379 . S
C1062 N1070 1.356 . S
C1063 C1062 1.363 . S
C1063 C1069 1.363 . S
C1064 C1065 1.363 . S
C1064 C1069 1.379 . S
C1064 N1071 1.356 . S
C1065 C1064 1.363 . S
C1065 C1068 1.363 . S
N1066 C1068 1.356 . S
N1066 H1078 0.984 . S
N1066 H1079 0.985 . S
N1067 C1069 1.356 . S
N1067 H1072 0.984 . S
N1067 H1073 0.985 . S
C1068 C1062 1.379 . S
C1068 C1065 1.363 . S
C1068 N1066 1.356 . S
C1069 C1063 1.363 . S
C1069 C1064 1.379 . S
C1069 N1067 1.356 . S
N1070 C1062 1.356 . S
N1070 H1076 0.984 . S
N1070 H1077 0.984 . S
N1071 C1064 1.356 . S
N1071 H1074 0.984 . S
N1071 H1075 0.985 . S
H1072 N1067 0.984 . S
H1073 N1067 0.985 . S
H1074 N1071 0.984 . S
H1075 N1071 0.985 . S
H1076 N1070 0.984 . S
H1077 N1070 0.984 . S
H1078 N1066 0.984 . S
H1079 N1066 0.985 . S
C1080 C1081 1.363 . S
C1080 C1086 1.379 . S
C1080 N1088 1.356 . S
C1081 C1080 1.363 . S
C1081 C1087 1.363 . S
C1082 C1083 1.363 . S
C1082 C1087 1.379 . S
C1082 N1089 1.356 . S
C1083 C1082 1.363 . S
C1083 C1086 1.363 . S
N1084 C1086 1.356 . S
N1084 H1096 0.984 . S
N1084 H1097 0.985 . S
N1085 C1087 1.356 . S
N1085 H1090 0.984 . S
N1085 H1091 0.985 . S
C1086 C1080 1.379 . S
C1086 C1083 1.363 . S
C1086 N1084 1.356 . S
C1087 C1081 1.363 . S
C1087 C1082 1.379 . S
C1087 N1085 1.356 . S
N1088 C1080 1.356 . S
N1088 H1094 0.984 . S
N1088 H1095 0.984 . S
N1089 C1082 1.356 . S
N1089 H1092 0.984 . S
N1089 H1093 0.985 . S
H1090 N1085 0.984 . S
H1091 N1085 0.985 . S
H1092 N1089 0.984 . S
H1093 N1089 0.985 . S
H1094 N1088 0.984 . S
H1095 N1088 0.984 . S
H1096 N1084 0.984 . S
H1097 N1084 0.985 . S
C1098 C1099 1.363 . S
C1098 C1104 1.379 . S
C1098 N1106 1.356 . S
C1099 C1098 1.363 . S
C1099 C1105 1.363 . S
C1100 C1101 1.363 . S
C1100 C1105 1.379 . S
C1100 N1107 1.356 . S
C1101 C1100 1.363 . S
C1101 C1104 1.363 . S
N1102 C1104 1.356 . S
N1102 H1114 0.984 . S
N1102 H1115 0.985 . S
N1103 C1105 1.356 . S
N1103 H1108 0.984 . S
N1103 H1109 0.985 . S
C1104 C1098 1.379 . S
C1104 C1101 1.363 . S
C1104 N1102 1.356 . S
C1105 C1099 1.363 . S
C1105 C1100 1.379 . S
C1105 N1103 1.356 . S
N1106 C1098 1.356 . S
N1106 H1112 0.984 . S
N1106 H1113 0.984 . S
N1107 C1100 1.356 . S
N1107 H1110 0.984 . S
N1107 H1111 0.985 . S
H1108 N1103 0.984 . S
H1109 N1103 0.985 . S
H1110 N1107 0.984 . S
H1111 N1107 0.985 . S
H1112 N1106 0.984 . S
H1113 N1106 0.984 . S
H1114 N1102 0.984 . S
H1115 N1102 0.985 . S
C1116 C1117 1.363 . S
C1116 C1122 1.379 . S
C1116 N1124 1.356 . S
C1117 C1116 1.363 . S
C1117 C1123 1.363 . S
C1118 C1119 1.363 . S
C1118 C1123 1.379 . S
C1118 N1125 1.356 . S
C1119 C1118 1.363 . S
C1119 C1122 1.363 . S
N1120 C1122 1.356 . S
N1120 H1132 0.984 . S
N1120 H1133 0.985 . S
N1121 C1123 1.356 . S
N1121 H1126 0.984 . S
N1121 H1127 0.985 . S
C1122 C1116 1.379 . S
C1122 C1119 1.363 . S
C1122 N1120 1.356 . S
C1123 C1117 1.363 . S
C1123 C1118 1.379 . S
C1123 N1121 1.356 . S
N1124 C1116 1.356 . S
N1124 H1130 0.984 . S
N1124 H1131 0.984 . S
N1125 C1118 1.356 . S
N1125 H1128 0.984 . S
N1125 H1129 0.985 . S
H1126 N1121 0.984 . S
H1127 N1121 0.985 . S
H1128 N1125 0.984 . S
H1129 N1125 0.985 . S
H1130 N1124 0.984 . S
H1131 N1124 0.984 . S
H1132 N1120 0.984 . S
H1133 N1120 0.985 . S
C1134 C1135 1.363 . S
C1134 C1140 1.379 . S
C1134 N1142 1.356 . S
C1135 C1134 1.363 . S
C1135 C1141 1.363 . S
C1136 C1137 1.363 . S
C1136 C1141 1.379 . S
C1136 N1143 1.356 . S
C1137 C1136 1.363 . S
C1137 C1140 1.363 . S
N1138 C1140 1.356 . S
N1138 H1150 0.984 . S
N1138 H1151 0.985 . S
N1139 C1141 1.356 . S
N1139 H1144 0.984 . S
N1139 H1145 0.985 . S
C1140 C1134 1.379 . S
C1140 C1137 1.363 . S
C1140 N1138 1.356 . S
C1141 C1135 1.363 . S
C1141 C1136 1.379 . S
C1141 N1139 1.356 . S
N1142 C1134 1.356 . S
N1142 H1148 0.984 . S
N1142 H1149 0.984 . S
N1143 C1136 1.356 . S
N1143 H1146 0.984 . S
N1143 H1147 0.985 . S
H1144 N1139 0.984 . S
H1145 N1139 0.985 . S
H1146 N1143 0.984 . S
H1147 N1143 0.985 . S
H1148 N1142 0.984 . S
H1149 N1142 0.984 . S
H1150 N1138 0.984 . S
H1151 N1138 0.985 . S
C1152 C1153 1.363 . S
C1152 C1158 1.379 . S
C1152 N1160 1.356 . S
C1153 C1152 1.363 . S
C1153 C1159 1.363 . S
C1154 C1155 1.363 . S
C1154 C1159 1.379 . S
C1154 N1161 1.356 . S
C1155 C1154 1.363 . S
C1155 C1158 1.363 . S
N1156 C1158 1.356 . S
N1156 H1168 0.984 . S
N1156 H1169 0.985 . S
N1157 C1159 1.356 . S
N1157 H1162 0.984 . S
N1157 H1163 0.985 . S
C1158 C1152 1.379 . S
C1158 C1155 1.363 . S
C1158 N1156 1.356 . S
C1159 C1153 1.363 . S
C1159 C1154 1.379 . S
C1159 N1157 1.356 . S
N1160 C1152 1.356 . S
N1160 H1166 0.984 . S
N1160 H1167 0.984 . S
N1161 C1154 1.356 . S
N1161 H1164 0.984 . S
N1161 H1165 0.985 . S
H1162 N1157 0.984 . S
H1163 N1157 0.985 . S
H1164 N1161 0.984 . S
H1165 N1161 0.985 . S
H1166 N1160 0.984 . S
H1167 N1160 0.984 . S
H1168 N1156 0.984 . S
H1169 N1156 0.985 . S
C1170 C1171 1.363 . S
C1170 C1176 1.379 . S
C1170 N1178 1.356 . S
C1171 C1170 1.363 . S
C1171 C1177 1.363 . S
C1172 C1173 1.363 . S
C1172 C1177 1.379 . S
C1172 N1179 1.356 . S
C1173 C1172 1.363 . S
C1173 C1176 1.363 . S
N1174 C1176 1.356 . S
N1174 H1186 0.984 . S
N1174 H1187 0.985 . S
N1175 C1177 1.356 . S
N1175 H1180 0.984 . S
N1175 H1181 0.985 . S
C1176 C1170 1.379 . S
C1176 C1173 1.363 . S
C1176 N1174 1.356 . S
C1177 C1171 1.363 . S
C1177 C1172 1.379 . S
C1177 N1175 1.356 . S
N1178 C1170 1.356 . S
N1178 H1184 0.984 . S
N1178 H1185 0.984 . S
N1179 C1172 1.356 . S
N1179 H1182 0.984 . S
N1179 H1183 0.985 . S
H1180 N1175 0.984 . S
H1181 N1175 0.985 . S
H1182 N1179 0.984 . S
H1183 N1179 0.985 . S
H1184 N1178 0.984 . S
H1185 N1178 0.984 . S
H1186 N1174 0.984 . S
H1187 N1174 0.985 . S
C1188 C1189 1.363 . S
C1188 C1194 1.379 . S
C1188 N1196 1.356 . S
C1189 C1188 1.363 . S
C1189 C1195 1.363 . S
C1190 C1191 1.363 . S
C1190 C1195 1.379 . S
C1190 N1197 1.356 1_655 S
C1191 C1190 1.363 . S
C1191 C1194 1.363 . S
N1192 C1194 1.356 . S
N1192 H1204 0.984 . S
N1192 H1205 0.985 1_655 S
N1193 C1195 1.356 . S
N1193 H1198 0.984 . S
N1193 H1199 0.985 . S
C1194 C1188 1.379 . S
C1194 C1191 1.363 . S
C1194 N1192 1.356 . S
C1195 C1189 1.363 . S
C1195 C1190 1.379 . S
C1195 N1193 1.356 . S
N1196 C1188 1.356 . S
N1196 H1202 0.984 . S
N1196 H1203 0.984 . S
N1197 C1190 1.356 1_455 S
N1197 H1200 0.984 . S
N1197 H1201 0.985 . S
H1198 N1193 0.984 . S
H1199 N1193 0.985 . S
H1200 N1197 0.984 . S
H1201 N1197 0.985 . S
H1202 N1196 0.984 . S
H1203 N1196 0.984 . S
H1204 N1192 0.984 . S
H1205 N1192 0.985 1_455 S
C1206 C1207 1.363 . S
C1206 C1212 1.379 . S
C1206 N1214 1.356 . S
C1207 C1206 1.363 . S
C1207 C1213 1.363 . S
C1208 C1209 1.363 . S
C1208 C1213 1.379 1_545 S
C1208 N1215 1.356 . S
C1209 C1208 1.363 . S
C1209 C1212 1.363 1_545 S
N1210 C1212 1.354 . S
N1210 H1222 0.982 . S
N1210 H1223 0.989 1_565 S
N1211 C1213 1.356 . S
N1211 H1216 0.984 . S
N1211 H1217 0.985 . S
C1212 C1206 1.379 . S
C1212 C1209 1.363 1_565 S
C1212 N1210 1.354 . S
C1213 C1207 1.363 . S
C1213 C1208 1.379 1_565 S
C1213 N1211 1.356 . S
N1214 C1206 1.356 . S
N1214 H1220 0.984 . S
N1214 H1221 0.984 . S
N1215 C1208 1.356 . S
N1215 H1218 0.984 . S
N1215 H1219 0.985 . S
H1216 N1211 0.984 . S
H1217 N1211 0.985 . S
H1218 N1215 0.984 . S
H1219 N1215 0.985 . S
H1220 N1214 0.984 . S
H1221 N1214 0.984 . S
H1222 N1210 0.982 . S
H1223 N1210 0.989 1_545 S
C1224 C1225 1.363 . S
C1224 C1230 1.379 . S
C1224 N1232 1.356 . S
C1225 C1224 1.363 . S
C1225 C1231 1.363 . S
C1226 C1227 1.363 . S
C1226 C1231 1.379 . S
C1226 N1233 1.356 . S
C1227 C1226 1.363 . S
C1227 C1230 1.363 . S
N1228 C1230 1.356 . S
N1228 H1240 0.984 . S
N1228 H1241 0.985 . S
N1229 C1231 1.356 . S
N1229 H1234 0.984 . S
N1229 H1235 0.985 . S
C1230 C1224 1.379 . S
C1230 C1227 1.363 . S
C1230 N1228 1.356 . S
C1231 C1225 1.363 . S
C1231 C1226 1.379 . S
C1231 N1229 1.356 . S
N1232 C1224 1.356 . S
N1232 H1238 0.984 . S
N1232 H1239 0.984 . S
N1233 C1226 1.356 . S
N1233 H1236 0.984 . S
N1233 H1237 0.985 . S
H1234 N1229 0.984 . S
H1235 N1229 0.985 . S
H1236 N1233 0.984 . S
H1237 N1233 0.985 . S
H1238 N1232 0.984 . S
H1239 N1232 0.984 . S
H1240 N1228 0.984 . S
H1241 N1228 0.985 . S
C1242 C1243 1.363 . S
C1242 C1248 1.379 . S
C1242 N1250 1.356 . S
C1243 C1242 1.363 . S
C1243 C1249 1.363 . S
C1244 C1245 1.363 . S
C1244 C1249 1.379 . S
C1244 N1251 1.356 . S
C1245 C1244 1.363 . S
C1245 C1248 1.363 . S
N1246 C1248 1.356 . S
N1246 H1258 0.984 . S
N1246 H1259 0.985 . S
N1247 C1249 1.356 . S
N1247 H1252 0.984 . S
N1247 H1253 0.985 . S
C1248 C1242 1.379 . S
C1248 C1245 1.363 . S
C1248 N1246 1.356 . S
C1249 C1243 1.363 . S
C1249 C1244 1.379 . S
C1249 N1247 1.356 . S
N1250 C1242 1.356 . S
N1250 H1256 0.984 . S
N1250 H1257 0.984 . S
N1251 C1244 1.356 . S
N1251 H1254 0.984 . S
N1251 H1255 0.985 . S
H1252 N1247 0.984 . S
H1253 N1247 0.985 . S
H1254 N1251 0.984 . S
H1255 N1251 0.985 . S
H1256 N1250 0.984 . S
H1257 N1250 0.984 . S
H1258 N1246 0.984 . S
H1259 N1246 0.985 . S
C1260 C1261 1.363 . S
C1260 C1266 1.379 . S
C1260 N1268 1.356 . S
C1261 C1260 1.363 . S
C1261 C1267 1.363 . S
C1262 C1263 1.363 . S
C1262 C1267 1.379 . S
C1262 N1269 1.356 . S
C1263 C1262 1.363 . S
C1263 C1266 1.363 . S
N1264 C1266 1.356 . S
N1264 H1276 0.984 . S
N1264 H1277 0.985 . S
N1265 C1267 1.356 . S
N1265 H1270 0.984 . S
N1265 H1271 0.985 . S
C1266 C1260 1.379 . S
C1266 C1263 1.363 . S
C1266 N1264 1.356 . S
C1267 C1261 1.363 . S
C1267 C1262 1.379 . S
C1267 N1265 1.356 . S
N1268 C1260 1.356 . S
N1268 H1274 0.984 . S
N1268 H1275 0.984 . S
N1269 C1262 1.356 . S
N1269 H1272 0.984 . S
N1269 H1273 0.985 . S
H1270 N1265 0.984 . S
H1271 N1265 0.985 . S
H1272 N1269 0.984 . S
H1273 N1269 0.985 . S
H1274 N1268 0.984 . S
H1275 N1268 0.984 . S
H1276 N1264 0.984 . S
H1277 N1264 0.985 . S
C1278 C1279 1.363 . S
C1278 C1284 1.379 . S
C1278 N1286 1.356 . S
C1279 C1278 1.363 . S
C1279 C1285 1.363 . S
C1280 C1281 1.363 . S
C1280 C1285 1.379 . S
C1280 N1287 1.356 . S
C1281 C1280 1.363 . S
C1281 C1284 1.363 . S
N1282 C1284 1.356 . S
N1282 H1294 0.984 . S
N1282 H1295 0.985 . S
N1283 C1285 1.356 . S
N1283 H1288 0.984 . S
N1283 H1289 0.985 . S
C1284 C1278 1.379 . S
C1284 C1281 1.363 . S
C1284 N1282 1.356 . S
C1285 C1279 1.363 . S
C1285 C1280 1.379 . S
C1285 N1283 1.356 . S
N1286 C1278 1.356 . S
N1286 H1292 0.984 . S
N1286 H1293 0.984 . S
N1287 C1280 1.356 . S
N1287 H1290 0.984 . S
N1287 H1291 0.985 . S
H1288 N1283 0.984 . S
H1289 N1283 0.985 . S
H1290 N1287 0.984 . S
H1291 N1287 0.985 . S
H1292 N1286 0.984 . S
H1293 N1286 0.984 . S
H1294 N1282 0.984 . S
H1295 N1282 0.985 . S
C1296 C1297 1.363 . S
C1296 C1302 1.379 . S
C1296 N1304 1.356 . S
C1297 C1296 1.363 . S
C1297 C1303 1.363 . S
C1298 C1299 1.363 . S
C1298 C1303 1.379 . S
C1298 N1305 1.356 . S
C1299 C1298 1.363 . S
C1299 C1302 1.363 . S
N1300 C1302 1.356 . S
N1300 H1312 0.984 . S
N1300 H1313 0.985 . S
N1301 C1303 1.356 . S
N1301 H1306 0.984 . S
N1301 H1307 0.985 . S
C1302 C1296 1.379 . S
C1302 C1299 1.363 . S
C1302 N1300 1.356 . S
C1303 C1297 1.363 . S
C1303 C1298 1.379 . S
C1303 N1301 1.356 . S
N1304 C1296 1.356 . S
N1304 H1310 0.984 . S
N1304 H1311 0.984 . S
N1305 C1298 1.356 . S
N1305 H1308 0.984 . S
N1305 H1309 0.985 . S
H1306 N1301 0.984 . S
H1307 N1301 0.985 . S
H1308 N1305 0.984 . S
H1309 N1305 0.985 . S
H1310 N1304 0.984 . S
H1311 N1304 0.984 . S
H1312 N1300 0.984 . S
H1313 N1300 0.985 . S
C1314 C1315 1.363 . S
C1314 C1320 1.379 . S
C1314 N1322 1.356 . S
C1315 C1314 1.363 . S
C1315 C1321 1.363 . S
C1316 C1317 1.363 . S
C1316 C1321 1.379 . S
C1316 N1323 1.356 . S
C1317 C1316 1.363 . S
C1317 C1320 1.363 . S
N1318 C1320 1.356 . S
N1318 H1330 0.984 . S
N1318 H1331 0.985 . S
N1319 C1321 1.356 . S
N1319 H1324 0.984 . S
N1319 H1325 0.985 . S
C1320 C1314 1.379 . S
C1320 C1317 1.363 . S
C1320 N1318 1.356 . S
C1321 C1315 1.363 . S
C1321 C1316 1.379 . S
C1321 N1319 1.356 . S
N1322 C1314 1.356 . S
N1322 H1328 0.984 . S
N1322 H1329 0.984 . S
N1323 C1316 1.356 . S
N1323 H1326 0.984 . S
N1323 H1327 0.985 . S
H1324 N1319 0.984 . S
H1325 N1319 0.985 . S
H1326 N1323 0.984 . S
H1327 N1323 0.985 . S
H1328 N1322 0.984 . S
H1329 N1322 0.984 . S
H1330 N1318 0.984 . S
H1331 N1318 0.985 . S
C1332 C1333 1.363 . S
C1332 C1338 1.379 . S
C1332 N1340 1.356 . S
C1333 C1332 1.363 . S
C1333 C1339 1.363 . S
C1334 C1335 1.363 . S
C1334 C1339 1.379 . S
C1334 N1341 1.356 . S
C1335 C1334 1.363 . S
C1335 C1338 1.363 . S
N1336 C1338 1.356 . S
N1336 H1348 0.984 . S
N1336 H1349 0.985 . S
N1337 C1339 1.356 . S
N1337 H1342 0.984 . S
N1337 H1343 0.985 . S
C1338 C1332 1.379 . S
C1338 C1335 1.363 . S
C1338 N1336 1.356 . S
C1339 C1333 1.363 . S
C1339 C1334 1.379 . S
C1339 N1337 1.356 . S
N1340 C1332 1.356 . S
N1340 H1346 0.984 . S
N1340 H1347 0.984 . S
N1341 C1334 1.356 . S
N1341 H1344 0.984 . S
N1341 H1345 0.985 . S
H1342 N1337 0.984 . S
H1343 N1337 0.985 . S
H1344 N1341 0.984 . S
H1345 N1341 0.985 . S
H1346 N1340 0.984 . S
H1347 N1340 0.984 . S
H1348 N1336 0.984 . S
H1349 N1336 0.985 . S
C1350 C1351 1.363 . S
C1350 C1356 1.379 . S
C1350 N1358 1.356 . S
C1351 C1350 1.363 . S
C1351 C1357 1.363 . S
C1352 C1353 1.363 . S
C1352 C1357 1.379 . S
C1352 N1359 1.356 . S
C1353 C1352 1.363 . S
C1353 C1356 1.363 . S
N1354 C1356 1.356 . S
N1354 H1366 0.984 . S
N1354 H1367 0.985 . S
N1355 C1357 1.356 . S
N1355 H1360 0.984 . S
N1355 H1361 0.985 . S
C1356 C1350 1.379 . S
C1356 C1353 1.363 . S
C1356 N1354 1.356 . S
C1357 C1351 1.363 . S
C1357 C1352 1.379 . S
C1357 N1355 1.356 . S
N1358 C1350 1.356 . S
N1358 H1364 0.984 . S
N1358 H1365 0.984 . S
N1359 C1352 1.356 . S
N1359 H1362 0.984 1_655 S
N1359 H1363 0.985 1_655 S
H1360 N1355 0.984 . S
H1361 N1355 0.985 . S
H1362 N1359 0.984 1_455 S
H1363 N1359 0.985 1_455 S
H1364 N1358 0.984 . S
H1365 N1358 0.984 . S
H1366 N1354 0.984 . S
H1367 N1354 0.985 . S
C1368 C1369 1.363 . S
C1368 C1374 1.379 . S
C1368 N1376 1.356 . S
C1369 C1368 1.363 . S
C1369 C1375 1.363 . S
C1370 C1371 1.363 . S
C1370 C1375 1.379 . S
C1370 N1377 1.356 . S
C1371 C1370 1.363 . S
C1371 C1374 1.363 . S
N1372 C1374 1.356 . S
N1372 H1384 0.984 . S
N1372 H1385 0.985 . S
N1373 C1375 1.356 . S
N1373 H1378 0.984 . S
N1373 H1379 0.985 . S
C1374 C1368 1.379 . S
C1374 C1371 1.363 . S
C1374 N1372 1.356 . S
C1375 C1369 1.363 . S
C1375 C1370 1.379 . S
C1375 N1373 1.356 . S
N1376 C1368 1.356 . S
N1376 H1382 0.984 . S
N1376 H1383 0.984 . S
N1377 C1370 1.356 . S
N1377 H1380 0.984 . S
N1377 H1381 0.985 . S
H1378 N1373 0.984 . S
H1379 N1373 0.985 . S
H1380 N1377 0.984 . S
H1381 N1377 0.985 . S
H1382 N1376 0.984 . S
H1383 N1376 0.984 . S
H1384 N1372 0.984 . S
H1385 N1372 0.985 . S
C1386 C1387 1.363 . S
C1386 C1392 1.379 . S
C1386 N1394 1.356 . S
C1387 C1386 1.363 . S
C1387 C1393 1.363 . S
C1388 C1389 1.363 . S
C1388 C1393 1.379 . S
C1388 N1395 1.356 . S
C1389 C1388 1.363 . S
C1389 C1392 1.363 . S
N1390 C1392 1.356 . S
N1390 H1402 0.984 . S
N1390 H1403 0.985 . S
N1391 C1393 1.356 . S
N1391 H1396 0.984 . S
N1391 H1397 0.985 . S
C1392 C1386 1.379 . S
C1392 C1389 1.363 . S
C1392 N1390 1.356 . S
C1393 C1387 1.363 . S
C1393 C1388 1.379 . S
C1393 N1391 1.356 . S
N1394 C1386 1.356 . S
N1394 H1400 0.984 . S
N1394 H1401 0.984 . S
N1395 C1388 1.356 . S
N1395 H1398 0.984 . S
N1395 H1399 0.985 . S
H1396 N1391 0.984 . S
H1397 N1391 0.985 . S
H1398 N1395 0.984 . S
H1399 N1395 0.985 . S
H1400 N1394 0.984 . S
H1401 N1394 0.984 . S
H1402 N1390 0.984 . S
H1403 N1390 0.985 . S
C1404 C1405 1.363 . S
C1404 C1410 1.379 . S
C1404 N1412 1.356 . S
C1405 C1404 1.363 . S
C1405 C1411 1.363 . S
C1406 C1407 1.363 . S
C1406 C1411 1.379 . S
C1406 N1413 1.356 . S
C1407 C1406 1.363 . S
C1407 C1410 1.363 . S
N1408 C1410 1.356 . S
N1408 H1420 0.984 . S
N1408 H1421 0.985 . S
N1409 C1411 1.356 . S
N1409 H1414 0.984 . S
N1409 H1415 0.985 . S
C1410 C1404 1.379 . S
C1410 C1407 1.363 . S
C1410 N1408 1.356 . S
C1411 C1405 1.363 . S
C1411 C1406 1.379 . S
C1411 N1409 1.356 . S
N1412 C1404 1.356 . S
N1412 H1418 0.984 . S
N1412 H1419 0.984 . S
N1413 C1406 1.356 . S
N1413 H1416 0.984 . S
N1413 H1417 0.985 . S
H1414 N1409 0.984 . S
H1415 N1409 0.985 . S
H1416 N1413 0.984 . S
H1417 N1413 0.985 . S
H1418 N1412 0.984 . S
H1419 N1412 0.984 . S
H1420 N1408 0.984 . S
H1421 N1408 0.985 . S
C1422 C1423 1.363 . S
C1422 C1428 1.379 . S
C1422 N1430 1.356 . S
C1423 C1422 1.363 . S
C1423 C1429 1.363 . S
C1424 C1425 1.363 . S
C1424 C1429 1.379 . S
C1424 N1431 1.356 . S
C1425 C1424 1.363 . S
C1425 C1428 1.363 . S
N1426 C1428 1.356 . S
N1426 H1438 0.984 . S
N1426 H1439 0.985 . S
N1427 C1429 1.356 . S
N1427 H1432 0.984 . S
N1427 H1433 0.985 . S
C1428 C1422 1.379 . S
C1428 C1425 1.363 . S
C1428 N1426 1.356 . S
C1429 C1423 1.363 . S
C1429 C1424 1.379 . S
C1429 N1427 1.356 . S
N1430 C1422 1.356 . S
N1430 H1436 0.984 . S
N1430 H1437 0.984 . S
N1431 C1424 1.356 . S
N1431 H1434 0.984 . S
N1431 H1435 0.985 . S
H1432 N1427 0.984 . S
H1433 N1427 0.985 . S
H1434 N1431 0.984 . S
H1435 N1431 0.985 . S
H1436 N1430 0.984 . S
H1437 N1430 0.984 . S
H1438 N1426 0.984 . S
H1439 N1426 0.985 . S
C1440 C1441 1.363 . S
C1440 C1446 1.379 . S
C1440 N1448 1.356 . S
C1441 C1440 1.363 . S
C1441 C1447 1.363 . S
C1442 C1443 1.363 . S
C1442 C1447 1.379 . S
C1442 N1449 1.356 . S
C1443 C1442 1.363 . S
C1443 C1446 1.363 . S
N1444 C1446 1.356 . S
N1444 H1456 0.984 . S
N1444 H1457 0.985 . S
N1445 C1447 1.356 . S
N1445 H1450 0.984 . S
N1445 H1451 0.985 . S
C1446 C1440 1.379 . S
C1446 C1443 1.363 . S
C1446 N1444 1.356 . S
C1447 C1441 1.363 . S
C1447 C1442 1.379 . S
C1447 N1445 1.356 . S
N1448 C1440 1.356 . S
N1448 H1454 0.984 . S
N1448 H1455 0.984 . S
N1449 C1442 1.356 . S
N1449 H1452 0.984 . S
N1449 H1453 0.985 . S
H1450 N1445 0.984 . S
H1451 N1445 0.985 . S
H1452 N1449 0.984 . S
H1453 N1449 0.985 . S
H1454 N1448 0.984 . S
H1455 N1448 0.984 . S
H1456 N1444 0.984 . S
H1457 N1444 0.985 . S
C1458 C1459 1.363 . S
C1458 C1464 1.379 . S
C1458 N1466 1.356 . S
C1459 C1458 1.363 . S
C1459 C1465 1.363 . S
C1460 C1461 1.363 . S
C1460 C1465 1.379 . S
C1460 N1467 1.356 . S
C1461 C1460 1.363 . S
C1461 C1464 1.363 . S
N1462 C1464 1.356 . S
N1462 H1474 0.984 . S
N1462 H1475 0.985 . S
N1463 C1465 1.356 . S
N1463 H1468 0.984 . S
N1463 H1469 0.985 . S
C1464 C1458 1.379 . S
C1464 C1461 1.363 . S
C1464 N1462 1.356 . S
C1465 C1459 1.363 . S
C1465 C1460 1.379 . S
C1465 N1463 1.356 . S
N1466 C1458 1.356 . S
N1466 H1472 0.984 . S
N1466 H1473 0.984 . S
N1467 C1460 1.356 . S
N1467 H1470 0.984 . S
N1467 H1471 0.985 . S
H1468 N1463 0.984 . S
H1469 N1463 0.985 . S
H1470 N1467 0.984 . S
H1471 N1467 0.985 . S
H1472 N1466 0.984 . S
H1473 N1466 0.984 . S
H1474 N1462 0.984 . S
H1475 N1462 0.985 . S
C1476 C1477 1.363 . S
C1476 C1482 1.379 . S
C1476 N1484 1.356 . S
C1477 C1476 1.363 . S
C1477 C1483 1.363 . S
C1478 C1479 1.363 . S
C1478 C1483 1.379 . S
C1478 N1485 1.356 . S
C1479 C1478 1.363 . S
C1479 C1482 1.363 . S
N1480 C1482 1.356 . S
N1480 H1492 0.984 . S
N1480 H1493 0.985 . S
N1481 C1483 1.356 . S
N1481 H1486 0.984 . S
N1481 H1487 0.985 . S
C1482 C1476 1.379 . S
C1482 C1479 1.363 . S
C1482 N1480 1.356 . S
C1483 C1477 1.363 . S
C1483 C1478 1.379 . S
C1483 N1481 1.356 . S
N1484 C1476 1.356 . S
N1484 H1490 0.984 . S
N1484 H1491 0.984 . S
N1485 C1478 1.356 . S
N1485 H1488 0.984 . S
N1485 H1489 0.985 . S
H1486 N1481 0.984 . S
H1487 N1481 0.985 . S
H1488 N1485 0.984 . S
H1489 N1485 0.985 . S
H1490 N1484 0.984 . S
H1491 N1484 0.984 . S
H1492 N1480 0.984 . S
H1493 N1480 0.985 . S
C1494 C1495 1.363 . S
C1494 C1500 1.379 . S
C1494 N1502 1.356 . S
C1495 C1494 1.363 . S
C1495 C1501 1.363 . S
C1496 C1497 1.363 . S
C1496 C1501 1.379 . S
C1496 N1503 1.356 . S
C1497 C1496 1.363 . S
C1497 C1500 1.363 . S
N1498 C1500 1.356 . S
N1498 H1510 0.984 . S
N1498 H1511 0.985 . S
N1499 C1501 1.356 . S
N1499 H1504 0.984 . S
N1499 H1505 0.985 . S
C1500 C1494 1.379 . S
C1500 C1497 1.363 . S
C1500 N1498 1.356 . S
C1501 C1495 1.363 . S
C1501 C1496 1.379 . S
C1501 N1499 1.356 . S
N1502 C1494 1.356 . S
N1502 H1508 0.984 . S
N1502 H1509 0.984 . S
N1503 C1496 1.356 . S
N1503 H1506 0.984 . S
N1503 H1507 0.985 . S
H1504 N1499 0.984 . S
H1505 N1499 0.985 . S
H1506 N1503 0.984 . S
H1507 N1503 0.985 . S
H1508 N1502 0.984 . S
H1509 N1502 0.984 . S
H1510 N1498 0.984 . S
H1511 N1498 0.985 . S
C1512 C1513 1.363 . S
C1512 C1518 1.379 . S
C1512 N1520 1.356 . S
C1513 C1512 1.363 . S
C1513 C1519 1.363 . S
C1514 C1515 1.363 . S
C1514 C1519 1.379 . S
C1514 N1521 1.356 . S
C1515 C1514 1.363 . S
C1515 C1518 1.363 . S
N1516 C1518 1.356 . S
N1516 H1528 0.984 . S
N1516 H1529 0.985 . S
N1517 C1519 1.356 . S
N1517 H1522 0.984 . S
N1517 H1523 0.985 . S
C1518 C1512 1.379 . S
C1518 C1515 1.363 . S
C1518 N1516 1.356 . S
C1519 C1513 1.363 . S
C1519 C1514 1.379 . S
C1519 N1517 1.356 . S
N1520 C1512 1.356 . S
N1520 H1526 0.984 . S
N1520 H1527 0.984 . S
N1521 C1514 1.356 . S
N1521 H1524 0.984 . S
N1521 H1525 0.985 . S
H1522 N1517 0.984 . S
H1523 N1517 0.985 . S
H1524 N1521 0.984 . S
H1525 N1521 0.985 . S
H1526 N1520 0.984 . S
H1527 N1520 0.984 . S
H1528 N1516 0.984 . S
H1529 N1516 0.985 . S
C1530 C1531 1.363 . S
C1530 C1536 1.379 . S
C1530 N1538 1.356 . S
C1531 C1530 1.363 . S
C1531 C1537 1.363 . S
C1532 C1533 1.363 . S
C1532 C1537 1.379 . S
C1532 N1539 1.356 . S
C1533 C1532 1.363 . S
C1533 C1536 1.363 . S
N1534 C1536 1.356 . S
N1534 H1546 0.984 . S
N1534 H1547 0.985 . S
N1535 C1537 1.356 . S
N1535 H1540 0.984 . S
N1535 H1541 0.985 . S
C1536 C1530 1.379 . S
C1536 C1533 1.363 . S
C1536 N1534 1.356 . S
C1537 C1531 1.363 . S
C1537 C1532 1.379 . S
C1537 N1535 1.356 . S
N1538 C1530 1.356 . S
N1538 H1544 0.984 . S
N1538 H1545 0.984 . S
N1539 C1532 1.356 . S
N1539 H1542 0.984 . S
N1539 H1543 0.985 . S
H1540 N1535 0.984 . S
H1541 N1535 0.985 . S
H1542 N1539 0.984 . S
H1543 N1539 0.985 . S
H1544 N1538 0.984 . S
H1545 N1538 0.984 . S
H1546 N1534 0.984 . S
H1547 N1534 0.985 . S
C1548 C1549 1.363 . S
C1548 C1554 1.379 . S
C1548 N1556 1.356 . S
C1549 C1548 1.363 . S
C1549 C1555 1.363 . S
C1550 C1551 1.363 . S
C1550 C1555 1.379 . S
C1550 N1557 1.356 1_655 S
C1551 C1550 1.363 . S
C1551 C1554 1.363 . S
N1552 C1554 1.356 . S
N1552 H1564 0.984 . S
N1552 H1565 0.988 . S
N1553 C1555 1.356 . S
N1553 H1558 0.984 . S
N1553 H1559 0.985 . S
C1554 C1548 1.379 . S
C1554 C1551 1.363 . S
C1554 N1552 1.356 . S
C1555 C1549 1.363 . S
C1555 C1550 1.379 . S
C1555 N1553 1.356 . S
N1556 C1548 1.356 . S
N1556 H1562 0.984 . S
N1556 H1563 0.984 . S
N1557 C1550 1.356 1_455 S
N1557 H1560 0.984 . S
N1557 H1561 0.985 . S
H1558 N1553 0.984 . S
H1559 N1553 0.985 . S
H1560 N1557 0.984 . S
H1561 N1557 0.985 . S
H1562 N1556 0.984 . S
H1563 N1556 0.984 . S
H1564 N1552 0.984 . S
H1565 N1552 0.988 . S
C1566 C1567 1.363 . S
C1566 C1572 1.379 . S
C1566 N1574 1.356 . S
C1567 C1566 1.363 . S
C1567 C1573 1.363 . S
C1568 C1569 1.363 . S
C1568 C1573 1.379 . S
C1568 N1575 1.356 . S
C1569 C1568 1.363 . S
C1569 C1572 1.363 . S
N1570 C1572 1.356 . S
N1570 H1582 0.984 . S
N1570 H1583 0.985 . S
N1571 C1573 1.356 . S
N1571 H1576 0.984 . S
N1571 H1577 0.985 . S
C1572 C1566 1.379 . S
C1572 C1569 1.363 . S
C1572 N1570 1.356 . S
C1573 C1567 1.363 . S
C1573 C1568 1.379 . S
C1573 N1571 1.356 . S
N1574 C1566 1.356 . S
N1574 H1580 0.984 . S
N1574 H1581 0.984 . S
N1575 C1568 1.356 . S
N1575 H1578 0.984 . S
N1575 H1579 0.985 . S
H1576 N1571 0.984 . S
H1577 N1571 0.985 . S
H1578 N1575 0.984 . S
H1579 N1575 0.985 . S
H1580 N1574 0.984 . S
H1581 N1574 0.984 . S
H1582 N1570 0.984 . S
H1583 N1570 0.985 . S
C1584 C1585 1.363 . S
C1584 C1590 1.379 . S
C1584 N1592 1.356 . S
C1585 C1584 1.363 . S
C1585 C1591 1.363 . S
C1586 C1587 1.363 . S
C1586 C1591 1.379 . S
C1586 N1593 1.356 . S
C1587 C1586 1.363 . S
C1587 C1590 1.363 . S
N1588 C1590 1.356 . S
N1588 H1600 0.984 . S
N1588 H1601 0.985 . S
N1589 C1591 1.356 . S
N1589 H1594 0.984 . S
N1589 H1595 0.985 . S
C1590 C1584 1.379 . S
C1590 C1587 1.363 . S
C1590 N1588 1.356 . S
C1591 C1585 1.363 . S
C1591 C1586 1.379 . S
C1591 N1589 1.356 . S
N1592 C1584 1.356 . S
N1592 H1598 0.984 . S
N1592 H1599 0.984 . S
N1593 C1586 1.356 . S
N1593 H1596 0.984 . S
N1593 H1597 0.985 . S
H1594 N1589 0.984 . S
H1595 N1589 0.985 . S
H1596 N1593 0.984 . S
H1597 N1593 0.985 . S
H1598 N1592 0.984 . S
H1599 N1592 0.984 . S
H1600 N1588 0.984 . S
H1601 N1588 0.985 . S
C1602 C1603 1.363 . S
C1602 C1608 1.379 . S
C1602 N1610 1.356 . S
C1603 C1602 1.363 . S
C1603 C1609 1.363 . S
C1604 C1605 1.363 . S
C1604 C1609 1.379 . S
C1604 N1611 1.356 . S
C1605 C1604 1.363 . S
C1605 C1608 1.363 . S
N1606 C1608 1.356 . S
N1606 H1618 0.984 . S
N1606 H1619 0.985 . S
N1607 C1609 1.356 . S
N1607 H1612 0.984 . S
N1607 H1613 0.985 . S
C1608 C1602 1.379 . S
C1608 C1605 1.363 . S
C1608 N1606 1.356 . S
C1609 C1603 1.363 . S
C1609 C1604 1.379 . S
C1609 N1607 1.356 . S
N1610 C1602 1.356 . S
N1610 H1616 0.984 . S
N1610 H1617 0.984 . S
N1611 C1604 1.356 . S
N1611 H1614 0.984 . S
N1611 H1615 0.985 . S
H1612 N1607 0.984 . S
H1613 N1607 0.985 . S
H1614 N1611 0.984 . S
H1615 N1611 0.985 . S
H1616 N1610 0.984 . S
H1617 N1610 0.984 . S
H1618 N1606 0.984 . S
H1619 N1606 0.985 . S
C1620 C1621 1.363 . S
C1620 C1626 1.379 . S
C1620 N1628 1.356 . S
C1621 C1620 1.363 . S
C1621 C1627 1.363 . S
C1622 C1623 1.363 . S
C1622 C1627 1.379 . S
C1622 N1629 1.356 . S
C1623 C1622 1.363 . S
C1623 C1626 1.363 . S
N1624 C1626 1.356 . S
N1624 H1636 0.984 . S
N1624 H1637 0.985 . S
N1625 C1627 1.356 . S
N1625 H1630 0.984 . S
N1625 H1631 0.985 . S
C1626 C1620 1.379 . S
C1626 C1623 1.363 . S
C1626 N1624 1.356 . S
C1627 C1621 1.363 . S
C1627 C1622 1.379 . S
C1627 N1625 1.356 . S
N1628 C1620 1.356 . S
N1628 H1634 0.984 . S
N1628 H1635 0.984 . S
N1629 C1622 1.356 . S
N1629 H1632 0.984 . S
N1629 H1633 0.985 . S
H1630 N1625 0.984 . S
H1631 N1625 0.985 . S
H1632 N1629 0.984 . S
H1633 N1629 0.985 . S
H1634 N1628 0.984 . S
H1635 N1628 0.984 . S
H1636 N1624 0.984 . S
H1637 N1624 0.985 . S
C1638 C1639 1.363 . S
C1638 C1644 1.379 . S
C1638 N1646 1.356 . S
C1639 C1638 1.363 . S
C1639 C1645 1.363 . S
C1640 C1641 1.363 . S
C1640 C1645 1.379 . S
C1640 N1647 1.356 . S
C1641 C1640 1.363 . S
C1641 C1644 1.363 . S
N1642 C1644 1.356 . S
N1642 H1654 0.984 . S
N1642 H1655 0.985 . S
N1643 C1645 1.356 . S
N1643 H1648 0.984 . S
N1643 H1649 0.985 . S
C1644 C1638 1.379 . S
C1644 C1641 1.363 . S
C1644 N1642 1.356 . S
C1645 C1639 1.363 . S
C1645 C1640 1.379 . S
C1645 N1643 1.356 . S
N1646 C1638 1.356 . S
N1646 H1652 0.984 . S
N1646 H1653 0.984 . S
N1647 C1640 1.356 . S
N1647 H1650 0.984 . S
N1647 H1651 0.985 . S
H1648 N1643 0.984 . S
H1649 N1643 0.985 . S
H1650 N1647 0.984 . S
H1651 N1647 0.985 . S
H1652 N1646 0.984 . S
H1653 N1646 0.984 . S
H1654 N1642 0.984 . S
H1655 N1642 0.985 . S
C1656 C1657 1.363 . S
C1656 C1662 1.379 . S
C1656 N1664 1.356 . S
C1657 C1656 1.363 . S
C1657 C1663 1.363 . S
C1658 C1659 1.363 . S
C1658 C1663 1.379 . S
C1658 N1665 1.356 . S
C1659 C1658 1.363 . S
C1659 C1662 1.363 . S
N1660 C1662 1.356 . S
N1660 H1672 0.984 . S
N1660 H1673 0.985 . S
N1661 C1663 1.356 . S
N1661 H1666 0.984 . S
N1661 H1667 0.985 . S
C1662 C1656 1.379 . S
C1662 C1659 1.363 . S
C1662 N1660 1.356 . S
C1663 C1657 1.363 . S
C1663 C1658 1.379 . S
C1663 N1661 1.356 . S
N1664 C1656 1.356 . S
N1664 H1670 0.984 . S
N1664 H1671 0.984 . S
N1665 C1658 1.356 . S
N1665 H1668 0.984 . S
N1665 H1669 0.985 . S
H1666 N1661 0.984 . S
H1667 N1661 0.985 . S
H1668 N1665 0.984 . S
H1669 N1665 0.985 . S
H1670 N1664 0.984 . S
H1671 N1664 0.984 . S
H1672 N1660 0.984 . S
H1673 N1660 0.985 . S
C1674 C1675 1.363 . S
C1674 C1680 1.379 . S
C1674 N1682 1.356 . S
C1675 C1674 1.363 . S
C1675 C1681 1.363 . S
C1676 C1677 1.363 . S
C1676 C1681 1.379 . S
C1676 N1683 1.356 . S
C1677 C1676 1.363 . S
C1677 C1680 1.363 . S
N1678 C1680 1.356 . S
N1678 H1690 0.984 . S
N1678 H1691 0.985 . S
N1679 C1681 1.356 . S
N1679 H1684 0.984 . S
N1679 H1685 0.985 . S
C1680 C1674 1.379 . S
C1680 C1677 1.363 . S
C1680 N1678 1.356 . S
C1681 C1675 1.363 . S
C1681 C1676 1.379 . S
C1681 N1679 1.356 . S
N1682 C1674 1.356 . S
N1682 H1688 0.984 . S
N1682 H1689 0.984 . S
N1683 C1676 1.356 . S
N1683 H1686 0.984 . S
N1683 H1687 0.985 . S
H1684 N1679 0.984 . S
H1685 N1679 0.985 . S
H1686 N1683 0.984 . S
H1687 N1683 0.985 . S
H1688 N1682 0.984 . S
H1689 N1682 0.984 . S
H1690 N1678 0.984 . S
H1691 N1678 0.985 . S
C1692 C1693 1.363 . S
C1692 C1698 1.379 . S
C1692 N1700 1.356 . S
C1693 C1692 1.363 . S
C1693 C1699 1.363 . S
C1694 C1695 1.363 . S
C1694 C1699 1.379 . S
C1694 N1701 1.356 . S
C1695 C1694 1.363 . S
C1695 C1698 1.363 . S
N1696 C1698 1.356 . S
N1696 H1708 0.984 . S
N1696 H1709 0.985 . S
N1697 C1699 1.356 . S
N1697 H1702 0.984 . S
N1697 H1703 0.985 . S
C1698 C1692 1.379 . S
C1698 C1695 1.363 . S
C1698 N1696 1.356 . S
C1699 C1693 1.363 . S
C1699 C1694 1.379 . S
C1699 N1697 1.356 . S
N1700 C1692 1.356 . S
N1700 H1706 0.984 . S
N1700 H1707 0.984 . S
N1701 C1694 1.356 . S
N1701 H1704 0.984 . S
N1701 H1705 0.985 . S
H1702 N1697 0.984 . S
H1703 N1697 0.985 . S
H1704 N1701 0.984 . S
H1705 N1701 0.985 . S
H1706 N1700 0.984 . S
H1707 N1700 0.984 . S
H1708 N1696 0.984 . S
H1709 N1696 0.985 . S
C1710 C1711 1.363 . S
C1710 C1716 1.379 . S
C1710 N1718 1.356 . S
C1711 C1710 1.363 . S
C1711 C1717 1.363 . S
C1712 C1713 1.363 . S
C1712 C1717 1.379 . S
C1712 N1719 1.356 . S
C1713 C1712 1.363 . S
C1713 C1716 1.363 . S
N1714 C1716 1.356 . S
N1714 H1726 0.984 . S
N1714 H1727 0.985 . S
N1715 C1717 1.356 . S
N1715 H1720 0.984 . S
N1715 H1721 0.985 . S
C1716 C1710 1.379 . S
C1716 C1713 1.363 . S
C1716 N1714 1.356 . S
C1717 C1711 1.363 . S
C1717 C1712 1.379 . S
C1717 N1715 1.356 . S
N1718 C1710 1.356 . S
N1718 H1724 0.984 . S
N1718 H1725 0.984 . S
N1719 C1712 1.356 . S
N1719 H1722 0.984 . S
N1719 H1723 0.985 . S
H1720 N1715 0.984 . S
H1721 N1715 0.985 . S
H1722 N1719 0.984 . S
H1723 N1719 0.985 . S
H1724 N1718 0.984 . S
H1725 N1718 0.984 . S
H1726 N1714 0.984 . S
H1727 N1714 0.985 . S
C1728 C1729 1.363 . S
C1728 C1734 1.379 . S
C1728 N1736 1.356 . S
C1729 C1728 1.363 . S
C1729 C1735 1.363 . S
C1730 C1731 1.363 . S
C1730 C1735 1.379 . S
C1730 N1737 1.356 . S
C1731 C1730 1.363 . S
C1731 C1734 1.363 . S
N1732 C1734 1.356 . S
N1732 H1744 0.984 . S
N1732 H1745 0.985 . S
N1733 C1735 1.356 . S
N1733 H1738 0.984 . S
N1733 H1739 0.985 . S
C1734 C1728 1.379 . S
C1734 C1731 1.363 . S
C1734 N1732 1.356 . S
C1735 C1729 1.363 . S
C1735 C1730 1.379 . S
C1735 N1733 1.356 . S
N1736 C1728 1.356 . S
N1736 H1742 0.984 . S
N1736 H1743 0.984 . S
N1737 C1730 1.356 . S
N1737 H1740 0.984 . S
N1737 H1741 0.985 . S
H1738 N1733 0.984 . S
H1739 N1733 0.985 . S
H1740 N1737 0.984 . S
H1741 N1737 0.985 . S
H1742 N1736 0.984 . S
H1743 N1736 0.984 . S
H1744 N1732 0.984 . S
H1745 N1732 0.985 . S
C1746 C1747 1.363 . S
C1746 C1752 1.379 . S
C1746 N1754 1.356 . S
C1747 C1746 1.363 . S
C1747 C1753 1.363 . S
C1748 C1749 1.363 . S
C1748 C1753 1.379 . S
C1748 N1755 1.356 . S
C1749 C1748 1.363 . S
C1749 C1752 1.363 . S
N1750 C1752 1.356 . S
N1750 H1762 0.984 . S
N1750 H1763 0.985 . S
N1751 C1753 1.356 . S
N1751 H1756 0.984 . S
N1751 H1757 0.985 . S
C1752 C1746 1.379 . S
C1752 C1749 1.363 . S
C1752 N1750 1.356 . S
C1753 C1747 1.363 . S
C1753 C1748 1.379 . S
C1753 N1751 1.356 . S
N1754 C1746 1.356 . S
N1754 H1760 0.984 . S
N1754 H1761 0.984 . S
N1755 C1748 1.356 . S
N1755 H1758 0.984 . S
N1755 H1759 0.985 . S
H1756 N1751 0.984 . S
H1757 N1751 0.985 . S
H1758 N1755 0.984 . S
H1759 N1755 0.985 . S
H1760 N1754 0.984 . S
H1761 N1754 0.984 . S
H1762 N1750 0.984 . S
H1763 N1750 0.985 . S
C1764 C1765 1.363 . S
C1764 C1770 1.379 . S
C1764 N1772 1.356 . S
C1765 C1764 1.363 . S
C1765 C1771 1.363 . S
C1766 C1767 1.363 . S
C1766 C1771 1.379 . S
C1766 N1773 1.356 . S
C1767 C1766 1.363 . S
C1767 C1770 1.363 . S
N1768 C1770 1.356 . S
N1768 H1780 0.984 . S
N1768 H1781 0.985 . S
N1769 C1771 1.356 . S
N1769 H1774 0.984 . S
N1769 H1775 0.985 . S
C1770 C1764 1.379 . S
C1770 C1767 1.363 . S
C1770 N1768 1.356 . S
C1771 C1765 1.363 . S
C1771 C1766 1.379 . S
C1771 N1769 1.356 . S
N1772 C1764 1.356 . S
N1772 H1778 0.984 . S
N1772 H1779 0.984 . S
N1773 C1766 1.356 . S
N1773 H1776 0.984 . S
N1773 H1777 0.985 . S
H1774 N1769 0.984 . S
H1775 N1769 0.985 . S
H1776 N1773 0.984 . S
H1777 N1773 0.985 . S
H1778 N1772 0.984 . S
H1779 N1772 0.984 . S
H1780 N1768 0.984 . S
H1781 N1768 0.985 . S
C1782 C1783 1.363 . S
C1782 C1788 1.379 . S
C1782 N1790 1.356 . S
C1783 C1782 1.363 . S
C1783 C1789 1.363 . S
C1784 C1785 1.363 . S
C1784 C1789 1.379 . S
C1784 N1791 1.356 . S
C1785 C1784 1.363 . S
C1785 C1788 1.363 . S
N1786 C1788 1.356 . S
N1786 H1798 0.984 . S
N1786 H1799 0.985 . S
N1787 C1789 1.356 . S
N1787 H1792 0.984 . S
N1787 H1793 0.985 . S
C1788 C1782 1.379 . S
C1788 C1785 1.363 . S
C1788 N1786 1.356 . S
C1789 C1783 1.363 . S
C1789 C1784 1.379 . S
C1789 N1787 1.356 . S
N1790 C1782 1.356 . S
N1790 H1796 0.984 . S
N1790 H1797 0.984 . S
N1791 C1784 1.356 . S
N1791 H1794 0.984 . S
N1791 H1795 0.985 . S
H1792 N1787 0.984 . S
H1793 N1787 0.985 . S
H1794 N1791 0.984 . S
H1795 N1791 0.985 . S
H1796 N1790 0.984 . S
H1797 N1790 0.984 . S
H1798 N1786 0.984 . S
H1799 N1786 0.985 . S
C1800 C1801 1.363 . S
C1800 C1806 1.379 . S
C1800 N1808 1.356 . S
C1801 C1800 1.363 . S
C1801 C1807 1.363 . S
C1802 C1803 1.363 . S
C1802 C1807 1.379 . S
C1802 N1809 1.356 . S
C1803 C1802 1.363 . S
C1803 C1806 1.363 . S
N1804 C1806 1.356 . S
N1804 H1816 0.984 . S
N1804 H1817 0.985 . S
N1805 C1807 1.356 . S
N1805 H1810 0.984 . S
N1805 H1811 0.985 . S
C1806 C1800 1.379 . S
C1806 C1803 1.363 . S
C1806 N1804 1.356 . S
C1807 C1801 1.363 . S
C1807 C1802 1.379 . S
C1807 N1805 1.356 . S
N1808 C1800 1.356 . S
N1808 H1814 0.984 . S
N1808 H1815 0.984 . S
N1809 C1802 1.356 . S
N1809 H1812 0.984 . S
N1809 H1813 0.985 . S
H1810 N1805 0.984 . S
H1811 N1805 0.985 . S
H1812 N1809 0.984 . S
H1813 N1809 0.985 . S
H1814 N1808 0.984 . S
H1815 N1808 0.984 . S
H1816 N1804 0.984 . S
H1817 N1804 0.985 . S
C1818 C1819 1.363 . S
C1818 C1824 1.379 . S
C1818 N1826 1.356 . S
C1819 C1818 1.363 . S
C1819 C1825 1.363 . S
C1820 C1821 1.363 . S
C1820 C1825 1.379 . S
C1820 N1827 1.356 . S
C1821 C1820 1.363 . S
C1821 C1824 1.363 . S
N1822 C1824 1.356 . S
N1822 H1834 0.984 . S
N1822 H1835 0.985 . S
N1823 C1825 1.356 . S
N1823 H1828 0.984 . S
N1823 H1829 0.985 . S
C1824 C1818 1.379 . S
C1824 C1821 1.363 . S
C1824 N1822 1.356 . S
C1825 C1819 1.363 . S
C1825 C1820 1.379 . S
C1825 N1823 1.356 . S
N1826 C1818 1.356 . S
N1826 H1832 0.984 . S
N1826 H1833 0.984 . S
N1827 C1820 1.356 . S
N1827 H1830 0.984 . S
N1827 H1831 0.985 . S
H1828 N1823 0.984 . S
H1829 N1823 0.985 . S
H1830 N1827 0.984 . S
H1831 N1827 0.985 . S
H1832 N1826 0.984 . S
H1833 N1826 0.984 . S
H1834 N1822 0.984 . S
H1835 N1822 0.985 . S
C1836 C1837 1.363 . S
C1836 C1842 1.379 . S
C1836 N1844 1.356 . S
C1837 C1836 1.363 . S
C1837 C1843 1.363 . S
C1838 C1839 1.363 . S
C1838 C1843 1.379 . S
C1838 N1845 1.356 . S
C1839 C1838 1.363 . S
C1839 C1842 1.363 . S
N1840 C1842 1.356 . S
N1840 H1852 0.984 . S
N1840 H1853 0.985 . S
N1841 C1843 1.356 . S
N1841 H1846 0.984 . S
N1841 H1847 0.985 . S
C1842 C1836 1.379 . S
C1842 C1839 1.363 . S
C1842 N1840 1.356 . S
C1843 C1837 1.363 . S
C1843 C1838 1.379 . S
C1843 N1841 1.356 . S
N1844 C1836 1.356 . S
N1844 H1850 0.984 . S
N1844 H1851 0.984 . S
N1845 C1838 1.356 . S
N1845 H1848 0.984 . S
N1845 H1849 0.985 . S
H1846 N1841 0.984 . S
H1847 N1841 0.985 . S
H1848 N1845 0.984 . S
H1849 N1845 0.985 . S
H1850 N1844 0.984 . S
H1851 N1844 0.984 . S
H1852 N1840 0.984 . S
H1853 N1840 0.985 . S
C1854 C1855 1.363 . S
C1854 C1860 1.379 . S
C1854 N1862 1.356 . S
C1855 C1854 1.363 . S
C1855 C1861 1.363 . S
C1856 C1857 1.363 . S
C1856 C1861 1.379 . S
C1856 N1863 1.356 . S
C1857 C1856 1.363 . S
C1857 C1860 1.363 . S
N1858 C1860 1.356 . S
N1858 H1870 0.984 . S
N1858 H1871 0.985 . S
N1859 C1861 1.356 . S
N1859 H1864 0.984 . S
N1859 H1865 0.985 . S
C1860 C1854 1.379 . S
C1860 C1857 1.363 . S
C1860 N1858 1.356 . S
C1861 C1855 1.363 . S
C1861 C1856 1.379 . S
C1861 N1859 1.356 . S
N1862 C1854 1.356 . S
N1862 H1868 0.984 . S
N1862 H1869 0.984 . S
N1863 C1856 1.356 . S
N1863 H1866 0.984 . S
N1863 H1867 0.985 . S
H1864 N1859 0.984 . S
H1865 N1859 0.985 . S
H1866 N1863 0.984 . S
H1867 N1863 0.985 . S
H1868 N1862 0.984 . S
H1869 N1862 0.984 . S
H1870 N1858 0.984 . S
H1871 N1858 0.985 . S
C1872 C1873 1.363 . S
C1872 C1878 1.379 . S
C1872 N1880 1.356 . S
C1873 C1872 1.363 . S
C1873 C1879 1.363 . S
C1874 C1875 1.363 . S
C1874 C1879 1.379 . S
C1874 N1881 1.356 . S
C1875 C1874 1.363 . S
C1875 C1878 1.363 . S
N1876 C1878 1.356 . S
N1876 H1888 0.984 . S
N1876 H1889 0.985 . S
N1877 C1879 1.356 . S
N1877 H1882 0.984 . S
N1877 H1883 0.985 . S
C1878 C1872 1.379 . S
C1878 C1875 1.363 . S
C1878 N1876 1.356 . S
C1879 C1873 1.363 . S
C1879 C1874 1.379 . S
C1879 N1877 1.356 . S
N1880 C1872 1.356 . S
N1880 H1886 0.984 . S
N1880 H1887 0.984 . S
N1881 C1874 1.356 . S
N1881 H1884 0.984 . S
N1881 H1885 0.985 . S
H1882 N1877 0.984 . S
H1883 N1877 0.985 . S
H1884 N1881 0.984 . S
H1885 N1881 0.985 . S
H1886 N1880 0.984 . S
H1887 N1880 0.984 . S
H1888 N1876 0.984 . S
H1889 N1876 0.985 . S
C1890 C1891 1.363 . S
C1890 C1896 1.379 . S
C1890 N1898 1.356 . S
C1891 C1890 1.363 . S
C1891 C1897 1.363 . S
C1892 C1893 1.363 . S
C1892 C1897 1.379 . S
C1892 N1899 1.356 . S
C1893 C1892 1.363 . S
C1893 C1896 1.363 . S
N1894 C1896 1.356 . S
N1894 H1906 0.984 . S
N1894 H1907 0.985 . S
N1895 C1897 1.356 . S
N1895 H1900 0.984 . S
N1895 H1901 0.985 . S
C1896 C1890 1.379 . S
C1896 C1893 1.363 . S
C1896 N1894 1.356 . S
C1897 C1891 1.363 . S
C1897 C1892 1.379 . S
C1897 N1895 1.356 . S
N1898 C1890 1.356 . S
N1898 H1904 0.984 . S
N1898 H1905 0.984 . S
N1899 C1892 1.356 . S
N1899 H1902 0.984 . S
N1899 H1903 0.985 . S
H1900 N1895 0.984 . S
H1901 N1895 0.985 . S
H1902 N1899 0.984 . S
H1903 N1899 0.985 . S
H1904 N1898 0.984 . S
H1905 N1898 0.984 . S
H1906 N1894 0.984 . S
H1907 N1894 0.985 . S
C1908 C1909 1.363 . S
C1908 C1914 1.379 . S
C1908 N1916 1.356 . S
C1909 C1908 1.363 . S
C1909 C1915 1.363 . S
C1910 C1911 1.363 . S
C1910 C1915 1.379 . S
C1910 N1917 1.356 . S
C1911 C1910 1.363 . S
C1911 C1914 1.363 . S
N1912 C1914 1.356 . S
N1912 H1924 0.984 . S
N1912 H1925 0.985 . S
N1913 C1915 1.356 . S
N1913 H1918 0.984 . S
N1913 H1919 0.985 . S
C1914 C1908 1.379 . S
C1914 C1911 1.363 . S
C1914 N1912 1.356 . S
C1915 C1909 1.363 . S
C1915 C1910 1.379 . S
C1915 N1913 1.356 . S
N1916 C1908 1.356 . S
N1916 H1922 0.984 . S
N1916 H1923 0.984 . S
N1917 C1910 1.356 . S
N1917 H1920 0.984 . S
N1917 H1921 0.985 . S
H1918 N1913 0.984 . S
H1919 N1913 0.985 . S
H1920 N1917 0.984 . S
H1921 N1917 0.985 . S
H1922 N1916 0.984 . S
H1923 N1916 0.984 . S
H1924 N1912 0.984 . S
H1925 N1912 0.985 . S
C1926 C1927 1.363 . S
C1926 C1932 1.379 . S
C1926 N1934 1.356 . S
C1927 C1926 1.363 . S
C1927 C1933 1.363 . S
C1928 C1929 1.363 . S
C1928 C1933 1.379 . S
C1928 N1935 1.356 . S
C1929 C1928 1.363 . S
C1929 C1932 1.363 . S
N1930 C1932 1.356 . S
N1930 H1942 0.984 . S
N1930 H1943 0.985 . S
N1931 C1933 1.356 . S
N1931 H1936 0.984 . S
N1931 H1937 0.985 . S
C1932 C1926 1.379 . S
C1932 C1929 1.363 . S
C1932 N1930 1.356 . S
C1933 C1927 1.363 . S
C1933 C1928 1.379 . S
C1933 N1931 1.356 . S
N1934 C1926 1.356 . S
N1934 H1940 0.984 . S
N1934 H1941 0.984 . S
N1935 C1928 1.356 . S
N1935 H1938 0.984 . S
N1935 H1939 0.985 . S
H1936 N1931 0.984 . S
H1937 N1931 0.985 . S
H1938 N1935 0.984 . S
H1939 N1935 0.985 . S
H1940 N1934 0.984 . S
H1941 N1934 0.984 . S
H1942 N1930 0.984 . S
H1943 N1930 0.985 . S
C1944 C1945 1.363 . S
C1944 C1950 1.379 . S
C1944 N1952 1.356 . S
C1945 C1944 1.363 . S
C1945 C1951 1.363 . S
C1946 C1947 1.363 . S
C1946 C1951 1.379 . S
C1946 N1953 1.356 . S
C1947 C1946 1.363 . S
C1947 C1950 1.363 . S
N1948 C1950 1.356 . S
N1948 H1960 0.984 . S
N1948 H1961 0.985 . S
N1949 C1951 1.356 . S
N1949 H1954 0.984 . S
N1949 H1955 0.985 . S
C1950 C1944 1.379 . S
C1950 C1947 1.363 . S
C1950 N1948 1.356 . S
C1951 C1945 1.363 . S
C1951 C1946 1.379 . S
C1951 N1949 1.356 . S
N1952 C1944 1.356 . S
N1952 H1958 0.984 . S
N1952 H1959 0.984 . S
N1953 C1946 1.356 . S
N1953 H1956 0.984 . S
N1953 H1957 0.985 . S
H1954 N1949 0.984 . S
H1955 N1949 0.985 . S
H1956 N1953 0.984 . S
H1957 N1953 0.985 . S
H1958 N1952 0.984 . S
H1959 N1952 0.984 . S
H1960 N1948 0.984 . S
H1961 N1948 0.985 . S
C1962 C1963 1.363 . S
C1962 C1968 1.379 . S
C1962 N1970 1.356 . S
C1963 C1962 1.363 . S
C1963 C1969 1.363 . S
C1964 C1965 1.363 . S
C1964 C1969 1.379 . S
C1964 N1971 1.356 . S
C1965 C1964 1.363 . S
C1965 C1968 1.363 . S
N1966 C1968 1.356 . S
N1966 H1978 0.984 . S
N1966 H1979 0.985 . S
N1967 C1969 1.356 . S
N1967 H1972 0.984 . S
N1967 H1973 0.985 . S
C1968 C1962 1.379 . S
C1968 C1965 1.363 . S
C1968 N1966 1.356 . S
C1969 C1963 1.363 . S
C1969 C1964 1.379 . S
C1969 N1967 1.356 . S
N1970 C1962 1.356 . S
N1970 H1976 0.984 . S
N1970 H1977 0.984 . S
N1971 C1964 1.356 . S
N1971 H1974 0.984 . S
N1971 H1975 0.985 . S
H1972 N1967 0.984 . S
H1973 N1967 0.985 . S
H1974 N1971 0.984 . S
H1975 N1971 0.985 . S
H1976 N1970 0.984 . S
H1977 N1970 0.984 . S
H1978 N1966 0.984 . S
H1979 N1966 0.985 . S
C1980 C1981 1.363 . S
C1980 C1986 1.379 . S
C1980 N1988 1.356 . S
C1981 C1980 1.363 . S
C1981 C1987 1.363 . S
C1982 C1983 1.363 . S
C1982 C1987 1.379 . S
C1982 N1989 1.356 . S
C1983 C1982 1.363 . S
C1983 C1986 1.363 . S
N1984 C1986 1.356 . S
N1984 H1996 0.984 . S
N1984 H1997 0.985 . S
N1985 C1987 1.356 . S
N1985 H1990 0.984 . S
N1985 H1991 0.985 . S
C1986 C1980 1.379 . S
C1986 C1983 1.363 . S
C1986 N1984 1.356 . S
C1987 C1981 1.363 . S
C1987 C1982 1.379 . S
C1987 N1985 1.356 . S
N1988 C1980 1.356 . S
N1988 H1994 0.984 . S
N1988 H1995 0.984 . S
N1989 C1982 1.356 . S
N1989 H1992 0.984 . S
N1989 H1993 0.985 . S
H1990 N1985 0.984 . S
H1991 N1985 0.985 . S
H1992 N1989 0.984 . S
H1993 N1989 0.985 . S
H1994 N1988 0.984 . S
H1995 N1988 0.984 . S
H1996 N1984 0.984 . S
H1997 N1984 0.985 . S
C1998 C1999 1.363 . S
C1998 C2004 1.379 . S
C1998 N2006 1.356 . S
C1999 C1998 1.363 . S
C1999 C2005 1.363 . S
C2000 C2001 1.363 . S
C2000 C2005 1.379 . S
C2000 N2007 1.356 . S
C2001 C2000 1.363 . S
C2001 C2004 1.363 . S
N2002 C2004 1.356 . S
N2002 H2014 0.984 . S
N2002 H2015 0.985 . S
N2003 C2005 1.356 . S
N2003 H2008 0.984 . S
N2003 H2009 0.985 . S
C2004 C1998 1.379 . S
C2004 C2001 1.363 . S
C2004 N2002 1.356 . S
C2005 C1999 1.363 . S
C2005 C2000 1.379 . S
C2005 N2003 1.356 . S
N2006 C1998 1.356 . S
N2006 H2012 0.984 . S
N2006 H2013 0.984 . S
N2007 C2000 1.356 . S
N2007 H2010 0.984 . S
N2007 H2011 0.985 . S
H2008 N2003 0.984 . S
H2009 N2003 0.985 . S
H2010 N2007 0.984 . S
H2011 N2007 0.985 . S
H2012 N2006 0.984 . S
H2013 N2006 0.984 . S
H2014 N2002 0.984 . S
H2015 N2002 0.985 . S
C2016 C2017 1.363 . S
C2016 C2022 1.379 . S
C2016 N2024 1.356 . S
C2017 C2016 1.363 . S
C2017 C2023 1.363 . S
C2018 C2019 1.363 . S
C2018 C2023 1.379 . S
C2018 N2025 1.356 . S
C2019 C2018 1.363 . S
C2019 C2022 1.363 . S
N2020 C2022 1.356 . S
N2020 H2032 0.984 . S
N2020 H2033 0.985 . S
N2021 C2023 1.356 . S
N2021 H2026 0.984 . S
N2021 H2027 0.985 . S
C2022 C2016 1.379 . S
C2022 C2019 1.363 . S
C2022 N2020 1.356 . S
C2023 C2017 1.363 . S
C2023 C2018 1.379 . S
C2023 N2021 1.356 . S
N2024 C2016 1.356 . S
N2024 H2030 0.984 . S
N2024 H2031 0.984 . S
N2025 C2018 1.356 . S
N2025 H2028 0.984 . S
N2025 H2029 0.985 . S
H2026 N2021 0.984 . S
H2027 N2021 0.985 . S
H2028 N2025 0.984 . S
H2029 N2025 0.985 . S
H2030 N2024 0.984 . S
H2031 N2024 0.984 . S
H2032 N2020 0.984 . S
H2033 N2020 0.985 . S
C2034 C2035 1.363 . S
C2034 C2040 1.379 . S
C2034 N2042 1.356 . S
C2035 C2034 1.363 . S
C2035 C2041 1.363 . S
C2036 C2037 1.363 . S
C2036 C2041 1.379 . S
C2036 N2043 1.356 . S
C2037 C2036 1.363 . S
C2037 C2040 1.363 . S
N2038 C2040 1.356 . S
N2038 H2050 0.984 . S
N2038 H2051 0.985 . S
N2039 C2041 1.356 . S
N2039 H2044 0.984 . S
N2039 H2045 0.985 . S
C2040 C2034 1.379 . S
C2040 C2037 1.363 . S
C2040 N2038 1.356 . S
C2041 C2035 1.363 . S
C2041 C2036 1.379 . S
C2041 N2039 1.356 . S
N2042 C2034 1.356 . S
N2042 H2048 0.984 . S
N2042 H2049 0.984 . S
N2043 C2036 1.356 . S
N2043 H2046 0.984 . S
N2043 H2047 0.985 . S
H2044 N2039 0.984 . S
H2045 N2039 0.985 . S
H2046 N2043 0.984 . S
H2047 N2043 0.985 . S
H2048 N2042 0.984 . S
H2049 N2042 0.984 . S
H2050 N2038 0.984 . S
H2051 N2038 0.985 . S
C2052 C2053 1.363 . S
C2052 C2058 1.379 . S
C2052 N2060 1.356 . S
C2053 C2052 1.363 . S
C2053 C2059 1.363 . S
C2054 C2055 1.363 . S
C2054 C2059 1.379 . S
C2054 N2061 1.356 . S
C2055 C2054 1.363 . S
C2055 C2058 1.363 . S
N2056 C2058 1.356 . S
N2056 H2068 0.984 . S
N2056 H2069 0.985 . S
N2057 C2059 1.356 . S
N2057 H2062 0.984 . S
N2057 H2063 0.985 . S
C2058 C2052 1.379 . S
C2058 C2055 1.363 . S
C2058 N2056 1.356 . S
C2059 C2053 1.363 . S
C2059 C2054 1.379 . S
C2059 N2057 1.356 . S
N2060 C2052 1.356 . S
N2060 H2066 0.984 . S
N2060 H2067 0.984 . S
N2061 C2054 1.356 . S
N2061 H2064 0.984 . S
N2061 H2065 0.985 . S
H2062 N2057 0.984 . S
H2063 N2057 0.985 . S
H2064 N2061 0.984 . S
H2065 N2061 0.985 . S
H2066 N2060 0.984 . S
H2067 N2060 0.984 . S
H2068 N2056 0.984 . S
H2069 N2056 0.985 . S
C2070 C2071 1.363 . S
C2070 C2076 1.379 . S
C2070 N2078 1.356 . S
C2071 C2070 1.363 . S
C2071 C2077 1.363 . S
C2072 C2073 1.363 . S
C2072 C2077 1.379 . S
C2072 N2079 1.356 . S
C2073 C2072 1.363 . S
C2073 C2076 1.363 . S
N2074 C2076 1.356 . S
N2074 H2086 0.984 . S
N2074 H2087 0.985 . S
N2075 C2077 1.356 . S
N2075 H2080 0.984 . S
N2075 H2081 0.985 . S
C2076 C2070 1.379 . S
C2076 C2073 1.363 . S
C2076 N2074 1.356 . S
C2077 C2071 1.363 . S
C2077 C2072 1.379 . S
C2077 N2075 1.356 . S
N2078 C2070 1.356 . S
N2078 H2084 0.984 . S
N2078 H2085 0.984 . S
N2079 C2072 1.356 . S
N2079 H2082 0.984 . S
N2079 H2083 0.985 . S
H2080 N2075 0.984 . S
H2081 N2075 0.985 . S
H2082 N2079 0.984 . S
H2083 N2079 0.985 . S
H2084 N2078 0.984 . S
H2085 N2078 0.984 . S
H2086 N2074 0.984 . S
H2087 N2074 0.985 . S
C2088 C2089 1.363 . S
C2088 C2094 1.379 . S
C2088 N2096 1.356 . S
C2089 C2088 1.363 . S
C2089 C2095 1.363 . S
C2090 C2091 1.363 . S
C2090 C2095 1.379 . S
C2090 N2097 1.356 . S
C2091 C2090 1.363 . S
C2091 C2094 1.363 . S
N2092 C2094 1.356 . S
N2092 H2104 0.984 . S
N2092 H2105 0.985 . S
N2093 C2095 1.356 . S
N2093 H2098 0.984 . S
N2093 H2099 0.985 . S
C2094 C2088 1.379 . S
C2094 C2091 1.363 . S
C2094 N2092 1.356 . S
C2095 C2089 1.363 . S
C2095 C2090 1.379 . S
C2095 N2093 1.356 . S
N2096 C2088 1.356 . S
N2096 H2102 0.984 . S
N2096 H2103 0.984 . S
N2097 C2090 1.356 . S
N2097 H2100 0.984 . S
N2097 H2101 0.985 . S
H2098 N2093 0.984 . S
H2099 N2093 0.985 . S
H2100 N2097 0.984 . S
H2101 N2097 0.985 . S
H2102 N2096 0.984 . S
H2103 N2096 0.984 . S
H2104 N2092 0.984 . S
H2105 N2092 0.985 . S
C2106 C2107 1.363 . S
C2106 C2112 1.379 . S
C2106 N2114 1.356 . S
C2107 C2106 1.363 . S
C2107 C2113 1.363 . S
C2108 C2109 1.363 . S
C2108 C2113 1.379 . S
C2108 N2115 1.356 . S
C2109 C2108 1.363 . S
C2109 C2112 1.363 . S
N2110 C2112 1.356 . S
N2110 H2122 0.984 . S
N2110 H2123 0.985 . S
N2111 C2113 1.356 . S
N2111 H2116 0.984 . S
N2111 H2117 0.985 . S
C2112 C2106 1.379 . S
C2112 C2109 1.363 . S
C2112 N2110 1.356 . S
C2113 C2107 1.363 . S
C2113 C2108 1.379 . S
C2113 N2111 1.356 . S
N2114 C2106 1.356 . S
N2114 H2120 0.984 . S
N2114 H2121 0.984 . S
N2115 C2108 1.356 . S
N2115 H2118 0.984 . S
N2115 H2119 0.985 . S
H2116 N2111 0.984 . S
H2117 N2111 0.985 . S
H2118 N2115 0.984 . S
H2119 N2115 0.985 . S
H2120 N2114 0.984 . S
H2121 N2114 0.984 . S
H2122 N2110 0.984 . S
H2123 N2110 0.985 . S
C2124 C2125 1.363 . S
C2124 C2130 1.379 . S
C2124 N2132 1.356 . S
C2125 C2124 1.363 . S
C2125 C2131 1.363 . S
C2126 C2127 1.363 . S
C2126 C2131 1.379 . S
C2126 N2133 1.356 . S
C2127 C2126 1.363 . S
C2127 C2130 1.363 . S
N2128 C2130 1.356 . S
N2128 H2140 0.984 . S
N2128 H2141 0.985 . S
N2129 C2131 1.356 . S
N2129 H2134 0.984 . S
N2129 H2135 0.985 . S
C2130 C2124 1.379 . S
C2130 C2127 1.363 . S
C2130 N2128 1.356 . S
C2131 C2125 1.363 . S
C2131 C2126 1.379 . S
C2131 N2129 1.356 . S
N2132 C2124 1.356 . S
N2132 H2138 0.984 . S
N2132 H2139 0.984 . S
N2133 C2126 1.356 . S
N2133 H2136 0.984 . S
N2133 H2137 0.985 . S
H2134 N2129 0.984 . S
H2135 N2129 0.985 . S
H2136 N2133 0.984 . S
H2137 N2133 0.985 . S
H2138 N2132 0.984 . S
H2139 N2132 0.984 . S
H2140 N2128 0.984 . S
H2141 N2128 0.985 . S
C2142 C2143 1.363 . S
C2142 C2148 1.379 . S
C2142 N2150 1.356 . S
C2143 C2142 1.363 . S
C2143 C2149 1.363 . S
C2144 C2145 1.363 . S
C2144 C2149 1.379 . S
C2144 N2151 1.356 . S
C2145 C2144 1.363 . S
C2145 C2148 1.363 . S
N2146 C2148 1.356 . S
N2146 H2158 0.984 . S
N2146 H2159 0.985 . S
N2147 C2149 1.356 . S
N2147 H2152 0.984 . S
N2147 H2153 0.985 . S
C2148 C2142 1.379 . S
C2148 C2145 1.363 . S
C2148 N2146 1.356 . S
C2149 C2143 1.363 . S
C2149 C2144 1.379 . S
C2149 N2147 1.356 . S
N2150 C2142 1.356 . S
N2150 H2156 0.984 . S
N2150 H2157 0.984 . S
N2151 C2144 1.356 . S
N2151 H2154 0.984 . S
N2151 H2155 0.985 . S
H2152 N2147 0.984 . S
H2153 N2147 0.985 . S
H2154 N2151 0.984 . S
H2155 N2151 0.985 . S
H2156 N2150 0.984 . S
H2157 N2150 0.984 . S
H2158 N2146 0.984 . S
H2159 N2146 0.985 . S
C2160 C2161 1.363 . S
C2160 C2166 1.379 . S
C2160 N2168 1.356 . S
C2161 C2160 1.363 . S
C2161 C2167 1.363 . S
C2162 C2163 1.363 . S
C2162 C2167 1.379 . S
C2162 N2169 1.356 . S
C2163 C2162 1.363 . S
C2163 C2166 1.363 . S
N2164 C2166 1.356 . S
N2164 H2176 0.984 . S
N2164 H2177 0.985 . S
N2165 C2167 1.356 . S
N2165 H2170 0.984 . S
N2165 H2171 0.985 . S
C2166 C2160 1.379 . S
C2166 C2163 1.363 . S
C2166 N2164 1.356 . S
C2167 C2161 1.363 . S
C2167 C2162 1.379 . S
C2167 N2165 1.356 . S
N2168 C2160 1.356 . S
N2168 H2174 0.984 . S
N2168 H2175 0.984 . S
N2169 C2162 1.356 . S
N2169 H2172 0.984 . S
N2169 H2173 0.985 . S
H2170 N2165 0.984 . S
H2171 N2165 0.985 . S
H2172 N2169 0.984 . S
H2173 N2169 0.985 . S
H2174 N2168 0.984 . S
H2175 N2168 0.984 . S
H2176 N2164 0.984 . S
H2177 N2164 0.985 . S
C2178 C2179 1.363 . S
C2178 C2184 1.379 . S
C2178 N2186 1.356 . S
C2179 C2178 1.363 . S
C2179 C2185 1.363 . S
C2180 C2181 1.363 . S
C2180 C2185 1.379 . S
C2180 N2187 1.356 1_565 S
C2181 C2180 1.363 . S
C2181 C2184 1.363 . S
N2182 C2184 1.356 . S
N2182 H2194 0.984 . S
N2182 H2195 0.985 . S
N2183 C2185 1.356 . S
N2183 H2188 0.984 . S
N2183 H2189 0.985 . S
C2184 C2178 1.379 . S
C2184 C2181 1.363 . S
C2184 N2182 1.356 . S
C2185 C2179 1.363 . S
C2185 C2180 1.379 . S
C2185 N2183 1.356 . S
N2186 C2178 1.356 . S
N2186 H2192 0.984 . S
N2186 H2193 0.984 . S
N2187 C2180 1.356 1_545 S
N2187 H2190 0.984 . S
N2187 H2191 0.985 . S
H2188 N2183 0.984 . S
H2189 N2183 0.985 . S
H2190 N2187 0.984 . S
H2191 N2187 0.985 . S
H2192 N2186 0.984 . S
H2193 N2186 0.984 . S
H2194 N2182 0.984 . S
H2195 N2182 0.985 . S
C2196 C2197 1.363 . S
C2196 C2202 1.379 . S
C2196 N2204 1.356 . S
C2197 C2196 1.363 . S
C2197 C2203 1.363 . S
C2198 C2199 1.363 . S
C2198 C2203 1.379 . S
C2198 N2205 1.356 . S
C2199 C2198 1.363 . S
C2199 C2202 1.363 . S
N2200 C2202 1.356 . S
N2200 H2212 0.984 . S
N2200 H2213 0.985 . S
N2201 C2203 1.356 . S
N2201 H2206 0.984 . S
N2201 H2207 0.985 . S
C2202 C2196 1.379 . S
C2202 C2199 1.363 . S
C2202 N2200 1.356 . S
C2203 C2197 1.363 . S
C2203 C2198 1.379 . S
C2203 N2201 1.356 . S
N2204 C2196 1.356 . S
N2204 H2210 0.984 . S
N2204 H2211 0.984 . S
N2205 C2198 1.356 . S
N2205 H2208 0.984 . S
N2205 H2209 0.985 . S
H2206 N2201 0.984 . S
H2207 N2201 0.985 . S
H2208 N2205 0.984 . S
H2209 N2205 0.985 . S
H2210 N2204 0.984 . S
H2211 N2204 0.984 . S
H2212 N2200 0.984 . S
H2213 N2200 0.985 . S
C2214 C2215 1.363 . S
C2214 C2220 1.379 . S
C2214 N2222 1.356 . S
C2215 C2214 1.363 . S
C2215 C2221 1.363 . S
C2216 C2217 1.363 . S
C2216 C2221 1.379 . S
C2216 N2223 1.356 . S
C2217 C2216 1.363 . S
C2217 C2220 1.363 . S
N2218 C2220 1.356 . S
N2218 H2230 0.984 . S
N2218 H2231 0.985 . S
N2219 C2221 1.356 . S
N2219 H2224 0.984 . S
N2219 H2225 0.985 . S
C2220 C2214 1.379 . S
C2220 C2217 1.363 . S
C2220 N2218 1.356 . S
C2221 C2215 1.363 . S
C2221 C2216 1.379 . S
C2221 N2219 1.356 . S
N2222 C2214 1.356 . S
N2222 H2228 0.984 . S
N2222 H2229 0.984 . S
N2223 C2216 1.356 . S
N2223 H2226 0.984 . S
N2223 H2227 0.985 . S
H2224 N2219 0.984 . S
H2225 N2219 0.985 . S
H2226 N2223 0.984 . S
H2227 N2223 0.985 . S
H2228 N2222 0.984 . S
H2229 N2222 0.984 . S
H2230 N2218 0.984 . S
H2231 N2218 0.985 . S
C2232 C2233 1.363 . S
C2232 C2238 1.379 . S
C2232 N2240 1.356 . S
C2233 C2232 1.363 . S
C2233 C2239 1.363 . S
C2234 C2235 1.363 . S
C2234 C2239 1.379 . S
C2234 N2241 1.356 . S
C2235 C2234 1.363 . S
C2235 C2238 1.363 . S
N2236 C2238 1.356 . S
N2236 H2248 0.984 . S
N2236 H2249 0.985 . S
N2237 C2239 1.356 . S
N2237 H2242 0.984 . S
N2237 H2243 0.985 . S
C2238 C2232 1.379 . S
C2238 C2235 1.363 . S
C2238 N2236 1.356 . S
C2239 C2233 1.363 . S
C2239 C2234 1.379 . S
C2239 N2237 1.356 . S
N2240 C2232 1.356 . S
N2240 H2246 0.984 . S
N2240 H2247 0.984 . S
N2241 C2234 1.356 . S
N2241 H2244 0.984 . S
N2241 H2245 0.985 . S
H2242 N2237 0.984 . S
H2243 N2237 0.985 . S
H2244 N2241 0.984 . S
H2245 N2241 0.985 . S
H2246 N2240 0.984 . S
H2247 N2240 0.984 . S
H2248 N2236 0.984 . S
H2249 N2236 0.985 . S
C2250 C2251 1.363 . S
C2250 C2256 1.379 . S
C2250 N2258 1.356 . S
C2251 C2250 1.363 . S
C2251 C2257 1.363 . S
C2252 C2253 1.363 . S
C2252 C2257 1.379 . S
C2252 N2259 1.356 . S
C2253 C2252 1.363 . S
C2253 C2256 1.363 . S
N2254 C2256 1.356 . S
N2254 H2266 0.984 . S
N2254 H2267 0.985 . S
N2255 C2257 1.356 . S
N2255 H2260 0.984 . S
N2255 H2261 0.985 . S
C2256 C2250 1.379 . S
C2256 C2253 1.363 . S
C2256 N2254 1.356 . S
C2257 C2251 1.363 . S
C2257 C2252 1.379 . S
C2257 N2255 1.356 . S
N2258 C2250 1.356 . S
N2258 H2264 0.984 . S
N2258 H2265 0.984 . S
N2259 C2252 1.356 . S
N2259 H2262 0.984 . S
N2259 H2263 0.985 . S
H2260 N2255 0.984 . S
H2261 N2255 0.985 . S
H2262 N2259 0.984 . S
H2263 N2259 0.985 . S
H2264 N2258 0.984 . S
H2265 N2258 0.984 . S
H2266 N2254 0.984 . S
H2267 N2254 0.985 . S
C2268 C2269 1.363 . S
C2268 C2274 1.379 . S
C2268 N2276 1.356 . S
C2269 C2268 1.363 . S
C2269 C2275 1.363 . S
C2270 C2271 1.363 . S
C2270 C2275 1.379 . S
C2270 N2277 1.356 . S
C2271 C2270 1.363 . S
C2271 C2274 1.363 . S
N2272 C2274 1.356 . S
N2272 H2284 0.984 . S
N2272 H2285 0.985 . S
N2273 C2275 1.356 . S
N2273 H2278 0.984 . S
N2273 H2279 0.985 . S
C2274 C2268 1.379 . S
C2274 C2271 1.363 . S
C2274 N2272 1.356 . S
C2275 C2269 1.363 . S
C2275 C2270 1.379 . S
C2275 N2273 1.356 . S
N2276 C2268 1.356 . S
N2276 H2282 0.984 . S
N2276 H2283 0.984 . S
N2277 C2270 1.356 . S
N2277 H2280 0.984 . S
N2277 H2281 0.985 . S
H2278 N2273 0.984 . S
H2279 N2273 0.985 . S
H2280 N2277 0.984 . S
H2281 N2277 0.985 . S
H2282 N2276 0.984 . S
H2283 N2276 0.984 . S
H2284 N2272 0.984 . S
H2285 N2272 0.985 . S
C2286 C2287 1.363 . S
C2286 C2292 1.379 . S
C2286 N2294 1.356 . S
C2287 C2286 1.363 . S
C2287 C2293 1.363 . S
C2288 C2289 1.363 . S
C2288 C2293 1.379 . S
C2288 N2295 1.356 . S
C2289 C2288 1.363 . S
C2289 C2292 1.363 . S
N2290 C2292 1.356 . S
N2290 H2302 0.984 . S
N2290 H2303 0.985 . S
N2291 C2293 1.356 . S
N2291 H2296 0.984 . S
N2291 H2297 0.985 . S
C2292 C2286 1.379 . S
C2292 C2289 1.363 . S
C2292 N2290 1.356 . S
C2293 C2287 1.363 . S
C2293 C2288 1.379 . S
C2293 N2291 1.356 . S
N2294 C2286 1.356 . S
N2294 H2300 0.984 . S
N2294 H2301 0.984 . S
N2295 C2288 1.356 . S
N2295 H2298 0.984 . S
N2295 H2299 0.985 . S
H2296 N2291 0.984 . S
H2297 N2291 0.985 . S
H2298 N2295 0.984 . S
H2299 N2295 0.985 . S
H2300 N2294 0.984 . S
H2301 N2294 0.984 . S
H2302 N2290 0.984 . S
H2303 N2290 0.985 . S
C2304 C2305 1.363 . S
C2304 C2310 1.379 . S
C2304 N2312 1.356 . S
C2305 C2304 1.363 . S
C2305 C2311 1.363 . S
C2306 C2307 1.363 . S
C2306 C2311 1.379 . S
C2306 N2313 1.356 . S
C2307 C2306 1.363 . S
C2307 C2310 1.363 . S
N2308 C2310 1.356 . S
N2308 H2320 0.984 . S
N2308 H2321 0.985 . S
N2309 C2311 1.356 . S
N2309 H2314 0.984 . S
N2309 H2315 0.985 . S
C2310 C2304 1.379 . S
C2310 C2307 1.363 . S
C2310 N2308 1.356 . S
C2311 C2305 1.363 . S
C2311 C2306 1.379 . S
C2311 N2309 1.356 . S
N2312 C2304 1.356 . S
N2312 H2318 0.984 . S
N2312 H2319 0.984 . S
N2313 C2306 1.356 . S
N2313 H2316 0.984 . S
N2313 H2317 0.985 . S
H2314 N2309 0.984 . S
H2315 N2309 0.985 . S
H2316 N2313 0.984 . S
H2317 N2313 0.985 . S
H2318 N2312 0.984 . S
H2319 N2312 0.984 . S
H2320 N2308 0.984 . S
H2321 N2308 0.985 . S
C2322 C2323 1.363 . S
C2322 C2328 1.379 . S
C2322 N2330 1.356 . S
C2323 C2322 1.363 . S
C2323 C2329 1.363 . S
C2324 C2325 1.363 . S
C2324 C2329 1.379 . S
C2324 N2331 1.356 . S
C2325 C2324 1.363 . S
C2325 C2328 1.363 . S
N2326 C2328 1.356 . S
N2326 H2338 0.984 . S
N2326 H2339 0.985 . S
N2327 C2329 1.356 . S
N2327 H2332 0.984 . S
N2327 H2333 0.985 . S
C2328 C2322 1.379 . S
C2328 C2325 1.363 . S
C2328 N2326 1.356 . S
C2329 C2323 1.363 . S
C2329 C2324 1.379 . S
C2329 N2327 1.356 . S
N2330 C2322 1.356 . S
N2330 H2336 0.984 . S
N2330 H2337 0.984 . S
N2331 C2324 1.356 . S
N2331 H2334 0.984 . S
N2331 H2335 0.985 . S
H2332 N2327 0.984 . S
H2333 N2327 0.985 . S
H2334 N2331 0.984 . S
H2335 N2331 0.985 . S
H2336 N2330 0.984 . S
H2337 N2330 0.984 . S
H2338 N2326 0.984 . S
H2339 N2326 0.985 . S
C2340 C2341 1.363 . S
C2340 C2346 1.379 . S
C2340 N2348 1.356 . S
C2341 C2340 1.363 . S
C2341 C2347 1.363 . S
C2342 C2343 1.363 . S
C2342 C2347 1.379 . S
C2342 N2349 1.356 . S
C2343 C2342 1.363 . S
C2343 C2346 1.363 . S
N2344 C2346 1.356 . S
N2344 H2356 0.984 . S
N2344 H2357 0.985 . S
N2345 C2347 1.356 . S
N2345 H2350 0.984 . S
N2345 H2351 0.985 . S
C2346 C2340 1.379 . S
C2346 C2343 1.363 . S
C2346 N2344 1.356 . S
C2347 C2341 1.363 . S
C2347 C2342 1.379 . S
C2347 N2345 1.356 . S
N2348 C2340 1.356 . S
N2348 H2354 0.984 . S
N2348 H2355 0.984 . S
N2349 C2342 1.356 . S
N2349 H2352 0.984 . S
N2349 H2353 0.985 . S
H2350 N2345 0.984 . S
H2351 N2345 0.985 . S
H2352 N2349 0.984 . S
H2353 N2349 0.985 . S
H2354 N2348 0.984 . S
H2355 N2348 0.984 . S
H2356 N2344 0.984 . S
H2357 N2344 0.985 . S
C2358 C2359 1.363 . S
C2358 C2364 1.379 . S
C2358 N2366 1.356 . S
C2359 C2358 1.363 . S
C2359 C2365 1.363 . S
C2360 C2361 1.363 . S
C2360 C2365 1.379 . S
C2360 N2367 1.356 . S
C2361 C2360 1.363 . S
C2361 C2364 1.363 . S
N2362 C2364 1.356 . S
N2362 H2374 0.984 . S
N2362 H2375 0.985 . S
N2363 C2365 1.356 . S
N2363 H2368 0.984 . S
N2363 H2369 0.985 . S
C2364 C2358 1.379 . S
C2364 C2361 1.363 . S
C2364 N2362 1.356 . S
C2365 C2359 1.363 . S
C2365 C2360 1.379 . S
C2365 N2363 1.356 . S
N2366 C2358 1.356 . S
N2366 H2372 0.984 . S
N2366 H2373 0.984 . S
N2367 C2360 1.356 . S
N2367 H2370 0.984 . S
N2367 H2371 0.985 . S
H2368 N2363 0.984 . S
H2369 N2363 0.985 . S
H2370 N2367 0.984 . S
H2371 N2367 0.985 . S
H2372 N2366 0.984 . S
H2373 N2366 0.984 . S
H2374 N2362 0.984 . S
H2375 N2362 0.985 . S
C2376 C2377 1.363 . S
C2376 C2382 1.379 . S
C2376 N2384 1.356 . S
C2377 C2376 1.363 . S
C2377 C2383 1.363 . S
C2378 C2379 1.363 . S
C2378 C2383 1.379 . S
C2378 N2385 1.356 . S
C2379 C2378 1.363 . S
C2379 C2382 1.363 . S
N2380 C2382 1.356 . S
N2380 H2392 0.984 . S
N2380 H2393 0.985 . S
N2381 C2383 1.356 . S
N2381 H2386 0.984 . S
N2381 H2387 0.985 . S
C2382 C2376 1.379 . S
C2382 C2379 1.363 . S
C2382 N2380 1.356 . S
C2383 C2377 1.363 . S
C2383 C2378 1.379 . S
C2383 N2381 1.356 . S
N2384 C2376 1.356 . S
N2384 H2390 0.984 . S
N2384 H2391 0.984 . S
N2385 C2378 1.356 . S
N2385 H2388 0.984 . S
N2385 H2389 0.985 . S
H2386 N2381 0.984 . S
H2387 N2381 0.985 . S
H2388 N2385 0.984 . S
H2389 N2385 0.985 . S
H2390 N2384 0.984 . S
H2391 N2384 0.984 . S
H2392 N2380 0.984 . S
H2393 N2380 0.985 . S
C2394 C2395 1.363 . S
C2394 C2400 1.379 . S
C2394 N2402 1.356 . S
C2395 C2394 1.363 . S
C2395 C2401 1.363 . S
C2396 C2397 1.363 . S
C2396 C2401 1.379 . S
C2396 N2403 1.356 . S
C2397 C2396 1.363 . S
C2397 C2400 1.363 . S
N2398 C2400 1.356 . S
N2398 H2410 0.984 . S
N2398 H2411 0.985 . S
N2399 C2401 1.356 . S
N2399 H2404 0.984 . S
N2399 H2405 0.985 . S
C2400 C2394 1.379 . S
C2400 C2397 1.363 . S
C2400 N2398 1.356 . S
C2401 C2395 1.363 . S
C2401 C2396 1.379 . S
C2401 N2399 1.356 . S
N2402 C2394 1.356 . S
N2402 H2408 0.984 . S
N2402 H2409 0.984 . S
N2403 C2396 1.356 . S
N2403 H2406 0.984 . S
N2403 H2407 0.985 . S
H2404 N2399 0.984 . S
H2405 N2399 0.985 . S
H2406 N2403 0.984 . S
H2407 N2403 0.985 . S
H2408 N2402 0.984 . S
H2409 N2402 0.984 . S
H2410 N2398 0.984 . S
H2411 N2398 0.985 . S
C2412 C2413 1.363 . S
C2412 C2418 1.379 . S
C2412 N2420 1.356 . S
C2413 C2412 1.363 . S
C2413 C2419 1.363 . S
C2414 C2415 1.363 . S
C2414 C2419 1.379 . S
C2414 N2421 1.356 . S
C2415 C2414 1.363 . S
C2415 C2418 1.363 . S
N2416 C2418 1.356 . S
N2416 H2428 0.984 . S
N2416 H2429 0.985 . S
N2417 C2419 1.356 . S
N2417 H2422 0.984 . S
N2417 H2423 0.985 . S
C2418 C2412 1.379 . S
C2418 C2415 1.363 . S
C2418 N2416 1.356 . S
C2419 C2413 1.363 . S
C2419 C2414 1.379 . S
C2419 N2417 1.356 . S
N2420 C2412 1.356 . S
N2420 H2426 0.984 . S
N2420 H2427 0.984 . S
N2421 C2414 1.356 . S
N2421 H2424 0.984 . S
N2421 H2425 0.985 . S
H2422 N2417 0.984 . S
H2423 N2417 0.985 . S
H2424 N2421 0.984 . S
H2425 N2421 0.985 . S
H2426 N2420 0.984 . S
H2427 N2420 0.984 . S
H2428 N2416 0.984 . S
H2429 N2416 0.985 . S
C2430 C2431 1.363 . S
C2430 C2436 1.379 . S
C2430 N2438 1.356 . S
C2431 C2430 1.363 . S
C2431 C2437 1.363 . S
C2432 C2433 1.363 . S
C2432 C2437 1.379 . S
C2432 N2439 1.356 . S
C2433 C2432 1.363 . S
C2433 C2436 1.363 . S
N2434 C2436 1.356 . S
N2434 H2446 0.984 . S
N2434 H2447 0.985 . S
N2435 C2437 1.356 . S
N2435 H2440 0.984 . S
N2435 H2441 0.985 . S
C2436 C2430 1.379 . S
C2436 C2433 1.363 . S
C2436 N2434 1.356 . S
C2437 C2431 1.363 . S
C2437 C2432 1.379 . S
C2437 N2435 1.356 . S
N2438 C2430 1.356 . S
N2438 H2444 0.984 . S
N2438 H2445 0.984 . S
N2439 C2432 1.356 . S
N2439 H2442 0.984 . S
N2439 H2443 0.985 . S
H2440 N2435 0.984 . S
H2441 N2435 0.985 . S
H2442 N2439 0.984 . S
H2443 N2439 0.985 . S
H2444 N2438 0.984 . S
H2445 N2438 0.984 . S
H2446 N2434 0.984 . S
H2447 N2434 0.985 . S
C2448 C2449 1.363 . S
C2448 C2454 1.379 . S
C2448 N2456 1.356 . S
C2449 C2448 1.363 . S
C2449 C2455 1.363 . S
C2450 C2451 1.363 . S
C2450 C2455 1.379 . S
C2450 N2457 1.356 . S
C2451 C2450 1.363 . S
C2451 C2454 1.363 . S
N2452 C2454 1.356 . S
N2452 H2464 0.984 . S
N2452 H2465 0.985 . S
N2453 C2455 1.356 . S
N2453 H2458 0.984 . S
N2453 H2459 0.985 . S
C2454 C2448 1.379 . S
C2454 C2451 1.363 . S
C2454 N2452 1.356 . S
C2455 C2449 1.363 . S
C2455 C2450 1.379 . S
C2455 N2453 1.356 . S
N2456 C2448 1.356 . S
N2456 H2462 0.984 . S
N2456 H2463 0.984 . S
N2457 C2450 1.356 . S
N2457 H2460 0.984 . S
N2457 H2461 0.985 . S
H2458 N2453 0.984 . S
H2459 N2453 0.985 . S
H2460 N2457 0.984 . S
H2461 N2457 0.985 . S
H2462 N2456 0.984 . S
H2463 N2456 0.984 . S
H2464 N2452 0.984 . S
H2465 N2452 0.985 . S
C2466 C2467 1.363 . S
C2466 C2472 1.379 . S
C2466 N2474 1.356 . S
C2467 C2466 1.363 . S
C2467 C2473 1.363 . S
C2468 C2469 1.363 . S
C2468 C2473 1.379 . S
C2468 N2475 1.356 . S
C2469 C2468 1.363 . S
C2469 C2472 1.363 . S
N2470 C2472 1.356 . S
N2470 H2482 0.984 . S
N2470 H2483 0.985 . S
N2471 C2473 1.356 . S
N2471 H2476 0.984 . S
N2471 H2477 0.985 . S
C2472 C2466 1.379 . S
C2472 C2469 1.363 . S
C2472 N2470 1.356 . S
C2473 C2467 1.363 . S
C2473 C2468 1.379 . S
C2473 N2471 1.356 . S
N2474 C2466 1.356 . S
N2474 H2480 0.984 . S
N2474 H2481 0.984 . S
N2475 C2468 1.356 . S
N2475 H2478 0.984 . S
N2475 H2479 0.985 . S
H2476 N2471 0.984 . S
H2477 N2471 0.985 . S
H2478 N2475 0.984 . S
H2479 N2475 0.985 . S
H2480 N2474 0.984 . S
H2481 N2474 0.984 . S
H2482 N2470 0.984 . S
H2483 N2470 0.985 . S
C2484 C2485 1.363 . S
C2484 C2490 1.379 . S
C2484 N2492 1.356 . S
C2485 C2484 1.363 . S
C2485 C2491 1.363 . S
C2486 C2487 1.363 . S
C2486 C2491 1.379 . S
C2486 N2493 1.356 . S
C2487 C2486 1.363 . S
C2487 C2490 1.363 . S
N2488 C2490 1.356 . S
N2488 H2500 0.984 . S
N2488 H2501 0.985 . S
N2489 C2491 1.356 . S
N2489 H2494 0.984 . S
N2489 H2495 0.985 . S
C2490 C2484 1.379 . S
C2490 C2487 1.363 . S
C2490 N2488 1.356 . S
C2491 C2485 1.363 . S
C2491 C2486 1.379 . S
C2491 N2489 1.356 . S
N2492 C2484 1.356 . S
N2492 H2498 0.984 . S
N2492 H2499 0.984 . S
N2493 C2486 1.356 . S
N2493 H2496 0.984 . S
N2493 H2497 0.985 . S
H2494 N2489 0.984 . S
H2495 N2489 0.985 . S
H2496 N2493 0.984 . S
H2497 N2493 0.985 . S
H2498 N2492 0.984 . S
H2499 N2492 0.984 . S
H2500 N2488 0.984 . S
H2501 N2488 0.985 . S
C2502 C2503 1.363 . S
C2502 C2508 1.379 . S
C2502 N2510 1.356 . S
C2503 C2502 1.363 . S
C2503 C2509 1.363 . S
C2504 C2505 1.363 . S
C2504 C2509 1.379 . S
C2504 N2511 1.356 . S
C2505 C2504 1.363 . S
C2505 C2508 1.363 . S
N2506 C2508 1.356 . S
N2506 H2518 0.984 . S
N2506 H2519 0.985 . S
N2507 C2509 1.356 . S
N2507 H2512 0.984 . S
N2507 H2513 0.985 . S
C2508 C2502 1.379 . S
C2508 C2505 1.363 . S
C2508 N2506 1.356 . S
C2509 C2503 1.363 . S
C2509 C2504 1.379 . S
C2509 N2507 1.356 . S
N2510 C2502 1.356 . S
N2510 H2516 0.984 . S
N2510 H2517 0.984 . S
N2511 C2504 1.356 . S
N2511 H2514 0.984 . S
N2511 H2515 0.985 . S
H2512 N2507 0.984 . S
H2513 N2507 0.985 . S
H2514 N2511 0.984 . S
H2515 N2511 0.985 . S
H2516 N2510 0.984 . S
H2517 N2510 0.984 . S
H2518 N2506 0.984 . S
H2519 N2506 0.985 . S
C2520 C2521 1.363 . S
C2520 C2526 1.379 . S
C2520 N2528 1.356 . S
C2521 C2520 1.363 . S
C2521 C2527 1.363 . S
C2522 C2523 1.363 . S
C2522 C2527 1.379 . S
C2522 N2529 1.356 . S
C2523 C2522 1.363 . S
C2523 C2526 1.363 . S
N2524 C2526 1.356 . S
N2524 H2536 0.984 . S
N2524 H2537 0.985 . S
N2525 C2527 1.356 . S
N2525 H2530 0.984 . S
N2525 H2531 0.985 . S
C2526 C2520 1.379 . S
C2526 C2523 1.363 . S
C2526 N2524 1.356 . S
C2527 C2521 1.363 . S
C2527 C2522 1.379 . S
C2527 N2525 1.356 . S
N2528 C2520 1.356 . S
N2528 H2534 0.984 . S
N2528 H2535 0.984 . S
N2529 C2522 1.356 . S
N2529 H2532 0.984 . S
N2529 H2533 0.985 . S
H2530 N2525 0.984 . S
H2531 N2525 0.985 . S
H2532 N2529 0.984 . S
H2533 N2529 0.985 . S
H2534 N2528 0.984 . S
H2535 N2528 0.984 . S
H2536 N2524 0.984 . S
H2537 N2524 0.985 . S
C2538 C2539 1.363 . S
C2538 C2544 1.379 . S
C2538 N2546 1.356 . S
C2539 C2538 1.363 . S
C2539 C2545 1.363 . S
C2540 C2541 1.363 . S
C2540 C2545 1.379 . S
C2540 N2547 1.356 . S
C2541 C2540 1.363 . S
C2541 C2544 1.363 . S
N2542 C2544 1.356 . S
N2542 H2554 0.984 . S
N2542 H2555 0.985 . S
N2543 C2545 1.356 . S
N2543 H2548 0.984 . S
N2543 H2549 0.985 . S
C2544 C2538 1.379 . S
C2544 C2541 1.363 . S
C2544 N2542 1.356 . S
C2545 C2539 1.363 . S
C2545 C2540 1.379 . S
C2545 N2543 1.356 . S
N2546 C2538 1.356 . S
N2546 H2552 0.984 . S
N2546 H2553 0.984 . S
N2547 C2540 1.356 . S
N2547 H2550 0.984 . S
N2547 H2551 0.985 . S
H2548 N2543 0.984 . S
H2549 N2543 0.985 . S
H2550 N2547 0.984 . S
H2551 N2547 0.985 . S
H2552 N2546 0.984 . S
H2553 N2546 0.984 . S
H2554 N2542 0.984 . S
H2555 N2542 0.985 . S
C2556 C2557 1.363 . S
C2556 C2562 1.379 . S
C2556 N2564 1.356 . S
C2557 C2556 1.363 . S
C2557 C2563 1.363 . S
C2558 C2559 1.363 . S
C2558 C2563 1.379 . S
C2558 N2565 1.356 . S
C2559 C2558 1.363 . S
C2559 C2562 1.363 . S
N2560 C2562 1.356 . S
N2560 H2572 0.984 . S
N2560 H2573 0.985 . S
N2561 C2563 1.356 . S
N2561 H2566 0.984 . S
N2561 H2567 0.985 . S
C2562 C2556 1.379 . S
C2562 C2559 1.363 . S
C2562 N2560 1.356 . S
C2563 C2557 1.363 . S
C2563 C2558 1.379 . S
C2563 N2561 1.356 . S
N2564 C2556 1.356 . S
N2564 H2570 0.984 . S
N2564 H2571 0.984 . S
N2565 C2558 1.356 . S
N2565 H2568 0.984 . S
N2565 H2569 0.985 . S
H2566 N2561 0.984 . S
H2567 N2561 0.985 . S
H2568 N2565 0.984 . S
H2569 N2565 0.985 . S
H2570 N2564 0.984 . S
H2571 N2564 0.984 . S
H2572 N2560 0.984 . S
H2573 N2560 0.985 . S
C2574 C2575 1.363 . S
C2574 C2580 1.379 . S
C2574 N2582 1.356 . S
C2575 C2574 1.363 . S
C2575 C2581 1.363 . S
C2576 C2577 1.363 . S
C2576 C2581 1.379 . S
C2576 N2583 1.356 . S
C2577 C2576 1.363 . S
C2577 C2580 1.363 . S
N2578 C2580 1.356 . S
N2578 H2590 0.984 . S
N2578 H2591 0.985 . S
N2579 C2581 1.356 . S
N2579 H2584 0.984 . S
N2579 H2585 0.985 . S
C2580 C2574 1.379 . S
C2580 C2577 1.363 . S
C2580 N2578 1.356 . S
C2581 C2575 1.363 . S
C2581 C2576 1.379 . S
C2581 N2579 1.356 . S
N2582 C2574 1.356 . S
N2582 H2588 0.984 . S
N2582 H2589 0.984 . S
N2583 C2576 1.356 . S
N2583 H2586 0.984 . S
N2583 H2587 0.985 . S
H2584 N2579 0.984 . S
H2585 N2579 0.985 . S
H2586 N2583 0.984 . S
H2587 N2583 0.985 . S
H2588 N2582 0.984 . S
H2589 N2582 0.984 . S
H2590 N2578 0.984 . S
H2591 N2578 0.985 . S
C2592 C2593 1.363 . S
C2592 C2598 1.379 . S
C2592 N2600 1.356 . S
C2593 C2592 1.363 . S
C2593 C2599 1.363 . S
C2594 C2595 1.363 . S
C2594 C2599 1.379 . S
C2594 N2601 1.356 . S
C2595 C2594 1.363 . S
C2595 C2598 1.363 . S
N2596 C2598 1.356 . S
N2596 H2608 0.984 . S
N2596 H2609 0.985 . S
N2597 C2599 1.356 . S
N2597 H2602 0.984 . S
N2597 H2603 0.985 . S
C2598 C2592 1.379 . S
C2598 C2595 1.363 . S
C2598 N2596 1.356 . S
C2599 C2593 1.363 . S
C2599 C2594 1.379 . S
C2599 N2597 1.356 . S
N2600 C2592 1.356 . S
N2600 H2606 0.984 . S
N2600 H2607 0.984 . S
N2601 C2594 1.356 . S
N2601 H2604 0.984 . S
N2601 H2605 0.985 . S
H2602 N2597 0.984 . S
H2603 N2597 0.985 . S
H2604 N2601 0.984 . S
H2605 N2601 0.985 . S
H2606 N2600 0.984 . S
H2607 N2600 0.984 . S
H2608 N2596 0.984 . S
H2609 N2596 0.985 . S
C2610 C2611 1.363 . S
C2610 C2616 1.379 . S
C2610 N2618 1.356 . S
C2611 C2610 1.363 . S
C2611 C2617 1.363 . S
C2612 C2613 1.363 . S
C2612 C2617 1.379 . S
C2612 N2619 1.356 . S
C2613 C2612 1.363 . S
C2613 C2616 1.363 . S
N2614 C2616 1.356 . S
N2614 H2626 0.984 . S
N2614 H2627 0.985 . S
N2615 C2617 1.356 . S
N2615 H2620 0.984 . S
N2615 H2621 0.985 . S
C2616 C2610 1.379 . S
C2616 C2613 1.363 . S
C2616 N2614 1.356 . S
C2617 C2611 1.363 . S
C2617 C2612 1.379 . S
C2617 N2615 1.356 . S
N2618 C2610 1.356 . S
N2618 H2624 0.984 . S
N2618 H2625 0.984 . S
N2619 C2612 1.356 . S
N2619 H2622 0.984 . S
N2619 H2623 0.985 . S
H2620 N2615 0.984 . S
H2621 N2615 0.985 . S
H2622 N2619 0.984 . S
H2623 N2619 0.985 . S
H2624 N2618 0.984 . S
H2625 N2618 0.984 . S
H2626 N2614 0.984 . S
H2627 N2614 0.985 . S
C2628 C2629 1.363 . S
C2628 C2634 1.379 . S
C2628 N2636 1.356 . S
C2629 C2628 1.363 . S
C2629 C2635 1.363 . S
C2630 C2631 1.363 . S
C2630 C2635 1.379 . S
C2630 N2637 1.356 . S
C2631 C2630 1.363 . S
C2631 C2634 1.363 . S
N2632 C2634 1.356 . S
N2632 H2644 0.984 . S
N2632 H2645 0.985 . S
N2633 C2635 1.356 . S
N2633 H2638 0.984 . S
N2633 H2639 0.985 . S
C2634 C2628 1.379 . S
C2634 C2631 1.363 . S
C2634 N2632 1.356 . S
C2635 C2629 1.363 . S
C2635 C2630 1.379 . S
C2635 N2633 1.356 . S
N2636 C2628 1.356 . S
N2636 H2642 0.984 . S
N2636 H2643 0.984 . S
N2637 C2630 1.356 . S
N2637 H2640 0.984 . S
N2637 H2641 0.985 . S
H2638 N2633 0.984 . S
H2639 N2633 0.985 . S
H2640 N2637 0.984 . S
H2641 N2637 0.985 . S
H2642 N2636 0.984 . S
H2643 N2636 0.984 . S
H2644 N2632 0.984 . S
H2645 N2632 0.985 . S
C2646 C2647 1.363 . S
C2646 C2652 1.379 . S
C2646 N2654 1.356 . S
C2647 C2646 1.363 . S
C2647 C2653 1.363 . S
C2648 C2649 1.363 . S
C2648 C2653 1.379 . S
C2648 N2655 1.356 . S
C2649 C2648 1.363 . S
C2649 C2652 1.363 . S
N2650 C2652 1.356 . S
N2650 H2662 0.984 . S
N2650 H2663 0.985 . S
N2651 C2653 1.356 . S
N2651 H2656 0.984 . S
N2651 H2657 0.985 . S
C2652 C2646 1.379 . S
C2652 C2649 1.363 . S
C2652 N2650 1.356 . S
C2653 C2647 1.363 . S
C2653 C2648 1.379 . S
C2653 N2651 1.356 . S
N2654 C2646 1.356 . S
N2654 H2660 0.984 . S
N2654 H2661 0.984 . S
N2655 C2648 1.356 . S
N2655 H2658 0.984 . S
N2655 H2659 0.985 . S
H2656 N2651 0.984 . S
H2657 N2651 0.985 . S
H2658 N2655 0.984 . S
H2659 N2655 0.985 . S
H2660 N2654 0.984 . S
H2661 N2654 0.984 . S
H2662 N2650 0.984 . S
H2663 N2650 0.985 . S
C939 N396 1.696 . S
C937 C9 1.743 . S
C957 C423 1.674 . S
C955 C16 1.681 . S
C973 C30 1.766 . S
C975 C437 1.781 . S
C993 N455 0.998 . S
C991 C40 0.988 . S
C1009 C52 1.558 . S
C1011 C460 1.563 . S
C1027 C66 1.776 . S
C1029 C400 1.788 . S
C1045 C76 0.920 . S
C1047 N419 0.937 . S
C1065 N432 1.709 . S
C1063 C90 1.733 . S
C1083 N478 1.677 . S
C1081 C6 1.726 . S
C1099 C21 1.675 . S
C1101 N501 1.642 . S
C1117 C28 1.694 . S
C1119 N524 1.671 . S
C1137 N557 1.250 . S
C1135 C45 1.293 . S
C1153 C54 1.574 . S
C1155 C584 1.564 . S
C1173 C607 1.955 . S
C1171 C69 1.965 . S
C1189 C81 1.151 . S
C1191 C630 1.155 1_655 S
C1209 C644 1.559 . S
C1207 C88 1.547 . S
C1225 C4 1.531 . S
C1227 C561 1.528 . S
C1243 C57 1.589 . S
C1245 N603 1.565 . S
C1263 N626 1.553 . S
C1261 C64 1.596 . S
C1279 C78 1.323 . S
C1281 N639 1.319 . S
C1299 N580 1.664 . S
C1297 C93 1.737 . S
C1317 C506 2.046 . S
C1315 C33 2.050 . S
C1333 C42 1.059 . S
C1335 C529 1.058 . S
C1353 C483 1.633 . S
C1351 C18 1.625 . S
C1371 C676 1.697 . S
C1369 C105 1.692 . S
C1387 C112 1.562 . S
C1389 C690 1.576 . S
C1405 C126 1.727 . S
C1407 N718 1.690 . S
C1425 N731 0.909 . S
C1423 C136 0.904 . S
C1441 C148 1.549 . S
C1443 C736 1.572 . S
C1459 C162 1.717 . S
C1461 N672 1.665 . S
C1477 C172 1.030 . S
C1479 N685 1.043 . S
C1495 C186 1.654 . S
C1497 C722 1.650 . S
C1515 N570 1.680 . S
C1513 C102 1.722 . S
C1531 C117 1.572 . S
C1533 N754 1.532 . S
C1551 N616 1.555 1_655 S
C1549 C124 1.587 . S
C1567 C141 1.376 . S
C1569 C791 1.374 . S
C1585 C150 1.693 . S
C1587 C492 1.687 . S
C1605 C805 2.018 . S
C1603 C165 2.007 . S
C1621 C177 1.209 . S
C1623 C538 1.220 . S
C1641 N823 1.448 . S
C1639 C184 1.482 . S
C1657 C100 1.521 . S
C1659 N787 1.488 . S
C1677 N800 1.512 . S
C1675 C153 1.545 . S
C1693 C160 1.599 . S
C1695 N534 1.571 . S
C1713 C828 1.094 . S
C1711 C174 1.090 . S
C1729 C189 1.732 . S
C1731 N488 1.672 . S
C1747 C129 1.951 . S
C1749 C759 1.957 . S
C1765 C138 1.206 . S
C1767 C621 1.209 . S
C1783 C114 1.664 . S
C1785 C575 1.682 . S
C1801 C201 1.752 . S
C1803 C713 1.757 . S
C1821 C745 1.536 . S
C1819 C208 1.532 . S
C1837 C222 1.739 . S
C1839 N662 1.705 . S
C1855 C232 0.969 . S
C1857 N695 0.970 . S
C1873 C244 1.561 . S
C1875 C699 1.561 . S
C1891 C258 1.824 . S
C1893 N708 1.805 . S
C1911 N741 0.860 . S
C1909 C268 0.851 . S
C1927 C282 1.721 . S
C1929 C667 1.729 . S
C1947 N856 1.712 . S
C1945 C198 1.758 . S
C1963 C213 1.553 . S
C1965 N593 1.514 . S
C1983 N879 1.476 . S
C1981 C220 1.504 . S
C1999 C237 1.423 . S
C2001 N649 1.344 . S
C2017 C246 1.629 . S
C2019 C897 1.631 . S
C2035 C261 2.045 . S
C2037 C515 2.043 . S
C2055 N915 1.102 . S
C2053 C273 1.117 . S
C2071 C280 1.567 . S
C2073 C552 1.558 . S
C2091 C653 1.531 . S
C2089 C196 1.551 . S
C2109 N511 1.549 . S
C2107 C249 1.588 . S
C2125 C256 1.725 . S
C2127 C920 1.739 . S
C2143 C270 1.103 . S
C2145 N547 1.089 . S
C2163 N892 1.775 . S
C2161 C285 1.806 . S
C2181 C598 1.937 1_565 S
C2179 C225 1.937 . S
C2199 C883 1.257 . S
C2197 C234 1.252 . S
C2217 C860 1.677 . S
C2215 C210 1.658 . S
C2233 C297 1.695 . S
C2235 N442 1.645 . S
C2251 C304 1.539 . S
C2253 C469 1.533 . S
C2271 C391 1.793 . S
C2269 C318 1.783 . S
C2289 N409 0.863 . S
C2287 C328 0.860 . S
C2307 C414 1.647 . S
C2305 C340 1.631 . S
C2325 C446 1.732 . S
C2323 C354 1.711 . S
C2343 N465 1.089 . S
C2341 C364 1.111 . S
C2359 C378 1.730 . S
C2361 N386 1.708 . S
C2377 C294 1.696 . S
C2379 N902 1.640 . S
C2397 N810 1.552 . S
C2395 C309 1.589 . S
C2415 C929 1.796 . S
C2413 C316 1.795 . S
C2433 C837 1.033 . S
C2431 C333 1.025 . S
C2449 C342 1.693 . S
C2451 C851 1.679 . S
C2469 C768 1.956 . S
C2467 C357 1.970 . S
C2487 C874 1.389 . S
C2485 C369 1.431 . S
C2503 C376 1.556 . S
C2505 N777 1.503 . S
C2523 N833 1.425 . S
C2521 C292 1.458 . S
C2541 N764 1.530 . S
C2539 C345 1.557 . S
C2559 N869 1.454 . S
C2557 C352 1.527 . S
C2575 C366 1.235 . S
C2577 C782 1.231 . S
C2593 C381 1.698 . S
C2595 N846 1.649 . S
C2611 C321 2.078 . S
C2613 C814 2.078 . S
C2629 C330 1.162 . S
C2631 N925 1.160 . S
C2649 C906 1.587 . S
C2647 C306 1.590 . S
