# Generated by pormake.
# Topology tbo, (3,4)-cn, num edge types: 1
# Building blocks:
#     Node 0, Type 0, BuildingBlock: WUSLED_clean_sbu_0, # of connection points: 3
#     Node 1, Type 0, BuildingBlock: WUSLED_clean_sbu_0, # of connection points: 3
#     Node 2, Type 0, BuildingBlock: WUSLED_clean_sbu_0, # of connection points: 3
#     Node 3, Type 0, BuildingBlock: WUSLED_clean_sbu_0, # of connection points: 3
#     Node 4, Type 0, BuildingBlock: WUSLED_clean_sbu_0, # of connection points: 3
#     Node 5, Type 0, BuildingBlock: WUSLED_clean_sbu_0, # of connection points: 3
#     Node 6, Type 0, BuildingBlock: WUSLED_clean_sbu_0, # of connection points: 3
#     Node 7, Type 0, BuildingBlock: WUSLED_clean_sbu_0, # of connection points: 3
#     Node 8, Type 0, BuildingBlock: WUSLED_clean_sbu_0, # of connection points: 3
#     Node 9, Type 0, BuildingBlock: WUSLED_clean_sbu_0, # of connection points: 3
#     Node 10, Type 0, BuildingBlock: WUSLED_clean_sbu_0, # of connection points: 3
#     Node 11, Type 0, BuildingBlock: WUSLED_clean_sbu_0, # of connection points: 3
#     Node 12, Type 0, BuildingBlock: WUSLED_clean_sbu_0, # of connection points: 3
#     Node 13, Type 0, BuildingBlock: WUSLED_clean_sbu_0, # of connection points: 3
#     Node 14, Type 0, BuildingBlock: WUSLED_clean_sbu_0, # of connection points: 3
#     Node 15, Type 0, BuildingBlock: WUSLED_clean_sbu_0, # of connection points: 3
#     Node 16, Type 0, BuildingBlock: WUSLED_clean_sbu_0, # of connection points: 3
#     Node 17, Type 0, BuildingBlock: WUSLED_clean_sbu_0, # of connection points: 3
#     Node 18, Type 0, BuildingBlock: WUSLED_clean_sbu_0, # of connection points: 3
#     Node 19, Type 0, BuildingBlock: WUSLED_clean_sbu_0, # of connection points: 3
#     Node 20, Type 0, BuildingBlock: WUSLED_clean_sbu_0, # of connection points: 3
#     Node 21, Type 0, BuildingBlock: WUSLED_clean_sbu_0, # of connection points: 3
#     Node 22, Type 0, BuildingBlock: WUSLED_clean_sbu_0, # of connection points: 3
#     Node 23, Type 0, BuildingBlock: WUSLED_clean_sbu_0, # of connection points: 3
#     Node 24, Type 0, BuildingBlock: WUSLED_clean_sbu_0, # of connection points: 3
#     Node 25, Type 0, BuildingBlock: WUSLED_clean_sbu_0, # of connection points: 3
#     Node 26, Type 0, BuildingBlock: WUSLED_clean_sbu_0, # of connection points: 3
#     Node 27, Type 0, BuildingBlock: WUSLED_clean_sbu_0, # of connection points: 3
#     Node 28, Type 0, BuildingBlock: WUSLED_clean_sbu_0, # of connection points: 3
#     Node 29, Type 0, BuildingBlock: WUSLED_clean_sbu_0, # of connection points: 3
#     Node 30, Type 0, BuildingBlock: WUSLED_clean_sbu_0, # of connection points: 3
#     Node 31, Type 0, BuildingBlock: WUSLED_clean_sbu_0, # of connection points: 3
#     Node 32, Type 1, BuildingBlock: MIFKUJ_clean_linker_1, # of connection points: 4
#     Node 33, Type 1, BuildingBlock: MIFKUJ_clean_linker_1, # of connection points: 4
#     Node 34, Type 1, BuildingBlock: MIFKUJ_clean_linker_1, # of connection points: 4
#     Node 35, Type 1, BuildingBlock: MIFKUJ_clean_linker_1, # of connection points: 4
#     Node 36, Type 1, BuildingBlock: MIFKUJ_clean_linker_1, # of connection points: 4
#     Node 37, Type 1, BuildingBlock: MIFKUJ_clean_linker_1, # of connection points: 4
#     Node 38, Type 1, BuildingBlock: MIFKUJ_clean_linker_1, # of connection points: 4
#     Node 39, Type 1, BuildingBlock: MIFKUJ_clean_linker_1, # of connection points: 4
#     Node 40, Type 1, BuildingBlock: MIFKUJ_clean_linker_1, # of connection points: 4
#     Node 41, Type 1, BuildingBlock: MIFKUJ_clean_linker_1, # of connection points: 4
#     Node 42, Type 1, BuildingBlock: MIFKUJ_clean_linker_1, # of connection points: 4
#     Node 43, Type 1, BuildingBlock: MIFKUJ_clean_linker_1, # of connection points: 4
#     Node 44, Type 1, BuildingBlock: MIFKUJ_clean_linker_1, # of connection points: 4
#     Node 45, Type 1, BuildingBlock: MIFKUJ_clean_linker_1, # of connection points: 4
#     Node 46, Type 1, BuildingBlock: MIFKUJ_clean_linker_1, # of connection points: 4
#     Node 47, Type 1, BuildingBlock: MIFKUJ_clean_linker_1, # of connection points: 4
#     Node 48, Type 1, BuildingBlock: MIFKUJ_clean_linker_1, # of connection points: 4
#     Node 49, Type 1, BuildingBlock: MIFKUJ_clean_linker_1, # of connection points: 4
#     Node 50, Type 1, BuildingBlock: MIFKUJ_clean_linker_1, # of connection points: 4
#     Node 51, Type 1, BuildingBlock: MIFKUJ_clean_linker_1, # of connection points: 4
#     Node 52, Type 1, BuildingBlock: MIFKUJ_clean_linker_1, # of connection points: 4
#     Node 53, Type 1, BuildingBlock: MIFKUJ_clean_linker_1, # of connection points: 4
#     Node 54, Type 1, BuildingBlock: MIFKUJ_clean_linker_1, # of connection points: 4
#     Node 55, Type 1, BuildingBlock: MIFKUJ_clean_linker_1, # of connection points: 4
#     Edge 56, Type (0, 1), BuildingBlock: MIFKUJ_clean_linker_0, # of connection points: 2
#     Edge 57, Type (0, 1), BuildingBlock: MIFKUJ_clean_linker_0, # of connection points: 2
#     Edge 58, Type (0, 1), BuildingBlock: MIFKUJ_clean_linker_0, # of connection points: 2
#     Edge 59, Type (0, 1), BuildingBlock: MIFKUJ_clean_linker_0, # of connection points: 2
#     Edge 60, Type (0, 1), BuildingBlock: MIFKUJ_clean_linker_0, # of connection points: 2
#     Edge 61, Type (0, 1), BuildingBlock: MIFKUJ_clean_linker_0, # of connection points: 2
#     Edge 62, Type (0, 1), BuildingBlock: MIFKUJ_clean_linker_0, # of connection points: 2
#     Edge 63, Type (0, 1), BuildingBlock: MIFKUJ_clean_linker_0, # of connection points: 2
#     Edge 64, Type (0, 1), BuildingBlock: MIFKUJ_clean_linker_0, # of connection points: 2
#     Edge 65, Type (0, 1), BuildingBlock: MIFKUJ_clean_linker_0, # of connection points: 2
#     Edge 66, Type (0, 1), BuildingBlock: MIFKUJ_clean_linker_0, # of connection points: 2
#     Edge 67, Type (0, 1), BuildingBlock: MIFKUJ_clean_linker_0, # of connection points: 2
#     Edge 68, Type (0, 1), BuildingBlock: MIFKUJ_clean_linker_0, # of connection points: 2
#     Edge 69, Type (0, 1), BuildingBlock: MIFKUJ_clean_linker_0, # of connection points: 2
#     Edge 70, Type (0, 1), BuildingBlock: MIFKUJ_clean_linker_0, # of connection points: 2
#     Edge 71, Type (0, 1), BuildingBlock: MIFKUJ_clean_linker_0, # of connection points: 2
#     Edge 72, Type (0, 1), BuildingBlock: MIFKUJ_clean_linker_0, # of connection points: 2
#     Edge 73, Type (0, 1), BuildingBlock: MIFKUJ_clean_linker_0, # of connection points: 2
#     Edge 74, Type (0, 1), BuildingBlock: MIFKUJ_clean_linker_0, # of connection points: 2
#     Edge 75, Type (0, 1), BuildingBlock: MIFKUJ_clean_linker_0, # of connection points: 2
#     Edge 76, Type (0, 1), BuildingBlock: MIFKUJ_clean_linker_0, # of connection points: 2
#     Edge 77, Type (0, 1), BuildingBlock: MIFKUJ_clean_linker_0, # of connection points: 2
#     Edge 78, Type (0, 1), BuildingBlock: MIFKUJ_clean_linker_0, # of connection points: 2
#     Edge 79, Type (0, 1), BuildingBlock: MIFKUJ_clean_linker_0, # of connection points: 2
#     Edge 80, Type (0, 1), BuildingBlock: MIFKUJ_clean_linker_0, # of connection points: 2
#     Edge 81, Type (0, 1), BuildingBlock: MIFKUJ_clean_linker_0, # of connection points: 2
#     Edge 82, Type (0, 1), BuildingBlock: MIFKUJ_clean_linker_0, # of connection points: 2
#     Edge 83, Type (0, 1), BuildingBlock: MIFKUJ_clean_linker_0, # of connection points: 2
#     Edge 84, Type (0, 1), BuildingBlock: MIFKUJ_clean_linker_0, # of connection points: 2
#     Edge 85, Type (0, 1), BuildingBlock: MIFKUJ_clean_linker_0, # of connection points: 2
#     Edge 86, Type (0, 1), BuildingBlock: MIFKUJ_clean_linker_0, # of connection points: 2
#     Edge 87, Type (0, 1), BuildingBlock: MIFKUJ_clean_linker_0, # of connection points: 2
#     Edge 88, Type (0, 1), BuildingBlock: MIFKUJ_clean_linker_0, # of connection points: 2
#     Edge 89, Type (0, 1), BuildingBlock: MIFKUJ_clean_linker_0, # of connection points: 2
#     Edge 90, Type (0, 1), BuildingBlock: MIFKUJ_clean_linker_0, # of connection points: 2
#     Edge 91, Type (0, 1), BuildingBlock: MIFKUJ_clean_linker_0, # of connection points: 2
#     Edge 92, Type (0, 1), BuildingBlock: MIFKUJ_clean_linker_0, # of connection points: 2
#     Edge 93, Type (0, 1), BuildingBlock: MIFKUJ_clean_linker_0, # of connection points: 2
#     Edge 94, Type (0, 1), BuildingBlock: MIFKUJ_clean_linker_0, # of connection points: 2
#     Edge 95, Type (0, 1), BuildingBlock: MIFKUJ_clean_linker_0, # of connection points: 2
#     Edge 96, Type (0, 1), BuildingBlock: MIFKUJ_clean_linker_0, # of connection points: 2
#     Edge 97, Type (0, 1), BuildingBlock: MIFKUJ_clean_linker_0, # of connection points: 2
#     Edge 98, Type (0, 1), BuildingBlock: MIFKUJ_clean_linker_0, # of connection points: 2
#     Edge 99, Type (0, 1), BuildingBlock: MIFKUJ_clean_linker_0, # of connection points: 2
#     Edge 100, Type (0, 1), BuildingBlock: MIFKUJ_clean_linker_0, # of connection points: 2
#     Edge 101, Type (0, 1), BuildingBlock: MIFKUJ_clean_linker_0, # of connection points: 2
#     Edge 102, Type (0, 1), BuildingBlock: MIFKUJ_clean_linker_0, # of connection points: 2
#     Edge 103, Type (0, 1), BuildingBlock: MIFKUJ_clean_linker_0, # of connection points: 2
#     Edge 104, Type (0, 1), BuildingBlock: MIFKUJ_clean_linker_0, # of connection points: 2
#     Edge 105, Type (0, 1), BuildingBlock: MIFKUJ_clean_linker_0, # of connection points: 2
#     Edge 106, Type (0, 1), BuildingBlock: MIFKUJ_clean_linker_0, # of connection points: 2
#     Edge 107, Type (0, 1), BuildingBlock: MIFKUJ_clean_linker_0, # of connection points: 2
#     Edge 108, Type (0, 1), BuildingBlock: MIFKUJ_clean_linker_0, # of connection points: 2
#     Edge 109, Type (0, 1), BuildingBlock: MIFKUJ_clean_linker_0, # of connection points: 2
#     Edge 110, Type (0, 1), BuildingBlock: MIFKUJ_clean_linker_0, # of connection points: 2
#     Edge 111, Type (0, 1), BuildingBlock: MIFKUJ_clean_linker_0, # of connection points: 2
#     Edge 112, Type (0, 1), BuildingBlock: MIFKUJ_clean_linker_0, # of connection points: 2
#     Edge 113, Type (0, 1), BuildingBlock: MIFKUJ_clean_linker_0, # of connection points: 2
#     Edge 114, Type (0, 1), BuildingBlock: MIFKUJ_clean_linker_0, # of connection points: 2
#     Edge 115, Type (0, 1), BuildingBlock: MIFKUJ_clean_linker_0, # of connection points: 2
#     Edge 116, Type (0, 1), BuildingBlock: MIFKUJ_clean_linker_0, # of connection points: 2
#     Edge 117, Type (0, 1), BuildingBlock: MIFKUJ_clean_linker_0, # of connection points: 2
#     Edge 118, Type (0, 1), BuildingBlock: MIFKUJ_clean_linker_0, # of connection points: 2
#     Edge 119, Type (0, 1), BuildingBlock: MIFKUJ_clean_linker_0, # of connection points: 2
#     Edge 120, Type (0, 1), BuildingBlock: MIFKUJ_clean_linker_0, # of connection points: 2
#     Edge 121, Type (0, 1), BuildingBlock: MIFKUJ_clean_linker_0, # of connection points: 2
#     Edge 122, Type (0, 1), BuildingBlock: MIFKUJ_clean_linker_0, # of connection points: 2
#     Edge 123, Type (0, 1), BuildingBlock: MIFKUJ_clean_linker_0, # of connection points: 2
#     Edge 124, Type (0, 1), BuildingBlock: MIFKUJ_clean_linker_0, # of connection points: 2
#     Edge 125, Type (0, 1), BuildingBlock: MIFKUJ_clean_linker_0, # of connection points: 2
#     Edge 126, Type (0, 1), BuildingBlock: MIFKUJ_clean_linker_0, # of connection points: 2
#     Edge 127, Type (0, 1), BuildingBlock: MIFKUJ_clean_linker_0, # of connection points: 2
#     Edge 128, Type (0, 1), BuildingBlock: MIFKUJ_clean_linker_0, # of connection points: 2
#     Edge 129, Type (0, 1), BuildingBlock: MIFKUJ_clean_linker_0, # of connection points: 2
#     Edge 130, Type (0, 1), BuildingBlock: MIFKUJ_clean_linker_0, # of connection points: 2
#     Edge 131, Type (0, 1), BuildingBlock: MIFKUJ_clean_linker_0, # of connection points: 2
#     Edge 132, Type (0, 1), BuildingBlock: MIFKUJ_clean_linker_0, # of connection points: 2
#     Edge 133, Type (0, 1), BuildingBlock: MIFKUJ_clean_linker_0, # of connection points: 2
#     Edge 134, Type (0, 1), BuildingBlock: MIFKUJ_clean_linker_0, # of connection points: 2
#     Edge 135, Type (0, 1), BuildingBlock: MIFKUJ_clean_linker_0, # of connection points: 2
#     Edge 136, Type (0, 1), BuildingBlock: MIFKUJ_clean_linker_0, # of connection points: 2
#     Edge 137, Type (0, 1), BuildingBlock: MIFKUJ_clean_linker_0, # of connection points: 2
#     Edge 138, Type (0, 1), BuildingBlock: MIFKUJ_clean_linker_0, # of connection points: 2
#     Edge 139, Type (0, 1), BuildingBlock: MIFKUJ_clean_linker_0, # of connection points: 2
#     Edge 140, Type (0, 1), BuildingBlock: MIFKUJ_clean_linker_0, # of connection points: 2
#     Edge 141, Type (0, 1), BuildingBlock: MIFKUJ_clean_linker_0, # of connection points: 2
#     Edge 142, Type (0, 1), BuildingBlock: MIFKUJ_clean_linker_0, # of connection points: 2
#     Edge 143, Type (0, 1), BuildingBlock: MIFKUJ_clean_linker_0, # of connection points: 2
#     Edge 144, Type (0, 1), BuildingBlock: MIFKUJ_clean_linker_0, # of connection points: 2
#     Edge 145, Type (0, 1), BuildingBlock: MIFKUJ_clean_linker_0, # of connection points: 2
#     Edge 146, Type (0, 1), BuildingBlock: MIFKUJ_clean_linker_0, # of connection points: 2
#     Edge 147, Type (0, 1), BuildingBlock: MIFKUJ_clean_linker_0, # of connection points: 2
#     Edge 148, Type (0, 1), BuildingBlock: MIFKUJ_clean_linker_0, # of connection points: 2
#     Edge 149, Type (0, 1), BuildingBlock: MIFKUJ_clean_linker_0, # of connection points: 2
#     Edge 150, Type (0, 1), BuildingBlock: MIFKUJ_clean_linker_0, # of connection points: 2
#     Edge 151, Type (0, 1), BuildingBlock: MIFKUJ_clean_linker_0, # of connection points: 2
# Relax obj value: 0.000
# Max RMSD: 0.012
# Mean RMSD: 0.007
data_MOF--net-tbo--node1-WUSLED_clean_sbu_0--node2-MIFKUJ_clean_linker_1--edge1-MIFKUJ_clean_linker_0
_symmetry_space_group_name_H-M    P1
_symmetry_Int_Tables_number       1
_symmetry_cell_setting            triclinic
loop_
_symmetry_equiv_pos_as_xyz
'x, y, z'
_cell_length_a     130.39412
_cell_length_b     130.74912
_cell_length_c     130.61256
_cell_angle_alpha  89.688652
_cell_angle_beta   90.271116
_cell_angle_gamma 90.668907
loop_
_atom_site_label
_atom_site_type_symbol
_atom_site_fract_x
_atom_site_fract_y
_atom_site_fract_z
_atom_type_partial_charge
C0 C 0.18183 0.15393 0.19579 0.0
C1 C 0.19239 0.15311 0.19389 0.0
C2 C 0.19263 0.13638 0.20232 0.0
C3 C 0.19775 0.14442 0.19716 0.0
C4 C 0.18204 0.13723 0.20409 0.0
C5 C 0.17672 0.14591 0.20087 0.0
U6 U 0.17676 0.17745 0.17859 0.0
O7 O 0.16202 0.18326 0.17277 0.0
O8 O 0.17159 0.1928 0.18286 0.0
C9 C 0.16276 0.19176 0.17806 0.0
C10 C 0.176 0.16308 0.19274 0.0
C11 C 0.15353 0.19469 0.18381 0.0
C12 C 0.14363 0.19553 0.19956 0.0
C13 C 0.15235 0.19232 0.19425 0.0
C14 C 0.13711 0.20332 0.18402 0.0
C15 C 0.1359 0.20109 0.1945 0.0
C16 C 0.14582 0.20016 0.17875 0.0
C17 C 0.19492 0.18332 0.15591 0.0
C18 C 0.19186 0.19556 0.14214 0.0
C19 C 0.20821 0.18705 0.14341 0.0
C20 C 0.20482 0.1818 0.15213 0.0
C21 C 0.20176 0.19393 0.13822 0.0
C22 C 0.18847 0.19029 0.15091 0.0
C23 C 0.19149 0.17732 0.16489 0.0
O24 O 0.18062 0.17197 0.19407 0.0
O25 O 0.171 0.16247 0.18401 0.0
O26 O 0.1828 0.17223 0.16384 0.0
O27 O 0.19241 0.18183 0.17382 0.0
H28 H 0.19649 0.15918 0.18993 0.0
H29 H 0.20587 0.14397 0.19558 0.0
H30 H 0.17787 0.13127 0.20815 0.0
H31 H 0.16858 0.1464 0.20243 0.0
H32 H 0.14291 0.19358 0.20759 0.0
H33 H 0.15818 0.18805 0.19831 0.0
H34 H 0.1314 0.2077 0.17991 0.0
H35 H 0.14659 0.20209 0.17071 0.0
H36 H 0.18666 0.20075 0.13832 0.0
H37 H 0.21594 0.18573 0.14075 0.0
H38 H 0.20993 0.17649 0.15591 0.0
H39 H 0.18078 0.19157 0.15372 0.0
C40 C 0.82194 0.18296 0.15687 0.0
C41 C 0.82382 0.19351 0.15574 0.0
C42 C 0.81493 0.19348 0.13925 0.0
C43 C 0.82032 0.19872 0.14703 0.0
C44 C 0.81328 0.18287 0.14036 0.0
C45 C 0.81672 0.17769 0.14909 0.0
U46 U 0.83995 0.17878 0.1798 0.0
O47 O 0.83626 0.17422 0.19564 0.0
O48 O 0.84599 0.16448 0.18622 0.0
C49 C 0.84098 0.16544 0.19487 0.0
C50 C 0.8252 0.17734 0.16611 0.0
C51 C 0.8351 0.15637 0.19825 0.0
C52 C 0.82305 0.14244 0.19491 0.0
C53 C 0.82833 0.15124 0.1916 0.0
C54 C 0.83112 0.14395 0.21159 0.0
C55 C 0.82444 0.13864 0.20493 0.0
C56 C 0.8364 0.15271 0.20826 0.0
C57 C 0.86293 0.19674 0.1842 0.0
C58 C 0.87309 0.19712 0.19986 0.0
C59 C 0.87921 0.20595 0.18468 0.0
C60 C 0.87043 0.20277 0.17934 0.0
C61 C 0.88064 0.20319 0.19501 0.0
C62 C 0.86432 0.19389 0.19448 0.0
C63 C 0.85377 0.19349 0.17838 0.0
O64 O 0.83388 0.1724 0.16538 0.0
O65 O 0.82421 0.18217 0.17485 0.0
O66 O 0.84493 0.19457 0.18304 0.0
O67 O 0.85453 0.18472 0.1736 0.0
H68 H 0.82788 0.19773 0.16165 0.0
H69 H 0.82167 0.20689 0.14648 0.0
H70 H 0.80935 0.17853 0.13446 0.0
H71 H 0.81527 0.16954 0.14978 0.0
H72 H 0.81804 0.1385 0.18955 0.0
H73 H 0.82721 0.15397 0.18384 0.0
H74 H 0.83224 0.14138 0.2194 0.0
H75 H 0.84156 0.15662 0.21352 0.0
H76 H 0.87402 0.19477 0.20777 0.0
H77 H 0.88481 0.21071 0.18075 0.0
H78 H 0.86948 0.20504 0.1714 0.0
H79 H 0.85864 0.18917 0.19835 0.0
C80 C 0.82272 0.83435 0.15607 0.0
C81 C 0.82966 0.83233 0.14813 0.0
C82 C 0.81625 0.82338 0.13848 0.0
C83 C 0.82644 0.82694 0.13942 0.0
C84 C 0.80938 0.82528 0.14651 0.0
C85 C 0.81258 0.83072 0.15517 0.0
U86 U 0.83986 0.8406 0.17948 0.0
O87 O 0.84517 0.8555 0.18534 0.0
O88 O 0.83533 0.84565 0.19488 0.0
C89 C 0.83989 0.85461 0.19386 0.0
C90 C 0.82567 0.84055 0.16511 0.0
C91 C 0.83388 0.86359 0.19695 0.0
C92 C 0.82391 0.87877 0.19297 0.0
C93 C 0.82912 0.87002 0.18976 0.0
C94 C 0.82797 0.87461 0.21061 0.0
C95 C 0.82337 0.88124 0.20345 0.0
C96 C 0.83317 0.86591 0.20739 0.0
C97 C 0.86283 0.82312 0.1857 0.0
C98 C 0.87685 0.82674 0.19757 0.0
C99 C 0.87467 0.80971 0.19063 0.0
C100 C 0.8661 0.81298 0.18509 0.0
C101 C 0.88018 0.81655 0.19694 0.0
C102 C 0.86823 0.83 0.19202 0.0
C103 C 0.85389 0.8263 0.17954 0.0
O104 O 0.8244 0.83613 0.17409 0.0
O105 O 0.83423 0.84594 0.16449 0.0
O106 O 0.85483 0.83496 0.17444 0.0
O107 O 0.84489 0.82516 0.18392 0.0
H108 H 0.83754 0.83499 0.1486 0.0
H109 H 0.83195 0.82551 0.13343 0.0
H110 H 0.80145 0.82277 0.14598 0.0
H111 H 0.80706 0.83223 0.16114 0.0
H112 H 0.82053 0.88371 0.18724 0.0
H113 H 0.82954 0.86837 0.18165 0.0
H114 H 0.82754 0.87612 0.21874 0.0
H115 H 0.83674 0.86103 0.21307 0.0
H116 H 0.88085 0.83218 0.20242 0.0
H117 H 0.87708 0.80186 0.18983 0.0
H118 H 0.86206 0.80756 0.18022 0.0
H119 H 0.8658 0.83786 0.19264 0.0
C120 C 0.15464 0.8238 0.18425 0.0
C121 C 0.15521 0.82216 0.19489 0.0
C122 C 0.13713 0.81715 0.1953 0.0
C123 C 0.14655 0.81883 0.20034 0.0
C124 C 0.13655 0.81895 0.18468 0.0
C125 C 0.14522 0.8222 0.17923 0.0
U126 U 0.17799 0.84118 0.17822 0.0
O127 O 0.19341 0.83714 0.17293 0.0
O128 O 0.18358 0.84674 0.16327 0.0
C129 C 0.19219 0.84166 0.164 0.0
C130 C 0.16375 0.82679 0.17814 0.0
C131 C 0.19506 0.8357 0.1549 0.0
C132 C 0.19605 0.81969 0.14555 0.0
C133 C 0.19294 0.82517 0.15418 0.0
C134 C 0.20323 0.83522 0.13822 0.0
C135 C 0.20125 0.82465 0.13747 0.0
C136 C 0.20018 0.84067 0.14685 0.0
C137 C 0.18376 0.86449 0.19541 0.0
C138 C 0.19974 0.87426 0.19635 0.0
C139 C 0.18428 0.88106 0.20376 0.0
C140 C 0.17883 0.87233 0.20067 0.0
C141 C 0.19482 0.88213 0.20168 0.0
C142 C 0.19425 0.86553 0.1932 0.0
C143 C 0.17779 0.8553 0.19248 0.0
O144 O 0.163 0.83532 0.17283 0.0
O145 O 0.17278 0.82569 0.18252 0.0
O146 O 0.18239 0.84646 0.19361 0.0
O147 O 0.17253 0.85599 0.1839 0.0
H148 H 0.16235 0.82337 0.19899 0.0
H149 H 0.14723 0.81762 0.20853 0.0
H150 H 0.12946 0.81761 0.18054 0.0
H151 H 0.14458 0.82335 0.17103 0.0
H152 H 0.1943 0.81158 0.14517 0.0
H153 H 0.18894 0.82119 0.16029 0.0
H154 H 0.20733 0.83927 0.13222 0.0
H155 H 0.2019 0.84879 0.14727 0.0
H156 H 0.20782 0.87489 0.19453 0.0
H157 H 0.18027 0.88689 0.20797 0.0
H158 H 0.17074 0.87166 0.20246 0.0
H159 H 0.1982 0.85959 0.18909 0.0
C160 C 0.15617 0.82138 0.83511 0.0
C161 C 0.14883 0.82856 0.83199 0.0
C162 C 0.13859 0.81507 0.82398 0.0
C163 C 0.1401 0.82542 0.82653 0.0
C164 C 0.14604 0.80794 0.82696 0.0
C165 C 0.15472 0.81107 0.83249 0.0
U166 U 0.17898 0.83928 0.84077 0.0
O167 O 0.1852 0.84481 0.85541 0.0
O168 O 0.1948 0.83553 0.84538 0.0
C169 C 0.19386 0.83987 0.85438 0.0
C170 C 0.16531 0.82439 0.84115 0.0
C171 C 0.19724 0.83376 0.86329 0.0
C172 C 0.19368 0.82425 0.87897 0.0
C173 C 0.19021 0.82953 0.87029 0.0
C174 C 0.21124 0.82708 0.8736 0.0
C175 C 0.20425 0.82303 0.88079 0.0
C176 C 0.20776 0.8324 0.86497 0.0
C177 C 0.18352 0.86289 0.82365 0.0
C178 C 0.19955 0.87227 0.82121 0.0
C179 C 0.18346 0.87996 0.81621 0.0
C180 C 0.17818 0.8712 0.81953 0.0
C181 C 0.19423 0.88057 0.81688 0.0
C182 C 0.19424 0.86352 0.82459 0.0
C183 C 0.17775 0.85358 0.82664 0.0
O184 O 0.17414 0.82369 0.83642 0.0
O185 O 0.16455 0.83274 0.84666 0.0
O186 O 0.17286 0.85402 0.8354 0.0
O187 O 0.1824 0.84484 0.82524 0.0
H188 H 0.14981 0.83658 0.83382 0.0
H189 H 0.13455 0.8311 0.82424 0.0
H190 H 0.14506 0.7999 0.8252 0.0
H191 H 0.16028 0.8054 0.83482 0.0
H192 H 0.18807 0.82133 0.88437 0.0
H193 H 0.18203 0.83043 0.86914 0.0
H194 H 0.21942 0.82613 0.87462 0.0
H195 H 0.21332 0.83556 0.85964 0.0
H196 H 0.20784 0.87243 0.82177 0.0
H197 H 0.17909 0.88626 0.81313 0.0
H198 H 0.1699 0.87088 0.81881 0.0
H199 H 0.19853 0.85721 0.82779 0.0
C200 C 0.15342 0.18115 0.82422 0.0
C201 C 0.15327 0.19188 0.8247 0.0
C202 C 0.136 0.19201 0.81732 0.0
C203 C 0.14464 0.19725 0.82127 0.0
C204 C 0.13615 0.18124 0.81709 0.0
C205 C 0.14477 0.1759 0.82048 0.0
U206 U 0.17726 0.17585 0.84108 0.0
O207 O 0.18295 0.16107 0.84685 0.0
O208 O 0.19248 0.17044 0.83655 0.0
C209 C 0.19138 0.16165 0.84138 0.0
C210 C 0.16257 0.17524 0.82722 0.0
C211 C 0.19409 0.15237 0.83561 0.0
C212 C 0.19579 0.14296 0.81967 0.0
C213 C 0.19264 0.15168 0.82497 0.0
C214 C 0.20163 0.13544 0.83561 0.0
C215 C 0.20037 0.13474 0.82493 0.0
C216 C 0.19854 0.14416 0.84088 0.0
C217 C 0.18409 0.19401 0.86349 0.0
C218 C 0.19319 0.19067 0.87949 0.0
C219 C 0.19138 0.20807 0.87337 0.0
C220 C 0.18601 0.20449 0.86478 0.0
C221 C 0.19493 0.20123 0.88092 0.0
C222 C 0.18783 0.1871 0.87086 0.0
C223 C 0.17777 0.19061 0.85468 0.0
O224 O 0.17155 0.17965 0.82566 0.0
O225 O 0.16202 0.17033 0.83602 0.0
O226 O 0.17243 0.18209 0.85587 0.0
O227 O 0.18202 0.19144 0.8456 0.0
H228 H 0.15985 0.19612 0.82758 0.0
H229 H 0.14485 0.20553 0.82149 0.0
H230 H 0.12959 0.17691 0.81431 0.0
H231 H 0.1447 0.16762 0.82009 0.0
H232 H 0.19459 0.14262 0.81147 0.0
H233 H 0.18917 0.1579 0.82073 0.0
H234 H 0.20524 0.12934 0.8399 0.0
H235 H 0.19976 0.14455 0.84908 0.0
H236 H 0.19572 0.18518 0.88516 0.0
H237 H 0.19274 0.21622 0.87408 0.0
H238 H 0.18323 0.20996 0.85919 0.0
H239 H 0.18647 0.17895 0.87004 0.0
C240 C 0.82099 0.15599 0.83745 0.0
C241 C 0.828 0.15002 0.83205 0.0
C242 C 0.81421 0.1383 0.82688 0.0
C243 C 0.82464 0.14124 0.82683 0.0
C244 C 0.80722 0.14446 0.83216 0.0
C245 C 0.81059 0.15319 0.83739 0.0
U246 U 0.83917 0.1788 0.84297 0.0
O247 O 0.83536 0.1944 0.84785 0.0
O248 O 0.84478 0.18464 0.85775 0.0
C249 C 0.83993 0.19335 0.85678 0.0
C250 C 0.8243 0.16504 0.84337 0.0
C251 C 0.83404 0.19661 0.86577 0.0
C252 C 0.82103 0.19362 0.87878 0.0
C253 C 0.82627 0.19043 0.87002 0.0
C254 C 0.8312 0.20924 0.87901 0.0
C255 C 0.82349 0.20304 0.88343 0.0
C256 C 0.83641 0.20605 0.87028 0.0
C257 C 0.86268 0.18404 0.82585 0.0
C258 C 0.87136 0.20003 0.82135 0.0
C259 C 0.88055 0.18408 0.8205 0.0
C260 C 0.87175 0.17878 0.82377 0.0
C261 C 0.88044 0.19476 0.81916 0.0
C262 C 0.86259 0.19474 0.8247 0.0
C263 C 0.85339 0.17813 0.82881 0.0
O264 O 0.83287 0.16416 0.84864 0.0
O265 O 0.8235 0.17391 0.83865 0.0
O266 O 0.84452 0.18266 0.82748 0.0
O267 O 0.85396 0.17299 0.83746 0.0
H268 H 0.83608 0.15207 0.83197 0.0
H269 H 0.83026 0.13666 0.82293 0.0
H270 H 0.79911 0.14258 0.83221 0.0
H271 H 0.80505 0.15773 0.84146 0.0
H272 H 0.8152 0.18862 0.88202 0.0
H273 H 0.82434 0.18311 0.86663 0.0
H274 H 0.83317 0.21661 0.88225 0.0
H275 H 0.84236 0.21094 0.86708 0.0
H276 H 0.87106 0.20827 0.8205 0.0
H277 H 0.88736 0.17976 0.81878 0.0
H278 H 0.87201 0.17053 0.82456 0.0
H279 H 0.85572 0.19901 0.82629 0.0
C280 C 0.83445 0.86322 0.82309 0.0
C281 C 0.83011 0.86992 0.8302 0.0
C282 C 0.82368 0.88072 0.8163 0.0
C283 C 0.8248 0.87859 0.82684 0.0
C284 C 0.82782 0.87381 0.80924 0.0
C285 C 0.83316 0.86519 0.8126 0.0
U286 U 0.84096 0.84054 0.841 0.0
O287 O 0.84657 0.82525 0.83709 0.0
O288 O 0.85609 0.83549 0.84654 0.0
C289 C 0.85551 0.82679 0.84157 0.0
C290 C 0.84069 0.85439 0.82633 0.0
C291 C 0.86469 0.82399 0.83565 0.0
C292 C 0.87389 0.82224 0.81957 0.0
C293 C 0.8652 0.82536 0.82499 0.0
C294 C 0.8817 0.81656 0.83543 0.0
C295 C 0.88224 0.81776 0.82473 0.0
C296 C 0.87302 0.81962 0.84081 0.0
C297 C 0.82384 0.83467 0.86442 0.0
C298 C 0.8239 0.81908 0.8747 0.0
C299 C 0.81453 0.83382 0.8805 0.0
C300 C 0.81762 0.83926 0.87177 0.0
C301 C 0.8176 0.82365 0.88208 0.0
C302 C 0.82702 0.82455 0.86596 0.0
C303 C 0.82669 0.84057 0.85517 0.0
O304 O 0.84599 0.85545 0.83485 0.0
O305 O 0.83634 0.84532 0.82543 0.0
O306 O 0.82566 0.83579 0.84639 0.0
O307 O 0.83518 0.84604 0.8558 0.0
H308 H 0.83098 0.86855 0.83834 0.0
H309 H 0.82179 0.88376 0.83251 0.0
H310 H 0.82696 0.87506 0.80108 0.0
H311 H 0.8364 0.8601 0.80698 0.0
H312 H 0.87409 0.82339 0.81136 0.0
H313 H 0.85888 0.82877 0.82084 0.0
H314 H 0.88791 0.81302 0.83964 0.0
H315 H 0.87277 0.81847 0.84903 0.0
H316 H 0.82649 0.8113 0.87572 0.0
H317 H 0.80957 0.83755 0.88593 0.0
H318 H 0.81505 0.84705 0.87071 0.0
H319 H 0.83186 0.82088 0.86039 0.0
C320 C 0.18198 0.65374 0.69605 0.0
C321 C 0.19239 0.65258 0.69368 0.0
C322 C 0.19256 0.63598 0.70238 0.0
C323 C 0.19765 0.64379 0.69685 0.0
C324 C 0.18209 0.63716 0.7046 0.0
C325 C 0.17687 0.64594 0.70148 0.0
U326 U 0.1771 0.67763 0.67927 0.0
O327 O 0.16244 0.68403 0.67403 0.0
O328 O 0.17258 0.69309 0.68402 0.0
C329 C 0.1636 0.69242 0.67944 0.0
C330 C 0.17631 0.66306 0.69323 0.0
C331 C 0.15467 0.69571 0.68547 0.0
C332 C 0.13908 0.69208 0.69511 0.0
C333 C 0.14777 0.68865 0.6899 0.0
C334 C 0.14423 0.70962 0.69174 0.0
C335 C 0.13713 0.70263 0.696 0.0
C336 C 0.15287 0.70619 0.68652 0.0
C337 C 0.19475 0.68372 0.65632 0.0
C338 C 0.1911 0.69502 0.6419 0.0
C339 C 0.20843 0.68919 0.64486 0.0
C340 C 0.20509 0.68366 0.65344 0.0
C341 C 0.20148 0.6949 0.63893 0.0
C342 C 0.18778 0.68951 0.65054 0.0
C343 C 0.19146 0.67747 0.6652 0.0
O344 O 0.18118 0.67181 0.69457 0.0
O345 O 0.1711 0.66269 0.6846 0.0
O346 O 0.18264 0.67258 0.66427 0.0
O347 O 0.19276 0.68166 0.67425 0.0
H348 H 0.19648 0.65848 0.68945 0.0
H349 H 0.20567 0.64309 0.6949 0.0
H350 H 0.17795 0.63139 0.70896 0.0
H351 H 0.16885 0.6467 0.70342 0.0
H352 H 0.13376 0.68647 0.69822 0.0
H353 H 0.14901 0.68051 0.68922 0.0
H354 H 0.14313 0.71778 0.69243 0.0
H355 H 0.15812 0.71177 0.68321 0.0
H356 H 0.18557 0.69942 0.63758 0.0
H357 H 0.21643 0.68881 0.64273 0.0
H358 H 0.21059 0.67923 0.65778 0.0
H359 H 0.17976 0.68971 0.65265 0.0
C360 C 0.8213 0.68351 0.65645 0.0
C361 C 0.82446 0.69371 0.65501 0.0
C362 C 0.81502 0.69446 0.63886 0.0
C363 C 0.82131 0.69916 0.6463 0.0
C364 C 0.81195 0.68421 0.64034 0.0
C365 C 0.81505 0.6788 0.64906 0.0
U366 U 0.83928 0.67863 0.6792 0.0
O367 O 0.8358 0.67367 0.69492 0.0
O368 O 0.84527 0.66404 0.68511 0.0
C369 C 0.84032 0.6648 0.6938 0.0
C370 C 0.82445 0.67762 0.66555 0.0
C371 C 0.83439 0.65564 0.69697 0.0
C372 C 0.8182 0.64668 0.69993 0.0
C373 C 0.82361 0.6554 0.69663 0.0
C374 C 0.83424 0.63827 0.7037 0.0
C375 C 0.82345 0.63802 0.70351 0.0
C376 C 0.83964 0.64701 0.70049 0.0
C377 C 0.86237 0.69643 0.68385 0.0
C378 C 0.87277 0.69626 0.69936 0.0
C379 C 0.87846 0.70595 0.68453 0.0
C380 C 0.86966 0.70284 0.67918 0.0
C381 C 0.88012 0.70272 0.69469 0.0
C382 C 0.86399 0.6931 0.69397 0.0
C383 C 0.85316 0.69331 0.67805 0.0
O384 O 0.8331 0.67264 0.66468 0.0
O385 O 0.82355 0.68227 0.6744 0.0
O386 O 0.84437 0.6943 0.68281 0.0
O387 O 0.85386 0.68465 0.67305 0.0
H388 H 0.82936 0.69746 0.6606 0.0
H389 H 0.8239 0.707 0.64533 0.0
H390 H 0.80701 0.6804 0.63483 0.0
H391 H 0.81254 0.67093 0.65005 0.0
H392 H 0.80989 0.64668 0.69958 0.0
H393 H 0.81938 0.66194 0.69386 0.0
H394 H 0.83851 0.63177 0.70652 0.0
H395 H 0.84795 0.64704 0.70082 0.0
H396 H 0.87388 0.69355 0.70713 0.0
H397 H 0.88389 0.71102 0.68076 0.0
H398 H 0.86853 0.70548 0.67138 0.0
H399 H 0.85846 0.68808 0.69768 0.0
C400 C 0.82363 0.33617 0.65485 0.0
C401 C 0.82521 0.32558 0.65418 0.0
C402 C 0.81667 0.32518 0.63748 0.0
C403 C 0.82176 0.32014 0.64557 0.0
C404 C 0.81533 0.33583 0.63814 0.0
C405 C 0.81875 0.34124 0.64673 0.0
U406 U 0.84059 0.34184 0.67862 0.0
O407 O 0.84616 0.3568 0.68424 0.0
O408 O 0.836 0.3473 0.6938 0.0
C409 C 0.84064 0.35621 0.69263 0.0
C410 C 0.82667 0.3421 0.66399 0.0
C411 C 0.83471 0.36542 0.69528 0.0
C412 C 0.81871 0.37377 0.69968 0.0
C413 C 0.82399 0.36509 0.69646 0.0
C414 C 0.83471 0.38333 0.70034 0.0
C415 C 0.82402 0.38299 0.70173 0.0
C416 C 0.83999 0.37464 0.69719 0.0
C417 C 0.86331 0.32437 0.68572 0.0
C418 C 0.87978 0.32806 0.69389 0.0
C419 C 0.8727 0.31087 0.69446 0.0
C420 C 0.86414 0.31414 0.68889 0.0
C421 C 0.88069 0.31776 0.69695 0.0
C422 C 0.87117 0.33134 0.68837 0.0
C423 C 0.85445 0.3274 0.67928 0.0
O424 O 0.82521 0.33765 0.67293 0.0
O425 O 0.83544 0.34712 0.66341 0.0
O426 O 0.8555 0.33584 0.67383 0.0
O427 O 0.84535 0.3264 0.68347 0.0
H428 H 0.82899 0.32151 0.66035 0.0
H429 H 0.82287 0.31195 0.64536 0.0
H430 H 0.81164 0.34001 0.632 0.0
H431 H 0.8175 0.34941 0.64707 0.0
H432 H 0.81047 0.37328 0.70055 0.0
H433 H 0.8197 0.35811 0.69502 0.0
H434 H 0.83905 0.39025 0.70195 0.0
H435 H 0.84825 0.37508 0.69641 0.0
H436 H 0.88574 0.33358 0.69578 0.0
H437 H 0.87319 0.30287 0.69658 0.0
H438 H 0.85821 0.30861 0.6869 0.0
H439 H 0.87073 0.3393 0.68608 0.0
C440 C 0.15471 0.32275 0.68356 0.0
C441 C 0.15354 0.32528 0.69392 0.0
C442 C 0.13705 0.31624 0.6944 0.0
C443 C 0.1448 0.32202 0.6993 0.0
C444 C 0.13825 0.31382 0.68399 0.0
C445 C 0.14699 0.31704 0.67864 0.0
U446 U 0.17782 0.34058 0.67852 0.0
O447 O 0.19351 0.33686 0.67379 0.0
O448 O 0.18388 0.34639 0.66387 0.0
C449 C 0.19259 0.34154 0.6649 0.0
C450 C 0.1639 0.32589 0.67773 0.0
C451 C 0.196 0.33579 0.65589 0.0
C452 C 0.1952 0.32092 0.64478 0.0
C453 C 0.19167 0.32625 0.65334 0.0
C454 C 0.20733 0.33464 0.64124 0.0
C455 C 0.20312 0.32502 0.63865 0.0
C456 C 0.20381 0.33994 0.64977 0.0
C457 C 0.18267 0.3637 0.69606 0.0
C458 C 0.19799 0.37451 0.69564 0.0
C459 C 0.1835 0.37935 0.70601 0.0
C460 C 0.17817 0.37057 0.70284 0.0
C461 C 0.19349 0.38144 0.70246 0.0
C462 C 0.19261 0.36573 0.69244 0.0
C463 C 0.17685 0.3545 0.69293 0.0
O464 O 0.16315 0.33449 0.67254 0.0
O465 O 0.17275 0.32496 0.6825 0.0
O466 O 0.18155 0.34573 0.69412 0.0
O467 O 0.1719 0.3552 0.68417 0.0
H468 H 0.15938 0.32975 0.69785 0.0
H469 H 0.14407 0.32411 0.70728 0.0
H470 H 0.13251 0.30929 0.68 0.0
H471 H 0.14776 0.31499 0.67065 0.0
H472 H 0.19184 0.3135 0.64307 0.0
H473 H 0.18562 0.32293 0.65799 0.0
H474 H 0.21329 0.33814 0.63661 0.0
H475 H 0.2072 0.34732 0.65159 0.0
H476 H 0.20562 0.37593 0.69268 0.0
H477 H 0.17985 0.38442 0.71138 0.0
H478 H 0.17051 0.36912 0.70574 0.0
H479 H 0.1962 0.36053 0.68715 0.0
C480 C 0.15676 0.32096 0.33677 0.0
C481 C 0.15005 0.3279 0.33207 0.0
C482 C 0.13933 0.31378 0.32588 0.0
C483 C 0.1414 0.32435 0.32672 0.0
C484 C 0.14621 0.30688 0.33045 0.0
C485 C 0.15481 0.31044 0.33585 0.0
U486 U 0.17918 0.33955 0.34167 0.0
O487 O 0.18492 0.34603 0.35617 0.0
O488 O 0.19493 0.3365 0.34682 0.0
C489 C 0.19375 0.34133 0.35553 0.0
C490 C 0.16574 0.32448 0.34276 0.0
C491 C 0.19703 0.33576 0.36478 0.0
C492 C 0.19724 0.32044 0.37541 0.0
C493 C 0.19379 0.32566 0.36668 0.0
C494 C 0.20703 0.33543 0.38051 0.0
C495 C 0.20396 0.32524 0.38241 0.0
C496 C 0.20361 0.34062 0.37178 0.0
C497 C 0.18386 0.36198 0.32313 0.0
C498 C 0.19467 0.37686 0.32657 0.0
C499 C 0.18897 0.37335 0.30925 0.0
C500 C 0.18372 0.36463 0.31273 0.0
C501 C 0.19446 0.37963 0.31613 0.0
C502 C 0.18944 0.3681 0.33003 0.0
C503 C 0.1781 0.35283 0.32656 0.0
O504 O 0.17468 0.32362 0.33825 0.0
O505 O 0.16473 0.33317 0.34765 0.0
O506 O 0.17296 0.35373 0.33514 0.0
O507 O 0.18299 0.34413 0.32587 0.0
H508 H 0.15142 0.33606 0.33263 0.0
H509 H 0.13623 0.3299 0.32341 0.0
H510 H 0.145 0.2987 0.32981 0.0
H511 H 0.15993 0.30496 0.33935 0.0
H512 H 0.19479 0.31257 0.37657 0.0
H513 H 0.18868 0.32179 0.36136 0.0
H514 H 0.21204 0.33945 0.38581 0.0
H515 H 0.20614 0.34844 0.37047 0.0
H516 H 0.19873 0.38156 0.3321 0.0
H517 H 0.1888 0.37511 0.30114 0.0
H518 H 0.17952 0.35996 0.30727 0.0
H519 H 0.18968 0.36614 0.3381 0.0
C520 C 0.15376 0.6817 0.32398 0.0
C521 C 0.15275 0.69211 0.32633 0.0
C522 C 0.13601 0.69245 0.31785 0.0
C523 C 0.14397 0.69745 0.32326 0.0
C524 C 0.13703 0.68199 0.31565 0.0
C525 C 0.14581 0.67669 0.31867 0.0
U526 U 0.17739 0.67614 0.34095 0.0
O527 O 0.18364 0.66134 0.34583 0.0
O528 O 0.19298 0.67172 0.33635 0.0
C529 C 0.19215 0.66261 0.34059 0.0
C530 C 0.16306 0.67593 0.32671 0.0
C531 C 0.19549 0.65388 0.33431 0.0
C532 C 0.19204 0.638 0.32516 0.0
C533 C 0.18851 0.64656 0.33048 0.0
C534 C 0.20951 0.64412 0.32718 0.0
C535 C 0.20261 0.6366 0.32354 0.0
C536 C 0.20599 0.65262 0.33251 0.0
C537 C 0.18281 0.69274 0.36483 0.0
C538 C 0.19891 0.69464 0.3742 0.0
C539 C 0.18307 0.7003 0.3818 0.0
C540 C 0.17767 0.69714 0.37308 0.0
C541 C 0.19377 0.69914 0.38247 0.0
C542 C 0.19347 0.69143 0.36547 0.0
C543 C 0.17686 0.68983 0.35562 0.0
O544 O 0.17187 0.68083 0.32572 0.0
O545 O 0.16253 0.67037 0.33511 0.0
O546 O 0.17193 0.68102 0.35609 0.0
O547 O 0.18129 0.69148 0.34673 0.0
H548 H 0.15877 0.69613 0.33047 0.0
H549 H 0.14339 0.70547 0.32519 0.0
H550 H 0.13114 0.67793 0.31139 0.0
H551 H 0.14645 0.66867 0.31675 0.0
H552 H 0.18649 0.63235 0.32255 0.0
H553 H 0.18035 0.64734 0.33174 0.0
H554 H 0.21768 0.64343 0.32592 0.0
H555 H 0.21152 0.65819 0.33537 0.0
H556 H 0.20712 0.69353 0.3745 0.0
H557 H 0.17888 0.70386 0.38794 0.0
H558 H 0.16945 0.69825 0.37273 0.0
H559 H 0.1976 0.68799 0.35921 0.0
C560 C 0.82095 0.65599 0.33587 0.0
C561 C 0.82812 0.64996 0.33075 0.0
C562 C 0.8144 0.63865 0.32463 0.0
C563 C 0.82488 0.64134 0.32521 0.0
C564 C 0.80726 0.64481 0.32969 0.0
C565 C 0.81051 0.65337 0.33526 0.0
U566 U 0.83905 0.67863 0.3421 0.0
O567 O 0.8352 0.69425 0.34693 0.0
O568 O 0.8443 0.68439 0.35704 0.0
C569 C 0.83946 0.6931 0.356 0.0
C570 C 0.82411 0.66495 0.342 0.0
C571 C 0.83329 0.69637 0.36481 0.0
C572 C 0.82186 0.69268 0.37909 0.0
C573 C 0.82733 0.68939 0.37052 0.0
C574 C 0.82807 0.70998 0.3762 0.0
C575 C 0.82218 0.70303 0.38205 0.0
C576 C 0.83356 0.70667 0.36769 0.0
C577 C 0.86287 0.68378 0.32541 0.0
C578 C 0.87262 0.69973 0.3242 0.0
C579 C 0.87967 0.68413 0.31742 0.0
C580 C 0.87088 0.67874 0.3205 0.0
C581 C 0.88064 0.69471 0.31917 0.0
C582 C 0.86383 0.69431 0.32733 0.0
C583 C 0.85353 0.67793 0.3282 0.0
O584 O 0.83254 0.66398 0.34749 0.0
O585 O 0.82346 0.67387 0.33738 0.0
O586 O 0.84476 0.68259 0.32676 0.0
O587 O 0.85393 0.67281 0.33688 0.0
H588 H 0.83622 0.65188 0.33107 0.0
H589 H 0.83056 0.63683 0.32132 0.0
H590 H 0.79916 0.6429 0.32952 0.0
H591 H 0.80486 0.65791 0.33917 0.0
H592 H 0.81732 0.68715 0.38336 0.0
H593 H 0.82697 0.68139 0.3684 0.0
H594 H 0.82861 0.71797 0.37833 0.0
H595 H 0.83813 0.71217 0.36341 0.0
H596 H 0.87317 0.70784 0.32578 0.0
H597 H 0.88563 0.68003 0.31346 0.0
H598 H 0.87027 0.67062 0.31892 0.0
H599 H 0.85776 0.69835 0.33118 0.0
C600 C 0.83595 0.36427 0.32339 0.0
C601 C 0.82598 0.36591 0.327 0.0
C602 C 0.82503 0.38185 0.31718 0.0
C603 C 0.82055 0.37461 0.32389 0.0
C604 C 0.83504 0.38013 0.31364 0.0
C605 C 0.84042 0.37144 0.31672 0.0
U606 U 0.84149 0.34096 0.34074 0.0
O607 O 0.84677 0.32563 0.33651 0.0
O608 O 0.85641 0.33538 0.34633 0.0
C609 C 0.85568 0.32682 0.34114 0.0
C610 C 0.84186 0.35518 0.32641 0.0
C611 C 0.86487 0.32394 0.33528 0.0
C612 C 0.87439 0.32267 0.31935 0.0
C613 C 0.86568 0.3258 0.32471 0.0
C614 C 0.88162 0.31596 0.33508 0.0
C615 C 0.88247 0.31768 0.32447 0.0
C616 C 0.87292 0.31904 0.34041 0.0
C617 C 0.82414 0.33505 0.36398 0.0
C618 C 0.82299 0.31905 0.37357 0.0
C619 C 0.81575 0.33446 0.38057 0.0
C620 C 0.81893 0.33994 0.37189 0.0
C621 C 0.81771 0.32394 0.38152 0.0
C622 C 0.82622 0.32456 0.36489 0.0
C623 C 0.82715 0.34105 0.35484 0.0
O624 O 0.84703 0.35591 0.33504 0.0
O625 O 0.83721 0.34627 0.3253 0.0
O626 O 0.82604 0.3365 0.34594 0.0
O627 O 0.83576 0.34632 0.3556 0.0
H628 H 0.82241 0.36048 0.3322 0.0
H629 H 0.8129 0.37573 0.32684 0.0
H630 H 0.83868 0.38544 0.30836 0.0
H631 H 0.8481 0.3703 0.31383 0.0
H632 H 0.87483 0.32422 0.31121 0.0
H633 H 0.85958 0.32963 0.3206 0.0
H634 H 0.88761 0.31202 0.33925 0.0
H635 H 0.87243 0.31751 0.34855 0.0
H636 H 0.82472 0.31098 0.3741 0.0
H637 H 0.81159 0.33846 0.38645 0.0
H638 H 0.81723 0.34802 0.37133 0.0
H639 H 0.83029 0.32063 0.3589 0.0
C640 C 0.68367 0.15475 0.69607 0.0
C641 C 0.68584 0.14676 0.68927 0.0
C642 C 0.69464 0.13738 0.70286 0.0
C643 C 0.69124 0.13816 0.69264 0.0
C644 C 0.69263 0.14548 0.70958 0.0
C645 C 0.68718 0.15404 0.70622 0.0
U646 U 0.67713 0.17757 0.67838 0.0
O647 O 0.66205 0.18277 0.67284 0.0
O648 O 0.67162 0.19288 0.68236 0.0
C649 C 0.66268 0.19144 0.67786 0.0
C650 C 0.67737 0.16362 0.69295 0.0
C651 C 0.6535 0.19429 0.68375 0.0
C652 C 0.64434 0.19637 0.69981 0.0
C653 C 0.65304 0.1932 0.69445 0.0
C654 C 0.63641 0.20155 0.68384 0.0
C655 C 0.63592 0.20062 0.69457 0.0
C656 C 0.6451 0.19844 0.67851 0.0
C657 C 0.69452 0.18325 0.65504 0.0
C658 C 0.69448 0.19866 0.64448 0.0
C659 C 0.70475 0.1842 0.63954 0.0
C660 C 0.70132 0.17878 0.64815 0.0
C661 C 0.70147 0.19425 0.63763 0.0
C662 C 0.69104 0.19321 0.65311 0.0
C663 C 0.69145 0.17743 0.66426 0.0
O664 O 0.6817 0.17269 0.69393 0.0
O665 O 0.67196 0.16268 0.68447 0.0
O666 O 0.68288 0.1721 0.66356 0.0
O667 O 0.69247 0.18221 0.67304 0.0
H668 H 0.68328 0.14708 0.68138 0.0
H669 H 0.69276 0.13211 0.68724 0.0
H670 H 0.69503 0.14509 0.71752 0.0
H671 H 0.68555 0.16006 0.71163 0.0
H672 H 0.64418 0.19543 0.70805 0.0
H673 H 0.65941 0.18996 0.69866 0.0
H674 H 0.63015 0.20491 0.67956 0.0
H675 H 0.6453 0.19938 0.67026 0.0
H676 H 0.69185 0.2064 0.64329 0.0
H677 H 0.70996 0.18047 0.63436 0.0
H678 H 0.70406 0.17109 0.64948 0.0
H679 H 0.68578 0.19679 0.65835 0.0
C680 C 0.32103 0.18343 0.65713 0.0
C681 C 0.32437 0.19353 0.65534 0.0
C682 C 0.31473 0.19397 0.6393 0.0
C683 C 0.32122 0.19877 0.64651 0.0
C684 C 0.31149 0.18382 0.64113 0.0
C685 C 0.31461 0.17862 0.64997 0.0
U686 U 0.33852 0.17959 0.68045 0.0
O687 O 0.3346 0.17491 0.69618 0.0
O688 O 0.34475 0.16541 0.68697 0.0
C689 C 0.33953 0.16624 0.6955 0.0
C690 C 0.32413 0.17781 0.66642 0.0
C691 C 0.33372 0.15706 0.69873 0.0
C692 C 0.32178 0.14309 0.69517 0.0
C693 C 0.32718 0.15184 0.69193 0.0
C694 C 0.32932 0.14479 0.71207 0.0
C695 C 0.32278 0.13947 0.70529 0.0
C696 C 0.33474 0.15349 0.70881 0.0
C697 C 0.36084 0.19831 0.68548 0.0
C698 C 0.37599 0.19502 0.69587 0.0
C699 C 0.37169 0.21241 0.69121 0.0
C700 C 0.36305 0.20881 0.6859 0.0
C701 C 0.37835 0.20556 0.69617 0.0
C702 C 0.3673 0.19143 0.6906 0.0
C703 C 0.3519 0.19473 0.67948 0.0
O704 O 0.33296 0.17311 0.66589 0.0
O705 O 0.32282 0.18261 0.67513 0.0
O706 O 0.34294 0.19552 0.68396 0.0
O707 O 0.353 0.18604 0.6746 0.0
H708 H 0.3294 0.19735 0.66077 0.0
H709 H 0.32394 0.20653 0.64527 0.0
H710 H 0.3064 0.17994 0.6358 0.0
H711 H 0.31195 0.17083 0.65123 0.0
H712 H 0.31673 0.13923 0.6898 0.0
H713 H 0.32624 0.15453 0.68412 0.0
H714 H 0.33037 0.14214 0.71987 0.0
H715 H 0.33976 0.15743 0.71416 0.0
H716 H 0.38098 0.18951 0.6995 0.0
H717 H 0.37313 0.22058 0.69143 0.0
H718 H 0.35812 0.21424 0.68206 0.0
H719 H 0.36571 0.18328 0.69042 0.0
C720 C 0.32229 0.83488 0.65572 0.0
C721 C 0.32928 0.82886 0.65034 0.0
C722 C 0.31579 0.82363 0.63836 0.0
C723 C 0.32606 0.82331 0.64172 0.0
C724 C 0.30882 0.82962 0.64385 0.0
C725 C 0.31205 0.83518 0.65243 0.0
U726 U 0.3403 0.84116 0.67838 0.0
O727 O 0.34558 0.85613 0.68408 0.0
O728 O 0.33637 0.84605 0.694 0.0
C729 C 0.34071 0.8551 0.69283 0.0
C730 C 0.32546 0.84101 0.66467 0.0
C731 C 0.33467 0.86395 0.69619 0.0
C732 C 0.32378 0.87858 0.69266 0.0
C733 C 0.32899 0.86992 0.68926 0.0
C734 C 0.32967 0.87527 0.70996 0.0
C735 C 0.32414 0.88144 0.70305 0.0
C736 C 0.33488 0.86665 0.70655 0.0
C737 C 0.36407 0.82443 0.68346 0.0
C738 C 0.37349 0.82203 0.69943 0.0
C739 C 0.38104 0.81689 0.68339 0.0
C740 C 0.37231 0.82024 0.67814 0.0
C741 C 0.38171 0.81761 0.69413 0.0
C742 C 0.36476 0.82542 0.69415 0.0
C743 C 0.35474 0.8273 0.67771 0.0
O744 O 0.32474 0.83639 0.67361 0.0
O745 O 0.33393 0.84646 0.66368 0.0
O746 O 0.35522 0.83596 0.67257 0.0
O747 O 0.34593 0.82586 0.6824 0.0
H748 H 0.33722 0.82848 0.65279 0.0
H749 H 0.3316 0.81869 0.63774 0.0
H750 H 0.3009 0.83016 0.64142 0.0
H751 H 0.30654 0.8398 0.65646 0.0
H752 H 0.31968 0.88318 0.68711 0.0
H753 H 0.32871 0.86796 0.68121 0.0
H754 H 0.32996 0.87709 0.71803 0.0
H755 H 0.33917 0.86213 0.71203 0.0
H756 H 0.37368 0.82264 0.70769 0.0
H757 H 0.38727 0.81374 0.67901 0.0
H758 H 0.37196 0.81945 0.66989 0.0
H759 H 0.3585 0.82865 0.69844 0.0
C760 C 0.65569 0.82222 0.6841 0.0
C761 C 0.65018 0.82902 0.69021 0.0
C762 C 0.63804 0.81539 0.69478 0.0
C763 C 0.64143 0.82564 0.6955 0.0
C764 C 0.64375 0.80859 0.68881 0.0
C765 C 0.65246 0.81198 0.68352 0.0
U766 U 0.67861 0.84026 0.67844 0.0
O767 O 0.69399 0.83653 0.67286 0.0
O768 O 0.68397 0.8463 0.66358 0.0
C769 C 0.69264 0.84129 0.66407 0.0
C770 C 0.66463 0.82562 0.67803 0.0
C771 C 0.69545 0.83558 0.65481 0.0
C772 C 0.69592 0.8199 0.64486 0.0
C773 C 0.69282 0.82521 0.6536 0.0
C774 C 0.70412 0.83532 0.63838 0.0
C775 C 0.70163 0.8249 0.63715 0.0
C776 C 0.70107 0.84059 0.64712 0.0
C777 C 0.68488 0.86293 0.69628 0.0
C778 C 0.69282 0.87952 0.69264 0.0
C779 C 0.69351 0.8725 0.70981 0.0
C780 C 0.68803 0.86384 0.70652 0.0
C781 C 0.6959 0.88048 0.70294 0.0
C782 C 0.6874 0.87081 0.68933 0.0
C783 C 0.67871 0.85388 0.69318 0.0
O784 O 0.66368 0.83436 0.67311 0.0
O785 O 0.67365 0.82456 0.68242 0.0
O786 O 0.68328 0.845 0.69398 0.0
O787 O 0.67317 0.85476 0.68478 0.0
H788 H 0.65256 0.83696 0.69078 0.0
H789 H 0.63719 0.83111 0.69995 0.0
H790 H 0.64152 0.80061 0.68822 0.0
H791 H 0.65664 0.8066 0.67889 0.0
H792 H 0.69378 0.81191 0.64411 0.0
H793 H 0.68843 0.82121 0.65943 0.0
H794 H 0.70862 0.83937 0.63267 0.0
H795 H 0.70319 0.84859 0.64792 0.0
H796 H 0.69464 0.88548 0.68713 0.0
H797 H 0.69565 0.87304 0.71782 0.0
H798 H 0.68614 0.8579 0.71203 0.0
H799 H 0.68513 0.8703 0.68136 0.0
C800 C 0.65667 0.82195 0.33619 0.0
C801 C 0.64943 0.829 0.33255 0.0
C802 C 0.63924 0.81515 0.3251 0.0
C803 C 0.64078 0.82562 0.3271 0.0
C804 C 0.6466 0.80815 0.3286 0.0
C805 C 0.6552 0.81152 0.33412 0.0
U806 U 0.67906 0.8404 0.34151 0.0
O807 O 0.68479 0.84664 0.35612 0.0
O808 O 0.69484 0.83734 0.34656 0.0
C809 C 0.69363 0.84198 0.35538 0.0
C810 C 0.66567 0.82527 0.34228 0.0
C811 C 0.69693 0.83626 0.36455 0.0
C812 C 0.69838 0.82045 0.37432 0.0
C813 C 0.69492 0.82574 0.36564 0.0
C814 C 0.70568 0.83619 0.38101 0.0
C815 C 0.70387 0.8256 0.3821 0.0
C816 C 0.70226 0.84145 0.37232 0.0
C817 C 0.68337 0.86324 0.32341 0.0
C818 C 0.69647 0.87634 0.32615 0.0
C819 C 0.68604 0.87664 0.31074 0.0
C820 C 0.68083 0.86784 0.31405 0.0
C821 C 0.6939 0.88104 0.31676 0.0
C822 C 0.69124 0.86751 0.32945 0.0
C823 C 0.67775 0.85398 0.32668 0.0
O824 O 0.6746 0.82453 0.33773 0.0
O825 O 0.66469 0.8338 0.34746 0.0
O826 O 0.67271 0.85469 0.33534 0.0
O827 O 0.68274 0.84536 0.32581 0.0
H828 H 0.65042 0.83711 0.33395 0.0
H829 H 0.6353 0.8312 0.32441 0.0
H830 H 0.64559 0.80003 0.32726 0.0
H831 H 0.66068 0.80596 0.33686 0.0
H832 H 0.69693 0.8123 0.37485 0.0
H833 H 0.69077 0.8216 0.35974 0.0
H834 H 0.70969 0.84045 0.38691 0.0
H835 H 0.70381 0.84958 0.37164 0.0
H836 H 0.70241 0.87957 0.33101 0.0
H837 H 0.68399 0.87993 0.3034 0.0
H838 H 0.67482 0.8646 0.30927 0.0
H839 H 0.6933 0.86403 0.33671 0.0
C840 C 0.65507 0.183 0.32271 0.0
C841 C 0.6483 0.18724 0.32983 0.0
C842 C 0.63745 0.19361 0.31593 0.0
C843 C 0.63957 0.19249 0.32646 0.0
C844 C 0.6444 0.18952 0.30887 0.0
C845 C 0.65308 0.18426 0.31223 0.0
U846 U 0.6779 0.17691 0.34066 0.0
O847 O 0.68365 0.16198 0.34579 0.0
O848 O 0.69351 0.17212 0.33658 0.0
C849 C 0.69235 0.16305 0.34083 0.0
C850 C 0.66407 0.17699 0.32593 0.0
C851 C 0.6957 0.15422 0.3347 0.0
C852 C 0.69215 0.13859 0.32516 0.0
C853 C 0.68866 0.14723 0.33038 0.0
C854 C 0.70971 0.14398 0.32827 0.0
C855 C 0.70273 0.13679 0.32414 0.0
C856 C 0.70622 0.15256 0.3335 0.0
C857 C 0.68325 0.19368 0.36442 0.0
C858 C 0.69936 0.19635 0.3736 0.0
C859 C 0.68334 0.20106 0.38148 0.0
C860 C 0.67799 0.19768 0.37281 0.0
C861 C 0.69411 0.20057 0.38196 0.0
C862 C 0.69398 0.19292 0.36492 0.0
C863 C 0.67737 0.19078 0.35515 0.0
O864 O 0.67303 0.18165 0.32517 0.0
O865 O 0.66313 0.17153 0.33437 0.0
O866 O 0.67222 0.18209 0.35563 0.0
O867 O 0.68198 0.19224 0.34632 0.0
H868 H 0.64968 0.1864 0.33797 0.0
H869 H 0.63436 0.19546 0.33213 0.0
H870 H 0.64316 0.19039 0.30071 0.0
H871 H 0.65822 0.1811 0.30661 0.0
H872 H 0.68654 0.13321 0.32216 0.0
H873 H 0.68049 0.14834 0.33118 0.0
H874 H 0.71789 0.14298 0.32746 0.0
H875 H 0.71178 0.15787 0.33673 0.0
H876 H 0.70764 0.19592 0.37365 0.0
H877 H 0.679 0.20406 0.38782 0.0
H878 H 0.66971 0.19829 0.3726 0.0
H879 H 0.69822 0.18984 0.35855 0.0
C880 C 0.32113 0.1563 0.33725 0.0
C881 C 0.32823 0.15041 0.33186 0.0
C882 C 0.31449 0.13894 0.32609 0.0
C883 C 0.32494 0.14179 0.32636 0.0
C884 C 0.30743 0.14495 0.33142 0.0
C885 C 0.31072 0.15352 0.33695 0.0
U886 U 0.33937 0.17887 0.34329 0.0
O887 O 0.33565 0.19452 0.34809 0.0
O888 O 0.34472 0.18463 0.35819 0.0
C889 C 0.33995 0.19339 0.35714 0.0
C890 C 0.32436 0.16526 0.34333 0.0
C891 C 0.33383 0.19668 0.36596 0.0
C892 C 0.32137 0.1933 0.37942 0.0
C893 C 0.32689 0.19001 0.37089 0.0
C894 C 0.32954 0.20998 0.37809 0.0
C895 C 0.32263 0.20334 0.38313 0.0
C896 C 0.33507 0.20667 0.3696 0.0
C897 C 0.36312 0.18381 0.32646 0.0
C898 C 0.37309 0.19963 0.32548 0.0
C899 C 0.37974 0.18412 0.31809 0.0
C900 C 0.37093 0.17879 0.32121 0.0
C901 C 0.38092 0.19463 0.32013 0.0
C902 C 0.36429 0.19426 0.32865 0.0
C903 C 0.35377 0.17802 0.32931 0.0
O904 O 0.33281 0.16427 0.34877 0.0
O905 O 0.32374 0.17417 0.33867 0.0
O906 O 0.34502 0.18274 0.3279 0.0
O907 O 0.35418 0.17294 0.33801 0.0
H908 H 0.33631 0.15247 0.33193 0.0
H909 H 0.33057 0.1374 0.32224 0.0
H910 H 0.29935 0.14292 0.3315 0.0
H911 H 0.30513 0.15795 0.34107 0.0
H912 H 0.31604 0.18803 0.38306 0.0
H913 H 0.32579 0.18226 0.36816 0.0
H914 H 0.33083 0.2177 0.38081 0.0
H915 H 0.34041 0.21192 0.36592 0.0
H916 H 0.37381 0.20769 0.32727 0.0
H917 H 0.38553 0.18006 0.31388 0.0
H918 H 0.37016 0.17073 0.31943 0.0
H919 H 0.35837 0.19828 0.33275 0.0
C920 C 0.33455 0.86376 0.32332 0.0
C921 C 0.33272 0.87182 0.33014 0.0
C922 C 0.3236 0.88125 0.3168 0.0
C923 C 0.32733 0.88048 0.32691 0.0
C924 C 0.32527 0.87309 0.31007 0.0
C925 C 0.33072 0.86447 0.31328 0.0
U926 U 0.34127 0.84078 0.34076 0.0
O927 O 0.34655 0.82544 0.33656 0.0
O928 O 0.35641 0.83541 0.34593 0.0
C929 C 0.35556 0.82673 0.34097 0.0
C930 C 0.34083 0.85481 0.32627 0.0
C931 C 0.36459 0.82364 0.33502 0.0
C932 C 0.37407 0.82235 0.31905 0.0
C933 C 0.36554 0.82581 0.32451 0.0
C934 C 0.38084 0.81471 0.33455 0.0
C935 C 0.38178 0.81666 0.32399 0.0
C936 C 0.37234 0.81815 0.33998 0.0
C937 C 0.32453 0.83499 0.36457 0.0
C938 C 0.32121 0.81893 0.37359 0.0
C939 C 0.31787 0.83502 0.38195 0.0
C940 C 0.32123 0.84031 0.37322 0.0
C941 C 0.31767 0.82425 0.38222 0.0
C942 C 0.32461 0.82424 0.36486 0.0
C943 C 0.32735 0.84087 0.35527 0.0
O944 O 0.34643 0.85566 0.33463 0.0
O945 O 0.33639 0.84578 0.32534 0.0
O946 O 0.32602 0.83626 0.34643 0.0
O947 O 0.33593 0.84623 0.35575 0.0
H948 H 0.33555 0.8715 0.33795 0.0
H949 H 0.32607 0.88657 0.33232 0.0
H950 H 0.32261 0.87347 0.30221 0.0
H951 H 0.33208 0.8584 0.30785 0.0
H952 H 0.3745 0.82395 0.31092 0.0
H953 H 0.35965 0.83007 0.32053 0.0
H954 H 0.3867 0.81055 0.33867 0.0
H955 H 0.37179 0.81644 0.34809 0.0
H956 H 0.3211 0.81065 0.37347 0.0
H957 H 0.31542 0.8394 0.38849 0.0
H958 H 0.32113 0.8486 0.37319 0.0
H959 H 0.32713 0.81994 0.35829 0.0
C960 C 0.68181 0.65372 0.19651 0.0
C961 C 0.69211 0.65246 0.19376 0.0
C962 C 0.6928 0.63648 0.20354 0.0
C963 C 0.69756 0.64392 0.19725 0.0
C964 C 0.68242 0.63775 0.20611 0.0
C965 C 0.677 0.64627 0.20264 0.0
U966 U 0.6767 0.67706 0.17904 0.0
O967 O 0.66194 0.68271 0.17311 0.0
O968 O 0.67136 0.69237 0.18322 0.0
C969 C 0.66257 0.69125 0.17836 0.0
C970 C 0.67593 0.66277 0.19328 0.0
C971 C 0.6533 0.69412 0.18405 0.0
C972 C 0.64318 0.69461 0.19966 0.0
C973 C 0.65191 0.69142 0.19438 0.0
C974 C 0.63705 0.70306 0.18431 0.0
C975 C 0.63564 0.7005 0.19469 0.0
C976 C 0.64578 0.69991 0.17906 0.0
C977 C 0.6949 0.68335 0.15653 0.0
C978 C 0.69141 0.69264 0.14069 0.0
C979 C 0.70894 0.69021 0.14627 0.0
C980 C 0.70543 0.68491 0.15493 0.0
C981 C 0.702 0.69404 0.13895 0.0
C982 C 0.6879 0.68737 0.14939 0.0
C983 C 0.69153 0.6772 0.16546 0.0
O984 O 0.68046 0.6717 0.19459 0.0
O985 O 0.67108 0.66203 0.18447 0.0
O986 O 0.68297 0.67188 0.16438 0.0
O987 O 0.69237 0.68162 0.17444 0.0
H988 H 0.69596 0.65812 0.18901 0.0
H989 H 0.70556 0.64325 0.19518 0.0
H990 H 0.67842 0.63211 0.21075 0.0
H991 H 0.66904 0.64708 0.20479 0.0
H992 H 0.64229 0.69241 0.20762 0.0
H993 H 0.65761 0.68691 0.19837 0.0
H994 H 0.6315 0.7077 0.18026 0.0
H995 H 0.64672 0.7021 0.17111 0.0
H996 H 0.68583 0.69541 0.1352 0.0
H997 H 0.71713 0.6913 0.14533 0.0
H998 H 0.71097 0.68192 0.16035 0.0
H999 H 0.67972 0.68629 0.15046 0.0
C1000 C 0.32094 0.68544 0.15785 0.0
C1001 C 0.32813 0.68856 0.15044 0.0
C1002 C 0.31461 0.69653 0.14033 0.0
C1003 C 0.32498 0.69401 0.14174 0.0
C1004 C 0.30747 0.69353 0.14784 0.0
C1005 C 0.31061 0.68801 0.15648 0.0
U1006 U 0.33853 0.67988 0.18084 0.0
O1007 O 0.3345 0.67488 0.19647 0.0
O1008 O 0.34417 0.66525 0.18687 0.0
C1009 C 0.33904 0.66603 0.19547 0.0
C1010 C 0.32394 0.67935 0.16692 0.0
C1011 C 0.33297 0.65697 0.19862 0.0
C1012 C 0.32243 0.64202 0.19465 0.0
C1013 C 0.32791 0.65073 0.19143 0.0
C1014 C 0.32683 0.64582 0.21227 0.0
C1015 C 0.32185 0.63945 0.20511 0.0
C1016 C 0.33235 0.65448 0.20905 0.0
C1017 C 0.36166 0.6976 0.18637 0.0
C1018 C 0.3786 0.6943 0.19352 0.0
C1019 C 0.37098 0.71096 0.19555 0.0
C1020 C 0.3623 0.70762 0.19014 0.0
C1021 C 0.37927 0.70437 0.19723 0.0
C1022 C 0.36987 0.69093 0.18818 0.0
C1023 C 0.35255 0.69445 0.18031 0.0
O1024 O 0.33246 0.67412 0.16621 0.0
O1025 O 0.32291 0.68388 0.17581 0.0
O1026 O 0.34364 0.69549 0.18483 0.0
O1027 O 0.35323 0.68591 0.17509 0.0
H1028 H 0.33617 0.68675 0.15133 0.0
H1029 H 0.33068 0.69631 0.13615 0.0
H1030 H 0.29942 0.69526 0.14693 0.0
H1031 H 0.30493 0.68567 0.16208 0.0
H1032 H 0.31859 0.63733 0.18896 0.0
H1033 H 0.32822 0.65256 0.18334 0.0
H1034 H 0.32664 0.644 0.22037 0.0
H1035 H 0.33621 0.65919 0.21471 0.0
H1036 H 0.38481 0.68901 0.19478 0.0
H1037 H 0.3713 0.71879 0.19821 0.0
H1038 H 0.3561 0.71292 0.1888 0.0
H1039 H 0.3696 0.68314 0.1854 0.0
C1040 C 0.32235 0.33434 0.15604 0.0
C1041 C 0.32939 0.32834 0.15071 0.0
C1042 C 0.31599 0.32313 0.1386 0.0
C1043 C 0.32624 0.32281 0.14204 0.0
C1044 C 0.30898 0.3291 0.14406 0.0
C1045 C 0.31214 0.33464 0.15267 0.0
U1046 U 0.3398 0.3403 0.17925 0.0
O1047 O 0.34524 0.35517 0.18507 0.0
O1048 O 0.33545 0.34535 0.1947 0.0
C1049 C 0.34004 0.35429 0.19365 0.0
C1050 C 0.32543 0.34045 0.16505 0.0
C1051 C 0.3341 0.36329 0.19684 0.0
C1052 C 0.32458 0.3788 0.19306 0.0
C1053 C 0.3297 0.37006 0.18971 0.0
C1054 C 0.32798 0.37398 0.21066 0.0
C1055 C 0.32374 0.38094 0.20359 0.0
C1056 C 0.3331 0.36529 0.20732 0.0
C1057 C 0.36274 0.32284 0.18542 0.0
C1058 C 0.37745 0.32678 0.19633 0.0
C1059 C 0.374 0.30928 0.19128 0.0
C1060 C 0.3654 0.31248 0.18575 0.0
C1061 C 0.38018 0.31639 0.19661 0.0
C1062 C 0.36879 0.32998 0.19082 0.0
C1063 C 0.35377 0.32595 0.17925 0.0
O1064 O 0.32427 0.33595 0.17399 0.0
O1065 O 0.3341 0.34564 0.16429 0.0
O1066 O 0.35469 0.33456 0.17407 0.0
O1067 O 0.34478 0.32482 0.18365 0.0
H1068 H 0.3373 0.32795 0.15322 0.0
H1069 H 0.33181 0.31821 0.13809 0.0
H1070 H 0.30107 0.32965 0.14156 0.0
H1071 H 0.30659 0.33924 0.15666 0.0
H1072 H 0.32148 0.384 0.18739 0.0
H1073 H 0.33034 0.36867 0.18158 0.0
H1074 H 0.32732 0.37524 0.21882 0.0
H1075 H 0.33639 0.36015 0.21295 0.0
H1076 H 0.38196 0.33244 0.20044 0.0
H1077 H 0.37593 0.30125 0.1912 0.0
H1078 H 0.36085 0.30686 0.18162 0.0
H1079 H 0.36685 0.33801 0.19073 0.0
C1080 C 0.65545 0.32157 0.18421 0.0
C1081 C 0.65 0.32835 0.19039 0.0
C1082 C 0.63777 0.31476 0.19487 0.0
C1083 C 0.64123 0.32498 0.19567 0.0
C1084 C 0.64341 0.30798 0.18881 0.0
C1085 C 0.65213 0.31136 0.18353 0.0
U1086 U 0.67837 0.33964 0.17893 0.0
O1087 O 0.69385 0.33602 0.17353 0.0
O1088 O 0.68392 0.34584 0.16421 0.0
C1089 C 0.6926 0.34085 0.16477 0.0
C1090 C 0.66443 0.32496 0.17821 0.0
C1091 C 0.69551 0.3352 0.15551 0.0
C1092 C 0.69575 0.31967 0.14532 0.0
C1093 C 0.69261 0.32492 0.15407 0.0
C1094 C 0.70454 0.33494 0.13927 0.0
C1095 C 0.70177 0.32462 0.13781 0.0
C1096 C 0.70145 0.34016 0.14803 0.0
C1097 C 0.68403 0.36212 0.19719 0.0
C1098 C 0.69416 0.37748 0.19361 0.0
C1099 C 0.68977 0.3731 0.2111 0.0
C1100 C 0.68456 0.36436 0.20766 0.0
C1101 C 0.69455 0.37986 0.20412 0.0
C1102 C 0.68896 0.36869 0.19018 0.0
C1103 C 0.67808 0.35306 0.19383 0.0
O1104 O 0.66354 0.33372 0.17332 0.0
O1105 O 0.67341 0.32389 0.18269 0.0
O1106 O 0.68276 0.34424 0.19458 0.0
O1107 O 0.67277 0.35406 0.1853 0.0
H1108 H 0.65245 0.33627 0.19104 0.0
H1109 H 0.63705 0.33045 0.20018 0.0
H1110 H 0.64112 0.30003 0.18816 0.0
H1111 H 0.65627 0.30599 0.17884 0.0
H1112 H 0.69338 0.31176 0.14439 0.0
H1113 H 0.68798 0.32096 0.15974 0.0
H1114 H 0.70927 0.33895 0.13372 0.0
H1115 H 0.70377 0.34808 0.149 0.0
H1116 H 0.69766 0.38254 0.188 0.0
H1117 H 0.69007 0.37455 0.21925 0.0
H1118 H 0.68086 0.35936 0.2132 0.0
H1119 H 0.68868 0.36709 0.18205 0.0
C1120 C 0.65563 0.32205 0.83656 0.0
C1121 C 0.65444 0.32465 0.82618 0.0
C1122 C 0.63779 0.31596 0.82576 0.0
C1123 C 0.64561 0.32159 0.82081 0.0
C1124 C 0.639 0.31348 0.83619 0.0
C1125 C 0.64784 0.31649 0.84152 0.0
U1126 U 0.67929 0.33915 0.84106 0.0
O1127 O 0.6858 0.34509 0.85543 0.0
O1128 O 0.69491 0.3349 0.84586 0.0
C1129 C 0.69419 0.33966 0.85466 0.0
C1130 C 0.66493 0.32496 0.84234 0.0
C1131 C 0.69729 0.33373 0.86381 0.0
C1132 C 0.69363 0.32608 0.88045 0.0
C1133 C 0.69034 0.33132 0.87168 0.0
C1134 C 0.71079 0.32533 0.87352 0.0
C1135 C 0.70391 0.32306 0.88149 0.0
C1136 C 0.70752 0.33064 0.86479 0.0
C1137 C 0.68495 0.36167 0.82293 0.0
C1138 C 0.69574 0.37649 0.82674 0.0
C1139 C 0.69088 0.37285 0.8092 0.0
C1140 C 0.68536 0.36422 0.8125 0.0
C1141 C 0.69606 0.37914 0.81628 0.0
C1142 C 0.69027 0.3678 0.83003 0.0
C1143 C 0.67876 0.35275 0.82622 0.0
O1144 O 0.67369 0.32362 0.83762 0.0
O1145 O 0.66451 0.33369 0.84725 0.0
O1146 O 0.67377 0.35375 0.83488 0.0
O1147 O 0.68312 0.3438 0.82527 0.0
H1148 H 0.66034 0.32901 0.82223 0.0
H1149 H 0.64485 0.32371 0.81282 0.0
H1150 H 0.63319 0.30905 0.84019 0.0
H1151 H 0.64863 0.31441 0.84953 0.0
H1152 H 0.68812 0.32434 0.88641 0.0
H1153 H 0.68238 0.33354 0.8711 0.0
H1154 H 0.71878 0.32321 0.87413 0.0
H1155 H 0.71302 0.33244 0.85884 0.0
H1156 H 0.69976 0.38111 0.83237 0.0
H1157 H 0.69088 0.37473 0.80111 0.0
H1158 H 0.6813 0.35959 0.80691 0.0
H1159 H 0.69013 0.36593 0.83812 0.0
C1160 C 0.65461 0.68322 0.82323 0.0
C1161 C 0.64684 0.6857 0.83019 0.0
C1162 C 0.63717 0.69425 0.81665 0.0
C1163 C 0.6382 0.69112 0.82693 0.0
C1164 C 0.64505 0.69192 0.80975 0.0
C1165 C 0.65365 0.68644 0.813 0.0
U1166 U 0.67782 0.67704 0.84055 0.0
O1167 O 0.68324 0.66213 0.84624 0.0
O1168 O 0.69313 0.67159 0.83637 0.0
C1169 C 0.69187 0.66276 0.8411 0.0
C1170 C 0.66355 0.67697 0.82627 0.0
C1171 C 0.69477 0.65357 0.83533 0.0
C1172 C 0.69539 0.64364 0.81962 0.0
C1173 C 0.69207 0.65226 0.82499 0.0
C1174 C 0.70393 0.63749 0.83491 0.0
C1175 C 0.70146 0.63619 0.82449 0.0
C1176 C 0.70063 0.64608 0.84025 0.0
C1177 C 0.68416 0.69493 0.8633 0.0
C1178 C 0.69454 0.69128 0.87842 0.0
C1179 C 0.69 0.70875 0.87435 0.0
C1180 C 0.68468 0.70536 0.86567 0.0
C1181 C 0.69491 0.70176 0.88092 0.0
C1182 C 0.68921 0.6879 0.86968 0.0
C1183 C 0.67805 0.69165 0.85432 0.0
O1184 O 0.67263 0.68125 0.82501 0.0
O1185 O 0.66277 0.67176 0.83489 0.0
O1186 O 0.67269 0.68312 0.85532 0.0
O1187 O 0.68258 0.69252 0.84539 0.0
H1188 H 0.64738 0.68337 0.83815 0.0
H1189 H 0.63233 0.69289 0.83246 0.0
H1190 H 0.64446 0.6941 0.80176 0.0
H1191 H 0.65949 0.68458 0.80747 0.0
H1192 H 0.6934 0.64295 0.81159 0.0
H1193 H 0.68753 0.65795 0.82104 0.0
H1194 H 0.70841 0.63183 0.83899 0.0
H1195 H 0.70275 0.64692 0.84824 0.0
H1196 H 0.69816 0.68567 0.88333 0.0
H1197 H 0.69028 0.71688 0.8759 0.0
H1198 H 0.68088 0.71092 0.86082 0.0
H1199 H 0.68894 0.6798 0.86799 0.0
C1200 C 0.3216 0.65575 0.83622 0.0
C1201 C 0.32865 0.65001 0.8306 0.0
C1202 C 0.3149 0.63851 0.82489 0.0
C1203 C 0.32533 0.64144 0.82502 0.0
C1204 C 0.30787 0.6444 0.8304 0.0
C1205 C 0.3112 0.65291 0.83601 0.0
U1206 U 0.33949 0.67856 0.84244 0.0
O1207 O 0.33572 0.69379 0.84827 0.0
O1208 O 0.3455 0.68365 0.85741 0.0
C1209 C 0.34046 0.69229 0.85705 0.0
C1210 C 0.32489 0.66453 0.84254 0.0
C1211 C 0.33484 0.69509 0.86641 0.0
C1212 C 0.31901 0.69858 0.87553 0.0
C1213 C 0.32407 0.69521 0.86674 0.0
C1214 C 0.3354 0.70144 0.88388 0.0
C1215 C 0.32462 0.70185 0.88418 0.0
C1216 C 0.34043 0.69813 0.87509 0.0
C1217 C 0.3622 0.68521 0.8247 0.0
C1218 C 0.37871 0.69329 0.82848 0.0
C1219 C 0.37182 0.69393 0.81125 0.0
C1220 C 0.36317 0.68838 0.81446 0.0
C1221 C 0.37974 0.69639 0.81819 0.0
C1222 C 0.37001 0.68779 0.83171 0.0
C1223 C 0.35315 0.67897 0.82771 0.0
O1224 O 0.33362 0.66354 0.8475 0.0
O1225 O 0.32377 0.67362 0.83836 0.0
O1226 O 0.34423 0.6835 0.82699 0.0
O1227 O 0.35407 0.67331 0.83602 0.0
H1228 H 0.33671 0.65209 0.8306 0.0
H1229 H 0.33092 0.63715 0.82077 0.0
H1230 H 0.29982 0.6423 0.83058 0.0
H1231 H 0.30564 0.65722 0.84031 0.0
H1232 H 0.31072 0.69886 0.87544 0.0
H1233 H 0.31956 0.69288 0.86015 0.0
H1234 H 0.33998 0.7037 0.89044 0.0
H1235 H 0.34874 0.69806 0.87503 0.0
H1236 H 0.38462 0.69515 0.83404 0.0
H1237 H 0.37242 0.69609 0.80325 0.0
H1238 H 0.35728 0.68645 0.80891 0.0
H1239 H 0.36945 0.6855 0.83967 0.0
C1240 C 0.33584 0.36437 0.82393 0.0
C1241 C 0.32524 0.36503 0.82562 0.0
C1242 C 0.32501 0.38202 0.81773 0.0
C1243 C 0.31987 0.37376 0.82252 0.0
C1244 C 0.33566 0.38134 0.81619 0.0
C1245 C 0.34099 0.37261 0.81925 0.0
U1246 U 0.34113 0.34031 0.84039 0.0
O1247 O 0.34636 0.32516 0.83554 0.0
O1248 O 0.35597 0.33441 0.84586 0.0
C1249 C 0.35523 0.32609 0.84029 0.0
C1250 C 0.3417 0.35515 0.82671 0.0
C1251 C 0.36444 0.32338 0.83438 0.0
C1252 C 0.37388 0.32225 0.81837 0.0
C1253 C 0.36521 0.32534 0.82382 0.0
C1254 C 0.38121 0.31541 0.834 0.0
C1255 C 0.38199 0.31722 0.8234 0.0
C1256 C 0.37253 0.31845 0.83941 0.0
C1257 C 0.3233 0.33331 0.863 0.0
C1258 C 0.32709 0.32263 0.87786 0.0
C1259 C 0.3095 0.32691 0.87385 0.0
C1260 C 0.31283 0.33253 0.86533 0.0
C1261 C 0.31658 0.32194 0.88028 0.0
C1262 C 0.33041 0.32824 0.86928 0.0
C1263 C 0.32654 0.33975 0.85423 0.0
O1264 O 0.34674 0.35552 0.83544 0.0
O1265 O 0.33712 0.34628 0.82512 0.0
O1266 O 0.32554 0.33563 0.84512 0.0
O1267 O 0.33516 0.34496 0.85536 0.0
H1268 H 0.32111 0.35878 0.82927 0.0
H1269 H 0.3117 0.37408 0.82393 0.0
H1270 H 0.33985 0.38746 0.81241 0.0
H1271 H 0.34916 0.37224 0.81784 0.0
H1272 H 0.37428 0.32387 0.81024 0.0
H1273 H 0.35908 0.32918 0.81977 0.0
H1274 H 0.38722 0.31145 0.83811 0.0
H1275 H 0.37209 0.31683 0.84754 0.0
H1276 H 0.33274 0.31881 0.88257 0.0
H1277 H 0.30138 0.32666 0.87555 0.0
H1278 H 0.30721 0.33642 0.86062 0.0
H1279 H 0.33854 0.32868 0.86761 0.0
H1280 H 0.23524 0.25453 0.99428 0.0
H1281 H 0.22789 0.24715 0.97871 0.0
H1282 H 0.25815 0.23829 0.96905 0.0
H1283 H 0.26539 0.2453 0.98485 0.0
H1284 H 0.24489 0.24618 0.00984 0.0
H1285 H 0.25345 0.27158 0.98466 0.0
H1286 H 0.26059 0.27871 0.96885 0.0
H1287 H 0.29086 0.26947 0.97844 0.0
H1288 H 0.28367 0.26233 0.99423 0.0
H1289 H 0.28365 0.26157 0.02558 0.0
H1290 H 0.291 0.26865 0.04131 0.0
H1291 H 0.26108 0.27945 0.04997 0.0
H1292 H 0.25378 0.2722 0.03432 0.0
H1293 H 0.2741 0.27082 0.00969 0.0
H1294 H 0.26523 0.24422 0.03408 0.0
H1295 H 0.25801 0.23696 0.04984 0.0
H1296 H 0.22833 0.24892 0.04167 0.0
H1297 H 0.2356 0.2562 0.02592 0.0
C1298 C 0.25089 0.25059 0.99073 0.0
C1299 C 0.24029 0.25096 0.98883 0.0
C1300 C 0.23611 0.24682 0.97986 0.0
C1301 C 0.24242 0.24215 0.97256 0.0
C1302 C 0.25303 0.24173 0.97452 0.0
C1303 C 0.25721 0.24585 0.98351 0.0
C1304 C 0.25529 0.25495 1.00035 0.0
C1305 C 0.25118 0.25168 0.00979 0.0
C1306 C 0.26366 0.26198 1.00031 0.0
C1307 C 0.26799 0.26629 0.99062 0.0
C1308 C 0.26161 0.27098 0.98332 0.0
C1309 C 0.26571 0.27506 0.97426 0.0
C1310 C 0.27631 0.27465 0.97234 0.0
C1311 C 0.28269 0.27003 0.97971 0.0
C1312 C 0.27858 0.26591 0.98874 0.0
C1313 C 0.26814 0.26625 0.02879 0.0
C1314 C 0.27867 0.26545 0.03088 0.0
C1315 C 0.28287 0.26956 0.03987 0.0
C1316 C 0.27665 0.27463 0.04696 0.0
C1317 C 0.26609 0.27544 0.04481 0.0
C1318 C 0.2619 0.27131 0.03583 0.0
C1319 C 0.26372 0.26201 0.01913 0.0
C1320 C 0.26781 0.26531 0.00971 0.0
C1321 C 0.25531 0.25505 0.01916 0.0
C1322 C 0.25097 0.25081 0.02884 0.0
C1323 C 0.25718 0.24533 0.03571 0.0
C1324 C 0.25303 0.24113 0.04468 0.0
C1325 C 0.24259 0.24236 0.04701 0.0
C1326 C 0.23641 0.24792 0.04015 0.0
C1327 C 0.24054 0.25203 0.03112 0.0
H1328 H 0.76111 0.2357 0.99475 0.0
H1329 H 0.76843 0.22853 0.97912 0.0
H1330 H 0.78185 0.25798 0.97173 0.0
H1331 H 0.7745 0.26512 0.98735 0.0
H1332 H 0.77122 0.2448 0.01129 0.0
H1333 H 0.74673 0.25365 0.98551 0.0
H1334 H 0.74013 0.26106 0.9696 0.0
H1335 H 0.7494 0.29114 0.97986 0.0
H1336 H 0.75619 0.28367 0.99568 0.0
H1337 H 0.75644 0.28339 0.02653 0.0
H1338 H 0.7493 0.29073 0.04208 0.0
H1339 H 0.73771 0.2609 0.05098 0.0
H1340 H 0.745 0.2536 0.03548 0.0
H1341 H 0.74723 0.27396 0.01071 0.0
H1342 H 0.77219 0.26516 0.03621 0.0
H1343 H 0.77876 0.25785 0.05217 0.0
H1344 H 0.76891 0.22779 0.0423 0.0
H1345 H 0.76198 0.23521 0.02656 0.0
C1346 C 0.76722 0.25095 0.99219 0.0
C1347 C 0.76563 0.24061 0.98975 0.0
C1348 C 0.76975 0.23654 0.9808 0.0
C1349 C 0.7757 0.24269 0.9742 0.0
C1350 C 0.77735 0.25304 0.9767 0.0
C1351 C 0.77311 0.25714 0.98559 0.0
C1352 C 0.76282 0.25525 1.00171 0.0
C1353 C 0.76586 0.25109 0.01117 0.0
C1354 C 0.75603 0.26362 1.00152 0.0
C1355 C 0.75211 0.26807 0.99176 0.0
C1356 C 0.74751 0.26182 0.98428 0.0
C1357 C 0.74371 0.26607 0.97519 0.0
C1358 C 0.74425 0.27668 0.97347 0.0
C1359 C 0.74878 0.28294 0.981 0.0
C1360 C 0.75268 0.27868 0.99004 0.0
C1361 C 0.75134 0.26792 0.02985 0.0
C1362 C 0.75235 0.27843 0.03183 0.0
C1363 C 0.74822 0.28263 0.04072 0.0
C1364 C 0.7429 0.27642 0.04782 0.0
C1365 C 0.74189 0.26589 0.04579 0.0
C1366 C 0.74604 0.2617 0.03691 0.0
C1367 C 0.75566 0.26354 0.02032 0.0
C1368 C 0.7526 0.26768 0.01084 0.0
C1369 C 0.76246 0.25517 0.02049 0.0
C1370 C 0.76646 0.25076 0.03023 0.0
C1371 C 0.77132 0.25701 0.03755 0.0
C1372 C 0.77518 0.2528 0.04663 0.0
C1373 C 0.77436 0.24222 0.04855 0.0
C1374 C 0.76954 0.23598 0.04117 0.0
C1375 C 0.76565 0.2402 0.03211 0.0
H1376 H 0.76365 0.7825 0.02481 0.0
H1377 H 0.77087 0.79003 0.04038 0.0
H1378 H 0.77915 0.75996 0.05121 0.0
H1379 H 0.77204 0.75246 0.03554 0.0
H1380 H 0.77207 0.77255 0.00992 0.0
H1381 H 0.74618 0.76432 0.03486 0.0
H1382 H 0.73914 0.75717 0.05069 0.0
H1383 H 0.74773 0.72691 0.04102 0.0
H1384 H 0.75516 0.73417 0.02543 0.0
H1385 H 0.7556 0.73409 0.99444 0.0
H1386 H 0.74825 0.72694 0.97872 0.0
H1387 H 0.73942 0.75725 0.96902 0.0
H1388 H 0.74643 0.76428 0.9849 0.0
H1389 H 0.74684 0.74388 0.0099 0.0
H1390 H 0.77364 0.75219 0.98566 0.0
H1391 H 0.78112 0.75932 0.97001 0.0
H1392 H 0.7698 0.78917 0.97806 0.0
H1393 H 0.76262 0.78201 0.99381 0.0
C1394 C 0.76718 0.76688 0.029 0.0
C1395 C 0.76704 0.77751 0.03052 0.0
C1396 C 0.7712 0.78182 0.03942 0.0
C1397 C 0.77558 0.7756 0.04705 0.0
C1398 C 0.7757 0.76495 0.04555 0.0
C1399 C 0.77162 0.76065 0.03659 0.0
C1400 C 0.76295 0.7624 0.01936 0.0
C1401 C 0.76644 0.76637 0.00994 0.0
C1402 C 0.75578 0.75414 0.01935 0.0
C1403 C 0.75135 0.74982 0.02898 0.0
C1404 C 0.74666 0.75616 0.0362 0.0
C1405 C 0.74252 0.75203 0.04522 0.0
C1406 C 0.74287 0.74144 0.04719 0.0
C1407 C 0.74747 0.73511 0.03988 0.0
C1408 C 0.75164 0.73925 0.03089 0.0
C1409 C 0.75167 0.74974 0.99084 0.0
C1410 C 0.75206 0.73919 0.98893 0.0
C1411 C 0.74793 0.73512 0.97989 0.0
C1412 C 0.74325 0.74151 0.97257 0.0
C1413 C 0.74286 0.75208 0.97452 0.0
C1414 C 0.74698 0.75613 0.98356 0.0
C1415 C 0.75597 0.75404 1.00052 0.0
C1416 C 0.75248 0.75005 0.00993 0.0
C1417 C 0.76313 0.76227 1.00054 0.0
C1418 C 0.76753 0.76655 0.99091 0.0
C1419 C 0.77274 0.76027 0.98402 0.0
C1420 C 0.77698 0.76436 0.97504 0.0
C1421 C 0.7761 0.77485 0.97271 0.0
C1422 C 0.77082 0.7811 0.97964 0.0
C1423 C 0.76665 0.77701 0.98864 0.0
H1424 H 0.26338 0.73583 0.99552 0.0
H1425 H 0.27104 0.72873 0.9801 0.0
H1426 H 0.28003 0.75917 0.97039 0.0
H1427 H 0.27266 0.76617 0.986 0.0
H1428 H 0.27196 0.74591 0.01105 0.0
H1429 H 0.24634 0.75337 0.98554 0.0
H1430 H 0.23954 0.76042 0.96956 0.0
H1431 H 0.24799 0.79085 0.97954 0.0
H1432 H 0.25515 0.7837 0.9953 0.0
H1433 H 0.25502 0.78371 0.026 0.0
H1434 H 0.24769 0.79085 0.04154 0.0
H1435 H 0.23817 0.76053 0.05115 0.0
H1436 H 0.24559 0.75344 0.0356 0.0
H1437 H 0.24635 0.77365 0.0105 0.0
H1438 H 0.27157 0.76635 0.03617 0.0
H1439 H 0.27861 0.75938 0.05211 0.0
H1440 H 0.27104 0.72882 0.04198 0.0
H1441 H 0.26379 0.73582 0.02616 0.0
C1442 C 0.26735 0.75155 0.99191 0.0
C1443 C 0.26701 0.74097 0.99008 0.0
C1444 C 0.27132 0.73694 0.9812 0.0
C1445 C 0.27613 0.74338 0.97396 0.0
C1446 C 0.27648 0.75397 0.97583 0.0
C1447 C 0.27217 0.758 0.98472 0.0
C1448 C 0.26287 0.75576 1.00146 0.0
C1449 C 0.26624 0.75187 0.01094 0.0
C1450 C 0.25561 0.76375 1.0013 0.0
C1451 C 0.25139 0.76799 0.99158 0.0
C1452 C 0.24684 0.76155 0.98423 0.0
C1453 C 0.24284 0.76561 0.97514 0.0
C1454 C 0.24323 0.77621 0.97323 0.0
C1455 C 0.2477 0.78264 0.98066 0.0
C1456 C 0.25172 0.77857 0.98973 0.0
C1457 C 0.25095 0.76802 0.02964 0.0
C1458 C 0.25134 0.7786 0.03144 0.0
C1459 C 0.2471 0.78268 0.04033 0.0
C1460 C 0.24232 0.77628 0.04762 0.0
C1461 C 0.24192 0.76568 0.04579 0.0
C1462 C 0.24615 0.7616 0.03688 0.0
C1463 C 0.25541 0.76378 0.0201 0.0
C1464 C 0.25205 0.76767 0.01063 0.0
C1465 C 0.26269 0.7558 0.02027 0.0
C1466 C 0.26699 0.75163 0.02999 0.0
C1467 C 0.27127 0.75816 0.03743 0.0
C1468 C 0.27533 0.75417 0.04653 0.0
C1469 C 0.27537 0.74356 0.0483 0.0
C1470 C 0.2712 0.73703 0.0408 0.0
C1471 C 0.26704 0.74102 0.03176 0.0
H1472 H 0.02495 0.2563 0.23589 0.0
H1473 H 0.04042 0.249 0.22856 0.0
H1474 H 0.04971 0.23857 0.25861 0.0
H1475 H 0.03424 0.24597 0.2659 0.0
H1476 H 0.00923 0.24742 0.2456 0.0
H1477 H 0.03512 0.2724 0.25399 0.0
H1478 H 0.0512 0.27886 0.26128 0.0
H1479 H 0.04072 0.27029 0.29152 0.0
H1480 H 0.02491 0.26337 0.28411 0.0
H1481 H 0.99425 0.26364 0.28401 0.0
H1482 H 0.97868 0.27087 0.29122 0.0
H1483 H 0.96914 0.28044 0.26096 0.0
H1484 H 0.98474 0.27319 0.25381 0.0
H1485 H 0.00989 0.27217 0.27424 0.0
H1486 H 0.98474 0.24623 0.26599 0.0
H1487 H 0.96892 0.23896 0.25883 0.0
H1488 H 0.97773 0.24983 0.22878 0.0
H1489 H 0.9936 0.25691 0.23598 0.0
C1490 C 0.02844 0.25177 0.25147 0.0
C1491 C 0.03031 0.25243 0.2409 0.0
C1492 C 0.03916 0.24821 0.23671 0.0
C1493 C 0.04633 0.24316 0.24298 0.0
C1494 C 0.04444 0.24252 0.25357 0.0
C1495 C 0.03558 0.24674 0.25776 0.0
C1496 C 0.0189 0.25615 0.25582 0.0
C1497 C 0.00939 0.25294 0.25178 0.0
C1498 C 0.01908 0.26317 0.26406 0.0
C1499 C 0.02884 0.26724 0.26847 0.0
C1500 C 0.03635 0.27178 0.26217 0.0
C1501 C 0.0455 0.2756 0.26638 0.0
C1502 C 0.0473 0.27509 0.27701 0.0
C1503 C 0.0397 0.27066 0.2833 0.0
C1504 C 0.03059 0.26678 0.27908 0.0
C1505 C 0.99066 0.26776 0.26834 0.0
C1506 C 0.98882 0.26731 0.27893 0.0
C1507 C 0.97991 0.27148 0.28304 0.0
C1508 C 0.97262 0.27624 0.27668 0.0
C1509 C 0.97449 0.2767 0.26607 0.0
C1510 C 0.98342 0.27255 0.26197 0.0
C1511 C 1.00024 0.26341 0.26403 0.0
C1512 C 0.00975 0.26664 0.26807 0.0
C1513 C 1.00007 0.25638 0.25581 0.0
C1514 C 0.99033 0.25217 0.25153 0.0
C1515 C 0.98322 0.24711 0.25787 0.0
C1516 C 0.97415 0.24298 0.25377 0.0
C1517 C 0.97203 0.24379 0.24322 0.0
C1518 C 0.97918 0.2489 0.2369 0.0
C1519 C 0.98824 0.25301 0.24101 0.0
H1520 H 0.76221 0.02554 0.23592 0.0
H1521 H 0.76964 0.04139 0.22897 0.0
H1522 H 0.78085 0.04936 0.2591 0.0
H1523 H 0.77354 0.03344 0.26597 0.0
H1524 H 0.7717 0.00948 0.24526 0.0
H1525 H 0.74652 0.0343 0.25383 0.0
H1526 H 0.73969 0.04996 0.26111 0.0
H1527 H 0.74819 0.03948 0.29139 0.0
H1528 H 0.75546 0.02408 0.284 0.0
H1529 H 0.75774 0.99244 0.28326 0.0
H1530 H 0.75045 0.97656 0.29037 0.0
H1531 H 0.73712 0.96945 0.2609 0.0
H1532 H 0.74449 0.98529 0.2538 0.0
H1533 H 0.74713 0.00882 0.27413 0.0
H1534 H 0.77251 0.98428 0.26568 0.0
H1535 H 0.77952 0.96863 0.25859 0.0
H1536 H 0.77067 0.97852 0.22821 0.0
H1537 H 0.76323 0.99395 0.23543 0.0
C1538 C 0.76726 0.02833 0.25147 0.0
C1539 C 0.76627 0.0307 0.24102 0.0
C1540 C 0.77045 0.0398 0.23708 0.0
C1541 C 0.77582 0.04664 0.24349 0.0
C1542 C 0.77683 0.04421 0.25395 0.0
C1543 C 0.77259 0.03516 0.2579 0.0
C1544 C 0.76289 0.01862 0.25562 0.0
C1545 C 0.76621 0.00933 0.25146 0.0
C1546 C 0.75591 0.01847 0.26391 0.0
C1547 C 0.75167 0.02804 0.26833 0.0
C1548 C 0.74706 0.03544 0.26203 0.0
C1549 C 0.74302 0.04435 0.26623 0.0
C1550 C 0.74338 0.04604 0.27687 0.0
C1551 C 0.74791 0.03856 0.28316 0.0
C1552 C 0.752 0.02968 0.27895 0.0
C1553 C 0.75169 0.99001 0.268 0.0
C1554 C 0.75327 0.98744 0.27833 0.0
C1555 C 0.74916 0.97836 0.28237 0.0
C1556 C 0.74322 0.97179 0.27618 0.0
C1557 C 0.74161 0.9744 0.26585 0.0
C1558 C 0.74585 0.98341 0.26178 0.0
C1559 C 0.75596 0.99971 0.26377 0.0
C1560 C 0.75261 0.00899 0.26791 0.0
C1561 C 0.76291 0.99985 0.25547 0.0
C1562 C 0.76718 0.99026 0.25113 0.0
C1563 C 0.77192 0.98301 0.25751 0.0
C1564 C 0.77606 0.97411 0.25341 0.0
C1565 C 0.77569 0.97227 0.2428 0.0
C1566 C 0.77098 0.97957 0.23642 0.0
C1567 C 0.76679 0.98847 0.24054 0.0
H1568 H 0.02391 0.73521 0.26424 0.0
H1569 H 0.03945 0.72763 0.27135 0.0
H1570 H 0.04972 0.75748 0.28142 0.0
H1571 H 0.03419 0.76502 0.2742 0.0
H1572 H 0.0087 0.74505 0.27323 0.0
H1573 H 0.034 0.75315 0.24793 0.0
H1574 H 0.04982 0.76023 0.24067 0.0
H1575 H 0.04045 0.79059 0.24914 0.0
H1576 H 0.02471 0.78346 0.25655 0.0
H1577 H 0.99346 0.7835 0.25772 0.0
H1578 H 0.97776 0.79078 0.25062 0.0
H1579 H 0.96862 0.76092 0.23956 0.0
H1580 H 0.98422 0.75368 0.24689 0.0
H1581 H 0.00916 0.77382 0.24835 0.0
H1582 H 0.9841 0.76559 0.27402 0.0
H1583 H 0.96832 0.75845 0.28131 0.0
H1584 H 0.97722 0.72828 0.27165 0.0
H1585 H 0.993 0.73548 0.2644 0.0
C1586 C 0.02788 0.75071 0.2686 0.0
C1587 C 0.0295 0.74013 0.26799 0.0
C1588 C 0.03839 0.73579 0.27211 0.0
C1589 C 0.04586 0.74193 0.277 0.0
C1590 C 0.04422 0.75254 0.27759 0.0
C1591 C 0.03532 0.75687 0.27347 0.0
C1592 C 0.01831 0.75521 0.26433 0.0
C1593 C 0.00881 0.75125 0.26768 0.0
C1594 C 0.01845 0.76349 0.25727 0.0
C1595 C 0.02818 0.76774 0.25294 0.0
C1596 C 0.0354 0.76131 0.24838 0.0
C1597 C 0.04445 0.76537 0.24421 0.0
C1598 C 0.04641 0.77598 0.24433 0.0
C1599 C 0.03914 0.7824 0.24882 0.0
C1600 C 0.03014 0.77833 0.25308 0.0
C1601 C 0.99 0.76802 0.25293 0.0
C1602 C 0.98806 0.77852 0.25377 0.0
C1603 C 0.97909 0.78269 0.24965 0.0
C1604 C 0.97187 0.77646 0.24449 0.0
C1605 C 0.97388 0.76594 0.24362 0.0
C1606 C 0.98283 0.76177 0.24779 0.0
C1607 C 0.9996 0.76365 0.25726 0.0
C1608 C 0.00908 0.76763 0.25391 0.0
C1609 C 0.99946 0.75538 0.26431 0.0
C1610 C 0.98972 0.7511 0.26856 0.0
C1611 C 0.98261 0.75746 0.27336 0.0
C1612 C 0.97357 0.75336 0.27753 0.0
C1613 C 0.97148 0.74278 0.27708 0.0
C1614 C 0.97863 0.73644 0.27227 0.0
C1615 C 0.98765 0.74054 0.26808 0.0
H1616 H 0.23509 0.0247 0.25675 0.0
H1617 H 0.2275 0.04018 0.24957 0.0
H1618 H 0.25756 0.05077 0.2402 0.0
H1619 H 0.2651 0.03528 0.24746 0.0
H1620 H 0.2452 0.0097 0.24788 0.0
H1621 H 0.25288 0.03451 0.27387 0.0
H1622 H 0.25978 0.05029 0.28129 0.0
H1623 H 0.29026 0.04176 0.27203 0.0
H1624 H 0.2833 0.02599 0.26463 0.0
H1625 H 0.2838 0.99516 0.26487 0.0
H1626 H 0.29117 0.97955 0.27202 0.0
H1627 H 0.26086 0.96882 0.28032 0.0
H1628 H 0.25354 0.98449 0.27324 0.0
H1629 H 0.27366 0.01016 0.27318 0.0
H1630 H 0.2659 0.98534 0.24705 0.0
H1631 H 0.25888 0.96962 0.23958 0.0
H1632 H 0.22852 0.97819 0.2492 0.0
H1633 H 0.23558 0.9939 0.25659 0.0
C1634 C 0.25068 0.02883 0.25274 0.0
C1635 C 0.24005 0.03035 0.25314 0.0
C1636 C 0.23571 0.03921 0.24899 0.0
C1637 C 0.2419 0.04675 0.24428 0.0
C1638 C 0.25257 0.04521 0.2439 0.0
C1639 C 0.2569 0.03634 0.24804 0.0
C1640 C 0.2552 0.01926 0.25699 0.0
C1641 C 0.25134 0.0098 0.25351 0.0
C1642 C 0.26339 0.01939 0.26416 0.0
C1643 C 0.26754 0.02908 0.26858 0.0
C1644 C 0.26103 0.03609 0.27333 0.0
C1645 C 0.26499 0.04512 0.27757 0.0
C1646 C 0.27558 0.04732 0.27725 0.0
C1647 C 0.28209 0.04027 0.27253 0.0
C1648 C 0.27812 0.03125 0.26826 0.0
C1649 C 0.26808 0.99099 0.26838 0.0
C1650 C 0.27873 0.98947 0.26825 0.0
C1651 C 0.28295 0.98054 0.27237 0.0
C1652 C 0.27661 0.97291 0.27673 0.0
C1653 C 0.26595 0.97446 0.27688 0.0
C1654 C 0.26175 0.98343 0.27283 0.0
C1655 C 0.26366 1.00058 0.26407 0.0
C1656 C 0.26754 0.01005 0.26752 0.0
C1657 C 0.25548 1.00047 0.25687 0.0
C1658 C 0.25129 0.99079 0.25247 0.0
C1659 C 0.25774 0.98379 0.24764 0.0
C1660 C 0.25372 0.97478 0.24337 0.0
C1661 C 0.24312 0.97262 0.24377 0.0
C1662 C 0.23669 0.97966 0.24861 0.0
C1663 C 0.24072 0.98865 0.25288 0.0
H1664 H 0.02417 0.76415 0.78368 0.0
H1665 H 0.03997 0.77145 0.79086 0.0
H1666 H 0.0504 0.77908 0.76041 0.0
H1667 H 0.03447 0.77199 0.75325 0.0
H1668 H 0.00919 0.77229 0.77362 0.0
H1669 H 0.03404 0.74662 0.76596 0.0
H1670 H 0.04977 0.73965 0.75888 0.0
H1671 H 0.03927 0.74732 0.72838 0.0
H1672 H 0.02384 0.75476 0.73556 0.0
H1673 H 0.99282 0.75657 0.73588 0.0
H1674 H 0.97694 0.74946 0.72875 0.0
H1675 H 0.96838 0.73836 0.7588 0.0
H1676 H 0.98419 0.74573 0.7659 0.0
H1677 H 0.00854 0.74682 0.74565 0.0
H1678 H 0.98377 0.77258 0.75348 0.0
H1679 H 0.96821 0.77984 0.76071 0.0
H1680 H 0.97834 0.77113 0.79103 0.0
H1681 H 0.99385 0.76384 0.78376 0.0
C1682 C 0.02814 0.7674 0.76791 0.0
C1683 C 0.02983 0.76743 0.77854 0.0
C1684 C 0.03885 0.77161 0.78264 0.0
C1685 C 0.04642 0.77582 0.77619 0.0
C1686 C 0.04476 0.77578 0.76555 0.0
C1687 C 0.03566 0.7717 0.76146 0.0
C1688 C 0.0184 0.7631 0.76365 0.0
C1689 C 0.00906 0.7666 0.76761 0.0
C1690 C 0.01823 0.75584 0.75561 0.0
C1691 C 0.02778 0.75138 0.75133 0.0
C1692 C 0.03519 0.74693 0.75776 0.0
C1693 C 0.04414 0.74281 0.75367 0.0
C1694 C 0.04586 0.74292 0.74303 0.0
C1695 C 0.03835 0.74725 0.73661 0.0
C1696 C 0.02944 0.75142 0.74071 0.0
C1697 C 0.98966 0.75174 0.75142 0.0
C1698 C 0.98751 0.75261 0.74092 0.0
C1699 C 0.97844 0.74849 0.73686 0.0
C1700 C 0.97136 0.7433 0.74318 0.0
C1701 C 0.97356 0.74244 0.75372 0.0
C1702 C 0.98262 0.74662 0.75779 0.0
C1703 C 0.99939 0.75601 0.75565 0.0
C1704 C 0.00871 0.75249 0.75168 0.0
C1705 C 0.99955 0.76321 0.76371 0.0
C1706 C 0.98997 0.76754 0.76805 0.0
C1707 C 0.98259 0.77211 0.76167 0.0
C1708 C 0.97368 0.77627 0.76582 0.0
C1709 C 0.972 0.77607 0.77646 0.0
C1710 C 0.97943 0.77154 0.78282 0.0
C1711 C 0.9883 0.76733 0.77867 0.0
H1712 H 0.262 0.02524 0.73552 0.0
H1713 H 0.26893 0.0413 0.72862 0.0
H1714 H 0.27997 0.04946 0.75879 0.0
H1715 H 0.27284 0.03349 0.76564 0.0
H1716 H 0.27172 0.00944 0.745 0.0
H1717 H 0.24588 0.03388 0.75345 0.0
H1718 H 0.23858 0.04928 0.7609 0.0
H1719 H 0.24775 0.03899 0.79102 0.0
H1720 H 0.25509 0.02364 0.78354 0.0
H1721 H 0.25531 0.99326 0.78326 0.0
H1722 H 0.24805 0.97747 0.79037 0.0
H1723 H 0.24006 0.96745 0.75983 0.0
H1724 H 0.24683 0.98349 0.75285 0.0
H1725 H 0.2467 0.00835 0.77347 0.0
H1726 H 0.27321 0.98456 0.76537 0.0
H1727 H 0.28057 0.96899 0.75835 0.0
H1728 H 0.27078 0.97812 0.72804 0.0
H1729 H 0.26318 0.99354 0.73516 0.0
C1730 C 0.26681 0.0282 0.75111 0.0
C1731 C 0.26591 0.0305 0.74064 0.0
C1732 C 0.26992 0.03967 0.7367 0.0
C1733 C 0.27501 0.0467 0.74314 0.0
C1734 C 0.27595 0.04433 0.75363 0.0
C1735 C 0.2719 0.03518 0.75756 0.0
C1736 C 0.26261 0.01842 0.75524 0.0
C1737 C 0.26614 0.00919 0.75113 0.0
C1738 C 0.25552 0.01813 0.76344 0.0
C1739 C 0.25115 0.02761 0.7679 0.0
C1740 C 0.24644 0.03499 0.76165 0.0
C1741 C 0.24225 0.0438 0.76592 0.0
C1742 C 0.24257 0.04539 0.77657 0.0
C1743 C 0.24725 0.03796 0.78281 0.0
C1744 C 0.25148 0.02919 0.77853 0.0
C1745 C 0.25172 0.98955 0.76751 0.0
C1746 C 0.25196 0.98767 0.7781 0.0
C1747 C 0.2479 0.97857 0.78215 0.0
C1748 C 0.24349 0.97113 0.77568 0.0
C1749 C 0.24328 0.97303 0.76506 0.0
C1750 C 0.24728 0.98217 0.76104 0.0
C1751 C 0.25586 0.99935 0.76328 0.0
C1752 C 0.25229 0.00859 0.76735 0.0
C1753 C 0.26297 0.99965 0.7551 0.0
C1754 C 0.26754 0.99019 0.75082 0.0
C1755 C 0.27257 0.98317 0.75723 0.0
C1756 C 0.27686 0.97431 0.75318 0.0
C1757 C 0.27627 0.97228 0.74262 0.0
C1758 C 0.27127 0.97936 0.73622 0.0
C1759 C 0.26699 0.98823 0.74027 0.0
H1760 H 0.99375 0.26418 0.7364 0.0
H1761 H 0.97823 0.27172 0.72918 0.0
H1762 H 0.968 0.27915 0.75962 0.0
H1763 H 0.98366 0.27178 0.76681 0.0
H1764 H 0.00903 0.27198 0.74645 0.0
H1765 H 0.9833 0.2466 0.75417 0.0
H1766 H 0.96748 0.23936 0.76134 0.0
H1767 H 0.97813 0.24683 0.79177 0.0
H1768 H 0.99385 0.25423 0.78457 0.0
H1769 H 0.02444 0.25436 0.78441 0.0
H1770 H 0.03997 0.24669 0.79143 0.0
H1771 H 0.04953 0.23884 0.76085 0.0
H1772 H 0.03376 0.24609 0.75394 0.0
H1773 H 0.00881 0.24622 0.77443 0.0
H1774 H 0.03413 0.27236 0.76645 0.0
H1775 H 0.04987 0.27961 0.75913 0.0
H1776 H 0.04002 0.26982 0.72906 0.0
H1777 H 0.02427 0.26274 0.73642 0.0
C1778 C 0.98988 0.26729 0.75217 0.0
C1779 C 0.9882 0.26747 0.74153 0.0
C1780 C 0.97932 0.27179 0.73741 0.0
C1781 C 0.97187 0.27602 0.74382 0.0
C1782 C 0.97353 0.27583 0.75447 0.0
C1783 C 0.98248 0.2716 0.7586 0.0
C1784 C 0.99949 0.26283 0.75646 0.0
C1785 C 0.00895 0.26624 0.75248 0.0
C1786 C 0.99943 0.2555 0.76451 0.0
C1787 C 0.98975 0.25111 0.7688 0.0
C1788 C 0.98218 0.24682 0.76237 0.0
C1789 C 0.97314 0.24266 0.76648 0.0
C1790 C 0.97155 0.24253 0.77713 0.0
C1791 C 0.97917 0.24672 0.78355 0.0
C1792 C 0.98815 0.25097 0.77944 0.0
C1793 C 0.02794 0.25092 0.76862 0.0
C1794 C 0.02987 0.25096 0.77921 0.0
C1795 C 0.03882 0.24664 0.78322 0.0
C1796 C 0.04607 0.24216 0.77672 0.0
C1797 C 0.0441 0.24211 0.76611 0.0
C1798 C 0.03512 0.24639 0.76212 0.0
C1799 C 0.0183 0.25539 0.76444 0.0
C1800 C 0.00885 0.25197 0.76842 0.0
C1801 C 0.01834 0.26268 0.75637 0.0
C1802 C 0.02803 0.26695 0.752 0.0
C1803 C 0.0354 0.27172 0.75829 0.0
C1804 C 0.04442 0.27584 0.75409 0.0
C1805 C 0.04625 0.27532 0.74349 0.0
C1806 C 0.03883 0.27052 0.73722 0.0
C1807 C 0.02982 0.26642 0.74143 0.0
H1808 H 0.73468 0.02412 0.75613 0.0
H1809 H 0.72724 0.03963 0.74884 0.0
H1810 H 0.75755 0.05074 0.74105 0.0
H1811 H 0.76496 0.03516 0.74826 0.0
H1812 H 0.74504 0.00935 0.74786 0.0
H1813 H 0.75227 0.03409 0.77417 0.0
H1814 H 0.75908 0.04993 0.78156 0.0
H1815 H 0.78969 0.04126 0.77285 0.0
H1816 H 0.78279 0.0256 0.76519 0.0
H1817 H 0.78324 0.99483 0.76543 0.0
H1818 H 0.79061 0.97931 0.77271 0.0
H1819 H 0.76021 0.96832 0.78043 0.0
H1820 H 0.75294 0.98408 0.77356 0.0
H1821 H 0.77297 0.00976 0.77373 0.0
H1822 H 0.7656 0.98446 0.7481 0.0
H1823 H 0.75856 0.96864 0.74081 0.0
H1824 H 0.72798 0.9783 0.7484 0.0
H1825 H 0.73505 0.99401 0.75584 0.0
C1826 C 0.75041 0.02848 0.75287 0.0
C1827 C 0.73974 0.02988 0.75283 0.0
C1828 C 0.73548 0.03875 0.74863 0.0
C1829 C 0.74179 0.04645 0.74437 0.0
C1830 C 0.75248 0.04504 0.74441 0.0
C1831 C 0.75673 0.03613 0.74854 0.0
C1832 C 0.75484 0.0189 0.75718 0.0
C1833 C 0.75105 0.00943 0.75363 0.0
C1834 C 0.76289 0.019 0.76452 0.0
C1835 C 0.767 0.02868 0.76901 0.0
C1836 C 0.76044 0.03565 0.77375 0.0
C1837 C 0.76436 0.04467 0.77807 0.0
C1838 C 0.77495 0.0469 0.7778 0.0
C1839 C 0.78149 0.03988 0.77307 0.0
C1840 C 0.77756 0.03087 0.76876 0.0
C1841 C 0.76751 0.99062 0.76882 0.0
C1842 C 0.77816 0.9891 0.76873 0.0
C1843 C 0.78236 0.98015 0.77282 0.0
C1844 C 0.77602 0.97248 0.77711 0.0
C1845 C 0.76535 0.97407 0.77728 0.0
C1846 C 0.76116 0.98305 0.77323 0.0
C1847 C 0.76312 1.0002 0.76445 0.0
C1848 C 0.76695 0.00966 0.76797 0.0
C1849 C 0.75508 1.00008 0.7571 0.0
C1850 C 0.75088 0.99041 0.75266 0.0
C1851 C 0.75739 0.98312 0.74833 0.0
C1852 C 0.75336 0.97408 0.74414 0.0
C1853 C 0.74271 0.97221 0.74403 0.0
C1854 C 0.73621 0.97956 0.74827 0.0
C1855 C 0.74024 0.98854 0.75254 0.0
H1856 H 0.28361 0.76221 0.49436 0.0
H1857 H 0.2908 0.76978 0.47878 0.0
H1858 H 0.26037 0.77836 0.46898 0.0
H1859 H 0.25331 0.77116 0.48477 0.0
H1860 H 0.27394 0.77058 0.50979 0.0
H1861 H 0.26534 0.745 0.48483 0.0
H1862 H 0.25797 0.73769 0.4692 0.0
H1863 H 0.2278 0.74681 0.47889 0.0
H1864 H 0.23522 0.75412 0.49447 0.0
H1865 H 0.23528 0.75494 0.52532 0.0
H1866 H 0.22785 0.74795 0.54105 0.0
H1867 H 0.25782 0.73772 0.55062 0.0
H1868 H 0.2652 0.74485 0.53493 0.0
H1869 H 0.24495 0.74571 0.50992 0.0
H1870 H 0.25351 0.772 0.53427 0.0
H1871 H 0.2607 0.77944 0.54989 0.0
H1872 H 0.29073 0.76877 0.54145 0.0
H1873 H 0.2835 0.76149 0.52576 0.0
C1874 C 0.2679 0.766 0.49073 0.0
C1875 C 0.27849 0.76574 0.48886 0.0
C1876 C 0.28258 0.77 0.47988 0.0
C1877 C 0.27618 0.77467 0.47257 0.0
C1878 C 0.26556 0.77493 0.47447 0.0
C1879 C 0.26148 0.7707 0.48346 0.0
C1880 C 0.2636 0.76164 0.5004 0.0
C1881 C 0.2677 0.76502 0.50981 0.0
C1882 C 0.25528 0.75455 0.50044 0.0
C1883 C 0.25086 0.75021 0.49082 0.0
C1884 C 0.25715 0.74553 0.48354 0.0
C1885 C 0.25292 0.74135 0.47459 0.0
C1886 C 0.24228 0.74165 0.47277 0.0
C1887 C 0.236 0.74632 0.48009 0.0
C1888 C 0.24024 0.75053 0.48901 0.0
C1889 C 0.25082 0.75052 0.52895 0.0
C1890 C 0.24025 0.75119 0.53081 0.0
C1891 C 0.236 0.74715 0.53981 0.0
C1892 C 0.24222 0.74225 0.54715 0.0
C1893 C 0.25281 0.74158 0.54525 0.0
C1894 C 0.25705 0.74564 0.53625 0.0
C1895 C 0.25526 0.75469 0.51927 0.0
C1896 C 0.2512 0.75126 0.50988 0.0
C1897 C 0.26361 0.76172 0.51923 0.0
C1898 C 0.26794 0.7661 0.52886 0.0
C1899 C 0.26163 0.77119 0.53583 0.0
C1900 C 0.26576 0.77542 0.54479 0.0
C1901 C 0.27632 0.77471 0.54699 0.0
C1902 C 0.28261 0.76961 0.53997 0.0
C1903 C 0.27847 0.76539 0.531 0.0
H1904 H 0.76215 0.73549 0.49488 0.0
H1905 H 0.76926 0.72832 0.47921 0.0
H1906 H 0.78023 0.75838 0.4703 0.0
H1907 H 0.77301 0.76549 0.48592 0.0
H1908 H 0.77123 0.74504 0.51069 0.0
H1909 H 0.74588 0.75362 0.4854 0.0
H1910 H 0.73925 0.76087 0.46943 0.0
H1911 H 0.74923 0.79096 0.47908 0.0
H1912 H 0.75618 0.7836 0.49485 0.0
H1913 H 0.75621 0.78362 0.52585 0.0
H1914 H 0.74914 0.79098 0.54142 0.0
H1915 H 0.7382 0.76104 0.55075 0.0
H1916 H 0.74539 0.75373 0.5352 0.0
H1917 H 0.747 0.774 0.51023 0.0
H1918 H 0.77301 0.76551 0.53498 0.0
H1919 H 0.78021 0.75839 0.55076 0.0
H1920 H 0.76857 0.72847 0.54238 0.0
H1921 H 0.76156 0.73564 0.52654 0.0
C1922 C 0.76694 0.75105 0.49155 0.0
C1923 C 0.7661 0.74053 0.48955 0.0
C1924 C 0.7702 0.73644 0.48059 0.0
C1925 C 0.77531 0.74276 0.47346 0.0
C1926 C 0.77619 0.7533 0.47552 0.0
C1927 C 0.77208 0.75738 0.48447 0.0
C1928 C 0.76262 0.75536 0.50112 0.0
C1929 C 0.76581 0.75128 0.51058 0.0
C1930 C 0.75575 0.76367 0.501 0.0
C1931 C 0.75165 0.76805 0.49129 0.0
C1932 C 0.74675 0.76176 0.48403 0.0
C1933 C 0.74285 0.76594 0.47494 0.0
C1934 C 0.74372 0.7765 0.47295 0.0
C1935 C 0.74857 0.78278 0.48028 0.0
C1936 C 0.75247 0.77859 0.48935 0.0
C1937 C 0.75142 0.7681 0.52937 0.0
C1938 C 0.75229 0.77864 0.53125 0.0
C1939 C 0.7482 0.78285 0.54015 0.0
C1940 C 0.74308 0.77661 0.54737 0.0
C1941 C 0.74222 0.76605 0.54546 0.0
C1942 C 0.74632 0.76185 0.53655 0.0
C1943 C 0.75563 0.76371 0.51979 0.0
C1944 C 0.75241 0.76776 0.51033 0.0
C1945 C 0.7625 0.7554 0.51991 0.0
C1946 C 0.76668 0.75112 0.52961 0.0
C1947 C 0.77195 0.75743 0.53659 0.0
C1948 C 0.77604 0.75335 0.54563 0.0
C1949 C 0.77498 0.74284 0.54786 0.0
C1950 C 0.76968 0.73656 0.54085 0.0
C1951 C 0.76562 0.74065 0.5318 0.0
H1952 H 0.76359 0.28288 0.52489 0.0
H1953 H 0.77072 0.29028 0.54056 0.0
H1954 H 0.77967 0.26018 0.55078 0.0
H1955 H 0.77285 0.25288 0.53492 0.0
H1956 H 0.77259 0.27302 0.50968 0.0
H1957 H 0.74548 0.2648 0.53363 0.0
H1958 H 0.73813 0.25781 0.54946 0.0
H1959 H 0.74944 0.22793 0.54173 0.0
H1960 H 0.75684 0.23498 0.52595 0.0
H1961 H 0.75551 0.23452 0.49439 0.0
H1962 H 0.74812 0.22734 0.47875 0.0
H1963 H 0.74051 0.25779 0.46836 0.0
H1964 H 0.74742 0.26483 0.48426 0.0
H1965 H 0.74732 0.24438 0.50959 0.0
H1966 H 0.77355 0.25256 0.48494 0.0
H1967 H 0.78091 0.2597 0.46923 0.0
H1968 H 0.77127 0.28985 0.47821 0.0
H1969 H 0.764 0.28267 0.49393 0.0
C1970 C 0.76757 0.2673 0.52873 0.0
C1971 C 0.76711 0.27787 0.53049 0.0
C1972 C 0.77111 0.28209 0.53951 0.0
C1973 C 0.77575 0.27583 0.54698 0.0
C1974 C 0.77625 0.26524 0.54517 0.0
C1975 C 0.77224 0.26104 0.53614 0.0
C1976 C 0.76341 0.26289 0.51904 0.0
C1977 C 0.76696 0.26685 0.50965 0.0
C1978 C 0.75625 0.25465 0.51901 0.0
C1979 C 0.75178 0.25043 0.52863 0.0
C1980 C 0.74642 0.25676 0.53537 0.0
C1981 C 0.74216 0.25274 0.54438 0.0
C1982 C 0.74322 0.24232 0.54687 0.0
C1983 C 0.74859 0.23601 0.5401 0.0
C1984 C 0.75276 0.24001 0.53104 0.0
C1985 C 0.75215 0.25024 0.4905 0.0
C1986 C 0.75221 0.23965 0.48876 0.0
C1987 C 0.74807 0.23556 0.47974 0.0
C1988 C 0.74374 0.24197 0.47222 0.0
C1989 C 0.74367 0.25258 0.474 0.0
C1990 C 0.74775 0.25665 0.48305 0.0
C1991 C 0.75647 0.25454 0.50019 0.0
C1992 C 0.75296 0.25055 0.50959 0.0
C1993 C 0.76367 0.26276 0.50023 0.0
C1994 C 0.76813 0.26706 0.49061 0.0
C1995 C 0.77295 0.2607 0.48349 0.0
C1996 C 0.77714 0.2648 0.47449 0.0
C1997 C 0.77669 0.27536 0.47242 0.0
C1998 C 0.7719 0.2817 0.4796 0.0
C1999 C 0.7677 0.2776 0.48859 0.0
H2000 H 0.26056 0.23567 0.49503 0.0
H2001 H 0.26755 0.2285 0.47932 0.0
H2002 H 0.28049 0.25811 0.4715 0.0
H2003 H 0.27326 0.26524 0.48708 0.0
H2004 H 0.27023 0.24464 0.51132 0.0
H2005 H 0.24477 0.25417 0.48656 0.0
H2006 H 0.23811 0.2615 0.47062 0.0
H2007 H 0.25031 0.2911 0.47925 0.0
H2008 H 0.25712 0.28368 0.49509 0.0
H2009 H 0.25788 0.28333 0.52747 0.0
H2010 H 0.25102 0.29071 0.5432 0.0
H2011 H 0.23662 0.26173 0.55066 0.0
H2012 H 0.24353 0.25438 0.53494 0.0
H2013 H 0.2472 0.27458 0.51095 0.0
H2014 H 0.27271 0.265 0.53566 0.0
H2015 H 0.27971 0.25761 0.55138 0.0
H2016 H 0.26705 0.2281 0.54299 0.0
H2017 H 0.26021 0.23554 0.52719 0.0
C2018 C 0.2663 0.25101 0.4922 0.0
C2019 C 0.2649 0.24061 0.48991 0.0
C2020 C 0.26895 0.23651 0.48093 0.0
C2021 C 0.2746 0.24271 0.47408 0.0
C2022 C 0.27603 0.25313 0.47645 0.0
C2023 C 0.27193 0.25722 0.4854 0.0
C2024 C 0.26207 0.25534 0.50179 0.0
C2025 C 0.26506 0.25108 0.51123 0.0
C2026 C 0.25552 0.26392 0.50169 0.0
C2027 C 0.25153 0.26836 0.49198 0.0
C2028 C 0.24609 0.26222 0.48498 0.0
C2029 C 0.24221 0.26644 0.47591 0.0
C2030 C 0.24369 0.27688 0.47366 0.0
C2031 C 0.24914 0.28301 0.48069 0.0
C2032 C 0.25297 0.27879 0.48979 0.0
C2033 C 0.25126 0.26829 0.53005 0.0
C2034 C 0.25326 0.27857 0.5325 0.0
C2035 C 0.24939 0.28276 0.54152 0.0
C2036 C 0.24329 0.2768 0.54817 0.0
C2037 C 0.24123 0.26653 0.54565 0.0
C2038 C 0.24523 0.2623 0.53671 0.0
C2039 C 0.25536 0.26387 0.52046 0.0
C2040 C 0.25234 0.26812 0.51103 0.0
C2041 C 0.26187 0.25528 0.52057 0.0
C2042 C 0.26586 0.25084 0.53028 0.0
C2043 C 0.27135 0.25696 0.53726 0.0
C2044 C 0.27534 0.25272 0.54626 0.0
C2045 C 0.27395 0.24224 0.54848 0.0
C2046 C 0.26841 0.23615 0.54147 0.0
C2047 C 0.26444 0.2404 0.53246 0.0
H2048 H 0.7548 0.52469 0.78402 0.0
H2049 H 0.74738 0.54025 0.79102 0.0
H2050 H 0.73741 0.54912 0.76069 0.0
H2051 H 0.7447 0.53344 0.75376 0.0
H2052 H 0.74597 0.50875 0.77409 0.0
H2053 H 0.77072 0.53494 0.76668 0.0
H2054 H 0.77763 0.55094 0.75961 0.0
H2055 H 0.77101 0.54025 0.72904 0.0
H2056 H 0.76376 0.5244 0.73614 0.0
H2057 H 0.764 0.49443 0.73615 0.0
H2058 H 0.77158 0.47904 0.72896 0.0
H2059 H 0.77927 0.46858 0.75943 0.0
H2060 H 0.77187 0.48408 0.76658 0.0
H2061 H 0.77181 0.50963 0.74638 0.0
H2062 H 0.74606 0.48397 0.75379 0.0
H2063 H 0.73895 0.46805 0.76084 0.0
H2064 H 0.74787 0.47765 0.79125 0.0
H2065 H 0.75495 0.49355 0.78415 0.0
C2066 C 0.75039 0.52792 0.76835 0.0
C2067 C 0.75099 0.52997 0.77888 0.0
C2068 C 0.74681 0.53891 0.78286 0.0
C2069 C 0.74183 0.54596 0.77641 0.0
C2070 C 0.74112 0.54382 0.76588 0.0
C2071 C 0.74535 0.5349 0.7619 0.0
C2072 C 0.75499 0.51845 0.76416 0.0
C2073 C 0.75171 0.50894 0.76811 0.0
C2074 C 0.76234 0.5187 0.7562 0.0
C2075 C 0.76654 0.52849 0.75197 0.0
C2076 C 0.77056 0.53609 0.75847 0.0
C2077 C 0.77455 0.54523 0.75442 0.0
C2078 C 0.77484 0.54684 0.74378 0.0
C2079 C 0.77094 0.53918 0.73727 0.0
C2080 C 0.7668 0.53012 0.74133 0.0
C2081 C 0.76723 0.49041 0.75193 0.0
C2082 C 0.76735 0.48885 0.7413 0.0
C2083 C 0.7717 0.48005 0.73719 0.0
C2084 C 0.776 0.47256 0.74362 0.0
C2085 C 0.77588 0.47412 0.75427 0.0
C2086 C 0.77163 0.48299 0.75837 0.0
C2087 C 0.7627 0.49991 0.75621 0.0
C2088 C 0.76603 0.50943 0.75232 0.0
C2089 C 0.75538 0.49967 0.7642 0.0
C2090 C 0.75113 0.48993 0.76842 0.0
C2091 C 0.74657 0.4826 0.76196 0.0
C2092 C 0.74252 0.47349 0.76601 0.0
C2093 C 0.74285 0.47156 0.77661 0.0
C2094 C 0.74738 0.47894 0.78306 0.0
C2095 C 0.75146 0.48802 0.77901 0.0
H2096 H 0.283 0.52539 0.76398 0.0
H2097 H 0.29007 0.5412 0.77121 0.0
H2098 H 0.2598 0.5496 0.78124 0.0
H2099 H 0.25278 0.53381 0.77397 0.0
H2100 H 0.2736 0.50949 0.77271 0.0
H2101 H 0.26451 0.53438 0.74706 0.0
H2102 H 0.25698 0.54987 0.73981 0.0
H2103 H 0.22708 0.53984 0.75023 0.0
H2104 H 0.23466 0.52434 0.75735 0.0
H2105 H 0.23519 0.49283 0.75814 0.0
H2106 H 0.22791 0.47711 0.75099 0.0
H2107 H 0.25759 0.46959 0.73866 0.0
H2108 H 0.26484 0.48519 0.74613 0.0
H2109 H 0.24436 0.50906 0.74829 0.0
H2110 H 0.25338 0.48403 0.7736 0.0
H2111 H 0.26083 0.46843 0.78067 0.0
H2112 H 0.29088 0.47871 0.77099 0.0
H2113 H 0.28338 0.4943 0.76392 0.0
C2114 C 0.26733 0.52844 0.76831 0.0
C2115 C 0.27788 0.53064 0.76774 0.0
C2116 C 0.28193 0.53967 0.77192 0.0
C2117 C 0.27551 0.5467 0.7768 0.0
C2118 C 0.26494 0.54446 0.77739 0.0
C2119 C 0.26091 0.53541 0.77323 0.0
C2120 C 0.26309 0.51874 0.76399 0.0
C2121 C 0.26731 0.5094 0.76724 0.0
C2122 C 0.25469 0.51862 0.75705 0.0
C2123 C 0.25017 0.5282 0.75283 0.0
C2124 C 0.25635 0.53556 0.74786 0.0
C2125 C 0.25202 0.54444 0.74373 0.0
C2126 C 0.2414 0.54614 0.74441 0.0
C2127 C 0.23525 0.53874 0.74941 0.0
C2128 C 0.23958 0.52987 0.75353 0.0
C2129 C 0.25057 0.49017 0.75273 0.0
C2130 C 0.24012 0.48778 0.75392 0.0
C2131 C 0.23596 0.47879 0.74976 0.0
C2132 C 0.24213 0.47204 0.74419 0.0
C2133 C 0.25262 0.47448 0.74303 0.0
C2134 C 0.25679 0.48344 0.74726 0.0
C2135 C 0.25489 0.49984 0.757 0.0
C2136 C 0.25067 0.50916 0.75374 0.0
C2137 C 0.26329 0.49994 0.76392 0.0
C2138 C 0.26779 0.49033 0.7681 0.0
C2139 C 0.26156 0.48288 0.77288 0.0
C2140 C 0.26584 0.47395 0.77693 0.0
C2141 C 0.27647 0.47228 0.7764 0.0
C2142 C 0.28269 0.47978 0.77165 0.0
C2143 C 0.2784 0.48869 0.76757 0.0
H2144 H 0.26319 0.52444 0.23587 0.0
H2145 H 0.27015 0.54047 0.22892 0.0
H2146 H 0.27881 0.54993 0.25943 0.0
H2147 H 0.27192 0.53385 0.26632 0.0
H2148 H 0.27196 0.50915 0.24576 0.0
H2149 H 0.24576 0.53348 0.25363 0.0
H2150 H 0.23879 0.54917 0.26078 0.0
H2151 H 0.24751 0.53909 0.29113 0.0
H2152 H 0.25482 0.52363 0.28388 0.0
H2153 H 0.2554 0.49279 0.28363 0.0
H2154 H 0.24806 0.47695 0.29061 0.0
H2155 H 0.23918 0.46762 0.26011 0.0
H2156 H 0.24622 0.48363 0.25322 0.0
H2157 H 0.24643 0.50818 0.27378 0.0
H2158 H 0.27239 0.48379 0.26603 0.0
H2159 H 0.27957 0.46818 0.259 0.0
H2160 H 0.27154 0.47833 0.22848 0.0
H2161 H 0.26393 0.4937 0.23563 0.0
C2162 C 0.26691 0.52797 0.25163 0.0
C2163 C 0.26661 0.52995 0.24106 0.0
C2164 C 0.27061 0.53911 0.23709 0.0
C2165 C 0.275 0.5465 0.24362 0.0
C2166 C 0.27533 0.54448 0.25421 0.0
C2167 C 0.27139 0.53528 0.25816 0.0
C2168 C 0.26267 0.51818 0.25579 0.0
C2169 C 0.26626 0.50892 0.25178 0.0
C2170 C 0.25542 0.51792 0.26385 0.0
C2171 C 0.25095 0.52741 0.26819 0.0
C2172 C 0.24626 0.5347 0.26182 0.0
C2173 C 0.24217 0.54363 0.26594 0.0
C2174 C 0.2426 0.54544 0.27655 0.0
C2175 C 0.24718 0.53806 0.28292 0.0
C2176 C 0.25129 0.52915 0.27879 0.0
C2177 C 0.25144 0.48938 0.26789 0.0
C2178 C 0.25185 0.48734 0.27845 0.0
C2179 C 0.24773 0.47823 0.28242 0.0
C2180 C 0.24305 0.47099 0.27592 0.0
C2181 C 0.24264 0.47307 0.26535 0.0
C2182 C 0.24676 0.48218 0.26138 0.0
C2183 C 0.25571 0.49914 0.26373 0.0
C2184 C 0.25212 0.5084 0.26774 0.0
C2185 C 0.26296 0.4994 0.25567 0.0
C2186 C 0.26747 0.4899 0.25139 0.0
C2187 C 0.27205 0.4826 0.25784 0.0
C2188 C 0.27628 0.47371 0.25378 0.0
C2189 C 0.27615 0.47195 0.24315 0.0
C2190 C 0.27164 0.47932 0.23671 0.0
C2191 C 0.26737 0.48819 0.24078 0.0
H2192 H 0.73514 0.52454 0.25677 0.0
H2193 H 0.72775 0.54015 0.24962 0.0
H2194 H 0.75772 0.54973 0.23905 0.0
H2195 H 0.76504 0.534 0.24606 0.0
H2196 H 0.74483 0.50899 0.24758 0.0
H2197 H 0.75296 0.53407 0.27292 0.0
H2198 H 0.75993 0.54996 0.28001 0.0
H2199 H 0.79038 0.54108 0.27099 0.0
H2200 H 0.78334 0.52521 0.26384 0.0
H2201 H 0.78321 0.49357 0.2628 0.0
H2202 H 0.79051 0.47796 0.26994 0.0
H2203 H 0.76079 0.46941 0.28203 0.0
H2204 H 0.75351 0.48492 0.27456 0.0
H2205 H 0.77371 0.50952 0.27242 0.0
H2206 H 0.76521 0.48378 0.24774 0.0
H2207 H 0.75788 0.46787 0.24115 0.0
H2208 H 0.72753 0.47832 0.24877 0.0
H2209 H 0.73498 0.49391 0.25594 0.0
C2210 C 0.75066 0.52811 0.25203 0.0
C2211 C 0.74012 0.52999 0.2529 0.0
C2212 C 0.73591 0.53896 0.24887 0.0
C2213 C 0.74214 0.54622 0.24379 0.0
C2214 C 0.75269 0.54427 0.24284 0.0
C2215 C 0.7569 0.53531 0.24693 0.0
C2216 C 0.75509 0.51856 0.25638 0.0
C2217 C 0.75105 0.50909 0.25313 0.0
C2218 C 0.76337 0.51873 0.26344 0.0
C2219 C 0.7676 0.52846 0.26771 0.0
C2220 C 0.76112 0.53559 0.27234 0.0
C2221 C 0.76512 0.54469 0.2764 0.0
C2222 C 0.77572 0.54682 0.27604 0.0
C2223 C 0.7822 0.53964 0.27148 0.0
C2224 C 0.77818 0.53056 0.26737 0.0
C2225 C 0.7678 0.4904 0.26807 0.0
C2226 C 0.77827 0.48833 0.26699 0.0
C2227 C 0.78245 0.47939 0.27114 0.0
C2228 C 0.77627 0.47236 0.27662 0.0
C2229 C 0.76577 0.47452 0.27773 0.0
C2230 C 0.76159 0.48342 0.2735 0.0
C2231 C 0.76343 0.49993 0.26365 0.0
C2232 C 0.76748 0.50941 0.26688 0.0
C2233 C 0.75512 0.49976 0.25661 0.0
C2234 C 0.75069 0.49002 0.25253 0.0
C2235 C 0.75699 0.48257 0.24818 0.0
C2236 C 0.75276 0.47351 0.24425 0.0
C2237 C 0.74208 0.47174 0.24441 0.0
C2238 C 0.73579 0.47928 0.24867 0.0
C2239 C 0.74004 0.48828 0.25269 0.0
H2240 H 0.5244 0.25525 0.73541 0.0
H2241 H 0.53983 0.24789 0.72805 0.0
H2242 H 0.55 0.23897 0.75829 0.0
H2243 H 0.5345 0.24629 0.76561 0.0
H2244 H 0.50903 0.24688 0.74546 0.0
H2245 H 0.53464 0.27272 0.75345 0.0
H2246 H 0.55042 0.27993 0.76079 0.0
H2247 H 0.54086 0.26983 0.79086 0.0
H2248 H 0.52508 0.26273 0.78349 0.0
H2249 H 0.49398 0.26382 0.78343 0.0
H2250 H 0.47837 0.27118 0.79041 0.0
H2251 H 0.46929 0.28074 0.76 0.0
H2252 H 0.48491 0.27331 0.75307 0.0
H2253 H 0.50982 0.2722 0.77358 0.0
H2254 H 0.48377 0.24737 0.76584 0.0
H2255 H 0.46754 0.24106 0.75881 0.0
H2256 H 0.47812 0.24838 0.72828 0.0
H2257 H 0.49406 0.25525 0.73543 0.0
C2258 C 0.52829 0.25144 0.75109 0.0
C2259 C 0.52993 0.2517 0.74047 0.0
C2260 C 0.53876 0.24745 0.73626 0.0
C2261 C 0.54617 0.24283 0.74258 0.0
C2262 C 0.54453 0.24259 0.75322 0.0
C2263 C 0.53566 0.24679 0.75742 0.0
C2264 C 0.51875 0.25582 0.75546 0.0
C2265 C 0.50921 0.25253 0.75151 0.0
C2266 C 0.51895 0.26297 0.76357 0.0
C2267 C 0.5287 0.26712 0.76791 0.0
C2268 C 0.53599 0.27198 0.76161 0.0
C2269 C 0.54502 0.27609 0.76582 0.0
C2270 C 0.54691 0.27549 0.77642 0.0
C2271 C 0.53959 0.27058 0.78269 0.0
C2272 C 0.53058 0.26647 0.77848 0.0
C2273 C 0.4906 0.26791 0.76771 0.0
C2274 C 0.48864 0.26753 0.77827 0.0
C2275 C 0.47971 0.27177 0.78225 0.0
C2276 C 0.47254 0.27656 0.77578 0.0
C2277 C 0.47455 0.27698 0.7652 0.0
C2278 C 0.4835 0.27275 0.76122 0.0
C2279 C 0.50012 0.26334 0.76352 0.0
C2280 C 0.50964 0.26656 0.76752 0.0
C2281 C 0.4999 0.25611 0.75547 0.0
C2282 C 0.4901 0.25196 0.75119 0.0
C2283 C 0.48254 0.24776 0.75764 0.0
C2284 C 0.47329 0.24402 0.75358 0.0
C2285 C 0.47146 0.24423 0.74295 0.0
C2286 C 0.47914 0.24827 0.73651 0.0
C2287 C 0.48834 0.2521 0.74058 0.0
H2288 H 0.52341 0.73563 0.76509 0.0
H2289 H 0.53895 0.72801 0.77218 0.0
H2290 H 0.55055 0.75808 0.77987 0.0
H2291 H 0.53491 0.76568 0.77293 0.0
H2292 H 0.50882 0.746 0.77351 0.0
H2293 H 0.53333 0.75343 0.74672 0.0
H2294 H 0.5492 0.76029 0.73932 0.0
H2295 H 0.54103 0.79059 0.74922 0.0
H2296 H 0.52529 0.78364 0.75679 0.0
H2297 H 0.49405 0.78409 0.75553 0.0
H2298 H 0.47857 0.79117 0.74782 0.0
H2299 H 0.46785 0.76059 0.74073 0.0
H2300 H 0.4836 0.75362 0.74795 0.0
H2301 H 0.50919 0.77395 0.74771 0.0
H2302 H 0.48376 0.7665 0.77321 0.0
H2303 H 0.46791 0.75945 0.78049 0.0
H2304 H 0.47777 0.72896 0.77312 0.0
H2305 H 0.4935 0.73604 0.76567 0.0
C2306 C 0.52799 0.75126 0.76835 0.0
C2307 C 0.52928 0.7406 0.76833 0.0
C2308 C 0.53817 0.73624 0.77241 0.0
C2309 C 0.54601 0.74243 0.77658 0.0
C2310 C 0.54472 0.75311 0.77659 0.0
C2311 C 0.53578 0.75746 0.77259 0.0
C2312 C 0.51837 0.75579 0.76417 0.0
C2313 C 0.50889 0.75201 0.76775 0.0
C2314 C 0.51846 0.76387 0.75688 0.0
C2315 C 0.52815 0.768 0.7524 0.0
C2316 C 0.535 0.76153 0.74738 0.0
C2317 C 0.54404 0.76549 0.74307 0.0
C2318 C 0.54641 0.776 0.74368 0.0
C2319 C 0.53952 0.78244 0.74872 0.0
C2320 C 0.53047 0.77849 0.75299 0.0
C2321 C 0.48999 0.7683 0.75245 0.0
C2322 C 0.48839 0.7789 0.75228 0.0
C2323 C 0.47945 0.78294 0.74795 0.0
C2324 C 0.47188 0.77647 0.74367 0.0
C2325 C 0.47353 0.76584 0.74383 0.0
C2326 C 0.4825 0.76182 0.74809 0.0
C2327 C 0.4996 0.76406 0.75695 0.0
C2328 C 0.50909 0.76793 0.75346 0.0
C2329 C 0.49951 0.75604 0.76431 0.0
C2330 C 0.48981 0.75183 0.76875 0.0
C2331 C 0.48246 0.75831 0.77303 0.0
C2332 C 0.4734 0.75427 0.77721 0.0
C2333 C 0.47158 0.74364 0.77738 0.0
C2334 C 0.47899 0.73716 0.7732 0.0
C2335 C 0.48799 0.74121 0.76893 0.0
H2336 H 0.52521 0.75662 0.23591 0.0
H2337 H 0.54063 0.74917 0.22865 0.0
H2338 H 0.54955 0.73844 0.25872 0.0
H2339 H 0.53416 0.74606 0.26594 0.0
H2340 H 0.50934 0.74766 0.24565 0.0
H2341 H 0.5356 0.7723 0.25388 0.0
H2342 H 0.55154 0.77903 0.26133 0.0
H2343 H 0.54061 0.77117 0.29154 0.0
H2344 H 0.5248 0.7642 0.28407 0.0
H2345 H 0.49428 0.76416 0.28375 0.0
H2346 H 0.47861 0.77129 0.29083 0.0
H2347 H 0.46923 0.78078 0.26049 0.0
H2348 H 0.48508 0.77391 0.25351 0.0
H2349 H 0.51007 0.77278 0.27396 0.0
H2350 H 0.48461 0.7473 0.26612 0.0
H2351 H 0.46858 0.74032 0.25914 0.0
H2352 H 0.47792 0.74966 0.22876 0.0
H2353 H 0.49393 0.75663 0.2358 0.0
C2354 C 0.52854 0.75198 0.25149 0.0
C2355 C 0.53049 0.75266 0.24094 0.0
C2356 C 0.5393 0.74834 0.23679 0.0
C2357 C 0.54636 0.74315 0.24308 0.0
C2358 C 0.54439 0.74249 0.25366 0.0
C2359 C 0.53556 0.74683 0.25781 0.0
C2360 C 0.51903 0.75646 0.25578 0.0
C2361 C 0.50951 0.75326 0.25175 0.0
C2362 C 0.51925 0.76357 0.26395 0.0
C2363 C 0.52902 0.7676 0.26839 0.0
C2364 C 0.53669 0.77186 0.26209 0.0
C2365 C 0.54579 0.77574 0.26636 0.0
C2366 C 0.54732 0.77562 0.27702 0.0
C2367 C 0.53961 0.77144 0.28331 0.0
C2368 C 0.53057 0.76745 0.27904 0.0
C2369 C 0.49085 0.7684 0.26807 0.0
C2370 C 0.48888 0.76781 0.27862 0.0
C2371 C 0.47985 0.77182 0.28265 0.0
C2372 C 0.4726 0.77656 0.27623 0.0
C2373 C 0.47466 0.77725 0.26568 0.0
C2374 C 0.48369 0.77323 0.26165 0.0
C2375 C 0.50041 0.76397 0.26383 0.0
C2376 C 0.50992 0.76718 0.26786 0.0
C2377 C 0.50021 0.75681 0.25572 0.0
C2378 C 0.49044 0.7526 0.2515 0.0
C2379 C 0.48316 0.74794 0.25797 0.0
C2380 C 0.47399 0.74395 0.25397 0.0
C2381 C 0.47196 0.74444 0.24339 0.0
C2382 C 0.47929 0.74905 0.23693 0.0
C2383 C 0.48844 0.75306 0.24094 0.0
H2384 H 0.52341 0.23532 0.26517 0.0
H2385 H 0.53895 0.22774 0.27224 0.0
H2386 H 0.55029 0.25786 0.28025 0.0
H2387 H 0.5345 0.26533 0.27363 0.0
H2388 H 0.50859 0.24539 0.27363 0.0
H2389 H 0.53302 0.25323 0.24716 0.0
H2390 H 0.54888 0.26005 0.23971 0.0
H2391 H 0.54093 0.29034 0.24982 0.0
H2392 H 0.52519 0.28342 0.25746 0.0
H2393 H 0.49364 0.2839 0.25727 0.0
H2394 H 0.47803 0.2912 0.24999 0.0
H2395 H 0.46803 0.26105 0.24055 0.0
H2396 H 0.48364 0.2538 0.2479 0.0
H2397 H 0.50898 0.274 0.24855 0.0
H2398 H 0.484 0.26589 0.27449 0.0
H2399 H 0.46827 0.25872 0.2819 0.0
H2400 H 0.47714 0.22858 0.27214 0.0
H2401 H 0.49286 0.23579 0.26482 0.0
C2402 C 0.52779 0.25092 0.26874 0.0
C2403 C 0.52922 0.2403 0.26849 0.0
C2404 C 0.53819 0.23597 0.27246 0.0
C2405 C 0.54596 0.24217 0.27679 0.0
C2406 C 0.54446 0.25282 0.27708 0.0
C2407 C 0.53547 0.25713 0.27316 0.0
C2408 C 0.51816 0.25545 0.26457 0.0
C2409 C 0.50868 0.25156 0.26804 0.0
C2410 C 0.51826 0.26367 0.25745 0.0
C2411 C 0.52795 0.26779 0.25297 0.0
C2412 C 0.53474 0.26132 0.24786 0.0
C2413 C 0.54377 0.26525 0.24352 0.0
C2414 C 0.54619 0.27575 0.24417 0.0
C2415 C 0.53937 0.2822 0.24929 0.0
C2416 C 0.53032 0.27827 0.25359 0.0
C2417 C 0.4898 0.26828 0.25325 0.0
C2418 C 0.48809 0.27886 0.25363 0.0
C2419 C 0.47916 0.28303 0.24942 0.0
C2420 C 0.47174 0.27672 0.24468 0.0
C2421 C 0.47348 0.26612 0.24429 0.0
C2422 C 0.48242 0.26196 0.24849 0.0
C2423 C 0.49941 0.26391 0.25758 0.0
C2424 C 0.50889 0.26784 0.25415 0.0
C2425 C 0.49931 0.25568 0.2647 0.0
C2426 C 0.4896 0.2514 0.26902 0.0
C2427 C 0.48251 0.25775 0.27386 0.0
C2428 C 0.4735 0.25364 0.27808 0.0
C2429 C 0.47142 0.24306 0.27763 0.0
C2430 C 0.47855 0.23673 0.27277 0.0
C2431 C 0.48754 0.24085 0.26854 0.0
H2432 H 0.19865 0.2139 0.13225 0.0
H2433 H 0.2051 0.22259 0.11687 0.0
H2434 H 0.21957 0.19474 0.10735 0.0
H2435 H 0.2131 0.186 0.1226 0.0
H2436 H 0.23251 0.21077 0.10559 0.0
H2437 H 0.19745 0.20334 0.09591 0.0
H2438 H 0.17865 0.20374 0.09788 0.0
H2439 H 0.1795 0.23658 0.09707 0.0
H2440 H 0.19833 0.23637 0.09524 0.0
H2441 H 0.24539 0.22303 0.05454 0.0
H2442 H 0.2381 0.21537 0.07002 0.0
H2443 H 0.22253 0.24354 0.07646 0.0
H2444 H 0.22963 0.25116 0.0608 0.0
H2445 H 0.21014 0.22823 0.08031 0.0
H2446 H 0.24484 0.23601 0.08964 0.0
H2447 H 0.26367 0.23602 0.08793 0.0
H2448 H 0.26366 0.20323 0.08989 0.0
H2449 H 0.24481 0.20301 0.09148 0.0
C2450 C 0.2031 0.20959 0.12682 0.0
C2451 C 0.20538 0.19924 0.12872 0.0
C2452 C 0.2068 0.21458 0.11803 0.0
C2453 C 0.2128 0.20932 0.1109 0.0
C2454 C 0.21502 0.19899 0.11275 0.0
C2455 C 0.21133 0.19401 0.12151 0.0
C2456 C 0.21697 0.21457 0.10162 0.0
C2457 C 0.2276 0.21448 0.1 0.0
C2458 C 0.21062 0.21971 0.09448 0.0
C2459 C 0.1993 0.21984 0.09555 0.0
C2460 C 0.19363 0.21065 0.09624 0.0
C2461 C 0.18298 0.21084 0.09731 0.0
C2462 C 0.17789 0.22018 0.09763 0.0
C2463 C 0.18345 0.22935 0.09684 0.0
C2464 C 0.19411 0.2292 0.09578 0.0
C2465 C 0.24047 0.22762 0.05929 0.0
C2466 C 0.23815 0.23773 0.05647 0.0
C2467 C 0.23631 0.22324 0.06817 0.0
C2468 C 0.22989 0.22892 0.07456 0.0
C2469 C 0.22746 0.23898 0.07169 0.0
C2470 C 0.23152 0.24334 0.06274 0.0
C2471 C 0.2257 0.22433 0.08419 0.0
C2472 C 0.21507 0.22455 0.0859 0.0
C2473 C 0.23206 0.21938 0.09148 0.0
C2474 C 0.2434 0.21949 0.09059 0.0
C2475 C 0.24885 0.22879 0.08964 0.0
C2476 C 0.25952 0.22884 0.0887 0.0
C2477 C 0.26485 0.21963 0.08878 0.0
C2478 C 0.25952 0.21035 0.08983 0.0
C2479 C 0.24884 0.21027 0.09076 0.0
H2480 H 0.27312 0.21968 0.08805 0.0
H2481 H 0.16964 0.22031 0.09846 0.0
H2482 H 0.79658 0.19047 0.12935 0.0
H2483 H 0.79022 0.19913 0.11403 0.0
H2484 H 0.81762 0.21789 0.11312 0.0
H2485 H 0.82417 0.20911 0.12837 0.0
H2486 H 0.8001 0.22908 0.10962 0.0
H2487 H 0.81524 0.19856 0.09688 0.0
H2488 H 0.81833 0.18002 0.09595 0.0
H2489 H 0.78662 0.17464 0.0885 0.0
H2490 H 0.7833 0.19315 0.08954 0.0
H2491 H 0.79238 0.24713 0.05841 0.0
H2492 H 0.79941 0.23943 0.074 0.0
H2493 H 0.7731 0.21922 0.07593 0.0
H2494 H 0.76595 0.22697 0.06044 0.0
H2495 H 0.79077 0.20897 0.07877 0.0
H2496 H 0.77559 0.2395 0.09182 0.0
H2497 H 0.77252 0.25805 0.09278 0.0
H2498 H 0.80438 0.26343 0.09958 0.0
H2499 H 0.80766 0.24492 0.09852 0.0
C2500 C 0.80133 0.19635 0.12585 0.0
C2501 C 0.81095 0.19901 0.13007 0.0
C2502 C 0.79765 0.20133 0.11711 0.0
C2503 C 0.80349 0.20908 0.11236 0.0
C2504 C 0.81298 0.21193 0.11666 0.0
C2505 C 0.8167 0.20692 0.1254 0.0
C2506 C 0.79969 0.21409 0.10286 0.0
C2507 C 0.79821 0.22471 0.10282 0.0
C2508 C 0.79703 0.20837 0.09405 0.0
C2509 C 0.799 0.19723 0.09339 0.0
C2510 C 0.80891 0.19342 0.09513 0.0
C2511 C 0.8107 0.18292 0.09457 0.0
C2512 C 0.80267 0.17616 0.09219 0.0
C2513 C 0.79283 0.17989 0.09035 0.0
C2514 C 0.79099 0.19038 0.09092 0.0
C2515 C 0.78801 0.24114 0.06222 0.0
C2516 C 0.77858 0.23768 0.05815 0.0
C2517 C 0.79206 0.23672 0.07112 0.0
C2518 C 0.78675 0.22879 0.07618 0.0
C2519 C 0.77735 0.22531 0.07214 0.0
C2520 C 0.77329 0.22973 0.06326 0.0
C2521 C 0.79108 0.22395 0.08555 0.0
C2522 C 0.79269 0.21335 0.08556 0.0
C2523 C 0.79385 0.2297 0.09431 0.0
C2524 C 0.79189 0.24083 0.09498 0.0
C2525 C 0.78196 0.24465 0.09343 0.0
C2526 C 0.78018 0.25515 0.09402 0.0
C2527 C 0.78826 0.26191 0.09621 0.0
C2528 C 0.79813 0.25818 0.09786 0.0
C2529 C 0.79996 0.24769 0.09728 0.0
H2530 H 0.78686 0.27004 0.09666 0.0
H2531 H 0.80408 0.16803 0.09175 0.0
H2532 H 0.82059 0.82812 0.11847 0.0
H2533 H 0.81415 0.81964 0.10303 0.0
H2534 H 0.79723 0.79804 0.12166 0.0
H2535 H 0.80379 0.80638 0.13716 0.0
H2536 H 0.80686 0.78868 0.10558 0.0
H2537 H 0.78504 0.81764 0.11055 0.0
H2538 H 0.78124 0.83587 0.11313 0.0
H2539 H 0.79556 0.8434 0.08448 0.0
H2540 H 0.79957 0.82521 0.08179 0.0
H2541 H 0.77354 0.76902 0.06692 0.0
H2542 H 0.78082 0.77678 0.08238 0.0
H2543 H 0.7952 0.80035 0.06398 0.0
H2544 H 0.78782 0.7927 0.04853 0.0
H2545 H 0.78703 0.80867 0.08004 0.0
H2546 H 0.80889 0.77999 0.07482 0.0
H2547 H 0.81305 0.76186 0.0721 0.0
H2548 H 0.79928 0.75389 0.1009 0.0
H2549 H 0.79491 0.77196 0.10373 0.0
C2550 C 0.8156 0.82149 0.1193 0.0
C2551 C 0.81268 0.81796 0.12907 0.0
C2552 C 0.81185 0.8167 0.11045 0.0
C2553 C 0.80511 0.80827 0.11117 0.0
C2554 C 0.80239 0.80455 0.12091 0.0
C2555 C 0.80609 0.80938 0.12976 0.0
C2556 C 0.80073 0.80345 0.10179 0.0
C2557 C 0.80242 0.79302 0.10005 0.0
C2558 C 0.79514 0.80915 0.09444 0.0
C2559 C 0.79269 0.82008 0.09602 0.0
C2560 C 0.78745 0.82319 0.10484 0.0
C2561 C 0.78525 0.83351 0.10632 0.0
C2562 C 0.78818 0.84079 0.09899 0.0
C2563 C 0.7933 0.83775 0.09016 0.0
C2564 C 0.79553 0.82744 0.08865 0.0
C2565 C 0.77833 0.77581 0.06617 0.0
C2566 C 0.78011 0.78023 0.05648 0.0
C2567 C 0.7825 0.78024 0.07502 0.0
C2568 C 0.78869 0.7891 0.07438 0.0
C2569 C 0.79045 0.79353 0.06471 0.0
C2570 C 0.78621 0.78916 0.05587 0.0
C2571 C 0.79317 0.79387 0.08377 0.0
C2572 C 0.79149 0.80431 0.08554 0.0
C2573 C 0.79883 0.78818 0.0911 0.0
C2574 C 0.80148 0.77732 0.08944 0.0
C2575 C 0.80668 0.77436 0.08054 0.0
C2576 C 0.80909 0.7641 0.07898 0.0
C2577 C 0.80641 0.75672 0.08631 0.0
C2578 C 0.80134 0.75961 0.09522 0.0
C2579 C 0.7989 0.76986 0.09681 0.0
H2580 H 0.80828 0.74878 0.08509 0.0
H2581 H 0.78647 0.84878 0.10015 0.0
H2582 H 0.20028 0.83046 0.1173 0.0
H2583 H 0.20676 0.82137 0.10242 0.0
H2584 H 0.21649 0.79659 0.12197 0.0
H2585 H 0.21023 0.80578 0.13696 0.0
H2586 H 0.2313 0.80193 0.10848 0.0
H2587 H 0.19549 0.79386 0.10673 0.0
H2588 H 0.17696 0.79741 0.10641 0.0
H2589 H 0.18074 0.81532 0.079 0.0
H2590 H 0.19933 0.81199 0.07923 0.0
H2591 H 0.24282 0.76858 0.06724 0.0
H2592 H 0.2353 0.77589 0.08264 0.0
H2593 H 0.22411 0.80134 0.06485 0.0
H2594 H 0.23129 0.79391 0.04937 0.0
H2595 H 0.20977 0.79474 0.07788 0.0
H2596 H 0.24564 0.80352 0.08012 0.0
H2597 H 0.26419 0.80006 0.08042 0.0
H2598 H 0.26027 0.78087 0.10693 0.0
H2599 H 0.24167 0.78411 0.10671 0.0
C2600 C 0.20382 0.82309 0.11845 0.0
C2601 C 0.20474 0.81886 0.12834 0.0
C2602 C 0.20745 0.81785 0.10991 0.0
C2603 C 0.21204 0.80824 0.11104 0.0
C2604 C 0.21295 0.80398 0.1209 0.0
C2605 C 0.20929 0.8092 0.12945 0.0
C2606 C 0.21613 0.80281 0.10197 0.0
C2607 C 0.22654 0.8002 0.10186 0.0
C2608 C 0.21 0.80074 0.09322 0.0
C2609 C 0.19882 0.80276 0.09305 0.0
C2610 C 0.19239 0.79863 0.10068 0.0
C2611 C 0.18187 0.80059 0.10051 0.0
C2612 C 0.17768 0.80661 0.09271 0.0
C2613 C 0.184 0.81066 0.08505 0.0
C2614 C 0.19452 0.80874 0.08519 0.0
C2615 C 0.23867 0.77568 0.06658 0.0
C2616 C 0.23771 0.78067 0.05705 0.0
C2617 C 0.23446 0.7799 0.07542 0.0
C2618 C 0.22924 0.78924 0.07495 0.0
C2619 C 0.22813 0.79415 0.06543 0.0
C2620 C 0.23233 0.78993 0.05659 0.0
C2621 C 0.22496 0.79394 0.08436 0.0
C2622 C 0.21451 0.79641 0.08453 0.0
C2623 C 0.23106 0.79589 0.09316 0.0
C2624 C 0.24225 0.79397 0.09333 0.0
C2625 C 0.24872 0.7985 0.08597 0.0
C2626 C 0.25925 0.79659 0.08613 0.0
C2627 C 0.2634 0.79023 0.09367 0.0
C2628 C 0.25704 0.78578 0.10108 0.0
C2629 C 0.24651 0.78766 0.10095 0.0
H2630 H 0.27155 0.78876 0.09379 0.0
H2631 H 0.16954 0.80811 0.09258 0.0
H2632 H 0.1961 0.80605 0.89042 0.0
H2633 H 0.20227 0.79765 0.90603 0.0
H2634 H 0.22716 0.81955 0.90807 0.0
H2635 H 0.22094 0.82813 0.89264 0.0
H2636 H 0.23361 0.79982 0.91102 0.0
H2637 H 0.20677 0.82156 0.92345 0.0
H2638 H 0.18918 0.82825 0.92407 0.0
H2639 H 0.17757 0.79829 0.93162 0.0
H2640 H 0.19509 0.7914 0.9309 0.0
H2641 H 0.25123 0.79177 0.96148 0.0
H2642 H 0.24416 0.79912 0.94579 0.0
H2643 H 0.21875 0.77774 0.94709 0.0
H2644 H 0.22557 0.7706 0.96305 0.0
H2645 H 0.21211 0.79628 0.94211 0.0
H2646 H 0.23838 0.7744 0.93032 0.0
H2647 H 0.25567 0.76713 0.9296 0.0
H2648 H 0.26807 0.79631 0.9204 0.0
H2649 H 0.25082 0.80383 0.92126 0.0
C2650 C 0.20282 0.80915 0.89424 0.0
C2651 C 0.20801 0.81778 0.89024 0.0
C2652 C 0.20636 0.80432 0.90315 0.0
C2653 C 0.21514 0.808 0.90824 0.0
C2654 C 0.22039 0.81655 0.90424 0.0
C2655 C 0.21684 0.82141 0.89537 0.0
C2656 C 0.21894 0.80297 0.91774 0.0
C2657 C 0.22895 0.79915 0.91786 0.0
C2658 C 0.21275 0.8018 0.92655 0.0
C2659 C 0.20223 0.80594 0.92702 0.0
C2660 C 0.20046 0.81638 0.92516 0.0
C2661 C 0.1905 0.82021 0.92554 0.0
C2662 C 0.18226 0.81369 0.92786 0.0
C2663 C 0.18396 0.80333 0.92981 0.0
C2664 C 0.1939 0.79946 0.92943 0.0
C2665 C 0.24409 0.78868 0.9585 0.0
C2666 C 0.23899 0.78057 0.96355 0.0
C2667 C 0.2401 0.79282 0.94946 0.0
C2668 C 0.23098 0.7889 0.94517 0.0
C2669 C 0.22581 0.78087 0.95022 0.0
C2670 C 0.22978 0.77673 0.9593 0.0
C2671 C 0.22684 0.79323 0.93545 0.0
C2672 C 0.21677 0.79691 0.93527 0.0
C2673 C 0.23294 0.79418 0.92654 0.0
C2674 C 0.24332 0.7897 0.92595 0.0
C2675 C 0.2448 0.77929 0.92822 0.0
C2676 C 0.2546 0.77512 0.92777 0.0
C2677 C 0.26298 0.78125 0.92497 0.0
C2678 C 0.26157 0.79157 0.92259 0.0
C2679 C 0.25178 0.79579 0.92305 0.0
H2680 H 0.27057 0.778 0.92463 0.0
H2681 H 0.17456 0.81667 0.92815 0.0
H2682 H 0.21142 0.19305 0.89124 0.0
H2683 H 0.21991 0.19959 0.90667 0.0
H2684 H 0.19897 0.22486 0.90731 0.0
H2685 H 0.19036 0.21832 0.89202 0.0
H2686 H 0.21849 0.23129 0.91051 0.0
H2687 H 0.1963 0.20465 0.92371 0.0
H2688 H 0.18926 0.1871 0.92494 0.0
H2689 H 0.21906 0.17584 0.93294 0.0
H2690 H 0.22631 0.19331 0.93162 0.0
H2691 H 0.22694 0.24987 0.96058 0.0
H2692 H 0.21943 0.24254 0.94508 0.0
H2693 H 0.24039 0.21732 0.94702 0.0
H2694 H 0.24766 0.22439 0.9628 0.0
H2695 H 0.22173 0.2105 0.94222 0.0
H2696 H 0.24394 0.23697 0.92964 0.0
H2697 H 0.25122 0.25442 0.92839 0.0
H2698 H 0.22188 0.26587 0.91903 0.0
H2699 H 0.21439 0.2485 0.92037 0.0
C2700 C 0.20855 0.19995 0.89471 0.0
C2701 C 0.20019 0.20515 0.89033 0.0
C2702 C 0.21343 0.20369 0.90353 0.0
C2703 C 0.21005 0.2127 0.90821 0.0
C2704 C 0.20176 0.21793 0.90383 0.0
C2705 C 0.19687 0.21419 0.89504 0.0
C2706 C 0.21514 0.21674 0.91762 0.0
C2707 C 0.21909 0.22678 0.91748 0.0
C2708 C 0.21621 0.21077 0.92664 0.0
C2709 C 0.21186 0.20027 0.92746 0.0
C2710 C 0.20136 0.19842 0.92565 0.0
C2711 C 0.19733 0.18849 0.92638 0.0
C2712 C 0.20371 0.18035 0.92899 0.0
C2713 C 0.21413 0.18214 0.9309 0.0
C2714 C 0.2182 0.19206 0.93017 0.0
C2715 C 0.2299 0.24271 0.95779 0.0
C2716 C 0.23794 0.23775 0.96297 0.0
C2717 C 0.22567 0.23858 0.94883 0.0
C2718 C 0.22943 0.22943 0.94477 0.0
C2719 C 0.23738 0.2244 0.94996 0.0
C2720 C 0.2416 0.22852 0.95894 0.0
C2721 C 0.22499 0.2251 0.93515 0.0
C2722 C 0.22117 0.215 0.93524 0.0
C2723 C 0.22409 0.23099 0.92606 0.0
C2724 C 0.22858 0.24144 0.9252 0.0
C2725 C 0.23902 0.24322 0.92739 0.0
C2726 C 0.24319 0.25309 0.92665 0.0
C2727 C 0.23701 0.26125 0.92366 0.0
C2728 C 0.22666 0.25954 0.92136 0.0
C2729 C 0.22245 0.24968 0.9221 0.0
H2730 H 0.24026 0.26889 0.92309 0.0
H2731 H 0.20058 0.17267 0.92955 0.0
H2732 H 0.83191 0.21257 0.90016 0.0
H2733 H 0.82322 0.21861 0.91543 0.0
H2734 H 0.79441 0.20692 0.90377 0.0
H2735 H 0.80302 0.20117 0.88823 0.0
H2736 H 0.79193 0.2255 0.91155 0.0
H2737 H 0.80716 0.19462 0.9232 0.0
H2738 H 0.8209 0.18211 0.92602 0.0
H2739 H 0.83775 0.20402 0.94401 0.0
H2740 H 0.82417 0.21673 0.94118 0.0
H2741 H 0.76637 0.23055 0.95982 0.0
H2742 H 0.77401 0.22326 0.9444 0.0
H2743 H 0.803 0.23757 0.95199 0.0
H2744 H 0.7954 0.24489 0.9674 0.0
H2745 H 0.8046 0.21681 0.94637 0.0
H2746 H 0.78914 0.24782 0.93392 0.0
H2747 H 0.77492 0.25984 0.93129 0.0
H2748 H 0.75788 0.23679 0.91496 0.0
H2749 H 0.77195 0.22457 0.91763 0.0
C2750 C 0.82371 0.21134 0.90078 0.0
C2751 C 0.81817 0.2064 0.89292 0.0
C2752 C 0.81876 0.21471 0.90959 0.0
C2753 C 0.80816 0.21312 0.91084 0.0
C2754 C 0.8026 0.2082 0.90301 0.0
C2755 C 0.80755 0.20484 0.89417 0.0
C2756 C 0.80293 0.2168 0.92022 0.0
C2757 C 0.7946 0.22345 0.91915 0.0
C2758 C 0.80648 0.21427 0.93018 0.0
C2759 C 0.81468 0.20666 0.93189 0.0
C2760 C 0.81383 0.19681 0.92769 0.0
C2761 C 0.82158 0.18967 0.9293 0.0
C2762 C 0.8302 0.19228 0.93517 0.0
C2763 C 0.83107 0.20202 0.93946 0.0
C2764 C 0.82335 0.20919 0.93786 0.0
C2765 C 0.77438 0.23211 0.95821 0.0
C2766 C 0.78028 0.23831 0.96481 0.0
C2767 C 0.77872 0.22799 0.94938 0.0
C2768 C 0.78906 0.22991 0.94703 0.0
C2769 C 0.795 0.236 0.95366 0.0
C2770 C 0.79064 0.24023 0.96242 0.0
C2771 C 0.79372 0.22557 0.93766 0.0
C2772 C 0.80192 0.21879 0.93874 0.0
C2773 C 0.78998 0.2279 0.92773 0.0
C2774 C 0.78155 0.23525 0.92608 0.0
C2775 C 0.78232 0.24528 0.92985 0.0
C2776 C 0.7743 0.25214 0.92834 0.0
C2777 C 0.76549 0.24907 0.92299 0.0
C2778 C 0.7647 0.23915 0.91912 0.0
C2779 C 0.7727 0.23226 0.92062 0.0
H2780 H 0.75929 0.25439 0.92183 0.0
H2781 H 0.83619 0.18674 0.93641 0.0
H2782 H 0.81621 0.83055 0.9018 0.0
H2783 H 0.8097 0.82138 0.9168 0.0
H2784 H 0.80471 0.79441 0.8985 0.0
H2785 H 0.81097 0.80365 0.88335 0.0
H2786 H 0.78842 0.79796 0.91051 0.0
H2787 H 0.82467 0.79579 0.91545 0.0
H2788 H 0.84246 0.80227 0.91679 0.0
H2789 H 0.83413 0.82093 0.94232 0.0
H2790 H 0.81625 0.81467 0.94105 0.0
H2791 H 0.77732 0.76616 0.95359 0.0
H2792 H 0.78505 0.77342 0.93815 0.0
H2793 H 0.79268 0.80102 0.95458 0.0
H2794 H 0.78552 0.79361 0.97019 0.0
H2795 H 0.80811 0.79607 0.94304 0.0
H2796 H 0.77165 0.79899 0.93743 0.0
H2797 H 0.75384 0.79256 0.93605 0.0
H2798 H 0.76257 0.77248 0.91178 0.0
H2799 H 0.78047 0.77871 0.91309 0.0
C2800 C 0.8137 0.82268 0.90094 0.0
C2801 C 0.81411 0.81786 0.89134 0.0
C2802 C 0.81006 0.81741 0.90956 0.0
C2803 C 0.8068 0.80716 0.90883 0.0
C2804 C 0.80721 0.8023 0.89927 0.0
C2805 C 0.81088 0.80757 0.89063 0.0
C2806 C 0.80273 0.80163 0.91799 0.0
C2807 C 0.79279 0.7974 0.91757 0.0
C2808 C 0.80834 0.80106 0.92729 0.0
C2809 C 0.81909 0.80483 0.92809 0.0
C2810 C 0.82661 0.80134 0.9213 0.0
C2811 C 0.83671 0.80496 0.92206 0.0
C2812 C 0.83941 0.81202 0.92962 0.0
C2813 C 0.83202 0.81546 0.93646 0.0
C2814 C 0.8219 0.81187 0.93573 0.0
C2815 C 0.78075 0.77373 0.95398 0.0
C2816 C 0.78072 0.77929 0.96319 0.0
C2817 C 0.78506 0.77793 0.94508 0.0
C2818 C 0.78932 0.78786 0.94511 0.0
C2819 C 0.78941 0.79337 0.95431 0.0
C2820 C 0.78519 0.78915 0.96323 0.0
C2821 C 0.79372 0.79252 0.93562 0.0
C2822 C 0.80374 0.79659 0.93597 0.0
C2823 C 0.78818 0.79295 0.92626 0.0
C2824 C 0.77742 0.78925 0.92542 0.0
C2825 C 0.76979 0.79316 0.93184 0.0
C2826 C 0.75968 0.78955 0.93107 0.0
C2827 C 0.75709 0.7821 0.92385 0.0
C2828 C 0.7646 0.77825 0.91737 0.0
C2829 C 0.77472 0.78182 0.91812 0.0
H2830 H 0.74926 0.77933 0.92325 0.0
H2831 H 0.84724 0.81482 0.9302 0.0
H2832 H 0.135 0.20942 0.21374 0.0
H2833 H 0.11997 0.21614 0.2225 0.0
H2834 H 0.10093 0.20777 0.19671 0.0
H2835 H 0.11591 0.20107 0.18792 0.0
H2836 H 0.09673 0.22654 0.20254 0.0
H2837 H 0.10048 0.19421 0.21969 0.0
H2838 H 0.10956 0.18086 0.22943 0.0
H2839 H 0.11468 0.20183 0.25416 0.0
H2840 H 0.10574 0.21536 0.2445 0.0
H2841 H 0.0479 0.2327 0.22492 0.0
H2842 H 0.06322 0.22545 0.21727 0.0
H2843 H 0.08129 0.23562 0.24309 0.0
H2844 H 0.06598 0.243 0.25077 0.0
H2845 H 0.08626 0.21628 0.23763 0.0
H2846 H 0.08231 0.24851 0.22053 0.0
H2847 H 0.07311 0.2618 0.21081 0.0
H2848 H 0.06835 0.24089 0.18595 0.0
H2849 H 0.0774 0.22742 0.19559 0.0
C2850 C 0.12759 0.20888 0.20999 0.0
C2851 C 0.12668 0.20471 0.20011 0.0
C2852 C 0.11899 0.21273 0.21501 0.0
C2853 C 0.10927 0.21241 0.21031 0.0
C2854 C 0.10834 0.20816 0.20049 0.0
C2855 C 0.11692 0.20434 0.19546 0.0
C2856 C 0.10011 0.21679 0.21544 0.0
C2857 C 0.09437 0.22418 0.21016 0.0
C2858 C 0.09716 0.21395 0.2255 0.0
C2859 C 0.10253 0.20583 0.23132 0.0
C2860 C 0.10361 0.196 0.22717 0.0
C2861 C 0.10872 0.18839 0.23268 0.0
C2862 C 0.11272 0.1905 0.2424 0.0
C2863 C 0.11159 0.20022 0.24663 0.0
C2864 C 0.1065 0.20785 0.24114 0.0
C2865 C 0.05514 0.23349 0.22894 0.0
C2866 C 0.05568 0.23852 0.23844 0.0
C2867 C 0.0639 0.22931 0.22457 0.0
C2868 C 0.07346 0.23009 0.22954 0.0
C2869 C 0.07401 0.23491 0.23911 0.0
C2870 C 0.06523 0.23911 0.2435 0.0
C2871 C 0.08285 0.22594 0.22468 0.0
C2872 C 0.08864 0.21863 0.23001 0.0
C2873 C 0.08586 0.22883 0.21466 0.0
C2874 C 0.08045 0.23693 0.20882 0.0
C2875 C 0.07924 0.24672 0.21302 0.0
C2876 C 0.07406 0.25429 0.20752 0.0
C2877 C 0.07013 0.25218 0.19778 0.0
C2878 C 0.07139 0.24251 0.1935 0.0
C2879 C 0.07655 0.23491 0.19898 0.0
H2880 H 0.06612 0.25805 0.19353 0.0
H2881 H 0.11667 0.1846 0.24666 0.0
H2882 H 0.83212 0.12325 0.21693 0.0
H2883 H 0.82334 0.10779 0.2229 0.0
H2884 H 0.796 0.11665 0.20655 0.0
H2885 H 0.80462 0.13241 0.20087 0.0
H2886 H 0.7912 0.10961 0.2251 0.0
H2887 H 0.81158 0.09781 0.19743 0.0
H2888 H 0.82728 0.09555 0.18729 0.0
H2889 H 0.84144 0.0799 0.21254 0.0
H2890 H 0.82586 0.08218 0.2229 0.0
H2891 H 0.7673 0.06024 0.22996 0.0
H2892 H 0.77514 0.07585 0.22289 0.0
H2893 H 0.80265 0.07024 0.24038 0.0
H2894 H 0.79493 0.05457 0.24737 0.0
H2895 H 0.80674 0.07551 0.22036 0.0
H2896 H 0.7862 0.08799 0.24811 0.0
H2897 H 0.77023 0.09012 0.25788 0.0
H2898 H 0.75605 0.10433 0.23178 0.0
H2899 H 0.77189 0.10215 0.22181 0.0
C2900 C 0.8242 0.12199 0.21467 0.0
C2901 C 0.81909 0.12911 0.20842 0.0
C2902 C 0.81923 0.11306 0.218 0.0
C2903 C 0.80905 0.11097 0.21506 0.0
C2904 C 0.80387 0.11808 0.20888 0.0
C2905 C 0.80885 0.12704 0.20557 0.0
C2906 C 0.80381 0.10141 0.21857 0.0
C2907 C 0.79452 0.10215 0.22391 0.0
C2908 C 0.8082 0.09166 0.21718 0.0
C2909 C 0.81758 0.09025 0.21097 0.0
C2910 C 0.81807 0.09395 0.20085 0.0
C2911 C 0.82694 0.09266 0.19506 0.0
C2912 C 0.83536 0.08761 0.19928 0.0
C2913 C 0.83491 0.08382 0.20929 0.0
C2914 C 0.82606 0.0851 0.21512 0.0
C2915 C 0.77504 0.06231 0.23226 0.0
C2916 C 0.78049 0.05618 0.23925 0.0
C2917 C 0.77948 0.07127 0.22827 0.0
C2918 C 0.78945 0.07425 0.23116 0.0
C2919 C 0.79494 0.0681 0.23806 0.0
C2920 C 0.79049 0.05919 0.24211 0.0
C2921 C 0.79423 0.08375 0.22697 0.0
C2922 C 0.80341 0.08299 0.22149 0.0
C2923 C 0.78971 0.09346 0.22817 0.0
C2924 C 0.78019 0.09481 0.23418 0.0
C2925 C 0.77964 0.09149 0.24442 0.0
C2926 C 0.77062 0.09272 0.25 0.0
C2927 C 0.76212 0.09733 0.24544 0.0
C2928 C 0.76263 0.10075 0.2353 0.0
C2929 C 0.77163 0.09952 0.22968 0.0
H2930 H 0.75514 0.09828 0.24978 0.0
H2931 H 0.84222 0.08661 0.19478 0.0
H2932 H 0.89856 0.8267 0.19968 0.0
H2933 H 0.91398 0.82049 0.20836 0.0
H2934 H 0.89834 0.79213 0.21557 0.0
H2935 H 0.88282 0.79839 0.20717 0.0
H2936 H 0.90956 0.79868 0.23166 0.0
H2937 H 0.91516 0.7938 0.19563 0.0
H2938 H 0.91633 0.79915 0.17753 0.0
H2939 H 0.94033 0.82059 0.18517 0.0
H2940 H 0.9392 0.81547 0.20334 0.0
H2941 H 0.95247 0.76798 0.24373 0.0
H2942 H 0.93704 0.77518 0.23604 0.0
H2943 H 0.95404 0.80244 0.22769 0.0
H2944 H 0.96964 0.79507 0.23488 0.0
H2945 H 0.94219 0.79698 0.21241 0.0
H2946 H 0.93697 0.80163 0.24838 0.0
H2947 H 0.93586 0.79631 0.26648 0.0
H2948 H 0.91126 0.77547 0.25911 0.0
H2949 H 0.9123 0.78058 0.24093 0.0
C2950 C 0.89835 0.81919 0.20323 0.0
C2951 C 0.88945 0.81302 0.20265 0.0
C2952 C 0.90721 0.81561 0.20811 0.0
C2953 C 0.90739 0.80577 0.2125 0.0
C2954 C 0.89842 0.79972 0.2122 0.0
C2955 C 0.88957 0.80329 0.20731 0.0
C2956 C 0.91694 0.80168 0.21723 0.0
C2957 C 0.91667 0.79821 0.22742 0.0
C2958 C 0.92629 0.80127 0.21179 0.0
C2959 C 0.92702 0.80433 0.20086 0.0
C2960 C 0.92063 0.79971 0.19346 0.0
C2961 C 0.9213 0.80269 0.18319 0.0
C2962 C 0.92838 0.81022 0.18021 0.0
C2963 C 0.93483 0.81477 0.18749 0.0
C2964 C 0.93419 0.81183 0.19778 0.0
C2965 C 0.95298 0.77547 0.24017 0.0
C2966 C 0.96235 0.78093 0.23997 0.0
C2967 C 0.94409 0.77964 0.23588 0.0
C2968 C 0.9443 0.78945 0.23141 0.0
C2969 C 0.95364 0.79489 0.23113 0.0
C2970 C 0.96255 0.7907 0.23536 0.0
C2971 C 0.93483 0.79395 0.22686 0.0
C2972 C 0.93511 0.79749 0.21669 0.0
C2973 C 0.92549 0.79445 0.23233 0.0
C2974 C 0.92478 0.79143 0.24328 0.0
C2975 C 0.93137 0.79587 0.25061 0.0
C2976 C 0.93074 0.7929 0.26088 0.0
C2977 C 0.92351 0.78554 0.26394 0.0
C2978 C 0.91686 0.78116 0.25673 0.0
C2979 C 0.91746 0.7841 0.24644 0.0
H2980 H 0.92304 0.78325 0.2719 0.0
H2981 H 0.92889 0.81252 0.17225 0.0
H2982 H 0.214 0.8831 0.2104 0.0
H2983 H 0.22309 0.89823 0.21692 0.0
H2984 H 0.19775 0.91715 0.20774 0.0
H2985 H 0.18873 0.90211 0.20099 0.0
H2986 H 0.21592 0.92622 0.20312 0.0
H2987 H 0.20075 0.90975 0.23254 0.0
H2988 H 0.19731 0.89539 0.24439 0.0
H2989 H 0.22945 0.89345 0.25136 0.0
H2990 H 0.23309 0.90773 0.23944 0.0
H2991 H 0.22527 0.97047 0.23278 0.0
H2992 H 0.218 0.95492 0.22527 0.0
H2993 H 0.24391 0.93776 0.23624 0.0
H2994 H 0.25107 0.95324 0.2441 0.0
H2995 H 0.22646 0.92743 0.23965 0.0
H2996 H 0.24161 0.94444 0.21089 0.0
H2997 H 0.24509 0.95882 0.19907 0.0
H2998 H 0.21321 0.95971 0.19077 0.0
H2999 H 0.20951 0.94542 0.20266 0.0
C3000 C 0.21042 0.8905 0.20965 0.0
C3001 C 0.2006 0.89137 0.20522 0.0
C3002 C 0.21559 0.89913 0.21346 0.0
C3003 C 0.21105 0.90882 0.21294 0.0
C3004 C 0.20139 0.90976 0.20827 0.0
C3005 C 0.19621 0.90113 0.20449 0.0
C3006 C 0.21625 0.91797 0.21743 0.0
C3007 C 0.21813 0.92652 0.21113 0.0
C3008 C 0.21939 0.91829 0.22782 0.0
C3009 C 0.21721 0.90973 0.23501 0.0
C3010 C 0.20709 0.90621 0.23654 0.0
C3011 C 0.2051 0.89809 0.24328 0.0
C3012 C 0.21316 0.89349 0.2486 0.0
C3013 C 0.22322 0.89701 0.24722 0.0
C3014 C 0.22525 0.90512 0.24047 0.0
C3015 C 0.2294 0.96338 0.23368 0.0
C3016 C 0.23877 0.96313 0.23906 0.0
C3017 C 0.22528 0.9545 0.22927 0.0
C3018 C 0.23047 0.94517 0.23006 0.0
C3019 C 0.23979 0.94487 0.23548 0.0
C3020 C 0.24391 0.95375 0.2399 0.0
C3021 C 0.22606 0.93573 0.22536 0.0
C3022 C 0.22432 0.92712 0.23162 0.0
C3023 C 0.22307 0.93535 0.21492 0.0
C3024 C 0.22527 0.94392 0.20774 0.0
C3025 C 0.23532 0.94775 0.20661 0.0
C3026 C 0.23734 0.95588 0.19989 0.0
C3027 C 0.22937 0.96019 0.19419 0.0
C3028 C 0.21937 0.95637 0.1952 0.0
C3029 C 0.21731 0.94825 0.20192 0.0
H3030 H 0.23095 0.96648 0.18899 0.0
H3031 H 0.2116 0.88721 0.25382 0.0
H3032 H 0.13712 0.80176 0.80789 0.0
H3033 H 0.12152 0.79562 0.79927 0.0
H3034 H 0.10321 0.81446 0.81889 0.0
H3035 H 0.11877 0.82056 0.82761 0.0
H3036 H 0.09586 0.79462 0.81758 0.0
H3037 H 0.10681 0.82138 0.79457 0.0
H3038 H 0.119 0.83058 0.78335 0.0
H3039 H 0.12145 0.80401 0.76437 0.0
H3040 H 0.10937 0.7946 0.77557 0.0
H3041 H 0.04822 0.7889 0.79234 0.0
H3042 H 0.06393 0.79596 0.79991 0.0
H3043 H 0.08195 0.77983 0.7777 0.0
H3044 H 0.06619 0.77293 0.76996 0.0
H3045 H 0.08967 0.79824 0.78024 0.0
H3046 H 0.07926 0.77126 0.80294 0.0
H3047 H 0.06742 0.76153 0.8141 0.0
H3048 H 0.0645 0.78763 0.83365 0.0
H3049 H 0.07622 0.79756 0.82251 0.0
C3050 C 0.12977 0.80459 0.81037 0.0
C3051 C 0.12918 0.81165 0.81843 0.0
C3052 C 0.12087 0.80113 0.80539 0.0
C3053 C 0.11121 0.80463 0.8084 0.0
C3054 C 0.11059 0.81168 0.81643 0.0
C3055 C 0.11949 0.81521 0.82135 0.0
C3056 C 0.10171 0.80069 0.80339 0.0
C3057 C 0.09443 0.79553 0.80944 0.0
C3058 C 0.10001 0.80161 0.79272 0.0
C3059 C 0.10727 0.80726 0.78597 0.0
C3060 C 0.11001 0.81747 0.78806 0.0
C3061 C 0.11689 0.82273 0.78169 0.0
C3062 C 0.12102 0.81787 0.77317 0.0
C3063 C 0.11826 0.80776 0.77098 0.0
C3064 C 0.11139 0.80246 0.77733 0.0
C3065 C 0.05554 0.78683 0.7891 0.0
C3066 C 0.05598 0.7803 0.78061 0.0
C3067 C 0.06452 0.79086 0.79344 0.0
C3068 C 0.07416 0.78829 0.78951 0.0
C3069 C 0.07461 0.78192 0.78089 0.0
C3070 C 0.06561 0.77798 0.77647 0.0
C3071 C 0.08375 0.79219 0.79444 0.0
C3072 C 0.09107 0.79732 0.78838 0.0
C3073 C 0.08555 0.79115 0.8051 0.0
C3074 C 0.07854 0.78519 0.81184 0.0
C3075 C 0.07603 0.77495 0.80957 0.0
C3076 C 0.06935 0.76939 0.8159 0.0
C3077 C 0.06519 0.77397 0.82456 0.0
C3078 C 0.06772 0.7841 0.82693 0.0
C3079 C 0.07439 0.78969 0.82062 0.0
H3080 H 0.06002 0.76965 0.82945 0.0
H3081 H 0.12634 0.82196 0.76825 0.0
H3082 H 0.21059 0.13407 0.80662 0.0
H3083 H 0.21734 0.11905 0.79795 0.0
H3084 H 0.20526 0.09961 0.82192 0.0
H3085 H 0.19853 0.11459 0.83063 0.0
H3086 H 0.22434 0.09452 0.81778 0.0
H3087 H 0.19409 0.1009 0.79767 0.0
H3088 H 0.18235 0.11118 0.78706 0.0
H3089 H 0.20613 0.11602 0.76486 0.0
H3090 H 0.21806 0.10587 0.77541 0.0
H3091 H 0.23097 0.04659 0.79395 0.0
H3092 H 0.22362 0.06181 0.80166 0.0
H3093 H 0.23627 0.08046 0.77737 0.0
H3094 H 0.24362 0.06522 0.76958 0.0
H3095 H 0.21715 0.08616 0.78143 0.0
H3096 H 0.24735 0.0798 0.80142 0.0
H3097 H 0.25918 0.06955 0.81197 0.0
H3098 H 0.23558 0.06482 0.83438 0.0
H3099 H 0.22357 0.07492 0.82389 0.0
C3100 C 0.20924 0.12658 0.80998 0.0
C3101 C 0.20402 0.12555 0.81934 0.0
C3102 C 0.21312 0.11799 0.80501 0.0
C3103 C 0.21175 0.10815 0.80922 0.0
C3104 C 0.20645 0.1071 0.81852 0.0
C3105 C 0.20262 0.11569 0.82351 0.0
C3106 C 0.21612 0.09898 0.80416 0.0
C3107 C 0.22264 0.09263 0.80987 0.0
C3108 C 0.21417 0.09663 0.79374 0.0
C3109 C 0.207 0.10271 0.78738 0.0
C3110 C 0.19684 0.10422 0.79057 0.0
C3111 C 0.19015 0.11002 0.78456 0.0
C3112 C 0.1935 0.11427 0.77531 0.0
C3113 C 0.20355 0.11273 0.77203 0.0
C3114 C 0.21028 0.10695 0.77802 0.0
C3115 C 0.23227 0.05394 0.79028 0.0
C3116 C 0.23796 0.05468 0.78118 0.0
C3117 C 0.22804 0.06265 0.7947 0.0
C3118 C 0.2295 0.07234 0.79019 0.0
C3119 C 0.23503 0.07309 0.781 0.0
C3120 C 0.23922 0.06436 0.77655 0.0
C3121 C 0.22529 0.08167 0.79509 0.0
C3122 C 0.21884 0.08806 0.78934 0.0
C3123 C 0.22731 0.08408 0.80547 0.0
C3124 C 0.23453 0.07804 0.81182 0.0
C3125 C 0.24466 0.07651 0.80856 0.0
C3126 C 0.2514 0.07074 0.81454 0.0
C3127 C 0.24813 0.06652 0.82383 0.0
C3128 C 0.23811 0.06808 0.82718 0.0
C3129 C 0.23133 0.07384 0.82122 0.0
H3130 H 0.25335 0.06205 0.82845 0.0
H3131 H 0.1883 0.11875 0.77066 0.0
H3132 H 0.88132 0.20991 0.8046 0.0
H3133 H 0.89659 0.21853 0.79772 0.0
H3134 H 0.91575 0.20069 0.81784 0.0
H3135 H 0.9005 0.19214 0.82486 0.0
H3136 H 0.92168 0.22106 0.81718 0.0
H3137 H 0.91352 0.19423 0.79323 0.0
H3138 H 0.9023 0.18455 0.78143 0.0
H3139 H 0.8982 0.2115 0.76299 0.0
H3140 H 0.9093 0.22138 0.77477 0.0
H3141 H 0.96984 0.22964 0.79362 0.0
H3142 H 0.95424 0.22208 0.80087 0.0
H3143 H 0.93609 0.23752 0.77795 0.0
H3144 H 0.95173 0.24496 0.77055 0.0
H3145 H 0.92929 0.21881 0.78008 0.0
H3146 H 0.9375 0.24571 0.80348 0.0
H3147 H 0.94841 0.25578 0.81526 0.0
H3148 H 0.95199 0.22945 0.83468 0.0
H3149 H 0.94121 0.21918 0.82294 0.0
C3150 C 0.88878 0.2079 0.80765 0.0
C3151 C 0.88969 0.2003 0.81526 0.0
C3152 C 0.8975 0.21278 0.80365 0.0
C3153 C 0.90733 0.21018 0.80719 0.0
C3154 C 0.90825 0.20279 0.81497 0.0
C3155 C 0.89953 0.19786 0.81892 0.0
C3156 C 0.91666 0.21504 0.80267 0.0
C3157 C 0.92342 0.22047 0.80909 0.0
C3158 C 0.91878 0.21451 0.79207 0.0
C3159 C 0.91216 0.20857 0.78494 0.0
C3160 C 0.91016 0.19811 0.78671 0.0
C3161 C 0.90384 0.19259 0.78001 0.0
C3162 C 0.89952 0.19742 0.77148 0.0
C3163 C 0.90154 0.20778 0.76961 0.0
C3164 C 0.90786 0.21334 0.77629 0.0
C3165 C 0.96252 0.23149 0.79017 0.0
C3166 C 0.96202 0.23794 0.78154 0.0
C3167 C 0.95359 0.22717 0.79434 0.0
C3168 C 0.94393 0.22935 0.79008 0.0
C3169 C 0.94343 0.23572 0.78139 0.0
C3170 C 0.95237 0.23996 0.77716 0.0
C3171 C 0.93439 0.22484 0.79458 0.0
C3172 C 0.92757 0.21945 0.78816 0.0
C3173 C 0.93217 0.22549 0.80518 0.0
C3174 C 0.93862 0.23165 0.81228 0.0
C3175 C 0.94067 0.24205 0.81022 0.0
C3176 C 0.94682 0.24779 0.8169 0.0
C3177 C 0.95091 0.24325 0.8257 0.0
C3178 C 0.94883 0.23295 0.82786 0.0
C3179 C 0.94269 0.22717 0.8212 0.0
H3180 H 0.95567 0.24771 0.83086 0.0
H3181 H 0.89462 0.19312 0.7663 0.0
H3182 H 0.80653 0.88989 0.82419 0.0
H3183 H 0.7982 0.9055 0.81819 0.0
H3184 H 0.82045 0.90848 0.79399 0.0
H3185 H 0.82906 0.89318 0.80019 0.0
H3186 H 0.81745 0.92643 0.80233 0.0
H3187 H 0.79548 0.89945 0.78973 0.0
H3188 H 0.78449 0.88403 0.79106 0.0
H3189 H 0.76426 0.89977 0.8113 0.0
H3190 H 0.77522 0.91525 0.8102 0.0
H3191 H 0.79208 0.96142 0.76961 0.0
H3192 H 0.79979 0.94607 0.77689 0.0
H3193 H 0.77787 0.94625 0.8015 0.0
H3194 H 0.7702 0.96174 0.79437 0.0
H3195 H 0.78035 0.92701 0.79379 0.0
H3196 H 0.80208 0.95421 0.8058 0.0
H3197 H 0.81302 0.96964 0.80421 0.0
H3198 H 0.8337 0.9534 0.78484 0.0
H3199 H 0.8228 0.93791 0.78619 0.0
C3200 C 0.80972 0.89391 0.81764 0.0
C3201 C 0.81846 0.8902 0.81265 0.0
C3202 C 0.80487 0.90279 0.81415 0.0
C3203 C 0.80859 0.90813 0.80553 0.0
C3204 C 0.81738 0.9045 0.80062 0.0
C3205 C 0.82224 0.89566 0.80412 0.0
C3206 C 0.80345 0.91753 0.80165 0.0
C3207 C 0.80936 0.9265 0.80035 0.0
C3208 C 0.79283 0.91776 0.79931 0.0
C3209 C 0.78623 0.90847 0.79997 0.0
C3210 C 0.78874 0.8996 0.79453 0.0
C3211 C 0.7825 0.89085 0.79523 0.0
C3212 C 0.7737 0.89091 0.80128 0.0
C3213 C 0.77109 0.89973 0.80663 0.0
C3214 C 0.77731 0.90849 0.80597 0.0
C3215 C 0.78894 0.95828 0.77663 0.0
C3216 C 0.78054 0.96291 0.78142 0.0
C3217 C 0.79335 0.94946 0.78077 0.0
C3218 C 0.78949 0.94505 0.78982 0.0
C3219 C 0.78098 0.94951 0.79452 0.0
C3220 C 0.77658 0.95836 0.79039 0.0
C3221 C 0.79438 0.93583 0.79436 0.0
C3222 C 0.78843 0.92692 0.79581 0.0
C3223 C 0.80497 0.93563 0.79681 0.0
C3224 C 0.81157 0.94493 0.79602 0.0
C3225 C 0.80892 0.95395 0.80113 0.0
C3226 C 0.81512 0.9627 0.80029 0.0
C3227 C 0.82404 0.96251 0.79441 0.0
C3228 C 0.82679 0.95355 0.78938 0.0
C3229 C 0.8206 0.94477 0.79019 0.0
H3230 H 0.82883 0.96929 0.79376 0.0
H3231 H 0.76888 0.88413 0.80181 0.0
H3232 H 0.21158 0.13561 0.21155 0.0
H3233 H 0.22041 0.12057 0.21829 0.0
H3234 H 0.19529 0.1013 0.20822 0.0
H3235 H 0.18643 0.11629 0.20151 0.0
H3236 H 0.20058 0.09636 0.22711 0.0
H3237 H 0.21878 0.10208 0.19569 0.0
H3238 H 0.22878 0.11204 0.18304 0.0
H3239 H 0.25267 0.11691 0.20528 0.0
H3240 H 0.24275 0.1071 0.21811 0.0
H3241 H 0.22404 0.04814 0.23321 0.0
H3242 H 0.21619 0.06345 0.22599 0.0
H3243 H 0.24128 0.08187 0.23754 0.0
H3244 H 0.24918 0.06657 0.24486 0.0
H3245 H 0.23631 0.08745 0.21819 0.0
H3246 H 0.21812 0.08157 0.24953 0.0
H3247 H 0.20813 0.07151 0.26211 0.0
H3248 H 0.18417 0.06692 0.23989 0.0
H3249 H 0.19408 0.07683 0.22713 0.0
C3250 C 0.208 0.12815 0.21065 0.0
C3251 C 0.19828 0.12718 0.20599 0.0
C3252 C 0.21305 0.11955 0.21451 0.0
C3253 C 0.20856 0.10975 0.21371 0.0
C3254 C 0.19891 0.10876 0.20898 0.0
C3255 C 0.19383 0.11735 0.20516 0.0
C3256 C 0.21375 0.10057 0.21805 0.0
C3257 C 0.20834 0.09435 0.22504 0.0
C3258 C 0.22399 0.09805 0.2156 0.0
C3259 C 0.22997 0.10394 0.20789 0.0
C3260 C 0.22613 0.10535 0.19791 0.0
C3261 C 0.23179 0.11095 0.1907 0.0
C3262 C 0.24134 0.11513 0.19336 0.0
C3263 C 0.24526 0.11369 0.20323 0.0
C3264 C 0.23963 0.1081 0.21047 0.0
C3265 C 0.22786 0.05545 0.23431 0.0
C3266 C 0.23722 0.0561 0.2397 0.0
C3267 C 0.22336 0.06421 0.23015 0.0
C3268 C 0.22807 0.07386 0.23132 0.0
C3269 C 0.2375 0.07453 0.23652 0.0
C3270 C 0.24202 0.06575 0.24069 0.0
C3271 C 0.22309 0.08323 0.22717 0.0
C3272 C 0.22854 0.08948 0.22025 0.0
C3273 C 0.21288 0.08579 0.22967 0.0
C3274 C 0.20688 0.07986 0.23735 0.0
C3275 C 0.21075 0.07835 0.2473 0.0
C3276 C 0.2051 0.07268 0.25447 0.0
C3277 C 0.19553 0.06856 0.25179 0.0
C3278 C 0.19158 0.07011 0.24195 0.0
C3279 C 0.19721 0.07576 0.23475 0.0
H3280 H 0.19117 0.06417 0.25735 0.0
H3281 H 0.24571 0.11946 0.18777 0.0
H3282 H 0.19001 0.89173 0.79958 0.0
H3283 H 0.19906 0.90679 0.79305 0.0
H3284 H 0.22058 0.90506 0.81817 0.0
H3285 H 0.21124 0.89022 0.82505 0.0
H3286 H 0.21527 0.92427 0.81501 0.0
H3287 H 0.22706 0.89731 0.79383 0.0
H3288 H 0.22558 0.88239 0.78243 0.0
H3289 H 0.20924 0.90045 0.76032 0.0
H3290 H 0.21049 0.91544 0.77166 0.0
H3291 H 0.2507 0.95946 0.79169 0.0
H3292 H 0.24299 0.94394 0.799 0.0
H3293 H 0.21853 0.94531 0.77673 0.0
H3294 H 0.22601 0.96096 0.76952 0.0
H3295 H 0.22647 0.9259 0.77878 0.0
H3296 H 0.21435 0.95272 0.80073 0.0
H3297 H 0.21633 0.9675 0.81226 0.0
H3298 H 0.23419 0.94935 0.83307 0.0
H3299 H 0.23243 0.9345 0.82159 0.0
C3300 C 0.19659 0.8946 0.80381 0.0
C3301 C 0.19987 0.88973 0.81287 0.0
C3302 C 0.20185 0.90315 0.79998 0.0
C3303 C 0.21061 0.90698 0.80501 0.0
C3304 C 0.21387 0.90221 0.81411 0.0
C3305 C 0.20857 0.89367 0.81799 0.0
C3306 C 0.21626 0.91602 0.80082 0.0
C3307 C 0.21787 0.92455 0.80714 0.0
C3308 C 0.21954 0.91647 0.7905 0.0
C3309 C 0.21879 0.90748 0.78364 0.0
C3310 C 0.22308 0.89808 0.78657 0.0
C3311 C 0.2223 0.88961 0.78011 0.0
C3312 C 0.2173 0.89046 0.77067 0.0
C3313 C 0.2131 0.8998 0.76765 0.0
C3314 C 0.21385 0.90829 0.77408 0.0
C3315 C 0.24362 0.95654 0.7884 0.0
C3316 C 0.23898 0.96151 0.78002 0.0
C3317 C 0.23925 0.94763 0.79257 0.0
C3318 C 0.23015 0.9435 0.78845 0.0
C3319 C 0.22558 0.94835 0.78 0.0
C3320 C 0.2299 0.95728 0.77586 0.0
C3321 C 0.22535 0.93416 0.79293 0.0
C3322 C 0.22392 0.92557 0.78667 0.0
C3323 C 0.22233 0.93363 0.80332 0.0
C3324 C 0.22335 0.94254 0.81025 0.0
C3325 C 0.21877 0.95191 0.80773 0.0
C3326 C 0.21984 0.96029 0.81426 0.0
C3327 C 0.22541 0.95937 0.82338 0.0
C3328 C 0.22989 0.95006 0.82599 0.0
C3329 C 0.22886 0.94165 0.81948 0.0
H3330 H 0.22622 0.96587 0.82843 0.0
H3331 H 0.2167 0.8839 0.76568 0.0
H3332 H 0.1272 0.20943 0.82493 0.0
H3333 H 0.11237 0.2186 0.81818 0.0
H3334 H 0.10921 0.19645 0.79399 0.0
H3335 H 0.12427 0.18751 0.80041 0.0
H3336 H 0.10664 0.21496 0.78649 0.0
H3337 H 0.09339 0.19626 0.81546 0.0
H3338 H 0.09262 0.1908 0.83354 0.0
H3339 H 0.08786 0.22185 0.84275 0.0
H3340 H 0.08874 0.22753 0.82472 0.0
H3341 H 0.05552 0.22457 0.77057 0.0
H3342 H 0.07105 0.21688 0.77755 0.0
H3343 H 0.07361 0.24109 0.79972 0.0
H3344 H 0.05817 0.24896 0.79267 0.0
H3345 H 0.07674 0.2224 0.80847 0.0
H3346 H 0.08929 0.24091 0.7793 0.0
H3347 H 0.0898 0.24621 0.76116 0.0
H3348 H 0.0957 0.21527 0.75228 0.0
H3349 H 0.09507 0.20976 0.77036 0.0
C3350 C 0.12342 0.20656 0.81812 0.0
C3351 C 0.12693 0.19767 0.81327 0.0
C3352 C 0.11486 0.21176 0.81432 0.0
C3353 C 0.10954 0.20815 0.80564 0.0
C3354 C 0.11312 0.19937 0.80072 0.0
C3355 C 0.12169 0.1942 0.80448 0.0
C3356 C 0.10029 0.2135 0.80163 0.0
C3357 C 0.10006 0.21647 0.79128 0.0
C3358 C 0.09178 0.21573 0.80791 0.0
C3359 C 0.09124 0.21233 0.81875 0.0
C3360 C 0.09226 0.20194 0.82135 0.0
C3361 C 0.09179 0.1988 0.83158 0.0
C3362 C 0.09022 0.20597 0.83929 0.0
C3363 C 0.08909 0.2163 0.83678 0.0
C3364 C 0.08957 0.21948 0.82655 0.0
C3365 C 0.05944 0.22836 0.77684 0.0
C3366 C 0.05557 0.23744 0.781 0.0
C3367 C 0.06832 0.22392 0.78085 0.0
C3368 C 0.07357 0.22845 0.78911 0.0
C3369 C 0.06969 0.23744 0.79336 0.0
C3370 C 0.06082 0.24191 0.78933 0.0
C3371 C 0.08306 0.22375 0.79332 0.0
C3372 C 0.08334 0.22091 0.8037 0.0
C3373 C 0.09161 0.22161 0.78707 0.0
C3374 C 0.09204 0.22491 0.77618 0.0
C3375 C 0.09062 0.23522 0.77348 0.0
C3376 C 0.09094 0.23827 0.7632 0.0
C3377 C 0.09276 0.23107 0.75557 0.0
C3378 C 0.09428 0.22083 0.7582 0.0
C3379 C 0.09395 0.21774 0.76846 0.0
H3380 H 0.09301 0.23344 0.74762 0.0
H3381 H 0.08985 0.20353 0.84721 0.0
H3382 H 0.8205 0.13059 0.8084 0.0
H3383 H 0.81444 0.11503 0.79986 0.0
H3384 H 0.79347 0.10909 0.8247 0.0
H3385 H 0.79978 0.12436 0.83347 0.0
H3386 H 0.80248 0.09199 0.81935 0.0
H3387 H 0.78548 0.1192 0.8013 0.0
H3388 H 0.78449 0.13529 0.79142 0.0
H3389 H 0.80279 0.12231 0.76764 0.0
H3390 H 0.804 0.10618 0.77745 0.0
H3391 H 0.76937 0.05569 0.79594 0.0
H3392 H 0.77642 0.07116 0.80383 0.0
H3393 H 0.79734 0.07501 0.77858 0.0
H3394 H 0.79009 0.0597 0.77047 0.0
H3395 H 0.78907 0.093 0.78375 0.0
H3396 H 0.80559 0.06559 0.80157 0.0
H3397 H 0.80649 0.04948 0.81141 0.0
H3398 H 0.78906 0.06281 0.83563 0.0
H3399 H 0.78793 0.07897 0.82587 0.0
C3400 C 0.81467 0.12592 0.8121 0.0
C3401 C 0.8106 0.1288 0.82161 0.0
C3402 C 0.81113 0.11707 0.80715 0.0
C3403 C 0.80338 0.11094 0.81155 0.0
C3404 C 0.79942 0.11371 0.82111 0.0
C3405 C 0.80297 0.12252 0.82607 0.0
C3406 C 0.7994 0.10161 0.80628 0.0
C3407 C 0.79944 0.09225 0.81161 0.0
C3408 C 0.79567 0.10185 0.79607 0.0
C3409 C 0.79492 0.11153 0.79016 0.0
C3410 C 0.78936 0.11981 0.794 0.0
C3411 C 0.78875 0.12893 0.78841 0.0
C3412 C 0.7936 0.12983 0.77892 0.0
C3413 C 0.79905 0.12161 0.775 0.0
C3414 C 0.7997 0.11247 0.78057 0.0
C3415 C 0.77539 0.05987 0.792 0.0
C3416 C 0.77917 0.05641 0.78257 0.0
C3417 C 0.7795 0.06867 0.79658 0.0
C3418 C 0.78752 0.07419 0.79188 0.0
C3419 C 0.79119 0.07086 0.78239 0.0
C3420 C 0.78709 0.06205 0.7778 0.0
C3421 C 0.79206 0.08342 0.79687 0.0
C3422 C 0.79214 0.09275 0.79149 0.0
C3423 C 0.7959 0.08316 0.80703 0.0
C3424 C 0.7966 0.07346 0.81294 0.0
C3425 C 0.80188 0.06507 0.80896 0.0
C3426 C 0.80244 0.05593 0.81453 0.0
C3427 C 0.79781 0.05512 0.82413 0.0
C3428 C 0.79263 0.06345 0.82819 0.0
C3429 C 0.79204 0.0726 0.82264 0.0
H3430 H 0.79826 0.04803 0.82843 0.0
H3431 H 0.79311 0.1369 0.77461 0.0
H3432 H 0.88276 0.80757 0.80641 0.0
H3433 H 0.89778 0.80103 0.7975 0.0
H3434 H 0.91746 0.81303 0.82131 0.0
H3435 H 0.90252 0.81981 0.83012 0.0
H3436 H 0.92566 0.81651 0.80266 0.0
H3437 H 0.91103 0.78776 0.82067 0.0
H3438 H 0.89731 0.77562 0.82564 0.0
H3439 H 0.894 0.7661 0.79437 0.0
H3440 H 0.90762 0.7783 0.78919 0.0
H3441 H 0.97051 0.78774 0.79377 0.0
H3442 H 0.95512 0.79513 0.80118 0.0
H3443 H 0.93684 0.78246 0.77663 0.0
H3444 H 0.95219 0.77482 0.7693 0.0
H3445 H 0.92764 0.77948 0.79492 0.0
H3446 H 0.94281 0.8078 0.77702 0.0
H3447 H 0.95661 0.81989 0.77213 0.0
H3448 H 0.95898 0.8302 0.80322 0.0
H3449 H 0.94528 0.81806 0.80833 0.0
C3450 C 0.89029 0.80894 0.80969 0.0
C3451 C 0.89141 0.81418 0.81903 0.0
C3452 C 0.89887 0.80511 0.80463 0.0
C3453 C 0.90876 0.80641 0.8088 0.0
C3454 C 0.90992 0.81188 0.81796 0.0
C3455 C 0.90135 0.81569 0.82303 0.0
C3456 C 0.91788 0.80193 0.80372 0.0
C3457 C 0.92613 0.8084 0.80107 0.0
C3458 C 0.91844 0.79138 0.80142 0.0
C3459 C 0.91026 0.78402 0.80452 0.0
C3460 C 0.90732 0.78314 0.81484 0.0
C3461 C 0.89957 0.77624 0.8177 0.0
C3462 C 0.89476 0.77011 0.81032 0.0
C3463 C 0.89771 0.77086 0.80007 0.0
C3464 C 0.90545 0.77777 0.79717 0.0
C3465 C 0.96321 0.78645 0.78997 0.0
C3466 C 0.96261 0.78067 0.78092 0.0
C3467 C 0.95442 0.79077 0.79417 0.0
C3468 C 0.94481 0.78946 0.78941 0.0
C3469 C 0.94416 0.78362 0.78043 0.0
C3470 C 0.95296 0.77932 0.7762 0.0
C3471 C 0.93545 0.79405 0.7939 0.0
C3472 C 0.92715 0.78761 0.79646 0.0
C3473 C 0.93486 0.80463 0.79612 0.0
C3474 C 0.94308 0.81195 0.79307 0.0
C3475 C 0.94633 0.81259 0.78283 0.0
C3476 C 0.95413 0.81946 0.78002 0.0
C3477 C 0.95869 0.82579 0.78737 0.0
C3478 C 0.95545 0.82528 0.79754 0.0
C3479 C 0.94766 0.81841 0.8004 0.0
H3480 H 0.96472 0.83111 0.78517 0.0
H3481 H 0.88876 0.76477 0.81256 0.0
H3482 H 0.82951 0.89433 0.21867 0.0
H3483 H 0.82083 0.90951 0.22486 0.0
H3484 H 0.79693 0.90511 0.20233 0.0
H3485 H 0.80553 0.88978 0.19614 0.0
H3486 H 0.80273 0.92516 0.2036 0.0
H3487 H 0.79264 0.89877 0.22702 0.0
H3488 H 0.79517 0.88444 0.23908 0.0
H3489 H 0.81288 0.904 0.25887 0.0
H3490 H 0.81058 0.91842 0.24685 0.0
H3491 H 0.76839 0.96031 0.22702 0.0
H3492 H 0.77607 0.94497 0.21985 0.0
H3493 H 0.80103 0.94738 0.2415 0.0
H3494 H 0.79351 0.96281 0.2486 0.0
H3495 H 0.7938 0.92795 0.24036 0.0
H3496 H 0.80427 0.95421 0.21657 0.0
H3497 H 0.80167 0.96849 0.20446 0.0
H3498 H 0.78301 0.9491 0.18535 0.0
H3499 H 0.78539 0.93473 0.19743 0.0
C3500 C 0.82235 0.8965 0.21508 0.0
C3501 C 0.81818 0.89072 0.20696 0.0
C3502 C 0.81741 0.90522 0.21861 0.0
C3503 C 0.80814 0.90839 0.21417 0.0
C3504 C 0.80406 0.90282 0.2059 0.0
C3505 C 0.80901 0.89406 0.20235 0.0
C3506 C 0.80273 0.91748 0.21823 0.0
C3507 C 0.80063 0.9257 0.2116 0.0
C3508 C 0.80014 0.9183 0.22871 0.0
C3509 C 0.80151 0.90965 0.23598 0.0
C3510 C 0.79714 0.9 0.2339 0.0
C3511 C 0.79852 0.89186 0.24074 0.0
C3512 C 0.8042 0.8933 0.24972 0.0
C3513 C 0.80849 0.90289 0.2519 0.0
C3514 C 0.80714 0.91105 0.24508 0.0
C3515 C 0.77557 0.95766 0.23019 0.0
C3516 C 0.78032 0.96285 0.23841 0.0
C3517 C 0.77995 0.94885 0.22609 0.0
C3518 C 0.78918 0.94504 0.23008 0.0
C3519 C 0.79389 0.95014 0.23831 0.0
C3520 C 0.78954 0.95896 0.2424 0.0
C3521 C 0.79391 0.93568 0.22576 0.0
C3522 C 0.79586 0.9274 0.23234 0.0
C3523 C 0.79634 0.93481 0.21524 0.0
C3524 C 0.79491 0.94343 0.20796 0.0
C3525 C 0.79954 0.95302 0.20983 0.0
C3526 C 0.79812 0.96112 0.20296 0.0
C3527 C 0.79215 0.95971 0.19416 0.0
C3528 C 0.78762 0.95018 0.19219 0.0
C3529 C 0.789 0.94206 0.19904 0.0
H3530 H 0.79107 0.966 0.18885 0.0
H3531 H 0.80526 0.88699 0.255 0.0
H3532 H 0.13628 0.80205 0.20992 0.0
H3533 H 0.12112 0.79531 0.21878 0.0
H3534 H 0.10209 0.81664 0.20234 0.0
H3535 H 0.11724 0.82353 0.19356 0.0
H3536 H 0.09706 0.81539 0.22278 0.0
H3537 H 0.10286 0.79221 0.19493 0.0
H3538 H 0.11304 0.78044 0.18448 0.0
H3539 H 0.11752 0.76096 0.21066 0.0
H3540 H 0.10748 0.7727 0.2213 0.0
H3541 H 0.04827 0.79283 0.23194 0.0
H3542 H 0.06384 0.79994 0.2242 0.0
H3543 H 0.08167 0.77616 0.23849 0.0
H3544 H 0.06606 0.76892 0.24612 0.0
H3545 H 0.08766 0.77866 0.21957 0.0
H3546 H 0.08174 0.80136 0.24746 0.0
H3547 H 0.07181 0.81309 0.2582 0.0
H3548 H 0.06793 0.83341 0.23257 0.0
H3549 H 0.07772 0.82173 0.22163 0.0
C3550 C 0.12888 0.80539 0.20827 0.0
C3551 C 0.12797 0.81331 0.201 0.0
C3552 C 0.12021 0.80147 0.21329 0.0
C3553 C 0.11044 0.80539 0.21115 0.0
C3554 C 0.10954 0.81347 0.20409 0.0
C3555 C 0.1182 0.81735 0.19902 0.0
C3556 C 0.10115 0.80098 0.21614 0.0
C3557 C 0.09493 0.80738 0.22199 0.0
C3558 C 0.09851 0.79048 0.21533 0.0
C3559 C 0.10451 0.78339 0.20893 0.0
C3560 C 0.10608 0.78546 0.19848 0.0
C3561 C 0.11182 0.77879 0.19252 0.0
C3562 C 0.11595 0.76997 0.19691 0.0
C3563 C 0.11433 0.7678 0.20727 0.0
C3564 C 0.10861 0.77445 0.21327 0.0
C3565 C 0.05552 0.78917 0.23351 0.0
C3566 C 0.05592 0.78034 0.23969 0.0
C3567 C 0.06443 0.79325 0.22908 0.0
C3568 C 0.07399 0.78869 0.23087 0.0
C3569 C 0.0744 0.77983 0.23698 0.0
C3570 C 0.06547 0.77569 0.24133 0.0
C3571 C 0.08352 0.79307 0.22622 0.0
C3572 C 0.08979 0.78666 0.22042 0.0
C3573 C 0.08624 0.80356 0.22713 0.0
C3574 C 0.08039 0.81062 0.2337 0.0
C3575 C 0.07871 0.8083 0.24409 0.0
C3576 C 0.07312 0.81494 0.25022 0.0
C3577 C 0.06923 0.82397 0.24607 0.0
C3578 C 0.07094 0.8264 0.23578 0.0
C3579 C 0.07652 0.81978 0.22961 0.0
H3580 H 0.0649 0.82911 0.25082 0.0
H3581 H 0.12038 0.76481 0.19228 0.0
H3582 H 0.90049 0.20359 0.18829 0.0
H3583 H 0.91572 0.20994 0.19734 0.0
H3584 H 0.8972 0.21694 0.2236 0.0
H3585 H 0.88187 0.21077 0.2145 0.0
H3586 H 0.91019 0.23265 0.21873 0.0
H3587 H 0.91274 0.19656 0.22417 0.0
H3588 H 0.91314 0.17839 0.21923 0.0
H3589 H 0.93974 0.18424 0.20075 0.0
H3590 H 0.93942 0.20248 0.20547 0.0
H3591 H 0.95266 0.2435 0.25142 0.0
H3592 H 0.93704 0.23598 0.2441 0.0
H3593 H 0.95398 0.2266 0.21753 0.0
H3594 H 0.96971 0.23369 0.22499 0.0
H3595 H 0.94137 0.21174 0.22345 0.0
H3596 H 0.93835 0.24787 0.2172 0.0
H3597 H 0.93799 0.2661 0.22192 0.0
H3598 H 0.91232 0.26025 0.24166 0.0
H3599 H 0.91261 0.24195 0.23716 0.0
C3600 C 0.89965 0.20651 0.19598 0.0
C3601 C 0.88996 0.20668 0.20067 0.0
C3602 C 0.90837 0.21006 0.20118 0.0
C3603 C 0.90762 0.21384 0.21118 0.0
C3604 C 0.89797 0.21402 0.2159 0.0
C3605 C 0.88923 0.21043 0.21072 0.0
C3606 C 0.91687 0.21784 0.2166 0.0
C3607 C 0.91695 0.22803 0.21992 0.0
C3608 C 0.92577 0.21188 0.21794 0.0
C3609 C 0.926 0.20091 0.2151 0.0
C3610 C 0.91863 0.19399 0.21898 0.0
C3611 C 0.91885 0.18367 0.21624 0.0
C3612 C 0.92645 0.18017 0.20966 0.0
C3613 C 0.93386 0.18697 0.20584 0.0
C3614 C 0.93366 0.19729 0.20855 0.0
C3615 C 0.9531 0.23974 0.24407 0.0
C3616 C 0.96246 0.23925 0.23878 0.0
C3617 C 0.94413 0.23553 0.23984 0.0
C3618 C 0.94429 0.23084 0.23019 0.0
C3619 C 0.95364 0.23022 0.22497 0.0
C3620 C 0.96262 0.23438 0.2292 0.0
C3621 C 0.93474 0.22659 0.2255 0.0
C3622 C 0.9346 0.21635 0.22232 0.0
C3623 C 0.92579 0.23252 0.22424 0.0
C3624 C 0.92557 0.24352 0.22692 0.0
C3625 C 0.93267 0.25046 0.2226 0.0
C3626 C 0.93247 0.26081 0.22523 0.0
C3627 C 0.92515 0.26432 0.2321 0.0
C3628 C 0.91799 0.25751 0.23635 0.0
C3629 C 0.91817 0.24715 0.23375 0.0
H3630 H 0.92501 0.27234 0.23413 0.0
H3631 H 0.92661 0.17218 0.20755 0.0
H3632 H 0.21919 0.70616 0.63647 0.0
H3633 H 0.22547 0.71461 0.62094 0.0
H3634 H 0.19816 0.70498 0.60473 0.0
H3635 H 0.19194 0.69628 0.62019 0.0
H3636 H 0.21507 0.70152 0.59356 0.0
H3637 H 0.20153 0.72981 0.61203 0.0
H3638 H 0.19928 0.74115 0.62686 0.0
H3639 H 0.23133 0.74904 0.62626 0.0
H3640 H 0.2338 0.73763 0.61151 0.0
H3641 H 0.22383 0.73199 0.54926 0.0
H3642 H 0.21642 0.7246 0.5648 0.0
H3643 H 0.24292 0.73455 0.5821 0.0
H3644 H 0.25021 0.74234 0.56666 0.0
H3645 H 0.22592 0.73801 0.59263 0.0
H3646 H 0.23959 0.70937 0.57455 0.0
H3647 H 0.24194 0.69797 0.55979 0.0
H3648 H 0.20975 0.69065 0.55974 0.0
H3649 H 0.20719 0.70212 0.57442 0.0
C3650 C 0.21452 0.70581 0.6296 0.0
C3651 C 0.20505 0.70052 0.6296 0.0
C3652 C 0.21808 0.71073 0.62074 0.0
C3653 C 0.21226 0.71052 0.61166 0.0
C3654 C 0.20279 0.70528 0.61164 0.0
C3655 C 0.1992 0.70038 0.62051 0.0
C3656 C 0.21619 0.71551 0.60214 0.0
C3657 C 0.21729 0.70954 0.59332 0.0
C3658 C 0.21933 0.72591 0.60186 0.0
C3659 C 0.21787 0.73279 0.61073 0.0
C3660 C 0.20812 0.7339 0.61511 0.0
C3661 C 0.2068 0.74035 0.62349 0.0
C3662 C 0.21516 0.74579 0.62751 0.0
C3663 C 0.22486 0.74481 0.62314 0.0
C3664 C 0.22622 0.73836 0.61477 0.0
C3665 C 0.22805 0.73272 0.55638 0.0
C3666 C 0.23765 0.73776 0.55666 0.0
C3667 C 0.22384 0.72838 0.56526 0.0
C3668 C 0.22916 0.72887 0.57463 0.0
C3669 C 0.23867 0.73402 0.57497 0.0
C3670 C 0.24288 0.73839 0.5661 0.0
C3671 C 0.22484 0.72401 0.58405 0.0
C3672 C 0.22367 0.72999 0.59286 0.0
C3673 C 0.22165 0.71361 0.58433 0.0
C3674 C 0.22318 0.70669 0.57552 0.0
C3675 C 0.233 0.70539 0.57134 0.0
C3676 C 0.23437 0.69891 0.563 0.0
C3677 C 0.226 0.69361 0.55881 0.0
C3678 C 0.21623 0.69477 0.56298 0.0
C3679 C 0.21481 0.70126 0.57132 0.0
H3680 H 0.22707 0.68859 0.55235 0.0
H3681 H 0.21412 0.75078 0.634 0.0
H3682 H 0.81426 0.68772 0.61907 0.0
H3683 H 0.80805 0.69687 0.60394 0.0
H3684 H 0.80198 0.72332 0.62246 0.0
H3685 H 0.80801 0.71412 0.63769 0.0
H3686 H 0.78599 0.71881 0.60973 0.0
H3687 H 0.82227 0.7234 0.60661 0.0
H3688 H 0.84033 0.71807 0.606 0.0
H3689 H 0.83376 0.69959 0.57964 0.0
H3690 H 0.81562 0.7047 0.58018 0.0
H3691 H 0.77561 0.75124 0.5671 0.0
H3692 H 0.78308 0.74397 0.58268 0.0
H3693 H 0.79167 0.71705 0.56596 0.0
H3694 H 0.78465 0.72446 0.55026 0.0
H3695 H 0.80681 0.72282 0.57824 0.0
H3696 H 0.77042 0.71738 0.58191 0.0
H3697 H 0.7523 0.72253 0.58251 0.0
H3698 H 0.75901 0.74238 0.60782 0.0
H3699 H 0.77721 0.73745 0.60727 0.0
C3700 C 0.81158 0.69548 0.61993 0.0
C3701 C 0.81162 0.70019 0.62959 0.0
C3702 C 0.80811 0.70073 0.61126 0.0
C3703 C 0.80463 0.71082 0.61204 0.0
C3704 C 0.80466 0.71555 0.62167 0.0
C3705 C 0.80818 0.71031 0.63035 0.0
C3706 C 0.80071 0.71629 0.60285 0.0
C3707 C 0.79059 0.71984 0.6029 0.0
C3708 C 0.80665 0.71744 0.59386 0.0
C3709 C 0.81756 0.71437 0.5935 0.0
C3710 C 0.82466 0.71813 0.60074 0.0
C3711 C 0.83491 0.71517 0.60039 0.0
C3712 C 0.83819 0.70848 0.5928 0.0
C3713 C 0.83121 0.70477 0.58552 0.0
C3714 C 0.82094 0.7077 0.58584 0.0
C3715 C 0.77919 0.74382 0.5667 0.0
C3716 C 0.77947 0.73843 0.55741 0.0
C3717 C 0.78336 0.73963 0.57565 0.0
C3718 C 0.78782 0.72989 0.57554 0.0
C3719 C 0.78824 0.72455 0.56625 0.0
C3720 C 0.78411 0.72876 0.5573 0.0
C3721 C 0.79203 0.72524 0.58507 0.0
C3722 C 0.80221 0.72184 0.58508 0.0
C3723 C 0.78614 0.7242 0.59411 0.0
C3724 C 0.7752 0.72713 0.59448 0.0
C3725 C 0.76805 0.7229 0.58755 0.0
C3726 C 0.75776 0.72577 0.58789 0.0
C3727 C 0.75451 0.7328 0.59518 0.0
C3728 C 0.76154 0.73695 0.60216 0.0
C3729 C 0.77184 0.73412 0.60185 0.0
H3730 H 0.74655 0.73502 0.59543 0.0
H3731 H 0.84613 0.70619 0.59254 0.0
H3732 H 0.82556 0.30924 0.62721 0.0
H3733 H 0.81885 0.30004 0.61229 0.0
H3734 H 0.79203 0.31904 0.6122 0.0
H3735 H 0.79848 0.32798 0.6273 0.0
H3736 H 0.78664 0.29974 0.60892 0.0
H3737 H 0.81212 0.32296 0.59521 0.0
H3738 H 0.82936 0.33076 0.5937 0.0
H3739 H 0.84184 0.30156 0.58599 0.0
H3740 H 0.82469 0.29356 0.58759 0.0
H3741 H 0.76771 0.29106 0.55878 0.0
H3742 H 0.77497 0.29866 0.57429 0.0
H3743 H 0.8007 0.27833 0.57265 0.0
H3744 H 0.79366 0.27091 0.55691 0.0
H3745 H 0.80705 0.29735 0.57708 0.0
H3746 H 0.78144 0.27426 0.59001 0.0
H3747 H 0.76418 0.26647 0.59139 0.0
H3748 H 0.75195 0.29535 0.60055 0.0
H3749 H 0.76911 0.30335 0.59907 0.0
C3750 C 0.81818 0.3114 0.62408 0.0
C3751 C 0.81261 0.31942 0.62844 0.0
C3752 C 0.8144 0.30619 0.61548 0.0
C3753 C 0.80498 0.30893 0.611 0.0
C3754 C 0.79933 0.3168 0.61546 0.0
C3755 C 0.80309 0.32199 0.62405 0.0
C3756 C 0.80098 0.30364 0.60168 0.0
C3757 C 0.79107 0.29932 0.60192 0.0
C3758 C 0.80683 0.30283 0.59261 0.0
C3759 C 0.81714 0.30764 0.59163 0.0
C3760 C 0.81855 0.31819 0.59327 0.0
C3761 C 0.82831 0.32265 0.59238 0.0
C3762 C 0.8367 0.31666 0.58978 0.0
C3763 C 0.83534 0.30619 0.58803 0.0
C3764 C 0.82561 0.30169 0.58891 0.0
C3765 C 0.77496 0.28825 0.56166 0.0
C3766 C 0.78008 0.28035 0.55657 0.0
C3767 C 0.77905 0.29254 0.5706 0.0
C3768 C 0.78833 0.28899 0.57474 0.0
C3769 C 0.79351 0.28117 0.56965 0.0
C3770 C 0.78942 0.27687 0.56069 0.0
C3771 C 0.79267 0.29354 0.58429 0.0
C3772 C 0.80264 0.29772 0.58409 0.0
C3773 C 0.78688 0.29422 0.5934 0.0
C3774 C 0.77655 0.28942 0.59434 0.0
C3775 C 0.77506 0.27897 0.59224 0.0
C3776 C 0.76529 0.27451 0.59305 0.0
C3777 C 0.75697 0.28042 0.59603 0.0
C3778 C 0.7584 0.29079 0.59823 0.0
C3779 C 0.76815 0.29528 0.59742 0.0
H3780 H 0.74942 0.27696 0.59666 0.0
H3781 H 0.84424 0.32013 0.58909 0.0
H3782 H 0.19214 0.31391 0.62442 0.0
H3783 H 0.19865 0.30519 0.60928 0.0
H3784 H 0.22945 0.31473 0.61713 0.0
H3785 H 0.22304 0.32334 0.63231 0.0
H3786 H 0.22534 0.31829 0.59717 0.0
H3787 H 0.22127 0.29002 0.62075 0.0
H3788 H 0.21173 0.27882 0.63271 0.0
H3789 H 0.19049 0.27079 0.60877 0.0
H3790 H 0.19983 0.28205 0.5967 0.0
H3791 H 0.25335 0.28837 0.56249 0.0
H3792 H 0.24629 0.29603 0.57794 0.0
H3793 H 0.21648 0.28332 0.57059 0.0
H3794 H 0.22362 0.27538 0.55528 0.0
H3795 H 0.21949 0.28145 0.5901 0.0
H3796 H 0.22309 0.30934 0.56647 0.0
H3797 H 0.23205 0.32073 0.55425 0.0
H3798 H 0.2533 0.32985 0.5778 0.0
H3799 H 0.24454 0.3184 0.59013 0.0
C3800 C 0.20031 0.31404 0.62301 0.0
C3801 C 0.20705 0.31937 0.62959 0.0
C3802 C 0.20403 0.30906 0.61432 0.0
C3803 C 0.21456 0.30926 0.61207 0.0
C3804 C 0.22129 0.31451 0.61867 0.0
C3805 C 0.2176 0.31947 0.62734 0.0
C3806 C 0.21858 0.30424 0.60272 0.0
C3807 C 0.22417 0.31021 0.59569 0.0
C3808 C 0.21678 0.29376 0.60061 0.0
C3809 C 0.21119 0.28696 0.60785 0.0
C3810 C 0.21452 0.28593 0.61806 0.0
C3811 C 0.20916 0.27956 0.62485 0.0
C3812 C 0.20049 0.27412 0.62151 0.0
C3813 C 0.19719 0.27502 0.61135 0.0
C3814 C 0.20252 0.28139 0.60453 0.0
C3815 C 0.24528 0.28724 0.56417 0.0
C3816 C 0.23902 0.28132 0.55765 0.0
C3817 C 0.24124 0.29164 0.57299 0.0
C3818 C 0.23078 0.29044 0.57537 0.0
C3819 C 0.22456 0.28439 0.56894 0.0
C3820 C 0.22864 0.27985 0.56019 0.0
C3821 C 0.22636 0.29548 0.58455 0.0
C3822 C 0.22066 0.28954 0.59155 0.0
C3823 C 0.22796 0.30602 0.58659 0.0
C3824 C 0.23321 0.31295 0.5792 0.0
C3825 C 0.22971 0.31373 0.56903 0.0
C3826 C 0.23475 0.3202 0.56208 0.0
C3827 C 0.24325 0.32599 0.56524 0.0
C3828 C 0.24672 0.32534 0.57536 0.0
C3829 C 0.24172 0.31888 0.58233 0.0
H3830 H 0.24714 0.33099 0.55985 0.0
H3831 H 0.19635 0.26919 0.62678 0.0
H3832 H 0.22333 0.32592 0.39064 0.0
H3833 H 0.22964 0.31716 0.40591 0.0
H3834 H 0.19998 0.30284 0.4101 0.0
H3835 H 0.19346 0.31194 0.39504 0.0
H3836 H 0.20721 0.3096 0.42787 0.0
H3837 H 0.22044 0.2894 0.40073 0.0
H3838 H 0.22955 0.28602 0.38462 0.0
H3839 H 0.25749 0.2979 0.39768 0.0
H3840 H 0.24851 0.30149 0.41383 0.0
H3841 H 0.22474 0.27359 0.46506 0.0
H3842 H 0.21779 0.28117 0.44935 0.0
H3843 H 0.24605 0.29805 0.44493 0.0
H3844 H 0.25312 0.29037 0.46053 0.0
H3845 H 0.23907 0.28924 0.42714 0.0
H3846 H 0.22537 0.30986 0.45417 0.0
H3847 H 0.21608 0.31292 0.47024 0.0
H3848 H 0.18873 0.29967 0.45723 0.0
H3849 H 0.19791 0.29639 0.44112 0.0
C3850 C 0.2181 0.32099 0.39485 0.0
C3851 C 0.20786 0.31966 0.39159 0.0
C3852 C 0.22176 0.31588 0.40352 0.0
C3853 C 0.21533 0.30922 0.40909 0.0
C3854 C 0.2051 0.3079 0.4059 0.0
C3855 C 0.20141 0.31304 0.39723 0.0
C3856 C 0.21926 0.30382 0.41835 0.0
C3857 C 0.21408 0.30501 0.42767 0.0
C3858 C 0.22833 0.29797 0.41815 0.0
C3859 C 0.23377 0.2958 0.40846 0.0
C3860 C 0.22851 0.29137 0.40014 0.0
C3861 C 0.23365 0.2894 0.39101 0.0
C3862 C 0.24409 0.29177 0.39012 0.0
C3863 C 0.24941 0.29608 0.39838 0.0
C3864 C 0.24429 0.29808 0.40752 0.0
C3865 C 0.22951 0.27886 0.4607 0.0
C3866 C 0.23948 0.2814 0.46406 0.0
C3867 C 0.22549 0.28324 0.45177 0.0
C3868 C 0.23136 0.29025 0.44602 0.0
C3869 C 0.24137 0.29268 0.44926 0.0
C3870 C 0.24537 0.28834 0.45822 0.0
C3871 C 0.22707 0.2951 0.43664 0.0
C3872 C 0.23217 0.29379 0.42731 0.0
C3873 C 0.2179 0.30079 0.43681 0.0
C3874 C 0.21236 0.30278 0.44648 0.0
C3875 C 0.2174 0.30752 0.45477 0.0
C3876 C 0.21215 0.30931 0.46388 0.0
C3877 C 0.20183 0.30647 0.46477 0.0
C3878 C 0.19673 0.30185 0.45654 0.0
C3879 C 0.20195 0.30003 0.44741 0.0
H3880 H 0.19777 0.30786 0.47183 0.0
H3881 H 0.24806 0.29023 0.38305 0.0
H3882 H 0.18826 0.69711 0.40261 0.0
H3883 H 0.19702 0.70405 0.41766 0.0
H3884 H 0.22099 0.71638 0.39841 0.0
H3885 H 0.21224 0.70944 0.38328 0.0
H3886 H 0.22895 0.70827 0.41566 0.0
H3887 H 0.20206 0.7317 0.40757 0.0
H3888 H 0.1843 0.73682 0.40377 0.0
H3889 H 0.17463 0.72561 0.43318 0.0
H3890 H 0.19231 0.72029 0.43711 0.0
H3891 H 0.24957 0.7426 0.45308 0.0
H3892 H 0.24193 0.7351 0.43766 0.0
H3893 H 0.21702 0.72274 0.45568 0.0
H3894 H 0.2246 0.73022 0.4711 0.0
H3895 H 0.20981 0.73119 0.4387 0.0
H3896 H 0.23672 0.70758 0.44671 0.0
H3897 H 0.25449 0.70247 0.45048 0.0
H3898 H 0.26418 0.71412 0.42124 0.0
H3899 H 0.24648 0.71942 0.41735 0.0
C3900 C 0.19538 0.70133 0.40156 0.0
C3901 C 0.19949 0.7028 0.39171 0.0
C3902 C 0.20039 0.70529 0.41019 0.0
C3903 C 0.20959 0.7109 0.40918 0.0
C3904 C 0.21389 0.7121 0.3994 0.0
C3905 C 0.20889 0.7081 0.39075 0.0
C3906 C 0.21456 0.7157 0.4183 0.0
C3907 C 0.22481 0.71339 0.42062 0.0
C3908 C 0.20912 0.72225 0.4249 0.0
C3909 C 0.1985 0.72551 0.42259 0.0
C3910 C 0.19613 0.73026 0.4132 0.0
C3911 C 0.18608 0.73321 0.41102 0.0
C3912 C 0.17834 0.73152 0.41821 0.0
C3913 C 0.18063 0.7269 0.42761 0.0
C3914 C 0.19067 0.72393 0.42982 0.0
C3915 C 0.24252 0.7382 0.45378 0.0
C3916 C 0.23771 0.73702 0.46335 0.0
C3917 C 0.23815 0.73391 0.44495 0.0
C3918 C 0.22893 0.72825 0.4455 0.0
C3919 C 0.22411 0.72709 0.45503 0.0
C3920 C 0.22845 0.7314 0.46385 0.0
C3921 C 0.22418 0.72368 0.43614 0.0
C3922 C 0.21397 0.72607 0.43375 0.0
C3923 C 0.22966 0.71721 0.42948 0.0
C3924 C 0.24029 0.71398 0.43178 0.0
C3925 C 0.24265 0.70912 0.44111 0.0
C3926 C 0.25271 0.70618 0.44326 0.0
C3927 C 0.26047 0.70799 0.43611 0.0
C3928 C 0.25817 0.71273 0.42677 0.0
C3929 C 0.24812 0.71569 0.42459 0.0
H3930 H 0.26825 0.70571 0.43779 0.0
H3931 H 0.17056 0.73381 0.41652 0.0
H3932 H 0.8111 0.72055 0.38423 0.0
H3933 H 0.80278 0.72688 0.39964 0.0
H3934 H 0.81228 0.69997 0.41623 0.0
H3935 H 0.8206 0.69357 0.4008 0.0
H3936 H 0.79301 0.70476 0.42111 0.0
H3937 H 0.82508 0.72286 0.41896 0.0
H3938 H 0.83848 0.73347 0.41071 0.0
H3939 H 0.81717 0.75803 0.40709 0.0
H3940 H 0.8036 0.74751 0.41519 0.0
H3941 H 0.78543 0.72461 0.47124 0.0
H3942 H 0.79279 0.71753 0.45567 0.0
H3943 H 0.78285 0.74395 0.43857 0.0
H3944 H 0.77536 0.75103 0.45408 0.0
H3945 H 0.80237 0.73925 0.43404 0.0
H3946 H 0.7703 0.72099 0.43644 0.0
H3947 H 0.75709 0.71029 0.44487 0.0
H3948 H 0.77867 0.68593 0.44832 0.0
H3949 H 0.79205 0.69654 0.44004 0.0
C3950 C 0.81145 0.71599 0.39116 0.0
C3951 C 0.8166 0.70659 0.39129 0.0
C3952 C 0.80668 0.71961 0.39998 0.0
C3953 C 0.80704 0.71399 0.40916 0.0
C3954 C 0.81191 0.70446 0.40925 0.0
C3955 C 0.81664 0.7008 0.40041 0.0
C3956 C 0.80249 0.71814 0.41871 0.0
C3957 C 0.79516 0.71225 0.42401 0.0
C3958 C 0.80514 0.728 0.42242 0.0
C3959 C 0.8133 0.73436 0.41759 0.0
C3960 C 0.82323 0.7305 0.41634 0.0
C3961 C 0.83086 0.7365 0.4117 0.0
C3962 C 0.82867 0.74641 0.40836 0.0
C3963 C 0.81885 0.75035 0.40967 0.0
C3964 C 0.81119 0.74437 0.41429 0.0
C3965 C 0.78468 0.72887 0.46415 0.0
C3966 C 0.77976 0.73839 0.46394 0.0
C3967 C 0.78892 0.72481 0.45525 0.0
C3968 C 0.7883 0.73015 0.44591 0.0
C3969 C 0.78345 0.73968 0.44568 0.0
C3970 C 0.7792 0.74375 0.45458 0.0
C3971 C 0.79285 0.7259 0.43642 0.0
C3972 C 0.80021 0.73177 0.43114 0.0
C3973 C 0.79025 0.71601 0.43277 0.0
C3974 C 0.7822 0.7096 0.43771 0.0
C3975 C 0.77225 0.71338 0.43907 0.0
C3976 C 0.76473 0.70732 0.44381 0.0
C3977 C 0.76705 0.69745 0.44716 0.0
C3978 C 0.77688 0.69359 0.44574 0.0
C3979 C 0.78444 0.69962 0.44101 0.0
H3980 H 0.76121 0.69277 0.45083 0.0
H3981 H 0.83459 0.75104 0.40477 0.0
H3982 H 0.81841 0.32997 0.40158 0.0
H3983 H 0.81187 0.32083 0.41659 0.0
H3984 H 0.80249 0.29557 0.39749 0.0
H3985 H 0.80881 0.3048 0.38236 0.0
H3986 H 0.78755 0.30046 0.41087 0.0
H3987 H 0.82346 0.29369 0.41291 0.0
H3988 H 0.84194 0.29791 0.41319 0.0
H3989 H 0.83784 0.31602 0.44015 0.0
H3990 H 0.8193 0.31203 0.43995 0.0
H3991 H 0.77621 0.2674 0.45298 0.0
H3992 H 0.78367 0.27471 0.4374 0.0
H3993 H 0.79468 0.30075 0.45453 0.0
H3994 H 0.78757 0.29332 0.4702 0.0
H3995 H 0.80908 0.29444 0.44169 0.0
H3996 H 0.7732 0.30222 0.43905 0.0
H3997 H 0.75467 0.29823 0.43889 0.0
H3998 H 0.75871 0.27833 0.41321 0.0
H3999 H 0.7773 0.28214 0.41328 0.0
C4000 C 0.81493 0.32248 0.40055 0.0
C4001 C 0.81414 0.31813 0.39074 0.0
C4002 C 0.81126 0.31722 0.40917 0.0
C4003 C 0.80676 0.30746 0.40821 0.0
C4004 C 0.80596 0.30308 0.39843 0.0
C4005 C 0.80965 0.30833 0.3898 0.0
C4006 C 0.80269 0.30196 0.41739 0.0
C4007 C 0.79231 0.29898 0.41754 0.0
C4008 C 0.80882 0.30022 0.4262 0.0
C4009 C 0.81997 0.30263 0.42636 0.0
C4010 C 0.82648 0.29864 0.41885 0.0
C4011 C 0.83697 0.30098 0.419 0.0
C4012 C 0.84106 0.30725 0.42667 0.0
C4013 C 0.83466 0.31118 0.43421 0.0
C4014 C 0.82417 0.30887 0.43409 0.0
C4015 C 0.78031 0.27463 0.45347 0.0
C4016 C 0.78124 0.27978 0.46288 0.0
C4017 C 0.78449 0.27886 0.44451 0.0
C4018 C 0.78965 0.28835 0.44474 0.0
C4019 C 0.79072 0.29343 0.45414 0.0
C4020 C 0.78655 0.28921 0.46309 0.0
C4021 C 0.79391 0.29303 0.43521 0.0
C4022 C 0.80434 0.29586 0.43499 0.0
C4023 C 0.78782 0.29465 0.42635 0.0
C4024 C 0.77665 0.29239 0.42623 0.0
C4025 C 0.77015 0.29694 0.43341 0.0
C4026 C 0.75963 0.29473 0.43333 0.0
C4027 C 0.75552 0.28802 0.42606 0.0
C4028 C 0.76191 0.28353 0.41884 0.0
C4029 C 0.77244 0.28572 0.41889 0.0
H4030 H 0.74738 0.28634 0.426 0.0
H4031 H 0.84918 0.30905 0.42678 0.0
H4032 H 0.12782 0.69507 0.71341 0.0
H4033 H 0.11246 0.70145 0.72187 0.0
H4034 H 0.10977 0.72507 0.69889 0.0
H4035 H 0.12498 0.71869 0.69032 0.0
H4036 H 0.10731 0.73274 0.71786 0.0
H4037 H 0.09405 0.70398 0.69874 0.0
H4038 H 0.09318 0.68591 0.69344 0.0
H4039 H 0.08709 0.67671 0.72445 0.0
H4040 H 0.08805 0.69472 0.72996 0.0
H4041 H 0.05715 0.75013 0.72674 0.0
H4042 H 0.07254 0.74284 0.71934 0.0
H4043 H 0.07205 0.71883 0.7421 0.0
H4044 H 0.05631 0.72577 0.74924 0.0
H4045 H 0.07652 0.71102 0.72421 0.0
H4046 H 0.08916 0.73949 0.74344 0.0
H4047 H 0.09014 0.75744 0.7491 0.0
H4048 H 0.09774 0.76707 0.71856 0.0
H4049 H 0.09666 0.74918 0.71268 0.0
C4050 C 0.1239 0.70155 0.71009 0.0
C4051 C 0.1277 0.70637 0.70118 0.0
C4052 C 0.11512 0.70521 0.71495 0.0
C4053 C 0.10991 0.71372 0.711 0.0
C4054 C 0.11368 0.71853 0.70213 0.0
C4055 C 0.12242 0.71488 0.69726 0.0
C4056 C 0.10059 0.71773 0.71611 0.0
C4057 C 0.10054 0.72802 0.71915 0.0
C4058 C 0.09184 0.71151 0.71809 0.0
C4059 C 0.09123 0.70069 0.71478 0.0
C4060 C 0.09261 0.69809 0.70444 0.0
C4061 C 0.09208 0.68787 0.7014 0.0
C4062 C 0.09011 0.68017 0.70861 0.0
C4063 C 0.08863 0.68268 0.71887 0.0
C4064 C 0.08916 0.6929 0.72196 0.0
C4065 C 0.06022 0.74323 0.73013 0.0
C4066 C 0.05543 0.73856 0.73862 0.0
C4067 C 0.06913 0.73913 0.72595 0.0
C4068 C 0.0736 0.73036 0.73024 0.0
C4069 C 0.06881 0.72563 0.73867 0.0
C4070 C 0.05985 0.72968 0.74282 0.0
C4071 C 0.08319 0.72608 0.72586 0.0
C4072 C 0.0833 0.71575 0.72298 0.0
C4073 C 0.09203 0.73224 0.72409 0.0
C4074 C 0.09274 0.743 0.72761 0.0
C4075 C 0.09097 0.74544 0.73792 0.0
C4076 C 0.09155 0.7556 0.74117 0.0
C4077 C 0.09398 0.76339 0.73419 0.0
C4078 C 0.09585 0.76103 0.72395 0.0
C4079 C 0.09527 0.75088 0.72066 0.0
H4080 H 0.09442 0.77125 0.73672 0.0
H4081 H 0.08971 0.67225 0.70623 0.0
H4082 H 0.80665 0.63722 0.71599 0.0
H4083 H 0.79769 0.62198 0.72252 0.0
H4084 H 0.81844 0.60276 0.70595 0.0
H4085 H 0.82737 0.61797 0.69931 0.0
H4086 H 0.79804 0.59639 0.70423 0.0
H4087 H 0.82199 0.60615 0.73086 0.0
H4088 H 0.82992 0.61808 0.74322 0.0
H4089 H 0.80088 0.62169 0.75806 0.0
H4090 H 0.79275 0.60989 0.74568 0.0
H4091 H 0.78881 0.54871 0.72839 0.0
H4092 H 0.7964 0.56442 0.72137 0.0
H4093 H 0.77843 0.58228 0.74224 0.0
H4094 H 0.77109 0.56652 0.74951 0.0
H4095 H 0.79672 0.58986 0.74166 0.0
H4096 H 0.77259 0.58003 0.7158 0.0
H4097 H 0.7641 0.56851 0.70342 0.0
H4098 H 0.79238 0.56556 0.68705 0.0
H4099 H 0.80108 0.57695 0.69942 0.0
C4100 C 0.80924 0.62975 0.71366 0.0
C4101 C 0.81775 0.6288 0.70717 0.0
C4102 C 0.80415 0.62105 0.71745 0.0
C4103 C 0.80746 0.61124 0.71479 0.0
C4104 C 0.81578 0.61026 0.70811 0.0
C4105 C 0.82092 0.61895 0.70439 0.0
C4106 C 0.80237 0.60197 0.71912 0.0
C4107 C 0.79783 0.59489 0.71241 0.0
C4108 C 0.80185 0.60018 0.7298 0.0
C4109 C 0.80674 0.60722 0.73728 0.0
C4110 C 0.81728 0.60955 0.73671 0.0
C4111 C 0.82181 0.61628 0.74372 0.0
C4112 C 0.8159 0.62066 0.7514 0.0
C4113 C 0.80545 0.6183 0.7521 0.0
C4114 C 0.80087 0.61159 0.74509 0.0
C4115 C 0.78644 0.556 0.73143 0.0
C4116 C 0.77933 0.55641 0.73946 0.0
C4117 C 0.79075 0.56498 0.72739 0.0
C4118 C 0.78786 0.57459 0.73113 0.0
C4119 C 0.78078 0.57499 0.7392 0.0
C4120 C 0.77659 0.56599 0.74335 0.0
C4121 C 0.79238 0.58418 0.72677 0.0
C4122 C 0.79684 0.59134 0.73348 0.0
C4123 C 0.79272 0.5861 0.71608 0.0
C4124 C 0.7875 0.57928 0.7086 0.0
C4125 C 0.77701 0.57687 0.7096 0.0
C4126 C 0.77216 0.57037 0.70258 0.0
C4127 C 0.7777 0.56629 0.69447 0.0
C4128 C 0.7881 0.56872 0.69334 0.0
C4129 C 0.79299 0.57521 0.70035 0.0
H4130 H 0.77393 0.56126 0.68904 0.0
H4131 H 0.81942 0.62587 0.75683 0.0
H4132 H 0.90077 0.32266 0.69292 0.0
H4133 H 0.91614 0.31605 0.70136 0.0
H4134 H 0.89724 0.29784 0.7216 0.0
H4135 H 0.88181 0.30456 0.71331 0.0
H4136 H 0.91337 0.30718 0.73181 0.0
H4137 H 0.90842 0.28684 0.70156 0.0
H4138 H 0.90589 0.28398 0.68307 0.0
H4139 H 0.93469 0.29895 0.67678 0.0
H4140 H 0.93732 0.30202 0.69524 0.0
H4141 H 0.95199 0.27363 0.75025 0.0
H4142 H 0.93653 0.28107 0.74273 0.0
H4143 H 0.95501 0.29651 0.71995 0.0
H4144 H 0.97044 0.28892 0.72732 0.0
H4145 H 0.93894 0.28871 0.7111 0.0
H4146 H 0.94416 0.30915 0.74104 0.0
H4147 H 0.94683 0.31247 0.75943 0.0
H4148 H 0.91791 0.29802 0.76627 0.0
H4149 H 0.91512 0.2945 0.74792 0.0
C4150 C 0.89987 0.31735 0.69926 0.0
C4151 C 0.89004 0.31411 0.70241 0.0
C4152 C 0.90867 0.31351 0.70402 0.0
C4153 C 0.90786 0.30635 0.71205 0.0
C4154 C 0.89806 0.30332 0.71541 0.0
C4155 C 0.88925 0.30712 0.71061 0.0
C4156 C 0.91721 0.30185 0.71677 0.0
C4157 C 0.91891 0.30303 0.72732 0.0
C4158 C 0.92456 0.29664 0.71086 0.0
C4159 C 0.92302 0.29475 0.69977 0.0
C4160 C 0.91418 0.28959 0.69623 0.0
C4161 C 0.91273 0.28792 0.68576 0.0
C4162 C 0.92011 0.2913 0.67875 0.0
C4163 C 0.92897 0.29634 0.68221 0.0
C4164 C 0.93045 0.29804 0.69268 0.0
C4165 C 0.95276 0.27868 0.74369 0.0
C4166 C 0.96245 0.28069 0.73939 0.0
C4167 C 0.94391 0.28295 0.7394 0.0
C4168 C 0.94457 0.28949 0.73083 0.0
C4169 C 0.95426 0.29149 0.72653 0.0
C4170 C 0.96308 0.28714 0.73075 0.0
C4171 C 0.93518 0.29406 0.72618 0.0
C4172 C 0.93344 0.29287 0.71563 0.0
C4173 C 0.92784 0.29933 0.73208 0.0
C4174 C 0.92948 0.30147 0.74311 0.0
C4175 C 0.9384 0.30662 0.74647 0.0
C4176 C 0.93993 0.30854 0.75689 0.0
C4177 C 0.93256 0.30543 0.76402 0.0
C4178 C 0.92362 0.30041 0.76074 0.0
C4179 C 0.92206 0.29846 0.75033 0.0
H4180 H 0.93376 0.30693 0.77208 0.0
H4181 H 0.91898 0.29 0.67065 0.0
H4182 H 0.21375 0.38327 0.70807 0.0
H4183 H 0.22278 0.39851 0.71442 0.0
H4184 H 0.19502 0.4159 0.71135 0.0
H4185 H 0.18603 0.40079 0.70475 0.0
H4186 H 0.21152 0.42671 0.70458 0.0
H4187 H 0.20279 0.40677 0.73459 0.0
H4188 H 0.20257 0.39125 0.74541 0.0
H4189 H 0.23549 0.39169 0.74661 0.0
H4190 H 0.2359 0.40714 0.73568 0.0
H4191 H 0.2231 0.4695 0.73537 0.0
H4192 H 0.21562 0.45405 0.72797 0.0
H4193 H 0.24352 0.43776 0.7344 0.0
H4194 H 0.25086 0.45306 0.74238 0.0
H4195 H 0.22789 0.42606 0.73894 0.0
H4196 H 0.2369 0.44626 0.70967 0.0
H4197 H 0.23744 0.46164 0.69867 0.0
H4198 H 0.20463 0.46061 0.69568 0.0
H4199 H 0.20388 0.44529 0.70678 0.0
C4200 C 0.2096 0.39037 0.70863 0.0
C4201 C 0.19914 0.39078 0.70596 0.0
C4202 C 0.21475 0.39906 0.71235 0.0
C4203 C 0.20955 0.40833 0.7135 0.0
C4204 C 0.19919 0.40883 0.71058 0.0
C4205 C 0.19403 0.40015 0.70689 0.0
C4206 C 0.21481 0.41749 0.71788 0.0
C4207 C 0.21501 0.4266 0.71214 0.0
C4208 C 0.21963 0.41729 0.72761 0.0
C4209 C 0.21938 0.40804 0.73423 0.0
C4210 C 0.20998 0.40351 0.7371 0.0
C4211 C 0.20982 0.39473 0.74326 0.0
C4212 C 0.21901 0.39047 0.74667 0.0
C4213 C 0.22838 0.39499 0.74395 0.0
C4214 C 0.22858 0.40376 0.73778 0.0
C4215 C 0.22763 0.46262 0.73535 0.0
C4216 C 0.23762 0.46259 0.7395 0.0
C4217 C 0.22338 0.45379 0.73096 0.0
C4218 C 0.22906 0.44474 0.73044 0.0
C4219 C 0.23899 0.44465 0.73464 0.0
C4220 C 0.24322 0.45346 0.73912 0.0
C4221 C 0.22454 0.43535 0.72569 0.0
C4222 C 0.22447 0.42619 0.73136 0.0
C4223 C 0.21991 0.43549 0.71585 0.0
C4224 C 0.22033 0.44467 0.70913 0.0
C4225 C 0.22979 0.44935 0.70673 0.0
C4226 C 0.23014 0.45805 0.70047 0.0
C4227 C 0.22107 0.46211 0.6965 0.0
C4228 C 0.21165 0.45746 0.69877 0.0
C4229 C 0.21126 0.44876 0.70503 0.0
H4230 H 0.22136 0.46885 0.69166 0.0
H4231 H 0.21887 0.38367 0.75144 0.0
H4232 H 0.13051 0.32135 0.30826 0.0
H4233 H 0.11507 0.3151 0.29949 0.0
H4234 H 0.11162 0.29122 0.32214 0.0
H4235 H 0.12687 0.29754 0.3311 0.0
H4236 H 0.10922 0.28406 0.30244 0.0
H4237 H 0.09665 0.31176 0.32298 0.0
H4238 H 0.09621 0.32954 0.32916 0.0
H4239 H 0.09003 0.34023 0.29864 0.0
H4240 H 0.09058 0.32252 0.29224 0.0
H4241 H 0.05859 0.26705 0.29284 0.0
H4242 H 0.07427 0.27394 0.30051 0.0
H4243 H 0.07411 0.299 0.27889 0.0
H4244 H 0.05809 0.29243 0.2715 0.0
H4245 H 0.07877 0.3059 0.29719 0.0
H4246 H 0.0907 0.2786 0.27649 0.0
H4247 H 0.09132 0.261 0.26984 0.0
H4248 H 0.09909 0.24976 0.29981 0.0
H4249 H 0.09837 0.26728 0.30667 0.0
C4250 C 0.12642 0.31484 0.31146 0.0
C4251 C 0.12997 0.30996 0.32042 0.0
C4252 C 0.11761 0.31125 0.3064 0.0
C4253 C 0.11216 0.30272 0.31019 0.0
C4254 C 0.11573 0.29778 0.31906 0.0
C4255 C 0.12449 0.30139 0.32415 0.0
C4256 C 0.10275 0.2989 0.30493 0.0
C4257 C 0.10251 0.28879 0.30139 0.0
C4258 C 0.09412 0.30518 0.30328 0.0
C4259 C 0.09377 0.31583 0.30712 0.0
C4260 C 0.09529 0.31791 0.31757 0.0
C4261 C 0.095 0.32797 0.32112 0.0
C4262 C 0.09313 0.33601 0.31429 0.0
C4263 C 0.0915 0.334 0.30391 0.0
C4264 C 0.09179 0.32395 0.30032 0.0
C4265 C 0.06181 0.27409 0.28977 0.0
C4266 C 0.05704 0.27917 0.28153 0.0
C4267 C 0.07087 0.27796 0.29409 0.0
C4268 C 0.07548 0.28691 0.29019 0.0
C4269 C 0.07073 0.29204 0.282 0.0
C4270 C 0.06162 0.28822 0.27772 0.0
C4271 C 0.08517 0.29099 0.29476 0.0
C4272 C 0.08548 0.30116 0.29818 0.0
C4273 C 0.0939 0.28479 0.29621 0.0
C4274 C 0.09439 0.27424 0.29211 0.0
C4275 C 0.09247 0.27236 0.28168 0.0
C4276 C 0.09285 0.2624 0.27787 0.0
C4277 C 0.09522 0.25426 0.2844 0.0
C4278 C 0.09724 0.25607 0.29475 0.0
C4279 C 0.09686 0.26602 0.29861 0.0
H4280 H 0.09551 0.24656 0.28144 0.0
H4281 H 0.09291 0.34379 0.31705 0.0
H4282 H 0.19427 0.62648 0.30697 0.0
H4283 H 0.20068 0.61117 0.29855 0.0
H4284 H 0.22614 0.61031 0.31971 0.0
H4285 H 0.21972 0.62549 0.32825 0.0
H4286 H 0.23246 0.60725 0.30031 0.0
H4287 H 0.20579 0.59392 0.3222 0.0
H4288 H 0.18824 0.59265 0.32908 0.0
H4289 H 0.17665 0.58497 0.29923 0.0
H4290 H 0.19413 0.58633 0.29214 0.0
H4291 H 0.25052 0.5572 0.29212 0.0
H4292 H 0.24338 0.57266 0.29951 0.0
H4293 H 0.218 0.57108 0.27826 0.0
H4294 H 0.22489 0.55535 0.27107 0.0
H4295 H 0.2113 0.57566 0.29685 0.0
H4296 H 0.23786 0.58835 0.27496 0.0
H4297 H 0.25534 0.58958 0.2679 0.0
H4298 H 0.26704 0.59861 0.29732 0.0
H4299 H 0.24965 0.59729 0.3046 0.0
C4300 C 0.20118 0.62299 0.3099 0.0
C4301 C 0.20647 0.62727 0.31831 0.0
C4302 C 0.20486 0.61423 0.30506 0.0
C4303 C 0.21388 0.60953 0.30852 0.0
C4304 C 0.2192 0.61381 0.31685 0.0
C4305 C 0.21553 0.62254 0.32171 0.0
C4306 C 0.21782 0.60016 0.30349 0.0
C4307 C 0.22787 0.60031 0.29966 0.0
C4308 C 0.21176 0.59118 0.30237 0.0
C4309 C 0.20125 0.59034 0.30662 0.0
C4310 C 0.19949 0.59204 0.31709 0.0
C4311 C 0.18956 0.59129 0.32103 0.0
C4312 C 0.18133 0.58876 0.31459 0.0
C4313 C 0.18303 0.58695 0.3042 0.0
C4314 C 0.19295 0.5877 0.30022 0.0
C4315 C 0.24336 0.56006 0.28906 0.0
C4316 C 0.2383 0.555 0.28097 0.0
C4317 C 0.23934 0.56899 0.29323 0.0
C4318 C 0.23021 0.57314 0.28936 0.0
C4319 C 0.22508 0.56806 0.28135 0.0
C4320 C 0.22909 0.55911 0.27718 0.0
C4321 C 0.22598 0.58272 0.29375 0.0
C4322 C 0.21588 0.58262 0.29746 0.0
C4323 C 0.23199 0.59177 0.29471 0.0
C4324 C 0.24246 0.59264 0.29035 0.0
C4325 C 0.24417 0.59053 0.27995 0.0
C4326 C 0.25406 0.59125 0.2759 0.0
C4327 C 0.2623 0.59415 0.28216 0.0
C4328 C 0.26066 0.59636 0.29248 0.0
C4329 C 0.25078 0.59563 0.29657 0.0
H4330 H 0.26995 0.5947 0.27902 0.0
H4331 H 0.17365 0.58818 0.31765 0.0
H4332 H 0.90073 0.68885 0.32031 0.0
H4333 H 0.91583 0.69786 0.31363 0.0
H4334 H 0.89673 0.72262 0.30333 0.0
H4335 H 0.88154 0.71352 0.30978 0.0
H4336 H 0.91007 0.71722 0.28868 0.0
H4337 H 0.9121 0.72544 0.32421 0.0
H4338 H 0.91239 0.72205 0.3428 0.0
H4339 H 0.93949 0.70405 0.33941 0.0
H4340 H 0.93927 0.70721 0.32078 0.0
H4341 H 0.95199 0.75054 0.27657 0.0
H4342 H 0.93645 0.74324 0.28423 0.0
H4343 H 0.95378 0.71761 0.29552 0.0
H4344 H 0.96941 0.72502 0.28817 0.0
H4345 H 0.94095 0.72436 0.30992 0.0
H4346 H 0.93836 0.71552 0.27426 0.0
H4347 H 0.93806 0.71901 0.25569 0.0
H4348 H 0.91197 0.73835 0.25941 0.0
H4349 H 0.91219 0.73508 0.27803 0.0
C4350 C 0.89973 0.6962 0.3166 0.0
C4351 C 0.88991 0.70045 0.31558 0.0
C4352 C 0.90839 0.7014 0.31287 0.0
C4353 C 0.90744 0.71097 0.30805 0.0
C4354 C 0.89766 0.71526 0.30704 0.0
C4355 C 0.88899 0.71008 0.31081 0.0
C4356 C 0.91664 0.71636 0.30382 0.0
C4357 C 0.91676 0.71893 0.29337 0.0
C4358 C 0.92546 0.71842 0.30987 0.0
C4359 C 0.92561 0.71649 0.32108 0.0
C4360 C 0.91807 0.72069 0.32742 0.0
C4361 C 0.91823 0.71882 0.33796 0.0
C4362 C 0.92594 0.71281 0.34228 0.0
C4363 C 0.93351 0.70868 0.33606 0.0
C4364 C 0.93338 0.71052 0.3255 0.0
C4365 C 0.95252 0.7434 0.28076 0.0
C4366 C 0.96197 0.73835 0.28171 0.0
C4367 C 0.9436 0.73918 0.28506 0.0
C4368 C 0.94391 0.7298 0.29036 0.0
C4369 C 0.95334 0.72483 0.29144 0.0
C4370 C 0.96226 0.72904 0.28714 0.0
C4371 C 0.93442 0.72514 0.29477 0.0
C4372 C 0.93424 0.72269 0.30525 0.0
C4373 C 0.92554 0.72321 0.28875 0.0
C4374 C 0.92536 0.72514 0.27755 0.0
C4375 C 0.93261 0.72058 0.27113 0.0
C4376 C 0.93244 0.7225 0.26059 0.0
C4377 C 0.92502 0.72892 0.25637 0.0
C4378 C 0.91772 0.7334 0.26268 0.0
C4379 C 0.91786 0.7315 0.27323 0.0
H4380 H 0.92491 0.7304 0.24821 0.0
H4381 H 0.92605 0.71138 0.35045 0.0
H4382 H 0.80473 0.38331 0.31161 0.0
H4383 H 0.79568 0.39847 0.30544 0.0
H4384 H 0.82341 0.41648 0.30868 0.0
H4385 H 0.83242 0.40145 0.3151 0.0
H4386 H 0.80702 0.42677 0.31557 0.0
H4387 H 0.81544 0.40761 0.2853 0.0
H4388 H 0.81551 0.39235 0.27429 0.0
H4389 H 0.78259 0.39222 0.2733 0.0
H4390 H 0.78232 0.4074 0.28443 0.0
H4391 H 0.79532 0.47004 0.2854 0.0
H4392 H 0.8028 0.45457 0.29257 0.0
H4393 H 0.77487 0.43782 0.28601 0.0
H4394 H 0.76753 0.45314 0.27824 0.0
H4395 H 0.79039 0.42653 0.28133 0.0
H4396 H 0.78168 0.44591 0.31089 0.0
H4397 H 0.78129 0.46105 0.32205 0.0
H4398 H 0.81411 0.4606 0.32477 0.0
H4399 H 0.81472 0.44554 0.3135 0.0
C4400 C 0.80888 0.39052 0.31113 0.0
C4401 C 0.81934 0.39113 0.3138 0.0
C4402 C 0.80371 0.39917 0.30751 0.0
C4403 C 0.80889 0.4086 0.30646 0.0
C4404 C 0.81925 0.40928 0.30937 0.0
C4405 C 0.82442 0.40065 0.31297 0.0
C4406 C 0.8036 0.41776 0.30221 0.0
C4407 C 0.80347 0.42675 0.30804 0.0
C4408 C 0.79871 0.41767 0.29251 0.0
C4409 C 0.79886 0.40857 0.28579 0.0
C4410 C 0.80822 0.40428 0.2828 0.0
C4411 C 0.80829 0.39565 0.27653 0.0
C4412 C 0.79906 0.3913 0.27312 0.0
C4413 C 0.78973 0.39558 0.27596 0.0
C4414 C 0.78961 0.4042 0.28224 0.0
C4415 C 0.79078 0.46306 0.28534 0.0
C4416 C 0.78078 0.46291 0.28121 0.0
C4417 C 0.79504 0.45422 0.28961 0.0
C4418 C 0.78936 0.44502 0.29003 0.0
C4419 C 0.7794 0.44481 0.28585 0.0
C4420 C 0.77517 0.45363 0.28149 0.0
C4421 C 0.79387 0.43561 0.29465 0.0
C4422 C 0.79387 0.42656 0.28889 0.0
C4423 C 0.79859 0.43562 0.30446 0.0
C4424 C 0.79825 0.44465 0.31128 0.0
C4425 C 0.78882 0.44909 0.31381 0.0
C4426 C 0.78856 0.45765 0.32016 0.0
C4427 C 0.79767 0.4618 0.3241 0.0
C4428 C 0.80706 0.45738 0.32171 0.0
C4429 C 0.80737 0.44883 0.31535 0.0
H4430 H 0.79745 0.46843 0.32902 0.0
H4431 H 0.79913 0.38462 0.26827 0.0
H4432 H 0.2119 0.6349 0.71071 0.0
H4433 H 0.22062 0.61979 0.71741 0.0
H4434 H 0.19453 0.60098 0.70907 0.0
H4435 H 0.18578 0.61605 0.70237 0.0
H4436 H 0.2006 0.59642 0.72785 0.0
H4437 H 0.21733 0.6007 0.69544 0.0
H4438 H 0.22694 0.60997 0.682 0.0
H4439 H 0.25206 0.6148 0.70286 0.0
H4440 H 0.24254 0.60567 0.71647 0.0
H4441 H 0.22311 0.5477 0.73405 0.0
H4442 H 0.21531 0.56303 0.72683 0.0
H4443 H 0.24126 0.58113 0.7369 0.0
H4444 H 0.24909 0.56583 0.74428 0.0
H4445 H 0.23557 0.58624 0.7175 0.0
H4446 H 0.21882 0.5818 0.74983 0.0
H4447 H 0.20922 0.5724 0.76318 0.0
H4448 H 0.18407 0.56782 0.7423 0.0
H4449 H 0.19359 0.57707 0.72877 0.0
C4450 C 0.20808 0.62753 0.71017 0.0
C4451 C 0.19812 0.62671 0.706 0.0
C4452 C 0.21307 0.61888 0.71402 0.0
C4453 C 0.20828 0.60919 0.7137 0.0
C4454 C 0.19839 0.60835 0.70945 0.0
C4455 C 0.19338 0.61699 0.70564 0.0
C4456 C 0.21341 0.59999 0.71805 0.0
C4457 C 0.20819 0.59413 0.72546 0.0
C4458 C 0.22344 0.5971 0.71517 0.0
C4459 C 0.22918 0.60259 0.707 0.0
C4460 C 0.22487 0.60381 0.69718 0.0
C4461 C 0.2303 0.60903 0.68953 0.0
C4462 C 0.24009 0.613 0.69158 0.0
C4463 C 0.24447 0.61173 0.70129 0.0
C4464 C 0.23906 0.60653 0.70897 0.0
C4465 C 0.22713 0.55495 0.73485 0.0
C4466 C 0.23672 0.5555 0.73984 0.0
C4467 C 0.22266 0.56372 0.73067 0.0
C4468 C 0.22763 0.57328 0.73141 0.0
C4469 C 0.23728 0.57385 0.73622 0.0
C4470 C 0.24176 0.56507 0.74042 0.0
C4471 C 0.22272 0.58266 0.72722 0.0
C4472 C 0.22798 0.58855 0.71986 0.0
C4473 C 0.21272 0.58558 0.73013 0.0
C4474 C 0.20696 0.58005 0.73826 0.0
C4475 C 0.21128 0.57872 0.74806 0.0
C4476 C 0.20584 0.57343 0.75566 0.0
C4477 C 0.19605 0.56949 0.75358 0.0
C4478 C 0.19166 0.57086 0.7439 0.0
C4479 C 0.19707 0.57614 0.73626 0.0
H4480 H 0.19185 0.5654 0.75948 0.0
H4481 H 0.24429 0.61703 0.68565 0.0
H4482 H 0.18786 0.39333 0.30165 0.0
H4483 H 0.19685 0.40845 0.29511 0.0
H4484 H 0.22209 0.4027 0.31572 0.0
H4485 H 0.21322 0.38739 0.3222 0.0
H4486 H 0.21672 0.423 0.31536 0.0
H4487 H 0.22456 0.39708 0.29103 0.0
H4488 H 0.22079 0.38311 0.27893 0.0
H4489 H 0.20282 0.40347 0.26043 0.0
H4490 H 0.20636 0.41753 0.27251 0.0
H4491 H 0.2508 0.45858 0.29104 0.0
H4492 H 0.24309 0.44298 0.29819 0.0
H4493 H 0.21733 0.446 0.2776 0.0
H4494 H 0.22495 0.46163 0.27046 0.0
H4495 H 0.22386 0.42663 0.27822 0.0
H4496 H 0.21549 0.45237 0.30288 0.0
H4497 H 0.21916 0.46632 0.31503 0.0
H4498 H 0.2381 0.4463 0.33292 0.0
H4499 H 0.23465 0.43226 0.32078 0.0
C4500 C 0.19537 0.39519 0.30473 0.0
C4501 C 0.19984 0.38905 0.3124 0.0
C4502 C 0.20049 0.40387 0.301 0.0
C4503 C 0.21019 0.40664 0.30484 0.0
C4504 C 0.2146 0.4007 0.31265 0.0
C4505 C 0.2095 0.39197 0.31636 0.0
C4506 C 0.21572 0.41573 0.30063 0.0
C4507 C 0.21843 0.42374 0.30726 0.0
C4508 C 0.21777 0.41676 0.29004 0.0
C4509 C 0.21565 0.40834 0.28273 0.0
C4510 C 0.21974 0.39856 0.28443 0.0
C4511 C 0.21765 0.39063 0.27757 0.0
C4512 C 0.21155 0.3924 0.26893 0.0
C4513 C 0.20754 0.40211 0.26713 0.0
C4514 C 0.20959 0.41007 0.27398 0.0
C4515 C 0.24345 0.45597 0.28809 0.0
C4516 C 0.23848 0.46138 0.28019 0.0
C4517 C 0.23906 0.44704 0.29218 0.0
C4518 C 0.22958 0.44336 0.28851 0.0
C4519 C 0.22466 0.44867 0.28054 0.0
C4520 C 0.22905 0.45759 0.27644 0.0
C4521 C 0.22476 0.43397 0.29292 0.0
C4522 C 0.22219 0.42589 0.28632 0.0
C4523 C 0.22284 0.43288 0.30354 0.0
C4524 C 0.2249 0.4413 0.31086 0.0
C4525 C 0.22051 0.45097 0.30935 0.0
C4526 C 0.22253 0.45889 0.31625 0.0
C4527 C 0.22888 0.45721 0.32472 0.0
C4528 C 0.2332 0.4476 0.32634 0.0
C4529 C 0.23121 0.43965 0.31946 0.0
H4530 H 0.23044 0.46335 0.33006 0.0
H4531 H 0.20994 0.38625 0.26362 0.0
H4532 H 0.13506 0.7117 0.30939 0.0
H4533 H 0.11992 0.72056 0.30289 0.0
H4534 H 0.10085 0.69488 0.31179 0.0
H4535 H 0.11594 0.68597 0.31827 0.0
H4536 H 0.09601 0.70083 0.29308 0.0
H4537 H 0.10119 0.71778 0.32523 0.0
H4538 H 0.11089 0.72737 0.33836 0.0
H4539 H 0.11567 0.75214 0.31713 0.0
H4540 H 0.10611 0.74263 0.30382 0.0
H4541 H 0.04739 0.72382 0.28757 0.0
H4542 H 0.06279 0.71594 0.29463 0.0
H4543 H 0.08105 0.74153 0.28397 0.0
H4544 H 0.06566 0.74944 0.27678 0.0
H4545 H 0.08651 0.73595 0.30328 0.0
H4546 H 0.08116 0.71901 0.27122 0.0
H4547 H 0.07133 0.70943 0.25816 0.0
H4548 H 0.06683 0.68461 0.27939 0.0
H4549 H 0.07651 0.6941 0.29262 0.0
C4550 C 0.12763 0.70799 0.3101 0.0
C4551 C 0.12674 0.69811 0.31435 0.0
C4552 C 0.11896 0.71307 0.30636 0.0
C4553 C 0.10919 0.70844 0.3069 0.0
C4554 C 0.10828 0.69861 0.31124 0.0
C4555 C 0.11694 0.69352 0.31492 0.0
C4556 C 0.09996 0.71365 0.30268 0.0
C4557 C 0.09387 0.70846 0.29543 0.0
C4558 C 0.09727 0.72372 0.30551 0.0
C4559 C 0.10302 0.72945 0.3135 0.0
C4560 C 0.10438 0.72524 0.32334 0.0
C4561 C 0.10984 0.73066 0.33082 0.0
C4562 C 0.11392 0.74034 0.32857 0.0
C4563 C 0.11252 0.74463 0.31885 0.0
C4564 C 0.10707 0.73923 0.31134 0.0
C4565 C 0.05469 0.72774 0.28662 0.0
C4566 C 0.05526 0.73724 0.28152 0.0
C4567 C 0.0635 0.72324 0.2907 0.0
C4568 C 0.07312 0.72807 0.28973 0.0
C4569 C 0.07371 0.73765 0.28482 0.0
C4570 C 0.06489 0.74217 0.28073 0.0
C4571 C 0.08254 0.72309 0.29377 0.0
C4572 C 0.08867 0.72833 0.30095 0.0
C4573 C 0.08527 0.71305 0.2909 0.0
C4574 C 0.07948 0.70731 0.28294 0.0
C4575 C 0.07801 0.71154 0.27313 0.0
C4576 C 0.07248 0.70612 0.26569 0.0
C4577 C 0.06844 0.69643 0.26795 0.0
C4578 C 0.06995 0.69212 0.27765 0.0
C4579 C 0.07547 0.69751 0.28512 0.0
H4580 H 0.06416 0.69225 0.26219 0.0
H4581 H 0.11815 0.74453 0.33437 0.0
H4582 H 0.82308 0.61964 0.32443 0.0
H4583 H 0.81686 0.6043 0.31562 0.0
H4584 H 0.79154 0.62134 0.30311 0.0
H4585 H 0.79769 0.63668 0.31195 0.0
H4586 H 0.78489 0.60361 0.31027 0.0
H4587 H 0.81242 0.61429 0.28832 0.0
H4588 H 0.83015 0.61945 0.28404 0.0
H4589 H 0.84112 0.5905 0.29491 0.0
H4590 H 0.82347 0.58522 0.29939 0.0
H4591 H 0.76799 0.5662 0.27461 0.0
H4592 H 0.77481 0.58188 0.28232 0.0
H4593 H 0.79992 0.56494 0.29537 0.0
H4594 H 0.79316 0.54923 0.28763 0.0
H4595 H 0.8067 0.58269 0.28771 0.0
H4596 H 0.77917 0.57219 0.30994 0.0
H4597 H 0.76143 0.56703 0.31414 0.0
H4598 H 0.75043 0.59572 0.30262 0.0
H4599 H 0.76811 0.60101 0.29824 0.0
C4600 C 0.81626 0.62015 0.3197 0.0
C4601 C 0.81089 0.6294 0.31891 0.0
C4602 C 0.8127 0.61137 0.31466 0.0
C4603 C 0.80376 0.61166 0.3086 0.0
C4604 C 0.79843 0.6209 0.30775 0.0
C4605 C 0.80195 0.62966 0.31283 0.0
C4606 C 0.7998 0.60227 0.3034 0.0
C4607 C 0.78962 0.59913 0.30522 0.0
C4608 C 0.80602 0.59625 0.29699 0.0
C4609 C 0.81664 0.5994 0.29428 0.0
C4610 C 0.81863 0.60906 0.28987 0.0
C4611 C 0.82866 0.612 0.2874 0.0
C4612 C 0.83676 0.60532 0.28923 0.0
C4613 C 0.83484 0.59567 0.29351 0.0
C4614 C 0.82482 0.5927 0.29601 0.0
C4615 C 0.77493 0.56579 0.27917 0.0
C4616 C 0.77999 0.55643 0.28054 0.0
C4617 C 0.77883 0.57477 0.28357 0.0
C4618 C 0.78782 0.57459 0.28955 0.0
C4619 C 0.79298 0.56529 0.29079 0.0
C4620 C 0.78911 0.55631 0.28634 0.0
C4621 C 0.7918 0.58405 0.29458 0.0
C4622 C 0.80197 0.58719 0.29275 0.0
C4623 C 0.78557 0.59009 0.30098 0.0
C4624 C 0.77495 0.58695 0.30368 0.0
C4625 C 0.77296 0.57737 0.30824 0.0
C4626 C 0.76292 0.57443 0.31066 0.0
C4627 C 0.7548 0.58103 0.30862 0.0
C4628 C 0.75672 0.59061 0.30419 0.0
C4629 C 0.76675 0.59359 0.30174 0.0
H4630 H 0.74703 0.57874 0.3105 0.0
H4631 H 0.84452 0.60761 0.2873 0.0
H4632 H 0.8832 0.30843 0.30566 0.0
H4633 H 0.89828 0.30194 0.2968 0.0
H4634 H 0.91762 0.31215 0.32169 0.0
H4635 H 0.90263 0.31887 0.33046 0.0
H4636 H 0.92637 0.3164 0.30345 0.0
H4637 H 0.91049 0.2871 0.31952 0.0
H4638 H 0.8963 0.27509 0.32341 0.0
H4639 H 0.89376 0.26737 0.29158 0.0
H4640 H 0.90786 0.27945 0.28748 0.0
H4641 H 0.97085 0.28725 0.29439 0.0
H4642 H 0.95539 0.29458 0.3017 0.0
H4643 H 0.93756 0.28318 0.27623 0.0
H4644 H 0.95296 0.27554 0.26901 0.0
H4645 H 0.92772 0.27976 0.29393 0.0
H4646 H 0.94408 0.30852 0.2779 0.0
H4647 H 0.95829 0.3205 0.274 0.0
H4648 H 0.95993 0.32928 0.3056 0.0
H4649 H 0.94582 0.31723 0.30972 0.0
C4650 C 0.89068 0.30941 0.30919 0.0
C4651 C 0.89168 0.31413 0.31881 0.0
C4652 C 0.89929 0.30561 0.30415 0.0
C4653 C 0.90909 0.30643 0.30863 0.0
C4654 C 0.91014 0.31138 0.31809 0.0
C4655 C 0.90154 0.31515 0.32314 0.0
C4656 C 0.91823 0.30198 0.30356 0.0
C4657 C 0.92671 0.30837 0.30147 0.0
C4658 C 0.9186 0.29155 0.30073 0.0
C4659 C 0.91015 0.28426 0.30318 0.0
C4660 C 0.90685 0.2829 0.31334 0.0
C4661 C 0.89883 0.27607 0.31558 0.0
C4662 C 0.89411 0.27049 0.30774 0.0
C4663 C 0.89742 0.27171 0.29764 0.0
C4664 C 0.90542 0.27854 0.29535 0.0
C4665 C 0.96364 0.28622 0.29037 0.0
C4666 C 0.96318 0.2808 0.28109 0.0
C4667 C 0.9548 0.29052 0.29451 0.0
C4668 C 0.94531 0.28956 0.28946 0.0
C4669 C 0.9448 0.28407 0.28025 0.0
C4670 C 0.95364 0.27978 0.27609 0.0
C4671 C 0.93591 0.29416 0.29388 0.0
C4672 C 0.92738 0.28781 0.29585 0.0
C4673 C 0.93549 0.30463 0.29659 0.0
C4674 C 0.94396 0.3119 0.29413 0.0
C4675 C 0.94753 0.31294 0.28403 0.0
C4676 C 0.95555 0.31976 0.28178 0.0
C4677 C 0.96003 0.32563 0.28955 0.0
C4678 C 0.95647 0.32471 0.29959 0.0
C4679 C 0.94845 0.3179 0.30189 0.0
H4680 H 0.96624 0.3309 0.28779 0.0
H4681 H 0.88791 0.2652 0.30949 0.0
H4682 H 0.80895 0.38365 0.71626 0.0
H4683 H 0.80045 0.39872 0.72307 0.0
H4684 H 0.8181 0.41808 0.70273 0.0
H4685 H 0.8267 0.40304 0.69598 0.0
H4686 H 0.81802 0.42614 0.721 0.0
H4687 H 0.79206 0.41263 0.69869 0.0
H4688 H 0.78034 0.39954 0.69154 0.0
H4689 H 0.76559 0.39626 0.72072 0.0
H4690 H 0.77732 0.40924 0.72808 0.0
H4691 H 0.78882 0.47133 0.72715 0.0
H4692 H 0.79659 0.45603 0.71995 0.0
H4693 H 0.78169 0.43739 0.74293 0.0
H4694 H 0.7738 0.45269 0.75013 0.0
H4695 H 0.7802 0.42901 0.7234 0.0
H4696 H 0.80642 0.44279 0.74549 0.0
H4697 H 0.81805 0.45618 0.75222 0.0
H4698 H 0.83218 0.45927 0.72272 0.0
H4699 H 0.82053 0.44599 0.71577 0.0
C4700 C 0.81093 0.39111 0.71314 0.0
C4701 C 0.8185 0.39213 0.70555 0.0
C4702 C 0.80605 0.39973 0.71705 0.0
C4703 C 0.80853 0.40957 0.71336 0.0
C4704 C 0.81605 0.4106 0.70574 0.0
C4705 C 0.82098 0.40199 0.70188 0.0
C4706 C 0.80351 0.41881 0.71763 0.0
C4707 C 0.80974 0.42681 0.72137 0.0
C4708 C 0.79271 0.41964 0.71836 0.0
C4709 C 0.78564 0.41183 0.71396 0.0
C4710 C 0.78637 0.40906 0.7036 0.0
C4711 C 0.77972 0.40167 0.69951 0.0
C4712 C 0.77224 0.39705 0.70568 0.0
C4713 C 0.7714 0.39983 0.71595 0.0
C4714 C 0.77804 0.40721 0.72009 0.0
C4715 C 0.78714 0.46397 0.73063 0.0
C4716 C 0.7807 0.46323 0.73923 0.0
C4717 C 0.79164 0.45524 0.72655 0.0
C4718 C 0.78979 0.44557 0.73094 0.0
C4719 C 0.78325 0.44478 0.73943 0.0
C4720 C 0.77881 0.45353 0.74358 0.0
C4721 C 0.79472 0.4363 0.7267 0.0
C4722 C 0.78847 0.42831 0.72299 0.0
C4723 C 0.8055 0.4355 0.72592 0.0
C4724 C 0.81253 0.44347 0.73009 0.0
C4725 C 0.81195 0.44639 0.74042 0.0
C4726 C 0.81856 0.45395 0.74427 0.0
C4727 C 0.82583 0.45859 0.7379 0.0
C4728 C 0.82653 0.45567 0.72765 0.0
C4729 C 0.81994 0.44812 0.72375 0.0
H4730 H 0.83094 0.46444 0.7409 0.0
H4731 H 0.7671 0.39133 0.7025 0.0
H4732 H 0.13605 0.30817 0.71381 0.0
H4733 H 0.12085 0.30174 0.72286 0.0
H4734 H 0.10195 0.30955 0.69685 0.0
H4735 H 0.11706 0.31618 0.68786 0.0
H4736 H 0.09297 0.31494 0.71476 0.0
H4737 H 0.10911 0.28508 0.70101 0.0
H4738 H 0.12338 0.27321 0.69825 0.0
H4739 H 0.12534 0.26753 0.73061 0.0
H4740 H 0.11117 0.27948 0.73358 0.0
H4741 H 0.04824 0.28583 0.72535 0.0
H4742 H 0.06382 0.29302 0.71778 0.0
H4743 H 0.08138 0.2827 0.74385 0.0
H4744 H 0.06587 0.27508 0.75128 0.0
H4745 H 0.09141 0.27889 0.72676 0.0
H4746 H 0.07495 0.30815 0.74063 0.0
H4747 H 0.06076 0.32006 0.74358 0.0
H4748 H 0.05953 0.32707 0.71145 0.0
H4749 H 0.07363 0.31509 0.70828 0.0
C4750 C 0.12864 0.30862 0.71006 0.0
C4751 C 0.12778 0.31265 0.70008 0.0
C4752 C 0.11997 0.30486 0.71521 0.0
C4753 C 0.11027 0.30505 0.71049 0.0
C4754 C 0.10935 0.30929 0.70064 0.0
C4755 C 0.11801 0.31301 0.69547 0.0
C4756 C 0.10107 0.30071 0.71574 0.0
C4757 C 0.09259 0.30703 0.71729 0.0
C4758 C 0.10065 0.29046 0.7193 0.0
C4759 C 0.10915 0.28326 0.71753 0.0
C4760 C 0.11264 0.28136 0.70755 0.0
C4761 C 0.1207 0.27461 0.70595 0.0
C4762 C 0.12529 0.26964 0.71426 0.0
C4763 C 0.1218 0.2714 0.72418 0.0
C4764 C 0.11375 0.27815 0.72583 0.0
C4765 C 0.05542 0.28499 0.72945 0.0
C4766 C 0.05576 0.27986 0.73895 0.0
C4767 C 0.06433 0.28922 0.72515 0.0
C4768 C 0.07378 0.28855 0.7303 0.0
C4769 C 0.07418 0.28338 0.73974 0.0
C4770 C 0.06527 0.2791 0.74403 0.0
C4771 C 0.08326 0.2931 0.72573 0.0
C4772 C 0.0918 0.28682 0.7243 0.0
C4773 C 0.08375 0.30341 0.72232 0.0
C4774 C 0.07529 0.31065 0.7242 0.0
C4775 C 0.0716 0.31217 0.73418 0.0
C4776 C 0.06358 0.31895 0.73589 0.0
C4777 C 0.05923 0.3243 0.7277 0.0
C4778 C 0.06291 0.32291 0.71778 0.0
C4779 C 0.07092 0.31614 0.71602 0.0
H4780 H 0.05302 0.32954 0.72905 0.0
H4781 H 0.13153 0.26441 0.713 0.0
H4782 H 0.88152 0.70929 0.71455 0.0
H4783 H 0.89682 0.71551 0.72364 0.0
H4784 H 0.91505 0.71032 0.69673 0.0
H4785 H 0.89984 0.7039 0.68768 0.0
H4786 H 0.92473 0.70385 0.71417 0.0
H4787 H 0.9072 0.73409 0.70247 0.0
H4788 H 0.89242 0.74558 0.7008 0.0
H4789 H 0.89146 0.74894 0.73347 0.0
H4790 H 0.90615 0.73734 0.73534 0.0
H4791 H 0.96895 0.73355 0.72477 0.0
H4792 H 0.95329 0.7263 0.71741 0.0
H4793 H 0.9365 0.73485 0.74436 0.0
H4794 H 0.95206 0.74262 0.75157 0.0
H4795 H 0.92567 0.73914 0.72793 0.0
H4796 H 0.94356 0.70969 0.73983 0.0
H4797 H 0.95821 0.69808 0.7418 0.0
H4798 H 0.95834 0.69291 0.70936 0.0
H4799 H 0.94377 0.70462 0.70718 0.0
C4800 C 0.88881 0.70937 0.71061 0.0
C4801 C 0.88945 0.70615 0.70037 0.0
C4802 C 0.89753 0.713 0.71579 0.0
C4803 C 0.90706 0.71349 0.71083 0.0
C4804 C 0.90777 0.71004 0.7007 0.0
C4805 C 0.89905 0.70646 0.69551 0.0
C4806 C 0.91628 0.71774 0.7161 0.0
C4807 C 0.92498 0.7116 0.71709 0.0
C4808 C 0.9165 0.72775 0.72017 0.0
C4809 C 0.9077 0.73476 0.71905 0.0
C4810 C 0.90378 0.73721 0.7093 0.0
C4811 C 0.89543 0.74376 0.70832 0.0
C4812 C 0.89098 0.74797 0.71702 0.0
C4813 C 0.8949 0.74566 0.72673 0.0
C4814 C 0.90324 0.73911 0.72776 0.0
C4815 C 0.96192 0.734 0.7291 0.0
C4816 C 0.9618 0.73869 0.73878 0.0
C4817 C 0.95297 0.72972 0.72493 0.0
C4818 C 0.94372 0.72986 0.73039 0.0
C4819 C 0.94355 0.73459 0.74002 0.0
C4820 C 0.95249 0.73894 0.74418 0.0
C4821 C 0.9342 0.72528 0.72594 0.0
C4822 C 0.92543 0.73136 0.72509 0.0
C4823 C 0.93389 0.71518 0.72205 0.0
C4824 C 0.94263 0.7081 0.72334 0.0
C4825 C 0.94676 0.70614 0.73311 0.0
C4826 C 0.95504 0.69953 0.73426 0.0
C4827 C 0.95922 0.69478 0.72571 0.0
C4828 C 0.9551 0.69661 0.71598 0.0
C4829 C 0.94683 0.70322 0.71478 0.0
H4830 H 0.96563 0.68966 0.72662 0.0
H4831 H 0.88452 0.75303 0.71625 0.0
H4832 H 0.72106 0.1946 0.63012 0.0
H4833 H 0.72755 0.20358 0.61503 0.0
H4834 H 0.69767 0.21642 0.60969 0.0
H4835 H 0.691 0.20712 0.62462 0.0
H4836 H 0.70551 0.20983 0.59219 0.0
H4837 H 0.71755 0.23102 0.61934 0.0
H4838 H 0.72609 0.23521 0.6357 0.0
H4839 H 0.75468 0.2244 0.62399 0.0
H4840 H 0.74628 0.22 0.60761 0.0
H4841 H 0.72411 0.24564 0.55477 0.0
H4842 H 0.71664 0.23833 0.57041 0.0
H4843 H 0.7446 0.22195 0.57625 0.0
H4844 H 0.75213 0.22929 0.56066 0.0
H4845 H 0.73706 0.23137 0.59364 0.0
H4846 H 0.72442 0.20953 0.56666 0.0
H4847 H 0.71566 0.20573 0.55033 0.0
H4848 H 0.68782 0.21848 0.56187 0.0
H4849 H 0.69648 0.22249 0.57823 0.0
C4850 C 0.71582 0.19927 0.62571 0.0
C4851 C 0.70548 0.20009 0.6286 0.0
C4852 C 0.71959 0.20451 0.61713 0.0
C4853 C 0.71315 0.2108 0.61126 0.0
C4854 C 0.70281 0.21165 0.61411 0.0
C4855 C 0.69902 0.20639 0.6227 0.0
C4856 C 0.71719 0.21626 0.60204 0.0
C4857 C 0.71231 0.21468 0.59255 0.0
C4858 C 0.72616 0.22247 0.60243 0.0
C4859 C 0.73125 0.2251 0.61228 0.0
C4860 C 0.72564 0.22946 0.62028 0.0
C4861 C 0.73046 0.23188 0.62955 0.0
C4862 C 0.74091 0.23005 0.63089 0.0
C4863 C 0.74658 0.2258 0.62295 0.0
C4864 C 0.74179 0.22335 0.61367 0.0
C4865 C 0.72869 0.24054 0.55942 0.0
C4866 C 0.73871 0.23802 0.55645 0.0
C4867 C 0.72439 0.23631 0.56832 0.0
C4868 C 0.73003 0.22953 0.57447 0.0
C4869 C 0.74009 0.22715 0.57162 0.0
C4870 C 0.74436 0.23129 0.56267 0.0
C4871 C 0.72545 0.22484 0.58382 0.0
C4872 C 0.73023 0.22657 0.59332 0.0
C4873 C 0.71634 0.21884 0.58345 0.0
C4874 C 0.71113 0.21641 0.57363 0.0
C4875 C 0.71646 0.21161 0.56569 0.0
C4876 C 0.71151 0.2094 0.55643 0.0
C4877 C 0.7012 0.21189 0.55505 0.0
C4878 C 0.69581 0.21657 0.56294 0.0
C4879 C 0.70074 0.21881 0.57221 0.0
H4880 H 0.69738 0.21017 0.54788 0.0
H4881 H 0.74463 0.23194 0.63807 0.0
H4882 H 0.3082 0.21377 0.63771 0.0
H4883 H 0.30188 0.22262 0.6224 0.0
H4884 H 0.30685 0.19552 0.6045 0.0
H4885 H 0.31339 0.1867 0.61971 0.0
H4886 H 0.31325 0.21278 0.59445 0.0
H4887 H 0.28308 0.20131 0.6126 0.0
H4888 H 0.2717 0.19975 0.62757 0.0
H4889 H 0.26851 0.23239 0.62828 0.0
H4890 H 0.28 0.23415 0.6134 0.0
H4891 H 0.28304 0.22354 0.55075 0.0
H4892 H 0.29027 0.21603 0.56628 0.0
H4893 H 0.28265 0.24315 0.58316 0.0
H4894 H 0.27496 0.25054 0.56774 0.0
H4895 H 0.278 0.22667 0.59404 0.0
H4896 H 0.30751 0.23833 0.57563 0.0
H4897 H 0.31903 0.24015 0.5608 0.0
H4898 H 0.32372 0.2077 0.56068 0.0
H4899 H 0.31211 0.20566 0.57544 0.0
C4900 C 0.30806 0.20973 0.63049 0.0
C4901 C 0.31125 0.19951 0.62994 0.0
C4902 C 0.30437 0.21478 0.62177 0.0
C4903 C 0.30378 0.20969 0.61233 0.0
C4904 C 0.3072 0.19958 0.61171 0.0
C4905 C 0.31086 0.19452 0.62042 0.0
C4906 C 0.29944 0.21483 0.60313 0.0
C4907 C 0.3055 0.21572 0.59431 0.0
C4908 C 0.28943 0.21892 0.60304 0.0
C4909 C 0.28248 0.21787 0.61196 0.0
C4910 C 0.28002 0.20816 0.616 0.0
C4911 C 0.27354 0.20724 0.62446 0.0
C4912 C 0.26941 0.21597 0.62889 0.0
C4913 C 0.27173 0.22564 0.62485 0.0
C4914 C 0.27822 0.2266 0.6164 0.0
C4915 C 0.28278 0.22788 0.55778 0.0
C4916 C 0.27841 0.23767 0.55797 0.0
C4917 C 0.28705 0.22362 0.56665 0.0
C4918 C 0.28716 0.22908 0.57588 0.0
C4919 C 0.28271 0.2388 0.57612 0.0
C4920 C 0.2784 0.24306 0.56727 0.0
C4921 C 0.29178 0.22457 0.58529 0.0
C4922 C 0.28576 0.22379 0.59416 0.0
C4923 C 0.30186 0.22063 0.58544 0.0
C4924 C 0.30887 0.22183 0.57658 0.0
C4925 C 0.31094 0.23157 0.57239 0.0
C4926 C 0.31749 0.23265 0.56401 0.0
C4927 C 0.32208 0.22405 0.55978 0.0
C4928 C 0.32015 0.21436 0.56396 0.0
C4929 C 0.31359 0.21324 0.57234 0.0
H4930 H 0.32715 0.2249 0.55329 0.0
H4931 H 0.26439 0.21524 0.63544 0.0
H4932 H 0.29787 0.81276 0.63565 0.0
H4933 H 0.29179 0.80406 0.62022 0.0
H4934 H 0.31974 0.81259 0.60468 0.0
H4935 H 0.32577 0.82155 0.62003 0.0
H4936 H 0.30322 0.81612 0.59277 0.0
H4937 H 0.31555 0.78804 0.61285 0.0
H4938 H 0.31708 0.77709 0.6282 0.0
H4939 H 0.28488 0.76997 0.62666 0.0
H4940 H 0.28313 0.78099 0.61137 0.0
H4941 H 0.29482 0.78475 0.54931 0.0
H4942 H 0.30202 0.79239 0.56481 0.0
H4943 H 0.27499 0.78329 0.58162 0.0
H4944 H 0.26793 0.77521 0.56625 0.0
H4945 H 0.29155 0.77987 0.59283 0.0
H4946 H 0.27902 0.80829 0.5732 0.0
H4947 H 0.2773 0.81935 0.55795 0.0
H4948 H 0.30962 0.82597 0.55877 0.0
H4949 H 0.31156 0.81484 0.57395 0.0
C4950 C 0.30272 0.81282 0.62895 0.0
C4951 C 0.31231 0.81788 0.6291 0.0
C4952 C 0.29927 0.80775 0.62015 0.0
C4953 C 0.30534 0.80757 0.61129 0.0
C4954 C 0.31493 0.81259 0.61142 0.0
C4955 C 0.3184 0.81764 0.62024 0.0
C4956 C 0.30155 0.80241 0.60183 0.0
C4957 C 0.30082 0.80815 0.59275 0.0
C4958 C 0.29817 0.79207 0.60184 0.0
C4959 C 0.2992 0.78542 0.61102 0.0
C4960 C 0.30878 0.78421 0.61583 0.0
C4961 C 0.30969 0.77797 0.62451 0.0
C4962 C 0.30108 0.77286 0.62841 0.0
C4963 C 0.29155 0.77395 0.62363 0.0
C4964 C 0.29059 0.78018 0.61495 0.0
C4965 C 0.29044 0.78425 0.55632 0.0
C4966 C 0.28075 0.77937 0.55648 0.0
C4967 C 0.29453 0.78874 0.56518 0.0
C4968 C 0.28899 0.78857 0.57438 0.0
C4969 C 0.2794 0.78358 0.57461 0.0
C4970 C 0.27532 0.77904 0.56577 0.0
C4971 C 0.29319 0.7936 0.58377 0.0
C4972 C 0.29398 0.78784 0.59284 0.0
C4973 C 0.2966 0.80393 0.58376 0.0
C4974 C 0.29545 0.81065 0.57465 0.0
C4975 C 0.28577 0.81204 0.57008 0.0
C4976 C 0.28476 0.81834 0.56146 0.0
C4977 C 0.29335 0.82334 0.55738 0.0
C4978 C 0.30297 0.82208 0.56193 0.0
C4979 C 0.30404 0.81579 0.57055 0.0
H4980 H 0.29254 0.82821 0.5507 0.0
H4981 H 0.3018 0.76803 0.63513 0.0
H4982 H 0.70958 0.80558 0.63622 0.0
H4983 H 0.71604 0.7967 0.62116 0.0
H4984 H 0.7084 0.82266 0.60222 0.0
H4985 H 0.7017 0.83148 0.61719 0.0
H4986 H 0.70312 0.80485 0.59296 0.0
H4987 H 0.73293 0.81878 0.61002 0.0
H4988 H 0.74465 0.82158 0.62463 0.0
H4989 H 0.75013 0.78931 0.6266 0.0
H4990 H 0.73832 0.7863 0.61208 0.0
H4991 H 0.73296 0.7948 0.54914 0.0
H4992 H 0.72564 0.80227 0.56452 0.0
H4993 H 0.73519 0.77608 0.58221 0.0
H4994 H 0.7429 0.76873 0.56692 0.0
H4995 H 0.7392 0.79321 0.59241 0.0
H4996 H 0.70996 0.77924 0.57499 0.0
H4997 H 0.69821 0.77632 0.56042 0.0
H4998 H 0.69154 0.80839 0.55919 0.0
H4999 H 0.70337 0.81153 0.57367 0.0
C5000 C 0.70915 0.80935 0.62883 0.0
C5001 C 0.70517 0.81927 0.62793 0.0
C5002 C 0.71294 0.8043 0.62023 0.0
C5003 C 0.71283 0.80906 0.61056 0.0
C5004 C 0.70861 0.81884 0.6096 0.0
C5005 C 0.70485 0.82391 0.61819 0.0
C5006 C 0.71727 0.80394 0.60147 0.0
C5007 C 0.71104 0.80241 0.5928 0.0
C5008 C 0.72753 0.8005 0.60133 0.0
C5009 C 0.73466 0.8023 0.61004 0.0
C5010 C 0.73657 0.81227 0.61362 0.0
C5011 C 0.74324 0.8139 0.62188 0.0
C5012 C 0.74811 0.80563 0.62656 0.0
C5013 C 0.74634 0.79571 0.62298 0.0
C5014 C 0.73966 0.79404 0.61473 0.0
C5015 C 0.73361 0.79066 0.55632 0.0
C5016 C 0.73853 0.78114 0.55676 0.0
C5017 C 0.7293 0.79489 0.56509 0.0
C5018 C 0.72972 0.78968 0.57452 0.0
C5019 C 0.73471 0.78023 0.57502 0.0
C5020 C 0.73905 0.77599 0.56624 0.0
C5021 C 0.72508 0.79418 0.58385 0.0
C5022 C 0.73126 0.7956 0.59257 0.0
C5023 C 0.71477 0.79749 0.58404 0.0
C5024 C 0.70762 0.79563 0.57536 0.0
C5025 C 0.70605 0.78568 0.57156 0.0
C5026 C 0.69936 0.78399 0.56333 0.0
C5027 C 0.69415 0.79217 0.55887 0.0
C5028 C 0.69559 0.80206 0.56265 0.0
C5029 C 0.70228 0.8038 0.57087 0.0
H5030 H 0.68898 0.79084 0.55249 0.0
H5031 H 0.75328 0.8069 0.63295 0.0
H5032 H 0.72228 0.82833 0.39199 0.0
H5033 H 0.72861 0.81939 0.40714 0.0
H5034 H 0.70101 0.8009 0.40791 0.0
H5035 H 0.69439 0.81015 0.39299 0.0
H5036 H 0.70594 0.8071 0.42664 0.0
H5037 H 0.72393 0.79126 0.39924 0.0
H5038 H 0.73463 0.79065 0.38374 0.0
H5039 H 0.75951 0.80516 0.39995 0.0
H5040 H 0.74891 0.80598 0.41551 0.0
H5041 H 0.72562 0.7717 0.46319 0.0
H5042 H 0.7187 0.77924 0.44747 0.0
H5043 H 0.74518 0.7992 0.44534 0.0
H5044 H 0.75232 0.79145 0.46084 0.0
H5045 H 0.74039 0.79138 0.42702 0.0
H5046 H 0.72203 0.80778 0.45421 0.0
H5047 H 0.71127 0.80832 0.46967 0.0
H5048 H 0.687 0.79253 0.45374 0.0
H5049 H 0.69767 0.79178 0.43822 0.0
C5050 C 0.71749 0.82244 0.39542 0.0
C5051 C 0.7078 0.81998 0.39124 0.0
C5052 C 0.72119 0.81724 0.40403 0.0
C5053 C 0.71537 0.80936 0.4086 0.0
C5054 C 0.70567 0.80692 0.4045 0.0
C5055 C 0.70194 0.81215 0.3959 0.0
C5056 C 0.71935 0.80381 0.41773 0.0
C5057 C 0.7134 0.80352 0.42667 0.0
C5058 C 0.72918 0.79929 0.41785 0.0
C5059 C 0.73559 0.79876 0.40852 0.0
C5060 C 0.73166 0.79439 0.39948 0.0
C5061 C 0.73771 0.79399 0.39069 0.0
C5062 C 0.74773 0.79788 0.39085 0.0
C5063 C 0.75174 0.80215 0.39983 0.0
C5064 C 0.74572 0.80258 0.40864 0.0
C5065 C 0.73003 0.77762 0.45932 0.0
C5066 C 0.73952 0.78099 0.46332 0.0
C5067 C 0.72601 0.78199 0.45039 0.0
C5068 C 0.73135 0.78988 0.44529 0.0
C5069 C 0.7409 0.79315 0.44916 0.0
C5070 C 0.74493 0.78877 0.45808 0.0
C5071 C 0.72702 0.79477 0.43594 0.0
C5072 C 0.7329 0.79492 0.42697 0.0
C5073 C 0.71713 0.79914 0.43578 0.0
C5074 C 0.71069 0.79963 0.44509 0.0
C5075 C 0.71443 0.80436 0.45403 0.0
C5076 C 0.70834 0.80471 0.4628 0.0
C5077 C 0.69847 0.80044 0.4627 0.0
C5078 C 0.69465 0.79583 0.45382 0.0
C5079 C 0.70071 0.79544 0.44503 0.0
H5080 H 0.69377 0.80073 0.4695 0.0
H5081 H 0.7524 0.79757 0.38404 0.0
H5082 H 0.71124 0.19274 0.39147 0.0
H5083 H 0.72048 0.19959 0.40631 0.0
H5084 H 0.69899 0.22434 0.40809 0.0
H5085 H 0.68999 0.2178 0.39303 0.0
H5086 H 0.71777 0.23144 0.41091 0.0
H5087 H 0.69797 0.20323 0.42452 0.0
H5088 H 0.69198 0.1853 0.42569 0.0
H5089 H 0.72277 0.17554 0.43166 0.0
H5090 H 0.72898 0.19341 0.43039 0.0
H5091 H 0.72645 0.24812 0.46186 0.0
H5092 H 0.71908 0.24101 0.4462 0.0
H5093 H 0.74304 0.21861 0.44523 0.0
H5094 H 0.75065 0.22583 0.46079 0.0
H5095 H 0.72408 0.21002 0.44171 0.0
H5096 H 0.74369 0.23845 0.42896 0.0
H5097 H 0.74957 0.25642 0.42789 0.0
H5098 H 0.71898 0.26583 0.42044 0.0
H5099 H 0.71288 0.24793 0.42161 0.0
C5100 C 0.70853 0.19969 0.39495 0.0
C5101 C 0.6998 0.20466 0.39105 0.0
C5102 C 0.71377 0.20355 0.40352 0.0
C5103 C 0.71037 0.21242 0.40844 0.0
C5104 C 0.70176 0.21746 0.40448 0.0
C5105 C 0.69654 0.21364 0.39591 0.0
C5106 C 0.71574 0.2165 0.41769 0.0
C5107 C 0.71904 0.22677 0.41768 0.0
C5108 C 0.71767 0.21038 0.42646 0.0
C5109 C 0.71395 0.19964 0.42724 0.0
C5110 C 0.70348 0.19725 0.426 0.0
C5111 C 0.70004 0.1871 0.42669 0.0
C5112 C 0.70699 0.17929 0.42872 0.0
C5113 C 0.7174 0.1816 0.43007 0.0
C5114 C 0.72088 0.19174 0.42937 0.0
C5115 C 0.73027 0.24178 0.45827 0.0
C5116 C 0.7392 0.2376 0.46262 0.0
C5117 C 0.726 0.23769 0.44931 0.0
C5118 C 0.73055 0.22933 0.44447 0.0
C5119 C 0.73939 0.22506 0.44883 0.0
C5120 C 0.7437 0.22918 0.45777 0.0
C5121 C 0.72597 0.22498 0.43495 0.0
C5122 C 0.72284 0.21466 0.43492 0.0
C5123 C 0.72417 0.23107 0.42614 0.0
C5124 C 0.72781 0.24185 0.42546 0.0
C5125 C 0.7382 0.24436 0.42718 0.0
C5126 C 0.74158 0.25453 0.42654 0.0
C5127 C 0.73465 0.26225 0.42412 0.0
C5128 C 0.72434 0.25983 0.42232 0.0
C5129 C 0.72092 0.24967 0.42296 0.0
H5130 H 0.73728 0.27012 0.42361 0.0
H5131 H 0.70431 0.17144 0.42925 0.0
H5132 H 0.31345 0.22184 0.38597 0.0
H5133 H 0.30494 0.22806 0.40131 0.0
H5134 H 0.31031 0.19919 0.41641 0.0
H5135 H 0.31884 0.1929 0.40105 0.0
H5136 H 0.29142 0.20584 0.42056 0.0
H5137 H 0.32531 0.22014 0.42162 0.0
H5138 H 0.34041 0.22955 0.41504 0.0
H5139 H 0.32249 0.25673 0.41185 0.0
H5140 H 0.30723 0.24744 0.41828 0.0
H5141 H 0.28323 0.2238 0.47149 0.0
H5142 H 0.29068 0.21676 0.45595 0.0
H5143 H 0.28392 0.24464 0.43964 0.0
H5144 H 0.2762 0.25167 0.45505 0.0
H5145 H 0.30361 0.23825 0.43632 0.0
H5146 H 0.26965 0.2236 0.4355 0.0
H5147 H 0.25483 0.21398 0.4424 0.0
H5148 H 0.27332 0.18719 0.44562 0.0
H5149 H 0.2883 0.1967 0.43887 0.0
C5150 C 0.31286 0.21682 0.39256 0.0
C5151 C 0.31692 0.2069 0.3923 0.0
C5152 C 0.30798 0.22039 0.40134 0.0
C5153 C 0.30712 0.21416 0.4101 0.0
C5154 C 0.31089 0.20414 0.40976 0.0
C5155 C 0.31575 0.20055 0.40096 0.0
C5156 C 0.30246 0.21819 0.41964 0.0
C5157 C 0.29418 0.21286 0.42408 0.0
C5158 C 0.30594 0.22743 0.42417 0.0
C5159 C 0.3151 0.23306 0.42034 0.0
C5160 C 0.32457 0.2281 0.41944 0.0
C5161 C 0.33316 0.23342 0.41575 0.0
C5162 C 0.3324 0.24373 0.413 0.0
C5163 C 0.32306 0.24874 0.41397 0.0
C5164 C 0.31444 0.24346 0.41765 0.0
C5165 C 0.28317 0.2284 0.46457 0.0
C5166 C 0.27907 0.23833 0.46457 0.0
C5167 C 0.28748 0.22436 0.45569 0.0
C5168 C 0.28782 0.23014 0.4466 0.0
C5169 C 0.28378 0.24005 0.44657 0.0
C5170 C 0.27941 0.24408 0.45542 0.0
C5171 C 0.29253 0.22594 0.43718 0.0
C5172 C 0.30085 0.23124 0.43279 0.0
C5173 C 0.28913 0.21664 0.43275 0.0
C5174 C 0.28013 0.21089 0.43677 0.0
C5175 C 0.27058 0.21568 0.43776 0.0
C5176 C 0.26215 0.21025 0.44163 0.0
C5177 C 0.26314 0.19999 0.44447 0.0
C5178 C 0.27257 0.19514 0.44342 0.0
C5179 C 0.28103 0.20055 0.43957 0.0
H5180 H 0.2566 0.19579 0.44746 0.0
H5181 H 0.33906 0.24783 0.41015 0.0
H5182 H 0.30117 0.82923 0.39405 0.0
H5183 H 0.29469 0.82043 0.40926 0.0
H5184 H 0.31812 0.79765 0.40632 0.0
H5185 H 0.32479 0.80652 0.39113 0.0
H5186 H 0.2994 0.789 0.41075 0.0
H5187 H 0.32057 0.81597 0.42418 0.0
H5188 H 0.3268 0.83374 0.42606 0.0
H5189 H 0.29708 0.84281 0.43645 0.0
H5190 H 0.29063 0.82511 0.43449 0.0
H5191 H 0.29182 0.76759 0.46055 0.0
H5192 H 0.29921 0.7756 0.44528 0.0
H5193 H 0.27773 0.8003 0.44759 0.0
H5194 H 0.27058 0.79257 0.46309 0.0
H5195 H 0.29624 0.80766 0.44354 0.0
H5196 H 0.27488 0.78088 0.42971 0.0
H5197 H 0.26853 0.76316 0.42774 0.0
H5198 H 0.29839 0.75377 0.41807 0.0
H5199 H 0.30496 0.77142 0.42012 0.0
C5200 C 0.30505 0.82242 0.39668 0.0
C5201 C 0.31359 0.81867 0.39138 0.0
C5202 C 0.30129 0.81737 0.40537 0.0
C5203 C 0.30599 0.80844 0.40903 0.0
C5204 C 0.31437 0.80453 0.40365 0.0
C5205 C 0.31816 0.8096 0.39494 0.0
C5206 C 0.30215 0.80328 0.41849 0.0
C5207 C 0.29885 0.79303 0.41796 0.0
C5208 C 0.30123 0.80858 0.42786 0.0
C5209 C 0.3051 0.81923 0.4291 0.0
C5210 C 0.31534 0.82176 0.42679 0.0
C5211 C 0.31892 0.83182 0.42788 0.0
C5212 C 0.31233 0.8394 0.43135 0.0
C5213 C 0.30217 0.83693 0.43375 0.0
C5214 C 0.29855 0.82688 0.43266 0.0
C5215 C 0.28871 0.77477 0.45787 0.0
C5216 C 0.28057 0.7794 0.46308 0.0
C5217 C 0.29288 0.77929 0.44905 0.0
C5218 C 0.28896 0.78851 0.44518 0.0
C5219 C 0.28088 0.79318 0.45039 0.0
C5220 C 0.27672 0.78868 0.45921 0.0
C5221 C 0.29337 0.7934 0.4358 0.0
C5222 C 0.2968 0.8036 0.43635 0.0
C5223 C 0.29438 0.78806 0.42645 0.0
C5224 C 0.29044 0.77745 0.42517 0.0
C5225 C 0.28011 0.77502 0.42724 0.0
C5226 C 0.27647 0.76499 0.42609 0.0
C5227 C 0.28306 0.75734 0.42281 0.0
C5228 C 0.2933 0.7597 0.42063 0.0
C5229 C 0.29698 0.76972 0.42178 0.0
H5230 H 0.28022 0.74958 0.42193 0.0
H5231 H 0.31511 0.84719 0.43219 0.0
H5232 H 0.61567 0.19815 0.68931 0.0
H5233 H 0.60067 0.20499 0.69795 0.0
H5234 H 0.62026 0.21817 0.7212 0.0
H5235 H 0.63533 0.21131 0.7126 0.0
H5236 H 0.60329 0.20989 0.72964 0.0
H5237 H 0.61044 0.23288 0.70174 0.0
H5238 H 0.61373 0.23763 0.68375 0.0
H5239 H 0.58418 0.22562 0.67504 0.0
H5240 H 0.58077 0.22067 0.69297 0.0
H5241 H 0.56604 0.244 0.74959 0.0
H5242 H 0.58133 0.23653 0.74199 0.0
H5243 H 0.56275 0.22368 0.71774 0.0
H5244 H 0.54747 0.23117 0.72527 0.0
H5245 H 0.5795 0.23201 0.71001 0.0
H5246 H 0.57235 0.20891 0.73788 0.0
H5247 H 0.56906 0.20408 0.75585 0.0
H5248 H 0.59852 0.21625 0.76464 0.0
H5249 H 0.60193 0.22128 0.74673 0.0
C5250 C 0.6168 0.20253 0.69625 0.0
C5251 C 0.62673 0.20425 0.7002 0.0
C5252 C 0.60821 0.20644 0.70119 0.0
C5253 C 0.60932 0.21226 0.71015 0.0
C5254 C 0.61919 0.21372 0.7143 0.0
C5255 C 0.6278 0.20977 0.70938 0.0
C5256 C 0.60022 0.21697 0.71504 0.0
C5257 C 0.59816 0.21484 0.72539 0.0
C5258 C 0.59339 0.22328 0.70946 0.0
C5259 C 0.59539 0.22632 0.69869 0.0
C5260 C 0.60467 0.23119 0.69598 0.0
C5261 C 0.60655 0.23392 0.68579 0.0
C5262 C 0.59918 0.2319 0.67825 0.0
C5263 C 0.58989 0.22717 0.68089 0.0
C5264 C 0.58797 0.2244 0.69107 0.0
C5265 C 0.5652 0.2395 0.74269 0.0
C5266 C 0.55551 0.23819 0.73805 0.0
C5267 C 0.57396 0.23522 0.73835 0.0
C5268 C 0.57322 0.22943 0.72933 0.0
C5269 C 0.56356 0.22813 0.72468 0.0
C5270 C 0.55481 0.23245 0.72898 0.0
C5271 C 0.5825 0.22488 0.72461 0.0
C5272 C 0.58461 0.22706 0.71429 0.0
C5273 C 0.58937 0.21862 0.73021 0.0
C5274 C 0.58735 0.21556 0.74098 0.0
C5275 C 0.5781 0.21063 0.74365 0.0
C5276 C 0.57622 0.20784 0.75383 0.0
C5277 C 0.58357 0.20988 0.76139 0.0
C5278 C 0.59283 0.21469 0.75878 0.0
C5279 C 0.59474 0.2175 0.74862 0.0
H5280 H 0.5821 0.20772 0.76926 0.0
H5281 H 0.60065 0.23403 0.67037 0.0
H5282 H 0.32007 0.12136 0.6951 0.0
H5283 H 0.31135 0.10584 0.70119 0.0
H5284 H 0.30402 0.12093 0.72948 0.0
H5285 H 0.31277 0.13645 0.72345 0.0
H5286 H 0.31113 0.10253 0.73333 0.0
H5287 H 0.2857 0.11627 0.7107 0.0
H5288 H 0.27886 0.12314 0.69446 0.0
H5289 H 0.2859 0.09501 0.67934 0.0
H5290 H 0.29291 0.08803 0.69546 0.0
H5291 H 0.27518 0.06575 0.75189 0.0
H5292 H 0.2829 0.08152 0.74519 0.0
H5293 H 0.29239 0.06557 0.71809 0.0
H5294 H 0.28487 0.0497 0.72481 0.0
H5295 H 0.28401 0.08433 0.71357 0.0
H5296 H 0.30957 0.07076 0.73633 0.0
H5297 H 0.31617 0.06395 0.75269 0.0
H5298 H 0.30858 0.092 0.76768 0.0
H5299 H 0.3018 0.09892 0.75143 0.0
C5300 C 0.31649 0.12142 0.70257 0.0
C5301 C 0.31713 0.13015 0.7088 0.0
C5302 C 0.3115 0.11253 0.70604 0.0
C5303 C 0.30694 0.11222 0.71577 0.0
C5304 C 0.3075 0.12096 0.72196 0.0
C5305 C 0.31253 0.12982 0.71852 0.0
C5306 C 0.30185 0.10272 0.71963 0.0
C5307 C 0.3051 0.09865 0.72906 0.0
C5308 C 0.29414 0.09749 0.71398 0.0
C5309 C 0.28993 0.10167 0.70427 0.0
C5310 C 0.28587 0.11158 0.70389 0.0
C5311 C 0.28194 0.11549 0.69471 0.0
C5312 C 0.28197 0.10953 0.68587 0.0
C5313 C 0.2859 0.09963 0.68619 0.0
C5314 C 0.28984 0.09569 0.69535 0.0
C5315 C 0.27898 0.06555 0.74455 0.0
C5316 C 0.27944 0.05641 0.73893 0.0
C5317 C 0.28336 0.07459 0.74071 0.0
C5318 C 0.2883 0.0747 0.73118 0.0
C5319 C 0.28859 0.06566 0.72545 0.0
C5320 C 0.28425 0.0566 0.7293 0.0
C5321 C 0.29328 0.08421 0.72725 0.0
C5322 C 0.29004 0.08825 0.71782 0.0
C5323 C 0.30097 0.08945 0.73291 0.0
C5324 C 0.30508 0.08532 0.74268 0.0
C5325 C 0.30923 0.07544 0.74313 0.0
C5326 C 0.31302 0.07157 0.75239 0.0
C5327 C 0.31277 0.07753 0.76123 0.0
C5328 C 0.30876 0.08739 0.76083 0.0
C5329 C 0.30494 0.09129 0.7516 0.0
H5330 H 0.31571 0.07452 0.76838 0.0
H5331 H 0.27893 0.11256 0.67877 0.0
H5332 H 0.39246 0.8002 0.69008 0.0
H5333 H 0.40748 0.79363 0.699 0.0
H5334 H 0.40653 0.81888 0.72007 0.0
H5335 H 0.3917 0.82577 0.71088 0.0
H5336 H 0.42574 0.81557 0.71447 0.0
H5337 H 0.39833 0.79464 0.72709 0.0
H5338 H 0.38313 0.78329 0.72606 0.0
H5339 H 0.40066 0.761 0.7099 0.0
H5340 H 0.41593 0.77228 0.71071 0.0
H5341 H 0.46059 0.79285 0.75018 0.0
H5342 H 0.44526 0.80007 0.74226 0.0
H5343 H 0.44605 0.77705 0.71878 0.0
H5344 H 0.46152 0.76992 0.72648 0.0
H5345 H 0.42665 0.77952 0.72647 0.0
H5346 H 0.45396 0.80104 0.7136 0.0
H5347 H 0.46905 0.81249 0.71505 0.0
H5348 H 0.45142 0.83379 0.7324 0.0
H5349 H 0.43625 0.82238 0.73117 0.0
C5350 C 0.39549 0.80444 0.69654 0.0
C5351 C 0.39083 0.81355 0.69973 0.0
C5352 C 0.40403 0.80059 0.70172 0.0
C5353 C 0.40808 0.80566 0.71032 0.0
C5354 C 0.40352 0.81479 0.71349 0.0
C5355 C 0.39498 0.81868 0.70828 0.0
C5356 C 0.41714 0.80146 0.71588 0.0
C5357 C 0.42586 0.80773 0.71724 0.0
C5358 C 0.41742 0.79118 0.71937 0.0
C5359 C 0.40825 0.78435 0.71888 0.0
C5360 C 0.39893 0.78735 0.72325 0.0
C5361 C 0.3903 0.78092 0.72271 0.0
C5362 C 0.39092 0.77144 0.71789 0.0
C5363 C 0.40018 0.76835 0.71362 0.0
C5364 C 0.40883 0.77476 0.71412 0.0
C5365 C 0.4576 0.78937 0.74326 0.0
C5366 C 0.46237 0.7808 0.73897 0.0
C5367 C 0.44878 0.7935 0.73876 0.0
C5368 C 0.44453 0.78916 0.72988 0.0
C5369 C 0.44917 0.78052 0.72565 0.0
C5370 C 0.45801 0.77642 0.73011 0.0
C5371 C 0.43524 0.79359 0.72496 0.0
C5372 C 0.42649 0.78736 0.72374 0.0
C5373 C 0.43491 0.80392 0.72167 0.0
C5374 C 0.44401 0.81081 0.72239 0.0
C5375 C 0.45333 0.80812 0.7178 0.0
C5376 C 0.46189 0.81461 0.71857 0.0
C5377 C 0.4612 0.82385 0.72384 0.0
C5378 C 0.45194 0.82662 0.72833 0.0
C5379 C 0.44336 0.82015 0.72759 0.0
H5380 H 0.46784 0.82887 0.72443 0.0
H5381 H 0.38424 0.76647 0.71749 0.0
H5382 H 0.7125 0.88172 0.71584 0.0
H5383 H 0.72099 0.89714 0.7224 0.0
H5384 H 0.70012 0.91587 0.70499 0.0
H5385 H 0.69168 0.90046 0.69829 0.0
H5386 H 0.71875 0.92373 0.70387 0.0
H5387 H 0.69725 0.91171 0.73116 0.0
H5388 H 0.69036 0.89917 0.74359 0.0
H5389 H 0.72022 0.89621 0.75721 0.0
H5390 H 0.72732 0.90863 0.74476 0.0
H5391 H 0.72612 0.97026 0.73124 0.0
H5392 H 0.71885 0.95456 0.72393 0.0
H5393 H 0.74221 0.9369 0.73911 0.0
H5394 H 0.74948 0.95259 0.74653 0.0
H5395 H 0.72277 0.92843 0.74135 0.0
H5396 H 0.74396 0.94116 0.71407 0.0
H5397 H 0.75036 0.95405 0.70174 0.0
H5398 H 0.72036 0.95609 0.68824 0.0
H5399 H 0.71374 0.94332 0.70059 0.0
C5400 C 0.7097 0.88913 0.71342 0.0
C5401 C 0.70137 0.88986 0.70659 0.0
C5402 C 0.71456 0.89794 0.71719 0.0
C5403 C 0.7111 0.9077 0.71434 0.0
C5404 C 0.70293 0.90844 0.70732 0.0
C5405 C 0.69813 0.89963 0.70348 0.0
C5406 C 0.7159 0.91711 0.71874 0.0
C5407 C 0.71951 0.9248 0.71207 0.0
C5408 C 0.71709 0.91847 0.72945 0.0
C5409 C 0.71284 0.91103 0.73696 0.0
C5410 C 0.70236 0.90833 0.73676 0.0
C5411 C 0.69842 0.90125 0.74381 0.0
C5412 C 0.70486 0.89688 0.75117 0.0
C5413 C 0.71525 0.89959 0.7515 0.0
C5414 C 0.71924 0.90666 0.74445 0.0
C5415 C 0.72969 0.96303 0.73306 0.0
C5416 C 0.73838 0.96267 0.73947 0.0
C5417 C 0.72557 0.95407 0.72881 0.0
C5418 C 0.73003 0.94456 0.73091 0.0
C5419 C 0.73866 0.94416 0.73736 0.0
C5420 C 0.74284 0.95313 0.74154 0.0
C5421 C 0.72558 0.93502 0.72648 0.0
C5422 C 0.72203 0.92733 0.73315 0.0
C5423 C 0.72436 0.9337 0.71579 0.0
C5424 C 0.72833 0.94135 0.70832 0.0
C5425 C 0.73871 0.94442 0.70853 0.0
C5426 C 0.74238 0.95169 0.70152 0.0
C5427 C 0.73577 0.9559 0.69423 0.0
C5428 C 0.72547 0.95283 0.6939 0.0
C5429 C 0.72176 0.94557 0.7009 0.0
H5430 H 0.73863 0.96153 0.68881 0.0
H5431 H 0.70179 0.8914 0.75662 0.0
H5432 H 0.61941 0.82092 0.32813 0.0
H5433 H 0.60395 0.81447 0.31949 0.0
H5434 H 0.62245 0.79462 0.30108 0.0
H5435 H 0.63796 0.80111 0.30965 0.0
H5436 H 0.60715 0.80481 0.28982 0.0
H5437 H 0.6102 0.78467 0.32066 0.0
H5438 H 0.61211 0.78205 0.33928 0.0
H5439 H 0.58402 0.79802 0.34441 0.0
H5440 H 0.58203 0.80087 0.32582 0.0
H5441 H 0.56712 0.7725 0.27107 0.0
H5442 H 0.58282 0.77944 0.27883 0.0
H5443 H 0.56473 0.79564 0.30093 0.0
H5444 H 0.54905 0.7885 0.29335 0.0
H5445 H 0.58008 0.78737 0.31025 0.0
H5446 H 0.5767 0.80776 0.2799 0.0
H5447 H 0.57461 0.81108 0.26141 0.0
H5448 H 0.60283 0.79567 0.2554 0.0
H5449 H 0.60503 0.79213 0.27385 0.0
C5450 C 0.6202 0.81526 0.32217 0.0
C5451 C 0.6299 0.8115 0.31959 0.0
C5452 C 0.61136 0.81154 0.31729 0.0
C5453 C 0.61205 0.80401 0.30971 0.0
C5454 C 0.62174 0.80042 0.30693 0.0
C5455 C 0.63058 0.80407 0.31188 0.0
C5456 C 0.60264 0.79972 0.30485 0.0
C5457 C 0.60127 0.80088 0.29424 0.0
C5458 C 0.59487 0.79483 0.31068 0.0
C5459 C 0.59602 0.79307 0.32186 0.0
C5460 C 0.60448 0.7877 0.32576 0.0
C5461 C 0.60556 0.78616 0.33631 0.0
C5462 C 0.5982 0.78989 0.34303 0.0
C5463 C 0.58972 0.79514 0.3392 0.0
C5464 C 0.58861 0.79672 0.32866 0.0
C5465 C 0.56651 0.7776 0.27754 0.0
C5466 C 0.55686 0.77996 0.2816 0.0
C5467 C 0.57549 0.78159 0.28196 0.0
C5468 C 0.57499 0.78819 0.2904 0.0
C5469 C 0.56534 0.79055 0.29445 0.0
C5470 C 0.55638 0.78647 0.29011 0.0
C5471 C 0.5845 0.79248 0.29517 0.0
C5472 C 0.58591 0.79131 0.30578 0.0
C5473 C 0.59225 0.79745 0.28934 0.0
C5474 C 0.59098 0.79959 0.27825 0.0
C5475 C 0.58243 0.80501 0.27463 0.0
C5476 C 0.58123 0.80694 0.26415 0.0
C5477 C 0.58857 0.80356 0.25723 0.0
C5478 C 0.59714 0.79827 0.26077 0.0
C5479 C 0.59837 0.79631 0.27123 0.0
H5480 H 0.58763 0.80506 0.24912 0.0
H5481 H 0.59906 0.78869 0.35119 0.0
H5482 H 0.71907 0.12491 0.32966 0.0
H5483 H 0.72558 0.10981 0.32107 0.0
H5484 H 0.70147 0.11197 0.29849 0.0
H5485 H 0.69496 0.12723 0.30697 0.0
H5486 H 0.70409 0.09224 0.30512 0.0
H5487 H 0.72549 0.1195 0.2925 0.0
H5488 H 0.73701 0.13453 0.29385 0.0
H5489 H 0.75881 0.11668 0.31075 0.0
H5490 H 0.74735 0.10158 0.30962 0.0
H5491 H 0.72588 0.0562 0.27111 0.0
H5492 H 0.71881 0.07169 0.27851 0.0
H5493 H 0.74353 0.07266 0.30055 0.0
H5494 H 0.75094 0.05746 0.29287 0.0
H5495 H 0.74023 0.09114 0.29349 0.0
H5496 H 0.71876 0.06409 0.30674 0.0
H5497 H 0.70724 0.04903 0.30574 0.0
H5498 H 0.68563 0.06635 0.28805 0.0
H5499 H 0.69708 0.08148 0.28884 0.0
C5500 C 0.7152 0.12228 0.3228 0.0
C5501 C 0.70653 0.1274 0.31897 0.0
C5502 C 0.71892 0.1136 0.31791 0.0
C5503 C 0.7141 0.10981 0.30905 0.0
C5504 C 0.70532 0.11475 0.30531 0.0
C5505 C 0.7016 0.12347 0.31019 0.0
C5506 C 0.71827 0.10072 0.30372 0.0
C5507 C 0.71195 0.09205 0.30243 0.0
C5508 C 0.72859 0.10037 0.30041 0.0
C5509 C 0.73552 0.10943 0.30105 0.0
C5510 C 0.73271 0.1188 0.29657 0.0
C5511 C 0.73923 0.12733 0.29729 0.0
C5512 C 0.74862 0.12657 0.30241 0.0
C5513 C 0.75153 0.11726 0.3068 0.0
C5514 C 0.74503 0.10871 0.30611 0.0
C5515 C 0.7299 0.05976 0.27745 0.0
C5516 C 0.73899 0.05551 0.28139 0.0
C5517 C 0.72576 0.06857 0.28177 0.0
C5518 C 0.73053 0.07329 0.29021 0.0
C5519 C 0.73966 0.06915 0.29408 0.0
C5520 C 0.74384 0.06038 0.28973 0.0
C5521 C 0.72609 0.08259 0.29498 0.0
C5522 C 0.73236 0.09132 0.29615 0.0
C5523 C 0.71574 0.08297 0.29822 0.0
C5524 C 0.70883 0.07389 0.29776 0.0
C5525 C 0.71159 0.06467 0.30257 0.0
C5526 C 0.70506 0.05612 0.30206 0.0
C5527 C 0.69572 0.05672 0.29681 0.0
C5528 C 0.69287 0.06589 0.2921 0.0
C5529 C 0.69937 0.07445 0.29258 0.0
H5530 H 0.69069 0.0501 0.29642 0.0
H5531 H 0.75366 0.13318 0.30296 0.0
H5532 H 0.38194 0.21372 0.31132 0.0
H5533 H 0.3971 0.2227 0.30469 0.0
H5534 H 0.41601 0.19736 0.31382 0.0
H5535 H 0.40093 0.18845 0.32068 0.0
H5536 H 0.42517 0.21551 0.31837 0.0
H5537 H 0.40858 0.20033 0.28907 0.0
H5538 H 0.39414 0.19685 0.27729 0.0
H5539 H 0.39214 0.22888 0.27022 0.0
H5540 H 0.40649 0.23257 0.28208 0.0
H5541 H 0.46943 0.22519 0.28857 0.0
H5542 H 0.45391 0.21778 0.29609 0.0
H5543 H 0.43647 0.24351 0.28523 0.0
H5544 H 0.45192 0.25081 0.27735 0.0
H5545 H 0.42623 0.22603 0.28183 0.0
H5546 H 0.44328 0.24121 0.31054 0.0
H5547 H 0.45771 0.24476 0.32231 0.0
H5548 H 0.45883 0.21296 0.33057 0.0
H5549 H 0.44449 0.2092 0.31874 0.0
C5550 C 0.38934 0.21011 0.31204 0.0
C5551 C 0.3902 0.20033 0.31649 0.0
C5552 C 0.398 0.21522 0.30816 0.0
C5553 C 0.40769 0.21066 0.30863 0.0
C5554 C 0.40861 0.20102 0.31332 0.0
C5555 C 0.39996 0.1959 0.31717 0.0
C5556 C 0.41686 0.21582 0.3041 0.0
C5557 C 0.42545 0.21771 0.31035 0.0
C5558 C 0.41714 0.21894 0.2937 0.0
C5559 C 0.40854 0.21674 0.28654 0.0
C5560 C 0.40501 0.20664 0.28507 0.0
C5561 C 0.39685 0.20463 0.27836 0.0
C5562 C 0.39221 0.21265 0.27303 0.0
C5563 C 0.39574 0.22269 0.27437 0.0
C5564 C 0.40388 0.22474 0.28107 0.0
C5565 C 0.46228 0.22924 0.28769 0.0
C5566 C 0.46195 0.23861 0.28234 0.0
C5567 C 0.45342 0.22505 0.2921 0.0
C5568 C 0.44402 0.23015 0.29136 0.0
C5569 C 0.44363 0.23945 0.28596 0.0
C5570 C 0.4525 0.24366 0.28153 0.0
C5571 C 0.4346 0.22567 0.29609 0.0
C5572 C 0.42595 0.22389 0.28986 0.0
C5573 C 0.43426 0.22267 0.30653 0.0
C5574 C 0.44287 0.22491 0.31368 0.0
C5575 C 0.44665 0.23496 0.31481 0.0
C5576 C 0.45481 0.23701 0.3215 0.0
C5577 C 0.4592 0.22908 0.32717 0.0
C5578 C 0.45543 0.21909 0.32617 0.0
C5579 C 0.44728 0.217 0.31948 0.0
H5580 H 0.46552 0.23069 0.33235 0.0
H5581 H 0.38589 0.21108 0.26784 0.0
H5582 H 0.32871 0.90127 0.32058 0.0
H5583 H 0.32026 0.91663 0.31418 0.0
H5584 H 0.29785 0.89787 0.29845 0.0
H5585 H 0.30636 0.88247 0.30474 0.0
H5586 H 0.30394 0.91263 0.28627 0.0
H5587 H 0.2922 0.9112 0.32088 0.0
H5588 H 0.29377 0.91003 0.33967 0.0
H5589 H 0.31145 0.93794 0.34007 0.0
H5590 H 0.3101 0.93921 0.32125 0.0
H5591 H 0.26956 0.95315 0.2748 0.0
H5592 H 0.27704 0.93757 0.28196 0.0
H5593 H 0.30141 0.9555 0.29565 0.0
H5594 H 0.29385 0.97113 0.28868 0.0
H5595 H 0.29385 0.94108 0.30895 0.0
H5596 H 0.30564 0.94211 0.27409 0.0
H5597 H 0.30362 0.94321 0.25534 0.0
H5598 H 0.28518 0.91579 0.25558 0.0
H5599 H 0.28697 0.91461 0.27436 0.0
C5600 C 0.32191 0.90041 0.31587 0.0
C5601 C 0.3182 0.89062 0.31321 0.0
C5602 C 0.31707 0.90922 0.3122 0.0
C5603 C 0.30831 0.90846 0.30591 0.0
C5604 C 0.30459 0.89869 0.30327 0.0
C5605 C 0.30947 0.88988 0.30687 0.0
C5606 C 0.30321 0.91783 0.30188 0.0
C5607 C 0.30159 0.91877 0.29127 0.0
C5608 C 0.30031 0.92598 0.30833 0.0
C5609 C 0.30113 0.92525 0.31965 0.0
C5610 C 0.29649 0.91705 0.32497 0.0
C5611 C 0.29733 0.91637 0.33562 0.0
C5612 C 0.30273 0.92389 0.34106 0.0
C5613 C 0.30728 0.93211 0.33584 0.0
C5614 C 0.30647 0.93282 0.32519 0.0
C5615 C 0.27646 0.95379 0.2794 0.0
C5616 C 0.28112 0.9634 0.28113 0.0
C5617 C 0.28078 0.94487 0.28343 0.0
C5618 C 0.28985 0.94534 0.28927 0.0
C5619 C 0.29443 0.95493 0.29115 0.0
C5620 C 0.29014 0.96385 0.28708 0.0
C5621 C 0.29461 0.93585 0.29338 0.0
C5622 C 0.29617 0.9349 0.30398 0.0
C5623 C 0.2974 0.92767 0.28694 0.0
C5624 C 0.29636 0.92833 0.27564 0.0
C5625 C 0.30109 0.93636 0.27015 0.0
C5626 C 0.3 0.93699 0.25952 0.0
C5627 C 0.29425 0.92959 0.25427 0.0
C5628 C 0.28961 0.92152 0.25965 0.0
C5629 C 0.29067 0.92087 0.27029 0.0
H5630 H 0.29341 0.93009 0.24604 0.0
H5631 H 0.30337 0.92335 0.34931 0.0
H5632 H 0.68989 0.11733 0.69879 0.0
H5633 H 0.69827 0.10201 0.70547 0.0
H5634 H 0.71976 0.12091 0.72224 0.0
H5635 H 0.71151 0.13628 0.71545 0.0
H5636 H 0.72921 0.10475 0.71282 0.0
H5637 H 0.70005 0.10987 0.73449 0.0
H5638 H 0.68176 0.11248 0.73826 0.0
H5639 H 0.67415 0.08371 0.72428 0.0
H5640 H 0.69239 0.08099 0.7203 0.0
H5641 H 0.7484 0.06634 0.74641 0.0
H5642 H 0.74077 0.08174 0.73906 0.0
H5643 H 0.71725 0.06326 0.72463 0.0
H5644 H 0.72479 0.04786 0.73205 0.0
H5645 H 0.70888 0.07935 0.73278 0.0
H5646 H 0.73777 0.07402 0.71101 0.0
H5647 H 0.75597 0.07129 0.70688 0.0
H5648 H 0.76402 0.10014 0.72045 0.0
H5649 H 0.74589 0.10298 0.72479 0.0
C5650 C 0.69647 0.11824 0.7038 0.0
C5651 C 0.70001 0.12805 0.7066 0.0
C5652 C 0.70121 0.10947 0.70769 0.0
C5653 C 0.70958 0.1103 0.71445 0.0
C5654 C 0.71329 0.12007 0.71706 0.0
C5655 C 0.70852 0.12885 0.71323 0.0
C5656 C 0.71434 0.10099 0.71895 0.0
C5657 C 0.72481 0.09925 0.71729 0.0
C5658 C 0.70854 0.09369 0.72459 0.0
C5659 C 0.69758 0.09528 0.72701 0.0
C5660 C 0.69447 0.10414 0.73215 0.0
C5661 C 0.68411 0.10563 0.73433 0.0
C5662 C 0.67679 0.09827 0.73149 0.0
C5663 C 0.67982 0.0894 0.72647 0.0
C5664 C 0.69017 0.08788 0.72426 0.0
C5665 C 0.74166 0.06554 0.7416 0.0
C5666 C 0.73722 0.05585 0.73981 0.0
C5667 C 0.73729 0.07437 0.73738 0.0
C5668 C 0.72848 0.07369 0.73116 0.0
C5669 C 0.72403 0.06402 0.72941 0.0
C5670 C 0.72834 0.0552 0.73368 0.0
C5671 C 0.72379 0.08305 0.72663 0.0
C5672 C 0.71332 0.08482 0.72829 0.0
C5673 C 0.72958 0.09034 0.72094 0.0
C5674 C 0.74048 0.08867 0.71832 0.0
C5675 C 0.74343 0.07975 0.71319 0.0
C5676 C 0.75373 0.07818 0.7108 0.0
C5677 C 0.76115 0.08552 0.71343 0.0
C5678 C 0.75827 0.09445 0.71843 0.0
C5679 C 0.74798 0.09605 0.72085 0.0
H5680 H 0.76912 0.0843 0.71157 0.0
H5681 H 0.66877 0.09944 0.73318 0.0
H5682 H 0.71448 0.88566 0.3181 0.0
H5683 H 0.72341 0.90095 0.31167 0.0
H5684 H 0.69467 0.91296 0.30077 0.0
H5685 H 0.68569 0.8978 0.30728 0.0
H5686 H 0.70953 0.91434 0.2863 0.0
H5687 H 0.70618 0.92241 0.32221 0.0
H5688 H 0.7084 0.9193 0.34072 0.0
H5689 H 0.74108 0.91852 0.33696 0.0
H5690 H 0.73905 0.92149 0.31839 0.0
H5691 H 0.72337 0.96522 0.27446 0.0
H5692 H 0.71559 0.94972 0.2817 0.0
H5693 H 0.74479 0.94137 0.29481 0.0
H5694 H 0.75251 0.9571 0.28784 0.0
H5695 H 0.73058 0.9375 0.30806 0.0
H5696 H 0.73451 0.92968 0.27264 0.0
H5697 H 0.73287 0.93236 0.254 0.0
H5698 H 0.70005 0.93187 0.25653 0.0
H5699 H 0.70149 0.92933 0.27521 0.0
C5700 C 0.71004 0.89161 0.31446 0.0
C5701 C 0.69936 0.89047 0.31319 0.0
C5702 C 0.71516 0.90034 0.31076 0.0
C5703 C 0.7097 0.90812 0.30577 0.0
C5704 C 0.69904 0.90704 0.30455 0.0
C5705 C 0.69393 0.89834 0.30825 0.0
C5706 C 0.71506 0.91731 0.30157 0.0
C5707 C 0.71404 0.91947 0.29108 0.0
C5708 C 0.72123 0.92381 0.30773 0.0
C5709 C 0.72246 0.92207 0.3189 0.0
C5710 C 0.71384 0.9215 0.32532 0.0
C5711 C 0.71506 0.91977 0.33582 0.0
C5712 C 0.72487 0.91869 0.34001 0.0
C5713 C 0.73348 0.91935 0.3337 0.0
C5714 C 0.7323 0.92106 0.32319 0.0
C5715 C 0.72813 0.96005 0.27884 0.0
C5716 C 0.73856 0.96232 0.28053 0.0
C5717 C 0.72369 0.95117 0.28296 0.0
C5718 C 0.72963 0.94424 0.28865 0.0
C5719 C 0.74004 0.94656 0.29043 0.0
C5720 C 0.74445 0.95554 0.28645 0.0
C5721 C 0.72495 0.93463 0.29279 0.0
C5722 C 0.72612 0.93236 0.30326 0.0
C5723 C 0.719 0.92795 0.28658 0.0
C5724 C 0.71811 0.9294 0.27533 0.0
C5725 C 0.72694 0.93021 0.26923 0.0
C5726 C 0.72605 0.93169 0.25865 0.0
C5727 C 0.71636 0.9323 0.25408 0.0
C5728 C 0.70754 0.93141 0.26008 0.0
C5729 C 0.70839 0.92993 0.27066 0.0
H5730 H 0.71569 0.93346 0.2459 0.0
H5731 H 0.7258 0.91735 0.34815 0.0
H5732 H 0.62837 0.21079 0.32376 0.0
H5733 H 0.61295 0.21939 0.31753 0.0
H5734 H 0.60974 0.19709 0.2935 0.0
H5735 H 0.625 0.18837 0.29974 0.0
H5736 H 0.60725 0.21631 0.28618 0.0
H5737 H 0.59436 0.19625 0.3145 0.0
H5738 H 0.59376 0.19031 0.33244 0.0
H5739 H 0.58799 0.22094 0.34242 0.0
H5740 H 0.5887 0.22709 0.32454 0.0
H5741 H 0.55679 0.22602 0.26916 0.0
H5742 H 0.57223 0.21826 0.2762 0.0
H5743 H 0.57263 0.24022 0.30072 0.0
H5744 H 0.55687 0.24773 0.29401 0.0
H5745 H 0.5769 0.22198 0.30809 0.0
H5746 H 0.58928 0.24213 0.28005 0.0
H5747 H 0.59003 0.2484 0.26222 0.0
H5748 H 0.59705 0.21818 0.25186 0.0
H5749 H 0.59621 0.2117 0.26961 0.0
C5750 C 0.62433 0.20764 0.31722 0.0
C5751 C 0.62798 0.19888 0.31226 0.0
C5752 C 0.61552 0.21259 0.31365 0.0
C5753 C 0.61014 0.20887 0.30506 0.0
C5754 C 0.61377 0.20015 0.30009 0.0
C5755 C 0.62255 0.19519 0.30366 0.0
C5756 C 0.60077 0.21407 0.30117 0.0
C5757 C 0.60057 0.21744 0.29094 0.0
C5758 C 0.59215 0.21584 0.30745 0.0
C5759 C 0.59169 0.21215 0.31819 0.0
C5760 C 0.59305 0.20174 0.32053 0.0
C5761 C 0.59267 0.19833 0.33068 0.0
C5762 C 0.59086 0.20525 0.33857 0.0
C5763 C 0.58941 0.21559 0.33631 0.0
C5764 C 0.58979 0.21904 0.32616 0.0
C5765 C 0.56008 0.22916 0.27612 0.0
C5766 C 0.55554 0.23754 0.28099 0.0
C5767 C 0.56901 0.22477 0.28007 0.0
C5768 C 0.57373 0.22873 0.28892 0.0
C5769 C 0.56919 0.23704 0.29386 0.0
C5770 C 0.56021 0.2414 0.28994 0.0
C5771 C 0.58333 0.22413 0.29306 0.0
C5772 C 0.58359 0.22089 0.30333 0.0
C5773 C 0.59204 0.22254 0.28684 0.0
C5774 C 0.59259 0.22641 0.27615 0.0
C5775 C 0.59091 0.23681 0.27396 0.0
C5776 C 0.59136 0.2404 0.26387 0.0
C5777 C 0.59356 0.23368 0.25591 0.0
C5778 C 0.59534 0.22337 0.25803 0.0
C5779 C 0.59489 0.21973 0.2681 0.0
H5780 H 0.59391 0.23648 0.2481 0.0
H5781 H 0.59057 0.2026 0.34643 0.0
H5782 H 0.32345 0.12008 0.32542 0.0
H5783 H 0.31719 0.10472 0.31666 0.0
H5784 H 0.29121 0.12146 0.30517 0.0
H5785 H 0.29741 0.13681 0.31395 0.0
H5786 H 0.28509 0.10355 0.31242 0.0
H5787 H 0.31169 0.11493 0.28964 0.0
H5788 H 0.32918 0.1204 0.28482 0.0
H5789 H 0.34094 0.09152 0.29497 0.0
H5790 H 0.32353 0.08591 0.29997 0.0
H5791 H 0.26761 0.06665 0.27645 0.0
H5792 H 0.27445 0.08222 0.28436 0.0
H5793 H 0.30001 0.06527 0.29647 0.0
H5794 H 0.2932 0.04966 0.2886 0.0
H5795 H 0.3064 0.08328 0.2888 0.0
H5796 H 0.27984 0.072 0.31172 0.0
H5797 H 0.26235 0.0665 0.31651 0.0
H5798 H 0.25052 0.09527 0.30608 0.0
H5799 H 0.26794 0.10088 0.30109 0.0
C5800 C 0.31648 0.12053 0.32092 0.0
C5801 C 0.31094 0.12969 0.32039 0.0
C5802 C 0.31289 0.11173 0.31591 0.0
C5803 C 0.30375 0.11193 0.31016 0.0
C5804 C 0.29825 0.12109 0.30957 0.0
C5805 C 0.3018 0.12986 0.31462 0.0
C5806 C 0.29976 0.10254 0.305 0.0
C5807 C 0.28971 0.09921 0.30714 0.0
C5808 C 0.30585 0.0967 0.29829 0.0
C5809 C 0.31632 0.10004 0.29527 0.0
C5810 C 0.31802 0.10977 0.29091 0.0
C5811 C 0.32791 0.11289 0.28814 0.0
C5812 C 0.33617 0.10632 0.28961 0.0
C5813 C 0.33454 0.0966 0.29384 0.0
C5814 C 0.32466 0.09345 0.29664 0.0
C5815 C 0.27464 0.06621 0.28086 0.0
C5816 C 0.27982 0.05687 0.28192 0.0
C5817 C 0.27856 0.07513 0.28537 0.0
C5818 C 0.28769 0.07491 0.29112 0.0
C5819 C 0.29296 0.06565 0.29206 0.0
C5820 C 0.28907 0.05673 0.28753 0.0
C5821 C 0.29173 0.08433 0.2962 0.0
C5822 C 0.30178 0.08764 0.29406 0.0
C5823 C 0.28565 0.09016 0.3029 0.0
C5824 C 0.27518 0.08682 0.30594 0.0
C5825 C 0.2735 0.07712 0.31038 0.0
C5826 C 0.2636 0.07399 0.31314 0.0
C5827 C 0.25533 0.08052 0.31158 0.0
C5828 C 0.25694 0.09021 0.30727 0.0
C5829 C 0.26682 0.09338 0.30448 0.0
H5830 H 0.24767 0.07808 0.31372 0.0
H5831 H 0.34383 0.10875 0.28746 0.0
H5832 H 0.3909 0.79799 0.32613 0.0
H5833 H 0.40604 0.79166 0.31742 0.0
H5834 H 0.40809 0.81963 0.29987 0.0
H5835 H 0.39294 0.82611 0.30868 0.0
H5836 H 0.41161 0.80261 0.28799 0.0
H5837 H 0.42386 0.81617 0.31989 0.0
H5838 H 0.42423 0.81828 0.33864 0.0
H5839 H 0.43049 0.78632 0.34251 0.0
H5840 H 0.43001 0.78398 0.32378 0.0
H5841 H 0.46305 0.79455 0.27123 0.0
H5842 H 0.44739 0.80151 0.27856 0.0
H5843 H 0.44465 0.77514 0.29838 0.0
H5844 H 0.46027 0.76812 0.29106 0.0
H5845 H 0.44161 0.79212 0.30888 0.0
H5846 H 0.42901 0.7783 0.27722 0.0
H5847 H 0.42846 0.77588 0.25851 0.0
H5848 H 0.42277 0.80789 0.25417 0.0
H5849 H 0.42341 0.81053 0.27285 0.0
C5850 C 0.39459 0.80286 0.32048 0.0
C5851 C 0.39074 0.81263 0.31822 0.0
C5852 C 0.40325 0.7992 0.31547 0.0
C5853 C 0.40831 0.80522 0.30809 0.0
C5854 C 0.40432 0.81485 0.30555 0.0
C5855 C 0.39564 0.81853 0.31059 0.0
C5856 C 0.41788 0.80151 0.30323 0.0
C5857 C 0.41823 0.80046 0.29254 0.0
C5858 C 0.42646 0.79849 0.30917 0.0
C5859 C 0.42681 0.79988 0.32043 0.0
C5860 C 0.42524 0.80957 0.32474 0.0
C5861 C 0.42548 0.81081 0.33537 0.0
C5862 C 0.42736 0.80243 0.34176 0.0
C5863 C 0.42902 0.7928 0.33754 0.0
C5864 C 0.42878 0.79152 0.32692 0.0
C5865 C 0.45905 0.79017 0.27706 0.0
C5866 C 0.46295 0.78076 0.28055 0.0
C5867 C 0.45009 0.79417 0.28126 0.0
C5868 C 0.44477 0.78882 0.28898 0.0
C5869 C 0.44863 0.77943 0.29246 0.0
C5870 C 0.45759 0.77544 0.28829 0.0
C5871 C 0.43533 0.7931 0.29364 0.0
C5872 C 0.43501 0.79428 0.30431 0.0
C5873 C 0.42678 0.79619 0.28767 0.0
C5874 C 0.42637 0.79463 0.27643 0.0
C5875 C 0.42772 0.78484 0.27227 0.0
C5876 C 0.42738 0.78342 0.26167 0.0
C5877 C 0.42561 0.79173 0.25515 0.0
C5878 C 0.42415 0.80147 0.25922 0.0
C5879 C 0.4245 0.80292 0.26982 0.0
H5880 H 0.42534 0.79062 0.24695 0.0
H5881 H 0.42754 0.80341 0.34998 0.0
H5882 H 0.30535 0.88899 0.69723 0.0
H5883 H 0.29687 0.90434 0.7035 0.0
H5884 H 0.32261 0.91054 0.72346 0.0
H5885 H 0.33117 0.89533 0.71717 0.0
H5886 H 0.30482 0.91261 0.73349 0.0
H5887 H 0.31887 0.92427 0.70141 0.0
H5888 H 0.32168 0.92385 0.68276 0.0
H5889 H 0.28935 0.92706 0.67747 0.0
H5890 H 0.28633 0.92736 0.6961 0.0
H5891 H 0.29471 0.96365 0.74761 0.0
H5892 H 0.30226 0.94818 0.74064 0.0
H5893 H 0.27602 0.94409 0.7208 0.0
H5894 H 0.2684 0.95959 0.72776 0.0
H5895 H 0.29326 0.9406 0.71056 0.0
H5896 H 0.27913 0.92938 0.74246 0.0
H5897 H 0.27612 0.92976 0.76107 0.0
H5898 H 0.30826 0.92549 0.7667 0.0
H5899 H 0.31149 0.92523 0.74811 0.0
C5900 C 0.30927 0.89368 0.70287 0.0
C5901 C 0.31895 0.89087 0.7067 0.0
C5902 C 0.30439 0.90245 0.70647 0.0
C5903 C 0.30912 0.90865 0.71393 0.0
C5904 C 0.31878 0.90587 0.71775 0.0
C5905 C 0.32365 0.89712 0.71416 0.0
C5906 C 0.30399 0.91795 0.71789 0.0
C5907 C 0.30241 0.91878 0.72848 0.0
C5908 C 0.30055 0.92589 0.71135 0.0
C5909 C 0.30236 0.92573 0.70015 0.0
C5910 C 0.31235 0.9248 0.69627 0.0
C5911 C 0.31398 0.9246 0.6857 0.0
C5912 C 0.3057 0.9254 0.67893 0.0
C5913 C 0.29576 0.92642 0.68272 0.0
C5914 C 0.29408 0.92662 0.69328 0.0
C5915 C 0.29049 0.95942 0.74184 0.0
C5916 C 0.28091 0.96285 0.7383 0.0
C5917 C 0.29483 0.95056 0.73784 0.0
C5918 C 0.28966 0.94486 0.73027 0.0
C5919 C 0.28016 0.94834 0.72662 0.0
C5920 C 0.27583 0.95723 0.7306 0.0
C5921 C 0.29419 0.9353 0.72617 0.0
C5922 C 0.29565 0.93441 0.71556 0.0
C5923 C 0.29748 0.92727 0.73269 0.0
C5924 C 0.29556 0.92738 0.74388 0.0
C5925 C 0.28556 0.9286 0.74766 0.0
C5926 C 0.28382 0.92878 0.75821 0.0
C5927 C 0.29199 0.92767 0.76506 0.0
C5928 C 0.30193 0.92636 0.76138 0.0
C5929 C 0.30373 0.92618 0.75084 0.0
H5930 H 0.29063 0.92782 0.77323 0.0
H5931 H 0.30698 0.92524 0.67075 0.0
H5932 H 0.63114 0.8205 0.71395 0.0
H5933 H 0.61555 0.81445 0.72252 0.0
H5934 H 0.60794 0.79586 0.69633 0.0
H5935 H 0.62326 0.80217 0.68756 0.0
H5936 H 0.59137 0.80508 0.70297 0.0
H5937 H 0.61839 0.7856 0.71859 0.0
H5938 H 0.63476 0.78311 0.72774 0.0
H5939 H 0.62339 0.79985 0.75342 0.0
H5940 H 0.607 0.80256 0.74435 0.0
H5941 H 0.55468 0.77132 0.72506 0.0
H5942 H 0.57019 0.77848 0.71722 0.0
H5943 H 0.57516 0.79759 0.74362 0.0
H5944 H 0.55975 0.7903 0.75162 0.0
H5945 H 0.59291 0.78882 0.73735 0.0
H5946 H 0.56562 0.80771 0.72189 0.0
H5947 H 0.54922 0.81 0.71273 0.0
H5948 H 0.56111 0.79417 0.68672 0.0
H5949 H 0.57754 0.79165 0.69578 0.0
C5950 C 0.6261 0.8152 0.70997 0.0
C5951 C 0.62852 0.81178 0.70007 0.0
C5952 C 0.61723 0.81166 0.71493 0.0
C5953 C 0.61062 0.80457 0.71014 0.0
C5954 C 0.61293 0.80128 0.70021 0.0
C5955 C 0.62177 0.80483 0.69524 0.0
C5956 C 0.60127 0.80057 0.71541 0.0
C5957 C 0.59174 0.80142 0.71044 0.0
C5958 C 0.60167 0.79602 0.72528 0.0
C5959 C 0.61151 0.79438 0.73075 0.0
C5960 C 0.61941 0.78882 0.72615 0.0
C5961 C 0.62869 0.78736 0.73133 0.0
C5962 C 0.63013 0.79134 0.74114 0.0
C5963 C 0.62228 0.79678 0.74581 0.0
C5964 C 0.61299 0.79828 0.74066 0.0
C5965 C 0.55911 0.77698 0.72925 0.0
C5966 C 0.55595 0.78025 0.73896 0.0
C5967 C 0.56794 0.78113 0.72471 0.0
C5968 C 0.57379 0.78866 0.72978 0.0
C5969 C 0.57075 0.79182 0.73955 0.0
C5970 C 0.5619 0.7877 0.74408 0.0
C5971 C 0.58305 0.79324 0.72485 0.0
C5972 C 0.59255 0.79251 0.7299 0.0
C5973 C 0.58264 0.79788 0.71504 0.0
C5974 C 0.57278 0.79941 0.70956 0.0
C5975 C 0.56471 0.80465 0.71425 0.0
C5976 C 0.55541 0.806 0.70907 0.0
C5977 C 0.55411 0.80221 0.69916 0.0
C5978 C 0.56212 0.79708 0.6944 0.0
C5979 C 0.57143 0.7957 0.69955 0.0
H5980 H 0.54691 0.80327 0.69516 0.0
H5981 H 0.63732 0.7902 0.74514 0.0
H5982 H 0.3913 0.22104 0.68999 0.0
H5983 H 0.40678 0.22735 0.69849 0.0
H5984 H 0.40277 0.20484 0.72244 0.0
H5985 H 0.38694 0.19879 0.71422 0.0
H5986 H 0.40843 0.22264 0.73045 0.0
H5987 H 0.42061 0.20172 0.70335 0.0
H5988 H 0.42205 0.19553 0.68562 0.0
H5989 H 0.4333 0.22502 0.67596 0.0
H5990 H 0.43178 0.23143 0.69361 0.0
H5991 H 0.46008 0.22751 0.74926 0.0
H5992 H 0.44404 0.22095 0.74193 0.0
H5993 H 0.44461 0.24502 0.71925 0.0
H5994 H 0.46045 0.25186 0.7267 0.0
H5995 H 0.44089 0.22575 0.71096 0.0
H5996 H 0.42839 0.2465 0.73849 0.0
H5997 H 0.42705 0.25221 0.75639 0.0
H5998 H 0.41677 0.22222 0.76549 0.0
H5999 H 0.41818 0.21628 0.74766 0.0
C6000 C 0.3936 0.2175 0.69714 0.0
C6001 C 0.38783 0.20939 0.7014 0.0
C6002 C 0.40255 0.22104 0.70193 0.0
C6003 C 0.40605 0.21647 0.71103 0.0
C6004 C 0.40025 0.20846 0.7154 0.0
C6005 C 0.39125 0.20494 0.71063 0.0
C6006 C 0.41575 0.22007 0.71595 0.0
C6007 C 0.41556 0.22317 0.72623 0.0
C6008 C 0.42504 0.22092 0.71042 0.0
C6009 C 0.42599 0.21708 0.69979 0.0
C6010 C 0.42331 0.20691 0.69743 0.0
C6011 C 0.42416 0.20336 0.6874 0.0
C6012 C 0.42774 0.20988 0.67967 0.0
C6013 C 0.43051 0.21997 0.68196 0.0
C6014 C 0.42967 0.22357 0.69198 0.0
C6015 C 0.45673 0.23152 0.74281 0.0
C6016 C 0.46161 0.24023 0.73858 0.0
C6017 C 0.44757 0.22772 0.7386 0.0
C6018 C 0.44312 0.23252 0.73006 0.0
C6019 C 0.44794 0.24118 0.72581 0.0
C6020 C 0.45704 0.24504 0.73006 0.0
C6021 C 0.43353 0.22839 0.72541 0.0
C6022 C 0.43376 0.22518 0.71518 0.0
C6023 C 0.42431 0.22736 0.73102 0.0
C6024 C 0.4235 0.23091 0.74175 0.0
C6025 C 0.42594 0.24109 0.74432 0.0
C6026 C 0.42515 0.24438 0.75445 0.0
C6027 C 0.42185 0.23758 0.76207 0.0
C6028 C 0.41933 0.22747 0.75958 0.0
C6029 C 0.42012 0.22414 0.74946 0.0
H6030 H 0.42122 0.24014 0.7699 0.0
H6031 H 0.42839 0.20712 0.6719 0.0
H6032 H 0.71866 0.68909 0.12731 0.0
H6033 H 0.72519 0.69781 0.11208 0.0
H6034 H 0.70052 0.71941 0.1136 0.0
H6035 H 0.694 0.71082 0.129 0.0
H6036 H 0.70355 0.71269 0.09402 0.0
H6037 H 0.72427 0.72646 0.12111 0.0
H6038 H 0.7356 0.72578 0.13626 0.0
H6039 H 0.75807 0.70957 0.11896 0.0
H6040 H 0.74681 0.71003 0.10374 0.0
H6041 H 0.72524 0.74691 0.05717 0.0
H6042 H 0.71808 0.73956 0.07286 0.0
H6043 H 0.74307 0.71829 0.07451 0.0
H6044 H 0.75052 0.72589 0.05909 0.0
H6045 H 0.73945 0.72564 0.09284 0.0
H6046 H 0.7186 0.71121 0.06599 0.0
H6047 H 0.70726 0.71157 0.05083 0.0
H6048 H 0.68509 0.72874 0.06757 0.0
H6049 H 0.69637 0.72859 0.0828 0.0
C6050 C 0.71467 0.69577 0.12451 0.0
C6051 C 0.70583 0.69929 0.12949 0.0
C6052 C 0.7184 0.70073 0.11575 0.0
C6053 C 0.71343 0.70935 0.11175 0.0
C6054 C 0.7045 0.71278 0.11655 0.0
C6055 C 0.70076 0.70783 0.12535 0.0
C6056 C 0.71759 0.71474 0.10255 0.0
C6057 C 0.71135 0.71567 0.09381 0.0
C6058 C 0.72783 0.71844 0.10218 0.0
C6059 C 0.73465 0.7182 0.11131 0.0
C6060 C 0.73159 0.72268 0.12056 0.0
C6061 C 0.73801 0.72235 0.12915 0.0
C6062 C 0.74754 0.71762 0.12858 0.0
C6063 C 0.75068 0.71323 0.1194 0.0
C6064 C 0.74429 0.71353 0.11078 0.0
C6065 C 0.72929 0.74075 0.06092 0.0
C6066 C 0.73846 0.73699 0.0568 0.0
C6067 C 0.72511 0.73646 0.06985 0.0
C6068 C 0.72994 0.72825 0.07482 0.0
C6069 C 0.73915 0.72458 0.07081 0.0
C6070 C 0.74336 0.72888 0.06191 0.0
C6071 C 0.72546 0.72351 0.08424 0.0
C6072 C 0.73163 0.7227 0.09304 0.0
C6073 C 0.71517 0.7199 0.08464 0.0
C6074 C 0.70837 0.71998 0.0755 0.0
C6075 C 0.71134 0.71513 0.06642 0.0
C6076 C 0.70492 0.71529 0.05782 0.0
C6077 C 0.69548 0.7202 0.05823 0.0
C6078 C 0.69242 0.72495 0.06726 0.0
C6079 C 0.69882 0.72482 0.07588 0.0
H6080 H 0.69052 0.72032 0.05156 0.0
H6081 H 0.7525 0.71737 0.13524 0.0
H6082 H 0.30138 0.71259 0.13907 0.0
H6083 H 0.29518 0.72124 0.12363 0.0
H6084 H 0.31372 0.7016 0.10502 0.0
H6085 H 0.32008 0.69304 0.12046 0.0
H6086 H 0.31468 0.72039 0.0978 0.0
H6087 H 0.28749 0.6976 0.10795 0.0
H6088 H 0.27481 0.68992 0.11974 0.0
H6089 H 0.26036 0.71905 0.12306 0.0
H6090 H 0.27304 0.72694 0.11139 0.0
H6091 H 0.28834 0.72739 0.05035 0.0
H6092 H 0.29542 0.72019 0.06619 0.0
H6093 H 0.2795 0.74283 0.08376 0.0
H6094 H 0.27234 0.75005 0.06793 0.0
H6095 H 0.27723 0.72304 0.09159 0.0
H6096 H 0.30444 0.7455 0.08058 0.0
H6097 H 0.31704 0.75262 0.06838 0.0
H6098 H 0.33132 0.72329 0.06614 0.0
H6099 H 0.3187 0.71595 0.07822 0.0
C6100 C 0.30412 0.71011 0.13168 0.0
C6101 C 0.31117 0.70209 0.13098 0.0
C6102 C 0.30056 0.71505 0.12286 0.0
C6103 C 0.30384 0.71197 0.11313 0.0
C6104 C 0.31107 0.70412 0.11243 0.0
C6105 C 0.31471 0.69924 0.12126 0.0
C6106 C 0.29964 0.71681 0.10368 0.0
C6107 C 0.30649 0.72086 0.0964 0.0
C6108 C 0.28894 0.71761 0.1019 0.0
C6109 C 0.28128 0.71288 0.10888 0.0
C6110 C 0.28165 0.70238 0.11126 0.0
C6111 C 0.27446 0.69799 0.11791 0.0
C6112 C 0.2668 0.704 0.12217 0.0
C6113 C 0.2663 0.71441 0.11977 0.0
C6114 C 0.27349 0.71884 0.11313 0.0
C6115 C 0.28632 0.73081 0.05759 0.0
C6116 C 0.27978 0.73928 0.0579 0.0
C6117 C 0.29043 0.72674 0.06662 0.0
C6118 C 0.28804 0.73102 0.07614 0.0
C6119 C 0.28146 0.73943 0.07649 0.0
C6120 C 0.27743 0.74358 0.06744 0.0
C6121 C 0.29226 0.72658 0.08574 0.0
C6122 C 0.28541 0.7226 0.09303 0.0
C6123 C 0.30294 0.72575 0.08747 0.0
C6124 C 0.31056 0.73015 0.08023 0.0
C6125 C 0.31021 0.74054 0.07742 0.0
C6126 C 0.31737 0.74463 0.07054 0.0
C6127 C 0.32496 0.73841 0.06647 0.0
C6128 C 0.32542 0.7281 0.06929 0.0
C6129 C 0.31828 0.72398 0.07616 0.0
H6130 H 0.33049 0.74158 0.06114 0.0
H6131 H 0.26124 0.70058 0.12732 0.0
H6132 H 0.29811 0.31224 0.13575 0.0
H6133 H 0.29215 0.30358 0.12026 0.0
H6134 H 0.32018 0.3122 0.10491 0.0
H6135 H 0.32609 0.32112 0.12033 0.0
H6136 H 0.3037 0.31574 0.0929 0.0
H6137 H 0.316 0.28763 0.11294 0.0
H6138 H 0.31751 0.27663 0.12826 0.0
H6139 H 0.28533 0.26944 0.12659 0.0
H6140 H 0.2836 0.28051 0.11134 0.0
H6141 H 0.29522 0.28455 0.04931 0.0
H6142 H 0.30249 0.29207 0.06483 0.0
H6143 H 0.27547 0.28299 0.08165 0.0
H6144 H 0.26833 0.27503 0.06626 0.0
H6145 H 0.29205 0.27949 0.09283 0.0
H6146 H 0.27954 0.308 0.07329 0.0
H6147 H 0.27786 0.3191 0.05807 0.0
H6148 H 0.3102 0.32565 0.05891 0.0
H6149 H 0.3121 0.31447 0.07407 0.0
C6150 C 0.30301 0.31233 0.12907 0.0
C6151 C 0.31259 0.3174 0.1293 0.0
C6152 C 0.29962 0.30728 0.12024 0.0
C6153 C 0.30574 0.30714 0.11142 0.0
C6154 C 0.31533 0.31217 0.11162 0.0
C6155 C 0.31874 0.3172 0.12047 0.0
C6156 C 0.30201 0.302 0.10192 0.0
C6157 C 0.30131 0.30776 0.09285 0.0
C6158 C 0.29864 0.29166 0.10189 0.0
C6159 C 0.29966 0.28498 0.11105 0.0
C6160 C 0.30923 0.28377 0.11589 0.0
C6161 C 0.31013 0.27751 0.12455 0.0
C6162 C 0.30152 0.27236 0.12841 0.0
C6163 C 0.29199 0.27344 0.1236 0.0
C6164 C 0.29105 0.2797 0.11494 0.0
C6165 C 0.29086 0.28402 0.05633 0.0
C6166 C 0.28115 0.27919 0.05648 0.0
C6167 C 0.29499 0.28845 0.06519 0.0
C6168 C 0.28947 0.28825 0.07441 0.0
C6169 C 0.27986 0.28329 0.07464 0.0
C6170 C 0.27574 0.27883 0.06578 0.0
C6171 C 0.29369 0.29324 0.08381 0.0
C6172 C 0.29447 0.28745 0.09287 0.0
C6173 C 0.29711 0.30357 0.08385 0.0
C6174 C 0.29598 0.31032 0.07475 0.0
C6175 C 0.28631 0.31175 0.07018 0.0
C6176 C 0.28531 0.31806 0.06157 0.0
C6177 C 0.29392 0.32306 0.05751 0.0
C6178 C 0.30354 0.32176 0.06206 0.0
C6179 C 0.30458 0.31545 0.07067 0.0
H6180 H 0.29313 0.32794 0.05084 0.0
H6181 H 0.30223 0.26751 0.13511 0.0
H6182 H 0.70913 0.30507 0.13667 0.0
H6183 H 0.71553 0.29624 0.12155 0.0
H6184 H 0.70904 0.32276 0.10296 0.0
H6185 H 0.7024 0.33154 0.11798 0.0
H6186 H 0.70328 0.30527 0.09334 0.0
H6187 H 0.7333 0.31792 0.11102 0.0
H6188 H 0.74492 0.32008 0.12582 0.0
H6189 H 0.74929 0.28761 0.12728 0.0
H6190 H 0.73758 0.28524 0.11257 0.0
H6191 H 0.73322 0.29484 0.04971 0.0
H6192 H 0.72596 0.30232 0.06509 0.0
H6193 H 0.7346 0.27567 0.08256 0.0
H6194 H 0.74229 0.2683 0.06726 0.0
H6195 H 0.73894 0.29245 0.09304 0.0
H6196 H 0.70948 0.27971 0.07506 0.0
H6197 H 0.69782 0.2774 0.06032 0.0
H6198 H 0.69223 0.30969 0.0595 0.0
H6199 H 0.70397 0.31222 0.07416 0.0
C6200 C 0.70895 0.30898 0.12934 0.0
C6201 C 0.70529 0.31905 0.12856 0.0
C6202 C 0.7127 0.30395 0.12072 0.0
C6203 C 0.71289 0.30888 0.11113 0.0
C6204 C 0.70901 0.31882 0.11027 0.0
C6205 C 0.70529 0.32386 0.11889 0.0
C6206 C 0.71727 0.30376 0.102 0.0
C6207 C 0.71111 0.30257 0.09324 0.0
C6208 C 0.72741 0.29998 0.10194 0.0
C6209 C 0.73448 0.30139 0.11076 0.0
C6210 C 0.73667 0.31123 0.11455 0.0
C6211 C 0.74329 0.3125 0.12291 0.0
C6212 C 0.74782 0.30398 0.12751 0.0
C6213 C 0.74576 0.29419 0.12373 0.0
C6214 C 0.73914 0.29288 0.11537 0.0
C6215 C 0.73368 0.29059 0.05683 0.0
C6216 C 0.73835 0.28094 0.05721 0.0
C6217 C 0.7294 0.29484 0.06562 0.0
C6218 C 0.72958 0.2895 0.07498 0.0
C6219 C 0.73431 0.27991 0.07542 0.0
C6220 C 0.73863 0.27567 0.06664 0.0
C6221 C 0.72497 0.29401 0.08433 0.0
C6222 C 0.73109 0.2951 0.09315 0.0
C6223 C 0.71478 0.29766 0.08445 0.0
C6224 C 0.70768 0.29616 0.07566 0.0
C6225 C 0.70583 0.28633 0.07169 0.0
C6226 C 0.69919 0.28498 0.06336 0.0
C6227 C 0.69431 0.29339 0.05896 0.0
C6228 C 0.69603 0.30318 0.06291 0.0
C6229 C 0.70266 0.30458 0.07124 0.0
H6230 H 0.68918 0.29233 0.0525 0.0
H6231 H 0.75294 0.30498 0.13398 0.0
H6232 H 0.71646 0.30646 0.88298 0.0
H6233 H 0.72295 0.29827 0.89859 0.0
H6234 H 0.70605 0.31954 0.91694 0.0
H6235 H 0.69962 0.32784 0.90137 0.0
H6236 H 0.72609 0.31756 0.92338 0.0
H6237 H 0.69767 0.29542 0.91479 0.0
H6238 H 0.68732 0.28419 0.90359 0.0
H6239 H 0.71279 0.26392 0.90052 0.0
H6240 H 0.72334 0.27512 0.9116 0.0
H6241 H 0.73225 0.2936 0.97164 0.0
H6242 H 0.72521 0.30112 0.95599 0.0
H6243 H 0.73957 0.27768 0.93809 0.0
H6244 H 0.74648 0.27001 0.95378 0.0
H6245 H 0.72088 0.2807 0.93123 0.0
H6246 H 0.74943 0.30253 0.93943 0.0
H6247 H 0.76021 0.31368 0.95031 0.0
H6248 H 0.73521 0.33447 0.95365 0.0
H6249 H 0.72423 0.32336 0.94289 0.0
C6250 C 0.71413 0.30939 0.89035 0.0
C6251 C 0.70752 0.31779 0.89094 0.0
C6252 C 0.71779 0.30466 0.89925 0.0
C6253 C 0.71494 0.30826 0.90893 0.0
C6254 C 0.70833 0.31663 0.90955 0.0
C6255 C 0.70461 0.32131 0.90065 0.0
C6256 C 0.71905 0.30346 0.91841 0.0
C6257 C 0.72483 0.30953 0.92518 0.0
C6258 C 0.71767 0.29292 0.92059 0.0
C6259 C 0.71133 0.28617 0.91394 0.0
C6260 C 0.7011 0.28862 0.91165 0.0
C6261 C 0.69518 0.28225 0.90534 0.0
C6262 C 0.6994 0.27336 0.90132 0.0
C6263 C 0.70953 0.27081 0.90363 0.0
C6264 C 0.71548 0.27717 0.90993 0.0
C6265 C 0.73396 0.29009 0.96436 0.0
C6266 C 0.73998 0.28124 0.96393 0.0
C6267 C 0.72994 0.2944 0.95541 0.0
C6268 C 0.73198 0.29007 0.94581 0.0
C6269 C 0.73788 0.28117 0.94539 0.0
C6270 C 0.74183 0.27678 0.95435 0.0
C6271 C 0.72792 0.29482 0.93625 0.0
C6272 C 0.72215 0.28873 0.92945 0.0
C6273 C 0.72939 0.30534 0.93399 0.0
C6274 C 0.73598 0.31206 0.94043 0.0
C6275 C 0.74621 0.30944 0.94255 0.0
C6276 C 0.75236 0.31576 0.94868 0.0
C6277 C 0.74839 0.32477 0.95269 0.0
C6278 C 0.73827 0.32748 0.95055 0.0
C6279 C 0.73208 0.32118 0.94442 0.0
H6280 H 0.75317 0.32965 0.95744 0.0
H6281 H 0.69481 0.26843 0.89644 0.0
H6282 H 0.71314 0.69519 0.88925 0.0
H6283 H 0.72185 0.7015 0.90466 0.0
H6284 H 0.69751 0.72298 0.90942 0.0
H6285 H 0.68872 0.71666 0.89414 0.0
H6286 H 0.71585 0.73211 0.91182 0.0
H6287 H 0.69949 0.70121 0.92392 0.0
H6288 H 0.69537 0.68275 0.92397 0.0
H6289 H 0.7272 0.67585 0.92842 0.0
H6290 H 0.73153 0.69428 0.92825 0.0
H6291 H 0.72525 0.7468 0.96309 0.0
H6292 H 0.71782 0.73981 0.94739 0.0
H6293 H 0.7433 0.71929 0.94467 0.0
H6294 H 0.75084 0.7263 0.96038 0.0
H6295 H 0.7254 0.70947 0.94085 0.0
H6296 H 0.74165 0.74051 0.92942 0.0
H6297 H 0.74563 0.759 0.92958 0.0
H6298 H 0.71393 0.76568 0.92394 0.0
H6299 H 0.70974 0.74723 0.92387 0.0
C6300 C 0.70958 0.70118 0.89363 0.0
C6301 C 0.70022 0.70542 0.8904 0.0
C6302 C 0.71459 0.7048 0.90244 0.0
C6303 C 0.71032 0.71269 0.90825 0.0
C6304 C 0.70099 0.71693 0.90505 0.0
C6305 C 0.69599 0.71332 0.89626 0.0
C6306 C 0.71558 0.71666 0.91761 0.0
C6307 C 0.71783 0.72717 0.91821 0.0
C6308 C 0.71844 0.71019 0.92586 0.0
C6309 C 0.71585 0.69912 0.92596 0.0
C6310 C 0.70562 0.69575 0.92482 0.0
C6311 C 0.70325 0.6853 0.92488 0.0
C6312 C 0.71102 0.67813 0.92616 0.0
C6313 C 0.72119 0.68141 0.92741 0.0
C6314 C 0.72361 0.69186 0.92734 0.0
C6315 C 0.72935 0.74088 0.95911 0.0
C6316 C 0.73869 0.73717 0.96299 0.0
C6317 C 0.72507 0.73687 0.95012 0.0
C6318 C 0.73006 0.7291 0.94475 0.0
C6319 C 0.73931 0.72527 0.94867 0.0
C6320 C 0.74359 0.72928 0.95767 0.0
C6321 C 0.72555 0.72494 0.9351 0.0
C6322 C 0.72346 0.7144 0.93444 0.0
C6323 C 0.72284 0.73138 0.92678 0.0
C6324 C 0.72537 0.74248 0.92673 0.0
C6325 C 0.73552 0.74592 0.92828 0.0
C6326 C 0.73782 0.75639 0.92835 0.0
C6327 C 0.73003 0.7635 0.9268 0.0
C6328 C 0.71995 0.76016 0.92515 0.0
C6329 C 0.71761 0.7497 0.92508 0.0
H6330 H 0.73181 0.77161 0.92688 0.0
H6331 H 0.70917 0.67004 0.92622 0.0
H6332 H 0.33049 0.71801 0.89626 0.0
H6333 H 0.32203 0.72449 0.91148 0.0
H6334 H 0.29812 0.70168 0.90818 0.0
H6335 H 0.30665 0.69499 0.89299 0.0
H6336 H 0.29038 0.72062 0.91241 0.0
H6337 H 0.3163 0.69875 0.92625 0.0
H6338 H 0.33382 0.69215 0.92842 0.0
H6339 H 0.34415 0.72152 0.93913 0.0
H6340 H 0.32671 0.72834 0.93689 0.0
H6341 H 0.26871 0.72793 0.96173 0.0
H6342 H 0.2767 0.72059 0.94659 0.0
H6343 H 0.30213 0.74177 0.94961 0.0
H6344 H 0.29435 0.74892 0.96495 0.0
H6345 H 0.30888 0.72306 0.94561 0.0
H6346 H 0.28355 0.7452 0.93131 0.0
H6347 H 0.26628 0.75227 0.92894 0.0
H6348 H 0.25505 0.72298 0.91889 0.0
H6349 H 0.27227 0.71569 0.92134 0.0
C6350 C 0.3235 0.71425 0.89882 0.0
C6351 C 0.31932 0.70589 0.89341 0.0
C6352 C 0.31865 0.71801 0.90752 0.0
C6353 C 0.3095 0.7135 0.91106 0.0
C6354 C 0.30518 0.70528 0.9056 0.0
C6355 C 0.31005 0.70148 0.89689 0.0
C6356 C 0.30446 0.71743 0.92043 0.0
C6357 C 0.29437 0.721 0.91971 0.0
C6358 C 0.30973 0.71817 0.92991 0.0
C6359 C 0.32022 0.71407 0.93131 0.0
C6360 C 0.32232 0.70382 0.92899 0.0
C6361 C 0.33224 0.70004 0.93025 0.0
C6362 C 0.3401 0.70642 0.93388 0.0
C6363 C 0.33806 0.71659 0.9363 0.0
C6364 C 0.32816 0.72041 0.93505 0.0
C6365 C 0.27604 0.73099 0.95923 0.0
C6366 C 0.28087 0.73904 0.96458 0.0
C6367 C 0.28055 0.72684 0.9505 0.0
C6368 C 0.28998 0.73069 0.94688 0.0
C6369 C 0.29484 0.73868 0.95223 0.0
C6370 C 0.29033 0.74283 0.96096 0.0
C6371 C 0.29482 0.72632 0.93758 0.0
C6372 C 0.30487 0.72265 0.93832 0.0
C6373 C 0.28953 0.72554 0.92811 0.0
C6374 C 0.27917 0.72988 0.92661 0.0
C6375 C 0.27738 0.74025 0.92867 0.0
C6376 C 0.2676 0.7443 0.9273 0.0
C6377 C 0.25955 0.73808 0.92379 0.0
C6378 C 0.26128 0.72779 0.92162 0.0
C6379 C 0.27106 0.72369 0.92299 0.0
H6380 H 0.25198 0.74124 0.92273 0.0
H6381 H 0.34777 0.70348 0.93485 0.0
H6382 H 0.29977 0.30926 0.88215 0.0
H6383 H 0.29331 0.30081 0.8976 0.0
H6384 H 0.31869 0.3133 0.91496 0.0
H6385 H 0.32522 0.32177 0.89951 0.0
H6386 H 0.31507 0.29382 0.92042 0.0
H6387 H 0.29468 0.32387 0.91603 0.0
H6388 H 0.28344 0.33578 0.90667 0.0
H6389 H 0.26076 0.31198 0.90309 0.0
H6390 H 0.27193 0.29988 0.9123 0.0
H6391 H 0.29408 0.28589 0.9701 0.0
H6392 H 0.30119 0.29329 0.95441 0.0
H6393 H 0.27563 0.28104 0.93714 0.0
H6394 H 0.26847 0.27361 0.95282 0.0
H6395 H 0.27941 0.30028 0.93158 0.0
H6396 H 0.29975 0.27025 0.93622 0.0
H6397 H 0.31101 0.25839 0.94561 0.0
H6398 H 0.33379 0.28215 0.94882 0.0
H6399 H 0.3226 0.2942 0.93957 0.0
C6400 C 0.30397 0.31025 0.88926 0.0
C6401 C 0.31298 0.31628 0.88958 0.0
C6402 C 0.30026 0.3054 0.8981 0.0
C6403 C 0.30541 0.30654 0.90751 0.0
C6404 C 0.31457 0.31231 0.9078 0.0
C6405 C 0.31831 0.31713 0.89895 0.0
C6406 C 0.30114 0.30188 0.91706 0.0
C6407 C 0.30731 0.29533 0.92293 0.0
C6408 C 0.29094 0.30367 0.92025 0.0
C6409 C 0.28418 0.31095 0.91477 0.0
C6410 C 0.28732 0.32116 0.91318 0.0
C6411 C 0.28096 0.32795 0.90791 0.0
C6412 C 0.2714 0.32463 0.90426 0.0
C6413 C 0.26817 0.31453 0.9059 0.0
C6414 C 0.27451 0.30771 0.91115 0.0
C6415 C 0.29002 0.28466 0.96295 0.0
C6416 C 0.2807 0.27911 0.96274 0.0
C6417 C 0.2941 0.28892 0.95397 0.0
C6418 C 0.28902 0.28764 0.94453 0.0
C6419 C 0.2797 0.28215 0.94431 0.0
C6420 C 0.27559 0.27792 0.9533 0.0
C6421 C 0.29333 0.29218 0.93494 0.0
C6422 C 0.28716 0.29873 0.92907 0.0
C6423 C 0.30353 0.2904 0.93176 0.0
C6424 C 0.31029 0.28316 0.93729 0.0
C6425 C 0.30713 0.27297 0.939 0.0
C6426 C 0.3135 0.26621 0.94428 0.0
C6427 C 0.3231 0.26952 0.94783 0.0
C6428 C 0.32635 0.2796 0.94608 0.0
C6429 C 0.32 0.28639 0.94081 0.0
H6430 H 0.32802 0.26428 0.95192 0.0
H6431 H 0.26649 0.3299 0.90019 0.0
H6432 H 0.63462 0.70818 0.21419 0.0
H6433 H 0.61962 0.71493 0.22295 0.0
H6434 H 0.60081 0.7079 0.1966 0.0
H6435 H 0.61576 0.70115 0.18781 0.0
H6436 H 0.597 0.72659 0.20301 0.0
H6437 H 0.59961 0.6936 0.21904 0.0
H6438 H 0.60816 0.67966 0.22844 0.0
H6439 H 0.6134 0.69958 0.254 0.0
H6440 H 0.605 0.71369 0.2447 0.0
H6441 H 0.54794 0.73295 0.22486 0.0
H6442 H 0.56323 0.72559 0.21725 0.0
H6443 H 0.58116 0.73491 0.24347 0.0
H6444 H 0.56591 0.74247 0.2511 0.0
H6445 H 0.58569 0.7154 0.23755 0.0
H6446 H 0.58283 0.74829 0.22151 0.0
H6447 H 0.57412 0.76213 0.21212 0.0
H6448 H 0.56924 0.7422 0.18649 0.0
H6449 H 0.5778 0.72819 0.19579 0.0
C6450 C 0.62726 0.70793 0.21031 0.0
C6451 C 0.62642 0.70413 0.20028 0.0
C6452 C 0.61868 0.71181 0.21533 0.0
C6453 C 0.60903 0.71188 0.21048 0.0
C6454 C 0.60816 0.70798 0.20051 0.0
C6455 C 0.61673 0.70414 0.19548 0.0
C6456 C 0.59991 0.71631 0.21561 0.0
C6457 C 0.59446 0.72402 0.2105 0.0
C6458 C 0.59672 0.7132 0.22552 0.0
C6459 C 0.60177 0.70473 0.23113 0.0
C6460 C 0.60266 0.69503 0.22663 0.0
C6461 C 0.60747 0.6871 0.23195 0.0
C6462 C 0.61135 0.68874 0.2418 0.0
C6463 C 0.61041 0.69833 0.24637 0.0
C6464 C 0.60562 0.70629 0.24108 0.0
C6465 C 0.55515 0.73355 0.22899 0.0
C6466 C 0.55567 0.7384 0.23857 0.0
C6467 C 0.56388 0.72929 0.22463 0.0
C6468 C 0.57338 0.72979 0.22973 0.0
C6469 C 0.57392 0.73442 0.23939 0.0
C6470 C 0.56517 0.73872 0.24376 0.0
C6471 C 0.58275 0.72558 0.22489 0.0
C6472 C 0.58825 0.71794 0.23006 0.0
C6473 C 0.58599 0.72874 0.21502 0.0
C6474 C 0.58088 0.73716 0.20939 0.0
C6475 C 0.57983 0.74683 0.21391 0.0
C6476 C 0.57493 0.75471 0.20859 0.0
C6477 C 0.57111 0.75304 0.19873 0.0
C6478 C 0.5722 0.74348 0.19414 0.0
C6479 C 0.57708 0.73557 0.19943 0.0
H6480 H 0.56732 0.75915 0.19463 0.0
H6481 H 0.61506 0.68259 0.2459 0.0
H6482 H 0.32218 0.62031 0.19671 0.0
H6483 H 0.31356 0.60478 0.20292 0.0
H6484 H 0.30023 0.62187 0.22759 0.0
H6485 H 0.30891 0.6374 0.22146 0.0
H6486 H 0.30771 0.60462 0.23467 0.0
H6487 H 0.28593 0.61378 0.20648 0.0
H6488 H 0.28179 0.61839 0.18861 0.0
H6489 H 0.29356 0.58968 0.17837 0.0
H6490 H 0.29789 0.58496 0.19617 0.0
H6491 H 0.27285 0.56587 0.25113 0.0
H6492 H 0.28018 0.5818 0.24432 0.0
H6493 H 0.29423 0.56506 0.21982 0.0
H6494 H 0.28686 0.54912 0.22655 0.0
H6495 H 0.28606 0.58227 0.21265 0.0
H6496 H 0.30822 0.57337 0.24083 0.0
H6497 H 0.31223 0.56875 0.25873 0.0
H6498 H 0.29956 0.59705 0.26899 0.0
H6499 H 0.29536 0.60179 0.25115 0.0
C6500 C 0.3173 0.62079 0.20338 0.0
C6501 C 0.31623 0.6301 0.20859 0.0
C6502 C 0.31237 0.6119 0.20692 0.0
C6503 C 0.30615 0.61215 0.21567 0.0
C6504 C 0.30501 0.62146 0.22084 0.0
C6505 C 0.30999 0.63033 0.21734 0.0
C6506 C 0.3011 0.60267 0.21965 0.0
C6507 C 0.30285 0.59982 0.22989 0.0
C6508 C 0.29495 0.59625 0.21336 0.0
C6509 C 0.29233 0.59906 0.20265 0.0
C6510 C 0.28771 0.60849 0.20041 0.0
C6511 C 0.28531 0.61111 0.1903 0.0
C6512 C 0.28743 0.60434 0.18236 0.0
C6513 C 0.29193 0.59492 0.18453 0.0
C6514 C 0.29435 0.59226 0.19463 0.0
C6515 C 0.27755 0.56558 0.24432 0.0
C6516 C 0.27931 0.55622 0.23941 0.0
C6517 C 0.28174 0.57469 0.24043 0.0
C6518 C 0.28788 0.57463 0.23162 0.0
C6519 C 0.28952 0.56532 0.22661 0.0
C6520 C 0.28528 0.55621 0.23046 0.0
C6521 C 0.29267 0.58424 0.22766 0.0
C6522 C 0.2909 0.58709 0.21743 0.0
C6523 C 0.29879 0.59068 0.23395 0.0
C6524 C 0.3014 0.58789 0.24467 0.0
C6525 C 0.30623 0.57858 0.24691 0.0
C6526 C 0.30855 0.57594 0.25704 0.0
C6527 C 0.30613 0.58259 0.26499 0.0
C6528 C 0.30142 0.59191 0.26282 0.0
C6529 C 0.29908 0.59457 0.2527 0.0
H6530 H 0.30792 0.58054 0.27283 0.0
H6531 H 0.28557 0.60639 0.17453 0.0
H6532 H 0.39918 0.32564 0.1974 0.0
H6533 H 0.41464 0.3195 0.20605 0.0
H6534 H 0.39787 0.29306 0.21705 0.0
H6535 H 0.38232 0.29927 0.20864 0.0
H6536 H 0.41021 0.3008 0.23186 0.0
H6537 H 0.4137 0.29136 0.19654 0.0
H6538 H 0.41422 0.29438 0.1779 0.0
H6539 H 0.43968 0.31515 0.18176 0.0
H6540 H 0.43921 0.31236 0.20046 0.0
H6541 H 0.45206 0.26901 0.24521 0.0
H6542 H 0.43665 0.27622 0.23742 0.0
H6543 H 0.45444 0.30186 0.22613 0.0
H6544 H 0.46995 0.29453 0.23361 0.0
H6545 H 0.4417 0.29502 0.21163 0.0
H6546 H 0.43855 0.30415 0.24691 0.0
H6547 H 0.43808 0.30112 0.26555 0.0
H6548 H 0.41206 0.28102 0.26183 0.0
H6549 H 0.41247 0.28383 0.24314 0.0
C6550 C 0.39874 0.31858 0.20177 0.0
C6551 C 0.3895 0.31292 0.20227 0.0
C6552 C 0.40762 0.31503 0.20664 0.0
C6553 C 0.40747 0.30574 0.2121 0.0
C6554 C 0.3982 0.30022 0.21285 0.0
C6555 C 0.38933 0.30375 0.20796 0.0
C6556 C 0.417 0.30166 0.21688 0.0
C6557 C 0.41706 0.29943 0.22741 0.0
C6558 C 0.42603 0.30007 0.21115 0.0
C6559 C 0.42635 0.30173 0.19991 0.0
C6560 C 0.41935 0.29663 0.19342 0.0
C6561 C 0.41965 0.29829 0.18285 0.0
C6562 C 0.42696 0.30497 0.17865 0.0
C6563 C 0.43401 0.30999 0.18503 0.0
C6564 C 0.43374 0.30837 0.19561 0.0
C6565 C 0.45272 0.27615 0.24101 0.0
C6566 C 0.46227 0.28119 0.24007 0.0
C6567 C 0.44387 0.28032 0.23664 0.0
C6568 C 0.44433 0.28967 0.23128 0.0
C6569 C 0.45386 0.29467 0.23026 0.0
C6570 C 0.46272 0.29051 0.23462 0.0
C6571 C 0.43492 0.29414 0.22662 0.0
C6572 C 0.43488 0.29642 0.2161 0.0
C6573 C 0.42591 0.29579 0.23237 0.0
C6574 C 0.42561 0.29413 0.24361 0.0
C6575 C 0.43278 0.29903 0.25006 0.0
C6576 C 0.43251 0.29736 0.26064 0.0
C6577 C 0.42506 0.29086 0.26487 0.0
C6578 C 0.41784 0.28604 0.25854 0.0
C6579 C 0.41808 0.28768 0.24795 0.0
H6580 H 0.42487 0.28958 0.27306 0.0
H6581 H 0.42718 0.30624 0.17046 0.0
H6582 H 0.68828 0.39266 0.21937 0.0
H6583 H 0.69677 0.40811 0.22565 0.0
H6584 H 0.72075 0.40456 0.20336 0.0
H6585 H 0.71251 0.38878 0.1973 0.0
H6586 H 0.72882 0.40984 0.22129 0.0
H6587 H 0.70186 0.42252 0.20016 0.0
H6588 H 0.68416 0.42417 0.19369 0.0
H6589 H 0.67442 0.4347 0.22313 0.0
H6590 H 0.69205 0.43298 0.22982 0.0
H6591 H 0.74821 0.46105 0.22743 0.0
H6592 H 0.74062 0.44544 0.22034 0.0
H6593 H 0.71779 0.4452 0.2441 0.0
H6594 H 0.72552 0.46061 0.25148 0.0
H6595 H 0.70952 0.44214 0.22457 0.0
H6596 H 0.73685 0.42891 0.24557 0.0
H6597 H 0.75475 0.42753 0.25153 0.0
H6598 H 0.76402 0.41842 0.22145 0.0
H6599 H 0.74618 0.41989 0.21528 0.0
C6600 C 0.69542 0.39507 0.21585 0.0
C6601 C 0.6997 0.38942 0.20781 0.0
C6602 C 0.70022 0.40401 0.21938 0.0
C6603 C 0.70934 0.40761 0.21489 0.0
C6604 C 0.71369 0.40197 0.20692 0.0
C6605 C 0.70891 0.39299 0.2034 0.0
C6606 C 0.71435 0.41721 0.21862 0.0
C6607 C 0.72464 0.41694 0.22185 0.0
C6608 C 0.70888 0.42647 0.21951 0.0
C6609 C 0.69826 0.42753 0.21551 0.0
C6610 C 0.69593 0.42511 0.20528 0.0
C6611 C 0.68591 0.42607 0.20157 0.0
C6612 C 0.67817 0.42951 0.208 0.0
C6613 C 0.68043 0.43202 0.21816 0.0
C6614 C 0.69044 0.43107 0.22191 0.0
C6615 C 0.74167 0.45762 0.23127 0.0
C6616 C 0.73751 0.46215 0.24006 0.0
C6617 C 0.73731 0.44871 0.22715 0.0
C6618 C 0.72865 0.44413 0.2317 0.0
C6619 C 0.72444 0.44863 0.24043 0.0
C6620 C 0.72885 0.45749 0.24461 0.0
C6621 C 0.72392 0.43471 0.22733 0.0
C6622 C 0.71369 0.43504 0.22396 0.0
C6623 C 0.72947 0.42554 0.22623 0.0
C6624 C 0.7402 0.42462 0.22994 0.0
C6625 C 0.74272 0.4267 0.2402 0.0
C6626 C 0.75285 0.42589 0.24362 0.0
C6627 C 0.76052 0.42292 0.23686 0.0
C6628 C 0.75807 0.42074 0.22668 0.0
C6629 C 0.74795 0.42155 0.22321 0.0
H6630 H 0.76837 0.42229 0.23953 0.0
H6631 H 0.67042 0.43025 0.20512 0.0
H6632 H 0.6366 0.30771 0.80653 0.0
H6633 H 0.6213 0.30133 0.79759 0.0
H6634 H 0.60259 0.31004 0.82319 0.0
H6635 H 0.61785 0.31636 0.83218 0.0
H6636 H 0.59766 0.29139 0.81728 0.0
H6637 H 0.60278 0.32367 0.80027 0.0
H6638 H 0.61243 0.33689 0.79068 0.0
H6639 H 0.61676 0.31591 0.76594 0.0
H6640 H 0.60725 0.30251 0.77544 0.0
H6641 H 0.54874 0.28627 0.79427 0.0
H6642 H 0.56432 0.29334 0.80204 0.0
H6643 H 0.58211 0.28239 0.77669 0.0
H6644 H 0.56654 0.27517 0.76888 0.0
H6645 H 0.58774 0.30187 0.78208 0.0
H6646 H 0.58241 0.26968 0.79914 0.0
H6647 H 0.57257 0.2566 0.80872 0.0
H6648 H 0.56853 0.27765 0.83346 0.0
H6649 H 0.57823 0.29091 0.82396 0.0
C6650 C 0.62921 0.30839 0.8102 0.0
C6651 C 0.62845 0.31253 0.82008 0.0
C6652 C 0.62046 0.30474 0.80507 0.0
C6653 C 0.61076 0.30527 0.80967 0.0
C6654 C 0.60998 0.30951 0.81949 0.0
C6655 C 0.61872 0.3131 0.82463 0.0
C6656 C 0.60146 0.3011 0.80444 0.0
C6657 C 0.59542 0.2938 0.80964 0.0
C6658 C 0.59867 0.30401 0.79435 0.0
C6659 C 0.60439 0.31206 0.78862 0.0
C6660 C 0.60586 0.32185 0.79282 0.0
C6661 C 0.6113 0.32938 0.78739 0.0
C6662 C 0.61523 0.32723 0.77772 0.0
C6663 C 0.61372 0.31756 0.77344 0.0
C6664 C 0.6083 0.30999 0.77884 0.0
C6665 C 0.55597 0.28527 0.79037 0.0
C6666 C 0.55639 0.28006 0.78099 0.0
C6667 C 0.56488 0.28936 0.79481 0.0
C6668 C 0.57441 0.28829 0.79001 0.0
C6669 C 0.57484 0.2833 0.78053 0.0
C6670 C 0.56592 0.2792 0.77607 0.0
C6671 C 0.58392 0.29226 0.79498 0.0
C6672 C 0.59 0.29948 0.78972 0.0
C6673 C 0.58675 0.2893 0.80503 0.0
C6674 C 0.58097 0.28132 0.81079 0.0
C6675 C 0.57936 0.27155 0.80659 0.0
C6676 C 0.57382 0.26409 0.81201 0.0
C6677 C 0.56991 0.2663 0.82168 0.0
C6678 C 0.57156 0.27595 0.82596 0.0
C6679 C 0.57708 0.28344 0.82057 0.0
H6680 H 0.56562 0.26052 0.82587 0.0
H6681 H 0.61944 0.33307 0.77353 0.0
H6682 H 0.69143 0.62454 0.80998 0.0
H6683 H 0.6979 0.60965 0.80085 0.0
H6684 H 0.72666 0.61236 0.81711 0.0
H6685 H 0.72042 0.62744 0.82594 0.0
H6686 H 0.73007 0.60835 0.7976 0.0
H6687 H 0.70808 0.59434 0.82378 0.0
H6688 H 0.69193 0.59212 0.83333 0.0
H6689 H 0.67664 0.58201 0.80595 0.0
H6690 H 0.69268 0.5843 0.7962 0.0
H6691 H 0.75039 0.55885 0.79063 0.0
H6692 H 0.7431 0.57436 0.79783 0.0
H6693 H 0.7161 0.57034 0.77902 0.0
H6694 H 0.72329 0.55468 0.7719 0.0
H6695 H 0.7112 0.5752 0.79873 0.0
H6696 H 0.73361 0.58828 0.77279 0.0
H6697 H 0.74991 0.59022 0.76345 0.0
H6698 H 0.76456 0.60192 0.79055 0.0
H6699 H 0.74837 0.5999 0.8001 0.0
C6700 C 0.69917 0.62204 0.81153 0.0
C6701 C 0.70536 0.62718 0.81877 0.0
C6702 C 0.70283 0.61345 0.80638 0.0
C6703 C 0.71273 0.60977 0.80838 0.0
C6704 C 0.71898 0.615 0.81545 0.0
C6705 C 0.71535 0.62358 0.82058 0.0
C6706 C 0.71662 0.60045 0.80319 0.0
C6707 C 0.72599 0.60108 0.79794 0.0
C6708 C 0.71119 0.59099 0.80339 0.0
C6709 C 0.70155 0.58961 0.80924 0.0
C6710 C 0.70125 0.59173 0.81978 0.0
C6711 C 0.69212 0.59044 0.82523 0.0
C6712 C 0.68326 0.58696 0.82024 0.0
C6713 C 0.68351 0.58473 0.8098 0.0
C6714 C 0.69262 0.58601 0.8043 0.0
C6715 C 0.74288 0.56122 0.78806 0.0
C6716 C 0.73743 0.55551 0.78068 0.0
C6717 C 0.73875 0.57015 0.79212 0.0
C6718 C 0.72908 0.57359 0.7889 0.0
C6719 C 0.72358 0.56787 0.7816 0.0
C6720 C 0.72774 0.55896 0.77748 0.0
C6721 C 0.7247 0.58309 0.79325 0.0
C6722 C 0.71525 0.58249 0.79833 0.0
C6723 C 0.73006 0.59257 0.79292 0.0
C6724 C 0.7398 0.59385 0.78719 0.0
C6725 C 0.74033 0.59119 0.77678 0.0
C6726 C 0.74954 0.59231 0.77144 0.0
C6727 C 0.75827 0.59617 0.77641 0.0
C6728 C 0.75779 0.59892 0.78671 0.0
C6729 C 0.7486 0.5978 0.79209 0.0
H6730 H 0.7654 0.59703 0.77226 0.0
H6731 H 0.6762 0.58596 0.82448 0.0
H6732 H 0.38092 0.71297 0.80531 0.0
H6733 H 0.39635 0.72157 0.79883 0.0
H6734 H 0.4152 0.70094 0.81638 0.0
H6735 H 0.39978 0.69239 0.82299 0.0
H6736 H 0.42292 0.71962 0.81748 0.0
H6737 H 0.4112 0.69796 0.79024 0.0
H6738 H 0.39875 0.69094 0.77779 0.0
H6739 H 0.39559 0.72064 0.76401 0.0
H6740 H 0.40793 0.72787 0.77648 0.0
H6741 H 0.46967 0.72716 0.79027 0.0
H6742 H 0.45394 0.71985 0.79757 0.0
H6743 H 0.43615 0.74296 0.78218 0.0
H6744 H 0.45187 0.75026 0.77478 0.0
H6745 H 0.42781 0.7235 0.78 0.0
H6746 H 0.44026 0.74485 0.80722 0.0
H6747 H 0.45306 0.7514 0.81957 0.0
H6748 H 0.45526 0.72157 0.83326 0.0
H6749 H 0.44258 0.7148 0.82088 0.0
C6750 C 0.38835 0.71025 0.80778 0.0
C6751 C 0.38912 0.70194 0.81462 0.0
C6752 C 0.39718 0.71517 0.80406 0.0
C6753 C 0.40697 0.71181 0.80697 0.0
C6754 C 0.40775 0.70368 0.814 0.0
C6755 C 0.39892 0.6988 0.8178 0.0
C6756 C 0.41639 0.71666 0.80259 0.0
C6757 C 0.42403 0.72035 0.80928 0.0
C6758 C 0.4178 0.71781 0.79189 0.0
C6759 C 0.41041 0.71348 0.78436 0.0
C6760 C 0.4078 0.70301 0.7846 0.0
C6761 C 0.40076 0.69899 0.77754 0.0
C6762 C 0.39636 0.70534 0.77013 0.0
C6763 C 0.399 0.71573 0.76976 0.0
C6764 C 0.40602 0.71979 0.77682 0.0
C6765 C 0.4624 0.73067 0.78841 0.0
C6766 C 0.46202 0.7393 0.78195 0.0
C6767 C 0.45343 0.72652 0.79265 0.0
C6768 C 0.44387 0.7309 0.79049 0.0
C6769 C 0.44344 0.73947 0.78398 0.0
C6770 C 0.45243 0.74368 0.77981 0.0
C6771 C 0.43431 0.72642 0.79489 0.0
C6772 C 0.42666 0.72279 0.7882 0.0
C6773 C 0.43294 0.72524 0.80558 0.0
C6774 C 0.44054 0.7293 0.81306 0.0
C6775 C 0.44354 0.73967 0.81281 0.0
C6776 C 0.45076 0.74342 0.81983 0.0
C6777 C 0.45499 0.7369 0.82718 0.0
C6778 C 0.45199 0.72661 0.82755 0.0
C6779 C 0.44477 0.72281 0.82054 0.0
H6780 H 0.46058 0.73982 0.83261 0.0
H6781 H 0.39092 0.70222 0.76467 0.0
H6782 H 0.30622 0.38283 0.80818 0.0
H6783 H 0.29735 0.39795 0.80168 0.0
H6784 H 0.32217 0.4172 0.81245 0.0
H6785 H 0.33095 0.40216 0.8192 0.0
H6786 H 0.30391 0.42569 0.81646 0.0
H6787 H 0.32012 0.41072 0.78726 0.0
H6788 H 0.32414 0.39692 0.77518 0.0
H6789 H 0.29229 0.3942 0.767 0.0
H6790 H 0.28807 0.4079 0.77914 0.0
H6791 H 0.29436 0.47059 0.78739 0.0
H6792 H 0.30191 0.45514 0.79467 0.0
H6793 H 0.27649 0.43716 0.78313 0.0
H6794 H 0.26902 0.45256 0.77556 0.0
H6795 H 0.29437 0.42776 0.77969 0.0
H6796 H 0.27822 0.44319 0.80847 0.0
H6797 H 0.27425 0.45704 0.8205 0.0
H6798 H 0.30593 0.45894 0.82949 0.0
H6799 H 0.31012 0.44519 0.8174 0.0
C6800 C 0.30974 0.39029 0.80928 0.0
C6801 C 0.31934 0.39125 0.81417 0.0
C6802 C 0.30469 0.39893 0.80547 0.0
C6803 C 0.30914 0.40872 0.80644 0.0
C6804 C 0.31859 0.40973 0.81156 0.0
C6805 C 0.32365 0.40111 0.81535 0.0
C6806 C 0.30407 0.4179 0.80198 0.0
C6807 C 0.30193 0.42619 0.8084 0.0
C6808 C 0.30125 0.41848 0.79151 0.0
C6809 C 0.30377 0.41026 0.78419 0.0
C6810 C 0.31397 0.40712 0.78294 0.0
C6811 C 0.31628 0.39933 0.77608 0.0
C6812 C 0.30847 0.39466 0.77035 0.0
C6813 C 0.29833 0.3978 0.77145 0.0
C6814 C 0.29597 0.40559 0.77832 0.0
C6815 C 0.2904 0.46334 0.78632 0.0
C6816 C 0.28106 0.46285 0.78089 0.0
C6817 C 0.29469 0.45452 0.79059 0.0
C6818 C 0.28972 0.44498 0.78957 0.0
C6819 C 0.28045 0.44443 0.78406 0.0
C6820 C 0.27615 0.45326 0.7798 0.0
C6821 C 0.29426 0.43558 0.79416 0.0
C6822 C 0.2963 0.42725 0.78777 0.0
C6823 C 0.29699 0.43497 0.80465 0.0
C6824 C 0.2945 0.44322 0.81195 0.0
C6825 C 0.28436 0.44661 0.81295 0.0
C6826 C 0.28207 0.45444 0.81979 0.0
C6827 C 0.28984 0.45889 0.82574 0.0
C6828 C 0.29992 0.4555 0.82487 0.0
C6829 C 0.30226 0.44768 0.81803 0.0
H6830 H 0.28805 0.46494 0.83103 0.0
H6831 H 0.31028 0.38863 0.76503 0.0
H6832 H 0.7071 0.62489 0.19356 0.0
H6833 H 0.71629 0.61 0.20011 0.0
H6834 H 0.7006 0.61258 0.22896 0.0
H6835 H 0.69171 0.62768 0.22262 0.0
H6836 H 0.72013 0.60849 0.23225 0.0
H6837 H 0.69345 0.59461 0.21073 0.0
H6838 H 0.6835 0.59249 0.19476 0.0
H6839 H 0.71052 0.58258 0.1792 0.0
H6840 H 0.72068 0.58478 0.19504 0.0
H6841 H 0.72798 0.55872 0.25259 0.0
H6842 H 0.72041 0.57423 0.24542 0.0
H6843 H 0.73856 0.57095 0.21814 0.0
H6844 H 0.74604 0.5553 0.2252 0.0
H6845 H 0.71864 0.57554 0.21361 0.0
H6846 H 0.74509 0.58865 0.23562 0.0
H6847 H 0.75474 0.59044 0.2518 0.0
H6848 H 0.72781 0.60156 0.26667 0.0
H6849 H 0.71795 0.59969 0.25061 0.0
C6850 C 0.70568 0.62237 0.20134 0.0
C6851 C 0.69859 0.62748 0.20752 0.0
C6852 C 0.71087 0.61377 0.20505 0.0
C6853 C 0.70904 0.61005 0.215 0.0
C6854 C 0.70212 0.61525 0.22125 0.0
C6855 C 0.69696 0.62385 0.21756 0.0
C6856 C 0.71426 0.6007 0.21892 0.0
C6857 C 0.7197 0.60126 0.22822 0.0
C6858 C 0.71393 0.5913 0.21357 0.0
C6859 C 0.70784 0.58997 0.20404 0.0
C6860 C 0.69729 0.59206 0.20388 0.0
C6861 C 0.69161 0.59083 0.19486 0.0
C6862 C 0.69638 0.58743 0.18596 0.0
C6863 C 0.70684 0.58523 0.18609 0.0
C6864 C 0.71256 0.58646 0.19509 0.0
C6865 C 0.73033 0.56126 0.24504 0.0
C6866 C 0.73764 0.55576 0.23948 0.0
C6867 C 0.72605 0.57018 0.24098 0.0
C6868 C 0.72898 0.57382 0.23127 0.0
C6869 C 0.7362 0.56831 0.22566 0.0
C6870 C 0.74053 0.55941 0.22974 0.0
C6871 C 0.72441 0.58332 0.22696 0.0
C6872 C 0.7191 0.58279 0.2176 0.0
C6873 C 0.72482 0.59273 0.23227 0.0
C6874 C 0.73075 0.59394 0.24193 0.0
C6875 C 0.7412 0.59141 0.24236 0.0
C6876 C 0.74672 0.59245 0.25151 0.0
C6877 C 0.74189 0.59609 0.26027 0.0
C6878 C 0.73154 0.59873 0.25988 0.0
C6879 C 0.72598 0.59769 0.25076 0.0
H6880 H 0.74617 0.59689 0.26734 0.0
H6881 H 0.69197 0.58648 0.17899 0.0
H6882 H 0.70861 0.3814 0.79965 0.0
H6883 H 0.717 0.39707 0.79344 0.0
H6884 H 0.70444 0.41378 0.81876 0.0
H6885 H 0.69588 0.39817 0.82491 0.0
H6886 H 0.70183 0.42385 0.80066 0.0
H6887 H 0.72944 0.40786 0.81866 0.0
H6888 H 0.74121 0.39392 0.82321 0.0
H6889 H 0.75248 0.39352 0.79238 0.0
H6890 H 0.74066 0.40736 0.7876 0.0
H6891 H 0.73129 0.4693 0.79395 0.0
H6892 H 0.72387 0.45356 0.80104 0.0
H6893 H 0.7366 0.43638 0.77613 0.0
H6894 H 0.74429 0.45208 0.76913 0.0
H6895 H 0.73924 0.42658 0.79429 0.0
H6896 H 0.71141 0.44232 0.77622 0.0
H6897 H 0.69963 0.45625 0.77164 0.0
H6898 H 0.68874 0.45707 0.8026 0.0
H6899 H 0.70058 0.44323 0.8074 0.0
C6900 C 0.70763 0.38842 0.80389 0.0
C6901 C 0.70158 0.38854 0.81277 0.0
C6902 C 0.71249 0.39735 0.80038 0.0
C6903 C 0.71141 0.40659 0.80567 0.0
C6904 C 0.7054 0.40673 0.81456 0.0
C6905 C 0.70058 0.39779 0.81811 0.0
C6906 C 0.7163 0.41615 0.80177 0.0
C6907 C 0.71003 0.4245 0.79942 0.0
C6908 C 0.72697 0.41692 0.7999 0.0
C6909 C 0.73408 0.40858 0.80275 0.0
C6910 C 0.73436 0.40474 0.81282 0.0
C6911 C 0.74106 0.39687 0.81545 0.0
C6912 C 0.74757 0.39282 0.80808 0.0
C6913 C 0.74742 0.39665 0.79807 0.0
C6914 C 0.74073 0.40452 0.7954 0.0
C6915 C 0.7326 0.46216 0.79003 0.0
C6916 C 0.73837 0.46196 0.78095 0.0
C6917 C 0.72827 0.45318 0.79404 0.0
C6918 C 0.72958 0.44379 0.78906 0.0
C6919 C 0.73546 0.44353 0.78009 0.0
C6920 C 0.73978 0.45252 0.77605 0.0
C6921 C 0.72476 0.43428 0.79318 0.0
C6922 C 0.73105 0.42594 0.79556 0.0
C6923 C 0.7141 0.43351 0.79506 0.0
C6924 C 0.70696 0.44181 0.7922 0.0
C6925 C 0.70657 0.44553 0.78208 0.0
C6926 C 0.69987 0.45339 0.77944 0.0
C6927 C 0.69346 0.45756 0.78683 0.0
C6928 C 0.69372 0.45384 0.79688 0.0
C6929 C 0.70042 0.44599 0.79957 0.0
H6930 H 0.68827 0.46364 0.78477 0.0
H6931 H 0.75276 0.38672 0.81013 0.0
H6932 H 0.61711 0.69002 0.82142 0.0
H6933 H 0.60174 0.69855 0.81499 0.0
H6934 H 0.62062 0.71918 0.79716 0.0
H6935 H 0.63605 0.71079 0.80368 0.0
H6936 H 0.60492 0.72917 0.8069 0.0
H6937 H 0.60878 0.69948 0.78572 0.0
H6938 H 0.61085 0.68109 0.78234 0.0
H6939 H 0.58225 0.67453 0.79731 0.0
H6940 H 0.58008 0.69288 0.80091 0.0
H6941 H 0.566 0.74864 0.77406 0.0
H6942 H 0.58144 0.74079 0.78115 0.0
H6943 H 0.56277 0.71787 0.79627 0.0
H6944 H 0.54734 0.7256 0.78906 0.0
H6945 H 0.57849 0.70908 0.78806 0.0
H6946 H 0.57437 0.73844 0.80934 0.0
H6947 H 0.57215 0.75672 0.81318 0.0
H6948 H 0.60087 0.76384 0.79871 0.0
H6949 H 0.60321 0.7456 0.79466 0.0
C6950 C 0.61801 0.69645 0.81622 0.0
C6951 C 0.62782 0.69969 0.81304 0.0
C6952 C 0.6092 0.70127 0.81249 0.0
C6953 C 0.61001 0.70944 0.8055 0.0
C6954 C 0.6198 0.71287 0.80251 0.0
C6955 C 0.62861 0.70801 0.80619 0.0
C6956 C 0.60065 0.7143 0.80119 0.0
C6957 C 0.59919 0.72481 0.80267 0.0
C6958 C 0.59305 0.70857 0.79588 0.0
C6959 C 0.59432 0.69754 0.79368 0.0
C6960 C 0.60297 0.69411 0.78837 0.0
C6961 C 0.60415 0.68369 0.7864 0.0
C6962 C 0.5967 0.67664 0.78963 0.0
C6963 C 0.58803 0.68 0.79482 0.0
C6964 C 0.58681 0.69041 0.79682 0.0
C6965 C 0.56519 0.74197 0.77896 0.0
C6966 C 0.55543 0.73776 0.781 0.0
C6967 C 0.57403 0.73749 0.78304 0.0
C6968 C 0.57331 0.72879 0.78938 0.0
C6969 C 0.56357 0.72456 0.7914 0.0
C6970 C 0.55473 0.72898 0.78725 0.0
C6971 C 0.58269 0.72399 0.79378 0.0
C6972 C 0.58418 0.71347 0.7923 0.0
C6973 C 0.59028 0.7297 0.79916 0.0
C6974 C 0.58891 0.74067 0.80161 0.0
C6975 C 0.58018 0.74391 0.80691 0.0
C6976 C 0.5789 0.75426 0.80914 0.0
C6977 C 0.58635 0.76144 0.80617 0.0
C6978 C 0.5951 0.75827 0.80099 0.0
C6979 C 0.59641 0.74793 0.79874 0.0
H6980 H 0.58535 0.76945 0.8079 0.0
H6981 H 0.59763 0.66858 0.7881 0.0
H6982 H 0.29767 0.6363 0.81297 0.0
H6983 H 0.29135 0.62087 0.80442 0.0
H6984 H 0.31766 0.60431 0.8154 0.0
H6985 H 0.32406 0.61975 0.82394 0.0
H6986 H 0.31354 0.59935 0.796 0.0
H6987 H 0.29408 0.60172 0.82693 0.0
H6988 H 0.28301 0.61007 0.83958 0.0
H6989 H 0.25942 0.6135 0.81681 0.0
H6990 H 0.27041 0.60529 0.80398 0.0
H6991 H 0.29343 0.54916 0.78766 0.0
H6992 H 0.30041 0.56483 0.79523 0.0
H6993 H 0.27434 0.58159 0.78399 0.0
H6994 H 0.26734 0.56595 0.77634 0.0
H6995 H 0.27843 0.58642 0.80348 0.0
H6996 H 0.29799 0.58378 0.77256 0.0
H6997 H 0.30913 0.57529 0.76008 0.0
H6998 H 0.33261 0.57215 0.78301 0.0
H6999 H 0.32155 0.58051 0.79567 0.0
C7000 C 0.3021 0.62936 0.8136 0.0
C7001 C 0.31134 0.62925 0.81921 0.0
C7002 C 0.29848 0.62054 0.8087 0.0
C7003 C 0.30393 0.61135 0.80939 0.0
C7004 C 0.3133 0.61129 0.81475 0.0
C7005 C 0.31696 0.62014 0.81962 0.0
C7006 C 0.29979 0.6018 0.80467 0.0
C7007 C 0.30591 0.59646 0.79773 0.0
C7008 C 0.28976 0.5981 0.80677 0.0
C7009 C 0.28311 0.60298 0.81448 0.0
C7010 C 0.28656 0.60432 0.8246 0.0
C7011 C 0.2803 0.60902 0.8318 0.0
C7012 C 0.27053 0.61234 0.82899 0.0
C7013 C 0.26699 0.61094 0.81897 0.0
C7014 C 0.27323 0.60626 0.81174 0.0
C7015 C 0.28924 0.5562 0.78668 0.0
C7016 C 0.27983 0.55628 0.78135 0.0
C7017 C 0.29323 0.56517 0.79104 0.0
C7018 C 0.28797 0.57444 0.7901 0.0
C7019 C 0.27855 0.57454 0.78483 0.0
C7020 C 0.27454 0.56557 0.78049 0.0
C7021 C 0.29217 0.58399 0.79477 0.0
C7022 C 0.28605 0.58933 0.80172 0.0
C7023 C 0.30222 0.58766 0.79271 0.0
C7024 C 0.3089 0.58268 0.78509 0.0
C7025 C 0.3055 0.58121 0.77497 0.0
C7026 C 0.3118 0.57643 0.76785 0.0
C7027 C 0.32156 0.57316 0.77076 0.0
C7028 C 0.32505 0.57468 0.78077 0.0
C7029 C 0.31877 0.57945 0.78792 0.0
H7030 H 0.32643 0.56946 0.76524 0.0
H7031 H 0.26569 0.61598 0.83457 0.0
H7032 H 0.40218 0.3183 0.8293 0.0
H7033 H 0.41712 0.31183 0.82029 0.0
H7034 H 0.39765 0.30182 0.79542 0.0
H7035 H 0.3826 0.30807 0.80453 0.0
H7036 H 0.41117 0.28721 0.80063 0.0
H7037 H 0.413 0.32289 0.79278 0.0
H7038 H 0.41325 0.34138 0.79637 0.0
H7039 H 0.44053 0.33791 0.81454 0.0
H7040 H 0.44036 0.31936 0.81117 0.0
H7041 H 0.45301 0.27598 0.76775 0.0
H7042 H 0.43747 0.2834 0.77486 0.0
H7043 H 0.45487 0.29461 0.80071 0.0
H7044 H 0.47049 0.28752 0.79349 0.0
H7045 H 0.44192 0.30889 0.79393 0.0
H7046 H 0.43942 0.27313 0.8027 0.0
H7047 H 0.43927 0.25463 0.79909 0.0
H7048 H 0.41337 0.25834 0.77905 0.0
H7049 H 0.41342 0.27689 0.78248 0.0
C7050 C 0.40105 0.3147 0.82193 0.0
C7051 C 0.39116 0.31371 0.81765 0.0
C7052 C 0.40963 0.31108 0.81673 0.0
C7053 C 0.40855 0.30641 0.80712 0.0
C7054 C 0.39869 0.30542 0.80281 0.0
C7055 C 0.3901 0.30907 0.80799 0.0
C7056 C 0.41769 0.30238 0.8017 0.0
C7057 C 0.41783 0.292 0.79901 0.0
C7058 C 0.42647 0.30856 0.79975 0.0
C7059 C 0.42661 0.31971 0.80179 0.0
C7060 C 0.419 0.32605 0.79761 0.0
C7061 C 0.41914 0.33655 0.79959 0.0
C7062 C 0.42689 0.34082 0.8057 0.0
C7063 C 0.43453 0.33459 0.80982 0.0
C7064 C 0.43442 0.32409 0.80786 0.0
C7065 C 0.45356 0.28011 0.7749 0.0
C7066 C 0.46303 0.2811 0.78006 0.0
C7067 C 0.44464 0.28427 0.77901 0.0
C7068 C 0.44495 0.28947 0.7884 0.0
C7069 C 0.45441 0.29061 0.79348 0.0
C7070 C 0.46333 0.28646 0.78938 0.0
C7071 C 0.43545 0.2937 0.79297 0.0
C7072 C 0.43524 0.30412 0.7955 0.0
C7073 C 0.4266 0.28756 0.79477 0.0
C7074 C 0.42648 0.2764 0.79277 0.0
C7075 C 0.43373 0.27001 0.79748 0.0
C7076 C 0.43366 0.25951 0.79548 0.0
C7077 C 0.42633 0.25532 0.78883 0.0
C7078 C 0.41904 0.2616 0.78419 0.0
C7079 C 0.41908 0.2721 0.78617 0.0
H7080 H 0.42628 0.24719 0.78731 0.0
H7081 H 0.42699 0.34894 0.80722 0.0
H7082 H 0.30633 0.39006 0.196 0.0
H7083 H 0.29796 0.40547 0.20224 0.0
H7084 H 0.32111 0.40865 0.22573 0.0
H7085 H 0.32958 0.39337 0.21948 0.0
H7086 H 0.30235 0.41127 0.23354 0.0
H7087 H 0.32112 0.42405 0.2045 0.0
H7088 H 0.32645 0.42471 0.18642 0.0
H7089 H 0.29537 0.43033 0.17714 0.0
H7090 H 0.28983 0.42956 0.19517 0.0
H7091 H 0.29373 0.46223 0.24929 0.0
H7092 H 0.30118 0.44672 0.2423 0.0
H7093 H 0.27675 0.44481 0.22001 0.0
H7094 H 0.26912 0.46024 0.22707 0.0
H7095 H 0.29536 0.44132 0.21134 0.0
H7096 H 0.27667 0.42903 0.2404 0.0
H7097 H 0.27135 0.42849 0.25848 0.0
H7098 H 0.30224 0.42193 0.26771 0.0
H7099 H 0.30778 0.42259 0.24968 0.0
C7100 C 0.30971 0.3941 0.20242 0.0
C7101 C 0.31863 0.39042 0.20724 0.0
C7102 C 0.3049 0.40291 0.206 0.0
C7103 C 0.30892 0.40828 0.21444 0.0
C7104 C 0.31782 0.40463 0.21925 0.0
C7105 C 0.32263 0.39584 0.21568 0.0
C7106 C 0.30384 0.41762 0.21837 0.0
C7107 C 0.30094 0.41788 0.22871 0.0
C7108 C 0.30173 0.42617 0.21202 0.0
C7109 C 0.30504 0.42663 0.20117 0.0
C7110 C 0.31541 0.42534 0.1986 0.0
C7111 C 0.31847 0.42575 0.18836 0.0
C7112 C 0.31125 0.42753 0.18063 0.0
C7113 C 0.30095 0.42893 0.18313 0.0
C7114 C 0.29785 0.42851 0.19336 0.0
C7115 C 0.28985 0.45847 0.24298 0.0
C7116 C 0.28077 0.46251 0.2388 0.0
C7117 C 0.29415 0.4496 0.23896 0.0
C7118 C 0.28948 0.44453 0.23068 0.0
C7119 C 0.28051 0.44859 0.22639 0.0
C7120 C 0.27617 0.45745 0.23043 0.0
C7121 C 0.29398 0.43499 0.22653 0.0
C7122 C 0.29675 0.43469 0.21615 0.0
C7123 C 0.29597 0.42639 0.23284 0.0
C7124 C 0.29266 0.42596 0.24369 0.0
C7125 C 0.28235 0.42756 0.24629 0.0
C7126 C 0.27928 0.42722 0.25653 0.0
C7127 C 0.28645 0.4252 0.26424 0.0
C7128 C 0.2967 0.4235 0.26173 0.0
C7129 C 0.2998 0.42385 0.2515 0.0
H7130 H 0.28407 0.42494 0.27217 0.0
H7131 H 0.31364 0.42785 0.17271 0.0
H7132 H 0.631 0.31982 0.2141 0.0
H7133 H 0.61542 0.31382 0.22272 0.0
H7134 H 0.60759 0.29537 0.19649 0.0
H7135 H 0.62289 0.30165 0.18767 0.0
H7136 H 0.5911 0.30462 0.20324 0.0
H7137 H 0.61808 0.28499 0.21872 0.0
H7138 H 0.63448 0.28239 0.2278 0.0
H7139 H 0.62332 0.29917 0.25354 0.0
H7140 H 0.6069 0.30198 0.24455 0.0
H7141 H 0.55431 0.27108 0.22548 0.0
H7142 H 0.56982 0.27815 0.21757 0.0
H7143 H 0.57505 0.2972 0.24397 0.0
H7144 H 0.55965 0.28999 0.25205 0.0
H7145 H 0.5927 0.28834 0.2376 0.0
H7146 H 0.56545 0.3074 0.22226 0.0
H7147 H 0.54903 0.30978 0.21317 0.0
H7148 H 0.56072 0.29387 0.18711 0.0
H7149 H 0.57717 0.29126 0.19611 0.0
C7150 C 0.62592 0.31457 0.21012 0.0
C7151 C 0.62827 0.31118 0.2002 0.0
C7152 C 0.61705 0.31105 0.21511 0.0
C7153 C 0.61038 0.30402 0.21033 0.0
C7154 C 0.61262 0.30075 0.20037 0.0
C7155 C 0.62145 0.30428 0.19537 0.0
C7156 C 0.60103 0.30005 0.21563 0.0
C7157 C 0.59149 0.30095 0.2107 0.0
C7158 C 0.60145 0.29549 0.22549 0.0
C7159 C 0.6113 0.29379 0.23092 0.0
C7160 C 0.61916 0.28819 0.22628 0.0
C7161 C 0.62845 0.28667 0.23142 0.0
C7162 C 0.62995 0.29064 0.24123 0.0
C7163 C 0.62215 0.29611 0.24594 0.0
C7164 C 0.61285 0.29767 0.24083 0.0
C7165 C 0.55881 0.2767 0.22965 0.0
C7166 C 0.55571 0.27998 0.2394 0.0
C7167 C 0.56763 0.28081 0.22508 0.0
C7168 C 0.57355 0.2883 0.23012 0.0
C7169 C 0.57059 0.29147 0.23992 0.0
C7170 C 0.56174 0.28739 0.24449 0.0
C7171 C 0.58282 0.29282 0.22515 0.0
C7172 C 0.59233 0.29204 0.23015 0.0
C7173 C 0.58238 0.29747 0.21535 0.0
C7174 C 0.57251 0.29905 0.2099 0.0
C7175 C 0.56449 0.30434 0.21462 0.0
C7176 C 0.55518 0.30574 0.20948 0.0
C7177 C 0.55382 0.30196 0.19958 0.0
C7178 C 0.56178 0.29678 0.19479 0.0
C7179 C 0.5711 0.29535 0.1999 0.0
H7180 H 0.54661 0.30305 0.19561 0.0
H7181 H 0.63715 0.28945 0.24519 0.0
H7182 H 0.39925 0.7014 0.19186 0.0
H7183 H 0.41469 0.70792 0.20039 0.0
H7184 H 0.39602 0.7222 0.22332 0.0
H7185 H 0.38052 0.71584 0.21469 0.0
H7186 H 0.41047 0.73494 0.21767 0.0
H7187 H 0.40981 0.69998 0.22829 0.0
H7188 H 0.40879 0.68126 0.22628 0.0
H7189 H 0.43632 0.68194 0.20837 0.0
H7190 H 0.43743 0.7007 0.21015 0.0
H7191 H 0.45252 0.74588 0.25114 0.0
H7192 H 0.43661 0.73873 0.24403 0.0
H7193 H 0.45347 0.72623 0.21877 0.0
H7194 H 0.46945 0.73312 0.22597 0.0
H7195 H 0.43965 0.71248 0.2265 0.0
H7196 H 0.43958 0.74796 0.21576 0.0
H7197 H 0.44057 0.76655 0.21874 0.0
H7198 H 0.41412 0.76459 0.23815 0.0
H7199 H 0.41304 0.74595 0.23536 0.0
C7200 C 0.39844 0.70584 0.19878 0.0
C7201 C 0.38866 0.70807 0.20262 0.0
C7202 C 0.40727 0.70956 0.20367 0.0
C7203 C 0.40655 0.71545 0.2126 0.0
C7204 C 0.39679 0.71769 0.21645 0.0
C7205 C 0.38794 0.71405 0.2115 0.0
C7206 C 0.41596 0.71945 0.21778 0.0
C7207 C 0.41678 0.72999 0.21974 0.0
C7208 C 0.42428 0.71305 0.22037 0.0
C7209 C 0.42365 0.70176 0.21928 0.0
C7210 C 0.41561 0.69615 0.22386 0.0
C7211 C 0.41502 0.68553 0.22277 0.0
C7212 C 0.42247 0.68042 0.21718 0.0
C7213 C 0.43055 0.68591 0.21268 0.0
C7214 C 0.43116 0.69654 0.21374 0.0
C7215 C 0.45286 0.74154 0.24412 0.0
C7216 C 0.46226 0.74011 0.2391 0.0
C7217 C 0.44374 0.73752 0.24002 0.0
C7218 C 0.44383 0.73203 0.2308 0.0
C7219 C 0.45322 0.73047 0.22586 0.0
C7220 C 0.46233 0.73449 0.22994 0.0
C7221 C 0.43416 0.72794 0.22627 0.0
C7222 C 0.43331 0.7174 0.22445 0.0
C7223 C 0.42577 0.73432 0.22391 0.0
C7224 C 0.42628 0.74555 0.22542 0.0
C7225 C 0.434 0.75148 0.2207 0.0
C7226 C 0.43458 0.76203 0.22235 0.0
C7227 C 0.42743 0.76675 0.22866 0.0
C7228 C 0.41966 0.76093 0.23328 0.0
C7229 C 0.41905 0.75037 0.23165 0.0
H7230 H 0.42789 0.77491 0.22994 0.0
H7231 H 0.42201 0.67219 0.21635 0.0
loop_
_geom_bond_atom_site_label_1
_geom_bond_atom_site_label_2
_geom_bond_distance
_geom_bond_site_symmetry_2
_ccdc_geom_bond_type
C0 C1 1.264 . S
C0 C5 1.479 . S
C0 C10 1.465 . S
C1 C0 1.264 . S
C1 C3 1.339 . S
C1 H28 0.931 . S
C2 C3 1.395 . S
C2 C4 1.320 . S
C3 C1 1.339 . S
C3 C2 1.395 . S
C3 H29 0.929 . S
C4 C2 1.320 . S
C4 C5 1.405 . S
C4 H30 0.930 . S
C5 C0 1.479 . S
C5 C4 1.405 . S
C5 H31 0.931 . S
U6 O7 2.454 . S
U6 O8 2.458 . S
U6 C9 2.984 . S
U6 C10 2.847 . S
U6 C23 2.882 . S
U6 O24 2.441 . S
U6 O25 2.420 . S
U6 O26 2.455 . S
U6 O27 2.449 . S
O7 U6 2.454 . S
O7 C9 1.353 . S
O8 U6 2.458 . S
O8 C9 1.286 . S
C9 U6 2.984 . S
C9 O7 1.353 . S
C9 O8 1.286 . S
C9 C11 1.363 . S
C10 C0 1.465 . S
C10 U6 2.847 . S
C10 O24 1.249 . S
C10 O25 1.202 . S
C11 C9 1.363 . S
C11 C13 1.408 . S
C11 C16 1.342 . S
C12 C13 1.310 . S
C12 C15 1.461 . S
C12 H32 0.932 . S
C13 C11 1.408 . S
C13 C12 1.310 . S
C13 H33 0.930 . S
C14 C15 1.474 . S
C14 C16 1.285 . S
C14 H34 0.929 . S
C15 C12 1.461 . S
C15 C14 1.474 . S
C16 C11 1.342 . S
C16 C14 1.285 . S
C16 H35 0.930 . S
C17 C20 1.424 . S
C17 C22 1.245 . S
C17 C23 1.428 . S
C18 C21 1.260 . S
C18 C22 1.477 . S
C18 H36 0.932 . S
C19 C20 1.384 . S
C19 C21 1.479 . S
C19 H37 0.929 . S
C20 C17 1.424 . S
C20 C19 1.384 . S
C20 H38 0.928 . S
C21 C18 1.260 . S
C21 C19 1.479 . S
C22 C17 1.245 . S
C22 C18 1.477 . S
C22 H39 0.932 . S
C23 U6 2.882 . S
C23 C17 1.428 . S
C23 O26 1.301 . S
C23 O27 1.282 . S
O24 U6 2.441 . S
O24 C10 1.249 . S
O25 U6 2.420 . S
O25 C10 1.202 . S
O26 U6 2.455 . S
O26 C23 1.301 . S
O27 U6 2.449 . S
O27 C23 1.282 . S
H28 C1 0.931 . S
H29 C3 0.929 . S
H30 C4 0.930 . S
H31 C5 0.931 . S
H32 C12 0.932 . S
H33 C13 0.930 . S
H34 C14 0.929 . S
H35 C16 0.930 . S
H36 C18 0.932 . S
H37 C19 0.929 . S
H38 C20 0.928 . S
H39 C22 0.932 . S
C40 C41 1.264 . S
C40 C45 1.479 . S
C40 C50 1.465 . S
C41 C40 1.264 . S
C41 C43 1.339 . S
C41 H68 0.931 . S
C42 C43 1.395 . S
C42 C44 1.320 . S
C43 C41 1.339 . S
C43 C42 1.395 . S
C43 H69 0.929 . S
C44 C42 1.320 . S
C44 C45 1.405 . S
C44 H70 0.930 . S
C45 C40 1.479 . S
C45 C44 1.405 . S
C45 H71 0.931 . S
U46 O47 2.454 . S
U46 O48 2.458 . S
U46 C49 2.984 . S
U46 C50 2.847 . S
U46 C63 2.882 . S
U46 O64 2.441 . S
U46 O65 2.420 . S
U46 O66 2.455 . S
U46 O67 2.449 . S
O47 U46 2.454 . S
O47 C49 1.353 . S
O48 U46 2.458 . S
O48 C49 1.286 . S
C49 U46 2.984 . S
C49 O47 1.353 . S
C49 O48 1.286 . S
C49 C51 1.363 . S
C50 C40 1.465 . S
C50 U46 2.847 . S
C50 O64 1.249 . S
C50 O65 1.202 . S
C51 C49 1.363 . S
C51 C53 1.408 . S
C51 C56 1.342 . S
C52 C53 1.310 . S
C52 C55 1.461 . S
C52 H72 0.932 . S
C53 C51 1.408 . S
C53 C52 1.310 . S
C53 H73 0.930 . S
C54 C55 1.474 . S
C54 C56 1.285 . S
C54 H74 0.929 . S
C55 C52 1.461 . S
C55 C54 1.474 . S
C56 C51 1.342 . S
C56 C54 1.285 . S
C56 H75 0.930 . S
C57 C60 1.424 . S
C57 C62 1.245 . S
C57 C63 1.428 . S
C58 C61 1.260 . S
C58 C62 1.477 . S
C58 H76 0.932 . S
C59 C60 1.384 . S
C59 C61 1.479 . S
C59 H77 0.929 . S
C60 C57 1.424 . S
C60 C59 1.384 . S
C60 H78 0.928 . S
C61 C58 1.260 . S
C61 C59 1.479 . S
C62 C57 1.245 . S
C62 C58 1.477 . S
C62 H79 0.932 . S
C63 U46 2.882 . S
C63 C57 1.428 . S
C63 O66 1.301 . S
C63 O67 1.282 . S
O64 U46 2.441 . S
O64 C50 1.249 . S
O65 U46 2.420 . S
O65 C50 1.202 . S
O66 U46 2.455 . S
O66 C63 1.301 . S
O67 U46 2.449 . S
O67 C63 1.282 . S
H68 C41 0.931 . S
H69 C43 0.929 . S
H70 C44 0.930 . S
H71 C45 0.931 . S
H72 C52 0.932 . S
H73 C53 0.930 . S
H74 C54 0.929 . S
H75 C56 0.930 . S
H76 C58 0.932 . S
H77 C59 0.929 . S
H78 C60 0.928 . S
H79 C62 0.932 . S
C80 C81 1.264 . S
C80 C85 1.479 . S
C80 C90 1.465 . S
C81 C80 1.264 . S
C81 C83 1.339 . S
C81 H108 0.931 . S
C82 C83 1.395 . S
C82 C84 1.320 . S
C83 C81 1.339 . S
C83 C82 1.395 . S
C83 H109 0.929 . S
C84 C82 1.320 . S
C84 C85 1.405 . S
C84 H110 0.930 . S
C85 C80 1.479 . S
C85 C84 1.405 . S
C85 H111 0.931 . S
U86 O87 2.454 . S
U86 O88 2.458 . S
U86 C89 2.984 . S
U86 C90 2.847 . S
U86 C103 2.882 . S
U86 O104 2.441 . S
U86 O105 2.420 . S
U86 O106 2.455 . S
U86 O107 2.449 . S
O87 U86 2.454 . S
O87 C89 1.353 . S
O88 U86 2.458 . S
O88 C89 1.286 . S
C89 U86 2.984 . S
C89 O87 1.353 . S
C89 O88 1.286 . S
C89 C91 1.363 . S
C90 C80 1.465 . S
C90 U86 2.847 . S
C90 O104 1.249 . S
C90 O105 1.202 . S
C91 C89 1.363 . S
C91 C93 1.408 . S
C91 C96 1.342 . S
C92 C93 1.310 . S
C92 C95 1.461 . S
C92 H112 0.932 . S
C93 C91 1.408 . S
C93 C92 1.310 . S
C93 H113 0.930 . S
C94 C95 1.474 . S
C94 C96 1.285 . S
C94 H114 0.929 . S
C95 C92 1.461 . S
C95 C94 1.474 . S
C96 C91 1.342 . S
C96 C94 1.285 . S
C96 H115 0.930 . S
C97 C100 1.424 . S
C97 C102 1.245 . S
C97 C103 1.428 . S
C98 C101 1.260 . S
C98 C102 1.477 . S
C98 H116 0.932 . S
C99 C100 1.384 . S
C99 C101 1.479 . S
C99 H117 0.929 . S
C100 C97 1.424 . S
C100 C99 1.384 . S
C100 H118 0.928 . S
C101 C98 1.260 . S
C101 C99 1.479 . S
C102 C97 1.245 . S
C102 C98 1.477 . S
C102 H119 0.932 . S
C103 U86 2.882 . S
C103 C97 1.428 . S
C103 O106 1.301 . S
C103 O107 1.282 . S
O104 U86 2.441 . S
O104 C90 1.249 . S
O105 U86 2.420 . S
O105 C90 1.202 . S
O106 U86 2.455 . S
O106 C103 1.301 . S
O107 U86 2.449 . S
O107 C103 1.282 . S
H108 C81 0.931 . S
H109 C83 0.929 . S
H110 C84 0.930 . S
H111 C85 0.931 . S
H112 C92 0.932 . S
H113 C93 0.930 . S
H114 C94 0.929 . S
H115 C96 0.930 . S
H116 C98 0.932 . S
H117 C99 0.929 . S
H118 C100 0.928 . S
H119 C102 0.932 . S
C120 C121 1.264 . S
C120 C125 1.479 . S
C120 C130 1.465 . S
C121 C120 1.264 . S
C121 C123 1.339 . S
C121 H148 0.931 . S
C122 C123 1.395 . S
C122 C124 1.320 . S
C123 C121 1.339 . S
C123 C122 1.395 . S
C123 H149 0.929 . S
C124 C122 1.320 . S
C124 C125 1.405 . S
C124 H150 0.930 . S
C125 C120 1.479 . S
C125 C124 1.405 . S
C125 H151 0.931 . S
U126 O127 2.454 . S
U126 O128 2.458 . S
U126 C129 2.984 . S
U126 C130 2.847 . S
U126 C143 2.882 . S
U126 O144 2.441 . S
U126 O145 2.420 . S
U126 O146 2.455 . S
U126 O147 2.449 . S
O127 U126 2.454 . S
O127 C129 1.353 . S
O128 U126 2.458 . S
O128 C129 1.286 . S
C129 U126 2.984 . S
C129 O127 1.353 . S
C129 O128 1.286 . S
C129 C131 1.363 . S
C130 C120 1.465 . S
C130 U126 2.847 . S
C130 O144 1.249 . S
C130 O145 1.202 . S
C131 C129 1.363 . S
C131 C133 1.408 . S
C131 C136 1.342 . S
C132 C133 1.310 . S
C132 C135 1.461 . S
C132 H152 0.932 . S
C133 C131 1.408 . S
C133 C132 1.310 . S
C133 H153 0.930 . S
C134 C135 1.474 . S
C134 C136 1.285 . S
C134 H154 0.929 . S
C135 C132 1.461 . S
C135 C134 1.474 . S
C136 C131 1.342 . S
C136 C134 1.285 . S
C136 H155 0.930 . S
C137 C140 1.424 . S
C137 C142 1.245 . S
C137 C143 1.428 . S
C138 C141 1.260 . S
C138 C142 1.477 . S
C138 H156 0.932 . S
C139 C140 1.384 . S
C139 C141 1.479 . S
C139 H157 0.929 . S
C140 C137 1.424 . S
C140 C139 1.384 . S
C140 H158 0.928 . S
C141 C138 1.260 . S
C141 C139 1.479 . S
C142 C137 1.245 . S
C142 C138 1.477 . S
C142 H159 0.932 . S
C143 U126 2.882 . S
C143 C137 1.428 . S
C143 O146 1.301 . S
C143 O147 1.282 . S
O144 U126 2.441 . S
O144 C130 1.249 . S
O145 U126 2.420 . S
O145 C130 1.202 . S
O146 U126 2.455 . S
O146 C143 1.301 . S
O147 U126 2.449 . S
O147 C143 1.282 . S
H148 C121 0.931 . S
H149 C123 0.929 . S
H150 C124 0.930 . S
H151 C125 0.931 . S
H152 C132 0.932 . S
H153 C133 0.930 . S
H154 C134 0.929 . S
H155 C136 0.930 . S
H156 C138 0.932 . S
H157 C139 0.929 . S
H158 C140 0.928 . S
H159 C142 0.932 . S
C160 C161 1.264 . S
C160 C165 1.479 . S
C160 C170 1.465 . S
C161 C160 1.264 . S
C161 C163 1.339 . S
C161 H188 0.931 . S
C162 C163 1.395 . S
C162 C164 1.320 . S
C163 C161 1.339 . S
C163 C162 1.395 . S
C163 H189 0.929 . S
C164 C162 1.320 . S
C164 C165 1.405 . S
C164 H190 0.930 . S
C165 C160 1.479 . S
C165 C164 1.405 . S
C165 H191 0.931 . S
U166 O167 2.454 . S
U166 O168 2.458 . S
U166 C169 2.984 . S
U166 C170 2.847 . S
U166 C183 2.882 . S
U166 O184 2.441 . S
U166 O185 2.420 . S
U166 O186 2.455 . S
U166 O187 2.449 . S
O167 U166 2.454 . S
O167 C169 1.353 . S
O168 U166 2.458 . S
O168 C169 1.286 . S
C169 U166 2.984 . S
C169 O167 1.353 . S
C169 O168 1.286 . S
C169 C171 1.363 . S
C170 C160 1.465 . S
C170 U166 2.847 . S
C170 O184 1.249 . S
C170 O185 1.202 . S
C171 C169 1.363 . S
C171 C173 1.408 . S
C171 C176 1.342 . S
C172 C173 1.310 . S
C172 C175 1.461 . S
C172 H192 0.932 . S
C173 C171 1.408 . S
C173 C172 1.310 . S
C173 H193 0.930 . S
C174 C175 1.474 . S
C174 C176 1.285 . S
C174 H194 0.929 . S
C175 C172 1.461 . S
C175 C174 1.474 . S
C176 C171 1.342 . S
C176 C174 1.285 . S
C176 H195 0.930 . S
C177 C180 1.424 . S
C177 C182 1.245 . S
C177 C183 1.428 . S
C178 C181 1.260 . S
C178 C182 1.477 . S
C178 H196 0.932 . S
C179 C180 1.384 . S
C179 C181 1.479 . S
C179 H197 0.929 . S
C180 C177 1.424 . S
C180 C179 1.384 . S
C180 H198 0.928 . S
C181 C178 1.260 . S
C181 C179 1.479 . S
C182 C177 1.245 . S
C182 C178 1.477 . S
C182 H199 0.932 . S
C183 U166 2.882 . S
C183 C177 1.428 . S
C183 O186 1.301 . S
C183 O187 1.282 . S
O184 U166 2.441 . S
O184 C170 1.249 . S
O185 U166 2.420 . S
O185 C170 1.202 . S
O186 U166 2.455 . S
O186 C183 1.301 . S
O187 U166 2.449 . S
O187 C183 1.282 . S
H188 C161 0.931 . S
H189 C163 0.929 . S
H190 C164 0.930 . S
H191 C165 0.931 . S
H192 C172 0.932 . S
H193 C173 0.930 . S
H194 C174 0.929 . S
H195 C176 0.930 . S
H196 C178 0.932 . S
H197 C179 0.929 . S
H198 C180 0.928 . S
H199 C182 0.932 . S
C200 C201 1.264 . S
C200 C205 1.479 . S
C200 C210 1.465 . S
C201 C200 1.264 . S
C201 C203 1.339 . S
C201 H228 0.931 . S
C202 C203 1.395 . S
C202 C204 1.320 . S
C203 C201 1.339 . S
C203 C202 1.395 . S
C203 H229 0.929 . S
C204 C202 1.320 . S
C204 C205 1.405 . S
C204 H230 0.930 . S
C205 C200 1.479 . S
C205 C204 1.405 . S
C205 H231 0.931 . S
U206 O207 2.454 . S
U206 O208 2.458 . S
U206 C209 2.984 . S
U206 C210 2.847 . S
U206 C223 2.882 . S
U206 O224 2.441 . S
U206 O225 2.420 . S
U206 O226 2.455 . S
U206 O227 2.449 . S
O207 U206 2.454 . S
O207 C209 1.353 . S
O208 U206 2.458 . S
O208 C209 1.286 . S
C209 U206 2.984 . S
C209 O207 1.353 . S
C209 O208 1.286 . S
C209 C211 1.363 . S
C210 C200 1.465 . S
C210 U206 2.847 . S
C210 O224 1.249 . S
C210 O225 1.202 . S
C211 C209 1.363 . S
C211 C213 1.408 . S
C211 C216 1.342 . S
C212 C213 1.310 . S
C212 C215 1.461 . S
C212 H232 0.932 . S
C213 C211 1.408 . S
C213 C212 1.310 . S
C213 H233 0.930 . S
C214 C215 1.474 . S
C214 C216 1.285 . S
C214 H234 0.929 . S
C215 C212 1.461 . S
C215 C214 1.474 . S
C216 C211 1.342 . S
C216 C214 1.285 . S
C216 H235 0.930 . S
C217 C220 1.424 . S
C217 C222 1.245 . S
C217 C223 1.428 . S
C218 C221 1.260 . S
C218 C222 1.477 . S
C218 H236 0.932 . S
C219 C220 1.384 . S
C219 C221 1.479 . S
C219 H237 0.929 . S
C220 C217 1.424 . S
C220 C219 1.384 . S
C220 H238 0.928 . S
C221 C218 1.260 . S
C221 C219 1.479 . S
C222 C217 1.245 . S
C222 C218 1.477 . S
C222 H239 0.932 . S
C223 U206 2.882 . S
C223 C217 1.428 . S
C223 O226 1.301 . S
C223 O227 1.282 . S
O224 U206 2.441 . S
O224 C210 1.249 . S
O225 U206 2.420 . S
O225 C210 1.202 . S
O226 U206 2.455 . S
O226 C223 1.301 . S
O227 U206 2.449 . S
O227 C223 1.282 . S
H228 C201 0.931 . S
H229 C203 0.929 . S
H230 C204 0.930 . S
H231 C205 0.931 . S
H232 C212 0.932 . S
H233 C213 0.930 . S
H234 C214 0.929 . S
H235 C216 0.930 . S
H236 C218 0.932 . S
H237 C219 0.929 . S
H238 C220 0.928 . S
H239 C222 0.932 . S
C240 C241 1.264 . S
C240 C245 1.479 . S
C240 C250 1.465 . S
C241 C240 1.264 . S
C241 C243 1.339 . S
C241 H268 0.931 . S
C242 C243 1.395 . S
C242 C244 1.320 . S
C243 C241 1.339 . S
C243 C242 1.395 . S
C243 H269 0.929 . S
C244 C242 1.320 . S
C244 C245 1.405 . S
C244 H270 0.930 . S
C245 C240 1.479 . S
C245 C244 1.405 . S
C245 H271 0.931 . S
U246 O247 2.454 . S
U246 O248 2.458 . S
U246 C249 2.984 . S
U246 C250 2.847 . S
U246 C263 2.882 . S
U246 O264 2.441 . S
U246 O265 2.420 . S
U246 O266 2.455 . S
U246 O267 2.449 . S
O247 U246 2.454 . S
O247 C249 1.353 . S
O248 U246 2.458 . S
O248 C249 1.286 . S
C249 U246 2.984 . S
C249 O247 1.353 . S
C249 O248 1.286 . S
C249 C251 1.363 . S
C250 C240 1.465 . S
C250 U246 2.847 . S
C250 O264 1.249 . S
C250 O265 1.202 . S
C251 C249 1.363 . S
C251 C253 1.408 . S
C251 C256 1.342 . S
C252 C253 1.310 . S
C252 C255 1.461 . S
C252 H272 0.932 . S
C253 C251 1.408 . S
C253 C252 1.310 . S
C253 H273 0.930 . S
C254 C255 1.474 . S
C254 C256 1.285 . S
C254 H274 0.929 . S
C255 C252 1.461 . S
C255 C254 1.474 . S
C256 C251 1.342 . S
C256 C254 1.285 . S
C256 H275 0.930 . S
C257 C260 1.424 . S
C257 C262 1.245 . S
C257 C263 1.428 . S
C258 C261 1.260 . S
C258 C262 1.477 . S
C258 H276 0.932 . S
C259 C260 1.384 . S
C259 C261 1.479 . S
C259 H277 0.929 . S
C260 C257 1.424 . S
C260 C259 1.384 . S
C260 H278 0.928 . S
C261 C258 1.260 . S
C261 C259 1.479 . S
C262 C257 1.245 . S
C262 C258 1.477 . S
C262 H279 0.932 . S
C263 U246 2.882 . S
C263 C257 1.428 . S
C263 O266 1.301 . S
C263 O267 1.282 . S
O264 U246 2.441 . S
O264 C250 1.249 . S
O265 U246 2.420 . S
O265 C250 1.202 . S
O266 U246 2.455 . S
O266 C263 1.301 . S
O267 U246 2.449 . S
O267 C263 1.282 . S
H268 C241 0.931 . S
H269 C243 0.929 . S
H270 C244 0.930 . S
H271 C245 0.931 . S
H272 C252 0.932 . S
H273 C253 0.930 . S
H274 C254 0.929 . S
H275 C256 0.930 . S
H276 C258 0.932 . S
H277 C259 0.929 . S
H278 C260 0.928 . S
H279 C262 0.932 . S
C280 C281 1.264 . S
C280 C285 1.479 . S
C280 C290 1.465 . S
C281 C280 1.264 . S
C281 C283 1.339 . S
C281 H308 0.931 . S
C282 C283 1.395 . S
C282 C284 1.320 . S
C283 C281 1.339 . S
C283 C282 1.395 . S
C283 H309 0.929 . S
C284 C282 1.320 . S
C284 C285 1.405 . S
C284 H310 0.930 . S
C285 C280 1.479 . S
C285 C284 1.405 . S
C285 H311 0.931 . S
U286 O287 2.454 . S
U286 O288 2.458 . S
U286 C289 2.984 . S
U286 C290 2.847 . S
U286 C303 2.882 . S
U286 O304 2.441 . S
U286 O305 2.420 . S
U286 O306 2.455 . S
U286 O307 2.449 . S
O287 U286 2.454 . S
O287 C289 1.353 . S
O288 U286 2.458 . S
O288 C289 1.286 . S
C289 U286 2.984 . S
C289 O287 1.353 . S
C289 O288 1.286 . S
C289 C291 1.363 . S
C290 C280 1.465 . S
C290 U286 2.847 . S
C290 O304 1.249 . S
C290 O305 1.202 . S
C291 C289 1.363 . S
C291 C293 1.408 . S
C291 C296 1.342 . S
C292 C293 1.310 . S
C292 C295 1.461 . S
C292 H312 0.932 . S
C293 C291 1.408 . S
C293 C292 1.310 . S
C293 H313 0.930 . S
C294 C295 1.474 . S
C294 C296 1.285 . S
C294 H314 0.929 . S
C295 C292 1.461 . S
C295 C294 1.474 . S
C296 C291 1.342 . S
C296 C294 1.285 . S
C296 H315 0.930 . S
C297 C300 1.424 . S
C297 C302 1.245 . S
C297 C303 1.428 . S
C298 C301 1.260 . S
C298 C302 1.477 . S
C298 H316 0.932 . S
C299 C300 1.384 . S
C299 C301 1.479 . S
C299 H317 0.929 . S
C300 C297 1.424 . S
C300 C299 1.384 . S
C300 H318 0.928 . S
C301 C298 1.260 . S
C301 C299 1.479 . S
C302 C297 1.245 . S
C302 C298 1.477 . S
C302 H319 0.932 . S
C303 U286 2.882 . S
C303 C297 1.428 . S
C303 O306 1.301 . S
C303 O307 1.282 . S
O304 U286 2.441 . S
O304 C290 1.249 . S
O305 U286 2.420 . S
O305 C290 1.202 . S
O306 U286 2.455 . S
O306 C303 1.301 . S
O307 U286 2.449 . S
O307 C303 1.282 . S
H308 C281 0.931 . S
H309 C283 0.929 . S
H310 C284 0.930 . S
H311 C285 0.931 . S
H312 C292 0.932 . S
H313 C293 0.930 . S
H314 C294 0.929 . S
H315 C296 0.930 . S
H316 C298 0.932 . S
H317 C299 0.929 . S
H318 C300 0.928 . S
H319 C302 0.932 . S
C320 C321 1.264 . S
C320 C325 1.479 . S
C320 C330 1.465 . S
C321 C320 1.264 . S
C321 C323 1.339 . S
C321 H348 0.931 . S
C322 C323 1.395 . S
C322 C324 1.320 . S
C323 C321 1.339 . S
C323 C322 1.395 . S
C323 H349 0.929 . S
C324 C322 1.320 . S
C324 C325 1.405 . S
C324 H350 0.930 . S
C325 C320 1.479 . S
C325 C324 1.405 . S
C325 H351 0.931 . S
U326 O327 2.454 . S
U326 O328 2.458 . S
U326 C329 2.984 . S
U326 C330 2.847 . S
U326 C343 2.882 . S
U326 O344 2.441 . S
U326 O345 2.420 . S
U326 O346 2.455 . S
U326 O347 2.449 . S
O327 U326 2.454 . S
O327 C329 1.353 . S
O328 U326 2.458 . S
O328 C329 1.286 . S
C329 U326 2.984 . S
C329 O327 1.353 . S
C329 O328 1.286 . S
C329 C331 1.363 . S
C330 C320 1.465 . S
C330 U326 2.847 . S
C330 O344 1.249 . S
C330 O345 1.202 . S
C331 C329 1.363 . S
C331 C333 1.408 . S
C331 C336 1.342 . S
C332 C333 1.310 . S
C332 C335 1.461 . S
C332 H352 0.932 . S
C333 C331 1.408 . S
C333 C332 1.310 . S
C333 H353 0.930 . S
C334 C335 1.474 . S
C334 C336 1.285 . S
C334 H354 0.929 . S
C335 C332 1.461 . S
C335 C334 1.474 . S
C336 C331 1.342 . S
C336 C334 1.285 . S
C336 H355 0.930 . S
C337 C340 1.424 . S
C337 C342 1.245 . S
C337 C343 1.428 . S
C338 C341 1.260 . S
C338 C342 1.477 . S
C338 H356 0.932 . S
C339 C340 1.384 . S
C339 C341 1.479 . S
C339 H357 0.929 . S
C340 C337 1.424 . S
C340 C339 1.384 . S
C340 H358 0.928 . S
C341 C338 1.260 . S
C341 C339 1.479 . S
C342 C337 1.245 . S
C342 C338 1.477 . S
C342 H359 0.932 . S
C343 U326 2.882 . S
C343 C337 1.428 . S
C343 O346 1.301 . S
C343 O347 1.282 . S
O344 U326 2.441 . S
O344 C330 1.249 . S
O345 U326 2.420 . S
O345 C330 1.202 . S
O346 U326 2.455 . S
O346 C343 1.301 . S
O347 U326 2.449 . S
O347 C343 1.282 . S
H348 C321 0.931 . S
H349 C323 0.929 . S
H350 C324 0.930 . S
H351 C325 0.931 . S
H352 C332 0.932 . S
H353 C333 0.930 . S
H354 C334 0.929 . S
H355 C336 0.930 . S
H356 C338 0.932 . S
H357 C339 0.929 . S
H358 C340 0.928 . S
H359 C342 0.932 . S
C360 C361 1.264 . S
C360 C365 1.479 . S
C360 C370 1.465 . S
C361 C360 1.264 . S
C361 C363 1.339 . S
C361 H388 0.931 . S
C362 C363 1.395 . S
C362 C364 1.320 . S
C363 C361 1.339 . S
C363 C362 1.395 . S
C363 H389 0.929 . S
C364 C362 1.320 . S
C364 C365 1.405 . S
C364 H390 0.930 . S
C365 C360 1.479 . S
C365 C364 1.405 . S
C365 H391 0.931 . S
U366 O367 2.454 . S
U366 O368 2.458 . S
U366 C369 2.984 . S
U366 C370 2.847 . S
U366 C383 2.882 . S
U366 O384 2.441 . S
U366 O385 2.420 . S
U366 O386 2.455 . S
U366 O387 2.449 . S
O367 U366 2.454 . S
O367 C369 1.353 . S
O368 U366 2.458 . S
O368 C369 1.286 . S
C369 U366 2.984 . S
C369 O367 1.353 . S
C369 O368 1.286 . S
C369 C371 1.363 . S
C370 C360 1.465 . S
C370 U366 2.847 . S
C370 O384 1.249 . S
C370 O385 1.202 . S
C371 C369 1.363 . S
C371 C373 1.408 . S
C371 C376 1.342 . S
C372 C373 1.310 . S
C372 C375 1.461 . S
C372 H392 0.932 . S
C373 C371 1.408 . S
C373 C372 1.310 . S
C373 H393 0.930 . S
C374 C375 1.474 . S
C374 C376 1.285 . S
C374 H394 0.929 . S
C375 C372 1.461 . S
C375 C374 1.474 . S
C376 C371 1.342 . S
C376 C374 1.285 . S
C376 H395 0.930 . S
C377 C380 1.424 . S
C377 C382 1.245 . S
C377 C383 1.428 . S
C378 C381 1.260 . S
C378 C382 1.477 . S
C378 H396 0.932 . S
C379 C380 1.384 . S
C379 C381 1.479 . S
C379 H397 0.929 . S
C380 C377 1.424 . S
C380 C379 1.384 . S
C380 H398 0.928 . S
C381 C378 1.260 . S
C381 C379 1.479 . S
C382 C377 1.245 . S
C382 C378 1.477 . S
C382 H399 0.932 . S
C383 U366 2.882 . S
C383 C377 1.428 . S
C383 O386 1.301 . S
C383 O387 1.282 . S
O384 U366 2.441 . S
O384 C370 1.249 . S
O385 U366 2.420 . S
O385 C370 1.202 . S
O386 U366 2.455 . S
O386 C383 1.301 . S
O387 U366 2.449 . S
O387 C383 1.282 . S
H388 C361 0.931 . S
H389 C363 0.929 . S
H390 C364 0.930 . S
H391 C365 0.931 . S
H392 C372 0.932 . S
H393 C373 0.930 . S
H394 C374 0.929 . S
H395 C376 0.930 . S
H396 C378 0.932 . S
H397 C379 0.929 . S
H398 C380 0.928 . S
H399 C382 0.932 . S
C400 C401 1.264 . S
C400 C405 1.479 . S
C400 C410 1.465 . S
C401 C400 1.264 . S
C401 C403 1.339 . S
C401 H428 0.931 . S
C402 C403 1.395 . S
C402 C404 1.320 . S
C403 C401 1.339 . S
C403 C402 1.395 . S
C403 H429 0.929 . S
C404 C402 1.320 . S
C404 C405 1.405 . S
C404 H430 0.930 . S
C405 C400 1.479 . S
C405 C404 1.405 . S
C405 H431 0.931 . S
U406 O407 2.454 . S
U406 O408 2.458 . S
U406 C409 2.984 . S
U406 C410 2.847 . S
U406 C423 2.882 . S
U406 O424 2.441 . S
U406 O425 2.420 . S
U406 O426 2.455 . S
U406 O427 2.449 . S
O407 U406 2.454 . S
O407 C409 1.353 . S
O408 U406 2.458 . S
O408 C409 1.286 . S
C409 U406 2.984 . S
C409 O407 1.353 . S
C409 O408 1.286 . S
C409 C411 1.363 . S
C410 C400 1.465 . S
C410 U406 2.847 . S
C410 O424 1.249 . S
C410 O425 1.202 . S
C411 C409 1.363 . S
C411 C413 1.408 . S
C411 C416 1.342 . S
C412 C413 1.310 . S
C412 C415 1.461 . S
C412 H432 0.932 . S
C413 C411 1.408 . S
C413 C412 1.310 . S
C413 H433 0.930 . S
C414 C415 1.474 . S
C414 C416 1.285 . S
C414 H434 0.929 . S
C415 C412 1.461 . S
C415 C414 1.474 . S
C416 C411 1.342 . S
C416 C414 1.285 . S
C416 H435 0.930 . S
C417 C420 1.424 . S
C417 C422 1.245 . S
C417 C423 1.428 . S
C418 C421 1.260 . S
C418 C422 1.477 . S
C418 H436 0.932 . S
C419 C420 1.384 . S
C419 C421 1.479 . S
C419 H437 0.929 . S
C420 C417 1.424 . S
C420 C419 1.384 . S
C420 H438 0.928 . S
C421 C418 1.260 . S
C421 C419 1.479 . S
C422 C417 1.245 . S
C422 C418 1.477 . S
C422 H439 0.932 . S
C423 U406 2.882 . S
C423 C417 1.428 . S
C423 O426 1.301 . S
C423 O427 1.282 . S
O424 U406 2.441 . S
O424 C410 1.249 . S
O425 U406 2.420 . S
O425 C410 1.202 . S
O426 U406 2.455 . S
O426 C423 1.301 . S
O427 U406 2.449 . S
O427 C423 1.282 . S
H428 C401 0.931 . S
H429 C403 0.929 . S
H430 C404 0.930 . S
H431 C405 0.931 . S
H432 C412 0.932 . S
H433 C413 0.930 . S
H434 C414 0.929 . S
H435 C416 0.930 . S
H436 C418 0.932 . S
H437 C419 0.929 . S
H438 C420 0.928 . S
H439 C422 0.932 . S
C440 C441 1.264 . S
C440 C445 1.479 . S
C440 C450 1.465 . S
C441 C440 1.264 . S
C441 C443 1.339 . S
C441 H468 0.931 . S
C442 C443 1.395 . S
C442 C444 1.320 . S
C443 C441 1.339 . S
C443 C442 1.395 . S
C443 H469 0.929 . S
C444 C442 1.320 . S
C444 C445 1.405 . S
C444 H470 0.930 . S
C445 C440 1.479 . S
C445 C444 1.405 . S
C445 H471 0.931 . S
U446 O447 2.454 . S
U446 O448 2.458 . S
U446 C449 2.984 . S
U446 C450 2.847 . S
U446 C463 2.882 . S
U446 O464 2.441 . S
U446 O465 2.420 . S
U446 O466 2.455 . S
U446 O467 2.449 . S
O447 U446 2.454 . S
O447 C449 1.353 . S
O448 U446 2.458 . S
O448 C449 1.286 . S
C449 U446 2.984 . S
C449 O447 1.353 . S
C449 O448 1.286 . S
C449 C451 1.363 . S
C450 C440 1.465 . S
C450 U446 2.847 . S
C450 O464 1.249 . S
C450 O465 1.202 . S
C451 C449 1.363 . S
C451 C453 1.408 . S
C451 C456 1.342 . S
C452 C453 1.310 . S
C452 C455 1.461 . S
C452 H472 0.932 . S
C453 C451 1.408 . S
C453 C452 1.310 . S
C453 H473 0.930 . S
C454 C455 1.474 . S
C454 C456 1.285 . S
C454 H474 0.929 . S
C455 C452 1.461 . S
C455 C454 1.474 . S
C456 C451 1.342 . S
C456 C454 1.285 . S
C456 H475 0.930 . S
C457 C460 1.424 . S
C457 C462 1.245 . S
C457 C463 1.428 . S
C458 C461 1.260 . S
C458 C462 1.477 . S
C458 H476 0.932 . S
C459 C460 1.384 . S
C459 C461 1.479 . S
C459 H477 0.929 . S
C460 C457 1.424 . S
C460 C459 1.384 . S
C460 H478 0.928 . S
C461 C458 1.260 . S
C461 C459 1.479 . S
C462 C457 1.245 . S
C462 C458 1.477 . S
C462 H479 0.932 . S
C463 U446 2.882 . S
C463 C457 1.428 . S
C463 O466 1.301 . S
C463 O467 1.282 . S
O464 U446 2.441 . S
O464 C450 1.249 . S
O465 U446 2.420 . S
O465 C450 1.202 . S
O466 U446 2.455 . S
O466 C463 1.301 . S
O467 U446 2.449 . S
O467 C463 1.282 . S
H468 C441 0.931 . S
H469 C443 0.929 . S
H470 C444 0.930 . S
H471 C445 0.931 . S
H472 C452 0.932 . S
H473 C453 0.930 . S
H474 C454 0.929 . S
H475 C456 0.930 . S
H476 C458 0.932 . S
H477 C459 0.929 . S
H478 C460 0.928 . S
H479 C462 0.932 . S
C480 C481 1.264 . S
C480 C485 1.479 . S
C480 C490 1.465 . S
C481 C480 1.264 . S
C481 C483 1.339 . S
C481 H508 0.931 . S
C482 C483 1.395 . S
C482 C484 1.320 . S
C483 C481 1.339 . S
C483 C482 1.395 . S
C483 H509 0.929 . S
C484 C482 1.320 . S
C484 C485 1.405 . S
C484 H510 0.930 . S
C485 C480 1.479 . S
C485 C484 1.405 . S
C485 H511 0.931 . S
U486 O487 2.454 . S
U486 O488 2.458 . S
U486 C489 2.984 . S
U486 C490 2.847 . S
U486 C503 2.882 . S
U486 O504 2.441 . S
U486 O505 2.420 . S
U486 O506 2.455 . S
U486 O507 2.449 . S
O487 U486 2.454 . S
O487 C489 1.353 . S
O488 U486 2.458 . S
O488 C489 1.286 . S
C489 U486 2.984 . S
C489 O487 1.353 . S
C489 O488 1.286 . S
C489 C491 1.363 . S
C490 C480 1.465 . S
C490 U486 2.847 . S
C490 O504 1.249 . S
C490 O505 1.202 . S
C491 C489 1.363 . S
C491 C493 1.408 . S
C491 C496 1.342 . S
C492 C493 1.310 . S
C492 C495 1.461 . S
C492 H512 0.932 . S
C493 C491 1.408 . S
C493 C492 1.310 . S
C493 H513 0.930 . S
C494 C495 1.474 . S
C494 C496 1.285 . S
C494 H514 0.929 . S
C495 C492 1.461 . S
C495 C494 1.474 . S
C496 C491 1.342 . S
C496 C494 1.285 . S
C496 H515 0.930 . S
C497 C500 1.424 . S
C497 C502 1.245 . S
C497 C503 1.428 . S
C498 C501 1.260 . S
C498 C502 1.477 . S
C498 H516 0.932 . S
C499 C500 1.384 . S
C499 C501 1.479 . S
C499 H517 0.929 . S
C500 C497 1.424 . S
C500 C499 1.384 . S
C500 H518 0.928 . S
C501 C498 1.260 . S
C501 C499 1.479 . S
C502 C497 1.245 . S
C502 C498 1.477 . S
C502 H519 0.932 . S
C503 U486 2.882 . S
C503 C497 1.428 . S
C503 O506 1.301 . S
C503 O507 1.282 . S
O504 U486 2.441 . S
O504 C490 1.249 . S
O505 U486 2.420 . S
O505 C490 1.202 . S
O506 U486 2.455 . S
O506 C503 1.301 . S
O507 U486 2.449 . S
O507 C503 1.282 . S
H508 C481 0.931 . S
H509 C483 0.929 . S
H510 C484 0.930 . S
H511 C485 0.931 . S
H512 C492 0.932 . S
H513 C493 0.930 . S
H514 C494 0.929 . S
H515 C496 0.930 . S
H516 C498 0.932 . S
H517 C499 0.929 . S
H518 C500 0.928 . S
H519 C502 0.932 . S
C520 C521 1.264 . S
C520 C525 1.479 . S
C520 C530 1.465 . S
C521 C520 1.264 . S
C521 C523 1.339 . S
C521 H548 0.931 . S
C522 C523 1.395 . S
C522 C524 1.320 . S
C523 C521 1.339 . S
C523 C522 1.395 . S
C523 H549 0.929 . S
C524 C522 1.320 . S
C524 C525 1.405 . S
C524 H550 0.930 . S
C525 C520 1.479 . S
C525 C524 1.405 . S
C525 H551 0.931 . S
U526 O527 2.454 . S
U526 O528 2.458 . S
U526 C529 2.984 . S
U526 C530 2.847 . S
U526 C543 2.882 . S
U526 O544 2.441 . S
U526 O545 2.420 . S
U526 O546 2.455 . S
U526 O547 2.449 . S
O527 U526 2.454 . S
O527 C529 1.353 . S
O528 U526 2.458 . S
O528 C529 1.286 . S
C529 U526 2.984 . S
C529 O527 1.353 . S
C529 O528 1.286 . S
C529 C531 1.363 . S
C530 C520 1.465 . S
C530 U526 2.847 . S
C530 O544 1.249 . S
C530 O545 1.202 . S
C531 C529 1.363 . S
C531 C533 1.408 . S
C531 C536 1.342 . S
C532 C533 1.310 . S
C532 C535 1.461 . S
C532 H552 0.932 . S
C533 C531 1.408 . S
C533 C532 1.310 . S
C533 H553 0.930 . S
C534 C535 1.474 . S
C534 C536 1.285 . S
C534 H554 0.929 . S
C535 C532 1.461 . S
C535 C534 1.474 . S
C536 C531 1.342 . S
C536 C534 1.285 . S
C536 H555 0.930 . S
C537 C540 1.424 . S
C537 C542 1.245 . S
C537 C543 1.428 . S
C538 C541 1.260 . S
C538 C542 1.477 . S
C538 H556 0.932 . S
C539 C540 1.384 . S
C539 C541 1.479 . S
C539 H557 0.929 . S
C540 C537 1.424 . S
C540 C539 1.384 . S
C540 H558 0.928 . S
C541 C538 1.260 . S
C541 C539 1.479 . S
C542 C537 1.245 . S
C542 C538 1.477 . S
C542 H559 0.932 . S
C543 U526 2.882 . S
C543 C537 1.428 . S
C543 O546 1.301 . S
C543 O547 1.282 . S
O544 U526 2.441 . S
O544 C530 1.249 . S
O545 U526 2.420 . S
O545 C530 1.202 . S
O546 U526 2.455 . S
O546 C543 1.301 . S
O547 U526 2.449 . S
O547 C543 1.282 . S
H548 C521 0.931 . S
H549 C523 0.929 . S
H550 C524 0.930 . S
H551 C525 0.931 . S
H552 C532 0.932 . S
H553 C533 0.930 . S
H554 C534 0.929 . S
H555 C536 0.930 . S
H556 C538 0.932 . S
H557 C539 0.929 . S
H558 C540 0.928 . S
H559 C542 0.932 . S
C560 C561 1.264 . S
C560 C565 1.479 . S
C560 C570 1.465 . S
C561 C560 1.264 . S
C561 C563 1.339 . S
C561 H588 0.931 . S
C562 C563 1.395 . S
C562 C564 1.320 . S
C563 C561 1.339 . S
C563 C562 1.395 . S
C563 H589 0.929 . S
C564 C562 1.320 . S
C564 C565 1.405 . S
C564 H590 0.930 . S
C565 C560 1.479 . S
C565 C564 1.405 . S
C565 H591 0.931 . S
U566 O567 2.454 . S
U566 O568 2.458 . S
U566 C569 2.984 . S
U566 C570 2.847 . S
U566 C583 2.882 . S
U566 O584 2.441 . S
U566 O585 2.420 . S
U566 O586 2.455 . S
U566 O587 2.449 . S
O567 U566 2.454 . S
O567 C569 1.353 . S
O568 U566 2.458 . S
O568 C569 1.286 . S
C569 U566 2.984 . S
C569 O567 1.353 . S
C569 O568 1.286 . S
C569 C571 1.363 . S
C570 C560 1.465 . S
C570 U566 2.847 . S
C570 O584 1.249 . S
C570 O585 1.202 . S
C571 C569 1.363 . S
C571 C573 1.408 . S
C571 C576 1.342 . S
C572 C573 1.310 . S
C572 C575 1.461 . S
C572 H592 0.932 . S
C573 C571 1.408 . S
C573 C572 1.310 . S
C573 H593 0.930 . S
C574 C575 1.474 . S
C574 C576 1.285 . S
C574 H594 0.929 . S
C575 C572 1.461 . S
C575 C574 1.474 . S
C576 C571 1.342 . S
C576 C574 1.285 . S
C576 H595 0.930 . S
C577 C580 1.424 . S
C577 C582 1.245 . S
C577 C583 1.428 . S
C578 C581 1.260 . S
C578 C582 1.477 . S
C578 H596 0.932 . S
C579 C580 1.384 . S
C579 C581 1.479 . S
C579 H597 0.929 . S
C580 C577 1.424 . S
C580 C579 1.384 . S
C580 H598 0.928 . S
C581 C578 1.260 . S
C581 C579 1.479 . S
C582 C577 1.245 . S
C582 C578 1.477 . S
C582 H599 0.932 . S
C583 U566 2.882 . S
C583 C577 1.428 . S
C583 O586 1.301 . S
C583 O587 1.282 . S
O584 U566 2.441 . S
O584 C570 1.249 . S
O585 U566 2.420 . S
O585 C570 1.202 . S
O586 U566 2.455 . S
O586 C583 1.301 . S
O587 U566 2.449 . S
O587 C583 1.282 . S
H588 C561 0.931 . S
H589 C563 0.929 . S
H590 C564 0.930 . S
H591 C565 0.931 . S
H592 C572 0.932 . S
H593 C573 0.930 . S
H594 C574 0.929 . S
H595 C576 0.930 . S
H596 C578 0.932 . S
H597 C579 0.929 . S
H598 C580 0.928 . S
H599 C582 0.932 . S
C600 C601 1.264 . S
C600 C605 1.479 . S
C600 C610 1.465 . S
C601 C600 1.264 . S
C601 C603 1.339 . S
C601 H628 0.931 . S
C602 C603 1.395 . S
C602 C604 1.320 . S
C603 C601 1.339 . S
C603 C602 1.395 . S
C603 H629 0.929 . S
C604 C602 1.320 . S
C604 C605 1.405 . S
C604 H630 0.930 . S
C605 C600 1.479 . S
C605 C604 1.405 . S
C605 H631 0.931 . S
U606 O607 2.454 . S
U606 O608 2.458 . S
U606 C609 2.984 . S
U606 C610 2.847 . S
U606 C623 2.882 . S
U606 O624 2.441 . S
U606 O625 2.420 . S
U606 O626 2.455 . S
U606 O627 2.449 . S
O607 U606 2.454 . S
O607 C609 1.353 . S
O608 U606 2.458 . S
O608 C609 1.286 . S
C609 U606 2.984 . S
C609 O607 1.353 . S
C609 O608 1.286 . S
C609 C611 1.363 . S
C610 C600 1.465 . S
C610 U606 2.847 . S
C610 O624 1.249 . S
C610 O625 1.202 . S
C611 C609 1.363 . S
C611 C613 1.408 . S
C611 C616 1.342 . S
C612 C613 1.310 . S
C612 C615 1.461 . S
C612 H632 0.932 . S
C613 C611 1.408 . S
C613 C612 1.310 . S
C613 H633 0.930 . S
C614 C615 1.474 . S
C614 C616 1.285 . S
C614 H634 0.929 . S
C615 C612 1.461 . S
C615 C614 1.474 . S
C616 C611 1.342 . S
C616 C614 1.285 . S
C616 H635 0.930 . S
C617 C620 1.424 . S
C617 C622 1.245 . S
C617 C623 1.428 . S
C618 C621 1.260 . S
C618 C622 1.477 . S
C618 H636 0.932 . S
C619 C620 1.384 . S
C619 C621 1.479 . S
C619 H637 0.929 . S
C620 C617 1.424 . S
C620 C619 1.384 . S
C620 H638 0.928 . S
C621 C618 1.260 . S
C621 C619 1.479 . S
C622 C617 1.245 . S
C622 C618 1.477 . S
C622 H639 0.932 . S
C623 U606 2.882 . S
C623 C617 1.428 . S
C623 O626 1.301 . S
C623 O627 1.282 . S
O624 U606 2.441 . S
O624 C610 1.249 . S
O625 U606 2.420 . S
O625 C610 1.202 . S
O626 U606 2.455 . S
O626 C623 1.301 . S
O627 U606 2.449 . S
O627 C623 1.282 . S
H628 C601 0.931 . S
H629 C603 0.929 . S
H630 C604 0.930 . S
H631 C605 0.931 . S
H632 C612 0.932 . S
H633 C613 0.930 . S
H634 C614 0.929 . S
H635 C616 0.930 . S
H636 C618 0.932 . S
H637 C619 0.929 . S
H638 C620 0.928 . S
H639 C622 0.932 . S
C640 C641 1.264 . S
C640 C645 1.479 . S
C640 C650 1.465 . S
C641 C640 1.264 . S
C641 C643 1.339 . S
C641 H668 0.931 . S
C642 C643 1.395 . S
C642 C644 1.320 . S
C643 C641 1.339 . S
C643 C642 1.395 . S
C643 H669 0.929 . S
C644 C642 1.320 . S
C644 C645 1.405 . S
C644 H670 0.930 . S
C645 C640 1.479 . S
C645 C644 1.405 . S
C645 H671 0.931 . S
U646 O647 2.454 . S
U646 O648 2.458 . S
U646 C649 2.984 . S
U646 C650 2.847 . S
U646 C663 2.882 . S
U646 O664 2.441 . S
U646 O665 2.420 . S
U646 O666 2.455 . S
U646 O667 2.449 . S
O647 U646 2.454 . S
O647 C649 1.353 . S
O648 U646 2.458 . S
O648 C649 1.286 . S
C649 U646 2.984 . S
C649 O647 1.353 . S
C649 O648 1.286 . S
C649 C651 1.363 . S
C650 C640 1.465 . S
C650 U646 2.847 . S
C650 O664 1.249 . S
C650 O665 1.202 . S
C651 C649 1.363 . S
C651 C653 1.408 . S
C651 C656 1.342 . S
C652 C653 1.310 . S
C652 C655 1.461 . S
C652 H672 0.932 . S
C653 C651 1.408 . S
C653 C652 1.310 . S
C653 H673 0.930 . S
C654 C655 1.474 . S
C654 C656 1.285 . S
C654 H674 0.929 . S
C655 C652 1.461 . S
C655 C654 1.474 . S
C656 C651 1.342 . S
C656 C654 1.285 . S
C656 H675 0.930 . S
C657 C660 1.424 . S
C657 C662 1.245 . S
C657 C663 1.428 . S
C658 C661 1.260 . S
C658 C662 1.477 . S
C658 H676 0.932 . S
C659 C660 1.384 . S
C659 C661 1.479 . S
C659 H677 0.929 . S
C660 C657 1.424 . S
C660 C659 1.384 . S
C660 H678 0.928 . S
C661 C658 1.260 . S
C661 C659 1.479 . S
C662 C657 1.245 . S
C662 C658 1.477 . S
C662 H679 0.932 . S
C663 U646 2.882 . S
C663 C657 1.428 . S
C663 O666 1.301 . S
C663 O667 1.282 . S
O664 U646 2.441 . S
O664 C650 1.249 . S
O665 U646 2.420 . S
O665 C650 1.202 . S
O666 U646 2.455 . S
O666 C663 1.301 . S
O667 U646 2.449 . S
O667 C663 1.282 . S
H668 C641 0.931 . S
H669 C643 0.929 . S
H670 C644 0.930 . S
H671 C645 0.931 . S
H672 C652 0.932 . S
H673 C653 0.930 . S
H674 C654 0.929 . S
H675 C656 0.930 . S
H676 C658 0.932 . S
H677 C659 0.929 . S
H678 C660 0.928 . S
H679 C662 0.932 . S
C680 C681 1.264 . S
C680 C685 1.479 . S
C680 C690 1.465 . S
C681 C680 1.264 . S
C681 C683 1.339 . S
C681 H708 0.931 . S
C682 C683 1.395 . S
C682 C684 1.320 . S
C683 C681 1.339 . S
C683 C682 1.395 . S
C683 H709 0.929 . S
C684 C682 1.320 . S
C684 C685 1.405 . S
C684 H710 0.930 . S
C685 C680 1.479 . S
C685 C684 1.405 . S
C685 H711 0.931 . S
U686 O687 2.454 . S
U686 O688 2.458 . S
U686 C689 2.984 . S
U686 C690 2.847 . S
U686 C703 2.882 . S
U686 O704 2.441 . S
U686 O705 2.420 . S
U686 O706 2.455 . S
U686 O707 2.449 . S
O687 U686 2.454 . S
O687 C689 1.353 . S
O688 U686 2.458 . S
O688 C689 1.286 . S
C689 U686 2.984 . S
C689 O687 1.353 . S
C689 O688 1.286 . S
C689 C691 1.363 . S
C690 C680 1.465 . S
C690 U686 2.847 . S
C690 O704 1.249 . S
C690 O705 1.202 . S
C691 C689 1.363 . S
C691 C693 1.408 . S
C691 C696 1.342 . S
C692 C693 1.310 . S
C692 C695 1.461 . S
C692 H712 0.932 . S
C693 C691 1.408 . S
C693 C692 1.310 . S
C693 H713 0.930 . S
C694 C695 1.474 . S
C694 C696 1.285 . S
C694 H714 0.929 . S
C695 C692 1.461 . S
C695 C694 1.474 . S
C696 C691 1.342 . S
C696 C694 1.285 . S
C696 H715 0.930 . S
C697 C700 1.424 . S
C697 C702 1.245 . S
C697 C703 1.428 . S
C698 C701 1.260 . S
C698 C702 1.477 . S
C698 H716 0.932 . S
C699 C700 1.384 . S
C699 C701 1.479 . S
C699 H717 0.929 . S
C700 C697 1.424 . S
C700 C699 1.384 . S
C700 H718 0.928 . S
C701 C698 1.260 . S
C701 C699 1.479 . S
C702 C697 1.245 . S
C702 C698 1.477 . S
C702 H719 0.932 . S
C703 U686 2.882 . S
C703 C697 1.428 . S
C703 O706 1.301 . S
C703 O707 1.282 . S
O704 U686 2.441 . S
O704 C690 1.249 . S
O705 U686 2.420 . S
O705 C690 1.202 . S
O706 U686 2.455 . S
O706 C703 1.301 . S
O707 U686 2.449 . S
O707 C703 1.282 . S
H708 C681 0.931 . S
H709 C683 0.929 . S
H710 C684 0.930 . S
H711 C685 0.931 . S
H712 C692 0.932 . S
H713 C693 0.930 . S
H714 C694 0.929 . S
H715 C696 0.930 . S
H716 C698 0.932 . S
H717 C699 0.929 . S
H718 C700 0.928 . S
H719 C702 0.932 . S
C720 C721 1.264 . S
C720 C725 1.479 . S
C720 C730 1.465 . S
C721 C720 1.264 . S
C721 C723 1.339 . S
C721 H748 0.931 . S
C722 C723 1.395 . S
C722 C724 1.320 . S
C723 C721 1.339 . S
C723 C722 1.395 . S
C723 H749 0.929 . S
C724 C722 1.320 . S
C724 C725 1.405 . S
C724 H750 0.930 . S
C725 C720 1.479 . S
C725 C724 1.405 . S
C725 H751 0.931 . S
U726 O727 2.454 . S
U726 O728 2.458 . S
U726 C729 2.984 . S
U726 C730 2.847 . S
U726 C743 2.882 . S
U726 O744 2.441 . S
U726 O745 2.420 . S
U726 O746 2.455 . S
U726 O747 2.449 . S
O727 U726 2.454 . S
O727 C729 1.353 . S
O728 U726 2.458 . S
O728 C729 1.286 . S
C729 U726 2.984 . S
C729 O727 1.353 . S
C729 O728 1.286 . S
C729 C731 1.363 . S
C730 C720 1.465 . S
C730 U726 2.847 . S
C730 O744 1.249 . S
C730 O745 1.202 . S
C731 C729 1.363 . S
C731 C733 1.408 . S
C731 C736 1.342 . S
C732 C733 1.310 . S
C732 C735 1.461 . S
C732 H752 0.932 . S
C733 C731 1.408 . S
C733 C732 1.310 . S
C733 H753 0.930 . S
C734 C735 1.474 . S
C734 C736 1.285 . S
C734 H754 0.929 . S
C735 C732 1.461 . S
C735 C734 1.474 . S
C736 C731 1.342 . S
C736 C734 1.285 . S
C736 H755 0.930 . S
C737 C740 1.424 . S
C737 C742 1.245 . S
C737 C743 1.428 . S
C738 C741 1.260 . S
C738 C742 1.477 . S
C738 H756 0.932 . S
C739 C740 1.384 . S
C739 C741 1.479 . S
C739 H757 0.929 . S
C740 C737 1.424 . S
C740 C739 1.384 . S
C740 H758 0.928 . S
C741 C738 1.260 . S
C741 C739 1.479 . S
C742 C737 1.245 . S
C742 C738 1.477 . S
C742 H759 0.932 . S
C743 U726 2.882 . S
C743 C737 1.428 . S
C743 O746 1.301 . S
C743 O747 1.282 . S
O744 U726 2.441 . S
O744 C730 1.249 . S
O745 U726 2.420 . S
O745 C730 1.202 . S
O746 U726 2.455 . S
O746 C743 1.301 . S
O747 U726 2.449 . S
O747 C743 1.282 . S
H748 C721 0.931 . S
H749 C723 0.929 . S
H750 C724 0.930 . S
H751 C725 0.931 . S
H752 C732 0.932 . S
H753 C733 0.930 . S
H754 C734 0.929 . S
H755 C736 0.930 . S
H756 C738 0.932 . S
H757 C739 0.929 . S
H758 C740 0.928 . S
H759 C742 0.932 . S
C760 C761 1.264 . S
C760 C765 1.479 . S
C760 C770 1.465 . S
C761 C760 1.264 . S
C761 C763 1.339 . S
C761 H788 0.931 . S
C762 C763 1.395 . S
C762 C764 1.320 . S
C763 C761 1.339 . S
C763 C762 1.395 . S
C763 H789 0.929 . S
C764 C762 1.320 . S
C764 C765 1.405 . S
C764 H790 0.930 . S
C765 C760 1.479 . S
C765 C764 1.405 . S
C765 H791 0.931 . S
U766 O767 2.454 . S
U766 O768 2.458 . S
U766 C769 2.984 . S
U766 C770 2.847 . S
U766 C783 2.882 . S
U766 O784 2.441 . S
U766 O785 2.420 . S
U766 O786 2.455 . S
U766 O787 2.449 . S
O767 U766 2.454 . S
O767 C769 1.353 . S
O768 U766 2.458 . S
O768 C769 1.286 . S
C769 U766 2.984 . S
C769 O767 1.353 . S
C769 O768 1.286 . S
C769 C771 1.363 . S
C770 C760 1.465 . S
C770 U766 2.847 . S
C770 O784 1.249 . S
C770 O785 1.202 . S
C771 C769 1.363 . S
C771 C773 1.408 . S
C771 C776 1.342 . S
C772 C773 1.310 . S
C772 C775 1.461 . S
C772 H792 0.932 . S
C773 C771 1.408 . S
C773 C772 1.310 . S
C773 H793 0.930 . S
C774 C775 1.474 . S
C774 C776 1.285 . S
C774 H794 0.929 . S
C775 C772 1.461 . S
C775 C774 1.474 . S
C776 C771 1.342 . S
C776 C774 1.285 . S
C776 H795 0.930 . S
C777 C780 1.424 . S
C777 C782 1.245 . S
C777 C783 1.428 . S
C778 C781 1.260 . S
C778 C782 1.477 . S
C778 H796 0.932 . S
C779 C780 1.384 . S
C779 C781 1.479 . S
C779 H797 0.929 . S
C780 C777 1.424 . S
C780 C779 1.384 . S
C780 H798 0.928 . S
C781 C778 1.260 . S
C781 C779 1.479 . S
C782 C777 1.245 . S
C782 C778 1.477 . S
C782 H799 0.932 . S
C783 U766 2.882 . S
C783 C777 1.428 . S
C783 O786 1.301 . S
C783 O787 1.282 . S
O784 U766 2.441 . S
O784 C770 1.249 . S
O785 U766 2.420 . S
O785 C770 1.202 . S
O786 U766 2.455 . S
O786 C783 1.301 . S
O787 U766 2.449 . S
O787 C783 1.282 . S
H788 C761 0.931 . S
H789 C763 0.929 . S
H790 C764 0.930 . S
H791 C765 0.931 . S
H792 C772 0.932 . S
H793 C773 0.930 . S
H794 C774 0.929 . S
H795 C776 0.930 . S
H796 C778 0.932 . S
H797 C779 0.929 . S
H798 C780 0.928 . S
H799 C782 0.932 . S
C800 C801 1.264 . S
C800 C805 1.479 . S
C800 C810 1.465 . S
C801 C800 1.264 . S
C801 C803 1.339 . S
C801 H828 0.931 . S
C802 C803 1.395 . S
C802 C804 1.320 . S
C803 C801 1.339 . S
C803 C802 1.395 . S
C803 H829 0.929 . S
C804 C802 1.320 . S
C804 C805 1.405 . S
C804 H830 0.930 . S
C805 C800 1.479 . S
C805 C804 1.405 . S
C805 H831 0.931 . S
U806 O807 2.454 . S
U806 O808 2.458 . S
U806 C809 2.984 . S
U806 C810 2.847 . S
U806 C823 2.882 . S
U806 O824 2.441 . S
U806 O825 2.420 . S
U806 O826 2.455 . S
U806 O827 2.449 . S
O807 U806 2.454 . S
O807 C809 1.353 . S
O808 U806 2.458 . S
O808 C809 1.286 . S
C809 U806 2.984 . S
C809 O807 1.353 . S
C809 O808 1.286 . S
C809 C811 1.363 . S
C810 C800 1.465 . S
C810 U806 2.847 . S
C810 O824 1.249 . S
C810 O825 1.202 . S
C811 C809 1.363 . S
C811 C813 1.408 . S
C811 C816 1.342 . S
C812 C813 1.310 . S
C812 C815 1.461 . S
C812 H832 0.932 . S
C813 C811 1.408 . S
C813 C812 1.310 . S
C813 H833 0.930 . S
C814 C815 1.474 . S
C814 C816 1.285 . S
C814 H834 0.929 . S
C815 C812 1.461 . S
C815 C814 1.474 . S
C816 C811 1.342 . S
C816 C814 1.285 . S
C816 H835 0.930 . S
C817 C820 1.424 . S
C817 C822 1.245 . S
C817 C823 1.428 . S
C818 C821 1.260 . S
C818 C822 1.477 . S
C818 H836 0.932 . S
C819 C820 1.384 . S
C819 C821 1.479 . S
C819 H837 0.929 . S
C820 C817 1.424 . S
C820 C819 1.384 . S
C820 H838 0.928 . S
C821 C818 1.260 . S
C821 C819 1.479 . S
C822 C817 1.245 . S
C822 C818 1.477 . S
C822 H839 0.932 . S
C823 U806 2.882 . S
C823 C817 1.428 . S
C823 O826 1.301 . S
C823 O827 1.282 . S
O824 U806 2.441 . S
O824 C810 1.249 . S
O825 U806 2.420 . S
O825 C810 1.202 . S
O826 U806 2.455 . S
O826 C823 1.301 . S
O827 U806 2.449 . S
O827 C823 1.282 . S
H828 C801 0.931 . S
H829 C803 0.929 . S
H830 C804 0.930 . S
H831 C805 0.931 . S
H832 C812 0.932 . S
H833 C813 0.930 . S
H834 C814 0.929 . S
H835 C816 0.930 . S
H836 C818 0.932 . S
H837 C819 0.929 . S
H838 C820 0.928 . S
H839 C822 0.932 . S
C840 C841 1.264 . S
C840 C845 1.479 . S
C840 C850 1.465 . S
C841 C840 1.264 . S
C841 C843 1.339 . S
C841 H868 0.931 . S
C842 C843 1.395 . S
C842 C844 1.320 . S
C843 C841 1.339 . S
C843 C842 1.395 . S
C843 H869 0.929 . S
C844 C842 1.320 . S
C844 C845 1.405 . S
C844 H870 0.930 . S
C845 C840 1.479 . S
C845 C844 1.405 . S
C845 H871 0.931 . S
U846 O847 2.454 . S
U846 O848 2.458 . S
U846 C849 2.984 . S
U846 C850 2.847 . S
U846 C863 2.882 . S
U846 O864 2.441 . S
U846 O865 2.420 . S
U846 O866 2.455 . S
U846 O867 2.449 . S
O847 U846 2.454 . S
O847 C849 1.353 . S
O848 U846 2.458 . S
O848 C849 1.286 . S
C849 U846 2.984 . S
C849 O847 1.353 . S
C849 O848 1.286 . S
C849 C851 1.363 . S
C850 C840 1.465 . S
C850 U846 2.847 . S
C850 O864 1.249 . S
C850 O865 1.202 . S
C851 C849 1.363 . S
C851 C853 1.408 . S
C851 C856 1.342 . S
C852 C853 1.310 . S
C852 C855 1.461 . S
C852 H872 0.932 . S
C853 C851 1.408 . S
C853 C852 1.310 . S
C853 H873 0.930 . S
C854 C855 1.474 . S
C854 C856 1.285 . S
C854 H874 0.929 . S
C855 C852 1.461 . S
C855 C854 1.474 . S
C856 C851 1.342 . S
C856 C854 1.285 . S
C856 H875 0.930 . S
C857 C860 1.424 . S
C857 C862 1.245 . S
C857 C863 1.428 . S
C858 C861 1.260 . S
C858 C862 1.477 . S
C858 H876 0.932 . S
C859 C860 1.384 . S
C859 C861 1.479 . S
C859 H877 0.929 . S
C860 C857 1.424 . S
C860 C859 1.384 . S
C860 H878 0.928 . S
C861 C858 1.260 . S
C861 C859 1.479 . S
C862 C857 1.245 . S
C862 C858 1.477 . S
C862 H879 0.932 . S
C863 U846 2.882 . S
C863 C857 1.428 . S
C863 O866 1.301 . S
C863 O867 1.282 . S
O864 U846 2.441 . S
O864 C850 1.249 . S
O865 U846 2.420 . S
O865 C850 1.202 . S
O866 U846 2.455 . S
O866 C863 1.301 . S
O867 U846 2.449 . S
O867 C863 1.282 . S
H868 C841 0.931 . S
H869 C843 0.929 . S
H870 C844 0.930 . S
H871 C845 0.931 . S
H872 C852 0.932 . S
H873 C853 0.930 . S
H874 C854 0.929 . S
H875 C856 0.930 . S
H876 C858 0.932 . S
H877 C859 0.929 . S
H878 C860 0.928 . S
H879 C862 0.932 . S
C880 C881 1.264 . S
C880 C885 1.479 . S
C880 C890 1.465 . S
C881 C880 1.264 . S
C881 C883 1.339 . S
C881 H908 0.931 . S
C882 C883 1.395 . S
C882 C884 1.320 . S
C883 C881 1.339 . S
C883 C882 1.395 . S
C883 H909 0.929 . S
C884 C882 1.320 . S
C884 C885 1.405 . S
C884 H910 0.930 . S
C885 C880 1.479 . S
C885 C884 1.405 . S
C885 H911 0.931 . S
U886 O887 2.454 . S
U886 O888 2.458 . S
U886 C889 2.984 . S
U886 C890 2.847 . S
U886 C903 2.882 . S
U886 O904 2.441 . S
U886 O905 2.420 . S
U886 O906 2.455 . S
U886 O907 2.449 . S
O887 U886 2.454 . S
O887 C889 1.353 . S
O888 U886 2.458 . S
O888 C889 1.286 . S
C889 U886 2.984 . S
C889 O887 1.353 . S
C889 O888 1.286 . S
C889 C891 1.363 . S
C890 C880 1.465 . S
C890 U886 2.847 . S
C890 O904 1.249 . S
C890 O905 1.202 . S
C891 C889 1.363 . S
C891 C893 1.408 . S
C891 C896 1.342 . S
C892 C893 1.310 . S
C892 C895 1.461 . S
C892 H912 0.932 . S
C893 C891 1.408 . S
C893 C892 1.310 . S
C893 H913 0.930 . S
C894 C895 1.474 . S
C894 C896 1.285 . S
C894 H914 0.929 . S
C895 C892 1.461 . S
C895 C894 1.474 . S
C896 C891 1.342 . S
C896 C894 1.285 . S
C896 H915 0.930 . S
C897 C900 1.424 . S
C897 C902 1.245 . S
C897 C903 1.428 . S
C898 C901 1.260 . S
C898 C902 1.477 . S
C898 H916 0.932 . S
C899 C900 1.384 . S
C899 C901 1.479 . S
C899 H917 0.929 . S
C900 C897 1.424 . S
C900 C899 1.384 . S
C900 H918 0.928 . S
C901 C898 1.260 . S
C901 C899 1.479 . S
C902 C897 1.245 . S
C902 C898 1.477 . S
C902 H919 0.932 . S
C903 U886 2.882 . S
C903 C897 1.428 . S
C903 O906 1.301 . S
C903 O907 1.282 . S
O904 U886 2.441 . S
O904 C890 1.249 . S
O905 U886 2.420 . S
O905 C890 1.202 . S
O906 U886 2.455 . S
O906 C903 1.301 . S
O907 U886 2.449 . S
O907 C903 1.282 . S
H908 C881 0.931 . S
H909 C883 0.929 . S
H910 C884 0.930 . S
H911 C885 0.931 . S
H912 C892 0.932 . S
H913 C893 0.930 . S
H914 C894 0.929 . S
H915 C896 0.930 . S
H916 C898 0.932 . S
H917 C899 0.929 . S
H918 C900 0.928 . S
H919 C902 0.932 . S
C920 C921 1.264 . S
C920 C925 1.479 . S
C920 C930 1.465 . S
C921 C920 1.264 . S
C921 C923 1.339 . S
C921 H948 0.931 . S
C922 C923 1.395 . S
C922 C924 1.320 . S
C923 C921 1.339 . S
C923 C922 1.395 . S
C923 H949 0.929 . S
C924 C922 1.320 . S
C924 C925 1.405 . S
C924 H950 0.930 . S
C925 C920 1.479 . S
C925 C924 1.405 . S
C925 H951 0.931 . S
U926 O927 2.454 . S
U926 O928 2.458 . S
U926 C929 2.984 . S
U926 C930 2.847 . S
U926 C943 2.882 . S
U926 O944 2.441 . S
U926 O945 2.420 . S
U926 O946 2.455 . S
U926 O947 2.449 . S
O927 U926 2.454 . S
O927 C929 1.353 . S
O928 U926 2.458 . S
O928 C929 1.286 . S
C929 U926 2.984 . S
C929 O927 1.353 . S
C929 O928 1.286 . S
C929 C931 1.363 . S
C930 C920 1.465 . S
C930 U926 2.847 . S
C930 O944 1.249 . S
C930 O945 1.202 . S
C931 C929 1.363 . S
C931 C933 1.408 . S
C931 C936 1.342 . S
C932 C933 1.310 . S
C932 C935 1.461 . S
C932 H952 0.932 . S
C933 C931 1.408 . S
C933 C932 1.310 . S
C933 H953 0.930 . S
C934 C935 1.474 . S
C934 C936 1.285 . S
C934 H954 0.929 . S
C935 C932 1.461 . S
C935 C934 1.474 . S
C936 C931 1.342 . S
C936 C934 1.285 . S
C936 H955 0.930 . S
C937 C940 1.424 . S
C937 C942 1.245 . S
C937 C943 1.428 . S
C938 C941 1.260 . S
C938 C942 1.477 . S
C938 H956 0.932 . S
C939 C940 1.384 . S
C939 C941 1.479 . S
C939 H957 0.929 . S
C940 C937 1.424 . S
C940 C939 1.384 . S
C940 H958 0.928 . S
C941 C938 1.260 . S
C941 C939 1.479 . S
C942 C937 1.245 . S
C942 C938 1.477 . S
C942 H959 0.932 . S
C943 U926 2.882 . S
C943 C937 1.428 . S
C943 O946 1.301 . S
C943 O947 1.282 . S
O944 U926 2.441 . S
O944 C930 1.249 . S
O945 U926 2.420 . S
O945 C930 1.202 . S
O946 U926 2.455 . S
O946 C943 1.301 . S
O947 U926 2.449 . S
O947 C943 1.282 . S
H948 C921 0.931 . S
H949 C923 0.929 . S
H950 C924 0.930 . S
H951 C925 0.931 . S
H952 C932 0.932 . S
H953 C933 0.930 . S
H954 C934 0.929 . S
H955 C936 0.930 . S
H956 C938 0.932 . S
H957 C939 0.929 . S
H958 C940 0.928 . S
H959 C942 0.932 . S
C960 C961 1.264 . S
C960 C965 1.479 . S
C960 C970 1.465 . S
C961 C960 1.264 . S
C961 C963 1.339 . S
C961 H988 0.931 . S
C962 C963 1.395 . S
C962 C964 1.320 . S
C963 C961 1.339 . S
C963 C962 1.395 . S
C963 H989 0.929 . S
C964 C962 1.320 . S
C964 C965 1.405 . S
C964 H990 0.930 . S
C965 C960 1.479 . S
C965 C964 1.405 . S
C965 H991 0.931 . S
U966 O967 2.454 . S
U966 O968 2.458 . S
U966 C969 2.984 . S
U966 C970 2.847 . S
U966 C983 2.882 . S
U966 O984 2.441 . S
U966 O985 2.420 . S
U966 O986 2.455 . S
U966 O987 2.449 . S
O967 U966 2.454 . S
O967 C969 1.353 . S
O968 U966 2.458 . S
O968 C969 1.286 . S
C969 U966 2.984 . S
C969 O967 1.353 . S
C969 O968 1.286 . S
C969 C971 1.363 . S
C970 C960 1.465 . S
C970 U966 2.847 . S
C970 O984 1.249 . S
C970 O985 1.202 . S
C971 C969 1.363 . S
C971 C973 1.408 . S
C971 C976 1.342 . S
C972 C973 1.310 . S
C972 C975 1.461 . S
C972 H992 0.932 . S
C973 C971 1.408 . S
C973 C972 1.310 . S
C973 H993 0.930 . S
C974 C975 1.474 . S
C974 C976 1.285 . S
C974 H994 0.929 . S
C975 C972 1.461 . S
C975 C974 1.474 . S
C976 C971 1.342 . S
C976 C974 1.285 . S
C976 H995 0.930 . S
C977 C980 1.424 . S
C977 C982 1.245 . S
C977 C983 1.428 . S
C978 C981 1.260 . S
C978 C982 1.477 . S
C978 H996 0.932 . S
C979 C980 1.384 . S
C979 C981 1.479 . S
C979 H997 0.929 . S
C980 C977 1.424 . S
C980 C979 1.384 . S
C980 H998 0.928 . S
C981 C978 1.260 . S
C981 C979 1.479 . S
C982 C977 1.245 . S
C982 C978 1.477 . S
C982 H999 0.932 . S
C983 U966 2.882 . S
C983 C977 1.428 . S
C983 O986 1.301 . S
C983 O987 1.282 . S
O984 U966 2.441 . S
O984 C970 1.249 . S
O985 U966 2.420 . S
O985 C970 1.202 . S
O986 U966 2.455 . S
O986 C983 1.301 . S
O987 U966 2.449 . S
O987 C983 1.282 . S
H988 C961 0.931 . S
H989 C963 0.929 . S
H990 C964 0.930 . S
H991 C965 0.931 . S
H992 C972 0.932 . S
H993 C973 0.930 . S
H994 C974 0.929 . S
H995 C976 0.930 . S
H996 C978 0.932 . S
H997 C979 0.929 . S
H998 C980 0.928 . S
H999 C982 0.932 . S
C1000 C1001 1.264 . S
C1000 C1005 1.479 . S
C1000 C1010 1.465 . S
C1001 C1000 1.264 . S
C1001 C1003 1.339 . S
C1001 H1028 0.931 . S
C1002 C1003 1.395 . S
C1002 C1004 1.320 . S
C1003 C1001 1.339 . S
C1003 C1002 1.395 . S
C1003 H1029 0.929 . S
C1004 C1002 1.320 . S
C1004 C1005 1.405 . S
C1004 H1030 0.930 . S
C1005 C1000 1.479 . S
C1005 C1004 1.405 . S
C1005 H1031 0.931 . S
U1006 O1007 2.454 . S
U1006 O1008 2.458 . S
U1006 C1009 2.984 . S
U1006 C1010 2.847 . S
U1006 C1023 2.882 . S
U1006 O1024 2.441 . S
U1006 O1025 2.420 . S
U1006 O1026 2.455 . S
U1006 O1027 2.449 . S
O1007 U1006 2.454 . S
O1007 C1009 1.353 . S
O1008 U1006 2.458 . S
O1008 C1009 1.286 . S
C1009 U1006 2.984 . S
C1009 O1007 1.353 . S
C1009 O1008 1.286 . S
C1009 C1011 1.363 . S
C1010 C1000 1.465 . S
C1010 U1006 2.847 . S
C1010 O1024 1.249 . S
C1010 O1025 1.202 . S
C1011 C1009 1.363 . S
C1011 C1013 1.408 . S
C1011 C1016 1.342 . S
C1012 C1013 1.310 . S
C1012 C1015 1.461 . S
C1012 H1032 0.932 . S
C1013 C1011 1.408 . S
C1013 C1012 1.310 . S
C1013 H1033 0.930 . S
C1014 C1015 1.474 . S
C1014 C1016 1.285 . S
C1014 H1034 0.929 . S
C1015 C1012 1.461 . S
C1015 C1014 1.474 . S
C1016 C1011 1.342 . S
C1016 C1014 1.285 . S
C1016 H1035 0.930 . S
C1017 C1020 1.424 . S
C1017 C1022 1.245 . S
C1017 C1023 1.428 . S
C1018 C1021 1.260 . S
C1018 C1022 1.477 . S
C1018 H1036 0.932 . S
C1019 C1020 1.384 . S
C1019 C1021 1.479 . S
C1019 H1037 0.929 . S
C1020 C1017 1.424 . S
C1020 C1019 1.384 . S
C1020 H1038 0.928 . S
C1021 C1018 1.260 . S
C1021 C1019 1.479 . S
C1022 C1017 1.245 . S
C1022 C1018 1.477 . S
C1022 H1039 0.932 . S
C1023 U1006 2.882 . S
C1023 C1017 1.428 . S
C1023 O1026 1.301 . S
C1023 O1027 1.282 . S
O1024 U1006 2.441 . S
O1024 C1010 1.249 . S
O1025 U1006 2.420 . S
O1025 C1010 1.202 . S
O1026 U1006 2.455 . S
O1026 C1023 1.301 . S
O1027 U1006 2.449 . S
O1027 C1023 1.282 . S
H1028 C1001 0.931 . S
H1029 C1003 0.929 . S
H1030 C1004 0.930 . S
H1031 C1005 0.931 . S
H1032 C1012 0.932 . S
H1033 C1013 0.930 . S
H1034 C1014 0.929 . S
H1035 C1016 0.930 . S
H1036 C1018 0.932 . S
H1037 C1019 0.929 . S
H1038 C1020 0.928 . S
H1039 C1022 0.932 . S
C1040 C1041 1.264 . S
C1040 C1045 1.479 . S
C1040 C1050 1.465 . S
C1041 C1040 1.264 . S
C1041 C1043 1.339 . S
C1041 H1068 0.931 . S
C1042 C1043 1.395 . S
C1042 C1044 1.320 . S
C1043 C1041 1.339 . S
C1043 C1042 1.395 . S
C1043 H1069 0.929 . S
C1044 C1042 1.320 . S
C1044 C1045 1.405 . S
C1044 H1070 0.930 . S
C1045 C1040 1.479 . S
C1045 C1044 1.405 . S
C1045 H1071 0.931 . S
U1046 O1047 2.454 . S
U1046 O1048 2.458 . S
U1046 C1049 2.984 . S
U1046 C1050 2.847 . S
U1046 C1063 2.882 . S
U1046 O1064 2.441 . S
U1046 O1065 2.420 . S
U1046 O1066 2.455 . S
U1046 O1067 2.449 . S
O1047 U1046 2.454 . S
O1047 C1049 1.353 . S
O1048 U1046 2.458 . S
O1048 C1049 1.286 . S
C1049 U1046 2.984 . S
C1049 O1047 1.353 . S
C1049 O1048 1.286 . S
C1049 C1051 1.363 . S
C1050 C1040 1.465 . S
C1050 U1046 2.847 . S
C1050 O1064 1.249 . S
C1050 O1065 1.202 . S
C1051 C1049 1.363 . S
C1051 C1053 1.408 . S
C1051 C1056 1.342 . S
C1052 C1053 1.310 . S
C1052 C1055 1.461 . S
C1052 H1072 0.932 . S
C1053 C1051 1.408 . S
C1053 C1052 1.310 . S
C1053 H1073 0.930 . S
C1054 C1055 1.474 . S
C1054 C1056 1.285 . S
C1054 H1074 0.929 . S
C1055 C1052 1.461 . S
C1055 C1054 1.474 . S
C1056 C1051 1.342 . S
C1056 C1054 1.285 . S
C1056 H1075 0.930 . S
C1057 C1060 1.424 . S
C1057 C1062 1.245 . S
C1057 C1063 1.428 . S
C1058 C1061 1.260 . S
C1058 C1062 1.477 . S
C1058 H1076 0.932 . S
C1059 C1060 1.384 . S
C1059 C1061 1.479 . S
C1059 H1077 0.929 . S
C1060 C1057 1.424 . S
C1060 C1059 1.384 . S
C1060 H1078 0.928 . S
C1061 C1058 1.260 . S
C1061 C1059 1.479 . S
C1062 C1057 1.245 . S
C1062 C1058 1.477 . S
C1062 H1079 0.932 . S
C1063 U1046 2.882 . S
C1063 C1057 1.428 . S
C1063 O1066 1.301 . S
C1063 O1067 1.282 . S
O1064 U1046 2.441 . S
O1064 C1050 1.249 . S
O1065 U1046 2.420 . S
O1065 C1050 1.202 . S
O1066 U1046 2.455 . S
O1066 C1063 1.301 . S
O1067 U1046 2.449 . S
O1067 C1063 1.282 . S
H1068 C1041 0.931 . S
H1069 C1043 0.929 . S
H1070 C1044 0.930 . S
H1071 C1045 0.931 . S
H1072 C1052 0.932 . S
H1073 C1053 0.930 . S
H1074 C1054 0.929 . S
H1075 C1056 0.930 . S
H1076 C1058 0.932 . S
H1077 C1059 0.929 . S
H1078 C1060 0.928 . S
H1079 C1062 0.932 . S
C1080 C1081 1.264 . S
C1080 C1085 1.479 . S
C1080 C1090 1.465 . S
C1081 C1080 1.264 . S
C1081 C1083 1.339 . S
C1081 H1108 0.931 . S
C1082 C1083 1.395 . S
C1082 C1084 1.320 . S
C1083 C1081 1.339 . S
C1083 C1082 1.395 . S
C1083 H1109 0.929 . S
C1084 C1082 1.320 . S
C1084 C1085 1.405 . S
C1084 H1110 0.930 . S
C1085 C1080 1.479 . S
C1085 C1084 1.405 . S
C1085 H1111 0.931 . S
U1086 O1087 2.454 . S
U1086 O1088 2.458 . S
U1086 C1089 2.984 . S
U1086 C1090 2.847 . S
U1086 C1103 2.882 . S
U1086 O1104 2.441 . S
U1086 O1105 2.420 . S
U1086 O1106 2.455 . S
U1086 O1107 2.449 . S
O1087 U1086 2.454 . S
O1087 C1089 1.353 . S
O1088 U1086 2.458 . S
O1088 C1089 1.286 . S
C1089 U1086 2.984 . S
C1089 O1087 1.353 . S
C1089 O1088 1.286 . S
C1089 C1091 1.363 . S
C1090 C1080 1.465 . S
C1090 U1086 2.847 . S
C1090 O1104 1.249 . S
C1090 O1105 1.202 . S
C1091 C1089 1.363 . S
C1091 C1093 1.408 . S
C1091 C1096 1.342 . S
C1092 C1093 1.310 . S
C1092 C1095 1.461 . S
C1092 H1112 0.932 . S
C1093 C1091 1.408 . S
C1093 C1092 1.310 . S
C1093 H1113 0.930 . S
C1094 C1095 1.474 . S
C1094 C1096 1.285 . S
C1094 H1114 0.929 . S
C1095 C1092 1.461 . S
C1095 C1094 1.474 . S
C1096 C1091 1.342 . S
C1096 C1094 1.285 . S
C1096 H1115 0.930 . S
C1097 C1100 1.424 . S
C1097 C1102 1.245 . S
C1097 C1103 1.428 . S
C1098 C1101 1.260 . S
C1098 C1102 1.477 . S
C1098 H1116 0.932 . S
C1099 C1100 1.384 . S
C1099 C1101 1.479 . S
C1099 H1117 0.929 . S
C1100 C1097 1.424 . S
C1100 C1099 1.384 . S
C1100 H1118 0.928 . S
C1101 C1098 1.260 . S
C1101 C1099 1.479 . S
C1102 C1097 1.245 . S
C1102 C1098 1.477 . S
C1102 H1119 0.932 . S
C1103 U1086 2.882 . S
C1103 C1097 1.428 . S
C1103 O1106 1.301 . S
C1103 O1107 1.282 . S
O1104 U1086 2.441 . S
O1104 C1090 1.249 . S
O1105 U1086 2.420 . S
O1105 C1090 1.202 . S
O1106 U1086 2.455 . S
O1106 C1103 1.301 . S
O1107 U1086 2.449 . S
O1107 C1103 1.282 . S
H1108 C1081 0.931 . S
H1109 C1083 0.929 . S
H1110 C1084 0.930 . S
H1111 C1085 0.931 . S
H1112 C1092 0.932 . S
H1113 C1093 0.930 . S
H1114 C1094 0.929 . S
H1115 C1096 0.930 . S
H1116 C1098 0.932 . S
H1117 C1099 0.929 . S
H1118 C1100 0.928 . S
H1119 C1102 0.932 . S
C1120 C1121 1.264 . S
C1120 C1125 1.479 . S
C1120 C1130 1.465 . S
C1121 C1120 1.264 . S
C1121 C1123 1.339 . S
C1121 H1148 0.931 . S
C1122 C1123 1.395 . S
C1122 C1124 1.320 . S
C1123 C1121 1.339 . S
C1123 C1122 1.395 . S
C1123 H1149 0.929 . S
C1124 C1122 1.320 . S
C1124 C1125 1.405 . S
C1124 H1150 0.930 . S
C1125 C1120 1.479 . S
C1125 C1124 1.405 . S
C1125 H1151 0.931 . S
U1126 O1127 2.454 . S
U1126 O1128 2.458 . S
U1126 C1129 2.984 . S
U1126 C1130 2.847 . S
U1126 C1143 2.882 . S
U1126 O1144 2.441 . S
U1126 O1145 2.420 . S
U1126 O1146 2.455 . S
U1126 O1147 2.449 . S
O1127 U1126 2.454 . S
O1127 C1129 1.353 . S
O1128 U1126 2.458 . S
O1128 C1129 1.286 . S
C1129 U1126 2.984 . S
C1129 O1127 1.353 . S
C1129 O1128 1.286 . S
C1129 C1131 1.363 . S
C1130 C1120 1.465 . S
C1130 U1126 2.847 . S
C1130 O1144 1.249 . S
C1130 O1145 1.202 . S
C1131 C1129 1.363 . S
C1131 C1133 1.408 . S
C1131 C1136 1.342 . S
C1132 C1133 1.310 . S
C1132 C1135 1.461 . S
C1132 H1152 0.932 . S
C1133 C1131 1.408 . S
C1133 C1132 1.310 . S
C1133 H1153 0.930 . S
C1134 C1135 1.474 . S
C1134 C1136 1.285 . S
C1134 H1154 0.929 . S
C1135 C1132 1.461 . S
C1135 C1134 1.474 . S
C1136 C1131 1.342 . S
C1136 C1134 1.285 . S
C1136 H1155 0.930 . S
C1137 C1140 1.424 . S
C1137 C1142 1.245 . S
C1137 C1143 1.428 . S
C1138 C1141 1.260 . S
C1138 C1142 1.477 . S
C1138 H1156 0.932 . S
C1139 C1140 1.384 . S
C1139 C1141 1.479 . S
C1139 H1157 0.929 . S
C1140 C1137 1.424 . S
C1140 C1139 1.384 . S
C1140 H1158 0.928 . S
C1141 C1138 1.260 . S
C1141 C1139 1.479 . S
C1142 C1137 1.245 . S
C1142 C1138 1.477 . S
C1142 H1159 0.932 . S
C1143 U1126 2.882 . S
C1143 C1137 1.428 . S
C1143 O1146 1.301 . S
C1143 O1147 1.282 . S
O1144 U1126 2.441 . S
O1144 C1130 1.249 . S
O1145 U1126 2.420 . S
O1145 C1130 1.202 . S
O1146 U1126 2.455 . S
O1146 C1143 1.301 . S
O1147 U1126 2.449 . S
O1147 C1143 1.282 . S
H1148 C1121 0.931 . S
H1149 C1123 0.929 . S
H1150 C1124 0.930 . S
H1151 C1125 0.931 . S
H1152 C1132 0.932 . S
H1153 C1133 0.930 . S
H1154 C1134 0.929 . S
H1155 C1136 0.930 . S
H1156 C1138 0.932 . S
H1157 C1139 0.929 . S
H1158 C1140 0.928 . S
H1159 C1142 0.932 . S
C1160 C1161 1.264 . S
C1160 C1165 1.479 . S
C1160 C1170 1.465 . S
C1161 C1160 1.264 . S
C1161 C1163 1.339 . S
C1161 H1188 0.931 . S
C1162 C1163 1.395 . S
C1162 C1164 1.320 . S
C1163 C1161 1.339 . S
C1163 C1162 1.395 . S
C1163 H1189 0.929 . S
C1164 C1162 1.320 . S
C1164 C1165 1.405 . S
C1164 H1190 0.930 . S
C1165 C1160 1.479 . S
C1165 C1164 1.405 . S
C1165 H1191 0.931 . S
U1166 O1167 2.454 . S
U1166 O1168 2.458 . S
U1166 C1169 2.984 . S
U1166 C1170 2.847 . S
U1166 C1183 2.882 . S
U1166 O1184 2.441 . S
U1166 O1185 2.420 . S
U1166 O1186 2.455 . S
U1166 O1187 2.449 . S
O1167 U1166 2.454 . S
O1167 C1169 1.353 . S
O1168 U1166 2.458 . S
O1168 C1169 1.286 . S
C1169 U1166 2.984 . S
C1169 O1167 1.353 . S
C1169 O1168 1.286 . S
C1169 C1171 1.363 . S
C1170 C1160 1.465 . S
C1170 U1166 2.847 . S
C1170 O1184 1.249 . S
C1170 O1185 1.202 . S
C1171 C1169 1.363 . S
C1171 C1173 1.408 . S
C1171 C1176 1.342 . S
C1172 C1173 1.310 . S
C1172 C1175 1.461 . S
C1172 H1192 0.932 . S
C1173 C1171 1.408 . S
C1173 C1172 1.310 . S
C1173 H1193 0.930 . S
C1174 C1175 1.474 . S
C1174 C1176 1.285 . S
C1174 H1194 0.929 . S
C1175 C1172 1.461 . S
C1175 C1174 1.474 . S
C1176 C1171 1.342 . S
C1176 C1174 1.285 . S
C1176 H1195 0.930 . S
C1177 C1180 1.424 . S
C1177 C1182 1.245 . S
C1177 C1183 1.428 . S
C1178 C1181 1.260 . S
C1178 C1182 1.477 . S
C1178 H1196 0.932 . S
C1179 C1180 1.384 . S
C1179 C1181 1.479 . S
C1179 H1197 0.929 . S
C1180 C1177 1.424 . S
C1180 C1179 1.384 . S
C1180 H1198 0.928 . S
C1181 C1178 1.260 . S
C1181 C1179 1.479 . S
C1182 C1177 1.245 . S
C1182 C1178 1.477 . S
C1182 H1199 0.932 . S
C1183 U1166 2.882 . S
C1183 C1177 1.428 . S
C1183 O1186 1.301 . S
C1183 O1187 1.282 . S
O1184 U1166 2.441 . S
O1184 C1170 1.249 . S
O1185 U1166 2.420 . S
O1185 C1170 1.202 . S
O1186 U1166 2.455 . S
O1186 C1183 1.301 . S
O1187 U1166 2.449 . S
O1187 C1183 1.282 . S
H1188 C1161 0.931 . S
H1189 C1163 0.929 . S
H1190 C1164 0.930 . S
H1191 C1165 0.931 . S
H1192 C1172 0.932 . S
H1193 C1173 0.930 . S
H1194 C1174 0.929 . S
H1195 C1176 0.930 . S
H1196 C1178 0.932 . S
H1197 C1179 0.929 . S
H1198 C1180 0.928 . S
H1199 C1182 0.932 . S
C1200 C1201 1.264 . S
C1200 C1205 1.479 . S
C1200 C1210 1.465 . S
C1201 C1200 1.264 . S
C1201 C1203 1.339 . S
C1201 H1228 0.931 . S
C1202 C1203 1.395 . S
C1202 C1204 1.320 . S
C1203 C1201 1.339 . S
C1203 C1202 1.395 . S
C1203 H1229 0.929 . S
C1204 C1202 1.320 . S
C1204 C1205 1.405 . S
C1204 H1230 0.930 . S
C1205 C1200 1.479 . S
C1205 C1204 1.405 . S
C1205 H1231 0.931 . S
U1206 O1207 2.454 . S
U1206 O1208 2.458 . S
U1206 C1209 2.984 . S
U1206 C1210 2.847 . S
U1206 C1223 2.882 . S
U1206 O1224 2.441 . S
U1206 O1225 2.420 . S
U1206 O1226 2.455 . S
U1206 O1227 2.449 . S
O1207 U1206 2.454 . S
O1207 C1209 1.353 . S
O1208 U1206 2.458 . S
O1208 C1209 1.286 . S
C1209 U1206 2.984 . S
C1209 O1207 1.353 . S
C1209 O1208 1.286 . S
C1209 C1211 1.363 . S
C1210 C1200 1.465 . S
C1210 U1206 2.847 . S
C1210 O1224 1.249 . S
C1210 O1225 1.202 . S
C1211 C1209 1.363 . S
C1211 C1213 1.408 . S
C1211 C1216 1.342 . S
C1212 C1213 1.310 . S
C1212 C1215 1.461 . S
C1212 H1232 0.932 . S
C1213 C1211 1.408 . S
C1213 C1212 1.310 . S
C1213 H1233 0.930 . S
C1214 C1215 1.474 . S
C1214 C1216 1.285 . S
C1214 H1234 0.929 . S
C1215 C1212 1.461 . S
C1215 C1214 1.474 . S
C1216 C1211 1.342 . S
C1216 C1214 1.285 . S
C1216 H1235 0.930 . S
C1217 C1220 1.424 . S
C1217 C1222 1.245 . S
C1217 C1223 1.428 . S
C1218 C1221 1.260 . S
C1218 C1222 1.477 . S
C1218 H1236 0.932 . S
C1219 C1220 1.384 . S
C1219 C1221 1.479 . S
C1219 H1237 0.929 . S
C1220 C1217 1.424 . S
C1220 C1219 1.384 . S
C1220 H1238 0.928 . S
C1221 C1218 1.260 . S
C1221 C1219 1.479 . S
C1222 C1217 1.245 . S
C1222 C1218 1.477 . S
C1222 H1239 0.932 . S
C1223 U1206 2.882 . S
C1223 C1217 1.428 . S
C1223 O1226 1.301 . S
C1223 O1227 1.282 . S
O1224 U1206 2.441 . S
O1224 C1210 1.249 . S
O1225 U1206 2.420 . S
O1225 C1210 1.202 . S
O1226 U1206 2.455 . S
O1226 C1223 1.301 . S
O1227 U1206 2.449 . S
O1227 C1223 1.282 . S
H1228 C1201 0.931 . S
H1229 C1203 0.929 . S
H1230 C1204 0.930 . S
H1231 C1205 0.931 . S
H1232 C1212 0.932 . S
H1233 C1213 0.930 . S
H1234 C1214 0.929 . S
H1235 C1216 0.930 . S
H1236 C1218 0.932 . S
H1237 C1219 0.929 . S
H1238 C1220 0.928 . S
H1239 C1222 0.932 . S
C1240 C1241 1.264 . S
C1240 C1245 1.479 . S
C1240 C1250 1.465 . S
C1241 C1240 1.264 . S
C1241 C1243 1.339 . S
C1241 H1268 0.931 . S
C1242 C1243 1.395 . S
C1242 C1244 1.320 . S
C1243 C1241 1.339 . S
C1243 C1242 1.395 . S
C1243 H1269 0.929 . S
C1244 C1242 1.320 . S
C1244 C1245 1.405 . S
C1244 H1270 0.930 . S
C1245 C1240 1.479 . S
C1245 C1244 1.405 . S
C1245 H1271 0.931 . S
U1246 O1247 2.454 . S
U1246 O1248 2.458 . S
U1246 C1249 2.984 . S
U1246 C1250 2.847 . S
U1246 C1263 2.882 . S
U1246 O1264 2.441 . S
U1246 O1265 2.420 . S
U1246 O1266 2.455 . S
U1246 O1267 2.449 . S
O1247 U1246 2.454 . S
O1247 C1249 1.353 . S
O1248 U1246 2.458 . S
O1248 C1249 1.286 . S
C1249 U1246 2.984 . S
C1249 O1247 1.353 . S
C1249 O1248 1.286 . S
C1249 C1251 1.363 . S
C1250 C1240 1.465 . S
C1250 U1246 2.847 . S
C1250 O1264 1.249 . S
C1250 O1265 1.202 . S
C1251 C1249 1.363 . S
C1251 C1253 1.408 . S
C1251 C1256 1.342 . S
C1252 C1253 1.310 . S
C1252 C1255 1.461 . S
C1252 H1272 0.932 . S
C1253 C1251 1.408 . S
C1253 C1252 1.310 . S
C1253 H1273 0.930 . S
C1254 C1255 1.474 . S
C1254 C1256 1.285 . S
C1254 H1274 0.929 . S
C1255 C1252 1.461 . S
C1255 C1254 1.474 . S
C1256 C1251 1.342 . S
C1256 C1254 1.285 . S
C1256 H1275 0.930 . S
C1257 C1260 1.424 . S
C1257 C1262 1.245 . S
C1257 C1263 1.428 . S
C1258 C1261 1.260 . S
C1258 C1262 1.477 . S
C1258 H1276 0.932 . S
C1259 C1260 1.384 . S
C1259 C1261 1.479 . S
C1259 H1277 0.929 . S
C1260 C1257 1.424 . S
C1260 C1259 1.384 . S
C1260 H1278 0.928 . S
C1261 C1258 1.260 . S
C1261 C1259 1.479 . S
C1262 C1257 1.245 . S
C1262 C1258 1.477 . S
C1262 H1279 0.932 . S
C1263 U1246 2.882 . S
C1263 C1257 1.428 . S
C1263 O1266 1.301 . S
C1263 O1267 1.282 . S
O1264 U1246 2.441 . S
O1264 C1250 1.249 . S
O1265 U1246 2.420 . S
O1265 C1250 1.202 . S
O1266 U1246 2.455 . S
O1266 C1263 1.301 . S
O1267 U1246 2.449 . S
O1267 C1263 1.282 . S
H1268 C1241 0.931 . S
H1269 C1243 0.929 . S
H1270 C1244 0.930 . S
H1271 C1245 0.931 . S
H1272 C1252 0.932 . S
H1273 C1253 0.930 . S
H1274 C1254 0.929 . S
H1275 C1256 0.930 . S
H1276 C1258 0.932 . S
H1277 C1259 0.929 . S
H1278 C1260 0.928 . S
H1279 C1262 0.932 . S
H1280 C1299 0.949 . S
H1281 C1300 0.950 . S
H1282 C1302 0.950 . S
H1283 C1303 0.950 . S
H1284 C1305 0.950 . S
H1285 C1308 0.950 . S
H1286 C1309 0.950 . S
H1287 C1311 0.951 . S
H1288 C1312 0.949 . S
H1289 C1314 0.949 . S
H1290 C1315 0.950 . S
H1291 C1317 0.950 . S
H1292 C1318 0.950 . S
H1293 C1320 0.950 . S
H1294 C1323 0.950 . S
H1295 C1324 0.950 . S
H1296 C1326 0.951 . S
H1297 C1327 0.949 . S
C1298 C1299 1.376 . S
C1298 C1303 1.386 . S
C1298 C1304 1.483 . S
C1299 H1280 0.949 . S
C1299 C1298 1.376 . S
C1299 C1300 1.397 . S
C1300 H1281 0.950 . S
C1300 C1299 1.397 . S
C1300 C1301 1.391 . S
C1301 C1300 1.391 . S
C1301 C1302 1.405 . S
C1302 H1282 0.950 . S
C1302 C1301 1.405 . S
C1302 C1303 1.367 . S
C1303 H1283 0.950 . S
C1303 C1298 1.386 . S
C1303 C1302 1.367 . S
C1304 C1298 1.483 . S
C1304 C1305 1.382 1_556 S
C1304 C1306 1.403 . S
C1305 H1284 0.950 . S
C1305 C1304 1.382 1_554 S
C1305 C1321 1.411 . S
C1306 C1304 1.403 . S
C1306 C1307 1.489 . S
C1306 C1320 1.411 1_556 S
C1307 C1306 1.489 . S
C1307 C1308 1.383 . S
C1307 C1312 1.382 . S
C1308 H1285 0.950 . S
C1308 C1307 1.383 . S
C1308 C1309 1.395 . S
C1309 H1286 0.950 . S
C1309 C1308 1.395 . S
C1309 C1310 1.288 . S
C1310 C1309 1.288 . S
C1310 C1311 1.392 . S
C1311 H1287 0.951 . S
C1311 C1310 1.392 . S
C1311 C1312 1.392 . S
C1312 H1288 0.949 . S
C1312 C1307 1.382 . S
C1312 C1311 1.392 . S
C1313 C1314 1.376 . S
C1313 C1318 1.386 . S
C1313 C1319 1.483 . S
C1314 H1289 0.949 . S
C1314 C1313 1.376 . S
C1314 C1315 1.397 . S
C1315 H1290 0.950 . S
C1315 C1314 1.397 . S
C1315 C1316 1.391 . S
C1316 C1315 1.391 . S
C1316 C1317 1.405 . S
C1317 H1291 0.950 . S
C1317 C1316 1.405 . S
C1317 C1318 1.367 . S
C1318 H1292 0.950 . S
C1318 C1313 1.386 . S
C1318 C1317 1.367 . S
C1319 C1313 1.483 . S
C1319 C1320 1.382 . S
C1319 C1321 1.403 . S
C1320 H1293 0.950 . S
C1320 C1306 1.411 1_554 S
C1320 C1319 1.382 . S
C1321 C1305 1.411 . S
C1321 C1319 1.403 . S
C1321 C1322 1.489 . S
C1322 C1321 1.489 . S
C1322 C1323 1.383 . S
C1322 C1327 1.382 . S
C1323 H1294 0.950 . S
C1323 C1322 1.383 . S
C1323 C1324 1.395 . S
C1324 H1295 0.950 . S
C1324 C1323 1.395 . S
C1324 C1325 1.288 . S
C1325 C1324 1.288 . S
C1325 C1326 1.392 . S
C1326 H1296 0.951 . S
C1326 C1325 1.392 . S
C1326 C1327 1.392 . S
C1327 H1297 0.949 . S
C1327 C1322 1.382 . S
C1327 C1326 1.392 . S
H1328 C1347 0.949 . S
H1329 C1348 0.950 . S
H1330 C1350 0.950 . S
H1331 C1351 0.950 . S
H1332 C1353 0.950 . S
H1333 C1356 0.950 . S
H1334 C1357 0.950 . S
H1335 C1359 0.951 . S
H1336 C1360 0.949 . S
H1337 C1362 0.949 . S
H1338 C1363 0.950 . S
H1339 C1365 0.950 . S
H1340 C1366 0.950 . S
H1341 C1368 0.950 . S
H1342 C1371 0.950 . S
H1343 C1372 0.950 . S
H1344 C1374 0.951 . S
H1345 C1375 0.949 . S
C1346 C1347 1.376 . S
C1346 C1351 1.386 . S
C1346 C1352 1.483 . S
C1347 H1328 0.949 . S
C1347 C1346 1.376 . S
C1347 C1348 1.397 . S
C1348 H1329 0.950 . S
C1348 C1347 1.397 . S
C1348 C1349 1.391 . S
C1349 C1348 1.391 . S
C1349 C1350 1.405 . S
C1350 H1330 0.950 . S
C1350 C1349 1.405 . S
C1350 C1351 1.367 . S
C1351 H1331 0.950 . S
C1351 C1346 1.386 . S
C1351 C1350 1.367 . S
C1352 C1346 1.483 . S
C1352 C1353 1.382 1_556 S
C1352 C1354 1.403 . S
C1353 H1332 0.950 . S
C1353 C1352 1.382 1_554 S
C1353 C1369 1.411 . S
C1354 C1352 1.403 . S
C1354 C1355 1.489 . S
C1354 C1368 1.411 1_556 S
C1355 C1354 1.489 . S
C1355 C1356 1.383 . S
C1355 C1360 1.382 . S
C1356 H1333 0.950 . S
C1356 C1355 1.383 . S
C1356 C1357 1.395 . S
C1357 H1334 0.950 . S
C1357 C1356 1.395 . S
C1357 C1358 1.288 . S
C1358 C1357 1.288 . S
C1358 C1359 1.392 . S
C1359 H1335 0.951 . S
C1359 C1358 1.392 . S
C1359 C1360 1.392 . S
C1360 H1336 0.949 . S
C1360 C1355 1.382 . S
C1360 C1359 1.392 . S
C1361 C1362 1.376 . S
C1361 C1366 1.386 . S
C1361 C1367 1.483 . S
C1362 H1337 0.949 . S
C1362 C1361 1.376 . S
C1362 C1363 1.397 . S
C1363 H1338 0.950 . S
C1363 C1362 1.397 . S
C1363 C1364 1.391 . S
C1364 C1363 1.391 . S
C1364 C1365 1.405 . S
C1365 H1339 0.950 . S
C1365 C1364 1.405 . S
C1365 C1366 1.367 . S
C1366 H1340 0.950 . S
C1366 C1361 1.386 . S
C1366 C1365 1.367 . S
C1367 C1361 1.483 . S
C1367 C1368 1.382 . S
C1367 C1369 1.403 . S
C1368 H1341 0.950 . S
C1368 C1354 1.411 1_554 S
C1368 C1367 1.382 . S
C1369 C1353 1.411 . S
C1369 C1367 1.403 . S
C1369 C1370 1.489 . S
C1370 C1369 1.489 . S
C1370 C1371 1.383 . S
C1370 C1375 1.382 . S
C1371 H1342 0.950 . S
C1371 C1370 1.383 . S
C1371 C1372 1.395 . S
C1372 H1343 0.950 . S
C1372 C1371 1.395 . S
C1372 C1373 1.288 . S
C1373 C1372 1.288 . S
C1373 C1374 1.392 . S
C1374 H1344 0.951 . S
C1374 C1373 1.392 . S
C1374 C1375 1.392 . S
C1375 H1345 0.949 . S
C1375 C1370 1.382 . S
C1375 C1374 1.392 . S
H1376 C1395 0.949 . S
H1377 C1396 0.950 . S
H1378 C1398 0.950 . S
H1379 C1399 0.950 . S
H1380 C1401 0.950 . S
H1381 C1404 0.950 . S
H1382 C1405 0.950 . S
H1383 C1407 0.951 . S
H1384 C1408 0.949 . S
H1385 C1410 0.949 . S
H1386 C1411 0.950 . S
H1387 C1413 0.950 . S
H1388 C1414 0.950 . S
H1389 C1416 0.950 . S
H1390 C1419 0.950 . S
H1391 C1420 0.950 . S
H1392 C1422 0.951 . S
H1393 C1423 0.949 . S
C1394 C1395 1.376 . S
C1394 C1399 1.386 . S
C1394 C1400 1.483 . S
C1395 H1376 0.949 . S
C1395 C1394 1.376 . S
C1395 C1396 1.397 . S
C1396 H1377 0.950 . S
C1396 C1395 1.397 . S
C1396 C1397 1.391 . S
C1397 C1396 1.391 . S
C1397 C1398 1.405 . S
C1398 H1378 0.950 . S
C1398 C1397 1.405 . S
C1398 C1399 1.367 . S
C1399 H1379 0.950 . S
C1399 C1394 1.386 . S
C1399 C1398 1.367 . S
C1400 C1394 1.483 . S
C1400 C1401 1.382 . S
C1400 C1402 1.403 . S
C1401 H1380 0.950 . S
C1401 C1400 1.382 . S
C1401 C1417 1.411 1_554 S
C1402 C1400 1.403 . S
C1402 C1403 1.489 . S
C1402 C1416 1.411 . S
C1403 C1402 1.489 . S
C1403 C1404 1.383 . S
C1403 C1408 1.382 . S
C1404 H1381 0.950 . S
C1404 C1403 1.383 . S
C1404 C1405 1.395 . S
C1405 H1382 0.950 . S
C1405 C1404 1.395 . S
C1405 C1406 1.288 . S
C1406 C1405 1.288 . S
C1406 C1407 1.392 . S
C1407 H1383 0.951 . S
C1407 C1406 1.392 . S
C1407 C1408 1.392 . S
C1408 H1384 0.949 . S
C1408 C1403 1.382 . S
C1408 C1407 1.392 . S
C1409 C1410 1.376 . S
C1409 C1414 1.386 . S
C1409 C1415 1.483 . S
C1410 H1385 0.949 . S
C1410 C1409 1.376 . S
C1410 C1411 1.397 . S
C1411 H1386 0.950 . S
C1411 C1410 1.397 . S
C1411 C1412 1.391 . S
C1412 C1411 1.391 . S
C1412 C1413 1.405 . S
C1413 H1387 0.950 . S
C1413 C1412 1.405 . S
C1413 C1414 1.367 . S
C1414 H1388 0.950 . S
C1414 C1409 1.386 . S
C1414 C1413 1.367 . S
C1415 C1409 1.483 . S
C1415 C1416 1.382 1_556 S
C1415 C1417 1.403 . S
C1416 H1389 0.950 . S
C1416 C1402 1.411 . S
C1416 C1415 1.382 1_554 S
C1417 C1401 1.411 1_556 S
C1417 C1415 1.403 . S
C1417 C1418 1.489 . S
C1418 C1417 1.489 . S
C1418 C1419 1.383 . S
C1418 C1423 1.382 . S
C1419 H1390 0.950 . S
C1419 C1418 1.383 . S
C1419 C1420 1.395 . S
C1420 H1391 0.950 . S
C1420 C1419 1.395 . S
C1420 C1421 1.288 . S
C1421 C1420 1.288 . S
C1421 C1422 1.392 . S
C1422 H1392 0.951 . S
C1422 C1421 1.392 . S
C1422 C1423 1.392 . S
C1423 H1393 0.949 . S
C1423 C1418 1.382 . S
C1423 C1422 1.392 . S
H1424 C1443 0.949 . S
H1425 C1444 0.950 . S
H1426 C1446 0.950 . S
H1427 C1447 0.950 . S
H1428 C1449 0.950 . S
H1429 C1452 0.950 . S
H1430 C1453 0.950 . S
H1431 C1455 0.951 . S
H1432 C1456 0.949 . S
H1433 C1458 0.949 . S
H1434 C1459 0.950 . S
H1435 C1461 0.950 . S
H1436 C1462 0.950 . S
H1437 C1464 0.950 . S
H1438 C1467 0.950 . S
H1439 C1468 0.950 . S
H1440 C1470 0.951 . S
H1441 C1471 0.949 . S
C1442 C1443 1.376 . S
C1442 C1447 1.386 . S
C1442 C1448 1.483 . S
C1443 H1424 0.949 . S
C1443 C1442 1.376 . S
C1443 C1444 1.397 . S
C1444 H1425 0.950 . S
C1444 C1443 1.397 . S
C1444 C1445 1.391 . S
C1445 C1444 1.391 . S
C1445 C1446 1.405 . S
C1446 H1426 0.950 . S
C1446 C1445 1.405 . S
C1446 C1447 1.367 . S
C1447 H1427 0.950 . S
C1447 C1442 1.386 . S
C1447 C1446 1.367 . S
C1448 C1442 1.483 . S
C1448 C1449 1.382 1_556 S
C1448 C1450 1.403 . S
C1449 H1428 0.950 . S
C1449 C1448 1.382 1_554 S
C1449 C1465 1.411 . S
C1450 C1448 1.403 . S
C1450 C1451 1.489 . S
C1450 C1464 1.411 1_556 S
C1451 C1450 1.489 . S
C1451 C1452 1.383 . S
C1451 C1456 1.382 . S
C1452 H1429 0.950 . S
C1452 C1451 1.383 . S
C1452 C1453 1.395 . S
C1453 H1430 0.950 . S
C1453 C1452 1.395 . S
C1453 C1454 1.288 . S
C1454 C1453 1.288 . S
C1454 C1455 1.392 . S
C1455 H1431 0.951 . S
C1455 C1454 1.392 . S
C1455 C1456 1.392 . S
C1456 H1432 0.949 . S
C1456 C1451 1.382 . S
C1456 C1455 1.392 . S
C1457 C1458 1.376 . S
C1457 C1462 1.386 . S
C1457 C1463 1.483 . S
C1458 H1433 0.949 . S
C1458 C1457 1.376 . S
C1458 C1459 1.397 . S
C1459 H1434 0.950 . S
C1459 C1458 1.397 . S
C1459 C1460 1.391 . S
C1460 C1459 1.391 . S
C1460 C1461 1.405 . S
C1461 H1435 0.950 . S
C1461 C1460 1.405 . S
C1461 C1462 1.367 . S
C1462 H1436 0.950 . S
C1462 C1457 1.386 . S
C1462 C1461 1.367 . S
C1463 C1457 1.483 . S
C1463 C1464 1.382 . S
C1463 C1465 1.403 . S
C1464 H1437 0.950 . S
C1464 C1450 1.411 1_554 S
C1464 C1463 1.382 . S
C1465 C1449 1.411 . S
C1465 C1463 1.403 . S
C1465 C1466 1.489 . S
C1466 C1465 1.489 . S
C1466 C1467 1.383 . S
C1466 C1471 1.382 . S
C1467 H1438 0.950 . S
C1467 C1466 1.383 . S
C1467 C1468 1.395 . S
C1468 H1439 0.950 . S
C1468 C1467 1.395 . S
C1468 C1469 1.288 . S
C1469 C1468 1.288 . S
C1469 C1470 1.392 . S
C1470 H1440 0.951 . S
C1470 C1469 1.392 . S
C1470 C1471 1.392 . S
C1471 H1441 0.949 . S
C1471 C1466 1.382 . S
C1471 C1470 1.392 . S
H1472 C1491 0.949 . S
H1473 C1492 0.950 . S
H1474 C1494 0.950 . S
H1475 C1495 0.950 . S
H1476 C1497 0.950 . S
H1477 C1500 0.950 . S
H1478 C1501 0.950 . S
H1479 C1503 0.951 . S
H1480 C1504 0.949 . S
H1481 C1506 0.949 . S
H1482 C1507 0.950 . S
H1483 C1509 0.950 . S
H1484 C1510 0.950 . S
H1485 C1512 0.950 . S
H1486 C1515 0.950 . S
H1487 C1516 0.950 . S
H1488 C1518 0.951 . S
H1489 C1519 0.949 . S
C1490 C1491 1.376 . S
C1490 C1495 1.386 . S
C1490 C1496 1.483 . S
C1491 H1472 0.949 . S
C1491 C1490 1.376 . S
C1491 C1492 1.397 . S
C1492 H1473 0.950 . S
C1492 C1491 1.397 . S
C1492 C1493 1.391 . S
C1493 C1492 1.391 . S
C1493 C1494 1.405 . S
C1494 H1474 0.950 . S
C1494 C1493 1.405 . S
C1494 C1495 1.367 . S
C1495 H1475 0.950 . S
C1495 C1490 1.386 . S
C1495 C1494 1.367 . S
C1496 C1490 1.483 . S
C1496 C1497 1.382 . S
C1496 C1498 1.403 . S
C1497 H1476 0.950 . S
C1497 C1496 1.382 . S
C1497 C1513 1.411 1_455 S
C1498 C1496 1.403 . S
C1498 C1499 1.489 . S
C1498 C1512 1.411 . S
C1499 C1498 1.489 . S
C1499 C1500 1.383 . S
C1499 C1504 1.382 . S
C1500 H1477 0.950 . S
C1500 C1499 1.383 . S
C1500 C1501 1.395 . S
C1501 H1478 0.950 . S
C1501 C1500 1.395 . S
C1501 C1502 1.288 . S
C1502 C1501 1.288 . S
C1502 C1503 1.392 . S
C1503 H1479 0.951 . S
C1503 C1502 1.392 . S
C1503 C1504 1.392 . S
C1504 H1480 0.949 . S
C1504 C1499 1.382 . S
C1504 C1503 1.392 . S
C1505 C1506 1.376 . S
C1505 C1510 1.386 . S
C1505 C1511 1.483 . S
C1506 H1481 0.949 . S
C1506 C1505 1.376 . S
C1506 C1507 1.397 . S
C1507 H1482 0.950 . S
C1507 C1506 1.397 . S
C1507 C1508 1.391 . S
C1508 C1507 1.391 . S
C1508 C1509 1.405 . S
C1509 H1483 0.950 . S
C1509 C1508 1.405 . S
C1509 C1510 1.367 . S
C1510 H1484 0.950 . S
C1510 C1505 1.386 . S
C1510 C1509 1.367 . S
C1511 C1505 1.483 . S
C1511 C1512 1.382 1_655 S
C1511 C1513 1.403 . S
C1512 H1485 0.950 . S
C1512 C1498 1.411 . S
C1512 C1511 1.382 1_455 S
C1513 C1497 1.411 1_655 S
C1513 C1511 1.403 . S
C1513 C1514 1.489 . S
C1514 C1513 1.489 . S
C1514 C1515 1.383 . S
C1514 C1519 1.382 . S
C1515 H1486 0.950 . S
C1515 C1514 1.383 . S
C1515 C1516 1.395 . S
C1516 H1487 0.950 . S
C1516 C1515 1.395 . S
C1516 C1517 1.288 . S
C1517 C1516 1.288 . S
C1517 C1518 1.392 . S
C1518 H1488 0.951 . S
C1518 C1517 1.392 . S
C1518 C1519 1.392 . S
C1519 H1489 0.949 . S
C1519 C1514 1.382 . S
C1519 C1518 1.392 . S
H1520 C1539 0.949 . S
H1521 C1540 0.950 . S
H1522 C1542 0.950 . S
H1523 C1543 0.950 . S
H1524 C1545 0.950 . S
H1525 C1548 0.950 . S
H1526 C1549 0.950 . S
H1527 C1551 0.951 . S
H1528 C1552 0.949 . S
H1529 C1554 0.949 . S
H1530 C1555 0.950 . S
H1531 C1557 0.950 . S
H1532 C1558 0.950 . S
H1533 C1560 0.950 1_565 S
H1534 C1563 0.950 . S
H1535 C1564 0.950 . S
H1536 C1566 0.951 . S
H1537 C1567 0.949 . S
C1538 C1539 1.376 . S
C1538 C1543 1.386 . S
C1538 C1544 1.483 . S
C1539 H1520 0.949 . S
C1539 C1538 1.376 . S
C1539 C1540 1.397 . S
C1540 H1521 0.950 . S
C1540 C1539 1.397 . S
C1540 C1541 1.391 . S
C1541 C1540 1.391 . S
C1541 C1542 1.405 . S
C1542 H1522 0.950 . S
C1542 C1541 1.405 . S
C1542 C1543 1.367 . S
C1543 H1523 0.950 . S
C1543 C1538 1.386 . S
C1543 C1542 1.367 . S
C1544 C1538 1.483 . S
C1544 C1545 1.382 . S
C1544 C1546 1.403 . S
C1545 H1524 0.950 . S
C1545 C1544 1.382 . S
C1545 C1561 1.411 1_545 S
C1546 C1544 1.403 . S
C1546 C1547 1.489 . S
C1546 C1560 1.436 . S
C1547 C1546 1.489 . S
C1547 C1548 1.383 . S
C1547 C1552 1.382 . S
C1548 H1525 0.950 . S
C1548 C1547 1.383 . S
C1548 C1549 1.395 . S
C1549 H1526 0.950 . S
C1549 C1548 1.395 . S
C1549 C1550 1.288 . S
C1550 C1549 1.288 . S
C1550 C1551 1.392 . S
C1551 H1527 0.951 . S
C1551 C1550 1.392 . S
C1551 C1552 1.392 . S
C1552 H1528 0.949 . S
C1552 C1547 1.382 . S
C1552 C1551 1.392 . S
C1553 C1554 1.376 . S
C1553 C1558 1.386 . S
C1553 C1559 1.483 . S
C1554 H1529 0.949 . S
C1554 C1553 1.376 . S
C1554 C1555 1.397 . S
C1555 H1530 0.950 . S
C1555 C1554 1.397 . S
C1555 C1556 1.391 . S
C1556 C1555 1.391 . S
C1556 C1557 1.405 . S
C1557 H1531 0.950 . S
C1557 C1556 1.405 . S
C1557 C1558 1.367 . S
C1558 H1532 0.950 . S
C1558 C1553 1.386 . S
C1558 C1557 1.367 . S
C1559 C1553 1.483 . S
C1559 C1560 1.358 1_565 S
C1559 C1561 1.403 . S
C1560 H1533 0.950 1_545 S
C1560 C1546 1.436 . S
C1560 C1559 1.358 1_545 S
C1561 C1545 1.411 1_565 S
C1561 C1559 1.403 . S
C1561 C1562 1.489 . S
C1562 C1561 1.489 . S
C1562 C1563 1.383 . S
C1562 C1567 1.382 . S
C1563 H1534 0.950 . S
C1563 C1562 1.383 . S
C1563 C1564 1.395 . S
C1564 H1535 0.950 . S
C1564 C1563 1.395 . S
C1564 C1565 1.288 . S
C1565 C1564 1.288 . S
C1565 C1566 1.392 . S
C1566 H1536 0.951 . S
C1566 C1565 1.392 . S
C1566 C1567 1.392 . S
C1567 H1537 0.949 . S
C1567 C1562 1.382 . S
C1567 C1566 1.392 . S
H1568 C1587 0.949 . S
H1569 C1588 0.950 . S
H1570 C1590 0.950 . S
H1571 C1591 0.950 . S
H1572 C1593 0.950 . S
H1573 C1596 0.950 . S
H1574 C1597 0.950 . S
H1575 C1599 0.951 . S
H1576 C1600 0.949 . S
H1577 C1602 0.949 . S
H1578 C1603 0.950 . S
H1579 C1605 0.950 . S
H1580 C1606 0.950 . S
H1581 C1608 0.950 . S
H1582 C1611 0.950 . S
H1583 C1612 0.950 . S
H1584 C1614 0.951 . S
H1585 C1615 0.949 . S
C1586 C1587 1.376 . S
C1586 C1591 1.386 . S
C1586 C1592 1.483 . S
C1587 H1568 0.949 . S
C1587 C1586 1.376 . S
C1587 C1588 1.397 . S
C1588 H1569 0.950 . S
C1588 C1587 1.397 . S
C1588 C1589 1.391 . S
C1589 C1588 1.391 . S
C1589 C1590 1.405 . S
C1590 H1570 0.950 . S
C1590 C1589 1.405 . S
C1590 C1591 1.367 . S
C1591 H1571 0.950 . S
C1591 C1586 1.386 . S
C1591 C1590 1.367 . S
C1592 C1586 1.483 . S
C1592 C1593 1.382 . S
C1592 C1594 1.403 . S
C1593 H1572 0.950 . S
C1593 C1592 1.382 . S
C1593 C1609 1.411 1_455 S
C1594 C1592 1.403 . S
C1594 C1595 1.489 . S
C1594 C1608 1.471 . S
C1595 C1594 1.489 . S
C1595 C1596 1.383 . S
C1595 C1600 1.382 . S
C1596 H1573 0.950 . S
C1596 C1595 1.383 . S
C1596 C1597 1.395 . S
C1597 H1574 0.950 . S
C1597 C1596 1.395 . S
C1597 C1598 1.288 . S
C1598 C1597 1.288 . S
C1598 C1599 1.392 . S
C1599 H1575 0.951 . S
C1599 C1598 1.392 . S
C1599 C1600 1.392 . S
C1600 H1576 0.949 . S
C1600 C1595 1.382 . S
C1600 C1599 1.392 . S
C1601 C1602 1.376 . S
C1601 C1606 1.386 . S
C1601 C1607 1.483 . S
C1602 H1577 0.949 . S
C1602 C1601 1.376 . S
C1602 C1603 1.397 . S
C1603 H1578 0.950 . S
C1603 C1602 1.397 . S
C1603 C1604 1.391 . S
C1604 C1603 1.391 . S
C1604 C1605 1.405 . S
C1605 H1579 0.950 . S
C1605 C1604 1.405 . S
C1605 C1606 1.367 . S
C1606 H1580 0.950 . S
C1606 C1601 1.386 . S
C1606 C1605 1.367 . S
C1607 C1601 1.483 . S
C1607 C1608 1.324 1_655 S
C1607 C1609 1.403 . S
C1608 H1581 0.950 . S
C1608 C1594 1.471 . S
C1608 C1607 1.324 1_455 S
C1609 C1593 1.411 1_655 S
C1609 C1607 1.403 . S
C1609 C1610 1.489 . S
C1610 C1609 1.489 . S
C1610 C1611 1.383 . S
C1610 C1615 1.382 . S
C1611 H1582 0.950 . S
C1611 C1610 1.383 . S
C1611 C1612 1.395 . S
C1612 H1583 0.950 . S
C1612 C1611 1.395 . S
C1612 C1613 1.288 . S
C1613 C1612 1.288 . S
C1613 C1614 1.392 . S
C1614 H1584 0.951 . S
C1614 C1613 1.392 . S
C1614 C1615 1.392 . S
C1615 H1585 0.949 . S
C1615 C1610 1.382 . S
C1615 C1614 1.392 . S
H1616 C1635 0.949 . S
H1617 C1636 0.950 . S
H1618 C1638 0.950 . S
H1619 C1639 0.950 . S
H1620 C1641 0.950 . S
H1621 C1644 0.950 . S
H1622 C1645 0.950 . S
H1623 C1647 0.951 . S
H1624 C1648 0.949 . S
H1625 C1650 0.949 . S
H1626 C1651 0.950 . S
H1627 C1653 0.950 . S
H1628 C1654 0.950 . S
H1629 C1656 0.950 . S
H1630 C1659 0.950 . S
H1631 C1660 0.950 . S
H1632 C1662 0.951 . S
H1633 C1663 0.949 . S
C1634 C1635 1.376 . S
C1634 C1639 1.386 . S
C1634 C1640 1.483 . S
C1635 H1616 0.949 . S
C1635 C1634 1.376 . S
C1635 C1636 1.397 . S
C1636 H1617 0.950 . S
C1636 C1635 1.397 . S
C1636 C1637 1.391 . S
C1637 C1636 1.391 . S
C1637 C1638 1.405 . S
C1638 H1618 0.950 . S
C1638 C1637 1.405 . S
C1638 C1639 1.367 . S
C1639 H1619 0.950 . S
C1639 C1634 1.386 . S
C1639 C1638 1.367 . S
C1640 C1634 1.483 . S
C1640 C1641 1.382 . S
C1640 C1642 1.403 . S
C1641 H1620 0.950 . S
C1641 C1640 1.382 . S
C1641 C1657 1.411 1_545 S
C1642 C1640 1.403 . S
C1642 C1643 1.489 . S
C1642 C1656 1.411 . S
C1643 C1642 1.489 . S
C1643 C1644 1.383 . S
C1643 C1648 1.382 . S
C1644 H1621 0.950 . S
C1644 C1643 1.383 . S
C1644 C1645 1.395 . S
C1645 H1622 0.950 . S
C1645 C1644 1.395 . S
C1645 C1646 1.288 . S
C1646 C1645 1.288 . S
C1646 C1647 1.392 . S
C1647 H1623 0.951 . S
C1647 C1646 1.392 . S
C1647 C1648 1.392 . S
C1648 H1624 0.949 . S
C1648 C1643 1.382 . S
C1648 C1647 1.392 . S
C1649 C1650 1.376 . S
C1649 C1654 1.386 . S
C1649 C1655 1.483 . S
C1650 H1625 0.949 . S
C1650 C1649 1.376 . S
C1650 C1651 1.397 . S
C1651 H1626 0.950 . S
C1651 C1650 1.397 . S
C1651 C1652 1.391 . S
C1652 C1651 1.391 . S
C1652 C1653 1.405 . S
C1653 H1627 0.950 . S
C1653 C1652 1.405 . S
C1653 C1654 1.367 . S
C1654 H1628 0.950 . S
C1654 C1649 1.386 . S
C1654 C1653 1.367 . S
C1655 C1649 1.483 . S
C1655 C1656 1.382 1_565 S
C1655 C1657 1.403 . S
C1656 H1629 0.950 . S
C1656 C1642 1.411 . S
C1656 C1655 1.382 1_545 S
C1657 C1641 1.411 1_565 S
C1657 C1655 1.403 . S
C1657 C1658 1.489 . S
C1658 C1657 1.489 . S
C1658 C1659 1.383 . S
C1658 C1663 1.382 . S
C1659 H1630 0.950 . S
C1659 C1658 1.383 . S
C1659 C1660 1.395 . S
C1660 H1631 0.950 . S
C1660 C1659 1.395 . S
C1660 C1661 1.288 . S
C1661 C1660 1.288 . S
C1661 C1662 1.392 . S
C1662 H1632 0.951 . S
C1662 C1661 1.392 . S
C1662 C1663 1.392 . S
C1663 H1633 0.949 . S
C1663 C1658 1.382 . S
C1663 C1662 1.392 . S
H1664 C1683 0.949 . S
H1665 C1684 0.950 . S
H1666 C1686 0.950 . S
H1667 C1687 0.950 . S
H1668 C1689 0.950 . S
H1669 C1692 0.950 . S
H1670 C1693 0.950 . S
H1671 C1695 0.951 . S
H1672 C1696 0.949 . S
H1673 C1698 0.949 . S
H1674 C1699 0.950 . S
H1675 C1701 0.950 . S
H1676 C1702 0.950 . S
H1677 C1704 0.950 . S
H1678 C1707 0.950 . S
H1679 C1708 0.950 . S
H1680 C1710 0.951 . S
H1681 C1711 0.949 . S
C1682 C1683 1.376 . S
C1682 C1687 1.386 . S
C1682 C1688 1.483 . S
C1683 H1664 0.949 . S
C1683 C1682 1.376 . S
C1683 C1684 1.397 . S
C1684 H1665 0.950 . S
C1684 C1683 1.397 . S
C1684 C1685 1.391 . S
C1685 C1684 1.391 . S
C1685 C1686 1.405 . S
C1686 H1666 0.950 . S
C1686 C1685 1.405 . S
C1686 C1687 1.367 . S
C1687 H1667 0.950 . S
C1687 C1682 1.386 . S
C1687 C1686 1.367 . S
C1688 C1682 1.483 . S
C1688 C1689 1.382 . S
C1688 C1690 1.403 . S
C1689 H1668 0.950 . S
C1689 C1688 1.382 . S
C1689 C1705 1.411 1_455 S
C1690 C1688 1.403 . S
C1690 C1691 1.489 . S
C1690 C1704 1.411 . S
C1691 C1690 1.489 . S
C1691 C1692 1.383 . S
C1691 C1696 1.382 . S
C1692 H1669 0.950 . S
C1692 C1691 1.383 . S
C1692 C1693 1.395 . S
C1693 H1670 0.950 . S
C1693 C1692 1.395 . S
C1693 C1694 1.288 . S
C1694 C1693 1.288 . S
C1694 C1695 1.392 . S
C1695 H1671 0.951 . S
C1695 C1694 1.392 . S
C1695 C1696 1.392 . S
C1696 H1672 0.949 . S
C1696 C1691 1.382 . S
C1696 C1695 1.392 . S
C1697 C1698 1.376 . S
C1697 C1702 1.386 . S
C1697 C1703 1.483 . S
C1698 H1673 0.949 . S
C1698 C1697 1.376 . S
C1698 C1699 1.397 . S
C1699 H1674 0.950 . S
C1699 C1698 1.397 . S
C1699 C1700 1.391 . S
C1700 C1699 1.391 . S
C1700 C1701 1.405 . S
C1701 H1675 0.950 . S
C1701 C1700 1.405 . S
C1701 C1702 1.367 . S
C1702 H1676 0.950 . S
C1702 C1697 1.386 . S
C1702 C1701 1.367 . S
C1703 C1697 1.483 . S
C1703 C1704 1.382 1_655 S
C1703 C1705 1.403 . S
C1704 H1677 0.950 . S
C1704 C1690 1.411 . S
C1704 C1703 1.382 1_455 S
C1705 C1689 1.411 1_655 S
C1705 C1703 1.403 . S
C1705 C1706 1.489 . S
C1706 C1705 1.489 . S
C1706 C1707 1.383 . S
C1706 C1711 1.382 . S
C1707 H1678 0.950 . S
C1707 C1706 1.383 . S
C1707 C1708 1.395 . S
C1708 H1679 0.950 . S
C1708 C1707 1.395 . S
C1708 C1709 1.288 . S
C1709 C1708 1.288 . S
C1709 C1710 1.392 . S
C1710 H1680 0.951 . S
C1710 C1709 1.392 . S
C1710 C1711 1.392 . S
C1711 H1681 0.949 . S
C1711 C1706 1.382 . S
C1711 C1710 1.392 . S
H1712 C1731 0.949 . S
H1713 C1732 0.950 . S
H1714 C1734 0.950 . S
H1715 C1735 0.950 . S
H1716 C1737 0.950 . S
H1717 C1740 0.950 . S
H1718 C1741 0.950 . S
H1719 C1743 0.951 . S
H1720 C1744 0.949 . S
H1721 C1746 0.949 . S
H1722 C1747 0.950 . S
H1723 C1749 0.950 . S
H1724 C1750 0.950 . S
H1725 C1752 0.950 1_565 S
H1726 C1755 0.950 . S
H1727 C1756 0.950 . S
H1728 C1758 0.951 . S
H1729 C1759 0.949 . S
C1730 C1731 1.376 . S
C1730 C1735 1.386 . S
C1730 C1736 1.483 . S
C1731 H1712 0.949 . S
C1731 C1730 1.376 . S
C1731 C1732 1.397 . S
C1732 H1713 0.950 . S
C1732 C1731 1.397 . S
C1732 C1733 1.391 . S
C1733 C1732 1.391 . S
C1733 C1734 1.405 . S
C1734 H1714 0.950 . S
C1734 C1733 1.405 . S
C1734 C1735 1.367 . S
C1735 H1715 0.950 . S
C1735 C1730 1.386 . S
C1735 C1734 1.367 . S
C1736 C1730 1.483 . S
C1736 C1737 1.382 . S
C1736 C1738 1.403 . S
C1737 H1716 0.950 . S
C1737 C1736 1.382 . S
C1737 C1753 1.411 1_545 S
C1738 C1736 1.403 . S
C1738 C1739 1.489 . S
C1738 C1752 1.435 . S
C1739 C1738 1.489 . S
C1739 C1740 1.383 . S
C1739 C1744 1.382 . S
C1740 H1717 0.950 . S
C1740 C1739 1.383 . S
C1740 C1741 1.395 . S
C1741 H1718 0.950 . S
C1741 C1740 1.395 . S
C1741 C1742 1.288 . S
C1742 C1741 1.288 . S
C1742 C1743 1.392 . S
C1743 H1719 0.951 . S
C1743 C1742 1.392 . S
C1743 C1744 1.392 . S
C1744 H1720 0.949 . S
C1744 C1739 1.382 . S
C1744 C1743 1.392 . S
C1745 C1746 1.376 . S
C1745 C1750 1.386 . S
C1745 C1751 1.483 . S
C1746 H1721 0.949 . S
C1746 C1745 1.376 . S
C1746 C1747 1.397 . S
C1747 H1722 0.950 . S
C1747 C1746 1.397 . S
C1747 C1748 1.391 . S
C1748 C1747 1.391 . S
C1748 C1749 1.405 . S
C1749 H1723 0.950 . S
C1749 C1748 1.405 . S
C1749 C1750 1.367 . S
C1750 H1724 0.950 . S
C1750 C1745 1.386 . S
C1750 C1749 1.367 . S
C1751 C1745 1.483 . S
C1751 C1752 1.358 1_565 S
C1751 C1753 1.403 . S
C1752 H1725 0.950 1_545 S
C1752 C1738 1.435 . S
C1752 C1751 1.358 1_545 S
C1753 C1737 1.411 1_565 S
C1753 C1751 1.403 . S
C1753 C1754 1.489 . S
C1754 C1753 1.489 . S
C1754 C1755 1.383 . S
C1754 C1759 1.382 . S
C1755 H1726 0.950 . S
C1755 C1754 1.383 . S
C1755 C1756 1.395 . S
C1756 H1727 0.950 . S
C1756 C1755 1.395 . S
C1756 C1757 1.288 . S
C1757 C1756 1.288 . S
C1757 C1758 1.392 . S
C1758 H1728 0.951 . S
C1758 C1757 1.392 . S
C1758 C1759 1.392 . S
C1759 H1729 0.949 . S
C1759 C1754 1.382 . S
C1759 C1758 1.392 . S
H1760 C1779 0.949 . S
H1761 C1780 0.950 . S
H1762 C1782 0.950 . S
H1763 C1783 0.950 . S
H1764 C1785 0.950 . S
H1765 C1788 0.950 . S
H1766 C1789 0.950 . S
H1767 C1791 0.951 . S
H1768 C1792 0.949 . S
H1769 C1794 0.949 . S
H1770 C1795 0.950 . S
H1771 C1797 0.950 . S
H1772 C1798 0.950 . S
H1773 C1800 0.950 . S
H1774 C1803 0.950 . S
H1775 C1804 0.950 . S
H1776 C1806 0.951 . S
H1777 C1807 0.949 . S
C1778 C1779 1.376 . S
C1778 C1783 1.386 . S
C1778 C1784 1.483 . S
C1779 H1760 0.949 . S
C1779 C1778 1.376 . S
C1779 C1780 1.397 . S
C1780 H1761 0.950 . S
C1780 C1779 1.397 . S
C1780 C1781 1.391 . S
C1781 C1780 1.391 . S
C1781 C1782 1.405 . S
C1782 H1762 0.950 . S
C1782 C1781 1.405 . S
C1782 C1783 1.367 . S
C1783 H1763 0.950 . S
C1783 C1778 1.386 . S
C1783 C1782 1.367 . S
C1784 C1778 1.483 . S
C1784 C1785 1.329 1_655 S
C1784 C1786 1.403 . S
C1785 H1764 0.950 . S
C1785 C1784 1.329 1_455 S
C1785 C1801 1.465 . S
C1786 C1784 1.403 . S
C1786 C1787 1.489 . S
C1786 C1800 1.411 1_655 S
C1787 C1786 1.489 . S
C1787 C1788 1.383 . S
C1787 C1792 1.382 . S
C1788 H1765 0.950 . S
C1788 C1787 1.383 . S
C1788 C1789 1.395 . S
C1789 H1766 0.950 . S
C1789 C1788 1.395 . S
C1789 C1790 1.288 . S
C1790 C1789 1.288 . S
C1790 C1791 1.392 . S
C1791 H1767 0.951 . S
C1791 C1790 1.392 . S
C1791 C1792 1.392 . S
C1792 H1768 0.949 . S
C1792 C1787 1.382 . S
C1792 C1791 1.392 . S
C1793 C1794 1.376 . S
C1793 C1798 1.386 . S
C1793 C1799 1.483 . S
C1794 H1769 0.949 . S
C1794 C1793 1.376 . S
C1794 C1795 1.397 . S
C1795 H1770 0.950 . S
C1795 C1794 1.397 . S
C1795 C1796 1.391 . S
C1796 C1795 1.391 . S
C1796 C1797 1.405 . S
C1797 H1771 0.950 . S
C1797 C1796 1.405 . S
C1797 C1798 1.367 . S
C1798 H1772 0.950 . S
C1798 C1793 1.386 . S
C1798 C1797 1.367 . S
C1799 C1793 1.483 . S
C1799 C1800 1.382 . S
C1799 C1801 1.403 . S
C1800 H1773 0.950 . S
C1800 C1786 1.411 1_455 S
C1800 C1799 1.382 . S
C1801 C1785 1.465 . S
C1801 C1799 1.403 . S
C1801 C1802 1.489 . S
C1802 C1801 1.489 . S
C1802 C1803 1.383 . S
C1802 C1807 1.382 . S
C1803 H1774 0.950 . S
C1803 C1802 1.383 . S
C1803 C1804 1.395 . S
C1804 H1775 0.950 . S
C1804 C1803 1.395 . S
C1804 C1805 1.288 . S
C1805 C1804 1.288 . S
C1805 C1806 1.392 . S
C1806 H1776 0.951 . S
C1806 C1805 1.392 . S
C1806 C1807 1.392 . S
C1807 H1777 0.949 . S
C1807 C1802 1.382 . S
C1807 C1806 1.392 . S
H1808 C1827 0.949 . S
H1809 C1828 0.950 . S
H1810 C1830 0.950 . S
H1811 C1831 0.950 . S
H1812 C1833 0.950 . S
H1813 C1836 0.950 . S
H1814 C1837 0.950 . S
H1815 C1839 0.951 . S
H1816 C1840 0.949 . S
H1817 C1842 0.949 . S
H1818 C1843 0.950 . S
H1819 C1845 0.950 . S
H1820 C1846 0.950 . S
H1821 C1848 0.950 . S
H1822 C1851 0.950 . S
H1823 C1852 0.950 . S
H1824 C1854 0.951 . S
H1825 C1855 0.949 . S
C1826 C1827 1.376 . S
C1826 C1831 1.386 . S
C1826 C1832 1.483 . S
C1827 H1808 0.949 . S
C1827 C1826 1.376 . S
C1827 C1828 1.397 . S
C1828 H1809 0.950 . S
C1828 C1827 1.397 . S
C1828 C1829 1.391 . S
C1829 C1828 1.391 . S
C1829 C1830 1.405 . S
C1830 H1810 0.950 . S
C1830 C1829 1.405 . S
C1830 C1831 1.367 . S
C1831 H1811 0.950 . S
C1831 C1826 1.386 . S
C1831 C1830 1.367 . S
C1832 C1826 1.483 . S
C1832 C1833 1.382 . S
C1832 C1834 1.403 . S
C1833 H1812 0.950 . S
C1833 C1832 1.382 . S
C1833 C1849 1.411 1_545 S
C1834 C1832 1.403 . S
C1834 C1835 1.489 . S
C1834 C1848 1.411 . S
C1835 C1834 1.489 . S
C1835 C1836 1.383 . S
C1835 C1840 1.382 . S
C1836 H1813 0.950 . S
C1836 C1835 1.383 . S
C1836 C1837 1.395 . S
C1837 H1814 0.950 . S
C1837 C1836 1.395 . S
C1837 C1838 1.288 . S
C1838 C1837 1.288 . S
C1838 C1839 1.392 . S
C1839 H1815 0.951 . S
C1839 C1838 1.392 . S
C1839 C1840 1.392 . S
C1840 H1816 0.949 . S
C1840 C1835 1.382 . S
C1840 C1839 1.392 . S
C1841 C1842 1.376 . S
C1841 C1846 1.386 . S
C1841 C1847 1.483 . S
C1842 H1817 0.949 . S
C1842 C1841 1.376 . S
C1842 C1843 1.397 . S
C1843 H1818 0.950 . S
C1843 C1842 1.397 . S
C1843 C1844 1.391 . S
C1844 C1843 1.391 . S
C1844 C1845 1.405 . S
C1845 H1819 0.950 . S
C1845 C1844 1.405 . S
C1845 C1846 1.367 . S
C1846 H1820 0.950 . S
C1846 C1841 1.386 . S
C1846 C1845 1.367 . S
C1847 C1841 1.483 . S
C1847 C1848 1.382 1_565 S
C1847 C1849 1.403 . S
C1848 H1821 0.950 . S
C1848 C1834 1.411 . S
C1848 C1847 1.382 1_545 S
C1849 C1833 1.411 1_565 S
C1849 C1847 1.403 . S
C1849 C1850 1.489 . S
C1850 C1849 1.489 . S
C1850 C1851 1.383 . S
C1850 C1855 1.382 . S
C1851 H1822 0.950 . S
C1851 C1850 1.383 . S
C1851 C1852 1.395 . S
C1852 H1823 0.950 . S
C1852 C1851 1.395 . S
C1852 C1853 1.288 . S
C1853 C1852 1.288 . S
C1853 C1854 1.392 . S
C1854 H1824 0.951 . S
C1854 C1853 1.392 . S
C1854 C1855 1.392 . S
C1855 H1825 0.949 . S
C1855 C1850 1.382 . S
C1855 C1854 1.392 . S
H1856 C1875 0.949 . S
H1857 C1876 0.950 . S
H1858 C1878 0.950 . S
H1859 C1879 0.950 . S
H1860 C1881 0.950 . S
H1861 C1884 0.950 . S
H1862 C1885 0.950 . S
H1863 C1887 0.951 . S
H1864 C1888 0.949 . S
H1865 C1890 0.949 . S
H1866 C1891 0.950 . S
H1867 C1893 0.950 . S
H1868 C1894 0.950 . S
H1869 C1896 0.950 . S
H1870 C1899 0.950 . S
H1871 C1900 0.950 . S
H1872 C1902 0.951 . S
H1873 C1903 0.949 . S
C1874 C1875 1.376 . S
C1874 C1879 1.386 . S
C1874 C1880 1.483 . S
C1875 H1856 0.949 . S
C1875 C1874 1.376 . S
C1875 C1876 1.397 . S
C1876 H1857 0.950 . S
C1876 C1875 1.397 . S
C1876 C1877 1.391 . S
C1877 C1876 1.391 . S
C1877 C1878 1.405 . S
C1878 H1858 0.950 . S
C1878 C1877 1.405 . S
C1878 C1879 1.367 . S
C1879 H1859 0.950 . S
C1879 C1874 1.386 . S
C1879 C1878 1.367 . S
C1880 C1874 1.483 . S
C1880 C1881 1.382 . S
C1880 C1882 1.403 . S
C1881 H1860 0.950 . S
C1881 C1880 1.382 . S
C1881 C1897 1.411 . S
C1882 C1880 1.403 . S
C1882 C1883 1.489 . S
C1882 C1896 1.411 . S
C1883 C1882 1.489 . S
C1883 C1884 1.383 . S
C1883 C1888 1.382 . S
C1884 H1861 0.950 . S
C1884 C1883 1.383 . S
C1884 C1885 1.395 . S
C1885 H1862 0.950 . S
C1885 C1884 1.395 . S
C1885 C1886 1.288 . S
C1886 C1885 1.288 . S
C1886 C1887 1.392 . S
C1887 H1863 0.951 . S
C1887 C1886 1.392 . S
C1887 C1888 1.392 . S
C1888 H1864 0.949 . S
C1888 C1883 1.382 . S
C1888 C1887 1.392 . S
C1889 C1890 1.376 . S
C1889 C1894 1.386 . S
C1889 C1895 1.483 . S
C1890 H1865 0.949 . S
C1890 C1889 1.376 . S
C1890 C1891 1.397 . S
C1891 H1866 0.950 . S
C1891 C1890 1.397 . S
C1891 C1892 1.391 . S
C1892 C1891 1.391 . S
C1892 C1893 1.405 . S
C1893 H1867 0.950 . S
C1893 C1892 1.405 . S
C1893 C1894 1.367 . S
C1894 H1868 0.950 . S
C1894 C1889 1.386 . S
C1894 C1893 1.367 . S
C1895 C1889 1.483 . S
C1895 C1896 1.382 . S
C1895 C1897 1.403 . S
C1896 H1869 0.950 . S
C1896 C1882 1.411 . S
C1896 C1895 1.382 . S
C1897 C1881 1.411 . S
C1897 C1895 1.403 . S
C1897 C1898 1.489 . S
C1898 C1897 1.489 . S
C1898 C1899 1.383 . S
C1898 C1903 1.382 . S
C1899 H1870 0.950 . S
C1899 C1898 1.383 . S
C1899 C1900 1.395 . S
C1900 H1871 0.950 . S
C1900 C1899 1.395 . S
C1900 C1901 1.288 . S
C1901 C1900 1.288 . S
C1901 C1902 1.392 . S
C1902 H1872 0.951 . S
C1902 C1901 1.392 . S
C1902 C1903 1.392 . S
C1903 H1873 0.949 . S
C1903 C1898 1.382 . S
C1903 C1902 1.392 . S
H1904 C1923 0.949 . S
H1905 C1924 0.950 . S
H1906 C1926 0.950 . S
H1907 C1927 0.950 . S
H1908 C1929 0.950 . S
H1909 C1932 0.950 . S
H1910 C1933 0.950 . S
H1911 C1935 0.951 . S
H1912 C1936 0.949 . S
H1913 C1938 0.949 . S
H1914 C1939 0.950 . S
H1915 C1941 0.950 . S
H1916 C1942 0.950 . S
H1917 C1944 0.950 . S
H1918 C1947 0.950 . S
H1919 C1948 0.950 . S
H1920 C1950 0.951 . S
H1921 C1951 0.949 . S
C1922 C1923 1.376 . S
C1922 C1927 1.386 . S
C1922 C1928 1.483 . S
C1923 H1904 0.949 . S
C1923 C1922 1.376 . S
C1923 C1924 1.397 . S
C1924 H1905 0.950 . S
C1924 C1923 1.397 . S
C1924 C1925 1.391 . S
C1925 C1924 1.391 . S
C1925 C1926 1.405 . S
C1926 H1906 0.950 . S
C1926 C1925 1.405 . S
C1926 C1927 1.367 . S
C1927 H1907 0.950 . S
C1927 C1922 1.386 . S
C1927 C1926 1.367 . S
C1928 C1922 1.483 . S
C1928 C1929 1.382 . S
C1928 C1930 1.403 . S
C1929 H1908 0.950 . S
C1929 C1928 1.382 . S
C1929 C1945 1.411 . S
C1930 C1928 1.403 . S
C1930 C1931 1.489 . S
C1930 C1944 1.411 . S
C1931 C1930 1.489 . S
C1931 C1932 1.383 . S
C1931 C1936 1.382 . S
C1932 H1909 0.950 . S
C1932 C1931 1.383 . S
C1932 C1933 1.395 . S
C1933 H1910 0.950 . S
C1933 C1932 1.395 . S
C1933 C1934 1.288 . S
C1934 C1933 1.288 . S
C1934 C1935 1.392 . S
C1935 H1911 0.951 . S
C1935 C1934 1.392 . S
C1935 C1936 1.392 . S
C1936 H1912 0.949 . S
C1936 C1931 1.382 . S
C1936 C1935 1.392 . S
C1937 C1938 1.376 . S
C1937 C1942 1.386 . S
C1937 C1943 1.483 . S
C1938 H1913 0.949 . S
C1938 C1937 1.376 . S
C1938 C1939 1.397 . S
C1939 H1914 0.950 . S
C1939 C1938 1.397 . S
C1939 C1940 1.391 . S
C1940 C1939 1.391 . S
C1940 C1941 1.405 . S
C1941 H1915 0.950 . S
C1941 C1940 1.405 . S
C1941 C1942 1.367 . S
C1942 H1916 0.950 . S
C1942 C1937 1.386 . S
C1942 C1941 1.367 . S
C1943 C1937 1.483 . S
C1943 C1944 1.382 . S
C1943 C1945 1.403 . S
C1944 H1917 0.950 . S
C1944 C1930 1.411 . S
C1944 C1943 1.382 . S
C1945 C1929 1.411 . S
C1945 C1943 1.403 . S
C1945 C1946 1.489 . S
C1946 C1945 1.489 . S
C1946 C1947 1.383 . S
C1946 C1951 1.382 . S
C1947 H1918 0.950 . S
C1947 C1946 1.383 . S
C1947 C1948 1.395 . S
C1948 H1919 0.950 . S
C1948 C1947 1.395 . S
C1948 C1949 1.288 . S
C1949 C1948 1.288 . S
C1949 C1950 1.392 . S
C1950 H1920 0.951 . S
C1950 C1949 1.392 . S
C1950 C1951 1.392 . S
C1951 H1921 0.949 . S
C1951 C1946 1.382 . S
C1951 C1950 1.392 . S
H1952 C1971 0.949 . S
H1953 C1972 0.950 . S
H1954 C1974 0.950 . S
H1955 C1975 0.950 . S
H1956 C1977 0.950 . S
H1957 C1980 0.950 . S
H1958 C1981 0.950 . S
H1959 C1983 0.951 . S
H1960 C1984 0.949 . S
H1961 C1986 0.949 . S
H1962 C1987 0.950 . S
H1963 C1989 0.950 . S
H1964 C1990 0.950 . S
H1965 C1992 0.950 . S
H1966 C1995 0.950 . S
H1967 C1996 0.950 . S
H1968 C1998 0.951 . S
H1969 C1999 0.949 . S
C1970 C1971 1.376 . S
C1970 C1975 1.386 . S
C1970 C1976 1.483 . S
C1971 H1952 0.949 . S
C1971 C1970 1.376 . S
C1971 C1972 1.397 . S
C1972 H1953 0.950 . S
C1972 C1971 1.397 . S
C1972 C1973 1.391 . S
C1973 C1972 1.391 . S
C1973 C1974 1.405 . S
C1974 H1954 0.950 . S
C1974 C1973 1.405 . S
C1974 C1975 1.367 . S
C1975 H1955 0.950 . S
C1975 C1970 1.386 . S
C1975 C1974 1.367 . S
C1976 C1970 1.483 . S
C1976 C1977 1.382 . S
C1976 C1978 1.403 . S
C1977 H1956 0.950 . S
C1977 C1976 1.382 . S
C1977 C1993 1.411 . S
C1978 C1976 1.403 . S
C1978 C1979 1.489 . S
C1978 C1992 1.411 . S
C1979 C1978 1.489 . S
C1979 C1980 1.383 . S
C1979 C1984 1.382 . S
C1980 H1957 0.950 . S
C1980 C1979 1.383 . S
C1980 C1981 1.395 . S
C1981 H1958 0.950 . S
C1981 C1980 1.395 . S
C1981 C1982 1.288 . S
C1982 C1981 1.288 . S
C1982 C1983 1.392 . S
C1983 H1959 0.951 . S
C1983 C1982 1.392 . S
C1983 C1984 1.392 . S
C1984 H1960 0.949 . S
C1984 C1979 1.382 . S
C1984 C1983 1.392 . S
C1985 C1986 1.376 . S
C1985 C1990 1.386 . S
C1985 C1991 1.483 . S
C1986 H1961 0.949 . S
C1986 C1985 1.376 . S
C1986 C1987 1.397 . S
C1987 H1962 0.950 . S
C1987 C1986 1.397 . S
C1987 C1988 1.391 . S
C1988 C1987 1.391 . S
C1988 C1989 1.405 . S
C1989 H1963 0.950 . S
C1989 C1988 1.405 . S
C1989 C1990 1.367 . S
C1990 H1964 0.950 . S
C1990 C1985 1.386 . S
C1990 C1989 1.367 . S
C1991 C1985 1.483 . S
C1991 C1992 1.382 . S
C1991 C1993 1.403 . S
C1992 H1965 0.950 . S
C1992 C1978 1.411 . S
C1992 C1991 1.382 . S
C1993 C1977 1.411 . S
C1993 C1991 1.403 . S
C1993 C1994 1.489 . S
C1994 C1993 1.489 . S
C1994 C1995 1.383 . S
C1994 C1999 1.382 . S
C1995 H1966 0.950 . S
C1995 C1994 1.383 . S
C1995 C1996 1.395 . S
C1996 H1967 0.950 . S
C1996 C1995 1.395 . S
C1996 C1997 1.288 . S
C1997 C1996 1.288 . S
C1997 C1998 1.392 . S
C1998 H1968 0.951 . S
C1998 C1997 1.392 . S
C1998 C1999 1.392 . S
C1999 H1969 0.949 . S
C1999 C1994 1.382 . S
C1999 C1998 1.392 . S
H2000 C2019 0.949 . S
H2001 C2020 0.950 . S
H2002 C2022 0.950 . S
H2003 C2023 0.950 . S
H2004 C2025 0.950 . S
H2005 C2028 0.950 . S
H2006 C2029 0.950 . S
H2007 C2031 0.951 . S
H2008 C2032 0.949 . S
H2009 C2034 0.949 . S
H2010 C2035 0.950 . S
H2011 C2037 0.950 . S
H2012 C2038 0.950 . S
H2013 C2040 0.950 . S
H2014 C2043 0.950 . S
H2015 C2044 0.950 . S
H2016 C2046 0.951 . S
H2017 C2047 0.949 . S
C2018 C2019 1.376 . S
C2018 C2023 1.386 . S
C2018 C2024 1.483 . S
C2019 H2000 0.949 . S
C2019 C2018 1.376 . S
C2019 C2020 1.397 . S
C2020 H2001 0.950 . S
C2020 C2019 1.397 . S
C2020 C2021 1.391 . S
C2021 C2020 1.391 . S
C2021 C2022 1.405 . S
C2022 H2002 0.950 . S
C2022 C2021 1.405 . S
C2022 C2023 1.367 . S
C2023 H2003 0.950 . S
C2023 C2018 1.386 . S
C2023 C2022 1.367 . S
C2024 C2018 1.483 . S
C2024 C2025 1.382 . S
C2024 C2026 1.403 . S
C2025 H2004 0.950 . S
C2025 C2024 1.382 . S
C2025 C2041 1.411 . S
C2026 C2024 1.403 . S
C2026 C2027 1.489 . S
C2026 C2040 1.411 . S
C2027 C2026 1.489 . S
C2027 C2028 1.383 . S
C2027 C2032 1.382 . S
C2028 H2005 0.950 . S
C2028 C2027 1.383 . S
C2028 C2029 1.395 . S
C2029 H2006 0.950 . S
C2029 C2028 1.395 . S
C2029 C2030 1.288 . S
C2030 C2029 1.288 . S
C2030 C2031 1.392 . S
C2031 H2007 0.951 . S
C2031 C2030 1.392 . S
C2031 C2032 1.392 . S
C2032 H2008 0.949 . S
C2032 C2027 1.382 . S
C2032 C2031 1.392 . S
C2033 C2034 1.376 . S
C2033 C2038 1.386 . S
C2033 C2039 1.483 . S
C2034 H2009 0.949 . S
C2034 C2033 1.376 . S
C2034 C2035 1.397 . S
C2035 H2010 0.950 . S
C2035 C2034 1.397 . S
C2035 C2036 1.391 . S
C2036 C2035 1.391 . S
C2036 C2037 1.405 . S
C2037 H2011 0.950 . S
C2037 C2036 1.405 . S
C2037 C2038 1.367 . S
C2038 H2012 0.950 . S
C2038 C2033 1.386 . S
C2038 C2037 1.367 . S
C2039 C2033 1.483 . S
C2039 C2040 1.382 . S
C2039 C2041 1.403 . S
C2040 H2013 0.950 . S
C2040 C2026 1.411 . S
C2040 C2039 1.382 . S
C2041 C2025 1.411 . S
C2041 C2039 1.403 . S
C2041 C2042 1.489 . S
C2042 C2041 1.489 . S
C2042 C2043 1.383 . S
C2042 C2047 1.382 . S
C2043 H2014 0.950 . S
C2043 C2042 1.383 . S
C2043 C2044 1.395 . S
C2044 H2015 0.950 . S
C2044 C2043 1.395 . S
C2044 C2045 1.288 . S
C2045 C2044 1.288 . S
C2045 C2046 1.392 . S
C2046 H2016 0.951 . S
C2046 C2045 1.392 . S
C2046 C2047 1.392 . S
C2047 H2017 0.949 . S
C2047 C2042 1.382 . S
C2047 C2046 1.392 . S
H2048 C2067 0.949 . S
H2049 C2068 0.950 . S
H2050 C2070 0.950 . S
H2051 C2071 0.950 . S
H2052 C2073 0.950 . S
H2053 C2076 0.950 . S
H2054 C2077 0.950 . S
H2055 C2079 0.951 . S
H2056 C2080 0.949 . S
H2057 C2082 0.949 . S
H2058 C2083 0.950 . S
H2059 C2085 0.950 . S
H2060 C2086 0.950 . S
H2061 C2088 0.950 . S
H2062 C2091 0.950 . S
H2063 C2092 0.950 . S
H2064 C2094 0.951 . S
H2065 C2095 0.949 . S
C2066 C2067 1.376 . S
C2066 C2071 1.386 . S
C2066 C2072 1.483 . S
C2067 H2048 0.949 . S
C2067 C2066 1.376 . S
C2067 C2068 1.397 . S
C2068 H2049 0.950 . S
C2068 C2067 1.397 . S
C2068 C2069 1.391 . S
C2069 C2068 1.391 . S
C2069 C2070 1.405 . S
C2070 H2050 0.950 . S
C2070 C2069 1.405 . S
C2070 C2071 1.367 . S
C2071 H2051 0.950 . S
C2071 C2066 1.386 . S
C2071 C2070 1.367 . S
C2072 C2066 1.483 . S
C2072 C2073 1.382 . S
C2072 C2074 1.403 . S
C2073 H2052 0.950 . S
C2073 C2072 1.382 . S
C2073 C2089 1.411 . S
C2074 C2072 1.403 . S
C2074 C2075 1.489 . S
C2074 C2088 1.411 . S
C2075 C2074 1.489 . S
C2075 C2076 1.383 . S
C2075 C2080 1.382 . S
C2076 H2053 0.950 . S
C2076 C2075 1.383 . S
C2076 C2077 1.395 . S
C2077 H2054 0.950 . S
C2077 C2076 1.395 . S
C2077 C2078 1.288 . S
C2078 C2077 1.288 . S
C2078 C2079 1.392 . S
C2079 H2055 0.951 . S
C2079 C2078 1.392 . S
C2079 C2080 1.392 . S
C2080 H2056 0.949 . S
C2080 C2075 1.382 . S
C2080 C2079 1.392 . S
C2081 C2082 1.376 . S
C2081 C2086 1.386 . S
C2081 C2087 1.483 . S
C2082 H2057 0.949 . S
C2082 C2081 1.376 . S
C2082 C2083 1.397 . S
C2083 H2058 0.950 . S
C2083 C2082 1.397 . S
C2083 C2084 1.391 . S
C2084 C2083 1.391 . S
C2084 C2085 1.405 . S
C2085 H2059 0.950 . S
C2085 C2084 1.405 . S
C2085 C2086 1.367 . S
C2086 H2060 0.950 . S
C2086 C2081 1.386 . S
C2086 C2085 1.367 . S
C2087 C2081 1.483 . S
C2087 C2088 1.382 . S
C2087 C2089 1.403 . S
C2088 H2061 0.950 . S
C2088 C2074 1.411 . S
C2088 C2087 1.382 . S
C2089 C2073 1.411 . S
C2089 C2087 1.403 . S
C2089 C2090 1.489 . S
C2090 C2089 1.489 . S
C2090 C2091 1.383 . S
C2090 C2095 1.382 . S
C2091 H2062 0.950 . S
C2091 C2090 1.383 . S
C2091 C2092 1.395 . S
C2092 H2063 0.950 . S
C2092 C2091 1.395 . S
C2092 C2093 1.288 . S
C2093 C2092 1.288 . S
C2093 C2094 1.392 . S
C2094 H2064 0.951 . S
C2094 C2093 1.392 . S
C2094 C2095 1.392 . S
C2095 H2065 0.949 . S
C2095 C2090 1.382 . S
C2095 C2094 1.392 . S
H2096 C2115 0.949 . S
H2097 C2116 0.950 . S
H2098 C2118 0.950 . S
H2099 C2119 0.950 . S
H2100 C2121 0.950 . S
H2101 C2124 0.950 . S
H2102 C2125 0.950 . S
H2103 C2127 0.951 . S
H2104 C2128 0.949 . S
H2105 C2130 0.949 . S
H2106 C2131 0.950 . S
H2107 C2133 0.950 . S
H2108 C2134 0.950 . S
H2109 C2136 0.950 . S
H2110 C2139 0.950 . S
H2111 C2140 0.950 . S
H2112 C2142 0.951 . S
H2113 C2143 0.949 . S
C2114 C2115 1.376 . S
C2114 C2119 1.386 . S
C2114 C2120 1.483 . S
C2115 H2096 0.949 . S
C2115 C2114 1.376 . S
C2115 C2116 1.397 . S
C2116 H2097 0.950 . S
C2116 C2115 1.397 . S
C2116 C2117 1.391 . S
C2117 C2116 1.391 . S
C2117 C2118 1.405 . S
C2118 H2098 0.950 . S
C2118 C2117 1.405 . S
C2118 C2119 1.367 . S
C2119 H2099 0.950 . S
C2119 C2114 1.386 . S
C2119 C2118 1.367 . S
C2120 C2114 1.483 . S
C2120 C2121 1.382 . S
C2120 C2122 1.403 . S
C2121 H2100 0.950 . S
C2121 C2120 1.382 . S
C2121 C2137 1.411 . S
C2122 C2120 1.403 . S
C2122 C2123 1.489 . S
C2122 C2136 1.411 . S
C2123 C2122 1.489 . S
C2123 C2124 1.383 . S
C2123 C2128 1.382 . S
C2124 H2101 0.950 . S
C2124 C2123 1.383 . S
C2124 C2125 1.395 . S
C2125 H2102 0.950 . S
C2125 C2124 1.395 . S
C2125 C2126 1.288 . S
C2126 C2125 1.288 . S
C2126 C2127 1.392 . S
C2127 H2103 0.951 . S
C2127 C2126 1.392 . S
C2127 C2128 1.392 . S
C2128 H2104 0.949 . S
C2128 C2123 1.382 . S
C2128 C2127 1.392 . S
C2129 C2130 1.376 . S
C2129 C2134 1.386 . S
C2129 C2135 1.483 . S
C2130 H2105 0.949 . S
C2130 C2129 1.376 . S
C2130 C2131 1.397 . S
C2131 H2106 0.950 . S
C2131 C2130 1.397 . S
C2131 C2132 1.391 . S
C2132 C2131 1.391 . S
C2132 C2133 1.405 . S
C2133 H2107 0.950 . S
C2133 C2132 1.405 . S
C2133 C2134 1.367 . S
C2134 H2108 0.950 . S
C2134 C2129 1.386 . S
C2134 C2133 1.367 . S
C2135 C2129 1.483 . S
C2135 C2136 1.382 . S
C2135 C2137 1.403 . S
C2136 H2109 0.950 . S
C2136 C2122 1.411 . S
C2136 C2135 1.382 . S
C2137 C2121 1.411 . S
C2137 C2135 1.403 . S
C2137 C2138 1.489 . S
C2138 C2137 1.489 . S
C2138 C2139 1.383 . S
C2138 C2143 1.382 . S
C2139 H2110 0.950 . S
C2139 C2138 1.383 . S
C2139 C2140 1.395 . S
C2140 H2111 0.950 . S
C2140 C2139 1.395 . S
C2140 C2141 1.288 . S
C2141 C2140 1.288 . S
C2141 C2142 1.392 . S
C2142 H2112 0.951 . S
C2142 C2141 1.392 . S
C2142 C2143 1.392 . S
C2143 H2113 0.949 . S
C2143 C2138 1.382 . S
C2143 C2142 1.392 . S
H2144 C2163 0.949 . S
H2145 C2164 0.950 . S
H2146 C2166 0.950 . S
H2147 C2167 0.950 . S
H2148 C2169 0.950 . S
H2149 C2172 0.950 . S
H2150 C2173 0.950 . S
H2151 C2175 0.951 . S
H2152 C2176 0.949 . S
H2153 C2178 0.949 . S
H2154 C2179 0.950 . S
H2155 C2181 0.950 . S
H2156 C2182 0.950 . S
H2157 C2184 0.950 . S
H2158 C2187 0.950 . S
H2159 C2188 0.950 . S
H2160 C2190 0.951 . S
H2161 C2191 0.949 . S
C2162 C2163 1.376 . S
C2162 C2167 1.386 . S
C2162 C2168 1.483 . S
C2163 H2144 0.949 . S
C2163 C2162 1.376 . S
C2163 C2164 1.397 . S
C2164 H2145 0.950 . S
C2164 C2163 1.397 . S
C2164 C2165 1.391 . S
C2165 C2164 1.391 . S
C2165 C2166 1.405 . S
C2166 H2146 0.950 . S
C2166 C2165 1.405 . S
C2166 C2167 1.367 . S
C2167 H2147 0.950 . S
C2167 C2162 1.386 . S
C2167 C2166 1.367 . S
C2168 C2162 1.483 . S
C2168 C2169 1.382 . S
C2168 C2170 1.403 . S
C2169 H2148 0.950 . S
C2169 C2168 1.382 . S
C2169 C2185 1.411 . S
C2170 C2168 1.403 . S
C2170 C2171 1.489 . S
C2170 C2184 1.411 . S
C2171 C2170 1.489 . S
C2171 C2172 1.383 . S
C2171 C2176 1.382 . S
C2172 H2149 0.950 . S
C2172 C2171 1.383 . S
C2172 C2173 1.395 . S
C2173 H2150 0.950 . S
C2173 C2172 1.395 . S
C2173 C2174 1.288 . S
C2174 C2173 1.288 . S
C2174 C2175 1.392 . S
C2175 H2151 0.951 . S
C2175 C2174 1.392 . S
C2175 C2176 1.392 . S
C2176 H2152 0.949 . S
C2176 C2171 1.382 . S
C2176 C2175 1.392 . S
C2177 C2178 1.376 . S
C2177 C2182 1.386 . S
C2177 C2183 1.483 . S
C2178 H2153 0.949 . S
C2178 C2177 1.376 . S
C2178 C2179 1.397 . S
C2179 H2154 0.950 . S
C2179 C2178 1.397 . S
C2179 C2180 1.391 . S
C2180 C2179 1.391 . S
C2180 C2181 1.405 . S
C2181 H2155 0.950 . S
C2181 C2180 1.405 . S
C2181 C2182 1.367 . S
C2182 H2156 0.950 . S
C2182 C2177 1.386 . S
C2182 C2181 1.367 . S
C2183 C2177 1.483 . S
C2183 C2184 1.382 . S
C2183 C2185 1.403 . S
C2184 H2157 0.950 . S
C2184 C2170 1.411 . S
C2184 C2183 1.382 . S
C2185 C2169 1.411 . S
C2185 C2183 1.403 . S
C2185 C2186 1.489 . S
C2186 C2185 1.489 . S
C2186 C2187 1.383 . S
C2186 C2191 1.382 . S
C2187 H2158 0.950 . S
C2187 C2186 1.383 . S
C2187 C2188 1.395 . S
C2188 H2159 0.950 . S
C2188 C2187 1.395 . S
C2188 C2189 1.288 . S
C2189 C2188 1.288 . S
C2189 C2190 1.392 . S
C2190 H2160 0.951 . S
C2190 C2189 1.392 . S
C2190 C2191 1.392 . S
C2191 H2161 0.949 . S
C2191 C2186 1.382 . S
C2191 C2190 1.392 . S
H2192 C2211 0.949 . S
H2193 C2212 0.950 . S
H2194 C2214 0.950 . S
H2195 C2215 0.950 . S
H2196 C2217 0.950 . S
H2197 C2220 0.950 . S
H2198 C2221 0.950 . S
H2199 C2223 0.951 . S
H2200 C2224 0.949 . S
H2201 C2226 0.949 . S
H2202 C2227 0.950 . S
H2203 C2229 0.950 . S
H2204 C2230 0.950 . S
H2205 C2232 0.950 . S
H2206 C2235 0.950 . S
H2207 C2236 0.950 . S
H2208 C2238 0.951 . S
H2209 C2239 0.949 . S
C2210 C2211 1.376 . S
C2210 C2215 1.386 . S
C2210 C2216 1.483 . S
C2211 H2192 0.949 . S
C2211 C2210 1.376 . S
C2211 C2212 1.397 . S
C2212 H2193 0.950 . S
C2212 C2211 1.397 . S
C2212 C2213 1.391 . S
C2213 C2212 1.391 . S
C2213 C2214 1.405 . S
C2214 H2194 0.950 . S
C2214 C2213 1.405 . S
C2214 C2215 1.367 . S
C2215 H2195 0.950 . S
C2215 C2210 1.386 . S
C2215 C2214 1.367 . S
C2216 C2210 1.483 . S
C2216 C2217 1.382 . S
C2216 C2218 1.403 . S
C2217 H2196 0.950 . S
C2217 C2216 1.382 . S
C2217 C2233 1.411 . S
C2218 C2216 1.403 . S
C2218 C2219 1.489 . S
C2218 C2232 1.411 . S
C2219 C2218 1.489 . S
C2219 C2220 1.383 . S
C2219 C2224 1.382 . S
C2220 H2197 0.950 . S
C2220 C2219 1.383 . S
C2220 C2221 1.395 . S
C2221 H2198 0.950 . S
C2221 C2220 1.395 . S
C2221 C2222 1.288 . S
C2222 C2221 1.288 . S
C2222 C2223 1.392 . S
C2223 H2199 0.951 . S
C2223 C2222 1.392 . S
C2223 C2224 1.392 . S
C2224 H2200 0.949 . S
C2224 C2219 1.382 . S
C2224 C2223 1.392 . S
C2225 C2226 1.376 . S
C2225 C2230 1.386 . S
C2225 C2231 1.483 . S
C2226 H2201 0.949 . S
C2226 C2225 1.376 . S
C2226 C2227 1.397 . S
C2227 H2202 0.950 . S
C2227 C2226 1.397 . S
C2227 C2228 1.391 . S
C2228 C2227 1.391 . S
C2228 C2229 1.405 . S
C2229 H2203 0.950 . S
C2229 C2228 1.405 . S
C2229 C2230 1.367 . S
C2230 H2204 0.950 . S
C2230 C2225 1.386 . S
C2230 C2229 1.367 . S
C2231 C2225 1.483 . S
C2231 C2232 1.382 . S
C2231 C2233 1.403 . S
C2232 H2205 0.950 . S
C2232 C2218 1.411 . S
C2232 C2231 1.382 . S
C2233 C2217 1.411 . S
C2233 C2231 1.403 . S
C2233 C2234 1.489 . S
C2234 C2233 1.489 . S
C2234 C2235 1.383 . S
C2234 C2239 1.382 . S
C2235 H2206 0.950 . S
C2235 C2234 1.383 . S
C2235 C2236 1.395 . S
C2236 H2207 0.950 . S
C2236 C2235 1.395 . S
C2236 C2237 1.288 . S
C2237 C2236 1.288 . S
C2237 C2238 1.392 . S
C2238 H2208 0.951 . S
C2238 C2237 1.392 . S
C2238 C2239 1.392 . S
C2239 H2209 0.949 . S
C2239 C2234 1.382 . S
C2239 C2238 1.392 . S
H2240 C2259 0.949 . S
H2241 C2260 0.950 . S
H2242 C2262 0.950 . S
H2243 C2263 0.950 . S
H2244 C2265 0.950 . S
H2245 C2268 0.950 . S
H2246 C2269 0.950 . S
H2247 C2271 0.951 . S
H2248 C2272 0.949 . S
H2249 C2274 0.949 . S
H2250 C2275 0.950 . S
H2251 C2277 0.950 . S
H2252 C2278 0.950 . S
H2253 C2280 0.950 . S
H2254 C2283 0.950 . S
H2255 C2284 0.950 . S
H2256 C2286 0.951 . S
H2257 C2287 0.949 . S
C2258 C2259 1.376 . S
C2258 C2263 1.386 . S
C2258 C2264 1.483 . S
C2259 H2240 0.949 . S
C2259 C2258 1.376 . S
C2259 C2260 1.397 . S
C2260 H2241 0.950 . S
C2260 C2259 1.397 . S
C2260 C2261 1.391 . S
C2261 C2260 1.391 . S
C2261 C2262 1.405 . S
C2262 H2242 0.950 . S
C2262 C2261 1.405 . S
C2262 C2263 1.367 . S
C2263 H2243 0.950 . S
C2263 C2258 1.386 . S
C2263 C2262 1.367 . S
C2264 C2258 1.483 . S
C2264 C2265 1.382 . S
C2264 C2266 1.403 . S
C2265 H2244 0.950 . S
C2265 C2264 1.382 . S
C2265 C2281 1.411 . S
C2266 C2264 1.403 . S
C2266 C2267 1.489 . S
C2266 C2280 1.411 . S
C2267 C2266 1.489 . S
C2267 C2268 1.383 . S
C2267 C2272 1.382 . S
C2268 H2245 0.950 . S
C2268 C2267 1.383 . S
C2268 C2269 1.395 . S
C2269 H2246 0.950 . S
C2269 C2268 1.395 . S
C2269 C2270 1.288 . S
C2270 C2269 1.288 . S
C2270 C2271 1.392 . S
C2271 H2247 0.951 . S
C2271 C2270 1.392 . S
C2271 C2272 1.392 . S
C2272 H2248 0.949 . S
C2272 C2267 1.382 . S
C2272 C2271 1.392 . S
C2273 C2274 1.376 . S
C2273 C2278 1.386 . S
C2273 C2279 1.483 . S
C2274 H2249 0.949 . S
C2274 C2273 1.376 . S
C2274 C2275 1.397 . S
C2275 H2250 0.950 . S
C2275 C2274 1.397 . S
C2275 C2276 1.391 . S
C2276 C2275 1.391 . S
C2276 C2277 1.405 . S
C2277 H2251 0.950 . S
C2277 C2276 1.405 . S
C2277 C2278 1.367 . S
C2278 H2252 0.950 . S
C2278 C2273 1.386 . S
C2278 C2277 1.367 . S
C2279 C2273 1.483 . S
C2279 C2280 1.382 . S
C2279 C2281 1.403 . S
C2280 H2253 0.950 . S
C2280 C2266 1.411 . S
C2280 C2279 1.382 . S
C2281 C2265 1.411 . S
C2281 C2279 1.403 . S
C2281 C2282 1.489 . S
C2282 C2281 1.489 . S
C2282 C2283 1.383 . S
C2282 C2287 1.382 . S
C2283 H2254 0.950 . S
C2283 C2282 1.383 . S
C2283 C2284 1.395 . S
C2284 H2255 0.950 . S
C2284 C2283 1.395 . S
C2284 C2285 1.288 . S
C2285 C2284 1.288 . S
C2285 C2286 1.392 . S
C2286 H2256 0.951 . S
C2286 C2285 1.392 . S
C2286 C2287 1.392 . S
C2287 H2257 0.949 . S
C2287 C2282 1.382 . S
C2287 C2286 1.392 . S
H2288 C2307 0.949 . S
H2289 C2308 0.950 . S
H2290 C2310 0.950 . S
H2291 C2311 0.950 . S
H2292 C2313 0.950 . S
H2293 C2316 0.950 . S
H2294 C2317 0.950 . S
H2295 C2319 0.951 . S
H2296 C2320 0.949 . S
H2297 C2322 0.949 . S
H2298 C2323 0.950 . S
H2299 C2325 0.950 . S
H2300 C2326 0.950 . S
H2301 C2328 0.950 . S
H2302 C2331 0.950 . S
H2303 C2332 0.950 . S
H2304 C2334 0.951 . S
H2305 C2335 0.949 . S
C2306 C2307 1.376 . S
C2306 C2311 1.386 . S
C2306 C2312 1.483 . S
C2307 H2288 0.949 . S
C2307 C2306 1.376 . S
C2307 C2308 1.397 . S
C2308 H2289 0.950 . S
C2308 C2307 1.397 . S
C2308 C2309 1.391 . S
C2309 C2308 1.391 . S
C2309 C2310 1.405 . S
C2310 H2290 0.950 . S
C2310 C2309 1.405 . S
C2310 C2311 1.367 . S
C2311 H2291 0.950 . S
C2311 C2306 1.386 . S
C2311 C2310 1.367 . S
C2312 C2306 1.483 . S
C2312 C2313 1.382 . S
C2312 C2314 1.403 . S
C2313 H2292 0.950 . S
C2313 C2312 1.382 . S
C2313 C2329 1.411 . S
C2314 C2312 1.403 . S
C2314 C2315 1.489 . S
C2314 C2328 1.411 . S
C2315 C2314 1.489 . S
C2315 C2316 1.383 . S
C2315 C2320 1.382 . S
C2316 H2293 0.950 . S
C2316 C2315 1.383 . S
C2316 C2317 1.395 . S
C2317 H2294 0.950 . S
C2317 C2316 1.395 . S
C2317 C2318 1.288 . S
C2318 C2317 1.288 . S
C2318 C2319 1.392 . S
C2319 H2295 0.951 . S
C2319 C2318 1.392 . S
C2319 C2320 1.392 . S
C2320 H2296 0.949 . S
C2320 C2315 1.382 . S
C2320 C2319 1.392 . S
C2321 C2322 1.376 . S
C2321 C2326 1.386 . S
C2321 C2327 1.483 . S
C2322 H2297 0.949 . S
C2322 C2321 1.376 . S
C2322 C2323 1.397 . S
C2323 H2298 0.950 . S
C2323 C2322 1.397 . S
C2323 C2324 1.391 . S
C2324 C2323 1.391 . S
C2324 C2325 1.405 . S
C2325 H2299 0.950 . S
C2325 C2324 1.405 . S
C2325 C2326 1.367 . S
C2326 H2300 0.950 . S
C2326 C2321 1.386 . S
C2326 C2325 1.367 . S
C2327 C2321 1.483 . S
C2327 C2328 1.382 . S
C2327 C2329 1.403 . S
C2328 H2301 0.950 . S
C2328 C2314 1.411 . S
C2328 C2327 1.382 . S
C2329 C2313 1.411 . S
C2329 C2327 1.403 . S
C2329 C2330 1.489 . S
C2330 C2329 1.489 . S
C2330 C2331 1.383 . S
C2330 C2335 1.382 . S
C2331 H2302 0.950 . S
C2331 C2330 1.383 . S
C2331 C2332 1.395 . S
C2332 H2303 0.950 . S
C2332 C2331 1.395 . S
C2332 C2333 1.288 . S
C2333 C2332 1.288 . S
C2333 C2334 1.392 . S
C2334 H2304 0.951 . S
C2334 C2333 1.392 . S
C2334 C2335 1.392 . S
C2335 H2305 0.949 . S
C2335 C2330 1.382 . S
C2335 C2334 1.392 . S
H2336 C2355 0.949 . S
H2337 C2356 0.950 . S
H2338 C2358 0.950 . S
H2339 C2359 0.950 . S
H2340 C2361 0.950 . S
H2341 C2364 0.950 . S
H2342 C2365 0.950 . S
H2343 C2367 0.951 . S
H2344 C2368 0.949 . S
H2345 C2370 0.949 . S
H2346 C2371 0.950 . S
H2347 C2373 0.950 . S
H2348 C2374 0.950 . S
H2349 C2376 0.950 . S
H2350 C2379 0.950 . S
H2351 C2380 0.950 . S
H2352 C2382 0.951 . S
H2353 C2383 0.949 . S
C2354 C2355 1.376 . S
C2354 C2359 1.386 . S
C2354 C2360 1.483 . S
C2355 H2336 0.949 . S
C2355 C2354 1.376 . S
C2355 C2356 1.397 . S
C2356 H2337 0.950 . S
C2356 C2355 1.397 . S
C2356 C2357 1.391 . S
C2357 C2356 1.391 . S
C2357 C2358 1.405 . S
C2358 H2338 0.950 . S
C2358 C2357 1.405 . S
C2358 C2359 1.367 . S
C2359 H2339 0.950 . S
C2359 C2354 1.386 . S
C2359 C2358 1.367 . S
C2360 C2354 1.483 . S
C2360 C2361 1.382 . S
C2360 C2362 1.403 . S
C2361 H2340 0.950 . S
C2361 C2360 1.382 . S
C2361 C2377 1.411 . S
C2362 C2360 1.403 . S
C2362 C2363 1.489 . S
C2362 C2376 1.411 . S
C2363 C2362 1.489 . S
C2363 C2364 1.383 . S
C2363 C2368 1.382 . S
C2364 H2341 0.950 . S
C2364 C2363 1.383 . S
C2364 C2365 1.395 . S
C2365 H2342 0.950 . S
C2365 C2364 1.395 . S
C2365 C2366 1.288 . S
C2366 C2365 1.288 . S
C2366 C2367 1.392 . S
C2367 H2343 0.951 . S
C2367 C2366 1.392 . S
C2367 C2368 1.392 . S
C2368 H2344 0.949 . S
C2368 C2363 1.382 . S
C2368 C2367 1.392 . S
C2369 C2370 1.376 . S
C2369 C2374 1.386 . S
C2369 C2375 1.483 . S
C2370 H2345 0.949 . S
C2370 C2369 1.376 . S
C2370 C2371 1.397 . S
C2371 H2346 0.950 . S
C2371 C2370 1.397 . S
C2371 C2372 1.391 . S
C2372 C2371 1.391 . S
C2372 C2373 1.405 . S
C2373 H2347 0.950 . S
C2373 C2372 1.405 . S
C2373 C2374 1.367 . S
C2374 H2348 0.950 . S
C2374 C2369 1.386 . S
C2374 C2373 1.367 . S
C2375 C2369 1.483 . S
C2375 C2376 1.382 . S
C2375 C2377 1.403 . S
C2376 H2349 0.950 . S
C2376 C2362 1.411 . S
C2376 C2375 1.382 . S
C2377 C2361 1.411 . S
C2377 C2375 1.403 . S
C2377 C2378 1.489 . S
C2378 C2377 1.489 . S
C2378 C2379 1.383 . S
C2378 C2383 1.382 . S
C2379 H2350 0.950 . S
C2379 C2378 1.383 . S
C2379 C2380 1.395 . S
C2380 H2351 0.950 . S
C2380 C2379 1.395 . S
C2380 C2381 1.288 . S
C2381 C2380 1.288 . S
C2381 C2382 1.392 . S
C2382 H2352 0.951 . S
C2382 C2381 1.392 . S
C2382 C2383 1.392 . S
C2383 H2353 0.949 . S
C2383 C2378 1.382 . S
C2383 C2382 1.392 . S
H2384 C2403 0.949 . S
H2385 C2404 0.950 . S
H2386 C2406 0.950 . S
H2387 C2407 0.950 . S
H2388 C2409 0.950 . S
H2389 C2412 0.950 . S
H2390 C2413 0.950 . S
H2391 C2415 0.951 . S
H2392 C2416 0.949 . S
H2393 C2418 0.949 . S
H2394 C2419 0.950 . S
H2395 C2421 0.950 . S
H2396 C2422 0.950 . S
H2397 C2424 0.950 . S
H2398 C2427 0.950 . S
H2399 C2428 0.950 . S
H2400 C2430 0.951 . S
H2401 C2431 0.949 . S
C2402 C2403 1.376 . S
C2402 C2407 1.386 . S
C2402 C2408 1.483 . S
C2403 H2384 0.949 . S
C2403 C2402 1.376 . S
C2403 C2404 1.397 . S
C2404 H2385 0.950 . S
C2404 C2403 1.397 . S
C2404 C2405 1.391 . S
C2405 C2404 1.391 . S
C2405 C2406 1.405 . S
C2406 H2386 0.950 . S
C2406 C2405 1.405 . S
C2406 C2407 1.367 . S
C2407 H2387 0.950 . S
C2407 C2402 1.386 . S
C2407 C2406 1.367 . S
C2408 C2402 1.483 . S
C2408 C2409 1.382 . S
C2408 C2410 1.403 . S
C2409 H2388 0.950 . S
C2409 C2408 1.382 . S
C2409 C2425 1.411 . S
C2410 C2408 1.403 . S
C2410 C2411 1.489 . S
C2410 C2424 1.411 . S
C2411 C2410 1.489 . S
C2411 C2412 1.383 . S
C2411 C2416 1.382 . S
C2412 H2389 0.950 . S
C2412 C2411 1.383 . S
C2412 C2413 1.395 . S
C2413 H2390 0.950 . S
C2413 C2412 1.395 . S
C2413 C2414 1.288 . S
C2414 C2413 1.288 . S
C2414 C2415 1.392 . S
C2415 H2391 0.951 . S
C2415 C2414 1.392 . S
C2415 C2416 1.392 . S
C2416 H2392 0.949 . S
C2416 C2411 1.382 . S
C2416 C2415 1.392 . S
C2417 C2418 1.376 . S
C2417 C2422 1.386 . S
C2417 C2423 1.483 . S
C2418 H2393 0.949 . S
C2418 C2417 1.376 . S
C2418 C2419 1.397 . S
C2419 H2394 0.950 . S
C2419 C2418 1.397 . S
C2419 C2420 1.391 . S
C2420 C2419 1.391 . S
C2420 C2421 1.405 . S
C2421 H2395 0.950 . S
C2421 C2420 1.405 . S
C2421 C2422 1.367 . S
C2422 H2396 0.950 . S
C2422 C2417 1.386 . S
C2422 C2421 1.367 . S
C2423 C2417 1.483 . S
C2423 C2424 1.382 . S
C2423 C2425 1.403 . S
C2424 H2397 0.950 . S
C2424 C2410 1.411 . S
C2424 C2423 1.382 . S
C2425 C2409 1.411 . S
C2425 C2423 1.403 . S
C2425 C2426 1.489 . S
C2426 C2425 1.489 . S
C2426 C2427 1.383 . S
C2426 C2431 1.382 . S
C2427 H2398 0.950 . S
C2427 C2426 1.383 . S
C2427 C2428 1.395 . S
C2428 H2399 0.950 . S
C2428 C2427 1.395 . S
C2428 C2429 1.288 . S
C2429 C2428 1.288 . S
C2429 C2430 1.392 . S
C2430 H2400 0.951 . S
C2430 C2429 1.392 . S
C2430 C2431 1.392 . S
C2431 H2401 0.949 . S
C2431 C2426 1.382 . S
C2431 C2430 1.392 . S
H2432 C2450 0.951 . S
H2433 C2452 0.951 . S
H2434 C2454 0.950 . S
H2435 C2455 0.950 . S
H2436 C2457 0.950 . S
H2437 C2460 0.950 . S
H2438 C2461 0.950 . S
H2439 C2463 0.950 . S
H2440 C2464 0.950 . S
H2441 C2465 0.951 . S
H2442 C2467 0.951 . S
H2443 C2469 0.950 . S
H2444 C2470 0.950 . S
H2445 C2472 0.950 . S
H2446 C2475 0.950 . S
H2447 C2476 0.950 . S
H2448 C2478 0.950 . S
H2449 C2479 0.950 . S
C2450 H2432 0.951 . S
C2450 C2451 1.366 . S
C2450 C2452 1.388 . S
C2451 C2450 1.366 . S
C2451 C2455 1.385 . S
C2452 H2433 0.951 . S
C2452 C2450 1.388 . S
C2452 C2453 1.366 . S
C2453 C2452 1.366 . S
C2453 C2454 1.414 . S
C2453 C2456 1.499 . S
C2454 H2434 0.950 . S
C2454 C2453 1.414 . S
C2454 C2455 1.374 . S
C2455 H2435 0.950 . S
C2455 C2451 1.385 . S
C2455 C2454 1.374 . S
C2456 C2453 1.499 . S
C2456 C2457 1.373 . S
C2456 C2458 1.389 . S
C2457 H2436 0.950 . S
C2457 C2456 1.373 . S
C2457 C2473 1.377 . S
C2458 C2456 1.389 . S
C2458 C2459 1.524 . S
C2458 C2472 1.377 . S
C2459 C2458 1.524 . S
C2459 C2460 1.397 . S
C2459 C2464 1.363 . S
C2460 H2437 0.950 . S
C2460 C2459 1.397 . S
C2460 C2461 1.334 . S
C2461 H2438 0.950 . S
C2461 C2460 1.334 . S
C2461 C2462 1.287 . S
C2462 C2461 1.287 . S
C2462 C2463 1.524 . S
C2462 H2481 0.913 . S
C2463 H2439 0.950 . S
C2463 C2462 1.524 . S
C2463 C2464 1.415 . S
C2464 H2440 0.950 . S
C2464 C2459 1.363 . S
C2464 C2463 1.415 . S
C2465 H2441 0.951 . S
C2465 C2466 1.366 . S
C2465 C2467 1.388 . S
C2466 C2465 1.366 . S
C2466 C2470 1.385 . S
C2467 H2442 0.951 . S
C2467 C2465 1.388 . S
C2467 C2468 1.366 . S
C2468 C2467 1.366 . S
C2468 C2469 1.414 . S
C2468 C2471 1.499 . S
C2469 H2443 0.950 . S
C2469 C2468 1.414 . S
C2469 C2470 1.374 . S
C2470 H2444 0.950 . S
C2470 C2466 1.385 . S
C2470 C2469 1.374 . S
C2471 C2468 1.499 . S
C2471 C2472 1.373 . S
C2471 C2473 1.389 . S
C2472 H2445 0.950 . S
C2472 C2458 1.377 . S
C2472 C2471 1.373 . S
C2473 C2457 1.377 . S
C2473 C2471 1.389 . S
C2473 C2474 1.524 . S
C2474 C2473 1.524 . S
C2474 C2475 1.397 . S
C2474 C2479 1.363 . S
C2475 H2446 0.950 . S
C2475 C2474 1.397 . S
C2475 C2476 1.334 . S
C2476 H2447 0.950 . S
C2476 C2475 1.334 . S
C2476 C2477 1.287 . S
C2477 C2476 1.287 . S
C2477 C2478 1.524 . S
C2477 H2480 0.999 . S
C2478 H2448 0.950 . S
C2478 C2477 1.524 . S
C2478 C2479 1.415 . S
C2479 H2449 0.950 . S
C2479 C2474 1.363 . S
C2479 C2478 1.415 . S
H2480 C2477 0.999 . S
H2481 C2462 0.913 . S
H2482 C2500 0.951 . S
H2483 C2502 0.951 . S
H2484 C2504 0.950 . S
H2485 C2505 0.950 . S
H2486 C2507 0.950 . S
H2487 C2510 0.950 . S
H2488 C2511 0.950 . S
H2489 C2513 0.950 . S
H2490 C2514 0.950 . S
H2491 C2515 0.951 . S
H2492 C2517 0.951 . S
H2493 C2519 0.950 . S
H2494 C2520 0.950 . S
H2495 C2522 0.950 . S
H2496 C2525 0.950 . S
H2497 C2526 0.950 . S
H2498 C2528 0.950 . S
H2499 C2529 0.950 . S
C2500 H2482 0.951 . S
C2500 C2501 1.366 . S
C2500 C2502 1.388 . S
C2501 C2500 1.366 . S
C2501 C2505 1.385 . S
C2502 H2483 0.951 . S
C2502 C2500 1.388 . S
C2502 C2503 1.366 . S
C2503 C2502 1.366 . S
C2503 C2504 1.414 . S
C2503 C2506 1.499 . S
C2504 H2484 0.950 . S
C2504 C2503 1.414 . S
C2504 C2505 1.374 . S
C2505 H2485 0.950 . S
C2505 C2501 1.385 . S
C2505 C2504 1.374 . S
C2506 C2503 1.499 . S
C2506 C2507 1.373 . S
C2506 C2508 1.389 . S
C2507 H2486 0.950 . S
C2507 C2506 1.373 . S
C2507 C2523 1.377 . S
C2508 C2506 1.389 . S
C2508 C2509 1.524 . S
C2508 C2522 1.377 . S
C2509 C2508 1.524 . S
C2509 C2510 1.397 . S
C2509 C2514 1.363 . S
C2510 H2487 0.950 . S
C2510 C2509 1.397 . S
C2510 C2511 1.334 . S
C2511 H2488 0.950 . S
C2511 C2510 1.334 . S
C2511 C2512 1.287 . S
C2512 C2511 1.287 . S
C2512 C2513 1.524 . S
C2512 H2531 0.913 . S
C2513 H2489 0.950 . S
C2513 C2512 1.524 . S
C2513 C2514 1.415 . S
C2514 H2490 0.950 . S
C2514 C2509 1.363 . S
C2514 C2513 1.415 . S
C2515 H2491 0.951 . S
C2515 C2516 1.366 . S
C2515 C2517 1.388 . S
C2516 C2515 1.366 . S
C2516 C2520 1.385 . S
C2517 H2492 0.951 . S
C2517 C2515 1.388 . S
C2517 C2518 1.366 . S
C2518 C2517 1.366 . S
C2518 C2519 1.414 . S
C2518 C2521 1.499 . S
C2519 H2493 0.950 . S
C2519 C2518 1.414 . S
C2519 C2520 1.374 . S
C2520 H2494 0.950 . S
C2520 C2516 1.385 . S
C2520 C2519 1.374 . S
C2521 C2518 1.499 . S
C2521 C2522 1.373 . S
C2521 C2523 1.389 . S
C2522 H2495 0.950 . S
C2522 C2508 1.377 . S
C2522 C2521 1.373 . S
C2523 C2507 1.377 . S
C2523 C2521 1.389 . S
C2523 C2524 1.524 . S
C2524 C2523 1.524 . S
C2524 C2525 1.397 . S
C2524 C2529 1.363 . S
C2525 H2496 0.950 . S
C2525 C2524 1.397 . S
C2525 C2526 1.334 . S
C2526 H2497 0.950 . S
C2526 C2525 1.334 . S
C2526 C2527 1.287 . S
C2527 C2526 1.287 . S
C2527 C2528 1.524 . S
C2527 H2530 0.999 . S
C2528 H2498 0.950 . S
C2528 C2527 1.524 . S
C2528 C2529 1.415 . S
C2529 H2499 0.950 . S
C2529 C2524 1.363 . S
C2529 C2528 1.415 . S
H2530 C2527 0.999 . S
H2531 C2512 0.913 . S
H2532 C2550 0.951 . S
H2533 C2552 0.951 . S
H2534 C2554 0.950 . S
H2535 C2555 0.950 . S
H2536 C2557 0.950 . S
H2537 C2560 0.950 . S
H2538 C2561 0.950 . S
H2539 C2563 0.950 . S
H2540 C2564 0.950 . S
H2541 C2565 0.951 . S
H2542 C2567 0.951 . S
H2543 C2569 0.950 . S
H2544 C2570 0.950 . S
H2545 C2572 0.950 . S
H2546 C2575 0.950 . S
H2547 C2576 0.950 . S
H2548 C2578 0.950 . S
H2549 C2579 0.950 . S
C2550 H2532 0.951 . S
C2550 C2551 1.366 . S
C2550 C2552 1.388 . S
C2551 C2550 1.366 . S
C2551 C2555 1.385 . S
C2552 H2533 0.951 . S
C2552 C2550 1.388 . S
C2552 C2553 1.366 . S
C2553 C2552 1.366 . S
C2553 C2554 1.414 . S
C2553 C2556 1.499 . S
C2554 H2534 0.950 . S
C2554 C2553 1.414 . S
C2554 C2555 1.374 . S
C2555 H2535 0.950 . S
C2555 C2551 1.385 . S
C2555 C2554 1.374 . S
C2556 C2553 1.499 . S
C2556 C2557 1.373 . S
C2556 C2558 1.389 . S
C2557 H2536 0.950 . S
C2557 C2556 1.373 . S
C2557 C2573 1.377 . S
C2558 C2556 1.389 . S
C2558 C2559 1.524 . S
C2558 C2572 1.377 . S
C2559 C2558 1.524 . S
C2559 C2560 1.397 . S
C2559 C2564 1.363 . S
C2560 H2537 0.950 . S
C2560 C2559 1.397 . S
C2560 C2561 1.334 . S
C2561 H2538 0.950 . S
C2561 C2560 1.334 . S
C2561 C2562 1.287 . S
C2562 C2561 1.287 . S
C2562 C2563 1.524 . S
C2562 H2581 0.913 . S
C2563 H2539 0.950 . S
C2563 C2562 1.524 . S
C2563 C2564 1.415 . S
C2564 H2540 0.950 . S
C2564 C2559 1.363 . S
C2564 C2563 1.415 . S
C2565 H2541 0.951 . S
C2565 C2566 1.366 . S
C2565 C2567 1.388 . S
C2566 C2565 1.366 . S
C2566 C2570 1.385 . S
C2567 H2542 0.951 . S
C2567 C2565 1.388 . S
C2567 C2568 1.366 . S
C2568 C2567 1.366 . S
C2568 C2569 1.414 . S
C2568 C2571 1.499 . S
C2569 H2543 0.950 . S
C2569 C2568 1.414 . S
C2569 C2570 1.374 . S
C2570 H2544 0.950 . S
C2570 C2566 1.385 . S
C2570 C2569 1.374 . S
C2571 C2568 1.499 . S
C2571 C2572 1.373 . S
C2571 C2573 1.389 . S
C2572 H2545 0.950 . S
C2572 C2558 1.377 . S
C2572 C2571 1.373 . S
C2573 C2557 1.377 . S
C2573 C2571 1.389 . S
C2573 C2574 1.524 . S
C2574 C2573 1.524 . S
C2574 C2575 1.397 . S
C2574 C2579 1.363 . S
C2575 H2546 0.950 . S
C2575 C2574 1.397 . S
C2575 C2576 1.334 . S
C2576 H2547 0.950 . S
C2576 C2575 1.334 . S
C2576 C2577 1.287 . S
C2577 C2576 1.287 . S
C2577 C2578 1.524 . S
C2577 H2580 0.999 . S
C2578 H2548 0.950 . S
C2578 C2577 1.524 . S
C2578 C2579 1.415 . S
C2579 H2549 0.950 . S
C2579 C2574 1.363 . S
C2579 C2578 1.415 . S
H2580 C2577 0.999 . S
H2581 C2562 0.913 . S
H2582 C2600 0.951 . S
H2583 C2602 0.951 . S
H2584 C2604 0.950 . S
H2585 C2605 0.950 . S
H2586 C2607 0.950 . S
H2587 C2610 0.950 . S
H2588 C2611 0.950 . S
H2589 C2613 0.950 . S
H2590 C2614 0.950 . S
H2591 C2615 0.951 . S
H2592 C2617 0.951 . S
H2593 C2619 0.950 . S
H2594 C2620 0.950 . S
H2595 C2622 0.950 . S
H2596 C2625 0.950 . S
H2597 C2626 0.950 . S
H2598 C2628 0.950 . S
H2599 C2629 0.950 . S
C2600 H2582 0.951 . S
C2600 C2601 1.366 . S
C2600 C2602 1.388 . S
C2601 C2600 1.366 . S
C2601 C2605 1.385 . S
C2602 H2583 0.951 . S
C2602 C2600 1.388 . S
C2602 C2603 1.366 . S
C2603 C2602 1.366 . S
C2603 C2604 1.414 . S
C2603 C2606 1.499 . S
C2604 H2584 0.950 . S
C2604 C2603 1.414 . S
C2604 C2605 1.374 . S
C2605 H2585 0.950 . S
C2605 C2601 1.385 . S
C2605 C2604 1.374 . S
C2606 C2603 1.499 . S
C2606 C2607 1.373 . S
C2606 C2608 1.389 . S
C2607 H2586 0.950 . S
C2607 C2606 1.373 . S
C2607 C2623 1.377 . S
C2608 C2606 1.389 . S
C2608 C2609 1.524 . S
C2608 C2622 1.377 . S
C2609 C2608 1.524 . S
C2609 C2610 1.397 . S
C2609 C2614 1.363 . S
C2610 H2587 0.950 . S
C2610 C2609 1.397 . S
C2610 C2611 1.334 . S
C2611 H2588 0.950 . S
C2611 C2610 1.334 . S
C2611 C2612 1.287 . S
C2612 C2611 1.287 . S
C2612 C2613 1.524 . S
C2612 H2631 0.913 . S
C2613 H2589 0.950 . S
C2613 C2612 1.524 . S
C2613 C2614 1.415 . S
C2614 H2590 0.950 . S
C2614 C2609 1.363 . S
C2614 C2613 1.415 . S
C2615 H2591 0.951 . S
C2615 C2616 1.366 . S
C2615 C2617 1.388 . S
C2616 C2615 1.366 . S
C2616 C2620 1.385 . S
C2617 H2592 0.951 . S
C2617 C2615 1.388 . S
C2617 C2618 1.366 . S
C2618 C2617 1.366 . S
C2618 C2619 1.414 . S
C2618 C2621 1.499 . S
C2619 H2593 0.950 . S
C2619 C2618 1.414 . S
C2619 C2620 1.374 . S
C2620 H2594 0.950 . S
C2620 C2616 1.385 . S
C2620 C2619 1.374 . S
C2621 C2618 1.499 . S
C2621 C2622 1.373 . S
C2621 C2623 1.389 . S
C2622 H2595 0.950 . S
C2622 C2608 1.377 . S
C2622 C2621 1.373 . S
C2623 C2607 1.377 . S
C2623 C2621 1.389 . S
C2623 C2624 1.524 . S
C2624 C2623 1.524 . S
C2624 C2625 1.397 . S
C2624 C2629 1.363 . S
C2625 H2596 0.950 . S
C2625 C2624 1.397 . S
C2625 C2626 1.334 . S
C2626 H2597 0.950 . S
C2626 C2625 1.334 . S
C2626 C2627 1.287 . S
C2627 C2626 1.287 . S
C2627 C2628 1.524 . S
C2627 H2630 0.999 . S
C2628 H2598 0.950 . S
C2628 C2627 1.524 . S
C2628 C2629 1.415 . S
C2629 H2599 0.950 . S
C2629 C2624 1.363 . S
C2629 C2628 1.415 . S
H2630 C2627 0.999 . S
H2631 C2612 0.913 . S
H2632 C2650 0.951 . S
H2633 C2652 0.951 . S
H2634 C2654 0.950 . S
H2635 C2655 0.950 . S
H2636 C2657 0.950 . S
H2637 C2660 0.950 . S
H2638 C2661 0.950 . S
H2639 C2663 0.950 . S
H2640 C2664 0.950 . S
H2641 C2665 0.951 . S
H2642 C2667 0.951 . S
H2643 C2669 0.950 . S
H2644 C2670 0.950 . S
H2645 C2672 0.950 . S
H2646 C2675 0.950 . S
H2647 C2676 0.950 . S
H2648 C2678 0.950 . S
H2649 C2679 0.950 . S
C2650 H2632 0.951 . S
C2650 C2651 1.366 . S
C2650 C2652 1.388 . S
C2651 C2650 1.366 . S
C2651 C2655 1.385 . S
C2652 H2633 0.951 . S
C2652 C2650 1.388 . S
C2652 C2653 1.366 . S
C2653 C2652 1.366 . S
C2653 C2654 1.414 . S
C2653 C2656 1.499 . S
C2654 H2634 0.950 . S
C2654 C2653 1.414 . S
C2654 C2655 1.374 . S
C2655 H2635 0.950 . S
C2655 C2651 1.385 . S
C2655 C2654 1.374 . S
C2656 C2653 1.499 . S
C2656 C2657 1.373 . S
C2656 C2658 1.389 . S
C2657 H2636 0.950 . S
C2657 C2656 1.373 . S
C2657 C2673 1.377 . S
C2658 C2656 1.389 . S
C2658 C2659 1.524 . S
C2658 C2672 1.377 . S
C2659 C2658 1.524 . S
C2659 C2660 1.397 . S
C2659 C2664 1.363 . S
C2660 H2637 0.950 . S
C2660 C2659 1.397 . S
C2660 C2661 1.334 . S
C2661 H2638 0.950 . S
C2661 C2660 1.334 . S
C2661 C2662 1.287 . S
C2662 C2661 1.287 . S
C2662 C2663 1.524 . S
C2662 H2681 0.913 . S
C2663 H2639 0.950 . S
C2663 C2662 1.524 . S
C2663 C2664 1.415 . S
C2664 H2640 0.950 . S
C2664 C2659 1.363 . S
C2664 C2663 1.415 . S
C2665 H2641 0.951 . S
C2665 C2666 1.366 . S
C2665 C2667 1.388 . S
C2666 C2665 1.366 . S
C2666 C2670 1.385 . S
C2667 H2642 0.951 . S
C2667 C2665 1.388 . S
C2667 C2668 1.366 . S
C2668 C2667 1.366 . S
C2668 C2669 1.414 . S
C2668 C2671 1.499 . S
C2669 H2643 0.950 . S
C2669 C2668 1.414 . S
C2669 C2670 1.374 . S
C2670 H2644 0.950 . S
C2670 C2666 1.385 . S
C2670 C2669 1.374 . S
C2671 C2668 1.499 . S
C2671 C2672 1.373 . S
C2671 C2673 1.389 . S
C2672 H2645 0.950 . S
C2672 C2658 1.377 . S
C2672 C2671 1.373 . S
C2673 C2657 1.377 . S
C2673 C2671 1.389 . S
C2673 C2674 1.524 . S
C2674 C2673 1.524 . S
C2674 C2675 1.397 . S
C2674 C2679 1.363 . S
C2675 H2646 0.950 . S
C2675 C2674 1.397 . S
C2675 C2676 1.334 . S
C2676 H2647 0.950 . S
C2676 C2675 1.334 . S
C2676 C2677 1.287 . S
C2677 C2676 1.287 . S
C2677 C2678 1.524 . S
C2677 H2680 0.999 . S
C2678 H2648 0.950 . S
C2678 C2677 1.524 . S
C2678 C2679 1.415 . S
C2679 H2649 0.950 . S
C2679 C2674 1.363 . S
C2679 C2678 1.415 . S
H2680 C2677 0.999 . S
H2681 C2662 0.913 . S
H2682 C2700 0.951 . S
H2683 C2702 0.951 . S
H2684 C2704 0.950 . S
H2685 C2705 0.950 . S
H2686 C2707 0.950 . S
H2687 C2710 0.950 . S
H2688 C2711 0.950 . S
H2689 C2713 0.950 . S
H2690 C2714 0.950 . S
H2691 C2715 0.951 . S
H2692 C2717 0.951 . S
H2693 C2719 0.950 . S
H2694 C2720 0.950 . S
H2695 C2722 0.950 . S
H2696 C2725 0.950 . S
H2697 C2726 0.950 . S
H2698 C2728 0.950 . S
H2699 C2729 0.950 . S
C2700 H2682 0.951 . S
C2700 C2701 1.366 . S
C2700 C2702 1.388 . S
C2701 C2700 1.366 . S
C2701 C2705 1.385 . S
C2702 H2683 0.951 . S
C2702 C2700 1.388 . S
C2702 C2703 1.366 . S
C2703 C2702 1.366 . S
C2703 C2704 1.414 . S
C2703 C2706 1.499 . S
C2704 H2684 0.950 . S
C2704 C2703 1.414 . S
C2704 C2705 1.374 . S
C2705 H2685 0.950 . S
C2705 C2701 1.385 . S
C2705 C2704 1.374 . S
C2706 C2703 1.499 . S
C2706 C2707 1.373 . S
C2706 C2708 1.389 . S
C2707 H2686 0.950 . S
C2707 C2706 1.373 . S
C2707 C2723 1.377 . S
C2708 C2706 1.389 . S
C2708 C2709 1.524 . S
C2708 C2722 1.377 . S
C2709 C2708 1.524 . S
C2709 C2710 1.397 . S
C2709 C2714 1.363 . S
C2710 H2687 0.950 . S
C2710 C2709 1.397 . S
C2710 C2711 1.334 . S
C2711 H2688 0.950 . S
C2711 C2710 1.334 . S
C2711 C2712 1.287 . S
C2712 C2711 1.287 . S
C2712 C2713 1.524 . S
C2712 H2731 0.913 . S
C2713 H2689 0.950 . S
C2713 C2712 1.524 . S
C2713 C2714 1.415 . S
C2714 H2690 0.950 . S
C2714 C2709 1.363 . S
C2714 C2713 1.415 . S
C2715 H2691 0.951 . S
C2715 C2716 1.366 . S
C2715 C2717 1.388 . S
C2716 C2715 1.366 . S
C2716 C2720 1.385 . S
C2717 H2692 0.951 . S
C2717 C2715 1.388 . S
C2717 C2718 1.366 . S
C2718 C2717 1.366 . S
C2718 C2719 1.414 . S
C2718 C2721 1.499 . S
C2719 H2693 0.950 . S
C2719 C2718 1.414 . S
C2719 C2720 1.374 . S
C2720 H2694 0.950 . S
C2720 C2716 1.385 . S
C2720 C2719 1.374 . S
C2721 C2718 1.499 . S
C2721 C2722 1.373 . S
C2721 C2723 1.389 . S
C2722 H2695 0.950 . S
C2722 C2708 1.377 . S
C2722 C2721 1.373 . S
C2723 C2707 1.377 . S
C2723 C2721 1.389 . S
C2723 C2724 1.524 . S
C2724 C2723 1.524 . S
C2724 C2725 1.397 . S
C2724 C2729 1.363 . S
C2725 H2696 0.950 . S
C2725 C2724 1.397 . S
C2725 C2726 1.334 . S
C2726 H2697 0.950 . S
C2726 C2725 1.334 . S
C2726 C2727 1.287 . S
C2727 C2726 1.287 . S
C2727 C2728 1.524 . S
C2727 H2730 0.999 . S
C2728 H2698 0.950 . S
C2728 C2727 1.524 . S
C2728 C2729 1.415 . S
C2729 H2699 0.950 . S
C2729 C2724 1.363 . S
C2729 C2728 1.415 . S
H2730 C2727 0.999 . S
H2731 C2712 0.913 . S
H2732 C2750 0.951 . S
H2733 C2752 0.951 . S
H2734 C2754 0.950 . S
H2735 C2755 0.950 . S
H2736 C2757 0.950 . S
H2737 C2760 0.950 . S
H2738 C2761 0.950 . S
H2739 C2763 0.950 . S
H2740 C2764 0.950 . S
H2741 C2765 0.951 . S
H2742 C2767 0.951 . S
H2743 C2769 0.950 . S
H2744 C2770 0.950 . S
H2745 C2772 0.950 . S
H2746 C2775 0.950 . S
H2747 C2776 0.950 . S
H2748 C2778 0.950 . S
H2749 C2779 0.950 . S
C2750 H2732 0.951 . S
C2750 C2751 1.366 . S
C2750 C2752 1.388 . S
C2751 C2750 1.366 . S
C2751 C2755 1.385 . S
C2752 H2733 0.951 . S
C2752 C2750 1.388 . S
C2752 C2753 1.366 . S
C2753 C2752 1.366 . S
C2753 C2754 1.414 . S
C2753 C2756 1.499 . S
C2754 H2734 0.950 . S
C2754 C2753 1.414 . S
C2754 C2755 1.374 . S
C2755 H2735 0.950 . S
C2755 C2751 1.385 . S
C2755 C2754 1.374 . S
C2756 C2753 1.499 . S
C2756 C2757 1.373 . S
C2756 C2758 1.389 . S
C2757 H2736 0.950 . S
C2757 C2756 1.373 . S
C2757 C2773 1.377 . S
C2758 C2756 1.389 . S
C2758 C2759 1.524 . S
C2758 C2772 1.377 . S
C2759 C2758 1.524 . S
C2759 C2760 1.397 . S
C2759 C2764 1.363 . S
C2760 H2737 0.950 . S
C2760 C2759 1.397 . S
C2760 C2761 1.334 . S
C2761 H2738 0.950 . S
C2761 C2760 1.334 . S
C2761 C2762 1.287 . S
C2762 C2761 1.287 . S
C2762 C2763 1.524 . S
C2762 H2781 0.913 . S
C2763 H2739 0.950 . S
C2763 C2762 1.524 . S
C2763 C2764 1.415 . S
C2764 H2740 0.950 . S
C2764 C2759 1.363 . S
C2764 C2763 1.415 . S
C2765 H2741 0.951 . S
C2765 C2766 1.366 . S
C2765 C2767 1.388 . S
C2766 C2765 1.366 . S
C2766 C2770 1.385 . S
C2767 H2742 0.951 . S
C2767 C2765 1.388 . S
C2767 C2768 1.366 . S
C2768 C2767 1.366 . S
C2768 C2769 1.414 . S
C2768 C2771 1.499 . S
C2769 H2743 0.950 . S
C2769 C2768 1.414 . S
C2769 C2770 1.374 . S
C2770 H2744 0.950 . S
C2770 C2766 1.385 . S
C2770 C2769 1.374 . S
C2771 C2768 1.499 . S
C2771 C2772 1.373 . S
C2771 C2773 1.389 . S
C2772 H2745 0.950 . S
C2772 C2758 1.377 . S
C2772 C2771 1.373 . S
C2773 C2757 1.377 . S
C2773 C2771 1.389 . S
C2773 C2774 1.524 . S
C2774 C2773 1.524 . S
C2774 C2775 1.397 . S
C2774 C2779 1.363 . S
C2775 H2746 0.950 . S
C2775 C2774 1.397 . S
C2775 C2776 1.334 . S
C2776 H2747 0.950 . S
C2776 C2775 1.334 . S
C2776 C2777 1.287 . S
C2777 C2776 1.287 . S
C2777 C2778 1.524 . S
C2777 H2780 0.999 . S
C2778 H2748 0.950 . S
C2778 C2777 1.524 . S
C2778 C2779 1.415 . S
C2779 H2749 0.950 . S
C2779 C2774 1.363 . S
C2779 C2778 1.415 . S
H2780 C2777 0.999 . S
H2781 C2762 0.913 . S
H2782 C2800 0.951 . S
H2783 C2802 0.951 . S
H2784 C2804 0.950 . S
H2785 C2805 0.950 . S
H2786 C2807 0.950 . S
H2787 C2810 0.950 . S
H2788 C2811 0.950 . S
H2789 C2813 0.950 . S
H2790 C2814 0.950 . S
H2791 C2815 0.951 . S
H2792 C2817 0.951 . S
H2793 C2819 0.950 . S
H2794 C2820 0.950 . S
H2795 C2822 0.950 . S
H2796 C2825 0.950 . S
H2797 C2826 0.950 . S
H2798 C2828 0.950 . S
H2799 C2829 0.950 . S
C2800 H2782 0.951 . S
C2800 C2801 1.366 . S
C2800 C2802 1.388 . S
C2801 C2800 1.366 . S
C2801 C2805 1.385 . S
C2802 H2783 0.951 . S
C2802 C2800 1.388 . S
C2802 C2803 1.366 . S
C2803 C2802 1.366 . S
C2803 C2804 1.414 . S
C2803 C2806 1.499 . S
C2804 H2784 0.950 . S
C2804 C2803 1.414 . S
C2804 C2805 1.374 . S
C2805 H2785 0.950 . S
C2805 C2801 1.385 . S
C2805 C2804 1.374 . S
C2806 C2803 1.499 . S
C2806 C2807 1.373 . S
C2806 C2808 1.389 . S
C2807 H2786 0.950 . S
C2807 C2806 1.373 . S
C2807 C2823 1.377 . S
C2808 C2806 1.389 . S
C2808 C2809 1.524 . S
C2808 C2822 1.377 . S
C2809 C2808 1.524 . S
C2809 C2810 1.397 . S
C2809 C2814 1.363 . S
C2810 H2787 0.950 . S
C2810 C2809 1.397 . S
C2810 C2811 1.334 . S
C2811 H2788 0.950 . S
C2811 C2810 1.334 . S
C2811 C2812 1.287 . S
C2812 C2811 1.287 . S
C2812 C2813 1.524 . S
C2812 H2831 0.913 . S
C2813 H2789 0.950 . S
C2813 C2812 1.524 . S
C2813 C2814 1.415 . S
C2814 H2790 0.950 . S
C2814 C2809 1.363 . S
C2814 C2813 1.415 . S
C2815 H2791 0.951 . S
C2815 C2816 1.366 . S
C2815 C2817 1.388 . S
C2816 C2815 1.366 . S
C2816 C2820 1.385 . S
C2817 H2792 0.951 . S
C2817 C2815 1.388 . S
C2817 C2818 1.366 . S
C2818 C2817 1.366 . S
C2818 C2819 1.414 . S
C2818 C2821 1.499 . S
C2819 H2793 0.950 . S
C2819 C2818 1.414 . S
C2819 C2820 1.374 . S
C2820 H2794 0.950 . S
C2820 C2816 1.385 . S
C2820 C2819 1.374 . S
C2821 C2818 1.499 . S
C2821 C2822 1.373 . S
C2821 C2823 1.389 . S
C2822 H2795 0.950 . S
C2822 C2808 1.377 . S
C2822 C2821 1.373 . S
C2823 C2807 1.377 . S
C2823 C2821 1.389 . S
C2823 C2824 1.524 . S
C2824 C2823 1.524 . S
C2824 C2825 1.397 . S
C2824 C2829 1.363 . S
C2825 H2796 0.950 . S
C2825 C2824 1.397 . S
C2825 C2826 1.334 . S
C2826 H2797 0.950 . S
C2826 C2825 1.334 . S
C2826 C2827 1.287 . S
C2827 C2826 1.287 . S
C2827 C2828 1.524 . S
C2827 H2830 0.999 . S
C2828 H2798 0.950 . S
C2828 C2827 1.524 . S
C2828 C2829 1.415 . S
C2829 H2799 0.950 . S
C2829 C2824 1.363 . S
C2829 C2828 1.415 . S
H2830 C2827 0.999 . S
H2831 C2812 0.913 . S
H2832 C2850 0.951 . S
H2833 C2852 0.951 . S
H2834 C2854 0.950 . S
H2835 C2855 0.950 . S
H2836 C2857 0.950 . S
H2837 C2860 0.950 . S
H2838 C2861 0.950 . S
H2839 C2863 0.950 . S
H2840 C2864 0.950 . S
H2841 C2865 0.951 . S
H2842 C2867 0.951 . S
H2843 C2869 0.950 . S
H2844 C2870 0.950 . S
H2845 C2872 0.950 . S
H2846 C2875 0.950 . S
H2847 C2876 0.950 . S
H2848 C2878 0.950 . S
H2849 C2879 0.950 . S
C2850 H2832 0.951 . S
C2850 C2851 1.366 . S
C2850 C2852 1.388 . S
C2851 C2850 1.366 . S
C2851 C2855 1.385 . S
C2852 H2833 0.951 . S
C2852 C2850 1.388 . S
C2852 C2853 1.366 . S
C2853 C2852 1.366 . S
C2853 C2854 1.414 . S
C2853 C2856 1.499 . S
C2854 H2834 0.950 . S
C2854 C2853 1.414 . S
C2854 C2855 1.374 . S
C2855 H2835 0.950 . S
C2855 C2851 1.385 . S
C2855 C2854 1.374 . S
C2856 C2853 1.499 . S
C2856 C2857 1.373 . S
C2856 C2858 1.389 . S
C2857 H2836 0.950 . S
C2857 C2856 1.373 . S
C2857 C2873 1.377 . S
C2858 C2856 1.389 . S
C2858 C2859 1.524 . S
C2858 C2872 1.377 . S
C2859 C2858 1.524 . S
C2859 C2860 1.397 . S
C2859 C2864 1.363 . S
C2860 H2837 0.950 . S
C2860 C2859 1.397 . S
C2860 C2861 1.334 . S
C2861 H2838 0.950 . S
C2861 C2860 1.334 . S
C2861 C2862 1.287 . S
C2862 C2861 1.287 . S
C2862 C2863 1.524 . S
C2862 H2881 0.913 . S
C2863 H2839 0.950 . S
C2863 C2862 1.524 . S
C2863 C2864 1.415 . S
C2864 H2840 0.950 . S
C2864 C2859 1.363 . S
C2864 C2863 1.415 . S
C2865 H2841 0.951 . S
C2865 C2866 1.366 . S
C2865 C2867 1.388 . S
C2866 C2865 1.366 . S
C2866 C2870 1.385 . S
C2867 H2842 0.951 . S
C2867 C2865 1.388 . S
C2867 C2868 1.366 . S
C2868 C2867 1.366 . S
C2868 C2869 1.414 . S
C2868 C2871 1.499 . S
C2869 H2843 0.950 . S
C2869 C2868 1.414 . S
C2869 C2870 1.374 . S
C2870 H2844 0.950 . S
C2870 C2866 1.385 . S
C2870 C2869 1.374 . S
C2871 C2868 1.499 . S
C2871 C2872 1.373 . S
C2871 C2873 1.389 . S
C2872 H2845 0.950 . S
C2872 C2858 1.377 . S
C2872 C2871 1.373 . S
C2873 C2857 1.377 . S
C2873 C2871 1.389 . S
C2873 C2874 1.524 . S
C2874 C2873 1.524 . S
C2874 C2875 1.397 . S
C2874 C2879 1.363 . S
C2875 H2846 0.950 . S
C2875 C2874 1.397 . S
C2875 C2876 1.334 . S
C2876 H2847 0.950 . S
C2876 C2875 1.334 . S
C2876 C2877 1.287 . S
C2877 C2876 1.287 . S
C2877 C2878 1.524 . S
C2877 H2880 0.999 . S
C2878 H2848 0.950 . S
C2878 C2877 1.524 . S
C2878 C2879 1.415 . S
C2879 H2849 0.950 . S
C2879 C2874 1.363 . S
C2879 C2878 1.415 . S
H2880 C2877 0.999 . S
H2881 C2862 0.913 . S
H2882 C2900 0.951 . S
H2883 C2902 0.951 . S
H2884 C2904 0.950 . S
H2885 C2905 0.950 . S
H2886 C2907 0.950 . S
H2887 C2910 0.950 . S
H2888 C2911 0.950 . S
H2889 C2913 0.950 . S
H2890 C2914 0.950 . S
H2891 C2915 0.951 . S
H2892 C2917 0.951 . S
H2893 C2919 0.950 . S
H2894 C2920 0.950 . S
H2895 C2922 0.950 . S
H2896 C2925 0.950 . S
H2897 C2926 0.950 . S
H2898 C2928 0.950 . S
H2899 C2929 0.950 . S
C2900 H2882 0.951 . S
C2900 C2901 1.366 . S
C2900 C2902 1.388 . S
C2901 C2900 1.366 . S
C2901 C2905 1.385 . S
C2902 H2883 0.951 . S
C2902 C2900 1.388 . S
C2902 C2903 1.366 . S
C2903 C2902 1.366 . S
C2903 C2904 1.414 . S
C2903 C2906 1.499 . S
C2904 H2884 0.950 . S
C2904 C2903 1.414 . S
C2904 C2905 1.374 . S
C2905 H2885 0.950 . S
C2905 C2901 1.385 . S
C2905 C2904 1.374 . S
C2906 C2903 1.499 . S
C2906 C2907 1.373 . S
C2906 C2908 1.389 . S
C2907 H2886 0.950 . S
C2907 C2906 1.373 . S
C2907 C2923 1.377 . S
C2908 C2906 1.389 . S
C2908 C2909 1.524 . S
C2908 C2922 1.377 . S
C2909 C2908 1.524 . S
C2909 C2910 1.397 . S
C2909 C2914 1.363 . S
C2910 H2887 0.950 . S
C2910 C2909 1.397 . S
C2910 C2911 1.334 . S
C2911 H2888 0.950 . S
C2911 C2910 1.334 . S
C2911 C2912 1.287 . S
C2912 C2911 1.287 . S
C2912 C2913 1.524 . S
C2912 H2931 0.913 . S
C2913 H2889 0.950 . S
C2913 C2912 1.524 . S
C2913 C2914 1.415 . S
C2914 H2890 0.950 . S
C2914 C2909 1.363 . S
C2914 C2913 1.415 . S
C2915 H2891 0.951 . S
C2915 C2916 1.366 . S
C2915 C2917 1.388 . S
C2916 C2915 1.366 . S
C2916 C2920 1.385 . S
C2917 H2892 0.951 . S
C2917 C2915 1.388 . S
C2917 C2918 1.366 . S
C2918 C2917 1.366 . S
C2918 C2919 1.414 . S
C2918 C2921 1.499 . S
C2919 H2893 0.950 . S
C2919 C2918 1.414 . S
C2919 C2920 1.374 . S
C2920 H2894 0.950 . S
C2920 C2916 1.385 . S
C2920 C2919 1.374 . S
C2921 C2918 1.499 . S
C2921 C2922 1.373 . S
C2921 C2923 1.389 . S
C2922 H2895 0.950 . S
C2922 C2908 1.377 . S
C2922 C2921 1.373 . S
C2923 C2907 1.377 . S
C2923 C2921 1.389 . S
C2923 C2924 1.524 . S
C2924 C2923 1.524 . S
C2924 C2925 1.397 . S
C2924 C2929 1.363 . S
C2925 H2896 0.950 . S
C2925 C2924 1.397 . S
C2925 C2926 1.334 . S
C2926 H2897 0.950 . S
C2926 C2925 1.334 . S
C2926 C2927 1.287 . S
C2927 C2926 1.287 . S
C2927 C2928 1.524 . S
C2927 H2930 0.999 . S
C2928 H2898 0.950 . S
C2928 C2927 1.524 . S
C2928 C2929 1.415 . S
C2929 H2899 0.950 . S
C2929 C2924 1.363 . S
C2929 C2928 1.415 . S
H2930 C2927 0.999 . S
H2931 C2912 0.913 . S
H2932 C2950 0.951 . S
H2933 C2952 0.951 . S
H2934 C2954 0.950 . S
H2935 C2955 0.950 . S
H2936 C2957 0.950 . S
H2937 C2960 0.950 . S
H2938 C2961 0.950 . S
H2939 C2963 0.950 . S
H2940 C2964 0.950 . S
H2941 C2965 0.951 . S
H2942 C2967 0.951 . S
H2943 C2969 0.950 . S
H2944 C2970 0.950 . S
H2945 C2972 0.950 . S
H2946 C2975 0.950 . S
H2947 C2976 0.950 . S
H2948 C2978 0.950 . S
H2949 C2979 0.950 . S
C2950 H2932 0.951 . S
C2950 C2951 1.366 . S
C2950 C2952 1.388 . S
C2951 C2950 1.366 . S
C2951 C2955 1.385 . S
C2952 H2933 0.951 . S
C2952 C2950 1.388 . S
C2952 C2953 1.366 . S
C2953 C2952 1.366 . S
C2953 C2954 1.414 . S
C2953 C2956 1.499 . S
C2954 H2934 0.950 . S
C2954 C2953 1.414 . S
C2954 C2955 1.374 . S
C2955 H2935 0.950 . S
C2955 C2951 1.385 . S
C2955 C2954 1.374 . S
C2956 C2953 1.499 . S
C2956 C2957 1.373 . S
C2956 C2958 1.389 . S
C2957 H2936 0.950 . S
C2957 C2956 1.373 . S
C2957 C2973 1.377 . S
C2958 C2956 1.389 . S
C2958 C2959 1.524 . S
C2958 C2972 1.377 . S
C2959 C2958 1.524 . S
C2959 C2960 1.397 . S
C2959 C2964 1.363 . S
C2960 H2937 0.950 . S
C2960 C2959 1.397 . S
C2960 C2961 1.334 . S
C2961 H2938 0.950 . S
C2961 C2960 1.334 . S
C2961 C2962 1.287 . S
C2962 C2961 1.287 . S
C2962 C2963 1.524 . S
C2962 H2981 0.913 . S
C2963 H2939 0.950 . S
C2963 C2962 1.524 . S
C2963 C2964 1.415 . S
C2964 H2940 0.950 . S
C2964 C2959 1.363 . S
C2964 C2963 1.415 . S
C2965 H2941 0.951 . S
C2965 C2966 1.366 . S
C2965 C2967 1.388 . S
C2966 C2965 1.366 . S
C2966 C2970 1.385 . S
C2967 H2942 0.951 . S
C2967 C2965 1.388 . S
C2967 C2968 1.366 . S
C2968 C2967 1.366 . S
C2968 C2969 1.414 . S
C2968 C2971 1.499 . S
C2969 H2943 0.950 . S
C2969 C2968 1.414 . S
C2969 C2970 1.374 . S
C2970 H2944 0.950 . S
C2970 C2966 1.385 . S
C2970 C2969 1.374 . S
C2971 C2968 1.499 . S
C2971 C2972 1.373 . S
C2971 C2973 1.389 . S
C2972 H2945 0.950 . S
C2972 C2958 1.377 . S
C2972 C2971 1.373 . S
C2973 C2957 1.377 . S
C2973 C2971 1.389 . S
C2973 C2974 1.524 . S
C2974 C2973 1.524 . S
C2974 C2975 1.397 . S
C2974 C2979 1.363 . S
C2975 H2946 0.950 . S
C2975 C2974 1.397 . S
C2975 C2976 1.334 . S
C2976 H2947 0.950 . S
C2976 C2975 1.334 . S
C2976 C2977 1.287 . S
C2977 C2976 1.287 . S
C2977 C2978 1.524 . S
C2977 H2980 0.999 . S
C2978 H2948 0.950 . S
C2978 C2977 1.524 . S
C2978 C2979 1.415 . S
C2979 H2949 0.950 . S
C2979 C2974 1.363 . S
C2979 C2978 1.415 . S
H2980 C2977 0.999 . S
H2981 C2962 0.913 . S
H2982 C3000 0.951 . S
H2983 C3002 0.951 . S
H2984 C3004 0.950 . S
H2985 C3005 0.950 . S
H2986 C3007 0.950 . S
H2987 C3010 0.950 . S
H2988 C3011 0.950 . S
H2989 C3013 0.950 . S
H2990 C3014 0.950 . S
H2991 C3015 0.951 . S
H2992 C3017 0.951 . S
H2993 C3019 0.950 . S
H2994 C3020 0.950 . S
H2995 C3022 0.950 . S
H2996 C3025 0.950 . S
H2997 C3026 0.950 . S
H2998 C3028 0.950 . S
H2999 C3029 0.950 . S
C3000 H2982 0.951 . S
C3000 C3001 1.366 . S
C3000 C3002 1.388 . S
C3001 C3000 1.366 . S
C3001 C3005 1.385 . S
C3002 H2983 0.951 . S
C3002 C3000 1.388 . S
C3002 C3003 1.366 . S
C3003 C3002 1.366 . S
C3003 C3004 1.414 . S
C3003 C3006 1.499 . S
C3004 H2984 0.950 . S
C3004 C3003 1.414 . S
C3004 C3005 1.374 . S
C3005 H2985 0.950 . S
C3005 C3001 1.385 . S
C3005 C3004 1.374 . S
C3006 C3003 1.499 . S
C3006 C3007 1.373 . S
C3006 C3008 1.389 . S
C3007 H2986 0.950 . S
C3007 C3006 1.373 . S
C3007 C3023 1.377 . S
C3008 C3006 1.389 . S
C3008 C3009 1.524 . S
C3008 C3022 1.377 . S
C3009 C3008 1.524 . S
C3009 C3010 1.397 . S
C3009 C3014 1.363 . S
C3010 H2987 0.950 . S
C3010 C3009 1.397 . S
C3010 C3011 1.334 . S
C3011 H2988 0.950 . S
C3011 C3010 1.334 . S
C3011 C3012 1.287 . S
C3012 C3011 1.287 . S
C3012 C3013 1.524 . S
C3012 H3031 0.913 . S
C3013 H2989 0.950 . S
C3013 C3012 1.524 . S
C3013 C3014 1.415 . S
C3014 H2990 0.950 . S
C3014 C3009 1.363 . S
C3014 C3013 1.415 . S
C3015 H2991 0.951 . S
C3015 C3016 1.366 . S
C3015 C3017 1.388 . S
C3016 C3015 1.366 . S
C3016 C3020 1.385 . S
C3017 H2992 0.951 . S
C3017 C3015 1.388 . S
C3017 C3018 1.366 . S
C3018 C3017 1.366 . S
C3018 C3019 1.414 . S
C3018 C3021 1.499 . S
C3019 H2993 0.950 . S
C3019 C3018 1.414 . S
C3019 C3020 1.374 . S
C3020 H2994 0.950 . S
C3020 C3016 1.385 . S
C3020 C3019 1.374 . S
C3021 C3018 1.499 . S
C3021 C3022 1.373 . S
C3021 C3023 1.389 . S
C3022 H2995 0.950 . S
C3022 C3008 1.377 . S
C3022 C3021 1.373 . S
C3023 C3007 1.377 . S
C3023 C3021 1.389 . S
C3023 C3024 1.524 . S
C3024 C3023 1.524 . S
C3024 C3025 1.397 . S
C3024 C3029 1.363 . S
C3025 H2996 0.950 . S
C3025 C3024 1.397 . S
C3025 C3026 1.334 . S
C3026 H2997 0.950 . S
C3026 C3025 1.334 . S
C3026 C3027 1.287 . S
C3027 C3026 1.287 . S
C3027 C3028 1.524 . S
C3027 H3030 0.999 . S
C3028 H2998 0.950 . S
C3028 C3027 1.524 . S
C3028 C3029 1.415 . S
C3029 H2999 0.950 . S
C3029 C3024 1.363 . S
C3029 C3028 1.415 . S
H3030 C3027 0.999 . S
H3031 C3012 0.913 . S
H3032 C3050 0.951 . S
H3033 C3052 0.951 . S
H3034 C3054 0.950 . S
H3035 C3055 0.950 . S
H3036 C3057 0.950 . S
H3037 C3060 0.950 . S
H3038 C3061 0.950 . S
H3039 C3063 0.950 . S
H3040 C3064 0.950 . S
H3041 C3065 0.951 . S
H3042 C3067 0.951 . S
H3043 C3069 0.950 . S
H3044 C3070 0.950 . S
H3045 C3072 0.950 . S
H3046 C3075 0.950 . S
H3047 C3076 0.950 . S
H3048 C3078 0.950 . S
H3049 C3079 0.950 . S
C3050 H3032 0.951 . S
C3050 C3051 1.366 . S
C3050 C3052 1.388 . S
C3051 C3050 1.366 . S
C3051 C3055 1.385 . S
C3052 H3033 0.951 . S
C3052 C3050 1.388 . S
C3052 C3053 1.366 . S
C3053 C3052 1.366 . S
C3053 C3054 1.414 . S
C3053 C3056 1.499 . S
C3054 H3034 0.950 . S
C3054 C3053 1.414 . S
C3054 C3055 1.374 . S
C3055 H3035 0.950 . S
C3055 C3051 1.385 . S
C3055 C3054 1.374 . S
C3056 C3053 1.499 . S
C3056 C3057 1.373 . S
C3056 C3058 1.389 . S
C3057 H3036 0.950 . S
C3057 C3056 1.373 . S
C3057 C3073 1.377 . S
C3058 C3056 1.389 . S
C3058 C3059 1.524 . S
C3058 C3072 1.377 . S
C3059 C3058 1.524 . S
C3059 C3060 1.397 . S
C3059 C3064 1.363 . S
C3060 H3037 0.950 . S
C3060 C3059 1.397 . S
C3060 C3061 1.334 . S
C3061 H3038 0.950 . S
C3061 C3060 1.334 . S
C3061 C3062 1.287 . S
C3062 C3061 1.287 . S
C3062 C3063 1.524 . S
C3062 H3081 0.913 . S
C3063 H3039 0.950 . S
C3063 C3062 1.524 . S
C3063 C3064 1.415 . S
C3064 H3040 0.950 . S
C3064 C3059 1.363 . S
C3064 C3063 1.415 . S
C3065 H3041 0.951 . S
C3065 C3066 1.366 . S
C3065 C3067 1.388 . S
C3066 C3065 1.366 . S
C3066 C3070 1.385 . S
C3067 H3042 0.951 . S
C3067 C3065 1.388 . S
C3067 C3068 1.366 . S
C3068 C3067 1.366 . S
C3068 C3069 1.414 . S
C3068 C3071 1.499 . S
C3069 H3043 0.950 . S
C3069 C3068 1.414 . S
C3069 C3070 1.374 . S
C3070 H3044 0.950 . S
C3070 C3066 1.385 . S
C3070 C3069 1.374 . S
C3071 C3068 1.499 . S
C3071 C3072 1.373 . S
C3071 C3073 1.389 . S
C3072 H3045 0.950 . S
C3072 C3058 1.377 . S
C3072 C3071 1.373 . S
C3073 C3057 1.377 . S
C3073 C3071 1.389 . S
C3073 C3074 1.524 . S
C3074 C3073 1.524 . S
C3074 C3075 1.397 . S
C3074 C3079 1.363 . S
C3075 H3046 0.950 . S
C3075 C3074 1.397 . S
C3075 C3076 1.334 . S
C3076 H3047 0.950 . S
C3076 C3075 1.334 . S
C3076 C3077 1.287 . S
C3077 C3076 1.287 . S
C3077 C3078 1.524 . S
C3077 H3080 0.999 . S
C3078 H3048 0.950 . S
C3078 C3077 1.524 . S
C3078 C3079 1.415 . S
C3079 H3049 0.950 . S
C3079 C3074 1.363 . S
C3079 C3078 1.415 . S
H3080 C3077 0.999 . S
H3081 C3062 0.913 . S
H3082 C3100 0.951 . S
H3083 C3102 0.951 . S
H3084 C3104 0.950 . S
H3085 C3105 0.950 . S
H3086 C3107 0.950 . S
H3087 C3110 0.950 . S
H3088 C3111 0.950 . S
H3089 C3113 0.950 . S
H3090 C3114 0.950 . S
H3091 C3115 0.951 . S
H3092 C3117 0.951 . S
H3093 C3119 0.950 . S
H3094 C3120 0.950 . S
H3095 C3122 0.950 . S
H3096 C3125 0.950 . S
H3097 C3126 0.950 . S
H3098 C3128 0.950 . S
H3099 C3129 0.950 . S
C3100 H3082 0.951 . S
C3100 C3101 1.366 . S
C3100 C3102 1.388 . S
C3101 C3100 1.366 . S
C3101 C3105 1.385 . S
C3102 H3083 0.951 . S
C3102 C3100 1.388 . S
C3102 C3103 1.366 . S
C3103 C3102 1.366 . S
C3103 C3104 1.414 . S
C3103 C3106 1.499 . S
C3104 H3084 0.950 . S
C3104 C3103 1.414 . S
C3104 C3105 1.374 . S
C3105 H3085 0.950 . S
C3105 C3101 1.385 . S
C3105 C3104 1.374 . S
C3106 C3103 1.499 . S
C3106 C3107 1.373 . S
C3106 C3108 1.389 . S
C3107 H3086 0.950 . S
C3107 C3106 1.373 . S
C3107 C3123 1.377 . S
C3108 C3106 1.389 . S
C3108 C3109 1.524 . S
C3108 C3122 1.377 . S
C3109 C3108 1.524 . S
C3109 C3110 1.397 . S
C3109 C3114 1.363 . S
C3110 H3087 0.950 . S
C3110 C3109 1.397 . S
C3110 C3111 1.334 . S
C3111 H3088 0.950 . S
C3111 C3110 1.334 . S
C3111 C3112 1.287 . S
C3112 C3111 1.287 . S
C3112 C3113 1.524 . S
C3112 H3131 0.913 . S
C3113 H3089 0.950 . S
C3113 C3112 1.524 . S
C3113 C3114 1.415 . S
C3114 H3090 0.950 . S
C3114 C3109 1.363 . S
C3114 C3113 1.415 . S
C3115 H3091 0.951 . S
C3115 C3116 1.366 . S
C3115 C3117 1.388 . S
C3116 C3115 1.366 . S
C3116 C3120 1.385 . S
C3117 H3092 0.951 . S
C3117 C3115 1.388 . S
C3117 C3118 1.366 . S
C3118 C3117 1.366 . S
C3118 C3119 1.414 . S
C3118 C3121 1.499 . S
C3119 H3093 0.950 . S
C3119 C3118 1.414 . S
C3119 C3120 1.374 . S
C3120 H3094 0.950 . S
C3120 C3116 1.385 . S
C3120 C3119 1.374 . S
C3121 C3118 1.499 . S
C3121 C3122 1.373 . S
C3121 C3123 1.389 . S
C3122 H3095 0.950 . S
C3122 C3108 1.377 . S
C3122 C3121 1.373 . S
C3123 C3107 1.377 . S
C3123 C3121 1.389 . S
C3123 C3124 1.524 . S
C3124 C3123 1.524 . S
C3124 C3125 1.397 . S
C3124 C3129 1.363 . S
C3125 H3096 0.950 . S
C3125 C3124 1.397 . S
C3125 C3126 1.334 . S
C3126 H3097 0.950 . S
C3126 C3125 1.334 . S
C3126 C3127 1.287 . S
C3127 C3126 1.287 . S
C3127 C3128 1.524 . S
C3127 H3130 0.999 . S
C3128 H3098 0.950 . S
C3128 C3127 1.524 . S
C3128 C3129 1.415 . S
C3129 H3099 0.950 . S
C3129 C3124 1.363 . S
C3129 C3128 1.415 . S
H3130 C3127 0.999 . S
H3131 C3112 0.913 . S
H3132 C3150 0.951 . S
H3133 C3152 0.951 . S
H3134 C3154 0.950 . S
H3135 C3155 0.950 . S
H3136 C3157 0.950 . S
H3137 C3160 0.950 . S
H3138 C3161 0.950 . S
H3139 C3163 0.950 . S
H3140 C3164 0.950 . S
H3141 C3165 0.951 . S
H3142 C3167 0.951 . S
H3143 C3169 0.950 . S
H3144 C3170 0.950 . S
H3145 C3172 0.950 . S
H3146 C3175 0.950 . S
H3147 C3176 0.950 . S
H3148 C3178 0.950 . S
H3149 C3179 0.950 . S
C3150 H3132 0.951 . S
C3150 C3151 1.366 . S
C3150 C3152 1.388 . S
C3151 C3150 1.366 . S
C3151 C3155 1.385 . S
C3152 H3133 0.951 . S
C3152 C3150 1.388 . S
C3152 C3153 1.366 . S
C3153 C3152 1.366 . S
C3153 C3154 1.414 . S
C3153 C3156 1.499 . S
C3154 H3134 0.950 . S
C3154 C3153 1.414 . S
C3154 C3155 1.374 . S
C3155 H3135 0.950 . S
C3155 C3151 1.385 . S
C3155 C3154 1.374 . S
C3156 C3153 1.499 . S
C3156 C3157 1.373 . S
C3156 C3158 1.389 . S
C3157 H3136 0.950 . S
C3157 C3156 1.373 . S
C3157 C3173 1.377 . S
C3158 C3156 1.389 . S
C3158 C3159 1.524 . S
C3158 C3172 1.377 . S
C3159 C3158 1.524 . S
C3159 C3160 1.397 . S
C3159 C3164 1.363 . S
C3160 H3137 0.950 . S
C3160 C3159 1.397 . S
C3160 C3161 1.334 . S
C3161 H3138 0.950 . S
C3161 C3160 1.334 . S
C3161 C3162 1.287 . S
C3162 C3161 1.287 . S
C3162 C3163 1.524 . S
C3162 H3181 0.913 . S
C3163 H3139 0.950 . S
C3163 C3162 1.524 . S
C3163 C3164 1.415 . S
C3164 H3140 0.950 . S
C3164 C3159 1.363 . S
C3164 C3163 1.415 . S
C3165 H3141 0.951 . S
C3165 C3166 1.366 . S
C3165 C3167 1.388 . S
C3166 C3165 1.366 . S
C3166 C3170 1.385 . S
C3167 H3142 0.951 . S
C3167 C3165 1.388 . S
C3167 C3168 1.366 . S
C3168 C3167 1.366 . S
C3168 C3169 1.414 . S
C3168 C3171 1.499 . S
C3169 H3143 0.950 . S
C3169 C3168 1.414 . S
C3169 C3170 1.374 . S
C3170 H3144 0.950 . S
C3170 C3166 1.385 . S
C3170 C3169 1.374 . S
C3171 C3168 1.499 . S
C3171 C3172 1.373 . S
C3171 C3173 1.389 . S
C3172 H3145 0.950 . S
C3172 C3158 1.377 . S
C3172 C3171 1.373 . S
C3173 C3157 1.377 . S
C3173 C3171 1.389 . S
C3173 C3174 1.524 . S
C3174 C3173 1.524 . S
C3174 C3175 1.397 . S
C3174 C3179 1.363 . S
C3175 H3146 0.950 . S
C3175 C3174 1.397 . S
C3175 C3176 1.334 . S
C3176 H3147 0.950 . S
C3176 C3175 1.334 . S
C3176 C3177 1.287 . S
C3177 C3176 1.287 . S
C3177 C3178 1.524 . S
C3177 H3180 0.999 . S
C3178 H3148 0.950 . S
C3178 C3177 1.524 . S
C3178 C3179 1.415 . S
C3179 H3149 0.950 . S
C3179 C3174 1.363 . S
C3179 C3178 1.415 . S
H3180 C3177 0.999 . S
H3181 C3162 0.913 . S
H3182 C3200 0.951 . S
H3183 C3202 0.951 . S
H3184 C3204 0.950 . S
H3185 C3205 0.950 . S
H3186 C3207 0.950 . S
H3187 C3210 0.950 . S
H3188 C3211 0.950 . S
H3189 C3213 0.950 . S
H3190 C3214 0.950 . S
H3191 C3215 0.951 . S
H3192 C3217 0.951 . S
H3193 C3219 0.950 . S
H3194 C3220 0.950 . S
H3195 C3222 0.950 . S
H3196 C3225 0.950 . S
H3197 C3226 0.950 . S
H3198 C3228 0.950 . S
H3199 C3229 0.950 . S
C3200 H3182 0.951 . S
C3200 C3201 1.366 . S
C3200 C3202 1.388 . S
C3201 C3200 1.366 . S
C3201 C3205 1.385 . S
C3202 H3183 0.951 . S
C3202 C3200 1.388 . S
C3202 C3203 1.366 . S
C3203 C3202 1.366 . S
C3203 C3204 1.414 . S
C3203 C3206 1.499 . S
C3204 H3184 0.950 . S
C3204 C3203 1.414 . S
C3204 C3205 1.374 . S
C3205 H3185 0.950 . S
C3205 C3201 1.385 . S
C3205 C3204 1.374 . S
C3206 C3203 1.499 . S
C3206 C3207 1.373 . S
C3206 C3208 1.389 . S
C3207 H3186 0.950 . S
C3207 C3206 1.373 . S
C3207 C3223 1.377 . S
C3208 C3206 1.389 . S
C3208 C3209 1.524 . S
C3208 C3222 1.377 . S
C3209 C3208 1.524 . S
C3209 C3210 1.397 . S
C3209 C3214 1.363 . S
C3210 H3187 0.950 . S
C3210 C3209 1.397 . S
C3210 C3211 1.334 . S
C3211 H3188 0.950 . S
C3211 C3210 1.334 . S
C3211 C3212 1.287 . S
C3212 C3211 1.287 . S
C3212 C3213 1.524 . S
C3212 H3231 0.913 . S
C3213 H3189 0.950 . S
C3213 C3212 1.524 . S
C3213 C3214 1.415 . S
C3214 H3190 0.950 . S
C3214 C3209 1.363 . S
C3214 C3213 1.415 . S
C3215 H3191 0.951 . S
C3215 C3216 1.366 . S
C3215 C3217 1.388 . S
C3216 C3215 1.366 . S
C3216 C3220 1.385 . S
C3217 H3192 0.951 . S
C3217 C3215 1.388 . S
C3217 C3218 1.366 . S
C3218 C3217 1.366 . S
C3218 C3219 1.414 . S
C3218 C3221 1.499 . S
C3219 H3193 0.950 . S
C3219 C3218 1.414 . S
C3219 C3220 1.374 . S
C3220 H3194 0.950 . S
C3220 C3216 1.385 . S
C3220 C3219 1.374 . S
C3221 C3218 1.499 . S
C3221 C3222 1.373 . S
C3221 C3223 1.389 . S
C3222 H3195 0.950 . S
C3222 C3208 1.377 . S
C3222 C3221 1.373 . S
C3223 C3207 1.377 . S
C3223 C3221 1.389 . S
C3223 C3224 1.524 . S
C3224 C3223 1.524 . S
C3224 C3225 1.397 . S
C3224 C3229 1.363 . S
C3225 H3196 0.950 . S
C3225 C3224 1.397 . S
C3225 C3226 1.334 . S
C3226 H3197 0.950 . S
C3226 C3225 1.334 . S
C3226 C3227 1.287 . S
C3227 C3226 1.287 . S
C3227 C3228 1.524 . S
C3227 H3230 0.999 . S
C3228 H3198 0.950 . S
C3228 C3227 1.524 . S
C3228 C3229 1.415 . S
C3229 H3199 0.950 . S
C3229 C3224 1.363 . S
C3229 C3228 1.415 . S
H3230 C3227 0.999 . S
H3231 C3212 0.913 . S
H3232 C3250 0.951 . S
H3233 C3252 0.951 . S
H3234 C3254 0.950 . S
H3235 C3255 0.950 . S
H3236 C3257 0.950 . S
H3237 C3260 0.950 . S
H3238 C3261 0.950 . S
H3239 C3263 0.950 . S
H3240 C3264 0.950 . S
H3241 C3265 0.951 . S
H3242 C3267 0.951 . S
H3243 C3269 0.950 . S
H3244 C3270 0.950 . S
H3245 C3272 0.950 . S
H3246 C3275 0.950 . S
H3247 C3276 0.950 . S
H3248 C3278 0.950 . S
H3249 C3279 0.950 . S
C3250 H3232 0.951 . S
C3250 C3251 1.366 . S
C3250 C3252 1.388 . S
C3251 C3250 1.366 . S
C3251 C3255 1.385 . S
C3252 H3233 0.951 . S
C3252 C3250 1.388 . S
C3252 C3253 1.366 . S
C3253 C3252 1.366 . S
C3253 C3254 1.414 . S
C3253 C3256 1.499 . S
C3254 H3234 0.950 . S
C3254 C3253 1.414 . S
C3254 C3255 1.374 . S
C3255 H3235 0.950 . S
C3255 C3251 1.385 . S
C3255 C3254 1.374 . S
C3256 C3253 1.499 . S
C3256 C3257 1.373 . S
C3256 C3258 1.389 . S
C3257 H3236 0.950 . S
C3257 C3256 1.373 . S
C3257 C3273 1.377 . S
C3258 C3256 1.389 . S
C3258 C3259 1.524 . S
C3258 C3272 1.377 . S
C3259 C3258 1.524 . S
C3259 C3260 1.397 . S
C3259 C3264 1.363 . S
C3260 H3237 0.950 . S
C3260 C3259 1.397 . S
C3260 C3261 1.334 . S
C3261 H3238 0.950 . S
C3261 C3260 1.334 . S
C3261 C3262 1.287 . S
C3262 C3261 1.287 . S
C3262 C3263 1.524 . S
C3262 H3281 0.913 . S
C3263 H3239 0.950 . S
C3263 C3262 1.524 . S
C3263 C3264 1.415 . S
C3264 H3240 0.950 . S
C3264 C3259 1.363 . S
C3264 C3263 1.415 . S
C3265 H3241 0.951 . S
C3265 C3266 1.366 . S
C3265 C3267 1.388 . S
C3266 C3265 1.366 . S
C3266 C3270 1.385 . S
C3267 H3242 0.951 . S
C3267 C3265 1.388 . S
C3267 C3268 1.366 . S
C3268 C3267 1.366 . S
C3268 C3269 1.414 . S
C3268 C3271 1.499 . S
C3269 H3243 0.950 . S
C3269 C3268 1.414 . S
C3269 C3270 1.374 . S
C3270 H3244 0.950 . S
C3270 C3266 1.385 . S
C3270 C3269 1.374 . S
C3271 C3268 1.499 . S
C3271 C3272 1.373 . S
C3271 C3273 1.389 . S
C3272 H3245 0.950 . S
C3272 C3258 1.377 . S
C3272 C3271 1.373 . S
C3273 C3257 1.377 . S
C3273 C3271 1.389 . S
C3273 C3274 1.524 . S
C3274 C3273 1.524 . S
C3274 C3275 1.397 . S
C3274 C3279 1.363 . S
C3275 H3246 0.950 . S
C3275 C3274 1.397 . S
C3275 C3276 1.334 . S
C3276 H3247 0.950 . S
C3276 C3275 1.334 . S
C3276 C3277 1.287 . S
C3277 C3276 1.287 . S
C3277 C3278 1.524 . S
C3277 H3280 0.999 . S
C3278 H3248 0.950 . S
C3278 C3277 1.524 . S
C3278 C3279 1.415 . S
C3279 H3249 0.950 . S
C3279 C3274 1.363 . S
C3279 C3278 1.415 . S
H3280 C3277 0.999 . S
H3281 C3262 0.913 . S
H3282 C3300 0.951 . S
H3283 C3302 0.951 . S
H3284 C3304 0.950 . S
H3285 C3305 0.950 . S
H3286 C3307 0.950 . S
H3287 C3310 0.950 . S
H3288 C3311 0.950 . S
H3289 C3313 0.950 . S
H3290 C3314 0.950 . S
H3291 C3315 0.951 . S
H3292 C3317 0.951 . S
H3293 C3319 0.950 . S
H3294 C3320 0.950 . S
H3295 C3322 0.950 . S
H3296 C3325 0.950 . S
H3297 C3326 0.950 . S
H3298 C3328 0.950 . S
H3299 C3329 0.950 . S
C3300 H3282 0.951 . S
C3300 C3301 1.366 . S
C3300 C3302 1.388 . S
C3301 C3300 1.366 . S
C3301 C3305 1.385 . S
C3302 H3283 0.951 . S
C3302 C3300 1.388 . S
C3302 C3303 1.366 . S
C3303 C3302 1.366 . S
C3303 C3304 1.414 . S
C3303 C3306 1.499 . S
C3304 H3284 0.950 . S
C3304 C3303 1.414 . S
C3304 C3305 1.374 . S
C3305 H3285 0.950 . S
C3305 C3301 1.385 . S
C3305 C3304 1.374 . S
C3306 C3303 1.499 . S
C3306 C3307 1.373 . S
C3306 C3308 1.389 . S
C3307 H3286 0.950 . S
C3307 C3306 1.373 . S
C3307 C3323 1.377 . S
C3308 C3306 1.389 . S
C3308 C3309 1.524 . S
C3308 C3322 1.377 . S
C3309 C3308 1.524 . S
C3309 C3310 1.397 . S
C3309 C3314 1.363 . S
C3310 H3287 0.950 . S
C3310 C3309 1.397 . S
C3310 C3311 1.334 . S
C3311 H3288 0.950 . S
C3311 C3310 1.334 . S
C3311 C3312 1.287 . S
C3312 C3311 1.287 . S
C3312 C3313 1.524 . S
C3312 H3331 0.913 . S
C3313 H3289 0.950 . S
C3313 C3312 1.524 . S
C3313 C3314 1.415 . S
C3314 H3290 0.950 . S
C3314 C3309 1.363 . S
C3314 C3313 1.415 . S
C3315 H3291 0.951 . S
C3315 C3316 1.366 . S
C3315 C3317 1.388 . S
C3316 C3315 1.366 . S
C3316 C3320 1.385 . S
C3317 H3292 0.951 . S
C3317 C3315 1.388 . S
C3317 C3318 1.366 . S
C3318 C3317 1.366 . S
C3318 C3319 1.414 . S
C3318 C3321 1.499 . S
C3319 H3293 0.950 . S
C3319 C3318 1.414 . S
C3319 C3320 1.374 . S
C3320 H3294 0.950 . S
C3320 C3316 1.385 . S
C3320 C3319 1.374 . S
C3321 C3318 1.499 . S
C3321 C3322 1.373 . S
C3321 C3323 1.389 . S
C3322 H3295 0.950 . S
C3322 C3308 1.377 . S
C3322 C3321 1.373 . S
C3323 C3307 1.377 . S
C3323 C3321 1.389 . S
C3323 C3324 1.524 . S
C3324 C3323 1.524 . S
C3324 C3325 1.397 . S
C3324 C3329 1.363 . S
C3325 H3296 0.950 . S
C3325 C3324 1.397 . S
C3325 C3326 1.334 . S
C3326 H3297 0.950 . S
C3326 C3325 1.334 . S
C3326 C3327 1.287 . S
C3327 C3326 1.287 . S
C3327 C3328 1.524 . S
C3327 H3330 0.999 . S
C3328 H3298 0.950 . S
C3328 C3327 1.524 . S
C3328 C3329 1.415 . S
C3329 H3299 0.950 . S
C3329 C3324 1.363 . S
C3329 C3328 1.415 . S
H3330 C3327 0.999 . S
H3331 C3312 0.913 . S
H3332 C3350 0.951 . S
H3333 C3352 0.951 . S
H3334 C3354 0.950 . S
H3335 C3355 0.950 . S
H3336 C3357 0.950 . S
H3337 C3360 0.950 . S
H3338 C3361 0.950 . S
H3339 C3363 0.950 . S
H3340 C3364 0.950 . S
H3341 C3365 0.951 . S
H3342 C3367 0.951 . S
H3343 C3369 0.950 . S
H3344 C3370 0.950 . S
H3345 C3372 0.950 . S
H3346 C3375 0.950 . S
H3347 C3376 0.950 . S
H3348 C3378 0.950 . S
H3349 C3379 0.950 . S
C3350 H3332 0.951 . S
C3350 C3351 1.366 . S
C3350 C3352 1.388 . S
C3351 C3350 1.366 . S
C3351 C3355 1.385 . S
C3352 H3333 0.951 . S
C3352 C3350 1.388 . S
C3352 C3353 1.366 . S
C3353 C3352 1.366 . S
C3353 C3354 1.414 . S
C3353 C3356 1.499 . S
C3354 H3334 0.950 . S
C3354 C3353 1.414 . S
C3354 C3355 1.374 . S
C3355 H3335 0.950 . S
C3355 C3351 1.385 . S
C3355 C3354 1.374 . S
C3356 C3353 1.499 . S
C3356 C3357 1.373 . S
C3356 C3358 1.389 . S
C3357 H3336 0.950 . S
C3357 C3356 1.373 . S
C3357 C3373 1.377 . S
C3358 C3356 1.389 . S
C3358 C3359 1.524 . S
C3358 C3372 1.377 . S
C3359 C3358 1.524 . S
C3359 C3360 1.397 . S
C3359 C3364 1.363 . S
C3360 H3337 0.950 . S
C3360 C3359 1.397 . S
C3360 C3361 1.334 . S
C3361 H3338 0.950 . S
C3361 C3360 1.334 . S
C3361 C3362 1.287 . S
C3362 C3361 1.287 . S
C3362 C3363 1.524 . S
C3362 H3381 0.913 . S
C3363 H3339 0.950 . S
C3363 C3362 1.524 . S
C3363 C3364 1.415 . S
C3364 H3340 0.950 . S
C3364 C3359 1.363 . S
C3364 C3363 1.415 . S
C3365 H3341 0.951 . S
C3365 C3366 1.366 . S
C3365 C3367 1.388 . S
C3366 C3365 1.366 . S
C3366 C3370 1.385 . S
C3367 H3342 0.951 . S
C3367 C3365 1.388 . S
C3367 C3368 1.366 . S
C3368 C3367 1.366 . S
C3368 C3369 1.414 . S
C3368 C3371 1.499 . S
C3369 H3343 0.950 . S
C3369 C3368 1.414 . S
C3369 C3370 1.374 . S
C3370 H3344 0.950 . S
C3370 C3366 1.385 . S
C3370 C3369 1.374 . S
C3371 C3368 1.499 . S
C3371 C3372 1.373 . S
C3371 C3373 1.389 . S
C3372 H3345 0.950 . S
C3372 C3358 1.377 . S
C3372 C3371 1.373 . S
C3373 C3357 1.377 . S
C3373 C3371 1.389 . S
C3373 C3374 1.524 . S
C3374 C3373 1.524 . S
C3374 C3375 1.397 . S
C3374 C3379 1.363 . S
C3375 H3346 0.950 . S
C3375 C3374 1.397 . S
C3375 C3376 1.334 . S
C3376 H3347 0.950 . S
C3376 C3375 1.334 . S
C3376 C3377 1.287 . S
C3377 C3376 1.287 . S
C3377 C3378 1.524 . S
C3377 H3380 0.999 . S
C3378 H3348 0.950 . S
C3378 C3377 1.524 . S
C3378 C3379 1.415 . S
C3379 H3349 0.950 . S
C3379 C3374 1.363 . S
C3379 C3378 1.415 . S
H3380 C3377 0.999 . S
H3381 C3362 0.913 . S
H3382 C3400 0.951 . S
H3383 C3402 0.951 . S
H3384 C3404 0.950 . S
H3385 C3405 0.950 . S
H3386 C3407 0.950 . S
H3387 C3410 0.950 . S
H3388 C3411 0.950 . S
H3389 C3413 0.950 . S
H3390 C3414 0.950 . S
H3391 C3415 0.951 . S
H3392 C3417 0.951 . S
H3393 C3419 0.950 . S
H3394 C3420 0.950 . S
H3395 C3422 0.950 . S
H3396 C3425 0.950 . S
H3397 C3426 0.950 . S
H3398 C3428 0.950 . S
H3399 C3429 0.950 . S
C3400 H3382 0.951 . S
C3400 C3401 1.366 . S
C3400 C3402 1.388 . S
C3401 C3400 1.366 . S
C3401 C3405 1.385 . S
C3402 H3383 0.951 . S
C3402 C3400 1.388 . S
C3402 C3403 1.366 . S
C3403 C3402 1.366 . S
C3403 C3404 1.414 . S
C3403 C3406 1.499 . S
C3404 H3384 0.950 . S
C3404 C3403 1.414 . S
C3404 C3405 1.374 . S
C3405 H3385 0.950 . S
C3405 C3401 1.385 . S
C3405 C3404 1.374 . S
C3406 C3403 1.499 . S
C3406 C3407 1.373 . S
C3406 C3408 1.389 . S
C3407 H3386 0.950 . S
C3407 C3406 1.373 . S
C3407 C3423 1.377 . S
C3408 C3406 1.389 . S
C3408 C3409 1.524 . S
C3408 C3422 1.377 . S
C3409 C3408 1.524 . S
C3409 C3410 1.397 . S
C3409 C3414 1.363 . S
C3410 H3387 0.950 . S
C3410 C3409 1.397 . S
C3410 C3411 1.334 . S
C3411 H3388 0.950 . S
C3411 C3410 1.334 . S
C3411 C3412 1.287 . S
C3412 C3411 1.287 . S
C3412 C3413 1.524 . S
C3412 H3431 0.913 . S
C3413 H3389 0.950 . S
C3413 C3412 1.524 . S
C3413 C3414 1.415 . S
C3414 H3390 0.950 . S
C3414 C3409 1.363 . S
C3414 C3413 1.415 . S
C3415 H3391 0.951 . S
C3415 C3416 1.366 . S
C3415 C3417 1.388 . S
C3416 C3415 1.366 . S
C3416 C3420 1.385 . S
C3417 H3392 0.951 . S
C3417 C3415 1.388 . S
C3417 C3418 1.366 . S
C3418 C3417 1.366 . S
C3418 C3419 1.414 . S
C3418 C3421 1.499 . S
C3419 H3393 0.950 . S
C3419 C3418 1.414 . S
C3419 C3420 1.374 . S
C3420 H3394 0.950 . S
C3420 C3416 1.385 . S
C3420 C3419 1.374 . S
C3421 C3418 1.499 . S
C3421 C3422 1.373 . S
C3421 C3423 1.389 . S
C3422 H3395 0.950 . S
C3422 C3408 1.377 . S
C3422 C3421 1.373 . S
C3423 C3407 1.377 . S
C3423 C3421 1.389 . S
C3423 C3424 1.524 . S
C3424 C3423 1.524 . S
C3424 C3425 1.397 . S
C3424 C3429 1.363 . S
C3425 H3396 0.950 . S
C3425 C3424 1.397 . S
C3425 C3426 1.334 . S
C3426 H3397 0.950 . S
C3426 C3425 1.334 . S
C3426 C3427 1.287 . S
C3427 C3426 1.287 . S
C3427 C3428 1.524 . S
C3427 H3430 0.999 . S
C3428 H3398 0.950 . S
C3428 C3427 1.524 . S
C3428 C3429 1.415 . S
C3429 H3399 0.950 . S
C3429 C3424 1.363 . S
C3429 C3428 1.415 . S
H3430 C3427 0.999 . S
H3431 C3412 0.913 . S
H3432 C3450 0.951 . S
H3433 C3452 0.951 . S
H3434 C3454 0.950 . S
H3435 C3455 0.950 . S
H3436 C3457 0.950 . S
H3437 C3460 0.950 . S
H3438 C3461 0.950 . S
H3439 C3463 0.950 . S
H3440 C3464 0.950 . S
H3441 C3465 0.951 . S
H3442 C3467 0.951 . S
H3443 C3469 0.950 . S
H3444 C3470 0.950 . S
H3445 C3472 0.950 . S
H3446 C3475 0.950 . S
H3447 C3476 0.950 . S
H3448 C3478 0.950 . S
H3449 C3479 0.950 . S
C3450 H3432 0.951 . S
C3450 C3451 1.366 . S
C3450 C3452 1.388 . S
C3451 C3450 1.366 . S
C3451 C3455 1.385 . S
C3452 H3433 0.951 . S
C3452 C3450 1.388 . S
C3452 C3453 1.366 . S
C3453 C3452 1.366 . S
C3453 C3454 1.414 . S
C3453 C3456 1.499 . S
C3454 H3434 0.950 . S
C3454 C3453 1.414 . S
C3454 C3455 1.374 . S
C3455 H3435 0.950 . S
C3455 C3451 1.385 . S
C3455 C3454 1.374 . S
C3456 C3453 1.499 . S
C3456 C3457 1.373 . S
C3456 C3458 1.389 . S
C3457 H3436 0.950 . S
C3457 C3456 1.373 . S
C3457 C3473 1.377 . S
C3458 C3456 1.389 . S
C3458 C3459 1.524 . S
C3458 C3472 1.377 . S
C3459 C3458 1.524 . S
C3459 C3460 1.397 . S
C3459 C3464 1.363 . S
C3460 H3437 0.950 . S
C3460 C3459 1.397 . S
C3460 C3461 1.334 . S
C3461 H3438 0.950 . S
C3461 C3460 1.334 . S
C3461 C3462 1.287 . S
C3462 C3461 1.287 . S
C3462 C3463 1.524 . S
C3462 H3481 0.913 . S
C3463 H3439 0.950 . S
C3463 C3462 1.524 . S
C3463 C3464 1.415 . S
C3464 H3440 0.950 . S
C3464 C3459 1.363 . S
C3464 C3463 1.415 . S
C3465 H3441 0.951 . S
C3465 C3466 1.366 . S
C3465 C3467 1.388 . S
C3466 C3465 1.366 . S
C3466 C3470 1.385 . S
C3467 H3442 0.951 . S
C3467 C3465 1.388 . S
C3467 C3468 1.366 . S
C3468 C3467 1.366 . S
C3468 C3469 1.414 . S
C3468 C3471 1.499 . S
C3469 H3443 0.950 . S
C3469 C3468 1.414 . S
C3469 C3470 1.374 . S
C3470 H3444 0.950 . S
C3470 C3466 1.385 . S
C3470 C3469 1.374 . S
C3471 C3468 1.499 . S
C3471 C3472 1.373 . S
C3471 C3473 1.389 . S
C3472 H3445 0.950 . S
C3472 C3458 1.377 . S
C3472 C3471 1.373 . S
C3473 C3457 1.377 . S
C3473 C3471 1.389 . S
C3473 C3474 1.524 . S
C3474 C3473 1.524 . S
C3474 C3475 1.397 . S
C3474 C3479 1.363 . S
C3475 H3446 0.950 . S
C3475 C3474 1.397 . S
C3475 C3476 1.334 . S
C3476 H3447 0.950 . S
C3476 C3475 1.334 . S
C3476 C3477 1.287 . S
C3477 C3476 1.287 . S
C3477 C3478 1.524 . S
C3477 H3480 0.999 . S
C3478 H3448 0.950 . S
C3478 C3477 1.524 . S
C3478 C3479 1.415 . S
C3479 H3449 0.950 . S
C3479 C3474 1.363 . S
C3479 C3478 1.415 . S
H3480 C3477 0.999 . S
H3481 C3462 0.913 . S
H3482 C3500 0.951 . S
H3483 C3502 0.951 . S
H3484 C3504 0.950 . S
H3485 C3505 0.950 . S
H3486 C3507 0.950 . S
H3487 C3510 0.950 . S
H3488 C3511 0.950 . S
H3489 C3513 0.950 . S
H3490 C3514 0.950 . S
H3491 C3515 0.951 . S
H3492 C3517 0.951 . S
H3493 C3519 0.950 . S
H3494 C3520 0.950 . S
H3495 C3522 0.950 . S
H3496 C3525 0.950 . S
H3497 C3526 0.950 . S
H3498 C3528 0.950 . S
H3499 C3529 0.950 . S
C3500 H3482 0.951 . S
C3500 C3501 1.366 . S
C3500 C3502 1.388 . S
C3501 C3500 1.366 . S
C3501 C3505 1.385 . S
C3502 H3483 0.951 . S
C3502 C3500 1.388 . S
C3502 C3503 1.366 . S
C3503 C3502 1.366 . S
C3503 C3504 1.414 . S
C3503 C3506 1.499 . S
C3504 H3484 0.950 . S
C3504 C3503 1.414 . S
C3504 C3505 1.374 . S
C3505 H3485 0.950 . S
C3505 C3501 1.385 . S
C3505 C3504 1.374 . S
C3506 C3503 1.499 . S
C3506 C3507 1.373 . S
C3506 C3508 1.389 . S
C3507 H3486 0.950 . S
C3507 C3506 1.373 . S
C3507 C3523 1.377 . S
C3508 C3506 1.389 . S
C3508 C3509 1.524 . S
C3508 C3522 1.377 . S
C3509 C3508 1.524 . S
C3509 C3510 1.397 . S
C3509 C3514 1.363 . S
C3510 H3487 0.950 . S
C3510 C3509 1.397 . S
C3510 C3511 1.334 . S
C3511 H3488 0.950 . S
C3511 C3510 1.334 . S
C3511 C3512 1.287 . S
C3512 C3511 1.287 . S
C3512 C3513 1.524 . S
C3512 H3531 0.913 . S
C3513 H3489 0.950 . S
C3513 C3512 1.524 . S
C3513 C3514 1.415 . S
C3514 H3490 0.950 . S
C3514 C3509 1.363 . S
C3514 C3513 1.415 . S
C3515 H3491 0.951 . S
C3515 C3516 1.366 . S
C3515 C3517 1.388 . S
C3516 C3515 1.366 . S
C3516 C3520 1.385 . S
C3517 H3492 0.951 . S
C3517 C3515 1.388 . S
C3517 C3518 1.366 . S
C3518 C3517 1.366 . S
C3518 C3519 1.414 . S
C3518 C3521 1.499 . S
C3519 H3493 0.950 . S
C3519 C3518 1.414 . S
C3519 C3520 1.374 . S
C3520 H3494 0.950 . S
C3520 C3516 1.385 . S
C3520 C3519 1.374 . S
C3521 C3518 1.499 . S
C3521 C3522 1.373 . S
C3521 C3523 1.389 . S
C3522 H3495 0.950 . S
C3522 C3508 1.377 . S
C3522 C3521 1.373 . S
C3523 C3507 1.377 . S
C3523 C3521 1.389 . S
C3523 C3524 1.524 . S
C3524 C3523 1.524 . S
C3524 C3525 1.397 . S
C3524 C3529 1.363 . S
C3525 H3496 0.950 . S
C3525 C3524 1.397 . S
C3525 C3526 1.334 . S
C3526 H3497 0.950 . S
C3526 C3525 1.334 . S
C3526 C3527 1.287 . S
C3527 C3526 1.287 . S
C3527 C3528 1.524 . S
C3527 H3530 0.999 . S
C3528 H3498 0.950 . S
C3528 C3527 1.524 . S
C3528 C3529 1.415 . S
C3529 H3499 0.950 . S
C3529 C3524 1.363 . S
C3529 C3528 1.415 . S
H3530 C3527 0.999 . S
H3531 C3512 0.913 . S
H3532 C3550 0.951 . S
H3533 C3552 0.951 . S
H3534 C3554 0.950 . S
H3535 C3555 0.950 . S
H3536 C3557 0.950 . S
H3537 C3560 0.950 . S
H3538 C3561 0.950 . S
H3539 C3563 0.950 . S
H3540 C3564 0.950 . S
H3541 C3565 0.951 . S
H3542 C3567 0.951 . S
H3543 C3569 0.950 . S
H3544 C3570 0.950 . S
H3545 C3572 0.950 . S
H3546 C3575 0.950 . S
H3547 C3576 0.950 . S
H3548 C3578 0.950 . S
H3549 C3579 0.950 . S
C3550 H3532 0.951 . S
C3550 C3551 1.366 . S
C3550 C3552 1.388 . S
C3551 C3550 1.366 . S
C3551 C3555 1.385 . S
C3552 H3533 0.951 . S
C3552 C3550 1.388 . S
C3552 C3553 1.366 . S
C3553 C3552 1.366 . S
C3553 C3554 1.414 . S
C3553 C3556 1.499 . S
C3554 H3534 0.950 . S
C3554 C3553 1.414 . S
C3554 C3555 1.374 . S
C3555 H3535 0.950 . S
C3555 C3551 1.385 . S
C3555 C3554 1.374 . S
C3556 C3553 1.499 . S
C3556 C3557 1.373 . S
C3556 C3558 1.389 . S
C3557 H3536 0.950 . S
C3557 C3556 1.373 . S
C3557 C3573 1.377 . S
C3558 C3556 1.389 . S
C3558 C3559 1.524 . S
C3558 C3572 1.377 . S
C3559 C3558 1.524 . S
C3559 C3560 1.397 . S
C3559 C3564 1.363 . S
C3560 H3537 0.950 . S
C3560 C3559 1.397 . S
C3560 C3561 1.334 . S
C3561 H3538 0.950 . S
C3561 C3560 1.334 . S
C3561 C3562 1.287 . S
C3562 C3561 1.287 . S
C3562 C3563 1.524 . S
C3562 H3581 0.913 . S
C3563 H3539 0.950 . S
C3563 C3562 1.524 . S
C3563 C3564 1.415 . S
C3564 H3540 0.950 . S
C3564 C3559 1.363 . S
C3564 C3563 1.415 . S
C3565 H3541 0.951 . S
C3565 C3566 1.366 . S
C3565 C3567 1.388 . S
C3566 C3565 1.366 . S
C3566 C3570 1.385 . S
C3567 H3542 0.951 . S
C3567 C3565 1.388 . S
C3567 C3568 1.366 . S
C3568 C3567 1.366 . S
C3568 C3569 1.414 . S
C3568 C3571 1.499 . S
C3569 H3543 0.950 . S
C3569 C3568 1.414 . S
C3569 C3570 1.374 . S
C3570 H3544 0.950 . S
C3570 C3566 1.385 . S
C3570 C3569 1.374 . S
C3571 C3568 1.499 . S
C3571 C3572 1.373 . S
C3571 C3573 1.389 . S
C3572 H3545 0.950 . S
C3572 C3558 1.377 . S
C3572 C3571 1.373 . S
C3573 C3557 1.377 . S
C3573 C3571 1.389 . S
C3573 C3574 1.524 . S
C3574 C3573 1.524 . S
C3574 C3575 1.397 . S
C3574 C3579 1.363 . S
C3575 H3546 0.950 . S
C3575 C3574 1.397 . S
C3575 C3576 1.334 . S
C3576 H3547 0.950 . S
C3576 C3575 1.334 . S
C3576 C3577 1.287 . S
C3577 C3576 1.287 . S
C3577 C3578 1.524 . S
C3577 H3580 0.999 . S
C3578 H3548 0.950 . S
C3578 C3577 1.524 . S
C3578 C3579 1.415 . S
C3579 H3549 0.950 . S
C3579 C3574 1.363 . S
C3579 C3578 1.415 . S
H3580 C3577 0.999 . S
H3581 C3562 0.913 . S
H3582 C3600 0.951 . S
H3583 C3602 0.951 . S
H3584 C3604 0.950 . S
H3585 C3605 0.950 . S
H3586 C3607 0.950 . S
H3587 C3610 0.950 . S
H3588 C3611 0.950 . S
H3589 C3613 0.950 . S
H3590 C3614 0.950 . S
H3591 C3615 0.951 . S
H3592 C3617 0.951 . S
H3593 C3619 0.950 . S
H3594 C3620 0.950 . S
H3595 C3622 0.950 . S
H3596 C3625 0.950 . S
H3597 C3626 0.950 . S
H3598 C3628 0.950 . S
H3599 C3629 0.950 . S
C3600 H3582 0.951 . S
C3600 C3601 1.366 . S
C3600 C3602 1.388 . S
C3601 C3600 1.366 . S
C3601 C3605 1.385 . S
C3602 H3583 0.951 . S
C3602 C3600 1.388 . S
C3602 C3603 1.366 . S
C3603 C3602 1.366 . S
C3603 C3604 1.414 . S
C3603 C3606 1.499 . S
C3604 H3584 0.950 . S
C3604 C3603 1.414 . S
C3604 C3605 1.374 . S
C3605 H3585 0.950 . S
C3605 C3601 1.385 . S
C3605 C3604 1.374 . S
C3606 C3603 1.499 . S
C3606 C3607 1.373 . S
C3606 C3608 1.389 . S
C3607 H3586 0.950 . S
C3607 C3606 1.373 . S
C3607 C3623 1.377 . S
C3608 C3606 1.389 . S
C3608 C3609 1.524 . S
C3608 C3622 1.377 . S
C3609 C3608 1.524 . S
C3609 C3610 1.397 . S
C3609 C3614 1.363 . S
C3610 H3587 0.950 . S
C3610 C3609 1.397 . S
C3610 C3611 1.334 . S
C3611 H3588 0.950 . S
C3611 C3610 1.334 . S
C3611 C3612 1.287 . S
C3612 C3611 1.287 . S
C3612 C3613 1.524 . S
C3612 H3631 0.913 . S
C3613 H3589 0.950 . S
C3613 C3612 1.524 . S
C3613 C3614 1.415 . S
C3614 H3590 0.950 . S
C3614 C3609 1.363 . S
C3614 C3613 1.415 . S
C3615 H3591 0.951 . S
C3615 C3616 1.366 . S
C3615 C3617 1.388 . S
C3616 C3615 1.366 . S
C3616 C3620 1.385 . S
C3617 H3592 0.951 . S
C3617 C3615 1.388 . S
C3617 C3618 1.366 . S
C3618 C3617 1.366 . S
C3618 C3619 1.414 . S
C3618 C3621 1.499 . S
C3619 H3593 0.950 . S
C3619 C3618 1.414 . S
C3619 C3620 1.374 . S
C3620 H3594 0.950 . S
C3620 C3616 1.385 . S
C3620 C3619 1.374 . S
C3621 C3618 1.499 . S
C3621 C3622 1.373 . S
C3621 C3623 1.389 . S
C3622 H3595 0.950 . S
C3622 C3608 1.377 . S
C3622 C3621 1.373 . S
C3623 C3607 1.377 . S
C3623 C3621 1.389 . S
C3623 C3624 1.524 . S
C3624 C3623 1.524 . S
C3624 C3625 1.397 . S
C3624 C3629 1.363 . S
C3625 H3596 0.950 . S
C3625 C3624 1.397 . S
C3625 C3626 1.334 . S
C3626 H3597 0.950 . S
C3626 C3625 1.334 . S
C3626 C3627 1.287 . S
C3627 C3626 1.287 . S
C3627 C3628 1.524 . S
C3627 H3630 0.999 . S
C3628 H3598 0.950 . S
C3628 C3627 1.524 . S
C3628 C3629 1.415 . S
C3629 H3599 0.950 . S
C3629 C3624 1.363 . S
C3629 C3628 1.415 . S
H3630 C3627 0.999 . S
H3631 C3612 0.913 . S
H3632 C3650 0.951 . S
H3633 C3652 0.951 . S
H3634 C3654 0.950 . S
H3635 C3655 0.950 . S
H3636 C3657 0.950 . S
H3637 C3660 0.950 . S
H3638 C3661 0.950 . S
H3639 C3663 0.950 . S
H3640 C3664 0.950 . S
H3641 C3665 0.951 . S
H3642 C3667 0.951 . S
H3643 C3669 0.950 . S
H3644 C3670 0.950 . S
H3645 C3672 0.950 . S
H3646 C3675 0.950 . S
H3647 C3676 0.950 . S
H3648 C3678 0.950 . S
H3649 C3679 0.950 . S
C3650 H3632 0.951 . S
C3650 C3651 1.366 . S
C3650 C3652 1.388 . S
C3651 C3650 1.366 . S
C3651 C3655 1.385 . S
C3652 H3633 0.951 . S
C3652 C3650 1.388 . S
C3652 C3653 1.366 . S
C3653 C3652 1.366 . S
C3653 C3654 1.414 . S
C3653 C3656 1.499 . S
C3654 H3634 0.950 . S
C3654 C3653 1.414 . S
C3654 C3655 1.374 . S
C3655 H3635 0.950 . S
C3655 C3651 1.385 . S
C3655 C3654 1.374 . S
C3656 C3653 1.499 . S
C3656 C3657 1.373 . S
C3656 C3658 1.389 . S
C3657 H3636 0.950 . S
C3657 C3656 1.373 . S
C3657 C3673 1.377 . S
C3658 C3656 1.389 . S
C3658 C3659 1.524 . S
C3658 C3672 1.377 . S
C3659 C3658 1.524 . S
C3659 C3660 1.397 . S
C3659 C3664 1.363 . S
C3660 H3637 0.950 . S
C3660 C3659 1.397 . S
C3660 C3661 1.334 . S
C3661 H3638 0.950 . S
C3661 C3660 1.334 . S
C3661 C3662 1.287 . S
C3662 C3661 1.287 . S
C3662 C3663 1.524 . S
C3662 H3681 0.913 . S
C3663 H3639 0.950 . S
C3663 C3662 1.524 . S
C3663 C3664 1.415 . S
C3664 H3640 0.950 . S
C3664 C3659 1.363 . S
C3664 C3663 1.415 . S
C3665 H3641 0.951 . S
C3665 C3666 1.366 . S
C3665 C3667 1.388 . S
C3666 C3665 1.366 . S
C3666 C3670 1.385 . S
C3667 H3642 0.951 . S
C3667 C3665 1.388 . S
C3667 C3668 1.366 . S
C3668 C3667 1.366 . S
C3668 C3669 1.414 . S
C3668 C3671 1.499 . S
C3669 H3643 0.950 . S
C3669 C3668 1.414 . S
C3669 C3670 1.374 . S
C3670 H3644 0.950 . S
C3670 C3666 1.385 . S
C3670 C3669 1.374 . S
C3671 C3668 1.499 . S
C3671 C3672 1.373 . S
C3671 C3673 1.389 . S
C3672 H3645 0.950 . S
C3672 C3658 1.377 . S
C3672 C3671 1.373 . S
C3673 C3657 1.377 . S
C3673 C3671 1.389 . S
C3673 C3674 1.524 . S
C3674 C3673 1.524 . S
C3674 C3675 1.397 . S
C3674 C3679 1.363 . S
C3675 H3646 0.950 . S
C3675 C3674 1.397 . S
C3675 C3676 1.334 . S
C3676 H3647 0.950 . S
C3676 C3675 1.334 . S
C3676 C3677 1.287 . S
C3677 C3676 1.287 . S
C3677 C3678 1.524 . S
C3677 H3680 0.999 . S
C3678 H3648 0.950 . S
C3678 C3677 1.524 . S
C3678 C3679 1.415 . S
C3679 H3649 0.950 . S
C3679 C3674 1.363 . S
C3679 C3678 1.415 . S
H3680 C3677 0.999 . S
H3681 C3662 0.913 . S
H3682 C3700 0.951 . S
H3683 C3702 0.951 . S
H3684 C3704 0.950 . S
H3685 C3705 0.950 . S
H3686 C3707 0.950 . S
H3687 C3710 0.950 . S
H3688 C3711 0.950 . S
H3689 C3713 0.950 . S
H3690 C3714 0.950 . S
H3691 C3715 0.951 . S
H3692 C3717 0.951 . S
H3693 C3719 0.950 . S
H3694 C3720 0.950 . S
H3695 C3722 0.950 . S
H3696 C3725 0.950 . S
H3697 C3726 0.950 . S
H3698 C3728 0.950 . S
H3699 C3729 0.950 . S
C3700 H3682 0.951 . S
C3700 C3701 1.366 . S
C3700 C3702 1.388 . S
C3701 C3700 1.366 . S
C3701 C3705 1.385 . S
C3702 H3683 0.951 . S
C3702 C3700 1.388 . S
C3702 C3703 1.366 . S
C3703 C3702 1.366 . S
C3703 C3704 1.414 . S
C3703 C3706 1.499 . S
C3704 H3684 0.950 . S
C3704 C3703 1.414 . S
C3704 C3705 1.374 . S
C3705 H3685 0.950 . S
C3705 C3701 1.385 . S
C3705 C3704 1.374 . S
C3706 C3703 1.499 . S
C3706 C3707 1.373 . S
C3706 C3708 1.389 . S
C3707 H3686 0.950 . S
C3707 C3706 1.373 . S
C3707 C3723 1.377 . S
C3708 C3706 1.389 . S
C3708 C3709 1.524 . S
C3708 C3722 1.377 . S
C3709 C3708 1.524 . S
C3709 C3710 1.397 . S
C3709 C3714 1.363 . S
C3710 H3687 0.950 . S
C3710 C3709 1.397 . S
C3710 C3711 1.334 . S
C3711 H3688 0.950 . S
C3711 C3710 1.334 . S
C3711 C3712 1.287 . S
C3712 C3711 1.287 . S
C3712 C3713 1.524 . S
C3712 H3731 0.913 . S
C3713 H3689 0.950 . S
C3713 C3712 1.524 . S
C3713 C3714 1.415 . S
C3714 H3690 0.950 . S
C3714 C3709 1.363 . S
C3714 C3713 1.415 . S
C3715 H3691 0.951 . S
C3715 C3716 1.366 . S
C3715 C3717 1.388 . S
C3716 C3715 1.366 . S
C3716 C3720 1.385 . S
C3717 H3692 0.951 . S
C3717 C3715 1.388 . S
C3717 C3718 1.366 . S
C3718 C3717 1.366 . S
C3718 C3719 1.414 . S
C3718 C3721 1.499 . S
C3719 H3693 0.950 . S
C3719 C3718 1.414 . S
C3719 C3720 1.374 . S
C3720 H3694 0.950 . S
C3720 C3716 1.385 . S
C3720 C3719 1.374 . S
C3721 C3718 1.499 . S
C3721 C3722 1.373 . S
C3721 C3723 1.389 . S
C3722 H3695 0.950 . S
C3722 C3708 1.377 . S
C3722 C3721 1.373 . S
C3723 C3707 1.377 . S
C3723 C3721 1.389 . S
C3723 C3724 1.524 . S
C3724 C3723 1.524 . S
C3724 C3725 1.397 . S
C3724 C3729 1.363 . S
C3725 H3696 0.950 . S
C3725 C3724 1.397 . S
C3725 C3726 1.334 . S
C3726 H3697 0.950 . S
C3726 C3725 1.334 . S
C3726 C3727 1.287 . S
C3727 C3726 1.287 . S
C3727 C3728 1.524 . S
C3727 H3730 0.999 . S
C3728 H3698 0.950 . S
C3728 C3727 1.524 . S
C3728 C3729 1.415 . S
C3729 H3699 0.950 . S
C3729 C3724 1.363 . S
C3729 C3728 1.415 . S
H3730 C3727 0.999 . S
H3731 C3712 0.913 . S
H3732 C3750 0.951 . S
H3733 C3752 0.951 . S
H3734 C3754 0.950 . S
H3735 C3755 0.950 . S
H3736 C3757 0.950 . S
H3737 C3760 0.950 . S
H3738 C3761 0.950 . S
H3739 C3763 0.950 . S
H3740 C3764 0.950 . S
H3741 C3765 0.951 . S
H3742 C3767 0.951 . S
H3743 C3769 0.950 . S
H3744 C3770 0.950 . S
H3745 C3772 0.950 . S
H3746 C3775 0.950 . S
H3747 C3776 0.950 . S
H3748 C3778 0.950 . S
H3749 C3779 0.950 . S
C3750 H3732 0.951 . S
C3750 C3751 1.366 . S
C3750 C3752 1.388 . S
C3751 C3750 1.366 . S
C3751 C3755 1.385 . S
C3752 H3733 0.951 . S
C3752 C3750 1.388 . S
C3752 C3753 1.366 . S
C3753 C3752 1.366 . S
C3753 C3754 1.414 . S
C3753 C3756 1.499 . S
C3754 H3734 0.950 . S
C3754 C3753 1.414 . S
C3754 C3755 1.374 . S
C3755 H3735 0.950 . S
C3755 C3751 1.385 . S
C3755 C3754 1.374 . S
C3756 C3753 1.499 . S
C3756 C3757 1.373 . S
C3756 C3758 1.389 . S
C3757 H3736 0.950 . S
C3757 C3756 1.373 . S
C3757 C3773 1.377 . S
C3758 C3756 1.389 . S
C3758 C3759 1.524 . S
C3758 C3772 1.377 . S
C3759 C3758 1.524 . S
C3759 C3760 1.397 . S
C3759 C3764 1.363 . S
C3760 H3737 0.950 . S
C3760 C3759 1.397 . S
C3760 C3761 1.334 . S
C3761 H3738 0.950 . S
C3761 C3760 1.334 . S
C3761 C3762 1.287 . S
C3762 C3761 1.287 . S
C3762 C3763 1.524 . S
C3762 H3781 0.913 . S
C3763 H3739 0.950 . S
C3763 C3762 1.524 . S
C3763 C3764 1.415 . S
C3764 H3740 0.950 . S
C3764 C3759 1.363 . S
C3764 C3763 1.415 . S
C3765 H3741 0.951 . S
C3765 C3766 1.366 . S
C3765 C3767 1.388 . S
C3766 C3765 1.366 . S
C3766 C3770 1.385 . S
C3767 H3742 0.951 . S
C3767 C3765 1.388 . S
C3767 C3768 1.366 . S
C3768 C3767 1.366 . S
C3768 C3769 1.414 . S
C3768 C3771 1.499 . S
C3769 H3743 0.950 . S
C3769 C3768 1.414 . S
C3769 C3770 1.374 . S
C3770 H3744 0.950 . S
C3770 C3766 1.385 . S
C3770 C3769 1.374 . S
C3771 C3768 1.499 . S
C3771 C3772 1.373 . S
C3771 C3773 1.389 . S
C3772 H3745 0.950 . S
C3772 C3758 1.377 . S
C3772 C3771 1.373 . S
C3773 C3757 1.377 . S
C3773 C3771 1.389 . S
C3773 C3774 1.524 . S
C3774 C3773 1.524 . S
C3774 C3775 1.397 . S
C3774 C3779 1.363 . S
C3775 H3746 0.950 . S
C3775 C3774 1.397 . S
C3775 C3776 1.334 . S
C3776 H3747 0.950 . S
C3776 C3775 1.334 . S
C3776 C3777 1.287 . S
C3777 C3776 1.287 . S
C3777 C3778 1.524 . S
C3777 H3780 0.999 . S
C3778 H3748 0.950 . S
C3778 C3777 1.524 . S
C3778 C3779 1.415 . S
C3779 H3749 0.950 . S
C3779 C3774 1.363 . S
C3779 C3778 1.415 . S
H3780 C3777 0.999 . S
H3781 C3762 0.913 . S
H3782 C3800 0.951 . S
H3783 C3802 0.951 . S
H3784 C3804 0.950 . S
H3785 C3805 0.950 . S
H3786 C3807 0.950 . S
H3787 C3810 0.950 . S
H3788 C3811 0.950 . S
H3789 C3813 0.950 . S
H3790 C3814 0.950 . S
H3791 C3815 0.951 . S
H3792 C3817 0.951 . S
H3793 C3819 0.950 . S
H3794 C3820 0.950 . S
H3795 C3822 0.950 . S
H3796 C3825 0.950 . S
H3797 C3826 0.950 . S
H3798 C3828 0.950 . S
H3799 C3829 0.950 . S
C3800 H3782 0.951 . S
C3800 C3801 1.366 . S
C3800 C3802 1.388 . S
C3801 C3800 1.366 . S
C3801 C3805 1.385 . S
C3802 H3783 0.951 . S
C3802 C3800 1.388 . S
C3802 C3803 1.366 . S
C3803 C3802 1.366 . S
C3803 C3804 1.414 . S
C3803 C3806 1.499 . S
C3804 H3784 0.950 . S
C3804 C3803 1.414 . S
C3804 C3805 1.374 . S
C3805 H3785 0.950 . S
C3805 C3801 1.385 . S
C3805 C3804 1.374 . S
C3806 C3803 1.499 . S
C3806 C3807 1.373 . S
C3806 C3808 1.389 . S
C3807 H3786 0.950 . S
C3807 C3806 1.373 . S
C3807 C3823 1.377 . S
C3808 C3806 1.389 . S
C3808 C3809 1.524 . S
C3808 C3822 1.377 . S
C3809 C3808 1.524 . S
C3809 C3810 1.397 . S
C3809 C3814 1.363 . S
C3810 H3787 0.950 . S
C3810 C3809 1.397 . S
C3810 C3811 1.334 . S
C3811 H3788 0.950 . S
C3811 C3810 1.334 . S
C3811 C3812 1.287 . S
C3812 C3811 1.287 . S
C3812 C3813 1.524 . S
C3812 H3831 0.913 . S
C3813 H3789 0.950 . S
C3813 C3812 1.524 . S
C3813 C3814 1.415 . S
C3814 H3790 0.950 . S
C3814 C3809 1.363 . S
C3814 C3813 1.415 . S
C3815 H3791 0.951 . S
C3815 C3816 1.366 . S
C3815 C3817 1.388 . S
C3816 C3815 1.366 . S
C3816 C3820 1.385 . S
C3817 H3792 0.951 . S
C3817 C3815 1.388 . S
C3817 C3818 1.366 . S
C3818 C3817 1.366 . S
C3818 C3819 1.414 . S
C3818 C3821 1.499 . S
C3819 H3793 0.950 . S
C3819 C3818 1.414 . S
C3819 C3820 1.374 . S
C3820 H3794 0.950 . S
C3820 C3816 1.385 . S
C3820 C3819 1.374 . S
C3821 C3818 1.499 . S
C3821 C3822 1.373 . S
C3821 C3823 1.389 . S
C3822 H3795 0.950 . S
C3822 C3808 1.377 . S
C3822 C3821 1.373 . S
C3823 C3807 1.377 . S
C3823 C3821 1.389 . S
C3823 C3824 1.524 . S
C3824 C3823 1.524 . S
C3824 C3825 1.397 . S
C3824 C3829 1.363 . S
C3825 H3796 0.950 . S
C3825 C3824 1.397 . S
C3825 C3826 1.334 . S
C3826 H3797 0.950 . S
C3826 C3825 1.334 . S
C3826 C3827 1.287 . S
C3827 C3826 1.287 . S
C3827 C3828 1.524 . S
C3827 H3830 0.999 . S
C3828 H3798 0.950 . S
C3828 C3827 1.524 . S
C3828 C3829 1.415 . S
C3829 H3799 0.950 . S
C3829 C3824 1.363 . S
C3829 C3828 1.415 . S
H3830 C3827 0.999 . S
H3831 C3812 0.913 . S
H3832 C3850 0.951 . S
H3833 C3852 0.951 . S
H3834 C3854 0.950 . S
H3835 C3855 0.950 . S
H3836 C3857 0.950 . S
H3837 C3860 0.950 . S
H3838 C3861 0.950 . S
H3839 C3863 0.950 . S
H3840 C3864 0.950 . S
H3841 C3865 0.951 . S
H3842 C3867 0.951 . S
H3843 C3869 0.950 . S
H3844 C3870 0.950 . S
H3845 C3872 0.950 . S
H3846 C3875 0.950 . S
H3847 C3876 0.950 . S
H3848 C3878 0.950 . S
H3849 C3879 0.950 . S
C3850 H3832 0.951 . S
C3850 C3851 1.366 . S
C3850 C3852 1.388 . S
C3851 C3850 1.366 . S
C3851 C3855 1.385 . S
C3852 H3833 0.951 . S
C3852 C3850 1.388 . S
C3852 C3853 1.366 . S
C3853 C3852 1.366 . S
C3853 C3854 1.414 . S
C3853 C3856 1.499 . S
C3854 H3834 0.950 . S
C3854 C3853 1.414 . S
C3854 C3855 1.374 . S
C3855 H3835 0.950 . S
C3855 C3851 1.385 . S
C3855 C3854 1.374 . S
C3856 C3853 1.499 . S
C3856 C3857 1.373 . S
C3856 C3858 1.389 . S
C3857 H3836 0.950 . S
C3857 C3856 1.373 . S
C3857 C3873 1.377 . S
C3858 C3856 1.389 . S
C3858 C3859 1.524 . S
C3858 C3872 1.377 . S
C3859 C3858 1.524 . S
C3859 C3860 1.397 . S
C3859 C3864 1.363 . S
C3860 H3837 0.950 . S
C3860 C3859 1.397 . S
C3860 C3861 1.334 . S
C3861 H3838 0.950 . S
C3861 C3860 1.334 . S
C3861 C3862 1.287 . S
C3862 C3861 1.287 . S
C3862 C3863 1.524 . S
C3862 H3881 0.913 . S
C3863 H3839 0.950 . S
C3863 C3862 1.524 . S
C3863 C3864 1.415 . S
C3864 H3840 0.950 . S
C3864 C3859 1.363 . S
C3864 C3863 1.415 . S
C3865 H3841 0.951 . S
C3865 C3866 1.366 . S
C3865 C3867 1.388 . S
C3866 C3865 1.366 . S
C3866 C3870 1.385 . S
C3867 H3842 0.951 . S
C3867 C3865 1.388 . S
C3867 C3868 1.366 . S
C3868 C3867 1.366 . S
C3868 C3869 1.414 . S
C3868 C3871 1.499 . S
C3869 H3843 0.950 . S
C3869 C3868 1.414 . S
C3869 C3870 1.374 . S
C3870 H3844 0.950 . S
C3870 C3866 1.385 . S
C3870 C3869 1.374 . S
C3871 C3868 1.499 . S
C3871 C3872 1.373 . S
C3871 C3873 1.389 . S
C3872 H3845 0.950 . S
C3872 C3858 1.377 . S
C3872 C3871 1.373 . S
C3873 C3857 1.377 . S
C3873 C3871 1.389 . S
C3873 C3874 1.524 . S
C3874 C3873 1.524 . S
C3874 C3875 1.397 . S
C3874 C3879 1.363 . S
C3875 H3846 0.950 . S
C3875 C3874 1.397 . S
C3875 C3876 1.334 . S
C3876 H3847 0.950 . S
C3876 C3875 1.334 . S
C3876 C3877 1.287 . S
C3877 C3876 1.287 . S
C3877 C3878 1.524 . S
C3877 H3880 0.999 . S
C3878 H3848 0.950 . S
C3878 C3877 1.524 . S
C3878 C3879 1.415 . S
C3879 H3849 0.950 . S
C3879 C3874 1.363 . S
C3879 C3878 1.415 . S
H3880 C3877 0.999 . S
H3881 C3862 0.913 . S
H3882 C3900 0.951 . S
H3883 C3902 0.951 . S
H3884 C3904 0.950 . S
H3885 C3905 0.950 . S
H3886 C3907 0.950 . S
H3887 C3910 0.950 . S
H3888 C3911 0.950 . S
H3889 C3913 0.950 . S
H3890 C3914 0.950 . S
H3891 C3915 0.951 . S
H3892 C3917 0.951 . S
H3893 C3919 0.950 . S
H3894 C3920 0.950 . S
H3895 C3922 0.950 . S
H3896 C3925 0.950 . S
H3897 C3926 0.950 . S
H3898 C3928 0.950 . S
H3899 C3929 0.950 . S
C3900 H3882 0.951 . S
C3900 C3901 1.366 . S
C3900 C3902 1.388 . S
C3901 C3900 1.366 . S
C3901 C3905 1.385 . S
C3902 H3883 0.951 . S
C3902 C3900 1.388 . S
C3902 C3903 1.366 . S
C3903 C3902 1.366 . S
C3903 C3904 1.414 . S
C3903 C3906 1.499 . S
C3904 H3884 0.950 . S
C3904 C3903 1.414 . S
C3904 C3905 1.374 . S
C3905 H3885 0.950 . S
C3905 C3901 1.385 . S
C3905 C3904 1.374 . S
C3906 C3903 1.499 . S
C3906 C3907 1.373 . S
C3906 C3908 1.389 . S
C3907 H3886 0.950 . S
C3907 C3906 1.373 . S
C3907 C3923 1.377 . S
C3908 C3906 1.389 . S
C3908 C3909 1.524 . S
C3908 C3922 1.377 . S
C3909 C3908 1.524 . S
C3909 C3910 1.397 . S
C3909 C3914 1.363 . S
C3910 H3887 0.950 . S
C3910 C3909 1.397 . S
C3910 C3911 1.334 . S
C3911 H3888 0.950 . S
C3911 C3910 1.334 . S
C3911 C3912 1.287 . S
C3912 C3911 1.287 . S
C3912 C3913 1.524 . S
C3912 H3931 0.913 . S
C3913 H3889 0.950 . S
C3913 C3912 1.524 . S
C3913 C3914 1.415 . S
C3914 H3890 0.950 . S
C3914 C3909 1.363 . S
C3914 C3913 1.415 . S
C3915 H3891 0.951 . S
C3915 C3916 1.366 . S
C3915 C3917 1.388 . S
C3916 C3915 1.366 . S
C3916 C3920 1.385 . S
C3917 H3892 0.951 . S
C3917 C3915 1.388 . S
C3917 C3918 1.366 . S
C3918 C3917 1.366 . S
C3918 C3919 1.414 . S
C3918 C3921 1.499 . S
C3919 H3893 0.950 . S
C3919 C3918 1.414 . S
C3919 C3920 1.374 . S
C3920 H3894 0.950 . S
C3920 C3916 1.385 . S
C3920 C3919 1.374 . S
C3921 C3918 1.499 . S
C3921 C3922 1.373 . S
C3921 C3923 1.389 . S
C3922 H3895 0.950 . S
C3922 C3908 1.377 . S
C3922 C3921 1.373 . S
C3923 C3907 1.377 . S
C3923 C3921 1.389 . S
C3923 C3924 1.524 . S
C3924 C3923 1.524 . S
C3924 C3925 1.397 . S
C3924 C3929 1.363 . S
C3925 H3896 0.950 . S
C3925 C3924 1.397 . S
C3925 C3926 1.334 . S
C3926 H3897 0.950 . S
C3926 C3925 1.334 . S
C3926 C3927 1.287 . S
C3927 C3926 1.287 . S
C3927 C3928 1.524 . S
C3927 H3930 0.999 . S
C3928 H3898 0.950 . S
C3928 C3927 1.524 . S
C3928 C3929 1.415 . S
C3929 H3899 0.950 . S
C3929 C3924 1.363 . S
C3929 C3928 1.415 . S
H3930 C3927 0.999 . S
H3931 C3912 0.913 . S
H3932 C3950 0.951 . S
H3933 C3952 0.951 . S
H3934 C3954 0.950 . S
H3935 C3955 0.950 . S
H3936 C3957 0.950 . S
H3937 C3960 0.950 . S
H3938 C3961 0.950 . S
H3939 C3963 0.950 . S
H3940 C3964 0.950 . S
H3941 C3965 0.951 . S
H3942 C3967 0.951 . S
H3943 C3969 0.950 . S
H3944 C3970 0.950 . S
H3945 C3972 0.950 . S
H3946 C3975 0.950 . S
H3947 C3976 0.950 . S
H3948 C3978 0.950 . S
H3949 C3979 0.950 . S
C3950 H3932 0.951 . S
C3950 C3951 1.366 . S
C3950 C3952 1.388 . S
C3951 C3950 1.366 . S
C3951 C3955 1.385 . S
C3952 H3933 0.951 . S
C3952 C3950 1.388 . S
C3952 C3953 1.366 . S
C3953 C3952 1.366 . S
C3953 C3954 1.414 . S
C3953 C3956 1.499 . S
C3954 H3934 0.950 . S
C3954 C3953 1.414 . S
C3954 C3955 1.374 . S
C3955 H3935 0.950 . S
C3955 C3951 1.385 . S
C3955 C3954 1.374 . S
C3956 C3953 1.499 . S
C3956 C3957 1.373 . S
C3956 C3958 1.389 . S
C3957 H3936 0.950 . S
C3957 C3956 1.373 . S
C3957 C3973 1.377 . S
C3958 C3956 1.389 . S
C3958 C3959 1.524 . S
C3958 C3972 1.377 . S
C3959 C3958 1.524 . S
C3959 C3960 1.397 . S
C3959 C3964 1.363 . S
C3960 H3937 0.950 . S
C3960 C3959 1.397 . S
C3960 C3961 1.334 . S
C3961 H3938 0.950 . S
C3961 C3960 1.334 . S
C3961 C3962 1.287 . S
C3962 C3961 1.287 . S
C3962 C3963 1.524 . S
C3962 H3981 0.913 . S
C3963 H3939 0.950 . S
C3963 C3962 1.524 . S
C3963 C3964 1.415 . S
C3964 H3940 0.950 . S
C3964 C3959 1.363 . S
C3964 C3963 1.415 . S
C3965 H3941 0.951 . S
C3965 C3966 1.366 . S
C3965 C3967 1.388 . S
C3966 C3965 1.366 . S
C3966 C3970 1.385 . S
C3967 H3942 0.951 . S
C3967 C3965 1.388 . S
C3967 C3968 1.366 . S
C3968 C3967 1.366 . S
C3968 C3969 1.414 . S
C3968 C3971 1.499 . S
C3969 H3943 0.950 . S
C3969 C3968 1.414 . S
C3969 C3970 1.374 . S
C3970 H3944 0.950 . S
C3970 C3966 1.385 . S
C3970 C3969 1.374 . S
C3971 C3968 1.499 . S
C3971 C3972 1.373 . S
C3971 C3973 1.389 . S
C3972 H3945 0.950 . S
C3972 C3958 1.377 . S
C3972 C3971 1.373 . S
C3973 C3957 1.377 . S
C3973 C3971 1.389 . S
C3973 C3974 1.524 . S
C3974 C3973 1.524 . S
C3974 C3975 1.397 . S
C3974 C3979 1.363 . S
C3975 H3946 0.950 . S
C3975 C3974 1.397 . S
C3975 C3976 1.334 . S
C3976 H3947 0.950 . S
C3976 C3975 1.334 . S
C3976 C3977 1.287 . S
C3977 C3976 1.287 . S
C3977 C3978 1.524 . S
C3977 H3980 0.999 . S
C3978 H3948 0.950 . S
C3978 C3977 1.524 . S
C3978 C3979 1.415 . S
C3979 H3949 0.950 . S
C3979 C3974 1.363 . S
C3979 C3978 1.415 . S
H3980 C3977 0.999 . S
H3981 C3962 0.913 . S
H3982 C4000 0.951 . S
H3983 C4002 0.951 . S
H3984 C4004 0.950 . S
H3985 C4005 0.950 . S
H3986 C4007 0.950 . S
H3987 C4010 0.950 . S
H3988 C4011 0.950 . S
H3989 C4013 0.950 . S
H3990 C4014 0.950 . S
H3991 C4015 0.951 . S
H3992 C4017 0.951 . S
H3993 C4019 0.950 . S
H3994 C4020 0.950 . S
H3995 C4022 0.950 . S
H3996 C4025 0.950 . S
H3997 C4026 0.950 . S
H3998 C4028 0.950 . S
H3999 C4029 0.950 . S
C4000 H3982 0.951 . S
C4000 C4001 1.366 . S
C4000 C4002 1.388 . S
C4001 C4000 1.366 . S
C4001 C4005 1.385 . S
C4002 H3983 0.951 . S
C4002 C4000 1.388 . S
C4002 C4003 1.366 . S
C4003 C4002 1.366 . S
C4003 C4004 1.414 . S
C4003 C4006 1.499 . S
C4004 H3984 0.950 . S
C4004 C4003 1.414 . S
C4004 C4005 1.374 . S
C4005 H3985 0.950 . S
C4005 C4001 1.385 . S
C4005 C4004 1.374 . S
C4006 C4003 1.499 . S
C4006 C4007 1.373 . S
C4006 C4008 1.389 . S
C4007 H3986 0.950 . S
C4007 C4006 1.373 . S
C4007 C4023 1.377 . S
C4008 C4006 1.389 . S
C4008 C4009 1.524 . S
C4008 C4022 1.377 . S
C4009 C4008 1.524 . S
C4009 C4010 1.397 . S
C4009 C4014 1.363 . S
C4010 H3987 0.950 . S
C4010 C4009 1.397 . S
C4010 C4011 1.334 . S
C4011 H3988 0.950 . S
C4011 C4010 1.334 . S
C4011 C4012 1.287 . S
C4012 C4011 1.287 . S
C4012 C4013 1.524 . S
C4012 H4031 0.913 . S
C4013 H3989 0.950 . S
C4013 C4012 1.524 . S
C4013 C4014 1.415 . S
C4014 H3990 0.950 . S
C4014 C4009 1.363 . S
C4014 C4013 1.415 . S
C4015 H3991 0.951 . S
C4015 C4016 1.366 . S
C4015 C4017 1.388 . S
C4016 C4015 1.366 . S
C4016 C4020 1.385 . S
C4017 H3992 0.951 . S
C4017 C4015 1.388 . S
C4017 C4018 1.366 . S
C4018 C4017 1.366 . S
C4018 C4019 1.414 . S
C4018 C4021 1.499 . S
C4019 H3993 0.950 . S
C4019 C4018 1.414 . S
C4019 C4020 1.374 . S
C4020 H3994 0.950 . S
C4020 C4016 1.385 . S
C4020 C4019 1.374 . S
C4021 C4018 1.499 . S
C4021 C4022 1.373 . S
C4021 C4023 1.389 . S
C4022 H3995 0.950 . S
C4022 C4008 1.377 . S
C4022 C4021 1.373 . S
C4023 C4007 1.377 . S
C4023 C4021 1.389 . S
C4023 C4024 1.524 . S
C4024 C4023 1.524 . S
C4024 C4025 1.397 . S
C4024 C4029 1.363 . S
C4025 H3996 0.950 . S
C4025 C4024 1.397 . S
C4025 C4026 1.334 . S
C4026 H3997 0.950 . S
C4026 C4025 1.334 . S
C4026 C4027 1.287 . S
C4027 C4026 1.287 . S
C4027 C4028 1.524 . S
C4027 H4030 0.999 . S
C4028 H3998 0.950 . S
C4028 C4027 1.524 . S
C4028 C4029 1.415 . S
C4029 H3999 0.950 . S
C4029 C4024 1.363 . S
C4029 C4028 1.415 . S
H4030 C4027 0.999 . S
H4031 C4012 0.913 . S
H4032 C4050 0.951 . S
H4033 C4052 0.951 . S
H4034 C4054 0.950 . S
H4035 C4055 0.950 . S
H4036 C4057 0.950 . S
H4037 C4060 0.950 . S
H4038 C4061 0.950 . S
H4039 C4063 0.950 . S
H4040 C4064 0.950 . S
H4041 C4065 0.951 . S
H4042 C4067 0.951 . S
H4043 C4069 0.950 . S
H4044 C4070 0.950 . S
H4045 C4072 0.950 . S
H4046 C4075 0.950 . S
H4047 C4076 0.950 . S
H4048 C4078 0.950 . S
H4049 C4079 0.950 . S
C4050 H4032 0.951 . S
C4050 C4051 1.366 . S
C4050 C4052 1.388 . S
C4051 C4050 1.366 . S
C4051 C4055 1.385 . S
C4052 H4033 0.951 . S
C4052 C4050 1.388 . S
C4052 C4053 1.366 . S
C4053 C4052 1.366 . S
C4053 C4054 1.414 . S
C4053 C4056 1.499 . S
C4054 H4034 0.950 . S
C4054 C4053 1.414 . S
C4054 C4055 1.374 . S
C4055 H4035 0.950 . S
C4055 C4051 1.385 . S
C4055 C4054 1.374 . S
C4056 C4053 1.499 . S
C4056 C4057 1.373 . S
C4056 C4058 1.389 . S
C4057 H4036 0.950 . S
C4057 C4056 1.373 . S
C4057 C4073 1.377 . S
C4058 C4056 1.389 . S
C4058 C4059 1.524 . S
C4058 C4072 1.377 . S
C4059 C4058 1.524 . S
C4059 C4060 1.397 . S
C4059 C4064 1.363 . S
C4060 H4037 0.950 . S
C4060 C4059 1.397 . S
C4060 C4061 1.334 . S
C4061 H4038 0.950 . S
C4061 C4060 1.334 . S
C4061 C4062 1.287 . S
C4062 C4061 1.287 . S
C4062 C4063 1.524 . S
C4062 H4081 0.913 . S
C4063 H4039 0.950 . S
C4063 C4062 1.524 . S
C4063 C4064 1.415 . S
C4064 H4040 0.950 . S
C4064 C4059 1.363 . S
C4064 C4063 1.415 . S
C4065 H4041 0.951 . S
C4065 C4066 1.366 . S
C4065 C4067 1.388 . S
C4066 C4065 1.366 . S
C4066 C4070 1.385 . S
C4067 H4042 0.951 . S
C4067 C4065 1.388 . S
C4067 C4068 1.366 . S
C4068 C4067 1.366 . S
C4068 C4069 1.414 . S
C4068 C4071 1.499 . S
C4069 H4043 0.950 . S
C4069 C4068 1.414 . S
C4069 C4070 1.374 . S
C4070 H4044 0.950 . S
C4070 C4066 1.385 . S
C4070 C4069 1.374 . S
C4071 C4068 1.499 . S
C4071 C4072 1.373 . S
C4071 C4073 1.389 . S
C4072 H4045 0.950 . S
C4072 C4058 1.377 . S
C4072 C4071 1.373 . S
C4073 C4057 1.377 . S
C4073 C4071 1.389 . S
C4073 C4074 1.524 . S
C4074 C4073 1.524 . S
C4074 C4075 1.397 . S
C4074 C4079 1.363 . S
C4075 H4046 0.950 . S
C4075 C4074 1.397 . S
C4075 C4076 1.334 . S
C4076 H4047 0.950 . S
C4076 C4075 1.334 . S
C4076 C4077 1.287 . S
C4077 C4076 1.287 . S
C4077 C4078 1.524 . S
C4077 H4080 0.999 . S
C4078 H4048 0.950 . S
C4078 C4077 1.524 . S
C4078 C4079 1.415 . S
C4079 H4049 0.950 . S
C4079 C4074 1.363 . S
C4079 C4078 1.415 . S
H4080 C4077 0.999 . S
H4081 C4062 0.913 . S
H4082 C4100 0.951 . S
H4083 C4102 0.951 . S
H4084 C4104 0.950 . S
H4085 C4105 0.950 . S
H4086 C4107 0.950 . S
H4087 C4110 0.950 . S
H4088 C4111 0.950 . S
H4089 C4113 0.950 . S
H4090 C4114 0.950 . S
H4091 C4115 0.951 . S
H4092 C4117 0.951 . S
H4093 C4119 0.950 . S
H4094 C4120 0.950 . S
H4095 C4122 0.950 . S
H4096 C4125 0.950 . S
H4097 C4126 0.950 . S
H4098 C4128 0.950 . S
H4099 C4129 0.950 . S
C4100 H4082 0.951 . S
C4100 C4101 1.366 . S
C4100 C4102 1.388 . S
C4101 C4100 1.366 . S
C4101 C4105 1.385 . S
C4102 H4083 0.951 . S
C4102 C4100 1.388 . S
C4102 C4103 1.366 . S
C4103 C4102 1.366 . S
C4103 C4104 1.414 . S
C4103 C4106 1.499 . S
C4104 H4084 0.950 . S
C4104 C4103 1.414 . S
C4104 C4105 1.374 . S
C4105 H4085 0.950 . S
C4105 C4101 1.385 . S
C4105 C4104 1.374 . S
C4106 C4103 1.499 . S
C4106 C4107 1.373 . S
C4106 C4108 1.389 . S
C4107 H4086 0.950 . S
C4107 C4106 1.373 . S
C4107 C4123 1.377 . S
C4108 C4106 1.389 . S
C4108 C4109 1.524 . S
C4108 C4122 1.377 . S
C4109 C4108 1.524 . S
C4109 C4110 1.397 . S
C4109 C4114 1.363 . S
C4110 H4087 0.950 . S
C4110 C4109 1.397 . S
C4110 C4111 1.334 . S
C4111 H4088 0.950 . S
C4111 C4110 1.334 . S
C4111 C4112 1.287 . S
C4112 C4111 1.287 . S
C4112 C4113 1.524 . S
C4112 H4131 0.913 . S
C4113 H4089 0.950 . S
C4113 C4112 1.524 . S
C4113 C4114 1.415 . S
C4114 H4090 0.950 . S
C4114 C4109 1.363 . S
C4114 C4113 1.415 . S
C4115 H4091 0.951 . S
C4115 C4116 1.366 . S
C4115 C4117 1.388 . S
C4116 C4115 1.366 . S
C4116 C4120 1.385 . S
C4117 H4092 0.951 . S
C4117 C4115 1.388 . S
C4117 C4118 1.366 . S
C4118 C4117 1.366 . S
C4118 C4119 1.414 . S
C4118 C4121 1.499 . S
C4119 H4093 0.950 . S
C4119 C4118 1.414 . S
C4119 C4120 1.374 . S
C4120 H4094 0.950 . S
C4120 C4116 1.385 . S
C4120 C4119 1.374 . S
C4121 C4118 1.499 . S
C4121 C4122 1.373 . S
C4121 C4123 1.389 . S
C4122 H4095 0.950 . S
C4122 C4108 1.377 . S
C4122 C4121 1.373 . S
C4123 C4107 1.377 . S
C4123 C4121 1.389 . S
C4123 C4124 1.524 . S
C4124 C4123 1.524 . S
C4124 C4125 1.397 . S
C4124 C4129 1.363 . S
C4125 H4096 0.950 . S
C4125 C4124 1.397 . S
C4125 C4126 1.334 . S
C4126 H4097 0.950 . S
C4126 C4125 1.334 . S
C4126 C4127 1.287 . S
C4127 C4126 1.287 . S
C4127 C4128 1.524 . S
C4127 H4130 0.999 . S
C4128 H4098 0.950 . S
C4128 C4127 1.524 . S
C4128 C4129 1.415 . S
C4129 H4099 0.950 . S
C4129 C4124 1.363 . S
C4129 C4128 1.415 . S
H4130 C4127 0.999 . S
H4131 C4112 0.913 . S
H4132 C4150 0.951 . S
H4133 C4152 0.951 . S
H4134 C4154 0.950 . S
H4135 C4155 0.950 . S
H4136 C4157 0.950 . S
H4137 C4160 0.950 . S
H4138 C4161 0.950 . S
H4139 C4163 0.950 . S
H4140 C4164 0.950 . S
H4141 C4165 0.951 . S
H4142 C4167 0.951 . S
H4143 C4169 0.950 . S
H4144 C4170 0.950 . S
H4145 C4172 0.950 . S
H4146 C4175 0.950 . S
H4147 C4176 0.950 . S
H4148 C4178 0.950 . S
H4149 C4179 0.950 . S
C4150 H4132 0.951 . S
C4150 C4151 1.366 . S
C4150 C4152 1.388 . S
C4151 C4150 1.366 . S
C4151 C4155 1.385 . S
C4152 H4133 0.951 . S
C4152 C4150 1.388 . S
C4152 C4153 1.366 . S
C4153 C4152 1.366 . S
C4153 C4154 1.414 . S
C4153 C4156 1.499 . S
C4154 H4134 0.950 . S
C4154 C4153 1.414 . S
C4154 C4155 1.374 . S
C4155 H4135 0.950 . S
C4155 C4151 1.385 . S
C4155 C4154 1.374 . S
C4156 C4153 1.499 . S
C4156 C4157 1.373 . S
C4156 C4158 1.389 . S
C4157 H4136 0.950 . S
C4157 C4156 1.373 . S
C4157 C4173 1.377 . S
C4158 C4156 1.389 . S
C4158 C4159 1.524 . S
C4158 C4172 1.377 . S
C4159 C4158 1.524 . S
C4159 C4160 1.397 . S
C4159 C4164 1.363 . S
C4160 H4137 0.950 . S
C4160 C4159 1.397 . S
C4160 C4161 1.334 . S
C4161 H4138 0.950 . S
C4161 C4160 1.334 . S
C4161 C4162 1.287 . S
C4162 C4161 1.287 . S
C4162 C4163 1.524 . S
C4162 H4181 0.913 . S
C4163 H4139 0.950 . S
C4163 C4162 1.524 . S
C4163 C4164 1.415 . S
C4164 H4140 0.950 . S
C4164 C4159 1.363 . S
C4164 C4163 1.415 . S
C4165 H4141 0.951 . S
C4165 C4166 1.366 . S
C4165 C4167 1.388 . S
C4166 C4165 1.366 . S
C4166 C4170 1.385 . S
C4167 H4142 0.951 . S
C4167 C4165 1.388 . S
C4167 C4168 1.366 . S
C4168 C4167 1.366 . S
C4168 C4169 1.414 . S
C4168 C4171 1.499 . S
C4169 H4143 0.950 . S
C4169 C4168 1.414 . S
C4169 C4170 1.374 . S
C4170 H4144 0.950 . S
C4170 C4166 1.385 . S
C4170 C4169 1.374 . S
C4171 C4168 1.499 . S
C4171 C4172 1.373 . S
C4171 C4173 1.389 . S
C4172 H4145 0.950 . S
C4172 C4158 1.377 . S
C4172 C4171 1.373 . S
C4173 C4157 1.377 . S
C4173 C4171 1.389 . S
C4173 C4174 1.524 . S
C4174 C4173 1.524 . S
C4174 C4175 1.397 . S
C4174 C4179 1.363 . S
C4175 H4146 0.950 . S
C4175 C4174 1.397 . S
C4175 C4176 1.334 . S
C4176 H4147 0.950 . S
C4176 C4175 1.334 . S
C4176 C4177 1.287 . S
C4177 C4176 1.287 . S
C4177 C4178 1.524 . S
C4177 H4180 0.999 . S
C4178 H4148 0.950 . S
C4178 C4177 1.524 . S
C4178 C4179 1.415 . S
C4179 H4149 0.950 . S
C4179 C4174 1.363 . S
C4179 C4178 1.415 . S
H4180 C4177 0.999 . S
H4181 C4162 0.913 . S
H4182 C4200 0.951 . S
H4183 C4202 0.951 . S
H4184 C4204 0.950 . S
H4185 C4205 0.950 . S
H4186 C4207 0.950 . S
H4187 C4210 0.950 . S
H4188 C4211 0.950 . S
H4189 C4213 0.950 . S
H4190 C4214 0.950 . S
H4191 C4215 0.951 . S
H4192 C4217 0.951 . S
H4193 C4219 0.950 . S
H4194 C4220 0.950 . S
H4195 C4222 0.950 . S
H4196 C4225 0.950 . S
H4197 C4226 0.950 . S
H4198 C4228 0.950 . S
H4199 C4229 0.950 . S
C4200 H4182 0.951 . S
C4200 C4201 1.366 . S
C4200 C4202 1.388 . S
C4201 C4200 1.366 . S
C4201 C4205 1.385 . S
C4202 H4183 0.951 . S
C4202 C4200 1.388 . S
C4202 C4203 1.366 . S
C4203 C4202 1.366 . S
C4203 C4204 1.414 . S
C4203 C4206 1.499 . S
C4204 H4184 0.950 . S
C4204 C4203 1.414 . S
C4204 C4205 1.374 . S
C4205 H4185 0.950 . S
C4205 C4201 1.385 . S
C4205 C4204 1.374 . S
C4206 C4203 1.499 . S
C4206 C4207 1.373 . S
C4206 C4208 1.389 . S
C4207 H4186 0.950 . S
C4207 C4206 1.373 . S
C4207 C4223 1.377 . S
C4208 C4206 1.389 . S
C4208 C4209 1.524 . S
C4208 C4222 1.377 . S
C4209 C4208 1.524 . S
C4209 C4210 1.397 . S
C4209 C4214 1.363 . S
C4210 H4187 0.950 . S
C4210 C4209 1.397 . S
C4210 C4211 1.334 . S
C4211 H4188 0.950 . S
C4211 C4210 1.334 . S
C4211 C4212 1.287 . S
C4212 C4211 1.287 . S
C4212 C4213 1.524 . S
C4212 H4231 0.913 . S
C4213 H4189 0.950 . S
C4213 C4212 1.524 . S
C4213 C4214 1.415 . S
C4214 H4190 0.950 . S
C4214 C4209 1.363 . S
C4214 C4213 1.415 . S
C4215 H4191 0.951 . S
C4215 C4216 1.366 . S
C4215 C4217 1.388 . S
C4216 C4215 1.366 . S
C4216 C4220 1.385 . S
C4217 H4192 0.951 . S
C4217 C4215 1.388 . S
C4217 C4218 1.366 . S
C4218 C4217 1.366 . S
C4218 C4219 1.414 . S
C4218 C4221 1.499 . S
C4219 H4193 0.950 . S
C4219 C4218 1.414 . S
C4219 C4220 1.374 . S
C4220 H4194 0.950 . S
C4220 C4216 1.385 . S
C4220 C4219 1.374 . S
C4221 C4218 1.499 . S
C4221 C4222 1.373 . S
C4221 C4223 1.389 . S
C4222 H4195 0.950 . S
C4222 C4208 1.377 . S
C4222 C4221 1.373 . S
C4223 C4207 1.377 . S
C4223 C4221 1.389 . S
C4223 C4224 1.524 . S
C4224 C4223 1.524 . S
C4224 C4225 1.397 . S
C4224 C4229 1.363 . S
C4225 H4196 0.950 . S
C4225 C4224 1.397 . S
C4225 C4226 1.334 . S
C4226 H4197 0.950 . S
C4226 C4225 1.334 . S
C4226 C4227 1.287 . S
C4227 C4226 1.287 . S
C4227 C4228 1.524 . S
C4227 H4230 0.999 . S
C4228 H4198 0.950 . S
C4228 C4227 1.524 . S
C4228 C4229 1.415 . S
C4229 H4199 0.950 . S
C4229 C4224 1.363 . S
C4229 C4228 1.415 . S
H4230 C4227 0.999 . S
H4231 C4212 0.913 . S
H4232 C4250 0.951 . S
H4233 C4252 0.951 . S
H4234 C4254 0.950 . S
H4235 C4255 0.950 . S
H4236 C4257 0.950 . S
H4237 C4260 0.950 . S
H4238 C4261 0.950 . S
H4239 C4263 0.950 . S
H4240 C4264 0.950 . S
H4241 C4265 0.951 . S
H4242 C4267 0.951 . S
H4243 C4269 0.950 . S
H4244 C4270 0.950 . S
H4245 C4272 0.950 . S
H4246 C4275 0.950 . S
H4247 C4276 0.950 . S
H4248 C4278 0.950 . S
H4249 C4279 0.950 . S
C4250 H4232 0.951 . S
C4250 C4251 1.366 . S
C4250 C4252 1.388 . S
C4251 C4250 1.366 . S
C4251 C4255 1.385 . S
C4252 H4233 0.951 . S
C4252 C4250 1.388 . S
C4252 C4253 1.366 . S
C4253 C4252 1.366 . S
C4253 C4254 1.414 . S
C4253 C4256 1.499 . S
C4254 H4234 0.950 . S
C4254 C4253 1.414 . S
C4254 C4255 1.374 . S
C4255 H4235 0.950 . S
C4255 C4251 1.385 . S
C4255 C4254 1.374 . S
C4256 C4253 1.499 . S
C4256 C4257 1.373 . S
C4256 C4258 1.389 . S
C4257 H4236 0.950 . S
C4257 C4256 1.373 . S
C4257 C4273 1.377 . S
C4258 C4256 1.389 . S
C4258 C4259 1.524 . S
C4258 C4272 1.377 . S
C4259 C4258 1.524 . S
C4259 C4260 1.397 . S
C4259 C4264 1.363 . S
C4260 H4237 0.950 . S
C4260 C4259 1.397 . S
C4260 C4261 1.334 . S
C4261 H4238 0.950 . S
C4261 C4260 1.334 . S
C4261 C4262 1.287 . S
C4262 C4261 1.287 . S
C4262 C4263 1.524 . S
C4262 H4281 0.913 . S
C4263 H4239 0.950 . S
C4263 C4262 1.524 . S
C4263 C4264 1.415 . S
C4264 H4240 0.950 . S
C4264 C4259 1.363 . S
C4264 C4263 1.415 . S
C4265 H4241 0.951 . S
C4265 C4266 1.366 . S
C4265 C4267 1.388 . S
C4266 C4265 1.366 . S
C4266 C4270 1.385 . S
C4267 H4242 0.951 . S
C4267 C4265 1.388 . S
C4267 C4268 1.366 . S
C4268 C4267 1.366 . S
C4268 C4269 1.414 . S
C4268 C4271 1.499 . S
C4269 H4243 0.950 . S
C4269 C4268 1.414 . S
C4269 C4270 1.374 . S
C4270 H4244 0.950 . S
C4270 C4266 1.385 . S
C4270 C4269 1.374 . S
C4271 C4268 1.499 . S
C4271 C4272 1.373 . S
C4271 C4273 1.389 . S
C4272 H4245 0.950 . S
C4272 C4258 1.377 . S
C4272 C4271 1.373 . S
C4273 C4257 1.377 . S
C4273 C4271 1.389 . S
C4273 C4274 1.524 . S
C4274 C4273 1.524 . S
C4274 C4275 1.397 . S
C4274 C4279 1.363 . S
C4275 H4246 0.950 . S
C4275 C4274 1.397 . S
C4275 C4276 1.334 . S
C4276 H4247 0.950 . S
C4276 C4275 1.334 . S
C4276 C4277 1.287 . S
C4277 C4276 1.287 . S
C4277 C4278 1.524 . S
C4277 H4280 0.999 . S
C4278 H4248 0.950 . S
C4278 C4277 1.524 . S
C4278 C4279 1.415 . S
C4279 H4249 0.950 . S
C4279 C4274 1.363 . S
C4279 C4278 1.415 . S
H4280 C4277 0.999 . S
H4281 C4262 0.913 . S
H4282 C4300 0.951 . S
H4283 C4302 0.951 . S
H4284 C4304 0.950 . S
H4285 C4305 0.950 . S
H4286 C4307 0.950 . S
H4287 C4310 0.950 . S
H4288 C4311 0.950 . S
H4289 C4313 0.950 . S
H4290 C4314 0.950 . S
H4291 C4315 0.951 . S
H4292 C4317 0.951 . S
H4293 C4319 0.950 . S
H4294 C4320 0.950 . S
H4295 C4322 0.950 . S
H4296 C4325 0.950 . S
H4297 C4326 0.950 . S
H4298 C4328 0.950 . S
H4299 C4329 0.950 . S
C4300 H4282 0.951 . S
C4300 C4301 1.366 . S
C4300 C4302 1.388 . S
C4301 C4300 1.366 . S
C4301 C4305 1.385 . S
C4302 H4283 0.951 . S
C4302 C4300 1.388 . S
C4302 C4303 1.366 . S
C4303 C4302 1.366 . S
C4303 C4304 1.414 . S
C4303 C4306 1.499 . S
C4304 H4284 0.950 . S
C4304 C4303 1.414 . S
C4304 C4305 1.374 . S
C4305 H4285 0.950 . S
C4305 C4301 1.385 . S
C4305 C4304 1.374 . S
C4306 C4303 1.499 . S
C4306 C4307 1.373 . S
C4306 C4308 1.389 . S
C4307 H4286 0.950 . S
C4307 C4306 1.373 . S
C4307 C4323 1.377 . S
C4308 C4306 1.389 . S
C4308 C4309 1.524 . S
C4308 C4322 1.377 . S
C4309 C4308 1.524 . S
C4309 C4310 1.397 . S
C4309 C4314 1.363 . S
C4310 H4287 0.950 . S
C4310 C4309 1.397 . S
C4310 C4311 1.334 . S
C4311 H4288 0.950 . S
C4311 C4310 1.334 . S
C4311 C4312 1.287 . S
C4312 C4311 1.287 . S
C4312 C4313 1.524 . S
C4312 H4331 0.913 . S
C4313 H4289 0.950 . S
C4313 C4312 1.524 . S
C4313 C4314 1.415 . S
C4314 H4290 0.950 . S
C4314 C4309 1.363 . S
C4314 C4313 1.415 . S
C4315 H4291 0.951 . S
C4315 C4316 1.366 . S
C4315 C4317 1.388 . S
C4316 C4315 1.366 . S
C4316 C4320 1.385 . S
C4317 H4292 0.951 . S
C4317 C4315 1.388 . S
C4317 C4318 1.366 . S
C4318 C4317 1.366 . S
C4318 C4319 1.414 . S
C4318 C4321 1.499 . S
C4319 H4293 0.950 . S
C4319 C4318 1.414 . S
C4319 C4320 1.374 . S
C4320 H4294 0.950 . S
C4320 C4316 1.385 . S
C4320 C4319 1.374 . S
C4321 C4318 1.499 . S
C4321 C4322 1.373 . S
C4321 C4323 1.389 . S
C4322 H4295 0.950 . S
C4322 C4308 1.377 . S
C4322 C4321 1.373 . S
C4323 C4307 1.377 . S
C4323 C4321 1.389 . S
C4323 C4324 1.524 . S
C4324 C4323 1.524 . S
C4324 C4325 1.397 . S
C4324 C4329 1.363 . S
C4325 H4296 0.950 . S
C4325 C4324 1.397 . S
C4325 C4326 1.334 . S
C4326 H4297 0.950 . S
C4326 C4325 1.334 . S
C4326 C4327 1.287 . S
C4327 C4326 1.287 . S
C4327 C4328 1.524 . S
C4327 H4330 0.999 . S
C4328 H4298 0.950 . S
C4328 C4327 1.524 . S
C4328 C4329 1.415 . S
C4329 H4299 0.950 . S
C4329 C4324 1.363 . S
C4329 C4328 1.415 . S
H4330 C4327 0.999 . S
H4331 C4312 0.913 . S
H4332 C4350 0.951 . S
H4333 C4352 0.951 . S
H4334 C4354 0.950 . S
H4335 C4355 0.950 . S
H4336 C4357 0.950 . S
H4337 C4360 0.950 . S
H4338 C4361 0.950 . S
H4339 C4363 0.950 . S
H4340 C4364 0.950 . S
H4341 C4365 0.951 . S
H4342 C4367 0.951 . S
H4343 C4369 0.950 . S
H4344 C4370 0.950 . S
H4345 C4372 0.950 . S
H4346 C4375 0.950 . S
H4347 C4376 0.950 . S
H4348 C4378 0.950 . S
H4349 C4379 0.950 . S
C4350 H4332 0.951 . S
C4350 C4351 1.366 . S
C4350 C4352 1.388 . S
C4351 C4350 1.366 . S
C4351 C4355 1.385 . S
C4352 H4333 0.951 . S
C4352 C4350 1.388 . S
C4352 C4353 1.366 . S
C4353 C4352 1.366 . S
C4353 C4354 1.414 . S
C4353 C4356 1.499 . S
C4354 H4334 0.950 . S
C4354 C4353 1.414 . S
C4354 C4355 1.374 . S
C4355 H4335 0.950 . S
C4355 C4351 1.385 . S
C4355 C4354 1.374 . S
C4356 C4353 1.499 . S
C4356 C4357 1.373 . S
C4356 C4358 1.389 . S
C4357 H4336 0.950 . S
C4357 C4356 1.373 . S
C4357 C4373 1.377 . S
C4358 C4356 1.389 . S
C4358 C4359 1.524 . S
C4358 C4372 1.377 . S
C4359 C4358 1.524 . S
C4359 C4360 1.397 . S
C4359 C4364 1.363 . S
C4360 H4337 0.950 . S
C4360 C4359 1.397 . S
C4360 C4361 1.334 . S
C4361 H4338 0.950 . S
C4361 C4360 1.334 . S
C4361 C4362 1.287 . S
C4362 C4361 1.287 . S
C4362 C4363 1.524 . S
C4362 H4381 0.913 . S
C4363 H4339 0.950 . S
C4363 C4362 1.524 . S
C4363 C4364 1.415 . S
C4364 H4340 0.950 . S
C4364 C4359 1.363 . S
C4364 C4363 1.415 . S
C4365 H4341 0.951 . S
C4365 C4366 1.366 . S
C4365 C4367 1.388 . S
C4366 C4365 1.366 . S
C4366 C4370 1.385 . S
C4367 H4342 0.951 . S
C4367 C4365 1.388 . S
C4367 C4368 1.366 . S
C4368 C4367 1.366 . S
C4368 C4369 1.414 . S
C4368 C4371 1.499 . S
C4369 H4343 0.950 . S
C4369 C4368 1.414 . S
C4369 C4370 1.374 . S
C4370 H4344 0.950 . S
C4370 C4366 1.385 . S
C4370 C4369 1.374 . S
C4371 C4368 1.499 . S
C4371 C4372 1.373 . S
C4371 C4373 1.389 . S
C4372 H4345 0.950 . S
C4372 C4358 1.377 . S
C4372 C4371 1.373 . S
C4373 C4357 1.377 . S
C4373 C4371 1.389 . S
C4373 C4374 1.524 . S
C4374 C4373 1.524 . S
C4374 C4375 1.397 . S
C4374 C4379 1.363 . S
C4375 H4346 0.950 . S
C4375 C4374 1.397 . S
C4375 C4376 1.334 . S
C4376 H4347 0.950 . S
C4376 C4375 1.334 . S
C4376 C4377 1.287 . S
C4377 C4376 1.287 . S
C4377 C4378 1.524 . S
C4377 H4380 0.999 . S
C4378 H4348 0.950 . S
C4378 C4377 1.524 . S
C4378 C4379 1.415 . S
C4379 H4349 0.950 . S
C4379 C4374 1.363 . S
C4379 C4378 1.415 . S
H4380 C4377 0.999 . S
H4381 C4362 0.913 . S
H4382 C4400 0.951 . S
H4383 C4402 0.951 . S
H4384 C4404 0.950 . S
H4385 C4405 0.950 . S
H4386 C4407 0.950 . S
H4387 C4410 0.950 . S
H4388 C4411 0.950 . S
H4389 C4413 0.950 . S
H4390 C4414 0.950 . S
H4391 C4415 0.951 . S
H4392 C4417 0.951 . S
H4393 C4419 0.950 . S
H4394 C4420 0.950 . S
H4395 C4422 0.950 . S
H4396 C4425 0.950 . S
H4397 C4426 0.950 . S
H4398 C4428 0.950 . S
H4399 C4429 0.950 . S
C4400 H4382 0.951 . S
C4400 C4401 1.366 . S
C4400 C4402 1.388 . S
C4401 C4400 1.366 . S
C4401 C4405 1.385 . S
C4402 H4383 0.951 . S
C4402 C4400 1.388 . S
C4402 C4403 1.366 . S
C4403 C4402 1.366 . S
C4403 C4404 1.414 . S
C4403 C4406 1.499 . S
C4404 H4384 0.950 . S
C4404 C4403 1.414 . S
C4404 C4405 1.374 . S
C4405 H4385 0.950 . S
C4405 C4401 1.385 . S
C4405 C4404 1.374 . S
C4406 C4403 1.499 . S
C4406 C4407 1.373 . S
C4406 C4408 1.389 . S
C4407 H4386 0.950 . S
C4407 C4406 1.373 . S
C4407 C4423 1.377 . S
C4408 C4406 1.389 . S
C4408 C4409 1.524 . S
C4408 C4422 1.377 . S
C4409 C4408 1.524 . S
C4409 C4410 1.397 . S
C4409 C4414 1.363 . S
C4410 H4387 0.950 . S
C4410 C4409 1.397 . S
C4410 C4411 1.334 . S
C4411 H4388 0.950 . S
C4411 C4410 1.334 . S
C4411 C4412 1.287 . S
C4412 C4411 1.287 . S
C4412 C4413 1.524 . S
C4412 H4431 0.913 . S
C4413 H4389 0.950 . S
C4413 C4412 1.524 . S
C4413 C4414 1.415 . S
C4414 H4390 0.950 . S
C4414 C4409 1.363 . S
C4414 C4413 1.415 . S
C4415 H4391 0.951 . S
C4415 C4416 1.366 . S
C4415 C4417 1.388 . S
C4416 C4415 1.366 . S
C4416 C4420 1.385 . S
C4417 H4392 0.951 . S
C4417 C4415 1.388 . S
C4417 C4418 1.366 . S
C4418 C4417 1.366 . S
C4418 C4419 1.414 . S
C4418 C4421 1.499 . S
C4419 H4393 0.950 . S
C4419 C4418 1.414 . S
C4419 C4420 1.374 . S
C4420 H4394 0.950 . S
C4420 C4416 1.385 . S
C4420 C4419 1.374 . S
C4421 C4418 1.499 . S
C4421 C4422 1.373 . S
C4421 C4423 1.389 . S
C4422 H4395 0.950 . S
C4422 C4408 1.377 . S
C4422 C4421 1.373 . S
C4423 C4407 1.377 . S
C4423 C4421 1.389 . S
C4423 C4424 1.524 . S
C4424 C4423 1.524 . S
C4424 C4425 1.397 . S
C4424 C4429 1.363 . S
C4425 H4396 0.950 . S
C4425 C4424 1.397 . S
C4425 C4426 1.334 . S
C4426 H4397 0.950 . S
C4426 C4425 1.334 . S
C4426 C4427 1.287 . S
C4427 C4426 1.287 . S
C4427 C4428 1.524 . S
C4427 H4430 0.999 . S
C4428 H4398 0.950 . S
C4428 C4427 1.524 . S
C4428 C4429 1.415 . S
C4429 H4399 0.950 . S
C4429 C4424 1.363 . S
C4429 C4428 1.415 . S
H4430 C4427 0.999 . S
H4431 C4412 0.913 . S
H4432 C4450 0.951 . S
H4433 C4452 0.951 . S
H4434 C4454 0.950 . S
H4435 C4455 0.950 . S
H4436 C4457 0.950 . S
H4437 C4460 0.950 . S
H4438 C4461 0.950 . S
H4439 C4463 0.950 . S
H4440 C4464 0.950 . S
H4441 C4465 0.951 . S
H4442 C4467 0.951 . S
H4443 C4469 0.950 . S
H4444 C4470 0.950 . S
H4445 C4472 0.950 . S
H4446 C4475 0.950 . S
H4447 C4476 0.950 . S
H4448 C4478 0.950 . S
H4449 C4479 0.950 . S
C4450 H4432 0.951 . S
C4450 C4451 1.366 . S
C4450 C4452 1.388 . S
C4451 C4450 1.366 . S
C4451 C4455 1.385 . S
C4452 H4433 0.951 . S
C4452 C4450 1.388 . S
C4452 C4453 1.366 . S
C4453 C4452 1.366 . S
C4453 C4454 1.414 . S
C4453 C4456 1.499 . S
C4454 H4434 0.950 . S
C4454 C4453 1.414 . S
C4454 C4455 1.374 . S
C4455 H4435 0.950 . S
C4455 C4451 1.385 . S
C4455 C4454 1.374 . S
C4456 C4453 1.499 . S
C4456 C4457 1.373 . S
C4456 C4458 1.389 . S
C4457 H4436 0.950 . S
C4457 C4456 1.373 . S
C4457 C4473 1.377 . S
C4458 C4456 1.389 . S
C4458 C4459 1.524 . S
C4458 C4472 1.377 . S
C4459 C4458 1.524 . S
C4459 C4460 1.397 . S
C4459 C4464 1.363 . S
C4460 H4437 0.950 . S
C4460 C4459 1.397 . S
C4460 C4461 1.334 . S
C4461 H4438 0.950 . S
C4461 C4460 1.334 . S
C4461 C4462 1.287 . S
C4462 C4461 1.287 . S
C4462 C4463 1.524 . S
C4462 H4481 0.913 . S
C4463 H4439 0.950 . S
C4463 C4462 1.524 . S
C4463 C4464 1.415 . S
C4464 H4440 0.950 . S
C4464 C4459 1.363 . S
C4464 C4463 1.415 . S
C4465 H4441 0.951 . S
C4465 C4466 1.366 . S
C4465 C4467 1.388 . S
C4466 C4465 1.366 . S
C4466 C4470 1.385 . S
C4467 H4442 0.951 . S
C4467 C4465 1.388 . S
C4467 C4468 1.366 . S
C4468 C4467 1.366 . S
C4468 C4469 1.414 . S
C4468 C4471 1.499 . S
C4469 H4443 0.950 . S
C4469 C4468 1.414 . S
C4469 C4470 1.374 . S
C4470 H4444 0.950 . S
C4470 C4466 1.385 . S
C4470 C4469 1.374 . S
C4471 C4468 1.499 . S
C4471 C4472 1.373 . S
C4471 C4473 1.389 . S
C4472 H4445 0.950 . S
C4472 C4458 1.377 . S
C4472 C4471 1.373 . S
C4473 C4457 1.377 . S
C4473 C4471 1.389 . S
C4473 C4474 1.524 . S
C4474 C4473 1.524 . S
C4474 C4475 1.397 . S
C4474 C4479 1.363 . S
C4475 H4446 0.950 . S
C4475 C4474 1.397 . S
C4475 C4476 1.334 . S
C4476 H4447 0.950 . S
C4476 C4475 1.334 . S
C4476 C4477 1.287 . S
C4477 C4476 1.287 . S
C4477 C4478 1.524 . S
C4477 H4480 0.999 . S
C4478 H4448 0.950 . S
C4478 C4477 1.524 . S
C4478 C4479 1.415 . S
C4479 H4449 0.950 . S
C4479 C4474 1.363 . S
C4479 C4478 1.415 . S
H4480 C4477 0.999 . S
H4481 C4462 0.913 . S
H4482 C4500 0.951 . S
H4483 C4502 0.951 . S
H4484 C4504 0.950 . S
H4485 C4505 0.950 . S
H4486 C4507 0.950 . S
H4487 C4510 0.950 . S
H4488 C4511 0.950 . S
H4489 C4513 0.950 . S
H4490 C4514 0.950 . S
H4491 C4515 0.951 . S
H4492 C4517 0.951 . S
H4493 C4519 0.950 . S
H4494 C4520 0.950 . S
H4495 C4522 0.950 . S
H4496 C4525 0.950 . S
H4497 C4526 0.950 . S
H4498 C4528 0.950 . S
H4499 C4529 0.950 . S
C4500 H4482 0.951 . S
C4500 C4501 1.366 . S
C4500 C4502 1.388 . S
C4501 C4500 1.366 . S
C4501 C4505 1.385 . S
C4502 H4483 0.951 . S
C4502 C4500 1.388 . S
C4502 C4503 1.366 . S
C4503 C4502 1.366 . S
C4503 C4504 1.414 . S
C4503 C4506 1.499 . S
C4504 H4484 0.950 . S
C4504 C4503 1.414 . S
C4504 C4505 1.374 . S
C4505 H4485 0.950 . S
C4505 C4501 1.385 . S
C4505 C4504 1.374 . S
C4506 C4503 1.499 . S
C4506 C4507 1.373 . S
C4506 C4508 1.389 . S
C4507 H4486 0.950 . S
C4507 C4506 1.373 . S
C4507 C4523 1.377 . S
C4508 C4506 1.389 . S
C4508 C4509 1.524 . S
C4508 C4522 1.377 . S
C4509 C4508 1.524 . S
C4509 C4510 1.397 . S
C4509 C4514 1.363 . S
C4510 H4487 0.950 . S
C4510 C4509 1.397 . S
C4510 C4511 1.334 . S
C4511 H4488 0.950 . S
C4511 C4510 1.334 . S
C4511 C4512 1.287 . S
C4512 C4511 1.287 . S
C4512 C4513 1.524 . S
C4512 H4531 0.913 . S
C4513 H4489 0.950 . S
C4513 C4512 1.524 . S
C4513 C4514 1.415 . S
C4514 H4490 0.950 . S
C4514 C4509 1.363 . S
C4514 C4513 1.415 . S
C4515 H4491 0.951 . S
C4515 C4516 1.366 . S
C4515 C4517 1.388 . S
C4516 C4515 1.366 . S
C4516 C4520 1.385 . S
C4517 H4492 0.951 . S
C4517 C4515 1.388 . S
C4517 C4518 1.366 . S
C4518 C4517 1.366 . S
C4518 C4519 1.414 . S
C4518 C4521 1.499 . S
C4519 H4493 0.950 . S
C4519 C4518 1.414 . S
C4519 C4520 1.374 . S
C4520 H4494 0.950 . S
C4520 C4516 1.385 . S
C4520 C4519 1.374 . S
C4521 C4518 1.499 . S
C4521 C4522 1.373 . S
C4521 C4523 1.389 . S
C4522 H4495 0.950 . S
C4522 C4508 1.377 . S
C4522 C4521 1.373 . S
C4523 C4507 1.377 . S
C4523 C4521 1.389 . S
C4523 C4524 1.524 . S
C4524 C4523 1.524 . S
C4524 C4525 1.397 . S
C4524 C4529 1.363 . S
C4525 H4496 0.950 . S
C4525 C4524 1.397 . S
C4525 C4526 1.334 . S
C4526 H4497 0.950 . S
C4526 C4525 1.334 . S
C4526 C4527 1.287 . S
C4527 C4526 1.287 . S
C4527 C4528 1.524 . S
C4527 H4530 0.999 . S
C4528 H4498 0.950 . S
C4528 C4527 1.524 . S
C4528 C4529 1.415 . S
C4529 H4499 0.950 . S
C4529 C4524 1.363 . S
C4529 C4528 1.415 . S
H4530 C4527 0.999 . S
H4531 C4512 0.913 . S
H4532 C4550 0.951 . S
H4533 C4552 0.951 . S
H4534 C4554 0.950 . S
H4535 C4555 0.950 . S
H4536 C4557 0.950 . S
H4537 C4560 0.950 . S
H4538 C4561 0.950 . S
H4539 C4563 0.950 . S
H4540 C4564 0.950 . S
H4541 C4565 0.951 . S
H4542 C4567 0.951 . S
H4543 C4569 0.950 . S
H4544 C4570 0.950 . S
H4545 C4572 0.950 . S
H4546 C4575 0.950 . S
H4547 C4576 0.950 . S
H4548 C4578 0.950 . S
H4549 C4579 0.950 . S
C4550 H4532 0.951 . S
C4550 C4551 1.366 . S
C4550 C4552 1.388 . S
C4551 C4550 1.366 . S
C4551 C4555 1.385 . S
C4552 H4533 0.951 . S
C4552 C4550 1.388 . S
C4552 C4553 1.366 . S
C4553 C4552 1.366 . S
C4553 C4554 1.414 . S
C4553 C4556 1.499 . S
C4554 H4534 0.950 . S
C4554 C4553 1.414 . S
C4554 C4555 1.374 . S
C4555 H4535 0.950 . S
C4555 C4551 1.385 . S
C4555 C4554 1.374 . S
C4556 C4553 1.499 . S
C4556 C4557 1.373 . S
C4556 C4558 1.389 . S
C4557 H4536 0.950 . S
C4557 C4556 1.373 . S
C4557 C4573 1.377 . S
C4558 C4556 1.389 . S
C4558 C4559 1.524 . S
C4558 C4572 1.377 . S
C4559 C4558 1.524 . S
C4559 C4560 1.397 . S
C4559 C4564 1.363 . S
C4560 H4537 0.950 . S
C4560 C4559 1.397 . S
C4560 C4561 1.334 . S
C4561 H4538 0.950 . S
C4561 C4560 1.334 . S
C4561 C4562 1.287 . S
C4562 C4561 1.287 . S
C4562 C4563 1.524 . S
C4562 H4581 0.913 . S
C4563 H4539 0.950 . S
C4563 C4562 1.524 . S
C4563 C4564 1.415 . S
C4564 H4540 0.950 . S
C4564 C4559 1.363 . S
C4564 C4563 1.415 . S
C4565 H4541 0.951 . S
C4565 C4566 1.366 . S
C4565 C4567 1.388 . S
C4566 C4565 1.366 . S
C4566 C4570 1.385 . S
C4567 H4542 0.951 . S
C4567 C4565 1.388 . S
C4567 C4568 1.366 . S
C4568 C4567 1.366 . S
C4568 C4569 1.414 . S
C4568 C4571 1.499 . S
C4569 H4543 0.950 . S
C4569 C4568 1.414 . S
C4569 C4570 1.374 . S
C4570 H4544 0.950 . S
C4570 C4566 1.385 . S
C4570 C4569 1.374 . S
C4571 C4568 1.499 . S
C4571 C4572 1.373 . S
C4571 C4573 1.389 . S
C4572 H4545 0.950 . S
C4572 C4558 1.377 . S
C4572 C4571 1.373 . S
C4573 C4557 1.377 . S
C4573 C4571 1.389 . S
C4573 C4574 1.524 . S
C4574 C4573 1.524 . S
C4574 C4575 1.397 . S
C4574 C4579 1.363 . S
C4575 H4546 0.950 . S
C4575 C4574 1.397 . S
C4575 C4576 1.334 . S
C4576 H4547 0.950 . S
C4576 C4575 1.334 . S
C4576 C4577 1.287 . S
C4577 C4576 1.287 . S
C4577 C4578 1.524 . S
C4577 H4580 0.999 . S
C4578 H4548 0.950 . S
C4578 C4577 1.524 . S
C4578 C4579 1.415 . S
C4579 H4549 0.950 . S
C4579 C4574 1.363 . S
C4579 C4578 1.415 . S
H4580 C4577 0.999 . S
H4581 C4562 0.913 . S
H4582 C4600 0.951 . S
H4583 C4602 0.951 . S
H4584 C4604 0.950 . S
H4585 C4605 0.950 . S
H4586 C4607 0.950 . S
H4587 C4610 0.950 . S
H4588 C4611 0.950 . S
H4589 C4613 0.950 . S
H4590 C4614 0.950 . S
H4591 C4615 0.951 . S
H4592 C4617 0.951 . S
H4593 C4619 0.950 . S
H4594 C4620 0.950 . S
H4595 C4622 0.950 . S
H4596 C4625 0.950 . S
H4597 C4626 0.950 . S
H4598 C4628 0.950 . S
H4599 C4629 0.950 . S
C4600 H4582 0.951 . S
C4600 C4601 1.366 . S
C4600 C4602 1.388 . S
C4601 C4600 1.366 . S
C4601 C4605 1.385 . S
C4602 H4583 0.951 . S
C4602 C4600 1.388 . S
C4602 C4603 1.366 . S
C4603 C4602 1.366 . S
C4603 C4604 1.414 . S
C4603 C4606 1.499 . S
C4604 H4584 0.950 . S
C4604 C4603 1.414 . S
C4604 C4605 1.374 . S
C4605 H4585 0.950 . S
C4605 C4601 1.385 . S
C4605 C4604 1.374 . S
C4606 C4603 1.499 . S
C4606 C4607 1.373 . S
C4606 C4608 1.389 . S
C4607 H4586 0.950 . S
C4607 C4606 1.373 . S
C4607 C4623 1.377 . S
C4608 C4606 1.389 . S
C4608 C4609 1.524 . S
C4608 C4622 1.377 . S
C4609 C4608 1.524 . S
C4609 C4610 1.397 . S
C4609 C4614 1.363 . S
C4610 H4587 0.950 . S
C4610 C4609 1.397 . S
C4610 C4611 1.334 . S
C4611 H4588 0.950 . S
C4611 C4610 1.334 . S
C4611 C4612 1.287 . S
C4612 C4611 1.287 . S
C4612 C4613 1.524 . S
C4612 H4631 0.913 . S
C4613 H4589 0.950 . S
C4613 C4612 1.524 . S
C4613 C4614 1.415 . S
C4614 H4590 0.950 . S
C4614 C4609 1.363 . S
C4614 C4613 1.415 . S
C4615 H4591 0.951 . S
C4615 C4616 1.366 . S
C4615 C4617 1.388 . S
C4616 C4615 1.366 . S
C4616 C4620 1.385 . S
C4617 H4592 0.951 . S
C4617 C4615 1.388 . S
C4617 C4618 1.366 . S
C4618 C4617 1.366 . S
C4618 C4619 1.414 . S
C4618 C4621 1.499 . S
C4619 H4593 0.950 . S
C4619 C4618 1.414 . S
C4619 C4620 1.374 . S
C4620 H4594 0.950 . S
C4620 C4616 1.385 . S
C4620 C4619 1.374 . S
C4621 C4618 1.499 . S
C4621 C4622 1.373 . S
C4621 C4623 1.389 . S
C4622 H4595 0.950 . S
C4622 C4608 1.377 . S
C4622 C4621 1.373 . S
C4623 C4607 1.377 . S
C4623 C4621 1.389 . S
C4623 C4624 1.524 . S
C4624 C4623 1.524 . S
C4624 C4625 1.397 . S
C4624 C4629 1.363 . S
C4625 H4596 0.950 . S
C4625 C4624 1.397 . S
C4625 C4626 1.334 . S
C4626 H4597 0.950 . S
C4626 C4625 1.334 . S
C4626 C4627 1.287 . S
C4627 C4626 1.287 . S
C4627 C4628 1.524 . S
C4627 H4630 0.999 . S
C4628 H4598 0.950 . S
C4628 C4627 1.524 . S
C4628 C4629 1.415 . S
C4629 H4599 0.950 . S
C4629 C4624 1.363 . S
C4629 C4628 1.415 . S
H4630 C4627 0.999 . S
H4631 C4612 0.913 . S
H4632 C4650 0.951 . S
H4633 C4652 0.951 . S
H4634 C4654 0.950 . S
H4635 C4655 0.950 . S
H4636 C4657 0.950 . S
H4637 C4660 0.950 . S
H4638 C4661 0.950 . S
H4639 C4663 0.950 . S
H4640 C4664 0.950 . S
H4641 C4665 0.951 . S
H4642 C4667 0.951 . S
H4643 C4669 0.950 . S
H4644 C4670 0.950 . S
H4645 C4672 0.950 . S
H4646 C4675 0.950 . S
H4647 C4676 0.950 . S
H4648 C4678 0.950 . S
H4649 C4679 0.950 . S
C4650 H4632 0.951 . S
C4650 C4651 1.366 . S
C4650 C4652 1.388 . S
C4651 C4650 1.366 . S
C4651 C4655 1.385 . S
C4652 H4633 0.951 . S
C4652 C4650 1.388 . S
C4652 C4653 1.366 . S
C4653 C4652 1.366 . S
C4653 C4654 1.414 . S
C4653 C4656 1.499 . S
C4654 H4634 0.950 . S
C4654 C4653 1.414 . S
C4654 C4655 1.374 . S
C4655 H4635 0.950 . S
C4655 C4651 1.385 . S
C4655 C4654 1.374 . S
C4656 C4653 1.499 . S
C4656 C4657 1.373 . S
C4656 C4658 1.389 . S
C4657 H4636 0.950 . S
C4657 C4656 1.373 . S
C4657 C4673 1.377 . S
C4658 C4656 1.389 . S
C4658 C4659 1.524 . S
C4658 C4672 1.377 . S
C4659 C4658 1.524 . S
C4659 C4660 1.397 . S
C4659 C4664 1.363 . S
C4660 H4637 0.950 . S
C4660 C4659 1.397 . S
C4660 C4661 1.334 . S
C4661 H4638 0.950 . S
C4661 C4660 1.334 . S
C4661 C4662 1.287 . S
C4662 C4661 1.287 . S
C4662 C4663 1.524 . S
C4662 H4681 0.913 . S
C4663 H4639 0.950 . S
C4663 C4662 1.524 . S
C4663 C4664 1.415 . S
C4664 H4640 0.950 . S
C4664 C4659 1.363 . S
C4664 C4663 1.415 . S
C4665 H4641 0.951 . S
C4665 C4666 1.366 . S
C4665 C4667 1.388 . S
C4666 C4665 1.366 . S
C4666 C4670 1.385 . S
C4667 H4642 0.951 . S
C4667 C4665 1.388 . S
C4667 C4668 1.366 . S
C4668 C4667 1.366 . S
C4668 C4669 1.414 . S
C4668 C4671 1.499 . S
C4669 H4643 0.950 . S
C4669 C4668 1.414 . S
C4669 C4670 1.374 . S
C4670 H4644 0.950 . S
C4670 C4666 1.385 . S
C4670 C4669 1.374 . S
C4671 C4668 1.499 . S
C4671 C4672 1.373 . S
C4671 C4673 1.389 . S
C4672 H4645 0.950 . S
C4672 C4658 1.377 . S
C4672 C4671 1.373 . S
C4673 C4657 1.377 . S
C4673 C4671 1.389 . S
C4673 C4674 1.524 . S
C4674 C4673 1.524 . S
C4674 C4675 1.397 . S
C4674 C4679 1.363 . S
C4675 H4646 0.950 . S
C4675 C4674 1.397 . S
C4675 C4676 1.334 . S
C4676 H4647 0.950 . S
C4676 C4675 1.334 . S
C4676 C4677 1.287 . S
C4677 C4676 1.287 . S
C4677 C4678 1.524 . S
C4677 H4680 0.999 . S
C4678 H4648 0.950 . S
C4678 C4677 1.524 . S
C4678 C4679 1.415 . S
C4679 H4649 0.950 . S
C4679 C4674 1.363 . S
C4679 C4678 1.415 . S
H4680 C4677 0.999 . S
H4681 C4662 0.913 . S
H4682 C4700 0.951 . S
H4683 C4702 0.951 . S
H4684 C4704 0.950 . S
H4685 C4705 0.950 . S
H4686 C4707 0.950 . S
H4687 C4710 0.950 . S
H4688 C4711 0.950 . S
H4689 C4713 0.950 . S
H4690 C4714 0.950 . S
H4691 C4715 0.951 . S
H4692 C4717 0.951 . S
H4693 C4719 0.950 . S
H4694 C4720 0.950 . S
H4695 C4722 0.950 . S
H4696 C4725 0.950 . S
H4697 C4726 0.950 . S
H4698 C4728 0.950 . S
H4699 C4729 0.950 . S
C4700 H4682 0.951 . S
C4700 C4701 1.366 . S
C4700 C4702 1.388 . S
C4701 C4700 1.366 . S
C4701 C4705 1.385 . S
C4702 H4683 0.951 . S
C4702 C4700 1.388 . S
C4702 C4703 1.366 . S
C4703 C4702 1.366 . S
C4703 C4704 1.414 . S
C4703 C4706 1.499 . S
C4704 H4684 0.950 . S
C4704 C4703 1.414 . S
C4704 C4705 1.374 . S
C4705 H4685 0.950 . S
C4705 C4701 1.385 . S
C4705 C4704 1.374 . S
C4706 C4703 1.499 . S
C4706 C4707 1.373 . S
C4706 C4708 1.389 . S
C4707 H4686 0.950 . S
C4707 C4706 1.373 . S
C4707 C4723 1.377 . S
C4708 C4706 1.389 . S
C4708 C4709 1.524 . S
C4708 C4722 1.377 . S
C4709 C4708 1.524 . S
C4709 C4710 1.397 . S
C4709 C4714 1.363 . S
C4710 H4687 0.950 . S
C4710 C4709 1.397 . S
C4710 C4711 1.334 . S
C4711 H4688 0.950 . S
C4711 C4710 1.334 . S
C4711 C4712 1.287 . S
C4712 C4711 1.287 . S
C4712 C4713 1.524 . S
C4712 H4731 0.913 . S
C4713 H4689 0.950 . S
C4713 C4712 1.524 . S
C4713 C4714 1.415 . S
C4714 H4690 0.950 . S
C4714 C4709 1.363 . S
C4714 C4713 1.415 . S
C4715 H4691 0.951 . S
C4715 C4716 1.366 . S
C4715 C4717 1.388 . S
C4716 C4715 1.366 . S
C4716 C4720 1.385 . S
C4717 H4692 0.951 . S
C4717 C4715 1.388 . S
C4717 C4718 1.366 . S
C4718 C4717 1.366 . S
C4718 C4719 1.414 . S
C4718 C4721 1.499 . S
C4719 H4693 0.950 . S
C4719 C4718 1.414 . S
C4719 C4720 1.374 . S
C4720 H4694 0.950 . S
C4720 C4716 1.385 . S
C4720 C4719 1.374 . S
C4721 C4718 1.499 . S
C4721 C4722 1.373 . S
C4721 C4723 1.389 . S
C4722 H4695 0.950 . S
C4722 C4708 1.377 . S
C4722 C4721 1.373 . S
C4723 C4707 1.377 . S
C4723 C4721 1.389 . S
C4723 C4724 1.524 . S
C4724 C4723 1.524 . S
C4724 C4725 1.397 . S
C4724 C4729 1.363 . S
C4725 H4696 0.950 . S
C4725 C4724 1.397 . S
C4725 C4726 1.334 . S
C4726 H4697 0.950 . S
C4726 C4725 1.334 . S
C4726 C4727 1.287 . S
C4727 C4726 1.287 . S
C4727 C4728 1.524 . S
C4727 H4730 0.999 . S
C4728 H4698 0.950 . S
C4728 C4727 1.524 . S
C4728 C4729 1.415 . S
C4729 H4699 0.950 . S
C4729 C4724 1.363 . S
C4729 C4728 1.415 . S
H4730 C4727 0.999 . S
H4731 C4712 0.913 . S
H4732 C4750 0.951 . S
H4733 C4752 0.951 . S
H4734 C4754 0.950 . S
H4735 C4755 0.950 . S
H4736 C4757 0.950 . S
H4737 C4760 0.950 . S
H4738 C4761 0.950 . S
H4739 C4763 0.950 . S
H4740 C4764 0.950 . S
H4741 C4765 0.951 . S
H4742 C4767 0.951 . S
H4743 C4769 0.950 . S
H4744 C4770 0.950 . S
H4745 C4772 0.950 . S
H4746 C4775 0.950 . S
H4747 C4776 0.950 . S
H4748 C4778 0.950 . S
H4749 C4779 0.950 . S
C4750 H4732 0.951 . S
C4750 C4751 1.366 . S
C4750 C4752 1.388 . S
C4751 C4750 1.366 . S
C4751 C4755 1.385 . S
C4752 H4733 0.951 . S
C4752 C4750 1.388 . S
C4752 C4753 1.366 . S
C4753 C4752 1.366 . S
C4753 C4754 1.414 . S
C4753 C4756 1.499 . S
C4754 H4734 0.950 . S
C4754 C4753 1.414 . S
C4754 C4755 1.374 . S
C4755 H4735 0.950 . S
C4755 C4751 1.385 . S
C4755 C4754 1.374 . S
C4756 C4753 1.499 . S
C4756 C4757 1.373 . S
C4756 C4758 1.389 . S
C4757 H4736 0.950 . S
C4757 C4756 1.373 . S
C4757 C4773 1.377 . S
C4758 C4756 1.389 . S
C4758 C4759 1.524 . S
C4758 C4772 1.377 . S
C4759 C4758 1.524 . S
C4759 C4760 1.397 . S
C4759 C4764 1.363 . S
C4760 H4737 0.950 . S
C4760 C4759 1.397 . S
C4760 C4761 1.334 . S
C4761 H4738 0.950 . S
C4761 C4760 1.334 . S
C4761 C4762 1.287 . S
C4762 C4761 1.287 . S
C4762 C4763 1.524 . S
C4762 H4781 0.913 . S
C4763 H4739 0.950 . S
C4763 C4762 1.524 . S
C4763 C4764 1.415 . S
C4764 H4740 0.950 . S
C4764 C4759 1.363 . S
C4764 C4763 1.415 . S
C4765 H4741 0.951 . S
C4765 C4766 1.366 . S
C4765 C4767 1.388 . S
C4766 C4765 1.366 . S
C4766 C4770 1.385 . S
C4767 H4742 0.951 . S
C4767 C4765 1.388 . S
C4767 C4768 1.366 . S
C4768 C4767 1.366 . S
C4768 C4769 1.414 . S
C4768 C4771 1.499 . S
C4769 H4743 0.950 . S
C4769 C4768 1.414 . S
C4769 C4770 1.374 . S
C4770 H4744 0.950 . S
C4770 C4766 1.385 . S
C4770 C4769 1.374 . S
C4771 C4768 1.499 . S
C4771 C4772 1.373 . S
C4771 C4773 1.389 . S
C4772 H4745 0.950 . S
C4772 C4758 1.377 . S
C4772 C4771 1.373 . S
C4773 C4757 1.377 . S
C4773 C4771 1.389 . S
C4773 C4774 1.524 . S
C4774 C4773 1.524 . S
C4774 C4775 1.397 . S
C4774 C4779 1.363 . S
C4775 H4746 0.950 . S
C4775 C4774 1.397 . S
C4775 C4776 1.334 . S
C4776 H4747 0.950 . S
C4776 C4775 1.334 . S
C4776 C4777 1.287 . S
C4777 C4776 1.287 . S
C4777 C4778 1.524 . S
C4777 H4780 0.999 . S
C4778 H4748 0.950 . S
C4778 C4777 1.524 . S
C4778 C4779 1.415 . S
C4779 H4749 0.950 . S
C4779 C4774 1.363 . S
C4779 C4778 1.415 . S
H4780 C4777 0.999 . S
H4781 C4762 0.913 . S
H4782 C4800 0.951 . S
H4783 C4802 0.951 . S
H4784 C4804 0.950 . S
H4785 C4805 0.950 . S
H4786 C4807 0.950 . S
H4787 C4810 0.950 . S
H4788 C4811 0.950 . S
H4789 C4813 0.950 . S
H4790 C4814 0.950 . S
H4791 C4815 0.951 . S
H4792 C4817 0.951 . S
H4793 C4819 0.950 . S
H4794 C4820 0.950 . S
H4795 C4822 0.950 . S
H4796 C4825 0.950 . S
H4797 C4826 0.950 . S
H4798 C4828 0.950 . S
H4799 C4829 0.950 . S
C4800 H4782 0.951 . S
C4800 C4801 1.366 . S
C4800 C4802 1.388 . S
C4801 C4800 1.366 . S
C4801 C4805 1.385 . S
C4802 H4783 0.951 . S
C4802 C4800 1.388 . S
C4802 C4803 1.366 . S
C4803 C4802 1.366 . S
C4803 C4804 1.414 . S
C4803 C4806 1.499 . S
C4804 H4784 0.950 . S
C4804 C4803 1.414 . S
C4804 C4805 1.374 . S
C4805 H4785 0.950 . S
C4805 C4801 1.385 . S
C4805 C4804 1.374 . S
C4806 C4803 1.499 . S
C4806 C4807 1.373 . S
C4806 C4808 1.389 . S
C4807 H4786 0.950 . S
C4807 C4806 1.373 . S
C4807 C4823 1.377 . S
C4808 C4806 1.389 . S
C4808 C4809 1.524 . S
C4808 C4822 1.377 . S
C4809 C4808 1.524 . S
C4809 C4810 1.397 . S
C4809 C4814 1.363 . S
C4810 H4787 0.950 . S
C4810 C4809 1.397 . S
C4810 C4811 1.334 . S
C4811 H4788 0.950 . S
C4811 C4810 1.334 . S
C4811 C4812 1.287 . S
C4812 C4811 1.287 . S
C4812 C4813 1.524 . S
C4812 H4831 0.913 . S
C4813 H4789 0.950 . S
C4813 C4812 1.524 . S
C4813 C4814 1.415 . S
C4814 H4790 0.950 . S
C4814 C4809 1.363 . S
C4814 C4813 1.415 . S
C4815 H4791 0.951 . S
C4815 C4816 1.366 . S
C4815 C4817 1.388 . S
C4816 C4815 1.366 . S
C4816 C4820 1.385 . S
C4817 H4792 0.951 . S
C4817 C4815 1.388 . S
C4817 C4818 1.366 . S
C4818 C4817 1.366 . S
C4818 C4819 1.414 . S
C4818 C4821 1.499 . S
C4819 H4793 0.950 . S
C4819 C4818 1.414 . S
C4819 C4820 1.374 . S
C4820 H4794 0.950 . S
C4820 C4816 1.385 . S
C4820 C4819 1.374 . S
C4821 C4818 1.499 . S
C4821 C4822 1.373 . S
C4821 C4823 1.389 . S
C4822 H4795 0.950 . S
C4822 C4808 1.377 . S
C4822 C4821 1.373 . S
C4823 C4807 1.377 . S
C4823 C4821 1.389 . S
C4823 C4824 1.524 . S
C4824 C4823 1.524 . S
C4824 C4825 1.397 . S
C4824 C4829 1.363 . S
C4825 H4796 0.950 . S
C4825 C4824 1.397 . S
C4825 C4826 1.334 . S
C4826 H4797 0.950 . S
C4826 C4825 1.334 . S
C4826 C4827 1.287 . S
C4827 C4826 1.287 . S
C4827 C4828 1.524 . S
C4827 H4830 0.999 . S
C4828 H4798 0.950 . S
C4828 C4827 1.524 . S
C4828 C4829 1.415 . S
C4829 H4799 0.950 . S
C4829 C4824 1.363 . S
C4829 C4828 1.415 . S
H4830 C4827 0.999 . S
H4831 C4812 0.913 . S
H4832 C4850 0.951 . S
H4833 C4852 0.951 . S
H4834 C4854 0.950 . S
H4835 C4855 0.950 . S
H4836 C4857 0.950 . S
H4837 C4860 0.950 . S
H4838 C4861 0.950 . S
H4839 C4863 0.950 . S
H4840 C4864 0.950 . S
H4841 C4865 0.951 . S
H4842 C4867 0.951 . S
H4843 C4869 0.950 . S
H4844 C4870 0.950 . S
H4845 C4872 0.950 . S
H4846 C4875 0.950 . S
H4847 C4876 0.950 . S
H4848 C4878 0.950 . S
H4849 C4879 0.950 . S
C4850 H4832 0.951 . S
C4850 C4851 1.366 . S
C4850 C4852 1.388 . S
C4851 C4850 1.366 . S
C4851 C4855 1.385 . S
C4852 H4833 0.951 . S
C4852 C4850 1.388 . S
C4852 C4853 1.366 . S
C4853 C4852 1.366 . S
C4853 C4854 1.414 . S
C4853 C4856 1.499 . S
C4854 H4834 0.950 . S
C4854 C4853 1.414 . S
C4854 C4855 1.374 . S
C4855 H4835 0.950 . S
C4855 C4851 1.385 . S
C4855 C4854 1.374 . S
C4856 C4853 1.499 . S
C4856 C4857 1.373 . S
C4856 C4858 1.389 . S
C4857 H4836 0.950 . S
C4857 C4856 1.373 . S
C4857 C4873 1.377 . S
C4858 C4856 1.389 . S
C4858 C4859 1.524 . S
C4858 C4872 1.377 . S
C4859 C4858 1.524 . S
C4859 C4860 1.397 . S
C4859 C4864 1.363 . S
C4860 H4837 0.950 . S
C4860 C4859 1.397 . S
C4860 C4861 1.334 . S
C4861 H4838 0.950 . S
C4861 C4860 1.334 . S
C4861 C4862 1.287 . S
C4862 C4861 1.287 . S
C4862 C4863 1.524 . S
C4862 H4881 0.913 . S
C4863 H4839 0.950 . S
C4863 C4862 1.524 . S
C4863 C4864 1.415 . S
C4864 H4840 0.950 . S
C4864 C4859 1.363 . S
C4864 C4863 1.415 . S
C4865 H4841 0.951 . S
C4865 C4866 1.366 . S
C4865 C4867 1.388 . S
C4866 C4865 1.366 . S
C4866 C4870 1.385 . S
C4867 H4842 0.951 . S
C4867 C4865 1.388 . S
C4867 C4868 1.366 . S
C4868 C4867 1.366 . S
C4868 C4869 1.414 . S
C4868 C4871 1.499 . S
C4869 H4843 0.950 . S
C4869 C4868 1.414 . S
C4869 C4870 1.374 . S
C4870 H4844 0.950 . S
C4870 C4866 1.385 . S
C4870 C4869 1.374 . S
C4871 C4868 1.499 . S
C4871 C4872 1.373 . S
C4871 C4873 1.389 . S
C4872 H4845 0.950 . S
C4872 C4858 1.377 . S
C4872 C4871 1.373 . S
C4873 C4857 1.377 . S
C4873 C4871 1.389 . S
C4873 C4874 1.524 . S
C4874 C4873 1.524 . S
C4874 C4875 1.397 . S
C4874 C4879 1.363 . S
C4875 H4846 0.950 . S
C4875 C4874 1.397 . S
C4875 C4876 1.334 . S
C4876 H4847 0.950 . S
C4876 C4875 1.334 . S
C4876 C4877 1.287 . S
C4877 C4876 1.287 . S
C4877 C4878 1.524 . S
C4877 H4880 0.999 . S
C4878 H4848 0.950 . S
C4878 C4877 1.524 . S
C4878 C4879 1.415 . S
C4879 H4849 0.950 . S
C4879 C4874 1.363 . S
C4879 C4878 1.415 . S
H4880 C4877 0.999 . S
H4881 C4862 0.913 . S
H4882 C4900 0.951 . S
H4883 C4902 0.951 . S
H4884 C4904 0.950 . S
H4885 C4905 0.950 . S
H4886 C4907 0.950 . S
H4887 C4910 0.950 . S
H4888 C4911 0.950 . S
H4889 C4913 0.950 . S
H4890 C4914 0.950 . S
H4891 C4915 0.951 . S
H4892 C4917 0.951 . S
H4893 C4919 0.950 . S
H4894 C4920 0.950 . S
H4895 C4922 0.950 . S
H4896 C4925 0.950 . S
H4897 C4926 0.950 . S
H4898 C4928 0.950 . S
H4899 C4929 0.950 . S
C4900 H4882 0.951 . S
C4900 C4901 1.366 . S
C4900 C4902 1.388 . S
C4901 C4900 1.366 . S
C4901 C4905 1.385 . S
C4902 H4883 0.951 . S
C4902 C4900 1.388 . S
C4902 C4903 1.366 . S
C4903 C4902 1.366 . S
C4903 C4904 1.414 . S
C4903 C4906 1.499 . S
C4904 H4884 0.950 . S
C4904 C4903 1.414 . S
C4904 C4905 1.374 . S
C4905 H4885 0.950 . S
C4905 C4901 1.385 . S
C4905 C4904 1.374 . S
C4906 C4903 1.499 . S
C4906 C4907 1.373 . S
C4906 C4908 1.389 . S
C4907 H4886 0.950 . S
C4907 C4906 1.373 . S
C4907 C4923 1.377 . S
C4908 C4906 1.389 . S
C4908 C4909 1.524 . S
C4908 C4922 1.377 . S
C4909 C4908 1.524 . S
C4909 C4910 1.397 . S
C4909 C4914 1.363 . S
C4910 H4887 0.950 . S
C4910 C4909 1.397 . S
C4910 C4911 1.334 . S
C4911 H4888 0.950 . S
C4911 C4910 1.334 . S
C4911 C4912 1.287 . S
C4912 C4911 1.287 . S
C4912 C4913 1.524 . S
C4912 H4931 0.913 . S
C4913 H4889 0.950 . S
C4913 C4912 1.524 . S
C4913 C4914 1.415 . S
C4914 H4890 0.950 . S
C4914 C4909 1.363 . S
C4914 C4913 1.415 . S
C4915 H4891 0.951 . S
C4915 C4916 1.366 . S
C4915 C4917 1.388 . S
C4916 C4915 1.366 . S
C4916 C4920 1.385 . S
C4917 H4892 0.951 . S
C4917 C4915 1.388 . S
C4917 C4918 1.366 . S
C4918 C4917 1.366 . S
C4918 C4919 1.414 . S
C4918 C4921 1.499 . S
C4919 H4893 0.950 . S
C4919 C4918 1.414 . S
C4919 C4920 1.374 . S
C4920 H4894 0.950 . S
C4920 C4916 1.385 . S
C4920 C4919 1.374 . S
C4921 C4918 1.499 . S
C4921 C4922 1.373 . S
C4921 C4923 1.389 . S
C4922 H4895 0.950 . S
C4922 C4908 1.377 . S
C4922 C4921 1.373 . S
C4923 C4907 1.377 . S
C4923 C4921 1.389 . S
C4923 C4924 1.524 . S
C4924 C4923 1.524 . S
C4924 C4925 1.397 . S
C4924 C4929 1.363 . S
C4925 H4896 0.950 . S
C4925 C4924 1.397 . S
C4925 C4926 1.334 . S
C4926 H4897 0.950 . S
C4926 C4925 1.334 . S
C4926 C4927 1.287 . S
C4927 C4926 1.287 . S
C4927 C4928 1.524 . S
C4927 H4930 0.999 . S
C4928 H4898 0.950 . S
C4928 C4927 1.524 . S
C4928 C4929 1.415 . S
C4929 H4899 0.950 . S
C4929 C4924 1.363 . S
C4929 C4928 1.415 . S
H4930 C4927 0.999 . S
H4931 C4912 0.913 . S
H4932 C4950 0.951 . S
H4933 C4952 0.951 . S
H4934 C4954 0.950 . S
H4935 C4955 0.950 . S
H4936 C4957 0.950 . S
H4937 C4960 0.950 . S
H4938 C4961 0.950 . S
H4939 C4963 0.950 . S
H4940 C4964 0.950 . S
H4941 C4965 0.951 . S
H4942 C4967 0.951 . S
H4943 C4969 0.950 . S
H4944 C4970 0.950 . S
H4945 C4972 0.950 . S
H4946 C4975 0.950 . S
H4947 C4976 0.950 . S
H4948 C4978 0.950 . S
H4949 C4979 0.950 . S
C4950 H4932 0.951 . S
C4950 C4951 1.366 . S
C4950 C4952 1.388 . S
C4951 C4950 1.366 . S
C4951 C4955 1.385 . S
C4952 H4933 0.951 . S
C4952 C4950 1.388 . S
C4952 C4953 1.366 . S
C4953 C4952 1.366 . S
C4953 C4954 1.414 . S
C4953 C4956 1.499 . S
C4954 H4934 0.950 . S
C4954 C4953 1.414 . S
C4954 C4955 1.374 . S
C4955 H4935 0.950 . S
C4955 C4951 1.385 . S
C4955 C4954 1.374 . S
C4956 C4953 1.499 . S
C4956 C4957 1.373 . S
C4956 C4958 1.389 . S
C4957 H4936 0.950 . S
C4957 C4956 1.373 . S
C4957 C4973 1.377 . S
C4958 C4956 1.389 . S
C4958 C4959 1.524 . S
C4958 C4972 1.377 . S
C4959 C4958 1.524 . S
C4959 C4960 1.397 . S
C4959 C4964 1.363 . S
C4960 H4937 0.950 . S
C4960 C4959 1.397 . S
C4960 C4961 1.334 . S
C4961 H4938 0.950 . S
C4961 C4960 1.334 . S
C4961 C4962 1.287 . S
C4962 C4961 1.287 . S
C4962 C4963 1.524 . S
C4962 H4981 0.913 . S
C4963 H4939 0.950 . S
C4963 C4962 1.524 . S
C4963 C4964 1.415 . S
C4964 H4940 0.950 . S
C4964 C4959 1.363 . S
C4964 C4963 1.415 . S
C4965 H4941 0.951 . S
C4965 C4966 1.366 . S
C4965 C4967 1.388 . S
C4966 C4965 1.366 . S
C4966 C4970 1.385 . S
C4967 H4942 0.951 . S
C4967 C4965 1.388 . S
C4967 C4968 1.366 . S
C4968 C4967 1.366 . S
C4968 C4969 1.414 . S
C4968 C4971 1.499 . S
C4969 H4943 0.950 . S
C4969 C4968 1.414 . S
C4969 C4970 1.374 . S
C4970 H4944 0.950 . S
C4970 C4966 1.385 . S
C4970 C4969 1.374 . S
C4971 C4968 1.499 . S
C4971 C4972 1.373 . S
C4971 C4973 1.389 . S
C4972 H4945 0.950 . S
C4972 C4958 1.377 . S
C4972 C4971 1.373 . S
C4973 C4957 1.377 . S
C4973 C4971 1.389 . S
C4973 C4974 1.524 . S
C4974 C4973 1.524 . S
C4974 C4975 1.397 . S
C4974 C4979 1.363 . S
C4975 H4946 0.950 . S
C4975 C4974 1.397 . S
C4975 C4976 1.334 . S
C4976 H4947 0.950 . S
C4976 C4975 1.334 . S
C4976 C4977 1.287 . S
C4977 C4976 1.287 . S
C4977 C4978 1.524 . S
C4977 H4980 0.999 . S
C4978 H4948 0.950 . S
C4978 C4977 1.524 . S
C4978 C4979 1.415 . S
C4979 H4949 0.950 . S
C4979 C4974 1.363 . S
C4979 C4978 1.415 . S
H4980 C4977 0.999 . S
H4981 C4962 0.913 . S
H4982 C5000 0.951 . S
H4983 C5002 0.951 . S
H4984 C5004 0.950 . S
H4985 C5005 0.950 . S
H4986 C5007 0.950 . S
H4987 C5010 0.950 . S
H4988 C5011 0.950 . S
H4989 C5013 0.950 . S
H4990 C5014 0.950 . S
H4991 C5015 0.951 . S
H4992 C5017 0.951 . S
H4993 C5019 0.950 . S
H4994 C5020 0.950 . S
H4995 C5022 0.950 . S
H4996 C5025 0.950 . S
H4997 C5026 0.950 . S
H4998 C5028 0.950 . S
H4999 C5029 0.950 . S
C5000 H4982 0.951 . S
C5000 C5001 1.366 . S
C5000 C5002 1.388 . S
C5001 C5000 1.366 . S
C5001 C5005 1.385 . S
C5002 H4983 0.951 . S
C5002 C5000 1.388 . S
C5002 C5003 1.366 . S
C5003 C5002 1.366 . S
C5003 C5004 1.414 . S
C5003 C5006 1.499 . S
C5004 H4984 0.950 . S
C5004 C5003 1.414 . S
C5004 C5005 1.374 . S
C5005 H4985 0.950 . S
C5005 C5001 1.385 . S
C5005 C5004 1.374 . S
C5006 C5003 1.499 . S
C5006 C5007 1.373 . S
C5006 C5008 1.389 . S
C5007 H4986 0.950 . S
C5007 C5006 1.373 . S
C5007 C5023 1.377 . S
C5008 C5006 1.389 . S
C5008 C5009 1.524 . S
C5008 C5022 1.377 . S
C5009 C5008 1.524 . S
C5009 C5010 1.397 . S
C5009 C5014 1.363 . S
C5010 H4987 0.950 . S
C5010 C5009 1.397 . S
C5010 C5011 1.334 . S
C5011 H4988 0.950 . S
C5011 C5010 1.334 . S
C5011 C5012 1.287 . S
C5012 C5011 1.287 . S
C5012 C5013 1.524 . S
C5012 H5031 0.913 . S
C5013 H4989 0.950 . S
C5013 C5012 1.524 . S
C5013 C5014 1.415 . S
C5014 H4990 0.950 . S
C5014 C5009 1.363 . S
C5014 C5013 1.415 . S
C5015 H4991 0.951 . S
C5015 C5016 1.366 . S
C5015 C5017 1.388 . S
C5016 C5015 1.366 . S
C5016 C5020 1.385 . S
C5017 H4992 0.951 . S
C5017 C5015 1.388 . S
C5017 C5018 1.366 . S
C5018 C5017 1.366 . S
C5018 C5019 1.414 . S
C5018 C5021 1.499 . S
C5019 H4993 0.950 . S
C5019 C5018 1.414 . S
C5019 C5020 1.374 . S
C5020 H4994 0.950 . S
C5020 C5016 1.385 . S
C5020 C5019 1.374 . S
C5021 C5018 1.499 . S
C5021 C5022 1.373 . S
C5021 C5023 1.389 . S
C5022 H4995 0.950 . S
C5022 C5008 1.377 . S
C5022 C5021 1.373 . S
C5023 C5007 1.377 . S
C5023 C5021 1.389 . S
C5023 C5024 1.524 . S
C5024 C5023 1.524 . S
C5024 C5025 1.397 . S
C5024 C5029 1.363 . S
C5025 H4996 0.950 . S
C5025 C5024 1.397 . S
C5025 C5026 1.334 . S
C5026 H4997 0.950 . S
C5026 C5025 1.334 . S
C5026 C5027 1.287 . S
C5027 C5026 1.287 . S
C5027 C5028 1.524 . S
C5027 H5030 0.999 . S
C5028 H4998 0.950 . S
C5028 C5027 1.524 . S
C5028 C5029 1.415 . S
C5029 H4999 0.950 . S
C5029 C5024 1.363 . S
C5029 C5028 1.415 . S
H5030 C5027 0.999 . S
H5031 C5012 0.913 . S
H5032 C5050 0.951 . S
H5033 C5052 0.951 . S
H5034 C5054 0.950 . S
H5035 C5055 0.950 . S
H5036 C5057 0.950 . S
H5037 C5060 0.950 . S
H5038 C5061 0.950 . S
H5039 C5063 0.950 . S
H5040 C5064 0.950 . S
H5041 C5065 0.951 . S
H5042 C5067 0.951 . S
H5043 C5069 0.950 . S
H5044 C5070 0.950 . S
H5045 C5072 0.950 . S
H5046 C5075 0.950 . S
H5047 C5076 0.950 . S
H5048 C5078 0.950 . S
H5049 C5079 0.950 . S
C5050 H5032 0.951 . S
C5050 C5051 1.366 . S
C5050 C5052 1.388 . S
C5051 C5050 1.366 . S
C5051 C5055 1.385 . S
C5052 H5033 0.951 . S
C5052 C5050 1.388 . S
C5052 C5053 1.366 . S
C5053 C5052 1.366 . S
C5053 C5054 1.414 . S
C5053 C5056 1.499 . S
C5054 H5034 0.950 . S
C5054 C5053 1.414 . S
C5054 C5055 1.374 . S
C5055 H5035 0.950 . S
C5055 C5051 1.385 . S
C5055 C5054 1.374 . S
C5056 C5053 1.499 . S
C5056 C5057 1.373 . S
C5056 C5058 1.389 . S
C5057 H5036 0.950 . S
C5057 C5056 1.373 . S
C5057 C5073 1.377 . S
C5058 C5056 1.389 . S
C5058 C5059 1.524 . S
C5058 C5072 1.377 . S
C5059 C5058 1.524 . S
C5059 C5060 1.397 . S
C5059 C5064 1.363 . S
C5060 H5037 0.950 . S
C5060 C5059 1.397 . S
C5060 C5061 1.334 . S
C5061 H5038 0.950 . S
C5061 C5060 1.334 . S
C5061 C5062 1.287 . S
C5062 C5061 1.287 . S
C5062 C5063 1.524 . S
C5062 H5081 0.913 . S
C5063 H5039 0.950 . S
C5063 C5062 1.524 . S
C5063 C5064 1.415 . S
C5064 H5040 0.950 . S
C5064 C5059 1.363 . S
C5064 C5063 1.415 . S
C5065 H5041 0.951 . S
C5065 C5066 1.366 . S
C5065 C5067 1.388 . S
C5066 C5065 1.366 . S
C5066 C5070 1.385 . S
C5067 H5042 0.951 . S
C5067 C5065 1.388 . S
C5067 C5068 1.366 . S
C5068 C5067 1.366 . S
C5068 C5069 1.414 . S
C5068 C5071 1.499 . S
C5069 H5043 0.950 . S
C5069 C5068 1.414 . S
C5069 C5070 1.374 . S
C5070 H5044 0.950 . S
C5070 C5066 1.385 . S
C5070 C5069 1.374 . S
C5071 C5068 1.499 . S
C5071 C5072 1.373 . S
C5071 C5073 1.389 . S
C5072 H5045 0.950 . S
C5072 C5058 1.377 . S
C5072 C5071 1.373 . S
C5073 C5057 1.377 . S
C5073 C5071 1.389 . S
C5073 C5074 1.524 . S
C5074 C5073 1.524 . S
C5074 C5075 1.397 . S
C5074 C5079 1.363 . S
C5075 H5046 0.950 . S
C5075 C5074 1.397 . S
C5075 C5076 1.334 . S
C5076 H5047 0.950 . S
C5076 C5075 1.334 . S
C5076 C5077 1.287 . S
C5077 C5076 1.287 . S
C5077 C5078 1.524 . S
C5077 H5080 0.999 . S
C5078 H5048 0.950 . S
C5078 C5077 1.524 . S
C5078 C5079 1.415 . S
C5079 H5049 0.950 . S
C5079 C5074 1.363 . S
C5079 C5078 1.415 . S
H5080 C5077 0.999 . S
H5081 C5062 0.913 . S
H5082 C5100 0.951 . S
H5083 C5102 0.951 . S
H5084 C5104 0.950 . S
H5085 C5105 0.950 . S
H5086 C5107 0.950 . S
H5087 C5110 0.950 . S
H5088 C5111 0.950 . S
H5089 C5113 0.950 . S
H5090 C5114 0.950 . S
H5091 C5115 0.951 . S
H5092 C5117 0.951 . S
H5093 C5119 0.950 . S
H5094 C5120 0.950 . S
H5095 C5122 0.950 . S
H5096 C5125 0.950 . S
H5097 C5126 0.950 . S
H5098 C5128 0.950 . S
H5099 C5129 0.950 . S
C5100 H5082 0.951 . S
C5100 C5101 1.366 . S
C5100 C5102 1.388 . S
C5101 C5100 1.366 . S
C5101 C5105 1.385 . S
C5102 H5083 0.951 . S
C5102 C5100 1.388 . S
C5102 C5103 1.366 . S
C5103 C5102 1.366 . S
C5103 C5104 1.414 . S
C5103 C5106 1.499 . S
C5104 H5084 0.950 . S
C5104 C5103 1.414 . S
C5104 C5105 1.374 . S
C5105 H5085 0.950 . S
C5105 C5101 1.385 . S
C5105 C5104 1.374 . S
C5106 C5103 1.499 . S
C5106 C5107 1.373 . S
C5106 C5108 1.389 . S
C5107 H5086 0.950 . S
C5107 C5106 1.373 . S
C5107 C5123 1.377 . S
C5108 C5106 1.389 . S
C5108 C5109 1.524 . S
C5108 C5122 1.377 . S
C5109 C5108 1.524 . S
C5109 C5110 1.397 . S
C5109 C5114 1.363 . S
C5110 H5087 0.950 . S
C5110 C5109 1.397 . S
C5110 C5111 1.334 . S
C5111 H5088 0.950 . S
C5111 C5110 1.334 . S
C5111 C5112 1.287 . S
C5112 C5111 1.287 . S
C5112 C5113 1.524 . S
C5112 H5131 0.913 . S
C5113 H5089 0.950 . S
C5113 C5112 1.524 . S
C5113 C5114 1.415 . S
C5114 H5090 0.950 . S
C5114 C5109 1.363 . S
C5114 C5113 1.415 . S
C5115 H5091 0.951 . S
C5115 C5116 1.366 . S
C5115 C5117 1.388 . S
C5116 C5115 1.366 . S
C5116 C5120 1.385 . S
C5117 H5092 0.951 . S
C5117 C5115 1.388 . S
C5117 C5118 1.366 . S
C5118 C5117 1.366 . S
C5118 C5119 1.414 . S
C5118 C5121 1.499 . S
C5119 H5093 0.950 . S
C5119 C5118 1.414 . S
C5119 C5120 1.374 . S
C5120 H5094 0.950 . S
C5120 C5116 1.385 . S
C5120 C5119 1.374 . S
C5121 C5118 1.499 . S
C5121 C5122 1.373 . S
C5121 C5123 1.389 . S
C5122 H5095 0.950 . S
C5122 C5108 1.377 . S
C5122 C5121 1.373 . S
C5123 C5107 1.377 . S
C5123 C5121 1.389 . S
C5123 C5124 1.524 . S
C5124 C5123 1.524 . S
C5124 C5125 1.397 . S
C5124 C5129 1.363 . S
C5125 H5096 0.950 . S
C5125 C5124 1.397 . S
C5125 C5126 1.334 . S
C5126 H5097 0.950 . S
C5126 C5125 1.334 . S
C5126 C5127 1.287 . S
C5127 C5126 1.287 . S
C5127 C5128 1.524 . S
C5127 H5130 0.999 . S
C5128 H5098 0.950 . S
C5128 C5127 1.524 . S
C5128 C5129 1.415 . S
C5129 H5099 0.950 . S
C5129 C5124 1.363 . S
C5129 C5128 1.415 . S
H5130 C5127 0.999 . S
H5131 C5112 0.913 . S
H5132 C5150 0.951 . S
H5133 C5152 0.951 . S
H5134 C5154 0.950 . S
H5135 C5155 0.950 . S
H5136 C5157 0.950 . S
H5137 C5160 0.950 . S
H5138 C5161 0.950 . S
H5139 C5163 0.950 . S
H5140 C5164 0.950 . S
H5141 C5165 0.951 . S
H5142 C5167 0.951 . S
H5143 C5169 0.950 . S
H5144 C5170 0.950 . S
H5145 C5172 0.950 . S
H5146 C5175 0.950 . S
H5147 C5176 0.950 . S
H5148 C5178 0.950 . S
H5149 C5179 0.950 . S
C5150 H5132 0.951 . S
C5150 C5151 1.366 . S
C5150 C5152 1.388 . S
C5151 C5150 1.366 . S
C5151 C5155 1.385 . S
C5152 H5133 0.951 . S
C5152 C5150 1.388 . S
C5152 C5153 1.366 . S
C5153 C5152 1.366 . S
C5153 C5154 1.414 . S
C5153 C5156 1.499 . S
C5154 H5134 0.950 . S
C5154 C5153 1.414 . S
C5154 C5155 1.374 . S
C5155 H5135 0.950 . S
C5155 C5151 1.385 . S
C5155 C5154 1.374 . S
C5156 C5153 1.499 . S
C5156 C5157 1.373 . S
C5156 C5158 1.389 . S
C5157 H5136 0.950 . S
C5157 C5156 1.373 . S
C5157 C5173 1.377 . S
C5158 C5156 1.389 . S
C5158 C5159 1.524 . S
C5158 C5172 1.377 . S
C5159 C5158 1.524 . S
C5159 C5160 1.397 . S
C5159 C5164 1.363 . S
C5160 H5137 0.950 . S
C5160 C5159 1.397 . S
C5160 C5161 1.334 . S
C5161 H5138 0.950 . S
C5161 C5160 1.334 . S
C5161 C5162 1.287 . S
C5162 C5161 1.287 . S
C5162 C5163 1.524 . S
C5162 H5181 0.913 . S
C5163 H5139 0.950 . S
C5163 C5162 1.524 . S
C5163 C5164 1.415 . S
C5164 H5140 0.950 . S
C5164 C5159 1.363 . S
C5164 C5163 1.415 . S
C5165 H5141 0.951 . S
C5165 C5166 1.366 . S
C5165 C5167 1.388 . S
C5166 C5165 1.366 . S
C5166 C5170 1.385 . S
C5167 H5142 0.951 . S
C5167 C5165 1.388 . S
C5167 C5168 1.366 . S
C5168 C5167 1.366 . S
C5168 C5169 1.414 . S
C5168 C5171 1.499 . S
C5169 H5143 0.950 . S
C5169 C5168 1.414 . S
C5169 C5170 1.374 . S
C5170 H5144 0.950 . S
C5170 C5166 1.385 . S
C5170 C5169 1.374 . S
C5171 C5168 1.499 . S
C5171 C5172 1.373 . S
C5171 C5173 1.389 . S
C5172 H5145 0.950 . S
C5172 C5158 1.377 . S
C5172 C5171 1.373 . S
C5173 C5157 1.377 . S
C5173 C5171 1.389 . S
C5173 C5174 1.524 . S
C5174 C5173 1.524 . S
C5174 C5175 1.397 . S
C5174 C5179 1.363 . S
C5175 H5146 0.950 . S
C5175 C5174 1.397 . S
C5175 C5176 1.334 . S
C5176 H5147 0.950 . S
C5176 C5175 1.334 . S
C5176 C5177 1.287 . S
C5177 C5176 1.287 . S
C5177 C5178 1.524 . S
C5177 H5180 0.999 . S
C5178 H5148 0.950 . S
C5178 C5177 1.524 . S
C5178 C5179 1.415 . S
C5179 H5149 0.950 . S
C5179 C5174 1.363 . S
C5179 C5178 1.415 . S
H5180 C5177 0.999 . S
H5181 C5162 0.913 . S
H5182 C5200 0.951 . S
H5183 C5202 0.951 . S
H5184 C5204 0.950 . S
H5185 C5205 0.950 . S
H5186 C5207 0.950 . S
H5187 C5210 0.950 . S
H5188 C5211 0.950 . S
H5189 C5213 0.950 . S
H5190 C5214 0.950 . S
H5191 C5215 0.951 . S
H5192 C5217 0.951 . S
H5193 C5219 0.950 . S
H5194 C5220 0.950 . S
H5195 C5222 0.950 . S
H5196 C5225 0.950 . S
H5197 C5226 0.950 . S
H5198 C5228 0.950 . S
H5199 C5229 0.950 . S
C5200 H5182 0.951 . S
C5200 C5201 1.366 . S
C5200 C5202 1.388 . S
C5201 C5200 1.366 . S
C5201 C5205 1.385 . S
C5202 H5183 0.951 . S
C5202 C5200 1.388 . S
C5202 C5203 1.366 . S
C5203 C5202 1.366 . S
C5203 C5204 1.414 . S
C5203 C5206 1.499 . S
C5204 H5184 0.950 . S
C5204 C5203 1.414 . S
C5204 C5205 1.374 . S
C5205 H5185 0.950 . S
C5205 C5201 1.385 . S
C5205 C5204 1.374 . S
C5206 C5203 1.499 . S
C5206 C5207 1.373 . S
C5206 C5208 1.389 . S
C5207 H5186 0.950 . S
C5207 C5206 1.373 . S
C5207 C5223 1.377 . S
C5208 C5206 1.389 . S
C5208 C5209 1.524 . S
C5208 C5222 1.377 . S
C5209 C5208 1.524 . S
C5209 C5210 1.397 . S
C5209 C5214 1.363 . S
C5210 H5187 0.950 . S
C5210 C5209 1.397 . S
C5210 C5211 1.334 . S
C5211 H5188 0.950 . S
C5211 C5210 1.334 . S
C5211 C5212 1.287 . S
C5212 C5211 1.287 . S
C5212 C5213 1.524 . S
C5212 H5231 0.913 . S
C5213 H5189 0.950 . S
C5213 C5212 1.524 . S
C5213 C5214 1.415 . S
C5214 H5190 0.950 . S
C5214 C5209 1.363 . S
C5214 C5213 1.415 . S
C5215 H5191 0.951 . S
C5215 C5216 1.366 . S
C5215 C5217 1.388 . S
C5216 C5215 1.366 . S
C5216 C5220 1.385 . S
C5217 H5192 0.951 . S
C5217 C5215 1.388 . S
C5217 C5218 1.366 . S
C5218 C5217 1.366 . S
C5218 C5219 1.414 . S
C5218 C5221 1.499 . S
C5219 H5193 0.950 . S
C5219 C5218 1.414 . S
C5219 C5220 1.374 . S
C5220 H5194 0.950 . S
C5220 C5216 1.385 . S
C5220 C5219 1.374 . S
C5221 C5218 1.499 . S
C5221 C5222 1.373 . S
C5221 C5223 1.389 . S
C5222 H5195 0.950 . S
C5222 C5208 1.377 . S
C5222 C5221 1.373 . S
C5223 C5207 1.377 . S
C5223 C5221 1.389 . S
C5223 C5224 1.524 . S
C5224 C5223 1.524 . S
C5224 C5225 1.397 . S
C5224 C5229 1.363 . S
C5225 H5196 0.950 . S
C5225 C5224 1.397 . S
C5225 C5226 1.334 . S
C5226 H5197 0.950 . S
C5226 C5225 1.334 . S
C5226 C5227 1.287 . S
C5227 C5226 1.287 . S
C5227 C5228 1.524 . S
C5227 H5230 0.999 . S
C5228 H5198 0.950 . S
C5228 C5227 1.524 . S
C5228 C5229 1.415 . S
C5229 H5199 0.950 . S
C5229 C5224 1.363 . S
C5229 C5228 1.415 . S
H5230 C5227 0.999 . S
H5231 C5212 0.913 . S
H5232 C5250 0.951 . S
H5233 C5252 0.951 . S
H5234 C5254 0.950 . S
H5235 C5255 0.950 . S
H5236 C5257 0.950 . S
H5237 C5260 0.950 . S
H5238 C5261 0.950 . S
H5239 C5263 0.950 . S
H5240 C5264 0.950 . S
H5241 C5265 0.951 . S
H5242 C5267 0.951 . S
H5243 C5269 0.950 . S
H5244 C5270 0.950 . S
H5245 C5272 0.950 . S
H5246 C5275 0.950 . S
H5247 C5276 0.950 . S
H5248 C5278 0.950 . S
H5249 C5279 0.950 . S
C5250 H5232 0.951 . S
C5250 C5251 1.366 . S
C5250 C5252 1.388 . S
C5251 C5250 1.366 . S
C5251 C5255 1.385 . S
C5252 H5233 0.951 . S
C5252 C5250 1.388 . S
C5252 C5253 1.366 . S
C5253 C5252 1.366 . S
C5253 C5254 1.414 . S
C5253 C5256 1.499 . S
C5254 H5234 0.950 . S
C5254 C5253 1.414 . S
C5254 C5255 1.374 . S
C5255 H5235 0.950 . S
C5255 C5251 1.385 . S
C5255 C5254 1.374 . S
C5256 C5253 1.499 . S
C5256 C5257 1.373 . S
C5256 C5258 1.389 . S
C5257 H5236 0.950 . S
C5257 C5256 1.373 . S
C5257 C5273 1.377 . S
C5258 C5256 1.389 . S
C5258 C5259 1.524 . S
C5258 C5272 1.377 . S
C5259 C5258 1.524 . S
C5259 C5260 1.397 . S
C5259 C5264 1.363 . S
C5260 H5237 0.950 . S
C5260 C5259 1.397 . S
C5260 C5261 1.334 . S
C5261 H5238 0.950 . S
C5261 C5260 1.334 . S
C5261 C5262 1.287 . S
C5262 C5261 1.287 . S
C5262 C5263 1.524 . S
C5262 H5281 0.913 . S
C5263 H5239 0.950 . S
C5263 C5262 1.524 . S
C5263 C5264 1.415 . S
C5264 H5240 0.950 . S
C5264 C5259 1.363 . S
C5264 C5263 1.415 . S
C5265 H5241 0.951 . S
C5265 C5266 1.366 . S
C5265 C5267 1.388 . S
C5266 C5265 1.366 . S
C5266 C5270 1.385 . S
C5267 H5242 0.951 . S
C5267 C5265 1.388 . S
C5267 C5268 1.366 . S
C5268 C5267 1.366 . S
C5268 C5269 1.414 . S
C5268 C5271 1.499 . S
C5269 H5243 0.950 . S
C5269 C5268 1.414 . S
C5269 C5270 1.374 . S
C5270 H5244 0.950 . S
C5270 C5266 1.385 . S
C5270 C5269 1.374 . S
C5271 C5268 1.499 . S
C5271 C5272 1.373 . S
C5271 C5273 1.389 . S
C5272 H5245 0.950 . S
C5272 C5258 1.377 . S
C5272 C5271 1.373 . S
C5273 C5257 1.377 . S
C5273 C5271 1.389 . S
C5273 C5274 1.524 . S
C5274 C5273 1.524 . S
C5274 C5275 1.397 . S
C5274 C5279 1.363 . S
C5275 H5246 0.950 . S
C5275 C5274 1.397 . S
C5275 C5276 1.334 . S
C5276 H5247 0.950 . S
C5276 C5275 1.334 . S
C5276 C5277 1.287 . S
C5277 C5276 1.287 . S
C5277 C5278 1.524 . S
C5277 H5280 0.999 . S
C5278 H5248 0.950 . S
C5278 C5277 1.524 . S
C5278 C5279 1.415 . S
C5279 H5249 0.950 . S
C5279 C5274 1.363 . S
C5279 C5278 1.415 . S
H5280 C5277 0.999 . S
H5281 C5262 0.913 . S
H5282 C5300 0.951 . S
H5283 C5302 0.951 . S
H5284 C5304 0.950 . S
H5285 C5305 0.950 . S
H5286 C5307 0.950 . S
H5287 C5310 0.950 . S
H5288 C5311 0.950 . S
H5289 C5313 0.950 . S
H5290 C5314 0.950 . S
H5291 C5315 0.951 . S
H5292 C5317 0.951 . S
H5293 C5319 0.950 . S
H5294 C5320 0.950 . S
H5295 C5322 0.950 . S
H5296 C5325 0.950 . S
H5297 C5326 0.950 . S
H5298 C5328 0.950 . S
H5299 C5329 0.950 . S
C5300 H5282 0.951 . S
C5300 C5301 1.366 . S
C5300 C5302 1.388 . S
C5301 C5300 1.366 . S
C5301 C5305 1.385 . S
C5302 H5283 0.951 . S
C5302 C5300 1.388 . S
C5302 C5303 1.366 . S
C5303 C5302 1.366 . S
C5303 C5304 1.414 . S
C5303 C5306 1.499 . S
C5304 H5284 0.950 . S
C5304 C5303 1.414 . S
C5304 C5305 1.374 . S
C5305 H5285 0.950 . S
C5305 C5301 1.385 . S
C5305 C5304 1.374 . S
C5306 C5303 1.499 . S
C5306 C5307 1.373 . S
C5306 C5308 1.389 . S
C5307 H5286 0.950 . S
C5307 C5306 1.373 . S
C5307 C5323 1.377 . S
C5308 C5306 1.389 . S
C5308 C5309 1.524 . S
C5308 C5322 1.377 . S
C5309 C5308 1.524 . S
C5309 C5310 1.397 . S
C5309 C5314 1.363 . S
C5310 H5287 0.950 . S
C5310 C5309 1.397 . S
C5310 C5311 1.334 . S
C5311 H5288 0.950 . S
C5311 C5310 1.334 . S
C5311 C5312 1.287 . S
C5312 C5311 1.287 . S
C5312 C5313 1.524 . S
C5312 H5331 0.913 . S
C5313 H5289 0.950 . S
C5313 C5312 1.524 . S
C5313 C5314 1.415 . S
C5314 H5290 0.950 . S
C5314 C5309 1.363 . S
C5314 C5313 1.415 . S
C5315 H5291 0.951 . S
C5315 C5316 1.366 . S
C5315 C5317 1.388 . S
C5316 C5315 1.366 . S
C5316 C5320 1.385 . S
C5317 H5292 0.951 . S
C5317 C5315 1.388 . S
C5317 C5318 1.366 . S
C5318 C5317 1.366 . S
C5318 C5319 1.414 . S
C5318 C5321 1.499 . S
C5319 H5293 0.950 . S
C5319 C5318 1.414 . S
C5319 C5320 1.374 . S
C5320 H5294 0.950 . S
C5320 C5316 1.385 . S
C5320 C5319 1.374 . S
C5321 C5318 1.499 . S
C5321 C5322 1.373 . S
C5321 C5323 1.389 . S
C5322 H5295 0.950 . S
C5322 C5308 1.377 . S
C5322 C5321 1.373 . S
C5323 C5307 1.377 . S
C5323 C5321 1.389 . S
C5323 C5324 1.524 . S
C5324 C5323 1.524 . S
C5324 C5325 1.397 . S
C5324 C5329 1.363 . S
C5325 H5296 0.950 . S
C5325 C5324 1.397 . S
C5325 C5326 1.334 . S
C5326 H5297 0.950 . S
C5326 C5325 1.334 . S
C5326 C5327 1.287 . S
C5327 C5326 1.287 . S
C5327 C5328 1.524 . S
C5327 H5330 0.999 . S
C5328 H5298 0.950 . S
C5328 C5327 1.524 . S
C5328 C5329 1.415 . S
C5329 H5299 0.950 . S
C5329 C5324 1.363 . S
C5329 C5328 1.415 . S
H5330 C5327 0.999 . S
H5331 C5312 0.913 . S
H5332 C5350 0.951 . S
H5333 C5352 0.951 . S
H5334 C5354 0.950 . S
H5335 C5355 0.950 . S
H5336 C5357 0.950 . S
H5337 C5360 0.950 . S
H5338 C5361 0.950 . S
H5339 C5363 0.950 . S
H5340 C5364 0.950 . S
H5341 C5365 0.951 . S
H5342 C5367 0.951 . S
H5343 C5369 0.950 . S
H5344 C5370 0.950 . S
H5345 C5372 0.950 . S
H5346 C5375 0.950 . S
H5347 C5376 0.950 . S
H5348 C5378 0.950 . S
H5349 C5379 0.950 . S
C5350 H5332 0.951 . S
C5350 C5351 1.366 . S
C5350 C5352 1.388 . S
C5351 C5350 1.366 . S
C5351 C5355 1.385 . S
C5352 H5333 0.951 . S
C5352 C5350 1.388 . S
C5352 C5353 1.366 . S
C5353 C5352 1.366 . S
C5353 C5354 1.414 . S
C5353 C5356 1.499 . S
C5354 H5334 0.950 . S
C5354 C5353 1.414 . S
C5354 C5355 1.374 . S
C5355 H5335 0.950 . S
C5355 C5351 1.385 . S
C5355 C5354 1.374 . S
C5356 C5353 1.499 . S
C5356 C5357 1.373 . S
C5356 C5358 1.389 . S
C5357 H5336 0.950 . S
C5357 C5356 1.373 . S
C5357 C5373 1.377 . S
C5358 C5356 1.389 . S
C5358 C5359 1.524 . S
C5358 C5372 1.377 . S
C5359 C5358 1.524 . S
C5359 C5360 1.397 . S
C5359 C5364 1.363 . S
C5360 H5337 0.950 . S
C5360 C5359 1.397 . S
C5360 C5361 1.334 . S
C5361 H5338 0.950 . S
C5361 C5360 1.334 . S
C5361 C5362 1.287 . S
C5362 C5361 1.287 . S
C5362 C5363 1.524 . S
C5362 H5381 0.913 . S
C5363 H5339 0.950 . S
C5363 C5362 1.524 . S
C5363 C5364 1.415 . S
C5364 H5340 0.950 . S
C5364 C5359 1.363 . S
C5364 C5363 1.415 . S
C5365 H5341 0.951 . S
C5365 C5366 1.366 . S
C5365 C5367 1.388 . S
C5366 C5365 1.366 . S
C5366 C5370 1.385 . S
C5367 H5342 0.951 . S
C5367 C5365 1.388 . S
C5367 C5368 1.366 . S
C5368 C5367 1.366 . S
C5368 C5369 1.414 . S
C5368 C5371 1.499 . S
C5369 H5343 0.950 . S
C5369 C5368 1.414 . S
C5369 C5370 1.374 . S
C5370 H5344 0.950 . S
C5370 C5366 1.385 . S
C5370 C5369 1.374 . S
C5371 C5368 1.499 . S
C5371 C5372 1.373 . S
C5371 C5373 1.389 . S
C5372 H5345 0.950 . S
C5372 C5358 1.377 . S
C5372 C5371 1.373 . S
C5373 C5357 1.377 . S
C5373 C5371 1.389 . S
C5373 C5374 1.524 . S
C5374 C5373 1.524 . S
C5374 C5375 1.397 . S
C5374 C5379 1.363 . S
C5375 H5346 0.950 . S
C5375 C5374 1.397 . S
C5375 C5376 1.334 . S
C5376 H5347 0.950 . S
C5376 C5375 1.334 . S
C5376 C5377 1.287 . S
C5377 C5376 1.287 . S
C5377 C5378 1.524 . S
C5377 H5380 0.999 . S
C5378 H5348 0.950 . S
C5378 C5377 1.524 . S
C5378 C5379 1.415 . S
C5379 H5349 0.950 . S
C5379 C5374 1.363 . S
C5379 C5378 1.415 . S
H5380 C5377 0.999 . S
H5381 C5362 0.913 . S
H5382 C5400 0.951 . S
H5383 C5402 0.951 . S
H5384 C5404 0.950 . S
H5385 C5405 0.950 . S
H5386 C5407 0.950 . S
H5387 C5410 0.950 . S
H5388 C5411 0.950 . S
H5389 C5413 0.950 . S
H5390 C5414 0.950 . S
H5391 C5415 0.951 . S
H5392 C5417 0.951 . S
H5393 C5419 0.950 . S
H5394 C5420 0.950 . S
H5395 C5422 0.950 . S
H5396 C5425 0.950 . S
H5397 C5426 0.950 . S
H5398 C5428 0.950 . S
H5399 C5429 0.950 . S
C5400 H5382 0.951 . S
C5400 C5401 1.366 . S
C5400 C5402 1.388 . S
C5401 C5400 1.366 . S
C5401 C5405 1.385 . S
C5402 H5383 0.951 . S
C5402 C5400 1.388 . S
C5402 C5403 1.366 . S
C5403 C5402 1.366 . S
C5403 C5404 1.414 . S
C5403 C5406 1.499 . S
C5404 H5384 0.950 . S
C5404 C5403 1.414 . S
C5404 C5405 1.374 . S
C5405 H5385 0.950 . S
C5405 C5401 1.385 . S
C5405 C5404 1.374 . S
C5406 C5403 1.499 . S
C5406 C5407 1.373 . S
C5406 C5408 1.389 . S
C5407 H5386 0.950 . S
C5407 C5406 1.373 . S
C5407 C5423 1.377 . S
C5408 C5406 1.389 . S
C5408 C5409 1.524 . S
C5408 C5422 1.377 . S
C5409 C5408 1.524 . S
C5409 C5410 1.397 . S
C5409 C5414 1.363 . S
C5410 H5387 0.950 . S
C5410 C5409 1.397 . S
C5410 C5411 1.334 . S
C5411 H5388 0.950 . S
C5411 C5410 1.334 . S
C5411 C5412 1.287 . S
C5412 C5411 1.287 . S
C5412 C5413 1.524 . S
C5412 H5431 0.913 . S
C5413 H5389 0.950 . S
C5413 C5412 1.524 . S
C5413 C5414 1.415 . S
C5414 H5390 0.950 . S
C5414 C5409 1.363 . S
C5414 C5413 1.415 . S
C5415 H5391 0.951 . S
C5415 C5416 1.366 . S
C5415 C5417 1.388 . S
C5416 C5415 1.366 . S
C5416 C5420 1.385 . S
C5417 H5392 0.951 . S
C5417 C5415 1.388 . S
C5417 C5418 1.366 . S
C5418 C5417 1.366 . S
C5418 C5419 1.414 . S
C5418 C5421 1.499 . S
C5419 H5393 0.950 . S
C5419 C5418 1.414 . S
C5419 C5420 1.374 . S
C5420 H5394 0.950 . S
C5420 C5416 1.385 . S
C5420 C5419 1.374 . S
C5421 C5418 1.499 . S
C5421 C5422 1.373 . S
C5421 C5423 1.389 . S
C5422 H5395 0.950 . S
C5422 C5408 1.377 . S
C5422 C5421 1.373 . S
C5423 C5407 1.377 . S
C5423 C5421 1.389 . S
C5423 C5424 1.524 . S
C5424 C5423 1.524 . S
C5424 C5425 1.397 . S
C5424 C5429 1.363 . S
C5425 H5396 0.950 . S
C5425 C5424 1.397 . S
C5425 C5426 1.334 . S
C5426 H5397 0.950 . S
C5426 C5425 1.334 . S
C5426 C5427 1.287 . S
C5427 C5426 1.287 . S
C5427 C5428 1.524 . S
C5427 H5430 0.999 . S
C5428 H5398 0.950 . S
C5428 C5427 1.524 . S
C5428 C5429 1.415 . S
C5429 H5399 0.950 . S
C5429 C5424 1.363 . S
C5429 C5428 1.415 . S
H5430 C5427 0.999 . S
H5431 C5412 0.913 . S
H5432 C5450 0.951 . S
H5433 C5452 0.951 . S
H5434 C5454 0.950 . S
H5435 C5455 0.950 . S
H5436 C5457 0.950 . S
H5437 C5460 0.950 . S
H5438 C5461 0.950 . S
H5439 C5463 0.950 . S
H5440 C5464 0.950 . S
H5441 C5465 0.951 . S
H5442 C5467 0.951 . S
H5443 C5469 0.950 . S
H5444 C5470 0.950 . S
H5445 C5472 0.950 . S
H5446 C5475 0.950 . S
H5447 C5476 0.950 . S
H5448 C5478 0.950 . S
H5449 C5479 0.950 . S
C5450 H5432 0.951 . S
C5450 C5451 1.366 . S
C5450 C5452 1.388 . S
C5451 C5450 1.366 . S
C5451 C5455 1.385 . S
C5452 H5433 0.951 . S
C5452 C5450 1.388 . S
C5452 C5453 1.366 . S
C5453 C5452 1.366 . S
C5453 C5454 1.414 . S
C5453 C5456 1.499 . S
C5454 H5434 0.950 . S
C5454 C5453 1.414 . S
C5454 C5455 1.374 . S
C5455 H5435 0.950 . S
C5455 C5451 1.385 . S
C5455 C5454 1.374 . S
C5456 C5453 1.499 . S
C5456 C5457 1.373 . S
C5456 C5458 1.389 . S
C5457 H5436 0.950 . S
C5457 C5456 1.373 . S
C5457 C5473 1.377 . S
C5458 C5456 1.389 . S
C5458 C5459 1.524 . S
C5458 C5472 1.377 . S
C5459 C5458 1.524 . S
C5459 C5460 1.397 . S
C5459 C5464 1.363 . S
C5460 H5437 0.950 . S
C5460 C5459 1.397 . S
C5460 C5461 1.334 . S
C5461 H5438 0.950 . S
C5461 C5460 1.334 . S
C5461 C5462 1.287 . S
C5462 C5461 1.287 . S
C5462 C5463 1.524 . S
C5462 H5481 0.913 . S
C5463 H5439 0.950 . S
C5463 C5462 1.524 . S
C5463 C5464 1.415 . S
C5464 H5440 0.950 . S
C5464 C5459 1.363 . S
C5464 C5463 1.415 . S
C5465 H5441 0.951 . S
C5465 C5466 1.366 . S
C5465 C5467 1.388 . S
C5466 C5465 1.366 . S
C5466 C5470 1.385 . S
C5467 H5442 0.951 . S
C5467 C5465 1.388 . S
C5467 C5468 1.366 . S
C5468 C5467 1.366 . S
C5468 C5469 1.414 . S
C5468 C5471 1.499 . S
C5469 H5443 0.950 . S
C5469 C5468 1.414 . S
C5469 C5470 1.374 . S
C5470 H5444 0.950 . S
C5470 C5466 1.385 . S
C5470 C5469 1.374 . S
C5471 C5468 1.499 . S
C5471 C5472 1.373 . S
C5471 C5473 1.389 . S
C5472 H5445 0.950 . S
C5472 C5458 1.377 . S
C5472 C5471 1.373 . S
C5473 C5457 1.377 . S
C5473 C5471 1.389 . S
C5473 C5474 1.524 . S
C5474 C5473 1.524 . S
C5474 C5475 1.397 . S
C5474 C5479 1.363 . S
C5475 H5446 0.950 . S
C5475 C5474 1.397 . S
C5475 C5476 1.334 . S
C5476 H5447 0.950 . S
C5476 C5475 1.334 . S
C5476 C5477 1.287 . S
C5477 C5476 1.287 . S
C5477 C5478 1.524 . S
C5477 H5480 0.999 . S
C5478 H5448 0.950 . S
C5478 C5477 1.524 . S
C5478 C5479 1.415 . S
C5479 H5449 0.950 . S
C5479 C5474 1.363 . S
C5479 C5478 1.415 . S
H5480 C5477 0.999 . S
H5481 C5462 0.913 . S
H5482 C5500 0.951 . S
H5483 C5502 0.951 . S
H5484 C5504 0.950 . S
H5485 C5505 0.950 . S
H5486 C5507 0.950 . S
H5487 C5510 0.950 . S
H5488 C5511 0.950 . S
H5489 C5513 0.950 . S
H5490 C5514 0.950 . S
H5491 C5515 0.951 . S
H5492 C5517 0.951 . S
H5493 C5519 0.950 . S
H5494 C5520 0.950 . S
H5495 C5522 0.950 . S
H5496 C5525 0.950 . S
H5497 C5526 0.950 . S
H5498 C5528 0.950 . S
H5499 C5529 0.950 . S
C5500 H5482 0.951 . S
C5500 C5501 1.366 . S
C5500 C5502 1.388 . S
C5501 C5500 1.366 . S
C5501 C5505 1.385 . S
C5502 H5483 0.951 . S
C5502 C5500 1.388 . S
C5502 C5503 1.366 . S
C5503 C5502 1.366 . S
C5503 C5504 1.414 . S
C5503 C5506 1.499 . S
C5504 H5484 0.950 . S
C5504 C5503 1.414 . S
C5504 C5505 1.374 . S
C5505 H5485 0.950 . S
C5505 C5501 1.385 . S
C5505 C5504 1.374 . S
C5506 C5503 1.499 . S
C5506 C5507 1.373 . S
C5506 C5508 1.389 . S
C5507 H5486 0.950 . S
C5507 C5506 1.373 . S
C5507 C5523 1.377 . S
C5508 C5506 1.389 . S
C5508 C5509 1.524 . S
C5508 C5522 1.377 . S
C5509 C5508 1.524 . S
C5509 C5510 1.397 . S
C5509 C5514 1.363 . S
C5510 H5487 0.950 . S
C5510 C5509 1.397 . S
C5510 C5511 1.334 . S
C5511 H5488 0.950 . S
C5511 C5510 1.334 . S
C5511 C5512 1.287 . S
C5512 C5511 1.287 . S
C5512 C5513 1.524 . S
C5512 H5531 0.913 . S
C5513 H5489 0.950 . S
C5513 C5512 1.524 . S
C5513 C5514 1.415 . S
C5514 H5490 0.950 . S
C5514 C5509 1.363 . S
C5514 C5513 1.415 . S
C5515 H5491 0.951 . S
C5515 C5516 1.366 . S
C5515 C5517 1.388 . S
C5516 C5515 1.366 . S
C5516 C5520 1.385 . S
C5517 H5492 0.951 . S
C5517 C5515 1.388 . S
C5517 C5518 1.366 . S
C5518 C5517 1.366 . S
C5518 C5519 1.414 . S
C5518 C5521 1.499 . S
C5519 H5493 0.950 . S
C5519 C5518 1.414 . S
C5519 C5520 1.374 . S
C5520 H5494 0.950 . S
C5520 C5516 1.385 . S
C5520 C5519 1.374 . S
C5521 C5518 1.499 . S
C5521 C5522 1.373 . S
C5521 C5523 1.389 . S
C5522 H5495 0.950 . S
C5522 C5508 1.377 . S
C5522 C5521 1.373 . S
C5523 C5507 1.377 . S
C5523 C5521 1.389 . S
C5523 C5524 1.524 . S
C5524 C5523 1.524 . S
C5524 C5525 1.397 . S
C5524 C5529 1.363 . S
C5525 H5496 0.950 . S
C5525 C5524 1.397 . S
C5525 C5526 1.334 . S
C5526 H5497 0.950 . S
C5526 C5525 1.334 . S
C5526 C5527 1.287 . S
C5527 C5526 1.287 . S
C5527 C5528 1.524 . S
C5527 H5530 0.999 . S
C5528 H5498 0.950 . S
C5528 C5527 1.524 . S
C5528 C5529 1.415 . S
C5529 H5499 0.950 . S
C5529 C5524 1.363 . S
C5529 C5528 1.415 . S
H5530 C5527 0.999 . S
H5531 C5512 0.913 . S
H5532 C5550 0.951 . S
H5533 C5552 0.951 . S
H5534 C5554 0.950 . S
H5535 C5555 0.950 . S
H5536 C5557 0.950 . S
H5537 C5560 0.950 . S
H5538 C5561 0.950 . S
H5539 C5563 0.950 . S
H5540 C5564 0.950 . S
H5541 C5565 0.951 . S
H5542 C5567 0.951 . S
H5543 C5569 0.950 . S
H5544 C5570 0.950 . S
H5545 C5572 0.950 . S
H5546 C5575 0.950 . S
H5547 C5576 0.950 . S
H5548 C5578 0.950 . S
H5549 C5579 0.950 . S
C5550 H5532 0.951 . S
C5550 C5551 1.366 . S
C5550 C5552 1.388 . S
C5551 C5550 1.366 . S
C5551 C5555 1.385 . S
C5552 H5533 0.951 . S
C5552 C5550 1.388 . S
C5552 C5553 1.366 . S
C5553 C5552 1.366 . S
C5553 C5554 1.414 . S
C5553 C5556 1.499 . S
C5554 H5534 0.950 . S
C5554 C5553 1.414 . S
C5554 C5555 1.374 . S
C5555 H5535 0.950 . S
C5555 C5551 1.385 . S
C5555 C5554 1.374 . S
C5556 C5553 1.499 . S
C5556 C5557 1.373 . S
C5556 C5558 1.389 . S
C5557 H5536 0.950 . S
C5557 C5556 1.373 . S
C5557 C5573 1.377 . S
C5558 C5556 1.389 . S
C5558 C5559 1.524 . S
C5558 C5572 1.377 . S
C5559 C5558 1.524 . S
C5559 C5560 1.397 . S
C5559 C5564 1.363 . S
C5560 H5537 0.950 . S
C5560 C5559 1.397 . S
C5560 C5561 1.334 . S
C5561 H5538 0.950 . S
C5561 C5560 1.334 . S
C5561 C5562 1.287 . S
C5562 C5561 1.287 . S
C5562 C5563 1.524 . S
C5562 H5581 0.913 . S
C5563 H5539 0.950 . S
C5563 C5562 1.524 . S
C5563 C5564 1.415 . S
C5564 H5540 0.950 . S
C5564 C5559 1.363 . S
C5564 C5563 1.415 . S
C5565 H5541 0.951 . S
C5565 C5566 1.366 . S
C5565 C5567 1.388 . S
C5566 C5565 1.366 . S
C5566 C5570 1.385 . S
C5567 H5542 0.951 . S
C5567 C5565 1.388 . S
C5567 C5568 1.366 . S
C5568 C5567 1.366 . S
C5568 C5569 1.414 . S
C5568 C5571 1.499 . S
C5569 H5543 0.950 . S
C5569 C5568 1.414 . S
C5569 C5570 1.374 . S
C5570 H5544 0.950 . S
C5570 C5566 1.385 . S
C5570 C5569 1.374 . S
C5571 C5568 1.499 . S
C5571 C5572 1.373 . S
C5571 C5573 1.389 . S
C5572 H5545 0.950 . S
C5572 C5558 1.377 . S
C5572 C5571 1.373 . S
C5573 C5557 1.377 . S
C5573 C5571 1.389 . S
C5573 C5574 1.524 . S
C5574 C5573 1.524 . S
C5574 C5575 1.397 . S
C5574 C5579 1.363 . S
C5575 H5546 0.950 . S
C5575 C5574 1.397 . S
C5575 C5576 1.334 . S
C5576 H5547 0.950 . S
C5576 C5575 1.334 . S
C5576 C5577 1.287 . S
C5577 C5576 1.287 . S
C5577 C5578 1.524 . S
C5577 H5580 0.999 . S
C5578 H5548 0.950 . S
C5578 C5577 1.524 . S
C5578 C5579 1.415 . S
C5579 H5549 0.950 . S
C5579 C5574 1.363 . S
C5579 C5578 1.415 . S
H5580 C5577 0.999 . S
H5581 C5562 0.913 . S
H5582 C5600 0.951 . S
H5583 C5602 0.951 . S
H5584 C5604 0.950 . S
H5585 C5605 0.950 . S
H5586 C5607 0.950 . S
H5587 C5610 0.950 . S
H5588 C5611 0.950 . S
H5589 C5613 0.950 . S
H5590 C5614 0.950 . S
H5591 C5615 0.951 . S
H5592 C5617 0.951 . S
H5593 C5619 0.950 . S
H5594 C5620 0.950 . S
H5595 C5622 0.950 . S
H5596 C5625 0.950 . S
H5597 C5626 0.950 . S
H5598 C5628 0.950 . S
H5599 C5629 0.950 . S
C5600 H5582 0.951 . S
C5600 C5601 1.366 . S
C5600 C5602 1.388 . S
C5601 C5600 1.366 . S
C5601 C5605 1.385 . S
C5602 H5583 0.951 . S
C5602 C5600 1.388 . S
C5602 C5603 1.366 . S
C5603 C5602 1.366 . S
C5603 C5604 1.414 . S
C5603 C5606 1.499 . S
C5604 H5584 0.950 . S
C5604 C5603 1.414 . S
C5604 C5605 1.374 . S
C5605 H5585 0.950 . S
C5605 C5601 1.385 . S
C5605 C5604 1.374 . S
C5606 C5603 1.499 . S
C5606 C5607 1.373 . S
C5606 C5608 1.389 . S
C5607 H5586 0.950 . S
C5607 C5606 1.373 . S
C5607 C5623 1.377 . S
C5608 C5606 1.389 . S
C5608 C5609 1.524 . S
C5608 C5622 1.377 . S
C5609 C5608 1.524 . S
C5609 C5610 1.397 . S
C5609 C5614 1.363 . S
C5610 H5587 0.950 . S
C5610 C5609 1.397 . S
C5610 C5611 1.334 . S
C5611 H5588 0.950 . S
C5611 C5610 1.334 . S
C5611 C5612 1.287 . S
C5612 C5611 1.287 . S
C5612 C5613 1.524 . S
C5612 H5631 0.913 . S
C5613 H5589 0.950 . S
C5613 C5612 1.524 . S
C5613 C5614 1.415 . S
C5614 H5590 0.950 . S
C5614 C5609 1.363 . S
C5614 C5613 1.415 . S
C5615 H5591 0.951 . S
C5615 C5616 1.366 . S
C5615 C5617 1.388 . S
C5616 C5615 1.366 . S
C5616 C5620 1.385 . S
C5617 H5592 0.951 . S
C5617 C5615 1.388 . S
C5617 C5618 1.366 . S
C5618 C5617 1.366 . S
C5618 C5619 1.414 . S
C5618 C5621 1.499 . S
C5619 H5593 0.950 . S
C5619 C5618 1.414 . S
C5619 C5620 1.374 . S
C5620 H5594 0.950 . S
C5620 C5616 1.385 . S
C5620 C5619 1.374 . S
C5621 C5618 1.499 . S
C5621 C5622 1.373 . S
C5621 C5623 1.389 . S
C5622 H5595 0.950 . S
C5622 C5608 1.377 . S
C5622 C5621 1.373 . S
C5623 C5607 1.377 . S
C5623 C5621 1.389 . S
C5623 C5624 1.524 . S
C5624 C5623 1.524 . S
C5624 C5625 1.397 . S
C5624 C5629 1.363 . S
C5625 H5596 0.950 . S
C5625 C5624 1.397 . S
C5625 C5626 1.334 . S
C5626 H5597 0.950 . S
C5626 C5625 1.334 . S
C5626 C5627 1.287 . S
C5627 C5626 1.287 . S
C5627 C5628 1.524 . S
C5627 H5630 0.999 . S
C5628 H5598 0.950 . S
C5628 C5627 1.524 . S
C5628 C5629 1.415 . S
C5629 H5599 0.950 . S
C5629 C5624 1.363 . S
C5629 C5628 1.415 . S
H5630 C5627 0.999 . S
H5631 C5612 0.913 . S
H5632 C5650 0.951 . S
H5633 C5652 0.951 . S
H5634 C5654 0.950 . S
H5635 C5655 0.950 . S
H5636 C5657 0.950 . S
H5637 C5660 0.950 . S
H5638 C5661 0.950 . S
H5639 C5663 0.950 . S
H5640 C5664 0.950 . S
H5641 C5665 0.951 . S
H5642 C5667 0.951 . S
H5643 C5669 0.950 . S
H5644 C5670 0.950 . S
H5645 C5672 0.950 . S
H5646 C5675 0.950 . S
H5647 C5676 0.950 . S
H5648 C5678 0.950 . S
H5649 C5679 0.950 . S
C5650 H5632 0.951 . S
C5650 C5651 1.366 . S
C5650 C5652 1.388 . S
C5651 C5650 1.366 . S
C5651 C5655 1.385 . S
C5652 H5633 0.951 . S
C5652 C5650 1.388 . S
C5652 C5653 1.366 . S
C5653 C5652 1.366 . S
C5653 C5654 1.414 . S
C5653 C5656 1.499 . S
C5654 H5634 0.950 . S
C5654 C5653 1.414 . S
C5654 C5655 1.374 . S
C5655 H5635 0.950 . S
C5655 C5651 1.385 . S
C5655 C5654 1.374 . S
C5656 C5653 1.499 . S
C5656 C5657 1.373 . S
C5656 C5658 1.389 . S
C5657 H5636 0.950 . S
C5657 C5656 1.373 . S
C5657 C5673 1.377 . S
C5658 C5656 1.389 . S
C5658 C5659 1.524 . S
C5658 C5672 1.377 . S
C5659 C5658 1.524 . S
C5659 C5660 1.397 . S
C5659 C5664 1.363 . S
C5660 H5637 0.950 . S
C5660 C5659 1.397 . S
C5660 C5661 1.334 . S
C5661 H5638 0.950 . S
C5661 C5660 1.334 . S
C5661 C5662 1.287 . S
C5662 C5661 1.287 . S
C5662 C5663 1.524 . S
C5662 H5681 0.913 . S
C5663 H5639 0.950 . S
C5663 C5662 1.524 . S
C5663 C5664 1.415 . S
C5664 H5640 0.950 . S
C5664 C5659 1.363 . S
C5664 C5663 1.415 . S
C5665 H5641 0.951 . S
C5665 C5666 1.366 . S
C5665 C5667 1.388 . S
C5666 C5665 1.366 . S
C5666 C5670 1.385 . S
C5667 H5642 0.951 . S
C5667 C5665 1.388 . S
C5667 C5668 1.366 . S
C5668 C5667 1.366 . S
C5668 C5669 1.414 . S
C5668 C5671 1.499 . S
C5669 H5643 0.950 . S
C5669 C5668 1.414 . S
C5669 C5670 1.374 . S
C5670 H5644 0.950 . S
C5670 C5666 1.385 . S
C5670 C5669 1.374 . S
C5671 C5668 1.499 . S
C5671 C5672 1.373 . S
C5671 C5673 1.389 . S
C5672 H5645 0.950 . S
C5672 C5658 1.377 . S
C5672 C5671 1.373 . S
C5673 C5657 1.377 . S
C5673 C5671 1.389 . S
C5673 C5674 1.524 . S
C5674 C5673 1.524 . S
C5674 C5675 1.397 . S
C5674 C5679 1.363 . S
C5675 H5646 0.950 . S
C5675 C5674 1.397 . S
C5675 C5676 1.334 . S
C5676 H5647 0.950 . S
C5676 C5675 1.334 . S
C5676 C5677 1.287 . S
C5677 C5676 1.287 . S
C5677 C5678 1.524 . S
C5677 H5680 0.999 . S
C5678 H5648 0.950 . S
C5678 C5677 1.524 . S
C5678 C5679 1.415 . S
C5679 H5649 0.950 . S
C5679 C5674 1.363 . S
C5679 C5678 1.415 . S
H5680 C5677 0.999 . S
H5681 C5662 0.913 . S
H5682 C5700 0.951 . S
H5683 C5702 0.951 . S
H5684 C5704 0.950 . S
H5685 C5705 0.950 . S
H5686 C5707 0.950 . S
H5687 C5710 0.950 . S
H5688 C5711 0.950 . S
H5689 C5713 0.950 . S
H5690 C5714 0.950 . S
H5691 C5715 0.951 . S
H5692 C5717 0.951 . S
H5693 C5719 0.950 . S
H5694 C5720 0.950 . S
H5695 C5722 0.950 . S
H5696 C5725 0.950 . S
H5697 C5726 0.950 . S
H5698 C5728 0.950 . S
H5699 C5729 0.950 . S
C5700 H5682 0.951 . S
C5700 C5701 1.366 . S
C5700 C5702 1.388 . S
C5701 C5700 1.366 . S
C5701 C5705 1.385 . S
C5702 H5683 0.951 . S
C5702 C5700 1.388 . S
C5702 C5703 1.366 . S
C5703 C5702 1.366 . S
C5703 C5704 1.414 . S
C5703 C5706 1.499 . S
C5704 H5684 0.950 . S
C5704 C5703 1.414 . S
C5704 C5705 1.374 . S
C5705 H5685 0.950 . S
C5705 C5701 1.385 . S
C5705 C5704 1.374 . S
C5706 C5703 1.499 . S
C5706 C5707 1.373 . S
C5706 C5708 1.389 . S
C5707 H5686 0.950 . S
C5707 C5706 1.373 . S
C5707 C5723 1.377 . S
C5708 C5706 1.389 . S
C5708 C5709 1.524 . S
C5708 C5722 1.377 . S
C5709 C5708 1.524 . S
C5709 C5710 1.397 . S
C5709 C5714 1.363 . S
C5710 H5687 0.950 . S
C5710 C5709 1.397 . S
C5710 C5711 1.334 . S
C5711 H5688 0.950 . S
C5711 C5710 1.334 . S
C5711 C5712 1.287 . S
C5712 C5711 1.287 . S
C5712 C5713 1.524 . S
C5712 H5731 0.913 . S
C5713 H5689 0.950 . S
C5713 C5712 1.524 . S
C5713 C5714 1.415 . S
C5714 H5690 0.950 . S
C5714 C5709 1.363 . S
C5714 C5713 1.415 . S
C5715 H5691 0.951 . S
C5715 C5716 1.366 . S
C5715 C5717 1.388 . S
C5716 C5715 1.366 . S
C5716 C5720 1.385 . S
C5717 H5692 0.951 . S
C5717 C5715 1.388 . S
C5717 C5718 1.366 . S
C5718 C5717 1.366 . S
C5718 C5719 1.414 . S
C5718 C5721 1.499 . S
C5719 H5693 0.950 . S
C5719 C5718 1.414 . S
C5719 C5720 1.374 . S
C5720 H5694 0.950 . S
C5720 C5716 1.385 . S
C5720 C5719 1.374 . S
C5721 C5718 1.499 . S
C5721 C5722 1.373 . S
C5721 C5723 1.389 . S
C5722 H5695 0.950 . S
C5722 C5708 1.377 . S
C5722 C5721 1.373 . S
C5723 C5707 1.377 . S
C5723 C5721 1.389 . S
C5723 C5724 1.524 . S
C5724 C5723 1.524 . S
C5724 C5725 1.397 . S
C5724 C5729 1.363 . S
C5725 H5696 0.950 . S
C5725 C5724 1.397 . S
C5725 C5726 1.334 . S
C5726 H5697 0.950 . S
C5726 C5725 1.334 . S
C5726 C5727 1.287 . S
C5727 C5726 1.287 . S
C5727 C5728 1.524 . S
C5727 H5730 0.999 . S
C5728 H5698 0.950 . S
C5728 C5727 1.524 . S
C5728 C5729 1.415 . S
C5729 H5699 0.950 . S
C5729 C5724 1.363 . S
C5729 C5728 1.415 . S
H5730 C5727 0.999 . S
H5731 C5712 0.913 . S
H5732 C5750 0.951 . S
H5733 C5752 0.951 . S
H5734 C5754 0.950 . S
H5735 C5755 0.950 . S
H5736 C5757 0.950 . S
H5737 C5760 0.950 . S
H5738 C5761 0.950 . S
H5739 C5763 0.950 . S
H5740 C5764 0.950 . S
H5741 C5765 0.951 . S
H5742 C5767 0.951 . S
H5743 C5769 0.950 . S
H5744 C5770 0.950 . S
H5745 C5772 0.950 . S
H5746 C5775 0.950 . S
H5747 C5776 0.950 . S
H5748 C5778 0.950 . S
H5749 C5779 0.950 . S
C5750 H5732 0.951 . S
C5750 C5751 1.366 . S
C5750 C5752 1.388 . S
C5751 C5750 1.366 . S
C5751 C5755 1.385 . S
C5752 H5733 0.951 . S
C5752 C5750 1.388 . S
C5752 C5753 1.366 . S
C5753 C5752 1.366 . S
C5753 C5754 1.414 . S
C5753 C5756 1.499 . S
C5754 H5734 0.950 . S
C5754 C5753 1.414 . S
C5754 C5755 1.374 . S
C5755 H5735 0.950 . S
C5755 C5751 1.385 . S
C5755 C5754 1.374 . S
C5756 C5753 1.499 . S
C5756 C5757 1.373 . S
C5756 C5758 1.389 . S
C5757 H5736 0.950 . S
C5757 C5756 1.373 . S
C5757 C5773 1.377 . S
C5758 C5756 1.389 . S
C5758 C5759 1.524 . S
C5758 C5772 1.377 . S
C5759 C5758 1.524 . S
C5759 C5760 1.397 . S
C5759 C5764 1.363 . S
C5760 H5737 0.950 . S
C5760 C5759 1.397 . S
C5760 C5761 1.334 . S
C5761 H5738 0.950 . S
C5761 C5760 1.334 . S
C5761 C5762 1.287 . S
C5762 C5761 1.287 . S
C5762 C5763 1.524 . S
C5762 H5781 0.913 . S
C5763 H5739 0.950 . S
C5763 C5762 1.524 . S
C5763 C5764 1.415 . S
C5764 H5740 0.950 . S
C5764 C5759 1.363 . S
C5764 C5763 1.415 . S
C5765 H5741 0.951 . S
C5765 C5766 1.366 . S
C5765 C5767 1.388 . S
C5766 C5765 1.366 . S
C5766 C5770 1.385 . S
C5767 H5742 0.951 . S
C5767 C5765 1.388 . S
C5767 C5768 1.366 . S
C5768 C5767 1.366 . S
C5768 C5769 1.414 . S
C5768 C5771 1.499 . S
C5769 H5743 0.950 . S
C5769 C5768 1.414 . S
C5769 C5770 1.374 . S
C5770 H5744 0.950 . S
C5770 C5766 1.385 . S
C5770 C5769 1.374 . S
C5771 C5768 1.499 . S
C5771 C5772 1.373 . S
C5771 C5773 1.389 . S
C5772 H5745 0.950 . S
C5772 C5758 1.377 . S
C5772 C5771 1.373 . S
C5773 C5757 1.377 . S
C5773 C5771 1.389 . S
C5773 C5774 1.524 . S
C5774 C5773 1.524 . S
C5774 C5775 1.397 . S
C5774 C5779 1.363 . S
C5775 H5746 0.950 . S
C5775 C5774 1.397 . S
C5775 C5776 1.334 . S
C5776 H5747 0.950 . S
C5776 C5775 1.334 . S
C5776 C5777 1.287 . S
C5777 C5776 1.287 . S
C5777 C5778 1.524 . S
C5777 H5780 0.999 . S
C5778 H5748 0.950 . S
C5778 C5777 1.524 . S
C5778 C5779 1.415 . S
C5779 H5749 0.950 . S
C5779 C5774 1.363 . S
C5779 C5778 1.415 . S
H5780 C5777 0.999 . S
H5781 C5762 0.913 . S
H5782 C5800 0.951 . S
H5783 C5802 0.951 . S
H5784 C5804 0.950 . S
H5785 C5805 0.950 . S
H5786 C5807 0.950 . S
H5787 C5810 0.950 . S
H5788 C5811 0.950 . S
H5789 C5813 0.950 . S
H5790 C5814 0.950 . S
H5791 C5815 0.951 . S
H5792 C5817 0.951 . S
H5793 C5819 0.950 . S
H5794 C5820 0.950 . S
H5795 C5822 0.950 . S
H5796 C5825 0.950 . S
H5797 C5826 0.950 . S
H5798 C5828 0.950 . S
H5799 C5829 0.950 . S
C5800 H5782 0.951 . S
C5800 C5801 1.366 . S
C5800 C5802 1.388 . S
C5801 C5800 1.366 . S
C5801 C5805 1.385 . S
C5802 H5783 0.951 . S
C5802 C5800 1.388 . S
C5802 C5803 1.366 . S
C5803 C5802 1.366 . S
C5803 C5804 1.414 . S
C5803 C5806 1.499 . S
C5804 H5784 0.950 . S
C5804 C5803 1.414 . S
C5804 C5805 1.374 . S
C5805 H5785 0.950 . S
C5805 C5801 1.385 . S
C5805 C5804 1.374 . S
C5806 C5803 1.499 . S
C5806 C5807 1.373 . S
C5806 C5808 1.389 . S
C5807 H5786 0.950 . S
C5807 C5806 1.373 . S
C5807 C5823 1.377 . S
C5808 C5806 1.389 . S
C5808 C5809 1.524 . S
C5808 C5822 1.377 . S
C5809 C5808 1.524 . S
C5809 C5810 1.397 . S
C5809 C5814 1.363 . S
C5810 H5787 0.950 . S
C5810 C5809 1.397 . S
C5810 C5811 1.334 . S
C5811 H5788 0.950 . S
C5811 C5810 1.334 . S
C5811 C5812 1.287 . S
C5812 C5811 1.287 . S
C5812 C5813 1.524 . S
C5812 H5831 0.913 . S
C5813 H5789 0.950 . S
C5813 C5812 1.524 . S
C5813 C5814 1.415 . S
C5814 H5790 0.950 . S
C5814 C5809 1.363 . S
C5814 C5813 1.415 . S
C5815 H5791 0.951 . S
C5815 C5816 1.366 . S
C5815 C5817 1.388 . S
C5816 C5815 1.366 . S
C5816 C5820 1.385 . S
C5817 H5792 0.951 . S
C5817 C5815 1.388 . S
C5817 C5818 1.366 . S
C5818 C5817 1.366 . S
C5818 C5819 1.414 . S
C5818 C5821 1.499 . S
C5819 H5793 0.950 . S
C5819 C5818 1.414 . S
C5819 C5820 1.374 . S
C5820 H5794 0.950 . S
C5820 C5816 1.385 . S
C5820 C5819 1.374 . S
C5821 C5818 1.499 . S
C5821 C5822 1.373 . S
C5821 C5823 1.389 . S
C5822 H5795 0.950 . S
C5822 C5808 1.377 . S
C5822 C5821 1.373 . S
C5823 C5807 1.377 . S
C5823 C5821 1.389 . S
C5823 C5824 1.524 . S
C5824 C5823 1.524 . S
C5824 C5825 1.397 . S
C5824 C5829 1.363 . S
C5825 H5796 0.950 . S
C5825 C5824 1.397 . S
C5825 C5826 1.334 . S
C5826 H5797 0.950 . S
C5826 C5825 1.334 . S
C5826 C5827 1.287 . S
C5827 C5826 1.287 . S
C5827 C5828 1.524 . S
C5827 H5830 0.999 . S
C5828 H5798 0.950 . S
C5828 C5827 1.524 . S
C5828 C5829 1.415 . S
C5829 H5799 0.950 . S
C5829 C5824 1.363 . S
C5829 C5828 1.415 . S
H5830 C5827 0.999 . S
H5831 C5812 0.913 . S
H5832 C5850 0.951 . S
H5833 C5852 0.951 . S
H5834 C5854 0.950 . S
H5835 C5855 0.950 . S
H5836 C5857 0.950 . S
H5837 C5860 0.950 . S
H5838 C5861 0.950 . S
H5839 C5863 0.950 . S
H5840 C5864 0.950 . S
H5841 C5865 0.951 . S
H5842 C5867 0.951 . S
H5843 C5869 0.950 . S
H5844 C5870 0.950 . S
H5845 C5872 0.950 . S
H5846 C5875 0.950 . S
H5847 C5876 0.950 . S
H5848 C5878 0.950 . S
H5849 C5879 0.950 . S
C5850 H5832 0.951 . S
C5850 C5851 1.366 . S
C5850 C5852 1.388 . S
C5851 C5850 1.366 . S
C5851 C5855 1.385 . S
C5852 H5833 0.951 . S
C5852 C5850 1.388 . S
C5852 C5853 1.366 . S
C5853 C5852 1.366 . S
C5853 C5854 1.414 . S
C5853 C5856 1.499 . S
C5854 H5834 0.950 . S
C5854 C5853 1.414 . S
C5854 C5855 1.374 . S
C5855 H5835 0.950 . S
C5855 C5851 1.385 . S
C5855 C5854 1.374 . S
C5856 C5853 1.499 . S
C5856 C5857 1.373 . S
C5856 C5858 1.389 . S
C5857 H5836 0.950 . S
C5857 C5856 1.373 . S
C5857 C5873 1.377 . S
C5858 C5856 1.389 . S
C5858 C5859 1.524 . S
C5858 C5872 1.377 . S
C5859 C5858 1.524 . S
C5859 C5860 1.397 . S
C5859 C5864 1.363 . S
C5860 H5837 0.950 . S
C5860 C5859 1.397 . S
C5860 C5861 1.334 . S
C5861 H5838 0.950 . S
C5861 C5860 1.334 . S
C5861 C5862 1.287 . S
C5862 C5861 1.287 . S
C5862 C5863 1.524 . S
C5862 H5881 0.913 . S
C5863 H5839 0.950 . S
C5863 C5862 1.524 . S
C5863 C5864 1.415 . S
C5864 H5840 0.950 . S
C5864 C5859 1.363 . S
C5864 C5863 1.415 . S
C5865 H5841 0.951 . S
C5865 C5866 1.366 . S
C5865 C5867 1.388 . S
C5866 C5865 1.366 . S
C5866 C5870 1.385 . S
C5867 H5842 0.951 . S
C5867 C5865 1.388 . S
C5867 C5868 1.366 . S
C5868 C5867 1.366 . S
C5868 C5869 1.414 . S
C5868 C5871 1.499 . S
C5869 H5843 0.950 . S
C5869 C5868 1.414 . S
C5869 C5870 1.374 . S
C5870 H5844 0.950 . S
C5870 C5866 1.385 . S
C5870 C5869 1.374 . S
C5871 C5868 1.499 . S
C5871 C5872 1.373 . S
C5871 C5873 1.389 . S
C5872 H5845 0.950 . S
C5872 C5858 1.377 . S
C5872 C5871 1.373 . S
C5873 C5857 1.377 . S
C5873 C5871 1.389 . S
C5873 C5874 1.524 . S
C5874 C5873 1.524 . S
C5874 C5875 1.397 . S
C5874 C5879 1.363 . S
C5875 H5846 0.950 . S
C5875 C5874 1.397 . S
C5875 C5876 1.334 . S
C5876 H5847 0.950 . S
C5876 C5875 1.334 . S
C5876 C5877 1.287 . S
C5877 C5876 1.287 . S
C5877 C5878 1.524 . S
C5877 H5880 0.999 . S
C5878 H5848 0.950 . S
C5878 C5877 1.524 . S
C5878 C5879 1.415 . S
C5879 H5849 0.950 . S
C5879 C5874 1.363 . S
C5879 C5878 1.415 . S
H5880 C5877 0.999 . S
H5881 C5862 0.913 . S
H5882 C5900 0.951 . S
H5883 C5902 0.951 . S
H5884 C5904 0.950 . S
H5885 C5905 0.950 . S
H5886 C5907 0.950 . S
H5887 C5910 0.950 . S
H5888 C5911 0.950 . S
H5889 C5913 0.950 . S
H5890 C5914 0.950 . S
H5891 C5915 0.951 . S
H5892 C5917 0.951 . S
H5893 C5919 0.950 . S
H5894 C5920 0.950 . S
H5895 C5922 0.950 . S
H5896 C5925 0.950 . S
H5897 C5926 0.950 . S
H5898 C5928 0.950 . S
H5899 C5929 0.950 . S
C5900 H5882 0.951 . S
C5900 C5901 1.366 . S
C5900 C5902 1.388 . S
C5901 C5900 1.366 . S
C5901 C5905 1.385 . S
C5902 H5883 0.951 . S
C5902 C5900 1.388 . S
C5902 C5903 1.366 . S
C5903 C5902 1.366 . S
C5903 C5904 1.414 . S
C5903 C5906 1.499 . S
C5904 H5884 0.950 . S
C5904 C5903 1.414 . S
C5904 C5905 1.374 . S
C5905 H5885 0.950 . S
C5905 C5901 1.385 . S
C5905 C5904 1.374 . S
C5906 C5903 1.499 . S
C5906 C5907 1.373 . S
C5906 C5908 1.389 . S
C5907 H5886 0.950 . S
C5907 C5906 1.373 . S
C5907 C5923 1.377 . S
C5908 C5906 1.389 . S
C5908 C5909 1.524 . S
C5908 C5922 1.377 . S
C5909 C5908 1.524 . S
C5909 C5910 1.397 . S
C5909 C5914 1.363 . S
C5910 H5887 0.950 . S
C5910 C5909 1.397 . S
C5910 C5911 1.334 . S
C5911 H5888 0.950 . S
C5911 C5910 1.334 . S
C5911 C5912 1.287 . S
C5912 C5911 1.287 . S
C5912 C5913 1.524 . S
C5912 H5931 0.913 . S
C5913 H5889 0.950 . S
C5913 C5912 1.524 . S
C5913 C5914 1.415 . S
C5914 H5890 0.950 . S
C5914 C5909 1.363 . S
C5914 C5913 1.415 . S
C5915 H5891 0.951 . S
C5915 C5916 1.366 . S
C5915 C5917 1.388 . S
C5916 C5915 1.366 . S
C5916 C5920 1.385 . S
C5917 H5892 0.951 . S
C5917 C5915 1.388 . S
C5917 C5918 1.366 . S
C5918 C5917 1.366 . S
C5918 C5919 1.414 . S
C5918 C5921 1.499 . S
C5919 H5893 0.950 . S
C5919 C5918 1.414 . S
C5919 C5920 1.374 . S
C5920 H5894 0.950 . S
C5920 C5916 1.385 . S
C5920 C5919 1.374 . S
C5921 C5918 1.499 . S
C5921 C5922 1.373 . S
C5921 C5923 1.389 . S
C5922 H5895 0.950 . S
C5922 C5908 1.377 . S
C5922 C5921 1.373 . S
C5923 C5907 1.377 . S
C5923 C5921 1.389 . S
C5923 C5924 1.524 . S
C5924 C5923 1.524 . S
C5924 C5925 1.397 . S
C5924 C5929 1.363 . S
C5925 H5896 0.950 . S
C5925 C5924 1.397 . S
C5925 C5926 1.334 . S
C5926 H5897 0.950 . S
C5926 C5925 1.334 . S
C5926 C5927 1.287 . S
C5927 C5926 1.287 . S
C5927 C5928 1.524 . S
C5927 H5930 0.999 . S
C5928 H5898 0.950 . S
C5928 C5927 1.524 . S
C5928 C5929 1.415 . S
C5929 H5899 0.950 . S
C5929 C5924 1.363 . S
C5929 C5928 1.415 . S
H5930 C5927 0.999 . S
H5931 C5912 0.913 . S
H5932 C5950 0.951 . S
H5933 C5952 0.951 . S
H5934 C5954 0.950 . S
H5935 C5955 0.950 . S
H5936 C5957 0.950 . S
H5937 C5960 0.950 . S
H5938 C5961 0.950 . S
H5939 C5963 0.950 . S
H5940 C5964 0.950 . S
H5941 C5965 0.951 . S
H5942 C5967 0.951 . S
H5943 C5969 0.950 . S
H5944 C5970 0.950 . S
H5945 C5972 0.950 . S
H5946 C5975 0.950 . S
H5947 C5976 0.950 . S
H5948 C5978 0.950 . S
H5949 C5979 0.950 . S
C5950 H5932 0.951 . S
C5950 C5951 1.366 . S
C5950 C5952 1.388 . S
C5951 C5950 1.366 . S
C5951 C5955 1.385 . S
C5952 H5933 0.951 . S
C5952 C5950 1.388 . S
C5952 C5953 1.366 . S
C5953 C5952 1.366 . S
C5953 C5954 1.414 . S
C5953 C5956 1.499 . S
C5954 H5934 0.950 . S
C5954 C5953 1.414 . S
C5954 C5955 1.374 . S
C5955 H5935 0.950 . S
C5955 C5951 1.385 . S
C5955 C5954 1.374 . S
C5956 C5953 1.499 . S
C5956 C5957 1.373 . S
C5956 C5958 1.389 . S
C5957 H5936 0.950 . S
C5957 C5956 1.373 . S
C5957 C5973 1.377 . S
C5958 C5956 1.389 . S
C5958 C5959 1.524 . S
C5958 C5972 1.377 . S
C5959 C5958 1.524 . S
C5959 C5960 1.397 . S
C5959 C5964 1.363 . S
C5960 H5937 0.950 . S
C5960 C5959 1.397 . S
C5960 C5961 1.334 . S
C5961 H5938 0.950 . S
C5961 C5960 1.334 . S
C5961 C5962 1.287 . S
C5962 C5961 1.287 . S
C5962 C5963 1.524 . S
C5962 H5981 0.913 . S
C5963 H5939 0.950 . S
C5963 C5962 1.524 . S
C5963 C5964 1.415 . S
C5964 H5940 0.950 . S
C5964 C5959 1.363 . S
C5964 C5963 1.415 . S
C5965 H5941 0.951 . S
C5965 C5966 1.366 . S
C5965 C5967 1.388 . S
C5966 C5965 1.366 . S
C5966 C5970 1.385 . S
C5967 H5942 0.951 . S
C5967 C5965 1.388 . S
C5967 C5968 1.366 . S
C5968 C5967 1.366 . S
C5968 C5969 1.414 . S
C5968 C5971 1.499 . S
C5969 H5943 0.950 . S
C5969 C5968 1.414 . S
C5969 C5970 1.374 . S
C5970 H5944 0.950 . S
C5970 C5966 1.385 . S
C5970 C5969 1.374 . S
C5971 C5968 1.499 . S
C5971 C5972 1.373 . S
C5971 C5973 1.389 . S
C5972 H5945 0.950 . S
C5972 C5958 1.377 . S
C5972 C5971 1.373 . S
C5973 C5957 1.377 . S
C5973 C5971 1.389 . S
C5973 C5974 1.524 . S
C5974 C5973 1.524 . S
C5974 C5975 1.397 . S
C5974 C5979 1.363 . S
C5975 H5946 0.950 . S
C5975 C5974 1.397 . S
C5975 C5976 1.334 . S
C5976 H5947 0.950 . S
C5976 C5975 1.334 . S
C5976 C5977 1.287 . S
C5977 C5976 1.287 . S
C5977 C5978 1.524 . S
C5977 H5980 0.999 . S
C5978 H5948 0.950 . S
C5978 C5977 1.524 . S
C5978 C5979 1.415 . S
C5979 H5949 0.950 . S
C5979 C5974 1.363 . S
C5979 C5978 1.415 . S
H5980 C5977 0.999 . S
H5981 C5962 0.913 . S
H5982 C6000 0.951 . S
H5983 C6002 0.951 . S
H5984 C6004 0.950 . S
H5985 C6005 0.950 . S
H5986 C6007 0.950 . S
H5987 C6010 0.950 . S
H5988 C6011 0.950 . S
H5989 C6013 0.950 . S
H5990 C6014 0.950 . S
H5991 C6015 0.951 . S
H5992 C6017 0.951 . S
H5993 C6019 0.950 . S
H5994 C6020 0.950 . S
H5995 C6022 0.950 . S
H5996 C6025 0.950 . S
H5997 C6026 0.950 . S
H5998 C6028 0.950 . S
H5999 C6029 0.950 . S
C6000 H5982 0.951 . S
C6000 C6001 1.366 . S
C6000 C6002 1.388 . S
C6001 C6000 1.366 . S
C6001 C6005 1.385 . S
C6002 H5983 0.951 . S
C6002 C6000 1.388 . S
C6002 C6003 1.366 . S
C6003 C6002 1.366 . S
C6003 C6004 1.414 . S
C6003 C6006 1.499 . S
C6004 H5984 0.950 . S
C6004 C6003 1.414 . S
C6004 C6005 1.374 . S
C6005 H5985 0.950 . S
C6005 C6001 1.385 . S
C6005 C6004 1.374 . S
C6006 C6003 1.499 . S
C6006 C6007 1.373 . S
C6006 C6008 1.389 . S
C6007 H5986 0.950 . S
C6007 C6006 1.373 . S
C6007 C6023 1.377 . S
C6008 C6006 1.389 . S
C6008 C6009 1.524 . S
C6008 C6022 1.377 . S
C6009 C6008 1.524 . S
C6009 C6010 1.397 . S
C6009 C6014 1.363 . S
C6010 H5987 0.950 . S
C6010 C6009 1.397 . S
C6010 C6011 1.334 . S
C6011 H5988 0.950 . S
C6011 C6010 1.334 . S
C6011 C6012 1.287 . S
C6012 C6011 1.287 . S
C6012 C6013 1.524 . S
C6012 H6031 0.913 . S
C6013 H5989 0.950 . S
C6013 C6012 1.524 . S
C6013 C6014 1.415 . S
C6014 H5990 0.950 . S
C6014 C6009 1.363 . S
C6014 C6013 1.415 . S
C6015 H5991 0.951 . S
C6015 C6016 1.366 . S
C6015 C6017 1.388 . S
C6016 C6015 1.366 . S
C6016 C6020 1.385 . S
C6017 H5992 0.951 . S
C6017 C6015 1.388 . S
C6017 C6018 1.366 . S
C6018 C6017 1.366 . S
C6018 C6019 1.414 . S
C6018 C6021 1.499 . S
C6019 H5993 0.950 . S
C6019 C6018 1.414 . S
C6019 C6020 1.374 . S
C6020 H5994 0.950 . S
C6020 C6016 1.385 . S
C6020 C6019 1.374 . S
C6021 C6018 1.499 . S
C6021 C6022 1.373 . S
C6021 C6023 1.389 . S
C6022 H5995 0.950 . S
C6022 C6008 1.377 . S
C6022 C6021 1.373 . S
C6023 C6007 1.377 . S
C6023 C6021 1.389 . S
C6023 C6024 1.524 . S
C6024 C6023 1.524 . S
C6024 C6025 1.397 . S
C6024 C6029 1.363 . S
C6025 H5996 0.950 . S
C6025 C6024 1.397 . S
C6025 C6026 1.334 . S
C6026 H5997 0.950 . S
C6026 C6025 1.334 . S
C6026 C6027 1.287 . S
C6027 C6026 1.287 . S
C6027 C6028 1.524 . S
C6027 H6030 0.999 . S
C6028 H5998 0.950 . S
C6028 C6027 1.524 . S
C6028 C6029 1.415 . S
C6029 H5999 0.950 . S
C6029 C6024 1.363 . S
C6029 C6028 1.415 . S
H6030 C6027 0.999 . S
H6031 C6012 0.913 . S
H6032 C6050 0.951 . S
H6033 C6052 0.951 . S
H6034 C6054 0.950 . S
H6035 C6055 0.950 . S
H6036 C6057 0.950 . S
H6037 C6060 0.950 . S
H6038 C6061 0.950 . S
H6039 C6063 0.950 . S
H6040 C6064 0.950 . S
H6041 C6065 0.951 . S
H6042 C6067 0.951 . S
H6043 C6069 0.950 . S
H6044 C6070 0.950 . S
H6045 C6072 0.950 . S
H6046 C6075 0.950 . S
H6047 C6076 0.950 . S
H6048 C6078 0.950 . S
H6049 C6079 0.950 . S
C6050 H6032 0.951 . S
C6050 C6051 1.366 . S
C6050 C6052 1.388 . S
C6051 C6050 1.366 . S
C6051 C6055 1.385 . S
C6052 H6033 0.951 . S
C6052 C6050 1.388 . S
C6052 C6053 1.366 . S
C6053 C6052 1.366 . S
C6053 C6054 1.414 . S
C6053 C6056 1.499 . S
C6054 H6034 0.950 . S
C6054 C6053 1.414 . S
C6054 C6055 1.374 . S
C6055 H6035 0.950 . S
C6055 C6051 1.385 . S
C6055 C6054 1.374 . S
C6056 C6053 1.499 . S
C6056 C6057 1.373 . S
C6056 C6058 1.389 . S
C6057 H6036 0.950 . S
C6057 C6056 1.373 . S
C6057 C6073 1.377 . S
C6058 C6056 1.389 . S
C6058 C6059 1.524 . S
C6058 C6072 1.377 . S
C6059 C6058 1.524 . S
C6059 C6060 1.397 . S
C6059 C6064 1.363 . S
C6060 H6037 0.950 . S
C6060 C6059 1.397 . S
C6060 C6061 1.334 . S
C6061 H6038 0.950 . S
C6061 C6060 1.334 . S
C6061 C6062 1.287 . S
C6062 C6061 1.287 . S
C6062 C6063 1.524 . S
C6062 H6081 0.913 . S
C6063 H6039 0.950 . S
C6063 C6062 1.524 . S
C6063 C6064 1.415 . S
C6064 H6040 0.950 . S
C6064 C6059 1.363 . S
C6064 C6063 1.415 . S
C6065 H6041 0.951 . S
C6065 C6066 1.366 . S
C6065 C6067 1.388 . S
C6066 C6065 1.366 . S
C6066 C6070 1.385 . S
C6067 H6042 0.951 . S
C6067 C6065 1.388 . S
C6067 C6068 1.366 . S
C6068 C6067 1.366 . S
C6068 C6069 1.414 . S
C6068 C6071 1.499 . S
C6069 H6043 0.950 . S
C6069 C6068 1.414 . S
C6069 C6070 1.374 . S
C6070 H6044 0.950 . S
C6070 C6066 1.385 . S
C6070 C6069 1.374 . S
C6071 C6068 1.499 . S
C6071 C6072 1.373 . S
C6071 C6073 1.389 . S
C6072 H6045 0.950 . S
C6072 C6058 1.377 . S
C6072 C6071 1.373 . S
C6073 C6057 1.377 . S
C6073 C6071 1.389 . S
C6073 C6074 1.524 . S
C6074 C6073 1.524 . S
C6074 C6075 1.397 . S
C6074 C6079 1.363 . S
C6075 H6046 0.950 . S
C6075 C6074 1.397 . S
C6075 C6076 1.334 . S
C6076 H6047 0.950 . S
C6076 C6075 1.334 . S
C6076 C6077 1.287 . S
C6077 C6076 1.287 . S
C6077 C6078 1.524 . S
C6077 H6080 0.999 . S
C6078 H6048 0.950 . S
C6078 C6077 1.524 . S
C6078 C6079 1.415 . S
C6079 H6049 0.950 . S
C6079 C6074 1.363 . S
C6079 C6078 1.415 . S
H6080 C6077 0.999 . S
H6081 C6062 0.913 . S
H6082 C6100 0.951 . S
H6083 C6102 0.951 . S
H6084 C6104 0.950 . S
H6085 C6105 0.950 . S
H6086 C6107 0.950 . S
H6087 C6110 0.950 . S
H6088 C6111 0.950 . S
H6089 C6113 0.950 . S
H6090 C6114 0.950 . S
H6091 C6115 0.951 . S
H6092 C6117 0.951 . S
H6093 C6119 0.950 . S
H6094 C6120 0.950 . S
H6095 C6122 0.950 . S
H6096 C6125 0.950 . S
H6097 C6126 0.950 . S
H6098 C6128 0.950 . S
H6099 C6129 0.950 . S
C6100 H6082 0.951 . S
C6100 C6101 1.366 . S
C6100 C6102 1.388 . S
C6101 C6100 1.366 . S
C6101 C6105 1.385 . S
C6102 H6083 0.951 . S
C6102 C6100 1.388 . S
C6102 C6103 1.366 . S
C6103 C6102 1.366 . S
C6103 C6104 1.414 . S
C6103 C6106 1.499 . S
C6104 H6084 0.950 . S
C6104 C6103 1.414 . S
C6104 C6105 1.374 . S
C6105 H6085 0.950 . S
C6105 C6101 1.385 . S
C6105 C6104 1.374 . S
C6106 C6103 1.499 . S
C6106 C6107 1.373 . S
C6106 C6108 1.389 . S
C6107 H6086 0.950 . S
C6107 C6106 1.373 . S
C6107 C6123 1.377 . S
C6108 C6106 1.389 . S
C6108 C6109 1.524 . S
C6108 C6122 1.377 . S
C6109 C6108 1.524 . S
C6109 C6110 1.397 . S
C6109 C6114 1.363 . S
C6110 H6087 0.950 . S
C6110 C6109 1.397 . S
C6110 C6111 1.334 . S
C6111 H6088 0.950 . S
C6111 C6110 1.334 . S
C6111 C6112 1.287 . S
C6112 C6111 1.287 . S
C6112 C6113 1.524 . S
C6112 H6131 0.913 . S
C6113 H6089 0.950 . S
C6113 C6112 1.524 . S
C6113 C6114 1.415 . S
C6114 H6090 0.950 . S
C6114 C6109 1.363 . S
C6114 C6113 1.415 . S
C6115 H6091 0.951 . S
C6115 C6116 1.366 . S
C6115 C6117 1.388 . S
C6116 C6115 1.366 . S
C6116 C6120 1.385 . S
C6117 H6092 0.951 . S
C6117 C6115 1.388 . S
C6117 C6118 1.366 . S
C6118 C6117 1.366 . S
C6118 C6119 1.414 . S
C6118 C6121 1.499 . S
C6119 H6093 0.950 . S
C6119 C6118 1.414 . S
C6119 C6120 1.374 . S
C6120 H6094 0.950 . S
C6120 C6116 1.385 . S
C6120 C6119 1.374 . S
C6121 C6118 1.499 . S
C6121 C6122 1.373 . S
C6121 C6123 1.389 . S
C6122 H6095 0.950 . S
C6122 C6108 1.377 . S
C6122 C6121 1.373 . S
C6123 C6107 1.377 . S
C6123 C6121 1.389 . S
C6123 C6124 1.524 . S
C6124 C6123 1.524 . S
C6124 C6125 1.397 . S
C6124 C6129 1.363 . S
C6125 H6096 0.950 . S
C6125 C6124 1.397 . S
C6125 C6126 1.334 . S
C6126 H6097 0.950 . S
C6126 C6125 1.334 . S
C6126 C6127 1.287 . S
C6127 C6126 1.287 . S
C6127 C6128 1.524 . S
C6127 H6130 0.999 . S
C6128 H6098 0.950 . S
C6128 C6127 1.524 . S
C6128 C6129 1.415 . S
C6129 H6099 0.950 . S
C6129 C6124 1.363 . S
C6129 C6128 1.415 . S
H6130 C6127 0.999 . S
H6131 C6112 0.913 . S
H6132 C6150 0.951 . S
H6133 C6152 0.951 . S
H6134 C6154 0.950 . S
H6135 C6155 0.950 . S
H6136 C6157 0.950 . S
H6137 C6160 0.950 . S
H6138 C6161 0.950 . S
H6139 C6163 0.950 . S
H6140 C6164 0.950 . S
H6141 C6165 0.951 . S
H6142 C6167 0.951 . S
H6143 C6169 0.950 . S
H6144 C6170 0.950 . S
H6145 C6172 0.950 . S
H6146 C6175 0.950 . S
H6147 C6176 0.950 . S
H6148 C6178 0.950 . S
H6149 C6179 0.950 . S
C6150 H6132 0.951 . S
C6150 C6151 1.366 . S
C6150 C6152 1.388 . S
C6151 C6150 1.366 . S
C6151 C6155 1.385 . S
C6152 H6133 0.951 . S
C6152 C6150 1.388 . S
C6152 C6153 1.366 . S
C6153 C6152 1.366 . S
C6153 C6154 1.414 . S
C6153 C6156 1.499 . S
C6154 H6134 0.950 . S
C6154 C6153 1.414 . S
C6154 C6155 1.374 . S
C6155 H6135 0.950 . S
C6155 C6151 1.385 . S
C6155 C6154 1.374 . S
C6156 C6153 1.499 . S
C6156 C6157 1.373 . S
C6156 C6158 1.389 . S
C6157 H6136 0.950 . S
C6157 C6156 1.373 . S
C6157 C6173 1.377 . S
C6158 C6156 1.389 . S
C6158 C6159 1.524 . S
C6158 C6172 1.377 . S
C6159 C6158 1.524 . S
C6159 C6160 1.397 . S
C6159 C6164 1.363 . S
C6160 H6137 0.950 . S
C6160 C6159 1.397 . S
C6160 C6161 1.334 . S
C6161 H6138 0.950 . S
C6161 C6160 1.334 . S
C6161 C6162 1.287 . S
C6162 C6161 1.287 . S
C6162 C6163 1.524 . S
C6162 H6181 0.913 . S
C6163 H6139 0.950 . S
C6163 C6162 1.524 . S
C6163 C6164 1.415 . S
C6164 H6140 0.950 . S
C6164 C6159 1.363 . S
C6164 C6163 1.415 . S
C6165 H6141 0.951 . S
C6165 C6166 1.366 . S
C6165 C6167 1.388 . S
C6166 C6165 1.366 . S
C6166 C6170 1.385 . S
C6167 H6142 0.951 . S
C6167 C6165 1.388 . S
C6167 C6168 1.366 . S
C6168 C6167 1.366 . S
C6168 C6169 1.414 . S
C6168 C6171 1.499 . S
C6169 H6143 0.950 . S
C6169 C6168 1.414 . S
C6169 C6170 1.374 . S
C6170 H6144 0.950 . S
C6170 C6166 1.385 . S
C6170 C6169 1.374 . S
C6171 C6168 1.499 . S
C6171 C6172 1.373 . S
C6171 C6173 1.389 . S
C6172 H6145 0.950 . S
C6172 C6158 1.377 . S
C6172 C6171 1.373 . S
C6173 C6157 1.377 . S
C6173 C6171 1.389 . S
C6173 C6174 1.524 . S
C6174 C6173 1.524 . S
C6174 C6175 1.397 . S
C6174 C6179 1.363 . S
C6175 H6146 0.950 . S
C6175 C6174 1.397 . S
C6175 C6176 1.334 . S
C6176 H6147 0.950 . S
C6176 C6175 1.334 . S
C6176 C6177 1.287 . S
C6177 C6176 1.287 . S
C6177 C6178 1.524 . S
C6177 H6180 0.999 . S
C6178 H6148 0.950 . S
C6178 C6177 1.524 . S
C6178 C6179 1.415 . S
C6179 H6149 0.950 . S
C6179 C6174 1.363 . S
C6179 C6178 1.415 . S
H6180 C6177 0.999 . S
H6181 C6162 0.913 . S
H6182 C6200 0.951 . S
H6183 C6202 0.951 . S
H6184 C6204 0.950 . S
H6185 C6205 0.950 . S
H6186 C6207 0.950 . S
H6187 C6210 0.950 . S
H6188 C6211 0.950 . S
H6189 C6213 0.950 . S
H6190 C6214 0.950 . S
H6191 C6215 0.951 . S
H6192 C6217 0.951 . S
H6193 C6219 0.950 . S
H6194 C6220 0.950 . S
H6195 C6222 0.950 . S
H6196 C6225 0.950 . S
H6197 C6226 0.950 . S
H6198 C6228 0.950 . S
H6199 C6229 0.950 . S
C6200 H6182 0.951 . S
C6200 C6201 1.366 . S
C6200 C6202 1.388 . S
C6201 C6200 1.366 . S
C6201 C6205 1.385 . S
C6202 H6183 0.951 . S
C6202 C6200 1.388 . S
C6202 C6203 1.366 . S
C6203 C6202 1.366 . S
C6203 C6204 1.414 . S
C6203 C6206 1.499 . S
C6204 H6184 0.950 . S
C6204 C6203 1.414 . S
C6204 C6205 1.374 . S
C6205 H6185 0.950 . S
C6205 C6201 1.385 . S
C6205 C6204 1.374 . S
C6206 C6203 1.499 . S
C6206 C6207 1.373 . S
C6206 C6208 1.389 . S
C6207 H6186 0.950 . S
C6207 C6206 1.373 . S
C6207 C6223 1.377 . S
C6208 C6206 1.389 . S
C6208 C6209 1.524 . S
C6208 C6222 1.377 . S
C6209 C6208 1.524 . S
C6209 C6210 1.397 . S
C6209 C6214 1.363 . S
C6210 H6187 0.950 . S
C6210 C6209 1.397 . S
C6210 C6211 1.334 . S
C6211 H6188 0.950 . S
C6211 C6210 1.334 . S
C6211 C6212 1.287 . S
C6212 C6211 1.287 . S
C6212 C6213 1.524 . S
C6212 H6231 0.913 . S
C6213 H6189 0.950 . S
C6213 C6212 1.524 . S
C6213 C6214 1.415 . S
C6214 H6190 0.950 . S
C6214 C6209 1.363 . S
C6214 C6213 1.415 . S
C6215 H6191 0.951 . S
C6215 C6216 1.366 . S
C6215 C6217 1.388 . S
C6216 C6215 1.366 . S
C6216 C6220 1.385 . S
C6217 H6192 0.951 . S
C6217 C6215 1.388 . S
C6217 C6218 1.366 . S
C6218 C6217 1.366 . S
C6218 C6219 1.414 . S
C6218 C6221 1.499 . S
C6219 H6193 0.950 . S
C6219 C6218 1.414 . S
C6219 C6220 1.374 . S
C6220 H6194 0.950 . S
C6220 C6216 1.385 . S
C6220 C6219 1.374 . S
C6221 C6218 1.499 . S
C6221 C6222 1.373 . S
C6221 C6223 1.389 . S
C6222 H6195 0.950 . S
C6222 C6208 1.377 . S
C6222 C6221 1.373 . S
C6223 C6207 1.377 . S
C6223 C6221 1.389 . S
C6223 C6224 1.524 . S
C6224 C6223 1.524 . S
C6224 C6225 1.397 . S
C6224 C6229 1.363 . S
C6225 H6196 0.950 . S
C6225 C6224 1.397 . S
C6225 C6226 1.334 . S
C6226 H6197 0.950 . S
C6226 C6225 1.334 . S
C6226 C6227 1.287 . S
C6227 C6226 1.287 . S
C6227 C6228 1.524 . S
C6227 H6230 0.999 . S
C6228 H6198 0.950 . S
C6228 C6227 1.524 . S
C6228 C6229 1.415 . S
C6229 H6199 0.950 . S
C6229 C6224 1.363 . S
C6229 C6228 1.415 . S
H6230 C6227 0.999 . S
H6231 C6212 0.913 . S
H6232 C6250 0.951 . S
H6233 C6252 0.951 . S
H6234 C6254 0.950 . S
H6235 C6255 0.950 . S
H6236 C6257 0.950 . S
H6237 C6260 0.950 . S
H6238 C6261 0.950 . S
H6239 C6263 0.950 . S
H6240 C6264 0.950 . S
H6241 C6265 0.951 . S
H6242 C6267 0.951 . S
H6243 C6269 0.950 . S
H6244 C6270 0.950 . S
H6245 C6272 0.950 . S
H6246 C6275 0.950 . S
H6247 C6276 0.950 . S
H6248 C6278 0.950 . S
H6249 C6279 0.950 . S
C6250 H6232 0.951 . S
C6250 C6251 1.366 . S
C6250 C6252 1.388 . S
C6251 C6250 1.366 . S
C6251 C6255 1.385 . S
C6252 H6233 0.951 . S
C6252 C6250 1.388 . S
C6252 C6253 1.366 . S
C6253 C6252 1.366 . S
C6253 C6254 1.414 . S
C6253 C6256 1.499 . S
C6254 H6234 0.950 . S
C6254 C6253 1.414 . S
C6254 C6255 1.374 . S
C6255 H6235 0.950 . S
C6255 C6251 1.385 . S
C6255 C6254 1.374 . S
C6256 C6253 1.499 . S
C6256 C6257 1.373 . S
C6256 C6258 1.389 . S
C6257 H6236 0.950 . S
C6257 C6256 1.373 . S
C6257 C6273 1.377 . S
C6258 C6256 1.389 . S
C6258 C6259 1.524 . S
C6258 C6272 1.377 . S
C6259 C6258 1.524 . S
C6259 C6260 1.397 . S
C6259 C6264 1.363 . S
C6260 H6237 0.950 . S
C6260 C6259 1.397 . S
C6260 C6261 1.334 . S
C6261 H6238 0.950 . S
C6261 C6260 1.334 . S
C6261 C6262 1.287 . S
C6262 C6261 1.287 . S
C6262 C6263 1.524 . S
C6262 H6281 0.913 . S
C6263 H6239 0.950 . S
C6263 C6262 1.524 . S
C6263 C6264 1.415 . S
C6264 H6240 0.950 . S
C6264 C6259 1.363 . S
C6264 C6263 1.415 . S
C6265 H6241 0.951 . S
C6265 C6266 1.366 . S
C6265 C6267 1.388 . S
C6266 C6265 1.366 . S
C6266 C6270 1.385 . S
C6267 H6242 0.951 . S
C6267 C6265 1.388 . S
C6267 C6268 1.366 . S
C6268 C6267 1.366 . S
C6268 C6269 1.414 . S
C6268 C6271 1.499 . S
C6269 H6243 0.950 . S
C6269 C6268 1.414 . S
C6269 C6270 1.374 . S
C6270 H6244 0.950 . S
C6270 C6266 1.385 . S
C6270 C6269 1.374 . S
C6271 C6268 1.499 . S
C6271 C6272 1.373 . S
C6271 C6273 1.389 . S
C6272 H6245 0.950 . S
C6272 C6258 1.377 . S
C6272 C6271 1.373 . S
C6273 C6257 1.377 . S
C6273 C6271 1.389 . S
C6273 C6274 1.524 . S
C6274 C6273 1.524 . S
C6274 C6275 1.397 . S
C6274 C6279 1.363 . S
C6275 H6246 0.950 . S
C6275 C6274 1.397 . S
C6275 C6276 1.334 . S
C6276 H6247 0.950 . S
C6276 C6275 1.334 . S
C6276 C6277 1.287 . S
C6277 C6276 1.287 . S
C6277 C6278 1.524 . S
C6277 H6280 0.999 . S
C6278 H6248 0.950 . S
C6278 C6277 1.524 . S
C6278 C6279 1.415 . S
C6279 H6249 0.950 . S
C6279 C6274 1.363 . S
C6279 C6278 1.415 . S
H6280 C6277 0.999 . S
H6281 C6262 0.913 . S
H6282 C6300 0.951 . S
H6283 C6302 0.951 . S
H6284 C6304 0.950 . S
H6285 C6305 0.950 . S
H6286 C6307 0.950 . S
H6287 C6310 0.950 . S
H6288 C6311 0.950 . S
H6289 C6313 0.950 . S
H6290 C6314 0.950 . S
H6291 C6315 0.951 . S
H6292 C6317 0.951 . S
H6293 C6319 0.950 . S
H6294 C6320 0.950 . S
H6295 C6322 0.950 . S
H6296 C6325 0.950 . S
H6297 C6326 0.950 . S
H6298 C6328 0.950 . S
H6299 C6329 0.950 . S
C6300 H6282 0.951 . S
C6300 C6301 1.366 . S
C6300 C6302 1.388 . S
C6301 C6300 1.366 . S
C6301 C6305 1.385 . S
C6302 H6283 0.951 . S
C6302 C6300 1.388 . S
C6302 C6303 1.366 . S
C6303 C6302 1.366 . S
C6303 C6304 1.414 . S
C6303 C6306 1.499 . S
C6304 H6284 0.950 . S
C6304 C6303 1.414 . S
C6304 C6305 1.374 . S
C6305 H6285 0.950 . S
C6305 C6301 1.385 . S
C6305 C6304 1.374 . S
C6306 C6303 1.499 . S
C6306 C6307 1.373 . S
C6306 C6308 1.389 . S
C6307 H6286 0.950 . S
C6307 C6306 1.373 . S
C6307 C6323 1.377 . S
C6308 C6306 1.389 . S
C6308 C6309 1.524 . S
C6308 C6322 1.377 . S
C6309 C6308 1.524 . S
C6309 C6310 1.397 . S
C6309 C6314 1.363 . S
C6310 H6287 0.950 . S
C6310 C6309 1.397 . S
C6310 C6311 1.334 . S
C6311 H6288 0.950 . S
C6311 C6310 1.334 . S
C6311 C6312 1.287 . S
C6312 C6311 1.287 . S
C6312 C6313 1.524 . S
C6312 H6331 0.913 . S
C6313 H6289 0.950 . S
C6313 C6312 1.524 . S
C6313 C6314 1.415 . S
C6314 H6290 0.950 . S
C6314 C6309 1.363 . S
C6314 C6313 1.415 . S
C6315 H6291 0.951 . S
C6315 C6316 1.366 . S
C6315 C6317 1.388 . S
C6316 C6315 1.366 . S
C6316 C6320 1.385 . S
C6317 H6292 0.951 . S
C6317 C6315 1.388 . S
C6317 C6318 1.366 . S
C6318 C6317 1.366 . S
C6318 C6319 1.414 . S
C6318 C6321 1.499 . S
C6319 H6293 0.950 . S
C6319 C6318 1.414 . S
C6319 C6320 1.374 . S
C6320 H6294 0.950 . S
C6320 C6316 1.385 . S
C6320 C6319 1.374 . S
C6321 C6318 1.499 . S
C6321 C6322 1.373 . S
C6321 C6323 1.389 . S
C6322 H6295 0.950 . S
C6322 C6308 1.377 . S
C6322 C6321 1.373 . S
C6323 C6307 1.377 . S
C6323 C6321 1.389 . S
C6323 C6324 1.524 . S
C6324 C6323 1.524 . S
C6324 C6325 1.397 . S
C6324 C6329 1.363 . S
C6325 H6296 0.950 . S
C6325 C6324 1.397 . S
C6325 C6326 1.334 . S
C6326 H6297 0.950 . S
C6326 C6325 1.334 . S
C6326 C6327 1.287 . S
C6327 C6326 1.287 . S
C6327 C6328 1.524 . S
C6327 H6330 0.999 . S
C6328 H6298 0.950 . S
C6328 C6327 1.524 . S
C6328 C6329 1.415 . S
C6329 H6299 0.950 . S
C6329 C6324 1.363 . S
C6329 C6328 1.415 . S
H6330 C6327 0.999 . S
H6331 C6312 0.913 . S
H6332 C6350 0.951 . S
H6333 C6352 0.951 . S
H6334 C6354 0.950 . S
H6335 C6355 0.950 . S
H6336 C6357 0.950 . S
H6337 C6360 0.950 . S
H6338 C6361 0.950 . S
H6339 C6363 0.950 . S
H6340 C6364 0.950 . S
H6341 C6365 0.951 . S
H6342 C6367 0.951 . S
H6343 C6369 0.950 . S
H6344 C6370 0.950 . S
H6345 C6372 0.950 . S
H6346 C6375 0.950 . S
H6347 C6376 0.950 . S
H6348 C6378 0.950 . S
H6349 C6379 0.950 . S
C6350 H6332 0.951 . S
C6350 C6351 1.366 . S
C6350 C6352 1.388 . S
C6351 C6350 1.366 . S
C6351 C6355 1.385 . S
C6352 H6333 0.951 . S
C6352 C6350 1.388 . S
C6352 C6353 1.366 . S
C6353 C6352 1.366 . S
C6353 C6354 1.414 . S
C6353 C6356 1.499 . S
C6354 H6334 0.950 . S
C6354 C6353 1.414 . S
C6354 C6355 1.374 . S
C6355 H6335 0.950 . S
C6355 C6351 1.385 . S
C6355 C6354 1.374 . S
C6356 C6353 1.499 . S
C6356 C6357 1.373 . S
C6356 C6358 1.389 . S
C6357 H6336 0.950 . S
C6357 C6356 1.373 . S
C6357 C6373 1.377 . S
C6358 C6356 1.389 . S
C6358 C6359 1.524 . S
C6358 C6372 1.377 . S
C6359 C6358 1.524 . S
C6359 C6360 1.397 . S
C6359 C6364 1.363 . S
C6360 H6337 0.950 . S
C6360 C6359 1.397 . S
C6360 C6361 1.334 . S
C6361 H6338 0.950 . S
C6361 C6360 1.334 . S
C6361 C6362 1.287 . S
C6362 C6361 1.287 . S
C6362 C6363 1.524 . S
C6362 H6381 0.913 . S
C6363 H6339 0.950 . S
C6363 C6362 1.524 . S
C6363 C6364 1.415 . S
C6364 H6340 0.950 . S
C6364 C6359 1.363 . S
C6364 C6363 1.415 . S
C6365 H6341 0.951 . S
C6365 C6366 1.366 . S
C6365 C6367 1.388 . S
C6366 C6365 1.366 . S
C6366 C6370 1.385 . S
C6367 H6342 0.951 . S
C6367 C6365 1.388 . S
C6367 C6368 1.366 . S
C6368 C6367 1.366 . S
C6368 C6369 1.414 . S
C6368 C6371 1.499 . S
C6369 H6343 0.950 . S
C6369 C6368 1.414 . S
C6369 C6370 1.374 . S
C6370 H6344 0.950 . S
C6370 C6366 1.385 . S
C6370 C6369 1.374 . S
C6371 C6368 1.499 . S
C6371 C6372 1.373 . S
C6371 C6373 1.389 . S
C6372 H6345 0.950 . S
C6372 C6358 1.377 . S
C6372 C6371 1.373 . S
C6373 C6357 1.377 . S
C6373 C6371 1.389 . S
C6373 C6374 1.524 . S
C6374 C6373 1.524 . S
C6374 C6375 1.397 . S
C6374 C6379 1.363 . S
C6375 H6346 0.950 . S
C6375 C6374 1.397 . S
C6375 C6376 1.334 . S
C6376 H6347 0.950 . S
C6376 C6375 1.334 . S
C6376 C6377 1.287 . S
C6377 C6376 1.287 . S
C6377 C6378 1.524 . S
C6377 H6380 0.999 . S
C6378 H6348 0.950 . S
C6378 C6377 1.524 . S
C6378 C6379 1.415 . S
C6379 H6349 0.950 . S
C6379 C6374 1.363 . S
C6379 C6378 1.415 . S
H6380 C6377 0.999 . S
H6381 C6362 0.913 . S
H6382 C6400 0.951 . S
H6383 C6402 0.951 . S
H6384 C6404 0.950 . S
H6385 C6405 0.950 . S
H6386 C6407 0.950 . S
H6387 C6410 0.950 . S
H6388 C6411 0.950 . S
H6389 C6413 0.950 . S
H6390 C6414 0.950 . S
H6391 C6415 0.951 . S
H6392 C6417 0.951 . S
H6393 C6419 0.950 . S
H6394 C6420 0.950 . S
H6395 C6422 0.950 . S
H6396 C6425 0.950 . S
H6397 C6426 0.950 . S
H6398 C6428 0.950 . S
H6399 C6429 0.950 . S
C6400 H6382 0.951 . S
C6400 C6401 1.366 . S
C6400 C6402 1.388 . S
C6401 C6400 1.366 . S
C6401 C6405 1.385 . S
C6402 H6383 0.951 . S
C6402 C6400 1.388 . S
C6402 C6403 1.366 . S
C6403 C6402 1.366 . S
C6403 C6404 1.414 . S
C6403 C6406 1.499 . S
C6404 H6384 0.950 . S
C6404 C6403 1.414 . S
C6404 C6405 1.374 . S
C6405 H6385 0.950 . S
C6405 C6401 1.385 . S
C6405 C6404 1.374 . S
C6406 C6403 1.499 . S
C6406 C6407 1.373 . S
C6406 C6408 1.389 . S
C6407 H6386 0.950 . S
C6407 C6406 1.373 . S
C6407 C6423 1.377 . S
C6408 C6406 1.389 . S
C6408 C6409 1.524 . S
C6408 C6422 1.377 . S
C6409 C6408 1.524 . S
C6409 C6410 1.397 . S
C6409 C6414 1.363 . S
C6410 H6387 0.950 . S
C6410 C6409 1.397 . S
C6410 C6411 1.334 . S
C6411 H6388 0.950 . S
C6411 C6410 1.334 . S
C6411 C6412 1.287 . S
C6412 C6411 1.287 . S
C6412 C6413 1.524 . S
C6412 H6431 0.913 . S
C6413 H6389 0.950 . S
C6413 C6412 1.524 . S
C6413 C6414 1.415 . S
C6414 H6390 0.950 . S
C6414 C6409 1.363 . S
C6414 C6413 1.415 . S
C6415 H6391 0.951 . S
C6415 C6416 1.366 . S
C6415 C6417 1.388 . S
C6416 C6415 1.366 . S
C6416 C6420 1.385 . S
C6417 H6392 0.951 . S
C6417 C6415 1.388 . S
C6417 C6418 1.366 . S
C6418 C6417 1.366 . S
C6418 C6419 1.414 . S
C6418 C6421 1.499 . S
C6419 H6393 0.950 . S
C6419 C6418 1.414 . S
C6419 C6420 1.374 . S
C6420 H6394 0.950 . S
C6420 C6416 1.385 . S
C6420 C6419 1.374 . S
C6421 C6418 1.499 . S
C6421 C6422 1.373 . S
C6421 C6423 1.389 . S
C6422 H6395 0.950 . S
C6422 C6408 1.377 . S
C6422 C6421 1.373 . S
C6423 C6407 1.377 . S
C6423 C6421 1.389 . S
C6423 C6424 1.524 . S
C6424 C6423 1.524 . S
C6424 C6425 1.397 . S
C6424 C6429 1.363 . S
C6425 H6396 0.950 . S
C6425 C6424 1.397 . S
C6425 C6426 1.334 . S
C6426 H6397 0.950 . S
C6426 C6425 1.334 . S
C6426 C6427 1.287 . S
C6427 C6426 1.287 . S
C6427 C6428 1.524 . S
C6427 H6430 0.999 . S
C6428 H6398 0.950 . S
C6428 C6427 1.524 . S
C6428 C6429 1.415 . S
C6429 H6399 0.950 . S
C6429 C6424 1.363 . S
C6429 C6428 1.415 . S
H6430 C6427 0.999 . S
H6431 C6412 0.913 . S
H6432 C6450 0.951 . S
H6433 C6452 0.951 . S
H6434 C6454 0.950 . S
H6435 C6455 0.950 . S
H6436 C6457 0.950 . S
H6437 C6460 0.950 . S
H6438 C6461 0.950 . S
H6439 C6463 0.950 . S
H6440 C6464 0.950 . S
H6441 C6465 0.951 . S
H6442 C6467 0.951 . S
H6443 C6469 0.950 . S
H6444 C6470 0.950 . S
H6445 C6472 0.950 . S
H6446 C6475 0.950 . S
H6447 C6476 0.950 . S
H6448 C6478 0.950 . S
H6449 C6479 0.950 . S
C6450 H6432 0.951 . S
C6450 C6451 1.366 . S
C6450 C6452 1.388 . S
C6451 C6450 1.366 . S
C6451 C6455 1.385 . S
C6452 H6433 0.951 . S
C6452 C6450 1.388 . S
C6452 C6453 1.366 . S
C6453 C6452 1.366 . S
C6453 C6454 1.414 . S
C6453 C6456 1.499 . S
C6454 H6434 0.950 . S
C6454 C6453 1.414 . S
C6454 C6455 1.374 . S
C6455 H6435 0.950 . S
C6455 C6451 1.385 . S
C6455 C6454 1.374 . S
C6456 C6453 1.499 . S
C6456 C6457 1.373 . S
C6456 C6458 1.389 . S
C6457 H6436 0.950 . S
C6457 C6456 1.373 . S
C6457 C6473 1.377 . S
C6458 C6456 1.389 . S
C6458 C6459 1.524 . S
C6458 C6472 1.377 . S
C6459 C6458 1.524 . S
C6459 C6460 1.397 . S
C6459 C6464 1.363 . S
C6460 H6437 0.950 . S
C6460 C6459 1.397 . S
C6460 C6461 1.334 . S
C6461 H6438 0.950 . S
C6461 C6460 1.334 . S
C6461 C6462 1.287 . S
C6462 C6461 1.287 . S
C6462 C6463 1.524 . S
C6462 H6481 0.913 . S
C6463 H6439 0.950 . S
C6463 C6462 1.524 . S
C6463 C6464 1.415 . S
C6464 H6440 0.950 . S
C6464 C6459 1.363 . S
C6464 C6463 1.415 . S
C6465 H6441 0.951 . S
C6465 C6466 1.366 . S
C6465 C6467 1.388 . S
C6466 C6465 1.366 . S
C6466 C6470 1.385 . S
C6467 H6442 0.951 . S
C6467 C6465 1.388 . S
C6467 C6468 1.366 . S
C6468 C6467 1.366 . S
C6468 C6469 1.414 . S
C6468 C6471 1.499 . S
C6469 H6443 0.950 . S
C6469 C6468 1.414 . S
C6469 C6470 1.374 . S
C6470 H6444 0.950 . S
C6470 C6466 1.385 . S
C6470 C6469 1.374 . S
C6471 C6468 1.499 . S
C6471 C6472 1.373 . S
C6471 C6473 1.389 . S
C6472 H6445 0.950 . S
C6472 C6458 1.377 . S
C6472 C6471 1.373 . S
C6473 C6457 1.377 . S
C6473 C6471 1.389 . S
C6473 C6474 1.524 . S
C6474 C6473 1.524 . S
C6474 C6475 1.397 . S
C6474 C6479 1.363 . S
C6475 H6446 0.950 . S
C6475 C6474 1.397 . S
C6475 C6476 1.334 . S
C6476 H6447 0.950 . S
C6476 C6475 1.334 . S
C6476 C6477 1.287 . S
C6477 C6476 1.287 . S
C6477 C6478 1.524 . S
C6477 H6480 0.999 . S
C6478 H6448 0.950 . S
C6478 C6477 1.524 . S
C6478 C6479 1.415 . S
C6479 H6449 0.950 . S
C6479 C6474 1.363 . S
C6479 C6478 1.415 . S
H6480 C6477 0.999 . S
H6481 C6462 0.913 . S
H6482 C6500 0.951 . S
H6483 C6502 0.951 . S
H6484 C6504 0.950 . S
H6485 C6505 0.950 . S
H6486 C6507 0.950 . S
H6487 C6510 0.950 . S
H6488 C6511 0.950 . S
H6489 C6513 0.950 . S
H6490 C6514 0.950 . S
H6491 C6515 0.951 . S
H6492 C6517 0.951 . S
H6493 C6519 0.950 . S
H6494 C6520 0.950 . S
H6495 C6522 0.950 . S
H6496 C6525 0.950 . S
H6497 C6526 0.950 . S
H6498 C6528 0.950 . S
H6499 C6529 0.950 . S
C6500 H6482 0.951 . S
C6500 C6501 1.366 . S
C6500 C6502 1.388 . S
C6501 C6500 1.366 . S
C6501 C6505 1.385 . S
C6502 H6483 0.951 . S
C6502 C6500 1.388 . S
C6502 C6503 1.366 . S
C6503 C6502 1.366 . S
C6503 C6504 1.414 . S
C6503 C6506 1.499 . S
C6504 H6484 0.950 . S
C6504 C6503 1.414 . S
C6504 C6505 1.374 . S
C6505 H6485 0.950 . S
C6505 C6501 1.385 . S
C6505 C6504 1.374 . S
C6506 C6503 1.499 . S
C6506 C6507 1.373 . S
C6506 C6508 1.389 . S
C6507 H6486 0.950 . S
C6507 C6506 1.373 . S
C6507 C6523 1.377 . S
C6508 C6506 1.389 . S
C6508 C6509 1.524 . S
C6508 C6522 1.377 . S
C6509 C6508 1.524 . S
C6509 C6510 1.397 . S
C6509 C6514 1.363 . S
C6510 H6487 0.950 . S
C6510 C6509 1.397 . S
C6510 C6511 1.334 . S
C6511 H6488 0.950 . S
C6511 C6510 1.334 . S
C6511 C6512 1.287 . S
C6512 C6511 1.287 . S
C6512 C6513 1.524 . S
C6512 H6531 0.913 . S
C6513 H6489 0.950 . S
C6513 C6512 1.524 . S
C6513 C6514 1.415 . S
C6514 H6490 0.950 . S
C6514 C6509 1.363 . S
C6514 C6513 1.415 . S
C6515 H6491 0.951 . S
C6515 C6516 1.366 . S
C6515 C6517 1.388 . S
C6516 C6515 1.366 . S
C6516 C6520 1.385 . S
C6517 H6492 0.951 . S
C6517 C6515 1.388 . S
C6517 C6518 1.366 . S
C6518 C6517 1.366 . S
C6518 C6519 1.414 . S
C6518 C6521 1.499 . S
C6519 H6493 0.950 . S
C6519 C6518 1.414 . S
C6519 C6520 1.374 . S
C6520 H6494 0.950 . S
C6520 C6516 1.385 . S
C6520 C6519 1.374 . S
C6521 C6518 1.499 . S
C6521 C6522 1.373 . S
C6521 C6523 1.389 . S
C6522 H6495 0.950 . S
C6522 C6508 1.377 . S
C6522 C6521 1.373 . S
C6523 C6507 1.377 . S
C6523 C6521 1.389 . S
C6523 C6524 1.524 . S
C6524 C6523 1.524 . S
C6524 C6525 1.397 . S
C6524 C6529 1.363 . S
C6525 H6496 0.950 . S
C6525 C6524 1.397 . S
C6525 C6526 1.334 . S
C6526 H6497 0.950 . S
C6526 C6525 1.334 . S
C6526 C6527 1.287 . S
C6527 C6526 1.287 . S
C6527 C6528 1.524 . S
C6527 H6530 0.999 . S
C6528 H6498 0.950 . S
C6528 C6527 1.524 . S
C6528 C6529 1.415 . S
C6529 H6499 0.950 . S
C6529 C6524 1.363 . S
C6529 C6528 1.415 . S
H6530 C6527 0.999 . S
H6531 C6512 0.913 . S
H6532 C6550 0.951 . S
H6533 C6552 0.951 . S
H6534 C6554 0.950 . S
H6535 C6555 0.950 . S
H6536 C6557 0.950 . S
H6537 C6560 0.950 . S
H6538 C6561 0.950 . S
H6539 C6563 0.950 . S
H6540 C6564 0.950 . S
H6541 C6565 0.951 . S
H6542 C6567 0.951 . S
H6543 C6569 0.950 . S
H6544 C6570 0.950 . S
H6545 C6572 0.950 . S
H6546 C6575 0.950 . S
H6547 C6576 0.950 . S
H6548 C6578 0.950 . S
H6549 C6579 0.950 . S
C6550 H6532 0.951 . S
C6550 C6551 1.366 . S
C6550 C6552 1.388 . S
C6551 C6550 1.366 . S
C6551 C6555 1.385 . S
C6552 H6533 0.951 . S
C6552 C6550 1.388 . S
C6552 C6553 1.366 . S
C6553 C6552 1.366 . S
C6553 C6554 1.414 . S
C6553 C6556 1.499 . S
C6554 H6534 0.950 . S
C6554 C6553 1.414 . S
C6554 C6555 1.374 . S
C6555 H6535 0.950 . S
C6555 C6551 1.385 . S
C6555 C6554 1.374 . S
C6556 C6553 1.499 . S
C6556 C6557 1.373 . S
C6556 C6558 1.389 . S
C6557 H6536 0.950 . S
C6557 C6556 1.373 . S
C6557 C6573 1.377 . S
C6558 C6556 1.389 . S
C6558 C6559 1.524 . S
C6558 C6572 1.377 . S
C6559 C6558 1.524 . S
C6559 C6560 1.397 . S
C6559 C6564 1.363 . S
C6560 H6537 0.950 . S
C6560 C6559 1.397 . S
C6560 C6561 1.334 . S
C6561 H6538 0.950 . S
C6561 C6560 1.334 . S
C6561 C6562 1.287 . S
C6562 C6561 1.287 . S
C6562 C6563 1.524 . S
C6562 H6581 0.913 . S
C6563 H6539 0.950 . S
C6563 C6562 1.524 . S
C6563 C6564 1.415 . S
C6564 H6540 0.950 . S
C6564 C6559 1.363 . S
C6564 C6563 1.415 . S
C6565 H6541 0.951 . S
C6565 C6566 1.366 . S
C6565 C6567 1.388 . S
C6566 C6565 1.366 . S
C6566 C6570 1.385 . S
C6567 H6542 0.951 . S
C6567 C6565 1.388 . S
C6567 C6568 1.366 . S
C6568 C6567 1.366 . S
C6568 C6569 1.414 . S
C6568 C6571 1.499 . S
C6569 H6543 0.950 . S
C6569 C6568 1.414 . S
C6569 C6570 1.374 . S
C6570 H6544 0.950 . S
C6570 C6566 1.385 . S
C6570 C6569 1.374 . S
C6571 C6568 1.499 . S
C6571 C6572 1.373 . S
C6571 C6573 1.389 . S
C6572 H6545 0.950 . S
C6572 C6558 1.377 . S
C6572 C6571 1.373 . S
C6573 C6557 1.377 . S
C6573 C6571 1.389 . S
C6573 C6574 1.524 . S
C6574 C6573 1.524 . S
C6574 C6575 1.397 . S
C6574 C6579 1.363 . S
C6575 H6546 0.950 . S
C6575 C6574 1.397 . S
C6575 C6576 1.334 . S
C6576 H6547 0.950 . S
C6576 C6575 1.334 . S
C6576 C6577 1.287 . S
C6577 C6576 1.287 . S
C6577 C6578 1.524 . S
C6577 H6580 0.999 . S
C6578 H6548 0.950 . S
C6578 C6577 1.524 . S
C6578 C6579 1.415 . S
C6579 H6549 0.950 . S
C6579 C6574 1.363 . S
C6579 C6578 1.415 . S
H6580 C6577 0.999 . S
H6581 C6562 0.913 . S
H6582 C6600 0.951 . S
H6583 C6602 0.951 . S
H6584 C6604 0.950 . S
H6585 C6605 0.950 . S
H6586 C6607 0.950 . S
H6587 C6610 0.950 . S
H6588 C6611 0.950 . S
H6589 C6613 0.950 . S
H6590 C6614 0.950 . S
H6591 C6615 0.951 . S
H6592 C6617 0.951 . S
H6593 C6619 0.950 . S
H6594 C6620 0.950 . S
H6595 C6622 0.950 . S
H6596 C6625 0.950 . S
H6597 C6626 0.950 . S
H6598 C6628 0.950 . S
H6599 C6629 0.950 . S
C6600 H6582 0.951 . S
C6600 C6601 1.366 . S
C6600 C6602 1.388 . S
C6601 C6600 1.366 . S
C6601 C6605 1.385 . S
C6602 H6583 0.951 . S
C6602 C6600 1.388 . S
C6602 C6603 1.366 . S
C6603 C6602 1.366 . S
C6603 C6604 1.414 . S
C6603 C6606 1.499 . S
C6604 H6584 0.950 . S
C6604 C6603 1.414 . S
C6604 C6605 1.374 . S
C6605 H6585 0.950 . S
C6605 C6601 1.385 . S
C6605 C6604 1.374 . S
C6606 C6603 1.499 . S
C6606 C6607 1.373 . S
C6606 C6608 1.389 . S
C6607 H6586 0.950 . S
C6607 C6606 1.373 . S
C6607 C6623 1.377 . S
C6608 C6606 1.389 . S
C6608 C6609 1.524 . S
C6608 C6622 1.377 . S
C6609 C6608 1.524 . S
C6609 C6610 1.397 . S
C6609 C6614 1.363 . S
C6610 H6587 0.950 . S
C6610 C6609 1.397 . S
C6610 C6611 1.334 . S
C6611 H6588 0.950 . S
C6611 C6610 1.334 . S
C6611 C6612 1.287 . S
C6612 C6611 1.287 . S
C6612 C6613 1.524 . S
C6612 H6631 0.913 . S
C6613 H6589 0.950 . S
C6613 C6612 1.524 . S
C6613 C6614 1.415 . S
C6614 H6590 0.950 . S
C6614 C6609 1.363 . S
C6614 C6613 1.415 . S
C6615 H6591 0.951 . S
C6615 C6616 1.366 . S
C6615 C6617 1.388 . S
C6616 C6615 1.366 . S
C6616 C6620 1.385 . S
C6617 H6592 0.951 . S
C6617 C6615 1.388 . S
C6617 C6618 1.366 . S
C6618 C6617 1.366 . S
C6618 C6619 1.414 . S
C6618 C6621 1.499 . S
C6619 H6593 0.950 . S
C6619 C6618 1.414 . S
C6619 C6620 1.374 . S
C6620 H6594 0.950 . S
C6620 C6616 1.385 . S
C6620 C6619 1.374 . S
C6621 C6618 1.499 . S
C6621 C6622 1.373 . S
C6621 C6623 1.389 . S
C6622 H6595 0.950 . S
C6622 C6608 1.377 . S
C6622 C6621 1.373 . S
C6623 C6607 1.377 . S
C6623 C6621 1.389 . S
C6623 C6624 1.524 . S
C6624 C6623 1.524 . S
C6624 C6625 1.397 . S
C6624 C6629 1.363 . S
C6625 H6596 0.950 . S
C6625 C6624 1.397 . S
C6625 C6626 1.334 . S
C6626 H6597 0.950 . S
C6626 C6625 1.334 . S
C6626 C6627 1.287 . S
C6627 C6626 1.287 . S
C6627 C6628 1.524 . S
C6627 H6630 0.999 . S
C6628 H6598 0.950 . S
C6628 C6627 1.524 . S
C6628 C6629 1.415 . S
C6629 H6599 0.950 . S
C6629 C6624 1.363 . S
C6629 C6628 1.415 . S
H6630 C6627 0.999 . S
H6631 C6612 0.913 . S
H6632 C6650 0.951 . S
H6633 C6652 0.951 . S
H6634 C6654 0.950 . S
H6635 C6655 0.950 . S
H6636 C6657 0.950 . S
H6637 C6660 0.950 . S
H6638 C6661 0.950 . S
H6639 C6663 0.950 . S
H6640 C6664 0.950 . S
H6641 C6665 0.951 . S
H6642 C6667 0.951 . S
H6643 C6669 0.950 . S
H6644 C6670 0.950 . S
H6645 C6672 0.950 . S
H6646 C6675 0.950 . S
H6647 C6676 0.950 . S
H6648 C6678 0.950 . S
H6649 C6679 0.950 . S
C6650 H6632 0.951 . S
C6650 C6651 1.366 . S
C6650 C6652 1.388 . S
C6651 C6650 1.366 . S
C6651 C6655 1.385 . S
C6652 H6633 0.951 . S
C6652 C6650 1.388 . S
C6652 C6653 1.366 . S
C6653 C6652 1.366 . S
C6653 C6654 1.414 . S
C6653 C6656 1.499 . S
C6654 H6634 0.950 . S
C6654 C6653 1.414 . S
C6654 C6655 1.374 . S
C6655 H6635 0.950 . S
C6655 C6651 1.385 . S
C6655 C6654 1.374 . S
C6656 C6653 1.499 . S
C6656 C6657 1.373 . S
C6656 C6658 1.389 . S
C6657 H6636 0.950 . S
C6657 C6656 1.373 . S
C6657 C6673 1.377 . S
C6658 C6656 1.389 . S
C6658 C6659 1.524 . S
C6658 C6672 1.377 . S
C6659 C6658 1.524 . S
C6659 C6660 1.397 . S
C6659 C6664 1.363 . S
C6660 H6637 0.950 . S
C6660 C6659 1.397 . S
C6660 C6661 1.334 . S
C6661 H6638 0.950 . S
C6661 C6660 1.334 . S
C6661 C6662 1.287 . S
C6662 C6661 1.287 . S
C6662 C6663 1.524 . S
C6662 H6681 0.913 . S
C6663 H6639 0.950 . S
C6663 C6662 1.524 . S
C6663 C6664 1.415 . S
C6664 H6640 0.950 . S
C6664 C6659 1.363 . S
C6664 C6663 1.415 . S
C6665 H6641 0.951 . S
C6665 C6666 1.366 . S
C6665 C6667 1.388 . S
C6666 C6665 1.366 . S
C6666 C6670 1.385 . S
C6667 H6642 0.951 . S
C6667 C6665 1.388 . S
C6667 C6668 1.366 . S
C6668 C6667 1.366 . S
C6668 C6669 1.414 . S
C6668 C6671 1.499 . S
C6669 H6643 0.950 . S
C6669 C6668 1.414 . S
C6669 C6670 1.374 . S
C6670 H6644 0.950 . S
C6670 C6666 1.385 . S
C6670 C6669 1.374 . S
C6671 C6668 1.499 . S
C6671 C6672 1.373 . S
C6671 C6673 1.389 . S
C6672 H6645 0.950 . S
C6672 C6658 1.377 . S
C6672 C6671 1.373 . S
C6673 C6657 1.377 . S
C6673 C6671 1.389 . S
C6673 C6674 1.524 . S
C6674 C6673 1.524 . S
C6674 C6675 1.397 . S
C6674 C6679 1.363 . S
C6675 H6646 0.950 . S
C6675 C6674 1.397 . S
C6675 C6676 1.334 . S
C6676 H6647 0.950 . S
C6676 C6675 1.334 . S
C6676 C6677 1.287 . S
C6677 C6676 1.287 . S
C6677 C6678 1.524 . S
C6677 H6680 0.999 . S
C6678 H6648 0.950 . S
C6678 C6677 1.524 . S
C6678 C6679 1.415 . S
C6679 H6649 0.950 . S
C6679 C6674 1.363 . S
C6679 C6678 1.415 . S
H6680 C6677 0.999 . S
H6681 C6662 0.913 . S
H6682 C6700 0.951 . S
H6683 C6702 0.951 . S
H6684 C6704 0.950 . S
H6685 C6705 0.950 . S
H6686 C6707 0.950 . S
H6687 C6710 0.950 . S
H6688 C6711 0.950 . S
H6689 C6713 0.950 . S
H6690 C6714 0.950 . S
H6691 C6715 0.951 . S
H6692 C6717 0.951 . S
H6693 C6719 0.950 . S
H6694 C6720 0.950 . S
H6695 C6722 0.950 . S
H6696 C6725 0.950 . S
H6697 C6726 0.950 . S
H6698 C6728 0.950 . S
H6699 C6729 0.950 . S
C6700 H6682 0.951 . S
C6700 C6701 1.366 . S
C6700 C6702 1.388 . S
C6701 C6700 1.366 . S
C6701 C6705 1.385 . S
C6702 H6683 0.951 . S
C6702 C6700 1.388 . S
C6702 C6703 1.366 . S
C6703 C6702 1.366 . S
C6703 C6704 1.414 . S
C6703 C6706 1.499 . S
C6704 H6684 0.950 . S
C6704 C6703 1.414 . S
C6704 C6705 1.374 . S
C6705 H6685 0.950 . S
C6705 C6701 1.385 . S
C6705 C6704 1.374 . S
C6706 C6703 1.499 . S
C6706 C6707 1.373 . S
C6706 C6708 1.389 . S
C6707 H6686 0.950 . S
C6707 C6706 1.373 . S
C6707 C6723 1.377 . S
C6708 C6706 1.389 . S
C6708 C6709 1.524 . S
C6708 C6722 1.377 . S
C6709 C6708 1.524 . S
C6709 C6710 1.397 . S
C6709 C6714 1.363 . S
C6710 H6687 0.950 . S
C6710 C6709 1.397 . S
C6710 C6711 1.334 . S
C6711 H6688 0.950 . S
C6711 C6710 1.334 . S
C6711 C6712 1.287 . S
C6712 C6711 1.287 . S
C6712 C6713 1.524 . S
C6712 H6731 0.913 . S
C6713 H6689 0.950 . S
C6713 C6712 1.524 . S
C6713 C6714 1.415 . S
C6714 H6690 0.950 . S
C6714 C6709 1.363 . S
C6714 C6713 1.415 . S
C6715 H6691 0.951 . S
C6715 C6716 1.366 . S
C6715 C6717 1.388 . S
C6716 C6715 1.366 . S
C6716 C6720 1.385 . S
C6717 H6692 0.951 . S
C6717 C6715 1.388 . S
C6717 C6718 1.366 . S
C6718 C6717 1.366 . S
C6718 C6719 1.414 . S
C6718 C6721 1.499 . S
C6719 H6693 0.950 . S
C6719 C6718 1.414 . S
C6719 C6720 1.374 . S
C6720 H6694 0.950 . S
C6720 C6716 1.385 . S
C6720 C6719 1.374 . S
C6721 C6718 1.499 . S
C6721 C6722 1.373 . S
C6721 C6723 1.389 . S
C6722 H6695 0.950 . S
C6722 C6708 1.377 . S
C6722 C6721 1.373 . S
C6723 C6707 1.377 . S
C6723 C6721 1.389 . S
C6723 C6724 1.524 . S
C6724 C6723 1.524 . S
C6724 C6725 1.397 . S
C6724 C6729 1.363 . S
C6725 H6696 0.950 . S
C6725 C6724 1.397 . S
C6725 C6726 1.334 . S
C6726 H6697 0.950 . S
C6726 C6725 1.334 . S
C6726 C6727 1.287 . S
C6727 C6726 1.287 . S
C6727 C6728 1.524 . S
C6727 H6730 0.999 . S
C6728 H6698 0.950 . S
C6728 C6727 1.524 . S
C6728 C6729 1.415 . S
C6729 H6699 0.950 . S
C6729 C6724 1.363 . S
C6729 C6728 1.415 . S
H6730 C6727 0.999 . S
H6731 C6712 0.913 . S
H6732 C6750 0.951 . S
H6733 C6752 0.951 . S
H6734 C6754 0.950 . S
H6735 C6755 0.950 . S
H6736 C6757 0.950 . S
H6737 C6760 0.950 . S
H6738 C6761 0.950 . S
H6739 C6763 0.950 . S
H6740 C6764 0.950 . S
H6741 C6765 0.951 . S
H6742 C6767 0.951 . S
H6743 C6769 0.950 . S
H6744 C6770 0.950 . S
H6745 C6772 0.950 . S
H6746 C6775 0.950 . S
H6747 C6776 0.950 . S
H6748 C6778 0.950 . S
H6749 C6779 0.950 . S
C6750 H6732 0.951 . S
C6750 C6751 1.366 . S
C6750 C6752 1.388 . S
C6751 C6750 1.366 . S
C6751 C6755 1.385 . S
C6752 H6733 0.951 . S
C6752 C6750 1.388 . S
C6752 C6753 1.366 . S
C6753 C6752 1.366 . S
C6753 C6754 1.414 . S
C6753 C6756 1.499 . S
C6754 H6734 0.950 . S
C6754 C6753 1.414 . S
C6754 C6755 1.374 . S
C6755 H6735 0.950 . S
C6755 C6751 1.385 . S
C6755 C6754 1.374 . S
C6756 C6753 1.499 . S
C6756 C6757 1.373 . S
C6756 C6758 1.389 . S
C6757 H6736 0.950 . S
C6757 C6756 1.373 . S
C6757 C6773 1.377 . S
C6758 C6756 1.389 . S
C6758 C6759 1.524 . S
C6758 C6772 1.377 . S
C6759 C6758 1.524 . S
C6759 C6760 1.397 . S
C6759 C6764 1.363 . S
C6760 H6737 0.950 . S
C6760 C6759 1.397 . S
C6760 C6761 1.334 . S
C6761 H6738 0.950 . S
C6761 C6760 1.334 . S
C6761 C6762 1.287 . S
C6762 C6761 1.287 . S
C6762 C6763 1.524 . S
C6762 H6781 0.913 . S
C6763 H6739 0.950 . S
C6763 C6762 1.524 . S
C6763 C6764 1.415 . S
C6764 H6740 0.950 . S
C6764 C6759 1.363 . S
C6764 C6763 1.415 . S
C6765 H6741 0.951 . S
C6765 C6766 1.366 . S
C6765 C6767 1.388 . S
C6766 C6765 1.366 . S
C6766 C6770 1.385 . S
C6767 H6742 0.951 . S
C6767 C6765 1.388 . S
C6767 C6768 1.366 . S
C6768 C6767 1.366 . S
C6768 C6769 1.414 . S
C6768 C6771 1.499 . S
C6769 H6743 0.950 . S
C6769 C6768 1.414 . S
C6769 C6770 1.374 . S
C6770 H6744 0.950 . S
C6770 C6766 1.385 . S
C6770 C6769 1.374 . S
C6771 C6768 1.499 . S
C6771 C6772 1.373 . S
C6771 C6773 1.389 . S
C6772 H6745 0.950 . S
C6772 C6758 1.377 . S
C6772 C6771 1.373 . S
C6773 C6757 1.377 . S
C6773 C6771 1.389 . S
C6773 C6774 1.524 . S
C6774 C6773 1.524 . S
C6774 C6775 1.397 . S
C6774 C6779 1.363 . S
C6775 H6746 0.950 . S
C6775 C6774 1.397 . S
C6775 C6776 1.334 . S
C6776 H6747 0.950 . S
C6776 C6775 1.334 . S
C6776 C6777 1.287 . S
C6777 C6776 1.287 . S
C6777 C6778 1.524 . S
C6777 H6780 0.999 . S
C6778 H6748 0.950 . S
C6778 C6777 1.524 . S
C6778 C6779 1.415 . S
C6779 H6749 0.950 . S
C6779 C6774 1.363 . S
C6779 C6778 1.415 . S
H6780 C6777 0.999 . S
H6781 C6762 0.913 . S
H6782 C6800 0.951 . S
H6783 C6802 0.951 . S
H6784 C6804 0.950 . S
H6785 C6805 0.950 . S
H6786 C6807 0.950 . S
H6787 C6810 0.950 . S
H6788 C6811 0.950 . S
H6789 C6813 0.950 . S
H6790 C6814 0.950 . S
H6791 C6815 0.951 . S
H6792 C6817 0.951 . S
H6793 C6819 0.950 . S
H6794 C6820 0.950 . S
H6795 C6822 0.950 . S
H6796 C6825 0.950 . S
H6797 C6826 0.950 . S
H6798 C6828 0.950 . S
H6799 C6829 0.950 . S
C6800 H6782 0.951 . S
C6800 C6801 1.366 . S
C6800 C6802 1.388 . S
C6801 C6800 1.366 . S
C6801 C6805 1.385 . S
C6802 H6783 0.951 . S
C6802 C6800 1.388 . S
C6802 C6803 1.366 . S
C6803 C6802 1.366 . S
C6803 C6804 1.414 . S
C6803 C6806 1.499 . S
C6804 H6784 0.950 . S
C6804 C6803 1.414 . S
C6804 C6805 1.374 . S
C6805 H6785 0.950 . S
C6805 C6801 1.385 . S
C6805 C6804 1.374 . S
C6806 C6803 1.499 . S
C6806 C6807 1.373 . S
C6806 C6808 1.389 . S
C6807 H6786 0.950 . S
C6807 C6806 1.373 . S
C6807 C6823 1.377 . S
C6808 C6806 1.389 . S
C6808 C6809 1.524 . S
C6808 C6822 1.377 . S
C6809 C6808 1.524 . S
C6809 C6810 1.397 . S
C6809 C6814 1.363 . S
C6810 H6787 0.950 . S
C6810 C6809 1.397 . S
C6810 C6811 1.334 . S
C6811 H6788 0.950 . S
C6811 C6810 1.334 . S
C6811 C6812 1.287 . S
C6812 C6811 1.287 . S
C6812 C6813 1.524 . S
C6812 H6831 0.913 . S
C6813 H6789 0.950 . S
C6813 C6812 1.524 . S
C6813 C6814 1.415 . S
C6814 H6790 0.950 . S
C6814 C6809 1.363 . S
C6814 C6813 1.415 . S
C6815 H6791 0.951 . S
C6815 C6816 1.366 . S
C6815 C6817 1.388 . S
C6816 C6815 1.366 . S
C6816 C6820 1.385 . S
C6817 H6792 0.951 . S
C6817 C6815 1.388 . S
C6817 C6818 1.366 . S
C6818 C6817 1.366 . S
C6818 C6819 1.414 . S
C6818 C6821 1.499 . S
C6819 H6793 0.950 . S
C6819 C6818 1.414 . S
C6819 C6820 1.374 . S
C6820 H6794 0.950 . S
C6820 C6816 1.385 . S
C6820 C6819 1.374 . S
C6821 C6818 1.499 . S
C6821 C6822 1.373 . S
C6821 C6823 1.389 . S
C6822 H6795 0.950 . S
C6822 C6808 1.377 . S
C6822 C6821 1.373 . S
C6823 C6807 1.377 . S
C6823 C6821 1.389 . S
C6823 C6824 1.524 . S
C6824 C6823 1.524 . S
C6824 C6825 1.397 . S
C6824 C6829 1.363 . S
C6825 H6796 0.950 . S
C6825 C6824 1.397 . S
C6825 C6826 1.334 . S
C6826 H6797 0.950 . S
C6826 C6825 1.334 . S
C6826 C6827 1.287 . S
C6827 C6826 1.287 . S
C6827 C6828 1.524 . S
C6827 H6830 0.999 . S
C6828 H6798 0.950 . S
C6828 C6827 1.524 . S
C6828 C6829 1.415 . S
C6829 H6799 0.950 . S
C6829 C6824 1.363 . S
C6829 C6828 1.415 . S
H6830 C6827 0.999 . S
H6831 C6812 0.913 . S
H6832 C6850 0.951 . S
H6833 C6852 0.951 . S
H6834 C6854 0.950 . S
H6835 C6855 0.950 . S
H6836 C6857 0.950 . S
H6837 C6860 0.950 . S
H6838 C6861 0.950 . S
H6839 C6863 0.950 . S
H6840 C6864 0.950 . S
H6841 C6865 0.951 . S
H6842 C6867 0.951 . S
H6843 C6869 0.950 . S
H6844 C6870 0.950 . S
H6845 C6872 0.950 . S
H6846 C6875 0.950 . S
H6847 C6876 0.950 . S
H6848 C6878 0.950 . S
H6849 C6879 0.950 . S
C6850 H6832 0.951 . S
C6850 C6851 1.366 . S
C6850 C6852 1.388 . S
C6851 C6850 1.366 . S
C6851 C6855 1.385 . S
C6852 H6833 0.951 . S
C6852 C6850 1.388 . S
C6852 C6853 1.366 . S
C6853 C6852 1.366 . S
C6853 C6854 1.414 . S
C6853 C6856 1.499 . S
C6854 H6834 0.950 . S
C6854 C6853 1.414 . S
C6854 C6855 1.374 . S
C6855 H6835 0.950 . S
C6855 C6851 1.385 . S
C6855 C6854 1.374 . S
C6856 C6853 1.499 . S
C6856 C6857 1.373 . S
C6856 C6858 1.389 . S
C6857 H6836 0.950 . S
C6857 C6856 1.373 . S
C6857 C6873 1.377 . S
C6858 C6856 1.389 . S
C6858 C6859 1.524 . S
C6858 C6872 1.377 . S
C6859 C6858 1.524 . S
C6859 C6860 1.397 . S
C6859 C6864 1.363 . S
C6860 H6837 0.950 . S
C6860 C6859 1.397 . S
C6860 C6861 1.334 . S
C6861 H6838 0.950 . S
C6861 C6860 1.334 . S
C6861 C6862 1.287 . S
C6862 C6861 1.287 . S
C6862 C6863 1.524 . S
C6862 H6881 0.913 . S
C6863 H6839 0.950 . S
C6863 C6862 1.524 . S
C6863 C6864 1.415 . S
C6864 H6840 0.950 . S
C6864 C6859 1.363 . S
C6864 C6863 1.415 . S
C6865 H6841 0.951 . S
C6865 C6866 1.366 . S
C6865 C6867 1.388 . S
C6866 C6865 1.366 . S
C6866 C6870 1.385 . S
C6867 H6842 0.951 . S
C6867 C6865 1.388 . S
C6867 C6868 1.366 . S
C6868 C6867 1.366 . S
C6868 C6869 1.414 . S
C6868 C6871 1.499 . S
C6869 H6843 0.950 . S
C6869 C6868 1.414 . S
C6869 C6870 1.374 . S
C6870 H6844 0.950 . S
C6870 C6866 1.385 . S
C6870 C6869 1.374 . S
C6871 C6868 1.499 . S
C6871 C6872 1.373 . S
C6871 C6873 1.389 . S
C6872 H6845 0.950 . S
C6872 C6858 1.377 . S
C6872 C6871 1.373 . S
C6873 C6857 1.377 . S
C6873 C6871 1.389 . S
C6873 C6874 1.524 . S
C6874 C6873 1.524 . S
C6874 C6875 1.397 . S
C6874 C6879 1.363 . S
C6875 H6846 0.950 . S
C6875 C6874 1.397 . S
C6875 C6876 1.334 . S
C6876 H6847 0.950 . S
C6876 C6875 1.334 . S
C6876 C6877 1.287 . S
C6877 C6876 1.287 . S
C6877 C6878 1.524 . S
C6877 H6880 0.999 . S
C6878 H6848 0.950 . S
C6878 C6877 1.524 . S
C6878 C6879 1.415 . S
C6879 H6849 0.950 . S
C6879 C6874 1.363 . S
C6879 C6878 1.415 . S
H6880 C6877 0.999 . S
H6881 C6862 0.913 . S
H6882 C6900 0.951 . S
H6883 C6902 0.951 . S
H6884 C6904 0.950 . S
H6885 C6905 0.950 . S
H6886 C6907 0.950 . S
H6887 C6910 0.950 . S
H6888 C6911 0.950 . S
H6889 C6913 0.950 . S
H6890 C6914 0.950 . S
H6891 C6915 0.951 . S
H6892 C6917 0.951 . S
H6893 C6919 0.950 . S
H6894 C6920 0.950 . S
H6895 C6922 0.950 . S
H6896 C6925 0.950 . S
H6897 C6926 0.950 . S
H6898 C6928 0.950 . S
H6899 C6929 0.950 . S
C6900 H6882 0.951 . S
C6900 C6901 1.366 . S
C6900 C6902 1.388 . S
C6901 C6900 1.366 . S
C6901 C6905 1.385 . S
C6902 H6883 0.951 . S
C6902 C6900 1.388 . S
C6902 C6903 1.366 . S
C6903 C6902 1.366 . S
C6903 C6904 1.414 . S
C6903 C6906 1.499 . S
C6904 H6884 0.950 . S
C6904 C6903 1.414 . S
C6904 C6905 1.374 . S
C6905 H6885 0.950 . S
C6905 C6901 1.385 . S
C6905 C6904 1.374 . S
C6906 C6903 1.499 . S
C6906 C6907 1.373 . S
C6906 C6908 1.389 . S
C6907 H6886 0.950 . S
C6907 C6906 1.373 . S
C6907 C6923 1.377 . S
C6908 C6906 1.389 . S
C6908 C6909 1.524 . S
C6908 C6922 1.377 . S
C6909 C6908 1.524 . S
C6909 C6910 1.397 . S
C6909 C6914 1.363 . S
C6910 H6887 0.950 . S
C6910 C6909 1.397 . S
C6910 C6911 1.334 . S
C6911 H6888 0.950 . S
C6911 C6910 1.334 . S
C6911 C6912 1.287 . S
C6912 C6911 1.287 . S
C6912 C6913 1.524 . S
C6912 H6931 0.913 . S
C6913 H6889 0.950 . S
C6913 C6912 1.524 . S
C6913 C6914 1.415 . S
C6914 H6890 0.950 . S
C6914 C6909 1.363 . S
C6914 C6913 1.415 . S
C6915 H6891 0.951 . S
C6915 C6916 1.366 . S
C6915 C6917 1.388 . S
C6916 C6915 1.366 . S
C6916 C6920 1.385 . S
C6917 H6892 0.951 . S
C6917 C6915 1.388 . S
C6917 C6918 1.366 . S
C6918 C6917 1.366 . S
C6918 C6919 1.414 . S
C6918 C6921 1.499 . S
C6919 H6893 0.950 . S
C6919 C6918 1.414 . S
C6919 C6920 1.374 . S
C6920 H6894 0.950 . S
C6920 C6916 1.385 . S
C6920 C6919 1.374 . S
C6921 C6918 1.499 . S
C6921 C6922 1.373 . S
C6921 C6923 1.389 . S
C6922 H6895 0.950 . S
C6922 C6908 1.377 . S
C6922 C6921 1.373 . S
C6923 C6907 1.377 . S
C6923 C6921 1.389 . S
C6923 C6924 1.524 . S
C6924 C6923 1.524 . S
C6924 C6925 1.397 . S
C6924 C6929 1.363 . S
C6925 H6896 0.950 . S
C6925 C6924 1.397 . S
C6925 C6926 1.334 . S
C6926 H6897 0.950 . S
C6926 C6925 1.334 . S
C6926 C6927 1.287 . S
C6927 C6926 1.287 . S
C6927 C6928 1.524 . S
C6927 H6930 0.999 . S
C6928 H6898 0.950 . S
C6928 C6927 1.524 . S
C6928 C6929 1.415 . S
C6929 H6899 0.950 . S
C6929 C6924 1.363 . S
C6929 C6928 1.415 . S
H6930 C6927 0.999 . S
H6931 C6912 0.913 . S
H6932 C6950 0.951 . S
H6933 C6952 0.951 . S
H6934 C6954 0.950 . S
H6935 C6955 0.950 . S
H6936 C6957 0.950 . S
H6937 C6960 0.950 . S
H6938 C6961 0.950 . S
H6939 C6963 0.950 . S
H6940 C6964 0.950 . S
H6941 C6965 0.951 . S
H6942 C6967 0.951 . S
H6943 C6969 0.950 . S
H6944 C6970 0.950 . S
H6945 C6972 0.950 . S
H6946 C6975 0.950 . S
H6947 C6976 0.950 . S
H6948 C6978 0.950 . S
H6949 C6979 0.950 . S
C6950 H6932 0.951 . S
C6950 C6951 1.366 . S
C6950 C6952 1.388 . S
C6951 C6950 1.366 . S
C6951 C6955 1.385 . S
C6952 H6933 0.951 . S
C6952 C6950 1.388 . S
C6952 C6953 1.366 . S
C6953 C6952 1.366 . S
C6953 C6954 1.414 . S
C6953 C6956 1.499 . S
C6954 H6934 0.950 . S
C6954 C6953 1.414 . S
C6954 C6955 1.374 . S
C6955 H6935 0.950 . S
C6955 C6951 1.385 . S
C6955 C6954 1.374 . S
C6956 C6953 1.499 . S
C6956 C6957 1.373 . S
C6956 C6958 1.389 . S
C6957 H6936 0.950 . S
C6957 C6956 1.373 . S
C6957 C6973 1.377 . S
C6958 C6956 1.389 . S
C6958 C6959 1.524 . S
C6958 C6972 1.377 . S
C6959 C6958 1.524 . S
C6959 C6960 1.397 . S
C6959 C6964 1.363 . S
C6960 H6937 0.950 . S
C6960 C6959 1.397 . S
C6960 C6961 1.334 . S
C6961 H6938 0.950 . S
C6961 C6960 1.334 . S
C6961 C6962 1.287 . S
C6962 C6961 1.287 . S
C6962 C6963 1.524 . S
C6962 H6981 0.913 . S
C6963 H6939 0.950 . S
C6963 C6962 1.524 . S
C6963 C6964 1.415 . S
C6964 H6940 0.950 . S
C6964 C6959 1.363 . S
C6964 C6963 1.415 . S
C6965 H6941 0.951 . S
C6965 C6966 1.366 . S
C6965 C6967 1.388 . S
C6966 C6965 1.366 . S
C6966 C6970 1.385 . S
C6967 H6942 0.951 . S
C6967 C6965 1.388 . S
C6967 C6968 1.366 . S
C6968 C6967 1.366 . S
C6968 C6969 1.414 . S
C6968 C6971 1.499 . S
C6969 H6943 0.950 . S
C6969 C6968 1.414 . S
C6969 C6970 1.374 . S
C6970 H6944 0.950 . S
C6970 C6966 1.385 . S
C6970 C6969 1.374 . S
C6971 C6968 1.499 . S
C6971 C6972 1.373 . S
C6971 C6973 1.389 . S
C6972 H6945 0.950 . S
C6972 C6958 1.377 . S
C6972 C6971 1.373 . S
C6973 C6957 1.377 . S
C6973 C6971 1.389 . S
C6973 C6974 1.524 . S
C6974 C6973 1.524 . S
C6974 C6975 1.397 . S
C6974 C6979 1.363 . S
C6975 H6946 0.950 . S
C6975 C6974 1.397 . S
C6975 C6976 1.334 . S
C6976 H6947 0.950 . S
C6976 C6975 1.334 . S
C6976 C6977 1.287 . S
C6977 C6976 1.287 . S
C6977 C6978 1.524 . S
C6977 H6980 0.999 . S
C6978 H6948 0.950 . S
C6978 C6977 1.524 . S
C6978 C6979 1.415 . S
C6979 H6949 0.950 . S
C6979 C6974 1.363 . S
C6979 C6978 1.415 . S
H6980 C6977 0.999 . S
H6981 C6962 0.913 . S
H6982 C7000 0.951 . S
H6983 C7002 0.951 . S
H6984 C7004 0.950 . S
H6985 C7005 0.950 . S
H6986 C7007 0.950 . S
H6987 C7010 0.950 . S
H6988 C7011 0.950 . S
H6989 C7013 0.950 . S
H6990 C7014 0.950 . S
H6991 C7015 0.951 . S
H6992 C7017 0.951 . S
H6993 C7019 0.950 . S
H6994 C7020 0.950 . S
H6995 C7022 0.950 . S
H6996 C7025 0.950 . S
H6997 C7026 0.950 . S
H6998 C7028 0.950 . S
H6999 C7029 0.950 . S
C7000 H6982 0.951 . S
C7000 C7001 1.366 . S
C7000 C7002 1.388 . S
C7001 C7000 1.366 . S
C7001 C7005 1.385 . S
C7002 H6983 0.951 . S
C7002 C7000 1.388 . S
C7002 C7003 1.366 . S
C7003 C7002 1.366 . S
C7003 C7004 1.414 . S
C7003 C7006 1.499 . S
C7004 H6984 0.950 . S
C7004 C7003 1.414 . S
C7004 C7005 1.374 . S
C7005 H6985 0.950 . S
C7005 C7001 1.385 . S
C7005 C7004 1.374 . S
C7006 C7003 1.499 . S
C7006 C7007 1.373 . S
C7006 C7008 1.389 . S
C7007 H6986 0.950 . S
C7007 C7006 1.373 . S
C7007 C7023 1.377 . S
C7008 C7006 1.389 . S
C7008 C7009 1.524 . S
C7008 C7022 1.377 . S
C7009 C7008 1.524 . S
C7009 C7010 1.397 . S
C7009 C7014 1.363 . S
C7010 H6987 0.950 . S
C7010 C7009 1.397 . S
C7010 C7011 1.334 . S
C7011 H6988 0.950 . S
C7011 C7010 1.334 . S
C7011 C7012 1.287 . S
C7012 C7011 1.287 . S
C7012 C7013 1.524 . S
C7012 H7031 0.913 . S
C7013 H6989 0.950 . S
C7013 C7012 1.524 . S
C7013 C7014 1.415 . S
C7014 H6990 0.950 . S
C7014 C7009 1.363 . S
C7014 C7013 1.415 . S
C7015 H6991 0.951 . S
C7015 C7016 1.366 . S
C7015 C7017 1.388 . S
C7016 C7015 1.366 . S
C7016 C7020 1.385 . S
C7017 H6992 0.951 . S
C7017 C7015 1.388 . S
C7017 C7018 1.366 . S
C7018 C7017 1.366 . S
C7018 C7019 1.414 . S
C7018 C7021 1.499 . S
C7019 H6993 0.950 . S
C7019 C7018 1.414 . S
C7019 C7020 1.374 . S
C7020 H6994 0.950 . S
C7020 C7016 1.385 . S
C7020 C7019 1.374 . S
C7021 C7018 1.499 . S
C7021 C7022 1.373 . S
C7021 C7023 1.389 . S
C7022 H6995 0.950 . S
C7022 C7008 1.377 . S
C7022 C7021 1.373 . S
C7023 C7007 1.377 . S
C7023 C7021 1.389 . S
C7023 C7024 1.524 . S
C7024 C7023 1.524 . S
C7024 C7025 1.397 . S
C7024 C7029 1.363 . S
C7025 H6996 0.950 . S
C7025 C7024 1.397 . S
C7025 C7026 1.334 . S
C7026 H6997 0.950 . S
C7026 C7025 1.334 . S
C7026 C7027 1.287 . S
C7027 C7026 1.287 . S
C7027 C7028 1.524 . S
C7027 H7030 0.999 . S
C7028 H6998 0.950 . S
C7028 C7027 1.524 . S
C7028 C7029 1.415 . S
C7029 H6999 0.950 . S
C7029 C7024 1.363 . S
C7029 C7028 1.415 . S
H7030 C7027 0.999 . S
H7031 C7012 0.913 . S
H7032 C7050 0.951 . S
H7033 C7052 0.951 . S
H7034 C7054 0.950 . S
H7035 C7055 0.950 . S
H7036 C7057 0.950 . S
H7037 C7060 0.950 . S
H7038 C7061 0.950 . S
H7039 C7063 0.950 . S
H7040 C7064 0.950 . S
H7041 C7065 0.951 . S
H7042 C7067 0.951 . S
H7043 C7069 0.950 . S
H7044 C7070 0.950 . S
H7045 C7072 0.950 . S
H7046 C7075 0.950 . S
H7047 C7076 0.950 . S
H7048 C7078 0.950 . S
H7049 C7079 0.950 . S
C7050 H7032 0.951 . S
C7050 C7051 1.366 . S
C7050 C7052 1.388 . S
C7051 C7050 1.366 . S
C7051 C7055 1.385 . S
C7052 H7033 0.951 . S
C7052 C7050 1.388 . S
C7052 C7053 1.366 . S
C7053 C7052 1.366 . S
C7053 C7054 1.414 . S
C7053 C7056 1.499 . S
C7054 H7034 0.950 . S
C7054 C7053 1.414 . S
C7054 C7055 1.374 . S
C7055 H7035 0.950 . S
C7055 C7051 1.385 . S
C7055 C7054 1.374 . S
C7056 C7053 1.499 . S
C7056 C7057 1.373 . S
C7056 C7058 1.389 . S
C7057 H7036 0.950 . S
C7057 C7056 1.373 . S
C7057 C7073 1.377 . S
C7058 C7056 1.389 . S
C7058 C7059 1.524 . S
C7058 C7072 1.377 . S
C7059 C7058 1.524 . S
C7059 C7060 1.397 . S
C7059 C7064 1.363 . S
C7060 H7037 0.950 . S
C7060 C7059 1.397 . S
C7060 C7061 1.334 . S
C7061 H7038 0.950 . S
C7061 C7060 1.334 . S
C7061 C7062 1.287 . S
C7062 C7061 1.287 . S
C7062 C7063 1.524 . S
C7062 H7081 0.913 . S
C7063 H7039 0.950 . S
C7063 C7062 1.524 . S
C7063 C7064 1.415 . S
C7064 H7040 0.950 . S
C7064 C7059 1.363 . S
C7064 C7063 1.415 . S
C7065 H7041 0.951 . S
C7065 C7066 1.366 . S
C7065 C7067 1.388 . S
C7066 C7065 1.366 . S
C7066 C7070 1.385 . S
C7067 H7042 0.951 . S
C7067 C7065 1.388 . S
C7067 C7068 1.366 . S
C7068 C7067 1.366 . S
C7068 C7069 1.414 . S
C7068 C7071 1.499 . S
C7069 H7043 0.950 . S
C7069 C7068 1.414 . S
C7069 C7070 1.374 . S
C7070 H7044 0.950 . S
C7070 C7066 1.385 . S
C7070 C7069 1.374 . S
C7071 C7068 1.499 . S
C7071 C7072 1.373 . S
C7071 C7073 1.389 . S
C7072 H7045 0.950 . S
C7072 C7058 1.377 . S
C7072 C7071 1.373 . S
C7073 C7057 1.377 . S
C7073 C7071 1.389 . S
C7073 C7074 1.524 . S
C7074 C7073 1.524 . S
C7074 C7075 1.397 . S
C7074 C7079 1.363 . S
C7075 H7046 0.950 . S
C7075 C7074 1.397 . S
C7075 C7076 1.334 . S
C7076 H7047 0.950 . S
C7076 C7075 1.334 . S
C7076 C7077 1.287 . S
C7077 C7076 1.287 . S
C7077 C7078 1.524 . S
C7077 H7080 0.999 . S
C7078 H7048 0.950 . S
C7078 C7077 1.524 . S
C7078 C7079 1.415 . S
C7079 H7049 0.950 . S
C7079 C7074 1.363 . S
C7079 C7078 1.415 . S
H7080 C7077 0.999 . S
H7081 C7062 0.913 . S
H7082 C7100 0.951 . S
H7083 C7102 0.951 . S
H7084 C7104 0.950 . S
H7085 C7105 0.950 . S
H7086 C7107 0.950 . S
H7087 C7110 0.950 . S
H7088 C7111 0.950 . S
H7089 C7113 0.950 . S
H7090 C7114 0.950 . S
H7091 C7115 0.951 . S
H7092 C7117 0.951 . S
H7093 C7119 0.950 . S
H7094 C7120 0.950 . S
H7095 C7122 0.950 . S
H7096 C7125 0.950 . S
H7097 C7126 0.950 . S
H7098 C7128 0.950 . S
H7099 C7129 0.950 . S
C7100 H7082 0.951 . S
C7100 C7101 1.366 . S
C7100 C7102 1.388 . S
C7101 C7100 1.366 . S
C7101 C7105 1.385 . S
C7102 H7083 0.951 . S
C7102 C7100 1.388 . S
C7102 C7103 1.366 . S
C7103 C7102 1.366 . S
C7103 C7104 1.414 . S
C7103 C7106 1.499 . S
C7104 H7084 0.950 . S
C7104 C7103 1.414 . S
C7104 C7105 1.374 . S
C7105 H7085 0.950 . S
C7105 C7101 1.385 . S
C7105 C7104 1.374 . S
C7106 C7103 1.499 . S
C7106 C7107 1.373 . S
C7106 C7108 1.389 . S
C7107 H7086 0.950 . S
C7107 C7106 1.373 . S
C7107 C7123 1.377 . S
C7108 C7106 1.389 . S
C7108 C7109 1.524 . S
C7108 C7122 1.377 . S
C7109 C7108 1.524 . S
C7109 C7110 1.397 . S
C7109 C7114 1.363 . S
C7110 H7087 0.950 . S
C7110 C7109 1.397 . S
C7110 C7111 1.334 . S
C7111 H7088 0.950 . S
C7111 C7110 1.334 . S
C7111 C7112 1.287 . S
C7112 C7111 1.287 . S
C7112 C7113 1.524 . S
C7112 H7131 0.913 . S
C7113 H7089 0.950 . S
C7113 C7112 1.524 . S
C7113 C7114 1.415 . S
C7114 H7090 0.950 . S
C7114 C7109 1.363 . S
C7114 C7113 1.415 . S
C7115 H7091 0.951 . S
C7115 C7116 1.366 . S
C7115 C7117 1.388 . S
C7116 C7115 1.366 . S
C7116 C7120 1.385 . S
C7117 H7092 0.951 . S
C7117 C7115 1.388 . S
C7117 C7118 1.366 . S
C7118 C7117 1.366 . S
C7118 C7119 1.414 . S
C7118 C7121 1.499 . S
C7119 H7093 0.950 . S
C7119 C7118 1.414 . S
C7119 C7120 1.374 . S
C7120 H7094 0.950 . S
C7120 C7116 1.385 . S
C7120 C7119 1.374 . S
C7121 C7118 1.499 . S
C7121 C7122 1.373 . S
C7121 C7123 1.389 . S
C7122 H7095 0.950 . S
C7122 C7108 1.377 . S
C7122 C7121 1.373 . S
C7123 C7107 1.377 . S
C7123 C7121 1.389 . S
C7123 C7124 1.524 . S
C7124 C7123 1.524 . S
C7124 C7125 1.397 . S
C7124 C7129 1.363 . S
C7125 H7096 0.950 . S
C7125 C7124 1.397 . S
C7125 C7126 1.334 . S
C7126 H7097 0.950 . S
C7126 C7125 1.334 . S
C7126 C7127 1.287 . S
C7127 C7126 1.287 . S
C7127 C7128 1.524 . S
C7127 H7130 0.999 . S
C7128 H7098 0.950 . S
C7128 C7127 1.524 . S
C7128 C7129 1.415 . S
C7129 H7099 0.950 . S
C7129 C7124 1.363 . S
C7129 C7128 1.415 . S
H7130 C7127 0.999 . S
H7131 C7112 0.913 . S
H7132 C7150 0.951 . S
H7133 C7152 0.951 . S
H7134 C7154 0.950 . S
H7135 C7155 0.950 . S
H7136 C7157 0.950 . S
H7137 C7160 0.950 . S
H7138 C7161 0.950 . S
H7139 C7163 0.950 . S
H7140 C7164 0.950 . S
H7141 C7165 0.951 . S
H7142 C7167 0.951 . S
H7143 C7169 0.950 . S
H7144 C7170 0.950 . S
H7145 C7172 0.950 . S
H7146 C7175 0.950 . S
H7147 C7176 0.950 . S
H7148 C7178 0.950 . S
H7149 C7179 0.950 . S
C7150 H7132 0.951 . S
C7150 C7151 1.366 . S
C7150 C7152 1.388 . S
C7151 C7150 1.366 . S
C7151 C7155 1.385 . S
C7152 H7133 0.951 . S
C7152 C7150 1.388 . S
C7152 C7153 1.366 . S
C7153 C7152 1.366 . S
C7153 C7154 1.414 . S
C7153 C7156 1.499 . S
C7154 H7134 0.950 . S
C7154 C7153 1.414 . S
C7154 C7155 1.374 . S
C7155 H7135 0.950 . S
C7155 C7151 1.385 . S
C7155 C7154 1.374 . S
C7156 C7153 1.499 . S
C7156 C7157 1.373 . S
C7156 C7158 1.389 . S
C7157 H7136 0.950 . S
C7157 C7156 1.373 . S
C7157 C7173 1.377 . S
C7158 C7156 1.389 . S
C7158 C7159 1.524 . S
C7158 C7172 1.377 . S
C7159 C7158 1.524 . S
C7159 C7160 1.397 . S
C7159 C7164 1.363 . S
C7160 H7137 0.950 . S
C7160 C7159 1.397 . S
C7160 C7161 1.334 . S
C7161 H7138 0.950 . S
C7161 C7160 1.334 . S
C7161 C7162 1.287 . S
C7162 C7161 1.287 . S
C7162 C7163 1.524 . S
C7162 H7181 0.913 . S
C7163 H7139 0.950 . S
C7163 C7162 1.524 . S
C7163 C7164 1.415 . S
C7164 H7140 0.950 . S
C7164 C7159 1.363 . S
C7164 C7163 1.415 . S
C7165 H7141 0.951 . S
C7165 C7166 1.366 . S
C7165 C7167 1.388 . S
C7166 C7165 1.366 . S
C7166 C7170 1.385 . S
C7167 H7142 0.951 . S
C7167 C7165 1.388 . S
C7167 C7168 1.366 . S
C7168 C7167 1.366 . S
C7168 C7169 1.414 . S
C7168 C7171 1.499 . S
C7169 H7143 0.950 . S
C7169 C7168 1.414 . S
C7169 C7170 1.374 . S
C7170 H7144 0.950 . S
C7170 C7166 1.385 . S
C7170 C7169 1.374 . S
C7171 C7168 1.499 . S
C7171 C7172 1.373 . S
C7171 C7173 1.389 . S
C7172 H7145 0.950 . S
C7172 C7158 1.377 . S
C7172 C7171 1.373 . S
C7173 C7157 1.377 . S
C7173 C7171 1.389 . S
C7173 C7174 1.524 . S
C7174 C7173 1.524 . S
C7174 C7175 1.397 . S
C7174 C7179 1.363 . S
C7175 H7146 0.950 . S
C7175 C7174 1.397 . S
C7175 C7176 1.334 . S
C7176 H7147 0.950 . S
C7176 C7175 1.334 . S
C7176 C7177 1.287 . S
C7177 C7176 1.287 . S
C7177 C7178 1.524 . S
C7177 H7180 0.999 . S
C7178 H7148 0.950 . S
C7178 C7177 1.524 . S
C7178 C7179 1.415 . S
C7179 H7149 0.950 . S
C7179 C7174 1.363 . S
C7179 C7178 1.415 . S
H7180 C7177 0.999 . S
H7181 C7162 0.913 . S
H7182 C7200 0.951 . S
H7183 C7202 0.951 . S
H7184 C7204 0.950 . S
H7185 C7205 0.950 . S
H7186 C7207 0.950 . S
H7187 C7210 0.950 . S
H7188 C7211 0.950 . S
H7189 C7213 0.950 . S
H7190 C7214 0.950 . S
H7191 C7215 0.951 . S
H7192 C7217 0.951 . S
H7193 C7219 0.950 . S
H7194 C7220 0.950 . S
H7195 C7222 0.950 . S
H7196 C7225 0.950 . S
H7197 C7226 0.950 . S
H7198 C7228 0.950 . S
H7199 C7229 0.950 . S
C7200 H7182 0.951 . S
C7200 C7201 1.366 . S
C7200 C7202 1.388 . S
C7201 C7200 1.366 . S
C7201 C7205 1.385 . S
C7202 H7183 0.951 . S
C7202 C7200 1.388 . S
C7202 C7203 1.366 . S
C7203 C7202 1.366 . S
C7203 C7204 1.414 . S
C7203 C7206 1.499 . S
C7204 H7184 0.950 . S
C7204 C7203 1.414 . S
C7204 C7205 1.374 . S
C7205 H7185 0.950 . S
C7205 C7201 1.385 . S
C7205 C7204 1.374 . S
C7206 C7203 1.499 . S
C7206 C7207 1.373 . S
C7206 C7208 1.389 . S
C7207 H7186 0.950 . S
C7207 C7206 1.373 . S
C7207 C7223 1.377 . S
C7208 C7206 1.389 . S
C7208 C7209 1.524 . S
C7208 C7222 1.377 . S
C7209 C7208 1.524 . S
C7209 C7210 1.397 . S
C7209 C7214 1.363 . S
C7210 H7187 0.950 . S
C7210 C7209 1.397 . S
C7210 C7211 1.334 . S
C7211 H7188 0.950 . S
C7211 C7210 1.334 . S
C7211 C7212 1.287 . S
C7212 C7211 1.287 . S
C7212 C7213 1.524 . S
C7212 H7231 0.913 . S
C7213 H7189 0.950 . S
C7213 C7212 1.524 . S
C7213 C7214 1.415 . S
C7214 H7190 0.950 . S
C7214 C7209 1.363 . S
C7214 C7213 1.415 . S
C7215 H7191 0.951 . S
C7215 C7216 1.366 . S
C7215 C7217 1.388 . S
C7216 C7215 1.366 . S
C7216 C7220 1.385 . S
C7217 H7192 0.951 . S
C7217 C7215 1.388 . S
C7217 C7218 1.366 . S
C7218 C7217 1.366 . S
C7218 C7219 1.414 . S
C7218 C7221 1.499 . S
C7219 H7193 0.950 . S
C7219 C7218 1.414 . S
C7219 C7220 1.374 . S
C7220 H7194 0.950 . S
C7220 C7216 1.385 . S
C7220 C7219 1.374 . S
C7221 C7218 1.499 . S
C7221 C7222 1.373 . S
C7221 C7223 1.389 . S
C7222 H7195 0.950 . S
C7222 C7208 1.377 . S
C7222 C7221 1.373 . S
C7223 C7207 1.377 . S
C7223 C7221 1.389 . S
C7223 C7224 1.524 . S
C7224 C7223 1.524 . S
C7224 C7225 1.397 . S
C7224 C7229 1.363 . S
C7225 H7196 0.950 . S
C7225 C7224 1.397 . S
C7225 C7226 1.334 . S
C7226 H7197 0.950 . S
C7226 C7225 1.334 . S
C7226 C7227 1.287 . S
C7227 C7226 1.287 . S
C7227 C7228 1.524 . S
C7227 H7230 0.999 . S
C7228 H7198 0.950 . S
C7228 C7227 1.524 . S
C7228 C7229 1.415 . S
C7229 H7199 0.950 . S
C7229 C7224 1.363 . S
C7229 C7228 1.415 . S
H7230 C7227 0.999 . S
H7231 C7212 0.913 . S
C2466 C1325 1.551 . S
C2451 C21 1.543 . S
C2516 C1373 1.424 . S
C2501 C42 1.422 . S
C2551 C82 1.519 . S
C2566 C1397 1.533 . S
C2616 C1460 1.494 . S
C2601 C135 1.495 . S
C2651 C175 1.417 . S
C2666 C1454 1.415 . S
C2701 C221 1.536 . S
C2716 C1301 1.548 . S
C2751 C255 1.482 . S
C2766 C1349 1.478 . S
C2816 C1421 1.564 . S
C2801 C301 1.561 . S
C2866 C1493 1.520 . S
C2851 C15 1.521 . S
C2901 C55 1.430 . S
C2916 C1541 1.428 . S
C2951 C101 1.546 . S
C2966 C1604 1.559 . S
C3016 C1661 1.501 . S
C3001 C141 1.498 . S
C3051 C162 1.439 . S
C3066 C1685 1.454 . S
C3116 C1742 1.515 . S
C3101 C215 1.519 . S
C3151 C261 1.500 . S
C3166 C1790 1.504 . S
C3216 C1844 1.526 . S
C3201 C282 1.517 . S
C3251 C2 1.519 . S
C3266 C1637 1.535 . S
C3301 C181 1.419 . S
C3316 C1748 1.433 . S
C3366 C1796 1.552 . S
C3351 C202 1.537 . S
C3401 C242 1.502 . S
C3416 C1838 1.507 . S
C3466 C1709 1.507 . S
C3451 C295 1.513 . S
C3516 C1565 1.519 . S
C3501 C95 1.524 . S
C3551 C122 1.491 . S
C3566 C1598 1.496 . S
C3616 C1517 1.444 . S
C3601 C61 1.441 . S
C3666 C1892 1.554 . S
C3651 C341 1.542 . S
C3701 C362 1.422 . S
C3716 C1949 1.424 . S
C3751 C402 1.520 . S
C3766 C1973 1.534 . S
C3816 C2036 1.494 . S
C3801 C455 1.496 . S
C3851 C495 1.416 . S
C3866 C2030 1.415 . S
C3901 C541 1.535 . S
C3916 C1886 1.543 . S
C3951 C575 1.482 . S
C3966 C1925 1.479 . S
C4001 C621 1.562 . S
C4016 C1997 1.565 . S
C4066 C1694 1.516 . S
C4051 C335 1.520 . S
C4101 C375 1.430 . S
C4116 C2078 1.426 . S
C4166 C1781 1.560 . S
C4151 C421 1.547 . S
C4201 C461 1.499 . S
C4216 C2132 1.504 . S
C4251 C482 1.438 . S
C4266 C1502 1.450 . S
C4316 C2174 1.514 . S
C4301 C535 1.518 . S
C4351 C581 1.499 . S
C4366 C1613 1.502 . S
C4416 C2228 1.527 . S
C4401 C602 1.518 . S
C4451 C322 1.518 . S
C4466 C2126 1.532 . S
C4516 C2180 1.433 . S
C4501 C501 1.419 . S
C4551 C522 1.536 . S
C4566 C1589 1.551 . S
C4616 C2222 1.506 . S
C4601 C562 1.501 . S
C4651 C615 1.515 . S
C4666 C1508 1.512 . S
C4701 C415 1.525 . S
C4716 C2084 1.523 . S
C4751 C442 1.492 . S
C4766 C1805 1.497 . S
C4801 C381 1.441 . S
C4816 C1700 1.446 . S
C4851 C661 1.542 . S
C4866 C1982 1.553 . S
C4916 C2045 1.425 . S
C4901 C682 1.423 . S
C4951 C722 1.517 . S
C4966 C1901 1.529 . S
C5001 C775 1.495 . S
C5016 C1940 1.493 . S
C5051 C815 1.416 . S
C5066 C1934 1.414 . S
C5101 C861 1.537 . S
C5116 C1988 1.550 . S
C5166 C2021 1.479 . S
C5151 C895 1.482 . S
C5201 C941 1.562 . S
C5216 C1877 1.570 . S
C5266 C2261 1.519 . S
C5251 C655 1.520 . S
C5301 C695 1.430 . S
C5316 C1733 1.428 . S
C5366 C2324 1.559 . S
C5351 C741 1.546 . S
C5401 C781 1.497 . S
C5416 C1853 1.500 . S
C5451 C802 1.439 . S
C5466 C2366 1.450 . S
C5501 C855 1.519 . S
C5516 C1550 1.515 . S
C5566 C2429 1.503 . S
C5551 C901 1.500 . S
C5601 C922 1.518 . S
C5616 C1652 1.527 . S
C5666 C1829 1.534 . S
C5651 C642 1.519 . S
C5716 C1556 1.433 . S
C5701 C821 1.419 . S
C5751 C842 1.537 . S
C5766 C2405 1.551 . S
C5801 C882 1.502 . S
C5816 C1646 1.507 . S
C5866 C2372 1.512 . S
C5851 C935 1.515 . S
C5916 C1757 1.518 . S
C5901 C735 1.524 . S
C5966 C2318 1.496 . S
C5951 C762 1.491 . S
C6016 C2285 1.444 . S
C6001 C701 1.441 . S
C6051 C981 1.542 . S
C6066 C1406 1.553 . S
C6101 C1002 1.424 . S
C6116 C1469 1.425 . S
C6166 C1316 1.533 . S
C6151 C1042 1.518 . S
C6216 C1364 1.493 . S
C6201 C1095 1.495 . S
C6266 C1358 1.414 . S
C6251 C1135 1.415 . S
C6316 C1412 1.549 . S
C6301 C1181 1.537 . S
C6366 C1445 1.480 . S
C6351 C1215 1.483 . S
C6401 C1261 1.562 . S
C6416 C1310 1.567 . S
C6451 C975 1.521 . S
C6466 C2357 1.520 . S
C6516 C2165 1.429 . S
C6501 C1015 1.431 . S
C6566 C2420 1.559 . S
C6551 C1061 1.546 . S
C6616 C2237 1.500 . S
C6601 C1101 1.497 . S
C6651 C1122 1.437 . S
C6666 C2270 1.450 . S
C6716 C2069 1.518 . S
C6701 C1175 1.520 . S
C6766 C2333 1.503 . S
C6751 C1221 1.501 . S
C6801 C1242 1.517 . S
C6816 C2141 1.522 . S
C6866 C2213 1.535 . S
C6851 C962 1.519 . S
C6916 C2093 1.430 . S
C6901 C1141 1.418 . S
C6966 C2309 1.552 . S
C6951 C1162 1.538 . S
C7001 C1202 1.503 . S
C7016 C2117 1.511 . S
C7051 C1255 1.514 . S
C7066 C2276 1.511 . S
C7101 C1055 1.524 . S
C7116 C2189 1.518 . S
C7151 C1082 1.491 . S
C7166 C2414 1.496 . S
C7216 C2381 1.445 . S
C7201 C1021 1.442 . S
