# Generated by pormake.
# Topology rtl, (3,6)-cn, num edge types: 1
# Building blocks:
#     Node 0, Type 0, BuildingBlock: PAMTOO_clean_linker_0, # of connection points: 3
#     Node 1, Type 0, BuildingBlock: PAMTOO_clean_linker_0, # of connection points: 3
#     Node 2, Type 0, BuildingBlock: PAMTOO_clean_linker_0, # of connection points: 3
#     Node 3, Type 0, BuildingBlock: PAMTOO_clean_linker_0, # of connection points: 3
#     Node 4, Type 1, BuildingBlock: LEVNOQ01_clean_sbu_1, # of connection points: 6
#     Node 5, Type 1, BuildingBlock: LEVNOQ01_clean_sbu_1, # of connection points: 6
#     Edge 6, Type (0, 1), BuildingBlock: MIFKUJ_clean_linker_0, # of connection points: 2
#     Edge 7, Type (0, 1), BuildingBlock: MIFKUJ_clean_linker_0, # of connection points: 2
#     Edge 8, Type (0, 1), BuildingBlock: MIFKUJ_clean_linker_0, # of connection points: 2
#     Edge 9, Type (0, 1), BuildingBlock: MIFKUJ_clean_linker_0, # of connection points: 2
#     Edge 10, Type (0, 1), BuildingBlock: MIFKUJ_clean_linker_0, # of connection points: 2
#     Edge 11, Type (0, 1), BuildingBlock: MIFKUJ_clean_linker_0, # of connection points: 2
#     Edge 12, Type (0, 1), BuildingBlock: MIFKUJ_clean_linker_0, # of connection points: 2
#     Edge 13, Type (0, 1), BuildingBlock: MIFKUJ_clean_linker_0, # of connection points: 2
#     Edge 14, Type (0, 1), BuildingBlock: MIFKUJ_clean_linker_0, # of connection points: 2
#     Edge 15, Type (0, 1), BuildingBlock: MIFKUJ_clean_linker_0, # of connection points: 2
#     Edge 16, Type (0, 1), BuildingBlock: MIFKUJ_clean_linker_0, # of connection points: 2
#     Edge 17, Type (0, 1), BuildingBlock: MIFKUJ_clean_linker_0, # of connection points: 2
# Relax obj value: 0.020
# Max RMSD: 0.118
# Mean RMSD: 0.092
data_MOF--net-rtl--node1-LEVNOQ01_clean_sbu_1--node2-PAMTOO_clean_linker_0--edge1-MIFKUJ_clean_linker_0
_symmetry_space_group_name_H-M    P1
_symmetry_Int_Tables_number       1
_symmetry_cell_setting            triclinic
loop_
_symmetry_equiv_pos_as_xyz
'x, y, z'
_cell_length_a     45.981619
_cell_length_b     45.983084
_cell_length_c     29.024569
_cell_angle_alpha  92.001933
_cell_angle_beta   97.372049
_cell_angle_gamma 90.157631
loop_
_atom_site_label
_atom_site_type_symbol
_atom_site_fract_x
_atom_site_fract_y
_atom_site_fract_z
_atom_type_partial_charge
H0 H 0.17363 0.88568 0.0636 0.0
H1 H 0.2317 0.82879 0.14542 0.0
H2 H 0.22193 0.81965 0.99677 0.0
H3 H 0.22171 0.76366 0.05171 0.0
C4 C 0.23767 0.77108 0.08198 0.0
O5 O 0.24719 0.79886 0.07461 0.0
H6 H 0.22654 0.77112 0.11383 0.0
C7 C 0.1897 0.86843 0.06538 0.0
C8 C 0.1965 0.85439 0.02419 0.0
C9 C 0.20224 0.85942 0.1092 0.0
C10 C 0.22191 0.83611 0.11188 0.0
C11 C 0.22866 0.82169 0.07138 0.0
C12 C 0.21612 0.83084 0.02771 0.0
H13 H 0.65705 0.65514 0.57436 0.0
H14 H 0.70256 0.72267 0.51239 0.0
H15 H 0.71514 0.71424 0.66035 0.0
H16 H 0.70926 0.77482 0.62609 0.0
C17 C 0.72207 0.77225 0.59616 0.0
O18 O 0.73011 0.74348 0.59136 0.0
H19 H 0.70812 0.77875 0.56405 0.0
C20 C 0.67229 0.67335 0.57769 0.0
C21 C 0.68548 0.68269 0.62212 0.0
C22 C 0.67808 0.68758 0.53768 0.0
C23 C 0.69727 0.7117 0.54272 0.0
C24 C 0.71045 0.72131 0.58695 0.0
C25 C 0.70445 0.70691 0.62646 0.0
H26 H 0.86842 0.16361 0.01767 0.0
H27 H 0.80982 0.2179 0.93041 0.0
H28 H 0.81311 0.22529 0.07864 0.0
H29 H 0.75316 0.22295 0.01855 0.0
C30 C 0.7588 0.23736 0.99089 0.0
O31 O 0.78824 0.24443 0.99898 0.0
H32 H 0.75394 0.22533 0.95684 0.0
C33 C 0.85224 0.18074 0.01346 0.0
C34 C 0.84276 0.19392 0.05323 0.0
C35 C 0.84022 0.18873 0.96866 0.0
C36 C 0.81895 0.21074 0.96437 0.0
C37 C 0.80908 0.22369 0.00386 0.0
C38 C 0.8208 0.21513 0.04823 0.0
H39 H 0.34246 0.38471 0.48628 0.0
H40 H 0.29624 0.31594 0.54443 0.0
H41 H 0.28362 0.32767 0.39757 0.0
H42 H 0.23013 0.31674 0.43876 0.0
C43 C 0.23858 0.3014 0.46612 0.0
O44 O 0.26822 0.29729 0.46489 0.0
H45 H 0.23493 0.31113 0.50052 0.0
C46 C 0.32719 0.36656 0.48205 0.0
C47 C 0.31411 0.358 0.43709 0.0
C48 C 0.32114 0.35159 0.52136 0.0
C49 C 0.3011 0.32813 0.51505 0.0
C50 C 0.2875 0.3198 0.47054 0.0
C51 C 0.29419 0.33451 0.43177 0.0
O52 O 0.99416 0.07731 0.60135 0.0
Mg53 Mg 0.03147 0.05246 0.59705 0.0
O54 O 0.97505 0.03415 0.5826 0.0
Mg55 Mg 0.00684 0.01089 0.53398 0.0
O56 O 0.04358 0.04753 0.53186 0.0
O57 O 0.06609 0.07744 0.58879 0.0
O58 O 0.03724 0.98685 0.48515 0.0
O59 O 0.98162 0.0375 0.47325 0.0
Mg60 Mg 0.97276 0.97403 0.46423 0.0
O61 O 0.97146 0.97289 0.53476 0.0
O62 O 0.00946 0.95628 0.43858 0.0
O63 O 0.95065 0.00826 0.42964 0.0
O64 O 0.94581 0.94304 0.4809 0.0
C65 C 0.04321 0.99452 0.63657 0.0
C66 C 0.9727 0.06005 0.59903 0.0
C67 C 0.06308 0.06762 0.5463 0.0
C68 C 0.03441 0.96696 0.45307 0.0
C69 C 0.961 0.03347 0.43972 0.0
C70 C 0.95254 0.95171 0.52369 0.0
O71 O 0.04353 0.02138 0.64748 0.0
O72 O 0.03255 0.98575 0.59566 0.0
O73 O 0.52706 0.51034 0.14547 0.0
Mg74 Mg 0.51759 0.47906 0.09005 0.0
O75 O 0.5282 0.54341 0.09326 0.0
Mg76 Mg 0.50497 0.51572 0.03006 0.0
O77 O 0.54178 0.47759 0.03572 0.0
O78 O 0.55043 0.45081 0.09918 0.0
O79 O 0.48129 0.48789 0.96643 0.0
O80 O 0.53975 0.53575 0.98573 0.0
Mg81 Mg 0.47766 0.55635 0.95286 0.0
O82 O 0.47155 0.55327 0.02097 0.0
O83 O 0.46375 0.51854 0.91242 0.0
O84 O 0.51932 0.57282 0.94724 0.0
O85 O 0.44736 0.58478 0.97335 0.0
C86 C 0.46056 0.47331 0.08456 0.0
C87 C 0.53276 0.53611 0.13547 0.0
C88 C 0.55676 0.45754 0.05897 0.0
C89 C 0.46774 0.49283 0.92622 0.0
C90 C 0.54166 0.55789 0.9607 0.0
C91 C 0.45294 0.57436 0.0142 0.0
O92 O 0.47943 0.45372 0.08344 0.0
O93 O 0.46738 0.49893 0.07405 0.0
H94 H 0.18686 0.28958 0.41046 0.0
H95 H 0.15721 0.24497 0.4052 0.0
H96 H 0.22265 0.20479 0.50211 0.0
H97 H 0.2524 0.24951 0.5075 0.0
H98 H 0.19876 0.16614 0.42908 0.0
H99 H 0.16579 0.2341 0.54166 0.0
H100 H 0.1479 0.28138 0.56881 0.0
H101 H 0.07242 0.27413 0.46522 0.0
H102 H 0.09012 0.22695 0.43702 0.0
H103 H 0.12206 0.07114 0.55824 0.0
H104 H 0.15189 0.10545 0.52179 0.0
H105 H 0.07534 0.13084 0.43056 0.0
H106 H 0.04546 0.0958 0.46663 0.0
H107 H 0.10181 0.17627 0.48563 0.0
H108 H 0.13076 0.10354 0.38269 0.0
H109 H 0.14846 0.05582 0.35729 0.0
H110 H 0.23072 0.0708 0.44304 0.0
H111 H 0.21336 0.11845 0.46968 0.0
C112 C 0.19516 0.27103 0.42994 0.0
C113 C 0.22211 0.27283 0.45889 0.0
C114 C 0.17819 0.2456 0.42699 0.0
C115 C 0.1877 0.22156 0.4533 0.0
C116 C 0.21502 0.22298 0.4812 0.0
C117 C 0.23196 0.2485 0.48432 0.0
C118 C 0.1681 0.19596 0.45484 0.0
C119 C 0.17761 0.16825 0.44161 0.0
C120 C 0.14015 0.19887 0.46994 0.0
C121 C 0.12947 0.2272 0.48684 0.0
C122 C 0.14552 0.24272 0.52439 0.0
C123 C 0.13539 0.26947 0.54002 0.0
C124 C 0.10909 0.2808 0.51864 0.0
C125 C 0.09283 0.26536 0.48167 0.0
C126 C 0.10289 0.23861 0.46585 0.0
C127 C 0.11192 0.0831 0.52896 0.0
C128 C 0.08163 0.08075 0.51484 0.0
C129 C 0.12894 0.10273 0.50818 0.0
C130 C 0.11586 0.12076 0.47348 0.0
C131 C 0.08589 0.11703 0.45713 0.0
C132 C 0.0689 0.09688 0.4774 0.0
C133 C 0.13252 0.14625 0.46042 0.0
C134 C 0.12261 0.17407 0.47196 0.0
C135 C 0.16006 0.14333 0.44393 0.0
C136 C 0.17066 0.11457 0.42841 0.0
C137 C 0.15253 0.09657 0.39652 0.0
C138 C 0.16252 0.06955 0.38182 0.0
C139 C 0.19069 0.0603 0.39852 0.0
C140 C 0.20891 0.07802 0.4301 0.0
C141 C 0.19901 0.10507 0.44497 0.0
H142 H 0.19843 0.03947 0.38682 0.0
H143 H 0.10127 0.30151 0.53081 0.0
H144 H 0.29425 0.78155 0.12441 0.0
H145 H 0.33497 0.74706 0.13491 0.0
H146 H 0.27833 0.67884 0.06827 0.0
H147 H 0.23767 0.7133 0.05733 0.0
H148 H 0.31457 0.66028 0.14685 0.0
H149 H 0.32248 0.71249 0.00658 0.0
H150 H 0.32662 0.75642 0.96142 0.0
H151 H 0.40627 0.78071 0.04839 0.0
H152 H 0.40235 0.73708 0.09449 0.0
H153 H 0.39767 0.56174 0.02816 0.0
H154 H 0.36552 0.59449 0.06575 0.0
H155 H 0.43974 0.64955 0.11658 0.0
H156 H 0.4719 0.61664 0.07832 0.0
H157 H 0.39996 0.6784 0.06306 0.0
H158 H 0.39731 0.61959 0.19241 0.0
H159 H 0.39366 0.57435 0.23444 0.0
H160 H 0.30532 0.56125 0.16855 0.0
H161 H 0.30858 0.60614 0.12541 0.0
C162 C 0.29059 0.75926 0.11163 0.0
C163 C 0.2631 0.7503 0.08848 0.0
C164 C 0.31378 0.73955 0.11798 0.0
C165 C 0.30973 0.71045 0.10202 0.0
C166 C 0.28194 0.70119 0.0808 0.0
C167 C 0.25885 0.72093 0.07413 0.0
C168 C 0.33476 0.69 0.1046 0.0
C169 C 0.33328 0.66412 0.12856 0.0
C170 C 0.35957 0.69552 0.08197 0.0
C171 C 0.3619 0.72176 0.05436 0.0
C172 C 0.34072 0.72735 0.01634 0.0
C173 C 0.34305 0.75216 0.99053 0.0
C174 C 0.36663 0.77141 0.00214 0.0
C175 C 0.38797 0.76583 0.03952 0.0
C176 C 0.38571 0.74107 0.0655 0.0
C177 C 0.40728 0.57998 0.0495 0.0
C178 C 0.43717 0.58658 0.05104 0.0
C179 C 0.38891 0.5988 0.07092 0.0
C180 C 0.40017 0.62459 0.09399 0.0
C181 C 0.43058 0.62977 0.09905 0.0
C182 C 0.44898 0.61086 0.07766 0.0
C183 C 0.37967 0.64814 0.10453 0.0
C184 C 0.38181 0.67471 0.08269 0.0
C185 C 0.35556 0.64314 0.12911 0.0
C186 C 0.35326 0.61624 0.15543 0.0
C187 C 0.37715 0.60698 0.1866 0.0
C188 C 0.37515 0.58139 0.21066 0.0
C189 C 0.34929 0.5649 0.20412 0.0
C190 C 0.32535 0.57404 0.17358 0.0
C191 C 0.32724 0.5996 0.14936 0.0
H192 H 0.34779 0.54507 0.22273 0.0
H193 H 0.36842 0.79059 0.98209 0.0
H194 H 0.72752 0.82517 0.64229 0.0
H195 H 0.7693 0.85915 0.65089 0.0
H196 H 0.81776 0.7985 0.57405 0.0
H197 H 0.77605 0.76471 0.56486 0.0
H198 H 0.85164 0.82374 0.65379 0.0
H199 H 0.78463 0.85325 0.52045 0.0
H200 H 0.73687 0.86927 0.48132 0.0
H201 H 0.73963 0.94413 0.57451 0.0
H202 H 0.78726 0.92831 0.61462 0.0
H203 H 0.95108 0.89413 0.53426 0.0
H204 H 0.91511 0.86736 0.57077 0.0
H205 H 0.88306 0.94805 0.62507 0.0
H206 H 0.91939 0.9751 0.58759 0.0
H207 H 0.83987 0.91829 0.5765 0.0
H208 H 0.912 0.89411 0.69925 0.0
H209 H 0.96015 0.87866 0.73755 0.0
H210 H 0.94859 0.79498 0.66707 0.0
H211 H 0.90056 0.81004 0.62775 0.0
C212 C 0.74727 0.81897 0.62782 0.0
C213 C 0.74875 0.79199 0.60393 0.0
C214 C 0.77105 0.8384 0.63264 0.0
C215 C 0.7967 0.83128 0.61335 0.0
C216 C 0.79832 0.80428 0.58972 0.0
C217 C 0.77446 0.78498 0.58451 0.0
C218 C 0.82139 0.85242 0.61546 0.0
C219 C 0.84918 0.84442 0.63689 0.0
C220 C 0.81787 0.87989 0.59505 0.0
C221 C 0.78928 0.88939 0.57093 0.0
C222 C 0.77491 0.87298 0.53288 0.0
C223 C 0.7479 0.88205 0.51046 0.0
C224 C 0.73517 0.90764 0.52554 0.0
C225 C 0.74948 0.92427 0.56296 0.0
C226 C 0.77648 0.91526 0.58554 0.0
C227 C 0.93721 0.90607 0.5557 0.0
C228 C 0.9381 0.93658 0.55851 0.0
C229 C 0.9166 0.89074 0.57667 0.0
C230 C 0.89633 0.90558 0.60098 0.0
C231 C 0.89854 0.93609 0.60668 0.0
C232 C 0.91947 0.95153 0.58576 0.0
C233 C 0.87058 0.88931 0.6136 0.0
C234 C 0.84243 0.89807 0.59475 0.0
C235 C 0.8738 0.86262 0.63664 0.0
C236 C 0.90264 0.85328 0.66041 0.0
C237 C 0.91978 0.87247 0.69167 0.0
C238 C 0.94706 0.86377 0.71361 0.0
C239 C 0.95743 0.83586 0.70473 0.0
C240 C 0.94051 0.81658 0.67395 0.0
C241 C 0.91322 0.82517 0.6519 0.0
H242 H 0.97856 0.82918 0.72173 0.0
H243 H 0.71426 0.91464 0.50813 0.0
H244 H 0.76226 0.28483 0.93698 0.0
H245 H 0.73039 0.32782 0.93177 0.0
H246 H 0.68179 0.29303 0.03528 0.0
H247 H 0.71342 0.25032 0.04043 0.0
H248 H 0.64571 0.31195 0.96107 0.0
H249 H 0.73182 0.34722 0.06273 0.0
H250 H 0.78447 0.35874 0.0823 0.0
H251 H 0.77997 0.41618 0.96812 0.0
H252 H 0.72733 0.40469 0.94754 0.0
H253 H 0.58925 0.41453 0.10078 0.0
H254 H 0.62576 0.38439 0.06997 0.0
H255 H 0.6163 0.43248 0.94418 0.0
H256 H 0.57861 0.46319 0.97479 0.0
H257 H 0.6816 0.41229 0.0047 0.0
H258 H 0.5909 0.38203 0.91363 0.0
H259 H 0.53781 0.37229 0.90449 0.0
H260 H 0.55102 0.3048 0.00349 0.0
H261 H 0.6042 0.31503 0.01474 0.0
C262 C 0.74492 0.28665 0.95887 0.0
C263 C 0.74048 0.26452 0.98954 0.0
C264 C 0.72675 0.31111 0.95583 0.0
C265 C 0.70375 0.31365 0.9832 0.0
C266 C 0.69934 0.29148 0.01372 0.0
C267 C 0.71751 0.26718 0.01688 0.0
C268 C 0.68388 0.33911 0.98036 0.0
C269 C 0.65362 0.33394 0.97004 0.0
C270 C 0.69418 0.36795 0.99087 0.0
C271 C 0.72578 0.37478 0.0032 0.0
C272 C 0.74213 0.36209 0.04154 0.0
C273 C 0.77195 0.36866 0.05287 0.0
C274 C 0.78559 0.38809 0.02636 0.0
C275 C 0.7694 0.40107 0.98854 0.0
C276 C 0.73958 0.39454 0.97703 0.0
C277 C 0.59485 0.4191 0.06663 0.0
C278 C 0.58066 0.44121 0.04006 0.0
C279 C 0.61593 0.40182 0.0492 0.0
C280 C 0.62362 0.40617 0.0049 0.0
C281 C 0.61058 0.4289 0.97859 0.0
C282 C 0.58903 0.44628 0.99601 0.0
C283 C 0.64359 0.38488 0.98632 0.0
C284 C 0.67384 0.39058 0.99337 0.0
C285 C 0.63336 0.35643 0.97294 0.0
C286 C 0.60153 0.34947 0.96525 0.0
C287 C 0.58247 0.36529 0.93378 0.0
C288 C 0.55234 0.35965 0.92818 0.0
C289 C 0.54101 0.33785 0.95326 0.0
C290 C 0.55982 0.32167 0.98405 0.0
C291 C 0.58997 0.32743 0.99013 0.0
H292 H 0.51766 0.3335 0.94889 0.0
H293 H 0.80867 0.39317 0.0352 0.0
H294 H 0.18294 0.83222 0.1814 0.0
H295 H 0.16176 0.85474 0.24709 0.0
H296 H 0.17939 0.9399 0.19917 0.0
H297 H 0.20018 0.91745 0.13265 0.0
H298 H 0.19003 0.92528 0.30977 0.0
H299 H 0.11995 0.93011 0.16855 0.0
H300 H 0.09417 0.90837 0.09564 0.0
H301 H 0.05936 0.84095 0.17195 0.0
H302 H 0.08542 0.86204 0.24525 0.0
H303 H 0.08213 0.99855 0.43473 0.0
H304 H 0.11786 0.98342 0.38256 0.0
H305 H 0.07872 0.8976 0.3677 0.0
H306 H 0.0427 0.91288 0.41808 0.0
H307 H 0.08143 0.91768 0.2863 0.0
H308 H 0.14827 0.91245 0.42732 0.0
H309 H 0.17544 0.93085 0.5014 0.0
H310 H 0.21746 0.99561 0.4293 0.0
H311 H 0.18998 0.97807 0.35478 0.0
C312 C 0.1829 0.85573 0.18545 0.0
C313 C 0.19307 0.87313 0.15195 0.0
C314 C 0.17086 0.86854 0.22294 0.0
C315 C 0.16919 0.89891 0.22792 0.0
C316 C 0.18076 0.91641 0.196 0.0
C317 C 0.19237 0.9036 0.15796 0.0
C318 C 0.1519 0.91191 0.26284 0.0
C319 C 0.16627 0.92416 0.30461 0.0
C320 C 0.12102 0.90985 0.25611 0.0
C321 C 0.10487 0.89747 0.21226 0.0
C322 C 0.10701 0.9105 0.16971 0.0
C323 C 0.09232 0.89833 0.12833 0.0
C324 C 0.0752 0.87324 0.12914 0.0
C325 C 0.07266 0.86035 0.17137 0.0
C326 C 0.08738 0.87242 0.21283 0.0
C327 C 0.0817 0.9763 0.4211 0.0
C328 C 0.05957 0.95693 0.43004 0.0
C329 C 0.10207 0.96766 0.39129 0.0
C330 C 0.10085 0.93939 0.37087 0.0
C331 C 0.0799 0.91961 0.38249 0.0
C332 C 0.0594 0.92832 0.41146 0.0
C333 C 0.11938 0.93076 0.33436 0.0
C334 C 0.10518 0.91926 0.29182 0.0
C335 C 0.15037 0.93343 0.34078 0.0
C336 C 0.16678 0.94416 0.38552 0.0
C337 C 0.16304 0.93084 0.42729 0.0
C338 C 0.17851 0.94111 0.46935 0.0
C339 C 0.19803 0.9645 0.47005 0.0
C340 C 0.20219 0.97762 0.42867 0.0
C341 C 0.18667 0.96753 0.38652 0.0
H342 H 0.21003 0.97238 0.50264 0.0
H343 H 0.06385 0.86384 0.09708 0.0
H344 H 0.68554 0.62398 0.6332 0.0
H345 H 0.67162 0.59768 0.69892 0.0
H346 H 0.65711 0.67927 0.77012 0.0
H347 H 0.67156 0.70569 0.70469 0.0
H348 H 0.68167 0.64121 0.83049 0.0
H349 H 0.60032 0.63999 0.70794 0.0
H350 H 0.57571 0.63044 0.62821 0.0
H351 H 0.59482 0.53942 0.6394 0.0
H352 H 0.61992 0.5485 0.71903 0.0
H353 H 0.56493 0.61163 0.95857 0.0
H354 H 0.60166 0.62681 0.91048 0.0
H355 H 0.61544 0.53712 0.87073 0.0
H356 H 0.57879 0.52177 0.91993 0.0
H357 H 0.59786 0.57229 0.79621 0.0
H358 H 0.67186 0.57434 0.92642 0.0
H359 H 0.69433 0.58578 0.00676 0.0
H360 H 0.68638 0.67717 0.98259 0.0
H361 H 0.66345 0.66631 0.90228 0.0
C362 C 0.6795 0.6363 0.66298 0.0
C363 C 0.6793 0.66689 0.66362 0.0
C364 C 0.67158 0.62125 0.70053 0.0
C365 C 0.66282 0.63647 0.73916 0.0
C366 C 0.66377 0.66705 0.7407 0.0
C367 C 0.67199 0.68213 0.7033 0.0
C368 C 0.65108 0.62064 0.7767 0.0
C369 C 0.66326 0.62623 0.82306 0.0
C370 C 0.62753 0.6005 0.76696 0.0
C371 C 0.61231 0.59497 0.7192 0.0
C372 C 0.59947 0.61797 0.69326 0.0
C373 C 0.58541 0.61264 0.64811 0.0
C374 C 0.58379 0.58436 0.62869 0.0
C375 C 0.59615 0.56133 0.65445 0.0
C376 C 0.61029 0.56655 0.69959 0.0
C377 C 0.57665 0.59509 0.94103 0.0
C378 C 0.56919 0.56557 0.94298 0.0
C379 C 0.59765 0.60377 0.91356 0.0
C380 C 0.6113 0.58311 0.88699 0.0
C381 C 0.60525 0.55339 0.89117 0.0
C382 C 0.58453 0.54462 0.91948 0.0
C383 C 0.62814 0.59318 0.85012 0.0
C384 C 0.61673 0.5867 0.8037 0.0
C385 C 0.65209 0.61278 0.85994 0.0
C386 C 0.66576 0.61948 0.90833 0.0
C387 C 0.67467 0.59688 0.93832 0.0
C388 C 0.68754 0.60327 0.98386 0.0
C389 C 0.69174 0.63218 0.99979 0.0
C390 C 0.68311 0.65478 0.9702 0.0
C391 C 0.67021 0.64851 0.92463 0.0
H392 H 0.70173 0.63708 0.03505 0.0
H393 H 0.57289 0.58027 0.59374 0.0
H394 H 0.8998 0.1983 0.09116 0.0
H395 H 0.92221 0.17976 0.16545 0.0
H396 H 0.83742 0.14902 0.19255 0.0
H397 H 0.81486 0.16913 0.1194 0.0
H398 H 0.86584 0.1669 0.27011 0.0
H399 H 0.8902 0.10426 0.14493 0.0
H400 H 0.91013 0.09186 0.07182 0.0
H401 H 0.9955 0.12159 0.13293 0.0
H402 H 0.97597 0.13455 0.20623 0.0
H403 H 0.90593 0.03933 0.39505 0.0
H404 H 0.8884 0.0757 0.33881 0.0
H405 H 0.97318 0.11787 0.36023 0.0
H406 H 0.99074 0.08176 0.41783 0.0
H407 H 0.94958 0.0997 0.26377 0.0
H408 H 0.92294 0.15474 0.3949 0.0
H409 H 0.90035 0.16207 0.46696 0.0
H410 H 0.81577 0.14039 0.39277 0.0
H411 H 0.83792 0.13247 0.32038 0.0
C412 C 0.886 0.18792 0.11345 0.0
C413 C 0.85572 0.18493 0.09975 0.0
C414 C 0.89879 0.17717 0.1557 0.0
C415 C 0.88167 0.1623 0.18424 0.0
C416 C 0.85116 0.16031 0.17122 0.0
C417 C 0.83827 0.17171 0.12944 0.0
C418 C 0.8956 0.14758 0.22634 0.0
C419 C 0.88405 0.15211 0.26856 0.0
C420 C 0.91974 0.12857 0.22481 0.0
C421 C 0.93155 0.1207 0.18085 0.0
C422 C 0.91318 0.10834 0.14265 0.0
C423 C 0.9244 0.1012 0.1012 0.0
C424 C 0.95404 0.10602 0.09769 0.0
C425 C 0.97254 0.11793 0.13567 0.0
C426 C 0.96141 0.12517 0.17718 0.0
C427 C 0.92069 0.05666 0.38844 0.0
C428 C 0.94971 0.05772 0.41065 0.0
C429 C 0.91062 0.07745 0.35644 0.0
C430 C 0.92949 0.09944 0.34548 0.0
C431 C 0.95828 0.10109 0.36847 0.0
C432 C 0.96823 0.08058 0.40139 0.0
C433 C 0.91957 0.11883 0.30698 0.0
C434 C 0.93176 0.11498 0.26538 0.0
C435 C 0.89561 0.13783 0.30883 0.0
C436 C 0.88215 0.14282 0.35224 0.0
C437 C 0.89956 0.15131 0.394 0.0
C438 C 0.88683 0.15561 0.43491 0.0
C439 C 0.85665 0.15165 0.43446 0.0
C440 C 0.83914 0.14344 0.39307 0.0
C441 C 0.85177 0.13909 0.35207 0.0
H442 H 0.84683 0.15498 0.46617 0.0
H443 H 0.96269 0.10047 0.06557 0.0
H444 H 0.29858 0.35227 0.6049 0.0
H445 H 0.32322 0.36734 0.68167 0.0
H446 H 0.4017 0.38711 0.62145 0.0
H447 H 0.37799 0.37023 0.54541 0.0
H448 H 0.41674 0.36314 0.69972 0.0
H449 H 0.35004 0.44039 0.65003 0.0
H450 H 0.30185 0.4617 0.62364 0.0
H451 H 0.26945 0.435 0.74802 0.0
H452 H 0.31737 0.41322 0.77488 0.0
H453 H 0.48088 0.48242 0.83937 0.0
H454 H 0.45627 0.44839 0.78007 0.0
H455 H 0.40273 0.41686 0.87956 0.0
H456 H 0.42828 0.45039 0.93978 0.0
H457 H 0.37213 0.44 0.79167 0.0
H458 H 0.44169 0.36759 0.84426 0.0
H459 H 0.49037 0.34715 0.8693 0.0
H460 H 0.5185 0.36784 0.73873 0.0
H461 H 0.46978 0.38823 0.71273 0.0
C462 C 0.32123 0.35937 0.60804 0.0
C463 C 0.33612 0.36029 0.56861 0.0
C464 C 0.33521 0.36834 0.65199 0.0
C465 C 0.36421 0.37892 0.6574 0.0
C466 C 0.37929 0.3792 0.61832 0.0
C467 C 0.3655 0.36989 0.57457 0.0
C468 C 0.37887 0.39029 0.70331 0.0
C469 C 0.40696 0.38004 0.71961 0.0
C470 C 0.36592 0.41177 0.73027 0.0
C471 C 0.33715 0.42487 0.71417 0.0
C472 C 0.33256 0.43888 0.67157 0.0
C473 C 0.30531 0.45107 0.65656 0.0
C474 C 0.28257 0.44961 0.68406 0.0
C475 C 0.28706 0.43604 0.72671 0.0
C476 C 0.31426 0.42379 0.74185 0.0
C477 C 0.46447 0.46759 0.84887 0.0
C478 C 0.45655 0.46874 0.894 0.0
C479 C 0.45042 0.44821 0.81506 0.0
C480 C 0.42772 0.43011 0.82547 0.0
C481 C 0.42033 0.43056 0.871 0.0
C482 C 0.43498 0.44952 0.90532 0.0
C483 C 0.41007 0.41328 0.78717 0.0
C484 C 0.38153 0.42265 0.77215 0.0
C485 C 0.4227 0.3913 0.7611 0.0
C486 C 0.45218 0.37962 0.77672 0.0
C487 C 0.45834 0.368 0.82103 0.0
C488 C 0.48591 0.35633 0.83533 0.0
C489 C 0.5076 0.35633 0.80574 0.0
C490 C 0.50169 0.36787 0.76165 0.0
C491 C 0.47405 0.37937 0.74702 0.0
H492 H 0.52896 0.34731 0.81692 0.0
H493 H 0.26149 0.45907 0.67239 0.0
H494 H 0.67184 0.63108 0.50595 0.0
H495 H 0.64785 0.61241 0.43104 0.0
H496 H 0.63006 0.70007 0.38773 0.0
H497 H 0.65348 0.71904 0.46376 0.0
H498 H 0.5823 0.66468 0.36393 0.0
H499 H 0.68268 0.66232 0.34289 0.0
H500 H 0.73546 0.65263 0.36215 0.0
H501 H 0.71763 0.56093 0.36217 0.0
H502 H 0.66467 0.57008 0.34359 0.0
H503 H 0.53944 0.59563 0.13317 0.0
H504 H 0.56465 0.62819 0.19491 0.0
H505 H 0.58318 0.55487 0.2823 0.0
H506 H 0.55789 0.52255 0.22184 0.0
H507 H 0.63286 0.59163 0.27315 0.0
H508 H 0.53137 0.59673 0.3049 0.0
H509 H 0.47895 0.60725 0.28312 0.0
H510 H 0.5002 0.69593 0.25876 0.0
H511 H 0.55285 0.68578 0.27974 0.0
C512 C 0.6627 0.64646 0.48068 0.0
C513 C 0.66451 0.67657 0.49095 0.0
C514 C 0.64921 0.63574 0.43763 0.0
C515 C 0.63743 0.65483 0.40349 0.0
C516 C 0.6391 0.68494 0.41348 0.0
C517 C 0.65269 0.69574 0.45676 0.0
C518 C 0.62316 0.64285 0.35785 0.0
C519 C 0.59356 0.64921 0.34351 0.0
C520 C 0.63777 0.62263 0.3311 0.0
C521 C 0.66965 0.61692 0.34209 0.0
C522 C 0.68998 0.6401 0.34731 0.0
C523 C 0.71994 0.6347 0.35806 0.0
C524 C 0.72989 0.60618 0.36344 0.0
C525 C 0.70989 0.583 0.35799 0.0
C526 C 0.67989 0.58828 0.34728 0.0
C527 C 0.54877 0.58655 0.16567 0.0
C528 C 0.54663 0.55651 0.1726 0.0
C529 C 0.56312 0.60514 0.20083 0.0
C530 C 0.57585 0.59385 0.24302 0.0
C531 C 0.57362 0.56397 0.24992 0.0
C532 C 0.55898 0.54555 0.21533 0.0
C533 C 0.5919 0.61269 0.2804 0.0
C534 C 0.62186 0.6076 0.29308 0.0
C535 C 0.5777 0.63423 0.30518 0.0
C536 C 0.54605 0.64041 0.2933 0.0
C537 C 0.52489 0.61841 0.29451 0.0
C538 C 0.49513 0.62431 0.28238 0.0
C539 C 0.48625 0.65221 0.26939 0.0
C540 C 0.50712 0.6743 0.26872 0.0
C541 C 0.53691 0.6685 0.28075 0.0
H542 H 0.46321 0.65673 0.25996 0.0
H543 H 0.75309 0.60205 0.37177 0.0
H544 H 0.89538 0.17036 0.95538 0.0
H545 H 0.91056 0.14582 0.88672 0.0
H546 H 0.82207 0.14993 0.81698 0.0
H547 H 0.80626 0.17297 0.88667 0.0
H548 H 0.84538 0.09918 0.79676 0.0
H549 H 0.87466 0.19891 0.79482 0.0
H550 H 0.89825 0.24484 0.82661 0.0
H551 H 0.98204 0.20285 0.84427 0.0
H552 H 0.95888 0.15655 0.81316 0.0
H553 H 0.9447 0.11162 0.5931 0.0
H554 H 0.91244 0.13161 0.6467 0.0
H555 H 0.91485 0.04981 0.7158 0.0
H556 H 0.94573 0.02934 0.6602 0.0
H557 H 0.92962 0.14177 0.73108 0.0
H558 H 0.86104 0.04492 0.78441 0.0
H559 H 0.83484 0.00147 0.74776 0.0
H560 H 0.82361 0.04255 0.61614 0.0
H561 H 0.84938 0.08639 0.65208 0.0
C562 C 0.87899 0.16569 0.92579 0.0
C563 C 0.84959 0.17388 0.9266 0.0
C564 C 0.88778 0.15188 0.88631 0.0
C565 C 0.86755 0.14645 0.84637 0.0
C566 C 0.83809 0.15401 0.8473 0.0
C567 C 0.82919 0.16756 0.887 0.0
C568 C 0.87746 0.13381 0.80326 0.0
C569 C 0.86373 0.10849 0.78219 0.0
C570 C 0.90093 0.14635 0.78359 0.0
C571 C 0.91499 0.17421 0.80198 0.0
C572 C 0.89809 0.19943 0.80574 0.0
C573 C 0.91139 0.22553 0.82361 0.0
C574 C 0.94162 0.22674 0.83753 0.0
C575 C 0.95863 0.20187 0.8335 0.0
C576 C 0.94543 0.1757 0.8157 0.0
C577 C 0.93731 0.09762 0.61861 0.0
C578 C 0.94755 0.069 0.62264 0.0
C579 C 0.91909 0.10909 0.64947 0.0
C580 C 0.91134 0.09239 0.68572 0.0
C581 C 0.92005 0.06308 0.68782 0.0
C582 C 0.93772 0.05135 0.65605 0.0
C583 C 0.8978 0.10679 0.72441 0.0
C584 C 0.91102 0.13247 0.74502 0.0
C585 C 0.87341 0.09494 0.74271 0.0
C586 C 0.85738 0.06886 0.72092 0.0
C587 C 0.85284 0.04475 0.7477 0.0
C588 C 0.8381 0.02003 0.72703 0.0
C589 C 0.82765 0.01921 0.67962 0.0
C590 C 0.83181 0.04317 0.65282 0.0
C591 C 0.84652 0.06795 0.67332 0.0
H592 H 0.81628 1.00004 0.66368 0.0
H593 H 0.95187 0.24697 0.85137 0.0
H594 H 0.32107 0.41657 0.42569 0.0
H595 H 0.33893 0.44013 0.36016 0.0
H596 H 0.34351 0.35648 0.28956 0.0
H597 H 0.32633 0.33279 0.35521 0.0
H598 H 0.39408 0.38701 0.29335 0.0
H599 H 0.29106 0.40566 0.25352 0.0
H600 H 0.24259 0.42451 0.26687 0.0
H601 H 0.27813 0.51117 0.28624 0.0
H602 H 0.32696 0.49278 0.27373 0.0
H603 H 0.4305 0.42248 0.08106 0.0
H604 H 0.39739 0.40747 0.13524 0.0
H605 H 0.39992 0.49438 0.1966 0.0
H606 H 0.4327 0.50978 0.1413 0.0
H607 H 0.34565 0.46575 0.19964 0.0
H608 H 0.44786 0.44844 0.24241 0.0
H609 H 0.49709 0.43109 0.23033 0.0
H610 H 0.46407 0.34356 0.20909 0.0
H611 H 0.41448 0.36048 0.22025 0.0
C612 C 0.32578 0.40322 0.3961 0.0
C613 C 0.32237 0.37277 0.39575 0.0
C614 C 0.33572 0.41675 0.35849 0.0
C615 C 0.34241 0.40009 0.31982 0.0
C616 C 0.3384 0.36978 0.31898 0.0
C617 C 0.32838 0.35628 0.35642 0.0
C618 C 0.35567 0.41378 0.28172 0.0
C619 C 0.38324 0.40392 0.27248 0.0
C620 C 0.3421 0.43671 0.25569 0.0
C621 C 0.31276 0.44777 0.26326 0.0
C622 C 0.28862 0.4287 0.2611 0.0
C623 C 0.26106 0.43931 0.26842 0.0
C624 C 0.2573 0.469 0.27756 0.0
C625 C 0.28109 0.48816 0.27926 0.0
C626 C 0.30871 0.47766 0.27204 0.0
C627 C 0.42319 0.43865 0.10502 0.0
C628 C 0.43442 0.46717 0.10741 0.0
C629 C 0.40436 0.43003 0.13607 0.0
C630 C 0.39687 0.44959 0.17076 0.0
C631 C 0.40562 0.47889 0.1703 0.0
C632 C 0.42427 0.48767 0.13863 0.0
C633 C 0.38357 0.4383 0.21066 0.0
C634 C 0.35632 0.44877 0.22053 0.0
C635 C 0.39752 0.41611 0.23787 0.0
C636 C 0.4274 0.40577 0.23174 0.0
C637 C 0.45105 0.42552 0.23483 0.0
C638 C 0.47902 0.41577 0.22818 0.0
C639 C 0.48369 0.38625 0.21884 0.0
C640 C 0.4604 0.36642 0.21627 0.0
C641 C 0.43236 0.37608 0.22277 0.0
H642 H 0.50537 0.37874 0.2137 0.0
H643 H 0.23595 0.47717 0.28319 0.0
H644 H 0.18337 0.91001 0.99787 0.0
H645 H 0.15543 0.92537 0.9258 0.0
H646 H 0.1505 0.83665 0.87241 0.0
H647 H 0.1773 0.82064 0.94558 0.0
H648 H 0.16551 0.88637 0.80797 0.0
H649 H 0.09398 0.85283 0.90224 0.0
H650 H 0.07299 0.84937 0.97591 0.0
H651 H 0.06036 0.94185 0.98074 0.0
H652 H 0.08177 0.94593 0.90747 0.0
H653 H 0.05817 0.93684 0.62451 0.0
H654 H 0.08217 0.90495 0.68413 0.0
H655 H 0.08091 0.9744 0.78767 0.0
H656 H 0.05704 0.00593 0.72918 0.0
H657 H 0.0658 0.92415 0.82125 0.0
H658 H 0.14211 0.95976 0.7371 0.0
H659 H 0.16633 0.96689 0.66725 0.0
H660 H 0.17229 0.87433 0.64581 0.0
H661 H 0.14772 0.86667 0.71527 0.0
C662 C 0.17625 0.89361 0.97109 0.0
C663 C 0.18228 0.86397 0.97808 0.0
C664 C 0.16052 0.90252 0.9297 0.0
C665 C 0.15082 0.88211 0.89401 0.0
C666 C 0.15792 0.8527 0.89961 0.0
C667 C 0.17335 0.84365 0.94143 0.0
C668 C 0.13172 0.89173 0.85239 0.0
C669 C 0.14341 0.89397 0.81033 0.0
C670 C 0.10317 0.90212 0.856 0.0
C671 C 0.08968 0.8997 0.89953 0.0
C672 C 0.08693 0.87246 0.91918 0.0
C673 C 0.07493 0.87038 0.96084 0.0
C674 C 0.0654 0.89538 0.98304 0.0
C675 C 0.06777 0.9225 0.96352 0.0
C676 C 0.0798 0.92471 0.92189 0.0
C677 C 0.06279 0.94513 0.66009 0.0
C678 C 0.05586 0.97399 0.67197 0.0
C679 C 0.0766 0.92696 0.69405 0.0
C680 C 0.08352 0.93736 0.74035 0.0
C681 C 0.07576 0.96583 0.75229 0.0
C682 C 0.06222 0.98392 0.7186 0.0
C683 C 0.0997 0.91943 0.77673 0.0
C684 C 0.08752 0.91577 0.81814 0.0
C685 C 0.12792 0.90808 0.7726 0.0
C686 C 0.14272 0.91264 0.73095 0.0
C687 C 0.14835 0.94093 0.71724 0.0
C688 C 0.16218 0.94507 0.67778 0.0
C689 C 0.17074 0.92107 0.65199 0.0
C690 C 0.16557 0.89289 0.66573 0.0
C691 C 0.1517 0.88864 0.70514 0.0
H692 H 0.18145 0.92432 0.62144 0.0
H693 H 0.05613 0.89373 0.0153 0.0
loop_
_geom_bond_atom_site_label_1
_geom_bond_atom_site_label_2
_geom_bond_distance
_geom_bond_site_symmetry_2
_ccdc_geom_bond_type
H0 C7 0.929 . S
H1 C10 0.930 . S
H2 C12 0.929 1_556 S
H3 C4 0.969 . S
C4 H3 0.969 . S
C4 O5 1.550 . S
C4 H6 0.973 . S
O5 C4 1.550 . S
O5 C11 1.412 . S
H6 C4 0.973 . S
C7 H0 0.929 . S
C7 C8 1.400 . S
C7 C9 1.364 . S
C8 C7 1.400 . S
C8 C12 1.377 . S
C9 C7 1.364 . S
C9 C10 1.374 . S
C10 H1 0.930 . S
C10 C9 1.374 . S
C10 C11 1.383 . S
C11 O5 1.412 . S
C11 C10 1.383 . S
C11 C12 1.394 . S
C12 H2 0.929 1_554 S
C12 C8 1.377 . S
C12 C11 1.394 . S
H13 C20 0.929 . S
H14 C23 0.930 . S
H15 C25 0.929 . S
H16 C17 0.969 . S
C17 H16 0.969 . S
C17 O18 1.550 . S
C17 H19 0.973 . S
O18 C17 1.550 . S
O18 C24 1.412 . S
H19 C17 0.973 . S
C20 H13 0.929 . S
C20 C21 1.400 . S
C20 C22 1.364 . S
C21 C20 1.400 . S
C21 C25 1.377 . S
C22 C20 1.364 . S
C22 C23 1.374 . S
C23 H14 0.930 . S
C23 C22 1.374 . S
C23 C24 1.383 . S
C24 O18 1.412 . S
C24 C23 1.383 . S
C24 C25 1.394 . S
C25 H15 0.929 . S
C25 C21 1.377 . S
C25 C24 1.394 . S
H26 C33 0.929 . S
H27 C36 0.930 . S
H28 C38 0.929 . S
H29 C30 0.969 . S
C30 H29 0.969 . S
C30 O31 1.550 1_556 S
C30 H32 0.973 . S
O31 C30 1.550 1_554 S
O31 C37 1.412 . S
H32 C30 0.973 . S
C33 H26 0.929 . S
C33 C34 1.400 . S
C33 C35 1.364 1_554 S
C34 C33 1.400 . S
C34 C38 1.377 . S
C35 C33 1.364 1_556 S
C35 C36 1.374 . S
C36 H27 0.930 . S
C36 C35 1.374 . S
C36 C37 1.383 1_556 S
C37 O31 1.412 . S
C37 C36 1.383 1_554 S
C37 C38 1.394 . S
C38 H28 0.929 . S
C38 C34 1.377 . S
C38 C37 1.394 . S
H39 C46 0.929 . S
H40 C49 0.930 . S
H41 C51 0.929 . S
H42 C43 0.969 . S
C43 H42 0.969 . S
C43 O44 1.550 . S
C43 H45 0.973 . S
O44 C43 1.550 . S
O44 C50 1.412 . S
H45 C43 0.973 . S
C46 H39 0.929 . S
C46 C47 1.400 . S
C46 C48 1.364 . S
C47 C46 1.400 . S
C47 C51 1.377 . S
C48 C46 1.364 . S
C48 C49 1.374 . S
C49 H40 0.930 . S
C49 C48 1.374 . S
C49 C50 1.383 . S
C50 O44 1.412 . S
C50 C49 1.383 . S
C50 C51 1.394 . S
C51 H41 0.929 . S
C51 C47 1.377 . S
C51 C50 1.394 . S
O52 Mg53 1.990 . S
O52 C66 1.253 1_455 S
Mg53 O52 1.990 . S
Mg53 O56 2.180 . S
Mg53 O57 2.117 . S
Mg53 O71 2.030 . S
O54 Mg55 2.072 1_655 S
O54 C66 1.260 . S
Mg55 O54 2.072 1_455 S
Mg55 O56 2.099 . S
Mg55 O58 2.079 1_545 S
Mg55 O59 2.072 1_455 S
Mg55 O61 2.099 1_445 S
Mg55 O72 2.079 1_545 S
O56 Mg53 2.180 . S
O56 Mg55 2.099 . S
O56 C67 1.279 . S
O57 Mg53 2.117 . S
O57 C67 1.250 . S
O58 Mg55 2.079 1_565 S
O58 C68 1.264 . S
O59 Mg55 2.072 1_655 S
O59 C69 1.260 . S
Mg60 O61 2.180 . S
Mg60 O62 2.030 1_655 S
Mg60 O63 1.990 1_565 S
Mg60 O64 2.117 . S
O61 Mg55 2.099 1_665 S
O61 Mg60 2.180 . S
O61 C70 1.279 . S
O62 Mg60 2.030 1_455 S
O62 C68 1.248 . S
O63 Mg60 1.990 1_545 S
O63 C69 1.253 . S
O64 Mg60 2.117 . S
O64 C70 1.250 . S
C65 O71 1.248 1_565 S
C65 O72 1.264 . S
C66 O52 1.253 1_655 S
C66 O54 1.260 . S
C67 O56 1.279 . S
C67 O57 1.250 . S
C68 O58 1.264 . S
C68 O62 1.248 . S
C69 O59 1.260 . S
C69 O63 1.253 . S
C70 O61 1.279 . S
C70 O64 1.250 . S
O71 Mg53 2.030 . S
O71 C65 1.248 1_545 S
O72 Mg55 2.079 1_565 S
O72 C65 1.264 . S
O73 Mg74 1.990 . S
O73 C87 1.253 . S
Mg74 O73 1.990 . S
Mg74 O77 2.180 . S
Mg74 O78 2.117 . S
Mg74 O92 2.030 . S
O75 Mg76 2.072 . S
O75 C87 1.260 . S
Mg76 O75 2.072 . S
Mg76 O77 2.099 . S
Mg76 O79 2.079 1_554 S
Mg76 O80 2.072 1_554 S
Mg76 O82 2.099 . S
Mg76 O93 2.079 . S
O77 Mg74 2.180 . S
O77 Mg76 2.099 . S
O77 C88 1.279 . S
O78 Mg74 2.117 . S
O78 C88 1.250 . S
O79 Mg76 2.079 1_556 S
O79 C89 1.264 . S
O80 Mg76 2.072 1_556 S
O80 C90 1.260 . S
Mg81 O82 2.180 1_556 S
Mg81 O83 2.030 . S
Mg81 O84 1.990 . S
Mg81 O85 2.117 . S
O82 Mg76 2.099 . S
O82 Mg81 2.180 1_554 S
O82 C91 1.279 . S
O83 Mg81 2.030 . S
O83 C89 1.248 . S
O84 Mg81 1.990 . S
O84 C90 1.253 . S
O85 Mg81 2.117 . S
O85 C91 1.250 1_556 S
C86 O92 1.248 . S
C86 O93 1.264 . S
C87 O73 1.253 . S
C87 O75 1.260 . S
C88 O77 1.279 . S
C88 O78 1.250 . S
C89 O79 1.264 . S
C89 O83 1.248 . S
C90 O80 1.260 . S
C90 O84 1.253 . S
C91 O82 1.279 . S
C91 O85 1.250 1_554 S
O92 Mg74 2.030 . S
O92 C86 1.248 . S
O93 Mg76 2.079 . S
O93 C86 1.264 . S
H94 C112 0.951 . S
H95 C114 0.951 . S
H96 C116 0.950 . S
H97 C117 0.950 . S
H98 C119 0.950 . S
H99 C122 0.950 . S
H100 C123 0.950 . S
H101 C125 0.950 . S
H102 C126 0.950 . S
H103 C127 0.951 . S
H104 C129 0.951 . S
H105 C131 0.950 . S
H106 C132 0.950 . S
H107 C134 0.950 . S
H108 C137 0.950 . S
H109 C138 0.950 . S
H110 C140 0.950 . S
H111 C141 0.950 . S
C112 H94 0.951 . S
C112 C113 1.366 . S
C112 C114 1.388 . S
C113 C112 1.366 . S
C113 C117 1.385 . S
C114 H95 0.951 . S
C114 C112 1.388 . S
C114 C115 1.366 . S
C115 C114 1.366 . S
C115 C116 1.414 . S
C115 C118 1.499 . S
C116 H96 0.950 . S
C116 C115 1.414 . S
C116 C117 1.374 . S
C117 H97 0.950 . S
C117 C113 1.385 . S
C117 C116 1.374 . S
C118 C115 1.499 . S
C118 C119 1.373 . S
C118 C120 1.389 . S
C119 H98 0.950 . S
C119 C118 1.373 . S
C119 C135 1.377 . S
C120 C118 1.389 . S
C120 C121 1.524 . S
C120 C134 1.377 . S
C121 C120 1.524 . S
C121 C122 1.397 . S
C121 C126 1.363 . S
C122 H99 0.950 . S
C122 C121 1.397 . S
C122 C123 1.334 . S
C123 H100 0.950 . S
C123 C122 1.334 . S
C123 C124 1.287 . S
C124 C123 1.287 . S
C124 C125 1.524 . S
C124 H143 0.913 . S
C125 H101 0.950 . S
C125 C124 1.524 . S
C125 C126 1.415 . S
C126 H102 0.950 . S
C126 C121 1.363 . S
C126 C125 1.415 . S
C127 H103 0.951 . S
C127 C128 1.366 . S
C127 C129 1.388 . S
C128 C127 1.366 . S
C128 C132 1.385 . S
C129 H104 0.951 . S
C129 C127 1.388 . S
C129 C130 1.366 . S
C130 C129 1.366 . S
C130 C131 1.414 . S
C130 C133 1.499 . S
C131 H105 0.950 . S
C131 C130 1.414 . S
C131 C132 1.374 . S
C132 H106 0.950 . S
C132 C128 1.385 . S
C132 C131 1.374 . S
C133 C130 1.499 . S
C133 C134 1.373 . S
C133 C135 1.389 . S
C134 H107 0.950 . S
C134 C120 1.377 . S
C134 C133 1.373 . S
C135 C119 1.377 . S
C135 C133 1.389 . S
C135 C136 1.524 . S
C136 C135 1.524 . S
C136 C137 1.397 . S
C136 C141 1.363 . S
C137 H108 0.950 . S
C137 C136 1.397 . S
C137 C138 1.334 . S
C138 H109 0.950 . S
C138 C137 1.334 . S
C138 C139 1.287 . S
C139 C138 1.287 . S
C139 C140 1.524 . S
C139 H142 0.999 . S
C140 H110 0.950 . S
C140 C139 1.524 . S
C140 C141 1.415 . S
C141 H111 0.950 . S
C141 C136 1.363 . S
C141 C140 1.415 . S
H142 C139 0.999 . S
H143 C124 0.913 . S
H144 C162 0.951 . S
H145 C164 0.951 . S
H146 C166 0.950 . S
H147 C167 0.950 . S
H148 C169 0.950 . S
H149 C172 0.950 . S
H150 C173 0.950 . S
H151 C175 0.950 . S
H152 C176 0.950 1_554 S
H153 C177 0.951 . S
H154 C179 0.951 . S
H155 C181 0.950 . S
H156 C182 0.950 . S
H157 C184 0.950 . S
H158 C187 0.950 . S
H159 C188 0.950 . S
H160 C190 0.950 . S
H161 C191 0.950 . S
C162 H144 0.951 . S
C162 C163 1.366 . S
C162 C164 1.388 . S
C163 C162 1.366 . S
C163 C167 1.385 . S
C164 H145 0.951 . S
C164 C162 1.388 . S
C164 C165 1.366 . S
C165 C164 1.366 . S
C165 C166 1.414 . S
C165 C168 1.499 . S
C166 H146 0.950 . S
C166 C165 1.414 . S
C166 C167 1.374 . S
C167 H147 0.950 . S
C167 C163 1.385 . S
C167 C166 1.374 . S
C168 C165 1.499 . S
C168 C169 1.373 . S
C168 C170 1.389 . S
C169 H148 0.950 . S
C169 C168 1.373 . S
C169 C185 1.377 . S
C170 C168 1.389 . S
C170 C171 1.524 . S
C170 C184 1.377 . S
C171 C170 1.524 . S
C171 C172 1.397 1_554 S
C171 C176 1.363 1_554 S
C172 H149 0.950 . S
C172 C171 1.397 1_556 S
C172 C173 1.334 . S
C173 H150 0.950 . S
C173 C172 1.334 . S
C173 C174 1.287 . S
C174 C173 1.287 . S
C174 C175 1.524 . S
C174 H193 0.913 . S
C175 H151 0.950 . S
C175 C174 1.524 . S
C175 C176 1.415 . S
C176 H152 0.950 1_556 S
C176 C171 1.363 1_556 S
C176 C175 1.415 . S
C177 H153 0.951 . S
C177 C178 1.366 . S
C177 C179 1.388 . S
C178 C177 1.366 . S
C178 C182 1.385 . S
C179 H154 0.951 . S
C179 C177 1.388 . S
C179 C180 1.366 . S
C180 C179 1.366 . S
C180 C181 1.414 . S
C180 C183 1.499 . S
C181 H155 0.950 . S
C181 C180 1.414 . S
C181 C182 1.374 . S
C182 H156 0.950 . S
C182 C178 1.385 . S
C182 C181 1.374 . S
C183 C180 1.499 . S
C183 C184 1.373 . S
C183 C185 1.389 . S
C184 H157 0.950 . S
C184 C170 1.377 . S
C184 C183 1.373 . S
C185 C169 1.377 . S
C185 C183 1.389 . S
C185 C186 1.524 . S
C186 C185 1.524 . S
C186 C187 1.397 . S
C186 C191 1.363 . S
C187 H158 0.950 . S
C187 C186 1.397 . S
C187 C188 1.334 . S
C188 H159 0.950 . S
C188 C187 1.334 . S
C188 C189 1.287 . S
C189 C188 1.287 . S
C189 C190 1.524 . S
C189 H192 0.999 . S
C190 H160 0.950 . S
C190 C189 1.524 . S
C190 C191 1.415 . S
C191 H161 0.950 . S
C191 C186 1.363 . S
C191 C190 1.415 . S
H192 C189 0.999 . S
H193 C174 0.913 . S
H194 C212 0.951 . S
H195 C214 0.951 . S
H196 C216 0.950 . S
H197 C217 0.950 . S
H198 C219 0.950 . S
H199 C222 0.950 . S
H200 C223 0.950 . S
H201 C225 0.950 . S
H202 C226 0.950 . S
H203 C227 0.951 . S
H204 C229 0.951 . S
H205 C231 0.950 . S
H206 C232 0.950 . S
H207 C234 0.950 . S
H208 C237 0.950 . S
H209 C238 0.950 . S
H210 C240 0.950 . S
H211 C241 0.950 . S
C212 H194 0.951 . S
C212 C213 1.366 . S
C212 C214 1.388 . S
C213 C212 1.366 . S
C213 C217 1.385 . S
C214 H195 0.951 . S
C214 C212 1.388 . S
C214 C215 1.366 . S
C215 C214 1.366 . S
C215 C216 1.414 . S
C215 C218 1.499 . S
C216 H196 0.950 . S
C216 C215 1.414 . S
C216 C217 1.374 . S
C217 H197 0.950 . S
C217 C213 1.385 . S
C217 C216 1.374 . S
C218 C215 1.499 . S
C218 C219 1.373 . S
C218 C220 1.389 . S
C219 H198 0.950 . S
C219 C218 1.373 . S
C219 C235 1.377 . S
C220 C218 1.389 . S
C220 C221 1.524 . S
C220 C234 1.377 . S
C221 C220 1.524 . S
C221 C222 1.397 . S
C221 C226 1.363 . S
C222 H199 0.950 . S
C222 C221 1.397 . S
C222 C223 1.334 . S
C223 H200 0.950 . S
C223 C222 1.334 . S
C223 C224 1.287 . S
C224 C223 1.287 . S
C224 C225 1.524 . S
C224 H243 0.913 . S
C225 H201 0.950 . S
C225 C224 1.524 . S
C225 C226 1.415 . S
C226 H202 0.950 . S
C226 C221 1.363 . S
C226 C225 1.415 . S
C227 H203 0.951 . S
C227 C228 1.366 . S
C227 C229 1.388 . S
C228 C227 1.366 . S
C228 C232 1.385 . S
C229 H204 0.951 . S
C229 C227 1.388 . S
C229 C230 1.366 . S
C230 C229 1.366 . S
C230 C231 1.414 . S
C230 C233 1.499 . S
C231 H205 0.950 . S
C231 C230 1.414 . S
C231 C232 1.374 . S
C232 H206 0.950 . S
C232 C228 1.385 . S
C232 C231 1.374 . S
C233 C230 1.499 . S
C233 C234 1.373 . S
C233 C235 1.389 . S
C234 H207 0.950 . S
C234 C220 1.377 . S
C234 C233 1.373 . S
C235 C219 1.377 . S
C235 C233 1.389 . S
C235 C236 1.524 . S
C236 C235 1.524 . S
C236 C237 1.397 . S
C236 C241 1.363 . S
C237 H208 0.950 . S
C237 C236 1.397 . S
C237 C238 1.334 . S
C238 H209 0.950 . S
C238 C237 1.334 . S
C238 C239 1.287 . S
C239 C238 1.287 . S
C239 C240 1.524 . S
C239 H242 0.999 . S
C240 H210 0.950 . S
C240 C239 1.524 . S
C240 C241 1.415 . S
C241 H211 0.950 . S
C241 C236 1.363 . S
C241 C240 1.415 . S
H242 C239 0.999 . S
H243 C224 0.913 . S
H244 C262 0.951 . S
H245 C264 0.951 . S
H246 C266 0.950 . S
H247 C267 0.950 . S
H248 C269 0.950 . S
H249 C272 0.950 . S
H250 C273 0.950 . S
H251 C275 0.950 . S
H252 C276 0.950 1_556 S
H253 C277 0.951 . S
H254 C279 0.951 . S
H255 C281 0.950 . S
H256 C282 0.950 . S
H257 C284 0.950 . S
H258 C287 0.950 . S
H259 C288 0.950 . S
H260 C290 0.946 1_554 S
H261 C291 0.950 . S
C262 H244 0.951 . S
C262 C263 1.366 . S
C262 C264 1.388 . S
C263 C262 1.366 . S
C263 C267 1.385 1_556 S
C264 H245 0.951 . S
C264 C262 1.388 . S
C264 C265 1.366 1_556 S
C265 C264 1.366 1_554 S
C265 C266 1.414 . S
C265 C268 1.499 . S
C266 H246 0.950 . S
C266 C265 1.414 . S
C266 C267 1.374 . S
C267 H247 0.950 . S
C267 C263 1.385 1_554 S
C267 C266 1.374 . S
C268 C265 1.499 . S
C268 C269 1.373 1_554 S
C268 C270 1.389 . S
C269 H248 0.950 . S
C269 C268 1.373 1_556 S
C269 C285 1.377 . S
C270 C268 1.389 . S
C270 C271 1.524 . S
C270 C284 1.377 . S
C271 C270 1.524 . S
C271 C272 1.397 . S
C271 C276 1.363 . S
C272 H249 0.950 . S
C272 C271 1.397 . S
C272 C273 1.334 . S
C273 H250 0.950 . S
C273 C272 1.334 . S
C273 C274 1.287 . S
C274 C273 1.287 . S
C274 C275 1.524 . S
C274 H293 0.913 . S
C275 H251 0.950 . S
C275 C274 1.524 . S
C275 C276 1.415 . S
C276 H252 0.950 1_554 S
C276 C271 1.363 . S
C276 C275 1.415 . S
C277 H253 0.951 . S
C277 C278 1.366 . S
C277 C279 1.388 . S
C278 C277 1.366 . S
C278 C282 1.385 1_554 S
C279 H254 0.951 . S
C279 C277 1.388 . S
C279 C280 1.366 . S
C280 C279 1.366 . S
C280 C281 1.414 1_554 S
C280 C283 1.499 . S
C281 H255 0.950 . S
C281 C280 1.414 1_556 S
C281 C282 1.374 . S
C282 H256 0.950 . S
C282 C278 1.385 1_556 S
C282 C281 1.374 . S
C283 C280 1.499 . S
C283 C284 1.373 . S
C283 C285 1.389 1_554 S
C284 H257 0.950 . S
C284 C270 1.377 . S
C284 C283 1.373 . S
C285 C269 1.377 . S
C285 C283 1.389 1_556 S
C285 C286 1.524 . S
C286 C285 1.524 . S
C286 C287 1.397 . S
C286 C291 1.363 1_556 S
C287 H258 0.950 . S
C287 C286 1.397 . S
C287 C288 1.334 . S
C288 H259 0.950 . S
C288 C287 1.334 . S
C288 C289 1.287 . S
C289 C288 1.287 . S
C289 C290 1.524 . S
C289 H292 0.999 . S
C290 H260 0.946 1_556 S
C290 C289 1.524 . S
C290 C291 1.415 1_556 S
C291 H261 0.950 . S
C291 C286 1.363 1_554 S
C291 C290 1.415 1_554 S
H292 C289 0.999 . S
H293 C274 0.913 . S
H294 C312 0.951 . S
H295 C314 0.951 . S
H296 C316 0.950 . S
H297 C317 0.950 . S
H298 C319 0.950 . S
H299 C322 0.950 . S
H300 C323 0.950 . S
H301 C325 0.950 . S
H302 C326 0.950 . S
H303 C327 0.951 1_545 S
H304 C329 0.951 . S
H305 C331 0.950 . S
H306 C332 0.950 . S
H307 C334 0.950 . S
H308 C337 0.950 . S
H309 C338 0.950 . S
H310 C340 0.950 . S
H311 C341 0.950 . S
C312 H294 0.951 . S
C312 C313 1.366 . S
C312 C314 1.388 . S
C313 C312 1.366 . S
C313 C317 1.385 . S
C314 H295 0.951 . S
C314 C312 1.388 . S
C314 C315 1.366 . S
C315 C314 1.366 . S
C315 C316 1.414 . S
C315 C318 1.499 . S
C316 H296 0.950 . S
C316 C315 1.414 . S
C316 C317 1.374 . S
C317 H297 0.950 . S
C317 C313 1.385 . S
C317 C316 1.374 . S
C318 C315 1.499 . S
C318 C319 1.373 . S
C318 C320 1.389 . S
C319 H298 0.950 . S
C319 C318 1.373 . S
C319 C335 1.377 . S
C320 C318 1.389 . S
C320 C321 1.524 . S
C320 C334 1.377 . S
C321 C320 1.524 . S
C321 C322 1.397 . S
C321 C326 1.363 . S
C322 H299 0.950 . S
C322 C321 1.397 . S
C322 C323 1.334 . S
C323 H300 0.950 . S
C323 C322 1.334 . S
C323 C324 1.287 . S
C324 C323 1.287 . S
C324 C325 1.524 . S
C324 H343 0.913 . S
C325 H301 0.950 . S
C325 C324 1.524 . S
C325 C326 1.415 . S
C326 H302 0.950 . S
C326 C321 1.363 . S
C326 C325 1.415 . S
C327 H303 0.951 1_565 S
C327 C328 1.366 . S
C327 C329 1.388 . S
C328 C327 1.366 . S
C328 C332 1.385 . S
C329 H304 0.951 . S
C329 C327 1.388 . S
C329 C330 1.366 . S
C330 C329 1.366 . S
C330 C331 1.414 . S
C330 C333 1.499 . S
C331 H305 0.950 . S
C331 C330 1.414 . S
C331 C332 1.374 . S
C332 H306 0.950 . S
C332 C328 1.385 . S
C332 C331 1.374 . S
C333 C330 1.499 . S
C333 C334 1.373 . S
C333 C335 1.389 . S
C334 H307 0.950 . S
C334 C320 1.377 . S
C334 C333 1.373 . S
C335 C319 1.377 . S
C335 C333 1.389 . S
C335 C336 1.524 . S
C336 C335 1.524 . S
C336 C337 1.397 . S
C336 C341 1.363 . S
C337 H308 0.950 . S
C337 C336 1.397 . S
C337 C338 1.334 . S
C338 H309 0.950 . S
C338 C337 1.334 . S
C338 C339 1.287 . S
C339 C338 1.287 . S
C339 C340 1.524 . S
C339 H342 0.999 . S
C340 H310 0.950 . S
C340 C339 1.524 . S
C340 C341 1.415 . S
C341 H311 0.950 . S
C341 C336 1.363 . S
C341 C340 1.415 . S
H342 C339 0.999 . S
H343 C324 0.913 . S
H344 C362 0.951 . S
H345 C364 0.951 . S
H346 C366 0.950 . S
H347 C367 0.950 . S
H348 C369 0.950 . S
H349 C372 0.950 . S
H350 C373 0.950 . S
H351 C375 0.950 . S
H352 C376 0.950 . S
H353 C377 0.951 . S
H354 C379 0.951 . S
H355 C381 0.950 . S
H356 C382 0.950 . S
H357 C384 0.950 . S
H358 C387 0.950 . S
H359 C388 0.950 . S
H360 C390 0.950 . S
H361 C391 0.950 . S
C362 H344 0.951 . S
C362 C363 1.366 . S
C362 C364 1.388 . S
C363 C362 1.366 . S
C363 C367 1.385 . S
C364 H345 0.951 . S
C364 C362 1.388 . S
C364 C365 1.366 . S
C365 C364 1.366 . S
C365 C366 1.414 . S
C365 C368 1.499 . S
C366 H346 0.950 . S
C366 C365 1.414 . S
C366 C367 1.374 . S
C367 H347 0.950 . S
C367 C363 1.385 . S
C367 C366 1.374 . S
C368 C365 1.499 . S
C368 C369 1.373 . S
C368 C370 1.389 . S
C369 H348 0.950 . S
C369 C368 1.373 . S
C369 C385 1.377 . S
C370 C368 1.389 . S
C370 C371 1.524 . S
C370 C384 1.377 . S
C371 C370 1.524 . S
C371 C372 1.397 . S
C371 C376 1.363 . S
C372 H349 0.950 . S
C372 C371 1.397 . S
C372 C373 1.334 . S
C373 H350 0.950 . S
C373 C372 1.334 . S
C373 C374 1.287 . S
C374 C373 1.287 . S
C374 C375 1.524 . S
C374 H393 0.913 . S
C375 H351 0.950 . S
C375 C374 1.524 . S
C375 C376 1.415 . S
C376 H352 0.950 . S
C376 C371 1.363 . S
C376 C375 1.415 . S
C377 H353 0.951 . S
C377 C378 1.366 . S
C377 C379 1.388 . S
C378 C377 1.366 . S
C378 C382 1.385 . S
C379 H354 0.951 . S
C379 C377 1.388 . S
C379 C380 1.366 . S
C380 C379 1.366 . S
C380 C381 1.414 . S
C380 C383 1.499 . S
C381 H355 0.950 . S
C381 C380 1.414 . S
C381 C382 1.374 . S
C382 H356 0.950 . S
C382 C378 1.385 . S
C382 C381 1.374 . S
C383 C380 1.499 . S
C383 C384 1.373 . S
C383 C385 1.389 . S
C384 H357 0.950 . S
C384 C370 1.377 . S
C384 C383 1.373 . S
C385 C369 1.377 . S
C385 C383 1.389 . S
C385 C386 1.524 . S
C386 C385 1.524 . S
C386 C387 1.397 . S
C386 C391 1.363 . S
C387 H358 0.950 . S
C387 C386 1.397 . S
C387 C388 1.334 . S
C388 H359 0.950 . S
C388 C387 1.334 . S
C388 C389 1.287 . S
C389 C388 1.287 . S
C389 C390 1.524 . S
C389 H392 0.999 . S
C390 H360 0.950 . S
C390 C389 1.524 . S
C390 C391 1.415 . S
C391 H361 0.950 . S
C391 C386 1.363 . S
C391 C390 1.415 . S
H392 C389 0.999 . S
H393 C374 0.913 . S
H394 C412 0.951 . S
H395 C414 0.951 . S
H396 C416 0.950 . S
H397 C417 0.950 . S
H398 C419 0.950 . S
H399 C422 0.950 . S
H400 C423 0.950 . S
H401 C425 0.950 1_455 S
H402 C426 0.950 . S
H403 C427 0.951 . S
H404 C429 0.951 . S
H405 C431 0.950 . S
H406 C432 0.950 1_455 S
H407 C434 0.950 . S
H408 C437 0.950 . S
H409 C438 0.950 . S
H410 C440 0.950 . S
H411 C441 0.950 . S
C412 H394 0.951 . S
C412 C413 1.366 . S
C412 C414 1.388 . S
C413 C412 1.366 . S
C413 C417 1.385 . S
C414 H395 0.951 . S
C414 C412 1.388 . S
C414 C415 1.366 . S
C415 C414 1.366 . S
C415 C416 1.414 . S
C415 C418 1.499 . S
C416 H396 0.950 . S
C416 C415 1.414 . S
C416 C417 1.374 . S
C417 H397 0.950 . S
C417 C413 1.385 . S
C417 C416 1.374 . S
C418 C415 1.499 . S
C418 C419 1.373 . S
C418 C420 1.389 . S
C419 H398 0.950 . S
C419 C418 1.373 . S
C419 C435 1.377 . S
C420 C418 1.389 . S
C420 C421 1.524 . S
C420 C434 1.377 . S
C421 C420 1.524 . S
C421 C422 1.397 . S
C421 C426 1.363 . S
C422 H399 0.950 . S
C422 C421 1.397 . S
C422 C423 1.334 . S
C423 H400 0.950 . S
C423 C422 1.334 . S
C423 C424 1.287 . S
C424 C423 1.287 . S
C424 C425 1.524 . S
C424 H443 0.913 . S
C425 H401 0.950 1_655 S
C425 C424 1.524 . S
C425 C426 1.415 . S
C426 H402 0.950 . S
C426 C421 1.363 . S
C426 C425 1.415 . S
C427 H403 0.951 . S
C427 C428 1.366 . S
C427 C429 1.388 . S
C428 C427 1.366 . S
C428 C432 1.385 . S
C429 H404 0.951 . S
C429 C427 1.388 . S
C429 C430 1.366 . S
C430 C429 1.366 . S
C430 C431 1.414 . S
C430 C433 1.499 . S
C431 H405 0.950 . S
C431 C430 1.414 . S
C431 C432 1.374 . S
C432 H406 0.950 1_655 S
C432 C428 1.385 . S
C432 C431 1.374 . S
C433 C430 1.499 . S
C433 C434 1.373 . S
C433 C435 1.389 . S
C434 H407 0.950 . S
C434 C420 1.377 . S
C434 C433 1.373 . S
C435 C419 1.377 . S
C435 C433 1.389 . S
C435 C436 1.524 . S
C436 C435 1.524 . S
C436 C437 1.397 . S
C436 C441 1.363 . S
C437 H408 0.950 . S
C437 C436 1.397 . S
C437 C438 1.334 . S
C438 H409 0.950 . S
C438 C437 1.334 . S
C438 C439 1.287 . S
C439 C438 1.287 . S
C439 C440 1.524 . S
C439 H442 0.999 . S
C440 H410 0.950 . S
C440 C439 1.524 . S
C440 C441 1.415 . S
C441 H411 0.950 . S
C441 C436 1.363 . S
C441 C440 1.415 . S
H442 C439 0.999 . S
H443 C424 0.913 . S
H444 C462 0.951 . S
H445 C464 0.951 . S
H446 C466 0.950 . S
H447 C467 0.950 . S
H448 C469 0.950 . S
H449 C472 0.950 . S
H450 C473 0.950 . S
H451 C475 0.950 . S
H452 C476 0.950 . S
H453 C477 0.951 . S
H454 C479 0.951 . S
H455 C481 0.950 . S
H456 C482 0.950 . S
H457 C484 0.950 . S
H458 C487 0.950 . S
H459 C488 0.950 . S
H460 C490 0.950 . S
H461 C491 0.950 . S
C462 H444 0.951 . S
C462 C463 1.366 . S
C462 C464 1.388 . S
C463 C462 1.366 . S
C463 C467 1.385 . S
C464 H445 0.951 . S
C464 C462 1.388 . S
C464 C465 1.366 . S
C465 C464 1.366 . S
C465 C466 1.414 . S
C465 C468 1.499 . S
C466 H446 0.950 . S
C466 C465 1.414 . S
C466 C467 1.374 . S
C467 H447 0.950 . S
C467 C463 1.385 . S
C467 C466 1.374 . S
C468 C465 1.499 . S
C468 C469 1.373 . S
C468 C470 1.389 . S
C469 H448 0.950 . S
C469 C468 1.373 . S
C469 C485 1.377 . S
C470 C468 1.389 . S
C470 C471 1.524 . S
C470 C484 1.377 . S
C471 C470 1.524 . S
C471 C472 1.397 . S
C471 C476 1.363 . S
C472 H449 0.950 . S
C472 C471 1.397 . S
C472 C473 1.334 . S
C473 H450 0.950 . S
C473 C472 1.334 . S
C473 C474 1.287 . S
C474 C473 1.287 . S
C474 C475 1.524 . S
C474 H493 0.913 . S
C475 H451 0.950 . S
C475 C474 1.524 . S
C475 C476 1.415 . S
C476 H452 0.950 . S
C476 C471 1.363 . S
C476 C475 1.415 . S
C477 H453 0.951 . S
C477 C478 1.366 . S
C477 C479 1.388 . S
C478 C477 1.366 . S
C478 C482 1.385 . S
C479 H454 0.951 . S
C479 C477 1.388 . S
C479 C480 1.366 . S
C480 C479 1.366 . S
C480 C481 1.414 . S
C480 C483 1.499 . S
C481 H455 0.950 . S
C481 C480 1.414 . S
C481 C482 1.374 . S
C482 H456 0.950 . S
C482 C478 1.385 . S
C482 C481 1.374 . S
C483 C480 1.499 . S
C483 C484 1.373 . S
C483 C485 1.389 . S
C484 H457 0.950 . S
C484 C470 1.377 . S
C484 C483 1.373 . S
C485 C469 1.377 . S
C485 C483 1.389 . S
C485 C486 1.524 . S
C486 C485 1.524 . S
C486 C487 1.397 . S
C486 C491 1.363 . S
C487 H458 0.950 . S
C487 C486 1.397 . S
C487 C488 1.334 . S
C488 H459 0.950 . S
C488 C487 1.334 . S
C488 C489 1.287 . S
C489 C488 1.287 . S
C489 C490 1.524 . S
C489 H492 0.999 . S
C490 H460 0.950 . S
C490 C489 1.524 . S
C490 C491 1.415 . S
C491 H461 0.950 . S
C491 C486 1.363 . S
C491 C490 1.415 . S
H492 C489 0.999 . S
H493 C474 0.913 . S
H494 C512 0.951 . S
H495 C514 0.951 . S
H496 C516 0.950 . S
H497 C517 0.950 . S
H498 C519 0.950 . S
H499 C522 0.950 . S
H500 C523 0.950 . S
H501 C525 0.950 . S
H502 C526 0.950 . S
H503 C527 0.951 . S
H504 C529 0.951 . S
H505 C531 0.950 . S
H506 C532 0.950 . S
H507 C534 0.950 . S
H508 C537 0.950 . S
H509 C538 0.950 . S
H510 C540 0.950 . S
H511 C541 0.950 . S
C512 H494 0.951 . S
C512 C513 1.366 . S
C512 C514 1.388 . S
C513 C512 1.366 . S
C513 C517 1.385 . S
C514 H495 0.951 . S
C514 C512 1.388 . S
C514 C515 1.366 . S
C515 C514 1.366 . S
C515 C516 1.414 . S
C515 C518 1.499 . S
C516 H496 0.950 . S
C516 C515 1.414 . S
C516 C517 1.374 . S
C517 H497 0.950 . S
C517 C513 1.385 . S
C517 C516 1.374 . S
C518 C515 1.499 . S
C518 C519 1.373 . S
C518 C520 1.389 . S
C519 H498 0.950 . S
C519 C518 1.373 . S
C519 C535 1.377 . S
C520 C518 1.389 . S
C520 C521 1.524 . S
C520 C534 1.377 . S
C521 C520 1.524 . S
C521 C522 1.397 . S
C521 C526 1.363 . S
C522 H499 0.950 . S
C522 C521 1.397 . S
C522 C523 1.334 . S
C523 H500 0.950 . S
C523 C522 1.334 . S
C523 C524 1.287 . S
C524 C523 1.287 . S
C524 C525 1.524 . S
C524 H543 0.913 . S
C525 H501 0.950 . S
C525 C524 1.524 . S
C525 C526 1.415 . S
C526 H502 0.950 . S
C526 C521 1.363 . S
C526 C525 1.415 . S
C527 H503 0.951 . S
C527 C528 1.366 . S
C527 C529 1.388 . S
C528 C527 1.366 . S
C528 C532 1.385 . S
C529 H504 0.951 . S
C529 C527 1.388 . S
C529 C530 1.366 . S
C530 C529 1.366 . S
C530 C531 1.414 . S
C530 C533 1.499 . S
C531 H505 0.950 . S
C531 C530 1.414 . S
C531 C532 1.374 . S
C532 H506 0.950 . S
C532 C528 1.385 . S
C532 C531 1.374 . S
C533 C530 1.499 . S
C533 C534 1.373 . S
C533 C535 1.389 . S
C534 H507 0.950 . S
C534 C520 1.377 . S
C534 C533 1.373 . S
C535 C519 1.377 . S
C535 C533 1.389 . S
C535 C536 1.524 . S
C536 C535 1.524 . S
C536 C537 1.397 . S
C536 C541 1.363 . S
C537 H508 0.950 . S
C537 C536 1.397 . S
C537 C538 1.334 . S
C538 H509 0.950 . S
C538 C537 1.334 . S
C538 C539 1.287 . S
C539 C538 1.287 . S
C539 C540 1.524 . S
C539 H542 0.999 . S
C540 H510 0.950 . S
C540 C539 1.524 . S
C540 C541 1.415 . S
C541 H511 0.950 . S
C541 C536 1.363 . S
C541 C540 1.415 . S
H542 C539 0.999 . S
H543 C524 0.913 . S
H544 C562 0.951 . S
H545 C564 0.951 . S
H546 C566 0.950 . S
H547 C567 0.950 . S
H548 C569 0.950 . S
H549 C572 0.950 . S
H550 C573 0.950 . S
H551 C575 0.950 1_455 S
H552 C576 0.950 . S
H553 C577 0.951 . S
H554 C579 0.951 . S
H555 C581 0.950 . S
H556 C582 0.950 . S
H557 C584 0.950 . S
H558 C587 0.950 . S
H559 C588 0.950 . S
H560 C590 0.950 . S
H561 C591 0.950 . S
C562 H544 0.951 . S
C562 C563 1.366 . S
C562 C564 1.388 . S
C563 C562 1.366 . S
C563 C567 1.385 . S
C564 H545 0.951 . S
C564 C562 1.388 . S
C564 C565 1.366 . S
C565 C564 1.366 . S
C565 C566 1.414 . S
C565 C568 1.499 . S
C566 H546 0.950 . S
C566 C565 1.414 . S
C566 C567 1.374 . S
C567 H547 0.950 . S
C567 C563 1.385 . S
C567 C566 1.374 . S
C568 C565 1.499 . S
C568 C569 1.373 . S
C568 C570 1.389 . S
C569 H548 0.950 . S
C569 C568 1.373 . S
C569 C585 1.377 . S
C570 C568 1.389 . S
C570 C571 1.524 . S
C570 C584 1.377 . S
C571 C570 1.524 . S
C571 C572 1.397 . S
C571 C576 1.363 . S
C572 H549 0.950 . S
C572 C571 1.397 . S
C572 C573 1.334 . S
C573 H550 0.950 . S
C573 C572 1.334 . S
C573 C574 1.287 . S
C574 C573 1.287 . S
C574 C575 1.524 . S
C574 H593 0.913 . S
C575 H551 0.950 1_655 S
C575 C574 1.524 . S
C575 C576 1.415 . S
C576 H552 0.950 . S
C576 C571 1.363 . S
C576 C575 1.415 . S
C577 H553 0.951 . S
C577 C578 1.366 . S
C577 C579 1.388 . S
C578 C577 1.366 . S
C578 C582 1.385 . S
C579 H554 0.951 . S
C579 C577 1.388 . S
C579 C580 1.366 . S
C580 C579 1.366 . S
C580 C581 1.414 . S
C580 C583 1.499 . S
C581 H555 0.950 . S
C581 C580 1.414 . S
C581 C582 1.374 . S
C582 H556 0.950 . S
C582 C578 1.385 . S
C582 C581 1.374 . S
C583 C580 1.499 . S
C583 C584 1.373 . S
C583 C585 1.389 . S
C584 H557 0.950 . S
C584 C570 1.377 . S
C584 C583 1.373 . S
C585 C569 1.377 . S
C585 C583 1.389 . S
C585 C586 1.524 . S
C586 C585 1.524 . S
C586 C587 1.397 . S
C586 C591 1.363 . S
C587 H558 0.950 . S
C587 C586 1.397 . S
C587 C588 1.334 . S
C588 H559 0.950 . S
C588 C587 1.334 . S
C588 C589 1.287 . S
C589 C588 1.287 . S
C589 C590 1.524 . S
C589 H592 0.999 . S
C590 H560 0.950 . S
C590 C589 1.524 . S
C590 C591 1.415 . S
C591 H561 0.950 . S
C591 C586 1.363 . S
C591 C590 1.415 . S
H592 C589 0.999 . S
H593 C574 0.913 . S
H594 C612 0.951 . S
H595 C614 0.951 . S
H596 C616 0.950 . S
H597 C617 0.950 . S
H598 C619 0.950 . S
H599 C622 0.950 . S
H600 C623 0.950 . S
H601 C625 0.950 . S
H602 C626 0.950 . S
H603 C627 0.951 . S
H604 C629 0.951 . S
H605 C631 0.950 . S
H606 C632 0.950 . S
H607 C634 0.950 . S
H608 C637 0.950 . S
H609 C638 0.950 . S
H610 C640 0.950 . S
H611 C641 0.950 . S
C612 H594 0.951 . S
C612 C613 1.366 . S
C612 C614 1.388 . S
C613 C612 1.366 . S
C613 C617 1.385 . S
C614 H595 0.951 . S
C614 C612 1.388 . S
C614 C615 1.366 . S
C615 C614 1.366 . S
C615 C616 1.414 . S
C615 C618 1.499 . S
C616 H596 0.950 . S
C616 C615 1.414 . S
C616 C617 1.374 . S
C617 H597 0.950 . S
C617 C613 1.385 . S
C617 C616 1.374 . S
C618 C615 1.499 . S
C618 C619 1.373 . S
C618 C620 1.389 . S
C619 H598 0.950 . S
C619 C618 1.373 . S
C619 C635 1.377 . S
C620 C618 1.389 . S
C620 C621 1.524 . S
C620 C634 1.377 . S
C621 C620 1.524 . S
C621 C622 1.397 . S
C621 C626 1.363 . S
C622 H599 0.950 . S
C622 C621 1.397 . S
C622 C623 1.334 . S
C623 H600 0.950 . S
C623 C622 1.334 . S
C623 C624 1.287 . S
C624 C623 1.287 . S
C624 C625 1.524 . S
C624 H643 0.913 . S
C625 H601 0.950 . S
C625 C624 1.524 . S
C625 C626 1.415 . S
C626 H602 0.950 . S
C626 C621 1.363 . S
C626 C625 1.415 . S
C627 H603 0.951 . S
C627 C628 1.366 . S
C627 C629 1.388 . S
C628 C627 1.366 . S
C628 C632 1.385 . S
C629 H604 0.951 . S
C629 C627 1.388 . S
C629 C630 1.366 . S
C630 C629 1.366 . S
C630 C631 1.414 . S
C630 C633 1.499 . S
C631 H605 0.950 . S
C631 C630 1.414 . S
C631 C632 1.374 . S
C632 H606 0.950 . S
C632 C628 1.385 . S
C632 C631 1.374 . S
C633 C630 1.499 . S
C633 C634 1.373 . S
C633 C635 1.389 . S
C634 H607 0.950 . S
C634 C620 1.377 . S
C634 C633 1.373 . S
C635 C619 1.377 . S
C635 C633 1.389 . S
C635 C636 1.524 . S
C636 C635 1.524 . S
C636 C637 1.397 . S
C636 C641 1.363 . S
C637 H608 0.950 . S
C637 C636 1.397 . S
C637 C638 1.334 . S
C638 H609 0.950 . S
C638 C637 1.334 . S
C638 C639 1.287 . S
C639 C638 1.287 . S
C639 C640 1.524 . S
C639 H642 0.999 . S
C640 H610 0.950 . S
C640 C639 1.524 . S
C640 C641 1.415 . S
C641 H611 0.950 . S
C641 C636 1.363 . S
C641 C640 1.415 . S
H642 C639 0.999 . S
H643 C624 0.913 . S
H644 C662 0.951 1_554 S
H645 C664 0.951 . S
H646 C666 0.950 . S
H647 C667 0.950 . S
H648 C669 0.950 . S
H649 C672 0.950 . S
H650 C673 0.950 . S
H651 C675 0.950 . S
H652 C676 0.950 . S
H653 C677 0.951 . S
H654 C679 0.951 . S
H655 C681 0.950 . S
H656 C682 0.950 . S
H657 C684 0.950 . S
H658 C687 0.950 . S
H659 C688 0.950 1_545 S
H660 C690 0.950 . S
H661 C691 0.950 . S
C662 H644 0.951 1_556 S
C662 C663 1.366 . S
C662 C664 1.388 . S
C663 C662 1.366 . S
C663 C667 1.385 . S
C664 H645 0.951 . S
C664 C662 1.388 . S
C664 C665 1.366 . S
C665 C664 1.366 . S
C665 C666 1.414 . S
C665 C668 1.499 . S
C666 H646 0.950 . S
C666 C665 1.414 . S
C666 C667 1.374 . S
C667 H647 0.950 . S
C667 C663 1.385 . S
C667 C666 1.374 . S
C668 C665 1.499 . S
C668 C669 1.373 . S
C668 C670 1.389 . S
C669 H648 0.950 . S
C669 C668 1.373 . S
C669 C685 1.377 . S
C670 C668 1.389 . S
C670 C671 1.524 . S
C670 C684 1.377 . S
C671 C670 1.524 . S
C671 C672 1.397 . S
C671 C676 1.363 . S
C672 H649 0.950 . S
C672 C671 1.397 . S
C672 C673 1.334 . S
C673 H650 0.950 . S
C673 C672 1.334 . S
C673 C674 1.287 . S
C674 C673 1.287 . S
C674 C675 1.524 . S
C674 H693 0.913 . S
C675 H651 0.950 . S
C675 C674 1.524 . S
C675 C676 1.415 . S
C676 H652 0.950 . S
C676 C671 1.363 . S
C676 C675 1.415 . S
C677 H653 0.951 . S
C677 C678 1.366 . S
C677 C679 1.388 . S
C678 C677 1.366 . S
C678 C682 1.385 . S
C679 H654 0.951 . S
C679 C677 1.388 . S
C679 C680 1.366 . S
C680 C679 1.366 . S
C680 C681 1.414 . S
C680 C683 1.499 . S
C681 H655 0.950 . S
C681 C680 1.414 . S
C681 C682 1.374 . S
C682 H656 0.950 . S
C682 C678 1.385 . S
C682 C681 1.374 . S
C683 C680 1.499 . S
C683 C684 1.373 . S
C683 C685 1.389 . S
C684 H657 0.950 . S
C684 C670 1.377 . S
C684 C683 1.373 . S
C685 C669 1.377 . S
C685 C683 1.389 . S
C685 C686 1.524 . S
C686 C685 1.524 . S
C686 C687 1.397 . S
C686 C691 1.363 . S
C687 H658 0.950 . S
C687 C686 1.397 . S
C687 C688 1.334 . S
C688 H659 0.950 1_565 S
C688 C687 1.334 . S
C688 C689 1.287 . S
C689 C688 1.287 . S
C689 C690 1.524 . S
C689 H692 0.999 . S
C690 H660 0.950 . S
C690 C689 1.524 . S
C690 C691 1.415 . S
C691 H661 0.950 . S
C691 C686 1.363 . S
C691 C690 1.415 . S
H692 C689 0.999 . S
H693 C674 0.913 . S
C128 C67 1.261 . S
C113 C43 1.390 . S
C163 C4 1.430 . S
C178 C91 1.268 . S
C213 C17 1.557 . S
C228 C70 1.410 . S
C263 C30 1.605 . S
C278 C88 1.416 . S
C328 C68 1.454 . S
C313 C9 1.472 . S
C378 C90 1.525 . S
C363 C21 1.594 . S
C413 C34 1.575 . S
C428 C69 1.521 . S
C463 C48 1.489 . S
C478 C89 1.440 . S
C528 C87 1.507 . S
C513 C22 1.556 . S
C578 C66 1.526 . S
C563 C35 1.570 . S
C628 C86 1.448 . S
C613 C47 1.488 . S
C663 C8 1.501 1_556 S
C678 C65 1.448 . S
