# Generated by pormake.
# Topology anh, (6,3)-cn, num edge types: 1
# Building blocks:
#     Node 0, Type 0, BuildingBlock: BETDAH_clean_sbu_0, # of connection points: 6
#     Node 1, Type 0, BuildingBlock: BETDAH_clean_sbu_0, # of connection points: 6
#     Node 2, Type 0, BuildingBlock: BETDAH_clean_sbu_0, # of connection points: 6
#     Node 3, Type 1, BuildingBlock: ESEHIV_clean_linker_0, # of connection points: 3
#     Node 4, Type 1, BuildingBlock: ESEHIV_clean_linker_0, # of connection points: 3
#     Node 5, Type 1, BuildingBlock: ESEHIV_clean_linker_0, # of connection points: 3
#     Node 6, Type 1, BuildingBlock: ESEHIV_clean_linker_0, # of connection points: 3
#     Node 7, Type 1, BuildingBlock: ESEHIV_clean_linker_0, # of connection points: 3
#     Node 8, Type 1, BuildingBlock: ESEHIV_clean_linker_0, # of connection points: 3
#     Edge 9, Type (0, 1), BuildingBlock: ZUJKAS_clean_linker_0, # of connection points: 2
#     Edge 10, Type (0, 1), BuildingBlock: ZUJKAS_clean_linker_0, # of connection points: 2
#     Edge 11, Type (0, 1), BuildingBlock: ZUJKAS_clean_linker_0, # of connection points: 2
#     Edge 12, Type (0, 1), BuildingBlock: ZUJKAS_clean_linker_0, # of connection points: 2
#     Edge 13, Type (0, 1), BuildingBlock: ZUJKAS_clean_linker_0, # of connection points: 2
#     Edge 14, Type (0, 1), BuildingBlock: ZUJKAS_clean_linker_0, # of connection points: 2
#     Edge 15, Type (0, 1), BuildingBlock: ZUJKAS_clean_linker_0, # of connection points: 2
#     Edge 16, Type (0, 1), BuildingBlock: ZUJKAS_clean_linker_0, # of connection points: 2
#     Edge 17, Type (0, 1), BuildingBlock: ZUJKAS_clean_linker_0, # of connection points: 2
#     Edge 18, Type (0, 1), BuildingBlock: ZUJKAS_clean_linker_0, # of connection points: 2
#     Edge 19, Type (0, 1), BuildingBlock: ZUJKAS_clean_linker_0, # of connection points: 2
#     Edge 20, Type (0, 1), BuildingBlock: ZUJKAS_clean_linker_0, # of connection points: 2
#     Edge 21, Type (0, 1), BuildingBlock: ZUJKAS_clean_linker_0, # of connection points: 2
#     Edge 22, Type (0, 1), BuildingBlock: ZUJKAS_clean_linker_0, # of connection points: 2
#     Edge 23, Type (0, 1), BuildingBlock: ZUJKAS_clean_linker_0, # of connection points: 2
#     Edge 24, Type (0, 1), BuildingBlock: ZUJKAS_clean_linker_0, # of connection points: 2
#     Edge 25, Type (0, 1), BuildingBlock: ZUJKAS_clean_linker_0, # of connection points: 2
#     Edge 26, Type (0, 1), BuildingBlock: ZUJKAS_clean_linker_0, # of connection points: 2
# Relax obj value: 0.181
# Max RMSD: 0.210
# Mean RMSD: 0.156
data_MOF--net-anh--node1-BETDAH_clean_sbu_0--node2-ESEHIV_clean_linker_0--edge1-ZUJKAS_clean_linker_0
_symmetry_space_group_name_H-M    P1
_symmetry_Int_Tables_number       1
_symmetry_cell_setting            triclinic
loop_
_symmetry_equiv_pos_as_xyz
'x, y, z'
_cell_length_a     37.126593
_cell_length_b     43.807838
_cell_length_c     67.515233
_cell_angle_alpha  92.432203
_cell_angle_beta   89.560993
_cell_angle_gamma 128.08802
loop_
_atom_site_label
_atom_site_type_symbol
_atom_site_fract_x
_atom_site_fract_y
_atom_site_fract_z
_atom_type_partial_charge
Ho0 Ho 0.09809 0.52363 0.14087 0.0
Ho1 Ho 1.04661 0.55147 0.15904 0.0
C2 C 0.15178 0.61702 0.15147 0.0
C3 C 0.1503 0.51499 0.12045 0.0
C4 C 0.19677 0.52827 0.12464 0.0
C5 C 0.22572 0.53518 0.10907 0.0
C6 C 0.26889 0.54543 0.11314 0.0
C7 C 0.28329 0.54849 0.13282 0.0
C8 C 0.25494 0.5431 0.1484 0.0
C9 C 0.21217 0.53343 0.14435 0.0
C10 C 0.09232 0.52139 0.18065 0.0
C11 C 0.99372 0.45976 0.14817 0.0
C12 C 0.99564 0.55774 0.18215 0.0
C13 C 0.95546 0.52815 0.19338 0.0
C14 C 0.95079 0.49566 0.19964 0.0
C15 C 0.9082 0.46277 0.20534 0.0
C16 C 0.87014 0.46227 0.20508 0.0
C17 C 0.87597 0.49619 0.2009 0.0
C18 C 0.91842 0.52894 0.19497 0.0
C19 C 1.05428 0.55407 0.1192 0.0
O20 O 0.15182 0.58948 0.14246 0.0
O21 O 0.11542 0.60918 0.16049 0.0
O22 O 0.11891 0.48884 0.13216 0.0
O23 O 0.14664 0.54225 0.11731 0.0
O24 O 0.09368 0.49723 0.16963 0.0
O25 O 0.09858 0.54734 0.17026 0.0
O26 O 0.99845 0.48599 0.16084 0.0
O27 O 1.026 0.46969 0.13536 0.0
O28 O 0.98973 0.5529 0.16285 0.0
O29 O 1.03466 0.56648 0.18792 0.0
O30 O 1.05455 0.57942 0.13011 0.0
O31 O 1.04653 0.52773 0.12973 0.0
H32 H 0.21449 0.53168 0.09381 0.0
H33 H 0.29009 0.54912 0.10089 0.0
H34 H 0.26547 0.54544 0.16367 0.0
H35 H 0.19056 0.5289 0.1566 0.0
H36 H 0.97903 0.49447 0.19862 0.0
H37 H 0.90415 0.43669 0.20828 0.0
H38 H 0.84671 0.49607 0.20033 0.0
H39 H 0.92136 0.55368 0.19018 0.0
Ho40 Ho 0.62361 0.02328 0.47841 0.0
Ho41 Ho 0.56174 0.04395 0.46928 0.0
C42 C 0.51471 0.95501 0.46973 0.0
C43 C 0.66221 0.99557 0.49259 0.0
C44 C 0.65042 0.9575 0.49622 0.0
C45 C 0.60552 0.92528 0.50033 0.0
C46 C 0.59549 0.88948 0.50378 0.0
C47 C 0.63018 0.88531 0.50307 0.0
C48 C 0.675 0.91771 0.49883 0.0
C49 C 0.68496 0.95341 0.49544 0.0
C50 C 0.61855 0.03453 0.4399 0.0
C51 C 0.67219 0.11281 0.476 0.0
C52 C 0.52506 0.07437 0.45683 0.0
C53 C 0.53202 0.11023 0.46314 0.0
C54 C 0.51282 0.12357 0.4521 0.0
C55 C 0.51836 0.15708 0.45858 0.0
C56 C 0.54294 0.17753 0.47629 0.0
C57 C 0.56278 0.16433 0.48709 0.0
C58 C 0.55749 0.13108 0.48054 0.0
C59 C 0.56951 0.03536 0.50804 0.0
O60 O 0.55182 0.966 0.47976 0.0
O61 O 0.51357 0.98055 0.46065 0.0
O62 O 0.66421 1.00357 0.47401 0.0
O63 O 0.64233 0.00638 0.50357 0.0
O64 O 0.65572 0.04517 0.44882 0.0
O65 O 0.58536 0.01672 0.45145 0.0
O66 O 0.63268 0.10189 0.46859 0.0
O67 O 0.67619 0.08757 0.48341 0.0
O68 O 0.50643 0.04775 0.46997 0.0
O69 O 0.55986 0.0791 0.44833 0.0
O70 O 0.53209 0.02511 0.49967 0.0
O71 O 0.6013 0.05183 0.49586 0.0
H72 H 0.5783 0.92781 0.5009 0.0
H73 H 0.56055 0.86502 0.50682 0.0
H74 H 0.70264 0.91569 0.49847 0.0
H75 H 0.71982 0.97797 0.4923 0.0
H76 H 0.49315 0.10784 0.43861 0.0
H77 H 0.5025 0.16644 0.45001 0.0
H78 H 0.58248 0.17978 0.50061 0.0
H79 H 0.57291 0.12136 0.48916 0.0
Ho80 Ho 0.62493 0.56878 0.84315 0.0
Ho81 Ho 0.56009 0.48222 0.84867 0.0
C82 C 0.51517 0.52508 0.84981 0.0
C83 C 0.66518 0.63815 0.83134 0.0
C84 C 0.65299 0.66356 0.82682 0.0
C85 C 0.65616 0.67469 0.80729 0.0
C86 C 0.64662 0.69991 0.80275 0.0
C87 C 0.6341 0.71487 0.81769 0.0
C88 C 0.63063 0.70355 0.83723 0.0
C89 C 0.63986 0.67809 0.84175 0.0
C90 C 0.61849 0.54701 0.88045 0.0
C91 C 0.67139 0.527 0.8442 0.0
C92 C 0.52189 0.41241 0.85904 0.0
C93 C 0.52814 0.38318 0.85292 0.0
C94 C 0.5346 0.3647 0.86731 0.0
C95 C 0.54201 0.33787 0.86167 0.0
C96 C 0.54294 0.32889 0.84148 0.0
C97 C 0.53617 0.34739 0.82712 0.0
C98 C 0.52915 0.37437 0.83276 0.0
C99 C 0.56898 0.50297 0.81079 0.0
O100 O 0.55401 0.55429 0.84188 0.0
O101 O 0.51169 0.49548 0.85672 0.0
O102 O 0.6644 0.63037 0.84992 0.0
O103 O 0.64858 0.60792 0.81919 0.0
O104 O 0.65667 0.57525 0.87284 0.0
O105 O 0.58575 0.53285 0.86826 0.0
O106 O 0.63045 0.49575 0.84938 0.0
O107 O 0.67718 0.55854 0.83886 0.0
O108 O 0.50422 0.42078 0.84569 0.0
O109 O 0.55613 0.44326 0.86901 0.0
O110 O 0.53122 0.47343 0.8179 0.0
O111 O 0.60064 0.51805 0.82363 0.0
H112 H 0.66656 0.6642 0.79553 0.0
H113 H 0.65016 0.70846 0.7876 0.0
H114 H 0.62064 0.71432 0.84902 0.0
H115 H 0.63705 0.67009 0.85697 0.0
H116 H 0.53436 0.3713 0.88294 0.0
H117 H 0.5477 0.32463 0.87313 0.0
H118 H 0.53583 0.34079 0.81146 0.0
H119 H 0.5246 0.38835 0.82129 0.0
H120 H 0.53466 0.97926 0.22432 0.0
H121 H 0.64602 0.10155 0.22539 0.0
H122 H 0.58162 0.03848 0.16975 0.0
C123 C 0.55841 1.00568 0.21659 0.0
C124 C 0.55521 1.00447 0.19581 0.0
C125 C 0.59073 0.0405 0.22748 0.0
C126 C 0.61991 0.07471 0.21722 0.0
C127 C 0.61681 0.07453 0.19643 0.0
C128 C 0.58429 0.03911 0.18576 0.0
H129 H 0.58957 0.5801 0.59882 0.0
H130 H 0.58787 0.48112 0.5957 0.0
H131 H 0.57642 0.52484 0.54218 0.0
C132 C 0.58747 0.55767 0.59012 0.0
C133 C 0.58359 0.55615 0.56934 0.0
C134 C 0.58849 0.53045 0.5998 0.0
C135 C 0.58575 0.50151 0.58837 0.0
C136 C 0.58133 0.49909 0.56758 0.0
C137 C 0.58062 0.52678 0.55816 0.0
H138 H 1.03858 0.53762 0.90313 0.0
H139 H 0.15289 0.53635 0.90713 0.0
H140 H 0.09417 0.52541 0.84976 0.0
C141 C 0.06371 0.53617 0.89588 0.0
C142 C 1.06209 0.53148 0.87514 0.0
C143 C 0.09622 0.53805 0.90747 0.0
C144 C 0.12773 0.53485 0.89813 0.0
C145 C 0.12793 0.53044 0.87736 0.0
C146 C 0.09503 0.52924 0.86574 0.0
H147 H 1.02788 0.46421 0.39659 0.0
H148 H 0.14596 0.58378 0.39503 0.0
H149 H 0.10091 0.52816 0.45087 0.0
C150 C 1.05596 0.49094 0.40426 0.0
C151 C 1.06071 0.49218 0.42496 0.0
C152 C 0.08641 0.52383 0.39337 0.0
C153 C 0.12218 0.55839 0.40344 0.0
C154 C 0.12825 0.56044 0.42415 0.0
C155 C 0.09662 0.52723 0.43494 0.0
H156 H 0.59127 0.0756 0.72411 0.0
H157 H 0.59726 0.98075 0.71972 0.0
H158 H 0.58419 0.02026 0.77675 0.0
C159 C 0.59039 0.05336 0.73112 0.0
C160 C 0.58691 0.0509 0.75184 0.0
C161 C 0.59373 0.02799 0.71936 0.0
C162 C 0.59456 1.00035 0.72866 0.0
C163 C 0.59173 0.99762 0.74938 0.0
C164 C 0.58783 0.02299 0.76085 0.0
H165 H 0.54687 0.45238 0.0765 0.0
H166 H 0.57141 0.36835 0.0756 0.0
H167 H 0.53768 0.39975 0.13014 0.0
C168 C 0.54968 0.43264 0.08416 0.0
C169 C 0.54154 0.4287 0.10448 0.0
C170 C 0.56145 0.41175 0.07361 0.0
C171 C 0.56222 0.38456 0.08356 0.0
C172 C 0.55281 0.37934 0.10398 0.0
C173 C 0.5426 0.40175 0.11427 0.0
H174 H 0.36992 0.60378 0.11999 0.0
H175 H 0.43555 0.60333 0.12251 0.0
H176 H 0.35462 0.5002 0.1562 0.0
H177 H 0.29018 0.50178 0.15456 0.0
H178 H 0.44299 0.54487 0.1682 0.0
H179 H 0.42897 0.5259 0.08577 0.0
H180 H 0.44348 0.57101 0.09556 0.0
H181 H 0.3882 0.52614 0.10022 0.0
C182 C 0.36674 0.58163 0.12829 0.0
C183 C 0.32507 0.55255 0.13689 0.0
C184 C 0.40404 0.58128 0.12967 0.0
C185 C 0.39949 0.55108 0.13905 0.0
C186 C 0.35888 0.52371 0.14884 0.0
H187 H 0.4743 0.40685 0.13099 0.0
H188 H 0.45155 0.44583 0.14361 0.0
C189 C 0.32204 0.52456 0.14785 0.0
C190 C 0.43396 0.54453 0.13666 0.0
H191 H 0.47853 0.51872 0.10164 0.0
C192 C 0.4514 0.53975 0.15365 0.0
C193 C 0.44466 0.53762 0.11763 0.0
C194 C 0.42513 0.54007 0.09875 0.0
C195 C 0.4777 0.52671 0.15209 0.0
C196 C 0.48672 0.51842 0.13311 0.0
C197 C 0.4716 0.52534 0.11618 0.0
C198 C 0.50711 0.49846 0.13008 0.0
C199 C 0.49459 0.52088 0.17069 0.0
C200 C 0.5464 0.51544 0.11872 0.0
C201 C 0.55923 0.49323 0.11144 0.0
C202 C 0.5327 0.45357 0.11525 0.0
C203 C 0.49535 0.43735 0.12787 0.0
C204 C 0.48252 0.45965 0.13518 0.0
H205 H 0.4961 0.53838 0.18354 0.0
H206 H 0.47072 0.48982 0.17425 0.0
H207 H 0.52906 0.52875 0.16862 0.0
H208 H 0.56562 0.54528 0.11455 0.0
H209 H 0.58873 0.50663 0.10204 0.0
H210 H 0.67562 0.17405 0.46512 0.0
H211 H 0.74357 0.24083 0.46069 0.0
H212 H 0.8296 0.21246 0.48019 0.0
H213 H 0.76171 0.14556 0.48495 0.0
H214 H 0.85865 0.28628 0.49511 0.0
H215 H 0.8271 0.26698 0.41362 0.0
H216 H 0.78003 0.25672 0.42787 0.0
H217 H 0.79745 0.22667 0.42969 0.0
C218 C 0.70892 0.18198 0.46863 0.0
C219 C 0.71315 0.15421 0.47518 0.0
C220 C 0.74778 0.22022 0.46604 0.0
C221 C 0.79173 0.23149 0.46976 0.0
C222 C 0.79603 0.20437 0.47715 0.0
H223 H 1.03925 0.42143 0.4168 0.0
H224 H 0.97651 0.3594 0.42999 0.0
C225 C 0.75714 0.16609 0.47983 0.0
C226 C 0.83314 0.27084 0.46491 0.0
H227 H 0.88764 0.32999 0.42621 0.0
C228 C 0.86507 0.29592 0.48006 0.0
C229 C 0.84176 0.28318 0.44522 0.0
C230 C 0.81006 0.25692 0.42811 0.0
C231 C 0.9052 0.33315 0.47604 0.0
C232 C 0.9133 0.3457 0.4564 0.0
C233 C 0.88136 0.32049 0.44129 0.0
C234 C 0.95525 0.38419 0.45078 0.0
C235 C 0.93906 0.35834 0.49274 0.0
C236 C 0.96515 0.41906 0.45845 0.0
C237 C 1.00147 0.45478 0.45099 0.0
C238 C 1.02796 0.45602 0.43558 0.0
C239 C 1.01922 0.42128 0.42861 0.0
C240 C 0.98334 0.38582 0.43612 0.0
H241 H 0.93345 0.34119 0.50571 0.0
H242 H 0.97474 0.37361 0.48779 0.0
H243 H 0.93509 0.3806 0.49766 0.0
H244 H 0.94354 0.41855 0.46951 0.0
H245 H 1.00719 0.48109 0.45647 0.0
H246 H 0.66465 0.78226 0.83833 0.0
H247 H 0.65392 0.82996 0.82962 0.0
H248 H 0.57554 0.75932 0.77741 0.0
H249 H 0.58556 0.71126 0.78614 0.0
H250 H 0.68181 0.86989 0.79323 0.0
H251 H 0.49493 0.78421 0.80439 0.0
H252 H 0.52857 0.77181 0.81512 0.0
H253 H 0.51126 0.75982 0.7894 0.0
C254 C 0.64451 0.77659 0.82516 0.0
C255 C 0.62587 0.74295 0.81293 0.0
C256 C 0.63862 0.80395 0.82017 0.0
C257 C 0.61352 0.79793 0.80301 0.0
C258 C 0.59446 0.76422 0.79088 0.0
H259 H 0.54842 0.92195 0.73676 0.0
H260 H 0.55453 0.87497 0.75105 0.0
C261 C 0.60057 0.73698 0.79579 0.0
C262 C 0.60926 0.82782 0.79717 0.0
H263 H 0.5313 0.84294 0.78765 0.0
C264 C 0.64901 0.86422 0.79219 0.0
C265 C 0.56637 0.82019 0.79578 0.0
C266 C 0.52282 0.78202 0.80161 0.0
C267 C 0.64688 0.89282 0.78519 0.0
C268 C 0.60388 0.88506 0.78358 0.0
C269 C 0.56421 0.84885 0.7889 0.0
C270 C 0.59914 0.91346 0.77554 0.0
C271 C 0.69046 0.93047 0.77885 0.0
C272 C 0.62145 0.95049 0.78479 0.0
C273 C 0.61848 0.97764 0.77651 0.0
C274 C 0.59283 0.96814 0.7589 0.0
C275 C 0.56925 0.93053 0.75009 0.0
C276 C 0.57238 0.9035 0.75833 0.0
H277 H 0.71824 0.92803 0.77641 0.0
H278 H 0.68468 0.93981 0.76499 0.0
H279 H 0.70234 0.95346 0.79064 0.0
H280 H 0.64151 0.95853 0.79832 0.0
H281 H 0.63715 0.00636 0.78365 0.0
H282 H 0.83435 0.41267 0.17353 0.0
H283 H 0.75354 0.36401 0.16538 0.0
H284 H 0.71998 0.37769 0.22485 0.0
H285 H 0.80175 0.42962 0.23237 0.0
H286 H 0.67653 0.30025 0.17321 0.0
H287 H 0.66795 0.41931 0.19733 0.0
H288 H 0.72116 0.42671 0.19789 0.0
H289 H 0.67885 0.39857 0.21636 0.0
C290 C 0.80973 0.40443 0.18503 0.0
C291 C 0.82377 0.42506 0.20341 0.0
C292 C 0.76338 0.37646 0.18042 0.0
C293 C 0.73027 0.36829 0.19422 0.0
C294 C 0.74473 0.38485 0.21364 0.0
H295 H 0.50164 0.33305 0.13465 0.0
H296 H 0.52639 0.30976 0.15929 0.0
C297 C 0.79134 0.41408 0.21804 0.0
C298 C 0.68284 0.34898 0.18668 0.0
H299 H 0.61352 0.37237 0.175 0.0
C300 C 0.66202 0.31547 0.17403 0.0
C301 C 0.66322 0.36842 0.18785 0.0
C302 C 0.68392 0.4053 0.20047 0.0
C303 C 0.62632 0.30408 0.16077 0.0
C304 C 0.6102 0.32598 0.16064 0.0
C305 C 0.62634 0.35582 0.17515 0.0
C306 C 0.58594 0.32565 0.14327 0.0
C307 C 0.60853 0.27067 0.14598 0.0
C308 C 0.61017 0.34079 0.1257 0.0
C309 C 0.59696 0.35519 0.11187 0.0
C310 C 0.55906 0.35448 0.11535 0.0
C311 C 0.53171 0.33497 0.13179 0.0
C312 C 0.54536 0.32108 0.14576 0.0
H313 H 0.61252 0.24953 0.1518 0.0
H314 H 0.57191 0.25547 0.14211 0.0
H315 H 0.62846 0.28195 0.13222 0.0
H316 H 0.64212 0.34534 0.12365 0.0
H317 H 0.61903 0.37015 0.0995 0.0
H318 H 0.44312 0.91853 0.44295 0.0
H319 H 0.37698 0.84985 0.44031 0.0
H320 H 0.42753 0.82849 0.49093 0.0
H321 H 0.49477 0.89703 0.49317 0.0
H322 H 0.39864 0.77388 0.46392 0.0
H323 H 0.26395 0.79102 0.47182 0.0
H324 H 0.29994 0.81795 0.45158 0.0
H325 H 0.32365 0.83096 0.4765 0.0
C326 C 0.44006 0.89928 0.4536 0.0
C327 C 0.47421 0.91333 0.46831 0.0
C328 C 0.40192 0.85998 0.45219 0.0
C329 C 0.39641 0.83394 0.46573 0.0
C330 C 0.43066 0.84793 0.48038 0.0
H331 H 0.13213 0.59756 0.45906 0.0
H332 H 0.19759 0.66167 0.47276 0.0
C333 C 0.46919 0.88716 0.48162 0.0
C334 C 0.35616 0.79189 0.46395 0.0
H335 H 0.23989 0.72972 0.45707 0.0
C336 C 0.3639 0.76426 0.46271 0.0
C337 C 0.31049 0.77888 0.4629 0.0
C338 C 0.29899 0.80628 0.46601 0.0
C339 C 0.32771 0.72446 0.45941 0.0
C340 C 0.28255 0.71189 0.45658 0.0
C341 C 0.27448 0.73922 0.4589 0.0
C342 C 0.24398 0.67133 0.44967 0.0
C343 C 0.33848 0.69638 0.45898 0.0
C344 C 0.2482 0.65516 0.43228 0.0
C345 C 0.21127 0.61852 0.42465 0.0
C346 C 0.1686 0.5973 0.43392 0.0
C347 C 0.16454 0.613 0.45163 0.0
C348 C 0.20185 0.64976 0.45938 0.0
H349 H 0.36872 0.70746 0.46865 0.0
H350 H 0.30909 0.66739 0.46387 0.0
H351 H 0.34692 0.69304 0.44364 0.0
H352 H 0.27974 0.67138 0.42417 0.0
H353 H 0.21593 0.60715 0.41116 0.0
H354 H 0.5108 0.26075 0.85866 0.0
H355 H 0.52179 0.21313 0.84774 0.0
H356 H 0.60092 0.28328 0.79873 0.0
H357 H 0.59244 0.332 0.81015 0.0
H358 H 0.49346 0.17003 0.81431 0.0
H359 H 0.68194 0.25978 0.81909 0.0
H360 H 0.65133 0.27572 0.83013 0.0
H361 H 0.66437 0.28156 0.80415 0.0
C362 C 0.53146 0.26653 0.84582 0.0
C363 C 0.55073 0.30033 0.83531 0.0
C364 C 0.53741 0.23909 0.83951 0.0
C365 C 0.5628 0.24485 0.82258 0.0
C366 C 0.58215 0.27856 0.8121 0.0
H367 H 0.53592 0.07438 0.7427 0.0
H368 H 0.53016 0.11985 0.76151 0.0
C369 C 0.57657 0.30614 0.81849 0.0
C370 C 0.56663 0.21456 0.8151 0.0
H371 H 0.64313 0.20097 0.79844 0.0
C372 C 0.52625 0.1767 0.81109 0.0
C373 C 0.60939 0.22295 0.81122 0.0
C374 C 0.65419 0.26212 0.81658 0.0
C375 C 0.52734 0.14752 0.80253 0.0
C376 C 0.56992 0.15669 0.79732 0.0
C377 C 0.61042 0.19405 0.80215 0.0
C378 C 0.57309 0.12851 0.78613 0.0
C379 C 0.48278 0.10715 0.7992 0.0
C380 C 0.6003 0.11905 0.79337 0.0
C381 C 0.60452 0.0936 0.78239 0.0
C382 C 0.58173 0.07723 0.76389 0.0
C383 C 0.5544 0.08674 0.75675 0.0
C384 C 0.55047 0.11232 0.76766 0.0
H385 H 0.45651 0.10177 0.80976 0.0
H386 H 0.46944 0.10395 0.78398 0.0
H387 H 0.48743 0.08465 0.80084 0.0
H388 H 0.61842 0.13149 0.80751 0.0
H389 H 0.62633 0.08736 0.78822 0.0
H390 H 0.57602 0.83511 0.5319 0.0
H391 H 0.56421 0.77558 0.53999 0.0
H392 H 0.64995 0.79093 0.49173 0.0
H393 H 0.66177 0.85032 0.48347 0.0
H394 H 0.52943 0.70625 0.51688 0.0
H395 H 0.71111 0.78507 0.54038 0.0
H396 H 0.68665 0.80954 0.53688 0.0
H397 H 0.70271 0.79421 0.51582 0.0
C398 C 0.59188 0.82556 0.52284 0.0
C399 C 0.62023 0.8477 0.50716 0.0
C400 C 0.58524 0.79162 0.52753 0.0
C401 C 0.60687 0.77925 0.51668 0.0
C402 C 0.63376 0.80044 0.50056 0.0
H403 H 0.62884 0.59537 0.53613 0.0
H404 H 0.63131 0.64676 0.52135 0.0
C405 C 0.6405 0.83439 0.49589 0.0
C406 C 0.60223 0.74476 0.52255 0.0
H407 H 0.6632 0.71668 0.54022 0.0
C408 C 0.55864 0.70846 0.52196 0.0
C409 C 0.64045 0.74776 0.52913 0.0
C410 C 0.68785 0.78625 0.53078 0.0
C411 C 0.55226 0.67499 0.52771 0.0
C412 C 0.59039 0.67811 0.53456 0.0
C413 C 0.63405 0.71432 0.53488 0.0
C414 C 0.58567 0.64468 0.5424 0.0
C415 C 0.50484 0.63655 0.5262 0.0
C416 C 0.55911 0.6264 0.55909 0.0
C417 C 0.55747 0.59697 0.56748 0.0
C418 C 0.58272 0.58543 0.55947 0.0
C419 C 0.60866 0.60331 0.54252 0.0
C420 C 0.61029 0.6328 0.53413 0.0
H421 H 0.48274 0.63691 0.51537 0.0
H422 H 0.50606 0.61252 0.52173 0.0
H423 H 0.48866 0.63046 0.54089 0.0
H424 H 0.54054 0.63557 0.56596 0.0
H425 H 0.53678 0.58351 0.5804 0.0
H426 H 0.76152 0.58526 0.83505 0.0
H427 H 0.82733 0.58508 0.8368 0.0
H428 H 0.74 0.46852 0.85706 0.0
H429 H 0.67402 0.46827 0.85506 0.0
H430 H 0.86812 0.57857 0.86739 0.0
H431 H 0.80508 0.45511 0.814 0.0
H432 H 0.77769 0.47761 0.81653 0.0
H433 H 0.76632 0.44255 0.8338 0.0
C434 C 0.75605 0.55936 0.83971 0.0
C435 C 0.71185 0.52665 0.84473 0.0
C436 C 0.79401 0.55934 0.84076 0.0
C437 C 0.78917 0.52654 0.84672 0.0
C438 C 0.74509 0.49395 0.85188 0.0
H439 H 0.97122 0.46999 0.87434 0.0
H440 H 0.90688 0.46973 0.86602 0.0
C441 C 0.70712 0.49394 0.85085 0.0
C442 C 0.83027 0.52698 0.84818 0.0
H443 H 0.87101 0.47744 0.83358 0.0
C444 C 0.86876 0.55659 0.85981 0.0
C445 C 0.83181 0.49843 0.83842 0.0
C446 C 0.79323 0.46684 0.82483 0.0
C447 C 0.90748 0.5578 0.86242 0.0
C448 C 0.9089 0.52907 0.85277 0.0
C449 C 0.87056 0.49964 0.841 0.0
C450 C 0.94866 0.52801 0.8555 0.0
C451 C 0.94583 0.58915 0.87618 0.0
C452 C 0.99421 0.56006 0.85158 0.0
C453 C 1.03128 0.56002 0.85617 0.0
C454 C 1.02388 0.52773 0.86455 0.0
C455 C 0.97822 0.49497 0.86743 0.0
C456 C 0.94127 0.49499 0.86285 0.0
H457 H 0.93453 0.60223 0.88636 0.0
H458 H 0.95946 0.57759 0.88523 0.0
H459 H 0.97408 0.61261 0.86728 0.0
H460 H 1.00133 0.58571 0.8455 0.0
H461 H 0.0659 0.58609 0.85421 0.0
H462 H 0.16285 0.68171 0.16582 0.0
H463 H 0.23325 0.7484 0.16867 0.0
H464 H 0.30816 0.71214 0.14217 0.0
H465 H 0.2375 0.64513 0.13895 0.0
H466 H 0.30903 0.77402 0.19038 0.0
H467 H 0.35442 0.80812 0.1116 0.0
H468 H 0.29838 0.76686 0.11895 0.0
H469 H 0.34522 0.76475 0.11865 0.0
C470 C 0.19413 0.68782 0.1604 0.0
C471 C 0.19439 0.65789 0.15218 0.0
C472 C 0.23442 0.72608 0.16202 0.0
C473 C 0.27598 0.73547 0.15544 0.0
C474 C 0.27638 0.70582 0.14697 0.0
H475 H 0.5413 0.93644 0.19975 0.0
H476 H 0.47534 0.87153 0.18776 0.0
C477 C 0.23594 0.66742 0.14527 0.0
C478 C 0.31914 0.77572 0.15888 0.0
H479 H 0.41067 0.85405 0.13589 0.0
C480 C 0.33112 0.7915 0.17843 0.0
C481 C 0.34781 0.79872 0.14328 0.0
C482 C 0.33572 0.78397 0.12191 0.0
C483 C 0.37109 0.82931 0.18286 0.0
C484 C 0.40048 0.85192 0.16737 0.0
C485 C 0.3883 0.83652 0.14775 0.0
C486 C 0.44396 0.89153 0.17159 0.0
C487 C 0.38128 0.84494 0.20414 0.0
C488 C 0.44945 0.92448 0.16558 0.0
C489 C 0.48744 0.96179 0.17233 0.0
C490 C 0.5203 0.96652 0.18522 0.0
C491 C 0.51621 0.93359 0.19002 0.0
C492 C 0.47853 0.89651 0.18322 0.0
H493 H 0.3504 0.82781 0.21338 0.0
H494 H 0.40764 0.84352 0.21052 0.0
H495 H 0.39483 0.87574 0.20507 0.0
H496 H 0.42319 0.92123 0.15655 0.0
H497 H 0.48966 0.98664 0.16848 0.0
H498 H 0.53177 0.19413 0.51417 0.0
H499 H 0.53935 0.25096 0.52686 0.0
H500 H 0.57174 0.29601 0.46835 0.0
H501 H 0.56355 0.23876 0.45548 0.0
H502 H 0.61353 0.32683 0.52755 0.0
H503 H 0.47224 0.30422 0.48361 0.0
H504 H 0.47913 0.26706 0.48524 0.0
H505 H 0.51429 0.30634 0.46901 0.0
C506 C 0.54057 0.21616 0.504 0.0
C507 C 0.54706 0.21197 0.48381 0.0
C508 C 0.54475 0.24857 0.51126 0.0
C509 C 0.55554 0.27754 0.49853 0.0
C510 C 0.56232 0.2736 0.47837 0.0
H511 H 0.62055 0.50306 0.53205 0.0
H512 H 0.61529 0.4507 0.51379 0.0
C513 C 0.55777 0.24096 0.47104 0.0
C514 C 0.56088 0.31223 0.50666 0.0
H515 H 0.51795 0.36216 0.50384 0.0
C516 C 0.59271 0.33457 0.5223 0.0
C517 C 0.53368 0.32235 0.49981 0.0
C518 C 0.49761 0.29859 0.48362 0.0
C519 C 0.59769 0.36642 0.5314 0.0
C520 C 0.57023 0.37621 0.52468 0.0
C521 C 0.53909 0.35454 0.50881 0.0
C522 C 0.57153 0.40737 0.53495 0.0
C523 C 0.63177 0.38921 0.54835 0.0
C524 C 0.54809 0.39998 0.55266 0.0
C525 C 0.55065 0.42957 0.563 0.0
C526 C 0.57697 0.46728 0.55589 0.0
C527 C 0.59971 0.47434 0.53786 0.0
C528 C 0.59693 0.44456 0.52746 0.0
H529 H 0.65428 0.38083 0.55029 0.0
H530 H 0.65341 0.42079 0.54588 0.0
H531 H 0.61314 0.38408 0.5623 0.0
H532 H 0.5281 0.37133 0.55856 0.0
H533 H 0.53195 0.42286 0.57661 0.0
H534 H 0.50814 0.58072 0.83729 0.0
H535 H 0.44288 0.58174 0.83991 0.0
H536 H 0.36509 0.47201 0.8678 0.0
H537 H 0.43014 0.47099 0.86545 0.0
H538 H 0.354 0.53294 0.825 0.0
H539 H 0.34926 0.53499 0.90693 0.0
H540 H 0.39681 0.54359 0.89359 0.0
H541 H 0.34543 0.4948 0.89634 0.0
C542 C 0.47725 0.55679 0.84407 0.0
C543 C 0.47505 0.52589 0.85128 0.0
C544 C 0.43967 0.55738 0.84551 0.0
C545 C 0.3987 0.5273 0.85438 0.0
C546 C 0.39627 0.49617 0.86131 0.0
H547 H 0.13639 0.47435 0.88454 0.0
H548 H 0.20071 0.47384 0.87735 0.0
C549 C 0.43372 0.49552 0.85985 0.0
C550 C 0.35863 0.52826 0.85632 0.0
H551 H 0.28583 0.52351 0.89005 0.0
C552 C 0.33933 0.5311 0.83927 0.0
C553 C 0.33895 0.52598 0.87486 0.0
C554 C 0.3589 0.52506 0.894 0.0
C555 C 0.3006 0.53042 0.84016 0.0
C556 C 0.28057 0.52765 0.8587 0.0
C557 C 0.30038 0.52536 0.87574 0.0
C558 C 0.23878 0.52623 0.86095 0.0
C559 C 0.28062 0.53133 0.82104 0.0
C560 C 0.23714 0.55526 0.85382 0.0
C561 C 0.19951 0.55517 0.85769 0.0
C562 C 0.16259 0.52626 0.86896 0.0
C563 C 0.16375 0.49675 0.87556 0.0
C564 C 0.20098 0.49668 0.8716 0.0
H565 H 0.29075 0.52192 0.80806 0.0
H566 H 0.24267 0.51239 0.82137 0.0
H567 H 0.29358 0.5615 0.81885 0.0
H568 H 0.26588 0.57909 0.846 0.0
H569 H 0.20055 0.57895 0.85285 0.0
H570 H 0.91974 0.43046 0.1715 0.0
H571 H 0.85319 0.36287 0.17461 0.0
H572 H 0.90436 0.328 0.12881 0.0
H573 H 0.9723 0.39584 0.12618 0.0
H574 H 0.78565 0.3094 0.1486 0.0
H575 H 0.88361 0.25956 0.17295 0.0
H576 H 0.90941 0.31027 0.17159 0.0
H577 H 0.89984 0.2817 0.14942 0.0
C578 C 0.91714 0.4085 0.16218 0.0
C579 C 0.95187 0.41866 0.14886 0.0
C580 C 0.87879 0.36978 0.16387 0.0
C581 C 0.874 0.34015 0.15221 0.0
C582 C 0.90777 0.35021 0.13834 0.0
H583 H 0.66709 0.088 0.16321 0.0
H584 H 0.72606 0.15096 0.1492 0.0
C585 C 0.94647 0.38907 0.13674 0.0
C586 C 0.83387 0.29891 0.15494 0.0
H587 H 0.80373 0.21223 0.16944 0.0
C588 C 0.78962 0.28808 0.15301 0.0
C589 C 0.83894 0.27102 0.16073 0.0
C590 C 0.88545 0.28116 0.16399 0.0
C591 C 0.75048 0.25041 0.15694 0.0
C592 C 0.75565 0.22284 0.1632 0.0
C593 C 0.79975 0.23328 0.16453 0.0
C594 C 0.7164 0.18416 0.17004 0.0
C595 C 0.70399 0.24062 0.15443 0.0
C596 C 0.69109 0.18177 0.18629 0.0
C597 C 0.65747 0.14596 0.19424 0.0
C598 C 0.64853 0.11164 0.18625 0.0
C599 C 0.67284 0.11383 0.16958 0.0
C600 C 0.7067 0.14981 0.16163 0.0
H601 H 0.7047 0.2595 0.14368 0.0
H602 H 0.67782 0.20981 0.14931 0.0
H603 H 0.69342 0.24544 0.1689 0.0
H604 H 0.69848 0.20782 0.19332 0.0
H605 H 0.63914 0.14525 0.20701 0.0
H606 H 1.05798 0.50379 0.09613 0.0
H607 H 0.06915 0.50445 0.0604 0.0
H608 H 0.07603 0.60613 0.0575 0.0
H609 H 0.06603 0.60617 0.0935 0.0
H610 H 1.01554 0.49687 0.03067 0.0
H611 H 0.18849 0.6388 0.02726 0.0
H612 H 0.16394 0.61535 0.05026 0.0
H613 H 0.14731 0.64175 0.03922 0.0
C614 C 1.0622 0.52648 0.08791 0.0
C615 C 1.06128 0.55503 0.09758 0.0
C616 C 0.06854 0.52679 0.06748 0.0
C617 C 0.07408 0.55563 0.05626 0.0
C618 C 0.07291 0.5841 0.06589 0.0
H619 H 0.08901 0.58792 0.92945 0.0
H620 H 0.08446 0.59245 0.96556 0.0
C621 C 0.06684 0.58395 0.08642 0.0
C622 C 0.07923 0.55472 0.03442 0.0
H623 H 0.14968 0.6074 0.99644 0.0
C624 C 1.045 0.52099 0.02321 0.0
C625 C 0.11769 0.58619 0.02468 0.0
C626 C 0.15669 0.62244 0.03597 0.0
C627 C 1.04787 0.51804 0.00256 0.0
C628 C 0.0862 0.54951 0.99284 0.0
C629 C 0.12035 0.58333 0.00397 0.0
C630 C 0.09106 0.54782 0.97108 0.0
C631 C 1.00951 0.4815 0.99122 0.0
C632 C 0.09713 0.52171 0.96226 0.0
C633 C 0.09977 0.51906 0.94164 0.0
C634 C 0.09626 0.54243 0.92946 0.0
C635 C 0.09123 0.56918 0.93842 0.0
C636 C 0.08887 0.57196 0.95903 0.0
H637 H 0.97835 0.46342 0.00022 0.0
H638 H 1.00045 0.48862 0.97745 0.0
H639 H 1.02083 0.46394 0.98689 0.0
H640 H 0.09939 0.50312 0.97134 0.0
H641 H 0.10339 0.49804 0.9352 0.0
H642 H 0.54069 0.99506 0.41675 0.0
H643 H 0.53541 0.99651 0.38067 0.0
H644 H 0.68217 0.08328 0.37894 0.0
H645 H 0.68767 0.0806 0.41481 0.0
H646 H 0.55704 0.05068 0.35615 0.0
H647 H 0.66335 1.0044 0.33908 0.0
H648 H 0.64347 1.00325 0.36368 0.0
H649 H 0.6935 0.04791 0.35469 0.0
C650 C 0.57176 0.01439 0.40862 0.0
C651 C 0.61465 0.03731 0.41845 0.0
C652 C 0.56874 0.01524 0.38803 0.0
C653 C 0.60851 0.03927 0.37699 0.0
C654 C 0.65116 0.06353 0.387 0.0
H655 H 0.60917 0.09721 0.25483 0.0
H656 H 0.61409 0.09753 0.29086 0.0
C657 C 0.65425 0.0622 0.40751 0.0
C658 C 0.60543 0.0389 0.35503 0.0
H659 H 0.64709 0.02814 0.31229 0.0
C660 C 0.57654 0.04554 0.34655 0.0
C661 C 0.63019 0.03145 0.34246 0.0
C662 C 0.65896 0.02093 0.35043 0.0
C663 C 0.57224 0.04553 0.32589 0.0
C664 C 0.59878 0.04002 0.31336 0.0
C665 C 0.62719 0.03288 0.32186 0.0
C666 C 0.59684 0.04049 0.29139 0.0
C667 C 0.53838 0.05038 0.31775 0.0
C668 C 0.58758 0.00913 0.27957 0.0
C669 C 0.58627 0.00942 0.25891 0.0
C670 C 0.59373 0.04093 0.24954 0.0
C671 C 0.60355 0.07254 0.26144 0.0
C672 C 0.60557 0.07248 0.28212 0.0
H673 H 0.51131 0.04203 0.32856 0.0
H674 H 0.55655 0.08134 0.31465 0.0
H675 H 0.52172 0.03261 0.30376 0.0
H676 H 0.58121 0.98427 0.28634 0.0
H677 H 0.57969 0.98495 0.25031 0.0
H678 H 0.50306 0.47227 0.78201 0.0
H679 H 0.51346 0.48393 0.74653 0.0
H680 H 0.65968 0.56545 0.75634 0.0
H681 H 0.64949 0.55383 0.79195 0.0
H682 H 0.56086 0.55744 0.72663 0.0
H683 H 0.63705 0.48173 0.71397 0.0
H684 H 0.60489 0.47512 0.73578 0.0
H685 H 0.66221 0.51898 0.73355 0.0
C686 C 0.53741 0.49281 0.77662 0.0
C687 C 0.5755 0.51196 0.78966 0.0
C688 C 0.54328 0.4995 0.75639 0.0
C689 C 0.58732 0.52522 0.74884 0.0
C690 C 0.62544 0.54517 0.76189 0.0
H691 H 0.64114 0.59454 0.62537 0.0
H692 H 0.64384 0.59625 0.66168 0.0
C693 C 0.61957 0.53862 0.78219 0.0
C694 C 0.59299 0.53007 0.7272 0.0
H695 H 0.62762 0.50702 0.68615 0.0
C696 C 0.57585 0.5468 0.71776 0.0
C697 C 0.61218 0.51578 0.71574 0.0
C698 C 0.62994 0.49663 0.72516 0.0
C699 C 0.57694 0.54923 0.69706 0.0
C700 C 0.5958 0.53464 0.68559 0.0
C701 C 0.61343 0.51834 0.69505 0.0
C702 C 0.59503 0.53394 0.66366 0.0
C703 C 0.55658 0.56615 0.68752 0.0
C704 C 0.5672 0.49832 0.6528 0.0
C705 C 0.56526 0.49721 0.63211 0.0
C706 C 0.59148 0.53176 0.62184 0.0
C707 C 0.61993 0.56744 0.63281 0.0
C708 C 0.62166 0.56849 0.65354 0.0
H709 H 0.53678 0.5703 0.69815 0.0
H710 H 0.58449 0.59481 0.68176 0.0
H711 H 0.53371 0.54703 0.67479 0.0
H712 H 0.54635 0.47135 0.66038 0.0
H713 H 0.54253 0.46929 0.62419 0.0
H714 H 0.64932 0.06862 0.52891 0.0
H715 H 0.6586 0.06685 0.56472 0.0
H716 H 0.51224 0.99558 0.57092 0.0
H717 H 0.50275 0.99737 0.53522 0.0
H718 H 0.62449 0.09226 0.59563 0.0
H719 H 0.55355 0.93792 0.59956 0.0
H720 H 0.57471 0.96372 0.57691 0.0
H721 H 0.51943 0.94619 0.58562 0.0
C722 C 0.61916 0.05236 0.53792 0.0
C723 C 0.57531 0.03315 0.52937 0.0
C724 C 0.62451 0.05141 0.55832 0.0
C725 C 0.58607 0.0308 0.57037 0.0
C726 C 0.54226 0.01122 0.5618 0.0
H727 H 0.54532 0.04003 0.695 0.0
H728 H 0.54761 0.04268 0.65889 0.0
C729 C 0.53691 0.01243 0.54146 0.0
C730 C 0.59167 0.03115 0.59207 0.0
H731 H 0.5657 0.97231 0.63019 0.0
C732 C 0.61202 0.06615 0.6032 0.0
C733 C 0.57563 0.99706 0.60181 0.0
C734 C 0.55491 0.95908 0.59041 0.0
C735 C 0.61539 0.06767 0.62396 0.0
C736 C 0.59782 0.03329 0.63376 0.0
C737 C 0.57886 0.99855 0.62259 0.0
C738 C 0.59755 0.03261 0.65565 0.0
C739 C 0.63747 0.10594 0.63532 0.0
C740 C 0.62463 0.02574 0.66573 0.0
C741 C 0.62385 0.02465 0.68641 0.0
C742 C 0.59551 0.02996 0.69737 0.0
C743 C 0.56821 0.03658 0.68711 0.0
C744 C 0.5693 0.03795 0.66647 0.0
H745 H 0.65781 0.13089 0.62556 0.0
H746 H 0.61043 0.10632 0.64211 0.0
H747 H 0.66017 0.10979 0.64746 0.0
H748 H 0.64661 0.02151 0.65758 0.0
H749 H 0.64574 0.01997 0.69381 0.0
H750 H 0.55251 0.51729 0.90785 0.0
H751 H 0.54821 0.48785 0.93869 0.0
H752 H 0.66981 0.5006 0.9231 0.0
H753 H 0.67628 0.53332 0.89321 0.0
H754 H 0.53615 0.42707 0.94776 0.0
H755 H 0.71 0.54951 0.97634 0.0
H756 H 0.68562 0.55264 0.95435 0.0
H757 H 0.71114 0.52848 0.95325 0.0
C758 C 0.57855 0.51419 0.91125 0.0
C759 C 0.61531 0.52832 0.8986 0.0
C760 C 0.57599 0.49714 0.92876 0.0
C761 C 0.60939 0.49282 0.9336 0.0
C762 C 0.64475 0.50505 0.92025 0.0
H763 H 0.54264 0.36087 0.04217 0.0
H764 H 0.55901 0.37582 0.00712 0.0
C765 C 0.6483 0.52351 0.90312 0.0
C766 C 0.60712 0.47609 0.95274 0.0
H767 H 0.66798 0.49407 0.99519 0.0
C768 C 0.56499 0.44179 0.95816 0.0
C769 C 0.64478 0.49518 0.96635 0.0
C770 C 0.69025 0.53365 0.96238 0.0
C771 C 0.55862 0.42735 0.97712 0.0
C772 C 0.59627 0.4465 0.99071 0.0
C773 C 0.63913 0.47932 0.98479 0.0
C774 C 0.5909 0.43694 0.01196 0.0
C775 C 0.51092 0.39332 0.9827 0.0
C776 C 0.60629 0.46664 0.02651 0.0
C777 C 0.59882 0.45851 0.04647 0.0
C778 C 0.57445 0.4202 0.05248 0.0
C779 C 0.56107 0.39062 0.03805 0.0
C780 C 0.56973 0.39904 0.01796 0.0
H781 H 0.48445 0.38812 0.97226 0.0
H782 H 0.50832 0.36668 0.98227 0.0
H783 H 0.50297 0.39801 -0.00212 0.0
H784 H 0.62315 0.49622 0.02243 0.0
H785 H 0.61131 0.48237 0.05718 0.0
H786 H 0.10635 0.57785 0.20629 0.0
H787 H 0.10137 0.5766 0.24253 0.0
H788 H 0.0654 0.4622 0.24015 0.0
H789 H 0.07023 0.46327 0.20395 0.0
H790 H 1.02639 0.52208 0.26684 0.0
H791 H 0.17746 0.52632 0.27846 0.0
H792 H 0.16569 0.53817 0.25532 0.0
H793 H 0.13459 0.48832 0.26141 0.0
C794 C 0.097 0.55234 0.21351 0.0
C795 C 0.08867 0.52065 0.20239 0.0
C796 C 0.09429 0.5517 0.23418 0.0
C797 C 0.08361 0.51953 0.244 0.0
C798 C 0.07448 0.48758 0.23286 0.0
H799 H 0.06786 0.46593 0.36735 0.0
H800 H 0.06358 0.46378 0.33113 0.0
C801 C 0.07715 0.48819 0.21221 0.0
C802 C 0.08244 0.5195 0.26592 0.0
H803 H 0.13382 0.51649 0.30667 0.0
C804 C 1.04992 0.52098 0.27559 0.0
C805 C 0.11321 0.51805 0.27723 0.0
C806 C 0.15001 0.51796 0.26764 0.0
C807 C 1.04684 0.52036 0.29634 0.0
C808 C 0.07764 0.51891 0.30765 0.0
C809 C 0.11014 0.51746 0.29794 0.0
C810 C 0.07723 0.51929 0.32961 0.0
C811 C 1.01007 0.52045 0.30594 0.0
C812 C 0.08634 0.55123 0.34075 0.0
C813 C 0.0885 0.55243 0.36145 0.0
C814 C 0.0819 0.5218 0.3714 0.0
C815 C 0.07244 0.48972 0.36017 0.0
C816 C 0.07027 0.48855 0.33947 0.0
H817 H 0.98211 0.51119 0.29521 0.0
H818 H 0.99513 0.50098 0.31857 0.0
H819 H 1.02529 0.55032 0.31171 0.0
H820 H 0.09266 0.57559 0.33342 0.0
H821 H 0.09552 0.57741 0.36968 0.0
loop_
_geom_bond_atom_site_label_1
_geom_bond_atom_site_label_2
_geom_bond_distance
_geom_bond_site_symmetry_2
_ccdc_geom_bond_type
Ho0 C3 2.811 . S
Ho0 O20 2.322 . S
Ho0 O22 2.378 . S
Ho0 O23 2.524 . S
Ho0 O24 2.381 . S
Ho0 O25 2.669 . S
Ho0 O27 2.346 1_455 S
Ho0 O31 2.305 . S
Ho1 C12 2.811 . S
Ho1 O21 2.346 1_655 S
Ho1 O25 2.305 1_655 S
Ho1 O26 2.322 . S
Ho1 O28 2.378 . S
Ho1 O29 2.524 . S
Ho1 O30 2.381 1_655 S
Ho1 O31 2.669 1_655 S
C2 O20 1.259 . S
C2 O21 1.268 . S
C3 Ho0 2.811 . S
C3 C4 1.488 . S
C3 O22 1.215 . S
C3 O23 1.289 . S
C4 C3 1.488 . S
C4 C5 1.348 . S
C4 C9 1.413 . S
C5 C4 1.348 . S
C5 C6 1.442 . S
C5 H32 0.930 . S
C6 C5 1.442 . S
C6 C7 1.381 . S
C6 H33 0.931 . S
C7 C6 1.381 . S
C7 C8 1.321 . S
C8 C7 1.321 . S
C8 C9 1.403 . S
C8 H34 0.934 . S
C9 C4 1.413 . S
C9 C8 1.403 . S
C9 H35 0.930 . S
C10 O24 1.275 . S
C10 O25 1.256 . S
C11 O26 1.259 . S
C11 O27 1.268 . S
C12 Ho1 2.811 . S
C12 C13 1.488 . S
C12 O28 1.215 . S
C12 O29 1.289 . S
C13 C12 1.488 . S
C13 C14 1.348 . S
C13 C18 1.413 . S
C14 C13 1.348 . S
C14 C15 1.442 . S
C14 H36 0.930 . S
C15 C14 1.442 . S
C15 C16 1.381 . S
C15 H37 0.931 . S
C16 C15 1.381 . S
C16 C17 1.321 . S
C17 C16 1.321 . S
C17 C18 1.403 . S
C17 H38 0.934 . S
C18 C13 1.413 . S
C18 C17 1.403 . S
C18 H39 0.930 . S
C19 O30 1.275 . S
C19 O31 1.256 . S
O20 Ho0 2.322 . S
O20 C2 1.259 . S
O21 Ho1 2.346 1_455 S
O21 C2 1.268 . S
O22 Ho0 2.378 . S
O22 C3 1.215 . S
O23 Ho0 2.524 . S
O23 C3 1.289 . S
O24 Ho0 2.381 . S
O24 C10 1.275 . S
O25 Ho0 2.669 . S
O25 Ho1 2.305 1_455 S
O25 C10 1.256 . S
O26 Ho1 2.322 . S
O26 C11 1.259 . S
O27 Ho0 2.346 1_655 S
O27 C11 1.268 . S
O28 Ho1 2.378 . S
O28 C12 1.215 . S
O29 Ho1 2.524 . S
O29 C12 1.289 . S
O30 Ho1 2.381 1_455 S
O30 C19 1.275 . S
O31 Ho0 2.305 . S
O31 Ho1 2.669 1_455 S
O31 C19 1.256 . S
H32 C5 0.930 . S
H33 C6 0.931 . S
H34 C8 0.934 . S
H35 C9 0.930 . S
H36 C14 0.930 . S
H37 C15 0.931 . S
H38 C17 0.934 . S
H39 C18 0.930 . S
Ho40 C43 2.811 . S
Ho40 O60 2.322 . S
Ho40 O62 2.378 . S
Ho40 O63 2.524 . S
Ho40 O64 2.381 . S
Ho40 O65 2.669 1_565 S
Ho40 O67 2.346 1_565 S
Ho40 O71 2.300 1_565 S
Ho41 C52 2.811 . S
Ho41 O61 2.346 1_545 S
Ho41 O65 2.305 . S
Ho41 O66 2.322 . S
Ho41 O68 2.378 . S
Ho41 O69 2.524 . S
Ho41 O70 2.381 . S
Ho41 O71 2.676 . S
C42 O60 1.259 . S
C42 O61 1.268 . S
C43 Ho40 2.811 . S
C43 C44 1.488 . S
C43 O62 1.215 . S
C43 O63 1.289 . S
C44 C43 1.488 . S
C44 C45 1.348 . S
C44 C49 1.413 . S
C45 C44 1.348 . S
C45 C46 1.442 . S
C45 H72 0.930 . S
C46 C45 1.442 . S
C46 C47 1.381 . S
C46 H73 0.931 . S
C47 C46 1.381 . S
C47 C48 1.321 . S
C48 C47 1.321 . S
C48 C49 1.403 . S
C48 H74 0.934 . S
C49 C44 1.413 . S
C49 C48 1.403 . S
C49 H75 0.930 . S
C50 O64 1.275 1_545 S
C50 O65 1.256 . S
C51 O66 1.259 . S
C51 O67 1.268 . S
C52 Ho41 2.811 . S
C52 C53 1.488 . S
C52 O68 1.215 . S
C52 O69 1.289 . S
C53 C52 1.488 . S
C53 C54 1.348 . S
C53 C58 1.413 . S
C54 C53 1.348 . S
C54 C55 1.442 . S
C54 H76 0.930 . S
C55 C54 1.442 . S
C55 C56 1.381 . S
C55 H77 0.931 . S
C56 C55 1.381 . S
C56 C57 1.321 . S
C57 C56 1.321 . S
C57 C58 1.403 . S
C57 H78 0.934 . S
C58 C53 1.413 . S
C58 C57 1.403 . S
C58 H79 0.930 . S
C59 O70 1.275 . S
C59 O71 1.260 . S
O60 Ho40 2.322 . S
O60 C42 1.259 . S
O61 Ho41 2.346 1_565 S
O61 C42 1.268 . S
O62 Ho40 2.378 . S
O62 C43 1.215 . S
O63 Ho40 2.524 . S
O63 C43 1.289 . S
O64 Ho40 2.381 . S
O64 C50 1.275 1_565 S
O65 Ho40 2.669 1_545 S
O65 Ho41 2.305 . S
O65 C50 1.256 . S
O66 Ho41 2.322 . S
O66 C51 1.259 . S
O67 Ho40 2.346 1_545 S
O67 C51 1.268 . S
O68 Ho41 2.378 . S
O68 C52 1.215 . S
O69 Ho41 2.524 . S
O69 C52 1.289 . S
O70 Ho41 2.381 . S
O70 C59 1.275 . S
O71 Ho40 2.300 1_545 S
O71 Ho41 2.676 . S
O71 C59 1.260 . S
H72 C45 0.930 . S
H73 C46 0.931 . S
H74 C48 0.934 . S
H75 C49 0.930 . S
H76 C54 0.930 . S
H77 C55 0.931 . S
H78 C57 0.934 . S
H79 C58 0.930 . S
Ho80 C83 2.811 . S
Ho80 O100 2.322 . S
Ho80 O102 2.378 . S
Ho80 O103 2.524 . S
Ho80 O104 2.381 . S
Ho80 O105 2.669 . S
Ho80 O107 2.346 . S
Ho80 O111 2.305 . S
Ho81 C92 2.811 . S
Ho81 O101 2.346 . S
Ho81 O105 2.305 . S
Ho81 O106 2.322 . S
Ho81 O108 2.378 . S
Ho81 O109 2.524 . S
Ho81 O110 2.381 . S
Ho81 O111 2.669 . S
C82 O100 1.259 . S
C82 O101 1.268 . S
C83 Ho80 2.811 . S
C83 C84 1.488 . S
C83 O102 1.215 . S
C83 O103 1.289 . S
C84 C83 1.488 . S
C84 C85 1.348 . S
C84 C89 1.413 . S
C85 C84 1.348 . S
C85 C86 1.442 . S
C85 H112 0.930 . S
C86 C85 1.442 . S
C86 C87 1.381 . S
C86 H113 0.931 . S
C87 C86 1.381 . S
C87 C88 1.321 . S
C88 C87 1.321 . S
C88 C89 1.403 . S
C88 H114 0.934 . S
C89 C84 1.413 . S
C89 C88 1.403 . S
C89 H115 0.930 . S
C90 O104 1.275 . S
C90 O105 1.256 . S
C91 O106 1.259 . S
C91 O107 1.268 . S
C92 Ho81 2.811 . S
C92 C93 1.488 . S
C92 O108 1.215 . S
C92 O109 1.289 . S
C93 C92 1.488 . S
C93 C94 1.348 . S
C93 C98 1.413 . S
C94 C93 1.348 . S
C94 C95 1.442 . S
C94 H116 0.930 . S
C95 C94 1.442 . S
C95 C96 1.381 . S
C95 H117 0.931 . S
C96 C95 1.381 . S
C96 C97 1.321 . S
C97 C96 1.321 . S
C97 C98 1.403 . S
C97 H118 0.934 . S
C98 C93 1.413 . S
C98 C97 1.403 . S
C98 H119 0.930 . S
C99 O110 1.275 . S
C99 O111 1.256 . S
O100 Ho80 2.322 . S
O100 C82 1.259 . S
O101 Ho81 2.346 . S
O101 C82 1.268 . S
O102 Ho80 2.378 . S
O102 C83 1.215 . S
O103 Ho80 2.524 . S
O103 C83 1.289 . S
O104 Ho80 2.381 . S
O104 C90 1.275 . S
O105 Ho80 2.669 . S
O105 Ho81 2.305 . S
O105 C90 1.256 . S
O106 Ho81 2.322 . S
O106 C91 1.259 . S
O107 Ho80 2.346 . S
O107 C91 1.268 . S
O108 Ho81 2.378 . S
O108 C92 1.215 . S
O109 Ho81 2.524 . S
O109 C92 1.289 . S
O110 Ho81 2.381 . S
O110 C99 1.275 . S
O111 Ho80 2.305 . S
O111 Ho81 2.669 . S
O111 C99 1.256 . S
H112 C85 0.930 . S
H113 C86 0.931 . S
H114 C88 0.934 . S
H115 C89 0.930 . S
H116 C94 0.930 . S
H117 C95 0.931 . S
H118 C97 0.934 . S
H119 C98 0.930 . S
H120 C123 0.931 . S
H121 C126 0.928 . S
H122 C128 0.930 . S
C123 H120 0.931 . S
C123 C124 1.413 . S
C123 C125 1.360 1_565 S
C124 C123 1.413 . S
C124 C128 1.429 1_565 S
C125 C123 1.360 1_545 S
C125 C126 1.372 . S
C126 H121 0.928 . S
C126 C125 1.372 . S
C126 C127 1.404 . S
C127 C126 1.404 . S
C127 C128 1.391 . S
C128 H122 0.930 . S
C128 C124 1.429 1_545 S
C128 C127 1.391 . S
H129 C132 0.931 . S
H130 C135 0.928 . S
H131 C137 0.930 . S
C132 H129 0.931 . S
C132 C133 1.413 . S
C132 C134 1.360 . S
C133 C132 1.413 . S
C133 C137 1.429 . S
C134 C132 1.360 . S
C134 C135 1.372 . S
C135 H130 0.928 . S
C135 C134 1.372 . S
C135 C136 1.404 . S
C136 C135 1.404 . S
C136 C137 1.391 . S
C137 H131 0.930 . S
C137 C133 1.429 . S
C137 C136 1.391 . S
H138 C141 0.954 . S
H139 C144 0.928 . S
H140 C146 0.930 . S
C141 H138 0.954 . S
C141 C142 1.413 . S
C141 C143 1.360 . S
C142 C141 1.413 . S
C142 C146 1.429 . S
C143 C141 1.360 . S
C143 C144 1.372 . S
C144 H139 0.928 . S
C144 C143 1.372 . S
C144 C145 1.404 . S
C145 C144 1.404 . S
C145 C146 1.391 . S
C146 H140 0.930 . S
C146 C142 1.429 . S
C146 C145 1.391 . S
H147 C150 0.931 . S
H148 C153 0.928 . S
H149 C155 0.930 . S
C150 H147 0.931 . S
C150 C151 1.413 . S
C150 C152 1.361 1_655 S
C151 C150 1.413 . S
C151 C155 1.429 1_655 S
C152 C150 1.361 1_455 S
C152 C153 1.371 . S
C153 H148 0.928 . S
C153 C152 1.371 . S
C153 C154 1.404 . S
C154 C153 1.404 . S
C154 C155 1.391 . S
C155 H149 0.930 . S
C155 C151 1.429 1_455 S
C155 C154 1.391 . S
H156 C159 0.931 . S
H157 C162 0.928 . S
H158 C164 0.930 . S
C159 H156 0.931 . S
C159 C160 1.413 . S
C159 C161 1.379 . S
C160 C159 1.413 . S
C160 C164 1.429 . S
C161 C159 1.379 . S
C161 C162 1.353 1_545 S
C162 H157 0.928 . S
C162 C161 1.353 1_565 S
C162 C163 1.404 . S
C163 C162 1.404 . S
C163 C164 1.391 1_565 S
C164 H158 0.930 . S
C164 C160 1.429 . S
C164 C163 1.391 1_545 S
H165 C168 0.931 . S
H166 C171 0.928 . S
H167 C173 0.930 . S
C168 H165 0.931 . S
C168 C169 1.413 . S
C168 C170 1.360 . S
C169 C168 1.413 . S
C169 C173 1.429 . S
C170 C168 1.360 . S
C170 C171 1.372 . S
C171 H166 0.928 . S
C171 C170 1.372 . S
C171 C172 1.404 . S
C172 C171 1.404 . S
C172 C173 1.391 . S
C173 H167 0.930 . S
C173 C169 1.429 . S
C173 C172 1.391 . S
H174 C182 0.929 . S
H175 C184 0.930 . S
H176 C186 0.930 . S
H177 C189 0.929 . S
H178 C192 0.930 . S
H179 C194 0.960 . S
H180 C194 0.960 . S
H181 C194 0.960 . S
C182 H174 0.929 . S
C182 C183 1.377 . S
C182 C184 1.384 . S
C183 C182 1.377 . S
C183 C189 1.390 . S
C184 H175 0.930 . S
C184 C182 1.384 . S
C184 C185 1.372 . S
C185 C184 1.372 . S
C185 C186 1.400 . S
C185 C190 1.490 . S
C186 H176 0.930 . S
C186 C185 1.400 . S
C186 C189 1.386 . S
H187 C203 0.930 . S
H188 C204 0.931 . S
C189 H177 0.929 . S
C189 C183 1.390 . S
C189 C186 1.386 . S
C190 C185 1.490 . S
C190 C192 1.395 . S
C190 C193 1.403 . S
H191 C197 0.930 . S
C192 H178 0.930 . S
C192 C190 1.395 . S
C192 C195 1.403 . S
C193 C190 1.403 . S
C193 C194 1.524 . S
C193 C197 1.400 . S
C194 H179 0.960 . S
C194 H180 0.960 . S
C194 H181 0.960 . S
C194 C193 1.524 . S
C195 C192 1.403 . S
C195 C196 1.392 . S
C195 C199 1.495 . S
C196 C195 1.392 . S
C196 C197 1.385 . S
C196 C198 1.478 . S
C197 H191 0.930 . S
C197 C193 1.400 . S
C197 C196 1.385 . S
C198 C196 1.478 . S
C198 C200 1.381 . S
C198 C204 1.383 . S
C199 C195 1.495 . S
C199 H205 0.959 . S
C199 H206 0.961 . S
C199 H207 0.960 . S
C200 C198 1.381 . S
C200 C201 1.394 . S
C200 H208 0.930 . S
C201 C200 1.394 . S
C201 C202 1.383 . S
C201 H209 0.929 . S
C202 C201 1.383 . S
C202 C203 1.377 . S
C203 H187 0.930 . S
C203 C202 1.377 . S
C203 C204 1.379 . S
C204 H188 0.931 . S
C204 C198 1.383 . S
C204 C203 1.379 . S
H205 C199 0.959 . S
H206 C199 0.961 . S
H207 C199 0.960 . S
H208 C200 0.930 . S
H209 C201 0.929 . S
H210 C218 0.929 . S
H211 C220 0.930 . S
H212 C222 0.930 . S
H213 C225 0.929 . S
H214 C228 0.930 . S
H215 C230 0.960 . S
H216 C230 0.960 . S
H217 C230 0.960 . S
C218 H210 0.929 . S
C218 C219 1.377 . S
C218 C220 1.384 . S
C219 C218 1.377 . S
C219 C225 1.390 . S
C220 H211 0.930 . S
C220 C218 1.384 . S
C220 C221 1.372 . S
C221 C220 1.372 . S
C221 C222 1.400 . S
C221 C226 1.490 . S
C222 H212 0.930 . S
C222 C221 1.400 . S
C222 C225 1.386 . S
H223 C239 0.930 . S
H224 C240 0.931 . S
C225 H213 0.929 . S
C225 C219 1.390 . S
C225 C222 1.386 . S
C226 C221 1.490 . S
C226 C228 1.395 . S
C226 C229 1.403 . S
H227 C233 0.930 . S
C228 H214 0.930 . S
C228 C226 1.395 . S
C228 C231 1.403 . S
C229 C226 1.403 . S
C229 C230 1.524 . S
C229 C233 1.400 . S
C230 H215 0.960 . S
C230 H216 0.960 . S
C230 H217 0.960 . S
C230 C229 1.524 . S
C231 C228 1.403 . S
C231 C232 1.392 . S
C231 C235 1.495 . S
C232 C231 1.392 . S
C232 C233 1.385 . S
C232 C234 1.478 . S
C233 H227 0.930 . S
C233 C229 1.400 . S
C233 C232 1.385 . S
C234 C232 1.478 . S
C234 C236 1.381 . S
C234 C240 1.383 . S
C235 C231 1.495 . S
C235 H241 0.959 . S
C235 H242 0.961 . S
C235 H243 0.960 . S
C236 C234 1.381 . S
C236 C237 1.394 . S
C236 H244 0.930 . S
C237 C236 1.394 . S
C237 C238 1.383 . S
C237 H245 0.929 . S
C238 C237 1.383 . S
C238 C239 1.377 . S
C239 H223 0.930 . S
C239 C238 1.377 . S
C239 C240 1.379 . S
C240 H224 0.931 . S
C240 C234 1.383 . S
C240 C239 1.379 . S
H241 C235 0.959 . S
H242 C235 0.961 . S
H243 C235 0.960 . S
H244 C236 0.930 . S
H245 C237 0.929 . S
H246 C254 0.929 . S
H247 C256 0.930 . S
H248 C258 0.930 . S
H249 C261 0.929 . S
H250 C264 0.930 . S
H251 C266 0.960 . S
H252 C266 0.960 . S
H253 C266 0.960 . S
C254 H246 0.929 . S
C254 C255 1.377 . S
C254 C256 1.384 . S
C255 C254 1.377 . S
C255 C261 1.390 . S
C256 H247 0.930 . S
C256 C254 1.384 . S
C256 C257 1.372 . S
C257 C256 1.372 . S
C257 C258 1.400 . S
C257 C262 1.490 . S
C258 H248 0.930 . S
C258 C257 1.400 . S
C258 C261 1.386 . S
H259 C275 0.930 . S
H260 C276 0.931 . S
C261 H249 0.929 . S
C261 C255 1.390 . S
C261 C258 1.386 . S
C262 C257 1.490 . S
C262 C264 1.395 . S
C262 C265 1.403 . S
H263 C269 0.930 . S
C264 H250 0.930 . S
C264 C262 1.395 . S
C264 C267 1.403 . S
C265 C262 1.403 . S
C265 C266 1.524 . S
C265 C269 1.400 . S
C266 H251 0.960 . S
C266 H252 0.960 . S
C266 H253 0.960 . S
C266 C265 1.524 . S
C267 C264 1.403 . S
C267 C268 1.392 . S
C267 C271 1.495 . S
C268 C267 1.392 . S
C268 C269 1.385 . S
C268 C270 1.478 . S
C269 H263 0.930 . S
C269 C265 1.400 . S
C269 C268 1.385 . S
C270 C268 1.478 . S
C270 C272 1.381 . S
C270 C276 1.383 . S
C271 C267 1.495 . S
C271 H277 0.959 . S
C271 H278 0.961 . S
C271 H279 0.960 . S
C272 C270 1.381 . S
C272 C273 1.394 . S
C272 H280 0.930 . S
C273 C272 1.394 . S
C273 C274 1.383 . S
C273 H281 0.929 . S
C274 C273 1.383 . S
C274 C275 1.377 . S
C275 H259 0.930 . S
C275 C274 1.377 . S
C275 C276 1.379 . S
C276 H260 0.931 . S
C276 C270 1.383 . S
C276 C275 1.379 . S
H277 C271 0.959 . S
H278 C271 0.961 . S
H279 C271 0.960 . S
H280 C272 0.930 . S
H281 C273 0.929 . S
H282 C290 0.929 . S
H283 C292 0.930 . S
H284 C294 0.930 . S
H285 C297 0.929 . S
H286 C300 0.930 . S
H287 C302 0.960 . S
H288 C302 0.960 . S
H289 C302 0.960 . S
C290 H282 0.929 . S
C290 C291 1.377 . S
C290 C292 1.384 . S
C291 C290 1.377 . S
C291 C297 1.390 . S
C292 H283 0.930 . S
C292 C290 1.384 . S
C292 C293 1.372 . S
C293 C292 1.372 . S
C293 C294 1.400 . S
C293 C298 1.490 . S
C294 H284 0.930 . S
C294 C293 1.400 . S
C294 C297 1.386 . S
H295 C311 0.930 . S
H296 C312 0.931 . S
C297 H285 0.929 . S
C297 C291 1.390 . S
C297 C294 1.386 . S
C298 C293 1.490 . S
C298 C300 1.395 . S
C298 C301 1.403 . S
H299 C305 0.930 . S
C300 H286 0.930 . S
C300 C298 1.395 . S
C300 C303 1.403 . S
C301 C298 1.403 . S
C301 C302 1.524 . S
C301 C305 1.400 . S
C302 H287 0.960 . S
C302 H288 0.960 . S
C302 H289 0.960 . S
C302 C301 1.524 . S
C303 C300 1.403 . S
C303 C304 1.392 . S
C303 C307 1.495 . S
C304 C303 1.392 . S
C304 C305 1.385 . S
C304 C306 1.478 . S
C305 H299 0.930 . S
C305 C301 1.400 . S
C305 C304 1.385 . S
C306 C304 1.478 . S
C306 C308 1.381 . S
C306 C312 1.383 . S
C307 C303 1.495 . S
C307 H313 0.959 . S
C307 H314 0.961 . S
C307 H315 0.960 . S
C308 C306 1.381 . S
C308 C309 1.394 . S
C308 H316 0.930 . S
C309 C308 1.394 . S
C309 C310 1.383 . S
C309 H317 0.929 . S
C310 C309 1.383 . S
C310 C311 1.377 . S
C311 H295 0.930 . S
C311 C310 1.377 . S
C311 C312 1.379 . S
C312 H296 0.931 . S
C312 C306 1.383 . S
C312 C311 1.379 . S
H313 C307 0.959 . S
H314 C307 0.961 . S
H315 C307 0.960 . S
H316 C308 0.930 . S
H317 C309 0.929 . S
H318 C326 0.929 . S
H319 C328 0.930 . S
H320 C330 0.930 . S
H321 C333 0.929 . S
H322 C336 0.930 . S
H323 C338 0.960 . S
H324 C338 0.960 . S
H325 C338 0.960 . S
C326 H318 0.929 . S
C326 C327 1.377 . S
C326 C328 1.384 . S
C327 C326 1.377 . S
C327 C333 1.390 . S
C328 H319 0.930 . S
C328 C326 1.384 . S
C328 C329 1.372 . S
C329 C328 1.372 . S
C329 C330 1.400 . S
C329 C334 1.490 . S
C330 H320 0.930 . S
C330 C329 1.400 . S
C330 C333 1.386 . S
H331 C347 0.930 . S
H332 C348 0.931 . S
C333 H321 0.929 . S
C333 C327 1.390 . S
C333 C330 1.386 . S
C334 C329 1.490 . S
C334 C336 1.395 . S
C334 C337 1.403 . S
H335 C341 0.930 . S
C336 H322 0.930 . S
C336 C334 1.395 . S
C336 C339 1.403 . S
C337 C334 1.403 . S
C337 C338 1.524 . S
C337 C341 1.400 . S
C338 H323 0.960 . S
C338 H324 0.960 . S
C338 H325 0.960 . S
C338 C337 1.524 . S
C339 C336 1.403 . S
C339 C340 1.392 . S
C339 C343 1.495 . S
C340 C339 1.392 . S
C340 C341 1.385 . S
C340 C342 1.478 . S
C341 H335 0.930 . S
C341 C337 1.400 . S
C341 C340 1.385 . S
C342 C340 1.478 . S
C342 C344 1.381 . S
C342 C348 1.383 . S
C343 C339 1.495 . S
C343 H349 0.959 . S
C343 H350 0.961 . S
C343 H351 0.960 . S
C344 C342 1.381 . S
C344 C345 1.394 . S
C344 H352 0.930 . S
C345 C344 1.394 . S
C345 C346 1.383 . S
C345 H353 0.929 . S
C346 C345 1.383 . S
C346 C347 1.377 . S
C347 H331 0.930 . S
C347 C346 1.377 . S
C347 C348 1.379 . S
C348 H332 0.931 . S
C348 C342 1.383 . S
C348 C347 1.379 . S
H349 C343 0.959 . S
H350 C343 0.961 . S
H351 C343 0.960 . S
H352 C344 0.930 . S
H353 C345 0.929 . S
H354 C362 0.929 . S
H355 C364 0.930 . S
H356 C366 0.930 . S
H357 C369 0.929 . S
H358 C372 0.930 . S
H359 C374 0.960 . S
H360 C374 0.960 . S
H361 C374 0.960 . S
C362 H354 0.929 . S
C362 C363 1.377 . S
C362 C364 1.384 . S
C363 C362 1.377 . S
C363 C369 1.390 . S
C364 H355 0.930 . S
C364 C362 1.384 . S
C364 C365 1.372 . S
C365 C364 1.372 . S
C365 C366 1.400 . S
C365 C370 1.490 . S
C366 H356 0.930 . S
C366 C365 1.400 . S
C366 C369 1.386 . S
H367 C383 0.930 . S
H368 C384 0.931 . S
C369 H357 0.929 . S
C369 C363 1.390 . S
C369 C366 1.386 . S
C370 C365 1.490 . S
C370 C372 1.395 . S
C370 C373 1.403 . S
H371 C377 0.930 . S
C372 H358 0.930 . S
C372 C370 1.395 . S
C372 C375 1.403 . S
C373 C370 1.403 . S
C373 C374 1.524 . S
C373 C377 1.400 . S
C374 H359 0.960 . S
C374 H360 0.960 . S
C374 H361 0.960 . S
C374 C373 1.524 . S
C375 C372 1.403 . S
C375 C376 1.392 . S
C375 C379 1.495 . S
C376 C375 1.392 . S
C376 C377 1.385 . S
C376 C378 1.478 . S
C377 H371 0.930 . S
C377 C373 1.400 . S
C377 C376 1.385 . S
C378 C376 1.478 . S
C378 C380 1.381 . S
C378 C384 1.383 . S
C379 C375 1.495 . S
C379 H385 0.959 . S
C379 H386 0.961 . S
C379 H387 0.960 . S
C380 C378 1.381 . S
C380 C381 1.394 . S
C380 H388 0.930 . S
C381 C380 1.394 . S
C381 C382 1.383 . S
C381 H389 0.929 . S
C382 C381 1.383 . S
C382 C383 1.377 . S
C383 H367 0.930 . S
C383 C382 1.377 . S
C383 C384 1.379 . S
C384 H368 0.931 . S
C384 C378 1.383 . S
C384 C383 1.379 . S
H385 C379 0.959 . S
H386 C379 0.961 . S
H387 C379 0.960 . S
H388 C380 0.930 . S
H389 C381 0.929 . S
H390 C398 0.929 . S
H391 C400 0.930 . S
H392 C402 0.930 . S
H393 C405 0.929 . S
H394 C408 0.930 . S
H395 C410 0.960 . S
H396 C410 0.960 . S
H397 C410 0.960 . S
C398 H390 0.929 . S
C398 C399 1.377 . S
C398 C400 1.384 . S
C399 C398 1.377 . S
C399 C405 1.390 . S
C400 H391 0.930 . S
C400 C398 1.384 . S
C400 C401 1.372 . S
C401 C400 1.372 . S
C401 C402 1.400 . S
C401 C406 1.490 . S
C402 H392 0.930 . S
C402 C401 1.400 . S
C402 C405 1.386 . S
H403 C419 0.930 . S
H404 C420 0.931 . S
C405 H393 0.929 . S
C405 C399 1.390 . S
C405 C402 1.386 . S
C406 C401 1.490 . S
C406 C408 1.395 . S
C406 C409 1.403 . S
H407 C413 0.930 . S
C408 H394 0.930 . S
C408 C406 1.395 . S
C408 C411 1.403 . S
C409 C406 1.403 . S
C409 C410 1.524 . S
C409 C413 1.400 . S
C410 H395 0.960 . S
C410 H396 0.960 . S
C410 H397 0.960 . S
C410 C409 1.524 . S
C411 C408 1.403 . S
C411 C412 1.392 . S
C411 C415 1.495 . S
C412 C411 1.392 . S
C412 C413 1.385 . S
C412 C414 1.478 . S
C413 H407 0.930 . S
C413 C409 1.400 . S
C413 C412 1.385 . S
C414 C412 1.478 . S
C414 C416 1.381 . S
C414 C420 1.383 . S
C415 C411 1.495 . S
C415 H421 0.959 . S
C415 H422 0.961 . S
C415 H423 0.960 . S
C416 C414 1.381 . S
C416 C417 1.394 . S
C416 H424 0.930 . S
C417 C416 1.394 . S
C417 C418 1.383 . S
C417 H425 0.929 . S
C418 C417 1.383 . S
C418 C419 1.377 . S
C419 H403 0.930 . S
C419 C418 1.377 . S
C419 C420 1.379 . S
C420 H404 0.931 . S
C420 C414 1.383 . S
C420 C419 1.379 . S
H421 C415 0.959 . S
H422 C415 0.961 . S
H423 C415 0.960 . S
H424 C416 0.930 . S
H425 C417 0.929 . S
H426 C434 0.929 . S
H427 C436 0.930 . S
H428 C438 0.930 . S
H429 C441 0.929 . S
H430 C444 0.930 . S
H431 C446 0.960 . S
H432 C446 0.960 . S
H433 C446 0.960 . S
C434 H426 0.929 . S
C434 C435 1.377 . S
C434 C436 1.384 . S
C435 C434 1.377 . S
C435 C441 1.390 . S
C436 H427 0.930 . S
C436 C434 1.384 . S
C436 C437 1.372 . S
C437 C436 1.372 . S
C437 C438 1.400 . S
C437 C442 1.490 . S
C438 H428 0.930 . S
C438 C437 1.400 . S
C438 C441 1.386 . S
H439 C455 0.930 . S
H440 C456 0.931 . S
C441 H429 0.929 . S
C441 C435 1.390 . S
C441 C438 1.386 . S
C442 C437 1.490 . S
C442 C444 1.395 . S
C442 C445 1.403 . S
H443 C449 0.930 . S
C444 H430 0.930 . S
C444 C442 1.395 . S
C444 C447 1.403 . S
C445 C442 1.403 . S
C445 C446 1.524 . S
C445 C449 1.400 . S
C446 H431 0.960 . S
C446 H432 0.960 . S
C446 H433 0.960 . S
C446 C445 1.524 . S
C447 C444 1.403 . S
C447 C448 1.392 . S
C447 C451 1.495 . S
C448 C447 1.392 . S
C448 C449 1.385 . S
C448 C450 1.478 . S
C449 H443 0.930 . S
C449 C445 1.400 . S
C449 C448 1.385 . S
C450 C448 1.478 . S
C450 C452 1.381 . S
C450 C456 1.383 . S
C451 C447 1.495 . S
C451 H457 0.959 . S
C451 H458 0.961 . S
C451 H459 0.960 . S
C452 C450 1.381 . S
C452 C453 1.394 . S
C452 H460 0.930 . S
C453 C452 1.394 . S
C453 C454 1.383 . S
C453 H461 0.929 . S
C454 C453 1.383 . S
C454 C455 1.377 . S
C455 H439 0.930 . S
C455 C454 1.377 . S
C455 C456 1.379 . S
C456 H440 0.931 . S
C456 C450 1.383 . S
C456 C455 1.379 . S
H457 C451 0.959 . S
H458 C451 0.961 . S
H459 C451 0.960 . S
H460 C452 0.930 . S
H461 C453 0.929 . S
H462 C470 0.929 . S
H463 C472 0.930 . S
H464 C474 0.930 . S
H465 C477 0.929 . S
H466 C480 0.930 . S
H467 C482 0.960 . S
H468 C482 0.960 . S
H469 C482 0.960 . S
C470 H462 0.929 . S
C470 C471 1.377 . S
C470 C472 1.384 . S
C471 C470 1.377 . S
C471 C477 1.390 . S
C472 H463 0.930 . S
C472 C470 1.384 . S
C472 C473 1.372 . S
C473 C472 1.372 . S
C473 C474 1.400 . S
C473 C478 1.490 . S
C474 H464 0.930 . S
C474 C473 1.400 . S
C474 C477 1.386 . S
H475 C491 0.930 . S
H476 C492 0.931 . S
C477 H465 0.929 . S
C477 C471 1.390 . S
C477 C474 1.386 . S
C478 C473 1.490 . S
C478 C480 1.395 . S
C478 C481 1.403 . S
H479 C485 0.930 . S
C480 H466 0.930 . S
C480 C478 1.395 . S
C480 C483 1.403 . S
C481 C478 1.403 . S
C481 C482 1.524 . S
C481 C485 1.400 . S
C482 H467 0.960 . S
C482 H468 0.960 . S
C482 H469 0.960 . S
C482 C481 1.524 . S
C483 C480 1.403 . S
C483 C484 1.392 . S
C483 C487 1.495 . S
C484 C483 1.392 . S
C484 C485 1.385 . S
C484 C486 1.478 . S
C485 H479 0.930 . S
C485 C481 1.400 . S
C485 C484 1.385 . S
C486 C484 1.478 . S
C486 C488 1.381 . S
C486 C492 1.383 . S
C487 C483 1.495 . S
C487 H493 0.959 . S
C487 H494 0.961 . S
C487 H495 0.960 . S
C488 C486 1.381 . S
C488 C489 1.394 . S
C488 H496 0.930 . S
C489 C488 1.394 . S
C489 C490 1.383 . S
C489 H497 0.929 . S
C490 C489 1.383 . S
C490 C491 1.377 . S
C491 H475 0.930 . S
C491 C490 1.377 . S
C491 C492 1.379 . S
C492 H476 0.931 . S
C492 C486 1.383 . S
C492 C491 1.379 . S
H493 C487 0.959 . S
H494 C487 0.961 . S
H495 C487 0.960 . S
H496 C488 0.930 . S
H497 C489 0.929 . S
H498 C506 0.929 . S
H499 C508 0.930 . S
H500 C510 0.930 . S
H501 C513 0.929 . S
H502 C516 0.930 . S
H503 C518 0.960 . S
H504 C518 0.960 . S
H505 C518 0.960 . S
C506 H498 0.929 . S
C506 C507 1.377 . S
C506 C508 1.384 . S
C507 C506 1.377 . S
C507 C513 1.390 . S
C508 H499 0.930 . S
C508 C506 1.384 . S
C508 C509 1.372 . S
C509 C508 1.372 . S
C509 C510 1.400 . S
C509 C514 1.490 . S
C510 H500 0.930 . S
C510 C509 1.400 . S
C510 C513 1.386 . S
H511 C527 0.930 . S
H512 C528 0.931 . S
C513 H501 0.929 . S
C513 C507 1.390 . S
C513 C510 1.386 . S
C514 C509 1.490 . S
C514 C516 1.395 . S
C514 C517 1.403 . S
H515 C521 0.930 . S
C516 H502 0.930 . S
C516 C514 1.395 . S
C516 C519 1.403 . S
C517 C514 1.403 . S
C517 C518 1.524 . S
C517 C521 1.400 . S
C518 H503 0.960 . S
C518 H504 0.960 . S
C518 H505 0.960 . S
C518 C517 1.524 . S
C519 C516 1.403 . S
C519 C520 1.392 . S
C519 C523 1.495 . S
C520 C519 1.392 . S
C520 C521 1.385 . S
C520 C522 1.478 . S
C521 H515 0.930 . S
C521 C517 1.400 . S
C521 C520 1.385 . S
C522 C520 1.478 . S
C522 C524 1.381 . S
C522 C528 1.383 . S
C523 C519 1.495 . S
C523 H529 0.959 . S
C523 H530 0.961 . S
C523 H531 0.960 . S
C524 C522 1.381 . S
C524 C525 1.394 . S
C524 H532 0.930 . S
C525 C524 1.394 . S
C525 C526 1.383 . S
C525 H533 0.929 . S
C526 C525 1.383 . S
C526 C527 1.377 . S
C527 H511 0.930 . S
C527 C526 1.377 . S
C527 C528 1.379 . S
C528 H512 0.931 . S
C528 C522 1.383 . S
C528 C527 1.379 . S
H529 C523 0.959 . S
H530 C523 0.961 . S
H531 C523 0.960 . S
H532 C524 0.930 . S
H533 C525 0.929 . S
H534 C542 0.929 . S
H535 C544 0.930 . S
H536 C546 0.930 . S
H537 C549 0.929 . S
H538 C552 0.930 . S
H539 C554 0.960 . S
H540 C554 0.960 . S
H541 C554 0.960 . S
C542 H534 0.929 . S
C542 C543 1.377 . S
C542 C544 1.384 . S
C543 C542 1.377 . S
C543 C549 1.390 . S
C544 H535 0.930 . S
C544 C542 1.384 . S
C544 C545 1.372 . S
C545 C544 1.372 . S
C545 C546 1.400 . S
C545 C550 1.490 . S
C546 H536 0.930 . S
C546 C545 1.400 . S
C546 C549 1.386 . S
H547 C563 0.930 . S
H548 C564 0.931 . S
C549 H537 0.929 . S
C549 C543 1.390 . S
C549 C546 1.386 . S
C550 C545 1.490 . S
C550 C552 1.395 . S
C550 C553 1.403 . S
H551 C557 0.930 . S
C552 H538 0.930 . S
C552 C550 1.395 . S
C552 C555 1.403 . S
C553 C550 1.403 . S
C553 C554 1.524 . S
C553 C557 1.400 . S
C554 H539 0.960 . S
C554 H540 0.960 . S
C554 H541 0.960 . S
C554 C553 1.524 . S
C555 C552 1.403 . S
C555 C556 1.392 . S
C555 C559 1.495 . S
C556 C555 1.392 . S
C556 C557 1.385 . S
C556 C558 1.478 . S
C557 H551 0.930 . S
C557 C553 1.400 . S
C557 C556 1.385 . S
C558 C556 1.478 . S
C558 C560 1.381 . S
C558 C564 1.383 . S
C559 C555 1.495 . S
C559 H565 0.959 . S
C559 H566 0.961 . S
C559 H567 0.960 . S
C560 C558 1.381 . S
C560 C561 1.394 . S
C560 H568 0.930 . S
C561 C560 1.394 . S
C561 C562 1.383 . S
C561 H569 0.929 . S
C562 C561 1.383 . S
C562 C563 1.377 . S
C563 H547 0.930 . S
C563 C562 1.377 . S
C563 C564 1.379 . S
C564 H548 0.931 . S
C564 C558 1.383 . S
C564 C563 1.379 . S
H565 C559 0.959 . S
H566 C559 0.961 . S
H567 C559 0.960 . S
H568 C560 0.930 . S
H569 C561 0.929 . S
H570 C578 0.929 . S
H571 C580 0.930 . S
H572 C582 0.930 . S
H573 C585 0.929 . S
H574 C588 0.930 . S
H575 C590 0.960 . S
H576 C590 0.960 . S
H577 C590 0.960 . S
C578 H570 0.929 . S
C578 C579 1.377 . S
C578 C580 1.384 . S
C579 C578 1.377 . S
C579 C585 1.390 . S
C580 H571 0.930 . S
C580 C578 1.384 . S
C580 C581 1.372 . S
C581 C580 1.372 . S
C581 C582 1.400 . S
C581 C586 1.490 . S
C582 H572 0.930 . S
C582 C581 1.400 . S
C582 C585 1.386 . S
H583 C599 0.930 . S
H584 C600 0.931 . S
C585 H573 0.929 . S
C585 C579 1.390 . S
C585 C582 1.386 . S
C586 C581 1.490 . S
C586 C588 1.395 . S
C586 C589 1.403 . S
H587 C593 0.930 . S
C588 H574 0.930 . S
C588 C586 1.395 . S
C588 C591 1.403 . S
C589 C586 1.403 . S
C589 C590 1.524 . S
C589 C593 1.400 . S
C590 H575 0.960 . S
C590 H576 0.960 . S
C590 H577 0.960 . S
C590 C589 1.524 . S
C591 C588 1.403 . S
C591 C592 1.392 . S
C591 C595 1.495 . S
C592 C591 1.392 . S
C592 C593 1.385 . S
C592 C594 1.478 . S
C593 H587 0.930 . S
C593 C589 1.400 . S
C593 C592 1.385 . S
C594 C592 1.478 . S
C594 C596 1.381 . S
C594 C600 1.383 . S
C595 C591 1.495 . S
C595 H601 0.959 . S
C595 H602 0.961 . S
C595 H603 0.960 . S
C596 C594 1.381 . S
C596 C597 1.394 . S
C596 H604 0.930 . S
C597 C596 1.394 . S
C597 C598 1.383 . S
C597 H605 0.929 . S
C598 C597 1.383 . S
C598 C599 1.377 . S
C599 H583 0.930 . S
C599 C598 1.377 . S
C599 C600 1.379 . S
C600 H584 0.931 . S
C600 C594 1.383 . S
C600 C599 1.379 . S
H601 C595 0.959 . S
H602 C595 0.961 . S
H603 C595 0.960 . S
H604 C596 0.930 . S
H605 C597 0.929 . S
H606 C614 0.929 . S
H607 C616 0.930 . S
H608 C618 0.930 1_655 S
H609 C621 0.929 1_655 S
H610 C624 0.930 . S
H611 C626 0.960 . S
H612 C626 0.960 . S
H613 C626 0.960 . S
C614 H606 0.929 . S
C614 C615 1.377 . S
C614 C616 1.384 . S
C615 C614 1.377 . S
C615 C621 1.390 . S
C616 H607 0.930 . S
C616 C614 1.384 . S
C616 C617 1.372 . S
C617 C616 1.372 . S
C617 C618 1.400 . S
C617 C622 1.490 . S
C618 H608 0.930 1_455 S
C618 C617 1.400 . S
C618 C621 1.386 . S
H619 C635 0.930 . S
H620 C636 0.931 1_655 S
C621 H609 0.929 1_455 S
C621 C615 1.390 . S
C621 C618 1.386 . S
C622 C617 1.490 . S
C622 C624 1.395 . S
C622 C625 1.403 . S
H623 C629 0.930 . S
C624 H610 0.930 . S
C624 C622 1.395 . S
C624 C627 1.403 . S
C625 C622 1.403 . S
C625 C626 1.524 . S
C625 C629 1.400 . S
C626 H611 0.960 . S
C626 H612 0.960 . S
C626 H613 0.960 . S
C626 C625 1.524 . S
C627 C624 1.403 . S
C627 C628 1.388 1_554 S
C627 C631 1.495 1_554 S
C628 C627 1.388 1_556 S
C628 C629 1.381 1_556 S
C628 C630 1.486 . S
C629 H623 0.930 . S
C629 C625 1.400 . S
C629 C628 1.381 1_554 S
C630 C628 1.486 . S
C630 C632 1.381 . S
C630 C636 1.383 . S
C631 C627 1.495 1_556 S
C631 H637 0.959 1_456 S
C631 H638 0.961 1_455 S
C631 H639 0.960 . S
C632 C630 1.381 . S
C632 C633 1.394 . S
C632 H640 0.930 . S
C633 C632 1.394 . S
C633 C634 1.383 . S
C633 H641 0.929 . S
C634 C633 1.383 . S
C634 C635 1.377 . S
C635 H619 0.930 . S
C635 C634 1.377 . S
C635 C636 1.379 . S
C636 H620 0.931 1_455 S
C636 C630 1.383 . S
C636 C635 1.379 . S
H637 C631 0.959 1_654 S
H638 C631 0.961 1_655 S
H639 C631 0.960 . S
H640 C632 0.930 . S
H641 C633 0.929 . S
H642 C650 0.929 . S
H643 C652 0.930 . S
H644 C654 0.930 . S
H645 C657 0.929 . S
H646 C660 0.930 1_565 S
H647 C662 0.960 . S
H648 C662 0.960 . S
H649 C662 0.960 . S
C650 H642 0.929 . S
C650 C651 1.377 1_565 S
C650 C652 1.384 . S
C651 C650 1.377 1_545 S
C651 C657 1.390 . S
C652 H643 0.930 . S
C652 C650 1.384 . S
C652 C653 1.372 1_565 S
C653 C652 1.372 1_545 S
C653 C654 1.400 . S
C653 C658 1.490 . S
C654 H644 0.930 . S
C654 C653 1.400 . S
C654 C657 1.386 . S
H655 C671 0.930 . S
H656 C672 0.931 . S
C657 H645 0.929 . S
C657 C651 1.390 . S
C657 C654 1.386 . S
C658 C653 1.490 . S
C658 C660 1.395 . S
C658 C661 1.403 . S
H659 C665 0.930 . S
C660 H646 0.930 1_545 S
C660 C658 1.395 . S
C660 C663 1.403 . S
C661 C658 1.403 . S
C661 C662 1.524 . S
C661 C665 1.400 . S
C662 H647 0.960 . S
C662 H648 0.960 . S
C662 H649 0.960 . S
C662 C661 1.524 . S
C663 C660 1.403 . S
C663 C664 1.392 . S
C663 C667 1.495 1_545 S
C664 C663 1.392 . S
C664 C665 1.385 . S
C664 C666 1.478 . S
C665 H659 0.930 . S
C665 C661 1.400 . S
C665 C664 1.385 . S
C666 C664 1.478 . S
C666 C668 1.381 1_545 S
C666 C672 1.383 . S
C667 C663 1.495 1_565 S
C667 H673 0.959 . S
C667 H674 0.961 1_565 S
C667 H675 0.960 . S
C668 C666 1.381 1_565 S
C668 C669 1.394 . S
C668 H676 0.930 . S
C669 C668 1.394 . S
C669 C670 1.383 1_565 S
C669 H677 0.929 . S
C670 C669 1.383 1_545 S
C670 C671 1.377 . S
C671 H655 0.930 . S
C671 C670 1.377 . S
C671 C672 1.379 . S
C672 H656 0.931 . S
C672 C666 1.383 . S
C672 C671 1.379 . S
H673 C667 0.959 . S
H674 C667 0.961 1_545 S
H675 C667 0.960 . S
H676 C668 0.930 . S
H677 C669 0.929 . S
H678 C686 0.929 . S
H679 C688 0.930 . S
H680 C690 0.930 . S
H681 C693 0.929 . S
H682 C696 0.930 . S
H683 C698 0.960 . S
H684 C698 0.960 . S
H685 C698 0.960 . S
C686 H678 0.929 . S
C686 C687 1.377 . S
C686 C688 1.384 . S
C687 C686 1.377 . S
C687 C693 1.390 . S
C688 H679 0.930 . S
C688 C686 1.384 . S
C688 C689 1.372 . S
C689 C688 1.372 . S
C689 C690 1.400 . S
C689 C694 1.490 . S
C690 H680 0.930 . S
C690 C689 1.400 . S
C690 C693 1.386 . S
H691 C707 0.930 . S
H692 C708 0.931 . S
C693 H681 0.929 . S
C693 C687 1.390 . S
C693 C690 1.386 . S
C694 C689 1.490 . S
C694 C696 1.395 . S
C694 C697 1.403 . S
H695 C701 0.930 . S
C696 H682 0.930 . S
C696 C694 1.395 . S
C696 C699 1.403 . S
C697 C694 1.403 . S
C697 C698 1.524 . S
C697 C701 1.400 . S
C698 H683 0.960 . S
C698 H684 0.960 . S
C698 H685 0.960 . S
C698 C697 1.524 . S
C699 C696 1.403 . S
C699 C700 1.392 . S
C699 C703 1.495 . S
C700 C699 1.392 . S
C700 C701 1.385 . S
C700 C702 1.478 . S
C701 H695 0.930 . S
C701 C697 1.400 . S
C701 C700 1.385 . S
C702 C700 1.478 . S
C702 C704 1.381 . S
C702 C708 1.383 . S
C703 C699 1.495 . S
C703 H709 0.959 . S
C703 H710 0.961 . S
C703 H711 0.960 . S
C704 C702 1.381 . S
C704 C705 1.394 . S
C704 H712 0.930 . S
C705 C704 1.394 . S
C705 C706 1.383 . S
C705 H713 0.929 . S
C706 C705 1.383 . S
C706 C707 1.377 . S
C707 H691 0.930 . S
C707 C706 1.377 . S
C707 C708 1.379 . S
C708 H692 0.931 . S
C708 C702 1.383 . S
C708 C707 1.379 . S
H709 C703 0.959 . S
H710 C703 0.961 . S
H711 C703 0.960 . S
H712 C704 0.930 . S
H713 C705 0.929 . S
H714 C722 0.929 . S
H715 C724 0.930 . S
H716 C726 0.930 . S
H717 C729 0.929 . S
H718 C732 0.930 . S
H719 C734 0.960 . S
H720 C734 0.960 . S
H721 C734 0.960 . S
C722 H714 0.929 . S
C722 C723 1.377 . S
C722 C724 1.384 . S
C723 C722 1.377 . S
C723 C729 1.390 1_545 S
C724 H715 0.930 . S
C724 C722 1.384 . S
C724 C725 1.372 . S
C725 C724 1.372 . S
C725 C726 1.400 1_545 S
C725 C730 1.490 . S
C726 H716 0.930 . S
C726 C725 1.400 1_565 S
C726 C729 1.386 . S
H727 C743 0.930 . S
H728 C744 0.931 . S
C729 H717 0.929 . S
C729 C723 1.390 1_565 S
C729 C726 1.386 . S
C730 C725 1.490 . S
C730 C732 1.395 . S
C730 C733 1.403 1_545 S
H731 C737 0.930 . S
C732 H718 0.930 . S
C732 C730 1.395 . S
C732 C735 1.403 . S
C733 C730 1.403 1_565 S
C733 C734 1.524 . S
C733 C737 1.400 . S
C734 H719 0.960 . S
C734 H720 0.960 . S
C734 H721 0.960 . S
C734 C733 1.524 . S
C735 C732 1.403 . S
C735 C736 1.392 . S
C735 C739 1.495 . S
C736 C735 1.392 . S
C736 C737 1.385 1_545 S
C736 C738 1.478 . S
C737 H731 0.930 . S
C737 C733 1.400 . S
C737 C736 1.385 1_565 S
C738 C736 1.478 . S
C738 C740 1.381 . S
C738 C744 1.383 1_545 S
C739 C735 1.495 . S
C739 H745 0.959 . S
C739 H746 0.961 . S
C739 H747 0.960 . S
C740 C738 1.381 . S
C740 C741 1.394 . S
C740 H748 0.930 . S
C741 C740 1.394 . S
C741 C742 1.383 . S
C741 H749 0.929 . S
C742 C741 1.383 . S
C742 C743 1.377 1_545 S
C743 H727 0.930 . S
C743 C742 1.377 1_565 S
C743 C744 1.379 . S
C744 H728 0.931 . S
C744 C738 1.383 1_565 S
C744 C743 1.379 . S
H745 C739 0.959 . S
H746 C739 0.961 . S
H747 C739 0.960 . S
H748 C740 0.930 . S
H749 C741 0.929 . S
H750 C758 0.929 . S
H751 C760 0.930 . S
H752 C762 0.930 . S
H753 C765 0.929 . S
H754 C768 0.930 . S
H755 C770 0.960 . S
H756 C770 0.960 . S
H757 C770 0.960 . S
C758 H750 0.929 . S
C758 C759 1.377 . S
C758 C760 1.384 . S
C759 C758 1.377 . S
C759 C765 1.390 . S
C760 H751 0.930 . S
C760 C758 1.384 . S
C760 C761 1.372 . S
C761 C760 1.372 . S
C761 C762 1.400 . S
C761 C766 1.490 . S
C762 H752 0.930 . S
C762 C761 1.400 . S
C762 C765 1.386 . S
H763 C779 0.930 . S
H764 C780 0.931 . S
C765 H753 0.929 . S
C765 C759 1.390 . S
C765 C762 1.386 . S
C766 C761 1.490 . S
C766 C768 1.395 . S
C766 C769 1.403 . S
H767 C773 0.930 . S
C768 H754 0.930 . S
C768 C766 1.395 . S
C768 C771 1.403 . S
C769 C766 1.403 . S
C769 C770 1.524 . S
C769 C773 1.400 . S
C770 H755 0.960 . S
C770 H756 0.960 . S
C770 H757 0.960 . S
C770 C769 1.524 . S
C771 C768 1.403 . S
C771 C772 1.392 . S
C771 C775 1.495 . S
C772 C771 1.392 . S
C772 C773 1.385 . S
C772 C774 1.478 1_556 S
C773 H767 0.930 . S
C773 C769 1.400 . S
C773 C772 1.385 . S
C774 C772 1.478 1_554 S
C774 C776 1.381 . S
C774 C780 1.383 . S
C775 C771 1.495 . S
C775 H781 0.959 . S
C775 H782 0.961 . S
C775 H783 0.960 . S
C776 C774 1.381 . S
C776 C777 1.394 . S
C776 H784 0.930 . S
C777 C776 1.394 . S
C777 C778 1.383 . S
C777 H785 0.929 . S
C778 C777 1.383 . S
C778 C779 1.377 . S
C779 H763 0.930 . S
C779 C778 1.377 . S
C779 C780 1.379 . S
C780 H764 0.931 . S
C780 C774 1.383 . S
C780 C779 1.379 . S
H781 C775 0.959 . S
H782 C775 0.961 . S
H783 C775 0.960 . S
H784 C776 0.930 . S
H785 C777 0.929 . S
H786 C794 0.929 . S
H787 C796 0.930 . S
H788 C798 0.923 . S
H789 C801 0.932 1_655 S
H790 C804 0.930 . S
H791 C806 0.960 . S
H792 C806 0.960 . S
H793 C806 0.960 . S
C794 H786 0.929 . S
C794 C795 1.377 . S
C794 C796 1.384 . S
C795 C794 1.377 . S
C795 C801 1.388 . S
C796 H787 0.930 . S
C796 C794 1.384 . S
C796 C797 1.372 . S
C797 C796 1.372 . S
C797 C798 1.409 1_455 S
C797 C802 1.490 . S
C798 H788 0.923 . S
C798 C797 1.409 1_655 S
C798 C801 1.384 1_655 S
H799 C815 0.930 . S
H800 C816 0.931 . S
C801 H789 0.932 1_455 S
C801 C795 1.388 . S
C801 C798 1.384 1_455 S
C802 C797 1.490 . S
C802 C804 1.395 1_455 S
C802 C805 1.403 . S
H803 C809 0.930 . S
C804 H790 0.930 . S
C804 C802 1.395 1_655 S
C804 C807 1.403 . S
C805 C802 1.403 . S
C805 C806 1.524 . S
C805 C809 1.400 . S
C806 H791 0.960 . S
C806 H792 0.960 . S
C806 H793 0.960 . S
C806 C805 1.524 . S
C807 C804 1.403 . S
C807 C808 1.392 1_655 S
C807 C811 1.495 . S
C808 C807 1.392 1_455 S
C808 C809 1.385 . S
C808 C810 1.478 1_455 S
C809 H803 0.930 . S
C809 C805 1.400 . S
C809 C808 1.385 . S
C810 C808 1.478 1_655 S
C810 C812 1.381 1_655 S
C810 C816 1.383 . S
C811 C807 1.495 . S
C811 H817 0.959 . S
C811 H818 0.961 . S
C811 H819 0.960 . S
C812 C810 1.381 1_455 S
C812 C813 1.394 . S
C812 H820 0.930 . S
C813 C812 1.394 . S
C813 C814 1.383 1_455 S
C813 H821 0.929 . S
C814 C813 1.383 1_655 S
C814 C815 1.377 . S
C815 H799 0.930 . S
C815 C814 1.377 . S
C815 C816 1.379 . S
C816 H800 0.931 . S
C816 C810 1.383 . S
C816 C815 1.379 . S
H817 C811 0.959 . S
H818 C811 0.961 . S
H819 C811 0.960 . S
H820 C812 0.930 . S
H821 C813 0.929 . S
C183 C7 0.503 . S
C202 C169 0.468 . S
C219 C51 1.773 . S
C238 C151 1.764 . S
C255 C87 1.184 . S
C274 C163 1.184 . S
C291 C16 0.415 . S
C310 C172 0.278 . S
C346 C154 1.787 . S
C327 C42 1.794 . S
C382 C160 1.291 . S
C363 C96 1.272 . S
C399 C47 1.173 . S
C418 C133 1.187 . S
C435 C91 2.953 . S
C454 C142 2.910 1_655 S
C471 C2 1.840 . S
C490 C124 1.841 . S
C526 C136 1.248 . S
C507 C56 1.238 . S
C562 C145 2.831 . S
C543 C82 2.817 . S
C579 C11 1.750 . S
C598 C127 1.729 . S
C634 C143 1.769 . S
C615 C19 1.715 . S
C651 C50 1.331 . S
C670 C125 1.373 . S
C687 C99 1.455 . S
C706 C134 1.509 . S
C742 C161 1.484 . S
C723 C59 1.451 . S
C778 C170 1.097 . S
C759 C90 1.072 . S
C795 C10 1.331 . S
C814 C152 1.368 1_655 S
