# Generated by pormake.
# Topology zzz, (3,6)-cn, num edge types: 1
# Building blocks:
#     Node 0, Type 0, BuildingBlock: BELTOD_clean_linker_0, # of connection points: 3
#     Node 1, Type 0, BuildingBlock: BELTOD_clean_linker_0, # of connection points: 3
#     Node 2, Type 0, BuildingBlock: BELTOD_clean_linker_0, # of connection points: 3
#     Node 3, Type 0, BuildingBlock: BELTOD_clean_linker_0, # of connection points: 3
#     Node 4, Type 0, BuildingBlock: BELTOD_clean_linker_0, # of connection points: 3
#     Node 5, Type 0, BuildingBlock: BELTOD_clean_linker_0, # of connection points: 3
#     Node 6, Type 0, BuildingBlock: BELTOD_clean_linker_0, # of connection points: 3
#     Node 7, Type 0, BuildingBlock: BELTOD_clean_linker_0, # of connection points: 3
#     Node 8, Type 1, BuildingBlock: KUMBUR_clean_sbu_1, # of connection points: 6
#     Node 9, Type 1, BuildingBlock: KUMBUR_clean_sbu_1, # of connection points: 6
#     Node 10, Type 1, BuildingBlock: KUMBUR_clean_sbu_1, # of connection points: 6
#     Node 11, Type 1, BuildingBlock: KUMBUR_clean_sbu_1, # of connection points: 6
#     Edge 12, Type (0, 1), BuildingBlock: KIFKEQ_clean_linker_1, # of connection points: 2
#     Edge 13, Type (0, 1), BuildingBlock: KIFKEQ_clean_linker_1, # of connection points: 2
#     Edge 14, Type (0, 1), BuildingBlock: KIFKEQ_clean_linker_1, # of connection points: 2
#     Edge 15, Type (0, 1), BuildingBlock: KIFKEQ_clean_linker_1, # of connection points: 2
#     Edge 16, Type (0, 1), BuildingBlock: KIFKEQ_clean_linker_1, # of connection points: 2
#     Edge 17, Type (0, 1), BuildingBlock: KIFKEQ_clean_linker_1, # of connection points: 2
#     Edge 18, Type (0, 1), BuildingBlock: KIFKEQ_clean_linker_1, # of connection points: 2
#     Edge 19, Type (0, 1), BuildingBlock: KIFKEQ_clean_linker_1, # of connection points: 2
#     Edge 20, Type (0, 1), BuildingBlock: KIFKEQ_clean_linker_1, # of connection points: 2
#     Edge 21, Type (0, 1), BuildingBlock: KIFKEQ_clean_linker_1, # of connection points: 2
#     Edge 22, Type (0, 1), BuildingBlock: KIFKEQ_clean_linker_1, # of connection points: 2
#     Edge 23, Type (0, 1), BuildingBlock: KIFKEQ_clean_linker_1, # of connection points: 2
#     Edge 24, Type (0, 1), BuildingBlock: KIFKEQ_clean_linker_1, # of connection points: 2
#     Edge 25, Type (0, 1), BuildingBlock: KIFKEQ_clean_linker_1, # of connection points: 2
#     Edge 26, Type (0, 1), BuildingBlock: KIFKEQ_clean_linker_1, # of connection points: 2
#     Edge 27, Type (0, 1), BuildingBlock: KIFKEQ_clean_linker_1, # of connection points: 2
#     Edge 28, Type (0, 1), BuildingBlock: KIFKEQ_clean_linker_1, # of connection points: 2
#     Edge 29, Type (0, 1), BuildingBlock: KIFKEQ_clean_linker_1, # of connection points: 2
#     Edge 30, Type (0, 1), BuildingBlock: KIFKEQ_clean_linker_1, # of connection points: 2
#     Edge 31, Type (0, 1), BuildingBlock: KIFKEQ_clean_linker_1, # of connection points: 2
#     Edge 32, Type (0, 1), BuildingBlock: KIFKEQ_clean_linker_1, # of connection points: 2
#     Edge 33, Type (0, 1), BuildingBlock: KIFKEQ_clean_linker_1, # of connection points: 2
#     Edge 34, Type (0, 1), BuildingBlock: KIFKEQ_clean_linker_1, # of connection points: 2
#     Edge 35, Type (0, 1), BuildingBlock: KIFKEQ_clean_linker_1, # of connection points: 2
# Relax obj value: 0.299
# Max RMSD: 0.192
# Mean RMSD: 0.171
data_MOF--net-zzz--node1-KUMBUR_clean_sbu_1--node2-BELTOD_clean_linker_0--edge1-KIFKEQ_clean_linker_1
_symmetry_space_group_name_H-M    P1
_symmetry_Int_Tables_number       1
_symmetry_cell_setting            triclinic
loop_
_symmetry_equiv_pos_as_xyz
'x, y, z'
_cell_length_a     53.743523
_cell_length_b     53.86486
_cell_length_c     19.770361
_cell_angle_alpha  90.069937
_cell_angle_beta   89.787863
_cell_angle_gamma 90.355496
loop_
_atom_site_label
_atom_site_type_symbol
_atom_site_fract_x
_atom_site_fract_y
_atom_site_fract_z
_atom_type_partial_charge
P0 P 0.7492 0.51579 0.20432 0.0
H1 H 0.7541 0.49453 0.33968 0.0
H2 H 0.78606 0.49898 0.42564 0.0
H3 H 0.81702 0.56154 0.31631 0.0
H4 H 0.78343 0.55826 0.23445 0.0
H5 H 0.70405 0.48519 0.20155 0.0
H6 H 0.6649 0.49197 0.1453 0.0
H7 H 0.68199 0.57028 0.12965 0.0
H8 H 0.72214 0.56296 0.18451 0.0
H9 H 0.80154 0.52372 0.16399 0.0
H10 H 0.72959 0.52477 0.06735 0.0
O11 O 0.75108 0.48487 0.20364 0.0
H12 H 0.82124 0.53345 0.05613 0.0
H13 H 0.7494 0.53394 0.95965 0.0
C14 C 0.7667 0.5255 0.27895 0.0
C15 C 0.76727 0.50975 0.33539 0.0
C16 C 0.78611 0.51202 0.38408 0.0
C17 C 0.80531 0.52989 0.37721 0.0
C18 C 0.80306 0.54728 0.32407 0.0
C19 C 0.78372 0.54537 0.27642 0.0
C20 C 0.71636 0.5235 0.19727 0.0
C21 C 0.69915 0.50405 0.18859 0.0
C22 C 0.67648 0.50801 0.1558 0.0
C23 C 0.67016 0.53166 0.131 0.0
C24 C 0.68632 0.55167 0.14625 0.0
C25 C 0.70914 0.54764 0.17926 0.0
C26 C 0.76383 0.52528 0.1258 0.0
C27 C 0.7898 0.52719 0.12077 0.0
C28 C 0.80111 0.53262 0.0588 0.0
C29 C 0.78673 0.5352 1.00004 0.0
C30 C 0.76082 0.53269 1.00455 0.0
C31 C 0.74951 0.52764 0.06669 0.0
P32 P 0.01258 0.7522 0.20871 0.0
H33 H 0.04644 0.76951 0.31409 0.0
H34 H 0.04399 0.80359 0.3947 0.0
H35 H 0.96567 0.81116 0.3531 0.0
H36 H 0.96824 0.77665 0.27148 0.0
H37 H 0.04634 0.70984 0.21632 0.0
H38 H 0.04285 0.66986 0.15973 0.0
H39 H 0.96379 0.68029 0.13816 0.0
H40 H 0.96737 0.72065 0.19534 0.0
H41 H 0.99228 0.8016 0.17518 0.0
H42 H 1.00158 0.73077 0.07601 0.0
O43 O 0.04261 0.75618 0.1894 0.0
H44 H 0.97786 0.8193 0.06957 0.0
H45 H 0.98626 0.74814 0.97143 0.0
C46 C 1.00766 0.77071 0.28508 0.0
C47 C 0.02852 0.77799 0.32306 0.0
C48 C 0.02717 0.79775 0.36903 0.0
C49 C 1.0048 0.8107 0.37918 0.0
C50 C 0.98326 0.80178 0.34626 0.0
C51 C 0.98468 0.78192 0.29971 0.0
C52 C 1.00724 0.71876 0.20872 0.0
C53 C 0.028 0.70323 0.20236 0.0
C54 C 0.02605 0.68035 0.16903 0.0
C55 C 1.0032 0.67227 0.14205 0.0
C56 C 0.98173 0.68606 0.15761 0.0
C57 C 0.98372 0.70909 0.19122 0.0
C58 C 0.99683 0.7644 0.1354 0.0
C59 C 0.98998 0.78943 0.13212 0.0
C60 C 0.98167 0.79959 0.07128 0.0
C61 C 0.98056 0.78502 1.01215 0.0
C62 C 0.9867 0.7598 0.0161 0.0
C63 C 0.99517 0.74975 0.07664 0.0
P64 P 0.79224 0.03658 0.2607 0.0
H65 H 0.77628 0.05942 0.38857 0.0
H66 H 0.74008 0.05076 0.45878 0.0
H67 H 0.73174 0.97924 0.36233 0.0
H68 H 0.768 0.98834 0.29092 0.0
H69 H 0.83795 0.06424 0.2344 0.0
H70 H 0.87458 0.05417 0.16971 0.0
H71 H 0.85316 0.97668 0.17073 0.0
H72 H 0.81542 0.98735 0.23482 0.0
H73 H 0.73904 0.04101 0.24294 0.0
H74 H 0.80162 0.01907 0.11904 0.0
O75 O 0.79284 0.06746 0.26794 0.0
H76 H 0.7107 0.02551 0.15681 0.0
H77 H 0.77298 1.00356 0.03261 0.0
C78 C 0.77506 0.02464 0.33372 0.0
C79 C 0.7674 0.04141 0.38411 0.0
C80 C 0.74638 0.03644 0.42438 0.0
C81 C 0.73235 0.0145 0.41551 0.0
C82 C 0.74158 0.99662 0.36971 0.0
C83 C 0.76277 1.00157 0.32967 0.0
C84 C 0.82371 0.02661 0.24015 0.0
C85 C 0.84136 0.04489 0.22315 0.0
C86 C 0.86261 0.03902 0.18555 0.0
C87 C 0.86705 0.01455 0.16363 0.0
C88 C 0.85031 0.99582 0.18538 0.0
C89 C 0.82889 1.00179 0.22344 0.0
C90 C 0.77246 0.02992 0.18955 0.0
C91 C 0.74675 0.03288 0.19738 0.0
C92 C 0.73056 0.024 0.14829 0.0
C93 C 0.73984 0.0126 0.08966 0.0
C94 C 0.76556 0.01175 0.07844 0.0
C95 C 0.78186 0.02045 0.12826 0.0
P96 P 0.49757 0.79137 0.24766 0.0
H97 H 0.46865 0.77108 0.35978 0.0
H98 H 0.47469 0.73597 0.43406 0.0
H99 H 0.55009 0.72857 0.36096 0.0
H100 H 0.54405 0.76482 0.28713 0.0
H101 H 0.49412 0.8445 0.28003 0.0
H102 H 0.50474 0.88017 0.20987 0.0
H103 H 0.55026 0.83311 0.08333 0.0
H104 H 0.5408 0.79801 0.15649 0.0
H105 H 0.51007 0.73948 0.20935 0.0
H106 H 0.47875 0.80444 0.11525 0.0
O107 O 0.46912 0.80212 0.26446 0.0
H108 H 0.5102 0.71827 0.10144 0.0
H109 H 0.47928 0.78321 1.00588 0.0
C110 C 0.50589 0.7709 0.31746 0.0
C111 C 0.48683 0.76257 0.36077 0.0
C112 C 0.49018 0.74202 0.40287 0.0
C113 C 0.51265 0.72877 0.40253 0.0
C114 C 0.53247 0.73818 0.36274 0.0
C115 C 0.52913 0.75909 0.32072 0.0
C116 C 0.51614 0.81828 0.22302 0.0
C117 C 0.50735 0.84205 0.23915 0.0
C118 C 0.51302 0.86245 0.19763 0.0
C119 C 0.52745 0.85956 0.1384 0.0
C120 C 0.53887 0.83635 0.12767 0.0
C121 C 0.53356 0.81606 0.17013 0.0
C122 C 0.49453 0.77371 0.17067 0.0
C123 C 0.50329 0.74933 0.16577 0.0
C124 C 0.50361 0.73722 0.10347 0.0
C125 C 0.49525 0.74925 0.0448 0.0
C126 C 0.48589 0.77346 0.05012 0.0
C127 C 0.48546 0.78553 0.11263 0.0
P128 P 0.27943 0.4585 0.1022 0.0
H129 H 0.25959 0.43752 0.97683 0.0
H130 H 0.22719 0.45103 0.90034 0.0
H131 H 0.22537 0.52229 1.00061 0.0
H132 H 0.25794 0.50833 0.07835 0.0
H133 H 0.33167 0.44309 0.09404 0.0
H134 H 0.36775 0.45547 0.16028 0.0
H135 H 0.32726 0.51872 0.23638 0.0
H136 H 0.29088 0.50576 0.17087 0.0
H137 H 0.22571 0.4662 0.12848 0.0
H138 H 0.29113 0.44721 0.24292 0.0
O139 O 0.28575 0.42909 0.08204 0.0
H140 H 0.20243 0.47148 0.2326 0.0
H141 H 0.2675 0.45155 0.34798 0.0
C142 C 0.26155 0.47192 0.0334 0.0
C143 C 0.25289 0.45635 0.98142 0.0
C144 C 0.23416 0.46415 0.93734 0.0
C145 C 0.22332 0.48774 0.94421 0.0
C146 C 0.23297 0.50387 0.99416 0.0
C147 C 0.25194 0.49606 0.0381 0.0
C148 C 0.30839 0.47346 0.12714 0.0
C149 C 0.33072 0.46012 0.12305 0.0
C150 C 0.35149 0.46722 0.16142 0.0
C151 C 0.35043 0.48787 0.20508 0.0
C152 C 0.32867 0.50239 0.20461 0.0
C153 C 0.30792 0.49528 0.16601 0.0
C154 C 0.26056 0.45747 0.17782 0.0
C155 C 0.23512 0.46298 0.17585 0.0
C156 C 0.22161 0.46559 0.23582 0.0
C157 C 0.23319 0.46232 0.29892 0.0
C158 C 0.25818 0.45478 0.30035 0.0
C159 C 0.27169 0.45225 0.24026 0.0
P160 P 0.07659 0.29157 0.07517 0.0
H161 H 0.09592 0.27211 0.94744 0.0
H162 H 0.08217 0.23825 0.87629 0.0
H163 H 0.01125 0.23738 0.98038 0.0
H164 H 0.02605 0.27053 0.05472 0.0
H165 H 0.09492 0.34281 0.08438 0.0
H166 H 0.08218 0.37765 0.15415 0.0
H167 H 0.01464 0.33838 0.20775 0.0
H168 H 0.02792 0.3031 0.13856 0.0
H169 H 0.08527 0.23805 0.08056 0.0
H170 H 0.07404 0.29744 0.22421 0.0
O171 O 0.10581 0.29817 0.05222 0.0
H172 H 0.08077 0.20775 0.17108 0.0
H173 H 0.06867 0.26712 0.31439 0.0
C174 C 0.062 0.27435 1.00642 0.0
C175 C 0.07708 0.2653 0.95383 0.0
C176 C 0.06908 0.24563 0.91267 0.0
C177 C 0.04555 0.23443 0.92232 0.0
C178 C 0.02972 0.24487 0.97192 0.0
C179 C 0.03794 0.26439 0.01382 0.0
C180 C 0.0624 0.32014 0.10554 0.0
C181 C 0.07697 0.34185 0.10924 0.0
C182 C 0.06963 0.36194 0.14961 0.0
C183 C 0.0475 0.36087 0.18782 0.0
C184 C 0.03203 0.33978 0.18017 0.0
C185 C 0.03937 0.31968 0.13937 0.0
C186 C 0.07845 0.27 0.14465 0.0
C187 C 0.08183 0.24466 0.13143 0.0
C188 C 0.07933 0.2273 0.1833 0.0
C189 C 0.07363 0.23502 0.24945 0.0
C190 C 0.07284 0.26057 0.26382 0.0
C191 C 0.07547 0.27794 0.21183 0.0
P192 P 0.23998 0.07877 0.05892 0.0
H193 H 0.24359 0.07003 0.91212 0.0
H194 H 0.27719 0.05306 0.84336 0.0
H195 H 0.31285 0.02629 0.02467 0.0
H196 H 0.27845 0.04208 0.09218 0.0
H197 H 0.19334 0.10217 0.09532 0.0
H198 H 0.15998 0.09145 0.17303 0.0
H199 H 0.19371 0.01992 0.20706 0.0
H200 H 0.22782 0.03138 0.12972 0.0
H201 H 0.28705 0.10436 0.03842 0.0
H202 H 0.24177 0.08198 0.20868 0.0
O203 O 0.23061 0.10172 1.0086 0.0
H204 H 0.32225 0.11114 0.11352 0.0
H205 H 0.27645 0.0899 0.28439 0.0
C206 C 0.25843 0.05757 1.00768 0.0
C207 C 0.25814 0.05966 0.93691 0.0
C208 C 0.27779 0.05032 0.89755 0.0
C209 C 0.29846 0.03886 0.928 0.0
C210 C 0.29748 0.03487 0.99856 0.0
C211 C 0.2776 0.04388 0.03768 0.0
C212 C 0.21286 0.06736 0.10492 0.0
C213 C 0.19331 0.08387 0.11792 0.0
C214 C 0.17407 0.07766 0.16283 0.0
C215 C 0.17378 0.05468 0.19674 0.0
C216 C 0.19324 0.03787 0.18261 0.0
C217 C 0.21264 0.04421 0.13748 0.0
C218 C 0.26198 0.09204 0.1175 0.0
C219 C 0.28439 0.10185 0.09233 0.0
C220 C 0.30451 0.10588 0.13555 0.0
C221 C 0.30237 0.10048 0.20492 0.0
C222 C 0.27892 0.09354 0.23092 0.0
C223 C 0.25895 0.08909 0.18748 0.0
P224 P 0.453 0.24285 0.08361 0.0
H225 H 0.46612 0.24684 0.93926 0.0
H226 H 0.48155 0.28149 0.87149 0.0
H227 H 0.49446 0.32355 0.05485 0.0
H228 H 0.48111 0.28809 0.12146 0.0
H229 H 0.43809 0.19079 0.09194 0.0
H230 H 0.45065 0.15729 0.16634 0.0
H231 H 0.5121 0.20208 0.23773 0.0
H232 H 0.49926 0.23587 0.16219 0.0
H233 H 0.42302 0.28776 0.08358 0.0
H234 H 0.45007 0.23622 0.23288 0.0
O235 O 0.43037 0.23298 0.03245 0.0
H236 H 0.41388 0.31764 0.17335 0.0
H237 H 0.44205 0.26604 0.32133 0.0
C238 C 0.47199 0.26483 0.03565 0.0
C239 C 0.47308 0.26324 0.96487 0.0
C240 C 0.48148 0.28347 0.92595 0.0
C241 C 0.48862 0.3061 0.95673 0.0
C242 C 0.48928 0.30677 0.02816 0.0
C243 C 0.48146 0.28631 0.06691 0.0
C244 C 0.46794 0.21585 0.12027 0.0
C245 C 0.45485 0.1932 0.12148 0.0
C246 C 0.46201 0.17396 0.16464 0.0
C247 C 0.4823 0.17692 0.20874 0.0
C248 C 0.49622 0.1992 0.20502 0.0
C249 C 0.48918 0.21841 0.16095 0.0
C250 C 0.43836 0.26022 0.15086 0.0
C251 C 0.42642 0.28259 0.13565 0.0
C252 C 0.42128 0.29968 0.18699 0.0
C253 C 0.42797 0.29454 0.25428 0.0
C254 C 0.43681 0.27075 0.27012 0.0
C255 C 0.44188 0.25371 0.21884 0.0
Tb256 Tb 0.98774 0.03212 0.61467 0.0
C257 C 0.08314 0.05115 0.76434 0.0
N258 N 0.07866 0.03502 0.71284 0.0
C259 C 0.11507 0.05022 0.65486 0.0
C260 C 0.10302 0.06832 0.76163 0.0
C261 C 0.09533 0.03329 0.66066 0.0
C262 C 0.11865 0.06817 0.70492 0.0
C263 C 0.07329 0.06459 0.87834 0.0
C264 C 0.06866 0.04931 0.82185 0.0
C265 C 0.09235 0.0825 0.87492 0.0
C266 C 0.10718 0.0844 0.81659 0.0
Tb267 Tb 0.04463 0.00934 0.72638 0.0
N268 N 0.05007 0.03217 0.82251 0.0
C269 C 0.05879 0.06114 0.93661 0.0
C270 C 0.03655 0.02796 0.88004 0.0
C271 C 0.04053 0.04253 0.93771 0.0
H272 H 0.09405 0.01847 0.62424 0.0
H273 H 0.02949 0.03944 0.98285 0.0
H274 H 0.94089 1.00258 0.68626 0.0
H275 H 0.01284 0.04231 0.35023 0.0
H276 H 0.02255 0.01351 0.8812 0.0
H277 H 0.06176 0.07248 0.9812 0.0
H278 H 0.01093 0.05512 0.4696 0.0
H279 H 0.12782 0.04905 0.61248 0.0
H280 H 0.09607 0.09464 0.91749 0.0
H281 H 0.12221 0.09788 0.81519 0.0
H282 H 0.90968 0.97068 0.6539 0.0
H283 H 0.13414 0.08104 0.70079 0.0
H284 H 0.98897 1.00557 0.31149 0.0
N285 N 0.95901 1.00218 0.5905 0.0
C286 C 0.95848 0.99396 0.52562 0.0
C287 C 0.92346 0.9769 0.61753 0.0
C288 C 0.94111 0.97584 0.50478 0.0
C289 C 0.94116 0.99484 0.63581 0.0
C290 C 0.92365 0.96709 0.55198 0.0
N291 N 0.98931 0.02384 0.50087 0.0
C292 C 1.00179 0.03812 0.45455 0.0
C293 C 0.97406 0.9975 0.41103 0.0
C294 C 0.97464 1.00475 0.47956 0.0
C295 C 0.98884 0.01056 0.3646 0.0
C296 C 1.00238 0.03128 0.38629 0.0
H297 H 0.90993 0.95321 0.53795 0.0
H298 H 0.92842 0.95338 0.42049 0.0
H299 H 0.95736 0.97232 0.3383 0.0
O300 O 0.96388 0.05449 0.55735 0.0
O301 O 0.99172 0.99158 0.63361 0.0
O302 O 0.03384 0.98672 0.63917 0.0
O303 O 0.96243 0.05525 0.66573 0.0
O304 O 0.02546 0.04244 0.57784 0.0
O305 O 0.05049 0.01079 0.61582 0.0
O306 O 0.04399 0.97949 0.79381 0.0
O307 O 0.02573 0.04467 0.74845 0.0
O308 O 0.01614 0.05956 0.64408 0.0
O309 O 0.0777 0.98912 0.74149 0.0
O310 O 1.00736 0.99756 0.76204 0.0
O311 O 0.98088 0.02816 0.72354 0.0
C312 C 0.01167 0.97777 0.62562 0.0
C313 C 0.95615 0.09286 0.60963 0.0
C314 C 0.97731 0.13112 0.57565 0.0
C315 C 0.95801 0.1448 0.60612 0.0
C316 C 0.93717 0.10674 0.63979 0.0
C317 C 0.93824 0.13264 0.63844 0.0
C318 C 0.9764 0.10507 0.5793 0.0
C319 C 0.04524 0.02822 0.57136 0.0
C320 C 0.95495 0.06566 0.61032 0.0
C321 C 0.94136 0.96757 0.43737 0.0
C322 C 0.95789 0.97832 0.39061 0.0
C323 C 0.02248 0.06348 0.7073 0.0
C324 C 0.06742 0.94641 0.74953 0.0
C325 C 0.04753 0.9059 0.73209 0.0
C326 C 0.06954 0.89735 0.7014 0.0
C327 C 0.08929 0.93744 0.71949 0.0
C328 C 0.04647 0.93075 0.75333 0.0
C329 C 0.09015 0.91315 0.69459 0.0
C330 C 0.98711 0.01115 0.76805 0.0
C331 C 0.066 0.97209 0.77578 0.0
H332 H 0.9577 0.16486 0.60343 0.0
H333 H 0.92154 0.09755 0.66409 0.0
H334 H 0.92345 0.14333 0.66141 0.0
H335 H 0.99137 0.09411 0.55808 0.0
H336 H 0.07126 0.87825 0.68505 0.0
H337 H 0.10564 0.94919 0.71512 0.0
H338 H 0.02925 0.93779 0.77422 0.0
H339 H 0.10708 0.90634 0.67151 0.0
Tb340 Tb 0.52321 0.03941 0.72801 0.0
C341 C 0.52416 0.93553 0.62579 0.0
N342 N 0.53044 0.95654 0.59157 0.0
C343 C 0.56854 0.9374 0.5554 0.0
C344 C 0.5404 0.91512 0.62919 0.0
C345 C 0.55158 0.95697 0.5528 0.0
C346 C 0.56317 0.91657 0.59492 0.0
C347 C 0.4926 0.91211 0.68657 0.0
C348 C 0.50065 0.9339 0.65367 0.0
C349 C 0.50909 0.89213 0.69305 0.0
C350 C 0.53298 0.89364 0.66443 0.0
Tb351 Tb 0.50176 0.98809 0.59571 0.0
N352 N 0.48548 0.95379 0.64756 0.0
C353 C 0.4681 0.91098 0.71085 0.0
C354 C 0.46118 0.95239 0.66788 0.0
C355 C 0.45222 0.93108 0.70057 0.0
H356 H 0.55531 0.97206 0.51839 0.0
H357 H 0.43312 0.93022 0.71798 0.0
H358 H 0.47171 0.07073 0.75422 0.0
H359 H 0.61705 0.0722 0.67886 0.0
H360 H 0.4489 0.96791 0.66002 0.0
H361 H 0.46115 0.89454 0.73641 0.0
H362 H 0.58546 0.04323 0.72383 0.0
H363 H 0.58552 0.93819 0.52584 0.0
H364 H 0.50339 0.87527 0.71878 0.0
H365 H 0.54529 0.87786 0.6682 0.0
H366 H 0.45613 0.11323 0.73316 0.0
H367 H 0.57619 0.90131 0.59618 0.0
H368 H 0.60431 0.11303 0.63382 0.0
N369 N 0.50725 0.07797 0.71069 0.0
C370 C 0.52308 0.09531 0.68521 0.0
C371 C 0.47494 0.10836 0.71884 0.0
C372 C 0.5151 0.11968 0.67206 0.0
C373 C 0.48375 0.08434 0.73056 0.0
C374 C 0.49055 0.126 0.68841 0.0
N375 N 0.55476 0.06577 0.69574 0.0
C376 C 0.57949 0.0603 0.7006 0.0
C377 C 0.56511 0.1065 0.65295 0.0
C378 C 0.54765 0.08879 0.67608 0.0
C379 C 0.59027 0.1 0.65133 0.0
C380 C 0.59754 0.07696 0.67662 0.0
H381 H 0.48369 0.14457 0.67932 0.0
H382 H 0.52625 0.15577 0.63372 0.0
H383 H 0.57012 0.14421 0.6168 0.0
O384 O 0.54074 0.05632 0.81128 0.0
O385 O 0.50155 0.05103 0.63814 0.0
O386 O 0.5143 0.02394 0.55629 0.0
O387 O 0.50736 0.03476 0.8245 0.0
O388 O 0.553 0.01657 0.68188 0.0
O389 O 0.53807 1.00659 0.5761 0.0
O390 O 0.46875 0.98935 0.54013 0.0
O391 O 0.50191 0.98075 0.70539 0.0
O392 O 0.53655 1.00128 0.73975 0.0
O393 O 0.50043 0.96993 0.50107 0.0
O394 O 0.47121 0.01081 0.63806 0.0
O395 O 0.48565 0.02419 0.7425 0.0
C396 C 0.50594 0.0458 0.57419 0.0
C397 C 0.53825 0.0295 0.90563 0.0
C398 C 0.57426 1.00607 0.94374 0.0
C399 C 0.56002 0.99671 0.99794 0.0
C400 C 0.52434 0.02012 0.96017 0.0
C401 C 0.53517 1.00367 1.00582 0.0
C402 C 0.56306 0.02212 0.89727 0.0
C403 C 0.55677 0.01147 0.61737 0.0
C404 C 0.52622 0.0451 0.85442 0.0
C405 C 0.53206 0.13702 0.64518 0.0
C406 C 0.55704 0.13042 0.63543 0.0
C407 C 0.521 0.9826 0.74617 0.0
C408 C 0.4761 0.99234 0.42254 0.0
C409 C 0.45701 0.02565 0.35648 0.0
C410 C 0.46755 0.01528 0.2975 0.0
C411 C 0.48625 0.98239 0.36308 0.0
C412 C 0.46247 0.01452 0.41909 0.0
C413 C 0.48236 0.9941 0.30115 0.0
C414 C 0.46741 0.01826 0.70102 0.0
C415 C 0.47867 0.97893 0.48734 0.0
H416 H 0.56819 0.98445 0.03501 0.0
H417 H 0.50501 0.02522 0.96676 0.0
H418 H 0.52433 0.9964 0.04767 0.0
H419 H 0.57368 0.02863 0.85402 0.0
H420 H 0.4636 0.02274 0.24795 0.0
H421 H 0.49693 0.9654 0.36441 0.0
H422 H 0.45548 0.02272 0.46532 0.0
H423 H 0.4901 0.98621 0.25536 0.0
Tb424 Tb 0.54145 0.50396 0.60662 0.0
C425 C 0.46038 0.47707 0.8024 0.0
N426 N 0.45858 0.48801 0.7408 0.0
C427 C 0.42521 0.46032 0.71096 0.0
C428 C 0.44554 0.45633 0.81938 0.0
C429 C 0.44059 0.48066 0.69608 0.0
C430 C 0.42791 0.44789 0.77252 0.0
C431 C 0.47915 0.47639 0.91346 0.0
C432 C 0.47685 0.48713 0.84874 0.0
C433 C 0.46551 0.4548 0.92934 0.0
C434 C 0.44862 0.44488 0.88254 0.0
Tb435 Tb 0.48317 0.52207 0.72324 0.0
N436 N 0.48925 0.50837 0.83207 0.0
C437 C 0.49423 0.48826 0.96122 0.0
C438 C 0.50171 0.52134 0.88115 0.0
C439 C 0.50513 0.51111 0.94541 0.0
H440 H 0.43857 0.49023 0.64839 0.0
H441 H 0.51572 0.52113 0.98318 0.0
H442 H 0.5898 0.49806 0.71032 0.0
H443 H 0.53289 0.55051 0.36696 0.0
H444 H 0.50883 0.5398 0.87176 0.0
H445 H 0.49656 0.48058 1.01141 0.0
H446 H 0.52011 0.52193 0.45901 0.0
H447 H 0.41137 0.45419 0.67489 0.0
H448 H 0.46727 0.44614 0.97852 0.0
H449 H 0.43773 0.42864 0.89614 0.0
H450 H 0.63048 0.51836 0.72762 0.0
H451 H 0.41611 0.43202 0.78371 0.0
H452 H 0.57245 0.5741 0.37587 0.0
N453 N 0.58031 0.52028 0.62522 0.0
C454 C 0.58862 0.53711 0.57931 0.0
C455 C 0.61877 0.52403 0.68605 0.0
C456 C 0.61212 0.54861 0.58571 0.0
C457 C 0.59545 0.51287 0.67675 0.0
C458 C 0.62704 0.5422 0.64076 0.0
N459 N 0.55159 0.53018 0.52003 0.0
C460 C 0.53731 0.53229 0.46322 0.0
C461 C 0.58209 0.55823 0.47284 0.0
C462 C 0.57392 0.54189 0.52398 0.0
C463 C 0.56689 0.56165 0.41628 0.0
C464 C 0.54453 0.54839 0.41112 0.0
H465 H 0.64522 0.55062 0.64765 0.0
H466 H 0.63808 0.57475 0.54033 0.0
H467 H 0.61173 0.58318 0.4413 0.0
O468 O 0.535 0.478 0.53038 0.0
O469 O 0.52795 0.54238 0.59479 0.0
O470 O 0.50499 0.55463 0.68961 0.0
O471 O 0.56994 0.4784 0.58281 0.0
O472 O 0.50371 0.49595 0.56782 0.0
O473 O 0.47872 0.52606 0.61428 0.0
O474 O 0.46167 0.5434 0.79086 0.0
O475 O 0.49054 0.48335 0.68975 0.0
O476 O 0.53252 0.48028 0.69319 0.0
O477 O 0.44912 0.53622 0.68989 0.0
O478 O 0.51991 0.53625 0.75678 0.0
O479 O 0.54556 0.50551 0.71717 0.0
C480 C 0.51739 0.55948 0.63308 0.0
C481 C 0.55268 0.43905 0.55315 0.0
C482 C 0.52705 0.40145 0.54281 0.0
C483 C 0.54813 0.38717 0.55874 0.0
C484 C 0.57338 0.42445 0.5686 0.0
C485 C 0.57094 0.39867 0.5727 0.0
C486 C 0.52942 0.42745 0.54361 0.0
C487 C 0.48374 0.51003 0.56629 0.0
C488 C 0.55547 0.46607 0.54209 0.0
C489 C 0.62014 0.56559 0.53615 0.0
C490 C 0.60516 0.57036 0.47971 0.0
C491 C 0.51054 0.47048 0.70384 0.0
C492 C 0.43721 0.57397 0.73672 0.0
C493 C 0.44576 0.61843 0.74307 0.0
C494 C 0.422 0.623 0.71607 0.0
C495 C 0.41365 0.57891 0.70994 0.0
C496 C 0.45332 0.5937 0.75226 0.0
C497 C 0.40617 0.60333 0.69932 0.0
C498 C 0.54116 0.52415 0.75841 0.0
C499 C 0.44483 0.5481 0.74564 0.0
H500 H 0.54745 0.3671 0.55779 0.0
H501 H 0.59147 0.43293 0.57644 0.0
H502 H 0.58703 0.38747 0.58414 0.0
H503 H 0.51322 0.43875 0.53439 0.0
H504 H 0.41527 0.64175 0.70978 0.0
H505 H 0.40108 0.56383 0.69705 0.0
H506 H 0.47178 0.58974 0.77109 0.0
H507 H 0.3879 0.60703 0.67895 0.0
Tb508 Tb 0.02352 0.54649 0.60981 0.0
C509 C 0.05336 0.45617 0.77439 0.0
N510 N 0.039 0.4571 0.71801 0.0
C511 C 0.0617 0.42324 0.66935 0.0
C512 C 0.073 0.43906 0.77965 0.0
C513 C 0.04257 0.44069 0.66616 0.0
C514 C 0.07705 0.42249 0.72618 0.0
C515 C 0.06362 0.473 0.88456 0.0
C516 C 0.04882 0.47313 0.82574 0.0
C517 C 0.08354 0.45634 0.88955 0.0
C518 C 0.08817 0.43936 0.83731 0.0
Tb519 Tb 0.00824 0.48613 0.7184 0.0
N520 N 0.02948 0.48916 0.81894 0.0
C521 C 0.05751 0.48912 0.93745 0.0
C522 C 0.02191 0.50279 0.87362 0.0
C523 C 0.03622 0.50366 0.93252 0.0
H524 H 0.03058 0.44097 0.62256 0.0
H525 H 0.03044 0.51509 0.97475 0.0
H526 H 0.01065 0.59337 0.71301 0.0
H527 H 0.98789 0.52176 0.36188 0.0
H528 H 1.0044 0.51239 0.8737 0.0
H529 H 0.0684 0.48962 0.98344 0.0
H530 H 0.0171 0.51968 0.45613 0.0
H531 H 0.06457 0.41039 0.62799 0.0
H532 H 0.09522 0.45616 0.93409 0.0
H533 H 0.10351 0.42653 0.84204 0.0
H534 H 0.98036 0.62751 0.71869 0.0
H535 H 0.09197 0.40908 0.72825 0.0
H536 H 0.95455 0.55317 0.36207 0.0
N537 N 0.99734 0.57955 0.6189 0.0
C538 C 0.98134 0.58287 0.56664 0.0
C539 C 0.98034 0.615 0.67581 0.0
C540 C 0.96376 0.60217 0.56768 0.0
C541 C 0.9973 0.59544 0.67281 0.0
C542 C 0.96341 0.61833 0.62319 0.0
N543 N 0.99888 0.54736 0.51513 0.0
C544 C 1.00186 0.53239 0.45987 0.0
C545 C 0.9653 0.56858 0.45889 0.0
C546 C 0.98198 0.56611 0.51333 0.0
C547 C 0.96701 0.55191 0.40486 0.0
C548 C 0.98567 0.53403 0.40485 0.0
H549 H 0.95019 0.6334 0.6259 0.0
H550 H 0.93313 0.61909 0.51404 0.0
H551 H 0.93456 0.58976 0.41862 0.0
O552 O 0.0519 0.55128 0.53752 0.0
O553 O 0.98414 0.53979 0.63719 0.0
O554 O 0.97975 0.49745 0.64499 0.0
O555 O 0.04089 0.58147 0.6015 0.0
O556 O 0.03302 0.50989 0.56458 0.0
O557 O 1.00467 0.48186 0.60919 0.0
O558 O 0.9823 0.47514 0.79241 0.0
O559 O 0.04699 0.49326 0.68485 0.0
O560 O 0.05037 0.53548 0.68744 0.0
O561 O 0.99296 0.45004 0.71354 0.0
O562 O 0.99626 0.52271 0.75948 0.0
O563 O 0.02644 0.54961 0.7197 0.0
C564 C 0.97087 0.51944 0.62972 0.0
C565 C 0.08392 0.57637 0.58423 0.0
C566 C 0.12616 0.5603 0.59568 0.0
C567 C 0.13232 0.58068 0.63682 0.0
C568 C 0.09056 0.59676 0.62498 0.0
C569 C 0.11459 0.59879 0.65125 0.0
C570 C 0.10194 0.55832 0.56958 0.0
C571 C 0.02047 0.48869 0.56176 0.0
C572 C 0.05794 0.57311 0.56102 0.0
C573 C 0.94688 0.60446 0.51401 0.0
C574 C 0.94764 0.58771 0.45978 0.0
C575 C 0.06016 0.51344 0.69588 0.0
C576 C 0.95069 0.45116 0.74137 0.0
C577 C 0.90935 0.46857 0.72355 0.0
C578 C 0.9007 0.44487 0.70442 0.0
C579 C 0.94173 0.42766 0.72269 0.0
C580 C 0.93467 0.47161 0.73894 0.0
C581 C 0.91691 0.42465 0.7033 0.0
C582 C 0.00938 0.54348 0.76463 0.0
C583 C 0.9769 0.45462 0.76077 0.0
H584 H 0.15085 0.58263 0.65765 0.0
H585 H 0.07708 0.61095 0.63732 0.0
H586 H 0.11947 0.61446 0.68299 0.0
H587 H 0.09723 0.54278 0.53707 0.0
H588 H 0.88125 0.44166 0.69314 0.0
H589 H 0.95392 0.41172 0.72292 0.0
H590 H 0.94179 0.48995 0.75089 0.0
H591 H 0.91003 0.40645 0.68915 0.0
H592 H 0.12423 0.06815 0.1958 0.0
H593 H 0.17789 0.02874 0.31663 0.0
H594 H 0.09291 0.06193 0.28374 0.0
H595 H 0.14629 0.02202 0.40362 0.0
H596 H 0.07683 0.99407 0.51664 0.0
H597 H 0.10702 0.99962 0.42543 0.0
H598 H 0.08331 0.0755 0.40107 0.0
H599 H 0.05328 0.07003 0.49348 0.0
C600 C 0.12949 0.05821 0.24105 0.0
C601 C 0.15389 0.04911 0.24862 0.0
C602 C 0.1114 0.05463 0.29162 0.0
C603 C 0.11698 0.04155 0.35116 0.0
C604 C 0.14116 0.03195 0.35821 0.0
C605 C 0.15934 0.03573 0.30791 0.0
C606 C 0.07802 0.01198 0.49191 0.0
C607 C 0.06255 0.0316 0.51263 0.0
C608 C 0.09544 0.01518 0.43964 0.0
C609 C 0.09779 0.03804 0.4058 0.0
C610 C 0.08191 0.05754 0.42543 0.0
C611 C 0.06461 0.0544 0.47838 0.0
H612 H 0.48133 0.12606 0.19485 0.0
H613 H 0.49456 0.18374 0.34241 0.0
H614 H 0.48648 0.09465 0.28239 0.0
H615 H 0.5002 0.15226 0.4298 0.0
H616 H 0.48072 0.09007 0.58222 0.0
H617 H 0.47617 0.12172 0.49484 0.0
H618 H 0.517 0.07563 0.35487 0.0
H619 H 0.52197 0.04438 0.4426 0.0
C620 C 0.48546 0.13208 0.2459 0.0
C621 C 0.48755 0.15755 0.26123 0.0
C622 C 0.48855 0.114 0.29619 0.0
C623 C 0.49362 0.1208 0.36357 0.0
C624 C 0.496 0.14626 0.37878 0.0
C625 C 0.49311 0.16435 0.32834 0.0
C626 C 0.48918 0.08693 0.53337 0.0
C627 C 0.50228 0.06492 0.52047 0.0
C628 C 0.48646 0.10504 0.48291 0.0
C629 C 0.4964 0.10145 0.41759 0.0
C630 C 0.50897 0.07911 0.40425 0.0
C631 C 0.5119 0.06116 0.45489 0.0
H632 H 0.34611 0.50293 0.33719 0.0
H633 H 0.40131 0.48319 0.18756 0.0
H634 H 0.37865 0.50836 0.42095 0.0
H635 H 0.43405 0.48864 0.2719 0.0
H636 H 0.48262 0.47537 0.46305 0.0
H637 H 0.45125 0.47069 0.37433 0.0
H638 H 0.41244 0.53464 0.45242 0.0
H639 H 0.44322 0.539 0.54111 0.0
C640 C 0.36523 0.50018 0.3216 0.0
C641 C 0.37091 0.49278 0.25501 0.0
C642 C 0.384 0.50323 0.36999 0.0
C643 C 0.40915 0.499 0.35358 0.0
C644 C 0.41492 0.49174 0.28689 0.0
C645 C 0.39609 0.48869 0.23833 0.0
C646 C 0.46743 0.48848 0.4611 0.0
C647 C 0.46548 0.50746 0.50981 0.0
C648 C 0.44946 0.48587 0.40993 0.0
C649 C 0.42906 0.50217 0.40612 0.0
C650 C 0.42749 0.52139 0.4542 0.0
C651 C 0.44534 0.52397 0.50514 0.0
H652 H 0.05518 0.41159 0.17881 0.0
H653 H 0.02754 0.3551 0.31497 0.0
H654 H 0.04859 0.44306 0.26605 0.0
H655 H 0.02097 0.38642 0.40174 0.0
H656 H 0.99015 0.45028 0.52402 0.0
H657 H 0.99567 0.4208 0.4323 0.0
H658 H 0.06399 0.45779 0.3743 0.0
H659 H 0.05819 0.48779 0.46625 0.0
C660 C 0.0477 0.40581 0.22726 0.0
C661 C 0.0418 0.38065 0.23926 0.0
C662 C 0.04399 0.42392 0.27753 0.0
C663 C 0.03421 0.41745 0.34136 0.0
C664 C 0.02809 0.39233 0.35303 0.0
C665 C 0.03181 0.37426 0.30289 0.0
C666 C 1.0064 0.45224 0.49182 0.0
C667 C 0.02381 0.47144 0.50308 0.0
C668 C 0.00963 0.43515 0.43914 0.0
C669 C 0.03042 0.43659 0.3958 0.0
C670 C 0.04763 0.45612 0.4061 0.0
C671 C 0.04437 0.47332 0.45906 0.0
H672 H 0.91327 0.03709 0.15425 0.0
H673 H 0.868 0.98073 0.05794 0.0
H674 H 0.94327 0.0344 0.06186 0.0
H675 H 0.89897 0.97725 0.96738 0.0
H676 H 0.97625 0.96966 0.84523 0.0
H677 H 0.94881 0.96734 0.94543 0.0
H678 H 0.93605 0.04614 0.93199 0.0
H679 H 0.96256 0.04835 0.83174 0.0
C680 C 0.90969 0.02394 0.11395 0.0
C681 C 0.88769 0.0095 0.11363 0.0
C682 C 0.92708 0.02231 0.06111 0.0
C683 C 0.92341 1.00577 1.007 0.0
C684 C 0.90238 0.9901 1.00854 0.0
C685 C 0.88466 0.99205 0.06089 0.0
C686 C 0.96757 0.98644 0.86389 0.0
C687 C 0.97146 0.00915 0.83024 0.0
C688 C 0.95182 0.9851 0.921 0.0
C689 C 0.94031 1.00658 0.94673 0.0
C690 C 0.94471 0.02929 0.91375 0.0
C691 C 0.95982 0.03051 0.856 0.0
H692 H 0.56537 0.87144 0.04771 0.0
H693 H 0.49094 0.89307 0.10534 0.0
H694 H 0.56422 0.90068 0.95388 0.0
H695 H 0.49056 0.92336 0.0152 0.0
H696 H 0.48376 0.95546 0.80505 0.0
H697 H 0.48635 0.92643 0.89855 0.0
H698 H 0.56492 0.94197 0.91621 0.0
H699 H 0.56237 0.97073 0.82075 0.0
C700 C 0.54882 0.8825 0.0411 0.0
C701 C 0.52825 0.87954 0.08495 0.0
C702 C 0.54827 0.89962 0.98737 0.0
C703 C 0.52718 0.91445 0.97581 0.0
C704 C 0.50698 0.91203 0.02095 0.0
C705 C 0.50743 0.89483 0.07409 0.0
C706 C 0.50167 0.95261 0.82853 0.0
C707 C 0.52287 0.96541 0.805 0.0
C708 C 0.50313 0.93613 0.88315 0.0
C709 C 0.52585 0.93196 0.9165 0.0
C710 C 0.54711 0.94468 0.89242 0.0
C711 C 0.54563 0.9613 0.83777 0.0
H712 H 0.62501 0.50668 0.13282 0.0
H713 H 0.66542 0.56291 0.02088 0.0
H714 H 0.5928 0.50647 0.0464 0.0
H715 H 0.63245 0.56334 0.93617 0.0
H716 H 0.55537 0.56739 0.82266 0.0
H717 H 0.58483 0.5719 0.91725 0.0
H718 H 0.59384 0.49238 0.92239 0.0
H719 H 0.56506 0.48801 0.82799 0.0
C720 C 0.62707 0.51917 0.09028 0.0
C721 C 0.64829 0.53455 0.08407 0.0
C722 C 0.60843 0.5191 0.04075 0.0
C723 C 0.61011 0.53473 0.98396 0.0
C724 C 0.63049 0.55117 0.97945 0.0
C725 C 0.64938 0.55098 0.02852 0.0
C726 C 0.56363 0.55094 0.84433 0.0
C727 C 0.55801 0.52737 0.81755 0.0
C728 C 0.58055 0.5535 0.89823 0.0
C729 C 0.59167 0.53248 0.92759 0.0
C730 C 0.58551 0.50894 0.90152 0.0
C731 C 0.56912 0.50645 0.84702 0.0
H732 H 0.03381 0.66745 0.03358 0.0
H733 H 0.97116 0.63181 0.13062 0.0
H734 H 0.03385 0.63596 0.94629 0.0
H735 H 0.97176 0.59907 0.04393 0.0
H736 H 0.96728 0.55658 0.83712 0.0
H737 H 0.96458 0.58683 0.93004 0.0
H738 H 0.04457 0.59574 0.9241 0.0
H739 H 0.04681 0.567 0.83003 0.0
C740 C 0.0203 0.65249 0.03705 0.0
C741 C 1.0028 0.65198 0.09006 0.0
C742 C 0.02035 0.6342 0.9868 0.0
C743 C 1.00316 0.61434 0.98802 0.0
C744 C 0.98529 0.61398 0.04065 0.0
C745 C 0.98501 0.63268 0.09075 0.0
C746 C 0.9842 0.56503 0.85619 0.0
C747 C 1.00721 0.55967 0.8256 0.0
C748 C 0.98272 0.58234 0.90968 0.0
C749 C 1.0043 0.59439 0.93441 0.0
C750 C 0.02736 0.58781 0.90549 0.0
C751 C 0.02873 0.57105 0.8516 0.0
H752 H 0.08517 0.23312 0.38494 0.0
H753 H 0.0424 0.19605 0.22976 0.0
H754 H 0.06693 0.2054 0.4701 0.0
H755 H 0.02404 0.16899 0.31371 0.0
H756 H 1.00075 0.11427 0.46105 0.0
H757 H 0.03008 0.13615 0.38985 0.0
H758 H 0.02715 0.19951 0.5239 0.0
H759 H 0.99942 0.17665 0.59926 0.0
C760 C 0.0721 0.21891 0.36901 0.0
C761 C 0.06533 0.21666 0.30064 0.0
C762 C 0.06161 0.2031 0.41769 0.0
C763 C 0.04406 0.1849 0.39883 0.0
C764 C 0.03793 0.18232 0.3301 0.0
C765 C 0.04847 0.19792 0.28172 0.0
C766 C 1.00689 0.13252 0.4771 0.0
C767 C 0.99728 0.14375 0.53588 0.0
C768 C 0.02351 0.14526 0.43535 0.0
C769 C 0.03052 0.16982 0.45014 0.0
C770 C 0.02215 0.1806 0.51085 0.0
C771 C 1.00583 0.16764 0.55348 0.0
H772 H 0.34512 0.12934 0.20594 0.0
H773 H 0.31165 0.06405 0.29596 0.0
H774 H 0.38493 0.11873 0.25806 0.0
H775 H 0.35069 0.05355 0.34678 0.0
H776 H 0.41742 0.0345 0.44246 0.0
H777 H 0.38249 0.06114 0.42407 0.0
H778 H 0.41584 0.08758 0.23834 0.0
H779 H 0.45255 0.0629 0.26048 0.0
C780 C 0.3461 0.11303 0.2378 0.0
C781 C 0.32513 0.09756 0.24665 0.0
C782 C 0.36891 0.10694 0.26754 0.0
C783 C 0.37114 0.08526 0.30664 0.0
C784 C 0.34974 0.07071 0.31848 0.0
C785 C 0.32713 0.07678 0.28909 0.0
C786 C 0.41822 0.0467 0.39913 0.0
C787 C 0.43795 0.04574 0.35198 0.0
C788 C 0.39771 0.06181 0.38802 0.0
C789 C 0.3958 0.07574 0.32833 0.0
C790 C 0.41647 0.07686 0.28458 0.0
C791 C 0.43742 0.06223 0.2967 0.0
H792 H 0.44614 0.34077 0.2302 0.0
H793 H 0.41814 0.29415 0.39143 0.0
H794 H 0.46239 0.36964 0.31171 0.0
H795 H 0.4343 0.32371 0.47463 0.0
H796 H 0.50711 0.35535 0.57477 0.0
H797 H 0.47508 0.33297 0.51307 0.0
H798 H 0.45958 0.39894 0.39683 0.0
H799 H 0.49329 0.42025 0.45156 0.0
C800 C 0.44243 0.33719 0.2832 0.0
C801 C 0.43102 0.31496 0.30415 0.0
C802 C 0.45185 0.35389 0.33048 0.0
C803 C 0.45001 0.34895 0.40021 0.0
C804 C 0.43655 0.32783 0.42136 0.0
C805 C 0.42718 0.31097 0.37374 0.0
C806 C 0.49702 0.36511 0.53582 0.0
C807 C 0.50367 0.3895 0.5173 0.0
C808 C 0.47816 0.35237 0.5013 0.0
C809 C 0.4651 0.36394 0.44853 0.0
C810 C 0.46977 0.38916 0.43563 0.0
C811 C 0.48904 0.40161 0.46843 0.0
H812 H 0.25211 0.487 0.40849 0.0
H813 H 0.18421 0.45417 0.3321 0.0
H814 H 0.22894 0.50575 0.50101 0.0
H815 H 0.16084 0.47412 0.4222 0.0
H816 H 0.12153 0.5097 0.59139 0.0
H817 H 0.15015 0.4804 0.53859 0.0
H818 H 0.20179 0.54058 0.49912 0.0
H819 H 0.17352 0.5695 0.55314 0.0
C820 C 0.23234 0.48326 0.41223 0.0
C821 C 0.21995 0.46942 0.36209 0.0
C822 C 0.219 0.49429 0.46493 0.0
C823 C 0.19297 0.4919 0.46834 0.0
C824 C 0.18088 0.47635 0.42143 0.0
C825 C 0.19424 0.46516 0.36906 0.0
C826 C 0.13927 0.51648 0.5727 0.0
C827 C 0.14519 0.54191 0.57562 0.0
C828 C 0.15562 0.49974 0.5423 0.0
C829 C 0.17813 0.50816 0.51371 0.0
C830 C 0.18478 0.53332 0.52121 0.0
C831 C 0.16852 0.54999 0.55204 0.0
H832 H 0.94749 0.8213 0.97604 0.0
H833 H 1.00752 0.7766 0.89748 0.0
H834 H 0.95259 0.84984 0.88102 0.0
H835 H 0.01263 0.80494 0.8037 0.0
H836 H 0.01814 0.90723 0.84488 0.0
H837 H 0.98999 0.87615 0.88569 0.0
H838 H 1.00239 0.83227 0.7058 0.0
H839 H 0.03022 0.86472 0.66178 0.0
C840 C 0.96115 0.8171 0.93735 0.0
C841 C 0.97761 0.79717 0.9454 0.0
C842 C 0.96396 0.83332 0.88274 0.0
C843 C 0.98349 0.83 0.83603 0.0
C844 C 0.99743 0.80807 0.83874 0.0
C845 C 0.99455 0.79182 0.89306 0.0
C846 C 0.01414 0.89172 0.81173 0.0
C847 C 0.02687 0.88853 0.75002 0.0
C848 C 0.99776 0.87371 0.8355 0.0
C849 C 0.99398 0.85163 0.7992 0.0
C850 C 1.0051 0.84908 0.73504 0.0
C851 C 0.02128 0.8675 0.71035 0.0
H852 H 0.73281 0.02371 0.95637 0.0
H853 H 0.70676 0.97642 0.11788 0.0
H854 H 0.69522 0.01402 0.89149 0.0
H855 H 0.66915 0.96741 0.05565 0.0
H856 H 0.59783 0.96163 0.96526 0.0
H857 H 0.64239 0.95436 0.9695 0.0
H858 H 0.65586 0.03122 0.91701 0.0
H859 H 0.61164 0.03803 0.90958 0.0
C860 C 0.71942 0.01056 0.97671 0.0
C861 C 0.72209 1.00124 0.04238 0.0
C862 C 0.69786 1.00512 0.94001 0.0
C863 C 0.67878 0.99055 0.96916 0.0
C864 C 0.68327 0.9787 0.03124 0.0
C865 C 0.70475 0.98403 0.06747 0.0
C866 C 0.61031 0.97673 0.95261 0.0
C867 C 0.60113 1.00044 0.93759 0.0
C868 C 0.63589 0.97258 0.95507 0.0
C869 C 0.65279 0.99226 0.94464 0.0
C870 C 0.64356 0.01545 0.92444 0.0
C871 C 0.61804 0.01947 0.92082 0.0
H872 H 0.45867 0.74885 0.94924 0.0
H873 H 0.53145 0.71926 0.99264 0.0
H874 H 0.45455 0.72014 0.85486 0.0
H875 H 0.52702 0.69012 0.89865 0.0
H876 H 0.45145 0.66513 0.68793 0.0
H877 H 0.47037 0.70135 0.7426 0.0
H878 H 0.49554 0.65476 0.90585 0.0
H879 H 0.47582 0.61919 0.8542 0.0
C880 C 0.47414 0.73681 0.93726 0.0
C881 C 0.4951 0.73584 0.97939 0.0
C882 C 0.47182 0.72043 0.88293 0.0
C883 C 0.49036 0.70275 0.87015 0.0
C884 C 0.51237 0.70343 0.90807 0.0
C885 C 0.51476 0.71991 0.96214 0.0
C886 C 0.46121 0.6626 0.73522 0.0
C887 C 0.46158 0.63929 0.76733 0.0
C888 C 0.47225 0.68327 0.76594 0.0
C889 C 0.4843 0.68081 0.82841 0.0
C890 C 0.48667 0.65716 0.85718 0.0
C891 C 0.47529 0.63667 0.82732 0.0
H892 H 0.82294 0.56788 0.96025 0.0
H893 H 0.77894 0.5057 0.89075 0.0
H894 H 0.85115 0.56262 0.8642 0.0
H895 H 0.80748 0.49966 0.79687 0.0
H896 H 0.91213 0.50276 0.82496 0.0
H897 H 0.88002 0.52947 0.86526 0.0
H898 H 0.83305 0.50778 0.69797 0.0
H899 H 0.8662 0.48089 0.65549 0.0
C900 C 0.81895 0.55356 0.92325 0.0
C901 C 0.79921 0.53681 0.93351 0.0
C902 C 0.83504 0.55052 0.86829 0.0
C903 C 0.83204 0.53023 0.82405 0.0
C904 C 0.81043 0.51549 0.82974 0.0
C905 C 0.79411 0.51882 0.884 0.0
C906 C 0.89555 0.50434 0.7944 0.0
C907 C 0.89168 0.48911 0.73753 0.0
C908 C 0.87692 0.51991 0.81778 0.0
C909 C 0.85369 0.52054 0.78557 0.0
C910 C 0.8506 0.50733 0.72466 0.0
C911 C 0.8695 0.49178 0.70068 0.0
H912 H 0.05976 0.21909 0.79367 0.0
H913 H 0.01578 0.19547 0.96567 0.0
H914 H 0.05338 0.17888 0.74107 0.0
H915 H 1.00738 0.15633 0.91018 0.0
H916 H 0.01986 0.07784 0.83941 0.0
H917 H 0.02458 0.1189 0.88712 0.0
H918 H 0.0295 0.14971 0.68551 0.0
H919 H 0.02726 0.1078 0.63829 0.0
C920 C 0.04853 0.20552 0.82037 0.0
C921 C 0.0387 0.21086 0.88506 0.0
C922 C 0.04449 0.18235 0.78932 0.0
C923 C 0.0301 0.16376 0.82122 0.0
C924 C 0.0192 0.1696 0.88426 0.0
C925 C 0.02362 0.19255 0.91583 0.0
C926 C 0.02245 0.09327 0.80516 0.0
C927 C 0.02363 0.08929 0.73497 0.0
C928 C 0.02461 0.11715 0.8326 0.0
C929 C 0.0273 0.13817 0.79072 0.0
C930 C 0.02785 0.13422 0.72003 0.0
C931 C 0.0262 0.11012 0.69263 0.0
H932 H 0.33241 1.00094 0.94699 0.0
H933 H 0.31788 0.0637 0.81714 0.0
H934 H 0.37196 0.99448 0.88902 0.0
H935 H 0.35694 0.05644 0.75783 0.0
H936 H 0.42266 0.02283 0.63335 0.0
H937 H 0.38077 0.02587 0.68319 0.0
H938 H 0.41215 0.01824 0.88261 0.0
H939 H 0.45359 0.01546 0.8335 0.0
C940 C 0.33743 0.01336 0.90611 0.0
C941 C 0.32162 0.03301 0.88767 0.0
C942 C 0.36018 0.00953 0.87253 0.0
C943 C 0.36776 0.02498 0.81876 0.0
C944 C 0.35163 0.04399 0.79844 0.0
C945 C 0.32903 0.04805 0.83258 0.0
C946 C 0.42055 0.02169 0.68776 0.0
C947 C 0.44159 0.01906 0.72927 0.0
C948 C 0.39657 0.02354 0.71638 0.0
C949 C 0.39301 0.02225 0.78705 0.0
C950 C 0.41405 0.01906 0.82809 0.0
C951 C 0.43792 0.01767 0.79976 0.0
H952 H 0.46981 0.31895 0.83112 0.0
H953 H 0.51911 0.34651 0.98678 0.0
H954 H 0.47696 0.35629 0.76615 0.0
H955 H 0.52402 0.38499 0.9253 0.0
H956 H 0.54459 0.44713 0.78364 0.0
H957 H 0.54108 0.40694 0.83881 0.0
H958 H 0.46794 0.39697 0.75175 0.0
H959 H 0.47285 0.43615 0.69182 0.0
C960 C 0.48229 0.3328 0.85188 0.0
C961 C 0.49383 0.32915 0.91511 0.0
C962 C 0.48599 0.35476 0.81477 0.0
C963 C 0.50094 0.37427 0.83992 0.0
C964 C 0.51263 0.37056 0.90288 0.0
C965 C 0.50938 0.34838 0.93929 0.0
C966 C 0.52786 0.4362 0.77581 0.0
C967 C 0.50861 0.44528 0.73494 0.0
C968 C 0.52564 0.41314 0.80837 0.0
C969 C 0.50395 0.39842 0.80165 0.0
C970 C 0.48507 0.4073 0.75861 0.0
C971 C 0.48758 0.43016 0.72502 0.0
H972 H 0.21392 0.47721 0.81002 0.0
H973 H 0.18152 0.51318 0.98434 0.0
H974 H 0.17593 0.48471 0.74618 0.0
H975 H 0.14359 0.52067 0.92054 0.0
H976 H 0.08494 0.54774 0.77302 0.0
H977 H 0.12522 0.54354 0.82837 0.0
H978 H 0.13326 0.47047 0.74108 0.0
H979 H 0.09335 0.47519 0.68387 0.0
C980 C 0.19874 0.48675 0.83488 0.0
C981 C 0.20096 0.4945 0.90274 0.0
C982 C 0.17686 0.49101 0.79816 0.0
C983 C 0.15647 0.50319 0.82804 0.0
C984 C 0.15893 0.51153 0.89529 0.0
C985 C 0.18081 0.50726 0.93202 0.0
C986 C 0.09538 0.53084 0.76528 0.0
C987 C 0.08557 0.5115 0.72539 0.0
C988 C 0.11844 0.52834 0.79752 0.0
C989 C 0.13252 0.50651 0.79027 0.0
C990 C 0.12311 0.48759 0.74801 0.0
C991 C 0.1 0.4901 0.71591 0.0
H992 H 0.03827 0.84883 0.37106 0.0
H993 H 0.97129 0.82698 0.47647 0.0
H994 H 0.03917 0.8877 0.43284 0.0
H995 H 0.97262 0.8658 0.54136 0.0
H996 H 0.96982 0.94885 0.60166 0.0
H997 H 0.96732 0.90892 0.5435 0.0
H998 H 0.04764 0.90675 0.5341 0.0
H999 H 0.04977 0.94744 0.5861 0.0
C1000 C 0.02389 0.85216 0.40846 0.0
C1001 C 1.00485 0.83452 0.41901 0.0
C1002 C 0.02446 0.87457 0.44453 0.0
C1003 C 1.00617 0.88018 0.49346 0.0
C1004 C 0.98696 0.86253 0.50388 0.0
C1005 C 0.98621 0.84012 0.46682 0.0
C1006 C 0.98685 0.94018 0.58533 0.0
C1007 C 0.00985 0.95213 0.59603 0.0
C1008 C 0.98551 0.91686 0.55312 0.0
C1009 C 1.00726 0.90443 0.53206 0.0
C1010 C 0.03033 0.91585 0.54664 0.0
C1011 C 0.03158 0.9393 0.57744 0.0
H1012 H 0.71749 0.02891 0.54394 0.0
H1013 H 0.68959 0.99385 0.36272 0.0
H1014 H 0.67573 0.02783 0.59285 0.0
H1015 H 0.64815 0.99188 0.4126 0.0
H1016 H 0.57193 0.01882 0.48653 0.0
H1017 H 0.61408 0.01828 0.44042 0.0
H1018 H 0.64294 1.00223 0.63908 0.0
H1019 H 0.60063 1.00283 0.68508 0.0
C1020 C 0.70255 0.02078 0.51455 0.0
C1021 C 0.70721 0.01151 0.44899 0.0
C1022 C 0.67852 0.01995 0.54302 0.0
C1023 C 0.65825 0.00991 0.50683 0.0
C1024 C 0.66304 1.00013 0.44193 0.0
C1025 C 0.68705 1.0009 0.41357 0.0
C1026 C 0.58725 0.01509 0.52042 0.0
C1027 C 0.58277 0.01105 0.58973 0.0
C1028 C 0.61153 0.01465 0.49385 0.0
C1029 C 0.63221 0.01016 0.53569 0.0
C1030 C 0.62769 1.0061 0.60516 0.0
C1031 C 0.60334 1.00646 0.63169 0.0
H1032 H 0.47691 0.69249 0.41496 0.0
H1033 H 0.55238 0.70938 0.47413 0.0
H1034 H 0.47876 0.65338 0.47522 0.0
H1035 H 0.55423 0.66992 0.53526 0.0
H1036 H 0.55646 0.58508 0.57613 0.0
H1037 H 0.55594 0.62581 0.52222 0.0
H1038 H 0.47921 0.63465 0.58344 0.0
H1039 H 0.47955 0.59305 0.63241 0.0
C1040 C 0.49386 0.6881 0.44175 0.0
C1041 C 0.5144 0.7045 0.44 0.0
C1042 C 0.4949 0.66549 0.47663 0.0
C1043 C 0.51655 0.6583 0.51116 0.0
C1044 C 0.53725 0.67456 0.50899 0.0
C1045 C 0.53621 0.69729 0.47384 0.0
C1046 C 0.53943 0.59558 0.57714 0.0
C1047 C 0.51798 0.58561 0.60794 0.0
C1048 C 0.53921 0.61923 0.54724 0.0
C1049 C 0.51746 0.63374 0.54754 0.0
C1050 C 0.49624 0.62403 0.58077 0.0
C1051 C 0.4965 0.60031 0.61022 0.0
H1052 H 0.83739 0.56839 0.4149 0.0
H1053 H 0.82632 0.4894 0.44123 0.0
H1054 H 0.87623 0.56583 0.47679 0.0
H1055 H 0.8636 0.48743 0.50849 0.0
H1056 H 0.94597 0.48373 0.55833 0.0
H1057 H 0.90606 0.48672 0.50178 0.0
H1058 H 0.89762 0.56153 0.57778 0.0
H1059 H 0.93815 0.55857 0.63248 0.0
C1060 C 0.84292 0.55046 0.43405 0.0
C1061 C 0.82822 0.52912 0.42174 0.0
C1062 C 0.86524 0.54907 0.47096 0.0
C1063 C 0.87358 0.52635 0.49792 0.0
C1064 C 0.85845 0.50523 0.48765 0.0
C1065 C 0.83645 0.50652 0.44979 0.0
C1066 C 0.93553 0.50079 0.56331 0.0
C1067 C 0.94549 0.52101 0.59937 0.0
C1068 C 0.91239 0.50252 0.53102 0.0
C1069 C 0.89816 0.52443 0.53449 0.0
C1070 C 0.90797 0.54448 0.57223 0.0
C1071 C 0.93129 0.54279 0.60399 0.0
loop_
_geom_bond_atom_site_label_1
_geom_bond_atom_site_label_2
_geom_bond_distance
_geom_bond_site_symmetry_2
_ccdc_geom_bond_type
P0 O11 1.490 . S
P0 C14 1.812 . S
P0 C20 1.803 . S
P0 C26 1.819 . S
H1 C15 0.941 . S
H2 C16 0.939 . S
H3 C18 0.940 . S
H4 C19 0.940 . S
H5 C21 0.939 . S
H6 C22 0.942 . S
H7 C24 0.940 . S
H8 C25 0.939 . S
H9 C27 0.941 . S
H10 C31 0.939 . S
O11 P0 1.490 . S
H12 C28 0.939 . S
H13 C30 0.940 . S
C14 P0 1.812 . S
C14 C15 1.389 . S
C14 C19 1.391 . S
C15 H1 0.941 . S
C15 C14 1.389 . S
C15 C16 1.397 . S
C16 H2 0.939 . S
C16 C15 1.397 . S
C16 C17 1.378 . S
C17 C16 1.378 . S
C17 C18 1.378 . S
C18 H3 0.940 . S
C18 C17 1.378 . S
C18 C19 1.396 . S
C19 H4 0.940 . S
C19 C14 1.391 . S
C19 C18 1.396 . S
C20 P0 1.803 . S
C20 C21 1.378 . S
C20 C25 1.400 . S
C21 H5 0.939 . S
C21 C20 1.378 . S
C21 C22 1.361 . S
C22 H6 0.942 . S
C22 C21 1.361 . S
C22 C23 1.369 . S
C23 C22 1.369 . S
C23 C24 1.404 . S
C24 H7 0.940 . S
C24 C23 1.404 . S
C24 C25 1.389 . S
C25 H8 0.939 . S
C25 C20 1.400 . S
C25 C24 1.389 . S
C26 P0 1.819 . S
C26 C27 1.391 . S
C26 C31 1.391 . S
C27 H9 0.941 . S
C27 C26 1.391 . S
C27 C28 1.396 . S
C28 H12 0.939 . S
C28 C27 1.396 . S
C28 C29 1.397 . S
C29 C28 1.397 . S
C29 C30 1.385 . S
C30 H13 0.940 . S
C30 C29 1.385 . S
C30 C31 1.388 . S
C31 H10 0.939 . S
C31 C26 1.391 . S
C31 C30 1.388 . S
P32 O43 1.490 . S
P32 C46 1.812 1_455 S
P32 C52 1.803 1_455 S
P32 C58 1.819 1_455 S
H33 C47 0.941 . S
H34 C48 0.939 1_455 S
H35 C50 0.940 . S
H36 C51 0.940 . S
H37 C53 0.939 . S
H38 C54 0.942 1_455 S
H39 C56 0.940 . S
H40 C57 0.939 . S
H41 C59 0.941 . S
H42 C63 0.939 . S
O43 P32 1.490 . S
H44 C60 0.947 . S
H45 C62 0.940 . S
C46 P32 1.812 1_655 S
C46 C47 1.389 1_655 S
C46 C51 1.391 . S
C47 H33 0.941 . S
C47 C46 1.389 1_455 S
C47 C48 1.397 1_455 S
C48 H34 0.939 1_655 S
C48 C47 1.397 1_655 S
C48 C49 1.378 . S
C49 C48 1.378 . S
C49 C50 1.378 . S
C50 H35 0.940 . S
C50 C49 1.378 . S
C50 C51 1.396 . S
C51 H36 0.940 . S
C51 C46 1.391 . S
C51 C50 1.396 . S
C52 P32 1.803 1_655 S
C52 C53 1.378 1_655 S
C52 C57 1.400 . S
C53 H37 0.939 . S
C53 C52 1.378 1_455 S
C53 C54 1.361 1_455 S
C54 H38 0.942 1_655 S
C54 C53 1.361 1_655 S
C54 C55 1.369 . S
C55 C54 1.369 . S
C55 C56 1.404 . S
C56 H39 0.940 . S
C56 C55 1.404 . S
C56 C57 1.389 . S
C57 H40 0.939 . S
C57 C52 1.400 . S
C57 C56 1.389 . S
C58 P32 1.819 1_655 S
C58 C59 1.391 1_655 S
C58 C63 1.391 . S
C59 H41 0.941 . S
C59 C58 1.391 1_455 S
C59 C60 1.396 1_455 S
C60 H44 0.947 . S
C60 C59 1.396 1_655 S
C60 C61 1.397 . S
C61 C60 1.397 . S
C61 C62 1.385 . S
C62 H45 0.940 . S
C62 C61 1.385 . S
C62 C63 1.388 . S
C63 H42 0.939 . S
C63 C58 1.391 . S
C63 C62 1.388 . S
P64 O75 1.490 . S
P64 C78 1.812 1_545 S
P64 C84 1.803 1_545 S
P64 C90 1.819 1_545 S
H65 C79 0.941 . S
H66 C80 0.939 1_545 S
H67 C82 0.940 . S
H68 C83 0.940 . S
H69 C85 0.939 . S
H70 C86 0.933 1_545 S
H71 C88 0.940 . S
H72 C89 0.939 . S
H73 C91 0.941 . S
H74 C95 0.939 . S
O75 P64 1.490 . S
H76 C92 0.939 1_545 S
H77 C94 0.940 . S
C78 P64 1.812 1_565 S
C78 C79 1.389 1_565 S
C78 C83 1.391 . S
C79 H65 0.941 . S
C79 C78 1.389 1_545 S
C79 C80 1.397 1_545 S
C80 H66 0.939 1_565 S
C80 C79 1.397 1_565 S
C80 C81 1.378 . S
C81 C80 1.378 . S
C81 C82 1.378 . S
C82 H67 0.940 . S
C82 C81 1.378 . S
C82 C83 1.396 . S
C83 H68 0.940 . S
C83 C78 1.391 . S
C83 C82 1.396 . S
C84 P64 1.803 1_565 S
C84 C85 1.378 1_565 S
C84 C89 1.400 . S
C85 H69 0.939 . S
C85 C84 1.378 1_545 S
C85 C86 1.355 1_545 S
C86 H70 0.933 1_565 S
C86 C85 1.355 1_565 S
C86 C87 1.384 . S
C87 C86 1.384 . S
C87 C88 1.404 . S
C88 H71 0.940 . S
C88 C87 1.404 . S
C88 C89 1.389 . S
C89 H72 0.939 . S
C89 C84 1.400 . S
C89 C88 1.389 . S
C90 P64 1.819 1_565 S
C90 C91 1.391 1_565 S
C90 C95 1.391 . S
C91 H73 0.941 . S
C91 C90 1.391 1_545 S
C91 C92 1.396 1_545 S
C92 H76 0.939 1_565 S
C92 C91 1.396 1_565 S
C92 C93 1.397 . S
C93 C92 1.397 . S
C93 C94 1.385 . S
C94 H77 0.940 . S
C94 C93 1.385 . S
C94 C95 1.388 . S
C95 H74 0.939 . S
C95 C90 1.391 . S
C95 C94 1.388 . S
P96 O107 1.490 . S
P96 C110 1.812 . S
P96 C116 1.803 . S
P96 C122 1.819 . S
H97 C111 0.941 . S
H98 C112 0.939 . S
H99 C114 0.940 . S
H100 C115 0.940 . S
H101 C117 0.939 . S
H102 C118 0.942 . S
H103 C120 0.940 . S
H104 C121 0.939 . S
H105 C123 0.941 . S
H106 C127 0.939 . S
O107 P96 1.490 . S
H108 C124 0.939 . S
H109 C126 0.940 . S
C110 P96 1.812 . S
C110 C111 1.389 . S
C110 C115 1.391 . S
C111 H97 0.941 . S
C111 C110 1.389 . S
C111 C112 1.397 . S
C112 H98 0.939 . S
C112 C111 1.397 . S
C112 C113 1.378 . S
C113 C112 1.378 . S
C113 C114 1.378 . S
C114 H99 0.940 . S
C114 C113 1.378 . S
C114 C115 1.396 . S
C115 H100 0.940 . S
C115 C110 1.391 . S
C115 C114 1.396 . S
C116 P96 1.803 . S
C116 C117 1.378 . S
C116 C121 1.400 . S
C117 H101 0.939 . S
C117 C116 1.378 . S
C117 C118 1.361 . S
C118 H102 0.942 . S
C118 C117 1.361 . S
C118 C119 1.369 . S
C119 C118 1.369 . S
C119 C120 1.404 . S
C120 H103 0.940 . S
C120 C119 1.404 . S
C120 C121 1.389 . S
C121 H104 0.939 . S
C121 C116 1.400 . S
C121 C120 1.389 . S
C122 P96 1.819 . S
C122 C123 1.391 . S
C122 C127 1.391 . S
C123 H105 0.941 . S
C123 C122 1.391 . S
C123 C124 1.396 . S
C124 H108 0.939 . S
C124 C123 1.396 . S
C124 C125 1.397 . S
C125 C124 1.397 . S
C125 C126 1.385 . S
C126 H109 0.940 . S
C126 C125 1.385 . S
C126 C127 1.388 . S
C127 H106 0.939 . S
C127 C122 1.391 . S
C127 C126 1.388 . S
P128 O139 1.490 . S
P128 C142 1.812 1_554 S
P128 C148 1.803 . S
P128 C154 1.819 . S
H129 C143 0.941 . S
H130 C144 0.939 . S
H131 C146 0.940 . S
H132 C147 0.940 . S
H133 C149 0.939 . S
H134 C150 0.942 . S
H135 C152 0.940 . S
H136 C153 0.939 . S
H137 C155 0.941 . S
H138 C159 0.939 . S
O139 P128 1.490 . S
H140 C156 0.939 . S
H141 C158 0.940 . S
C142 P128 1.812 1_556 S
C142 C143 1.389 . S
C142 C147 1.391 . S
C143 H129 0.941 . S
C143 C142 1.389 . S
C143 C144 1.397 . S
C144 H130 0.939 . S
C144 C143 1.397 . S
C144 C145 1.378 . S
C145 C144 1.378 . S
C145 C146 1.378 . S
C146 H131 0.940 . S
C146 C145 1.378 . S
C146 C147 1.396 . S
C147 H132 0.940 . S
C147 C142 1.391 . S
C147 C146 1.396 . S
C148 P128 1.803 . S
C148 C149 1.378 . S
C148 C153 1.400 . S
C149 H133 0.939 . S
C149 C148 1.378 . S
C149 C150 1.361 . S
C150 H134 0.942 . S
C150 C149 1.361 . S
C150 C151 1.369 . S
C151 C150 1.369 . S
C151 C152 1.404 . S
C152 H135 0.940 . S
C152 C151 1.404 . S
C152 C153 1.389 . S
C153 H136 0.939 . S
C153 C148 1.400 . S
C153 C152 1.389 . S
C154 P128 1.819 . S
C154 C155 1.391 . S
C154 C159 1.391 . S
C155 H137 0.941 . S
C155 C154 1.391 . S
C155 C156 1.396 . S
C156 H140 0.939 . S
C156 C155 1.396 . S
C156 C157 1.397 . S
C157 C156 1.397 . S
C157 C158 1.385 . S
C158 H141 0.940 . S
C158 C157 1.385 . S
C158 C159 1.388 . S
C159 H138 0.939 . S
C159 C154 1.391 . S
C159 C158 1.388 . S
P160 O171 1.490 . S
P160 C174 1.812 1_554 S
P160 C180 1.803 . S
P160 C186 1.819 . S
H161 C175 0.941 . S
H162 C176 0.939 . S
H163 C178 0.940 . S
H164 C179 0.946 . S
H165 C181 0.939 . S
H166 C182 0.942 . S
H167 C184 0.940 . S
H168 C185 0.939 . S
H169 C187 0.941 . S
H170 C191 0.939 . S
O171 P160 1.490 . S
H172 C188 0.939 . S
H173 C190 0.940 . S
C174 P160 1.812 1_556 S
C174 C175 1.389 . S
C174 C179 1.391 . S
C175 H161 0.941 . S
C175 C174 1.389 . S
C175 C176 1.397 . S
C176 H162 0.939 . S
C176 C175 1.397 . S
C176 C177 1.378 . S
C177 C176 1.378 . S
C177 C178 1.378 . S
C178 H163 0.940 . S
C178 C177 1.378 . S
C178 C179 1.396 . S
C179 H164 0.946 . S
C179 C174 1.391 . S
C179 C178 1.396 . S
C180 P160 1.803 . S
C180 C181 1.378 . S
C180 C185 1.400 . S
C181 H165 0.939 . S
C181 C180 1.378 . S
C181 C182 1.361 . S
C182 H166 0.942 . S
C182 C181 1.361 . S
C182 C183 1.369 . S
C183 C182 1.369 . S
C183 C184 1.404 . S
C184 H167 0.940 . S
C184 C183 1.404 . S
C184 C185 1.389 . S
C185 H168 0.939 . S
C185 C180 1.400 . S
C185 C184 1.389 . S
C186 P160 1.819 . S
C186 C187 1.391 . S
C186 C191 1.391 . S
C187 H169 0.941 . S
C187 C186 1.391 . S
C187 C188 1.396 . S
C188 H172 0.939 . S
C188 C187 1.396 . S
C188 C189 1.397 . S
C189 C188 1.397 . S
C189 C190 1.385 . S
C190 H173 0.940 . S
C190 C189 1.385 . S
C190 C191 1.388 . S
C191 H170 0.939 . S
C191 C186 1.391 . S
C191 C190 1.388 . S
P192 O203 1.490 . S
P192 C206 1.812 1_554 S
P192 C212 1.803 . S
P192 C218 1.819 . S
H193 C207 0.941 . S
H194 C208 0.939 . S
H195 C210 0.940 . S
H196 C211 0.950 . S
H197 C213 0.939 . S
H198 C214 0.942 . S
H199 C216 0.940 . S
H200 C217 0.939 . S
H201 C219 0.941 . S
H202 C223 0.939 . S
O203 P192 1.490 . S
H204 C220 0.939 . S
H205 C222 0.940 . S
C206 P192 1.812 1_556 S
C206 C207 1.389 . S
C206 C211 1.391 . S
C207 H193 0.941 . S
C207 C206 1.389 . S
C207 C208 1.397 . S
C208 H194 0.939 . S
C208 C207 1.397 . S
C208 C209 1.378 . S
C209 C208 1.378 . S
C209 C210 1.378 . S
C210 H195 0.940 . S
C210 C209 1.378 . S
C210 C211 1.396 . S
C211 H196 0.950 . S
C211 C206 1.391 . S
C211 C210 1.396 . S
C212 P192 1.803 . S
C212 C213 1.378 . S
C212 C217 1.400 . S
C213 H197 0.939 . S
C213 C212 1.378 . S
C213 C214 1.361 . S
C214 H198 0.942 . S
C214 C213 1.361 . S
C214 C215 1.369 . S
C215 C214 1.369 . S
C215 C216 1.404 . S
C216 H199 0.940 . S
C216 C215 1.404 . S
C216 C217 1.389 . S
C217 H200 0.939 . S
C217 C212 1.400 . S
C217 C216 1.389 . S
C218 P192 1.819 . S
C218 C219 1.391 . S
C218 C223 1.391 . S
C219 H201 0.941 . S
C219 C218 1.391 . S
C219 C220 1.396 . S
C220 H204 0.939 . S
C220 C219 1.396 . S
C220 C221 1.397 . S
C221 C220 1.397 . S
C221 C222 1.385 . S
C222 H205 0.940 . S
C222 C221 1.385 . S
C222 C223 1.388 . S
C223 H202 0.939 . S
C223 C218 1.391 . S
C223 C222 1.388 . S
P224 O235 1.490 . S
P224 C238 1.812 1_554 S
P224 C244 1.803 . S
P224 C250 1.819 . S
H225 C239 0.941 . S
H226 C240 0.939 . S
H227 C242 0.940 . S
H228 C243 0.940 . S
H229 C245 0.939 . S
H230 C246 0.942 . S
H231 C248 0.940 . S
H232 C249 0.939 . S
H233 C251 0.941 . S
H234 C255 0.939 . S
O235 P224 1.490 . S
H236 C252 0.939 . S
H237 C254 0.940 . S
C238 P224 1.812 1_556 S
C238 C239 1.389 . S
C238 C243 1.391 . S
C239 H225 0.941 . S
C239 C238 1.389 . S
C239 C240 1.397 . S
C240 H226 0.939 . S
C240 C239 1.397 . S
C240 C241 1.378 . S
C241 C240 1.378 . S
C241 C242 1.378 . S
C242 H227 0.940 . S
C242 C241 1.378 . S
C242 C243 1.396 . S
C243 H228 0.940 . S
C243 C238 1.391 . S
C243 C242 1.396 . S
C244 P224 1.803 . S
C244 C245 1.378 . S
C244 C249 1.400 . S
C245 H229 0.939 . S
C245 C244 1.378 . S
C245 C246 1.361 . S
C246 H230 0.942 . S
C246 C245 1.361 . S
C246 C247 1.369 . S
C247 C246 1.369 . S
C247 C248 1.404 . S
C248 H231 0.940 . S
C248 C247 1.404 . S
C248 C249 1.389 . S
C249 H232 0.939 . S
C249 C244 1.400 . S
C249 C248 1.389 . S
C250 P224 1.819 . S
C250 C251 1.391 . S
C250 C255 1.391 . S
C251 H233 0.941 . S
C251 C250 1.391 . S
C251 C252 1.396 . S
C252 H236 0.939 . S
C252 C251 1.396 . S
C252 C253 1.397 . S
C253 C252 1.397 . S
C253 C254 1.385 . S
C254 H237 0.940 . S
C254 C253 1.385 . S
C254 C255 1.388 . S
C255 H234 0.939 . S
C255 C250 1.391 . S
C255 C254 1.388 . S
Tb256 N285 2.617 . S
Tb256 N291 2.572 . S
Tb256 O300 2.465 . S
Tb256 O301 2.387 1_545 S
Tb256 O303 2.428 . S
Tb256 O304 2.308 1_655 S
Tb256 O308 2.349 1_655 S
Tb256 O311 2.393 . S
Tb256 C320 2.802 . S
C257 N258 1.379 . S
C257 C260 1.416 . S
C257 C264 1.424 . S
N258 C257 1.379 . S
N258 C261 1.335 1_545 S
N258 Tb267 2.617 1_545 S
C259 C261 1.392 1_545 S
C259 C262 1.339 . S
C259 H279 0.930 . S
C260 C257 1.416 . S
C260 C262 1.416 . S
C260 C266 1.448 . S
C261 N258 1.335 1_565 S
C261 C259 1.392 1_565 S
C261 H272 0.928 . S
C262 C259 1.339 . S
C262 C260 1.416 . S
C262 H283 0.930 . S
C263 C264 1.413 . S
C263 C265 1.427 . S
C263 C269 1.416 . S
C264 C257 1.424 . S
C264 C263 1.413 . S
C264 N268 1.361 . S
C265 C263 1.427 . S
C265 C266 1.328 . S
C265 H280 0.929 . S
C266 C260 1.448 . S
C266 C265 1.328 . S
C266 H281 0.930 . S
Tb267 N258 2.617 1_565 S
Tb267 N268 2.572 1_565 S
Tb267 O302 2.349 . S
Tb267 O305 2.393 . S
Tb267 O306 2.465 . S
Tb267 O307 2.387 1_565 S
Tb267 O309 2.428 . S
Tb267 O310 2.308 1_465 S
Tb267 C331 2.802 . S
N268 C264 1.361 . S
N268 Tb267 2.572 1_545 S
N268 C270 1.340 . S
C269 C263 1.416 . S
C269 C271 1.332 . S
C269 H277 0.940 . S
C270 N268 1.340 . S
C270 C271 1.407 . S
C270 H276 0.904 1_455 S
C271 C269 1.332 . S
C271 C270 1.407 . S
C271 H273 0.929 . S
H272 C261 0.928 . S
H273 C271 0.929 . S
H274 C289 0.930 . S
H275 C296 0.929 1_455 S
H276 C270 0.904 1_655 S
H277 C269 0.940 . S
H278 C292 0.930 1_455 S
H279 C259 0.930 . S
H280 C265 0.929 . S
H281 C266 0.930 . S
H282 C287 0.930 . S
H283 C262 0.930 . S
H284 C295 0.931 . S
N285 Tb256 2.617 . S
N285 C286 1.379 . S
N285 C289 1.334 . S
C286 N285 1.379 . S
C286 C288 1.416 1_545 S
C286 C294 1.424 . S
C287 H282 0.930 . S
C287 C289 1.390 . S
C287 C290 1.339 1_545 S
C288 C286 1.416 1_565 S
C288 C290 1.416 . S
C288 C321 1.448 . S
C289 H274 0.930 . S
C289 N285 1.334 . S
C289 C287 1.390 . S
C290 C287 1.339 1_565 S
C290 C288 1.416 . S
C290 H297 0.930 . S
N291 Tb256 2.572 . S
N291 C292 1.340 . S
N291 C294 1.361 . S
C292 H278 0.930 1_655 S
C292 N291 1.340 . S
C292 C296 1.407 1_545 S
C293 C294 1.413 1_565 S
C293 C295 1.416 . S
C293 C322 1.427 . S
C294 C286 1.424 . S
C294 N291 1.361 . S
C294 C293 1.413 1_545 S
C295 H284 0.931 . S
C295 C293 1.416 . S
C295 C296 1.332 . S
C296 H275 0.929 1_655 S
C296 C292 1.407 1_565 S
C296 C295 1.332 . S
H297 C290 0.930 . S
H298 C321 0.930 . S
H299 C322 0.929 . S
O300 Tb256 2.465 . S
O300 C320 1.264 . S
O301 Tb256 2.387 1_565 S
O301 C312 1.264 . S
O302 Tb267 2.349 . S
O302 C312 1.243 1_455 S
O303 Tb256 2.428 . S
O303 C320 1.256 . S
O304 Tb256 2.308 1_455 S
O304 C319 1.266 . S
O305 Tb267 2.393 . S
O305 C319 1.248 1_565 S
O306 Tb267 2.465 . S
O306 C331 1.264 . S
O307 Tb267 2.387 1_545 S
O307 C323 1.264 . S
O308 Tb256 2.349 1_455 S
O308 C323 1.243 . S
O309 Tb267 2.428 . S
O309 C331 1.256 . S
O310 Tb267 2.308 1_645 S
O310 C330 1.266 . S
O311 Tb256 2.393 . S
O311 C330 1.248 . S
C312 O301 1.264 . S
C312 O302 1.243 1_655 S
C313 C316 1.399 . S
C313 C318 1.383 . S
C313 C320 1.496 . S
C314 C315 1.399 . S
C314 C318 1.389 . S
C315 C314 1.399 . S
C315 C317 1.380 . S
C315 H332 0.929 . S
C316 C313 1.399 . S
C316 C317 1.392 . S
C316 H333 0.929 . S
C317 C315 1.380 . S
C317 C316 1.392 . S
C317 H334 0.929 . S
C318 C313 1.383 . S
C318 C314 1.389 . S
C318 H335 0.931 1_655 S
C319 O304 1.266 . S
C319 O305 1.248 1_545 S
C320 Tb256 2.802 . S
C320 O300 1.264 . S
C320 O303 1.256 . S
C320 C313 1.496 . S
C321 C288 1.448 . S
C321 H298 0.930 . S
C321 C322 1.328 . S
C322 C293 1.427 . S
C322 H299 0.929 . S
C322 C321 1.328 . S
C323 O307 1.264 . S
C323 O308 1.243 . S
C324 C327 1.399 . S
C324 C328 1.383 . S
C324 C331 1.496 . S
C325 C326 1.399 . S
C325 C328 1.389 . S
C326 C325 1.399 . S
C326 C329 1.380 . S
C326 H336 0.929 . S
C327 C324 1.399 . S
C327 C329 1.392 . S
C327 H337 0.929 . S
C328 C324 1.383 . S
C328 C325 1.389 . S
C328 H338 0.931 . S
C329 C326 1.380 . S
C329 C327 1.392 . S
C329 H339 0.929 . S
C330 O310 1.266 . S
C330 O311 1.248 . S
C331 Tb267 2.802 . S
C331 O306 1.264 . S
C331 O309 1.256 . S
C331 C324 1.496 . S
H332 C315 0.929 . S
H333 C316 0.929 . S
H334 C317 0.929 . S
H335 C318 0.931 1_455 S
H336 C326 0.929 . S
H337 C327 0.929 . S
H338 C328 0.931 . S
H339 C329 0.929 . S
Tb340 N369 2.617 . S
Tb340 N375 2.572 . S
Tb340 O384 2.465 . S
Tb340 O385 2.387 . S
Tb340 O387 2.428 . S
Tb340 O388 2.308 . S
Tb340 O392 2.349 1_545 S
Tb340 O395 2.393 . S
Tb340 C404 2.802 . S
C341 N342 1.379 . S
C341 C344 1.416 . S
C341 C348 1.424 . S
N342 C341 1.379 . S
N342 C345 1.334 . S
N342 Tb351 2.617 . S
C343 C345 1.390 . S
C343 C346 1.339 . S
C343 H363 0.930 . S
C344 C341 1.416 . S
C344 C346 1.416 . S
C344 C350 1.448 . S
C345 N342 1.334 . S
C345 C343 1.390 . S
C345 H356 0.930 . S
C346 C343 1.339 . S
C346 C344 1.416 . S
C346 H367 0.930 . S
C347 C348 1.413 . S
C347 C349 1.427 . S
C347 C353 1.416 . S
C348 C341 1.424 . S
C348 C347 1.413 . S
C348 N352 1.361 . S
C349 C347 1.427 . S
C349 C350 1.328 . S
C349 H364 0.929 . S
C350 C344 1.448 . S
C350 C349 1.328 . S
C350 H365 0.930 . S
Tb351 N342 2.617 . S
Tb351 N352 2.572 . S
Tb351 O386 2.349 1_565 S
Tb351 O389 2.393 . S
Tb351 O390 2.465 . S
Tb351 O391 2.387 . S
Tb351 O393 2.428 . S
Tb351 O394 2.308 1_565 S
Tb351 C415 2.802 . S
N352 C348 1.361 . S
N352 Tb351 2.572 . S
N352 C354 1.340 . S
C353 C347 1.416 . S
C353 C355 1.332 . S
C353 H361 0.931 . S
C354 N352 1.340 . S
C354 C355 1.407 . S
C354 H360 0.930 . S
C355 C353 1.332 . S
C355 C354 1.407 . S
C355 H357 0.929 . S
H356 C345 0.930 . S
H357 C355 0.929 . S
H358 C373 0.930 . S
H359 C380 0.929 . S
H360 C354 0.930 . S
H361 C353 0.931 . S
H362 C376 0.930 . S
H363 C343 0.930 . S
H364 C349 0.929 . S
H365 C350 0.930 . S
H366 C371 0.930 . S
H367 C346 0.930 . S
H368 C379 0.931 . S
N369 Tb340 2.617 . S
N369 C370 1.379 . S
N369 C373 1.334 . S
C370 N369 1.379 . S
C370 C372 1.416 . S
C370 C378 1.424 . S
C371 H366 0.930 . S
C371 C373 1.390 . S
C371 C374 1.339 . S
C372 C370 1.416 . S
C372 C374 1.416 . S
C372 C405 1.448 . S
C373 H358 0.930 . S
C373 N369 1.334 . S
C373 C371 1.390 . S
C374 C371 1.339 . S
C374 C372 1.416 . S
C374 H381 0.930 . S
N375 Tb340 2.572 . S
N375 C376 1.340 . S
N375 C378 1.361 . S
C376 H362 0.930 . S
C376 N375 1.340 . S
C376 C380 1.407 . S
C377 C378 1.413 . S
C377 C379 1.416 . S
C377 C406 1.427 . S
C378 C370 1.424 . S
C378 N375 1.361 . S
C378 C377 1.413 . S
C379 H368 0.931 . S
C379 C377 1.416 . S
C379 C380 1.332 . S
C380 H359 0.929 . S
C380 C376 1.407 . S
C380 C379 1.332 . S
H381 C374 0.930 . S
H382 C405 0.930 . S
H383 C406 0.929 . S
O384 Tb340 2.465 . S
O384 C404 1.264 . S
O385 Tb340 2.387 . S
O385 C396 1.264 . S
O386 Tb351 2.349 1_545 S
O386 C396 1.243 . S
O387 Tb340 2.428 . S
O387 C404 1.256 . S
O388 Tb340 2.308 . S
O388 C403 1.247 1_545 S
O389 Tb351 2.393 . S
O389 C403 1.261 . S
O390 Tb351 2.465 . S
O390 C415 1.264 . S
O391 Tb351 2.387 . S
O391 C407 1.264 . S
O392 Tb340 2.349 1_565 S
O392 C407 1.243 . S
O393 Tb351 2.428 . S
O393 C415 1.256 . S
O394 Tb351 2.308 1_545 S
O394 C414 1.266 . S
O395 Tb340 2.393 . S
O395 C414 1.248 . S
C396 O385 1.264 . S
C396 O386 1.243 . S
C397 C400 1.399 . S
C397 C402 1.383 . S
C397 C404 1.496 . S
C398 C399 1.399 . S
C398 C402 1.389 . S
C399 C398 1.399 . S
C399 C401 1.380 . S
C399 H416 0.929 1_556 S
C400 C397 1.399 . S
C400 C401 1.392 . S
C400 H417 0.929 . S
C401 C399 1.380 . S
C401 C400 1.392 . S
C401 H418 0.929 1_556 S
C402 C397 1.383 . S
C402 C398 1.389 . S
C402 H419 0.931 . S
C403 O388 1.247 1_565 S
C403 O389 1.261 . S
C404 Tb340 2.802 . S
C404 O384 1.264 . S
C404 O387 1.256 . S
C404 C397 1.496 . S
C405 C372 1.448 . S
C405 H382 0.930 . S
C405 C406 1.328 . S
C406 C377 1.427 . S
C406 H383 0.929 . S
C406 C405 1.328 . S
C407 O391 1.264 . S
C407 O392 1.243 . S
C408 C411 1.399 . S
C408 C412 1.376 1_565 S
C408 C415 1.496 . S
C409 C410 1.387 1_545 S
C409 C412 1.389 . S
C410 C409 1.387 1_565 S
C410 C413 1.380 . S
C410 H420 0.929 . S
C411 C408 1.399 . S
C411 C413 1.392 . S
C411 H421 0.929 . S
C412 C408 1.376 1_545 S
C412 C409 1.389 . S
C412 H422 0.938 . S
C413 C410 1.380 . S
C413 C411 1.392 . S
C413 H423 0.929 . S
C414 O394 1.266 . S
C414 O395 1.248 . S
C415 Tb351 2.802 . S
C415 O390 1.264 . S
C415 O393 1.256 . S
C415 C408 1.496 . S
H416 C399 0.929 1_554 S
H417 C400 0.929 . S
H418 C401 0.929 1_554 S
H419 C402 0.931 . S
H420 C410 0.929 . S
H421 C411 0.929 . S
H422 C412 0.938 . S
H423 C413 0.929 . S
Tb424 N453 2.617 . S
Tb424 N459 2.572 . S
Tb424 O468 2.465 . S
Tb424 O469 2.387 . S
Tb424 O471 2.428 . S
Tb424 O472 2.308 . S
Tb424 O476 2.349 . S
Tb424 O479 2.393 . S
Tb424 C488 2.802 . S
C425 N426 1.379 . S
C425 C428 1.416 . S
C425 C432 1.424 . S
N426 C425 1.379 . S
N426 C429 1.334 . S
N426 Tb435 2.617 . S
C427 C429 1.390 . S
C427 C430 1.339 . S
C427 H447 0.930 . S
C428 C425 1.416 . S
C428 C430 1.416 . S
C428 C434 1.448 . S
C429 N426 1.334 . S
C429 C427 1.390 . S
C429 H440 0.930 . S
C430 C427 1.339 . S
C430 C428 1.416 . S
C430 H451 0.930 . S
C431 C432 1.413 . S
C431 C433 1.427 . S
C431 C437 1.416 . S
C432 C425 1.424 . S
C432 C431 1.413 . S
C432 N436 1.361 . S
C433 C431 1.427 . S
C433 C434 1.328 . S
C433 H448 0.929 . S
C434 C428 1.448 . S
C434 C433 1.328 . S
C434 H449 0.930 . S
Tb435 N426 2.617 . S
Tb435 N436 2.572 . S
Tb435 O470 2.349 . S
Tb435 O473 2.393 . S
Tb435 O474 2.465 . S
Tb435 O475 2.387 . S
Tb435 O477 2.428 . S
Tb435 O478 2.308 . S
Tb435 C499 2.802 . S
N436 C432 1.361 . S
N436 Tb435 2.572 . S
N436 C438 1.340 . S
C437 C431 1.416 . S
C437 C439 1.332 . S
C437 H445 0.931 . S
C438 N436 1.340 . S
C438 C439 1.407 . S
C438 H444 0.930 . S
C439 C437 1.332 . S
C439 C438 1.407 . S
C439 H441 0.929 . S
H440 C429 0.930 . S
H441 C439 0.929 . S
H442 C457 0.930 . S
H443 C464 0.929 . S
H444 C438 0.930 . S
H445 C437 0.931 . S
H446 C460 0.930 . S
H447 C427 0.930 . S
H448 C433 0.929 . S
H449 C434 0.930 . S
H450 C455 0.930 . S
H451 C430 0.930 . S
H452 C463 0.931 . S
N453 Tb424 2.617 . S
N453 C454 1.379 . S
N453 C457 1.334 . S
C454 N453 1.379 . S
C454 C456 1.416 . S
C454 C462 1.424 . S
C455 H450 0.930 . S
C455 C457 1.390 . S
C455 C458 1.339 . S
C456 C454 1.416 . S
C456 C458 1.416 . S
C456 C489 1.448 . S
C457 H442 0.930 . S
C457 N453 1.334 . S
C457 C455 1.390 . S
C458 C455 1.339 . S
C458 C456 1.416 . S
C458 H465 0.930 . S
N459 Tb424 2.572 . S
N459 C460 1.340 . S
N459 C462 1.361 . S
C460 H446 0.930 . S
C460 N459 1.340 . S
C460 C464 1.407 . S
C461 C462 1.413 . S
C461 C463 1.416 . S
C461 C490 1.427 . S
C462 C454 1.424 . S
C462 N459 1.361 . S
C462 C461 1.413 . S
C463 H452 0.931 . S
C463 C461 1.416 . S
C463 C464 1.332 . S
C464 H443 0.929 . S
C464 C460 1.407 . S
C464 C463 1.332 . S
H465 C458 0.930 . S
H466 C489 0.930 . S
H467 C490 0.929 . S
O468 Tb424 2.465 . S
O468 C488 1.264 . S
O469 Tb424 2.387 . S
O469 C480 1.264 . S
O470 Tb435 2.349 . S
O470 C480 1.243 . S
O471 Tb424 2.428 . S
O471 C488 1.256 . S
O472 Tb424 2.308 . S
O472 C487 1.266 . S
O473 Tb435 2.393 . S
O473 C487 1.248 . S
O474 Tb435 2.465 . S
O474 C499 1.264 . S
O475 Tb435 2.387 . S
O475 C491 1.264 . S
O476 Tb424 2.349 . S
O476 C491 1.243 . S
O477 Tb435 2.428 . S
O477 C499 1.256 . S
O478 Tb435 2.308 . S
O478 C498 1.266 . S
O479 Tb424 2.393 . S
O479 C498 1.248 . S
C480 O469 1.264 . S
C480 O470 1.243 . S
C481 C484 1.399 . S
C481 C486 1.383 . S
C481 C488 1.496 . S
C482 C483 1.399 . S
C482 C486 1.389 . S
C483 C482 1.399 . S
C483 C485 1.380 . S
C483 H500 0.929 . S
C484 C481 1.399 . S
C484 C485 1.392 . S
C484 H501 0.929 . S
C485 C483 1.380 . S
C485 C484 1.392 . S
C485 H502 0.929 . S
C486 C481 1.383 . S
C486 C482 1.389 . S
C486 H503 0.931 . S
C487 O472 1.266 . S
C487 O473 1.248 . S
C488 Tb424 2.802 . S
C488 O468 1.264 . S
C488 O471 1.256 . S
C488 C481 1.496 . S
C489 C456 1.448 . S
C489 H466 0.930 . S
C489 C490 1.328 . S
C490 C461 1.427 . S
C490 H467 0.929 . S
C490 C489 1.328 . S
C491 O475 1.264 . S
C491 O476 1.243 . S
C492 C495 1.399 . S
C492 C496 1.383 . S
C492 C499 1.496 . S
C493 C494 1.399 . S
C493 C496 1.389 . S
C494 C493 1.399 . S
C494 C497 1.380 . S
C494 H504 0.929 . S
C495 C492 1.399 . S
C495 C497 1.392 . S
C495 H505 0.929 . S
C496 C492 1.383 . S
C496 C493 1.389 . S
C496 H506 0.931 . S
C497 C494 1.380 . S
C497 C495 1.392 . S
C497 H507 0.929 . S
C498 O478 1.266 . S
C498 O479 1.248 . S
C499 Tb435 2.802 . S
C499 O474 1.264 . S
C499 O477 1.256 . S
C499 C492 1.496 . S
H500 C483 0.929 . S
H501 C484 0.929 . S
H502 C485 0.929 . S
H503 C486 0.931 . S
H504 C494 0.929 . S
H505 C495 0.929 . S
H506 C496 0.931 . S
H507 C497 0.929 . S
Tb508 N537 2.617 . S
Tb508 N543 2.572 . S
Tb508 O552 2.465 . S
Tb508 O553 2.387 1_455 S
Tb508 O555 2.428 . S
Tb508 O556 2.308 . S
Tb508 O560 2.349 . S
Tb508 O563 2.393 . S
Tb508 C572 2.802 . S
C509 N510 1.379 1_455 S
C509 C512 1.416 . S
C509 C516 1.424 . S
N510 C509 1.379 1_655 S
N510 C513 1.334 . S
N510 Tb519 2.617 . S
C511 C513 1.390 1_455 S
C511 C514 1.339 . S
C511 H531 0.931 . S
C512 C509 1.416 . S
C512 C514 1.416 . S
C512 C518 1.448 . S
C513 N510 1.334 . S
C513 C511 1.390 1_655 S
C513 H524 0.930 . S
C514 C511 1.339 . S
C514 C512 1.416 . S
C514 H535 0.930 . S
C515 C516 1.413 . S
C515 C517 1.427 . S
C515 C521 1.416 . S
C516 C509 1.424 . S
C516 C515 1.413 . S
C516 N520 1.361 . S
C517 C515 1.427 . S
C517 C518 1.328 . S
C517 H532 0.929 . S
C518 C512 1.448 . S
C518 C517 1.328 . S
C518 H533 0.930 . S
Tb519 N510 2.617 . S
Tb519 N520 2.572 1_655 S
Tb519 O554 2.349 . S
Tb519 O557 2.393 . S
Tb519 O558 2.465 . S
Tb519 O559 2.387 1_655 S
Tb519 O561 2.428 . S
Tb519 O562 2.308 . S
Tb519 C583 2.802 . S
N520 C516 1.361 . S
N520 Tb519 2.572 1_455 S
N520 C522 1.340 . S
C521 C515 1.416 . S
C521 C523 1.332 . S
C521 H529 0.931 . S
C522 N520 1.340 . S
C522 C523 1.407 . S
C522 H528 0.930 1_455 S
C523 C521 1.332 . S
C523 C522 1.407 . S
C523 H525 0.929 . S
H524 C513 0.930 . S
H525 C523 0.929 . S
H526 C541 0.930 . S
H527 C548 0.929 . S
H528 C522 0.930 1_655 S
H529 C521 0.931 . S
H530 C544 0.930 . S
H531 C511 0.931 . S
H532 C517 0.929 . S
H533 C518 0.930 . S
H534 C539 0.930 . S
H535 C514 0.930 . S
H536 C547 0.931 . S
N537 Tb508 2.617 . S
N537 C538 1.379 . S
N537 C541 1.334 . S
C538 N537 1.379 . S
C538 C540 1.416 1_455 S
C538 C546 1.422 1_455 S
C539 H534 0.930 . S
C539 C541 1.390 . S
C539 C542 1.339 1_455 S
C540 C538 1.416 1_655 S
C540 C542 1.416 . S
C540 C573 1.448 . S
C541 H526 0.930 . S
C541 N537 1.334 . S
C541 C539 1.390 . S
C542 C539 1.339 1_655 S
C542 C540 1.416 . S
C542 H549 0.930 . S
N543 Tb508 2.572 . S
N543 C544 1.340 . S
N543 C546 1.357 1_455 S
C544 H530 0.930 . S
C544 N543 1.340 . S
C544 C548 1.407 1_455 S
C545 C546 1.418 . S
C545 C547 1.416 . S
C545 C574 1.427 . S
C546 C538 1.422 1_655 S
C546 N543 1.357 1_655 S
C546 C545 1.418 . S
C547 H536 0.931 . S
C547 C545 1.416 . S
C547 C548 1.332 . S
C548 H527 0.929 . S
C548 C544 1.407 1_655 S
C548 C547 1.332 . S
H549 C542 0.930 . S
H550 C573 0.930 . S
H551 C574 0.929 . S
O552 Tb508 2.465 . S
O552 C572 1.264 . S
O553 Tb508 2.387 1_655 S
O553 C564 1.264 . S
O554 Tb519 2.349 . S
O554 C564 1.243 . S
O555 Tb508 2.428 . S
O555 C572 1.256 . S
O556 Tb508 2.308 . S
O556 C571 1.266 . S
O557 Tb519 2.393 . S
O557 C571 1.248 1_655 S
O558 Tb519 2.465 . S
O558 C583 1.264 . S
O559 Tb519 2.387 1_455 S
O559 C575 1.264 . S
O560 Tb508 2.349 . S
O560 C575 1.243 . S
O561 Tb519 2.428 . S
O561 C583 1.256 . S
O562 Tb519 2.308 . S
O562 C582 1.266 1_655 S
O563 Tb508 2.393 . S
O563 C582 1.248 . S
C564 O553 1.264 . S
C564 O554 1.243 . S
C565 C568 1.399 . S
C565 C570 1.383 . S
C565 C572 1.496 . S
C566 C567 1.399 . S
C566 C570 1.389 . S
C567 C566 1.399 . S
C567 C569 1.380 . S
C567 H584 0.929 . S
C568 C565 1.399 . S
C568 C569 1.392 . S
C568 H585 0.929 . S
C569 C567 1.380 . S
C569 C568 1.392 . S
C569 H586 0.929 . S
C570 C565 1.383 . S
C570 C566 1.389 . S
C570 H587 0.931 . S
C571 O556 1.266 . S
C571 O557 1.248 1_455 S
C572 Tb508 2.802 . S
C572 O552 1.264 . S
C572 O555 1.256 . S
C572 C565 1.496 . S
C573 C540 1.448 . S
C573 H550 0.930 . S
C573 C574 1.328 . S
C574 C545 1.427 . S
C574 H551 0.929 . S
C574 C573 1.328 . S
C575 O559 1.264 . S
C575 O560 1.243 . S
C576 C579 1.399 . S
C576 C580 1.383 . S
C576 C583 1.496 . S
C577 C578 1.399 . S
C577 C580 1.389 . S
C578 C577 1.399 . S
C578 C581 1.380 . S
C578 H588 0.929 . S
C579 C576 1.399 . S
C579 C581 1.392 . S
C579 H589 0.929 . S
C580 C576 1.383 . S
C580 C577 1.389 . S
C580 H590 0.931 . S
C581 C578 1.380 . S
C581 C579 1.392 . S
C581 H591 0.929 . S
C582 O562 1.266 1_455 S
C582 O563 1.248 . S
C583 Tb519 2.802 . S
C583 O558 1.264 . S
C583 O561 1.256 . S
C583 C576 1.496 . S
H584 C567 0.929 . S
H585 C568 0.929 . S
H586 C569 0.929 . S
H587 C570 0.931 . S
H588 C578 0.929 . S
H589 C579 0.929 . S
H590 C580 0.931 . S
H591 C581 0.929 . S
H592 C600 0.950 . S
H593 C605 0.950 . S
H594 C602 0.950 . S
H595 C604 0.950 . S
H596 C606 0.950 . S
H597 C608 0.950 . S
H598 C610 0.950 . S
H599 C611 0.950 . S
C600 H592 0.950 . S
C600 C601 1.386 . S
C600 C602 1.391 . S
C601 C600 1.386 . S
C601 C605 1.393 . S
C602 H594 0.950 . S
C602 C600 1.391 . S
C602 C603 1.400 . S
C603 C602 1.400 . S
C603 C604 1.398 . S
C603 C609 1.491 . S
C604 H595 0.950 . S
C604 C603 1.398 . S
C604 C605 1.391 . S
C605 H593 0.950 . S
C605 C601 1.393 . S
C605 C604 1.391 . S
C606 H596 0.950 . S
C606 C607 1.386 . S
C606 C608 1.391 . S
C607 C606 1.386 . S
C607 C611 1.393 . S
C608 H597 0.950 . S
C608 C606 1.391 . S
C608 C609 1.400 . S
C609 C603 1.491 . S
C609 C608 1.400 . S
C609 C610 1.398 . S
C610 H598 0.950 . S
C610 C609 1.398 . S
C610 C611 1.391 . S
C611 H599 0.950 . S
C611 C607 1.393 . S
C611 C610 1.391 . S
H612 C620 0.950 . S
H613 C625 0.950 . S
H614 C622 0.950 . S
H615 C624 0.950 . S
H616 C626 0.950 . S
H617 C628 0.950 . S
H618 C630 0.950 . S
H619 C631 0.950 . S
C620 H612 0.950 . S
C620 C621 1.386 . S
C620 C622 1.391 . S
C621 C620 1.386 . S
C621 C625 1.393 . S
C622 H614 0.950 . S
C622 C620 1.391 . S
C622 C623 1.400 . S
C623 C622 1.400 . S
C623 C624 1.398 . S
C623 C629 1.491 . S
C624 H615 0.950 . S
C624 C623 1.398 . S
C624 C625 1.391 . S
C625 H613 0.950 . S
C625 C621 1.393 . S
C625 C624 1.391 . S
C626 H616 0.950 . S
C626 C627 1.386 . S
C626 C628 1.391 . S
C627 C626 1.386 . S
C627 C631 1.393 . S
C628 H617 0.950 . S
C628 C626 1.391 . S
C628 C629 1.400 . S
C629 C623 1.491 . S
C629 C628 1.400 . S
C629 C630 1.398 . S
C630 H618 0.950 . S
C630 C629 1.398 . S
C630 C631 1.391 . S
C631 H619 0.950 . S
C631 C627 1.393 . S
C631 C630 1.391 . S
H632 C640 0.950 . S
H633 C645 0.950 . S
H634 C642 0.950 . S
H635 C644 0.950 . S
H636 C646 0.950 . S
H637 C648 0.950 . S
H638 C650 0.950 . S
H639 C651 0.950 . S
C640 H632 0.950 . S
C640 C641 1.386 . S
C640 C642 1.391 . S
C641 C640 1.386 . S
C641 C645 1.393 . S
C642 H634 0.950 . S
C642 C640 1.391 . S
C642 C643 1.400 . S
C643 C642 1.400 . S
C643 C644 1.398 . S
C643 C649 1.491 . S
C644 H635 0.950 . S
C644 C643 1.398 . S
C644 C645 1.391 . S
C645 H633 0.950 . S
C645 C641 1.393 . S
C645 C644 1.391 . S
C646 H636 0.950 . S
C646 C647 1.386 . S
C646 C648 1.391 . S
C647 C646 1.386 . S
C647 C651 1.393 . S
C648 H637 0.950 . S
C648 C646 1.391 . S
C648 C649 1.400 . S
C649 C643 1.491 . S
C649 C648 1.400 . S
C649 C650 1.398 . S
C650 H638 0.950 . S
C650 C649 1.398 . S
C650 C651 1.391 . S
C651 H639 0.950 . S
C651 C647 1.393 . S
C651 C650 1.391 . S
H652 C660 0.950 . S
H653 C665 0.950 . S
H654 C662 0.950 . S
H655 C664 0.950 . S
H656 C666 0.950 . S
H657 C668 0.950 . S
H658 C670 0.950 . S
H659 C671 0.950 . S
C660 H652 0.950 . S
C660 C661 1.386 . S
C660 C662 1.391 . S
C661 C660 1.386 . S
C661 C665 1.393 . S
C662 H654 0.950 . S
C662 C660 1.391 . S
C662 C663 1.400 . S
C663 C662 1.400 . S
C663 C664 1.398 . S
C663 C669 1.491 . S
C664 H655 0.950 . S
C664 C663 1.398 . S
C664 C665 1.391 . S
C665 H653 0.950 . S
C665 C661 1.393 . S
C665 C664 1.391 . S
C666 H656 0.950 . S
C666 C667 1.386 . S
C666 C668 1.391 . S
C667 C666 1.386 . S
C667 C671 1.393 . S
C668 H657 0.950 . S
C668 C666 1.391 . S
C668 C669 1.400 . S
C669 C663 1.491 . S
C669 C668 1.400 . S
C669 C670 1.398 . S
C670 H658 0.950 . S
C670 C669 1.398 . S
C670 C671 1.391 . S
C671 H659 0.950 . S
C671 C667 1.393 . S
C671 C670 1.391 . S
H672 C680 0.945 1_545 S
H673 C685 0.950 . S
H674 C682 0.950 . S
H675 C684 0.950 1_556 S
H676 C686 0.950 . S
H677 C688 0.950 . S
H678 C690 0.950 . S
H679 C691 0.950 . S
C680 H672 0.945 1_565 S
C680 C681 1.391 . S
C680 C682 1.390 1_565 S
C681 C680 1.391 . S
C681 C685 1.393 . S
C682 H674 0.950 . S
C682 C680 1.390 1_545 S
C682 C683 1.399 1_544 S
C683 C682 1.399 1_566 S
C683 C684 1.398 1_556 S
C683 C689 1.493 . S
C684 H675 0.950 1_554 S
C684 C683 1.398 1_554 S
C684 C685 1.391 . S
C685 H673 0.950 . S
C685 C681 1.393 . S
C685 C684 1.391 . S
C686 H676 0.950 . S
C686 C687 1.386 . S
C686 C688 1.391 . S
C687 C686 1.386 . S
C687 C691 1.393 1_565 S
C688 H677 0.950 . S
C688 C686 1.391 . S
C688 C689 1.400 . S
C689 C683 1.493 . S
C689 C688 1.400 . S
C689 C690 1.398 1_565 S
C690 H678 0.950 . S
C690 C689 1.398 1_545 S
C690 C691 1.391 . S
C691 H679 0.950 . S
C691 C687 1.393 1_545 S
C691 C690 1.391 . S
H692 C700 0.950 . S
H693 C705 0.950 . S
H694 C702 0.950 . S
H695 C704 0.950 . S
H696 C706 0.950 . S
H697 C708 0.950 . S
H698 C710 0.950 . S
H699 C711 0.950 . S
C700 H692 0.950 . S
C700 C701 1.386 . S
C700 C702 1.391 . S
C701 C700 1.386 . S
C701 C705 1.393 . S
C702 H694 0.950 . S
C702 C700 1.391 . S
C702 C703 1.400 . S
C703 C702 1.400 . S
C703 C704 1.398 . S
C703 C709 1.491 1_554 S
C704 H695 0.950 . S
C704 C703 1.398 . S
C704 C705 1.391 . S
C705 H693 0.950 . S
C705 C701 1.393 . S
C705 C704 1.391 . S
C706 H696 0.950 . S
C706 C707 1.386 . S
C706 C708 1.391 . S
C707 C706 1.386 . S
C707 C711 1.393 . S
C708 H697 0.950 . S
C708 C706 1.391 . S
C708 C709 1.400 . S
C709 C703 1.491 1_556 S
C709 C708 1.400 . S
C709 C710 1.398 . S
C710 H698 0.950 . S
C710 C709 1.398 . S
C710 C711 1.391 . S
C711 H699 0.950 . S
C711 C707 1.393 . S
C711 C710 1.391 . S
H712 C720 0.950 . S
H713 C725 0.950 . S
H714 C722 0.950 . S
H715 C724 0.950 1_556 S
H716 C726 0.950 . S
H717 C728 0.950 . S
H718 C730 0.950 . S
H719 C731 0.950 . S
C720 H712 0.950 . S
C720 C721 1.386 . S
C720 C722 1.391 . S
C721 C720 1.386 . S
C721 C725 1.393 . S
C722 H714 0.950 . S
C722 C720 1.391 . S
C722 C723 1.410 . S
C723 C722 1.410 . S
C723 C724 1.399 . S
C723 C729 1.480 1_554 S
C724 H715 0.950 1_554 S
C724 C723 1.399 . S
C724 C725 1.391 . S
C725 H713 0.950 . S
C725 C721 1.393 . S
C725 C724 1.391 . S
C726 H716 0.950 . S
C726 C727 1.386 . S
C726 C728 1.391 . S
C727 C726 1.386 . S
C727 C731 1.393 . S
C728 H717 0.950 . S
C728 C726 1.391 . S
C728 C729 1.400 . S
C729 C723 1.480 1_556 S
C729 C728 1.400 . S
C729 C730 1.398 . S
C730 H718 0.950 . S
C730 C729 1.398 . S
C730 C731 1.391 . S
C731 H719 0.950 . S
C731 C727 1.393 . S
C731 C730 1.391 . S
H732 C740 0.950 . S
H733 C745 0.950 . S
H734 C742 0.950 1_456 S
H735 C744 0.950 . S
H736 C746 0.950 . S
H737 C748 0.950 . S
H738 C750 0.963 . S
H739 C751 0.950 . S
C740 H732 0.950 . S
C740 C741 1.386 . S
C740 C742 1.391 . S
C741 C740 1.386 . S
C741 C745 1.393 . S
C742 H734 0.950 1_654 S
C742 C740 1.391 . S
C742 C743 1.400 1_554 S
C743 C742 1.400 1_556 S
C743 C744 1.399 1_556 S
C743 C749 1.490 . S
C744 H735 0.950 . S
C744 C743 1.399 1_554 S
C744 C745 1.391 . S
C745 H733 0.950 . S
C745 C741 1.393 . S
C745 C744 1.391 . S
C746 H736 0.950 . S
C746 C747 1.386 . S
C746 C748 1.391 . S
C747 C746 1.386 . S
C747 C751 1.393 1_655 S
C748 H737 0.950 . S
C748 C746 1.391 . S
C748 C749 1.400 . S
C749 C743 1.490 . S
C749 C748 1.400 . S
C749 C750 1.381 1_655 S
C750 H738 0.963 . S
C750 C749 1.381 1_455 S
C750 C751 1.396 . S
C751 H739 0.950 . S
C751 C747 1.393 1_455 S
C751 C750 1.396 . S
H752 C760 0.950 . S
H753 C765 0.950 . S
H754 C762 0.950 . S
H755 C764 0.950 . S
H756 C766 0.950 . S
H757 C768 0.950 1_655 S
H758 C770 0.950 . S
H759 C771 0.950 . S
C760 H752 0.950 . S
C760 C761 1.386 . S
C760 C762 1.391 . S
C761 C760 1.386 . S
C761 C765 1.393 . S
C762 H754 0.950 . S
C762 C760 1.391 . S
C762 C763 1.400 . S
C763 C762 1.400 . S
C763 C764 1.398 . S
C763 C769 1.491 . S
C764 H755 0.950 . S
C764 C763 1.398 . S
C764 C765 1.391 . S
C765 H753 0.950 . S
C765 C761 1.393 . S
C765 C764 1.391 . S
C766 H756 0.950 . S
C766 C767 1.386 . S
C766 C768 1.391 1_655 S
C767 C766 1.386 . S
C767 C771 1.393 1_655 S
C768 H757 0.950 1_455 S
C768 C766 1.391 1_455 S
C768 C769 1.400 . S
C769 C763 1.491 . S
C769 C768 1.400 . S
C769 C770 1.398 . S
C770 H758 0.950 . S
C770 C769 1.398 . S
C770 C771 1.391 . S
C771 H759 0.950 . S
C771 C767 1.393 1_455 S
C771 C770 1.391 . S
H772 C780 0.950 . S
H773 C785 0.950 . S
H774 C782 0.950 . S
H775 C784 0.950 1_565 S
H776 C786 0.950 . S
H777 C788 0.950 . S
H778 C790 0.950 . S
H779 C791 0.950 . S
C780 H772 0.950 . S
C780 C781 1.386 . S
C780 C782 1.391 . S
C781 C780 1.386 . S
C781 C785 1.393 . S
C782 H774 0.950 . S
C782 C780 1.391 . S
C782 C783 1.400 . S
C783 C782 1.400 . S
C783 C784 1.398 . S
C783 C789 1.491 . S
C784 H775 0.950 1_545 S
C784 C783 1.398 . S
C784 C785 1.391 . S
C785 H773 0.950 . S
C785 C781 1.393 . S
C785 C784 1.391 . S
C786 H776 0.950 . S
C786 C787 1.386 1_565 S
C786 C788 1.391 . S
C787 C786 1.386 1_545 S
C787 C791 1.393 . S
C788 H777 0.950 . S
C788 C786 1.391 . S
C788 C789 1.400 1_565 S
C789 C783 1.491 . S
C789 C788 1.400 1_545 S
C789 C790 1.398 . S
C790 H778 0.950 . S
C790 C789 1.398 . S
C790 C791 1.391 . S
C791 H779 0.950 . S
C791 C787 1.393 . S
C791 C790 1.391 . S
H792 C800 0.950 . S
H793 C805 0.950 . S
H794 C802 0.950 . S
H795 C804 0.950 . S
H796 C806 0.950 . S
H797 C808 0.950 . S
H798 C810 0.950 . S
H799 C811 0.950 . S
C800 H792 0.950 . S
C800 C801 1.386 . S
C800 C802 1.391 . S
C801 C800 1.386 . S
C801 C805 1.393 . S
C802 H794 0.950 . S
C802 C800 1.391 . S
C802 C803 1.400 . S
C803 C802 1.400 . S
C803 C804 1.398 . S
C803 C809 1.491 . S
C804 H795 0.950 . S
C804 C803 1.398 . S
C804 C805 1.391 . S
C805 H793 0.950 . S
C805 C801 1.393 . S
C805 C804 1.391 . S
C806 H796 0.950 . S
C806 C807 1.386 . S
C806 C808 1.391 . S
C807 C806 1.386 . S
C807 C811 1.393 . S
C808 H797 0.950 . S
C808 C806 1.391 . S
C808 C809 1.400 . S
C809 C803 1.491 . S
C809 C808 1.400 . S
C809 C810 1.398 . S
C810 H798 0.950 . S
C810 C809 1.398 . S
C810 C811 1.391 . S
C811 H799 0.950 . S
C811 C807 1.393 . S
C811 C810 1.391 . S
H812 C820 0.950 . S
H813 C825 0.950 . S
H814 C822 0.950 . S
H815 C824 0.950 . S
H816 C826 0.950 . S
H817 C828 0.950 . S
H818 C830 0.950 . S
H819 C831 0.950 . S
C820 H812 0.950 . S
C820 C821 1.386 . S
C820 C822 1.391 . S
C821 C820 1.386 . S
C821 C825 1.393 . S
C822 H814 0.950 . S
C822 C820 1.391 . S
C822 C823 1.400 . S
C823 C822 1.400 . S
C823 C824 1.398 . S
C823 C829 1.491 . S
C824 H815 0.950 . S
C824 C823 1.398 . S
C824 C825 1.391 . S
C825 H813 0.950 . S
C825 C821 1.393 . S
C825 C824 1.391 . S
C826 H816 0.950 . S
C826 C827 1.386 . S
C826 C828 1.391 . S
C827 C826 1.386 . S
C827 C831 1.393 . S
C828 H817 0.950 . S
C828 C826 1.391 . S
C828 C829 1.400 . S
C829 C823 1.491 . S
C829 C828 1.400 . S
C829 C830 1.398 . S
C830 H818 0.950 . S
C830 C829 1.398 . S
C830 C831 1.391 . S
C831 H819 0.950 . S
C831 C827 1.393 . S
C831 C830 1.391 . S
H832 C840 0.950 . S
H833 C845 0.950 1_455 S
H834 C842 0.950 1_556 S
H835 C844 0.981 . S
H836 C846 0.950 . S
H837 C848 0.950 . S
H838 C850 0.950 . S
H839 C851 0.950 . S
C840 H832 0.950 . S
C840 C841 1.386 . S
C840 C842 1.391 . S
C841 C840 1.386 . S
C841 C845 1.393 . S
C842 H834 0.950 1_554 S
C842 C840 1.391 . S
C842 C843 1.400 . S
C843 C842 1.400 . S
C843 C844 1.379 1_655 S
C843 C849 1.491 1_554 S
C844 H835 0.981 . S
C844 C843 1.379 1_455 S
C844 C845 1.380 1_455 S
C845 H833 0.950 1_655 S
C845 C841 1.393 . S
C845 C844 1.380 1_655 S
C846 H836 0.950 . S
C846 C847 1.386 . S
C846 C848 1.391 . S
C847 C846 1.386 . S
C847 C851 1.393 1_455 S
C848 H837 0.950 . S
C848 C846 1.391 . S
C848 C849 1.400 1_455 S
C849 C843 1.491 1_556 S
C849 C848 1.400 1_655 S
C849 C850 1.398 . S
C850 H838 0.950 . S
C850 C849 1.398 . S
C850 C851 1.391 . S
C851 H839 0.950 . S
C851 C847 1.393 1_655 S
C851 C850 1.391 . S
H852 C860 0.950 1_545 S
H853 C865 0.950 . S
H854 C862 0.950 . S
H855 C864 0.950 . S
H856 C866 0.950 . S
H857 C868 0.950 . S
H858 C870 0.950 1_554 S
H859 C871 0.950 . S
C860 H852 0.950 1_565 S
C860 C861 1.386 . S
C860 C862 1.391 1_565 S
C861 C860 1.386 . S
C861 C865 1.393 . S
C862 H854 0.950 . S
C862 C860 1.391 1_545 S
C862 C863 1.400 1_545 S
C863 C862 1.400 1_565 S
C863 C864 1.398 1_554 S
C863 C869 1.491 1_554 S
C864 H855 0.950 . S
C864 C863 1.398 1_556 S
C864 C865 1.391 1_556 S
C865 H853 0.950 . S
C865 C861 1.393 . S
C865 C864 1.391 1_554 S
C866 H856 0.950 . S
C866 C867 1.386 1_565 S
C866 C868 1.391 . S
C867 C866 1.386 1_545 S
C867 C871 1.393 . S
C868 H857 0.950 . S
C868 C866 1.391 . S
C868 C869 1.400 . S
C869 C863 1.491 1_556 S
C869 C868 1.400 . S
C869 C870 1.398 1_565 S
C870 H858 0.950 1_556 S
C870 C869 1.398 1_545 S
C870 C871 1.391 . S
C871 H859 0.950 . S
C871 C867 1.393 . S
C871 C870 1.391 . S
H872 C880 0.950 . S
H873 C885 0.950 . S
H874 C882 0.950 . S
H875 C884 0.950 . S
H876 C886 0.950 . S
H877 C888 0.950 . S
H878 C890 0.950 1_554 S
H879 C891 0.950 . S
C880 H872 0.950 . S
C880 C881 1.386 . S
C880 C882 1.391 . S
C881 C880 1.386 . S
C881 C885 1.393 . S
C882 H874 0.950 . S
C882 C880 1.391 . S
C882 C883 1.400 . S
C883 C882 1.400 . S
C883 C884 1.398 1_554 S
C883 C889 1.491 1_554 S
C884 H875 0.950 . S
C884 C883 1.398 1_556 S
C884 C885 1.391 1_556 S
C885 H873 0.950 . S
C885 C881 1.393 . S
C885 C884 1.391 1_554 S
C886 H876 0.950 . S
C886 C887 1.386 . S
C886 C888 1.391 . S
C887 C886 1.386 . S
C887 C891 1.393 . S
C888 H877 0.950 . S
C888 C886 1.391 . S
C888 C889 1.400 . S
C889 C883 1.491 1_556 S
C889 C888 1.400 . S
C889 C890 1.398 . S
C890 H878 0.950 1_556 S
C890 C889 1.398 . S
C890 C891 1.391 . S
C891 H879 0.950 . S
C891 C887 1.393 . S
C891 C890 1.391 . S
H892 C900 0.950 . S
H893 C905 0.950 . S
H894 C902 0.950 . S
H895 C904 0.950 . S
H896 C906 0.950 . S
H897 C908 0.950 . S
H898 C910 0.950 . S
H899 C911 0.950 . S
C900 H892 0.950 . S
C900 C901 1.386 . S
C900 C902 1.391 . S
C901 C900 1.386 . S
C901 C905 1.393 . S
C902 H894 0.950 . S
C902 C900 1.391 . S
C902 C903 1.400 . S
C903 C902 1.400 . S
C903 C904 1.398 . S
C903 C909 1.491 1_554 S
C904 H895 0.950 . S
C904 C903 1.398 . S
C904 C905 1.391 . S
C905 H893 0.950 . S
C905 C901 1.393 . S
C905 C904 1.391 . S
C906 H896 0.950 . S
C906 C907 1.386 . S
C906 C908 1.391 . S
C907 C906 1.386 . S
C907 C911 1.393 . S
C908 H897 0.950 . S
C908 C906 1.391 . S
C908 C909 1.400 . S
C909 C903 1.491 1_556 S
C909 C908 1.400 . S
C909 C910 1.398 . S
C910 H898 0.950 . S
C910 C909 1.398 . S
C910 C911 1.391 . S
C911 H899 0.950 . S
C911 C907 1.393 . S
C911 C910 1.391 . S
H912 C920 0.950 . S
H913 C925 0.950 . S
H914 C922 0.950 . S
H915 C924 0.950 . S
H916 C926 0.950 . S
H917 C928 0.950 . S
H918 C930 0.950 . S
H919 C931 0.950 . S
C920 H912 0.950 . S
C920 C921 1.386 . S
C920 C922 1.391 . S
C921 C920 1.386 . S
C921 C925 1.393 . S
C922 H914 0.950 . S
C922 C920 1.391 . S
C922 C923 1.400 . S
C923 C922 1.400 . S
C923 C924 1.398 . S
C923 C929 1.491 . S
C924 H915 0.950 . S
C924 C923 1.398 . S
C924 C925 1.391 . S
C925 H913 0.950 . S
C925 C921 1.393 . S
C925 C924 1.391 . S
C926 H916 0.950 . S
C926 C927 1.386 . S
C926 C928 1.391 . S
C927 C926 1.386 . S
C927 C931 1.393 . S
C928 H917 0.950 . S
C928 C926 1.391 . S
C928 C929 1.400 . S
C929 C923 1.491 . S
C929 C928 1.400 . S
C929 C930 1.398 . S
C930 H918 0.950 . S
C930 C929 1.398 . S
C930 C931 1.391 . S
C931 H919 0.950 . S
C931 C927 1.393 . S
C931 C930 1.391 . S
H932 C940 0.950 . S
H933 C945 0.950 . S
H934 C942 0.950 . S
H935 C944 0.950 . S
H936 C946 0.950 . S
H937 C948 0.950 . S
H938 C950 0.950 . S
H939 C951 0.950 1_565 S
C940 H932 0.950 . S
C940 C941 1.386 . S
C940 C942 1.391 . S
C941 C940 1.386 . S
C941 C945 1.393 . S
C942 H934 0.950 . S
C942 C940 1.391 . S
C942 C943 1.400 . S
C943 C942 1.400 . S
C943 C944 1.398 . S
C943 C949 1.491 . S
C944 H935 0.950 . S
C944 C943 1.398 . S
C944 C945 1.391 . S
C945 H933 0.950 . S
C945 C941 1.393 . S
C945 C944 1.391 . S
C946 H936 0.950 . S
C946 C947 1.386 . S
C946 C948 1.391 . S
C947 C946 1.386 . S
C947 C951 1.393 . S
C948 H937 0.950 . S
C948 C946 1.391 . S
C948 C949 1.400 . S
C949 C943 1.491 . S
C949 C948 1.400 . S
C949 C950 1.398 . S
C950 H938 0.950 . S
C950 C949 1.398 . S
C950 C951 1.391 . S
C951 H939 0.950 1_545 S
C951 C947 1.393 . S
C951 C950 1.391 . S
H952 C960 0.950 . S
H953 C965 0.950 . S
H954 C962 0.950 . S
H955 C964 0.950 . S
H956 C966 0.950 . S
H957 C968 0.950 . S
H958 C970 0.950 . S
H959 C971 0.950 . S
C960 H952 0.950 . S
C960 C961 1.386 . S
C960 C962 1.391 . S
C961 C960 1.386 . S
C961 C965 1.393 . S
C962 H954 0.950 . S
C962 C960 1.391 . S
C962 C963 1.400 . S
C963 C962 1.400 . S
C963 C964 1.398 . S
C963 C969 1.491 . S
C964 H955 0.950 . S
C964 C963 1.398 . S
C964 C965 1.391 . S
C965 H953 0.950 . S
C965 C961 1.393 . S
C965 C964 1.391 . S
C966 H956 0.950 . S
C966 C967 1.386 . S
C966 C968 1.391 . S
C967 C966 1.386 . S
C967 C971 1.393 . S
C968 H957 0.950 . S
C968 C966 1.391 . S
C968 C969 1.400 . S
C969 C963 1.491 . S
C969 C968 1.400 . S
C969 C970 1.398 . S
C970 H958 0.950 . S
C970 C969 1.398 . S
C970 C971 1.391 . S
C971 H959 0.950 . S
C971 C967 1.393 . S
C971 C970 1.391 . S
H972 C980 0.950 . S
H973 C985 0.950 . S
H974 C982 0.950 . S
H975 C984 0.950 . S
H976 C986 0.950 . S
H977 C988 0.950 . S
H978 C990 0.950 . S
H979 C991 0.950 . S
C980 H972 0.950 . S
C980 C981 1.386 . S
C980 C982 1.391 . S
C981 C980 1.386 . S
C981 C985 1.393 . S
C982 H974 0.950 . S
C982 C980 1.391 . S
C982 C983 1.400 . S
C983 C982 1.400 . S
C983 C984 1.398 . S
C983 C989 1.491 . S
C984 H975 0.950 . S
C984 C983 1.398 . S
C984 C985 1.391 . S
C985 H973 0.950 . S
C985 C981 1.393 . S
C985 C984 1.391 . S
C986 H976 0.950 . S
C986 C987 1.386 . S
C986 C988 1.391 . S
C987 C986 1.386 . S
C987 C991 1.393 . S
C988 H977 0.950 . S
C988 C986 1.391 . S
C988 C989 1.400 . S
C989 C983 1.491 . S
C989 C988 1.400 . S
C989 C990 1.398 . S
C990 H978 0.950 . S
C990 C989 1.398 . S
C990 C991 1.391 . S
C991 H979 0.950 . S
C991 C987 1.393 . S
C991 C990 1.391 . S
H992 C1000 0.950 1_455 S
H993 C1005 0.950 . S
H994 C1002 0.950 1_455 S
H995 C1004 0.950 . S
H996 C1006 0.950 . S
H997 C1008 0.950 . S
H998 C1010 0.950 . S
H999 C1011 0.950 . S
C1000 H992 0.950 1_655 S
C1000 C1001 1.386 . S
C1000 C1002 1.391 . S
C1001 C1000 1.386 . S
C1001 C1005 1.393 . S
C1002 H994 0.950 1_655 S
C1002 C1000 1.391 . S
C1002 C1003 1.400 . S
C1003 C1002 1.400 . S
C1003 C1004 1.398 . S
C1003 C1009 1.491 . S
C1004 H995 0.950 . S
C1004 C1003 1.398 . S
C1004 C1005 1.391 . S
C1005 H993 0.950 . S
C1005 C1001 1.393 . S
C1005 C1004 1.391 . S
C1006 H996 0.950 . S
C1006 C1007 1.386 . S
C1006 C1008 1.391 . S
C1007 C1006 1.386 . S
C1007 C1011 1.393 1_655 S
C1008 H997 0.950 . S
C1008 C1006 1.391 . S
C1008 C1009 1.400 . S
C1009 C1003 1.491 . S
C1009 C1008 1.400 . S
C1009 C1010 1.398 1_655 S
C1010 H998 0.950 . S
C1010 C1009 1.398 1_455 S
C1010 C1011 1.391 . S
C1011 H999 0.950 . S
C1011 C1007 1.393 1_455 S
C1011 C1010 1.391 . S
H1012 C1020 0.950 . S
H1013 C1025 0.950 . S
H1014 C1022 0.950 . S
H1015 C1024 0.950 . S
H1016 C1026 0.950 . S
H1017 C1028 0.950 . S
H1018 C1030 0.950 . S
H1019 C1031 0.950 . S
C1020 H1012 0.950 . S
C1020 C1021 1.386 . S
C1020 C1022 1.391 . S
C1021 C1020 1.386 . S
C1021 C1025 1.393 . S
C1022 H1014 0.950 . S
C1022 C1020 1.391 . S
C1022 C1023 1.400 . S
C1023 C1022 1.400 . S
C1023 C1024 1.398 . S
C1023 C1029 1.491 . S
C1024 H1015 0.950 . S
C1024 C1023 1.398 . S
C1024 C1025 1.391 . S
C1025 H1013 0.950 . S
C1025 C1021 1.393 . S
C1025 C1024 1.391 . S
C1026 H1016 0.950 . S
C1026 C1027 1.386 . S
C1026 C1028 1.391 . S
C1027 C1026 1.386 . S
C1027 C1031 1.393 . S
C1028 H1017 0.950 . S
C1028 C1026 1.391 . S
C1028 C1029 1.400 . S
C1029 C1023 1.491 . S
C1029 C1028 1.400 . S
C1029 C1030 1.398 . S
C1030 H1018 0.950 . S
C1030 C1029 1.398 . S
C1030 C1031 1.391 . S
C1031 H1019 0.950 . S
C1031 C1027 1.393 . S
C1031 C1030 1.391 . S
H1032 C1040 0.950 . S
H1033 C1045 0.950 . S
H1034 C1042 0.950 . S
H1035 C1044 0.950 . S
H1036 C1046 0.950 . S
H1037 C1048 0.950 . S
H1038 C1050 0.950 . S
H1039 C1051 0.950 . S
C1040 H1032 0.950 . S
C1040 C1041 1.386 . S
C1040 C1042 1.391 . S
C1041 C1040 1.386 . S
C1041 C1045 1.393 . S
C1042 H1034 0.950 . S
C1042 C1040 1.391 . S
C1042 C1043 1.400 . S
C1043 C1042 1.400 . S
C1043 C1044 1.398 . S
C1043 C1049 1.491 . S
C1044 H1035 0.950 . S
C1044 C1043 1.398 . S
C1044 C1045 1.391 . S
C1045 H1033 0.950 . S
C1045 C1041 1.393 . S
C1045 C1044 1.391 . S
C1046 H1036 0.950 . S
C1046 C1047 1.386 . S
C1046 C1048 1.391 . S
C1047 C1046 1.386 . S
C1047 C1051 1.393 . S
C1048 H1037 0.950 . S
C1048 C1046 1.391 . S
C1048 C1049 1.400 . S
C1049 C1043 1.491 . S
C1049 C1048 1.400 . S
C1049 C1050 1.398 . S
C1050 H1038 0.950 . S
C1050 C1049 1.398 . S
C1050 C1051 1.391 . S
C1051 H1039 0.950 . S
C1051 C1047 1.393 . S
C1051 C1050 1.391 . S
H1052 C1060 0.950 . S
H1053 C1065 0.950 . S
H1054 C1062 0.950 . S
H1055 C1064 0.950 . S
H1056 C1066 0.950 . S
H1057 C1068 0.950 . S
H1058 C1070 0.950 . S
H1059 C1071 0.950 . S
C1060 H1052 0.950 . S
C1060 C1061 1.386 . S
C1060 C1062 1.391 . S
C1061 C1060 1.386 . S
C1061 C1065 1.393 . S
C1062 H1054 0.950 . S
C1062 C1060 1.391 . S
C1062 C1063 1.400 . S
C1063 C1062 1.400 . S
C1063 C1064 1.398 . S
C1063 C1069 1.491 . S
C1064 H1055 0.950 . S
C1064 C1063 1.398 . S
C1064 C1065 1.391 . S
C1065 H1053 0.950 . S
C1065 C1061 1.393 . S
C1065 C1064 1.391 . S
C1066 H1056 0.950 . S
C1066 C1067 1.386 . S
C1066 C1068 1.391 . S
C1067 C1066 1.386 . S
C1067 C1071 1.393 . S
C1068 H1057 0.950 . S
C1068 C1066 1.391 . S
C1068 C1069 1.400 . S
C1069 C1063 1.491 . S
C1069 C1068 1.400 . S
C1069 C1070 1.398 . S
C1070 H1058 0.950 . S
C1070 C1069 1.398 . S
C1070 C1071 1.391 . S
C1071 H1059 0.950 . S
C1071 C1067 1.393 . S
C1071 C1070 1.391 . S
C601 C215 2.134 . S
C607 C319 2.240 . S
C627 C396 2.248 . S
C621 C247 2.149 . S
C647 C487 2.224 . S
C641 C151 2.111 . S
C667 C571 2.220 . S
C661 C183 2.114 . S
C687 C330 2.239 1_565 S
C681 C87 2.075 . S
C701 C119 2.063 . S
C707 C407 2.239 . S
C721 C23 2.071 . S
C727 C498 2.229 . S
C741 C55 2.047 . S
C747 C582 2.221 1_655 S
C767 C314 0.551 . S
C761 C189 0.462 . S
C787 C409 0.517 . S
C781 C221 0.432 . S
C807 C482 0.484 . S
C801 C253 0.458 . S
C821 C157 0.434 . S
C827 C566 0.491 . S
C841 C61 0.572 . S
C847 C325 0.496 . S
C867 C398 0.509 . S
C861 C93 0.557 . S
C887 C493 0.548 . S
C881 C125 0.568 . S
C901 C29 0.556 . S
C907 C577 0.492 . S
C921 C177 2.335 . S
C927 C323 2.555 . S
C941 C209 2.357 . S
C947 C414 2.586 . S
C967 C491 2.575 . S
C961 C241 2.354 . S
C987 C575 2.580 . S
C981 C145 2.358 . S
C1001 C49 2.294 . S
C1007 C312 2.554 . S
C1027 C403 2.593 . S
C1021 C81 2.285 . S
C1047 C480 2.574 . S
C1041 C113 2.307 . S
C1061 C17 2.328 . S
C1067 C564 2.586 . S
