# Generated by pormake.
# Topology eea, (3,6)-cn, num edge types: 1
# Building blocks:
#     Node 0, Type 0, BuildingBlock: KAKCAD_clean_linker_0, # of connection points: 3
#     Node 1, Type 0, BuildingBlock: KAKCAD_clean_linker_0, # of connection points: 3
#     Node 2, Type 0, BuildingBlock: KAKCAD_clean_linker_0, # of connection points: 3
#     Node 3, Type 0, BuildingBlock: KAKCAD_clean_linker_0, # of connection points: 3
#     Node 4, Type 0, BuildingBlock: KAKCAD_clean_linker_0, # of connection points: 3
#     Node 5, Type 0, BuildingBlock: KAKCAD_clean_linker_0, # of connection points: 3
#     Node 6, Type 0, BuildingBlock: KAKCAD_clean_linker_0, # of connection points: 3
#     Node 7, Type 0, BuildingBlock: KAKCAD_clean_linker_0, # of connection points: 3
#     Node 8, Type 0, BuildingBlock: KAKCAD_clean_linker_0, # of connection points: 3
#     Node 9, Type 0, BuildingBlock: KAKCAD_clean_linker_0, # of connection points: 3
#     Node 10, Type 0, BuildingBlock: KAKCAD_clean_linker_0, # of connection points: 3
#     Node 11, Type 0, BuildingBlock: KAKCAD_clean_linker_0, # of connection points: 3
#     Node 12, Type 0, BuildingBlock: KAKCAD_clean_linker_0, # of connection points: 3
#     Node 13, Type 0, BuildingBlock: KAKCAD_clean_linker_0, # of connection points: 3
#     Node 14, Type 0, BuildingBlock: KAKCAD_clean_linker_0, # of connection points: 3
#     Node 15, Type 0, BuildingBlock: KAKCAD_clean_linker_0, # of connection points: 3
#     Node 16, Type 0, BuildingBlock: KAKCAD_clean_linker_0, # of connection points: 3
#     Node 17, Type 0, BuildingBlock: KAKCAD_clean_linker_0, # of connection points: 3
#     Node 18, Type 1, BuildingBlock: KUMJIN_clean_sbu_0, # of connection points: 6
#     Node 19, Type 1, BuildingBlock: KUMJIN_clean_sbu_0, # of connection points: 6
#     Node 20, Type 1, BuildingBlock: KUMJIN_clean_sbu_0, # of connection points: 6
#     Node 21, Type 1, BuildingBlock: KUMJIN_clean_sbu_0, # of connection points: 6
#     Node 22, Type 1, BuildingBlock: KUMJIN_clean_sbu_0, # of connection points: 6
#     Node 23, Type 1, BuildingBlock: KUMJIN_clean_sbu_0, # of connection points: 6
#     Node 24, Type 1, BuildingBlock: KUMJIN_clean_sbu_0, # of connection points: 6
#     Node 25, Type 1, BuildingBlock: KUMJIN_clean_sbu_0, # of connection points: 6
#     Node 26, Type 1, BuildingBlock: KUMJIN_clean_sbu_0, # of connection points: 6
#     Edge 27, Type (0, 1), BuildingBlock: UVAHIK_clean_linker_0, # of connection points: 2
#     Edge 28, Type (0, 1), BuildingBlock: UVAHIK_clean_linker_0, # of connection points: 2
#     Edge 29, Type (0, 1), BuildingBlock: UVAHIK_clean_linker_0, # of connection points: 2
#     Edge 30, Type (0, 1), BuildingBlock: UVAHIK_clean_linker_0, # of connection points: 2
#     Edge 31, Type (0, 1), BuildingBlock: UVAHIK_clean_linker_0, # of connection points: 2
#     Edge 32, Type (0, 1), BuildingBlock: UVAHIK_clean_linker_0, # of connection points: 2
#     Edge 33, Type (0, 1), BuildingBlock: UVAHIK_clean_linker_0, # of connection points: 2
#     Edge 34, Type (0, 1), BuildingBlock: UVAHIK_clean_linker_0, # of connection points: 2
#     Edge 35, Type (0, 1), BuildingBlock: UVAHIK_clean_linker_0, # of connection points: 2
#     Edge 36, Type (0, 1), BuildingBlock: UVAHIK_clean_linker_0, # of connection points: 2
#     Edge 37, Type (0, 1), BuildingBlock: UVAHIK_clean_linker_0, # of connection points: 2
#     Edge 38, Type (0, 1), BuildingBlock: UVAHIK_clean_linker_0, # of connection points: 2
#     Edge 39, Type (0, 1), BuildingBlock: UVAHIK_clean_linker_0, # of connection points: 2
#     Edge 40, Type (0, 1), BuildingBlock: UVAHIK_clean_linker_0, # of connection points: 2
#     Edge 41, Type (0, 1), BuildingBlock: UVAHIK_clean_linker_0, # of connection points: 2
#     Edge 42, Type (0, 1), BuildingBlock: UVAHIK_clean_linker_0, # of connection points: 2
#     Edge 43, Type (0, 1), BuildingBlock: UVAHIK_clean_linker_0, # of connection points: 2
#     Edge 44, Type (0, 1), BuildingBlock: UVAHIK_clean_linker_0, # of connection points: 2
#     Edge 45, Type (0, 1), BuildingBlock: UVAHIK_clean_linker_0, # of connection points: 2
#     Edge 46, Type (0, 1), BuildingBlock: UVAHIK_clean_linker_0, # of connection points: 2
#     Edge 47, Type (0, 1), BuildingBlock: UVAHIK_clean_linker_0, # of connection points: 2
#     Edge 48, Type (0, 1), BuildingBlock: UVAHIK_clean_linker_0, # of connection points: 2
#     Edge 49, Type (0, 1), BuildingBlock: UVAHIK_clean_linker_0, # of connection points: 2
#     Edge 50, Type (0, 1), BuildingBlock: UVAHIK_clean_linker_0, # of connection points: 2
#     Edge 51, Type (0, 1), BuildingBlock: UVAHIK_clean_linker_0, # of connection points: 2
#     Edge 52, Type (0, 1), BuildingBlock: UVAHIK_clean_linker_0, # of connection points: 2
#     Edge 53, Type (0, 1), BuildingBlock: UVAHIK_clean_linker_0, # of connection points: 2
#     Edge 54, Type (0, 1), BuildingBlock: UVAHIK_clean_linker_0, # of connection points: 2
#     Edge 55, Type (0, 1), BuildingBlock: UVAHIK_clean_linker_0, # of connection points: 2
#     Edge 56, Type (0, 1), BuildingBlock: UVAHIK_clean_linker_0, # of connection points: 2
#     Edge 57, Type (0, 1), BuildingBlock: UVAHIK_clean_linker_0, # of connection points: 2
#     Edge 58, Type (0, 1), BuildingBlock: UVAHIK_clean_linker_0, # of connection points: 2
#     Edge 59, Type (0, 1), BuildingBlock: UVAHIK_clean_linker_0, # of connection points: 2
#     Edge 60, Type (0, 1), BuildingBlock: UVAHIK_clean_linker_0, # of connection points: 2
#     Edge 61, Type (0, 1), BuildingBlock: UVAHIK_clean_linker_0, # of connection points: 2
#     Edge 62, Type (0, 1), BuildingBlock: UVAHIK_clean_linker_0, # of connection points: 2
#     Edge 63, Type (0, 1), BuildingBlock: UVAHIK_clean_linker_0, # of connection points: 2
#     Edge 64, Type (0, 1), BuildingBlock: UVAHIK_clean_linker_0, # of connection points: 2
#     Edge 65, Type (0, 1), BuildingBlock: UVAHIK_clean_linker_0, # of connection points: 2
#     Edge 66, Type (0, 1), BuildingBlock: UVAHIK_clean_linker_0, # of connection points: 2
#     Edge 67, Type (0, 1), BuildingBlock: UVAHIK_clean_linker_0, # of connection points: 2
#     Edge 68, Type (0, 1), BuildingBlock: UVAHIK_clean_linker_0, # of connection points: 2
#     Edge 69, Type (0, 1), BuildingBlock: UVAHIK_clean_linker_0, # of connection points: 2
#     Edge 70, Type (0, 1), BuildingBlock: UVAHIK_clean_linker_0, # of connection points: 2
#     Edge 71, Type (0, 1), BuildingBlock: UVAHIK_clean_linker_0, # of connection points: 2
#     Edge 72, Type (0, 1), BuildingBlock: UVAHIK_clean_linker_0, # of connection points: 2
#     Edge 73, Type (0, 1), BuildingBlock: UVAHIK_clean_linker_0, # of connection points: 2
#     Edge 74, Type (0, 1), BuildingBlock: UVAHIK_clean_linker_0, # of connection points: 2
#     Edge 75, Type (0, 1), BuildingBlock: UVAHIK_clean_linker_0, # of connection points: 2
#     Edge 76, Type (0, 1), BuildingBlock: UVAHIK_clean_linker_0, # of connection points: 2
#     Edge 77, Type (0, 1), BuildingBlock: UVAHIK_clean_linker_0, # of connection points: 2
#     Edge 78, Type (0, 1), BuildingBlock: UVAHIK_clean_linker_0, # of connection points: 2
#     Edge 79, Type (0, 1), BuildingBlock: UVAHIK_clean_linker_0, # of connection points: 2
#     Edge 80, Type (0, 1), BuildingBlock: UVAHIK_clean_linker_0, # of connection points: 2
# Relax obj value: 0.010
# Max RMSD: 0.099
# Mean RMSD: 0.055
data_MOF--net-eea--node1-KUMJIN_clean_sbu_0--node2-KAKCAD_clean_linker_0--edge1-UVAHIK_clean_linker_0
_symmetry_space_group_name_H-M    P1
_symmetry_Int_Tables_number       1
_symmetry_cell_setting            triclinic
loop_
_symmetry_equiv_pos_as_xyz
'x, y, z'
_cell_length_a     78.170686
_cell_length_b     79.389579
_cell_length_c     106.86979
_cell_angle_alpha  90.369704
_cell_angle_beta   90.323128
_cell_angle_gamma 119.96915
loop_
_atom_site_label
_atom_site_type_symbol
_atom_site_fract_x
_atom_site_fract_y
_atom_site_fract_z
_atom_type_partial_charge
C0 C 0.28075 0.15031 0.47538 0.0
C1 C 0.29715 0.14787 0.47755 0.0
C2 C 0.27174 0.14651 0.46358 0.0
C3 C 0.2788 0.14002 0.45368 0.0
C4 C 0.2954 0.13793 0.45573 0.0
C5 C 0.30454 0.14191 0.46751 0.0
C6 C 0.26815 0.13444 0.44149 0.0
C7 C 0.26181 0.14636 0.43586 0.0
C8 C 0.2504 0.14046 0.42477 0.0
C9 C 0.24524 0.12225 0.41946 0.0
C10 C 0.25193 0.11047 0.4248 0.0
C11 C 0.26349 0.11668 0.43573 0.0
C12 C 0.24647 0.09147 0.41903 0.0
C13 C 0.22653 0.07753 0.41704 0.0
C14 C 0.26116 0.08726 0.41537 0.0
C15 C 0.25598 0.06946 0.40961 0.0
C16 C 0.23602 0.05546 0.4077 0.0
C17 C 0.24386 0.1532 0.41872 0.0
C18 C 0.23873 0.16485 0.42595 0.0
C19 C 0.24262 0.15375 0.4056 0.0
C20 C 0.23617 0.16538 0.39989 0.0
C21 C 0.23114 0.17712 0.40711 0.0
C22 C 0.23262 0.17677 0.42022 0.0
C23 C 0.22133 0.05957 0.41154 0.0
H24 H 0.27443 0.15456 0.48291 0.0
H25 H 0.2588 0.148 0.46231 0.0
H26 H 0.30129 0.13316 0.44822 0.0
H27 H 0.31737 0.14025 0.46875 0.0
H28 H 0.26606 0.16038 0.44008 0.0
H29 H 0.26815 0.10727 0.44003 0.0
H30 H 0.23599 0.11712 0.41113 0.0
H31 H 0.21498 0.08049 0.41984 0.0
H32 H 0.27664 0.09787 0.41679 0.0
H33 H 0.26753 0.06653 0.40676 0.0
H34 H 0.23922 0.16466 0.43607 0.0
H35 H 0.24676 0.14528 0.39967 0.0
H36 H 0.20585 0.049 0.4101 0.0
H37 H 0.22921 0.18581 0.42613 0.0
H38 H 0.23495 0.16497 0.38978 0.0
C39 C 0.87731 0.15322 0.46847 0.0
C40 C 0.87383 0.14034 0.47835 0.0
C41 C 0.88171 0.14923 0.45654 0.0
C42 C 0.88234 0.13212 0.45421 0.0
C43 C 0.87901 0.11931 0.46411 0.0
C44 C 0.87497 0.12348 0.47611 0.0
C45 C 0.88567 0.12732 0.44136 0.0
C46 C 0.90157 0.14109 0.43429 0.0
C47 C 0.90431 0.13693 0.42188 0.0
C48 C 0.89058 0.11887 0.41654 0.0
C49 C 0.87474 0.10493 0.42354 0.0
C50 C 0.87251 0.10915 0.43598 0.0
C51 C 0.8603 0.08606 0.41776 0.0
C52 C 0.85114 0.08549 0.4063 0.0
C53 C 0.85555 0.06854 0.42368 0.0
C54 C 0.84202 0.05073 0.41816 0.0
C55 C 0.83274 0.05016 0.40674 0.0
C56 C 0.92157 0.15129 0.41455 0.0
C57 C 0.9284 0.17133 0.41567 0.0
C58 C 0.93152 0.14507 0.40646 0.0
C59 C 0.94791 0.15853 0.39972 0.0
C60 C 0.95487 0.17853 0.40101 0.0
C61 C 0.94491 0.18479 0.40903 0.0
C62 C 0.83735 0.0677 0.40089 0.0
H63 H 0.87661 0.16637 0.46999 0.0
H64 H 0.88409 0.15927 0.44904 0.0
H65 H 0.87948 0.10605 0.46255 0.0
H66 H 0.87224 0.11328 0.48357 0.0
H67 H 0.91203 0.15488 0.43861 0.0
H68 H 0.86007 0.09855 0.44134 0.0
H69 H 0.89217 0.11558 0.4069 0.0
H70 H 0.85449 0.09883 0.4016 0.0
H71 H 0.86249 0.06863 0.43251 0.0
H72 H 0.83862 0.03739 0.42288 0.0
H73 H 0.92091 0.17665 0.42162 0.0
H74 H 0.92692 0.12979 0.40551 0.0
H75 H 0.83046 0.06763 0.39205 0.0
H76 H 0.9498 0.20013 0.41008 0.0
H77 H 0.95545 0.1533 0.39374 0.0
C78 C 0.89126 0.7501 0.47729 0.0
C79 C 0.87181 0.73712 0.48109 0.0
C80 C 0.89508 0.75838 0.46535 0.0
C81 C 0.87959 0.75376 0.45675 0.0
C82 C 0.86015 0.74083 0.46057 0.0
C83 C 0.85632 0.73281 0.47255 0.0
C84 C 0.88361 0.76206 0.44381 0.0
C85 C 0.90079 0.7656 0.43738 0.0
C86 C 0.90426 0.77267 0.42508 0.0
C87 C 0.89021 0.77604 0.41908 0.0
C88 C 0.87303 0.77289 0.42529 0.0
C89 C 0.87003 0.76609 0.43768 0.0
C90 C 0.85815 0.77649 0.41879 0.0
C91 C 0.86411 0.79229 0.41065 0.0
C92 C 0.8378 0.76401 0.42059 0.0
C93 C 0.82384 0.76721 0.41442 0.0
C94 C 0.82978 0.78292 0.4062 0.0
C95 C 0.92256 0.77651 0.41844 0.0
C96 C 0.94115 0.78733 0.42429 0.0
C97 C 0.92161 0.76967 0.40614 0.0
C98 C 0.93885 0.77352 0.39984 0.0
C99 C 0.95747 0.78457 0.40564 0.0
C100 C 0.95842 0.79145 0.41793 0.0
C101 C 0.85014 0.79543 0.40442 0.0
H102 H 0.90368 0.75369 0.48345 0.0
H103 H 0.91024 0.76848 0.46292 0.0
H104 H 0.84777 0.73659 0.45424 0.0
H105 H 0.84109 0.72323 0.4751 0.0
H106 H 0.91128 0.7623 0.44178 0.0
H107 H 0.85719 0.76426 0.44265 0.0
H108 H 0.89272 0.78116 0.40953 0.0
H109 H 0.87963 0.80237 0.40912 0.0
H110 H 0.83257 0.75155 0.42665 0.0
H111 H 0.80834 0.7574 0.41621 0.0
H112 H 0.94236 0.79289 0.43373 0.0
H113 H 0.90749 0.7612 0.40141 0.0
H114 H 0.85534 0.80756 0.39808 0.0
H115 H 0.97252 0.79986 0.42268 0.0
H116 H 0.93764 0.76811 0.39036 0.0
C117 C 0.13612 0.24106 0.53799 0.0
C118 C 0.13083 0.25473 0.53406 0.0
C119 C 0.132 0.23364 0.55014 0.0
C120 C 0.12268 0.23988 0.55876 0.0
C121 C 0.11725 0.25345 0.55475 0.0
C122 C 0.12118 0.26069 0.54255 0.0
C123 C 0.11908 0.23263 0.57192 0.0
C124 C 0.13289 0.22918 0.57823 0.0
C125 C 0.12994 0.22285 0.5907 0.0
C126 C 0.113 0.22012 0.59697 0.0
C127 C 0.09882 0.22325 0.59086 0.0
C128 C 0.102 0.22939 0.57832 0.0
C129 C 0.08071 0.22013 0.59755 0.0
C130 C 0.07079 0.20457 0.60587 0.0
C131 C 0.07312 0.2327 0.59563 0.0
C132 C 0.0561 0.22975 0.60178 0.0
C133 C 0.04619 0.21421 0.61012 0.0
C134 C 0.14467 0.21912 0.59711 0.0
C135 C 0.15173 0.20799 0.59116 0.0
C136 C 0.15193 0.22678 0.60911 0.0
C137 C 0.16619 0.22364 0.61495 0.0
C138 C 0.17336 0.21253 0.609 0.0
C139 C 0.16576 0.20462 0.59706 0.0
C140 C 0.0538 0.20167 0.61207 0.0
H141 H 0.14333 0.23596 0.53162 0.0
H142 H 0.13605 0.22293 0.55274 0.0
H143 H 0.11038 0.25889 0.56113 0.0
H144 H 0.11712 0.27137 0.53987 0.0
H145 H 0.14631 0.23195 0.57358 0.0
H146 H 0.09091 0.23127 0.57342 0.0
H147 H 0.11087 0.21551 0.60664 0.0
H148 H 0.07602 0.19444 0.60749 0.0
H149 H 0.08044 0.24498 0.58942 0.0
H150 H 0.0506 0.23958 0.59987 0.0
H151 H 0.14621 0.20168 0.58198 0.0
H152 H 0.1469 0.23558 0.61388 0.0
H153 H 0.04674 0.18967 0.61851 0.0
H154 H 0.17047 0.19561 0.59225 0.0
H155 H 0.17184 0.23027 0.62404 0.0
C156 C 0.70632 0.84149 0.54525 0.0
C157 C 0.71657 0.85414 0.53542 0.0
C158 C 0.71409 0.84567 0.55742 0.0
C159 C 0.73202 0.86277 0.55998 0.0
C160 C 0.74228 0.87539 0.55015 0.0
C161 C 0.73471 0.87101 0.53794 0.0
C162 C 0.73981 0.8677 0.57293 0.0
C163 C 0.7424 0.85437 0.58008 0.0
C164 C 0.75002 0.85909 0.59236 0.0
C165 C 0.75482 0.87734 0.59742 0.0
C166 C 0.7522 0.89082 0.59041 0.0
C167 C 0.7447 0.88583 0.57814 0.0
C168 C 0.75735 0.91009 0.59591 0.0
C169 C 0.75403 0.9119 0.60866 0.0
C170 C 0.76581 0.92689 0.58849 0.0
C171 C 0.77081 0.94499 0.59369 0.0
C172 C 0.76777 0.94672 0.60645 0.0
C173 C 0.75322 0.84513 0.59984 0.0
C174 C 0.73974 0.82503 0.5991 0.0
C175 C 0.76984 0.8518 0.60778 0.0
C176 C 0.77287 0.83873 0.61481 0.0
C177 C 0.75952 0.81869 0.61392 0.0
C178 C 0.74293 0.81195 0.60601 0.0
C179 C 0.75936 0.93005 0.61389 0.0
H180 H 0.69233 0.82836 0.5435 0.0
H181 H 0.7059 0.83578 0.56488 0.0
H182 H 0.75618 0.88861 0.55191 0.0
H183 H 0.74281 0.88103 0.53052 0.0
H184 H 0.739 0.84054 0.5759 0.0
H185 H 0.74218 0.89586 0.57267 0.0
H186 H 0.76069 0.88108 0.60687 0.0
H187 H 0.74715 0.89927 0.61461 0.0
H188 H 0.76892 0.92616 0.57871 0.0
H189 H 0.77746 0.95771 0.5878 0.0
H190 H 0.72661 0.81938 0.59327 0.0
H191 H 0.78076 0.86711 0.60841 0.0
H192 H 0.75668 0.93103 0.62373 0.0
H193 H 0.73234 0.79655 0.60524 0.0
H194 H 0.78594 0.84427 0.6207 0.0
C195 C 0.11878 0.85406 0.53747 0.0
C196 C 0.13758 0.85655 0.53506 0.0
C197 C 0.11407 0.85774 0.54941 0.0
C198 C 0.1281 0.86417 0.55916 0.0
C199 C 0.14675 0.86632 0.55685 0.0
C200 C 0.1514 0.86244 0.54497 0.0
C201 C 0.1236 0.86951 0.57154 0.0
C202 C 0.10564 0.85721 0.57748 0.0
C203 C 0.10087 0.86266 0.58894 0.0
C204 C 0.11437 0.88081 0.5943 0.0
C205 C 0.13255 0.89301 0.58862 0.0
C206 C 0.1371 0.88724 0.57728 0.0
C207 C 0.1468 0.91186 0.59452 0.0
C208 C 0.14066 0.92486 0.59853 0.0
C209 C 0.16662 0.9169 0.59623 0.0
C210 C 0.18003 0.93455 0.60196 0.0
C211 C 0.17398 0.94769 0.60595 0.0
C212 C 0.08199 0.84939 0.59538 0.0
C213 C 0.06467 0.83733 0.58845 0.0
C214 C 0.08115 0.84856 0.60855 0.0
C215 C 0.06348 0.83618 0.6146 0.0
C216 C 0.04638 0.82402 0.60762 0.0
C217 C 0.04712 0.82464 0.59451 0.0
C218 C 0.15412 0.94263 0.6041 0.0
H219 H 0.10785 0.84983 0.53006 0.0
H220 H 0.09965 0.85618 0.5509 0.0
H221 H 0.15776 0.87102 0.56426 0.0
H222 H 0.16586 0.86409 0.54355 0.0
H223 H 0.09562 0.84322 0.57324 0.0
H224 H 0.15091 0.89689 0.57272 0.0
H225 H 0.11086 0.88551 0.60297 0.0
H226 H 0.12549 0.92138 0.59718 0.0
H227 H 0.17165 0.90702 0.59334 0.0
H228 H 0.19508 0.93774 0.60343 0.0
H229 H 0.06454 0.83778 0.57833 0.0
H230 H 0.0942 0.85724 0.61425 0.0
H231 H 0.14898 0.9525 0.60681 0.0
H232 H 0.03402 0.81547 0.58895 0.0
H233 H 0.06326 0.83577 0.62473 0.0
C234 C 0.94227 0.48463 0.8055 0.0
C235 C 0.95827 0.48182 0.80833 0.0
C236 C 0.93411 0.48096 0.79343 0.0
C237 C 0.94163 0.47421 0.78396 0.0
C238 C 0.95786 0.4718 0.78668 0.0
C239 C 0.96617 0.47567 0.7987 0.0
C240 C 0.93192 0.46874 0.77148 0.0
C241 C 0.9269 0.48114 0.76512 0.0
C242 C 0.91703 0.47561 0.75346 0.0
C243 C 0.91178 0.45723 0.74842 0.0
C244 C 0.91694 0.44487 0.7546 0.0
C245 C 0.92717 0.45075 0.76604 0.0
C246 C 0.91147 0.4257 0.74912 0.0
C247 C 0.89163 0.41222 0.74637 0.0
C248 C 0.92608 0.42086 0.74652 0.0
C249 C 0.92094 0.40287 0.74106 0.0
C250 C 0.90107 0.38933 0.73841 0.0
C251 C 0.91242 0.48901 0.74644 0.0
C252 C 0.9062 0.50062 0.75272 0.0
C253 C 0.91419 0.49025 0.73334 0.0
C254 C 0.90963 0.50258 0.72666 0.0
C255 C 0.90339 0.51413 0.73294 0.0
C256 C 0.90181 0.51311 0.74604 0.0
C257 C 0.88644 0.39407 0.74118 0.0
H258 H 0.9356 0.48908 0.8127 0.0
H259 H 0.92146 0.48275 0.79162 0.0
H260 H 0.96411 0.46684 0.7795 0.0
H261 H 0.97876 0.47377 0.80043 0.0
H262 H 0.93114 0.49528 0.76913 0.0
H263 H 0.93081 0.44099 0.77091 0.0
H264 H 0.90373 0.45249 0.73961 0.0
H265 H 0.88015 0.41568 0.74836 0.0
H266 H 0.94148 0.43111 0.74853 0.0
H267 H 0.93243 0.39945 0.73902 0.0
H268 H 0.90441 0.49985 0.76277 0.0
H269 H 0.91935 0.48186 0.72821 0.0
H270 H 0.87104 0.38384 0.73915 0.0
H271 H 0.89684 0.52171 0.7511 0.0
H272 H 0.91127 0.5033 0.71659 0.0
C273 C 0.54645 0.49167 0.80126 0.0
C274 C 0.54283 0.47901 0.8113 0.0
C275 C 0.55054 0.48719 0.78937 0.0
C276 C 0.55069 0.46978 0.78727 0.0
C277 C 0.54713 0.45715 0.79732 0.0
C278 C 0.54342 0.46181 0.80925 0.0
C279 C 0.55408 0.4645 0.77458 0.0
C280 C 0.57066 0.47753 0.76771 0.0
C281 C 0.57414 0.47232 0.7558 0.0
C282 C 0.5606 0.45398 0.75074 0.0
C283 C 0.54365 0.44091 0.75736 0.0
C284 C 0.54063 0.44631 0.76934 0.0
C285 C 0.52902 0.4218 0.75169 0.0
C286 C 0.52481 0.4201 0.73876 0.0
C287 C 0.51905 0.40511 0.75912 0.0
C288 C 0.50518 0.38727 0.75379 0.0
C289 C 0.50123 0.38565 0.74088 0.0
C290 C 0.59187 0.48594 0.74858 0.0
C291 C 0.5978 0.5058 0.74797 0.0
C292 C 0.6028 0.47909 0.74206 0.0
C293 C 0.61919 0.49176 0.73503 0.0
C294 C 0.62505 0.5116 0.73433 0.0
C295 C 0.61418 0.51848 0.74091 0.0
C296 C 0.51121 0.4022 0.73341 0.0
H297 H 0.54615 0.50505 0.80264 0.0
H298 H 0.55317 0.4971 0.78175 0.0
H299 H 0.54726 0.44369 0.79593 0.0
H300 H 0.54056 0.45176 0.81682 0.0
H301 H 0.58115 0.4915 0.77181 0.0
H302 H 0.52751 0.43661 0.77452 0.0
H303 H 0.56327 0.44993 0.74157 0.0
H304 H 0.5318 0.43266 0.73275 0.0
H305 H 0.52212 0.40572 0.76906 0.0
H306 H 0.49778 0.37465 0.75972 0.0
H307 H 0.58959 0.51149 0.7528 0.0
H308 H 0.59875 0.46392 0.74245 0.0
H309 H 0.50823 0.40135 0.72344 0.0
H310 H 0.61844 0.53372 0.74069 0.0
H311 H 0.62713 0.48596 0.73 0.0
C312 C 0.56044 0.08401 0.81037 0.0
C313 C 0.54112 0.07167 0.81452 0.0
C314 C 0.56384 0.09205 0.79838 0.0
C315 C 0.54799 0.08762 0.7901 0.0
C316 C 0.52864 0.07515 0.79432 0.0
C317 C 0.52526 0.06746 0.8064 0.0
C318 C 0.55158 0.09567 0.77708 0.0
C319 C 0.56851 0.099 0.77043 0.0
C320 C 0.57172 0.10605 0.75813 0.0
C321 C 0.55761 0.10953 0.75233 0.0
C322 C 0.54066 0.10654 0.75875 0.0
C323 C 0.53794 0.09982 0.77116 0.0
C324 C 0.52574 0.11032 0.75248 0.0
C325 C 0.53163 0.1261 0.74433 0.0
C326 C 0.50541 0.09804 0.75451 0.0
C327 C 0.49141 0.10141 0.74856 0.0
C328 C 0.49728 0.11709 0.74032 0.0
C329 C 0.58989 0.1099 0.75133 0.0
C330 C 0.60857 0.12072 0.75707 0.0
C331 C 0.58873 0.10308 0.739 0.0
C332 C 0.60587 0.10694 0.73257 0.0
C333 C 0.62458 0.11797 0.73826 0.0
C334 C 0.62573 0.12484 0.75058 0.0
C335 C 0.51762 0.1294 0.73831 0.0
H336 H 0.57295 0.08765 0.81648 0.0
H337 H 0.57893 0.10187 0.79568 0.0
H338 H 0.516 0.07096 0.78823 0.0
H339 H 0.51021 0.0578 0.8093 0.0
H340 H 0.57905 0.09561 0.77465 0.0
H341 H 0.52532 0.09818 0.7763 0.0
H342 H 0.55991 0.11462 0.74277 0.0
H343 H 0.54713 0.13604 0.74264 0.0
H344 H 0.50023 0.0856 0.76059 0.0
H345 H 0.47595 0.09175 0.75052 0.0
H346 H 0.60993 0.12627 0.76653 0.0
H347 H 0.57454 0.09462 0.73435 0.0
H348 H 0.52276 0.1415 0.73195 0.0
H349 H 0.63991 0.13324 0.75524 0.0
H350 H 0.60452 0.10153 0.72308 0.0
C351 C 0.80187 0.57341 0.8685 0.0
C352 C 0.79616 0.58654 0.86411 0.0
C353 C 0.79751 0.56631 0.88071 0.0
C354 C 0.78757 0.57237 0.88895 0.0
C355 C 0.78162 0.58532 0.88445 0.0
C356 C 0.78576 0.59221 0.87217 0.0
C357 C 0.78397 0.56565 0.90223 0.0
C358 C 0.79803 0.56289 0.90881 0.0
C359 C 0.79506 0.55687 0.92133 0.0
C360 C 0.77786 0.5538 0.9274 0.0
C361 C 0.76344 0.55625 0.92105 0.0
C362 C 0.76664 0.56214 0.90845 0.0
C363 C 0.74503 0.55256 0.92758 0.0
C364 C 0.73556 0.53702 0.93597 0.0
C365 C 0.73688 0.56463 0.92561 0.0
C366 C 0.71982 0.56132 0.9319 0.0
C367 C 0.71045 0.54588 0.94037 0.0
C368 C 0.80988 0.55361 0.92803 0.0
C369 C 0.81734 0.5426 0.92237 0.0
C370 C 0.81658 0.56134 0.9401 0.0
C371 C 0.83056 0.55823 0.94634 0.0
C372 C 0.83789 0.54708 0.94072 0.0
C373 C 0.83108 0.53926 0.92868 0.0
C374 C 0.71856 0.53376 0.94229 0.0
H375 H 0.80966 0.56855 0.86245 0.0
H376 H 0.80193 0.55601 0.88366 0.0
H377 H 0.77421 0.59058 0.89051 0.0
H378 H 0.78132 0.60245 0.86909 0.0
H379 H 0.81165 0.5659 0.90432 0.0
H380 H 0.75538 0.56354 0.90339 0.0
H381 H 0.7757 0.54939 0.93711 0.0
H382 H 0.74121 0.52724 0.93761 0.0
H383 H 0.74384 0.57684 0.91932 0.0
H384 H 0.71389 0.57081 0.93003 0.0
H385 H 0.81234 0.53635 0.91311 0.0
H386 H 0.81118 0.56998 0.94466 0.0
H387 H 0.71193 0.52186 0.94882 0.0
H388 H 0.83658 0.53074 0.92407 0.0
H389 H 0.83545 0.56436 0.95564 0.0
C390 C 0.37764 0.17462 0.8777 0.0
C391 C 0.3834 0.18987 0.86914 0.0
C392 C 0.38462 0.17846 0.89006 0.0
C393 C 0.39758 0.19763 0.89414 0.0
C394 C 0.40354 0.21282 0.88552 0.0
C395 C 0.39648 0.209 0.87321 0.0
C396 C 0.40479 0.20188 0.90733 0.0
C397 C 0.4101 0.18969 0.91368 0.0
C398 C 0.41723 0.19385 0.92609 0.0
C399 C 0.41933 0.21064 0.93203 0.0
C400 C 0.41432 0.22314 0.9258 0.0
C401 C 0.40673 0.2184 0.91354 0.0
C402 C 0.41773 0.24149 0.9319 0.0
C403 C 0.41479 0.24231 0.94483 0.0
C404 C 0.42467 0.25859 0.92488 0.0
C405 C 0.42873 0.27605 0.93065 0.0
C406 C 0.42624 0.27689 0.94358 0.0
C407 C 0.42277 0.18083 0.93278 0.0
C408 C 0.41163 0.16053 0.93109 0.0
C409 C 0.43919 0.18858 0.94097 0.0
C410 C 0.44423 0.17635 0.94736 0.0
C411 C 0.43317 0.15614 0.94554 0.0
C412 C 0.41687 0.14834 0.93733 0.0
C413 C 0.41916 0.25986 0.95062 0.0
H414 H 0.36777 0.15969 0.87485 0.0
H415 H 0.37961 0.16643 0.89647 0.0
H416 H 0.41375 0.22772 0.88827 0.0
H417 H 0.40105 0.22114 0.86694 0.0
H418 H 0.40923 0.17727 0.90883 0.0
H419 H 0.40212 0.22755 0.90883 0.0
H420 H 0.42506 0.2141 0.94151 0.0
H421 H 0.40912 0.22939 0.9505 0.0
H422 H 0.4275 0.25866 0.91497 0.0
H423 H 0.43441 0.28905 0.92504 0.0
H424 H 0.3987 0.15401 0.92504 0.0
H425 H 0.44839 0.20413 0.94232 0.0
H426 H 0.41695 0.26013 0.9606 0.0
H427 H 0.40802 0.13276 0.93586 0.0
H428 H 0.45704 0.18272 0.95351 0.0
C429 C 0.78502 0.18576 0.87091 0.0
C430 C 0.80385 0.1884 0.86836 0.0
C431 C 0.78047 0.18951 0.88288 0.0
C432 C 0.7947 0.19617 0.89252 0.0
C433 C 0.81336 0.19843 0.89009 0.0
C434 C 0.81784 0.19447 0.87817 0.0
C435 C 0.79042 0.20172 0.9049 0.0
C436 C 0.77271 0.18941 0.91107 0.0
C437 C 0.76818 0.19506 0.92255 0.0
C438 C 0.78164 0.21344 0.92765 0.0
C439 C 0.79957 0.22566 0.92172 0.0
C440 C 0.8039 0.21968 0.91039 0.0
C441 C 0.81381 0.24476 0.92734 0.0
C442 C 0.80753 0.25766 0.9313 0.0
C443 C 0.83376 0.25014 0.92881 0.0
C444 C 0.84717 0.26804 0.93427 0.0
C445 C 0.84097 0.28108 0.93821 0.0
C446 C 0.74959 0.18178 0.92927 0.0
C447 C 0.73211 0.16928 0.9226 0.0
C448 C 0.74918 0.18138 0.94246 0.0
C449 C 0.73178 0.16901 0.94877 0.0
C450 C 0.71454 0.15644 0.94205 0.0
C451 C 0.71484 0.15661 0.92893 0.0
C452 C 0.82098 0.27568 0.9366 0.0
H453 H 0.77394 0.18138 0.86358 0.0
H454 H 0.76603 0.18784 0.88447 0.0
H455 H 0.82452 0.20332 0.8974 0.0
H456 H 0.83233 0.19624 0.87666 0.0
H457 H 0.76273 0.17526 0.90702 0.0
H458 H 0.81753 0.22933 0.90562 0.0
H459 H 0.77828 0.21829 0.93631 0.0
H460 H 0.79225 0.25393 0.93013 0.0
H461 H 0.83891 0.24034 0.92595 0.0
H462 H 0.86233 0.27149 0.93556 0.0
H463 H 0.73164 0.16938 0.91248 0.0
H464 H 0.76236 0.19039 0.94796 0.0
H465 H 0.81571 0.28546 0.93928 0.0
H466 H 0.70162 0.14711 0.92357 0.0
H467 H 0.7319 0.16896 0.9589 0.0
C468 C 0.61198 0.8184 0.13954 0.0
C469 C 0.62749 0.81494 0.14262 0.0
C470 C 0.60435 0.81522 0.12733 0.0
C471 C 0.61193 0.80833 0.11798 0.0
C472 C 0.62769 0.8053 0.12095 0.0
C473 C 0.63546 0.80867 0.1331 0.0
C474 C 0.6028 0.80339 0.10531 0.0
C475 C 0.59873 0.81636 0.09882 0.0
C476 C 0.58974 0.81145 0.08689 0.0
C477 C 0.5843 0.79312 0.0817 0.0
C478 C 0.58836 0.78012 0.08806 0.0
C479 C 0.59781 0.7854 0.09977 0.0
C480 C 0.58255 0.76092 0.08248 0.0
C481 C 0.56274 0.7481 0.07921 0.0
C482 C 0.59676 0.75539 0.08034 0.0
C483 C 0.59129 0.73737 0.07481 0.0
C484 C 0.57146 0.72448 0.07162 0.0
C485 C 0.58626 0.82544 0.0797 0.0
C486 C 0.57913 0.83654 0.08562 0.0
C487 C 0.5899 0.82763 0.06677 0.0
C488 C 0.58626 0.84042 0.05989 0.0
C489 C 0.57896 0.85139 0.06577 0.0
C490 C 0.57552 0.84938 0.07873 0.0
C491 C 0.5572 0.72991 0.07394 0.0
H492 H 0.60528 0.82298 0.14663 0.0
H493 H 0.59207 0.8175 0.12531 0.0
H494 H 0.63399 0.80024 0.11387 0.0
H495 H 0.64771 0.8063 0.13503 0.0
H496 H 0.60305 0.83047 0.10293 0.0
H497 H 0.60068 0.77519 0.10475 0.0
H498 H 0.57694 0.78892 0.07265 0.0
H499 H 0.55156 0.75209 0.08083 0.0
H500 H 0.61213 0.76513 0.08277 0.0
H501 H 0.60249 0.73341 0.07313 0.0
H502 H 0.57596 0.83503 0.09554 0.0
H503 H 0.59575 0.81957 0.06197 0.0
H504 H 0.54184 0.72018 0.0715 0.0
H505 H 0.56966 0.85746 0.08351 0.0
H506 H 0.58939 0.84189 0.04997 0.0
C507 C 0.2109 0.8249 0.13491 0.0
C508 C 0.20695 0.81214 0.14493 0.0
C509 C 0.21512 0.8204 0.12305 0.0
C510 C 0.21505 0.80288 0.12098 0.0
C511 C 0.21114 0.79015 0.13101 0.0
C512 C 0.20731 0.79482 0.14291 0.0
C513 C 0.21858 0.79758 0.10833 0.0
C514 C 0.23553 0.81037 0.10166 0.0
C515 C 0.2392 0.80503 0.08984 0.0
C516 C 0.22547 0.78686 0.08465 0.0
C517 C 0.20816 0.77407 0.09106 0.0
C518 C 0.20495 0.77956 0.10297 0.0
C519 C 0.19338 0.75513 0.08527 0.0
C520 C 0.18951 0.75361 0.07231 0.0
C521 C 0.18293 0.73842 0.09263 0.0
C522 C 0.16894 0.72073 0.08718 0.0
C523 C 0.16533 0.71928 0.07423 0.0
C524 C 0.25742 0.81828 0.0829 0.0
C525 C 0.26396 0.83826 0.08216 0.0
C526 C 0.2683 0.81095 0.07684 0.0
C527 C 0.28528 0.82329 0.07016 0.0
C528 C 0.29179 0.84326 0.06937 0.0
C529 C 0.28092 0.85061 0.07543 0.0
C530 C 0.17577 0.73586 0.06684 0.0
H531 H 0.21077 0.83837 0.13626 0.0
H532 H 0.21803 0.8304 0.11544 0.0
H533 H 0.21108 0.77659 0.12964 0.0
H534 H 0.2042 0.7847 0.15047 0.0
H535 H 0.24615 0.8242 0.10586 0.0
H536 H 0.19159 0.77005 0.108 0.0
H537 H 0.22829 0.78272 0.07555 0.0
H538 H 0.1969 0.7662 0.06636 0.0
H539 H 0.18572 0.7389 0.1026 0.0
H540 H 0.1612 0.70809 0.09305 0.0
H541 H 0.25581 0.84431 0.08665 0.0
H542 H 0.26377 0.79566 0.07734 0.0
H543 H 0.17306 0.73516 0.05685 0.0
H544 H 0.28566 0.86596 0.07511 0.0
H545 H 0.29323 0.81715 0.06552 0.0
C546 C 0.22665 0.424 0.14152 0.0
C547 C 0.20725 0.4116 0.14552 0.0
C548 C 0.23028 0.43157 0.1294 0.0
C549 C 0.21459 0.42664 0.12088 0.0
C550 C 0.19517 0.41411 0.12495 0.0
C551 C 0.19156 0.40685 0.13714 0.0
C552 C 0.2184 0.43429 0.1078 0.0
C553 C 0.23541 0.43738 0.10137 0.0
C554 C 0.2388 0.44408 0.08898 0.0
C555 C 0.22484 0.44748 0.08291 0.0
C556 C 0.20783 0.4447 0.08913 0.0
C557 C 0.20489 0.4383 0.1016 0.0
C558 C 0.19311 0.44843 0.0826 0.0
C559 C 0.19926 0.46426 0.07448 0.0
C560 C 0.17273 0.43609 0.0844 0.0
C561 C 0.15891 0.4395 0.07826 0.0
C562 C 0.16505 0.45529 0.07009 0.0
C563 C 0.257 0.44764 0.08238 0.0
C564 C 0.27561 0.45854 0.08818 0.0
C565 C 0.25594 0.4405 0.07015 0.0
C566 C 0.27312 0.44415 0.06388 0.0
C567 C 0.29176 0.45527 0.06962 0.0
C568 C 0.29281 0.46244 0.08184 0.0
C569 C 0.18543 0.46762 0.06829 0.0
H570 H 0.23902 0.42803 0.14783 0.0
H571 H 0.2454 0.44145 0.12678 0.0
H572 H 0.18268 0.40955 0.11867 0.0
H573 H 0.17646 0.39712 0.13993 0.0
H574 H 0.24586 0.43408 0.10583 0.0
H575 H 0.19218 0.43681 0.10657 0.0
H576 H 0.2273 0.45235 0.0733 0.0
H577 H 0.21481 0.47422 0.07296 0.0
H578 H 0.16741 0.42363 0.09046 0.0
H579 H 0.14338 0.42983 0.08003 0.0
H580 H 0.27689 0.46433 0.09756 0.0
H581 H 0.24179 0.43196 0.06547 0.0
H582 H 0.19074 0.4798 0.06197 0.0
H583 H 0.30695 0.47092 0.08654 0.0
H584 H 0.27185 0.43852 0.05445 0.0
C585 C 0.4629 0.90343 0.20363 0.0
C586 C 0.46242 0.92046 0.20078 0.0
C587 C 0.45906 0.896 0.2158 0.0
C588 C 0.45429 0.90525 0.22531 0.0
C589 C 0.45345 0.92206 0.22239 0.0
C590 C 0.45762 0.92966 0.21029 0.0
C591 C 0.45062 0.8977 0.23832 0.0
C592 C 0.46391 0.89322 0.24428 0.0
C593 C 0.46119 0.88715 0.2568 0.0
C594 C 0.44466 0.88515 0.26328 0.0
C595 C 0.43085 0.88907 0.2574 0.0
C596 C 0.43412 0.89549 0.24492 0.0
C597 C 0.41303 0.88641 0.26425 0.0
C598 C 0.40284 0.87074 0.27245 0.0
C599 C 0.40591 0.89939 0.26255 0.0
C600 C 0.38902 0.8967 0.26877 0.0
C601 C 0.3788 0.88101 0.27696 0.0
C602 C 0.47586 0.88329 0.26319 0.0
C603 C 0.48272 0.87192 0.25732 0.0
C604 C 0.48331 0.89119 0.27513 0.0
C605 C 0.49747 0.88797 0.28101 0.0
C606 C 0.5043 0.87655 0.27516 0.0
C607 C 0.49667 0.86847 0.26328 0.0
C608 C 0.38601 0.8681 0.27873 0.0
H609 H 0.46665 0.89608 0.1965 0.0
H610 H 0.45973 0.88298 0.21776 0.0
H611 H 0.44996 0.92957 0.22954 0.0
H612 H 0.45702 0.94273 0.20836 0.0
H613 H 0.47683 0.89519 0.23931 0.0
H614 H 0.42358 0.89841 0.24019 0.0
H615 H 0.44259 0.88056 0.27295 0.0
H616 H 0.40769 0.86028 0.27391 0.0
H617 H 0.41345 0.91177 0.25645 0.0
H618 H 0.38384 0.90683 0.26701 0.0
H619 H 0.47718 0.86556 0.24815 0.0
H620 H 0.47842 0.90013 0.27985 0.0
H621 H 0.37873 0.85599 0.28506 0.0
H622 H 0.50175 0.85973 0.25849 0.0
H623 H 0.50297 0.89429 0.29019 0.0
C624 C 0.03916 0.5088 0.21094 0.0
C625 C 0.04838 0.52139 0.2009 0.0
C626 C 0.04776 0.51348 0.2229 0.0
C627 C 0.06546 0.53102 0.22502 0.0
C628 C 0.07457 0.54366 0.21499 0.0
C629 C 0.0662 0.5388 0.20301 0.0
C630 C 0.07457 0.53623 0.23763 0.0
C631 C 0.07908 0.52357 0.24407 0.0
C632 C 0.08902 0.5291 0.25566 0.0
C633 C 0.09393 0.54724 0.26093 0.0
C634 C 0.08904 0.55987 0.25475 0.0
C635 C 0.07947 0.55426 0.24304 0.0
C636 C 0.09405 0.57893 0.2605 0.0
C637 C 0.09227 0.58064 0.27347 0.0
C638 C 0.1007 0.59558 0.25308 0.0
C639 C 0.10542 0.61347 0.2585 0.0
C640 C 0.10379 0.61522 0.27148 0.0
C641 C 0.09488 0.51626 0.26209 0.0
C642 C 0.08134 0.49637 0.26347 0.0
C643 C 0.11418 0.52384 0.26681 0.0
C644 C 0.11988 0.51175 0.27272 0.0
C645 C 0.10635 0.49182 0.27414 0.0
C646 C 0.08698 0.48429 0.26949 0.0
C647 C 0.09716 0.59857 0.2789 0.0
H648 H 0.02542 0.49527 0.2095 0.0
H649 H 0.04048 0.50355 0.23052 0.0
H650 H 0.08829 0.55721 0.21641 0.0
H651 H 0.07351 0.54877 0.19541 0.0
H652 H 0.07559 0.50977 0.2398 0.0
H653 H 0.07549 0.56375 0.23815 0.0
H654 H 0.1017 0.55154 0.26984 0.0
H655 H 0.08694 0.56809 0.27946 0.0
H656 H 0.10249 0.59488 0.24309 0.0
H657 H 0.11021 0.6259 0.25246 0.0
H658 H 0.06631 0.4902 0.26002 0.0
H659 H 0.125 0.53908 0.26571 0.0
H660 H 0.09597 0.59938 0.28895 0.0
H661 H 0.07607 0.46909 0.2706 0.0
H662 H 0.13501 0.518 0.27596 0.0
C663 C 0.44473 0.52123 0.20403 0.0
C664 C 0.46333 0.52346 0.20125 0.0
C665 C 0.44036 0.5244 0.21622 0.0
C666 C 0.45456 0.53004 0.22583 0.0
C667 C 0.47296 0.53185 0.22313 0.0
C668 C 0.47725 0.52849 0.21101 0.0
C669 C 0.45061 0.5348 0.23855 0.0
C670 C 0.43297 0.52226 0.24475 0.0
C671 C 0.42965 0.52666 0.25695 0.0
C672 C 0.4438 0.54409 0.26274 0.0
C673 C 0.46132 0.55685 0.25659 0.0
C674 C 0.46472 0.55202 0.24458 0.0
C675 C 0.47603 0.57533 0.26268 0.0
C676 C 0.47018 0.58796 0.2678 0.0
C677 C 0.49602 0.58053 0.2633 0.0
C678 C 0.50991 0.59803 0.26899 0.0
C679 C 0.50416 0.61087 0.27403 0.0
C680 C 0.41177 0.51283 0.26389 0.0
C681 C 0.3929 0.50488 0.2584 0.0
C682 C 0.41355 0.50756 0.27615 0.0
C683 C 0.39682 0.49451 0.28278 0.0
C684 C 0.37793 0.48666 0.27734 0.0
C685 C 0.37611 0.49204 0.26511 0.0
C686 C 0.48409 0.6056 0.27332 0.0
H687 H 0.43371 0.51758 0.19675 0.0
H688 H 0.4261 0.52304 0.21803 0.0
H689 H 0.48407 0.53588 0.23041 0.0
H690 H 0.49153 0.52985 0.20932 0.0
H691 H 0.42219 0.50875 0.24026 0.0
H692 H 0.47819 0.56196 0.23977 0.0
H693 H 0.44124 0.54767 0.27209 0.0
H694 H 0.45487 0.58436 0.26731 0.0
H695 H 0.50085 0.57092 0.25952 0.0
H696 H 0.52511 0.60135 0.26956 0.0
H697 H 0.39113 0.50878 0.24898 0.0
H698 H 0.42794 0.51336 0.28057 0.0
H699 H 0.47912 0.61522 0.27684 0.0
H700 H 0.36172 0.48607 0.26068 0.0
H701 H 0.39864 0.49069 0.29221 0.0
Eu702 Eu 0.49389 0.98765 0.98996 0.0
C703 C 0.53515 0.05923 0.02491 0.0
C704 C 0.56979 0.07092 0.02119 0.0
C705 C 0.55895 0.09376 0.02689 0.0
C706 C 0.55005 0.05558 0.02165 0.0
C707 C 0.53949 0.07828 0.02798 0.0
C708 C 0.57408 0.09009 0.02348 0.0
C709 C 0.50566 0.06493 0.03452 0.0
N710 N 0.51662 0.04391 0.02606 0.0
C711 C 0.50215 0.04632 0.03144 0.0
C712 C 0.52432 0.08104 0.03256 0.0
Eu713 Eu 0.51155 0.01278 0.02053 0.0
N714 N 0.54539 0.03688 0.01966 0.0
C715 C 0.55993 0.03233 0.01799 0.0
C716 C 0.58466 0.06644 0.01882 0.0
C717 C 0.57973 0.04703 0.01741 0.0
H718 H 0.48774 0.03386 0.03302 0.0
H719 H 0.59114 0.04337 0.01578 0.0
H720 H 0.58911 0.10209 0.02302 0.0
H721 H 0.49398 0.06683 0.03843 0.0
H722 H 0.55632 0.01743 0.01675 0.0
H723 H 0.44789 0.00044 0.95722 0.0
H724 H 0.6 0.07779 0.01834 0.0
H725 H 0.48292 0.94531 0.00392 0.0
H726 H 0.47899 0.006 0.9672 0.0
H727 H 0.45402 0.91337 0.00785 0.0
H728 H 0.56255 0.10854 0.02905 0.0
H729 H 0.41608 0.97198 0.96329 0.0
H730 H 0.3983 0.94073 0.97522 0.0
H731 H 0.52705 0.09544 0.03504 0.0
H732 H 0.40012 0.91664 0.98871 0.0
N733 N 0.46464 0.98238 0.97967 0.0
C734 C 0.46506 0.99403 0.97019 0.0
C735 C 0.42963 0.97467 0.96786 0.0
C736 C 0.42962 0.96159 0.97658 0.0
C737 C 0.44754 0.99074 0.96442 0.0
C738 C 0.44769 0.96577 0.98224 0.0
H739 H 0.42093 0.906 1.00048 0.0
N740 N 0.46671 0.95629 0.9942 0.0
C741 C 0.45231 0.92417 0.00274 0.0
C742 C 0.44878 0.95218 0.98964 0.0
C743 C 0.46875 0.94241 1.00044 0.0
C744 C 0.43366 0.92008 0.9986 0.0
C745 C 0.43172 0.93407 0.99184 0.0
O746 O 0.49746 0.96682 0.97832 0.0
O747 O 0.52008 0.0097 1.0011 0.0
O748 O 0.50138 0.03016 0.00884 0.0
O749 O 0.48221 0.00866 0.99257 0.0
O750 O 0.515 0.01801 0.98362 0.0
O751 O 0.50687 0.99546 0.97133 0.0
O752 O 0.49636 0.00222 0.03842 0.0
O753 O 0.48826 0.9862 0.01048 0.0
O754 O 0.51155 0.97532 0.99905 0.0
O755 O 0.52211 0.99112 0.01841 0.0
O756 O 0.47889 0.00085 0.02241 0.0
O757 O 0.52684 0.01023 0.03702 0.0
C758 C 0.5266 0.02337 0.99324 0.0
C759 C 0.49449 0.97004 0.95628 0.0
C760 C 0.49334 0.97387 0.9336 0.0
C761 C 0.50135 0.98168 0.94549 0.0
C762 C 0.4783 0.95437 0.93258 0.0
C763 C 0.47921 0.95062 0.95502 0.0
C764 C 0.4712 0.9429 0.94324 0.0
C765 C 0.48881 0.02498 0.99924 0.0
C766 C 0.50373 0.97818 0.96865 0.0
C767 C 0.41342 0.93034 0.98696 0.0
C768 C 0.41237 0.94408 0.97932 0.0
C769 C 0.47324 0.9861 0.015 0.0
C770 C 0.5158 0.01434 0.05676 0.0
C771 C 0.51035 0.00334 0.06782 0.0
C772 C 0.5137 0.01258 0.07966 0.0
C773 C 0.52231 0.03299 0.0801 0.0
C774 C 0.52483 0.03463 0.05756 0.0
C775 C 0.52792 0.04386 0.06916 0.0
C776 C 0.52075 0.97827 0.00996 0.0
C777 C 0.51187 0.00454 0.04444 0.0
H778 H 0.51314 0.99667 0.9463 0.0
H779 H 0.47193 0.94806 0.92353 0.0
H780 H 0.4735 0.94133 0.9631 0.0
H781 H 0.4595 0.92791 0.94235 0.0
H782 H 0.50378 0.98769 0.06716 0.0
H783 H 0.5246 0.04064 0.08892 0.0
H784 H 0.52949 0.04337 0.04923 0.0
H785 H 0.53466 0.05953 0.06967 0.0
Eu786 Eu 0.01914 0.50729 0.99201 0.0
C787 C 0.93689 0.47436 0.01773 0.0
C788 C 0.92749 0.4989 0.01486 0.0
C789 C 0.90216 0.46485 0.01622 0.0
C790 C 0.94216 0.49361 0.01613 0.0
C791 C 0.91682 0.45981 0.01813 0.0
C792 C 0.90749 0.48437 0.01457 0.0
C793 C 0.92723 0.43674 0.02353 0.0
N794 N 0.95141 0.47003 0.01972 0.0
C795 C 0.94691 0.45169 0.02308 0.0
C796 C 0.91211 0.44075 0.02087 0.0
Eu797 Eu 0.98435 0.49596 0.01848 0.0
N798 N 0.9616 0.50729 0.0166 0.0
C799 C 0.96732 0.5266 0.01682 0.0
C800 C 0.93334 0.51866 0.01431 0.0
C801 C 0.95333 0.53257 0.01551 0.0
H802 H 0.95857 0.44852 0.02508 0.0
H803 H 0.95799 0.5479 0.01535 0.0
H804 H 0.89602 0.48813 0.01346 0.0
H805 H 0.92373 0.42213 0.0259 0.0
H806 H 0.98273 0.53749 0.01766 0.0
H807 H 0.04401 0.45412 0.99497 0.0
H808 H 0.92254 0.52332 0.01328 0.0
H809 H 0.04564 0.55458 0.98544 0.0
H810 H 0.01982 0.46518 0.9928 0.0
H811 H 0.08068 0.58049 0.98439 0.0
H812 H 0.88666 0.45386 0.01636 0.0
H813 H 0.07965 0.47814 0.99679 0.0
H814 H 0.1067 0.51311 0.99641 0.0
H815 H 0.89687 0.42915 0.02127 0.0
H816 H 0.11672 0.54755 0.99346 0.0
N817 N 0.04139 0.49528 0.99374 0.0
C818 C 0.03529 0.47587 0.99355 0.0
C819 C 0.06908 0.48311 0.99583 0.0
C820 C 0.07533 0.50296 0.99523 0.0
C821 C 0.04898 0.46951 0.99477 0.0
C822 C 0.06094 0.50864 0.99406 0.0
H823 H 0.10713 0.57276 0.98871 0.0
N824 N 0.05232 0.53265 0.99054 0.0
C825 C 0.07692 0.56579 0.9867 0.0
C826 C 0.06658 0.52796 0.99239 0.0
C827 C 0.05713 0.55111 0.98727 0.0
C828 C 0.09181 0.56138 0.98919 0.0
C829 C 0.08675 0.54221 0.99188 0.0
O830 O 0.01982 0.51795 0.97311 0.0
O831 O 0.99161 0.50575 0.9988 0.0
O832 O 0.9684 0.47368 0.00318 0.0
O833 O 0.99513 0.47516 0.99254 0.0
O834 O 0.0088 0.5288 0.98737 0.0
O835 O 0.01264 0.48811 0.97583 0.0
O836 O 0.98585 0.486 0.03722 0.0
O837 O 0.01211 0.49787 0.01176 0.0
O838 O 0.03503 0.52968 0.00728 0.0
O839 O 0.00839 0.5281 0.01813 0.0
O840 O 0.99487 0.47459 0.02305 0.0
O841 O 0.98762 0.51391 0.03491 0.0
C842 C 0.99254 0.52029 0.99351 0.0
C843 C 0.0287 0.50321 0.95715 0.0
C844 C 0.03309 0.50281 0.93459 0.0
C845 C 0.02161 0.50202 0.9449 0.0
C846 C 0.05186 0.50497 0.93672 0.0
C847 C 0.0475 0.50549 0.9591 0.0
C848 C 0.05902 0.50639 0.94891 0.0
C849 C 0.97603 0.46642 0.99523 0.0
C850 C 0.01614 0.50167 0.96774 0.0
C851 C 0.10114 0.53678 0.99369 0.0
C852 C 0.09544 0.51718 0.99537 0.0
C853 C 0.01124 0.48333 0.01703 0.0
C854 C 0.97311 0.49651 0.0534 0.0
C855 C 0.98051 0.49855 0.06563 0.0
C856 C 0.96779 0.49315 0.07597 0.0
C857 C 0.94748 0.48585 0.07378 0.0
C858 C 0.9529 0.48944 0.05144 0.0
C859 C 0.94017 0.48415 0.0616 0.0
C860 C 0.02746 0.53688 0.01534 0.0
C861 C 0.98654 0.50096 0.04281 0.0
H862 H 0.00699 0.50008 0.94342 0.0
H863 H 0.06105 0.50575 0.92895 0.0
H864 H 0.05321 0.50644 0.96846 0.0
H865 H 0.07351 0.50812 0.95047 0.0
H866 H 0.99623 0.5044 0.06702 0.0
H867 H 0.93714 0.48115 0.08143 0.0
H868 H 0.94695 0.48787 0.0421 0.0
H869 H 0.92455 0.47853 0.06002 0.0
Eu870 Eu 0.51223 0.49672 0.01964 0.0
C871 C 0.46656 0.53044 0.99035 0.0
C872 C 0.43211 0.50624 0.99277 0.0
C873 C 0.44167 0.54028 0.99059 0.0
C874 C 0.45214 0.51134 0.99209 0.0
C875 C 0.46145 0.54507 0.98919 0.0
C876 C 0.42702 0.52088 0.9924 0.0
C877 C 0.49537 0.56754 0.98386 0.0
N878 N 0.48543 0.53448 0.98881 0.0
C879 C 0.49963 0.55246 0.98498 0.0
C880 C 0.47626 0.5639 0.98618 0.0
Eu881 Eu 0.49193 0.50863 0.99157 0.0
N882 N 0.45758 0.49757 0.99224 0.0
C883 C 0.44356 0.47829 0.99198 0.0
C884 C 0.41776 0.48654 0.99336 0.0
C885 C 0.4235 0.4725 0.99272 0.0
H886 H 0.51441 0.55528 0.98316 0.0
H887 H 0.4125 0.45721 0.99289 0.0
H888 H 0.41174 0.51728 0.99307 0.0
H889 H 0.50681 0.58191 0.98119 0.0
H890 H 0.44775 0.46727 0.99159 0.0
H891 H 0.59132 0.54956 0.01885 0.0
H892 H 0.40222 0.48202 0.99395 0.0
H893 H 0.49002 0.4496 0.02674 0.0
H894 H 0.55586 0.53873 0.01967 0.0
H895 H 0.49845 0.4236 0.02915 0.0
H896 H 0.43748 0.55135 0.98989 0.0
H897 H 0.60244 0.52536 0.0184 0.0
H898 H 0.59374 0.49035 0.01958 0.0
H899 H 0.47295 0.57556 0.98521 0.0
H900 H 0.56846 0.45604 0.02246 0.0
N901 N 0.54673 0.50857 0.01932 0.0
C902 C 0.5604 0.52796 0.01952 0.0
C903 C 0.5868 0.52049 0.01876 0.0
C904 C 0.57278 0.50069 0.01937 0.0
C905 C 0.58058 0.53419 0.01905 0.0
C906 C 0.5526 0.49513 0.01975 0.0
H907 H 0.53294 0.43106 0.02629 0.0
N908 N 0.51933 0.4713 0.02236 0.0
C909 C 0.50983 0.43822 0.02689 0.0
C910 C 0.53844 0.47587 0.02133 0.0
C911 C 0.50512 0.45295 0.02556 0.0
C912 C 0.5293 0.44248 0.02523 0.0
C913 C 0.54396 0.46155 0.02261 0.0
O914 O 0.49991 0.48583 0.0381 0.0
O915 O 0.48737 0.49928 0.01148 0.0
O916 O 0.49958 0.53263 0.00571 0.0
O917 O 0.52117 0.52886 0.01924 0.0
O918 O 0.47966 0.47561 0.0228 0.0
O919 O 0.52395 0.51543 0.03616 0.0
O920 O 0.50546 0.51784 0.97322 0.0
O921 O 0.51671 0.50599 0.99976 0.0
O922 O 0.50589 0.47382 0.00484 0.0
O923 O 0.48241 0.47634 0.99261 0.0
O924 O 0.52456 0.52951 0.9883 0.0
O925 O 0.47816 0.49057 0.97492 0.0
C926 C 0.47293 0.48471 0.01632 0.0
C927 C 0.52178 0.49983 0.05526 0.0
C928 C 0.52388 0.50025 0.07806 0.0
C929 C 0.51474 0.50146 0.06699 0.0
C930 C 0.54008 0.4972 0.07721 0.0
C931 C 0.53788 0.49668 0.05458 0.0
C932 C 0.54694 0.49534 0.06552 0.0
C933 C 0.51301 0.53878 0.01477 0.0
C934 C 0.51242 0.50188 0.04388 0.0
C935 C 0.56394 0.46685 0.02163 0.0
C936 C 0.57832 0.48639 0.02 0.0
C937 C 0.53123 0.52048 0.99492 0.0
C938 C 0.48381 0.50759 0.95593 0.0
C939 C 0.48974 0.50449 0.94418 0.0
C940 C 0.48384 0.50987 0.93312 0.0
C941 C 0.47172 0.51827 0.93412 0.0
C942 C 0.47154 0.51572 0.95669 0.0
C943 C 0.46554 0.52103 0.94581 0.0
C944 C 0.49157 0.46692 0.99631 0.0
C945 C 0.49127 0.50303 0.9673 0.0
H946 H 0.50241 0.50409 0.06749 0.0
H947 H 0.54731 0.49609 0.08558 0.0
H948 H 0.5435 0.4954 0.04562 0.0
H949 H 0.55938 0.49294 0.06495 0.0
H950 H 0.49892 0.49784 0.94373 0.0
H951 H 0.46721 0.52302 0.9259 0.0
H952 H 0.46675 0.51812 0.96565 0.0
H953 H 0.45622 0.52749 0.94646 0.0
Eu954 Eu 0.15754 0.31785 0.32478 0.0
C955 C 0.20615 0.39309 0.35776 0.0
C956 C 0.23958 0.39882 0.35717 0.0
C957 C 0.23387 0.42611 0.35934 0.0
C958 C 0.219 0.38601 0.35665 0.0
C959 C 0.21341 0.41317 0.35945 0.0
C960 C 0.24695 0.41894 0.35818 0.0
C961 C 0.17978 0.40595 0.36243 0.0
N962 N 0.18652 0.38018 0.35797 0.0
C963 C 0.17333 0.38617 0.36072 0.0
C964 C 0.1999 0.41955 0.36161 0.0
Eu965 Eu 0.17648 0.34706 0.3544 0.0
N966 N 0.21136 0.36648 0.35582 0.0
C967 C 0.22347 0.35872 0.35657 0.0
C968 C 0.25211 0.39097 0.35709 0.0
C969 C 0.244 0.37082 0.35703 0.0
H970 H 0.15775 0.37568 0.36122 0.0
H971 H 0.25354 0.36458 0.35725 0.0
H972 H 0.26271 0.42902 0.35844 0.0
H973 H 0.16925 0.41068 0.36432 0.0
H974 H 0.21747 0.34319 0.35644 0.0
H975 H 0.07956 0.2973 0.32245 0.0
H976 H 0.26801 0.4003 0.35745 0.0
H977 H 0.17766 0.29092 0.31653 0.0
H978 H 0.11546 0.31978 0.32308 0.0
H979 H 0.16753 0.25628 0.31324 0.0
H980 H 0.23975 0.44161 0.36048 0.0
H981 H 0.0664 0.26176 0.32212 0.0
H982 H 0.07311 0.23395 0.32077 0.0
H983 H 0.20487 0.43485 0.36297 0.0
H984 H 0.09711 0.22273 0.31821 0.0
N985 N 0.12276 0.29729 0.32348 0.0
C986 C 0.11001 0.30434 0.32288 0.0
C987 C 0.08222 0.27158 0.32239 0.0
C988 C 0.09537 0.26447 0.32211 0.0
C989 C 0.08959 0.29162 0.32253 0.0
C990 C 0.11583 0.27789 0.32254 0.0
H991 H 0.13237 0.23098 0.31514 0.0
N992 N 0.14869 0.2851 0.32076 0.0
C993 C 0.15662 0.26036 0.31555 0.0
C994 C 0.12925 0.27158 0.32115 0.0
C995 C 0.16231 0.27993 0.31741 0.0
C996 C 0.13677 0.24612 0.31667 0.0
C997 C 0.12273 0.25168 0.31924 0.0
O998 O 0.17338 0.32296 0.30717 0.0
O999 O 0.1826 0.34278 0.3347 0.0
O1000 O 0.17376 0.36614 0.33975 0.0
O1001 O 0.15053 0.34247 0.32617 0.0
O1002 O 0.18979 0.32626 0.32322 0.0
O1003 O 0.14736 0.32579 0.30787 0.0
O1004 O 0.16332 0.34643 0.37255 0.0
O1005 O 0.15134 0.32227 0.34452 0.0
O1006 O 0.1612 0.29864 0.33877 0.0
O1007 O 0.18236 0.32165 0.35369 0.0
O1008 O 0.14431 0.33881 0.35611 0.0
O1009 O 0.1838 0.33574 0.37088 0.0
C1010 C 0.19682 0.34131 0.33051 0.0
C1011 C 0.15473 0.31622 0.28857 0.0
C1012 C 0.15631 0.3177 0.26574 0.0
C1013 C 0.1611 0.32711 0.27751 0.0
C1014 C 0.14486 0.29731 0.26518 0.0
C1015 C 0.14311 0.29591 0.2878 0.0
C1016 C 0.13819 0.28653 0.27615 0.0
C1017 C 0.1606 0.36059 0.33051 0.0
C1018 C 0.16104 0.32613 0.3008 0.0
C1019 C 0.10242 0.23811 0.31951 0.0
C1020 C 0.08876 0.2445 0.32096 0.0
C1021 C 0.13718 0.32376 0.34884 0.0
C1022 C 0.18247 0.34885 0.39043 0.0
C1023 C 0.17602 0.33831 0.40162 0.0
C1024 C 0.18562 0.34674 0.41308 0.0
C1025 C 0.20158 0.36593 0.41316 0.0
C1026 C 0.19836 0.36798 0.39075 0.0
C1027 C 0.20781 0.37646 0.40207 0.0
C1028 C 0.17335 0.304 0.34854 0.0
C1029 C 0.17307 0.33948 0.37844 0.0
H1030 H 0.17017 0.34281 0.27808 0.0
H1031 H 0.14091 0.28973 0.25624 0.0
H1032 H 0.13799 0.28731 0.29619 0.0
H1033 H 0.12929 0.27084 0.27562 0.0
H1034 H 0.16387 0.32344 0.40135 0.0
H1035 H 0.20914 0.37287 0.42183 0.0
H1036 H 0.20354 0.37627 0.38224 0.0
H1037 H 0.22009 0.39124 0.40225 0.0
Eu1038 Eu 0.68619 0.83652 0.3264 0.0
C1039 C 0.60402 0.80542 0.35226 0.0
C1040 C 0.59496 0.83006 0.34873 0.0
C1041 C 0.56937 0.79624 0.35081 0.0
C1042 C 0.60948 0.82462 0.35021 0.0
C1043 C 0.5839 0.79107 0.35292 0.0
C1044 C 0.57489 0.81571 0.3487 0.0
C1045 C 0.59403 0.76801 0.3589 0.0
N1046 N 0.61842 0.80099 0.35443 0.0
C1047 C 0.61377 0.78277 0.35817 0.0
C1048 C 0.57902 0.77211 0.35608 0.0
Eu1049 Eu 0.6515 0.82654 0.35269 0.0
N1050 N 0.62898 0.83813 0.35045 0.0
C1051 C 0.63491 0.85748 0.35022 0.0
C1052 C 0.60103 0.84983 0.34773 0.0
C1053 C 0.62108 0.86361 0.34869 0.0
H1054 H 0.62532 0.7795 0.36029 0.0
H1055 H 0.62592 0.87896 0.34817 0.0
H1056 H 0.56353 0.81958 0.34743 0.0
H1057 H 0.5904 0.75349 0.3616 0.0
H1058 H 0.65037 0.86828 0.35088 0.0
H1059 H 0.70937 0.7821 0.32963 0.0
H1060 H 0.59035 0.85461 0.34652 0.0
H1061 H 0.71377 0.88408 0.32063 0.0
H1062 H 0.68579 0.79387 0.32715 0.0
H1063 H 0.74904 0.90959 0.32054 0.0
H1064 H 0.55383 0.78539 0.35114 0.0
H1065 H 0.74509 0.80557 0.33195 0.0
H1066 H 0.77264 0.84034 0.33214 0.0
H1067 H 0.56373 0.76067 0.35669 0.0
H1068 H 0.78346 0.87504 0.32962 0.0
N1069 N 0.7078 0.82381 0.32831 0.0
C1070 C 0.70131 0.80432 0.32809 0.0
C1071 C 0.7348 0.81085 0.33083 0.0
C1072 C 0.74146 0.83079 0.33034 0.0
C1073 C 0.71465 0.79756 0.32949 0.0
C1074 C 0.72742 0.83688 0.32892 0.0
H1075 H 0.77479 0.90097 0.32511 0.0
N1076 N 0.71962 0.86151 0.32547 0.0
C1077 C 0.74488 0.89468 0.32255 0.0
C1078 C 0.73352 0.85635 0.32747 0.0
C1079 C 0.72496 0.88023 0.32255 0.0
C1080 C 0.75937 0.88977 0.32516 0.0
C1081 C 0.7538 0.87036 0.32747 0.0
O1082 O 0.68778 0.8475 0.3075 0.0
O1083 O 0.65876 0.83552 0.33287 0.0
O1084 O 0.63519 0.80367 0.33776 0.0
O1085 O 0.66161 0.8046 0.327 0.0
O1086 O 0.67632 0.85828 0.32135 0.0
O1087 O 0.67984 0.81741 0.3102 0.0
O1088 O 0.65346 0.81761 0.37166 0.0
O1089 O 0.67891 0.82746 0.34617 0.0
O1090 O 0.70221 0.85847 0.34185 0.0
O1091 O 0.67569 0.85859 0.35165 0.0
O1092 O 0.66125 0.80471 0.35769 0.0
O1093 O 0.65542 0.84547 0.3687 0.0
C1094 C 0.65991 0.84999 0.32733 0.0
C1095 C 0.69631 0.83243 0.29157 0.0
C1096 C 0.70082 0.83231 0.26901 0.0
C1097 C 0.68942 0.8317 0.27933 0.0
C1098 C 0.7193 0.83382 0.27114 0.0
C1099 C 0.71484 0.83407 0.29354 0.0
C1100 C 0.72628 0.83478 0.28335 0.0
C1101 C 0.64258 0.79609 0.32986 0.0
C1102 C 0.6838 0.83113 0.30213 0.0
C1103 C 0.76782 0.86448 0.32947 0.0
C1104 C 0.76166 0.84473 0.3309 0.0
C1105 C 0.67758 0.81283 0.35161 0.0
C1106 C 0.64141 0.82923 0.3876 0.0
C1107 C 0.64915 0.83175 0.39977 0.0
C1108 C 0.63676 0.82701 0.41025 0.0
C1109 C 0.61644 0.81989 0.40824 0.0
C1110 C 0.6212 0.82234 0.38582 0.0
C1111 C 0.6088 0.81772 0.39611 0.0
C1112 C 0.69482 0.86662 0.34925 0.0
C1113 C 0.65448 0.83295 0.3769 0.0
H1114 H 0.67501 0.83025 0.27784 0.0
H1115 H 0.72843 0.83444 0.26337 0.0
H1116 H 0.7204 0.83469 0.30291 0.0
H1117 H 0.74056 0.83603 0.28491 0.0
H1118 H 0.66487 0.83745 0.401 0.0
H1119 H 0.60634 0.81568 0.416 0.0
H1120 H 0.615 0.82037 0.37652 0.0
H1121 H 0.59317 0.81222 0.39468 0.0
Eu1122 Eu 0.17837 0.82966 0.35259 0.0
C1123 C 0.13034 0.86216 0.32461 0.0
C1124 C 0.09621 0.8374 0.3275 0.0
C1125 C 0.10488 0.87121 0.32541 0.0
C1126 C 0.11633 0.84295 0.32647 0.0
C1127 C 0.12473 0.87645 0.32366 0.0
C1128 C 0.09064 0.85171 0.32734 0.0
C1129 C 0.15824 0.89946 0.31784 0.0
N1130 N 0.14927 0.86663 0.32274 0.0
C1131 C 0.16301 0.88471 0.31878 0.0
C1132 C 0.13908 0.8954 0.3205 0.0
Eu1133 Eu 0.15669 0.84133 0.32517 0.0
N1134 N 0.12222 0.82952 0.3264 0.0
C1135 C 0.10854 0.81014 0.32623 0.0
C1136 C 0.08224 0.8176 0.3282 0.0
C1137 C 0.08842 0.8039 0.32732 0.0
H1138 H 0.17783 0.88787 0.3167 0.0
H1139 H 0.0777 0.78853 0.32755 0.0
H1140 H 0.07529 0.84775 0.32828 0.0
H1141 H 0.16933 0.91392 0.31506 0.0
H1142 H 0.11307 0.79938 0.32564 0.0
H1143 H 0.25706 0.88381 0.35181 0.0
H1144 H 0.06665 0.81273 0.32905 0.0
H1145 H 0.15717 0.7822 0.35868 0.0
H1146 H 0.22146 0.8722 0.35304 0.0
H1147 H 0.1664 0.75662 0.35995 0.0
H1148 H 0.10031 0.88202 0.32488 0.0
H1149 H 0.26889 0.86021 0.35026 0.0
H1150 H 0.26096 0.82539 0.35037 0.0
H1151 H 0.13538 0.9068 0.31968 0.0
H1152 H 0.23629 0.79074 0.35267 0.0
N1153 N 0.21297 0.84223 0.35188 0.0
C1154 C 0.22632 0.86169 0.35243 0.0
C1155 C 0.25319 0.855 0.35082 0.0
C1156 C 0.23951 0.83508 0.35106 0.0
C1157 C 0.24658 0.86836 0.35173 0.0
C1158 C 0.21924 0.82908 0.35172 0.0
H1159 H 0.20104 0.765 0.35651 0.0
N1160 N 0.18621 0.80458 0.35434 0.0
C1161 C 0.1775 0.77146 0.35794 0.0
C1162 C 0.20541 0.80963 0.35299 0.0
C1163 C 0.17234 0.78595 0.35725 0.0
C1164 C 0.19706 0.77624 0.35595 0.0
C1165 C 0.21137 0.79557 0.35364 0.0
O1166 O 0.16715 0.81795 0.37111 0.0
O1167 O 0.15289 0.83176 0.34505 0.0
O1168 O 0.16455 0.86529 0.3394 0.0
O1169 O 0.1865 0.86158 0.35267 0.0
O1170 O 0.14601 0.80799 0.35608 0.0
O1171 O 0.19019 0.84803 0.36925 0.0
O1172 O 0.1697 0.8507 0.30671 0.0
O1173 O 0.18218 0.83944 0.33286 0.0
O1174 O 0.17272 0.80771 0.33728 0.0
O1175 O 0.14794 0.80921 0.32595 0.0
O1176 O 0.18906 0.86293 0.32157 0.0
O1177 O 0.14261 0.82329 0.30855 0.0
C1178 C 0.13878 0.81697 0.34995 0.0
C1179 C 0.18978 0.83219 0.3879 0.0
C1180 C 0.19371 0.83283 0.41059 0.0
C1181 C 0.1836 0.83378 0.39993 0.0
C1182 C 0.21001 0.83009 0.40904 0.0
C1183 C 0.206 0.82936 0.38652 0.0
C1184 C 0.21603 0.82828 0.39706 0.0
C1185 C 0.17809 0.87141 0.34841 0.0
C1186 C 0.17946 0.83403 0.37694 0.0
C1187 C 0.23143 0.80134 0.35234 0.0
C1188 C 0.24548 0.82107 0.35104 0.0
C1189 C 0.19632 0.85422 0.32798 0.0
C1190 C 0.14776 0.84024 0.28957 0.0
C1191 C 0.1536 0.83722 0.27777 0.0
C1192 C 0.14751 0.84253 0.26676 0.0
C1193 C 0.13525 0.85077 0.26787 0.0
C1194 C 0.13537 0.84823 0.29044 0.0
C1195 C 0.12915 0.85344 0.27962 0.0
C1196 C 0.15804 0.80046 0.32901 0.0
C1197 C 0.1555 0.83581 0.30086 0.0
H1198 H 0.17118 0.83617 0.40097 0.0
H1199 H 0.21799 0.82918 0.41709 0.0
H1200 H 0.21098 0.82812 0.37734 0.0
H1201 H 0.22856 0.82612 0.39594 0.0
H1202 H 0.16288 0.83069 0.27724 0.0
H1203 H 0.13058 0.85546 0.2597 0.0
H1204 H 0.13067 0.85059 0.29945 0.0
H1205 H 0.11974 0.85979 0.28034 0.0
Eu1206 Eu 0.82378 0.6536 0.65479 0.0
C1207 C 0.86695 0.72621 0.69039 0.0
C1208 C 0.90157 0.74046 0.68551 0.0
C1209 C 0.88878 0.76114 0.6926 0.0
C1210 C 0.88241 0.72414 0.68623 0.0
C1211 C 0.87002 0.74466 0.69398 0.0
C1212 C 0.90455 0.75905 0.68836 0.0
C1213 C 0.83651 0.72882 0.70147 0.0
N1214 N 0.84918 0.70994 0.6918 0.0
C1215 C 0.8343 0.71087 0.69785 0.0
C1216 C 0.85435 0.74585 0.69933 0.0
Eu1217 Eu 0.84582 0.67988 0.68492 0.0
N1218 N 0.87899 0.70595 0.68376 0.0
C1219 C 0.89444 0.70293 0.68145 0.0
C1220 C 0.91725 0.73753 0.6824 0.0
C1221 C 0.9137 0.71864 0.68057 0.0
H1222 H 0.82048 0.6978 0.69961 0.0
H1223 H 0.92578 0.71615 0.67842 0.0
H1224 H 0.9191 0.77179 0.68771 0.0
H1225 H 0.82448 0.7295 0.70593 0.0
H1226 H 0.89204 0.68846 0.67999 0.0
H1227 H 0.79234 0.68017 0.61973 0.0
H1228 H 0.93217 0.74967 0.68173 0.0
H1229 H 0.80251 0.60802 0.66624 0.0
H1230 H 0.81882 0.67843 0.63144 0.0
H1231 H 0.76945 0.57951 0.66847 0.0
H1232 H 0.89139 0.77546 0.69518 0.0
H1233 H 0.75731 0.65614 0.62379 0.0
H1234 H 0.73268 0.62533 0.63451 0.0
H1235 H 0.8561 0.75973 0.70222 0.0
H1236 H 0.72646 0.59757 0.64773 0.0
N1237 N 0.79894 0.6548 0.64265 0.0
C1238 C 0.80356 0.66816 0.63341 0.0
C1239 C 0.76887 0.65554 0.62906 0.0
C1240 C 0.76436 0.64068 0.63765 0.0
C1241 C 0.78861 0.66909 0.62672 0.0
C1242 C 0.77999 0.64061 0.64425 0.0
H1243 H 0.74017 0.58005 0.66011 0.0
N1244 N 0.79233 0.62504 0.65686 0.0
C1245 C 0.77121 0.59229 0.66375 0.0
C1246 C 0.77657 0.6251 0.65158 0.0
C1247 C 0.79001 0.60861 0.66248 0.0
C1248 C 0.75472 0.59267 0.65906 0.0
C1249 C 0.7573 0.60906 0.65265 0.0
O1250 O 0.82493 0.63004 0.6448 0.0
O1251 O 0.8511 0.67571 0.665 0.0
O1252 O 0.83428 0.69691 0.67407 0.0
O1253 O 0.81286 0.67496 0.65853 0.0
O1254 O 0.84563 0.68326 0.64747 0.0
O1255 O 0.84053 0.65889 0.63746 0.0
O1256 O 0.8332 0.66802 0.70329 0.0
O1257 O 0.82102 0.65357 0.67549 0.0
O1258 O 0.8339 0.63683 0.66711 0.0
O1259 O 0.8591 0.6616 0.67858 0.0
O1260 O 0.81353 0.66728 0.68927 0.0
O1261 O 0.86287 0.6751 0.69932 0.0
C1262 C 0.85747 0.68904 0.65696 0.0
C1263 C 0.82705 0.63288 0.62258 0.0
C1264 C 0.82501 0.6375 0.59998 0.0
C1265 C 0.83172 0.64526 0.61214 0.0
C1266 C 0.81369 0.61715 0.59849 0.0
C1267 C 0.81567 0.61268 0.6207 0.0
C1268 C 0.80902 0.60494 0.60876 0.0
C1269 C 0.82043 0.69142 0.6652 0.0
C1270 C 0.83463 0.6407 0.63535 0.0
C1271 C 0.74141 0.60961 0.64686 0.0
C1272 C 0.74494 0.62543 0.63935 0.0
C1273 C 0.80677 0.65332 0.68119 0.0
C1274 C 0.85582 0.67911 0.72021 0.0
C1275 C 0.84895 0.66806 0.73119 0.0
C1276 C 0.8557 0.67695 0.74304 0.0
C1277 C 0.86916 0.69704 0.74373 0.0
C1278 C 0.86908 0.69919 0.72115 0.0
C1279 C 0.87568 0.70806 0.73285 0.0
C1280 C 0.84978 0.64352 0.67434 0.0
C1281 C 0.84937 0.66962 0.70782 0.0
H1282 H 0.84046 0.66087 0.61348 0.0
H1283 H 0.8087 0.61054 0.58933 0.0
H1284 H 0.81202 0.60278 0.62846 0.0
H1285 H 0.80037 0.58933 0.60743 0.0
H1286 H 0.83871 0.65255 0.7305 0.0
H1287 H 0.87447 0.70427 0.75271 0.0
H1288 H 0.87445 0.70797 0.71283 0.0
H1289 H 0.88595 0.72354 0.73351 0.0
Eu1290 Eu 0.35413 0.17123 0.66096 0.0
C1291 C 0.27199 0.14219 0.68645 0.0
C1292 C 0.26401 0.16758 0.68287 0.0
C1293 C 0.23765 0.13405 0.68481 0.0
C1294 C 0.27806 0.16153 0.68441 0.0
C1295 C 0.25171 0.12828 0.68698 0.0
C1296 C 0.24379 0.15367 0.68276 0.0
C1297 C 0.26076 0.1044 0.69289 0.0
N1298 N 0.28594 0.13717 0.68865 0.0
C1299 C 0.28068 0.11875 0.69229 0.0
C1300 C 0.2462 0.10912 0.69005 0.0
Eu1301 Eu 0.31935 0.16198 0.6871 0.0
N1302 N 0.2977 0.17458 0.6847 0.0
C1303 C 0.30421 0.19407 0.68451 0.0
C1304 C 0.27068 0.18747 0.6819 0.0
C1305 C 0.29086 0.20079 0.68294 0.0
H1306 H 0.29191 0.11502 0.6944 0.0
H1307 H 0.29616 0.21623 0.68246 0.0
H1308 H 0.23279 0.15801 0.68144 0.0
H1309 H 0.25666 0.08971 0.69549 0.0
H1310 H 0.31975 0.20454 0.68524 0.0
H1311 H 0.37793 0.11748 0.66576 0.0
H1312 H 0.26038 0.19272 0.68066 0.0
H1313 H 0.38124 0.21817 0.65354 0.0
H1314 H 0.35412 0.12889 0.66283 0.0
H1315 H 0.41643 0.24368 0.65244 0.0
H1316 H 0.222 0.12354 0.68505 0.0
H1317 H 0.41364 0.14124 0.6677 0.0
H1318 H 0.44102 0.17604 0.66697 0.0
H1319 H 0.23078 0.098 0.69055 0.0
H1320 H 0.45154 0.21042 0.66324 0.0
N1321 N 0.37598 0.1589 0.66346 0.0
C1322 C 0.36963 0.13945 0.66363 0.0
C1323 C 0.40324 0.14635 0.66641 0.0
C1324 C 0.40975 0.16621 0.66542 0.0
C1325 C 0.38311 0.1329 0.66528 0.0
C1326 C 0.39558 0.17209 0.66381 0.0
H1327 H 0.4425 0.23572 0.65754 0.0
N1328 N 0.38745 0.19624 0.65943 0.0
C1329 C 0.41244 0.22905 0.65511 0.0
C1330 C 0.40151 0.19138 0.66171 0.0
C1331 C 0.39256 0.21459 0.65571 0.0
C1332 C 0.4271 0.22451 0.65804 0.0
C1333 C 0.42174 0.20541 0.66119 0.0
O1334 O 0.3551 0.18101 0.64177 0.0
O1335 O 0.32674 0.17052 0.66725 0.0
O1336 O 0.30313 0.13909 0.67215 0.0
O1337 O 0.32961 0.13936 0.66194 0.0
O1338 O 0.34429 0.19286 0.65547 0.0
O1339 O 0.348 0.15135 0.64522 0.0
O1340 O 0.31857 0.15208 0.70624 0.0
O1341 O 0.34673 0.16259 0.68084 0.0
O1342 O 0.37039 0.19405 0.67595 0.0
O1343 O 0.34392 0.19383 0.68612 0.0
O1344 O 0.32881 0.14008 0.69246 0.0
O1345 O 0.32558 0.18176 0.70292 0.0
C1346 C 0.32795 0.18487 0.66153 0.0
C1347 C 0.36453 0.16574 0.62649 0.0
C1348 C 0.36999 0.1656 0.60405 0.0
C1349 C 0.35815 0.16499 0.6141 0.0
C1350 C 0.3884 0.16715 0.60658 0.0
C1351 C 0.38297 0.16738 0.62884 0.0
C1352 C 0.39484 0.1681 0.61892 0.0
C1353 C 0.31051 0.13116 0.66453 0.0
C1354 C 0.35165 0.16454 0.63681 0.0
C1355 C 0.43592 0.19982 0.66346 0.0
C1356 C 0.42993 0.18025 0.66558 0.0
C1357 C 0.34524 0.14804 0.68649 0.0
C1358 C 0.30941 0.16725 0.72171 0.0
C1359 C 0.31606 0.16786 0.734 0.0
C1360 C 0.30448 0.16714 0.74423 0.0
C1361 C 0.28603 0.16567 0.74197 0.0
C1362 C 0.29093 0.16566 0.71961 0.0
C1363 C 0.2793 0.16485 0.72972 0.0
C1364 C 0.36303 0.20198 0.68358 0.0
C1365 C 0.32208 0.16852 0.71126 0.0
H1366 H 0.3438 0.16353 0.61231 0.0
H1367 H 0.39787 0.16781 0.59902 0.0
H1368 H 0.38814 0.16797 0.63831 0.0
H1369 H 0.40906 0.16936 0.62079 0.0
H1370 H 0.33045 0.16929 0.73559 0.0
H1371 H 0.27677 0.16497 0.74967 0.0
H1372 H 0.28555 0.16517 0.71021 0.0
H1373 H 0.26506 0.16365 0.72805 0.0
Eu1374 Eu 0.84531 0.16254 0.68571 0.0
C1375 C 0.79778 0.19519 0.65721 0.0
C1376 C 0.76358 0.1705 0.65992 0.0
C1377 C 0.77238 0.20434 0.65777 0.0
C1378 C 0.7837 0.176 0.65903 0.0
C1379 C 0.79224 0.20953 0.65618 0.0
C1380 C 0.75806 0.18484 0.65966 0.0
C1381 C 0.8259 0.2325 0.65061 0.0
N1382 N 0.81673 0.19961 0.6555 0.0
C1383 C 0.83059 0.21771 0.65163 0.0
C1384 C 0.8067 0.22847 0.6531 0.0
Eu1385 Eu 0.82401 0.17425 0.65809 0.0
N1386 N 0.78954 0.16253 0.65908 0.0
C1387 C 0.77582 0.14316 0.6589 0.0
C1388 C 0.74956 0.15071 0.6606 0.0
C1389 C 0.75569 0.13697 0.65984 0.0
H1390 H 0.84543 0.22085 0.64968 0.0
H1391 H 0.74494 0.1216 0.66007 0.0
H1392 H 0.74271 0.18093 0.66049 0.0
H1393 H 0.83707 0.24697 0.64789 0.0
H1394 H 0.78032 0.13236 0.6584 0.0
H1395 H 0.92406 0.21646 0.68496 0.0
H1396 H 0.73396 0.14587 0.66134 0.0
H1397 H 0.82395 0.11521 0.69215 0.0
H1398 H 0.88847 0.20499 0.68611 0.0
H1399 H 0.83305 0.08957 0.69377 0.0
H1400 H 0.76785 0.21517 0.65716 0.0
H1401 H 0.93577 0.19275 0.68361 0.0
H1402 H 0.9277 0.15789 0.68395 0.0
H1403 H 0.80305 0.23991 0.65222 0.0
H1404 H 0.90293 0.12331 0.68644 0.0
N1405 N 0.87988 0.17499 0.68508 0.0
C1406 C 0.89329 0.19443 0.68558 0.0
C1407 C 0.92008 0.1876 0.68413 0.0
C1408 C 0.90633 0.1677 0.68443 0.0
C1409 C 0.91353 0.20102 0.68492 0.0
C1410 C 0.88608 0.16178 0.68503 0.0
H1411 H 0.86765 0.09775 0.6904 0.0
N1412 N 0.85301 0.13742 0.6877 0.0
C1413 C 0.84419 0.10435 0.69164 0.0
C1414 C 0.87219 0.14237 0.6864 0.0
C1415 C 0.8391 0.11887 0.69075 0.0
C1416 C 0.86373 0.10901 0.68968 0.0
C1417 C 0.87808 0.12827 0.68723 0.0
O1418 O 0.83381 0.15101 0.70421 0.0
O1419 O 0.81996 0.16471 0.67798 0.0
O1420 O 0.83163 0.19814 0.67232 0.0
O1421 O 0.85349 0.1945 0.68571 0.0
O1422 O 0.81288 0.14097 0.68908 0.0
O1423 O 0.85713 0.18097 0.70234 0.0
O1424 O 0.83723 0.18361 0.63968 0.0
O1425 O 0.84937 0.17228 0.66595 0.0
O1426 O 0.8396 0.14039 0.67051 0.0
O1427 O 0.81514 0.14213 0.65895 0.0
O1428 O 0.85642 0.19582 0.65466 0.0
O1429 O 0.81021 0.15611 0.64147 0.0
C1430 C 0.80577 0.14995 0.68284 0.0
C1431 C 0.85638 0.16508 0.72105 0.0
C1432 C 0.85998 0.16544 0.74375 0.0
C1433 C 0.85002 0.16653 0.73305 0.0
C1434 C 0.87628 0.16269 0.74226 0.0
C1435 C 0.8726 0.16223 0.71973 0.0
C1436 C 0.88246 0.16101 0.73031 0.0
C1437 C 0.8451 0.2043 0.68137 0.0
C1438 C 0.84623 0.16706 0.71004 0.0
C1439 C 0.89812 0.13395 0.68598 0.0
C1440 C 0.91223 0.15364 0.68456 0.0
C1441 C 0.86359 0.18707 0.66112 0.0
C1442 C 0.81557 0.17284 0.62239 0.0
C1443 C 0.82114 0.16913 0.6107 0.0
C1444 C 0.81515 0.17416 0.59954 0.0
C1445 C 0.80324 0.18282 0.60039 0.0
C1446 C 0.80355 0.18126 0.62301 0.0
C1447 C 0.79741 0.1862 0.61204 0.0
C1448 C 0.82509 0.13327 0.66211 0.0
C1449 C 0.82318 0.16862 0.63382 0.0
H1450 H 0.8376 0.16894 0.73405 0.0
H1451 H 0.88413 0.16167 0.75034 0.0
H1452 H 0.87771 0.16111 0.71057 0.0
H1453 H 0.89499 0.15884 0.72924 0.0
H1454 H 0.83013 0.16227 0.61037 0.0
H1455 H 0.79865 0.1873 0.59208 0.0
H1456 H 0.79907 0.18417 0.63194 0.0
H1457 H 0.78828 0.19287 0.61256 0.0
C1458 C 0.31065 0.87093 0.05459 0.0
C1459 C 0.30998 0.85639 0.06236 0.0
C1460 C 0.32791 0.88347 0.04819 0.0
C1461 C 0.38162 0.90381 0.04989 0.0
H1462 H 0.38089 0.91904 0.01556 0.0
C1463 C 0.45379 0.95366 0.02453 0.0
C1464 C 0.45424 0.96862 0.0174 0.0
C1465 C 0.43587 0.93846 0.02874 0.0
C1466 C 0.38131 0.91503 0.02518 0.0
H1467 H 0.32693 0.84362 0.06948 0.0
H1468 H 0.35697 0.86538 0.05825 0.0
H1469 H 0.35003 0.89544 0.02546 0.0
H1470 H 0.43674 0.98013 0.00948 0.0
H1471 H 0.40518 0.95353 0.01687 0.0
H1472 H 0.41269 0.92361 0.04979 0.0
C1473 C 0.34417 0.86715 0.05715 0.0
C1474 C 0.36364 0.90152 0.03084 0.0
C1475 C 0.3269 0.85456 0.06349 0.0
C1476 C 0.43656 0.96834 0.01464 0.0
C1477 C 0.41856 0.95312 0.01886 0.0
C1478 C 0.39921 0.91734 0.04427 0.0
C1479 C 0.34492 0.88183 0.04949 0.0
C1480 C 0.36362 0.8958 0.04327 0.0
C1481 C 0.41805 0.93818 0.02617 0.0
C1482 C 0.39929 0.92316 0.03185 0.0
H1483 H 0.29779 0.87257 0.05342 0.0
H1484 H 0.32807 0.89474 0.04244 0.0
H1485 H 0.38206 0.89998 0.05954 0.0
H1486 H 0.46739 0.954 0.02711 0.0
H1487 H 0.43602 0.92711 0.03422 0.0
C1488 C 0.13232 0.44328 0.05904 0.0
C1489 C 0.15026 0.45889 0.06353 0.0
C1490 C 0.11829 0.44661 0.05312 0.0
C1491 C 0.10325 0.48397 0.04989 0.0
H1492 H 0.07131 0.45085 0.0224 0.0
C1493 C 0.04698 0.49769 0.02286 0.0
C1494 C 0.02832 0.48127 0.02071 0.0
C1495 C 0.06272 0.4956 0.02723 0.0
C1496 C 0.08005 0.46015 0.03011 0.0
H1497 H 0.16739 0.49033 0.06521 0.0
H1498 H 0.14323 0.49614 0.05456 0.0
H1499 H 0.09727 0.44609 0.03151 0.0
H1500 H 0.01124 0.44991 0.02182 0.0
H1501 H 0.03877 0.44618 0.02937 0.0
H1502 H 0.086 0.49803 0.04845 0.0
C1503 C 0.13986 0.48127 0.0558 0.0
C1504 C 0.09491 0.4574 0.03537 0.0
C1505 C 0.15386 0.47794 0.06178 0.0
C1506 C 0.0256 0.46276 0.02319 0.0
C1507 C 0.04137 0.46064 0.02745 0.0
C1508 C 0.08848 0.48679 0.04458 0.0
C1509 C 0.12182 0.46565 0.05145 0.0
C1510 C 0.10658 0.46914 0.04543 0.0
C1511 C 0.06009 0.47705 0.0296 0.0
C1512 C 0.07656 0.47477 0.03472 0.0
H1513 H 0.12911 0.42842 0.06005 0.0
H1514 H 0.10451 0.43418 0.05004 0.0
H1515 H 0.1117 0.49312 0.05773 0.0
H1516 H 0.04936 0.51216 0.02133 0.0
H1517 H 0.07698 0.50852 0.02875 0.0
C1518 C 0.5511 0.68825 0.07133 0.0
C1519 C 0.56564 0.70542 0.06583 0.0
C1520 C 0.54561 0.6702 0.06586 0.0
C1521 C 0.56187 0.64657 0.04203 0.0
H1522 H 0.50778 0.6045 0.0449 0.0
C1523 C 0.52722 0.57458 0.01316 0.0
C1524 C 0.51914 0.5578 0.02049 0.0
C1525 C 0.53311 0.59269 0.01869 0.0
C1526 C 0.52294 0.61615 0.04408 0.0
H1527 H 0.58562 0.71743 0.05026 0.0
H1528 H 0.57542 0.68606 0.04031 0.0
H1529 H 0.51743 0.63613 0.05429 0.0
H1530 H 0.51078 0.54644 0.03919 0.0
H1531 H 0.52054 0.57817 0.04887 0.0
H1532 H 0.56695 0.62655 0.03133 0.0
C1533 C 0.56871 0.6863 0.04909 0.0
C1534 C 0.52856 0.63424 0.04953 0.0
C1535 C 0.57449 0.70431 0.05472 0.0
C1536 C 0.51698 0.55928 0.0334 0.0
C1537 C 0.52246 0.57732 0.03889 0.0
C1538 C 0.5561 0.62858 0.03635 0.0
C1539 C 0.55423 0.66896 0.0546 0.0
C1540 C 0.54815 0.6497 0.04865 0.0
C1541 C 0.53064 0.59415 0.03158 0.0
C1542 C 0.53664 0.61323 0.03741 0.0
H1543 H 0.54421 0.6888 0.07997 0.0
H1544 H 0.53475 0.65724 0.07057 0.0
H1545 H 0.57717 0.65789 0.04134 0.0
H1546 H 0.52935 0.57375 0.00324 0.0
H1547 H 0.53941 0.60552 0.0129 0.0
C1548 C 0.8494 0.30806 0.95383 0.0
C1549 C 0.85526 0.30017 0.94404 0.0
C1550 C 0.86276 0.32597 0.95927 0.0
C1551 C 0.91114 0.3706 0.95386 0.0
H1552 H 0.9079 0.37882 0.98937 0.0
C1553 C 0.97004 0.43808 0.98158 0.0
C1554 C 0.96259 0.44738 0.98923 0.0
C1555 C 0.95726 0.42009 0.97595 0.0
C1556 C 0.9089 0.37673 0.97943 0.0
H1557 H 0.8799 0.30522 0.93228 0.0
H1558 H 0.90339 0.33592 0.94216 0.0
H1559 H 0.88524 0.34732 0.97989 0.0
H1560 H 0.93573 0.4453 0.99652 0.0
H1561 H 0.91363 0.41366 0.9871 0.0
H1562 H 0.93519 0.39999 0.95356 0.0
C1563 C 0.88832 0.32847 0.94546 0.0
C1564 C 0.89586 0.35873 0.97397 0.0
C1565 C 0.87489 0.31066 0.9399 0.0
C1566 C 0.94207 0.43836 0.991 0.0
C1567 C 0.92936 0.42026 0.98555 0.0
C1568 C 0.92437 0.38852 0.95937 0.0
C1569 C 0.88243 0.3364 0.9552 0.0
C1570 C 0.89668 0.35546 0.96108 0.0
C1571 C 0.93683 0.41096 0.97798 0.0
C1572 C 0.92326 0.39179 0.97219 0.0
H1573 H 0.83451 0.30032 0.9574 0.0
H1574 H 0.85756 0.33171 0.96661 0.0
H1575 H 0.91204 0.36878 0.94388 0.0
H1576 H 0.98573 0.44464 0.97994 0.0
H1577 H 0.96338 0.41318 0.97017 0.0
C1578 C 0.67688 0.52344 0.94943 0.0
C1579 C 0.69235 0.54245 0.94718 0.0
C1580 C 0.65991 0.52024 0.95579 0.0
C1581 C 0.64052 0.54479 0.97649 0.0
H1582 H 0.58952 0.50332 0.96495 0.0
C1583 C 0.56669 0.54038 0.98938 0.0
C1584 C 0.55042 0.52207 0.99195 0.0
C1585 C 0.58445 0.54208 0.9853 0.0
C1586 C 0.60366 0.51478 0.96842 0.0
H1587 H 0.70204 0.573 0.95013 0.0
H1588 H 0.67229 0.56745 0.96083 0.0
H1589 H 0.61949 0.50789 0.95498 0.0
H1590 H 0.53971 0.49109 0.99194 0.0
H1591 H 0.57081 0.49403 0.98486 0.0
H1592 H 0.62454 0.55193 0.98972 0.0
C1593 C 0.67338 0.55496 0.95784 0.0
C1594 C 0.62089 0.51742 0.9627 0.0
C1595 C 0.69037 0.55816 0.95152 0.0
C1596 C 0.55216 0.50542 0.99029 0.0
C1597 C 0.56991 0.5071 0.98611 0.0
C1598 C 0.62328 0.54221 0.98216 0.0
C1599 C 0.65788 0.53596 0.96006 0.0
C1600 C 0.63957 0.53259 0.96656 0.0
C1601 C 0.58621 0.52546 0.98346 0.0
C1602 C 0.60462 0.5273 0.97811 0.0
H1603 H 0.67772 0.51096 0.94612 0.0
H1604 H 0.64843 0.5054 0.95743 0.0
H1605 H 0.65462 0.55637 0.97991 0.0
H1606 H 0.56558 0.55339 0.99039 0.0
H1607 H 0.5966 0.5564 0.98317 0.0
C1608 C 0.44099 0.12923 0.94515 0.0
C1609 C 0.43893 0.14325 0.95199 0.0
C1610 C 0.44701 0.11745 0.95111 0.0
C1611 C 0.44785 0.09617 0.98093 0.0
H1612 H 0.49096 0.09197 0.96646 0.0
C1613 C 0.4781 0.04952 0.00321 0.0
C1614 C 0.48323 0.03914 0.99482 0.0
C1615 C 0.47337 0.06329 0.99878 0.0
C1616 C 0.47874 0.09276 0.97055 0.0
H1617 H 0.44109 0.15573 0.97043 0.0
H1618 H 0.45129 0.13473 0.98095 0.0
H1619 H 0.48089 0.11358 0.9571 0.0
H1620 H 0.48827 0.03557 0.97537 0.0
H1621 H 0.47891 0.05841 0.96754 0.0
H1622 H 0.44517 0.07481 0.99412 0.0
C1623 C 0.4484 0.13304 0.97096 0.0
C1624 C 0.47306 0.10522 0.96521 0.0
C1625 C 0.44269 0.14508 0.96495 0.0
C1626 C 0.48366 0.04279 0.98199 0.0
C1627 C 0.47877 0.05631 0.97755 0.0
C1628 C 0.45336 0.08346 0.9862 0.0
C1629 C 0.45079 0.11926 0.96406 0.0
C1630 C 0.45742 0.10686 0.97025 0.0
C1631 C 0.47369 0.06686 0.98587 0.0
C1632 C 0.46868 0.08138 0.98095 0.0
H1633 H 0.4383 0.12764 0.93514 0.0
H1634 H 0.44862 0.10681 0.94561 0.0
H1635 H 0.43569 0.09716 0.98495 0.0
H1636 H 0.47747 0.04684 0.01314 0.0
H1637 H 0.46969 0.07124 0.00547 0.0
C1638 C 0.68798 0.15011 0.9574 0.0
C1639 C 0.69628 0.14299 0.94871 0.0
C1640 C 0.67035 0.13739 0.96339 0.0
C1641 C 0.6274 0.08697 0.96052 0.0
H1642 H 0.61611 0.09752 0.99405 0.0
C1643 C 0.56062 0.03121 0.98838 0.0
C1644 C 0.54746 0.03768 0.99153 0.0
C1645 C 0.57969 0.04443 0.98447 0.0
C1646 C 0.61915 0.09448 0.98468 0.0
H1647 H 0.6933 0.11713 0.93978 0.0
H1648 H 0.66314 0.09476 0.95064 0.0
H1649 H 0.64802 0.11962 0.98464 0.0
H1650 H 0.54341 0.06265 0.99293 0.0
H1651 H 0.57728 0.08609 0.98652 0.0
H1652 H 0.59874 0.0615 0.9608 0.0
C1653 C 0.66962 0.11018 0.95251 0.0
C1654 C 0.63734 0.10716 0.97922 0.0
C1655 C 0.68699 0.12295 0.94634 0.0
C1656 C 0.55361 0.05753 0.99085 0.0
C1657 C 0.57286 0.07085 0.98719 0.0
C1658 C 0.60947 0.07414 0.96607 0.0
C1659 C 0.66085 0.11722 0.96099 0.0
C1660 C 0.64169 0.10362 0.96703 0.0
C1661 C 0.58587 0.0643 0.9837 0.0
C1662 C 0.60517 0.07782 0.97816 0.0
H1663 H 0.6949 0.16558 0.95932 0.0
H1664 H 0.66399 0.14348 0.96967 0.0
H1665 H 0.62984 0.08393 0.95101 0.0
H1666 H 0.5559 0.01585 0.98852 0.0
H1667 H 0.58948 0.03909 0.98176 0.0
C1668 C 0.86929 0.55909 0.9532 0.0
C1669 C 0.85267 0.54366 0.94733 0.0
C1670 C 0.88355 0.55598 0.95903 0.0
C1671 C 0.90158 0.52047 0.95996 0.0
H1672 H 0.93054 0.55062 0.98921 0.0
C1673 C 0.95697 0.50586 0.98732 0.0
C1674 C 0.97546 0.52233 0.9898 0.0
C1675 C 0.94123 0.50791 0.9829 0.0
C1676 C 0.9226 0.54215 0.98102 0.0
H1677 H 0.83759 0.51273 0.94336 0.0
H1678 H 0.86206 0.50711 0.95381 0.0
H1679 H 0.90421 0.55501 0.98028 0.0
H1680 H 0.99227 0.55375 0.98927 0.0
H1681 H 0.96462 0.55741 0.98175 0.0
H1682 H 0.91985 0.50744 0.96086 0.0
C1683 C 0.86451 0.52179 0.95361 0.0
C1684 C 0.90756 0.54471 0.97584 0.0
C1685 C 0.8504 0.52496 0.94764 0.0
C1686 C 0.97803 0.54086 0.98763 0.0
C1687 C 0.96222 0.54294 0.98338 0.0
C1688 C 0.91643 0.51775 0.96523 0.0
C1689 C 0.88142 0.53728 0.95928 0.0
C1690 C 0.89695 0.53404 0.96515 0.0
C1691 C 0.94369 0.52648 0.98088 0.0
C1692 C 0.92724 0.5287 0.97573 0.0
H1693 H 0.87154 0.5737 0.95301 0.0
H1694 H 0.89647 0.56836 0.96308 0.0
H1695 H 0.89407 0.51222 0.95161 0.0
H1696 H 0.95473 0.49139 0.9886 0.0
H1697 H 0.92711 0.49498 0.98107 0.0
C1698 C 0.44428 0.30197 0.96026 0.0
C1699 C 0.43169 0.29567 0.94973 0.0
C1700 C 0.45043 0.32023 0.96562 0.0
C1701 C 0.4374 0.35814 0.96908 0.0
H1702 H 0.4936 0.39302 0.97393 0.0
C1703 C 0.46855 0.43864 0.98272 0.0
C1704 C 0.48491 0.44736 0.99091 0.0
C1705 C 0.46203 0.42005 0.9778 0.0
C1706 C 0.47783 0.3834 0.97286 0.0
H1707 H 0.4152 0.30315 0.93676 0.0
H1708 H 0.42566 0.33501 0.94631 0.0
H1709 H 0.48178 0.36032 0.96567 0.0
H1710 H 0.50768 0.44358 0.99994 0.0
H1711 H 0.4957 0.41086 0.99196 0.0
H1712 H 0.43327 0.38088 0.97654 0.0
C1713 C 0.43086 0.32586 0.95033 0.0
C1714 C 0.4711 0.36469 0.96807 0.0
C1715 C 0.42497 0.30774 0.94484 0.0
C1716 C 0.49475 0.43716 0.99391 0.0
C1717 C 0.48805 0.41845 0.98914 0.0
C1718 C 0.44409 0.37675 0.97405 0.0
C1719 C 0.44383 0.33236 0.96067 0.0
C1720 C 0.45085 0.35195 0.96608 0.0
C1721 C 0.47158 0.40962 0.98103 0.0
C1722 C 0.46441 0.38968 0.97593 0.0
H1723 H 0.44977 0.29298 0.96414 0.0
H1724 H 0.46034 0.32489 0.97364 0.0
H1725 H 0.42168 0.34849 0.96774 0.0
H1726 H 0.46072 0.44613 0.98008 0.0
H1727 H 0.44959 0.41395 0.97135 0.0
C1728 C 0.15582 0.69341 0.05783 0.0
C1729 C 0.15074 0.70052 0.06839 0.0
C1730 C 0.14208 0.67576 0.05225 0.0
C1731 C 0.09411 0.63064 0.05803 0.0
H1732 H 0.09498 0.62463 0.02203 0.0
C1733 C 0.03379 0.56465 0.0297 0.0
C1734 C 0.04103 0.55576 0.02151 0.0
C1735 C 0.04671 0.58239 0.03556 0.0
C1736 C 0.09463 0.62612 0.0321 0.0
H1737 H 0.12732 0.69497 0.08132 0.0
H1738 H 0.10302 0.66447 0.07134 0.0
H1739 H 0.11816 0.65558 0.03192 0.0
H1740 H 0.06769 0.55834 0.01349 0.0
H1741 H 0.08999 0.58958 0.02329 0.0
H1742 H 0.07013 0.60119 0.05803 0.0
C1743 C 0.11778 0.67217 0.06755 0.0
C1744 C 0.10799 0.6438 0.0378 0.0
C1745 C 0.13165 0.68968 0.07325 0.0
C1746 C 0.06148 0.56497 0.01942 0.0
C1747 C 0.07431 0.58284 0.02509 0.0
C1748 C 0.08053 0.61305 0.05228 0.0
C1749 C 0.1228 0.66495 0.05697 0.0
C1750 C 0.10808 0.64626 0.05087 0.0
C1751 C 0.06706 0.5917 0.03322 0.0
C1752 C 0.08082 0.61058 0.03928 0.0
H1753 H 0.17054 0.70139 0.054 0.0
H1754 H 0.1467 0.67052 0.04432 0.0
H1755 H 0.09389 0.63182 0.06811 0.0
H1756 H 0.01815 0.55794 0.0316 0.0
H1757 H 0.04078 0.58898 0.04179 0.0
C1758 C 0.31128 0.44445 0.05662 0.0
C1759 C 0.31005 0.4594 0.0629 0.0
C1760 C 0.32863 0.44825 0.05052 0.0
C1761 C 0.38237 0.48489 0.04916 0.0
H1762 H 0.38006 0.45544 0.01948 0.0
C1763 C 0.45214 0.49965 0.02151 0.0
C1764 C 0.45378 0.48303 0.01939 0.0
C1765 C 0.43435 0.49783 0.0257 0.0
C1766 C 0.38091 0.46377 0.02776 0.0
H1767 H 0.32584 0.49018 0.0674 0.0
H1768 H 0.35588 0.497 0.05646 0.0
H1769 H 0.34949 0.45044 0.02885 0.0
H1770 H 0.43841 0.45162 0.02012 0.0
H1771 H 0.40716 0.44837 0.02717 0.0
H1772 H 0.41386 0.49834 0.04791 0.0
C1773 C 0.34371 0.48217 0.05654 0.0
C1774 C 0.36339 0.46083 0.03321 0.0
C1775 C 0.32645 0.4783 0.06279 0.0
C1776 C 0.43737 0.46461 0.0215 0.0
C1777 C 0.41952 0.46277 0.02549 0.0
C1778 C 0.39988 0.48801 0.04361 0.0
C1779 C 0.34513 0.46718 0.05038 0.0
C1780 C 0.36384 0.47113 0.04411 0.0
C1781 C 0.41788 0.47935 0.02778 0.0
C1782 C 0.39933 0.47727 0.03297 0.0
H1783 H 0.29895 0.4297 0.05667 0.0
H1784 H 0.32918 0.43621 0.04613 0.0
H1785 H 0.38343 0.4929 0.05764 0.0
H1786 H 0.46473 0.51404 0.02021 0.0
H1787 H 0.43348 0.51085 0.02738 0.0
C1788 C 0.56557 0.85908 0.04657 0.0
C1789 C 0.57482 0.86477 0.05839 0.0
C1790 C 0.56145 0.87157 0.03969 0.0
C1791 C 0.5751 0.9232 0.0369 0.0
H1792 H 0.52313 0.90231 0.02174 0.0
C1793 C 0.54187 0.97092 0.02394 0.0
C1794 C 0.52984 0.96635 0.01319 0.0
C1795 C 0.54917 0.95892 0.02772 0.0
C1796 C 0.53784 0.90833 0.02571 0.0
H1797 H 0.58732 0.88818 0.07214 0.0
H1798 H 0.57986 0.90985 0.06022 0.0
H1799 H 0.5323 0.88042 0.03179 0.0
H1800 H 0.51664 0.94587 0.99773 0.0
H1801 H 0.52951 0.92486 0.00437 0.0
H1802 H 0.58051 0.95115 0.03104 0.0
C1803 C 0.57595 0.8958 0.05622 0.0
C1804 C 0.54308 0.89579 0.03149 0.0
C1805 C 0.58001 0.88329 0.06312 0.0
C1806 C 0.52582 0.94979 0.00607 0.0
C1807 C 0.53309 0.93769 0.00991 0.0
C1808 C 0.56988 0.93573 0.0311 0.0
C1809 C 0.56656 0.89005 0.04445 0.0
C1810 C 0.56163 0.90314 0.03737 0.0
C1811 C 0.54464 0.94201 0.02087 0.0
C1812 C 0.55104 0.92849 0.02567 0.0
H1813 H 0.56123 0.84483 0.04271 0.0
H1814 H 0.55432 0.86677 0.03061 0.0
H1815 H 0.58965 0.92926 0.04113 0.0
H1816 H 0.54537 0.98359 0.02964 0.0
H1817 H 0.5578 0.96255 0.0363 0.0
C1818 C 0.97518 0.19022 0.38151 0.0
C1819 C 0.97273 0.19288 0.39425 0.0
C1820 C 0.99203 0.20388 0.37518 0.0
C1821 C 0.03313 0.25498 0.37782 0.0
H1822 H 0.05804 0.23865 0.35301 0.0
C1823 C 0.11319 0.28856 0.3523 0.0
C1824 C 0.11695 0.30762 0.35059 0.0
C1825 C 0.09443 0.2739 0.35587 0.0
C1826 C 0.05132 0.24345 0.35996 0.0
H1827 H 0.98622 0.21156 0.41045 0.0
H1828 H 0.01573 0.2351 0.39957 0.0
H1829 H 0.02805 0.21436 0.36327 0.0
H1830 H 0.10426 0.32636 0.35093 0.0
H1831 H 0.07131 0.30073 0.35667 0.0
H1832 H 0.05679 0.28386 0.37506 0.0
C1833 C 0.00444 0.22283 0.39431 0.0
C1834 C 0.03398 0.22953 0.36574 0.0
C1835 C 0.98754 0.20931 0.40058 0.0
C1836 C 0.10161 0.31171 0.35216 0.0
C1837 C 0.08282 0.29705 0.35555 0.0
C1838 C 0.0505 0.26881 0.37215 0.0
C1839 C 0.00686 0.2204 0.3815 0.0
C1840 C 0.02479 0.23512 0.37485 0.0
C1841 C 0.07912 0.27808 0.35783 0.0
C1842 C 0.05993 0.26326 0.3632 0.0
H1843 H 0.96391 0.17775 0.37638 0.0
H1844 H 0.99326 0.20163 0.3653 0.0
H1845 H 0.0263 0.25991 0.3846 0.0
H1846 H 0.12494 0.28517 0.35138 0.0
H1847 H 0.09223 0.25955 0.35766 0.0
C1848 C 0.79682 0.77033 0.39527 0.0
C1849 C 0.81479 0.78618 0.39953 0.0
C1850 C 0.78256 0.77331 0.38933 0.0
C1851 C 0.77517 0.80974 0.37238 0.0
H1852 H 0.72077 0.77779 0.38261 0.0
C1853 C 0.71315 0.8259 0.3576 0.0
C1854 C 0.69421 0.80999 0.35529 0.0
C1855 C 0.7283 0.82302 0.36223 0.0
C1856 C 0.73581 0.78665 0.37946 0.0
H1857 H 0.83168 0.81769 0.40073 0.0
H1858 H 0.80692 0.82283 0.39019 0.0
H1859 H 0.74627 0.77272 0.39195 0.0
H1860 H 0.67609 0.77871 0.35622 0.0
H1861 H 0.70253 0.77353 0.36397 0.0
H1862 H 0.76465 0.82358 0.3598 0.0
C1863 C 0.80396 0.80808 0.39141 0.0
C1864 C 0.75047 0.78376 0.38486 0.0
C1865 C 0.81819 0.80511 0.39745 0.0
C1866 C 0.69064 0.79119 0.3578 0.0
C1867 C 0.70578 0.78828 0.36233 0.0
C1868 C 0.76045 0.81255 0.36689 0.0
C1869 C 0.78589 0.79221 0.38737 0.0
C1870 C 0.77034 0.79527 0.38143 0.0
C1871 C 0.72478 0.80416 0.36477 0.0
C1872 C 0.74055 0.80105 0.37037 0.0
H1873 H 0.79378 0.75555 0.39643 0.0
H1874 H 0.76893 0.76076 0.38615 0.0
H1875 H 0.79031 0.81873 0.36942 0.0
H1876 H 0.71616 0.8406 0.35611 0.0
H1877 H 0.74261 0.83564 0.36415 0.0
C1878 C 0.21754 0.01916 0.40759 0.0
C1879 C 0.23048 0.03662 0.40165 0.0
C1880 C 0.21217 0.00132 0.40183 0.0
C1881 C 0.22631 0.97916 0.3758 0.0
H1882 H 0.17383 0.93544 0.38125 0.0
C1883 C 0.19074 0.90704 0.34704 0.0
C1884 C 0.18413 0.89032 0.35432 0.0
C1885 C 0.19663 0.92503 0.35276 0.0
C1886 C 0.18854 0.94755 0.3797 0.0
H1887 H 0.24777 0.04936 0.38505 0.0
H1888 H 0.23773 0.0183 0.37468 0.0
H1889 H 0.18345 0.96674 0.39112 0.0
H1890 H 0.17842 0.87899 0.37314 0.0
H1891 H 0.18819 0.91047 0.38316 0.0
H1892 H 0.23091 0.9599 0.36394 0.0
C1893 C 0.23222 0.01819 0.38396 0.0
C1894 C 0.19416 0.96547 0.38542 0.0
C1895 C 0.2379 0.03602 0.38985 0.0
C1896 C 0.18346 0.89176 0.36737 0.0
C1897 C 0.18894 0.90966 0.37307 0.0
C1898 C 0.22051 0.96133 0.36988 0.0
C1899 C 0.21929 0.00057 0.38988 0.0
C1900 C 0.21319 0.98151 0.38362 0.0
C1901 C 0.19564 0.92643 0.36581 0.0
C1902 C 0.20164 0.94538 0.37186 0.0
H1903 H 0.21179 0.01932 0.41676 0.0
H1904 H 0.20257 0.98815 0.40685 0.0
H1905 H 0.2412 0.99098 0.37436 0.0
H1906 H 0.19177 0.90629 0.33699 0.0
H1907 H 0.20179 0.9378 0.34699 0.0
C1908 C 0.514 0.63729 0.2903 0.0
C1909 C 0.519 0.62969 0.27992 0.0
C1910 C 0.52777 0.65511 0.29568 0.0
C1911 C 0.57554 0.69999 0.28924 0.0
H1912 H 0.57483 0.7081 0.32501 0.0
C1913 C 0.63598 0.76757 0.31617 0.0
C1914 C 0.62888 0.77694 0.32405 0.0
C1915 C 0.62298 0.74951 0.31071 0.0
C1916 C 0.57513 0.70602 0.315 0.0
H1917 H 0.54263 0.63511 0.2671 0.0
H1918 H 0.56688 0.66555 0.27688 0.0
H1919 H 0.55172 0.67653 0.31579 0.0
H1920 H 0.60235 0.77487 0.33193 0.0
H1921 H 0.57988 0.74308 0.32282 0.0
H1922 H 0.59939 0.72946 0.28862 0.0
C1923 C 0.55213 0.658 0.28068 0.0
C1924 C 0.56182 0.68798 0.30968 0.0
C1925 C 0.53826 0.64031 0.27518 0.0
C1926 C 0.60846 0.76789 0.32623 0.0
C1927 C 0.59553 0.74971 0.32096 0.0
C1928 C 0.58907 0.71793 0.29461 0.0
C1929 C 0.54705 0.6657 0.29097 0.0
C1930 C 0.5617 0.68476 0.2967 0.0
C1931 C 0.60267 0.74036 0.31315 0.0
C1932 C 0.58885 0.72115 0.30751 0.0
H1933 H 0.49944 0.62945 0.29436 0.0
H1934 H 0.52316 0.66065 0.30346 0.0
H1935 H 0.57571 0.69823 0.27919 0.0
H1936 H 0.65159 0.77414 0.31421 0.0
H1937 H 0.62883 0.74256 0.30473 0.0
C1938 C 0.34452 0.85927 0.28539 0.0
C1939 C 0.36064 0.87808 0.2835 0.0
C1940 C 0.32732 0.85659 0.29121 0.0
C1941 C 0.29936 0.8818 0.29717 0.0
H1942 H 0.27173 0.84171 0.32183 0.0
C1943 C 0.23173 0.87537 0.32272 0.0
C1944 C 0.21583 0.85667 0.32489 0.0
C1945 C 0.24986 0.87797 0.31866 0.0
C1946 C 0.27913 0.85283 0.31485 0.0
H1947 H 0.37132 0.90879 0.28673 0.0
H1948 H 0.34127 0.90411 0.29662 0.0
H1949 H 0.30237 0.84609 0.31281 0.0
H1950 H 0.20612 0.82592 0.32403 0.0
H1951 H 0.23769 0.83035 0.3168 0.0
H1952 H 0.27606 0.88832 0.29891 0.0
C1953 C 0.34189 0.89143 0.29347 0.0
C1954 C 0.29672 0.85536 0.30971 0.0
C1955 C 0.35912 0.8941 0.28775 0.0
C1956 C 0.21831 0.84054 0.32277 0.0
C1957 C 0.23643 0.84311 0.31862 0.0
C1958 C 0.28174 0.87918 0.30223 0.0
C1959 C 0.32572 0.87265 0.2952 0.0
C1960 C 0.30707 0.86992 0.30082 0.0
C1961 C 0.25241 0.86188 0.31637 0.0
C1962 C 0.27137 0.86469 0.31116 0.0
H1963 H 0.34496 0.84656 0.2821 0.0
H1964 H 0.31506 0.84195 0.29226 0.0
H1965 H 0.30675 0.89291 0.29019 0.0
H1966 H 0.2301 0.88802 0.32417 0.0
H1967 H 0.26186 0.89265 0.31725 0.0
C1968 C 0.10563 0.4599 0.27575 0.0
C1969 C 0.11255 0.47891 0.28027 0.0
C1970 C 0.1117 0.44788 0.28134 0.0
C1971 C 0.1344 0.44193 0.31037 0.0
H1972 H 0.14298 0.40696 0.28926 0.0
C1973 C 0.16706 0.39483 0.32845 0.0
C1974 C 0.15628 0.37509 0.3249 0.0
C1975 C 0.16267 0.40832 0.32315 0.0
C1976 C 0.14057 0.41662 0.29527 0.0
H1977 H 0.1311 0.50002 0.29442 0.0
H1978 H 0.14226 0.47933 0.30386 0.0
H1979 H 0.13362 0.42903 0.27975 0.0
H1980 H 0.13269 0.35421 0.31275 0.0
H1981 H 0.12536 0.37775 0.30344 0.0
H1982 H 0.14166 0.42954 0.32586 0.0
C1983 C 0.13187 0.47359 0.2961 0.0
C1984 C 0.1351 0.4292 0.28984 0.0
C1985 C 0.12566 0.48556 0.29057 0.0
C1986 C 0.14129 0.36925 0.31577 0.0
C1987 C 0.13711 0.38275 0.31037 0.0
C1988 C 0.14008 0.42947 0.31578 0.0
C1989 C 0.12501 0.4546 0.29154 0.0
C1990 C 0.13167 0.44183 0.29733 0.0
C1991 C 0.1477 0.40239 0.31403 0.0
C1992 C 0.14296 0.41652 0.30829 0.0
H1993 H 0.09572 0.45434 0.26775 0.0
H1994 H 0.10583 0.43324 0.2777 0.0
H1995 H 0.13166 0.45128 0.31644 0.0
H1996 H 0.179 0.39993 0.33522 0.0
H1997 H 0.1712 0.42344 0.32603 0.0
C1998 C 0.35994 0.45686 0.29042 0.0
C1999 C 0.36025 0.47268 0.28438 0.0
C2000 C 0.34318 0.44343 0.29687 0.0
C2001 C 0.29868 0.4365 0.31262 0.0
H2002 H 0.27744 0.3821 0.30404 0.0
C2003 C 0.22031 0.37655 0.32676 0.0
C2004 C 0.21693 0.35765 0.32859 0.0
C2005 C 0.23886 0.39136 0.32299 0.0
C2006 C 0.28333 0.39715 0.30681 0.0
H2007 H 0.34352 0.48715 0.2806 0.0
H2008 H 0.3142 0.46371 0.29205 0.0
H2009 H 0.30778 0.4065 0.29441 0.0
H2010 H 0.23014 0.33937 0.32827 0.0
H2011 H 0.26277 0.36529 0.32225 0.0
H2012 H 0.27441 0.42718 0.32518 0.0
C2013 C 0.32693 0.46171 0.29173 0.0
C2014 C 0.30069 0.41115 0.30119 0.0
C2015 C 0.34359 0.475 0.2851 0.0
C2016 C 0.23248 0.35389 0.32695 0.0
C2017 C 0.25109 0.36872 0.32338 0.0
C2018 C 0.28143 0.42245 0.31841 0.0
C2019 C 0.3265 0.44571 0.29757 0.0
C2020 C 0.30845 0.43096 0.30396 0.0
C2021 C 0.25439 0.38752 0.32097 0.0
C2022 C 0.27342 0.40257 0.3155 0.0
H2023 H 0.37254 0.45468 0.28996 0.0
H2024 H 0.34326 0.43126 0.30133 0.0
H2025 H 0.30449 0.4517 0.315 0.0
H2026 H 0.20841 0.37972 0.32771 0.0
H2027 H 0.24069 0.40554 0.32109 0.0
C2028 C 0.51726 0.85457 0.28169 0.0
C2029 C 0.51948 0.87325 0.28136 0.0
C2030 C 0.53163 0.85151 0.28741 0.0
C2031 C 0.57549 0.875 0.30907 0.0
H2032 H 0.58682 0.8368 0.29454 0.0
C2033 C 0.64576 0.87067 0.32081 0.0
C2034 C 0.64297 0.85214 0.32338 0.0
C2035 C 0.63004 0.87282 0.31645 0.0
C2036 C 0.58369 0.84739 0.29878 0.0
H2037 H 0.53866 0.90342 0.28666 0.0
H2038 H 0.564 0.89828 0.29629 0.0
H2039 H 0.56093 0.84151 0.28538 0.0
H2040 H 0.62187 0.82126 0.32274 0.0
H2041 H 0.59442 0.82497 0.31499 0.0
H2042 H 0.59883 0.88123 0.32222 0.0
C2043 C 0.55091 0.88581 0.29248 0.0
C2044 C 0.56876 0.85007 0.29356 0.0
C2045 C 0.5364 0.88881 0.2869 0.0
C2046 C 0.62431 0.83574 0.32114 0.0
C2047 C 0.60866 0.83786 0.31659 0.0
C2048 C 0.5906 0.87248 0.31418 0.0
C2049 C 0.54876 0.8671 0.29282 0.0
C2050 C 0.56445 0.86396 0.2986 0.0
C2051 C 0.61135 0.85642 0.31422 0.0
C2052 C 0.5949 0.85869 0.30907 0.0
H2053 H 0.50426 0.84224 0.27765 0.0
H2054 H 0.52916 0.83683 0.28768 0.0
H2055 H 0.57241 0.88554 0.31342 0.0
H2056 H 0.66011 0.8835 0.32227 0.0
H2057 H 0.63262 0.88728 0.31455 0.0
C2058 C 0.12527 0.65157 0.27286 0.0
C2059 C 0.10912 0.63433 0.27728 0.0
C2060 C 0.13035 0.66951 0.27834 0.0
C2061 C 0.11061 0.69386 0.29866 0.0
H2062 H 0.16597 0.73281 0.30219 0.0
C2063 C 0.13564 0.77219 0.31519 0.0
C2064 C 0.15237 0.78148 0.32305 0.0
C2065 C 0.13034 0.75429 0.30955 0.0
C2066 C 0.15044 0.72204 0.30141 0.0
H2067 H 0.08553 0.62259 0.29087 0.0
H2068 H 0.09489 0.65372 0.30075 0.0
H2069 H 0.15677 0.70138 0.29288 0.0
H2070 H 0.17694 0.7794 0.33085 0.0
H2071 H 0.16721 0.74788 0.32154 0.0
H2072 H 0.10431 0.71425 0.30765 0.0
C2073 C 0.10341 0.65344 0.29288 0.0
C2074 C 0.14514 0.70408 0.29588 0.0
C2075 C 0.09821 0.63551 0.28732 0.0
C2076 C 0.16375 0.77251 0.32506 0.0
C2077 C 0.15832 0.75452 0.31955 0.0
C2078 C 0.11591 0.71175 0.3043 0.0
C2079 C 0.11955 0.67068 0.28845 0.0
C2080 C 0.12516 0.68977 0.2944 0.0
C2081 C 0.14156 0.74519 0.3117 0.0
C2082 C 0.1359 0.72609 0.30573 0.0
H2083 H 0.13418 0.65123 0.26525 0.0
H2084 H 0.14269 0.68249 0.27456 0.0
H2085 H 0.09507 0.6833 0.29754 0.0
H2086 H 0.12662 0.77874 0.31334 0.0
H2087 H 0.11756 0.74773 0.30338 0.0
C2088 C 0.79972 0.02795 0.39695 0.0
C2089 C 0.81831 0.03132 0.40093 0.0
C2090 C 0.78607 0.01013 0.3915 0.0
C2091 C 0.77536 0.959 0.38764 0.0
H2092 H 0.74036 0.95749 0.36123 0.0
C2093 C 0.72888 0.89165 0.3561 0.0
C2094 C 0.70868 0.88562 0.35506 0.0
C2095 C 0.74201 0.90944 0.36177 0.0
C2096 C 0.74998 0.95772 0.36865 0.0
H2097 H 0.83746 0.01896 0.40214 0.0
H2098 H 0.81403 0.98812 0.3922 0.0
H2099 H 0.76404 0.98859 0.37081 0.0
H2100 H 0.68646 0.89363 0.35899 0.0
H2101 H 0.7096 0.92498 0.36871 0.0
H2102 H 0.76162 0.92812 0.38509 0.0
C2103 C 0.8096 0.99891 0.39364 0.0
C2104 C 0.7635 0.97551 0.3742 0.0
C2105 C 0.8231 0.01662 0.39927 0.0
C2106 C 0.70192 0.89785 0.35969 0.0
C2107 C 0.71515 0.91581 0.36518 0.0
C2108 C 0.76207 0.94127 0.38194 0.0
C2109 C 0.79084 0.99537 0.38972 0.0
C2110 C 0.77637 0.9764 0.38379 0.0
C2111 C 0.73528 0.92168 0.36635 0.0
C2112 C 0.74925 0.94048 0.37241 0.0
H2113 H 0.79561 0.03902 0.39825 0.0
H2114 H 0.77168 0.00787 0.38885 0.0
H2115 H 0.78468 0.95897 0.39516 0.0
H2116 H 0.73453 0.88252 0.35267 0.0
H2117 H 0.75749 0.91371 0.36248 0.0
C2118 C 0.97712 0.77413 0.39239 0.0
C2119 C 0.97583 0.7889 0.39888 0.0
C2120 C 0.99448 0.77812 0.38621 0.0
C2121 C 0.04824 0.8152 0.38463 0.0
H2122 H 0.04573 0.78605 0.35474 0.0
C2123 C 0.11762 0.8313 0.35585 0.0
C2124 C 0.11958 0.81491 0.3535 0.0
C2125 C 0.09985 0.8291 0.36042 0.0
C2126 C 0.04664 0.79429 0.36309 0.0
H2127 H 0.99159 0.81957 0.40368 0.0
H2128 H 0.02162 0.82674 0.39259 0.0
H2129 H 0.01523 0.78057 0.36447 0.0
H2130 H 0.10476 0.78351 0.3542 0.0
H2131 H 0.07355 0.77961 0.36189 0.0
H2132 H 0.07975 0.82909 0.38305 0.0
C2133 C 0.0095 0.81189 0.39257 0.0
C2134 C 0.02915 0.79107 0.36875 0.0
C2135 C 0.99222 0.80782 0.3989 0.0
C2136 C 0.10349 0.79634 0.35577 0.0
C2137 C 0.08565 0.79412 0.36012 0.0
C2138 C 0.06572 0.8186 0.37886 0.0
C2139 C 0.01097 0.79708 0.38618 0.0
C2140 C 0.02966 0.80126 0.37972 0.0
C2141 C 0.08369 0.81047 0.36264 0.0
C2142 C 0.06512 0.80799 0.36813 0.0
H2143 H 0.96482 0.75936 0.39232 0.0
H2144 H 0.99505 0.7662 0.38166 0.0
H2145 H 0.04939 0.82314 0.39316 0.0
H2146 H 0.12995 0.8458 0.35442 0.0
H2147 H 0.09875 0.84196 0.36225 0.0
C2148 C 0.21008 0.19296 0.40666 0.0
C2149 C 0.22435 0.18962 0.40098 0.0
C2150 C 0.20386 0.20479 0.40095 0.0
C2151 C 0.19759 0.22204 0.371 0.0
H2152 H 0.20242 0.26656 0.38929 0.0
C2153 C 0.18496 0.27999 0.34704 0.0
C2154 C 0.17737 0.28953 0.35421 0.0
C2155 C 0.18993 0.26716 0.35269 0.0
C2156 C 0.20055 0.25399 0.3841 0.0
H2157 H 0.24333 0.19646 0.38478 0.0
H2158 H 0.23172 0.21637 0.37462 0.0
H2159 H 0.21207 0.24507 0.39932 0.0
H2160 H 0.16856 0.29311 0.37272 0.0
H2161 H 0.17621 0.27 0.38256 0.0
H2162 H 0.18546 0.2304 0.35591 0.0
C2163 C 0.2255 0.20981 0.38354 0.0
C2164 C 0.20624 0.24178 0.38985 0.0
C2165 C 0.23203 0.1983 0.38935 0.0
C2166 C 0.17447 0.28588 0.36705 0.0
C2167 C 0.17904 0.27277 0.37267 0.0
C2168 C 0.19151 0.23402 0.36531 0.0
C2169 C 0.21145 0.21323 0.38933 0.0
C2170 C 0.20493 0.22581 0.38332 0.0
C2171 C 0.18711 0.26342 0.36561 0.0
C2172 C 0.19303 0.25026 0.37176 0.0
H2173 H 0.20349 0.18625 0.41546 0.0
H2174 H 0.19288 0.20713 0.40554 0.0
H2175 H 0.19631 0.20968 0.36582 0.0
H2176 H 0.18779 0.28301 0.33718 0.0
H2177 H 0.1965 0.26063 0.34696 0.0
C2178 C 0.64208 0.53944 0.71943 0.0
C2179 C 0.64248 0.52505 0.72683 0.0
C2180 C 0.65859 0.55224 0.71251 0.0
C2181 C 0.70581 0.5591 0.69991 0.0
H2182 H 0.72151 0.61379 0.70084 0.0
C2183 C 0.78465 0.62031 0.68918 0.0
C2184 C 0.78698 0.63656 0.68265 0.0
C2185 C 0.76587 0.60568 0.69264 0.0
C2186 C 0.71715 0.59853 0.70028 0.0
H2187 H 0.66063 0.51294 0.73279 0.0
H2188 H 0.68942 0.5353 0.7208 0.0
H2189 H 0.6908 0.59016 0.71063 0.0
H2190 H 0.77202 0.65098 0.67507 0.0
H2191 H 0.73892 0.62513 0.68087 0.0
H2192 H 0.73247 0.56762 0.68981 0.0
C2193 C 0.67622 0.53647 0.72015 0.0
C2194 C 0.69954 0.58498 0.70591 0.0
C2195 C 0.65972 0.52367 0.72705 0.0
C2196 C 0.77037 0.6382 0.67978 0.0
C2197 C 0.75154 0.62355 0.6832 0.0
C2198 C 0.72344 0.57268 0.69429 0.0
C2199 C 0.6759 0.55097 0.71284 0.0
C2200 C 0.69382 0.56514 0.70597 0.0
C2201 C 0.74911 0.60724 0.68982 0.0
C2202 C 0.72946 0.59258 0.6946 0.0
H2203 H 0.62892 0.54069 0.71889 0.0
H2204 H 0.65775 0.56307 0.70684 0.0
H2205 H 0.70164 0.54389 0.69959 0.0
H2206 H 0.79744 0.61921 0.6919 0.0
H2207 H 0.76456 0.59354 0.69796 0.0
C2208 C 0.46407 0.10478 0.72981 0.0
C2209 C 0.48226 0.12052 0.73388 0.0
C2210 C 0.44978 0.10793 0.72406 0.0
C2211 C 0.44253 0.14446 0.70721 0.0
H2212 H 0.38838 0.11332 0.71812 0.0
C2213 C 0.38076 0.16106 0.69259 0.0
C2214 C 0.36175 0.14517 0.69043 0.0
C2215 C 0.39586 0.15816 0.6973 0.0
C2216 C 0.40335 0.12196 0.71479 0.0
H2217 H 0.49952 0.15203 0.73494 0.0
H2218 H 0.47472 0.15746 0.72472 0.0
H2219 H 0.41389 0.10802 0.72722 0.0
H2220 H 0.34342 0.11395 0.69174 0.0
H2221 H 0.36976 0.10874 0.69962 0.0
H2222 H 0.43193 0.15827 0.69467 0.0
C2223 C 0.4716 0.14267 0.72595 0.0
C2224 C 0.41801 0.11894 0.72005 0.0
C2225 C 0.48585 0.13953 0.7318 0.0
C2226 C 0.35803 0.12641 0.6932 0.0
C2227 C 0.37311 0.12348 0.69781 0.0
C2228 C 0.42781 0.14739 0.70186 0.0
C2229 C 0.45332 0.1269 0.72211 0.0
C2230 C 0.43779 0.13015 0.71635 0.0
C2231 C 0.39221 0.13932 0.70005 0.0
C2232 C 0.408 0.13618 0.70558 0.0
H2233 H 0.46087 0.08995 0.73097 0.0
H2234 H 0.43599 0.09546 0.72104 0.0
H2235 H 0.45759 0.15321 0.70406 0.0
H2236 H 0.38388 0.17574 0.69087 0.0
H2237 H 0.41025 0.17075 0.69907 0.0
C2238 C 0.90395 0.36937 0.72129 0.0
C2239 C 0.89561 0.37031 0.73266 0.0
C2240 C 0.89847 0.35139 0.71571 0.0
C2241 C 0.85978 0.29884 0.71695 0.0
H2242 H 0.89794 0.29251 0.69746 0.0
C2243 C 0.84968 0.22469 0.70018 0.0
C2244 C 0.85108 0.22324 0.68718 0.0
C2245 C 0.85499 0.24263 0.70576 0.0
C2246 C 0.88717 0.29416 0.70285 0.0
H2247 H 0.87543 0.35348 0.74732 0.0
H2248 H 0.86654 0.32201 0.73799 0.0
H2249 H 0.90776 0.32376 0.70749 0.0
H2250 H 0.85984 0.23918 0.66986 0.0
H2251 H 0.8696 0.27077 0.67967 0.0
H2252 H 0.8395 0.26884 0.71265 0.0
C2253 C 0.87673 0.33504 0.73305 0.0
C2254 C 0.89269 0.31208 0.70854 0.0
C2255 C 0.88191 0.35304 0.73848 0.0
C2256 C 0.85827 0.23997 0.67986 0.0
C2257 C 0.864 0.25798 0.68547 0.0
C2258 C 0.85442 0.28082 0.71149 0.0
C2259 C 0.88483 0.33394 0.72153 0.0
C2260 C 0.87904 0.31473 0.71561 0.0
C2261 C 0.86226 0.25941 0.69844 0.0
C2262 C 0.86803 0.27839 0.70435 0.0
H2263 H 0.91442 0.38256 0.7166 0.0
H2264 H 0.90474 0.35124 0.70674 0.0
H2265 H 0.84869 0.30033 0.72207 0.0
H2266 H 0.84418 0.2119 0.70598 0.0
H2267 H 0.85364 0.24346 0.7158 0.0
C2268 C 0.18232 0.97432 0.62182 0.0
C2269 C 0.18829 0.96653 0.61204 0.0
C2270 C 0.1957 0.99203 0.6275 0.0
C2271 C 0.2446 0.03635 0.62273 0.0
H2272 H 0.24069 0.04391 0.65827 0.0
C2273 C 0.30393 0.10249 0.65106 0.0
C2274 C 0.29677 0.11211 0.65865 0.0
C2275 C 0.29089 0.08465 0.64537 0.0
C2276 C 0.24187 0.042 0.64832 0.0
H2277 H 0.21317 0.97152 0.60054 0.0
H2278 H 0.23667 0.00182 0.61082 0.0
H2279 H 0.21778 0.01278 0.64843 0.0
H2280 H 0.27016 0.11065 0.66589 0.0
H2281 H 0.24757 0.07924 0.65634 0.0
H2282 H 0.26907 0.06551 0.62279 0.0
C2283 C 0.22151 0.99448 0.61393 0.0
C2284 C 0.22869 0.02421 0.64265 0.0
C2285 C 0.20806 0.97689 0.60815 0.0
C2286 C 0.27627 0.10348 0.66039 0.0
C2287 C 0.26329 0.0855 0.65487 0.0
C2288 C 0.25795 0.05404 0.62845 0.0
C2289 C 0.2155 0.00233 0.62366 0.0
C2290 C 0.22979 0.02118 0.62976 0.0
C2291 C 0.27047 0.07596 0.64728 0.0
C2292 C 0.25663 0.05706 0.64128 0.0
H2293 H 0.16731 0.96667 0.62521 0.0
H2294 H 0.19042 0.99772 0.63482 0.0
H2295 H 0.2457 0.03472 0.61275 0.0
H2296 H 0.3196 0.10872 0.64946 0.0
H2297 H 0.29679 0.07752 0.6396 0.0
C2298 C 0.01205 0.19225 0.61868 0.0
C2299 C 0.02797 0.21112 0.61666 0.0
C2300 C 0.99478 0.18944 0.62447 0.0
C2301 C 0.96635 0.21428 0.63016 0.0
H2302 H 0.93905 0.17451 0.65505 0.0
C2303 C 0.89899 0.20811 0.65583 0.0
C2304 C 0.88308 0.18944 0.65805 0.0
C2305 C 0.91708 0.21065 0.65176 0.0
C2306 C 0.94636 0.18554 0.64801 0.0
H2307 H 0.03828 0.2418 0.61966 0.0
H2308 H 0.00814 0.23689 0.62952 0.0
H2309 H 0.96972 0.17895 0.64603 0.0
H2310 H 0.87333 0.15868 0.65732 0.0
H2311 H 0.90487 0.163 0.65007 0.0
H2312 H 0.94296 0.22067 0.63186 0.0
C2313 C 0.00893 0.22426 0.62648 0.0
C2314 C 0.96397 0.1881 0.64286 0.0
C2315 C 0.02622 0.22707 0.62077 0.0
C2316 C 0.88552 0.17328 0.65601 0.0
C2317 C 0.90362 0.17579 0.65184 0.0
C2318 C 0.94873 0.21164 0.63522 0.0
C2319 C 0.99293 0.20542 0.62832 0.0
C2320 C 0.97421 0.20256 0.63389 0.0
C2321 C 0.91959 0.19452 0.64951 0.0
C2322 C 0.9385 0.19728 0.64425 0.0
H2323 H 0.01269 0.1796 0.6155 0.0
H2324 H 0.98265 0.17474 0.62562 0.0
H2325 H 0.97364 0.22531 0.62311 0.0
H2326 H 0.89739 0.22079 0.65723 0.0
H2327 H 0.92909 0.22531 0.65029 0.0
C2328 C 0.76836 0.80777 0.63368 0.0
C2329 C 0.7633 0.80481 0.6209 0.0
C2330 C 0.77254 0.79494 0.64011 0.0
C2331 C 0.76804 0.74597 0.63721 0.0
H2332 H 0.81139 0.76715 0.66124 0.0
C2333 C 0.81358 0.70997 0.64933 0.0
C2334 C 0.81359 0.70505 0.66189 0.0
C2335 C 0.80599 0.72182 0.64582 0.0
C2336 C 0.79908 0.76106 0.65468 0.0
H2337 H 0.75884 0.78634 0.60479 0.0
H2338 H 0.76675 0.76436 0.61581 0.0
H2339 H 0.8005 0.78841 0.65206 0.0
H2340 H 0.80645 0.70925 0.68077 0.0
H2341 H 0.79398 0.73104 0.67468 0.0
H2342 H 0.76757 0.71891 0.6393 0.0
C2343 C 0.76686 0.77613 0.62105 0.0
C2344 C 0.79277 0.77316 0.64944 0.0
C2345 C 0.76242 0.78878 0.61469 0.0
C2346 C 0.80674 0.71297 0.67104 0.0
C2347 C 0.79949 0.72525 0.66756 0.0
C2348 C 0.77459 0.73401 0.64227 0.0
C2349 C 0.772 0.77903 0.63385 0.0
C2350 C 0.77743 0.76585 0.64043 0.0
C2351 C 0.79874 0.72942 0.65488 0.0
C2352 C 0.79036 0.74154 0.65087 0.0
H2353 H 0.76897 0.81997 0.6387 0.0
H2354 H 0.77614 0.79749 0.64999 0.0
H2355 H 0.75584 0.73967 0.63058 0.0
H2356 H 0.81971 0.70488 0.64221 0.0
H2357 H 0.80594 0.7252 0.63602 0.0
C2358 C 0.01948 0.81743 0.62275 0.0
C2359 C 0.02785 0.81049 0.61399 0.0
C2360 C 0.0016 0.80464 0.62846 0.0
C2361 C 0.95828 0.75461 0.62463 0.0
H2362 H 0.94649 0.76369 0.65839 0.0
C2363 C 0.89158 0.69752 0.6519 0.0
C2364 C 0.87821 0.70364 0.65524 0.0
C2365 C 0.91057 0.71104 0.64805 0.0
C2366 C 0.94967 0.76108 0.64896 0.0
H2367 H 0.02472 0.78485 0.60464 0.0
H2368 H 0.99411 0.76233 0.615 0.0
H2369 H 0.97861 0.7861 0.64935 0.0
H2370 H 0.87371 0.72829 0.65708 0.0
H2371 H 0.90747 0.75228 0.65075 0.0
H2372 H 0.92955 0.7292 0.62449 0.0
C2373 C 1.00074 0.77769 0.61714 0.0
C2374 C 0.96798 0.77394 0.64371 0.0
C2375 C 0.01836 0.79054 0.61125 0.0
C2376 C 0.88407 0.72344 0.65483 0.0
C2377 C 0.90325 0.73706 0.65121 0.0
C2378 C 0.94022 0.7416 0.62997 0.0
C2379 C 0.99192 0.78457 0.6257 0.0
C2380 C 0.97253 0.77089 0.63145 0.0
C2381 C 0.91647 0.73087 0.64753 0.0
C2382 C 0.93576 0.74473 0.64214 0.0
H2383 H 0.02655 0.83283 0.62495 0.0
H2384 H 0.9952 0.81059 0.63482 0.0
H2385 H 0.96088 0.75197 0.61507 0.0
H2386 H 0.88708 0.68221 0.65186 0.0
H2387 H 0.92053 0.70598 0.6452 0.0
C2388 C 0.20319 0.20813 0.60791 0.0
C2389 C 0.18879 0.20933 0.61513 0.0
C2390 C 0.21746 0.20488 0.61356 0.0
C2391 C 0.24407 0.2106 0.64306 0.0
H2392 H 0.25513 0.17205 0.62874 0.0
C2393 C 0.29235 0.17085 0.65543 0.0
C2394 C 0.31109 0.18717 0.65758 0.0
C2395 C 0.27678 0.17308 0.65088 0.0
C2396 C 0.25213 0.18279 0.63289 0.0
H2397 H 0.17835 0.20792 0.6341 0.0
H2398 H 0.20369 0.20289 0.64394 0.0
H2399 H 0.22918 0.17685 0.61953 0.0
H2400 H 0.32847 0.21849 0.65631 0.0
H2401 H 0.3011 0.22248 0.64859 0.0
H2402 H 0.26731 0.21675 0.65629 0.0
C2403 C 0.20379 0.20444 0.63387 0.0
C2404 C 0.23739 0.18564 0.62756 0.0
C2405 C 0.18931 0.20742 0.62821 0.0
C2406 C 0.31405 0.20573 0.65493 0.0
C2407 C 0.2984 0.208 0.65057 0.0
C2408 C 0.25904 0.20795 0.64828 0.0
C2409 C 0.21795 0.20302 0.6266 0.0
C2410 C 0.23324 0.19963 0.63254 0.0
C2411 C 0.27962 0.19168 0.64842 0.0
C2412 C 0.26328 0.19406 0.64321 0.0
H2413 H 0.20366 0.20997 0.59787 0.0
H2414 H 0.22836 0.20415 0.60772 0.0
H2415 H 0.24128 0.22155 0.64708 0.0
H2416 H 0.28978 0.15634 0.65708 0.0
H2417 H 0.26247 0.16025 0.64933 0.0
C2418 C 0.78565 0.97242 0.62278 0.0
C2419 C 0.77358 0.96594 0.61203 0.0
C2420 C 0.79138 0.99069 0.62798 0.0
C2421 C 0.77653 0.027 0.63118 0.0
H2422 H 0.83203 0.06347 0.63733 0.0
C2423 C 0.80331 0.10561 0.64771 0.0
C2424 C 0.81935 0.11428 0.65615 0.0
C2425 C 0.79787 0.08768 0.64209 0.0
C2426 C 0.81644 0.05338 0.63589 0.0
H2427 H 0.75777 0.97316 0.59835 0.0
H2428 H 0.76744 0.00505 0.60765 0.0
H2429 H 0.82205 0.03157 0.62828 0.0
H2430 H 0.84266 0.11109 0.66492 0.0
H2431 H 0.83248 0.0794 0.6558 0.0
H2432 H 0.77069 0.04832 0.63916 0.0
C2433 C 0.77259 0.99604 0.61195 0.0
C2434 C 0.81078 0.03517 0.63063 0.0
C2435 C 0.76716 0.97792 0.60662 0.0
C2436 C 0.82994 0.10467 0.65872 0.0
C2437 C 0.82429 0.08658 0.65328 0.0
C2438 C 0.78214 0.04507 0.63665 0.0
C2439 C 0.78483 0.0026 0.62263 0.0
C2440 C 0.79079 0.02186 0.6282 0.0
C2441 C 0.80819 0.07783 0.64488 0.0
C2442 C 0.80219 0.05855 0.63905 0.0
H2443 H 0.79085 0.96345 0.62707 0.0
H2444 H 0.80075 0.99542 0.63626 0.0
H2445 H 0.76099 0.01686 0.6295 0.0
H2446 H 0.79494 0.11269 0.64538 0.0
H2447 H 0.78568 0.08166 0.63546 0.0
C2448 C 0.4677 0.35589 0.74007 0.0
C2449 C 0.48676 0.36675 0.73517 0.0
C2450 C 0.45391 0.33824 0.73449 0.0
C2451 C 0.44431 0.30924 0.70501 0.0
H2452 H 0.40633 0.26717 0.72553 0.0
C2453 C 0.39727 0.22979 0.68756 0.0
C2454 C 0.37681 0.221 0.6895 0.0
C2455 C 0.41028 0.24777 0.69304 0.0
C2456 C 0.41679 0.27887 0.7197 0.0
H2457 H 0.5066 0.36756 0.72083 0.0
H2458 H 0.48293 0.33641 0.71138 0.0
H2459 H 0.43014 0.29798 0.73538 0.0
H2460 H 0.3541 0.22409 0.69913 0.0
H2461 H 0.37701 0.25528 0.709 0.0
H2462 H 0.43131 0.28969 0.6894 0.0
C2463 C 0.47825 0.34174 0.71924 0.0
C2464 C 0.43038 0.29658 0.72531 0.0
C2465 C 0.4919 0.35954 0.7247 0.0
C2466 C 0.36973 0.23045 0.69734 0.0
C2467 C 0.38282 0.24828 0.70303 0.0
C2468 C 0.43095 0.29143 0.69945 0.0
C2469 C 0.459 0.33089 0.724 0.0
C2470 C 0.44436 0.31203 0.71804 0.0
C2471 C 0.40318 0.25715 0.70084 0.0
C2472 C 0.41708 0.2761 0.70674 0.0
H2473 H 0.46335 0.36127 0.74808 0.0
H2474 H 0.43918 0.33054 0.7383 0.0
H2475 H 0.45449 0.32087 0.69904 0.0
H2476 H 0.40333 0.22273 0.6819 0.0
H2477 H 0.42596 0.2542 0.69136 0.0
C2478 C 0.64407 0.10751 0.72488 0.0
C2479 C 0.64284 0.12229 0.73139 0.0
C2480 C 0.66139 0.11148 0.71865 0.0
C2481 C 0.71515 0.14849 0.71706 0.0
H2482 H 0.71264 0.11926 0.68722 0.0
C2483 C 0.7846 0.16436 0.68849 0.0
C2484 C 0.78654 0.14794 0.68623 0.0
C2485 C 0.76679 0.16222 0.69295 0.0
C2486 C 0.71355 0.12753 0.69555 0.0
H2487 H 0.65863 0.15297 0.73615 0.0
H2488 H 0.68858 0.1601 0.72498 0.0
H2489 H 0.68213 0.11386 0.69691 0.0
H2490 H 0.77164 0.11654 0.68697 0.0
H2491 H 0.74038 0.11274 0.69448 0.0
H2492 H 0.74665 0.16232 0.71551 0.0
C2493 C 0.67645 0.14526 0.72498 0.0
C2494 C 0.69605 0.12435 0.70119 0.0
C2495 C 0.65923 0.14121 0.73136 0.0
C2496 C 0.77039 0.12939 0.68847 0.0
C2497 C 0.75251 0.12724 0.69272 0.0
C2498 C 0.73263 0.15185 0.71131 0.0
C2499 C 0.67788 0.13042 0.7186 0.0
C2500 C 0.69656 0.13457 0.71215 0.0
C2501 C 0.75059 0.14362 0.69516 0.0
C2502 C 0.73202 0.14121 0.70061 0.0
H2503 H 0.63176 0.09273 0.72484 0.0
H2504 H 0.66193 0.09953 0.7141 0.0
H2505 H 0.7163 0.15645 0.72558 0.0
H2506 H 0.79696 0.17885 0.68708 0.0
H2507 H 0.76571 0.17511 0.69474 0.0
C2508 C 0.90572 0.54647 0.72981 0.0
C2509 C 0.89854 0.52718 0.72581 0.0
C2510 C 0.90127 0.55881 0.72303 0.0
C2511 C 0.86479 0.55859 0.70138 0.0
H2512 H 0.90574 0.61144 0.69452 0.0
C2513 C 0.84813 0.61111 0.67369 0.0
C2514 C 0.85694 0.63029 0.67832 0.0
C2515 C 0.85409 0.59832 0.6782 0.0
C2516 C 0.89408 0.59678 0.69645 0.0
H2517 H 0.88093 0.50561 0.71167 0.0
H2518 H 0.87304 0.52718 0.69985 0.0
H2519 H 0.91424 0.5895 0.70518 0.0
H2520 H 0.87922 0.65114 0.69115 0.0
H2521 H 0.88918 0.62884 0.69918 0.0
H2522 H 0.84449 0.56596 0.69304 0.0
C2523 C 0.88214 0.53274 0.70821 0.0
C2524 C 0.89898 0.58422 0.70254 0.0
C2525 C 0.88677 0.52046 0.71492 0.0
C2526 C 0.87212 0.6365 0.68733 0.0
C2527 C 0.87796 0.6237 0.69189 0.0
C2528 C 0.85984 0.57121 0.69539 0.0
C2529 C 0.88939 0.55205 0.71219 0.0
C2530 C 0.88435 0.56507 0.70518 0.0
C2531 C 0.86891 0.60439 0.68748 0.0
C2532 C 0.87439 0.59054 0.69298 0.0
H2533 H 0.91494 0.55208 0.73812 0.0
H2534 H 0.9069 0.57358 0.72637 0.0
H2535 H 0.85318 0.54394 0.7034 0.0
H2536 H 0.83646 0.6059 0.66669 0.0
H2537 H 0.84701 0.58363 0.67445 0.0
C2538 C 0.48071 0.94875 0.18646 0.0
C2539 C 0.46728 0.92887 0.18801 0.0
C2540 C 0.4853 0.95683 0.1745 0.0
C2541 C 0.4814 0.94367 0.14043 0.0
H2542 H 0.49376 0.99711 0.13658 0.0
C2543 C 0.49135 0.98276 0.09239 0.0
C2544 C 0.50835 0.00129 0.09158 0.0
C2545 C 0.48594 0.97288 0.10382 0.0
C2546 C 0.49041 0.98219 0.13752 0.0
H2547 H 0.44802 0.90185 0.17824 0.0
H2548 H 0.4554 0.91599 0.15737 0.0
H2549 H 0.48458 0.98201 0.15702 0.0
H2550 H 0.53353 0.02327 0.10219 0.0
H2551 H 0.52366 0.00642 0.12204 0.0
H2552 H 0.48674 0.94393 0.1207 0.0
C2553 C 0.46288 0.92534 0.16534 0.0
C2554 C 0.48527 0.97351 0.14928 0.0
C2555 C 0.45854 0.91721 0.17732 0.0
C2556 C 0.52002 0.00935 0.10244 0.0
C2557 C 0.51445 -0.00035 0.11385 0.0
C2558 C 0.48624 0.9523 0.12859 0.0
C2559 C 0.47632 0.94532 0.16374 0.0
C2560 C 0.48096 0.9542 0.15099 0.0
C2561 C 0.49726 0.98141 0.11471 0.0
C2562 C 0.49106 0.97174 0.12706 0.0
H2563 H 0.48792 0.95805 0.19451 0.0
H2564 H 0.49611 0.97212 0.17374 0.0
H2565 H 0.47846 0.92889 0.14131 0.0
H2566 H 0.48186 0.9761 0.0843 0.0
H2567 H 0.47257 0.95885 0.10422 0.0
C2568 C 0.05058 0.51672 0.17795 0.0
C2569 C 0.03943 0.51657 0.18823 0.0
C2570 C 0.04243 0.51294 0.16589 0.0
C2571 C 0.99448 0.49362 0.14851 0.0
H2572 H 0.02898 0.52163 0.121 0.0
C2573 C 0.96737 0.49995 0.09902 0.0
C2574 C 0.97564 0.49497 0.08897 0.0
C2575 C 0.97475 0.50165 0.11119 0.0
C2576 C 0.01922 0.51364 0.1286 0.0
H2577 H 0.01114 0.51241 0.19409 0.0
H2578 H 0.99708 0.50662 0.17301 0.0
H2579 H 0.04255 0.52653 0.14214 0.0
H2580 H 0.99801 0.4875 0.08406 0.0
H2581 H 0.01138 0.49141 0.10522 0.0
H2582 H 0.97102 0.48144 0.13486 0.0
C2583 C 0.01189 0.50901 0.1742 0.0
C2584 C 0.02699 0.51631 0.14072 0.0
C2585 C 0.01995 0.51242 0.18629 0.0
C2586 C 0.99152 0.4918 0.09145 0.0
C2587 C 0.99912 0.49388 0.10358 0.0
C2588 C 0.98667 0.49126 0.13641 0.0
C2589 C 0.02306 0.50931 0.16381 0.0
C2590 C 0.01474 0.50629 0.15086 0.0
C2591 C 0.99078 0.49878 0.11355 0.0
C2592 C 0.99899 0.5012 0.12636 0.0
H2593 H 0.06559 0.5197 0.17926 0.0
H2594 H 0.05136 0.51283 0.15822 0.0
H2595 H 0.98461 0.48536 0.15599 0.0
H2596 H 0.9554 0.50286 0.09749 0.0
H2597 H 0.96821 0.50564 0.11873 0.0
C2598 C 0.48765 0.53318 0.1837 0.0
C2599 C 0.46847 0.52103 0.1882 0.0
C2600 C 0.49269 0.53088 0.17154 0.0
C2601 C 0.47669 0.49544 0.14513 0.0
H2602 H 0.51392 0.54086 0.12666 0.0
C2603 C 0.49647 0.49247 0.09317 0.0
C2604 C 0.51674 0.5025 0.09046 0.0
C2605 C 0.4898 0.49461 0.10487 0.0
C2606 C 0.50359 0.52804 0.13174 0.0
H2607 H 0.43951 0.49692 0.18328 0.0
H2608 H 0.4481 0.49339 0.16192 0.0
H2609 H 0.50333 0.54494 0.1473 0.0
H2610 H 0.54588 0.52281 0.09779 0.0
H2611 H 0.53423 0.52664 0.1182 0.0
H2612 H 0.47684 0.47862 0.12939 0.0
C2613 C 0.45939 0.50447 0.1679 0.0
C2614 C 0.49755 0.53034 0.1436 0.0
C2615 C 0.45438 0.50666 0.18012 0.0
C2616 C 0.53019 0.51479 0.09965 0.0
C2617 C 0.52351 0.51711 0.11129 0.0
C2618 C 0.48258 0.49316 0.1332 0.0
C2619 C 0.47864 0.51652 0.16346 0.0
C2620 C 0.48422 0.51406 0.15053 0.0
C2621 C 0.50325 0.50702 0.11403 0.0
C2622 C 0.49627 0.50943 0.12645 0.0
H2623 H 0.49884 0.54463 0.18953 0.0
H2624 H 0.50774 0.54027 0.16856 0.0
H2625 H 0.46663 0.48254 0.15024 0.0
H2626 H 0.48579 0.48282 0.08628 0.0
H2627 H 0.4741 0.48674 0.10671 0.0
C2628 C 0.96745 0.49957 0.82909 0.0
C2629 C 0.96625 0.48462 0.82134 0.0
C2630 C 0.97445 0.50178 0.84141 0.0
C2631 C 0.98339 0.47487 0.86659 0.0
H2632 H 0.01589 0.52634 0.88104 0.0
C2633 C 0.02675 0.48847 0.91296 0.0
C2634 C 0.02537 0.50107 0.92166 0.0
C2635 C 0.01923 0.48658 0.90082 0.0
C2636 C 0.00669 0.51188 0.87715 0.0
H2637 H 0.97143 0.46019 0.82061 0.0
H2638 H 0.9844 0.46457 0.84179 0.0
H2639 H 0.00361 0.52294 0.85959 0.0
H2640 H 0.01533 0.52179 0.92445 0.0
H2641 H 0.00231 0.51861 0.90314 0.0
H2642 H 0.98691 0.46389 0.88408 0.0
C2643 C 0.97955 0.47437 0.83847 0.0
C2644 C 0.99959 0.5099 0.86487 0.0
C2645 C 0.9724 0.47206 0.82621 0.0
C2646 C 0.01647 0.51188 0.91795 0.0
C2647 C 0.00916 0.51017 0.90575 0.0
C2648 C 0.99067 0.47687 0.8788 0.0
C2649 C 0.98056 0.48918 0.84627 0.0
C2650 C 0.98789 0.49136 0.85941 0.0
C2651 C 0.01039 0.49743 0.89709 0.0
C2652 C 0.00243 0.49538 0.88419 0.0
H2653 H 0.96306 0.50966 0.82564 0.0
H2654 H 0.97481 0.51323 0.84718 0.0
H2655 H 0.97408 0.46036 0.86282 0.0
H2656 H 0.0334 0.47985 0.9156 0.0
H2657 H 0.02051 0.47677 0.89431 0.0
C2658 C 0.5228 0.4879 0.82515 0.0
C2659 C 0.53793 0.48341 0.82382 0.0
C2660 C 0.51753 0.49121 0.83701 0.0
C2661 C 0.52276 0.48353 0.87094 0.0
H2662 H 0.50324 0.51953 0.8751 0.0
C2663 C 0.50929 0.50895 0.91912 0.0
C2664 C 0.49046 0.50695 0.92061 0.0
C2665 C 0.51546 0.50622 0.9074 0.0
C2666 C 0.5086 0.50938 0.87404 0.0
H2667 H 0.55982 0.47939 0.83374 0.0
H2668 H 0.55132 0.48601 0.85441 0.0
H2669 H 0.51402 0.51527 0.85455 0.0
H2670 H 0.46333 0.50017 0.91077 0.0
H2671 H 0.47452 0.49628 0.89027 0.0
H2672 H 0.51785 0.47823 0.89061 0.0
C2673 C 0.54296 0.48632 0.84639 0.0
C2674 C 0.51468 0.50682 0.86225 0.0
C2675 C 0.54797 0.48265 0.83454 0.0
C2676 C 0.47806 0.50226 0.91001 0.0
C2677 C 0.4844 0.49991 0.89826 0.0
C2678 C 0.51702 0.48638 0.88277 0.0
C2679 C 0.52753 0.49047 0.84782 0.0
C2680 C 0.52168 0.49371 0.86049 0.0
C2681 C 0.50312 0.50181 0.89685 0.0
C2682 C 0.50973 0.4992 0.8844 0.0
H2683 H 0.51468 0.48833 0.81703 0.0
H2684 H 0.50532 0.49394 0.83768 0.0
H2685 H 0.52767 0.47303 0.86998 0.0
H2686 H 0.51946 0.51293 0.92696 0.0
H2687 H 0.53005 0.50794 0.90653 0.0
C2688 C 0.52406 0.06413 0.83532 0.0
C2689 C 0.53749 0.06292 0.82719 0.0
C2690 C 0.52044 0.05562 0.84717 0.0
C2691 C 0.51982 0.01584 0.86417 0.0
H2692 H 0.52383 0.04498 0.89435 0.0
C2693 C 0.50923 0.98039 0.91259 0.0
C2694 C 0.50065 0.98579 0.92215 0.0
C2695 C 0.51489 0.9907 0.90138 0.0
C2696 C 0.52228 0.03645 0.88604 0.0
H2697 H 0.55754 0.05173 0.82505 0.0
H2698 H 0.55077 0.03634 0.84564 0.0
H2699 H 0.53084 0.06101 0.87409 0.0
H2700 H 0.4912 0.00613 0.92757 0.0
H2701 H 0.50014 0.02365 0.9078 0.0
H2702 H 0.51039 0.99106 0.8758 0.0
C2703 C 0.54325 0.0441 0.84289 0.0
C2704 C 0.52645 0.04574 0.87442 0.0
C2705 C 0.5472 0.05298 0.83115 0.0
C2706 C 0.49799 0.00182 0.92035 0.0
C2707 C 0.50324 0.01191 0.90901 0.0
C2708 C 0.51525 0.00643 0.87572 0.0
C2709 C 0.52985 0.04534 0.85103 0.0
C2710 C 0.52537 0.03555 0.86338 0.0
C2711 C 0.51164 0.0064 0.89927 0.0
C2712 C 0.51652 0.01659 0.88689 0.0
H2713 H 0.51643 0.07177 0.83252 0.0
H2714 H 0.50996 0.05671 0.85323 0.0
H2715 H 0.51861 0.00756 0.85578 0.0
H2716 H 0.51152 0.96812 0.9138 0.0
H2717 H 0.5218 0.98624 0.89436 0.0
C2718 C 0.15467 0.26945 0.51633 0.0
C2719 C 0.1358 0.26308 0.52127 0.0
C2720 C 0.1596 0.27783 0.50446 0.0
C2721 C 0.13847 0.28088 0.47426 0.0
H2722 H 0.18827 0.32879 0.47055 0.0
C2723 C 0.15929 0.32542 0.42833 0.0
C2724 C 0.17929 0.33564 0.42495 0.0
C2725 C 0.1536 0.31599 0.43988 0.0
C2726 C 0.17445 0.31524 0.47131 0.0
H2727 H 0.10717 0.26016 0.51747 0.0
H2728 H 0.11574 0.27465 0.49666 0.0
H2729 H 0.17917 0.31332 0.49089 0.0
H2730 H 0.20888 0.34321 0.43078 0.0
H2731 H 0.19902 0.32633 0.45065 0.0
H2732 H 0.13387 0.28253 0.45464 0.0
C2733 C 0.12672 0.2732 0.50202 0.0
C2734 C 0.1692 0.30642 0.48303 0.0
C2735 C 0.12187 0.26504 0.51397 0.0
C2736 C 0.19339 0.33573 0.43321 0.0
C2737 C 0.1877 0.32612 0.44466 0.0
C2738 C 0.14382 0.28959 0.46248 0.0
C2739 C 0.14571 0.27984 0.49717 0.0
C2740 C 0.15116 0.28914 0.48465 0.0
C2741 C 0.16776 0.31634 0.44827 0.0
C2742 C 0.16191 0.30691 0.46082 0.0
H2743 H 0.16578 0.26828 0.52175 0.0
H2744 H 0.17429 0.28266 0.50096 0.0
H2745 H 0.12454 0.26747 0.47518 0.0
H2746 H 0.14811 0.32522 0.4222 0.0
H2747 H 0.13814 0.30886 0.44234 0.0
C2748 C 0.71941 0.8502 0.51241 0.0
C2749 C 0.70813 0.85007 0.52261 0.0
C2750 C 0.71157 0.84681 0.50027 0.0
C2751 C 0.66393 0.82829 0.48265 0.0
H2752 H 0.6988 0.85578 0.45517 0.0
C2753 C 0.63709 0.83477 0.43319 0.0
C2754 C 0.64495 0.82926 0.42318 0.0
C2755 C 0.64465 0.83668 0.44533 0.0
C2756 C 0.68895 0.84795 0.46277 0.0
H2757 H 0.67998 0.84657 0.5282 0.0
H2758 H 0.6665 0.8415 0.50702 0.0
H2759 H 0.71224 0.86047 0.47636 0.0
H2760 H 0.6669 0.82118 0.4183 0.0
H2761 H 0.6806 0.82545 0.43939 0.0
H2762 H 0.64053 0.81645 0.46897 0.0
C2763 C 0.68115 0.8435 0.50833 0.0
C2764 C 0.69663 0.8505 0.47492 0.0
C2765 C 0.68888 0.84651 0.52048 0.0
C2766 C 0.6607 0.82587 0.42566 0.0
C2767 C 0.6685 0.82817 0.43775 0.0
C2768 C 0.65621 0.82605 0.47053 0.0
C2769 C 0.69238 0.84361 0.49803 0.0
C2770 C 0.68423 0.84069 0.48504 0.0
C2771 C 0.66048 0.8335 0.44769 0.0
C2772 C 0.66866 0.83583 0.4605 0.0
H2773 H 0.73426 0.85275 0.51385 0.0
H2774 H 0.72055 0.8466 0.49266 0.0
H2775 H 0.65394 0.82015 0.4901 0.0
H2776 H 0.62525 0.83787 0.43167 0.0
H2777 H 0.63837 0.84101 0.45284 0.0
C2778 C 0.16208 0.86581 0.51764 0.0
C2779 C 0.14297 0.85357 0.5222 0.0
C2780 C 0.16712 0.86331 0.50553 0.0
C2781 C 0.15113 0.82756 0.47924 0.0
H2782 H 0.18662 0.87313 0.46023 0.0
C2783 C 0.16744 0.82467 0.42663 0.0
C2784 C 0.18746 0.83499 0.4233 0.0
C2785 C 0.1616 0.82672 0.43863 0.0
C2786 C 0.1768 0.86027 0.46546 0.0
H2787 H 0.11423 0.8289 0.51753 0.0
H2788 H 0.12279 0.82503 0.49626 0.0
H2789 H 0.17697 0.87711 0.48119 0.0
H2790 H 0.217 0.85572 0.42982 0.0
H2791 H 0.20677 0.85941 0.45075 0.0
H2792 H 0.15077 0.8108 0.46332 0.0
C2793 C 0.13403 0.83636 0.50214 0.0
C2794 C 0.17131 0.86252 0.4775 0.0
C2795 C 0.12902 0.83876 0.51431 0.0
C2796 C 0.20149 0.84748 0.43217 0.0
C2797 C 0.19562 0.84971 0.4441 0.0
C2798 C 0.15647 0.82534 0.46713 0.0
C2799 C 0.15314 0.84863 0.49758 0.0
C2800 C 0.15853 0.84619 0.4846 0.0
C2801 C 0.17563 0.83932 0.44746 0.0
C2802 C 0.16948 0.84166 0.46016 0.0
H2803 H 0.17315 0.87757 0.52335 0.0
H2804 H 0.18208 0.87286 0.50244 0.0
H2805 H 0.14152 0.81464 0.48447 0.0
H2806 H 0.15633 0.81486 0.42 0.0
H2807 H 0.14607 0.81863 0.44095 0.0
C2808 C 0.63636 0.83225 0.16355 0.0
C2809 C 0.63491 0.81724 0.15575 0.0
C2810 C 0.64305 0.8341 0.17593 0.0
C2811 C 0.65081 0.8063 0.20108 0.0
H2812 H 0.68447 0.85744 0.21567 0.0
C2813 C 0.69418 0.81833 0.24727 0.0
C2814 C 0.69326 0.83105 0.25608 0.0
C2815 C 0.68667 0.8168 0.23516 0.0
C2816 C 0.67494 0.84307 0.21174 0.0
H2817 H 0.63919 0.79225 0.15501 0.0
H2818 H 0.65162 0.79599 0.17629 0.0
H2819 H 0.6722 0.85453 0.19425 0.0
H2820 H 0.68407 0.85239 0.25908 0.0
H2821 H 0.67109 0.84984 0.23782 0.0
H2822 H 0.654 0.79491 0.21849 0.0
C2823 C 0.64723 0.80614 0.17296 0.0
C2824 C 0.66784 0.84138 0.19948 0.0
C2825 C 0.64039 0.80419 0.16064 0.0
C2826 C 0.68486 0.84237 0.25249 0.0
C2827 C 0.67757 0.84102 0.24033 0.0
C2828 C 0.65808 0.80801 0.21326 0.0
C2829 C 0.64857 0.82106 0.1808 0.0
C2830 C 0.65575 0.82296 0.19396 0.0
C2831 C 0.6783 0.82813 0.23156 0.0
C2832 C 0.67029 0.8264 0.2187 0.0
H2833 H 0.63247 0.84269 0.16008 0.0
H2834 H 0.64367 0.84565 0.18171 0.0
H2835 H 0.64119 0.79188 0.19727 0.0
H2836 H 0.70043 0.80933 0.2498 0.0
H2837 H 0.68757 0.80686 0.22856 0.0
C2838 C 0.18687 0.82111 0.15868 0.0
C2839 C 0.20197 0.81657 0.15742 0.0
C2840 C 0.18148 0.82438 0.17051 0.0
C2841 C 0.18636 0.81647 0.20447 0.0
H2842 H 0.16675 0.85239 0.20862 0.0
C2843 C 0.17298 0.84187 0.25266 0.0
C2844 C 0.15411 0.83974 0.25421 0.0
C2845 C 0.17911 0.83919 0.24091 0.0
C2846 C 0.17214 0.84227 0.20756 0.0
H2847 H 0.2237 0.81242 0.16743 0.0
H2848 H 0.21501 0.81898 0.18806 0.0
H2849 H 0.17764 0.84822 0.18808 0.0
H2850 H 0.12689 0.83287 0.24444 0.0
H2851 H 0.13803 0.82907 0.22389 0.0
H2852 H 0.1814 0.81112 0.22414 0.0
C2853 C 0.20675 0.81936 0.18001 0.0
C2854 C 0.17828 0.83975 0.19578 0.0
C2855 C 0.21187 0.81573 0.16818 0.0
C2856 C 0.14165 0.83503 0.24363 0.0
C2857 C 0.14795 0.83273 0.23185 0.0
C2858 C 0.18057 0.81928 0.2163 0.0
C2859 C 0.19133 0.82353 0.18137 0.0
C2860 C 0.18534 0.82669 0.19403 0.0
C2861 C 0.1667 0.83472 0.23039 0.0
C2862 C 0.17327 0.83209 0.21793 0.0
H2863 H 0.17885 0.82162 0.15052 0.0
H2864 H 0.16928 0.82714 0.17112 0.0
H2865 H 0.1913 0.80599 0.20352 0.0
H2866 H 0.18321 0.84589 0.26046 0.0
H2867 H 0.19372 0.84098 0.23999 0.0
C2868 C 0.21334 0.39403 0.16289 0.0
C2869 C 0.20336 0.40337 0.15832 0.0
C2870 C 0.20907 0.38555 0.17474 0.0
C2871 C 0.18996 0.38734 0.20554 0.0
H2872 H 0.17611 0.33331 0.20801 0.0
C2873 C 0.15948 0.34406 0.25141 0.0
C2874 C 0.16334 0.32896 0.254 0.0
C2875 C 0.16503 0.35377 0.23996 0.0
C2876 C 0.18032 0.34852 0.20762 0.0
H2877 H 0.18148 0.41161 0.16269 0.0
H2878 H 0.17437 0.39717 0.18358 0.0
H2879 H 0.1851 0.34933 0.18784 0.0
H2880 H 0.17675 0.31271 0.24695 0.0
H2881 H 0.18733 0.33016 0.22729 0.0
H2882 H 0.18585 0.38686 0.22533 0.0
C2883 C 0.18534 0.39627 0.17791 0.0
C2884 C 0.18535 0.35765 0.19599 0.0
C2885 C 0.18932 0.40441 0.16596 0.0
C2886 C 0.17338 0.32415 0.24511 0.0
C2887 C 0.17929 0.33409 0.23378 0.0
C2888 C 0.1853 0.37833 0.21724 0.0
C2889 C 0.19502 0.38657 0.18237 0.0
C2890 C 0.19012 0.37711 0.19481 0.0
C2891 C 0.17492 0.34885 0.23091 0.0
C2892 C 0.18031 0.35872 0.21847 0.0
H2893 H 0.22414 0.39293 0.15717 0.0
H2894 H 0.21681 0.37823 0.17797 0.0
H2895 H 0.19374 0.40242 0.2049 0.0
H2896 H 0.15161 0.34794 0.25809 0.0
H2897 H 0.16107 0.36478 0.23811 0.0
C2898 C 0.7876 0.59552 0.84337 0.0
C2899 C 0.80158 0.5947 0.8513 0.0
C2900 C 0.79287 0.6034 0.83136 0.0
C2901 C 0.8355 0.63802 0.81322 0.0
H2902 H 0.80374 0.61116 0.78395 0.0
C2903 C 0.86285 0.66733 0.76385 0.0
C2904 C 0.84898 0.66552 0.75475 0.0
C2905 C 0.8567 0.65774 0.77528 0.0
C2906 C 0.81267 0.61905 0.79202 0.0
H2907 H 0.83208 0.60166 0.85289 0.0
H2908 H 0.84135 0.61567 0.83203 0.0
H2909 H 0.79346 0.5966 0.80458 0.0
H2910 H 0.81779 0.65204 0.7504 0.0
H2911 H 0.80691 0.63576 0.77053 0.0
H2912 H 0.85439 0.66074 0.80091 0.0
C2913 C 0.82628 0.6101 0.83506 0.0
C2914 C 0.80678 0.61062 0.80385 0.0
C2915 C 0.82094 0.60196 0.84697 0.0
C2916 C 0.8288 0.65357 0.75722 0.0
C2917 C 0.8226 0.6442 0.76877 0.0
C2918 C 0.84124 0.64657 0.80145 0.0
C2919 C 0.81233 0.61093 0.82712 0.0
C2920 C 0.81822 0.61995 0.81456 0.0
C2921 C 0.83647 0.64633 0.77804 0.0
C2922 C 0.83003 0.63716 0.79063 0.0
H2923 H 0.77254 0.58994 0.84642 0.0
H2924 H 0.78183 0.60394 0.82548 0.0
H2925 H 0.84447 0.64571 0.82132 0.0
H2926 H 0.87852 0.67624 0.76212 0.0
H2927 H 0.8679 0.65935 0.78195 0.0
C2928 C 0.35572 0.17198 0.85355 0.0
C2929 C 0.37554 0.18598 0.85608 0.0
C2930 C 0.34811 0.16903 0.84136 0.0
C2931 C 0.35573 0.19426 0.81163 0.0
H2932 H 0.32234 0.14265 0.79756 0.0
C2933 C 0.32046 0.15716 0.76076 0.0
C2934 C 0.31184 0.16829 0.7572 0.0
C2935 C 0.32789 0.15866 0.77289 0.0
C2936 C 0.3317 0.15714 0.80136 0.0
H2937 H 0.40307 0.2073 0.84763 0.0
H2938 H 0.38964 0.20241 0.82643 0.0
H2939 H 0.33644 0.14631 0.81859 0.0
H2940 H 0.30426 0.18972 0.76352 0.0
H2941 H 0.31731 0.19239 0.78473 0.0
H2942 H 0.35098 0.20511 0.79445 0.0
C2943 C 0.37998 0.19387 0.83392 0.0
C2944 C 0.33964 0.15922 0.81341 0.0
C2945 C 0.38764 0.1967 0.84608 0.0
C2946 C 0.31069 0.18087 0.76603 0.0
C2947 C 0.31831 0.18252 0.77812 0.0
C2948 C 0.34763 0.19217 0.79965 0.0
C2949 C 0.3601 0.18013 0.83145 0.0
C2950 C 0.35177 0.17781 0.81865 0.0
C2951 C 0.32704 0.17148 0.78166 0.0
C2952 C 0.33554 0.1736 0.7944 0.0
H2953 H 0.3459 0.16365 0.86103 0.0
H2954 H 0.33268 0.15848 0.83974 0.0
H2955 H 0.36488 0.20875 0.81547 0.0
H2956 H 0.3214 0.14725 0.75416 0.0
H2957 H 0.33465 0.15008 0.77534 0.0
C2958 C 0.79513 0.1706 0.8476 0.0
C2959 C 0.8091 0.18547 0.85546 0.0
C2960 C 0.80002 0.16827 0.83539 0.0
C2961 C 0.83699 0.19466 0.81062 0.0
H2962 H 0.81675 0.14302 0.79638 0.0
C2963 C 0.86754 0.17996 0.76535 0.0
C2964 C 0.85359 0.16751 0.75643 0.0
C2965 C 0.86156 0.1821 0.77726 0.0
C2966 C 0.82236 0.15753 0.8002 0.0
H2967 H 0.83921 0.20964 0.85647 0.0
H2968 H 0.84796 0.20502 0.83549 0.0
H2969 H 0.8075 0.14672 0.81756 0.0
H2970 H 0.82251 0.14735 0.75302 0.0
H2971 H 0.81205 0.15095 0.77395 0.0
H2972 H 0.85225 0.20538 0.79333 0.0
C2973 C 0.83306 0.19538 0.83865 0.0
C2974 C 0.81703 0.15968 0.81233 0.0
C2975 C 0.82813 0.19783 0.8508 0.0
C2976 C 0.83355 0.15713 0.7597 0.0
C2977 C 0.82759 0.15909 0.77168 0.0
C2978 C 0.84249 0.19249 0.79856 0.0
C2979 C 0.81905 0.18065 0.83074 0.0
C2980 C 0.82434 0.17829 0.81772 0.0
C2981 C 0.84154 0.17166 0.78056 0.0
C2982 C 0.83529 0.17391 0.79325 0.0
H2983 H 0.78041 0.16066 0.85089 0.0
H2984 H 0.78877 0.15689 0.82955 0.0
H2985 H 0.84257 0.20923 0.81432 0.0
H2986 H 0.88306 0.18825 0.76305 0.0
H2987 H 0.87264 0.19178 0.78396 0.0
C2988 C 0.30735 0.16559 0.49829 0.0
C2989 C 0.30597 0.15077 0.49032 0.0
C2990 C 0.31473 0.16765 0.51049 0.0
C2991 C 0.3237 0.14009 0.53509 0.0
H2992 H 0.35577 0.1911 0.55026 0.0
C2993 C 0.36465 0.15188 0.58227 0.0
C2994 C 0.36303 0.16436 0.59095 0.0
C2995 C 0.35785 0.15047 0.56997 0.0
C2996 C 0.3467 0.17676 0.54616 0.0
H2997 H 0.31144 0.12657 0.48902 0.0
H2998 H 0.32502 0.13066 0.51004 0.0
H2999 H 0.34408 0.18837 0.52871 0.0
H3000 H 0.35331 0.18537 0.59354 0.0
H3001 H 0.34148 0.18296 0.572 0.0
H3002 H 0.32663 0.12854 0.5525 0.0
C3003 C 0.32001 0.14046 0.50696 0.0
C3004 C 0.33995 0.17518 0.53383 0.0
C3005 C 0.3125 0.13831 0.4948 0.0
C3006 C 0.35462 0.17553 0.58706 0.0
C3007 C 0.34801 0.17427 0.57473 0.0
C3008 C 0.3306 0.14169 0.54737 0.0
C3009 C 0.32104 0.15503 0.51502 0.0
C3010 C 0.32835 0.15681 0.52813 0.0
C3011 C 0.34947 0.16166 0.56607 0.0
C3012 C 0.34216 0.16003 0.55303 0.0
H3013 H 0.30271 0.17562 0.49511 0.0
H3014 H 0.31511 0.17892 0.51645 0.0
H3015 H 0.31447 0.1257 0.53112 0.0
H3016 H 0.37093 0.14299 0.58503 0.0
H3017 H 0.35931 0.14074 0.56348 0.0
C3018 C 0.85305 0.1484 0.49208 0.0
C3019 C 0.86841 0.14421 0.49087 0.0
C3020 C 0.84759 0.15169 0.50388 0.0
C3021 C 0.85292 0.14498 0.53797 0.0
H3022 H 0.83346 0.18114 0.54141 0.0
C3023 C 0.8402 0.17236 0.58563 0.0
C3024 C 0.82149 0.17063 0.58711 0.0
C3025 C 0.84611 0.16904 0.57399 0.0
C3026 C 0.83879 0.17094 0.54056 0.0
H3027 H 0.89036 0.14049 0.50095 0.0
H3028 H 0.88147 0.14703 0.52154 0.0
H3029 H 0.84406 0.17616 0.521 0.0
H3030 H 0.79428 0.16376 0.57731 0.0
H3031 H 0.80503 0.15881 0.55692 0.0
H3032 H 0.84819 0.14039 0.5577 0.0
C3033 C 0.87313 0.14717 0.51346 0.0
C3034 C 0.84477 0.16796 0.52885 0.0
C3035 C 0.87835 0.14354 0.50167 0.0
C3036 C 0.80894 0.16563 0.57655 0.0
C3037 C 0.81501 0.16267 0.56487 0.0
C3038 C 0.84727 0.14825 0.54972 0.0
C3039 C 0.8576 0.15121 0.51475 0.0
C3040 C 0.85176 0.1548 0.52734 0.0
C3041 C 0.83362 0.1643 0.56349 0.0
C3042 C 0.84001 0.16113 0.5511 0.0
H3043 H 0.84498 0.14875 0.48391 0.0
H3044 H 0.83527 0.15428 0.50444 0.0
H3045 H 0.85785 0.13448 0.5372 0.0
H3046 H 0.85049 0.17659 0.59342 0.0
H3047 H 0.86062 0.17058 0.57313 0.0
C3048 C 0.87947 0.73785 0.50427 0.0
C3049 C 0.86766 0.72789 0.49376 0.0
C3050 C 0.87561 0.72903 0.51605 0.0
C3051 C 0.84741 0.6802 0.53118 0.0
H3052 H 0.85729 0.7108 0.56157 0.0
C3053 C 0.81632 0.64493 0.57874 0.0
C3054 C 0.82998 0.65022 0.58871 0.0
C3055 C 0.82149 0.6554 0.5676 0.0
C3056 C 0.85458 0.70211 0.55315 0.0
H3057 H 0.84248 0.7005 0.48765 0.0
H3058 H 0.83511 0.68576 0.50809 0.0
H3059 H 0.86496 0.72687 0.54126 0.0
H3060 H 0.85964 0.67152 0.59483 0.0
H3061 H 0.86838 0.69023 0.57545 0.0
H3062 H 0.83639 0.6554 0.5431 0.0
C3063 C 0.84776 0.70022 0.50724 0.0
C3064 C 0.85906 0.71131 0.54148 0.0
C3065 C 0.85179 0.7089 0.49546 0.0
C3066 C 0.84865 0.66702 0.58743 0.0
C3067 C 0.85372 0.67771 0.5763 0.0
C3068 C 0.84264 0.67102 0.5428 0.0
C3069 C 0.85967 0.71006 0.51773 0.0
C3070 C 0.85543 0.70047 0.53029 0.0
C3071 C 0.84034 0.67172 0.56616 0.0
C3072 C 0.84606 0.68183 0.55391 0.0
H3073 H 0.89166 0.75257 0.50347 0.0
H3074 H 0.88532 0.73709 0.52379 0.0
H3075 H 0.84488 0.6713 0.5229 0.0
H3076 H 0.80161 0.63248 0.57945 0.0
H3077 H 0.81073 0.65065 0.56005 0.0
loop_
_geom_bond_atom_site_label_1
_geom_bond_atom_site_label_2
_geom_bond_distance
_geom_bond_site_symmetry_2
_ccdc_geom_bond_type
C0 C1 1.386 . S
C0 C2 1.397 . S
C0 H24 0.931 . S
C1 C0 1.386 . S
C1 C5 1.397 . S
C2 C0 1.397 . S
C2 C3 1.384 . S
C2 H25 0.930 . S
C3 C2 1.384 . S
C3 C4 1.377 . S
C3 C6 1.481 . S
C4 C3 1.377 . S
C4 C5 1.389 . S
C4 H26 0.929 . S
C5 C1 1.397 . S
C5 C4 1.389 . S
C5 H27 0.931 . S
C6 C3 1.481 . S
C6 C7 1.387 . S
C6 C11 1.390 . S
C7 C6 1.387 . S
C7 C8 1.401 . S
C7 H28 0.930 . S
C8 C7 1.401 . S
C8 C9 1.376 . S
C8 C17 1.511 . S
C9 C8 1.376 . S
C9 C10 1.392 . S
C9 H30 0.931 . S
C10 C9 1.392 . S
C10 C11 1.361 . S
C10 C12 1.500 . S
C11 C6 1.390 . S
C11 C10 1.361 . S
C11 H29 0.931 . S
C12 C10 1.500 . S
C12 C13 1.371 . S
C12 C14 1.365 . S
C13 C12 1.371 . S
C13 C23 1.386 . S
C13 H31 0.931 . S
C14 C12 1.365 . S
C14 C15 1.409 . S
C14 H32 0.929 . S
C15 C14 1.409 . S
C15 C16 1.380 . S
C15 H33 0.930 . S
C16 C15 1.380 . S
C16 C23 1.357 . S
C17 C8 1.511 . S
C17 C18 1.341 . S
C17 C19 1.371 . S
C18 C17 1.341 . S
C18 C22 1.394 . S
C18 H34 0.930 . S
C19 C17 1.371 . S
C19 C20 1.392 . S
C19 H35 0.931 . S
C20 C19 1.392 . S
C20 C21 1.331 . S
C20 H38 0.932 . S
C21 C20 1.331 . S
C21 C22 1.336 . S
C22 C18 1.394 . S
C22 C21 1.336 . S
C22 H37 0.929 . S
C23 C13 1.386 . S
C23 C16 1.357 . S
C23 H36 0.928 . S
H24 C0 0.931 . S
H25 C2 0.930 . S
H26 C4 0.929 . S
H27 C5 0.931 . S
H28 C7 0.930 . S
H29 C11 0.931 . S
H30 C9 0.931 . S
H31 C13 0.931 . S
H32 C14 0.929 . S
H33 C15 0.930 . S
H34 C18 0.930 . S
H35 C19 0.931 . S
H36 C23 0.928 . S
H37 C22 0.929 . S
H38 C20 0.932 . S
C39 C40 1.386 . S
C39 C41 1.397 . S
C39 H63 0.931 . S
C40 C39 1.386 . S
C40 C44 1.397 . S
C41 C39 1.397 . S
C41 C42 1.384 . S
C41 H64 0.930 . S
C42 C41 1.384 . S
C42 C43 1.377 . S
C42 C45 1.481 . S
C43 C42 1.377 . S
C43 C44 1.389 . S
C43 H65 0.929 . S
C44 C40 1.397 . S
C44 C43 1.389 . S
C44 H66 0.931 . S
C45 C42 1.481 . S
C45 C46 1.387 . S
C45 C50 1.390 . S
C46 C45 1.387 . S
C46 C47 1.401 . S
C46 H67 0.930 . S
C47 C46 1.401 . S
C47 C48 1.376 . S
C47 C56 1.511 . S
C48 C47 1.376 . S
C48 C49 1.392 . S
C48 H69 0.931 . S
C49 C48 1.392 . S
C49 C50 1.361 . S
C49 C51 1.500 . S
C50 C45 1.390 . S
C50 C49 1.361 . S
C50 H68 0.931 . S
C51 C49 1.500 . S
C51 C52 1.371 . S
C51 C53 1.365 . S
C52 C51 1.371 . S
C52 C62 1.386 . S
C52 H70 0.931 . S
C53 C51 1.365 . S
C53 C54 1.409 . S
C53 H71 0.929 . S
C54 C53 1.409 . S
C54 C55 1.380 . S
C54 H72 0.930 . S
C55 C54 1.380 . S
C55 C62 1.357 . S
C56 C47 1.511 . S
C56 C57 1.341 . S
C56 C58 1.371 . S
C57 C56 1.341 . S
C57 C61 1.394 . S
C57 H73 0.930 . S
C58 C56 1.371 . S
C58 C59 1.392 . S
C58 H74 0.931 . S
C59 C58 1.392 . S
C59 C60 1.331 . S
C59 H77 0.932 . S
C60 C59 1.331 . S
C60 C61 1.336 . S
C61 C57 1.394 . S
C61 C60 1.336 . S
C61 H76 0.929 . S
C62 C52 1.386 . S
C62 C55 1.357 . S
C62 H75 0.928 . S
H63 C39 0.931 . S
H64 C41 0.930 . S
H65 C43 0.929 . S
H66 C44 0.931 . S
H67 C46 0.930 . S
H68 C50 0.931 . S
H69 C48 0.931 . S
H70 C52 0.931 . S
H71 C53 0.929 . S
H72 C54 0.930 . S
H73 C57 0.930 . S
H74 C58 0.931 . S
H75 C62 0.928 . S
H76 C61 0.929 . S
H77 C59 0.932 . S
C78 C79 1.386 . S
C78 C80 1.397 . S
C78 H102 0.931 . S
C79 C78 1.386 . S
C79 C83 1.397 . S
C80 C78 1.397 . S
C80 C81 1.384 . S
C80 H103 0.930 . S
C81 C80 1.384 . S
C81 C82 1.377 . S
C81 C84 1.481 . S
C82 C81 1.377 . S
C82 C83 1.389 . S
C82 H104 0.929 . S
C83 C79 1.397 . S
C83 C82 1.389 . S
C83 H105 0.931 . S
C84 C81 1.481 . S
C84 C85 1.387 . S
C84 C89 1.390 . S
C85 C84 1.387 . S
C85 C86 1.401 . S
C85 H106 0.930 . S
C86 C85 1.401 . S
C86 C87 1.376 . S
C86 C95 1.511 . S
C87 C86 1.376 . S
C87 C88 1.392 . S
C87 H108 0.931 . S
C88 C87 1.392 . S
C88 C89 1.361 . S
C88 C90 1.500 . S
C89 C84 1.390 . S
C89 C88 1.361 . S
C89 H107 0.931 . S
C90 C88 1.500 . S
C90 C91 1.371 . S
C90 C92 1.365 . S
C91 C90 1.371 . S
C91 C101 1.386 . S
C91 H109 0.931 . S
C92 C90 1.365 . S
C92 C93 1.409 . S
C92 H110 0.929 . S
C93 C92 1.409 . S
C93 C94 1.380 . S
C93 H111 0.930 . S
C94 C93 1.380 . S
C94 C101 1.357 . S
C95 C86 1.511 . S
C95 C96 1.341 . S
C95 C97 1.371 . S
C96 C95 1.341 . S
C96 C100 1.394 . S
C96 H112 0.930 . S
C97 C95 1.371 . S
C97 C98 1.392 . S
C97 H113 0.931 . S
C98 C97 1.392 . S
C98 C99 1.331 . S
C98 H116 0.932 . S
C99 C98 1.331 . S
C99 C100 1.336 . S
C100 C96 1.394 . S
C100 C99 1.336 . S
C100 H115 0.929 . S
C101 C91 1.386 . S
C101 C94 1.357 . S
C101 H114 0.928 . S
H102 C78 0.931 . S
H103 C80 0.930 . S
H104 C82 0.929 . S
H105 C83 0.931 . S
H106 C85 0.930 . S
H107 C89 0.931 . S
H108 C87 0.931 . S
H109 C91 0.931 . S
H110 C92 0.929 . S
H111 C93 0.930 . S
H112 C96 0.930 . S
H113 C97 0.931 . S
H114 C101 0.928 . S
H115 C100 0.929 . S
H116 C98 0.932 . S
C117 C118 1.386 . S
C117 C119 1.397 . S
C117 H141 0.931 . S
C118 C117 1.386 . S
C118 C122 1.397 . S
C119 C117 1.397 . S
C119 C120 1.384 . S
C119 H142 0.930 . S
C120 C119 1.384 . S
C120 C121 1.377 . S
C120 C123 1.481 . S
C121 C120 1.377 . S
C121 C122 1.389 . S
C121 H143 0.929 . S
C122 C118 1.397 . S
C122 C121 1.389 . S
C122 H144 0.931 . S
C123 C120 1.481 . S
C123 C124 1.387 . S
C123 C128 1.390 . S
C124 C123 1.387 . S
C124 C125 1.401 . S
C124 H145 0.930 . S
C125 C124 1.401 . S
C125 C126 1.376 . S
C125 C134 1.511 . S
C126 C125 1.376 . S
C126 C127 1.392 . S
C126 H147 0.931 . S
C127 C126 1.392 . S
C127 C128 1.361 . S
C127 C129 1.500 . S
C128 C123 1.390 . S
C128 C127 1.361 . S
C128 H146 0.931 . S
C129 C127 1.500 . S
C129 C130 1.371 . S
C129 C131 1.365 . S
C130 C129 1.371 . S
C130 C140 1.386 . S
C130 H148 0.931 . S
C131 C129 1.365 . S
C131 C132 1.409 . S
C131 H149 0.929 . S
C132 C131 1.409 . S
C132 C133 1.380 . S
C132 H150 0.930 . S
C133 C132 1.380 . S
C133 C140 1.357 . S
C134 C125 1.511 . S
C134 C135 1.341 . S
C134 C136 1.371 . S
C135 C134 1.341 . S
C135 C139 1.394 . S
C135 H151 0.930 . S
C136 C134 1.371 . S
C136 C137 1.392 . S
C136 H152 0.931 . S
C137 C136 1.392 . S
C137 C138 1.331 . S
C137 H155 0.932 . S
C138 C137 1.331 . S
C138 C139 1.336 . S
C139 C135 1.394 . S
C139 C138 1.336 . S
C139 H154 0.929 . S
C140 C130 1.386 . S
C140 C133 1.357 . S
C140 H153 0.928 . S
H141 C117 0.931 . S
H142 C119 0.930 . S
H143 C121 0.929 . S
H144 C122 0.931 . S
H145 C124 0.930 . S
H146 C128 0.931 . S
H147 C126 0.931 . S
H148 C130 0.931 . S
H149 C131 0.929 . S
H150 C132 0.930 . S
H151 C135 0.930 . S
H152 C136 0.931 . S
H153 C140 0.928 . S
H154 C139 0.929 . S
H155 C137 0.932 . S
C156 C157 1.386 . S
C156 C158 1.397 . S
C156 H180 0.931 . S
C157 C156 1.386 . S
C157 C161 1.397 . S
C158 C156 1.397 . S
C158 C159 1.384 . S
C158 H181 0.930 . S
C159 C158 1.384 . S
C159 C160 1.377 . S
C159 C162 1.481 . S
C160 C159 1.377 . S
C160 C161 1.389 . S
C160 H182 0.929 . S
C161 C157 1.397 . S
C161 C160 1.389 . S
C161 H183 0.931 . S
C162 C159 1.481 . S
C162 C163 1.387 . S
C162 C167 1.390 . S
C163 C162 1.387 . S
C163 C164 1.401 . S
C163 H184 0.930 . S
C164 C163 1.401 . S
C164 C165 1.376 . S
C164 C173 1.511 . S
C165 C164 1.376 . S
C165 C166 1.392 . S
C165 H186 0.931 . S
C166 C165 1.392 . S
C166 C167 1.361 . S
C166 C168 1.500 . S
C167 C162 1.390 . S
C167 C166 1.361 . S
C167 H185 0.931 . S
C168 C166 1.500 . S
C168 C169 1.371 . S
C168 C170 1.365 . S
C169 C168 1.371 . S
C169 C179 1.386 . S
C169 H187 0.931 . S
C170 C168 1.365 . S
C170 C171 1.409 . S
C170 H188 0.929 . S
C171 C170 1.409 . S
C171 C172 1.380 . S
C171 H189 0.930 . S
C172 C171 1.380 . S
C172 C179 1.357 . S
C173 C164 1.511 . S
C173 C174 1.341 . S
C173 C175 1.371 . S
C174 C173 1.341 . S
C174 C178 1.394 . S
C174 H190 0.930 . S
C175 C173 1.371 . S
C175 C176 1.392 . S
C175 H191 0.931 . S
C176 C175 1.392 . S
C176 C177 1.331 . S
C176 H194 0.932 . S
C177 C176 1.331 . S
C177 C178 1.336 . S
C178 C174 1.394 . S
C178 C177 1.336 . S
C178 H193 0.929 . S
C179 C169 1.386 . S
C179 C172 1.357 . S
C179 H192 0.928 . S
H180 C156 0.931 . S
H181 C158 0.930 . S
H182 C160 0.929 . S
H183 C161 0.931 . S
H184 C163 0.930 . S
H185 C167 0.931 . S
H186 C165 0.931 . S
H187 C169 0.931 . S
H188 C170 0.929 . S
H189 C171 0.930 . S
H190 C174 0.930 . S
H191 C175 0.931 . S
H192 C179 0.928 . S
H193 C178 0.929 . S
H194 C176 0.932 . S
C195 C196 1.386 . S
C195 C197 1.397 . S
C195 H219 0.931 . S
C196 C195 1.386 . S
C196 C200 1.397 . S
C197 C195 1.397 . S
C197 C198 1.384 . S
C197 H220 0.930 . S
C198 C197 1.384 . S
C198 C199 1.377 . S
C198 C201 1.481 . S
C199 C198 1.377 . S
C199 C200 1.389 . S
C199 H221 0.929 . S
C200 C196 1.397 . S
C200 C199 1.389 . S
C200 H222 0.931 . S
C201 C198 1.481 . S
C201 C202 1.387 . S
C201 C206 1.390 . S
C202 C201 1.387 . S
C202 C203 1.401 . S
C202 H223 0.930 . S
C203 C202 1.401 . S
C203 C204 1.376 . S
C203 C212 1.511 . S
C204 C203 1.376 . S
C204 C205 1.392 . S
C204 H225 0.931 . S
C205 C204 1.392 . S
C205 C206 1.361 . S
C205 C207 1.500 . S
C206 C201 1.390 . S
C206 C205 1.361 . S
C206 H224 0.931 . S
C207 C205 1.500 . S
C207 C208 1.371 . S
C207 C209 1.365 . S
C208 C207 1.371 . S
C208 C218 1.386 . S
C208 H226 0.931 . S
C209 C207 1.365 . S
C209 C210 1.409 . S
C209 H227 0.929 . S
C210 C209 1.409 . S
C210 C211 1.380 . S
C210 H228 0.930 . S
C211 C210 1.380 . S
C211 C218 1.357 . S
C212 C203 1.511 . S
C212 C213 1.341 . S
C212 C214 1.371 . S
C213 C212 1.341 . S
C213 C217 1.394 . S
C213 H229 0.930 . S
C214 C212 1.371 . S
C214 C215 1.392 . S
C214 H230 0.931 . S
C215 C214 1.392 . S
C215 C216 1.331 . S
C215 H233 0.932 . S
C216 C215 1.331 . S
C216 C217 1.336 . S
C217 C213 1.394 . S
C217 C216 1.336 . S
C217 H232 0.929 . S
C218 C208 1.386 . S
C218 C211 1.357 . S
C218 H231 0.928 . S
H219 C195 0.931 . S
H220 C197 0.930 . S
H221 C199 0.929 . S
H222 C200 0.931 . S
H223 C202 0.930 . S
H224 C206 0.931 . S
H225 C204 0.931 . S
H226 C208 0.931 . S
H227 C209 0.929 . S
H228 C210 0.930 . S
H229 C213 0.930 . S
H230 C214 0.931 . S
H231 C218 0.928 . S
H232 C217 0.929 . S
H233 C215 0.932 . S
C234 C235 1.386 . S
C234 C236 1.397 . S
C234 H258 0.931 . S
C235 C234 1.386 . S
C235 C239 1.397 . S
C236 C234 1.397 . S
C236 C237 1.384 . S
C236 H259 0.930 . S
C237 C236 1.384 . S
C237 C238 1.377 . S
C237 C240 1.481 . S
C238 C237 1.377 . S
C238 C239 1.389 . S
C238 H260 0.929 . S
C239 C235 1.397 . S
C239 C238 1.389 . S
C239 H261 0.931 . S
C240 C237 1.481 . S
C240 C241 1.387 . S
C240 C245 1.390 . S
C241 C240 1.387 . S
C241 C242 1.401 . S
C241 H262 0.930 . S
C242 C241 1.401 . S
C242 C243 1.376 . S
C242 C251 1.511 . S
C243 C242 1.376 . S
C243 C244 1.392 . S
C243 H264 0.931 . S
C244 C243 1.392 . S
C244 C245 1.361 . S
C244 C246 1.500 . S
C245 C240 1.390 . S
C245 C244 1.361 . S
C245 H263 0.931 . S
C246 C244 1.500 . S
C246 C247 1.371 . S
C246 C248 1.365 . S
C247 C246 1.371 . S
C247 C257 1.386 . S
C247 H265 0.931 . S
C248 C246 1.365 . S
C248 C249 1.409 . S
C248 H266 0.929 . S
C249 C248 1.409 . S
C249 C250 1.380 . S
C249 H267 0.930 . S
C250 C249 1.380 . S
C250 C257 1.357 . S
C251 C242 1.511 . S
C251 C252 1.341 . S
C251 C253 1.371 . S
C252 C251 1.341 . S
C252 C256 1.394 . S
C252 H268 0.930 . S
C253 C251 1.371 . S
C253 C254 1.392 . S
C253 H269 0.931 . S
C254 C253 1.392 . S
C254 C255 1.331 . S
C254 H272 0.932 . S
C255 C254 1.331 . S
C255 C256 1.336 . S
C256 C252 1.394 . S
C256 C255 1.336 . S
C256 H271 0.929 . S
C257 C247 1.386 . S
C257 C250 1.357 . S
C257 H270 0.928 . S
H258 C234 0.931 . S
H259 C236 0.930 . S
H260 C238 0.929 . S
H261 C239 0.931 . S
H262 C241 0.930 . S
H263 C245 0.931 . S
H264 C243 0.931 . S
H265 C247 0.931 . S
H266 C248 0.929 . S
H267 C249 0.930 . S
H268 C252 0.930 . S
H269 C253 0.931 . S
H270 C257 0.928 . S
H271 C256 0.929 . S
H272 C254 0.932 . S
C273 C274 1.386 . S
C273 C275 1.397 . S
C273 H297 0.931 . S
C274 C273 1.386 . S
C274 C278 1.397 . S
C275 C273 1.397 . S
C275 C276 1.384 . S
C275 H298 0.930 . S
C276 C275 1.384 . S
C276 C277 1.377 . S
C276 C279 1.481 . S
C277 C276 1.377 . S
C277 C278 1.389 . S
C277 H299 0.929 . S
C278 C274 1.397 . S
C278 C277 1.389 . S
C278 H300 0.931 . S
C279 C276 1.481 . S
C279 C280 1.387 . S
C279 C284 1.390 . S
C280 C279 1.387 . S
C280 C281 1.401 . S
C280 H301 0.930 . S
C281 C280 1.401 . S
C281 C282 1.376 . S
C281 C290 1.511 . S
C282 C281 1.376 . S
C282 C283 1.392 . S
C282 H303 0.931 . S
C283 C282 1.392 . S
C283 C284 1.361 . S
C283 C285 1.500 . S
C284 C279 1.390 . S
C284 C283 1.361 . S
C284 H302 0.931 . S
C285 C283 1.500 . S
C285 C286 1.371 . S
C285 C287 1.365 . S
C286 C285 1.371 . S
C286 C296 1.386 . S
C286 H304 0.931 . S
C287 C285 1.365 . S
C287 C288 1.409 . S
C287 H305 0.929 . S
C288 C287 1.409 . S
C288 C289 1.380 . S
C288 H306 0.930 . S
C289 C288 1.380 . S
C289 C296 1.357 . S
C290 C281 1.511 . S
C290 C291 1.341 . S
C290 C292 1.371 . S
C291 C290 1.341 . S
C291 C295 1.394 . S
C291 H307 0.930 . S
C292 C290 1.371 . S
C292 C293 1.392 . S
C292 H308 0.931 . S
C293 C292 1.392 . S
C293 C294 1.331 . S
C293 H311 0.932 . S
C294 C293 1.331 . S
C294 C295 1.336 . S
C295 C291 1.394 . S
C295 C294 1.336 . S
C295 H310 0.929 . S
C296 C286 1.386 . S
C296 C289 1.357 . S
C296 H309 0.928 . S
H297 C273 0.931 . S
H298 C275 0.930 . S
H299 C277 0.929 . S
H300 C278 0.931 . S
H301 C280 0.930 . S
H302 C284 0.931 . S
H303 C282 0.931 . S
H304 C286 0.931 . S
H305 C287 0.929 . S
H306 C288 0.930 . S
H307 C291 0.930 . S
H308 C292 0.931 . S
H309 C296 0.928 . S
H310 C295 0.929 . S
H311 C293 0.932 . S
C312 C313 1.386 . S
C312 C314 1.397 . S
C312 H336 0.931 . S
C313 C312 1.386 . S
C313 C317 1.397 . S
C314 C312 1.397 . S
C314 C315 1.384 . S
C314 H337 0.930 . S
C315 C314 1.384 . S
C315 C316 1.377 . S
C315 C318 1.481 . S
C316 C315 1.377 . S
C316 C317 1.389 . S
C316 H338 0.929 . S
C317 C313 1.397 . S
C317 C316 1.389 . S
C317 H339 0.931 . S
C318 C315 1.481 . S
C318 C319 1.387 . S
C318 C323 1.390 . S
C319 C318 1.387 . S
C319 C320 1.401 . S
C319 H340 0.930 . S
C320 C319 1.401 . S
C320 C321 1.376 . S
C320 C329 1.511 . S
C321 C320 1.376 . S
C321 C322 1.392 . S
C321 H342 0.931 . S
C322 C321 1.392 . S
C322 C323 1.361 . S
C322 C324 1.500 . S
C323 C318 1.390 . S
C323 C322 1.361 . S
C323 H341 0.931 . S
C324 C322 1.500 . S
C324 C325 1.371 . S
C324 C326 1.365 . S
C325 C324 1.371 . S
C325 C335 1.386 . S
C325 H343 0.931 . S
C326 C324 1.365 . S
C326 C327 1.409 . S
C326 H344 0.929 . S
C327 C326 1.409 . S
C327 C328 1.380 . S
C327 H345 0.930 . S
C328 C327 1.380 . S
C328 C335 1.357 . S
C329 C320 1.511 . S
C329 C330 1.341 . S
C329 C331 1.371 . S
C330 C329 1.341 . S
C330 C334 1.394 . S
C330 H346 0.930 . S
C331 C329 1.371 . S
C331 C332 1.392 . S
C331 H347 0.931 . S
C332 C331 1.392 . S
C332 C333 1.331 . S
C332 H350 0.932 . S
C333 C332 1.331 . S
C333 C334 1.336 . S
C334 C330 1.394 . S
C334 C333 1.336 . S
C334 H349 0.929 . S
C335 C325 1.386 . S
C335 C328 1.357 . S
C335 H348 0.928 . S
H336 C312 0.931 . S
H337 C314 0.930 . S
H338 C316 0.929 . S
H339 C317 0.931 . S
H340 C319 0.930 . S
H341 C323 0.931 . S
H342 C321 0.931 . S
H343 C325 0.931 . S
H344 C326 0.929 . S
H345 C327 0.930 . S
H346 C330 0.930 . S
H347 C331 0.931 . S
H348 C335 0.928 . S
H349 C334 0.929 . S
H350 C332 0.932 . S
C351 C352 1.386 . S
C351 C353 1.397 . S
C351 H375 0.931 . S
C352 C351 1.386 . S
C352 C356 1.397 . S
C353 C351 1.397 . S
C353 C354 1.384 . S
C353 H376 0.930 . S
C354 C353 1.384 . S
C354 C355 1.377 . S
C354 C357 1.481 . S
C355 C354 1.377 . S
C355 C356 1.389 . S
C355 H377 0.929 . S
C356 C352 1.397 . S
C356 C355 1.389 . S
C356 H378 0.931 . S
C357 C354 1.481 . S
C357 C358 1.387 . S
C357 C362 1.390 . S
C358 C357 1.387 . S
C358 C359 1.401 . S
C358 H379 0.930 . S
C359 C358 1.401 . S
C359 C360 1.376 . S
C359 C368 1.511 . S
C360 C359 1.376 . S
C360 C361 1.392 . S
C360 H381 0.931 . S
C361 C360 1.392 . S
C361 C362 1.361 . S
C361 C363 1.500 . S
C362 C357 1.390 . S
C362 C361 1.361 . S
C362 H380 0.931 . S
C363 C361 1.500 . S
C363 C364 1.371 . S
C363 C365 1.365 . S
C364 C363 1.371 . S
C364 C374 1.386 . S
C364 H382 0.931 . S
C365 C363 1.365 . S
C365 C366 1.409 . S
C365 H383 0.929 . S
C366 C365 1.409 . S
C366 C367 1.380 . S
C366 H384 0.930 . S
C367 C366 1.380 . S
C367 C374 1.357 . S
C368 C359 1.511 . S
C368 C369 1.341 . S
C368 C370 1.371 . S
C369 C368 1.341 . S
C369 C373 1.394 . S
C369 H385 0.930 . S
C370 C368 1.371 . S
C370 C371 1.392 . S
C370 H386 0.931 . S
C371 C370 1.392 . S
C371 C372 1.331 . S
C371 H389 0.932 . S
C372 C371 1.331 . S
C372 C373 1.336 . S
C373 C369 1.394 . S
C373 C372 1.336 . S
C373 H388 0.929 . S
C374 C364 1.386 . S
C374 C367 1.357 . S
C374 H387 0.928 . S
H375 C351 0.931 . S
H376 C353 0.930 . S
H377 C355 0.929 . S
H378 C356 0.931 . S
H379 C358 0.930 . S
H380 C362 0.931 . S
H381 C360 0.931 . S
H382 C364 0.931 . S
H383 C365 0.929 . S
H384 C366 0.930 . S
H385 C369 0.930 . S
H386 C370 0.931 . S
H387 C374 0.928 . S
H388 C373 0.929 . S
H389 C371 0.932 . S
C390 C391 1.386 . S
C390 C392 1.397 . S
C390 H414 0.931 . S
C391 C390 1.386 . S
C391 C395 1.397 . S
C392 C390 1.397 . S
C392 C393 1.384 . S
C392 H415 0.930 . S
C393 C392 1.384 . S
C393 C394 1.377 . S
C393 C396 1.481 . S
C394 C393 1.377 . S
C394 C395 1.389 . S
C394 H416 0.929 . S
C395 C391 1.397 . S
C395 C394 1.389 . S
C395 H417 0.931 . S
C396 C393 1.481 . S
C396 C397 1.387 . S
C396 C401 1.390 . S
C397 C396 1.387 . S
C397 C398 1.401 . S
C397 H418 0.930 . S
C398 C397 1.401 . S
C398 C399 1.376 . S
C398 C407 1.511 . S
C399 C398 1.376 . S
C399 C400 1.392 . S
C399 H420 0.931 . S
C400 C399 1.392 . S
C400 C401 1.361 . S
C400 C402 1.500 . S
C401 C396 1.390 . S
C401 C400 1.361 . S
C401 H419 0.931 . S
C402 C400 1.500 . S
C402 C403 1.371 . S
C402 C404 1.365 . S
C403 C402 1.371 . S
C403 C413 1.386 . S
C403 H421 0.931 . S
C404 C402 1.365 . S
C404 C405 1.409 . S
C404 H422 0.929 . S
C405 C404 1.409 . S
C405 C406 1.380 . S
C405 H423 0.930 . S
C406 C405 1.380 . S
C406 C413 1.357 . S
C407 C398 1.511 . S
C407 C408 1.341 . S
C407 C409 1.371 . S
C408 C407 1.341 . S
C408 C412 1.394 . S
C408 H424 0.930 . S
C409 C407 1.371 . S
C409 C410 1.392 . S
C409 H425 0.931 . S
C410 C409 1.392 . S
C410 C411 1.331 . S
C410 H428 0.932 . S
C411 C410 1.331 . S
C411 C412 1.336 . S
C412 C408 1.394 . S
C412 C411 1.336 . S
C412 H427 0.929 . S
C413 C403 1.386 . S
C413 C406 1.357 . S
C413 H426 0.928 . S
H414 C390 0.931 . S
H415 C392 0.930 . S
H416 C394 0.929 . S
H417 C395 0.931 . S
H418 C397 0.930 . S
H419 C401 0.931 . S
H420 C399 0.931 . S
H421 C403 0.931 . S
H422 C404 0.929 . S
H423 C405 0.930 . S
H424 C408 0.930 . S
H425 C409 0.931 . S
H426 C413 0.928 . S
H427 C412 0.929 . S
H428 C410 0.932 . S
C429 C430 1.386 . S
C429 C431 1.397 . S
C429 H453 0.931 . S
C430 C429 1.386 . S
C430 C434 1.397 . S
C431 C429 1.397 . S
C431 C432 1.384 . S
C431 H454 0.930 . S
C432 C431 1.384 . S
C432 C433 1.377 . S
C432 C435 1.481 . S
C433 C432 1.377 . S
C433 C434 1.389 . S
C433 H455 0.929 . S
C434 C430 1.397 . S
C434 C433 1.389 . S
C434 H456 0.931 . S
C435 C432 1.481 . S
C435 C436 1.387 . S
C435 C440 1.390 . S
C436 C435 1.387 . S
C436 C437 1.401 . S
C436 H457 0.930 . S
C437 C436 1.401 . S
C437 C438 1.376 . S
C437 C446 1.511 . S
C438 C437 1.376 . S
C438 C439 1.392 . S
C438 H459 0.931 . S
C439 C438 1.392 . S
C439 C440 1.361 . S
C439 C441 1.500 . S
C440 C435 1.390 . S
C440 C439 1.361 . S
C440 H458 0.931 . S
C441 C439 1.500 . S
C441 C442 1.371 . S
C441 C443 1.365 . S
C442 C441 1.371 . S
C442 C452 1.386 . S
C442 H460 0.931 . S
C443 C441 1.365 . S
C443 C444 1.409 . S
C443 H461 0.929 . S
C444 C443 1.409 . S
C444 C445 1.380 . S
C444 H462 0.930 . S
C445 C444 1.380 . S
C445 C452 1.357 . S
C446 C437 1.511 . S
C446 C447 1.341 . S
C446 C448 1.371 . S
C447 C446 1.341 . S
C447 C451 1.394 . S
C447 H463 0.930 . S
C448 C446 1.371 . S
C448 C449 1.392 . S
C448 H464 0.931 . S
C449 C448 1.392 . S
C449 C450 1.331 . S
C449 H467 0.932 . S
C450 C449 1.331 . S
C450 C451 1.336 . S
C451 C447 1.394 . S
C451 C450 1.336 . S
C451 H466 0.929 . S
C452 C442 1.386 . S
C452 C445 1.357 . S
C452 H465 0.928 . S
H453 C429 0.931 . S
H454 C431 0.930 . S
H455 C433 0.929 . S
H456 C434 0.931 . S
H457 C436 0.930 . S
H458 C440 0.931 . S
H459 C438 0.931 . S
H460 C442 0.931 . S
H461 C443 0.929 . S
H462 C444 0.930 . S
H463 C447 0.930 . S
H464 C448 0.931 . S
H465 C452 0.928 . S
H466 C451 0.929 . S
H467 C449 0.932 . S
C468 C469 1.386 . S
C468 C470 1.397 . S
C468 H492 0.931 . S
C469 C468 1.386 . S
C469 C473 1.397 . S
C470 C468 1.397 . S
C470 C471 1.384 . S
C470 H493 0.930 . S
C471 C470 1.384 . S
C471 C472 1.377 . S
C471 C474 1.481 . S
C472 C471 1.377 . S
C472 C473 1.389 . S
C472 H494 0.929 . S
C473 C469 1.397 . S
C473 C472 1.389 . S
C473 H495 0.931 . S
C474 C471 1.481 . S
C474 C475 1.387 . S
C474 C479 1.390 . S
C475 C474 1.387 . S
C475 C476 1.401 . S
C475 H496 0.930 . S
C476 C475 1.401 . S
C476 C477 1.376 . S
C476 C485 1.511 . S
C477 C476 1.376 . S
C477 C478 1.392 . S
C477 H498 0.931 . S
C478 C477 1.392 . S
C478 C479 1.361 . S
C478 C480 1.500 . S
C479 C474 1.390 . S
C479 C478 1.361 . S
C479 H497 0.931 . S
C480 C478 1.500 . S
C480 C481 1.371 . S
C480 C482 1.365 . S
C481 C480 1.371 . S
C481 C491 1.386 . S
C481 H499 0.931 . S
C482 C480 1.365 . S
C482 C483 1.409 . S
C482 H500 0.929 . S
C483 C482 1.409 . S
C483 C484 1.380 . S
C483 H501 0.930 . S
C484 C483 1.380 . S
C484 C491 1.357 . S
C485 C476 1.511 . S
C485 C486 1.341 . S
C485 C487 1.371 . S
C486 C485 1.341 . S
C486 C490 1.394 . S
C486 H502 0.930 . S
C487 C485 1.371 . S
C487 C488 1.392 . S
C487 H503 0.931 . S
C488 C487 1.392 . S
C488 C489 1.331 . S
C488 H506 0.932 . S
C489 C488 1.331 . S
C489 C490 1.336 . S
C490 C486 1.394 . S
C490 C489 1.336 . S
C490 H505 0.929 . S
C491 C481 1.386 . S
C491 C484 1.357 . S
C491 H504 0.928 . S
H492 C468 0.931 . S
H493 C470 0.930 . S
H494 C472 0.929 . S
H495 C473 0.931 . S
H496 C475 0.930 . S
H497 C479 0.931 . S
H498 C477 0.931 . S
H499 C481 0.931 . S
H500 C482 0.929 . S
H501 C483 0.930 . S
H502 C486 0.930 . S
H503 C487 0.931 . S
H504 C491 0.928 . S
H505 C490 0.929 . S
H506 C488 0.932 . S
C507 C508 1.386 . S
C507 C509 1.397 . S
C507 H531 0.931 . S
C508 C507 1.386 . S
C508 C512 1.397 . S
C509 C507 1.397 . S
C509 C510 1.384 . S
C509 H532 0.930 . S
C510 C509 1.384 . S
C510 C511 1.377 . S
C510 C513 1.481 . S
C511 C510 1.377 . S
C511 C512 1.389 . S
C511 H533 0.929 . S
C512 C508 1.397 . S
C512 C511 1.389 . S
C512 H534 0.931 . S
C513 C510 1.481 . S
C513 C514 1.387 . S
C513 C518 1.390 . S
C514 C513 1.387 . S
C514 C515 1.401 . S
C514 H535 0.930 . S
C515 C514 1.401 . S
C515 C516 1.376 . S
C515 C524 1.511 . S
C516 C515 1.376 . S
C516 C517 1.392 . S
C516 H537 0.931 . S
C517 C516 1.392 . S
C517 C518 1.361 . S
C517 C519 1.500 . S
C518 C513 1.390 . S
C518 C517 1.361 . S
C518 H536 0.931 . S
C519 C517 1.500 . S
C519 C520 1.371 . S
C519 C521 1.365 . S
C520 C519 1.371 . S
C520 C530 1.386 . S
C520 H538 0.931 . S
C521 C519 1.365 . S
C521 C522 1.409 . S
C521 H539 0.929 . S
C522 C521 1.409 . S
C522 C523 1.380 . S
C522 H540 0.930 . S
C523 C522 1.380 . S
C523 C530 1.357 . S
C524 C515 1.511 . S
C524 C525 1.341 . S
C524 C526 1.371 . S
C525 C524 1.341 . S
C525 C529 1.394 . S
C525 H541 0.930 . S
C526 C524 1.371 . S
C526 C527 1.392 . S
C526 H542 0.931 . S
C527 C526 1.392 . S
C527 C528 1.331 . S
C527 H545 0.932 . S
C528 C527 1.331 . S
C528 C529 1.336 . S
C529 C525 1.394 . S
C529 C528 1.336 . S
C529 H544 0.929 . S
C530 C520 1.386 . S
C530 C523 1.357 . S
C530 H543 0.928 . S
H531 C507 0.931 . S
H532 C509 0.930 . S
H533 C511 0.929 . S
H534 C512 0.931 . S
H535 C514 0.930 . S
H536 C518 0.931 . S
H537 C516 0.931 . S
H538 C520 0.931 . S
H539 C521 0.929 . S
H540 C522 0.930 . S
H541 C525 0.930 . S
H542 C526 0.931 . S
H543 C530 0.928 . S
H544 C529 0.929 . S
H545 C527 0.932 . S
C546 C547 1.386 . S
C546 C548 1.397 . S
C546 H570 0.931 . S
C547 C546 1.386 . S
C547 C551 1.397 . S
C548 C546 1.397 . S
C548 C549 1.384 . S
C548 H571 0.930 . S
C549 C548 1.384 . S
C549 C550 1.377 . S
C549 C552 1.481 . S
C550 C549 1.377 . S
C550 C551 1.389 . S
C550 H572 0.929 . S
C551 C547 1.397 . S
C551 C550 1.389 . S
C551 H573 0.931 . S
C552 C549 1.481 . S
C552 C553 1.387 . S
C552 C557 1.390 . S
C553 C552 1.387 . S
C553 C554 1.401 . S
C553 H574 0.930 . S
C554 C553 1.401 . S
C554 C555 1.376 . S
C554 C563 1.511 . S
C555 C554 1.376 . S
C555 C556 1.392 . S
C555 H576 0.931 . S
C556 C555 1.392 . S
C556 C557 1.361 . S
C556 C558 1.500 . S
C557 C552 1.390 . S
C557 C556 1.361 . S
C557 H575 0.931 . S
C558 C556 1.500 . S
C558 C559 1.371 . S
C558 C560 1.365 . S
C559 C558 1.371 . S
C559 C569 1.386 . S
C559 H577 0.931 . S
C560 C558 1.365 . S
C560 C561 1.409 . S
C560 H578 0.929 . S
C561 C560 1.409 . S
C561 C562 1.380 . S
C561 H579 0.930 . S
C562 C561 1.380 . S
C562 C569 1.357 . S
C563 C554 1.511 . S
C563 C564 1.341 . S
C563 C565 1.371 . S
C564 C563 1.341 . S
C564 C568 1.394 . S
C564 H580 0.930 . S
C565 C563 1.371 . S
C565 C566 1.392 . S
C565 H581 0.931 . S
C566 C565 1.392 . S
C566 C567 1.331 . S
C566 H584 0.932 . S
C567 C566 1.331 . S
C567 C568 1.336 . S
C568 C564 1.394 . S
C568 C567 1.336 . S
C568 H583 0.929 . S
C569 C559 1.386 . S
C569 C562 1.357 . S
C569 H582 0.928 . S
H570 C546 0.931 . S
H571 C548 0.930 . S
H572 C550 0.929 . S
H573 C551 0.931 . S
H574 C553 0.930 . S
H575 C557 0.931 . S
H576 C555 0.931 . S
H577 C559 0.931 . S
H578 C560 0.929 . S
H579 C561 0.930 . S
H580 C564 0.930 . S
H581 C565 0.931 . S
H582 C569 0.928 . S
H583 C568 0.929 . S
H584 C566 0.932 . S
C585 C586 1.386 . S
C585 C587 1.397 . S
C585 H609 0.931 . S
C586 C585 1.386 . S
C586 C590 1.397 . S
C587 C585 1.397 . S
C587 C588 1.384 . S
C587 H610 0.930 . S
C588 C587 1.384 . S
C588 C589 1.377 . S
C588 C591 1.481 . S
C589 C588 1.377 . S
C589 C590 1.389 . S
C589 H611 0.929 . S
C590 C586 1.397 . S
C590 C589 1.389 . S
C590 H612 0.931 . S
C591 C588 1.481 . S
C591 C592 1.387 . S
C591 C596 1.390 . S
C592 C591 1.387 . S
C592 C593 1.401 . S
C592 H613 0.930 . S
C593 C592 1.401 . S
C593 C594 1.376 . S
C593 C602 1.511 . S
C594 C593 1.376 . S
C594 C595 1.392 . S
C594 H615 0.931 . S
C595 C594 1.392 . S
C595 C596 1.361 . S
C595 C597 1.500 . S
C596 C591 1.390 . S
C596 C595 1.361 . S
C596 H614 0.931 . S
C597 C595 1.500 . S
C597 C598 1.371 . S
C597 C599 1.365 . S
C598 C597 1.371 . S
C598 C608 1.386 . S
C598 H616 0.931 . S
C599 C597 1.365 . S
C599 C600 1.409 . S
C599 H617 0.929 . S
C600 C599 1.409 . S
C600 C601 1.380 . S
C600 H618 0.930 . S
C601 C600 1.380 . S
C601 C608 1.357 . S
C602 C593 1.511 . S
C602 C603 1.341 . S
C602 C604 1.371 . S
C603 C602 1.341 . S
C603 C607 1.394 . S
C603 H619 0.930 . S
C604 C602 1.371 . S
C604 C605 1.392 . S
C604 H620 0.931 . S
C605 C604 1.392 . S
C605 C606 1.331 . S
C605 H623 0.932 . S
C606 C605 1.331 . S
C606 C607 1.336 . S
C607 C603 1.394 . S
C607 C606 1.336 . S
C607 H622 0.929 . S
C608 C598 1.386 . S
C608 C601 1.357 . S
C608 H621 0.928 . S
H609 C585 0.931 . S
H610 C587 0.930 . S
H611 C589 0.929 . S
H612 C590 0.931 . S
H613 C592 0.930 . S
H614 C596 0.931 . S
H615 C594 0.931 . S
H616 C598 0.931 . S
H617 C599 0.929 . S
H618 C600 0.930 . S
H619 C603 0.930 . S
H620 C604 0.931 . S
H621 C608 0.928 . S
H622 C607 0.929 . S
H623 C605 0.932 . S
C624 C625 1.386 . S
C624 C626 1.397 . S
C624 H648 0.931 . S
C625 C624 1.386 . S
C625 C629 1.397 . S
C626 C624 1.397 . S
C626 C627 1.384 . S
C626 H649 0.930 . S
C627 C626 1.384 . S
C627 C628 1.377 . S
C627 C630 1.481 . S
C628 C627 1.377 . S
C628 C629 1.389 . S
C628 H650 0.929 . S
C629 C625 1.397 . S
C629 C628 1.389 . S
C629 H651 0.931 . S
C630 C627 1.481 . S
C630 C631 1.387 . S
C630 C635 1.390 . S
C631 C630 1.387 . S
C631 C632 1.401 . S
C631 H652 0.930 . S
C632 C631 1.401 . S
C632 C633 1.376 . S
C632 C641 1.511 . S
C633 C632 1.376 . S
C633 C634 1.392 . S
C633 H654 0.931 . S
C634 C633 1.392 . S
C634 C635 1.361 . S
C634 C636 1.500 . S
C635 C630 1.390 . S
C635 C634 1.361 . S
C635 H653 0.931 . S
C636 C634 1.500 . S
C636 C637 1.371 . S
C636 C638 1.365 . S
C637 C636 1.371 . S
C637 C647 1.386 . S
C637 H655 0.931 . S
C638 C636 1.365 . S
C638 C639 1.409 . S
C638 H656 0.929 . S
C639 C638 1.409 . S
C639 C640 1.380 . S
C639 H657 0.930 . S
C640 C639 1.380 . S
C640 C647 1.357 . S
C641 C632 1.511 . S
C641 C642 1.341 . S
C641 C643 1.371 . S
C642 C641 1.341 . S
C642 C646 1.394 . S
C642 H658 0.930 . S
C643 C641 1.371 . S
C643 C644 1.392 . S
C643 H659 0.931 . S
C644 C643 1.392 . S
C644 C645 1.331 . S
C644 H662 0.932 . S
C645 C644 1.331 . S
C645 C646 1.336 . S
C646 C642 1.394 . S
C646 C645 1.336 . S
C646 H661 0.929 . S
C647 C637 1.386 . S
C647 C640 1.357 . S
C647 H660 0.928 . S
H648 C624 0.931 . S
H649 C626 0.930 . S
H650 C628 0.929 . S
H651 C629 0.931 . S
H652 C631 0.930 . S
H653 C635 0.931 . S
H654 C633 0.931 . S
H655 C637 0.931 . S
H656 C638 0.929 . S
H657 C639 0.930 . S
H658 C642 0.930 . S
H659 C643 0.931 . S
H660 C647 0.928 . S
H661 C646 0.929 . S
H662 C644 0.932 . S
C663 C664 1.386 . S
C663 C665 1.397 . S
C663 H687 0.931 . S
C664 C663 1.386 . S
C664 C668 1.397 . S
C665 C663 1.397 . S
C665 C666 1.384 . S
C665 H688 0.930 . S
C666 C665 1.384 . S
C666 C667 1.377 . S
C666 C669 1.481 . S
C667 C666 1.377 . S
C667 C668 1.389 . S
C667 H689 0.929 . S
C668 C664 1.397 . S
C668 C667 1.389 . S
C668 H690 0.931 . S
C669 C666 1.481 . S
C669 C670 1.387 . S
C669 C674 1.390 . S
C670 C669 1.387 . S
C670 C671 1.401 . S
C670 H691 0.930 . S
C671 C670 1.401 . S
C671 C672 1.376 . S
C671 C680 1.511 . S
C672 C671 1.376 . S
C672 C673 1.392 . S
C672 H693 0.931 . S
C673 C672 1.392 . S
C673 C674 1.361 . S
C673 C675 1.500 . S
C674 C669 1.390 . S
C674 C673 1.361 . S
C674 H692 0.931 . S
C675 C673 1.500 . S
C675 C676 1.371 . S
C675 C677 1.365 . S
C676 C675 1.371 . S
C676 C686 1.386 . S
C676 H694 0.931 . S
C677 C675 1.365 . S
C677 C678 1.409 . S
C677 H695 0.929 . S
C678 C677 1.409 . S
C678 C679 1.380 . S
C678 H696 0.930 . S
C679 C678 1.380 . S
C679 C686 1.357 . S
C680 C671 1.511 . S
C680 C681 1.341 . S
C680 C682 1.371 . S
C681 C680 1.341 . S
C681 C685 1.394 . S
C681 H697 0.930 . S
C682 C680 1.371 . S
C682 C683 1.392 . S
C682 H698 0.931 . S
C683 C682 1.392 . S
C683 C684 1.331 . S
C683 H701 0.932 . S
C684 C683 1.331 . S
C684 C685 1.336 . S
C685 C681 1.394 . S
C685 C684 1.336 . S
C685 H700 0.929 . S
C686 C676 1.386 . S
C686 C679 1.357 . S
C686 H699 0.928 . S
H687 C663 0.931 . S
H688 C665 0.930 . S
H689 C667 0.929 . S
H690 C668 0.931 . S
H691 C670 0.930 . S
H692 C674 0.931 . S
H693 C672 0.931 . S
H694 C676 0.931 . S
H695 C677 0.929 . S
H696 C678 0.930 . S
H697 C681 0.930 . S
H698 C682 0.931 . S
H699 C686 0.928 . S
H700 C685 0.929 . S
H701 C683 0.932 . S
Eu702 N733 2.657 . S
Eu702 N740 2.609 . S
Eu702 O746 2.558 . S
Eu702 O747 2.612 1_566 S
Eu702 O749 2.339 1_565 S
Eu702 O750 2.563 1_565 S
Eu702 O751 2.419 . S
Eu702 O753 2.380 1_556 S
Eu702 O754 2.480 . S
Eu702 C766 2.848 . S
C703 C706 1.429 . S
C703 C707 1.411 . S
C703 N710 1.377 . S
C704 C706 1.420 . S
C704 C708 1.423 . S
C704 C716 1.392 . S
C705 C707 1.420 . S
C705 C708 1.351 . S
C705 H728 0.931 . S
C706 C703 1.429 . S
C706 C704 1.420 . S
C706 N714 1.362 . S
C707 C703 1.411 . S
C707 C705 1.420 . S
C707 C712 1.395 . S
C708 C704 1.423 . S
C708 C705 1.351 . S
C708 H720 0.930 . S
C709 C711 1.400 . S
C709 C712 1.386 . S
C709 H721 0.930 . S
N710 C703 1.377 . S
N710 C711 1.321 . S
N710 Eu713 2.609 . S
C711 C709 1.400 . S
C711 N710 1.321 . S
C711 H718 0.930 . S
C712 C707 1.395 . S
C712 C709 1.386 . S
C712 H731 0.930 . S
Eu713 N710 2.609 . S
Eu713 N714 2.657 . S
Eu713 O747 2.381 . S
Eu713 O748 2.432 . S
Eu713 O752 2.558 . S
Eu713 O753 2.612 1_545 S
Eu713 O755 2.339 1_545 S
Eu713 O756 2.563 1_545 S
Eu713 O757 2.419 . S
Eu713 C777 2.848 . S
N714 C706 1.362 . S
N714 Eu713 2.657 . S
N714 C715 1.334 . S
C715 N714 1.334 . S
C715 C717 1.413 . S
C715 H722 0.929 . S
C716 C704 1.392 . S
C716 C717 1.367 . S
C716 H724 0.930 . S
C717 C715 1.413 . S
C717 C716 1.367 . S
C717 H719 0.930 . S
H718 C711 0.930 . S
H719 C717 0.930 . S
H720 C708 0.930 . S
H721 C709 0.930 . S
H722 C715 0.929 . S
H723 C737 0.930 . S
H724 C716 0.930 . S
H725 C743 0.930 . S
H726 C734 0.929 . S
H727 C741 0.930 . S
H728 C705 0.931 . S
H729 C735 0.930 . S
H730 C768 0.930 . S
H731 C712 0.930 . S
H732 C767 0.931 . S
N733 Eu702 2.657 . S
N733 C734 1.334 . S
N733 C738 1.362 . S
C734 H726 0.929 . S
C734 N733 1.334 . S
C734 C737 1.413 . S
C735 H729 0.930 . S
C735 C736 1.392 . S
C735 C737 1.367 . S
C736 C735 1.392 . S
C736 C738 1.420 . S
C736 C768 1.423 . S
C737 H723 0.930 . S
C737 C734 1.413 . S
C737 C735 1.367 . S
C738 N733 1.362 . S
C738 C736 1.420 . S
C738 C742 1.429 . S
H739 C744 0.930 . S
N740 Eu702 2.609 . S
N740 C742 1.377 . S
N740 C743 1.321 . S
C741 H727 0.930 . S
C741 C743 1.400 . S
C741 C744 1.386 . S
C742 C738 1.429 . S
C742 N740 1.377 . S
C742 C745 1.411 . S
C743 H725 0.930 . S
C743 N740 1.321 . S
C743 C741 1.400 . S
C744 H739 0.930 . S
C744 C741 1.386 . S
C744 C745 1.395 . S
C745 C742 1.411 . S
C745 C744 1.395 . S
C745 C767 1.420 . S
O746 Eu702 2.558 . S
O746 C766 1.257 . S
O747 Eu702 2.612 1_544 S
O747 Eu713 2.381 . S
O747 C758 1.275 1_554 S
O748 Eu713 2.432 . S
O748 C765 1.264 1_554 S
O749 Eu702 2.339 1_545 S
O749 C765 1.254 . S
O750 Eu702 2.563 1_545 S
O750 C758 1.235 . S
O751 Eu702 2.419 . S
O751 C766 1.249 . S
O752 Eu713 2.558 . S
O752 C777 1.257 . S
O753 Eu702 2.380 1_554 S
O753 Eu713 2.612 1_565 S
O753 C769 1.276 . S
O754 Eu702 2.480 . S
O754 C776 1.181 1_556 S
O755 Eu713 2.339 1_565 S
O755 C776 1.254 . S
O756 Eu713 2.563 1_565 S
O756 C769 1.235 . S
O757 Eu713 2.419 . S
O757 C777 1.249 . S
C758 O747 1.275 1_556 S
C758 O750 1.235 . S
C759 C761 1.393 1_565 S
C759 C763 1.395 . S
C759 C766 1.492 . S
C760 C761 1.392 . S
C760 C762 1.386 1_545 S
C761 C759 1.393 1_545 S
C761 C760 1.392 . S
C761 H778 0.930 . S
C762 C760 1.386 1_565 S
C762 C764 1.395 . S
C762 H779 0.930 . S
C763 C759 1.395 . S
C763 C764 1.379 . S
C763 H780 0.930 . S
C764 C762 1.395 . S
C764 C763 1.379 . S
C764 H781 0.930 . S
C765 O748 1.264 1_556 S
C765 O749 1.254 . S
C766 Eu702 2.848 . S
C766 O746 1.257 . S
C766 O751 1.249 . S
C766 C759 1.492 . S
C767 H732 0.931 . S
C767 C745 1.420 . S
C767 C768 1.351 . S
C768 H730 0.930 . S
C768 C736 1.423 . S
C768 C767 1.351 . S
C769 O753 1.276 . S
C769 O756 1.235 . S
C770 C771 1.393 1_545 S
C770 C774 1.395 . S
C770 C777 1.492 . S
C771 C770 1.393 1_565 S
C771 C772 1.392 . S
C771 H782 0.930 . S
C772 C771 1.392 . S
C772 C773 1.386 1_565 S
C773 C772 1.386 1_545 S
C773 C775 1.395 . S
C773 H783 0.930 . S
C774 C770 1.395 . S
C774 C775 1.379 . S
C774 H784 0.930 . S
C775 C773 1.395 . S
C775 C774 1.379 . S
C775 H785 0.930 . S
C776 O754 1.181 1_554 S
C776 O755 1.254 . S
C777 Eu713 2.848 . S
C777 O752 1.257 . S
C777 O757 1.249 . S
C777 C770 1.492 . S
H778 C761 0.930 . S
H779 C762 0.930 . S
H780 C763 0.930 . S
H781 C764 0.930 . S
H782 C771 0.930 . S
H783 C773 0.930 . S
H784 C774 0.930 . S
H785 C775 0.930 . S
Eu786 N817 2.657 . S
Eu786 N824 2.609 . S
Eu786 O830 2.558 . S
Eu786 O831 2.611 1_455 S
Eu786 O833 2.339 1_455 S
Eu786 O834 2.563 1_455 S
Eu786 O835 2.419 . S
Eu786 O837 2.380 1_556 S
Eu786 O838 2.436 1_556 S
Eu786 C850 2.848 . S
C787 C790 1.429 . S
C787 C791 1.411 . S
C787 N794 1.377 . S
C788 C790 1.420 . S
C788 C792 1.423 . S
C788 C800 1.392 . S
C789 C791 1.420 . S
C789 C792 1.351 . S
C789 H812 0.931 . S
C790 C787 1.429 . S
C790 C788 1.420 . S
C790 N798 1.362 . S
C791 C787 1.411 . S
C791 C789 1.420 . S
C791 C796 1.395 . S
C792 C788 1.423 . S
C792 C789 1.351 . S
C792 H804 0.930 . S
C793 C795 1.400 . S
C793 C796 1.386 . S
C793 H805 0.930 . S
N794 C787 1.377 . S
N794 C795 1.321 . S
N794 Eu797 2.609 . S
C795 C793 1.400 . S
C795 N794 1.321 . S
C795 H802 0.930 . S
C796 C791 1.395 . S
C796 C793 1.386 . S
C796 H815 0.930 . S
Eu797 N794 2.609 . S
Eu797 N798 2.657 . S
Eu797 O831 2.382 1_554 S
Eu797 O832 2.432 . S
Eu797 O836 2.558 . S
Eu797 O837 2.612 1_655 S
Eu797 O839 2.339 1_655 S
Eu797 O840 2.563 1_655 S
Eu797 O841 2.419 . S
Eu797 C861 2.848 . S
N798 C790 1.362 . S
N798 Eu797 2.657 . S
N798 C799 1.334 . S
C799 N798 1.334 . S
C799 C801 1.413 . S
C799 H806 0.929 . S
C800 C788 1.392 . S
C800 C801 1.367 . S
C800 H808 0.930 . S
C801 C799 1.413 . S
C801 C800 1.367 . S
C801 H803 0.930 . S
H802 C795 0.930 . S
H803 C801 0.930 . S
H804 C792 0.930 . S
H805 C793 0.930 . S
H806 C799 0.929 . S
H807 C821 0.930 . S
H808 C800 0.930 . S
H809 C827 0.930 . S
H810 C818 0.929 . S
H811 C825 0.930 . S
H812 C789 0.931 . S
H813 C819 0.930 . S
H814 C852 0.930 . S
H815 C796 0.930 . S
H816 C851 0.931 . S
N817 Eu786 2.657 . S
N817 C818 1.334 . S
N817 C822 1.362 . S
C818 H810 0.929 . S
C818 N817 1.334 . S
C818 C821 1.413 . S
C819 H813 0.930 . S
C819 C820 1.392 . S
C819 C821 1.367 . S
C820 C819 1.392 . S
C820 C822 1.420 . S
C820 C852 1.423 . S
C821 H807 0.930 . S
C821 C818 1.413 . S
C821 C819 1.367 . S
C822 N817 1.362 . S
C822 C820 1.420 . S
C822 C826 1.429 . S
H823 C828 0.930 . S
N824 Eu786 2.609 . S
N824 C826 1.377 . S
N824 C827 1.321 . S
C825 H811 0.930 . S
C825 C827 1.400 . S
C825 C828 1.386 . S
C826 C822 1.429 . S
C826 N824 1.377 . S
C826 C829 1.411 . S
C827 H809 0.930 . S
C827 N824 1.321 . S
C827 C825 1.400 . S
C828 H823 0.930 . S
C828 C825 1.386 . S
C828 C829 1.395 . S
C829 C826 1.411 . S
C829 C828 1.395 . S
C829 C851 1.420 . S
O830 Eu786 2.558 . S
O830 C850 1.257 . S
O831 Eu786 2.611 1_655 S
O831 Eu797 2.382 1_556 S
O831 C842 1.274 . S
O832 Eu797 2.432 . S
O832 C849 1.264 1_554 S
O833 Eu786 2.339 1_655 S
O833 C849 1.254 . S
O834 Eu786 2.563 1_655 S
O834 C842 1.235 . S
O835 Eu786 2.419 . S
O835 C850 1.249 . S
O836 Eu797 2.558 . S
O836 C861 1.257 . S
O837 Eu786 2.380 1_554 S
O837 Eu797 2.612 1_455 S
O837 C853 1.276 . S
O838 Eu786 2.436 1_554 S
O838 C860 1.258 . S
O839 Eu797 2.339 1_455 S
O839 C860 1.254 . S
O840 Eu797 2.563 1_455 S
O840 C853 1.235 . S
O841 Eu797 2.419 . S
O841 C861 1.249 . S
C842 O831 1.274 . S
C842 O834 1.235 . S
C843 C845 1.393 1_455 S
C843 C847 1.395 . S
C843 C850 1.492 . S
C844 C845 1.392 . S
C844 C846 1.386 1_655 S
C845 C843 1.393 1_655 S
C845 C844 1.392 . S
C845 H862 0.930 . S
C846 C844 1.386 1_455 S
C846 C848 1.395 . S
C846 H863 0.930 . S
C847 C843 1.395 . S
C847 C848 1.379 . S
C847 H864 0.930 . S
C848 C846 1.395 . S
C848 C847 1.379 . S
C848 H865 0.930 . S
C849 O832 1.264 1_556 S
C849 O833 1.254 . S
C850 Eu786 2.848 . S
C850 O830 1.257 . S
C850 O835 1.249 . S
C850 C843 1.492 . S
C851 H816 0.931 . S
C851 C829 1.420 . S
C851 C852 1.351 . S
C852 H814 0.930 . S
C852 C820 1.423 . S
C852 C851 1.351 . S
C853 O837 1.276 . S
C853 O840 1.235 . S
C854 C855 1.393 1_655 S
C854 C858 1.395 . S
C854 C861 1.492 . S
C855 C854 1.393 1_455 S
C855 C856 1.392 . S
C855 H866 0.930 . S
C856 C855 1.392 . S
C856 C857 1.386 1_455 S
C857 C856 1.386 1_655 S
C857 C859 1.395 . S
C857 H867 0.930 . S
C858 C854 1.395 . S
C858 C859 1.379 . S
C858 H868 0.930 . S
C859 C857 1.395 . S
C859 C858 1.379 . S
C859 H869 0.930 . S
C860 O838 1.258 . S
C860 O839 1.254 . S
C861 Eu797 2.848 . S
C861 O836 1.257 . S
C861 O841 1.249 . S
C861 C854 1.492 . S
H862 C845 0.930 . S
H863 C846 0.930 . S
H864 C847 0.930 . S
H865 C848 0.930 . S
H866 C855 0.930 . S
H867 C857 0.930 . S
H868 C858 0.930 . S
H869 C859 0.930 . S
Eu870 N901 2.657 . S
Eu870 N908 2.609 . S
Eu870 O914 2.558 . S
Eu870 O915 2.612 . S
Eu870 O917 2.339 . S
Eu870 O918 2.563 . S
Eu870 O919 2.419 . S
Eu870 O921 2.355 1_554 S
Eu870 O922 2.432 . S
Eu870 C934 2.848 . S
C871 C874 1.429 . S
C871 C875 1.411 . S
C871 N878 1.377 . S
C872 C874 1.420 . S
C872 C876 1.423 . S
C872 C884 1.392 . S
C873 C875 1.420 . S
C873 C876 1.351 . S
C873 H896 0.931 . S
C874 C871 1.429 . S
C874 C872 1.420 . S
C874 N882 1.362 . S
C875 C871 1.411 . S
C875 C873 1.420 . S
C875 C880 1.395 . S
C876 C872 1.423 . S
C876 C873 1.351 . S
C876 H888 0.930 . S
C877 C879 1.400 . S
C877 C880 1.386 . S
C877 H889 0.930 . S
N878 C871 1.377 . S
N878 C879 1.321 . S
N878 Eu881 2.609 . S
C879 C877 1.400 . S
C879 N878 1.321 . S
C879 H886 0.930 . S
C880 C875 1.395 . S
C880 C877 1.386 . S
C880 H899 0.930 . S
Eu881 N878 2.609 . S
Eu881 N882 2.657 . S
Eu881 O915 2.380 1_556 S
Eu881 O916 2.471 . S
Eu881 O920 2.558 . S
Eu881 O921 2.627 . S
Eu881 O923 2.339 . S
Eu881 O924 2.563 . S
Eu881 O925 2.419 . S
Eu881 C945 2.848 . S
N882 C874 1.362 . S
N882 Eu881 2.657 . S
N882 C883 1.334 . S
C883 N882 1.334 . S
C883 C885 1.413 . S
C883 H890 0.929 . S
C884 C872 1.392 . S
C884 C885 1.367 . S
C884 H892 0.930 . S
C885 C883 1.413 . S
C885 C884 1.367 . S
C885 H887 0.930 . S
H886 C879 0.930 . S
H887 C885 0.930 . S
H888 C876 0.930 . S
H889 C877 0.930 . S
H890 C883 0.929 . S
H891 C905 0.930 . S
H892 C884 0.930 . S
H893 C911 0.930 . S
H894 C902 0.929 . S
H895 C909 0.930 . S
H896 C873 0.931 . S
H897 C903 0.930 . S
H898 C936 0.930 . S
H899 C880 0.930 . S
H900 C935 0.931 . S
N901 Eu870 2.657 . S
N901 C902 1.334 . S
N901 C906 1.362 . S
C902 H894 0.929 . S
C902 N901 1.334 . S
C902 C905 1.413 . S
C903 H897 0.930 . S
C903 C904 1.392 . S
C903 C905 1.367 . S
C904 C903 1.392 . S
C904 C906 1.420 . S
C904 C936 1.423 . S
C905 H891 0.930 . S
C905 C902 1.413 . S
C905 C903 1.367 . S
C906 N901 1.362 . S
C906 C904 1.420 . S
C906 C910 1.429 . S
H907 C912 0.930 . S
N908 Eu870 2.609 . S
N908 C910 1.377 . S
N908 C911 1.321 . S
C909 H895 0.930 . S
C909 C911 1.400 . S
C909 C912 1.386 . S
C910 C906 1.429 . S
C910 N908 1.377 . S
C910 C913 1.411 . S
C911 H893 0.930 . S
C911 N908 1.321 . S
C911 C909 1.400 . S
C912 H907 0.930 . S
C912 C909 1.386 . S
C912 C913 1.395 . S
C913 C910 1.411 . S
C913 C912 1.395 . S
C913 C935 1.420 . S
O914 Eu870 2.558 . S
O914 C934 1.257 . S
O915 Eu870 2.612 . S
O915 Eu881 2.380 1_554 S
O915 C926 1.276 . S
O916 Eu881 2.471 . S
O916 C933 1.195 1_556 S
O917 Eu870 2.339 . S
O917 C933 1.254 . S
O918 Eu870 2.563 . S
O918 C926 1.235 . S
O919 Eu870 2.419 . S
O919 C934 1.249 . S
O920 Eu881 2.558 . S
O920 C945 1.257 . S
O921 Eu870 2.355 1_556 S
O921 Eu881 2.627 . S
O921 C937 1.296 . S
O922 Eu870 2.432 . S
O922 C944 1.264 1_554 S
O923 Eu881 2.339 . S
O923 C944 1.254 . S
O924 Eu881 2.563 . S
O924 C937 1.235 . S
O925 Eu881 2.419 . S
O925 C945 1.249 . S
C926 O915 1.276 . S
C926 O918 1.235 . S
C927 C929 1.393 . S
C927 C931 1.395 . S
C927 C934 1.492 . S
C928 C929 1.392 . S
C928 C930 1.386 . S
C929 C927 1.393 . S
C929 C928 1.392 . S
C929 H946 0.930 . S
C930 C928 1.386 . S
C930 C932 1.395 . S
C930 H947 0.930 . S
C931 C927 1.395 . S
C931 C932 1.379 . S
C931 H948 0.930 . S
C932 C930 1.395 . S
C932 C931 1.379 . S
C932 H949 0.930 . S
C933 O916 1.195 1_554 S
C933 O917 1.254 . S
C934 Eu870 2.848 . S
C934 O914 1.257 . S
C934 O919 1.249 . S
C934 C927 1.492 . S
C935 H900 0.931 . S
C935 C913 1.420 . S
C935 C936 1.351 . S
C936 H898 0.930 . S
C936 C904 1.423 . S
C936 C935 1.351 . S
C937 O921 1.296 . S
C937 O924 1.235 . S
C938 C939 1.393 . S
C938 C942 1.395 . S
C938 C945 1.492 . S
C939 C938 1.393 . S
C939 C940 1.392 . S
C939 H950 0.930 . S
C940 C939 1.392 . S
C940 C941 1.386 . S
C941 C940 1.386 . S
C941 C943 1.395 . S
C941 H951 0.930 . S
C942 C938 1.395 . S
C942 C943 1.379 . S
C942 H952 0.930 . S
C943 C941 1.395 . S
C943 C942 1.379 . S
C943 H953 0.930 . S
C944 O922 1.264 1_556 S
C944 O923 1.254 . S
C945 Eu881 2.848 . S
C945 O920 1.257 . S
C945 O925 1.249 . S
C945 C938 1.492 . S
H946 C929 0.930 . S
H947 C930 0.930 . S
H948 C931 0.930 . S
H949 C932 0.930 . S
H950 C939 0.930 . S
H951 C941 0.930 . S
H952 C942 0.930 . S
H953 C943 0.930 . S
Eu954 N985 2.657 . S
Eu954 N992 2.609 . S
Eu954 O998 2.558 . S
Eu954 O999 2.612 . S
Eu954 O1001 2.339 . S
Eu954 O1002 2.563 . S
Eu954 O1003 2.419 . S
Eu954 O1005 2.380 . S
Eu954 O1006 2.432 . S
Eu954 C1018 2.848 . S
C955 C958 1.429 . S
C955 C959 1.411 . S
C955 N962 1.377 . S
C956 C958 1.420 . S
C956 C960 1.423 . S
C956 C968 1.392 . S
C957 C959 1.420 . S
C957 C960 1.351 . S
C957 H980 0.931 . S
C958 C955 1.429 . S
C958 C956 1.420 . S
C958 N966 1.362 . S
C959 C955 1.411 . S
C959 C957 1.420 . S
C959 C964 1.395 . S
C960 C956 1.423 . S
C960 C957 1.351 . S
C960 H972 0.930 . S
C961 C963 1.400 . S
C961 C964 1.386 . S
C961 H973 0.930 . S
N962 C955 1.377 . S
N962 C963 1.321 . S
N962 Eu965 2.609 . S
C963 C961 1.400 . S
C963 N962 1.321 . S
C963 H970 0.930 . S
C964 C959 1.395 . S
C964 C961 1.386 . S
C964 H983 0.930 . S
Eu965 N962 2.609 . S
Eu965 N966 2.657 . S
Eu965 O999 2.380 . S
Eu965 O1000 2.432 . S
Eu965 O1004 2.558 . S
Eu965 O1005 2.612 . S
Eu965 O1007 2.339 . S
Eu965 O1008 2.563 . S
Eu965 O1009 2.419 . S
Eu965 C1029 2.848 . S
N966 C958 1.362 . S
N966 Eu965 2.657 . S
N966 C967 1.334 . S
C967 N966 1.334 . S
C967 C969 1.413 . S
C967 H974 0.929 . S
C968 C956 1.392 . S
C968 C969 1.367 . S
C968 H976 0.930 . S
C969 C967 1.413 . S
C969 C968 1.367 . S
C969 H971 0.930 . S
H970 C963 0.930 . S
H971 C969 0.930 . S
H972 C960 0.930 . S
H973 C961 0.930 . S
H974 C967 0.929 . S
H975 C989 0.930 . S
H976 C968 0.930 . S
H977 C995 0.930 . S
H978 C986 0.929 . S
H979 C993 0.930 . S
H980 C957 0.931 . S
H981 C987 0.930 . S
H982 C1020 0.930 . S
H983 C964 0.930 . S
H984 C1019 0.931 . S
N985 Eu954 2.657 . S
N985 C986 1.334 . S
N985 C990 1.362 . S
C986 H978 0.929 . S
C986 N985 1.334 . S
C986 C989 1.413 . S
C987 H981 0.930 . S
C987 C988 1.392 . S
C987 C989 1.367 . S
C988 C987 1.392 . S
C988 C990 1.420 . S
C988 C1020 1.423 . S
C989 H975 0.930 . S
C989 C986 1.413 . S
C989 C987 1.367 . S
C990 N985 1.362 . S
C990 C988 1.420 . S
C990 C994 1.429 . S
H991 C996 0.930 . S
N992 Eu954 2.609 . S
N992 C994 1.377 . S
N992 C995 1.321 . S
C993 H979 0.930 . S
C993 C995 1.400 . S
C993 C996 1.386 . S
C994 C990 1.429 . S
C994 N992 1.377 . S
C994 C997 1.411 . S
C995 H977 0.930 . S
C995 N992 1.321 . S
C995 C993 1.400 . S
C996 H991 0.930 . S
C996 C993 1.386 . S
C996 C997 1.395 . S
C997 C994 1.411 . S
C997 C996 1.395 . S
C997 C1019 1.420 . S
O998 Eu954 2.558 . S
O998 C1018 1.257 . S
O999 Eu954 2.612 . S
O999 Eu965 2.380 . S
O999 C1010 1.276 . S
O1000 Eu965 2.432 . S
O1000 C1017 1.264 . S
O1001 Eu954 2.339 . S
O1001 C1017 1.254 . S
O1002 Eu954 2.563 . S
O1002 C1010 1.235 . S
O1003 Eu954 2.419 . S
O1003 C1018 1.249 . S
O1004 Eu965 2.558 . S
O1004 C1029 1.257 . S
O1005 Eu954 2.380 . S
O1005 Eu965 2.612 . S
O1005 C1021 1.276 . S
O1006 Eu954 2.432 . S
O1006 C1028 1.264 . S
O1007 Eu965 2.339 . S
O1007 C1028 1.254 . S
O1008 Eu965 2.563 . S
O1008 C1021 1.235 . S
O1009 Eu965 2.419 . S
O1009 C1029 1.249 . S
C1010 O999 1.276 . S
C1010 O1002 1.235 . S
C1011 C1013 1.393 . S
C1011 C1015 1.395 . S
C1011 C1018 1.492 . S
C1012 C1013 1.392 . S
C1012 C1014 1.386 . S
C1013 C1011 1.393 . S
C1013 C1012 1.392 . S
C1013 H1030 0.930 . S
C1014 C1012 1.386 . S
C1014 C1016 1.395 . S
C1014 H1031 0.930 . S
C1015 C1011 1.395 . S
C1015 C1016 1.379 . S
C1015 H1032 0.930 . S
C1016 C1014 1.395 . S
C1016 C1015 1.379 . S
C1016 H1033 0.930 . S
C1017 O1000 1.264 . S
C1017 O1001 1.254 . S
C1018 Eu954 2.848 . S
C1018 O998 1.257 . S
C1018 O1003 1.249 . S
C1018 C1011 1.492 . S
C1019 H984 0.931 . S
C1019 C997 1.420 . S
C1019 C1020 1.351 . S
C1020 H982 0.930 . S
C1020 C988 1.423 . S
C1020 C1019 1.351 . S
C1021 O1005 1.276 . S
C1021 O1008 1.235 . S
C1022 C1023 1.393 . S
C1022 C1026 1.395 . S
C1022 C1029 1.492 . S
C1023 C1022 1.393 . S
C1023 C1024 1.392 . S
C1023 H1034 0.930 . S
C1024 C1023 1.392 . S
C1024 C1025 1.386 . S
C1025 C1024 1.386 . S
C1025 C1027 1.395 . S
C1025 H1035 0.930 . S
C1026 C1022 1.395 . S
C1026 C1027 1.379 . S
C1026 H1036 0.930 . S
C1027 C1025 1.395 . S
C1027 C1026 1.379 . S
C1027 H1037 0.930 . S
C1028 O1006 1.264 . S
C1028 O1007 1.254 . S
C1029 Eu965 2.848 . S
C1029 O1004 1.257 . S
C1029 O1009 1.249 . S
C1029 C1022 1.492 . S
H1030 C1013 0.930 . S
H1031 C1014 0.930 . S
H1032 C1015 0.930 . S
H1033 C1016 0.930 . S
H1034 C1023 0.930 . S
H1035 C1025 0.930 . S
H1036 C1026 0.930 . S
H1037 C1027 0.930 . S
Eu1038 N1069 2.657 . S
Eu1038 N1076 2.609 . S
Eu1038 O1082 2.558 . S
Eu1038 O1083 2.612 . S
Eu1038 O1085 2.339 . S
Eu1038 O1086 2.563 . S
Eu1038 O1087 2.419 . S
Eu1038 O1089 2.380 . S
Eu1038 O1090 2.432 . S
Eu1038 C1102 2.848 . S
C1039 C1042 1.429 . S
C1039 C1043 1.411 . S
C1039 N1046 1.377 . S
C1040 C1042 1.420 . S
C1040 C1044 1.423 . S
C1040 C1052 1.392 . S
C1041 C1043 1.420 . S
C1041 C1044 1.351 . S
C1041 H1064 0.931 . S
C1042 C1039 1.429 . S
C1042 C1040 1.420 . S
C1042 N1050 1.362 . S
C1043 C1039 1.411 . S
C1043 C1041 1.420 . S
C1043 C1048 1.395 . S
C1044 C1040 1.423 . S
C1044 C1041 1.351 . S
C1044 H1056 0.930 . S
C1045 C1047 1.400 . S
C1045 C1048 1.386 . S
C1045 H1057 0.930 . S
N1046 C1039 1.377 . S
N1046 C1047 1.321 . S
N1046 Eu1049 2.609 . S
C1047 C1045 1.400 . S
C1047 N1046 1.321 . S
C1047 H1054 0.930 . S
C1048 C1043 1.395 . S
C1048 C1045 1.386 . S
C1048 H1067 0.930 . S
Eu1049 N1046 2.609 . S
Eu1049 N1050 2.657 . S
Eu1049 O1083 2.380 . S
Eu1049 O1084 2.432 . S
Eu1049 O1088 2.558 . S
Eu1049 O1089 2.612 . S
Eu1049 O1091 2.339 . S
Eu1049 O1092 2.563 . S
Eu1049 O1093 2.419 . S
Eu1049 C1113 2.848 . S
N1050 C1042 1.362 . S
N1050 Eu1049 2.657 . S
N1050 C1051 1.334 . S
C1051 N1050 1.334 . S
C1051 C1053 1.413 . S
C1051 H1058 0.929 . S
C1052 C1040 1.392 . S
C1052 C1053 1.367 . S
C1052 H1060 0.930 . S
C1053 C1051 1.413 . S
C1053 C1052 1.367 . S
C1053 H1055 0.930 . S
H1054 C1047 0.930 . S
H1055 C1053 0.930 . S
H1056 C1044 0.930 . S
H1057 C1045 0.930 . S
H1058 C1051 0.929 . S
H1059 C1073 0.930 . S
H1060 C1052 0.930 . S
H1061 C1079 0.930 . S
H1062 C1070 0.929 . S
H1063 C1077 0.930 . S
H1064 C1041 0.931 . S
H1065 C1071 0.930 . S
H1066 C1104 0.930 . S
H1067 C1048 0.930 . S
H1068 C1103 0.931 . S
N1069 Eu1038 2.657 . S
N1069 C1070 1.334 . S
N1069 C1074 1.362 . S
C1070 H1062 0.929 . S
C1070 N1069 1.334 . S
C1070 C1073 1.413 . S
C1071 H1065 0.930 . S
C1071 C1072 1.392 . S
C1071 C1073 1.367 . S
C1072 C1071 1.392 . S
C1072 C1074 1.420 . S
C1072 C1104 1.423 . S
C1073 H1059 0.930 . S
C1073 C1070 1.413 . S
C1073 C1071 1.367 . S
C1074 N1069 1.362 . S
C1074 C1072 1.420 . S
C1074 C1078 1.429 . S
H1075 C1080 0.930 . S
N1076 Eu1038 2.609 . S
N1076 C1078 1.377 . S
N1076 C1079 1.321 . S
C1077 H1063 0.930 . S
C1077 C1079 1.400 . S
C1077 C1080 1.386 . S
C1078 C1074 1.429 . S
C1078 N1076 1.377 . S
C1078 C1081 1.411 . S
C1079 H1061 0.930 . S
C1079 N1076 1.321 . S
C1079 C1077 1.400 . S
C1080 H1075 0.930 . S
C1080 C1077 1.386 . S
C1080 C1081 1.395 . S
C1081 C1078 1.411 . S
C1081 C1080 1.395 . S
C1081 C1103 1.420 . S
O1082 Eu1038 2.558 . S
O1082 C1102 1.257 . S
O1083 Eu1038 2.612 . S
O1083 Eu1049 2.380 . S
O1083 C1094 1.276 . S
O1084 Eu1049 2.432 . S
O1084 C1101 1.264 . S
O1085 Eu1038 2.339 . S
O1085 C1101 1.254 . S
O1086 Eu1038 2.563 . S
O1086 C1094 1.235 . S
O1087 Eu1038 2.419 . S
O1087 C1102 1.249 . S
O1088 Eu1049 2.558 . S
O1088 C1113 1.257 . S
O1089 Eu1038 2.380 . S
O1089 Eu1049 2.612 . S
O1089 C1105 1.276 . S
O1090 Eu1038 2.432 . S
O1090 C1112 1.264 . S
O1091 Eu1049 2.339 . S
O1091 C1112 1.254 . S
O1092 Eu1049 2.563 . S
O1092 C1105 1.235 . S
O1093 Eu1049 2.419 . S
O1093 C1113 1.249 . S
C1094 O1083 1.276 . S
C1094 O1086 1.235 . S
C1095 C1097 1.393 . S
C1095 C1099 1.395 . S
C1095 C1102 1.492 . S
C1096 C1097 1.392 . S
C1096 C1098 1.386 . S
C1097 C1095 1.393 . S
C1097 C1096 1.392 . S
C1097 H1114 0.930 . S
C1098 C1096 1.386 . S
C1098 C1100 1.395 . S
C1098 H1115 0.930 . S
C1099 C1095 1.395 . S
C1099 C1100 1.379 . S
C1099 H1116 0.930 . S
C1100 C1098 1.395 . S
C1100 C1099 1.379 . S
C1100 H1117 0.930 . S
C1101 O1084 1.264 . S
C1101 O1085 1.254 . S
C1102 Eu1038 2.848 . S
C1102 O1082 1.257 . S
C1102 O1087 1.249 . S
C1102 C1095 1.492 . S
C1103 H1068 0.931 . S
C1103 C1081 1.420 . S
C1103 C1104 1.351 . S
C1104 H1066 0.930 . S
C1104 C1072 1.423 . S
C1104 C1103 1.351 . S
C1105 O1089 1.276 . S
C1105 O1092 1.235 . S
C1106 C1107 1.393 . S
C1106 C1110 1.395 . S
C1106 C1113 1.492 . S
C1107 C1106 1.393 . S
C1107 C1108 1.392 . S
C1107 H1118 0.930 . S
C1108 C1107 1.392 . S
C1108 C1109 1.386 . S
C1109 C1108 1.386 . S
C1109 C1111 1.395 . S
C1109 H1119 0.930 . S
C1110 C1106 1.395 . S
C1110 C1111 1.379 . S
C1110 H1120 0.930 . S
C1111 C1109 1.395 . S
C1111 C1110 1.379 . S
C1111 H1121 0.930 . S
C1112 O1090 1.264 . S
C1112 O1091 1.254 . S
C1113 Eu1049 2.848 . S
C1113 O1088 1.257 . S
C1113 O1093 1.249 . S
C1113 C1106 1.492 . S
H1114 C1097 0.930 . S
H1115 C1098 0.930 . S
H1116 C1099 0.930 . S
H1117 C1100 0.930 . S
H1118 C1107 0.930 . S
H1119 C1109 0.930 . S
H1120 C1110 0.930 . S
H1121 C1111 0.930 . S
Eu1122 N1153 2.657 . S
Eu1122 N1160 2.609 . S
Eu1122 O1166 2.558 . S
Eu1122 O1167 2.612 . S
Eu1122 O1169 2.339 . S
Eu1122 O1170 2.563 . S
Eu1122 O1171 2.419 . S
Eu1122 O1173 2.380 . S
Eu1122 O1174 2.432 . S
Eu1122 C1186 2.848 . S
C1123 C1126 1.429 . S
C1123 C1127 1.411 . S
C1123 N1130 1.377 . S
C1124 C1126 1.420 . S
C1124 C1128 1.423 . S
C1124 C1136 1.392 . S
C1125 C1127 1.420 . S
C1125 C1128 1.351 . S
C1125 H1148 0.931 . S
C1126 C1123 1.429 . S
C1126 C1124 1.420 . S
C1126 N1134 1.362 . S
C1127 C1123 1.411 . S
C1127 C1125 1.420 . S
C1127 C1132 1.395 . S
C1128 C1124 1.423 . S
C1128 C1125 1.351 . S
C1128 H1140 0.930 . S
C1129 C1131 1.400 . S
C1129 C1132 1.386 . S
C1129 H1141 0.930 . S
N1130 C1123 1.377 . S
N1130 C1131 1.321 . S
N1130 Eu1133 2.609 . S
C1131 C1129 1.400 . S
C1131 N1130 1.321 . S
C1131 H1138 0.930 . S
C1132 C1127 1.395 . S
C1132 C1129 1.386 . S
C1132 H1151 0.930 . S
Eu1133 N1130 2.609 . S
Eu1133 N1134 2.657 . S
Eu1133 O1167 2.380 . S
Eu1133 O1168 2.432 . S
Eu1133 O1172 2.558 . S
Eu1133 O1173 2.612 . S
Eu1133 O1175 2.339 . S
Eu1133 O1176 2.563 . S
Eu1133 O1177 2.419 . S
Eu1133 C1197 2.848 . S
N1134 C1126 1.362 . S
N1134 Eu1133 2.657 . S
N1134 C1135 1.334 . S
C1135 N1134 1.334 . S
C1135 C1137 1.413 . S
C1135 H1142 0.929 . S
C1136 C1124 1.392 . S
C1136 C1137 1.367 . S
C1136 H1144 0.930 . S
C1137 C1135 1.413 . S
C1137 C1136 1.367 . S
C1137 H1139 0.930 . S
H1138 C1131 0.930 . S
H1139 C1137 0.930 . S
H1140 C1128 0.930 . S
H1141 C1129 0.930 . S
H1142 C1135 0.929 . S
H1143 C1157 0.930 . S
H1144 C1136 0.930 . S
H1145 C1163 0.930 . S
H1146 C1154 0.929 . S
H1147 C1161 0.930 . S
H1148 C1125 0.931 . S
H1149 C1155 0.930 . S
H1150 C1188 0.930 . S
H1151 C1132 0.930 . S
H1152 C1187 0.931 . S
N1153 Eu1122 2.657 . S
N1153 C1154 1.334 . S
N1153 C1158 1.362 . S
C1154 H1146 0.929 . S
C1154 N1153 1.334 . S
C1154 C1157 1.413 . S
C1155 H1149 0.930 . S
C1155 C1156 1.392 . S
C1155 C1157 1.367 . S
C1156 C1155 1.392 . S
C1156 C1158 1.420 . S
C1156 C1188 1.423 . S
C1157 H1143 0.930 . S
C1157 C1154 1.413 . S
C1157 C1155 1.367 . S
C1158 N1153 1.362 . S
C1158 C1156 1.420 . S
C1158 C1162 1.429 . S
H1159 C1164 0.930 . S
N1160 Eu1122 2.609 . S
N1160 C1162 1.377 . S
N1160 C1163 1.321 . S
C1161 H1147 0.930 . S
C1161 C1163 1.400 . S
C1161 C1164 1.386 . S
C1162 C1158 1.429 . S
C1162 N1160 1.377 . S
C1162 C1165 1.411 . S
C1163 H1145 0.930 . S
C1163 N1160 1.321 . S
C1163 C1161 1.400 . S
C1164 H1159 0.930 . S
C1164 C1161 1.386 . S
C1164 C1165 1.395 . S
C1165 C1162 1.411 . S
C1165 C1164 1.395 . S
C1165 C1187 1.420 . S
O1166 Eu1122 2.558 . S
O1166 C1186 1.257 . S
O1167 Eu1122 2.612 . S
O1167 Eu1133 2.380 . S
O1167 C1178 1.276 . S
O1168 Eu1133 2.432 . S
O1168 C1185 1.264 . S
O1169 Eu1122 2.339 . S
O1169 C1185 1.254 . S
O1170 Eu1122 2.563 . S
O1170 C1178 1.235 . S
O1171 Eu1122 2.419 . S
O1171 C1186 1.249 . S
O1172 Eu1133 2.558 . S
O1172 C1197 1.257 . S
O1173 Eu1122 2.380 . S
O1173 Eu1133 2.612 . S
O1173 C1189 1.276 . S
O1174 Eu1122 2.432 . S
O1174 C1196 1.264 . S
O1175 Eu1133 2.339 . S
O1175 C1196 1.254 . S
O1176 Eu1133 2.563 . S
O1176 C1189 1.235 . S
O1177 Eu1133 2.419 . S
O1177 C1197 1.249 . S
C1178 O1167 1.276 . S
C1178 O1170 1.235 . S
C1179 C1181 1.393 . S
C1179 C1183 1.395 . S
C1179 C1186 1.492 . S
C1180 C1181 1.392 . S
C1180 C1182 1.386 . S
C1181 C1179 1.393 . S
C1181 C1180 1.392 . S
C1181 H1198 0.930 . S
C1182 C1180 1.386 . S
C1182 C1184 1.395 . S
C1182 H1199 0.930 . S
C1183 C1179 1.395 . S
C1183 C1184 1.379 . S
C1183 H1200 0.930 . S
C1184 C1182 1.395 . S
C1184 C1183 1.379 . S
C1184 H1201 0.930 . S
C1185 O1168 1.264 . S
C1185 O1169 1.254 . S
C1186 Eu1122 2.848 . S
C1186 O1166 1.257 . S
C1186 O1171 1.249 . S
C1186 C1179 1.492 . S
C1187 H1152 0.931 . S
C1187 C1165 1.420 . S
C1187 C1188 1.351 . S
C1188 H1150 0.930 . S
C1188 C1156 1.423 . S
C1188 C1187 1.351 . S
C1189 O1173 1.276 . S
C1189 O1176 1.235 . S
C1190 C1191 1.393 . S
C1190 C1194 1.395 . S
C1190 C1197 1.492 . S
C1191 C1190 1.393 . S
C1191 C1192 1.392 . S
C1191 H1202 0.930 . S
C1192 C1191 1.392 . S
C1192 C1193 1.386 . S
C1193 C1192 1.386 . S
C1193 C1195 1.395 . S
C1193 H1203 0.930 . S
C1194 C1190 1.395 . S
C1194 C1195 1.379 . S
C1194 H1204 0.930 . S
C1195 C1193 1.395 . S
C1195 C1194 1.379 . S
C1195 H1205 0.930 . S
C1196 O1174 1.264 . S
C1196 O1175 1.254 . S
C1197 Eu1133 2.848 . S
C1197 O1172 1.257 . S
C1197 O1177 1.249 . S
C1197 C1190 1.492 . S
H1198 C1181 0.930 . S
H1199 C1182 0.930 . S
H1200 C1183 0.930 . S
H1201 C1184 0.930 . S
H1202 C1191 0.930 . S
H1203 C1193 0.930 . S
H1204 C1194 0.930 . S
H1205 C1195 0.930 . S
Eu1206 N1237 2.657 . S
Eu1206 N1244 2.609 . S
Eu1206 O1250 2.558 . S
Eu1206 O1251 2.612 . S
Eu1206 O1253 2.339 . S
Eu1206 O1254 2.563 . S
Eu1206 O1255 2.419 . S
Eu1206 O1257 2.380 . S
Eu1206 O1258 2.432 . S
Eu1206 C1270 2.848 . S
C1207 C1210 1.429 . S
C1207 C1211 1.411 . S
C1207 N1214 1.377 . S
C1208 C1210 1.420 . S
C1208 C1212 1.423 . S
C1208 C1220 1.392 . S
C1209 C1211 1.420 . S
C1209 C1212 1.351 . S
C1209 H1232 0.931 . S
C1210 C1207 1.429 . S
C1210 C1208 1.420 . S
C1210 N1218 1.362 . S
C1211 C1207 1.411 . S
C1211 C1209 1.420 . S
C1211 C1216 1.395 . S
C1212 C1208 1.423 . S
C1212 C1209 1.351 . S
C1212 H1224 0.930 . S
C1213 C1215 1.400 . S
C1213 C1216 1.386 . S
C1213 H1225 0.930 . S
N1214 C1207 1.377 . S
N1214 C1215 1.321 . S
N1214 Eu1217 2.609 . S
C1215 C1213 1.400 . S
C1215 N1214 1.321 . S
C1215 H1222 0.930 . S
C1216 C1211 1.395 . S
C1216 C1213 1.386 . S
C1216 H1235 0.930 . S
Eu1217 N1214 2.609 . S
Eu1217 N1218 2.657 . S
Eu1217 O1251 2.380 . S
Eu1217 O1252 2.432 . S
Eu1217 O1256 2.558 . S
Eu1217 O1257 2.612 . S
Eu1217 O1259 2.339 . S
Eu1217 O1260 2.563 . S
Eu1217 O1261 2.419 . S
Eu1217 C1281 2.848 . S
N1218 C1210 1.362 . S
N1218 Eu1217 2.657 . S
N1218 C1219 1.334 . S
C1219 N1218 1.334 . S
C1219 C1221 1.413 . S
C1219 H1226 0.929 . S
C1220 C1208 1.392 . S
C1220 C1221 1.367 . S
C1220 H1228 0.930 . S
C1221 C1219 1.413 . S
C1221 C1220 1.367 . S
C1221 H1223 0.930 . S
H1222 C1215 0.930 . S
H1223 C1221 0.930 . S
H1224 C1212 0.930 . S
H1225 C1213 0.930 . S
H1226 C1219 0.929 . S
H1227 C1241 0.930 . S
H1228 C1220 0.930 . S
H1229 C1247 0.930 . S
H1230 C1238 0.929 . S
H1231 C1245 0.930 . S
H1232 C1209 0.931 . S
H1233 C1239 0.930 . S
H1234 C1272 0.930 . S
H1235 C1216 0.930 . S
H1236 C1271 0.931 . S
N1237 Eu1206 2.657 . S
N1237 C1238 1.334 . S
N1237 C1242 1.362 . S
C1238 H1230 0.929 . S
C1238 N1237 1.334 . S
C1238 C1241 1.413 . S
C1239 H1233 0.930 . S
C1239 C1240 1.392 . S
C1239 C1241 1.367 . S
C1240 C1239 1.392 . S
C1240 C1242 1.420 . S
C1240 C1272 1.423 . S
C1241 H1227 0.930 . S
C1241 C1238 1.413 . S
C1241 C1239 1.367 . S
C1242 N1237 1.362 . S
C1242 C1240 1.420 . S
C1242 C1246 1.429 . S
H1243 C1248 0.930 . S
N1244 Eu1206 2.609 . S
N1244 C1246 1.377 . S
N1244 C1247 1.321 . S
C1245 H1231 0.930 . S
C1245 C1247 1.400 . S
C1245 C1248 1.386 . S
C1246 C1242 1.429 . S
C1246 N1244 1.377 . S
C1246 C1249 1.411 . S
C1247 H1229 0.930 . S
C1247 N1244 1.321 . S
C1247 C1245 1.400 . S
C1248 H1243 0.930 . S
C1248 C1245 1.386 . S
C1248 C1249 1.395 . S
C1249 C1246 1.411 . S
C1249 C1248 1.395 . S
C1249 C1271 1.420 . S
O1250 Eu1206 2.558 . S
O1250 C1270 1.257 . S
O1251 Eu1206 2.612 . S
O1251 Eu1217 2.380 . S
O1251 C1262 1.276 . S
O1252 Eu1217 2.432 . S
O1252 C1269 1.264 . S
O1253 Eu1206 2.339 . S
O1253 C1269 1.254 . S
O1254 Eu1206 2.563 . S
O1254 C1262 1.235 . S
O1255 Eu1206 2.419 . S
O1255 C1270 1.249 . S
O1256 Eu1217 2.558 . S
O1256 C1281 1.257 . S
O1257 Eu1206 2.380 . S
O1257 Eu1217 2.612 . S
O1257 C1273 1.276 . S
O1258 Eu1206 2.432 . S
O1258 C1280 1.264 . S
O1259 Eu1217 2.339 . S
O1259 C1280 1.254 . S
O1260 Eu1217 2.563 . S
O1260 C1273 1.235 . S
O1261 Eu1217 2.419 . S
O1261 C1281 1.249 . S
C1262 O1251 1.276 . S
C1262 O1254 1.235 . S
C1263 C1265 1.393 . S
C1263 C1267 1.395 . S
C1263 C1270 1.492 . S
C1264 C1265 1.392 . S
C1264 C1266 1.386 . S
C1265 C1263 1.393 . S
C1265 C1264 1.392 . S
C1265 H1282 0.930 . S
C1266 C1264 1.386 . S
C1266 C1268 1.395 . S
C1266 H1283 0.930 . S
C1267 C1263 1.395 . S
C1267 C1268 1.379 . S
C1267 H1284 0.930 . S
C1268 C1266 1.395 . S
C1268 C1267 1.379 . S
C1268 H1285 0.930 . S
C1269 O1252 1.264 . S
C1269 O1253 1.254 . S
C1270 Eu1206 2.848 . S
C1270 O1250 1.257 . S
C1270 O1255 1.249 . S
C1270 C1263 1.492 . S
C1271 H1236 0.931 . S
C1271 C1249 1.420 . S
C1271 C1272 1.351 . S
C1272 H1234 0.930 . S
C1272 C1240 1.423 . S
C1272 C1271 1.351 . S
C1273 O1257 1.276 . S
C1273 O1260 1.235 . S
C1274 C1275 1.393 . S
C1274 C1278 1.395 . S
C1274 C1281 1.492 . S
C1275 C1274 1.393 . S
C1275 C1276 1.392 . S
C1275 H1286 0.930 . S
C1276 C1275 1.392 . S
C1276 C1277 1.386 . S
C1277 C1276 1.386 . S
C1277 C1279 1.395 . S
C1277 H1287 0.930 . S
C1278 C1274 1.395 . S
C1278 C1279 1.379 . S
C1278 H1288 0.930 . S
C1279 C1277 1.395 . S
C1279 C1278 1.379 . S
C1279 H1289 0.930 . S
C1280 O1258 1.264 . S
C1280 O1259 1.254 . S
C1281 Eu1217 2.848 . S
C1281 O1256 1.257 . S
C1281 O1261 1.249 . S
C1281 C1274 1.492 . S
H1282 C1265 0.930 . S
H1283 C1266 0.930 . S
H1284 C1267 0.930 . S
H1285 C1268 0.930 . S
H1286 C1275 0.930 . S
H1287 C1277 0.930 . S
H1288 C1278 0.930 . S
H1289 C1279 0.930 . S
Eu1290 N1321 2.657 . S
Eu1290 N1328 2.609 . S
Eu1290 O1334 2.558 . S
Eu1290 O1335 2.612 . S
Eu1290 O1337 2.339 . S
Eu1290 O1338 2.563 . S
Eu1290 O1339 2.419 . S
Eu1290 O1341 2.380 . S
Eu1290 O1342 2.432 . S
Eu1290 C1354 2.848 . S
C1291 C1294 1.429 . S
C1291 C1295 1.411 . S
C1291 N1298 1.377 . S
C1292 C1294 1.420 . S
C1292 C1296 1.423 . S
C1292 C1304 1.392 . S
C1293 C1295 1.420 . S
C1293 C1296 1.351 . S
C1293 H1316 0.931 . S
C1294 C1291 1.429 . S
C1294 C1292 1.420 . S
C1294 N1302 1.362 . S
C1295 C1291 1.411 . S
C1295 C1293 1.420 . S
C1295 C1300 1.395 . S
C1296 C1292 1.423 . S
C1296 C1293 1.351 . S
C1296 H1308 0.930 . S
C1297 C1299 1.400 . S
C1297 C1300 1.386 . S
C1297 H1309 0.930 . S
N1298 C1291 1.377 . S
N1298 C1299 1.321 . S
N1298 Eu1301 2.609 . S
C1299 C1297 1.400 . S
C1299 N1298 1.321 . S
C1299 H1306 0.930 . S
C1300 C1295 1.395 . S
C1300 C1297 1.386 . S
C1300 H1319 0.930 . S
Eu1301 N1298 2.609 . S
Eu1301 N1302 2.657 . S
Eu1301 O1335 2.380 . S
Eu1301 O1336 2.432 . S
Eu1301 O1340 2.558 . S
Eu1301 O1341 2.612 . S
Eu1301 O1343 2.339 . S
Eu1301 O1344 2.563 . S
Eu1301 O1345 2.419 . S
Eu1301 C1365 2.848 . S
N1302 C1294 1.362 . S
N1302 Eu1301 2.657 . S
N1302 C1303 1.334 . S
C1303 N1302 1.334 . S
C1303 C1305 1.413 . S
C1303 H1310 0.929 . S
C1304 C1292 1.392 . S
C1304 C1305 1.367 . S
C1304 H1312 0.930 . S
C1305 C1303 1.413 . S
C1305 C1304 1.367 . S
C1305 H1307 0.930 . S
H1306 C1299 0.930 . S
H1307 C1305 0.930 . S
H1308 C1296 0.930 . S
H1309 C1297 0.930 . S
H1310 C1303 0.929 . S
H1311 C1325 0.930 . S
H1312 C1304 0.930 . S
H1313 C1331 0.930 . S
H1314 C1322 0.929 . S
H1315 C1329 0.930 . S
H1316 C1293 0.931 . S
H1317 C1323 0.930 . S
H1318 C1356 0.930 . S
H1319 C1300 0.930 . S
H1320 C1355 0.931 . S
N1321 Eu1290 2.657 . S
N1321 C1322 1.334 . S
N1321 C1326 1.362 . S
C1322 H1314 0.929 . S
C1322 N1321 1.334 . S
C1322 C1325 1.413 . S
C1323 H1317 0.930 . S
C1323 C1324 1.392 . S
C1323 C1325 1.367 . S
C1324 C1323 1.392 . S
C1324 C1326 1.420 . S
C1324 C1356 1.423 . S
C1325 H1311 0.930 . S
C1325 C1322 1.413 . S
C1325 C1323 1.367 . S
C1326 N1321 1.362 . S
C1326 C1324 1.420 . S
C1326 C1330 1.429 . S
H1327 C1332 0.930 . S
N1328 Eu1290 2.609 . S
N1328 C1330 1.377 . S
N1328 C1331 1.321 . S
C1329 H1315 0.930 . S
C1329 C1331 1.400 . S
C1329 C1332 1.386 . S
C1330 C1326 1.429 . S
C1330 N1328 1.377 . S
C1330 C1333 1.411 . S
C1331 H1313 0.930 . S
C1331 N1328 1.321 . S
C1331 C1329 1.400 . S
C1332 H1327 0.930 . S
C1332 C1329 1.386 . S
C1332 C1333 1.395 . S
C1333 C1330 1.411 . S
C1333 C1332 1.395 . S
C1333 C1355 1.420 . S
O1334 Eu1290 2.558 . S
O1334 C1354 1.257 . S
O1335 Eu1290 2.612 . S
O1335 Eu1301 2.380 . S
O1335 C1346 1.276 . S
O1336 Eu1301 2.432 . S
O1336 C1353 1.264 . S
O1337 Eu1290 2.339 . S
O1337 C1353 1.254 . S
O1338 Eu1290 2.563 . S
O1338 C1346 1.235 . S
O1339 Eu1290 2.419 . S
O1339 C1354 1.249 . S
O1340 Eu1301 2.558 . S
O1340 C1365 1.257 . S
O1341 Eu1290 2.380 . S
O1341 Eu1301 2.612 . S
O1341 C1357 1.276 . S
O1342 Eu1290 2.432 . S
O1342 C1364 1.264 . S
O1343 Eu1301 2.339 . S
O1343 C1364 1.254 . S
O1344 Eu1301 2.563 . S
O1344 C1357 1.235 . S
O1345 Eu1301 2.419 . S
O1345 C1365 1.249 . S
C1346 O1335 1.276 . S
C1346 O1338 1.235 . S
C1347 C1349 1.393 . S
C1347 C1351 1.395 . S
C1347 C1354 1.492 . S
C1348 C1349 1.392 . S
C1348 C1350 1.386 . S
C1349 C1347 1.393 . S
C1349 C1348 1.392 . S
C1349 H1366 0.930 . S
C1350 C1348 1.386 . S
C1350 C1352 1.395 . S
C1350 H1367 0.930 . S
C1351 C1347 1.395 . S
C1351 C1352 1.379 . S
C1351 H1368 0.930 . S
C1352 C1350 1.395 . S
C1352 C1351 1.379 . S
C1352 H1369 0.930 . S
C1353 O1336 1.264 . S
C1353 O1337 1.254 . S
C1354 Eu1290 2.848 . S
C1354 O1334 1.257 . S
C1354 O1339 1.249 . S
C1354 C1347 1.492 . S
C1355 H1320 0.931 . S
C1355 C1333 1.420 . S
C1355 C1356 1.351 . S
C1356 H1318 0.930 . S
C1356 C1324 1.423 . S
C1356 C1355 1.351 . S
C1357 O1341 1.276 . S
C1357 O1344 1.235 . S
C1358 C1359 1.393 . S
C1358 C1362 1.395 . S
C1358 C1365 1.492 . S
C1359 C1358 1.393 . S
C1359 C1360 1.392 . S
C1359 H1370 0.930 . S
C1360 C1359 1.392 . S
C1360 C1361 1.386 . S
C1361 C1360 1.386 . S
C1361 C1363 1.395 . S
C1361 H1371 0.930 . S
C1362 C1358 1.395 . S
C1362 C1363 1.379 . S
C1362 H1372 0.930 . S
C1363 C1361 1.395 . S
C1363 C1362 1.379 . S
C1363 H1373 0.930 . S
C1364 O1342 1.264 . S
C1364 O1343 1.254 . S
C1365 Eu1301 2.848 . S
C1365 O1340 1.257 . S
C1365 O1345 1.249 . S
C1365 C1358 1.492 . S
H1366 C1349 0.930 . S
H1367 C1350 0.930 . S
H1368 C1351 0.930 . S
H1369 C1352 0.930 . S
H1370 C1359 0.930 . S
H1371 C1361 0.930 . S
H1372 C1362 0.930 . S
H1373 C1363 0.930 . S
Eu1374 N1405 2.657 . S
Eu1374 N1412 2.609 . S
Eu1374 O1418 2.558 . S
Eu1374 O1419 2.612 . S
Eu1374 O1421 2.339 . S
Eu1374 O1422 2.563 . S
Eu1374 O1423 2.419 . S
Eu1374 O1425 2.380 . S
Eu1374 O1426 2.432 . S
Eu1374 C1438 2.848 . S
C1375 C1378 1.429 . S
C1375 C1379 1.411 . S
C1375 N1382 1.377 . S
C1376 C1378 1.420 . S
C1376 C1380 1.423 . S
C1376 C1388 1.392 . S
C1377 C1379 1.420 . S
C1377 C1380 1.351 . S
C1377 H1400 0.931 . S
C1378 C1375 1.429 . S
C1378 C1376 1.420 . S
C1378 N1386 1.362 . S
C1379 C1375 1.411 . S
C1379 C1377 1.420 . S
C1379 C1384 1.395 . S
C1380 C1376 1.423 . S
C1380 C1377 1.351 . S
C1380 H1392 0.930 . S
C1381 C1383 1.400 . S
C1381 C1384 1.386 . S
C1381 H1393 0.930 . S
N1382 C1375 1.377 . S
N1382 C1383 1.321 . S
N1382 Eu1385 2.609 . S
C1383 C1381 1.400 . S
C1383 N1382 1.321 . S
C1383 H1390 0.930 . S
C1384 C1379 1.395 . S
C1384 C1381 1.386 . S
C1384 H1403 0.930 . S
Eu1385 N1382 2.609 . S
Eu1385 N1386 2.657 . S
Eu1385 O1419 2.380 . S
Eu1385 O1420 2.432 . S
Eu1385 O1424 2.558 . S
Eu1385 O1425 2.612 . S
Eu1385 O1427 2.339 . S
Eu1385 O1428 2.563 . S
Eu1385 O1429 2.419 . S
Eu1385 C1449 2.848 . S
N1386 C1378 1.362 . S
N1386 Eu1385 2.657 . S
N1386 C1387 1.334 . S
C1387 N1386 1.334 . S
C1387 C1389 1.413 . S
C1387 H1394 0.929 . S
C1388 C1376 1.392 . S
C1388 C1389 1.367 . S
C1388 H1396 0.930 . S
C1389 C1387 1.413 . S
C1389 C1388 1.367 . S
C1389 H1391 0.930 . S
H1390 C1383 0.930 . S
H1391 C1389 0.930 . S
H1392 C1380 0.930 . S
H1393 C1381 0.930 . S
H1394 C1387 0.929 . S
H1395 C1409 0.930 . S
H1396 C1388 0.930 . S
H1397 C1415 0.930 . S
H1398 C1406 0.929 . S
H1399 C1413 0.930 . S
H1400 C1377 0.931 . S
H1401 C1407 0.930 . S
H1402 C1440 0.930 . S
H1403 C1384 0.930 . S
H1404 C1439 0.931 . S
N1405 Eu1374 2.657 . S
N1405 C1406 1.334 . S
N1405 C1410 1.362 . S
C1406 H1398 0.929 . S
C1406 N1405 1.334 . S
C1406 C1409 1.413 . S
C1407 H1401 0.930 . S
C1407 C1408 1.392 . S
C1407 C1409 1.367 . S
C1408 C1407 1.392 . S
C1408 C1410 1.420 . S
C1408 C1440 1.423 . S
C1409 H1395 0.930 . S
C1409 C1406 1.413 . S
C1409 C1407 1.367 . S
C1410 N1405 1.362 . S
C1410 C1408 1.420 . S
C1410 C1414 1.429 . S
H1411 C1416 0.930 . S
N1412 Eu1374 2.609 . S
N1412 C1414 1.377 . S
N1412 C1415 1.321 . S
C1413 H1399 0.930 . S
C1413 C1415 1.400 . S
C1413 C1416 1.386 . S
C1414 C1410 1.429 . S
C1414 N1412 1.377 . S
C1414 C1417 1.411 . S
C1415 H1397 0.930 . S
C1415 N1412 1.321 . S
C1415 C1413 1.400 . S
C1416 H1411 0.930 . S
C1416 C1413 1.386 . S
C1416 C1417 1.395 . S
C1417 C1414 1.411 . S
C1417 C1416 1.395 . S
C1417 C1439 1.420 . S
O1418 Eu1374 2.558 . S
O1418 C1438 1.257 . S
O1419 Eu1374 2.612 . S
O1419 Eu1385 2.380 . S
O1419 C1430 1.276 . S
O1420 Eu1385 2.432 . S
O1420 C1437 1.264 . S
O1421 Eu1374 2.339 . S
O1421 C1437 1.254 . S
O1422 Eu1374 2.563 . S
O1422 C1430 1.235 . S
O1423 Eu1374 2.419 . S
O1423 C1438 1.249 . S
O1424 Eu1385 2.558 . S
O1424 C1449 1.257 . S
O1425 Eu1374 2.380 . S
O1425 Eu1385 2.612 . S
O1425 C1441 1.276 . S
O1426 Eu1374 2.432 . S
O1426 C1448 1.264 . S
O1427 Eu1385 2.339 . S
O1427 C1448 1.254 . S
O1428 Eu1385 2.563 . S
O1428 C1441 1.235 . S
O1429 Eu1385 2.419 . S
O1429 C1449 1.249 . S
C1430 O1419 1.276 . S
C1430 O1422 1.235 . S
C1431 C1433 1.393 . S
C1431 C1435 1.395 . S
C1431 C1438 1.492 . S
C1432 C1433 1.392 . S
C1432 C1434 1.386 . S
C1433 C1431 1.393 . S
C1433 C1432 1.392 . S
C1433 H1450 0.930 . S
C1434 C1432 1.386 . S
C1434 C1436 1.395 . S
C1434 H1451 0.930 . S
C1435 C1431 1.395 . S
C1435 C1436 1.379 . S
C1435 H1452 0.930 . S
C1436 C1434 1.395 . S
C1436 C1435 1.379 . S
C1436 H1453 0.930 . S
C1437 O1420 1.264 . S
C1437 O1421 1.254 . S
C1438 Eu1374 2.848 . S
C1438 O1418 1.257 . S
C1438 O1423 1.249 . S
C1438 C1431 1.492 . S
C1439 H1404 0.931 . S
C1439 C1417 1.420 . S
C1439 C1440 1.351 . S
C1440 H1402 0.930 . S
C1440 C1408 1.423 . S
C1440 C1439 1.351 . S
C1441 O1425 1.276 . S
C1441 O1428 1.235 . S
C1442 C1443 1.393 . S
C1442 C1446 1.395 . S
C1442 C1449 1.492 . S
C1443 C1442 1.393 . S
C1443 C1444 1.392 . S
C1443 H1454 0.930 . S
C1444 C1443 1.392 . S
C1444 C1445 1.386 . S
C1445 C1444 1.386 . S
C1445 C1447 1.395 . S
C1445 H1455 0.930 . S
C1446 C1442 1.395 . S
C1446 C1447 1.379 . S
C1446 H1456 0.930 . S
C1447 C1445 1.395 . S
C1447 C1446 1.379 . S
C1447 H1457 0.930 . S
C1448 O1426 1.264 . S
C1448 O1427 1.254 . S
C1449 Eu1385 2.848 . S
C1449 O1424 1.257 . S
C1449 O1429 1.249 . S
C1449 C1442 1.492 . S
H1450 C1433 0.930 . S
H1451 C1434 0.930 . S
H1452 C1435 0.930 . S
H1453 C1436 0.930 . S
H1454 C1443 0.930 . S
H1455 C1445 0.930 . S
H1456 C1446 0.930 . S
H1457 C1447 0.930 . S
C1458 C1459 1.349 . S
C1458 C1460 1.327 . S
C1458 H1483 0.950 . S
C1459 C1458 1.349 . S
C1459 C1475 1.349 . S
C1460 C1458 1.327 . S
C1460 C1479 1.429 . S
C1460 H1484 0.950 . S
C1461 C1478 1.574 . S
C1461 C1480 1.368 . S
C1461 H1485 0.949 . S
H1462 C1466 0.949 . S
C1463 C1464 1.349 . S
C1463 C1465 1.327 . S
C1463 H1486 0.950 . S
C1464 C1463 1.349 . S
C1464 C1476 1.349 . S
C1465 C1463 1.327 . S
C1465 C1481 1.429 . S
C1465 H1487 0.950 . S
C1466 H1462 0.949 . S
C1466 C1474 1.574 . S
C1466 C1482 1.368 . S
H1467 C1475 0.950 . S
H1468 C1473 0.950 . S
H1469 C1474 0.949 . S
H1470 C1476 0.950 . S
H1471 C1477 0.950 . S
H1472 C1478 0.949 . S
C1473 H1468 0.950 . S
C1473 C1475 1.327 . S
C1473 C1479 1.429 . S
C1474 C1466 1.574 . S
C1474 H1469 0.949 . S
C1474 C1480 1.368 . S
C1475 C1459 1.349 . S
C1475 H1467 0.950 . S
C1475 C1473 1.327 . S
C1476 C1464 1.349 . S
C1476 H1470 0.950 . S
C1476 C1477 1.327 . S
C1477 H1471 0.950 . S
C1477 C1476 1.327 . S
C1477 C1481 1.429 . S
C1478 C1461 1.574 . S
C1478 H1472 0.949 . S
C1478 C1482 1.368 . S
C1479 C1460 1.429 . S
C1479 C1473 1.429 . S
C1479 C1480 1.523 . S
C1480 C1461 1.368 . S
C1480 C1474 1.368 . S
C1480 C1479 1.523 . S
C1481 C1465 1.429 . S
C1481 C1477 1.429 . S
C1481 C1482 1.523 . S
C1482 C1466 1.368 . S
C1482 C1478 1.368 . S
C1482 C1481 1.523 . S
H1483 C1458 0.950 . S
H1484 C1460 0.950 . S
H1485 C1461 0.949 . S
H1486 C1463 0.950 . S
H1487 C1465 0.950 . S
C1488 C1489 1.349 . S
C1488 C1490 1.327 . S
C1488 H1513 0.950 . S
C1489 C1488 1.349 . S
C1489 C1505 1.349 . S
C1490 C1488 1.327 . S
C1490 C1509 1.429 . S
C1490 H1514 0.950 . S
C1491 C1508 1.574 . S
C1491 C1510 1.368 . S
C1491 H1515 0.949 . S
H1492 C1496 0.949 . S
C1493 C1494 1.349 . S
C1493 C1495 1.327 . S
C1493 H1516 0.950 . S
C1494 C1493 1.349 . S
C1494 C1506 1.349 . S
C1495 C1493 1.327 . S
C1495 C1511 1.429 . S
C1495 H1517 0.950 . S
C1496 H1492 0.949 . S
C1496 C1504 1.574 . S
C1496 C1512 1.368 . S
H1497 C1505 0.950 . S
H1498 C1503 0.950 . S
H1499 C1504 0.949 . S
H1500 C1506 0.950 . S
H1501 C1507 0.950 . S
H1502 C1508 0.949 . S
C1503 H1498 0.950 . S
C1503 C1505 1.327 . S
C1503 C1509 1.429 . S
C1504 C1496 1.574 . S
C1504 H1499 0.949 . S
C1504 C1510 1.368 . S
C1505 C1489 1.349 . S
C1505 H1497 0.950 . S
C1505 C1503 1.327 . S
C1506 C1494 1.349 . S
C1506 H1500 0.950 . S
C1506 C1507 1.327 . S
C1507 H1501 0.950 . S
C1507 C1506 1.327 . S
C1507 C1511 1.429 . S
C1508 C1491 1.574 . S
C1508 H1502 0.949 . S
C1508 C1512 1.368 . S
C1509 C1490 1.429 . S
C1509 C1503 1.429 . S
C1509 C1510 1.523 . S
C1510 C1491 1.368 . S
C1510 C1504 1.368 . S
C1510 C1509 1.523 . S
C1511 C1495 1.429 . S
C1511 C1507 1.429 . S
C1511 C1512 1.523 . S
C1512 C1496 1.368 . S
C1512 C1508 1.368 . S
C1512 C1511 1.523 . S
H1513 C1488 0.950 . S
H1514 C1490 0.950 . S
H1515 C1491 0.949 . S
H1516 C1493 0.950 . S
H1517 C1495 0.950 . S
C1518 C1519 1.349 . S
C1518 C1520 1.327 . S
C1518 H1543 0.950 . S
C1519 C1518 1.349 . S
C1519 C1535 1.349 . S
C1520 C1518 1.327 . S
C1520 C1539 1.429 . S
C1520 H1544 0.950 . S
C1521 C1538 1.574 . S
C1521 C1540 1.368 . S
C1521 H1545 0.949 . S
H1522 C1526 0.949 . S
C1523 C1524 1.349 . S
C1523 C1525 1.327 . S
C1523 H1546 0.950 . S
C1524 C1523 1.349 . S
C1524 C1536 1.349 . S
C1525 C1523 1.327 . S
C1525 C1541 1.429 . S
C1525 H1547 0.950 . S
C1526 H1522 0.949 . S
C1526 C1534 1.574 . S
C1526 C1542 1.368 . S
H1527 C1535 0.950 . S
H1528 C1533 0.950 . S
H1529 C1534 0.949 . S
H1530 C1536 0.950 . S
H1531 C1537 0.950 . S
H1532 C1538 0.949 . S
C1533 H1528 0.950 . S
C1533 C1535 1.327 . S
C1533 C1539 1.429 . S
C1534 C1526 1.574 . S
C1534 H1529 0.949 . S
C1534 C1540 1.368 . S
C1535 C1519 1.349 . S
C1535 H1527 0.950 . S
C1535 C1533 1.327 . S
C1536 C1524 1.349 . S
C1536 H1530 0.950 . S
C1536 C1537 1.327 . S
C1537 H1531 0.950 . S
C1537 C1536 1.327 . S
C1537 C1541 1.429 . S
C1538 C1521 1.574 . S
C1538 H1532 0.949 . S
C1538 C1542 1.368 . S
C1539 C1520 1.429 . S
C1539 C1533 1.429 . S
C1539 C1540 1.523 . S
C1540 C1521 1.368 . S
C1540 C1534 1.368 . S
C1540 C1539 1.523 . S
C1541 C1525 1.429 . S
C1541 C1537 1.429 . S
C1541 C1542 1.523 . S
C1542 C1526 1.368 . S
C1542 C1538 1.368 . S
C1542 C1541 1.523 . S
H1543 C1518 0.950 . S
H1544 C1520 0.950 . S
H1545 C1521 0.949 . S
H1546 C1523 0.950 . S
H1547 C1525 0.950 . S
C1548 C1549 1.349 . S
C1548 C1550 1.327 . S
C1548 H1573 0.950 . S
C1549 C1548 1.349 . S
C1549 C1565 1.349 . S
C1550 C1548 1.327 . S
C1550 C1569 1.429 . S
C1550 H1574 0.950 . S
C1551 C1568 1.574 . S
C1551 C1570 1.368 . S
C1551 H1575 0.949 . S
H1552 C1556 0.949 . S
C1553 C1554 1.349 . S
C1553 C1555 1.327 . S
C1553 H1576 0.950 . S
C1554 C1553 1.349 . S
C1554 C1566 1.349 . S
C1555 C1553 1.327 . S
C1555 C1571 1.429 . S
C1555 H1577 0.950 . S
C1556 H1552 0.949 . S
C1556 C1564 1.574 . S
C1556 C1572 1.368 . S
H1557 C1565 0.950 . S
H1558 C1563 0.950 . S
H1559 C1564 0.949 . S
H1560 C1566 0.950 1_554 S
H1561 C1567 0.950 . S
H1562 C1568 0.949 . S
C1563 H1558 0.950 . S
C1563 C1565 1.327 . S
C1563 C1569 1.429 . S
C1564 C1556 1.574 . S
C1564 H1559 0.949 . S
C1564 C1570 1.368 . S
C1565 C1549 1.349 . S
C1565 H1557 0.950 . S
C1565 C1563 1.327 . S
C1566 C1554 1.349 . S
C1566 H1560 0.950 1_556 S
C1566 C1567 1.327 . S
C1567 H1561 0.950 . S
C1567 C1566 1.327 . S
C1567 C1571 1.429 . S
C1568 C1551 1.574 . S
C1568 H1562 0.949 . S
C1568 C1572 1.368 . S
C1569 C1550 1.429 . S
C1569 C1563 1.429 . S
C1569 C1570 1.523 . S
C1570 C1551 1.368 . S
C1570 C1564 1.368 . S
C1570 C1569 1.523 . S
C1571 C1555 1.429 . S
C1571 C1567 1.429 . S
C1571 C1572 1.523 . S
C1572 C1556 1.368 . S
C1572 C1568 1.368 . S
C1572 C1571 1.523 . S
H1573 C1548 0.950 . S
H1574 C1550 0.950 . S
H1575 C1551 0.949 . S
H1576 C1553 0.950 . S
H1577 C1555 0.950 . S
C1578 C1579 1.349 . S
C1578 C1580 1.327 . S
C1578 H1603 0.950 . S
C1579 C1578 1.349 . S
C1579 C1595 1.349 . S
C1580 C1578 1.327 . S
C1580 C1599 1.429 . S
C1580 H1604 0.950 . S
C1581 C1598 1.574 . S
C1581 C1600 1.368 . S
C1581 H1605 0.949 . S
H1582 C1586 0.949 . S
C1583 C1584 1.349 . S
C1583 C1585 1.327 . S
C1583 H1606 0.976 . S
C1584 C1583 1.349 . S
C1584 C1596 1.349 . S
C1585 C1583 1.327 . S
C1585 C1601 1.429 . S
C1585 H1607 0.950 . S
C1586 H1582 0.949 . S
C1586 C1594 1.574 . S
C1586 C1602 1.368 . S
H1587 C1595 0.950 . S
H1588 C1593 0.950 . S
H1589 C1594 0.949 . S
H1590 C1596 0.950 . S
H1591 C1597 0.950 . S
H1592 C1598 0.949 . S
C1593 H1588 0.950 . S
C1593 C1595 1.327 . S
C1593 C1599 1.429 . S
C1594 C1586 1.574 . S
C1594 H1589 0.949 . S
C1594 C1600 1.368 . S
C1595 C1579 1.349 . S
C1595 H1587 0.950 . S
C1595 C1593 1.327 . S
C1596 C1584 1.349 . S
C1596 H1590 0.950 . S
C1596 C1597 1.327 . S
C1597 H1591 0.950 . S
C1597 C1596 1.327 . S
C1597 C1601 1.429 . S
C1598 C1581 1.574 . S
C1598 H1592 0.949 . S
C1598 C1602 1.368 . S
C1599 C1580 1.429 . S
C1599 C1593 1.429 . S
C1599 C1600 1.523 . S
C1600 C1581 1.368 . S
C1600 C1594 1.368 . S
C1600 C1599 1.523 . S
C1601 C1585 1.429 . S
C1601 C1597 1.429 . S
C1601 C1602 1.523 . S
C1602 C1586 1.368 . S
C1602 C1598 1.368 . S
C1602 C1601 1.523 . S
H1603 C1578 0.950 . S
H1604 C1580 0.950 . S
H1605 C1581 0.949 . S
H1606 C1583 0.976 . S
H1607 C1585 0.950 . S
C1608 C1609 1.349 . S
C1608 C1610 1.327 . S
C1608 H1633 0.950 . S
C1609 C1608 1.349 . S
C1609 C1625 1.349 . S
C1610 C1608 1.327 . S
C1610 C1629 1.429 . S
C1610 H1634 0.950 . S
C1611 C1628 1.574 . S
C1611 C1630 1.368 . S
C1611 H1635 0.949 . S
H1612 C1616 0.949 . S
C1613 C1614 1.349 . S
C1613 C1615 1.327 . S
C1613 H1636 0.950 1_556 S
C1614 C1613 1.349 . S
C1614 C1626 1.349 . S
C1615 C1613 1.327 . S
C1615 C1631 1.429 . S
C1615 H1637 1.005 . S
C1616 H1612 0.949 . S
C1616 C1624 1.574 . S
C1616 C1632 1.368 . S
H1617 C1625 0.950 . S
H1618 C1623 0.950 . S
H1619 C1624 0.949 . S
H1620 C1626 0.950 . S
H1621 C1627 0.950 . S
H1622 C1628 0.949 . S
C1623 H1618 0.950 . S
C1623 C1625 1.327 . S
C1623 C1629 1.429 . S
C1624 C1616 1.574 . S
C1624 H1619 0.949 . S
C1624 C1630 1.368 . S
C1625 C1609 1.349 . S
C1625 H1617 0.950 . S
C1625 C1623 1.327 . S
C1626 C1614 1.349 . S
C1626 H1620 0.950 . S
C1626 C1627 1.327 . S
C1627 H1621 0.950 . S
C1627 C1626 1.327 . S
C1627 C1631 1.429 . S
C1628 C1611 1.574 . S
C1628 H1622 0.949 . S
C1628 C1632 1.368 . S
C1629 C1610 1.429 . S
C1629 C1623 1.429 . S
C1629 C1630 1.523 . S
C1630 C1611 1.368 . S
C1630 C1624 1.368 . S
C1630 C1629 1.523 . S
C1631 C1615 1.429 . S
C1631 C1627 1.429 . S
C1631 C1632 1.523 . S
C1632 C1616 1.368 . S
C1632 C1628 1.368 . S
C1632 C1631 1.523 . S
H1633 C1608 0.950 . S
H1634 C1610 0.950 . S
H1635 C1611 0.949 . S
H1636 C1613 0.950 1_554 S
H1637 C1615 1.005 . S
C1638 C1639 1.349 . S
C1638 C1640 1.327 . S
C1638 H1663 0.950 . S
C1639 C1638 1.349 . S
C1639 C1655 1.349 . S
C1640 C1638 1.327 . S
C1640 C1659 1.429 . S
C1640 H1664 0.950 . S
C1641 C1658 1.574 . S
C1641 C1660 1.368 . S
C1641 H1665 0.949 . S
H1642 C1646 0.949 . S
C1643 C1644 1.349 . S
C1643 C1645 1.327 . S
C1643 H1666 0.950 . S
C1644 C1643 1.349 . S
C1644 C1656 1.349 . S
C1645 C1643 1.327 . S
C1645 C1661 1.429 . S
C1645 H1667 0.950 . S
C1646 H1642 0.949 . S
C1646 C1654 1.574 . S
C1646 C1662 1.368 . S
H1647 C1655 0.950 . S
H1648 C1653 0.950 . S
H1649 C1654 0.949 . S
H1650 C1656 0.894 1_554 S
H1651 C1657 0.950 . S
H1652 C1658 0.949 . S
C1653 H1648 0.950 . S
C1653 C1655 1.327 . S
C1653 C1659 1.429 . S
C1654 C1646 1.574 . S
C1654 H1649 0.949 . S
C1654 C1660 1.368 . S
C1655 C1639 1.349 . S
C1655 H1647 0.950 . S
C1655 C1653 1.327 . S
C1656 C1644 1.349 . S
C1656 H1650 0.894 1_556 S
C1656 C1657 1.327 . S
C1657 H1651 0.950 . S
C1657 C1656 1.327 . S
C1657 C1661 1.429 . S
C1658 C1641 1.574 . S
C1658 H1652 0.949 . S
C1658 C1662 1.368 . S
C1659 C1640 1.429 . S
C1659 C1653 1.429 . S
C1659 C1660 1.523 . S
C1660 C1641 1.368 . S
C1660 C1654 1.368 . S
C1660 C1659 1.523 . S
C1661 C1645 1.429 . S
C1661 C1657 1.429 . S
C1661 C1662 1.523 . S
C1662 C1646 1.368 . S
C1662 C1658 1.368 . S
C1662 C1661 1.523 . S
H1663 C1638 0.950 . S
H1664 C1640 0.950 . S
H1665 C1641 0.949 . S
H1666 C1643 0.950 . S
H1667 C1645 0.950 . S
C1668 C1669 1.349 . S
C1668 C1670 1.327 . S
C1668 H1693 0.950 . S
C1669 C1668 1.349 . S
C1669 C1685 1.349 . S
C1670 C1668 1.327 . S
C1670 C1689 1.429 . S
C1670 H1694 0.950 . S
C1671 C1688 1.574 . S
C1671 C1690 1.368 . S
C1671 H1695 0.949 . S
H1672 C1676 0.949 . S
C1673 C1674 1.349 . S
C1673 C1675 1.327 . S
C1673 H1696 0.950 . S
C1674 C1673 1.349 . S
C1674 C1686 1.349 . S
C1675 C1673 1.327 . S
C1675 C1691 1.429 . S
C1675 H1697 0.950 . S
C1676 H1672 0.949 . S
C1676 C1684 1.574 . S
C1676 C1692 1.368 . S
H1677 C1685 0.950 . S
H1678 C1683 0.950 . S
H1679 C1684 0.949 . S
H1680 C1686 0.950 1_554 S
H1681 C1687 0.950 . S
H1682 C1688 0.949 . S
C1683 H1678 0.950 . S
C1683 C1685 1.327 . S
C1683 C1689 1.429 . S
C1684 C1676 1.574 . S
C1684 H1679 0.949 . S
C1684 C1690 1.368 . S
C1685 C1669 1.349 . S
C1685 H1677 0.950 . S
C1685 C1683 1.327 . S
C1686 C1674 1.349 . S
C1686 H1680 0.950 1_556 S
C1686 C1687 1.327 . S
C1687 H1681 0.950 . S
C1687 C1686 1.327 . S
C1687 C1691 1.429 . S
C1688 C1671 1.574 . S
C1688 H1682 0.949 . S
C1688 C1692 1.368 . S
C1689 C1670 1.429 . S
C1689 C1683 1.429 . S
C1689 C1690 1.523 . S
C1690 C1671 1.368 . S
C1690 C1684 1.368 . S
C1690 C1689 1.523 . S
C1691 C1675 1.429 . S
C1691 C1687 1.429 . S
C1691 C1692 1.523 . S
C1692 C1676 1.368 . S
C1692 C1688 1.368 . S
C1692 C1691 1.523 . S
H1693 C1668 0.950 . S
H1694 C1670 0.950 . S
H1695 C1671 0.949 . S
H1696 C1673 0.950 . S
H1697 C1675 0.950 . S
C1698 C1699 1.349 . S
C1698 C1700 1.327 . S
C1698 H1723 0.950 . S
C1699 C1698 1.349 . S
C1699 C1715 1.349 . S
C1700 C1698 1.327 . S
C1700 C1719 1.429 . S
C1700 H1724 0.950 . S
C1701 C1718 1.574 . S
C1701 C1720 1.368 . S
C1701 H1725 0.949 . S
H1702 C1706 0.949 . S
C1703 C1704 1.349 . S
C1703 C1705 1.327 . S
C1703 H1726 0.950 . S
C1704 C1703 1.349 . S
C1704 C1716 1.349 . S
C1705 C1703 1.327 . S
C1705 C1721 1.429 . S
C1705 H1727 0.950 . S
C1706 H1702 0.949 . S
C1706 C1714 1.574 . S
C1706 C1722 1.368 . S
H1707 C1715 0.950 . S
H1708 C1713 0.950 . S
H1709 C1714 0.949 . S
H1710 C1716 0.950 . S
H1711 C1717 0.950 . S
H1712 C1718 0.949 . S
C1713 H1708 0.950 . S
C1713 C1715 1.327 . S
C1713 C1719 1.429 . S
C1714 C1706 1.574 . S
C1714 H1709 0.949 . S
C1714 C1720 1.368 . S
C1715 C1699 1.349 . S
C1715 H1707 0.950 . S
C1715 C1713 1.327 . S
C1716 C1704 1.349 . S
C1716 H1710 0.950 . S
C1716 C1717 1.327 . S
C1717 H1711 0.950 . S
C1717 C1716 1.327 . S
C1717 C1721 1.429 . S
C1718 C1701 1.574 . S
C1718 H1712 0.949 . S
C1718 C1722 1.368 . S
C1719 C1700 1.429 . S
C1719 C1713 1.429 . S
C1719 C1720 1.523 . S
C1720 C1701 1.368 . S
C1720 C1714 1.368 . S
C1720 C1719 1.523 . S
C1721 C1705 1.429 . S
C1721 C1717 1.429 . S
C1721 C1722 1.523 . S
C1722 C1706 1.368 . S
C1722 C1718 1.368 . S
C1722 C1721 1.523 . S
H1723 C1698 0.950 . S
H1724 C1700 0.950 . S
H1725 C1701 0.949 . S
H1726 C1703 0.950 . S
H1727 C1705 0.950 . S
C1728 C1729 1.349 . S
C1728 C1730 1.327 . S
C1728 H1753 0.950 . S
C1729 C1728 1.349 . S
C1729 C1745 1.349 . S
C1730 C1728 1.327 . S
C1730 C1749 1.429 . S
C1730 H1754 0.950 . S
C1731 C1748 1.574 . S
C1731 C1750 1.368 . S
C1731 H1755 0.949 . S
H1732 C1736 0.949 . S
C1733 C1734 1.349 . S
C1733 C1735 1.327 . S
C1733 H1756 0.950 . S
C1734 C1733 1.349 . S
C1734 C1746 1.349 . S
C1735 C1733 1.327 . S
C1735 C1751 1.429 . S
C1735 H1757 0.950 . S
C1736 H1732 0.949 . S
C1736 C1744 1.574 . S
C1736 C1752 1.368 . S
H1737 C1745 0.950 . S
H1738 C1743 0.950 . S
H1739 C1744 0.949 . S
H1740 C1746 0.950 . S
H1741 C1747 0.950 . S
H1742 C1748 0.949 . S
C1743 H1738 0.950 . S
C1743 C1745 1.327 . S
C1743 C1749 1.429 . S
C1744 C1736 1.574 . S
C1744 H1739 0.949 . S
C1744 C1750 1.368 . S
C1745 C1729 1.349 . S
C1745 H1737 0.950 . S
C1745 C1743 1.327 . S
C1746 C1734 1.349 . S
C1746 H1740 0.950 . S
C1746 C1747 1.327 . S
C1747 H1741 0.950 . S
C1747 C1746 1.327 . S
C1747 C1751 1.429 . S
C1748 C1731 1.574 . S
C1748 H1742 0.949 . S
C1748 C1752 1.368 . S
C1749 C1730 1.429 . S
C1749 C1743 1.429 . S
C1749 C1750 1.523 . S
C1750 C1731 1.368 . S
C1750 C1744 1.368 . S
C1750 C1749 1.523 . S
C1751 C1735 1.429 . S
C1751 C1747 1.429 . S
C1751 C1752 1.523 . S
C1752 C1736 1.368 . S
C1752 C1748 1.368 . S
C1752 C1751 1.523 . S
H1753 C1728 0.950 . S
H1754 C1730 0.950 . S
H1755 C1731 0.949 . S
H1756 C1733 0.950 . S
H1757 C1735 0.950 . S
C1758 C1759 1.349 . S
C1758 C1760 1.327 . S
C1758 H1783 0.950 . S
C1759 C1758 1.349 . S
C1759 C1775 1.349 . S
C1760 C1758 1.327 . S
C1760 C1779 1.429 . S
C1760 H1784 0.950 . S
C1761 C1778 1.574 . S
C1761 C1780 1.368 . S
C1761 H1785 0.949 . S
H1762 C1766 0.949 . S
C1763 C1764 1.349 . S
C1763 C1765 1.327 . S
C1763 H1786 0.950 . S
C1764 C1763 1.349 . S
C1764 C1776 1.349 . S
C1765 C1763 1.327 . S
C1765 C1781 1.429 . S
C1765 H1787 0.950 . S
C1766 H1762 0.949 . S
C1766 C1774 1.574 . S
C1766 C1782 1.368 . S
H1767 C1775 0.950 . S
H1768 C1773 0.950 . S
H1769 C1774 0.949 . S
H1770 C1776 0.950 . S
H1771 C1777 0.950 . S
H1772 C1778 0.949 . S
C1773 H1768 0.950 . S
C1773 C1775 1.327 . S
C1773 C1779 1.429 . S
C1774 C1766 1.574 . S
C1774 H1769 0.949 . S
C1774 C1780 1.368 . S
C1775 C1759 1.349 . S
C1775 H1767 0.950 . S
C1775 C1773 1.327 . S
C1776 C1764 1.349 . S
C1776 H1770 0.950 . S
C1776 C1777 1.327 . S
C1777 H1771 0.950 . S
C1777 C1776 1.327 . S
C1777 C1781 1.429 . S
C1778 C1761 1.574 . S
C1778 H1772 0.949 . S
C1778 C1782 1.368 . S
C1779 C1760 1.429 . S
C1779 C1773 1.429 . S
C1779 C1780 1.523 . S
C1780 C1761 1.368 . S
C1780 C1774 1.368 . S
C1780 C1779 1.523 . S
C1781 C1765 1.429 . S
C1781 C1777 1.429 . S
C1781 C1782 1.523 . S
C1782 C1766 1.368 . S
C1782 C1778 1.368 . S
C1782 C1781 1.523 . S
H1783 C1758 0.950 . S
H1784 C1760 0.950 . S
H1785 C1761 0.949 . S
H1786 C1763 0.950 . S
H1787 C1765 0.950 . S
C1788 C1789 1.349 . S
C1788 C1790 1.327 . S
C1788 H1813 0.950 . S
C1789 C1788 1.349 . S
C1789 C1805 1.349 . S
C1790 C1788 1.327 . S
C1790 C1809 1.429 . S
C1790 H1814 0.950 . S
C1791 C1808 1.574 . S
C1791 C1810 1.368 . S
C1791 H1815 0.949 . S
H1792 C1796 0.949 . S
C1793 C1794 1.349 . S
C1793 C1795 1.327 . S
C1793 H1816 0.950 . S
C1794 C1793 1.349 . S
C1794 C1806 1.349 . S
C1795 C1793 1.327 . S
C1795 C1811 1.429 . S
C1795 H1817 0.950 . S
C1796 H1792 0.949 . S
C1796 C1804 1.574 . S
C1796 C1812 1.368 . S
H1797 C1805 0.950 . S
H1798 C1803 0.950 . S
H1799 C1804 0.949 . S
H1800 C1806 0.950 . S
H1801 C1807 0.950 . S
H1802 C1808 0.949 . S
C1803 H1798 0.950 . S
C1803 C1805 1.327 . S
C1803 C1809 1.429 . S
C1804 C1796 1.574 . S
C1804 H1799 0.949 . S
C1804 C1810 1.368 . S
C1805 C1789 1.349 . S
C1805 H1797 0.950 . S
C1805 C1803 1.327 . S
C1806 C1794 1.349 . S
C1806 H1800 0.950 . S
C1806 C1807 1.327 . S
C1807 H1801 0.950 . S
C1807 C1806 1.327 . S
C1807 C1811 1.429 . S
C1808 C1791 1.574 . S
C1808 H1802 0.949 . S
C1808 C1812 1.368 . S
C1809 C1790 1.429 . S
C1809 C1803 1.429 . S
C1809 C1810 1.523 . S
C1810 C1791 1.368 . S
C1810 C1804 1.368 . S
C1810 C1809 1.523 . S
C1811 C1795 1.429 . S
C1811 C1807 1.429 . S
C1811 C1812 1.523 . S
C1812 C1796 1.368 . S
C1812 C1808 1.368 . S
C1812 C1811 1.523 . S
H1813 C1788 0.950 . S
H1814 C1790 0.950 . S
H1815 C1791 0.949 . S
H1816 C1793 0.950 . S
H1817 C1795 0.950 . S
C1818 C1819 1.349 . S
C1818 C1820 1.327 . S
C1818 H1843 0.950 . S
C1819 C1818 1.349 . S
C1819 C1835 1.349 . S
C1820 C1818 1.327 . S
C1820 C1839 1.429 1_655 S
C1820 H1844 0.950 . S
C1821 C1838 1.574 . S
C1821 C1840 1.368 . S
C1821 H1845 0.949 . S
H1822 C1826 0.949 . S
C1823 C1824 1.349 . S
C1823 C1825 1.327 . S
C1823 H1846 0.950 . S
C1824 C1823 1.349 . S
C1824 C1836 1.349 . S
C1825 C1823 1.327 . S
C1825 C1841 1.429 . S
C1825 H1847 0.950 . S
C1826 H1822 0.949 . S
C1826 C1834 1.574 . S
C1826 C1842 1.368 . S
H1827 C1835 0.950 . S
H1828 C1833 0.950 . S
H1829 C1834 0.949 . S
H1830 C1836 0.950 . S
H1831 C1837 0.950 . S
H1832 C1838 0.949 . S
C1833 H1828 0.950 . S
C1833 C1835 1.327 1_455 S
C1833 C1839 1.429 . S
C1834 C1826 1.574 . S
C1834 H1829 0.949 . S
C1834 C1840 1.368 . S
C1835 C1819 1.349 . S
C1835 H1827 0.950 . S
C1835 C1833 1.327 1_655 S
C1836 C1824 1.349 . S
C1836 H1830 0.950 . S
C1836 C1837 1.327 . S
C1837 H1831 0.950 . S
C1837 C1836 1.327 . S
C1837 C1841 1.429 . S
C1838 C1821 1.574 . S
C1838 H1832 0.949 . S
C1838 C1842 1.368 . S
C1839 C1820 1.429 1_455 S
C1839 C1833 1.429 . S
C1839 C1840 1.523 . S
C1840 C1821 1.368 . S
C1840 C1834 1.368 . S
C1840 C1839 1.523 . S
C1841 C1825 1.429 . S
C1841 C1837 1.429 . S
C1841 C1842 1.523 . S
C1842 C1826 1.368 . S
C1842 C1838 1.368 . S
C1842 C1841 1.523 . S
H1843 C1818 0.950 . S
H1844 C1820 0.950 . S
H1845 C1821 0.949 . S
H1846 C1823 0.950 . S
H1847 C1825 0.950 . S
C1848 C1849 1.349 . S
C1848 C1850 1.327 . S
C1848 H1873 0.950 . S
C1849 C1848 1.349 . S
C1849 C1865 1.349 . S
C1850 C1848 1.327 . S
C1850 C1869 1.429 . S
C1850 H1874 0.950 . S
C1851 C1868 1.574 . S
C1851 C1870 1.368 . S
C1851 H1875 0.949 . S
H1852 C1856 0.949 . S
C1853 C1854 1.349 . S
C1853 C1855 1.327 . S
C1853 H1876 0.950 . S
C1854 C1853 1.349 . S
C1854 C1866 1.349 . S
C1855 C1853 1.327 . S
C1855 C1871 1.429 . S
C1855 H1877 0.950 . S
C1856 H1852 0.949 . S
C1856 C1864 1.574 . S
C1856 C1872 1.368 . S
H1857 C1865 0.950 . S
H1858 C1863 0.950 . S
H1859 C1864 0.949 . S
H1860 C1866 0.950 . S
H1861 C1867 0.950 . S
H1862 C1868 0.949 . S
C1863 H1858 0.950 . S
C1863 C1865 1.327 . S
C1863 C1869 1.429 . S
C1864 C1856 1.574 . S
C1864 H1859 0.949 . S
C1864 C1870 1.368 . S
C1865 C1849 1.349 . S
C1865 H1857 0.950 . S
C1865 C1863 1.327 . S
C1866 C1854 1.349 . S
C1866 H1860 0.950 . S
C1866 C1867 1.327 . S
C1867 H1861 0.950 . S
C1867 C1866 1.327 . S
C1867 C1871 1.429 . S
C1868 C1851 1.574 . S
C1868 H1862 0.949 . S
C1868 C1872 1.368 . S
C1869 C1850 1.429 . S
C1869 C1863 1.429 . S
C1869 C1870 1.523 . S
C1870 C1851 1.368 . S
C1870 C1864 1.368 . S
C1870 C1869 1.523 . S
C1871 C1855 1.429 . S
C1871 C1867 1.429 . S
C1871 C1872 1.523 . S
C1872 C1856 1.368 . S
C1872 C1868 1.368 . S
C1872 C1871 1.523 . S
H1873 C1848 0.950 . S
H1874 C1850 0.950 . S
H1875 C1851 0.949 . S
H1876 C1853 0.950 . S
H1877 C1855 0.950 . S
C1878 C1879 1.349 . S
C1878 C1880 1.327 . S
C1878 H1903 0.950 . S
C1879 C1878 1.349 . S
C1879 C1895 1.349 . S
C1880 C1878 1.327 . S
C1880 C1899 1.429 . S
C1880 H1904 0.950 1_545 S
C1881 C1898 1.574 . S
C1881 C1900 1.368 . S
C1881 H1905 0.949 . S
H1882 C1886 0.949 . S
C1883 C1884 1.349 . S
C1883 C1885 1.327 . S
C1883 H1906 0.950 . S
C1884 C1883 1.349 . S
C1884 C1896 1.349 . S
C1885 C1883 1.327 . S
C1885 C1901 1.429 . S
C1885 H1907 0.950 . S
C1886 H1882 0.949 . S
C1886 C1894 1.574 . S
C1886 C1902 1.368 . S
H1887 C1895 0.950 . S
H1888 C1893 0.950 . S
H1889 C1894 0.949 . S
H1890 C1896 0.950 . S
H1891 C1897 0.950 . S
H1892 C1898 0.949 . S
C1893 H1888 0.950 . S
C1893 C1895 1.327 . S
C1893 C1899 1.429 . S
C1894 C1886 1.574 . S
C1894 H1889 0.949 . S
C1894 C1900 1.368 . S
C1895 C1879 1.349 . S
C1895 H1887 0.950 . S
C1895 C1893 1.327 . S
C1896 C1884 1.349 . S
C1896 H1890 0.950 . S
C1896 C1897 1.327 . S
C1897 H1891 0.950 . S
C1897 C1896 1.327 . S
C1897 C1901 1.429 . S
C1898 C1881 1.574 . S
C1898 H1892 0.949 . S
C1898 C1902 1.368 . S
C1899 C1880 1.429 . S
C1899 C1893 1.429 . S
C1899 C1900 1.523 1_545 S
C1900 C1881 1.368 . S
C1900 C1894 1.368 . S
C1900 C1899 1.523 1_565 S
C1901 C1885 1.429 . S
C1901 C1897 1.429 . S
C1901 C1902 1.523 . S
C1902 C1886 1.368 . S
C1902 C1898 1.368 . S
C1902 C1901 1.523 . S
H1903 C1878 0.950 . S
H1904 C1880 0.950 1_565 S
H1905 C1881 0.949 . S
H1906 C1883 0.950 . S
H1907 C1885 0.950 . S
C1908 C1909 1.349 . S
C1908 C1910 1.327 . S
C1908 H1933 0.950 . S
C1909 C1908 1.349 . S
C1909 C1925 1.349 . S
C1910 C1908 1.327 . S
C1910 C1929 1.429 . S
C1910 H1934 0.950 . S
C1911 C1928 1.574 . S
C1911 C1930 1.368 . S
C1911 H1935 0.949 . S
H1912 C1916 0.949 . S
C1913 C1914 1.349 . S
C1913 C1915 1.327 . S
C1913 H1936 0.950 . S
C1914 C1913 1.349 . S
C1914 C1926 1.349 . S
C1915 C1913 1.327 . S
C1915 C1931 1.429 . S
C1915 H1937 0.950 . S
C1916 H1912 0.949 . S
C1916 C1924 1.574 . S
C1916 C1932 1.368 . S
H1917 C1925 0.950 . S
H1918 C1923 0.950 . S
H1919 C1924 0.949 . S
H1920 C1926 0.950 . S
H1921 C1927 0.950 . S
H1922 C1928 0.949 . S
C1923 H1918 0.950 . S
C1923 C1925 1.327 . S
C1923 C1929 1.429 . S
C1924 C1916 1.574 . S
C1924 H1919 0.949 . S
C1924 C1930 1.368 . S
C1925 C1909 1.349 . S
C1925 H1917 0.950 . S
C1925 C1923 1.327 . S
C1926 C1914 1.349 . S
C1926 H1920 0.950 . S
C1926 C1927 1.327 . S
C1927 H1921 0.950 . S
C1927 C1926 1.327 . S
C1927 C1931 1.429 . S
C1928 C1911 1.574 . S
C1928 H1922 0.949 . S
C1928 C1932 1.368 . S
C1929 C1910 1.429 . S
C1929 C1923 1.429 . S
C1929 C1930 1.523 . S
C1930 C1911 1.368 . S
C1930 C1924 1.368 . S
C1930 C1929 1.523 . S
C1931 C1915 1.429 . S
C1931 C1927 1.429 . S
C1931 C1932 1.523 . S
C1932 C1916 1.368 . S
C1932 C1928 1.368 . S
C1932 C1931 1.523 . S
H1933 C1908 0.950 . S
H1934 C1910 0.950 . S
H1935 C1911 0.949 . S
H1936 C1913 0.950 . S
H1937 C1915 0.950 . S
C1938 C1939 1.349 . S
C1938 C1940 1.327 . S
C1938 H1963 0.950 . S
C1939 C1938 1.349 . S
C1939 C1955 1.349 . S
C1940 C1938 1.327 . S
C1940 C1959 1.429 . S
C1940 H1964 0.950 . S
C1941 C1958 1.574 . S
C1941 C1960 1.368 . S
C1941 H1965 0.949 . S
H1942 C1946 0.949 . S
C1943 C1944 1.349 . S
C1943 C1945 1.327 . S
C1943 H1966 0.950 . S
C1944 C1943 1.349 . S
C1944 C1956 1.349 . S
C1945 C1943 1.327 . S
C1945 C1961 1.429 . S
C1945 H1967 0.950 . S
C1946 H1942 0.949 . S
C1946 C1954 1.574 . S
C1946 C1962 1.368 . S
H1947 C1955 0.950 . S
H1948 C1953 0.950 . S
H1949 C1954 0.949 . S
H1950 C1956 0.950 . S
H1951 C1957 0.950 . S
H1952 C1958 0.949 . S
C1953 H1948 0.950 . S
C1953 C1955 1.327 . S
C1953 C1959 1.429 . S
C1954 C1946 1.574 . S
C1954 H1949 0.949 . S
C1954 C1960 1.368 . S
C1955 C1939 1.349 . S
C1955 H1947 0.950 . S
C1955 C1953 1.327 . S
C1956 C1944 1.349 . S
C1956 H1950 0.950 . S
C1956 C1957 1.327 . S
C1957 H1951 0.950 . S
C1957 C1956 1.327 . S
C1957 C1961 1.429 . S
C1958 C1941 1.574 . S
C1958 H1952 0.949 . S
C1958 C1962 1.368 . S
C1959 C1940 1.429 . S
C1959 C1953 1.429 . S
C1959 C1960 1.523 . S
C1960 C1941 1.368 . S
C1960 C1954 1.368 . S
C1960 C1959 1.523 . S
C1961 C1945 1.429 . S
C1961 C1957 1.429 . S
C1961 C1962 1.523 . S
C1962 C1946 1.368 . S
C1962 C1958 1.368 . S
C1962 C1961 1.523 . S
H1963 C1938 0.950 . S
H1964 C1940 0.950 . S
H1965 C1941 0.949 . S
H1966 C1943 0.950 . S
H1967 C1945 0.950 . S
C1968 C1969 1.349 . S
C1968 C1970 1.327 . S
C1968 H1993 0.950 . S
C1969 C1968 1.349 . S
C1969 C1985 1.349 . S
C1970 C1968 1.327 . S
C1970 C1989 1.429 . S
C1970 H1994 0.950 . S
C1971 C1988 1.574 . S
C1971 C1990 1.368 . S
C1971 H1995 0.949 . S
H1972 C1976 0.949 . S
C1973 C1974 1.349 . S
C1973 C1975 1.327 . S
C1973 H1996 0.950 . S
C1974 C1973 1.349 . S
C1974 C1986 1.349 . S
C1975 C1973 1.327 . S
C1975 C1991 1.429 . S
C1975 H1997 0.950 . S
C1976 H1972 0.949 . S
C1976 C1984 1.574 . S
C1976 C1992 1.368 . S
H1977 C1985 0.950 . S
H1978 C1983 0.950 . S
H1979 C1984 0.949 . S
H1980 C1986 0.950 . S
H1981 C1987 0.950 . S
H1982 C1988 0.949 . S
C1983 H1978 0.950 . S
C1983 C1985 1.327 . S
C1983 C1989 1.429 . S
C1984 C1976 1.574 . S
C1984 H1979 0.949 . S
C1984 C1990 1.368 . S
C1985 C1969 1.349 . S
C1985 H1977 0.950 . S
C1985 C1983 1.327 . S
C1986 C1974 1.349 . S
C1986 H1980 0.950 . S
C1986 C1987 1.327 . S
C1987 H1981 0.950 . S
C1987 C1986 1.327 . S
C1987 C1991 1.429 . S
C1988 C1971 1.574 . S
C1988 H1982 0.949 . S
C1988 C1992 1.368 . S
C1989 C1970 1.429 . S
C1989 C1983 1.429 . S
C1989 C1990 1.523 . S
C1990 C1971 1.368 . S
C1990 C1984 1.368 . S
C1990 C1989 1.523 . S
C1991 C1975 1.429 . S
C1991 C1987 1.429 . S
C1991 C1992 1.523 . S
C1992 C1976 1.368 . S
C1992 C1988 1.368 . S
C1992 C1991 1.523 . S
H1993 C1968 0.950 . S
H1994 C1970 0.950 . S
H1995 C1971 0.949 . S
H1996 C1973 0.950 . S
H1997 C1975 0.950 . S
C1998 C1999 1.349 . S
C1998 C2000 1.327 . S
C1998 H2023 0.950 . S
C1999 C1998 1.349 . S
C1999 C2015 1.349 . S
C2000 C1998 1.327 . S
C2000 C2019 1.429 . S
C2000 H2024 0.950 . S
C2001 C2018 1.574 . S
C2001 C2020 1.368 . S
C2001 H2025 0.949 . S
H2002 C2006 0.949 . S
C2003 C2004 1.349 . S
C2003 C2005 1.327 . S
C2003 H2026 0.950 . S
C2004 C2003 1.349 . S
C2004 C2016 1.349 . S
C2005 C2003 1.327 . S
C2005 C2021 1.429 . S
C2005 H2027 0.950 . S
C2006 H2002 0.949 . S
C2006 C2014 1.574 . S
C2006 C2022 1.368 . S
H2007 C2015 0.950 . S
H2008 C2013 0.950 . S
H2009 C2014 0.949 . S
H2010 C2016 0.950 . S
H2011 C2017 0.950 . S
H2012 C2018 0.949 . S
C2013 H2008 0.950 . S
C2013 C2015 1.327 . S
C2013 C2019 1.429 . S
C2014 C2006 1.574 . S
C2014 H2009 0.949 . S
C2014 C2020 1.368 . S
C2015 C1999 1.349 . S
C2015 H2007 0.950 . S
C2015 C2013 1.327 . S
C2016 C2004 1.349 . S
C2016 H2010 0.950 . S
C2016 C2017 1.327 . S
C2017 H2011 0.950 . S
C2017 C2016 1.327 . S
C2017 C2021 1.429 . S
C2018 C2001 1.574 . S
C2018 H2012 0.949 . S
C2018 C2022 1.368 . S
C2019 C2000 1.429 . S
C2019 C2013 1.429 . S
C2019 C2020 1.523 . S
C2020 C2001 1.368 . S
C2020 C2014 1.368 . S
C2020 C2019 1.523 . S
C2021 C2005 1.429 . S
C2021 C2017 1.429 . S
C2021 C2022 1.523 . S
C2022 C2006 1.368 . S
C2022 C2018 1.368 . S
C2022 C2021 1.523 . S
H2023 C1998 0.950 . S
H2024 C2000 0.950 . S
H2025 C2001 0.949 . S
H2026 C2003 0.950 . S
H2027 C2005 0.950 . S
C2028 C2029 1.349 . S
C2028 C2030 1.327 . S
C2028 H2053 0.950 . S
C2029 C2028 1.349 . S
C2029 C2045 1.349 . S
C2030 C2028 1.327 . S
C2030 C2049 1.429 . S
C2030 H2054 0.950 . S
C2031 C2048 1.574 . S
C2031 C2050 1.368 . S
C2031 H2055 0.949 . S
H2032 C2036 0.949 . S
C2033 C2034 1.349 . S
C2033 C2035 1.327 . S
C2033 H2056 0.950 . S
C2034 C2033 1.349 . S
C2034 C2046 1.349 . S
C2035 C2033 1.327 . S
C2035 C2051 1.429 . S
C2035 H2057 0.950 . S
C2036 H2032 0.949 . S
C2036 C2044 1.574 . S
C2036 C2052 1.368 . S
H2037 C2045 0.950 . S
H2038 C2043 0.950 . S
H2039 C2044 0.949 . S
H2040 C2046 0.950 . S
H2041 C2047 0.950 . S
H2042 C2048 0.949 . S
C2043 H2038 0.950 . S
C2043 C2045 1.327 . S
C2043 C2049 1.429 . S
C2044 C2036 1.574 . S
C2044 H2039 0.949 . S
C2044 C2050 1.368 . S
C2045 C2029 1.349 . S
C2045 H2037 0.950 . S
C2045 C2043 1.327 . S
C2046 C2034 1.349 . S
C2046 H2040 0.950 . S
C2046 C2047 1.327 . S
C2047 H2041 0.950 . S
C2047 C2046 1.327 . S
C2047 C2051 1.429 . S
C2048 C2031 1.574 . S
C2048 H2042 0.949 . S
C2048 C2052 1.368 . S
C2049 C2030 1.429 . S
C2049 C2043 1.429 . S
C2049 C2050 1.523 . S
C2050 C2031 1.368 . S
C2050 C2044 1.368 . S
C2050 C2049 1.523 . S
C2051 C2035 1.429 . S
C2051 C2047 1.429 . S
C2051 C2052 1.523 . S
C2052 C2036 1.368 . S
C2052 C2048 1.368 . S
C2052 C2051 1.523 . S
H2053 C2028 0.950 . S
H2054 C2030 0.950 . S
H2055 C2031 0.949 . S
H2056 C2033 0.950 . S
H2057 C2035 0.950 . S
C2058 C2059 1.349 . S
C2058 C2060 1.327 . S
C2058 H2083 0.950 . S
C2059 C2058 1.349 . S
C2059 C2075 1.349 . S
C2060 C2058 1.327 . S
C2060 C2079 1.429 . S
C2060 H2084 0.950 . S
C2061 C2078 1.574 . S
C2061 C2080 1.368 . S
C2061 H2085 0.949 . S
H2062 C2066 0.949 . S
C2063 C2064 1.349 . S
C2063 C2065 1.327 . S
C2063 H2086 0.950 . S
C2064 C2063 1.349 . S
C2064 C2076 1.349 . S
C2065 C2063 1.327 . S
C2065 C2081 1.429 . S
C2065 H2087 0.950 . S
C2066 H2062 0.949 . S
C2066 C2074 1.574 . S
C2066 C2082 1.368 . S
H2067 C2075 0.950 . S
H2068 C2073 0.950 . S
H2069 C2074 0.949 . S
H2070 C2076 0.950 . S
H2071 C2077 0.950 . S
H2072 C2078 0.949 . S
C2073 H2068 0.950 . S
C2073 C2075 1.327 . S
C2073 C2079 1.429 . S
C2074 C2066 1.574 . S
C2074 H2069 0.949 . S
C2074 C2080 1.368 . S
C2075 C2059 1.349 . S
C2075 H2067 0.950 . S
C2075 C2073 1.327 . S
C2076 C2064 1.349 . S
C2076 H2070 0.950 . S
C2076 C2077 1.327 . S
C2077 H2071 0.950 . S
C2077 C2076 1.327 . S
C2077 C2081 1.429 . S
C2078 C2061 1.574 . S
C2078 H2072 0.949 . S
C2078 C2082 1.368 . S
C2079 C2060 1.429 . S
C2079 C2073 1.429 . S
C2079 C2080 1.523 . S
C2080 C2061 1.368 . S
C2080 C2074 1.368 . S
C2080 C2079 1.523 . S
C2081 C2065 1.429 . S
C2081 C2077 1.429 . S
C2081 C2082 1.523 . S
C2082 C2066 1.368 . S
C2082 C2078 1.368 . S
C2082 C2081 1.523 . S
H2083 C2058 0.950 . S
H2084 C2060 0.950 . S
H2085 C2061 0.949 . S
H2086 C2063 0.950 . S
H2087 C2065 0.950 . S
C2088 C2089 1.349 . S
C2088 C2090 1.327 . S
C2088 H2113 0.950 . S
C2089 C2088 1.349 . S
C2089 C2105 1.349 . S
C2090 C2088 1.327 . S
C2090 C2109 1.429 1_545 S
C2090 H2114 0.950 . S
C2091 C2108 1.574 . S
C2091 C2110 1.368 . S
C2091 H2115 0.949 . S
H2092 C2096 0.949 . S
C2093 C2094 1.349 . S
C2093 C2095 1.327 . S
C2093 H2116 0.950 . S
C2094 C2093 1.349 . S
C2094 C2106 1.349 . S
C2095 C2093 1.327 . S
C2095 C2111 1.429 . S
C2095 H2117 0.950 . S
C2096 H2092 0.949 . S
C2096 C2104 1.574 . S
C2096 C2112 1.368 . S
H2097 C2105 0.950 . S
H2098 C2103 0.950 1_565 S
H2099 C2104 0.949 . S
H2100 C2106 0.950 . S
H2101 C2107 0.950 . S
H2102 C2108 0.949 . S
C2103 H2098 0.950 1_545 S
C2103 C2105 1.327 . S
C2103 C2109 1.429 1_545 S
C2104 C2096 1.574 . S
C2104 H2099 0.949 . S
C2104 C2110 1.368 . S
C2105 C2089 1.349 . S
C2105 H2097 0.950 . S
C2105 C2103 1.327 . S
C2106 C2094 1.349 . S
C2106 H2100 0.950 . S
C2106 C2107 1.327 . S
C2107 H2101 0.950 . S
C2107 C2106 1.327 . S
C2107 C2111 1.429 . S
C2108 C2091 1.574 . S
C2108 H2102 0.949 . S
C2108 C2112 1.368 . S
C2109 C2090 1.429 1_565 S
C2109 C2103 1.429 1_565 S
C2109 C2110 1.523 . S
C2110 C2091 1.368 . S
C2110 C2104 1.368 . S
C2110 C2109 1.523 . S
C2111 C2095 1.429 . S
C2111 C2107 1.429 . S
C2111 C2112 1.523 . S
C2112 C2096 1.368 . S
C2112 C2108 1.368 . S
C2112 C2111 1.523 . S
H2113 C2088 0.950 . S
H2114 C2090 0.950 . S
H2115 C2091 0.949 . S
H2116 C2093 0.950 . S
H2117 C2095 0.950 . S
C2118 C2119 1.349 . S
C2118 C2120 1.327 . S
C2118 H2143 0.950 . S
C2119 C2118 1.349 . S
C2119 C2135 1.349 . S
C2120 C2118 1.327 . S
C2120 C2139 1.429 1_655 S
C2120 H2144 0.950 . S
C2121 C2138 1.574 . S
C2121 C2140 1.368 . S
C2121 H2145 0.949 . S
H2122 C2126 0.949 . S
C2123 C2124 1.349 . S
C2123 C2125 1.327 . S
C2123 H2146 0.950 . S
C2124 C2123 1.349 . S
C2124 C2136 1.349 . S
C2125 C2123 1.327 . S
C2125 C2141 1.429 . S
C2125 H2147 0.950 . S
C2126 H2122 0.949 . S
C2126 C2134 1.574 . S
C2126 C2142 1.368 . S
H2127 C2135 0.950 . S
H2128 C2133 0.950 . S
H2129 C2134 0.949 . S
H2130 C2136 0.950 . S
H2131 C2137 0.950 . S
H2132 C2138 0.949 . S
C2133 H2128 0.950 . S
C2133 C2135 1.327 1_455 S
C2133 C2139 1.429 . S
C2134 C2126 1.574 . S
C2134 H2129 0.949 . S
C2134 C2140 1.368 . S
C2135 C2119 1.349 . S
C2135 H2127 0.950 . S
C2135 C2133 1.327 1_655 S
C2136 C2124 1.349 . S
C2136 H2130 0.950 . S
C2136 C2137 1.327 . S
C2137 H2131 0.950 . S
C2137 C2136 1.327 . S
C2137 C2141 1.429 . S
C2138 C2121 1.574 . S
C2138 H2132 0.949 . S
C2138 C2142 1.368 . S
C2139 C2120 1.429 1_455 S
C2139 C2133 1.429 . S
C2139 C2140 1.523 . S
C2140 C2121 1.368 . S
C2140 C2134 1.368 . S
C2140 C2139 1.523 . S
C2141 C2125 1.429 . S
C2141 C2137 1.429 . S
C2141 C2142 1.523 . S
C2142 C2126 1.368 . S
C2142 C2138 1.368 . S
C2142 C2141 1.523 . S
H2143 C2118 0.950 . S
H2144 C2120 0.950 . S
H2145 C2121 0.949 . S
H2146 C2123 0.950 . S
H2147 C2125 0.950 . S
C2148 C2149 1.349 . S
C2148 C2150 1.327 . S
C2148 H2173 0.950 . S
C2149 C2148 1.349 . S
C2149 C2165 1.349 . S
C2150 C2148 1.327 . S
C2150 C2169 1.429 . S
C2150 H2174 0.950 . S
C2151 C2168 1.574 . S
C2151 C2170 1.368 . S
C2151 H2175 0.949 . S
H2152 C2156 0.949 . S
C2153 C2154 1.349 . S
C2153 C2155 1.327 . S
C2153 H2176 0.950 . S
C2154 C2153 1.349 . S
C2154 C2166 1.349 . S
C2155 C2153 1.327 . S
C2155 C2171 1.429 . S
C2155 H2177 0.950 . S
C2156 H2152 0.949 . S
C2156 C2164 1.574 . S
C2156 C2172 1.368 . S
H2157 C2165 0.950 . S
H2158 C2163 0.950 . S
H2159 C2164 0.949 . S
H2160 C2166 0.950 . S
H2161 C2167 0.950 . S
H2162 C2168 0.949 . S
C2163 H2158 0.950 . S
C2163 C2165 1.327 . S
C2163 C2169 1.429 . S
C2164 C2156 1.574 . S
C2164 H2159 0.949 . S
C2164 C2170 1.368 . S
C2165 C2149 1.349 . S
C2165 H2157 0.950 . S
C2165 C2163 1.327 . S
C2166 C2154 1.349 . S
C2166 H2160 0.950 . S
C2166 C2167 1.327 . S
C2167 H2161 0.950 . S
C2167 C2166 1.327 . S
C2167 C2171 1.429 . S
C2168 C2151 1.574 . S
C2168 H2162 0.949 . S
C2168 C2172 1.368 . S
C2169 C2150 1.429 . S
C2169 C2163 1.429 . S
C2169 C2170 1.523 . S
C2170 C2151 1.368 . S
C2170 C2164 1.368 . S
C2170 C2169 1.523 . S
C2171 C2155 1.429 . S
C2171 C2167 1.429 . S
C2171 C2172 1.523 . S
C2172 C2156 1.368 . S
C2172 C2168 1.368 . S
C2172 C2171 1.523 . S
H2173 C2148 0.950 . S
H2174 C2150 0.950 . S
H2175 C2151 0.949 . S
H2176 C2153 0.950 . S
H2177 C2155 0.950 . S
C2178 C2179 1.349 . S
C2178 C2180 1.327 . S
C2178 H2203 0.950 . S
C2179 C2178 1.349 . S
C2179 C2195 1.349 . S
C2180 C2178 1.327 . S
C2180 C2199 1.429 . S
C2180 H2204 0.950 . S
C2181 C2198 1.574 . S
C2181 C2200 1.368 . S
C2181 H2205 0.949 . S
H2182 C2186 0.949 . S
C2183 C2184 1.349 . S
C2183 C2185 1.327 . S
C2183 H2206 0.950 . S
C2184 C2183 1.349 . S
C2184 C2196 1.349 . S
C2185 C2183 1.327 . S
C2185 C2201 1.429 . S
C2185 H2207 0.950 . S
C2186 H2182 0.949 . S
C2186 C2194 1.574 . S
C2186 C2202 1.368 . S
H2187 C2195 0.950 . S
H2188 C2193 0.950 . S
H2189 C2194 0.949 . S
H2190 C2196 0.950 . S
H2191 C2197 0.950 . S
H2192 C2198 0.949 . S
C2193 H2188 0.950 . S
C2193 C2195 1.327 . S
C2193 C2199 1.429 . S
C2194 C2186 1.574 . S
C2194 H2189 0.949 . S
C2194 C2200 1.368 . S
C2195 C2179 1.349 . S
C2195 H2187 0.950 . S
C2195 C2193 1.327 . S
C2196 C2184 1.349 . S
C2196 H2190 0.950 . S
C2196 C2197 1.327 . S
C2197 H2191 0.950 . S
C2197 C2196 1.327 . S
C2197 C2201 1.429 . S
C2198 C2181 1.574 . S
C2198 H2192 0.949 . S
C2198 C2202 1.368 . S
C2199 C2180 1.429 . S
C2199 C2193 1.429 . S
C2199 C2200 1.523 . S
C2200 C2181 1.368 . S
C2200 C2194 1.368 . S
C2200 C2199 1.523 . S
C2201 C2185 1.429 . S
C2201 C2197 1.429 . S
C2201 C2202 1.523 . S
C2202 C2186 1.368 . S
C2202 C2198 1.368 . S
C2202 C2201 1.523 . S
H2203 C2178 0.950 . S
H2204 C2180 0.950 . S
H2205 C2181 0.949 . S
H2206 C2183 0.950 . S
H2207 C2185 0.950 . S
C2208 C2209 1.349 . S
C2208 C2210 1.327 . S
C2208 H2233 0.950 . S
C2209 C2208 1.349 . S
C2209 C2225 1.349 . S
C2210 C2208 1.327 . S
C2210 C2229 1.429 . S
C2210 H2234 0.950 . S
C2211 C2228 1.574 . S
C2211 C2230 1.368 . S
C2211 H2235 0.949 . S
H2212 C2216 0.949 . S
C2213 C2214 1.349 . S
C2213 C2215 1.327 . S
C2213 H2236 0.950 . S
C2214 C2213 1.349 . S
C2214 C2226 1.349 . S
C2215 C2213 1.327 . S
C2215 C2231 1.429 . S
C2215 H2237 0.950 . S
C2216 H2212 0.949 . S
C2216 C2224 1.574 . S
C2216 C2232 1.368 . S
H2217 C2225 0.950 . S
H2218 C2223 0.950 . S
H2219 C2224 0.949 . S
H2220 C2226 0.950 . S
H2221 C2227 0.950 . S
H2222 C2228 0.949 . S
C2223 H2218 0.950 . S
C2223 C2225 1.327 . S
C2223 C2229 1.429 . S
C2224 C2216 1.574 . S
C2224 H2219 0.949 . S
C2224 C2230 1.368 . S
C2225 C2209 1.349 . S
C2225 H2217 0.950 . S
C2225 C2223 1.327 . S
C2226 C2214 1.349 . S
C2226 H2220 0.950 . S
C2226 C2227 1.327 . S
C2227 H2221 0.950 . S
C2227 C2226 1.327 . S
C2227 C2231 1.429 . S
C2228 C2211 1.574 . S
C2228 H2222 0.949 . S
C2228 C2232 1.368 . S
C2229 C2210 1.429 . S
C2229 C2223 1.429 . S
C2229 C2230 1.523 . S
C2230 C2211 1.368 . S
C2230 C2224 1.368 . S
C2230 C2229 1.523 . S
C2231 C2215 1.429 . S
C2231 C2227 1.429 . S
C2231 C2232 1.523 . S
C2232 C2216 1.368 . S
C2232 C2228 1.368 . S
C2232 C2231 1.523 . S
H2233 C2208 0.950 . S
H2234 C2210 0.950 . S
H2235 C2211 0.949 . S
H2236 C2213 0.950 . S
H2237 C2215 0.950 . S
C2238 C2239 1.349 . S
C2238 C2240 1.327 . S
C2238 H2263 0.950 . S
C2239 C2238 1.349 . S
C2239 C2255 1.349 . S
C2240 C2238 1.327 . S
C2240 C2259 1.429 . S
C2240 H2264 0.950 . S
C2241 C2258 1.574 . S
C2241 C2260 1.368 . S
C2241 H2265 0.949 . S
H2242 C2246 0.949 . S
C2243 C2244 1.349 . S
C2243 C2245 1.327 . S
C2243 H2266 0.950 . S
C2244 C2243 1.349 . S
C2244 C2256 1.349 . S
C2245 C2243 1.327 . S
C2245 C2261 1.429 . S
C2245 H2267 0.950 . S
C2246 H2242 0.949 . S
C2246 C2254 1.574 . S
C2246 C2262 1.368 . S
H2247 C2255 0.950 . S
H2248 C2253 0.950 . S
H2249 C2254 0.949 . S
H2250 C2256 0.950 . S
H2251 C2257 0.950 . S
H2252 C2258 0.949 . S
C2253 H2248 0.950 . S
C2253 C2255 1.327 . S
C2253 C2259 1.429 . S
C2254 C2246 1.574 . S
C2254 H2249 0.949 . S
C2254 C2260 1.368 . S
C2255 C2239 1.349 . S
C2255 H2247 0.950 . S
C2255 C2253 1.327 . S
C2256 C2244 1.349 . S
C2256 H2250 0.950 . S
C2256 C2257 1.327 . S
C2257 H2251 0.950 . S
C2257 C2256 1.327 . S
C2257 C2261 1.429 . S
C2258 C2241 1.574 . S
C2258 H2252 0.949 . S
C2258 C2262 1.368 . S
C2259 C2240 1.429 . S
C2259 C2253 1.429 . S
C2259 C2260 1.523 . S
C2260 C2241 1.368 . S
C2260 C2254 1.368 . S
C2260 C2259 1.523 . S
C2261 C2245 1.429 . S
C2261 C2257 1.429 . S
C2261 C2262 1.523 . S
C2262 C2246 1.368 . S
C2262 C2258 1.368 . S
C2262 C2261 1.523 . S
H2263 C2238 0.950 . S
H2264 C2240 0.950 . S
H2265 C2241 0.949 . S
H2266 C2243 0.950 . S
H2267 C2245 0.950 . S
C2268 C2269 1.349 . S
C2268 C2270 1.327 . S
C2268 H2293 0.950 . S
C2269 C2268 1.349 . S
C2269 C2285 1.349 . S
C2270 C2268 1.327 . S
C2270 C2289 1.429 1_565 S
C2270 H2294 0.950 . S
C2271 C2288 1.574 . S
C2271 C2290 1.368 . S
C2271 H2295 0.949 . S
H2272 C2276 0.949 . S
C2273 C2274 1.349 . S
C2273 C2275 1.327 . S
C2273 H2296 0.950 . S
C2274 C2273 1.349 . S
C2274 C2286 1.349 . S
C2275 C2273 1.327 . S
C2275 C2291 1.429 . S
C2275 H2297 0.950 . S
C2276 H2272 0.949 . S
C2276 C2284 1.574 . S
C2276 C2292 1.368 . S
H2277 C2285 0.950 . S
H2278 C2283 0.948 . S
H2279 C2284 0.949 . S
H2280 C2286 0.950 . S
H2281 C2287 0.950 . S
H2282 C2288 0.949 . S
C2283 H2278 0.948 . S
C2283 C2285 1.329 1_545 S
C2283 C2289 1.429 . S
C2284 C2276 1.574 . S
C2284 H2279 0.949 . S
C2284 C2290 1.368 . S
C2285 C2269 1.349 . S
C2285 H2277 0.950 . S
C2285 C2283 1.329 1_565 S
C2286 C2274 1.349 . S
C2286 H2280 0.950 . S
C2286 C2287 1.327 . S
C2287 H2281 0.950 . S
C2287 C2286 1.327 . S
C2287 C2291 1.429 . S
C2288 C2271 1.574 . S
C2288 H2282 0.949 . S
C2288 C2292 1.368 . S
C2289 C2270 1.429 1_545 S
C2289 C2283 1.429 . S
C2289 C2290 1.523 . S
C2290 C2271 1.368 . S
C2290 C2284 1.368 . S
C2290 C2289 1.523 . S
C2291 C2275 1.429 . S
C2291 C2287 1.429 . S
C2291 C2292 1.523 . S
C2292 C2276 1.368 . S
C2292 C2288 1.368 . S
C2292 C2291 1.523 . S
H2293 C2268 0.950 . S
H2294 C2270 0.950 . S
H2295 C2271 0.949 . S
H2296 C2273 0.950 . S
H2297 C2275 0.950 . S
C2298 C2299 1.349 . S
C2298 C2300 1.327 1_455 S
C2298 H2323 0.950 . S
C2299 C2298 1.349 . S
C2299 C2315 1.349 . S
C2300 C2298 1.327 1_655 S
C2300 C2319 1.429 . S
C2300 H2324 0.950 . S
C2301 C2318 1.574 . S
C2301 C2320 1.368 . S
C2301 H2325 0.949 . S
H2302 C2306 0.949 . S
C2303 C2304 1.349 . S
C2303 C2305 1.327 . S
C2303 H2326 0.950 . S
C2304 C2303 1.349 . S
C2304 C2316 1.349 . S
C2305 C2303 1.327 . S
C2305 C2321 1.429 . S
C2305 H2327 0.950 . S
C2306 H2302 0.949 . S
C2306 C2314 1.574 . S
C2306 C2322 1.368 . S
H2307 C2315 0.950 . S
H2308 C2313 0.950 . S
H2309 C2314 0.949 . S
H2310 C2316 0.950 . S
H2311 C2317 0.950 . S
H2312 C2318 0.949 . S
C2313 H2308 0.950 . S
C2313 C2315 1.327 . S
C2313 C2319 1.429 1_455 S
C2314 C2306 1.574 . S
C2314 H2309 0.949 . S
C2314 C2320 1.368 . S
C2315 C2299 1.349 . S
C2315 H2307 0.950 . S
C2315 C2313 1.327 . S
C2316 C2304 1.349 . S
C2316 H2310 0.950 . S
C2316 C2317 1.327 . S
C2317 H2311 0.950 . S
C2317 C2316 1.327 . S
C2317 C2321 1.429 . S
C2318 C2301 1.574 . S
C2318 H2312 0.949 . S
C2318 C2322 1.368 . S
C2319 C2300 1.429 . S
C2319 C2313 1.429 1_655 S
C2319 C2320 1.523 . S
C2320 C2301 1.368 . S
C2320 C2314 1.368 . S
C2320 C2319 1.523 . S
C2321 C2305 1.429 . S
C2321 C2317 1.429 . S
C2321 C2322 1.523 . S
C2322 C2306 1.368 . S
C2322 C2318 1.368 . S
C2322 C2321 1.523 . S
H2323 C2298 0.950 . S
H2324 C2300 0.950 . S
H2325 C2301 0.949 . S
H2326 C2303 0.950 . S
H2327 C2305 0.950 . S
C2328 C2329 1.349 . S
C2328 C2330 1.327 . S
C2328 H2353 0.950 . S
C2329 C2328 1.349 . S
C2329 C2345 1.349 . S
C2330 C2328 1.327 . S
C2330 C2349 1.429 . S
C2330 H2354 0.950 . S
C2331 C2348 1.574 . S
C2331 C2350 1.368 . S
C2331 H2355 0.949 . S
H2332 C2336 0.949 . S
C2333 C2334 1.349 . S
C2333 C2335 1.327 . S
C2333 H2356 0.950 . S
C2334 C2333 1.349 . S
C2334 C2346 1.349 . S
C2335 C2333 1.327 . S
C2335 C2351 1.429 . S
C2335 H2357 0.950 . S
C2336 H2332 0.949 . S
C2336 C2344 1.574 . S
C2336 C2352 1.368 . S
H2337 C2345 0.950 . S
H2338 C2343 0.950 . S
H2339 C2344 0.949 . S
H2340 C2346 0.950 . S
H2341 C2347 0.950 . S
H2342 C2348 0.949 . S
C2343 H2338 0.950 . S
C2343 C2345 1.327 . S
C2343 C2349 1.429 . S
C2344 C2336 1.574 . S
C2344 H2339 0.949 . S
C2344 C2350 1.368 . S
C2345 C2329 1.349 . S
C2345 H2337 0.950 . S
C2345 C2343 1.327 . S
C2346 C2334 1.349 . S
C2346 H2340 0.950 . S
C2346 C2347 1.327 . S
C2347 H2341 0.950 . S
C2347 C2346 1.327 . S
C2347 C2351 1.429 . S
C2348 C2331 1.574 . S
C2348 H2342 0.949 . S
C2348 C2352 1.368 . S
C2349 C2330 1.429 . S
C2349 C2343 1.429 . S
C2349 C2350 1.523 . S
C2350 C2331 1.368 . S
C2350 C2344 1.368 . S
C2350 C2349 1.523 . S
C2351 C2335 1.429 . S
C2351 C2347 1.429 . S
C2351 C2352 1.523 . S
C2352 C2336 1.368 . S
C2352 C2348 1.368 . S
C2352 C2351 1.523 . S
H2353 C2328 0.950 . S
H2354 C2330 0.950 . S
H2355 C2331 0.949 . S
H2356 C2333 0.950 . S
H2357 C2335 0.950 . S
C2358 C2359 1.349 . S
C2358 C2360 1.327 . S
C2358 H2383 0.950 . S
C2359 C2358 1.349 . S
C2359 C2375 1.349 . S
C2360 C2358 1.327 . S
C2360 C2379 1.429 1_455 S
C2360 H2384 0.950 . S
C2361 C2378 1.574 . S
C2361 C2380 1.368 . S
C2361 H2385 0.949 . S
H2362 C2366 0.949 . S
C2363 C2364 1.349 . S
C2363 C2365 1.327 . S
C2363 H2386 0.950 . S
C2364 C2363 1.349 . S
C2364 C2376 1.349 . S
C2365 C2363 1.327 . S
C2365 C2381 1.429 . S
C2365 H2387 0.950 . S
C2366 H2362 0.949 . S
C2366 C2374 1.574 . S
C2366 C2382 1.368 . S
H2367 C2375 0.950 . S
H2368 C2373 0.950 1_655 S
H2369 C2374 0.949 . S
H2370 C2376 0.950 . S
H2371 C2377 0.950 . S
H2372 C2378 0.949 . S
C2373 H2368 0.950 1_455 S
C2373 C2375 1.327 . S
C2373 C2379 1.429 1_455 S
C2374 C2366 1.574 . S
C2374 H2369 0.949 . S
C2374 C2380 1.368 . S
C2375 C2359 1.349 . S
C2375 H2367 0.950 . S
C2375 C2373 1.327 . S
C2376 C2364 1.349 . S
C2376 H2370 0.950 . S
C2376 C2377 1.327 . S
C2377 H2371 0.950 . S
C2377 C2376 1.327 . S
C2377 C2381 1.429 . S
C2378 C2361 1.574 . S
C2378 H2372 0.949 . S
C2378 C2382 1.368 . S
C2379 C2360 1.429 1_655 S
C2379 C2373 1.429 1_655 S
C2379 C2380 1.523 . S
C2380 C2361 1.368 . S
C2380 C2374 1.368 . S
C2380 C2379 1.523 . S
C2381 C2365 1.429 . S
C2381 C2377 1.429 . S
C2381 C2382 1.523 . S
C2382 C2366 1.368 . S
C2382 C2378 1.368 . S
C2382 C2381 1.523 . S
H2383 C2358 0.950 . S
H2384 C2360 0.950 . S
H2385 C2361 0.949 . S
H2386 C2363 0.950 . S
H2387 C2365 0.950 . S
C2388 C2389 1.349 . S
C2388 C2390 1.327 . S
C2388 H2413 0.950 . S
C2389 C2388 1.349 . S
C2389 C2405 1.349 . S
C2390 C2388 1.327 . S
C2390 C2409 1.429 . S
C2390 H2414 0.950 . S
C2391 C2408 1.574 . S
C2391 C2410 1.368 . S
C2391 H2415 0.949 . S
H2392 C2396 0.949 . S
C2393 C2394 1.349 . S
C2393 C2395 1.327 . S
C2393 H2416 0.950 . S
C2394 C2393 1.349 . S
C2394 C2406 1.349 . S
C2395 C2393 1.327 . S
C2395 C2411 1.429 . S
C2395 H2417 0.950 . S
C2396 H2392 0.949 . S
C2396 C2404 1.574 . S
C2396 C2412 1.368 . S
H2397 C2405 0.950 . S
H2398 C2403 0.950 . S
H2399 C2404 0.949 . S
H2400 C2406 0.950 . S
H2401 C2407 0.950 . S
H2402 C2408 0.949 . S
C2403 H2398 0.950 . S
C2403 C2405 1.327 . S
C2403 C2409 1.429 . S
C2404 C2396 1.574 . S
C2404 H2399 0.949 . S
C2404 C2410 1.368 . S
C2405 C2389 1.349 . S
C2405 H2397 0.950 . S
C2405 C2403 1.327 . S
C2406 C2394 1.349 . S
C2406 H2400 0.950 . S
C2406 C2407 1.327 . S
C2407 H2401 0.950 . S
C2407 C2406 1.327 . S
C2407 C2411 1.429 . S
C2408 C2391 1.574 . S
C2408 H2402 0.949 . S
C2408 C2412 1.368 . S
C2409 C2390 1.429 . S
C2409 C2403 1.429 . S
C2409 C2410 1.523 . S
C2410 C2391 1.368 . S
C2410 C2404 1.368 . S
C2410 C2409 1.523 . S
C2411 C2395 1.429 . S
C2411 C2407 1.429 . S
C2411 C2412 1.523 . S
C2412 C2396 1.368 . S
C2412 C2408 1.368 . S
C2412 C2411 1.523 . S
H2413 C2388 0.950 . S
H2414 C2390 0.950 . S
H2415 C2391 0.949 . S
H2416 C2393 0.950 . S
H2417 C2395 0.950 . S
C2418 C2419 1.349 . S
C2418 C2420 1.327 . S
C2418 H2443 0.950 . S
C2419 C2418 1.349 . S
C2419 C2435 1.349 . S
C2420 C2418 1.327 . S
C2420 C2439 1.429 1_565 S
C2420 H2444 0.950 . S
C2421 C2438 1.574 . S
C2421 C2440 1.368 . S
C2421 H2445 0.949 . S
H2422 C2426 0.949 . S
C2423 C2424 1.349 . S
C2423 C2425 1.327 . S
C2423 H2446 0.950 . S
C2424 C2423 1.349 . S
C2424 C2436 1.349 . S
C2425 C2423 1.327 . S
C2425 C2441 1.429 . S
C2425 H2447 0.950 . S
C2426 H2422 0.949 . S
C2426 C2434 1.574 . S
C2426 C2442 1.368 . S
H2427 C2435 0.950 . S
H2428 C2433 0.950 . S
H2429 C2434 0.949 . S
H2430 C2436 0.950 . S
H2431 C2437 0.950 . S
H2432 C2438 0.949 . S
C2433 H2428 0.950 . S
C2433 C2435 1.327 . S
C2433 C2439 1.429 1_565 S
C2434 C2426 1.574 . S
C2434 H2429 0.949 . S
C2434 C2440 1.368 . S
C2435 C2419 1.349 . S
C2435 H2427 0.950 . S
C2435 C2433 1.327 . S
C2436 C2424 1.349 . S
C2436 H2430 0.950 . S
C2436 C2437 1.327 . S
C2437 H2431 0.950 . S
C2437 C2436 1.327 . S
C2437 C2441 1.429 . S
C2438 C2421 1.574 . S
C2438 H2432 0.949 . S
C2438 C2442 1.368 . S
C2439 C2420 1.429 1_545 S
C2439 C2433 1.429 1_545 S
C2439 C2440 1.523 . S
C2440 C2421 1.368 . S
C2440 C2434 1.368 . S
C2440 C2439 1.523 . S
C2441 C2425 1.429 . S
C2441 C2437 1.429 . S
C2441 C2442 1.523 . S
C2442 C2426 1.368 . S
C2442 C2438 1.368 . S
C2442 C2441 1.523 . S
H2443 C2418 0.950 . S
H2444 C2420 0.950 . S
H2445 C2421 0.949 . S
H2446 C2423 0.950 . S
H2447 C2425 0.950 . S
C2448 C2449 1.349 . S
C2448 C2450 1.327 . S
C2448 H2473 0.950 . S
C2449 C2448 1.349 . S
C2449 C2465 1.349 . S
C2450 C2448 1.327 . S
C2450 C2469 1.429 . S
C2450 H2474 0.950 . S
C2451 C2468 1.574 . S
C2451 C2470 1.368 . S
C2451 H2475 0.949 . S
H2452 C2456 0.949 . S
C2453 C2454 1.349 . S
C2453 C2455 1.327 . S
C2453 H2476 0.950 . S
C2454 C2453 1.349 . S
C2454 C2466 1.349 . S
C2455 C2453 1.327 . S
C2455 C2471 1.429 . S
C2455 H2477 0.950 . S
C2456 H2452 0.949 . S
C2456 C2464 1.574 . S
C2456 C2472 1.368 . S
H2457 C2465 0.950 . S
H2458 C2463 0.950 . S
H2459 C2464 0.949 . S
H2460 C2466 0.950 . S
H2461 C2467 0.950 . S
H2462 C2468 0.949 . S
C2463 H2458 0.950 . S
C2463 C2465 1.327 . S
C2463 C2469 1.429 . S
C2464 C2456 1.574 . S
C2464 H2459 0.949 . S
C2464 C2470 1.368 . S
C2465 C2449 1.349 . S
C2465 H2457 0.950 . S
C2465 C2463 1.327 . S
C2466 C2454 1.349 . S
C2466 H2460 0.950 . S
C2466 C2467 1.327 . S
C2467 H2461 0.950 . S
C2467 C2466 1.327 . S
C2467 C2471 1.429 . S
C2468 C2451 1.574 . S
C2468 H2462 0.949 . S
C2468 C2472 1.368 . S
C2469 C2450 1.429 . S
C2469 C2463 1.429 . S
C2469 C2470 1.523 . S
C2470 C2451 1.368 . S
C2470 C2464 1.368 . S
C2470 C2469 1.523 . S
C2471 C2455 1.429 . S
C2471 C2467 1.429 . S
C2471 C2472 1.523 . S
C2472 C2456 1.368 . S
C2472 C2468 1.368 . S
C2472 C2471 1.523 . S
H2473 C2448 0.950 . S
H2474 C2450 0.950 . S
H2475 C2451 0.949 . S
H2476 C2453 0.950 . S
H2477 C2455 0.950 . S
C2478 C2479 1.349 . S
C2478 C2480 1.327 . S
C2478 H2503 0.950 . S
C2479 C2478 1.349 . S
C2479 C2495 1.349 . S
C2480 C2478 1.327 . S
C2480 C2499 1.429 . S
C2480 H2504 0.950 . S
C2481 C2498 1.574 . S
C2481 C2500 1.368 . S
C2481 H2505 0.949 . S
H2482 C2486 0.949 . S
C2483 C2484 1.349 . S
C2483 C2485 1.327 . S
C2483 H2506 0.950 . S
C2484 C2483 1.349 . S
C2484 C2496 1.349 . S
C2485 C2483 1.327 . S
C2485 C2501 1.429 . S
C2485 H2507 0.950 . S
C2486 H2482 0.949 . S
C2486 C2494 1.574 . S
C2486 C2502 1.368 . S
H2487 C2495 0.950 . S
H2488 C2493 0.950 . S
H2489 C2494 0.949 . S
H2490 C2496 0.950 . S
H2491 C2497 0.950 . S
H2492 C2498 0.949 . S
C2493 H2488 0.950 . S
C2493 C2495 1.327 . S
C2493 C2499 1.429 . S
C2494 C2486 1.574 . S
C2494 H2489 0.949 . S
C2494 C2500 1.368 . S
C2495 C2479 1.349 . S
C2495 H2487 0.950 . S
C2495 C2493 1.327 . S
C2496 C2484 1.349 . S
C2496 H2490 0.950 . S
C2496 C2497 1.327 . S
C2497 H2491 0.950 . S
C2497 C2496 1.327 . S
C2497 C2501 1.429 . S
C2498 C2481 1.574 . S
C2498 H2492 0.949 . S
C2498 C2502 1.368 . S
C2499 C2480 1.429 . S
C2499 C2493 1.429 . S
C2499 C2500 1.523 . S
C2500 C2481 1.368 . S
C2500 C2494 1.368 . S
C2500 C2499 1.523 . S
C2501 C2485 1.429 . S
C2501 C2497 1.429 . S
C2501 C2502 1.523 . S
C2502 C2486 1.368 . S
C2502 C2498 1.368 . S
C2502 C2501 1.523 . S
H2503 C2478 0.950 . S
H2504 C2480 0.950 . S
H2505 C2481 0.949 . S
H2506 C2483 0.950 . S
H2507 C2485 0.950 . S
C2508 C2509 1.349 . S
C2508 C2510 1.327 . S
C2508 H2533 0.950 . S
C2509 C2508 1.349 . S
C2509 C2525 1.349 . S
C2510 C2508 1.327 . S
C2510 C2529 1.429 . S
C2510 H2534 0.950 . S
C2511 C2528 1.574 . S
C2511 C2530 1.368 . S
C2511 H2535 0.949 . S
H2512 C2516 0.949 . S
C2513 C2514 1.349 . S
C2513 C2515 1.327 . S
C2513 H2536 0.950 . S
C2514 C2513 1.349 . S
C2514 C2526 1.349 . S
C2515 C2513 1.327 . S
C2515 C2531 1.429 . S
C2515 H2537 0.950 . S
C2516 H2512 0.949 . S
C2516 C2524 1.574 . S
C2516 C2532 1.368 . S
H2517 C2525 0.950 . S
H2518 C2523 0.950 . S
H2519 C2524 0.949 . S
H2520 C2526 0.950 . S
H2521 C2527 0.950 . S
H2522 C2528 0.949 . S
C2523 H2518 0.950 . S
C2523 C2525 1.327 . S
C2523 C2529 1.429 . S
C2524 C2516 1.574 . S
C2524 H2519 0.949 . S
C2524 C2530 1.368 . S
C2525 C2509 1.349 . S
C2525 H2517 0.950 . S
C2525 C2523 1.327 . S
C2526 C2514 1.349 . S
C2526 H2520 0.950 . S
C2526 C2527 1.327 . S
C2527 H2521 0.950 . S
C2527 C2526 1.327 . S
C2527 C2531 1.429 . S
C2528 C2511 1.574 . S
C2528 H2522 0.949 . S
C2528 C2532 1.368 . S
C2529 C2510 1.429 . S
C2529 C2523 1.429 . S
C2529 C2530 1.523 . S
C2530 C2511 1.368 . S
C2530 C2524 1.368 . S
C2530 C2529 1.523 . S
C2531 C2515 1.429 . S
C2531 C2527 1.429 . S
C2531 C2532 1.523 . S
C2532 C2516 1.368 . S
C2532 C2528 1.368 . S
C2532 C2531 1.523 . S
H2533 C2508 0.950 . S
H2534 C2510 0.950 . S
H2535 C2511 0.949 . S
H2536 C2513 0.950 . S
H2537 C2515 0.950 . S
C2538 C2539 1.349 . S
C2538 C2540 1.327 . S
C2538 H2563 0.950 . S
C2539 C2538 1.349 . S
C2539 C2555 1.349 . S
C2540 C2538 1.327 . S
C2540 C2559 1.429 . S
C2540 H2564 0.950 . S
C2541 C2558 1.574 . S
C2541 C2560 1.368 . S
C2541 H2565 0.949 . S
H2542 C2546 0.949 . S
C2543 C2544 1.349 . S
C2543 C2545 1.327 . S
C2543 H2566 0.950 . S
C2544 C2543 1.349 . S
C2544 C2556 1.349 . S
C2545 C2543 1.327 . S
C2545 C2561 1.429 . S
C2545 H2567 0.950 . S
C2546 H2542 0.949 . S
C2546 C2554 1.574 . S
C2546 C2562 1.368 . S
H2547 C2555 0.950 . S
H2548 C2553 0.950 . S
H2549 C2554 0.949 . S
H2550 C2556 0.950 1_545 S
H2551 C2557 0.950 . S
H2552 C2558 0.949 . S
C2553 H2548 0.950 . S
C2553 C2555 1.327 . S
C2553 C2559 1.429 . S
C2554 C2546 1.574 . S
C2554 H2549 0.949 . S
C2554 C2560 1.368 . S
C2555 C2539 1.349 . S
C2555 H2547 0.950 . S
C2555 C2553 1.327 . S
C2556 C2544 1.349 . S
C2556 H2550 0.950 1_565 S
C2556 C2557 1.327 . S
C2557 H2551 0.950 . S
C2557 C2556 1.327 . S
C2557 C2561 1.429 . S
C2558 C2541 1.574 . S
C2558 H2552 0.949 . S
C2558 C2562 1.368 . S
C2559 C2540 1.429 . S
C2559 C2553 1.429 . S
C2559 C2560 1.523 . S
C2560 C2541 1.368 . S
C2560 C2554 1.368 . S
C2560 C2559 1.523 . S
C2561 C2545 1.429 . S
C2561 C2557 1.429 . S
C2561 C2562 1.523 . S
C2562 C2546 1.368 . S
C2562 C2558 1.368 . S
C2562 C2561 1.523 . S
H2563 C2538 0.950 . S
H2564 C2540 0.950 . S
H2565 C2541 0.949 . S
H2566 C2543 0.950 . S
H2567 C2545 0.950 . S
C2568 C2569 1.349 . S
C2568 C2570 1.327 . S
C2568 H2593 0.950 . S
C2569 C2568 1.349 . S
C2569 C2585 1.349 . S
C2570 C2568 1.327 . S
C2570 C2589 1.429 . S
C2570 H2594 0.950 . S
C2571 C2588 1.574 . S
C2571 C2590 1.368 . S
C2571 H2595 0.949 . S
H2572 C2576 0.949 . S
C2573 C2574 1.349 . S
C2573 C2575 1.327 . S
C2573 H2596 0.950 1_455 S
C2574 C2573 1.349 . S
C2574 C2586 1.349 . S
C2575 C2573 1.327 . S
C2575 C2591 1.429 . S
C2575 H2597 0.947 . S
C2576 H2572 0.949 . S
C2576 C2584 1.574 . S
C2576 C2592 1.368 . S
H2577 C2585 0.950 . S
H2578 C2583 0.950 . S
H2579 C2584 0.949 . S
H2580 C2586 0.950 . S
H2581 C2587 0.950 . S
H2582 C2588 0.949 . S
C2583 H2578 0.950 . S
C2583 C2585 1.327 . S
C2583 C2589 1.429 . S
C2584 C2576 1.574 . S
C2584 H2579 0.949 . S
C2584 C2590 1.368 . S
C2585 C2569 1.349 . S
C2585 H2577 0.950 . S
C2585 C2583 1.327 . S
C2586 C2574 1.349 . S
C2586 H2580 0.950 . S
C2586 C2587 1.327 . S
C2587 H2581 0.950 . S
C2587 C2586 1.327 . S
C2587 C2591 1.429 . S
C2588 C2571 1.574 . S
C2588 H2582 0.949 . S
C2588 C2592 1.368 . S
C2589 C2570 1.429 . S
C2589 C2583 1.429 . S
C2589 C2590 1.523 . S
C2590 C2571 1.368 . S
C2590 C2584 1.368 . S
C2590 C2589 1.523 . S
C2591 C2575 1.429 . S
C2591 C2587 1.429 . S
C2591 C2592 1.523 . S
C2592 C2576 1.368 . S
C2592 C2588 1.368 . S
C2592 C2591 1.523 . S
H2593 C2568 0.950 . S
H2594 C2570 0.950 . S
H2595 C2571 0.949 . S
H2596 C2573 0.950 1_655 S
H2597 C2575 0.947 . S
C2598 C2599 1.349 . S
C2598 C2600 1.327 . S
C2598 H2623 0.950 . S
C2599 C2598 1.349 . S
C2599 C2615 1.349 . S
C2600 C2598 1.327 . S
C2600 C2619 1.429 . S
C2600 H2624 0.950 . S
C2601 C2618 1.574 . S
C2601 C2620 1.368 . S
C2601 H2625 0.949 . S
H2602 C2606 0.949 . S
C2603 C2604 1.349 . S
C2603 C2605 1.327 . S
C2603 H2626 0.950 . S
C2604 C2603 1.349 . S
C2604 C2616 1.349 . S
C2605 C2603 1.327 . S
C2605 C2621 1.429 . S
C2605 H2627 0.950 . S
C2606 H2602 0.949 . S
C2606 C2614 1.574 . S
C2606 C2622 1.368 . S
H2607 C2615 0.950 . S
H2608 C2613 0.950 . S
H2609 C2614 0.949 . S
H2610 C2616 0.950 . S
H2611 C2617 0.950 . S
H2612 C2618 0.949 . S
C2613 H2608 0.950 . S
C2613 C2615 1.327 . S
C2613 C2619 1.429 . S
C2614 C2606 1.574 . S
C2614 H2609 0.949 . S
C2614 C2620 1.368 . S
C2615 C2599 1.349 . S
C2615 H2607 0.950 . S
C2615 C2613 1.327 . S
C2616 C2604 1.349 . S
C2616 H2610 0.950 . S
C2616 C2617 1.327 . S
C2617 H2611 0.950 . S
C2617 C2616 1.327 . S
C2617 C2621 1.429 . S
C2618 C2601 1.574 . S
C2618 H2612 0.949 . S
C2618 C2622 1.368 . S
C2619 C2600 1.429 . S
C2619 C2613 1.429 . S
C2619 C2620 1.523 . S
C2620 C2601 1.368 . S
C2620 C2614 1.368 . S
C2620 C2619 1.523 . S
C2621 C2605 1.429 . S
C2621 C2617 1.429 . S
C2621 C2622 1.523 . S
C2622 C2606 1.368 . S
C2622 C2618 1.368 . S
C2622 C2621 1.523 . S
H2623 C2598 0.950 . S
H2624 C2600 0.950 . S
H2625 C2601 0.949 . S
H2626 C2603 0.950 . S
H2627 C2605 0.950 . S
C2628 C2629 1.349 . S
C2628 C2630 1.327 . S
C2628 H2653 0.950 . S
C2629 C2628 1.349 . S
C2629 C2645 1.349 . S
C2630 C2628 1.327 . S
C2630 C2649 1.429 . S
C2630 H2654 0.950 . S
C2631 C2648 1.574 . S
C2631 C2650 1.368 . S
C2631 H2655 0.949 . S
H2632 C2636 0.949 . S
C2633 C2634 1.349 . S
C2633 C2635 1.327 . S
C2633 H2656 0.950 . S
C2634 C2633 1.349 . S
C2634 C2646 1.349 . S
C2635 C2633 1.327 . S
C2635 C2651 1.429 . S
C2635 H2657 0.950 . S
C2636 H2632 0.949 . S
C2636 C2644 1.574 . S
C2636 C2652 1.368 . S
H2637 C2645 0.950 . S
H2638 C2643 0.950 . S
H2639 C2644 0.949 . S
H2640 C2646 0.950 . S
H2641 C2647 0.950 . S
H2642 C2648 0.949 . S
C2643 H2638 0.950 . S
C2643 C2645 1.327 . S
C2643 C2649 1.429 . S
C2644 C2636 1.574 . S
C2644 H2639 0.949 . S
C2644 C2650 1.368 . S
C2645 C2629 1.349 . S
C2645 H2637 0.950 . S
C2645 C2643 1.327 . S
C2646 C2634 1.349 . S
C2646 H2640 0.950 . S
C2646 C2647 1.327 . S
C2647 H2641 0.950 . S
C2647 C2646 1.327 . S
C2647 C2651 1.429 . S
C2648 C2631 1.574 . S
C2648 H2642 0.949 . S
C2648 C2652 1.368 . S
C2649 C2630 1.429 . S
C2649 C2643 1.429 . S
C2649 C2650 1.523 . S
C2650 C2631 1.368 . S
C2650 C2644 1.368 . S
C2650 C2649 1.523 . S
C2651 C2635 1.429 . S
C2651 C2647 1.429 . S
C2651 C2652 1.523 . S
C2652 C2636 1.368 . S
C2652 C2648 1.368 . S
C2652 C2651 1.523 . S
H2653 C2628 0.950 . S
H2654 C2630 0.950 . S
H2655 C2631 0.949 . S
H2656 C2633 0.950 . S
H2657 C2635 0.950 . S
C2658 C2659 1.349 . S
C2658 C2660 1.327 . S
C2658 H2683 0.950 . S
C2659 C2658 1.349 . S
C2659 C2675 1.349 . S
C2660 C2658 1.327 . S
C2660 C2679 1.429 . S
C2660 H2684 0.950 . S
C2661 C2678 1.574 . S
C2661 C2680 1.368 . S
C2661 H2685 0.949 . S
H2662 C2666 0.949 . S
C2663 C2664 1.349 . S
C2663 C2665 1.327 . S
C2663 H2686 0.950 . S
C2664 C2663 1.349 . S
C2664 C2676 1.349 . S
C2665 C2663 1.327 . S
C2665 C2681 1.429 . S
C2665 H2687 0.950 . S
C2666 H2662 0.949 . S
C2666 C2674 1.574 . S
C2666 C2682 1.368 . S
H2667 C2675 0.950 . S
H2668 C2673 0.950 . S
H2669 C2674 0.949 . S
H2670 C2676 0.950 . S
H2671 C2677 0.950 . S
H2672 C2678 0.949 . S
C2673 H2668 0.950 . S
C2673 C2675 1.327 . S
C2673 C2679 1.429 . S
C2674 C2666 1.574 . S
C2674 H2669 0.949 . S
C2674 C2680 1.368 . S
C2675 C2659 1.349 . S
C2675 H2667 0.950 . S
C2675 C2673 1.327 . S
C2676 C2664 1.349 . S
C2676 H2670 0.950 . S
C2676 C2677 1.327 . S
C2677 H2671 0.950 . S
C2677 C2676 1.327 . S
C2677 C2681 1.429 . S
C2678 C2661 1.574 . S
C2678 H2672 0.949 . S
C2678 C2682 1.368 . S
C2679 C2660 1.429 . S
C2679 C2673 1.429 . S
C2679 C2680 1.523 . S
C2680 C2661 1.368 . S
C2680 C2674 1.368 . S
C2680 C2679 1.523 . S
C2681 C2665 1.429 . S
C2681 C2677 1.429 . S
C2681 C2682 1.523 . S
C2682 C2666 1.368 . S
C2682 C2678 1.368 . S
C2682 C2681 1.523 . S
H2683 C2658 0.950 . S
H2684 C2660 0.950 . S
H2685 C2661 0.949 . S
H2686 C2663 0.950 . S
H2687 C2665 0.950 . S
C2688 C2689 1.349 . S
C2688 C2690 1.327 . S
C2688 H2713 0.950 . S
C2689 C2688 1.349 . S
C2689 C2705 1.349 . S
C2690 C2688 1.327 . S
C2690 C2709 1.429 . S
C2690 H2714 0.950 . S
C2691 C2708 1.574 . S
C2691 C2710 1.368 . S
C2691 H2715 0.949 . S
H2692 C2696 0.949 . S
C2693 C2694 1.349 . S
C2693 C2695 1.327 . S
C2693 H2716 1.002 . S
C2694 C2693 1.349 . S
C2694 C2706 1.349 . S
C2695 C2693 1.327 . S
C2695 C2711 1.429 . S
C2695 H2717 0.950 . S
C2696 H2692 0.949 . S
C2696 C2704 1.574 . S
C2696 C2712 1.368 . S
H2697 C2705 0.950 . S
H2698 C2703 0.950 . S
H2699 C2704 0.949 . S
H2700 C2706 0.950 . S
H2701 C2707 0.950 . S
H2702 C2708 0.949 . S
C2703 H2698 0.950 . S
C2703 C2705 1.327 . S
C2703 C2709 1.429 . S
C2704 C2696 1.574 . S
C2704 H2699 0.949 . S
C2704 C2710 1.368 . S
C2705 C2689 1.349 . S
C2705 H2697 0.950 . S
C2705 C2703 1.327 . S
C2706 C2694 1.349 . S
C2706 H2700 0.950 . S
C2706 C2707 1.327 . S
C2707 H2701 0.950 . S
C2707 C2706 1.327 . S
C2707 C2711 1.429 . S
C2708 C2691 1.574 . S
C2708 H2702 0.949 . S
C2708 C2712 1.368 . S
C2709 C2690 1.429 . S
C2709 C2703 1.429 . S
C2709 C2710 1.523 . S
C2710 C2691 1.368 . S
C2710 C2704 1.368 . S
C2710 C2709 1.523 . S
C2711 C2695 1.429 . S
C2711 C2707 1.429 . S
C2711 C2712 1.523 . S
C2712 C2696 1.368 . S
C2712 C2708 1.368 . S
C2712 C2711 1.523 . S
H2713 C2688 0.950 . S
H2714 C2690 0.950 . S
H2715 C2691 0.949 . S
H2716 C2693 1.002 . S
H2717 C2695 0.950 . S
C2718 C2719 1.349 . S
C2718 C2720 1.327 . S
C2718 H2743 0.950 . S
C2719 C2718 1.349 . S
C2719 C2735 1.349 . S
C2720 C2718 1.327 . S
C2720 C2739 1.429 . S
C2720 H2744 0.950 . S
C2721 C2738 1.574 . S
C2721 C2740 1.368 . S
C2721 H2745 0.949 . S
H2722 C2726 0.949 . S
C2723 C2724 1.349 . S
C2723 C2725 1.327 . S
C2723 H2746 0.950 . S
C2724 C2723 1.349 . S
C2724 C2736 1.349 . S
C2725 C2723 1.327 . S
C2725 C2741 1.429 . S
C2725 H2747 0.950 . S
C2726 H2722 0.949 . S
C2726 C2734 1.574 . S
C2726 C2742 1.368 . S
H2727 C2735 0.950 . S
H2728 C2733 0.950 . S
H2729 C2734 0.949 . S
H2730 C2736 0.950 . S
H2731 C2737 0.950 . S
H2732 C2738 0.949 . S
C2733 H2728 0.950 . S
C2733 C2735 1.327 . S
C2733 C2739 1.429 . S
C2734 C2726 1.574 . S
C2734 H2729 0.949 . S
C2734 C2740 1.368 . S
C2735 C2719 1.349 . S
C2735 H2727 0.950 . S
C2735 C2733 1.327 . S
C2736 C2724 1.349 . S
C2736 H2730 0.950 . S
C2736 C2737 1.327 . S
C2737 H2731 0.950 . S
C2737 C2736 1.327 . S
C2737 C2741 1.429 . S
C2738 C2721 1.574 . S
C2738 H2732 0.949 . S
C2738 C2742 1.368 . S
C2739 C2720 1.429 . S
C2739 C2733 1.429 . S
C2739 C2740 1.523 . S
C2740 C2721 1.368 . S
C2740 C2734 1.368 . S
C2740 C2739 1.523 . S
C2741 C2725 1.429 . S
C2741 C2737 1.429 . S
C2741 C2742 1.523 . S
C2742 C2726 1.368 . S
C2742 C2738 1.368 . S
C2742 C2741 1.523 . S
H2743 C2718 0.950 . S
H2744 C2720 0.950 . S
H2745 C2721 0.949 . S
H2746 C2723 0.950 . S
H2747 C2725 0.950 . S
C2748 C2749 1.349 . S
C2748 C2750 1.327 . S
C2748 H2773 0.950 . S
C2749 C2748 1.349 . S
C2749 C2765 1.349 . S
C2750 C2748 1.327 . S
C2750 C2769 1.429 . S
C2750 H2774 0.950 . S
C2751 C2768 1.574 . S
C2751 C2770 1.368 . S
C2751 H2775 0.949 . S
H2752 C2756 0.949 . S
C2753 C2754 1.349 . S
C2753 C2755 1.327 . S
C2753 H2776 0.950 . S
C2754 C2753 1.349 . S
C2754 C2766 1.349 . S
C2755 C2753 1.327 . S
C2755 C2771 1.429 . S
C2755 H2777 0.950 . S
C2756 H2752 0.949 . S
C2756 C2764 1.574 . S
C2756 C2772 1.368 . S
H2757 C2765 0.950 . S
H2758 C2763 0.950 . S
H2759 C2764 0.949 . S
H2760 C2766 0.950 . S
H2761 C2767 0.950 . S
H2762 C2768 0.949 . S
C2763 H2758 0.950 . S
C2763 C2765 1.327 . S
C2763 C2769 1.429 . S
C2764 C2756 1.574 . S
C2764 H2759 0.949 . S
C2764 C2770 1.368 . S
C2765 C2749 1.349 . S
C2765 H2757 0.950 . S
C2765 C2763 1.327 . S
C2766 C2754 1.349 . S
C2766 H2760 0.950 . S
C2766 C2767 1.327 . S
C2767 H2761 0.950 . S
C2767 C2766 1.327 . S
C2767 C2771 1.429 . S
C2768 C2751 1.574 . S
C2768 H2762 0.949 . S
C2768 C2772 1.368 . S
C2769 C2750 1.429 . S
C2769 C2763 1.429 . S
C2769 C2770 1.523 . S
C2770 C2751 1.368 . S
C2770 C2764 1.368 . S
C2770 C2769 1.523 . S
C2771 C2755 1.429 . S
C2771 C2767 1.429 . S
C2771 C2772 1.523 . S
C2772 C2756 1.368 . S
C2772 C2768 1.368 . S
C2772 C2771 1.523 . S
H2773 C2748 0.950 . S
H2774 C2750 0.950 . S
H2775 C2751 0.949 . S
H2776 C2753 0.950 . S
H2777 C2755 0.950 . S
C2778 C2779 1.349 . S
C2778 C2780 1.327 . S
C2778 H2803 0.950 . S
C2779 C2778 1.349 . S
C2779 C2795 1.349 . S
C2780 C2778 1.327 . S
C2780 C2799 1.429 . S
C2780 H2804 0.950 . S
C2781 C2798 1.574 . S
C2781 C2800 1.368 . S
C2781 H2805 0.949 . S
H2782 C2786 0.949 . S
C2783 C2784 1.349 . S
C2783 C2785 1.327 . S
C2783 H2806 0.950 . S
C2784 C2783 1.349 . S
C2784 C2796 1.349 . S
C2785 C2783 1.327 . S
C2785 C2801 1.429 . S
C2785 H2807 0.950 . S
C2786 H2782 0.949 . S
C2786 C2794 1.574 . S
C2786 C2802 1.368 . S
H2787 C2795 0.950 . S
H2788 C2793 0.950 . S
H2789 C2794 0.949 . S
H2790 C2796 0.950 . S
H2791 C2797 0.950 . S
H2792 C2798 0.949 . S
C2793 H2788 0.950 . S
C2793 C2795 1.327 . S
C2793 C2799 1.429 . S
C2794 C2786 1.574 . S
C2794 H2789 0.949 . S
C2794 C2800 1.368 . S
C2795 C2779 1.349 . S
C2795 H2787 0.950 . S
C2795 C2793 1.327 . S
C2796 C2784 1.349 . S
C2796 H2790 0.950 . S
C2796 C2797 1.327 . S
C2797 H2791 0.950 . S
C2797 C2796 1.327 . S
C2797 C2801 1.429 . S
C2798 C2781 1.574 . S
C2798 H2792 0.949 . S
C2798 C2802 1.368 . S
C2799 C2780 1.429 . S
C2799 C2793 1.429 . S
C2799 C2800 1.523 . S
C2800 C2781 1.368 . S
C2800 C2794 1.368 . S
C2800 C2799 1.523 . S
C2801 C2785 1.429 . S
C2801 C2797 1.429 . S
C2801 C2802 1.523 . S
C2802 C2786 1.368 . S
C2802 C2798 1.368 . S
C2802 C2801 1.523 . S
H2803 C2778 0.950 . S
H2804 C2780 0.950 . S
H2805 C2781 0.949 . S
H2806 C2783 0.950 . S
H2807 C2785 0.950 . S
C2808 C2809 1.349 . S
C2808 C2810 1.327 . S
C2808 H2833 0.950 . S
C2809 C2808 1.349 . S
C2809 C2825 1.349 . S
C2810 C2808 1.327 . S
C2810 C2829 1.429 . S
C2810 H2834 0.950 . S
C2811 C2828 1.574 . S
C2811 C2830 1.368 . S
C2811 H2835 0.949 . S
H2812 C2816 0.949 . S
C2813 C2814 1.349 . S
C2813 C2815 1.327 . S
C2813 H2836 0.950 . S
C2814 C2813 1.349 . S
C2814 C2826 1.349 . S
C2815 C2813 1.327 . S
C2815 C2831 1.429 . S
C2815 H2837 0.950 . S
C2816 H2812 0.949 . S
C2816 C2824 1.574 . S
C2816 C2832 1.368 . S
H2817 C2825 0.950 . S
H2818 C2823 0.950 . S
H2819 C2824 0.949 . S
H2820 C2826 0.950 . S
H2821 C2827 0.950 . S
H2822 C2828 0.949 . S
C2823 H2818 0.950 . S
C2823 C2825 1.327 . S
C2823 C2829 1.429 . S
C2824 C2816 1.574 . S
C2824 H2819 0.949 . S
C2824 C2830 1.368 . S
C2825 C2809 1.349 . S
C2825 H2817 0.950 . S
C2825 C2823 1.327 . S
C2826 C2814 1.349 . S
C2826 H2820 0.950 . S
C2826 C2827 1.327 . S
C2827 H2821 0.950 . S
C2827 C2826 1.327 . S
C2827 C2831 1.429 . S
C2828 C2811 1.574 . S
C2828 H2822 0.949 . S
C2828 C2832 1.368 . S
C2829 C2810 1.429 . S
C2829 C2823 1.429 . S
C2829 C2830 1.523 . S
C2830 C2811 1.368 . S
C2830 C2824 1.368 . S
C2830 C2829 1.523 . S
C2831 C2815 1.429 . S
C2831 C2827 1.429 . S
C2831 C2832 1.523 . S
C2832 C2816 1.368 . S
C2832 C2828 1.368 . S
C2832 C2831 1.523 . S
H2833 C2808 0.950 . S
H2834 C2810 0.950 . S
H2835 C2811 0.949 . S
H2836 C2813 0.950 . S
H2837 C2815 0.950 . S
C2838 C2839 1.349 . S
C2838 C2840 1.327 . S
C2838 H2863 0.950 . S
C2839 C2838 1.349 . S
C2839 C2855 1.349 . S
C2840 C2838 1.327 . S
C2840 C2859 1.429 . S
C2840 H2864 0.950 . S
C2841 C2858 1.574 . S
C2841 C2860 1.368 . S
C2841 H2865 0.949 . S
H2842 C2846 0.949 . S
C2843 C2844 1.349 . S
C2843 C2845 1.327 . S
C2843 H2866 0.950 . S
C2844 C2843 1.349 . S
C2844 C2856 1.349 . S
C2845 C2843 1.327 . S
C2845 C2861 1.429 . S
C2845 H2867 0.950 . S
C2846 H2842 0.949 . S
C2846 C2854 1.574 . S
C2846 C2862 1.368 . S
H2847 C2855 0.950 . S
H2848 C2853 0.950 . S
H2849 C2854 0.949 . S
H2850 C2856 0.950 . S
H2851 C2857 0.950 . S
H2852 C2858 0.949 . S
C2853 H2848 0.950 . S
C2853 C2855 1.327 . S
C2853 C2859 1.429 . S
C2854 C2846 1.574 . S
C2854 H2849 0.949 . S
C2854 C2860 1.368 . S
C2855 C2839 1.349 . S
C2855 H2847 0.950 . S
C2855 C2853 1.327 . S
C2856 C2844 1.349 . S
C2856 H2850 0.950 . S
C2856 C2857 1.327 . S
C2857 H2851 0.950 . S
C2857 C2856 1.327 . S
C2857 C2861 1.429 . S
C2858 C2841 1.574 . S
C2858 H2852 0.949 . S
C2858 C2862 1.368 . S
C2859 C2840 1.429 . S
C2859 C2853 1.429 . S
C2859 C2860 1.523 . S
C2860 C2841 1.368 . S
C2860 C2854 1.368 . S
C2860 C2859 1.523 . S
C2861 C2845 1.429 . S
C2861 C2857 1.429 . S
C2861 C2862 1.523 . S
C2862 C2846 1.368 . S
C2862 C2858 1.368 . S
C2862 C2861 1.523 . S
H2863 C2838 0.950 . S
H2864 C2840 0.950 . S
H2865 C2841 0.949 . S
H2866 C2843 0.950 . S
H2867 C2845 0.950 . S
C2868 C2869 1.349 . S
C2868 C2870 1.327 . S
C2868 H2893 0.950 . S
C2869 C2868 1.349 . S
C2869 C2885 1.349 . S
C2870 C2868 1.327 . S
C2870 C2889 1.429 . S
C2870 H2894 0.950 . S
C2871 C2888 1.574 . S
C2871 C2890 1.368 . S
C2871 H2895 0.949 . S
H2872 C2876 0.949 . S
C2873 C2874 1.349 . S
C2873 C2875 1.327 . S
C2873 H2896 0.950 . S
C2874 C2873 1.349 . S
C2874 C2886 1.349 . S
C2875 C2873 1.327 . S
C2875 C2891 1.429 . S
C2875 H2897 0.950 . S
C2876 H2872 0.949 . S
C2876 C2884 1.574 . S
C2876 C2892 1.368 . S
H2877 C2885 0.950 . S
H2878 C2883 0.950 . S
H2879 C2884 0.949 . S
H2880 C2886 0.950 . S
H2881 C2887 0.950 . S
H2882 C2888 0.949 . S
C2883 H2878 0.950 . S
C2883 C2885 1.327 . S
C2883 C2889 1.429 . S
C2884 C2876 1.574 . S
C2884 H2879 0.949 . S
C2884 C2890 1.368 . S
C2885 C2869 1.349 . S
C2885 H2877 0.950 . S
C2885 C2883 1.327 . S
C2886 C2874 1.349 . S
C2886 H2880 0.950 . S
C2886 C2887 1.327 . S
C2887 H2881 0.950 . S
C2887 C2886 1.327 . S
C2887 C2891 1.429 . S
C2888 C2871 1.574 . S
C2888 H2882 0.949 . S
C2888 C2892 1.368 . S
C2889 C2870 1.429 . S
C2889 C2883 1.429 . S
C2889 C2890 1.523 . S
C2890 C2871 1.368 . S
C2890 C2884 1.368 . S
C2890 C2889 1.523 . S
C2891 C2875 1.429 . S
C2891 C2887 1.429 . S
C2891 C2892 1.523 . S
C2892 C2876 1.368 . S
C2892 C2888 1.368 . S
C2892 C2891 1.523 . S
H2893 C2868 0.950 . S
H2894 C2870 0.950 . S
H2895 C2871 0.949 . S
H2896 C2873 0.950 . S
H2897 C2875 0.950 . S
C2898 C2899 1.349 . S
C2898 C2900 1.327 . S
C2898 H2923 0.950 . S
C2899 C2898 1.349 . S
C2899 C2915 1.349 . S
C2900 C2898 1.327 . S
C2900 C2919 1.429 . S
C2900 H2924 0.950 . S
C2901 C2918 1.574 . S
C2901 C2920 1.368 . S
C2901 H2925 0.949 . S
H2902 C2906 0.949 . S
C2903 C2904 1.349 . S
C2903 C2905 1.327 . S
C2903 H2926 0.950 . S
C2904 C2903 1.349 . S
C2904 C2916 1.349 . S
C2905 C2903 1.327 . S
C2905 C2921 1.429 . S
C2905 H2927 0.950 . S
C2906 H2902 0.949 . S
C2906 C2914 1.574 . S
C2906 C2922 1.368 . S
H2907 C2915 0.950 . S
H2908 C2913 0.950 . S
H2909 C2914 0.949 . S
H2910 C2916 0.950 . S
H2911 C2917 0.950 . S
H2912 C2918 0.949 . S
C2913 H2908 0.950 . S
C2913 C2915 1.327 . S
C2913 C2919 1.429 . S
C2914 C2906 1.574 . S
C2914 H2909 0.949 . S
C2914 C2920 1.368 . S
C2915 C2899 1.349 . S
C2915 H2907 0.950 . S
C2915 C2913 1.327 . S
C2916 C2904 1.349 . S
C2916 H2910 0.950 . S
C2916 C2917 1.327 . S
C2917 H2911 0.950 . S
C2917 C2916 1.327 . S
C2917 C2921 1.429 . S
C2918 C2901 1.574 . S
C2918 H2912 0.949 . S
C2918 C2922 1.368 . S
C2919 C2900 1.429 . S
C2919 C2913 1.429 . S
C2919 C2920 1.523 . S
C2920 C2901 1.368 . S
C2920 C2914 1.368 . S
C2920 C2919 1.523 . S
C2921 C2905 1.429 . S
C2921 C2917 1.429 . S
C2921 C2922 1.523 . S
C2922 C2906 1.368 . S
C2922 C2918 1.368 . S
C2922 C2921 1.523 . S
H2923 C2898 0.950 . S
H2924 C2900 0.950 . S
H2925 C2901 0.949 . S
H2926 C2903 0.950 . S
H2927 C2905 0.950 . S
C2928 C2929 1.349 . S
C2928 C2930 1.327 . S
C2928 H2953 0.950 . S
C2929 C2928 1.349 . S
C2929 C2945 1.349 . S
C2930 C2928 1.327 . S
C2930 C2949 1.429 . S
C2930 H2954 0.950 . S
C2931 C2948 1.574 . S
C2931 C2950 1.368 . S
C2931 H2955 0.949 . S
H2932 C2936 0.949 . S
C2933 C2934 1.349 . S
C2933 C2935 1.327 . S
C2933 H2956 0.950 . S
C2934 C2933 1.349 . S
C2934 C2946 1.349 . S
C2935 C2933 1.327 . S
C2935 C2951 1.429 . S
C2935 H2957 0.950 . S
C2936 H2932 0.949 . S
C2936 C2944 1.574 . S
C2936 C2952 1.368 . S
H2937 C2945 0.950 . S
H2938 C2943 0.950 . S
H2939 C2944 0.949 . S
H2940 C2946 0.950 . S
H2941 C2947 0.950 . S
H2942 C2948 0.949 . S
C2943 H2938 0.950 . S
C2943 C2945 1.327 . S
C2943 C2949 1.429 . S
C2944 C2936 1.574 . S
C2944 H2939 0.949 . S
C2944 C2950 1.368 . S
C2945 C2929 1.349 . S
C2945 H2937 0.950 . S
C2945 C2943 1.327 . S
C2946 C2934 1.349 . S
C2946 H2940 0.950 . S
C2946 C2947 1.327 . S
C2947 H2941 0.950 . S
C2947 C2946 1.327 . S
C2947 C2951 1.429 . S
C2948 C2931 1.574 . S
C2948 H2942 0.949 . S
C2948 C2952 1.368 . S
C2949 C2930 1.429 . S
C2949 C2943 1.429 . S
C2949 C2950 1.523 . S
C2950 C2931 1.368 . S
C2950 C2944 1.368 . S
C2950 C2949 1.523 . S
C2951 C2935 1.429 . S
C2951 C2947 1.429 . S
C2951 C2952 1.523 . S
C2952 C2936 1.368 . S
C2952 C2948 1.368 . S
C2952 C2951 1.523 . S
H2953 C2928 0.950 . S
H2954 C2930 0.950 . S
H2955 C2931 0.949 . S
H2956 C2933 0.950 . S
H2957 C2935 0.950 . S
C2958 C2959 1.349 . S
C2958 C2960 1.327 . S
C2958 H2983 0.950 . S
C2959 C2958 1.349 . S
C2959 C2975 1.349 . S
C2960 C2958 1.327 . S
C2960 C2979 1.429 . S
C2960 H2984 0.950 . S
C2961 C2978 1.574 . S
C2961 C2980 1.368 . S
C2961 H2985 0.949 . S
H2962 C2966 0.949 . S
C2963 C2964 1.349 . S
C2963 C2965 1.327 . S
C2963 H2986 0.950 . S
C2964 C2963 1.349 . S
C2964 C2976 1.349 . S
C2965 C2963 1.327 . S
C2965 C2981 1.429 . S
C2965 H2987 0.950 . S
C2966 H2962 0.949 . S
C2966 C2974 1.574 . S
C2966 C2982 1.368 . S
H2967 C2975 0.950 . S
H2968 C2973 0.950 . S
H2969 C2974 0.949 . S
H2970 C2976 0.950 . S
H2971 C2977 0.950 . S
H2972 C2978 0.949 . S
C2973 H2968 0.950 . S
C2973 C2975 1.327 . S
C2973 C2979 1.429 . S
C2974 C2966 1.574 . S
C2974 H2969 0.949 . S
C2974 C2980 1.368 . S
C2975 C2959 1.349 . S
C2975 H2967 0.950 . S
C2975 C2973 1.327 . S
C2976 C2964 1.349 . S
C2976 H2970 0.950 . S
C2976 C2977 1.327 . S
C2977 H2971 0.950 . S
C2977 C2976 1.327 . S
C2977 C2981 1.429 . S
C2978 C2961 1.574 . S
C2978 H2972 0.949 . S
C2978 C2982 1.368 . S
C2979 C2960 1.429 . S
C2979 C2973 1.429 . S
C2979 C2980 1.523 . S
C2980 C2961 1.368 . S
C2980 C2974 1.368 . S
C2980 C2979 1.523 . S
C2981 C2965 1.429 . S
C2981 C2977 1.429 . S
C2981 C2982 1.523 . S
C2982 C2966 1.368 . S
C2982 C2978 1.368 . S
C2982 C2981 1.523 . S
H2983 C2958 0.950 . S
H2984 C2960 0.950 . S
H2985 C2961 0.949 . S
H2986 C2963 0.950 . S
H2987 C2965 0.950 . S
C2988 C2989 1.349 . S
C2988 C2990 1.327 . S
C2988 H3013 0.950 . S
C2989 C2988 1.349 . S
C2989 C3005 1.349 . S
C2990 C2988 1.327 . S
C2990 C3009 1.429 . S
C2990 H3014 0.950 . S
C2991 C3008 1.574 . S
C2991 C3010 1.368 . S
C2991 H3015 0.949 . S
H2992 C2996 0.949 . S
C2993 C2994 1.349 . S
C2993 C2995 1.327 . S
C2993 H3016 0.950 . S
C2994 C2993 1.349 . S
C2994 C3006 1.349 . S
C2995 C2993 1.327 . S
C2995 C3011 1.429 . S
C2995 H3017 0.950 . S
C2996 H2992 0.949 . S
C2996 C3004 1.574 . S
C2996 C3012 1.368 . S
H2997 C3005 0.950 . S
H2998 C3003 0.950 . S
H2999 C3004 0.949 . S
H3000 C3006 0.950 . S
H3001 C3007 0.950 . S
H3002 C3008 0.949 . S
C3003 H2998 0.950 . S
C3003 C3005 1.327 . S
C3003 C3009 1.429 . S
C3004 C2996 1.574 . S
C3004 H2999 0.949 . S
C3004 C3010 1.368 . S
C3005 C2989 1.349 . S
C3005 H2997 0.950 . S
C3005 C3003 1.327 . S
C3006 C2994 1.349 . S
C3006 H3000 0.950 . S
C3006 C3007 1.327 . S
C3007 H3001 0.950 . S
C3007 C3006 1.327 . S
C3007 C3011 1.429 . S
C3008 C2991 1.574 . S
C3008 H3002 0.949 . S
C3008 C3012 1.368 . S
C3009 C2990 1.429 . S
C3009 C3003 1.429 . S
C3009 C3010 1.523 . S
C3010 C2991 1.368 . S
C3010 C3004 1.368 . S
C3010 C3009 1.523 . S
C3011 C2995 1.429 . S
C3011 C3007 1.429 . S
C3011 C3012 1.523 . S
C3012 C2996 1.368 . S
C3012 C3008 1.368 . S
C3012 C3011 1.523 . S
H3013 C2988 0.950 . S
H3014 C2990 0.950 . S
H3015 C2991 0.949 . S
H3016 C2993 0.950 . S
H3017 C2995 0.950 . S
C3018 C3019 1.349 . S
C3018 C3020 1.327 . S
C3018 H3043 0.950 . S
C3019 C3018 1.349 . S
C3019 C3035 1.349 . S
C3020 C3018 1.327 . S
C3020 C3039 1.429 . S
C3020 H3044 0.950 . S
C3021 C3038 1.574 . S
C3021 C3040 1.368 . S
C3021 H3045 0.949 . S
H3022 C3026 0.949 . S
C3023 C3024 1.349 . S
C3023 C3025 1.327 . S
C3023 H3046 0.950 . S
C3024 C3023 1.349 . S
C3024 C3036 1.349 . S
C3025 C3023 1.327 . S
C3025 C3041 1.429 . S
C3025 H3047 0.950 . S
C3026 H3022 0.949 . S
C3026 C3034 1.574 . S
C3026 C3042 1.368 . S
H3027 C3035 0.950 . S
H3028 C3033 0.950 . S
H3029 C3034 0.949 . S
H3030 C3036 0.950 . S
H3031 C3037 0.950 . S
H3032 C3038 0.949 . S
C3033 H3028 0.950 . S
C3033 C3035 1.327 . S
C3033 C3039 1.429 . S
C3034 C3026 1.574 . S
C3034 H3029 0.949 . S
C3034 C3040 1.368 . S
C3035 C3019 1.349 . S
C3035 H3027 0.950 . S
C3035 C3033 1.327 . S
C3036 C3024 1.349 . S
C3036 H3030 0.950 . S
C3036 C3037 1.327 . S
C3037 H3031 0.950 . S
C3037 C3036 1.327 . S
C3037 C3041 1.429 . S
C3038 C3021 1.574 . S
C3038 H3032 0.949 . S
C3038 C3042 1.368 . S
C3039 C3020 1.429 . S
C3039 C3033 1.429 . S
C3039 C3040 1.523 . S
C3040 C3021 1.368 . S
C3040 C3034 1.368 . S
C3040 C3039 1.523 . S
C3041 C3025 1.429 . S
C3041 C3037 1.429 . S
C3041 C3042 1.523 . S
C3042 C3026 1.368 . S
C3042 C3038 1.368 . S
C3042 C3041 1.523 . S
H3043 C3018 0.950 . S
H3044 C3020 0.950 . S
H3045 C3021 0.949 . S
H3046 C3023 0.950 . S
H3047 C3025 0.950 . S
C3048 C3049 1.349 . S
C3048 C3050 1.327 . S
C3048 H3073 0.950 . S
C3049 C3048 1.349 . S
C3049 C3065 1.349 . S
C3050 C3048 1.327 . S
C3050 C3069 1.429 . S
C3050 H3074 0.950 . S
C3051 C3068 1.574 . S
C3051 C3070 1.368 . S
C3051 H3075 0.949 . S
H3052 C3056 0.949 . S
C3053 C3054 1.349 . S
C3053 C3055 1.327 . S
C3053 H3076 0.950 . S
C3054 C3053 1.349 . S
C3054 C3066 1.349 . S
C3055 C3053 1.327 . S
C3055 C3071 1.429 . S
C3055 H3077 0.950 . S
C3056 H3052 0.949 . S
C3056 C3064 1.574 . S
C3056 C3072 1.368 . S
H3057 C3065 0.950 . S
H3058 C3063 0.950 . S
H3059 C3064 0.949 . S
H3060 C3066 0.950 . S
H3061 C3067 0.950 . S
H3062 C3068 0.949 . S
C3063 H3058 0.950 . S
C3063 C3065 1.327 . S
C3063 C3069 1.429 . S
C3064 C3056 1.574 . S
C3064 H3059 0.949 . S
C3064 C3070 1.368 . S
C3065 C3049 1.349 . S
C3065 H3057 0.950 . S
C3065 C3063 1.327 . S
C3066 C3054 1.349 . S
C3066 H3060 0.950 . S
C3066 C3067 1.327 . S
C3067 H3061 0.950 . S
C3067 C3066 1.327 . S
C3067 C3071 1.429 . S
C3068 C3051 1.574 . S
C3068 H3062 0.949 . S
C3068 C3072 1.368 . S
C3069 C3050 1.429 . S
C3069 C3063 1.429 . S
C3069 C3070 1.523 . S
C3070 C3051 1.368 . S
C3070 C3064 1.368 . S
C3070 C3069 1.523 . S
C3071 C3055 1.429 . S
C3071 C3067 1.429 . S
C3071 C3072 1.523 . S
C3072 C3056 1.368 . S
C3072 C3068 1.368 . S
C3072 C3071 1.523 . S
H3073 C3048 0.950 . S
H3074 C3050 0.950 . S
H3075 C3051 0.949 . S
H3076 C3053 0.950 . S
H3077 C3055 0.950 . S
C1459 C528 1.390 . S
C1464 C769 1.317 . S
C1489 C562 1.470 . S
C1494 C853 1.399 . S
C1519 C484 1.447 . S
C1524 C933 1.408 . S
C1549 C445 1.401 . S
C1554 C849 1.365 . S
C1584 C937 1.324 . S
C1579 C367 1.397 . S
C1609 C411 1.353 . S
C1614 C765 1.315 . S
C1644 C758 1.338 . S
C1639 C450 1.408 . S
C1674 C842 1.381 . S
C1669 C372 1.449 . S
C1699 C406 1.445 . S
C1704 C944 1.407 . S
C1729 C523 1.399 . S
C1734 C860 1.364 . S
C1759 C567 1.377 . S
C1764 C926 1.307 . S
C1794 C776 1.336 . S
C1789 C489 1.370 . S
C1824 C1021 1.317 . S
C1819 C60 1.390 . S
C1849 C94 1.471 . S
C1854 C1105 1.399 . S
C1879 C16 1.446 . S
C1884 C1185 1.407 . S
C1909 C679 1.400 . S
C1914 C1101 1.365 . S
C1939 C601 1.398 . S
C1944 C1189 1.325 . S
C1969 C645 1.353 . S
C1974 C1017 1.315 . S
C1999 C684 1.408 . S
C2004 C1010 1.338 . S
C2029 C606 1.449 . S
C2034 C1094 1.381 . S
C2064 C1196 1.408 . S
C2059 C640 1.445 . S
C2089 C55 1.399 . S
C2094 C1112 1.365 . S
C2124 C1178 1.306 . S
C2119 C99 1.376 . S
C2149 C21 1.370 . S
C2154 C1028 1.336 . S
C2184 C1273 1.317 . S
C2179 C294 1.390 . S
C2209 C328 1.470 . S
C2214 C1357 1.399 . S
C2244 C1437 1.408 . S
C2239 C250 1.447 . S
C2274 C1353 1.365 . S
C2269 C211 1.401 . S
C2304 C1441 1.325 . S
C2299 C133 1.398 . S
C2329 C177 1.353 . S
C2334 C1269 1.315 . S
C2359 C216 1.408 . S
C2364 C1262 1.337 . S
C2389 C138 1.449 . S
C2394 C1346 1.381 . S
C2424 C1448 1.408 . S
C2419 C172 1.445 . S
C2449 C289 1.399 . S
C2454 C1364 1.364 . S
C2479 C333 1.376 . S
C2484 C1430 1.307 . S
C2509 C255 1.371 . S
C2514 C1280 1.337 . S
C2539 C586 1.433 . S
C2544 C772 1.316 . S
C2574 C856 1.342 . S
C2569 C625 1.483 . S
C2599 C664 1.458 . S
C2604 C928 1.326 . S
C2629 C235 1.499 . S
C2634 C844 1.356 . S
C2659 C274 1.441 . S
C2664 C940 1.311 . S
C2694 C760 1.316 . S
C2689 C313 1.434 . S
C2719 C118 1.433 . S
C2724 C1024 1.316 . S
C2749 C157 1.484 . S
C2754 C1108 1.342 . S
C2779 C196 1.457 . S
C2784 C1180 1.325 . S
C2809 C469 1.498 . S
C2814 C1096 1.355 . S
C2844 C1192 1.312 . S
C2839 C508 1.442 . S
C2869 C547 1.434 . S
C2874 C1012 1.316 . S
C2899 C352 1.434 . S
C2904 C1276 1.317 . S
C2929 C391 1.484 . S
C2934 C1360 1.342 . S
C2964 C1432 1.325 . S
C2959 C430 1.458 . S
C2989 C1 1.499 . S
C2994 C1348 1.356 . S
C3019 C40 1.441 . S
C3024 C1444 1.311 . S
C3049 C79 1.433 . S
C3054 C1264 1.316 . S
