# Generated by pormake.
# Topology anh, (6,3)-cn, num edge types: 1
# Building blocks:
#     Node 0, Type 0, BuildingBlock: HISSIN_clean_sbu_0, # of connection points: 6
#     Node 1, Type 0, BuildingBlock: HISSIN_clean_sbu_0, # of connection points: 6
#     Node 2, Type 0, BuildingBlock: HISSIN_clean_sbu_0, # of connection points: 6
#     Node 3, Type 1, BuildingBlock: PAMTOO_clean_linker_0, # of connection points: 3
#     Node 4, Type 1, BuildingBlock: PAMTOO_clean_linker_0, # of connection points: 3
#     Node 5, Type 1, BuildingBlock: PAMTOO_clean_linker_0, # of connection points: 3
#     Node 6, Type 1, BuildingBlock: PAMTOO_clean_linker_0, # of connection points: 3
#     Node 7, Type 1, BuildingBlock: PAMTOO_clean_linker_0, # of connection points: 3
#     Node 8, Type 1, BuildingBlock: PAMTOO_clean_linker_0, # of connection points: 3
#     Edge 9, Type (0, 1), BuildingBlock: XUDNAN_clean_linker_2, # of connection points: 2
#     Edge 10, Type (0, 1), BuildingBlock: XUDNAN_clean_linker_2, # of connection points: 2
#     Edge 11, Type (0, 1), BuildingBlock: XUDNAN_clean_linker_2, # of connection points: 2
#     Edge 12, Type (0, 1), BuildingBlock: XUDNAN_clean_linker_2, # of connection points: 2
#     Edge 13, Type (0, 1), BuildingBlock: XUDNAN_clean_linker_2, # of connection points: 2
#     Edge 14, Type (0, 1), BuildingBlock: XUDNAN_clean_linker_2, # of connection points: 2
#     Edge 15, Type (0, 1), BuildingBlock: XUDNAN_clean_linker_2, # of connection points: 2
#     Edge 16, Type (0, 1), BuildingBlock: XUDNAN_clean_linker_2, # of connection points: 2
#     Edge 17, Type (0, 1), BuildingBlock: XUDNAN_clean_linker_2, # of connection points: 2
#     Edge 18, Type (0, 1), BuildingBlock: XUDNAN_clean_linker_2, # of connection points: 2
#     Edge 19, Type (0, 1), BuildingBlock: XUDNAN_clean_linker_2, # of connection points: 2
#     Edge 20, Type (0, 1), BuildingBlock: XUDNAN_clean_linker_2, # of connection points: 2
#     Edge 21, Type (0, 1), BuildingBlock: XUDNAN_clean_linker_2, # of connection points: 2
#     Edge 22, Type (0, 1), BuildingBlock: XUDNAN_clean_linker_2, # of connection points: 2
#     Edge 23, Type (0, 1), BuildingBlock: XUDNAN_clean_linker_2, # of connection points: 2
#     Edge 24, Type (0, 1), BuildingBlock: XUDNAN_clean_linker_2, # of connection points: 2
#     Edge 25, Type (0, 1), BuildingBlock: XUDNAN_clean_linker_2, # of connection points: 2
#     Edge 26, Type (0, 1), BuildingBlock: XUDNAN_clean_linker_2, # of connection points: 2
# Relax obj value: 0.248
# Max RMSD: 0.148
# Mean RMSD: 0.117
data_MOF--net-anh--node1-HISSIN_clean_sbu_0--node2-PAMTOO_clean_linker_0--edge1-XUDNAN_clean_linker_2
_symmetry_space_group_name_H-M    P1
_symmetry_Int_Tables_number       1
_symmetry_cell_setting            triclinic
loop_
_symmetry_equiv_pos_as_xyz
'x, y, z'
_cell_length_a     31.070213
_cell_length_b     31.282101
_cell_length_c     49.608704
_cell_angle_alpha  88.702808
_cell_angle_beta   92.581421
_cell_angle_gamma 120.07776
loop_
_atom_site_label
_atom_site_type_symbol
_atom_site_fract_x
_atom_site_fract_y
_atom_site_fract_z
_atom_type_partial_charge
Eu0 Eu 0.12034 0.51806 0.16891 0.0
Eu1 Eu 0.17546 0.63507 0.16748 0.0
C2 C 0.15166 0.57981 0.22541 0.0
C3 C 1.03088 0.3831 0.15334 0.0
C4 C 0.99284 0.393 0.14569 0.0
C5 C 0.97639 0.29677 0.14219 0.0
C6 C 0.94614 0.35465 0.13741 0.0
C7 C 1.02311 0.33525 0.15073 0.0
C8 C 0.93684 0.30576 0.13644 0.0
C9 C 1.07767 0.4221 0.1653 0.0
O10 O 0.24514 0.6241 0.16833 0.0
O11 O 0.20302 0.53946 0.16743 0.0
C12 C 0.24583 0.58184 0.1674 0.0
O13 O 0.11275 0.54155 0.12583 0.0
O14 O 0.23251 0.71213 0.17537 0.0
O15 O 0.16557 0.69444 0.15118 0.0
O16 O 0.18779 0.61068 0.12864 0.0
C17 C 0.15069 0.57797 0.114 0.0
O18 O 1.053 0.53006 0.17205 0.0
O19 O 1.09133 0.61044 0.15849 0.0
O20 O 0.1607 0.61928 0.21139 0.0
O21 O 1.10971 0.45242 0.14829 0.0
O22 O 1.0735 0.44499 0.18581 0.0
O23 O 0.14117 0.53832 0.21344 0.0
C24 C 0.23594 0.76938 0.1417 0.0
C25 C 0.27101 0.76985 0.12471 0.0
C26 C 0.2513 0.84784 0.12339 0.0
C27 C 0.29773 0.81049 0.10784 0.0
C28 C 0.22484 0.80747 0.1401 0.0
C29 C 0.28976 0.85108 0.10792 0.0
C30 C 0.20844 0.72913 0.1606 0.0
C31 C 1.04979 0.56927 0.16443 0.0
H32 H 0.99856 0.43 0.14738 0.0
H33 H 0.97059 0.25968 0.14131 0.0
H34 H 0.91658 0.36305 0.13362 0.0
H35 H 1.05254 0.32734 0.15625 0.0
H36 H 0.27876 0.73971 0.12513 0.0
H37 H 0.24416 0.87824 0.12451 0.0
H38 H 0.32667 0.81152 0.096 0.0
H39 H 0.19687 0.80693 0.15263 0.0
Eu40 Eu 0.74511 1.05961 0.50822 0.0
Eu41 Eu 0.68129 0.11365 0.49757 0.0
C42 C 0.70335 0.08834 0.55959 0.0
C43 C 0.81179 0.98394 0.50162 0.0
C44 C 0.78907 0.95967 0.47721 0.0
C45 C 0.84868 0.93209 0.50819 0.0
C46 C 0.79573 0.92123 0.46849 0.0
C47 C 0.84216 0.97049 0.51678 0.0
C48 C 0.82501 0.90648 0.48414 0.0
C49 C 0.80509 1.02377 0.51166 0.0
O50 O 0.76124 0.18301 0.49707 0.0
O51 O 0.80503 0.14306 0.50635 0.0
C52 C 0.80471 0.18471 0.50105 0.0
O53 O 0.71336 1.0438 0.46536 0.0
O54 O 0.65572 0.16553 0.5051 0.0
O55 O 0.62103 0.11184 0.47247 0.0
O56 O 0.72031 0.11851 0.45992 0.0
C57 C 0.7159 0.07873 0.44942 0.0
O58 O 0.66553 0.99129 0.50749 0.0
O59 O 0.62085 1.02931 0.49521 0.0
O60 O 0.67916 0.10282 0.54281 0.0
O61 O 0.809 1.05712 0.49414 0.0
O62 O 0.76906 1.01152 0.52811 0.0
O63 O 0.73343 0.07391 0.55102 0.0
C64 C 0.61574 0.18462 0.46835 0.0
C65 C 0.56917 0.16833 0.45527 0.0
C66 C 0.63974 0.26902 0.45619 0.0
C67 C 0.55708 0.20227 0.44382 0.0
C68 C 0.65181 0.23497 0.46775 0.0
C69 C 0.59146 0.25308 0.44529 0.0
C70 C 0.62283 0.14898 0.48496 0.0
C71 C 0.62208 0.98808 0.50074 0.0
H72 H 0.76571 0.96996 0.46516 0.0
H73 H 0.87046 0.92107 0.52112 0.0
H74 H 0.77712 0.90235 0.44985 0.0
H75 H 0.8601 0.98907 0.53562 0.0
H76 H 0.54095 0.12954 0.4554 0.0
H77 H 0.66678 0.30806 0.45786 0.0
H78 H 0.51969 0.1891 0.43551 0.0
H79 H 0.68815 0.2483 0.47756 0.0
Eu80 Eu 0.64354 0.57299 0.82882 0.0
Eu81 Eu 0.76097 0.62969 0.84124 0.0
C82 C 0.68925 0.60078 0.89062 0.0
C83 C 0.51703 0.55344 0.81589 0.0
C84 C 0.53803 0.60087 0.80449 0.0
C85 C 0.44816 0.56178 0.83054 0.0
C86 C 0.51564 0.62943 0.80726 0.0
C87 C 0.47098 0.53331 0.828 0.0
C88 C 0.47157 0.61107 0.82139 0.0
C89 C 0.54751 0.52978 0.81965 0.0
O90 O 0.7461 0.55001 0.83622 0.0
O91 O 0.6611 0.50754 0.83024 0.0
C92 C 0.70403 0.50737 0.83251 0.0
O93 O 0.6761 0.60099 0.78837 0.0
O94 O 0.82949 0.64392 0.86304 0.0
O95 O 0.83188 0.69314 0.83089 0.0
O96 O 0.75212 0.60879 0.79761 0.0
C97 C 0.71774 0.60571 0.78031 0.0
O98 O 0.65999 0.65432 0.82477 0.0
O99 O 0.74079 0.69264 0.84087 0.0
O100 O 0.73135 0.60633 0.88276 0.0
O101 O 0.57883 0.53811 0.80089 0.0
O102 O 0.56811 0.53495 0.84371 0.0
O103 O 0.65414 0.59572 0.87299 0.0
C104 C 0.9002 0.67919 0.83585 0.0
C105 C 0.91595 0.69692 0.80969 0.0
C106 C 0.96929 0.66401 0.8422 0.0
C107 C 0.95865 0.69911 0.80013 0.0
C108 C 0.9269 0.66212 0.85181 0.0
C109 C 0.98618 0.6834 0.81646 0.0
C110 C 0.85763 0.68032 0.84718 0.0
C111 C 0.70118 0.6956 0.83209 0.0
H112 H 0.57368 0.61736 0.79509 0.0
H113 H 0.41369 0.54617 0.84106 0.0
H114 H 0.5352 0.66725 0.80018 0.0
H115 H 0.45427 0.49683 0.83697 0.0
H116 H 0.89613 0.71031 0.79683 0.0
H117 H 0.99032 0.65271 0.85556 0.0
H118 H 0.97094 0.71434 0.78027 0.0
H119 H 0.91586 0.64861 0.87208 0.0
H120 H 0.68032 0.12581 0.25074 0.0
H121 H 0.52893 1.06856 0.27284 0.0
H122 H 0.56848 0.10997 0.19097 0.0
H123 H 0.50971 0.14215 0.20874 0.0
C124 C 0.4796 0.10285 0.21006 0.0
O125 O 0.49569 0.07448 0.22427 0.0
H126 H 0.44873 0.10192 0.221 0.0
C127 C 0.64236 0.11568 0.24495 0.0
C128 C 0.62927 0.12102 0.21806 0.0
C129 C 0.60617 0.09584 0.26458 0.0
C130 C 0.55716 0.08422 0.25784 0.0
C131 C 0.5439 0.09015 0.23133 0.0
C132 C 0.57964 0.1073 0.21156 0.0
H133 H 0.76434 0.63014 0.57095 0.0
H134 H 0.62165 0.50538 0.58913 0.0
H135 H 0.66275 0.54141 0.50698 0.0
H136 H 0.56919 0.52933 0.52125 0.0
C137 C 0.55588 0.4895 0.52526 0.0
O138 O 0.59191 0.48262 0.53879 0.0
H139 H 0.52273 0.47521 0.53786 0.0
C140 C 0.72973 0.59804 0.56428 0.0
C141 C 0.71754 0.58973 0.53656 0.0
C142 C 0.69582 0.56745 0.58353 0.0
C143 C 0.64874 0.52906 0.57472 0.0
C144 C 0.63692 0.5199 0.54716 0.0
C145 C 0.67206 0.54885 0.52825 0.0
H146 H 0.21585 0.68881 0.91021 0.0
H147 H 0.33924 0.7778 0.96466 0.0
H148 H 0.3464 0.81775 0.8814 0.0
H149 H 0.44221 0.8344 0.95071 0.0
C150 C 0.43655 0.84678 0.93033 0.0
O151 O 0.39075 0.84419 0.92867 0.0
H152 H 0.46611 0.88602 0.92829 0.0
C153 C 0.25356 0.71901 0.91341 0.0
C154 C 0.27865 0.75109 0.89195 0.0
C155 C 0.27493 0.72771 0.93969 0.0
C156 C 0.32192 0.76979 0.94457 0.0
C157 C 0.34699 0.80217 0.92357 0.0
C158 C 0.326 0.79227 0.89733 0.0
H159 H 1.09262 0.49569 0.42615 0.0
H160 H 0.23607 0.62742 0.43059 0.0
H161 H 0.17417 0.5445 0.50313 0.0
H162 H 0.25952 0.68034 0.50583 0.0
C163 C 0.27356 0.67757 0.48614 0.0
O164 O 0.25659 0.62662 0.48139 0.0
H165 H 0.2556 0.69046 0.47065 0.0
C166 C 0.12439 0.52166 0.43847 0.0
C167 C 0.12597 0.51325 0.46659 0.0
C168 C 0.16325 0.56269 0.42559 0.0
C169 C 0.20584 0.59674 0.44076 0.0
C170 C 0.21103 0.59238 0.46869 0.0
C171 C 0.1706 0.54965 0.48168 0.0
H172 H 0.6826 0.99194 0.75922 0.0
H173 H 0.69217 0.13344 0.76463 0.0
H174 H 0.70393 1.06122 0.83729 0.0
H175 H 0.65052 0.14544 0.83792 0.0
C176 C 0.67005 0.16199 0.81898 0.0
O177 O 0.70536 0.14601 0.8159 0.0
H178 H 0.6412 0.14587 0.80236 0.0
C179 C 0.68624 1.02155 0.77177 0.0
C180 C 0.69254 1.01891 0.80012 0.0
C181 C 0.68554 1.0621 0.75901 0.0
C182 C 0.69123 0.10181 0.77462 0.0
C183 C 0.69659 0.10272 0.80276 0.0
C184 C 0.69798 1.06083 0.81562 0.0
H185 H 0.75782 0.60078 0.09158 0.0
H186 H 0.61419 0.589 0.09653 0.0
H187 H 0.68846 0.57532 0.16859 0.0
H188 H 0.60614 0.64167 0.13643 0.0
C189 C 0.59013 0.61256 0.15219 0.0
O190 O 0.60418 0.5765 0.14746 0.0
H191 H 0.60809 0.63088 0.1717 0.0
C192 C 0.72769 0.59612 0.10371 0.0
C193 C 0.7301 0.58771 0.13177 0.0
C194 C 0.68669 0.5972 0.09073 0.0
C195 C 0.64679 0.59052 0.1063 0.0
C196 C 0.64678 0.58465 0.13435 0.0
C197 C 0.68862 0.5822 0.14711 0.0
H198 H 0.34969 0.65767 0.1617 0.0
H199 H 0.25524 0.49888 0.16891 0.0
H200 H 0.3281 0.48855 0.16534 0.0
H201 H 0.43332 0.65395 0.11309 0.0
H202 H 0.48899 0.70562 0.12742 0.0
H203 H 0.42953 0.70157 0.13081 0.0
H204 H 0.4438 0.70834 0.18258 0.0
H205 H 0.50336 0.71256 0.17932 0.0
H206 H 0.45761 0.6655 0.2004 0.0
H207 H 0.41534 0.49421 0.16101 0.0
H208 H 0.50376 0.51679 0.15669 0.0
H209 H 0.54481 0.67088 0.15175 0.0
C210 C 0.34408 0.62063 0.16266 0.0
C211 C 0.29467 0.57917 0.16575 0.0
C212 C 0.29112 0.53182 0.16664 0.0
C213 C 0.33302 0.52533 0.16459 0.0
C214 C 0.38049 0.56636 0.16149 0.0
C215 C 0.38629 0.61328 0.16056 0.0
C216 C 0.44182 0.6511 0.15705 0.0
C217 C 0.44883 0.67977 0.13051 0.0
C218 C 0.4629 0.68649 0.18128 0.0
C219 C 0.466 0.6184 0.15612 0.0
C220 C 0.42989 0.56946 0.15876 0.0
C221 C 0.44349 0.53263 0.15879 0.0
C222 C 0.49438 0.54577 0.15619 0.0
C223 C 0.53271 0.5957 0.15325 0.0
C224 C 0.5172 0.63213 0.15342 0.0
H225 H 0.8366 0.27607 0.47133 0.0
H226 H 0.89223 0.20716 0.52878 0.0
H227 H 0.97557 0.28163 0.52838 0.0
H228 H 0.94901 0.33533 0.43199 0.0
H229 H 0.94632 0.39072 0.4249 0.0
H230 H 0.88992 0.33327 0.4307 0.0
H231 H 0.86915 0.37417 0.46875 0.0
H232 H 0.92556 0.43172 0.46307 0.0
H233 H 0.91392 0.40425 0.4962 0.0
H234 H 1.05764 0.36814 0.52198 0.0
H235 H 0.1261 0.44947 0.50734 0.0
H236 H 1.0218 0.46378 0.45217 0.0
C237 C 0.86603 0.27665 0.48412 0.0
C238 C 0.8558 0.23411 0.50049 0.0
C239 C 0.89721 0.23787 0.51615 0.0
C240 C 0.94547 0.28074 0.51608 0.0
C241 C 0.95426 0.32143 0.49984 0.0
C242 C 0.91556 0.31951 0.48388 0.0
C243 C 0.93596 0.36763 0.46723 0.0
C244 C 0.92993 0.35604 0.4369 0.0
C245 C 0.90956 0.39613 0.47423 0.0
C246 C 0.9916 0.39673 0.4763 0.0
C247 C 1.00128 0.36958 0.4954 0.0
C248 C 1.04982 0.38914 0.50691 0.0
C249 C 1.08906 0.43628 0.49855 0.0
C250 C 1.0814 0.46502 0.4783 0.0
C251 C 1.03081 0.44398 0.46744 0.0
H252 H 0.64159 0.73059 0.80288 0.0
H253 H 0.76783 0.78115 0.85953 0.0
H254 H 0.77617 0.86389 0.85977 0.0
H255 H 0.69287 0.84552 0.76386 0.0
H256 H 0.63408 0.84309 0.75765 0.0
H257 H 0.63585 0.78677 0.76287 0.0
H258 H 0.57518 0.76287 0.80158 0.0
H259 H 0.57332 0.81918 0.79661 0.0
H260 H 0.59049 0.80491 0.82933 0.0
H261 H 0.77045 0.94596 0.85442 0.0
H262 H 0.75658 1.01504 0.84066 0.0
H263 H 0.63789 0.91657 0.78508 0.0
C264 C 0.67094 0.75882 0.81552 0.0
C265 C 0.70386 0.74719 0.83145 0.0
C266 C 0.74172 0.78709 0.84712 0.0
C267 C 0.74677 0.83504 0.84745 0.0
C268 C 0.71421 0.84515 0.83166 0.0
C269 C 0.6772 0.80802 0.8157 0.0
C270 C 0.64853 0.82956 0.79968 0.0
C271 C 0.65309 0.82601 0.7692 0.0
C272 C 0.59363 0.80252 0.80725 0.0
C273 C 0.67508 0.88419 0.8089 0.0
C274 C 0.71244 0.89219 0.82775 0.0
C275 C 0.74127 0.93942 0.83952 0.0
C276 C 0.7328 0.97905 0.83166 0.0
C277 C 0.69606 0.9733 0.81157 0.0
C278 C 0.66671 0.92399 0.80039 0.0
H279 H 1.01604 0.62949 0.13633 0.0
H280 H 0.96335 0.50245 0.18929 0.0
H281 H 0.88073 0.49599 0.18898 0.0
H282 H 0.94496 0.68232 0.16353 0.0
H283 H 0.93059 0.70047 0.13116 0.0
H284 H 0.98642 0.6967 0.13619 0.0
H285 H 0.95947 0.63661 0.09592 0.0
H286 H 0.90369 0.64039 0.09072 0.0
H287 H 0.89937 0.5811 0.09554 0.0
H288 H 0.79967 0.50454 0.1837 0.0
H289 H 0.73172 0.52146 0.17028 0.0
H290 H 0.83263 0.63972 0.11852 0.0
C291 C 0.98733 0.60031 0.14801 0.0
C292 C 0.99815 0.56668 0.16313 0.0
C293 C 0.95781 0.52902 0.17756 0.0
C294 C 0.91003 0.52508 0.17756 0.0
C295 C 0.90078 0.55854 0.16265 0.0
C296 C 0.93839 0.59515 0.14778 0.0
C297 C 0.91784 0.625 0.13245 0.0
C298 C 0.94669 0.67936 0.14136 0.0
C299 C 0.92025 0.62052 0.10184 0.0
C300 C 0.86332 0.59995 0.14102 0.0
C301 C 0.85434 0.56197 0.15875 0.0
C302 C 0.80693 0.5342 0.16968 0.0
C303 C 0.76803 0.54446 0.16206 0.0
C304 C 0.77493 0.58205 0.14312 0.0
C305 C 0.82439 0.61028 0.13286 0.0
H306 H 0.51997 0.9594 0.48676 0.0
H307 H 0.6116 0.89573 0.51091 0.0
H308 H 0.53725 0.81237 0.50879 0.0
H309 H 0.41077 0.87285 0.52423 0.0
H310 H 0.36622 0.86971 0.49864 0.0
H311 H 0.42665 0.92449 0.50189 0.0
H312 H 0.44146 0.91722 0.45183 0.0
H313 H 0.38115 0.86229 0.44847 0.0
H314 H 0.43605 0.86071 0.43981 0.0
H315 H 0.44735 0.73063 0.50467 0.0
H316 H 0.3579 0.66622 0.49918 0.0
H317 H 0.32272 0.78015 0.47714 0.0
C318 C 0.52475 0.9281 0.49163 0.0
C319 C 0.57364 0.93612 0.49911 0.0
C320 C 0.57608 0.89254 0.50516 0.0
C321 C 0.53333 0.84419 0.50398 0.0
C322 C 0.48625 0.83773 0.4966 0.0
C323 C 0.48185 0.87886 0.49052 0.0
C324 C 0.4268 0.86175 0.48325 0.0
C325 C 0.40641 0.88351 0.50319 0.0
C326 C 0.42103 0.87638 0.45411 0.0
C327 C 0.40099 0.80504 0.48614 0.0
C328 C 0.43591 0.79174 0.49389 0.0
C329 C 0.42033 0.74136 0.49831 0.0
C330 C 0.36883 0.70435 0.49494 0.0
C331 C 0.33173 0.71642 0.48674 0.0
C332 C 0.34925 0.7683 0.48258 0.0
H333 H 0.62824 0.40432 0.82354 0.0
H334 H 0.78754 0.49731 0.83755 0.0
H335 H 0.79757 0.42426 0.83511 0.0
H336 H 0.61625 0.29774 0.86262 0.0
H337 H 0.5702 0.2521 0.83978 0.0
H338 H 0.57498 0.3117 0.84258 0.0
H339 H 0.58593 0.32449 0.79121 0.0
H340 H 0.58131 0.26498 0.7883 0.0
H341 H 0.63484 0.3195 0.77599 0.0
H342 H 0.79089 0.33583 0.8315 0.0
H343 H 0.76712 0.24743 0.82714 0.0
H344 H 0.61312 0.20913 0.81493 0.0
C345 C 0.66539 0.40966 0.82614 0.0
C346 C 0.70705 0.45876 0.83086 0.0
C347 C 0.75445 0.46176 0.83397 0.0
C348 C 0.76072 0.41969 0.83259 0.0
C349 C 0.71942 0.37249 0.82795 0.0
C350 C 0.67247 0.36731 0.82476 0.0
C351 C 0.6342 0.31215 0.82 0.0
C352 C 0.59666 0.29224 0.84258 0.0
C353 C 0.60747 0.30485 0.79222 0.0
C354 C 0.66655 0.28733 0.82096 0.0
C355 C 0.7158 0.32281 0.82561 0.0
C356 C 0.75222 0.30831 0.82766 0.0
C357 C 0.7384 0.25735 0.82503 0.0
C358 C 0.68814 0.21963 0.82001 0.0
C359 C 0.65216 0.23608 0.81818 0.0
H360 H 0.74678 0.81963 0.46621 0.0
H361 H 0.90341 0.88898 0.48961 0.0
H362 H 0.89636 0.8071 0.49332 0.0
H363 H 0.70537 0.73654 0.5107 0.0
H364 H 0.65697 0.68561 0.49143 0.0
H365 H 0.67741 0.74748 0.48062 0.0
H366 H 0.69798 0.72841 0.43394 0.0
H367 H 0.6769 0.66566 0.44456 0.0
H368 H 0.73842 0.70287 0.4319 0.0
H369 H 0.86723 0.72225 0.50929 0.0
H370 H 0.81956 0.6429 0.53315 0.0
H371 H 0.68252 0.62699 0.49749 0.0
C372 C 0.78027 0.81777 0.47044 0.0
C373 C 0.82545 0.86055 0.47782 0.0
C374 C 0.86818 0.85654 0.48416 0.0
C375 C 0.86463 0.81013 0.48605 0.0
C376 C 0.81839 0.76818 0.48087 0.0
C377 C 0.77716 0.77166 0.47237 0.0
C378 C 0.73003 0.72181 0.47291 0.0
C379 C 0.69023 0.723 0.48995 0.0
C380 C 0.70965 0.70361 0.44411 0.0
C381 C 0.75025 0.69107 0.48607 0.0
C382 C 0.80154 0.71786 0.48961 0.0
C383 C 0.82737 0.7002 0.50569 0.0
C384 C 0.80003 0.65526 0.51934 0.0
C385 C 0.74745 0.62869 0.51688 0.0
C386 C 0.72278 0.64571 0.49896 0.0
H387 H 1.02521 0.62251 0.82218 0.0
H388 H 1.06002 0.7687 0.79554 0.0
H389 H 0.14901 0.79551 0.79791 0.0
H390 H 1.10094 0.65377 0.87129 0.0
H391 H 0.12266 0.61022 0.86951 0.0
H392 H 1.06363 0.59536 0.85423 0.0
H393 H 1.09064 0.58156 0.80818 0.0
H394 H 0.15012 0.59572 0.82348 0.0
H395 H 0.14732 0.62928 0.79406 0.0
H396 H 0.22733 0.81523 0.82028 0.0
H397 H 0.28635 0.82395 0.85681 0.0
H398 H 0.20892 0.66469 0.86695 0.0
C399 C 1.05172 0.65933 0.81548 0.0
C400 C 1.03597 0.69355 0.80881 0.0
C401 C 1.07119 0.74163 0.80038 0.0
C402 C 0.12202 0.7572 0.80167 0.0
C403 C 0.13695 0.72401 0.81095 0.0
C404 C 1.10268 0.67535 0.81687 0.0
C405 C 0.12765 0.65006 0.83158 0.0
C406 C 1.10224 0.62606 0.85821 0.0
C407 C 0.12903 0.61191 0.81322 0.0
C408 C 0.17939 0.69384 0.83653 0.0
C409 C 0.18462 0.73567 0.82349 0.0
C410 C 0.22471 0.78244 0.82961 0.0
C411 C 0.25844 0.78703 0.85057 0.0
C412 C 0.25226 0.74496 0.86518 0.0
C413 C 0.21434 0.69766 0.85651 0.0
H414 H 0.38939 0.88931 0.11162 0.0
H415 H 0.2775 0.92603 0.08498 0.0
H416 H 0.33415 1.01258 0.09765 0.0
H417 H 0.41106 0.93125 0.16627 0.0
H418 H 0.47764 0.95907 0.17115 0.0
H419 H 0.44567 0.91153 0.14672 0.0
H420 H 0.50072 0.96819 0.10903 0.0
H421 H 0.53465 1.01634 0.13372 0.0
H422 H 0.50743 1.0284 0.10376 0.0
H423 H 0.38089 0.07841 0.1312 0.0
H424 H 0.41938 0.12005 0.17476 0.0
H425 H 0.49709 1.03749 0.18196 0.0
C426 C 0.37821 0.91621 0.10654 0.0
C427 C 0.32841 0.90072 0.09865 0.0
C428 C 0.31518 0.93696 0.09192 0.0
C429 C 0.34734 0.98645 0.09905 0.0
C430 C 0.39311 0.99908 0.11183 0.0
C431 C 0.40973 0.96533 0.11427 0.0
C432 C 0.45374 0.98321 0.13417 0.0
C433 C 0.44641 0.94398 0.15583 0.0
C434 C 0.50199 1.00006 0.11927 0.0
C435 C 0.45318 1.02699 0.14594 0.0
C436 C 0.42031 1.03765 0.13184 0.0
C437 C 0.4082 0.07168 0.14172 0.0
C438 C 0.42958 0.09463 0.16666 0.0
C439 C 0.46135 0.08226 0.18187 0.0
C440 C 0.47413 1.04908 0.17079 0.0
H441 H 0.51203 0.24836 0.46754 0.0
H442 H 0.63497 0.34054 0.41694 0.0
H443 H 0.61724 0.40871 0.42152 0.0
H444 H 0.4317 0.31055 0.45158 0.0
H445 H 0.416 0.30401 0.48655 0.0
H446 H 0.42417 0.25751 0.47051 0.0
H447 H 0.48972 0.26804 0.50792 0.0
H448 H 0.48189 0.31419 0.52386 0.0
H449 H 0.54297 0.3285 0.51418 0.0
H450 H 0.60133 0.47135 0.44067 0.0
H451 H 0.59691 0.52322 0.47592 0.0
H452 H 0.48962 0.39227 0.51741 0.0
C453 C 0.53319 0.28193 0.45609 0.0
C454 C 0.57406 0.28903 0.44141 0.0
C455 C 0.60291 0.33426 0.42788 0.0
C456 C 0.5928 0.37298 0.43026 0.0
C457 C 0.55394 0.36586 0.44635 0.0
C458 C 0.5244 0.32114 0.459 0.0
C459 C 0.49359 0.32583 0.48027 0.0
C460 C 0.43807 0.29782 0.4717 0.0
C461 C 0.50269 0.30819 0.50817 0.0
C462 C 0.51399 0.38101 0.4796 0.0
C463 C 0.5466 0.40309 0.45888 0.0
C464 C 0.57502 0.45435 0.45651 0.0
C465 C 0.57248 0.48359 0.47667 0.0
C466 C 0.54292 0.46137 0.49925 0.0
C467 C 0.51136 0.4098 0.49989 0.0
H468 H 0.43603 0.6134 0.87038 0.0
H469 H 0.47309 0.68885 0.7931 0.0
H470 H 0.46409 0.75621 0.81192 0.0
H471 H 0.3438 0.65207 0.88805 0.0
H472 H 0.36299 0.65728 0.92322 0.0
H473 H 0.36508 0.61204 0.90228 0.0
H474 H 0.4584 0.64852 0.91622 0.0
H475 H 0.45707 0.69464 0.93655 0.0
H476 H 0.50132 0.71309 0.91031 0.0
H477 H 0.46135 0.82 0.84098 0.0
H478 H 0.45884 0.87199 0.87727 0.0
H479 H 0.42185 0.75311 0.93454 0.0
C480 C 0.44009 0.64282 0.85693 0.0
C481 C 0.45525 0.64565 0.83021 0.0
C482 C 0.46186 0.68598 0.81371 0.0
C483 C 0.45659 0.72432 0.82418 0.0
C484 C 0.44377 0.7213 0.85099 0.0
C485 C 0.43453 0.68102 0.86695 0.0
C486 C 0.42464 0.68805 0.89563 0.0
C487 C 0.37094 0.65011 0.9027 0.0
C488 C 0.46264 0.68597 0.91585 0.0
C489 C 0.43196 0.73947 0.89362 0.0
C490 C 0.44241 0.75794 0.86767 0.0
C491 C 0.45267 0.8057 0.86129 0.0
C492 C 0.45171 0.83507 0.88196 0.0
C493 C 0.44115 0.81661 0.90858 0.0
C494 C 0.43075 0.76815 0.91436 0.0
H495 H 0.89572 0.22032 0.16546 0.0
H496 H 0.85975 0.2995 0.10398 0.0
H497 H 0.77081 0.24695 0.11284 0.0
H498 H 0.77168 0.09353 0.15444 0.0
H499 H 0.77193 0.08183 0.19018 0.0
H500 H 0.82987 0.11422 0.17312 0.0
H501 H 0.86069 0.18561 0.20746 0.0
H502 H 0.80264 0.15489 0.224 0.0
H503 H 0.82532 0.21645 0.21095 0.0
H504 H 0.69478 0.20908 0.13855 0.0
H505 H 0.63238 0.17595 0.17308 0.0
H506 H 0.71258 0.11142 0.21461 0.0
C507 C 0.86905 0.2246 0.15261 0.0
C508 C 0.88471 0.26445 0.1343 0.0
C509 C 0.84859 0.26969 0.11845 0.0
C510 C 0.79793 0.23976 0.1232 0.0
C511 C 0.78403 0.20373 0.1432 0.0
C512 C 0.81832 0.19454 0.15691 0.0
C513 C 0.79482 0.15852 0.1799 0.0
C514 C 0.79188 0.10908 0.17405 0.0
C515 C 0.82252 0.18023 0.20715 0.0
C516 C 0.74364 0.15313 0.17872 0.0
C517 C 0.7379 0.17881 0.15716 0.0
C518 C 0.69754 0.18654 0.15464 0.0
C519 C 0.66209 0.16739 0.17453 0.0
C520 C 0.66655 0.13994 0.19659 0.0
C521 C 0.7076 0.13207 0.19819 0.0
H522 H 0.19347 0.66717 0.0908 0.0
H523 H 0.11302 0.51101 0.07145 0.0
H524 H 0.13103 0.53195 0.02292 0.0
H525 H 0.16076 0.71392 0.03036 0.0
H526 H 0.22206 0.76761 0.02929 0.0
H527 H 0.19716 0.73956 0.06121 0.0
H528 H 0.27413 0.72848 0.07212 0.0
H529 H 0.29928 0.75879 0.04074 0.0
H530 H 0.29131 0.6985 0.04781 0.0
H531 H 0.16862 0.57222 0.97727 0.0
H532 H 0.21585 0.6261 0.93949 0.0
H533 H 0.26961 0.75467 0.99097 0.0
C534 C 0.1787 0.63717 0.07634 0.0
C535 C 0.15196 0.58746 0.08473 0.0
C536 C 0.1332 0.54935 0.06526 0.0
C537 C 0.14354 0.561 0.03778 0.0
C538 C 0.17213 0.61076 0.03042 0.0
C539 C 0.1888 0.64807 0.04929 0.0
C540 C 0.22181 0.69834 0.03728 0.0
C541 C 0.19905 0.73181 0.03966 0.0
C542 C 0.27476 0.72246 0.05024 0.0
C543 C 0.22137 0.68401 0.00846 0.0
C544 C 0.19287 0.63344 0.00473 0.0
C545 C 0.19023 0.61186 0.97997 0.0
C546 C 0.2172 0.6428 0.95863 0.0
C547 C 0.24652 0.69475 0.96221 0.0
C548 C 0.24808 0.71521 0.9875 0.0
H549 H 0.73814 0.1487 0.41059 0.0
H550 H 0.66459 0.99015 0.42288 0.0
H551 H 0.63074 0.97705 0.37578 0.0
H552 H 0.64321 0.15113 0.3732 0.0
H553 H 0.68231 0.19939 0.35034 0.0
H554 H 0.70583 0.19657 0.38375 0.0
H555 H 0.78015 0.19383 0.36389 0.0
H556 H 0.75748 0.19766 0.33036 0.0
H557 H 0.76845 0.14759 0.33909 0.0
H558 H 0.59557 0.9819 0.32977 0.0
H559 H 0.57083 1.00416 0.28581 0.0
H560 H 0.67047 0.1593 0.30313 0.0
C561 C 0.71597 0.11121 0.40315 0.0
C562 C 0.70397 1.07039 0.42026 0.0
C563 C 0.67462 1.02188 0.40995 0.0
C564 C 0.655 1.01413 0.38331 0.0
C565 C 0.66591 1.0553 0.36729 0.0
C566 C 0.69665 0.10288 0.37663 0.0
C567 C 0.70114 0.14087 0.3558 0.0
C568 C 0.68197 0.17391 0.36642 0.0
C569 C 0.75501 0.1718 0.34675 0.0
C570 C 0.66707 0.10728 0.33348 0.0
C571 C 0.64689 1.05804 0.34053 0.0
C572 C 0.61181 1.02025 0.32384 0.0
C573 C 0.59769 1.03316 0.29912 0.0
C574 C 0.61896 0.08328 0.29137 0.0
C575 C 0.65408 0.12073 0.3087 0.0
H576 H 0.65029 0.58838 0.73844 0.0
H577 H 0.80235 0.6222 0.75624 0.0
H578 H 0.81385 0.61797 0.70769 0.0
H579 H 0.62304 0.50084 0.68688 0.0
H580 H 0.58582 0.51911 0.66617 0.0
H581 H 0.59018 0.5273 0.70219 0.0
H582 H 0.62079 0.62055 0.69572 0.0
H583 H 0.61623 0.61261 0.65966 0.0
H584 H 0.67424 0.65769 0.67576 0.0
H585 H 0.80787 0.60708 0.65749 0.0
H586 H 0.78496 0.59098 0.60896 0.0
H587 H 0.63715 0.56499 0.62405 0.0
C588 C 0.68619 0.59539 0.73215 0.0
C589 C 0.72542 0.60566 0.75115 0.0
C590 C 0.7717 0.61421 0.74206 0.0
C591 C 0.77864 0.61195 0.71453 0.0
C592 C 0.73899 0.60114 0.69638 0.0
C593 C 0.69374 0.59315 0.70479 0.0
C594 C 0.65674 0.58091 0.68125 0.0
C595 C 0.61127 0.52895 0.68431 0.0
C596 C 0.6411 0.6203 0.6779 0.0
C597 C 0.68813 0.58282 0.65832 0.0
C598 C 0.73551 0.59473 0.66745 0.0
C599 C 0.77099 0.59805 0.65005 0.0
C600 C 0.75768 0.58903 0.62254 0.0
C601 C 0.7093 0.57677 0.61272 0.0
C602 C 0.67423 0.57373 0.63095 0.0
H603 H 0.74562 1.06092 0.60242 0.0
H604 H 0.64093 0.11219 0.58405 0.0
H605 H 0.62344 0.10772 0.63219 0.0
H606 H 0.67586 0.97513 0.65522 0.0
H607 H 0.73 0.98849 0.67624 0.0
H608 H 0.73474 0.99521 0.64015 0.0
H609 H 0.8054 0.08602 0.64599 0.0
H610 H 0.80111 0.07948 0.68209 0.0
H611 H 0.79503 0.12798 0.66528 0.0
H612 H 0.61644 0.09785 0.68214 0.0
H613 H 0.62336 0.08677 0.73118 0.0
H614 H 0.73299 1.04263 0.71872 0.0
C615 C 0.71909 0.07131 0.6085 0.0
C616 C 0.69471 0.08694 0.58914 0.0
C617 C 0.66026 0.10015 0.5982 0.0
C618 C 0.64989 0.09762 0.62562 0.0
C619 C 0.67418 0.08182 0.64404 0.0
C620 C 0.70827 1.0691 0.63598 0.0
C621 C 0.72961 1.05408 0.66021 0.0
C622 C 0.71678 1.00001 0.6578 0.0
C623 C 0.78614 0.08898 0.66359 0.0
C624 C 0.70226 1.06051 0.68308 0.0
C625 C 0.67034 0.07636 0.67316 0.0
C626 C 0.6414 0.08556 0.69014 0.0
C627 C 0.6457 0.07927 0.71803 0.0
C628 C 0.67883 1.06402 0.72897 0.0
C629 C 0.70697 1.05385 0.71106 0.0
H630 H 0.72817 0.57155 0.93353 0.0
H631 H 0.63532 0.63602 0.9141 0.0
H632 H 0.62732 0.6447 0.96277 0.0
H633 H 0.65712 0.49995 0.99063 0.0
H634 H 0.71106 0.50771 0.01001 0.0
H635 H 0.7109 0.50818 0.97369 0.0
H636 H 0.79146 0.5937 0.97498 0.0
H637 H 0.79159 0.59367 0.01131 0.0
H638 H 0.79258 0.64413 -0.00748 0.0
H639 H 0.6338 0.6511 0.01357 0.0
H640 H 0.64426 0.64493 0.06258 0.0
H641 H 0.72472 0.56703 0.04972 0.0
C642 C 0.70618 0.58751 0.93956 0.0
C643 C 0.6826 0.60345 0.91996 0.0
C644 C 0.65359 0.62346 0.92868 0.0
C645 C 0.64908 0.62879 0.95631 0.0
C646 C 0.67302 0.61306 0.9751 0.0
C647 C 0.70023 0.59195 0.96713 0.0
C648 C 0.72011 0.57585 0.99152 0.0
C649 C 0.6985 0.51958 0.99145 0.0
C650 C 0.77733 0.6035 -0.00736 0.0
C651 C 0.70027 0.59168 0.01443 0.0
C652 C 0.67385 0.61368 0.00445 0.0
C653 C 0.65352 0.63296 0.02158 0.0
C654 C 0.65936 0.62878 0.04957 0.0
C655 C 0.68435 0.60436 0.0606 0.0
C656 C 0.70552 0.5861 0.04245 0.0
H657 H 0.13393 0.50777 0.26503 0.0
H658 H 0.17413 0.66161 0.25457 0.0
H659 H 0.17816 0.67159 0.30353 0.0
H660 H 1.05686 0.48439 0.32323 0.0
H661 H 1.0769 0.44559 0.34039 0.0
H662 H 1.07605 0.44895 0.30407 0.0
H663 H 0.16921 0.47433 0.30466 0.0
H664 H 0.17028 0.47089 0.34096 0.0
H665 H 0.21377 0.52705 0.32432 0.0
H666 H 0.17998 0.66736 0.35325 0.0
H667 H 0.18022 0.64853 0.40171 0.0
H668 H 0.13855 0.49762 0.38249 0.0
C669 C 0.14349 0.54349 0.27305 0.0
C670 C 0.15367 0.58382 0.25555 0.0
C671 C 0.16607 0.62991 0.26714 0.0
C672 C 0.16845 0.63612 0.29512 0.0
C673 C 0.15826 0.59598 0.31169 0.0
C674 C 0.14602 0.55049 0.30128 0.0
C675 C 0.13751 0.51393 0.32412 0.0
C676 C 1.08362 0.47065 0.32287 0.0
C677 C 0.17493 0.49546 0.32347 0.0
C678 C 0.14733 0.54627 0.34878 0.0
C679 C 0.15912 0.59342 0.34094 0.0
C680 C 0.17075 0.63054 0.35967 0.0
C681 C 0.17094 0.61952 0.3872 0.0
C682 C 0.15957 0.57172 0.39602 0.0
C683 C 0.14698 0.5344 0.37643 0.0
loop_
_geom_bond_atom_site_label_1
_geom_bond_atom_site_label_2
_geom_bond_distance
_geom_bond_site_symmetry_2
_ccdc_geom_bond_type
Eu0 C9 2.828 . S
Eu0 O11 2.392 1_655 S
Eu0 O13 2.418 . S
Eu0 O18 2.373 . S
Eu0 O21 2.488 . S
Eu0 O22 2.471 . S
Eu0 O23 2.352 1_655 S
Eu1 O10 2.373 . S
Eu1 O14 2.488 . S
Eu1 O15 2.471 . S
Eu1 O16 2.349 . S
Eu1 O19 2.392 1_455 S
Eu1 O20 2.418 . S
Eu1 C30 2.828 . S
C2 O20 1.244 . S
C2 O23 1.267 . S
C3 C4 1.379 . S
C3 C7 1.373 . S
C3 C9 1.505 . S
C4 C3 1.379 . S
C4 C6 1.369 . S
C4 H32 0.930 . S
C5 C7 1.383 . S
C5 C8 1.382 . S
C5 H33 0.930 . S
C6 C4 1.369 . S
C6 C8 1.392 . S
C6 H34 0.930 . S
C7 C3 1.373 . S
C7 C5 1.383 . S
C7 H35 0.931 . S
C8 C5 1.382 . S
C8 C6 1.392 . S
C9 Eu0 2.828 . S
C9 C3 1.505 . S
C9 O21 1.249 . S
C9 O22 1.244 . S
O10 Eu1 2.373 . S
O10 C12 1.258 . S
O11 Eu0 2.392 1_455 S
O11 C12 1.242 . S
C12 O10 1.258 . S
C12 O11 1.242 . S
O13 Eu0 2.418 . S
O13 C17 1.244 1_655 S
O14 Eu1 2.488 . S
O14 C30 1.249 . S
O15 Eu1 2.471 . S
O15 C30 1.244 . S
O16 Eu1 2.349 . S
O16 C17 1.265 . S
C17 O13 1.244 1_455 S
C17 O16 1.265 . S
O18 Eu0 2.373 . S
O18 C31 1.258 . S
O19 Eu1 2.392 1_655 S
O19 C31 1.242 . S
O20 Eu1 2.418 . S
O20 C2 1.244 . S
O21 Eu0 2.488 . S
O21 C9 1.249 . S
O22 Eu0 2.471 . S
O22 C9 1.244 . S
O23 Eu0 2.352 1_455 S
O23 C2 1.267 . S
C24 C25 1.379 . S
C24 C28 1.373 . S
C24 C30 1.505 . S
C25 C24 1.379 . S
C25 C27 1.369 . S
C25 H36 0.930 . S
C26 C28 1.383 . S
C26 C29 1.382 . S
C26 H37 0.930 . S
C27 C25 1.369 . S
C27 C29 1.392 . S
C27 H38 0.930 . S
C28 C24 1.373 . S
C28 C26 1.383 . S
C28 H39 0.931 . S
C29 C26 1.382 . S
C29 C27 1.392 . S
C30 Eu1 2.828 . S
C30 O14 1.249 . S
C30 O15 1.244 . S
C30 C24 1.505 . S
C31 O18 1.258 . S
C31 O19 1.242 . S
H32 C4 0.930 . S
H33 C5 0.930 . S
H34 C6 0.930 . S
H35 C7 0.931 . S
H36 C25 0.930 . S
H37 C26 0.930 . S
H38 C27 0.930 . S
H39 C28 0.931 . S
Eu40 C49 2.828 . S
Eu40 O51 2.392 1_565 S
Eu40 O53 2.417 1_565 S
Eu40 O58 2.373 . S
Eu40 O61 2.488 . S
Eu40 O62 2.471 . S
Eu40 O63 2.349 1_565 S
Eu41 O50 2.373 . S
Eu41 O54 2.488 . S
Eu41 O55 2.471 . S
Eu41 O56 2.349 . S
Eu41 O59 2.392 1_545 S
Eu41 O60 2.418 . S
Eu41 C70 2.828 . S
C42 O60 1.244 . S
C42 O63 1.265 . S
C43 C44 1.379 . S
C43 C47 1.373 . S
C43 C49 1.505 . S
C44 C43 1.379 . S
C44 C46 1.369 . S
C44 H72 0.930 . S
C45 C47 1.383 . S
C45 C48 1.382 . S
C45 H73 0.930 . S
C46 C44 1.369 . S
C46 C48 1.392 . S
C46 H74 0.930 . S
C47 C43 1.373 . S
C47 C45 1.383 . S
C47 H75 0.931 . S
C48 C45 1.382 . S
C48 C46 1.392 . S
C49 Eu40 2.828 . S
C49 C43 1.505 . S
C49 O61 1.249 . S
C49 O62 1.244 . S
O50 Eu41 2.373 . S
O50 C52 1.258 . S
O51 Eu40 2.392 1_545 S
O51 C52 1.242 . S
C52 O50 1.258 . S
C52 O51 1.242 . S
O53 Eu40 2.417 1_545 S
O53 C57 1.250 . S
O54 Eu41 2.488 . S
O54 C70 1.249 . S
O55 Eu41 2.471 . S
O55 C70 1.244 . S
O56 Eu41 2.349 . S
O56 C57 1.265 . S
C57 O53 1.250 . S
C57 O56 1.265 . S
O58 Eu40 2.373 . S
O58 C71 1.258 . S
O59 Eu41 2.392 1_565 S
O59 C71 1.242 . S
O60 Eu41 2.418 . S
O60 C42 1.244 . S
O61 Eu40 2.488 . S
O61 C49 1.249 . S
O62 Eu40 2.471 . S
O62 C49 1.244 . S
O63 Eu40 2.349 1_545 S
O63 C42 1.265 . S
C64 C65 1.379 . S
C64 C68 1.373 . S
C64 C70 1.505 . S
C65 C64 1.379 . S
C65 C67 1.369 . S
C65 H76 0.930 . S
C66 C68 1.383 . S
C66 C69 1.382 . S
C66 H77 0.930 . S
C67 C65 1.369 . S
C67 C69 1.392 . S
C67 H78 0.930 . S
C68 C64 1.373 . S
C68 C66 1.383 . S
C68 H79 0.931 . S
C69 C66 1.382 . S
C69 C67 1.392 . S
C70 Eu41 2.828 . S
C70 O54 1.249 . S
C70 O55 1.244 . S
C70 C64 1.505 . S
C71 O58 1.258 . S
C71 O59 1.242 . S
H72 C44 0.930 . S
H73 C45 0.930 . S
H74 C46 0.930 . S
H75 C47 0.931 . S
H76 C65 0.930 . S
H77 C66 0.930 . S
H78 C67 0.930 . S
H79 C68 0.931 . S
Eu80 C89 2.828 . S
Eu80 O91 2.392 . S
Eu80 O93 2.418 . S
Eu80 O98 2.373 . S
Eu80 O101 2.488 . S
Eu80 O102 2.471 . S
Eu80 O103 2.349 . S
Eu81 O90 2.373 . S
Eu81 O94 2.488 . S
Eu81 O95 2.471 . S
Eu81 O96 2.349 . S
Eu81 O99 2.392 . S
Eu81 O100 2.418 . S
Eu81 C110 2.828 . S
C82 O100 1.244 . S
C82 O103 1.265 . S
C83 C84 1.379 . S
C83 C87 1.373 . S
C83 C89 1.505 . S
C84 C83 1.379 . S
C84 C86 1.369 . S
C84 H112 0.930 . S
C85 C87 1.383 . S
C85 C88 1.382 . S
C85 H113 0.930 . S
C86 C84 1.369 . S
C86 C88 1.392 . S
C86 H114 0.930 . S
C87 C83 1.373 . S
C87 C85 1.383 . S
C87 H115 0.931 . S
C88 C85 1.382 . S
C88 C86 1.392 . S
C89 Eu80 2.828 . S
C89 C83 1.505 . S
C89 O101 1.249 . S
C89 O102 1.244 . S
O90 Eu81 2.373 . S
O90 C92 1.258 . S
O91 Eu80 2.392 . S
O91 C92 1.242 . S
C92 O90 1.258 . S
C92 O91 1.242 . S
O93 Eu80 2.418 . S
O93 C97 1.244 . S
O94 Eu81 2.488 . S
O94 C110 1.249 . S
O95 Eu81 2.471 . S
O95 C110 1.244 . S
O96 Eu81 2.349 . S
O96 C97 1.265 . S
C97 O93 1.244 . S
C97 O96 1.265 . S
O98 Eu80 2.373 . S
O98 C111 1.258 . S
O99 Eu81 2.392 . S
O99 C111 1.242 . S
O100 Eu81 2.418 . S
O100 C82 1.244 . S
O101 Eu80 2.488 . S
O101 C89 1.249 . S
O102 Eu80 2.471 . S
O102 C89 1.244 . S
O103 Eu80 2.349 . S
O103 C82 1.265 . S
C104 C105 1.379 . S
C104 C108 1.373 . S
C104 C110 1.505 . S
C105 C104 1.379 . S
C105 C107 1.369 . S
C105 H116 0.930 . S
C106 C108 1.383 . S
C106 C109 1.382 . S
C106 H117 0.930 . S
C107 C105 1.369 . S
C107 C109 1.392 . S
C107 H118 0.930 . S
C108 C104 1.373 . S
C108 C106 1.383 . S
C108 H119 0.931 . S
C109 C106 1.382 . S
C109 C107 1.392 . S
C110 Eu81 2.828 . S
C110 O94 1.249 . S
C110 O95 1.244 . S
C110 C104 1.505 . S
C111 O98 1.258 . S
C111 O99 1.242 . S
H112 C84 0.930 . S
H113 C85 0.930 . S
H114 C86 0.930 . S
H115 C87 0.931 . S
H116 C105 0.930 . S
H117 C106 0.930 . S
H118 C107 0.930 . S
H119 C108 0.931 . S
H120 C127 0.929 . S
H121 C130 0.930 1_565 S
H122 C132 0.929 . S
H123 C124 0.969 . S
C124 H123 0.969 . S
C124 O125 1.550 . S
C124 H126 0.973 . S
O125 C124 1.550 . S
O125 C131 1.412 1_565 S
H126 C124 0.973 . S
C127 H120 0.929 . S
C127 C128 1.400 . S
C127 C129 1.364 . S
C128 C127 1.400 . S
C128 C132 1.377 . S
C129 C127 1.364 . S
C129 C130 1.374 . S
C130 H121 0.930 1_545 S
C130 C129 1.374 . S
C130 C131 1.383 . S
C131 O125 1.412 1_545 S
C131 C130 1.383 . S
C131 C132 1.394 . S
C132 H122 0.929 . S
C132 C128 1.377 . S
C132 C131 1.394 . S
H133 C140 0.929 . S
H134 C143 0.930 . S
H135 C145 0.929 . S
H136 C137 0.969 . S
C137 H136 0.969 . S
C137 O138 1.550 . S
C137 H139 0.973 . S
O138 C137 1.550 . S
O138 C144 1.412 . S
H139 C137 0.973 . S
C140 H133 0.929 . S
C140 C141 1.400 . S
C140 C142 1.364 . S
C141 C140 1.400 . S
C141 C145 1.377 . S
C142 C140 1.364 . S
C142 C143 1.374 . S
C143 H134 0.930 . S
C143 C142 1.374 . S
C143 C144 1.383 . S
C144 O138 1.412 . S
C144 C143 1.383 . S
C144 C145 1.394 . S
C145 H135 0.929 . S
C145 C141 1.377 . S
C145 C144 1.394 . S
H146 C153 0.929 . S
H147 C156 0.930 . S
H148 C158 0.929 . S
H149 C150 0.969 . S
C150 H149 0.969 . S
C150 O151 1.550 . S
C150 H152 0.973 . S
O151 C150 1.550 . S
O151 C157 1.412 . S
H152 C150 0.973 . S
C153 H146 0.929 . S
C153 C154 1.400 . S
C153 C155 1.364 . S
C154 C153 1.400 . S
C154 C158 1.377 . S
C155 C153 1.364 . S
C155 C156 1.374 . S
C156 H147 0.930 . S
C156 C155 1.374 . S
C156 C157 1.383 . S
C157 O151 1.412 . S
C157 C156 1.383 . S
C157 C158 1.394 . S
C158 H148 0.929 . S
C158 C154 1.377 . S
C158 C157 1.394 . S
H159 C166 0.929 . S
H160 C169 0.930 . S
H161 C171 0.929 . S
H162 C163 0.969 . S
C163 H162 0.969 . S
C163 O164 1.550 . S
C163 H165 0.973 . S
O164 C163 1.550 . S
O164 C170 1.412 . S
H165 C163 0.973 . S
C166 H159 0.929 . S
C166 C167 1.400 . S
C166 C168 1.364 . S
C167 C166 1.400 . S
C167 C171 1.377 . S
C168 C166 1.364 . S
C168 C169 1.374 . S
C169 H160 0.930 . S
C169 C168 1.374 . S
C169 C170 1.383 . S
C170 O164 1.412 . S
C170 C169 1.383 . S
C170 C171 1.394 . S
C171 H161 0.929 . S
C171 C167 1.377 . S
C171 C170 1.394 . S
H172 C179 0.945 . S
H173 C182 0.930 . S
H174 C184 0.929 . S
H175 C176 0.969 . S
C176 H175 0.969 . S
C176 O177 1.550 . S
C176 H178 0.973 . S
O177 C176 1.550 . S
O177 C183 1.412 . S
H178 C176 0.973 . S
C179 H172 0.945 . S
C179 C180 1.401 . S
C179 C181 1.346 1_565 S
C180 C179 1.401 . S
C180 C184 1.377 1_565 S
C181 C179 1.346 1_545 S
C181 C182 1.374 . S
C182 H173 0.930 . S
C182 C181 1.374 . S
C182 C183 1.383 . S
C183 O177 1.412 . S
C183 C182 1.383 . S
C183 C184 1.394 . S
C184 H174 0.929 . S
C184 C180 1.377 1_545 S
C184 C183 1.394 . S
H185 C192 0.929 . S
H186 C195 0.930 . S
H187 C197 0.929 . S
H188 C189 0.969 . S
C189 H188 0.969 . S
C189 O190 1.550 . S
C189 H191 0.973 . S
O190 C189 1.550 . S
O190 C196 1.412 . S
H191 C189 0.973 . S
C192 H185 0.929 . S
C192 C193 1.400 . S
C192 C194 1.364 . S
C193 C192 1.400 . S
C193 C197 1.377 . S
C194 C192 1.364 . S
C194 C195 1.374 . S
C195 H186 0.930 . S
C195 C194 1.374 . S
C195 C196 1.383 . S
C196 O190 1.412 . S
C196 C195 1.383 . S
C196 C197 1.394 . S
C197 H187 0.929 . S
C197 C193 1.377 . S
C197 C196 1.394 . S
H198 C210 0.930 . S
H199 C212 0.930 . S
H200 C213 0.930 . S
H201 C217 0.959 . S
H202 C217 0.959 . S
H203 C217 0.961 . S
H204 C218 0.960 . S
H205 C218 0.961 . S
H206 C218 0.959 . S
H207 C221 0.929 . S
H208 C222 0.931 . S
H209 C224 0.930 . S
C210 H198 0.930 . S
C210 C211 1.399 . S
C210 C215 1.399 . S
C211 C210 1.399 . S
C211 C212 1.376 . S
C212 H199 0.930 . S
C212 C211 1.376 . S
C212 C213 1.388 . S
C213 H200 0.930 . S
C213 C212 1.388 . S
C213 C214 1.390 . S
C214 C213 1.390 . S
C214 C215 1.394 . S
C214 C220 1.465 . S
C215 C210 1.399 . S
C215 C214 1.394 . S
C215 C216 1.516 . S
C216 C215 1.516 . S
C216 C217 1.502 . S
C216 C218 1.561 . S
C216 C219 1.526 . S
C217 H201 0.959 . S
C217 H202 0.959 . S
C217 H203 0.961 . S
C217 C216 1.502 . S
C218 H204 0.960 . S
C218 H205 0.961 . S
C218 H206 0.959 . S
C218 C216 1.561 . S
C219 C216 1.526 . S
C219 C220 1.396 . S
C219 C224 1.390 . S
C220 C214 1.465 . S
C220 C219 1.396 . S
C220 C221 1.399 . S
C221 H207 0.929 . S
C221 C220 1.399 . S
C221 C222 1.385 . S
C222 H208 0.931 . S
C222 C221 1.385 . S
C222 C223 1.389 . S
C223 C222 1.389 . S
C223 C224 1.387 . S
C224 H209 0.930 . S
C224 C219 1.390 . S
C224 C223 1.387 . S
H225 C237 0.930 . S
H226 C239 0.930 . S
H227 C240 0.930 . S
H228 C244 0.959 . S
H229 C244 0.959 . S
H230 C244 0.961 . S
H231 C245 0.960 . S
H232 C245 0.961 . S
H233 C245 0.959 . S
H234 C248 0.929 . S
H235 C249 0.931 . S
H236 C251 0.930 . S
C237 H225 0.930 . S
C237 C238 1.399 . S
C237 C242 1.399 . S
C238 C237 1.399 . S
C238 C239 1.376 . S
C239 H226 0.930 . S
C239 C238 1.376 . S
C239 C240 1.388 . S
C240 H227 0.930 . S
C240 C239 1.388 . S
C240 C241 1.390 . S
C241 C240 1.390 . S
C241 C242 1.394 . S
C241 C247 1.465 . S
C242 C237 1.399 . S
C242 C241 1.394 . S
C242 C243 1.516 . S
C243 C242 1.516 . S
C243 C244 1.502 . S
C243 C245 1.561 . S
C243 C246 1.526 . S
C244 H228 0.959 . S
C244 H229 0.959 . S
C244 H230 0.961 . S
C244 C243 1.502 . S
C245 H231 0.960 . S
C245 H232 0.961 . S
C245 H233 0.959 . S
C245 C243 1.561 . S
C246 C243 1.526 . S
C246 C247 1.396 . S
C246 C251 1.390 . S
C247 C241 1.465 . S
C247 C246 1.396 . S
C247 C248 1.399 . S
C248 H234 0.929 . S
C248 C247 1.399 . S
C248 C249 1.385 . S
C249 H235 0.931 . S
C249 C248 1.385 . S
C249 C250 1.389 . S
C250 C249 1.389 . S
C250 C251 1.387 . S
C251 H236 0.930 . S
C251 C246 1.390 . S
C251 C250 1.387 . S
H252 C264 0.930 . S
H253 C266 0.930 . S
H254 C267 0.930 . S
H255 C271 0.959 . S
H256 C271 0.959 . S
H257 C271 0.961 . S
H258 C272 0.960 . S
H259 C272 0.961 . S
H260 C272 0.959 . S
H261 C275 0.929 . S
H262 C276 0.931 . S
H263 C278 0.930 . S
C264 H252 0.930 . S
C264 C265 1.399 . S
C264 C269 1.399 . S
C265 C264 1.399 . S
C265 C266 1.376 . S
C266 H253 0.930 . S
C266 C265 1.376 . S
C266 C267 1.388 . S
C267 H254 0.930 . S
C267 C266 1.388 . S
C267 C268 1.390 . S
C268 C267 1.390 . S
C268 C269 1.394 . S
C268 C274 1.465 . S
C269 C264 1.399 . S
C269 C268 1.394 . S
C269 C270 1.516 . S
C270 C269 1.516 . S
C270 C271 1.502 . S
C270 C272 1.561 . S
C270 C273 1.526 . S
C271 H255 0.959 . S
C271 H256 0.959 . S
C271 H257 0.961 . S
C271 C270 1.502 . S
C272 H258 0.960 . S
C272 H259 0.961 . S
C272 H260 0.959 . S
C272 C270 1.561 . S
C273 C270 1.526 . S
C273 C274 1.396 . S
C273 C278 1.390 . S
C274 C268 1.465 . S
C274 C273 1.396 . S
C274 C275 1.399 . S
C275 H261 0.929 . S
C275 C274 1.399 . S
C275 C276 1.385 . S
C276 H262 0.931 . S
C276 C275 1.385 . S
C276 C277 1.389 . S
C277 C276 1.389 . S
C277 C278 1.387 . S
C278 H263 0.930 . S
C278 C273 1.390 . S
C278 C277 1.387 . S
H279 C291 0.930 . S
H280 C293 0.930 . S
H281 C294 0.930 . S
H282 C298 0.959 . S
H283 C298 0.959 . S
H284 C298 0.961 . S
H285 C299 0.960 . S
H286 C299 0.961 . S
H287 C299 0.959 . S
H288 C302 0.929 . S
H289 C303 0.931 . S
H290 C305 0.930 . S
C291 H279 0.930 . S
C291 C292 1.399 . S
C291 C296 1.399 . S
C292 C291 1.399 . S
C292 C293 1.376 . S
C293 H280 0.930 . S
C293 C292 1.376 . S
C293 C294 1.388 . S
C294 H281 0.930 . S
C294 C293 1.388 . S
C294 C295 1.390 . S
C295 C294 1.390 . S
C295 C296 1.394 . S
C295 C301 1.465 . S
C296 C291 1.399 . S
C296 C295 1.394 . S
C296 C297 1.516 . S
C297 C296 1.516 . S
C297 C298 1.502 . S
C297 C299 1.561 . S
C297 C300 1.526 . S
C298 H282 0.959 . S
C298 H283 0.959 . S
C298 H284 0.961 . S
C298 C297 1.502 . S
C299 H285 0.960 . S
C299 H286 0.961 . S
C299 H287 0.959 . S
C299 C297 1.561 . S
C300 C297 1.526 . S
C300 C301 1.396 . S
C300 C305 1.390 . S
C301 C295 1.465 . S
C301 C300 1.396 . S
C301 C302 1.399 . S
C302 H288 0.929 . S
C302 C301 1.399 . S
C302 C303 1.385 . S
C303 H289 0.931 . S
C303 C302 1.385 . S
C303 C304 1.389 . S
C304 C303 1.389 . S
C304 C305 1.387 . S
C305 H290 0.930 . S
C305 C300 1.390 . S
C305 C304 1.387 . S
H306 C318 0.930 . S
H307 C320 0.930 . S
H308 C321 0.930 . S
H309 C325 0.959 . S
H310 C325 0.959 . S
H311 C325 0.961 . S
H312 C326 0.960 . S
H313 C326 0.961 . S
H314 C326 0.959 . S
H315 C329 0.929 . S
H316 C330 0.931 . S
H317 C332 0.930 . S
C318 H306 0.930 . S
C318 C319 1.399 . S
C318 C323 1.399 . S
C319 C318 1.399 . S
C319 C320 1.376 . S
C320 H307 0.930 . S
C320 C319 1.376 . S
C320 C321 1.388 . S
C321 H308 0.930 . S
C321 C320 1.388 . S
C321 C322 1.390 . S
C322 C321 1.390 . S
C322 C323 1.394 . S
C322 C328 1.465 . S
C323 C318 1.399 . S
C323 C322 1.394 . S
C323 C324 1.516 . S
C324 C323 1.516 . S
C324 C325 1.502 . S
C324 C326 1.561 . S
C324 C327 1.526 . S
C325 H309 0.959 . S
C325 H310 0.959 . S
C325 H311 0.961 . S
C325 C324 1.502 . S
C326 H312 0.960 . S
C326 H313 0.961 . S
C326 H314 0.959 . S
C326 C324 1.561 . S
C327 C324 1.526 . S
C327 C328 1.396 . S
C327 C332 1.390 . S
C328 C322 1.465 . S
C328 C327 1.396 . S
C328 C329 1.399 . S
C329 H315 0.929 . S
C329 C328 1.399 . S
C329 C330 1.385 . S
C330 H316 0.931 . S
C330 C329 1.385 . S
C330 C331 1.389 . S
C331 C330 1.389 . S
C331 C332 1.387 . S
C332 H317 0.930 . S
C332 C327 1.390 . S
C332 C331 1.387 . S
H333 C345 0.930 . S
H334 C347 0.930 . S
H335 C348 0.930 . S
H336 C352 0.959 . S
H337 C352 0.959 . S
H338 C352 0.961 . S
H339 C353 0.960 . S
H340 C353 0.961 . S
H341 C353 0.959 . S
H342 C356 0.929 . S
H343 C357 0.931 . S
H344 C359 0.930 . S
C345 H333 0.930 . S
C345 C346 1.399 . S
C345 C350 1.399 . S
C346 C345 1.399 . S
C346 C347 1.376 . S
C347 H334 0.930 . S
C347 C346 1.376 . S
C347 C348 1.388 . S
C348 H335 0.930 . S
C348 C347 1.388 . S
C348 C349 1.390 . S
C349 C348 1.390 . S
C349 C350 1.394 . S
C349 C355 1.465 . S
C350 C345 1.399 . S
C350 C349 1.394 . S
C350 C351 1.516 . S
C351 C350 1.516 . S
C351 C352 1.502 . S
C351 C353 1.561 . S
C351 C354 1.526 . S
C352 H336 0.959 . S
C352 H337 0.959 . S
C352 H338 0.961 . S
C352 C351 1.502 . S
C353 H339 0.960 . S
C353 H340 0.961 . S
C353 H341 0.959 . S
C353 C351 1.561 . S
C354 C351 1.526 . S
C354 C355 1.396 . S
C354 C359 1.390 . S
C355 C349 1.465 . S
C355 C354 1.396 . S
C355 C356 1.399 . S
C356 H342 0.929 . S
C356 C355 1.399 . S
C356 C357 1.385 . S
C357 H343 0.931 . S
C357 C356 1.385 . S
C357 C358 1.389 . S
C358 C357 1.389 . S
C358 C359 1.387 . S
C359 H344 0.930 . S
C359 C354 1.390 . S
C359 C358 1.387 . S
H360 C372 0.930 . S
H361 C374 0.930 . S
H362 C375 0.930 . S
H363 C379 0.959 . S
H364 C379 0.959 . S
H365 C379 0.961 . S
H366 C380 0.960 . S
H367 C380 0.961 . S
H368 C380 0.959 . S
H369 C383 0.929 . S
H370 C384 0.931 . S
H371 C386 0.930 . S
C372 H360 0.930 . S
C372 C373 1.399 . S
C372 C377 1.399 . S
C373 C372 1.399 . S
C373 C374 1.376 . S
C374 H361 0.930 . S
C374 C373 1.376 . S
C374 C375 1.388 . S
C375 H362 0.930 . S
C375 C374 1.388 . S
C375 C376 1.390 . S
C376 C375 1.390 . S
C376 C377 1.394 . S
C376 C382 1.465 . S
C377 C372 1.399 . S
C377 C376 1.394 . S
C377 C378 1.516 . S
C378 C377 1.516 . S
C378 C379 1.502 . S
C378 C380 1.561 . S
C378 C381 1.526 . S
C379 H363 0.959 . S
C379 H364 0.959 . S
C379 H365 0.961 . S
C379 C378 1.502 . S
C380 H366 0.960 . S
C380 H367 0.961 . S
C380 H368 0.959 . S
C380 C378 1.561 . S
C381 C378 1.526 . S
C381 C382 1.396 . S
C381 C386 1.390 . S
C382 C376 1.465 . S
C382 C381 1.396 . S
C382 C383 1.399 . S
C383 H369 0.929 . S
C383 C382 1.399 . S
C383 C384 1.385 . S
C384 H370 0.931 . S
C384 C383 1.385 . S
C384 C385 1.389 . S
C385 C384 1.389 . S
C385 C386 1.387 . S
C386 H371 0.930 . S
C386 C381 1.390 . S
C386 C385 1.387 . S
H387 C399 0.930 . S
H388 C401 0.930 . S
H389 C402 0.930 . S
H390 C406 0.959 . S
H391 C406 0.959 . S
H392 C406 0.961 . S
H393 C407 0.960 . S
H394 C407 0.961 . S
H395 C407 0.959 . S
H396 C410 0.929 . S
H397 C411 0.931 . S
H398 C413 0.930 . S
C399 H387 0.930 . S
C399 C400 1.399 . S
C399 C404 1.399 . S
C400 C399 1.399 . S
C400 C401 1.376 . S
C401 H388 0.930 . S
C401 C400 1.376 . S
C401 C402 1.388 . S
C402 H389 0.930 . S
C402 C401 1.388 . S
C402 C403 1.390 . S
C403 C402 1.390 . S
C403 C404 1.394 . S
C403 C409 1.465 . S
C404 C399 1.399 . S
C404 C403 1.394 . S
C404 C405 1.516 . S
C405 C404 1.516 . S
C405 C406 1.502 . S
C405 C407 1.561 . S
C405 C408 1.526 . S
C406 H390 0.959 . S
C406 H391 0.959 . S
C406 H392 0.961 . S
C406 C405 1.502 . S
C407 H393 0.960 . S
C407 H394 0.961 . S
C407 H395 0.959 . S
C407 C405 1.561 . S
C408 C405 1.526 . S
C408 C409 1.396 . S
C408 C413 1.390 . S
C409 C403 1.465 . S
C409 C408 1.396 . S
C409 C410 1.399 1_655 S
C410 H396 0.929 . S
C410 C409 1.399 1_455 S
C410 C411 1.385 . S
C411 H397 0.931 . S
C411 C410 1.385 . S
C411 C412 1.389 . S
C412 C411 1.389 . S
C412 C413 1.387 1_455 S
C413 H398 0.930 . S
C413 C408 1.390 . S
C413 C412 1.387 1_655 S
H414 C426 0.930 . S
H415 C428 0.930 . S
H416 C429 0.930 . S
H417 C433 0.959 . S
H418 C433 0.959 . S
H419 C433 0.961 . S
H420 C434 0.960 . S
H421 C434 0.961 . S
H422 C434 0.959 . S
H423 C437 0.929 . S
H424 C438 0.931 . S
H425 C440 0.930 . S
C426 H414 0.930 . S
C426 C427 1.399 . S
C426 C431 1.399 . S
C427 C426 1.399 . S
C427 C428 1.376 . S
C428 H415 0.930 . S
C428 C427 1.376 . S
C428 C429 1.388 . S
C429 H416 0.930 . S
C429 C428 1.388 . S
C429 C430 1.390 . S
C430 C429 1.390 . S
C430 C431 1.394 . S
C430 C436 1.465 . S
C431 C426 1.399 . S
C431 C430 1.394 . S
C431 C432 1.516 . S
C432 C431 1.516 . S
C432 C433 1.502 . S
C432 C434 1.561 . S
C432 C435 1.526 . S
C433 H417 0.959 . S
C433 H418 0.959 . S
C433 H419 0.961 . S
C433 C432 1.502 . S
C434 H420 0.960 . S
C434 H421 0.961 . S
C434 H422 0.959 . S
C434 C432 1.561 . S
C435 C432 1.526 . S
C435 C436 1.396 . S
C435 C440 1.390 . S
C436 C430 1.465 . S
C436 C435 1.396 . S
C436 C437 1.399 . S
C437 H423 0.929 . S
C437 C436 1.399 . S
C437 C438 1.385 . S
C438 H424 0.931 . S
C438 C437 1.385 . S
C438 C439 1.389 . S
C439 C438 1.389 . S
C439 C440 1.387 . S
C440 H425 0.930 . S
C440 C435 1.390 . S
C440 C439 1.387 . S
H441 C453 0.930 . S
H442 C455 0.930 . S
H443 C456 0.930 . S
H444 C460 0.959 . S
H445 C460 0.959 . S
H446 C460 0.961 . S
H447 C461 0.960 . S
H448 C461 0.961 . S
H449 C461 0.959 . S
H450 C464 0.929 . S
H451 C465 0.931 . S
H452 C467 0.930 . S
C453 H441 0.930 . S
C453 C454 1.399 . S
C453 C458 1.399 . S
C454 C453 1.399 . S
C454 C455 1.376 . S
C455 H442 0.930 . S
C455 C454 1.376 . S
C455 C456 1.388 . S
C456 H443 0.930 . S
C456 C455 1.388 . S
C456 C457 1.390 . S
C457 C456 1.390 . S
C457 C458 1.394 . S
C457 C463 1.465 . S
C458 C453 1.399 . S
C458 C457 1.394 . S
C458 C459 1.516 . S
C459 C458 1.516 . S
C459 C460 1.502 . S
C459 C461 1.561 . S
C459 C462 1.526 . S
C460 H444 0.959 . S
C460 H445 0.959 . S
C460 H446 0.961 . S
C460 C459 1.502 . S
C461 H447 0.960 . S
C461 H448 0.961 . S
C461 H449 0.959 . S
C461 C459 1.561 . S
C462 C459 1.526 . S
C462 C463 1.396 . S
C462 C467 1.390 . S
C463 C457 1.465 . S
C463 C462 1.396 . S
C463 C464 1.399 . S
C464 H450 0.929 . S
C464 C463 1.399 . S
C464 C465 1.385 . S
C465 H451 0.931 . S
C465 C464 1.385 . S
C465 C466 1.389 . S
C466 C465 1.389 . S
C466 C467 1.387 . S
C467 H452 0.930 . S
C467 C462 1.390 . S
C467 C466 1.387 . S
H468 C480 0.930 . S
H469 C482 0.930 . S
H470 C483 0.930 . S
H471 C487 0.959 . S
H472 C487 0.959 . S
H473 C487 0.961 . S
H474 C488 0.960 . S
H475 C488 0.961 . S
H476 C488 0.959 . S
H477 C491 0.929 . S
H478 C492 0.931 . S
H479 C494 0.930 . S
C480 H468 0.930 . S
C480 C481 1.399 . S
C480 C485 1.399 . S
C481 C480 1.399 . S
C481 C482 1.376 . S
C482 H469 0.930 . S
C482 C481 1.376 . S
C482 C483 1.388 . S
C483 H470 0.930 . S
C483 C482 1.388 . S
C483 C484 1.390 . S
C484 C483 1.390 . S
C484 C485 1.394 . S
C484 C490 1.465 . S
C485 C480 1.399 . S
C485 C484 1.394 . S
C485 C486 1.516 . S
C486 C485 1.516 . S
C486 C487 1.502 . S
C486 C488 1.561 . S
C486 C489 1.526 . S
C487 H471 0.959 . S
C487 H472 0.959 . S
C487 H473 0.961 . S
C487 C486 1.502 . S
C488 H474 0.960 . S
C488 H475 0.961 . S
C488 H476 0.959 . S
C488 C486 1.561 . S
C489 C486 1.526 . S
C489 C490 1.396 . S
C489 C494 1.390 . S
C490 C484 1.465 . S
C490 C489 1.396 . S
C490 C491 1.399 . S
C491 H477 0.929 . S
C491 C490 1.399 . S
C491 C492 1.385 . S
C492 H478 0.931 . S
C492 C491 1.385 . S
C492 C493 1.389 . S
C493 C492 1.389 . S
C493 C494 1.387 . S
C494 H479 0.930 . S
C494 C489 1.390 . S
C494 C493 1.387 . S
H495 C507 0.930 . S
H496 C509 0.930 . S
H497 C510 0.930 . S
H498 C514 0.959 . S
H499 C514 0.959 . S
H500 C514 0.961 . S
H501 C515 0.960 . S
H502 C515 0.961 . S
H503 C515 0.959 . S
H504 C518 0.929 . S
H505 C519 0.931 . S
H506 C521 0.930 . S
C507 H495 0.930 . S
C507 C508 1.399 . S
C507 C512 1.399 . S
C508 C507 1.399 . S
C508 C509 1.376 . S
C509 H496 0.930 . S
C509 C508 1.376 . S
C509 C510 1.388 . S
C510 H497 0.930 . S
C510 C509 1.388 . S
C510 C511 1.390 . S
C511 C510 1.390 . S
C511 C512 1.394 . S
C511 C517 1.465 . S
C512 C507 1.399 . S
C512 C511 1.394 . S
C512 C513 1.516 . S
C513 C512 1.516 . S
C513 C514 1.502 . S
C513 C515 1.561 . S
C513 C516 1.526 . S
C514 H498 0.959 . S
C514 H499 0.959 . S
C514 H500 0.961 . S
C514 C513 1.502 . S
C515 H501 0.960 . S
C515 H502 0.961 . S
C515 H503 0.959 . S
C515 C513 1.561 . S
C516 C513 1.526 . S
C516 C517 1.396 . S
C516 C521 1.390 . S
C517 C511 1.465 . S
C517 C516 1.396 . S
C517 C518 1.399 . S
C518 H504 0.929 . S
C518 C517 1.399 . S
C518 C519 1.385 . S
C519 H505 0.931 . S
C519 C518 1.385 . S
C519 C520 1.389 . S
C520 C519 1.389 . S
C520 C521 1.387 . S
C521 H506 0.930 . S
C521 C516 1.390 . S
C521 C520 1.387 . S
H522 C534 0.930 . S
H523 C536 0.929 . S
H524 C537 0.930 . S
H525 C541 0.959 . S
H526 C541 0.959 . S
H527 C541 0.961 . S
H528 C542 0.960 . S
H529 C542 0.961 . S
H530 C542 0.959 . S
H531 C545 0.929 . S
H532 C546 0.931 . S
H533 C548 0.930 . S
C534 H522 0.930 . S
C534 C535 1.399 . S
C534 C539 1.399 . S
C535 C534 1.399 . S
C535 C536 1.376 . S
C536 H523 0.929 . S
C536 C535 1.376 . S
C536 C537 1.388 . S
C537 H524 0.930 . S
C537 C536 1.388 . S
C537 C538 1.390 . S
C538 C537 1.390 . S
C538 C539 1.394 . S
C538 C544 1.465 . S
C539 C534 1.399 . S
C539 C538 1.394 . S
C539 C540 1.516 . S
C540 C539 1.516 . S
C540 C541 1.502 . S
C540 C542 1.561 . S
C540 C543 1.526 1_554 S
C541 H525 0.959 . S
C541 H526 0.959 . S
C541 H527 0.961 . S
C541 C540 1.502 . S
C542 H528 0.960 . S
C542 H529 0.961 . S
C542 H530 0.959 . S
C542 C540 1.561 . S
C543 C540 1.526 1_556 S
C543 C544 1.396 1_556 S
C543 C548 1.390 . S
C544 C538 1.465 . S
C544 C543 1.396 1_554 S
C544 C545 1.399 1_554 S
C545 H531 0.929 . S
C545 C544 1.399 1_556 S
C545 C546 1.385 . S
C546 H532 0.931 . S
C546 C545 1.385 . S
C546 C547 1.389 . S
C547 C546 1.389 . S
C547 C548 1.387 . S
C548 H533 0.930 . S
C548 C543 1.390 . S
C548 C547 1.387 . S
H549 C561 0.930 . S
H550 C563 0.930 . S
H551 C564 0.930 . S
H552 C568 0.959 . S
H553 C568 0.959 . S
H554 C568 0.961 . S
H555 C569 0.960 . S
H556 C569 0.961 . S
H557 C569 0.959 . S
H558 C572 0.929 . S
H559 C573 0.931 . S
H560 C575 0.930 . S
C561 H549 0.930 . S
C561 C562 1.399 . S
C561 C566 1.399 . S
C562 C561 1.399 . S
C562 C563 1.376 1_545 S
C563 H550 0.930 . S
C563 C562 1.376 1_565 S
C563 C564 1.388 . S
C564 H551 0.930 . S
C564 C563 1.388 . S
C564 C565 1.390 1_565 S
C565 C564 1.390 1_545 S
C565 C566 1.394 . S
C565 C571 1.465 . S
C566 C561 1.399 . S
C566 C565 1.394 . S
C566 C567 1.516 . S
C567 C566 1.516 . S
C567 C568 1.502 . S
C567 C569 1.561 . S
C567 C570 1.526 . S
C568 H552 0.959 . S
C568 H553 0.959 . S
C568 H554 0.961 . S
C568 C567 1.502 . S
C569 H555 0.960 . S
C569 H556 0.961 . S
C569 H557 0.959 . S
C569 C567 1.561 . S
C570 C567 1.526 . S
C570 C571 1.396 . S
C570 C575 1.390 . S
C571 C565 1.465 . S
C571 C570 1.396 . S
C571 C572 1.399 1_545 S
C572 H558 0.929 . S
C572 C571 1.399 1_565 S
C572 C573 1.385 . S
C573 H559 0.931 . S
C573 C572 1.385 . S
C573 C574 1.389 1_565 S
C574 C573 1.389 1_545 S
C574 C575 1.387 . S
C575 H560 0.930 . S
C575 C570 1.390 . S
C575 C574 1.387 . S
H576 C588 0.930 . S
H577 C590 0.930 . S
H578 C591 0.930 . S
H579 C595 0.959 . S
H580 C595 0.959 . S
H581 C595 0.961 . S
H582 C596 0.960 . S
H583 C596 0.961 . S
H584 C596 0.959 . S
H585 C599 0.929 . S
H586 C600 0.931 . S
H587 C602 0.930 . S
C588 H576 0.930 . S
C588 C589 1.399 . S
C588 C593 1.399 . S
C589 C588 1.399 . S
C589 C590 1.376 . S
C590 H577 0.930 . S
C590 C589 1.376 . S
C590 C591 1.388 . S
C591 H578 0.930 . S
C591 C590 1.388 . S
C591 C592 1.390 . S
C592 C591 1.390 . S
C592 C593 1.394 . S
C592 C598 1.465 . S
C593 C588 1.399 . S
C593 C592 1.394 . S
C593 C594 1.516 . S
C594 C593 1.516 . S
C594 C595 1.502 . S
C594 C596 1.561 . S
C594 C597 1.526 . S
C595 H579 0.959 . S
C595 H580 0.959 . S
C595 H581 0.961 . S
C595 C594 1.502 . S
C596 H582 0.960 . S
C596 H583 0.961 . S
C596 H584 0.959 . S
C596 C594 1.561 . S
C597 C594 1.526 . S
C597 C598 1.396 . S
C597 C602 1.390 . S
C598 C592 1.465 . S
C598 C597 1.396 . S
C598 C599 1.399 . S
C599 H585 0.929 . S
C599 C598 1.399 . S
C599 C600 1.385 . S
C600 H586 0.931 . S
C600 C599 1.385 . S
C600 C601 1.389 . S
C601 C600 1.389 . S
C601 C602 1.387 . S
C602 H587 0.930 . S
C602 C597 1.390 . S
C602 C601 1.387 . S
H603 C615 0.930 . S
H604 C617 0.930 . S
H605 C618 0.930 . S
H606 C622 0.959 . S
H607 C622 0.959 . S
H608 C622 0.961 . S
H609 C623 0.960 . S
H610 C623 0.961 . S
H611 C623 0.959 . S
H612 C626 0.929 . S
H613 C627 0.931 . S
H614 C629 0.930 . S
C615 H603 0.930 . S
C615 C616 1.399 . S
C615 C620 1.399 . S
C616 C615 1.399 . S
C616 C617 1.376 1_545 S
C617 H604 0.930 . S
C617 C616 1.376 1_565 S
C617 C618 1.388 . S
C618 H605 0.930 . S
C618 C617 1.388 . S
C618 C619 1.390 1_565 S
C619 C618 1.390 1_545 S
C619 C620 1.394 . S
C619 C625 1.465 . S
C620 C615 1.399 . S
C620 C619 1.394 . S
C620 C621 1.516 . S
C621 C620 1.516 . S
C621 C622 1.502 . S
C621 C623 1.561 . S
C621 C624 1.526 . S
C622 H606 0.959 . S
C622 H607 0.959 . S
C622 H608 0.961 . S
C622 C621 1.502 . S
C623 H609 0.960 . S
C623 H610 0.961 . S
C623 H611 0.959 . S
C623 C621 1.561 . S
C624 C621 1.526 . S
C624 C625 1.396 . S
C624 C629 1.390 . S
C625 C619 1.465 . S
C625 C624 1.396 . S
C625 C626 1.399 1_545 S
C626 H612 0.929 . S
C626 C625 1.399 1_565 S
C626 C627 1.385 . S
C627 H613 0.931 . S
C627 C626 1.385 . S
C627 C628 1.389 1_565 S
C628 C627 1.389 1_545 S
C628 C629 1.387 . S
C629 H614 0.930 . S
C629 C624 1.390 . S
C629 C628 1.387 . S
H630 C642 0.930 . S
H631 C644 0.930 . S
H632 C645 0.930 . S
H633 C649 0.959 . S
H634 C649 0.959 . S
H635 C649 0.961 . S
H636 C650 0.960 . S
H637 C650 0.964 . S
H638 C650 0.959 . S
H639 C653 0.929 . S
H640 C654 0.931 . S
H641 C656 0.930 . S
C642 H630 0.930 . S
C642 C643 1.399 . S
C642 C647 1.399 . S
C643 C642 1.399 . S
C643 C644 1.376 . S
C644 H631 0.930 . S
C644 C643 1.376 . S
C644 C645 1.388 . S
C645 H632 0.930 . S
C645 C644 1.388 . S
C645 C646 1.390 . S
C646 C645 1.390 . S
C646 C647 1.394 . S
C646 C652 1.465 1_556 S
C647 C642 1.399 . S
C647 C646 1.394 . S
C647 C648 1.516 . S
C648 C647 1.516 . S
C648 C649 1.502 . S
C648 C650 1.561 . S
C648 C651 1.526 1_556 S
C649 H633 0.959 . S
C649 H634 0.959 . S
C649 H635 0.961 . S
C649 C648 1.502 . S
C650 H636 0.960 . S
C650 H637 0.964 . S
C650 H638 0.959 . S
C650 C648 1.561 . S
C651 C648 1.526 1_554 S
C651 C652 1.396 . S
C651 C656 1.390 . S
C652 C646 1.465 1_554 S
C652 C651 1.396 . S
C652 C653 1.399 . S
C653 H639 0.929 . S
C653 C652 1.399 . S
C653 C654 1.385 . S
C654 H640 0.931 . S
C654 C653 1.385 . S
C654 C655 1.389 . S
C655 C654 1.389 . S
C655 C656 1.387 . S
C656 H641 0.930 . S
C656 C651 1.390 . S
C656 C655 1.387 . S
H657 C669 0.930 . S
H658 C671 0.930 . S
H659 C672 0.930 . S
H660 C676 0.959 . S
H661 C676 0.959 . S
H662 C676 0.961 . S
H663 C677 0.960 1_655 S
H664 C677 0.959 1_655 S
H665 C677 0.959 . S
H666 C680 0.929 . S
H667 C681 0.931 . S
H668 C683 0.930 . S
C669 H657 0.930 . S
C669 C670 1.399 1_655 S
C669 C674 1.399 1_655 S
C670 C669 1.399 1_455 S
C670 C671 1.376 . S
C671 H658 0.930 . S
C671 C670 1.376 . S
C671 C672 1.388 . S
C672 H659 0.930 . S
C672 C671 1.388 . S
C672 C673 1.390 . S
C673 C672 1.390 . S
C673 C674 1.394 . S
C673 C679 1.465 . S
C674 C669 1.399 1_455 S
C674 C673 1.394 . S
C674 C675 1.514 1_455 S
C675 C674 1.514 1_655 S
C675 C676 1.528 . S
C675 C677 1.542 1_655 S
C675 C678 1.518 1_655 S
C676 H660 0.959 . S
C676 H661 0.959 . S
C676 H662 0.961 . S
C676 C675 1.528 . S
C677 H663 0.960 1_455 S
C677 H664 0.959 1_455 S
C677 H665 0.959 . S
C677 C675 1.542 1_455 S
C678 C675 1.518 1_455 S
C678 C679 1.396 . S
C678 C683 1.390 . S
C679 C673 1.465 . S
C679 C678 1.396 . S
C679 C680 1.399 . S
C680 H666 0.929 . S
C680 C679 1.399 . S
C680 C681 1.385 . S
C681 H667 0.931 . S
C681 C680 1.385 . S
C681 C682 1.389 . S
C682 C681 1.389 . S
C682 C683 1.387 . S
C683 H668 0.930 . S
C683 C678 1.390 . S
C683 C682 1.387 . S
C211 C12 3.012 . S
C223 C189 2.830 . S
C238 C52 2.883 . S
C250 C167 2.844 1_655 S
C265 C111 2.927 . S
C277 C180 2.898 . S
C292 C31 3.027 . S
C304 C193 2.969 . S
C331 C163 2.975 . S
C319 C71 3.165 . S
C358 C176 2.939 . S
C346 C92 3.124 . S
C373 C48 0.397 . S
C385 C141 0.352 . S
C400 C109 0.427 . S
C412 C154 0.298 . S
C427 C29 0.649 . S
C439 C124 0.614 . S
C466 C137 0.588 . S
C454 C69 0.591 . S
C493 C150 0.525 . S
C481 C88 0.466 . S
C508 C8 0.353 . S
C520 C128 0.318 . S
C547 C155 1.247 . S
C535 C17 1.186 . S
C562 C57 1.238 . S
C574 C129 1.271 . S
C589 C97 1.196 . S
C601 C142 1.221 . S
C628 C181 1.790 . S
C616 C42 1.692 . S
C655 C194 1.743 . S
C643 C82 1.707 . S
C670 C2 1.680 . S
C682 C168 1.788 . S
