# Generated by pormake.
# Topology ctn, (3,4)-cn, num edge types: 1
# Building blocks:
#     Node 0, Type 0, BuildingBlock: KAKCAD_clean_linker_0, # of connection points: 3
#     Node 1, Type 0, BuildingBlock: KAKCAD_clean_linker_0, # of connection points: 3
#     Node 2, Type 0, BuildingBlock: KAKCAD_clean_linker_0, # of connection points: 3
#     Node 3, Type 0, BuildingBlock: KAKCAD_clean_linker_0, # of connection points: 3
#     Node 4, Type 0, BuildingBlock: KAKCAD_clean_linker_0, # of connection points: 3
#     Node 5, Type 0, BuildingBlock: KAKCAD_clean_linker_0, # of connection points: 3
#     Node 6, Type 0, BuildingBlock: KAKCAD_clean_linker_0, # of connection points: 3
#     Node 7, Type 0, BuildingBlock: KAKCAD_clean_linker_0, # of connection points: 3
#     Node 8, Type 0, BuildingBlock: KAKCAD_clean_linker_0, # of connection points: 3
#     Node 9, Type 0, BuildingBlock: KAKCAD_clean_linker_0, # of connection points: 3
#     Node 10, Type 0, BuildingBlock: KAKCAD_clean_linker_0, # of connection points: 3
#     Node 11, Type 0, BuildingBlock: KAKCAD_clean_linker_0, # of connection points: 3
#     Node 12, Type 0, BuildingBlock: KAKCAD_clean_linker_0, # of connection points: 3
#     Node 13, Type 0, BuildingBlock: KAKCAD_clean_linker_0, # of connection points: 3
#     Node 14, Type 0, BuildingBlock: KAKCAD_clean_linker_0, # of connection points: 3
#     Node 15, Type 0, BuildingBlock: KAKCAD_clean_linker_0, # of connection points: 3
#     Node 16, Type 1, BuildingBlock: NAHDIM_clean_sbu_0, # of connection points: 4
#     Node 17, Type 1, BuildingBlock: NAHDIM_clean_sbu_0, # of connection points: 4
#     Node 18, Type 1, BuildingBlock: NAHDIM_clean_sbu_0, # of connection points: 4
#     Node 19, Type 1, BuildingBlock: NAHDIM_clean_sbu_0, # of connection points: 4
#     Node 20, Type 1, BuildingBlock: NAHDIM_clean_sbu_0, # of connection points: 4
#     Node 21, Type 1, BuildingBlock: NAHDIM_clean_sbu_0, # of connection points: 4
#     Node 22, Type 1, BuildingBlock: NAHDIM_clean_sbu_0, # of connection points: 4
#     Node 23, Type 1, BuildingBlock: NAHDIM_clean_sbu_0, # of connection points: 4
#     Node 24, Type 1, BuildingBlock: NAHDIM_clean_sbu_0, # of connection points: 4
#     Node 25, Type 1, BuildingBlock: NAHDIM_clean_sbu_0, # of connection points: 4
#     Node 26, Type 1, BuildingBlock: NAHDIM_clean_sbu_0, # of connection points: 4
#     Node 27, Type 1, BuildingBlock: NAHDIM_clean_sbu_0, # of connection points: 4
#     Edge 28, Type (0, 1), BuildingBlock: ZUJKAS_clean_linker_0, # of connection points: 2
#     Edge 29, Type (0, 1), BuildingBlock: ZUJKAS_clean_linker_0, # of connection points: 2
#     Edge 30, Type (0, 1), BuildingBlock: ZUJKAS_clean_linker_0, # of connection points: 2
#     Edge 31, Type (0, 1), BuildingBlock: ZUJKAS_clean_linker_0, # of connection points: 2
#     Edge 32, Type (0, 1), BuildingBlock: ZUJKAS_clean_linker_0, # of connection points: 2
#     Edge 33, Type (0, 1), BuildingBlock: ZUJKAS_clean_linker_0, # of connection points: 2
#     Edge 34, Type (0, 1), BuildingBlock: ZUJKAS_clean_linker_0, # of connection points: 2
#     Edge 35, Type (0, 1), BuildingBlock: ZUJKAS_clean_linker_0, # of connection points: 2
#     Edge 36, Type (0, 1), BuildingBlock: ZUJKAS_clean_linker_0, # of connection points: 2
#     Edge 37, Type (0, 1), BuildingBlock: ZUJKAS_clean_linker_0, # of connection points: 2
#     Edge 38, Type (0, 1), BuildingBlock: ZUJKAS_clean_linker_0, # of connection points: 2
#     Edge 39, Type (0, 1), BuildingBlock: ZUJKAS_clean_linker_0, # of connection points: 2
#     Edge 40, Type (0, 1), BuildingBlock: ZUJKAS_clean_linker_0, # of connection points: 2
#     Edge 41, Type (0, 1), BuildingBlock: ZUJKAS_clean_linker_0, # of connection points: 2
#     Edge 42, Type (0, 1), BuildingBlock: ZUJKAS_clean_linker_0, # of connection points: 2
#     Edge 43, Type (0, 1), BuildingBlock: ZUJKAS_clean_linker_0, # of connection points: 2
#     Edge 44, Type (0, 1), BuildingBlock: ZUJKAS_clean_linker_0, # of connection points: 2
#     Edge 45, Type (0, 1), BuildingBlock: ZUJKAS_clean_linker_0, # of connection points: 2
#     Edge 46, Type (0, 1), BuildingBlock: ZUJKAS_clean_linker_0, # of connection points: 2
#     Edge 47, Type (0, 1), BuildingBlock: ZUJKAS_clean_linker_0, # of connection points: 2
#     Edge 48, Type (0, 1), BuildingBlock: ZUJKAS_clean_linker_0, # of connection points: 2
#     Edge 49, Type (0, 1), BuildingBlock: ZUJKAS_clean_linker_0, # of connection points: 2
#     Edge 50, Type (0, 1), BuildingBlock: ZUJKAS_clean_linker_0, # of connection points: 2
#     Edge 51, Type (0, 1), BuildingBlock: ZUJKAS_clean_linker_0, # of connection points: 2
#     Edge 52, Type (0, 1), BuildingBlock: ZUJKAS_clean_linker_0, # of connection points: 2
#     Edge 53, Type (0, 1), BuildingBlock: ZUJKAS_clean_linker_0, # of connection points: 2
#     Edge 54, Type (0, 1), BuildingBlock: ZUJKAS_clean_linker_0, # of connection points: 2
#     Edge 55, Type (0, 1), BuildingBlock: ZUJKAS_clean_linker_0, # of connection points: 2
#     Edge 56, Type (0, 1), BuildingBlock: ZUJKAS_clean_linker_0, # of connection points: 2
#     Edge 57, Type (0, 1), BuildingBlock: ZUJKAS_clean_linker_0, # of connection points: 2
#     Edge 58, Type (0, 1), BuildingBlock: ZUJKAS_clean_linker_0, # of connection points: 2
#     Edge 59, Type (0, 1), BuildingBlock: ZUJKAS_clean_linker_0, # of connection points: 2
#     Edge 60, Type (0, 1), BuildingBlock: ZUJKAS_clean_linker_0, # of connection points: 2
#     Edge 61, Type (0, 1), BuildingBlock: ZUJKAS_clean_linker_0, # of connection points: 2
#     Edge 62, Type (0, 1), BuildingBlock: ZUJKAS_clean_linker_0, # of connection points: 2
#     Edge 63, Type (0, 1), BuildingBlock: ZUJKAS_clean_linker_0, # of connection points: 2
#     Edge 64, Type (0, 1), BuildingBlock: ZUJKAS_clean_linker_0, # of connection points: 2
#     Edge 65, Type (0, 1), BuildingBlock: ZUJKAS_clean_linker_0, # of connection points: 2
#     Edge 66, Type (0, 1), BuildingBlock: ZUJKAS_clean_linker_0, # of connection points: 2
#     Edge 67, Type (0, 1), BuildingBlock: ZUJKAS_clean_linker_0, # of connection points: 2
#     Edge 68, Type (0, 1), BuildingBlock: ZUJKAS_clean_linker_0, # of connection points: 2
#     Edge 69, Type (0, 1), BuildingBlock: ZUJKAS_clean_linker_0, # of connection points: 2
#     Edge 70, Type (0, 1), BuildingBlock: ZUJKAS_clean_linker_0, # of connection points: 2
#     Edge 71, Type (0, 1), BuildingBlock: ZUJKAS_clean_linker_0, # of connection points: 2
#     Edge 72, Type (0, 1), BuildingBlock: ZUJKAS_clean_linker_0, # of connection points: 2
#     Edge 73, Type (0, 1), BuildingBlock: ZUJKAS_clean_linker_0, # of connection points: 2
#     Edge 74, Type (0, 1), BuildingBlock: ZUJKAS_clean_linker_0, # of connection points: 2
#     Edge 75, Type (0, 1), BuildingBlock: ZUJKAS_clean_linker_0, # of connection points: 2
# Relax obj value: 0.001
# Max RMSD: 0.033
# Mean RMSD: 0.016
data_MOF--net-ctn--node1-NAHDIM_clean_sbu_0--node2-KAKCAD_clean_linker_0--edge1-ZUJKAS_clean_linker_0
_symmetry_space_group_name_H-M    P1
_symmetry_Int_Tables_number       1
_symmetry_cell_setting            triclinic
loop_
_symmetry_equiv_pos_as_xyz
'x, y, z'
_cell_length_a     84.388692
_cell_length_b     84.695254
_cell_length_c     83.844793
_cell_angle_alpha  91.153809
_cell_angle_beta   90.306597
_cell_angle_gamma 92.153933
loop_
_atom_site_label
_atom_site_type_symbol
_atom_site_fract_x
_atom_site_fract_y
_atom_site_fract_z
_atom_type_partial_charge
C0 C 0.03258 0.08126 0.99065 0.0
C1 C 0.02807 0.09618 0.99625 0.0
C2 C 0.035 0.06907 0.00128 0.0
C3 C 0.033 0.07152 0.01777 0.0
C4 C 0.02851 0.08645 0.02338 0.0
C5 C 0.02606 0.09862 0.01275 0.0
C6 C 0.03558 0.05854 0.02907 0.0
C7 C 0.0483 0.04847 0.02693 0.0
C8 C 0.0508 0.03612 0.03749 0.0
C9 C 0.04042 0.03394 0.05037 0.0
C10 C 0.02769 0.04392 0.05276 0.0
C11 C 0.02534 0.05617 0.04204 0.0
C12 C 0.01686 0.04159 0.06649 0.0
C13 C 0.01138 0.02634 0.07059 0.0
C14 C 0.01205 0.0546 0.07568 0.0
C15 C 0.00207 0.0524 0.08875 0.0
C16 C 0.99665 0.03714 0.09292 0.0
C17 C 0.0643 0.02557 0.0351 0.0
C18 C 0.06811 0.02 0.01974 0.0
C19 C 0.07347 0.021 0.04815 0.0
C20 C 0.08617 0.01109 0.04589 0.0
C21 C 0.09 0.00553 0.03052 0.0
C22 C 0.08081 0.01009 0.01748 0.0
C23 C 0.00137 0.02414 0.08365 0.0
H24 H 0.03441 0.07902 0.97805 0.0
H25 H 0.03829 0.05767 0.99654 0.0
H26 H 0.02704 0.08878 0.03602 0.0
H27 H 0.02242 0.10992 0.01745 0.0
H28 H 0.05652 0.0505 0.01723 0.0
H29 H 0.01529 0.06362 0.04359 0.0
H30 H 0.04226 0.02445 0.05858 0.0
H31 H 0.01468 0.0161 0.0636 0.0
H32 H 0.01625 0.06648 0.07294 0.0
H33 H 0.99886 0.06265 0.09578 0.0
H34 H 0.06118 0.02318 0.00946 0.0
H35 H 0.07095 0.02522 0.06011 0.0
H36 H 0.9972 0.01226 0.08637 0.0
H37 H 0.08354 0.00615 0.00547 0.0
H38 H 0.09291 0.00767 0.05621 0.0
C39 C 0.33181 0.73335 0.25047 0.0
C40 C 0.34058 0.72072 0.25591 0.0
C41 C 0.31916 0.73063 0.23982 0.0
C42 C 0.31499 0.71521 0.23439 0.0
C43 C 0.32375 0.70258 0.23984 0.0
C44 C 0.33641 0.7053 0.25047 0.0
C45 C 0.30155 0.71232 0.22307 0.0
C46 C 0.29946 0.72238 0.21017 0.0
C47 C 0.28676 0.71978 0.19943 0.0
C48 C 0.27611 0.70687 0.20166 0.0
C49 C 0.27795 0.6967 0.21453 0.0
C50 C 0.29071 0.69955 0.22518 0.0
C51 C 0.26644 0.68326 0.21702 0.0
C52 C 0.25011 0.68504 0.21457 0.0
C53 C 0.27168 0.66857 0.22199 0.0
C54 C 0.26085 0.65601 0.22457 0.0
C55 C 0.24452 0.6578 0.22216 0.0
C56 C 0.28455 0.73064 0.18598 0.0
C57 C 0.28641 0.74707 0.1884 0.0
C58 C 0.28048 0.72468 0.17067 0.0
C59 C 0.2783 0.73495 0.15807 0.0
C60 C 0.28009 0.75139 0.16051 0.0
C61 C 0.28418 0.75733 0.17582 0.0
C62 C 0.23929 0.67245 0.21708 0.0
H63 H 0.33482 0.74538 0.25431 0.0
H64 H 0.31255 0.74059 0.23596 0.0
H65 H 0.32092 0.69058 0.23577 0.0
H66 H 0.34284 0.6953 0.25456 0.0
H67 H 0.30796 0.73207 0.20828 0.0
H68 H 0.29198 0.69206 0.2354 0.0
H69 H 0.26631 0.70479 0.19339 0.0
H70 H 0.24564 0.69624 0.21093 0.0
H71 H 0.28419 0.66674 0.22382 0.0
H72 H 0.26529 0.64496 0.22866 0.0
H73 H 0.28939 0.75203 0.20009 0.0
H74 H 0.27911 0.71207 0.1684 0.0
H75 H 0.22682 0.6742 0.21491 0.0
H76 H 0.28582 0.76993 0.17805 0.0
H77 H 0.27501 0.73001 0.14645 0.0
C78 C 0.98788 0.481 0.09082 0.0
C79 C 0.00437 0.47936 0.08989 0.0
C80 C 0.97835 0.47912 0.07719 0.0
C81 C 0.98508 0.47557 0.0623 0.0
C82 C 0.00159 0.47409 0.06134 0.0
C83 C 0.01112 0.47595 0.07498 0.0
C84 C 0.97489 0.47312 0.04788 0.0
C85 C 0.96214 0.48293 0.04512 0.0
C86 C 0.95228 0.48047 0.03167 0.0
C87 C 0.95533 0.46807 0.02086 0.0
C88 C 0.96805 0.45817 0.02342 0.0
C89 C 0.97775 0.46079 0.03695 0.0
C90 C 0.97105 0.44482 0.01223 0.0
C91 C 0.95848 0.43486 0.00656 0.0
C92 C 0.98659 0.44166 0.00753 0.0
C93 C 0.98953 0.42868 0.99759 0.0
C94 C 0.977 0.41851 0.99217 0.0
C95 C 0.93873 0.49081 0.029 0.0
C96 C 0.92886 0.49501 0.04174 0.0
C97 C 0.93556 0.49658 0.01375 0.0
C98 C 0.92284 0.50638 0.01131 0.0
C99 C 0.91297 0.51056 0.02405 0.0
C100 C 0.91611 0.50475 0.03928 0.0
C101 C 0.96142 0.42184 0.99666 0.0
H102 H 0.98232 0.48381 0.10208 0.0
H103 H 0.96565 0.48018 0.07837 0.0
H104 H 0.00717 0.47153 0.05003 0.0
H105 H 0.02376 0.47446 0.07386 0.0
H106 H 0.96006 0.49269 0.05329 0.0
H107 H 0.98726 0.45287 0.03924 0.0
H108 H 0.94775 0.46606 0.01049 0.0
H109 H 0.94639 0.43688 0.01014 0.0
H110 H 0.9965 0.44927 0.01151 0.0
H111 H 0.00164 0.42663 0.99413 0.0
H112 H 0.93091 0.49064 0.0536 0.0
H113 H 0.94303 0.49365 0.00373 0.0
H114 H 0.95152 0.41413 0.99287 0.0
H115 H 0.90882 0.50788 0.04937 0.0
H116 H 0.92063 0.51054 -0.0006 0.0
C117 C 0.70084 0.76839 0.15547 0.0
C118 C 0.71634 0.76386 0.15207 0.0
C119 C 0.69802 0.77904 0.16798 0.0
C120 C 0.71063 0.78542 0.17737 0.0
C121 C 0.72613 0.78086 0.174 0.0
C122 C 0.72895 0.7702 0.1615 0.0
C123 C 0.70764 0.79686 0.19058 0.0
C124 C 0.69464 0.79446 0.20077 0.0
C125 C 0.69171 0.80524 0.21326 0.0
C126 C 0.70194 0.81857 0.2155 0.0
C127 C 0.715 0.82117 0.20544 0.0
C128 C 0.71776 0.81026 0.19303 0.0
C129 C 0.72573 0.83533 0.20785 0.0
C130 C 0.71951 0.85024 0.21092 0.0
C131 C 0.74226 0.83401 0.20707 0.0
C132 C 0.75236 0.84733 0.20935 0.0
C133 C 0.74615 0.86225 0.21238 0.0
C134 C 0.67803 0.80249 0.22405 0.0
C135 C 0.66314 0.79743 0.21786 0.0
C136 C 0.67978 0.80484 0.24061 0.0
C137 C 0.66693 0.80214 0.25077 0.0
C138 C 0.65204 0.79706 0.24459 0.0
C139 C 0.65028 0.79477 0.22801 0.0
C140 C 0.72961 0.86357 0.21312 0.0
H141 H 0.69085 0.76359 0.14854 0.0
H142 H 0.68596 0.78242 0.17017 0.0
H143 H 0.73608 0.78545 0.18112 0.0
H144 H 0.74105 0.76709 0.15909 0.0
H145 H 0.68702 0.78395 0.19922 0.0
H146 H 0.72759 0.81242 0.18499 0.0
H147 H 0.69975 0.82695 0.2251 0.0
H148 H 0.70682 0.85165 0.21144 0.0
H149 H 0.7474 0.82265 0.20485 0.0
H150 H 0.76504 0.84596 0.20856 0.0
H151 H 0.66138 0.79565 0.20513 0.0
H152 H 0.69114 0.80859 0.24576 0.0
H153 H 0.72447 0.87488 0.21559 0.0
H154 H 0.639 0.79072 0.22289 0.0
H155 H 0.66863 0.80415 0.26348 0.0
C156 C 0.98999 0.97752 0.42508 0.0
C157 C 0.99555 0.98143 0.40982 0.0
C158 C 0.00062 0.97525 0.43757 0.0
C159 C 0.01706 0.97686 0.43512 0.0
C160 C 0.02263 0.98077 0.41989 0.0
C161 C 0.012 0.98302 0.40737 0.0
C162 C 0.02833 0.97449 0.44844 0.0
C163 C 0.02586 0.96188 0.45889 0.0
C164 C 0.03636 0.95961 0.47162 0.0
C165 C 0.04945 0.97018 0.47388 0.0
C166 C 0.05214 0.98283 0.46352 0.0
C167 C 0.04155 0.98486 0.45081 0.0
C168 C 0.06591 0.99401 0.46606 0.0
C169 C 0.06959 0.00013 0.48139 0.0
C170 C 0.07542 0.9987 0.45316 0.0
C171 C 0.08837 0.00927 0.45555 0.0
C172 C 0.092 0.01546 0.47086 0.0
C173 C 0.03372 0.94609 0.48243 0.0
C174 C 0.0184 0.94199 0.48782 0.0
C175 C 0.04647 0.93706 0.48727 0.0
C176 C 0.04391 0.92412 0.49714 0.0
C177 C 0.02856 0.91992 0.5024 0.0
C178 C 0.01585 0.92906 0.49768 0.0
C179 C 0.08247 0.01079 0.48376 0.0
H180 H 0.97739 0.97647 0.42744 0.0
H181 H 0.99595 0.97247 0.44924 0.0
H182 H 0.03524 0.98188 0.41757 0.0
H183 H 0.01668 0.98578 0.39571 0.0
H184 H 0.01593 0.95358 0.45685 0.0
H185 H 0.04336 0.99482 0.44302 0.0
H186 H 0.05758 0.96857 0.48371 0.0
H187 H 0.06239 0.99682 0.49154 0.0
H188 H 0.07292 0.99409 0.44123 0.0
H189 H 0.09543 0.01276 0.44536 0.0
H190 H 0.00837 0.94887 0.48451 0.0
H191 H 0.05838 0.93977 0.48314 0.0
H192 H 0.08506 0.01526 0.49572 0.0
H193 H 0.00392 0.9263 0.50174 0.0
H194 H 0.05393 0.91719 0.50037 0.0
C195 C 0.15558 0.7112 0.75953 0.0
C196 C 0.15277 0.72669 0.75484 0.0
C197 C 0.1677 0.70831 0.77043 0.0
C198 C 0.17724 0.72086 0.77685 0.0
C199 C 0.17458 0.73632 0.77193 0.0
C200 C 0.16249 0.73919 0.76107 0.0
C201 C 0.18977 0.71797 0.78884 0.0
C202 C 0.19978 0.70518 0.78697 0.0
C203 C 0.21182 0.70261 0.79818 0.0
C204 C 0.21367 0.71298 0.81143 0.0
C205 C 0.20385 0.72587 0.81342 0.0
C206 C 0.19188 0.72821 0.80213 0.0
C207 C 0.20638 0.73719 0.82704 0.0
C208 C 0.20942 0.73178 0.84245 0.0
C209 C 0.20601 0.75354 0.82461 0.0
C210 C 0.20874 0.76426 0.83728 0.0
C211 C 0.21189 0.75888 0.85268 0.0
C212 C 0.22276 0.68938 0.79588 0.0
C213 C 0.21708 0.67449 0.79016 0.0
C214 C 0.23902 0.69159 0.7994 0.0
C215 C 0.24931 0.67918 0.79741 0.0
C216 C 0.24362 0.6643 0.79174 0.0
C217 C 0.22741 0.6621 0.78806 0.0
C218 C 0.21211 0.74252 0.85515 0.0
H219 H 0.1482 0.70133 0.75507 0.0
H220 H 0.16935 0.69629 0.7741 0.0
H221 H 0.18193 0.74621 0.77641 0.0
H222 H 0.16083 0.75123 0.75745 0.0
H223 H 0.19852 0.69753 0.77648 0.0
H224 H 0.18401 0.73792 0.80383 0.0
H225 H 0.22292 0.71113 0.82014 0.0
H226 H 0.20964 0.71925 0.84472 0.0
H227 H 0.20386 0.75808 0.81284 0.0
H228 H 0.20831 0.77678 0.83502 0.0
H229 H 0.2046 0.67233 0.78752 0.0
H230 H 0.24387 0.70298 0.80349 0.0
H231 H 0.21462 0.738 0.86686 0.0
H232 H 0.22268 0.6507 0.78381 0.0
H233 H 0.26179 0.68131 0.80009 0.0
C234 C 0.97589 0.59574 0.48945 0.0
C235 C 0.97293 0.59432 0.50585 0.0
C236 C 0.97374 0.58268 0.4791 0.0
C237 C 0.96863 0.56791 0.48493 0.0
C238 C 0.96577 0.56649 0.50135 0.0
C239 C 0.96787 0.57955 0.51168 0.0
C240 C 0.96622 0.55402 0.47393 0.0
C241 C 0.97702 0.55118 0.46161 0.0
C242 C 0.97482 0.53807 0.45118 0.0
C243 C 0.96167 0.52765 0.45331 0.0
C244 C 0.95078 0.53023 0.46563 0.0
C245 C 0.95311 0.54352 0.47579 0.0
C246 C 0.93701 0.51906 0.46799 0.0
C247 C 0.92841 0.51255 0.45486 0.0
C248 C 0.93234 0.51486 0.48346 0.0
C249 C 0.91931 0.50451 0.48575 0.0
C250 C 0.9107 0.49805 0.47264 0.0
C251 C 0.98632 0.53524 0.43813 0.0
C252 C 0.99273 0.54794 0.42938 0.0
C253 C 0.99099 0.51986 0.43431 0.0
C254 C 0.00176 0.51724 0.42202 0.0
C255 C 0.00819 0.52994 0.41335 0.0
C256 C 0.00358 0.54532 0.41717 0.0
C257 C 0.91543 0.50213 0.45717 0.0
H258 H 0.9796 0.60702 0.48456 0.0
H259 H 0.97583 0.58423 0.46648 0.0
H260 H 0.96208 0.55521 0.50627 0.0
H261 H 0.96574 0.57802 0.5243 0.0
H262 H 0.9874 0.55899 0.4604 0.0
H263 H 0.94449 0.54589 0.48499 0.0
H264 H 0.95992 0.51747 0.44537 0.0
H265 H 0.93155 0.51572 0.4428 0.0
H266 H 0.93886 0.51942 0.49382 0.0
H267 H 0.9161 0.5014 0.49781 0.0
H268 H 0.9892 0.55991 0.43182 0.0
H269 H 0.9865 0.50984 0.44097 0.0
H270 H 0.9089 0.49748 0.44684 0.0
H271 H 0.00817 0.55533 0.41054 0.0
H272 H 0.00526 0.50527 0.41948 0.0
C273 C 0.8025 0.75534 0.83496 0.0
C274 C 0.78724 0.75026 0.83973 0.0
C275 C 0.80447 0.76618 0.82272 0.0
C276 C 0.79123 0.77212 0.81491 0.0
C277 C 0.77597 0.76703 0.81971 0.0
C278 C 0.77399 0.75625 0.832 0.0
C279 C 0.79336 0.78355 0.80178 0.0
C280 C 0.80542 0.78166 0.79049 0.0
C281 C 0.80763 0.79242 0.77809 0.0
C282 C 0.79749 0.80515 0.77698 0.0
C283 C 0.7853 0.80719 0.7881 0.0
C284 C 0.78336 0.79636 0.80048 0.0
C285 C 0.77458 0.82063 0.78678 0.0
C286 C 0.78065 0.83581 0.78318 0.0
C287 C 0.75817 0.81833 0.78906 0.0
C288 C 0.74805 0.83092 0.78769 0.0
C289 C 0.75411 0.84611 0.78405 0.0
C290 C 0.8205 0.79031 0.7663 0.0
C291 C 0.8356 0.78589 0.77131 0.0
C292 C 0.81779 0.7926 0.74996 0.0
C293 C 0.82988 0.79044 0.73889 0.0
C294 C 0.84496 0.78596 0.7439 0.0
C295 C 0.84768 0.78374 0.76024 0.0
C296 C 0.77053 0.84841 0.78184 0.0
H297 H 0.81293 0.75111 0.84086 0.0
H298 H 0.81639 0.77005 0.81952 0.0
H299 H 0.76552 0.77118 0.81378 0.0
H300 H 0.76209 0.75239 0.83529 0.0
H301 H 0.81289 0.77156 0.79112 0.0
H302 H 0.77428 0.79815 0.80935 0.0
H303 H 0.79909 0.81348 0.76743 0.0
H304 H 0.79325 0.838 0.78151 0.0
H305 H 0.75311 0.80675 0.79171 0.0
H306 H 0.73548 0.82879 0.78962 0.0
H307 H 0.83812 0.78419 0.78383 0.0
H308 H 0.80625 0.79585 0.7457 0.0
H309 H 0.77555 0.85993 0.77887 0.0
H310 H 0.8591 0.78012 0.76449 0.0
H311 H 0.82744 0.79241 0.72641 0.0
C312 C 0.30164 0.25464 0.33552 0.0
C313 C 0.28636 0.24871 0.33928 0.0
C314 C 0.30382 0.26547 0.32329 0.0
C315 C 0.29077 0.27066 0.31463 0.0
C316 C 0.27549 0.26475 0.31841 0.0
C317 C 0.27332 0.25386 0.33058 0.0
C318 C 0.29308 0.28224 0.30171 0.0
C319 C 0.30538 0.28059 0.29065 0.0
C320 C 0.30766 0.29148 0.27837 0.0
C321 C 0.29748 0.30417 0.27729 0.0
C322 C 0.28508 0.30599 0.28822 0.0
C323 C 0.28297 0.29495 0.30038 0.0
C324 C 0.27433 0.3194 0.28692 0.0
C325 C 0.28042 0.33467 0.28369 0.0
C326 C 0.25788 0.317 0.28881 0.0
C327 C 0.24774 0.32958 0.28742 0.0
C328 C 0.25383 0.34484 0.28415 0.0
C329 C 0.32057 0.28949 0.26658 0.0
C330 C 0.33561 0.28481 0.27149 0.0
C331 C 0.31792 0.29218 0.2503 0.0
C332 C 0.33003 0.29024 0.23921 0.0
C333 C 0.34505 0.28551 0.24411 0.0
C334 C 0.3477 0.28282 0.26039 0.0
C335 C 0.27029 0.34725 0.28234 0.0
H336 H 0.31193 0.25079 0.34193 0.0
H337 H 0.31572 0.26991 0.32074 0.0
H338 H 0.26522 0.26843 0.31185 0.0
H339 H 0.26139 0.24962 0.3333 0.0
H340 H 0.31292 0.27054 0.29136 0.0
H341 H 0.27367 0.29648 0.30908 0.0
H342 H 0.29916 0.31265 0.26789 0.0
H343 H 0.29306 0.33692 0.28233 0.0
H344 H 0.25281 0.30535 0.29117 0.0
H345 H 0.23514 0.32737 0.28904 0.0
H346 H 0.33809 0.28279 0.28395 0.0
H347 H 0.30643 0.29562 0.24608 0.0
H348 H 0.27534 0.35883 0.27966 0.0
H349 H 0.35907 0.279 0.26455 0.0
H350 H 0.32763 0.29259 0.22679 0.0
C351 C 0.48618 0.97802 0.59223 0.0
C352 C 0.50262 0.97603 0.59145 0.0
C353 C 0.47665 0.97571 0.57865 0.0
C354 C 0.48336 0.9714 0.56395 0.0
C355 C 0.49981 0.96944 0.56316 0.0
C356 C 0.50933 0.97171 0.57676 0.0
C357 C 0.47324 0.96898 0.54947 0.0
C358 C 0.46097 0.97925 0.54631 0.0
C359 C 0.4514 0.9771 0.53261 0.0
C360 C 0.45428 0.96454 0.52194 0.0
C361 C 0.46649 0.95412 0.5249 0.0
C362 C 0.47585 0.95641 0.53873 0.0
C363 C 0.46948 0.9408 0.51363 0.0
C364 C 0.45681 0.93176 0.50674 0.0
C365 C 0.48508 0.93691 0.50982 0.0
C366 C 0.48796 0.92422 0.49949 0.0
C367 C 0.47531 0.91512 0.49266 0.0
C368 C 0.43847 0.98807 0.52947 0.0
C369 C 0.42851 0.99289 0.54189 0.0
C370 C 0.43609 0.99393 0.51411 0.0
C371 C 0.4241 0.00448 0.51127 0.0
C372 C 0.41418 0.00935 0.52371 0.0
C373 C 0.41649 0.00339 0.53904 0.0
C374 C 0.45969 0.91907 0.49637 0.0
H375 H 0.48063 0.98113 0.60343 0.0
H376 H 0.46399 0.97708 0.57971 0.0
H377 H 0.50538 0.96638 0.55197 0.0
H378 H 0.52199 0.97031 0.57572 0.0
H379 H 0.45912 0.9892 0.55432 0.0
H380 H 0.48498 0.94816 0.54134 0.0
H381 H 0.44699 0.96287 0.51132 0.0
H382 H 0.44466 0.93434 0.50954 0.0
H383 H 0.49511 0.94374 0.51478 0.0
H384 H 0.50013 0.9214 0.49704 0.0
H385 H 0.42995 0.98847 0.55382 0.0
H386 H 0.44366 0.99054 0.50432 0.0
H387 H 0.44967 0.91242 0.49118 0.0
H388 H 0.40915 0.00702 0.54891 0.0
H389 H 0.42252 0.00875 0.49929 0.0
C390 C 0.20116 0.26458 0.65578 0.0
C391 C 0.21665 0.25959 0.65323 0.0
C392 C 0.19798 0.27515 0.66827 0.0
C393 C 0.21026 0.28105 0.67836 0.0
C394 C 0.22573 0.27599 0.67586 0.0
C395 C 0.22889 0.26533 0.66346 0.0
C396 C 0.207 0.29263 0.69133 0.0
C397 C 0.19388 0.29028 0.70137 0.0
C398 C 0.19084 0.30115 0.71376 0.0
C399 C 0.20095 0.3146 0.71586 0.0
C400 C 0.21406 0.31717 0.70588 0.0
C401 C 0.21704 0.30608 0.6937 0.0
C402 C 0.22462 0.33145 0.70819 0.0
C403 C 0.2182 0.34633 0.71094 0.0
C404 C 0.24118 0.33029 0.70774 0.0
C405 C 0.25111 0.34372 0.71013 0.0
C406 C 0.24469 0.35859 0.71292 0.0
C407 C 0.17728 0.29838 0.72469 0.0
C408 C 0.16235 0.29313 0.71874 0.0
C409 C 0.17919 0.30102 0.7412 0.0
C410 C 0.16645 0.29855 0.75153 0.0
C411 C 0.15148 0.2934 0.74559 0.0
C412 C 0.14959 0.29068 0.72907 0.0
C413 C 0.22812 0.35975 0.71325 0.0
H414 H 0.19147 0.26025 0.64816 0.0
H415 H 0.18595 0.27893 0.66986 0.0
H416 H 0.23541 0.28025 0.68354 0.0
H417 H 0.24097 0.26179 0.6617 0.0
H418 H 0.18631 0.27972 0.69984 0.0
H419 H 0.22698 0.30814 0.68576 0.0
H420 H 0.19863 0.32309 0.72533 0.0
H421 H 0.20548 0.34761 0.7112 0.0
H422 H 0.24646 0.31897 0.70576 0.0
H423 H 0.26383 0.34247 0.70966 0.0
H424 H 0.16047 0.29117 0.70605 0.0
H425 H 0.19061 0.3048 0.74619 0.0
H426 H 0.22283 0.37103 0.71551 0.0
H427 H 0.13817 0.28691 0.72409 0.0
H428 H 0.16839 0.30047 0.76421 0.0
C429 C 0.83015 0.23249 0.74961 0.0
C430 C 0.83973 0.22004 0.75399 0.0
C431 C 0.81726 0.22973 0.73927 0.0
C432 C 0.81364 0.21446 0.73311 0.0
C433 C 0.82318 0.202 0.73753 0.0
C434 C 0.8361 0.20476 0.74784 0.0
C435 C 0.79999 0.21154 0.72205 0.0
C436 C 0.79712 0.22209 0.70975 0.0
C437 C 0.78428 0.2194 0.69917 0.0
C438 C 0.77426 0.20595 0.70103 0.0
C439 C 0.77695 0.19525 0.71327 0.0
C440 C 0.78983 0.19817 0.72373 0.0
C441 C 0.76631 0.18104 0.71517 0.0
C442 C 0.74978 0.18205 0.71358 0.0
C443 C 0.77261 0.16637 0.71866 0.0
C444 C 0.76263 0.15303 0.72062 0.0
C445 C 0.74611 0.15404 0.7191 0.0
C446 C 0.7815 0.23056 0.68609 0.0
C447 C 0.78304 0.24697 0.68889 0.0
C448 C 0.77745 0.2249 0.67068 0.0
C449 C 0.77509 0.2354 0.65832 0.0
C450 C 0.77672 0.25181 0.6611 0.0
C451 C 0.78067 0.25748 0.67654 0.0
C452 C 0.73979 0.16869 0.71552 0.0
H453 H 0.83273 0.24442 0.75401 0.0
H454 H 0.81005 0.23955 0.7362 0.0
H455 H 0.82079 0.19012 0.73287 0.0
H456 H 0.84316 0.1949 0.7511 0.0
H457 H 0.80516 0.2322 0.70813 0.0
H458 H 0.79175 0.1902 0.73344 0.0
H459 H 0.76435 0.20378 0.6929 0.0
H460 H 0.74453 0.19322 0.71112 0.0
H461 H 0.78531 0.16515 0.7197 0.0
H462 H 0.76788 0.14186 0.72312 0.0
H463 H 0.786 0.25172 0.70067 0.0
H464 H 0.77633 0.21232 0.66809 0.0
H465 H 0.7271 0.1699 0.71449 0.0
H466 H 0.78216 0.27004 0.67904 0.0
H467 H 0.77189 0.23065 0.6466 0.0
C468 C 0.531 0.58158 0.49357 0.0
C469 C 0.5274 0.59653 0.49986 0.0
C470 C 0.53331 0.56894 0.5037 0.0
C471 C 0.53209 0.57099 0.52033 0.0
C472 C 0.52866 0.58599 0.52659 0.0
C473 C 0.52633 0.5986 0.51648 0.0
C474 C 0.53428 0.55755 0.53115 0.0
C475 C 0.54648 0.54698 0.52851 0.0
C476 C 0.5488 0.53445 0.53892 0.0
C477 C 0.53867 0.53254 0.55206 0.0
C478 C 0.52648 0.54305 0.55493 0.0
C479 C 0.52432 0.55544 0.54436 0.0
C480 C 0.51622 0.54136 0.56917 0.0
C481 C 0.51012 0.52644 0.57367 0.0
C482 C 0.51254 0.55472 0.57844 0.0
C483 C 0.50299 0.55322 0.59191 0.0
C484 C 0.49688 0.53831 0.59642 0.0
C485 C 0.56211 0.52367 0.53635 0.0
C486 C 0.56597 0.51836 0.5209 0.0
C487 C 0.57123 0.51882 0.54932 0.0
C488 C 0.58394 0.50896 0.54691 0.0
C489 C 0.58788 0.50378 0.53146 0.0
C490 C 0.57873 0.50855 0.51848 0.0
C491 C 0.50052 0.52494 0.58713 0.0
H492 H 0.53173 0.57957 0.48081 0.0
H493 H 0.53576 0.55749 0.49849 0.0
H494 H 0.52794 0.58805 0.53936 0.0
H495 H 0.52386 0.61004 0.52171 0.0
H496 H 0.55453 0.54885 0.51864 0.0
H497 H 0.51468 0.56334 0.54631 0.0
H498 H 0.54039 0.52296 0.56018 0.0
H499 H 0.51266 0.51594 0.56669 0.0
H500 H 0.51719 0.56636 0.57538 0.0
H501 H 0.50027 0.56377 0.59871 0.0
H502 H 0.55905 0.52169 0.51067 0.0
H503 H 0.56877 0.52291 0.56134 0.0
H504 H 0.49609 0.51328 0.59038 0.0
H505 H 0.58135 0.50458 0.50645 0.0
H506 H 0.59091 0.50569 0.55712 0.0
C507 C 0.49063 0.47631 0.92327 0.0
C508 C 0.49652 0.48094 0.90835 0.0
C509 C 0.50093 0.47439 0.93613 0.0
C510 C 0.51737 0.47702 0.93438 0.0
C511 C 0.52326 0.48166 0.91946 0.0
C512 C 0.51296 0.48362 0.90662 0.0
C513 C 0.52836 0.47486 0.94802 0.0
C514 C 0.52602 0.46209 0.95828 0.0
C515 C 0.53644 0.45987 0.97111 0.0
C516 C 0.54939 0.47058 0.97355 0.0
C517 C 0.55198 0.48338 0.96337 0.0
C518 C 0.54134 0.48547 0.9507 0.0
C519 C 0.56587 0.4945 0.96582 0.0
C520 C 0.57041 0.49979 0.98124 0.0
C521 C 0.57472 0.49986 0.95271 0.0
C522 C 0.58779 0.5103 0.95496 0.0
C523 C 0.59233 0.51559 0.97036 0.0
C524 C 0.53387 0.44623 0.9818 0.0
C525 C 0.51851 0.44174 0.98683 0.0
C526 C 0.54673 0.43749 0.98694 0.0
C527 C 0.54426 0.42454 0.99681 0.0
C528 C 0.52889 0.41999 0.00173 0.0
C529 C 0.51605 0.42877 0.99666 0.0
C530 C 0.58351 0.51021 0.98348 0.0
H531 H 0.47805 0.47398 0.92498 0.0
H532 H 0.49598 0.47097 0.9475 0.0
H533 H 0.53587 0.48362 0.91764 0.0
H534 H 0.51789 0.48738 0.89535 0.0
H535 H 0.51632 0.45359 0.95601 0.0
H536 H 0.54301 0.49558 0.94309 0.0
H537 H 0.55753 0.4689 0.98336 0.0
H538 H 0.56371 0.49605 0.99157 0.0
H539 H 0.5717 0.49581 0.94071 0.0
H540 H 0.5945 0.51403 0.94462 0.0
H541 H 0.50839 0.44837 0.98329 0.0
H542 H 0.55868 0.44047 0.98309 0.0
H543 H 0.58659 0.51424 0.99548 0.0
H544 H 0.50409 0.4257 0.00044 0.0
H545 H 0.55438 0.41788 0.00033 0.0
C546 C 0.65515 0.20922 0.2625 0.0
C547 C 0.6524 0.22423 0.25643 0.0
C548 C 0.66751 0.20717 0.27334 0.0
C549 C 0.67732 0.2201 0.2784 0.0
C550 C 0.67458 0.23511 0.27232 0.0
C551 C 0.66227 0.23714 0.26144 0.0
C552 C 0.69038 0.21799 0.29002 0.0
C553 C 0.70025 0.20507 0.28851 0.0
C554 C 0.7128 0.20315 0.29931 0.0
C555 C 0.71535 0.21431 0.31177 0.0
C556 C 0.70556 0.22729 0.3135 0.0
C557 C 0.6931 0.22901 0.30257 0.0
C558 C 0.70836 0.23908 0.32665 0.0
C559 C 0.71197 0.23421 0.34214 0.0
C560 C 0.70741 0.25532 0.32381 0.0
C561 C 0.70997 0.26643 0.33617 0.0
C562 C 0.71354 0.26157 0.35167 0.0
C563 C 0.72341 0.18967 0.29737 0.0
C564 C 0.71713 0.17441 0.29373 0.0
C565 C 0.73992 0.192 0.29898 0.0
C566 C 0.74994 0.17937 0.2969 0.0
C567 C 0.74367 0.16412 0.29322 0.0
C568 C 0.72714 0.16176 0.29172 0.0
C569 C 0.71453 0.24533 0.35451 0.0
H570 H 0.64784 0.19902 0.25875 0.0
H571 H 0.66925 0.19549 0.27791 0.0
H572 H 0.68204 0.24527 0.27586 0.0
H573 H 0.66035 0.24889 0.25711 0.0
H574 H 0.69847 0.19674 0.27862 0.0
H575 H 0.68528 0.2388 0.30403 0.0
H576 H 0.72502 0.21293 0.32012 0.0
H577 H 0.71256 0.22178 0.34477 0.0
H578 H 0.7049 0.25946 0.31195 0.0
H579 H 0.70938 0.27886 0.33353 0.0
H580 H 0.70444 0.17222 0.29255 0.0
H581 H 0.74513 0.20365 0.30161 0.0
H582 H 0.71703 0.24119 0.36637 0.0
H583 H 0.72196 0.15017 0.28875 0.0
H584 H 0.76261 0.18154 0.2983 0.0
C585 C 0.47259 0.09787 0.98907 0.0
C586 C 0.47169 0.09652 0.00575 0.0
C587 C 0.47051 0.08453 0.97908 0.0
C588 C 0.46741 0.06956 0.98554 0.0
C589 C 0.46655 0.06818 0.00219 0.0
C590 C 0.46872 0.08149 0.01217 0.0
C591 C 0.46502 0.05538 0.975 0.0
C592 C 0.47523 0.05274 0.96213 0.0
C593 C 0.47327 0.0391 0.95238 0.0
C594 C 0.46083 0.02812 0.95556 0.0
C595 C 0.45042 0.03065 0.96831 0.0
C596 C 0.45262 0.04432 0.97794 0.0
C597 C 0.43724 0.01905 0.9716 0.0
C598 C 0.42821 0.01198 0.95905 0.0
C599 C 0.43344 0.01513 0.98738 0.0
C600 C 0.42081 0.00455 0.99054 0.0
C601 C 0.4117 0.99757 0.97801 0.0
C602 C 0.4844 0.0362 0.93908 0.0
C603 C 0.48911 0.04849 0.92892 0.0
C604 C 0.49053 0.02115 0.93656 0.0
C605 C 0.50121 0.01848 0.92421 0.0
C606 C 0.50596 0.03077 0.91407 0.0
C607 C 0.49974 0.04579 0.91652 0.0
C608 C 0.4156 0.00136 0.96222 0.0
H609 H 0.47464 0.10929 0.98371 0.0
H610 H 0.47107 0.08597 0.96629 0.0
H611 H 0.46443 0.05676 0.00751 0.0
H612 H 0.46826 0.07995 0.02495 0.0
H613 H 0.48503 0.06106 0.96001 0.0
H614 H 0.44446 0.04656 0.98759 0.0
H615 H 0.4593 0.01756 0.94811 0.0
H616 H 0.43073 0.01485 0.94677 0.0
H617 H 0.44027 0.02021 0.99731 0.0
H618 H 0.41803 0.00206 0.00286 0.0
H619 H 0.48449 0.06017 0.93049 0.0
H620 H 0.48724 0.01149 0.94429 0.0
H621 H 0.40894 0.99606 0.95228 0.0
H622 H 0.50328 0.05554 0.90899 0.0
H623 H 0.50567 0.00674 0.92254 0.0
C624 C 0.22156 0.90459 0.00651 0.0
O625 O 0.22818 0.90351 0.9924 0.0
O626 O 0.24004 0.86831 0.99484 0.0
Zn627 Zn 0.24536 0.88273 0.01368 0.0
O628 O 0.26485 0.89639 0.00905 0.0
C629 C 0.25727 0.85695 0.03086 0.0
O630 O 0.2633 0.85382 0.01678 0.0
O631 O 0.22698 0.89664 0.01788 0.0
C632 C 0.2768 0.89771 0.01835 0.0
O633 O 0.27665 0.88997 0.03177 0.0
C634 C 0.24616 0.87014 0.98115 0.0
O635 O 0.25624 0.88208 0.97891 0.0
O636 O 0.24903 0.8691 0.03265 0.0
C637 C 0.15249 0.47603 0.26491 0.0
O638 O 0.15644 0.48986 0.27145 0.0
O639 O 0.1126 0.49654 0.27254 0.0
Zn640 Zn 0.12654 0.49348 0.25333 0.0
O641 O 0.14091 0.51265 0.25008 0.0
C642 C 0.0994 0.49596 0.23264 0.0
O643 O 0.09411 0.50423 0.24479 0.0
O644 O 0.13992 0.4746 0.25651 0.0
C645 C 0.13585 0.5266 0.25047 0.0
O646 O 0.12076 0.5287 0.25323 0.0
C647 C 0.11705 0.50472 0.28475 0.0
O648 O 0.13137 0.51136 0.28513 0.0
O649 O 0.11297 0.49001 0.23364 0.0
C650 C 0.77817 0.60645 -0.00019 0.0
O651 O 0.76564 0.60011 0.99242 0.0
O652 O 0.76183 0.64736 0.982 0.0
Zn653 Zn 0.75869 0.63375 0.00127 0.0
O654 O 0.73917 0.61945 0.99847 0.0
C655 C 0.74535 0.65856 0.01957 0.0
O656 O 0.73721 0.65984 0.00629 0.0
O657 O 0.77793 0.62075 0.0047 0.0
C658 C 0.72847 0.62195 0.98821 0.0
O659 O 0.73006 0.63426 0.97899 0.0
C660 C 0.76968 0.64311 0.96986 0.0
O661 O 0.77618 0.62926 0.96967 0.0
O662 O 0.75558 0.64797 0.0204 0.0
C663 C 0.84805 0.03585 0.26716 0.0
O664 O 0.84525 0.02207 0.27372 0.0
O665 O 0.88805 0.01593 0.27187 0.0
Zn666 Zn 0.87356 0.01918 0.25316 0.0
O667 O 0.85978 -0.00035 0.24887 0.0
C668 C 0.89696 0.01352 0.22968 0.0
O669 O 0.8985 0.00088 0.23831 0.0
O670 O 0.85978 0.03755 0.25782 0.0
C671 C 0.84849 0.0 0.23883 0.0
O672 O 0.8461 0.01318 0.23132 0.0
C673 C 0.88484 0.00571 0.28239 0.0
O674 O 0.87163 0.99706 0.28113 0.0
O675 O 0.88676 0.02348 0.23375 0.0
C676 C 0.29186 0.12047 0.49996 0.0
O677 O 0.2947 0.1336 0.49223 0.0
O678 O 0.26438 0.1449 0.48173 0.0
Zn679 Zn 0.25971 0.13145 0.50084 0.0
O680 O 0.24 0.11768 0.49674 0.0
C681 C 0.25134 0.15935 0.51854 0.0
O682 O 0.24792 0.16416 0.50417 0.0
O683 O 0.27789 0.11725 0.50482 0.0
C684 C 0.22613 0.12204 0.50008 0.0
O685 O 0.22432 0.13609 0.50656 0.0
C686 C 0.25908 0.14137 0.46785 0.0
O687 O 0.25035 0.12834 0.46563 0.0
O688 O 0.25666 0.14561 0.52016 0.0
C689 C 0.35521 0.54157 0.77049 0.0
O690 O 0.3628 0.53636 0.78293 0.0
O691 O 0.38541 0.51388 0.77273 0.0
Zn692 Zn 0.3711 0.51641 0.75375 0.0
O693 O 0.35718 0.49684 0.75059 0.0
C694 C 0.3969 0.52816 0.7345 0.0
O695 O 0.40093 0.53574 0.74783 0.0
O696 O 0.35716 0.53502 0.75691 0.0
C697 C 0.34602 0.49686 0.74037 0.0
O698 O 0.34384 0.50972 0.73226 0.0
C699 C 0.3922 0.50091 0.77467 0.0
O700 O 0.38965 0.48932 0.7642 0.0
O701 O 0.38441 0.5193 0.73416 0.0
C702 C 0.72521 0.41018 0.5102 0.0
O703 O 0.73638 0.41487 0.50031 0.0
O704 O 0.74082 0.36928 0.49477 0.0
Zn705 Zn 0.74552 0.38383 0.51365 0.0
O706 O 0.76495 0.39775 0.50957 0.0
C707 C 0.75693 0.35805 0.53143 0.0
O708 O 0.76249 0.35412 0.51735 0.0
O709 O 0.72665 0.39729 0.51748 0.0
C710 C 0.77642 0.39304 0.50119 0.0
O711 O 0.77575 0.37862 0.49509 0.0
C712 C 0.74055 0.37412 0.48052 0.0
O713 O 0.7434 0.38918 0.47786 0.0
O714 O 0.74922 0.3706 0.53292 0.0
C715 C 0.65152 0.97648 0.76548 0.0
O716 O 0.65572 0.99058 0.77123 0.0
O717 O 0.61012 0.9958 0.77344 0.0
Zn718 Zn 0.62448 0.99303 0.75458 0.0
O719 O 0.63799 0.01283 0.75177 0.0
C720 C 0.60128 -0.00062 0.73099 0.0
O721 O 0.60009 0.01214 0.74002 0.0
O722 O 0.63848 0.97461 0.75791 0.0
C723 C 0.64571 0.01486 0.73896 0.0
O724 O 0.64465 0.00392 0.72763 0.0
C725 C 0.61488 0.00332 0.78594 0.0
O726 O 0.62951 0.00918 0.78658 0.0
O727 O 0.61112 0.98912 0.73488 0.0
C728 C 0.00305 0.22146 0.88657 0.0
O729 O 0.99782 0.21819 0.87204 0.0
O730 O 0.98178 0.24745 0.86246 0.0
Zn731 Zn 0.00102 0.25338 0.87589 0.0
O732 O 0.99711 0.27325 0.88856 0.0
C733 C 0.02212 0.27 0.85462 0.0
O734 O 0.01233 0.28144 0.85731 0.0
O735 O 0.00538 0.23582 0.89093 0.0
C736 C 0.00711 0.2785 0.89892 0.0
O737 O 0.02006 0.27072 0.90134 0.0
C738 C 0.97364 0.25801 0.85612 0.0
O739 O 0.97779 0.27296 0.8586 0.0
O740 O 0.01975 0.25687 0.86144 0.0
C741 C 0.49924 0.72881 0.39997 0.0
O742 O 0.48678 0.7373 0.4027 0.0
O743 O 0.48442 0.74594 0.36174 0.0
Zn744 Zn 0.50381 0.75125 0.37523 0.0
O745 O 0.49995 0.77018 0.38956 0.0
C746 C 0.52028 0.76413 0.34838 0.0
O747 O 0.50623 0.76964 0.34547 0.0
O748 O 0.5085 0.73259 0.38866 0.0
C749 C 0.50951 0.78211 0.39076 0.0
O750 O 0.52269 0.78231 0.3825 0.0
C751 C 0.47104 0.75182 0.36448 0.0
O752 O 0.46958 0.76158 0.37671 0.0
O753 O 0.52221 0.75583 0.36065 0.0
C754 C -0.00064 0.78316 0.5984 0.0
O755 O 0.98693 0.77381 0.59516 0.0
O756 O 0.98511 0.76375 0.63666 0.0
Zn757 Zn 0.00381 0.76017 0.62238 0.0
O758 O -0.00079 0.74173 0.60738 0.0
C759 C 0.026 0.76389 0.64831 0.0
O760 O 0.01715 0.7759 0.65183 0.0
O761 O 0.00856 0.77971 0.60976 0.0
C762 C 0.9968 0.72798 0.61287 0.0
O763 O 0.99726 0.72609 0.62838 0.0
C764 C 0.97093 0.7599 0.6326 0.0
O765 O 0.96815 0.75328 0.61851 0.0
O766 O 0.02266 0.75542 0.63599 0.0
C767 C 0.50158 0.28278 0.09755 0.0
O768 O 0.49064 0.2721 0.09315 0.0
O769 O 0.48589 0.26523 0.1374 0.0
Zn770 Zn 0.50493 0.2616 0.12356 0.0
O771 O 0.50131 0.24252 0.10902 0.0
C772 C 0.52189 0.24989 0.15025 0.0
O773 O 0.50773 0.24391 0.15356 0.0
O774 O 0.5094 0.28081 0.1103 0.0
C775 C 0.4936 0.23014 0.11329 0.0
O776 O 0.48761 0.22963 0.1277 0.0
C777 C 0.47162 0.26342 0.13255 0.0
O778 O 0.46879 0.25901 0.11767 0.0
O779 O 0.52372 0.25807 0.1378 0.0
H780 H 0.20082 0.75746 0.88329 0.0
H781 H 0.20608 0.7765 0.90523 0.0
H782 H 0.23546 0.80506 0.87429 0.0
H783 H 0.23031 0.7861 0.85234 0.0
H784 H 0.23517 0.78641 0.91887 0.0
H785 H 0.20469 0.83678 0.89264 0.0
H786 H 0.20185 0.81675 0.88511 0.0
H787 H 0.21925 0.82835 0.87983 0.0
C788 C 0.20845 0.76776 0.88118 0.0
C789 C 0.21507 0.77033 0.86605 0.0
C790 C 0.21138 0.77865 0.8937 0.0
C791 C 0.22092 0.79231 0.89129 0.0
C792 C 0.22774 0.79479 0.87628 0.0
H793 H 0.25687 0.87068 0.95042 0.0
H794 H 0.25065 0.85149 0.92888 0.0
C795 C 0.22479 0.78394 0.86376 0.0
C796 C 0.22411 0.80378 0.90458 0.0
H797 H 0.22042 0.84243 0.91581 0.0
C798 C 0.23186 0.79863 0.91827 0.0
C799 C 0.21977 0.81972 0.90372 0.0
C800 C 0.2108 0.82573 0.8896 0.0
C801 C 0.23572 0.8091 0.931 0.0
C802 C 0.2315 0.82506 0.93008 0.0
C803 C 0.22367 0.83019 0.91643 0.0
C804 C 0.23514 0.83665 0.94315 0.0
C805 C 0.24463 0.8031 0.94517 0.0
C806 C 0.22829 0.83474 0.95822 0.0
C807 C 0.23181 0.84567 0.97055 0.0
C808 C 0.24219 0.85875 0.968 0.0
C809 C 0.24886 0.86072 0.9528 0.0
C810 C 0.24532 0.84979 0.94047 0.0
H811 H 0.25025 0.79172 0.94239 0.0
H812 H 0.25396 0.81187 0.94928 0.0
H813 H 0.23624 0.80114 0.95514 0.0
H814 H 0.22017 0.82483 0.96043 0.0
H815 H 0.22641 0.84383 0.98209 0.0
H816 H 0.00637 0.50712 0.38982 0.0
H817 H 0.02529 0.50267 0.36825 0.0
H818 H 0.05462 0.54213 0.38573 0.0
H819 H 0.03586 0.54657 0.40742 0.0
H820 H 0.03585 0.52644 0.34469 0.0
H821 H 0.08475 0.50374 0.38154 0.0
H822 H 0.06444 0.50364 0.38824 0.0
H823 H 0.07619 0.52174 0.38848 0.0
C824 C 0.01693 0.51475 0.38915 0.0
C825 C 0.01966 0.52717 0.40033 0.0
C826 C 0.02766 0.51224 0.3768 0.0
C827 C 0.04138 0.52198 0.37553 0.0
C828 C 0.04416 0.53439 0.38664 0.0
H829 H 0.12141 0.52414 0.31099 0.0
H830 H 0.10281 0.52852 0.33278 0.0
C831 C 0.03338 0.53698 0.39893 0.0
C832 C 0.05261 0.51939 0.36236 0.0
H833 H 0.0901 0.5079 0.35428 0.0
C834 C 0.04771 0.52234 0.34673 0.0
C835 C 0.06806 0.51415 0.36516 0.0
C836 C 0.07372 0.51051 0.38173 0.0
C837 C 0.05796 0.52039 0.33378 0.0
C838 C 0.07338 0.51495 0.33653 0.0
C839 C 0.07828 0.51204 0.3522 0.0
C840 C 0.08461 0.51219 0.32332 0.0
C841 C 0.05231 0.52455 0.31733 0.0
C842 C 0.08065 0.50137 0.31091 0.0
C843 C 0.0912 0.49891 0.2984 0.0
C844 C 0.10601 0.50709 0.29817 0.0
C845 C 0.11009 0.51767 0.31079 0.0
C846 C 0.09948 0.52019 0.32326 0.0
H847 H 0.04229 0.53269 0.31789 0.0
H848 H 0.06203 0.53018 0.31033 0.0
H849 H 0.04808 0.51361 0.31089 0.0
H850 H 0.06941 0.49476 0.31093 0.0
H851 H 0.08774 0.49058 0.28893 0.0
H852 H 0.80347 0.72337 0.84436 0.0
H853 H 0.80013 0.70451 0.86594 0.0
H854 H 0.76323 0.73241 0.88617 0.0
H855 H 0.76642 0.75124 0.86457 0.0
H856 H 0.8038 0.70944 0.89811 0.0
H857 H 0.74209 0.6886 0.88423 0.0
H858 H 0.75402 0.69991 0.87041 0.0
H859 H 0.7443 0.70966 0.8867 0.0
C860 C 0.79466 0.72549 0.85342 0.0
C861 C 0.78516 0.73875 0.85274 0.0
C862 C 0.79272 0.71468 0.8657 0.0
C863 C 0.78125 0.71691 0.8775 0.0
C864 C 0.77186 0.73023 0.87695 0.0
H865 H 0.75564 0.67127 0.96541 0.0
H866 H 0.7588 0.68889 0.94279 0.0
C867 C 0.77373 0.74099 0.86463 0.0
C868 C 0.77947 0.70559 0.89068 0.0
H869 H 0.75269 0.68102 0.90921 0.0
C870 C 0.79267 0.70313 0.90047 0.0
C871 C 0.76492 0.69736 0.89371 0.0
C872 C 0.75056 0.69887 0.88312 0.0
C873 C 0.79161 0.69294 0.91345 0.0
C874 C 0.77701 0.68491 0.91659 0.0
C875 C 0.76384 0.68727 0.90676 0.0
C876 C 0.77513 0.67412 0.93016 0.0
C877 C 0.80598 0.69111 0.92393 0.0
C878 C 0.78314 0.65992 0.9304 0.0
C879 C 0.78133 0.64979 0.94328 0.0
C880 C 0.77148 0.65372 0.95613 0.0
C881 C 0.76337 0.66792 0.95575 0.0
C882 C 0.76513 0.67799 0.94283 0.0
H883 H 0.81529 0.70046 0.92184 0.0
H884 H 0.80266 0.69148 0.93672 0.0
H885 H 0.81112 0.67947 0.92133 0.0
H886 H 0.79074 0.65665 0.9206 0.0
H887 H 0.7877 0.63892 0.94318 0.0
H888 H 0.96822 0.96424 0.40255 0.0
H889 H 0.94946 0.9685 0.38085 0.0
H890 H 0.97845 0.00822 0.36531 0.0
H891 H 0.99718 0.0042 0.3871 0.0
H892 H 0.93259 0.99634 0.37476 0.0
H893 H 0.97205 0.98036 0.32458 0.0
H894 H 0.97607 0.97517 0.34495 0.0
H895 H 0.98029 0.99495 0.33843 0.0
C896 C 0.97057 0.97395 0.39458 0.0
C897 C 0.98423 0.98386 0.39654 0.0
C898 C 0.95988 0.9763 0.38215 0.0
C899 C 0.9627 0.98853 0.37138 0.0
C900 C 0.97624 0.99851 0.37332 0.0
H901 H 0.91278 0.02209 0.28885 0.0
H902 H 0.93127 0.01812 0.31083 0.0
C903 C 0.98693 0.99618 0.38576 0.0
C904 C 0.95126 0.99107 0.35832 0.0
H905 H 0.94747 0.99114 0.31778 0.0
C906 C 0.93579 0.99515 0.3623 0.0
C907 C 0.95554 0.98953 0.3421 0.0
C908 C 0.97184 0.98463 0.33719 0.0
C909 C 0.92452 0.99802 0.35044 0.0
C910 C 0.92878 0.99644 0.3342 0.0
C911 C 0.94426 0.99235 0.33024 0.0
C912 C 0.91735 0.99896 0.32111 0.0
C913 C 0.90827 0.00305 0.3554 0.0
C914 C 0.90347 0.98939 0.31954 0.0
C915 C 0.89284 0.99166 0.30702 0.0
C916 C 0.89599 0.00344 0.29577 0.0
C917 C 0.90998 0.01293 0.29732 0.0
C918 C 0.92057 0.01067 0.30987 0.0
H919 H 0.90827 0.00775 0.36787 0.0
H920 H 0.90388 0.01224 0.34739 0.0
H921 H 0.89985 0.99268 0.35468 0.0
H922 H 0.90093 0.98006 0.32789 0.0
H923 H 0.88224 0.98408 0.30611 0.0
H924 H 0.20627 0.26093 0.6224 0.0
H925 H 0.21254 0.24323 0.60001 0.0
H926 H 0.24134 0.21611 0.63113 0.0
H927 H 0.23502 0.23367 0.65363 0.0
H928 H 0.24536 0.23649 0.58936 0.0
H929 H 0.20959 0.18339 0.60766 0.0
H930 H 0.20555 0.20308 0.61488 0.0
H931 H 0.22216 0.193 0.62262 0.0
C932 C 0.21378 0.25108 0.62451 0.0
C933 C 0.22013 0.24865 0.63977 0.0
C934 C 0.21741 0.24106 0.61171 0.0
C935 C 0.22728 0.22834 0.614 0.0
C936 C 0.23358 0.2258 0.6292 0.0
H937 H 0.25872 0.15392 0.54977 0.0
H938 H 0.25368 0.1709 0.57304 0.0
C939 C 0.23005 0.23589 0.64199 0.0
C940 C 0.23136 0.218 0.60034 0.0
H941 H 0.2254 0.18072 0.58472 0.0
C942 C 0.24101 0.2243 0.5883 0.0
C943 C 0.22574 0.20209 0.59914 0.0
C944 C 0.21509 0.19493 0.61168 0.0
C945 C 0.2453 0.21505 0.57505 0.0
C946 C 0.23941 0.19921 0.57365 0.0
C947 C 0.22988 0.19287 0.58581 0.0
C948 C 0.24273 0.1891 0.55952 0.0
C949 C 0.25632 0.22226 0.56285 0.0
C950 C 0.23809 0.19363 0.54423 0.0
C951 C 0.24103 0.18403 0.53092 0.0
C952 C 0.2485 0.16959 0.53266 0.0
C953 C 0.25298 0.16499 0.54802 0.0
C954 C 0.2501 0.17466 0.56132 0.0
H955 H 0.26339 0.2325 0.56795 0.0
H956 H 0.26458 0.21345 0.55809 0.0
H957 H 0.24921 0.22657 0.55276 0.0
H958 H 0.23203 0.20454 0.5426 0.0
H959 H 0.2373 0.18786 0.51929 0.0
H960 H 0.50121 0.55303 0.62553 0.0
H961 H 0.48416 0.55097 0.64896 0.0
H962 H 0.45258 0.51824 0.6232 0.0
H963 H 0.46954 0.52026 0.59969 0.0
H964 H 0.45234 0.55822 0.65148 0.0
H965 H 0.46106 0.49511 0.66455 0.0
H966 H 0.47384 0.50618 0.65128 0.0
H967 H 0.45475 0.4986 0.64448 0.0
C968 C 0.49061 0.54542 0.62484 0.0
C969 C 0.48674 0.53678 0.61076 0.0
C970 C 0.48093 0.54421 0.63825 0.0
C971 C 0.46724 0.5343 0.63788 0.0
C972 C 0.46329 0.52569 0.62385 0.0
H973 H 0.39214 0.51368 0.70533 0.0
H974 H 0.40906 0.51567 0.68181 0.0
C975 C 0.47299 0.52686 0.61043 0.0
C976 C 0.45684 0.53337 0.65203 0.0
H977 H 0.44118 0.50791 0.67933 0.0
C978 C 0.44995 0.54724 0.65763 0.0
C979 C 0.45374 0.51902 0.65998 0.0
C980 C 0.46133 0.5039 0.65488 0.0
C981 C 0.43981 0.5471 0.67084 0.0
C982 C 0.43671 0.53275 0.67879 0.0
C983 C 0.44358 0.51888 0.67318 0.0
C984 C 0.42638 0.53187 0.69298 0.0
C985 C 0.43226 0.56223 0.676 0.0
C986 C 0.4306 0.54024 0.70707 0.0
C987 C 0.42096 0.53915 0.72054 0.0
C988 C 0.40696 0.52959 0.72016 0.0
C989 C 0.40281 0.52118 0.70601 0.0
C990 C 0.41247 0.52228 0.69257 0.0
H991 H 0.43266 0.57111 0.66642 0.0
H992 H 0.41971 0.55997 0.67947 0.0
H993 H 0.43877 0.5674 0.68651 0.0
H994 H 0.44145 0.54748 0.70772 0.0
H995 H 0.42454 0.5457 0.73127 0.0
H996 H 0.76131 0.27972 0.66205 0.0
H997 H 0.75772 0.29809 0.64026 0.0
H998 H 0.78334 0.26757 0.60863 0.0
H999 H 0.7871 0.24922 0.63034 0.0
H1000 H 0.78111 0.31395 0.62196 0.0
H1001 H 0.74189 0.27438 0.58422 0.0
H1002 H 0.74578 0.27065 0.60497 0.0
H1003 H 0.76015 0.26585 0.59006 0.0
C1004 C 0.76625 0.27695 0.65047 0.0
C1005 C 0.77442 0.26296 0.6479 0.0
C1006 C 0.76412 0.28742 0.63803 0.0
C1007 C 0.77005 0.28406 0.62279 0.0
C1008 C 0.77836 0.27021 0.62022 0.0
H1009 H 0.77241 0.33032 0.53196 0.0
H1010 H 0.77578 0.31296 0.55457 0.0
C1011 C 0.78049 0.25973 0.63263 0.0
C1012 C 0.76783 0.29518 0.60964 0.0
H1013 H 0.75165 0.29808 0.57247 0.0
C1014 C 0.77459 0.31054 0.61117 0.0
C1015 C 0.75932 0.29066 0.59561 0.0
C1016 C 0.75123 0.27454 0.59361 0.0
C1017 C 0.77338 0.32141 0.59884 0.0
C1018 C 0.76498 0.31683 0.58475 0.0
C1019 C 0.75813 0.30152 0.58328 0.0
C1020 C 0.76327 0.32769 0.57128 0.0
C1021 C 0.78145 0.33754 0.60081 0.0
C1022 C 0.75504 0.34169 0.57319 0.0
C1023 C 0.7531 0.35166 0.56029 0.0
C1024 C 0.75929 0.34775 0.54523 0.0
C1025 C 0.76752 0.3337 0.54339 0.0
C1026 C 0.76945 0.32375 0.55629 0.0
H1027 H 0.79049 0.33785 0.6105 0.0
H1028 H 0.78727 0.34121 0.58955 0.0
H1029 H 0.77245 0.3463 0.60388 0.0
H1030 H 0.74993 0.34479 0.5846 0.0
H1031 H 0.74663 0.36235 0.56209 0.0
H1032 H 0.52675 0.95786 0.60146 0.0
H1033 H 0.5434 0.96188 0.62529 0.0
H1034 H 0.51817 0.00368 0.6378 0.0
H1035 H 0.50147 -0.00027 0.61401 0.0
H1036 H 0.56328 0.98753 0.63386 0.0
H1037 H 0.51583 0.97848 0.67872 0.0
H1038 H 0.51313 0.97301 0.65794 0.0
H1039 H 0.51176 0.99328 0.66439 0.0
C1040 C 0.52478 0.96794 0.60925 0.0
C1041 C 0.51274 0.97844 0.6059 0.0
C1042 C 0.53426 0.97019 0.62289 0.0
C1043 C 0.53184 0.98293 0.63343 0.0
C1044 C 0.51998 0.99355 0.63002 0.0
H1045 H 0.57825 0.01839 0.72013 0.0
H1046 H 0.56177 0.01445 0.69618 0.0
C1047 C 0.51046 0.99129 0.61642 0.0
C1048 C 0.54199 0.98529 0.64782 0.0
H1049 H 0.54095 0.988 0.68848 0.0
C1050 C 0.55842 0.98756 0.64581 0.0
C1051 C 0.5356 0.98533 0.66338 0.0
C1052 C 0.51813 0.98225 0.66631 0.0
C1053 C 0.56861 0.99013 0.65897 0.0
C1054 C 0.5622 0.99022 0.67451 0.0
C1055 C 0.54579 0.98796 0.67653 0.0
C1056 C 0.57235 0.9926 0.68887 0.0
C1057 C 0.58611 0.99304 0.65612 0.0
C1058 C 0.58362 0.98153 0.69275 0.0
C1059 C 0.59305 0.98372 0.70643 0.0
C1060 C 0.59131 0.99702 0.7165 0.0
C1061 C 0.57992 0.00804 0.71261 0.0
C1062 C 0.57048 0.00581 0.69895 0.0
H1063 H 0.58858 0.99628 0.64358 0.0
H1064 H 0.59102 0.0026 0.66417 0.0
H1065 H 0.59244 0.98211 0.65865 0.0
H1066 H 0.58504 0.97111 0.68526 0.0
H1067 H 0.60166 0.97498 0.70911 0.0
H1068 H 0.8694 0.20833 0.75136 0.0
H1069 H 0.89218 0.21346 0.76917 0.0
H1070 H 0.86422 0.24398 0.79859 0.0
H1071 H 0.84127 0.23859 0.7811 0.0
H1072 H 0.90717 0.24284 0.7766 0.0
H1073 H 0.88343 0.21393 0.83077 0.0
H1074 H 0.87482 0.21039 0.8112 0.0
H1075 H 0.87059 0.22807 0.82237 0.0
C1076 C 0.86804 0.21596 0.76175 0.0
C1077 C 0.85352 0.22302 0.76485 0.0
C1078 C 0.88108 0.21894 0.77184 0.0
C1079 C 0.8798 0.22893 0.78529 0.0
C1080 C 0.86536 0.23602 0.78842 0.0
H1081 H 0.95445 0.27759 0.84 0.0
H1082 H 0.93191 0.27012 0.82266 0.0
C1083 C 0.85232 0.23307 0.77831 0.0
C1084 C 0.89375 0.23239 0.79572 0.0
H1085 H 0.90715 0.2298 0.83404 0.0
C1086 C 0.90721 0.23993 0.78914 0.0
C1087 C 0.89381 0.22839 0.81202 0.0
C1088 C 0.87996 0.21962 0.81952 0.0
C1089 C 0.92063 0.24392 0.79853 0.0
C1090 C 0.92046 0.24046 0.81496 0.0
C1091 C 0.90716 0.23258 0.82146 0.0
C1092 C 0.934 0.24496 0.82561 0.0
C1093 C 0.93493 0.25169 0.79078 0.0
C1094 C 0.94238 0.23329 0.8333 0.0
C1095 C 0.95524 0.23751 0.84327 0.0
C1096 C 0.95986 0.2535 0.8458 0.0
C1097 C 0.95126 0.26517 0.83825 0.0
C1098 C 0.93843 0.26093 0.82827 0.0
H1099 H 0.93468 0.24991 0.77761 0.0
H1100 H 0.93507 0.26459 0.79339 0.0
H1101 H 0.94608 0.24699 0.79553 0.0
H1102 H 0.93907 0.2209 0.83145 0.0
H1103 H 0.96158 0.22824 0.84894 0.0
H1104 H 0.45976 0.8861 0.49137 0.0
H1105 H 0.46532 0.86351 0.4739 0.0
H1106 H 0.50351 0.89046 0.45222 0.0
H1107 H 0.49789 0.91322 0.46941 0.0
H1108 H 0.46613 0.86221 0.4393 0.0
H1109 H 0.52399 0.84931 0.46725 0.0
H1110 H 0.5096 0.8614 0.477 0.0
H1111 H 0.52182 0.86943 0.46144 0.0
C1112 C 0.46924 0.8873 0.48278 0.0
C1113 C 0.47843 0.90146 0.48185 0.0
C1114 C 0.47244 0.87435 0.47288 0.0
C1115 C 0.48496 0.87528 0.46196 0.0
C1116 C 0.494 0.88943 0.4608 0.0
H1117 H 0.52598 0.81041 0.39408 0.0
H1118 H 0.5195 0.833 0.41113 0.0
C1119 C 0.49078 0.9024 0.47066 0.0
C1120 C 0.48849 0.86147 0.45167 0.0
H1121 H 0.51688 0.83481 0.4437 0.0
C1122 C 0.47719 0.85615 0.44028 0.0
C1123 C 0.50294 0.85367 0.453 0.0
C1124 C 0.51526 0.85862 0.4654 0.0
C1125 C 0.48009 0.84338 0.4299 0.0
C1126 C 0.49454 0.83554 0.43123 0.0
C1127 C 0.50582 0.84085 0.44269 0.0
C1128 C 0.49827 0.82184 0.42083 0.0
C1129 C 0.46784 0.83869 0.41733 0.0
C1130 C 0.48859 0.808 0.42078 0.0
C1131 C 0.49221 0.79509 0.41099 0.0
C1132 C 0.5057 0.79573 0.4012 0.0
C1133 C 0.5155 0.80953 0.40146 0.0
C1134 C 0.51182 0.82246 0.41119 0.0
H1135 H 0.45967 0.84839 0.41505 0.0
H1136 H 0.47354 0.83529 0.40593 0.0
H1137 H 0.46061 0.82837 0.42149 0.0
H1138 H 0.47829 0.80713 0.4284 0.0
H1139 H 0.48448 0.7846 0.41117 0.0
H1140 H 0.14337 0.31184 0.77123 0.0
H1141 H 0.12145 0.30732 0.78974 0.0
H1142 H 0.10688 0.26498 0.76336 0.0
H1143 H 0.1289 0.26927 0.74487 0.0
H1144 H 0.08184 0.28526 0.77103 0.0
H1145 H 0.11892 0.27286 0.82393 0.0
H1146 H 0.12416 0.29101 0.81419 0.0
H1147 H 0.12655 0.27247 0.80385 0.0
C1148 C 0.13561 0.30147 0.76945 0.0
C1149 C 0.13795 0.29085 0.75663 0.0
C1150 C 0.12309 0.29892 0.78004 0.0
C1151 C 0.11271 0.2857 0.77804 0.0
C1152 C 0.11481 0.27523 0.76512 0.0
H1153 H 0.04475 0.24894 0.84667 0.0
H1154 H 0.06652 0.25258 0.82778 0.0
C1155 C 0.12735 0.27775 0.75453 0.0
C1156 C 0.09953 0.28291 0.78933 0.0
H1157 H 0.09143 0.27587 0.82845 0.0
C1158 C 0.08391 0.28316 0.78358 0.0
C1159 C 0.10232 0.28 0.80564 0.0
C1160 C 0.11888 0.27891 0.81229 0.0
C1161 C 0.07094 0.28086 0.79379 0.0
C1162 C 0.07373 0.27843 0.8102 0.0
C1163 C 0.08936 0.27788 0.81589 0.0
C1164 C 0.06057 0.27634 0.82164 0.0
C1165 C 0.05438 0.28085 0.78693 0.0
C1166 C 0.05017 0.28858 0.8246 0.0
C1167 C 0.03773 0.28656 0.83539 0.0
C1168 C 0.03551 0.27226 0.84346 0.0
C1169 C 0.0461 0.26009 0.84062 0.0
C1170 C 0.05854 0.26214 0.82985 0.0
H1171 H 0.05433 0.27899 0.77377 0.0
H1172 H 0.04668 0.2715 0.79233 0.0
H1173 H 0.04915 0.29243 0.78959 0.0
H1174 H 0.05172 0.29974 0.8186 0.0
H1175 H 0.02985 0.2962 0.83735 0.0
H1176 H 0.54421 0.60506 0.47331 0.0
H1177 H 0.53989 0.62752 0.45605 0.0
H1178 H 0.50013 0.64064 0.48489 0.0
H1179 H 0.50433 0.61824 0.50214 0.0
H1180 H 0.51306 0.63473 0.43825 0.0
H1181 H 0.52741 0.68154 0.48386 0.0
H1182 H 0.53229 0.66118 0.48644 0.0
H1183 H 0.51243 0.66734 0.48996 0.0
C1184 C 0.53449 0.61268 0.47591 0.0
C1185 C 0.52468 0.60995 0.48916 0.0
C1186 C 0.53209 0.62554 0.46609 0.0
C1187 C 0.51988 0.6359 0.46937 0.0
C1188 C 0.50987 0.63302 0.48238 0.0
H1189 H 0.48242 0.71826 0.42568 0.0
H1190 H 0.48765 0.69542 0.44204 0.0
C1191 C 0.51228 0.62021 0.49222 0.0
C1192 C 0.51741 0.64959 0.45906 0.0
H1193 H 0.51587 0.68983 0.45963 0.0
C1194 C 0.51378 0.64679 0.44287 0.0
C1195 C 0.51838 0.6653 0.46516 0.0
C1196 C 0.52298 0.66908 0.48227 0.0
C1197 C 0.51068 0.65927 0.43269 0.0
C1198 C 0.51146 0.67495 0.43884 0.0
C1199 C 0.51522 0.67777 0.45499 0.0
C1200 C 0.50829 0.68863 0.42874 0.0
C1201 C 0.50621 0.65557 0.41553 0.0
C1202 C 0.51828 0.69245 0.41596 0.0
C1203 C 0.51535 0.7055 0.4066 0.0
C1204 C 0.50239 0.715 0.4099 0.0
C1205 C 0.49247 0.71118 0.42279 0.0
C1206 C 0.49544 0.69815 0.43216 0.0
H1207 H 0.50263 0.64292 0.41363 0.0
H1208 H 0.49633 0.66293 0.41165 0.0
H1209 H 0.51657 0.65828 0.40782 0.0
H1210 H 0.52843 0.6854 0.41331 0.0
H1211 H 0.52326 0.70815 0.39679 0.0
H1212 H 0.84259 0.77149 0.71442 0.0
H1213 H 0.86387 0.76715 0.69527 0.0
H1214 H 0.89757 0.79041 0.72759 0.0
H1215 H 0.87637 0.79497 0.74672 0.0
H1216 H 0.88476 0.78988 0.6809 0.0
H1217 H 0.91715 0.74746 0.71743 0.0
H1218 H 0.89696 0.75251 0.72151 0.0
H1219 H 0.91311 0.76579 0.72747 0.0
C1220 C 0.85451 0.7758 0.7174 0.0
C1221 C 0.8578 0.78351 0.73214 0.0
C1222 C 0.86665 0.77324 0.70649 0.0
C1223 C 0.8823 0.77825 0.71014 0.0
C1224 C 0.88561 0.78616 0.7247 0.0
H1225 H 0.9726 0.77389 0.66227 0.0
H1226 H 0.95078 0.7786 0.68061 0.0
C1227 C 0.87348 0.78874 0.73562 0.0
C1228 C 0.89516 0.77537 0.69863 0.0
H1229 H 0.92987 0.75642 0.69397 0.0
C1230 C 0.89459 0.78251 0.68369 0.0
C1231 C 0.90795 0.76575 0.70236 0.0
C1232 C 0.90883 0.75731 0.71801 0.0
C1233 C 0.90669 0.78056 0.67248 0.0
C1234 C 0.91952 0.77097 0.67623 0.0
C1235 C 0.92003 0.76378 0.69115 0.0
C1236 C 0.9326 0.76831 0.6649 0.0
C1237 C 0.90585 0.78909 0.65688 0.0
C1238 C 0.92961 0.76083 0.65005 0.0
C1239 C 0.94205 0.75815 0.63951 0.0
C1240 C 0.95772 0.7628 0.6437 0.0
C1241 C 0.96067 0.77018 0.65865 0.0
C1242 C 0.94822 0.77288 0.66916 0.0
H1243 H 0.8976 0.799 0.65754 0.0
H1244 H 0.91774 0.79383 0.65336 0.0
H1245 H 0.90147 0.78068 0.64739 0.0
H1246 H 0.91767 0.75692 0.64667 0.0
H1247 H 0.93938 0.75235 0.62813 0.0
H1248 H 0.04647 0.91062 0.52764 0.0
H1249 H 0.04206 0.88723 0.54398 0.0
H1250 H -0.00023 0.87456 0.51685 0.0
H1251 H 0.00432 0.89761 0.50017 0.0
H1252 H 0.0155 0.87908 0.56281 0.0
H1253 H 0.02497 0.83404 0.51513 0.0
H1254 H 0.031 0.85458 0.51312 0.0
H1255 H 0.01059 0.8483 0.51021 0.0
C1256 C 0.03633 0.90275 0.52504 0.0
C1257 C 0.02578 0.90593 0.51255 0.0
C1258 C 0.03378 0.88946 0.53445 0.0
C1259 C 0.02073 0.87907 0.53147 0.0
C1260 C 0.01007 0.8823 0.51916 0.0
H1261 H 0.98206 0.79373 0.57341 0.0
H1262 H 0.98746 0.81731 0.55769 0.0
C1263 C 0.01259 0.89557 0.50976 0.0
C1264 C 0.01807 0.86497 0.5414 0.0
H1265 H 0.01461 0.82469 0.53962 0.0
C1266 C 0.0154 0.86717 0.55779 0.0
C1267 C 0.01795 0.84948 0.53477 0.0
C1268 C 0.02142 0.84639 0.51737 0.0
C1269 C 0.01223 0.85427 0.56768 0.0
C1270 C 0.01198 0.83879 0.56102 0.0
C1271 C 0.01477 0.83659 0.54466 0.0
C1272 C 0.00871 0.82468 0.57079 0.0
C1273 C 0.00876 0.85734 0.58509 0.0
C1274 C 0.01897 0.82094 0.58326 0.0
C1275 C 0.01593 0.80748 0.59229 0.0
C1276 C 0.0026 0.79746 0.58893 0.0
C1277 C 0.99241 0.8012 0.57634 0.0
C1278 C 0.99547 0.81466 0.56733 0.0
H1279 H 0.00561 0.86979 0.58743 0.0
H1280 H 0.99889 0.84941 0.5892 0.0
H1281 H 0.01945 0.85498 0.59229 0.0
H1282 H 0.02943 0.82836 0.58592 0.0
H1283 H 0.02406 0.80489 0.60185 0.0
H1284 H 0.13194 0.75059 0.75672 0.0
H1285 H 0.11063 0.75623 0.73806 0.0
H1286 H 0.12251 0.71582 0.70901 0.0
H1287 H 0.14393 0.71012 0.72761 0.0
H1288 H 0.11319 0.76261 0.70552 0.0
H1289 H 0.0746 0.70919 0.71569 0.0
H1290 H 0.09057 0.71536 0.72909 0.0
H1291 H 0.09476 0.70528 0.71062 0.0
C1292 C 0.13007 0.74293 0.74633 0.0
C1293 C 0.13963 0.7299 0.74364 0.0
C1294 C 0.11784 0.74613 0.73572 0.0
C1295 C 0.11488 0.73634 0.72227 0.0
C1296 C 0.1244 0.72334 0.71951 0.0
H1297 H 0.04621 0.73955 0.64477 0.0
H1298 H 0.06822 0.73309 0.66228 0.0
C1299 C 0.13663 0.7201 0.73013 0.0
C1300 C 0.1021 0.74006 0.71094 0.0
H1301 H 0.06698 0.72588 0.6949 0.0
C1302 C 0.10306 0.7546 0.70321 0.0
C1303 C 0.08895 0.72955 0.70794 0.0
C1304 C 0.08702 0.71402 0.71635 0.0
C1305 C 0.09127 0.7589 0.69244 0.0
C1306 C 0.07805 0.74846 0.68955 0.0
C1307 C 0.07715 0.73385 0.69716 0.0
C1308 C 0.0649 0.75259 0.67884 0.0
C1309 C 0.09319 0.77446 0.68408 0.0
C1310 C 0.05566 0.76561 0.68245 0.0
C1311 C 0.04309 0.76935 0.67247 0.0
C1312 C 0.03947 0.76007 0.65874 0.0
C1313 C 0.04871 0.74698 0.65521 0.0
C1314 C 0.06128 0.74324 0.66521 0.0
H1315 H 0.1057 0.77905 0.68434 0.0
H1316 H 0.08918 0.77329 0.67146 0.0
H1317 H 0.08584 0.78331 0.69017 0.0
H1318 H 0.05808 0.77278 0.69308 0.0
H1319 H 0.03617 0.77946 0.67558 0.0
H1320 H 0.99725 0.61664 0.50644 0.0
H1321 H 0.00084 0.63941 0.52473 0.0
H1322 H 0.95736 0.62599 0.54854 0.0
H1323 H 0.95349 0.6034 0.53008 0.0
H1324 H 0.96058 0.65863 0.54117 0.0
H1325 H 0.01364 0.63715 0.57236 0.0
H1326 H 0.01504 0.6374 0.55098 0.0
H1327 H 0.00071 0.62434 0.5602 0.0
C1328 C 0.9884 0.6186 0.5155 0.0
C1329 C 0.97512 0.60819 0.51686 0.0
C1330 C 0.99054 0.63152 0.52603 0.0
C1331 C 0.97947 0.63423 0.5381 0.0
C1332 C 0.96609 0.62401 0.53936 0.0
H1333 H 0.99139 0.69706 0.6207 0.0
H1334 H 0.98654 0.67441 0.60254 0.0
C1335 C 0.96396 0.61107 0.52887 0.0
C1336 C 0.98175 0.64782 0.54935 0.0
H1337 H 0.00646 0.66339 0.57844 0.0
C1338 C 0.97058 0.65968 0.54936 0.0
C1339 C 0.99471 0.64901 0.56012 0.0
C1340 C 0.00666 0.63625 0.56108 0.0
C1341 C 0.97218 0.67289 0.5597 0.0
C1342 C 0.98539 0.67431 0.57015 0.0
C1343 C 0.99641 0.66231 0.57032 0.0
C1344 C 0.98798 0.68813 0.58107 0.0
C1345 C 0.9596 0.68509 0.55953 0.0
C1346 C 0.99052 0.70331 0.57499 0.0
C1347 C 0.99328 0.71629 0.58532 0.0
C1348 C 0.99365 0.71428 0.60193 0.0
C1349 C 0.99116 0.69902 0.60797 0.0
C1350 C 0.9884 0.68606 0.59762 0.0
H1351 H 0.94842 0.68035 0.55389 0.0
H1352 H 0.95698 0.68935 0.57181 0.0
H1353 H 0.96393 0.69536 0.55255 0.0
H1354 H 0.99055 0.70511 0.56223 0.0
H1355 H 0.99523 0.72787 0.58027 0.0
H1356 H 0.743 0.89171 0.20022 0.0
H1357 H 0.76069 0.91503 0.20428 0.0
H1358 H 0.79107 0.88816 0.23411 0.0
H1359 H 0.77347 0.8648 0.23008 0.0
H1360 H 0.76922 0.93064 0.23249 0.0
H1361 H 0.82221 0.90751 0.20237 0.0
H1362 H 0.80274 0.89812 0.20021 0.0
H1363 H 0.81446 0.89504 0.21777 0.0
C1364 C 0.75343 0.89078 0.20768 0.0
C1365 C 0.75688 0.8764 0.21477 0.0
C1366 C 0.76355 0.90409 0.20993 0.0
C1367 C 0.77732 0.90325 0.21928 0.0
C1368 C 0.78072 0.88896 0.22652 0.0
H1369 H 0.85073 0.97075 0.25171 0.0
H1370 H 0.83318 0.94746 0.24692 0.0
C1371 C 0.77064 0.87563 0.22423 0.0
C1372 C 0.78788 0.91745 0.22182 0.0
H1373 H 0.82591 0.93171 0.21702 0.0
C1374 C 0.78159 0.93092 0.22902 0.0
C1375 C 0.80402 0.91775 0.21729 0.0
C1376 C 0.81125 0.90389 0.20884 0.0
C1377 C 0.79108 0.94461 0.2321 0.0
C1378 C 0.80723 0.94487 0.22766 0.0
C1379 C 0.81352 0.93142 0.22043 0.0
C1380 C 0.8178 0.95899 0.23045 0.0
C1381 C 0.78387 0.95858 0.24038 0.0
C1382 C 0.81504 0.97311 0.2226 0.0
C1383 C 0.82504 0.98643 0.22528 0.0
C1384 C 0.83801 0.98584 0.23583 0.0
C1385 C 0.84082 0.97161 0.24354 0.0
C1386 C 0.83083 0.95829 0.24082 0.0
H1387 H 0.77248 0.95524 0.24623 0.0
H1388 H 0.79213 0.96392 0.24951 0.0
H1389 H 0.78148 0.96771 0.23146 0.0
H1390 H 0.80518 0.97379 0.21435 0.0
H1391 H 0.82258 0.99719 0.2191 0.0
H1392 H 0.77159 0.16401 0.27682 0.0
H1393 H 0.78913 0.14195 0.27282 0.0
H1394 H 0.75754 0.11201 0.30021 0.0
H1395 H 0.73993 0.13402 0.30428 0.0
H1396 H 0.80468 0.12453 0.29547 0.0
H1397 H 0.76306 0.0861 0.25912 0.0
H1398 H 0.75981 0.10677 0.26296 0.0
H1399 H 0.75525 0.09246 0.27797 0.0
C1400 C 0.76841 0.15275 0.28206 0.0
C1401 C 0.75434 0.15074 0.29082 0.0
C1402 C 0.77841 0.14015 0.2797 0.0
C1403 C 0.77451 0.1253 0.28601 0.0
C1404 C 0.76058 0.12328 0.29492 0.0
H1405 H 0.82123 0.03566 0.28531 0.0
H1406 H 0.80368 0.05753 0.29036 0.0
C1407 C 0.75054 0.13587 0.29725 0.0
C1408 C 0.78521 0.11202 0.2835 0.0
H1409 H 0.78703 0.07484 0.26726 0.0
C1410 C 0.80085 0.11368 0.28926 0.0
C1411 C 0.78016 0.09788 0.27541 0.0
C1412 C 0.7637 0.09569 0.26837 0.0
C1413 C 0.81153 0.1015 0.28731 0.0
C1414 C 0.80648 0.08738 0.2792 0.0
C1415 C 0.79083 0.08568 0.27351 0.0
C1416 C 0.8173 0.07429 0.27634 0.0
C1417 C 0.82805 0.10371 0.29417 0.0
C1418 C 0.83068 0.07647 0.26666 0.0
C1419 C 0.84073 0.064 0.26373 0.0
C1420 C 0.83753 0.04912 0.27039 0.0
C1421 C 0.82406 0.04698 0.28004 0.0
C1422 C 0.81401 0.05945 0.28293 0.0
H1423 H 0.82882 0.11341 0.30329 0.0
H1424 H 0.83192 0.09266 0.29968 0.0
H1425 H 0.83643 0.10674 0.28445 0.0
H1426 H 0.83326 0.08777 0.26123 0.0
H1427 H 0.85095 0.06603 0.25619 0.0
H1428 H 0.40979 0.97468 0.00065 0.0
H1429 H 0.3869 0.95741 0.00699 0.0
H1430 H 0.3599 0.97813 0.96954 0.0
H1431 H 0.38259 0.9957 0.9633 0.0
H1432 H 0.35566 0.96781 0.01575 0.0
H1433 H 0.35489 0.92948 0.96109 0.0
H1434 H 0.37216 0.9413 0.96735 0.0
H1435 H 0.35582 0.95042 0.95788 0.0
C1436 C 0.39897 0.97563 0.99379 0.0
C1437 C 0.39803 0.98659 0.98146 0.0
C1438 C 0.38594 0.96569 0.99738 0.0
C1439 C 0.37181 0.9664 0.98862 0.0
C1440 C 0.37082 0.97723 0.97625 0.0
H1441 H 0.27999 0.91715 0.99281 0.0
H1442 H 0.30298 0.93406 0.98593 0.0
C1443 C 0.38381 0.98722 0.97268 0.0
C1444 C 0.35789 0.95623 0.99283 0.0
H1445 H 0.33338 0.92605 0.97884 0.0
C1446 C 0.3508 0.95863 0.00773 0.0
C1447 C 0.35157 0.94437 0.98227 0.0
C1448 C 0.35903 0.94109 0.96629 0.0
C1449 C 0.33736 0.94959 0.01229 0.0
C1450 C 0.33111 0.9376 0.00179 0.0
C1451 C 0.33821 0.93524 0.98687 0.0
C1452 C 0.31721 0.92736 0.00607 0.0
C1453 C 0.32976 0.95325 0.02813 0.0
C1454 C 0.31767 0.91784 0.01956 0.0
C1455 C 0.30452 0.90825 0.02359 0.0
C1456 C 0.29073 0.90786 0.01407 0.0
C1457 C 0.29041 0.91721 0.00041 0.0
C1458 C 0.30354 0.92687 0.99645 0.0
H1459 H 0.33313 0.96537 0.03255 0.0
H1460 H 0.31663 0.95209 0.02727 0.0
H1461 H 0.33381 0.94479 0.03709 0.0
H1462 H 0.32824 0.91775 0.02693 0.0
H1463 H 0.30521 0.90108 0.0341 0.0
H1464 H 0.25811 0.37509 0.29593 0.0
H1465 H 0.24047 0.39713 0.29294 0.0
H1466 H 0.20764 0.36689 0.26574 0.0
H1467 H 0.22523 0.34482 0.26861 0.0
H1468 H 0.23004 0.41048 0.26473 0.0
H1469 H 0.17935 0.38639 0.29982 0.0
H1470 H 0.19886 0.37839 0.30074 0.0
H1471 H 0.18586 0.37339 0.2842 0.0
C1472 C 0.24716 0.37314 0.28927 0.0
C1473 C 0.24305 0.35819 0.28255 0.0
C1474 C 0.23707 0.38572 0.28763 0.0
C1475 C 0.22265 0.38357 0.27933 0.0
C1476 C 0.21854 0.3687 0.27252 0.0
H1477 H 0.14773 0.44578 0.25325 0.0
H1478 H 0.16494 0.42344 0.25661 0.0
C1479 C 0.22861 0.35611 0.27416 0.0
C1480 C 0.21215 0.39703 0.27737 0.0
H1481 H 0.17502 0.40968 0.28537 0.0
C1482 C 0.21803 0.41035 0.2693 0.0
C1483 C 0.19649 0.39678 0.28332 0.0
C1484 C 0.18977 0.38304 0.29263 0.0
C1485 C 0.20858 0.42337 0.2668 0.0
C1486 C 0.19293 0.42312 0.27276 0.0
C1487 C 0.18703 0.40979 0.2808 0.0
C1488 C 0.18252 0.43664 0.27085 0.0
C1489 C 0.21531 0.43714 0.25754 0.0
C1490 C 0.18661 0.45138 0.27795 0.0
C1491 C 0.17682 0.46416 0.27607 0.0
C1492 C 0.16271 0.46241 0.2671 0.0
C1493 C 0.15854 0.44755 0.26019 0.0
C1494 C 0.16834 0.43477 0.2621 0.0
H1495 H 0.22583 0.43385 0.25046 0.0
H1496 H 0.20626 0.44171 0.24933 0.0
H1497 H 0.21906 0.44683 0.26599 0.0
H1498 H 0.19736 0.45298 0.28501 0.0
H1499 H 0.18035 0.47541 0.28163 0.0
H1500 H 0.09299 0.04284 0.48871 0.0
H1501 H 0.11563 0.06139 0.49301 0.0
H1502 H 0.14455 0.03203 0.46332 0.0
H1503 H 0.12192 0.01353 0.45885 0.0
H1504 H 0.1443 0.05635 0.50661 0.0
H1505 H 0.15254 0.07503 0.44408 0.0
H1506 H 0.13498 0.06421 0.45056 0.0
H1507 H 0.15286 0.05402 0.44635 0.0
C1508 C 0.10418 0.04035 0.48311 0.0
C1509 C 0.10567 0.02677 0.47339 0.0
C1510 C 0.11708 0.05097 0.48552 0.0
C1511 C 0.13169 0.04823 0.47826 0.0
C1512 C 0.13327 0.0346 0.46869 0.0
H1513 H 0.22542 0.0933 0.48453 0.0
H1514 H 0.20232 0.07554 0.47941 0.0
C1515 C 0.12035 0.02402 0.46618 0.0
C1516 C 0.14543 0.05936 0.48119 0.0
H1517 H 0.17302 0.08294 0.46254 0.0
C1518 C 0.15051 0.06225 0.49698 0.0
C1519 C 0.15351 0.06704 0.4686 0.0
C1520 C 0.14812 0.06506 0.45146 0.0
C1521 C 0.16365 0.07238 0.50052 0.0
C1522 C 0.1718 0.07991 0.48793 0.0
C1523 C 0.16673 0.07708 0.47214 0.0
C1524 C 0.18567 0.09078 0.49093 0.0
C1525 C 0.16891 0.07474 0.51766 0.0
C1526 C 0.18385 0.10529 0.49894 0.0
C1527 C 0.197 0.11549 0.50185 0.0
C1528 C 0.21218 0.11133 0.49681 0.0
C1529 C 0.2139 0.09683 0.48864 0.0
C1530 C 0.20073 0.08667 0.48567 0.0
H1531 H 0.16343 0.06569 0.52553 0.0
H1532 H 0.18202 0.07432 0.51868 0.0
H1533 H 0.1654 0.08655 0.52202 0.0
H1534 H 0.17226 0.10873 0.50289 0.0
H1535 H 0.19525 0.12659 0.50812 0.0
H1536 H 0.72013 0.14443 0.70124 0.0
H1537 H 0.70278 0.12099 0.70489 0.0
H1538 H 0.73081 0.10813 0.74544 0.0
H1539 H 0.74818 0.13156 0.74191 0.0
H1540 H 0.72435 0.08313 0.72423 0.0
H1541 H 0.66951 0.1141 0.73967 0.0
H1542 H 0.6784 0.12018 0.72126 0.0
H1543 H 0.68885 0.12397 0.73977 0.0
C1544 C 0.72249 0.13671 0.71105 0.0
C1545 C 0.7355 0.13987 0.72132 0.0
C1546 C 0.71256 0.12333 0.71312 0.0
C1547 C 0.71539 0.11296 0.72557 0.0
C1548 C 0.72841 0.11602 0.73578 0.0
H1549 H 0.65155 0.03901 0.76058 0.0
H1550 H 0.66872 0.06262 0.7573 0.0
C1551 C 0.73836 0.12937 0.7337 0.0
C1552 C 0.70501 0.09868 0.72773 0.0
H1553 H 0.66681 0.08636 0.73505 0.0
C1554 C 0.71177 0.08381 0.72663 0.0
C1555 C 0.68866 0.09965 0.73106 0.0
C1556 C 0.68092 0.11532 0.73317 0.0
C1557 C 0.70257 0.06985 0.72855 0.0
C1558 C 0.68612 0.0708 0.73138 0.0
C1559 C 0.6794 0.08567 0.73272 0.0
C1560 C 0.67571 0.05649 0.73323 0.0
C1561 C 0.71058 0.05422 0.72781 0.0
C1562 C 0.6738 0.04533 0.72071 0.0
C1563 C 0.66404 0.0318 0.72256 0.0
C1564 C 0.65591 0.02926 0.73693 0.0
C1565 C 0.65767 0.0406 0.74937 0.0
C1566 C 0.66746 0.0541 0.74752 0.0
H1567 H 0.7236 0.05571 0.72972 0.0
H1568 H 0.70566 0.04605 0.73688 0.0
H1569 H 0.70853 0.04864 0.71585 0.0
H1570 H 0.67981 0.04713 0.70947 0.0
H1571 H 0.66286 0.02337 0.7127 0.0
H1572 H 0.38375 0.00832 0.53487 0.0
H1573 H 0.36316 0.02738 0.53048 0.0
H1574 H 0.39547 0.05516 0.50172 0.0
H1575 H 0.41612 0.03617 0.50607 0.0
H1576 H 0.36388 0.05941 0.53841 0.0
H1577 H 0.35627 0.04987 0.47307 0.0
H1578 H 0.36661 0.03634 0.48542 0.0
H1579 H 0.37635 0.05444 0.47928 0.0
C1580 C 0.38648 0.0185 0.52764 0.0
C1581 C 0.40155 0.02071 0.52077 0.0
C1582 C 0.37469 0.02934 0.52509 0.0
C1583 C 0.37772 0.04255 0.51559 0.0
C1584 C 0.39277 0.04485 0.50878 0.0
H1585 H 0.32254 0.1228 0.4896 0.0
H1586 H 0.34356 0.10416 0.49384 0.0
C1587 C 0.40455 0.03399 0.51129 0.0
C1588 C 0.36527 0.05418 0.51323 0.0
H1589 H 0.34305 0.07144 0.48474 0.0
C1590 C 0.35927 0.062 0.52669 0.0
C1591 C 0.35932 0.05754 0.49791 0.0
C1592 C 0.36484 0.04902 0.48309 0.0
C1593 C 0.3476 0.07327 0.52523 0.0
C1594 C 0.34166 0.07662 0.50992 0.0
C1595 C 0.34769 0.06885 0.49645 0.0
C1596 C 0.32899 0.088 0.50764 0.0
C1597 C 0.34192 0.08169 0.54004 0.0
C1598 C 0.31382 0.08498 0.51389 0.0
C1599 C 0.30178 0.09558 0.51148 0.0
C1600 C 0.30469 0.10937 0.50272 0.0
C1601 C 0.31991 0.11233 0.49644 0.0
C1602 C 0.33193 0.10169 0.49883 0.0
H1603 H 0.3503 0.08065 0.5502 0.0
H1604 H 0.34034 0.09441 0.53778 0.0
H1605 H 0.33028 0.07637 0.54358 0.0
H1606 H 0.31124 0.07433 0.52049 0.0
H1607 H 0.29017 0.0929 0.51642 0.0
H1608 H 0.59635 0.47831 0.54872 0.0
H1609 H 0.61968 0.46229 0.54504 0.0
H1610 H 0.6337 0.49015 0.50466 0.0
H1611 H 0.61058 0.50641 0.50841 0.0
H1612 H 0.62875 0.44458 0.51667 0.0
H1613 H 0.6732 0.49177 0.53477 0.0
H1614 H 0.6524 0.4928 0.53951 0.0
H1615 H 0.65919 0.49704 0.51974 0.0
C1616 C 0.60446 0.48109 0.53912 0.0
C1617 C 0.60167 0.49367 0.5289 0.0
C1618 C 0.61771 0.47188 0.53699 0.0
C1619 C 0.62847 0.47518 0.52471 0.0
C1620 C 0.62562 0.48756 0.51433 0.0
H1621 H 0.71736 0.4368 0.49454 0.0
H1622 H 0.69359 0.4521 0.49798 0.0
C1623 C 0.61234 0.49673 0.51641 0.0
C1624 C 0.64269 0.46566 0.52274 0.0
H1625 H 0.68312 0.46787 0.52458 0.0
C1626 C 0.64065 0.44961 0.51845 0.0
C1627 C 0.65816 0.47233 0.52504 0.0
C1628 C 0.66096 0.4894 0.53014 0.0
C1629 C 0.65373 0.44009 0.51609 0.0
C1630 C 0.66922 0.44675 0.51845 0.0
C1631 C 0.67124 0.4628 0.52278 0.0
C1632 C 0.68354 0.43732 0.5164 0.0
C1633 C 0.65085 0.42311 0.5107 0.0
C1634 C 0.68588 0.42405 0.52577 0.0
C1635 C 0.69943 0.41523 0.52378 0.0
C1636 C 0.71097 0.41962 0.51251 0.0
C1637 C 0.7087 0.43308 0.50332 0.0
C1638 C 0.69512 0.44184 0.50527 0.0
H1639 H 0.63887 0.42112 0.50528 0.0
H1640 H 0.65986 0.41951 0.50187 0.0
H1641 H 0.65165 0.41536 0.52115 0.0
H1642 H 0.67728 0.42057 0.5347 0.0
H1643 H 0.70087 0.405 0.53113 0.0
H1644 H 0.69679 0.288 0.358 0.0
H1645 H 0.70146 0.30769 0.37943 0.0
H1646 H 0.74053 0.28136 0.39679 0.0
H1647 H 0.73626 0.26186 0.37513 0.0
H1648 H 0.70097 0.30319 0.41244 0.0
H1649 H 0.75985 0.32633 0.39244 0.0
H1650 H 0.74668 0.31443 0.37965 0.0
H1651 H 0.75844 0.30526 0.39454 0.0
C1652 C 0.70651 0.2865 0.36626 0.0
C1653 C 0.71622 0.27341 0.3648 0.0
C1654 C 0.70908 0.2977 0.37855 0.0
C1655 C 0.72147 0.29608 0.38954 0.0
C1656 C 0.73108 0.28296 0.38826 0.0
H1657 H 0.73445 0.34224 0.48199 0.0
H1658 H 0.72943 0.32358 0.45977 0.0
C1659 C 0.7285 0.27174 0.37598 0.0
C1660 C 0.72412 0.30797 0.40256 0.0
H1661 H 0.75144 0.33484 0.41811 0.0
C1662 C 0.71198 0.31016 0.41366 0.0
C1663 C 0.73841 0.31716 0.40398 0.0
C1664 C 0.75155 0.31582 0.39195 0.0
C1665 C 0.71387 0.32112 0.42637 0.0
C1666 C 0.72837 0.32993 0.42809 0.0
C1667 C 0.74039 0.32796 0.41681 0.0
C1668 C 0.73131 0.34126 0.44155 0.0
C1669 C 0.70028 0.32331 0.43772 0.0
C1670 C 0.73435 0.35734 0.43862 0.0
C1671 C 0.73729 0.36804 0.45128 0.0
C1672 C 0.73733 0.36283 0.4671 0.0
C1673 C 0.7344 0.34667 0.46997 0.0
C1674 C 0.73146 0.33599 0.45729 0.0
H1675 H 0.68882 0.31877 0.43249 0.0
H1676 H 0.70248 0.31669 0.44876 0.0
H1677 H 0.69919 0.33597 0.44109 0.0
H1678 H 0.73437 0.36161 0.42652 0.0
H1679 H 0.73956 0.38039 0.44866 0.0
H1680 H 0.53312 0.01421 0.91539 0.0
H1681 H 0.55205 0.00963 0.89393 0.0
H1682 H 0.52366 0.03623 0.86192 0.0
H1683 H 0.50469 0.04089 0.88332 0.0
H1684 H 0.54732 0.99468 0.86474 0.0
H1685 H 0.56765 0.05711 0.85712 0.0
H1686 H 0.55636 0.05066 0.87417 0.0
H1687 H 0.54654 0.05395 0.85551 0.0
C1688 C 0.53087 0.01903 0.90376 0.0
C1689 C 0.51744 0.02796 0.90106 0.0
C1690 C 0.54173 0.01646 0.89154 0.0
C1691 C 0.53939 0.0228 0.87642 0.0
C1692 C 0.52589 0.03156 0.87361 0.0
H1693 H 0.58349 0.99426 0.78775 0.0
H1694 H 0.56542 0.99871 0.80994 0.0
C1695 C 0.51506 0.03419 0.88584 0.0
C1696 C 0.55089 0.01993 0.86349 0.0
H1697 H 0.57586 0.03859 0.83742 0.0
C1698 C 0.55362 0.00427 0.8588 0.0
C1699 C 0.55924 0.03246 0.85591 0.0
C1700 C 0.55745 0.04949 0.86101 0.0
C1701 C 0.56427 0.0008 0.84653 0.0
C1702 C 0.57217 0.01335 0.83857 0.0
C1703 C 0.56967 0.029 0.84345 0.0
C1704 C 0.58315 0.01051 0.82517 0.0
C1705 C 0.56713 0.98372 0.84238 0.0
C1706 C 0.59903 0.01599 0.82623 0.0
C1707 C 0.60937 0.01358 0.81352 0.0
C1708 C 0.60399 0.00569 0.79948 0.0
C1709 C 0.58804 0.00028 0.79844 0.0
C1710 C 0.57771 0.00273 0.81114 0.0
H1711 H 0.56364 0.97579 0.85226 0.0
H1712 H 0.55993 0.98009 0.83173 0.0
H1713 H 0.5798 0.98202 0.83955 0.0
H1714 H 0.60343 0.02209 0.83693 0.0
H1715 H 0.62156 0.01793 0.8147 0.0
H1716 H 0.30023 0.24962 0.36886 0.0
H1717 H 0.29617 0.2308 0.39039 0.0
H1718 H 0.26292 0.2034 0.36087 0.0
H1719 H 0.26712 0.22199 0.33917 0.0
H1720 H 0.26641 0.22242 0.40519 0.0
H1721 H 0.29457 0.17072 0.37683 0.0
H1722 H 0.29809 0.19066 0.37009 0.0
H1723 H 0.27997 0.17997 0.36485 0.0
C1724 C 0.2922 0.23948 0.36689 0.0
C1725 C 0.28403 0.23725 0.3523 0.0
C1726 C 0.28984 0.2288 0.37922 0.0
C1727 C 0.2794 0.21564 0.37713 0.0
C1728 C 0.2712 0.21337 0.36262 0.0
H1729 H 0.24781 0.13861 0.43722 0.0
H1730 H 0.25271 0.15683 0.41535 0.0
C1731 C 0.2735 0.22408 0.3503 0.0
C1732 C 0.27669 0.20455 0.39033 0.0
H1733 H 0.281 0.16628 0.40108 0.0
C1734 C 0.26965 0.21016 0.40435 0.0
C1735 C 0.28088 0.18857 0.38911 0.0
C1736 C 0.28892 0.18209 0.37447 0.0
C1737 C 0.26643 0.20012 0.41714 0.0
C1738 C 0.2707 0.18414 0.41597 0.0
C1739 C 0.27774 0.17854 0.40193 0.0
C1740 C 0.26796 0.17305 0.4292 0.0
C1741 C 0.25814 0.20663 0.43162 0.0
C1742 C 0.27514 0.17601 0.44415 0.0
C1743 C 0.27232 0.16568 0.45668 0.0
C1744 C 0.26239 0.15209 0.45445 0.0
C1745 C 0.25549 0.14898 0.43935 0.0
C1746 C 0.25828 0.15937 0.42684 0.0
H1747 H 0.2519 0.21759 0.42889 0.0
H1748 H 0.2494 0.19782 0.43636 0.0
H1749 H 0.26705 0.20958 0.4411 0.0
H1750 H 0.28295 0.18632 0.44612 0.0
H1751 H 0.27792 0.16836 0.46812 0.0
H1752 H 0.46732 0.49409 0.90851 0.0
H1753 H 0.44937 0.49718 0.88587 0.0
H1754 H 0.48306 0.47573 0.85449 0.0
H1755 H 0.50098 0.47229 0.87708 0.0
H1756 H 0.47046 0.50485 0.8436 0.0
H1757 H 0.4236 0.46104 0.8618 0.0
H1758 H 0.42965 0.47554 0.8768 0.0
H1759 H 0.44348 0.46136 0.8699 0.0
C1760 C 0.47084 0.48984 0.89683 0.0
C1761 C 0.48559 0.4829 0.89462 0.0
C1762 C 0.46058 0.49165 0.88392 0.0
C1763 C 0.46485 0.48654 0.86858 0.0
C1764 C 0.47957 0.47974 0.86627 0.0
H1765 H 0.40689 0.47415 0.78336 0.0
H1766 H 0.42468 0.47092 0.8061 0.0
C1767 C 0.48982 0.47787 0.87918 0.0
C1768 C 0.45408 0.48852 0.85485 0.0
H1769 H 0.41796 0.47659 0.83944 0.0
C1770 C 0.45898 0.49868 0.84266 0.0
C1771 C 0.4392 0.48032 0.85364 0.0
C1772 C 0.43366 0.46884 0.86615 0.0
C1773 C 0.44927 0.50101 0.82933 0.0
C1774 C 0.43426 0.49306 0.82829 0.0
C1775 C 0.42944 0.48275 0.84037 0.0
C1776 C 0.42346 0.49512 0.81459 0.0
C1777 C 0.45522 0.51177 0.81637 0.0
C1778 C 0.41678 0.50977 0.81198 0.0
C1779 C 0.40658 0.51166 0.79903 0.0
C1780 C 0.40288 0.49891 0.78847 0.0
C1781 C 0.40953 0.48422 0.79122 0.0
C1782 C 0.41967 0.48233 0.80422 0.0
H1783 H 0.46821 0.51428 0.81731 0.0
H1784 H 0.45247 0.50649 0.80439 0.0
H1785 H 0.44919 0.52317 0.81735 0.0
H1786 H 0.4194 0.51972 0.82001 0.0
H1787 H 0.40162 0.52311 0.79728 0.0
H1788 H 0.70295 0.7631 0.12225 0.0
H1789 H 0.70794 0.74465 0.10018 0.0
H1790 H 0.74197 0.72134 0.12917 0.0
H1791 H 0.73669 0.73941 0.15147 0.0
H1792 H 0.73678 0.73968 0.08485 0.0
H1793 H 0.71299 0.68468 0.11245 0.0
H1794 H 0.70887 0.70412 0.12024 0.0
H1795 H 0.72762 0.69559 0.12428 0.0
C1796 C 0.71133 0.7539 0.12401 0.0
C1797 C 0.71936 0.75267 0.13865 0.0
C1798 C 0.71424 0.74345 0.11136 0.0
C1799 C 0.72516 0.73151 0.11312 0.0
C1800 C 0.73329 0.7303 0.12766 0.0
H1801 H 0.75974 0.65881 0.04894 0.0
H1802 H 0.7552 0.67678 0.07156 0.0
C1803 C 0.73039 0.74075 0.14033 0.0
C1804 C 0.72835 0.72063 0.09958 0.0
H1805 H 0.72639 0.68176 0.08784 0.0
C1806 C 0.73446 0.72702 0.08547 0.0
C1807 C 0.72535 0.70412 0.10047 0.0
C1808 C 0.71822 0.69669 0.11511 0.0
C1809 C 0.73784 0.71731 0.07226 0.0
C1810 C 0.73478 0.70082 0.07312 0.0
C1811 C 0.72874 0.69441 0.08725 0.0
C1812 C 0.73754 0.69004 0.05939 0.0
C1813 C 0.74491 0.72475 0.05758 0.0
C1814 C 0.72896 0.69144 0.04515 0.0
C1815 C 0.73151 0.68122 0.03222 0.0
C1816 C 0.74265 0.66934 0.03332 0.0
C1817 C 0.75112 0.66787 0.04768 0.0
C1818 C 0.74853 0.6781 0.06062 0.0
H1819 H 0.75025 0.73671 0.06026 0.0
H1820 H 0.75415 0.71727 0.05233 0.0
H1821 H 0.73544 0.72596 0.04851 0.0
H1822 H 0.7202 0.70039 0.04408 0.0
H1823 H 0.72472 0.68262 0.02137 0.0
H1824 H 0.97175 0.05488 0.1024 0.0
H1825 H 0.95498 0.05125 0.12586 0.0
H1826 H 0.9807 0.01016 0.13828 0.0
H1827 H 0.99788 0.01402 0.11521 0.0
H1828 H 0.93539 0.02538 0.1336 0.0
H1829 H 0.98222 0.0365 0.17962 0.0
H1830 H 0.985 0.04154 0.15898 0.0
H1831 H 0.98679 0.02147 0.16514 0.0
C1832 C 0.97398 0.04519 0.11024 0.0
C1833 C 0.98622 0.03479 0.10698 0.0
C1834 C 0.96431 0.04307 0.12357 0.0
C1835 C 0.96676 0.03058 0.13393 0.0
C1836 C 0.97881 0.02005 0.1306 0.0
H1837 H 0.92067 0.99519 0.21863 0.0
H1838 H 0.9372 -0.00055 0.19512 0.0
C1839 C 0.98849 0.02217 0.11729 0.0
C1840 C 0.9565 0.02839 0.14805 0.0
H1841 H 0.95726 0.02645 0.18868 0.0
C1842 C 0.94014 0.0257 0.14565 0.0
C1843 C 0.96276 0.02882 0.16375 0.0
C1844 C 0.98013 0.03238 0.16709 0.0
C1845 C 0.92989 0.02311 0.15854 0.0
C1846 C 0.93617 0.02343 0.17422 0.0
C1847 C 0.95251 0.02617 0.17662 0.0
C1848 C 0.92599 0.02087 0.18831 0.0
C1849 C 0.91248 0.0197 0.15528 0.0
C1850 C 0.91433 0.03161 0.19233 0.0
C1851 C 0.90487 0.02924 0.20577 0.0
C1852 C 0.90695 0.01609 0.21545 0.0
C1853 C 0.91872 0.00541 0.21142 0.0
C1854 C 0.92819 0.00782 0.198 0.0
H1855 H 0.91018 0.0163 0.14259 0.0
H1856 H 0.90779 0.01008 0.16294 0.0
H1857 H 0.90582 0.03046 0.15805 0.0
H1858 H 0.91264 0.04191 0.18514 0.0
H1859 H 0.89595 0.03772 0.20857 0.0
H1860 H 0.2645 0.77915 0.16121 0.0
H1861 H 0.26077 0.79729 0.13928 0.0
H1862 H 0.28606 0.76643 0.10771 0.0
H1863 H 0.29023 0.74841 0.12968 0.0
H1864 H 0.29575 0.79881 0.10623 0.0
H1865 H 0.23033 0.79008 0.10105 0.0
H1866 H 0.23749 0.79517 0.12077 0.0
H1867 H 0.24252 0.77666 0.11165 0.0
C1868 C 0.26935 0.77626 0.14962 0.0
C1869 C 0.27764 0.76232 0.14717 0.0
C1870 C 0.26706 0.78655 0.13708 0.0
C1871 C 0.27294 0.78307 0.12185 0.0
C1872 C 0.28133 0.76926 0.11937 0.0
H1873 H 0.27368 0.82974 0.03069 0.0
H1874 H 0.27779 0.81208 0.0529 0.0
C1875 C 0.28361 0.75893 0.1319 0.0
C1876 C 0.27065 0.79402 0.10857 0.0
H1877 H 0.24226 0.8105 0.08578 0.0
C1878 C 0.28407 0.80134 0.1017 0.0
C1879 C 0.25538 0.79729 0.10275 0.0
C1880 C 0.24059 0.7893 0.10932 0.0
C1881 C 0.28263 0.81207 0.08928 0.0
C1882 C 0.26736 0.81532 0.08343 0.0
C1883 C 0.25394 0.80801 0.09032 0.0
C1884 C 0.26505 0.82614 0.07004 0.0
C1885 C 0.29743 0.82008 0.08277 0.0
C1886 C 0.25623 0.83971 0.07224 0.0
C1887 C 0.25376 0.8498 0.05954 0.0
C1888 C 0.26001 0.84641 0.04439 0.0
C1889 C 0.26878 0.83275 0.04222 0.0
C1890 C 0.27122 0.82267 0.05492 0.0
H1891 H 0.30758 0.81957 0.09121 0.0
H1892 H 0.30076 0.81401 0.07149 0.0
H1893 H 0.29542 0.83265 0.08014 0.0
H1894 H 0.25129 0.84253 0.08381 0.0
H1895 H 0.24693 0.86021 0.0616 0.0
H1896 H 0.03364 0.49425 0.09304 0.0
H1897 H 0.05044 0.49646 0.11691 0.0
H1898 H 0.01455 0.47107 0.14364 0.0
H1899 H 0.99793 0.46828 0.11971 0.0
H1900 H 0.04431 0.51069 0.14598 0.0
H1901 H 0.0543 0.44686 0.15309 0.0
H1902 H 0.04628 0.45471 0.13502 0.0
H1903 H 0.03373 0.45144 0.15199 0.0
C1904 C 0.02941 0.48895 0.10394 0.0
C1905 C 0.01448 0.48101 0.10444 0.0
C1906 C 0.03898 0.49031 0.11759 0.0
C1907 C 0.03384 0.48372 0.13197 0.0
C1908 C 0.01887 0.47598 0.13258 0.0
H1909 H 0.06961 0.50629 0.22706 0.0
H1910 H 0.05401 0.50337 0.20248 0.0
C1911 C 0.0093 0.47458 0.11894 0.0
C1912 C 0.04398 0.48527 0.14643 0.0
H1913 H 0.06238 0.46396 0.17476 0.0
C1914 C 0.04833 0.50048 0.15224 0.0
C1915 C 0.04938 0.47193 0.15444 0.0
C1916 C 0.04583 0.45531 0.14825 0.0
C1917 C 0.05767 0.50272 0.16605 0.0
C1918 C 0.06254 0.48938 0.17442 0.0
C1919 C 0.05848 0.47416 0.16842 0.0
C1920 C 0.07191 0.49095 0.18939 0.0
C1921 C 0.06242 0.51935 0.17144 0.0
C1922 C 0.08695 0.48451 0.19033 0.0
C1923 C 0.09586 0.48603 0.20442 0.0
C1924 C 0.08984 0.49398 0.21784 0.0
C1925 C 0.07465 0.5002 0.21692 0.0
C1926 C 0.06574 0.49863 0.20284 0.0
H1927 H 0.06149 0.52783 0.16157 0.0
H1928 H 0.0544 0.52312 0.18112 0.0
H1929 H 0.07476 0.52001 0.17613 0.0
H1930 H 0.09187 0.47845 0.1801 0.0
H1931 H 0.1075 0.48108 0.20474 0.0
H1932 H 0.34197 0.74062 0.28204 0.0
H1933 H 0.36431 0.74565 0.30041 0.0
H1934 H 0.39171 0.7121 0.27407 0.0
H1935 H 0.3696 0.70731 0.25538 0.0
H1936 H 0.37973 0.72365 0.3196 0.0
H1937 H 0.42096 0.75211 0.27642 0.0
H1938 H 0.39994 0.74947 0.27262 0.0
H1939 H 0.41273 0.73312 0.27011 0.0
C1940 C 0.35281 0.73445 0.28004 0.0
C1941 C 0.35404 0.72363 0.2672 0.0
C1942 C 0.36551 0.73726 0.2906 0.0
C1943 C 0.3797 0.7294 0.28846 0.0
C1944 C 0.38093 0.71847 0.27577 0.0
H1945 H 0.46992 0.73159 0.33861 0.0
H1946 H 0.44745 0.7257 0.32065 0.0
C1947 C 0.36823 0.71563 0.26521 0.0
C1948 C 0.39312 0.73246 0.29966 0.0
H1949 H 0.43149 0.74662 0.30187 0.0
C1950 C 0.39104 0.72872 0.31576 0.0
C1951 C 0.40785 0.73904 0.29457 0.0
C1952 C 0.41053 0.74381 0.27752 0.0
C1953 C 0.40341 0.73117 0.3269 0.0
C1954 C 0.41812 0.7378 0.32182 0.0
C1955 C 0.4202 0.74152 0.30571 0.0
C1956 C 0.43151 0.74109 0.33304 0.0
C1957 C 0.40072 0.72632 0.34392 0.0
C1958 C 0.43001 0.7518 0.34588 0.0
C1959 C 0.44281 0.75516 0.35621 0.0
C1960 C 0.45738 0.74798 0.35378 0.0
C1961 C 0.45885 0.73731 0.34085 0.0
C1962 C 0.44604 0.73393 0.33056 0.0
H1963 H 0.39055 0.71768 0.3449 0.0
H1964 H 0.41145 0.72104 0.34897 0.0
H1965 H 0.39804 0.73692 0.35128 0.0
H1966 H 0.41901 0.75772 0.3478 0.0
H1967 H 0.44131 0.76351 0.36598 0.0
H1968 H 0.96009 0.4066 0.96632 0.0
H1969 H 0.96507 0.38269 0.95051 0.0
H1970 H 0.00643 0.37471 0.97925 0.0
H1971 H 0.00123 0.39821 0.99547 0.0
H1972 H 0.99162 0.37536 0.93262 0.0
H1973 H 0.98176 0.33243 0.98104 0.0
H1974 H 0.97581 0.35265 0.98267 0.0
H1975 H 0.99616 0.34795 0.98589 0.0
C1976 C 0.97014 0.39965 0.96939 0.0
C1977 C 0.98022 0.40428 0.98222 0.0
C1978 C 0.97303 0.38606 0.96029 0.0
C1979 C 0.98597 0.37681 0.96388 0.0
C1980 C 0.9962 0.38152 0.97648 0.0
H1981 H 0.02518 0.29206 0.92306 0.0
H1982 H 0.02011 0.31623 0.93839 0.0
C1983 C 0.99331 0.39508 0.9856 0.0
C1984 C 0.98893 0.36235 0.9543 0.0
H1985 H 0.9926 0.32247 0.95693 0.0
C1986 C 0.99175 0.36378 0.9379 0.0
C1987 C 0.98909 0.34727 0.96124 0.0
C1988 C 0.9854 0.3449 0.97865 0.0
C1989 C 0.99505 0.35054 0.9283 0.0
C1990 C 0.99532 0.3355 0.93528 0.0
C1991 C 0.99245 0.33405 0.95166 0.0
C1992 C 0.99845 0.32105 0.92577 0.0
C1993 C 0.99854 0.3528 0.91085 0.0
C1994 C 0.98785 0.31571 0.91372 0.0
C1995 C 0.99068 0.3019 0.90496 0.0
C1996 C 0.00416 0.29316 0.90815 0.0
C1997 C 0.01472 0.29854 0.92028 0.0
C1998 C 0.01184 0.31233 0.92906 0.0
H1999 H 0.00153 0.36536 0.90819 0.0
H2000 H 0.00852 0.34548 0.90697 0.0
H2001 H 0.98792 0.34903 0.90368 0.0
H2002 H 0.9773 0.32215 0.9112 0.0
H2003 H 0.98229 0.29807 0.89574 0.0
H2004 H 0.62125 0.80527 0.24042 0.0
H2005 H 0.59881 0.80015 0.25822 0.0
H2006 H 0.62955 0.77693 0.29084 0.0
H2007 H 0.65202 0.78197 0.27312 0.0
H2008 H 0.58636 0.77124 0.2685 0.0
H2009 H 0.6078 0.80877 0.31979 0.0
H2010 H 0.61631 0.81023 0.30014 0.0
H2011 H 0.62173 0.79461 0.31307 0.0
C2012 C 0.62322 0.79903 0.25136 0.0
C2013 C 0.63842 0.79409 0.2554 0.0
C2014 C 0.61041 0.79618 0.26154 0.0
C2015 C 0.61258 0.78839 0.27595 0.0
C2016 C 0.6277 0.7833 0.27995 0.0
H2017 H 0.55107 0.75564 0.35165 0.0
H2018 H 0.57322 0.76148 0.33372 0.0
C2019 C 0.64052 0.78618 0.26981 0.0
C2020 C 0.59893 0.78518 0.28659 0.0
H2021 H 0.58529 0.79177 0.32431 0.0
C2022 C 0.58607 0.7758 0.28067 0.0
C2023 C 0.59861 0.79115 0.30246 0.0
C2024 C 0.61178 0.80187 0.30923 0.0
C2025 C 0.573 0.77195 0.29032 0.0
C2026 C 0.57274 0.77782 0.30622 0.0
C2027 C 0.58557 0.78725 0.31212 0.0
C2028 C 0.55927 0.77429 0.31695 0.0
C2029 C 0.55976 0.76133 0.28356 0.0
C2030 C 0.54415 0.77972 0.31352 0.0
C2031 C 0.53147 0.77641 0.32373 0.0
C2032 C 0.53372 0.76766 0.33759 0.0
C2033 C 0.54893 0.76236 0.34105 0.0
C2034 C 0.5616 0.7657 0.33084 0.0
H2035 H 0.56344 0.75488 0.2726 0.0
H2036 H 0.55564 0.75258 0.29247 0.0
H2037 H 0.54958 0.7686 0.28042 0.0
H2038 H 0.54218 0.78661 0.30299 0.0
H2039 H 0.51993 0.78074 0.32076 0.0
H2040 H 0.03672 0.12756 -0.0001 0.0
H2041 H 0.03208 0.14888 0.98138 0.0
H2042 H 0.0096 0.11539 0.94821 0.0
H2043 H 0.0136 0.09412 0.96691 0.0
H2044 H 0.04275 0.1523 0.95056 0.0
H2045 H 0.97697 0.1494 0.95183 0.0
H2046 H 0.98891 0.13967 0.9663 0.0
H2047 H 0.98555 0.13089 0.94681 0.0
C2048 C 0.03057 0.12476 0.98877 0.0
C2049 C 0.02544 0.10914 0.98494 0.0
C2050 C 0.02804 0.13694 0.97816 0.0
C2051 C 0.02029 0.13375 0.96354 0.0
C2052 C 0.01533 0.11816 0.95957 0.0
H2053 H 0.99719 0.18974 0.88179 0.0
H2054 H 0.00186 0.16853 0.90045 0.0
C2055 C 0.01781 0.10598 0.97019 0.0
C2056 C 0.01772 0.14669 0.95229 0.0
H2057 H 0.989 0.16566 0.93215 0.0
C2058 C 0.031 0.15529 0.9466 0.0
C2059 C 0.00237 0.15055 0.94715 0.0
C2060 C 0.98762 0.14225 0.95344 0.0
C2061 C 0.02935 0.16747 0.93567 0.0
C2062 C 0.01402 0.17123 0.93047 0.0
C2063 C 0.00074 0.16267 0.93615 0.0
C2064 C 0.01148 0.18409 0.91916 0.0
C2065 C 0.04403 0.17602 0.92955 0.0
C2066 C 0.01523 0.19985 0.92358 0.0
C2067 C 0.01254 0.21201 0.91298 0.0
C2068 C 0.00603 0.20859 0.89776 0.0
C2069 C 0.00227 0.19277 0.8934 0.0
C2070 C 0.0049 0.18064 0.90404 0.0
H2071 H 0.05491 0.16944 0.93191 0.0
H2072 H 0.04304 0.17792 0.91652 0.0
H2073 H 0.04537 0.18777 0.9356 0.0
H2074 H 0.02009 0.20277 0.93531 0.0
H2075 H 0.01553 0.22407 0.91674 0.0
H2076 H 0.37663 0.29379 0.24739 0.0
H2077 H 0.39776 0.28992 0.22799 0.0
H2078 H 0.36377 0.26871 0.19467 0.0
H2079 H 0.3426 0.27223 0.21408 0.0
H2080 H 0.40644 0.26022 0.21322 0.0
H2081 H 0.38742 0.30409 0.16921 0.0
H2082 H 0.38067 0.30422 0.18962 0.0
H2083 H 0.37235 0.29 0.17546 0.0
C2084 C 0.37365 0.2882 0.23598 0.0
C2085 C 0.3579 0.28335 0.23228 0.0
C2086 C 0.38572 0.28608 0.22489 0.0
C2087 C 0.38226 0.27922 0.20986 0.0
C2088 C 0.36661 0.2743 0.20611 0.0
H2089 H 0.43986 0.25803 0.12702 0.0
H2090 H 0.41814 0.26142 0.14587 0.0
C2091 C 0.35453 0.27636 0.21721 0.0
C2092 C 0.39513 0.27685 0.19824 0.0
H2093 H 0.40879 0.28826 0.16184 0.0
C2094 C 0.407 0.26637 0.202 0.0
C2095 C 0.39572 0.28483 0.1836 0.0
C2096 C 0.38345 0.29652 0.17921 0.0
C2097 C 0.41943 0.26351 0.1914 0.0
C2098 C 0.42015 0.27164 0.17682 0.0
C2099 C 0.4082 0.28205 0.17303 0.0
C2100 C 0.43333 0.26965 0.16543 0.0
C2101 C 0.43146 0.25155 0.19576 0.0
C2102 C 0.44902 0.2734 0.17011 0.0
C2103 C 0.46145 0.27141 0.15942 0.0
C2104 C 0.4584 0.2658 0.14376 0.0
C2105 C 0.44262 0.26235 0.139 0.0
C2106 C 0.43019 0.26428 0.14974 0.0
H2107 H 0.42677 0.24324 0.20483 0.0
H2108 H 0.43511 0.24462 0.18511 0.0
H2109 H 0.44215 0.25783 0.20088 0.0
H2110 H 0.45167 0.27794 0.18204 0.0
H2111 H 0.47345 0.2743 0.16343 0.0
H2112 H 0.50562 0.39676 0.9988 0.0
H2113 H 0.50129 0.37374 0.01563 0.0
H2114 H 0.54203 0.38838 0.04427 0.0
H2115 H 0.54625 0.41163 0.0277 0.0
H2116 H 0.52327 0.34951 0.02153 0.0
H2117 H 0.50609 0.38123 0.07713 0.0
H2118 H 0.50589 0.39032 0.05783 0.0
H2119 H 0.52431 0.38818 0.06823 0.0
C2120 C 0.51354 0.39519 0.0088 0.0
C2121 C 0.52624 0.40605 0.01197 0.0
C2122 C 0.51111 0.38199 0.01833 0.0
C2123 C 0.52123 0.37948 0.03128 0.0
C2124 C 0.53395 0.39024 0.03446 0.0
H2125 H 0.52422 0.30641 0.10245 0.0
H2126 H 0.5294 0.32963 0.0861 0.0
C2127 C 0.53643 0.40342 0.0249 0.0
C2128 C 0.51869 0.36537 0.0412 0.0
H2129 H 0.50933 0.35369 0.07883 0.0
C2130 C 0.52018 0.35039 0.03405 0.0
C2131 C 0.51474 0.36662 0.05753 0.0
C2132 C 0.51252 0.38243 0.06566 0.0
C2133 C 0.518 0.33657 0.04285 0.0
C2134 C 0.51388 0.3378 0.05915 0.0
C2135 C 0.51248 0.35279 0.06633 0.0
C2136 C 0.51079 0.32365 0.06894 0.0
C2137 C 0.52042 0.32081 0.03469 0.0
C2138 C 0.49848 0.31271 0.06481 0.0
C2139 C 0.49552 0.29941 0.07408 0.0
C2140 C 0.50474 0.29688 0.08775 0.0
C2141 C 0.51693 0.30798 0.09198 0.0
C2142 C 0.5199 0.32126 0.08266 0.0
H2143 H 0.52773 0.32208 0.02377 0.0
H2144 H 0.52626 0.31259 0.04282 0.0
H2145 H 0.50873 0.31542 0.03109 0.0
H2146 H 0.49107 0.31452 0.05447 0.0
H2147 H 0.48596 0.29116 0.07056 0.0
H2148 H 0.6221 0.21165 0.25761 0.0
H2149 H 0.60027 0.21566 0.23895 0.0
H2150 H 0.63082 0.24625 0.21116 0.0
H2151 H 0.65281 0.24201 0.22953 0.0
H2152 H 0.58723 0.24503 0.23119 0.0
H2153 H 0.61143 0.21445 0.17789 0.0
H2154 H 0.61896 0.21164 0.19779 0.0
H2155 H 0.62459 0.22914 0.18712 0.0
C2156 C 0.62424 0.21905 0.2474 0.0
C2157 C 0.6392 0.22647 0.24501 0.0
C2158 C 0.61174 0.2214 0.23682 0.0
C2159 C 0.61401 0.23109 0.2236 0.0
C2160 C 0.6289 0.23853 0.22117 0.0
H2161 H 0.55253 0.26134 0.14756 0.0
H2162 H 0.5748 0.25706 0.16559 0.0
C2163 C 0.6414 0.23622 0.23176 0.0
C2164 C 0.60063 0.23384 0.21264 0.0
H2165 H 0.58809 0.22865 0.17405 0.0
C2166 C 0.58737 0.2414 0.21871 0.0
C2167 C 0.60092 0.22915 0.19637 0.0
C2168 C 0.61467 0.22052 0.18938 0.0
C2169 C 0.57443 0.2446 0.20886 0.0
C2170 C 0.57467 0.23982 0.1926 0.0
C2171 C 0.58796 0.2323 0.18653 0.0
C2172 C 0.56116 0.24237 0.18173 0.0
C2173 C 0.56078 0.25335 0.21588 0.0
C2174 C 0.54619 0.23535 0.18473 0.0
C2175 C 0.53344 0.2378 0.1745 0.0
C2176 C 0.53547 0.24722 0.16099 0.0
C2177 C 0.55056 0.25406 0.15788 0.0
C2178 C 0.5633 0.25162 0.16816 0.0
H2179 H 0.56426 0.25983 0.22708 0.0
H2180 H 0.55618 0.26191 0.20729 0.0
H2181 H 0.55101 0.24475 0.21872 0.0
H2182 H 0.54437 0.22789 0.19495 0.0
H2183 H 0.52201 0.23227 0.17717 0.0
H2184 H 0.45541 0.10347 0.03303 0.0
H2185 H 0.45942 0.12643 0.05094 0.0
H2186 H 0.4965 0.14475 0.02053 0.0
H2187 H 0.49289 0.12163 0.00272 0.0
H2188 H 0.48954 0.13663 0.06657 0.0
H2189 H 0.46504 0.18165 0.02679 0.0
H2190 H 0.46052 0.16074 0.02409 0.0
H2191 H 0.47946 0.16894 0.01818 0.0
C2192 C 0.46451 0.1123 0.03019 0.0
C2193 C 0.47384 0.11068 0.01643 0.0
C2194 C 0.46671 0.12545 0.04039 0.0
C2195 C 0.47814 0.13731 0.03695 0.0
C2196 C 0.48745 0.13581 0.02324 0.0
H2197 H 0.50675 0.22625 0.08379 0.0
H2198 H 0.50335 0.20349 0.06552 0.0
C2199 C 0.48532 0.12262 0.01306 0.0
C2200 C 0.48059 0.15104 0.04796 0.0
H2201 H 0.47652 0.19091 0.05113 0.0
C2202 C 0.48667 0.14851 0.06325 0.0
C2203 C 0.47691 0.16648 0.04348 0.0
C2204 C 0.47001 0.16971 0.02729 0.0
C2205 C 0.48938 0.1611 0.07419 0.0
C2206 C 0.48549 0.17654 0.06981 0.0
C2207 C 0.47946 0.17906 0.05446 0.0
C2208 C 0.48755 0.19026 0.08099 0.0
C2209 C 0.4967 0.15777 0.09018 0.0
C2210 C 0.47962 0.19046 0.09566 0.0
C2211 C 0.48162 0.2034 0.10618 0.0
C2212 C 0.49143 0.21647 0.10212 0.0
C2213 C 0.49914 0.21635 0.08729 0.0
C2214 C 0.4972 0.20336 0.07683 0.0
H2215 H 0.50309 0.14653 0.08988 0.0
H2216 H 0.50513 0.16749 0.09406 0.0
H2217 H 0.48719 0.15666 0.09922 0.0
H2218 H 0.47179 0.18064 0.09894 0.0
H2219 H 0.47539 0.20318 0.11744 0.0
H2220 H 0.27151 0.3614 0.73137 0.0
H2221 H 0.28864 0.38502 0.73605 0.0
H2222 H 0.25893 0.41146 0.70515 0.0
H2223 H 0.24171 0.38792 0.70045 0.0
H2224 H 0.30569 0.40308 0.71444 0.0
H2225 H 0.2612 0.43902 0.74556 0.0
H2226 H 0.25834 0.418 0.74209 0.0
H2227 H 0.25482 0.43153 0.72631 0.0
C2228 C 0.26867 0.37223 0.72551 0.0
C2229 C 0.25522 0.37283 0.7156 0.0
C2230 C 0.27843 0.38572 0.72825 0.0
C2231 C 0.27489 0.40004 0.72117 0.0
C2232 C 0.26164 0.40062 0.71105 0.0
H2233 H 0.32039 0.49343 0.72036 0.0
H2234 H 0.30345 0.46971 0.71558 0.0
C2235 C 0.25183 0.38716 0.70836 0.0
C2236 C 0.28527 0.4143 0.72412 0.0
H2237 H 0.28545 0.45226 0.73867 0.0
C2238 C 0.3013 0.41381 0.71981 0.0
C2239 C 0.27948 0.42827 0.73113 0.0
C2240 C 0.26256 0.42925 0.73669 0.0
C2241 C 0.31165 0.42703 0.72207 0.0
C2242 C 0.30583 0.44101 0.72899 0.0
C2243 C 0.28982 0.44151 0.73332 0.0
C2244 C 0.31619 0.45526 0.73189 0.0
C2245 C 0.32864 0.42606 0.71674 0.0
C2246 C 0.32884 0.45499 0.74279 0.0
C2247 C 0.33853 0.46851 0.74558 0.0
C2248 C 0.3357 0.48256 0.73753 0.0
C2249 C 0.32292 0.4828 0.72671 0.0
C2250 C 0.31322 0.46928 0.72397 0.0
H2251 H 0.33028 0.4159 0.7084 0.0
H2252 H 0.33267 0.43709 0.71081 0.0
H2253 H 0.33634 0.42453 0.72733 0.0
H2254 H 0.33115 0.44434 0.74922 0.0
H2255 H 0.34823 0.46795 0.75403 0.0
H2256 H 0.24556 0.64369 0.76635 0.0
H2257 H 0.26426 0.62244 0.76273 0.0
H2258 H 0.28533 0.63423 0.8086 0.0
H2259 H 0.26661 0.65538 0.81238 0.0
H2260 H 0.29929 0.62672 0.76411 0.0
H2261 H 0.27446 0.58536 0.80908 0.0
H2262 H 0.26304 0.60074 0.80053 0.0
H2263 H 0.27768 0.60559 0.81562 0.0
C2264 C 0.25407 0.64163 0.77573 0.0
C2265 C 0.25463 0.65118 0.78966 0.0
C2266 C 0.26476 0.62957 0.77361 0.0
C2267 C 0.27604 0.62673 0.78546 0.0
C2268 C 0.27658 0.63616 0.7994 0.0
H2269 H 0.34991 0.55959 0.79723 0.0
H2270 H 0.33104 0.58063 0.80042 0.0
C2271 C 0.26598 0.64829 0.80148 0.0
C2272 C 0.28759 0.61421 0.78307 0.0
H2273 H 0.29878 0.57881 0.79723 0.0
C2274 C 0.29917 0.61619 0.77128 0.0
C2275 C 0.28739 0.6006 0.79253 0.0
C2276 C 0.27492 0.5978 0.80509 0.0
C2277 C 0.31082 0.60499 0.76888 0.0
C2278 C 0.31059 0.59129 0.77828 0.0
C2279 C 0.29894 0.58932 0.79005 0.0
C2280 C 0.3223 0.57882 0.77611 0.0
C2281 C 0.3235 0.60816 0.7566 0.0
C2282 C 0.32357 0.57076 0.76142 0.0
C2283 C 0.33442 0.55881 0.75952 0.0
C2284 C 0.34406 0.55456 0.77236 0.0
C2285 C 0.34268 0.56259 0.7871 0.0
C2286 C 0.3319 0.5746 0.78895 0.0
H2287 H 0.32467 0.62092 0.7538 0.0
H2288 H 0.33519 0.60419 0.76075 0.0
H2289 H 0.3203 0.60158 0.7454 0.0
H2290 H 0.31602 0.57356 0.75146 0.0
H2291 H 0.33508 0.55276 0.74805 0.0
H2292 H 0.88688 0.50118 0.49428 0.0
H2293 H 0.86417 0.48296 0.4987 0.0
H2294 H 0.88024 0.45225 0.46098 0.0
H2295 H 0.90311 0.47031 0.45661 0.0
H2296 H 0.84033 0.47206 0.47487 0.0
H2297 H 0.87415 0.42351 0.50083 0.0
H2298 H 0.88209 0.44358 0.49996 0.0
H2299 H 0.88138 0.43125 0.4823 0.0
C2300 C 0.88565 0.49048 0.48702 0.0
C2301 C 0.89681 0.48713 0.47515 0.0
C2302 C 0.87264 0.48015 0.4895 0.0
C2303 C 0.87066 0.46622 0.48027 0.0
C2304 C 0.88169 0.46288 0.46833 0.0
H2305 H 0.80155 0.38767 0.48161 0.0
H2306 H 0.82412 0.40565 0.47611 0.0
C2307 C 0.89466 0.47325 0.46577 0.0
C2308 C 0.85693 0.45529 0.48305 0.0
H2309 H 0.84673 0.41855 0.49649 0.0
C2310 C 0.84168 0.46036 0.47962 0.0
C2311 C 0.85882 0.44004 0.48917 0.0
C2312 C 0.87496 0.43423 0.49341 0.0
C2313 C 0.82821 0.45048 0.48198 0.0
C2314 C 0.83006 0.43528 0.48831 0.0
C2315 C 0.84535 0.4302 0.49166 0.0
C2316 C 0.81629 0.42449 0.49163 0.0
C2317 C 0.81216 0.45628 0.47734 0.0
C2318 C 0.80451 0.42904 0.50235 0.0
C2319 C 0.79154 0.41884 0.50546 0.0
C2320 C 0.79023 0.4038 0.49804 0.0
C2321 C 0.80219 0.39918 0.48751 0.0
C2322 C 0.8151 0.40943 0.48435 0.0
H2323 H 0.8132 0.46596 0.4686 0.0
H2324 H 0.80449 0.44655 0.47211 0.0
H2325 H 0.80624 0.46098 0.48812 0.0
H2326 H 0.80538 0.44046 0.50841 0.0
H2327 H 0.7826 0.42272 0.51373 0.0
H2328 H 0.75876 0.87655 0.79521 0.0
H2329 H 0.74104 0.89856 0.79239 0.0
H2330 H 0.70747 0.86797 0.76653 0.0
H2331 H 0.72514 0.84593 0.76921 0.0
H2332 H 0.72969 0.91153 0.76426 0.0
H2333 H 0.68024 0.88789 0.8013 0.0
H2334 H 0.6998 0.87996 0.80173 0.0
H2335 H 0.6863 0.87465 0.78568 0.0
C2336 C 0.74763 0.87452 0.78887 0.0
C2337 C 0.74332 0.85947 0.78249 0.0
C2338 C 0.7375 0.88708 0.78734 0.0
C2339 C 0.72285 0.88482 0.77947 0.0
C2340 C 0.71856 0.86987 0.77297 0.0
H2341 H 0.64662 0.9459 0.75484 0.0
H2342 H 0.66418 0.92384 0.75812 0.0
C2343 C 0.72867 0.85729 0.77451 0.0
C2344 C 0.71227 0.89824 0.77766 0.0
H2345 H 0.67534 0.91088 0.78659 0.0
C2346 C 0.71784 0.91144 0.76921 0.0
C2347 C 0.6968 0.89804 0.7841 0.0
C2348 C 0.69044 0.88445 0.79384 0.0
C2349 C 0.70824 0.92436 0.76677 0.0
C2350 C 0.69277 0.92416 0.7732 0.0
C2351 C 0.6872 0.91097 0.78166 0.0
C2352 C 0.68219 0.93756 0.7713 0.0
C2353 C 0.71461 0.93796 0.75704 0.0
C2354 C 0.68642 0.95252 0.77782 0.0
C2355 C 0.67643 0.96515 0.77597 0.0
C2356 C 0.66198 0.96303 0.76762 0.0
C2357 C 0.65768 0.94795 0.76129 0.0
C2358 C 0.66769 0.93533 0.76316 0.0
H2359 H 0.72489 0.93457 0.74966 0.0
H2360 H 0.70528 0.94238 0.74906 0.0
H2361 H 0.71863 0.94781 0.7652 0.0
H2362 H 0.69741 0.9544 0.78443 0.0
H2363 H 0.68006 0.97658 0.78107 0.0
H2364 H 0.60049 0.54155 0.95289 0.0
H2365 H 0.62377 0.55943 0.95637 0.0
H2366 H 0.63866 0.53289 0.99679 0.0
H2367 H 0.61561 0.51471 0.99316 0.0
H2368 H 0.63274 0.57813 0.98388 0.0
H2369 H 0.67803 0.53469 0.96767 0.0
H2370 H 0.65724 0.53143 0.96299 0.0
H2371 H 0.66437 0.52854 0.9829 0.0
C2372 C 0.6088 0.53942 0.96242 0.0
C2373 C 0.60626 0.52666 0.97269 0.0
C2374 C 0.62203 0.5497 0.96445 0.0
C2375 C 0.63301 0.54734 0.9767 0.0
C2376 C 0.63043 0.53475 0.98711 0.0
H2377 H 0.72118 0.59589 0.00588 0.0
H2378 H 0.69772 0.57814 0.00344 0.0
C2379 C 0.61718 0.52449 0.98512 0.0
C2380 C 0.64707 0.55819 0.97868 0.0
H2381 H 0.68751 0.55978 0.97727 0.0
C2382 C 0.64472 0.57415 0.9824 0.0
C2383 C 0.66266 0.55291 0.97677 0.0
C2384 C 0.66581 0.53599 0.97223 0.0
C2385 C 0.6576 0.58498 0.98449 0.0
C2386 C 0.6732 0.57973 0.98247 0.0
C2387 C 0.67553 0.56375 0.97881 0.0
C2388 C 0.68727 0.59065 0.98401 0.0
C2389 C 0.65441 0.60187 0.98915 0.0
C2390 C 0.68925 0.60346 0.97375 0.0
C2391 C 0.70262 0.61365 0.97513 0.0
C2392 C 0.71432 0.61114 0.98672 0.0
C2393 C 0.71238 0.59819 0.99686 0.0
C2394 C 0.69899 0.58802 0.99548 0.0
H2395 H 0.64242 0.60295 0.99438 0.0
H2396 H 0.66336 0.60667 0.99789 0.0
H2397 H 0.65505 0.60925 0.97837 0.0
H2398 H 0.68052 0.6055 0.96458 0.0
H2399 H 0.7038 0.62345 0.96707 0.0
H2400 H 0.24774 0.62635 0.215 0.0
H2401 H 0.22891 0.60442 0.22021 0.0
H2402 H 0.19628 0.63702 0.24068 0.0
H2403 H 0.21518 0.659 0.23594 0.0
H2404 H 0.21511 0.59654 0.25176 0.0
H2405 H 0.17045 0.61047 0.20552 0.0
H2406 H 0.19081 0.61781 0.20477 0.0
H2407 H 0.17728 0.62651 0.21852 0.0
C2408 C 0.23663 0.62887 0.22074 0.0
C2409 C 0.23298 0.64446 0.22503 0.0
C2410 C 0.22586 0.61633 0.22361 0.0
C2411 C 0.21119 0.61917 0.23067 0.0
C2412 C 0.20747 0.63466 0.23499 0.0
H2413 H 0.12978 0.55801 0.25357 0.0
H2414 H 0.1482 0.58056 0.24945 0.0
C2415 C 0.21827 0.6472 0.23221 0.0
C2416 C 0.19991 0.60584 0.23383 0.0
H2417 H 0.16396 0.58937 0.22256 0.0
C2418 C 0.20393 0.59492 0.24538 0.0
C2419 C 0.18533 0.60391 0.22554 0.0
C2420 C 0.18067 0.6152 0.2128 0.0
C2421 C 0.19363 0.58211 0.24899 0.0
C2422 C 0.17913 0.57999 0.24051 0.0
C2423 C 0.17509 0.59101 0.22903 0.0
C2424 C 0.16808 0.5663 0.24321 0.0
C2425 C 0.19825 0.57118 0.26209 0.0
C2426 C 0.1731 0.55082 0.24088 0.0
C2427 C 0.16266 0.53793 0.24333 0.0
C2428 C 0.14691 0.54028 0.24794 0.0
C2429 C 0.14184 0.5558 0.25004 0.0
C2430 C 0.15234 0.5687 0.24769 0.0
H2431 H 0.20707 0.57697 0.27041 0.0
H2432 H 0.18774 0.56715 0.26904 0.0
H2433 H 0.20372 0.56063 0.25671 0.0
H2434 H 0.18508 0.5487 0.23702 0.0
H2435 H 0.1669 0.52612 0.24147 0.0
H2436 H 0.91241 0.53737 0.00639 0.0
H2437 H 0.8901 0.55455 0.00238 0.0
H2438 H 0.86067 0.52437 0.03173 0.0
H2439 H 0.8829 0.50715 0.03581 0.0
H2440 H 0.86071 0.54754 0.989 0.0
H2441 H 0.85477 0.56796 0.05187 0.0
H2442 H 0.87196 0.55797 0.04473 0.0
H2443 H 0.85409 0.54683 0.04946 0.0
C2444 C 0.90117 0.53436 0.01194 0.0
C2445 C 0.89944 0.52095 0.02149 0.0
C2446 C 0.88846 0.54422 0.00969 0.0
C2447 C 0.87382 0.54088 0.01698 0.0
C2448 C 0.87198 0.52738 0.02633 0.0
H2449 H 0.78201 0.57539 0.99186 0.0
H2450 H 0.80556 0.55996 0.99577 0.0
C2451 C 0.88469 0.51755 0.02863 0.0
C2452 C 0.86034 0.55128 0.01448 0.0
H2453 H 0.83374 0.57388 0.03414 0.0
C2454 C 0.85486 0.55337 0.99886 0.0
C2455 C 0.85288 0.55907 0.02733 0.0
C2456 C 0.85881 0.558 0.04428 0.0
C2457 C 0.84186 0.56274 0.99577 0.0
C2458 C 0.83398 0.56996 0.00869 0.0
C2459 C 0.8397 0.56819 0.02428 0.0
C2460 C 0.81971 0.57934 0.00631 0.0
C2461 C 0.83681 0.56495 0.97869 0.0
C2462 C 0.81972 0.59524 0.01134 0.0
C2463 C 0.80622 0.60407 0.00925 0.0
C2464 C 0.79245 0.59712 0.00215 0.0
C2465 C 0.79245 0.58113 0.99727 0.0
C2466 C 0.80593 0.57232 -0.0006 0.0
H2467 H 0.84654 0.56247 0.97023 0.0
H2468 H 0.82668 0.55664 0.97578 0.0
H2469 H 0.83294 0.57717 0.97683 0.0
H2470 H 0.83021 0.60085 0.01679 0.0
H2471 H 0.80661 0.61634 0.01317 0.0
H2472 H 0.11927 0.00779 0.04484 0.0
H2473 H 0.14149 0.99045 0.04085 0.0
H2474 H 0.11382 0.96248 0.0065 0.0
H2475 H 0.09133 0.97944 0.01081 0.0
H2476 H 0.12963 0.94439 0.02839 0.0
H2477 H 0.17035 0.98949 0.00179 0.0
H2478 H 0.16254 0.99523 0.02083 0.0
H2479 H 0.14937 0.99231 0.00402 0.0
C2480 C 0.11786 0.99788 0.03653 0.0
C2481 C 0.10354 0.99504 0.0281 0.0
C2482 C 0.13063 0.98809 0.03413 0.0
C2483 C 0.12937 0.97535 0.02319 0.0
C2484 C 0.11506 0.97234 0.01491 0.0
H2485 H 0.20636 0.9219 0.98437 0.0
H2486 H 0.18373 0.93865 0.98852 0.0
C2487 C 0.10227 0.98211 0.0173 0.0
C2488 C 0.1429 0.96498 0.02055 0.0
H2489 H 0.18138 0.965 0.00817 0.0
C2490 C 0.14094 0.94887 0.02393 0.0
C2491 C 0.15756 0.97084 0.01454 0.0
C2492 C 0.1601 0.98788 0.00993 0.0
C2493 C 0.15334 0.93847 0.02168 0.0
C2494 C 0.16815 0.94443 0.01616 0.0
C2495 C 0.17004 0.96051 0.01256 0.0
C2496 C 0.18179 0.93415 0.01376 0.0
C2497 C 0.15037 0.92116 0.02497 0.0
C2498 C 0.18831 0.9262 0.02662 0.0
C2499 C 0.20122 0.91657 0.02428 0.0
C2500 C 0.20793 0.91482 0.00906 0.0
C2501 C 0.20147 0.92296 0.99624 0.0
C2502 C 0.18854 0.93255 0.99859 0.0
H2503 H 0.13749 0.91789 0.02504 0.0
H2504 H 0.15623 0.91365 0.01593 0.0
H2505 H 0.15532 0.91852 0.03687 0.0
H2506 H 0.18349 0.92754 0.03849 0.0
H2507 H 0.20598 0.91055 0.03442 0.0
loop_
_geom_bond_atom_site_label_1
_geom_bond_atom_site_label_2
_geom_bond_distance
_geom_bond_site_symmetry_2
_ccdc_geom_bond_type
C0 C1 1.386 . S
C0 C2 1.397 1_556 S
C0 H24 0.931 . S
C1 C0 1.386 . S
C1 C5 1.398 1_556 S
C2 C0 1.397 1_554 S
C2 C3 1.384 . S
C2 H25 0.928 . S
C3 C2 1.384 . S
C3 C4 1.377 . S
C3 C6 1.481 . S
C4 C3 1.377 . S
C4 C5 1.389 . S
C4 H26 0.929 . S
C5 C1 1.398 1_554 S
C5 C4 1.389 . S
C5 H27 0.931 . S
C6 C3 1.481 . S
C6 C7 1.387 . S
C6 C11 1.390 . S
C7 C6 1.387 . S
C7 C8 1.401 . S
C7 H28 0.930 . S
C8 C7 1.401 . S
C8 C9 1.376 . S
C8 C17 1.511 . S
C9 C8 1.376 . S
C9 C10 1.392 . S
C9 H30 0.931 . S
C10 C9 1.392 . S
C10 C11 1.361 . S
C10 C12 1.500 . S
C11 C6 1.390 . S
C11 C10 1.361 . S
C11 H29 0.931 . S
C12 C10 1.500 . S
C12 C13 1.371 . S
C12 C14 1.365 . S
C13 C12 1.371 . S
C13 C23 1.386 . S
C13 H31 0.931 . S
C14 C12 1.365 . S
C14 C15 1.409 1_455 S
C14 H32 0.929 . S
C15 C14 1.409 1_655 S
C15 C16 1.380 . S
C15 H33 0.930 . S
C16 C15 1.380 . S
C16 C23 1.357 1_655 S
C17 C8 1.511 . S
C17 C18 1.341 . S
C17 C19 1.371 . S
C18 C17 1.341 . S
C18 C22 1.394 . S
C18 H34 0.930 . S
C19 C17 1.371 . S
C19 C20 1.392 . S
C19 H35 0.931 . S
C20 C19 1.392 . S
C20 C21 1.331 . S
C20 H38 0.936 1_545 S
C21 C20 1.331 . S
C21 C22 1.336 . S
C22 C18 1.394 . S
C22 C21 1.336 . S
C22 H37 0.929 . S
C23 C13 1.386 . S
C23 C16 1.357 1_455 S
C23 H36 0.927 1_455 S
H24 C0 0.931 . S
H25 C2 0.928 . S
H26 C4 0.929 . S
H27 C5 0.931 . S
H28 C7 0.930 . S
H29 C11 0.931 . S
H30 C9 0.931 . S
H31 C13 0.931 . S
H32 C14 0.929 . S
H33 C15 0.930 . S
H34 C18 0.930 . S
H35 C19 0.931 . S
H36 C23 0.927 1_655 S
H37 C22 0.929 . S
H38 C20 0.936 1_565 S
C39 C40 1.386 . S
C39 C41 1.397 . S
C39 H63 0.931 . S
C40 C39 1.386 . S
C40 C44 1.397 . S
C41 C39 1.397 . S
C41 C42 1.384 . S
C41 H64 0.930 . S
C42 C41 1.384 . S
C42 C43 1.377 . S
C42 C45 1.481 . S
C43 C42 1.377 . S
C43 C44 1.389 . S
C43 H65 0.929 . S
C44 C40 1.397 . S
C44 C43 1.389 . S
C44 H66 0.931 . S
C45 C42 1.481 . S
C45 C46 1.387 . S
C45 C50 1.390 . S
C46 C45 1.387 . S
C46 C47 1.401 . S
C46 H67 0.930 . S
C47 C46 1.401 . S
C47 C48 1.376 . S
C47 C56 1.511 . S
C48 C47 1.376 . S
C48 C49 1.392 . S
C48 H69 0.931 . S
C49 C48 1.392 . S
C49 C50 1.361 . S
C49 C51 1.500 . S
C50 C45 1.390 . S
C50 C49 1.361 . S
C50 H68 0.931 . S
C51 C49 1.500 . S
C51 C52 1.371 . S
C51 C53 1.365 . S
C52 C51 1.371 . S
C52 C62 1.386 . S
C52 H70 0.931 . S
C53 C51 1.365 . S
C53 C54 1.409 . S
C53 H71 0.929 . S
C54 C53 1.409 . S
C54 C55 1.380 . S
C54 H72 0.930 . S
C55 C54 1.380 . S
C55 C62 1.357 . S
C56 C47 1.511 . S
C56 C57 1.341 . S
C56 C58 1.371 . S
C57 C56 1.341 . S
C57 C61 1.394 . S
C57 H73 0.930 . S
C58 C56 1.371 . S
C58 C59 1.392 . S
C58 H74 0.931 . S
C59 C58 1.392 . S
C59 C60 1.331 . S
C59 H77 0.932 . S
C60 C59 1.331 . S
C60 C61 1.336 . S
C61 C57 1.394 . S
C61 C60 1.336 . S
C61 H76 0.929 . S
C62 C52 1.386 . S
C62 C55 1.357 . S
C62 H75 0.928 . S
H63 C39 0.931 . S
H64 C41 0.930 . S
H65 C43 0.929 . S
H66 C44 0.931 . S
H67 C46 0.930 . S
H68 C50 0.931 . S
H69 C48 0.931 . S
H70 C52 0.931 . S
H71 C53 0.929 . S
H72 C54 0.930 . S
H73 C57 0.930 . S
H74 C58 0.931 . S
H75 C62 0.928 . S
H76 C61 0.929 . S
H77 C59 0.932 . S
C78 C79 1.386 1_655 S
C78 C80 1.397 . S
C78 H102 0.931 . S
C79 C78 1.386 1_455 S
C79 C83 1.397 . S
C80 C78 1.397 . S
C80 C81 1.384 . S
C80 H103 0.930 . S
C81 C80 1.384 . S
C81 C82 1.377 1_655 S
C81 C84 1.481 . S
C82 C81 1.377 1_455 S
C82 C83 1.389 . S
C82 H104 0.929 . S
C83 C79 1.397 . S
C83 C82 1.389 . S
C83 H105 0.931 . S
C84 C81 1.481 . S
C84 C85 1.387 . S
C84 C89 1.390 . S
C85 C84 1.387 . S
C85 C86 1.401 . S
C85 H106 0.930 . S
C86 C85 1.401 . S
C86 C87 1.376 . S
C86 C95 1.511 . S
C87 C86 1.376 . S
C87 C88 1.392 . S
C87 H108 0.931 . S
C88 C87 1.392 . S
C88 C89 1.361 . S
C88 C90 1.500 . S
C89 C84 1.390 . S
C89 C88 1.361 . S
C89 H107 0.931 . S
C90 C88 1.500 . S
C90 C91 1.371 . S
C90 C92 1.365 . S
C91 C90 1.371 . S
C91 C101 1.386 1_554 S
C91 H109 0.931 . S
C92 C90 1.365 . S
C92 C93 1.409 . S
C92 H110 0.929 . S
C93 C92 1.409 . S
C93 C94 1.380 1_554 S
C93 H111 0.932 . S
C94 C93 1.380 1_556 S
C94 C101 1.357 . S
C95 C86 1.511 . S
C95 C96 1.341 . S
C95 C97 1.371 . S
C96 C95 1.341 . S
C96 C100 1.394 . S
C96 H112 0.930 . S
C97 C95 1.371 . S
C97 C98 1.392 . S
C97 H113 0.931 . S
C98 C97 1.392 . S
C98 C99 1.331 . S
C98 H116 0.932 . S
C99 C98 1.331 . S
C99 C100 1.336 . S
C100 C96 1.394 . S
C100 C99 1.336 . S
C100 H115 0.929 . S
C101 C91 1.386 1_556 S
C101 C94 1.357 . S
C101 H114 0.928 . S
H102 C78 0.931 . S
H103 C80 0.930 . S
H104 C82 0.929 . S
H105 C83 0.931 . S
H106 C85 0.930 . S
H107 C89 0.931 . S
H108 C87 0.931 . S
H109 C91 0.931 . S
H110 C92 0.929 . S
H111 C93 0.932 . S
H112 C96 0.930 . S
H113 C97 0.931 . S
H114 C101 0.928 . S
H115 C100 0.929 . S
H116 C98 0.932 . S
C117 C118 1.386 . S
C117 C119 1.397 . S
C117 H141 0.931 . S
C118 C117 1.386 . S
C118 C122 1.397 . S
C119 C117 1.397 . S
C119 C120 1.384 . S
C119 H142 0.930 . S
C120 C119 1.384 . S
C120 C121 1.377 . S
C120 C123 1.481 . S
C121 C120 1.377 . S
C121 C122 1.389 . S
C121 H143 0.929 . S
C122 C118 1.397 . S
C122 C121 1.389 . S
C122 H144 0.931 . S
C123 C120 1.481 . S
C123 C124 1.387 . S
C123 C128 1.390 . S
C124 C123 1.387 . S
C124 C125 1.401 . S
C124 H145 0.930 . S
C125 C124 1.401 . S
C125 C126 1.376 . S
C125 C134 1.511 . S
C126 C125 1.376 . S
C126 C127 1.392 . S
C126 H147 0.931 . S
C127 C126 1.392 . S
C127 C128 1.361 . S
C127 C129 1.500 . S
C128 C123 1.390 . S
C128 C127 1.361 . S
C128 H146 0.931 . S
C129 C127 1.500 . S
C129 C130 1.371 . S
C129 C131 1.365 . S
C130 C129 1.371 . S
C130 C140 1.386 . S
C130 H148 0.931 . S
C131 C129 1.365 . S
C131 C132 1.409 . S
C131 H149 0.929 . S
C132 C131 1.409 . S
C132 C133 1.380 . S
C132 H150 0.930 . S
C133 C132 1.380 . S
C133 C140 1.357 . S
C134 C125 1.511 . S
C134 C135 1.341 . S
C134 C136 1.371 . S
C135 C134 1.341 . S
C135 C139 1.394 . S
C135 H151 0.930 . S
C136 C134 1.371 . S
C136 C137 1.392 . S
C136 H152 0.931 . S
C137 C136 1.392 . S
C137 C138 1.331 . S
C137 H155 0.932 . S
C138 C137 1.331 . S
C138 C139 1.336 . S
C139 C135 1.394 . S
C139 C138 1.336 . S
C139 H154 0.929 . S
C140 C130 1.386 . S
C140 C133 1.357 . S
C140 H153 0.928 . S
H141 C117 0.931 . S
H142 C119 0.930 . S
H143 C121 0.929 . S
H144 C122 0.931 . S
H145 C124 0.930 . S
H146 C128 0.931 . S
H147 C126 0.931 . S
H148 C130 0.931 . S
H149 C131 0.929 . S
H150 C132 0.930 . S
H151 C135 0.930 . S
H152 C136 0.931 . S
H153 C140 0.928 . S
H154 C139 0.929 . S
H155 C137 0.932 . S
C156 C157 1.386 . S
C156 C158 1.397 1_655 S
C156 H180 0.931 . S
C157 C156 1.386 . S
C157 C161 1.397 1_655 S
C158 C156 1.397 1_455 S
C158 C159 1.384 . S
C158 H181 0.930 1_455 S
C159 C158 1.384 . S
C159 C160 1.377 . S
C159 C162 1.481 . S
C160 C159 1.377 . S
C160 C161 1.389 . S
C160 H182 0.929 . S
C161 C157 1.397 1_455 S
C161 C160 1.389 . S
C161 H183 0.931 . S
C162 C159 1.481 . S
C162 C163 1.387 . S
C162 C167 1.390 . S
C163 C162 1.387 . S
C163 C164 1.401 . S
C163 H184 0.930 . S
C164 C163 1.401 . S
C164 C165 1.376 . S
C164 C173 1.511 . S
C165 C164 1.376 . S
C165 C166 1.392 . S
C165 H186 0.931 . S
C166 C165 1.392 . S
C166 C167 1.361 . S
C166 C168 1.500 . S
C167 C162 1.390 . S
C167 C166 1.361 . S
C167 H185 0.931 . S
C168 C166 1.500 . S
C168 C169 1.371 . S
C168 C170 1.337 1_565 S
C169 C168 1.371 . S
C169 C179 1.386 1_565 S
C169 H187 0.931 . S
C170 C168 1.337 1_545 S
C170 C171 1.453 . S
C170 H188 0.918 1_545 S
C171 C170 1.453 . S
C171 C172 1.380 . S
C171 H189 0.930 . S
C172 C171 1.380 . S
C172 C179 1.357 . S
C173 C164 1.511 . S
C173 C174 1.341 . S
C173 C175 1.371 . S
C174 C173 1.341 . S
C174 C178 1.394 . S
C174 H190 0.930 . S
C175 C173 1.371 . S
C175 C176 1.392 . S
C175 H191 0.931 . S
C176 C175 1.392 . S
C176 C177 1.331 . S
C176 H194 0.932 . S
C177 C176 1.331 . S
C177 C178 1.336 . S
C178 C174 1.394 . S
C178 C177 1.336 . S
C178 H193 0.929 . S
C179 C169 1.386 1_545 S
C179 C172 1.357 . S
C179 H192 0.928 . S
H180 C156 0.931 . S
H181 C158 0.930 1_655 S
H182 C160 0.929 . S
H183 C161 0.931 . S
H184 C163 0.930 . S
H185 C167 0.931 . S
H186 C165 0.931 . S
H187 C169 0.931 . S
H188 C170 0.918 1_565 S
H189 C171 0.930 . S
H190 C174 0.930 . S
H191 C175 0.931 . S
H192 C179 0.928 . S
H193 C178 0.929 . S
H194 C176 0.932 . S
C195 C196 1.386 . S
C195 C197 1.397 . S
C195 H219 0.931 . S
C196 C195 1.386 . S
C196 C200 1.397 . S
C197 C195 1.397 . S
C197 C198 1.384 . S
C197 H220 0.930 . S
C198 C197 1.384 . S
C198 C199 1.377 . S
C198 C201 1.481 . S
C199 C198 1.377 . S
C199 C200 1.389 . S
C199 H221 0.929 . S
C200 C196 1.397 . S
C200 C199 1.389 . S
C200 H222 0.931 . S
C201 C198 1.481 . S
C201 C202 1.387 . S
C201 C206 1.390 . S
C202 C201 1.387 . S
C202 C203 1.401 . S
C202 H223 0.930 . S
C203 C202 1.401 . S
C203 C204 1.376 . S
C203 C212 1.511 . S
C204 C203 1.376 . S
C204 C205 1.392 . S
C204 H225 0.931 . S
C205 C204 1.392 . S
C205 C206 1.361 . S
C205 C207 1.500 . S
C206 C201 1.390 . S
C206 C205 1.361 . S
C206 H224 0.931 . S
C207 C205 1.500 . S
C207 C208 1.371 . S
C207 C209 1.365 . S
C208 C207 1.371 . S
C208 C218 1.386 . S
C208 H226 0.931 . S
C209 C207 1.365 . S
C209 C210 1.409 . S
C209 H227 0.929 . S
C210 C209 1.409 . S
C210 C211 1.380 . S
C210 H228 0.930 . S
C211 C210 1.380 . S
C211 C218 1.357 . S
C212 C203 1.511 . S
C212 C213 1.341 . S
C212 C214 1.371 . S
C213 C212 1.341 . S
C213 C217 1.394 . S
C213 H229 0.930 . S
C214 C212 1.371 . S
C214 C215 1.392 . S
C214 H230 0.931 . S
C215 C214 1.392 . S
C215 C216 1.331 . S
C215 H233 0.932 . S
C216 C215 1.331 . S
C216 C217 1.336 . S
C217 C213 1.394 . S
C217 C216 1.336 . S
C217 H232 0.929 . S
C218 C208 1.386 . S
C218 C211 1.357 . S
C218 H231 0.928 . S
H219 C195 0.931 . S
H220 C197 0.930 . S
H221 C199 0.929 . S
H222 C200 0.931 . S
H223 C202 0.930 . S
H224 C206 0.931 . S
H225 C204 0.931 . S
H226 C208 0.931 . S
H227 C209 0.929 . S
H228 C210 0.930 . S
H229 C213 0.930 . S
H230 C214 0.931 . S
H231 C218 0.928 . S
H232 C217 0.929 . S
H233 C215 0.932 . S
C234 C235 1.386 . S
C234 C236 1.397 . S
C234 H258 0.931 . S
C235 C234 1.386 . S
C235 C239 1.397 . S
C236 C234 1.397 . S
C236 C237 1.384 . S
C236 H259 0.930 . S
C237 C236 1.384 . S
C237 C238 1.377 . S
C237 C240 1.481 . S
C238 C237 1.377 . S
C238 C239 1.389 . S
C238 H260 0.929 . S
C239 C235 1.397 . S
C239 C238 1.389 . S
C239 H261 0.931 . S
C240 C237 1.481 . S
C240 C241 1.387 . S
C240 C245 1.390 . S
C241 C240 1.387 . S
C241 C242 1.401 . S
C241 H262 0.930 . S
C242 C241 1.401 . S
C242 C243 1.376 . S
C242 C251 1.511 . S
C243 C242 1.376 . S
C243 C244 1.392 . S
C243 H264 0.931 . S
C244 C243 1.392 . S
C244 C245 1.361 . S
C244 C246 1.500 . S
C245 C240 1.390 . S
C245 C244 1.361 . S
C245 H263 0.931 . S
C246 C244 1.500 . S
C246 C247 1.371 . S
C246 C248 1.365 . S
C247 C246 1.371 . S
C247 C257 1.386 . S
C247 H265 0.931 . S
C248 C246 1.365 . S
C248 C249 1.409 . S
C248 H266 0.929 . S
C249 C248 1.409 . S
C249 C250 1.380 . S
C249 H267 0.930 . S
C250 C249 1.380 . S
C250 C257 1.357 . S
C251 C242 1.511 . S
C251 C252 1.341 . S
C251 C253 1.371 . S
C252 C251 1.341 . S
C252 C256 1.394 1_655 S
C252 H268 0.930 . S
C253 C251 1.371 . S
C253 C254 1.392 . S
C253 H269 0.931 . S
C254 C253 1.392 . S
C254 C255 1.331 1_655 S
C254 H272 0.932 . S
C255 C254 1.331 1_455 S
C255 C256 1.336 . S
C256 C252 1.394 1_455 S
C256 C255 1.336 . S
C256 H271 0.929 . S
C257 C247 1.386 . S
C257 C250 1.357 . S
C257 H270 0.928 . S
H258 C234 0.931 . S
H259 C236 0.930 . S
H260 C238 0.929 . S
H261 C239 0.931 . S
H262 C241 0.930 . S
H263 C245 0.931 . S
H264 C243 0.931 . S
H265 C247 0.931 . S
H266 C248 0.929 . S
H267 C249 0.930 . S
H268 C252 0.930 . S
H269 C253 0.931 . S
H270 C257 0.928 . S
H271 C256 0.929 . S
H272 C254 0.932 . S
C273 C274 1.386 . S
C273 C275 1.397 . S
C273 H297 0.931 . S
C274 C273 1.386 . S
C274 C278 1.397 . S
C275 C273 1.397 . S
C275 C276 1.384 . S
C275 H298 0.930 . S
C276 C275 1.384 . S
C276 C277 1.377 . S
C276 C279 1.481 . S
C277 C276 1.377 . S
C277 C278 1.389 . S
C277 H299 0.929 . S
C278 C274 1.397 . S
C278 C277 1.389 . S
C278 H300 0.931 . S
C279 C276 1.481 . S
C279 C280 1.387 . S
C279 C284 1.390 . S
C280 C279 1.387 . S
C280 C281 1.401 . S
C280 H301 0.930 . S
C281 C280 1.401 . S
C281 C282 1.376 . S
C281 C290 1.511 . S
C282 C281 1.376 . S
C282 C283 1.392 . S
C282 H303 0.931 . S
C283 C282 1.392 . S
C283 C284 1.361 . S
C283 C285 1.500 . S
C284 C279 1.390 . S
C284 C283 1.361 . S
C284 H302 0.931 . S
C285 C283 1.500 . S
C285 C286 1.371 . S
C285 C287 1.365 . S
C286 C285 1.371 . S
C286 C296 1.386 . S
C286 H304 0.931 . S
C287 C285 1.365 . S
C287 C288 1.409 . S
C287 H305 0.929 . S
C288 C287 1.409 . S
C288 C289 1.380 . S
C288 H306 0.930 . S
C289 C288 1.380 . S
C289 C296 1.357 . S
C290 C281 1.511 . S
C290 C291 1.341 . S
C290 C292 1.371 . S
C291 C290 1.341 . S
C291 C295 1.394 . S
C291 H307 0.930 . S
C292 C290 1.371 . S
C292 C293 1.392 . S
C292 H308 0.931 . S
C293 C292 1.392 . S
C293 C294 1.331 . S
C293 H311 0.932 . S
C294 C293 1.331 . S
C294 C295 1.336 . S
C295 C291 1.394 . S
C295 C294 1.336 . S
C295 H310 0.929 . S
C296 C286 1.386 . S
C296 C289 1.357 . S
C296 H309 0.928 . S
H297 C273 0.931 . S
H298 C275 0.930 . S
H299 C277 0.929 . S
H300 C278 0.931 . S
H301 C280 0.930 . S
H302 C284 0.931 . S
H303 C282 0.931 . S
H304 C286 0.931 . S
H305 C287 0.929 . S
H306 C288 0.930 . S
H307 C291 0.930 . S
H308 C292 0.931 . S
H309 C296 0.928 . S
H310 C295 0.929 . S
H311 C293 0.932 . S
C312 C313 1.386 . S
C312 C314 1.397 . S
C312 H336 0.931 . S
C313 C312 1.386 . S
C313 C317 1.397 . S
C314 C312 1.397 . S
C314 C315 1.384 . S
C314 H337 0.930 . S
C315 C314 1.384 . S
C315 C316 1.377 . S
C315 C318 1.481 . S
C316 C315 1.377 . S
C316 C317 1.389 . S
C316 H338 0.929 . S
C317 C313 1.397 . S
C317 C316 1.389 . S
C317 H339 0.931 . S
C318 C315 1.481 . S
C318 C319 1.387 . S
C318 C323 1.390 . S
C319 C318 1.387 . S
C319 C320 1.401 . S
C319 H340 0.930 . S
C320 C319 1.401 . S
C320 C321 1.376 . S
C320 C329 1.511 . S
C321 C320 1.376 . S
C321 C322 1.392 . S
C321 H342 0.931 . S
C322 C321 1.392 . S
C322 C323 1.361 . S
C322 C324 1.500 . S
C323 C318 1.390 . S
C323 C322 1.361 . S
C323 H341 0.931 . S
C324 C322 1.500 . S
C324 C325 1.371 . S
C324 C326 1.365 . S
C325 C324 1.371 . S
C325 C335 1.386 . S
C325 H343 0.931 . S
C326 C324 1.365 . S
C326 C327 1.409 . S
C326 H344 0.929 . S
C327 C326 1.409 . S
C327 C328 1.380 . S
C327 H345 0.930 . S
C328 C327 1.380 . S
C328 C335 1.357 . S
C329 C320 1.511 . S
C329 C330 1.341 . S
C329 C331 1.371 . S
C330 C329 1.341 . S
C330 C334 1.394 . S
C330 H346 0.930 . S
C331 C329 1.371 . S
C331 C332 1.392 . S
C331 H347 0.931 . S
C332 C331 1.392 . S
C332 C333 1.331 . S
C332 H350 0.932 . S
C333 C332 1.331 . S
C333 C334 1.336 . S
C334 C330 1.394 . S
C334 C333 1.336 . S
C334 H349 0.929 . S
C335 C325 1.386 . S
C335 C328 1.357 . S
C335 H348 0.928 . S
H336 C312 0.931 . S
H337 C314 0.930 . S
H338 C316 0.929 . S
H339 C317 0.931 . S
H340 C319 0.930 . S
H341 C323 0.931 . S
H342 C321 0.931 . S
H343 C325 0.931 . S
H344 C326 0.929 . S
H345 C327 0.930 . S
H346 C330 0.930 . S
H347 C331 0.931 . S
H348 C335 0.928 . S
H349 C334 0.929 . S
H350 C332 0.932 . S
C351 C352 1.386 . S
C351 C353 1.397 . S
C351 H375 0.931 . S
C352 C351 1.386 . S
C352 C356 1.397 . S
C353 C351 1.397 . S
C353 C354 1.384 . S
C353 H376 0.930 . S
C354 C353 1.384 . S
C354 C355 1.377 . S
C354 C357 1.481 . S
C355 C354 1.377 . S
C355 C356 1.389 . S
C355 H377 0.929 . S
C356 C352 1.397 . S
C356 C355 1.389 . S
C356 H378 0.931 . S
C357 C354 1.481 . S
C357 C358 1.387 . S
C357 C362 1.390 . S
C358 C357 1.387 . S
C358 C359 1.401 . S
C358 H379 0.930 . S
C359 C358 1.401 . S
C359 C360 1.376 . S
C359 C368 1.511 . S
C360 C359 1.376 . S
C360 C361 1.392 . S
C360 H381 0.931 . S
C361 C360 1.392 . S
C361 C362 1.361 . S
C361 C363 1.500 . S
C362 C357 1.390 . S
C362 C361 1.361 . S
C362 H380 0.931 . S
C363 C361 1.500 . S
C363 C364 1.371 . S
C363 C365 1.365 . S
C364 C363 1.371 . S
C364 C374 1.386 . S
C364 H382 0.931 . S
C365 C363 1.365 . S
C365 C366 1.409 . S
C365 H383 0.929 . S
C366 C365 1.409 . S
C366 C367 1.380 . S
C366 H384 0.930 . S
C367 C366 1.380 . S
C367 C374 1.357 . S
C368 C359 1.511 . S
C368 C369 1.341 . S
C368 C370 1.371 . S
C369 C368 1.341 . S
C369 C373 1.394 1_565 S
C369 H385 0.930 . S
C370 C368 1.371 . S
C370 C371 1.392 1_565 S
C370 H386 0.931 . S
C371 C370 1.392 1_545 S
C371 C372 1.331 . S
C371 H389 0.932 . S
C372 C371 1.331 . S
C372 C373 1.336 . S
C373 C369 1.394 1_545 S
C373 C372 1.336 . S
C373 H388 0.929 . S
C374 C364 1.386 . S
C374 C367 1.357 . S
C374 H387 0.928 . S
H375 C351 0.931 . S
H376 C353 0.930 . S
H377 C355 0.929 . S
H378 C356 0.931 . S
H379 C358 0.930 . S
H380 C362 0.931 . S
H381 C360 0.931 . S
H382 C364 0.931 . S
H383 C365 0.929 . S
H384 C366 0.930 . S
H385 C369 0.930 . S
H386 C370 0.931 . S
H387 C374 0.928 . S
H388 C373 0.929 . S
H389 C371 0.932 . S
C390 C391 1.386 . S
C390 C392 1.397 . S
C390 H414 0.931 . S
C391 C390 1.386 . S
C391 C395 1.397 . S
C392 C390 1.397 . S
C392 C393 1.384 . S
C392 H415 0.930 . S
C393 C392 1.384 . S
C393 C394 1.377 . S
C393 C396 1.481 . S
C394 C393 1.377 . S
C394 C395 1.389 . S
C394 H416 0.929 . S
C395 C391 1.397 . S
C395 C394 1.389 . S
C395 H417 0.931 . S
C396 C393 1.481 . S
C396 C397 1.387 . S
C396 C401 1.390 . S
C397 C396 1.387 . S
C397 C398 1.401 . S
C397 H418 0.930 . S
C398 C397 1.401 . S
C398 C399 1.376 . S
C398 C407 1.511 . S
C399 C398 1.376 . S
C399 C400 1.392 . S
C399 H420 0.931 . S
C400 C399 1.392 . S
C400 C401 1.361 . S
C400 C402 1.500 . S
C401 C396 1.390 . S
C401 C400 1.361 . S
C401 H419 0.931 . S
C402 C400 1.500 . S
C402 C403 1.371 . S
C402 C404 1.365 . S
C403 C402 1.371 . S
C403 C413 1.386 . S
C403 H421 0.931 . S
C404 C402 1.365 . S
C404 C405 1.409 . S
C404 H422 0.929 . S
C405 C404 1.409 . S
C405 C406 1.380 . S
C405 H423 0.930 . S
C406 C405 1.380 . S
C406 C413 1.357 . S
C407 C398 1.511 . S
C407 C408 1.341 . S
C407 C409 1.371 . S
C408 C407 1.341 . S
C408 C412 1.394 . S
C408 H424 0.930 . S
C409 C407 1.371 . S
C409 C410 1.392 . S
C409 H425 0.931 . S
C410 C409 1.392 . S
C410 C411 1.331 . S
C410 H428 0.932 . S
C411 C410 1.331 . S
C411 C412 1.336 . S
C412 C408 1.394 . S
C412 C411 1.336 . S
C412 H427 0.929 . S
C413 C403 1.386 . S
C413 C406 1.357 . S
C413 H426 0.928 . S
H414 C390 0.931 . S
H415 C392 0.930 . S
H416 C394 0.929 . S
H417 C395 0.931 . S
H418 C397 0.930 . S
H419 C401 0.931 . S
H420 C399 0.931 . S
H421 C403 0.931 . S
H422 C404 0.929 . S
H423 C405 0.930 . S
H424 C408 0.930 . S
H425 C409 0.931 . S
H426 C413 0.928 . S
H427 C412 0.929 . S
H428 C410 0.932 . S
C429 C430 1.386 . S
C429 C431 1.397 . S
C429 H453 0.931 . S
C430 C429 1.386 . S
C430 C434 1.397 . S
C431 C429 1.397 . S
C431 C432 1.384 . S
C431 H454 0.930 . S
C432 C431 1.384 . S
C432 C433 1.377 . S
C432 C435 1.481 . S
C433 C432 1.377 . S
C433 C434 1.389 . S
C433 H455 0.929 . S
C434 C430 1.397 . S
C434 C433 1.389 . S
C434 H456 0.931 . S
C435 C432 1.481 . S
C435 C436 1.387 . S
C435 C440 1.390 . S
C436 C435 1.387 . S
C436 C437 1.401 . S
C436 H457 0.930 . S
C437 C436 1.401 . S
C437 C438 1.376 . S
C437 C446 1.511 . S
C438 C437 1.376 . S
C438 C439 1.392 . S
C438 H459 0.931 . S
C439 C438 1.392 . S
C439 C440 1.361 . S
C439 C441 1.500 . S
C440 C435 1.390 . S
C440 C439 1.361 . S
C440 H458 0.931 . S
C441 C439 1.500 . S
C441 C442 1.371 . S
C441 C443 1.365 . S
C442 C441 1.371 . S
C442 C452 1.386 . S
C442 H460 0.931 . S
C443 C441 1.365 . S
C443 C444 1.409 . S
C443 H461 0.929 . S
C444 C443 1.409 . S
C444 C445 1.380 . S
C444 H462 0.930 . S
C445 C444 1.380 . S
C445 C452 1.357 . S
C446 C437 1.511 . S
C446 C447 1.341 . S
C446 C448 1.371 . S
C447 C446 1.341 . S
C447 C451 1.394 . S
C447 H463 0.930 . S
C448 C446 1.371 . S
C448 C449 1.392 . S
C448 H464 0.931 . S
C449 C448 1.392 . S
C449 C450 1.331 . S
C449 H467 0.932 . S
C450 C449 1.331 . S
C450 C451 1.336 . S
C451 C447 1.394 . S
C451 C450 1.336 . S
C451 H466 0.929 . S
C452 C442 1.386 . S
C452 C445 1.357 . S
C452 H465 0.928 . S
H453 C429 0.931 . S
H454 C431 0.930 . S
H455 C433 0.929 . S
H456 C434 0.931 . S
H457 C436 0.930 . S
H458 C440 0.931 . S
H459 C438 0.931 . S
H460 C442 0.931 . S
H461 C443 0.929 . S
H462 C444 0.930 . S
H463 C447 0.930 . S
H464 C448 0.931 . S
H465 C452 0.928 . S
H466 C451 0.929 . S
H467 C449 0.932 . S
C468 C469 1.386 . S
C468 C470 1.397 . S
C468 H492 0.931 . S
C469 C468 1.386 . S
C469 C473 1.397 . S
C470 C468 1.397 . S
C470 C471 1.384 . S
C470 H493 0.930 . S
C471 C470 1.384 . S
C471 C472 1.377 . S
C471 C474 1.481 . S
C472 C471 1.377 . S
C472 C473 1.389 . S
C472 H494 0.929 . S
C473 C469 1.397 . S
C473 C472 1.389 . S
C473 H495 0.931 . S
C474 C471 1.481 . S
C474 C475 1.387 . S
C474 C479 1.390 . S
C475 C474 1.387 . S
C475 C476 1.401 . S
C475 H496 0.930 . S
C476 C475 1.401 . S
C476 C477 1.376 . S
C476 C485 1.511 . S
C477 C476 1.376 . S
C477 C478 1.392 . S
C477 H498 0.931 . S
C478 C477 1.392 . S
C478 C479 1.361 . S
C478 C480 1.500 . S
C479 C474 1.390 . S
C479 C478 1.361 . S
C479 H497 0.931 . S
C480 C478 1.500 . S
C480 C481 1.371 . S
C480 C482 1.365 . S
C481 C480 1.371 . S
C481 C491 1.386 . S
C481 H499 0.931 . S
C482 C480 1.365 . S
C482 C483 1.409 . S
C482 H500 0.929 . S
C483 C482 1.409 . S
C483 C484 1.380 . S
C483 H501 0.930 . S
C484 C483 1.380 . S
C484 C491 1.357 . S
C485 C476 1.511 . S
C485 C486 1.341 . S
C485 C487 1.371 . S
C486 C485 1.341 . S
C486 C490 1.394 . S
C486 H502 0.930 . S
C487 C485 1.371 . S
C487 C488 1.392 . S
C487 H503 0.931 . S
C488 C487 1.392 . S
C488 C489 1.331 . S
C488 H506 0.932 . S
C489 C488 1.331 . S
C489 C490 1.336 . S
C490 C486 1.394 . S
C490 C489 1.336 . S
C490 H505 0.929 . S
C491 C481 1.386 . S
C491 C484 1.357 . S
C491 H504 0.928 . S
H492 C468 0.931 . S
H493 C470 0.930 . S
H494 C472 0.929 . S
H495 C473 0.931 . S
H496 C475 0.930 . S
H497 C479 0.931 . S
H498 C477 0.931 . S
H499 C481 0.931 . S
H500 C482 0.929 . S
H501 C483 0.930 . S
H502 C486 0.930 . S
H503 C487 0.931 . S
H504 C491 0.928 . S
H505 C490 0.929 . S
H506 C488 0.932 . S
C507 C508 1.386 . S
C507 C509 1.397 . S
C507 H531 0.931 . S
C508 C507 1.386 . S
C508 C512 1.397 . S
C509 C507 1.397 . S
C509 C510 1.384 . S
C509 H532 0.930 . S
C510 C509 1.384 . S
C510 C511 1.377 . S
C510 C513 1.481 . S
C511 C510 1.377 . S
C511 C512 1.389 . S
C511 H533 0.929 . S
C512 C508 1.397 . S
C512 C511 1.389 . S
C512 H534 0.931 . S
C513 C510 1.481 . S
C513 C514 1.387 . S
C513 C518 1.390 . S
C514 C513 1.387 . S
C514 C515 1.401 . S
C514 H535 0.930 . S
C515 C514 1.401 . S
C515 C516 1.376 . S
C515 C524 1.511 . S
C516 C515 1.376 . S
C516 C517 1.392 . S
C516 H537 0.931 . S
C517 C516 1.392 . S
C517 C518 1.361 . S
C517 C519 1.500 . S
C518 C513 1.390 . S
C518 C517 1.361 . S
C518 H536 0.931 . S
C519 C517 1.500 . S
C519 C520 1.371 . S
C519 C521 1.365 . S
C520 C519 1.371 . S
C520 C530 1.386 . S
C520 H538 0.931 . S
C521 C519 1.365 . S
C521 C522 1.409 . S
C521 H539 0.929 . S
C522 C521 1.409 . S
C522 C523 1.380 . S
C522 H540 0.930 . S
C523 C522 1.380 . S
C523 C530 1.357 . S
C524 C515 1.511 . S
C524 C525 1.341 . S
C524 C526 1.371 . S
C525 C524 1.341 . S
C525 C529 1.394 . S
C525 H541 0.930 . S
C526 C524 1.371 . S
C526 C527 1.381 1_556 S
C526 H542 0.931 . S
C527 C526 1.381 1_554 S
C527 C528 1.332 . S
C527 H545 0.942 . S
C528 C527 1.332 . S
C528 C529 1.336 1_554 S
C529 C525 1.394 . S
C529 C528 1.336 1_556 S
C529 H544 0.929 . S
C530 C520 1.386 . S
C530 C523 1.357 . S
C530 H543 0.928 . S
H531 C507 0.931 . S
H532 C509 0.930 . S
H533 C511 0.929 . S
H534 C512 0.931 . S
H535 C514 0.930 . S
H536 C518 0.931 . S
H537 C516 0.931 . S
H538 C520 0.931 . S
H539 C521 0.929 . S
H540 C522 0.930 . S
H541 C525 0.930 . S
H542 C526 0.931 . S
H543 C530 0.928 . S
H544 C529 0.929 . S
H545 C527 0.942 . S
C546 C547 1.386 . S
C546 C548 1.397 . S
C546 H570 0.931 . S
C547 C546 1.386 . S
C547 C551 1.397 . S
C548 C546 1.397 . S
C548 C549 1.384 . S
C548 H571 0.930 . S
C549 C548 1.384 . S
C549 C550 1.377 . S
C549 C552 1.481 . S
C550 C549 1.377 . S
C550 C551 1.389 . S
C550 H572 0.929 . S
C551 C547 1.397 . S
C551 C550 1.389 . S
C551 H573 0.931 . S
C552 C549 1.481 . S
C552 C553 1.387 . S
C552 C557 1.390 . S
C553 C552 1.387 . S
C553 C554 1.401 . S
C553 H574 0.930 . S
C554 C553 1.401 . S
C554 C555 1.376 . S
C554 C563 1.511 . S
C555 C554 1.376 . S
C555 C556 1.392 . S
C555 H576 0.931 . S
C556 C555 1.392 . S
C556 C557 1.361 . S
C556 C558 1.500 . S
C557 C552 1.390 . S
C557 C556 1.361 . S
C557 H575 0.931 . S
C558 C556 1.500 . S
C558 C559 1.371 . S
C558 C560 1.365 . S
C559 C558 1.371 . S
C559 C569 1.386 . S
C559 H577 0.931 . S
C560 C558 1.365 . S
C560 C561 1.409 . S
C560 H578 0.929 . S
C561 C560 1.409 . S
C561 C562 1.380 . S
C561 H579 0.930 . S
C562 C561 1.380 . S
C562 C569 1.357 . S
C563 C554 1.511 . S
C563 C564 1.341 . S
C563 C565 1.371 . S
C564 C563 1.341 . S
C564 C568 1.394 . S
C564 H580 0.930 . S
C565 C563 1.371 . S
C565 C566 1.392 . S
C565 H581 0.931 . S
C566 C565 1.392 . S
C566 C567 1.331 . S
C566 H584 0.932 . S
C567 C566 1.331 . S
C567 C568 1.336 . S
C568 C564 1.394 . S
C568 C567 1.336 . S
C568 H583 0.929 . S
C569 C559 1.386 . S
C569 C562 1.357 . S
C569 H582 0.928 . S
H570 C546 0.931 . S
H571 C548 0.930 . S
H572 C550 0.929 . S
H573 C551 0.931 . S
H574 C553 0.930 . S
H575 C557 0.931 . S
H576 C555 0.931 . S
H577 C559 0.931 . S
H578 C560 0.929 . S
H579 C561 0.930 . S
H580 C564 0.930 . S
H581 C565 0.931 . S
H582 C569 0.928 . S
H583 C568 0.929 . S
H584 C566 0.932 . S
C585 C586 1.386 1_556 S
C585 C587 1.397 . S
C585 H609 0.931 . S
C586 C585 1.386 1_554 S
C586 C590 1.397 . S
C587 C585 1.397 . S
C587 C588 1.384 . S
C587 H610 0.930 . S
C588 C587 1.384 . S
C588 C589 1.377 1_556 S
C588 C591 1.481 . S
C589 C588 1.377 1_554 S
C589 C590 1.389 . S
C589 H611 0.929 . S
C590 C586 1.397 . S
C590 C589 1.389 . S
C590 H612 0.931 . S
C591 C588 1.481 . S
C591 C592 1.387 . S
C591 C596 1.390 . S
C592 C591 1.387 . S
C592 C593 1.401 . S
C592 H613 0.930 . S
C593 C592 1.401 . S
C593 C594 1.376 . S
C593 C602 1.511 . S
C594 C593 1.376 . S
C594 C595 1.392 . S
C594 H615 0.931 . S
C595 C594 1.392 . S
C595 C596 1.361 . S
C595 C597 1.500 . S
C596 C591 1.390 . S
C596 C595 1.361 . S
C596 H614 0.931 . S
C597 C595 1.500 . S
C597 C598 1.371 . S
C597 C599 1.365 . S
C598 C597 1.371 . S
C598 C608 1.386 . S
C598 H616 0.931 . S
C599 C597 1.365 . S
C599 C600 1.409 . S
C599 H617 0.929 . S
C600 C599 1.409 . S
C600 C601 1.408 . S
C600 H618 0.867 1_556 S
C601 C600 1.408 . S
C601 C608 1.366 . S
C602 C593 1.511 . S
C602 C603 1.341 . S
C602 C604 1.371 . S
C603 C602 1.341 . S
C603 C607 1.394 . S
C603 H619 0.930 . S
C604 C602 1.371 . S
C604 C605 1.392 . S
C604 H620 0.931 . S
C605 C604 1.392 . S
C605 C606 1.331 . S
C605 H623 0.932 . S
C606 C605 1.331 . S
C606 C607 1.336 . S
C607 C603 1.394 . S
C607 C606 1.336 . S
C607 H622 0.929 . S
C608 C598 1.386 . S
C608 C601 1.366 . S
C608 H621 0.928 1_545 S
H609 C585 0.931 . S
H610 C587 0.930 . S
H611 C589 0.929 . S
H612 C590 0.931 . S
H613 C592 0.930 . S
H614 C596 0.931 . S
H615 C594 0.931 . S
H616 C598 0.931 . S
H617 C599 0.929 . S
H618 C600 0.867 1_554 S
H619 C603 0.930 . S
H620 C604 0.931 . S
H621 C608 0.928 1_565 S
H622 C607 0.929 . S
H623 C605 0.932 . S
C624 O625 1.160 1_554 S
C624 O631 1.185 . S
O625 C624 1.160 1_556 S
O626 Zn627 1.899 1_556 S
O626 C634 1.284 . S
Zn627 O626 1.899 1_554 S
Zn627 O628 2.032 . S
Zn627 O631 2.086 . S
Zn627 O636 1.977 . S
O628 Zn627 2.032 . S
O628 C632 1.278 . S
C629 O630 1.203 . S
C629 O636 1.267 . S
O630 C629 1.203 . S
O631 C624 1.185 . S
O631 Zn627 2.086 . S
C632 O628 1.278 . S
C632 O633 1.211 . S
O633 C632 1.211 . S
C634 O626 1.284 . S
C634 O635 1.273 . S
O635 C634 1.273 . S
O636 Zn627 1.977 . S
O636 C629 1.267 . S
C637 O638 1.160 . S
C637 O644 1.185 . S
O638 C637 1.160 . S
O639 Zn640 1.899 . S
O639 C647 1.284 . S
Zn640 O639 1.899 . S
Zn640 O641 2.032 . S
Zn640 O644 2.086 . S
Zn640 O649 1.977 . S
O641 Zn640 2.032 . S
O641 C645 1.278 . S
C642 O643 1.203 . S
C642 O649 1.267 . S
O643 C642 1.203 . S
O644 C637 1.185 . S
O644 Zn640 2.086 . S
C645 O641 1.278 . S
C645 O646 1.211 . S
O646 C645 1.211 . S
C647 O639 1.284 . S
C647 O648 1.273 . S
O648 C647 1.273 . S
O649 Zn640 1.977 . S
O649 C642 1.267 . S
C650 O651 1.160 1_554 S
C650 O657 1.185 . S
O651 C650 1.160 1_556 S
O652 Zn653 1.899 1_556 S
O652 C660 1.284 . S
Zn653 O652 1.899 1_554 S
Zn653 O654 2.032 1_554 S
Zn653 O657 2.086 . S
Zn653 O662 1.977 . S
O654 Zn653 2.032 1_556 S
O654 C658 1.278 . S
C655 O656 1.203 . S
C655 O662 1.267 . S
O656 C655 1.203 . S
O657 C650 1.185 . S
O657 Zn653 2.086 . S
C658 O654 1.278 . S
C658 O659 1.211 1_556 S
O659 C658 1.211 1_554 S
C660 O652 1.284 . S
C660 O661 1.273 . S
O661 C660 1.273 . S
O662 Zn653 1.977 . S
O662 C655 1.267 . S
C663 O664 1.160 . S
C663 O670 1.185 . S
O664 C663 1.160 . S
O665 Zn666 1.899 . S
O665 C673 1.284 . S
Zn666 O665 1.899 . S
Zn666 O667 2.032 . S
Zn666 O670 2.086 . S
Zn666 O675 1.977 . S
O667 Zn666 2.032 . S
O667 C671 1.278 1_545 S
C668 O669 1.203 . S
C668 O675 1.267 . S
O669 C668 1.203 . S
O670 C663 1.185 . S
O670 Zn666 2.086 . S
C671 O667 1.278 1_565 S
C671 O672 1.211 . S
O672 C671 1.211 . S
C673 O665 1.284 . S
C673 O674 1.273 1_545 S
O674 C673 1.273 1_565 S
O675 Zn666 1.977 . S
O675 C668 1.267 . S
C676 O677 1.160 . S
C676 O683 1.185 . S
O677 C676 1.160 . S
O678 Zn679 1.899 . S
O678 C686 1.284 . S
Zn679 O678 1.899 . S
Zn679 O680 2.032 . S
Zn679 O683 2.086 . S
Zn679 O688 1.977 . S
O680 Zn679 2.032 . S
O680 C684 1.278 . S
C681 O682 1.203 . S
C681 O688 1.267 . S
O682 C681 1.203 . S
O683 C676 1.185 . S
O683 Zn679 2.086 . S
C684 O680 1.278 . S
C684 O685 1.211 . S
O685 C684 1.211 . S
C686 O678 1.284 . S
C686 O687 1.273 . S
O687 C686 1.273 . S
O688 Zn679 1.977 . S
O688 C681 1.267 . S
C689 O690 1.160 . S
C689 O696 1.185 . S
O690 C689 1.160 . S
O691 Zn692 1.899 . S
O691 C699 1.284 . S
Zn692 O691 1.899 . S
Zn692 O693 2.032 . S
Zn692 O696 2.086 . S
Zn692 O701 1.977 . S
O693 Zn692 2.032 . S
O693 C697 1.278 . S
C694 O695 1.203 . S
C694 O701 1.267 . S
O695 C694 1.203 . S
O696 C689 1.185 . S
O696 Zn692 2.086 . S
C697 O693 1.278 . S
C697 O698 1.211 . S
O698 C697 1.211 . S
C699 O691 1.284 . S
C699 O700 1.273 . S
O700 C699 1.273 . S
O701 Zn692 1.977 . S
O701 C694 1.267 . S
C702 O703 1.160 . S
C702 O709 1.185 . S
O703 C702 1.160 . S
O704 Zn705 1.899 . S
O704 C712 1.284 . S
Zn705 O704 1.899 . S
Zn705 O706 2.032 . S
Zn705 O709 2.086 . S
Zn705 O714 1.977 . S
O706 Zn705 2.032 . S
O706 C710 1.278 . S
C707 O708 1.203 . S
C707 O714 1.267 . S
O708 C707 1.203 . S
O709 C702 1.185 . S
O709 Zn705 2.086 . S
C710 O706 1.278 . S
C710 O711 1.211 . S
O711 C710 1.211 . S
C712 O704 1.284 . S
C712 O713 1.273 . S
O713 C712 1.273 . S
O714 Zn705 1.977 . S
O714 C707 1.267 . S
C715 O716 1.160 . S
C715 O722 1.185 . S
O716 C715 1.160 . S
O717 Zn718 1.899 . S
O717 C725 1.284 1_565 S
Zn718 O717 1.899 . S
Zn718 O719 2.032 1_565 S
Zn718 O722 2.086 . S
Zn718 O727 1.977 . S
O719 Zn718 2.032 1_545 S
O719 C723 1.278 . S
C720 O721 1.203 1_565 S
C720 O727 1.267 . S
O721 C720 1.203 1_545 S
O722 C715 1.185 . S
O722 Zn718 2.086 . S
C723 O719 1.278 . S
C723 O724 1.211 . S
O724 C723 1.211 . S
C725 O717 1.284 1_545 S
C725 O726 1.273 . S
O726 C725 1.273 . S
O727 Zn718 1.977 . S
O727 C720 1.267 . S
C728 O729 1.160 1_455 S
C728 O735 1.185 . S
O729 C728 1.160 1_655 S
O730 Zn731 1.899 1_655 S
O730 C738 1.284 . S
Zn731 O730 1.899 1_455 S
Zn731 O732 2.032 1_455 S
Zn731 O735 2.086 . S
Zn731 O740 1.977 . S
O732 Zn731 2.032 1_655 S
O732 C736 1.276 1_655 S
C733 O734 1.203 . S
C733 O740 1.267 . S
O734 C733 1.203 . S
O735 C728 1.185 . S
O735 Zn731 2.086 . S
C736 O732 1.276 1_455 S
C736 O737 1.218 . S
O737 C736 1.218 . S
C738 O730 1.284 . S
C738 O739 1.273 . S
O739 C738 1.273 . S
O740 Zn731 1.977 . S
O740 C733 1.267 . S
C741 O742 1.160 . S
C741 O748 1.185 . S
O742 C741 1.160 . S
O743 Zn744 1.899 . S
O743 C751 1.284 . S
Zn744 O743 1.899 . S
Zn744 O745 2.032 . S
Zn744 O748 2.086 . S
Zn744 O753 1.977 . S
O745 Zn744 2.032 . S
O745 C749 1.278 . S
C746 O747 1.203 . S
C746 O753 1.267 . S
O747 C746 1.203 . S
O748 C741 1.185 . S
O748 Zn744 2.086 . S
C749 O745 1.278 . S
C749 O750 1.211 . S
O750 C749 1.211 . S
C751 O743 1.284 . S
C751 O752 1.273 . S
O752 C751 1.273 . S
O753 Zn744 1.977 . S
O753 C746 1.267 . S
C754 O755 1.160 1_455 S
C754 O761 1.185 . S
O755 C754 1.160 1_655 S
O756 Zn757 1.899 1_655 S
O756 C764 1.284 . S
Zn757 O756 1.899 1_455 S
Zn757 O758 2.032 1_455 S
Zn757 O761 2.086 . S
Zn757 O766 1.977 . S
O758 Zn757 2.032 1_655 S
O758 C762 1.275 1_655 S
C759 O760 1.203 . S
C759 O766 1.267 . S
O760 C759 1.203 . S
O761 C754 1.185 . S
O761 Zn757 2.086 . S
C762 O758 1.275 1_455 S
C762 O763 1.218 . S
O763 C762 1.218 . S
C764 O756 1.284 . S
C764 O765 1.273 . S
O765 C764 1.273 . S
O766 Zn757 1.977 . S
O766 C759 1.267 . S
C767 O768 1.160 . S
C767 O774 1.185 . S
O768 C767 1.160 . S
O769 Zn770 1.899 . S
O769 C777 1.284 . S
Zn770 O769 1.899 . S
Zn770 O771 2.032 . S
Zn770 O774 2.086 . S
Zn770 O779 1.977 . S
O771 Zn770 2.032 . S
O771 C775 1.278 . S
C772 O773 1.203 . S
C772 O779 1.267 . S
O773 C772 1.203 . S
O774 C767 1.185 . S
O774 Zn770 2.086 . S
C775 O771 1.278 . S
C775 O776 1.211 . S
O776 C775 1.211 . S
C777 O769 1.284 . S
C777 O778 1.273 . S
O778 C777 1.273 . S
O779 Zn770 1.977 . S
O779 C772 1.267 . S
H780 C788 0.929 . S
H781 C790 0.930 . S
H782 C792 0.930 . S
H783 C795 0.929 . S
H784 C798 0.930 . S
H785 C800 0.960 . S
H786 C800 0.960 . S
H787 C800 0.960 . S
C788 H780 0.929 . S
C788 C789 1.377 . S
C788 C790 1.384 . S
C789 C788 1.377 . S
C789 C795 1.390 . S
C790 H781 0.930 . S
C790 C788 1.384 . S
C790 C791 1.372 . S
C791 C790 1.372 . S
C791 C792 1.400 . S
C791 C796 1.490 . S
C792 H782 0.930 . S
C792 C791 1.400 . S
C792 C795 1.386 . S
H793 C809 0.930 . S
H794 C810 0.931 . S
C795 H783 0.929 . S
C795 C789 1.390 . S
C795 C792 1.386 . S
C796 C791 1.490 . S
C796 C798 1.395 . S
C796 C799 1.403 . S
H797 C803 0.930 . S
C798 H784 0.930 . S
C798 C796 1.395 . S
C798 C801 1.403 . S
C799 C796 1.403 . S
C799 C800 1.524 . S
C799 C803 1.400 . S
C800 H785 0.960 . S
C800 H786 0.960 . S
C800 H787 0.960 . S
C800 C799 1.524 . S
C801 C798 1.403 . S
C801 C802 1.392 . S
C801 C805 1.495 . S
C802 C801 1.392 . S
C802 C803 1.385 . S
C802 C804 1.478 . S
C803 H797 0.930 . S
C803 C799 1.400 . S
C803 C802 1.385 . S
C804 C802 1.478 . S
C804 C806 1.381 . S
C804 C810 1.383 . S
C805 C801 1.495 . S
C805 H811 0.959 . S
C805 H812 0.961 . S
C805 H813 0.960 . S
C806 C804 1.381 . S
C806 C807 1.394 . S
C806 H814 0.930 . S
C807 C806 1.394 . S
C807 C808 1.383 . S
C807 H815 0.929 . S
C808 C807 1.383 . S
C808 C809 1.377 . S
C809 H793 0.930 . S
C809 C808 1.377 . S
C809 C810 1.379 . S
C810 H794 0.931 . S
C810 C804 1.383 . S
C810 C809 1.379 . S
H811 C805 0.959 . S
H812 C805 0.961 . S
H813 C805 0.960 . S
H814 C806 0.930 . S
H815 C807 0.929 . S
H816 C824 0.929 . S
H817 C826 0.930 . S
H818 C828 0.930 . S
H819 C831 0.929 . S
H820 C834 0.930 . S
H821 C836 0.960 . S
H822 C836 0.960 . S
H823 C836 0.960 . S
C824 H816 0.929 . S
C824 C825 1.377 . S
C824 C826 1.384 . S
C825 C824 1.377 . S
C825 C831 1.390 . S
C826 H817 0.930 . S
C826 C824 1.384 . S
C826 C827 1.372 . S
C827 C826 1.372 . S
C827 C828 1.400 . S
C827 C832 1.490 . S
C828 H818 0.930 . S
C828 C827 1.400 . S
C828 C831 1.386 . S
H829 C845 0.930 . S
H830 C846 0.931 . S
C831 H819 0.929 . S
C831 C825 1.390 . S
C831 C828 1.386 . S
C832 C827 1.490 . S
C832 C834 1.395 . S
C832 C835 1.403 . S
H833 C839 0.930 . S
C834 H820 0.930 . S
C834 C832 1.395 . S
C834 C837 1.403 . S
C835 C832 1.403 . S
C835 C836 1.524 . S
C835 C839 1.400 . S
C836 H821 0.960 . S
C836 H822 0.960 . S
C836 H823 0.960 . S
C836 C835 1.524 . S
C837 C834 1.403 . S
C837 C838 1.392 . S
C837 C841 1.495 . S
C838 C837 1.392 . S
C838 C839 1.385 . S
C838 C840 1.478 . S
C839 H833 0.930 . S
C839 C835 1.400 . S
C839 C838 1.385 . S
C840 C838 1.478 . S
C840 C842 1.381 . S
C840 C846 1.383 . S
C841 C837 1.495 . S
C841 H847 0.959 . S
C841 H848 0.961 . S
C841 H849 0.960 . S
C842 C840 1.381 . S
C842 C843 1.394 . S
C842 H850 0.930 . S
C843 C842 1.394 . S
C843 C844 1.383 . S
C843 H851 0.929 . S
C844 C843 1.383 . S
C844 C845 1.377 . S
C845 H829 0.930 . S
C845 C844 1.377 . S
C845 C846 1.379 . S
C846 H830 0.931 . S
C846 C840 1.383 . S
C846 C845 1.379 . S
H847 C841 0.959 . S
H848 C841 0.961 . S
H849 C841 0.960 . S
H850 C842 0.930 . S
H851 C843 0.929 . S
H852 C860 0.929 . S
H853 C862 0.930 . S
H854 C864 0.930 . S
H855 C867 0.929 . S
H856 C870 0.930 . S
H857 C872 0.960 . S
H858 C872 0.960 . S
H859 C872 0.960 . S
C860 H852 0.929 . S
C860 C861 1.377 . S
C860 C862 1.384 . S
C861 C860 1.377 . S
C861 C867 1.390 . S
C862 H853 0.930 . S
C862 C860 1.384 . S
C862 C863 1.372 . S
C863 C862 1.372 . S
C863 C864 1.400 . S
C863 C868 1.490 . S
C864 H854 0.930 . S
C864 C863 1.400 . S
C864 C867 1.386 . S
H865 C881 0.930 . S
H866 C882 0.931 . S
C867 H855 0.929 . S
C867 C861 1.390 . S
C867 C864 1.386 . S
C868 C863 1.490 . S
C868 C870 1.395 . S
C868 C871 1.403 . S
H869 C875 0.930 . S
C870 H856 0.930 . S
C870 C868 1.395 . S
C870 C873 1.403 . S
C871 C868 1.403 . S
C871 C872 1.524 . S
C871 C875 1.400 . S
C872 H857 0.960 . S
C872 H858 0.960 . S
C872 H859 0.960 . S
C872 C871 1.524 . S
C873 C870 1.403 . S
C873 C874 1.392 . S
C873 C877 1.495 . S
C874 C873 1.392 . S
C874 C875 1.385 . S
C874 C876 1.478 . S
C875 H869 0.930 . S
C875 C871 1.400 . S
C875 C874 1.385 . S
C876 C874 1.478 . S
C876 C878 1.381 . S
C876 C882 1.383 . S
C877 C873 1.495 . S
C877 H883 0.959 . S
C877 H884 0.961 . S
C877 H885 0.960 . S
C878 C876 1.381 . S
C878 C879 1.394 . S
C878 H886 0.930 . S
C879 C878 1.394 . S
C879 C880 1.383 . S
C879 H887 0.929 . S
C880 C879 1.383 . S
C880 C881 1.377 . S
C881 H865 0.930 . S
C881 C880 1.377 . S
C881 C882 1.379 . S
C882 H866 0.931 . S
C882 C876 1.383 . S
C882 C881 1.379 . S
H883 C877 0.959 . S
H884 C877 0.961 . S
H885 C877 0.960 . S
H886 C878 0.930 . S
H887 C879 0.929 . S
H888 C896 0.929 . S
H889 C898 0.930 . S
H890 C900 0.930 . S
H891 C903 0.905 1_545 S
H892 C906 0.930 . S
H893 C908 0.960 . S
H894 C908 0.960 . S
H895 C908 0.960 . S
C896 H888 0.929 . S
C896 C897 1.377 . S
C896 C898 1.384 . S
C897 C896 1.377 . S
C897 C903 1.421 . S
C898 H889 0.930 . S
C898 C896 1.384 . S
C898 C899 1.372 . S
C899 C898 1.372 . S
C899 C900 1.400 1_565 S
C899 C904 1.490 . S
C900 H890 0.930 . S
C900 C899 1.400 1_545 S
C900 C903 1.379 1_545 S
H901 C917 0.930 . S
H902 C918 0.931 . S
C903 H891 0.905 1_565 S
C903 C897 1.421 . S
C903 C900 1.379 1_565 S
C904 C899 1.490 . S
C904 C906 1.395 . S
C904 C907 1.403 . S
H905 C911 0.930 . S
C906 H892 0.930 . S
C906 C904 1.395 . S
C906 C909 1.420 . S
C907 C904 1.403 . S
C907 C908 1.524 . S
C907 C911 1.400 . S
C908 H893 0.960 . S
C908 H894 0.960 . S
C908 H895 0.960 . S
C908 C907 1.524 . S
C909 C906 1.420 . S
C909 C910 1.391 . S
C909 C913 1.484 1_565 S
C910 C909 1.391 . S
C910 C911 1.390 . S
C910 C912 1.472 1_565 S
C911 H905 0.930 . S
C911 C907 1.400 . S
C911 C910 1.390 . S
C912 C910 1.472 1_545 S
C912 C914 1.381 1_545 S
C912 C918 1.383 . S
C913 C909 1.484 1_545 S
C913 H919 0.967 . S
C913 H920 0.961 . S
C913 H921 0.960 1_545 S
C914 C912 1.381 1_565 S
C914 C915 1.394 . S
C914 H922 0.930 . S
C915 C914 1.394 . S
C915 C916 1.383 1_565 S
C915 H923 0.929 . S
C916 C915 1.383 1_545 S
C916 C917 1.377 . S
C917 H901 0.930 . S
C917 C916 1.377 . S
C917 C918 1.379 . S
C918 H902 0.931 . S
C918 C912 1.383 . S
C918 C917 1.379 . S
H919 C913 0.967 . S
H920 C913 0.961 . S
H921 C913 0.960 1_565 S
H922 C914 0.930 . S
H923 C915 0.929 . S
H924 C932 0.929 . S
H925 C934 0.930 . S
H926 C936 0.930 . S
H927 C939 0.929 . S
H928 C942 0.930 . S
H929 C944 0.960 . S
H930 C944 0.960 . S
H931 C944 0.960 . S
C932 H924 0.929 . S
C932 C933 1.377 . S
C932 C934 1.384 . S
C933 C932 1.377 . S
C933 C939 1.390 . S
C934 H925 0.930 . S
C934 C932 1.384 . S
C934 C935 1.372 . S
C935 C934 1.372 . S
C935 C936 1.400 . S
C935 C940 1.490 . S
C936 H926 0.930 . S
C936 C935 1.400 . S
C936 C939 1.386 . S
H937 C953 0.930 . S
H938 C954 0.931 . S
C939 H927 0.929 . S
C939 C933 1.390 . S
C939 C936 1.386 . S
C940 C935 1.490 . S
C940 C942 1.395 . S
C940 C943 1.403 . S
H941 C947 0.930 . S
C942 H928 0.930 . S
C942 C940 1.395 . S
C942 C945 1.403 . S
C943 C940 1.403 . S
C943 C944 1.524 . S
C943 C947 1.400 . S
C944 H929 0.960 . S
C944 H930 0.960 . S
C944 H931 0.960 . S
C944 C943 1.524 . S
C945 C942 1.403 . S
C945 C946 1.392 . S
C945 C949 1.495 . S
C946 C945 1.392 . S
C946 C947 1.385 . S
C946 C948 1.478 . S
C947 H941 0.930 . S
C947 C943 1.400 . S
C947 C946 1.385 . S
C948 C946 1.478 . S
C948 C950 1.381 . S
C948 C954 1.383 . S
C949 C945 1.495 . S
C949 H955 0.959 . S
C949 H956 0.961 . S
C949 H957 0.960 . S
C950 C948 1.381 . S
C950 C951 1.394 . S
C950 H958 0.930 . S
C951 C950 1.394 . S
C951 C952 1.383 . S
C951 H959 0.929 . S
C952 C951 1.383 . S
C952 C953 1.377 . S
C953 H937 0.930 . S
C953 C952 1.377 . S
C953 C954 1.379 . S
C954 H938 0.931 . S
C954 C948 1.383 . S
C954 C953 1.379 . S
H955 C949 0.959 . S
H956 C949 0.961 . S
H957 C949 0.960 . S
H958 C950 0.930 . S
H959 C951 0.929 . S
H960 C968 0.929 . S
H961 C970 0.930 . S
H962 C972 0.930 . S
H963 C975 0.929 . S
H964 C978 0.930 . S
H965 C980 0.960 . S
H966 C980 0.960 . S
H967 C980 0.960 . S
C968 H960 0.929 . S
C968 C969 1.377 . S
C968 C970 1.384 . S
C969 C968 1.377 . S
C969 C975 1.390 . S
C970 H961 0.930 . S
C970 C968 1.384 . S
C970 C971 1.372 . S
C971 C970 1.372 . S
C971 C972 1.400 . S
C971 C976 1.490 . S
C972 H962 0.930 . S
C972 C971 1.400 . S
C972 C975 1.386 . S
H973 C989 0.930 . S
H974 C990 0.931 . S
C975 H963 0.929 . S
C975 C969 1.390 . S
C975 C972 1.386 . S
C976 C971 1.490 . S
C976 C978 1.395 . S
C976 C979 1.403 . S
H977 C983 0.930 . S
C978 H964 0.930 . S
C978 C976 1.395 . S
C978 C981 1.403 . S
C979 C976 1.403 . S
C979 C980 1.524 . S
C979 C983 1.400 . S
C980 H965 0.960 . S
C980 H966 0.960 . S
C980 H967 0.960 . S
C980 C979 1.524 . S
C981 C978 1.403 . S
C981 C982 1.392 . S
C981 C985 1.495 . S
C982 C981 1.392 . S
C982 C983 1.385 . S
C982 C984 1.478 . S
C983 H977 0.930 . S
C983 C979 1.400 . S
C983 C982 1.385 . S
C984 C982 1.478 . S
C984 C986 1.381 . S
C984 C990 1.383 . S
C985 C981 1.495 . S
C985 H991 0.959 . S
C985 H992 0.961 . S
C985 H993 0.960 . S
C986 C984 1.381 . S
C986 C987 1.394 . S
C986 H994 0.930 . S
C987 C986 1.394 . S
C987 C988 1.383 . S
C987 H995 0.929 . S
C988 C987 1.383 . S
C988 C989 1.377 . S
C989 H973 0.930 . S
C989 C988 1.377 . S
C989 C990 1.379 . S
C990 H974 0.931 . S
C990 C984 1.383 . S
C990 C989 1.379 . S
H991 C985 0.959 . S
H992 C985 0.961 . S
H993 C985 0.960 . S
H994 C986 0.930 . S
H995 C987 0.929 . S
H996 C1004 0.929 . S
H997 C1006 0.930 . S
H998 C1008 0.930 . S
H999 C1011 0.929 . S
H1000 C1014 0.930 . S
H1001 C1016 0.960 . S
H1002 C1016 0.960 . S
H1003 C1016 0.960 . S
C1004 H996 0.929 . S
C1004 C1005 1.377 . S
C1004 C1006 1.384 . S
C1005 C1004 1.377 . S
C1005 C1011 1.390 . S
C1006 H997 0.930 . S
C1006 C1004 1.384 . S
C1006 C1007 1.372 . S
C1007 C1006 1.372 . S
C1007 C1008 1.400 . S
C1007 C1012 1.490 . S
C1008 H998 0.930 . S
C1008 C1007 1.400 . S
C1008 C1011 1.386 . S
H1009 C1025 0.930 . S
H1010 C1026 0.931 . S
C1011 H999 0.929 . S
C1011 C1005 1.390 . S
C1011 C1008 1.386 . S
C1012 C1007 1.490 . S
C1012 C1014 1.395 . S
C1012 C1015 1.403 . S
H1013 C1019 0.930 . S
C1014 H1000 0.930 . S
C1014 C1012 1.395 . S
C1014 C1017 1.403 . S
C1015 C1012 1.403 . S
C1015 C1016 1.524 . S
C1015 C1019 1.400 . S
C1016 H1001 0.960 . S
C1016 H1002 0.960 . S
C1016 H1003 0.960 . S
C1016 C1015 1.524 . S
C1017 C1014 1.403 . S
C1017 C1018 1.392 . S
C1017 C1021 1.495 . S
C1018 C1017 1.392 . S
C1018 C1019 1.385 . S
C1018 C1020 1.478 . S
C1019 H1013 0.930 . S
C1019 C1015 1.400 . S
C1019 C1018 1.385 . S
C1020 C1018 1.478 . S
C1020 C1022 1.381 . S
C1020 C1026 1.383 . S
C1021 C1017 1.495 . S
C1021 H1027 0.959 . S
C1021 H1028 0.961 . S
C1021 H1029 0.960 . S
C1022 C1020 1.381 . S
C1022 C1023 1.394 . S
C1022 H1030 0.930 . S
C1023 C1022 1.394 . S
C1023 C1024 1.383 . S
C1023 H1031 0.929 . S
C1024 C1023 1.383 . S
C1024 C1025 1.377 . S
C1025 H1009 0.930 . S
C1025 C1024 1.377 . S
C1025 C1026 1.379 . S
C1026 H1010 0.931 . S
C1026 C1020 1.383 . S
C1026 C1025 1.379 . S
H1027 C1021 0.959 . S
H1028 C1021 0.961 . S
H1029 C1021 0.960 . S
H1030 C1022 0.930 . S
H1031 C1023 0.929 . S
H1032 C1040 0.929 . S
H1033 C1042 0.930 . S
H1034 C1044 0.930 1_545 S
H1035 C1047 0.929 1_545 S
H1036 C1050 0.930 . S
H1037 C1052 0.960 . S
H1038 C1052 0.960 . S
H1039 C1052 0.960 1_545 S
C1040 H1032 0.929 . S
C1040 C1041 1.377 . S
C1040 C1042 1.384 . S
C1041 C1040 1.377 . S
C1041 C1047 1.390 . S
C1042 H1033 0.930 . S
C1042 C1040 1.384 . S
C1042 C1043 1.372 . S
C1043 C1042 1.372 . S
C1043 C1044 1.400 . S
C1043 C1048 1.490 . S
C1044 H1034 0.930 1_565 S
C1044 C1043 1.400 . S
C1044 C1047 1.386 . S
H1045 C1061 0.930 . S
H1046 C1062 0.931 . S
C1047 H1035 0.929 1_565 S
C1047 C1041 1.390 . S
C1047 C1044 1.386 . S
C1048 C1043 1.490 . S
C1048 C1050 1.395 . S
C1048 C1051 1.403 . S
H1049 C1055 0.930 . S
C1050 H1036 0.930 . S
C1050 C1048 1.395 . S
C1050 C1053 1.403 . S
C1051 C1048 1.403 . S
C1051 C1052 1.524 . S
C1051 C1055 1.400 . S
C1052 H1037 0.960 . S
C1052 H1038 0.960 . S
C1052 H1039 0.960 1_565 S
C1052 C1051 1.524 . S
C1053 C1050 1.403 . S
C1053 C1054 1.392 . S
C1053 C1057 1.495 . S
C1054 C1053 1.392 . S
C1054 C1055 1.385 . S
C1054 C1056 1.478 . S
C1055 H1049 0.930 . S
C1055 C1051 1.400 . S
C1055 C1054 1.385 . S
C1056 C1054 1.478 . S
C1056 C1058 1.381 . S
C1056 C1062 1.383 1_565 S
C1057 C1053 1.495 . S
C1057 H1063 0.959 . S
C1057 H1064 0.961 . S
C1057 H1065 0.960 . S
C1058 C1056 1.381 . S
C1058 C1059 1.394 . S
C1058 H1066 0.930 . S
C1059 C1058 1.394 . S
C1059 C1060 1.383 . S
C1059 H1067 0.929 . S
C1060 C1059 1.383 . S
C1060 C1061 1.377 1_565 S
C1061 H1045 0.930 . S
C1061 C1060 1.377 1_545 S
C1061 C1062 1.379 . S
C1062 H1046 0.931 . S
C1062 C1056 1.383 1_545 S
C1062 C1061 1.379 . S
H1063 C1057 0.959 . S
H1064 C1057 0.961 . S
H1065 C1057 0.960 . S
H1066 C1058 0.930 . S
H1067 C1059 0.929 . S
H1068 C1076 0.929 . S
H1069 C1078 0.930 . S
H1070 C1080 0.930 . S
H1071 C1083 0.929 . S
H1072 C1086 0.930 . S
H1073 C1088 0.960 . S
H1074 C1088 0.960 . S
H1075 C1088 0.960 . S
C1076 H1068 0.929 . S
C1076 C1077 1.377 . S
C1076 C1078 1.384 . S
C1077 C1076 1.377 . S
C1077 C1083 1.390 . S
C1078 H1069 0.930 . S
C1078 C1076 1.384 . S
C1078 C1079 1.372 . S
C1079 C1078 1.372 . S
C1079 C1080 1.400 . S
C1079 C1084 1.490 . S
C1080 H1070 0.930 . S
C1080 C1079 1.400 . S
C1080 C1083 1.386 . S
H1081 C1097 0.930 . S
H1082 C1098 0.931 . S
C1083 H1071 0.929 . S
C1083 C1077 1.390 . S
C1083 C1080 1.386 . S
C1084 C1079 1.490 . S
C1084 C1086 1.395 . S
C1084 C1087 1.403 . S
H1085 C1091 0.930 . S
C1086 H1072 0.930 . S
C1086 C1084 1.395 . S
C1086 C1089 1.403 . S
C1087 C1084 1.403 . S
C1087 C1088 1.524 . S
C1087 C1091 1.400 . S
C1088 H1073 0.960 . S
C1088 H1074 0.960 . S
C1088 H1075 0.960 . S
C1088 C1087 1.524 . S
C1089 C1086 1.403 . S
C1089 C1090 1.392 . S
C1089 C1093 1.495 . S
C1090 C1089 1.392 . S
C1090 C1091 1.385 . S
C1090 C1092 1.478 . S
C1091 H1085 0.930 . S
C1091 C1087 1.400 . S
C1091 C1090 1.385 . S
C1092 C1090 1.478 . S
C1092 C1094 1.381 . S
C1092 C1098 1.383 . S
C1093 C1089 1.495 . S
C1093 H1099 0.959 . S
C1093 H1100 0.961 . S
C1093 H1101 0.960 . S
C1094 C1092 1.381 . S
C1094 C1095 1.394 . S
C1094 H1102 0.930 . S
C1095 C1094 1.394 . S
C1095 C1096 1.383 . S
C1095 H1103 0.929 . S
C1096 C1095 1.383 . S
C1096 C1097 1.377 . S
C1097 H1081 0.930 . S
C1097 C1096 1.377 . S
C1097 C1098 1.379 . S
C1098 H1082 0.931 . S
C1098 C1092 1.383 . S
C1098 C1097 1.379 . S
H1099 C1093 0.959 . S
H1100 C1093 0.961 . S
H1101 C1093 0.960 . S
H1102 C1094 0.930 . S
H1103 C1095 0.929 . S
H1104 C1112 0.929 . S
H1105 C1114 0.930 . S
H1106 C1116 0.930 . S
H1107 C1119 0.929 . S
H1108 C1122 0.930 . S
H1109 C1124 0.960 . S
H1110 C1124 0.960 . S
H1111 C1124 0.960 . S
C1112 H1104 0.929 . S
C1112 C1113 1.377 . S
C1112 C1114 1.384 . S
C1113 C1112 1.377 . S
C1113 C1119 1.390 . S
C1114 H1105 0.930 . S
C1114 C1112 1.384 . S
C1114 C1115 1.372 . S
C1115 C1114 1.372 . S
C1115 C1116 1.400 . S
C1115 C1120 1.490 . S
C1116 H1106 0.930 . S
C1116 C1115 1.400 . S
C1116 C1119 1.386 . S
H1117 C1133 0.930 . S
H1118 C1134 0.931 . S
C1119 H1107 0.929 . S
C1119 C1113 1.390 . S
C1119 C1116 1.386 . S
C1120 C1115 1.490 . S
C1120 C1122 1.395 . S
C1120 C1123 1.403 . S
H1121 C1127 0.930 . S
C1122 H1108 0.930 . S
C1122 C1120 1.395 . S
C1122 C1125 1.403 . S
C1123 C1120 1.403 . S
C1123 C1124 1.524 . S
C1123 C1127 1.400 . S
C1124 H1109 0.960 . S
C1124 H1110 0.960 . S
C1124 H1111 0.960 . S
C1124 C1123 1.524 . S
C1125 C1122 1.403 . S
C1125 C1126 1.392 . S
C1125 C1129 1.495 . S
C1126 C1125 1.392 . S
C1126 C1127 1.385 . S
C1126 C1128 1.478 . S
C1127 H1121 0.930 . S
C1127 C1123 1.400 . S
C1127 C1126 1.385 . S
C1128 C1126 1.478 . S
C1128 C1130 1.381 . S
C1128 C1134 1.383 . S
C1129 C1125 1.495 . S
C1129 H1135 0.959 . S
C1129 H1136 0.961 . S
C1129 H1137 0.960 . S
C1130 C1128 1.381 . S
C1130 C1131 1.394 . S
C1130 H1138 0.930 . S
C1131 C1130 1.394 . S
C1131 C1132 1.383 . S
C1131 H1139 0.929 . S
C1132 C1131 1.383 . S
C1132 C1133 1.377 . S
C1133 H1117 0.930 . S
C1133 C1132 1.377 . S
C1133 C1134 1.379 . S
C1134 H1118 0.931 . S
C1134 C1128 1.383 . S
C1134 C1133 1.379 . S
H1135 C1129 0.959 . S
H1136 C1129 0.961 . S
H1137 C1129 0.960 . S
H1138 C1130 0.930 . S
H1139 C1131 0.929 . S
H1140 C1148 0.929 . S
H1141 C1150 0.930 . S
H1142 C1152 0.930 . S
H1143 C1155 0.929 . S
H1144 C1158 0.930 . S
H1145 C1160 0.960 . S
H1146 C1160 0.960 . S
H1147 C1160 0.960 . S
C1148 H1140 0.929 . S
C1148 C1149 1.377 . S
C1148 C1150 1.384 . S
C1149 C1148 1.377 . S
C1149 C1155 1.390 . S
C1150 H1141 0.930 . S
C1150 C1148 1.384 . S
C1150 C1151 1.372 . S
C1151 C1150 1.372 . S
C1151 C1152 1.400 . S
C1151 C1156 1.490 . S
C1152 H1142 0.930 . S
C1152 C1151 1.400 . S
C1152 C1155 1.386 . S
H1153 C1169 0.930 . S
H1154 C1170 0.931 . S
C1155 H1143 0.929 . S
C1155 C1149 1.390 . S
C1155 C1152 1.386 . S
C1156 C1151 1.490 . S
C1156 C1158 1.395 . S
C1156 C1159 1.403 . S
H1157 C1163 0.930 . S
C1158 H1144 0.930 . S
C1158 C1156 1.395 . S
C1158 C1161 1.403 . S
C1159 C1156 1.403 . S
C1159 C1160 1.524 . S
C1159 C1163 1.400 . S
C1160 H1145 0.960 . S
C1160 H1146 0.960 . S
C1160 H1147 0.960 . S
C1160 C1159 1.524 . S
C1161 C1158 1.403 . S
C1161 C1162 1.392 . S
C1161 C1165 1.495 . S
C1162 C1161 1.392 . S
C1162 C1163 1.385 . S
C1162 C1164 1.478 . S
C1163 H1157 0.930 . S
C1163 C1159 1.400 . S
C1163 C1162 1.385 . S
C1164 C1162 1.478 . S
C1164 C1166 1.381 . S
C1164 C1170 1.383 . S
C1165 C1161 1.495 . S
C1165 H1171 0.959 . S
C1165 H1172 0.961 . S
C1165 H1173 0.960 . S
C1166 C1164 1.381 . S
C1166 C1167 1.394 . S
C1166 H1174 0.930 . S
C1167 C1166 1.394 . S
C1167 C1168 1.383 . S
C1167 H1175 0.929 . S
C1168 C1167 1.383 . S
C1168 C1169 1.377 . S
C1169 H1153 0.930 . S
C1169 C1168 1.377 . S
C1169 C1170 1.379 . S
C1170 H1154 0.931 . S
C1170 C1164 1.383 . S
C1170 C1169 1.379 . S
H1171 C1165 0.959 . S
H1172 C1165 0.961 . S
H1173 C1165 0.960 . S
H1174 C1166 0.930 . S
H1175 C1167 0.929 . S
H1176 C1184 0.929 . S
H1177 C1186 0.930 . S
H1178 C1188 0.930 . S
H1179 C1191 0.929 . S
H1180 C1194 0.930 . S
H1181 C1196 0.960 . S
H1182 C1196 0.960 . S
H1183 C1196 0.960 . S
C1184 H1176 0.929 . S
C1184 C1185 1.377 . S
C1184 C1186 1.384 . S
C1185 C1184 1.377 . S
C1185 C1191 1.390 . S
C1186 H1177 0.930 . S
C1186 C1184 1.384 . S
C1186 C1187 1.372 . S
C1187 C1186 1.372 . S
C1187 C1188 1.400 . S
C1187 C1192 1.490 . S
C1188 H1178 0.930 . S
C1188 C1187 1.400 . S
C1188 C1191 1.386 . S
H1189 C1205 0.930 . S
H1190 C1206 0.931 . S
C1191 H1179 0.929 . S
C1191 C1185 1.390 . S
C1191 C1188 1.386 . S
C1192 C1187 1.490 . S
C1192 C1194 1.395 . S
C1192 C1195 1.403 . S
H1193 C1199 0.930 . S
C1194 H1180 0.930 . S
C1194 C1192 1.395 . S
C1194 C1197 1.403 . S
C1195 C1192 1.403 . S
C1195 C1196 1.524 . S
C1195 C1199 1.400 . S
C1196 H1181 0.960 . S
C1196 H1182 0.960 . S
C1196 H1183 0.960 . S
C1196 C1195 1.524 . S
C1197 C1194 1.403 . S
C1197 C1198 1.392 . S
C1197 C1201 1.495 . S
C1198 C1197 1.392 . S
C1198 C1199 1.385 . S
C1198 C1200 1.478 . S
C1199 H1193 0.930 . S
C1199 C1195 1.400 . S
C1199 C1198 1.385 . S
C1200 C1198 1.478 . S
C1200 C1202 1.381 . S
C1200 C1206 1.383 . S
C1201 C1197 1.495 . S
C1201 H1207 0.959 . S
C1201 H1208 0.961 . S
C1201 H1209 0.960 . S
C1202 C1200 1.381 . S
C1202 C1203 1.394 . S
C1202 H1210 0.930 . S
C1203 C1202 1.394 . S
C1203 C1204 1.383 . S
C1203 H1211 0.929 . S
C1204 C1203 1.383 . S
C1204 C1205 1.377 . S
C1205 H1189 0.930 . S
C1205 C1204 1.377 . S
C1205 C1206 1.379 . S
C1206 H1190 0.931 . S
C1206 C1200 1.383 . S
C1206 C1205 1.379 . S
H1207 C1201 0.959 . S
H1208 C1201 0.961 . S
H1209 C1201 0.960 . S
H1210 C1202 0.930 . S
H1211 C1203 0.929 . S
H1212 C1220 0.929 . S
H1213 C1222 0.930 . S
H1214 C1224 0.930 . S
H1215 C1227 0.929 . S
H1216 C1230 0.930 . S
H1217 C1232 0.960 . S
H1218 C1232 0.960 . S
H1219 C1232 0.960 . S
C1220 H1212 0.929 . S
C1220 C1221 1.377 . S
C1220 C1222 1.384 . S
C1221 C1220 1.377 . S
C1221 C1227 1.390 . S
C1222 H1213 0.930 . S
C1222 C1220 1.384 . S
C1222 C1223 1.372 . S
C1223 C1222 1.372 . S
C1223 C1224 1.400 . S
C1223 C1228 1.490 . S
C1224 H1214 0.930 . S
C1224 C1223 1.400 . S
C1224 C1227 1.386 . S
H1225 C1241 0.930 . S
H1226 C1242 0.931 . S
C1227 H1215 0.929 . S
C1227 C1221 1.390 . S
C1227 C1224 1.386 . S
C1228 C1223 1.490 . S
C1228 C1230 1.395 . S
C1228 C1231 1.403 . S
H1229 C1235 0.930 . S
C1230 H1216 0.930 . S
C1230 C1228 1.395 . S
C1230 C1233 1.403 . S
C1231 C1228 1.403 . S
C1231 C1232 1.524 . S
C1231 C1235 1.400 . S
C1232 H1217 0.960 . S
C1232 H1218 0.960 . S
C1232 H1219 0.960 . S
C1232 C1231 1.524 . S
C1233 C1230 1.403 . S
C1233 C1234 1.392 . S
C1233 C1237 1.495 . S
C1234 C1233 1.392 . S
C1234 C1235 1.385 . S
C1234 C1236 1.478 . S
C1235 H1229 0.930 . S
C1235 C1231 1.400 . S
C1235 C1234 1.385 . S
C1236 C1234 1.478 . S
C1236 C1238 1.381 . S
C1236 C1242 1.383 . S
C1237 C1233 1.495 . S
C1237 H1243 0.959 . S
C1237 H1244 0.961 . S
C1237 H1245 0.960 . S
C1238 C1236 1.381 . S
C1238 C1239 1.394 . S
C1238 H1246 0.930 . S
C1239 C1238 1.394 . S
C1239 C1240 1.383 . S
C1239 H1247 0.929 . S
C1240 C1239 1.383 . S
C1240 C1241 1.377 . S
C1241 H1225 0.930 . S
C1241 C1240 1.377 . S
C1241 C1242 1.379 . S
C1242 H1226 0.931 . S
C1242 C1236 1.383 . S
C1242 C1241 1.379 . S
H1243 C1237 0.959 . S
H1244 C1237 0.961 . S
H1245 C1237 0.960 . S
H1246 C1238 0.930 . S
H1247 C1239 0.929 . S
H1248 C1256 0.929 . S
H1249 C1258 0.930 . S
H1250 C1260 0.897 1_655 S
H1251 C1263 0.929 . S
H1252 C1266 0.930 . S
H1253 C1268 0.960 . S
H1254 C1268 0.960 . S
H1255 C1268 0.960 . S
C1256 H1248 0.929 . S
C1256 C1257 1.377 . S
C1256 C1258 1.384 . S
C1257 C1256 1.377 . S
C1257 C1263 1.390 . S
C1258 H1249 0.930 . S
C1258 C1256 1.384 . S
C1258 C1259 1.372 . S
C1259 C1258 1.372 . S
C1259 C1260 1.400 . S
C1259 C1264 1.490 . S
C1260 H1250 0.897 1_455 S
C1260 C1259 1.400 . S
C1260 C1263 1.386 . S
H1261 C1277 0.930 . S
H1262 C1278 0.988 . S
C1263 H1251 0.929 . S
C1263 C1257 1.390 . S
C1263 C1260 1.386 . S
C1264 C1259 1.490 . S
C1264 C1266 1.395 . S
C1264 C1267 1.403 . S
H1265 C1271 0.930 . S
C1266 H1252 0.930 . S
C1266 C1264 1.395 . S
C1266 C1269 1.403 . S
C1267 C1264 1.403 . S
C1267 C1268 1.524 . S
C1267 C1271 1.400 . S
C1268 H1253 0.960 . S
C1268 H1254 0.960 . S
C1268 H1255 0.960 . S
C1268 C1267 1.524 . S
C1269 C1266 1.403 . S
C1269 C1270 1.392 . S
C1269 C1273 1.495 . S
C1270 C1269 1.392 . S
C1270 C1271 1.385 . S
C1270 C1272 1.478 . S
C1271 H1265 0.930 . S
C1271 C1267 1.400 . S
C1271 C1270 1.385 . S
C1272 C1270 1.478 . S
C1272 C1274 1.381 . S
C1272 C1278 1.320 1_455 S
C1273 C1269 1.495 . S
C1273 H1279 0.959 . S
C1273 H1280 0.961 . S
C1273 H1281 0.960 . S
C1274 C1272 1.381 . S
C1274 C1275 1.394 . S
C1274 H1282 0.930 . S
C1275 C1274 1.394 . S
C1275 C1276 1.383 . S
C1275 H1283 0.929 . S
C1276 C1275 1.383 . S
C1276 C1277 1.377 1_455 S
C1277 H1261 0.930 . S
C1277 C1276 1.377 1_655 S
C1277 C1278 1.389 . S
C1278 H1262 0.988 . S
C1278 C1272 1.320 1_655 S
C1278 C1277 1.389 . S
H1279 C1273 0.959 . S
H1280 C1273 0.961 . S
H1281 C1273 0.960 . S
H1282 C1274 0.930 . S
H1283 C1275 0.929 . S
H1284 C1292 0.929 . S
H1285 C1294 0.930 . S
H1286 C1296 0.930 . S
H1287 C1299 0.929 . S
H1288 C1302 0.930 . S
H1289 C1304 0.960 . S
H1290 C1304 0.960 . S
H1291 C1304 0.960 . S
C1292 H1284 0.929 . S
C1292 C1293 1.377 . S
C1292 C1294 1.384 . S
C1293 C1292 1.377 . S
C1293 C1299 1.390 . S
C1294 H1285 0.930 . S
C1294 C1292 1.384 . S
C1294 C1295 1.372 . S
C1295 C1294 1.372 . S
C1295 C1296 1.400 . S
C1295 C1300 1.490 . S
C1296 H1286 0.930 . S
C1296 C1295 1.400 . S
C1296 C1299 1.386 . S
H1297 C1313 0.930 . S
H1298 C1314 0.931 . S
C1299 H1287 0.929 . S
C1299 C1293 1.390 . S
C1299 C1296 1.386 . S
C1300 C1295 1.490 . S
C1300 C1302 1.395 . S
C1300 C1303 1.403 . S
H1301 C1307 0.930 . S
C1302 H1288 0.930 . S
C1302 C1300 1.395 . S
C1302 C1305 1.403 . S
C1303 C1300 1.403 . S
C1303 C1304 1.524 . S
C1303 C1307 1.400 . S
C1304 H1289 0.960 . S
C1304 H1290 0.960 . S
C1304 H1291 0.960 . S
C1304 C1303 1.524 . S
C1305 C1302 1.403 . S
C1305 C1306 1.392 . S
C1305 C1309 1.495 . S
C1306 C1305 1.392 . S
C1306 C1307 1.385 . S
C1306 C1308 1.478 . S
C1307 H1301 0.930 . S
C1307 C1303 1.400 . S
C1307 C1306 1.385 . S
C1308 C1306 1.478 . S
C1308 C1310 1.381 . S
C1308 C1314 1.383 . S
C1309 C1305 1.495 . S
C1309 H1315 0.959 . S
C1309 H1316 0.961 . S
C1309 H1317 0.960 . S
C1310 C1308 1.381 . S
C1310 C1311 1.394 . S
C1310 H1318 0.930 . S
C1311 C1310 1.394 . S
C1311 C1312 1.383 . S
C1311 H1319 0.929 . S
C1312 C1311 1.383 . S
C1312 C1313 1.377 . S
C1313 H1297 0.930 . S
C1313 C1312 1.377 . S
C1313 C1314 1.379 . S
C1314 H1298 0.931 . S
C1314 C1308 1.383 . S
C1314 C1313 1.379 . S
H1315 C1309 0.959 . S
H1316 C1309 0.961 . S
H1317 C1309 0.960 . S
H1318 C1310 0.930 . S
H1319 C1311 0.929 . S
H1320 C1328 0.929 . S
H1321 C1330 0.930 . S
H1322 C1332 0.930 . S
H1323 C1335 0.929 . S
H1324 C1338 0.930 . S
H1325 C1340 0.971 . S
H1326 C1340 0.980 . S
H1327 C1340 0.942 1_655 S
C1328 H1320 0.929 . S
C1328 C1329 1.377 . S
C1328 C1330 1.384 . S
C1329 C1328 1.377 . S
C1329 C1335 1.390 . S
C1330 H1321 0.930 . S
C1330 C1328 1.384 . S
C1330 C1331 1.372 . S
C1331 C1330 1.372 . S
C1331 C1332 1.400 . S
C1331 C1336 1.490 . S
C1332 H1322 0.930 . S
C1332 C1331 1.400 . S
C1332 C1335 1.386 . S
H1333 C1349 0.930 . S
H1334 C1350 0.931 . S
C1335 H1323 0.929 . S
C1335 C1329 1.390 . S
C1335 C1332 1.386 . S
C1336 C1331 1.490 . S
C1336 C1338 1.395 . S
C1336 C1339 1.403 . S
H1337 C1343 0.930 . S
C1338 H1324 0.930 . S
C1338 C1336 1.395 . S
C1338 C1341 1.403 . S
C1339 C1336 1.403 . S
C1339 C1340 1.511 1_655 S
C1339 C1343 1.400 . S
C1340 H1325 0.971 . S
C1340 H1326 0.980 . S
C1340 H1327 0.942 1_455 S
C1340 C1339 1.511 1_455 S
C1341 C1338 1.403 . S
C1341 C1342 1.392 . S
C1341 C1345 1.495 . S
C1342 C1341 1.392 . S
C1342 C1343 1.385 . S
C1342 C1344 1.478 . S
C1343 H1337 0.930 . S
C1343 C1339 1.400 . S
C1343 C1342 1.385 . S
C1344 C1342 1.478 . S
C1344 C1346 1.377 . S
C1344 C1350 1.383 . S
C1345 C1341 1.495 . S
C1345 H1351 0.959 . S
C1345 H1352 0.961 . S
C1345 H1353 0.960 . S
C1346 C1344 1.377 . S
C1346 C1347 1.395 1_655 S
C1346 H1354 0.933 1_655 S
C1347 C1346 1.395 1_455 S
C1347 C1348 1.383 1_455 S
C1347 H1355 0.929 . S
C1348 C1347 1.383 1_655 S
C1348 C1349 1.377 . S
C1349 H1333 0.930 . S
C1349 C1348 1.377 . S
C1349 C1350 1.379 . S
C1350 H1334 0.931 . S
C1350 C1344 1.383 . S
C1350 C1349 1.379 . S
H1351 C1345 0.959 . S
H1352 C1345 0.961 . S
H1353 C1345 0.960 . S
H1354 C1346 0.933 1_455 S
H1355 C1347 0.929 . S
H1356 C1364 0.929 . S
H1357 C1366 0.930 . S
H1358 C1368 0.930 . S
H1359 C1371 0.929 . S
H1360 C1374 0.930 . S
H1361 C1376 0.960 . S
H1362 C1376 0.960 . S
H1363 C1376 0.960 . S
C1364 H1356 0.929 . S
C1364 C1365 1.377 . S
C1364 C1366 1.384 . S
C1365 C1364 1.377 . S
C1365 C1371 1.390 . S
C1366 H1357 0.930 . S
C1366 C1364 1.384 . S
C1366 C1367 1.372 . S
C1367 C1366 1.372 . S
C1367 C1368 1.400 . S
C1367 C1372 1.490 . S
C1368 H1358 0.930 . S
C1368 C1367 1.400 . S
C1368 C1371 1.386 . S
H1369 C1385 0.930 . S
H1370 C1386 0.931 . S
C1371 H1359 0.929 . S
C1371 C1365 1.390 . S
C1371 C1368 1.386 . S
C1372 C1367 1.490 . S
C1372 C1374 1.395 . S
C1372 C1375 1.403 . S
H1373 C1379 0.930 . S
C1374 H1360 0.930 . S
C1374 C1372 1.395 . S
C1374 C1377 1.403 . S
C1375 C1372 1.403 . S
C1375 C1376 1.524 . S
C1375 C1379 1.400 . S
C1376 H1361 0.960 . S
C1376 H1362 0.960 . S
C1376 H1363 0.960 . S
C1376 C1375 1.524 . S
C1377 C1374 1.403 . S
C1377 C1378 1.392 . S
C1377 C1381 1.495 . S
C1378 C1377 1.392 . S
C1378 C1379 1.385 . S
C1378 C1380 1.478 . S
C1379 H1373 0.930 . S
C1379 C1375 1.400 . S
C1379 C1378 1.385 . S
C1380 C1378 1.478 . S
C1380 C1382 1.381 . S
C1380 C1386 1.383 . S
C1381 C1377 1.495 . S
C1381 H1387 0.959 . S
C1381 H1388 0.961 . S
C1381 H1389 0.960 . S
C1382 C1380 1.381 . S
C1382 C1383 1.394 . S
C1382 H1390 0.930 . S
C1383 C1382 1.394 . S
C1383 C1384 1.383 . S
C1383 H1391 0.929 . S
C1384 C1383 1.383 . S
C1384 C1385 1.377 . S
C1385 H1369 0.930 . S
C1385 C1384 1.377 . S
C1385 C1386 1.379 . S
C1386 H1370 0.931 . S
C1386 C1380 1.383 . S
C1386 C1385 1.379 . S
H1387 C1381 0.959 . S
H1388 C1381 0.961 . S
H1389 C1381 0.960 . S
H1390 C1382 0.930 . S
H1391 C1383 0.929 . S
H1392 C1400 0.929 . S
H1393 C1402 0.930 . S
H1394 C1404 0.930 . S
H1395 C1407 0.929 . S
H1396 C1410 0.930 . S
H1397 C1412 0.960 . S
H1398 C1412 0.960 . S
H1399 C1412 0.960 . S
C1400 H1392 0.929 . S
C1400 C1401 1.377 . S
C1400 C1402 1.384 . S
C1401 C1400 1.377 . S
C1401 C1407 1.390 . S
C1402 H1393 0.930 . S
C1402 C1400 1.384 . S
C1402 C1403 1.372 . S
C1403 C1402 1.372 . S
C1403 C1404 1.400 . S
C1403 C1408 1.490 . S
C1404 H1394 0.930 . S
C1404 C1403 1.400 . S
C1404 C1407 1.386 . S
H1405 C1421 0.930 . S
H1406 C1422 0.931 . S
C1407 H1395 0.929 . S
C1407 C1401 1.390 . S
C1407 C1404 1.386 . S
C1408 C1403 1.490 . S
C1408 C1410 1.395 . S
C1408 C1411 1.403 . S
H1409 C1415 0.930 . S
C1410 H1396 0.930 . S
C1410 C1408 1.395 . S
C1410 C1413 1.403 . S
C1411 C1408 1.403 . S
C1411 C1412 1.524 . S
C1411 C1415 1.400 . S
C1412 H1397 0.960 . S
C1412 H1398 0.960 . S
C1412 H1399 0.960 . S
C1412 C1411 1.524 . S
C1413 C1410 1.403 . S
C1413 C1414 1.392 . S
C1413 C1417 1.495 . S
C1414 C1413 1.392 . S
C1414 C1415 1.385 . S
C1414 C1416 1.478 . S
C1415 H1409 0.930 . S
C1415 C1411 1.400 . S
C1415 C1414 1.385 . S
C1416 C1414 1.478 . S
C1416 C1418 1.381 . S
C1416 C1422 1.383 . S
C1417 C1413 1.495 . S
C1417 H1423 0.959 . S
C1417 H1424 0.961 . S
C1417 H1425 0.960 . S
C1418 C1416 1.381 . S
C1418 C1419 1.394 . S
C1418 H1426 0.930 . S
C1419 C1418 1.394 . S
C1419 C1420 1.383 . S
C1419 H1427 0.929 . S
C1420 C1419 1.383 . S
C1420 C1421 1.377 . S
C1421 H1405 0.930 . S
C1421 C1420 1.377 . S
C1421 C1422 1.379 . S
C1422 H1406 0.931 . S
C1422 C1416 1.383 . S
C1422 C1421 1.379 . S
H1423 C1417 0.959 . S
H1424 C1417 0.961 . S
H1425 C1417 0.960 . S
H1426 C1418 0.930 . S
H1427 C1419 0.929 . S
H1428 C1436 0.929 1_554 S
H1429 C1438 0.930 1_554 S
H1430 C1440 0.930 . S
H1431 C1443 0.929 . S
H1432 C1446 0.930 . S
H1433 C1448 0.960 . S
H1434 C1448 0.960 . S
H1435 C1448 0.960 . S
C1436 H1428 0.929 1_556 S
C1436 C1437 1.377 . S
C1436 C1438 1.384 . S
C1437 C1436 1.377 . S
C1437 C1443 1.390 . S
C1438 H1429 0.930 1_556 S
C1438 C1436 1.384 . S
C1438 C1439 1.372 . S
C1439 C1438 1.372 . S
C1439 C1440 1.400 . S
C1439 C1444 1.490 . S
C1440 H1430 0.930 . S
C1440 C1439 1.400 . S
C1440 C1443 1.386 . S
H1441 C1457 0.930 . S
H1442 C1458 0.931 . S
C1443 H1431 0.929 . S
C1443 C1437 1.390 . S
C1443 C1440 1.386 . S
C1444 C1439 1.490 . S
C1444 C1446 1.395 1_556 S
C1444 C1447 1.403 . S
H1445 C1451 0.930 . S
C1446 H1432 0.930 . S
C1446 C1444 1.395 1_554 S
C1446 C1449 1.403 . S
C1447 C1444 1.403 . S
C1447 C1448 1.524 . S
C1447 C1451 1.400 . S
C1448 H1433 0.960 . S
C1448 H1434 0.960 . S
C1448 H1435 0.960 . S
C1448 C1447 1.524 . S
C1449 C1446 1.403 . S
C1449 C1450 1.392 1_554 S
C1449 C1453 1.495 . S
C1450 C1449 1.392 1_556 S
C1450 C1451 1.385 . S
C1450 C1452 1.479 . S
C1451 H1445 0.930 . S
C1451 C1447 1.400 . S
C1451 C1450 1.385 . S
C1452 C1450 1.479 . S
C1452 C1454 1.374 1_556 S
C1452 C1458 1.389 . S
C1453 C1449 1.495 . S
C1453 H1459 0.959 . S
C1453 H1460 0.961 . S
C1453 H1461 0.960 . S
C1454 C1452 1.374 1_554 S
C1454 C1455 1.394 . S
C1454 H1462 0.930 . S
C1455 C1454 1.394 . S
C1455 C1456 1.383 . S
C1455 H1463 0.929 . S
C1456 C1455 1.383 . S
C1456 C1457 1.377 1_554 S
C1457 H1441 0.930 . S
C1457 C1456 1.377 1_556 S
C1457 C1458 1.379 . S
C1458 H1442 0.931 . S
C1458 C1452 1.389 . S
C1458 C1457 1.379 . S
H1459 C1453 0.959 . S
H1460 C1453 0.961 . S
H1461 C1453 0.960 . S
H1462 C1454 0.930 . S
H1463 C1455 0.929 . S
H1464 C1472 0.929 . S
H1465 C1474 0.930 . S
H1466 C1476 0.930 . S
H1467 C1479 0.929 . S
H1468 C1482 0.930 . S
H1469 C1484 0.960 . S
H1470 C1484 0.960 . S
H1471 C1484 0.960 . S
C1472 H1464 0.929 . S
C1472 C1473 1.377 . S
C1472 C1474 1.384 . S
C1473 C1472 1.377 . S
C1473 C1479 1.390 . S
C1474 H1465 0.930 . S
C1474 C1472 1.384 . S
C1474 C1475 1.372 . S
C1475 C1474 1.372 . S
C1475 C1476 1.400 . S
C1475 C1480 1.490 . S
C1476 H1466 0.930 . S
C1476 C1475 1.400 . S
C1476 C1479 1.386 . S
H1477 C1493 0.930 . S
H1478 C1494 0.931 . S
C1479 H1467 0.929 . S
C1479 C1473 1.390 . S
C1479 C1476 1.386 . S
C1480 C1475 1.490 . S
C1480 C1482 1.395 . S
C1480 C1483 1.403 . S
H1481 C1487 0.930 . S
C1482 H1468 0.930 . S
C1482 C1480 1.395 . S
C1482 C1485 1.403 . S
C1483 C1480 1.403 . S
C1483 C1484 1.524 . S
C1483 C1487 1.400 . S
C1484 H1469 0.960 . S
C1484 H1470 0.960 . S
C1484 H1471 0.960 . S
C1484 C1483 1.524 . S
C1485 C1482 1.403 . S
C1485 C1486 1.392 . S
C1485 C1489 1.495 . S
C1486 C1485 1.392 . S
C1486 C1487 1.385 . S
C1486 C1488 1.478 . S
C1487 H1481 0.930 . S
C1487 C1483 1.400 . S
C1487 C1486 1.385 . S
C1488 C1486 1.478 . S
C1488 C1490 1.381 . S
C1488 C1494 1.383 . S
C1489 C1485 1.495 . S
C1489 H1495 0.959 . S
C1489 H1496 0.961 . S
C1489 H1497 0.960 . S
C1490 C1488 1.381 . S
C1490 C1491 1.394 . S
C1490 H1498 0.930 . S
C1491 C1490 1.394 . S
C1491 C1492 1.383 . S
C1491 H1499 0.929 . S
C1492 C1491 1.383 . S
C1492 C1493 1.377 . S
C1493 H1477 0.930 . S
C1493 C1492 1.377 . S
C1493 C1494 1.379 . S
C1494 H1478 0.931 . S
C1494 C1488 1.383 . S
C1494 C1493 1.379 . S
H1495 C1489 0.959 . S
H1496 C1489 0.961 . S
H1497 C1489 0.960 . S
H1498 C1490 0.930 . S
H1499 C1491 0.929 . S
H1500 C1508 0.929 . S
H1501 C1510 0.930 . S
H1502 C1512 0.930 . S
H1503 C1515 0.929 . S
H1504 C1518 0.930 . S
H1505 C1520 0.960 . S
H1506 C1520 0.960 . S
H1507 C1520 0.960 . S
C1508 H1500 0.929 . S
C1508 C1509 1.377 . S
C1508 C1510 1.384 . S
C1509 C1508 1.377 . S
C1509 C1515 1.390 . S
C1510 H1501 0.930 . S
C1510 C1508 1.384 . S
C1510 C1511 1.372 . S
C1511 C1510 1.372 . S
C1511 C1512 1.400 . S
C1511 C1516 1.490 . S
C1512 H1502 0.930 . S
C1512 C1511 1.400 . S
C1512 C1515 1.386 . S
H1513 C1529 0.930 . S
H1514 C1530 0.931 . S
C1515 H1503 0.929 . S
C1515 C1509 1.390 . S
C1515 C1512 1.386 . S
C1516 C1511 1.490 . S
C1516 C1518 1.395 . S
C1516 C1519 1.403 . S
H1517 C1523 0.930 . S
C1518 H1504 0.930 . S
C1518 C1516 1.395 . S
C1518 C1521 1.403 . S
C1519 C1516 1.403 . S
C1519 C1520 1.524 . S
C1519 C1523 1.400 . S
C1520 H1505 0.960 . S
C1520 H1506 0.960 . S
C1520 H1507 0.960 . S
C1520 C1519 1.524 . S
C1521 C1518 1.403 . S
C1521 C1522 1.392 . S
C1521 C1525 1.495 . S
C1522 C1521 1.392 . S
C1522 C1523 1.385 . S
C1522 C1524 1.478 . S
C1523 H1517 0.930 . S
C1523 C1519 1.400 . S
C1523 C1522 1.385 . S
C1524 C1522 1.478 . S
C1524 C1526 1.381 . S
C1524 C1530 1.383 . S
C1525 C1521 1.495 . S
C1525 H1531 0.959 . S
C1525 H1532 0.961 . S
C1525 H1533 0.960 . S
C1526 C1524 1.381 . S
C1526 C1527 1.394 . S
C1526 H1534 0.930 . S
C1527 C1526 1.394 . S
C1527 C1528 1.383 . S
C1527 H1535 0.929 . S
C1528 C1527 1.383 . S
C1528 C1529 1.377 . S
C1529 H1513 0.930 . S
C1529 C1528 1.377 . S
C1529 C1530 1.379 . S
C1530 H1514 0.931 . S
C1530 C1524 1.383 . S
C1530 C1529 1.379 . S
H1531 C1525 0.959 . S
H1532 C1525 0.961 . S
H1533 C1525 0.960 . S
H1534 C1526 0.930 . S
H1535 C1527 0.929 . S
H1536 C1544 0.929 . S
H1537 C1546 0.930 . S
H1538 C1548 0.930 . S
H1539 C1551 0.929 . S
H1540 C1554 0.930 . S
H1541 C1556 0.960 . S
H1542 C1556 0.960 . S
H1543 C1556 0.960 . S
C1544 H1536 0.929 . S
C1544 C1545 1.377 . S
C1544 C1546 1.384 . S
C1545 C1544 1.377 . S
C1545 C1551 1.390 . S
C1546 H1537 0.930 . S
C1546 C1544 1.384 . S
C1546 C1547 1.372 . S
C1547 C1546 1.372 . S
C1547 C1548 1.400 . S
C1547 C1552 1.490 . S
C1548 H1538 0.930 . S
C1548 C1547 1.400 . S
C1548 C1551 1.386 . S
H1549 C1565 0.930 . S
H1550 C1566 0.931 . S
C1551 H1539 0.929 . S
C1551 C1545 1.390 . S
C1551 C1548 1.386 . S
C1552 C1547 1.490 . S
C1552 C1554 1.395 . S
C1552 C1555 1.403 . S
H1553 C1559 0.930 . S
C1554 H1540 0.930 . S
C1554 C1552 1.395 . S
C1554 C1557 1.403 . S
C1555 C1552 1.403 . S
C1555 C1556 1.524 . S
C1555 C1559 1.400 . S
C1556 H1541 0.960 . S
C1556 H1542 0.960 . S
C1556 H1543 0.960 . S
C1556 C1555 1.524 . S
C1557 C1554 1.403 . S
C1557 C1558 1.392 . S
C1557 C1561 1.495 . S
C1558 C1557 1.392 . S
C1558 C1559 1.385 . S
C1558 C1560 1.478 . S
C1559 H1553 0.930 . S
C1559 C1555 1.400 . S
C1559 C1558 1.385 . S
C1560 C1558 1.478 . S
C1560 C1562 1.381 . S
C1560 C1566 1.383 . S
C1561 C1557 1.495 . S
C1561 H1567 0.959 . S
C1561 H1568 0.961 . S
C1561 H1569 0.960 . S
C1562 C1560 1.381 . S
C1562 C1563 1.394 . S
C1562 H1570 0.930 . S
C1563 C1562 1.394 . S
C1563 C1564 1.383 . S
C1563 H1571 0.929 . S
C1564 C1563 1.383 . S
C1564 C1565 1.377 . S
C1565 H1549 0.930 . S
C1565 C1564 1.377 . S
C1565 C1566 1.379 . S
C1566 H1550 0.931 . S
C1566 C1560 1.383 . S
C1566 C1565 1.379 . S
H1567 C1561 0.959 . S
H1568 C1561 0.961 . S
H1569 C1561 0.960 . S
H1570 C1562 0.930 . S
H1571 C1563 0.929 . S
H1572 C1580 0.929 . S
H1573 C1582 0.930 . S
H1574 C1584 0.930 . S
H1575 C1587 0.929 . S
H1576 C1590 0.930 . S
H1577 C1592 0.960 . S
H1578 C1592 0.960 . S
H1579 C1592 0.960 . S
C1580 H1572 0.929 . S
C1580 C1581 1.377 . S
C1580 C1582 1.384 . S
C1581 C1580 1.377 . S
C1581 C1587 1.390 . S
C1582 H1573 0.930 . S
C1582 C1580 1.384 . S
C1582 C1583 1.372 . S
C1583 C1582 1.372 . S
C1583 C1584 1.400 . S
C1583 C1588 1.490 . S
C1584 H1574 0.930 . S
C1584 C1583 1.400 . S
C1584 C1587 1.386 . S
H1585 C1601 0.930 . S
H1586 C1602 0.931 . S
C1587 H1575 0.929 . S
C1587 C1581 1.390 . S
C1587 C1584 1.386 . S
C1588 C1583 1.490 . S
C1588 C1590 1.395 . S
C1588 C1591 1.403 . S
H1589 C1595 0.930 . S
C1590 H1576 0.930 . S
C1590 C1588 1.395 . S
C1590 C1593 1.403 . S
C1591 C1588 1.403 . S
C1591 C1592 1.524 . S
C1591 C1595 1.400 . S
C1592 H1577 0.960 . S
C1592 H1578 0.960 . S
C1592 H1579 0.960 . S
C1592 C1591 1.524 . S
C1593 C1590 1.403 . S
C1593 C1594 1.392 . S
C1593 C1597 1.495 . S
C1594 C1593 1.392 . S
C1594 C1595 1.385 . S
C1594 C1596 1.478 . S
C1595 H1589 0.930 . S
C1595 C1591 1.400 . S
C1595 C1594 1.385 . S
C1596 C1594 1.478 . S
C1596 C1598 1.381 . S
C1596 C1602 1.383 . S
C1597 C1593 1.495 . S
C1597 H1603 0.959 . S
C1597 H1604 0.961 . S
C1597 H1605 0.960 . S
C1598 C1596 1.381 . S
C1598 C1599 1.394 . S
C1598 H1606 0.930 . S
C1599 C1598 1.394 . S
C1599 C1600 1.383 . S
C1599 H1607 0.929 . S
C1600 C1599 1.383 . S
C1600 C1601 1.377 . S
C1601 H1585 0.930 . S
C1601 C1600 1.377 . S
C1601 C1602 1.379 . S
C1602 H1586 0.931 . S
C1602 C1596 1.383 . S
C1602 C1601 1.379 . S
H1603 C1597 0.959 . S
H1604 C1597 0.961 . S
H1605 C1597 0.960 . S
H1606 C1598 0.930 . S
H1607 C1599 0.929 . S
H1608 C1616 0.929 . S
H1609 C1618 0.930 . S
H1610 C1620 0.930 . S
H1611 C1623 0.929 . S
H1612 C1626 0.930 . S
H1613 C1628 0.960 . S
H1614 C1628 0.960 . S
H1615 C1628 0.960 . S
C1616 H1608 0.929 . S
C1616 C1617 1.377 . S
C1616 C1618 1.384 . S
C1617 C1616 1.377 . S
C1617 C1623 1.390 . S
C1618 H1609 0.930 . S
C1618 C1616 1.384 . S
C1618 C1619 1.372 . S
C1619 C1618 1.372 . S
C1619 C1620 1.400 . S
C1619 C1624 1.490 . S
C1620 H1610 0.930 . S
C1620 C1619 1.400 . S
C1620 C1623 1.386 . S
H1621 C1637 0.930 . S
H1622 C1638 0.931 . S
C1623 H1611 0.929 . S
C1623 C1617 1.390 . S
C1623 C1620 1.386 . S
C1624 C1619 1.490 . S
C1624 C1626 1.395 . S
C1624 C1627 1.403 . S
H1625 C1631 0.930 . S
C1626 H1612 0.930 . S
C1626 C1624 1.395 . S
C1626 C1629 1.403 . S
C1627 C1624 1.403 . S
C1627 C1628 1.524 . S
C1627 C1631 1.400 . S
C1628 H1613 0.960 . S
C1628 H1614 0.960 . S
C1628 H1615 0.960 . S
C1628 C1627 1.524 . S
C1629 C1626 1.403 . S
C1629 C1630 1.392 . S
C1629 C1633 1.495 . S
C1630 C1629 1.392 . S
C1630 C1631 1.385 . S
C1630 C1632 1.478 . S
C1631 H1625 0.930 . S
C1631 C1627 1.400 . S
C1631 C1630 1.385 . S
C1632 C1630 1.478 . S
C1632 C1634 1.381 . S
C1632 C1638 1.383 . S
C1633 C1629 1.495 . S
C1633 H1639 0.959 . S
C1633 H1640 0.961 . S
C1633 H1641 0.960 . S
C1634 C1632 1.381 . S
C1634 C1635 1.394 . S
C1634 H1642 0.930 . S
C1635 C1634 1.394 . S
C1635 C1636 1.383 . S
C1635 H1643 0.929 . S
C1636 C1635 1.383 . S
C1636 C1637 1.377 . S
C1637 H1621 0.930 . S
C1637 C1636 1.377 . S
C1637 C1638 1.379 . S
C1638 H1622 0.931 . S
C1638 C1632 1.383 . S
C1638 C1637 1.379 . S
H1639 C1633 0.959 . S
H1640 C1633 0.961 . S
H1641 C1633 0.960 . S
H1642 C1634 0.930 . S
H1643 C1635 0.929 . S
H1644 C1652 0.929 . S
H1645 C1654 0.930 . S
H1646 C1656 0.930 . S
H1647 C1659 0.929 . S
H1648 C1662 0.930 . S
H1649 C1664 0.960 . S
H1650 C1664 0.960 . S
H1651 C1664 0.960 . S
C1652 H1644 0.929 . S
C1652 C1653 1.377 . S
C1652 C1654 1.384 . S
C1653 C1652 1.377 . S
C1653 C1659 1.390 . S
C1654 H1645 0.930 . S
C1654 C1652 1.384 . S
C1654 C1655 1.372 . S
C1655 C1654 1.372 . S
C1655 C1656 1.400 . S
C1655 C1660 1.490 . S
C1656 H1646 0.930 . S
C1656 C1655 1.400 . S
C1656 C1659 1.386 . S
H1657 C1673 0.930 . S
H1658 C1674 0.931 . S
C1659 H1647 0.929 . S
C1659 C1653 1.390 . S
C1659 C1656 1.386 . S
C1660 C1655 1.490 . S
C1660 C1662 1.395 . S
C1660 C1663 1.403 . S
H1661 C1667 0.930 . S
C1662 H1648 0.930 . S
C1662 C1660 1.395 . S
C1662 C1665 1.403 . S
C1663 C1660 1.403 . S
C1663 C1664 1.524 . S
C1663 C1667 1.400 . S
C1664 H1649 0.960 . S
C1664 H1650 0.960 . S
C1664 H1651 0.960 . S
C1664 C1663 1.524 . S
C1665 C1662 1.403 . S
C1665 C1666 1.392 . S
C1665 C1669 1.495 . S
C1666 C1665 1.392 . S
C1666 C1667 1.385 . S
C1666 C1668 1.478 . S
C1667 H1661 0.930 . S
C1667 C1663 1.400 . S
C1667 C1666 1.385 . S
C1668 C1666 1.478 . S
C1668 C1670 1.381 . S
C1668 C1674 1.383 . S
C1669 C1665 1.495 . S
C1669 H1675 0.959 . S
C1669 H1676 0.961 . S
C1669 H1677 0.960 . S
C1670 C1668 1.381 . S
C1670 C1671 1.394 . S
C1670 H1678 0.930 . S
C1671 C1670 1.394 . S
C1671 C1672 1.383 . S
C1671 H1679 0.929 . S
C1672 C1671 1.383 . S
C1672 C1673 1.377 . S
C1673 H1657 0.930 . S
C1673 C1672 1.377 . S
C1673 C1674 1.379 . S
C1674 H1658 0.931 . S
C1674 C1668 1.383 . S
C1674 C1673 1.379 . S
H1675 C1669 0.959 . S
H1676 C1669 0.961 . S
H1677 C1669 0.960 . S
H1678 C1670 0.930 . S
H1679 C1671 0.929 . S
H1680 C1688 0.929 . S
H1681 C1690 0.930 . S
H1682 C1692 0.930 . S
H1683 C1695 0.929 . S
H1684 C1698 0.930 1_565 S
H1685 C1700 0.960 . S
H1686 C1700 0.960 . S
H1687 C1700 0.960 . S
C1688 H1680 0.929 . S
C1688 C1689 1.377 . S
C1688 C1690 1.384 . S
C1689 C1688 1.377 . S
C1689 C1695 1.390 . S
C1690 H1681 0.930 . S
C1690 C1688 1.384 . S
C1690 C1691 1.372 . S
C1691 C1690 1.372 . S
C1691 C1692 1.400 . S
C1691 C1696 1.490 . S
C1692 H1682 0.930 . S
C1692 C1691 1.400 . S
C1692 C1695 1.386 . S
H1693 C1709 0.930 . S
H1694 C1710 0.931 . S
C1695 H1683 0.929 . S
C1695 C1689 1.390 . S
C1695 C1692 1.386 . S
C1696 C1691 1.490 . S
C1696 C1698 1.395 . S
C1696 C1699 1.403 . S
H1697 C1703 0.930 . S
C1698 H1684 0.930 1_545 S
C1698 C1696 1.395 . S
C1698 C1701 1.403 . S
C1699 C1696 1.403 . S
C1699 C1700 1.524 . S
C1699 C1703 1.400 . S
C1700 H1685 0.960 . S
C1700 H1686 0.960 . S
C1700 H1687 0.960 . S
C1700 C1699 1.524 . S
C1701 C1698 1.403 . S
C1701 C1702 1.392 . S
C1701 C1705 1.495 1_545 S
C1702 C1701 1.392 . S
C1702 C1703 1.385 . S
C1702 C1704 1.478 . S
C1703 H1697 0.930 . S
C1703 C1699 1.400 . S
C1703 C1702 1.385 . S
C1704 C1702 1.478 . S
C1704 C1706 1.381 . S
C1704 C1710 1.383 . S
C1705 C1701 1.495 1_565 S
C1705 H1711 0.959 . S
C1705 H1712 0.961 . S
C1705 H1713 0.960 . S
C1706 C1704 1.381 . S
C1706 C1707 1.394 . S
C1706 H1714 0.930 . S
C1707 C1706 1.394 . S
C1707 C1708 1.383 . S
C1707 H1715 0.929 . S
C1708 C1707 1.383 . S
C1708 C1709 1.377 . S
C1709 H1693 0.930 . S
C1709 C1708 1.377 . S
C1709 C1710 1.379 . S
C1710 H1694 0.931 . S
C1710 C1704 1.383 . S
C1710 C1709 1.379 . S
H1711 C1705 0.959 . S
H1712 C1705 0.961 . S
H1713 C1705 0.960 . S
H1714 C1706 0.930 . S
H1715 C1707 0.929 . S
H1716 C1724 0.929 . S
H1717 C1726 0.930 . S
H1718 C1728 0.930 . S
H1719 C1731 0.929 . S
H1720 C1734 0.930 . S
H1721 C1736 0.960 . S
H1722 C1736 0.960 . S
H1723 C1736 0.960 . S
C1724 H1716 0.929 . S
C1724 C1725 1.377 . S
C1724 C1726 1.384 . S
C1725 C1724 1.377 . S
C1725 C1731 1.390 . S
C1726 H1717 0.930 . S
C1726 C1724 1.384 . S
C1726 C1727 1.372 . S
C1727 C1726 1.372 . S
C1727 C1728 1.400 . S
C1727 C1732 1.490 . S
C1728 H1718 0.930 . S
C1728 C1727 1.400 . S
C1728 C1731 1.386 . S
H1729 C1745 0.930 . S
H1730 C1746 0.931 . S
C1731 H1719 0.929 . S
C1731 C1725 1.390 . S
C1731 C1728 1.386 . S
C1732 C1727 1.490 . S
C1732 C1734 1.395 . S
C1732 C1735 1.403 . S
H1733 C1739 0.930 . S
C1734 H1720 0.930 . S
C1734 C1732 1.395 . S
C1734 C1737 1.403 . S
C1735 C1732 1.403 . S
C1735 C1736 1.524 . S
C1735 C1739 1.400 . S
C1736 H1721 0.960 . S
C1736 H1722 0.960 . S
C1736 H1723 0.960 . S
C1736 C1735 1.524 . S
C1737 C1734 1.403 . S
C1737 C1738 1.392 . S
C1737 C1741 1.495 . S
C1738 C1737 1.392 . S
C1738 C1739 1.385 . S
C1738 C1740 1.478 . S
C1739 H1733 0.930 . S
C1739 C1735 1.400 . S
C1739 C1738 1.385 . S
C1740 C1738 1.478 . S
C1740 C1742 1.381 . S
C1740 C1746 1.383 . S
C1741 C1737 1.495 . S
C1741 H1747 0.959 . S
C1741 H1748 0.961 . S
C1741 H1749 0.960 . S
C1742 C1740 1.381 . S
C1742 C1743 1.394 . S
C1742 H1750 0.930 . S
C1743 C1742 1.394 . S
C1743 C1744 1.383 . S
C1743 H1751 0.929 . S
C1744 C1743 1.383 . S
C1744 C1745 1.377 . S
C1745 H1729 0.930 . S
C1745 C1744 1.377 . S
C1745 C1746 1.379 . S
C1746 H1730 0.931 . S
C1746 C1740 1.383 . S
C1746 C1745 1.379 . S
H1747 C1741 0.959 . S
H1748 C1741 0.961 . S
H1749 C1741 0.960 . S
H1750 C1742 0.930 . S
H1751 C1743 0.929 . S
H1752 C1760 0.929 . S
H1753 C1762 0.930 . S
H1754 C1764 0.930 . S
H1755 C1767 0.929 . S
H1756 C1770 0.930 . S
H1757 C1772 0.960 . S
H1758 C1772 0.960 . S
H1759 C1772 0.960 . S
C1760 H1752 0.929 . S
C1760 C1761 1.377 . S
C1760 C1762 1.384 . S
C1761 C1760 1.377 . S
C1761 C1767 1.390 . S
C1762 H1753 0.930 . S
C1762 C1760 1.384 . S
C1762 C1763 1.372 . S
C1763 C1762 1.372 . S
C1763 C1764 1.400 . S
C1763 C1768 1.490 . S
C1764 H1754 0.930 . S
C1764 C1763 1.400 . S
C1764 C1767 1.386 . S
H1765 C1781 0.930 . S
H1766 C1782 0.931 . S
C1767 H1755 0.929 . S
C1767 C1761 1.390 . S
C1767 C1764 1.386 . S
C1768 C1763 1.490 . S
C1768 C1770 1.395 . S
C1768 C1771 1.403 . S
H1769 C1775 0.930 . S
C1770 H1756 0.930 . S
C1770 C1768 1.395 . S
C1770 C1773 1.403 . S
C1771 C1768 1.403 . S
C1771 C1772 1.524 . S
C1771 C1775 1.400 . S
C1772 H1757 0.960 . S
C1772 H1758 0.960 . S
C1772 H1759 0.960 . S
C1772 C1771 1.524 . S
C1773 C1770 1.403 . S
C1773 C1774 1.392 . S
C1773 C1777 1.495 . S
C1774 C1773 1.392 . S
C1774 C1775 1.385 . S
C1774 C1776 1.478 . S
C1775 H1769 0.930 . S
C1775 C1771 1.400 . S
C1775 C1774 1.385 . S
C1776 C1774 1.478 . S
C1776 C1778 1.381 . S
C1776 C1782 1.383 . S
C1777 C1773 1.495 . S
C1777 H1783 0.959 . S
C1777 H1784 0.961 . S
C1777 H1785 0.960 . S
C1778 C1776 1.381 . S
C1778 C1779 1.394 . S
C1778 H1786 0.930 . S
C1779 C1778 1.394 . S
C1779 C1780 1.383 . S
C1779 H1787 0.929 . S
C1780 C1779 1.383 . S
C1780 C1781 1.377 . S
C1781 H1765 0.930 . S
C1781 C1780 1.377 . S
C1781 C1782 1.379 . S
C1782 H1766 0.931 . S
C1782 C1776 1.383 . S
C1782 C1781 1.379 . S
H1783 C1777 0.959 . S
H1784 C1777 0.961 . S
H1785 C1777 0.960 . S
H1786 C1778 0.930 . S
H1787 C1779 0.929 . S
H1788 C1796 0.929 . S
H1789 C1798 0.930 . S
H1790 C1800 0.930 . S
H1791 C1803 0.929 . S
H1792 C1806 0.930 . S
H1793 C1808 0.960 . S
H1794 C1808 0.960 . S
H1795 C1808 0.960 . S
C1796 H1788 0.929 . S
C1796 C1797 1.377 . S
C1796 C1798 1.384 . S
C1797 C1796 1.377 . S
C1797 C1803 1.390 . S
C1798 H1789 0.930 . S
C1798 C1796 1.384 . S
C1798 C1799 1.372 . S
C1799 C1798 1.372 . S
C1799 C1800 1.400 . S
C1799 C1804 1.490 . S
C1800 H1790 0.930 . S
C1800 C1799 1.400 . S
C1800 C1803 1.386 . S
H1801 C1817 0.930 . S
H1802 C1818 0.931 . S
C1803 H1791 0.929 . S
C1803 C1797 1.390 . S
C1803 C1800 1.386 . S
C1804 C1799 1.490 . S
C1804 C1806 1.395 . S
C1804 C1807 1.403 . S
H1805 C1811 0.930 . S
C1806 H1792 0.930 . S
C1806 C1804 1.395 . S
C1806 C1809 1.403 . S
C1807 C1804 1.403 . S
C1807 C1808 1.524 . S
C1807 C1811 1.400 . S
C1808 H1793 0.960 . S
C1808 H1794 0.960 . S
C1808 H1795 0.960 . S
C1808 C1807 1.524 . S
C1809 C1806 1.403 . S
C1809 C1810 1.392 . S
C1809 C1813 1.495 . S
C1810 C1809 1.392 . S
C1810 C1811 1.385 . S
C1810 C1812 1.478 . S
C1811 H1805 0.930 . S
C1811 C1807 1.400 . S
C1811 C1810 1.385 . S
C1812 C1810 1.478 . S
C1812 C1814 1.381 . S
C1812 C1818 1.383 . S
C1813 C1809 1.495 . S
C1813 H1819 0.959 . S
C1813 H1820 0.961 . S
C1813 H1821 0.960 . S
C1814 C1812 1.381 . S
C1814 C1815 1.394 . S
C1814 H1822 0.930 . S
C1815 C1814 1.394 . S
C1815 C1816 1.383 . S
C1815 H1823 0.929 . S
C1816 C1815 1.383 . S
C1816 C1817 1.377 . S
C1817 H1801 0.930 . S
C1817 C1816 1.377 . S
C1817 C1818 1.379 . S
C1818 H1802 0.931 . S
C1818 C1812 1.383 . S
C1818 C1817 1.379 . S
H1819 C1813 0.959 . S
H1820 C1813 0.961 . S
H1821 C1813 0.960 . S
H1822 C1814 0.930 . S
H1823 C1815 0.929 . S
H1824 C1832 0.929 . S
H1825 C1834 0.930 . S
H1826 C1836 0.930 . S
H1827 C1839 0.883 1_455 S
H1828 C1842 0.930 . S
H1829 C1844 0.960 . S
H1830 C1844 0.960 . S
H1831 C1844 0.960 . S
C1832 H1824 0.929 . S
C1832 C1833 1.377 . S
C1832 C1834 1.384 . S
C1833 C1832 1.377 . S
C1833 C1839 1.390 . S
C1834 H1825 0.930 . S
C1834 C1832 1.384 . S
C1834 C1835 1.372 . S
C1835 C1834 1.372 . S
C1835 C1836 1.400 . S
C1835 C1840 1.490 . S
C1836 H1826 0.930 . S
C1836 C1835 1.400 . S
C1836 C1839 1.386 . S
H1837 C1853 0.930 . S
H1838 C1854 0.931 . S
C1839 H1827 0.883 1_655 S
C1839 C1833 1.390 . S
C1839 C1836 1.386 . S
C1840 C1835 1.490 . S
C1840 C1842 1.395 . S
C1840 C1843 1.403 . S
H1841 C1847 0.930 . S
C1842 H1828 0.930 . S
C1842 C1840 1.395 . S
C1842 C1845 1.403 . S
C1843 C1840 1.403 . S
C1843 C1844 1.524 . S
C1843 C1847 1.400 . S
C1844 H1829 0.960 . S
C1844 H1830 0.960 . S
C1844 H1831 0.960 . S
C1844 C1843 1.524 . S
C1845 C1842 1.403 . S
C1845 C1846 1.392 . S
C1845 C1849 1.495 . S
C1846 C1845 1.392 . S
C1846 C1847 1.385 . S
C1846 C1848 1.478 . S
C1847 H1841 0.930 . S
C1847 C1843 1.400 . S
C1847 C1846 1.385 . S
C1848 C1846 1.478 . S
C1848 C1850 1.381 . S
C1848 C1854 1.383 . S
C1849 C1845 1.495 . S
C1849 H1855 0.977 . S
C1849 H1856 0.961 1_545 S
C1849 H1857 0.960 . S
C1850 C1848 1.381 . S
C1850 C1851 1.394 . S
C1850 H1858 0.930 . S
C1851 C1850 1.394 . S
C1851 C1852 1.383 . S
C1851 H1859 0.929 . S
C1852 C1851 1.383 . S
C1852 C1853 1.377 . S
C1853 H1837 0.930 . S
C1853 C1852 1.377 . S
C1853 C1854 1.379 . S
C1854 H1838 0.931 . S
C1854 C1848 1.383 . S
C1854 C1853 1.379 . S
H1855 C1849 0.977 . S
H1856 C1849 0.961 1_565 S
H1857 C1849 0.960 . S
H1858 C1850 0.930 . S
H1859 C1851 0.929 . S
H1860 C1868 0.929 . S
H1861 C1870 0.930 . S
H1862 C1872 0.930 . S
H1863 C1875 0.929 . S
H1864 C1878 0.930 . S
H1865 C1880 0.960 . S
H1866 C1880 0.960 . S
H1867 C1880 0.960 . S
C1868 H1860 0.929 . S
C1868 C1869 1.377 . S
C1868 C1870 1.384 . S
C1869 C1868 1.377 . S
C1869 C1875 1.390 . S
C1870 H1861 0.930 . S
C1870 C1868 1.384 . S
C1870 C1871 1.372 . S
C1871 C1870 1.372 . S
C1871 C1872 1.400 . S
C1871 C1876 1.490 . S
C1872 H1862 0.930 . S
C1872 C1871 1.400 . S
C1872 C1875 1.386 . S
H1873 C1889 0.930 . S
H1874 C1890 0.931 . S
C1875 H1863 0.929 . S
C1875 C1869 1.390 . S
C1875 C1872 1.386 . S
C1876 C1871 1.490 . S
C1876 C1878 1.395 . S
C1876 C1879 1.403 . S
H1877 C1883 0.930 . S
C1878 H1864 0.930 . S
C1878 C1876 1.395 . S
C1878 C1881 1.403 . S
C1879 C1876 1.403 . S
C1879 C1880 1.524 . S
C1879 C1883 1.400 . S
C1880 H1865 0.960 . S
C1880 H1866 0.960 . S
C1880 H1867 0.960 . S
C1880 C1879 1.524 . S
C1881 C1878 1.403 . S
C1881 C1882 1.392 . S
C1881 C1885 1.495 . S
C1882 C1881 1.392 . S
C1882 C1883 1.385 . S
C1882 C1884 1.478 . S
C1883 H1877 0.930 . S
C1883 C1879 1.400 . S
C1883 C1882 1.385 . S
C1884 C1882 1.478 . S
C1884 C1886 1.381 . S
C1884 C1890 1.383 . S
C1885 C1881 1.495 . S
C1885 H1891 0.959 . S
C1885 H1892 0.961 . S
C1885 H1893 0.960 . S
C1886 C1884 1.381 . S
C1886 C1887 1.394 . S
C1886 H1894 0.930 . S
C1887 C1886 1.394 . S
C1887 C1888 1.383 . S
C1887 H1895 0.929 . S
C1888 C1887 1.383 . S
C1888 C1889 1.377 . S
C1889 H1873 0.930 . S
C1889 C1888 1.377 . S
C1889 C1890 1.379 . S
C1890 H1874 0.931 . S
C1890 C1884 1.383 . S
C1890 C1889 1.379 . S
H1891 C1885 0.959 . S
H1892 C1885 0.961 . S
H1893 C1885 0.960 . S
H1894 C1886 0.930 . S
H1895 C1887 0.929 . S
H1896 C1904 0.929 . S
H1897 C1906 0.930 . S
H1898 C1908 0.930 . S
H1899 C1911 0.929 . S
H1900 C1914 0.930 . S
H1901 C1916 0.960 . S
H1902 C1916 0.960 . S
H1903 C1916 0.960 . S
C1904 H1896 0.929 . S
C1904 C1905 1.377 . S
C1904 C1906 1.384 . S
C1905 C1904 1.377 . S
C1905 C1911 1.390 . S
C1906 H1897 0.930 . S
C1906 C1904 1.384 . S
C1906 C1907 1.372 . S
C1907 C1906 1.372 . S
C1907 C1908 1.400 . S
C1907 C1912 1.490 . S
C1908 H1898 0.930 . S
C1908 C1907 1.400 . S
C1908 C1911 1.386 . S
H1909 C1925 0.930 . S
H1910 C1926 0.931 . S
C1911 H1899 0.929 . S
C1911 C1905 1.390 . S
C1911 C1908 1.386 . S
C1912 C1907 1.490 . S
C1912 C1914 1.395 . S
C1912 C1915 1.403 . S
H1913 C1919 0.930 . S
C1914 H1900 0.930 . S
C1914 C1912 1.395 . S
C1914 C1917 1.403 . S
C1915 C1912 1.403 . S
C1915 C1916 1.524 . S
C1915 C1919 1.400 . S
C1916 H1901 0.960 . S
C1916 H1902 0.960 . S
C1916 H1903 0.960 . S
C1916 C1915 1.524 . S
C1917 C1914 1.403 . S
C1917 C1918 1.392 . S
C1917 C1921 1.495 . S
C1918 C1917 1.392 . S
C1918 C1919 1.385 . S
C1918 C1920 1.478 . S
C1919 H1913 0.930 . S
C1919 C1915 1.400 . S
C1919 C1918 1.385 . S
C1920 C1918 1.478 . S
C1920 C1922 1.381 . S
C1920 C1926 1.383 . S
C1921 C1917 1.495 . S
C1921 H1927 0.959 . S
C1921 H1928 0.961 . S
C1921 H1929 0.960 . S
C1922 C1920 1.381 . S
C1922 C1923 1.394 . S
C1922 H1930 0.930 . S
C1923 C1922 1.394 . S
C1923 C1924 1.383 . S
C1923 H1931 0.929 . S
C1924 C1923 1.383 . S
C1924 C1925 1.377 . S
C1925 H1909 0.930 . S
C1925 C1924 1.377 . S
C1925 C1926 1.379 . S
C1926 H1910 0.931 . S
C1926 C1920 1.383 . S
C1926 C1925 1.379 . S
H1927 C1921 0.959 . S
H1928 C1921 0.961 . S
H1929 C1921 0.960 . S
H1930 C1922 0.930 . S
H1931 C1923 0.929 . S
H1932 C1940 0.929 . S
H1933 C1942 0.930 . S
H1934 C1944 0.930 . S
H1935 C1947 0.929 . S
H1936 C1950 0.930 . S
H1937 C1952 0.960 . S
H1938 C1952 0.960 . S
H1939 C1952 0.960 . S
C1940 H1932 0.929 . S
C1940 C1941 1.377 . S
C1940 C1942 1.384 . S
C1941 C1940 1.377 . S
C1941 C1947 1.390 . S
C1942 H1933 0.930 . S
C1942 C1940 1.384 . S
C1942 C1943 1.372 . S
C1943 C1942 1.372 . S
C1943 C1944 1.400 . S
C1943 C1948 1.490 . S
C1944 H1934 0.930 . S
C1944 C1943 1.400 . S
C1944 C1947 1.386 . S
H1945 C1961 0.930 . S
H1946 C1962 0.931 . S
C1947 H1935 0.929 . S
C1947 C1941 1.390 . S
C1947 C1944 1.386 . S
C1948 C1943 1.490 . S
C1948 C1950 1.395 . S
C1948 C1951 1.403 . S
H1949 C1955 0.930 . S
C1950 H1936 0.930 . S
C1950 C1948 1.395 . S
C1950 C1953 1.403 . S
C1951 C1948 1.403 . S
C1951 C1952 1.524 . S
C1951 C1955 1.400 . S
C1952 H1937 0.960 . S
C1952 H1938 0.960 . S
C1952 H1939 0.960 . S
C1952 C1951 1.524 . S
C1953 C1950 1.403 . S
C1953 C1954 1.392 . S
C1953 C1957 1.495 . S
C1954 C1953 1.392 . S
C1954 C1955 1.385 . S
C1954 C1956 1.478 . S
C1955 H1949 0.930 . S
C1955 C1951 1.400 . S
C1955 C1954 1.385 . S
C1956 C1954 1.478 . S
C1956 C1958 1.381 . S
C1956 C1962 1.383 . S
C1957 C1953 1.495 . S
C1957 H1963 0.959 . S
C1957 H1964 0.961 . S
C1957 H1965 0.960 . S
C1958 C1956 1.381 . S
C1958 C1959 1.394 . S
C1958 H1966 0.930 . S
C1959 C1958 1.394 . S
C1959 C1960 1.383 . S
C1959 H1967 0.929 . S
C1960 C1959 1.383 . S
C1960 C1961 1.377 . S
C1961 H1945 0.930 . S
C1961 C1960 1.377 . S
C1961 C1962 1.379 . S
C1962 H1946 0.931 . S
C1962 C1956 1.383 . S
C1962 C1961 1.379 . S
H1963 C1957 0.959 . S
H1964 C1957 0.961 . S
H1965 C1957 0.960 . S
H1966 C1958 0.930 . S
H1967 C1959 0.929 . S
H1968 C1976 0.929 . S
H1969 C1978 0.930 . S
H1970 C1980 0.879 1_455 S
H1971 C1983 0.929 . S
H1972 C1986 0.930 . S
H1973 C1988 0.960 . S
H1974 C1988 0.960 . S
H1975 C1988 0.960 . S
C1976 H1968 0.929 . S
C1976 C1977 1.377 . S
C1976 C1978 1.384 . S
C1977 C1976 1.377 . S
C1977 C1983 1.390 . S
C1978 H1969 0.930 . S
C1978 C1976 1.384 . S
C1978 C1979 1.372 . S
C1979 C1978 1.372 . S
C1979 C1980 1.400 . S
C1979 C1984 1.490 . S
C1980 H1970 0.879 1_655 S
C1980 C1979 1.400 . S
C1980 C1983 1.386 . S
H1981 C1997 0.930 . S
H1982 C1998 0.931 . S
C1983 H1971 0.929 . S
C1983 C1977 1.390 . S
C1983 C1980 1.386 . S
C1984 C1979 1.490 . S
C1984 C1986 1.395 . S
C1984 C1987 1.403 . S
H1985 C1991 0.930 . S
C1986 H1972 0.930 . S
C1986 C1984 1.395 . S
C1986 C1989 1.403 . S
C1987 C1984 1.403 . S
C1987 C1988 1.524 . S
C1987 C1991 1.400 . S
C1988 H1973 0.960 . S
C1988 H1974 0.960 . S
C1988 H1975 0.960 . S
C1988 C1987 1.524 . S
C1989 C1986 1.403 . S
C1989 C1990 1.392 . S
C1989 C1993 1.495 . S
C1990 C1989 1.392 . S
C1990 C1991 1.385 . S
C1990 C1992 1.478 . S
C1991 H1985 0.930 . S
C1991 C1987 1.400 . S
C1991 C1990 1.385 . S
C1992 C1990 1.478 . S
C1992 C1994 1.381 . S
C1992 C1998 1.383 1_655 S
C1993 C1989 1.495 . S
C1993 H1999 0.959 . S
C1993 H2000 0.961 . S
C1993 H2001 0.960 . S
C1994 C1992 1.381 . S
C1994 C1995 1.394 . S
C1994 H2002 0.930 . S
C1995 C1994 1.394 . S
C1995 C1996 1.383 . S
C1995 H2003 0.929 . S
C1996 C1995 1.383 . S
C1996 C1997 1.377 1_655 S
C1997 H1981 0.930 . S
C1997 C1996 1.377 1_455 S
C1997 C1998 1.379 . S
C1998 H1982 0.931 . S
C1998 C1992 1.383 1_455 S
C1998 C1997 1.379 . S
H1999 C1993 0.959 . S
H2000 C1993 0.961 . S
H2001 C1993 0.960 . S
H2002 C1994 0.930 . S
H2003 C1995 0.929 . S
H2004 C2012 0.929 . S
H2005 C2014 0.930 . S
H2006 C2016 0.930 . S
H2007 C2019 0.929 . S
H2008 C2022 0.930 . S
H2009 C2024 0.960 . S
H2010 C2024 0.960 . S
H2011 C2024 0.960 . S
C2012 H2004 0.929 . S
C2012 C2013 1.377 . S
C2012 C2014 1.384 . S
C2013 C2012 1.377 . S
C2013 C2019 1.390 . S
C2014 H2005 0.930 . S
C2014 C2012 1.384 . S
C2014 C2015 1.372 . S
C2015 C2014 1.372 . S
C2015 C2016 1.400 . S
C2015 C2020 1.490 . S
C2016 H2006 0.930 . S
C2016 C2015 1.400 . S
C2016 C2019 1.386 . S
H2017 C2033 0.930 . S
H2018 C2034 0.931 . S
C2019 H2007 0.929 . S
C2019 C2013 1.390 . S
C2019 C2016 1.386 . S
C2020 C2015 1.490 . S
C2020 C2022 1.395 . S
C2020 C2023 1.403 . S
H2021 C2027 0.930 . S
C2022 H2008 0.930 . S
C2022 C2020 1.395 . S
C2022 C2025 1.403 . S
C2023 C2020 1.403 . S
C2023 C2024 1.524 . S
C2023 C2027 1.400 . S
C2024 H2009 0.960 . S
C2024 H2010 0.960 . S
C2024 H2011 0.960 . S
C2024 C2023 1.524 . S
C2025 C2022 1.403 . S
C2025 C2026 1.392 . S
C2025 C2029 1.495 . S
C2026 C2025 1.392 . S
C2026 C2027 1.385 . S
C2026 C2028 1.478 . S
C2027 H2021 0.930 . S
C2027 C2023 1.400 . S
C2027 C2026 1.385 . S
C2028 C2026 1.478 . S
C2028 C2030 1.381 . S
C2028 C2034 1.383 . S
C2029 C2025 1.495 . S
C2029 H2035 0.959 . S
C2029 H2036 0.961 . S
C2029 H2037 0.960 . S
C2030 C2028 1.381 . S
C2030 C2031 1.394 . S
C2030 H2038 0.930 . S
C2031 C2030 1.394 . S
C2031 C2032 1.383 . S
C2031 H2039 0.929 . S
C2032 C2031 1.383 . S
C2032 C2033 1.377 . S
C2033 H2017 0.930 . S
C2033 C2032 1.377 . S
C2033 C2034 1.379 . S
C2034 H2018 0.931 . S
C2034 C2028 1.383 . S
C2034 C2033 1.379 . S
H2035 C2029 0.959 . S
H2036 C2029 0.961 . S
H2037 C2029 0.960 . S
H2038 C2030 0.930 . S
H2039 C2031 0.929 . S
H2040 C2048 0.929 1_554 S
H2041 C2050 0.930 . S
H2042 C2052 0.930 . S
H2043 C2055 0.929 . S
H2044 C2058 0.930 . S
H2045 C2060 0.960 . S
H2046 C2060 0.960 . S
H2047 C2060 0.960 . S
C2048 H2040 0.929 1_556 S
C2048 C2049 1.377 . S
C2048 C2050 1.384 . S
C2049 C2048 1.377 . S
C2049 C2055 1.390 . S
C2050 H2041 0.930 . S
C2050 C2048 1.384 . S
C2050 C2051 1.372 . S
C2051 C2050 1.372 . S
C2051 C2052 1.400 . S
C2051 C2056 1.490 . S
C2052 H2042 0.930 . S
C2052 C2051 1.400 . S
C2052 C2055 1.386 . S
H2053 C2069 0.930 1_655 S
H2054 C2070 0.931 . S
C2055 H2043 0.929 . S
C2055 C2049 1.390 . S
C2055 C2052 1.386 . S
C2056 C2051 1.490 . S
C2056 C2058 1.395 . S
C2056 C2059 1.403 . S
H2057 C2063 0.930 1_655 S
C2058 H2044 0.930 . S
C2058 C2056 1.395 . S
C2058 C2061 1.403 . S
C2059 C2056 1.403 . S
C2059 C2060 1.524 1_455 S
C2059 C2063 1.400 . S
C2060 H2045 0.960 . S
C2060 H2046 0.960 . S
C2060 H2047 0.960 . S
C2060 C2059 1.524 1_655 S
C2061 C2058 1.403 . S
C2061 C2062 1.392 . S
C2061 C2065 1.495 . S
C2062 C2061 1.392 . S
C2062 C2063 1.385 . S
C2062 C2064 1.478 . S
C2063 H2057 0.930 1_455 S
C2063 C2059 1.400 . S
C2063 C2062 1.385 . S
C2064 C2062 1.478 . S
C2064 C2066 1.381 . S
C2064 C2070 1.383 . S
C2065 C2061 1.495 . S
C2065 H2071 0.959 . S
C2065 H2072 0.961 . S
C2065 H2073 0.960 . S
C2066 C2064 1.381 . S
C2066 C2067 1.394 . S
C2066 H2074 0.930 . S
C2067 C2066 1.394 . S
C2067 C2068 1.383 . S
C2067 H2075 0.929 . S
C2068 C2067 1.383 . S
C2068 C2069 1.377 . S
C2069 H2053 0.930 1_455 S
C2069 C2068 1.377 . S
C2069 C2070 1.379 . S
C2070 H2054 0.931 . S
C2070 C2064 1.383 . S
C2070 C2069 1.379 . S
H2071 C2065 0.959 . S
H2072 C2065 0.961 . S
H2073 C2065 0.960 . S
H2074 C2066 0.930 . S
H2075 C2067 0.929 . S
H2076 C2084 0.929 . S
H2077 C2086 0.930 . S
H2078 C2088 0.930 . S
H2079 C2091 0.929 . S
H2080 C2094 0.930 . S
H2081 C2096 0.960 . S
H2082 C2096 0.960 . S
H2083 C2096 0.960 . S
C2084 H2076 0.929 . S
C2084 C2085 1.377 . S
C2084 C2086 1.384 . S
C2085 C2084 1.377 . S
C2085 C2091 1.390 . S
C2086 H2077 0.930 . S
C2086 C2084 1.384 . S
C2086 C2087 1.372 . S
C2087 C2086 1.372 . S
C2087 C2088 1.400 . S
C2087 C2092 1.490 . S
C2088 H2078 0.930 . S
C2088 C2087 1.400 . S
C2088 C2091 1.386 . S
H2089 C2105 0.930 . S
H2090 C2106 0.931 . S
C2091 H2079 0.929 . S
C2091 C2085 1.390 . S
C2091 C2088 1.386 . S
C2092 C2087 1.490 . S
C2092 C2094 1.395 . S
C2092 C2095 1.403 . S
H2093 C2099 0.930 . S
C2094 H2080 0.930 . S
C2094 C2092 1.395 . S
C2094 C2097 1.403 . S
C2095 C2092 1.403 . S
C2095 C2096 1.524 . S
C2095 C2099 1.400 . S
C2096 H2081 0.960 . S
C2096 H2082 0.960 . S
C2096 H2083 0.960 . S
C2096 C2095 1.524 . S
C2097 C2094 1.403 . S
C2097 C2098 1.392 . S
C2097 C2101 1.495 . S
C2098 C2097 1.392 . S
C2098 C2099 1.385 . S
C2098 C2100 1.478 . S
C2099 H2093 0.930 . S
C2099 C2095 1.400 . S
C2099 C2098 1.385 . S
C2100 C2098 1.478 . S
C2100 C2102 1.381 . S
C2100 C2106 1.383 . S
C2101 C2097 1.495 . S
C2101 H2107 0.959 . S
C2101 H2108 0.961 . S
C2101 H2109 0.960 . S
C2102 C2100 1.381 . S
C2102 C2103 1.394 . S
C2102 H2110 0.930 . S
C2103 C2102 1.394 . S
C2103 C2104 1.383 . S
C2103 H2111 0.929 . S
C2104 C2103 1.383 . S
C2104 C2105 1.377 . S
C2105 H2089 0.930 . S
C2105 C2104 1.377 . S
C2105 C2106 1.379 . S
C2106 H2090 0.931 . S
C2106 C2100 1.383 . S
C2106 C2105 1.379 . S
H2107 C2101 0.959 . S
H2108 C2101 0.961 . S
H2109 C2101 0.960 . S
H2110 C2102 0.930 . S
H2111 C2103 0.929 . S
H2112 C2120 0.929 1_556 S
H2113 C2122 0.930 . S
H2114 C2124 0.930 . S
H2115 C2127 0.929 . S
H2116 C2130 0.930 . S
H2117 C2132 0.960 . S
H2118 C2132 0.960 . S
H2119 C2132 0.960 . S
C2120 H2112 0.929 1_554 S
C2120 C2121 1.377 . S
C2120 C2122 1.384 . S
C2121 C2120 1.377 . S
C2121 C2127 1.390 . S
C2122 H2113 0.930 . S
C2122 C2120 1.384 . S
C2122 C2123 1.372 . S
C2123 C2122 1.372 . S
C2123 C2124 1.400 . S
C2123 C2128 1.490 . S
C2124 H2114 0.930 . S
C2124 C2123 1.400 . S
C2124 C2127 1.386 . S
H2125 C2141 0.930 . S
H2126 C2142 0.931 . S
C2127 H2115 0.929 . S
C2127 C2121 1.390 . S
C2127 C2124 1.386 . S
C2128 C2123 1.490 . S
C2128 C2130 1.395 . S
C2128 C2131 1.403 . S
H2129 C2135 0.930 . S
C2130 H2116 0.930 . S
C2130 C2128 1.395 . S
C2130 C2133 1.403 . S
C2131 C2128 1.403 . S
C2131 C2132 1.524 . S
C2131 C2135 1.400 . S
C2132 H2117 0.960 . S
C2132 H2118 0.960 . S
C2132 H2119 0.960 . S
C2132 C2131 1.524 . S
C2133 C2130 1.403 . S
C2133 C2134 1.392 . S
C2133 C2137 1.495 . S
C2134 C2133 1.392 . S
C2134 C2135 1.385 . S
C2134 C2136 1.478 . S
C2135 H2129 0.930 . S
C2135 C2131 1.400 . S
C2135 C2134 1.385 . S
C2136 C2134 1.478 . S
C2136 C2138 1.381 . S
C2136 C2142 1.383 . S
C2137 C2133 1.495 . S
C2137 H2143 0.959 . S
C2137 H2144 0.961 . S
C2137 H2145 0.960 . S
C2138 C2136 1.381 . S
C2138 C2139 1.394 . S
C2138 H2146 0.930 . S
C2139 C2138 1.394 . S
C2139 C2140 1.383 . S
C2139 H2147 0.929 . S
C2140 C2139 1.383 . S
C2140 C2141 1.377 . S
C2141 H2125 0.930 . S
C2141 C2140 1.377 . S
C2141 C2142 1.379 . S
C2142 H2126 0.931 . S
C2142 C2136 1.383 . S
C2142 C2141 1.379 . S
H2143 C2137 0.959 . S
H2144 C2137 0.961 . S
H2145 C2137 0.960 . S
H2146 C2138 0.930 . S
H2147 C2139 0.929 . S
H2148 C2156 0.929 . S
H2149 C2158 0.930 . S
H2150 C2160 0.930 . S
H2151 C2163 0.929 . S
H2152 C2166 0.930 . S
H2153 C2168 0.960 . S
H2154 C2168 0.960 . S
H2155 C2168 0.960 . S
C2156 H2148 0.929 . S
C2156 C2157 1.377 . S
C2156 C2158 1.384 . S
C2157 C2156 1.377 . S
C2157 C2163 1.390 . S
C2158 H2149 0.930 . S
C2158 C2156 1.384 . S
C2158 C2159 1.372 . S
C2159 C2158 1.372 . S
C2159 C2160 1.400 . S
C2159 C2164 1.490 . S
C2160 H2150 0.930 . S
C2160 C2159 1.400 . S
C2160 C2163 1.386 . S
H2161 C2177 0.930 . S
H2162 C2178 0.931 . S
C2163 H2151 0.929 . S
C2163 C2157 1.390 . S
C2163 C2160 1.386 . S
C2164 C2159 1.490 . S
C2164 C2166 1.395 . S
C2164 C2167 1.403 . S
H2165 C2171 0.930 . S
C2166 H2152 0.930 . S
C2166 C2164 1.395 . S
C2166 C2169 1.403 . S
C2167 C2164 1.403 . S
C2167 C2168 1.524 . S
C2167 C2171 1.400 . S
C2168 H2153 0.960 . S
C2168 H2154 0.960 . S
C2168 H2155 0.960 . S
C2168 C2167 1.524 . S
C2169 C2166 1.403 . S
C2169 C2170 1.392 . S
C2169 C2173 1.495 . S
C2170 C2169 1.392 . S
C2170 C2171 1.385 . S
C2170 C2172 1.478 . S
C2171 H2165 0.930 . S
C2171 C2167 1.400 . S
C2171 C2170 1.385 . S
C2172 C2170 1.478 . S
C2172 C2174 1.381 . S
C2172 C2178 1.383 . S
C2173 C2169 1.495 . S
C2173 H2179 0.959 . S
C2173 H2180 0.961 . S
C2173 H2181 0.960 . S
C2174 C2172 1.381 . S
C2174 C2175 1.394 . S
C2174 H2182 0.930 . S
C2175 C2174 1.394 . S
C2175 C2176 1.383 . S
C2175 H2183 0.929 . S
C2176 C2175 1.383 . S
C2176 C2177 1.377 . S
C2177 H2161 0.930 . S
C2177 C2176 1.377 . S
C2177 C2178 1.379 . S
C2178 H2162 0.931 . S
C2178 C2172 1.383 . S
C2178 C2177 1.379 . S
H2179 C2173 0.959 . S
H2180 C2173 0.961 . S
H2181 C2173 0.960 . S
H2182 C2174 0.930 . S
H2183 C2175 0.929 . S
H2184 C2192 0.929 . S
H2185 C2194 0.930 . S
H2186 C2196 0.930 . S
H2187 C2199 0.929 . S
H2188 C2202 0.930 . S
H2189 C2204 0.960 . S
H2190 C2204 0.960 . S
H2191 C2204 0.960 . S
C2192 H2184 0.929 . S
C2192 C2193 1.377 . S
C2192 C2194 1.384 . S
C2193 C2192 1.377 . S
C2193 C2199 1.390 . S
C2194 H2185 0.930 . S
C2194 C2192 1.384 . S
C2194 C2195 1.372 . S
C2195 C2194 1.372 . S
C2195 C2196 1.400 . S
C2195 C2200 1.490 . S
C2196 H2186 0.930 . S
C2196 C2195 1.400 . S
C2196 C2199 1.386 . S
H2197 C2213 0.930 . S
H2198 C2214 0.931 . S
C2199 H2187 0.929 . S
C2199 C2193 1.390 . S
C2199 C2196 1.386 . S
C2200 C2195 1.490 . S
C2200 C2202 1.395 . S
C2200 C2203 1.403 . S
H2201 C2207 0.930 . S
C2202 H2188 0.930 . S
C2202 C2200 1.395 . S
C2202 C2205 1.403 . S
C2203 C2200 1.403 . S
C2203 C2204 1.524 . S
C2203 C2207 1.400 . S
C2204 H2189 0.960 . S
C2204 H2190 0.960 . S
C2204 H2191 0.960 . S
C2204 C2203 1.524 . S
C2205 C2202 1.403 . S
C2205 C2206 1.392 . S
C2205 C2209 1.495 . S
C2206 C2205 1.392 . S
C2206 C2207 1.385 . S
C2206 C2208 1.478 . S
C2207 H2201 0.930 . S
C2207 C2203 1.400 . S
C2207 C2206 1.385 . S
C2208 C2206 1.478 . S
C2208 C2210 1.381 . S
C2208 C2214 1.383 . S
C2209 C2205 1.495 . S
C2209 H2215 0.959 . S
C2209 H2216 0.961 . S
C2209 H2217 0.960 . S
C2210 C2208 1.381 . S
C2210 C2211 1.394 . S
C2210 H2218 0.930 . S
C2211 C2210 1.394 . S
C2211 C2212 1.383 . S
C2211 H2219 0.929 . S
C2212 C2211 1.383 . S
C2212 C2213 1.377 . S
C2213 H2197 0.930 . S
C2213 C2212 1.377 . S
C2213 C2214 1.379 . S
C2214 H2198 0.931 . S
C2214 C2208 1.383 . S
C2214 C2213 1.379 . S
H2215 C2209 0.959 . S
H2216 C2209 0.961 . S
H2217 C2209 0.960 . S
H2218 C2210 0.930 . S
H2219 C2211 0.929 . S
H2220 C2228 0.929 . S
H2221 C2230 0.930 . S
H2222 C2232 0.930 . S
H2223 C2235 0.929 . S
H2224 C2238 0.930 . S
H2225 C2240 0.960 . S
H2226 C2240 0.960 . S
H2227 C2240 0.960 . S
C2228 H2220 0.929 . S
C2228 C2229 1.377 . S
C2228 C2230 1.384 . S
C2229 C2228 1.377 . S
C2229 C2235 1.390 . S
C2230 H2221 0.930 . S
C2230 C2228 1.384 . S
C2230 C2231 1.372 . S
C2231 C2230 1.372 . S
C2231 C2232 1.400 . S
C2231 C2236 1.490 . S
C2232 H2222 0.930 . S
C2232 C2231 1.400 . S
C2232 C2235 1.386 . S
H2233 C2249 0.930 . S
H2234 C2250 0.931 . S
C2235 H2223 0.929 . S
C2235 C2229 1.390 . S
C2235 C2232 1.386 . S
C2236 C2231 1.490 . S
C2236 C2238 1.395 . S
C2236 C2239 1.403 . S
H2237 C2243 0.930 . S
C2238 H2224 0.930 . S
C2238 C2236 1.395 . S
C2238 C2241 1.403 . S
C2239 C2236 1.403 . S
C2239 C2240 1.524 . S
C2239 C2243 1.400 . S
C2240 H2225 0.960 . S
C2240 H2226 0.960 . S
C2240 H2227 0.960 . S
C2240 C2239 1.524 . S
C2241 C2238 1.403 . S
C2241 C2242 1.392 . S
C2241 C2245 1.495 . S
C2242 C2241 1.392 . S
C2242 C2243 1.385 . S
C2242 C2244 1.478 . S
C2243 H2237 0.930 . S
C2243 C2239 1.400 . S
C2243 C2242 1.385 . S
C2244 C2242 1.478 . S
C2244 C2246 1.381 . S
C2244 C2250 1.383 . S
C2245 C2241 1.495 . S
C2245 H2251 0.959 . S
C2245 H2252 0.961 . S
C2245 H2253 0.960 . S
C2246 C2244 1.381 . S
C2246 C2247 1.394 . S
C2246 H2254 0.930 . S
C2247 C2246 1.394 . S
C2247 C2248 1.383 . S
C2247 H2255 0.929 . S
C2248 C2247 1.383 . S
C2248 C2249 1.377 . S
C2249 H2233 0.930 . S
C2249 C2248 1.377 . S
C2249 C2250 1.379 . S
C2250 H2234 0.931 . S
C2250 C2244 1.383 . S
C2250 C2249 1.379 . S
H2251 C2245 0.959 . S
H2252 C2245 0.961 . S
H2253 C2245 0.960 . S
H2254 C2246 0.930 . S
H2255 C2247 0.929 . S
H2256 C2264 0.929 . S
H2257 C2266 0.930 . S
H2258 C2268 0.930 . S
H2259 C2271 0.929 . S
H2260 C2274 0.930 . S
H2261 C2276 0.960 . S
H2262 C2276 0.960 . S
H2263 C2276 0.960 . S
C2264 H2256 0.929 . S
C2264 C2265 1.377 . S
C2264 C2266 1.384 . S
C2265 C2264 1.377 . S
C2265 C2271 1.390 . S
C2266 H2257 0.930 . S
C2266 C2264 1.384 . S
C2266 C2267 1.372 . S
C2267 C2266 1.372 . S
C2267 C2268 1.400 . S
C2267 C2272 1.490 . S
C2268 H2258 0.930 . S
C2268 C2267 1.400 . S
C2268 C2271 1.386 . S
H2269 C2285 0.930 . S
H2270 C2286 0.931 . S
C2271 H2259 0.929 . S
C2271 C2265 1.390 . S
C2271 C2268 1.386 . S
C2272 C2267 1.490 . S
C2272 C2274 1.395 . S
C2272 C2275 1.403 . S
H2273 C2279 0.930 . S
C2274 H2260 0.930 . S
C2274 C2272 1.395 . S
C2274 C2277 1.403 . S
C2275 C2272 1.403 . S
C2275 C2276 1.524 . S
C2275 C2279 1.400 . S
C2276 H2261 0.960 . S
C2276 H2262 0.960 . S
C2276 H2263 0.960 . S
C2276 C2275 1.524 . S
C2277 C2274 1.403 . S
C2277 C2278 1.392 . S
C2277 C2281 1.495 . S
C2278 C2277 1.392 . S
C2278 C2279 1.385 . S
C2278 C2280 1.478 . S
C2279 H2273 0.930 . S
C2279 C2275 1.400 . S
C2279 C2278 1.385 . S
C2280 C2278 1.478 . S
C2280 C2282 1.381 . S
C2280 C2286 1.383 . S
C2281 C2277 1.495 . S
C2281 H2287 0.959 . S
C2281 H2288 0.961 . S
C2281 H2289 0.960 . S
C2282 C2280 1.381 . S
C2282 C2283 1.394 . S
C2282 H2290 0.930 . S
C2283 C2282 1.394 . S
C2283 C2284 1.383 . S
C2283 H2291 0.929 . S
C2284 C2283 1.383 . S
C2284 C2285 1.377 . S
C2285 H2269 0.930 . S
C2285 C2284 1.377 . S
C2285 C2286 1.379 . S
C2286 H2270 0.931 . S
C2286 C2280 1.383 . S
C2286 C2285 1.379 . S
H2287 C2281 0.959 . S
H2288 C2281 0.961 . S
H2289 C2281 0.960 . S
H2290 C2282 0.930 . S
H2291 C2283 0.929 . S
H2292 C2300 0.929 . S
H2293 C2302 0.930 . S
H2294 C2304 0.930 . S
H2295 C2307 0.929 . S
H2296 C2310 0.930 . S
H2297 C2312 0.960 . S
H2298 C2312 0.960 . S
H2299 C2312 0.960 . S
C2300 H2292 0.929 . S
C2300 C2301 1.377 . S
C2300 C2302 1.384 . S
C2301 C2300 1.377 . S
C2301 C2307 1.390 . S
C2302 H2293 0.930 . S
C2302 C2300 1.384 . S
C2302 C2303 1.372 . S
C2303 C2302 1.372 . S
C2303 C2304 1.400 . S
C2303 C2308 1.490 . S
C2304 H2294 0.930 . S
C2304 C2303 1.400 . S
C2304 C2307 1.386 . S
H2305 C2321 0.930 . S
H2306 C2322 0.931 . S
C2307 H2295 0.929 . S
C2307 C2301 1.390 . S
C2307 C2304 1.386 . S
C2308 C2303 1.490 . S
C2308 C2310 1.395 . S
C2308 C2311 1.403 . S
H2309 C2315 0.930 . S
C2310 H2296 0.930 . S
C2310 C2308 1.395 . S
C2310 C2313 1.403 . S
C2311 C2308 1.403 . S
C2311 C2312 1.524 . S
C2311 C2315 1.400 . S
C2312 H2297 0.960 . S
C2312 H2298 0.960 . S
C2312 H2299 0.960 . S
C2312 C2311 1.524 . S
C2313 C2310 1.403 . S
C2313 C2314 1.392 . S
C2313 C2317 1.495 . S
C2314 C2313 1.392 . S
C2314 C2315 1.385 . S
C2314 C2316 1.478 . S
C2315 H2309 0.930 . S
C2315 C2311 1.400 . S
C2315 C2314 1.385 . S
C2316 C2314 1.478 . S
C2316 C2318 1.381 . S
C2316 C2322 1.383 . S
C2317 C2313 1.495 . S
C2317 H2323 0.959 . S
C2317 H2324 0.961 . S
C2317 H2325 0.960 . S
C2318 C2316 1.381 . S
C2318 C2319 1.394 . S
C2318 H2326 0.930 . S
C2319 C2318 1.394 . S
C2319 C2320 1.383 . S
C2319 H2327 0.929 . S
C2320 C2319 1.383 . S
C2320 C2321 1.377 . S
C2321 H2305 0.930 . S
C2321 C2320 1.377 . S
C2321 C2322 1.379 . S
C2322 H2306 0.931 . S
C2322 C2316 1.383 . S
C2322 C2321 1.379 . S
H2323 C2317 0.959 . S
H2324 C2317 0.961 . S
H2325 C2317 0.960 . S
H2326 C2318 0.930 . S
H2327 C2319 0.929 . S
H2328 C2336 0.929 . S
H2329 C2338 0.930 . S
H2330 C2340 0.930 . S
H2331 C2343 0.929 . S
H2332 C2346 0.930 . S
H2333 C2348 0.960 . S
H2334 C2348 0.960 . S
H2335 C2348 0.960 . S
C2336 H2328 0.929 . S
C2336 C2337 1.377 . S
C2336 C2338 1.384 . S
C2337 C2336 1.377 . S
C2337 C2343 1.390 . S
C2338 H2329 0.930 . S
C2338 C2336 1.384 . S
C2338 C2339 1.372 . S
C2339 C2338 1.372 . S
C2339 C2340 1.400 . S
C2339 C2344 1.490 . S
C2340 H2330 0.930 . S
C2340 C2339 1.400 . S
C2340 C2343 1.386 . S
H2341 C2357 0.930 . S
H2342 C2358 0.931 . S
C2343 H2331 0.929 . S
C2343 C2337 1.390 . S
C2343 C2340 1.386 . S
C2344 C2339 1.490 . S
C2344 C2346 1.395 . S
C2344 C2347 1.403 . S
H2345 C2351 0.930 . S
C2346 H2332 0.930 . S
C2346 C2344 1.395 . S
C2346 C2349 1.403 . S
C2347 C2344 1.403 . S
C2347 C2348 1.524 . S
C2347 C2351 1.400 . S
C2348 H2333 0.960 . S
C2348 H2334 0.960 . S
C2348 H2335 0.960 . S
C2348 C2347 1.524 . S
C2349 C2346 1.403 . S
C2349 C2350 1.392 . S
C2349 C2353 1.495 . S
C2350 C2349 1.392 . S
C2350 C2351 1.385 . S
C2350 C2352 1.478 . S
C2351 H2345 0.930 . S
C2351 C2347 1.400 . S
C2351 C2350 1.385 . S
C2352 C2350 1.478 . S
C2352 C2354 1.381 . S
C2352 C2358 1.383 . S
C2353 C2349 1.495 . S
C2353 H2359 0.959 . S
C2353 H2360 0.961 . S
C2353 H2361 0.960 . S
C2354 C2352 1.381 . S
C2354 C2355 1.394 . S
C2354 H2362 0.930 . S
C2355 C2354 1.394 . S
C2355 C2356 1.383 . S
C2355 H2363 0.929 . S
C2356 C2355 1.383 . S
C2356 C2357 1.377 . S
C2357 H2341 0.930 . S
C2357 C2356 1.377 . S
C2357 C2358 1.379 . S
C2358 H2342 0.931 . S
C2358 C2352 1.383 . S
C2358 C2357 1.379 . S
H2359 C2353 0.959 . S
H2360 C2353 0.961 . S
H2361 C2353 0.960 . S
H2362 C2354 0.930 . S
H2363 C2355 0.929 . S
H2364 C2372 0.929 . S
H2365 C2374 0.930 . S
H2366 C2376 0.930 . S
H2367 C2379 0.929 . S
H2368 C2382 0.930 . S
H2369 C2384 0.960 . S
H2370 C2384 0.960 . S
H2371 C2384 0.960 . S
C2372 H2364 0.929 . S
C2372 C2373 1.377 . S
C2372 C2374 1.384 . S
C2373 C2372 1.377 . S
C2373 C2379 1.390 . S
C2374 H2365 0.930 . S
C2374 C2372 1.384 . S
C2374 C2375 1.372 . S
C2375 C2374 1.372 . S
C2375 C2376 1.400 . S
C2375 C2380 1.490 . S
C2376 H2366 0.930 . S
C2376 C2375 1.400 . S
C2376 C2379 1.386 . S
H2377 C2393 0.930 . S
H2378 C2394 0.931 . S
C2379 H2367 0.929 . S
C2379 C2373 1.390 . S
C2379 C2376 1.386 . S
C2380 C2375 1.490 . S
C2380 C2382 1.395 . S
C2380 C2383 1.403 . S
H2381 C2387 0.930 . S
C2382 H2368 0.930 . S
C2382 C2380 1.395 . S
C2382 C2385 1.403 . S
C2383 C2380 1.403 . S
C2383 C2384 1.524 . S
C2383 C2387 1.400 . S
C2384 H2369 0.960 . S
C2384 H2370 0.960 . S
C2384 H2371 0.960 . S
C2384 C2383 1.524 . S
C2385 C2382 1.403 . S
C2385 C2386 1.392 . S
C2385 C2389 1.495 . S
C2386 C2385 1.392 . S
C2386 C2387 1.385 . S
C2386 C2388 1.478 . S
C2387 H2381 0.930 . S
C2387 C2383 1.400 . S
C2387 C2386 1.385 . S
C2388 C2386 1.478 . S
C2388 C2390 1.381 . S
C2388 C2394 1.383 1_556 S
C2389 C2385 1.495 . S
C2389 H2395 0.959 . S
C2389 H2396 1.020 . S
C2389 H2397 0.960 . S
C2390 C2388 1.381 . S
C2390 C2391 1.394 . S
C2390 H2398 0.930 . S
C2391 C2390 1.394 . S
C2391 C2392 1.383 . S
C2391 H2399 0.929 . S
C2392 C2391 1.383 . S
C2392 C2393 1.377 1_556 S
C2393 H2377 0.930 . S
C2393 C2392 1.377 1_554 S
C2393 C2394 1.379 . S
C2394 H2378 0.931 . S
C2394 C2388 1.383 1_554 S
C2394 C2393 1.379 . S
H2395 C2389 0.959 . S
H2396 C2389 1.020 . S
H2397 C2389 0.960 . S
H2398 C2390 0.930 . S
H2399 C2391 0.929 . S
H2400 C2408 0.929 . S
H2401 C2410 0.930 . S
H2402 C2412 0.930 . S
H2403 C2415 0.929 . S
H2404 C2418 0.930 . S
H2405 C2420 0.960 . S
H2406 C2420 0.960 . S
H2407 C2420 0.960 . S
C2408 H2400 0.929 . S
C2408 C2409 1.377 . S
C2408 C2410 1.384 . S
C2409 C2408 1.377 . S
C2409 C2415 1.390 . S
C2410 H2401 0.930 . S
C2410 C2408 1.384 . S
C2410 C2411 1.372 . S
C2411 C2410 1.372 . S
C2411 C2412 1.400 . S
C2411 C2416 1.490 . S
C2412 H2402 0.930 . S
C2412 C2411 1.400 . S
C2412 C2415 1.386 . S
H2413 C2429 0.930 . S
H2414 C2430 0.931 . S
C2415 H2403 0.929 . S
C2415 C2409 1.390 . S
C2415 C2412 1.386 . S
C2416 C2411 1.490 . S
C2416 C2418 1.395 . S
C2416 C2419 1.403 . S
H2417 C2423 0.930 . S
C2418 H2404 0.930 . S
C2418 C2416 1.395 . S
C2418 C2421 1.403 . S
C2419 C2416 1.403 . S
C2419 C2420 1.524 . S
C2419 C2423 1.400 . S
C2420 H2405 0.960 . S
C2420 H2406 0.960 . S
C2420 H2407 0.960 . S
C2420 C2419 1.524 . S
C2421 C2418 1.403 . S
C2421 C2422 1.392 . S
C2421 C2425 1.495 . S
C2422 C2421 1.392 . S
C2422 C2423 1.385 . S
C2422 C2424 1.478 . S
C2423 H2417 0.930 . S
C2423 C2419 1.400 . S
C2423 C2422 1.385 . S
C2424 C2422 1.478 . S
C2424 C2426 1.381 . S
C2424 C2430 1.383 . S
C2425 C2421 1.495 . S
C2425 H2431 0.959 . S
C2425 H2432 0.961 . S
C2425 H2433 0.960 . S
C2426 C2424 1.381 . S
C2426 C2427 1.394 . S
C2426 H2434 0.930 . S
C2427 C2426 1.394 . S
C2427 C2428 1.383 . S
C2427 H2435 0.929 . S
C2428 C2427 1.383 . S
C2428 C2429 1.377 . S
C2429 H2413 0.930 . S
C2429 C2428 1.377 . S
C2429 C2430 1.379 . S
C2430 H2414 0.931 . S
C2430 C2424 1.383 . S
C2430 C2429 1.379 . S
H2431 C2425 0.959 . S
H2432 C2425 0.961 . S
H2433 C2425 0.960 . S
H2434 C2426 0.930 . S
H2435 C2427 0.929 . S
H2436 C2444 0.929 . S
H2437 C2446 0.930 . S
H2438 C2448 0.930 . S
H2439 C2451 0.929 . S
H2440 C2454 0.930 1_556 S
H2441 C2456 0.960 . S
H2442 C2456 0.960 . S
H2443 C2456 0.960 . S
C2444 H2436 0.929 . S
C2444 C2445 1.377 . S
C2444 C2446 1.384 . S
C2445 C2444 1.377 . S
C2445 C2451 1.390 . S
C2446 H2437 0.930 . S
C2446 C2444 1.384 . S
C2446 C2447 1.372 . S
C2447 C2446 1.372 . S
C2447 C2448 1.400 . S
C2447 C2452 1.490 . S
C2448 H2438 0.930 . S
C2448 C2447 1.400 . S
C2448 C2451 1.386 . S
H2449 C2465 0.930 . S
H2450 C2466 0.931 . S
C2451 H2439 0.929 . S
C2451 C2445 1.390 . S
C2451 C2448 1.386 . S
C2452 C2447 1.490 . S
C2452 C2454 1.395 . S
C2452 C2455 1.403 . S
H2453 C2459 0.930 . S
C2454 H2440 0.930 1_554 S
C2454 C2452 1.395 . S
C2454 C2457 1.403 1_554 S
C2455 C2452 1.403 . S
C2455 C2456 1.524 . S
C2455 C2459 1.400 . S
C2456 H2441 0.960 . S
C2456 H2442 0.960 . S
C2456 H2443 0.960 . S
C2456 C2455 1.524 . S
C2457 C2454 1.403 1_556 S
C2457 C2458 1.392 1_556 S
C2457 C2461 1.495 . S
C2458 C2457 1.392 1_554 S
C2458 C2459 1.385 . S
C2458 C2460 1.478 . S
C2459 H2453 0.930 . S
C2459 C2455 1.400 . S
C2459 C2458 1.385 . S
C2460 C2458 1.478 . S
C2460 C2462 1.381 . S
C2460 C2466 1.383 . S
C2461 C2457 1.495 . S
C2461 H2467 0.959 . S
C2461 H2468 0.961 . S
C2461 H2469 0.960 . S
C2462 C2460 1.381 . S
C2462 C2463 1.394 . S
C2462 H2470 0.930 . S
C2463 C2462 1.394 . S
C2463 C2464 1.383 . S
C2463 H2471 0.929 . S
C2464 C2463 1.383 . S
C2464 C2465 1.377 . S
C2465 H2449 0.930 . S
C2465 C2464 1.377 . S
C2465 C2466 1.379 . S
C2466 H2450 0.931 . S
C2466 C2460 1.383 . S
C2466 C2465 1.379 . S
H2467 C2461 0.959 . S
H2468 C2461 0.961 . S
H2469 C2461 0.960 . S
H2470 C2462 0.930 . S
H2471 C2463 0.929 . S
H2472 C2480 0.929 . S
H2473 C2482 0.930 . S
H2474 C2484 0.930 . S
H2475 C2487 0.929 . S
H2476 C2490 0.930 . S
H2477 C2492 0.960 1_556 S
H2478 C2492 0.960 . S
H2479 C2492 0.960 1_556 S
C2480 H2472 0.929 . S
C2480 C2481 1.377 . S
C2480 C2482 1.384 . S
C2481 C2480 1.377 . S
C2481 C2487 1.390 . S
C2482 H2473 0.930 . S
C2482 C2480 1.384 . S
C2482 C2483 1.372 . S
C2483 C2482 1.372 . S
C2483 C2484 1.400 . S
C2483 C2488 1.490 . S
C2484 H2474 0.930 . S
C2484 C2483 1.400 . S
C2484 C2487 1.386 . S
H2485 C2501 0.930 1_556 S
H2486 C2502 0.931 1_556 S
C2487 H2475 0.929 . S
C2487 C2481 1.390 . S
C2487 C2484 1.386 . S
C2488 C2483 1.490 . S
C2488 C2490 1.395 . S
C2488 C2491 1.403 . S
H2489 C2495 0.930 . S
C2490 H2476 0.930 . S
C2490 C2488 1.395 . S
C2490 C2493 1.403 . S
C2491 C2488 1.403 . S
C2491 C2492 1.524 . S
C2491 C2495 1.400 . S
C2492 H2477 0.960 1_554 S
C2492 H2478 0.960 . S
C2492 H2479 0.960 1_554 S
C2492 C2491 1.524 . S
C2493 C2490 1.403 . S
C2493 C2494 1.392 . S
C2493 C2497 1.495 . S
C2494 C2493 1.392 . S
C2494 C2495 1.385 . S
C2494 C2496 1.478 . S
C2495 H2489 0.930 . S
C2495 C2491 1.400 . S
C2495 C2494 1.385 . S
C2496 C2494 1.478 . S
C2496 C2498 1.381 . S
C2496 C2502 1.383 . S
C2497 C2493 1.495 . S
C2497 H2503 0.959 . S
C2497 H2504 0.961 . S
C2497 H2505 0.960 . S
C2498 C2496 1.381 . S
C2498 C2499 1.394 . S
C2498 H2506 0.930 . S
C2499 C2498 1.394 . S
C2499 C2500 1.383 . S
C2499 H2507 0.929 . S
C2500 C2499 1.383 . S
C2500 C2501 1.377 . S
C2501 H2485 0.930 1_554 S
C2501 C2500 1.377 . S
C2501 C2502 1.379 . S
C2502 H2486 0.931 1_554 S
C2502 C2496 1.383 . S
C2502 C2501 1.379 . S
H2503 C2497 0.959 . S
H2504 C2497 0.961 . S
H2505 C2497 0.960 . S
H2506 C2498 0.930 . S
H2507 C2499 0.929 . S
C808 C634 1.394 . S
C789 C211 1.402 . S
C844 C647 1.606 . S
C825 C255 1.626 . S
C861 C274 1.445 . S
C880 C660 1.443 . S
C916 C673 1.530 . S
C897 C157 1.548 . S
C952 C681 1.469 . S
C933 C391 1.501 . S
C988 C694 1.409 . S
C969 C484 1.425 . S
C1005 C450 1.517 . S
C1024 C707 1.489 . S
C1060 C720 1.513 . S
C1041 C352 1.520 . S
C1077 C430 1.422 . S
C1096 C738 1.413 . S
C1132 C749 1.535 . S
C1113 C367 1.562 . S
C1149 C411 1.470 . S
C1168 C733 1.423 . S
C1204 C741 1.435 . S
C1185 C469 1.485 . S
C1221 C294 1.490 . S
C1240 C764 1.478 . S
C1257 C177 1.525 . S
C1276 C754 1.483 . S
C1293 C196 1.511 . S
C1312 C759 1.489 . S
C1329 C235 1.581 . S
C1348 C762 1.560 1_655 S
C1365 C133 1.441 . S
C1384 C671 1.423 . S
C1401 C567 1.405 . S
C1420 C663 1.372 . S
C1456 C632 1.554 . S
C1437 C601 1.553 1_565 S
C1492 C637 1.501 . S
C1473 C328 1.515 . S
C1509 C172 1.551 . S
C1528 C684 1.503 . S
C1564 C723 1.510 . S
C1545 C445 1.533 . S
C1600 C676 1.514 . S
C1581 C372 1.533 . S
C1636 C702 1.423 . S
C1617 C489 1.467 . S
C1672 C712 1.401 . S
C1653 C562 1.401 . S
C1689 C606 1.626 . S
C1708 C725 1.619 . S
C1725 C313 1.444 . S
C1744 C686 1.427 . S
C1780 C699 1.543 . S
C1761 C508 1.548 . S
C1797 C118 1.500 . S
C1816 C655 1.453 . S
C1852 C668 1.404 . S
C1833 C16 1.425 . S
C1888 C629 1.482 . S
C1869 C60 1.517 . S
C1924 C642 1.489 . S
C1905 C79 1.521 . S
C1941 C40 1.422 . S
C1960 C751 1.402 . S
C1977 C94 1.562 . S
C1996 C736 1.507 1_655 S
C2013 C138 1.470 . S
C2032 C746 1.424 . S
C2049 C1 1.484 . S
C2068 C728 1.465 . S
C2104 C777 1.478 . S
C2085 C333 1.489 . S
C2140 C767 1.512 . S
C2121 C528 1.526 . S
C2176 C772 1.463 . S
C2157 C547 1.510 . S
C2193 C586 1.580 . S
C2212 C775 1.527 . S
C2229 C406 1.441 . S
C2248 C697 1.403 . S
C2284 C689 1.387 . S
C2265 C216 1.405 . S
C2320 C710 1.571 . S
C2301 C250 1.586 . S
C2356 C715 1.496 . S
C2337 C289 1.520 . S
C2373 C523 1.550 . S
C2392 C658 1.501 . S
C2428 C645 1.525 . S
C2409 C55 1.539 . S
C2445 C99 1.534 . S
C2464 C650 1.485 . S
C2500 C624 1.433 . S
C2481 C21 1.468 1_565 S
