# Generated by pormake.
# Topology pyr, (3,6)-cn, num edge types: 1
# Building blocks:
#     Node 0, Type 0, BuildingBlock: BETDAH_clean_linker_0, # of connection points: 3
#     Node 1, Type 0, BuildingBlock: BETDAH_clean_linker_0, # of connection points: 3
#     Node 2, Type 0, BuildingBlock: BETDAH_clean_linker_0, # of connection points: 3
#     Node 3, Type 0, BuildingBlock: BETDAH_clean_linker_0, # of connection points: 3
#     Node 4, Type 0, BuildingBlock: BETDAH_clean_linker_0, # of connection points: 3
#     Node 5, Type 0, BuildingBlock: BETDAH_clean_linker_0, # of connection points: 3
#     Node 6, Type 0, BuildingBlock: BETDAH_clean_linker_0, # of connection points: 3
#     Node 7, Type 0, BuildingBlock: BETDAH_clean_linker_0, # of connection points: 3
#     Node 8, Type 1, BuildingBlock: CIFDUS_clean_sbu_1, # of connection points: 6
#     Node 9, Type 1, BuildingBlock: CIFDUS_clean_sbu_1, # of connection points: 6
#     Node 10, Type 1, BuildingBlock: CIFDUS_clean_sbu_1, # of connection points: 6
#     Node 11, Type 1, BuildingBlock: CIFDUS_clean_sbu_1, # of connection points: 6
#     Edge 12, Type (0, 1), BuildingBlock: XUDNAN_clean_linker_2, # of connection points: 2
#     Edge 13, Type (0, 1), BuildingBlock: XUDNAN_clean_linker_2, # of connection points: 2
#     Edge 14, Type (0, 1), BuildingBlock: XUDNAN_clean_linker_2, # of connection points: 2
#     Edge 15, Type (0, 1), BuildingBlock: XUDNAN_clean_linker_2, # of connection points: 2
#     Edge 16, Type (0, 1), BuildingBlock: XUDNAN_clean_linker_2, # of connection points: 2
#     Edge 17, Type (0, 1), BuildingBlock: XUDNAN_clean_linker_2, # of connection points: 2
#     Edge 18, Type (0, 1), BuildingBlock: XUDNAN_clean_linker_2, # of connection points: 2
#     Edge 19, Type (0, 1), BuildingBlock: XUDNAN_clean_linker_2, # of connection points: 2
#     Edge 20, Type (0, 1), BuildingBlock: XUDNAN_clean_linker_2, # of connection points: 2
#     Edge 21, Type (0, 1), BuildingBlock: XUDNAN_clean_linker_2, # of connection points: 2
#     Edge 22, Type (0, 1), BuildingBlock: XUDNAN_clean_linker_2, # of connection points: 2
#     Edge 23, Type (0, 1), BuildingBlock: XUDNAN_clean_linker_2, # of connection points: 2
#     Edge 24, Type (0, 1), BuildingBlock: XUDNAN_clean_linker_2, # of connection points: 2
#     Edge 25, Type (0, 1), BuildingBlock: XUDNAN_clean_linker_2, # of connection points: 2
#     Edge 26, Type (0, 1), BuildingBlock: XUDNAN_clean_linker_2, # of connection points: 2
#     Edge 27, Type (0, 1), BuildingBlock: XUDNAN_clean_linker_2, # of connection points: 2
#     Edge 28, Type (0, 1), BuildingBlock: XUDNAN_clean_linker_2, # of connection points: 2
#     Edge 29, Type (0, 1), BuildingBlock: XUDNAN_clean_linker_2, # of connection points: 2
#     Edge 30, Type (0, 1), BuildingBlock: XUDNAN_clean_linker_2, # of connection points: 2
#     Edge 31, Type (0, 1), BuildingBlock: XUDNAN_clean_linker_2, # of connection points: 2
#     Edge 32, Type (0, 1), BuildingBlock: XUDNAN_clean_linker_2, # of connection points: 2
#     Edge 33, Type (0, 1), BuildingBlock: XUDNAN_clean_linker_2, # of connection points: 2
#     Edge 34, Type (0, 1), BuildingBlock: XUDNAN_clean_linker_2, # of connection points: 2
#     Edge 35, Type (0, 1), BuildingBlock: XUDNAN_clean_linker_2, # of connection points: 2
# Relax obj value: 0.083
# Max RMSD: 0.172
# Mean RMSD: 0.136
data_MOF--net-pry--node1-CIFDUS_clean_sbu_1--node2-BETDAH_clean_linker_0--edge1-XUDNAN_clean_linker_2
_symmetry_space_group_name_H-M    P1
_symmetry_Int_Tables_number       1
_symmetry_cell_setting            triclinic
loop_
_symmetry_equiv_pos_as_xyz
'x, y, z'
_cell_length_a     36.034821
_cell_length_b     34.997497
_cell_length_c     34.876601
_cell_angle_alpha  92.517288
_cell_angle_beta   91.715756
_cell_angle_gamma 97.90946
loop_
_atom_site_label
_atom_site_type_symbol
_atom_site_fract_x
_atom_site_fract_y
_atom_site_fract_z
_atom_type_partial_charge
H0 H 0.20826 0.14619 0.23704 0.0
H1 H 0.20386 0.18403 0.12162 0.0
H2 H 0.12453 0.21601 0.20215 0.0
C3 C 0.19544 0.16149 0.21503 0.0
C4 C 0.16392 0.1797 0.22401 0.0
C5 C 0.21049 0.16272 0.17827 0.0
C6 C 0.19391 0.18367 0.15062 0.0
C7 C 0.16394 0.20386 0.15911 0.0
C8 C 0.1488 0.20199 0.196 0.0
N9 N 0.14878 0.22288 0.12821 0.0
C10 C 0.12582 0.25187 0.12933 0.0
H11 H 0.44606 0.89363 0.72869 0.0
H12 H 0.40172 0.99955 0.70771 0.0
H13 H 0.40372 0.91548 0.61592 0.0
C14 C 0.43335 0.91202 0.70959 0.0
C15 C 0.42747 0.90039 0.67022 0.0
C16 C 0.42328 0.94742 0.72423 0.0
C17 C 0.40788 0.97129 0.69831 0.0
C18 C 0.4003 0.95933 0.6598 0.0
C19 C 0.40971 0.92399 0.64595 0.0
N20 N 0.38579 0.98451 0.63442 0.0
C21 C 0.34903 0.97767 0.61991 0.0
H22 H 0.71664 0.29002 0.91461 0.0
H23 H 0.71668 0.36556 0.82003 0.0
H24 H 0.65208 0.2525 0.81106 0.0
C25 C 0.70733 0.29576 0.88586 0.0
C26 C 0.68257 0.26736 0.86498 0.0
C27 C 0.7198 0.33148 0.87019 0.0
C28 C 0.70735 0.3383 0.83261 0.0
C29 C 0.68311 0.30959 0.81115 0.0
C30 C 0.67096 0.27441 0.82755 0.0
N31 N 0.67115 0.31425 0.77264 0.0
C32 C 0.66843 0.3493 0.75612 0.0
H33 H 0.86063 0.70333 0.50499 0.0
H34 H 0.93872 0.7084 0.41408 0.0
H35 H 0.8334 0.63469 0.39944 0.0
C36 C 0.86817 0.69373 0.47667 0.0
C37 C 0.84291 0.66665 0.45446 0.0
C38 C 0.90274 0.70922 0.46249 0.0
C39 C 0.91227 0.69665 0.42578 0.0
C40 C 0.8873 0.67053 0.40271 0.0
C41 C 0.85236 0.65565 0.4169 0.0
N42 N 0.89971 0.65861 0.36642 0.0
C43 C 0.87771 0.64857 0.33305 0.0
H44 H 0.90943 0.85014 0.85595 0.0
H45 H 0.86836 0.90545 0.95585 0.0
H46 H 0.88424 0.96705 0.85339 0.0
C47 C 0.89944 0.87496 0.86949 0.0
C48 C 0.89668 0.90808 0.84819 0.0
C49 C 0.89043 0.87395 0.90876 0.0
C50 C 0.87605 0.90579 0.92606 0.0
C51 C 0.87315 0.93887 0.90544 0.0
C52 C 0.88462 0.94018 0.86748 0.0
N53 N 0.86191 0.9728 0.92273 0.0
C54 C 0.83332 0.97373 0.94864 0.0
H55 H 0.68437 0.10606 0.41832 0.0
H56 H 0.69928 0.18908 0.51405 0.0
H57 H 0.60492 0.18624 0.43537 0.0
C58 C 0.67503 0.12963 0.43489 0.0
C59 C 0.64228 0.14413 0.42274 0.0
C60 C 0.69608 0.14555 0.46774 0.0
C61 C 0.68332 0.17586 0.48892 0.0
C62 C 0.65056 0.19043 0.47789 0.0
C63 C 0.63013 0.17491 0.44435 0.0
N64 N 0.63983 0.22059 0.50193 0.0
C65 C 0.60976 0.241 0.49643 0.0
H66 H 0.29183 0.79978 0.20158 0.0
H67 H 0.23739 0.72389 0.28286 0.0
H68 H 0.33208 0.80739 0.31962 0.0
C69 C 0.2901 0.78924 0.23035 0.0
C70 C 0.31512 0.8071 0.25955 0.0
C71 C 0.26216 0.75891 0.2382 0.0
C72 C 0.25923 0.74683 0.27605 0.0
C73 C 0.28472 0.76346 0.30531 0.0
C74 C 0.31312 0.79345 0.29692 0.0
N75 N 0.27879 0.75166 0.34335 0.0
C76 C 0.30701 0.74482 0.36922 0.0
H77 H 0.1677 0.39565 0.60318 0.0
H78 H 0.18812 0.43302 0.72243 0.0
H79 H 0.10507 0.33611 0.69077 0.0
C80 C 0.16082 0.39319 0.63306 0.0
C81 C 0.13292 0.36366 0.64306 0.0
C82 C 0.18135 0.41813 0.66134 0.0
C83 C 0.17247 0.41424 0.7003 0.0
C84 C 0.14448 0.38479 0.71068 0.0
C85 C 0.12529 0.3597 0.68209 0.0
N86 N 0.13649 0.3772 0.7495 0.0
C87 C 0.14429 0.40287 0.78126 0.0
O88 O 0.96599 0.0577 0.5198 0.0
Mn89 Mn 0.01783 0.03969 0.53147 0.0
O90 O 0.94416 0.03076 0.4622 0.0
Mn91 Mn 0.98653 0.00831 0.44997 0.0
O92 O 0.06975 0.02167 0.54417 0.0
O93 O 0.03022 0.08484 0.56916 0.0
Mn94 Mn 0.04381 0.06899 0.61398 0.0
O95 O 0.99238 1.00412 0.57422 0.0
O96 O 0.08604 0.04546 0.60445 0.0
O97 O 0.04312 0.07402 0.48746 0.0
O98 O 0.02557 0.04101 0.4312 0.0
O99 O 0.04693 0.12191 0.61999 0.0
O100 O 1.00303 0.03742 0.63086 0.0
C101 C 0.99876 0.95973 0.48184 0.0
C102 C 0.94059 0.05133 0.4927 0.0
C103 C 0.09253 0.02647 0.57377 0.0
C104 C 0.03639 0.11957 0.58407 0.0
C105 C 0.98674 0.00872 0.61042 0.0
C106 C 0.04508 0.06888 0.45055 0.0
O107 O 1.00492 0.99519 0.49396 0.0
O108 O 0.98494 0.95492 0.44706 0.0
O109 O 0.49826 0.02493 1.02203 0.0
Mn110 Mn 0.51823 0.03894 0.0791 0.0
O111 O 0.49885 0.96121 1.01096 0.0
Mn112 Mn 0.52222 0.95375 0.05745 0.0
O113 O 0.53788 0.05388 0.13615 0.0
O114 O 0.53211 0.0936 0.06424 0.0
Mn115 Mn 0.51757 0.12664 0.09792 0.0
O116 O 0.46364 0.0505 0.09418 0.0
O117 O 0.542 0.11868 0.14376 0.0
O118 O 0.57325 0.0293 0.06439 0.0
O119 O 0.57346 0.9653 0.05793 0.0
O120 O 0.54069 0.15576 0.06016 0.0
O121 O 0.46609 0.1154 0.09764 0.0
C122 C 0.4928 0.95057 0.10909 0.0
C123 C 0.49229 0.99397 1.00006 0.0
C124 C 0.54634 0.08585 0.15646 0.0
C125 C 0.54544 0.12254 0.04481 0.0
C126 C 0.44795 0.08156 0.09858 0.0
C127 C 0.59034 0.99964 0.05815 0.0
O128 O 0.50473 0.98298 0.09359 0.0
O129 O 0.50043 0.91965 0.09097 0.0
O130 O 0.56377 0.58267 0.55031 0.0
Mn131 Mn 0.50794 0.56523 0.5648 0.0
O132 O 0.56537 0.57287 0.48618 0.0
Mn133 Mn 0.51622 0.55007 0.47865 0.0
O134 O 0.45217 0.54742 0.57921 0.0
O135 O 0.5268 0.55652 0.61827 0.0
Mn136 Mn 0.49886 0.57603 0.65246 0.0
O137 O 0.50183 0.62309 0.58017 0.0
O138 O 0.45139 0.54886 0.64383 0.0
O139 O 0.51342 0.50688 0.55062 0.0
O140 O 0.50796 0.49804 0.48657 0.0
O141 O 0.53462 0.5548 0.68017 0.0
O142 O 0.50233 0.62823 0.64477 0.0
C143 C 0.47435 0.58718 0.48037 0.0
C144 C 0.58126 0.5843 0.51858 0.0
C145 C 0.43528 0.54097 0.61083 0.0
C146 C 0.5455 0.5448 0.64663 0.0
C147 C 0.50045 0.64291 0.61208 0.0
C148 C 0.5113 0.485 0.51973 0.0
O149 O 0.4897 0.57479 0.51081 0.0
O150 O 0.48486 0.57317 0.44808 0.0
O151 O 0.94521 0.52664 1.01063 0.0
Mn152 Mn 0.994 0.56092 0.03445 0.0
O153 O 0.94574 0.53377 0.94706 0.0
Mn154 Mn 0.98584 0.57261 0.94951 0.0
O155 O 0.04287 0.59565 0.05829 0.0
O156 O 0.96793 0.56079 0.08608 0.0
Mn157 Mn 1.0026 0.54944 0.11925 0.0
O158 O 0.01632 0.50877 0.04518 0.0
O159 O 0.04086 0.58986 0.12204 0.0
O160 O 0.97136 0.61318 1.02369 0.0
O161 O 0.97473 0.62113 0.9605 0.0
O162 O 0.96305 0.55338 0.1487 0.0
O163 O 0.01596 0.50165 0.1086 0.0
C164 C 0.04004 0.55753 0.95232 0.0
C165 C 0.93127 0.51815 0.97635 0.0
C166 C 0.05547 0.6054 0.09285 0.0
C167 C 0.94797 0.56241 0.11672 0.0
C168 C 0.02239 0.48961 0.07502 0.0
C169 C 0.96682 0.6328 0.99375 0.0
O170 O 0.01987 0.56018 0.98271 0.0
O171 O 0.02541 0.56715 0.92034 0.0
H172 H 0.15126 0.11135 0.25956 0.0
H173 H 0.13586 0.23172 0.27423 0.0
H174 H 0.10918 0.21878 0.33809 0.0
H175 H 0.06732 0.07217 0.30168 0.0
H176 H 0.08793 0.03372 0.32307 0.0
H177 H 0.10648 0.05384 0.2799 0.0
H178 H 0.17235 0.06853 0.31361 0.0
H179 H 0.15381 0.04896 0.35713 0.0
H180 H 0.17835 0.09749 0.35797 0.0
H181 H 0.08258 0.19029 0.40169 0.0
H182 H 0.05387 0.14889 0.45224 0.0
H183 H 0.0892 0.04888 0.39413 0.0
C184 C 0.14281 0.13528 0.27631 0.0
C185 C 0.14622 0.17274 0.26193 0.0
C186 C 0.13359 0.20277 0.2845 0.0
C187 C 0.11869 0.19571 0.32099 0.0
C188 C 0.11651 0.15843 0.33455 0.0
C189 C 0.12805 0.12876 0.31247 0.0
C190 C 0.12147 0.09083 0.33202 0.0
C191 C 0.09417 0.0609 0.30773 0.0
C192 C 0.15872 0.07557 0.3407 0.0
C193 C 0.10402 0.10338 0.36855 0.0
C194 C 0.10159 0.14249 0.37003 0.0
C195 C 0.08477 0.15974 0.40079 0.0
C196 C 0.06894 0.13615 0.42972 0.0
C197 C 0.06986 0.09579 0.42748 0.0
C198 C 0.08858 0.07975 0.39697 0.0
H199 H 0.47734 0.93023 0.77732 0.0
H200 H 0.38115 0.99236 0.76765 0.0
H201 H 0.3914 0.01525 0.83516 0.0
H202 H 0.45488 0.89632 0.87079 0.0
H203 H 0.50325 0.89916 0.88681 0.0
H204 H 0.49044 0.8905 0.83657 0.0
H205 H 0.5378 0.94987 0.82067 0.0
H206 H 0.55048 0.95891 0.87094 0.0
H207 H 0.5343 0.99634 0.84364 0.0
H208 H 0.41303 0.03285 0.90471 0.0
H209 H 0.43897 0.03563 0.97176 0.0
H210 H 0.51524 0.95589 0.93744 0.0
C211 C 0.45803 0.9483 0.78913 0.0
C212 C 0.42886 0.95994 0.7661 0.0
C213 C 0.40468 0.98395 0.78361 0.0
C214 C 0.41003 0.99698 0.8223 0.0
C215 C 0.4392 0.98523 0.84381 0.0
C216 C 0.46233 0.96082 0.828 0.0
C217 C 0.48998 0.95026 0.85799 0.0
C218 C 0.48428 0.90646 0.86336 0.0
C219 C 0.53054 0.96472 0.84768 0.0
C220 C 0.47866 0.97239 0.89308 0.0
C221 C 0.44983 0.99308 0.88425 0.0
C222 C 0.43541 0.01648 0.91201 0.0
C223 C 0.45035 0.01806 0.94992 0.0
C224 C 0.47873 0.99569 0.95976 0.0
C225 C 0.49319 0.97294 0.93078 0.0
H226 H 0.60233 0.35467 0.72114 0.0
H227 H 0.71442 0.41563 0.74247 0.0
H228 H 0.69774 0.46975 0.70445 0.0
H229 H 0.58678 0.38652 0.62253 0.0
H230 H 0.53833 0.39005 0.63151 0.0
H231 H 0.56172 0.35522 0.65571 0.0
H232 H 0.54253 0.38461 0.72094 0.0
H233 H 0.51978 0.41916 0.69578 0.0
H234 H 0.55563 0.43554 0.73225 0.0
H235 H 0.66598 0.51977 0.66975 0.0
H236 H 0.62133 0.5626 0.64734 0.0
H237 H 0.53098 0.46754 0.64661 0.0
C238 C 0.62342 0.37931 0.71735 0.0
C239 C 0.65957 0.38133 0.73443 0.0
C240 C 0.68654 0.41386 0.72941 0.0
C241 C 0.67735 0.44446 0.70766 0.0
C242 C 0.64125 0.44165 0.69093 0.0
C243 C 0.61472 0.40985 0.69573 0.0
C244 C 0.57705 0.41502 0.67792 0.0
C245 C 0.56536 0.38487 0.64492 0.0
C246 C 0.54701 0.41352 0.70855 0.0
C247 C 0.58603 0.4551 0.66302 0.0
C248 C 0.62334 0.4699 0.6703 0.0
C249 C 0.63703 0.50808 0.66295 0.0
C250 C 0.61164 0.53212 0.6497 0.0
C251 C 0.57318 0.51779 0.64366 0.0
C252 C 0.56062 0.47853 0.64909 0.0
H253 H 0.90429 0.6872 0.27327 0.0
H254 H 0.82821 0.58767 0.30385 0.0
H255 H 0.82161 0.56451 0.23549 0.0
H256 H 0.86346 0.69459 0.1693 0.0
H257 H 0.91022 0.70754 0.15272 0.0
H258 H 0.89869 0.72292 0.20044 0.0
H259 H 0.95333 0.69099 0.22939 0.0
H260 H 0.96519 0.67654 0.18205 0.0
H261 H 0.95562 0.64072 0.21741 0.0
H262 H 0.83688 0.54369 0.16976 0.0
H263 H 0.87762 0.5241 0.11932 0.0
H264 H 0.94283 0.63725 0.12807 0.0
C265 C 0.88466 0.66166 0.265 0.0
C266 C 0.86591 0.63965 0.29325 0.0
C267 C 0.84191 0.60537 0.28226 0.0
C268 C 0.83799 0.59215 0.24345 0.0
C269 C 0.85816 0.61369 0.21608 0.0
C270 C 0.88086 0.64804 0.22646 0.0
C271 C 0.90537 0.66181 0.19379 0.0
C272 C 0.89372 0.69892 0.17814 0.0
C273 C 0.9473 0.66778 0.20642 0.0
C274 C 0.89573 0.62808 0.1647 0.0
C275 C 0.8672 0.6014 0.17737 0.0
C276 C 0.85827 0.56489 0.15896 0.0
C277 C 0.8812 0.55409 0.12962 0.0
C278 C 0.91307 0.57939 0.11959 0.0
C279 C 0.9178 0.61799 0.13436 0.0
H280 H 0.26699 0.1829 0.12766 0.0
H281 H 0.22779 0.09395 0.20588 0.0
H282 H 0.28162 0.06033 0.19053 0.0
H283 H 0.2976 0.11643 0.05472 0.0
H284 H 0.33713 0.15063 0.04266 0.0
H285 H 0.29521 0.16752 0.0596 0.0
H286 H 0.33419 0.2089 0.11406 0.0
H287 H 0.37617 0.19235 0.09717 0.0
H288 H 0.36341 0.18608 0.14631 0.0
H289 H 0.344 0.03988 0.17107 0.0
H290 H 0.4071 0.0344 0.14786 0.0
H291 H 0.40011 0.13036 0.07536 0.0
C292 C 0.269 0.15596 0.14113 0.0
C293 C 0.24279 0.14155 0.16834 0.0
C294 C 0.24763 0.10647 0.18568 0.0
C295 C 0.278 0.08675 0.17677 0.0
C296 C 0.3031 0.10185 0.14983 0.0
C297 C 0.29862 0.13547 0.13198 0.0
C298 C 0.3297 0.14605 0.10443 0.0
C299 C 0.31396 0.14508 0.06289 0.0
C300 C 0.35219 0.18568 0.11622 0.0
C301 C 0.35289 0.11362 0.11018 0.0
C302 C 0.33719 0.08838 0.13649 0.0
C303 C 0.35571 0.05852 0.14922 0.0
C304 C 0.39131 0.05479 0.1351 0.0
C305 C 0.40774 0.08005 0.10782 0.0
C306 C 0.38778 0.10955 0.09506 0.0
H307 H 0.29116 0.99397 0.66138 0.0
H308 H 0.32119 0.95792 0.54751 0.0
H309 H 0.25617 0.96094 0.5231 0.0
H310 H 0.19393 0.94328 0.65681 0.0
H311 H 0.17669 0.98214 0.68335 0.0
H312 H 0.22409 0.97277 0.69197 0.0
H313 H 0.24888 0.04369 0.67783 0.0
H314 H 0.20167 0.05319 0.66903 0.0
H315 H 0.23594 0.06251 0.63278 0.0
H316 H 0.18844 0.97342 0.51078 0.0
H317 H 0.12558 0.99466 0.51162 0.0
H318 H 0.14174 0.02258 0.63405 0.0
C319 C 0.28366 0.98588 0.63151 0.0
C320 C 0.31056 0.97525 0.60625 0.0
C321 C 0.30045 0.96566 0.56721 0.0
C322 C 0.2637 0.96732 0.5532 0.0
C323 C 0.23766 0.97853 0.57877 0.0
C324 C 0.24726 0.98744 0.61719 0.0
C325 C 0.21516 1.0011 0.63835 0.0
C326 C 0.20167 0.97315 0.66945 0.0
C327 C 0.22607 0.04258 0.65548 0.0
C328 C 0.18627 0.9995 0.60577 0.0
C329 C 0.1994 0.98603 0.57166 0.0
C330 C 0.1778 0.98365 0.53746 0.0
C331 C 0.14212 0.99578 0.53819 0.0
C332 C 0.12862 0.01045 0.57283 0.0
C333 C 0.15102 0.01162 0.60698 0.0
H334 H 0.78129 0.37798 0.84516 0.0
H335 H 0.71886 0.35129 0.94737 0.0
H336 H 0.76611 0.3955 0.98641 0.0
H337 H 0.87204 0.38344 0.88808 0.0
H338 H 0.89221 0.42332 0.86096 0.0
H339 H 0.85286 0.39046 0.84097 0.0
H340 H 0.81536 0.44764 0.8312 0.0
H341 H 0.85476 0.48072 0.85079 0.0
H342 H 0.80945 0.48005 0.87148 0.0
H343 H 0.82264 0.44126 1.01495 0.0
H344 H 0.88087 0.48715 1.02897 0.0
H345 H 0.90405 0.48411 0.90748 0.0
C346 C 0.77711 0.3819 0.87562 0.0
C347 C 0.7464 0.36087 0.89312 0.0
C348 C 0.74246 0.36654 0.93329 0.0
C349 C 0.76908 0.39175 0.95574 0.0
C350 C 0.79943 0.4114 0.93766 0.0
C351 C 0.8033 0.40703 0.89842 0.0
C352 C 0.83852 0.43117 0.8859 0.0
C353 C 0.86549 0.40556 0.86793 0.0
C354 C 0.82894 0.46171 0.85822 0.0
C355 C 0.85399 0.44958 0.92419 0.0
C356 C 0.83125 0.43788 0.95384 0.0
C357 C 0.84053 0.45081 0.99187 0.0
C358 C 0.87372 0.47672 0.99962 0.0
C359 C 0.89703 0.48949 0.96941 0.0
C360 C 0.88684 0.47534 0.93135 0.0
H361 H 0.77287 0.65452 0.41873 0.0
H362 H 0.83083 0.64355 0.52774 0.0
H363 H 0.7702 0.62386 0.55724 0.0
H364 H 0.69433 0.69255 0.45627 0.0
H365 H 0.66082 0.66614 0.42201 0.0
H366 H 0.70884 0.67878 0.40921 0.0
H367 H 0.71369 0.60681 0.39217 0.0
H368 H 0.66551 0.59404 0.40437 0.0
H369 H 0.70167 0.5713 0.4273 0.0
H370 H 0.70228 0.60732 0.57552 0.0
H371 H 0.6334 0.58978 0.5789 0.0
H372 H 0.62118 0.61046 0.45765 0.0
C373 C 0.7729 0.64738 0.44862 0.0
C374 C 0.80663 0.65095 0.47094 0.0
C375 C 0.8053 0.6417 0.51016 0.0
C376 C 0.771 0.63039 0.5272 0.0
C377 C 0.7382 0.62814 0.50463 0.0
C378 C 0.73893 0.63591 0.46608 0.0
C379 C 0.69978 0.63108 0.44806 0.0
C380 C 0.69041 0.66942 0.43301 0.0
C381 C 0.69488 0.59888 0.41609 0.0
C382 C 0.67698 0.61944 0.48246 0.0
C383 C 0.69948 0.6181 0.51495 0.0
C384 C 0.68437 0.60814 0.55019 0.0
C385 C 0.64526 0.59847 0.55194 0.0
C386 C 0.62191 0.59859 0.51858 0.0
C387 C 0.6382 0.60981 0.48368 0.0
H388 H 0.12513 0.32373 0.16358 0.0
H389 H 0.08114 0.24857 0.06606 0.0
H390 H 0.05219 0.30203 0.03856 0.0
H391 H 0.04422 0.37549 0.1717 0.0
H392 H 0.07251 0.42093 0.18518 0.0
H393 H 0.08879 0.37632 0.19687 0.0
H394 H 0.15008 0.39708 0.16159 0.0
H395 H 0.13362 0.44142 0.14918 0.0
H396 H 0.14742 0.40938 0.11202 0.0
H397 H 0.03024 0.36594 1.02021 0.0
H398 H 0.01103 0.43144 1.01744 0.0
H399 H 0.06858 0.46338 0.12753 0.0
C400 C 0.10876 0.31846 0.13685 0.0
C401 C 0.10475 0.28201 0.11713 0.0
C402 C 0.0839 0.27626 0.08183 0.0
C403 C 0.06765 0.30653 0.06584 0.0
C404 C 0.07254 0.3425 0.08555 0.0
C405 C 0.09215 0.34838 0.1206 0.0
C406 C 0.09301 0.38958 0.1362 0.0
C407 C 0.07345 0.39063 0.17476 0.0
C408 C 0.13344 0.41059 0.13995 0.0
C409 C 0.07075 0.40583 0.1047 0.0
C410 C 0.05952 0.37856 0.07539 0.0
C411 C 0.03875 0.38745 0.04317 0.0
C412 C 0.0282 0.42478 0.04159 0.0
C413 C 0.03808 0.45246 0.07227 0.0
C414 C 0.0603 0.44279 0.10367 0.0
H415 H 0.60911 0.23883 0.87138 0.0
H416 H 0.72119 0.21682 0.90222 0.0
H417 H 0.69466 0.16256 0.94077 0.0
H418 H 0.57591 0.23078 0.95974 0.0
H419 H 0.529 0.20878 0.9456 0.0
H420 H 0.55628 0.2381 0.9129 0.0
H421 H 0.5468 0.18112 0.86182 0.0
H422 H 0.51973 0.1514 0.89485 0.0
H423 H 0.56009 0.13509 0.87357 0.0
H424 H 0.65679 0.11904 0.98472 0.0
H425 H 0.61269 0.09741 0.03495 0.0
H426 H 0.52563 0.14886 0.97721 0.0
C427 C 0.62792 0.22146 0.88496 0.0
C428 C 0.66709 0.23145 0.88338 0.0
C429 C 0.69105 0.20928 0.90284 0.0
C430 C 0.67619 0.17823 0.9245 0.0
C431 C 0.6373 0.16971 0.92642 0.0
C432 C 0.6135 0.19084 0.90715 0.0
C433 C 0.57342 0.18071 0.91901 0.0
C434 C 0.55779 0.21671 0.9353 0.0
C435 C 0.54855 0.16089 0.8853 0.0
C436 C 0.57866 0.15251 0.94977 0.0
C437 C 0.61542 0.14526 0.95263 0.0
C438 C 0.62775 0.12359 0.98199 0.0
C439 C 0.60246 0.11093 1.01022 0.0
C440 C 0.56567 0.12048 1.00906 0.0
C441 C 0.55329 0.14002 0.97769 0.0
H442 H 0.88155 0.77098 0.5024 0.0
H443 H 0.97978 0.72012 0.47006 0.0
H444 H 0.02011 0.77964 0.49357 0.0
H445 H 0.90379 0.85419 0.46875 0.0
H446 H 0.88661 0.88394 0.50592 0.0
H447 H 0.86721 0.83421 0.49927 0.0
H448 H 0.88379 0.82363 0.57052 0.0
H449 H 0.90372 0.87377 0.57723 0.0
H450 H 0.93138 0.83644 0.58888 0.0
H451 H 0.04687 0.84801 0.50103 0.0
H452 H 0.05602 0.91762 0.4893 0.0
H453 H 0.94242 0.92531 0.5212 0.0
C454 C 0.91164 0.77158 0.50221 0.0
C455 C 0.92746 0.74092 0.48433 0.0
C456 C 0.96696 0.74338 0.48331 0.0
C457 C 0.99015 0.77694 0.49712 0.0
C458 C 0.97356 0.80759 0.51267 0.0
C459 C 0.9351 0.80489 0.51602 0.0
C460 C 0.92357 0.8438 0.52712 0.0
C461 C 0.89361 0.85464 0.49853 0.0
C462 C 0.9098 0.84443 0.56839 0.0
C463 C 0.96077 0.8695 0.52477 0.0
C464 C 0.98965 0.84792 0.51819 0.0
C465 C 0.02498 0.86523 0.50782 0.0
C466 C 0.03013 0.90487 0.50144 0.0
C467 C 1.00017 0.92655 0.50559 0.0
C468 C 0.96604 0.90928 0.5197 0.0
H469 H 0.42993 0.83088 0.70476 0.0
H470 H 0.45579 0.88799 0.59874 0.0
H471 H 0.47622 0.82864 0.57132 0.0
H472 H 0.51093 0.78086 0.70576 0.0
H473 H 0.4864 0.73844 0.72594 0.0
H474 H 0.47213 0.785 0.73641 0.0
H475 H 0.40457 0.75874 0.71131 0.0
H476 H 0.41866 0.71214 0.70072 0.0
H477 H 0.39722 0.73675 0.66347 0.0
H478 H 0.49264 0.76094 0.55461 0.0
H479 H 0.50707 0.69348 0.55274 0.0
H480 H 0.47538 0.68438 0.67148 0.0
C481 C 0.44023 0.83131 0.67594 0.0
C482 C 0.4406 0.86439 0.65397 0.0
C483 C 0.45405 0.86295 0.61607 0.0
C484 C 0.46611 0.82936 0.60022 0.0
C485 C 0.4652 0.79735 0.62267 0.0
C486 C 0.45295 0.79827 0.65987 0.0
C487 C 0.45567 0.7605 0.67848 0.0
C488 C 0.48291 0.76657 0.71372 0.0
C489 C 0.41672 0.74088 0.68911 0.0
C490 C 0.47133 0.7382 0.646 0.0
C491 C 0.47634 0.7596 0.61381 0.0
C492 C 0.48925 0.74409 0.57987 0.0
C493 C 0.49741 0.70579 0.57903 0.0
C494 C 0.49311 0.68372 0.61209 0.0
C495 C 0.47984 0.7005 0.64583 0.0
H496 H 0.87233 0.95415 0.79194 0.0
H497 H 0.9469 0.86803 0.80865 0.0
H498 H 0.9669 0.87507 0.74236 0.0
H499 H 0.85062 0.93624 0.68864 0.0
H500 H 0.85383 0.98705 0.68038 0.0
H501 H 0.83877 0.96929 0.72594 0.0
H502 H 0.89151 0.0169 0.76145 0.0
H503 H 0.90609 0.03517 0.71616 0.0
H504 H 0.93934 0.01688 0.7477 0.0
H505 H 0.9837 0.89601 0.67503 0.0
H506 H 1.00353 0.9363 0.62058 0.0
H507 H 0.92521 0.01443 0.65231 0.0
C508 C 0.89297 0.93658 0.78227 0.0
C509 C 0.90754 0.91024 0.80663 0.0
C510 C 0.93403 0.88769 0.79118 0.0
C511 C 0.94586 0.89159 0.75321 0.0
C512 C 0.93151 0.91852 0.73068 0.0
C513 C 0.90606 0.94106 0.74503 0.0
C514 C 0.89905 0.97196 0.71758 0.0
C515 C 0.85813 0.96575 0.70223 0.0
C516 C 0.90965 0.01261 0.73686 0.0
C517 C 0.92552 0.96423 0.68606 0.0
C518 C 0.94295 0.93233 0.69332 0.0
C519 C 0.9699 0.92077 0.66898 0.0
C520 C 0.98073 0.94355 0.6378 0.0
C521 C 0.96533 0.97798 0.63184 0.0
C522 C 0.93658 0.98762 0.65559 0.0
H523 H 0.61921 0.18279 0.36155 0.0
H524 H 0.62162 0.06768 0.40179 0.0
H525 H 0.59652 0.03949 0.33843 0.0
H526 H 0.53312 0.15962 0.30055 0.0
H527 H 0.55094 0.19159 0.26418 0.0
H528 H 0.56604 0.20211 0.31369 0.0
H529 H 0.63522 0.20485 0.29439 0.0
H530 H 0.62033 0.19378 0.24495 0.0
H531 H 0.64979 0.16385 0.26885 0.0
H532 H 0.57448 0.02399 0.2686 0.0
H533 H 0.55488 0.02296 0.19978 0.0
H534 H 0.56824 0.14838 0.20599 0.0
C535 C 0.61354 0.15166 0.3573 0.0
C536 C 0.6222 0.12743 0.38663 0.0
C537 C 0.61523 0.08679 0.37965 0.0
C538 C 0.60097 0.07051 0.34377 0.0
C539 C 0.59378 0.09522 0.31505 0.0
C540 C 0.59954 0.13493 0.32156 0.0
C541 C 0.5911 0.15517 0.2855 0.0
C542 C 0.55834 0.17849 0.29133 0.0
C543 C 0.6262 0.18092 0.27268 0.0
C544 C 0.58008 0.12074 0.25765 0.0
C545 C 0.58163 0.08635 0.27511 0.0
C546 C 0.57301 0.0508 0.25469 0.0
C547 C 0.56209 0.05047 0.21553 0.0
C548 C 0.56001 0.08549 0.19718 0.0
C549 C 0.56943 0.12094 0.21882 0.0
H550 H 0.37853 0.73225 0.35974 0.0
H551 H 0.28984 0.72475 0.44105 0.0
H552 H 0.32823 0.69162 0.48575 0.0
H553 H 0.40047 0.64179 0.36948 0.0
H554 H 0.45036 0.65384 0.36492 0.0
H555 H 0.41906 0.68318 0.3435 0.0
H556 H 0.45392 0.74381 0.38118 0.0
H557 H 0.48545 0.71446 0.40278 0.0
H558 H 0.45945 0.74376 0.43273 0.0
H559 H 0.37362 0.65062 0.51737 0.0
H560 H 0.41939 0.60495 0.53001 0.0
H561 H 0.47706 0.64053 0.42757 0.0
C562 C 0.36792 0.72482 0.38758 0.0
C563 C 0.33178 0.73148 0.39751 0.0
C564 C 0.31794 0.72036 0.43347 0.0
C565 C 0.33955 0.7016 0.45899 0.0
C566 C 0.37502 0.69448 0.44812 0.0
C567 C 0.38916 0.70616 0.4133 0.0
C568 C 0.42603 0.69163 0.40622 0.0
C569 C 0.42381 0.66609 0.36885 0.0
C570 C 0.45811 0.72543 0.40571 0.0
C571 C 0.42953 0.66832 0.44134 0.0
C572 C 0.40046 0.6708 0.46582 0.0
C573 C 0.39681 0.649 0.49864 0.0
C574 C 0.42287 0.62319 0.50574 0.0
C575 C 0.45146 0.61912 0.47964 0.0
C576 C 0.45538 0.64303 0.44802 0.0
H577 H 0.15328 0.48058 0.79575 0.0
H578 H 0.13309 0.37073 0.84897 0.0
H579 H 0.12012 0.40389 0.91018 0.0
H580 H 0.19288 0.54047 0.88771 0.0
H581 H 0.16996 0.58052 0.87346 0.0
H582 H 0.18728 0.54949 0.83751 0.0
H583 H 0.12122 0.5362 0.80405 0.0
H584 H 0.10411 0.56742 0.83939 0.0
H585 H 0.08155 0.51829 0.83166 0.0
H586 H 0.09366 0.44612 0.95874 0.0
H587 H 0.05525 0.4923 0.98736 0.0
H588 H 0.09741 0.57661 0.90671 0.0
C589 C 0.14787 0.46394 0.82094 0.0
C590 C 0.14479 0.42339 0.81822 0.0
C591 C 0.13624 0.40201 0.851 0.0
C592 C 0.12896 0.42063 0.88589 0.0
C593 C 0.13094 0.46077 0.88765 0.0
C594 C 0.14083 0.48226 0.85612 0.0
C595 C 0.13569 0.52411 0.86359 0.0
C596 C 0.17372 0.55019 0.8657 0.0
C597 C 0.10905 0.53721 0.83289 0.0
C598 C 0.11839 0.52215 0.90272 0.0
C599 C 0.11676 0.48562 0.91672 0.0
C600 C 0.09607 0.47524 0.94892 0.0
C601 C 0.0746 0.5019 0.96556 0.0
C602 C 0.07397 0.53831 0.94981 0.0
C603 C 0.09832 0.54932 0.91997 0.0
H604 H 0.76472 0.93111 0.95226 0.0
H605 H 0.83277 0.03631 0.99644 0.0
H606 H 0.77839 0.05534 0.03094 0.0
H607 H 0.68151 0.97191 0.9354 0.0
H608 H 0.65042 0.93045 0.94944 0.0
H609 H 0.69523 0.92436 0.93041 0.0
H610 H 0.71239 0.88972 0.99136 0.0
H611 H 0.66745 0.89541 1.0104 0.0
H612 H 0.70984 0.91336 0.038 0.0
H613 H 0.71403 0.0643 0.05765 0.0
H614 H 0.64767 0.05991 0.07672 0.0
H615 H 0.62342 0.94869 1.01458 0.0
C616 C 0.76823 0.95772 0.96988 0.0
C617 C 0.80282 0.98206 0.97236 0.0
C618 C 0.80644 0.01709 0.99484 0.0
C619 C 0.77569 0.02818 1.01433 0.0
C620 C 0.74156 1.00383 1.01098 0.0
C621 C 0.73785 0.96913 0.98955 0.0
C622 C 0.69812 0.94851 0.98969 0.0
C623 C 0.68028 0.94354 0.94881 0.0
C624 C 0.69689 0.90944 1.00849 0.0
C625 C 0.67999 0.97698 1.0143 0.0
C626 C 0.70523 0.00885 1.02629 0.0
C627 C 0.69412 0.03929 0.04856 0.0
C628 C 0.65635 0.03676 0.05905 0.0
C629 C 0.63028 1.004 0.04731 0.0
C630 C 0.64261 0.97398 1.02458 0.0
H631 H 0.7495 0.12061 0.4212 0.0
H632 H 0.72386 0.13803 0.54114 0.0
H633 H 0.7844 0.11815 0.56053 0.0
H634 H 0.79204 0.03395 0.43446 0.0
H635 H 0.82652 0.04547 0.39884 0.0
H636 H 0.78158 0.06222 0.39455 0.0
H637 H 0.81474 0.13255 0.39161 0.0
H638 H 0.85978 0.11607 0.39624 0.0
H639 H 0.84749 0.15254 0.42978 0.0
H640 H 0.84904 0.09818 0.56688 0.0
H641 H 0.90999 0.07413 0.55957 0.0
H642 H 0.89083 0.06536 0.43582 0.0
C643 C 0.75617 0.11975 0.45159 0.0
C644 C 0.73177 0.13136 0.47955 0.0
C645 C 0.74225 0.13022 0.51901 0.0
C646 C 0.77655 0.11871 0.53039 0.0
C647 C 0.79999 0.1079 0.50204 0.0
C648 C 0.79001 0.10781 0.46348 0.0
C649 C 0.81977 0.09393 0.43873 0.0
C650 C 0.80403 0.05668 0.41527 0.0
C651 C 0.83643 0.12567 0.41255 0.0
C652 C 0.84811 0.08634 0.46941 0.0
C653 C 0.8364 0.09495 0.50574 0.0
C654 C 0.85838 0.09109 0.53857 0.0
C655 C 0.89302 0.07759 0.53413 0.0
C656 C 0.90509 0.06767 0.49717 0.0
C657 C 0.88226 0.07235 0.46449 0.0
H658 H 0.18598 0.74132 0.24123 0.0
H659 H 0.27808 0.73485 0.16517 0.0
H660 H 0.23369 0.70161 0.11476 0.0
H661 H 0.13806 0.64968 0.21777 0.0
H662 H 0.09198 0.66389 0.22091 0.0
H663 H 0.13071 0.69048 0.2486 0.0
H664 H 0.11711 0.75364 0.2181 0.0
H665 H 0.07848 0.72703 0.18997 0.0
H666 H 0.11552 0.75611 0.16656 0.0
H667 H 0.17865 0.66285 0.07477 0.0
H668 H 0.11985 0.62144 0.05152 0.0
H669 H 0.06538 0.65578 0.15406 0.0
C670 C 0.19681 0.73314 0.21389 0.0
C671 C 0.23547 0.74057 0.20716 0.0
C672 C 0.24847 0.7297 0.17083 0.0
C673 C 0.22346 0.71083 0.14202 0.0
C674 C 0.18545 0.70355 0.14978 0.0
C675 C 0.17228 0.71467 0.18486 0.0
C676 C 0.13071 0.70179 0.1872 0.0
C677 C 0.1224 0.67485 0.22057 0.0
C678 C 0.10919 0.73673 0.19065 0.0
C679 C 0.12267 0.68036 0.14862 0.0
C680 C 0.15428 0.682 0.12698 0.0
C681 C 0.15363 0.6619 0.09129 0.0
C682 C 0.12013 0.63864 0.07813 0.0
C683 C 0.08816 0.63551 0.10096 0.0
C684 C 0.08939 0.65771 0.13591 0.0
H685 H 0.25046 0.43313 0.69822 0.0
H686 H 0.18807 0.4623 0.59779 0.0
H687 H 0.24636 0.49654 0.57303 0.0
H688 H 0.31434 0.52526 0.70788 0.0
H689 H 0.35315 0.50175 0.72372 0.0
H690 H 0.30593 0.48185 0.73412 0.0
H691 H 0.31654 0.41645 0.70145 0.0
H692 H 0.36347 0.43635 0.69021 0.0
H693 H 0.33096 0.41498 0.65241 0.0
H694 H 0.31325 0.52225 0.55637 0.0
H695 H 0.38146 0.54457 0.55369 0.0
H696 H 0.39822 0.50088 0.66654 0.0
C697 C 0.2487 0.44769 0.67161 0.0
C698 C 0.21462 0.44476 0.64991 0.0
C699 C 0.21393 0.46364 0.61474 0.0
C700 C 0.24689 0.48323 0.60044 0.0
C701 C 0.28026 0.48421 0.62188 0.0
C702 C 0.28121 0.46763 0.6571 0.0
C703 C 0.32066 0.47218 0.67433 0.0
C704 C 0.32369 0.49673 0.71225 0.0
C705 C 0.33365 0.43264 0.67991 0.0
C706 C 0.34184 0.49339 0.64307 0.0
C707 C 0.31823 0.49992 0.61288 0.0
C708 C 0.33193 0.51777 0.58011 0.0
C709 C 0.3707 0.53009 0.57869 0.0
C710 C 0.39508 0.52479 0.61001 0.0
C711 C 0.38027 0.50581 0.64229 0.0
H712 H 0.87946 0.79612 0.88755 0.0
H713 H 0.92022 0.87633 0.98271 0.0
H714 H 0.93781 0.82224 1.01935 0.0
H715 H 0.84357 0.71442 0.94509 0.0
H716 H 0.85844 0.67955 0.9114 0.0
H717 H 0.84544 0.72408 0.89478 0.0
H718 H 0.90999 0.7393 0.86376 0.0
H719 H 0.92301 0.69479 0.88005 0.0
H720 H 0.95225 0.73984 0.89292 0.0
H721 H 0.95658 0.75807 0.04354 0.0
H722 H 0.97549 0.69271 0.05023 0.0
H723 H 0.92189 0.65664 0.93914 0.0
C724 C 0.8918 0.80241 0.91621 0.0
C725 C 0.8982 0.8407 0.93212 0.0
C726 C 0.91431 0.84729 0.96993 0.0
C727 C 0.92459 0.81667 0.99101 0.0
C728 C 0.91839 0.77934 0.97416 0.0
C729 C 0.90215 0.77225 0.93759 0.0
C730 C 0.9004 0.7302 0.92474 0.0
C731 C 0.85953 0.71093 0.91866 0.0
C732 C 0.92275 0.72579 0.88823 0.0
C733 C 0.91908 0.71485 0.9592 0.0
C734 C 0.929 0.74324 0.9878 0.0
C735 C 0.9485 0.73557 1.0214 0.0
C736 C 0.95897 0.69833 1.02518 0.0
C737 C 0.95022 0.66953 0.99528 0.0
C738 C 0.92906 0.67797 0.9626 0.0
H739 H 0.39127 0.81334 0.25461 0.0
H740 H 0.29706 0.87655 0.24068 0.0
H741 H 0.33797 0.92936 0.2118 0.0
H742 H 0.46721 0.90158 0.26997 0.0
H743 H 0.49963 0.8778 0.24235 0.0
H744 H 0.46556 0.84989 0.27052 0.0
H745 H 0.44141 0.80727 0.20986 0.0
H746 H 0.4752 0.83495 0.18165 0.0
H747 H 0.42609 0.8299 0.16786 0.0
H748 H 0.38399 0.96657 0.17127 0.0
H749 H 0.43231 0.98535 0.12377 0.0
H750 H 0.49823 0.90132 0.16593 0.0
C751 C 0.37991 0.83922 0.2471 0.0
C752 C 0.34139 0.8415 0.25045 0.0
C753 C 0.32676 0.87483 0.23885 0.0
C754 C 0.34979 0.90493 0.22252 0.0
C755 C 0.3875 0.90135 0.21813 0.0
C756 C 0.40263 0.86951 0.23052 0.0
C757 C 0.44245 0.87006 0.21754 0.0
C758 C 0.47036 0.87515 0.25217 0.0
C759 C 0.44648 0.8334 0.19275 0.0
C760 C 0.44649 0.90574 0.19404 0.0
C761 C 0.41479 0.9239 0.19539 0.0
C762 C 0.40979 0.95398 0.17153 0.0
C763 C 0.43751 0.96519 0.14518 0.0
C764 C 0.46971 0.94671 0.14313 0.0
C765 C 0.47455 0.91718 0.16838 0.0
H766 H 0.06 0.32832 0.6399 0.0
H767 H 0.16428 0.33151 0.5805 0.0
H768 H 0.13692 0.27532 0.53945 0.0
H769 H 0.04981 0.23635 0.65392 0.0
H770 H 0.99943 0.22645 0.64819 0.0
H771 H 0.02129 0.27427 0.66181 0.0
H772 H 0.98794 0.30009 0.60336 0.0
H773 H 0.96649 0.25168 0.58922 0.0
H774 H 0.9939 0.28034 0.55569 0.0
H775 H 0.10673 0.21026 0.51811 0.0
H776 H 0.08157 0.14209 0.52608 0.0
H777 H 0.99736 0.17748 0.60008 0.0
C778 C 0.07668 0.31789 0.61744 0.0
C779 C 0.11425 0.3346 0.61349 0.0
C780 C 0.13515 0.32 0.58376 0.0
C781 C 0.11974 0.28793 0.56011 0.0
C782 C 0.08327 0.27071 0.56622 0.0
C783 C 0.06189 0.28543 0.59415 0.0
C784 C 0.02702 0.25748 0.60093 0.0
C785 C 0.02432 0.24806 0.64369 0.0
C786 C 0.99175 0.27335 0.58642 0.0
C787 C 0.03431 0.22303 0.57584 0.0
C788 C 0.06573 0.23193 0.55426 0.0
C789 C 0.08143 0.20324 0.5338 0.0
C790 C 0.0667 0.16445 0.53806 0.0
C791 C 0.03713 0.15497 0.56306 0.0
C792 C 0.01913 0.18449 0.57977 0.0
H793 H 0.6032 0.30094 0.45147 0.0
H794 H 0.56016 0.24464 0.5522 0.0
H795 H 0.52538 0.29943 0.56761 0.0
H796 H 0.62045 0.39291 0.49311 0.0
H797 H 0.60711 0.41767 0.45172 0.0
H798 H 0.62381 0.37177 0.44546 0.0
H799 H 0.56301 0.34394 0.40644 0.0
H800 H 0.54633 0.39004 0.41205 0.0
H801 H 0.5181 0.34701 0.42691 0.0
H802 H 0.50177 0.3646 0.57597 0.0
H803 H 0.4904 0.43312 0.57543 0.0
H804 H 0.54707 0.44485 0.46777 0.0
C805 C 0.58518 0.29957 0.47583 0.0
C806 C 0.58338 0.2684 0.50017 0.0
C807 C 0.56093 0.26802 0.53274 0.0
C808 C 0.54128 0.29907 0.54179 0.0
C809 C 0.54431 0.3301 0.51776 0.0
C810 C 0.5653 0.33027 0.4851 0.0
C811 C 0.56637 0.36816 0.46561 0.0
C812 C 0.60683 0.38883 0.4639 0.0
C813 C 0.5473 0.3619 0.42537 0.0
C814 C 0.54362 0.38963 0.49283 0.0
C815 C 0.53099 0.36735 0.52272 0.0
C816 C 0.51144 0.38229 0.55263 0.0
C817 C 0.50507 0.42113 0.55213 0.0
C818 C 0.51734 0.44407 0.52132 0.0
C819 C 0.53661 0.4278 0.49133 0.0
loop_
_geom_bond_atom_site_label_1
_geom_bond_atom_site_label_2
_geom_bond_distance
_geom_bond_site_symmetry_2
_ccdc_geom_bond_type
H0 C3 0.929 . S
H1 C6 0.929 . S
H2 C8 0.930 . S
C3 H0 0.929 . S
C3 C4 1.398 . S
C3 C5 1.396 . S
C4 C3 1.398 . S
C4 C8 1.407 . S
C5 C3 1.396 . S
C5 C6 1.394 . S
C6 H1 0.929 . S
C6 C5 1.394 . S
C6 C7 1.382 . S
C7 C6 1.382 . S
C7 C8 1.392 . S
C7 N9 1.420 . S
C8 H2 0.930 . S
C8 C4 1.407 . S
C8 C7 1.392 . S
N9 C7 1.420 . S
N9 C10 1.244 . S
C10 N9 1.244 . S
H11 C14 0.929 . S
H12 C17 0.929 . S
H13 C19 0.930 . S
C14 H11 0.929 . S
C14 C15 1.398 . S
C14 C16 1.396 . S
C15 C14 1.398 . S
C15 C19 1.407 . S
C16 C14 1.396 . S
C16 C17 1.394 . S
C17 H12 0.929 . S
C17 C16 1.394 . S
C17 C18 1.382 . S
C18 C17 1.382 . S
C18 C19 1.392 . S
C18 N20 1.420 . S
C19 H13 0.930 . S
C19 C15 1.407 . S
C19 C18 1.392 . S
N20 C18 1.420 . S
N20 C21 1.244 . S
C21 N20 1.244 . S
H22 C25 0.929 . S
H23 C28 0.929 . S
H24 C30 0.930 . S
C25 H22 0.929 . S
C25 C26 1.398 . S
C25 C27 1.396 . S
C26 C25 1.398 . S
C26 C30 1.407 . S
C27 C25 1.396 . S
C27 C28 1.394 . S
C28 H23 0.929 . S
C28 C27 1.394 . S
C28 C29 1.382 . S
C29 C28 1.382 . S
C29 C30 1.392 . S
C29 N31 1.420 . S
C30 H24 0.930 . S
C30 C26 1.407 . S
C30 C29 1.392 . S
N31 C29 1.420 . S
N31 C32 1.244 . S
C32 N31 1.244 . S
H33 C36 0.929 . S
H34 C39 0.929 . S
H35 C41 0.930 . S
C36 H33 0.929 . S
C36 C37 1.398 . S
C36 C38 1.396 . S
C37 C36 1.398 . S
C37 C41 1.407 . S
C38 C36 1.396 . S
C38 C39 1.394 . S
C39 H34 0.929 . S
C39 C38 1.394 . S
C39 C40 1.382 . S
C40 C39 1.382 . S
C40 C41 1.392 . S
C40 N42 1.420 . S
C41 H35 0.930 . S
C41 C37 1.407 . S
C41 C40 1.392 . S
N42 C40 1.420 . S
N42 C43 1.244 . S
C43 N42 1.244 . S
H44 C47 0.929 . S
H45 C50 0.929 . S
H46 C52 0.930 . S
C47 H44 0.929 . S
C47 C48 1.398 . S
C47 C49 1.396 . S
C48 C47 1.398 . S
C48 C52 1.407 . S
C49 C47 1.396 . S
C49 C50 1.394 . S
C50 H45 0.929 . S
C50 C49 1.394 . S
C50 C51 1.382 . S
C51 C50 1.382 . S
C51 C52 1.392 . S
C51 N53 1.420 . S
C52 H46 0.930 . S
C52 C48 1.407 . S
C52 C51 1.392 . S
N53 C51 1.420 . S
N53 C54 1.244 . S
C54 N53 1.244 . S
H55 C58 0.929 . S
H56 C61 0.929 . S
H57 C63 0.930 . S
C58 H55 0.929 . S
C58 C59 1.398 . S
C58 C60 1.396 . S
C59 C58 1.398 . S
C59 C63 1.407 . S
C60 C58 1.396 . S
C60 C61 1.394 . S
C61 H56 0.929 . S
C61 C60 1.394 . S
C61 C62 1.382 . S
C62 C61 1.382 . S
C62 C63 1.392 . S
C62 N64 1.420 . S
C63 H57 0.930 . S
C63 C59 1.407 . S
C63 C62 1.392 . S
N64 C62 1.420 . S
N64 C65 1.244 . S
C65 N64 1.244 . S
H66 C69 0.929 . S
H67 C72 0.929 . S
H68 C74 0.930 . S
C69 H66 0.929 . S
C69 C70 1.398 . S
C69 C71 1.396 . S
C70 C69 1.398 . S
C70 C74 1.407 . S
C71 C69 1.396 . S
C71 C72 1.394 . S
C72 H67 0.929 . S
C72 C71 1.394 . S
C72 C73 1.382 . S
C73 C72 1.382 . S
C73 C74 1.392 . S
C73 N75 1.420 . S
C74 H68 0.930 . S
C74 C70 1.407 . S
C74 C73 1.392 . S
N75 C73 1.420 . S
N75 C76 1.244 . S
C76 N75 1.244 . S
H77 C80 0.929 . S
H78 C83 0.929 . S
H79 C85 0.930 . S
C80 H77 0.929 . S
C80 C81 1.398 . S
C80 C82 1.396 . S
C81 C80 1.398 . S
C81 C85 1.407 . S
C82 C80 1.396 . S
C82 C83 1.394 . S
C83 H78 0.929 . S
C83 C82 1.394 . S
C83 C84 1.382 . S
C84 C83 1.382 . S
C84 C85 1.392 . S
C84 N86 1.420 . S
C85 H79 0.930 . S
C85 C81 1.407 . S
C85 C84 1.392 . S
N86 C84 1.420 . S
N86 C87 1.244 . S
C87 N86 1.244 . S
O88 Mn89 2.163 1_655 S
O88 C102 1.244 . S
Mn89 O88 2.163 1_455 S
Mn89 O92 2.160 . S
Mn89 O93 2.221 . S
Mn89 O95 2.163 1_445 S
Mn89 O97 2.160 . S
Mn89 O107 2.221 1_445 S
O90 Mn91 2.087 1_545 S
O90 C102 1.256 . S
Mn91 O90 2.087 1_565 S
Mn91 O98 2.089 1_565 S
Mn91 O107 2.290 . S
Mn91 O108 2.251 . S
O92 Mn89 2.160 . S
O92 C103 1.239 . S
O93 Mn89 2.221 . S
O93 Mn94 2.290 . S
O93 C104 1.278 . S
Mn94 O93 2.290 . S
Mn94 O96 2.089 . S
Mn94 O99 2.251 . S
Mn94 O100 2.087 . S
O95 Mn89 2.163 1_665 S
O95 C105 1.244 1_565 S
O96 Mn94 2.089 . S
O96 C103 1.256 . S
O97 Mn89 2.160 . S
O97 C106 1.239 . S
O98 Mn91 2.089 1_545 S
O98 C106 1.256 1_655 S
O99 Mn94 2.251 . S
O99 C104 1.241 . S
O100 Mn94 2.087 . S
O100 C105 1.256 1_455 S
C101 O107 1.278 . S
C101 O108 1.241 . S
C102 O88 1.244 . S
C102 O90 1.256 . S
C103 O92 1.239 . S
C103 O96 1.256 . S
C104 O93 1.278 . S
C104 O99 1.241 . S
C105 O95 1.244 1_545 S
C105 O100 1.256 1_655 S
C106 O97 1.239 . S
C106 O98 1.256 1_455 S
O107 Mn89 2.221 1_665 S
O107 Mn91 2.290 . S
O107 C101 1.278 . S
O108 Mn91 2.251 . S
O108 C101 1.241 . S
O109 Mn110 2.163 1_556 S
O109 C123 1.244 . S
Mn110 O109 2.163 1_554 S
Mn110 O113 2.160 . S
Mn110 O114 2.221 . S
Mn110 O116 2.163 . S
Mn110 O118 2.160 . S
Mn110 O128 2.221 1_545 S
O111 Mn112 2.077 1_556 S
O111 C123 1.256 1_565 S
Mn112 O111 2.077 1_554 S
Mn112 O119 2.085 1_554 S
Mn112 O128 2.302 . S
Mn112 O129 2.260 . S
O113 Mn110 2.160 . S
O113 C124 1.239 . S
O114 Mn110 2.221 . S
O114 Mn115 2.290 . S
O114 C125 1.278 . S
Mn115 O114 2.290 . S
Mn115 O117 2.089 . S
Mn115 O120 2.251 . S
Mn115 O121 2.087 . S
O116 Mn110 2.163 . S
O116 C126 1.244 . S
O117 Mn115 2.089 . S
O117 C124 1.256 . S
O118 Mn110 2.160 . S
O118 C127 1.239 . S
O119 Mn112 2.085 1_556 S
O119 C127 1.256 1_566 S
O120 Mn115 2.251 . S
O120 C125 1.241 . S
O121 Mn115 2.087 . S
O121 C126 1.256 . S
C122 O128 1.278 . S
C122 O129 1.241 . S
C123 O109 1.244 . S
C123 O111 1.256 1_545 S
C124 O113 1.239 . S
C124 O117 1.256 . S
C125 O114 1.278 . S
C125 O120 1.241 . S
C126 O116 1.244 . S
C126 O121 1.256 . S
C127 O118 1.239 . S
C127 O119 1.256 1_544 S
O128 Mn110 2.221 1_565 S
O128 Mn112 2.302 . S
O128 C122 1.278 . S
O129 Mn112 2.260 . S
O129 C122 1.241 . S
O130 Mn131 2.163 . S
O130 C144 1.244 . S
Mn131 O130 2.163 . S
Mn131 O134 2.160 . S
Mn131 O135 2.221 . S
Mn131 O137 2.163 . S
Mn131 O139 2.160 . S
Mn131 O149 2.221 . S
O132 Mn133 2.087 . S
O132 C144 1.256 . S
Mn133 O132 2.087 . S
Mn133 O140 2.089 . S
Mn133 O149 2.290 . S
Mn133 O150 2.251 . S
O134 Mn131 2.160 . S
O134 C145 1.239 . S
O135 Mn131 2.221 . S
O135 Mn136 2.290 . S
O135 C146 1.278 . S
Mn136 O135 2.290 . S
Mn136 O138 2.089 . S
Mn136 O141 2.251 . S
Mn136 O142 2.087 . S
O137 Mn131 2.163 . S
O137 C147 1.244 . S
O138 Mn136 2.089 . S
O138 C145 1.256 . S
O139 Mn131 2.160 . S
O139 C148 1.239 . S
O140 Mn133 2.089 . S
O140 C148 1.256 . S
O141 Mn136 2.251 . S
O141 C146 1.241 . S
O142 Mn136 2.087 . S
O142 C147 1.256 . S
C143 O149 1.278 . S
C143 O150 1.241 . S
C144 O130 1.244 . S
C144 O132 1.256 . S
C145 O134 1.239 . S
C145 O138 1.256 . S
C146 O135 1.278 . S
C146 O141 1.241 . S
C147 O137 1.244 . S
C147 O142 1.256 . S
C148 O139 1.239 . S
C148 O140 1.256 . S
O149 Mn131 2.221 . S
O149 Mn133 2.290 . S
O149 C143 1.278 . S
O150 Mn133 2.251 . S
O150 C143 1.241 . S
O151 Mn152 2.163 1_655 S
O151 C165 1.244 1_554 S
Mn152 O151 2.163 1_455 S
Mn152 O155 2.160 . S
Mn152 O156 2.221 . S
Mn152 O158 2.163 . S
Mn152 O160 2.161 . S
Mn152 O170 2.221 1_554 S
O153 Mn154 2.087 . S
O153 C165 1.256 . S
Mn154 O153 2.087 . S
Mn154 O161 2.089 . S
Mn154 O170 2.290 1_655 S
Mn154 O171 2.251 1_655 S
O155 Mn152 2.160 . S
O155 C166 1.239 . S
O156 Mn152 2.221 . S
O156 Mn157 2.290 . S
O156 C167 1.278 1_455 S
Mn157 O156 2.290 . S
Mn157 O159 2.089 . S
Mn157 O162 2.251 1_455 S
Mn157 O163 2.087 . S
O158 Mn152 2.163 . S
O158 C168 1.244 . S
O159 Mn157 2.089 . S
O159 C166 1.256 . S
O160 Mn152 2.161 . S
O160 C169 1.235 1_454 S
O161 Mn154 2.089 . S
O161 C169 1.256 . S
O162 Mn157 2.251 1_655 S
O162 C167 1.241 . S
O163 Mn157 2.087 . S
O163 C168 1.256 . S
C164 O170 1.278 . S
C164 O171 1.241 . S
C165 O151 1.244 1_556 S
C165 O153 1.256 . S
C166 O155 1.239 . S
C166 O159 1.256 . S
C167 O156 1.278 1_655 S
C167 O162 1.241 . S
C168 O158 1.244 . S
C168 O163 1.256 . S
C169 O160 1.235 1_656 S
C169 O161 1.256 . S
O170 Mn152 2.221 1_556 S
O170 Mn154 2.290 1_455 S
O170 C164 1.278 . S
O171 Mn154 2.251 1_455 S
O171 C164 1.241 . S
H172 C184 0.930 . S
H173 C186 0.930 . S
H174 C187 0.930 . S
H175 C191 0.959 . S
H176 C191 0.959 . S
H177 C191 0.961 . S
H178 C192 0.960 . S
H179 C192 0.961 . S
H180 C192 0.959 . S
H181 C195 0.929 . S
H182 C196 0.931 . S
H183 C198 0.930 . S
C184 H172 0.930 . S
C184 C185 1.399 . S
C184 C189 1.399 . S
C185 C184 1.399 . S
C185 C186 1.376 . S
C186 H173 0.930 . S
C186 C185 1.376 . S
C186 C187 1.388 . S
C187 H174 0.930 . S
C187 C186 1.388 . S
C187 C188 1.390 . S
C188 C187 1.390 . S
C188 C189 1.394 . S
C188 C194 1.465 . S
C189 C184 1.399 . S
C189 C188 1.394 . S
C189 C190 1.516 . S
C190 C189 1.516 . S
C190 C191 1.502 . S
C190 C192 1.561 . S
C190 C193 1.526 . S
C191 H175 0.959 . S
C191 H176 0.959 . S
C191 H177 0.961 . S
C191 C190 1.502 . S
C192 H178 0.960 . S
C192 H179 0.961 . S
C192 H180 0.959 . S
C192 C190 1.561 . S
C193 C190 1.526 . S
C193 C194 1.396 . S
C193 C198 1.390 . S
C194 C188 1.465 . S
C194 C193 1.396 . S
C194 C195 1.399 . S
C195 H181 0.929 . S
C195 C194 1.399 . S
C195 C196 1.385 . S
C196 H182 0.931 . S
C196 C195 1.385 . S
C196 C197 1.389 . S
C197 C196 1.389 . S
C197 C198 1.387 . S
C198 H183 0.930 . S
C198 C193 1.390 . S
C198 C197 1.387 . S
H199 C211 0.930 . S
H200 C213 0.930 . S
H201 C214 0.930 . S
H202 C218 0.959 . S
H203 C218 0.959 . S
H204 C218 0.961 . S
H205 C219 0.960 . S
H206 C219 0.961 . S
H207 C219 0.959 . S
H208 C222 0.929 . S
H209 C223 0.931 . S
H210 C225 0.930 . S
C211 H199 0.930 . S
C211 C212 1.399 . S
C211 C216 1.399 . S
C212 C211 1.399 . S
C212 C213 1.376 . S
C213 H200 0.930 . S
C213 C212 1.376 . S
C213 C214 1.388 . S
C214 H201 0.930 . S
C214 C213 1.388 . S
C214 C215 1.390 . S
C215 C214 1.390 . S
C215 C216 1.394 . S
C215 C221 1.465 . S
C216 C211 1.399 . S
C216 C215 1.394 . S
C216 C217 1.516 1_565 S
C217 C216 1.516 1_545 S
C217 C218 1.502 . S
C217 C219 1.561 . S
C217 C220 1.526 1_545 S
C218 H202 0.959 . S
C218 H203 0.959 . S
C218 H204 0.961 . S
C218 C217 1.502 . S
C219 H205 0.960 . S
C219 H206 0.961 . S
C219 H207 0.959 . S
C219 C217 1.561 . S
C220 C217 1.526 1_565 S
C220 C221 1.396 . S
C220 C225 1.390 1_565 S
C221 C215 1.465 . S
C221 C220 1.396 . S
C221 C222 1.399 . S
C222 H208 0.929 . S
C222 C221 1.399 . S
C222 C223 1.385 . S
C223 H209 0.931 . S
C223 C222 1.385 . S
C223 C224 1.389 . S
C224 C223 1.389 . S
C224 C225 1.387 1_565 S
C225 H210 0.930 . S
C225 C220 1.390 1_545 S
C225 C224 1.387 1_545 S
H226 C238 0.930 . S
H227 C240 0.930 . S
H228 C241 0.930 . S
H229 C245 0.959 . S
H230 C245 0.959 . S
H231 C245 0.961 . S
H232 C246 0.960 . S
H233 C246 0.961 . S
H234 C246 0.959 . S
H235 C249 0.929 . S
H236 C250 0.931 . S
H237 C252 0.930 . S
C238 H226 0.930 . S
C238 C239 1.399 . S
C238 C243 1.399 . S
C239 C238 1.399 . S
C239 C240 1.376 . S
C240 H227 0.930 . S
C240 C239 1.376 . S
C240 C241 1.388 . S
C241 H228 0.930 . S
C241 C240 1.388 . S
C241 C242 1.390 . S
C242 C241 1.390 . S
C242 C243 1.394 . S
C242 C248 1.465 . S
C243 C238 1.399 . S
C243 C242 1.394 . S
C243 C244 1.516 . S
C244 C243 1.516 . S
C244 C245 1.502 . S
C244 C246 1.561 . S
C244 C247 1.526 . S
C245 H229 0.959 . S
C245 H230 0.959 . S
C245 H231 0.961 . S
C245 C244 1.502 . S
C246 H232 0.960 . S
C246 H233 0.961 . S
C246 H234 0.959 . S
C246 C244 1.561 . S
C247 C244 1.526 . S
C247 C248 1.396 . S
C247 C252 1.390 . S
C248 C242 1.465 . S
C248 C247 1.396 . S
C248 C249 1.399 . S
C249 H235 0.929 . S
C249 C248 1.399 . S
C249 C250 1.385 . S
C250 H236 0.931 . S
C250 C249 1.385 . S
C250 C251 1.389 . S
C251 C250 1.389 . S
C251 C252 1.387 . S
C252 H237 0.930 . S
C252 C247 1.390 . S
C252 C251 1.387 . S
H253 C265 0.930 . S
H254 C267 0.930 . S
H255 C268 0.930 . S
H256 C272 0.959 . S
H257 C272 0.959 . S
H258 C272 0.961 . S
H259 C273 0.960 . S
H260 C273 0.961 . S
H261 C273 0.959 . S
H262 C276 0.929 . S
H263 C277 0.931 . S
H264 C279 0.930 . S
C265 H253 0.930 . S
C265 C266 1.399 . S
C265 C270 1.399 . S
C266 C265 1.399 . S
C266 C267 1.376 . S
C267 H254 0.930 . S
C267 C266 1.376 . S
C267 C268 1.388 . S
C268 H255 0.930 . S
C268 C267 1.388 . S
C268 C269 1.390 . S
C269 C268 1.390 . S
C269 C270 1.394 . S
C269 C275 1.465 . S
C270 C265 1.399 . S
C270 C269 1.394 . S
C270 C271 1.516 . S
C271 C270 1.516 . S
C271 C272 1.502 . S
C271 C273 1.561 . S
C271 C274 1.526 . S
C272 H256 0.959 . S
C272 H257 0.959 . S
C272 H258 0.961 . S
C272 C271 1.502 . S
C273 H259 0.960 . S
C273 H260 0.961 . S
C273 H261 0.959 . S
C273 C271 1.561 . S
C274 C271 1.526 . S
C274 C275 1.396 . S
C274 C279 1.390 . S
C275 C269 1.465 . S
C275 C274 1.396 . S
C275 C276 1.399 . S
C276 H262 0.929 . S
C276 C275 1.399 . S
C276 C277 1.385 . S
C277 H263 0.931 . S
C277 C276 1.385 . S
C277 C278 1.389 . S
C278 C277 1.389 . S
C278 C279 1.387 . S
C279 H264 0.930 . S
C279 C274 1.390 . S
C279 C278 1.387 . S
H280 C292 0.930 . S
H281 C294 0.930 . S
H282 C295 0.930 . S
H283 C299 0.959 . S
H284 C299 0.959 . S
H285 C299 0.961 . S
H286 C300 0.960 . S
H287 C300 0.961 . S
H288 C300 0.959 . S
H289 C303 0.929 . S
H290 C304 0.931 . S
H291 C306 0.930 . S
C292 H280 0.930 . S
C292 C293 1.399 . S
C292 C297 1.399 . S
C293 C292 1.399 . S
C293 C294 1.376 . S
C294 H281 0.930 . S
C294 C293 1.376 . S
C294 C295 1.388 . S
C295 H282 0.930 . S
C295 C294 1.388 . S
C295 C296 1.390 . S
C296 C295 1.390 . S
C296 C297 1.394 . S
C296 C302 1.465 . S
C297 C292 1.399 . S
C297 C296 1.394 . S
C297 C298 1.516 . S
C298 C297 1.516 . S
C298 C299 1.502 . S
C298 C300 1.561 . S
C298 C301 1.526 . S
C299 H283 0.959 . S
C299 H284 0.959 . S
C299 H285 0.961 . S
C299 C298 1.502 . S
C300 H286 0.960 . S
C300 H287 0.961 . S
C300 H288 0.959 . S
C300 C298 1.561 . S
C301 C298 1.526 . S
C301 C302 1.396 . S
C301 C306 1.390 . S
C302 C296 1.465 . S
C302 C301 1.396 . S
C302 C303 1.399 . S
C303 H289 0.929 . S
C303 C302 1.399 . S
C303 C304 1.385 . S
C304 H290 0.931 . S
C304 C303 1.385 . S
C304 C305 1.389 . S
C305 C304 1.389 . S
C305 C306 1.387 . S
C306 H291 0.930 . S
C306 C301 1.390 . S
C306 C305 1.387 . S
H307 C319 0.930 1_545 S
H308 C321 0.930 . S
H309 C322 0.930 . S
H310 C326 0.959 . S
H311 C326 0.959 . S
H312 C326 0.961 . S
H313 C327 0.960 . S
H314 C327 0.961 . S
H315 C327 0.959 . S
H316 C330 0.929 . S
H317 C331 0.931 . S
H318 C333 0.930 . S
C319 H307 0.930 1_565 S
C319 C320 1.399 . S
C319 C324 1.399 . S
C320 C319 1.399 . S
C320 C321 1.376 . S
C321 H308 0.930 . S
C321 C320 1.376 . S
C321 C322 1.388 . S
C322 H309 0.930 . S
C322 C321 1.388 . S
C322 C323 1.390 . S
C323 C322 1.390 . S
C323 C324 1.394 . S
C323 C329 1.465 . S
C324 C319 1.399 . S
C324 C323 1.394 . S
C324 C325 1.516 1_565 S
C325 C324 1.516 1_545 S
C325 C326 1.502 . S
C325 C327 1.561 . S
C325 C328 1.526 1_545 S
C326 H310 0.959 . S
C326 H311 0.959 . S
C326 H312 0.961 . S
C326 C325 1.502 . S
C327 H313 0.960 . S
C327 H314 0.961 . S
C327 H315 0.959 . S
C327 C325 1.561 . S
C328 C325 1.526 1_565 S
C328 C329 1.396 . S
C328 C333 1.390 1_565 S
C329 C323 1.465 . S
C329 C328 1.396 . S
C329 C330 1.399 . S
C330 H316 0.929 . S
C330 C329 1.399 . S
C330 C331 1.385 . S
C331 H317 0.931 . S
C331 C330 1.385 . S
C331 C332 1.389 . S
C332 C331 1.389 . S
C332 C333 1.387 1_565 S
C333 H318 0.930 . S
C333 C328 1.390 1_545 S
C333 C332 1.387 1_545 S
H334 C346 0.930 . S
H335 C348 0.930 . S
H336 C349 0.930 1_554 S
H337 C353 0.959 . S
H338 C353 0.959 . S
H339 C353 0.961 . S
H340 C354 0.960 . S
H341 C354 0.961 . S
H342 C354 0.959 . S
H343 C357 0.929 . S
H344 C358 0.931 . S
H345 C360 0.930 . S
C346 H334 0.930 . S
C346 C347 1.399 . S
C346 C351 1.399 . S
C347 C346 1.399 . S
C347 C348 1.376 . S
C348 H335 0.930 . S
C348 C347 1.376 . S
C348 C349 1.388 . S
C349 H336 0.930 1_556 S
C349 C348 1.388 . S
C349 C350 1.390 . S
C350 C349 1.390 . S
C350 C351 1.394 . S
C350 C356 1.465 . S
C351 C346 1.399 . S
C351 C350 1.394 . S
C351 C352 1.516 . S
C352 C351 1.516 . S
C352 C353 1.502 . S
C352 C354 1.561 . S
C352 C355 1.526 . S
C353 H337 0.959 . S
C353 H338 0.959 . S
C353 H339 0.961 . S
C353 C352 1.502 . S
C354 H340 0.960 . S
C354 H341 0.961 . S
C354 H342 0.959 . S
C354 C352 1.561 . S
C355 C352 1.526 . S
C355 C356 1.396 . S
C355 C360 1.390 . S
C356 C350 1.465 . S
C356 C355 1.396 . S
C356 C357 1.399 1_556 S
C357 H343 0.929 . S
C357 C356 1.399 1_554 S
C357 C358 1.385 . S
C358 H344 0.931 . S
C358 C357 1.385 . S
C358 C359 1.389 1_554 S
C359 C358 1.389 1_556 S
C359 C360 1.387 . S
C360 H345 0.930 . S
C360 C355 1.390 . S
C360 C359 1.387 . S
H361 C373 0.930 . S
H362 C375 0.930 . S
H363 C376 0.930 . S
H364 C380 0.959 . S
H365 C380 0.959 . S
H366 C380 0.961 . S
H367 C381 0.960 . S
H368 C381 0.961 . S
H369 C381 0.959 . S
H370 C384 0.929 . S
H371 C385 0.931 . S
H372 C387 0.930 . S
C373 H361 0.930 . S
C373 C374 1.399 . S
C373 C378 1.399 . S
C374 C373 1.399 . S
C374 C375 1.376 . S
C375 H362 0.930 . S
C375 C374 1.376 . S
C375 C376 1.388 . S
C376 H363 0.930 . S
C376 C375 1.388 . S
C376 C377 1.390 . S
C377 C376 1.390 . S
C377 C378 1.394 . S
C377 C383 1.465 . S
C378 C373 1.399 . S
C378 C377 1.394 . S
C378 C379 1.516 . S
C379 C378 1.516 . S
C379 C380 1.502 . S
C379 C381 1.561 . S
C379 C382 1.526 . S
C380 H364 0.959 . S
C380 H365 0.959 . S
C380 H366 0.961 . S
C380 C379 1.502 . S
C381 H367 0.960 . S
C381 H368 0.961 . S
C381 H369 0.959 . S
C381 C379 1.561 . S
C382 C379 1.526 . S
C382 C383 1.396 . S
C382 C387 1.390 . S
C383 C377 1.465 . S
C383 C382 1.396 . S
C383 C384 1.399 . S
C384 H370 0.929 . S
C384 C383 1.399 . S
C384 C385 1.385 . S
C385 H371 0.931 . S
C385 C384 1.385 . S
C385 C386 1.389 . S
C386 C385 1.389 . S
C386 C387 1.387 . S
C387 H372 0.930 . S
C387 C382 1.390 . S
C387 C386 1.387 . S
H388 C400 0.930 . S
H389 C402 0.930 . S
H390 C403 0.930 . S
H391 C407 0.959 . S
H392 C407 0.959 . S
H393 C407 0.961 . S
H394 C408 0.960 . S
H395 C408 0.961 . S
H396 C408 0.959 . S
H397 C411 0.929 1_556 S
H398 C412 0.931 1_556 S
H399 C414 0.930 . S
C400 H388 0.930 . S
C400 C401 1.399 . S
C400 C405 1.399 . S
C401 C400 1.399 . S
C401 C402 1.376 . S
C402 H389 0.930 . S
C402 C401 1.376 . S
C402 C403 1.388 . S
C403 H390 0.930 . S
C403 C402 1.388 . S
C403 C404 1.390 . S
C404 C403 1.390 . S
C404 C405 1.394 . S
C404 C410 1.465 . S
C405 C400 1.399 . S
C405 C404 1.394 . S
C405 C406 1.516 . S
C406 C405 1.516 . S
C406 C407 1.502 . S
C406 C408 1.561 . S
C406 C409 1.526 . S
C407 H391 0.959 . S
C407 H392 0.959 . S
C407 H393 0.961 . S
C407 C406 1.502 . S
C408 H394 0.960 . S
C408 H395 0.961 . S
C408 H396 0.959 . S
C408 C406 1.561 . S
C409 C406 1.526 . S
C409 C410 1.396 . S
C409 C414 1.390 . S
C410 C404 1.465 . S
C410 C409 1.396 . S
C410 C411 1.399 . S
C411 H397 0.929 1_554 S
C411 C410 1.399 . S
C411 C412 1.385 . S
C412 H398 0.931 1_554 S
C412 C411 1.385 . S
C412 C413 1.389 . S
C413 C412 1.389 . S
C413 C414 1.387 . S
C414 H399 0.930 . S
C414 C409 1.390 . S
C414 C413 1.387 . S
H415 C427 0.930 . S
H416 C429 0.930 . S
H417 C430 0.930 1_554 S
H418 C434 0.959 . S
H419 C434 0.959 . S
H420 C434 0.961 . S
H421 C435 0.960 . S
H422 C435 0.961 . S
H423 C435 0.959 . S
H424 C438 0.929 . S
H425 C439 0.931 . S
H426 C441 0.930 . S
C427 H415 0.930 . S
C427 C428 1.399 . S
C427 C432 1.399 . S
C428 C427 1.399 . S
C428 C429 1.376 . S
C429 H416 0.930 . S
C429 C428 1.376 . S
C429 C430 1.388 . S
C430 H417 0.930 1_556 S
C430 C429 1.388 . S
C430 C431 1.390 . S
C431 C430 1.390 . S
C431 C432 1.394 . S
C431 C437 1.465 . S
C432 C427 1.399 . S
C432 C431 1.394 . S
C432 C433 1.516 . S
C433 C432 1.516 . S
C433 C434 1.502 . S
C433 C435 1.561 . S
C433 C436 1.526 . S
C434 H418 0.959 . S
C434 H419 0.959 . S
C434 H420 0.961 . S
C434 C433 1.502 . S
C435 H421 0.960 . S
C435 H422 0.961 . S
C435 H423 0.959 . S
C435 C433 1.561 . S
C436 C433 1.526 . S
C436 C437 1.396 . S
C436 C441 1.390 . S
C437 C431 1.465 . S
C437 C436 1.396 . S
C437 C438 1.399 1_556 S
C438 H424 0.929 . S
C438 C437 1.399 1_554 S
C438 C439 1.385 . S
C439 H425 0.931 . S
C439 C438 1.385 . S
C439 C440 1.389 1_554 S
C440 C439 1.389 1_556 S
C440 C441 1.387 . S
C441 H426 0.930 . S
C441 C436 1.390 . S
C441 C440 1.387 . S
H442 C454 0.930 . S
H443 C456 0.930 . S
H444 C457 0.930 . S
H445 C461 0.959 . S
H446 C461 0.959 . S
H447 C461 0.961 . S
H448 C462 0.960 . S
H449 C462 0.961 . S
H450 C462 0.959 . S
H451 C465 0.929 1_455 S
H452 C466 0.931 1_455 S
H453 C468 0.930 . S
C454 H442 0.930 . S
C454 C455 1.399 . S
C454 C459 1.399 . S
C455 C454 1.399 . S
C455 C456 1.376 . S
C456 H443 0.930 . S
C456 C455 1.376 . S
C456 C457 1.388 . S
C457 H444 0.930 . S
C457 C456 1.388 . S
C457 C458 1.390 . S
C458 C457 1.390 . S
C458 C459 1.394 . S
C458 C464 1.465 . S
C459 C454 1.399 . S
C459 C458 1.394 . S
C459 C460 1.516 . S
C460 C459 1.516 . S
C460 C461 1.502 . S
C460 C462 1.561 . S
C460 C463 1.526 . S
C461 H445 0.959 . S
C461 H446 0.959 . S
C461 H447 0.961 . S
C461 C460 1.502 . S
C462 H448 0.960 . S
C462 H449 0.961 . S
C462 H450 0.959 . S
C462 C460 1.561 . S
C463 C460 1.526 . S
C463 C464 1.396 . S
C463 C468 1.390 . S
C464 C458 1.465 . S
C464 C463 1.396 . S
C464 C465 1.399 . S
C465 H451 0.929 1_655 S
C465 C464 1.399 . S
C465 C466 1.385 . S
C466 H452 0.931 1_655 S
C466 C465 1.385 . S
C466 C467 1.389 . S
C467 C466 1.389 . S
C467 C468 1.387 . S
C468 H453 0.930 . S
C468 C463 1.390 . S
C468 C467 1.387 . S
H469 C481 0.930 . S
H470 C483 0.930 . S
H471 C484 0.930 . S
H472 C488 0.959 . S
H473 C488 0.959 . S
H474 C488 0.961 . S
H475 C489 0.960 . S
H476 C489 0.961 . S
H477 C489 0.959 . S
H478 C492 0.929 . S
H479 C493 0.931 . S
H480 C495 0.930 . S
C481 H469 0.930 . S
C481 C482 1.399 . S
C481 C486 1.399 . S
C482 C481 1.399 . S
C482 C483 1.376 . S
C483 H470 0.930 . S
C483 C482 1.376 . S
C483 C484 1.388 . S
C484 H471 0.930 . S
C484 C483 1.388 . S
C484 C485 1.390 . S
C485 C484 1.390 . S
C485 C486 1.394 . S
C485 C491 1.465 . S
C486 C481 1.399 . S
C486 C485 1.394 . S
C486 C487 1.516 . S
C487 C486 1.516 . S
C487 C488 1.502 . S
C487 C489 1.561 . S
C487 C490 1.526 . S
C488 H472 0.959 . S
C488 H473 0.959 . S
C488 H474 0.961 . S
C488 C487 1.502 . S
C489 H475 0.960 . S
C489 H476 0.961 . S
C489 H477 0.959 . S
C489 C487 1.561 . S
C490 C487 1.526 . S
C490 C491 1.396 . S
C490 C495 1.390 . S
C491 C485 1.465 . S
C491 C490 1.396 . S
C491 C492 1.399 . S
C492 H478 0.929 . S
C492 C491 1.399 . S
C492 C493 1.385 . S
C493 H479 0.931 . S
C493 C492 1.385 . S
C493 C494 1.389 . S
C494 C493 1.389 . S
C494 C495 1.387 . S
C495 H480 0.930 . S
C495 C490 1.390 . S
C495 C494 1.387 . S
H496 C508 0.930 . S
H497 C510 0.930 . S
H498 C511 0.930 1_455 S
H499 C515 0.959 . S
H500 C515 0.959 . S
H501 C515 0.961 . S
H502 C516 0.960 . S
H503 C516 0.961 . S
H504 C516 0.959 . S
H505 C519 0.929 . S
H506 C520 0.931 . S
H507 C522 0.930 . S
C508 H496 0.930 . S
C508 C509 1.399 . S
C508 C513 1.399 . S
C509 C508 1.399 . S
C509 C510 1.376 . S
C510 H497 0.930 . S
C510 C509 1.376 . S
C510 C511 1.388 . S
C511 H498 0.930 1_655 S
C511 C510 1.388 . S
C511 C512 1.390 . S
C512 C511 1.390 . S
C512 C513 1.394 . S
C512 C518 1.465 . S
C513 C508 1.399 . S
C513 C512 1.394 . S
C513 C514 1.516 . S
C514 C513 1.516 . S
C514 C515 1.502 . S
C514 C516 1.561 1_565 S
C514 C517 1.526 . S
C515 H499 0.959 . S
C515 H500 0.959 . S
C515 H501 0.961 . S
C515 C514 1.502 . S
C516 H502 0.960 . S
C516 H503 0.961 . S
C516 H504 0.959 . S
C516 C514 1.561 1_545 S
C517 C514 1.526 . S
C517 C518 1.396 . S
C517 C522 1.390 . S
C518 C512 1.465 . S
C518 C517 1.396 . S
C518 C519 1.399 1_655 S
C519 H505 0.929 . S
C519 C518 1.399 1_455 S
C519 C520 1.385 . S
C520 H506 0.931 . S
C520 C519 1.385 . S
C520 C521 1.389 1_455 S
C521 C520 1.389 1_655 S
C521 C522 1.387 . S
C522 H507 0.930 . S
C522 C517 1.390 . S
C522 C521 1.387 . S
H523 C535 0.930 . S
H524 C537 0.930 . S
H525 C538 0.930 . S
H526 C542 0.959 . S
H527 C542 0.959 . S
H528 C542 0.961 . S
H529 C543 0.960 . S
H530 C543 0.961 . S
H531 C543 0.959 . S
H532 C546 0.929 . S
H533 C547 0.931 . S
H534 C549 0.930 . S
C535 H523 0.930 . S
C535 C536 1.399 . S
C535 C540 1.399 . S
C536 C535 1.399 . S
C536 C537 1.376 . S
C537 H524 0.930 . S
C537 C536 1.376 . S
C537 C538 1.388 . S
C538 H525 0.930 . S
C538 C537 1.388 . S
C538 C539 1.390 . S
C539 C538 1.390 . S
C539 C540 1.394 . S
C539 C545 1.465 . S
C540 C535 1.399 . S
C540 C539 1.394 . S
C540 C541 1.516 . S
C541 C540 1.516 . S
C541 C542 1.502 . S
C541 C543 1.561 . S
C541 C544 1.526 . S
C542 H526 0.959 . S
C542 H527 0.959 . S
C542 H528 0.961 . S
C542 C541 1.502 . S
C543 H529 0.960 . S
C543 H530 0.961 . S
C543 H531 0.959 . S
C543 C541 1.561 . S
C544 C541 1.526 . S
C544 C545 1.396 . S
C544 C549 1.390 . S
C545 C539 1.465 . S
C545 C544 1.396 . S
C545 C546 1.399 . S
C546 H532 0.929 . S
C546 C545 1.399 . S
C546 C547 1.385 . S
C547 H533 0.931 . S
C547 C546 1.385 . S
C547 C548 1.389 . S
C548 C547 1.389 . S
C548 C549 1.387 . S
C549 H534 0.930 . S
C549 C544 1.390 . S
C549 C548 1.387 . S
H550 C562 0.930 . S
H551 C564 0.930 . S
H552 C565 0.930 . S
H553 C569 0.959 . S
H554 C569 0.959 . S
H555 C569 0.961 . S
H556 C570 0.960 . S
H557 C570 0.961 . S
H558 C570 0.959 . S
H559 C573 0.929 . S
H560 C574 0.931 . S
H561 C576 0.930 . S
C562 H550 0.930 . S
C562 C563 1.399 . S
C562 C567 1.399 . S
C563 C562 1.399 . S
C563 C564 1.376 . S
C564 H551 0.930 . S
C564 C563 1.376 . S
C564 C565 1.388 . S
C565 H552 0.930 . S
C565 C564 1.388 . S
C565 C566 1.390 . S
C566 C565 1.390 . S
C566 C567 1.394 . S
C566 C572 1.465 . S
C567 C562 1.399 . S
C567 C566 1.394 . S
C567 C568 1.516 . S
C568 C567 1.516 . S
C568 C569 1.502 . S
C568 C570 1.561 . S
C568 C571 1.526 . S
C569 H553 0.959 . S
C569 H554 0.959 . S
C569 H555 0.961 . S
C569 C568 1.502 . S
C570 H556 0.960 . S
C570 H557 0.961 . S
C570 H558 0.959 . S
C570 C568 1.561 . S
C571 C568 1.526 . S
C571 C572 1.396 . S
C571 C576 1.390 . S
C572 C566 1.465 . S
C572 C571 1.396 . S
C572 C573 1.399 . S
C573 H559 0.929 . S
C573 C572 1.399 . S
C573 C574 1.385 . S
C574 H560 0.931 . S
C574 C573 1.385 . S
C574 C575 1.389 . S
C575 C574 1.389 . S
C575 C576 1.387 . S
C576 H561 0.930 . S
C576 C571 1.390 . S
C576 C575 1.387 . S
H577 C589 0.930 . S
H578 C591 0.930 . S
H579 C592 0.954 . S
H580 C596 0.959 . S
H581 C596 0.959 . S
H582 C596 0.961 . S
H583 C597 0.960 . S
H584 C597 0.961 . S
H585 C597 0.959 . S
H586 C600 0.929 1_655 S
H587 C601 0.931 1_655 S
H588 C603 0.930 . S
C589 H577 0.930 . S
C589 C590 1.399 . S
C589 C594 1.399 . S
C590 C589 1.399 . S
C590 C591 1.376 . S
C591 H578 0.930 . S
C591 C590 1.376 . S
C591 C592 1.388 . S
C592 H579 0.954 . S
C592 C591 1.388 . S
C592 C593 1.390 . S
C593 C592 1.390 . S
C593 C594 1.394 . S
C593 C599 1.465 . S
C594 C589 1.399 . S
C594 C593 1.394 . S
C594 C595 1.516 . S
C595 C594 1.516 . S
C595 C596 1.502 . S
C595 C597 1.561 . S
C595 C598 1.526 . S
C596 H580 0.959 . S
C596 H581 0.959 . S
C596 H582 0.961 . S
C596 C595 1.502 . S
C597 H583 0.960 . S
C597 H584 0.961 . S
C597 H585 0.959 . S
C597 C595 1.561 . S
C598 C595 1.526 . S
C598 C599 1.396 . S
C598 C603 1.390 . S
C599 C593 1.465 . S
C599 C598 1.396 . S
C599 C600 1.399 . S
C600 H586 0.929 1_455 S
C600 C599 1.399 . S
C600 C601 1.385 . S
C601 H587 0.931 1_455 S
C601 C600 1.385 . S
C601 C602 1.389 . S
C602 C601 1.389 . S
C602 C603 1.387 . S
C603 H588 0.930 . S
C603 C598 1.390 . S
C603 C602 1.387 . S
H604 C616 0.930 . S
H605 C618 0.930 . S
H606 C619 0.929 . S
H607 C623 0.959 1_545 S
H608 C623 0.959 . S
H609 C623 0.961 . S
H610 C624 0.960 . S
H611 C624 0.961 . S
H612 C624 0.959 . S
H613 C627 0.929 . S
H614 C628 0.931 . S
H615 C630 0.930 . S
C616 H604 0.930 . S
C616 C617 1.399 . S
C616 C621 1.399 . S
C617 C616 1.399 . S
C617 C618 1.376 . S
C618 H605 0.930 . S
C618 C617 1.376 . S
C618 C619 1.389 1_556 S
C619 H606 0.929 . S
C619 C618 1.389 1_554 S
C619 C620 1.390 1_554 S
C620 C619 1.390 1_556 S
C620 C621 1.394 . S
C620 C626 1.465 . S
C621 C616 1.399 . S
C621 C620 1.394 . S
C621 C622 1.516 . S
C622 C621 1.516 . S
C622 C623 1.502 . S
C622 C624 1.561 . S
C622 C625 1.526 . S
C623 H607 0.959 1_565 S
C623 H608 0.959 . S
C623 H609 0.961 . S
C623 C622 1.502 . S
C624 H610 0.960 . S
C624 H611 0.961 . S
C624 H612 0.959 . S
C624 C622 1.561 . S
C625 C622 1.526 . S
C625 C626 1.396 . S
C625 C630 1.390 . S
C626 C620 1.465 . S
C626 C625 1.396 . S
C626 C627 1.399 1_566 S
C627 H613 0.929 . S
C627 C626 1.399 1_544 S
C627 C628 1.385 . S
C628 H614 0.931 . S
C628 C627 1.385 . S
C628 C629 1.391 . S
C629 C628 1.391 . S
C629 C630 1.385 1_544 S
C630 H615 0.930 . S
C630 C625 1.390 . S
C630 C629 1.385 1_566 S
H631 C643 0.930 . S
H632 C645 0.930 . S
H633 C646 0.930 . S
H634 C650 0.959 . S
H635 C650 0.959 . S
H636 C650 0.961 . S
H637 C651 0.960 . S
H638 C651 0.961 . S
H639 C651 0.959 . S
H640 C654 0.929 . S
H641 C655 0.931 . S
H642 C657 0.930 . S
C643 H631 0.930 . S
C643 C644 1.399 . S
C643 C648 1.399 . S
C644 C643 1.399 . S
C644 C645 1.376 . S
C645 H632 0.930 . S
C645 C644 1.376 . S
C645 C646 1.388 . S
C646 H633 0.930 . S
C646 C645 1.388 . S
C646 C647 1.390 . S
C647 C646 1.390 . S
C647 C648 1.394 . S
C647 C653 1.465 . S
C648 C643 1.399 . S
C648 C647 1.394 . S
C648 C649 1.516 . S
C649 C648 1.516 . S
C649 C650 1.502 . S
C649 C651 1.561 . S
C649 C652 1.526 . S
C650 H634 0.959 . S
C650 H635 0.959 . S
C650 H636 0.961 . S
C650 C649 1.502 . S
C651 H637 0.960 . S
C651 H638 0.961 . S
C651 H639 0.959 . S
C651 C649 1.561 . S
C652 C649 1.526 . S
C652 C653 1.396 . S
C652 C657 1.390 . S
C653 C647 1.465 . S
C653 C652 1.396 . S
C653 C654 1.399 . S
C654 H640 0.929 . S
C654 C653 1.399 . S
C654 C655 1.385 . S
C655 H641 0.931 . S
C655 C654 1.385 . S
C655 C656 1.389 . S
C656 C655 1.389 . S
C656 C657 1.387 . S
C657 H642 0.930 . S
C657 C652 1.390 . S
C657 C656 1.387 . S
H658 C670 0.930 . S
H659 C672 0.930 . S
H660 C673 0.930 . S
H661 C677 0.959 . S
H662 C677 0.959 . S
H663 C677 0.961 . S
H664 C678 0.960 . S
H665 C678 0.961 . S
H666 C678 0.959 . S
H667 C681 0.929 . S
H668 C682 0.931 . S
H669 C684 0.930 . S
C670 H658 0.930 . S
C670 C671 1.399 . S
C670 C675 1.399 . S
C671 C670 1.399 . S
C671 C672 1.376 . S
C672 H659 0.930 . S
C672 C671 1.376 . S
C672 C673 1.388 . S
C673 H660 0.930 . S
C673 C672 1.388 . S
C673 C674 1.390 . S
C674 C673 1.390 . S
C674 C675 1.394 . S
C674 C680 1.465 . S
C675 C670 1.399 . S
C675 C674 1.394 . S
C675 C676 1.516 . S
C676 C675 1.516 . S
C676 C677 1.502 . S
C676 C678 1.561 . S
C676 C679 1.526 . S
C677 H661 0.959 . S
C677 H662 0.959 . S
C677 H663 0.961 . S
C677 C676 1.502 . S
C678 H664 0.960 . S
C678 H665 0.961 . S
C678 H666 0.959 . S
C678 C676 1.561 . S
C679 C676 1.526 . S
C679 C680 1.396 . S
C679 C684 1.390 . S
C680 C674 1.465 . S
C680 C679 1.396 . S
C680 C681 1.399 . S
C681 H667 0.929 . S
C681 C680 1.399 . S
C681 C682 1.385 . S
C682 H668 0.931 . S
C682 C681 1.385 . S
C682 C683 1.389 . S
C683 C682 1.389 . S
C683 C684 1.387 . S
C684 H669 0.930 . S
C684 C679 1.390 . S
C684 C683 1.387 . S
H685 C697 0.930 . S
H686 C699 0.930 . S
H687 C700 0.930 . S
H688 C704 0.959 . S
H689 C704 0.959 . S
H690 C704 0.961 . S
H691 C705 0.960 . S
H692 C705 0.961 . S
H693 C705 0.959 . S
H694 C708 0.929 . S
H695 C709 0.931 . S
H696 C711 0.930 . S
C697 H685 0.930 . S
C697 C698 1.399 . S
C697 C702 1.399 . S
C698 C697 1.399 . S
C698 C699 1.376 . S
C699 H686 0.930 . S
C699 C698 1.376 . S
C699 C700 1.388 . S
C700 H687 0.930 . S
C700 C699 1.388 . S
C700 C701 1.390 . S
C701 C700 1.390 . S
C701 C702 1.394 . S
C701 C707 1.465 . S
C702 C697 1.399 . S
C702 C701 1.394 . S
C702 C703 1.516 . S
C703 C702 1.516 . S
C703 C704 1.502 . S
C703 C705 1.561 . S
C703 C706 1.526 . S
C704 H688 0.959 . S
C704 H689 0.959 . S
C704 H690 0.961 . S
C704 C703 1.502 . S
C705 H691 0.960 . S
C705 H692 0.961 . S
C705 H693 0.959 . S
C705 C703 1.561 . S
C706 C703 1.526 . S
C706 C707 1.396 . S
C706 C711 1.390 . S
C707 C701 1.465 . S
C707 C706 1.396 . S
C707 C708 1.399 . S
C708 H694 0.929 . S
C708 C707 1.399 . S
C708 C709 1.385 . S
C709 H695 0.931 . S
C709 C708 1.385 . S
C709 C710 1.389 . S
C710 C709 1.389 . S
C710 C711 1.387 . S
C711 H696 0.930 . S
C711 C706 1.390 . S
C711 C710 1.387 . S
H712 C724 0.930 . S
H713 C726 0.930 . S
H714 C727 0.930 . S
H715 C731 0.959 . S
H716 C731 0.959 . S
H717 C731 0.961 . S
H718 C732 0.960 . S
H719 C732 0.961 . S
H720 C732 0.959 . S
H721 C735 0.929 1_554 S
H722 C736 0.931 1_455 S
H723 C738 0.930 . S
C724 H712 0.930 . S
C724 C725 1.399 . S
C724 C729 1.399 . S
C725 C724 1.399 . S
C725 C726 1.376 . S
C726 H713 0.930 . S
C726 C725 1.376 . S
C726 C727 1.388 . S
C727 H714 0.930 . S
C727 C726 1.388 . S
C727 C728 1.390 . S
C728 C727 1.390 . S
C728 C729 1.394 . S
C728 C734 1.465 . S
C729 C724 1.399 . S
C729 C728 1.394 . S
C729 C730 1.516 . S
C730 C729 1.516 . S
C730 C731 1.502 . S
C730 C732 1.561 . S
C730 C733 1.526 . S
C731 H715 0.959 . S
C731 H716 0.959 . S
C731 H717 0.961 . S
C731 C730 1.502 . S
C732 H718 0.960 . S
C732 H719 0.961 . S
C732 H720 0.959 . S
C732 C730 1.561 . S
C733 C730 1.526 . S
C733 C734 1.396 . S
C733 C738 1.390 . S
C734 C728 1.465 . S
C734 C733 1.396 . S
C734 C735 1.399 . S
C735 H721 0.929 1_556 S
C735 C734 1.399 . S
C735 C736 1.385 1_556 S
C736 H722 0.931 1_655 S
C736 C735 1.385 1_554 S
C736 C737 1.389 1_554 S
C737 C736 1.389 1_556 S
C737 C738 1.387 . S
C738 H723 0.930 . S
C738 C733 1.390 . S
C738 C737 1.387 . S
H739 C751 0.930 . S
H740 C753 0.930 . S
H741 C754 0.930 . S
H742 C758 0.959 . S
H743 C758 0.959 . S
H744 C758 0.961 . S
H745 C759 0.960 . S
H746 C759 0.961 . S
H747 C759 0.959 . S
H748 C762 0.929 . S
H749 C763 0.931 . S
H750 C765 0.930 . S
C751 H739 0.930 . S
C751 C752 1.399 . S
C751 C756 1.399 . S
C752 C751 1.399 . S
C752 C753 1.376 . S
C753 H740 0.930 . S
C753 C752 1.376 . S
C753 C754 1.388 . S
C754 H741 0.930 . S
C754 C753 1.388 . S
C754 C755 1.390 . S
C755 C754 1.390 . S
C755 C756 1.394 . S
C755 C761 1.465 . S
C756 C751 1.399 . S
C756 C755 1.394 . S
C756 C757 1.516 . S
C757 C756 1.516 . S
C757 C758 1.502 . S
C757 C759 1.561 . S
C757 C760 1.526 . S
C758 H742 0.959 . S
C758 H743 0.959 . S
C758 H744 0.961 . S
C758 C757 1.502 . S
C759 H745 0.960 . S
C759 H746 0.961 . S
C759 H747 0.959 . S
C759 C757 1.561 . S
C760 C757 1.526 . S
C760 C761 1.396 . S
C760 C765 1.390 . S
C761 C755 1.465 . S
C761 C760 1.396 . S
C761 C762 1.399 . S
C762 H748 0.929 . S
C762 C761 1.399 . S
C762 C763 1.385 . S
C763 H749 0.931 . S
C763 C762 1.385 . S
C763 C764 1.389 . S
C764 C763 1.389 . S
C764 C765 1.387 . S
C765 H750 0.930 . S
C765 C760 1.390 . S
C765 C764 1.387 . S
H766 C778 0.930 . S
H767 C780 0.930 . S
H768 C781 0.930 . S
H769 C785 0.959 . S
H770 C785 0.959 . S
H771 C785 0.961 . S
H772 C786 0.960 . S
H773 C786 0.961 . S
H774 C786 0.959 . S
H775 C789 0.929 . S
H776 C790 0.931 . S
H777 C792 0.930 . S
C778 H766 0.930 . S
C778 C779 1.399 . S
C778 C783 1.399 . S
C779 C778 1.399 . S
C779 C780 1.376 . S
C780 H767 0.930 . S
C780 C779 1.376 . S
C780 C781 1.388 . S
C781 H768 0.930 . S
C781 C780 1.388 . S
C781 C782 1.390 . S
C782 C781 1.390 . S
C782 C783 1.394 . S
C782 C788 1.465 . S
C783 C778 1.399 . S
C783 C782 1.394 . S
C783 C784 1.516 . S
C784 C783 1.516 . S
C784 C785 1.502 . S
C784 C786 1.561 . S
C784 C787 1.526 . S
C785 H769 0.959 . S
C785 H770 0.959 . S
C785 H771 0.961 . S
C785 C784 1.502 . S
C786 H772 0.960 . S
C786 H773 0.961 . S
C786 H774 0.959 . S
C786 C784 1.561 . S
C787 C784 1.526 . S
C787 C788 1.396 . S
C787 C792 1.390 . S
C788 C782 1.465 . S
C788 C787 1.396 . S
C788 C789 1.399 . S
C789 H775 0.929 . S
C789 C788 1.399 . S
C789 C790 1.385 . S
C790 H776 0.931 . S
C790 C789 1.385 . S
C790 C791 1.389 . S
C791 C790 1.389 . S
C791 C792 1.387 . S
C792 H777 0.930 . S
C792 C787 1.390 . S
C792 C791 1.387 . S
H793 C805 0.930 . S
H794 C807 0.930 . S
H795 C808 0.930 . S
H796 C812 0.959 . S
H797 C812 0.959 . S
H798 C812 0.961 . S
H799 C813 0.960 . S
H800 C813 0.961 . S
H801 C813 0.959 . S
H802 C816 0.929 . S
H803 C817 0.931 . S
H804 C819 0.930 . S
C805 H793 0.930 . S
C805 C806 1.399 . S
C805 C810 1.399 . S
C806 C805 1.399 . S
C806 C807 1.376 . S
C807 H794 0.930 . S
C807 C806 1.376 . S
C807 C808 1.388 . S
C808 H795 0.930 . S
C808 C807 1.388 . S
C808 C809 1.390 . S
C809 C808 1.390 . S
C809 C810 1.394 . S
C809 C815 1.465 . S
C810 C805 1.399 . S
C810 C809 1.394 . S
C810 C811 1.516 . S
C811 C810 1.516 . S
C811 C812 1.502 . S
C811 C813 1.561 . S
C811 C814 1.526 . S
C812 H796 0.959 . S
C812 H797 0.959 . S
C812 H798 0.961 . S
C812 C811 1.502 . S
C813 H799 0.960 . S
C813 H800 0.961 . S
C813 H801 0.959 . S
C813 C811 1.561 . S
C814 C811 1.526 . S
C814 C815 1.396 . S
C814 C819 1.390 . S
C815 C809 1.465 . S
C815 C814 1.396 . S
C815 C816 1.399 . S
C816 H802 0.929 . S
C816 C815 1.399 . S
C816 C817 1.385 . S
C817 H803 0.931 . S
C817 C816 1.385 . S
C817 C818 1.389 . S
C818 C817 1.389 . S
C818 C819 1.387 . S
C819 H804 0.930 . S
C819 C814 1.390 . S
C819 C818 1.387 . S
C185 C4 1.752 . S
C197 C106 1.738 . S
C212 C16 1.758 . S
C224 C123 1.695 1_565 S
C251 C146 0.873 . S
C239 C32 1.079 . S
C266 C43 1.613 . S
C278 C167 1.248 . S
C305 C126 2.128 . S
C293 C5 2.165 . S
C332 C103 1.433 1_565 S
C320 C21 1.447 . S
C359 C165 1.221 . S
C347 C27 1.215 . S
C386 C144 1.221 . S
C374 C37 1.347 . S
C401 C10 1.706 . S
C413 C168 1.692 . S
C440 C125 1.356 1_556 S
C428 C26 1.667 . S
C455 C38 1.453 . S
C467 C101 1.325 . S
C482 C15 1.621 . S
C494 C147 1.614 . S
C521 C105 1.802 1_565 S
C509 C48 1.914 . S
C536 C59 1.432 . S
C548 C124 1.431 . S
C563 C76 1.362 . S
C575 C143 1.163 . S
C590 C87 1.379 . S
C602 C164 1.042 . S
C617 C54 1.553 . S
C629 C127 1.529 . S
C656 C102 2.088 . S
C644 C60 2.108 . S
C683 C166 1.122 . S
C671 C71 1.154 . S
C710 C145 1.388 . S
C698 C82 1.364 . S
C725 C49 1.801 . S
C737 C169 1.765 . S
C764 C122 0.973 . S
C752 C70 1.210 . S
C791 C104 1.250 . S
C779 C81 1.495 . S
C806 C65 1.499 . S
C818 C148 1.485 . S
