# Generated by pormake.
# Topology zzz, (3,6)-cn, num edge types: 1
# Building blocks:
#     Node 0, Type 0, BuildingBlock: VETTIZ_charged_linker_0, # of connection points: 3
#     Node 1, Type 0, BuildingBlock: VETTIZ_charged_linker_0, # of connection points: 3
#     Node 2, Type 0, BuildingBlock: VETTIZ_charged_linker_0, # of connection points: 3
#     Node 3, Type 0, BuildingBlock: VETTIZ_charged_linker_0, # of connection points: 3
#     Node 4, Type 0, BuildingBlock: VETTIZ_charged_linker_0, # of connection points: 3
#     Node 5, Type 0, BuildingBlock: VETTIZ_charged_linker_0, # of connection points: 3
#     Node 6, Type 0, BuildingBlock: VETTIZ_charged_linker_0, # of connection points: 3
#     Node 7, Type 0, BuildingBlock: VETTIZ_charged_linker_0, # of connection points: 3
#     Node 8, Type 1, BuildingBlock: KUMBUR_clean_sbu_0, # of connection points: 6
#     Node 9, Type 1, BuildingBlock: KUMBUR_clean_sbu_0, # of connection points: 6
#     Node 10, Type 1, BuildingBlock: KUMBUR_clean_sbu_0, # of connection points: 6
#     Node 11, Type 1, BuildingBlock: KUMBUR_clean_sbu_0, # of connection points: 6
#     Edge 12, Type (0, 1), BuildingBlock: UVAHIK_clean_linker_0, # of connection points: 2
#     Edge 13, Type (0, 1), BuildingBlock: UVAHIK_clean_linker_0, # of connection points: 2
#     Edge 14, Type (0, 1), BuildingBlock: UVAHIK_clean_linker_0, # of connection points: 2
#     Edge 15, Type (0, 1), BuildingBlock: UVAHIK_clean_linker_0, # of connection points: 2
#     Edge 16, Type (0, 1), BuildingBlock: UVAHIK_clean_linker_0, # of connection points: 2
#     Edge 17, Type (0, 1), BuildingBlock: UVAHIK_clean_linker_0, # of connection points: 2
#     Edge 18, Type (0, 1), BuildingBlock: UVAHIK_clean_linker_0, # of connection points: 2
#     Edge 19, Type (0, 1), BuildingBlock: UVAHIK_clean_linker_0, # of connection points: 2
#     Edge 20, Type (0, 1), BuildingBlock: UVAHIK_clean_linker_0, # of connection points: 2
#     Edge 21, Type (0, 1), BuildingBlock: UVAHIK_clean_linker_0, # of connection points: 2
#     Edge 22, Type (0, 1), BuildingBlock: UVAHIK_clean_linker_0, # of connection points: 2
#     Edge 23, Type (0, 1), BuildingBlock: UVAHIK_clean_linker_0, # of connection points: 2
#     Edge 24, Type (0, 1), BuildingBlock: UVAHIK_clean_linker_0, # of connection points: 2
#     Edge 25, Type (0, 1), BuildingBlock: UVAHIK_clean_linker_0, # of connection points: 2
#     Edge 26, Type (0, 1), BuildingBlock: UVAHIK_clean_linker_0, # of connection points: 2
#     Edge 27, Type (0, 1), BuildingBlock: UVAHIK_clean_linker_0, # of connection points: 2
#     Edge 28, Type (0, 1), BuildingBlock: UVAHIK_clean_linker_0, # of connection points: 2
#     Edge 29, Type (0, 1), BuildingBlock: UVAHIK_clean_linker_0, # of connection points: 2
#     Edge 30, Type (0, 1), BuildingBlock: UVAHIK_clean_linker_0, # of connection points: 2
#     Edge 31, Type (0, 1), BuildingBlock: UVAHIK_clean_linker_0, # of connection points: 2
#     Edge 32, Type (0, 1), BuildingBlock: UVAHIK_clean_linker_0, # of connection points: 2
#     Edge 33, Type (0, 1), BuildingBlock: UVAHIK_clean_linker_0, # of connection points: 2
#     Edge 34, Type (0, 1), BuildingBlock: UVAHIK_clean_linker_0, # of connection points: 2
#     Edge 35, Type (0, 1), BuildingBlock: UVAHIK_clean_linker_0, # of connection points: 2
# Relax obj value: 0.280
# Max RMSD: 0.230
# Mean RMSD: 0.213
data_MOF--net-zzz--node1-KUMBUR_clean_sbu_0--node2-VETTIZ_charged_linker_0--edge1-UVAHIK_clean_linker_0
_symmetry_space_group_name_H-M    P1
_symmetry_Int_Tables_number       1
_symmetry_cell_setting            triclinic
loop_
_symmetry_equiv_pos_as_xyz
'x, y, z'
_cell_length_a     70.500479
_cell_length_b     70.458932
_cell_length_c     24.669471
_cell_angle_alpha  90.544962
_cell_angle_beta   90.064363
_cell_angle_gamma 89.933931
loop_
_atom_site_label
_atom_site_type_symbol
_atom_site_fract_x
_atom_site_fract_y
_atom_site_fract_z
_atom_type_partial_charge
C0 C 0.78667 0.53731 0.21283 0.0
C1 C 0.80386 0.54484 0.23385 0.0
C2 C 0.81146 0.56126 0.21054 0.0
C3 C 0.78639 0.56169 0.1436 0.0
C4 C 0.77793 0.54629 0.16796 0.0
C5 C 0.75909 0.5416 0.14063 0.0
H6 H 0.70022 0.55884 0.92349 0.0
C7 C 0.77517 0.56702 0.09562 0.0
C8 C 0.75881 0.55559 0.09334 0.0
H9 H 0.68761 0.52223 0.0582 0.0
H10 H 0.71856 0.52943 0.09782 0.0
H11 H 0.7162 0.59312 0.99366 0.0
H12 H 0.74168 0.54632 0.90813 0.0
H13 H 0.75796 0.56497 0.90234 0.0
H14 H 0.73447 0.56746 0.8739 0.0
H15 H 0.71679 0.59105 0.92109 0.0
H16 H 0.73582 0.60215 0.95835 0.0
C17 C 0.74306 0.54577 0.18157 0.0
C18 C 0.75944 0.52081 0.12073 0.0
C19 C 0.80581 0.611 0.96022 0.0
C20 C 0.80152 0.61525 0.90608 0.0
C21 C 0.78362 0.61018 0.88512 0.0
C22 C 0.77067 0.60001 0.91674 0.0
C23 C 0.77582 0.59452 0.96952 0.0
C24 C 0.79299 0.60039 0.99067 0.0
C25 C 0.79694 0.592 0.04526 0.0
C26 C 0.77944 0.57975 0.05309 0.0
C27 C 0.76711 0.58141 0.00898 0.0
C28 C 0.7979 0.60851 0.08733 0.0
C29 C 0.81536 0.57995 0.04039 0.0
C30 C 0.70372 0.55259 0.96217 0.0
C31 C 0.69103 0.5403 0.98801 0.0
C32 C 0.69693 0.53188 0.03721 0.0
C33 C 0.71483 0.53623 0.06055 0.0
C34 C 0.72696 0.54922 0.03471 0.0
C35 C 0.72114 0.55701 0.98615 0.0
C36 C 0.73526 0.57056 0.96328 0.0
C37 C 0.75026 0.57049 0.00701 0.0
C38 C 0.7458 0.55772 0.04892 0.0
C39 C 0.72562 0.59027 0.95833 0.0
C40 C 0.74272 0.56208 0.90895 0.0
H41 H 0.80977 0.58191 0.14988 0.0
H42 H 0.78028 0.52493 0.2309 0.0
H43 H 0.77241 0.51803 0.09627 0.0
H44 H 0.74717 0.51734 0.0947 0.0
H45 H 0.75946 0.51093 0.15555 0.0
H46 H 0.7455 0.55959 0.20257 0.0
H47 H 0.74241 0.53456 0.2129 0.0
H48 H 0.72905 0.54695 0.16202 0.0
H49 H 0.81964 0.61428 0.97703 0.0
H50 H 0.78006 0.61327 0.84339 0.0
H51 H 0.75749 0.59613 0.89795 0.0
H52 H 0.78989 0.62119 0.07346 0.0
H53 H 0.81276 0.61305 0.09479 0.0
H54 H 0.7912 0.60478 0.12643 0.0
H55 H 0.816 0.5725 1.00044 0.0
H56 H 0.8164 0.56851 0.07034 0.0
H57 H 0.82818 0.58902 0.04394 0.0
H58 H 0.82453 0.56735 0.22606 0.0
C59 C 0.80287 0.56969 0.166 0.0
C60 C 0.91346 0.79123 0.90553 0.0
C61 C 0.91008 0.81095 0.90228 0.0
C62 C 0.91431 0.8222 0.94867 0.0
C63 C 0.92888 0.79535 0.99286 0.0
C64 C 0.92346 0.78394 0.94993 0.0
C65 C 0.93176 0.76433 0.95374 0.0
H66 H 0.9995 0.70602 0.04757 0.0
C67 C 0.94194 0.78435 0.02758 0.0
C68 C 0.94391 0.76626 1.00469 0.0
H69 H 0.9558 0.69533 0.92803 0.0
H70 H 0.9413 0.72519 0.94905 0.0
H71 H 0.00575 0.75367 0.02937 0.0
H72 H 0.96609 0.72703 0.14016 0.0
H73 H 0.98097 0.74438 0.17089 0.0
H74 H 0.99119 0.7227 0.14542 0.0
H75 H 0.01399 0.73776 0.08103 0.0
H76 H 0.00749 0.76174 0.09782 0.0
C77 C 0.94393 0.76083 0.90213 0.0
C78 C 0.9152 0.75009 0.96133 0.0
C79 C 0.97051 0.81787 0.18954 0.0
C80 C 0.98461 0.81373 0.22763 0.0
C81 C 0.99442 0.79624 0.22228 0.0
C82 C 0.98966 0.783 0.18055 0.0
C83 C 0.97512 0.78738 0.14325 0.0
C84 C 0.96615 0.80482 0.14828 0.0
C85 C 0.9522 0.80837 0.10395 0.0
C86 C 0.95296 0.78972 0.07329 0.0
C87 C 0.96649 0.77716 0.09546 0.0
C88 C 0.95977 0.82517 0.06961 0.0
C89 C 0.93245 0.81179 0.12993 0.0
C90 C 0.98686 0.71035 0.02602 0.0
C91 C 0.97896 0.6985 0.98489 0.0
C92 C 0.96223 0.70426 0.95899 0.0
C93 C 0.95385 0.72169 0.97119 0.0
C94 C 0.96228 0.73389 0.00942 0.0
C95 C 0.97799 0.72802 0.03832 0.0
C96 C 0.98325 0.74273 0.08165 0.0
C97 C 0.96886 0.75865 0.07093 0.0
C98 C 0.95703 0.75323 0.02729 0.0
C99 C 1.00378 0.74936 0.07225 0.0
C100 C 0.98031 0.73379 0.13777 0.0
H101 H 0.92648 0.82399 0.02674 0.0
H102 H 0.90971 0.78166 0.8728 0.0
H103 H 0.90209 0.75721 0.97632 0.0
H104 H 0.91847 0.73928 0.99238 0.0
H105 H 0.91153 0.74281 0.92259 0.0
H106 H 0.95232 0.7737 0.89219 0.0
H107 H 0.93481 0.75742 0.86661 0.0
H108 H 0.95449 0.74943 0.90629 0.0
H109 H 0.96313 0.83137 0.19106 0.0
H110 H 0.00555 0.79272 0.25074 0.0
H111 H 0.99751 0.76995 0.17839 0.0
H112 H 0.97529 0.82735 0.0751 0.0
H113 H 0.95267 0.83872 0.08091 0.0
H114 H 0.95811 0.82266 0.02548 0.0
H115 H 0.93009 0.80189 0.16415 0.0
H116 H 0.92059 0.80912 0.10156 0.0
H117 H 0.9312 0.8265 0.14613 0.0
H118 H 0.91204 0.83735 0.94947 0.0
C119 C 0.92331 0.81445 0.9939 0.0
C120 C 0.80883 0.98586 0.0602 0.0
C121 C 0.82074 0.9785 0.01861 0.0
C122 C 0.81463 0.96271 0.98826 0.0
C123 C 0.78426 0.96353 0.03322 0.0
C124 C 0.79062 0.97769 0.06769 0.0
C125 C 0.77579 0.98205 0.11103 0.0
H126 H 0.68517 0.9634 0.20317 0.0
C127 C 0.76442 0.95917 0.04601 0.0
C128 C 0.75923 0.96925 0.09328 0.0
H129 H 0.72587 1.00018 0.2813 0.0
H130 H 0.74874 0.99366 0.2087 0.0
H131 H 0.69026 0.9806 0.09595 0.0
H132 H 0.71282 0.92948 0.16169 0.0
H133 H 0.70466 0.92438 0.09541 0.0
H134 H 0.68836 0.93374 0.14512 0.0
H135 H 0.67831 0.95849 0.08607 0.0
H136 H 0.69551 0.96706 0.03797 0.0
C137 C 0.7705 1.00325 0.10863 0.0
C138 C 0.78393 0.97615 0.1664 0.0
C139 C 0.72383 0.93203 0.89541 0.0
C140 C 0.70407 0.93037 0.89026 0.0
C141 C 0.69286 0.93058 0.93758 0.0
C142 C 0.701 0.93454 0.98825 0.0
C143 C 0.72045 0.93871 0.99153 0.0
C144 C 0.73168 0.93651 0.94611 0.0
C145 C 0.75205 0.94149 0.95708 0.0
C146 C 0.75068 0.9491 0.01512 0.0
C147 C 0.73219 0.94738 0.03487 0.0
C148 C 0.75808 0.95702 0.91645 0.0
C149 C 0.76397 0.92297 0.9529 0.0
C150 C 0.69915 0.96975 0.20544 0.0
C151 C 0.70388 0.98186 0.24867 0.0
C152 C 0.72197 0.99055 0.2487 0.0
C153 C 0.73524 0.98665 0.20682 0.0
C154 C 0.73026 0.9742 0.16401 0.0
C155 C 0.71223 0.96635 0.16383 0.0
C156 C 0.70812 0.95519 0.11333 0.0
C157 C 0.72711 0.95606 0.08492 0.0
C158 C 0.74032 0.96722 0.11418 0.0
C159 C 0.69221 0.9657 0.08163 0.0
C160 C 0.70309 0.9346 0.1294 0.0
H161 H 0.7928 0.94324 0.97096 0.0
H162 H 0.8135 0.99758 0.08553 0.0
H163 H 0.79014 0.96165 0.16378 0.0
H164 H 0.77301 0.97566 0.19829 0.0
H165 H 0.7953 0.98608 0.17961 0.0
H166 H 0.76699 0.00731 0.06633 0.0
H167 H 0.7825 0.01224 0.12274 0.0
H168 H 0.75796 0.00666 0.1336 0.0
H169 H 0.73281 0.93129 0.85987 0.0
H170 H 0.67758 0.92921 0.93507 0.0
H171 H 0.69164 0.93519 0.02242 0.0
H172 H 0.74771 0.96894 0.91693 0.0
H173 H 0.75879 0.9512 0.87451 0.0
H174 H 0.77206 0.96324 0.92529 0.0
H175 H 0.75504 0.91005 0.94797 0.0
H176 H 0.77241 0.92054 0.99024 0.0
H177 H 0.7737 0.92323 0.91751 0.0
H178 H 0.82368 0.95657 0.95717 0.0
C179 C 0.79664 0.9551 0.99579 0.0
C180 C 0.54049 0.72697 0.22092 0.0
C181 C 0.54897 0.7102 0.24077 0.0
C182 C 0.56525 0.70299 0.2149 0.0
C183 C 0.56385 0.72794 0.14848 0.0
C184 C 0.54848 0.73586 0.17509 0.0
C185 C 0.54245 0.75431 0.14877 0.0
H186 H 0.5577 0.81785 0.94412 0.0
C187 C 0.56833 0.73956 0.10088 0.0
C188 C 0.55624 0.75546 0.10103 0.0
H189 H 0.51585 0.82277 0.07075 0.0
H190 H 0.52624 0.79251 0.10821 0.0
H191 H 0.59293 0.80017 0.01354 0.0
H192 H 0.54764 0.77787 0.91631 0.0
H193 H 0.56529 0.7604 0.91202 0.0
H194 H 0.56996 0.78392 0.88671 0.0
H195 H 0.59062 0.803 0.94152 0.0
H196 H 0.60238 0.78264 0.96959 0.0
C197 C 0.54555 0.77061 0.19008 0.0
C198 C 0.52169 0.75232 0.12963 0.0
C199 C 0.61028 0.71116 0.955 0.0
C200 C 0.61358 0.71648 0.9011 0.0
C201 C 0.6093 0.73516 0.88531 0.0
C202 C 0.60038 0.74779 0.92146 0.0
C203 C 0.59524 0.74149 0.9734 0.0
C204 C 0.60079 0.72368 0.99 0.0
C205 C 0.59314 0.71885 0.04502 0.0
C206 C 0.58106 0.73625 0.05724 0.0
C207 C 0.58247 0.74947 0.01548 0.0
C208 C 0.61016 0.7171 0.08469 0.0
C209 C 0.58097 0.70058 0.03913 0.0
C210 C 0.55102 0.81259 0.98055 0.0
C211 C 0.53632 0.82281 1.00533 0.0
C212 C 0.5274 0.81516 0.05143 0.0
C213 C 0.53349 0.79768 0.0731 0.0
C214 C 0.54841 0.78763 0.04775 0.0
C215 C 0.55663 0.79514 1.00173 0.0
C216 C 0.57092 0.78211 0.97635 0.0
C217 C 0.57107 0.76605 0.01658 0.0
C218 C 0.55787 0.76913 0.0587 0.0
C219 C 0.59028 0.79246 0.9747 0.0
C220 C 0.56324 0.77577 0.91986 0.0
H221 H 0.58492 0.70527 0.15123 0.0
H222 H 0.52816 0.73301 0.24076 0.0
H223 H 0.51956 0.73847 0.10846 0.0
H224 H 0.51759 0.76332 0.10038 0.0
H225 H 0.51179 0.75297 0.1646 0.0
H226 H 0.55954 0.76909 0.21051 0.0
H227 H 0.53438 0.77051 0.22183 0.0
H228 H 0.54573 0.78469 0.17102 0.0
H229 H 0.61318 0.69681 0.96806 0.0
H230 H 0.61182 0.73958 0.844 0.0
H231 H 0.59697 0.76163 0.90659 0.0
H232 H 0.62306 0.72433 0.06917 0.0
H233 H 0.61399 0.70202 0.09156 0.0
H234 H 0.60728 0.72409 0.12431 0.0
H235 H 0.57204 0.70119 1.00197 0.0
H236 H 0.57094 0.69845 0.07267 0.0
H237 H 0.5901 0.68776 0.03593 0.0
H238 H 0.57201 0.69017 0.22938 0.0
C239 C 0.57271 0.71175 0.16928 0.0
C240 C 0.31069 0.48466 0.15797 0.0
C241 C 0.3207 0.47792 0.2037 0.0
C242 C 0.31288 0.46316 0.23423 0.0
C243 C 0.28556 0.46178 0.17481 0.0
C244 C 0.29305 0.47628 0.14411 0.0
C245 C 0.27991 0.48126 0.09739 0.0
H246 H 0.199 0.45777 0.95547 0.0
C247 C 0.26749 0.45561 0.15017 0.0
C248 C 0.26408 0.4666 0.1037 0.0
H249 H 0.23462 0.50629 0.92618 0.0
H250 H 0.25565 0.49672 1.0001 0.0
H251 H 0.23235 0.42684 0.98399 0.0
H252 H 0.19534 0.46457 0.06956 0.0
H253 H 0.1996 0.44674 0.11679 0.0
H254 H 0.18823 0.44082 0.05329 0.0
H255 H 0.20726 0.42348 0.99147 0.0
H256 H 0.2239 0.41426 0.04031 0.0
C257 C 0.2907 0.47867 0.04352 0.0
C258 C 0.27258 0.50168 0.1067 0.0
C259 C 0.22552 0.40902 0.25012 0.0
C260 C 0.20746 0.40158 0.23784 0.0
C261 C 0.20062 0.40298 0.18426 0.0
C262 C 0.21056 0.41328 0.14541 0.0
C263 C 0.22745 0.42251 0.16018 0.0
C264 C 0.23523 0.41944 0.21069 0.0
C265 C 0.25367 0.42994 0.21812 0.0
C266 C 0.25453 0.44125 0.1658 0.0
C267 C 0.23904 0.43694 0.13254 0.0
C268 C 0.26986 0.41503 0.22173 0.0
C269 C 0.25184 0.44307 0.26863 0.0
C270 C 0.21153 0.46618 0.96405 0.0
C271 C 0.21532 0.48256 0.93431 0.0
C272 C 0.23143 0.4935 0.9484 0.0
C273 C 0.24356 0.48796 0.99136 0.0
C274 C 0.23924 0.47159 0.02145 0.0
C275 C 0.22327 0.46122 0.00735 0.0
C276 C 0.21924 0.44549 0.04585 0.0
C277 C 0.23553 0.4477 0.08535 0.0
C278 C 0.24763 0.46278 0.07102 0.0
C279 C 0.22059 0.42645 0.01403 0.0
C280 C 0.19961 0.4494 0.07269 0.0
H281 H 0.29041 0.44397 0.24545 0.0
H282 H 0.31643 0.49606 0.13389 0.0
H283 H 0.26853 0.50392 0.14987 0.0
H284 H 0.25973 0.50479 0.0829 0.0
H285 H 0.28369 0.51224 0.09658 0.0
H286 H 0.29763 0.46449 0.04185 0.0
H287 H 0.3019 0.48964 0.03934 0.0
H288 H 0.28124 0.4795 0.00797 0.0
H289 H 0.23138 0.4078 0.29053 0.0
H290 H 0.18679 0.39748 0.17327 0.0
H291 H 0.2041 0.41457 0.10629 0.0
H292 H 0.26548 0.40093 0.20531 0.0
H293 H 0.27442 0.41286 0.26434 0.0
H294 H 0.28235 0.41902 0.1971 0.0
H295 H 0.23783 0.45037 0.26887 0.0
H296 H 0.26249 0.45452 0.26988 0.0
H297 H 0.25303 0.43482 0.30662 0.0
H298 H 0.32034 0.45783 0.2694 0.0
C299 C 0.2955 0.45507 0.22007 0.0
C300 C 0.10733 0.22682 0.26411 0.0
C301 C 0.11391 0.2081 0.2566 0.0
C302 C 0.11192 0.19952 0.20503 0.0
C303 C 0.09317 0.22619 0.17447 0.0
C304 C 0.09684 0.23548 0.2228 0.0
C305 C 0.08658 0.25418 0.22671 0.0
H306 H 0.0182 0.31398 0.14016 0.0
C307 C 0.07872 0.23725 0.14475 0.0
C308 C 0.07484 0.2537 0.17479 0.0
H309 H 0.05834 0.32085 0.27148 0.0
H310 H 0.07311 0.29139 0.24772 0.0
H311 H 0.05039 0.29443 0.04653 0.0
H312 H 0.01225 0.26561 0.15707 0.0
H313 H 0.01058 0.25745 0.08902 0.0
H314 H 1.0032 0.28121 0.10577 0.0
H315 H 0.02521 0.2986 0.04446 0.0
H316 H 0.0352 0.27749 0.01478 0.0
C317 C 0.10166 0.27023 0.22624 0.0
C318 C 0.07389 0.25388 0.27809 0.0
C319 C 0.04937 0.20605 0.9804 0.0
C320 C 0.03336 0.20936 0.94825 0.0
C321 C 0.02246 0.22588 0.95908 0.0
C322 C 0.02776 0.23886 1.00091 0.0
C323 C 0.04387 0.23507 0.03313 0.0
C324 C 0.05414 0.21869 0.02227 0.0
C325 C 0.06967 0.21538 0.06221 0.0
C326 C 0.0677 0.23269 0.09838 0.0
C327 C 0.05271 0.24461 0.08168 0.0
C328 C 0.0888 0.21544 0.0312 0.0
C329 C 0.06525 0.19661 0.09259 0.0
C330 C 0.03024 0.30898 0.16331 0.0
C331 C 0.03713 0.31971 0.20819 0.0
C332 C 0.05278 0.31285 0.23723 0.0
C333 C 0.06139 0.29569 0.22319 0.0
C334 C 0.05428 0.28484 0.17972 0.0
C335 C 0.03915 0.29147 0.14963 0.0
C336 C 0.03414 0.2775 0.10421 0.0
C337 C 0.0491 0.26188 0.11169 0.0
C338 C 0.06047 0.26637 0.15712 0.0
C339 C 0.03627 0.2875 0.04931 0.0
C340 C 0.01391 0.27003 0.11416 0.0
H341 H 0.10001 0.20082 0.12657 0.0
H342 H 0.10904 0.23401 0.30279 0.0
H343 H 0.06692 0.23981 0.28234 0.0
H344 H 0.06217 0.26423 0.27715 0.0
H345 H 0.08242 0.25654 0.31528 0.0
H346 H 0.11546 0.26527 0.20936 0.0
H347 H 0.10449 0.27576 0.26777 0.0
H348 H 0.09744 0.28216 0.19985 0.0
H349 H 0.05773 0.19328 0.97462 0.0
H350 H 0.00994 0.22878 0.93509 0.0
H351 H 0.01907 0.25121 0.00715 0.0
H352 H 0.08872 0.22636 0.99888 0.0
H353 H 0.09155 0.20146 0.01151 0.0
H354 H 0.10099 0.21919 0.0574 0.0
H355 H 0.04998 0.1927 0.08981 0.0
H356 H 0.06794 0.19768 0.13669 0.0
H357 H 0.07351 0.18451 0.07563 0.0
H358 H 0.11682 0.18515 0.19764 0.0
C359 C 0.10174 0.20852 0.1639 0.0
C360 C 0.30023 0.03533 0.98283 0.0
C361 C 0.31849 0.04095 0.96525 0.0
C362 C 0.32722 0.05664 0.99019 0.0
C363 C 0.30059 0.0605 0.05117 0.0
C364 C 0.29143 0.04549 0.02596 0.0
C365 C 0.27207 0.04209 0.05145 0.0
H366 H 0.20726 0.07087 0.24466 0.0
C367 C 0.28851 0.06782 0.0955 0.0
C368 C 0.27144 0.05745 0.09587 0.0
H369 H 0.20027 0.02423 0.132 0.0
H370 H 0.23162 0.03059 0.09378 0.0
H371 H 0.24636 0.05941 0.27872 0.0
H372 H 0.22761 0.1008 0.16424 0.0
H373 H 0.2458 0.1113 0.20324 0.0
H374 H 0.22465 0.10298 0.23632 0.0
H375 H 0.24001 0.08297 0.29975 0.0
H376 H 0.26398 0.07687 0.28058 0.0
C377 C 0.27185 0.02195 0.07542 0.0
C378 C 0.2567 0.0452 0.00794 0.0
C379 C 0.31721 0.11455 0.22952 0.0
C380 C 0.31077 0.1219 0.27943 0.0
C381 C 0.2914 0.12013 0.29252 0.0
C382 C 0.27907 0.10981 0.2587 0.0
C383 C 0.28622 0.10094 0.21158 0.0
C384 C 0.30481 0.10402 0.19671 0.0
C385 C 0.31018 0.09315 0.14633 0.0
C386 C 0.29206 0.08209 0.13524 0.0
C387 C 0.27812 0.08672 0.17343 0.0
C388 C 0.32703 0.07987 0.16057 0.0
C389 C 0.31439 0.10773 0.10108 0.0
C390 C 0.21228 0.06219 0.2111 0.0
C391 C 0.20112 0.04732 0.19067 0.0
C392 C 0.20856 0.0359 0.14826 0.0
C393 C 0.22671 0.03964 0.1261 0.0
C394 C 0.23769 0.05472 0.14726 0.0
C395 C 0.23031 0.06547 0.18959 0.0
C396 C 0.244 0.07989 0.21099 0.0
C397 C 0.26064 0.07682 0.17332 0.0
C398 C 0.25714 0.0621 0.13535 0.0
C399 C 0.24883 0.07472 0.27061 0.0
C400 C 0.23512 0.09985 0.20383 0.0
H401 H 0.32612 0.07805 0.04993 0.0
H402 H 0.29315 0.02334 0.96395 0.0
H403 H 0.25919 0.05878 0.98644 0.0
H404 H 0.24233 0.04615 0.02535 0.0
H405 H 0.2569 0.03351 0.97738 0.0
H406 H 0.285 0.01935 0.09917 0.0
H407 H 0.27102 0.01103 0.04271 0.0
H408 H 0.25993 0.0198 0.10359 0.0
H409 H 0.33203 0.11545 0.21836 0.0
H410 H 0.28601 0.12588 0.33036 0.0
H411 H 0.26465 0.10842 0.27188 0.0
H412 H 0.32517 0.07377 0.20167 0.0
H413 H 0.34068 0.08772 0.16038 0.0
H414 H 0.32834 0.06745 0.13331 0.0
H415 H 0.30743 0.12165 0.10924 0.0
H416 H 0.30868 0.10316 0.06117 0.0
H417 H 0.32985 0.11042 0.09725 0.0
H418 H 0.34115 0.06123 0.97713 0.0
C419 C 0.31841 0.06643 0.03256 0.0
C420 C 0.47384 0.2913 0.93479 0.0
C421 C 0.46739 0.30904 0.91577 0.0
C422 C 0.45272 0.31843 0.94383 0.0
C423 C 0.45187 0.29355 0.01055 0.0
C424 C 0.46557 0.28363 0.98194 0.0
C425 C 0.46955 0.26456 0.00761 0.0
H426 H 0.45593 0.20648 0.22491 0.0
C427 C 0.44675 0.28263 0.05905 0.0
C428 C 0.45672 0.26533 0.05753 0.0
H429 H 0.48947 0.19394 0.08278 0.0
H430 H 0.48036 0.22429 0.04369 0.0
H431 H 0.46863 0.24911 0.23722 0.0
H432 H 0.42026 0.22252 0.16266 0.0
H433 H 0.4118 0.24326 0.19446 0.0
H434 H 0.42266 0.22495 0.23481 0.0
H435 H 0.44954 0.23924 0.27579 0.0
H436 H 0.44909 0.26347 0.25311 0.0
C437 C 0.49075 0.2637 0.02316 0.0
C438 C 0.4634 0.24881 0.9673 0.0
C439 C 0.40968 0.31578 0.20846 0.0
C440 C 0.4051 0.3106 0.26181 0.0
C441 C 0.40748 0.2915 0.27711 0.0
C442 C 0.41576 0.27826 0.2415 0.0
C443 C 0.42185 0.28416 0.19005 0.0
C444 C 0.41807 0.30244 0.17357 0.0
C445 C 0.42558 0.30629 0.11774 0.0
C446 C 0.43537 0.28757 0.10451 0.0
C447 C 0.43326 0.27476 0.14711 0.0
C448 C 0.43988 0.32297 0.1222 0.0
C449 C 0.40843 0.31006 0.07974 0.0
C450 C 0.46136 0.21024 0.18536 0.0
C451 C 0.47358 0.19794 0.15718 0.0
C452 C 0.48003 0.20323 0.1053 0.0
C453 C 0.47475 0.22083 0.08279 0.0
C454 C 0.46269 0.23313 0.1122 0.0
C455 C 0.45607 0.22749 0.16231 0.0
C456 C 0.44328 0.24189 0.18834 0.0
C457 C 0.44296 0.25712 0.14554 0.0
C458 C 0.45454 0.25222 0.10098 0.0
C459 C 0.45292 0.2488 0.24159 0.0
C460 C 0.42346 0.23278 0.19601 0.0
H461 H 0.4341 0.31893 0.01049 0.0
H462 H 0.48489 0.28363 0.91339 0.0
H463 H 0.45005 0.25284 0.94618 0.0
H464 H 0.46021 0.23528 0.98746 0.0
H465 H 0.47444 0.24634 0.93593 0.0
H466 H 0.495 0.27686 0.04523 0.0
H467 H 0.49977 0.26235 0.98643 0.0
H468 H 0.49407 0.2518 0.0503 0.0
H469 H 0.40818 0.33032 0.19526 0.0
H470 H 0.40375 0.287 0.31758 0.0
H471 H 0.41785 0.26416 0.25637 0.0
H472 H 0.44921 0.32122 0.15822 0.0
H473 H 0.43236 0.33676 0.12664 0.0
H474 H 0.44958 0.32395 0.08739 0.0
H475 H 0.39497 0.30433 0.0965 0.0
H476 H 0.41001 0.30285 0.03985 0.0
H477 H 0.40627 0.32549 0.07332 0.0
H478 H 0.44756 0.33207 0.93016 0.0
C479 C 0.44495 0.31081 0.99076 0.0
Tb480 Tb 0.02339 1.00518 0.64128 0.0
C481 C 0.95475 0.99357 0.49281 0.0
C482 C 0.96657 0.97254 0.42301 0.0
C483 C 0.93337 0.97115 0.44879 0.0
C484 C 0.96956 0.98688 0.46248 0.0
C485 C 0.93628 0.98633 0.48517 0.0
C486 C 0.94854 0.96425 0.41768 0.0
C487 C 0.92471 0.0114 0.54359 0.0
N488 N 0.95819 0.00845 0.52627 0.0
C489 C 0.94329 0.01812 0.5491 0.0
C490 C 0.92122 0.99517 0.51233 0.0
Tb491 Tb 0.98925 0.0177 0.53862 0.0
N492 N 0.98661 0.99547 0.46892 0.0
C493 C 1.00088 0.9914 0.43287 0.0
C494 C 0.98156 0.9675 0.38886 0.0
C495 C 0.99868 0.97724 0.39316 0.0
H496 H 0.94583 0.0308 0.57297 0.0
H497 H 0.01029 0.97376 0.36617 0.0
H498 H 0.94604 0.953 0.38828 0.0
H499 H 0.91312 0.0188 0.56329 0.0
H500 H 0.0144 0.9983 0.43509 0.0
H501 H 1.00385 0.04604 0.82261 0.0
H502 H 0.9799 0.95652 0.35816 0.0
H503 H 0.06646 0.99451 0.59501 0.0
H504 H 0.99897 0.02217 0.75328 0.0
H505 H 0.0991 0.00645 0.60564 0.0
H506 H 0.91936 0.96519 0.44288 0.0
H507 H 0.03419 0.06331 0.8291 0.0
H508 H 0.06755 0.06724 0.79691 0.0
H509 H 0.90682 0.99007 0.50763 0.0
H510 H 0.09364 0.05635 0.73827 0.0
N511 N 0.02613 0.02589 0.71474 0.0
C512 C 0.01236 0.02939 0.75301 0.0
C513 C 0.03218 0.05276 0.79737 0.0
C514 C 0.04677 0.04816 0.76141 0.0
C515 C 0.01506 0.04304 0.7938 0.0
C516 C 0.04336 0.03439 0.72049 0.0
H517 H 0.10566 0.03332 0.66806 0.0
N518 N 0.05444 0.0145 0.65075 0.0
C519 C 0.08767 0.01285 0.62869 0.0
C520 C 0.05801 0.02845 0.68743 0.0
C521 C 0.06913 0.0061 0.62291 0.0
C522 C 0.09129 0.02806 0.66377 0.0
C523 C 0.07646 0.03585 0.69436 0.0
O524 O 0.04164 0.98548 0.67846 0.0
O525 O 0.00553 0.99503 0.57514 0.0
O526 O 0.97318 1.00419 0.60482 0.0
O527 O 0.99481 1.00535 0.67699 0.0
O528 O 0.03292 0.98564 0.5773 0.0
O529 O 0.01161 0.98234 0.68435 0.0
O530 O 0.97378 0.04198 0.51668 0.0
O531 O 0.00743 0.02747 0.60403 0.0
O532 O 0.03822 0.02256 0.5807 0.0
O533 O 0.01838 0.01931 0.50587 0.0
O534 O 0.98122 0.03952 0.59872 0.0
O535 O 0.99876 0.03409 0.47288 0.0
C536 C 0.01705 0.98369 0.55243 0.0
C537 C 0.02929 0.95455 0.66554 0.0
C538 C 0.01385 0.92521 0.63573 0.0
C539 C 0.01315 0.94286 0.66273 0.0
C540 C 0.03087 0.91934 0.6112 0.0
C541 C 0.04628 0.9482 0.64149 0.0
C542 C 0.04698 0.93077 0.61427 0.0
C543 C 0.97742 1.00303 0.65727 0.0
C544 C 0.02789 0.97391 0.68919 0.0
C545 C 0.07964 0.05029 0.73287 0.0
C546 C 0.06479 0.05647 0.76626 0.0
C547 C 0.99691 0.04003 0.62511 0.0
C548 C 0.99557 0.06639 0.49949 0.0
C549 C 0.01489 0.07002 0.48953 0.0
C550 C 0.0238 0.08603 0.51241 0.0
C551 C 0.01314 0.09866 0.54465 0.0
C552 C 0.98507 0.07957 0.53053 0.0
C553 C 0.99386 0.09551 0.55313 0.0
C554 C 0.035 0.02373 0.5279 0.0
C555 C 0.98707 0.04782 0.48467 0.0
H556 H 1.00006 0.94747 0.68178 0.0
H557 H 0.03171 0.90589 0.58965 0.0
H558 H 0.05896 0.95687 0.64259 0.0
H559 H 0.06003 0.92613 0.59525 0.0
H560 H 0.02318 0.06015 0.46536 0.0
H561 H 0.01963 0.11121 0.5623 0.0
H562 H 0.9702 0.0772 0.53903 0.0
H563 H 0.98573 0.10536 0.57778 0.0
Tb564 Tb 0.50698 0.02328 0.6201 0.0
C565 C 0.51992 0.95335 0.48273 0.0
C566 C 0.54355 0.96413 0.41942 0.0
C567 C 0.54304 0.93104 0.44609 0.0
C568 C 0.52801 0.96778 0.45404 0.0
C569 C 0.52692 0.93464 0.47801 0.0
C570 C 0.55135 0.94579 0.41676 0.0
C571 C 0.50012 0.9242 0.53059 0.0
N572 N 0.50426 0.95744 0.51219 0.0
C573 C 0.49364 0.94296 0.53323 0.0
C574 C 0.51704 0.92005 0.50363 0.0
Tb575 Tb 0.49485 0.98877 0.51703 0.0
N576 N 0.52001 0.98523 0.45798 0.0
C577 C 0.5263 0.99948 0.42517 0.0
C578 C 0.55048 0.97889 0.38768 0.0
C579 C 0.5416 0.99656 0.38997 0.0
H580 H 0.48046 0.94602 0.55386 0.0
H581 H 0.54668 0.00806 0.36508 0.0
H582 H 0.56345 0.94276 0.39104 0.0
H583 H 0.492 0.91296 0.54906 0.0
H584 H 0.52001 0.01336 0.42629 0.0
H585 H 0.51665 0.00683 0.83266 0.0
H586 H 0.56242 0.97672 0.3607 0.0
H587 H 0.47241 0.04826 0.55769 0.0
H588 H 0.5254 0.00782 0.73606 0.0
H589 H 0.44416 0.066 0.58251 0.0
H590 H 0.54879 0.91682 0.44243 0.0
H591 H 0.48662 0.02143 0.86384 0.0
H592 H 0.45742 0.04022 0.84159 0.0
H593 H 0.52195 0.90549 0.5011 0.0
H594 H 0.43816 0.05696 0.77393 0.0
N595 N 0.49992 0.02167 0.71142 0.0
C596 C 0.51202 0.0139 0.74887 0.0
C597 C 0.49029 0.0217 0.82121 0.0
C598 C 0.4786 0.03076 0.78365 0.0
C599 C 0.50721 0.01343 0.80379 0.0
C600 C 0.48401 0.03066 0.72854 0.0
H601 H 0.43339 0.06708 0.67775 0.0
N602 N 0.47903 0.03938 0.63825 0.0
C603 C 0.45228 0.05886 0.61355 0.0
C604 C 0.47332 0.04009 0.69075 0.0
C605 C 0.46867 0.04873 0.5997 0.0
C606 C 0.44623 0.05943 0.66725 0.0
C607 C 0.4567 0.04988 0.70663 0.0
O608 O 0.51679 0.05069 0.6002 0.0
O609 O 0.51667 0.00695 0.55019 0.0
O610 O 0.50601 0.9729 0.58671 0.0
O611 O 0.50578 0.99512 0.65821 0.0
O612 O 0.53402 0.00786 0.61624 0.0
O613 O 0.5281 0.03606 0.66817 0.0
O614 O 0.47019 0.97415 0.49339 0.0
O615 O 0.48445 0.00887 0.57785 0.0
O616 O 0.50422 0.03881 0.54432 0.0
O617 O 0.49284 0.01703 0.4804 0.0
O618 O 0.47148 0.98274 0.57262 0.0
O619 O 0.48332 0.99384 0.43965 0.0
C620 C 0.53268 1.00153 0.56738 0.0
C621 C 0.54994 0.05267 0.61385 0.0
C622 C 0.58194 0.03973 0.60146 0.0
C623 C 0.56452 0.0402 0.62915 0.0
C624 C 0.58537 0.0534 0.5615 0.0
C625 C 0.55364 0.06619 0.57383 0.0
C626 C 0.57137 0.06671 0.54847 0.0
C627 C 0.50702 0.97753 0.6389 0.0
C628 C 0.53049 0.05009 0.63532 0.0
C629 C 0.45098 0.04971 0.76112 0.0
C630 C 0.4619 0.04013 0.79958 0.0
C631 C 0.47152 0.99864 0.59816 0.0
C632 C 0.44987 0.99205 0.43992 0.0
C633 C 0.44613 0.01078 0.45699 0.0
C634 C 0.42786 0.01847 0.45171 0.0
C635 C 0.4133 0.00712 0.4297 0.0
C636 C 0.43522 0.98099 0.41792 0.0
C637 C 0.417 0.98851 0.41294 0.0
C638 C 0.4979 0.03439 0.49532 0.0
C639 C 0.46852 0.98334 0.4485 0.0
H640 H 0.56202 0.03019 0.66139 0.0
H641 H 0.59853 0.05341 0.53896 0.0
H642 H 0.54269 0.07601 0.56125 0.0
H643 H 0.57404 0.07702 0.51716 0.0
H644 H 0.45724 0.01931 0.47511 0.0
H645 H 0.39913 0.01276 0.42436 0.0
H646 H 0.43784 0.96645 0.40522 0.0
H647 H 0.40572 0.97991 0.39591 0.0
Tb648 Tb 0.52992 0.50341 0.54227 0.0
C649 C 0.44738 0.49626 0.60829 0.0
C650 C 0.42959 0.51405 0.54246 0.0
C651 C 0.41598 0.48557 0.58101 0.0
C652 C 0.44631 0.51104 0.57277 0.0
C653 C 0.4319 0.48383 0.61489 0.0
C654 C 0.41481 0.50073 0.54479 0.0
C655 C 0.44738 0.47167 0.69465 0.0
N656 N 0.46266 0.49563 0.64131 0.0
C657 C 0.46214 0.48461 0.6868 0.0
C658 C 0.43241 0.47091 0.65759 0.0
Tb659 Tb 0.48787 0.51504 0.62039 0.0
N660 N 0.46085 0.52362 0.5726 0.0
C661 C 0.45803 0.54103 0.54945 0.0
C662 C 0.42786 0.5308 0.51306 0.0
C663 C 0.44192 0.5446 0.51793 0.0
H664 H 0.4735 0.48546 0.71611 0.0
H665 H 0.44019 0.55817 0.49833 0.0
H666 H 0.40206 0.50254 0.52078 0.0
H667 H 0.44749 0.46244 0.72946 0.0
H668 H 0.46776 0.55259 0.55589 0.0
H669 H 0.58336 0.47831 0.68232 0.0
H670 H 0.41529 0.53366 0.48918 0.0
H671 H 0.53349 0.53299 0.43859 0.0
H672 H 0.55254 0.4778 0.63561 0.0
H673 H 0.55624 0.55678 0.40543 0.0
H674 H 0.40409 0.47593 0.58462 0.0
H675 H 0.60683 0.50326 0.66161 0.0
H676 H 0.61597 0.53135 0.60522 0.0
H677 H 0.42083 0.4611 0.66409 0.0
H678 H 0.60859 0.55276 0.52969 0.0
N679 N 0.55807 0.50258 0.58918 0.0
C680 C 0.56258 0.48878 0.62576 0.0
C681 C 0.5933 0.5031 0.64071 0.0
C682 C 0.58908 0.5165 0.60103 0.0
C683 C 0.58011 0.48897 0.65243 0.0
C684 C 0.57125 0.51565 0.5751 0.0
H685 H 0.58643 0.5622 0.45442 0.0
N686 N 0.55031 0.52542 0.50691 0.0
C687 C 0.55949 0.54869 0.44135 0.0
C688 C 0.56724 0.5275 0.53246 0.0
C689 C 0.54665 0.53514 0.46018 0.0
C690 C 0.57649 0.55174 0.4692 0.0
C691 C 0.58071 0.54084 0.51479 0.0
O692 O 0.53333 0.4935 0.46213 0.0
O693 O 0.49918 0.50286 0.54708 0.0
O694 O 0.4908 0.48384 0.61908 0.0
O695 O 0.52188 0.47819 0.58938 0.0
O696 O 0.51074 0.50894 0.47342 0.0
O697 O 0.54469 0.47792 0.52975 0.0
O698 O 0.47523 0.52341 0.69418 0.0
O699 O 0.51844 0.51321 0.61891 0.0
O700 O 0.52893 0.53402 0.55666 0.0
O701 O 0.4963 0.53749 0.5626 0.0
O702 O 0.50516 0.50479 0.68829 0.0
O703 O 0.49235 0.54284 0.64985 0.0
C704 C 0.49504 0.50635 0.4985 0.0
C705 C 0.53445 0.46016 0.45508 0.0
C706 C 0.5091 0.43706 0.44429 0.0
C707 C 0.51529 0.45512 0.46095 0.0
C708 C 0.52209 0.42436 0.42038 0.0
C709 C 0.54721 0.4474 0.43094 0.0
C710 C 0.541 0.42959 0.41339 0.0
C711 C 0.50572 0.47259 0.6115 0.0
C712 C 0.54172 0.47798 0.47769 0.0
C713 C 0.59811 0.54248 0.54228 0.0
C714 C 0.6023 0.5303 0.5853 0.0
C715 C 0.5215 0.50751 0.6666 0.0
C716 C 0.49671 0.54244 0.74475 0.0
C717 C 0.51152 0.55581 0.74333 0.0
C718 C 0.52478 0.55711 0.78594 0.0
C719 C 0.52286 0.54493 0.83047 0.0
C720 C 0.49481 0.53086 0.79056 0.0
C721 C 0.50786 0.53209 0.83293 0.0
C722 C 0.5134 0.54434 0.55157 0.0
C723 C 0.48461 0.53925 0.69634 0.0
H724 H 0.50545 0.46487 0.48034 0.0
H725 H 0.51756 0.41041 0.4068 0.0
H726 H 0.56204 0.45111 0.42647 0.0
H727 H 0.55092 0.41973 0.39493 0.0
H728 H 0.51281 0.56505 0.70868 0.0
H729 H 0.53307 0.54514 0.8633 0.0
H730 H 0.48358 0.52043 0.79301 0.0
H731 H 0.50652 0.52282 0.86746 0.0
Tb732 Tb 0.01737 0.52936 0.54293 0.0
C733 C 0.01262 0.45165 0.64212 0.0
C734 C 0.99822 0.43265 0.57131 0.0
C735 C 0.02141 0.41843 0.63136 0.0
C736 C 1.0006 0.4503 0.59824 0.0
C737 C 0.02256 0.43556 0.66065 0.0
C738 C 0.00925 0.41698 0.58665 0.0
C739 C 0.03157 0.45363 0.74013 0.0
N740 N 0.01307 0.46828 0.6699 0.0
C741 C 0.02132 0.46908 0.72028 0.0
C742 C 0.03258 0.43691 0.70952 0.0
Tb743 Tb 0.99817 0.49376 0.63071 0.0
N744 N 0.99012 0.46581 0.58493 0.0
C745 C 0.97532 0.46358 0.54898 0.0
C746 C 0.98433 0.43104 0.53126 0.0
C747 C 0.97252 0.44642 0.52112 0.0
H748 H 0.02049 0.48196 0.74429 0.0
H749 H 0.9612 0.44512 0.49166 0.0
H750 H 0.00788 0.40347 0.56565 0.0
H751 H 0.03863 0.45463 0.77903 0.0
H752 H 0.96544 0.4747 0.53988 0.0
H753 H 0.05645 0.57514 0.68453 0.0
H754 H 0.9821 0.41779 0.50953 0.0
H755 H 0.99389 0.54314 0.43335 0.0
H756 H 0.05074 0.54625 0.63397 0.0
H757 H 0.9759 0.57123 0.40306 0.0
H758 H 0.02921 0.40601 0.64435 0.0
H759 H 0.03649 0.60345 0.67017 0.0
H760 H 0.01072 0.61925 0.61721 0.0
H761 H 0.04039 0.42489 0.72512 0.0
H762 H 0.98841 0.61818 0.54047 0.0
N763 N 0.0263 0.55664 0.59072 0.0
C764 C 0.04133 0.55789 0.62621 0.0
C765 C 0.03367 0.59054 0.64734 0.0
C766 C 0.01943 0.58987 0.60807 0.0
C767 C 0.04493 0.57461 0.6555 0.0
C768 C 0.01625 0.57263 0.5797 0.0
H769 H 0.97562 0.60044 0.45953 0.0
N770 N 1.00247 0.55575 0.50819 0.0
C771 C 0.98344 0.57163 0.44128 0.0
C772 C 1.00371 0.57207 0.53715 0.0
C773 C 0.99353 0.55572 0.45874 0.0
C774 C 0.98329 0.58805 0.47329 0.0
C775 C 0.99398 0.58862 0.52106 0.0
O776 O 0.02859 0.53916 0.46911 0.0
O777 O 0.01203 0.49927 0.55425 0.0
O778 O 0.02928 0.49256 0.64079 0.0
O779 O 0.04034 0.51934 0.59562 0.0
O780 O 0.00649 0.51032 0.47937 0.0
O781 O 0.04515 0.52158 0.52059 0.0
O782 O 0.98446 0.48206 0.69873 0.0
O783 O 1.0038 0.52387 0.62002 0.0
O784 O 0.98611 0.52994 0.53297 0.0
O785 O 0.97571 0.50217 0.57442 0.0
O786 O 0.01013 0.51221 0.69376 0.0
O787 O 0.97218 0.50538 0.65679 0.0
C788 C 0.00694 0.49484 0.5065 0.0
C789 C 0.04632 0.51471 0.42665 0.0
C790 C 0.05793 0.48401 0.3931 0.0
C791 C 0.05634 0.49767 0.43484 0.0
C792 C 0.04923 0.48756 0.34288 0.0
C793 C 0.03802 0.51802 0.37577 0.0
C794 C 0.0394 0.50447 0.33437 0.0
C795 C 0.04294 0.50454 0.62748 0.0
C796 C 0.04336 0.52828 0.47211 0.0
C797 C 0.996 0.60541 0.55158 0.0
C798 C 0.00873 0.60603 0.59513 0.0
C799 C 0.00954 0.52789 0.66756 0.0
C800 C 0.97143 0.50716 0.75187 0.0
C801 C 0.96077 0.52404 0.75334 0.0
C802 C 0.96181 0.5365 0.79814 0.0
C803 C 0.97362 0.53176 0.84198 0.0
C804 C 0.98277 0.50252 0.79679 0.0
C805 C 0.98388 0.51481 0.84137 0.0
C806 C 0.97276 0.51725 0.54395 0.0
C807 C 0.97214 0.49573 0.70123 0.0
H808 H 0.06263 0.49487 0.47406 0.0
H809 H 0.05041 0.47749 0.30961 0.0
H810 H 0.03019 0.53096 0.36818 0.0
H811 H 0.03287 0.50711 0.29543 0.0
H812 H 0.95171 0.52746 0.71928 0.0
H813 H 0.97498 0.54119 0.8767 0.0
H814 H 0.99115 0.48964 0.79707 0.0
H815 H 0.99288 0.51128 0.87538 0.0
C816 C 0.1774 0.02628 0.23789 0.0
C817 C 0.18212 0.04394 0.2156 0.0
C818 C 0.16083 0.02419 0.26903 0.0
C819 C 0.11399 0.0463 0.29976 0.0
H820 H 0.11851 0.02045 0.43723 0.0
C821 C 0.04925 0.02663 0.43444 0.0
C822 C 0.05104 0.02879 0.49105 0.0
C823 C 0.06479 0.02945 0.40003 0.0
C824 C 0.11702 0.02781 0.39911 0.0
H825 H 0.17272 0.07301 0.2066 0.0
H826 H 0.14376 0.06932 0.25963 0.0
H827 H 0.14595 0.02229 0.37687 0.0
H828 H 0.07032 0.03784 0.55463 0.0
H829 H 0.09765 0.04202 0.49497 0.0
H830 H 0.08505 0.05181 0.32202 0.0
C831 C 0.15283 0.05707 0.25349 0.0
C832 C 0.13271 0.02866 0.36417 0.0
C833 C 0.16946 0.0592 0.22313 0.0
C834 C 0.06859 0.03504 0.51177 0.0
C835 C 0.08425 0.0376 0.47743 0.0
C836 C 0.09824 0.04524 0.33439 0.0
C837 C 0.14845 0.03965 0.2779 0.0
C838 C 0.13145 0.03798 0.31405 0.0
C839 C 0.08265 0.0345 0.42114 0.0
C840 C 0.09955 0.03603 0.38465 0.0
H841 H 0.18694 0.01431 0.23329 0.0
H842 H 0.15781 0.01052 0.28673 0.0
H843 H 0.11244 0.05354 0.26147 0.0
H844 H 0.03592 0.02237 0.41642 0.0
H845 H 0.06297 0.02705 0.35692 0.0
C846 C 0.48623 0.18037 0.23706 0.0
C847 C 0.47953 0.17995 0.18338 0.0
C848 C 0.48982 0.16356 0.26484 0.0
C849 C 0.47565 0.11347 0.26978 0.0
H850 H 0.5186 0.10945 0.36731 0.0
C851 C 0.48995 0.04659 0.40194 0.0
C852 C 0.49622 0.05003 0.45535 0.0
C853 C 0.48858 0.06147 0.36468 0.0
C854 C 0.50642 0.11038 0.34066 0.0
H855 H 0.47175 0.16155 0.11625 0.0
H856 H 0.478 0.13192 0.16509 0.0
H857 H 0.51575 0.13691 0.30864 0.0
H858 H 0.50567 0.07209 0.51123 0.0
H859 H 0.50316 0.09776 0.44697 0.0
H860 H 0.46609 0.0871 0.30291 0.0
C861 C 0.48042 0.14535 0.18561 0.0
C862 C 0.50483 0.12612 0.30684 0.0
C863 C 0.47702 0.16228 0.15747 0.0
C864 C 0.50094 0.06874 0.4705 0.0
C865 C 0.49961 0.08354 0.43337 0.0
C866 C 0.4772 0.0977 0.30389 0.0
C867 C 0.48668 0.14581 0.23987 0.0
C868 C 0.48927 0.12805 0.27161 0.0
C869 C 0.49354 0.08014 0.37983 0.0
C870 C 0.49245 0.09612 0.34049 0.0
H871 H 0.48832 0.19379 0.25804 0.0
H872 H 0.49444 0.16449 0.30666 0.0
H873 H 0.46339 0.11459 0.24353 0.0
H874 H 0.48613 0.03239 0.38877 0.0
H875 H 0.48394 0.05829 0.32375 0.0
C876 C 0.3561 0.47629 0.20552 0.0
C877 C 0.33935 0.48556 0.22145 0.0
C878 C 0.37325 0.47983 0.23278 0.0
C879 C 0.39731 0.51259 0.33132 0.0
H880 H 0.42804 0.46827 0.36177 0.0
C881 C 0.47159 0.51834 0.43146 0.0
C882 C 0.47647 0.50492 0.47076 0.0
C883 C 0.45491 0.51637 0.40101 0.0
C884 C 0.41957 0.48079 0.3541 0.0
H885 H 0.32738 0.5059 0.27792 0.0
H886 H 0.35727 0.51237 0.32514 0.0
H887 H 0.39933 0.46493 0.30735 0.0
H888 H 0.46848 0.47823 0.50671 0.0
H889 H 0.43914 0.47475 0.45383 0.0
H890 H 0.41739 0.52836 0.379 0.0
C891 C 0.35735 0.50257 0.29107 0.0
C892 C 0.4032 0.47893 0.32208 0.0
C893 C 0.34021 0.49898 0.26383 0.0
C894 C 0.46472 0.48906 0.47774 0.0
C895 C 0.44808 0.48696 0.44681 0.0
C896 C 0.41373 0.51445 0.36319 0.0
C897 C 0.37403 0.49263 0.27699 0.0
C898 C 0.39181 0.4948 0.31009 0.0
C899 C 0.44287 0.50066 0.40816 0.0
C900 C 0.42513 0.49858 0.37503 0.0
H901 H 0.35572 0.46554 0.17383 0.0
H902 H 0.3858 0.47211 0.22011 0.0
H903 H 0.38901 0.52517 0.32291 0.0
H904 H 0.48072 0.53041 0.42429 0.0
H905 H 0.45164 0.52701 0.37103 0.0
C906 C 0.01795 0.33807 0.27586 0.0
C907 C 0.0286 0.3379 0.22771 0.0
C908 C 0.01445 0.3551 0.30416 0.0
C909 C 0.01664 0.40813 0.29419 0.0
H910 H 0.02028 0.40578 0.45091 0.0
C911 C 0.99794 0.47273 0.43139 0.0
C912 C 0.00884 0.47619 0.47815 0.0
C913 C 1.00023 0.456 0.40096 0.0
C914 C 0.01935 0.40676 0.4072 0.0
H915 H 0.04381 0.35554 0.17136 0.0
H916 H 0.03751 0.38537 0.21997 0.0
H917 H 0.02369 0.37684 0.39661 0.0
H918 H 0.03173 0.46535 0.5275 0.0
H919 H 0.03569 0.43585 0.47468 0.0
H920 H 0.01269 0.43811 0.30474 0.0
C921 C 0.03154 0.37239 0.23567 0.0
C922 C 0.02105 0.39006 0.37591 0.0
C923 C 0.03504 0.3553 0.20737 0.0
C924 C 0.02261 0.46274 0.49285 0.0
C925 C 0.0249 0.44588 0.46239 0.0
C926 C 0.01487 0.42481 0.32548 0.0
C927 C 0.02166 0.37251 0.28543 0.0
C928 C 0.01965 0.39043 0.31884 0.0
C929 C 0.01373 0.44225 0.41586 0.0
C930 C 0.01611 0.42441 0.38253 0.0
H931 H 0.01321 0.32483 0.29323 0.0
H932 H 0.00649 0.35454 0.34162 0.0
H933 H 0.0154 0.40911 0.25056 0.0
H934 H 0.98749 0.48302 0.41842 0.0
H935 H 0.99123 0.45377 0.36589 0.0
C936 C 0.85611 0.9774 0.01346 0.0
C937 C 0.83912 0.98704 1.00234 0.0
C938 C 0.87255 0.9809 0.98306 0.0
C939 C 0.8933 0.01256 0.87572 0.0
H940 H 0.92196 0.96728 0.83847 0.0
C941 C 0.9443 0.00956 0.69142 0.0
C942 C 0.96186 1.00038 0.69756 0.0
C943 C 0.93027 0.00845 0.73153 0.0
C944 C 0.91428 0.98013 0.84882 0.0
H945 H 0.82616 0.00823 0.95152 0.0
H946 H 0.85461 0.01442 0.89843 0.0
H947 H 0.89659 0.96552 0.9051 0.0
H948 H 0.97846 0.98294 0.75176 0.0
H949 H 0.9539 0.98074 0.82161 0.0
H950 H 0.91072 0.02699 0.81799 0.0
C951 C 0.85558 1.00444 0.9314 0.0
C952 C 0.8997 0.97917 0.88746 0.0
C953 C 0.83921 1.00104 0.9622 0.0
C954 C 0.965 0.99 0.74523 0.0
C955 C 0.95089 0.98871 0.78527 0.0
C956 C 0.90777 0.01347 0.83674 0.0
C957 C 0.87234 0.9939 0.93991 0.0
C958 C 0.88884 0.99534 0.90136 0.0
C959 C 0.93336 0.99809 0.77922 0.0
C960 C 0.91838 0.99724 0.82235 0.0
H961 H 0.85633 0.9662 0.04325 0.0
H962 H 0.8852 0.97278 0.99198 0.0
H963 H 0.88561 0.02543 0.88569 0.0
H964 H 0.94158 0.01829 0.65679 0.0
H965 H 0.91696 0.01579 0.72513 0.0
C966 C 0.54359 0.85567 0.97448 0.0
C967 C 0.53032 0.841 0.98074 0.0
C968 C 0.53935 0.87147 0.94268 0.0
C969 C 0.51141 0.88441 0.82414 0.0
H970 H 0.52437 0.93616 0.86376 0.0
C971 C 0.49653 0.94681 0.67877 0.0
C972 C 0.50926 0.96209 0.67856 0.0
C973 C 0.49807 0.93256 0.71774 0.0
C974 C 0.52091 0.92178 0.85154 0.0
H975 H 0.50209 0.83145 0.95962 0.0
H976 H 0.49467 0.85906 0.90324 0.0
H977 H 0.52838 0.91087 0.92968 0.0
H978 H 0.53366 0.97448 0.71841 0.0
H979 H 0.53689 0.94937 0.78538 0.0
H980 H 0.50469 0.89496 0.74547 0.0
C981 C 0.50831 0.85839 0.92337 0.0
C982 C 0.52308 0.90729 0.88964 0.0
C983 C 0.51245 0.84271 0.95603 0.0
C984 C 0.5236 0.96288 0.71796 0.0
C985 C 0.52533 0.9485 0.75656 0.0
C986 C 0.50949 0.89882 0.78577 0.0
C987 C 0.52186 0.87278 0.91551 0.0
C988 C 0.51841 0.88843 0.87636 0.0
C989 C 0.51253 0.93312 0.75726 0.0
C990 C 0.51428 0.91775 0.79872 0.0
H991 H 0.55754 0.85456 0.99263 0.0
H992 H 0.55014 0.88221 0.93715 0.0
H993 H 0.50798 0.86997 0.81231 0.0
H994 H 0.485 0.94618 0.64986 0.0
H995 H 0.48764 0.92131 0.71741 0.0
C996 C 0.66263 0.55145 0.93455 0.0
C997 C 0.67191 0.53676 0.96274 0.0
C998 C 0.64599 0.54802 0.90516 0.0
C999 C 0.60434 0.5177 0.89093 0.0
H1000 H 0.60495 0.53313 0.74049 0.0
C1001 C 0.54235 0.49902 0.74446 0.0
C1002 C 0.53854 0.51096 0.70056 0.0
C1003 C 0.55819 0.50213 0.77776 0.0
C1004 C 0.60425 0.52904 0.7826 0.0
H1005 H 0.66988 0.50706 0.98422 0.0
H1006 H 0.64022 0.50128 0.93431 0.0
H1007 H 0.63274 0.53847 0.7972 0.0
H1008 H 0.54739 0.53639 0.65952 0.0
H1009 H 0.57477 0.54228 0.71813 0.0
H1010 H 0.57564 0.50899 0.87748 0.0
C1011 C 0.64628 0.5154 0.9344 0.0
C1012 C 0.62034 0.53196 0.81505 0.0
C1013 C 0.66324 0.51875 0.96324 0.0
C1014 C 0.55034 0.52667 0.69219 0.0
C1015 C 0.56608 0.52996 0.72592 0.0
C1016 C 0.58806 0.51512 0.85879 0.0
C1017 C 0.63774 0.52991 0.90393 0.0
C1018 C 0.62062 0.52631 0.86956 0.0
C1019 C 0.57043 0.51763 0.769 0.0
C1020 C 0.58773 0.52069 0.80393 0.0
H1021 H 0.66836 0.56569 0.9345 0.0
H1022 H 0.63956 0.5596 0.88313 0.0
H1023 H 0.60403 0.51338 0.93295 0.0
H1024 H 0.53327 0.48696 0.7523 0.0
H1025 H 0.56099 0.49208 0.80965 0.0
C1026 C 1.00036 0.68045 0.92196 0.0
C1027 C 0.98756 0.68031 0.96559 0.0
C1028 C 1.00399 0.66385 0.89158 0.0
C1029 C 0.9982 0.61101 0.89009 0.0
H1030 H 0.99964 0.61665 0.73386 0.0
C1031 C 0.99449 0.56024 0.68366 0.0
C1032 C 0.00774 0.54622 0.69783 0.0
C1033 C 0.99235 0.57674 0.71587 0.0
C1034 C 0.99915 0.6148 0.77737 0.0
H1035 H 0.96868 0.66255 0.01179 0.0
H1036 H 0.97535 0.63348 0.96017 0.0
H1037 H 0.99645 0.64474 0.79226 0.0
H1038 H 0.02825 0.53797 0.75856 0.0
H1039 H 0.02437 0.56636 0.81483 0.0
H1040 H 1.00071 0.58106 0.87517 0.0
C1041 C 0.98282 0.64633 0.94952 0.0
C1042 C 0.99757 0.63096 0.81104 0.0
C1043 C 0.9791 0.66297 0.97959 0.0
C1044 C 0.0182 0.54871 0.74592 0.0
C1045 C 0.01586 0.56495 0.77845 0.0
C1046 C 0.99994 0.59489 0.85648 0.0
C1047 C 0.99487 0.64662 0.90393 0.0
C1048 C 0.99709 0.62934 0.868 0.0
C1049 C 1.00292 0.57925 0.76403 0.0
C1050 C 1.00048 0.59652 0.79961 0.0
H1051 H 0.00665 0.6937 0.90917 0.0
H1052 H 0.01354 0.66465 0.85734 0.0
H1053 H 0.99794 0.6091 0.93358 0.0
H1054 H 0.98568 0.55838 0.64801 0.0
H1055 H 0.98208 0.58732 0.70376 0.0
C1056 C 0.13206 0.18118 0.29923 0.0
C1057 C 0.11893 0.19617 0.30398 0.0
C1058 C 0.13246 0.1667 0.33774 0.0
C1059 C 0.1087 0.15073 0.46629 0.0
H1060 H 0.10354 0.10352 0.38592 0.0
C1061 C 0.0563 0.09637 0.54156 0.0
C1062 C 0.0439 0.0903 0.50034 0.0
C1063 C 0.07403 0.10396 0.52862 0.0
C1064 C 0.10493 0.11656 0.4092 0.0
H1065 H 0.09735 0.20861 0.3561 0.0
H1066 H 0.09795 0.18377 0.42197 0.0
H1067 H 0.12008 0.12993 0.3453 0.0
H1068 H 0.04092 0.08567 0.41389 0.0
H1069 H 0.07121 0.0995 0.3909 0.0
H1070 H 0.09158 0.13828 0.5273 0.0
C1071 C 0.10815 0.18302 0.38927 0.0
C1072 C 0.11477 0.13169 0.3862 0.0
C1073 C 0.10779 0.19744 0.35106 0.0
C1074 C 0.05019 0.09033 0.44646 0.0
C1075 C 0.06773 0.09818 0.43341 0.0
C1076 C 0.09847 0.13578 0.48871 0.0
C1077 C 0.11971 0.16692 0.3816 0.0
C1078 C 0.11562 0.1494 0.41295 0.0
C1079 C 0.07952 0.10598 0.4741 0.0
C1080 C 0.09534 0.11895 0.45881 0.0
H1081 H 0.14114 0.18 0.264 0.0
H1082 H 0.14191 0.15477 0.33124 0.0
H1083 H 0.10971 0.16393 0.48898 0.0
H1084 H 0.05193 0.09603 0.58363 0.0
H1085 H 0.08293 0.1092 0.56123 0.0
C1086 C 0.32376 0.11978 0.37318 0.0
C1087 C 0.32491 0.12764 0.32117 0.0
C1088 C 0.33967 0.1194 0.40685 0.0
C1089 C 0.37577 0.11609 0.47052 0.0
H1090 H 0.41342 0.09495 0.37286 0.0
C1091 C 0.40726 0.04362 0.49296 0.0
C1092 C 0.42404 0.0386 0.46586 0.0
C1093 C 0.40131 0.0625 0.49489 0.0
C1094 C 0.40352 0.10124 0.4014 0.0
H1095 H 0.34266 0.14397 0.26726 0.0
H1096 H 0.37044 0.14354 0.32644 0.0
H1097 H 0.38986 0.11643 0.3383 0.0
H1098 H 0.44898 0.04958 0.42566 0.0
H1099 H 0.43863 0.08265 0.42912 0.0
H1100 H 0.38864 0.0993 0.53256 0.0
C1101 C 0.35742 0.13713 0.34055 0.0
C1102 C 0.38987 0.1137 0.38141 0.0
C1103 C 0.3415 0.13742 0.30665 0.0
C1104 C 0.43587 0.05304 0.44633 0.0
C1105 C 0.4299 0.07197 0.44814 0.0
C1106 C 0.38942 0.10351 0.49051 0.0
C1107 C 0.35708 0.12691 0.38929 0.0
C1108 C 0.375 0.12017 0.41482 0.0
C1109 C 0.41201 0.07674 0.46958 0.0
C1110 C 0.40259 0.09492 0.4552 0.0
H1111 H 0.31125 0.11208 0.38574 0.0
H1112 H 0.33873 0.11135 0.44391 0.0
H1113 H 0.36487 0.12128 0.49777 0.0
H1114 H 0.39811 0.03278 0.50954 0.0
H1115 H 0.38745 0.06556 0.51173 0.0
C1116 C 0.39114 0.34217 0.28938 0.0
C1117 C 0.40125 0.32566 0.30304 0.0
C1118 C 0.39235 0.35846 0.32208 0.0
C1119 C 0.41471 0.37785 0.4494 0.0
H1120 H 0.43424 0.41554 0.35072 0.0
C1121 C 0.48527 0.41382 0.47709 0.0
C1122 C 0.48921 0.43113 0.45194 0.0
C1123 C 0.467 0.40628 0.47553 0.0
C1124 C 0.4284 0.4056 0.37944 0.0
H1125 H 0.41875 0.31274 0.36508 0.0
H1126 H 0.42084 0.34081 0.42147 0.0
H1127 H 0.41339 0.39101 0.31675 0.0
H1128 H 0.47704 0.45502 0.40974 0.0
H1129 H 0.44492 0.44178 0.40671 0.0
H1130 H 0.43112 0.39173 0.5112 0.0
C1131 C 0.41187 0.34134 0.38586 0.0
C1132 C 0.41633 0.39143 0.35983 0.0
C1133 C 0.41069 0.32512 0.35323 0.0
C1134 C 0.47429 0.44159 0.42925 0.0
C1135 C 0.45597 0.43399 0.42739 0.0
C1136 C 0.42683 0.39204 0.46904 0.0
C1137 C 0.40368 0.35853 0.36906 0.0
C1138 C 0.41039 0.37666 0.39379 0.0
C1139 C 0.45231 0.41586 0.44841 0.0
C1140 C 0.4348 0.4053 0.43342 0.0
H1141 H 0.38336 0.34291 0.25158 0.0
H1142 H 0.38552 0.37136 0.3086 0.0
H1143 H 0.40997 0.36695 0.47691 0.0
H1144 H 0.49655 0.40564 0.49549 0.0
H1145 H 0.46483 0.39222 0.49177 0.0
C1146 C 0.19262 0.40773 0.32809 0.0
C1147 C 0.19411 0.39612 0.28162 0.0
C1148 C 0.17632 0.40727 0.36004 0.0
C1149 C 0.1268 0.40135 0.3294 0.0
H1150 H 0.1213 0.42212 0.47454 0.0
C1151 C 0.06383 0.44912 0.37776 0.0
C1152 C 0.06945 0.46655 0.40088 0.0
C1153 C 0.07584 0.43333 0.3795 0.0
C1154 C 0.12252 0.4162 0.43402 0.0
H1155 H 0.18112 0.37272 0.23764 0.0
H1156 H 0.15253 0.372 0.29343 0.0
H1157 H 0.15024 0.40501 0.44995 0.0
H1158 H 0.0918 0.48076 0.44605 0.0
H1159 H 0.11283 0.4536 0.44789 0.0
H1160 H 0.09992 0.41371 0.31183 0.0
C1161 C 0.16378 0.38178 0.30431 0.0
C1162 C 0.13907 0.40633 0.42004 0.0
C1163 C 0.18015 0.38221 0.27234 0.0
C1164 C 0.08689 0.46753 0.42834 0.0
C1165 C 0.09896 0.45183 0.42966 0.0
C1166 C 0.11034 0.41124 0.34328 0.0
C1167 C 0.16116 0.39521 0.34618 0.0
C1168 C 0.14183 0.39976 0.36663 0.0
C1169 C 0.09387 0.43471 0.40373 0.0
C1170 C 0.10848 0.41974 0.3948 0.0
H1171 H 0.20303 0.41865 0.33657 0.0
H1172 H 0.17483 0.41785 0.39188 0.0
H1173 H 0.12843 0.39663 0.28775 0.0
H1174 H 0.05037 0.44781 0.35699 0.0
H1175 H 0.07132 0.42027 0.35991 0.0
C1176 C 0.91043 0.81103 0.79942 0.0
C1177 C 0.90586 0.8202 0.84882 0.0
C1178 C 0.91268 0.8214 0.7519 0.0
C1179 C 0.91862 0.87275 0.70726 0.0
H1180 H 0.96154 0.84993 0.63377 0.0
C1181 C 0.97882 0.91946 0.62512 0.0
C1182 C 0.99713 0.91249 0.63568 0.0
C1183 C 0.96301 0.90757 0.6293 0.0
C1184 C 0.9497 0.85663 0.65433 0.0
H1185 H 0.89531 0.84697 0.88177 0.0
H1186 H 0.90181 0.86516 0.80287 0.0
H1187 H 0.93976 0.83006 0.68084 0.0
H1188 H 0.01328 0.88767 0.65855 0.0
H1189 H 0.98603 0.86731 0.66866 0.0
H1190 H 0.93025 0.89959 0.6858 0.0
C1191 C 0.90385 0.85 0.79973 0.0
C1192 C 0.93671 0.84508 0.68081 0.0
C1193 C 0.90056 0.83946 0.84646 0.0
C1194 C 0.99938 0.89336 0.64932 0.0
C1195 C 0.98363 0.88161 0.65463 0.0
C1196 C 0.93208 0.88438 0.68247 0.0
C1197 C 0.91152 0.84135 0.75284 0.0
C1198 C 0.92155 0.85299 0.71086 0.0
C1199 C 0.96515 0.88856 0.64542 0.0
C1200 C 0.94843 0.87648 0.65859 0.0
H1201 H 0.91392 0.79612 0.79727 0.0
H1202 H 0.9169 0.81372 0.71572 0.0
H1203 H 0.90663 0.87957 0.72657 0.0
H1204 H 0.97669 0.93416 0.61429 0.0
H1205 H 0.94912 0.91341 0.621 0.0
C1206 C 0.70143 0.94659 0.80118 0.0
C1207 C 0.69493 0.93242 0.83641 0.0
C1208 C 0.69027 0.95248 0.75779 0.0
C1209 C 0.63983 0.95698 0.73287 0.0
H1210 H 0.65639 0.98328 0.60388 0.0
C1211 C 0.58874 0.00582 0.62432 0.0
C1212 C 0.5956 0.024 0.61183 0.0
C1213 C 0.60108 0.99106 0.63631 0.0
C1214 C 0.65159 0.97598 0.63978 0.0
H1215 H 0.67278 0.9117 0.84969 0.0
H1216 H 0.65333 0.92183 0.77318 0.0
H1217 H 0.67819 0.96165 0.65003 0.0
H1218 H 0.62117 0.04061 0.6008 0.0
H1219 H 0.64287 0.01487 0.62436 0.0
H1220 H 0.61369 0.97181 0.72473 0.0
C1221 C 0.66685 0.92872 0.78009 0.0
C1222 C 0.66401 0.96355 0.66604 0.0
C1223 C 0.67798 0.92289 0.82383 0.0
C1224 C 0.61534 0.02681 0.61001 0.0
C1225 C 0.62779 0.01201 0.62314 0.0
C1226 C 0.6275 0.96933 0.70679 0.0
C1227 C 0.67238 0.94433 0.74857 0.0
C1228 C 0.65841 0.95429 0.71378 0.0
C1229 C 0.62071 0.9941 0.6378 0.0
C1230 C 0.63335 0.97934 0.66071 0.0
H1231 H 0.71433 0.95438 0.80987 0.0
H1232 H 0.69496 0.96461 0.73473 0.0
H1233 H 0.63512 0.95051 0.77015 0.0
H1234 H 0.57372 1.00289 0.62549 0.0
H1235 H 0.59514 0.97733 0.64605 0.0
C1236 C 0.6299 0.68666 0.87028 0.0
C1237 C 0.61693 0.70135 0.86017 0.0
C1238 C 0.62824 0.66926 0.84292 0.0
C1239 C 0.608 0.63214 0.83135 0.0
H1240 H 0.57673 0.6246 0.70374 0.0
C1241 C 0.5466 0.58031 0.83186 0.0
C1242 C 0.54061 0.57107 0.78414 0.0
C1243 C 0.56134 0.59346 0.83074 0.0
C1244 C 0.58577 0.62619 0.73899 0.0
H1245 H 0.59357 0.71019 0.80916 0.0
H1246 H 0.59021 0.68005 0.76315 0.0
H1247 H 0.59589 0.65311 0.71223 0.0
H1248 H 0.54564 0.56857 0.6975 0.0
H1249 H 0.5716 0.5913 0.69579 0.0
H1250 H 0.59798 0.60521 0.85795 0.0
C1251 C 0.60194 0.68171 0.79112 0.0
C1252 C 0.59662 0.64272 0.7442 0.0
C1253 C 0.60384 0.69916 0.8177 0.0
C1254 C 0.5498 0.57539 0.73513 0.0
C1255 C 0.56473 0.58845 0.73408 0.0
C1256 C 0.59747 0.6155 0.82564 0.0
C1257 C 0.61328 0.66613 0.80601 0.0
C1258 C 0.60692 0.64647 0.79205 0.0
C1259 C 0.57063 0.59772 0.78191 0.0
C1260 C 0.5853 0.61288 0.78107 0.0
H1261 H 0.6403 0.68811 0.90241 0.0
H1262 H 0.63772 0.65784 0.85401 0.0
H1263 H 0.61571 0.63429 0.86887 0.0
H1264 H 0.53956 0.57779 0.8701 0.0
H1265 H 0.56501 0.60073 0.86815 0.0
C1266 C 0.82143 0.60952 0.82469 0.0
C1267 C 0.81718 0.62099 0.86984 0.0
C1268 C 0.83943 0.61007 0.80136 0.0
C1269 C 0.87937 0.60992 0.76089 0.0
H1270 H 0.91443 0.61033 0.88194 0.0
C1271 C 0.94714 0.56488 0.75294 0.0
C1272 C 0.95011 0.55405 0.79982 0.0
C1273 C 0.93479 0.58043 0.75379 0.0
C1274 C 0.90486 0.61015 0.84755 0.0
H1275 H 0.82725 0.64403 0.92084 0.0
H1276 H 0.85848 0.6457 0.87843 0.0
H1277 H 0.88389 0.62555 0.89157 0.0
H1278 H 0.9426 0.55132 0.88458 0.0
H1279 H 0.92074 0.57778 0.88581 0.0
H1280 H 0.89958 0.5926 0.71917 0.0
C1281 C 0.84826 0.63563 0.86249 0.0
C1282 C 0.88736 0.61925 0.85266 0.0
C1283 C 0.83032 0.63484 0.88649 0.0
C1284 C 0.94091 0.5595 0.84795 0.0
C1285 C 0.9284 0.57484 0.84866 0.0
C1286 C 0.89673 0.60045 0.75622 0.0
C1287 C 0.8535 0.62229 0.82233 0.0
C1288 C 0.87389 0.61826 0.81053 0.0
C1289 C 0.92486 0.5853 0.80134 0.0
C1290 C 0.90919 0.5995 0.80071 0.0
H1291 H 0.81163 0.59863 0.81114 0.0
H1292 H 0.84273 0.59948 0.77073 0.0
H1293 H 0.86968 0.60944 0.72683 0.0
H1294 H 0.95408 0.56116 0.71523 0.0
H1295 H 0.93265 0.58829 0.71679 0.0
C1296 C 0.04232 0.18723 0.87162 0.0
C1297 C 0.02819 0.19482 0.90592 0.0
C1298 C 0.03873 0.17133 0.83851 0.0
C1299 C 0.00717 0.12926 0.82968 0.0
H1300 H 0.02938 0.12263 0.68701 0.0
C1301 C 0.98809 0.06488 0.69277 0.0
C1302 C 1.00212 0.0566 0.65981 0.0
C1303 C 0.99162 0.08166 0.72191 0.0
C1304 C 0.02328 0.12408 0.7271 0.0
H1305 H 0.9989 0.19187 0.93045 0.0
H1306 H 0.99248 0.16419 0.87218 0.0
H1307 H 0.0339 0.15247 0.73661 0.0
H1308 H 0.03061 0.0601 0.62897 0.0
H1309 H 0.03709 0.08931 0.68102 0.0
H1310 H 0.99676 0.10086 0.82073 0.0
C1311 C 0.00648 0.17047 0.87137 0.0
C1312 C 0.02581 0.1413 0.75558 0.0
C1313 C 0.01006 0.18653 0.90429 0.0
C1314 C 0.01974 0.06579 0.65555 0.0
C1315 C 0.0233 0.08272 0.68475 0.0
C1316 C 1.00472 0.11204 0.80139 0.0
C1317 C 0.02089 0.16237 0.83878 0.0
C1318 C 0.01773 0.14421 0.8073 0.0
C1319 C 0.00926 0.09092 0.71851 0.0
C1320 C 0.01264 0.10916 0.74947 0.0
H1321 H 0.05646 0.19324 0.87178 0.0
H1322 H 0.05025 0.16557 0.81447 0.0
H1323 H 1.00107 0.13068 0.86978 0.0
H1324 H 0.97421 0.05839 0.69569 0.0
H1325 H 0.98025 0.08762 0.74614 0.0
C1326 C 0.344 0.0183 0.93767 0.0
C1327 C 0.32951 0.03087 0.92241 0.0
C1328 C 0.3584 0.0132 0.90106 0.0
C1329 C 0.37313 0.01432 0.75555 0.0
H1330 H 0.42388 0.01586 0.81615 0.0
C1331 C 0.44014 0.01352 0.6184 0.0
C1332 C 0.4563 1.00386 0.63678 0.0
C1333 C 0.42449 0.0164 0.65261 0.0
C1334 C 0.40984 0.01509 0.79845 0.0
H1335 H 0.31853 0.04768 0.8566 0.0
H1336 H 0.34337 0.0385 0.79205 0.0
H1337 H 0.39657 0.02025 0.87527 0.0
H1338 H 0.46811 0.98806 0.70349 0.0
H1339 H 0.44097 0.99313 0.76372 0.0
H1340 H 0.3864 0.00911 0.6787 0.0
C1341 C 0.34356 0.03235 0.8321 0.0
C1342 C 0.39409 0.0176 0.83254 0.0
C1343 C 0.3292 0.03751 0.8689 0.0
C1344 C 0.45616 0.99632 0.68921 0.0
C1345 C 0.44055 0.99923 0.72363 0.0
C1346 C 0.38889 0.0117 0.72144 0.0
C1347 C 0.35875 0.02064 0.84823 0.0
C1348 C 0.37548 0.01727 0.81167 0.0
C1349 C 0.42442 0.0093 0.70587 0.0
C1350 C 0.40753 0.01209 0.74231 0.0
H1351 H 0.34486 0.01337 0.97906 0.0
H1352 H 0.36964 1.00393 0.91481 0.0
H1353 H 0.35906 0.01379 0.73795 0.0
H1354 H 0.43954 0.01873 0.57727 0.0
H1355 H 0.41249 0.02431 0.63725 0.0
C1356 C 0.4642 0.32583 0.82744 0.0
C1357 C 0.47599 0.31881 0.86866 0.0
C1358 C 0.47093 0.33927 0.79083 0.0
C1359 C 0.50543 0.37805 0.7885 0.0
H1360 H 0.48732 0.38442 0.64124 0.0
C1361 C 0.49997 0.45137 0.68988 0.0
C1362 C 0.50497 0.45339 0.63524 0.0
C1363 C 0.49911 0.43344 0.71344 0.0
C1364 C 0.49271 0.38277 0.68207 0.0
H1365 H 0.5044 0.31943 0.90174 0.0
H1366 H 0.51634 0.34286 0.8373 0.0
H1367 H 0.48184 0.35442 0.68793 0.0
H1368 H 0.5139 0.43829 0.56297 0.0
H1369 H 0.51204 0.40667 0.60374 0.0
H1370 H 0.51592 0.40648 0.7832 0.0
C1371 C 0.5018 0.33808 0.83358 0.0
C1372 C 0.48945 0.36562 0.709 0.0
C1373 C 0.49507 0.32447 0.87005 0.0
C1374 C 0.50962 0.4371 0.60483 0.0
C1375 C 0.50854 0.41902 0.62823 0.0
C1376 C 0.50857 0.39519 0.76175 0.0
C1377 C 0.4896 0.34617 0.79477 0.0
C1378 C 0.49542 0.36318 0.76302 0.0
C1379 C 0.50329 0.417 0.68296 0.0
C1380 C 0.50186 0.39795 0.70868 0.0
H1381 H 0.44939 0.32177 0.82567 0.0
H1382 H 0.46106 0.34522 0.76191 0.0
H1383 H 0.51008 0.37683 0.83017 0.0
H1384 H 0.49717 0.46371 0.71494 0.0
H1385 H 0.49494 0.43246 0.75556 0.0
C1386 C 0.19221 0.50581 0.89355 0.0
C1387 C 0.20153 0.48818 0.8913 0.0
C1388 C 0.17649 0.50942 0.85998 0.0
C1389 C 0.15024 0.49205 0.73723 0.0
H1390 H 0.10628 0.51346 0.80961 0.0
C1391 C 0.0786 0.50746 0.62579 0.0
C1392 C 0.06192 0.5025 0.65354 0.0
C1393 C 0.09637 0.50666 0.65168 0.0
C1394 C 0.11839 0.50742 0.78872 0.0
H1395 H 0.2023 0.46093 0.85005 0.0
H1396 H 0.17525 0.46727 0.79114 0.0
H1397 H 0.13633 0.51111 0.85825 0.0
H1398 H 0.05097 0.49373 0.7312 0.0
H1399 H 0.08167 0.4919 0.77586 0.0
H1400 H 0.13214 0.48803 0.668 0.0
C1401 C 0.17995 0.47835 0.81872 0.0
C1402 C 0.13574 0.50629 0.81647 0.0
C1403 C 0.19546 0.47469 0.8526 0.0
C1404 C 0.06347 0.49692 0.70789 0.0
C1405 C 0.08114 0.49627 0.73391 0.0
C1406 C 0.13292 0.49335 0.70928 0.0
C1407 C 0.16988 0.49556 0.82291 0.0
C1408 C 0.15187 0.49835 0.79143 0.0
C1409 C 0.09786 0.50121 0.70634 0.0
C1410 C 0.11666 0.50078 0.7349 0.0
H1411 H 0.1964 0.51641 0.92332 0.0
H1412 H 0.16924 0.52292 0.86394 0.0
H1413 H 0.16237 0.48599 0.71642 0.0
H1414 H 0.07792 0.51203 0.58404 0.0
H1415 H 0.10888 0.51073 0.62924 0.0
C1416 C 0.00707 0.83525 0.28044 0.0
C1417 C 0.98869 0.82814 0.2714 0.0
C1418 C 0.01007 0.85098 0.31522 0.0
C1419 C 0.98355 0.89207 0.37817 0.0
H1420 H 0.02998 0.8992 0.45986 0.0
C1421 C 0.995 0.95657 0.5261 0.0
C1422 C 0.0127 0.96565 0.5227 0.0
C1423 C 0.99176 0.93919 0.49883 0.0
C1424 C 0.01695 0.89752 0.43703 0.0
H1425 H 0.95924 0.8314 0.29457 0.0
H1426 H 0.96444 0.85812 0.356 0.0
H1427 H 0.02531 0.87005 0.40728 0.0
H1428 H 0.04118 0.96299 0.49087 0.0
H1429 H 0.03566 0.93289 0.44386 0.0
H1430 H 0.97523 0.91958 0.40813 0.0
C1431 C 0.97656 0.85213 0.33506 0.0
C1432 C 0.01427 0.88074 0.40659 0.0
C1433 C 0.97358 0.83659 0.30012 0.0
C1434 C 0.02727 0.95654 0.49347 0.0
C1435 C 0.02413 0.93917 0.46682 0.0
C1436 C 0.98618 0.90879 0.40886 0.0
C1437 C 0.99478 0.85997 0.34228 0.0
C1438 C 0.99756 0.87773 0.37627 0.0
C1439 C 0.00631 0.93023 0.46867 0.0
C1440 C 1.003 0.91187 0.43842 0.0
H1441 H 0.019 0.82925 0.25858 0.0
H1442 H 0.02432 0.85653 0.3191 0.0
H1443 H 0.97062 0.89066 0.3548 0.0
H1444 H 0.98369 0.96288 0.54987 0.0
H1445 H 0.97792 0.93266 0.50189 0.0
C1446 C 0.68098 0.96997 0.31849 0.0
C1447 C 0.68939 0.98539 0.29184 0.0
C1448 C 0.6653 0.97262 0.35269 0.0
C1449 C 0.62431 1.00421 0.37246 0.0
H1450 H 0.61804 0.97777 0.50838 0.0
C1451 C 0.55719 0.015 0.50566 0.0
C1452 C 0.55003 0.99937 0.53392 0.0
C1453 C 0.57462 0.01385 0.47847 0.0
C1454 C 0.61937 0.98506 0.47012 0.0
H1455 H 0.68803 0.01579 0.28103 0.0
H1456 H 0.6604 0.02048 0.34044 0.0
H1457 H 0.64793 0.97511 0.45882 0.0
H1458 H 0.5558 0.97051 0.55784 0.0
H1459 H 0.58592 0.9681 0.50869 0.0
H1460 H 0.59563 0.01365 0.38243 0.0
C1461 C 0.66607 0.00629 0.33506 0.0
C1462 C 0.63663 0.98362 0.44184 0.0
C1463 C 0.68203 1.00367 0.30149 0.0
C1464 C 0.56082 0.98263 0.53527 0.0
C1465 C 0.57822 0.98138 0.50765 0.0
C1466 C 0.60698 0.00546 0.40034 0.0
C1467 C 0.65731 0.99075 0.3605 0.0
C1468 C 0.63933 0.99313 0.39247 0.0
C1469 C 0.58547 0.99702 0.47891 0.0
C1470 C 0.60416 0.99584 0.44956 0.0
H1471 H 0.68624 0.9557 0.31152 0.0
H1472 H 0.65889 0.9603 0.37113 0.0
H1473 H 0.62572 0.0115 0.33422 0.0
H1474 H 0.54937 0.02825 0.50527 0.0
H1475 H 0.57975 0.02636 0.45804 0.0
C1476 C 0.55325 0.69474 0.33048 0.0
C1477 C 0.54124 0.69927 0.28698 0.0
C1478 C 0.54853 0.68023 0.36628 0.0
C1479 C 0.51042 0.64734 0.41112 0.0
H1480 H 0.55275 0.61313 0.43417 0.0
C1481 C 0.50084 0.5711 0.49526 0.0
C1482 C 0.51517 0.56364 0.5285 0.0
C1483 C 0.50313 0.58875 0.47035 0.0
C1484 C 0.5408 0.62263 0.42916 0.0
H1485 H 0.51433 0.69293 0.24876 0.0
H1486 H 0.50592 0.66752 0.31168 0.0
H1487 H 0.55765 0.64245 0.38531 0.0
H1488 H 0.54304 0.56894 0.56231 0.0
H1489 H 0.54694 0.59985 0.52 0.0
H1490 H 0.49355 0.62736 0.45491 0.0
C1491 C 0.51897 0.67529 0.31833 0.0
C1492 C 0.54362 0.63952 0.40095 0.0
C1493 C 0.52371 0.68992 0.28244 0.0
C1494 C 0.53174 0.57432 0.53688 0.0
C1495 C 0.534 0.59201 0.51225 0.0
C1496 C 0.5076 0.63043 0.43974 0.0
C1497 C 0.53172 0.66974 0.35933 0.0
C1498 C 0.5285 0.65212 0.39142 0.0
C1499 C 0.51982 0.59942 0.47808 0.0
C1500 C 0.52276 0.61778 0.44905 0.0
H1501 H 0.56688 0.70169 0.33481 0.0
H1502 H 0.55849 0.67667 0.39809 0.0
H1503 H 0.49848 0.65674 0.40482 0.0
H1504 H 0.48816 0.56299 0.48662 0.0
H1505 H 0.49205 0.59372 0.44358 0.0
C1506 C 0.82581 0.51958 0.26789 0.0
C1507 C 0.81503 0.53599 0.27826 0.0
C1508 C 0.84101 0.51468 0.30201 0.0
C1509 C 0.86473 0.52599 0.43503 0.0
H1510 H 0.91065 0.51321 0.35644 0.0
C1511 C 0.93741 0.51143 0.54235 0.0
C1512 C 0.95371 0.519 0.51767 0.0
C1513 C 0.91966 0.51207 0.51628 0.0
C1514 C 0.89799 0.51684 0.37915 0.0
H1515 H 0.81112 0.55957 0.33389 0.0
H1516 H 0.83721 0.55092 0.39387 0.0
H1517 H 0.88071 0.51579 0.30776 0.0
H1518 H 0.96388 0.5324 0.44483 0.0
H1519 H 0.93325 0.53405 0.40028 0.0
H1520 H 0.88224 0.52756 0.50624 0.0
C1521 C 0.834 0.54168 0.35977 0.0
C1522 C 0.88069 0.51805 0.35124 0.0
C1523 C 0.81893 0.54662 0.32551 0.0
C1524 C 0.95172 0.52708 0.46613 0.0
C1525 C 0.93408 0.52764 0.43994 0.0
C1526 C 0.88206 0.52467 0.46306 0.0
C1527 C 0.84576 0.52607 0.34739 0.0
C1528 C 0.86381 0.5229 0.37854 0.0
C1529 C 0.91776 0.52005 0.46439 0.0
C1530 C 0.89902 0.52037 0.43538 0.0
H1531 H 0.8234 0.51135 0.23121 0.0
H1532 H 0.84953 0.50239 0.29153 0.0
H1533 H 0.85206 0.52962 0.45763 0.0
H1534 H 0.93837 0.50491 0.58185 0.0
H1535 H 0.9075 0.50592 0.5363 0.0
loop_
_geom_bond_atom_site_label_1
_geom_bond_atom_site_label_2
_geom_bond_distance
_geom_bond_site_symmetry_2
_ccdc_geom_bond_type
C0 C1 1.391 . S
C0 C4 1.391 . S
C0 H42 0.948 . S
C1 C0 1.391 . S
C1 C2 1.391 . S
C2 C1 1.391 . S
C2 H58 0.947 . S
C2 C59 1.392 . S
C3 C4 1.391 . S
C3 C7 1.397 . S
C3 C59 1.419 . S
C4 C0 1.391 . S
C4 C3 1.391 . S
C4 C5 1.399 . S
C5 C4 1.399 . S
C5 C8 1.396 . S
C5 C17 1.453 . S
C5 C18 1.684 . S
H6 C30 0.948 . S
C7 C3 1.397 . S
C7 C8 1.394 . S
C7 C26 1.723 . S
C8 C5 1.396 . S
C8 C7 1.394 . S
C8 C38 1.723 . S
H9 C32 0.947 . S
H10 C33 0.948 . S
H11 C39 0.982 . S
H12 C40 0.979 1_554 S
H13 C40 0.980 . S
H14 C40 0.983 . S
H15 C39 0.979 1_556 S
H16 C39 0.977 1_556 S
C17 C5 1.453 . S
C17 H46 0.982 . S
C17 H47 0.979 . S
C17 H48 0.977 . S
C18 C5 1.684 . S
C18 H43 0.979 . S
C18 H44 0.980 . S
C18 H45 0.983 . S
C19 C20 1.391 1_554 S
C19 C24 1.391 . S
C19 H49 0.948 . S
C20 C19 1.391 1_556 S
C20 C21 1.391 . S
C21 C20 1.391 . S
C21 C22 1.392 . S
C21 H50 0.947 . S
C22 C21 1.392 . S
C22 C23 1.419 1_556 S
C22 H51 0.948 . S
C23 C22 1.419 1_554 S
C23 C24 1.391 . S
C23 C27 1.397 . S
C24 C19 1.391 . S
C24 C23 1.391 . S
C24 C25 1.399 . S
C25 C24 1.399 . S
C25 C26 1.396 . S
C25 C28 1.453 . S
C25 C29 1.684 . S
C26 C7 1.723 . S
C26 C25 1.396 . S
C26 C27 1.394 . S
C27 C23 1.397 . S
C27 C26 1.394 . S
C27 C37 1.723 . S
C28 C25 1.453 . S
C28 H52 0.982 . S
C28 H53 0.979 . S
C28 H54 0.977 . S
C29 C25 1.684 . S
C29 H55 0.979 . S
C29 H56 0.980 . S
C29 H57 0.983 . S
C30 H6 0.948 . S
C30 C31 1.391 . S
C30 C35 1.391 . S
C31 C30 1.391 . S
C31 C32 1.391 . S
C32 H9 0.947 . S
C32 C31 1.391 . S
C32 C33 1.392 . S
C33 H10 0.948 . S
C33 C32 1.392 . S
C33 C34 1.419 . S
C34 C33 1.419 . S
C34 C35 1.391 . S
C34 C38 1.397 . S
C35 C30 1.391 . S
C35 C34 1.391 . S
C35 C36 1.399 . S
C36 C35 1.399 . S
C36 C37 1.396 . S
C36 C39 1.453 . S
C36 C40 1.684 1_554 S
C37 C27 1.723 . S
C37 C36 1.396 . S
C37 C38 1.394 . S
C38 C8 1.723 . S
C38 C34 1.397 . S
C38 C37 1.394 . S
C39 H11 0.982 . S
C39 H15 0.979 1_554 S
C39 H16 0.977 1_554 S
C39 C36 1.453 . S
C40 H12 0.979 1_556 S
C40 H13 0.980 . S
C40 H14 0.983 . S
C40 C36 1.684 1_556 S
H41 C59 0.948 . S
H42 C0 0.948 . S
H43 C18 0.979 . S
H44 C18 0.980 . S
H45 C18 0.983 . S
H46 C17 0.982 . S
H47 C17 0.979 . S
H48 C17 0.977 . S
H49 C19 0.948 . S
H50 C21 0.947 . S
H51 C22 0.948 . S
H52 C28 0.982 . S
H53 C28 0.979 . S
H54 C28 0.977 . S
H55 C29 0.979 . S
H56 C29 0.980 . S
H57 C29 0.983 . S
H58 C2 0.947 . S
C59 C2 1.392 . S
C59 C3 1.419 . S
C59 H41 0.948 . S
C60 C61 1.391 . S
C60 C64 1.391 1_556 S
C60 H102 0.948 . S
C61 C60 1.391 . S
C61 C62 1.391 1_556 S
C62 C61 1.391 1_554 S
C62 H118 0.947 . S
C62 C119 1.392 . S
C63 C64 1.391 . S
C63 C67 1.397 . S
C63 C119 1.419 . S
C64 C60 1.391 1_554 S
C64 C63 1.391 . S
C64 C65 1.399 . S
C65 C64 1.399 . S
C65 C68 1.396 . S
C65 C77 1.453 . S
C65 C78 1.684 1_554 S
H66 C90 0.948 . S
C67 C63 1.397 . S
C67 C68 1.394 . S
C67 C86 1.723 . S
C68 C65 1.396 . S
C68 C67 1.394 . S
C68 C98 1.723 . S
H69 C92 0.947 . S
H70 C93 0.948 . S
H71 C99 0.982 . S
H72 C100 0.979 . S
H73 C100 0.980 . S
H74 C100 0.983 . S
H75 C99 0.979 . S
H76 C99 0.977 . S
C77 C65 1.453 . S
C77 H106 0.982 . S
C77 H107 0.979 1_554 S
C77 H108 0.977 . S
C78 C65 1.684 1_556 S
C78 H103 0.979 . S
C78 H104 0.980 . S
C78 H105 0.983 . S
C79 C80 1.391 . S
C79 C84 1.391 . S
C79 H109 0.948 . S
C80 C79 1.391 . S
C80 C81 1.391 . S
C81 C80 1.391 . S
C81 C82 1.392 . S
C81 H110 0.947 . S
C82 C81 1.392 . S
C82 C83 1.419 . S
C82 H111 0.948 . S
C83 C82 1.419 . S
C83 C84 1.391 . S
C83 C87 1.397 . S
C84 C79 1.391 . S
C84 C83 1.391 . S
C84 C85 1.399 . S
C85 C84 1.399 . S
C85 C86 1.396 . S
C85 C88 1.453 . S
C85 C89 1.684 . S
C86 C67 1.723 . S
C86 C85 1.396 . S
C86 C87 1.394 . S
C87 C83 1.397 . S
C87 C86 1.394 . S
C87 C97 1.723 . S
C88 C85 1.453 . S
C88 H112 0.982 . S
C88 H113 0.979 . S
C88 H114 0.977 . S
C89 C85 1.684 . S
C89 H115 0.979 . S
C89 H116 0.980 . S
C89 H117 0.983 . S
C90 H66 0.948 . S
C90 C91 1.391 . S
C90 C95 1.391 . S
C91 C90 1.391 . S
C91 C92 1.391 . S
C92 H69 0.947 . S
C92 C91 1.391 . S
C92 C93 1.392 . S
C93 H70 0.948 . S
C93 C92 1.392 . S
C93 C94 1.419 . S
C94 C93 1.419 . S
C94 C95 1.391 . S
C94 C98 1.397 . S
C95 C90 1.391 . S
C95 C94 1.391 . S
C95 C96 1.399 . S
C96 C95 1.399 . S
C96 C97 1.396 . S
C96 C99 1.453 . S
C96 C100 1.684 . S
C97 C87 1.723 . S
C97 C96 1.396 . S
C97 C98 1.394 . S
C98 C68 1.723 . S
C98 C94 1.397 . S
C98 C97 1.394 . S
C99 H71 0.982 . S
C99 H75 0.979 . S
C99 H76 0.977 . S
C99 C96 1.453 . S
C100 H72 0.979 . S
C100 H73 0.980 . S
C100 H74 0.983 . S
C100 C96 1.684 . S
H101 C119 0.948 . S
H102 C60 0.948 . S
H103 C78 0.979 . S
H104 C78 0.980 . S
H105 C78 0.983 . S
H106 C77 0.982 . S
H107 C77 0.979 1_556 S
H108 C77 0.977 . S
H109 C79 0.948 . S
H110 C81 0.947 . S
H111 C82 0.948 . S
H112 C88 0.982 . S
H113 C88 0.979 . S
H114 C88 0.977 . S
H115 C89 0.979 . S
H116 C89 0.980 . S
H117 C89 0.983 . S
H118 C62 0.947 . S
C119 C62 1.392 . S
C119 C63 1.419 . S
C119 H101 0.948 . S
C120 C121 1.391 . S
C120 C124 1.391 . S
C120 H162 0.948 . S
C121 C120 1.391 . S
C121 C122 1.391 . S
C122 C121 1.391 . S
C122 H178 0.947 . S
C122 C179 1.392 . S
C123 C124 1.391 . S
C123 C127 1.397 . S
C123 C179 1.419 . S
C124 C120 1.391 . S
C124 C123 1.391 . S
C124 C125 1.399 . S
C125 C124 1.399 . S
C125 C128 1.396 . S
C125 C137 1.453 . S
C125 C138 1.684 . S
H126 C150 0.948 . S
C127 C123 1.397 . S
C127 C128 1.394 . S
C127 C146 1.723 . S
C128 C125 1.396 . S
C128 C127 1.394 . S
C128 C158 1.723 . S
H129 C152 0.947 . S
H130 C153 0.948 . S
H131 C159 0.982 . S
H132 C160 0.979 . S
H133 C160 0.980 . S
H134 C160 0.983 . S
H135 C159 0.979 . S
H136 C159 0.977 . S
C137 C125 1.453 . S
C137 H166 0.982 . S
C137 H167 0.979 . S
C137 H168 0.977 . S
C138 C125 1.684 . S
C138 H163 0.979 . S
C138 H164 0.980 . S
C138 H165 0.983 . S
C139 C140 1.391 . S
C139 C144 1.391 1_556 S
C139 H169 0.948 . S
C140 C139 1.391 . S
C140 C141 1.391 1_556 S
C141 C140 1.391 1_554 S
C141 C142 1.392 . S
C141 H170 0.947 . S
C142 C141 1.392 . S
C142 C143 1.419 . S
C142 H171 0.948 . S
C143 C142 1.419 . S
C143 C144 1.391 . S
C143 C147 1.397 . S
C144 C139 1.391 1_554 S
C144 C143 1.391 . S
C144 C145 1.399 . S
C145 C144 1.399 . S
C145 C146 1.396 . S
C145 C148 1.453 . S
C145 C149 1.684 1_554 S
C146 C127 1.723 . S
C146 C145 1.396 . S
C146 C147 1.394 . S
C147 C143 1.397 . S
C147 C146 1.394 . S
C147 C157 1.723 . S
C148 C145 1.453 . S
C148 H172 0.982 . S
C148 H173 0.979 1_554 S
C148 H174 0.977 . S
C149 C145 1.684 1_556 S
C149 H175 0.979 . S
C149 H176 0.980 . S
C149 H177 0.983 . S
C150 H126 0.948 . S
C150 C151 1.391 . S
C150 C155 1.391 . S
C151 C150 1.391 . S
C151 C152 1.391 . S
C152 H129 0.947 . S
C152 C151 1.391 . S
C152 C153 1.392 . S
C153 H130 0.948 . S
C153 C152 1.392 . S
C153 C154 1.419 . S
C154 C153 1.419 . S
C154 C155 1.391 . S
C154 C158 1.397 . S
C155 C150 1.391 . S
C155 C154 1.391 . S
C155 C156 1.399 . S
C156 C155 1.399 . S
C156 C157 1.396 . S
C156 C159 1.453 . S
C156 C160 1.684 . S
C157 C147 1.723 . S
C157 C156 1.396 . S
C157 C158 1.394 . S
C158 C128 1.723 . S
C158 C154 1.397 . S
C158 C157 1.394 . S
C159 H131 0.982 . S
C159 H135 0.979 . S
C159 H136 0.977 . S
C159 C156 1.453 . S
C160 H132 0.979 . S
C160 H133 0.980 . S
C160 H134 0.983 . S
C160 C156 1.684 . S
H161 C179 0.948 . S
H162 C120 0.948 . S
H163 C138 0.979 . S
H164 C138 0.980 . S
H165 C138 0.983 . S
H166 C137 0.982 . S
H167 C137 0.979 . S
H168 C137 0.977 . S
H169 C139 0.948 . S
H170 C141 0.947 . S
H171 C142 0.948 . S
H172 C148 0.982 . S
H173 C148 0.979 1_556 S
H174 C148 0.977 . S
H175 C149 0.979 . S
H176 C149 0.980 . S
H177 C149 0.983 . S
H178 C122 0.947 . S
C179 C122 1.392 . S
C179 C123 1.419 . S
C179 H161 0.948 . S
C180 C181 1.391 . S
C180 C184 1.391 . S
C180 H222 0.948 . S
C181 C180 1.391 . S
C181 C182 1.391 . S
C182 C181 1.391 . S
C182 H238 0.947 . S
C182 C239 1.392 . S
C183 C184 1.391 . S
C183 C187 1.397 . S
C183 C239 1.419 . S
C184 C180 1.391 . S
C184 C183 1.391 . S
C184 C185 1.399 . S
C185 C184 1.399 . S
C185 C188 1.396 . S
C185 C197 1.453 . S
C185 C198 1.684 . S
H186 C210 0.948 . S
C187 C183 1.397 . S
C187 C188 1.394 . S
C187 C206 1.723 . S
C188 C185 1.396 . S
C188 C187 1.394 . S
C188 C218 1.723 . S
H189 C212 0.947 . S
H190 C213 0.948 . S
H191 C219 0.982 . S
H192 C220 0.979 1_554 S
H193 C220 0.980 . S
H194 C220 0.983 . S
H195 C219 0.979 1_556 S
H196 C219 0.977 1_556 S
C197 C185 1.453 . S
C197 H226 0.982 . S
C197 H227 0.979 . S
C197 H228 0.977 . S
C198 C185 1.684 . S
C198 H223 0.979 . S
C198 H224 0.980 . S
C198 H225 0.983 . S
C199 C200 1.391 1_554 S
C199 C204 1.391 . S
C199 H229 0.948 . S
C200 C199 1.391 1_556 S
C200 C201 1.391 . S
C201 C200 1.391 . S
C201 C202 1.392 . S
C201 H230 0.947 . S
C202 C201 1.392 . S
C202 C203 1.419 1_556 S
C202 H231 0.948 . S
C203 C202 1.419 1_554 S
C203 C204 1.391 . S
C203 C207 1.397 . S
C204 C199 1.391 . S
C204 C203 1.391 . S
C204 C205 1.399 . S
C205 C204 1.399 . S
C205 C206 1.396 . S
C205 C208 1.453 . S
C205 C209 1.684 . S
C206 C187 1.723 . S
C206 C205 1.396 . S
C206 C207 1.394 . S
C207 C203 1.397 . S
C207 C206 1.394 . S
C207 C217 1.723 . S
C208 C205 1.453 . S
C208 H232 0.982 . S
C208 H233 0.979 . S
C208 H234 0.977 . S
C209 C205 1.684 . S
C209 H235 0.979 . S
C209 H236 0.980 . S
C209 H237 0.983 . S
C210 H186 0.948 . S
C210 C211 1.391 . S
C210 C215 1.391 . S
C211 C210 1.391 . S
C211 C212 1.391 . S
C212 H189 0.947 . S
C212 C211 1.391 . S
C212 C213 1.392 . S
C213 H190 0.948 . S
C213 C212 1.392 . S
C213 C214 1.419 . S
C214 C213 1.419 . S
C214 C215 1.391 . S
C214 C218 1.397 . S
C215 C210 1.391 . S
C215 C214 1.391 . S
C215 C216 1.399 . S
C216 C215 1.399 . S
C216 C217 1.396 . S
C216 C219 1.453 . S
C216 C220 1.684 1_554 S
C217 C207 1.723 . S
C217 C216 1.396 . S
C217 C218 1.394 . S
C218 C188 1.723 . S
C218 C214 1.397 . S
C218 C217 1.394 . S
C219 H191 0.982 . S
C219 H195 0.979 1_554 S
C219 H196 0.977 1_554 S
C219 C216 1.453 . S
C220 H192 0.979 1_556 S
C220 H193 0.980 . S
C220 H194 0.983 . S
C220 C216 1.684 1_556 S
H221 C239 0.948 . S
H222 C180 0.948 . S
H223 C198 0.979 . S
H224 C198 0.980 . S
H225 C198 0.983 . S
H226 C197 0.982 . S
H227 C197 0.979 . S
H228 C197 0.977 . S
H229 C199 0.948 . S
H230 C201 0.947 . S
H231 C202 0.948 . S
H232 C208 0.982 . S
H233 C208 0.979 . S
H234 C208 0.977 . S
H235 C209 0.979 . S
H236 C209 0.980 . S
H237 C209 0.983 . S
H238 C182 0.947 . S
C239 C182 1.392 . S
C239 C183 1.419 . S
C239 H221 0.948 . S
C240 C241 1.391 . S
C240 C244 1.391 . S
C240 H282 0.948 1_554 S
C241 C240 1.391 . S
C241 C242 1.391 . S
C242 C241 1.391 . S
C242 H298 0.947 . S
C242 C299 1.392 . S
C243 C244 1.391 . S
C243 C247 1.397 . S
C243 C299 1.419 . S
C244 C240 1.391 . S
C244 C243 1.391 . S
C244 C245 1.399 1_554 S
C245 C244 1.399 1_556 S
C245 C248 1.396 . S
C245 C257 1.453 . S
C245 C258 1.684 . S
H246 C270 0.948 . S
C247 C243 1.397 . S
C247 C248 1.394 1_554 S
C247 C266 1.723 . S
C248 C245 1.396 . S
C248 C247 1.394 1_556 S
C248 C278 1.723 . S
H249 C272 0.947 . S
H250 C273 0.948 . S
H251 C279 0.982 . S
H252 C280 0.979 . S
H253 C280 0.980 . S
H254 C280 0.983 . S
H255 C279 0.979 . S
H256 C279 0.977 . S
C257 C245 1.453 . S
C257 H286 0.982 . S
C257 H287 0.979 . S
C257 H288 0.977 . S
C258 C245 1.684 . S
C258 H283 0.979 . S
C258 H284 0.980 . S
C258 H285 0.983 . S
C259 C260 1.391 . S
C259 C264 1.391 . S
C259 H289 0.948 . S
C260 C259 1.391 . S
C260 C261 1.391 . S
C261 C260 1.391 . S
C261 C262 1.392 . S
C261 H290 0.947 . S
C262 C261 1.392 . S
C262 C263 1.419 . S
C262 H291 0.948 . S
C263 C262 1.419 . S
C263 C264 1.391 . S
C263 C267 1.397 . S
C264 C259 1.391 . S
C264 C263 1.391 . S
C264 C265 1.399 . S
C265 C264 1.399 . S
C265 C266 1.396 . S
C265 C268 1.453 . S
C265 C269 1.684 . S
C266 C247 1.723 . S
C266 C265 1.396 . S
C266 C267 1.394 . S
C267 C263 1.397 . S
C267 C266 1.394 . S
C267 C277 1.723 1_554 S
C268 C265 1.453 . S
C268 H292 0.982 . S
C268 H293 0.979 . S
C268 H294 0.977 . S
C269 C265 1.684 . S
C269 H295 0.979 . S
C269 H296 0.980 . S
C269 H297 0.983 . S
C270 H246 0.948 . S
C270 C271 1.391 . S
C270 C275 1.391 . S
C271 C270 1.391 . S
C271 C272 1.391 . S
C272 H249 0.947 . S
C272 C271 1.391 . S
C272 C273 1.392 . S
C273 H250 0.948 . S
C273 C272 1.392 . S
C273 C274 1.419 . S
C274 C273 1.419 . S
C274 C275 1.391 . S
C274 C278 1.397 . S
C275 C270 1.391 . S
C275 C274 1.391 . S
C275 C276 1.399 . S
C276 C275 1.399 . S
C276 C277 1.396 . S
C276 C279 1.453 . S
C276 C280 1.684 . S
C277 C267 1.723 1_556 S
C277 C276 1.396 . S
C277 C278 1.394 . S
C278 C248 1.723 . S
C278 C274 1.397 . S
C278 C277 1.394 . S
C279 H251 0.982 . S
C279 H255 0.979 . S
C279 H256 0.977 . S
C279 C276 1.453 . S
C280 H252 0.979 . S
C280 H253 0.980 . S
C280 H254 0.983 . S
C280 C276 1.684 . S
H281 C299 0.948 . S
H282 C240 0.948 1_556 S
H283 C258 0.979 . S
H284 C258 0.980 . S
H285 C258 0.983 . S
H286 C257 0.982 . S
H287 C257 0.979 . S
H288 C257 0.977 . S
H289 C259 0.948 . S
H290 C261 0.947 . S
H291 C262 0.948 . S
H292 C268 0.982 . S
H293 C268 0.979 . S
H294 C268 0.977 . S
H295 C269 0.979 . S
H296 C269 0.980 . S
H297 C269 0.983 . S
H298 C242 0.947 . S
C299 C242 1.392 . S
C299 C243 1.419 . S
C299 H281 0.948 . S
C300 C301 1.391 . S
C300 C304 1.391 . S
C300 H342 0.948 . S
C301 C300 1.391 . S
C301 C302 1.391 . S
C302 C301 1.391 . S
C302 H358 0.947 . S
C302 C359 1.392 . S
C303 C304 1.391 . S
C303 C307 1.397 . S
C303 C359 1.419 . S
C304 C300 1.391 . S
C304 C303 1.391 . S
C304 C305 1.399 . S
C305 C304 1.399 . S
C305 C308 1.396 . S
C305 C317 1.453 . S
C305 C318 1.684 . S
H306 C330 0.948 1_556 S
C307 C303 1.397 . S
C307 C308 1.394 . S
C307 C326 1.723 1_554 S
C308 C305 1.396 . S
C308 C307 1.394 . S
C308 C338 1.723 . S
H309 C332 0.947 . S
H310 C333 0.948 . S
H311 C339 0.982 . S
H312 C340 0.979 . S
H313 C340 0.980 . S
H314 C340 0.983 . S
H315 C339 0.979 . S
H316 C339 0.977 . S
C317 C305 1.453 . S
C317 H346 0.982 . S
C317 H347 0.979 . S
C317 H348 0.977 . S
C318 C305 1.684 . S
C318 H343 0.979 . S
C318 H344 0.980 . S
C318 H345 0.983 . S
C319 C320 1.391 . S
C319 C324 1.391 . S
C319 H349 0.948 . S
C320 C319 1.391 . S
C320 C321 1.391 . S
C321 C320 1.391 . S
C321 C322 1.392 . S
C321 H350 0.947 . S
C322 C321 1.392 . S
C322 C323 1.419 . S
C322 H351 0.948 . S
C323 C322 1.419 . S
C323 C324 1.391 . S
C323 C327 1.397 . S
C324 C319 1.391 . S
C324 C323 1.391 . S
C324 C325 1.399 . S
C325 C324 1.399 . S
C325 C326 1.396 . S
C325 C328 1.453 . S
C325 C329 1.684 . S
C326 C307 1.723 1_556 S
C326 C325 1.396 . S
C326 C327 1.394 . S
C327 C323 1.397 . S
C327 C326 1.394 . S
C327 C337 1.723 . S
C328 C325 1.453 . S
C328 H352 0.982 . S
C328 H353 0.979 . S
C328 H354 0.977 . S
C329 C325 1.684 . S
C329 H355 0.979 . S
C329 H356 0.980 . S
C329 H357 0.983 . S
C330 H306 0.948 1_554 S
C330 C331 1.391 . S
C330 C335 1.391 . S
C331 C330 1.391 . S
C331 C332 1.391 . S
C332 H309 0.947 . S
C332 C331 1.391 . S
C332 C333 1.392 . S
C333 H310 0.948 . S
C333 C332 1.392 . S
C333 C334 1.419 . S
C334 C333 1.419 . S
C334 C335 1.391 . S
C334 C338 1.397 . S
C335 C330 1.391 . S
C335 C334 1.391 . S
C335 C336 1.399 1_554 S
C336 C335 1.399 1_556 S
C336 C337 1.396 . S
C336 C339 1.453 . S
C336 C340 1.684 . S
C337 C327 1.723 . S
C337 C336 1.396 . S
C337 C338 1.394 1_556 S
C338 C308 1.723 . S
C338 C334 1.397 . S
C338 C337 1.394 1_554 S
C339 H311 0.982 . S
C339 H315 0.979 . S
C339 H316 0.977 . S
C339 C336 1.453 . S
C340 H312 0.979 . S
C340 H313 0.980 . S
C340 H314 0.983 . S
C340 C336 1.684 . S
H341 C359 0.948 . S
H342 C300 0.948 . S
H343 C318 0.979 . S
H344 C318 0.980 . S
H345 C318 0.983 . S
H346 C317 0.982 . S
H347 C317 0.979 . S
H348 C317 0.977 . S
H349 C319 0.948 . S
H350 C321 0.947 . S
H351 C322 0.948 . S
H352 C328 0.982 . S
H353 C328 0.979 . S
H354 C328 0.977 . S
H355 C329 0.979 . S
H356 C329 0.980 . S
H357 C329 0.983 . S
H358 C302 0.947 . S
C359 C302 1.392 . S
C359 C303 1.419 . S
C359 H341 0.948 . S
C360 C361 1.391 . S
C360 C364 1.391 . S
C360 H402 0.948 . S
C361 C360 1.391 . S
C361 C362 1.391 . S
C362 C361 1.391 . S
C362 H418 0.947 . S
C362 C419 1.392 . S
C363 C364 1.391 . S
C363 C367 1.397 . S
C363 C419 1.419 . S
C364 C360 1.391 . S
C364 C363 1.391 . S
C364 C365 1.399 . S
C365 C364 1.399 . S
C365 C368 1.396 . S
C365 C377 1.453 . S
C365 C378 1.684 . S
H366 C390 0.948 . S
C367 C363 1.397 . S
C367 C368 1.394 . S
C367 C386 1.723 1_556 S
C368 C365 1.396 . S
C368 C367 1.394 . S
C368 C398 1.723 1_556 S
H369 C392 0.947 . S
H370 C393 0.948 . S
H371 C399 0.982 . S
H372 C400 0.979 . S
H373 C400 0.980 . S
H374 C400 0.983 . S
H375 C399 0.979 . S
H376 C399 0.977 . S
C377 C365 1.453 . S
C377 H406 0.982 . S
C377 H407 0.979 . S
C377 H408 0.977 . S
C378 C365 1.684 . S
C378 H403 0.979 . S
C378 H404 0.980 . S
C378 H405 0.983 . S
C379 C380 1.391 . S
C379 C384 1.391 . S
C379 H409 0.948 . S
C380 C379 1.391 . S
C380 C381 1.391 . S
C381 C380 1.391 . S
C381 C382 1.392 . S
C381 H410 0.947 . S
C382 C381 1.392 . S
C382 C383 1.419 . S
C382 H411 0.948 . S
C383 C382 1.419 . S
C383 C384 1.391 . S
C383 C387 1.397 . S
C384 C379 1.391 . S
C384 C383 1.391 . S
C384 C385 1.399 . S
C385 C384 1.399 . S
C385 C386 1.396 . S
C385 C388 1.453 . S
C385 C389 1.683 1_554 S
C386 C367 1.723 1_554 S
C386 C385 1.396 . S
C386 C387 1.394 . S
C387 C383 1.397 . S
C387 C386 1.394 . S
C387 C397 1.723 . S
C388 C385 1.453 . S
C388 H412 0.982 . S
C388 H413 0.979 . S
C388 H414 0.977 1_554 S
C389 C385 1.683 1_556 S
C389 H415 0.978 1_556 S
C389 H416 0.981 . S
C389 H417 0.983 1_556 S
C390 H366 0.948 . S
C390 C391 1.391 . S
C390 C395 1.391 . S
C391 C390 1.391 . S
C391 C392 1.391 1_554 S
C392 H369 0.947 . S
C392 C391 1.391 1_556 S
C392 C393 1.392 . S
C393 H370 0.948 . S
C393 C392 1.392 . S
C393 C394 1.419 1_556 S
C394 C393 1.419 1_554 S
C394 C395 1.391 . S
C394 C398 1.397 . S
C395 C390 1.391 . S
C395 C394 1.391 . S
C395 C396 1.399 . S
C396 C395 1.399 . S
C396 C397 1.396 . S
C396 C399 1.453 . S
C396 C400 1.684 . S
C397 C387 1.723 . S
C397 C396 1.396 . S
C397 C398 1.394 . S
C398 C368 1.723 1_554 S
C398 C394 1.397 . S
C398 C397 1.394 . S
C399 H371 0.982 . S
C399 H375 0.979 . S
C399 H376 0.977 . S
C399 C396 1.453 . S
C400 H372 0.979 . S
C400 H373 0.980 . S
C400 H374 0.983 . S
C400 C396 1.684 . S
H401 C419 0.948 . S
H402 C360 0.948 . S
H403 C378 0.979 . S
H404 C378 0.980 . S
H405 C378 0.983 . S
H406 C377 0.982 . S
H407 C377 0.979 . S
H408 C377 0.977 . S
H409 C379 0.948 . S
H410 C381 0.947 . S
H411 C382 0.948 . S
H412 C388 0.982 . S
H413 C388 0.979 . S
H414 C388 0.977 1_556 S
H415 C389 0.978 1_554 S
H416 C389 0.981 . S
H417 C389 0.983 1_554 S
H418 C362 0.947 . S
C419 C362 1.392 . S
C419 C363 1.419 . S
C419 H401 0.948 . S
C420 C421 1.391 . S
C420 C424 1.391 . S
C420 H462 0.948 . S
C421 C420 1.391 . S
C421 C422 1.391 . S
C422 C421 1.391 . S
C422 H478 0.947 . S
C422 C479 1.392 . S
C423 C424 1.391 . S
C423 C427 1.397 . S
C423 C479 1.419 . S
C424 C420 1.391 . S
C424 C423 1.391 . S
C424 C425 1.399 . S
C425 C424 1.399 . S
C425 C428 1.396 . S
C425 C437 1.453 . S
C425 C438 1.684 . S
H426 C450 0.948 . S
C427 C423 1.397 . S
C427 C428 1.394 . S
C427 C446 1.723 1_556 S
C428 C425 1.396 . S
C428 C427 1.394 . S
C428 C458 1.723 1_556 S
H429 C452 0.947 1_556 S
H430 C453 0.948 . S
H431 C459 0.982 . S
H432 C460 0.979 . S
H433 C460 0.980 . S
H434 C460 0.983 . S
H435 C459 0.979 . S
H436 C459 0.977 . S
C437 C425 1.453 . S
C437 H466 0.982 . S
C437 H467 0.979 . S
C437 H468 0.977 . S
C438 C425 1.684 . S
C438 H463 0.979 . S
C438 H464 0.980 . S
C438 H465 0.983 . S
C439 C440 1.391 . S
C439 C444 1.391 . S
C439 H469 0.948 . S
C440 C439 1.391 . S
C440 C441 1.391 . S
C441 C440 1.391 . S
C441 C442 1.392 . S
C441 H470 0.947 . S
C442 C441 1.392 . S
C442 C443 1.419 . S
C442 H471 0.948 . S
C443 C442 1.419 . S
C443 C444 1.391 . S
C443 C447 1.397 . S
C444 C439 1.391 . S
C444 C443 1.391 . S
C444 C445 1.399 . S
C445 C444 1.399 . S
C445 C446 1.396 . S
C445 C448 1.453 . S
C445 C449 1.684 . S
C446 C427 1.723 1_554 S
C446 C445 1.396 . S
C446 C447 1.394 . S
C447 C443 1.397 . S
C447 C446 1.394 . S
C447 C457 1.723 . S
C448 C445 1.453 . S
C448 H472 0.982 . S
C448 H473 0.979 . S
C448 H474 0.977 1_554 S
C449 C445 1.684 . S
C449 H475 0.979 . S
C449 H476 0.980 1_554 S
C449 H477 0.983 . S
C450 H426 0.948 . S
C450 C451 1.391 . S
C450 C455 1.391 . S
C451 C450 1.391 . S
C451 C452 1.391 . S
C452 H429 0.947 1_554 S
C452 C451 1.391 . S
C452 C453 1.392 1_554 S
C453 H430 0.948 . S
C453 C452 1.392 1_556 S
C453 C454 1.419 1_556 S
C454 C453 1.419 1_554 S
C454 C455 1.391 . S
C454 C458 1.397 . S
C455 C450 1.391 . S
C455 C454 1.391 . S
C455 C456 1.399 . S
C456 C455 1.399 . S
C456 C457 1.396 . S
C456 C459 1.453 . S
C456 C460 1.684 . S
C457 C447 1.723 . S
C457 C456 1.396 . S
C457 C458 1.394 . S
C458 C428 1.723 1_554 S
C458 C454 1.397 . S
C458 C457 1.394 . S
C459 H431 0.982 . S
C459 H435 0.979 . S
C459 H436 0.977 . S
C459 C456 1.453 . S
C460 H432 0.979 . S
C460 H433 0.980 . S
C460 H434 0.983 . S
C460 C456 1.684 . S
H461 C479 0.948 . S
H462 C420 0.948 . S
H463 C438 0.979 . S
H464 C438 0.980 . S
H465 C438 0.983 . S
H466 C437 0.982 . S
H467 C437 0.979 . S
H468 C437 0.977 . S
H469 C439 0.948 . S
H470 C441 0.947 . S
H471 C442 0.948 . S
H472 C448 0.982 . S
H473 C448 0.979 . S
H474 C448 0.977 1_556 S
H475 C449 0.979 . S
H476 C449 0.980 1_556 S
H477 C449 0.983 . S
H478 C422 0.947 . S
C479 C422 1.392 . S
C479 C423 1.419 . S
C479 H461 0.948 . S
Tb480 N511 2.660 1_565 S
Tb480 N518 2.600 . S
Tb480 O524 2.546 . S
Tb480 O525 2.610 1_455 S
Tb480 O527 2.320 1_455 S
Tb480 O528 2.552 . S
Tb480 O529 2.413 . S
Tb480 O531 2.362 1_565 S
Tb480 O532 2.421 . S
Tb480 C544 2.833 . S
C481 C484 1.417 1_545 S
C481 C485 1.414 . S
C481 N488 1.359 . S
C482 C484 1.437 . S
C482 C486 1.432 . S
C482 C494 1.410 . S
C483 C485 1.444 1_565 S
C483 C486 1.317 . S
C483 H506 0.929 . S
C484 C481 1.417 1_565 S
C484 C482 1.437 . S
C484 N492 1.354 1_565 S
C485 C481 1.414 . S
C485 C483 1.444 1_545 S
C485 C490 1.385 . S
C486 C482 1.432 . S
C486 C483 1.317 . S
C486 H498 0.930 . S
C487 C489 1.392 . S
C487 C490 1.370 . S
C487 H499 0.931 . S
N488 C481 1.359 . S
N488 C489 1.327 . S
N488 Tb491 2.600 . S
C489 C487 1.392 . S
C489 N488 1.327 . S
C489 H496 0.930 . S
C490 C485 1.385 . S
C490 C487 1.370 . S
C490 H509 0.930 . S
Tb491 N488 2.600 . S
Tb491 N492 2.660 . S
Tb491 O525 2.362 1_545 S
Tb491 O526 2.421 . S
Tb491 O530 2.546 . S
Tb491 O531 2.610 1_655 S
Tb491 O533 2.320 1_655 S
Tb491 O534 2.552 1_655 S
Tb491 O535 2.413 . S
Tb491 C555 2.833 . S
N492 C484 1.354 1_545 S
N492 Tb491 2.660 . S
N492 C493 1.305 1_645 S
C493 N492 1.305 1_465 S
C493 C495 1.407 . S
C493 H500 0.930 . S
C494 C482 1.410 . S
C494 C495 1.345 1_655 S
C494 H502 0.930 . S
C495 C493 1.407 . S
C495 C494 1.345 1_455 S
C495 H497 0.930 . S
H496 C489 0.930 . S
H497 C495 0.930 . S
H498 C486 0.930 . S
H499 C487 0.931 . S
H500 C493 0.930 . S
H501 C515 0.930 1_655 S
H502 C494 0.930 . S
H503 C521 0.930 . S
H504 C512 0.930 1_655 S
H505 C519 0.931 . S
H506 C483 0.929 . S
H507 C513 0.930 . S
H508 C546 0.930 . S
H509 C490 0.930 . S
H510 C545 0.929 . S
N511 Tb480 2.660 1_545 S
N511 C512 1.305 . S
N511 C516 1.360 . S
C512 H504 0.930 1_455 S
C512 N511 1.305 . S
C512 C515 1.407 . S
C513 H507 0.930 . S
C513 C514 1.410 . S
C513 C515 1.345 . S
C514 C513 1.410 . S
C514 C516 1.417 . S
C514 C546 1.432 . S
C515 H501 0.930 1_455 S
C515 C512 1.407 . S
C515 C513 1.345 . S
C516 N511 1.360 . S
C516 C514 1.417 . S
C516 C520 1.432 . S
H517 C522 0.930 . S
N518 Tb480 2.600 . S
N518 C520 1.359 1_565 S
N518 C521 1.327 . S
C519 H505 0.931 . S
C519 C521 1.392 . S
C519 C522 1.370 . S
C520 C516 1.432 . S
C520 N518 1.359 1_545 S
C520 C523 1.414 . S
C521 H503 0.930 . S
C521 N518 1.327 . S
C521 C519 1.392 . S
C522 H517 0.930 . S
C522 C519 1.370 . S
C522 C523 1.385 1_565 S
C523 C520 1.414 . S
C523 C522 1.385 1_545 S
C523 C545 1.444 . S
O524 Tb480 2.546 . S
O524 C544 1.251 . S
O525 Tb480 2.610 1_655 S
O525 Tb491 2.362 1_565 S
O525 C536 1.283 . S
O526 Tb491 2.421 . S
O526 C543 1.262 . S
O527 Tb480 2.320 1_655 S
O527 C543 1.260 1_565 S
O528 Tb480 2.552 . S
O528 C536 1.243 1_455 S
O529 Tb480 2.413 . S
O529 C544 1.256 . S
O530 Tb491 2.546 . S
O530 C555 1.251 . S
O531 Tb480 2.362 1_545 S
O531 Tb491 2.610 1_455 S
O531 C547 1.283 . S
O532 Tb480 2.421 . S
O532 C554 1.262 1_565 S
O533 Tb491 2.320 1_455 S
O533 C554 1.260 . S
O534 Tb491 2.552 1_455 S
O534 C547 1.243 . S
O535 Tb491 2.413 . S
O535 C555 1.256 . S
C536 O525 1.283 . S
C536 O528 1.243 1_655 S
C537 C539 1.382 . S
C537 C541 1.393 . S
C537 C544 1.500 . S
C538 C539 1.400 . S
C538 C540 1.384 . S
C539 C537 1.382 . S
C539 C538 1.400 . S
C539 H556 0.930 1_455 S
C540 C538 1.384 . S
C540 C542 1.392 . S
C540 H557 0.931 . S
C541 C537 1.393 . S
C541 C542 1.401 . S
C541 H558 0.930 . S
C542 C540 1.392 . S
C542 C541 1.401 . S
C542 H559 0.930 . S
C543 O526 1.262 . S
C543 O527 1.260 1_545 S
C544 Tb480 2.833 . S
C544 O524 1.251 . S
C544 O529 1.256 . S
C544 C537 1.500 . S
C545 H510 0.929 . S
C545 C523 1.444 . S
C545 C546 1.317 . S
C546 H508 0.930 . S
C546 C514 1.432 . S
C546 C545 1.317 . S
C547 O531 1.283 . S
C547 O534 1.243 . S
C548 C549 1.382 . S
C548 C552 1.393 . S
C548 C555 1.500 . S
C549 C548 1.382 . S
C549 C550 1.400 . S
C549 H560 0.930 1_655 S
C550 C549 1.400 . S
C550 C551 1.384 . S
C551 C550 1.384 . S
C551 C553 1.392 . S
C551 H561 0.931 . S
C552 C548 1.393 . S
C552 C553 1.401 . S
C552 H562 0.930 . S
C553 C551 1.392 . S
C553 C552 1.401 . S
C553 H563 0.930 . S
C554 O532 1.262 1_545 S
C554 O533 1.260 . S
C555 Tb491 2.833 . S
C555 O530 1.251 . S
C555 O535 1.256 . S
C555 C548 1.500 . S
H556 C539 0.930 1_655 S
H557 C540 0.931 . S
H558 C541 0.930 . S
H559 C542 0.930 . S
H560 C549 0.930 1_455 S
H561 C551 0.931 . S
H562 C552 0.930 . S
H563 C553 0.930 . S
Tb564 N595 2.660 . S
Tb564 N602 2.600 . S
Tb564 O608 2.546 . S
Tb564 O609 2.610 1_545 S
Tb564 O611 2.320 1_545 S
Tb564 O612 2.552 . S
Tb564 O613 2.413 . S
Tb564 O615 2.362 . S
Tb564 O616 2.421 . S
Tb564 C628 2.833 . S
C565 C568 1.432 . S
C565 C569 1.414 . S
C565 N572 1.359 . S
C566 C568 1.417 . S
C566 C570 1.432 . S
C566 C578 1.410 . S
C567 C569 1.444 . S
C567 C570 1.317 . S
C567 H590 0.929 . S
C568 C565 1.432 . S
C568 C566 1.417 . S
C568 N576 1.360 . S
C569 C565 1.414 . S
C569 C567 1.444 . S
C569 C574 1.385 . S
C570 C566 1.432 . S
C570 C567 1.317 . S
C570 H582 0.930 . S
C571 C573 1.392 . S
C571 C574 1.370 . S
C571 H583 0.931 . S
N572 C565 1.359 . S
N572 C573 1.327 . S
N572 Tb575 2.600 . S
C573 C571 1.392 . S
C573 N572 1.327 . S
C573 H580 0.930 . S
C574 C569 1.385 . S
C574 C571 1.370 . S
C574 H593 0.930 . S
Tb575 N572 2.600 . S
Tb575 N576 2.660 . S
Tb575 O609 2.362 . S
Tb575 O610 2.421 . S
Tb575 O614 2.546 . S
Tb575 O615 2.610 1_565 S
Tb575 O617 2.320 1_565 S
Tb575 O618 2.552 1_565 S
Tb575 O619 2.413 . S
Tb575 C639 2.833 . S
N576 C568 1.360 . S
N576 Tb575 2.660 . S
N576 C577 1.305 1_565 S
C577 N576 1.305 1_545 S
C577 C579 1.407 . S
C577 H584 0.930 . S
C578 C566 1.410 . S
C578 C579 1.345 1_565 S
C578 H586 0.930 . S
C579 C577 1.407 . S
C579 C578 1.345 1_545 S
C579 H581 0.930 . S
H580 C573 0.930 . S
H581 C579 0.930 . S
H582 C570 0.930 . S
H583 C571 0.931 . S
H584 C577 0.930 . S
H585 C599 0.930 1_565 S
H586 C578 0.930 . S
H587 C605 0.930 . S
H588 C596 0.930 1_565 S
H589 C603 0.931 . S
H590 C567 0.929 . S
H591 C597 0.930 . S
H592 C630 0.930 . S
H593 C574 0.930 . S
H594 C629 0.929 . S
N595 Tb564 2.660 . S
N595 C596 1.305 . S
N595 C600 1.360 . S
C596 H588 0.930 1_545 S
C596 N595 1.305 . S
C596 C599 1.407 . S
C597 H591 0.930 . S
C597 C598 1.410 . S
C597 C599 1.345 . S
C598 C597 1.410 . S
C598 C600 1.417 . S
C598 C630 1.432 . S
C599 H585 0.930 1_545 S
C599 C596 1.407 . S
C599 C597 1.345 . S
C600 N595 1.360 . S
C600 C598 1.417 . S
C600 C604 1.432 . S
H601 C606 0.930 . S
N602 Tb564 2.600 . S
N602 C604 1.359 . S
N602 C605 1.327 . S
C603 H589 0.931 . S
C603 C605 1.392 . S
C603 C606 1.370 . S
C604 C600 1.432 . S
C604 N602 1.359 . S
C604 C607 1.414 . S
C605 H587 0.930 . S
C605 N602 1.327 . S
C605 C603 1.392 . S
C606 H601 0.930 . S
C606 C603 1.370 . S
C606 C607 1.385 . S
C607 C604 1.414 . S
C607 C606 1.385 . S
C607 C629 1.444 . S
O608 Tb564 2.546 . S
O608 C628 1.251 . S
O609 Tb564 2.610 1_565 S
O609 Tb575 2.362 . S
O609 C620 1.283 . S
O610 Tb575 2.421 . S
O610 C627 1.262 . S
O611 Tb564 2.320 1_565 S
O611 C627 1.260 . S
O612 Tb564 2.552 . S
O612 C620 1.243 1_545 S
O613 Tb564 2.413 . S
O613 C628 1.256 . S
O614 Tb575 2.546 . S
O614 C639 1.251 . S
O615 Tb564 2.362 . S
O615 Tb575 2.610 1_545 S
O615 C631 1.283 . S
O616 Tb564 2.421 . S
O616 C638 1.262 . S
O617 Tb575 2.320 1_545 S
O617 C638 1.260 . S
O618 Tb575 2.552 1_545 S
O618 C631 1.243 . S
O619 Tb575 2.413 . S
O619 C639 1.256 . S
C620 O609 1.283 . S
C620 O612 1.243 1_565 S
C621 C623 1.382 . S
C621 C625 1.393 . S
C621 C628 1.500 . S
C622 C623 1.400 . S
C622 C624 1.384 . S
C623 C621 1.382 . S
C623 C622 1.400 . S
C623 H640 0.949 . S
C624 C622 1.384 . S
C624 C626 1.392 . S
C624 H641 0.931 . S
C625 C621 1.393 . S
C625 C626 1.401 . S
C625 H642 0.930 . S
C626 C624 1.392 . S
C626 C625 1.401 . S
C626 H643 0.930 . S
C627 O610 1.262 . S
C627 O611 1.260 . S
C628 Tb564 2.833 . S
C628 O608 1.251 . S
C628 O613 1.256 . S
C628 C621 1.500 . S
C629 H594 0.929 . S
C629 C607 1.444 . S
C629 C630 1.317 . S
C630 H592 0.930 . S
C630 C598 1.432 . S
C630 C629 1.317 . S
C631 O615 1.283 . S
C631 O618 1.243 . S
C632 C633 1.382 . S
C632 C636 1.393 . S
C632 C639 1.500 . S
C633 C632 1.382 . S
C633 C634 1.400 . S
C633 H644 0.930 1_565 S
C634 C633 1.400 . S
C634 C635 1.384 . S
C635 C634 1.384 . S
C635 C637 1.392 . S
C635 H645 0.931 . S
C636 C632 1.393 . S
C636 C637 1.401 . S
C636 H646 0.930 . S
C637 C635 1.392 . S
C637 C636 1.401 . S
C637 H647 0.930 . S
C638 O616 1.262 . S
C638 O617 1.260 . S
C639 Tb575 2.833 . S
C639 O614 1.251 . S
C639 O619 1.256 . S
C639 C632 1.500 . S
H640 C623 0.949 . S
H641 C624 0.931 . S
H642 C625 0.930 . S
H643 C626 0.930 . S
H644 C633 0.930 1_545 S
H645 C635 0.931 . S
H646 C636 0.930 . S
H647 C637 0.930 . S
Tb648 N679 2.660 . S
Tb648 N686 2.600 . S
Tb648 O692 2.546 . S
Tb648 O693 2.610 . S
Tb648 O695 2.320 . S
Tb648 O696 2.552 . S
Tb648 O697 2.413 . S
Tb648 O699 2.362 . S
Tb648 O700 2.421 . S
Tb648 C712 2.833 . S
C649 C652 1.432 . S
C649 C653 1.414 . S
C649 N656 1.359 . S
C650 C652 1.417 . S
C650 C654 1.432 . S
C650 C662 1.410 . S
C651 C653 1.444 . S
C651 C654 1.317 . S
C651 H674 0.929 . S
C652 C649 1.432 . S
C652 C650 1.417 . S
C652 N660 1.360 . S
C653 C649 1.414 . S
C653 C651 1.444 . S
C653 C658 1.385 . S
C654 C650 1.432 . S
C654 C651 1.317 . S
C654 H666 0.930 . S
C655 C657 1.392 . S
C655 C658 1.370 . S
C655 H667 0.931 . S
N656 C649 1.359 . S
N656 C657 1.327 . S
N656 Tb659 2.600 . S
C657 C655 1.392 . S
C657 N656 1.327 . S
C657 H664 0.930 . S
C658 C653 1.385 . S
C658 C655 1.370 . S
C658 H677 0.930 . S
Tb659 N656 2.600 . S
Tb659 N660 2.660 . S
Tb659 O693 2.362 . S
Tb659 O694 2.421 . S
Tb659 O698 2.546 . S
Tb659 O699 2.610 . S
Tb659 O701 2.320 . S
Tb659 O702 2.552 . S
Tb659 O703 2.413 . S
Tb659 C723 2.833 . S
N660 C652 1.360 . S
N660 Tb659 2.660 . S
N660 C661 1.305 . S
C661 N660 1.305 . S
C661 C663 1.407 . S
C661 H668 0.930 . S
C662 C650 1.410 . S
C662 C663 1.345 . S
C662 H670 0.930 . S
C663 C661 1.407 . S
C663 C662 1.345 . S
C663 H665 0.930 . S
H664 C657 0.930 . S
H665 C663 0.930 . S
H666 C654 0.930 . S
H667 C655 0.931 . S
H668 C661 0.930 . S
H669 C683 0.930 . S
H670 C662 0.930 . S
H671 C689 0.930 . S
H672 C680 0.930 . S
H673 C687 0.931 . S
H674 C651 0.929 . S
H675 C681 0.930 . S
H676 C714 0.930 . S
H677 C658 0.930 . S
H678 C713 0.929 . S
N679 Tb648 2.660 . S
N679 C680 1.305 . S
N679 C684 1.360 . S
C680 H672 0.930 . S
C680 N679 1.305 . S
C680 C683 1.407 . S
C681 H675 0.930 . S
C681 C682 1.410 . S
C681 C683 1.345 . S
C682 C681 1.410 . S
C682 C684 1.417 . S
C682 C714 1.432 . S
C683 H669 0.930 . S
C683 C680 1.407 . S
C683 C681 1.345 . S
C684 N679 1.360 . S
C684 C682 1.417 . S
C684 C688 1.432 . S
H685 C690 0.930 . S
N686 Tb648 2.600 . S
N686 C688 1.359 . S
N686 C689 1.327 . S
C687 H673 0.931 . S
C687 C689 1.392 . S
C687 C690 1.370 . S
C688 C684 1.432 . S
C688 N686 1.359 . S
C688 C691 1.414 . S
C689 H671 0.930 . S
C689 N686 1.327 . S
C689 C687 1.392 . S
C690 H685 0.930 . S
C690 C687 1.370 . S
C690 C691 1.385 . S
C691 C688 1.414 . S
C691 C690 1.385 . S
C691 C713 1.444 . S
O692 Tb648 2.546 . S
O692 C712 1.251 . S
O693 Tb648 2.610 . S
O693 Tb659 2.362 . S
O693 C704 1.283 . S
O694 Tb659 2.421 . S
O694 C711 1.262 . S
O695 Tb648 2.320 . S
O695 C711 1.260 . S
O696 Tb648 2.552 . S
O696 C704 1.243 . S
O697 Tb648 2.413 . S
O697 C712 1.256 . S
O698 Tb659 2.546 . S
O698 C723 1.251 . S
O699 Tb648 2.362 . S
O699 Tb659 2.610 . S
O699 C715 1.283 . S
O700 Tb648 2.421 . S
O700 C722 1.262 . S
O701 Tb659 2.320 . S
O701 C722 1.260 . S
O702 Tb659 2.552 . S
O702 C715 1.243 . S
O703 Tb659 2.413 . S
O703 C723 1.256 . S
C704 O693 1.283 . S
C704 O696 1.243 . S
C705 C707 1.382 . S
C705 C709 1.393 . S
C705 C712 1.500 . S
C706 C707 1.400 . S
C706 C708 1.384 . S
C707 C705 1.382 . S
C707 C706 1.400 . S
C707 H724 0.930 . S
C708 C706 1.384 . S
C708 C710 1.392 . S
C708 H725 0.931 . S
C709 C705 1.393 . S
C709 C710 1.401 . S
C709 H726 0.930 . S
C710 C708 1.392 . S
C710 C709 1.401 . S
C710 H727 0.930 . S
C711 O694 1.262 . S
C711 O695 1.260 . S
C712 Tb648 2.833 . S
C712 O692 1.251 . S
C712 O697 1.256 . S
C712 C705 1.500 . S
C713 H678 0.929 . S
C713 C691 1.444 . S
C713 C714 1.317 . S
C714 H676 0.930 . S
C714 C682 1.432 . S
C714 C713 1.317 . S
C715 O699 1.283 . S
C715 O702 1.243 . S
C716 C717 1.382 . S
C716 C720 1.393 . S
C716 C723 1.500 . S
C717 C716 1.382 . S
C717 C718 1.400 . S
C717 H728 0.930 . S
C718 C717 1.400 . S
C718 C719 1.384 . S
C719 C718 1.384 . S
C719 C721 1.392 . S
C719 H729 0.931 . S
C720 C716 1.393 . S
C720 C721 1.401 . S
C720 H730 0.930 . S
C721 C719 1.392 . S
C721 C720 1.401 . S
C721 H731 0.930 . S
C722 O700 1.262 . S
C722 O701 1.260 . S
C723 Tb659 2.833 . S
C723 O698 1.251 . S
C723 O703 1.256 . S
C723 C716 1.500 . S
H724 C707 0.930 . S
H725 C708 0.931 . S
H726 C709 0.930 . S
H727 C710 0.930 . S
H728 C717 0.930 . S
H729 C719 0.931 . S
H730 C720 0.930 . S
H731 C721 0.930 . S
Tb732 N763 2.660 . S
Tb732 N770 2.600 . S
Tb732 O776 2.546 . S
Tb732 O777 2.610 . S
Tb732 O779 2.320 . S
Tb732 O780 2.552 . S
Tb732 O781 2.413 . S
Tb732 O783 2.395 . S
Tb732 O784 2.421 1_455 S
Tb732 C796 2.833 . S
C733 C736 1.432 . S
C733 C737 1.414 . S
C733 N740 1.359 . S
C734 C736 1.417 . S
C734 C738 1.432 . S
C734 C746 1.410 . S
C735 C737 1.444 . S
C735 C738 1.317 . S
C735 H758 0.929 . S
C736 C733 1.432 . S
C736 C734 1.417 . S
C736 N744 1.360 . S
C737 C733 1.414 . S
C737 C735 1.444 . S
C737 C742 1.385 . S
C738 C734 1.432 . S
C738 C735 1.317 . S
C738 H750 0.930 . S
C739 C741 1.392 . S
C739 C742 1.370 1_455 S
C739 H751 0.931 . S
N740 C733 1.359 . S
N740 C741 1.327 1_655 S
N740 Tb743 2.600 . S
C741 C739 1.392 . S
C741 N740 1.327 1_455 S
C741 H748 0.930 . S
C742 C737 1.385 . S
C742 C739 1.370 1_655 S
C742 H761 0.930 . S
Tb743 N740 2.600 . S
Tb743 N744 2.660 . S
Tb743 O777 2.362 1_655 S
Tb743 O778 2.421 1_655 S
Tb743 O782 2.546 . S
Tb743 O783 2.589 1_655 S
Tb743 O785 2.320 . S
Tb743 O786 2.552 . S
Tb743 O787 2.413 . S
Tb743 C807 2.833 . S
N744 C736 1.360 . S
N744 Tb743 2.660 . S
N744 C745 1.305 . S
C745 N744 1.305 . S
C745 C747 1.407 . S
C745 H752 0.930 . S
C746 C734 1.410 . S
C746 C747 1.345 . S
C746 H754 0.930 . S
C747 C745 1.407 . S
C747 C746 1.345 . S
C747 H749 0.930 . S
H748 C741 0.930 . S
H749 C747 0.930 . S
H750 C738 0.930 . S
H751 C739 0.931 . S
H752 C745 0.930 . S
H753 C767 0.930 . S
H754 C746 0.930 . S
H755 C773 0.930 1_655 S
H756 C764 0.930 . S
H757 C771 0.931 1_655 S
H758 C735 0.929 . S
H759 C765 0.930 . S
H760 C798 0.930 . S
H761 C742 0.930 . S
H762 C797 0.929 . S
N763 Tb732 2.660 . S
N763 C764 1.305 . S
N763 C768 1.360 . S
C764 H756 0.930 . S
C764 N763 1.305 . S
C764 C767 1.407 . S
C765 H759 0.930 . S
C765 C766 1.410 . S
C765 C767 1.345 . S
C766 C765 1.410 . S
C766 C768 1.417 . S
C766 C798 1.432 . S
C767 H753 0.930 . S
C767 C764 1.407 . S
C767 C765 1.345 . S
C768 N763 1.360 . S
C768 C766 1.417 . S
C768 C772 1.432 . S
H769 C774 0.930 . S
N770 Tb732 2.600 . S
N770 C772 1.359 . S
N770 C773 1.327 . S
C771 H757 0.931 1_455 S
C771 C773 1.392 . S
C771 C774 1.370 . S
C772 C768 1.432 . S
C772 N770 1.359 . S
C772 C775 1.414 . S
C773 H755 0.930 1_455 S
C773 N770 1.327 . S
C773 C771 1.392 . S
C774 H769 0.930 . S
C774 C771 1.370 . S
C774 C775 1.385 . S
C775 C772 1.414 . S
C775 C774 1.385 . S
C775 C797 1.444 . S
O776 Tb732 2.546 . S
O776 C796 1.251 . S
O777 Tb732 2.610 . S
O777 Tb743 2.362 1_455 S
O777 C788 1.283 . S
O778 Tb743 2.421 1_455 S
O778 C795 1.262 . S
O779 Tb732 2.320 . S
O779 C795 1.260 . S
O780 Tb732 2.552 . S
O780 C788 1.243 . S
O781 Tb732 2.413 . S
O781 C796 1.256 . S
O782 Tb743 2.546 . S
O782 C807 1.251 . S
O783 Tb732 2.395 . S
O783 Tb743 2.589 1_455 S
O783 C799 1.260 1_455 S
O784 Tb732 2.421 1_655 S
O784 C806 1.262 . S
O785 Tb743 2.320 . S
O785 C806 1.260 . S
O786 Tb743 2.552 . S
O786 C799 1.243 . S
O787 Tb743 2.413 . S
O787 C807 1.256 . S
C788 O777 1.283 . S
C788 O780 1.243 . S
C789 C791 1.382 . S
C789 C793 1.393 . S
C789 C796 1.500 . S
C790 C791 1.400 . S
C790 C792 1.384 . S
C791 C789 1.382 . S
C791 C790 1.400 . S
C791 H808 0.930 . S
C792 C790 1.384 . S
C792 C794 1.392 . S
C792 H809 0.931 . S
C793 C789 1.393 . S
C793 C794 1.401 . S
C793 H810 0.930 . S
C794 C792 1.392 . S
C794 C793 1.401 . S
C794 H811 0.930 . S
C795 O778 1.262 . S
C795 O779 1.260 . S
C796 Tb732 2.833 . S
C796 O776 1.251 . S
C796 O781 1.256 . S
C796 C789 1.500 . S
C797 H762 0.929 . S
C797 C775 1.444 . S
C797 C798 1.317 . S
C798 H760 0.930 . S
C798 C766 1.432 . S
C798 C797 1.317 . S
C799 O783 1.260 1_655 S
C799 O786 1.243 . S
C800 C801 1.382 . S
C800 C804 1.393 . S
C800 C807 1.500 . S
C801 C800 1.382 . S
C801 C802 1.400 . S
C801 H812 0.930 . S
C802 C801 1.400 . S
C802 C803 1.384 . S
C803 C802 1.384 . S
C803 C805 1.392 . S
C803 H813 0.931 . S
C804 C800 1.393 . S
C804 C805 1.401 . S
C804 H814 0.930 . S
C805 C803 1.392 . S
C805 C804 1.401 . S
C805 H815 0.930 . S
C806 O784 1.262 . S
C806 O785 1.260 . S
C807 Tb743 2.833 . S
C807 O782 1.251 . S
C807 O787 1.256 . S
C807 C800 1.500 . S
H808 C791 0.930 . S
H809 C792 0.931 . S
H810 C793 0.930 . S
H811 C794 0.930 . S
H812 C801 0.930 . S
H813 C803 0.931 . S
H814 C804 0.930 . S
H815 C805 0.930 . S
C816 C817 1.349 . S
C816 C818 1.327 . S
C816 H841 0.950 . S
C817 C816 1.349 . S
C817 C833 1.349 . S
C818 C816 1.327 . S
C818 C837 1.429 . S
C818 H842 0.950 . S
C819 C836 1.574 . S
C819 C838 1.368 . S
C819 H843 0.949 . S
H820 C824 0.949 . S
C821 C822 1.349 . S
C821 C823 1.327 . S
C821 H844 0.950 . S
C822 C821 1.349 . S
C822 C834 1.349 . S
C823 C821 1.327 . S
C823 C839 1.429 . S
C823 H845 0.950 . S
C824 H820 0.949 . S
C824 C832 1.574 . S
C824 C840 1.368 . S
H825 C833 0.950 . S
H826 C831 0.950 . S
H827 C832 0.949 . S
H828 C834 0.950 1_565 S
H829 C835 0.950 . S
H830 C836 0.949 . S
C831 H826 0.950 . S
C831 C833 1.327 . S
C831 C837 1.429 . S
C832 C824 1.574 . S
C832 H827 0.949 . S
C832 C838 1.368 . S
C833 C817 1.349 . S
C833 H825 0.950 . S
C833 C831 1.327 . S
C834 C822 1.349 . S
C834 H828 0.950 1_545 S
C834 C835 1.327 . S
C835 H829 0.950 . S
C835 C834 1.327 . S
C835 C839 1.429 . S
C836 C819 1.574 . S
C836 H830 0.949 . S
C836 C840 1.368 . S
C837 C818 1.429 . S
C837 C831 1.429 . S
C837 C838 1.523 . S
C838 C819 1.368 . S
C838 C832 1.368 . S
C838 C837 1.523 . S
C839 C823 1.429 . S
C839 C835 1.429 . S
C839 C840 1.523 . S
C840 C824 1.368 . S
C840 C836 1.368 . S
C840 C839 1.523 . S
H841 C816 0.950 . S
H842 C818 0.950 . S
H843 C819 0.949 . S
H844 C821 0.950 . S
H845 C823 0.950 . S
C846 C847 1.349 . S
C846 C848 1.327 . S
C846 H871 0.950 . S
C847 C846 1.349 . S
C847 C863 1.349 . S
C848 C846 1.327 . S
C848 C867 1.429 . S
C848 H872 0.950 . S
C849 C866 1.574 . S
C849 C868 1.368 . S
C849 H873 0.949 . S
H850 C854 0.949 . S
C851 C852 1.349 . S
C851 C853 1.327 . S
C851 H874 0.950 . S
C852 C851 1.349 . S
C852 C864 1.349 . S
C853 C851 1.327 . S
C853 C869 1.429 . S
C853 H875 0.950 . S
C854 H850 0.949 . S
C854 C862 1.574 . S
C854 C870 1.368 . S
H855 C863 0.950 . S
H856 C861 0.950 . S
H857 C862 0.949 . S
H858 C864 0.950 . S
H859 C865 0.950 . S
H860 C866 0.949 . S
C861 H856 0.950 . S
C861 C863 1.327 . S
C861 C867 1.429 . S
C862 C854 1.574 . S
C862 H857 0.949 . S
C862 C868 1.368 . S
C863 C847 1.349 . S
C863 H855 0.950 . S
C863 C861 1.327 . S
C864 C852 1.349 . S
C864 H858 0.950 . S
C864 C865 1.327 . S
C865 H859 0.950 . S
C865 C864 1.327 . S
C865 C869 1.429 . S
C866 C849 1.574 . S
C866 H860 0.949 . S
C866 C870 1.368 . S
C867 C848 1.429 . S
C867 C861 1.429 . S
C867 C868 1.523 . S
C868 C849 1.368 . S
C868 C862 1.368 . S
C868 C867 1.523 . S
C869 C853 1.429 . S
C869 C865 1.429 . S
C869 C870 1.523 . S
C870 C854 1.368 . S
C870 C866 1.368 . S
C870 C869 1.523 . S
H871 C846 0.950 . S
H872 C848 0.950 . S
H873 C849 0.949 . S
H874 C851 0.950 . S
H875 C853 0.950 . S
C876 C877 1.349 . S
C876 C878 1.327 . S
C876 H901 0.950 . S
C877 C876 1.349 . S
C877 C893 1.349 . S
C878 C876 1.327 . S
C878 C897 1.429 . S
C878 H902 0.950 . S
C879 C896 1.574 . S
C879 C898 1.368 . S
C879 H903 0.949 . S
H880 C884 0.949 . S
C881 C882 1.349 . S
C881 C883 1.327 . S
C881 H904 0.950 . S
C882 C881 1.349 . S
C882 C894 1.349 . S
C883 C881 1.327 . S
C883 C899 1.429 . S
C883 H905 0.950 . S
C884 H880 0.949 . S
C884 C892 1.574 . S
C884 C900 1.368 . S
H885 C893 0.950 . S
H886 C891 0.950 . S
H887 C892 0.949 . S
H888 C894 0.950 . S
H889 C895 0.950 . S
H890 C896 0.949 . S
C891 H886 0.950 . S
C891 C893 1.327 . S
C891 C897 1.429 . S
C892 C884 1.574 . S
C892 H887 0.949 . S
C892 C898 1.368 . S
C893 C877 1.349 . S
C893 H885 0.950 . S
C893 C891 1.327 . S
C894 C882 1.349 . S
C894 H888 0.950 . S
C894 C895 1.327 . S
C895 H889 0.950 . S
C895 C894 1.327 . S
C895 C899 1.429 . S
C896 C879 1.574 . S
C896 H890 0.949 . S
C896 C900 1.368 . S
C897 C878 1.429 . S
C897 C891 1.429 . S
C897 C898 1.523 . S
C898 C879 1.368 . S
C898 C892 1.368 . S
C898 C897 1.523 . S
C899 C883 1.429 . S
C899 C895 1.429 . S
C899 C900 1.523 . S
C900 C884 1.368 . S
C900 C896 1.368 . S
C900 C899 1.523 . S
H901 C876 0.950 . S
H902 C878 0.950 . S
H903 C879 0.949 . S
H904 C881 0.950 . S
H905 C883 0.950 . S
C906 C907 1.349 . S
C906 C908 1.327 . S
C906 H931 0.950 . S
C907 C906 1.349 . S
C907 C923 1.349 . S
C908 C906 1.327 . S
C908 C927 1.429 . S
C908 H932 0.950 . S
C909 C926 1.574 . S
C909 C928 1.368 . S
C909 H933 0.949 . S
H910 C914 0.949 . S
C911 C912 1.349 . S
C911 C913 1.327 . S
C911 H934 0.950 . S
C912 C911 1.349 . S
C912 C924 1.349 . S
C913 C911 1.327 . S
C913 C929 1.429 . S
C913 H935 0.950 . S
C914 H910 0.949 . S
C914 C922 1.574 . S
C914 C930 1.368 . S
H915 C923 0.950 . S
H916 C921 0.950 . S
H917 C922 0.949 . S
H918 C924 0.950 . S
H919 C925 0.950 . S
H920 C926 0.949 . S
C921 H916 0.950 . S
C921 C923 1.327 . S
C921 C927 1.429 . S
C922 C914 1.574 . S
C922 H917 0.949 . S
C922 C928 1.368 . S
C923 C907 1.349 . S
C923 H915 0.950 . S
C923 C921 1.327 . S
C924 C912 1.349 . S
C924 H918 0.950 . S
C924 C925 1.327 . S
C925 H919 0.950 . S
C925 C924 1.327 . S
C925 C929 1.429 . S
C926 C909 1.574 . S
C926 H920 0.949 . S
C926 C930 1.368 . S
C927 C908 1.429 . S
C927 C921 1.429 . S
C927 C928 1.523 . S
C928 C909 1.368 . S
C928 C922 1.368 . S
C928 C927 1.523 . S
C929 C913 1.429 . S
C929 C925 1.429 . S
C929 C930 1.523 . S
C930 C914 1.368 . S
C930 C926 1.368 . S
C930 C929 1.523 . S
H931 C906 0.950 . S
H932 C908 0.950 . S
H933 C909 0.949 . S
H934 C911 0.950 . S
H935 C913 0.950 . S
C936 C937 1.354 . S
C936 C938 1.322 1_554 S
C936 H961 0.949 1_554 S
C937 C936 1.354 . S
C937 C953 1.349 . S
C938 C936 1.322 1_556 S
C938 C957 1.429 . S
C938 H962 0.950 . S
C939 C956 1.574 . S
C939 C958 1.368 . S
C939 H963 0.949 . S
H940 C944 0.949 . S
C941 C942 1.341 1_545 S
C941 C943 1.323 1_545 S
C941 H964 0.962 . S
C942 C941 1.341 1_565 S
C942 C954 1.349 . S
C943 C941 1.323 1_565 S
C943 C959 1.429 . S
C943 H965 0.950 1_565 S
C944 H940 0.949 . S
C944 C952 1.574 . S
C944 C960 1.368 . S
H945 C953 0.950 . S
H946 C951 0.950 . S
H947 C952 0.949 . S
H948 C954 0.950 . S
H949 C955 0.950 . S
H950 C956 0.949 . S
C951 H946 0.950 . S
C951 C953 1.327 . S
C951 C957 1.429 1_554 S
C952 C944 1.574 . S
C952 H947 0.949 . S
C952 C958 1.368 . S
C953 C937 1.349 . S
C953 H945 0.950 . S
C953 C951 1.327 . S
C954 C942 1.349 . S
C954 H948 0.950 . S
C954 C955 1.327 . S
C955 H949 0.950 . S
C955 C954 1.327 . S
C955 C959 1.429 . S
C956 C939 1.574 . S
C956 H950 0.949 . S
C956 C960 1.368 . S
C957 C938 1.429 . S
C957 C951 1.429 1_556 S
C957 C958 1.523 . S
C958 C939 1.368 . S
C958 C952 1.368 . S
C958 C957 1.523 . S
C959 C943 1.429 . S
C959 C955 1.429 . S
C959 C960 1.523 . S
C960 C944 1.368 . S
C960 C956 1.368 . S
C960 C959 1.523 . S
H961 C936 0.949 1_556 S
H962 C938 0.950 . S
H963 C939 0.949 . S
H964 C941 0.962 . S
H965 C943 0.950 1_545 S
C966 C967 1.349 . S
C966 C968 1.327 1_554 S
C966 H991 0.950 . S
C967 C966 1.349 . S
C967 C983 1.339 1_554 S
C968 C966 1.327 1_556 S
C968 C987 1.429 . S
C968 H992 0.950 . S
C969 C986 1.574 . S
C969 C988 1.368 . S
C969 H993 0.949 . S
H970 C974 0.949 . S
C971 C972 1.349 . S
C971 C973 1.327 . S
C971 H994 0.950 . S
C972 C971 1.349 . S
C972 C984 1.349 . S
C973 C971 1.327 . S
C973 C989 1.429 . S
C973 H995 0.950 . S
C974 H970 0.949 . S
C974 C982 1.574 . S
C974 C990 1.368 . S
H975 C983 0.949 1_554 S
H976 C981 0.950 . S
H977 C982 0.949 . S
H978 C984 0.950 . S
H979 C985 0.950 . S
H980 C986 0.949 . S
C981 H976 0.950 . S
C981 C983 1.338 . S
C981 C987 1.429 . S
C982 C974 1.574 . S
C982 H977 0.949 . S
C982 C988 1.368 . S
C983 C967 1.339 1_556 S
C983 H975 0.949 1_556 S
C983 C981 1.338 . S
C984 C972 1.349 . S
C984 H978 0.950 . S
C984 C985 1.327 . S
C985 H979 0.950 . S
C985 C984 1.327 . S
C985 C989 1.429 . S
C986 C969 1.574 . S
C986 H980 0.949 . S
C986 C990 1.368 . S
C987 C968 1.429 . S
C987 C981 1.429 . S
C987 C988 1.523 . S
C988 C969 1.368 . S
C988 C982 1.368 . S
C988 C987 1.523 . S
C989 C973 1.429 . S
C989 C985 1.429 . S
C989 C990 1.523 . S
C990 C974 1.368 . S
C990 C986 1.368 . S
C990 C989 1.523 . S
H991 C966 0.950 . S
H992 C968 0.950 . S
H993 C969 0.949 . S
H994 C971 0.950 . S
H995 C973 0.950 . S
C996 C997 1.349 1_556 S
C996 C998 1.327 . S
C996 H1021 0.950 . S
C997 C996 1.349 1_554 S
C997 C1013 1.349 . S
C998 C996 1.327 . S
C998 C1017 1.429 . S
C998 H1022 0.950 . S
C999 C1016 1.574 . S
C999 C1018 1.368 . S
C999 H1023 0.949 . S
H1000 C1004 0.949 . S
C1001 C1002 1.349 . S
C1001 C1003 1.327 . S
C1001 H1024 0.950 . S
C1002 C1001 1.349 . S
C1002 C1014 1.349 . S
C1003 C1001 1.327 . S
C1003 C1019 1.429 . S
C1003 H1025 0.950 . S
C1004 H1000 0.949 . S
C1004 C1012 1.574 . S
C1004 C1020 1.368 . S
H1005 C1013 0.950 . S
H1006 C1011 0.950 . S
H1007 C1012 0.949 . S
H1008 C1014 0.950 . S
H1009 C1015 0.950 . S
H1010 C1016 0.949 . S
C1011 H1006 0.950 . S
C1011 C1013 1.327 . S
C1011 C1017 1.429 1_554 S
C1012 C1004 1.574 . S
C1012 H1007 0.949 . S
C1012 C1018 1.368 . S
C1013 C997 1.349 . S
C1013 H1005 0.950 . S
C1013 C1011 1.327 . S
C1014 C1002 1.349 . S
C1014 H1008 0.950 . S
C1014 C1015 1.327 . S
C1015 H1009 0.950 . S
C1015 C1014 1.327 . S
C1015 C1019 1.429 . S
C1016 C999 1.574 . S
C1016 H1010 0.949 . S
C1016 C1020 1.368 . S
C1017 C998 1.429 . S
C1017 C1011 1.429 1_556 S
C1017 C1018 1.523 . S
C1018 C999 1.368 . S
C1018 C1012 1.368 . S
C1018 C1017 1.523 . S
C1019 C1003 1.429 . S
C1019 C1015 1.429 . S
C1019 C1020 1.523 . S
C1020 C1004 1.368 . S
C1020 C1016 1.368 . S
C1020 C1019 1.523 . S
H1021 C996 0.950 . S
H1022 C998 0.950 . S
H1023 C999 0.949 . S
H1024 C1001 0.950 . S
H1025 C1003 0.950 . S
C1026 C1027 1.349 . S
C1026 C1028 1.327 1_554 S
C1026 H1051 0.950 . S
C1027 C1026 1.349 . S
C1027 C1043 1.349 . S
C1028 C1026 1.327 1_556 S
C1028 C1047 1.429 . S
C1028 H1052 0.950 . S
C1029 C1046 1.574 . S
C1029 C1048 1.368 . S
C1029 H1053 0.949 . S
H1030 C1034 0.949 . S
C1031 C1032 1.349 . S
C1031 C1033 1.327 . S
C1031 H1054 0.950 . S
C1032 C1031 1.349 . S
C1032 C1044 1.349 . S
C1033 C1031 1.327 . S
C1033 C1049 1.429 . S
C1033 H1055 0.950 . S
C1034 H1030 0.949 . S
C1034 C1042 1.574 . S
C1034 C1050 1.368 . S
H1035 C1043 0.950 . S
H1036 C1041 0.950 . S
H1037 C1042 0.949 . S
H1038 C1044 0.950 1_455 S
H1039 C1045 0.950 . S
H1040 C1046 0.949 . S
C1041 H1036 0.950 . S
C1041 C1043 1.327 1_556 S
C1041 C1047 1.429 . S
C1042 C1034 1.574 . S
C1042 H1037 0.949 . S
C1042 C1048 1.368 . S
C1043 C1027 1.349 . S
C1043 H1035 0.950 . S
C1043 C1041 1.327 1_554 S
C1044 C1032 1.349 . S
C1044 H1038 0.950 1_655 S
C1044 C1045 1.327 . S
C1045 H1039 0.950 . S
C1045 C1044 1.327 . S
C1045 C1049 1.429 . S
C1046 C1029 1.574 . S
C1046 H1040 0.949 . S
C1046 C1050 1.368 . S
C1047 C1028 1.429 . S
C1047 C1041 1.429 . S
C1047 C1048 1.523 . S
C1048 C1029 1.368 . S
C1048 C1042 1.368 . S
C1048 C1047 1.523 . S
C1049 C1033 1.429 . S
C1049 C1045 1.429 . S
C1049 C1050 1.523 . S
C1050 C1034 1.368 . S
C1050 C1046 1.368 . S
C1050 C1049 1.523 . S
H1051 C1026 0.950 . S
H1052 C1028 0.950 . S
H1053 C1029 0.949 . S
H1054 C1031 0.950 . S
H1055 C1033 0.950 . S
C1056 C1057 1.349 . S
C1056 C1058 1.327 . S
C1056 H1081 0.950 . S
C1057 C1056 1.349 . S
C1057 C1073 1.349 . S
C1058 C1056 1.327 . S
C1058 C1077 1.429 . S
C1058 H1082 0.950 . S
C1059 C1076 1.574 . S
C1059 C1078 1.368 . S
C1059 H1083 0.949 . S
H1060 C1064 0.949 . S
C1061 C1062 1.351 . S
C1061 C1063 1.333 . S
C1061 H1084 0.942 1_455 S
C1062 C1061 1.351 . S
C1062 C1074 1.349 . S
C1063 C1061 1.333 . S
C1063 C1079 1.429 . S
C1063 H1085 0.950 . S
C1064 H1060 0.949 . S
C1064 C1072 1.574 . S
C1064 C1080 1.368 . S
H1065 C1073 0.950 . S
H1066 C1071 0.950 . S
H1067 C1072 0.949 . S
H1068 C1074 0.950 . S
H1069 C1075 0.950 . S
H1070 C1076 0.949 . S
C1071 H1066 0.950 . S
C1071 C1073 1.327 . S
C1071 C1077 1.429 . S
C1072 C1064 1.574 . S
C1072 H1067 0.949 . S
C1072 C1078 1.368 . S
C1073 C1057 1.349 . S
C1073 H1065 0.950 . S
C1073 C1071 1.327 . S
C1074 C1062 1.349 . S
C1074 H1068 0.950 . S
C1074 C1075 1.327 . S
C1075 H1069 0.950 . S
C1075 C1074 1.327 . S
C1075 C1079 1.429 . S
C1076 C1059 1.574 . S
C1076 H1070 0.949 . S
C1076 C1080 1.368 . S
C1077 C1058 1.429 . S
C1077 C1071 1.429 . S
C1077 C1078 1.523 . S
C1078 C1059 1.368 . S
C1078 C1072 1.368 . S
C1078 C1077 1.523 . S
C1079 C1063 1.429 . S
C1079 C1075 1.429 . S
C1079 C1080 1.523 . S
C1080 C1064 1.368 . S
C1080 C1076 1.368 . S
C1080 C1079 1.523 . S
H1081 C1056 0.950 . S
H1082 C1058 0.950 . S
H1083 C1059 0.949 . S
H1084 C1061 0.942 1_655 S
H1085 C1063 0.950 . S
C1086 C1087 1.349 . S
C1086 C1088 1.327 . S
C1086 H1111 0.950 . S
C1087 C1086 1.349 . S
C1087 C1103 1.349 . S
C1088 C1086 1.327 . S
C1088 C1107 1.429 . S
C1088 H1112 0.950 . S
C1089 C1106 1.574 . S
C1089 C1108 1.368 . S
C1089 H1113 0.949 . S
H1090 C1094 0.949 . S
C1091 C1092 1.349 . S
C1091 C1093 1.327 . S
C1091 H1114 0.950 . S
C1092 C1091 1.349 . S
C1092 C1104 1.349 1_545 S
C1093 C1091 1.327 . S
C1093 C1109 1.429 . S
C1093 H1115 0.950 . S
C1094 H1090 0.949 . S
C1094 C1102 1.574 . S
C1094 C1110 1.368 . S
H1095 C1103 0.950 . S
H1096 C1101 0.950 . S
H1097 C1102 0.949 . S
H1098 C1104 0.950 . S
H1099 C1105 0.950 . S
H1100 C1106 0.949 . S
C1101 H1096 0.950 . S
C1101 C1103 1.327 . S
C1101 C1107 1.429 . S
C1102 C1094 1.574 . S
C1102 H1097 0.949 . S
C1102 C1108 1.368 . S
C1103 C1087 1.349 . S
C1103 H1095 0.950 . S
C1103 C1101 1.327 . S
C1104 C1092 1.349 1_565 S
C1104 H1098 0.950 . S
C1104 C1105 1.327 1_565 S
C1105 H1099 0.950 . S
C1105 C1104 1.327 1_545 S
C1105 C1109 1.429 . S
C1106 C1089 1.574 . S
C1106 H1100 0.949 . S
C1106 C1110 1.368 . S
C1107 C1088 1.429 . S
C1107 C1101 1.429 . S
C1107 C1108 1.523 . S
C1108 C1089 1.368 . S
C1108 C1102 1.368 . S
C1108 C1107 1.523 . S
C1109 C1093 1.429 . S
C1109 C1105 1.429 . S
C1109 C1110 1.523 . S
C1110 C1094 1.368 . S
C1110 C1106 1.368 . S
C1110 C1109 1.523 . S
H1111 C1086 0.950 . S
H1112 C1088 0.950 . S
H1113 C1089 0.949 . S
H1114 C1091 0.950 . S
H1115 C1093 0.950 . S
C1116 C1117 1.349 . S
C1116 C1118 1.327 . S
C1116 H1141 0.950 . S
C1117 C1116 1.349 . S
C1117 C1133 1.349 . S
C1118 C1116 1.327 . S
C1118 C1137 1.429 . S
C1118 H1142 0.950 . S
C1119 C1136 1.574 . S
C1119 C1138 1.368 . S
C1119 H1143 0.949 . S
H1120 C1124 0.949 . S
C1121 C1122 1.349 . S
C1121 C1123 1.327 . S
C1121 H1144 0.950 . S
C1122 C1121 1.349 . S
C1122 C1134 1.349 . S
C1123 C1121 1.327 . S
C1123 C1139 1.429 . S
C1123 H1145 0.950 . S
C1124 H1120 0.949 . S
C1124 C1132 1.574 . S
C1124 C1140 1.368 . S
H1125 C1133 0.950 . S
H1126 C1131 0.950 . S
H1127 C1132 0.949 . S
H1128 C1134 0.950 . S
H1129 C1135 0.950 . S
H1130 C1136 0.949 . S
C1131 H1126 0.950 . S
C1131 C1133 1.327 . S
C1131 C1137 1.429 . S
C1132 C1124 1.574 . S
C1132 H1127 0.949 . S
C1132 C1138 1.368 . S
C1133 C1117 1.349 . S
C1133 H1125 0.950 . S
C1133 C1131 1.327 . S
C1134 C1122 1.349 . S
C1134 H1128 0.950 . S
C1134 C1135 1.327 . S
C1135 H1129 0.950 . S
C1135 C1134 1.327 . S
C1135 C1139 1.429 . S
C1136 C1119 1.574 . S
C1136 H1130 0.949 . S
C1136 C1140 1.368 . S
C1137 C1118 1.429 . S
C1137 C1131 1.429 . S
C1137 C1138 1.523 . S
C1138 C1119 1.368 . S
C1138 C1132 1.368 . S
C1138 C1137 1.523 . S
C1139 C1123 1.429 . S
C1139 C1135 1.429 . S
C1139 C1140 1.523 . S
C1140 C1124 1.368 . S
C1140 C1136 1.368 . S
C1140 C1139 1.523 . S
H1141 C1116 0.950 . S
H1142 C1118 0.950 . S
H1143 C1119 0.949 . S
H1144 C1121 0.950 . S
H1145 C1123 0.950 . S
C1146 C1147 1.349 . S
C1146 C1148 1.327 . S
C1146 H1171 0.950 . S
C1147 C1146 1.349 . S
C1147 C1163 1.349 . S
C1148 C1146 1.327 . S
C1148 C1167 1.429 . S
C1148 H1172 0.950 . S
C1149 C1166 1.574 . S
C1149 C1168 1.368 . S
C1149 H1173 0.949 . S
H1150 C1154 0.949 . S
C1151 C1152 1.349 . S
C1151 C1153 1.327 . S
C1151 H1174 0.950 . S
C1152 C1151 1.349 . S
C1152 C1164 1.349 . S
C1153 C1151 1.327 . S
C1153 C1169 1.429 . S
C1153 H1175 0.950 . S
C1154 H1150 0.949 . S
C1154 C1162 1.574 . S
C1154 C1170 1.368 . S
H1155 C1163 0.950 . S
H1156 C1161 0.950 . S
H1157 C1162 0.949 . S
H1158 C1164 0.950 . S
H1159 C1165 0.950 . S
H1160 C1166 0.949 . S
C1161 H1156 0.950 . S
C1161 C1163 1.327 . S
C1161 C1167 1.429 . S
C1162 C1154 1.574 . S
C1162 H1157 0.949 . S
C1162 C1168 1.368 . S
C1163 C1147 1.349 . S
C1163 H1155 0.950 . S
C1163 C1161 1.327 . S
C1164 C1152 1.349 . S
C1164 H1158 0.950 . S
C1164 C1165 1.327 . S
C1165 H1159 0.950 . S
C1165 C1164 1.327 . S
C1165 C1169 1.429 . S
C1166 C1149 1.574 . S
C1166 H1160 0.949 . S
C1166 C1170 1.368 . S
C1167 C1148 1.429 . S
C1167 C1161 1.429 . S
C1167 C1168 1.523 . S
C1168 C1149 1.368 . S
C1168 C1162 1.368 . S
C1168 C1167 1.523 . S
C1169 C1153 1.429 . S
C1169 C1165 1.429 . S
C1169 C1170 1.523 . S
C1170 C1154 1.368 . S
C1170 C1166 1.368 . S
C1170 C1169 1.523 . S
H1171 C1146 0.950 . S
H1172 C1148 0.950 . S
H1173 C1149 0.949 . S
H1174 C1151 0.950 . S
H1175 C1153 0.950 . S
C1176 C1177 1.349 . S
C1176 C1178 1.327 . S
C1176 H1201 0.950 1_556 S
C1177 C1176 1.349 . S
C1177 C1193 1.349 . S
C1178 C1176 1.327 . S
C1178 C1197 1.429 . S
C1178 H1202 0.950 . S
C1179 C1196 1.574 . S
C1179 C1198 1.368 . S
C1179 H1203 0.949 . S
H1180 C1184 0.949 . S
C1181 C1182 1.349 1_655 S
C1181 C1183 1.327 . S
C1181 H1204 0.950 . S
C1182 C1181 1.349 1_455 S
C1182 C1194 1.349 . S
C1183 C1181 1.327 . S
C1183 C1199 1.429 . S
C1183 H1205 0.950 . S
C1184 H1180 0.949 . S
C1184 C1192 1.574 . S
C1184 C1200 1.368 . S
H1185 C1193 0.950 . S
H1186 C1191 0.950 . S
H1187 C1192 0.949 . S
H1188 C1194 0.950 . S
H1189 C1195 0.950 . S
H1190 C1196 0.949 . S
C1191 H1186 0.950 . S
C1191 C1193 1.327 . S
C1191 C1197 1.429 . S
C1192 C1184 1.574 . S
C1192 H1187 0.949 . S
C1192 C1198 1.368 . S
C1193 C1177 1.349 . S
C1193 H1185 0.950 . S
C1193 C1191 1.327 . S
C1194 C1182 1.349 . S
C1194 H1188 0.950 . S
C1194 C1195 1.327 . S
C1195 H1189 0.950 . S
C1195 C1194 1.327 . S
C1195 C1199 1.429 1_455 S
C1196 C1179 1.574 . S
C1196 H1190 0.949 . S
C1196 C1200 1.368 . S
C1197 C1178 1.429 . S
C1197 C1191 1.429 . S
C1197 C1198 1.523 . S
C1198 C1179 1.368 . S
C1198 C1192 1.368 . S
C1198 C1197 1.523 . S
C1199 C1183 1.429 . S
C1199 C1195 1.429 1_655 S
C1199 C1200 1.523 . S
C1200 C1184 1.368 . S
C1200 C1196 1.368 . S
C1200 C1199 1.523 . S
H1201 C1176 0.950 1_554 S
H1202 C1178 0.950 . S
H1203 C1179 0.949 . S
H1204 C1181 0.950 . S
H1205 C1183 0.950 . S
C1206 C1207 1.349 . S
C1206 C1208 1.327 . S
C1206 H1231 0.950 1_556 S
C1207 C1206 1.349 . S
C1207 C1223 1.349 . S
C1208 C1206 1.327 . S
C1208 C1227 1.429 . S
C1208 H1232 0.950 . S
C1209 C1226 1.574 . S
C1209 C1228 1.368 . S
C1209 H1233 0.949 . S
H1210 C1214 0.949 1_545 S
C1211 C1212 1.349 1_565 S
C1211 C1213 1.327 . S
C1211 H1234 0.950 . S
C1212 C1211 1.349 1_545 S
C1212 C1224 1.349 . S
C1213 C1211 1.327 . S
C1213 C1229 1.429 . S
C1213 H1235 0.950 . S
C1214 H1210 0.949 1_565 S
C1214 C1222 1.574 . S
C1214 C1230 1.368 . S
H1215 C1223 0.950 . S
H1216 C1221 0.950 . S
H1217 C1222 0.949 . S
H1218 C1224 0.950 . S
H1219 C1225 0.950 . S
H1220 C1226 0.949 . S
C1221 H1216 0.950 . S
C1221 C1223 1.327 . S
C1221 C1227 1.429 . S
C1222 C1214 1.574 . S
C1222 H1217 0.949 . S
C1222 C1228 1.368 . S
C1223 C1207 1.349 . S
C1223 H1215 0.950 . S
C1223 C1221 1.327 . S
C1224 C1212 1.349 . S
C1224 H1218 0.950 . S
C1224 C1225 1.327 . S
C1225 H1219 0.950 . S
C1225 C1224 1.327 . S
C1225 C1229 1.429 1_545 S
C1226 C1209 1.574 . S
C1226 H1220 0.949 . S
C1226 C1230 1.368 . S
C1227 C1208 1.429 . S
C1227 C1221 1.429 . S
C1227 C1228 1.523 . S
C1228 C1209 1.368 . S
C1228 C1222 1.368 . S
C1228 C1227 1.523 . S
C1229 C1213 1.429 . S
C1229 C1225 1.429 1_565 S
C1229 C1230 1.523 . S
C1230 C1214 1.368 . S
C1230 C1226 1.368 . S
C1230 C1229 1.523 . S
H1231 C1206 0.950 1_554 S
H1232 C1208 0.950 . S
H1233 C1209 0.949 . S
H1234 C1211 0.950 . S
H1235 C1213 0.950 . S
C1236 C1237 1.349 . S
C1236 C1238 1.327 . S
C1236 H1261 0.950 . S
C1237 C1236 1.349 . S
C1237 C1253 1.349 . S
C1238 C1236 1.327 . S
C1238 C1257 1.429 . S
C1238 H1262 0.950 . S
C1239 C1256 1.574 . S
C1239 C1258 1.368 . S
C1239 H1263 0.949 . S
H1240 C1244 0.949 . S
C1241 C1242 1.349 . S
C1241 C1243 1.327 . S
C1241 H1264 0.950 . S
C1242 C1241 1.349 . S
C1242 C1254 1.349 . S
C1243 C1241 1.327 . S
C1243 C1259 1.429 . S
C1243 H1265 0.950 . S
C1244 H1240 0.949 . S
C1244 C1252 1.574 . S
C1244 C1260 1.368 . S
H1245 C1253 0.950 1_554 S
H1246 C1251 0.950 . S
H1247 C1252 0.949 . S
H1248 C1254 0.950 . S
H1249 C1255 0.950 . S
H1250 C1256 0.949 . S
C1251 H1246 0.950 . S
C1251 C1253 1.327 . S
C1251 C1257 1.429 . S
C1252 C1244 1.574 . S
C1252 H1247 0.949 . S
C1252 C1258 1.368 . S
C1253 C1237 1.349 . S
C1253 H1245 0.950 1_556 S
C1253 C1251 1.327 . S
C1254 C1242 1.349 . S
C1254 H1248 0.950 . S
C1254 C1255 1.327 . S
C1255 H1249 0.950 . S
C1255 C1254 1.327 . S
C1255 C1259 1.429 . S
C1256 C1239 1.574 . S
C1256 H1250 0.949 . S
C1256 C1260 1.368 . S
C1257 C1238 1.429 . S
C1257 C1251 1.429 . S
C1257 C1258 1.523 . S
C1258 C1239 1.368 . S
C1258 C1252 1.368 . S
C1258 C1257 1.523 . S
C1259 C1243 1.429 . S
C1259 C1255 1.429 . S
C1259 C1260 1.523 . S
C1260 C1244 1.368 . S
C1260 C1256 1.368 . S
C1260 C1259 1.523 . S
H1261 C1236 0.950 . S
H1262 C1238 0.950 . S
H1263 C1239 0.949 . S
H1264 C1241 0.950 . S
H1265 C1243 0.950 . S
C1266 C1267 1.349 . S
C1266 C1268 1.327 . S
C1266 H1291 0.950 1_556 S
C1267 C1266 1.349 . S
C1267 C1283 1.349 . S
C1268 C1266 1.327 . S
C1268 C1287 1.429 . S
C1268 H1292 0.950 . S
C1269 C1286 1.574 . S
C1269 C1288 1.368 . S
C1269 H1293 0.949 . S
H1270 C1274 0.949 . S
C1271 C1272 1.349 . S
C1271 C1273 1.327 . S
C1271 H1294 0.950 . S
C1272 C1271 1.349 . S
C1272 C1284 1.349 . S
C1273 C1271 1.327 . S
C1273 C1289 1.429 . S
C1273 H1295 0.950 . S
C1274 H1270 0.949 . S
C1274 C1282 1.574 . S
C1274 C1290 1.368 . S
H1275 C1283 0.950 . S
H1276 C1281 0.950 . S
H1277 C1282 0.949 . S
H1278 C1284 0.950 . S
H1279 C1285 0.950 . S
H1280 C1286 0.949 . S
C1281 H1276 0.950 . S
C1281 C1283 1.327 . S
C1281 C1287 1.429 . S
C1282 C1274 1.574 . S
C1282 H1277 0.949 . S
C1282 C1288 1.368 . S
C1283 C1267 1.349 . S
C1283 H1275 0.950 . S
C1283 C1281 1.327 . S
C1284 C1272 1.349 . S
C1284 H1278 0.950 . S
C1284 C1285 1.327 . S
C1285 H1279 0.950 . S
C1285 C1284 1.327 . S
C1285 C1289 1.429 . S
C1286 C1269 1.574 . S
C1286 H1280 0.949 . S
C1286 C1290 1.368 . S
C1287 C1268 1.429 . S
C1287 C1281 1.429 . S
C1287 C1288 1.523 . S
C1288 C1269 1.368 . S
C1288 C1282 1.368 . S
C1288 C1287 1.523 . S
C1289 C1273 1.429 . S
C1289 C1285 1.429 . S
C1289 C1290 1.523 . S
C1290 C1274 1.368 . S
C1290 C1286 1.368 . S
C1290 C1289 1.523 . S
H1291 C1266 0.950 1_554 S
H1292 C1268 0.950 . S
H1293 C1269 0.949 . S
H1294 C1271 0.950 . S
H1295 C1273 0.950 . S
C1296 C1297 1.349 . S
C1296 C1298 1.327 . S
C1296 H1321 0.950 . S
C1297 C1296 1.349 . S
C1297 C1313 1.349 . S
C1298 C1296 1.327 . S
C1298 C1317 1.429 . S
C1298 H1322 0.950 . S
C1299 C1316 1.574 . S
C1299 C1318 1.368 . S
C1299 H1323 0.949 . S
H1300 C1304 0.949 . S
C1301 C1302 1.349 . S
C1301 C1303 1.327 . S
C1301 H1324 0.950 . S
C1302 C1301 1.349 . S
C1302 C1314 1.349 . S
C1303 C1301 1.327 . S
C1303 C1319 1.429 . S
C1303 H1325 0.950 . S
C1304 H1300 0.949 . S
C1304 C1312 1.574 . S
C1304 C1320 1.368 . S
H1305 C1313 0.950 . S
H1306 C1311 0.950 . S
H1307 C1312 0.949 . S
H1308 C1314 0.950 . S
H1309 C1315 0.950 . S
H1310 C1316 0.949 . S
C1311 H1306 0.950 . S
C1311 C1313 1.327 . S
C1311 C1317 1.429 . S
C1312 C1304 1.574 . S
C1312 H1307 0.949 . S
C1312 C1318 1.368 . S
C1313 C1297 1.349 . S
C1313 H1305 0.950 . S
C1313 C1311 1.327 . S
C1314 C1302 1.349 . S
C1314 H1308 0.950 . S
C1314 C1315 1.327 . S
C1315 H1309 0.950 . S
C1315 C1314 1.327 . S
C1315 C1319 1.429 . S
C1316 C1299 1.574 . S
C1316 H1310 0.949 . S
C1316 C1320 1.368 . S
C1317 C1298 1.429 . S
C1317 C1311 1.429 . S
C1317 C1318 1.523 . S
C1318 C1299 1.368 . S
C1318 C1312 1.368 . S
C1318 C1317 1.523 . S
C1319 C1303 1.429 . S
C1319 C1315 1.429 . S
C1319 C1320 1.523 . S
C1320 C1304 1.368 . S
C1320 C1316 1.368 . S
C1320 C1319 1.523 . S
H1321 C1296 0.950 . S
H1322 C1298 0.950 . S
H1323 C1299 0.949 . S
H1324 C1301 0.950 . S
H1325 C1303 0.950 . S
C1326 C1327 1.349 . S
C1326 C1328 1.327 . S
C1326 H1351 0.950 . S
C1327 C1326 1.349 . S
C1327 C1343 1.349 . S
C1328 C1326 1.327 . S
C1328 C1347 1.429 . S
C1328 H1352 0.950 . S
C1329 C1346 1.574 . S
C1329 C1348 1.368 . S
C1329 H1353 0.949 . S
H1330 C1334 0.949 . S
C1331 C1332 1.349 . S
C1331 C1333 1.327 . S
C1331 H1354 0.950 . S
C1332 C1331 1.349 . S
C1332 C1344 1.349 . S
C1333 C1331 1.327 . S
C1333 C1349 1.429 . S
C1333 H1355 0.950 . S
C1334 H1330 0.949 . S
C1334 C1342 1.574 . S
C1334 C1350 1.368 . S
H1335 C1343 0.950 . S
H1336 C1341 0.950 . S
H1337 C1342 0.949 . S
H1338 C1344 0.950 . S
H1339 C1345 0.950 . S
H1340 C1346 0.949 . S
C1341 H1336 0.950 . S
C1341 C1343 1.327 . S
C1341 C1347 1.429 . S
C1342 C1334 1.574 . S
C1342 H1337 0.949 . S
C1342 C1348 1.368 . S
C1343 C1327 1.349 . S
C1343 H1335 0.950 . S
C1343 C1341 1.327 . S
C1344 C1332 1.349 . S
C1344 H1338 0.950 . S
C1344 C1345 1.327 . S
C1345 H1339 0.950 . S
C1345 C1344 1.327 . S
C1345 C1349 1.429 . S
C1346 C1329 1.574 . S
C1346 H1340 0.949 . S
C1346 C1350 1.368 . S
C1347 C1328 1.429 . S
C1347 C1341 1.429 . S
C1347 C1348 1.523 . S
C1348 C1329 1.368 . S
C1348 C1342 1.368 . S
C1348 C1347 1.523 . S
C1349 C1333 1.429 . S
C1349 C1345 1.429 . S
C1349 C1350 1.523 . S
C1350 C1334 1.368 . S
C1350 C1346 1.368 . S
C1350 C1349 1.523 . S
H1351 C1326 0.950 . S
H1352 C1328 0.950 . S
H1353 C1329 0.949 . S
H1354 C1331 0.950 . S
H1355 C1333 0.950 . S
C1356 C1357 1.349 . S
C1356 C1358 1.327 . S
C1356 H1381 0.950 . S
C1357 C1356 1.349 . S
C1357 C1373 1.349 . S
C1358 C1356 1.327 . S
C1358 C1377 1.429 . S
C1358 H1382 0.950 . S
C1359 C1376 1.574 . S
C1359 C1378 1.368 . S
C1359 H1383 0.949 . S
H1360 C1364 0.949 . S
C1361 C1362 1.349 . S
C1361 C1363 1.327 . S
C1361 H1384 0.950 . S
C1362 C1361 1.349 . S
C1362 C1374 1.349 . S
C1363 C1361 1.327 . S
C1363 C1379 1.429 . S
C1363 H1385 0.950 . S
C1364 H1360 0.949 . S
C1364 C1372 1.574 . S
C1364 C1380 1.368 . S
H1365 C1373 0.950 . S
H1366 C1371 0.950 . S
H1367 C1372 0.949 . S
H1368 C1374 0.950 . S
H1369 C1375 0.950 . S
H1370 C1376 0.949 . S
C1371 H1366 0.950 . S
C1371 C1373 1.327 . S
C1371 C1377 1.429 . S
C1372 C1364 1.574 . S
C1372 H1367 0.949 . S
C1372 C1378 1.368 . S
C1373 C1357 1.349 . S
C1373 H1365 0.950 . S
C1373 C1371 1.327 . S
C1374 C1362 1.349 . S
C1374 H1368 0.950 . S
C1374 C1375 1.327 . S
C1375 H1369 0.950 . S
C1375 C1374 1.327 . S
C1375 C1379 1.429 . S
C1376 C1359 1.574 . S
C1376 H1370 0.949 . S
C1376 C1380 1.368 . S
C1377 C1358 1.429 . S
C1377 C1371 1.429 . S
C1377 C1378 1.523 . S
C1378 C1359 1.368 . S
C1378 C1372 1.368 . S
C1378 C1377 1.523 . S
C1379 C1363 1.429 . S
C1379 C1375 1.429 . S
C1379 C1380 1.523 . S
C1380 C1364 1.368 . S
C1380 C1376 1.368 . S
C1380 C1379 1.523 . S
H1381 C1356 0.950 . S
H1382 C1358 0.950 . S
H1383 C1359 0.949 . S
H1384 C1361 0.950 . S
H1385 C1363 0.950 . S
C1386 C1387 1.349 . S
C1386 C1388 1.327 . S
C1386 H1411 0.950 . S
C1387 C1386 1.349 . S
C1387 C1403 1.349 . S
C1388 C1386 1.327 . S
C1388 C1407 1.429 . S
C1388 H1412 0.950 . S
C1389 C1406 1.574 . S
C1389 C1408 1.368 . S
C1389 H1413 0.949 . S
H1390 C1394 0.949 . S
C1391 C1392 1.349 . S
C1391 C1393 1.327 . S
C1391 H1414 0.950 . S
C1392 C1391 1.349 . S
C1392 C1404 1.349 . S
C1393 C1391 1.327 . S
C1393 C1409 1.429 . S
C1393 H1415 0.950 . S
C1394 H1390 0.949 . S
C1394 C1402 1.574 . S
C1394 C1410 1.368 . S
H1395 C1403 0.950 . S
H1396 C1401 0.950 . S
H1397 C1402 0.949 . S
H1398 C1404 0.950 . S
H1399 C1405 0.950 . S
H1400 C1406 0.949 . S
C1401 H1396 0.950 . S
C1401 C1403 1.327 . S
C1401 C1407 1.429 . S
C1402 C1394 1.574 . S
C1402 H1397 0.949 . S
C1402 C1408 1.368 . S
C1403 C1387 1.349 . S
C1403 H1395 0.950 . S
C1403 C1401 1.327 . S
C1404 C1392 1.349 . S
C1404 H1398 0.950 . S
C1404 C1405 1.327 . S
C1405 H1399 0.950 . S
C1405 C1404 1.327 . S
C1405 C1409 1.429 . S
C1406 C1389 1.574 . S
C1406 H1400 0.949 . S
C1406 C1410 1.368 . S
C1407 C1388 1.429 . S
C1407 C1401 1.429 . S
C1407 C1408 1.523 . S
C1408 C1389 1.368 . S
C1408 C1402 1.368 . S
C1408 C1407 1.523 . S
C1409 C1393 1.429 . S
C1409 C1405 1.429 . S
C1409 C1410 1.523 . S
C1410 C1394 1.368 . S
C1410 C1406 1.368 . S
C1410 C1409 1.523 . S
H1411 C1386 0.950 . S
H1412 C1388 0.950 . S
H1413 C1389 0.949 . S
H1414 C1391 0.950 . S
H1415 C1393 0.950 . S
C1416 C1417 1.349 . S
C1416 C1418 1.327 . S
C1416 H1441 0.950 . S
C1417 C1416 1.349 . S
C1417 C1433 1.349 . S
C1418 C1416 1.327 . S
C1418 C1437 1.429 . S
C1418 H1442 0.950 . S
C1419 C1436 1.574 . S
C1419 C1438 1.368 . S
C1419 H1443 0.949 . S
H1420 C1424 0.949 . S
C1421 C1422 1.349 . S
C1421 C1423 1.327 . S
C1421 H1444 0.950 . S
C1422 C1421 1.349 . S
C1422 C1434 1.349 . S
C1423 C1421 1.327 . S
C1423 C1439 1.429 . S
C1423 H1445 0.950 . S
C1424 H1420 0.949 . S
C1424 C1432 1.574 . S
C1424 C1440 1.368 . S
H1425 C1433 0.950 . S
H1426 C1431 0.950 . S
H1427 C1432 0.949 . S
H1428 C1434 0.950 . S
H1429 C1435 0.950 . S
H1430 C1436 0.949 . S
C1431 H1426 0.950 . S
C1431 C1433 1.327 . S
C1431 C1437 1.429 . S
C1432 C1424 1.574 . S
C1432 H1427 0.949 . S
C1432 C1438 1.368 . S
C1433 C1417 1.349 . S
C1433 H1425 0.950 . S
C1433 C1431 1.327 . S
C1434 C1422 1.349 . S
C1434 H1428 0.950 . S
C1434 C1435 1.327 . S
C1435 H1429 0.950 . S
C1435 C1434 1.327 . S
C1435 C1439 1.429 . S
C1436 C1419 1.574 . S
C1436 H1430 0.949 . S
C1436 C1440 1.368 . S
C1437 C1418 1.429 . S
C1437 C1431 1.429 . S
C1437 C1438 1.523 . S
C1438 C1419 1.368 . S
C1438 C1432 1.368 . S
C1438 C1437 1.523 . S
C1439 C1423 1.429 . S
C1439 C1435 1.429 . S
C1439 C1440 1.523 . S
C1440 C1424 1.368 . S
C1440 C1436 1.368 . S
C1440 C1439 1.523 . S
H1441 C1416 0.950 . S
H1442 C1418 0.950 . S
H1443 C1419 0.949 . S
H1444 C1421 0.950 . S
H1445 C1423 0.950 . S
C1446 C1447 1.349 . S
C1446 C1448 1.327 . S
C1446 H1471 0.950 . S
C1447 C1446 1.349 . S
C1447 C1463 1.349 . S
C1448 C1446 1.327 . S
C1448 C1467 1.429 . S
C1448 H1472 0.950 . S
C1449 C1466 1.574 . S
C1449 C1468 1.368 . S
C1449 H1473 0.949 . S
H1450 C1454 0.949 . S
C1451 C1452 1.349 . S
C1451 C1453 1.327 . S
C1451 H1474 0.950 . S
C1452 C1451 1.349 . S
C1452 C1464 1.349 . S
C1453 C1451 1.327 . S
C1453 C1469 1.429 . S
C1453 H1475 0.950 . S
C1454 H1450 0.949 . S
C1454 C1462 1.574 . S
C1454 C1470 1.368 . S
H1455 C1463 0.950 . S
H1456 C1461 0.950 . S
H1457 C1462 0.949 . S
H1458 C1464 0.950 . S
H1459 C1465 0.950 . S
H1460 C1466 0.949 . S
C1461 H1456 0.950 . S
C1461 C1463 1.327 . S
C1461 C1467 1.429 . S
C1462 C1454 1.574 . S
C1462 H1457 0.949 . S
C1462 C1468 1.368 . S
C1463 C1447 1.349 . S
C1463 H1455 0.950 . S
C1463 C1461 1.327 . S
C1464 C1452 1.349 . S
C1464 H1458 0.950 . S
C1464 C1465 1.327 . S
C1465 H1459 0.950 . S
C1465 C1464 1.327 . S
C1465 C1469 1.429 . S
C1466 C1449 1.574 . S
C1466 H1460 0.949 . S
C1466 C1470 1.368 . S
C1467 C1448 1.429 . S
C1467 C1461 1.429 . S
C1467 C1468 1.523 . S
C1468 C1449 1.368 . S
C1468 C1462 1.368 . S
C1468 C1467 1.523 . S
C1469 C1453 1.429 . S
C1469 C1465 1.429 . S
C1469 C1470 1.523 . S
C1470 C1454 1.368 . S
C1470 C1466 1.368 . S
C1470 C1469 1.523 . S
H1471 C1446 0.950 . S
H1472 C1448 0.950 . S
H1473 C1449 0.949 . S
H1474 C1451 0.950 . S
H1475 C1453 0.950 . S
C1476 C1477 1.349 . S
C1476 C1478 1.327 . S
C1476 H1501 0.950 . S
C1477 C1476 1.349 . S
C1477 C1493 1.349 . S
C1478 C1476 1.327 . S
C1478 C1497 1.429 . S
C1478 H1502 0.950 . S
C1479 C1496 1.574 . S
C1479 C1498 1.368 . S
C1479 H1503 0.949 . S
H1480 C1484 0.949 . S
C1481 C1482 1.349 . S
C1481 C1483 1.327 . S
C1481 H1504 0.950 . S
C1482 C1481 1.349 . S
C1482 C1494 1.349 . S
C1483 C1481 1.327 . S
C1483 C1499 1.429 . S
C1483 H1505 0.950 . S
C1484 H1480 0.949 . S
C1484 C1492 1.574 . S
C1484 C1500 1.368 . S
H1485 C1493 0.950 . S
H1486 C1491 0.950 . S
H1487 C1492 0.949 . S
H1488 C1494 0.950 . S
H1489 C1495 0.950 . S
H1490 C1496 0.949 . S
C1491 H1486 0.950 . S
C1491 C1493 1.327 . S
C1491 C1497 1.429 . S
C1492 C1484 1.574 . S
C1492 H1487 0.949 . S
C1492 C1498 1.368 . S
C1493 C1477 1.349 . S
C1493 H1485 0.950 . S
C1493 C1491 1.327 . S
C1494 C1482 1.349 . S
C1494 H1488 0.950 . S
C1494 C1495 1.327 . S
C1495 H1489 0.950 . S
C1495 C1494 1.327 . S
C1495 C1499 1.429 . S
C1496 C1479 1.574 . S
C1496 H1490 0.949 . S
C1496 C1500 1.368 . S
C1497 C1478 1.429 . S
C1497 C1491 1.429 . S
C1497 C1498 1.523 . S
C1498 C1479 1.368 . S
C1498 C1492 1.368 . S
C1498 C1497 1.523 . S
C1499 C1483 1.429 . S
C1499 C1495 1.429 . S
C1499 C1500 1.523 . S
C1500 C1484 1.368 . S
C1500 C1496 1.368 . S
C1500 C1499 1.523 . S
H1501 C1476 0.950 . S
H1502 C1478 0.950 . S
H1503 C1479 0.949 . S
H1504 C1481 0.950 . S
H1505 C1483 0.950 . S
C1506 C1507 1.349 . S
C1506 C1508 1.327 . S
C1506 H1531 0.950 . S
C1507 C1506 1.349 . S
C1507 C1523 1.349 . S
C1508 C1506 1.327 . S
C1508 C1527 1.429 . S
C1508 H1532 0.950 . S
C1509 C1526 1.574 . S
C1509 C1528 1.368 . S
C1509 H1533 0.949 . S
H1510 C1514 0.949 . S
C1511 C1512 1.349 . S
C1511 C1513 1.327 . S
C1511 H1534 0.950 . S
C1512 C1511 1.349 . S
C1512 C1524 1.349 . S
C1513 C1511 1.327 . S
C1513 C1529 1.429 . S
C1513 H1535 0.950 . S
C1514 H1510 0.949 . S
C1514 C1522 1.574 . S
C1514 C1530 1.368 . S
H1515 C1523 0.950 . S
H1516 C1521 0.950 . S
H1517 C1522 0.949 . S
H1518 C1524 0.950 . S
H1519 C1525 0.950 . S
H1520 C1526 0.949 . S
C1521 H1516 0.950 . S
C1521 C1523 1.327 . S
C1521 C1527 1.429 . S
C1522 C1514 1.574 . S
C1522 H1517 0.949 . S
C1522 C1528 1.368 . S
C1523 C1507 1.349 . S
C1523 H1515 0.950 . S
C1523 C1521 1.327 . S
C1524 C1512 1.349 . S
C1524 H1518 0.950 . S
C1524 C1525 1.327 . S
C1525 H1519 0.950 . S
C1525 C1524 1.327 . S
C1525 C1529 1.429 . S
C1526 C1509 1.574 . S
C1526 H1520 0.949 . S
C1526 C1530 1.368 . S
C1527 C1508 1.429 . S
C1527 C1521 1.429 . S
C1527 C1528 1.523 . S
C1528 C1509 1.368 . S
C1528 C1522 1.368 . S
C1528 C1527 1.523 . S
C1529 C1513 1.429 . S
C1529 C1525 1.429 . S
C1529 C1530 1.523 . S
C1530 C1514 1.368 . S
C1530 C1526 1.368 . S
C1530 C1529 1.523 . S
H1531 C1506 0.950 . S
H1532 C1508 0.950 . S
H1533 C1509 0.949 . S
H1534 C1511 0.950 . S
H1535 C1513 0.950 . S
C817 C391 2.161 . S
C822 C554 2.112 . S
C852 C638 2.148 . S
C847 C451 2.194 . S
C882 C704 2.119 . S
C877 C241 2.057 . S
C912 C788 2.094 . S
C907 C331 2.032 . S
C942 C543 2.112 1_565 S
C937 C121 1.952 . S
C967 C211 2.133 . S
C972 C627 2.149 . S
C997 C31 2.269 . S
C1002 C715 2.119 . S
C1027 C91 2.100 . S
C1032 C799 2.094 . S
C1062 C550 0.431 1_455 S
C1057 C301 0.581 . S
C1092 C634 0.405 1_545 S
C1087 C380 0.324 . S
C1122 C706 0.445 . S
C1117 C440 0.293 . S
C1147 C260 0.595 . S
C1152 C790 0.453 . S
C1177 C61 0.475 . S
C1182 C538 0.431 . S
C1212 C622 0.405 . S
C1207 C140 0.446 . S
C1242 C718 0.445 . S
C1237 C200 0.480 . S
C1267 C20 0.498 . S
C1272 C802 0.453 . S
C1297 C320 2.691 . S
C1302 C547 2.711 . S
C1327 C361 2.387 . S
C1332 C631 2.661 . S
C1362 C711 2.662 . S
C1357 C421 2.261 . S
C1392 C795 2.704 . S
C1387 C271 2.544 . S
C1417 C80 2.747 . S
C1422 C536 2.711 . S
C1452 C620 2.661 . S
C1447 C151 2.696 . S
C1482 C722 2.662 . S
C1477 C181 2.196 . S
C1507 C1 2.235 . S
C1512 C806 2.704 . S
