# Generated by pormake.
# Topology anh, (6,3)-cn, num edge types: 1
# Building blocks:
#     Node 0, Type 0, BuildingBlock: PAMTUU_clean_sbu_0, # of connection points: 6
#     Node 1, Type 0, BuildingBlock: PAMTUU_clean_sbu_0, # of connection points: 6
#     Node 2, Type 0, BuildingBlock: PAMTUU_clean_sbu_0, # of connection points: 6
#     Node 3, Type 1, BuildingBlock: MIDCAF_clean_linker_0, # of connection points: 3
#     Node 4, Type 1, BuildingBlock: MIDCAF_clean_linker_0, # of connection points: 3
#     Node 5, Type 1, BuildingBlock: MIDCAF_clean_linker_0, # of connection points: 3
#     Node 6, Type 1, BuildingBlock: MIDCAF_clean_linker_0, # of connection points: 3
#     Node 7, Type 1, BuildingBlock: MIDCAF_clean_linker_0, # of connection points: 3
#     Node 8, Type 1, BuildingBlock: MIDCAF_clean_linker_0, # of connection points: 3
#     Edge 9, Type (0, 1), BuildingBlock: TEMPAE_clean_linker_10, # of connection points: 2
#     Edge 10, Type (0, 1), BuildingBlock: TEMPAE_clean_linker_10, # of connection points: 2
#     Edge 11, Type (0, 1), BuildingBlock: TEMPAE_clean_linker_10, # of connection points: 2
#     Edge 12, Type (0, 1), BuildingBlock: TEMPAE_clean_linker_10, # of connection points: 2
#     Edge 13, Type (0, 1), BuildingBlock: TEMPAE_clean_linker_10, # of connection points: 2
#     Edge 14, Type (0, 1), BuildingBlock: TEMPAE_clean_linker_10, # of connection points: 2
#     Edge 15, Type (0, 1), BuildingBlock: TEMPAE_clean_linker_10, # of connection points: 2
#     Edge 16, Type (0, 1), BuildingBlock: TEMPAE_clean_linker_10, # of connection points: 2
#     Edge 17, Type (0, 1), BuildingBlock: TEMPAE_clean_linker_10, # of connection points: 2
#     Edge 18, Type (0, 1), BuildingBlock: TEMPAE_clean_linker_10, # of connection points: 2
#     Edge 19, Type (0, 1), BuildingBlock: TEMPAE_clean_linker_10, # of connection points: 2
#     Edge 20, Type (0, 1), BuildingBlock: TEMPAE_clean_linker_10, # of connection points: 2
#     Edge 21, Type (0, 1), BuildingBlock: TEMPAE_clean_linker_10, # of connection points: 2
#     Edge 22, Type (0, 1), BuildingBlock: TEMPAE_clean_linker_10, # of connection points: 2
#     Edge 23, Type (0, 1), BuildingBlock: TEMPAE_clean_linker_10, # of connection points: 2
#     Edge 24, Type (0, 1), BuildingBlock: TEMPAE_clean_linker_10, # of connection points: 2
#     Edge 25, Type (0, 1), BuildingBlock: TEMPAE_clean_linker_10, # of connection points: 2
#     Edge 26, Type (0, 1), BuildingBlock: TEMPAE_clean_linker_10, # of connection points: 2
# Relax obj value: 0.238
# Max RMSD: 0.188
# Mean RMSD: 0.156
data_MOF--net-anh--node1-PAMTUU_clean_sbu_0--node2-MIDCAF_clean_linker_0--edge1-TEMPAE_clean_linker_10
_symmetry_space_group_name_H-M    P1
_symmetry_Int_Tables_number       1
_symmetry_cell_setting            triclinic
loop_
_symmetry_equiv_pos_as_xyz
'x, y, z'
_cell_length_a     37.154006
_cell_length_b     37.182169
_cell_length_c     66.71685
_cell_angle_alpha  93.117503
_cell_angle_beta   90.693757
_cell_angle_gamma 120.07307
loop_
_atom_site_label
_atom_site_type_symbol
_atom_site_fract_x
_atom_site_fract_y
_atom_site_fract_z
_atom_type_partial_charge
Tb0 Tb 0.10007 0.63604 0.15949 0.0
Tb1 Tb 0.14857 0.58477 0.16207 0.0
C2 C 0.12446 0.60422 0.12106 0.0
C3 C 1.01239 0.65195 0.16016 0.0
C4 C 0.92702 0.59399 0.15722 0.0
C5 C 0.94397 0.62689 0.14451 0.0
C6 C 0.98658 0.65586 0.14599 0.0
C7 C 0.99444 0.62168 0.17428 0.0
C8 C 0.95191 0.59286 0.17281 0.0
C9 C 1.05685 0.67027 0.15654 0.0
O10 O 1.04849 0.56974 0.15761 0.0
O11 O 0.08351 0.53591 0.166 0.0
O12 O 0.15106 0.61028 0.19248 0.0
O13 O 0.09202 0.61439 0.18936 0.0
O14 O 0.18966 0.56853 0.14867 0.0
O15 O 0.1606 0.54271 0.17629 0.0
O16 O 0.19947 0.65039 0.16064 0.0
O17 O 0.16476 0.68595 0.16776 0.0
O18 O 0.12673 0.63709 0.13051 0.0
O19 O 0.12248 0.57439 0.13141 0.0
C20 C 1.04819 0.53546 0.16252 0.0
O21 O 0.08157 0.67705 0.17213 0.0
O22 O 1.0641 0.65149 0.14139 0.0
C23 C 0.12019 0.6126 0.20051 0.0
C24 C 0.22696 0.54958 0.17085 0.0
C25 C 0.2944 0.53901 0.18199 0.0
C26 C 0.26479 0.53467 0.19603 0.0
C27 C 0.23123 0.53973 0.19049 0.0
C28 C 0.25826 0.5571 0.15739 0.0
C29 C 0.29158 0.55196 0.16288 0.0
C30 C 0.18759 0.54561 0.16323 0.0
C31 C 0.20001 0.6858 0.16527 0.0
H32 H 0.92509 0.62784 0.13227 0.0
H33 H 0.99992 0.67858 0.1348 0.0
H34 H 1.01373 0.61763 0.18519 0.0
H35 H 0.93921 0.56762 0.18273 0.0
H36 H 0.26628 0.52514 0.21093 0.0
H37 H 0.20754 0.53366 0.20122 0.0
H38 H 0.25564 0.5643 0.1421 0.0
H39 H 0.31319 0.55488 0.15147 0.0
Tb40 Tb 0.5887 0.06958 0.49267 0.0
Tb41 Tb 0.68784 0.1212 0.49802 0.0
C42 C 0.64426 0.09711 0.4557 0.0
C43 C 0.48116 0.98529 0.49594 0.0
C44 C 0.42397 0.90653 0.50894 0.0
C45 C 0.46005 0.91276 0.49946 0.0
C46 C 0.48849 0.95182 0.49311 0.0
C47 C 0.446 0.9796 0.50599 0.0
C48 C 0.41773 0.94062 0.51253 0.0
C49 C 0.51076 1.02661 0.4893 0.0
O50 O 0.60598 1.02013 0.4908 0.0
O51 O 0.67515 0.05698 0.50145 0.0
O52 O 0.66153 0.12374 0.52669 0.0
O53 O 0.6041 0.06001 0.52242 0.0
O54 O 0.7458 0.16289 0.48689 0.0
O55 O 0.74145 0.14248 0.51687 0.0
O56 O 0.67031 0.16883 0.49275 0.0
O57 O 0.60259 0.13394 0.50159 0.0
O58 O 0.61261 0.09681 0.4643 0.0
O59 O 0.67341 0.09637 0.46668 0.0
C60 C 0.64068 1.02098 0.49673 0.0
O61 O 0.53075 0.05549 0.50371 0.0
O62 O 0.53519 1.02774 0.47511 0.0
C63 C 0.63191 0.09063 0.53431 0.0
C64 C 0.78149 0.21416 0.51261 0.0
C65 C 0.80482 0.29888 0.51788 0.0
C66 C 0.83328 0.28694 0.51084 0.0
C67 C 0.82144 0.24483 0.50794 0.0
C68 C 0.75469 0.22611 0.52158 0.0
C69 C 0.76607 0.26798 0.52406 0.0
C70 C 0.76418 0.17076 0.50466 0.0
C71 C 0.63644 0.16931 0.49806 0.0
H72 H 0.46559 0.88711 0.49623 0.0
H73 H 0.51582 0.9556 0.48569 0.0
H74 H 0.44028 1.00528 0.50867 0.0
H75 H 0.39056 0.93699 0.52007 0.0
H76 H 0.86392 0.31003 0.5065 0.0
H77 H 0.84252 0.23624 0.50099 0.0
H78 H 0.72361 0.20292 0.52529 0.0
H79 H 0.74317 0.27567 0.5294 0.0
Tb80 Tb 0.59075 0.52911 0.82137 0.0
Tb81 Tb 0.63672 0.62728 0.83218 0.0
C82 C 0.61867 0.58987 0.78749 0.0
C83 C 0.57853 0.42735 0.82172 0.0
C84 C 0.61942 0.38356 0.83106 0.0
C85 C 0.63771 0.42621 0.83679 0.0
C86 C 0.61725 0.44773 0.83232 0.0
C87 C 0.5594 0.38463 0.81648 0.0
C88 C 0.57955 0.36276 0.82127 0.0
C89 C 0.55983 0.45178 0.81553 0.0
O90 O 0.65803 0.54942 0.81974 0.0
O91 O 0.68835 0.6143 0.8364 0.0
O92 O 0.60601 0.59521 0.85872 0.0
O93 O 0.61683 0.5417 0.85161 0.0
O94 O 0.65829 0.6879 0.8235 0.0
O95 O 0.66469 0.67703 0.85441 0.0
O96 O 0.57132 0.61 0.82529 0.0
O97 O 0.53889 0.54013 0.82954 0.0
O98 O 0.58749 0.55604 0.79388 0.0
O99 O 0.64689 0.61845 0.80039 0.0
C100 C 0.69111 0.58216 0.82878 0.0
O101 O 0.54987 0.46913 0.83028 0.0
O102 O 0.58013 0.47799 0.80204 0.0
C103 C 0.60933 0.56405 0.8647 0.0
C104 C 0.63927 0.72198 0.84827 0.0
C105 C 0.58667 0.75195 0.86132 0.0
C106 C 0.62486 0.76508 0.87176 0.0
C107 C 0.65084 0.7498 0.86537 0.0
C108 C 0.6012 0.70919 0.83791 0.0
C109 C 0.57518 0.72379 0.84441 0.0
C110 C 0.66431 0.70295 0.84215 0.0
C111 C 0.53702 0.57458 0.82812 0.0
H112 H 0.66847 0.44343 0.84409 0.0
H113 H 0.63225 0.48064 0.83674 0.0
H114 H 0.52934 0.3684 0.80844 0.0
H115 H 0.56414 0.32969 0.81704 0.0
H116 H 0.63468 0.78734 0.88467 0.0
H117 H 0.67983 0.75965 0.87373 0.0
H118 H 0.59146 0.688 0.82461 0.0
H119 H 0.54673 0.71428 0.83565 0.0
C120 C 0.51707 0.96267 0.20001 0.0
C121 C 0.48653 0.96228 0.18705 0.0
C122 C 0.49771 1.00051 0.17846 0.0
C123 C 0.53663 1.03766 0.18352 0.0
H124 H 0.70313 0.15959 0.17116 0.0
H125 H 0.76557 0.2233 0.16147 0.0
H126 H 0.76537 0.28745 0.21725 0.0
H127 H 0.70463 0.22487 0.2268 0.0
H128 H 0.67484 0.17686 0.26697 0.0
H129 H 0.67781 0.17474 0.30336 0.0
H130 H 0.61649 1.04025 0.29666 0.0
H131 H 0.61129 1.0426 0.26047 0.0
H132 H 0.57672 0.99761 0.21564 0.0
H133 H 0.51123 0.93443 0.20666 0.0
H134 H 0.47564 1.00231 0.16843 0.0
H135 H 0.5426 0.06651 0.17749 0.0
N136 N 0.63164 0.11218 0.19756 0.0
N137 N 0.66634 0.14471 0.22894 0.0
N138 N 0.60799 0.07789 0.22753 0.0
C139 C 0.66395 0.14623 0.20861 0.0
C140 C 0.63896 0.11095 0.23849 0.0
C141 C 0.6031 0.07759 0.20727 0.0
C142 C 0.69799 0.18608 0.19993 0.0
C143 C 0.71597 0.18747 0.1812 0.0
C144 C 0.75229 0.22439 0.17568 0.0
C145 C 0.77223 0.26145 0.18865 0.0
C146 C 0.75283 0.26009 0.20688 0.0
C147 C 0.71705 0.22364 0.21234 0.0
C148 C 0.6426 0.10992 0.26073 0.0
C149 C 0.662 0.14686 0.2733 0.0
C150 C 0.66395 0.14556 0.29428 0.0
C151 C 0.64732 0.10727 0.30332 0.0
C152 C 0.62875 0.0704 0.29057 0.0
C153 C 0.62603 0.0717 0.26967 0.0
C154 C 0.56607 1.03799 0.19728 0.0
C155 C 0.55547 0.99934 0.20499 0.0
C156 C 0.67771 0.48715 0.5332 0.0
C157 C 0.64745 0.4557 0.51957 0.0
C158 C 0.61889 0.46539 0.51033 0.0
C159 C 0.61951 0.50362 0.51526 0.0
H160 H 0.67756 0.67999 0.5071 0.0
H161 H 0.67836 0.74385 0.49798 0.0
H162 H 0.59075 0.7264 0.54357 0.0
H163 H 0.59094 0.6644 0.55275 0.0
H164 H 0.64039 0.66155 0.59675 0.0
H165 H 0.63982 0.66331 0.6333 0.0
H166 H 0.63889 0.54658 0.63177 0.0
H167 H 0.64067 0.54537 0.5953 0.0
H168 H 0.70094 0.54669 0.54945 0.0
H169 H 0.70128 0.48269 0.54041 0.0
H170 H 0.59468 0.44268 0.49985 0.0
H171 H 0.59558 0.50834 0.50864 0.0
N172 N 0.64141 0.59987 0.52919 0.0
N173 N 0.63787 0.63128 0.56033 0.0
N174 N 0.64447 0.57197 0.55979 0.0
C175 C 0.63814 0.63122 0.5399 0.0
C176 C 0.64106 0.60221 0.57042 0.0
C177 C 0.6445 0.56974 0.53936 0.0
C178 C 0.63412 0.66612 0.53076 0.0
C179 C 0.65786 0.68934 0.51491 0.0
C180 C 0.65844 0.72651 0.50974 0.0
C181 C 0.6353 0.74206 0.5202 0.0
C182 C 0.6103 0.71743 0.53537 0.0
C183 C 0.60995 0.6809 0.54053 0.0
C184 C 0.64063 0.60333 0.59288 0.0
C185 C 0.64015 0.63623 0.60416 0.0
C186 C 0.63957 0.63713 0.62522 0.0
C187 C 0.6393 0.6051 0.63569 0.0
C188 C 0.63977 0.57221 0.62439 0.0
C189 C 0.64052 0.57138 0.60335 0.0
C190 C 0.64876 0.5339 0.52962 0.0
C191 C 0.67805 0.52482 0.53819 0.0
C192 C 0.9672 0.54742 0.86561 0.0
C193 C 0.96646 0.57465 0.85183 0.0
C194 C 1.00466 0.59998 0.84258 0.0
C195 C 1.04186 0.59931 0.84761 0.0
H196 H 0.15734 0.53342 0.84052 0.0
H197 H 0.22032 0.5312 0.83154 0.0
H198 H 0.29365 0.63718 0.87346 0.0
H199 H 0.23109 0.63792 0.88275 0.0
H200 H 0.17616 0.58244 0.92835 0.0
H201 H 0.17728 0.58412 0.96492 0.0
H202 H 1.06381 0.58949 0.96452 0.0
H203 H 1.06198 0.58653 0.92799 0.0
H204 H 1.00262 0.5265 0.88196 0.0
H205 H 0.93912 0.52622 0.87281 0.0
H206 H 1.00645 0.62173 0.83195 0.0
H207 H 1.07055 0.62079 0.8409 0.0
N208 N 0.11546 0.5797 0.86127 0.0
N209 N 0.1501 0.58491 0.89223 0.0
N210 N 0.08445 0.57905 0.89209 0.0
C211 C 0.14981 0.58325 0.87177 0.0
C212 C 0.11785 0.58273 0.90253 0.0
C213 C 0.08233 0.57771 0.87166 0.0
C214 C 0.18844 0.58619 0.86229 0.0
C215 C 0.18705 0.55682 0.84747 0.0
C216 C 0.22367 0.55548 0.8424 0.0
C217 C 0.26337 0.5835 0.8519 0.0
C218 C 0.26449 0.61388 0.86603 0.0
C219 C 0.22815 0.61486 0.87119 0.0
C220 C 0.11894 0.58426 0.92502 0.0
C221 C 0.15137 0.58394 0.93601 0.0
C222 C 0.15215 0.58516 0.9571 0.0
C223 C 0.12063 0.58693 0.96789 0.0
C224 C 0.0883 0.58741 0.95687 0.0
C225 C 0.08741 0.58599 0.9358 0.0
C226 C 1.04247 0.57327 0.86212 0.0
C227 C 1.00406 0.54704 0.87069 0.0
C228 C 0.17274 0.61568 0.46594 0.0
C229 C 0.18014 0.64126 0.48362 0.0
C230 C 0.14886 0.64968 0.48982 0.0
C231 C 0.11282 0.636 0.47776 0.0
H232 H 0.99952 0.64309 0.4702 0.0
H233 H 0.93942 0.61753 0.49119 0.0
H234 H 0.86864 0.51523 0.44689 0.0
H235 H 0.92807 0.54194 0.42567 0.0
H236 H 0.98919 0.57372 0.37986 0.0
H237 H 1.00206 0.5736 0.34394 0.0
H238 H 0.13008 0.61022 0.35802 0.0
H239 H 0.11768 0.61037 0.39364 0.0
H240 H 0.13328 0.58495 0.43961 0.0
H241 H 0.19568 0.60774 0.46096 0.0
H242 H 0.15347 0.66963 0.50319 0.0
H243 H 0.09049 0.64506 0.48244 0.0
N244 N 1.03877 0.60567 0.45151 0.0
N245 N 1.01095 0.59331 0.41838 0.0
N246 N 0.07684 0.60108 0.42488 0.0
C247 C 1.00747 0.59911 0.43843 0.0
C248 C 1.04613 0.595 0.4115 0.0
C249 C 1.07329 0.60617 0.44487 0.0
C250 C 0.96859 0.59368 0.44665 0.0
C251 C 0.97038 0.6163 0.46457 0.0
C252 C 0.93597 0.60167 0.47657 0.0
C253 C 0.89974 0.56352 0.4711 0.0
C254 C 0.89604 0.54465 0.45169 0.0
C255 C 0.93027 0.55978 0.43949 0.0
C256 C 1.05239 0.59225 0.38969 0.0
C257 C 1.01999 0.5815 0.37529 0.0
C258 C 1.02727 0.58124 0.35475 0.0
C259 C 1.06713 0.5922 0.34828 0.0
C260 C 0.09919 0.60212 0.36263 0.0
C261 C 0.0919 0.60197 0.38306 0.0
C262 C 0.10758 0.61418 0.45913 0.0
C263 C 0.13704 0.60269 0.45369 0.0
C264 C 0.72622 0.20066 0.79725 0.0
C265 C 0.72511 0.19808 0.81824 0.0
C266 C 0.71023 0.15886 0.82593 0.0
C267 C 0.69068 0.12272 0.81309 0.0
H268 H 0.5783 1.02152 0.81756 0.0
H269 H 0.53418 0.9606 0.83512 0.0
H270 H 0.48091 0.88961 0.77841 0.0
H271 H 0.52679 0.9509 0.76061 0.0
H272 H 0.69011 0.09933 0.72494 0.0
H273 H 0.69021 0.10339 0.68858 0.0
H274 H 0.55704 1.021 0.68442 0.0
H275 H 0.55673 1.01648 0.72089 0.0
H276 H 0.70513 0.16764 0.76844 0.0
H277 H 0.7374 0.23024 0.79069 0.0
H278 H 0.70997 0.15588 0.842 0.0
H279 H 0.67603 0.0928 0.81959 0.0
N280 N 0.6231 0.05707 0.78854 0.0
N281 N 0.59122 1.02532 0.75701 0.0
N282 N 0.65503 0.08842 0.75939 0.0
C283 C 0.59099 1.02537 0.77739 0.0
C284 C 0.62332 0.05678 0.74793 0.0
C285 C 0.6552 0.08862 0.77973 0.0
C286 C 0.55732 0.99071 0.78764 0.0
C287 C 0.55674 0.99321 0.80873 0.0
C288 C 0.53071 0.95821 0.81888 0.0
C289 C 0.50443 0.9198 0.80821 0.0
C290 C 0.50147 0.91853 0.78709 0.0
C291 C 0.52783 0.95365 0.77688 0.0
C292 C 0.62338 0.05762 0.7258 0.0
C293 C 0.66082 0.08192 0.7163 0.0
C294 C 0.66098 0.08413 0.69549 0.0
C295 C 0.62364 0.06257 0.68378 0.0
C296 C 0.58619 1.0381 0.69319 0.0
C297 C 0.58609 1.03534 0.71401 0.0
C298 C 0.68651 0.12533 0.79232 0.0
C299 C 0.70723 0.16456 0.7844 0.0
C300 C 0.643 0.35706 0.0798 0.0
C301 C 0.65174 0.36643 0.10059 0.0
C302 C 0.61885 0.35786 0.11326 0.0
C303 C 0.57928 0.3456 0.1051 0.0
H304 H 0.46743 0.33304 0.12071 0.0
H305 H 0.43249 0.35331 0.14578 0.0
H306 H 0.39641 0.40875 0.10009 0.0
H307 H 0.42958 0.3873 0.07509 0.0
H308 H 0.45966 0.39113 0.03137 0.0
H309 H 0.47428 0.43054 0.00148 0.0
H310 H 0.58647 0.42448 0.99431 0.0
H311 H 0.57227 0.38535 0.02408 0.0
H312 H 0.59878 0.34164 0.05542 0.0
H313 H 0.66757 0.36233 0.06972 0.0
H314 H 0.6245 0.36459 0.12936 0.0
H315 H 0.55564 0.34289 0.11525 0.0
N316 N 0.50692 0.34311 0.08793 0.0
N317 N 0.48023 0.36504 0.06232 0.0
N318 N 0.53725 0.3559 0.05665 0.0
C319 C 0.47861 0.35321 0.08137 0.0
C320 C 0.50928 0.36621 0.04981 0.0
C321 C 0.53617 0.34404 0.07564 0.0
C322 C 0.45168 0.35885 0.09587 0.0
C323 C 0.45126 0.34879 0.11594 0.0
C324 C 0.43153 0.36069 0.13037 0.0
C325 C 0.41191 0.38295 0.12503 0.0
C326 C 0.41061 0.39109 0.10476 0.0
C327 C 0.42995 0.37893 0.09036 0.0
C328 C 0.51491 0.38523 0.03027 0.0
C329 C 0.48723 0.39777 0.02332 0.0
C330 C 0.49555 0.42036 0.00621 0.0
C331 C 0.53184 0.43111 0.9958 0.0
C332 C 0.55868 0.41734 0.0023 0.0
C333 C 0.55027 0.39453 0.01928 0.0
C334 C 0.57213 0.34215 0.08414 0.0
C335 C 0.60353 0.34512 0.07162 0.0
C336 C 0.30864 0.48445 0.19384 0.0
C337 C 0.32327 0.52295 0.18543 0.0
C338 C 0.3286 0.46128 0.19046 0.0
C339 C 0.36287 0.47649 0.17792 0.0
C340 C 0.38156 0.51798 0.17223 0.0
C341 C 0.3618 0.54105 0.17637 0.0
C342 C 0.30989 0.41842 0.19816 0.0
C343 C 0.41903 0.53598 0.15939 0.0
C344 C 0.41741 0.41887 0.15894 0.0
C345 C 0.3954 0.40052 0.14048 0.0
C346 C 0.40554 0.44137 0.17219 0.0
C347 C 0.37175 0.44663 0.1665 0.0
C348 C 0.348 0.42608 0.14846 0.0
C349 C 0.35968 0.40269 0.13591 0.0
C350 C 0.43069 0.46111 0.19164 0.0
C351 C 0.31158 0.43069 0.14173 0.0
H352 H 0.27935 0.47032 0.20126 0.0
H353 H 0.37429 0.57163 0.17066 0.0
H354 H 0.28893 0.39485 0.18626 0.0
H355 H 0.33452 0.41114 0.20217 0.0
H356 H 0.29133 0.41559 0.21153 0.0
H357 H 0.43274 0.57007 0.15836 0.0
H358 H 0.44329 0.53006 0.16552 0.0
H359 H 0.40969 0.52059 0.14398 0.0
H360 H 0.44511 0.41744 0.16268 0.0
H361 H 0.34171 0.38744 0.12201 0.0
H362 H 0.41224 0.4659 0.20334 0.0
H363 H 0.45791 0.49183 0.1889 0.0
H364 H 0.44283 0.44162 0.19749 0.0
H365 H 0.28757 0.41947 0.15316 0.0
H366 H 0.29681 0.41303 0.12716 0.0
H367 H 0.32208 0.46404 0.1401 0.0
C368 C 0.79801 0.36076 0.53007 0.0
C369 C 0.81314 0.34215 0.51623 0.0
C370 C 0.80311 0.40031 0.52736 0.0
C371 C 0.8243 0.42185 0.51059 0.0
C372 C 0.83959 0.40318 0.49662 0.0
C373 C 0.83342 0.3636 0.49951 0.0
C374 C 0.78476 0.41835 0.54205 0.0
C375 C 0.86267 0.42496 0.47848 0.0
C376 C 0.83078 0.50813 0.48244 0.0
C377 C 0.87285 0.53755 0.4869 0.0
C378 C 0.8107 0.47192 0.49298 0.0
C379 C 0.83378 0.46505 0.5078 0.0
C380 C 0.87318 0.49822 0.51489 0.0
C381 C 0.89222 0.53434 0.50439 0.0
C382 C 0.76714 0.43853 0.48625 0.0
C383 C 0.89857 0.49288 0.53106 0.0
H384 H 0.78194 0.34437 0.54297 0.0
H385 H 0.8438 0.34906 0.48829 0.0
H386 H 0.8074 0.45144 0.54661 0.0
H387 H 0.75737 0.41746 0.53469 0.0
H388 H 0.77451 0.40063 0.55573 0.0
H389 H 0.87359 0.40654 0.46947 0.0
H390 H 0.84209 0.43067 0.46859 0.0
H391 H 0.89017 0.45562 0.48327 0.0
H392 H 0.81504 0.51122 0.46942 0.0
H393 H 0.92449 0.55713 0.50832 0.0
H394 H 0.74865 0.42395 0.49941 0.0
H395 H 0.76845 0.41389 0.47668 0.0
H396 H 0.75093 0.45114 0.47742 0.0
H397 H 0.87871 0.47421 0.54306 0.0
H398 H 0.92336 0.52344 0.53795 0.0
H399 H 0.9137 0.47614 0.52431 0.0
C400 C 0.51773 0.74766 0.86467 0.0
C401 C 0.56139 0.77179 0.86559 0.0
C402 C 0.49339 0.76576 0.86059 0.0
C403 C 0.51352 0.80851 0.857 0.0
C404 C 0.55701 0.83391 0.86128 0.0
C405 C 0.58048 0.81512 0.86561 0.0
C406 C 0.4468 0.7383 0.8578 0.0
C407 C 0.57972 0.88006 0.85838 0.0
C408 C 0.49527 0.84925 0.81051 0.0
C409 C 0.48887 0.88092 0.81886 0.0
C410 C 0.49755 0.82091 0.82266 0.0
C411 C 0.49311 0.82433 0.84364 0.0
C412 C 0.47942 0.8513 0.85148 0.0
C413 C 0.47753 0.87952 0.83895 0.0
C414 C 0.51085 0.79159 0.8134 0.0
C415 C 0.47139 0.85393 0.87345 0.0
H416 H 0.50286 0.71415 0.86529 0.0
H417 H 0.61418 0.83389 0.86658 0.0
H418 H 0.43071 0.75558 0.86239 0.0
H419 H 0.43829 0.72755 0.84171 0.0
H420 H 0.43528 0.7103 0.86657 0.0
H421 H 0.61249 0.89589 0.86439 0.0
H422 H 0.57987 0.88498 0.8421 0.0
H423 H 0.56374 0.89508 0.86593 0.0
H424 H 0.50356 0.84951 0.79499 0.0
H425 H 0.47088 0.90288 0.84536 0.0
H426 H 0.49129 0.75977 0.81842 0.0
H427 H 0.5436 0.8025 0.81829 0.0
H428 H 0.50873 0.78978 0.79672 0.0
H429 H 0.46364 0.82484 0.88065 0.0
H430 H 0.44552 0.86048 0.87542 0.0
H431 H 0.49958 0.88008 0.88136 0.0
C432 C 0.84938 0.55474 0.15511 0.0
C433 C 0.88708 0.55652 0.15133 0.0
C434 C 0.81161 0.51987 0.14798 0.0
C435 C 0.81206 0.48667 0.13667 0.0
C436 C 0.85026 0.48818 0.13328 0.0
C437 C 0.88741 0.52324 0.14066 0.0
C438 C 0.77138 0.51931 0.15181 0.0
C439 C 0.85208 0.45373 0.12111 0.0
C440 C 0.70816 0.38672 0.12733 0.0
C441 C 0.69533 0.39276 0.10856 0.0
C442 C 0.74694 0.41632 0.13644 0.0
C443 C 0.77308 0.45273 0.12657 0.0
C444 C 0.76114 0.45792 0.10723 0.0
C445 C 0.72247 0.42789 0.09847 0.0
C446 C 0.7593 0.40943 0.15689 0.0
C447 C 0.78822 0.49631 0.09619 0.0
H448 H 0.84958 0.58085 0.16329 0.0
H449 H 0.91696 0.52515 0.13772 0.0
H450 H 0.75711 0.52073 0.13738 0.0
H451 H 0.74889 0.48983 0.15832 0.0
H452 H 0.77612 0.5459 0.16217 0.0
H453 H 0.83003 0.42302 0.12671 0.0
H454 H 0.84255 0.4531 0.10522 0.0
H455 H 0.88384 0.45785 0.12158 0.0
H456 H 0.68736 0.35948 0.13511 0.0
H457 H 0.7125 0.43326 0.08416 0.0
H458 H 0.76315 0.43465 0.16794 0.0
H459 H 0.78973 0.41068 0.15638 0.0
H460 H 0.73591 0.37899 0.16232 0.0
H461 H 0.79088 0.52418 0.10461 0.0
H462 H 0.77554 0.49429 0.08074 0.0
H463 H 0.82011 0.50116 0.09519 0.0
C464 C 0.40084 0.83453 0.51963 0.0
C465 C 0.39092 0.86381 0.51291 0.0
C466 C 0.37017 0.79233 0.51996 0.0
C467 C 0.32894 0.77935 0.51323 0.0
C468 C 0.31824 0.80935 0.50799 0.0
C469 C 0.34936 0.85112 0.50786 0.0
C470 C 0.38275 0.76164 0.5262 0.0
C471 C 0.27449 0.797 0.50086 0.0
C472 C 0.257 0.68406 0.48101 0.0
C473 C 0.22268 0.6659 0.49325 0.0
C474 C 0.29481 0.71821 0.48837 0.0
C475 C 0.29815 0.73472 0.50835 0.0
C476 C 0.26607 0.71262 0.52159 0.0
C477 C 0.2285 0.67826 0.51386 0.0
C478 C 0.32889 0.74009 0.47388 0.0
C479 C 0.26941 0.72812 0.54327 0.0
H480 H 0.43282 0.8443 0.52396 0.0
H481 H 0.34141 0.87336 0.50247 0.0
H482 H 0.35672 0.73447 0.53282 0.0
H483 H 0.3923 0.75001 0.51281 0.0
H484 H 0.4097 0.77669 0.53724 0.0
H485 H 0.27075 0.82445 0.4989 0.0
H486 H 0.26664 0.77846 0.48622 0.0
H487 H 0.25169 0.77727 0.5117 0.0
H488 H 0.25328 0.67477 0.46511 0.0
H489 H 0.20263 0.66335 0.52361 0.0
H490 H 0.35981 0.74997 0.48106 0.0
H491 H 0.32902 0.76848 0.46941 0.0
H492 H 0.32441 0.71992 0.46008 0.0
H493 H 0.30172 0.74178 0.54962 0.0
H494 H 0.24795 0.70269 0.55257 0.0
H495 H 0.26095 0.75284 0.54427 0.0
C496 C 0.66868 0.37063 0.85158 0.0
C497 C 0.64288 0.36152 0.83424 0.0
C498 C 0.69168 0.35052 0.85429 0.0
C499 C 0.6884 0.32038 0.83938 0.0
C500 C 0.66265 0.31132 0.82181 0.0
C501 C 0.6406 0.33225 0.8194 0.0
C502 C 0.71974 0.36193 0.87291 0.0
C503 C 0.65791 0.27908 0.80553 0.0
C504 C 0.75526 0.2747 0.82659 0.0
C505 C 0.72813 0.23345 0.83114 0.0
C506 C 0.74625 0.30624 0.83204 0.0
C507 C 0.70938 0.29587 0.84215 0.0
C508 C 0.68648 0.2563 0.84994 0.0
C509 C 0.69621 0.22547 0.84436 0.0
C510 C 0.77277 0.34888 0.82447 0.0
C511 C 0.64759 0.24428 0.86132 0.0
H512 H 0.67066 0.39323 0.86316 0.0
H513 H 0.62182 0.32591 0.8057 0.0
H514 H 0.71663 0.33376 0.87945 0.0
H515 H 0.7526 0.3812 0.86884 0.0
H516 H 0.71311 0.38005 0.88458 0.0
H517 H 0.63631 0.27556 0.79293 0.0
H518 H 0.68863 0.28788 0.79936 0.0
H519 H 0.6459 0.24834 0.81188 0.0
H520 H 0.78095 0.28146 0.817 0.0
H521 H 0.67523 0.19392 0.84829 0.0
H522 H 0.77482 0.37347 0.83541 0.0
H523 H 0.75841 0.35085 0.81019 0.0
H524 H 0.80469 0.35512 0.82153 0.0
H525 H 0.65176 0.27022 0.87194 0.0
H526 H 0.63866 0.21636 0.86983 0.0
H527 H 0.62151 0.23699 0.85048 0.0
C528 C 0.60353 0.94079 0.49623 0.0
C529 C 0.64049 0.9799 0.49889 0.0
C530 C 0.60265 0.90253 0.49901 0.0
C531 C 0.63963 0.90215 0.50456 0.0
C532 C 0.67709 0.94148 0.50706 0.0
C533 C 0.67705 0.97928 0.5043 0.0
C534 C 0.56164 0.86227 0.49622 0.0
C535 C 0.71756 0.94376 0.5129 0.0
C536 C 0.63165 0.80783 0.53134 0.0
C537 C 0.63729 0.78355 0.51595 0.0
C538 C 0.63221 0.8456 0.52785 0.0
C539 C 0.63892 0.86113 0.5084 0.0
C540 C 0.64514 0.83724 0.4928 0.0
C541 C 0.6443 0.79936 0.4967 0.0
C542 C 0.62557 0.86908 0.5452 0.0
C543 C 0.65251 0.85167 0.47179 0.0
H544 H 0.57479 0.93995 0.49218 0.0
H545 H 0.70603 1.00865 0.50652 0.0
H546 H 0.564 0.84105 0.48465 0.0
H547 H 0.55397 0.84634 0.51044 0.0
H548 H 0.53568 0.86721 0.49162 0.0
H549 H 0.74434 0.97615 0.51364 0.0
H550 H 0.71526 0.93104 0.52779 0.0
H551 H 0.72388 0.92432 0.50192 0.0
H552 H 0.62724 0.79766 0.54646 0.0
H553 H 0.64848 0.78172 0.48442 0.0
H554 H 0.59839 0.87278 0.54166 0.0
H555 H 0.65312 0.90081 0.54765 0.0
H556 H 0.6202 0.85313 0.55938 0.0
H557 H 0.62549 0.85369 0.46602 0.0
H558 H 0.65737 0.83045 0.46127 0.0
H559 H 0.68021 0.88336 0.47193 0.0
C560 C 0.76933 0.61741 0.8388 0.0
C561 C 0.73218 0.5819 0.8311 0.0
C562 C 0.80736 0.61713 0.84158 0.0
C563 C 0.80934 0.58032 0.83685 0.0
C564 C 0.77193 0.54437 0.82909 0.0
C565 C 0.73446 0.54566 0.82623 0.0
C566 C 0.84563 0.65651 0.8498 0.0
C567 C 0.77122 0.50398 0.82401 0.0
C568 C 0.91701 0.58742 0.82921 0.0
C569 C 0.92645 0.57676 0.8478 0.0
C570 C 0.87969 0.58871 0.82547 0.0
C571 C 0.8499 0.57915 0.84055 0.0
C572 C 0.85927 0.5686 0.85933 0.0
C573 C 0.89679 0.56775 0.86269 0.0
C574 C 0.87202 0.60023 0.80519 0.0
C575 C 0.82941 0.55814 0.87609 0.0
H576 H 0.76879 0.64578 0.84274 0.0
H577 H 0.70656 0.51772 0.82038 0.0
H578 H 0.85637 0.65117 0.86434 0.0
H579 H 0.87128 0.66532 0.83933 0.0
H580 H 0.83988 0.68298 0.85217 0.0
H581 H 0.74017 0.47879 0.81799 0.0
H582 H 0.79463 0.50872 0.81272 0.0
H583 H 0.77981 0.49359 0.83762 0.0
H584 H 0.93856 0.59422 0.81729 0.0
H585 H 0.90301 0.56046 0.87736 0.0
H586 H 0.86787 0.62776 0.807 0.0
H587 H 0.84282 0.57423 0.79793 0.0
H588 H 0.89794 0.60743 0.79505 0.0
H589 H 0.82518 0.58505 0.88021 0.0
H590 H 0.84037 0.5499 0.88972 0.0
H591 H 0.79843 0.53158 0.87098 0.0
C592 C 0.24411 0.76492 0.17414 0.0
C593 C 0.24179 0.7269 0.16784 0.0
C594 C 0.28275 0.80323 0.17683 0.0
C595 C 0.32117 0.80477 0.17309 0.0
C596 C 0.31902 0.76657 0.16656 0.0
C597 C 0.27997 0.72865 0.16411 0.0
C598 C 0.28242 0.84226 0.18392 0.0
C599 C 0.35828 0.76563 0.16221 0.0
C600 C 0.42094 0.91134 0.16463 0.0
C601 C 0.44352 0.92249 0.1833 0.0
C602 C 0.38174 0.87373 0.16111 0.0
C603 C 0.36334 0.84572 0.17656 0.0
C604 C 0.38564 0.8571 0.19548 0.0
C605 C 0.42476 0.89463 0.19856 0.0
C606 C 0.3601 0.86372 0.14062 0.0
C607 C 0.36807 0.82944 0.21269 0.0
H608 H 0.21549 0.76483 0.17718 0.0
H609 H 0.27947 0.70013 0.15922 0.0
H610 H 0.30054 0.85514 0.19844 0.0
H611 H 0.29768 0.86634 0.17296 0.0
H612 H 0.25039 0.83656 0.18594 0.0
H613 H 0.35184 0.73414 0.15669 0.0
H614 H 0.3757 0.78791 0.15077 0.0
H615 H 0.3788 0.77566 0.17603 0.0
H616 H 0.43431 0.93166 0.1525 0.0
H617 H 0.44049 0.90237 0.21325 0.0
H618 H 0.32867 0.85993 0.14192 0.0
H619 H 0.35584 0.8337 0.13403 0.0
H620 H 0.37778 0.88829 0.13014 0.0
H621 H 0.33706 0.82518 0.21609 0.0
H622 H 0.38859 0.84235 0.22655 0.0
H623 H 0.36359 0.79815 0.20843 0.0
C624 C 0.60317 0.21393 0.50776 0.0
C625 C 0.63708 0.21094 0.50036 0.0
C626 C 0.60412 0.25279 0.51041 0.0
C627 C 0.63978 0.29065 0.50556 0.0
C628 C 0.67393 0.2877 0.49794 0.0
C629 C 0.67222 0.24853 0.49549 0.0
C630 C 0.56675 0.25331 0.51863 0.0
C631 C 0.71265 0.3262 0.49229 0.0
C632 C 0.63009 0.38895 0.49728 0.0
C633 C 0.64541 0.41325 0.51572 0.0
C634 C 0.62819 0.34973 0.49378 0.0
C635 C 0.64181 0.33311 0.50896 0.0
C636 C 0.65744 0.35742 0.52753 0.0
C637 C 0.65887 0.39637 0.53066 0.0
C638 C 0.61159 0.32599 0.47363 0.0
C639 C 0.67251 0.34202 0.54435 0.0
H640 H 0.5757 0.18574 0.51171 0.0
H641 H 0.69884 0.24749 0.48971 0.0
H642 H 0.57582 0.27285 0.533 0.0
H643 H 0.55508 0.26749 0.508 0.0
H644 H 0.54102 0.2216 0.52132 0.0
H645 H 0.73759 0.3197 0.48773 0.0
H646 H 0.70496 0.33978 0.47967 0.0
H647 H 0.72469 0.34996 0.50513 0.0
H648 H 0.61994 0.40079 0.4853 0.0
H649 H 0.67005 0.41328 0.5452 0.0
H650 H 0.58471 0.29457 0.47564 0.0
H651 H 0.63591 0.32154 0.46636 0.0
H652 H 0.60156 0.34224 0.4634 0.0
H653 H 0.64627 0.31267 0.54928 0.0
H654 H 0.68586 0.36507 0.55752 0.0
H655 H 0.69657 0.3349 0.53899 0.0
C656 C 0.49173 0.60878 0.82578 0.0
C657 C 0.49571 0.57424 0.83038 0.0
C658 C 0.45424 0.60986 0.8285 0.0
C659 C 0.41876 0.57576 0.8363 0.0
C660 C 0.42241 0.54062 0.8408 0.0
C661 C 0.46022 0.54021 0.83776 0.0
C662 C 0.45291 0.64814 0.82324 0.0
C663 C 0.38628 0.50335 0.84918 0.0
C664 C 0.33598 0.59509 0.86244 0.0
C665 C 0.30304 0.58099 0.84772 0.0
C666 C 0.37308 0.59374 0.85892 0.0
C667 C 0.3786 0.57732 0.8402 0.0
C668 C 0.34559 0.56275 0.82528 0.0
C669 C 0.30882 0.56475 0.82914 0.0
C670 C 0.40665 0.61001 0.87545 0.0
C671 C 0.34928 0.54526 0.80499 0.0
H672 H 0.51812 0.63533 0.81991 0.0
H673 H 0.46213 0.51322 0.84153 0.0
H674 H 0.42457 0.63931 0.81377 0.0
H675 H 0.45139 0.66479 0.83721 0.0
H676 H 0.48065 0.66989 0.81515 0.0
H677 H 0.39315 0.478 0.85153 0.0
H678 H 0.37832 0.51281 0.86375 0.0
H679 H 0.35841 0.49097 0.83883 0.0
H680 H 0.33279 0.60688 0.87709 0.0
H681 H 0.28479 0.55403 0.81731 0.0
H682 H 0.43617 0.63546 0.87012 0.0
H683 H 0.41259 0.58485 0.87955 0.0
H684 H 0.39828 0.62206 0.88915 0.0
H685 H 0.37681 0.56927 0.79759 0.0
H686 H 0.3212 0.5347 0.79497 0.0
H687 H 0.35422 0.51854 0.8068 0.0
C688 C 1.00531 0.45612 0.16502 0.0
C689 C 1.0069 0.49488 0.16487 0.0
C690 C 0.96778 0.41819 0.16796 0.0
C691 C 0.92989 0.41791 0.1714 0.0
C692 C 0.93128 0.45693 0.1714 0.0
C693 C 0.96905 0.49433 0.16787 0.0
C694 C 0.96886 0.37816 0.16757 0.0
C695 C 0.89262 0.45919 0.17547 0.0
C696 C 0.82299 0.3136 0.16408 0.0
C697 C 0.81301 0.30104 0.18384 0.0
C698 C 0.86016 0.351 0.15985 0.0
C699 C 0.88944 0.37736 0.17557 0.0
C700 C 0.8798 0.36463 0.19547 0.0
C701 C 0.84244 0.32732 0.19928 0.0
C702 C 0.86826 0.36196 0.13832 0.0
C703 C 0.9092 0.3906 0.21296 0.0
H704 H 1.0337 0.45527 0.16274 0.0
H705 H 0.9691 0.52347 0.16798 0.0
H706 H 0.95995 0.36434 0.1823 0.0
H707 H 0.94583 0.35527 0.15604 0.0
H708 H 1.0001 0.38287 0.16425 0.0
H709 H 0.89866 0.49162 0.17636 0.0
H710 H 0.86844 0.44063 0.16344 0.0
H711 H 0.87971 0.44534 0.18983 0.0
H712 H 0.80132 0.29453 0.15178 0.0
H713 H 0.83667 0.3185 0.21462 0.0
H714 H 0.89277 0.35556 0.13295 0.0
H715 H 0.87983 0.39558 0.13704 0.0
H716 H 0.83991 0.34359 0.12831 0.0
H717 H 0.93998 0.39315 0.21099 0.0
H718 H 0.89743 0.37728 0.22758 0.0
H719 H 0.91416 0.42266 0.21349 0.0
C720 C 0.12113 0.63046 0.08747 0.0
C721 C 0.12411 0.60098 0.09862 0.0
C722 C 0.12057 0.62789 0.06631 0.0
C723 C 0.12335 0.59521 0.05586 0.0
C724 C 0.12654 0.56543 0.06701 0.0
C725 C 0.12671 0.56856 0.08818 0.0
C726 C 0.1168 0.66016 0.05512 0.0
C727 C 0.12987 0.53026 0.05655 0.0
C728 C 0.0844 0.56737 1.00075 0.0
C729 C 0.12146 0.5884 0.99048 0.0
C730 C 0.0846 0.56913 0.02191 0.0
C731 C 0.12279 0.59222 0.03329 0.0
C732 C 0.16034 0.61311 0.02307 0.0
C733 C 0.15922 0.61109 0.00189 0.0
C734 C 1.04379 0.54641 0.03211 0.0
C735 C 0.20179 0.63803 0.03453 0.0
H736 H 0.11895 0.65557 0.09529 0.0
H737 H 0.12914 0.54565 0.09657 0.0
H738 H 0.14408 0.6767 0.04573 0.0
H739 H 0.08867 0.64475 0.04484 0.0
H740 H 0.11474 0.68352 0.06541 0.0
H741 H 0.13249 0.50983 0.06731 0.0
H742 H 0.10214 0.511 0.04632 0.0
H743 H 0.15753 0.54303 0.04718 0.0
H744 H 1.05506 0.54911 0.99224 0.0
H745 H 0.18805 0.628 0.99427 0.0
H746 H 1.03922 0.56883 0.04184 0.0
H747 H 1.04429 0.52353 0.04195 0.0
H748 H 1.01677 0.52969 0.02118 0.0
H749 H 0.20239 0.66392 0.0439 0.0
H750 H 0.22831 0.65132 0.02442 0.0
H751 H 0.20628 0.61806 0.04486 0.0
C752 C 0.62677 0.11647 0.42305 0.0
C753 C 0.64722 0.09954 0.43349 0.0
C754 C 0.62847 0.11868 0.40206 0.0
C755 C 0.65027 0.10261 0.39101 0.0
C756 C 0.67095 0.08539 0.40146 0.0
C757 C 0.66964 0.08457 0.42258 0.0
C758 C 0.60683 0.13825 0.39171 0.0
C759 C 0.69371 0.06701 0.39029 0.0
C760 C 0.6169 0.07223 0.33539 0.0
C761 C 0.64877 0.10569 0.32585 0.0
C762 C 0.6177 0.07029 0.35641 0.0
C763 C 0.65055 0.10311 0.36851 0.0
C764 C 0.68274 0.13705 0.3591 0.0
C765 C 0.68175 0.13768 0.33799 0.0
C766 C 0.58299 1.03317 0.3657 0.0
C767 C 0.718 0.1731 0.37138 0.0
H768 H 0.60969 0.12848 0.43135 0.0
H769 H 0.68531 0.07123 0.4305 0.0
H770 H 0.6292 0.16369 0.38272 0.0
H771 H 0.58171 0.11475 0.38115 0.0
H772 H 0.59299 0.15116 0.40252 0.0
H773 H 0.70828 0.05489 0.40056 0.0
H774 H 0.67174 1.04115 0.37951 0.0
H775 H 0.71833 0.09084 0.38142 0.0
H776 H 0.59068 1.04762 0.32649 0.0
H777 H 0.70712 0.16336 0.33103 0.0
H778 H 0.56488 1.04327 0.37517 0.0
H779 H 0.59609 1.01915 0.37563 0.0
H780 H 0.56135 1.00881 0.35421 0.0
H781 H 0.70538 0.18774 0.38191 0.0
H782 H 0.74057 0.19728 0.36186 0.0
H783 H 0.73488 0.16181 0.38059 0.0
C784 C 0.65414 0.63098 0.75768 0.0
C785 C 0.62246 0.59458 0.76536 0.0
C786 C 0.65816 0.63491 0.73678 0.0
C787 C 0.63001 0.60158 0.72313 0.0
C788 C 0.59791 0.56488 0.73082 0.0
C789 C 0.59447 0.56189 0.75172 0.0
C790 C 0.69266 0.67468 0.72928 0.0
C791 C 0.5673 0.52846 0.71692 0.0
C792 C 0.61434 0.61979 0.66862 0.0
C793 C 0.63817 0.60572 0.65822 0.0
C794 C 0.6122 0.61955 0.6897 0.0
C795 C 0.63417 0.60463 0.70083 0.0
C796 C 0.65867 0.59087 0.6905 0.0
C797 C 0.66047 0.5917 0.66943 0.0
C798 C 0.58572 0.63454 0.70003 0.0
C799 C 0.68257 0.57465 0.70169 0.0
H800 H 0.67593 0.65647 0.76801 0.0
H801 H 0.56989 0.53352 0.75736 0.0
H802 H 0.71356 0.66786 0.72015 0.0
H803 H 0.6794 0.68858 0.71937 0.0
H804 H 0.71151 0.69802 0.74175 0.0
H805 H 0.54394 0.50222 0.72523 0.0
H806 H 0.55064 0.53847 0.70675 0.0
H807 H 0.58417 0.51698 0.70735 0.0
H808 H 0.5965 0.63019 0.66024 0.0
H809 H 0.6796 0.58144 0.66173 0.0
H810 H 0.60446 0.65903 0.71208 0.0
H811 H 0.55976 0.6084 0.70727 0.0
H812 H 0.57239 0.64732 0.68944 0.0
H813 H 0.70394 0.59847 0.7134 0.0
H814 H 0.70108 0.56615 0.69157 0.0
H815 H 0.66065 0.54672 0.70945 0.0
C816 C 0.60214 1.04934 0.56413 0.0
C817 C 0.62986 0.08738 0.55629 0.0
C818 C 0.60046 1.04513 0.58489 0.0
C819 C 0.62686 0.07993 0.59815 0.0
C820 C 0.65452 0.11859 0.59037 0.0
C821 C 0.65586 0.12181 0.56949 0.0
C822 C 0.57084 1.0033 0.59262 0.0
C823 C 0.68284 0.15646 0.60409 0.0
C824 C 0.59687 0.07693 0.65248 0.0
C825 C 0.62389 0.06628 0.66182 0.0
C826 C 0.59782 0.08197 0.63177 0.0
C827 C 0.62601 0.07555 0.62016 0.0
C828 C 0.65304 0.06434 0.62951 0.0
C829 C 0.65187 0.06015 0.65029 0.0
C830 C 0.5689 0.09445 0.62234 0.0
C831 C 0.68302 0.05654 0.61755 0.0
H832 H 0.58206 1.02252 0.55401 0.0
H833 H 0.67725 0.15132 0.56353 0.0
H834 H 0.58854 0.99212 0.60129 0.0
H835 H 0.5492 1.00624 0.60299 0.0
H836 H 0.55219 0.97941 0.5803 0.0
H837 H 0.70159 0.18453 0.59568 0.0
H838 H 0.66417 0.16321 0.61491 0.0
H839 H 0.70437 0.15032 0.61299 0.0
H840 H 0.57556 0.0821 0.66147 0.0
H841 H 0.67255 0.05162 0.65753 0.0
H842 H 0.54812 0.07025 0.61062 0.0
H843 H 0.58722 0.12386 0.61484 0.0
H844 H 0.54937 0.09895 0.63354 0.0
H845 H 0.66563 1.03119 0.60566 0.0
H846 H 0.70171 1.04774 0.6271 0.0
H847 H 0.70459 0.08486 0.60995 0.0
C848 C 0.60331 0.5161 0.89069 0.0
C849 C 0.60049 0.55066 0.88541 0.0
C850 C 0.59196 0.50021 0.90955 0.0
C851 C 0.57769 0.51951 0.92365 0.0
C852 C 0.5758 0.55512 0.9187 0.0
C853 C 0.58715 0.57028 0.89955 0.0
C854 C 0.59446 0.46216 0.91421 0.0
C855 C 0.5611 0.57666 0.93347 0.0
C856 C 0.51213 0.44728 0.96287 0.0
C857 C 0.54216 0.45691 0.97829 0.0
C858 C 0.52273 0.46911 0.94537 0.0
C859 C 0.56425 0.50147 0.94338 0.0
C860 C 0.59408 0.51285 0.9594 0.0
C861 C 0.58271 0.49029 0.97663 0.0
C862 C 0.49011 0.45589 0.92855 0.0
C863 C 0.63853 0.54743 0.95793 0.0
H864 H 0.61371 0.50076 0.87991 0.0
H865 H 0.58489 0.59697 0.89556 0.0
H866 H 0.61506 0.46918 0.92778 0.0
H867 H 0.56313 0.43645 0.91751 0.0
H868 H 0.60653 0.45109 0.9016 0.0
H869 H 0.56355 0.60526 0.92772 0.0
H870 H 0.52816 0.55513 0.93676 0.0
H871 H 0.57962 0.5852 0.94789 0.0
H872 H 0.48079 0.42145 0.9641 0.0
H873 H 0.60578 0.49832 0.98873 0.0
H874 H 0.49776 0.44104 0.91571 0.0
H875 H 0.48976 0.48337 0.9231 0.0
H876 H 0.45844 0.43338 0.93326 0.0
H877 H 0.65432 0.53749 0.94679 0.0
H878 H 0.65641 0.55586 0.97256 0.0
H879 H 0.63944 0.57562 0.95261 0.0
C880 C 0.13518 0.59577 0.23435 0.0
C881 C 0.1154 0.61128 0.22245 0.0
C882 C 0.12825 0.59185 0.25498 0.0
C883 C 0.10144 0.60434 0.26386 0.0
C884 C 0.08214 0.62084 0.25196 0.0
C885 C 0.08914 0.62385 0.23139 0.0
C886 C 0.14901 0.57372 0.2672 0.0
C887 C 1.05387 0.63511 0.26094 0.0
C888 C 1.05021 0.56193 0.31268 0.0
C889 C 0.07597 0.59476 0.32667 0.0
C890 C 1.05876 0.56415 0.2922 0.0
C891 C 0.09348 0.60035 0.28561 0.0
C892 C 0.11956 0.63358 0.29971 0.0
C893 C 0.1106 0.63028 0.32009 0.0
C894 C 1.03054 0.52791 0.2776 0.0
C895 C 0.15643 0.67297 0.29321 0.0
H896 H 0.15525 0.58571 0.22748 0.0
H897 H 1.07393 0.63609 0.22228 0.0
H898 H 0.16843 0.59626 0.27978 0.0
H899 H 0.12502 0.54525 0.27391 0.0
H900 H 0.16901 0.56556 0.25803 0.0
H901 H 1.04209 0.64816 0.2497 0.0
H902 H 1.02682 0.6086 0.26739 0.0
H903 H 1.07076 0.65925 0.27339 0.0
H904 H 1.02366 0.53432 0.31781 0.0
H905 H 0.1303 0.65587 0.3309 0.0
H906 H 1.04906 0.51709 0.26894 0.0
H907 H 1.01521 0.53795 0.26664 0.0
H908 H 1.00604 0.50127 0.28527 0.0
H909 H 0.1778 0.66543 0.28495 0.0
H910 H 0.17417 0.69551 0.30614 0.0
H911 H 0.14564 0.68823 0.28278 0.0
loop_
_geom_bond_atom_site_label_1
_geom_bond_atom_site_label_2
_geom_bond_distance
_geom_bond_site_symmetry_2
_ccdc_geom_bond_type
Tb0 C9 2.764 1_455 S
Tb0 O10 2.325 1_455 S
Tb0 O13 2.303 . S
Tb0 O17 2.322 . S
Tb0 O18 2.349 . S
Tb0 O21 2.415 1_455 S
Tb0 O22 2.399 1_455 S
Tb1 O11 2.322 . S
Tb1 O12 2.349 . S
Tb1 O14 2.415 . S
Tb1 O15 2.399 . S
Tb1 O16 2.325 . S
Tb1 O19 2.303 . S
Tb1 C30 2.764 . S
C2 O18 1.261 . S
C2 O19 1.257 . S
C3 C6 1.358 . S
C3 C7 1.332 . S
C3 C9 1.504 . S
C4 C5 1.373 . S
C4 C8 1.308 . S
C5 C4 1.373 . S
C5 C6 1.429 . S
C5 H32 0.932 . S
C6 C3 1.358 . S
C6 C5 1.429 . S
C6 H33 0.930 . S
C7 C3 1.332 . S
C7 C8 1.394 . S
C7 H34 0.932 . S
C8 C4 1.308 . S
C8 C7 1.394 . S
C8 H35 0.929 . S
C9 Tb0 2.764 1_655 S
C9 C3 1.504 . S
C9 O21 1.239 . S
C9 O22 1.263 . S
O10 Tb0 2.325 1_655 S
O10 C20 1.236 . S
O11 Tb1 2.322 . S
O11 C20 1.257 1_455 S
O12 Tb1 2.349 . S
O12 C23 1.261 . S
O13 Tb0 2.303 . S
O13 C23 1.257 . S
O14 Tb1 2.415 . S
O14 C30 1.239 . S
O15 Tb1 2.399 . S
O15 C30 1.263 . S
O16 Tb1 2.325 . S
O16 C31 1.236 . S
O17 Tb0 2.322 . S
O17 C31 1.257 . S
O18 Tb0 2.349 . S
O18 C2 1.261 . S
O19 Tb1 2.303 . S
O19 C2 1.257 . S
C20 O10 1.236 . S
C20 O11 1.257 1_655 S
O21 Tb0 2.415 1_655 S
O21 C9 1.239 . S
O22 Tb0 2.399 1_655 S
O22 C9 1.263 . S
C23 O12 1.261 . S
C23 O13 1.257 . S
C24 C27 1.358 . S
C24 C28 1.332 . S
C24 C30 1.504 . S
C25 C26 1.373 . S
C25 C29 1.308 . S
C26 C25 1.373 . S
C26 C27 1.429 . S
C26 H36 0.932 . S
C27 C24 1.358 . S
C27 C26 1.429 . S
C27 H37 0.930 . S
C28 C24 1.332 . S
C28 C29 1.394 . S
C28 H38 0.932 . S
C29 C25 1.308 . S
C29 C28 1.394 . S
C29 H39 0.929 . S
C30 Tb1 2.764 . S
C30 O14 1.239 . S
C30 O15 1.263 . S
C30 C24 1.504 . S
C31 O16 1.236 . S
C31 O17 1.257 . S
H32 C5 0.932 . S
H33 C6 0.930 . S
H34 C7 0.932 . S
H35 C8 0.929 . S
H36 C26 0.932 . S
H37 C27 0.930 . S
H38 C28 0.932 . S
H39 C29 0.929 . S
Tb40 C49 2.764 . S
Tb40 O50 2.325 . S
Tb40 O53 2.303 1_565 S
Tb40 O57 2.322 1_565 S
Tb40 O58 2.349 1_565 S
Tb40 O61 2.415 . S
Tb40 O62 2.399 . S
Tb41 O51 2.322 1_545 S
Tb41 O52 2.349 . S
Tb41 O54 2.415 . S
Tb41 O55 2.399 . S
Tb41 O56 2.325 . S
Tb41 O59 2.303 . S
Tb41 C70 2.764 . S
C42 O58 1.261 . S
C42 O59 1.257 . S
C43 C46 1.358 . S
C43 C47 1.332 . S
C43 C49 1.504 . S
C44 C45 1.373 . S
C44 C48 1.308 . S
C45 C44 1.373 . S
C45 C46 1.429 . S
C45 H72 0.932 . S
C46 C43 1.358 . S
C46 C45 1.429 . S
C46 H73 0.930 . S
C47 C43 1.332 . S
C47 C48 1.394 . S
C47 H74 0.932 . S
C48 C44 1.308 . S
C48 C47 1.394 . S
C48 H75 0.929 . S
C49 Tb40 2.764 . S
C49 C43 1.504 . S
C49 O61 1.239 . S
C49 O62 1.263 . S
O50 Tb40 2.325 . S
O50 C60 1.236 . S
O51 Tb41 2.322 1_565 S
O51 C60 1.257 . S
O52 Tb41 2.349 . S
O52 C63 1.261 . S
O53 Tb40 2.303 1_545 S
O53 C63 1.257 . S
O54 Tb41 2.415 . S
O54 C70 1.239 . S
O55 Tb41 2.399 . S
O55 C70 1.263 . S
O56 Tb41 2.325 . S
O56 C71 1.236 . S
O57 Tb40 2.322 1_545 S
O57 C71 1.257 . S
O58 Tb40 2.349 1_545 S
O58 C42 1.261 . S
O59 Tb41 2.303 . S
O59 C42 1.257 . S
C60 O50 1.236 . S
C60 O51 1.257 . S
O61 Tb40 2.415 . S
O61 C49 1.239 . S
O62 Tb40 2.399 . S
O62 C49 1.263 . S
C63 O52 1.261 . S
C63 O53 1.257 . S
C64 C67 1.358 . S
C64 C68 1.332 . S
C64 C70 1.504 . S
C65 C66 1.373 . S
C65 C69 1.308 . S
C66 C65 1.373 . S
C66 C67 1.429 . S
C66 H76 0.932 . S
C67 C64 1.358 . S
C67 C66 1.429 . S
C67 H77 0.930 . S
C68 C64 1.332 . S
C68 C69 1.394 . S
C68 H78 0.932 . S
C69 C65 1.308 . S
C69 C68 1.394 . S
C69 H79 0.929 . S
C70 Tb41 2.764 . S
C70 O54 1.239 . S
C70 O55 1.263 . S
C70 C64 1.504 . S
C71 O56 1.236 . S
C71 O57 1.257 . S
H72 C45 0.932 . S
H73 C46 0.930 . S
H74 C47 0.932 . S
H75 C48 0.929 . S
H76 C66 0.932 . S
H77 C67 0.930 . S
H78 C68 0.932 . S
H79 C69 0.929 . S
Tb80 C89 2.764 . S
Tb80 O90 2.325 . S
Tb80 O93 2.303 . S
Tb80 O97 2.322 . S
Tb80 O98 2.349 . S
Tb80 O101 2.415 . S
Tb80 O102 2.399 . S
Tb81 O91 2.322 . S
Tb81 O92 2.349 . S
Tb81 O94 2.415 . S
Tb81 O95 2.399 . S
Tb81 O96 2.325 . S
Tb81 O99 2.303 . S
Tb81 C110 2.764 . S
C82 O98 1.261 . S
C82 O99 1.257 . S
C83 C86 1.358 . S
C83 C87 1.332 . S
C83 C89 1.504 . S
C84 C85 1.373 . S
C84 C88 1.308 . S
C85 C84 1.373 . S
C85 C86 1.429 . S
C85 H112 0.932 . S
C86 C83 1.358 . S
C86 C85 1.429 . S
C86 H113 0.930 . S
C87 C83 1.332 . S
C87 C88 1.394 . S
C87 H114 0.932 . S
C88 C84 1.308 . S
C88 C87 1.394 . S
C88 H115 0.929 . S
C89 Tb80 2.764 . S
C89 C83 1.504 . S
C89 O101 1.239 . S
C89 O102 1.263 . S
O90 Tb80 2.325 . S
O90 C100 1.236 . S
O91 Tb81 2.322 . S
O91 C100 1.257 . S
O92 Tb81 2.349 . S
O92 C103 1.261 . S
O93 Tb80 2.303 . S
O93 C103 1.257 . S
O94 Tb81 2.415 . S
O94 C110 1.239 . S
O95 Tb81 2.399 . S
O95 C110 1.263 . S
O96 Tb81 2.325 . S
O96 C111 1.236 . S
O97 Tb80 2.322 . S
O97 C111 1.257 . S
O98 Tb80 2.349 . S
O98 C82 1.261 . S
O99 Tb81 2.303 . S
O99 C82 1.257 . S
C100 O90 1.236 . S
C100 O91 1.257 . S
O101 Tb80 2.415 . S
O101 C89 1.239 . S
O102 Tb80 2.399 . S
O102 C89 1.263 . S
C103 O92 1.261 . S
C103 O93 1.257 . S
C104 C107 1.358 . S
C104 C108 1.332 . S
C104 C110 1.504 . S
C105 C106 1.373 . S
C105 C109 1.308 . S
C106 C105 1.373 . S
C106 C107 1.429 . S
C106 H116 0.932 . S
C107 C104 1.358 . S
C107 C106 1.429 . S
C107 H117 0.930 . S
C108 C104 1.332 . S
C108 C109 1.394 . S
C108 H118 0.932 . S
C109 C105 1.308 . S
C109 C108 1.394 . S
C109 H119 0.929 . S
C110 Tb81 2.764 . S
C110 O94 1.239 . S
C110 O95 1.263 . S
C110 C104 1.504 . S
C111 O96 1.236 . S
C111 O97 1.257 . S
H112 C85 0.932 . S
H113 C86 0.930 . S
H114 C87 0.932 . S
H115 C88 0.929 . S
H116 C106 0.932 . S
H117 C107 0.930 . S
H118 C108 0.932 . S
H119 C109 0.929 . S
C120 C121 1.384 . S
C120 H133 0.947 . S
C120 C155 1.382 . S
C121 C120 1.384 . S
C121 C122 1.378 . S
C122 C121 1.378 . S
C122 C123 1.378 . S
C122 H134 0.952 . S
C123 C122 1.378 . S
C123 H135 0.950 . S
C123 C154 1.383 . S
H124 C143 0.947 . S
H125 C144 0.946 . S
H126 C146 0.953 . S
H127 C147 0.945 . S
H128 C149 0.952 . S
H129 C150 0.949 . S
H130 C152 0.950 1_565 S
H131 C153 0.948 . S
H132 C155 0.951 . S
H133 C120 0.947 . S
H134 C122 0.952 . S
H135 C123 0.950 . S
N136 C139 1.382 . S
N136 C141 1.363 1_545 S
N137 C139 1.371 . S
N137 C140 1.372 . S
N138 C140 1.361 1_565 S
N138 C141 1.377 . S
C139 N136 1.382 . S
C139 N137 1.371 . S
C139 C142 1.480 . S
C140 N137 1.372 . S
C140 N138 1.361 1_545 S
C140 C148 1.457 . S
C141 N136 1.363 1_565 S
C141 N138 1.377 . S
C141 C154 1.479 . S
C142 C139 1.480 . S
C142 C143 1.383 . S
C142 C147 1.385 . S
C143 H124 0.947 . S
C143 C142 1.383 . S
C143 C144 1.388 . S
C144 H125 0.946 . S
C144 C143 1.388 . S
C144 C145 1.384 . S
C145 C144 1.384 . S
C145 C146 1.377 . S
C146 H126 0.953 . S
C146 C145 1.377 . S
C146 C147 1.369 . S
C147 H127 0.945 . S
C147 C142 1.385 . S
C147 C146 1.369 . S
C148 C140 1.457 . S
C148 C149 1.372 . S
C148 C153 1.364 1_545 S
C149 H128 0.952 . S
C149 C148 1.372 . S
C149 C150 1.389 . S
C150 H129 0.949 . S
C150 C149 1.389 . S
C150 C151 1.387 . S
C151 C150 1.387 . S
C151 C152 1.372 . S
C152 H130 0.950 1_545 S
C152 C151 1.372 . S
C152 C153 1.379 1_545 S
C153 H131 0.948 . S
C153 C148 1.364 1_565 S
C153 C152 1.379 1_565 S
C154 C123 1.383 . S
C154 C141 1.479 . S
C154 C155 1.398 . S
C155 C120 1.382 . S
C155 H132 0.951 . S
C155 C154 1.398 . S
C156 C157 1.384 . S
C156 H169 0.947 . S
C156 C191 1.382 . S
C157 C156 1.384 . S
C157 C158 1.378 . S
C158 C157 1.378 . S
C158 C159 1.378 . S
C158 H170 0.952 . S
C159 C158 1.378 . S
C159 H171 0.950 . S
C159 C190 1.383 . S
H160 C179 0.947 . S
H161 C180 0.946 . S
H162 C182 0.953 . S
H163 C183 0.945 . S
H164 C185 0.952 . S
H165 C186 0.949 . S
H166 C188 0.950 . S
H167 C189 0.948 . S
H168 C191 0.951 . S
H169 C156 0.947 . S
H170 C158 0.952 . S
H171 C159 0.950 . S
N172 C175 1.382 . S
N172 C177 1.363 . S
N173 C175 1.371 . S
N173 C176 1.372 . S
N174 C176 1.361 . S
N174 C177 1.377 . S
C175 N172 1.382 . S
C175 N173 1.371 . S
C175 C178 1.480 . S
C176 N173 1.372 . S
C176 N174 1.361 . S
C176 C184 1.457 . S
C177 N172 1.363 . S
C177 N174 1.377 . S
C177 C190 1.479 . S
C178 C175 1.480 . S
C178 C179 1.383 . S
C178 C183 1.385 . S
C179 H160 0.947 . S
C179 C178 1.383 . S
C179 C180 1.388 . S
C180 H161 0.946 . S
C180 C179 1.388 . S
C180 C181 1.384 . S
C181 C180 1.384 . S
C181 C182 1.377 . S
C182 H162 0.953 . S
C182 C181 1.377 . S
C182 C183 1.369 . S
C183 H163 0.945 . S
C183 C178 1.385 . S
C183 C182 1.369 . S
C184 C176 1.457 . S
C184 C185 1.372 . S
C184 C189 1.364 . S
C185 H164 0.952 . S
C185 C184 1.372 . S
C185 C186 1.389 . S
C186 H165 0.949 . S
C186 C185 1.389 . S
C186 C187 1.387 . S
C187 C186 1.387 . S
C187 C188 1.372 . S
C188 H166 0.950 . S
C188 C187 1.372 . S
C188 C189 1.379 . S
C189 H167 0.948 . S
C189 C184 1.364 . S
C189 C188 1.379 . S
C190 C159 1.383 . S
C190 C177 1.479 . S
C190 C191 1.398 . S
C191 C156 1.382 . S
C191 H168 0.951 . S
C191 C190 1.398 . S
C192 C193 1.384 . S
C192 H205 0.947 . S
C192 C227 1.382 . S
C193 C192 1.384 . S
C193 C194 1.378 . S
C194 C193 1.378 . S
C194 C195 1.378 . S
C194 H206 0.952 . S
C195 C194 1.378 . S
C195 H207 0.950 1_655 S
C195 C226 1.383 1_655 S
H196 C215 0.947 . S
H197 C216 0.946 . S
H198 C218 0.953 . S
H199 C219 0.945 . S
H200 C221 0.952 . S
H201 C222 0.949 . S
H202 C224 0.950 . S
H203 C225 0.948 . S
H204 C227 0.951 . S
H205 C192 0.947 . S
H206 C194 0.952 . S
H207 C195 0.950 1_455 S
N208 C211 1.382 . S
N208 C213 1.363 . S
N209 C211 1.371 . S
N209 C212 1.372 . S
N210 C212 1.361 . S
N210 C213 1.377 . S
C211 N208 1.382 . S
C211 N209 1.371 . S
C211 C214 1.480 . S
C212 N209 1.372 . S
C212 N210 1.361 . S
C212 C220 1.457 . S
C213 N208 1.363 . S
C213 N210 1.377 . S
C213 C226 1.490 . S
C214 C211 1.480 . S
C214 C215 1.383 . S
C214 C219 1.385 . S
C215 H196 0.947 . S
C215 C214 1.383 . S
C215 C216 1.388 . S
C216 H197 0.946 . S
C216 C215 1.388 . S
C216 C217 1.384 . S
C217 C216 1.384 . S
C217 C218 1.377 . S
C218 H198 0.953 . S
C218 C217 1.377 . S
C218 C219 1.369 . S
C219 H199 0.945 . S
C219 C214 1.385 . S
C219 C218 1.369 . S
C220 C212 1.457 . S
C220 C221 1.372 . S
C220 C225 1.364 . S
C221 H200 0.952 . S
C221 C220 1.372 . S
C221 C222 1.389 . S
C222 H201 0.949 . S
C222 C221 1.389 . S
C222 C223 1.387 . S
C223 C222 1.387 . S
C223 C224 1.372 . S
C224 H202 0.950 . S
C224 C223 1.372 . S
C224 C225 1.379 . S
C225 H203 0.948 . S
C225 C220 1.364 . S
C225 C224 1.379 . S
C226 C195 1.383 1_455 S
C226 C213 1.490 . S
C226 C227 1.387 1_455 S
C227 C192 1.382 . S
C227 H204 0.951 . S
C227 C226 1.387 1_655 S
C228 C229 1.384 . S
C228 H241 0.947 . S
C228 C263 1.382 . S
C229 C228 1.384 . S
C229 C230 1.378 . S
C230 C229 1.378 . S
C230 C231 1.378 . S
C230 H242 0.952 . S
C231 C230 1.378 . S
C231 H243 0.950 . S
C231 C262 1.383 . S
H232 C251 0.947 . S
H233 C252 0.946 . S
H234 C254 0.953 . S
H235 C255 0.945 . S
H236 C257 0.952 . S
H237 C258 0.949 . S
H238 C260 0.950 . S
H239 C261 0.948 . S
H240 C263 0.951 . S
H241 C228 0.947 . S
H242 C230 0.952 . S
H243 C231 0.950 . S
N244 C247 1.382 1_455 S
N244 C249 1.363 . S
N245 C247 1.371 . S
N245 C248 1.372 1_655 S
N246 C248 1.361 . S
N246 C249 1.377 . S
C247 N244 1.382 1_655 S
C247 N245 1.371 . S
C247 C250 1.480 . S
C248 N245 1.372 1_455 S
C248 N246 1.361 . S
C248 C256 1.457 . S
C249 N244 1.363 . S
C249 N246 1.377 . S
C249 C262 1.479 . S
C250 C247 1.480 . S
C250 C251 1.383 . S
C250 C255 1.385 . S
C251 H232 0.947 . S
C251 C250 1.383 . S
C251 C252 1.388 . S
C252 H233 0.946 . S
C252 C251 1.388 . S
C252 C253 1.384 . S
C253 C252 1.384 . S
C253 C254 1.377 . S
C254 H234 0.953 . S
C254 C253 1.377 . S
C254 C255 1.369 . S
C255 H235 0.945 . S
C255 C250 1.385 . S
C255 C254 1.369 . S
C256 C248 1.457 . S
C256 C257 1.372 1_455 S
C256 C261 1.364 . S
C257 H236 0.952 . S
C257 C256 1.372 1_655 S
C257 C258 1.389 . S
C258 H237 0.949 . S
C258 C257 1.389 . S
C258 C259 1.381 1_655 S
C259 C258 1.381 1_455 S
C259 C260 1.377 . S
C260 H238 0.950 . S
C260 C259 1.377 . S
C260 C261 1.379 . S
C261 H239 0.948 . S
C261 C256 1.364 . S
C261 C260 1.379 . S
C262 C231 1.383 . S
C262 C249 1.479 . S
C262 C263 1.398 . S
C263 C228 1.382 . S
C263 H240 0.951 . S
C263 C262 1.398 . S
C264 C265 1.384 . S
C264 H277 0.947 . S
C264 C299 1.382 . S
C265 C264 1.384 . S
C265 C266 1.378 . S
C266 C265 1.378 . S
C266 C267 1.378 . S
C266 H278 0.952 . S
C267 C266 1.378 . S
C267 H279 0.950 . S
C267 C298 1.383 . S
H268 C287 0.947 . S
H269 C288 0.946 . S
H270 C290 0.953 . S
H271 C291 0.945 . S
H272 C293 0.952 . S
H273 C294 0.949 . S
H274 C296 0.950 . S
H275 C297 0.948 . S
H276 C299 0.951 . S
H277 C264 0.947 . S
H278 C266 0.952 . S
H279 C267 0.950 . S
N280 C283 1.382 1_545 S
N280 C285 1.363 . S
N281 C283 1.371 . S
N281 C284 1.372 1_565 S
N282 C284 1.361 . S
N282 C285 1.377 . S
C283 N280 1.382 1_565 S
C283 N281 1.371 . S
C283 C286 1.480 . S
C284 N281 1.372 1_545 S
C284 N282 1.361 . S
C284 C292 1.457 . S
C285 N280 1.363 . S
C285 N282 1.377 . S
C285 C298 1.479 . S
C286 C283 1.480 . S
C286 C287 1.383 . S
C286 C291 1.385 . S
C287 H268 0.947 . S
C287 C286 1.383 . S
C287 C288 1.388 . S
C288 H269 0.946 . S
C288 C287 1.388 . S
C288 C289 1.384 . S
C289 C288 1.384 . S
C289 C290 1.377 . S
C290 H270 0.953 . S
C290 C289 1.377 . S
C290 C291 1.369 . S
C291 H271 0.945 . S
C291 C286 1.385 . S
C291 C290 1.369 . S
C292 C284 1.457 . S
C292 C293 1.372 1_545 S
C292 C297 1.364 . S
C293 H272 0.952 . S
C293 C292 1.372 1_565 S
C293 C294 1.389 . S
C294 H273 0.949 . S
C294 C293 1.389 . S
C294 C295 1.387 . S
C295 C294 1.387 . S
C295 C296 1.372 1_565 S
C296 H274 0.950 . S
C296 C295 1.372 1_545 S
C296 C297 1.379 . S
C297 H275 0.948 . S
C297 C292 1.364 . S
C297 C296 1.379 . S
C298 C267 1.383 . S
C298 C285 1.479 . S
C298 C299 1.398 . S
C299 C264 1.382 . S
C299 H276 0.951 . S
C299 C298 1.398 . S
C300 C301 1.384 . S
C300 H313 0.947 . S
C300 C335 1.382 . S
C301 C300 1.384 . S
C301 C302 1.378 . S
C302 C301 1.378 . S
C302 C303 1.378 . S
C302 H314 0.952 . S
C303 C302 1.378 . S
C303 H315 0.950 . S
C303 C334 1.383 . S
H304 C323 0.947 . S
H305 C324 0.946 . S
H306 C326 0.953 . S
H307 C327 0.945 . S
H308 C329 0.952 . S
H309 C330 0.949 . S
H310 C332 0.950 . S
H311 C333 0.948 . S
H312 C335 0.951 . S
H313 C300 0.947 . S
H314 C302 0.952 . S
H315 C303 0.950 . S
N316 C319 1.382 . S
N316 C321 1.363 . S
N317 C319 1.371 . S
N317 C320 1.372 . S
N318 C320 1.361 . S
N318 C321 1.377 . S
C319 N316 1.382 . S
C319 N317 1.371 . S
C319 C322 1.480 . S
C320 N317 1.372 . S
C320 N318 1.361 . S
C320 C328 1.457 . S
C321 N316 1.363 . S
C321 N318 1.377 . S
C321 C334 1.479 . S
C322 C319 1.480 . S
C322 C323 1.383 . S
C322 C327 1.385 . S
C323 H304 0.947 . S
C323 C322 1.383 . S
C323 C324 1.388 . S
C324 H305 0.946 . S
C324 C323 1.388 . S
C324 C325 1.384 . S
C325 C324 1.384 . S
C325 C326 1.377 . S
C326 H306 0.953 . S
C326 C325 1.377 . S
C326 C327 1.369 . S
C327 H307 0.945 . S
C327 C322 1.385 . S
C327 C326 1.369 . S
C328 C320 1.457 . S
C328 C329 1.372 . S
C328 C333 1.364 . S
C329 H308 0.952 . S
C329 C328 1.372 . S
C329 C330 1.389 . S
C330 H309 0.949 . S
C330 C329 1.389 . S
C330 C331 1.387 . S
C331 C330 1.387 . S
C331 C332 1.372 . S
C332 H310 0.950 . S
C332 C331 1.372 . S
C332 C333 1.379 . S
C333 H311 0.948 . S
C333 C328 1.364 . S
C333 C332 1.379 . S
C334 C303 1.383 . S
C334 C321 1.479 . S
C334 C335 1.398 . S
C335 C300 1.382 . S
C335 H312 0.951 . S
C335 C334 1.398 . S
C336 C337 1.391 . S
C336 C338 1.394 . S
C336 H352 0.931 . S
C337 C336 1.391 . S
C337 C341 1.376 . S
C338 C336 1.394 . S
C338 C339 1.369 . S
C338 C342 1.531 . S
C339 C338 1.369 . S
C339 C340 1.410 . S
C339 C347 1.503 . S
C340 C339 1.410 . S
C340 C341 1.392 . S
C340 C343 1.511 . S
C341 C337 1.376 . S
C341 C340 1.392 . S
C341 H353 0.929 . S
C342 C338 1.531 . S
C342 H354 0.960 . S
C342 H355 0.962 . S
C342 H356 0.960 . S
C343 C340 1.511 . S
C343 H357 0.961 . S
C343 H358 0.961 . S
C343 H359 0.961 . S
C344 C345 1.370 . S
C344 C346 1.363 . S
C344 H360 0.931 . S
C345 C344 1.370 . S
C345 C349 1.408 . S
C346 C344 1.363 . S
C346 C347 1.370 . S
C346 C350 1.524 . S
C347 C339 1.503 . S
C347 C346 1.370 . S
C347 C348 1.403 . S
C348 C347 1.403 . S
C348 C349 1.404 . S
C348 C351 1.539 . S
C349 C345 1.408 . S
C349 C348 1.404 . S
C349 H361 0.930 . S
C350 C346 1.524 . S
C350 H362 0.956 . S
C350 H363 0.961 . S
C350 H364 0.961 . S
C351 C348 1.539 . S
C351 H365 0.958 . S
C351 H366 0.961 . S
C351 H367 0.960 . S
H352 C336 0.931 . S
H353 C341 0.929 . S
H354 C342 0.960 . S
H355 C342 0.962 . S
H356 C342 0.960 . S
H357 C343 0.961 . S
H358 C343 0.961 . S
H359 C343 0.961 . S
H360 C344 0.931 . S
H361 C349 0.930 . S
H362 C350 0.956 . S
H363 C350 0.961 . S
H364 C350 0.961 . S
H365 C351 0.958 . S
H366 C351 0.961 . S
H367 C351 0.960 . S
C368 C369 1.391 . S
C368 C370 1.394 . S
C368 H384 0.931 . S
C369 C368 1.391 . S
C369 C373 1.376 . S
C370 C368 1.394 . S
C370 C371 1.369 . S
C370 C374 1.531 . S
C371 C370 1.369 . S
C371 C372 1.410 . S
C371 C379 1.503 . S
C372 C371 1.410 . S
C372 C373 1.392 . S
C372 C375 1.511 . S
C373 C369 1.376 . S
C373 C372 1.392 . S
C373 H385 0.929 . S
C374 C370 1.531 . S
C374 H386 0.960 . S
C374 H387 0.962 . S
C374 H388 0.960 . S
C375 C372 1.511 . S
C375 H389 0.961 . S
C375 H390 0.961 . S
C375 H391 0.961 . S
C376 C377 1.370 . S
C376 C378 1.363 . S
C376 H392 0.931 . S
C377 C376 1.370 . S
C377 C381 1.408 . S
C378 C376 1.363 . S
C378 C379 1.370 . S
C378 C382 1.524 . S
C379 C371 1.503 . S
C379 C378 1.370 . S
C379 C380 1.403 . S
C380 C379 1.403 . S
C380 C381 1.404 . S
C380 C383 1.539 . S
C381 C377 1.408 . S
C381 C380 1.404 . S
C381 H393 0.930 . S
C382 C378 1.524 . S
C382 H394 0.956 . S
C382 H395 0.961 . S
C382 H396 0.961 . S
C383 C380 1.539 . S
C383 H397 0.958 . S
C383 H398 0.961 . S
C383 H399 0.960 . S
H384 C368 0.931 . S
H385 C373 0.929 . S
H386 C374 0.960 . S
H387 C374 0.962 . S
H388 C374 0.960 . S
H389 C375 0.961 . S
H390 C375 0.961 . S
H391 C375 0.961 . S
H392 C376 0.931 . S
H393 C381 0.930 . S
H394 C382 0.956 . S
H395 C382 0.961 . S
H396 C382 0.961 . S
H397 C383 0.958 . S
H398 C383 0.961 . S
H399 C383 0.960 . S
C400 C401 1.391 . S
C400 C402 1.394 . S
C400 H416 0.931 . S
C401 C400 1.391 . S
C401 C405 1.376 . S
C402 C400 1.394 . S
C402 C403 1.369 . S
C402 C406 1.531 . S
C403 C402 1.369 . S
C403 C404 1.410 . S
C403 C411 1.503 . S
C404 C403 1.410 . S
C404 C405 1.392 . S
C404 C407 1.511 . S
C405 C401 1.376 . S
C405 C404 1.392 . S
C405 H417 0.929 . S
C406 C402 1.531 . S
C406 H418 0.960 . S
C406 H419 0.962 . S
C406 H420 0.960 . S
C407 C404 1.511 . S
C407 H421 0.961 . S
C407 H422 0.961 . S
C407 H423 0.961 . S
C408 C409 1.370 . S
C408 C410 1.363 . S
C408 H424 0.931 . S
C409 C408 1.370 . S
C409 C413 1.408 . S
C410 C408 1.363 . S
C410 C411 1.370 . S
C410 C414 1.524 . S
C411 C403 1.503 . S
C411 C410 1.370 . S
C411 C412 1.403 . S
C412 C411 1.403 . S
C412 C413 1.404 . S
C412 C415 1.539 . S
C413 C409 1.408 . S
C413 C412 1.404 . S
C413 H425 0.930 . S
C414 C410 1.524 . S
C414 H426 0.956 . S
C414 H427 0.961 . S
C414 H428 0.961 . S
C415 C412 1.539 . S
C415 H429 0.958 . S
C415 H430 0.961 . S
C415 H431 0.960 . S
H416 C400 0.931 . S
H417 C405 0.929 . S
H418 C406 0.960 . S
H419 C406 0.962 . S
H420 C406 0.960 . S
H421 C407 0.961 . S
H422 C407 0.961 . S
H423 C407 0.961 . S
H424 C408 0.931 . S
H425 C413 0.930 . S
H426 C414 0.956 . S
H427 C414 0.961 . S
H428 C414 0.961 . S
H429 C415 0.958 . S
H430 C415 0.961 . S
H431 C415 0.960 . S
C432 C433 1.391 . S
C432 C434 1.394 . S
C432 H448 0.931 . S
C433 C432 1.391 . S
C433 C437 1.376 . S
C434 C432 1.394 . S
C434 C435 1.369 . S
C434 C438 1.531 . S
C435 C434 1.369 . S
C435 C436 1.410 . S
C435 C443 1.503 . S
C436 C435 1.410 . S
C436 C437 1.392 . S
C436 C439 1.511 . S
C437 C433 1.376 . S
C437 C436 1.392 . S
C437 H449 0.929 . S
C438 C434 1.531 . S
C438 H450 0.960 . S
C438 H451 0.962 . S
C438 H452 0.960 . S
C439 C436 1.511 . S
C439 H453 0.961 . S
C439 H454 0.961 . S
C439 H455 0.961 . S
C440 C441 1.370 . S
C440 C442 1.363 . S
C440 H456 0.931 . S
C441 C440 1.370 . S
C441 C445 1.408 . S
C442 C440 1.363 . S
C442 C443 1.370 . S
C442 C446 1.524 . S
C443 C435 1.503 . S
C443 C442 1.370 . S
C443 C444 1.403 . S
C444 C443 1.403 . S
C444 C445 1.404 . S
C444 C447 1.539 . S
C445 C441 1.408 . S
C445 C444 1.404 . S
C445 H457 0.930 . S
C446 C442 1.524 . S
C446 H458 0.956 . S
C446 H459 0.961 . S
C446 H460 0.961 . S
C447 C444 1.539 . S
C447 H461 0.958 . S
C447 H462 0.961 . S
C447 H463 0.960 . S
H448 C432 0.931 . S
H449 C437 0.929 . S
H450 C438 0.960 . S
H451 C438 0.962 . S
H452 C438 0.960 . S
H453 C439 0.961 . S
H454 C439 0.961 . S
H455 C439 0.961 . S
H456 C440 0.931 . S
H457 C445 0.930 . S
H458 C446 0.956 . S
H459 C446 0.961 . S
H460 C446 0.961 . S
H461 C447 0.958 . S
H462 C447 0.961 . S
H463 C447 0.960 . S
C464 C465 1.391 . S
C464 C466 1.394 . S
C464 H480 0.931 . S
C465 C464 1.391 . S
C465 C469 1.376 . S
C466 C464 1.394 . S
C466 C467 1.369 . S
C466 C470 1.531 . S
C467 C466 1.369 . S
C467 C468 1.410 . S
C467 C475 1.503 . S
C468 C467 1.410 . S
C468 C469 1.392 . S
C468 C471 1.511 . S
C469 C465 1.376 . S
C469 C468 1.392 . S
C469 H481 0.929 . S
C470 C466 1.531 . S
C470 H482 0.960 . S
C470 H483 0.962 . S
C470 H484 0.960 . S
C471 C468 1.511 . S
C471 H485 0.961 . S
C471 H486 0.961 . S
C471 H487 0.961 . S
C472 C473 1.370 . S
C472 C474 1.363 . S
C472 H488 0.931 . S
C473 C472 1.370 . S
C473 C477 1.408 . S
C474 C472 1.363 . S
C474 C475 1.370 . S
C474 C478 1.524 . S
C475 C467 1.503 . S
C475 C474 1.370 . S
C475 C476 1.403 . S
C476 C475 1.403 . S
C476 C477 1.404 . S
C476 C479 1.539 . S
C477 C473 1.408 . S
C477 C476 1.404 . S
C477 H489 0.930 . S
C478 C474 1.524 . S
C478 H490 0.956 . S
C478 H491 0.961 . S
C478 H492 0.961 . S
C479 C476 1.539 . S
C479 H493 0.958 . S
C479 H494 0.961 . S
C479 H495 0.960 . S
H480 C464 0.931 . S
H481 C469 0.929 . S
H482 C470 0.960 . S
H483 C470 0.962 . S
H484 C470 0.960 . S
H485 C471 0.961 . S
H486 C471 0.961 . S
H487 C471 0.961 . S
H488 C472 0.931 . S
H489 C477 0.930 . S
H490 C478 0.956 . S
H491 C478 0.961 . S
H492 C478 0.961 . S
H493 C479 0.958 . S
H494 C479 0.961 . S
H495 C479 0.960 . S
C496 C497 1.391 . S
C496 C498 1.394 . S
C496 H512 0.931 . S
C497 C496 1.391 . S
C497 C501 1.376 . S
C498 C496 1.394 . S
C498 C499 1.369 . S
C498 C502 1.531 . S
C499 C498 1.369 . S
C499 C500 1.410 . S
C499 C507 1.503 . S
C500 C499 1.410 . S
C500 C501 1.392 . S
C500 C503 1.511 . S
C501 C497 1.376 . S
C501 C500 1.392 . S
C501 H513 0.929 . S
C502 C498 1.531 . S
C502 H514 0.960 . S
C502 H515 0.962 . S
C502 H516 0.960 . S
C503 C500 1.511 . S
C503 H517 0.961 . S
C503 H518 0.961 . S
C503 H519 0.961 . S
C504 C505 1.370 . S
C504 C506 1.363 . S
C504 H520 0.931 . S
C505 C504 1.370 . S
C505 C509 1.408 . S
C506 C504 1.363 . S
C506 C507 1.370 . S
C506 C510 1.524 . S
C507 C499 1.503 . S
C507 C506 1.370 . S
C507 C508 1.403 . S
C508 C507 1.403 . S
C508 C509 1.404 . S
C508 C511 1.539 . S
C509 C505 1.408 . S
C509 C508 1.404 . S
C509 H521 0.930 . S
C510 C506 1.524 . S
C510 H522 0.956 . S
C510 H523 0.961 . S
C510 H524 0.961 . S
C511 C508 1.539 . S
C511 H525 0.958 . S
C511 H526 0.961 . S
C511 H527 0.960 . S
H512 C496 0.931 . S
H513 C501 0.929 . S
H514 C502 0.960 . S
H515 C502 0.962 . S
H516 C502 0.960 . S
H517 C503 0.961 . S
H518 C503 0.961 . S
H519 C503 0.961 . S
H520 C504 0.931 . S
H521 C509 0.930 . S
H522 C510 0.956 . S
H523 C510 0.961 . S
H524 C510 0.961 . S
H525 C511 0.958 . S
H526 C511 0.961 . S
H527 C511 0.960 . S
C528 C529 1.391 . S
C528 C530 1.394 . S
C528 H544 0.931 . S
C529 C528 1.391 . S
C529 C533 1.376 . S
C530 C528 1.394 . S
C530 C531 1.369 . S
C530 C534 1.531 . S
C531 C530 1.369 . S
C531 C532 1.410 . S
C531 C539 1.503 . S
C532 C531 1.410 . S
C532 C533 1.392 . S
C532 C535 1.511 . S
C533 C529 1.376 . S
C533 C532 1.392 . S
C533 H545 0.929 . S
C534 C530 1.531 . S
C534 H546 0.960 . S
C534 H547 0.962 . S
C534 H548 0.960 . S
C535 C532 1.511 . S
C535 H549 0.961 . S
C535 H550 0.961 . S
C535 H551 0.961 . S
C536 C537 1.370 . S
C536 C538 1.363 . S
C536 H552 0.931 . S
C537 C536 1.370 . S
C537 C541 1.408 . S
C538 C536 1.363 . S
C538 C539 1.370 . S
C538 C542 1.524 . S
C539 C531 1.503 . S
C539 C538 1.370 . S
C539 C540 1.403 . S
C540 C539 1.403 . S
C540 C541 1.404 . S
C540 C543 1.539 . S
C541 C537 1.408 . S
C541 C540 1.404 . S
C541 H553 0.930 . S
C542 C538 1.524 . S
C542 H554 0.956 . S
C542 H555 0.961 . S
C542 H556 0.961 . S
C543 C540 1.539 . S
C543 H557 0.958 . S
C543 H558 0.961 . S
C543 H559 0.960 . S
H544 C528 0.931 . S
H545 C533 0.929 . S
H546 C534 0.960 . S
H547 C534 0.962 . S
H548 C534 0.960 . S
H549 C535 0.961 . S
H550 C535 0.961 . S
H551 C535 0.961 . S
H552 C536 0.931 . S
H553 C541 0.930 . S
H554 C542 0.956 . S
H555 C542 0.961 . S
H556 C542 0.961 . S
H557 C543 0.958 . S
H558 C543 0.961 . S
H559 C543 0.960 . S
C560 C561 1.391 . S
C560 C562 1.394 . S
C560 H576 0.931 . S
C561 C560 1.391 . S
C561 C565 1.376 . S
C562 C560 1.394 . S
C562 C563 1.369 . S
C562 C566 1.531 . S
C563 C562 1.369 . S
C563 C564 1.410 . S
C563 C571 1.503 . S
C564 C563 1.410 . S
C564 C565 1.392 . S
C564 C567 1.511 . S
C565 C561 1.376 . S
C565 C564 1.392 . S
C565 H577 0.929 . S
C566 C562 1.531 . S
C566 H578 0.960 . S
C566 H579 0.962 . S
C566 H580 0.960 . S
C567 C564 1.511 . S
C567 H581 0.961 . S
C567 H582 0.961 . S
C567 H583 0.961 . S
C568 C569 1.370 . S
C568 C570 1.363 . S
C568 H584 0.931 . S
C569 C568 1.370 . S
C569 C573 1.408 . S
C570 C568 1.363 . S
C570 C571 1.370 . S
C570 C574 1.524 . S
C571 C563 1.503 . S
C571 C570 1.370 . S
C571 C572 1.403 . S
C572 C571 1.403 . S
C572 C573 1.404 . S
C572 C575 1.539 . S
C573 C569 1.408 . S
C573 C572 1.404 . S
C573 H585 0.930 . S
C574 C570 1.524 . S
C574 H586 0.956 . S
C574 H587 0.961 . S
C574 H588 0.961 . S
C575 C572 1.539 . S
C575 H589 0.958 . S
C575 H590 0.961 . S
C575 H591 0.960 . S
H576 C560 0.931 . S
H577 C565 0.929 . S
H578 C566 0.960 . S
H579 C566 0.962 . S
H580 C566 0.960 . S
H581 C567 0.961 . S
H582 C567 0.961 . S
H583 C567 0.961 . S
H584 C568 0.931 . S
H585 C573 0.930 . S
H586 C574 0.956 . S
H587 C574 0.961 . S
H588 C574 0.961 . S
H589 C575 0.958 . S
H590 C575 0.961 . S
H591 C575 0.960 . S
C592 C593 1.391 . S
C592 C594 1.394 . S
C592 H608 0.931 . S
C593 C592 1.391 . S
C593 C597 1.376 . S
C594 C592 1.394 . S
C594 C595 1.369 . S
C594 C598 1.531 . S
C595 C594 1.369 . S
C595 C596 1.410 . S
C595 C603 1.503 . S
C596 C595 1.410 . S
C596 C597 1.392 . S
C596 C599 1.511 . S
C597 C593 1.376 . S
C597 C596 1.392 . S
C597 H609 0.929 . S
C598 C594 1.531 . S
C598 H610 0.960 . S
C598 H611 0.962 . S
C598 H612 0.960 . S
C599 C596 1.511 . S
C599 H613 0.961 . S
C599 H614 0.961 . S
C599 H615 0.961 . S
C600 C601 1.370 . S
C600 C602 1.363 . S
C600 H616 0.931 . S
C601 C600 1.370 . S
C601 C605 1.408 . S
C602 C600 1.363 . S
C602 C603 1.370 . S
C602 C606 1.524 . S
C603 C595 1.503 . S
C603 C602 1.370 . S
C603 C604 1.403 . S
C604 C603 1.403 . S
C604 C605 1.404 . S
C604 C607 1.539 . S
C605 C601 1.408 . S
C605 C604 1.404 . S
C605 H617 0.930 . S
C606 C602 1.524 . S
C606 H618 0.956 . S
C606 H619 0.961 . S
C606 H620 0.961 . S
C607 C604 1.539 . S
C607 H621 0.958 . S
C607 H622 0.961 . S
C607 H623 0.960 . S
H608 C592 0.931 . S
H609 C597 0.929 . S
H610 C598 0.960 . S
H611 C598 0.962 . S
H612 C598 0.960 . S
H613 C599 0.961 . S
H614 C599 0.961 . S
H615 C599 0.961 . S
H616 C600 0.931 . S
H617 C605 0.930 . S
H618 C606 0.956 . S
H619 C606 0.961 . S
H620 C606 0.961 . S
H621 C607 0.958 . S
H622 C607 0.961 . S
H623 C607 0.960 . S
C624 C625 1.391 . S
C624 C626 1.394 . S
C624 H640 0.931 . S
C625 C624 1.391 . S
C625 C629 1.376 . S
C626 C624 1.394 . S
C626 C627 1.369 . S
C626 C630 1.531 . S
C627 C626 1.369 . S
C627 C628 1.410 . S
C627 C635 1.503 . S
C628 C627 1.410 . S
C628 C629 1.392 . S
C628 C631 1.511 . S
C629 C625 1.376 . S
C629 C628 1.392 . S
C629 H641 0.929 . S
C630 C626 1.531 . S
C630 H642 0.960 . S
C630 H643 0.962 . S
C630 H644 0.960 . S
C631 C628 1.511 . S
C631 H645 0.961 . S
C631 H646 0.961 . S
C631 H647 0.961 . S
C632 C633 1.370 . S
C632 C634 1.363 . S
C632 H648 0.931 . S
C633 C632 1.370 . S
C633 C637 1.408 . S
C634 C632 1.363 . S
C634 C635 1.370 . S
C634 C638 1.524 . S
C635 C627 1.503 . S
C635 C634 1.370 . S
C635 C636 1.403 . S
C636 C635 1.403 . S
C636 C637 1.404 . S
C636 C639 1.539 . S
C637 C633 1.408 . S
C637 C636 1.404 . S
C637 H649 0.930 . S
C638 C634 1.524 . S
C638 H650 0.956 . S
C638 H651 0.961 . S
C638 H652 0.961 . S
C639 C636 1.539 . S
C639 H653 0.958 . S
C639 H654 0.961 . S
C639 H655 0.960 . S
H640 C624 0.931 . S
H641 C629 0.929 . S
H642 C630 0.960 . S
H643 C630 0.962 . S
H644 C630 0.960 . S
H645 C631 0.961 . S
H646 C631 0.961 . S
H647 C631 0.961 . S
H648 C632 0.931 . S
H649 C637 0.930 . S
H650 C638 0.956 . S
H651 C638 0.961 . S
H652 C638 0.961 . S
H653 C639 0.958 . S
H654 C639 0.961 . S
H655 C639 0.960 . S
C656 C657 1.391 . S
C656 C658 1.394 . S
C656 H672 0.931 . S
C657 C656 1.391 . S
C657 C661 1.376 . S
C658 C656 1.394 . S
C658 C659 1.369 . S
C658 C662 1.531 . S
C659 C658 1.369 . S
C659 C660 1.410 . S
C659 C667 1.503 . S
C660 C659 1.410 . S
C660 C661 1.392 . S
C660 C663 1.511 . S
C661 C657 1.376 . S
C661 C660 1.392 . S
C661 H673 0.929 . S
C662 C658 1.531 . S
C662 H674 0.960 . S
C662 H675 0.962 . S
C662 H676 0.960 . S
C663 C660 1.511 . S
C663 H677 0.961 . S
C663 H678 0.961 . S
C663 H679 0.961 . S
C664 C665 1.370 . S
C664 C666 1.363 . S
C664 H680 0.931 . S
C665 C664 1.370 . S
C665 C669 1.408 . S
C666 C664 1.363 . S
C666 C667 1.370 . S
C666 C670 1.524 . S
C667 C659 1.503 . S
C667 C666 1.370 . S
C667 C668 1.403 . S
C668 C667 1.403 . S
C668 C669 1.404 . S
C668 C671 1.539 . S
C669 C665 1.408 . S
C669 C668 1.404 . S
C669 H681 0.930 . S
C670 C666 1.524 . S
C670 H682 0.956 . S
C670 H683 0.961 . S
C670 H684 0.961 . S
C671 C668 1.539 . S
C671 H685 0.958 . S
C671 H686 0.961 . S
C671 H687 0.960 . S
H672 C656 0.931 . S
H673 C661 0.929 . S
H674 C662 0.960 . S
H675 C662 0.962 . S
H676 C662 0.960 . S
H677 C663 0.961 . S
H678 C663 0.961 . S
H679 C663 0.961 . S
H680 C664 0.931 . S
H681 C669 0.930 . S
H682 C670 0.956 . S
H683 C670 0.961 . S
H684 C670 0.961 . S
H685 C671 0.958 . S
H686 C671 0.961 . S
H687 C671 0.960 . S
C688 C689 1.391 . S
C688 C690 1.394 . S
C688 H704 0.931 . S
C689 C688 1.391 . S
C689 C693 1.376 . S
C690 C688 1.394 . S
C690 C691 1.369 . S
C690 C694 1.531 . S
C691 C690 1.369 . S
C691 C692 1.410 . S
C691 C699 1.503 . S
C692 C691 1.410 . S
C692 C693 1.392 . S
C692 C695 1.511 . S
C693 C689 1.376 . S
C693 C692 1.392 . S
C693 H705 0.929 . S
C694 C690 1.531 . S
C694 H706 0.960 . S
C694 H707 0.962 . S
C694 H708 0.960 . S
C695 C692 1.511 . S
C695 H709 0.961 . S
C695 H710 0.961 . S
C695 H711 0.961 . S
C696 C697 1.370 . S
C696 C698 1.363 . S
C696 H712 0.931 . S
C697 C696 1.370 . S
C697 C701 1.408 . S
C698 C696 1.363 . S
C698 C699 1.370 . S
C698 C702 1.524 . S
C699 C691 1.503 . S
C699 C698 1.370 . S
C699 C700 1.403 . S
C700 C699 1.403 . S
C700 C701 1.404 . S
C700 C703 1.539 . S
C701 C697 1.408 . S
C701 C700 1.404 . S
C701 H713 0.930 . S
C702 C698 1.524 . S
C702 H714 0.956 . S
C702 H715 0.961 . S
C702 H716 0.961 . S
C703 C700 1.539 . S
C703 H717 0.958 . S
C703 H718 0.961 . S
C703 H719 0.960 . S
H704 C688 0.931 . S
H705 C693 0.929 . S
H706 C694 0.960 . S
H707 C694 0.962 . S
H708 C694 0.960 . S
H709 C695 0.961 . S
H710 C695 0.961 . S
H711 C695 0.961 . S
H712 C696 0.931 . S
H713 C701 0.930 . S
H714 C702 0.956 . S
H715 C702 0.961 . S
H716 C702 0.961 . S
H717 C703 0.958 . S
H718 C703 0.961 . S
H719 C703 0.960 . S
C720 C721 1.391 . S
C720 C722 1.394 . S
C720 H736 0.931 . S
C721 C720 1.391 . S
C721 C725 1.376 . S
C722 C720 1.394 . S
C722 C723 1.369 . S
C722 C726 1.531 . S
C723 C722 1.369 . S
C723 C724 1.410 . S
C723 C731 1.503 . S
C724 C723 1.410 . S
C724 C725 1.392 . S
C724 C727 1.511 . S
C725 C721 1.376 . S
C725 C724 1.392 . S
C725 H737 0.929 . S
C726 C722 1.531 . S
C726 H738 0.960 . S
C726 H739 0.962 1_455 S
C726 H740 0.960 . S
C727 C724 1.511 . S
C727 H741 0.961 . S
C727 H742 0.961 . S
C727 H743 0.961 . S
C728 C729 1.370 . S
C728 C730 1.363 . S
C728 H744 0.931 . S
C729 C728 1.370 . S
C729 C733 1.408 . S
C730 C728 1.363 . S
C730 C731 1.370 . S
C730 C734 1.516 1_455 S
C731 C723 1.503 . S
C731 C730 1.370 . S
C731 C732 1.403 . S
C732 C731 1.403 . S
C732 C733 1.404 . S
C732 C735 1.539 . S
C733 C729 1.408 . S
C733 C732 1.404 . S
C733 H745 0.930 . S
C734 C730 1.516 1_655 S
C734 H746 0.975 . S
C734 H747 0.944 1_655 S
C734 H748 0.966 . S
C735 C732 1.539 . S
C735 H749 0.958 . S
C735 H750 0.961 . S
C735 H751 0.960 . S
H736 C720 0.931 . S
H737 C725 0.929 . S
H738 C726 0.960 . S
H739 C726 0.962 1_655 S
H740 C726 0.960 . S
H741 C727 0.961 . S
H742 C727 0.961 . S
H743 C727 0.961 . S
H744 C728 0.931 . S
H745 C733 0.930 . S
H746 C734 0.975 . S
H747 C734 0.944 1_455 S
H748 C734 0.966 . S
H749 C735 0.958 . S
H750 C735 0.961 . S
H751 C735 0.960 . S
C752 C753 1.391 . S
C752 C754 1.394 . S
C752 H768 0.931 . S
C753 C752 1.391 . S
C753 C757 1.376 . S
C754 C752 1.394 . S
C754 C755 1.369 . S
C754 C758 1.531 . S
C755 C754 1.369 . S
C755 C756 1.410 . S
C755 C763 1.503 . S
C756 C755 1.410 . S
C756 C757 1.392 . S
C756 C759 1.511 . S
C757 C753 1.376 . S
C757 C756 1.392 . S
C757 H769 0.929 . S
C758 C754 1.531 . S
C758 H770 0.960 . S
C758 H771 0.962 . S
C758 H772 0.960 . S
C759 C756 1.511 . S
C759 H773 0.961 1_545 S
C759 H774 0.961 1_545 S
C759 H775 0.961 . S
C760 C761 1.370 . S
C760 C762 1.363 . S
C760 H776 0.931 1_545 S
C761 C760 1.370 . S
C761 C765 1.408 . S
C762 C760 1.363 . S
C762 C763 1.370 . S
C762 C766 1.524 1_545 S
C763 C755 1.503 . S
C763 C762 1.370 . S
C763 C764 1.403 . S
C764 C763 1.403 . S
C764 C765 1.404 . S
C764 C767 1.539 . S
C765 C761 1.408 . S
C765 C764 1.404 . S
C765 H777 0.930 . S
C766 C762 1.524 1_565 S
C766 H778 0.956 . S
C766 H779 0.961 . S
C766 H780 0.961 . S
C767 C764 1.539 . S
C767 H781 0.958 . S
C767 H782 0.961 . S
C767 H783 0.960 . S
H768 C752 0.931 . S
H769 C757 0.929 . S
H770 C758 0.960 . S
H771 C758 0.962 . S
H772 C758 0.960 . S
H773 C759 0.961 1_565 S
H774 C759 0.961 1_565 S
H775 C759 0.961 . S
H776 C760 0.931 1_565 S
H777 C765 0.930 . S
H778 C766 0.956 . S
H779 C766 0.961 . S
H780 C766 0.961 . S
H781 C767 0.958 . S
H782 C767 0.961 . S
H783 C767 0.960 . S
C784 C785 1.391 . S
C784 C786 1.394 . S
C784 H800 0.931 . S
C785 C784 1.391 . S
C785 C789 1.376 . S
C786 C784 1.394 . S
C786 C787 1.369 . S
C786 C790 1.531 . S
C787 C786 1.369 . S
C787 C788 1.410 . S
C787 C795 1.503 . S
C788 C787 1.410 . S
C788 C789 1.392 . S
C788 C791 1.511 . S
C789 C785 1.376 . S
C789 C788 1.392 . S
C789 H801 0.929 . S
C790 C786 1.531 . S
C790 H802 0.960 . S
C790 H803 0.962 . S
C790 H804 0.960 . S
C791 C788 1.511 . S
C791 H805 0.961 . S
C791 H806 0.961 . S
C791 H807 0.961 . S
C792 C793 1.370 . S
C792 C794 1.363 . S
C792 H808 0.931 . S
C793 C792 1.370 . S
C793 C797 1.408 . S
C794 C792 1.363 . S
C794 C795 1.370 . S
C794 C798 1.524 . S
C795 C787 1.503 . S
C795 C794 1.370 . S
C795 C796 1.403 . S
C796 C795 1.403 . S
C796 C797 1.404 . S
C796 C799 1.539 . S
C797 C793 1.408 . S
C797 C796 1.404 . S
C797 H809 0.930 . S
C798 C794 1.524 . S
C798 H810 0.956 . S
C798 H811 0.961 . S
C798 H812 0.961 . S
C799 C796 1.539 . S
C799 H813 0.958 . S
C799 H814 0.961 . S
C799 H815 0.960 . S
H800 C784 0.931 . S
H801 C789 0.929 . S
H802 C790 0.960 . S
H803 C790 0.962 . S
H804 C790 0.960 . S
H805 C791 0.961 . S
H806 C791 0.961 . S
H807 C791 0.961 . S
H808 C792 0.931 . S
H809 C797 0.930 . S
H810 C798 0.956 . S
H811 C798 0.961 . S
H812 C798 0.961 . S
H813 C799 0.958 . S
H814 C799 0.961 . S
H815 C799 0.960 . S
C816 C817 1.391 . S
C816 C818 1.394 1_545 S
C816 H832 0.931 . S
C817 C816 1.391 . S
C817 C821 1.376 . S
C818 C816 1.394 1_565 S
C818 C819 1.369 1_565 S
C818 C822 1.531 . S
C819 C818 1.369 1_545 S
C819 C820 1.410 . S
C819 C827 1.503 1_545 S
C820 C819 1.410 . S
C820 C821 1.392 . S
C820 C823 1.511 . S
C821 C817 1.376 . S
C821 C820 1.392 . S
C821 H833 0.929 . S
C822 C818 1.531 . S
C822 H834 0.960 . S
C822 H835 0.962 1_565 S
C822 H836 0.960 . S
C823 C820 1.511 . S
C823 H837 0.961 . S
C823 H838 0.961 . S
C823 H839 0.961 1_545 S
C824 C825 1.370 1_545 S
C824 C826 1.363 . S
C824 H840 0.931 . S
C825 C824 1.370 1_565 S
C825 C829 1.408 . S
C826 C824 1.363 . S
C826 C827 1.370 1_545 S
C826 C830 1.524 . S
C827 C819 1.503 1_565 S
C827 C826 1.370 1_565 S
C827 C828 1.403 . S
C828 C827 1.403 . S
C828 C829 1.404 . S
C828 C831 1.539 . S
C829 C825 1.408 . S
C829 C828 1.404 . S
C829 H841 0.930 . S
C830 C826 1.524 . S
C830 H842 0.956 . S
C830 H843 0.961 . S
C830 H844 0.961 . S
C831 C828 1.539 . S
C831 H845 0.958 . S
C831 H846 0.961 . S
C831 H847 0.960 . S
H832 C816 0.931 . S
H833 C821 0.929 . S
H834 C822 0.960 . S
H835 C822 0.962 1_545 S
H836 C822 0.960 . S
H837 C823 0.961 . S
H838 C823 0.961 . S
H839 C823 0.961 1_565 S
H840 C824 0.931 . S
H841 C829 0.930 . S
H842 C830 0.956 . S
H843 C830 0.961 . S
H844 C830 0.961 . S
H845 C831 0.958 . S
H846 C831 0.961 . S
H847 C831 0.960 . S
C848 C849 1.391 . S
C848 C850 1.394 . S
C848 H864 0.931 . S
C849 C848 1.391 . S
C849 C853 1.376 . S
C850 C848 1.394 . S
C850 C851 1.369 . S
C850 C854 1.531 . S
C851 C850 1.369 . S
C851 C852 1.410 . S
C851 C859 1.503 . S
C852 C851 1.410 . S
C852 C853 1.392 . S
C852 C855 1.511 . S
C853 C849 1.376 . S
C853 C852 1.392 . S
C853 H865 0.929 . S
C854 C850 1.531 . S
C854 H866 0.960 . S
C854 H867 0.962 . S
C854 H868 0.960 . S
C855 C852 1.511 . S
C855 H869 0.961 . S
C855 H870 0.961 . S
C855 H871 0.961 . S
C856 C857 1.370 . S
C856 C858 1.363 . S
C856 H872 0.931 . S
C857 C856 1.370 . S
C857 C861 1.408 . S
C858 C856 1.363 . S
C858 C859 1.370 . S
C858 C862 1.524 . S
C859 C851 1.503 . S
C859 C858 1.370 . S
C859 C860 1.403 . S
C860 C859 1.403 . S
C860 C861 1.404 . S
C860 C863 1.539 . S
C861 C857 1.408 . S
C861 C860 1.404 . S
C861 H873 0.930 . S
C862 C858 1.524 . S
C862 H874 0.956 . S
C862 H875 0.961 . S
C862 H876 0.961 . S
C863 C860 1.539 . S
C863 H877 0.958 . S
C863 H878 0.961 . S
C863 H879 0.960 . S
H864 C848 0.931 . S
H865 C853 0.929 . S
H866 C854 0.960 . S
H867 C854 0.962 . S
H868 C854 0.960 . S
H869 C855 0.961 . S
H870 C855 0.961 . S
H871 C855 0.961 . S
H872 C856 0.931 . S
H873 C861 0.930 . S
H874 C862 0.956 . S
H875 C862 0.961 . S
H876 C862 0.961 . S
H877 C863 0.958 . S
H878 C863 0.961 . S
H879 C863 0.960 . S
C880 C881 1.391 . S
C880 C882 1.394 . S
C880 H896 0.931 . S
C881 C880 1.391 . S
C881 C885 1.397 . S
C882 C880 1.394 . S
C882 C883 1.369 . S
C882 C886 1.531 . S
C883 C882 1.369 . S
C883 C884 1.410 1_455 S
C883 C891 1.503 . S
C884 C883 1.410 1_655 S
C884 C885 1.388 1_655 S
C884 C887 1.511 . S
C885 C881 1.397 . S
C885 C884 1.388 1_455 S
C885 H897 0.912 1_455 S
C886 C882 1.531 . S
C886 H898 0.960 . S
C886 H899 0.962 . S
C886 H900 0.960 . S
C887 C884 1.511 . S
C887 H901 0.961 . S
C887 H902 0.961 . S
C887 H903 0.961 . S
C888 C889 1.369 . S
C888 C890 1.363 . S
C888 H904 0.931 . S
C889 C888 1.369 . S
C889 C893 1.406 1_655 S
C890 C888 1.363 . S
C890 C891 1.370 1_655 S
C890 C894 1.524 . S
C891 C883 1.503 . S
C891 C890 1.370 1_455 S
C891 C892 1.403 . S
C892 C891 1.403 . S
C892 C893 1.404 . S
C892 C895 1.539 . S
C893 C889 1.406 1_455 S
C893 C892 1.404 . S
C893 H905 0.930 . S
C894 C890 1.524 . S
C894 H906 0.956 . S
C894 H907 0.961 . S
C894 H908 0.961 . S
C895 C892 1.539 . S
C895 H909 0.958 . S
C895 H910 0.961 . S
C895 H911 0.960 . S
H896 C880 0.931 . S
H897 C885 0.912 1_655 S
H898 C886 0.960 . S
H899 C886 0.962 . S
H900 C886 0.960 . S
H901 C887 0.961 . S
H902 C887 0.961 . S
H903 C887 0.961 . S
H904 C888 0.931 . S
H905 C893 0.930 . S
H906 C894 0.956 . S
H907 C894 0.961 . S
H908 C894 0.961 . S
H909 C895 0.958 . S
H910 C895 0.961 . S
H911 C895 0.960 . S
C337 C25 0.332 . S
C345 C325 0.376 . S
C369 C65 0.422 . S
C377 C253 0.251 . S
C401 C105 0.525 . S
C409 C289 0.395 . S
C433 C4 0.351 . S
C441 C301 0.284 . S
C473 C229 0.378 . S
C465 C44 0.466 . S
C505 C265 0.471 . S
C497 C84 0.464 . S
C529 C60 2.909 . S
C537 C181 2.849 . S
C561 C100 3.094 . S
C569 C193 3.045 . S
C593 C31 3.102 . S
C601 C121 3.052 . S
C633 C157 3.054 . S
C625 C71 3.094 . S
C665 C217 2.864 . S
C657 C111 2.921 . S
C689 C20 2.915 . S
C697 C145 2.839 . S
C729 C223 1.802 1_554 S
C721 C2 1.737 . S
C753 C42 1.772 . S
C761 C151 1.790 . S
C785 C82 1.757 . S
C793 C187 1.793 . S
C825 C295 1.069 . S
C817 C63 1.074 . S
C857 C331 1.106 1_556 S
C849 C103 1.115 . S
C881 C23 1.054 . S
C889 C259 1.055 1_655 S
