# Generated by pormake.
# Topology eea, (3,6)-cn, num edge types: 1
# Building blocks:
#     Node 0, Type 0, BuildingBlock: PAMTOO_clean_linker_0, # of connection points: 3
#     Node 1, Type 0, BuildingBlock: PAMTOO_clean_linker_0, # of connection points: 3
#     Node 2, Type 0, BuildingBlock: PAMTOO_clean_linker_0, # of connection points: 3
#     Node 3, Type 0, BuildingBlock: PAMTOO_clean_linker_0, # of connection points: 3
#     Node 4, Type 0, BuildingBlock: PAMTOO_clean_linker_0, # of connection points: 3
#     Node 5, Type 0, BuildingBlock: PAMTOO_clean_linker_0, # of connection points: 3
#     Node 6, Type 0, BuildingBlock: PAMTOO_clean_linker_0, # of connection points: 3
#     Node 7, Type 0, BuildingBlock: PAMTOO_clean_linker_0, # of connection points: 3
#     Node 8, Type 0, BuildingBlock: PAMTOO_clean_linker_0, # of connection points: 3
#     Node 9, Type 0, BuildingBlock: PAMTOO_clean_linker_0, # of connection points: 3
#     Node 10, Type 0, BuildingBlock: PAMTOO_clean_linker_0, # of connection points: 3
#     Node 11, Type 0, BuildingBlock: PAMTOO_clean_linker_0, # of connection points: 3
#     Node 12, Type 0, BuildingBlock: PAMTOO_clean_linker_0, # of connection points: 3
#     Node 13, Type 0, BuildingBlock: PAMTOO_clean_linker_0, # of connection points: 3
#     Node 14, Type 0, BuildingBlock: PAMTOO_clean_linker_0, # of connection points: 3
#     Node 15, Type 0, BuildingBlock: PAMTOO_clean_linker_0, # of connection points: 3
#     Node 16, Type 0, BuildingBlock: PAMTOO_clean_linker_0, # of connection points: 3
#     Node 17, Type 0, BuildingBlock: PAMTOO_clean_linker_0, # of connection points: 3
#     Node 18, Type 1, BuildingBlock: CUKXOW_clean_sbu_0, # of connection points: 6
#     Node 19, Type 1, BuildingBlock: CUKXOW_clean_sbu_0, # of connection points: 6
#     Node 20, Type 1, BuildingBlock: CUKXOW_clean_sbu_0, # of connection points: 6
#     Node 21, Type 1, BuildingBlock: CUKXOW_clean_sbu_0, # of connection points: 6
#     Node 22, Type 1, BuildingBlock: CUKXOW_clean_sbu_0, # of connection points: 6
#     Node 23, Type 1, BuildingBlock: CUKXOW_clean_sbu_0, # of connection points: 6
#     Node 24, Type 1, BuildingBlock: CUKXOW_clean_sbu_0, # of connection points: 6
#     Node 25, Type 1, BuildingBlock: CUKXOW_clean_sbu_0, # of connection points: 6
#     Node 26, Type 1, BuildingBlock: CUKXOW_clean_sbu_0, # of connection points: 6
#     Edge 27, Type (0, 1), BuildingBlock: ZUJKAS_clean_linker_0, # of connection points: 2
#     Edge 28, Type (0, 1), BuildingBlock: ZUJKAS_clean_linker_0, # of connection points: 2
#     Edge 29, Type (0, 1), BuildingBlock: ZUJKAS_clean_linker_0, # of connection points: 2
#     Edge 30, Type (0, 1), BuildingBlock: ZUJKAS_clean_linker_0, # of connection points: 2
#     Edge 31, Type (0, 1), BuildingBlock: ZUJKAS_clean_linker_0, # of connection points: 2
#     Edge 32, Type (0, 1), BuildingBlock: ZUJKAS_clean_linker_0, # of connection points: 2
#     Edge 33, Type (0, 1), BuildingBlock: ZUJKAS_clean_linker_0, # of connection points: 2
#     Edge 34, Type (0, 1), BuildingBlock: ZUJKAS_clean_linker_0, # of connection points: 2
#     Edge 35, Type (0, 1), BuildingBlock: ZUJKAS_clean_linker_0, # of connection points: 2
#     Edge 36, Type (0, 1), BuildingBlock: ZUJKAS_clean_linker_0, # of connection points: 2
#     Edge 37, Type (0, 1), BuildingBlock: ZUJKAS_clean_linker_0, # of connection points: 2
#     Edge 38, Type (0, 1), BuildingBlock: ZUJKAS_clean_linker_0, # of connection points: 2
#     Edge 39, Type (0, 1), BuildingBlock: ZUJKAS_clean_linker_0, # of connection points: 2
#     Edge 40, Type (0, 1), BuildingBlock: ZUJKAS_clean_linker_0, # of connection points: 2
#     Edge 41, Type (0, 1), BuildingBlock: ZUJKAS_clean_linker_0, # of connection points: 2
#     Edge 42, Type (0, 1), BuildingBlock: ZUJKAS_clean_linker_0, # of connection points: 2
#     Edge 43, Type (0, 1), BuildingBlock: ZUJKAS_clean_linker_0, # of connection points: 2
#     Edge 44, Type (0, 1), BuildingBlock: ZUJKAS_clean_linker_0, # of connection points: 2
#     Edge 45, Type (0, 1), BuildingBlock: ZUJKAS_clean_linker_0, # of connection points: 2
#     Edge 46, Type (0, 1), BuildingBlock: ZUJKAS_clean_linker_0, # of connection points: 2
#     Edge 47, Type (0, 1), BuildingBlock: ZUJKAS_clean_linker_0, # of connection points: 2
#     Edge 48, Type (0, 1), BuildingBlock: ZUJKAS_clean_linker_0, # of connection points: 2
#     Edge 49, Type (0, 1), BuildingBlock: ZUJKAS_clean_linker_0, # of connection points: 2
#     Edge 50, Type (0, 1), BuildingBlock: ZUJKAS_clean_linker_0, # of connection points: 2
#     Edge 51, Type (0, 1), BuildingBlock: ZUJKAS_clean_linker_0, # of connection points: 2
#     Edge 52, Type (0, 1), BuildingBlock: ZUJKAS_clean_linker_0, # of connection points: 2
#     Edge 53, Type (0, 1), BuildingBlock: ZUJKAS_clean_linker_0, # of connection points: 2
#     Edge 54, Type (0, 1), BuildingBlock: ZUJKAS_clean_linker_0, # of connection points: 2
#     Edge 55, Type (0, 1), BuildingBlock: ZUJKAS_clean_linker_0, # of connection points: 2
#     Edge 56, Type (0, 1), BuildingBlock: ZUJKAS_clean_linker_0, # of connection points: 2
#     Edge 57, Type (0, 1), BuildingBlock: ZUJKAS_clean_linker_0, # of connection points: 2
#     Edge 58, Type (0, 1), BuildingBlock: ZUJKAS_clean_linker_0, # of connection points: 2
#     Edge 59, Type (0, 1), BuildingBlock: ZUJKAS_clean_linker_0, # of connection points: 2
#     Edge 60, Type (0, 1), BuildingBlock: ZUJKAS_clean_linker_0, # of connection points: 2
#     Edge 61, Type (0, 1), BuildingBlock: ZUJKAS_clean_linker_0, # of connection points: 2
#     Edge 62, Type (0, 1), BuildingBlock: ZUJKAS_clean_linker_0, # of connection points: 2
#     Edge 63, Type (0, 1), BuildingBlock: ZUJKAS_clean_linker_0, # of connection points: 2
#     Edge 64, Type (0, 1), BuildingBlock: ZUJKAS_clean_linker_0, # of connection points: 2
#     Edge 65, Type (0, 1), BuildingBlock: ZUJKAS_clean_linker_0, # of connection points: 2
#     Edge 66, Type (0, 1), BuildingBlock: ZUJKAS_clean_linker_0, # of connection points: 2
#     Edge 67, Type (0, 1), BuildingBlock: ZUJKAS_clean_linker_0, # of connection points: 2
#     Edge 68, Type (0, 1), BuildingBlock: ZUJKAS_clean_linker_0, # of connection points: 2
#     Edge 69, Type (0, 1), BuildingBlock: ZUJKAS_clean_linker_0, # of connection points: 2
#     Edge 70, Type (0, 1), BuildingBlock: ZUJKAS_clean_linker_0, # of connection points: 2
#     Edge 71, Type (0, 1), BuildingBlock: ZUJKAS_clean_linker_0, # of connection points: 2
#     Edge 72, Type (0, 1), BuildingBlock: ZUJKAS_clean_linker_0, # of connection points: 2
#     Edge 73, Type (0, 1), BuildingBlock: ZUJKAS_clean_linker_0, # of connection points: 2
#     Edge 74, Type (0, 1), BuildingBlock: ZUJKAS_clean_linker_0, # of connection points: 2
#     Edge 75, Type (0, 1), BuildingBlock: ZUJKAS_clean_linker_0, # of connection points: 2
#     Edge 76, Type (0, 1), BuildingBlock: ZUJKAS_clean_linker_0, # of connection points: 2
#     Edge 77, Type (0, 1), BuildingBlock: ZUJKAS_clean_linker_0, # of connection points: 2
#     Edge 78, Type (0, 1), BuildingBlock: ZUJKAS_clean_linker_0, # of connection points: 2
#     Edge 79, Type (0, 1), BuildingBlock: ZUJKAS_clean_linker_0, # of connection points: 2
#     Edge 80, Type (0, 1), BuildingBlock: ZUJKAS_clean_linker_0, # of connection points: 2
# Relax obj value: 0.032
# Max RMSD: 0.154
# Mean RMSD: 0.094
data_MOF--net-eea--node1-CUKXOW_clean_sbu_0--node2-PAMTOO_clean_linker_0--edge1-ZUJKAS_clean_linker_0
_symmetry_space_group_name_H-M    P1
_symmetry_Int_Tables_number       1
_symmetry_cell_setting            triclinic
loop_
_symmetry_equiv_pos_as_xyz
'x, y, z'
_cell_length_a     77.029785
_cell_length_b     73.577948
_cell_length_c     66.126785
_cell_angle_alpha  93.063763
_cell_angle_beta   93.146355
_cell_angle_gamma 119.90337
loop_
_atom_site_label
_atom_site_type_symbol
_atom_site_fract_x
_atom_site_fract_y
_atom_site_fract_z
_atom_type_partial_charge
H0 H 0.24017 0.0894 0.44265 0.0
H1 H 0.23702 0.14603 0.43942 0.0
H2 H 0.21235 0.0986 0.38889 0.0
H3 H 0.22868 0.14035 0.37457 0.0
C4 C 0.23049 0.14932 0.38935 0.0
O5 O 0.21859 0.1356 0.40275 0.0
H6 H 0.24661 0.15726 0.39546 0.0
C7 C 0.23571 0.09897 0.43437 0.0
C8 C 0.22589 0.0916 0.41464 0.0
C9 C 0.23973 0.11853 0.44356 0.0
C10 C 0.23411 0.13092 0.43262 0.0
C11 C 0.22422 0.12368 0.41299 0.0
C12 C 0.21994 0.10399 0.40412 0.0
H13 H 0.92576 0.16285 0.45415 0.0
H14 H 0.86984 0.10383 0.44523 0.0
H15 H 0.91184 0.12049 0.40028 0.0
H16 H 0.86903 0.09847 0.38213 0.0
C17 C 0.86187 0.09099 0.39586 0.0
O18 O 0.87652 0.09239 0.40992 0.0
H19 H 0.85449 0.09946 0.40221 0.0
C20 C 0.91584 0.14803 0.4452 0.0
C21 C 0.92138 0.14349 0.42646 0.0
C22 C 0.89728 0.1339 0.45218 0.0
C23 C 0.88414 0.11509 0.44011 0.0
C24 C 0.88935 0.11051 0.42138 0.0
C25 C 0.90792 0.12455 0.41465 0.0
H26 H 0.85647 0.76836 0.46067 0.0
H27 H 0.91131 0.76697 0.4554 0.0
H28 H 0.89 0.79121 0.40871 0.0
H29 H 0.90724 0.76663 0.39251 0.0
C30 C 0.91702 0.76805 0.40624 0.0
O31 O 0.91812 0.78305 0.42049 0.0
H32 H 0.91023 0.75239 0.41242 0.0
C33 C 0.86937 0.77163 0.45245 0.0
C34 C 0.87146 0.7805 0.4338 0.0
C35 C 0.88363 0.76666 0.46044 0.0
C36 C 0.90014 0.77069 0.44955 0.0
C37 C 0.90237 0.77956 0.431 0.0
C38 C 0.88819 0.78462 0.42323 0.0
H39 H 0.07847 0.24341 0.55941 0.0
H40 H 0.13308 0.24063 0.56292 0.0
H41 H 0.09286 0.21639 0.60937 0.0
H42 H 0.13509 0.23806 0.62557 0.0
C43 C 0.14191 0.23705 0.61145 0.0
O44 O 0.12695 0.22295 0.59696 0.0
H45 H 0.14977 0.25306 0.60602 0.0
C46 C 0.08852 0.23923 0.56727 0.0
C47 C 0.08333 0.22937 0.5854 0.0
C48 C 0.10635 0.24326 0.55891 0.0
C49 C 0.11908 0.23734 0.5689 0.0
C50 C 0.11419 0.22778 0.58706 0.0
C51 C 0.09631 0.22362 0.59518 0.0
H52 H 0.76657 0.84128 0.57659 0.0
H53 H 0.77285 0.9029 0.58228 0.0
H54 H 0.79539 0.88263 0.63157 0.0
H55 H 0.78213 0.91111 0.64744 0.0
C56 C 0.77977 0.91633 0.63259 0.0
O57 O 0.79129 0.91345 0.61888 0.0
H58 H 0.76351 0.90664 0.62706 0.0
C59 C 0.77138 0.85605 0.58555 0.0
C60 C 0.78116 0.85981 0.60522 0.0
C61 C 0.76837 0.87148 0.57703 0.0
C62 C 0.77522 0.89087 0.58844 0.0
C63 C 0.7849 0.89478 0.60802 0.0
C64 C 0.788 0.87939 0.61632 0.0
H65 H 0.16034 0.92001 0.57092 0.0
H66 H 0.10241 0.86413 0.5714 0.0
H67 H 0.12524 0.91147 0.62184 0.0
H68 H 0.10263 0.86818 0.63459 0.0
C69 C 0.09391 0.86002 0.61975 0.0
O70 O 0.0953 0.87477 0.60692 0.0
H71 H 0.10047 0.85076 0.61324 0.0
C72 C 0.14687 0.91068 0.57839 0.0
C73 C 0.14478 0.91826 0.59756 0.0
C74 C 0.1317 0.89121 0.56872 0.0
C75 C 0.11425 0.87925 0.57847 0.0
C76 C 0.11211 0.8865 0.59766 0.0
C77 C 0.12728 0.90594 0.60714 0.0
H78 H 0.90826 0.42351 0.77472 0.0
H79 H 0.9036 0.47929 0.77155 0.0
H80 H 0.87793 0.43095 0.72188 0.0
H81 H 0.89233 0.47207 0.70667 0.0
C82 C 0.89516 0.48128 0.72156 0.0
O83 O 0.88389 0.46787 0.73551 0.0
H84 H 0.91149 0.48889 0.7267 0.0
C85 C 0.90349 0.43285 0.76646 0.0
C86 C 0.89286 0.42488 0.74712 0.0
C87 C 0.90734 0.45237 0.77558 0.0
C88 C 0.90059 0.46407 0.76497 0.0
C89 C 0.89009 0.45635 0.74565 0.0
C90 C 0.88603 0.43671 0.73686 0.0
H91 H 0.59084 0.49385 0.78588 0.0
H92 H 0.53597 0.43393 0.77557 0.0
H93 H 0.57883 0.45311 0.73123 0.0
H94 H 0.5363 0.42895 0.71206 0.0
C95 C 0.52914 0.42212 0.72601 0.0
O96 O 0.54373 0.42365 0.74024 0.0
H97 H 0.52211 0.43116 0.73188 0.0
C98 C 0.58122 0.47924 0.77647 0.0
C99 C 0.5873 0.47539 0.75781 0.0
C100 C 0.56278 0.46437 0.7831 0.0
C101 C 0.55034 0.4455 0.77084 0.0
C102 C 0.55605 0.44167 0.75209 0.0
C103 C 0.57449 0.45649 0.74564 0.0
H104 H 0.51321 0.08275 0.78321 0.0
H105 H 0.56898 0.08319 0.77836 0.0
H106 H 0.55034 0.11308 0.73538 0.0
H107 H 0.57147 0.09418 0.71648 0.0
C108 C 0.57901 0.09241 0.73045 0.0
O109 O 0.57837 0.10461 0.74662 0.0
H110 H 0.57084 0.07546 0.73329 0.0
C111 C 0.52648 0.08683 0.77534 0.0
C112 C 0.5298 0.09829 0.75823 0.0
C113 C 0.5405 0.08131 0.78286 0.0
C114 C 0.55802 0.08741 0.77299 0.0
C115 C 0.56147 0.09882 0.75596 0.0
C116 C 0.54749 0.10436 0.74868 0.0
H117 H 0.74328 0.5722 0.88901 0.0
H118 H 0.79854 0.57076 0.89415 0.0
H119 H 0.75879 0.54847 0.94113 0.0
H120 H 0.80143 0.57081 0.95697 0.0
C121 C 0.80793 0.56923 0.94283 0.0
O122 O 0.79273 0.5545 0.9289 0.0
H123 H 0.81554 0.58492 0.93671 0.0
C124 C 0.75356 0.5687 0.89745 0.0
C125 C 0.74863 0.5598 0.91609 0.0
C126 C 0.7715 0.57271 0.88933 0.0
C127 C 0.78448 0.56752 0.89995 0.0
C128 C 0.77982 0.55882 0.91855 0.0
C129 C 0.76196 0.55491 0.92655 0.0
H130 H 0.43097 0.17174 0.91361 0.0
H131 H 0.437 0.2333 0.91893 0.0
H132 H 0.46009 0.21361 0.96824 0.0
H133 H 0.44668 0.24307 0.98408 0.0
C134 C 0.44406 0.24754 0.96891 0.0
O135 O 0.45548 0.24414 0.95545 0.0
H136 H 0.42775 0.23755 0.96366 0.0
C137 C 0.43628 0.18681 0.92221 0.0
C138 C 0.44597 0.19068 0.94195 0.0
C139 C 0.43282 0.20199 0.91373 0.0
C140 C 0.43922 0.22123 0.92524 0.0
C141 C 0.44893 0.2253 0.94483 0.0
C142 C 0.45231 0.2101 0.95315 0.0
H143 H 0.82771 0.25029 0.90867 0.0
H144 H 0.77115 0.19309 0.91063 0.0
H145 H 0.79299 0.24165 0.95992 0.0
H146 H 0.77192 0.19966 0.97436 0.0
C147 C 0.76346 0.19047 0.95975 0.0
O148 O 0.76386 0.20406 0.94594 0.0
H149 H 0.7709 0.1818 0.95401 0.0
C150 C 0.81449 0.24075 0.91641 0.0
C151 C 0.81229 0.24854 0.93541 0.0
C152 C 0.79976 0.22081 0.90724 0.0
C153 C 0.78265 0.20856 0.91735 0.0
C154 C 0.78039 0.21602 0.93637 0.0
C155 C 0.79511 0.23596 0.94534 0.0
H156 H 0.57565 0.75666 0.10621 0.0
H157 H 0.573 0.81344 0.10193 0.0
H158 H 0.54892 0.76582 0.05158 0.0
H159 H 0.56586 0.80796 0.03721 0.0
C160 C 0.56723 0.8168 0.05194 0.0
O161 O 0.55502 0.8029 0.06506 0.0
H162 H 0.58324 0.82482 0.05844 0.0
C163 C 0.57143 0.76624 0.09763 0.0
C164 C 0.56193 0.75879 0.07777 0.0
C165 C 0.57547 0.78589 0.10657 0.0
C166 C 0.5701 0.79829 0.09531 0.0
C167 C 0.5605 0.79099 0.07557 0.0
C168 C 0.55628 0.77123 0.0669 0.0
H169 H 0.25464 0.83111 0.11326 0.0
H170 H 0.20086 0.7701 0.10545 0.0
H171 H 0.24186 0.78913 0.05936 0.0
H172 H 0.19918 0.76308 0.04185 0.0
C173 C 0.19264 0.75654 0.05614 0.0
O174 O 0.2079 0.75912 0.07008 0.0
H175 H 0.18527 0.76523 0.06198 0.0
C176 C 0.24491 0.81632 0.10416 0.0
C177 C 0.25061 0.81211 0.08539 0.0
C178 C 0.22707 0.80123 0.11165 0.0
C179 C 0.2148 0.78184 0.10008 0.0
C180 C 0.22011 0.77764 0.08125 0.0
C181 C 0.23801 0.79263 0.07401 0.0
H182 H 0.18477 0.42594 0.123 0.0
H183 H 0.24067 0.42665 0.11844 0.0
H184 H 0.21937 0.45137 0.07222 0.0
H185 H 0.23835 0.42915 0.0555 0.0
C186 C 0.24757 0.42985 0.0694 0.0
O187 O 0.24799 0.44404 0.0842 0.0
H188 H 0.24049 0.41377 0.07469 0.0
C189 C 0.19776 0.4295 0.11484 0.0
C190 C 0.20013 0.43909 0.09658 0.0
C191 C 0.21231 0.425 0.12297 0.0
C192 C 0.2294 0.43024 0.11262 0.0
C193 C 0.23181 0.43965 0.09435 0.0
C194 C 0.21735 0.44424 0.08647 0.0
H195 H 0.41951 0.92273 0.23502 0.0
H196 H 0.47409 0.9198 0.23971 0.0
H197 H 0.43133 0.89225 0.28338 0.0
H198 H 0.47372 0.91253 0.30192 0.0
C199 C 0.48085 0.91284 0.28767 0.0
O200 O 0.46621 0.89992 0.27239 0.0
H201 H 0.4889 0.92942 0.28364 0.0
C202 C 0.42901 0.91765 0.24252 0.0
C203 C 0.42298 0.9067 0.25995 0.0
C204 C 0.44748 0.92261 0.23505 0.0
C205 C 0.45993 0.91648 0.2453 0.0
C206 C 0.45413 0.90577 0.26275 0.0
C207 C 0.43572 0.90085 0.27002 0.0
H208 H 0.09882 0.50824 0.24563 0.0
H209 H 0.10714 0.57071 0.25168 0.0
H210 H 0.1306 0.55002 0.29978 0.0
H211 H 0.11995 0.58081 0.31695 0.0
C212 C 0.11622 0.58476 0.30194 0.0
O213 O 0.12689 0.58123 0.28763 0.0
H214 H 0.09974 0.57443 0.29777 0.0
C215 C 0.10438 0.52319 0.25454 0.0
C216 C 0.11497 0.52698 0.27379 0.0
C217 C 0.10158 0.53888 0.24633 0.0
C218 C 0.10933 0.55848 0.25763 0.0
C219 C 0.11969 0.56237 0.27684 0.0
C220 C 0.12264 0.54676 0.28482 0.0
H221 H 0.49487 0.58832 0.24046 0.0
H222 H 0.43709 0.53219 0.24034 0.0
H223 H 0.4602 0.57846 0.2919 0.0
H224 H 0.43661 0.53584 0.30445 0.0
C225 C 0.42868 0.52754 0.28937 0.0
O226 O 0.42999 0.54208 0.2763 0.0
H227 H 0.43611 0.51893 0.28343 0.0
C228 C 0.48148 0.57872 0.24796 0.0
C229 C 0.47958 0.58568 0.26747 0.0
C230 C 0.46624 0.55952 0.238 0.0
C231 C 0.449 0.54706 0.24782 0.0
C232 C 0.44684 0.55397 0.26717 0.0
C233 C 0.462 0.57332 0.27689 0.0
Tb234 Tb 0.52318 0.02068 0.01174 0.0
C235 C 0.51087 0.97213 0.01114 0.0
Tb236 Tb 0.47843 0.9864 0.00888 0.0
O237 O 0.52222 0.02977 0.04364 0.0
O238 O 0.50341 0.99906 0.03078 0.0
O239 O 0.52501 0.99174 0.00853 0.0
C240 C 0.44102 0.9619 0.01885 0.0
O241 O 0.49206 0.96702 0.01399 0.0
C242 C 0.49435 0.99553 0.97421 0.0
C243 C 0.49079 0.035 0.00867 0.0
O244 O 0.44743 0.96044 0.00141 0.0
O245 O 0.45561 0.97726 0.03054 0.0
O246 O 0.47898 0.97733 0.97683 0.0
O247 O 0.4982 0.00786 0.98982 0.0
O248 O 0.47659 0.01543 0.01139 0.0
O249 O 0.50964 0.04003 0.00614 0.0
C250 C 0.56106 0.04579 0.00336 0.0
O251 O 0.55413 0.04595 0.02078 0.0
O252 O 0.5467 0.03137 0.9907 0.0
C253 C 0.50715 0.01141 0.04634 0.0
Tb254 Tb 0.98714 0.50661 0.00972 0.0
C255 C 0.03274 0.54025 0.01772 0.0
Tb256 Tb 0.01758 0.49101 0.01354 0.0
O257 O 0.99388 0.5194 0.04161 0.0
O258 O 0.99773 0.49412 0.0323 0.0
O259 O 0.01491 0.53651 0.0098 0.0
C260 C 0.04608 0.48214 0.02507 0.0
O261 O 0.03621 0.52493 0.02254 0.0
C262 C 0.00374 0.49071 0.97641 0.0
C263 C 0.97183 0.45735 0.00588 0.0
O264 O 0.04693 0.4937 0.01059 0.0
O265 O 0.02914 0.47549 0.03302 0.0
O266 O 0.00989 0.47796 0.98166 0.0
O267 O 0.00742 0.50396 0.99122 0.0
O268 O 0.98978 0.46104 0.01331 0.0
O269 O 0.96823 0.47268 0.00156 0.0
C270 C 0.95853 0.5149 0.99702 0.0
O271 O 0.97372 0.51792 0.98717 0.0
O272 O 0.95951 0.50731 0.01403 0.0
C273 C 0.001 0.50748 0.04693 0.0
Tb274 Tb 0.48366 0.49948 0.00857 0.0
C275 C 0.49606 0.46509 0.00185 0.0
Tb276 Tb 0.52925 0.51404 0.00758 0.0
O277 O 0.47698 0.48842 0.97604 0.0
O278 O 0.50574 0.51177 0.98775 0.0
O279 O 0.48217 0.46917 0.00821 0.0
C280 C 0.565 0.52309 0.99566 0.0
O281 O 0.51441 0.48013 0.99856 0.0
C282 C 0.5176 0.51401 0.04396 0.0
C283 C 0.51672 0.54833 0.01528 0.0
O284 O 0.55558 0.50998 0.00891 0.0
O285 O 0.55437 0.53121 0.98925 0.0
O286 O 0.53629 0.52477 0.0401 0.0
O287 O 0.50728 0.50185 0.02845 0.0
O288 O 0.53071 0.54446 0.0088 0.0
O289 O 0.49832 0.53316 0.01823 0.0
C290 C 0.44739 0.49016 0.01908 0.0
O291 O 0.45688 0.5027 0.00544 0.0
O292 O 0.45829 0.48285 0.02674 0.0
C293 C 0.49564 0.49949 0.97227 0.0
Tb294 Tb 0.1906 0.35409 0.34278 0.0
C295 C 0.17785 0.30723 0.34845 0.0
Tb296 Tb 0.14556 0.32273 0.3457 0.0
O297 O 0.19741 0.35127 0.37458 0.0
O298 O 0.16957 0.34766 0.36453 0.0
O299 O 0.19193 0.32527 0.3424 0.0
C300 C 0.11018 0.29476 0.35799 0.0
O301 O 0.15956 0.30363 0.35187 0.0
C302 C 0.15647 0.33054 0.30897 0.0
C303 C 0.15821 0.36911 0.33858 0.0
O304 O 0.1148 0.29598 0.33935 0.0
O305 O 0.12542 0.30932 0.36965 0.0
O306 O 0.13858 0.32536 0.31389 0.0
O307 O 0.16652 0.32928 0.32396 0.0
O308 O 0.14466 0.35186 0.34633 0.0
O309 O 0.17607 0.37206 0.33426 0.0
C310 C 0.22651 0.38239 0.33191 0.0
O311 O 0.21953 0.38337 0.3491 0.0
O312 O 0.21327 0.36545 0.32083 0.0
C313 C 0.17961 0.34637 0.3795 0.0
Tb314 Tb 0.65661 0.84228 0.3402 0.0
C315 C 0.70214 0.87599 0.34759 0.0
Tb316 Tb 0.6867 0.82663 0.34451 0.0
O317 O 0.66466 0.85606 0.37175 0.0
O318 O 0.66643 0.82935 0.36297 0.0
O319 O 0.68424 0.87222 0.33991 0.0
C320 C 0.71562 0.81884 0.35737 0.0
O321 O 0.70564 0.86069 0.35232 0.0
C322 C 0.67312 0.82596 0.30719 0.0
C323 C 0.64112 0.79292 0.33698 0.0
O324 O 0.71423 0.8257 0.34003 0.0
O325 O 0.70066 0.81623 0.3674 0.0
O326 O 0.67894 0.81305 0.31287 0.0
O327 O 0.67689 0.83956 0.32175 0.0
O328 O 0.65907 0.79659 0.34439 0.0
O329 O 0.63758 0.80824 0.33242 0.0
C330 C 0.62774 0.85053 0.32844 0.0
O331 O 0.64263 0.85346 0.31812 0.0
O332 O 0.62913 0.84299 0.34534 0.0
C333 C 0.67028 0.84303 0.37747 0.0
Tb334 Tb 0.15062 0.83438 0.33957 0.0
C335 C 0.16399 0.80085 0.33345 0.0
Tb336 Tb 0.19608 0.85021 0.33843 0.0
O337 O 0.14386 0.82214 0.30745 0.0
O338 O 0.17233 0.84707 0.31834 0.0
O339 O 0.14977 0.80443 0.3397 0.0
C340 C 0.2324 0.85985 0.3279 0.0
O341 O 0.18215 0.81625 0.33002 0.0
C342 C 0.18405 0.85019 0.37464 0.0
C343 C 0.18254 0.88367 0.34479 0.0
O344 O 0.22354 0.84835 0.34241 0.0
O345 O 0.22087 0.86602 0.31941 0.0
O346 O 0.20229 0.86283 0.37038 0.0
O347 O 0.17439 0.83712 0.35949 0.0
O348 O 0.19685 0.88019 0.33865 0.0
O349 O 0.16432 0.86823 0.34786 0.0
C350 C 0.11466 0.82536 0.35083 0.0
O351 O 0.12213 0.83407 0.33448 0.0
O352 O 0.12739 0.82164 0.36075 0.0
C353 C 0.16229 0.83399 0.30327 0.0
Tb354 Tb 0.8565 0.68696 0.67457 0.0
C355 C 0.8442 0.64078 0.68233 0.0
Tb356 Tb 0.81146 0.65545 0.67827 0.0
O357 O 0.86393 0.68493 0.7065 0.0
O358 O 0.83581 0.68051 0.69661 0.0
O359 O 0.85778 0.65815 0.67481 0.0
C360 C 0.7763 0.62765 0.69097 0.0
O361 O 0.82632 0.63771 0.68673 0.0
C362 C 0.8217 0.66256 0.64122 0.0
C363 C 0.82375 0.70146 0.66964 0.0
O364 O 0.78364 0.62479 0.67468 0.0
O365 O 0.78867 0.64622 0.69998 0.0
O366 O 0.80376 0.65697 0.6463 0.0
O367 O 0.83209 0.66191 0.65623 0.0
O368 O 0.81013 0.68425 0.67736 0.0
O369 O 0.84169 0.7045 0.66557 0.0
C370 C 0.89203 0.71513 0.66285 0.0
O371 O 0.88463 0.71726 0.67939 0.0
O372 O 0.87948 0.69708 0.65297 0.0
C373 C 0.84608 0.67965 0.71159 0.0
Tb374 Tb 0.32121 0.17409 0.67678 0.0
C375 C 0.36685 0.20744 0.68405 0.0
Tb376 Tb 0.35096 0.15798 0.6811 0.0
O377 O 0.32942 0.18783 0.70838 0.0
O378 O 0.33079 0.16091 0.69952 0.0
O379 O 0.34902 0.20382 0.67631 0.0
C380 C 0.37963 0.14961 0.69331 0.0
O381 O 0.37015 0.19204 0.68899 0.0
C382 C 0.33754 0.15758 0.64379 0.0
C383 C 0.30534 0.12461 0.67318 0.0
O384 O 0.37829 0.15688 0.67621 0.0
O385 O 0.36478 0.14698 0.70355 0.0
O386 O 0.34309 0.14446 0.64944 0.0
O387 O 0.34142 0.17116 0.65838 0.0
O388 O 0.32313 0.1281 0.68093 0.0
O389 O 0.30208 0.14012 0.66863 0.0
C390 C 0.2925 0.18245 0.66459 0.0
O391 O 0.30741 0.18518 0.65442 0.0
O392 O 0.2938 0.17512 0.68166 0.0
C393 C 0.33481 0.1746 0.71405 0.0
Tb394 Tb 0.81791 0.16638 0.67775 0.0
C395 C 0.8314 0.13303 0.67187 0.0
Tb396 Tb 0.86304 0.18257 0.67534 0.0
O397 O 0.81144 0.15296 0.64608 0.0
O398 O 0.83896 0.17984 0.65606 0.0
O399 O 0.81732 0.13662 0.67852 0.0
C400 C 0.89855 0.19118 0.663 0.0
O401 O 0.84935 0.14845 0.66796 0.0
C402 C 0.85189 0.18254 0.71193 0.0
C403 C 0.84954 0.21592 0.68181 0.0
O404 O 0.89239 0.18468 0.68049 0.0
O405 O 0.88481 0.19297 0.65259 0.0
O406 O 0.86978 0.19573 0.70711 0.0
O407 O 0.84204 0.16915 0.69703 0.0
O408 O 0.86378 0.21249 0.67537 0.0
O409 O 0.83146 0.20042 0.68528 0.0
C410 C 0.78174 0.15729 0.68842 0.0
O411 O 0.78833 0.16316 0.67092 0.0
O412 O 0.79552 0.15655 0.69994 0.0
C413 C 0.8292 0.16638 0.64119 0.0
H414 H 0.27822 0.80516 0.06738 0.0
H415 H 0.31004 0.83123 0.0555 0.0
H416 H 0.29854 0.88084 0.0748 0.0
H417 H 0.26642 0.85481 0.08628 0.0
H418 H 0.31232 0.88368 0.0354 0.0
H419 H 0.36079 0.87292 0.09314 0.0
H420 H 0.34194 0.84907 0.07869 0.0
H421 H 0.33445 0.86343 0.09544 0.0
C422 C 0.28236 0.8216 0.06893 0.0
C423 C 0.26981 0.82791 0.07786 0.0
C424 C 0.30064 0.83649 0.06232 0.0
C425 C 0.30677 0.85798 0.06454 0.0
C426 C 0.29414 0.86433 0.07308 0.0
H427 H 0.42726 0.96242 0.05577 0.0
H428 H 0.39418 0.93782 0.06647 0.0
C429 C 0.27587 0.84946 0.07975 0.0
C430 C 0.32636 0.87385 0.05796 0.0
H431 H 0.37707 0.89432 0.06691 0.0
C432 C 0.3265 0.88606 0.0423 0.0
C433 C 0.34482 0.87709 0.06717 0.0
C434 C 0.34561 0.86509 0.08467 0.0
C435 C 0.34462 0.90119 0.03535 0.0
C436 C 0.36305 0.904 0.04417 0.0
C437 C 0.36291 0.89203 0.06006 0.0
C438 C 0.3827 0.91937 0.03729 0.0
C439 C 0.34392 0.91426 0.01885 0.0
C440 C 0.38724 0.91712 0.01735 0.0
C441 C 0.40612 0.93117 0.01121 0.0
C442 C 0.42078 0.94762 0.02495 0.0
C443 C 0.41619 0.94992 0.04485 0.0
C444 C 0.39734 0.93587 0.05099 0.0
H445 H 0.32934 0.91395 0.01734 0.0
H446 H 0.35627 0.93088 0.02191 0.0
H447 H 0.34581 0.90786 0.00409 0.0
H448 H 0.37631 0.90427 0.00665 0.0
H449 H 0.40934 0.92897 0.99582 0.0
H450 H 0.20569 0.47483 0.08019 0.0
H451 H 0.17972 0.48236 0.06709 0.0
H452 H 0.13353 0.42126 0.08099 0.0
H453 H 0.1593 0.41345 0.09388 0.0
H454 H 0.13559 0.44203 0.03596 0.0
H455 H 0.13438 0.4827 0.10905 0.0
H456 H 0.15785 0.48622 0.10111 0.0
H457 H 0.13956 0.46129 0.10876 0.0
C458 C 0.19 0.46292 0.08026 0.0
C459 C 0.18453 0.44357 0.08814 0.0
C460 C 0.17524 0.46728 0.07287 0.0
C461 C 0.15482 0.45236 0.07318 0.0
C462 C 0.14926 0.43295 0.08072 0.0
H463 H 0.04588 0.45854 0.05548 0.0
H464 H 0.07245 0.45112 0.06655 0.0
C465 C 0.16399 0.42859 0.08818 0.0
C466 C 0.13918 0.45708 0.0659 0.0
H467 H 0.11216 0.47962 0.08145 0.0
C468 C 0.13047 0.45031 0.04581 0.0
C469 C 0.13254 0.46769 0.07895 0.0
C470 C 0.14146 0.47496 0.10072 0.0
C471 C 0.1151 0.45387 0.03837 0.0
C472 C 0.10854 0.46471 0.05136 0.0
C473 C 0.11727 0.47139 0.07151 0.0
C474 C 0.09248 0.46907 0.04443 0.0
C475 C 0.1057 0.44559 0.01684 0.0
C476 C 0.09505 0.48178 0.02849 0.0
C477 C 0.07989 0.48597 0.02212 0.0
C478 C 0.062 0.47761 0.0317 0.0
C479 C 0.05951 0.46507 0.04779 0.0
C480 C 0.07466 0.46087 0.05413 0.0
H481 H 0.10878 0.43322 0.01072 0.0
H482 H 0.08916 0.43897 0.01594 0.0
H483 H 0.11208 0.45871 0.00694 0.0
H484 H 0.10885 0.48862 0.02109 0.0
H485 H 0.08222 0.49582 0.00977 0.0
H486 H 0.58763 0.74332 0.07831 0.0
H487 H 0.58059 0.70835 0.06527 0.0
H488 H 0.52018 0.69208 0.04405 0.0
H489 H 0.52723 0.72719 0.05689 0.0
H490 H 0.55307 0.67086 0.07696 0.0
H491 H 0.53736 0.67282 0.99449 0.0
H492 H 0.54892 0.69623 0.01211 0.0
H493 H 0.52212 0.67874 0.01006 0.0
C494 C 0.57287 0.73233 0.07077 0.0
C495 C 0.55797 0.738 0.06865 0.0
C496 C 0.56889 0.71237 0.06327 0.0
C497 C 0.54993 0.69764 0.05346 0.0
C498 C 0.53507 0.70332 0.05112 0.0
H499 H 0.49173 0.56274 0.0266 0.0
H500 H 0.50033 0.59918 0.03519 0.0
C501 C 0.53909 0.72338 0.05851 0.0
C502 C 0.54547 0.676 0.04677 0.0
H503 H 0.52916 0.63935 0.00566 0.0
C504 C 0.54798 0.66406 0.06134 0.0
C505 C 0.53888 0.66711 0.02635 0.0
C506 C 0.53684 0.67945 0.0098 0.0
C507 C 0.54374 0.64341 0.05612 0.0
C508 C 0.5368 0.63446 0.03586 0.0
C509 C 0.53444 0.64634 0.02121 0.0
C510 C 0.53161 0.61256 0.02982 0.0
C511 C 0.54648 0.63109 0.07226 0.0
C512 C 0.5464 0.60812 0.02386 0.0
C513 C 0.54157 0.58728 0.0189 0.0
C514 C 0.52185 0.57053 0.01988 0.0
C515 C 0.50707 0.57518 0.02569 0.0
C516 C 0.51191 0.596 0.03058 0.0
H517 H 0.55191 0.64027 0.08741 0.0
H518 H 0.53197 0.61646 0.07349 0.0
H519 H 0.55745 0.62634 0.06785 0.0
H520 H 0.56171 0.62077 0.02326 0.0
H521 H 0.55335 0.58432 0.01454 0.0
H522 H 0.82855 0.26046 0.97512 0.0
H523 H 0.85546 0.29527 0.98973 0.0
H524 H 0.85838 0.31933 0.9312 0.0
H525 H 0.83153 0.28472 0.91654 0.0
H526 H 0.8958 0.32948 0.94964 0.0
H527 H 0.85273 0.34888 0.00286 0.0
H528 H 0.85158 0.32413 0.00553 0.0
H529 H 0.84063 0.32788 0.98258 0.0
C530 C 0.83474 0.27326 0.96544 0.0
C531 C 0.82794 0.26981 0.94465 0.0
C532 C 0.85011 0.29313 0.97381 0.0
C533 C 0.85881 0.30993 0.96158 0.0
C534 C 0.85191 0.30657 0.9409 0.0
H535 H 0.93331 0.44354 0.98992 0.0
H536 H 0.9065 0.4073 0.98059 0.0
C537 C 0.83661 0.28676 0.93253 0.0
C538 C 0.87557 0.3309 0.97003 0.0
H539 H 0.88767 0.37296 0.00409 0.0
C540 C 0.89406 0.33897 0.9616 0.0
C541 C 0.87319 0.34329 0.98552 0.0
C542 C 0.85343 0.33575 0.99458 0.0
C543 C 0.91021 0.35917 0.96813 0.0
C544 C 0.9079 0.37149 0.98374 0.0
C545 C 0.88945 0.36338 0.99226 0.0
C546 C 0.92406 0.39333 0.99052 0.0
C547 C 0.92938 0.36741 0.95778 0.0
C548 C 0.94276 0.39751 0.99954 0.0
C549 C 0.95822 0.41828 0.00488 0.0
C550 C 0.95521 0.43525 0.00137 0.0
C551 C 0.93624 0.43091 0.99282 0.0
C552 C 0.92083 0.41018 0.9875 0.0
H553 H 0.92719 0.3579 0.94325 0.0
H554 H 0.93519 0.38404 0.95462 0.0
H555 H 0.94099 0.3668 0.96795 0.0
H556 H 0.94544 0.3847 0.00231 0.0
H557 H 0.97258 0.421 0.01152 0.0
H558 H 0.73139 0.58464 0.91571 0.0
H559 H 0.70005 0.57786 0.92941 0.0
H560 H 0.69201 0.51986 0.9502 0.0
H561 H 0.72299 0.52608 0.93598 0.0
H562 H 0.65924 0.53724 0.91935 0.0
H563 H 0.68896 0.55665 0.00105 0.0
H564 H 0.70511 0.56687 0.9808 0.0
H565 H 0.69492 0.53986 0.98573 0.0
C566 C 0.72287 0.5703 0.92298 0.0
C567 C 0.72973 0.55588 0.92469 0.0
C568 C 0.70505 0.56655 0.9309 0.0
C569 C 0.69388 0.54846 0.94089 0.0
C570 C 0.7006 0.53403 0.9427 0.0
H571 H 0.58647 0.50389 0.00494 0.0
H572 H 0.61752 0.50964 0.9911 0.0
C573 C 0.71835 0.53768 0.93465 0.0
C574 C 0.67501 0.54454 0.94917 0.0
H575 H 0.65442 0.54439 0.99357 0.0
C576 C 0.65812 0.53881 0.93556 0.0
C577 C 0.6737 0.54649 0.97031 0.0
C578 C 0.69162 0.55291 0.98543 0.0
C579 C 0.63975 0.53472 0.94258 0.0
C580 C 0.63849 0.53703 0.96376 0.0
C581 C 0.65543 0.54268 0.97735 0.0
C582 C 0.61976 0.53369 0.97215 0.0
C583 C 0.62179 0.52748 0.92725 0.0
C584 C 0.61091 0.54554 0.96635 0.0
C585 C 0.59313 0.54216 0.9741 0.0
C586 C 0.58409 0.52711 0.98804 0.0
C587 C 0.59317 0.51559 0.99421 0.0
C588 C 0.61087 0.51886 0.98632 0.0
H589 H 0.62358 0.52053 0.91274 0.0
H590 H 0.60771 0.51564 0.93322 0.0
H591 H 0.62019 0.5412 0.9238 0.0
H592 H 0.61778 0.55745 0.95585 0.0
H593 H 0.58646 0.55131 0.96918 0.0
H594 H 0.45914 0.16631 0.92323 0.0
H595 H 0.46446 0.13932 0.93751 0.0
H596 H 0.44616 0.15127 0.99485 0.0
H597 H 0.44088 0.17842 0.98066 0.0
H598 H 0.47994 0.14831 0.99989 0.0
H599 H 0.42204 0.08056 0.94854 0.0
H600 H 0.43962 0.10143 0.93487 0.0
H601 H 0.42341 0.10582 0.95052 0.0
C602 C 0.45604 0.16305 0.93882 0.0
C603 C 0.44945 0.17443 0.95076 0.0
C604 C 0.45904 0.14757 0.94695 0.0
C605 C 0.45531 0.14294 0.96713 0.0
C606 C 0.44902 0.15448 0.9792 0.0
H607 H 0.4535 0.03119 0.01021 0.0
H608 H 0.44394 0.05747 0.00276 0.0
C609 C 0.44609 0.17005 0.9711 0.0
C610 C 0.45856 0.1265 0.97573 0.0
H611 H 0.44627 0.07508 0.96732 0.0
C612 C 0.47242 0.13224 0.9929 0.0
C613 C 0.44847 0.10541 0.96688 0.0
C614 C 0.4324 0.09786 0.94932 0.0
C615 C 0.47708 0.1177 0.00089 0.0
C616 C 0.46794 0.09698 0.99123 0.0
C617 C 0.45345 0.09101 0.97461 0.0
C618 C 0.47394 0.08159 0.99738 0.0
C619 C 0.49176 0.12472 0.01963 0.0
C620 C 0.49396 0.08639 0.99687 0.0
C621 C 0.49948 0.07149 0.0012 0.0
C622 C 0.48505 0.05129 0.00592 0.0
C623 C 0.46502 0.04658 0.0067 0.0
C624 C 0.45952 0.06158 0.0024 0.0
H625 H 0.49213 0.13801 0.02883 0.0
H626 H 0.48793 0.11162 0.02935 0.0
H627 H 0.5071 0.13025 0.01495 0.0
H628 H 0.50527 0.10151 0.99254 0.0
H629 H 0.51502 0.07569 0.00031 0.0
H630 H 0.7371 0.19915 0.97797 0.0
H631 H 0.70241 0.17434 0.98491 0.0
H632 H 0.70705 0.12296 0.95656 0.0
H633 H 0.74167 0.14769 0.94959 0.0
H634 H 0.66854 0.14504 0.95645 0.0
H635 H 0.68952 0.10547 0.01427 0.0
H636 H 0.70735 0.13083 0.00643 0.0
H637 H 0.70014 0.10723 0.99041 0.0
C638 C 0.73064 0.18255 0.97323 0.0
C639 C 0.74203 0.17526 0.96344 0.0
C640 C 0.71089 0.16844 0.97716 0.0
C641 C 0.7023 0.14681 0.97148 0.0
C642 C 0.71353 0.13955 0.96134 0.0
H643 H 0.57633 0.04861 0.96668 0.0
H644 H 0.61058 0.07322 0.9586 0.0
C645 C 0.73324 0.15367 0.95733 0.0
C646 C 0.68159 0.13182 0.97622 0.0
H647 H 0.65479 0.0907 0.00432 0.0
C648 C 0.66549 0.13315 0.9669 0.0
C649 C 0.67774 0.1165 0.99003 0.0
C650 C 0.69457 0.11493 0.00103 0.0
C651 C 0.64557 0.11933 0.97086 0.0
C652 C 0.64169 0.10372 0.98435 0.0
C653 C 0.65782 0.10258 0.99385 0.0
C654 C 0.62101 0.08868 0.98915 0.0
C655 C 0.62886 0.12176 0.96085 0.0
C656 C 0.61567 0.08894 0.00907 0.0
C657 C 0.59617 0.0749 0.01371 0.0
C658 C 0.58175 0.06025 0.99853 0.0
C659 C 0.58717 0.05979 0.97865 0.0
C660 C 0.60667 0.0739 0.974 0.0
H661 H 0.63467 0.13727 0.9546 0.0
H662 H 0.6208 0.10926 0.94811 0.0
H663 H 0.61783 0.12005 0.97181 0.0
H664 H 0.62656 0.10017 0.02099 0.0
H665 H 0.59238 0.07556 0.02917 0.0
H666 H 0.81434 0.55314 0.97713 0.0
H667 H 0.83981 0.54303 0.98432 0.0
H668 H 0.86064 0.55937 0.92512 0.0
H669 H 0.83535 0.56982 0.91805 0.0
H670 H 0.84586 0.51284 0.96318 0.0
H671 H 0.91218 0.5932 0.96365 0.0
H672 H 0.88696 0.58857 0.96488 0.0
H673 H 0.89502 0.58421 0.94103 0.0
C674 C 0.82444 0.55465 0.96573 0.0
C675 C 0.82321 0.56258 0.94719 0.0
C676 C 0.83892 0.54883 0.96981 0.0
C677 C 0.85234 0.55082 0.9554 0.0
C678 C 0.85074 0.55818 0.93662 0.0
H679 H 0.95382 0.52867 0.96077 0.0
H680 H 0.92739 0.53625 0.94943 0.0
C681 C 0.83629 0.56404 0.93257 0.0
C682 C 0.86795 0.5451 0.96007 0.0
H683 H 0.91874 0.56535 0.96717 0.0
C684 C 0.8618 0.5243 0.96405 0.0
C685 C 0.88872 0.56008 0.96109 0.0
C686 C 0.89619 0.58282 0.95761 0.0
C687 C 0.87589 0.51805 0.969 0.0
C688 C 0.89666 0.53312 0.97039 0.0
C689 C 0.90281 0.55384 0.96608 0.0
C690 C 0.91226 0.52793 0.97696 0.0
C691 C 0.86839 0.49532 0.97248 0.0
C692 C 0.91262 0.52097 0.99625 0.0
C693 C 0.92762 0.5166 0.0027 0.0
C694 C 0.94264 0.51934 0.99005 0.0
C695 C 0.94238 0.52644 0.9708 0.0
C696 C 0.92732 0.53075 0.96432 0.0
H697 H 0.85291 0.48482 0.9651 0.0
H698 H 0.87845 0.48993 0.96657 0.0
H699 H 0.86802 0.49364 0.98905 0.0
H700 H 0.90144 0.51917 0.00644 0.0
H701 H 0.92756 0.51126 0.01766 0.0
H702 H 0.41926 0.26418 0.97097 0.0
H703 H 0.42867 0.30135 0.97598 0.0
H704 H 0.49135 0.31965 0.97753 0.0
H705 H 0.48202 0.28245 0.97266 0.0
H706 H 0.45533 0.33133 0.01002 0.0
H707 H 0.48306 0.35534 0.93453 0.0
H708 H 0.4665 0.32819 0.93892 0.0
H709 H 0.49268 0.34105 0.94786 0.0
C710 C 0.43503 0.27615 0.97213 0.0
C711 C 0.4499 0.27047 0.97091 0.0
C712 C 0.44038 0.29734 0.97506 0.0
C713 C 0.46068 0.31323 0.9768 0.0
C714 C 0.47559 0.30762 0.97582 0.0
H715 H 0.52118 0.45 0.99302 0.0
H716 H 0.51267 0.41326 0.98751 0.0
C717 C 0.47025 0.28641 0.97303 0.0
C718 C 0.46624 0.33562 0.98039 0.0
H719 H 0.48702 0.38221 0.95877 0.0
C720 C 0.46222 0.34247 0.99882 0.0
C721 C 0.47534 0.3501 0.96579 0.0
C722 C 0.47957 0.34338 0.94557 0.0
C723 C 0.46728 0.36353 0.00318 0.0
C724 C 0.47611 0.378 0.98844 0.0
C725 C 0.48022 0.37112 0.97003 0.0
C726 C 0.48115 0.40031 0.99181 0.0
C727 C 0.46356 0.37016 0.02373 0.0
C728 C 0.46621 0.4053 0.99576 0.0
C729 C 0.47104 0.4263 0.99908 0.0
C730 C 0.49089 0.44279 0.99824 0.0
C731 C 0.50575 0.43774 0.99386 0.0
C732 C 0.50092 0.41672 0.99068 0.0
H733 H 0.46245 0.35917 0.03514 0.0
H734 H 0.47571 0.38628 0.02946 0.0
H735 H 0.4491 0.3701 0.02238 0.0
H736 H 0.45075 0.39293 0.99617 0.0
H737 H 0.45916 0.42958 0.00218 0.0
H738 H 0.17694 0.73262 0.01946 0.0
H739 H 0.14988 0.69581 0.01315 0.0
H740 H 0.14577 0.69206 0.07776 0.0
H741 H 0.17253 0.72907 0.08406 0.0
H742 H 0.14729 0.65962 0.02525 0.0
H743 H 0.08795 0.67155 0.05647 0.0
H744 H 0.11191 0.69319 0.05131 0.0
H745 H 0.10972 0.68025 0.07414 0.0
C746 C 0.17029 0.72389 0.03229 0.0
C747 C 0.17688 0.73357 0.05226 0.0
C748 C 0.15485 0.70289 0.02869 0.0
C749 C 0.14561 0.69127 0.04496 0.0
C750 C 0.1524 0.70084 0.06495 0.0
H751 H 0.06976 0.55485 0.03829 0.0
H752 H 0.09716 0.5913 0.04478 0.0
C753 C 0.16778 0.72187 0.06855 0.0
C754 C 0.12893 0.66912 0.04095 0.0
H755 H 0.07963 0.63616 0.04814 0.0
C756 C 0.13248 0.65449 0.03022 0.0
C757 C 0.10953 0.66252 0.04718 0.0
C758 C 0.10443 0.67772 0.05774 0.0
C759 C 0.11723 0.63338 0.02575 0.0
C760 C 0.09803 0.62662 0.03257 0.0
C761 C 0.09441 0.64131 0.04309 0.0
C762 C 0.08137 0.60445 0.02871 0.0
C763 C 0.12174 0.61863 0.01339 0.0
C764 C 0.06314 0.59974 0.01803 0.0
C765 C 0.04733 0.57891 0.01446 0.0
C766 C 0.04944 0.56236 0.02154 0.0
C767 C 0.06767 0.56716 0.03241 0.0
C768 C 0.08342 0.58801 0.03606 0.0
H769 H 0.13497 0.62736 0.00467 0.0
H770 H 0.12521 0.60927 0.02379 0.0
H771 H 0.10864 0.60756 0.00257 0.0
H772 H 0.06119 0.6122 0.01231 0.0
H773 H 0.03352 0.57581 0.00606 0.0
H774 H 0.26873 0.45562 0.04072 0.0
H775 H 0.30318 0.46649 0.03283 0.0
H776 H 0.30848 0.43102 0.08027 0.0
H777 H 0.27398 0.42002 0.08804 0.0
H778 H 0.33963 0.48832 0.05874 0.0
H779 H 0.32345 0.40866 0.02953 0.0
H780 H 0.30386 0.41495 0.03276 0.0
H781 H 0.31573 0.41025 0.0544 0.0
C782 C 0.27726 0.45007 0.04931 0.0
C783 C 0.26866 0.43658 0.0646 0.0
C784 C 0.29689 0.45632 0.04487 0.0
C785 C 0.30819 0.44921 0.0557 0.0
C786 C 0.29982 0.43627 0.07142 0.0
H787 H 0.42712 0.46537 0.0484 0.0
H788 H 0.39365 0.45637 0.05794 0.0
C789 C 0.2802 0.43004 0.07587 0.0
C790 C 0.3288 0.45545 0.05063 0.0
H791 H 0.3576 0.43574 0.03329 0.0
C792 C 0.34358 0.47686 0.05311 0.0
C793 C 0.33386 0.44042 0.04333 0.0
C794 C 0.31838 0.41729 0.03966 0.0
C795 C 0.36343 0.48365 0.04878 0.0
C796 C 0.36848 0.46862 0.04143 0.0
C797 C 0.35368 0.44721 0.03897 0.0
C798 C 0.38898 0.47473 0.03606 0.0
C799 C 0.37891 0.50677 0.05253 0.0
C800 C 0.39737 0.48792 0.02051 0.0
C801 C 0.41648 0.49311 0.01507 0.0
C802 C 0.4274 0.48502 0.02499 0.0
C803 C 0.41899 0.4718 0.04051 0.0
C804 C 0.39991 0.46665 0.04597 0.0
H805 H 0.37404 0.51523 0.06311 0.0
H806 H 0.3936 0.50911 0.05892 0.0
H807 H 0.38115 0.51399 0.03789 0.0
H808 H 0.38903 0.49396 0.01238 0.0
H809 H 0.42262 0.50326 0.00299 0.0
H810 H 0.59134 0.85962 0.05216 0.0
H811 H 0.5814 0.88559 0.04449 0.0
H812 H 0.51935 0.83609 0.03438 0.0
H813 H 0.52925 0.81002 0.04198 0.0
H814 H 0.55943 0.88564 0.00728 0.0
H815 H 0.51944 0.88089 0.07605 0.0
H816 H 0.5372 0.87171 0.07462 0.0
H817 H 0.51228 0.8562 0.06197 0.0
C818 C 0.57556 0.85433 0.04851 0.0
C819 C 0.561 0.83288 0.04811 0.0
C820 C 0.56992 0.86914 0.04406 0.0
C821 C 0.54962 0.8628 0.03916 0.0
C822 C 0.53506 0.84136 0.0385 0.0
H823 H 0.48606 0.92989 0.01328 0.0
H824 H 0.49562 0.90336 0.01873 0.0
C825 C 0.54071 0.82651 0.04284 0.0
C826 C 0.54376 0.87857 0.0343 0.0
H827 H 0.5177 0.90182 0.05106 0.0
C828 C 0.55035 0.88925 0.01685 0.0
C829 C 0.53185 0.88314 0.04678 0.0
C830 C 0.52486 0.87254 0.06601 0.0
C831 C 0.54506 0.90418 0.01135 0.0
C832 C 0.53329 0.90892 0.02395 0.0
C833 C 0.5267 0.89819 0.0414 0.0
C834 C 0.52763 0.92498 0.01941 0.0
C835 C 0.55174 0.91433 0.99186 0.0
C836 C 0.54244 0.946 0.01791 0.0
C837 C 0.53701 0.96123 0.01463 0.0
C838 C 0.51667 0.95579 0.01306 0.0
C839 C 0.50188 0.93468 0.01442 0.0
C840 C 0.50731 0.91946 0.01757 0.0
H841 H 0.55531 0.9047 0.98122 0.0
H842 H 0.54 0.91672 0.98406 0.0
H843 H 0.56557 0.92992 0.9954 0.0
H844 H 0.55823 0.95076 0.01976 0.0
H845 H 0.54881 0.97736 0.01385 0.0
H846 H 0.92963 0.15424 0.38758 0.0
H847 H 0.96202 0.17897 0.37587 0.0
H848 H 0.98988 0.1926 0.43735 0.0
H849 H 0.95783 0.16711 0.44903 0.0
H850 H 0.98541 0.22078 0.38599 0.0
H851 H 0.02794 0.18108 0.40725 0.0
H852 H 0.00094 0.16833 0.40702 0.0
H853 H 0.01691 0.18647 0.42826 0.0
C854 C 0.94271 0.16218 0.39857 0.0
C855 C 0.94109 0.15855 0.41925 0.0
C856 C 0.9612 0.17645 0.39187 0.0
C857 C 0.97846 0.1874 0.40567 0.0
C858 C 0.97688 0.184 0.42634 0.0
H859 H 0.10069 0.28833 0.39704 0.0
H860 H 0.06851 0.26225 0.40852 0.0
C861 C 0.95844 0.16962 0.43304 0.0
C862 C 0.99794 0.20292 0.39854 0.0
H863 H 0.04714 0.21602 0.39768 0.0
C864 C 0.99886 0.21965 0.38843 0.0
C865 C 0.01551 0.20144 0.40172 0.0
C866 C 0.01529 0.18325 0.41148 0.0
C867 C 0.01693 0.23511 0.38172 0.0
C868 C 0.03449 0.23372 0.38512 0.0
C869 C 0.03363 0.21704 0.39521 0.0
C870 C 0.05389 0.2494 0.37815 0.0
C871 C 0.01724 0.25302 0.37135 0.0
C872 C 0.05633 0.25058 0.3573 0.0
C873 C 0.07469 0.26534 0.35072 0.0
C874 C 0.09084 0.27917 0.36491 0.0
C875 C 0.08841 0.27791 0.38579 0.0
C876 C 0.0701 0.26303 0.39236 0.0
H877 H 0.00354 0.25407 0.37343 0.0
H878 H 0.03069 0.26825 0.37728 0.0
H879 H 0.01805 0.25058 0.35479 0.0
H880 H 0.04406 0.24 0.34613 0.0
H881 H 0.07622 0.26596 0.33455 0.0
H882 H 0.83065 0.75517 0.43171 0.0
H883 H 0.80492 0.76253 0.41786 0.0
H884 H 0.85117 0.82288 0.40227 0.0
H885 H 0.87708 0.81578 0.41642 0.0
H886 H 0.81937 0.82331 0.42336 0.0
H887 H 0.79051 0.76366 0.3565 0.0
H888 H 0.79215 0.75391 0.38047 0.0
H889 H 0.81472 0.77292 0.37038 0.0
C890 C 0.83535 0.77006 0.42544 0.0
C891 C 0.85589 0.78492 0.42517 0.0
C892 C 0.82064 0.77415 0.41736 0.0
C893 C 0.82618 0.79313 0.40886 0.0
C894 C 0.84663 0.80808 0.40868 0.0
H895 H 0.74689 0.82264 0.33707 0.0
H896 H 0.77433 0.81716 0.34964 0.0
C897 C 0.86138 0.80396 0.41666 0.0
C898 C 0.81055 0.79752 0.40055 0.0
H899 H 0.77147 0.78016 0.36373 0.0
C900 C 0.80895 0.81397 0.41027 0.0
C901 C 0.79713 0.7854 0.38337 0.0
C902 C 0.79874 0.76808 0.37191 0.0
C903 C 0.79393 0.81833 0.4035 0.0
C904 C 0.7801 0.80577 0.38671 0.0
C905 C 0.78201 0.78963 0.37671 0.0
C906 C 0.76354 0.80914 0.37924 0.0
C907 C 0.79307 0.83644 0.41425 0.0
C908 C 0.74829 0.80617 0.39165 0.0
C909 C 0.73261 0.80923 0.38449 0.0
C910 C 0.73193 0.81524 0.36479 0.0
C911 C 0.7471 0.81803 0.35233 0.0
C912 C 0.76274 0.81491 0.35947 0.0
H913 H 0.80746 0.84755 0.42342 0.0
H914 H 0.78957 0.84526 0.40318 0.0
H915 H 0.78099 0.83021 0.42469 0.0
H916 H 0.74846 0.80136 0.40682 0.0
H917 H 0.72106 0.80695 0.39438 0.0
H918 H 0.19076 0.05972 0.39486 0.0
H919 H 0.18381 0.0248 0.38135 0.0
H920 H 0.24527 0.04231 0.39919 0.0
H921 H 0.25214 0.07698 0.41307 0.0
H922 H 0.19951 0.01166 0.35204 0.0
H923 H 0.21499 0.98899 0.42662 0.0
H924 H 0.2126 0.01198 0.4243 0.0
H925 H 0.23582 0.01283 0.41977 0.0
C926 C 0.20279 0.05612 0.39578 0.0
C927 C 0.22192 0.07095 0.40523 0.0
C928 C 0.1988 0.03617 0.38811 0.0
C929 C 0.21389 0.03076 0.38968 0.0
C930 C 0.23323 0.04588 0.39836 0.0
H931 H 0.21954 0.91962 0.34886 0.0
H932 H 0.22721 0.95567 0.35853 0.0
C933 C 0.23715 0.06571 0.40622 0.0
C934 C 0.20941 0.00927 0.38239 0.0
H935 H 0.21069 0.96621 0.39751 0.0
C936 C 0.20188 0.0017 0.36201 0.0
C937 C 0.21239 0.99621 0.39545 0.0
C938 C 0.2192 0.0028 0.41779 0.0
C939 C 0.19757 0.98157 0.35429 0.0
C940 C 0.20091 0.96877 0.36726 0.0
C941 C 0.20837 0.97624 0.38759 0.0
C942 C 0.19617 0.94725 0.36018 0.0
C943 C 0.18962 0.97408 0.3323 0.0
C944 C 0.17618 0.93069 0.35793 0.0
C945 C 0.17173 0.91008 0.35258 0.0
C946 C 0.18722 0.90569 0.34926 0.0
C947 C 0.20724 0.92245 0.35117 0.0
C948 C 0.21167 0.94304 0.35672 0.0
H949 H 0.19009 0.9868 0.3236 0.0
H950 H 0.19849 0.96788 0.32496 0.0
H951 H 0.1738 0.96099 0.33145 0.0
H952 H 0.16404 0.93367 0.36071 0.0
H953 H 0.15615 0.89758 0.35123 0.0
H954 H 0.47671 0.61813 0.28597 0.0
H955 H 0.50443 0.65274 0.30013 0.0
H956 H 0.54711 0.63306 0.28673 0.0
H957 H 0.51954 0.59875 0.27214 0.0
H958 H 0.53417 0.66584 0.33097 0.0
H959 H 0.56763 0.6856 0.2575 0.0
H960 H 0.54305 0.66321 0.2594 0.0
H961 H 0.56531 0.66169 0.26566 0.0
C962 C 0.49201 0.62119 0.28621 0.0
C963 C 0.49604 0.6059 0.27772 0.0
C964 C 0.50782 0.64094 0.29425 0.0
C965 C 0.52788 0.64566 0.29403 0.0
C966 C 0.53181 0.63001 0.28649 0.0
H967 H 0.64333 0.75683 0.33525 0.0
H968 H 0.61573 0.72062 0.32634 0.0
C969 C 0.51606 0.6104 0.27824 0.0
C970 C 0.54469 0.66706 0.30128 0.0
H971 H 0.58689 0.70893 0.28658 0.0
C972 C 0.54565 0.67528 0.32125 0.0
C973 C 0.55963 0.67944 0.28852 0.0
C974 C 0.55879 0.67215 0.26652 0.0
C975 C 0.5613 0.69542 0.32886 0.0
C976 C 0.57631 0.70756 0.31619 0.0
C977 C 0.57541 0.6994 0.29628 0.0
C978 C 0.5927 0.72916 0.323 0.0
C979 C 0.56184 0.70365 0.3504 0.0
C980 C 0.58879 0.74584 0.32403 0.0
C981 C 0.60449 0.76652 0.32892 0.0
C982 C 0.6244 0.77087 0.33296 0.0
C983 C 0.62818 0.75402 0.33233 0.0
C984 C 0.61246 0.73334 0.32722 0.0
H985 H 0.55066 0.69127 0.35914 0.0
H986 H 0.57709 0.71007 0.3584 0.0
H987 H 0.55855 0.71671 0.35017 0.0
H988 H 0.57363 0.74288 0.32063 0.0
H989 H 0.60103 0.7791 0.32932 0.0
H990 H 0.38668 0.89105 0.23773 0.0
H991 H 0.35451 0.88314 0.25015 0.0
H992 H 0.38265 0.90196 0.31165 0.0
H993 H 0.41501 0.91031 0.29932 0.0
H994 H 0.33309 0.85451 0.27964 0.0
H995 H 0.35468 0.93733 0.3033 0.0
H996 H 0.36861 0.93064 0.28627 0.0
H997 H 0.37154 0.92896 0.31311 0.0
C998 C 0.38605 0.89367 0.25388 0.0
C999 C 0.40339 0.90143 0.26755 0.0
C1000 C 0.36766 0.88902 0.26095 0.0
C1001 C 0.36631 0.8922 0.28177 0.0
C1002 C 0.38349 0.89967 0.2955 0.0
H1003 H 0.25725 0.84677 0.34378 0.0
H1004 H 0.28992 0.85436 0.33276 0.0
C1005 C 0.40189 0.90425 0.28845 0.0
C1006 C 0.34685 0.8876 0.28906 0.0
H1007 H 0.32278 0.91072 0.31121 0.0
C1008 C 0.3308 0.86676 0.28657 0.0
C1009 C 0.34395 0.90371 0.29788 0.0
C1010 C 0.36052 0.92647 0.3002 0.0
C1011 C 0.31189 0.86154 0.29287 0.0
C1012 C 0.30909 0.87759 0.302 0.0
C1013 C 0.32508 0.89846 0.30433 0.0
C1014 C 0.28949 0.87309 0.30881 0.0
C1015 C 0.29494 0.83899 0.28937 0.0
C1016 C 0.27868 0.88143 0.29919 0.0
C1017 C 0.26009 0.87715 0.30546 0.0
C1018 C 0.25214 0.86461 0.32155 0.0
C1019 C 0.26307 0.85645 0.33131 0.0
C1020 C 0.28164 0.86069 0.32499 0.0
H1021 H 0.29838 0.82945 0.27848 0.0
H1022 H 0.29236 0.83179 0.30403 0.0
H1023 H 0.28078 0.83822 0.28348 0.0
H1024 H 0.28455 0.89109 0.28671 0.0
H1025 H 0.25192 0.8836 0.29768 0.0
H1026 H 0.08828 0.48453 0.27188 0.0
H1027 H 0.09408 0.45719 0.28459 0.0
H1028 H 0.15455 0.50437 0.30748 0.0
H1029 H 0.14904 0.53179 0.29455 0.0
H1030 H 0.12391 0.44783 0.27363 0.0
H1031 H 0.13176 0.47009 0.35658 0.0
H1032 H 0.12061 0.47939 0.33808 0.0
H1033 H 0.14748 0.4913 0.34205 0.0
C1034 C 0.10285 0.48911 0.27956 0.0
C1035 C 0.1182 0.51039 0.28219 0.0
C1036 C 0.10608 0.47347 0.28691 0.0
C1037 C 0.12465 0.47879 0.2972 0.0
C1038 C 0.13997 0.49998 0.29996 0.0
H1039 H 0.17895 0.40269 0.31665 0.0
H1040 H 0.16986 0.42864 0.30708 0.0
C1041 C 0.13678 0.51563 0.29256 0.0
C1042 C 0.12832 0.46207 0.30417 0.0
H1043 H 0.14096 0.44473 0.34636 0.0
C1044 C 0.12752 0.44707 0.28954 0.0
C1045 C 0.13282 0.46099 0.32496 0.0
C1046 C 0.13306 0.47617 0.34138 0.0
C1047 C 0.13165 0.43136 0.29507 0.0
C1048 C 0.13686 0.43076 0.31577 0.0
C1049 C 0.13711 0.44536 0.33049 0.0
C1050 C 0.14256 0.41533 0.32227 0.0
C1051 C 0.13041 0.41551 0.27876 0.0
C1052 C 0.13041 0.39951 0.33439 0.0
C1053 C 0.13555 0.38456 0.33993 0.0
C1054 C 0.15306 0.38537 0.33363 0.0
C1055 C 0.16539 0.40158 0.32185 0.0
C1056 C 0.16017 0.41639 0.31624 0.0
H1057 H 0.12181 0.41509 0.26452 0.0
H1058 H 0.14583 0.41981 0.27518 0.0
H1059 H 0.1232 0.39948 0.28404 0.0
H1060 H 0.11679 0.39851 0.33926 0.0
H1061 H 0.12575 0.37233 0.34904 0.0
H1062 H 0.40747 0.48461 0.28013 0.0
H1063 H 0.37234 0.45994 0.28546 0.0
H1064 H 0.366 0.51163 0.30994 0.0
H1065 H 0.4012 0.53638 0.30464 0.0
H1066 H 0.35532 0.45439 0.32368 0.0
H1067 H 0.31709 0.47849 0.26635 0.0
H1068 H 0.34295 0.48494 0.26568 0.0
H1069 H 0.33657 0.49958 0.28337 0.0
C1070 C 0.39852 0.49069 0.28652 0.0
C1071 C 0.40694 0.51237 0.29193 0.0
C1072 C 0.3785 0.47662 0.28955 0.0
C1073 C 0.36653 0.484 0.29786 0.0
C1074 C 0.37489 0.50567 0.30318 0.0
H1075 H 0.25648 0.41597 0.35563 0.0
H1076 H 0.29038 0.44057 0.34678 0.0
C1077 C 0.39495 0.51974 0.30025 0.0
C1078 C 0.3456 0.46893 0.30184 0.0
H1079 H 0.29655 0.45457 0.28916 0.0
C1080 C 0.34246 0.45437 0.31609 0.0
C1081 C 0.32888 0.46885 0.29177 0.0
C1082 C 0.33142 0.48367 0.2758 0.0
C1083 C 0.32302 0.43998 0.32085 0.0
C1084 C 0.30634 0.44028 0.3112 0.0
C1085 C 0.30942 0.45453 0.29663 0.0
C1086 C 0.28559 0.42592 0.31619 0.0
C1087 C 0.32043 0.42446 0.33609 0.0
C1088 C 0.27158 0.40985 0.30173 0.0
C1089 C 0.25223 0.39574 0.30677 0.0
C1090 C 0.2466 0.39767 0.32626 0.0
C1091 C 0.26048 0.4141 0.34052 0.0
C1092 C 0.27984 0.4281 0.33552 0.0
H1093 H 0.33418 0.42329 0.33888 0.0
H1094 H 0.31717 0.42963 0.35076 0.0
H1095 H 0.30758 0.40857 0.33079 0.0
H1096 H 0.27575 0.408 0.2867 0.0
H1097 H 0.24175 0.38326 0.29548 0.0
H1098 H 0.51045 0.91828 0.26366 0.0
H1099 H 0.53468 0.906 0.26806 0.0
H1100 H 0.50866 0.87846 0.32253 0.0
H1101 H 0.48425 0.8904 0.31793 0.0
H1102 H 0.56308 0.91622 0.30055 0.0
H1103 H 0.5098 0.83013 0.2908 0.0
H1104 H 0.50273 0.84905 0.28357 0.0
H1105 H 0.50361 0.84381 0.30976 0.0
C1106 C 0.50997 0.90957 0.27653 0.0
C1107 C 0.49573 0.90545 0.2906 0.0
C1108 C 0.52373 0.90255 0.27901 0.0
C1109 C 0.5233 0.8911 0.29548 0.0
C1110 C 0.509 0.88691 0.3095 0.0
H1111 H 0.59643 0.84529 0.34938 0.0
H1112 H 0.5711 0.85495 0.33997 0.0
C1113 C 0.49521 0.89388 0.30699 0.0
C1114 C 0.53835 0.88433 0.2985 0.0
H1115 H 0.54332 0.84126 0.30436 0.0
C1116 C 0.5588 0.89982 0.30118 0.0
C1117 C 0.53268 0.86291 0.29928 0.0
C1118 C 0.51102 0.84549 0.29551 0.0
C1119 C 0.57373 0.89454 0.3053 0.0
C1120 C 0.56802 0.87317 0.30648 0.0
C1121 C 0.5476 0.85764 0.30347 0.0
C1122 C 0.58299 0.86672 0.31159 0.0
C1123 C 0.59541 0.91192 0.30902 0.0
C1124 C 0.59783 0.86984 0.29856 0.0
C1125 C 0.61232 0.86434 0.30391 0.0
C1126 C 0.61209 0.8556 0.32233 0.0
C1127 C 0.59697 0.85208 0.33512 0.0
C1128 C 0.58249 0.85755 0.32976 0.0
H1129 H 0.59684 0.92765 0.31177 0.0
H1130 H 0.60308 0.90926 0.32229 0.0
H1131 H 0.60336 0.91206 0.29548 0.0
H1132 H 0.59825 0.87658 0.28431 0.0
H1133 H 0.62377 0.86708 0.29374 0.0
H1134 H 0.09098 0.60079 0.30461 0.0
H1135 H 0.09991 0.63782 0.30936 0.0
H1136 H 0.16271 0.65704 0.30912 0.0
H1137 H 0.15384 0.61996 0.30448 0.0
H1138 H 0.12712 0.66823 0.34281 0.0
H1139 H 0.15251 0.69182 0.26646 0.0
H1140 H 0.13647 0.66467 0.27121 0.0
H1141 H 0.16282 0.67797 0.27949 0.0
C1142 C 0.10666 0.61293 0.30532 0.0
C1143 C 0.1217 0.60756 0.30371 0.0
C1144 C 0.11174 0.63404 0.30809 0.0
C1145 C 0.13193 0.65013 0.30928 0.0
C1146 C 0.14701 0.64484 0.30785 0.0
H1147 H 0.18986 0.78681 0.32437 0.0
H1148 H 0.18231 0.75036 0.31913 0.0
C1149 C 0.14195 0.62371 0.3052 0.0
C1150 C 0.1372 0.67242 0.31282 0.0
H1151 H 0.15646 0.71867 0.2907 0.0
C1152 C 0.13351 0.67928 0.33143 0.0
C1153 C 0.14566 0.68677 0.29798 0.0
C1154 C 0.14951 0.68001 0.27757 0.0
C1155 C 0.13821 0.70023 0.33571 0.0
C1156 C 0.14634 0.71454 0.32073 0.0
C1157 C 0.15018 0.70768 0.30215 0.0
C1158 C 0.15083 0.73665 0.32397 0.0
C1159 C 0.13483 0.70691 0.35642 0.0
C1160 C 0.13558 0.74108 0.32816 0.0
C1161 C 0.13986 0.7619 0.33132 0.0
C1162 C 0.15944 0.77875 0.33008 0.0
C1163 C 0.17462 0.77425 0.32551 0.0
C1164 C 0.17034 0.75341 0.32248 0.0
H1165 H 0.13432 0.69617 0.36786 0.0
H1166 H 0.14685 0.72319 0.36185 0.0
H1167 H 0.1202 0.70646 0.35546 0.0
H1168 H 0.1203 0.72841 0.32886 0.0
H1169 H 0.12775 0.76475 0.33458 0.0
H1170 H 0.84083 0.06148 0.42179 0.0
H1171 H 0.81424 0.02469 0.41321 0.0
H1172 H 0.81965 0.03321 0.34935 0.0
H1173 H 0.84655 0.06978 0.35791 0.0
H1174 H 0.77786 0.00904 0.3917 0.0
H1175 H 0.82295 0.98021 0.35332 0.0
H1176 H 0.8343 0.00522 0.36845 0.0
H1177 H 0.82391 0.0026 0.34272 0.0
C1178 C 0.83649 0.05533 0.40595 0.0
C1179 C 0.84599 0.06826 0.39051 0.0
C1180 C 0.82128 0.0344 0.40105 0.0
C1181 C 0.81522 0.02607 0.38064 0.0
C1182 C 0.82445 0.03911 0.3652 0.0
H1183 H 0.70258 0.91187 0.33738 0.0
H1184 H 0.72989 0.9483 0.34509 0.0
C1185 C 0.83974 0.06001 0.37009 0.0
C1186 C 0.79882 0.00396 0.37553 0.0
H1187 H 0.78751 0.95715 0.35015 0.0
C1188 C 0.77998 0.99767 0.38267 0.0
C1189 C 0.80167 0.98907 0.36395 0.0
C1190 C 0.82185 0.99452 0.35683 0.0
C1191 C 0.76385 0.97697 0.37835 0.0
C1192 C 0.76652 0.96229 0.36619 0.0
C1193 C 0.78542 0.9685 0.35926 0.0
C1194 C 0.75007 0.94021 0.361 0.0
C1195 C 0.74425 0.97092 0.38724 0.0
C1196 C 0.75257 0.92354 0.3668 0.0
C1197 C 0.73709 0.9027 0.36223 0.0
C1198 C 0.71877 0.8981 0.35171 0.0
C1199 C 0.71642 0.91484 0.34562 0.0
C1200 C 0.73198 0.93569 0.35013 0.0
H1201 H 0.74631 0.98209 0.40038 0.0
H1202 H 0.73356 0.97115 0.37545 0.0
H1203 H 0.73739 0.95481 0.3923 0.0
H1204 H 0.76644 0.92666 0.37512 0.0
H1205 H 0.73945 0.89024 0.36718 0.0
H1206 H 0.93554 0.78803 0.37335 0.0
H1207 H 0.96958 0.79816 0.36463 0.0
H1208 H 0.97955 0.77326 0.41887 0.0
H1209 H 0.9454 0.76286 0.42744 0.0
H1210 H 0.00665 0.82499 0.387 0.0
H1211 H 0.99385 0.74383 0.37388 0.0
H1212 H 0.97348 0.7492 0.37534 0.0
H1213 H 0.98757 0.74975 0.39818 0.0
C1214 C 0.94499 0.78459 0.38327 0.0
C1215 C 0.93781 0.77424 0.40079 0.0
C1216 C 0.96439 0.79042 0.37834 0.0
C1217 C 0.97691 0.78607 0.3909 0.0
C1218 C 0.96994 0.77628 0.40872 0.0
H1219 H 0.09813 0.80774 0.38504 0.0
H1220 H 0.06496 0.79909 0.39535 0.0
C1221 C 0.95053 0.77041 0.41363 0.0
C1222 C 0.99736 0.79203 0.38546 0.0
H1223 H 0.02734 0.77184 0.37358 0.0
C1224 C 0.01118 0.81338 0.384 0.0
C1225 C 0.0032 0.77683 0.38159 0.0
C1226 C 0.98872 0.7536 0.38213 0.0
C1227 C 0.03081 0.81998 0.37903 0.0
C1228 C 0.03662 0.80477 0.3751 0.0
C1229 C 0.02283 0.78344 0.37664 0.0
C1230 C 0.05686 0.8106 0.36911 0.0
C1231 C 0.04529 0.8432 0.37836 0.0
C1232 C 0.06317 0.81978 0.35087 0.0
C1233 C 0.08206 0.82471 0.34497 0.0
C1234 C 0.09485 0.82041 0.35715 0.0
C1235 C 0.08852 0.8112 0.37537 0.0
C1236 C 0.06962 0.80626 0.38127 0.0
H1237 H 0.04027 0.853 0.38673 0.0
H1238 H 0.06059 0.84758 0.38494 0.0
H1239 H 0.04624 0.84698 0.36229 0.0
H1240 H 0.05338 0.82287 0.34108 0.0
H1241 H 0.08659 0.83173 0.33081 0.0
H1242 H 0.25489 0.19166 0.38702 0.0
H1243 H 0.24503 0.2178 0.37983 0.0
H1244 H 0.18253 0.16941 0.37551 0.0
H1245 H 0.19232 0.14315 0.38255 0.0
H1246 H 0.21928 0.21535 0.3437 0.0
H1247 H 0.1883 0.21801 0.41718 0.0
H1248 H 0.20566 0.20847 0.41437 0.0
H1249 H 0.17982 0.19236 0.40444 0.0
C1250 C 0.23905 0.18666 0.38475 0.0
C1251 C 0.22435 0.1655 0.38584 0.0
C1252 C 0.23346 0.20157 0.38059 0.0
C1253 C 0.21307 0.19556 0.37746 0.0
C1254 C 0.19834 0.1744 0.37826 0.0
H1255 H 0.15219 0.26648 0.35604 0.0
H1256 H 0.16045 0.23906 0.36205 0.0
C1257 C 0.20393 0.15945 0.38229 0.0
C1258 C 0.20727 0.21139 0.37279 0.0
H1259 H 0.18518 0.23802 0.39203 0.0
C1260 C 0.21184 0.22036 0.35424 0.0
C1261 C 0.19745 0.21771 0.38654 0.0
C1262 C 0.19259 0.2088 0.40684 0.0
C1263 C 0.20669 0.23542 0.34896 0.0
C1264 C 0.19719 0.24208 0.36288 0.0
C1265 C 0.19249 0.23294 0.38139 0.0
C1266 C 0.19218 0.25865 0.35867 0.0
C1267 C 0.21108 0.24369 0.32834 0.0
C1268 C 0.20729 0.27885 0.35494 0.0
C1269 C 0.2026 0.29453 0.35133 0.0
C1270 C 0.18272 0.29042 0.35166 0.0
C1271 C 0.16765 0.27021 0.35561 0.0
C1272 C 0.17234 0.2545 0.35908 0.0
H1273 H 0.21258 0.23264 0.31744 0.0
H1274 H 0.19907 0.24644 0.32187 0.0
H1275 H 0.22552 0.25886 0.32989 0.0
H1276 H 0.2228 0.28261 0.35509 0.0
H1277 H 0.21464 0.30997 0.34858 0.0
H1278 H 0.62358 0.49746 0.78068 0.0
H1279 H 0.65584 0.52385 0.76983 0.0
H1280 H 0.62798 0.5148 0.70896 0.0
H1281 H 0.59554 0.48873 0.71978 0.0
H1282 H 0.67761 0.51891 0.73883 0.0
H1283 H 0.65632 0.57914 0.72369 0.0
H1284 H 0.64192 0.55737 0.73844 0.0
H1285 H 0.6395 0.55334 0.71116 0.0
C1286 C 0.62427 0.50124 0.76503 0.0
C1287 C 0.60697 0.4911 0.75111 0.0
C1288 C 0.64273 0.51621 0.75884 0.0
C1289 C 0.64423 0.52145 0.73868 0.0
C1290 C 0.62707 0.5112 0.72467 0.0
H1291 H 0.75021 0.58778 0.67413 0.0
H1292 H 0.71843 0.56193 0.68643 0.0
C1293 C 0.6086 0.49617 0.73083 0.0
C1294 C 0.66382 0.53745 0.73225 0.0
H1295 H 0.68781 0.58552 0.71349 0.0
C1296 C 0.67987 0.5335 0.73333 0.0
C1297 C 0.66676 0.55657 0.72534 0.0
C1298 C 0.6503 0.56203 0.72473 0.0
C1299 C 0.69871 0.548 0.72725 0.0
C1300 C 0.70146 0.56681 0.71978 0.0
C1301 C 0.68555 0.57098 0.71909 0.0
C1302 C 0.72076 0.58234 0.71251 0.0
C1303 C 0.71562 0.54323 0.72904 0.0
C1304 C 0.73242 0.60243 0.72298 0.0
C1305 C 0.75055 0.61718 0.71599 0.0
C1306 C 0.75717 0.61212 0.69832 0.0
C1307 C 0.74543 0.59205 0.6878 0.0
C1308 C 0.72735 0.57728 0.69484 0.0
H1309 H 0.71235 0.53036 0.73893 0.0
H1310 H 0.71784 0.53829 0.71371 0.0
H1311 H 0.72991 0.55747 0.73528 0.0
H1312 H 0.72754 0.60662 0.73663 0.0
H1313 H 0.75937 0.63254 0.7244 0.0
H1314 H 0.48887 0.07336 0.75362 0.0
H1315 H 0.46408 0.08296 0.742 0.0
H1316 H 0.51186 0.14536 0.73349 0.0
H1317 H 0.53681 0.13603 0.74559 0.0
H1318 H 0.48056 0.14444 0.75486 0.0
H1319 H 0.45097 0.09146 0.68321 0.0
H1320 H 0.45113 0.07859 0.70549 0.0
H1321 H 0.47452 0.09807 0.6971 0.0
C1322 C 0.49411 0.08915 0.74934 0.0
C1323 C 0.5148 0.10394 0.75051 0.0
C1324 C 0.47993 0.09454 0.74252 0.0
C1325 C 0.48616 0.11477 0.73666 0.0
C1326 C 0.50678 0.12961 0.73784 0.0
H1327 H 0.41069 0.15392 0.67243 0.0
H1328 H 0.43715 0.14632 0.6833 0.0
C1329 C 0.52099 0.12422 0.74461 0.0
C1330 C 0.47111 0.12059 0.72981 0.0
H1331 H 0.4326 0.10789 0.69352 0.0
C1332 C 0.47012 0.13654 0.7414 0.0
C1333 C 0.45768 0.11038 0.71214 0.0
C1334 C 0.45868 0.0938 0.69863 0.0
C1335 C 0.45574 0.14227 0.736 0.0
C1336 C 0.44187 0.13157 0.7187 0.0
C1337 C 0.44314 0.11592 0.70689 0.0
C1338 C 0.42604 0.1365 0.71245 0.0
C1339 C 0.45567 0.15989 0.74869 0.0
C1340 C 0.41096 0.13332 0.72519 0.0
C1341 C 0.39584 0.13765 0.71901 0.0
C1342 C 0.39556 0.14511 0.69996 0.0
C1343 C 0.4106 0.1482 0.6872 0.0
C1344 C 0.42569 0.14386 0.69338 0.0
H1345 H 0.47017 0.16985 0.75816 0.0
H1346 H 0.45271 0.17005 0.73892 0.0
H1347 H 0.44355 0.15308 0.75904 0.0
H1348 H 0.41076 0.12729 0.73981 0.0
H1349 H 0.38436 0.13509 0.72908 0.0
H1350 H 0.91909 0.41018 0.74545 0.0
H1351 H 0.91211 0.3754 0.73173 0.0
H1352 H 0.85046 0.35774 0.71471 0.0
H1353 H 0.85745 0.39263 0.72816 0.0
H1354 H 0.88624 0.33773 0.74411 0.0
H1355 H 0.86508 0.33923 0.66296 0.0
H1356 H 0.87714 0.36263 0.68059 0.0
H1357 H 0.85052 0.34463 0.67999 0.0
C1358 C 0.90407 0.3989 0.73869 0.0
C1359 C 0.88882 0.40413 0.73786 0.0
C1360 C 0.90012 0.37907 0.73081 0.0
C1361 C 0.88083 0.36404 0.72193 0.0
C1362 C 0.86558 0.36924 0.721 0.0
H1363 H 0.82351 0.22959 0.69126 0.0
H1364 H 0.83148 0.26581 0.70014 0.0
C1365 C 0.86957 0.38916 0.72875 0.0
C1366 C 0.87648 0.34257 0.71474 0.0
H1367 H 0.85818 0.3059 0.67352 0.0
C1368 C 0.88025 0.33087 0.72863 0.0
C1369 C 0.86869 0.3336 0.69451 0.0
C1370 C 0.8653 0.34574 0.67859 0.0
C1371 C 0.87612 0.31035 0.72294 0.0
C1372 C 0.86803 0.30132 0.70289 0.0
C1373 C 0.86433 0.31295 0.68892 0.0
C1374 C 0.86315 0.27964 0.69634 0.0
C1375 C 0.88016 0.29824 0.73841 0.0
C1376 C 0.87834 0.27557 0.69105 0.0
C1377 C 0.87387 0.2549 0.68588 0.0
C1378 C 0.85412 0.23795 0.68602 0.0
C1379 C 0.83889 0.24222 0.69102 0.0
C1380 C 0.84337 0.2629 0.69606 0.0
H1381 H 0.88523 0.30698 0.75378 0.0
H1382 H 0.86634 0.28284 0.7394 0.0
H1383 H 0.89196 0.29497 0.7335 0.0
H1384 H 0.89371 0.28837 0.69122 0.0
H1385 H 0.88598 0.25221 0.68218 0.0
H1386 H 0.1604 0.92871 0.63751 0.0
H1387 H 0.18762 0.96285 0.65316 0.0
H1388 H 0.19275 0.98884 0.59539 0.0
H1389 H 0.16558 0.95489 0.5797 0.0
H1390 H 0.22953 0.99787 0.61471 0.0
H1391 H 0.18552 0.01669 0.66715 0.0
H1392 H 0.18383 0.99163 0.66931 0.0
H1393 H 0.17373 0.99629 0.64631 0.0
C1394 C 0.16716 0.94178 0.62821 0.0
C1395 C 0.16084 0.93908 0.60735 0.0
C1396 C 0.18271 0.96127 0.63717 0.0
C1397 C 0.19208 0.97843 0.62547 0.0
C1398 C 0.18574 0.97579 0.60469 0.0
H1399 H 0.26707 0.11129 0.65681 0.0
H1400 H 0.24019 0.07525 0.64682 0.0
C1401 C 0.17026 0.95635 0.59573 0.0
C1402 C 0.20886 0.99907 0.63461 0.0
H1403 H 0.22056 0.04046 0.66942 0.0
C1404 C 0.22762 0.00715 0.62674 0.0
C1405 C 0.20625 0.0112 0.65019 0.0
C1406 C 0.18622 0.00366 0.65867 0.0
C1407 C 0.2438 0.02713 0.63388 0.0
C1408 C 0.24123 0.03921 0.64955 0.0
C1409 C 0.22253 0.03106 0.65754 0.0
C1410 C 0.25738 0.0609 0.65685 0.0
C1411 C 0.26328 0.03543 0.62409 0.0
C1412 C 0.27588 0.0648 0.66619 0.0
C1413 C 0.29138 0.08547 0.67191 0.0
C1414 C 0.28861 0.10261 0.66846 0.0
C1415 C 0.26982 0.09854 0.65966 0.0
C1416 C 0.25437 0.07791 0.65395 0.0
H1417 H 0.26138 0.02621 0.60945 0.0
H1418 H 0.26937 0.05219 0.62124 0.0
H1419 H 0.27454 0.03446 0.63447 0.0
H1420 H 0.27838 0.05186 0.66888 0.0
H1421 H 0.30561 0.088 0.67874 0.0
H1422 H 0.0562 0.19389 0.60199 0.0
H1423 H 0.02502 0.1872 0.61608 0.0
H1424 H 0.0365 0.24866 0.60235 0.0
H1425 H 0.06795 0.2557 0.58873 0.0
H1426 H 0.02459 0.23852 0.64179 0.0
H1427 H 0.97315 0.17512 0.58218 0.0
H1428 H 0.99226 0.17125 0.59457 0.0
H1429 H 0.99935 0.19283 0.57917 0.0
C1430 C 0.05216 0.20604 0.60211 0.0
C1431 C 0.06449 0.22528 0.59413 0.0
C1432 C 0.03426 0.20211 0.60998 0.0
C1433 C 0.02834 0.21732 0.60997 0.0
C1434 C 0.04076 0.23667 0.60235 0.0
H1435 H 0.91155 0.2028 0.62593 0.0
H1436 H 0.94344 0.2094 0.61364 0.0
C1437 C 0.05863 0.2406 0.59445 0.0
C1438 C 0.00926 0.21318 0.618 0.0
H1439 H 0.95826 0.18154 0.61001 0.0
C1440 C 0.01007 0.22606 0.63488 0.0
C1441 C 0.99038 0.19707 0.60876 0.0
C1442 C 0.98861 0.18335 0.59006 0.0
C1443 C 0.99245 0.22316 0.6429 0.0
C1444 C 0.97359 0.20677 0.63392 0.0
C1445 C 0.97277 0.19399 0.61694 0.0
C1446 C 0.95445 0.20294 0.64158 0.0
C1447 C 0.99415 0.23792 0.66063 0.0
C1448 C 0.95003 0.19694 0.6613 0.0
C1449 C 0.93185 0.1932 0.66835 0.0
C1450 C 0.91782 0.19533 0.65575 0.0
C1451 C 0.92219 0.20118 0.63598 0.0
C1452 C 0.94034 0.20489 0.62894 0.0
H1453 H 0.00914 0.2525 0.6626 0.0
H1454 H 0.98238 0.24236 0.65864 0.0
H1455 H 0.99202 0.22991 0.6748 0.0
H1456 H 0.96056 0.19497 0.67116 0.0
H1457 H 0.92875 0.18857 0.68361 0.0
H1458 H 0.75483 0.8173 0.60256 0.0
H1459 H 0.76067 0.79003 0.61534 0.0
H1460 H 0.82023 0.83754 0.64049 0.0
H1461 H 0.81467 0.86494 0.62749 0.0
H1462 H 0.79137 0.7819 0.60504 0.0
H1463 H 0.79613 0.80137 0.6882 0.0
H1464 H 0.78527 0.81092 0.66965 0.0
H1465 H 0.81212 0.8232 0.67445 0.0
C1466 C 0.76921 0.82197 0.61078 0.0
C1467 C 0.78432 0.84333 0.61395 0.0
C1468 C 0.77245 0.80637 0.61817 0.0
C1469 C 0.79078 0.81179 0.62905 0.0
C1470 C 0.80582 0.83307 0.63247 0.0
H1471 H 0.84509 0.73557 0.64852 0.0
H1472 H 0.83628 0.76177 0.6391 0.0
C1473 C 0.80261 0.8487 0.62504 0.0
C1474 C 0.79455 0.79507 0.6358 0.0
H1475 H 0.80584 0.77648 0.67782 0.0
C1476 C 0.79443 0.78064 0.62095 0.0
C1477 C 0.79833 0.79335 0.65659 0.0
C1478 C 0.79782 0.8079 0.67319 0.0
C1479 C 0.79848 0.76484 0.6263 0.0
C1480 C 0.80294 0.76356 0.64702 0.0
C1481 C 0.80256 0.77763 0.66193 0.0
C1482 C 0.80844 0.74795 0.65339 0.0
C1483 C 0.79792 0.74957 0.60974 0.0
C1484 C 0.79589 0.73175 0.66494 0.0
C1485 C 0.80087 0.71667 0.67039 0.0
C1486 C 0.81862 0.71771 0.66456 0.0
C1487 C 0.83132 0.73426 0.65332 0.0
C1488 C 0.82627 0.74922 0.64781 0.0
H1489 H 0.78972 0.74951 0.59535 0.0
H1490 H 0.81353 0.75419 0.60663 0.0
H1491 H 0.79063 0.73333 0.61451 0.0
H1492 H 0.78208 0.73059 0.66945 0.0
H1493 H 0.79078 0.70418 0.67909 0.0
H1494 H 0.07278 0.86145 0.65127 0.0
H1495 H 0.0375 0.83688 0.65625 0.0
H1496 H 0.03074 0.80168 0.59919 0.0
H1497 H 0.06612 0.8261 0.59434 0.0
H1498 H 0.00203 0.82588 0.63161 0.0
H1499 H 0.01193 0.7567 0.6398 0.0
H1500 H 0.03293 0.78328 0.64129 0.0
H1501 H 0.02029 0.76947 0.61699 0.0
C1502 C 0.06374 0.84839 0.63988 0.0
C1503 C 0.07218 0.84529 0.62266 0.0
C1504 C 0.04362 0.83444 0.64268 0.0
C1505 C 0.03163 0.81723 0.62828 0.0
C1506 C 0.03987 0.81456 0.61072 0.0
H1507 H 0.90842 0.71274 0.628 0.0
H1508 H 0.9417 0.73808 0.6181 0.0
C1509 C 0.05999 0.8285 0.60792 0.0
C1510 C 0.01052 0.80208 0.63174 0.0
H1511 H 0.97883 0.75072 0.63963 0.0
C1512 C 0.99694 0.80944 0.63336 0.0
C1513 C 0.00391 0.78063 0.63394 0.0
C1514 C 0.01803 0.77201 0.6331 0.0
C1515 C 0.97688 0.7959 0.63707 0.0
C1516 C 0.97036 0.77453 0.63958 0.0
C1517 C 0.98386 0.7671 0.63766 0.0
C1518 C 0.94985 0.75977 0.64501 0.0
C1519 C 0.96279 0.80452 0.63807 0.0
C1520 C 0.94346 0.76354 0.66345 0.0
C1521 C 0.92452 0.74913 0.66911 0.0
C1522 C 0.91172 0.73062 0.65651 0.0
C1523 C 0.91805 0.72689 0.638 0.0
C1524 C 0.93701 0.74133 0.63234 0.0
H1525 H 0.9683 0.81916 0.63026 0.0
H1526 H 0.94747 0.79278 0.63109 0.0
H1527 H 0.96168 0.80837 0.65423 0.0
H1528 H 0.95328 0.77745 0.67365 0.0
H1529 H 0.92002 0.75233 0.68349 0.0
H1530 H 0.1468 0.21863 0.64466 0.0
H1531 H 0.17218 0.20838 0.65177 0.0
H1532 H 0.19562 0.22874 0.59429 0.0
H1533 H 0.17041 0.23932 0.58732 0.0
H1534 H 0.17973 0.17985 0.62973 0.0
H1535 H 0.24548 0.26109 0.63518 0.0
H1536 H 0.21998 0.25584 0.63558 0.0
H1537 H 0.22931 0.25321 0.61193 0.0
C1538 C 0.15744 0.22097 0.63362 0.0
C1539 C 0.15699 0.2301 0.61563 0.0
C1540 C 0.17186 0.21507 0.63764 0.0
C1541 C 0.18601 0.21818 0.62373 0.0
C1542 C 0.18514 0.22667 0.60544 0.0
H1543 H 0.28807 0.19719 0.62887 0.0
H1544 H 0.26161 0.20481 0.61784 0.0
C1545 C 0.17074 0.23261 0.60143 0.0
C1546 C 0.20168 0.21255 0.62845 0.0
H1547 H 0.25245 0.23336 0.63729 0.0
C1548 C 0.19563 0.19154 0.63139 0.0
C1549 C 0.22241 0.22784 0.63055 0.0
C1550 C 0.22975 0.2508 0.62833 0.0
C1551 C 0.20978 0.18536 0.63629 0.0
C1552 C 0.23049 0.20069 0.63864 0.0
C1553 C 0.23655 0.22165 0.63544 0.0
C1554 C 0.2461 0.19547 0.64504 0.0
C1555 C 0.20247 0.16244 0.63868 0.0
C1556 C 0.24623 0.1879 0.66405 0.0
C1557 C 0.2613 0.18357 0.67036 0.0
C1558 C 0.27655 0.18687 0.65782 0.0
C1559 C 0.27646 0.19452 0.63882 0.0
C1560 C 0.26138 0.19885 0.63251 0.0
H1561 H 0.18709 0.15207 0.631 0.0
H1562 H 0.21276 0.15758 0.63239 0.0
H1563 H 0.20195 0.15996 0.65509 0.0
H1564 H 0.23483 0.1856 0.67413 0.0
H1565 H 0.26108 0.17777 0.68512 0.0
H1566 H 0.81786 0.95106 0.63732 0.0
H1567 H 0.8274 0.98821 0.64397 0.0
H1568 H 0.76478 0.97013 0.6427 0.0
H1569 H 0.75517 0.93306 0.63589 0.0
H1570 H 0.81339 0.0123 0.61906 0.0
H1571 H 0.79284 0.00631 0.69875 0.0
H1572 H 0.79771 0.9874 0.68555 0.0
H1573 H 0.77428 0.98664 0.67993 0.0
C1574 C 0.80616 0.95508 0.63822 0.0
C1575 C 0.78577 0.93925 0.63568 0.0
C1576 C 0.81161 0.97624 0.64207 0.0
C1577 C 0.79678 0.98184 0.64389 0.0
C1578 C 0.77644 0.96608 0.64145 0.0
H1579 H 0.79519 0.09694 0.67314 0.0
H1580 H 0.78741 0.06061 0.66592 0.0
C1581 C 0.77097 0.94496 0.63746 0.0
C1582 C 0.80253 0.00417 0.6484 0.0
H1583 H 0.80194 0.03847 0.68483 0.0
C1584 C 0.81101 0.01811 0.63346 0.0
C1585 C 0.79929 0.01158 0.66717 0.0
C1586 C 0.79067 0.9973 0.68389 0.0
C1587 C 0.81593 0.03925 0.63661 0.0
C1588 C 0.81274 0.04672 0.65544 0.0
C1589 C 0.80438 0.03274 0.67042 0.0
C1590 C 0.81768 0.06888 0.65983 0.0
C1591 C 0.82389 0.05318 0.61951 0.0
C1592 C 0.83736 0.08563 0.65911 0.0
C1593 C 0.84185 0.10646 0.66311 0.0
C1594 C 0.82679 0.11094 0.66819 0.0
C1595 C 0.80717 0.0941 0.6693 0.0
C1596 C 0.80268 0.07329 0.66517 0.0
H1597 H 0.82011 0.04379 0.60455 0.0
H1598 H 0.81777 0.06398 0.61872 0.0
H1599 H 0.84052 0.06284 0.62216 0.0
H1600 H 0.8493 0.08261 0.65555 0.0
H1601 H 0.85715 0.11902 0.66225 0.0
H1602 H 0.51373 0.39952 0.68867 0.0
H1603 H 0.486 0.36316 0.68114 0.0
H1604 H 0.48015 0.35746 0.74534 0.0
H1605 H 0.50757 0.39402 0.75287 0.0
H1606 H 0.48214 0.32619 0.69217 0.0
H1607 H 0.42304 0.3387 0.72305 0.0
H1608 H 0.4474 0.36023 0.71874 0.0
H1609 H 0.4443 0.34648 0.74116 0.0
C1610 C 0.50654 0.39045 0.70115 0.0
C1611 C 0.51284 0.39945 0.72136 0.0
C1612 C 0.49072 0.36972 0.69684 0.0
C1613 C 0.48082 0.35768 0.71265 0.0
C1614 C 0.48729 0.36658 0.73288 0.0
H1615 H 0.40394 0.22176 0.70428 0.0
H1616 H 0.43152 0.25809 0.7107 0.0
C1617 C 0.50304 0.38735 0.73718 0.0
C1618 C 0.46387 0.33577 0.70795 0.0
H1619 H 0.4143 0.30318 0.71433 0.0
C1620 C 0.46728 0.32117 0.69695 0.0
C1621 C 0.44441 0.32932 0.71391 0.0
C1622 C 0.43946 0.34454 0.72469 0.0
C1623 C 0.45187 0.3002 0.69206 0.0
C1624 C 0.43262 0.29355 0.69873 0.0
C1625 C 0.42911 0.30824 0.70941 0.0
C1626 C 0.41587 0.27144 0.69473 0.0
C1627 C 0.45627 0.28548 0.67951 0.0
C1628 C 0.39767 0.26689 0.6841 0.0
C1629 C 0.38175 0.24611 0.68057 0.0
C1630 C 0.38373 0.22947 0.68763 0.0
C1631 C 0.40195 0.23413 0.69841 0.0
C1632 C 0.41781 0.25491 0.70202 0.0
H1633 H 0.46952 0.29426 0.67083 0.0
H1634 H 0.45966 0.27597 0.68976 0.0
H1635 H 0.44315 0.27456 0.66863 0.0
H1636 H 0.39581 0.27942 0.67844 0.0
H1637 H 0.36793 0.24312 0.67225 0.0
H1638 H 0.60057 0.07315 0.74048 0.0
H1639 H 0.6358 0.0849 0.73529 0.0
H1640 H 0.64116 0.13956 0.70873 0.0
H1641 H 0.60589 0.12781 0.71392 0.0
H1642 H 0.65291 0.09256 0.69705 0.0
H1643 H 0.68988 0.16353 0.75267 0.0
H1644 H 0.66413 0.14282 0.75342 0.0
H1645 H 0.67032 0.16189 0.7352 0.0
C1646 C 0.6093 0.08765 0.73353 0.0
C1647 C 0.60057 0.09949 0.72733 0.0
C1648 C 0.62938 0.09436 0.73062 0.0
C1649 C 0.64108 0.11317 0.72179 0.0
C1650 C 0.63243 0.12514 0.71581 0.0
H1651 H 0.751 0.15515 0.66419 0.0
H1652 H 0.71691 0.14437 0.67297 0.0
C1653 C 0.61233 0.11839 0.71863 0.0
C1654 C 0.6621 0.11982 0.71807 0.0
H1655 H 0.71079 0.15899 0.73021 0.0
C1656 C 0.66558 0.10703 0.70436 0.0
C1657 C 0.67856 0.1386 0.72779 0.0
C1658 C 0.67565 0.15246 0.74324 0.0
C1659 C 0.68512 0.11278 0.69973 0.0
C1660 C 0.70153 0.13188 0.70897 0.0
C1661 C 0.69811 0.14444 0.72306 0.0
C1662 C 0.72232 0.13912 0.70398 0.0
C1663 C 0.68811 0.09836 0.68507 0.0
C1664 C 0.73671 0.14016 0.71868 0.0
C1665 C 0.75617 0.14627 0.71369 0.0
C1666 C 0.76151 0.1516 0.69399 0.0
C1667 C 0.74722 0.15103 0.67946 0.0
C1668 C 0.72776 0.14482 0.68442 0.0
H1669 H 0.67465 0.08231 0.68278 0.0
H1670 H 0.69098 0.10494 0.67011 0.0
H1671 H 0.70131 0.09709 0.69058 0.0
H1672 H 0.73277 0.1359 0.73389 0.0
H1673 H 0.76698 0.14668 0.72518 0.0
H1674 H 0.92001 0.52311 0.71733 0.0
H1675 H 0.91072 0.54985 0.71106 0.0
H1676 H 0.8481 0.50337 0.71217 0.0
H1677 H 0.8573 0.4765 0.71829 0.0
H1678 H 0.88268 0.54678 0.67693 0.0
H1679 H 0.85869 0.55454 0.75324 0.0
H1680 H 0.87503 0.54393 0.74909 0.0
H1681 H 0.84861 0.52824 0.74133 0.0
C1682 C 0.90429 0.51868 0.71649 0.0
C1683 C 0.88941 0.49788 0.71883 0.0
C1684 C 0.89901 0.53392 0.71284 0.0
C1685 C 0.87877 0.52863 0.71148 0.0
C1686 C 0.86383 0.50783 0.71357 0.0
H1687 H 0.81923 0.60124 0.69338 0.0
H1688 H 0.82748 0.57388 0.69975 0.0
C1689 C 0.8691 0.49253 0.71708 0.0
C1690 C 0.87327 0.54475 0.70716 0.0
H1691 H 0.85415 0.5737 0.72803 0.0
C1692 C 0.87647 0.55273 0.68808 0.0
C1693 C 0.86506 0.5523 0.72172 0.0
C1694 C 0.86172 0.54448 0.74258 0.0
C1695 C 0.87146 0.56795 0.68305 0.0
C1696 C 0.86355 0.57582 0.69774 0.0
C1697 C 0.86025 0.56771 0.7168 0.0
C1698 C 0.85863 0.59247 0.69366 0.0
C1699 C 0.87424 0.57507 0.66189 0.0
C1700 C 0.87346 0.61214 0.68836 0.0
C1701 C 0.86876 0.62778 0.68454 0.0
C1702 C 0.84918 0.62416 0.68621 0.0
C1703 C 0.83445 0.60456 0.69187 0.0
C1704 C 0.83913 0.58889 0.69555 0.0
H1705 H 0.87461 0.5633 0.65094 0.0
H1706 H 0.86201 0.57789 0.65628 0.0
H1707 H 0.88878 0.59001 0.66214 0.0
H1708 H 0.88874 0.61548 0.68735 0.0
H1709 H 0.88054 0.64276 0.68046 0.0
H1710 H 0.48494 0.95425 0.22826 0.0
H1711 H 0.49523 0.97236 0.19738 0.0
H1712 H 0.43445 0.93522 0.16927 0.0
H1713 H 0.42406 0.9168 0.19993 0.0
H1714 H 0.49182 0.95315 0.15823 0.0
H1715 H 0.44972 0.99623 0.15958 0.0
H1716 H 0.45435 0.98532 0.1817 0.0
H1717 H 0.43467 0.96855 0.16223 0.0
C1718 C 0.47377 0.94989 0.21549 0.0
C1719 C 0.45367 0.93408 0.21656 0.0
C1720 C 0.47965 0.96035 0.19793 0.0
C1721 C 0.46553 0.95534 0.1812 0.0
C1722 C 0.44547 0.93965 0.18221 0.0
H1723 H 0.48231 0.97131 0.05506 0.0
H1724 H 0.47223 0.95904 0.08836 0.0
C1725 C 0.43957 0.92914 0.19974 0.0
C1726 C 0.47203 0.96557 0.16221 0.0
H1727 H 0.46408 0.99509 0.12878 0.0
C1728 C 0.48589 0.96247 0.15187 0.0
C1729 C 0.46437 0.97785 0.15408 0.0
C1730 C 0.45009 0.98239 0.16504 0.0
C1731 C 0.49185 0.97079 0.13326 0.0
C1732 C 0.4836 0.98236 0.12473 0.0
C1733 C 0.47022 0.98605 0.13534 0.0
C1734 C 0.48835 0.99015 0.10449 0.0
C1735 C 0.50685 0.96706 0.12275 0.0
C1736 C 0.50024 0.01177 0.10254 0.0
C1737 C 0.50599 0.01886 0.08347 0.0
C1738 C 0.49978 0.00439 0.06617 0.0
C1739 C 0.48727 0.98282 0.06812 0.0
C1740 C 0.48159 0.97577 0.08713 0.0
H1741 H 0.515 0.96193 0.13325 0.0
H1742 H 0.49881 0.95454 0.11002 0.0
H1743 H 0.51801 0.98156 0.11629 0.0
H1744 H 0.50552 0.02307 0.11582 0.0
H1745 H 0.51561 0.03556 0.08233 0.0
H1746 H 0.11301 0.56405 0.21512 0.0
H1747 H 0.09505 0.55748 0.18145 0.0
H1748 H 0.04748 0.49825 0.19788 0.0
H1749 H 0.0657 0.50453 0.23142 0.0
H1750 H 0.05691 0.49392 0.16048 0.0
H1751 H 0.04692 0.56339 0.16746 0.0
H1752 H 0.07287 0.57056 0.17112 0.0
H1753 H 0.05569 0.55493 0.18884 0.0
C1754 C 0.09866 0.5497 0.21157 0.0
C1755 C 0.09067 0.53486 0.22591 0.0
C1756 C 0.08836 0.54599 0.19236 0.0
C1757 C 0.06969 0.52758 0.18727 0.0
C1758 C 0.06181 0.51262 0.20149 0.0
H1759 H 0.98884 0.5142 0.0828 0.0
H1760 H 0.00446 0.51739 0.11711 0.0
C1761 C 0.07223 0.5162 0.22063 0.0
C1762 C 0.05854 0.52377 0.16699 0.0
H1763 H 0.03993 0.5456 0.13425 0.0
C1764 C 0.05306 0.50515 0.15479 0.0
C1765 C 0.05321 0.53824 0.15969 0.0
C1766 C 0.05728 0.55778 0.17255 0.0
C1767 C 0.04277 0.50081 0.13536 0.0
C1768 C 0.03834 0.51579 0.12766 0.0
C1769 C 0.04349 0.53421 0.14003 0.0
C1770 C 0.02833 0.51274 0.10689 0.0
C1771 C 0.03643 0.48002 0.12348 0.0
C1772 C 0.03659 0.50923 0.0897 0.0
C1773 C 0.02745 0.50706 0.07017 0.0
C1774 C 0.01011 0.50867 0.06747 0.0
C1775 C 0.00209 0.51264 0.08456 0.0
C1776 C 0.01102 0.51449 0.10412 0.0
H1777 H 0.0351 0.46797 0.13371 0.0
H1778 H 0.02179 0.47393 0.1143 0.0
H1779 H 0.04797 0.48219 0.11303 0.0
H1780 H 0.05038 0.50868 0.09133 0.0
H1781 H 0.03447 0.50509 0.05721 0.0
H1782 H 0.47483 0.58201 0.20504 0.0
H1783 H 0.48054 0.57199 0.17125 0.0
H1784 H 0.46946 0.5124 0.19086 0.0
H1785 H 0.46294 0.52211 0.22447 0.0
H1786 H 0.50906 0.56508 0.1615 0.0
H1787 H 0.43639 0.49273 0.13725 0.0
H1788 H 0.43968 0.51023 0.15914 0.0
H1789 H 0.44755 0.49103 0.16107 0.0
C1790 C 0.47337 0.56667 0.202 0.0
C1791 C 0.46843 0.55279 0.21727 0.0
C1792 C 0.47662 0.56095 0.18273 0.0
C1793 C 0.4752 0.54132 0.17838 0.0
C1794 C 0.4701 0.52737 0.19362 0.0
H1795 H 0.53671 0.52017 0.08137 0.0
H1796 H 0.52586 0.52559 0.11416 0.0
C1797 C 0.46651 0.53296 0.21285 0.0
C1798 C 0.48044 0.53625 0.15838 0.0
H1799 H 0.46376 0.49924 0.11763 0.0
C1800 C 0.49907 0.55073 0.15187 0.0
C1801 C 0.46733 0.51766 0.14565 0.0
C1802 C 0.44654 0.50214 0.15102 0.0
C1803 C 0.50504 0.54711 0.13315 0.0
C1804 C 0.49237 0.52806 0.12087 0.0
C1805 C 0.47361 0.51368 0.12721 0.0
C1806 C 0.49819 0.52304 0.10123 0.0
C1807 C 0.52466 0.56404 0.12653 0.0
C1808 C 0.48583 0.51882 0.08315 0.0
C1809 C 0.49184 0.51525 0.06449 0.0
C1810 C 0.51025 0.51583 0.06361 0.0
C1811 C 0.52243 0.51966 0.0817 0.0
C1812 C 0.51631 0.5229 0.10039 0.0
H1813 H 0.52928 0.57974 0.13436 0.0
H1814 H 0.53668 0.56034 0.13049 0.0
H1815 H 0.52359 0.56504 0.10985 0.0
H1816 H 0.47183 0.51892 0.08341 0.0
H1817 H 0.48257 0.51311 0.05075 0.0
H1818 H 0.89787 0.47026 0.80731 0.0
H1819 H 0.91446 0.48124 0.84204 0.0
H1820 H 0.95704 0.46249 0.82553 0.0
H1821 H 0.94083 0.4519 0.79075 0.0
H1822 H 0.91869 0.45488 0.86863 0.0
H1823 H 0.99298 0.52171 0.85498 0.0
H1824 H 0.97121 0.51127 0.83666 0.0
H1825 H 0.98556 0.49816 0.83876 0.0
C1826 C 0.911 0.46885 0.81099 0.0
C1827 C 0.91805 0.46021 0.79629 0.0
C1828 C 0.92038 0.47502 0.83085 0.0
C1829 C 0.93711 0.47291 0.83628 0.0
C1830 C 0.94436 0.4646 0.82157 0.0
H1831 H 0.98567 0.4569 0.94837 0.0
H1832 H 0.96852 0.45399 0.91506 0.0
C1833 C 0.93495 0.45834 0.80176 0.0
C1834 C 0.94625 0.47806 0.8576 0.0
H1835 H 0.99083 0.50733 0.88703 0.0
C1836 C 0.93439 0.46653 0.87271 0.0
C1837 C 0.96667 0.49344 0.86293 0.0
C1838 C 0.97982 0.50702 0.84753 0.0
C1839 C 0.94267 0.46931 0.89285 0.0
C1840 C 0.96336 0.48383 0.89791 0.0
C1841 C 0.975 0.49606 0.88304 0.0
C1842 C 0.9734 0.48567 0.91827 0.0
C1843 C 0.9293 0.45651 0.90852 0.0
C1844 C 0.98214 0.50459 0.93092 0.0
C1845 C 0.99198 0.50628 0.94997 0.0
C1846 C 0.99333 0.48914 0.95649 0.0
C1847 C 0.98477 0.47033 0.9437 0.0
C1848 C 0.97487 0.4686 0.92476 0.0
H1849 H 0.91315 0.45036 0.90365 0.0
H1850 H 0.93141 0.44287 0.91072 0.0
H1851 H 0.93322 0.46605 0.9234 0.0
H1852 H 0.98132 0.51799 0.92607 0.0
H1853 H 0.99879 0.52107 0.95943 0.0
H1854 H 0.548 0.43829 0.81331 0.0
H1855 H 0.53719 0.44535 0.84547 0.0
H1856 H 0.55199 0.50707 0.82897 0.0
H1857 H 0.5633 0.50026 0.79703 0.0
H1858 H 0.56472 0.50885 0.86776 0.0
H1859 H 0.48546 0.44449 0.85309 0.0
H1860 H 0.50289 0.4351 0.85189 0.0
H1861 H 0.50268 0.45231 0.83363 0.0
C1862 C 0.54884 0.45331 0.81653 0.0
C1863 C 0.55638 0.46869 0.80265 0.0
C1864 C 0.54258 0.4573 0.83486 0.0
C1865 C 0.54337 0.47657 0.83945 0.0
C1866 C 0.55116 0.49206 0.82572 0.0
H1867 H 0.47787 0.49462 0.93431 0.0
H1868 H 0.49024 0.4908 0.90187 0.0
C1869 C 0.55765 0.48817 0.8075 0.0
C1870 C 0.53631 0.48072 0.85868 0.0
H1871 H 0.49599 0.46129 0.88682 0.0
C1872 C 0.54964 0.49853 0.87188 0.0
C1873 C 0.51654 0.46745 0.8639 0.0
C1874 C 0.501 0.4489 0.84978 0.0
C1875 C 0.54386 0.50328 0.89031 0.0
C1876 C 0.52437 0.48946 0.89596 0.0
C1877 C 0.51097 0.47181 0.8826 0.0
C1878 C 0.51747 0.49291 0.9156 0.0
C1879 C 0.55861 0.52328 0.90324 0.0
C1880 C 0.52851 0.49521 0.93413 0.0
C1881 C 0.52163 0.49783 0.95257 0.0
C1882 C 0.50343 0.49777 0.95286 0.0
C1883 C 0.4921 0.49496 0.93442 0.0
C1884 C 0.49915 0.49274 0.91594 0.0
H1885 H 0.56962 0.53513 0.89394 0.0
H1886 H 0.55082 0.53038 0.91125 0.0
H1887 H 0.56722 0.51968 0.91477 0.0
H1888 H 0.54223 0.49451 0.9344 0.0
H1889 H 0.53012 0.49896 0.96655 0.0
H1890 H 0.50522 0.04821 0.79255 0.0
H1891 H 0.49873 0.0314 0.82438 0.0
H1892 H 0.56118 0.07104 0.84661 0.0
H1893 H 0.56778 0.08823 0.81496 0.0
H1894 H 0.54206 0.02572 0.85412 0.0
H1895 H 0.50008 0.06534 0.87827 0.0
H1896 H 0.49223 0.05125 0.85337 0.0
H1897 H 0.5168 0.07416 0.85835 0.0
C1898 C 0.51758 0.05337 0.80421 0.0
C1899 C 0.53697 0.06973 0.80133 0.0
C1900 C 0.51386 0.04367 0.82231 0.0
C1901 C 0.52945 0.05016 0.83784 0.0
C1902 C 0.54898 0.06583 0.83474 0.0
H1903 H 0.51964 0.03558 0.96563 0.0
H1904 H 0.52959 0.04794 0.93235 0.0
C1905 C 0.55272 0.07558 0.81663 0.0
C1906 C 0.52509 0.04151 0.85779 0.0
H1907 H 0.50074 0.04091 0.89952 0.0
C1908 C 0.53302 0.02898 0.86408 0.0
C1909 C 0.51348 0.04604 0.87076 0.0
C1910 C 0.50525 0.06006 0.86501 0.0
C1911 C 0.52939 0.02063 0.88303 0.0
C1912 C 0.51752 0.02492 0.89584 0.0
C1913 C 0.50976 0.03758 0.88958 0.0
C1914 C 0.51324 0.01691 0.91607 0.0
C1915 C 0.53855 0.00762 0.88942 0.0
C1916 C 0.50093 0.99531 0.91794 0.0
C1917 C 0.49523 0.98817 0.937 0.0
C1918 C 0.50175 0.00257 0.95439 0.0
C1919 C 0.51452 0.0241 0.95252 0.0
C1920 C 0.52017 0.0312 0.93352 0.0
H1921 H 0.5504 0.00915 0.87964 0.0
H1922 H 0.54517 0.01237 0.90548 0.0
H1923 H 0.52662 0.99079 0.8883 0.0
H1924 H 0.49519 0.98408 0.90458 0.0
H1925 H 0.48533 0.9715 0.93806 0.0
H1926 H 0.10514 0.27833 0.54953 0.0
H1927 H 0.11529 0.29677 0.51873 0.0
H1928 H 0.1304 0.25118 0.49505 0.0
H1929 H 0.12021 0.23261 0.52576 0.0
H1930 H 0.15567 0.31317 0.50428 0.0
H1931 H 0.09312 0.25544 0.44828 0.0
H1932 H 0.09094 0.25623 0.47535 0.0
H1933 H 0.10457 0.24475 0.46461 0.0
C1934 C 0.11039 0.2721 0.53764 0.0
C1935 C 0.11187 0.25402 0.54001 0.0
C1936 C 0.11623 0.28267 0.52013 0.0
C1937 C 0.12338 0.27518 0.5046 0.0
C1938 C 0.12469 0.25703 0.5068 0.0
H1939 H 0.19507 0.33076 0.40685 0.0
H1940 H 0.18094 0.31487 0.4379 0.0
C1941 C 0.11903 0.24656 0.52439 0.0
C1942 C 0.13051 0.28694 0.48655 0.0
H1943 H 0.12128 0.28329 0.43497 0.0
C1944 C 0.1481 0.30674 0.48914 0.0
C1945 C 0.12044 0.27854 0.4669 0.0
C1946 C 0.10112 0.25764 0.46351 0.0
C1947 C 0.15629 0.31809 0.47242 0.0
C1948 C 0.14665 0.30932 0.45268 0.0
C1949 C 0.12867 0.28986 0.45016 0.0
C1950 C 0.1555 0.31973 0.4344 0.0
C1951 C 0.17526 0.3393 0.47592 0.0
C1952 C 0.14584 0.32772 0.42223 0.0
C1953 C 0.15399 0.33698 0.40461 0.0
C1954 C 0.17164 0.33793 0.39871 0.0
C1955 C 0.18143 0.33021 0.41108 0.0
C1956 C 0.17339 0.32114 0.42878 0.0
H1957 H 0.17828 0.34586 0.49208 0.0
H1958 H 0.18821 0.33765 0.47179 0.0
H1959 H 0.1743 0.35068 0.46619 0.0
H1960 H 0.13202 0.32678 0.42639 0.0
H1961 H 0.14642 0.34325 0.39551 0.0
H1962 H 0.73417 0.83592 0.56062 0.0
H1963 H 0.71738 0.82898 0.5262 0.0
H1964 H 0.7624 0.89063 0.51214 0.0
H1965 H 0.77941 0.89762 0.54645 0.0
H1966 H 0.70237 0.85405 0.50786 0.0
H1967 H 0.76007 0.84893 0.46492 0.0
H1968 H 0.75871 0.84598 0.49184 0.0
H1969 H 0.76939 0.8717 0.48294 0.0
C1970 C 0.74059 0.84791 0.55012 0.0
C1971 C 0.75813 0.8673 0.55621 0.0
C1972 C 0.73095 0.84396 0.53053 0.0
C1973 C 0.73881 0.8592 0.5166 0.0
C1974 C 0.75628 0.87857 0.5226 0.0
H1975 H 0.6856 0.87585 0.40661 0.0
H1976 H 0.70166 0.87851 0.4405 0.0
C1977 C 0.76585 0.8826 0.54225 0.0
C1978 C 0.72832 0.85515 0.49601 0.0
H1979 H 0.73373 0.84995 0.44546 0.0
C1980 C 0.70915 0.85303 0.49421 0.0
C1981 C 0.73716 0.85362 0.47829 0.0
C1982 C 0.7574 0.85499 0.47948 0.0
C1983 C 0.69882 0.85003 0.47507 0.0
C1984 C 0.70796 0.84924 0.45734 0.0
C1985 C 0.72686 0.85072 0.45913 0.0
C1986 C 0.69832 0.84751 0.43681 0.0
C1987 C 0.6782 0.84776 0.47391 0.0
C1988 C 0.69134 0.82926 0.42349 0.0
C1989 C 0.68202 0.82765 0.40417 0.0
C1990 C 0.6799 0.8444 0.39782 0.0
C1991 C 0.68701 0.86268 0.41116 0.0
C1992 C 0.69617 0.86423 0.43049 0.0
H1993 H 0.67151 0.84414 0.48866 0.0
H1994 H 0.67939 0.86275 0.4698 0.0
H1995 H 0.66789 0.83513 0.46199 0.0
H1996 H 0.69285 0.81618 0.42816 0.0
H1997 H 0.67626 0.81322 0.39434 0.0
H1998 H 0.10388 0.87341 0.53553 0.0
H1999 H 0.10857 0.86213 0.50169 0.0
H2000 H 0.16981 0.88091 0.52218 0.0
H2001 H 0.16514 0.89181 0.55606 0.0
H2002 H 0.13707 0.88789 0.47592 0.0
H2003 H 0.14751 0.82114 0.49438 0.0
H2004 H 0.13653 0.83202 0.51113 0.0
H2005 H 0.16338 0.8449 0.5106 0.0
C2006 C 0.11824 0.87481 0.5329 0.0
C2007 C 0.13415 0.88351 0.54845 0.0
C2008 C 0.12091 0.86846 0.51356 0.0
C2009 C 0.13945 0.87044 0.50953 0.0
C2010 C 0.15528 0.8789 0.52507 0.0
H2011 H 0.19914 0.88447 0.40192 0.0
H2012 H 0.18585 0.88794 0.43378 0.0
C2013 C 0.15265 0.88534 0.54436 0.0
C2014 C 0.14274 0.86485 0.48879 0.0
H2015 H 0.15805 0.83497 0.46246 0.0
C2016 C 0.1414 0.87613 0.4729 0.0
C2017 C 0.14814 0.84933 0.48484 0.0
C2018 C 0.14879 0.83599 0.50109 0.0
C2019 C 0.14626 0.87298 0.45337 0.0
C2020 C 0.15281 0.85834 0.44974 0.0
C2021 C 0.15321 0.84634 0.46536 0.0
C2022 C 0.16041 0.85616 0.43021 0.0
C2023 C 0.14459 0.88551 0.43681 0.0
C2024 C 0.15072 0.837 0.41788 0.0
C2025 C 0.15834 0.83498 0.39969 0.0
C2026 C 0.17581 0.85205 0.3937 0.0
C2027 C 0.1856 0.8711 0.40619 0.0
C2028 C 0.17795 0.87315 0.42428 0.0
H2029 H 0.13441 0.89163 0.44036 0.0
H2030 H 0.15969 0.89917 0.43529 0.0
H2031 H 0.13896 0.8758 0.42194 0.0
H2032 H 0.13728 0.82365 0.42234 0.0
H2033 H 0.15079 0.82 0.3905 0.0
H2034 H 0.56602 0.7635 0.13982 0.0
H2035 H 0.58315 0.77481 0.17424 0.0
H2036 H 0.62395 0.83604 0.15561 0.0
H2037 H 0.60693 0.82475 0.12099 0.0
H2038 H 0.64249 0.81555 0.17648 0.0
H2039 H 0.5827 0.81711 0.2184 0.0
H2040 H 0.57441 0.79346 0.20196 0.0
H2041 H 0.58311 0.81812 0.19117 0.0
C2042 C 0.5786 0.7794 0.14307 0.0
C2043 C 0.58518 0.79323 0.1277 0.0
C2044 C 0.58824 0.78589 0.16277 0.0
C2045 C 0.60465 0.80632 0.1675 0.0
C2046 C 0.61119 0.82026 0.15227 0.0
H2047 H 0.66617 0.85538 0.29072 0.0
H2048 H 0.65004 0.85262 0.25669 0.0
C2049 C 0.60143 0.81382 0.13256 0.0
C2050 C 0.61568 0.81254 0.18804 0.0
H2051 H 0.60975 0.81762 0.23846 0.0
C2052 C 0.63544 0.81627 0.19002 0.0
C2053 C 0.60648 0.81362 0.20564 0.0
C2054 C 0.58556 0.81056 0.20427 0.0
C2055 C 0.64595 0.82015 0.20924 0.0
C2056 C 0.63639 0.82021 0.22687 0.0
C2057 C 0.61696 0.81741 0.22489 0.0
C2058 C 0.64594 0.82197 0.24748 0.0
C2059 C 0.6671 0.82385 0.21061 0.0
C2060 C 0.64871 0.80555 0.25356 0.0
C2061 C 0.65757 0.80695 0.273 0.0
C2062 C 0.6638 0.82478 0.28671 0.0
C2063 C 0.66109 0.84127 0.2806 0.0
C2064 C 0.65205 0.83979 0.26115 0.0
H2065 H 0.6739 0.82808 0.19596 0.0
H2066 H 0.67683 0.83659 0.22271 0.0
H2067 H 0.66682 0.80924 0.21457 0.0
H2068 H 0.64389 0.79158 0.24328 0.0
H2069 H 0.65945 0.79399 0.27734 0.0
H2070 H 0.21416 0.77578 0.14257 0.0
H2071 H 0.20373 0.78275 0.17499 0.0
H2072 H 0.21591 0.84348 0.15783 0.0
H2073 H 0.22684 0.83677 0.12556 0.0
H2074 H 0.22951 0.84625 0.19658 0.0
H2075 H 0.15117 0.77974 0.1834 0.0
H2076 H 0.16924 0.77124 0.18186 0.0
H2077 H 0.168 0.78795 0.16358 0.0
C2078 C 0.21451 0.79057 0.14569 0.0
C2079 C 0.22116 0.80567 0.13149 0.0
C2080 C 0.20847 0.7945 0.16417 0.0
C2081 C 0.20858 0.81344 0.16866 0.0
C2082 C 0.21559 0.82871 0.15466 0.0
H2083 H 0.14364 0.82903 0.26576 0.0
H2084 H 0.1555 0.82579 0.23281 0.0
C2085 C 0.22186 0.82489 0.13626 0.0
C2086 C 0.20159 0.81739 0.18803 0.0
H2087 H 0.16197 0.79668 0.21711 0.0
C2088 C 0.21469 0.83549 0.20102 0.0
C2089 C 0.18212 0.80356 0.19367 0.0
C2090 C 0.16675 0.78466 0.1798 0.0
C2091 C 0.20903 0.8399 0.21967 0.0
C2092 C 0.18992 0.8255 0.22576 0.0
C2093 C 0.17669 0.80763 0.21257 0.0
C2094 C 0.18328 0.82856 0.24572 0.0
C2095 C 0.22346 0.86015 0.23243 0.0
C2096 C 0.1948 0.83099 0.26395 0.0
C2097 C 0.18816 0.83319 0.28269 0.0
C2098 C 0.16979 0.83268 0.28356 0.0
C2099 C 0.15801 0.82975 0.26542 0.0
C2100 C 0.16477 0.82787 0.24664 0.0
H2101 H 0.23406 0.87219 0.22298 0.0
H2102 H 0.21534 0.86678 0.24059 0.0
H2103 H 0.23253 0.85703 0.24385 0.0
H2104 H 0.2087 0.83069 0.26373 0.0
H2105 H 0.19697 0.83432 0.29645 0.0
H2106 H 0.24009 0.43542 0.15559 0.0
H2107 H 0.2348 0.41926 0.18788 0.0
H2108 H 0.17286 0.3758 0.16617 0.0
H2109 H 0.17809 0.3916 0.13384 0.0
H2110 H 0.20623 0.41647 0.21501 0.0
H2111 H 0.19351 0.33772 0.18807 0.0
H2112 H 0.20549 0.36022 0.17351 0.0
H2113 H 0.17856 0.34574 0.17343 0.0
C2114 C 0.22544 0.42222 0.15761 0.0
C2115 C 0.20949 0.41477 0.14221 0.0
C2116 C 0.22243 0.41308 0.17606 0.0
C2117 C 0.20352 0.3962 0.17927 0.0
C2118 C 0.18765 0.3886 0.16385 0.0
H2119 H 0.14188 0.34872 0.28387 0.0
H2120 H 0.15578 0.36567 0.25322 0.0
C2121 C 0.19061 0.39778 0.14548 0.0
C2122 C 0.1999 0.38718 0.19912 0.0
H2123 H 0.18302 0.34094 0.22086 0.0
C2124 C 0.20141 0.40003 0.21637 0.0
C2125 C 0.19386 0.36581 0.20088 0.0
C2126 C 0.19293 0.35159 0.18304 0.0
C2127 C 0.19608 0.39178 0.23516 0.0
C2128 C 0.18891 0.37012 0.2366 0.0
C2129 C 0.18835 0.35751 0.21962 0.0
C2130 C 0.18081 0.36003 0.25527 0.0
C2131 C 0.19788 0.4062 0.25326 0.0
C2132 C 0.19005 0.35083 0.26627 0.0
C2133 C 0.18208 0.34107 0.28376 0.0
C2134 C 0.16471 0.34026 0.29033 0.0
C2135 C 0.1553 0.34915 0.27909 0.0
C2136 C 0.16331 0.35898 0.26172 0.0
H2137 H 0.20839 0.42299 0.25114 0.0
H2138 H 0.18289 0.40433 0.25529 0.0
H2139 H 0.20319 0.4022 0.26739 0.0
H2140 H 0.20346 0.35132 0.26138 0.0
H2141 H 0.18938 0.33402 0.29205 0.0
H2142 H 0.78654 0.56199 0.85719 0.0
H2143 H 0.79744 0.58029 0.82639 0.0
H2144 H 0.77991 0.62475 0.84736 0.0
H2145 H 0.76906 0.60666 0.87824 0.0
H2146 H 0.7716 0.59326 0.79677 0.0
H2147 H 0.84404 0.65675 0.83705 0.0
H2148 H 0.83072 0.63074 0.84569 0.0
H2149 H 0.82119 0.64836 0.84922 0.0
C2150 C 0.78497 0.57563 0.8552 0.0
C2151 C 0.77701 0.58294 0.87013 0.0
C2152 C 0.79107 0.58596 0.83759 0.0
C2153 C 0.78946 0.60381 0.83473 0.0
C2154 C 0.7812 0.61094 0.84936 0.0
H2155 H 0.81293 0.67548 0.72838 0.0
H2156 H 0.79809 0.65669 0.75806 0.0
C2157 C 0.77496 0.60055 0.86692 0.0
C2158 C 0.79734 0.6156 0.81688 0.0
H2159 H 0.83793 0.65911 0.80232 0.0
C2160 C 0.78605 0.6077 0.79791 0.0
C2161 C 0.81622 0.63432 0.81856 0.0
C2162 C 0.8289 0.64314 0.83867 0.0
C2163 C 0.79325 0.61812 0.78042 0.0
C2164 C 0.81218 0.6369 0.78212 0.0
C2165 C 0.82342 0.64475 0.80113 0.0
C2166 C 0.82096 0.64829 0.76423 0.0
C2167 C 0.78079 0.60878 0.76024 0.0
C2168 C 0.83897 0.65023 0.75825 0.0
C2169 C 0.84737 0.66084 0.74133 0.0
C2170 C 0.83788 0.66968 0.73016 0.0
C2171 C 0.82018 0.66827 0.73648 0.0
C2172 C 0.81174 0.6576 0.75339 0.0
H2173 H 0.76884 0.59211 0.76075 0.0
H2174 H 0.77342 0.61793 0.7562 0.0
H2175 H 0.79039 0.60959 0.74799 0.0
H2176 H 0.84637 0.64327 0.76653 0.0
H2177 H 0.86104 0.66174 0.73675 0.0
H2178 H 0.4392 0.18421 0.87956 0.0
H2179 H 0.42267 0.17785 0.8451 0.0
H2180 H 0.38713 0.20414 0.86618 0.0
H2181 H 0.40333 0.21025 0.90073 0.0
H2182 H 0.36513 0.16452 0.84061 0.0
H2183 H 0.43256 0.22514 0.80719 0.0
H2184 H 0.4359 0.20656 0.82106 0.0
H2185 H 0.43059 0.22492 0.83428 0.0
C2186 C 0.42775 0.18849 0.87689 0.0
C2187 C 0.42262 0.19781 0.89286 0.0
C2188 C 0.41845 0.185 0.85717 0.0
C2189 C 0.40385 0.19074 0.85308 0.0
C2190 C 0.39845 0.1997 0.86902 0.0
H2191 H 0.3528 0.20844 0.74215 0.0
H2192 H 0.36965 0.21129 0.77566 0.0
C2193 C 0.40781 0.2033 0.88871 0.0
C2194 C 0.39416 0.18744 0.83219 0.0
H2195 H 0.40327 0.20439 0.78477 0.0
C2196 C 0.37346 0.17314 0.82835 0.0
C2197 C 0.40508 0.19886 0.81633 0.0
C2198 C 0.42724 0.21487 0.81983 0.0
C2199 C 0.36334 0.16997 0.80902 0.0
C2200 C 0.37428 0.18134 0.79314 0.0
C2201 C 0.39499 0.19561 0.79697 0.0
C2202 C 0.36428 0.17943 0.77272 0.0
C2203 C 0.34096 0.15492 0.80581 0.0
C2204 C 0.35584 0.16061 0.75994 0.0
C2205 C 0.34622 0.15896 0.74078 0.0
C2206 C 0.34496 0.17613 0.73415 0.0
C2207 C 0.3535 0.19495 0.74694 0.0
C2208 C 0.36318 0.19662 0.76602 0.0
H2209 H 0.3342 0.15023 0.82042 0.0
H2210 H 0.33335 0.1621 0.79744 0.0
H2211 H 0.33799 0.14049 0.79651 0.0
H2212 H 0.3567 0.14723 0.76478 0.0
H2213 H 0.33956 0.14422 0.73127 0.0
H2214 H 0.77174 0.20187 0.87433 0.0
H2215 H 0.77669 0.19099 0.84043 0.0
H2216 H 0.83852 0.21193 0.86055 0.0
H2217 H 0.83361 0.22249 0.89448 0.0
H2218 H 0.80491 0.2179 0.8147 0.0
H2219 H 0.81771 0.15245 0.83238 0.0
H2220 H 0.80609 0.16247 0.84922 0.0
H2221 H 0.83297 0.17623 0.84879 0.0
C2222 C 0.78628 0.20381 0.87161 0.0
C2223 C 0.8023 0.21305 0.88705 0.0
C2224 C 0.78911 0.19769 0.85223 0.0
C2225 C 0.8079 0.20044 0.84807 0.0
C2226 C 0.82381 0.20936 0.86354 0.0
H2227 H 0.86715 0.2166 0.7396 0.0
H2228 H 0.85425 0.21957 0.7719 0.0
C2229 C 0.82104 0.21557 0.88285 0.0
C2230 C 0.81136 0.19527 0.82726 0.0
H2231 H 0.82765 0.16656 0.80047 0.0
C2232 C 0.80964 0.20649 0.81152 0.0
C2233 C 0.81731 0.18021 0.82311 0.0
C2234 C 0.81846 0.16698 0.83921 0.0
C2235 C 0.81459 0.20373 0.79192 0.0
C2236 C 0.8216 0.18952 0.78807 0.0
C2237 C 0.82245 0.17759 0.80355 0.0
C2238 C 0.82908 0.18763 0.76837 0.0
C2239 C 0.81249 0.21618 0.77552 0.0
C2240 C 0.81942 0.16855 0.75592 0.0
C2241 C 0.82681 0.16682 0.73748 0.0
C2242 C 0.84402 0.1841 0.73135 0.0
C2243 C 0.85382 0.20307 0.74397 0.0
C2244 C 0.84639 0.20482 0.76232 0.0
H2245 H 0.80218 0.22208 0.77931 0.0
H2246 H 0.82746 0.22999 0.77386 0.0
H2247 H 0.80678 0.20649 0.76065 0.0
H2248 H 0.80615 0.15505 0.76044 0.0
H2249 H 0.81921 0.15193 0.72814 0.0
H2250 H 0.23066 0.0959 0.47661 0.0
H2251 H 0.2479 0.10711 0.51098 0.0
H2252 H 0.28833 0.16856 0.49256 0.0
H2253 H 0.27117 0.15738 0.45799 0.0
H2254 H 0.307 0.14775 0.51322 0.0
H2255 H 0.24734 0.14947 0.5553 0.0
H2256 H 0.23902 0.12595 0.53863 0.0
H2257 H 0.24785 0.15075 0.5281 0.0
C2258 C 0.24319 0.11182 0.47989 0.0
C2259 C 0.24962 0.12576 0.46461 0.0
C2260 C 0.25289 0.11825 0.49956 0.0
C2261 C 0.26922 0.13872 0.50433 0.0
C2262 C 0.27563 0.15275 0.48918 0.0
H2263 H 0.33135 0.18746 0.62733 0.0
H2264 H 0.31524 0.18495 0.59334 0.0
C2265 C 0.2658 0.14637 0.4695 0.0
C2266 C 0.28026 0.1449 0.52484 0.0
H2267 H 0.2744 0.14995 0.57527 0.0
C2268 C 0.29999 0.14851 0.52677 0.0
C2269 C 0.2711 0.14601 0.54245 0.0
C2270 C 0.25022 0.14303 0.5411 0.0
C2271 C 0.31049 0.1523 0.54598 0.0
C2272 C 0.30096 0.15239 0.56362 0.0
C2273 C 0.28158 0.14972 0.56168 0.0
C2274 C 0.31047 0.15401 0.58418 0.0
C2275 C 0.33157 0.15582 0.54733 0.0
C2276 C 0.31284 0.13734 0.59026 0.0
C2277 C 0.32167 0.1386 0.60968 0.0
C2278 C 0.32826 0.15654 0.62335 0.0
C2279 C 0.32597 0.17328 0.61723 0.0
C2280 C 0.31695 0.17193 0.59782 0.0
H2281 H 0.33834 0.15989 0.53265 0.0
H2282 H 0.34138 0.16861 0.55935 0.0
H2283 H 0.33119 0.14119 0.55141 0.0
H2284 H 0.30774 0.1233 0.58 0.0
H2285 H 0.32323 0.12546 0.61402 0.0
H2286 H 0.86068 0.12822 0.46099 0.0
H2287 H 0.85124 0.13581 0.49374 0.0
H2288 H 0.91156 0.15872 0.52083 0.0
H2289 H 0.92101 0.15063 0.48823 0.0
H2290 H 0.88172 0.13095 0.5439 0.0
H2291 H 0.867 0.19392 0.5214 0.0
H2292 H 0.85366 0.17 0.50481 0.0
H2293 H 0.88068 0.18491 0.50651 0.0
C2294 C 0.87192 0.13478 0.47393 0.0
C2295 C 0.89161 0.13885 0.47199 0.0
C2296 C 0.86656 0.13933 0.49258 0.0
C2297 C 0.88079 0.14814 0.50962 0.0
C2298 C 0.90041 0.1521 0.5078 0.0
H2299 H 0.86119 0.19713 0.6244 0.0
H2300 H 0.87537 0.19343 0.59309 0.0
C2301 C 0.9058 0.14758 0.48915 0.0
C2302 C 0.87496 0.15255 0.52948 0.0
H2303 H 0.8555 0.18 0.5529 0.0
C2304 C 0.87613 0.14178 0.54592 0.0
C2305 C 0.86796 0.16693 0.53215 0.0
C2306 C 0.86741 0.17977 0.51535 0.0
C2307 C 0.8698 0.14448 0.56479 0.0
C2308 C 0.86189 0.15807 0.56715 0.0
C2309 C 0.86138 0.1694 0.55094 0.0
C2310 C 0.85356 0.16031 0.58616 0.0
C2311 C 0.87166 0.13278 0.58208 0.0
C2312 C 0.83648 0.143 0.59241 0.0
C2313 C 0.82845 0.14508 0.61024 0.0
C2314 C 0.83741 0.16449 0.62211 0.0
C2315 C 0.85429 0.1819 0.61568 0.0
C2316 C 0.8623 0.17984 0.59779 0.0
H2317 H 0.88256 0.12737 0.57949 0.0
H2318 H 0.8765 0.14285 0.59673 0.0
H2319 H 0.85679 0.11871 0.58344 0.0
H2320 H 0.8293 0.1279 0.58343 0.0
H2321 H 0.81537 0.13144 0.61486 0.0
H2322 H 0.88761 0.73284 0.46878 0.0
H2323 H 0.8804 0.7148 0.5 0.0
H2324 H 0.86583 0.75966 0.52683 0.0
H2325 H 0.87322 0.77792 0.4958 0.0
H2326 H 0.89137 0.74811 0.5531 0.0
H2327 H 0.82024 0.68049 0.51514 0.0
H2328 H 0.84276 0.6886 0.50253 0.0
H2329 H 0.83265 0.70583 0.50505 0.0
C2330 C 0.88318 0.73905 0.48146 0.0
C2331 C 0.88083 0.7567 0.47982 0.0
C2332 C 0.87898 0.72868 0.4992 0.0
C2333 C 0.87246 0.73585 0.51558 0.0
C2334 C 0.87083 0.7539 0.5143 0.0
H2335 H 0.80553 0.67872 0.61536 0.0
H2336 H 0.81923 0.6962 0.58487 0.0
C2337 C 0.8749 0.7642 0.49654 0.0
C2338 C 0.86618 0.7239 0.53362 0.0
H2339 H 0.82823 0.67907 0.54963 0.0
C2340 C 0.87768 0.73293 0.55238 0.0
C2341 C 0.84821 0.70422 0.53254 0.0
C2342 C 0.8351 0.69416 0.5128 0.0
C2343 C 0.87153 0.72281 0.57021 0.0
C2344 C 0.85347 0.70319 0.56912 0.0
C2345 C 0.84212 0.69408 0.55032 0.0
C2346 C 0.84538 0.69244 0.5875 0.0
C2347 C 0.88401 0.73342 0.59018 0.0
C2348 C 0.85541 0.68427 0.59884 0.0
C2349 C 0.84752 0.67416 0.61619 0.0
C2350 C 0.82959 0.6722 0.62243 0.0
C2351 C 0.81939 0.68002 0.61084 0.0
C2352 C 0.82722 0.69006 0.5935 0.0
H2353 H 0.89555 0.75011 0.58898 0.0
H2354 H 0.87427 0.73286 0.60219 0.0
H2355 H 0.89184 0.72496 0.59507 0.0
H2356 H 0.86924 0.6856 0.59421 0.0
H2357 H 0.85534 0.66774 0.62464 0.0
loop_
_geom_bond_atom_site_label_1
_geom_bond_atom_site_label_2
_geom_bond_distance
_geom_bond_site_symmetry_2
_ccdc_geom_bond_type
H0 C7 0.929 . S
H1 C10 0.930 . S
H2 C12 0.929 . S
H3 C4 0.969 . S
C4 H3 0.969 . S
C4 O5 1.550 . S
C4 H6 0.973 . S
O5 C4 1.550 . S
O5 C11 1.412 . S
H6 C4 0.973 . S
C7 H0 0.929 . S
C7 C8 1.400 . S
C7 C9 1.364 . S
C8 C7 1.400 . S
C8 C12 1.377 . S
C9 C7 1.364 . S
C9 C10 1.374 . S
C10 H1 0.930 . S
C10 C9 1.374 . S
C10 C11 1.383 . S
C11 O5 1.412 . S
C11 C10 1.383 . S
C11 C12 1.394 . S
C12 H2 0.929 . S
C12 C8 1.377 . S
C12 C11 1.394 . S
H13 C20 0.929 . S
H14 C23 0.930 . S
H15 C25 0.929 . S
H16 C17 0.969 . S
C17 H16 0.969 . S
C17 O18 1.550 . S
C17 H19 0.973 . S
O18 C17 1.550 . S
O18 C24 1.412 . S
H19 C17 0.973 . S
C20 H13 0.929 . S
C20 C21 1.400 . S
C20 C22 1.364 . S
C21 C20 1.400 . S
C21 C25 1.377 . S
C22 C20 1.364 . S
C22 C23 1.374 . S
C23 H14 0.930 . S
C23 C22 1.374 . S
C23 C24 1.383 . S
C24 O18 1.412 . S
C24 C23 1.383 . S
C24 C25 1.394 . S
C25 H15 0.929 . S
C25 C21 1.377 . S
C25 C24 1.394 . S
H26 C33 0.929 . S
H27 C36 0.930 . S
H28 C38 0.929 . S
H29 C30 0.969 . S
C30 H29 0.969 . S
C30 O31 1.550 . S
C30 H32 0.973 . S
O31 C30 1.550 . S
O31 C37 1.412 . S
H32 C30 0.973 . S
C33 H26 0.929 . S
C33 C34 1.400 . S
C33 C35 1.364 . S
C34 C33 1.400 . S
C34 C38 1.377 . S
C35 C33 1.364 . S
C35 C36 1.374 . S
C36 H27 0.930 . S
C36 C35 1.374 . S
C36 C37 1.383 . S
C37 O31 1.412 . S
C37 C36 1.383 . S
C37 C38 1.394 . S
C38 H28 0.929 . S
C38 C34 1.377 . S
C38 C37 1.394 . S
H39 C46 0.929 . S
H40 C49 0.930 . S
H41 C51 0.929 . S
H42 C43 0.969 . S
C43 H42 0.969 . S
C43 O44 1.550 . S
C43 H45 0.973 . S
O44 C43 1.550 . S
O44 C50 1.412 . S
H45 C43 0.973 . S
C46 H39 0.929 . S
C46 C47 1.400 . S
C46 C48 1.364 . S
C47 C46 1.400 . S
C47 C51 1.377 . S
C48 C46 1.364 . S
C48 C49 1.374 . S
C49 H40 0.930 . S
C49 C48 1.374 . S
C49 C50 1.383 . S
C50 O44 1.412 . S
C50 C49 1.383 . S
C50 C51 1.394 . S
C51 H41 0.929 . S
C51 C47 1.377 . S
C51 C50 1.394 . S
H52 C59 0.929 . S
H53 C62 0.930 . S
H54 C64 0.929 . S
H55 C56 0.969 . S
C56 H55 0.969 . S
C56 O57 1.550 . S
C56 H58 0.973 . S
O57 C56 1.550 . S
O57 C63 1.412 . S
H58 C56 0.973 . S
C59 H52 0.929 . S
C59 C60 1.400 . S
C59 C61 1.364 . S
C60 C59 1.400 . S
C60 C64 1.377 . S
C61 C59 1.364 . S
C61 C62 1.374 . S
C62 H53 0.930 . S
C62 C61 1.374 . S
C62 C63 1.383 . S
C63 O57 1.412 . S
C63 C62 1.383 . S
C63 C64 1.394 . S
C64 H54 0.929 . S
C64 C60 1.377 . S
C64 C63 1.394 . S
H65 C72 0.929 . S
H66 C75 0.930 . S
H67 C77 0.929 . S
H68 C69 0.969 . S
C69 H68 0.969 . S
C69 O70 1.550 . S
C69 H71 0.973 . S
O70 C69 1.550 . S
O70 C76 1.412 . S
H71 C69 0.973 . S
C72 H65 0.929 . S
C72 C73 1.400 . S
C72 C74 1.364 . S
C73 C72 1.400 . S
C73 C77 1.377 . S
C74 C72 1.364 . S
C74 C75 1.374 . S
C75 H66 0.930 . S
C75 C74 1.374 . S
C75 C76 1.383 . S
C76 O70 1.412 . S
C76 C75 1.383 . S
C76 C77 1.394 . S
C77 H67 0.929 . S
C77 C73 1.377 . S
C77 C76 1.394 . S
H78 C85 0.929 . S
H79 C88 0.930 . S
H80 C90 0.929 . S
H81 C82 0.969 . S
C82 H81 0.969 . S
C82 O83 1.550 . S
C82 H84 0.973 . S
O83 C82 1.550 . S
O83 C89 1.412 . S
H84 C82 0.973 . S
C85 H78 0.929 . S
C85 C86 1.400 . S
C85 C87 1.364 . S
C86 C85 1.400 . S
C86 C90 1.377 . S
C87 C85 1.364 . S
C87 C88 1.374 . S
C88 H79 0.930 . S
C88 C87 1.374 . S
C88 C89 1.383 . S
C89 O83 1.412 . S
C89 C88 1.383 . S
C89 C90 1.394 . S
C90 H80 0.929 . S
C90 C86 1.377 . S
C90 C89 1.394 . S
H91 C98 0.929 . S
H92 C101 0.930 . S
H93 C103 0.929 . S
H94 C95 0.969 . S
C95 H94 0.969 . S
C95 O96 1.550 . S
C95 H97 0.973 . S
O96 C95 1.550 . S
O96 C102 1.412 . S
H97 C95 0.973 . S
C98 H91 0.929 . S
C98 C99 1.400 . S
C98 C100 1.364 . S
C99 C98 1.400 . S
C99 C103 1.377 . S
C100 C98 1.364 . S
C100 C101 1.374 . S
C101 H92 0.930 . S
C101 C100 1.374 . S
C101 C102 1.383 . S
C102 O96 1.412 . S
C102 C101 1.383 . S
C102 C103 1.394 . S
C103 H93 0.929 . S
C103 C99 1.377 . S
C103 C102 1.394 . S
H104 C111 0.929 . S
H105 C114 0.930 . S
H106 C116 0.929 . S
H107 C108 0.969 . S
C108 H107 0.969 . S
C108 O109 1.550 . S
C108 H110 0.973 . S
O109 C108 1.550 . S
O109 C115 1.412 . S
H110 C108 0.973 . S
C111 H104 0.929 . S
C111 C112 1.400 . S
C111 C113 1.364 . S
C112 C111 1.400 . S
C112 C116 1.377 . S
C113 C111 1.364 . S
C113 C114 1.374 . S
C114 H105 0.930 . S
C114 C113 1.374 . S
C114 C115 1.383 . S
C115 O109 1.412 . S
C115 C114 1.383 . S
C115 C116 1.394 . S
C116 H106 0.929 . S
C116 C112 1.377 . S
C116 C115 1.394 . S
H117 C124 0.929 . S
H118 C127 0.930 . S
H119 C129 0.929 . S
H120 C121 0.969 . S
C121 H120 0.969 . S
C121 O122 1.550 . S
C121 H123 0.973 . S
O122 C121 1.550 . S
O122 C128 1.412 . S
H123 C121 0.973 . S
C124 H117 0.929 . S
C124 C125 1.400 . S
C124 C126 1.364 . S
C125 C124 1.400 . S
C125 C129 1.377 . S
C126 C124 1.364 . S
C126 C127 1.374 . S
C127 H118 0.930 . S
C127 C126 1.374 . S
C127 C128 1.383 . S
C128 O122 1.412 . S
C128 C127 1.383 . S
C128 C129 1.394 . S
C129 H119 0.929 . S
C129 C125 1.377 . S
C129 C128 1.394 . S
H130 C137 0.929 . S
H131 C140 0.930 . S
H132 C142 0.929 . S
H133 C134 0.969 . S
C134 H133 0.969 . S
C134 O135 1.550 . S
C134 H136 0.973 . S
O135 C134 1.550 . S
O135 C141 1.412 . S
H136 C134 0.973 . S
C137 H130 0.929 . S
C137 C138 1.400 . S
C137 C139 1.364 . S
C138 C137 1.400 . S
C138 C142 1.377 . S
C139 C137 1.364 . S
C139 C140 1.374 . S
C140 H131 0.930 . S
C140 C139 1.374 . S
C140 C141 1.383 . S
C141 O135 1.412 . S
C141 C140 1.383 . S
C141 C142 1.394 . S
C142 H132 0.929 . S
C142 C138 1.377 . S
C142 C141 1.394 . S
H143 C150 0.929 . S
H144 C153 0.930 . S
H145 C155 0.929 . S
H146 C147 0.969 . S
C147 H146 0.969 . S
C147 O148 1.550 . S
C147 H149 0.973 . S
O148 C147 1.550 . S
O148 C154 1.412 . S
H149 C147 0.973 . S
C150 H143 0.929 . S
C150 C151 1.400 . S
C150 C152 1.364 . S
C151 C150 1.400 . S
C151 C155 1.377 . S
C152 C150 1.364 . S
C152 C153 1.374 . S
C153 H144 0.930 . S
C153 C152 1.374 . S
C153 C154 1.383 . S
C154 O148 1.412 . S
C154 C153 1.383 . S
C154 C155 1.394 . S
C155 H145 0.929 . S
C155 C151 1.377 . S
C155 C154 1.394 . S
H156 C163 0.929 . S
H157 C166 0.930 . S
H158 C168 0.929 . S
H159 C160 0.969 . S
C160 H159 0.969 . S
C160 O161 1.550 . S
C160 H162 0.973 . S
O161 C160 1.550 . S
O161 C167 1.412 . S
H162 C160 0.973 . S
C163 H156 0.929 . S
C163 C164 1.400 . S
C163 C165 1.364 . S
C164 C163 1.400 . S
C164 C168 1.377 . S
C165 C163 1.364 . S
C165 C166 1.374 . S
C166 H157 0.930 . S
C166 C165 1.374 . S
C166 C167 1.383 . S
C167 O161 1.412 . S
C167 C166 1.383 . S
C167 C168 1.394 . S
C168 H158 0.929 . S
C168 C164 1.377 . S
C168 C167 1.394 . S
H169 C176 0.929 . S
H170 C179 0.930 . S
H171 C181 0.929 . S
H172 C173 0.969 . S
C173 H172 0.969 . S
C173 O174 1.550 . S
C173 H175 0.973 . S
O174 C173 1.550 . S
O174 C180 1.412 . S
H175 C173 0.973 . S
C176 H169 0.929 . S
C176 C177 1.400 . S
C176 C178 1.364 . S
C177 C176 1.400 . S
C177 C181 1.377 . S
C178 C176 1.364 . S
C178 C179 1.374 . S
C179 H170 0.930 . S
C179 C178 1.374 . S
C179 C180 1.383 . S
C180 O174 1.412 . S
C180 C179 1.383 . S
C180 C181 1.394 . S
C181 H171 0.929 . S
C181 C177 1.377 . S
C181 C180 1.394 . S
H182 C189 0.929 . S
H183 C192 0.930 . S
H184 C194 0.929 . S
H185 C186 0.969 . S
C186 H185 0.969 . S
C186 O187 1.550 . S
C186 H188 0.973 . S
O187 C186 1.550 . S
O187 C193 1.412 . S
H188 C186 0.973 . S
C189 H182 0.929 . S
C189 C190 1.400 . S
C189 C191 1.364 . S
C190 C189 1.400 . S
C190 C194 1.377 . S
C191 C189 1.364 . S
C191 C192 1.374 . S
C192 H183 0.930 . S
C192 C191 1.374 . S
C192 C193 1.383 . S
C193 O187 1.412 . S
C193 C192 1.383 . S
C193 C194 1.394 . S
C194 H184 0.929 . S
C194 C190 1.377 . S
C194 C193 1.394 . S
H195 C202 0.929 . S
H196 C205 0.930 . S
H197 C207 0.929 . S
H198 C199 0.969 . S
C199 H198 0.969 . S
C199 O200 1.550 . S
C199 H201 0.973 . S
O200 C199 1.550 . S
O200 C206 1.412 . S
H201 C199 0.973 . S
C202 H195 0.929 . S
C202 C203 1.400 . S
C202 C204 1.364 . S
C203 C202 1.400 . S
C203 C207 1.377 . S
C204 C202 1.364 . S
C204 C205 1.374 . S
C205 H196 0.930 . S
C205 C204 1.374 . S
C205 C206 1.383 . S
C206 O200 1.412 . S
C206 C205 1.383 . S
C206 C207 1.394 . S
C207 H197 0.929 . S
C207 C203 1.377 . S
C207 C206 1.394 . S
H208 C215 0.929 . S
H209 C218 0.930 . S
H210 C220 0.929 . S
H211 C212 0.969 . S
C212 H211 0.969 . S
C212 O213 1.550 . S
C212 H214 0.973 . S
O213 C212 1.550 . S
O213 C219 1.412 . S
H214 C212 0.973 . S
C215 H208 0.929 . S
C215 C216 1.400 . S
C215 C217 1.364 . S
C216 C215 1.400 . S
C216 C220 1.377 . S
C217 C215 1.364 . S
C217 C218 1.374 . S
C218 H209 0.930 . S
C218 C217 1.374 . S
C218 C219 1.383 . S
C219 O213 1.412 . S
C219 C218 1.383 . S
C219 C220 1.394 . S
C220 H210 0.929 . S
C220 C216 1.377 . S
C220 C219 1.394 . S
H221 C228 0.929 . S
H222 C231 0.930 . S
H223 C233 0.929 . S
H224 C225 0.969 . S
C225 H224 0.969 . S
C225 O226 1.550 . S
C225 H227 0.973 . S
O226 C225 1.550 . S
O226 C232 1.412 . S
H227 C225 0.973 . S
C228 H221 0.929 . S
C228 C229 1.400 . S
C228 C230 1.364 . S
C229 C228 1.400 . S
C229 C233 1.377 . S
C230 C228 1.364 . S
C230 C231 1.374 . S
C231 H222 0.930 . S
C231 C230 1.374 . S
C231 C232 1.383 . S
C232 O226 1.412 . S
C232 C231 1.383 . S
C232 C233 1.394 . S
C233 H223 0.929 . S
C233 C229 1.377 . S
C233 C232 1.394 . S
Tb234 O237 2.453 . S
Tb234 O238 2.596 1_545 S
Tb234 O239 2.374 1_545 S
Tb234 O247 2.343 1_554 S
Tb234 O249 2.353 . S
Tb234 O251 2.427 . S
Tb234 O252 2.532 . S
C235 O239 1.251 . S
C235 O241 1.235 1_554 S
Tb236 O238 2.343 1_556 S
Tb236 O241 2.360 . S
Tb236 O244 2.427 1_556 S
Tb236 O245 2.513 1_556 S
Tb236 O246 2.453 . S
Tb236 O247 2.596 1_565 S
Tb236 O248 2.372 1_566 S
O237 Tb234 2.453 . S
O237 C253 1.245 1_545 S
O238 Tb234 2.596 1_565 S
O238 Tb236 2.343 1_554 S
O238 C253 1.259 . S
O239 Tb234 2.374 1_565 S
O239 C235 1.251 . S
C240 O244 1.275 . S
C240 O245 1.246 . S
O241 C235 1.235 1_556 S
O241 Tb236 2.360 . S
C242 O246 1.245 1_545 S
C242 O247 1.259 . S
C243 O248 1.254 . S
C243 O249 1.263 . S
O244 Tb236 2.427 1_554 S
O244 C240 1.275 . S
O245 Tb236 2.513 1_554 S
O245 C240 1.246 . S
O246 Tb236 2.453 . S
O246 C242 1.245 1_565 S
O247 Tb234 2.343 1_556 S
O247 Tb236 2.596 1_545 S
O247 C242 1.259 . S
O248 Tb236 2.372 1_544 S
O248 C243 1.254 . S
O249 Tb234 2.353 . S
O249 C243 1.263 . S
C250 O251 1.275 1_556 S
C250 O252 1.240 1_556 S
O251 Tb234 2.427 . S
O251 C250 1.275 1_554 S
O252 Tb234 2.532 . S
O252 C250 1.240 1_554 S
C253 O237 1.245 1_565 S
C253 O238 1.259 . S
Tb254 O257 2.453 . S
Tb254 O258 2.596 1_655 S
Tb254 O259 2.374 1_655 S
Tb254 O267 2.343 1_554 S
Tb254 O269 2.353 . S
Tb254 O271 2.427 1_554 S
Tb254 O272 2.513 1_554 S
C255 O259 1.251 . S
C255 O261 1.263 . S
Tb256 O258 2.343 1_556 S
Tb256 O261 2.353 1_556 S
Tb256 O264 2.427 1_556 S
Tb256 O265 2.513 1_556 S
Tb256 O266 2.453 . S
Tb256 O267 2.596 1_455 S
Tb256 O268 2.383 1_455 S
O257 Tb254 2.453 . S
O257 C273 1.245 1_655 S
O258 Tb254 2.596 1_455 S
O258 Tb256 2.343 1_554 S
O258 C273 1.259 . S
O259 Tb254 2.374 1_455 S
O259 C255 1.251 . S
C260 O264 1.275 . S
C260 O265 1.246 . S
O261 C255 1.263 . S
O261 Tb256 2.353 1_554 S
C262 O266 1.245 1_655 S
C262 O267 1.259 . S
C263 O268 1.239 1_554 S
C263 O269 1.263 . S
O264 Tb256 2.427 1_554 S
O264 C260 1.275 . S
O265 Tb256 2.513 1_554 S
O265 C260 1.246 . S
O266 Tb256 2.453 . S
O266 C262 1.245 1_455 S
O267 Tb254 2.343 1_556 S
O267 Tb256 2.596 1_655 S
O267 C262 1.259 . S
O268 Tb256 2.383 1_655 S
O268 C263 1.239 1_556 S
O269 Tb254 2.353 . S
O269 C263 1.263 . S
C270 O271 1.275 . S
C270 O272 1.246 . S
O271 Tb254 2.427 1_556 S
O271 C270 1.275 . S
O272 Tb254 2.513 1_556 S
O272 C270 1.246 . S
C273 O257 1.245 1_455 S
C273 O258 1.259 . S
Tb274 O277 2.446 1_554 S
Tb274 O278 2.594 1_554 S
Tb274 O279 2.375 . S
Tb274 O287 2.349 . S
Tb274 O289 2.354 . S
Tb274 O291 2.431 . S
Tb274 O292 2.518 . S
C275 O279 1.251 . S
C275 O281 1.263 . S
Tb276 O278 2.343 1_554 S
Tb276 O281 2.353 . S
Tb276 O284 2.427 . S
Tb276 O285 2.537 . S
Tb276 O286 2.453 . S
Tb276 O287 2.596 . S
Tb276 O288 2.374 . S
O277 Tb274 2.446 1_556 S
O277 C293 1.245 . S
O278 Tb274 2.594 1_556 S
O278 Tb276 2.343 1_556 S
O278 C293 1.259 . S
O279 Tb274 2.375 . S
O279 C275 1.251 . S
C280 O284 1.275 1_556 S
C280 O285 1.240 1_556 S
O281 C275 1.263 . S
O281 Tb276 2.353 . S
C282 O286 1.245 . S
C282 O287 1.259 . S
C283 O288 1.250 . S
C283 O289 1.263 . S
O284 Tb276 2.427 . S
O284 C280 1.275 1_554 S
O285 Tb276 2.537 . S
O285 C280 1.240 1_554 S
O286 Tb276 2.453 . S
O286 C282 1.245 . S
O287 Tb274 2.349 . S
O287 Tb276 2.596 . S
O287 C282 1.259 . S
O288 Tb276 2.374 . S
O288 C283 1.250 . S
O289 Tb274 2.354 . S
O289 C283 1.263 . S
C290 O291 1.275 . S
C290 O292 1.246 . S
O291 Tb274 2.431 . S
O291 C290 1.275 . S
O292 Tb274 2.518 . S
O292 C290 1.246 . S
C293 O277 1.245 . S
C293 O278 1.259 . S
Tb294 O297 2.453 . S
Tb294 O298 2.596 . S
Tb294 O299 2.374 . S
Tb294 O307 2.343 . S
Tb294 O309 2.353 . S
Tb294 O311 2.427 . S
Tb294 O312 2.513 . S
C295 O299 1.251 . S
C295 O301 1.263 . S
Tb296 O298 2.343 . S
Tb296 O301 2.353 . S
Tb296 O304 2.427 . S
Tb296 O305 2.513 . S
Tb296 O306 2.453 . S
Tb296 O307 2.596 . S
Tb296 O308 2.374 . S
O297 Tb294 2.453 . S
O297 C313 1.245 . S
O298 Tb294 2.596 . S
O298 Tb296 2.343 . S
O298 C313 1.259 . S
O299 Tb294 2.374 . S
O299 C295 1.251 . S
C300 O304 1.275 . S
C300 O305 1.246 . S
O301 C295 1.263 . S
O301 Tb296 2.353 . S
C302 O306 1.245 . S
C302 O307 1.259 . S
C303 O308 1.250 . S
C303 O309 1.263 . S
O304 Tb296 2.427 . S
O304 C300 1.275 . S
O305 Tb296 2.513 . S
O305 C300 1.246 . S
O306 Tb296 2.453 . S
O306 C302 1.245 . S
O307 Tb294 2.343 . S
O307 Tb296 2.596 . S
O307 C302 1.259 . S
O308 Tb296 2.374 . S
O308 C303 1.250 . S
O309 Tb294 2.353 . S
O309 C303 1.263 . S
C310 O311 1.275 . S
C310 O312 1.246 . S
O311 Tb294 2.427 . S
O311 C310 1.275 . S
O312 Tb294 2.513 . S
O312 C310 1.246 . S
C313 O297 1.245 . S
C313 O298 1.259 . S
Tb314 O317 2.453 . S
Tb314 O318 2.596 . S
Tb314 O319 2.374 . S
Tb314 O327 2.343 . S
Tb314 O329 2.353 . S
Tb314 O331 2.427 . S
Tb314 O332 2.513 . S
C315 O319 1.251 . S
C315 O321 1.263 . S
Tb316 O318 2.343 . S
Tb316 O321 2.353 . S
Tb316 O324 2.427 . S
Tb316 O325 2.513 . S
Tb316 O326 2.453 . S
Tb316 O327 2.596 . S
Tb316 O328 2.374 . S
O317 Tb314 2.453 . S
O317 C333 1.245 . S
O318 Tb314 2.596 . S
O318 Tb316 2.343 . S
O318 C333 1.259 . S
O319 Tb314 2.374 . S
O319 C315 1.251 . S
C320 O324 1.275 . S
C320 O325 1.246 . S
O321 C315 1.263 . S
O321 Tb316 2.353 . S
C322 O326 1.245 . S
C322 O327 1.259 . S
C323 O328 1.250 . S
C323 O329 1.263 . S
O324 Tb316 2.427 . S
O324 C320 1.275 . S
O325 Tb316 2.513 . S
O325 C320 1.246 . S
O326 Tb316 2.453 . S
O326 C322 1.245 . S
O327 Tb314 2.343 . S
O327 Tb316 2.596 . S
O327 C322 1.259 . S
O328 Tb316 2.374 . S
O328 C323 1.250 . S
O329 Tb314 2.353 . S
O329 C323 1.263 . S
C330 O331 1.275 . S
C330 O332 1.246 . S
O331 Tb314 2.427 . S
O331 C330 1.275 . S
O332 Tb314 2.513 . S
O332 C330 1.246 . S
C333 O317 1.245 . S
C333 O318 1.259 . S
Tb334 O337 2.453 . S
Tb334 O338 2.596 . S
Tb334 O339 2.374 . S
Tb334 O347 2.343 . S
Tb334 O349 2.353 . S
Tb334 O351 2.427 . S
Tb334 O352 2.513 . S
C335 O339 1.251 . S
C335 O341 1.263 . S
Tb336 O338 2.343 . S
Tb336 O341 2.353 . S
Tb336 O344 2.427 . S
Tb336 O345 2.513 . S
Tb336 O346 2.453 . S
Tb336 O347 2.596 . S
Tb336 O348 2.374 . S
O337 Tb334 2.453 . S
O337 C353 1.245 . S
O338 Tb334 2.596 . S
O338 Tb336 2.343 . S
O338 C353 1.259 . S
O339 Tb334 2.374 . S
O339 C335 1.251 . S
C340 O344 1.275 . S
C340 O345 1.246 . S
O341 C335 1.263 . S
O341 Tb336 2.353 . S
C342 O346 1.245 . S
C342 O347 1.259 . S
C343 O348 1.250 . S
C343 O349 1.263 . S
O344 Tb336 2.427 . S
O344 C340 1.275 . S
O345 Tb336 2.513 . S
O345 C340 1.246 . S
O346 Tb336 2.453 . S
O346 C342 1.245 . S
O347 Tb334 2.343 . S
O347 Tb336 2.596 . S
O347 C342 1.259 . S
O348 Tb336 2.374 . S
O348 C343 1.250 . S
O349 Tb334 2.353 . S
O349 C343 1.263 . S
C350 O351 1.275 . S
C350 O352 1.246 . S
O351 Tb334 2.427 . S
O351 C350 1.275 . S
O352 Tb334 2.513 . S
O352 C350 1.246 . S
C353 O337 1.245 . S
C353 O338 1.259 . S
Tb354 O357 2.453 . S
Tb354 O358 2.596 . S
Tb354 O359 2.374 . S
Tb354 O367 2.343 . S
Tb354 O369 2.353 . S
Tb354 O371 2.427 . S
Tb354 O372 2.513 . S
C355 O359 1.251 . S
C355 O361 1.263 . S
Tb356 O358 2.343 . S
Tb356 O361 2.353 . S
Tb356 O364 2.427 . S
Tb356 O365 2.513 . S
Tb356 O366 2.453 . S
Tb356 O367 2.596 . S
Tb356 O368 2.374 . S
O357 Tb354 2.453 . S
O357 C373 1.245 . S
O358 Tb354 2.596 . S
O358 Tb356 2.343 . S
O358 C373 1.259 . S
O359 Tb354 2.374 . S
O359 C355 1.251 . S
C360 O364 1.275 . S
C360 O365 1.246 . S
O361 C355 1.263 . S
O361 Tb356 2.353 . S
C362 O366 1.245 . S
C362 O367 1.259 . S
C363 O368 1.250 . S
C363 O369 1.263 . S
O364 Tb356 2.427 . S
O364 C360 1.275 . S
O365 Tb356 2.513 . S
O365 C360 1.246 . S
O366 Tb356 2.453 . S
O366 C362 1.245 . S
O367 Tb354 2.343 . S
O367 Tb356 2.596 . S
O367 C362 1.259 . S
O368 Tb356 2.374 . S
O368 C363 1.250 . S
O369 Tb354 2.353 . S
O369 C363 1.263 . S
C370 O371 1.275 . S
C370 O372 1.246 . S
O371 Tb354 2.427 . S
O371 C370 1.275 . S
O372 Tb354 2.513 . S
O372 C370 1.246 . S
C373 O357 1.245 . S
C373 O358 1.259 . S
Tb374 O377 2.453 . S
Tb374 O378 2.596 . S
Tb374 O379 2.374 . S
Tb374 O387 2.343 . S
Tb374 O389 2.353 . S
Tb374 O391 2.427 . S
Tb374 O392 2.513 . S
C375 O379 1.251 . S
C375 O381 1.263 . S
Tb376 O378 2.343 . S
Tb376 O381 2.353 . S
Tb376 O384 2.427 . S
Tb376 O385 2.513 . S
Tb376 O386 2.453 . S
Tb376 O387 2.596 . S
Tb376 O388 2.374 . S
O377 Tb374 2.453 . S
O377 C393 1.245 . S
O378 Tb374 2.596 . S
O378 Tb376 2.343 . S
O378 C393 1.259 . S
O379 Tb374 2.374 . S
O379 C375 1.251 . S
C380 O384 1.275 . S
C380 O385 1.246 . S
O381 C375 1.263 . S
O381 Tb376 2.353 . S
C382 O386 1.245 . S
C382 O387 1.259 . S
C383 O388 1.250 . S
C383 O389 1.263 . S
O384 Tb376 2.427 . S
O384 C380 1.275 . S
O385 Tb376 2.513 . S
O385 C380 1.246 . S
O386 Tb376 2.453 . S
O386 C382 1.245 . S
O387 Tb374 2.343 . S
O387 Tb376 2.596 . S
O387 C382 1.259 . S
O388 Tb376 2.374 . S
O388 C383 1.250 . S
O389 Tb374 2.353 . S
O389 C383 1.263 . S
C390 O391 1.275 . S
C390 O392 1.246 . S
O391 Tb374 2.427 . S
O391 C390 1.275 . S
O392 Tb374 2.513 . S
O392 C390 1.246 . S
C393 O377 1.245 . S
C393 O378 1.259 . S
Tb394 O397 2.453 . S
Tb394 O398 2.596 . S
Tb394 O399 2.374 . S
Tb394 O407 2.343 . S
Tb394 O409 2.353 . S
Tb394 O411 2.427 . S
Tb394 O412 2.513 . S
C395 O399 1.251 . S
C395 O401 1.263 . S
Tb396 O398 2.343 . S
Tb396 O401 2.353 . S
Tb396 O404 2.427 . S
Tb396 O405 2.513 . S
Tb396 O406 2.453 . S
Tb396 O407 2.596 . S
Tb396 O408 2.374 . S
O397 Tb394 2.453 . S
O397 C413 1.245 . S
O398 Tb394 2.596 . S
O398 Tb396 2.343 . S
O398 C413 1.259 . S
O399 Tb394 2.374 . S
O399 C395 1.251 . S
C400 O404 1.275 . S
C400 O405 1.246 . S
O401 C395 1.263 . S
O401 Tb396 2.353 . S
C402 O406 1.245 . S
C402 O407 1.259 . S
C403 O408 1.250 . S
C403 O409 1.263 . S
O404 Tb396 2.427 . S
O404 C400 1.275 . S
O405 Tb396 2.513 . S
O405 C400 1.246 . S
O406 Tb396 2.453 . S
O406 C402 1.245 . S
O407 Tb394 2.343 . S
O407 Tb396 2.596 . S
O407 C402 1.259 . S
O408 Tb396 2.374 . S
O408 C403 1.250 . S
O409 Tb394 2.353 . S
O409 C403 1.263 . S
C410 O411 1.275 . S
C410 O412 1.246 . S
O411 Tb394 2.427 . S
O411 C410 1.275 . S
O412 Tb394 2.513 . S
O412 C410 1.246 . S
C413 O397 1.245 . S
C413 O398 1.259 . S
H414 C422 0.929 . S
H415 C424 0.930 . S
H416 C426 0.930 . S
H417 C429 0.929 . S
H418 C432 0.930 . S
H419 C434 0.960 . S
H420 C434 0.960 . S
H421 C434 0.960 . S
C422 H414 0.929 . S
C422 C423 1.377 . S
C422 C424 1.384 . S
C423 C422 1.377 . S
C423 C429 1.390 . S
C424 H415 0.930 . S
C424 C422 1.384 . S
C424 C425 1.372 . S
C425 C424 1.372 . S
C425 C426 1.400 . S
C425 C430 1.490 . S
C426 H416 0.930 . S
C426 C425 1.400 . S
C426 C429 1.386 . S
H427 C443 0.930 . S
H428 C444 0.931 . S
C429 H417 0.929 . S
C429 C423 1.390 . S
C429 C426 1.386 . S
C430 C425 1.490 . S
C430 C432 1.395 . S
C430 C433 1.403 . S
H431 C437 0.930 . S
C432 H418 0.930 . S
C432 C430 1.395 . S
C432 C435 1.403 . S
C433 C430 1.403 . S
C433 C434 1.524 . S
C433 C437 1.400 . S
C434 H419 0.960 . S
C434 H420 0.960 . S
C434 H421 0.960 . S
C434 C433 1.524 . S
C435 C432 1.403 . S
C435 C436 1.392 . S
C435 C439 1.495 . S
C436 C435 1.392 . S
C436 C437 1.385 . S
C436 C438 1.478 . S
C437 H431 0.930 . S
C437 C433 1.400 . S
C437 C436 1.385 . S
C438 C436 1.478 . S
C438 C440 1.381 . S
C438 C444 1.383 . S
C439 C435 1.495 . S
C439 H445 0.959 1_554 S
C439 H446 0.961 1_554 S
C439 H447 0.960 1_554 S
C440 C438 1.381 . S
C440 C441 1.394 . S
C440 H448 0.930 . S
C441 C440 1.394 . S
C441 C442 1.383 . S
C441 H449 0.929 . S
C442 C441 1.383 . S
C442 C443 1.377 . S
C443 H427 0.930 . S
C443 C442 1.377 . S
C443 C444 1.379 . S
C444 H428 0.931 . S
C444 C438 1.383 . S
C444 C443 1.379 . S
H445 C439 0.959 1_556 S
H446 C439 0.961 1_556 S
H447 C439 0.960 1_556 S
H448 C440 0.930 . S
H449 C441 0.929 . S
H450 C458 0.929 . S
H451 C460 0.930 . S
H452 C462 0.930 . S
H453 C465 0.929 . S
H454 C468 0.930 . S
H455 C470 0.960 . S
H456 C470 0.960 . S
H457 C470 0.960 . S
C458 H450 0.929 . S
C458 C459 1.377 . S
C458 C460 1.384 . S
C459 C458 1.377 . S
C459 C465 1.390 . S
C460 H451 0.930 . S
C460 C458 1.384 . S
C460 C461 1.372 . S
C461 C460 1.372 . S
C461 C462 1.400 . S
C461 C466 1.490 . S
C462 H452 0.930 . S
C462 C461 1.400 . S
C462 C465 1.386 . S
H463 C479 0.930 . S
H464 C480 0.931 . S
C465 H453 0.929 . S
C465 C459 1.390 . S
C465 C462 1.386 . S
C466 C461 1.490 . S
C466 C468 1.395 . S
C466 C469 1.403 . S
H467 C473 0.930 . S
C468 H454 0.930 . S
C468 C466 1.395 . S
C468 C471 1.403 . S
C469 C466 1.403 . S
C469 C470 1.524 . S
C469 C473 1.400 . S
C470 H455 0.960 . S
C470 H456 0.960 . S
C470 H457 0.960 . S
C470 C469 1.524 . S
C471 C468 1.403 . S
C471 C472 1.392 . S
C471 C475 1.495 . S
C472 C471 1.392 . S
C472 C473 1.385 . S
C472 C474 1.478 . S
C473 H467 0.930 . S
C473 C469 1.400 . S
C473 C472 1.385 . S
C474 C472 1.478 . S
C474 C476 1.381 . S
C474 C480 1.383 . S
C475 C471 1.495 . S
C475 H481 0.959 . S
C475 H482 0.961 . S
C475 H483 0.960 . S
C476 C474 1.381 . S
C476 C477 1.394 . S
C476 H484 0.930 . S
C477 C476 1.394 . S
C477 C478 1.383 . S
C477 H485 0.929 . S
C478 C477 1.383 . S
C478 C479 1.377 . S
C479 H463 0.930 . S
C479 C478 1.377 . S
C479 C480 1.379 . S
C480 H464 0.931 . S
C480 C474 1.383 . S
C480 C479 1.379 . S
H481 C475 0.959 . S
H482 C475 0.961 . S
H483 C475 0.960 . S
H484 C476 0.930 . S
H485 C477 0.929 . S
H486 C494 0.929 . S
H487 C496 0.930 . S
H488 C498 0.930 . S
H489 C501 0.929 . S
H490 C504 0.930 . S
H491 C506 0.960 1_556 S
H492 C506 0.960 . S
H493 C506 0.960 . S
C494 H486 0.929 . S
C494 C495 1.377 . S
C494 C496 1.384 . S
C495 C494 1.377 . S
C495 C501 1.390 . S
C496 H487 0.930 . S
C496 C494 1.384 . S
C496 C497 1.372 . S
C497 C496 1.372 . S
C497 C498 1.400 . S
C497 C502 1.490 . S
C498 H488 0.930 . S
C498 C497 1.400 . S
C498 C501 1.386 . S
H499 C515 0.930 . S
H500 C516 0.931 . S
C501 H489 0.929 . S
C501 C495 1.390 . S
C501 C498 1.386 . S
C502 C497 1.490 . S
C502 C504 1.395 . S
C502 C505 1.403 . S
H503 C509 0.930 . S
C504 H490 0.930 . S
C504 C502 1.395 . S
C504 C507 1.403 . S
C505 C502 1.403 . S
C505 C506 1.524 . S
C505 C509 1.400 . S
C506 H491 0.960 1_554 S
C506 H492 0.960 . S
C506 H493 0.960 . S
C506 C505 1.524 . S
C507 C504 1.403 . S
C507 C508 1.392 . S
C507 C511 1.495 . S
C508 C507 1.392 . S
C508 C509 1.385 . S
C508 C510 1.478 . S
C509 H503 0.930 . S
C509 C505 1.400 . S
C509 C508 1.385 . S
C510 C508 1.478 . S
C510 C512 1.381 . S
C510 C516 1.383 . S
C511 C507 1.495 . S
C511 H517 0.959 . S
C511 H518 0.961 . S
C511 H519 0.960 . S
C512 C510 1.381 . S
C512 C513 1.394 . S
C512 H520 0.930 . S
C513 C512 1.394 . S
C513 C514 1.383 . S
C513 H521 0.929 . S
C514 C513 1.383 . S
C514 C515 1.377 . S
C515 H499 0.930 . S
C515 C514 1.377 . S
C515 C516 1.379 . S
C516 H500 0.931 . S
C516 C510 1.383 . S
C516 C515 1.379 . S
H517 C511 0.959 . S
H518 C511 0.961 . S
H519 C511 0.960 . S
H520 C512 0.930 . S
H521 C513 0.929 . S
H522 C530 0.929 . S
H523 C532 0.930 . S
H524 C534 0.930 . S
H525 C537 0.929 . S
H526 C540 0.930 . S
H527 C542 0.960 . S
H528 C542 0.960 . S
H529 C542 0.960 . S
C530 H522 0.929 . S
C530 C531 1.377 . S
C530 C532 1.384 . S
C531 C530 1.377 . S
C531 C537 1.390 . S
C532 H523 0.930 . S
C532 C530 1.384 . S
C532 C533 1.372 . S
C533 C532 1.372 . S
C533 C534 1.400 . S
C533 C538 1.490 . S
C534 H524 0.930 . S
C534 C533 1.400 . S
C534 C537 1.386 . S
H535 C551 0.930 . S
H536 C552 0.931 . S
C537 H525 0.929 . S
C537 C531 1.390 . S
C537 C534 1.386 . S
C538 C533 1.490 . S
C538 C540 1.395 . S
C538 C541 1.403 . S
H539 C545 0.930 . S
C540 H526 0.930 . S
C540 C538 1.395 . S
C540 C543 1.403 . S
C541 C538 1.403 . S
C541 C542 1.524 . S
C541 C545 1.400 . S
C542 H527 0.960 . S
C542 H528 0.960 . S
C542 H529 0.960 . S
C542 C541 1.524 . S
C543 C540 1.403 . S
C543 C544 1.392 . S
C543 C547 1.495 . S
C544 C543 1.392 . S
C544 C545 1.385 . S
C544 C546 1.478 . S
C545 H539 0.930 . S
C545 C541 1.400 . S
C545 C544 1.385 . S
C546 C544 1.478 . S
C546 C548 1.381 1_556 S
C546 C552 1.383 . S
C547 C543 1.495 . S
C547 H553 0.959 . S
C547 H554 0.961 . S
C547 H555 0.960 . S
C548 C546 1.381 1_554 S
C548 C549 1.394 . S
C548 H556 0.930 . S
C549 C548 1.394 . S
C549 C550 1.383 1_554 S
C549 H557 0.929 . S
C550 C549 1.383 1_556 S
C550 C551 1.377 . S
C551 H535 0.930 . S
C551 C550 1.377 . S
C551 C552 1.379 . S
C552 H536 0.931 . S
C552 C546 1.383 . S
C552 C551 1.379 . S
H553 C547 0.959 . S
H554 C547 0.961 . S
H555 C547 0.960 . S
H556 C548 0.930 . S
H557 C549 0.929 . S
H558 C566 0.929 . S
H559 C568 0.930 . S
H560 C570 0.930 . S
H561 C573 0.929 . S
H562 C576 0.930 . S
H563 C578 0.960 . S
H564 C578 0.960 . S
H565 C578 0.960 . S
C566 H558 0.929 . S
C566 C567 1.377 . S
C566 C568 1.384 . S
C567 C566 1.377 . S
C567 C573 1.390 . S
C568 H559 0.930 . S
C568 C566 1.384 . S
C568 C569 1.372 . S
C569 C568 1.372 . S
C569 C570 1.400 . S
C569 C574 1.490 . S
C570 H560 0.930 . S
C570 C569 1.400 . S
C570 C573 1.386 . S
H571 C587 0.930 . S
H572 C588 0.931 . S
C573 H561 0.929 . S
C573 C567 1.390 . S
C573 C570 1.386 . S
C574 C569 1.490 . S
C574 C576 1.395 . S
C574 C577 1.403 . S
H575 C581 0.930 . S
C576 H562 0.930 . S
C576 C574 1.395 . S
C576 C579 1.403 . S
C577 C574 1.403 . S
C577 C578 1.524 . S
C577 C581 1.400 . S
C578 H563 0.960 . S
C578 H564 0.960 . S
C578 H565 0.960 . S
C578 C577 1.524 . S
C579 C576 1.403 . S
C579 C580 1.392 . S
C579 C583 1.495 . S
C580 C579 1.392 . S
C580 C581 1.385 . S
C580 C582 1.478 . S
C581 H575 0.930 . S
C581 C577 1.400 . S
C581 C580 1.385 . S
C582 C580 1.478 . S
C582 C584 1.381 . S
C582 C588 1.383 . S
C583 C579 1.495 . S
C583 H589 0.959 . S
C583 H590 0.961 . S
C583 H591 0.960 . S
C584 C582 1.381 . S
C584 C585 1.394 . S
C584 H592 0.930 . S
C585 C584 1.394 . S
C585 C586 1.383 . S
C585 H593 0.929 . S
C586 C585 1.383 . S
C586 C587 1.377 . S
C587 H571 0.930 . S
C587 C586 1.377 . S
C587 C588 1.379 . S
C588 H572 0.931 . S
C588 C582 1.383 . S
C588 C587 1.379 . S
H589 C583 0.959 . S
H590 C583 0.961 . S
H591 C583 0.960 . S
H592 C584 0.930 . S
H593 C585 0.929 . S
H594 C602 0.929 . S
H595 C604 0.930 . S
H596 C606 0.930 . S
H597 C609 0.929 . S
H598 C612 0.930 . S
H599 C614 0.960 . S
H600 C614 0.960 . S
H601 C614 0.960 . S
C602 H594 0.929 . S
C602 C603 1.377 . S
C602 C604 1.384 . S
C603 C602 1.377 . S
C603 C609 1.390 . S
C604 H595 0.930 . S
C604 C602 1.384 . S
C604 C605 1.372 . S
C605 C604 1.372 . S
C605 C606 1.400 . S
C605 C610 1.490 . S
C606 H596 0.930 . S
C606 C605 1.400 . S
C606 C609 1.386 . S
H607 C623 0.930 . S
H608 C624 0.931 . S
C609 H597 0.929 . S
C609 C603 1.390 . S
C609 C606 1.386 . S
C610 C605 1.490 . S
C610 C612 1.395 . S
C610 C613 1.403 . S
H611 C617 0.930 . S
C612 H598 0.930 . S
C612 C610 1.395 . S
C612 C615 1.403 . S
C613 C610 1.403 . S
C613 C614 1.524 . S
C613 C617 1.400 . S
C614 H599 0.960 . S
C614 H600 0.960 . S
C614 H601 0.960 . S
C614 C613 1.524 . S
C615 C612 1.403 . S
C615 C616 1.392 . S
C615 C619 1.495 . S
C616 C615 1.392 . S
C616 C617 1.385 . S
C616 C618 1.478 . S
C617 H611 0.930 . S
C617 C613 1.400 . S
C617 C616 1.385 . S
C618 C616 1.478 . S
C618 C620 1.381 . S
C618 C624 1.383 1_556 S
C619 C615 1.495 . S
C619 H625 0.959 . S
C619 H626 0.961 1_556 S
C619 H627 0.960 . S
C620 C618 1.381 . S
C620 C621 1.394 . S
C620 H628 0.930 . S
C621 C620 1.394 . S
C621 C622 1.377 1_556 S
C621 H629 0.929 . S
C622 C621 1.377 1_554 S
C622 C623 1.381 . S
C623 H607 0.930 . S
C623 C622 1.381 . S
C623 C624 1.379 . S
C624 H608 0.931 . S
C624 C618 1.383 1_554 S
C624 C623 1.379 . S
H625 C619 0.959 . S
H626 C619 0.961 1_554 S
H627 C619 0.960 . S
H628 C620 0.930 . S
H629 C621 0.929 . S
H630 C638 0.929 . S
H631 C640 0.930 . S
H632 C642 0.930 . S
H633 C645 0.929 . S
H634 C648 0.930 . S
H635 C650 0.960 . S
H636 C650 0.960 . S
H637 C650 0.960 1_556 S
C638 H630 0.929 . S
C638 C639 1.377 . S
C638 C640 1.384 . S
C639 C638 1.377 . S
C639 C645 1.390 . S
C640 H631 0.930 . S
C640 C638 1.384 . S
C640 C641 1.372 . S
C641 C640 1.372 . S
C641 C642 1.400 . S
C641 C646 1.490 . S
C642 H632 0.930 . S
C642 C641 1.400 . S
C642 C645 1.386 . S
H643 C659 0.930 . S
H644 C660 0.931 . S
C645 H633 0.929 . S
C645 C639 1.390 . S
C645 C642 1.386 . S
C646 C641 1.490 . S
C646 C648 1.395 . S
C646 C649 1.403 . S
H647 C653 0.930 . S
C648 H634 0.930 . S
C648 C646 1.395 . S
C648 C651 1.403 . S
C649 C646 1.403 . S
C649 C650 1.524 1_556 S
C649 C653 1.400 . S
C650 H635 0.960 . S
C650 H636 0.960 . S
C650 H637 0.960 1_554 S
C650 C649 1.524 1_554 S
C651 C648 1.403 . S
C651 C652 1.392 . S
C651 C655 1.495 . S
C652 C651 1.392 . S
C652 C653 1.385 . S
C652 C654 1.478 . S
C653 H647 0.930 . S
C653 C649 1.400 . S
C653 C652 1.385 . S
C654 C652 1.478 . S
C654 C656 1.381 . S
C654 C660 1.383 . S
C655 C651 1.495 . S
C655 H661 0.959 . S
C655 H662 0.961 . S
C655 H663 0.960 . S
C656 C654 1.381 . S
C656 C657 1.394 . S
C656 H664 0.930 . S
C657 C656 1.394 . S
C657 C658 1.383 . S
C657 H665 0.929 . S
C658 C657 1.383 . S
C658 C659 1.377 . S
C659 H643 0.930 . S
C659 C658 1.377 . S
C659 C660 1.379 . S
C660 H644 0.931 . S
C660 C654 1.383 . S
C660 C659 1.379 . S
H661 C655 0.959 . S
H662 C655 0.961 . S
H663 C655 0.960 . S
H664 C656 0.930 . S
H665 C657 0.929 . S
H666 C674 0.929 . S
H667 C676 0.930 . S
H668 C678 0.930 . S
H669 C681 0.929 . S
H670 C684 0.930 . S
H671 C686 0.960 . S
H672 C686 0.960 . S
H673 C686 0.960 . S
C674 H666 0.929 . S
C674 C675 1.377 . S
C674 C676 1.384 . S
C675 C674 1.377 . S
C675 C681 1.390 . S
C676 H667 0.930 . S
C676 C674 1.384 . S
C676 C677 1.372 . S
C677 C676 1.372 . S
C677 C678 1.400 . S
C677 C682 1.490 . S
C678 H668 0.930 . S
C678 C677 1.400 . S
C678 C681 1.386 . S
H679 C695 0.930 . S
H680 C696 0.931 . S
C681 H669 0.929 . S
C681 C675 1.390 . S
C681 C678 1.386 . S
C682 C677 1.490 . S
C682 C684 1.395 . S
C682 C685 1.403 . S
H683 C689 0.930 . S
C684 H670 0.930 . S
C684 C682 1.395 . S
C684 C687 1.403 . S
C685 C682 1.403 . S
C685 C686 1.524 . S
C685 C689 1.400 . S
C686 H671 0.960 . S
C686 H672 0.960 . S
C686 H673 0.960 . S
C686 C685 1.524 . S
C687 C684 1.403 . S
C687 C688 1.392 . S
C687 C691 1.495 1_556 S
C688 C687 1.392 . S
C688 C689 1.385 . S
C688 C690 1.478 . S
C689 H683 0.930 . S
C689 C685 1.400 . S
C689 C688 1.385 . S
C690 C688 1.478 . S
C690 C692 1.381 . S
C690 C696 1.383 . S
C691 C687 1.495 1_554 S
C691 H697 0.959 . S
C691 H698 0.961 . S
C691 H699 0.960 . S
C692 C690 1.381 . S
C692 C693 1.394 . S
C692 H700 0.930 . S
C693 C692 1.394 . S
C693 C694 1.383 . S
C693 H701 0.933 . S
C694 C693 1.383 . S
C694 C695 1.377 . S
C695 H679 0.930 . S
C695 C694 1.377 . S
C695 C696 1.379 . S
C696 H680 0.931 . S
C696 C690 1.383 . S
C696 C695 1.379 . S
H697 C691 0.959 . S
H698 C691 0.961 . S
H699 C691 0.960 . S
H700 C692 0.930 . S
H701 C693 0.933 . S
H702 C710 0.929 . S
H703 C712 0.930 . S
H704 C714 0.930 . S
H705 C717 0.929 . S
H706 C720 0.930 . S
H707 C722 0.960 . S
H708 C722 0.960 . S
H709 C722 0.960 . S
C710 H702 0.929 . S
C710 C711 1.377 . S
C710 C712 1.384 . S
C711 C710 1.377 . S
C711 C717 1.390 . S
C712 H703 0.930 . S
C712 C710 1.384 . S
C712 C713 1.372 . S
C713 C712 1.372 . S
C713 C714 1.400 . S
C713 C718 1.490 . S
C714 H704 0.930 . S
C714 C713 1.400 . S
C714 C717 1.386 . S
H715 C731 0.937 . S
H716 C732 0.931 . S
C717 H705 0.929 . S
C717 C711 1.390 . S
C717 C714 1.386 . S
C718 C713 1.490 . S
C718 C720 1.395 1_556 S
C718 C721 1.403 . S
H719 C725 0.930 . S
C720 H706 0.930 . S
C720 C718 1.395 1_554 S
C720 C723 1.403 . S
C721 C718 1.403 . S
C721 C722 1.524 . S
C721 C725 1.400 . S
C722 H707 0.960 . S
C722 H708 0.960 . S
C722 H709 0.960 . S
C722 C721 1.524 . S
C723 C720 1.403 . S
C723 C724 1.392 1_554 S
C723 C727 1.495 . S
C724 C723 1.392 1_556 S
C724 C725 1.385 . S
C724 C726 1.483 . S
C725 H719 0.930 . S
C725 C721 1.400 . S
C725 C724 1.385 . S
C726 C724 1.483 . S
C726 C728 1.371 1_556 S
C726 C732 1.394 . S
C727 C723 1.495 . S
C727 H733 0.959 . S
C727 H734 0.961 . S
C727 H735 0.960 . S
C728 C726 1.371 1_554 S
C728 C729 1.394 . S
C728 H736 0.930 . S
C729 C728 1.394 . S
C729 C730 1.383 . S
C729 H737 0.929 . S
C730 C729 1.383 . S
C730 C731 1.370 1_554 S
C731 H715 0.937 . S
C731 C730 1.370 1_556 S
C731 C732 1.380 . S
C732 H716 0.931 . S
C732 C726 1.394 . S
C732 C731 1.380 . S
H733 C727 0.959 . S
H734 C727 0.961 . S
H735 C727 0.960 . S
H736 C728 0.930 . S
H737 C729 0.929 . S
H738 C746 0.929 . S
H739 C748 0.930 . S
H740 C750 0.930 . S
H741 C753 0.929 . S
H742 C756 0.930 . S
H743 C758 0.960 . S
H744 C758 0.960 . S
H745 C758 0.960 . S
C746 H738 0.929 . S
C746 C747 1.377 . S
C746 C748 1.384 . S
C747 C746 1.377 . S
C747 C753 1.390 . S
C748 H739 0.930 . S
C748 C746 1.384 . S
C748 C749 1.372 . S
C749 C748 1.372 . S
C749 C750 1.400 . S
C749 C754 1.490 . S
C750 H740 0.930 . S
C750 C749 1.400 . S
C750 C753 1.386 . S
H751 C767 0.930 . S
H752 C768 0.931 . S
C753 H741 0.929 . S
C753 C747 1.390 . S
C753 C750 1.386 . S
C754 C749 1.490 . S
C754 C756 1.395 . S
C754 C757 1.403 . S
H755 C761 0.930 . S
C756 H742 0.930 . S
C756 C754 1.395 . S
C756 C759 1.403 . S
C757 C754 1.403 . S
C757 C758 1.524 . S
C757 C761 1.400 . S
C758 H743 0.960 . S
C758 H744 0.960 . S
C758 H745 0.960 . S
C758 C757 1.524 . S
C759 C756 1.403 . S
C759 C760 1.392 . S
C759 C763 1.495 . S
C760 C759 1.392 . S
C760 C761 1.385 . S
C760 C762 1.478 . S
C761 H755 0.930 . S
C761 C757 1.400 . S
C761 C760 1.385 . S
C762 C760 1.478 . S
C762 C764 1.381 . S
C762 C768 1.383 . S
C763 C759 1.495 . S
C763 H769 0.959 . S
C763 H770 0.961 . S
C763 H771 0.960 . S
C764 C762 1.381 . S
C764 C765 1.394 . S
C764 H772 0.930 1_554 S
C765 C764 1.394 . S
C765 C766 1.383 . S
C765 H773 0.929 1_554 S
C766 C765 1.383 . S
C766 C767 1.377 . S
C767 H751 0.930 . S
C767 C766 1.377 . S
C767 C768 1.379 . S
C768 H752 0.931 . S
C768 C762 1.383 . S
C768 C767 1.379 . S
H769 C763 0.959 . S
H770 C763 0.961 . S
H771 C763 0.960 . S
H772 C764 0.930 1_556 S
H773 C765 0.929 1_556 S
H774 C782 0.929 . S
H775 C784 0.930 . S
H776 C786 0.930 . S
H777 C789 0.929 . S
H778 C792 0.930 . S
H779 C794 0.960 . S
H780 C794 0.960 . S
H781 C794 0.960 . S
C782 H774 0.929 . S
C782 C783 1.377 . S
C782 C784 1.384 . S
C783 C782 1.377 . S
C783 C789 1.390 . S
C784 H775 0.930 . S
C784 C782 1.384 . S
C784 C785 1.372 . S
C785 C784 1.372 . S
C785 C786 1.400 . S
C785 C790 1.490 . S
C786 H776 0.930 . S
C786 C785 1.400 . S
C786 C789 1.386 . S
H787 C803 0.930 . S
H788 C804 0.931 . S
C789 H777 0.929 . S
C789 C783 1.390 . S
C789 C786 1.386 . S
C790 C785 1.490 . S
C790 C792 1.395 . S
C790 C793 1.403 . S
H791 C797 0.930 . S
C792 H778 0.930 . S
C792 C790 1.395 . S
C792 C795 1.403 . S
C793 C790 1.403 . S
C793 C794 1.524 . S
C793 C797 1.400 . S
C794 H779 0.960 . S
C794 H780 0.960 . S
C794 H781 0.960 . S
C794 C793 1.524 . S
C795 C792 1.403 . S
C795 C796 1.392 . S
C795 C799 1.495 . S
C796 C795 1.392 . S
C796 C797 1.385 . S
C796 C798 1.478 . S
C797 H791 0.930 . S
C797 C793 1.400 . S
C797 C796 1.385 . S
C798 C796 1.478 . S
C798 C800 1.381 . S
C798 C804 1.383 . S
C799 C795 1.495 . S
C799 H805 0.959 . S
C799 H806 0.961 . S
C799 H807 0.960 . S
C800 C798 1.381 . S
C800 C801 1.394 . S
C800 H808 0.930 . S
C801 C800 1.394 . S
C801 C802 1.383 . S
C801 H809 0.929 . S
C802 C801 1.383 . S
C802 C803 1.377 . S
C803 H787 0.930 . S
C803 C802 1.377 . S
C803 C804 1.379 . S
C804 H788 0.931 . S
C804 C798 1.383 . S
C804 C803 1.379 . S
H805 C799 0.959 . S
H806 C799 0.961 . S
H807 C799 0.960 . S
H808 C800 0.930 . S
H809 C801 0.929 . S
H810 C818 0.929 . S
H811 C820 0.930 . S
H812 C822 0.930 . S
H813 C825 0.929 . S
H814 C828 0.930 . S
H815 C830 0.960 . S
H816 C830 0.960 . S
H817 C830 0.960 . S
C818 H810 0.929 . S
C818 C819 1.377 . S
C818 C820 1.384 . S
C819 C818 1.377 . S
C819 C825 1.390 . S
C820 H811 0.930 . S
C820 C818 1.384 . S
C820 C821 1.372 . S
C821 C820 1.372 . S
C821 C822 1.400 . S
C821 C826 1.490 . S
C822 H812 0.930 . S
C822 C821 1.400 . S
C822 C825 1.386 . S
H823 C839 0.930 . S
H824 C840 0.931 . S
C825 H813 0.929 . S
C825 C819 1.390 . S
C825 C822 1.386 . S
C826 C821 1.490 . S
C826 C828 1.395 . S
C826 C829 1.403 . S
H827 C833 0.930 . S
C828 H814 0.930 . S
C828 C826 1.395 . S
C828 C831 1.403 . S
C829 C826 1.403 . S
C829 C830 1.524 . S
C829 C833 1.400 . S
C830 H815 0.960 . S
C830 H816 0.960 . S
C830 H817 0.960 . S
C830 C829 1.524 . S
C831 C828 1.403 . S
C831 C832 1.392 . S
C831 C835 1.495 . S
C832 C831 1.392 . S
C832 C833 1.385 . S
C832 C834 1.478 . S
C833 H827 0.930 . S
C833 C829 1.400 . S
C833 C832 1.385 . S
C834 C832 1.478 . S
C834 C836 1.381 . S
C834 C840 1.383 . S
C835 C831 1.495 . S
C835 H841 0.969 . S
C835 H842 0.961 1_554 S
C835 H843 0.960 . S
C836 C834 1.381 . S
C836 C837 1.394 . S
C836 H844 0.930 . S
C837 C836 1.394 . S
C837 C838 1.383 . S
C837 H845 0.929 . S
C838 C837 1.383 . S
C838 C839 1.377 . S
C839 H823 0.930 . S
C839 C838 1.377 . S
C839 C840 1.379 . S
C840 H824 0.931 . S
C840 C834 1.383 . S
C840 C839 1.379 . S
H841 C835 0.969 . S
H842 C835 0.961 1_556 S
H843 C835 0.960 . S
H844 C836 0.930 . S
H845 C837 0.929 . S
H846 C854 0.929 . S
H847 C856 0.930 . S
H848 C858 0.930 . S
H849 C861 0.929 . S
H850 C864 0.930 . S
H851 C866 0.960 1_455 S
H852 C866 0.960 . S
H853 C866 0.960 . S
C854 H846 0.929 . S
C854 C855 1.377 . S
C854 C856 1.384 . S
C855 C854 1.377 . S
C855 C861 1.390 . S
C856 H847 0.930 . S
C856 C854 1.384 . S
C856 C857 1.372 . S
C857 C856 1.372 . S
C857 C858 1.400 . S
C857 C862 1.490 . S
C858 H848 0.930 . S
C858 C857 1.400 . S
C858 C861 1.386 . S
H859 C875 0.930 . S
H860 C876 0.931 . S
C861 H849 0.929 . S
C861 C855 1.390 . S
C861 C858 1.386 . S
C862 C857 1.490 . S
C862 C864 1.395 . S
C862 C865 1.403 . S
H863 C869 0.930 . S
C864 H850 0.930 . S
C864 C862 1.395 . S
C864 C867 1.403 . S
C865 C862 1.403 . S
C865 C866 1.524 . S
C865 C869 1.400 1_655 S
C866 H851 0.960 1_655 S
C866 H852 0.960 . S
C866 H853 0.960 . S
C866 C865 1.524 . S
C867 C864 1.403 . S
C867 C868 1.392 1_655 S
C867 C871 1.495 . S
C868 C867 1.392 1_455 S
C868 C869 1.385 . S
C868 C870 1.478 . S
C869 H863 0.930 . S
C869 C865 1.400 1_455 S
C869 C868 1.385 . S
C870 C868 1.478 . S
C870 C872 1.381 . S
C870 C876 1.383 . S
C871 C867 1.495 . S
C871 H877 0.959 . S
C871 H878 0.961 1_655 S
C871 H879 0.960 1_655 S
C872 C870 1.381 . S
C872 C873 1.394 . S
C872 H880 0.930 . S
C873 C872 1.394 . S
C873 C874 1.383 . S
C873 H881 0.929 . S
C874 C873 1.383 . S
C874 C875 1.377 . S
C875 H859 0.930 . S
C875 C874 1.377 . S
C875 C876 1.379 . S
C876 H860 0.931 . S
C876 C870 1.383 . S
C876 C875 1.379 . S
H877 C871 0.959 . S
H878 C871 0.961 1_455 S
H879 C871 0.960 1_455 S
H880 C872 0.930 . S
H881 C873 0.929 . S
H882 C890 0.929 . S
H883 C892 0.930 . S
H884 C894 0.930 . S
H885 C897 0.929 . S
H886 C900 0.930 . S
H887 C902 0.960 . S
H888 C902 0.960 . S
H889 C902 0.960 . S
C890 H882 0.929 . S
C890 C891 1.377 . S
C890 C892 1.384 . S
C891 C890 1.377 . S
C891 C897 1.390 . S
C892 H883 0.930 . S
C892 C890 1.384 . S
C892 C893 1.372 . S
C893 C892 1.372 . S
C893 C894 1.400 . S
C893 C898 1.490 . S
C894 H884 0.930 . S
C894 C893 1.400 . S
C894 C897 1.386 . S
H895 C911 0.930 . S
H896 C912 0.931 . S
C897 H885 0.929 . S
C897 C891 1.390 . S
C897 C894 1.386 . S
C898 C893 1.490 . S
C898 C900 1.395 . S
C898 C901 1.403 . S
H899 C905 0.930 . S
C900 H886 0.930 . S
C900 C898 1.395 . S
C900 C903 1.403 . S
C901 C898 1.403 . S
C901 C902 1.524 . S
C901 C905 1.400 . S
C902 H887 0.960 . S
C902 H888 0.960 . S
C902 H889 0.960 . S
C902 C901 1.524 . S
C903 C900 1.403 . S
C903 C904 1.392 . S
C903 C907 1.495 . S
C904 C903 1.392 . S
C904 C905 1.385 . S
C904 C906 1.478 . S
C905 H899 0.930 . S
C905 C901 1.400 . S
C905 C904 1.385 . S
C906 C904 1.478 . S
C906 C908 1.381 . S
C906 C912 1.383 . S
C907 C903 1.495 . S
C907 H913 0.959 . S
C907 H914 0.961 . S
C907 H915 0.960 . S
C908 C906 1.381 . S
C908 C909 1.394 . S
C908 H916 0.930 . S
C909 C908 1.394 . S
C909 C910 1.383 . S
C909 H917 0.929 . S
C910 C909 1.383 . S
C910 C911 1.377 . S
C911 H895 0.930 . S
C911 C910 1.377 . S
C911 C912 1.379 . S
C912 H896 0.931 . S
C912 C906 1.383 . S
C912 C911 1.379 . S
H913 C907 0.959 . S
H914 C907 0.961 . S
H915 C907 0.960 . S
H916 C908 0.930 . S
H917 C909 0.929 . S
H918 C926 0.929 . S
H919 C928 0.930 . S
H920 C930 0.930 . S
H921 C933 0.929 . S
H922 C936 0.930 . S
H923 C938 0.960 . S
H924 C938 0.960 . S
H925 C938 0.960 . S
C926 H918 0.929 . S
C926 C927 1.377 . S
C926 C928 1.384 . S
C927 C926 1.377 . S
C927 C933 1.390 . S
C928 H919 0.930 . S
C928 C926 1.384 . S
C928 C929 1.372 . S
C929 C928 1.372 . S
C929 C930 1.400 . S
C929 C934 1.490 . S
C930 H920 0.930 . S
C930 C929 1.400 . S
C930 C933 1.386 . S
H931 C947 0.930 . S
H932 C948 0.931 . S
C933 H921 0.929 . S
C933 C927 1.390 . S
C933 C930 1.386 . S
C934 C929 1.490 . S
C934 C936 1.395 . S
C934 C937 1.403 . S
H935 C941 0.930 . S
C936 H922 0.930 . S
C936 C934 1.395 . S
C936 C939 1.403 1_545 S
C937 C934 1.403 . S
C937 C938 1.524 . S
C937 C941 1.400 1_545 S
C938 H923 0.960 . S
C938 H924 0.960 . S
C938 H925 0.960 . S
C938 C937 1.524 . S
C939 C936 1.403 1_565 S
C939 C940 1.392 . S
C939 C943 1.495 . S
C940 C939 1.392 . S
C940 C941 1.385 . S
C940 C942 1.478 . S
C941 H935 0.930 . S
C941 C937 1.400 1_565 S
C941 C940 1.385 . S
C942 C940 1.478 . S
C942 C944 1.381 . S
C942 C948 1.383 . S
C943 C939 1.495 . S
C943 H949 0.959 . S
C943 H950 0.961 . S
C943 H951 0.960 . S
C944 C942 1.381 . S
C944 C945 1.394 . S
C944 H952 0.930 . S
C945 C944 1.394 . S
C945 C946 1.383 . S
C945 H953 0.929 . S
C946 C945 1.383 . S
C946 C947 1.377 . S
C947 H931 0.930 . S
C947 C946 1.377 . S
C947 C948 1.379 . S
C948 H932 0.931 . S
C948 C942 1.383 . S
C948 C947 1.379 . S
H949 C943 0.959 . S
H950 C943 0.961 . S
H951 C943 0.960 . S
H952 C944 0.930 . S
H953 C945 0.929 . S
H954 C962 0.929 . S
H955 C964 0.930 . S
H956 C966 0.930 . S
H957 C969 0.929 . S
H958 C972 0.930 . S
H959 C974 0.960 . S
H960 C974 0.960 . S
H961 C974 0.960 . S
C962 H954 0.929 . S
C962 C963 1.377 . S
C962 C964 1.384 . S
C963 C962 1.377 . S
C963 C969 1.390 . S
C964 H955 0.930 . S
C964 C962 1.384 . S
C964 C965 1.372 . S
C965 C964 1.372 . S
C965 C966 1.400 . S
C965 C970 1.490 . S
C966 H956 0.930 . S
C966 C965 1.400 . S
C966 C969 1.386 . S
H967 C983 0.930 . S
H968 C984 0.931 . S
C969 H957 0.929 . S
C969 C963 1.390 . S
C969 C966 1.386 . S
C970 C965 1.490 . S
C970 C972 1.395 . S
C970 C973 1.403 . S
H971 C977 0.930 . S
C972 H958 0.930 . S
C972 C970 1.395 . S
C972 C975 1.403 . S
C973 C970 1.403 . S
C973 C974 1.524 . S
C973 C977 1.400 . S
C974 H959 0.960 . S
C974 H960 0.960 . S
C974 H961 0.960 . S
C974 C973 1.524 . S
C975 C972 1.403 . S
C975 C976 1.392 . S
C975 C979 1.495 . S
C976 C975 1.392 . S
C976 C977 1.385 . S
C976 C978 1.478 . S
C977 H971 0.930 . S
C977 C973 1.400 . S
C977 C976 1.385 . S
C978 C976 1.478 . S
C978 C980 1.381 . S
C978 C984 1.383 . S
C979 C975 1.495 . S
C979 H985 0.959 . S
C979 H986 0.961 . S
C979 H987 0.960 . S
C980 C978 1.381 . S
C980 C981 1.394 . S
C980 H988 0.930 . S
C981 C980 1.394 . S
C981 C982 1.383 . S
C981 H989 0.929 . S
C982 C981 1.383 . S
C982 C983 1.377 . S
C983 H967 0.930 . S
C983 C982 1.377 . S
C983 C984 1.379 . S
C984 H968 0.931 . S
C984 C978 1.383 . S
C984 C983 1.379 . S
H985 C979 0.959 . S
H986 C979 0.961 . S
H987 C979 0.960 . S
H988 C980 0.930 . S
H989 C981 0.929 . S
H990 C998 0.929 . S
H991 C1000 0.930 . S
H992 C1002 0.930 . S
H993 C1005 0.929 . S
H994 C1008 0.930 . S
H995 C1010 0.960 . S
H996 C1010 0.960 . S
H997 C1010 0.960 . S
C998 H990 0.929 . S
C998 C999 1.377 . S
C998 C1000 1.384 . S
C999 C998 1.377 . S
C999 C1005 1.390 . S
C1000 H991 0.930 . S
C1000 C998 1.384 . S
C1000 C1001 1.372 . S
C1001 C1000 1.372 . S
C1001 C1002 1.400 . S
C1001 C1006 1.490 . S
C1002 H992 0.930 . S
C1002 C1001 1.400 . S
C1002 C1005 1.386 . S
H1003 C1019 0.930 . S
H1004 C1020 0.931 . S
C1005 H993 0.929 . S
C1005 C999 1.390 . S
C1005 C1002 1.386 . S
C1006 C1001 1.490 . S
C1006 C1008 1.395 . S
C1006 C1009 1.403 . S
H1007 C1013 0.930 . S
C1008 H994 0.930 . S
C1008 C1006 1.395 . S
C1008 C1011 1.403 . S
C1009 C1006 1.403 . S
C1009 C1010 1.524 . S
C1009 C1013 1.400 . S
C1010 H995 0.960 . S
C1010 H996 0.960 . S
C1010 H997 0.960 . S
C1010 C1009 1.524 . S
C1011 C1008 1.403 . S
C1011 C1012 1.392 . S
C1011 C1015 1.495 . S
C1012 C1011 1.392 . S
C1012 C1013 1.385 . S
C1012 C1014 1.478 . S
C1013 H1007 0.930 . S
C1013 C1009 1.400 . S
C1013 C1012 1.385 . S
C1014 C1012 1.478 . S
C1014 C1016 1.381 . S
C1014 C1020 1.383 . S
C1015 C1011 1.495 . S
C1015 H1021 0.959 . S
C1015 H1022 0.961 . S
C1015 H1023 0.960 . S
C1016 C1014 1.381 . S
C1016 C1017 1.394 . S
C1016 H1024 0.930 . S
C1017 C1016 1.394 . S
C1017 C1018 1.383 . S
C1017 H1025 0.929 . S
C1018 C1017 1.383 . S
C1018 C1019 1.377 . S
C1019 H1003 0.930 . S
C1019 C1018 1.377 . S
C1019 C1020 1.379 . S
C1020 H1004 0.931 . S
C1020 C1014 1.383 . S
C1020 C1019 1.379 . S
H1021 C1015 0.959 . S
H1022 C1015 0.961 . S
H1023 C1015 0.960 . S
H1024 C1016 0.930 . S
H1025 C1017 0.929 . S
H1026 C1034 0.929 . S
H1027 C1036 0.930 . S
H1028 C1038 0.930 . S
H1029 C1041 0.929 . S
H1030 C1044 0.930 . S
H1031 C1046 0.960 . S
H1032 C1046 0.960 . S
H1033 C1046 0.960 . S
C1034 H1026 0.929 . S
C1034 C1035 1.377 . S
C1034 C1036 1.384 . S
C1035 C1034 1.377 . S
C1035 C1041 1.390 . S
C1036 H1027 0.930 . S
C1036 C1034 1.384 . S
C1036 C1037 1.372 . S
C1037 C1036 1.372 . S
C1037 C1038 1.400 . S
C1037 C1042 1.490 . S
C1038 H1028 0.930 . S
C1038 C1037 1.400 . S
C1038 C1041 1.386 . S
H1039 C1055 0.930 . S
H1040 C1056 0.931 . S
C1041 H1029 0.929 . S
C1041 C1035 1.390 . S
C1041 C1038 1.386 . S
C1042 C1037 1.490 . S
C1042 C1044 1.395 . S
C1042 C1045 1.403 . S
H1043 C1049 0.930 . S
C1044 H1030 0.930 . S
C1044 C1042 1.395 . S
C1044 C1047 1.403 . S
C1045 C1042 1.403 . S
C1045 C1046 1.524 . S
C1045 C1049 1.400 . S
C1046 H1031 0.960 . S
C1046 H1032 0.960 . S
C1046 H1033 0.960 . S
C1046 C1045 1.524 . S
C1047 C1044 1.403 . S
C1047 C1048 1.392 . S
C1047 C1051 1.495 . S
C1048 C1047 1.392 . S
C1048 C1049 1.385 . S
C1048 C1050 1.478 . S
C1049 H1043 0.930 . S
C1049 C1045 1.400 . S
C1049 C1048 1.385 . S
C1050 C1048 1.478 . S
C1050 C1052 1.381 . S
C1050 C1056 1.383 . S
C1051 C1047 1.495 . S
C1051 H1057 0.959 . S
C1051 H1058 0.961 . S
C1051 H1059 0.960 . S
C1052 C1050 1.381 . S
C1052 C1053 1.394 . S
C1052 H1060 0.930 . S
C1053 C1052 1.394 . S
C1053 C1054 1.383 . S
C1053 H1061 0.929 . S
C1054 C1053 1.383 . S
C1054 C1055 1.377 . S
C1055 H1039 0.930 . S
C1055 C1054 1.377 . S
C1055 C1056 1.379 . S
C1056 H1040 0.931 . S
C1056 C1050 1.383 . S
C1056 C1055 1.379 . S
H1057 C1051 0.959 . S
H1058 C1051 0.961 . S
H1059 C1051 0.960 . S
H1060 C1052 0.930 . S
H1061 C1053 0.929 . S
H1062 C1070 0.929 . S
H1063 C1072 0.930 . S
H1064 C1074 0.930 . S
H1065 C1077 0.929 . S
H1066 C1080 0.930 . S
H1067 C1082 0.960 . S
H1068 C1082 0.960 . S
H1069 C1082 0.960 . S
C1070 H1062 0.929 . S
C1070 C1071 1.377 . S
C1070 C1072 1.384 . S
C1071 C1070 1.377 . S
C1071 C1077 1.390 . S
C1072 H1063 0.930 . S
C1072 C1070 1.384 . S
C1072 C1073 1.372 . S
C1073 C1072 1.372 . S
C1073 C1074 1.400 . S
C1073 C1078 1.490 . S
C1074 H1064 0.930 . S
C1074 C1073 1.400 . S
C1074 C1077 1.386 . S
H1075 C1091 0.930 . S
H1076 C1092 0.931 . S
C1077 H1065 0.929 . S
C1077 C1071 1.390 . S
C1077 C1074 1.386 . S
C1078 C1073 1.490 . S
C1078 C1080 1.395 . S
C1078 C1081 1.403 . S
H1079 C1085 0.930 . S
C1080 H1066 0.930 . S
C1080 C1078 1.395 . S
C1080 C1083 1.403 . S
C1081 C1078 1.403 . S
C1081 C1082 1.524 . S
C1081 C1085 1.400 . S
C1082 H1067 0.960 . S
C1082 H1068 0.960 . S
C1082 H1069 0.960 . S
C1082 C1081 1.524 . S
C1083 C1080 1.403 . S
C1083 C1084 1.392 . S
C1083 C1087 1.495 . S
C1084 C1083 1.392 . S
C1084 C1085 1.385 . S
C1084 C1086 1.478 . S
C1085 H1079 0.930 . S
C1085 C1081 1.400 . S
C1085 C1084 1.385 . S
C1086 C1084 1.478 . S
C1086 C1088 1.381 . S
C1086 C1092 1.383 . S
C1087 C1083 1.495 . S
C1087 H1093 0.959 . S
C1087 H1094 0.961 . S
C1087 H1095 0.960 . S
C1088 C1086 1.381 . S
C1088 C1089 1.394 . S
C1088 H1096 0.930 . S
C1089 C1088 1.394 . S
C1089 C1090 1.383 . S
C1089 H1097 0.929 . S
C1090 C1089 1.383 . S
C1090 C1091 1.377 . S
C1091 H1075 0.930 . S
C1091 C1090 1.377 . S
C1091 C1092 1.379 . S
C1092 H1076 0.931 . S
C1092 C1086 1.383 . S
C1092 C1091 1.379 . S
H1093 C1087 0.959 . S
H1094 C1087 0.961 . S
H1095 C1087 0.960 . S
H1096 C1088 0.930 . S
H1097 C1089 0.929 . S
H1098 C1106 0.929 . S
H1099 C1108 0.930 . S
H1100 C1110 0.930 . S
H1101 C1113 0.929 . S
H1102 C1116 0.930 . S
H1103 C1118 0.960 . S
H1104 C1118 0.960 . S
H1105 C1118 0.960 . S
C1106 H1098 0.929 . S
C1106 C1107 1.377 . S
C1106 C1108 1.384 . S
C1107 C1106 1.377 . S
C1107 C1113 1.390 . S
C1108 H1099 0.930 . S
C1108 C1106 1.384 . S
C1108 C1109 1.372 . S
C1109 C1108 1.372 . S
C1109 C1110 1.400 . S
C1109 C1114 1.490 . S
C1110 H1100 0.930 . S
C1110 C1109 1.400 . S
C1110 C1113 1.386 . S
H1111 C1127 0.930 . S
H1112 C1128 0.931 . S
C1113 H1101 0.929 . S
C1113 C1107 1.390 . S
C1113 C1110 1.386 . S
C1114 C1109 1.490 . S
C1114 C1116 1.395 . S
C1114 C1117 1.403 . S
H1115 C1121 0.930 . S
C1116 H1102 0.930 . S
C1116 C1114 1.395 . S
C1116 C1119 1.403 . S
C1117 C1114 1.403 . S
C1117 C1118 1.524 . S
C1117 C1121 1.400 . S
C1118 H1103 0.960 . S
C1118 H1104 0.960 . S
C1118 H1105 0.960 . S
C1118 C1117 1.524 . S
C1119 C1116 1.403 . S
C1119 C1120 1.392 . S
C1119 C1123 1.495 . S
C1120 C1119 1.392 . S
C1120 C1121 1.385 . S
C1120 C1122 1.478 . S
C1121 H1115 0.930 . S
C1121 C1117 1.400 . S
C1121 C1120 1.385 . S
C1122 C1120 1.478 . S
C1122 C1124 1.381 . S
C1122 C1128 1.383 . S
C1123 C1119 1.495 . S
C1123 H1129 0.959 . S
C1123 H1130 0.961 . S
C1123 H1131 0.960 . S
C1124 C1122 1.381 . S
C1124 C1125 1.394 . S
C1124 H1132 0.930 . S
C1125 C1124 1.394 . S
C1125 C1126 1.383 . S
C1125 H1133 0.929 . S
C1126 C1125 1.383 . S
C1126 C1127 1.377 . S
C1127 H1111 0.930 . S
C1127 C1126 1.377 . S
C1127 C1128 1.379 . S
C1128 H1112 0.931 . S
C1128 C1122 1.383 . S
C1128 C1127 1.379 . S
H1129 C1123 0.959 . S
H1130 C1123 0.961 . S
H1131 C1123 0.960 . S
H1132 C1124 0.930 . S
H1133 C1125 0.929 . S
H1134 C1142 0.929 . S
H1135 C1144 0.930 . S
H1136 C1146 0.930 . S
H1137 C1149 0.929 . S
H1138 C1152 0.930 . S
H1139 C1154 0.960 . S
H1140 C1154 0.960 . S
H1141 C1154 0.960 . S
C1142 H1134 0.929 . S
C1142 C1143 1.377 . S
C1142 C1144 1.384 . S
C1143 C1142 1.377 . S
C1143 C1149 1.390 . S
C1144 H1135 0.930 . S
C1144 C1142 1.384 . S
C1144 C1145 1.372 . S
C1145 C1144 1.372 . S
C1145 C1146 1.400 . S
C1145 C1150 1.490 . S
C1146 H1136 0.930 . S
C1146 C1145 1.400 . S
C1146 C1149 1.386 . S
H1147 C1163 0.930 . S
H1148 C1164 0.931 . S
C1149 H1137 0.929 . S
C1149 C1143 1.390 . S
C1149 C1146 1.386 . S
C1150 C1145 1.490 . S
C1150 C1152 1.395 . S
C1150 C1153 1.403 . S
H1151 C1157 0.930 . S
C1152 H1138 0.930 . S
C1152 C1150 1.395 . S
C1152 C1155 1.403 . S
C1153 C1150 1.403 . S
C1153 C1154 1.524 . S
C1153 C1157 1.400 . S
C1154 H1139 0.960 . S
C1154 H1140 0.960 . S
C1154 H1141 0.960 . S
C1154 C1153 1.524 . S
C1155 C1152 1.403 . S
C1155 C1156 1.392 . S
C1155 C1159 1.495 . S
C1156 C1155 1.392 . S
C1156 C1157 1.385 . S
C1156 C1158 1.478 . S
C1157 H1151 0.930 . S
C1157 C1153 1.400 . S
C1157 C1156 1.385 . S
C1158 C1156 1.478 . S
C1158 C1160 1.381 . S
C1158 C1164 1.383 . S
C1159 C1155 1.495 . S
C1159 H1165 0.959 . S
C1159 H1166 0.961 . S
C1159 H1167 0.960 . S
C1160 C1158 1.381 . S
C1160 C1161 1.394 . S
C1160 H1168 0.930 . S
C1161 C1160 1.394 . S
C1161 C1162 1.383 . S
C1161 H1169 0.929 . S
C1162 C1161 1.383 . S
C1162 C1163 1.377 . S
C1163 H1147 0.930 . S
C1163 C1162 1.377 . S
C1163 C1164 1.379 . S
C1164 H1148 0.931 . S
C1164 C1158 1.383 . S
C1164 C1163 1.379 . S
H1165 C1159 0.959 . S
H1166 C1159 0.961 . S
H1167 C1159 0.960 . S
H1168 C1160 0.930 . S
H1169 C1161 0.929 . S
H1170 C1178 0.929 . S
H1171 C1180 0.930 . S
H1172 C1182 0.930 . S
H1173 C1185 0.929 . S
H1174 C1188 0.930 . S
H1175 C1190 0.960 . S
H1176 C1190 0.960 . S
H1177 C1190 0.960 . S
C1178 H1170 0.929 . S
C1178 C1179 1.377 . S
C1178 C1180 1.384 . S
C1179 C1178 1.377 . S
C1179 C1185 1.390 . S
C1180 H1171 0.930 . S
C1180 C1178 1.384 . S
C1180 C1181 1.372 . S
C1181 C1180 1.372 . S
C1181 C1182 1.400 . S
C1181 C1186 1.490 1_545 S
C1182 H1172 0.930 . S
C1182 C1181 1.400 . S
C1182 C1185 1.386 . S
H1183 C1199 0.930 . S
H1184 C1200 0.931 . S
C1185 H1173 0.929 . S
C1185 C1179 1.390 . S
C1185 C1182 1.386 . S
C1186 C1181 1.490 1_565 S
C1186 C1188 1.395 . S
C1186 C1189 1.403 . S
H1187 C1193 0.930 . S
C1188 H1174 0.930 . S
C1188 C1186 1.395 . S
C1188 C1191 1.403 . S
C1189 C1186 1.403 . S
C1189 C1190 1.524 . S
C1189 C1193 1.400 . S
C1190 H1175 0.960 . S
C1190 H1176 0.960 . S
C1190 H1177 0.960 . S
C1190 C1189 1.524 . S
C1191 C1188 1.403 . S
C1191 C1192 1.392 . S
C1191 C1195 1.495 . S
C1192 C1191 1.392 . S
C1192 C1193 1.385 . S
C1192 C1194 1.478 . S
C1193 H1187 0.930 . S
C1193 C1189 1.400 . S
C1193 C1192 1.385 . S
C1194 C1192 1.478 . S
C1194 C1196 1.381 . S
C1194 C1200 1.383 . S
C1195 C1191 1.495 . S
C1195 H1201 0.959 . S
C1195 H1202 0.961 . S
C1195 H1203 0.960 . S
C1196 C1194 1.381 . S
C1196 C1197 1.394 . S
C1196 H1204 0.930 . S
C1197 C1196 1.394 . S
C1197 C1198 1.383 . S
C1197 H1205 0.929 . S
C1198 C1197 1.383 . S
C1198 C1199 1.377 . S
C1199 H1183 0.930 . S
C1199 C1198 1.377 . S
C1199 C1200 1.379 . S
C1200 H1184 0.931 . S
C1200 C1194 1.383 . S
C1200 C1199 1.379 . S
H1201 C1195 0.959 . S
H1202 C1195 0.961 . S
H1203 C1195 0.960 . S
H1204 C1196 0.930 . S
H1205 C1197 0.929 . S
H1206 C1214 0.929 . S
H1207 C1216 0.930 . S
H1208 C1218 0.930 1_455 S
H1209 C1221 0.929 . S
H1210 C1224 0.930 . S
H1211 C1226 0.960 . S
H1212 C1226 0.960 . S
H1213 C1226 0.960 . S
C1214 H1206 0.929 . S
C1214 C1215 1.377 . S
C1214 C1216 1.384 . S
C1215 C1214 1.377 . S
C1215 C1221 1.390 . S
C1216 H1207 0.930 . S
C1216 C1214 1.384 . S
C1216 C1217 1.372 . S
C1217 C1216 1.372 . S
C1217 C1218 1.400 . S
C1217 C1222 1.490 1_655 S
C1218 H1208 0.930 1_655 S
C1218 C1217 1.400 . S
C1218 C1221 1.386 . S
H1219 C1235 0.930 . S
H1220 C1236 0.931 . S
C1221 H1209 0.929 . S
C1221 C1215 1.390 . S
C1221 C1218 1.386 . S
C1222 C1217 1.490 1_455 S
C1222 C1224 1.395 . S
C1222 C1225 1.403 . S
H1223 C1229 0.930 . S
C1224 H1210 0.930 . S
C1224 C1222 1.395 . S
C1224 C1227 1.403 . S
C1225 C1222 1.403 . S
C1225 C1226 1.524 . S
C1225 C1229 1.400 . S
C1226 H1211 0.960 . S
C1226 H1212 0.960 . S
C1226 H1213 0.960 . S
C1226 C1225 1.524 . S
C1227 C1224 1.403 . S
C1227 C1228 1.392 . S
C1227 C1231 1.495 . S
C1228 C1227 1.392 . S
C1228 C1229 1.385 . S
C1228 C1230 1.478 . S
C1229 H1223 0.930 . S
C1229 C1225 1.400 . S
C1229 C1228 1.385 . S
C1230 C1228 1.478 . S
C1230 C1232 1.381 . S
C1230 C1236 1.383 . S
C1231 C1227 1.495 . S
C1231 H1237 0.959 . S
C1231 H1238 0.961 . S
C1231 H1239 0.960 . S
C1232 C1230 1.381 . S
C1232 C1233 1.394 . S
C1232 H1240 0.930 . S
C1233 C1232 1.394 . S
C1233 C1234 1.383 . S
C1233 H1241 0.929 . S
C1234 C1233 1.383 . S
C1234 C1235 1.377 . S
C1235 H1219 0.930 . S
C1235 C1234 1.377 . S
C1235 C1236 1.379 . S
C1236 H1220 0.931 . S
C1236 C1230 1.383 . S
C1236 C1235 1.379 . S
H1237 C1231 0.959 . S
H1238 C1231 0.961 . S
H1239 C1231 0.960 . S
H1240 C1232 0.930 . S
H1241 C1233 0.929 . S
H1242 C1250 0.929 . S
H1243 C1252 0.930 . S
H1244 C1254 0.930 . S
H1245 C1257 0.929 . S
H1246 C1260 0.930 . S
H1247 C1262 0.960 . S
H1248 C1262 0.960 . S
H1249 C1262 0.960 . S
C1250 H1242 0.929 . S
C1250 C1251 1.377 . S
C1250 C1252 1.384 . S
C1251 C1250 1.377 . S
C1251 C1257 1.390 . S
C1252 H1243 0.930 . S
C1252 C1250 1.384 . S
C1252 C1253 1.372 . S
C1253 C1252 1.372 . S
C1253 C1254 1.400 . S
C1253 C1258 1.490 . S
C1254 H1244 0.930 . S
C1254 C1253 1.400 . S
C1254 C1257 1.386 . S
H1255 C1271 0.930 . S
H1256 C1272 0.931 . S
C1257 H1245 0.929 . S
C1257 C1251 1.390 . S
C1257 C1254 1.386 . S
C1258 C1253 1.490 . S
C1258 C1260 1.395 . S
C1258 C1261 1.403 . S
H1259 C1265 0.930 . S
C1260 H1246 0.930 . S
C1260 C1258 1.395 . S
C1260 C1263 1.403 . S
C1261 C1258 1.403 . S
C1261 C1262 1.524 . S
C1261 C1265 1.400 . S
C1262 H1247 0.960 . S
C1262 H1248 0.960 . S
C1262 H1249 0.960 . S
C1262 C1261 1.524 . S
C1263 C1260 1.403 . S
C1263 C1264 1.392 . S
C1263 C1267 1.495 . S
C1264 C1263 1.392 . S
C1264 C1265 1.385 . S
C1264 C1266 1.478 . S
C1265 H1259 0.930 . S
C1265 C1261 1.400 . S
C1265 C1264 1.385 . S
C1266 C1264 1.478 . S
C1266 C1268 1.381 . S
C1266 C1272 1.383 . S
C1267 C1263 1.495 . S
C1267 H1273 0.959 . S
C1267 H1274 0.961 . S
C1267 H1275 0.960 . S
C1268 C1266 1.381 . S
C1268 C1269 1.394 . S
C1268 H1276 0.930 . S
C1269 C1268 1.394 . S
C1269 C1270 1.383 . S
C1269 H1277 0.929 . S
C1270 C1269 1.383 . S
C1270 C1271 1.377 . S
C1271 H1255 0.930 . S
C1271 C1270 1.377 . S
C1271 C1272 1.379 . S
C1272 H1256 0.931 . S
C1272 C1266 1.383 . S
C1272 C1271 1.379 . S
H1273 C1267 0.959 . S
H1274 C1267 0.961 . S
H1275 C1267 0.960 . S
H1276 C1268 0.930 . S
H1277 C1269 0.929 . S
H1278 C1286 0.929 . S
H1279 C1288 0.930 . S
H1280 C1290 0.930 . S
H1281 C1293 0.929 . S
H1282 C1296 0.930 . S
H1283 C1298 0.960 . S
H1284 C1298 0.960 . S
H1285 C1298 0.960 . S
C1286 H1278 0.929 . S
C1286 C1287 1.377 . S
C1286 C1288 1.384 . S
C1287 C1286 1.377 . S
C1287 C1293 1.390 . S
C1288 H1279 0.930 . S
C1288 C1286 1.384 . S
C1288 C1289 1.372 . S
C1289 C1288 1.372 . S
C1289 C1290 1.400 . S
C1289 C1294 1.490 . S
C1290 H1280 0.930 . S
C1290 C1289 1.400 . S
C1290 C1293 1.386 . S
H1291 C1307 0.930 . S
H1292 C1308 0.931 . S
C1293 H1281 0.929 . S
C1293 C1287 1.390 . S
C1293 C1290 1.386 . S
C1294 C1289 1.490 . S
C1294 C1296 1.395 . S
C1294 C1297 1.403 . S
H1295 C1301 0.930 . S
C1296 H1282 0.930 . S
C1296 C1294 1.395 . S
C1296 C1299 1.403 . S
C1297 C1294 1.403 . S
C1297 C1298 1.524 . S
C1297 C1301 1.400 . S
C1298 H1283 0.960 . S
C1298 H1284 0.960 . S
C1298 H1285 0.960 . S
C1298 C1297 1.524 . S
C1299 C1296 1.403 . S
C1299 C1300 1.392 . S
C1299 C1303 1.495 . S
C1300 C1299 1.392 . S
C1300 C1301 1.385 . S
C1300 C1302 1.478 . S
C1301 H1295 0.930 . S
C1301 C1297 1.400 . S
C1301 C1300 1.385 . S
C1302 C1300 1.478 . S
C1302 C1304 1.381 . S
C1302 C1308 1.383 . S
C1303 C1299 1.495 . S
C1303 H1309 0.959 . S
C1303 H1310 0.961 . S
C1303 H1311 0.960 . S
C1304 C1302 1.381 . S
C1304 C1305 1.394 . S
C1304 H1312 0.930 . S
C1305 C1304 1.394 . S
C1305 C1306 1.383 . S
C1305 H1313 0.929 . S
C1306 C1305 1.383 . S
C1306 C1307 1.377 . S
C1307 H1291 0.930 . S
C1307 C1306 1.377 . S
C1307 C1308 1.379 . S
C1308 H1292 0.931 . S
C1308 C1302 1.383 . S
C1308 C1307 1.379 . S
H1309 C1303 0.959 . S
H1310 C1303 0.961 . S
H1311 C1303 0.960 . S
H1312 C1304 0.930 . S
H1313 C1305 0.929 . S
H1314 C1322 0.929 . S
H1315 C1324 0.930 . S
H1316 C1326 0.930 . S
H1317 C1329 0.929 . S
H1318 C1332 0.930 . S
H1319 C1334 0.960 . S
H1320 C1334 0.960 . S
H1321 C1334 0.960 . S
C1322 H1314 0.929 . S
C1322 C1323 1.377 . S
C1322 C1324 1.384 . S
C1323 C1322 1.377 . S
C1323 C1329 1.390 . S
C1324 H1315 0.930 . S
C1324 C1322 1.384 . S
C1324 C1325 1.372 . S
C1325 C1324 1.372 . S
C1325 C1326 1.400 . S
C1325 C1330 1.490 . S
C1326 H1316 0.930 . S
C1326 C1325 1.400 . S
C1326 C1329 1.386 . S
H1327 C1343 0.930 . S
H1328 C1344 0.931 . S
C1329 H1317 0.929 . S
C1329 C1323 1.390 . S
C1329 C1326 1.386 . S
C1330 C1325 1.490 . S
C1330 C1332 1.395 . S
C1330 C1333 1.403 . S
H1331 C1337 0.930 . S
C1332 H1318 0.930 . S
C1332 C1330 1.395 . S
C1332 C1335 1.403 . S
C1333 C1330 1.403 . S
C1333 C1334 1.524 . S
C1333 C1337 1.400 . S
C1334 H1319 0.960 . S
C1334 H1320 0.960 . S
C1334 H1321 0.960 . S
C1334 C1333 1.524 . S
C1335 C1332 1.403 . S
C1335 C1336 1.392 . S
C1335 C1339 1.495 . S
C1336 C1335 1.392 . S
C1336 C1337 1.385 . S
C1336 C1338 1.478 . S
C1337 H1331 0.930 . S
C1337 C1333 1.400 . S
C1337 C1336 1.385 . S
C1338 C1336 1.478 . S
C1338 C1340 1.381 . S
C1338 C1344 1.383 . S
C1339 C1335 1.495 . S
C1339 H1345 0.959 . S
C1339 H1346 0.961 . S
C1339 H1347 0.960 . S
C1340 C1338 1.381 . S
C1340 C1341 1.394 . S
C1340 H1348 0.930 . S
C1341 C1340 1.394 . S
C1341 C1342 1.383 . S
C1341 H1349 0.929 . S
C1342 C1341 1.383 . S
C1342 C1343 1.377 . S
C1343 H1327 0.930 . S
C1343 C1342 1.377 . S
C1343 C1344 1.379 . S
C1344 H1328 0.931 . S
C1344 C1338 1.383 . S
C1344 C1343 1.379 . S
H1345 C1339 0.959 . S
H1346 C1339 0.961 . S
H1347 C1339 0.960 . S
H1348 C1340 0.930 . S
H1349 C1341 0.929 . S
H1350 C1358 0.929 . S
H1351 C1360 0.930 . S
H1352 C1362 0.930 . S
H1353 C1365 0.929 . S
H1354 C1368 0.930 . S
H1355 C1370 0.960 . S
H1356 C1370 0.960 . S
H1357 C1370 0.960 . S
C1358 H1350 0.929 . S
C1358 C1359 1.377 . S
C1358 C1360 1.384 . S
C1359 C1358 1.377 . S
C1359 C1365 1.390 . S
C1360 H1351 0.930 . S
C1360 C1358 1.384 . S
C1360 C1361 1.372 . S
C1361 C1360 1.372 . S
C1361 C1362 1.400 . S
C1361 C1366 1.490 . S
C1362 H1352 0.930 . S
C1362 C1361 1.400 . S
C1362 C1365 1.386 . S
H1363 C1379 0.930 . S
H1364 C1380 0.931 . S
C1365 H1353 0.929 . S
C1365 C1359 1.390 . S
C1365 C1362 1.386 . S
C1366 C1361 1.490 . S
C1366 C1368 1.395 . S
C1366 C1369 1.403 . S
H1367 C1373 0.930 . S
C1368 H1354 0.930 . S
C1368 C1366 1.395 . S
C1368 C1371 1.403 . S
C1369 C1366 1.403 . S
C1369 C1370 1.524 . S
C1369 C1373 1.400 . S
C1370 H1355 0.960 . S
C1370 H1356 0.960 . S
C1370 H1357 0.960 . S
C1370 C1369 1.524 . S
C1371 C1368 1.403 . S
C1371 C1372 1.392 . S
C1371 C1375 1.495 . S
C1372 C1371 1.392 . S
C1372 C1373 1.385 . S
C1372 C1374 1.478 . S
C1373 H1367 0.930 . S
C1373 C1369 1.400 . S
C1373 C1372 1.385 . S
C1374 C1372 1.478 . S
C1374 C1376 1.381 . S
C1374 C1380 1.383 . S
C1375 C1371 1.495 . S
C1375 H1381 0.959 . S
C1375 H1382 0.961 . S
C1375 H1383 0.960 . S
C1376 C1374 1.381 . S
C1376 C1377 1.394 . S
C1376 H1384 0.930 . S
C1377 C1376 1.394 . S
C1377 C1378 1.383 . S
C1377 H1385 0.929 . S
C1378 C1377 1.383 . S
C1378 C1379 1.377 . S
C1379 H1363 0.930 . S
C1379 C1378 1.377 . S
C1379 C1380 1.379 . S
C1380 H1364 0.931 . S
C1380 C1374 1.383 . S
C1380 C1379 1.379 . S
H1381 C1375 0.959 . S
H1382 C1375 0.961 . S
H1383 C1375 0.960 . S
H1384 C1376 0.930 . S
H1385 C1377 0.929 . S
H1386 C1394 0.929 . S
H1387 C1396 0.930 . S
H1388 C1398 0.930 . S
H1389 C1401 0.929 . S
H1390 C1404 0.930 . S
H1391 C1406 0.960 1_545 S
H1392 C1406 0.960 . S
H1393 C1406 0.960 . S
C1394 H1386 0.929 . S
C1394 C1395 1.377 . S
C1394 C1396 1.384 . S
C1395 C1394 1.377 . S
C1395 C1401 1.390 . S
C1396 H1387 0.930 . S
C1396 C1394 1.384 . S
C1396 C1397 1.372 . S
C1397 C1396 1.372 . S
C1397 C1398 1.400 . S
C1397 C1402 1.490 . S
C1398 H1388 0.930 . S
C1398 C1397 1.400 . S
C1398 C1401 1.386 . S
H1399 C1415 0.930 . S
H1400 C1416 0.931 . S
C1401 H1389 0.929 . S
C1401 C1395 1.390 . S
C1401 C1398 1.386 . S
C1402 C1397 1.490 . S
C1402 C1404 1.395 . S
C1402 C1405 1.401 1_565 S
H1403 C1409 0.930 . S
C1404 H1390 0.930 . S
C1404 C1402 1.395 . S
C1404 C1407 1.403 1_565 S
C1405 C1402 1.401 1_545 S
C1405 C1406 1.524 1_545 S
C1405 C1409 1.401 . S
C1406 H1391 0.960 1_565 S
C1406 H1392 0.960 . S
C1406 H1393 0.960 . S
C1406 C1405 1.524 1_565 S
C1407 C1404 1.403 1_545 S
C1407 C1408 1.392 . S
C1407 C1411 1.495 . S
C1408 C1407 1.392 . S
C1408 C1409 1.385 . S
C1408 C1410 1.478 . S
C1409 H1403 0.930 . S
C1409 C1405 1.401 . S
C1409 C1408 1.385 . S
C1410 C1408 1.478 . S
C1410 C1412 1.381 . S
C1410 C1416 1.383 . S
C1411 C1407 1.495 . S
C1411 H1417 0.959 1_545 S
C1411 H1418 0.961 . S
C1411 H1419 0.960 . S
C1412 C1410 1.381 . S
C1412 C1413 1.394 . S
C1412 H1420 0.930 . S
C1413 C1412 1.394 . S
C1413 C1414 1.383 . S
C1413 H1421 0.929 . S
C1414 C1413 1.383 . S
C1414 C1415 1.377 . S
C1415 H1399 0.930 . S
C1415 C1414 1.377 . S
C1415 C1416 1.379 . S
C1416 H1400 0.931 . S
C1416 C1410 1.383 . S
C1416 C1415 1.379 . S
H1417 C1411 0.959 1_565 S
H1418 C1411 0.961 . S
H1419 C1411 0.960 . S
H1420 C1412 0.930 . S
H1421 C1413 0.929 . S
H1422 C1430 0.929 . S
H1423 C1432 0.930 . S
H1424 C1434 0.930 . S
H1425 C1437 0.929 . S
H1426 C1440 0.930 . S
H1427 C1442 0.960 1_655 S
H1428 C1442 0.960 . S
H1429 C1442 0.960 . S
C1430 H1422 0.929 . S
C1430 C1431 1.377 . S
C1430 C1432 1.384 . S
C1431 C1430 1.377 . S
C1431 C1437 1.390 . S
C1432 H1423 0.930 . S
C1432 C1430 1.384 . S
C1432 C1433 1.372 . S
C1433 C1432 1.372 . S
C1433 C1434 1.400 . S
C1433 C1438 1.490 . S
C1434 H1424 0.930 . S
C1434 C1433 1.400 . S
C1434 C1437 1.386 . S
H1435 C1451 0.930 . S
H1436 C1452 0.931 . S
C1437 H1425 0.929 . S
C1437 C1431 1.390 . S
C1437 C1434 1.386 . S
C1438 C1433 1.490 . S
C1438 C1440 1.395 . S
C1438 C1441 1.403 . S
H1439 C1445 0.930 . S
C1440 H1426 0.930 . S
C1440 C1438 1.395 . S
C1440 C1443 1.403 . S
C1441 C1438 1.403 . S
C1441 C1442 1.524 . S
C1441 C1445 1.400 1_455 S
C1442 H1427 0.960 1_455 S
C1442 H1428 0.960 . S
C1442 H1429 0.960 . S
C1442 C1441 1.524 . S
C1443 C1440 1.403 . S
C1443 C1444 1.392 1_455 S
C1443 C1447 1.495 . S
C1444 C1443 1.392 1_655 S
C1444 C1445 1.385 . S
C1444 C1446 1.478 . S
C1445 H1439 0.930 . S
C1445 C1441 1.400 1_655 S
C1445 C1444 1.385 . S
C1446 C1444 1.478 . S
C1446 C1448 1.381 . S
C1446 C1452 1.383 . S
C1447 C1443 1.495 . S
C1447 H1453 0.959 . S
C1447 H1454 0.961 . S
C1447 H1455 0.960 1_455 S
C1448 C1446 1.381 . S
C1448 C1449 1.394 . S
C1448 H1456 0.930 . S
C1449 C1448 1.394 . S
C1449 C1450 1.383 . S
C1449 H1457 0.929 . S
C1450 C1449 1.383 . S
C1450 C1451 1.377 . S
C1451 H1435 0.930 . S
C1451 C1450 1.377 . S
C1451 C1452 1.379 . S
C1452 H1436 0.931 . S
C1452 C1446 1.383 . S
C1452 C1451 1.379 . S
H1453 C1447 0.959 . S
H1454 C1447 0.961 . S
H1455 C1447 0.960 1_655 S
H1456 C1448 0.930 . S
H1457 C1449 0.929 . S
H1458 C1466 0.929 . S
H1459 C1468 0.930 . S
H1460 C1470 0.930 . S
H1461 C1473 0.929 . S
H1462 C1476 0.930 . S
H1463 C1478 0.960 . S
H1464 C1478 0.960 . S
H1465 C1478 0.960 . S
C1466 H1458 0.929 . S
C1466 C1467 1.377 . S
C1466 C1468 1.384 . S
C1467 C1466 1.377 . S
C1467 C1473 1.390 . S
C1468 H1459 0.930 . S
C1468 C1466 1.384 . S
C1468 C1469 1.372 . S
C1469 C1468 1.372 . S
C1469 C1470 1.400 . S
C1469 C1474 1.490 . S
C1470 H1460 0.930 . S
C1470 C1469 1.400 . S
C1470 C1473 1.386 . S
H1471 C1487 0.930 . S
H1472 C1488 0.931 . S
C1473 H1461 0.929 . S
C1473 C1467 1.390 . S
C1473 C1470 1.386 . S
C1474 C1469 1.490 . S
C1474 C1476 1.395 . S
C1474 C1477 1.403 . S
H1475 C1481 0.930 . S
C1476 H1462 0.930 . S
C1476 C1474 1.395 . S
C1476 C1479 1.403 . S
C1477 C1474 1.403 . S
C1477 C1478 1.524 . S
C1477 C1481 1.400 . S
C1478 H1463 0.960 . S
C1478 H1464 0.960 . S
C1478 H1465 0.960 . S
C1478 C1477 1.524 . S
C1479 C1476 1.403 . S
C1479 C1480 1.392 . S
C1479 C1483 1.495 . S
C1480 C1479 1.392 . S
C1480 C1481 1.385 . S
C1480 C1482 1.478 . S
C1481 H1475 0.930 . S
C1481 C1477 1.400 . S
C1481 C1480 1.385 . S
C1482 C1480 1.478 . S
C1482 C1484 1.381 . S
C1482 C1488 1.383 . S
C1483 C1479 1.495 . S
C1483 H1489 0.959 . S
C1483 H1490 0.961 . S
C1483 H1491 0.960 . S
C1484 C1482 1.381 . S
C1484 C1485 1.394 . S
C1484 H1492 0.930 . S
C1485 C1484 1.394 . S
C1485 C1486 1.383 . S
C1485 H1493 0.929 . S
C1486 C1485 1.383 . S
C1486 C1487 1.377 . S
C1487 H1471 0.930 . S
C1487 C1486 1.377 . S
C1487 C1488 1.379 . S
C1488 H1472 0.931 . S
C1488 C1482 1.383 . S
C1488 C1487 1.379 . S
H1489 C1483 0.959 . S
H1490 C1483 0.961 . S
H1491 C1483 0.960 . S
H1492 C1484 0.930 . S
H1493 C1485 0.929 . S
H1494 C1502 0.929 . S
H1495 C1504 0.930 . S
H1496 C1506 0.930 . S
H1497 C1509 0.929 . S
H1498 C1512 0.930 . S
H1499 C1514 0.960 . S
H1500 C1514 0.962 1_455 S
H1501 C1514 0.962 1_455 S
C1502 H1494 0.929 . S
C1502 C1503 1.377 . S
C1502 C1504 1.384 . S
C1503 C1502 1.377 . S
C1503 C1509 1.390 . S
C1504 H1495 0.930 . S
C1504 C1502 1.384 . S
C1504 C1505 1.372 . S
C1505 C1504 1.372 . S
C1505 C1506 1.400 . S
C1505 C1510 1.490 1_455 S
C1506 H1496 0.930 . S
C1506 C1505 1.400 . S
C1506 C1509 1.386 . S
H1507 C1523 0.930 . S
H1508 C1524 0.931 . S
C1509 H1497 0.929 . S
C1509 C1503 1.390 . S
C1509 C1506 1.386 . S
C1510 C1505 1.490 1_655 S
C1510 C1512 1.395 . S
C1510 C1513 1.403 . S
H1511 C1517 0.930 . S
C1512 H1498 0.930 . S
C1512 C1510 1.395 . S
C1512 C1515 1.403 . S
C1513 C1510 1.403 . S
C1513 C1514 1.521 . S
C1513 C1517 1.400 . S
C1514 H1499 0.960 . S
C1514 H1500 0.962 1_655 S
C1514 H1501 0.962 1_655 S
C1514 C1513 1.521 . S
C1515 C1512 1.403 . S
C1515 C1516 1.392 . S
C1515 C1519 1.495 . S
C1516 C1515 1.392 . S
C1516 C1517 1.385 . S
C1516 C1518 1.478 . S
C1517 H1511 0.930 . S
C1517 C1513 1.400 . S
C1517 C1516 1.385 . S
C1518 C1516 1.478 . S
C1518 C1520 1.381 . S
C1518 C1524 1.383 . S
C1519 C1515 1.495 . S
C1519 H1525 0.959 . S
C1519 H1526 0.961 . S
C1519 H1527 0.960 . S
C1520 C1518 1.381 . S
C1520 C1521 1.394 . S
C1520 H1528 0.930 . S
C1521 C1520 1.394 . S
C1521 C1522 1.383 . S
C1521 H1529 0.929 . S
C1522 C1521 1.383 . S
C1522 C1523 1.377 . S
C1523 H1507 0.930 . S
C1523 C1522 1.377 . S
C1523 C1524 1.379 . S
C1524 H1508 0.931 . S
C1524 C1518 1.383 . S
C1524 C1523 1.379 . S
H1525 C1519 0.959 . S
H1526 C1519 0.961 . S
H1527 C1519 0.960 . S
H1528 C1520 0.930 . S
H1529 C1521 0.929 . S
H1530 C1538 0.929 . S
H1531 C1540 0.930 . S
H1532 C1542 0.930 . S
H1533 C1545 0.929 . S
H1534 C1548 0.930 . S
H1535 C1550 0.960 . S
H1536 C1550 0.960 . S
H1537 C1550 0.960 . S
C1538 H1530 0.929 . S
C1538 C1539 1.377 . S
C1538 C1540 1.384 . S
C1539 C1538 1.377 . S
C1539 C1545 1.390 . S
C1540 H1531 0.930 . S
C1540 C1538 1.384 . S
C1540 C1541 1.372 . S
C1541 C1540 1.372 . S
C1541 C1542 1.400 . S
C1541 C1546 1.490 . S
C1542 H1532 0.930 . S
C1542 C1541 1.400 . S
C1542 C1545 1.386 . S
H1543 C1559 0.930 . S
H1544 C1560 0.931 . S
C1545 H1533 0.929 . S
C1545 C1539 1.390 . S
C1545 C1542 1.386 . S
C1546 C1541 1.490 . S
C1546 C1548 1.395 . S
C1546 C1549 1.403 . S
H1547 C1553 0.930 . S
C1548 H1534 0.930 . S
C1548 C1546 1.395 . S
C1548 C1551 1.403 . S
C1549 C1546 1.403 . S
C1549 C1550 1.524 . S
C1549 C1553 1.400 . S
C1550 H1535 0.960 . S
C1550 H1536 0.960 . S
C1550 H1537 0.960 . S
C1550 C1549 1.524 . S
C1551 C1548 1.403 . S
C1551 C1552 1.392 . S
C1551 C1555 1.495 . S
C1552 C1551 1.392 . S
C1552 C1553 1.385 . S
C1552 C1554 1.478 . S
C1553 H1547 0.930 . S
C1553 C1549 1.400 . S
C1553 C1552 1.385 . S
C1554 C1552 1.478 . S
C1554 C1556 1.381 . S
C1554 C1560 1.383 . S
C1555 C1551 1.495 . S
C1555 H1561 0.959 . S
C1555 H1562 0.961 . S
C1555 H1563 0.960 . S
C1556 C1554 1.381 . S
C1556 C1557 1.394 . S
C1556 H1564 0.930 . S
C1557 C1556 1.394 . S
C1557 C1558 1.383 . S
C1557 H1565 0.929 . S
C1558 C1557 1.383 . S
C1558 C1559 1.377 . S
C1559 H1543 0.930 . S
C1559 C1558 1.377 . S
C1559 C1560 1.379 . S
C1560 H1544 0.931 . S
C1560 C1554 1.383 . S
C1560 C1559 1.379 . S
H1561 C1555 0.959 . S
H1562 C1555 0.961 . S
H1563 C1555 0.960 . S
H1564 C1556 0.930 . S
H1565 C1557 0.929 . S
H1566 C1574 0.929 . S
H1567 C1576 0.930 . S
H1568 C1578 0.930 . S
H1569 C1581 0.929 . S
H1570 C1584 0.930 . S
H1571 C1586 0.960 . S
H1572 C1586 0.960 . S
H1573 C1586 0.960 . S
C1574 H1566 0.929 . S
C1574 C1575 1.377 . S
C1574 C1576 1.384 . S
C1575 C1574 1.377 . S
C1575 C1581 1.390 . S
C1576 H1567 0.930 . S
C1576 C1574 1.384 . S
C1576 C1577 1.372 . S
C1577 C1576 1.372 . S
C1577 C1578 1.400 . S
C1577 C1582 1.490 1_565 S
C1578 H1568 0.930 . S
C1578 C1577 1.400 . S
C1578 C1581 1.386 . S
H1579 C1595 0.930 . S
H1580 C1596 0.931 . S
C1581 H1569 0.929 . S
C1581 C1575 1.390 . S
C1581 C1578 1.386 . S
C1582 C1577 1.490 1_545 S
C1582 C1584 1.395 . S
C1582 C1585 1.403 . S
H1583 C1589 0.930 . S
C1584 H1570 0.930 . S
C1584 C1582 1.395 . S
C1584 C1587 1.403 . S
C1585 C1582 1.403 . S
C1585 C1586 1.524 . S
C1585 C1589 1.400 . S
C1586 H1571 0.960 . S
C1586 H1572 0.960 . S
C1586 H1573 0.960 . S
C1586 C1585 1.524 . S
C1587 C1584 1.403 . S
C1587 C1588 1.392 . S
C1587 C1591 1.495 . S
C1588 C1587 1.392 . S
C1588 C1589 1.385 . S
C1588 C1590 1.478 . S
C1589 H1583 0.930 . S
C1589 C1585 1.400 . S
C1589 C1588 1.385 . S
C1590 C1588 1.478 . S
C1590 C1592 1.381 . S
C1590 C1596 1.383 . S
C1591 C1587 1.495 . S
C1591 H1597 0.959 . S
C1591 H1598 0.961 . S
C1591 H1599 0.960 . S
C1592 C1590 1.381 . S
C1592 C1593 1.394 . S
C1592 H1600 0.930 . S
C1593 C1592 1.394 . S
C1593 C1594 1.383 . S
C1593 H1601 0.929 . S
C1594 C1593 1.383 . S
C1594 C1595 1.377 . S
C1595 H1579 0.930 . S
C1595 C1594 1.377 . S
C1595 C1596 1.379 . S
C1596 H1580 0.931 . S
C1596 C1590 1.383 . S
C1596 C1595 1.379 . S
H1597 C1591 0.959 . S
H1598 C1591 0.961 . S
H1599 C1591 0.960 . S
H1600 C1592 0.930 . S
H1601 C1593 0.929 . S
H1602 C1610 0.929 . S
H1603 C1612 0.930 . S
H1604 C1614 0.930 . S
H1605 C1617 0.929 . S
H1606 C1620 0.930 . S
H1607 C1622 0.960 . S
H1608 C1622 0.960 . S
H1609 C1622 0.960 . S
C1610 H1602 0.929 . S
C1610 C1611 1.377 . S
C1610 C1612 1.384 . S
C1611 C1610 1.377 . S
C1611 C1617 1.390 . S
C1612 H1603 0.930 . S
C1612 C1610 1.384 . S
C1612 C1613 1.372 . S
C1613 C1612 1.372 . S
C1613 C1614 1.400 . S
C1613 C1618 1.490 . S
C1614 H1604 0.930 . S
C1614 C1613 1.400 . S
C1614 C1617 1.386 . S
H1615 C1631 0.930 . S
H1616 C1632 0.931 . S
C1617 H1605 0.929 . S
C1617 C1611 1.390 . S
C1617 C1614 1.386 . S
C1618 C1613 1.490 . S
C1618 C1620 1.395 . S
C1618 C1621 1.403 . S
H1619 C1625 0.930 . S
C1620 H1606 0.930 . S
C1620 C1618 1.395 . S
C1620 C1623 1.403 . S
C1621 C1618 1.403 . S
C1621 C1622 1.524 . S
C1621 C1625 1.400 . S
C1622 H1607 0.960 . S
C1622 H1608 0.960 . S
C1622 H1609 0.960 . S
C1622 C1621 1.524 . S
C1623 C1620 1.403 . S
C1623 C1624 1.392 . S
C1623 C1627 1.495 . S
C1624 C1623 1.392 . S
C1624 C1625 1.385 . S
C1624 C1626 1.478 . S
C1625 H1619 0.930 . S
C1625 C1621 1.400 . S
C1625 C1624 1.385 . S
C1626 C1624 1.478 . S
C1626 C1628 1.381 . S
C1626 C1632 1.383 . S
C1627 C1623 1.495 . S
C1627 H1633 0.959 . S
C1627 H1634 0.961 . S
C1627 H1635 0.960 . S
C1628 C1626 1.381 . S
C1628 C1629 1.394 . S
C1628 H1636 0.930 . S
C1629 C1628 1.394 . S
C1629 C1630 1.383 . S
C1629 H1637 0.929 . S
C1630 C1629 1.383 . S
C1630 C1631 1.377 . S
C1631 H1615 0.930 . S
C1631 C1630 1.377 . S
C1631 C1632 1.379 . S
C1632 H1616 0.931 . S
C1632 C1626 1.383 . S
C1632 C1631 1.379 . S
H1633 C1627 0.959 . S
H1634 C1627 0.961 . S
H1635 C1627 0.960 . S
H1636 C1628 0.930 . S
H1637 C1629 0.929 . S
H1638 C1646 0.929 . S
H1639 C1648 0.930 . S
H1640 C1650 0.930 . S
H1641 C1653 0.929 . S
H1642 C1656 0.930 . S
H1643 C1658 0.960 . S
H1644 C1658 0.960 . S
H1645 C1658 0.960 . S
C1646 H1638 0.929 . S
C1646 C1647 1.377 . S
C1646 C1648 1.384 . S
C1647 C1646 1.377 . S
C1647 C1653 1.390 . S
C1648 H1639 0.930 . S
C1648 C1646 1.384 . S
C1648 C1649 1.372 . S
C1649 C1648 1.372 . S
C1649 C1650 1.400 . S
C1649 C1654 1.490 . S
C1650 H1640 0.930 . S
C1650 C1649 1.400 . S
C1650 C1653 1.386 . S
H1651 C1667 0.930 . S
H1652 C1668 0.931 . S
C1653 H1641 0.929 . S
C1653 C1647 1.390 . S
C1653 C1650 1.386 . S
C1654 C1649 1.490 . S
C1654 C1656 1.395 . S
C1654 C1657 1.403 . S
H1655 C1661 0.930 . S
C1656 H1642 0.930 . S
C1656 C1654 1.395 . S
C1656 C1659 1.403 . S
C1657 C1654 1.403 . S
C1657 C1658 1.524 . S
C1657 C1661 1.400 . S
C1658 H1643 0.960 . S
C1658 H1644 0.960 . S
C1658 H1645 0.960 . S
C1658 C1657 1.524 . S
C1659 C1656 1.403 . S
C1659 C1660 1.392 . S
C1659 C1663 1.495 . S
C1660 C1659 1.392 . S
C1660 C1661 1.385 . S
C1660 C1662 1.478 . S
C1661 H1655 0.930 . S
C1661 C1657 1.400 . S
C1661 C1660 1.385 . S
C1662 C1660 1.478 . S
C1662 C1664 1.381 . S
C1662 C1668 1.383 . S
C1663 C1659 1.495 . S
C1663 H1669 0.959 . S
C1663 H1670 0.961 . S
C1663 H1671 0.960 . S
C1664 C1662 1.381 . S
C1664 C1665 1.394 . S
C1664 H1672 0.930 . S
C1665 C1664 1.394 . S
C1665 C1666 1.383 . S
C1665 H1673 0.929 . S
C1666 C1665 1.383 . S
C1666 C1667 1.377 . S
C1667 H1651 0.930 . S
C1667 C1666 1.377 . S
C1667 C1668 1.379 . S
C1668 H1652 0.931 . S
C1668 C1662 1.383 . S
C1668 C1667 1.379 . S
H1669 C1663 0.959 . S
H1670 C1663 0.961 . S
H1671 C1663 0.960 . S
H1672 C1664 0.930 . S
H1673 C1665 0.929 . S
H1674 C1682 0.929 . S
H1675 C1684 0.930 . S
H1676 C1686 0.930 . S
H1677 C1689 0.929 . S
H1678 C1692 0.930 . S
H1679 C1694 0.960 . S
H1680 C1694 0.960 . S
H1681 C1694 0.960 . S
C1682 H1674 0.929 . S
C1682 C1683 1.377 . S
C1682 C1684 1.384 . S
C1683 C1682 1.377 . S
C1683 C1689 1.390 . S
C1684 H1675 0.930 . S
C1684 C1682 1.384 . S
C1684 C1685 1.372 . S
C1685 C1684 1.372 . S
C1685 C1686 1.400 . S
C1685 C1690 1.490 . S
C1686 H1676 0.930 . S
C1686 C1685 1.400 . S
C1686 C1689 1.386 . S
H1687 C1703 0.930 . S
H1688 C1704 0.931 . S
C1689 H1677 0.929 . S
C1689 C1683 1.390 . S
C1689 C1686 1.386 . S
C1690 C1685 1.490 . S
C1690 C1692 1.395 . S
C1690 C1693 1.403 . S
H1691 C1697 0.930 . S
C1692 H1678 0.930 . S
C1692 C1690 1.395 . S
C1692 C1695 1.403 . S
C1693 C1690 1.403 . S
C1693 C1694 1.524 . S
C1693 C1697 1.400 . S
C1694 H1679 0.960 . S
C1694 H1680 0.960 . S
C1694 H1681 0.960 . S
C1694 C1693 1.524 . S
C1695 C1692 1.403 . S
C1695 C1696 1.392 . S
C1695 C1699 1.495 . S
C1696 C1695 1.392 . S
C1696 C1697 1.385 . S
C1696 C1698 1.478 . S
C1697 H1691 0.930 . S
C1697 C1693 1.400 . S
C1697 C1696 1.385 . S
C1698 C1696 1.478 . S
C1698 C1700 1.381 . S
C1698 C1704 1.383 . S
C1699 C1695 1.495 . S
C1699 H1705 0.959 . S
C1699 H1706 0.961 . S
C1699 H1707 0.960 . S
C1700 C1698 1.381 . S
C1700 C1701 1.394 . S
C1700 H1708 0.930 . S
C1701 C1700 1.394 . S
C1701 C1702 1.383 . S
C1701 H1709 0.929 . S
C1702 C1701 1.383 . S
C1702 C1703 1.377 . S
C1703 H1687 0.930 . S
C1703 C1702 1.377 . S
C1703 C1704 1.379 . S
C1704 H1688 0.931 . S
C1704 C1698 1.383 . S
C1704 C1703 1.379 . S
H1705 C1699 0.959 . S
H1706 C1699 0.961 . S
H1707 C1699 0.960 . S
H1708 C1700 0.930 . S
H1709 C1701 0.929 . S
H1710 C1718 0.929 . S
H1711 C1720 0.930 . S
H1712 C1722 0.930 . S
H1713 C1725 0.929 . S
H1714 C1728 0.930 . S
H1715 C1730 0.960 . S
H1716 C1730 0.960 . S
H1717 C1730 0.960 . S
C1718 H1710 0.929 . S
C1718 C1719 1.377 . S
C1718 C1720 1.384 . S
C1719 C1718 1.377 . S
C1719 C1725 1.390 . S
C1720 H1711 0.930 . S
C1720 C1718 1.384 . S
C1720 C1721 1.372 . S
C1721 C1720 1.372 . S
C1721 C1722 1.400 . S
C1721 C1726 1.490 . S
C1722 H1712 0.930 . S
C1722 C1721 1.400 . S
C1722 C1725 1.386 . S
H1723 C1739 0.930 . S
H1724 C1740 0.931 . S
C1725 H1713 0.929 . S
C1725 C1719 1.390 . S
C1725 C1722 1.386 . S
C1726 C1721 1.490 . S
C1726 C1728 1.395 . S
C1726 C1729 1.403 . S
H1727 C1733 0.930 . S
C1728 H1714 0.930 . S
C1728 C1726 1.395 . S
C1728 C1731 1.403 . S
C1729 C1726 1.403 . S
C1729 C1730 1.524 . S
C1729 C1733 1.400 . S
C1730 H1715 0.960 . S
C1730 H1716 0.960 . S
C1730 H1717 0.960 . S
C1730 C1729 1.524 . S
C1731 C1728 1.403 . S
C1731 C1732 1.392 . S
C1731 C1735 1.495 . S
C1732 C1731 1.392 . S
C1732 C1733 1.385 . S
C1732 C1734 1.478 . S
C1733 H1727 0.930 . S
C1733 C1729 1.400 . S
C1733 C1732 1.385 . S
C1734 C1732 1.478 . S
C1734 C1736 1.381 . S
C1734 C1740 1.383 . S
C1735 C1731 1.495 . S
C1735 H1741 0.959 . S
C1735 H1742 0.961 . S
C1735 H1743 0.960 . S
C1736 C1734 1.381 . S
C1736 C1737 1.394 . S
C1736 H1744 0.930 . S
C1737 C1736 1.394 . S
C1737 C1738 1.383 . S
C1737 H1745 0.929 1_565 S
C1738 C1737 1.383 . S
C1738 C1739 1.377 . S
C1739 H1723 0.930 . S
C1739 C1738 1.377 . S
C1739 C1740 1.379 . S
C1740 H1724 0.931 . S
C1740 C1734 1.383 . S
C1740 C1739 1.379 . S
H1741 C1735 0.959 . S
H1742 C1735 0.961 . S
H1743 C1735 0.960 . S
H1744 C1736 0.930 . S
H1745 C1737 0.929 1_545 S
H1746 C1754 0.929 . S
H1747 C1756 0.930 . S
H1748 C1758 0.930 . S
H1749 C1761 0.929 . S
H1750 C1764 0.930 . S
H1751 C1766 0.960 . S
H1752 C1766 0.960 . S
H1753 C1766 0.960 . S
C1754 H1746 0.929 . S
C1754 C1755 1.377 . S
C1754 C1756 1.384 . S
C1755 C1754 1.377 . S
C1755 C1761 1.390 . S
C1756 H1747 0.930 . S
C1756 C1754 1.384 . S
C1756 C1757 1.372 . S
C1757 C1756 1.372 . S
C1757 C1758 1.400 . S
C1757 C1762 1.490 . S
C1758 H1748 0.930 . S
C1758 C1757 1.400 . S
C1758 C1761 1.386 . S
H1759 C1775 0.930 1_655 S
H1760 C1776 0.931 . S
C1761 H1749 0.929 . S
C1761 C1755 1.390 . S
C1761 C1758 1.386 . S
C1762 C1757 1.490 . S
C1762 C1764 1.395 . S
C1762 C1765 1.403 . S
H1763 C1769 0.930 . S
C1764 H1750 0.930 . S
C1764 C1762 1.395 . S
C1764 C1767 1.403 . S
C1765 C1762 1.403 . S
C1765 C1766 1.524 . S
C1765 C1769 1.400 . S
C1766 H1751 0.960 . S
C1766 H1752 0.960 . S
C1766 H1753 0.960 . S
C1766 C1765 1.524 . S
C1767 C1764 1.403 . S
C1767 C1768 1.392 . S
C1767 C1771 1.495 . S
C1768 C1767 1.392 . S
C1768 C1769 1.385 . S
C1768 C1770 1.478 . S
C1769 H1763 0.930 . S
C1769 C1765 1.400 . S
C1769 C1768 1.385 . S
C1770 C1768 1.478 . S
C1770 C1772 1.381 . S
C1770 C1776 1.383 . S
C1771 C1767 1.495 . S
C1771 H1777 0.959 . S
C1771 H1778 0.961 . S
C1771 H1779 0.960 . S
C1772 C1770 1.381 . S
C1772 C1773 1.394 . S
C1772 H1780 0.930 . S
C1773 C1772 1.394 . S
C1773 C1774 1.383 . S
C1773 H1781 0.929 . S
C1774 C1773 1.383 . S
C1774 C1775 1.377 . S
C1775 H1759 0.930 1_455 S
C1775 C1774 1.377 . S
C1775 C1776 1.379 . S
C1776 H1760 0.931 . S
C1776 C1770 1.383 . S
C1776 C1775 1.379 . S
H1777 C1771 0.959 . S
H1778 C1771 0.961 . S
H1779 C1771 0.960 . S
H1780 C1772 0.930 . S
H1781 C1773 0.929 . S
H1782 C1790 0.929 . S
H1783 C1792 0.930 . S
H1784 C1794 0.930 . S
H1785 C1797 0.929 . S
H1786 C1800 0.930 . S
H1787 C1802 0.960 . S
H1788 C1802 0.960 . S
H1789 C1802 0.960 . S
C1790 H1782 0.929 . S
C1790 C1791 1.377 . S
C1790 C1792 1.384 . S
C1791 C1790 1.377 . S
C1791 C1797 1.390 . S
C1792 H1783 0.930 . S
C1792 C1790 1.384 . S
C1792 C1793 1.372 . S
C1793 C1792 1.372 . S
C1793 C1794 1.400 . S
C1793 C1798 1.490 . S
C1794 H1784 0.930 . S
C1794 C1793 1.400 . S
C1794 C1797 1.386 . S
H1795 C1811 0.930 . S
H1796 C1812 0.931 . S
C1797 H1785 0.929 . S
C1797 C1791 1.390 . S
C1797 C1794 1.386 . S
C1798 C1793 1.490 . S
C1798 C1800 1.395 . S
C1798 C1801 1.403 . S
H1799 C1805 0.930 . S
C1800 H1786 0.930 . S
C1800 C1798 1.395 . S
C1800 C1803 1.403 . S
C1801 C1798 1.403 . S
C1801 C1802 1.524 . S
C1801 C1805 1.400 . S
C1802 H1787 0.960 . S
C1802 H1788 0.960 . S
C1802 H1789 0.960 . S
C1802 C1801 1.524 . S
C1803 C1800 1.403 . S
C1803 C1804 1.392 . S
C1803 C1807 1.495 . S
C1804 C1803 1.392 . S
C1804 C1805 1.385 . S
C1804 C1806 1.478 . S
C1805 H1799 0.930 . S
C1805 C1801 1.400 . S
C1805 C1804 1.385 . S
C1806 C1804 1.478 . S
C1806 C1808 1.381 . S
C1806 C1812 1.383 . S
C1807 C1803 1.495 . S
C1807 H1813 0.959 . S
C1807 H1814 0.961 . S
C1807 H1815 0.960 . S
C1808 C1806 1.381 . S
C1808 C1809 1.394 . S
C1808 H1816 0.930 . S
C1809 C1808 1.394 . S
C1809 C1810 1.383 . S
C1809 H1817 0.929 . S
C1810 C1809 1.383 . S
C1810 C1811 1.377 . S
C1811 H1795 0.930 . S
C1811 C1810 1.377 . S
C1811 C1812 1.379 . S
C1812 H1796 0.931 . S
C1812 C1806 1.383 . S
C1812 C1811 1.379 . S
H1813 C1807 0.959 . S
H1814 C1807 0.961 . S
H1815 C1807 0.960 . S
H1816 C1808 0.930 . S
H1817 C1809 0.929 . S
H1818 C1826 0.929 . S
H1819 C1828 0.930 . S
H1820 C1830 0.930 . S
H1821 C1833 0.929 . S
H1822 C1836 0.930 . S
H1823 C1838 1.005 . S
H1824 C1838 0.960 . S
H1825 C1838 0.960 . S
C1826 H1818 0.929 . S
C1826 C1827 1.377 . S
C1826 C1828 1.384 . S
C1827 C1826 1.377 . S
C1827 C1833 1.390 . S
C1828 H1819 0.930 . S
C1828 C1826 1.384 . S
C1828 C1829 1.372 . S
C1829 C1828 1.372 . S
C1829 C1830 1.400 . S
C1829 C1834 1.490 . S
C1830 H1820 0.930 . S
C1830 C1829 1.400 . S
C1830 C1833 1.386 . S
H1831 C1847 0.930 . S
H1832 C1848 0.931 . S
C1833 H1821 0.929 . S
C1833 C1827 1.390 . S
C1833 C1830 1.386 . S
C1834 C1829 1.490 . S
C1834 C1836 1.395 . S
C1834 C1837 1.403 . S
H1835 C1841 0.930 . S
C1836 H1822 0.930 . S
C1836 C1834 1.395 . S
C1836 C1839 1.403 . S
C1837 C1834 1.403 . S
C1837 C1838 1.524 . S
C1837 C1841 1.400 . S
C1838 H1823 1.005 . S
C1838 H1824 0.960 . S
C1838 H1825 0.960 . S
C1838 C1837 1.524 . S
C1839 C1836 1.403 . S
C1839 C1840 1.392 . S
C1839 C1843 1.495 . S
C1840 C1839 1.392 . S
C1840 C1841 1.385 . S
C1840 C1842 1.478 . S
C1841 H1835 0.930 . S
C1841 C1837 1.400 . S
C1841 C1840 1.385 . S
C1842 C1840 1.478 . S
C1842 C1844 1.381 . S
C1842 C1848 1.383 . S
C1843 C1839 1.495 . S
C1843 H1849 0.959 . S
C1843 H1850 0.961 . S
C1843 H1851 0.960 . S
C1844 C1842 1.381 . S
C1844 C1845 1.394 . S
C1844 H1852 0.930 . S
C1845 C1844 1.394 . S
C1845 C1846 1.383 . S
C1845 H1853 0.929 . S
C1846 C1845 1.383 . S
C1846 C1847 1.377 . S
C1847 H1831 0.930 . S
C1847 C1846 1.377 . S
C1847 C1848 1.379 . S
C1848 H1832 0.931 . S
C1848 C1842 1.383 . S
C1848 C1847 1.379 . S
H1849 C1843 0.959 . S
H1850 C1843 0.961 . S
H1851 C1843 0.960 . S
H1852 C1844 0.930 . S
H1853 C1845 0.929 . S
H1854 C1862 0.929 . S
H1855 C1864 0.930 . S
H1856 C1866 0.930 . S
H1857 C1869 0.929 . S
H1858 C1872 0.930 . S
H1859 C1874 0.960 . S
H1860 C1874 0.960 . S
H1861 C1874 0.960 . S
C1862 H1854 0.929 . S
C1862 C1863 1.377 . S
C1862 C1864 1.384 . S
C1863 C1862 1.377 . S
C1863 C1869 1.390 . S
C1864 H1855 0.930 . S
C1864 C1862 1.384 . S
C1864 C1865 1.372 . S
C1865 C1864 1.372 . S
C1865 C1866 1.400 . S
C1865 C1870 1.490 . S
C1866 H1856 0.930 . S
C1866 C1865 1.400 . S
C1866 C1869 1.386 . S
H1867 C1883 0.930 . S
H1868 C1884 0.931 . S
C1869 H1857 0.929 . S
C1869 C1863 1.390 . S
C1869 C1866 1.386 . S
C1870 C1865 1.490 . S
C1870 C1872 1.395 . S
C1870 C1873 1.403 . S
H1871 C1877 0.930 . S
C1872 H1858 0.930 . S
C1872 C1870 1.395 . S
C1872 C1875 1.403 . S
C1873 C1870 1.403 . S
C1873 C1874 1.524 . S
C1873 C1877 1.400 . S
C1874 H1859 0.960 . S
C1874 H1860 0.960 . S
C1874 H1861 0.960 . S
C1874 C1873 1.524 . S
C1875 C1872 1.403 . S
C1875 C1876 1.392 . S
C1875 C1879 1.495 . S
C1876 C1875 1.392 . S
C1876 C1877 1.385 . S
C1876 C1878 1.478 . S
C1877 H1871 0.930 . S
C1877 C1873 1.400 . S
C1877 C1876 1.385 . S
C1878 C1876 1.478 . S
C1878 C1880 1.381 . S
C1878 C1884 1.383 . S
C1879 C1875 1.495 . S
C1879 H1885 0.959 . S
C1879 H1886 0.961 . S
C1879 H1887 0.960 . S
C1880 C1878 1.381 . S
C1880 C1881 1.394 . S
C1880 H1888 0.930 . S
C1881 C1880 1.394 . S
C1881 C1882 1.383 . S
C1881 H1889 0.929 . S
C1882 C1881 1.383 . S
C1882 C1883 1.377 . S
C1883 H1867 0.930 . S
C1883 C1882 1.377 . S
C1883 C1884 1.379 . S
C1884 H1868 0.931 . S
C1884 C1878 1.383 . S
C1884 C1883 1.379 . S
H1885 C1879 0.959 . S
H1886 C1879 0.961 . S
H1887 C1879 0.960 . S
H1888 C1880 0.930 . S
H1889 C1881 0.929 . S
H1890 C1898 0.929 . S
H1891 C1900 0.930 . S
H1892 C1902 0.930 . S
H1893 C1905 0.929 . S
H1894 C1908 0.930 . S
H1895 C1910 0.960 . S
H1896 C1910 0.960 . S
H1897 C1910 0.960 . S
C1898 H1890 0.929 . S
C1898 C1899 1.377 . S
C1898 C1900 1.384 . S
C1899 C1898 1.377 . S
C1899 C1905 1.390 . S
C1900 H1891 0.930 . S
C1900 C1898 1.384 . S
C1900 C1901 1.372 . S
C1901 C1900 1.372 . S
C1901 C1902 1.400 . S
C1901 C1906 1.490 . S
C1902 H1892 0.930 . S
C1902 C1901 1.400 . S
C1902 C1905 1.386 . S
H1903 C1919 0.930 . S
H1904 C1920 0.931 . S
C1905 H1893 0.929 . S
C1905 C1899 1.390 . S
C1905 C1902 1.386 . S
C1906 C1901 1.490 . S
C1906 C1908 1.395 . S
C1906 C1909 1.403 . S
H1907 C1913 0.930 . S
C1908 H1894 0.930 . S
C1908 C1906 1.395 . S
C1908 C1911 1.403 . S
C1909 C1906 1.403 . S
C1909 C1910 1.524 . S
C1909 C1913 1.400 . S
C1910 H1895 0.960 . S
C1910 H1896 0.960 . S
C1910 H1897 0.960 . S
C1910 C1909 1.524 . S
C1911 C1908 1.403 . S
C1911 C1912 1.392 . S
C1911 C1915 1.495 . S
C1912 C1911 1.392 . S
C1912 C1913 1.385 . S
C1912 C1914 1.478 . S
C1913 H1907 0.930 . S
C1913 C1909 1.400 . S
C1913 C1912 1.385 . S
C1914 C1912 1.478 . S
C1914 C1916 1.381 . S
C1914 C1920 1.383 . S
C1915 C1911 1.495 . S
C1915 H1921 0.959 . S
C1915 H1922 0.961 . S
C1915 H1923 0.985 . S
C1916 C1914 1.381 . S
C1916 C1917 1.394 . S
C1916 H1924 0.930 . S
C1917 C1916 1.394 . S
C1917 C1918 1.383 . S
C1917 H1925 0.929 1_545 S
C1918 C1917 1.383 . S
C1918 C1919 1.377 . S
C1919 H1903 0.930 . S
C1919 C1918 1.377 . S
C1919 C1920 1.379 . S
C1920 H1904 0.931 . S
C1920 C1914 1.383 . S
C1920 C1919 1.379 . S
H1921 C1915 0.959 . S
H1922 C1915 0.961 . S
H1923 C1915 0.985 . S
H1924 C1916 0.930 . S
H1925 C1917 0.929 1_565 S
H1926 C1934 0.929 . S
H1927 C1936 0.930 . S
H1928 C1938 0.930 . S
H1929 C1941 0.929 . S
H1930 C1944 0.930 . S
H1931 C1946 0.960 . S
H1932 C1946 0.960 . S
H1933 C1946 0.960 . S
C1934 H1926 0.929 . S
C1934 C1935 1.377 . S
C1934 C1936 1.384 . S
C1935 C1934 1.377 . S
C1935 C1941 1.390 . S
C1936 H1927 0.930 . S
C1936 C1934 1.384 . S
C1936 C1937 1.372 . S
C1937 C1936 1.372 . S
C1937 C1938 1.400 . S
C1937 C1942 1.490 . S
C1938 H1928 0.930 . S
C1938 C1937 1.400 . S
C1938 C1941 1.386 . S
H1939 C1955 0.930 . S
H1940 C1956 0.931 . S
C1941 H1929 0.929 . S
C1941 C1935 1.390 . S
C1941 C1938 1.386 . S
C1942 C1937 1.490 . S
C1942 C1944 1.395 . S
C1942 C1945 1.403 . S
H1943 C1949 0.930 . S
C1944 H1930 0.930 . S
C1944 C1942 1.395 . S
C1944 C1947 1.403 . S
C1945 C1942 1.403 . S
C1945 C1946 1.524 . S
C1945 C1949 1.400 . S
C1946 H1931 0.960 . S
C1946 H1932 0.960 . S
C1946 H1933 0.960 . S
C1946 C1945 1.524 . S
C1947 C1944 1.403 . S
C1947 C1948 1.392 . S
C1947 C1951 1.495 . S
C1948 C1947 1.392 . S
C1948 C1949 1.385 . S
C1948 C1950 1.478 . S
C1949 H1943 0.930 . S
C1949 C1945 1.400 . S
C1949 C1948 1.385 . S
C1950 C1948 1.478 . S
C1950 C1952 1.381 . S
C1950 C1956 1.383 . S
C1951 C1947 1.495 . S
C1951 H1957 0.959 . S
C1951 H1958 0.961 . S
C1951 H1959 0.960 . S
C1952 C1950 1.381 . S
C1952 C1953 1.394 . S
C1952 H1960 0.930 . S
C1953 C1952 1.394 . S
C1953 C1954 1.383 . S
C1953 H1961 0.929 . S
C1954 C1953 1.383 . S
C1954 C1955 1.377 . S
C1955 H1939 0.930 . S
C1955 C1954 1.377 . S
C1955 C1956 1.379 . S
C1956 H1940 0.931 . S
C1956 C1950 1.383 . S
C1956 C1955 1.379 . S
H1957 C1951 0.959 . S
H1958 C1951 0.961 . S
H1959 C1951 0.960 . S
H1960 C1952 0.930 . S
H1961 C1953 0.929 . S
H1962 C1970 0.929 . S
H1963 C1972 0.930 . S
H1964 C1974 0.930 . S
H1965 C1977 0.929 . S
H1966 C1980 0.930 . S
H1967 C1982 0.960 . S
H1968 C1982 0.960 . S
H1969 C1982 0.960 . S
C1970 H1962 0.929 . S
C1970 C1971 1.377 . S
C1970 C1972 1.384 . S
C1971 C1970 1.377 . S
C1971 C1977 1.390 . S
C1972 H1963 0.930 . S
C1972 C1970 1.384 . S
C1972 C1973 1.372 . S
C1973 C1972 1.372 . S
C1973 C1974 1.400 . S
C1973 C1978 1.490 . S
C1974 H1964 0.930 . S
C1974 C1973 1.400 . S
C1974 C1977 1.386 . S
H1975 C1991 0.930 . S
H1976 C1992 0.931 . S
C1977 H1965 0.929 . S
C1977 C1971 1.390 . S
C1977 C1974 1.386 . S
C1978 C1973 1.490 . S
C1978 C1980 1.395 . S
C1978 C1981 1.403 . S
H1979 C1985 0.930 . S
C1980 H1966 0.930 . S
C1980 C1978 1.395 . S
C1980 C1983 1.403 . S
C1981 C1978 1.403 . S
C1981 C1982 1.524 . S
C1981 C1985 1.400 . S
C1982 H1967 0.960 . S
C1982 H1968 0.960 . S
C1982 H1969 0.960 . S
C1982 C1981 1.524 . S
C1983 C1980 1.403 . S
C1983 C1984 1.392 . S
C1983 C1987 1.495 . S
C1984 C1983 1.392 . S
C1984 C1985 1.385 . S
C1984 C1986 1.478 . S
C1985 H1979 0.930 . S
C1985 C1981 1.400 . S
C1985 C1984 1.385 . S
C1986 C1984 1.478 . S
C1986 C1988 1.381 . S
C1986 C1992 1.383 . S
C1987 C1983 1.495 . S
C1987 H1993 0.959 . S
C1987 H1994 0.961 . S
C1987 H1995 0.960 . S
C1988 C1986 1.381 . S
C1988 C1989 1.394 . S
C1988 H1996 0.930 . S
C1989 C1988 1.394 . S
C1989 C1990 1.383 . S
C1989 H1997 0.929 . S
C1990 C1989 1.383 . S
C1990 C1991 1.377 . S
C1991 H1975 0.930 . S
C1991 C1990 1.377 . S
C1991 C1992 1.379 . S
C1992 H1976 0.931 . S
C1992 C1986 1.383 . S
C1992 C1991 1.379 . S
H1993 C1987 0.959 . S
H1994 C1987 0.961 . S
H1995 C1987 0.960 . S
H1996 C1988 0.930 . S
H1997 C1989 0.929 . S
H1998 C2006 0.929 . S
H1999 C2008 0.930 . S
H2000 C2010 0.930 . S
H2001 C2013 0.929 . S
H2002 C2016 0.930 . S
H2003 C2018 0.960 . S
H2004 C2018 0.960 . S
H2005 C2018 0.960 . S
C2006 H1998 0.929 . S
C2006 C2007 1.377 . S
C2006 C2008 1.384 . S
C2007 C2006 1.377 . S
C2007 C2013 1.390 . S
C2008 H1999 0.930 . S
C2008 C2006 1.384 . S
C2008 C2009 1.372 . S
C2009 C2008 1.372 . S
C2009 C2010 1.400 . S
C2009 C2014 1.490 . S
C2010 H2000 0.930 . S
C2010 C2009 1.400 . S
C2010 C2013 1.386 . S
H2011 C2027 0.930 . S
H2012 C2028 0.931 . S
C2013 H2001 0.929 . S
C2013 C2007 1.390 . S
C2013 C2010 1.386 . S
C2014 C2009 1.490 . S
C2014 C2016 1.395 . S
C2014 C2017 1.403 . S
H2015 C2021 0.930 . S
C2016 H2002 0.930 . S
C2016 C2014 1.395 . S
C2016 C2019 1.403 . S
C2017 C2014 1.403 . S
C2017 C2018 1.524 . S
C2017 C2021 1.400 . S
C2018 H2003 0.960 . S
C2018 H2004 0.960 . S
C2018 H2005 0.960 . S
C2018 C2017 1.524 . S
C2019 C2016 1.403 . S
C2019 C2020 1.392 . S
C2019 C2023 1.495 . S
C2020 C2019 1.392 . S
C2020 C2021 1.385 . S
C2020 C2022 1.478 . S
C2021 H2015 0.930 . S
C2021 C2017 1.400 . S
C2021 C2020 1.385 . S
C2022 C2020 1.478 . S
C2022 C2024 1.381 . S
C2022 C2028 1.383 . S
C2023 C2019 1.495 . S
C2023 H2029 0.959 . S
C2023 H2030 0.961 . S
C2023 H2031 0.960 . S
C2024 C2022 1.381 . S
C2024 C2025 1.394 . S
C2024 H2032 0.930 . S
C2025 C2024 1.394 . S
C2025 C2026 1.383 . S
C2025 H2033 0.929 . S
C2026 C2025 1.383 . S
C2026 C2027 1.377 . S
C2027 H2011 0.930 . S
C2027 C2026 1.377 . S
C2027 C2028 1.379 . S
C2028 H2012 0.931 . S
C2028 C2022 1.383 . S
C2028 C2027 1.379 . S
H2029 C2023 0.959 . S
H2030 C2023 0.961 . S
H2031 C2023 0.960 . S
H2032 C2024 0.930 . S
H2033 C2025 0.929 . S
H2034 C2042 0.929 . S
H2035 C2044 0.930 . S
H2036 C2046 0.930 . S
H2037 C2049 0.929 . S
H2038 C2052 0.930 . S
H2039 C2054 0.960 . S
H2040 C2054 0.960 . S
H2041 C2054 0.960 . S
C2042 H2034 0.929 . S
C2042 C2043 1.377 . S
C2042 C2044 1.384 . S
C2043 C2042 1.377 . S
C2043 C2049 1.390 . S
C2044 H2035 0.930 . S
C2044 C2042 1.384 . S
C2044 C2045 1.372 . S
C2045 C2044 1.372 . S
C2045 C2046 1.400 . S
C2045 C2050 1.490 . S
C2046 H2036 0.930 . S
C2046 C2045 1.400 . S
C2046 C2049 1.386 . S
H2047 C2063 0.930 . S
H2048 C2064 0.931 . S
C2049 H2037 0.929 . S
C2049 C2043 1.390 . S
C2049 C2046 1.386 . S
C2050 C2045 1.490 . S
C2050 C2052 1.395 . S
C2050 C2053 1.403 . S
H2051 C2057 0.930 . S
C2052 H2038 0.930 . S
C2052 C2050 1.395 . S
C2052 C2055 1.403 . S
C2053 C2050 1.403 . S
C2053 C2054 1.524 . S
C2053 C2057 1.400 . S
C2054 H2039 0.960 . S
C2054 H2040 0.960 . S
C2054 H2041 0.960 . S
C2054 C2053 1.524 . S
C2055 C2052 1.403 . S
C2055 C2056 1.392 . S
C2055 C2059 1.495 . S
C2056 C2055 1.392 . S
C2056 C2057 1.385 . S
C2056 C2058 1.478 . S
C2057 H2051 0.930 . S
C2057 C2053 1.400 . S
C2057 C2056 1.385 . S
C2058 C2056 1.478 . S
C2058 C2060 1.381 . S
C2058 C2064 1.383 . S
C2059 C2055 1.495 . S
C2059 H2065 0.959 . S
C2059 H2066 0.961 . S
C2059 H2067 0.960 . S
C2060 C2058 1.381 . S
C2060 C2061 1.394 . S
C2060 H2068 0.930 . S
C2061 C2060 1.394 . S
C2061 C2062 1.383 . S
C2061 H2069 0.929 . S
C2062 C2061 1.383 . S
C2062 C2063 1.377 . S
C2063 H2047 0.930 . S
C2063 C2062 1.377 . S
C2063 C2064 1.379 . S
C2064 H2048 0.931 . S
C2064 C2058 1.383 . S
C2064 C2063 1.379 . S
H2065 C2059 0.959 . S
H2066 C2059 0.961 . S
H2067 C2059 0.960 . S
H2068 C2060 0.930 . S
H2069 C2061 0.929 . S
H2070 C2078 0.929 . S
H2071 C2080 0.930 . S
H2072 C2082 0.930 . S
H2073 C2085 0.929 . S
H2074 C2088 0.930 . S
H2075 C2090 0.960 . S
H2076 C2090 0.960 . S
H2077 C2090 0.960 . S
C2078 H2070 0.929 . S
C2078 C2079 1.377 . S
C2078 C2080 1.384 . S
C2079 C2078 1.377 . S
C2079 C2085 1.390 . S
C2080 H2071 0.930 . S
C2080 C2078 1.384 . S
C2080 C2081 1.372 . S
C2081 C2080 1.372 . S
C2081 C2082 1.400 . S
C2081 C2086 1.490 . S
C2082 H2072 0.930 . S
C2082 C2081 1.400 . S
C2082 C2085 1.386 . S
H2083 C2099 0.930 . S
H2084 C2100 0.931 . S
C2085 H2073 0.929 . S
C2085 C2079 1.390 . S
C2085 C2082 1.386 . S
C2086 C2081 1.490 . S
C2086 C2088 1.395 . S
C2086 C2089 1.403 . S
H2087 C2093 0.930 . S
C2088 H2074 0.930 . S
C2088 C2086 1.395 . S
C2088 C2091 1.403 . S
C2089 C2086 1.403 . S
C2089 C2090 1.524 . S
C2089 C2093 1.400 . S
C2090 H2075 0.960 . S
C2090 H2076 0.960 . S
C2090 H2077 0.960 . S
C2090 C2089 1.524 . S
C2091 C2088 1.403 . S
C2091 C2092 1.392 . S
C2091 C2095 1.495 . S
C2092 C2091 1.392 . S
C2092 C2093 1.385 . S
C2092 C2094 1.478 . S
C2093 H2087 0.930 . S
C2093 C2089 1.400 . S
C2093 C2092 1.385 . S
C2094 C2092 1.478 . S
C2094 C2096 1.381 . S
C2094 C2100 1.383 . S
C2095 C2091 1.495 . S
C2095 H2101 0.959 . S
C2095 H2102 0.961 . S
C2095 H2103 0.960 . S
C2096 C2094 1.381 . S
C2096 C2097 1.394 . S
C2096 H2104 0.930 . S
C2097 C2096 1.394 . S
C2097 C2098 1.383 . S
C2097 H2105 0.929 . S
C2098 C2097 1.383 . S
C2098 C2099 1.377 . S
C2099 H2083 0.930 . S
C2099 C2098 1.377 . S
C2099 C2100 1.379 . S
C2100 H2084 0.931 . S
C2100 C2094 1.383 . S
C2100 C2099 1.379 . S
H2101 C2095 0.959 . S
H2102 C2095 0.961 . S
H2103 C2095 0.960 . S
H2104 C2096 0.930 . S
H2105 C2097 0.929 . S
H2106 C2114 0.929 . S
H2107 C2116 0.930 . S
H2108 C2118 0.930 . S
H2109 C2121 0.929 . S
H2110 C2124 0.930 . S
H2111 C2126 0.960 . S
H2112 C2126 0.960 . S
H2113 C2126 0.960 . S
C2114 H2106 0.929 . S
C2114 C2115 1.377 . S
C2114 C2116 1.384 . S
C2115 C2114 1.377 . S
C2115 C2121 1.390 . S
C2116 H2107 0.930 . S
C2116 C2114 1.384 . S
C2116 C2117 1.372 . S
C2117 C2116 1.372 . S
C2117 C2118 1.400 . S
C2117 C2122 1.490 . S
C2118 H2108 0.930 . S
C2118 C2117 1.400 . S
C2118 C2121 1.386 . S
H2119 C2135 0.930 . S
H2120 C2136 0.931 . S
C2121 H2109 0.929 . S
C2121 C2115 1.390 . S
C2121 C2118 1.386 . S
C2122 C2117 1.490 . S
C2122 C2124 1.395 . S
C2122 C2125 1.403 . S
H2123 C2129 0.930 . S
C2124 H2110 0.930 . S
C2124 C2122 1.395 . S
C2124 C2127 1.403 . S
C2125 C2122 1.403 . S
C2125 C2126 1.524 . S
C2125 C2129 1.400 . S
C2126 H2111 0.960 . S
C2126 H2112 0.960 . S
C2126 H2113 0.960 . S
C2126 C2125 1.524 . S
C2127 C2124 1.403 . S
C2127 C2128 1.392 . S
C2127 C2131 1.495 . S
C2128 C2127 1.392 . S
C2128 C2129 1.385 . S
C2128 C2130 1.478 . S
C2129 H2123 0.930 . S
C2129 C2125 1.400 . S
C2129 C2128 1.385 . S
C2130 C2128 1.478 . S
C2130 C2132 1.381 . S
C2130 C2136 1.383 . S
C2131 C2127 1.495 . S
C2131 H2137 0.959 . S
C2131 H2138 0.961 . S
C2131 H2139 0.960 . S
C2132 C2130 1.381 . S
C2132 C2133 1.394 . S
C2132 H2140 0.930 . S
C2133 C2132 1.394 . S
C2133 C2134 1.383 . S
C2133 H2141 0.929 . S
C2134 C2133 1.383 . S
C2134 C2135 1.377 . S
C2135 H2119 0.930 . S
C2135 C2134 1.377 . S
C2135 C2136 1.379 . S
C2136 H2120 0.931 . S
C2136 C2130 1.383 . S
C2136 C2135 1.379 . S
H2137 C2131 0.959 . S
H2138 C2131 0.961 . S
H2139 C2131 0.960 . S
H2140 C2132 0.930 . S
H2141 C2133 0.929 . S
H2142 C2150 0.929 . S
H2143 C2152 0.930 . S
H2144 C2154 0.930 . S
H2145 C2157 0.929 . S
H2146 C2160 0.930 . S
H2147 C2162 0.960 . S
H2148 C2162 0.960 . S
H2149 C2162 0.960 . S
C2150 H2142 0.929 . S
C2150 C2151 1.377 . S
C2150 C2152 1.384 . S
C2151 C2150 1.377 . S
C2151 C2157 1.390 . S
C2152 H2143 0.930 . S
C2152 C2150 1.384 . S
C2152 C2153 1.372 . S
C2153 C2152 1.372 . S
C2153 C2154 1.400 . S
C2153 C2158 1.490 . S
C2154 H2144 0.930 . S
C2154 C2153 1.400 . S
C2154 C2157 1.386 . S
H2155 C2171 0.930 . S
H2156 C2172 0.931 . S
C2157 H2145 0.929 . S
C2157 C2151 1.390 . S
C2157 C2154 1.386 . S
C2158 C2153 1.490 . S
C2158 C2160 1.395 . S
C2158 C2161 1.403 . S
H2159 C2165 0.930 . S
C2160 H2146 0.930 . S
C2160 C2158 1.395 . S
C2160 C2163 1.403 . S
C2161 C2158 1.403 . S
C2161 C2162 1.524 . S
C2161 C2165 1.400 . S
C2162 H2147 0.960 . S
C2162 H2148 0.960 . S
C2162 H2149 0.960 . S
C2162 C2161 1.524 . S
C2163 C2160 1.403 . S
C2163 C2164 1.392 . S
C2163 C2167 1.495 . S
C2164 C2163 1.392 . S
C2164 C2165 1.385 . S
C2164 C2166 1.478 . S
C2165 H2159 0.930 . S
C2165 C2161 1.400 . S
C2165 C2164 1.385 . S
C2166 C2164 1.478 . S
C2166 C2168 1.381 . S
C2166 C2172 1.383 . S
C2167 C2163 1.495 . S
C2167 H2173 0.959 . S
C2167 H2174 0.961 . S
C2167 H2175 0.960 . S
C2168 C2166 1.381 . S
C2168 C2169 1.394 . S
C2168 H2176 0.930 . S
C2169 C2168 1.394 . S
C2169 C2170 1.383 . S
C2169 H2177 0.929 . S
C2170 C2169 1.383 . S
C2170 C2171 1.377 . S
C2171 H2155 0.930 . S
C2171 C2170 1.377 . S
C2171 C2172 1.379 . S
C2172 H2156 0.931 . S
C2172 C2166 1.383 . S
C2172 C2171 1.379 . S
H2173 C2167 0.959 . S
H2174 C2167 0.961 . S
H2175 C2167 0.960 . S
H2176 C2168 0.930 . S
H2177 C2169 0.929 . S
H2178 C2186 0.929 . S
H2179 C2188 0.930 . S
H2180 C2190 0.930 . S
H2181 C2193 0.929 . S
H2182 C2196 0.930 . S
H2183 C2198 0.960 . S
H2184 C2198 0.960 . S
H2185 C2198 0.960 . S
C2186 H2178 0.929 . S
C2186 C2187 1.377 . S
C2186 C2188 1.384 . S
C2187 C2186 1.377 . S
C2187 C2193 1.390 . S
C2188 H2179 0.930 . S
C2188 C2186 1.384 . S
C2188 C2189 1.372 . S
C2189 C2188 1.372 . S
C2189 C2190 1.400 . S
C2189 C2194 1.490 . S
C2190 H2180 0.930 . S
C2190 C2189 1.400 . S
C2190 C2193 1.386 . S
H2191 C2207 0.930 . S
H2192 C2208 0.931 . S
C2193 H2181 0.929 . S
C2193 C2187 1.390 . S
C2193 C2190 1.386 . S
C2194 C2189 1.490 . S
C2194 C2196 1.395 . S
C2194 C2197 1.403 . S
H2195 C2201 0.930 . S
C2196 H2182 0.930 . S
C2196 C2194 1.395 . S
C2196 C2199 1.403 . S
C2197 C2194 1.403 . S
C2197 C2198 1.524 . S
C2197 C2201 1.400 . S
C2198 H2183 0.960 . S
C2198 H2184 0.960 . S
C2198 H2185 0.960 . S
C2198 C2197 1.524 . S
C2199 C2196 1.403 . S
C2199 C2200 1.392 . S
C2199 C2203 1.495 . S
C2200 C2199 1.392 . S
C2200 C2201 1.385 . S
C2200 C2202 1.478 . S
C2201 H2195 0.930 . S
C2201 C2197 1.400 . S
C2201 C2200 1.385 . S
C2202 C2200 1.478 . S
C2202 C2204 1.381 . S
C2202 C2208 1.383 . S
C2203 C2199 1.495 . S
C2203 H2209 0.959 . S
C2203 H2210 0.961 . S
C2203 H2211 0.960 . S
C2204 C2202 1.381 . S
C2204 C2205 1.394 . S
C2204 H2212 0.930 . S
C2205 C2204 1.394 . S
C2205 C2206 1.383 . S
C2205 H2213 0.929 . S
C2206 C2205 1.383 . S
C2206 C2207 1.377 . S
C2207 H2191 0.930 . S
C2207 C2206 1.377 . S
C2207 C2208 1.379 . S
C2208 H2192 0.931 . S
C2208 C2202 1.383 . S
C2208 C2207 1.379 . S
H2209 C2203 0.959 . S
H2210 C2203 0.961 . S
H2211 C2203 0.960 . S
H2212 C2204 0.930 . S
H2213 C2205 0.929 . S
H2214 C2222 0.929 . S
H2215 C2224 0.930 . S
H2216 C2226 0.930 . S
H2217 C2229 0.929 . S
H2218 C2232 0.930 . S
H2219 C2234 0.960 . S
H2220 C2234 0.960 . S
H2221 C2234 0.960 . S
C2222 H2214 0.929 . S
C2222 C2223 1.377 . S
C2222 C2224 1.384 . S
C2223 C2222 1.377 . S
C2223 C2229 1.390 . S
C2224 H2215 0.930 . S
C2224 C2222 1.384 . S
C2224 C2225 1.372 . S
C2225 C2224 1.372 . S
C2225 C2226 1.400 . S
C2225 C2230 1.490 . S
C2226 H2216 0.930 . S
C2226 C2225 1.400 . S
C2226 C2229 1.386 . S
H2227 C2243 0.930 . S
H2228 C2244 0.931 . S
C2229 H2217 0.929 . S
C2229 C2223 1.390 . S
C2229 C2226 1.386 . S
C2230 C2225 1.490 . S
C2230 C2232 1.395 . S
C2230 C2233 1.403 . S
H2231 C2237 0.930 . S
C2232 H2218 0.930 . S
C2232 C2230 1.395 . S
C2232 C2235 1.403 . S
C2233 C2230 1.403 . S
C2233 C2234 1.524 . S
C2233 C2237 1.400 . S
C2234 H2219 0.960 . S
C2234 H2220 0.960 . S
C2234 H2221 0.960 . S
C2234 C2233 1.524 . S
C2235 C2232 1.403 . S
C2235 C2236 1.392 . S
C2235 C2239 1.495 . S
C2236 C2235 1.392 . S
C2236 C2237 1.385 . S
C2236 C2238 1.478 . S
C2237 H2231 0.930 . S
C2237 C2233 1.400 . S
C2237 C2236 1.385 . S
C2238 C2236 1.478 . S
C2238 C2240 1.381 . S
C2238 C2244 1.383 . S
C2239 C2235 1.495 . S
C2239 H2245 0.959 . S
C2239 H2246 0.961 . S
C2239 H2247 0.960 . S
C2240 C2238 1.381 . S
C2240 C2241 1.394 . S
C2240 H2248 0.930 . S
C2241 C2240 1.394 . S
C2241 C2242 1.383 . S
C2241 H2249 0.929 . S
C2242 C2241 1.383 . S
C2242 C2243 1.377 . S
C2243 H2227 0.930 . S
C2243 C2242 1.377 . S
C2243 C2244 1.379 . S
C2244 H2228 0.931 . S
C2244 C2238 1.383 . S
C2244 C2243 1.379 . S
H2245 C2239 0.959 . S
H2246 C2239 0.961 . S
H2247 C2239 0.960 . S
H2248 C2240 0.930 . S
H2249 C2241 0.929 . S
H2250 C2258 0.929 . S
H2251 C2260 0.930 . S
H2252 C2262 0.930 . S
H2253 C2265 0.929 . S
H2254 C2268 0.930 . S
H2255 C2270 0.960 . S
H2256 C2270 0.960 . S
H2257 C2270 0.960 . S
C2258 H2250 0.929 . S
C2258 C2259 1.377 . S
C2258 C2260 1.384 . S
C2259 C2258 1.377 . S
C2259 C2265 1.390 . S
C2260 H2251 0.930 . S
C2260 C2258 1.384 . S
C2260 C2261 1.372 . S
C2261 C2260 1.372 . S
C2261 C2262 1.400 . S
C2261 C2266 1.490 . S
C2262 H2252 0.930 . S
C2262 C2261 1.400 . S
C2262 C2265 1.386 . S
H2263 C2279 0.930 . S
H2264 C2280 0.931 . S
C2265 H2253 0.929 . S
C2265 C2259 1.390 . S
C2265 C2262 1.386 . S
C2266 C2261 1.490 . S
C2266 C2268 1.395 . S
C2266 C2269 1.403 . S
H2267 C2273 0.930 . S
C2268 H2254 0.930 . S
C2268 C2266 1.395 . S
C2268 C2271 1.403 . S
C2269 C2266 1.403 . S
C2269 C2270 1.524 . S
C2269 C2273 1.400 . S
C2270 H2255 0.960 . S
C2270 H2256 0.960 . S
C2270 H2257 0.960 . S
C2270 C2269 1.524 . S
C2271 C2268 1.403 . S
C2271 C2272 1.392 . S
C2271 C2275 1.495 . S
C2272 C2271 1.392 . S
C2272 C2273 1.385 . S
C2272 C2274 1.478 . S
C2273 H2267 0.930 . S
C2273 C2269 1.400 . S
C2273 C2272 1.385 . S
C2274 C2272 1.478 . S
C2274 C2276 1.381 . S
C2274 C2280 1.383 . S
C2275 C2271 1.495 . S
C2275 H2281 0.959 . S
C2275 H2282 0.961 . S
C2275 H2283 0.960 . S
C2276 C2274 1.381 . S
C2276 C2277 1.394 . S
C2276 H2284 0.930 . S
C2277 C2276 1.394 . S
C2277 C2278 1.383 . S
C2277 H2285 0.929 . S
C2278 C2277 1.383 . S
C2278 C2279 1.377 . S
C2279 H2263 0.930 . S
C2279 C2278 1.377 . S
C2279 C2280 1.379 . S
C2280 H2264 0.931 . S
C2280 C2274 1.383 . S
C2280 C2279 1.379 . S
H2281 C2275 0.959 . S
H2282 C2275 0.961 . S
H2283 C2275 0.960 . S
H2284 C2276 0.930 . S
H2285 C2277 0.929 . S
H2286 C2294 0.929 . S
H2287 C2296 0.930 . S
H2288 C2298 0.930 . S
H2289 C2301 0.929 . S
H2290 C2304 0.930 . S
H2291 C2306 0.960 . S
H2292 C2306 0.960 . S
H2293 C2306 0.960 . S
C2294 H2286 0.929 . S
C2294 C2295 1.377 . S
C2294 C2296 1.384 . S
C2295 C2294 1.377 . S
C2295 C2301 1.390 . S
C2296 H2287 0.930 . S
C2296 C2294 1.384 . S
C2296 C2297 1.372 . S
C2297 C2296 1.372 . S
C2297 C2298 1.400 . S
C2297 C2302 1.490 . S
C2298 H2288 0.930 . S
C2298 C2297 1.400 . S
C2298 C2301 1.386 . S
H2299 C2315 0.930 . S
H2300 C2316 0.931 . S
C2301 H2289 0.929 . S
C2301 C2295 1.390 . S
C2301 C2298 1.386 . S
C2302 C2297 1.490 . S
C2302 C2304 1.395 . S
C2302 C2305 1.403 . S
H2303 C2309 0.930 . S
C2304 H2290 0.930 . S
C2304 C2302 1.395 . S
C2304 C2307 1.403 . S
C2305 C2302 1.403 . S
C2305 C2306 1.524 . S
C2305 C2309 1.400 . S
C2306 H2291 0.960 . S
C2306 H2292 0.960 . S
C2306 H2293 0.960 . S
C2306 C2305 1.524 . S
C2307 C2304 1.403 . S
C2307 C2308 1.392 . S
C2307 C2311 1.495 . S
C2308 C2307 1.392 . S
C2308 C2309 1.385 . S
C2308 C2310 1.478 . S
C2309 H2303 0.930 . S
C2309 C2305 1.400 . S
C2309 C2308 1.385 . S
C2310 C2308 1.478 . S
C2310 C2312 1.381 . S
C2310 C2316 1.383 . S
C2311 C2307 1.495 . S
C2311 H2317 0.959 . S
C2311 H2318 0.961 . S
C2311 H2319 0.960 . S
C2312 C2310 1.381 . S
C2312 C2313 1.394 . S
C2312 H2320 0.930 . S
C2313 C2312 1.394 . S
C2313 C2314 1.383 . S
C2313 H2321 0.929 . S
C2314 C2313 1.383 . S
C2314 C2315 1.377 . S
C2315 H2299 0.930 . S
C2315 C2314 1.377 . S
C2315 C2316 1.379 . S
C2316 H2300 0.931 . S
C2316 C2310 1.383 . S
C2316 C2315 1.379 . S
H2317 C2311 0.959 . S
H2318 C2311 0.961 . S
H2319 C2311 0.960 . S
H2320 C2312 0.930 . S
H2321 C2313 0.929 . S
H2322 C2330 0.929 . S
H2323 C2332 0.930 . S
H2324 C2334 0.930 . S
H2325 C2337 0.929 . S
H2326 C2340 0.930 . S
H2327 C2342 0.960 . S
H2328 C2342 0.960 . S
H2329 C2342 0.960 . S
C2330 H2322 0.929 . S
C2330 C2331 1.377 . S
C2330 C2332 1.384 . S
C2331 C2330 1.377 . S
C2331 C2337 1.390 . S
C2332 H2323 0.930 . S
C2332 C2330 1.384 . S
C2332 C2333 1.372 . S
C2333 C2332 1.372 . S
C2333 C2334 1.400 . S
C2333 C2338 1.490 . S
C2334 H2324 0.930 . S
C2334 C2333 1.400 . S
C2334 C2337 1.386 . S
H2335 C2351 0.930 . S
H2336 C2352 0.931 . S
C2337 H2325 0.929 . S
C2337 C2331 1.390 . S
C2337 C2334 1.386 . S
C2338 C2333 1.490 . S
C2338 C2340 1.395 . S
C2338 C2341 1.403 . S
H2339 C2345 0.930 . S
C2340 H2326 0.930 . S
C2340 C2338 1.395 . S
C2340 C2343 1.403 . S
C2341 C2338 1.403 . S
C2341 C2342 1.524 . S
C2341 C2345 1.400 . S
C2342 H2327 0.960 . S
C2342 H2328 0.960 . S
C2342 H2329 0.960 . S
C2342 C2341 1.524 . S
C2343 C2340 1.403 . S
C2343 C2344 1.392 . S
C2343 C2347 1.495 . S
C2344 C2343 1.392 . S
C2344 C2345 1.385 . S
C2344 C2346 1.478 . S
C2345 H2339 0.930 . S
C2345 C2341 1.400 . S
C2345 C2344 1.385 . S
C2346 C2344 1.478 . S
C2346 C2348 1.381 . S
C2346 C2352 1.383 . S
C2347 C2343 1.495 . S
C2347 H2353 0.959 . S
C2347 H2354 0.961 . S
C2347 H2355 0.960 . S
C2348 C2346 1.381 . S
C2348 C2349 1.394 . S
C2348 H2356 0.930 . S
C2349 C2348 1.394 . S
C2349 C2350 1.383 . S
C2349 H2357 0.929 . S
C2350 C2349 1.383 . S
C2350 C2351 1.377 . S
C2351 H2335 0.930 . S
C2351 C2350 1.377 . S
C2351 C2352 1.379 . S
C2352 H2336 0.931 . S
C2352 C2346 1.383 . S
C2352 C2351 1.379 . S
H2353 C2347 0.959 . S
H2354 C2347 0.961 . S
H2355 C2347 0.960 . S
H2356 C2348 0.930 . S
H2357 C2349 0.929 . S
C423 C177 1.569 . S
C442 C240 1.531 . S
C459 C190 1.546 . S
C478 C260 1.499 . S
C495 C164 1.521 . S
C514 C283 1.528 . S
C531 C151 1.411 . S
C550 C263 1.407 1_556 S
C586 C280 1.427 . S
C567 C125 1.435 . S
C603 C138 1.434 . S
C622 C243 1.441 . S
C658 C250 1.572 . S
C639 C147 1.541 . S
C694 C270 1.429 . S
C675 C121 1.418 . S
C711 C134 1.501 . S
C730 C275 1.559 . S
C747 C173 1.391 . S
C766 C255 1.450 . S
C783 C186 1.388 . S
C802 C290 1.402 . S
C838 C235 1.503 . S
C819 C160 1.466 . S
C874 C300 1.541 . S
C855 C21 1.571 . S
C891 C34 1.548 . S
C910 C320 1.532 . S
C927 C8 1.516 . S
C946 C343 1.513 . S
C963 C229 1.407 . S
C982 C323 1.399 . S
C999 C203 1.434 . S
C1018 C340 1.409 . S
C1035 C216 1.438 . S
C1054 C303 1.435 . S
C1071 C225 1.531 . S
C1090 C310 1.532 . S
C1107 C199 1.427 . S
C1126 C330 1.461 . S
C1162 C335 1.562 . S
C1143 C212 1.502 . S
C1179 C17 1.396 . S
C1198 C315 1.452 . S
C1234 C350 1.401 . S
C1215 C30 1.388 . S
C1251 C4 1.468 . S
C1270 C295 1.503 . S
C1306 C360 1.553 . S
C1287 C99 1.569 . S
C1323 C112 1.547 . S
C1342 C380 1.536 . S
C1378 C403 1.528 . S
C1359 C86 1.521 . S
C1414 C383 1.407 . S
C1395 C73 1.411 . S
C1450 C400 1.396 . S
C1431 C47 1.434 . S
C1467 C60 1.438 . S
C1486 C363 1.440 . S
C1503 C69 1.539 . S
C1522 C370 1.564 . S
C1539 C43 1.418 . S
C1558 C390 1.429 . S
C1594 C395 1.587 . S
C1575 C56 1.514 . S
C1611 C95 1.390 . S
C1630 C375 1.449 . S
C1647 C108 1.385 . S
C1666 C410 1.382 . S
C1683 C82 1.466 . S
C1702 C355 1.503 . S
C1719 C204 1.316 . S
C1738 C253 1.259 . S
C1774 C273 1.709 . S
C1755 C217 1.770 . S
C1791 C230 1.524 . S
C1810 C282 1.487 . S
C1827 C87 1.730 . S
C1846 C262 1.698 . S
C1863 C100 1.598 . S
C1882 C293 1.554 . S
C1918 C242 1.252 . S
C1899 C113 1.286 . S
C1935 C48 1.313 . S
C1954 C313 1.236 . S
C1971 C61 1.768 . S
C1990 C333 1.656 . S
C2007 C74 1.527 . S
C2026 C342 1.510 . S
C2043 C165 1.726 . S
C2062 C322 1.656 . S
C2098 C353 1.550 . S
C2079 C178 1.598 . S
C2115 C191 1.291 . S
C2134 C302 1.290 . S
C2151 C126 1.317 . S
C2170 C373 1.291 . S
C2187 C139 1.767 . S
C2206 C393 1.673 . S
C2242 C402 1.512 . S
C2223 C152 1.526 . S
C2259 C9 1.725 . S
C2278 C382 1.654 . S
C2295 C22 1.598 . S
C2314 C413 1.510 . S
C2331 C35 1.287 . S
C2350 C362 1.269 . S
