# Generated by pormake.
# Topology zzz, (3,6)-cn, num edge types: 1
# Building blocks:
#     Node 0, Type 0, BuildingBlock: MIDCAF_clean_linker_0, # of connection points: 3
#     Node 1, Type 0, BuildingBlock: MIDCAF_clean_linker_0, # of connection points: 3
#     Node 2, Type 0, BuildingBlock: MIDCAF_clean_linker_0, # of connection points: 3
#     Node 3, Type 0, BuildingBlock: MIDCAF_clean_linker_0, # of connection points: 3
#     Node 4, Type 0, BuildingBlock: MIDCAF_clean_linker_0, # of connection points: 3
#     Node 5, Type 0, BuildingBlock: MIDCAF_clean_linker_0, # of connection points: 3
#     Node 6, Type 0, BuildingBlock: MIDCAF_clean_linker_0, # of connection points: 3
#     Node 7, Type 0, BuildingBlock: MIDCAF_clean_linker_0, # of connection points: 3
#     Node 8, Type 1, BuildingBlock: BETDAH_clean_sbu_0, # of connection points: 6
#     Node 9, Type 1, BuildingBlock: BETDAH_clean_sbu_0, # of connection points: 6
#     Node 10, Type 1, BuildingBlock: BETDAH_clean_sbu_0, # of connection points: 6
#     Node 11, Type 1, BuildingBlock: BETDAH_clean_sbu_0, # of connection points: 6
#     Edge 12, Type (0, 1), BuildingBlock: KIFKEQ_clean_linker_1, # of connection points: 2
#     Edge 13, Type (0, 1), BuildingBlock: KIFKEQ_clean_linker_1, # of connection points: 2
#     Edge 14, Type (0, 1), BuildingBlock: KIFKEQ_clean_linker_1, # of connection points: 2
#     Edge 15, Type (0, 1), BuildingBlock: KIFKEQ_clean_linker_1, # of connection points: 2
#     Edge 16, Type (0, 1), BuildingBlock: KIFKEQ_clean_linker_1, # of connection points: 2
#     Edge 17, Type (0, 1), BuildingBlock: KIFKEQ_clean_linker_1, # of connection points: 2
#     Edge 18, Type (0, 1), BuildingBlock: KIFKEQ_clean_linker_1, # of connection points: 2
#     Edge 19, Type (0, 1), BuildingBlock: KIFKEQ_clean_linker_1, # of connection points: 2
#     Edge 20, Type (0, 1), BuildingBlock: KIFKEQ_clean_linker_1, # of connection points: 2
#     Edge 21, Type (0, 1), BuildingBlock: KIFKEQ_clean_linker_1, # of connection points: 2
#     Edge 22, Type (0, 1), BuildingBlock: KIFKEQ_clean_linker_1, # of connection points: 2
#     Edge 23, Type (0, 1), BuildingBlock: KIFKEQ_clean_linker_1, # of connection points: 2
#     Edge 24, Type (0, 1), BuildingBlock: KIFKEQ_clean_linker_1, # of connection points: 2
#     Edge 25, Type (0, 1), BuildingBlock: KIFKEQ_clean_linker_1, # of connection points: 2
#     Edge 26, Type (0, 1), BuildingBlock: KIFKEQ_clean_linker_1, # of connection points: 2
#     Edge 27, Type (0, 1), BuildingBlock: KIFKEQ_clean_linker_1, # of connection points: 2
#     Edge 28, Type (0, 1), BuildingBlock: KIFKEQ_clean_linker_1, # of connection points: 2
#     Edge 29, Type (0, 1), BuildingBlock: KIFKEQ_clean_linker_1, # of connection points: 2
#     Edge 30, Type (0, 1), BuildingBlock: KIFKEQ_clean_linker_1, # of connection points: 2
#     Edge 31, Type (0, 1), BuildingBlock: KIFKEQ_clean_linker_1, # of connection points: 2
#     Edge 32, Type (0, 1), BuildingBlock: KIFKEQ_clean_linker_1, # of connection points: 2
#     Edge 33, Type (0, 1), BuildingBlock: KIFKEQ_clean_linker_1, # of connection points: 2
#     Edge 34, Type (0, 1), BuildingBlock: KIFKEQ_clean_linker_1, # of connection points: 2
#     Edge 35, Type (0, 1), BuildingBlock: KIFKEQ_clean_linker_1, # of connection points: 2
# Relax obj value: 0.445
# Max RMSD: 0.274
# Mean RMSD: 0.256
data_MOF--net-zzz--node1-BETDAH_clean_sbu_0--node2-MIDCAF_clean_linker_0--edge1-KIFKEQ_clean_linker_1
_symmetry_space_group_name_H-M    P1
_symmetry_Int_Tables_number       1
_symmetry_cell_setting            triclinic
loop_
_symmetry_equiv_pos_as_xyz
'x, y, z'
_cell_length_a     60.298413
_cell_length_b     60.318355
_cell_length_c     18.346299
_cell_angle_alpha  89.819684
_cell_angle_beta   90.098096
_cell_angle_gamma 90.059099
loop_
_atom_site_label
_atom_site_type_symbol
_atom_site_fract_x
_atom_site_fract_y
_atom_site_fract_z
_atom_type_partial_charge
C0 C 0.80264 0.52616 0.38226 0.0
C1 C 0.80504 0.52064 0.45658 0.0
C2 C 0.78684 0.51086 0.49254 0.0
C3 C 0.76778 0.50467 0.45372 0.0
H4 H 0.68984 0.45787 0.20658 0.0
H5 H 0.65913 0.46628 0.12578 0.0
H6 H 0.6745 0.53602 0.1389 0.0
H7 H 0.70573 0.52758 0.22103 0.0
H8 H 0.73647 0.429 0.17193 0.0
H9 H 0.7605 0.40216 0.11246 0.0
H10 H 0.81186 0.41615 0.27107 0.0
H11 H 0.7876 0.44144 0.33204 0.0
H12 H 0.78308 0.52253 0.28509 0.0
H13 H 0.81627 0.5335 0.35232 0.0
H14 H 0.78781 0.50677 0.54997 0.0
H15 H 0.75502 0.49522 0.48145 0.0
N16 N 0.73284 0.50037 0.30172 0.0
N17 N 0.72992 0.46522 0.24659 0.0
N18 N 0.76005 0.4731 0.32183 0.0
C19 C 0.7214 0.4858 0.25854 0.0
C20 C 0.74921 0.45875 0.27798 0.0
C21 C 0.75212 0.4937 0.33443 0.0
C22 C 0.7006 0.49202 0.21946 0.0
C23 C 0.68669 0.47509 0.19312 0.0
C24 C 0.66901 0.47988 0.14657 0.0
C25 C 0.66462 0.50176 0.12474 0.0
C26 C 0.67751 0.51897 0.15471 0.0
C27 C 0.69539 0.51415 0.20172 0.0
C28 C 0.76047 0.43808 0.255 0.0
C29 C 0.75265 0.4257 0.19545 0.0
C30 C 0.76654 0.41041 0.16088 0.0
C31 C 0.78861 0.40752 0.18456 0.0
C32 C 0.79516 0.41776 0.25006 0.0
C33 C 0.78122 0.4327 0.28505 0.0
C34 C 0.76628 0.50847 0.37838 0.0
C35 C 0.78349 0.52008 0.34363 0.0
C36 C 0.02858 0.81047 0.42705 0.0
C37 C 0.00863 0.8153 0.46318 0.0
C38 C 0.99045 0.80083 0.45301 0.0
C39 C 0.99193 0.78273 0.40492 0.0
H40 H 0.97053 0.70713 0.25513 0.0
H41 H 0.96334 0.66986 0.20738 0.0
H42 H 0.03367 0.66114 0.17193 0.0
H43 H 0.04054 0.69775 0.22122 0.0
H44 H 0.04489 0.74129 0.06631 0.0
H45 H 0.05865 0.75939 0.95499 0.0
H46 H 0.02808 0.82069 0.02213 0.0
H47 H 0.0148 0.80296 0.13303 0.0
H48 H 0.04523 0.79024 0.34886 0.0
H49 H 0.04285 0.82126 0.43232 0.0
H50 H 0.97487 0.80391 0.48041 0.0
H51 H 0.97739 0.77263 0.39493 0.0
N52 N 1.00725 0.74203 0.3048 0.0
N53 N 0.01728 0.73867 0.18106 0.0
N54 N 0.01914 0.77318 0.23764 0.0
C55 C 0.01001 0.72926 0.24389 0.0
C56 C 0.02158 0.76061 0.17728 0.0
C57 C 0.01216 0.76418 0.30147 0.0
C58 C 1.00611 0.70513 0.24275 0.0
C59 C 0.98443 0.69668 0.24058 0.0
C60 C 0.98034 0.67549 0.21185 0.0
C61 C 0.99787 0.66246 0.18439 0.0
C62 C 0.01969 0.67035 0.19297 0.0
C63 C 0.02372 0.69141 0.22155 0.0
C64 C 0.02892 0.77081 0.10837 0.0
C65 C 0.04097 0.75858 0.05668 0.0
C66 C 0.04882 0.76885 0.99321 0.0
C67 C 0.04416 0.79128 0.97988 0.0
C68 C 0.03157 0.80325 0.03063 0.0
C69 C 0.02418 0.79318 0.09444 0.0
C70 C 0.01155 0.77894 0.36579 0.0
C71 C 0.02996 0.79265 0.37891 0.0
C72 C 0.72561 0.00909 0.46565 0.0
C73 C 0.71391 0.99047 0.49228 0.0
C74 C 0.72356 0.96941 0.48316 0.0
C75 C 0.74307 0.96682 0.4429 0.0
H76 H 0.84211 0.97005 0.33554 0.0
H77 H 0.87833 0.97667 0.2793 0.0
H78 H 0.85013 0.03023 0.15281 0.0
H79 H 0.81428 0.02372 0.21029 0.0
H80 H 0.7918 0.96534 0.09506 0.0
H81 H 0.77084 0.96007 0.9829 0.0
H82 H 0.71343 0.94101 0.10933 0.0
H83 H 0.73435 0.9457 0.22053 0.0
H84 H 0.75304 0.02091 0.40114 0.0
H85 H 0.71874 0.02558 0.47113 0.0
H86 H 0.71549 0.95471 0.50436 0.0
H87 H 0.74907 0.95021 0.43232 0.0
N88 N 0.79024 0.99075 0.3479 0.0
N89 N 0.795 0.97542 0.23091 0.0
N90 N 0.76196 0.96941 0.29373 0.0
C91 C 0.80313 0.98728 0.28761 0.0
C92 C 0.77449 0.96639 0.2334 0.0
C93 C 0.76953 0.98144 0.35101 0.0
C94 C 0.82554 0.99672 0.27855 0.0
C95 C 0.84404 0.98399 0.29868 0.0
C96 C 0.86468 0.98753 0.26523 0.0
C97 C 0.86718 1.00377 0.21037 0.0
C98 C 0.84903 0.01772 0.1951 0.0
C99 C 0.82845 0.01414 0.22851 0.0
C100 C 0.76446 0.95678 0.16691 0.0
C101 C 0.77493 0.95927 0.09886 0.0
C102 C 0.76292 0.95628 0.03441 0.0
C103 C 0.74029 0.95074 0.03702 0.0
C104 C 0.73081 0.94533 0.10484 0.0
C105 C 0.74278 0.9483 0.1691 0.0
C106 C 0.75384 0.98521 0.41189 0.0
C107 C 0.7454 1.00648 0.4259 0.0
C108 C 0.5686 0.73494 0.00751 0.0
C109 C 0.56089 0.74664 0.94598 0.0
C110 C 0.55425 0.7688 0.95427 0.0
C111 C 0.55329 0.77829 0.02359 0.0
H112 H 0.4984 0.81812 0.19486 0.0
H113 H 0.49336 0.85475 0.14083 0.0
H114 H 0.55827 0.87398 0.21796 0.0
H115 H 0.56326 0.83708 0.27086 0.0
H116 H 0.51342 0.76008 0.39248 0.0
H117 H 0.50921 0.72735 0.47177 0.0
H118 H 0.56877 0.69939 0.37928 0.0
H119 H 0.57311 0.7318 0.30285 0.0
H120 H 0.5723 0.73435 0.1232 0.0
H121 H 0.57365 0.71777 1.00353 0.0
H122 H 0.54846 0.77831 0.90783 0.0
H123 H 0.54676 0.79494 0.02859 0.0
N124 N 0.54587 0.79466 0.16903 0.0
N125 N 0.53721 0.78706 0.29192 0.0
N126 N 0.5523 0.7594 0.21649 0.0
C127 C 0.53822 0.80158 0.23444 0.0
C128 C 0.54454 0.76575 0.28273 0.0
C129 C 0.55297 0.77367 0.15945 0.0
C130 C 0.53105 0.82488 0.23819 0.0
C131 C 0.51098 0.83064 0.20413 0.0
C132 C 0.50824 0.85163 0.17235 0.0
C133 C 0.52563 0.86723 0.17348 0.0
C134 C 0.54471 0.86224 0.21478 0.0
C135 C 0.5474 0.84125 0.24661 0.0
C136 C 0.54357 0.74856 0.34119 0.0
C137 C 0.52588 0.74717 0.39087 0.0
C138 C 0.52334 0.72827 0.43558 0.0
C139 C 0.53858 0.71052 0.43202 0.0
C140 C 0.55681 0.71266 0.38482 0.0
C141 C 0.55924 0.73131 0.34032 0.0
C142 C 0.55881 0.76571 0.0858 0.0
C143 C 0.56755 0.74437 0.07662 0.0
C144 C 0.21925 0.49632 0.97169 0.0
C145 C 0.20619 0.47886 0.9438 0.0
C146 C 0.21417 0.45706 0.95116 0.0
C147 C 0.23342 0.45263 0.99117 0.0
H148 H 0.3046 0.50826 0.20272 0.0
H149 H 0.33872 0.51767 0.26851 0.0
H150 H 0.3675 0.45533 0.20312 0.0
H151 H 0.33335 0.44607 0.13786 0.0
H152 H 0.28098 0.44216 0.33785 0.0
H153 H 0.25844 0.43792 0.44692 0.0
H154 H 0.20132 0.42363 0.31209 0.0
H155 H 0.22383 0.427 0.20431 0.0
H156 H 0.24746 0.50542 0.03744 0.0
H157 H 0.21362 0.51331 0.96726 0.0
H158 H 0.20493 0.44322 0.92896 0.0
H159 H 0.23814 0.43551 1.00031 0.0
N160 N 0.28158 0.4731 0.09145 0.0
N161 N 0.28566 0.45434 0.20369 0.0
N162 N 0.25274 0.45091 0.13801 0.0
C163 C 0.29425 0.46752 0.15075 0.0
C164 C 0.2649 0.44602 0.19802 0.0
C165 C 0.26079 0.46422 0.08453 0.0
C166 C 0.31657 0.47668 0.16391 0.0
C167 C 0.31865 0.49713 0.19946 0.0
C168 C 0.33806 0.50231 0.23814 0.0
C169 C 0.35575 0.48712 0.2419 0.0
C170 C 0.35431 0.46748 0.20097 0.0
C171 C 0.33482 0.46223 0.16302 0.0
C172 C 0.25395 0.43588 0.26219 0.0
C173 C 0.2638 0.43726 0.33163 0.0
C174 C 0.25084 0.43493 0.39433 0.0
C175 C 0.22786 0.43131 0.3885 0.0
C176 C 0.21889 0.4266 0.31934 0.0
C177 C 0.23183 0.42879 0.25689 0.0
C178 C 0.24547 0.46986 0.02401 0.0
C179 C 0.23875 0.49185 0.01148 0.0
C180 C 0.99253 0.22133 0.00877 0.0
C181 C 0.01187 0.21706 0.96848 0.0
C182 C 0.02978 0.23204 0.9747 0.0
C183 C 0.02874 0.2501 0.02306 0.0
H184 H 0.99192 0.33622 0.134 0.0
H185 H 0.99198 0.37413 0.18172 0.0
H186 H 0.05019 0.35878 0.30988 0.0
H187 H 0.05012 0.32132 0.2613 0.0
H188 H 0.98289 0.29062 0.37221 0.0
H189 H 0.96881 0.27244 0.48293 0.0
H190 H 0.9962 0.21026 0.41 0.0
H191 H 0.00973 0.22811 0.29944 0.0
H192 H 0.97695 0.24106 0.09067 0.0
H193 H 0.97851 0.21013 1.00645 0.0
H194 H 0.04486 0.22938 0.94402 0.0
H195 H 0.04319 0.26058 0.02995 0.0
N196 N 0.01622 0.28982 0.12848 0.0
N197 N 0.00985 0.29253 0.255 0.0
N198 N 1.00444 0.25873 0.19615 0.0
C199 C 0.01596 0.30211 0.19113 0.0
C200 C 1.00416 0.27089 0.25794 0.0
C201 C 0.01038 0.26789 0.13142 0.0
C202 C 0.02119 0.32598 0.19328 0.0
C203 C 1.00539 0.34143 0.16918 0.0
C204 C 1.00523 0.36301 0.19766 0.0
C205 C 0.02085 0.36947 0.25087 0.0
C206 C 0.03799 0.3546 0.26879 0.0
C207 C 0.03805 0.33308 0.24063 0.0
C208 C 0.99726 0.26068 0.32727 0.0
C209 C 0.98611 0.27313 0.38055 0.0
C210 C 0.97806 0.26281 0.44363 0.0
C211 C 0.98166 0.24009 0.455 0.0
C212 C 0.99352 0.2279 0.40293 0.0
C213 C 1.00107 0.23805 0.33941 0.0
C214 C 0.00988 0.25331 0.06655 0.0
C215 C 0.99163 0.2391 0.05729 0.0
C216 C 0.29393 0.01621 0.96318 0.0
C217 C 0.30512 0.03304 0.92426 0.0
C218 C 0.29534 0.05417 0.92076 0.0
C219 C 0.27596 0.05883 0.95972 0.0
H220 H 0.17721 0.06021 0.0876 0.0
H221 H 0.14203 0.05294 0.1497 0.0
H222 H 0.17462 1.00461 0.28705 0.0
H223 H 0.20956 0.01177 0.22383 0.0
H224 H 0.23324 0.07603 0.30918 0.0
H225 H 0.25781 0.08698 0.40823 0.0
H226 H 0.307 0.10762 0.25079 0.0
H227 H 0.28237 0.09738 0.15263 0.0
H228 H 0.26692 0.00798 0.03505 0.0
H229 H 0.30087 0.99968 0.96653 0.0
H230 H 0.3035 0.06762 0.89211 0.0
H231 H 0.26987 0.07572 0.96045 0.0
N232 N 0.23013 0.03941 0.07337 0.0
N233 N 0.22572 0.06157 0.17813 0.0
N234 N 0.25755 0.06522 0.10703 0.0
C235 C 0.21768 0.046 0.13182 0.0
C236 C 0.24561 0.07131 0.16607 0.0
C237 C 0.25013 0.04944 0.06054 0.0
C238 C 0.19594 0.03615 0.14975 0.0
C239 C 0.17653 0.04728 0.1287 0.0
C240 C 0.15648 0.04338 0.16525 0.0
C241 C 0.15546 0.02839 0.22426 0.0
C242 C 0.17462 0.01609 0.24156 0.0
C243 C 0.19466 0.02006 0.20502 0.0
C244 C 0.25628 0.08496 0.22309 0.0
C245 C 0.24892 0.08377 0.29571 0.0
C246 C 0.26305 0.08999 0.35261 0.0
C247 C 0.2847 0.0974 0.33763 0.0
C248 C 0.29055 0.10181 0.26481 0.0
C249 C 0.27645 0.09567 0.2081 0.0
C250 C 0.26556 0.04241 1.00219 0.0
C251 C 0.27427 0.02083 1.00145 0.0
C252 C 0.41298 0.29534 0.26173 0.0
C253 C 0.41521 0.28785 0.33416 0.0
C254 C 0.4204 0.26539 0.3462 0.0
C255 C 0.42705 0.25198 0.28817 0.0
H256 H 0.50855 0.21338 0.19481 0.0
H257 H 0.51687 0.18002 0.26648 0.0
H258 H 0.45645 0.14972 0.18831 0.0
H259 H 0.44809 0.1832 0.11853 0.0
H260 H 0.44102 0.2774 0.96555 0.0
H261 H 0.45054 0.31051 0.89622 0.0
H262 H 0.51901 0.30341 0.96121 0.0
H263 H 0.50933 0.26974 0.03047 0.0
H264 H 0.41956 0.28902 0.14958 0.0
H265 H 0.40884 0.3124 0.24946 0.0
H266 H 0.4215 0.25881 0.40108 0.0
H267 H 0.43323 0.23551 0.30023 0.0
N268 N 0.45213 0.23038 0.17451 0.0
N269 N 0.47656 0.23545 0.0754 0.0
N270 N 0.45023 0.26273 0.10513 0.0
C271 C 0.46865 0.22263 0.13141 0.0
C272 C 0.46685 0.25554 0.06147 0.0
C273 C 0.44288 0.25045 0.16202 0.0
C274 C 0.47787 0.20069 0.15031 0.0
C275 C 0.49766 0.19915 0.19042 0.0
C276 C 0.50228 0.18008 0.23196 0.0
C277 C 0.4871 0.1623 0.2344 0.0
C278 C 0.46829 0.16323 0.18899 0.0
C279 C 0.46366 0.18226 0.14794 0.0
C280 C 0.47442 0.27094 1.00335 0.0
C281 C 0.45825 0.28247 0.96313 0.0
C282 C 0.46368 0.30162 0.92406 0.0
C283 C 0.48544 0.30998 0.92452 0.0
C284 C 0.50207 0.29744 0.95976 0.0
C285 C 0.49659 0.27806 0.99899 0.0
C286 C 0.42837 0.26081 0.21726 0.0
C287 C 0.41944 0.28192 0.20389 0.0
Ho288 Ho 0.02844 0.01154 0.76292 0.0
Ho289 Ho 0.99261 0.0209 0.66795 0.0
C290 C 0.00804 0.9717 0.66369 0.0
C291 C 0.05673 0.99327 0.8497 0.0
C292 C 0.06918 0.97267 0.83874 0.0
C293 C 0.07395 0.95894 0.89823 0.0
C294 C 0.08156 0.93738 0.88681 0.0
C295 C 0.08451 0.9292 0.81554 0.0
C296 C 0.08111 0.9436 0.75623 0.0
C297 C 0.07338 0.9651 0.76771 0.0
C298 C 0.0424 0.02542 0.62951 0.0
C299 C 0.01301 0.06078 0.76702 0.0
C300 C 0.96423 0.03903 0.58111 0.0
C301 C 0.95166 0.05958 0.59167 0.0
C302 C 0.94735 0.07345 0.53216 0.0
C303 C 0.93982 0.09505 0.5435 0.0
C304 C 0.9365 0.10311 0.61472 0.0
C305 C 0.93932 0.08854 0.67391 0.0
C306 C 0.94699 0.06701 0.66252 0.0
C307 C 0.9788 1.00696 0.80142 0.0
O308 O 0.01789 0.97709 0.7256 0.0
O309 O 0.99932 0.98731 0.62239 0.0
O310 O 0.0618 0.00961 0.80602 0.0
O311 O 0.03533 0.99058 0.85616 0.0
O312 O 0.05024 0.03232 0.69095 0.0
O313 O 0.02704 0.01163 0.64135 0.0
O314 O 1.00308 0.05537 0.70525 0.0
O315 O 0.02181 0.0452 0.80825 0.0
O316 O 0.95923 0.0227 0.62494 0.0
O317 O 0.98562 0.04182 0.57468 0.0
O318 O 0.97089 1.00006 0.74007 0.0
O319 O 0.99407 0.02084 0.78945 0.0
H320 H 0.07052 0.96442 0.95327 0.0
H321 H 0.08359 0.92667 0.93383 0.0
H322 H 0.08338 0.93792 0.7008 0.0
H323 H 0.06955 0.9754 0.72085 0.0
H324 H 0.95112 0.06807 0.47726 0.0
H325 H 0.93823 0.10586 0.49658 0.0
H326 H 0.93674 0.09413 0.72929 0.0
H327 H 0.95044 0.0566 0.70944 0.0
Ho328 Ho 0.51675 0.02967 0.77046 0.0
Ho329 Ho 0.50216 1.00212 0.64287 0.0
C330 C 0.55379 1.00738 0.66147 0.0
C331 C 0.53901 0.04285 0.88127 0.0
C332 C 0.56173 0.03549 0.89949 0.0
C333 C 0.56571 0.01316 0.91776 0.0
C334 C 0.58712 1.00458 0.91534 0.0
C335 C 0.60504 0.01808 0.89491 0.0
C336 C 0.60137 0.04077 0.88209 0.0
C337 C 0.57987 0.0494 0.8844 0.0
C338 C 0.50427 0.0534 0.65224 0.0
C339 C 0.4653 0.0236 0.75351 0.0
C340 C 0.48068 0.99098 0.528 0.0
C341 C 0.46062 1.0023 0.49997 0.0
C342 C 0.46229 0.02365 0.46919 0.0
C343 C 0.44347 0.03678 0.4601 0.0
C344 C 0.42252 0.0288 0.48082 0.0
C345 C 0.42063 1.00689 0.50657 0.0
C346 C 0.43949 0.99376 0.51595 0.0
C347 C 0.51426 0.97818 0.76125 0.0
O348 O 0.54895 0.01492 0.72735 0.0
O349 O 0.53805 1.00283 0.61377 0.0
O350 O 0.53734 0.05463 0.8215 0.0
O351 O 0.52347 0.02773 0.88608 0.0
O352 O 0.5004 0.05951 0.71888 0.0
O353 O 0.51546 0.03577 0.65226 0.0
O354 O 0.47022 0.01737 0.68615 0.0
O355 O 0.48106 0.02748 0.80185 0.0
O356 O 0.47829 0.98056 0.59024 0.0
O357 O 0.49903 1.00255 0.5256 0.0
O358 O 0.51741 0.97167 0.69458 0.0
O359 O 0.50341 0.99602 0.76092 0.0
H360 H 0.55219 1.00191 0.92994 0.0
H361 H 0.58956 0.98717 0.9276 0.0
H362 H 0.61491 0.05159 0.86654 0.0
H363 H 0.57729 0.06663 0.86985 0.0
H364 H 0.47826 0.0308 0.45588 0.0
H365 H 0.44552 0.05358 0.44016 0.0
H366 H 0.40462 1.00009 0.52133 0.0
H367 H 0.43766 0.97736 0.53948 0.0
Ho368 Ho 0.49858 0.51798 0.7426 0.0
Ho369 Ho 0.52492 0.50122 0.60375 0.0
C370 C 0.51956 0.55343 0.6211 0.0
C371 C 0.48633 0.54307 0.84693 0.0
C372 C 0.49177 0.56689 0.85184 0.0
C373 C 0.51406 0.57378 0.85287 0.0
C374 C 0.51962 0.59572 0.83761 0.0
C375 C 0.50307 0.6113 0.82088 0.0
C376 C 0.48071 0.60475 0.82403 0.0
C377 C 0.47511 0.58275 0.83953 0.0
C378 C 0.4739 0.50185 0.63178 0.0
C379 C 0.50855 0.46682 0.73317 0.0
C380 C 0.52945 0.48024 0.48359 0.0
C381 C 0.5182 0.4592 0.46473 0.0
C382 C 0.49663 0.45942 0.4354 0.0
C383 C 0.4838 0.44013 0.43484 0.0
C384 C 0.49236 0.42018 0.46287 0.0
C385 C 0.51442 0.41964 0.48755 0.0
C386 C 0.52724 0.43889 0.48809 0.0
C387 C 0.55348 0.51047 0.71442 0.0
O388 O 0.50936 0.54946 0.68402 0.0
O389 O 0.52707 0.53745 0.57824 0.0
O390 O 0.47316 0.53798 0.79267 0.0
O391 O 0.50298 0.5292 0.8536 0.0
O392 O 0.46872 0.49949 0.70018 0.0
O393 O 0.49128 0.51342 0.62653 0.0
O394 O 0.51265 0.47023 0.66275 0.0
O395 O 0.5053 0.48336 0.77918 0.0
O396 O 0.544 0.47897 0.53654 0.0
O397 O 0.51661 0.49766 0.4896 0.0
O398 O 0.5598 0.50454 0.64961 0.0
O399 O 0.53267 0.51183 0.71341 0.0
H400 H 0.52739 0.56204 0.86171 0.0
H401 H 0.53697 0.6004 0.83778 0.0
H402 H 0.46758 0.61641 0.8116 0.0
H403 H 0.45783 0.57784 0.83755 0.0
H404 H 0.48925 0.4747 0.41606 0.0
H405 H 0.46704 0.44093 0.41363 0.0
H406 H 0.52152 0.40455 0.5096 0.0
H407 H 0.54381 0.43807 0.5108 0.0
Ho408 Ho 0.99543 0.49975 0.79066 0.0
Ho409 Ho 0.01297 0.52959 0.65922 0.0
C410 C 0.96098 0.51968 0.66827 0.0
C411 C 0.97833 0.48542 0.91001 0.0
C412 C 0.96002 0.4699 0.92314 0.0
C413 C 0.9449 0.46516 0.86709 0.0
C414 C 0.92724 0.45069 0.87951 0.0
C415 C 0.92452 0.44057 0.94801 0.0
C416 C 0.94017 0.44476 1.00327 0.0
C417 C 0.95779 0.45939 0.99089 0.0
C418 C 1.0011 0.47523 0.66693 0.0
C419 C 0.04788 0.5059 0.77147 0.0
C420 C 0.03655 0.54421 0.55332 0.0
C421 C 0.05893 0.53637 0.53261 0.0
C422 C 0.06136 0.51644 0.49387 0.0
C423 C 0.08165 0.50538 0.49358 0.0
C424 C 0.10003 0.51436 0.52998 0.0
C425 C 0.09834 0.53543 0.56165 0.0
C426 C 0.0779 0.54632 0.56323 0.0
C427 C 0.99838 0.55119 0.779 0.0
O428 O 0.96411 0.51251 0.73623 0.0
O429 O 0.97763 0.52505 0.62432 0.0
O430 O 0.99601 0.47658 0.88054 0.0
O431 O 0.97271 0.50441 0.87999 0.0
O432 O 0.9934 0.46718 0.72736 0.0
O433 O 1.0049 0.49533 0.67821 0.0
O434 O 0.04401 0.51362 0.70492 0.0
O435 O 0.03166 0.50197 0.81837 0.0
O436 O 0.03542 0.5543 0.61639 0.0
O437 O 0.02024 0.53006 0.54384 0.0
O438 O 0.9963 0.55867 0.7128 0.0
O439 O 0.00928 0.53335 0.77833 0.0
H440 H 0.94661 0.47287 0.81394 0.0
H441 H 0.91552 0.44763 0.83585 0.0
H442 H 0.93832 0.43738 0.05681 0.0
H443 H 0.96948 0.46272 0.03443 0.0
H444 H 0.0473 0.50866 0.46755 0.0
H445 H 0.08279 0.48944 0.46676 0.0
H446 H 0.11242 0.54279 0.58921 0.0
H447 H 0.07666 0.56181 0.59265 0.0
H448 H 0.12987 0.06305 0.27065 0.0
H449 H 0.13612 0.99196 0.29004 0.0
H450 H 0.10003 0.06262 0.35981 0.0
H451 H 0.10647 0.99163 0.38101 0.0
H452 H 0.04097 0.998 0.50976 0.0
H453 H 0.06603 0.99848 0.40428 0.0
H454 H 0.09893 0.05621 0.49176 0.0
H455 H 0.07406 0.05568 0.59626 0.0
C456 C 0.12464 0.04724 0.29284 0.0
C457 C 0.13552 0.02753 0.27285 0.0
C458 C 0.10765 0.04704 0.34478 0.0
C459 C 0.10093 0.02712 0.37823 0.0
C460 C 0.11112 1.00726 0.35615 0.0
C461 C 0.12827 1.00747 0.3044 0.0
C462 C 0.05336 0.01096 0.50568 0.0
C463 C 0.05554 0.02683 0.56127 0.0
C464 C 0.06783 0.01114 0.44563 0.0
C465 C 0.08454 0.02738 0.43941 0.0
C466 C 0.08614 0.04362 0.49409 0.0
C467 C 0.07191 0.04327 0.55425 0.0
H468 H 0.45447 0.14409 0.3188 0.0
H469 H 0.52483 0.13986 0.27749 0.0
H470 H 0.45793 0.11639 0.41487 0.0
H471 H 0.52834 0.11229 0.37528 0.0
H472 H 0.52164 0.0485 0.51543 0.0
H473 H 0.51728 0.07341 0.41055 0.0
H474 H 0.4745 0.11547 0.53818 0.0
H475 H 0.4789 0.09063 0.64266 0.0
C476 C 0.47067 0.13703 0.32941 0.0
C477 C 0.48937 0.14419 0.28986 0.0
C478 C 0.47267 0.12131 0.38526 0.0
C479 C 0.49342 0.11219 0.40318 0.0
C480 C 0.51208 0.11888 0.36259 0.0
C481 C 0.5101 0.1348 0.30691 0.0
C482 C 0.51123 0.06303 0.52083 0.0
C483 C 0.50068 0.06769 0.58735 0.0
C484 C 0.50883 0.07735 0.46091 0.0
C485 C 0.49561 0.09649 0.46594 0.0
C486 C 0.48467 0.1008 0.53214 0.0
C487 C 0.48726 0.08663 0.59217 0.0
H488 H 0.35267 0.50041 0.38347 0.0
H489 H 0.40054 0.48025 0.22203 0.0
H490 H 0.38205 0.50278 0.47458 0.0
H491 H 0.43008 0.48257 0.31391 0.0
H492 H 0.47711 0.51588 0.48992 0.0
H493 H 0.44961 0.51177 0.39266 0.0
H494 H 0.40702 0.47561 0.53993 0.0
H495 H 0.43474 0.4793 0.63663 0.0
C496 C 0.36953 0.49679 0.36709 0.0
C497 C 0.37424 0.49029 0.29518 0.0
C498 C 0.38634 0.49786 0.41965 0.0
C499 C 0.40838 0.49268 0.4017 0.0
C500 C 0.41327 0.4867 0.3294 0.0
C501 C 0.39635 0.48532 0.27688 0.0
C502 C 0.46212 0.50661 0.50105 0.0
C503 C 0.45818 0.49778 0.57089 0.0
C504 C 0.44632 0.50433 0.44537 0.0
C505 C 0.42605 0.49352 0.4587 0.0
C506 C 0.42235 0.48428 0.52816 0.0
C507 C 0.43826 0.48631 0.58346 0.0
H508 H 0.05218 0.39866 0.30453 0.0
H509 H 0.98166 0.38592 0.30248 0.0
H510 H 0.04678 0.42688 0.39835 0.0
H511 H 0.9763 0.41443 0.39407 0.0
H512 H 0.98178 0.43613 0.63405 0.0
H513 H 0.98598 0.41402 0.52427 0.0
H514 H 0.02989 0.4636 0.43404 0.0
H515 H 0.02557 0.48579 0.54566 0.0
C516 C 0.03549 0.40216 0.32289 0.0
C517 C 0.0174 0.38979 0.29612 0.0
C518 C 0.03239 0.41847 0.37633 0.0
C519 C 0.01114 0.42269 0.40456 0.0
C520 C 0.99293 0.41135 0.37438 0.0
C521 C 0.99601 0.39515 0.32095 0.0
C522 C 0.99217 0.44243 0.59053 0.0
C523 C 1.00322 0.46279 0.59789 0.0
C524 C 0.99447 0.42983 0.52729 0.0
C525 C 0.00809 0.4371 0.46982 0.0
C526 C 0.01923 0.45754 0.47717 0.0
C527 C 0.01666 0.47033 0.54054 0.0
H528 H 0.88895 0.04007 0.15234 0.0
H529 H 0.89088 0.9685 0.15807 0.0
H530 H 0.91827 0.0402 0.06044 0.0
H531 H 0.92055 0.96871 0.06843 0.0
H532 H 0.94614 0.97756 0.83291 0.0
H533 H 0.92189 0.97672 0.93883 0.0
H534 H 0.95759 0.03199 0.03161 0.0
H535 H 0.98193 0.03287 0.92442 0.0
C536 C 0.89581 0.02438 0.13491 0.0
C537 C 0.88736 1.00428 0.16273 0.0
C538 C 0.9128 0.02446 0.0826 0.0
C539 C 0.92169 1.00445 0.05633 0.0
C540 C 0.91391 0.98444 0.08653 0.0
C541 C 0.89704 0.98435 0.13888 0.0
C542 C 0.94901 0.98937 0.8763 0.0
C543 C 0.96594 1.00528 0.87021 0.0
C544 C 0.93515 0.98883 0.93735 0.0
C545 C 0.93772 1.00429 0.99406 0.0
C546 C 0.95501 0.01995 0.98875 0.0
C547 C 0.96907 0.02036 0.92766 0.0
H548 H 0.5595 0.88314 0.08923 0.0
H549 H 0.4907 0.89514 0.14084 0.0
H550 H 0.55804 0.9117 0.99539 0.0
H551 H 0.48912 0.92348 0.04522 0.0
H552 H 0.49922 0.98514 0.90007 0.0
H553 H 0.50297 0.96051 1.0058 0.0
H554 H 0.54044 0.91447 0.875 0.0
H555 H 0.53676 0.93911 0.76981 0.0
C556 C 0.54415 0.89216 0.0817 0.0
C557 C 0.52522 0.88678 0.12304 0.0
C558 C 0.54324 0.90837 0.027 0.0
C559 C 0.52341 0.91976 0.01208 0.0
C560 C 0.50471 0.91511 0.05539 0.0
C561 C 0.50557 0.89875 0.10994 0.0
C562 C 0.50839 0.96982 0.89418 0.0
C563 C 0.51762 0.964 0.82655 0.0
C564 C 0.51043 0.95566 0.95463 0.0
C565 C 0.52197 0.93546 0.94902 0.0
C566 C 0.53165 0.92997 0.88164 0.0
C567 C 0.52944 0.94403 0.82115 0.0
H568 H 0.66066 0.47994 0.99643 0.0
H569 H 0.6309 0.53283 0.1202 0.0
H570 H 0.63321 0.485 0.90078 0.0
H571 H 0.6031 0.53806 0.02294 0.0
H572 H 0.54378 0.51519 0.86088 0.0
H573 H 0.57045 0.51603 0.96255 0.0
H574 H 0.62445 0.51401 0.80858 0.0
H575 H 0.59806 0.51318 0.70826 0.0
C576 C 0.64818 0.49267 1.00326 0.0
C577 C 0.64792 0.5059 0.06617 0.0
C578 C 0.63252 0.49569 0.94805 0.0
C579 C 0.616 0.512 0.95397 0.0
C580 C 0.61558 0.5253 0.01694 0.0
C581 C 0.63156 0.52243 0.07225 0.0
C582 C 0.56133 0.51543 0.84903 0.0
C583 C 0.56881 0.51402 0.77665 0.0
C584 C 0.57661 0.5159 0.90713 0.0
C585 C 0.59958 0.51479 0.89364 0.0
C586 C 0.6069 0.5145 0.82098 0.0
C587 C 0.59174 0.5141 0.76341 0.0
H588 H 0.02242 0.62399 0.17505 0.0
H589 H 0.96383 0.65553 0.08722 0.0
H590 H 0.01983 0.59546 0.08212 0.0
H591 H 0.96037 0.62618 0.99767 0.0
H592 H 0.9817 0.59298 0.78409 0.0
H593 H 0.97866 0.6172 0.88906 0.0
H594 H 1.00227 0.56437 0.02874 0.0
H595 H 1.00609 0.54033 0.92221 0.0
C596 C 0.00873 0.62466 0.13685 0.0
C597 C 0.99359 0.64243 0.13831 0.0
C598 C 1.00708 0.60806 0.08384 0.0
C599 C 0.99009 0.60859 0.03112 0.0
C600 C 0.97402 0.62544 0.03602 0.0
C601 C 0.97579 0.64216 0.08853 0.0
C602 C 0.98604 0.58645 0.83731 0.0
C603 C 0.99429 0.56481 0.84478 0.0
C604 C 0.98413 0.60032 0.89791 0.0
C605 C 0.99023 0.59288 0.96799 0.0
C606 C 0.99773 0.57085 0.97571 0.0
C607 C 0.99978 0.557 0.91475 0.0
H608 H 1.00215 0.21323 0.55283 0.0
H609 H 0.93808 0.23947 0.49347 0.0
H610 H 0.98444 0.18451 0.62492 0.0
H611 H 0.92004 0.21079 0.56702 0.0
H612 H 0.95568 0.12848 0.72115 0.0
H613 H 0.96115 0.16836 0.71696 0.0
H614 H 0.9181 0.17244 0.52898 0.0
H615 H 0.91175 0.13277 0.5353 0.0
C616 C 0.98424 0.21335 0.55793 0.0
C617 C 0.97143 0.22816 0.51668 0.0
C618 C 0.97401 0.19698 0.59974 0.0
C619 C 0.95074 0.19505 0.60051 0.0
C620 C 0.93798 0.21164 0.56646 0.0
C621 C 0.94829 0.22813 0.52479 0.0
C622 C 0.94654 0.13796 0.68094 0.0
C623 C 0.9339 0.12732 0.62675 0.0
C624 C 0.94981 0.16086 0.67839 0.0
C625 C 0.94068 0.17347 0.62133 0.0
C626 C 0.92555 0.16327 0.57353 0.0
C627 C 0.92214 0.1404 0.5764 0.0
H628 H 0.32125 0.12407 0.35945 0.0
H629 H 0.28925 0.06456 0.43884 0.0
H630 H 0.3561 0.1118 0.41425 0.0
H631 H 0.32365 0.05262 0.49356 0.0
H632 H 0.38936 0.0328 0.58133 0.0
H633 H 0.35601 0.05559 0.57302 0.0
H634 H 0.37824 0.08099 0.36505 0.0
H635 H 0.4114 0.05827 0.3734 0.0
C636 C 0.32142 0.1088 0.39065 0.0
C637 C 0.30259 0.09503 0.3929 0.0
C638 C 0.34138 0.10175 0.42183 0.0
C639 C 0.34274 0.08095 0.4563 0.0
C640 C 0.3232 0.06872 0.46728 0.0
C641 C 0.30332 0.07569 0.43592 0.0
C642 C 0.3871 0.0433 0.534 0.0
C643 C 0.40285 0.0435 0.47755 0.0
C644 C 0.36812 0.05649 0.52957 0.0
C645 C 0.36451 0.07016 0.46856 0.0
C646 C 0.38072 0.07101 0.41357 0.0
C647 C 0.39967 0.05783 0.41801 0.0
H648 H 0.39313 0.32749 0.35413 0.0
H649 H 0.44471 0.2865 0.44784 0.0
H650 H 0.40994 0.35998 0.40968 0.0
H651 H 0.46041 0.31863 0.50703 0.0
H652 H 0.50433 0.3777 0.43188 0.0
H653 H 0.48129 0.34482 0.43356 0.0
H654 H 0.42536 0.38385 0.50493 0.0
H655 H 0.44871 0.41707 0.50372 0.0
C656 C 0.40747 0.32521 0.38898 0.0
C657 C 0.41816 0.30451 0.39319 0.0
C658 C 0.41701 0.34387 0.42147 0.0
C659 C 0.43709 0.34194 0.45998 0.0
C660 C 0.44537 0.32069 0.4753 0.0
C661 C 0.43607 0.30213 0.44196 0.0
C662 C 0.48726 0.37926 0.44943 0.0
C663 C 0.47833 0.40002 0.46709 0.0
C664 C 0.47403 0.36034 0.45097 0.0
C665 C 0.45148 0.36166 0.47017 0.0
C666 C 0.44263 0.38233 0.48976 0.0
C667 C 0.45595 0.40133 0.48842 0.0
H668 H 0.23301 0.46497 0.48697 0.0
H669 H 0.18782 0.41248 0.42601 0.0
H670 H 0.20343 0.48347 0.55162 0.0
H671 H 0.15781 0.43194 0.48583 0.0
H672 H 0.10412 0.47207 0.5797 0.0
H673 H 0.13741 0.449 0.57977 0.0
H674 H 0.17516 0.50433 0.49461 0.0
H675 H 0.14209 0.52735 0.49735 0.0
C676 C 0.21699 0.45688 0.48928 0.0
C677 C 0.21264 0.43756 0.4488 0.0
C678 C 0.19987 0.46778 0.52551 0.0
C679 C 0.17803 0.45977 0.52114 0.0
C680 C 0.17435 0.43883 0.48969 0.0
C681 C 0.19157 0.42772 0.45455 0.0
C682 C 0.11969 0.47925 0.56188 0.0
C683 C 0.12059 0.50128 0.53705 0.0
C684 C 0.13873 0.46609 0.56207 0.0
C685 C 0.15897 0.47466 0.53656 0.0
C686 C 0.16 0.49717 0.51577 0.0
C687 C 0.14102 0.51037 0.5165 0.0
H688 H 0.02251 0.81673 0.8807 0.0
H689 H 0.08764 0.7933 0.94024 0.0
H690 H 0.03895 0.84583 0.8072 0.0
H691 H 0.10443 0.82228 0.86482 0.0
H692 H 0.06514 0.90315 0.7112 0.0
H693 H 0.06104 0.86312 0.71569 0.0
H694 H 0.1054 0.86052 0.90075 0.0
H695 H 0.11048 0.90034 0.89367 0.0
C696 C 0.0404 0.8173 0.87536 0.0
C697 C 0.05384 0.80322 0.91724 0.0
C698 C 0.04992 0.83389 0.83267 0.0
C699 C 0.07309 0.83675 0.83147 0.0
C700 C 0.08653 0.82077 0.86586 0.0
C701 C 0.07695 0.80409 0.90858 0.0
C702 C 0.07485 0.89398 0.75075 0.0
C703 C 0.08756 0.90503 0.80386 0.0
C704 C 0.07235 0.87099 0.75355 0.0
C705 C 0.08227 0.85868 0.80997 0.0
C706 C 0.09736 0.8694 0.85668 0.0
C707 C 0.10003 0.89236 0.85343 0.0
H708 H 0.74288 0.98567 0.94235 0.0
H709 H 0.70359 0.92753 0.99119 0.0
H710 H 0.71202 1.0014 0.8751 0.0
H711 H 0.6723 0.94386 0.92703 0.0
H712 H 0.61576 0.97918 0.82772 0.0
H713 H 0.6518 0.96073 0.82669 0.0
H714 H 0.68048 0.0166 0.94002 0.0
H715 H 0.64465 0.03491 0.94077 0.0
C716 C 0.72801 0.97576 0.93629 0.0
C717 C 0.72545 0.95562 0.97433 0.0
C718 C 0.71019 0.98498 0.89838 0.0
C719 C 0.68949 0.9743 0.89826 0.0
C720 C 0.68796 0.95267 0.92673 0.0
C721 C 0.70586 0.94335 0.96413 0.0
C722 C 0.62987 0.98754 0.85186 0.0
C723 C 0.62735 0.00826 0.88586 0.0
C724 C 0.6505 0.97705 0.8507 0.0
C725 C 0.66898 0.98711 0.88354 0.0
C726 C 0.66669 0.0085 0.91312 0.0
C727 C 0.6461 0.01897 0.91414 0.0
H728 H 0.52343 0.74985 0.86265 0.0
H729 H 0.5856 0.71462 0.87826 0.0
H730 H 0.50801 0.71998 0.79017 0.0
H731 H 0.56981 0.68419 0.80951 0.0
H732 H 0.53705 0.62521 0.73283 0.0
H733 H 0.55097 0.66295 0.71847 0.0
H734 H 0.4973 0.68687 0.85306 0.0
H735 H 0.48327 0.64949 0.86569 0.0
C736 C 0.53419 0.73621 0.84798 0.0
C737 C 0.55547 0.73412 0.87879 0.0
C738 C 0.52522 0.71893 0.80697 0.0
C739 C 0.53728 0.69926 0.79715 0.0
C740 C 0.55984 0.69893 0.81694 0.0
C741 C 0.5689 0.71632 0.85713 0.0
C742 C 0.52802 0.63866 0.7581 0.0
C743 C 0.50933 0.63435 0.80177 0.0
C744 C 0.53592 0.66027 0.74948 0.0
C745 C 0.52549 0.67794 0.7854 0.0
C746 C 0.50568 0.67379 0.82369 0.0
C747 C 0.49767 0.65224 0.83164 0.0
H748 H 0.78932 0.4081 0.0343 0.0
H749 H 0.82772 0.38597 0.22012 0.0
H750 H 0.82203 0.40654 0.95923 0.0
H751 H 0.86098 0.38716 0.14687 0.0
H752 H 0.92124 0.40036 0.01788 0.0
H753 H 0.88728 0.38167 0.05726 0.0
H754 H 0.84856 0.43386 0.95642 0.0
H755 H 0.88214 0.45159 0.91523 0.0
C756 C 0.80452 0.40234 0.05932 0.0
C757 C 0.80594 0.39836 0.13487 0.0
C758 C 0.82353 0.40189 0.01608 0.0
C759 C 0.84447 0.39817 0.04772 0.0
C760 C 0.84532 0.3907 0.12042 0.0
C761 C 0.82615 0.39039 0.16311 0.0
C762 C 0.90536 0.40747 1.00319 0.0
C763 C 0.90429 0.42748 0.96395 0.0
C764 C 0.88589 0.39681 0.02578 0.0
C765 C 0.86499 0.40621 0.01068 0.0
C766 C 0.86412 0.42566 0.96802 0.0
C767 C 0.88349 0.43605 0.94467 0.0
H768 H 0.98019 0.19675 0.8835 0.0
H769 H 0.04761 0.18902 0.95919 0.0
H770 H 0.9813 0.15962 0.83156 0.0
H771 H 0.04902 0.15225 0.90434 0.0
H772 H 0.0324 0.07779 0.88981 0.0
H773 H 0.03329 0.11619 0.93029 0.0
H774 H 0.9969 0.136 0.73796 0.0
H775 H 0.99544 0.09738 0.69827 0.0
C776 C 0.99538 0.18728 0.88815 0.0
C777 C 0.01375 0.19593 0.92623 0.0
C778 C 0.99609 0.16602 0.8576 0.0
C779 C 0.01519 0.15277 0.86402 0.0
C780 C 0.03389 0.1618 0.89925 0.0
C781 C 0.03319 0.18307 0.92985 0.0
C782 C 0.02458 0.09029 0.85598 0.0
C783 C 0.01382 0.08439 0.79077 0.0
C784 C 0.02526 0.11241 0.87897 0.0
C785 C 0.0152 0.12931 0.83745 0.0
C786 C 1.00457 0.12343 0.77187 0.0
C787 C 1.00386 0.10126 0.74887 0.0
H788 H 0.32212 0.04755 0.79319 0.0
H789 H 0.34 0.01095 0.98709 0.0
H790 H 0.36045 0.04529 0.75049 0.0
H791 H 0.37816 0.00837 0.94392 0.0
H792 H 0.44854 0.03231 0.88938 0.0
H793 H 0.40981 0.03346 0.92717 0.0
H794 H 0.3892 0.01949 0.70673 0.0
H795 H 0.42801 0.01872 0.66828 0.0
C796 C 0.33416 0.03884 0.82643 0.0
C797 C 0.32787 0.02945 0.8937 0.0
C798 C 0.35615 0.03744 0.80173 0.0
C799 C 0.37253 0.02682 0.84399 0.0
C800 C 0.36611 0.01695 0.91035 0.0
C801 C 0.3441 0.01817 0.93469 0.0
C802 C 0.4358 0.02964 0.84865 0.0
C803 C 0.44154 0.02545 0.77564 0.0
C804 C 0.41353 0.0301 0.87054 0.0
C805 C 0.3963 0.02648 0.82008 0.0
C806 C 0.402 0.0226 0.74685 0.0
C807 C 0.4243 0.02206 0.72493 0.0
H808 H 0.52052 0.32435 0.83938 0.0
H809 H 0.46062 0.34723 0.94325 0.0
H810 H 0.52718 0.36198 0.79229 0.0
H811 H 0.46705 0.38436 0.89591 0.0
H812 H 0.49725 0.45292 0.8706 0.0
H813 H 0.49301 0.41513 0.91538 0.0
H814 H 0.51096 0.38984 0.70372 0.0
H815 H 0.51536 0.42781 0.65857 0.0
C816 C 0.50879 0.33736 0.85214 0.0
C817 C 0.48994 0.33267 0.89468 0.0
C818 C 0.51251 0.35887 0.82476 0.0
C819 C 0.49768 0.37626 0.84043 0.0
C820 C 0.47895 0.37151 0.88328 0.0
C821 C 0.47514 0.35009 0.90982 0.0
C822 C 0.50037 0.43938 0.83339 0.0
C823 C 0.50656 0.44357 0.76072 0.0
C824 C 0.49784 0.41763 0.85911 0.0
C825 C 0.50153 0.39937 0.81315 0.0
C826 C 0.50815 0.40348 0.74082 0.0
C827 C 0.51054 0.4253 0.71483 0.0
H828 H 0.19159 0.51247 0.85252 0.0
H829 H 0.16876 0.45448 0.96894 0.0
H830 H 0.15367 0.51915 0.80907 0.0
H831 H 0.13136 0.46076 0.92431 0.0
H832 H 0.06314 0.49254 0.90553 0.0
H833 H 0.10133 0.48657 0.94399 0.0
H834 H 0.12423 0.50403 0.72839 0.0
H835 H 0.0859 0.51024 0.69 0.0
C836 C 0.17856 0.50111 0.86861 0.0
C837 C 0.18337 0.48286 0.91399 0.0
C838 C 0.15684 0.50483 0.84322 0.0
C839 C 0.13935 0.49055 0.86338 0.0
C840 C 0.14427 0.47228 0.90829 0.0
C841 C 0.16588 0.4685 0.93317 0.0
C842 C 0.07625 0.49509 0.8661 0.0
C843 C 0.07131 0.50192 0.79453 0.0
C844 C 0.09823 0.49157 0.88815 0.0
C845 C 0.11597 0.49476 0.83937 0.0
C846 C 0.11107 0.50166 0.76777 0.0
C847 C 0.08903 0.50513 0.74563 0.0
H848 H 0.97344 0.84419 0.46685 0.0
H849 H 0.03938 0.83479 0.55372 0.0
H850 H 0.97207 0.88094 0.52157 0.0
H851 H 0.03846 0.87195 0.60512 0.0
H852 H 0.02469 0.93494 0.73392 0.0
H853 H 0.02297 0.89633 0.69452 0.0
H854 H 0.98832 0.91652 0.49904 0.0
H855 H 0.98942 0.95489 0.53939 0.0
C856 C 0.98753 0.84977 0.49852 0.0
C857 C 1.00657 0.83645 0.50527 0.0
C858 C 0.98689 0.87106 0.52904 0.0
C859 C 1.00527 0.87966 0.56716 0.0
C860 C 0.02391 0.86593 0.57674 0.0
C861 C 0.02453 0.84464 0.54644 0.0
C862 C 0.01659 0.93113 0.6827 0.0
C863 C 1.00715 0.94811 0.63995 0.0
C864 C 0.01572 0.90896 0.65985 0.0
C865 C 1.00547 0.90316 0.5935 0.0
C866 C 0.996 0.92019 0.55102 0.0
C867 C 0.99681 0.9423 0.57393 0.0
H868 H 0.67852 0.96262 0.47162 0.0
H869 H 0.69667 0.02324 0.58142 0.0
H870 H 0.64094 0.96601 0.5169 0.0
H871 H 0.65847 0.02714 0.62448 0.0
H872 H 0.59132 0.01651 0.74164 0.0
H873 H 0.63008 0.01228 0.70519 0.0
H874 H 0.60872 0.98777 0.49554 0.0
H875 H 0.57021 0.99159 0.53242 0.0
C876 C 0.67462 0.97662 0.50608 0.0
C877 C 0.69091 0.99257 0.52301 0.0
C878 C 0.65283 0.97874 0.53125 0.0
C879 C 0.64642 0.99696 0.57398 0.0
C880 C 0.66273 0.01279 0.5921 0.0
C881 C 0.68465 0.01067 0.56675 0.0
C882 C 0.59491 0.01008 0.68798 0.0
C883 C 0.57752 1.00429 0.64029 0.0
C884 C 0.61719 0.0078 0.6668 0.0
C885 C 0.62271 0.99957 0.59738 0.0
C886 C 0.60526 0.99379 0.54988 0.0
C887 C 0.58306 0.9961 0.57098 0.0
H888 H 0.49934 0.68843 0.45907 0.0
H889 H 0.56991 0.68377 0.49692 0.0
H890 H 0.4945 0.65119 0.50971 0.0
H891 H 0.56505 0.64643 0.54549 0.0
H892 H 0.55017 0.57109 0.52677 0.0
H893 H 0.55434 0.60983 0.4894 0.0
H894 H 0.49861 0.62784 0.62402 0.0
H895 H 0.49474 0.5892 0.66275 0.0
C896 C 0.51379 0.67971 0.47928 0.0
C897 C 0.53507 0.68915 0.47267 0.0
C898 C 0.51101 0.65826 0.50803 0.0
C899 C 0.52944 0.64563 0.53036 0.0
C900 C 0.55056 0.65546 0.52712 0.0
C901 C 0.55332 0.67693 0.49917 0.0
C902 C 0.53884 0.58331 0.54856 0.0
C903 C 0.52217 0.57699 0.59789 0.0
C904 C 0.54131 0.60555 0.52749 0.0
C905 C 0.52688 0.62201 0.554 0.0
C906 C 0.50996 0.61562 0.60237 0.0
C907 C 0.50784 0.59347 0.62486 0.0
H908 H 0.83655 0.55373 0.44303 0.0
H909 H 0.82413 0.49153 0.55302 0.0
H910 H 0.87373 0.55483 0.49623 0.0
H911 H 0.861 0.49271 0.6061 0.0
H912 H 0.92224 0.50927 0.7391 0.0
H913 H 0.88445 0.51137 0.69247 0.0
H914 H 0.90915 0.53597 0.4867 0.0
H915 H 0.94695 0.5343 0.53374 0.0
C916 C 0.84165 0.54033 0.47867 0.0
C917 C 0.82712 0.52261 0.4938 0.0
C918 C 0.86303 0.54093 0.50912 0.0
C919 C 0.87049 0.52385 0.5556 0.0
C920 C 0.8558 0.50638 0.5717 0.0
C921 C 0.83451 0.50575 0.54126 0.0
C922 C 0.91967 0.51525 0.68401 0.0
C923 C 0.93779 0.52157 0.64029 0.0
C924 C 0.89793 0.51634 0.65705 0.0
C925 C 0.89362 0.52378 0.58558 0.0
C926 C 0.91172 0.53042 0.54226 0.0
C927 C 0.93348 0.5293 0.56918 0.0
loop_
_geom_bond_atom_site_label_1
_geom_bond_atom_site_label_2
_geom_bond_distance
_geom_bond_site_symmetry_2
_ccdc_geom_bond_type
C0 C1 1.384 . S
C0 H13 0.947 . S
C0 C35 1.382 . S
C1 C0 1.384 . S
C1 C2 1.378 . S
C2 C1 1.378 . S
C2 C3 1.378 . S
C2 H14 0.952 . S
C3 C2 1.378 . S
C3 H15 0.950 . S
C3 C34 1.383 . S
H4 C23 0.947 . S
H5 C24 0.946 . S
H6 C26 0.953 . S
H7 C27 0.945 . S
H8 C29 0.952 . S
H9 C30 0.949 . S
H10 C32 0.950 . S
H11 C33 0.948 . S
H12 C35 0.951 . S
H13 C0 0.947 . S
H14 C2 0.952 . S
H15 C3 0.950 . S
N16 C19 1.382 . S
N16 C21 1.363 . S
N17 C19 1.371 . S
N17 C20 1.372 . S
N18 C20 1.361 . S
N18 C21 1.377 . S
C19 N16 1.382 . S
C19 N17 1.371 . S
C19 C22 1.480 . S
C20 N17 1.372 . S
C20 N18 1.361 . S
C20 C28 1.457 . S
C21 N16 1.363 . S
C21 N18 1.377 . S
C21 C34 1.479 . S
C22 C19 1.480 . S
C22 C23 1.383 . S
C22 C27 1.385 . S
C23 H4 0.947 . S
C23 C22 1.383 . S
C23 C24 1.388 . S
C24 H5 0.946 . S
C24 C23 1.388 . S
C24 C25 1.384 . S
C25 C24 1.384 . S
C25 C26 1.377 . S
C26 H6 0.953 . S
C26 C25 1.377 . S
C26 C27 1.369 . S
C27 H7 0.945 . S
C27 C22 1.385 . S
C27 C26 1.369 . S
C28 C20 1.457 . S
C28 C29 1.372 . S
C28 C33 1.364 . S
C29 H8 0.952 . S
C29 C28 1.372 . S
C29 C30 1.389 . S
C30 H9 0.949 . S
C30 C29 1.389 . S
C30 C31 1.387 . S
C31 C30 1.387 . S
C31 C32 1.372 . S
C32 H10 0.950 . S
C32 C31 1.372 . S
C32 C33 1.379 . S
C33 H11 0.948 . S
C33 C28 1.364 . S
C33 C32 1.379 . S
C34 C3 1.383 . S
C34 C21 1.479 . S
C34 C35 1.398 . S
C35 C0 1.382 . S
C35 H12 0.951 . S
C35 C34 1.398 . S
C36 C37 1.384 1_655 S
C36 H49 0.948 . S
C36 C71 1.382 1_655 S
C37 C36 1.384 1_455 S
C37 C38 1.378 . S
C38 C37 1.378 . S
C38 C39 1.378 . S
C38 H50 0.952 . S
C39 C38 1.378 . S
C39 H51 0.950 . S
C39 C70 1.383 . S
H40 C59 0.947 . S
H41 C60 0.952 . S
H42 C62 0.953 . S
H43 C63 0.945 . S
H44 C65 0.949 1_655 S
H45 C66 0.956 . S
H46 C68 0.950 . S
H47 C69 0.948 . S
H48 C71 0.951 1_655 S
H49 C36 0.948 . S
H50 C38 0.952 . S
H51 C39 0.950 . S
N52 C55 1.382 . S
N52 C57 1.363 . S
N53 C55 1.371 . S
N53 C56 1.372 . S
N54 C56 1.361 . S
N54 C57 1.377 . S
C55 N52 1.382 . S
C55 N53 1.371 . S
C55 C58 1.480 . S
C56 N53 1.372 . S
C56 N54 1.361 . S
C56 C64 1.457 . S
C57 N52 1.363 . S
C57 N54 1.377 . S
C57 C70 1.479 . S
C58 C55 1.480 . S
C58 C59 1.383 . S
C58 C63 1.385 . S
C59 H40 0.947 . S
C59 C58 1.383 . S
C59 C60 1.386 1_455 S
C60 H41 0.952 . S
C60 C59 1.386 1_655 S
C60 C61 1.381 1_655 S
C61 C60 1.381 1_455 S
C61 C62 1.377 . S
C62 H42 0.953 . S
C62 C61 1.377 . S
C62 C63 1.369 . S
C63 H43 0.945 . S
C63 C58 1.385 . S
C63 C62 1.369 . S
C64 C56 1.457 . S
C64 C65 1.376 . S
C64 C69 1.364 . S
C65 H44 0.949 1_455 S
C65 C64 1.376 . S
C65 C66 1.387 1_455 S
C66 H45 0.956 . S
C66 C65 1.387 1_655 S
C66 C67 1.383 1_655 S
C67 C66 1.383 1_455 S
C67 C68 1.372 . S
C68 H46 0.950 . S
C68 C67 1.372 . S
C68 C69 1.379 . S
C69 H47 0.948 . S
C69 C64 1.364 . S
C69 C68 1.379 . S
C70 C39 1.383 . S
C70 C57 1.479 . S
C70 C71 1.398 . S
C71 C36 1.382 1_455 S
C71 H48 0.951 1_455 S
C71 C70 1.398 . S
C72 C73 1.384 1_565 S
C72 H85 0.948 . S
C72 C107 1.382 1_565 S
C73 C72 1.384 1_545 S
C73 C74 1.378 . S
C74 C73 1.378 . S
C74 C75 1.378 . S
C74 H86 0.952 . S
C75 C74 1.378 . S
C75 H87 0.950 . S
C75 C106 1.383 . S
H76 C95 0.947 . S
H77 C96 0.952 . S
H78 C98 0.953 . S
H79 C99 0.945 . S
H80 C101 0.949 1_565 S
H81 C102 0.956 . S
H82 C104 0.950 . S
H83 C105 0.948 . S
H84 C107 0.951 1_565 S
H85 C72 0.948 . S
H86 C74 0.952 . S
H87 C75 0.950 . S
N88 C91 1.382 . S
N88 C93 1.363 . S
N89 C91 1.371 . S
N89 C92 1.372 . S
N90 C92 1.361 . S
N90 C93 1.377 . S
C91 N88 1.382 . S
C91 N89 1.371 . S
C91 C94 1.480 . S
C92 N89 1.372 . S
C92 N90 1.361 . S
C92 C100 1.457 . S
C93 N88 1.363 . S
C93 N90 1.377 . S
C93 C106 1.479 . S
C94 C91 1.480 . S
C94 C95 1.383 . S
C94 C99 1.385 . S
C95 H76 0.947 . S
C95 C94 1.383 . S
C95 C96 1.386 1_545 S
C96 H77 0.952 . S
C96 C95 1.386 1_565 S
C96 C97 1.381 1_565 S
C97 C96 1.381 1_545 S
C97 C98 1.377 . S
C98 H78 0.953 . S
C98 C97 1.377 . S
C98 C99 1.369 . S
C99 H79 0.945 . S
C99 C94 1.385 . S
C99 C98 1.369 . S
C100 C92 1.457 . S
C100 C101 1.376 . S
C100 C105 1.364 . S
C101 H80 0.949 1_545 S
C101 C100 1.376 . S
C101 C102 1.386 1_545 S
C102 H81 0.956 . S
C102 C101 1.386 1_565 S
C102 C103 1.383 1_565 S
C103 C102 1.383 1_545 S
C103 C104 1.372 . S
C104 H82 0.950 . S
C104 C103 1.372 . S
C104 C105 1.379 . S
C105 H83 0.948 . S
C105 C100 1.364 . S
C105 C104 1.379 . S
C106 C75 1.383 . S
C106 C93 1.479 . S
C106 C107 1.398 . S
C107 C72 1.382 1_545 S
C107 H84 0.951 1_545 S
C107 C106 1.398 . S
C108 C109 1.384 . S
C108 H121 0.947 . S
C108 C143 1.382 . S
C109 C108 1.384 . S
C109 C110 1.378 . S
C110 C109 1.378 . S
C110 C111 1.378 . S
C110 H122 0.952 . S
C111 C110 1.378 . S
C111 H123 0.950 . S
C111 C142 1.383 . S
H112 C131 0.947 . S
H113 C132 0.946 . S
H114 C134 0.953 . S
H115 C135 0.945 . S
H116 C137 0.952 . S
H117 C138 0.949 . S
H118 C140 0.950 . S
H119 C141 0.948 . S
H120 C143 0.951 . S
H121 C108 0.947 . S
H122 C110 0.952 . S
H123 C111 0.950 . S
N124 C127 1.382 . S
N124 C129 1.363 . S
N125 C127 1.371 . S
N125 C128 1.372 . S
N126 C128 1.361 . S
N126 C129 1.377 . S
C127 N124 1.382 . S
C127 N125 1.371 . S
C127 C130 1.480 . S
C128 N125 1.372 . S
C128 N126 1.361 . S
C128 C136 1.457 . S
C129 N124 1.363 . S
C129 N126 1.377 . S
C129 C142 1.479 . S
C130 C127 1.480 . S
C130 C131 1.383 . S
C130 C135 1.385 . S
C131 H112 0.947 . S
C131 C130 1.383 . S
C131 C132 1.388 . S
C132 H113 0.946 . S
C132 C131 1.388 . S
C132 C133 1.384 . S
C133 C132 1.384 . S
C133 C134 1.377 . S
C134 H114 0.953 . S
C134 C133 1.377 . S
C134 C135 1.369 . S
C135 H115 0.945 . S
C135 C130 1.385 . S
C135 C134 1.369 . S
C136 C128 1.457 . S
C136 C137 1.372 . S
C136 C141 1.364 . S
C137 H116 0.952 . S
C137 C136 1.372 . S
C137 C138 1.389 . S
C138 H117 0.949 . S
C138 C137 1.389 . S
C138 C139 1.387 . S
C139 C138 1.387 . S
C139 C140 1.372 . S
C140 H118 0.950 . S
C140 C139 1.372 . S
C140 C141 1.379 . S
C141 H119 0.948 . S
C141 C136 1.364 . S
C141 C140 1.379 . S
C142 C111 1.383 . S
C142 C129 1.479 . S
C142 C143 1.398 . S
C143 C108 1.382 . S
C143 H120 0.951 . S
C143 C142 1.398 . S
C144 C145 1.384 . S
C144 H157 0.947 . S
C144 C179 1.382 . S
C145 C144 1.384 . S
C145 C146 1.378 . S
C146 C145 1.378 . S
C146 C147 1.378 . S
C146 H158 0.952 . S
C147 C146 1.378 . S
C147 H159 0.950 . S
C147 C178 1.383 . S
H148 C167 0.947 1_556 S
H149 C168 0.946 1_556 S
H150 C170 0.953 . S
H151 C171 0.945 . S
H152 C173 0.952 . S
H153 C174 0.949 . S
H154 C176 0.950 . S
H155 C177 0.948 . S
H156 C179 0.951 . S
H157 C144 0.947 . S
H158 C146 0.952 . S
H159 C147 0.950 . S
N160 C163 1.382 1_556 S
N160 C165 1.363 . S
N161 C163 1.371 . S
N161 C164 1.372 . S
N162 C164 1.361 . S
N162 C165 1.377 1_554 S
C163 N160 1.382 1_554 S
C163 N161 1.371 . S
C163 C166 1.480 . S
C164 N161 1.372 . S
C164 N162 1.361 . S
C164 C172 1.457 . S
C165 N160 1.363 . S
C165 N162 1.377 1_556 S
C165 C178 1.479 . S
C166 C163 1.480 . S
C166 C167 1.383 . S
C166 C171 1.385 . S
C167 H148 0.947 1_554 S
C167 C166 1.383 . S
C167 C168 1.388 . S
C168 H149 0.946 1_554 S
C168 C167 1.388 . S
C168 C169 1.384 . S
C169 C168 1.384 . S
C169 C170 1.377 . S
C170 H150 0.953 . S
C170 C169 1.377 . S
C170 C171 1.369 . S
C171 H151 0.945 . S
C171 C166 1.385 . S
C171 C170 1.369 . S
C172 C164 1.457 . S
C172 C173 1.372 . S
C172 C177 1.364 . S
C173 H152 0.952 . S
C173 C172 1.372 . S
C173 C174 1.389 . S
C174 H153 0.949 . S
C174 C173 1.389 . S
C174 C175 1.387 . S
C175 C174 1.387 . S
C175 C176 1.372 . S
C176 H154 0.950 . S
C176 C175 1.372 . S
C176 C177 1.379 . S
C177 H155 0.948 . S
C177 C172 1.364 . S
C177 C176 1.379 . S
C178 C147 1.383 . S
C178 C165 1.479 . S
C178 C179 1.398 . S
C179 C144 1.382 . S
C179 H156 0.951 . S
C179 C178 1.398 . S
C180 C181 1.384 . S
C180 H193 0.948 1_455 S
C180 C215 1.382 . S
C181 C180 1.384 . S
C181 C182 1.378 . S
C182 C181 1.378 . S
C182 C183 1.378 . S
C182 H194 0.952 . S
C183 C182 1.378 . S
C183 H195 0.950 . S
C183 C214 1.383 . S
H184 C203 0.947 1_556 S
H185 C204 0.949 1_556 S
H186 C206 0.953 . S
H187 C207 0.945 . S
H188 C209 0.947 1_655 S
H189 C210 0.954 . S
H190 C212 0.950 . S
H191 C213 0.948 . S
H192 C215 0.950 1_655 S
H193 C180 0.948 1_655 S
H194 C182 0.952 . S
H195 C183 0.950 . S
N196 C199 1.382 1_556 S
N196 C201 1.363 . S
N197 C199 1.371 . S
N197 C200 1.372 . S
N198 C200 1.361 . S
N198 C201 1.377 1_554 S
C199 N196 1.382 1_554 S
C199 N197 1.371 . S
C199 C202 1.480 . S
C200 N197 1.372 . S
C200 N198 1.361 . S
C200 C208 1.457 . S
C201 N196 1.363 . S
C201 N198 1.377 1_556 S
C201 C214 1.479 . S
C202 C199 1.480 . S
C202 C203 1.383 . S
C202 C207 1.385 . S
C203 H184 0.947 1_554 S
C203 C202 1.383 . S
C203 C204 1.387 1_455 S
C204 H185 0.949 1_554 S
C204 C203 1.387 1_655 S
C204 C205 1.382 1_655 S
C205 C204 1.382 1_455 S
C205 C206 1.377 . S
C206 H186 0.953 . S
C206 C205 1.377 . S
C206 C207 1.369 . S
C207 H187 0.945 . S
C207 C202 1.385 . S
C207 C206 1.369 . S
C208 C200 1.457 . S
C208 C209 1.379 . S
C208 C213 1.364 . S
C209 H188 0.947 1_455 S
C209 C208 1.379 . S
C209 C210 1.387 1_455 S
C210 H189 0.954 . S
C210 C209 1.387 1_655 S
C210 C211 1.384 1_655 S
C211 C210 1.384 1_455 S
C211 C212 1.372 . S
C212 H190 0.950 . S
C212 C211 1.372 . S
C212 C213 1.379 . S
C213 H191 0.948 . S
C213 C208 1.364 . S
C213 C212 1.379 . S
C214 C183 1.383 . S
C214 C201 1.479 . S
C214 C215 1.399 . S
C215 C180 1.382 . S
C215 H192 0.950 1_455 S
C215 C214 1.399 . S
C216 C217 1.384 . S
C216 H229 0.948 1_545 S
C216 C251 1.382 . S
C217 C216 1.384 . S
C217 C218 1.378 . S
C218 C217 1.378 . S
C218 C219 1.378 . S
C218 H230 0.952 . S
C219 C218 1.378 . S
C219 H231 0.950 . S
C219 C250 1.383 . S
H220 C239 0.947 1_556 S
H221 C240 0.949 1_556 S
H222 C242 0.953 . S
H223 C243 0.945 . S
H224 C245 0.947 1_565 S
H225 C246 0.954 . S
H226 C248 0.950 . S
H227 C249 0.948 . S
H228 C251 0.950 1_565 S
H229 C216 0.948 1_565 S
H230 C218 0.952 . S
H231 C219 0.950 . S
N232 C235 1.382 1_556 S
N232 C237 1.363 . S
N233 C235 1.371 . S
N233 C236 1.372 . S
N234 C236 1.361 . S
N234 C237 1.377 1_554 S
C235 N232 1.382 1_554 S
C235 N233 1.371 . S
C235 C238 1.480 . S
C236 N233 1.372 . S
C236 N234 1.361 . S
C236 C244 1.457 . S
C237 N232 1.363 . S
C237 N234 1.377 1_556 S
C237 C250 1.479 . S
C238 C235 1.480 . S
C238 C239 1.383 . S
C238 C243 1.385 . S
C239 H220 0.947 1_554 S
C239 C238 1.383 . S
C239 C240 1.387 1_545 S
C240 H221 0.949 1_554 S
C240 C239 1.387 1_565 S
C240 C241 1.382 1_565 S
C241 C240 1.382 1_545 S
C241 C242 1.377 . S
C242 H222 0.953 . S
C242 C241 1.377 . S
C242 C243 1.369 . S
C243 H223 0.945 . S
C243 C238 1.385 . S
C243 C242 1.369 . S
C244 C236 1.457 . S
C244 C245 1.379 . S
C244 C249 1.364 . S
C245 H224 0.947 1_545 S
C245 C244 1.379 . S
C245 C246 1.387 1_545 S
C246 H225 0.954 . S
C246 C245 1.387 1_565 S
C246 C247 1.384 1_565 S
C247 C246 1.384 1_545 S
C247 C248 1.372 . S
C248 H226 0.950 . S
C248 C247 1.372 . S
C248 C249 1.379 . S
C249 H227 0.948 . S
C249 C244 1.364 . S
C249 C248 1.379 . S
C250 C219 1.383 . S
C250 C237 1.479 . S
C250 C251 1.399 . S
C251 C216 1.382 . S
C251 H228 0.950 1_545 S
C251 C250 1.399 . S
C252 C253 1.384 . S
C252 H265 0.947 . S
C252 C287 1.382 . S
C253 C252 1.384 . S
C253 C254 1.378 . S
C254 C253 1.378 . S
C254 C255 1.378 . S
C254 H266 0.952 . S
C255 C254 1.378 . S
C255 H267 0.950 . S
C255 C286 1.383 . S
H256 C275 0.947 . S
H257 C276 0.946 . S
H258 C278 0.953 1_556 S
H259 C279 0.945 1_556 S
H260 C281 0.952 . S
H261 C282 0.949 . S
H262 C284 0.950 . S
H263 C285 0.948 . S
H264 C287 0.951 . S
H265 C252 0.947 . S
H266 C254 0.952 . S
H267 C255 0.950 . S
N268 C271 1.382 . S
N268 C273 1.363 . S
N269 C271 1.371 1_556 S
N269 C272 1.372 . S
N270 C272 1.361 1_554 S
N270 C273 1.377 . S
C271 N268 1.382 . S
C271 N269 1.371 1_554 S
C271 C274 1.480 . S
C272 N269 1.372 . S
C272 N270 1.361 1_556 S
C272 C280 1.457 . S
C273 N268 1.363 . S
C273 N270 1.377 . S
C273 C286 1.479 . S
C274 C271 1.480 . S
C274 C275 1.383 . S
C274 C279 1.385 . S
C275 H256 0.947 . S
C275 C274 1.383 . S
C275 C276 1.388 . S
C276 H257 0.946 . S
C276 C275 1.388 . S
C276 C277 1.384 . S
C277 C276 1.384 . S
C277 C278 1.377 . S
C278 H258 0.953 1_554 S
C278 C277 1.377 . S
C278 C279 1.369 . S
C279 H259 0.945 1_554 S
C279 C274 1.385 . S
C279 C278 1.369 . S
C280 C272 1.457 . S
C280 C281 1.372 . S
C280 C285 1.364 . S
C281 H260 0.952 . S
C281 C280 1.372 . S
C281 C282 1.389 . S
C282 H261 0.949 . S
C282 C281 1.389 . S
C282 C283 1.387 . S
C283 C282 1.387 . S
C283 C284 1.372 . S
C284 H262 0.950 . S
C284 C283 1.372 . S
C284 C285 1.379 . S
C285 H263 0.948 . S
C285 C280 1.364 . S
C285 C284 1.379 . S
C286 C255 1.383 . S
C286 C273 1.479 . S
C286 C287 1.398 . S
C287 C252 1.382 . S
C287 H264 0.951 . S
C287 C286 1.398 . S
Ho288 C291 2.811 . S
Ho288 O308 2.322 . S
Ho288 O310 2.378 . S
Ho288 O311 2.524 . S
Ho288 O312 2.381 . S
Ho288 O313 2.669 1_565 S
Ho288 O315 2.346 1_565 S
Ho288 O319 2.305 1_455 S
Ho289 C300 2.811 . S
Ho289 O309 2.346 1_545 S
Ho289 O313 2.305 1_655 S
Ho289 O314 2.322 . S
Ho289 O316 2.378 . S
Ho289 O317 2.524 . S
Ho289 O318 2.381 . S
Ho289 O319 2.669 1_545 S
C290 O308 1.259 1_655 S
C290 O309 1.268 . S
C291 Ho288 2.811 . S
C291 C292 1.488 . S
C291 O310 1.215 . S
C291 O311 1.289 . S
C292 C291 1.488 . S
C292 C293 1.348 . S
C292 C297 1.413 . S
C293 C292 1.348 . S
C293 C294 1.442 . S
C293 H320 0.930 1_455 S
C294 C293 1.442 . S
C294 C295 1.381 . S
C294 H321 0.931 1_455 S
C295 C294 1.381 . S
C295 C296 1.321 . S
C296 C295 1.321 . S
C296 C297 1.403 . S
C296 H322 0.934 . S
C297 C292 1.413 . S
C297 C296 1.403 . S
C297 H323 0.930 . S
C298 O312 1.295 . S
C298 O313 1.245 1_565 S
C299 O314 1.259 1_455 S
C299 O315 1.268 . S
C300 Ho289 2.811 . S
C300 C301 1.488 . S
C300 O316 1.215 . S
C300 O317 1.289 . S
C301 C300 1.488 . S
C301 C302 1.348 . S
C301 C306 1.413 . S
C302 C301 1.348 . S
C302 C303 1.442 . S
C302 H324 0.930 1_655 S
C303 C302 1.442 . S
C303 C304 1.381 . S
C303 H325 0.931 1_655 S
C304 C303 1.381 . S
C304 C305 1.321 . S
C305 C304 1.321 . S
C305 C306 1.403 . S
C305 H326 0.934 . S
C306 C301 1.413 . S
C306 C305 1.403 . S
C306 H327 0.930 . S
C307 O318 1.302 . S
C307 O319 1.241 1_545 S
O308 Ho288 2.322 . S
O308 C290 1.259 1_455 S
O309 Ho289 2.346 1_565 S
O309 C290 1.268 . S
O310 Ho288 2.378 . S
O310 C291 1.215 . S
O311 Ho288 2.524 . S
O311 C291 1.289 . S
O312 Ho288 2.381 . S
O312 C298 1.295 . S
O313 Ho288 2.669 1_545 S
O313 Ho289 2.305 1_455 S
O313 C298 1.245 1_545 S
O314 Ho289 2.322 . S
O314 C299 1.259 1_655 S
O315 Ho288 2.346 1_545 S
O315 C299 1.268 . S
O316 Ho289 2.378 . S
O316 C300 1.215 . S
O317 Ho289 2.524 . S
O317 C300 1.289 . S
O318 Ho289 2.381 . S
O318 C307 1.302 . S
O319 Ho288 2.305 1_655 S
O319 Ho289 2.669 1_565 S
O319 C307 1.241 1_565 S
H320 C293 0.930 1_655 S
H321 C294 0.931 1_655 S
H322 C296 0.934 . S
H323 C297 0.930 . S
H324 C302 0.930 1_455 S
H325 C303 0.931 1_455 S
H326 C305 0.934 . S
H327 C306 0.930 . S
Ho328 C331 2.811 . S
Ho328 O348 2.322 . S
Ho328 O350 2.378 . S
Ho328 O351 2.524 . S
Ho328 O352 2.381 . S
Ho328 O353 2.669 . S
Ho328 O355 2.346 . S
Ho328 O359 2.305 1_545 S
Ho329 C340 2.811 . S
Ho329 O349 2.346 . S
Ho329 O353 2.305 1_565 S
Ho329 O354 2.322 . S
Ho329 O356 2.378 . S
Ho329 O357 2.524 . S
Ho329 O358 2.381 . S
Ho329 O359 2.669 . S
C330 O348 1.259 1_565 S
C330 O349 1.268 . S
C331 Ho328 2.811 . S
C331 C332 1.488 . S
C331 O350 1.215 . S
C331 O351 1.289 . S
C332 C331 1.488 . S
C332 C333 1.348 . S
C332 C337 1.413 . S
C333 C332 1.348 . S
C333 C334 1.442 . S
C333 H360 0.930 1_545 S
C334 C333 1.442 . S
C334 C335 1.381 . S
C334 H361 0.931 1_545 S
C335 C334 1.381 . S
C335 C336 1.321 . S
C336 C335 1.321 . S
C336 C337 1.403 . S
C336 H362 0.934 . S
C337 C332 1.413 . S
C337 C336 1.403 . S
C337 H363 0.930 . S
C338 O352 1.275 . S
C338 O353 1.256 . S
C339 O354 1.259 1_545 S
C339 O355 1.268 . S
C340 Ho329 2.811 . S
C340 C341 1.488 . S
C340 O356 1.215 . S
C340 O357 1.289 . S
C341 C340 1.488 . S
C341 C342 1.348 . S
C341 C346 1.413 . S
C342 C341 1.348 . S
C342 C343 1.442 . S
C342 H364 0.930 1_565 S
C343 C342 1.442 . S
C343 C344 1.381 . S
C343 H365 0.931 1_565 S
C344 C343 1.381 . S
C344 C345 1.321 . S
C345 C344 1.321 . S
C345 C346 1.403 . S
C345 H366 0.934 . S
C346 C341 1.413 . S
C346 C345 1.403 . S
C346 H367 0.930 . S
C347 O358 1.275 . S
C347 O359 1.256 . S
O348 Ho328 2.322 . S
O348 C330 1.259 1_545 S
O349 Ho329 2.346 . S
O349 C330 1.268 . S
O350 Ho328 2.378 . S
O350 C331 1.215 . S
O351 Ho328 2.524 . S
O351 C331 1.289 . S
O352 Ho328 2.381 . S
O352 C338 1.275 . S
O353 Ho328 2.669 . S
O353 Ho329 2.305 1_545 S
O353 C338 1.256 . S
O354 Ho329 2.322 . S
O354 C339 1.259 1_565 S
O355 Ho328 2.346 . S
O355 C339 1.268 . S
O356 Ho329 2.378 . S
O356 C340 1.215 . S
O357 Ho329 2.524 . S
O357 C340 1.289 . S
O358 Ho329 2.381 . S
O358 C347 1.275 . S
O359 Ho328 2.305 1_565 S
O359 Ho329 2.669 . S
O359 C347 1.256 . S
H360 C333 0.930 1_565 S
H361 C334 0.931 1_565 S
H362 C336 0.934 . S
H363 C337 0.930 . S
H364 C342 0.930 1_545 S
H365 C343 0.931 1_545 S
H366 C345 0.934 . S
H367 C346 0.930 . S
Ho368 C371 2.811 . S
Ho368 O388 2.322 . S
Ho368 O390 2.378 . S
Ho368 O391 2.524 . S
Ho368 O392 2.381 . S
Ho368 O393 2.669 . S
Ho368 O395 2.346 . S
Ho368 O399 2.305 . S
Ho369 C380 2.811 . S
Ho369 O389 2.346 . S
Ho369 O393 2.305 . S
Ho369 O394 2.322 . S
Ho369 O396 2.378 . S
Ho369 O397 2.524 . S
Ho369 O398 2.381 . S
Ho369 O399 2.669 . S
C370 O388 1.259 . S
C370 O389 1.268 . S
C371 Ho368 2.811 . S
C371 C372 1.488 . S
C371 O390 1.215 . S
C371 O391 1.289 . S
C372 C371 1.488 . S
C372 C373 1.348 . S
C372 C377 1.413 . S
C373 C372 1.348 . S
C373 C374 1.442 . S
C373 H400 0.930 . S
C374 C373 1.442 . S
C374 C375 1.381 . S
C374 H401 0.931 . S
C375 C374 1.381 . S
C375 C376 1.321 . S
C376 C375 1.321 . S
C376 C377 1.403 . S
C376 H402 0.934 . S
C377 C372 1.413 . S
C377 C376 1.403 . S
C377 H403 0.930 . S
C378 O392 1.275 . S
C378 O393 1.256 . S
C379 O394 1.259 . S
C379 O395 1.268 . S
C380 Ho369 2.811 . S
C380 C381 1.488 . S
C380 O396 1.215 . S
C380 O397 1.289 . S
C381 C380 1.488 . S
C381 C382 1.348 . S
C381 C386 1.413 . S
C382 C381 1.348 . S
C382 C383 1.442 . S
C382 H404 0.930 . S
C383 C382 1.442 . S
C383 C384 1.381 . S
C383 H405 0.931 . S
C384 C383 1.381 . S
C384 C385 1.321 . S
C385 C384 1.321 . S
C385 C386 1.403 . S
C385 H406 0.934 . S
C386 C381 1.413 . S
C386 C385 1.403 . S
C386 H407 0.930 . S
C387 O398 1.275 . S
C387 O399 1.256 . S
O388 Ho368 2.322 . S
O388 C370 1.259 . S
O389 Ho369 2.346 . S
O389 C370 1.268 . S
O390 Ho368 2.378 . S
O390 C371 1.215 . S
O391 Ho368 2.524 . S
O391 C371 1.289 . S
O392 Ho368 2.381 . S
O392 C378 1.275 . S
O393 Ho368 2.669 . S
O393 Ho369 2.305 . S
O393 C378 1.256 . S
O394 Ho369 2.322 . S
O394 C379 1.259 . S
O395 Ho368 2.346 . S
O395 C379 1.268 . S
O396 Ho369 2.378 . S
O396 C380 1.215 . S
O397 Ho369 2.524 . S
O397 C380 1.289 . S
O398 Ho369 2.381 . S
O398 C387 1.275 . S
O399 Ho368 2.305 . S
O399 Ho369 2.669 . S
O399 C387 1.256 . S
H400 C373 0.930 . S
H401 C374 0.931 . S
H402 C376 0.934 . S
H403 C377 0.930 . S
H404 C382 0.930 . S
H405 C383 0.931 . S
H406 C385 0.934 . S
H407 C386 0.930 . S
Ho408 C411 2.811 . S
Ho408 O428 2.322 . S
Ho408 O430 2.378 . S
Ho408 O431 2.524 . S
Ho408 O432 2.381 . S
Ho408 O433 2.669 1_655 S
Ho408 O435 2.346 1_655 S
Ho408 O439 2.305 . S
Ho409 C420 2.811 . S
Ho409 O429 2.346 1_455 S
Ho409 O433 2.305 . S
Ho409 O434 2.322 . S
Ho409 O436 2.378 . S
Ho409 O437 2.524 . S
Ho409 O438 2.381 . S
Ho409 O439 2.669 1_455 S
C410 O428 1.259 . S
C410 O429 1.268 . S
C411 Ho408 2.811 . S
C411 C412 1.488 . S
C411 O430 1.215 . S
C411 O431 1.289 . S
C412 C411 1.488 . S
C412 C413 1.348 . S
C412 C417 1.413 . S
C413 C412 1.348 . S
C413 C414 1.442 . S
C413 H440 0.930 . S
C414 C413 1.442 . S
C414 C415 1.381 . S
C414 H441 0.931 . S
C415 C414 1.381 . S
C415 C416 1.321 . S
C416 C415 1.321 . S
C416 C417 1.403 . S
C416 H442 0.934 . S
C417 C412 1.413 . S
C417 C416 1.403 . S
C417 H443 0.930 . S
C418 O432 1.292 . S
C418 O433 1.247 1_655 S
C419 O434 1.259 . S
C419 O435 1.268 . S
C420 Ho409 2.811 . S
C420 C421 1.488 . S
C420 O436 1.215 . S
C420 O437 1.289 . S
C421 C420 1.488 . S
C421 C422 1.348 . S
C421 C426 1.413 . S
C422 C421 1.348 . S
C422 C423 1.442 . S
C422 H444 0.930 . S
C423 C422 1.442 . S
C423 C424 1.381 . S
C423 H445 0.931 . S
C424 C423 1.381 . S
C424 C425 1.321 . S
C425 C424 1.321 . S
C425 C426 1.403 . S
C425 H446 0.934 . S
C426 C421 1.413 . S
C426 C425 1.403 . S
C426 H447 0.930 . S
C427 O438 1.298 . S
C427 O439 1.243 1_455 S
O428 Ho408 2.322 . S
O428 C410 1.259 . S
O429 Ho409 2.346 1_655 S
O429 C410 1.268 . S
O430 Ho408 2.378 . S
O430 C411 1.215 . S
O431 Ho408 2.524 . S
O431 C411 1.289 . S
O432 Ho408 2.381 . S
O432 C418 1.292 . S
O433 Ho408 2.669 1_455 S
O433 Ho409 2.305 . S
O433 C418 1.247 1_455 S
O434 Ho409 2.322 . S
O434 C419 1.259 . S
O435 Ho408 2.346 1_455 S
O435 C419 1.268 . S
O436 Ho409 2.378 . S
O436 C420 1.215 . S
O437 Ho409 2.524 . S
O437 C420 1.289 . S
O438 Ho409 2.381 . S
O438 C427 1.298 . S
O439 Ho408 2.305 . S
O439 Ho409 2.669 1_655 S
O439 C427 1.243 1_655 S
H440 C413 0.930 . S
H441 C414 0.931 . S
H442 C416 0.934 . S
H443 C417 0.930 . S
H444 C422 0.930 . S
H445 C423 0.931 . S
H446 C425 0.934 . S
H447 C426 0.930 . S
H448 C456 0.950 . S
H449 C461 0.950 . S
H450 C458 0.950 . S
H451 C460 0.950 . S
H452 C462 0.950 . S
H453 C464 0.950 . S
H454 C466 0.950 . S
H455 C467 0.950 . S
C456 H448 0.950 . S
C456 C457 1.412 . S
C456 C458 1.391 . S
C457 C456 1.412 . S
C457 C461 1.367 1_545 S
C458 H450 0.950 . S
C458 C456 1.391 . S
C458 C459 1.439 . S
C459 C458 1.439 . S
C459 C460 1.361 1_545 S
C459 C465 1.491 . S
C460 H451 0.950 . S
C460 C459 1.361 1_565 S
C460 C461 1.391 . S
C461 H449 0.950 . S
C461 C457 1.367 1_565 S
C461 C460 1.391 . S
C462 H452 0.950 . S
C462 C463 1.386 1_565 S
C462 C464 1.391 . S
C463 C462 1.386 1_545 S
C463 C467 1.393 . S
C464 H453 0.950 . S
C464 C462 1.391 . S
C464 C465 1.369 1_565 S
C465 C459 1.491 . S
C465 C464 1.369 1_545 S
C465 C466 1.430 . S
C466 H454 0.950 . S
C466 C465 1.430 . S
C466 C467 1.391 . S
C467 H455 0.950 . S
C467 C463 1.393 . S
C467 C466 1.391 . S
H468 C476 0.950 . S
H469 C481 0.950 . S
H470 C478 0.950 . S
H471 C480 0.950 . S
H472 C482 0.950 . S
H473 C484 0.950 . S
H474 C486 0.950 . S
H475 C487 0.950 . S
C476 H468 0.950 . S
C476 C477 1.386 . S
C476 C478 1.391 . S
C477 C476 1.386 . S
C477 C481 1.393 . S
C478 H470 0.950 . S
C478 C476 1.391 . S
C478 C479 1.400 . S
C479 C478 1.400 . S
C479 C480 1.398 . S
C479 C485 1.491 . S
C480 H471 0.950 . S
C480 C479 1.398 . S
C480 C481 1.391 . S
C481 H469 0.950 . S
C481 C477 1.393 . S
C481 C480 1.391 . S
C482 H472 0.950 . S
C482 C483 1.386 . S
C482 C484 1.391 . S
C483 C482 1.386 . S
C483 C487 1.393 . S
C484 H473 0.950 . S
C484 C482 1.391 . S
C484 C485 1.400 . S
C485 C479 1.491 . S
C485 C484 1.400 . S
C485 C486 1.398 . S
C486 H474 0.950 . S
C486 C485 1.398 . S
C486 C487 1.391 . S
C487 H475 0.950 . S
C487 C483 1.393 . S
C487 C486 1.391 . S
H488 C496 0.950 . S
H489 C501 0.950 . S
H490 C498 0.950 . S
H491 C500 0.950 . S
H492 C502 0.950 . S
H493 C504 0.950 . S
H494 C506 0.950 . S
H495 C507 0.950 . S
C496 H488 0.950 . S
C496 C497 1.386 . S
C496 C498 1.391 . S
C497 C496 1.386 . S
C497 C501 1.393 . S
C498 H490 0.950 . S
C498 C496 1.391 . S
C498 C499 1.400 . S
C499 C498 1.400 . S
C499 C500 1.398 . S
C499 C505 1.491 . S
C500 H491 0.950 . S
C500 C499 1.398 . S
C500 C501 1.391 . S
C501 H489 0.950 . S
C501 C497 1.393 . S
C501 C500 1.391 . S
C502 H492 0.950 . S
C502 C503 1.386 . S
C502 C504 1.391 . S
C503 C502 1.386 . S
C503 C507 1.393 . S
C504 H493 0.950 . S
C504 C502 1.391 . S
C504 C505 1.400 . S
C505 C499 1.491 . S
C505 C504 1.400 . S
C505 C506 1.398 . S
C506 H494 0.950 . S
C506 C505 1.398 . S
C506 C507 1.391 . S
C507 H495 0.950 . S
C507 C503 1.393 . S
C507 C506 1.391 . S
H508 C516 0.950 . S
H509 C521 0.950 . S
H510 C518 0.950 . S
H511 C520 0.950 . S
H512 C522 0.950 . S
H513 C524 0.950 . S
H514 C526 0.950 . S
H515 C527 0.950 . S
C516 H508 0.950 . S
C516 C517 1.385 . S
C516 C518 1.391 . S
C517 C516 1.385 . S
C517 C521 1.394 1_455 S
C518 H510 0.950 . S
C518 C516 1.391 . S
C518 C519 1.430 . S
C519 C518 1.430 . S
C519 C520 1.368 1_455 S
C519 C525 1.492 . S
C520 H511 0.950 . S
C520 C519 1.368 1_655 S
C520 C521 1.391 . S
C521 H509 0.950 . S
C521 C517 1.394 1_655 S
C521 C520 1.391 . S
C522 H512 0.950 . S
C522 C523 1.386 1_655 S
C522 C524 1.391 . S
C523 C522 1.386 1_455 S
C523 C527 1.393 . S
C524 H513 0.950 . S
C524 C522 1.391 . S
C524 C525 1.400 1_655 S
C525 C519 1.492 . S
C525 C524 1.400 1_455 S
C525 C526 1.398 . S
C526 H514 0.950 . S
C526 C525 1.398 . S
C526 C527 1.391 . S
C527 H515 0.950 . S
C527 C523 1.393 . S
C527 C526 1.391 . S
H528 C536 0.950 . S
H529 C541 0.950 . S
H530 C538 0.950 . S
H531 C540 0.950 . S
H532 C542 0.950 . S
H533 C544 0.950 . S
H534 C546 0.950 1_554 S
H535 C547 0.950 . S
C536 H528 0.950 . S
C536 C537 1.372 1_545 S
C536 C538 1.391 . S
C537 C536 1.372 1_565 S
C537 C541 1.409 . S
C538 H530 0.950 . S
C538 C536 1.391 . S
C538 C539 1.386 1_545 S
C539 C538 1.386 1_565 S
C539 C540 1.416 . S
C539 C545 1.490 1_554 S
C540 H531 0.950 . S
C540 C539 1.416 . S
C540 C541 1.391 . S
C541 H529 0.950 . S
C541 C537 1.409 . S
C541 C540 1.391 . S
C542 H532 0.950 . S
C542 C543 1.392 . S
C542 C544 1.391 . S
C543 C542 1.392 . S
C543 C547 1.386 1_565 S
C544 H533 0.950 . S
C544 C542 1.391 . S
C544 C545 1.406 . S
C545 C539 1.490 1_556 S
C545 C544 1.406 . S
C545 C546 1.393 1_565 S
C546 H534 0.950 1_556 S
C546 C545 1.393 1_545 S
C546 C547 1.391 . S
C547 H535 0.950 . S
C547 C543 1.386 1_545 S
C547 C546 1.391 . S
H548 C556 0.950 . S
H549 C561 0.950 . S
H550 C558 0.950 . S
H551 C560 0.950 . S
H552 C562 0.950 . S
H553 C564 0.950 1_554 S
H554 C566 0.950 . S
H555 C567 0.950 . S
C556 H548 0.950 . S
C556 C557 1.386 . S
C556 C558 1.391 . S
C557 C556 1.386 . S
C557 C561 1.393 . S
C558 H550 0.950 . S
C558 C556 1.391 . S
C558 C559 1.400 . S
C559 C558 1.400 . S
C559 C560 1.398 . S
C559 C565 1.491 1_554 S
C560 H551 0.950 . S
C560 C559 1.398 . S
C560 C561 1.391 . S
C561 H549 0.950 . S
C561 C557 1.393 . S
C561 C560 1.391 . S
C562 H552 0.950 . S
C562 C563 1.386 . S
C562 C564 1.391 . S
C563 C562 1.386 . S
C563 C567 1.393 . S
C564 H553 0.950 1_556 S
C564 C562 1.391 . S
C564 C565 1.400 . S
C565 C559 1.491 1_556 S
C565 C564 1.400 . S
C565 C566 1.398 . S
C566 H554 0.950 . S
C566 C565 1.398 . S
C566 C567 1.391 . S
C567 H555 0.950 . S
C567 C563 1.393 . S
C567 C566 1.391 . S
H568 C576 0.950 . S
H569 C581 0.950 . S
H570 C578 0.950 . S
H571 C580 0.950 . S
H572 C582 0.950 . S
H573 C584 0.950 1_554 S
H574 C586 0.950 . S
H575 C587 0.950 . S
C576 H568 0.950 . S
C576 C577 1.386 . S
C576 C578 1.391 . S
C577 C576 1.386 . S
C577 C581 1.393 . S
C578 H570 0.950 . S
C578 C576 1.391 . S
C578 C579 1.400 . S
C579 C578 1.400 . S
C579 C580 1.398 . S
C579 C585 1.491 1_554 S
C580 H571 0.950 . S
C580 C579 1.398 . S
C580 C581 1.391 . S
C581 H569 0.950 . S
C581 C577 1.393 . S
C581 C580 1.391 . S
C582 H572 0.950 . S
C582 C583 1.386 . S
C582 C584 1.391 . S
C583 C582 1.386 . S
C583 C587 1.393 . S
C584 H573 0.950 1_556 S
C584 C582 1.391 . S
C584 C585 1.400 . S
C585 C579 1.491 1_556 S
C585 C584 1.400 . S
C585 C586 1.398 . S
C586 H574 0.950 . S
C586 C585 1.398 . S
C586 C587 1.391 . S
C587 H575 0.950 . S
C587 C583 1.393 . S
C587 C586 1.391 . S
H588 C596 0.950 . S
H589 C601 0.950 . S
H590 C598 0.950 . S
H591 C600 0.950 . S
H592 C602 0.950 . S
H593 C604 0.950 . S
H594 C606 0.950 1_554 S
H595 C607 0.950 . S
C596 H588 0.950 . S
C596 C597 1.386 1_455 S
C596 C598 1.391 . S
C597 C596 1.386 1_655 S
C597 C601 1.393 . S
C598 H590 0.950 . S
C598 C596 1.391 . S
C598 C599 1.400 1_455 S
C599 C598 1.400 1_655 S
C599 C600 1.398 . S
C599 C605 1.492 1_554 S
C600 H591 0.950 . S
C600 C599 1.398 . S
C600 C601 1.391 . S
C601 H589 0.950 . S
C601 C597 1.393 . S
C601 C600 1.391 . S
C602 H592 0.950 . S
C602 C603 1.405 . S
C602 C604 1.391 . S
C603 C602 1.405 . S
C603 C607 1.374 1_655 S
C604 H593 0.950 . S
C604 C602 1.391 . S
C604 C605 1.416 . S
C605 C599 1.492 1_556 S
C605 C604 1.416 . S
C605 C606 1.382 1_655 S
C606 H594 0.950 1_556 S
C606 C605 1.382 1_455 S
C606 C607 1.391 . S
C607 H595 0.950 . S
C607 C603 1.374 1_455 S
C607 C606 1.391 . S
H608 C616 0.950 . S
H609 C621 0.950 . S
H610 C618 0.950 . S
H611 C620 0.950 . S
H612 C622 0.950 . S
H613 C624 0.950 . S
H614 C626 0.950 1_455 S
H615 C627 0.950 . S
C616 H608 0.950 . S
C616 C617 1.386 . S
C616 C618 1.391 . S
C617 C616 1.386 . S
C617 C621 1.393 1_455 S
C618 H610 0.950 . S
C618 C616 1.391 . S
C618 C619 1.400 1_455 S
C619 C618 1.400 1_655 S
C619 C620 1.398 . S
C619 C625 1.491 . S
C620 H611 0.950 . S
C620 C619 1.398 . S
C620 C621 1.391 . S
C621 H609 0.950 . S
C621 C617 1.393 1_655 S
C621 C620 1.391 . S
C622 H612 0.950 . S
C622 C623 1.386 . S
C622 C624 1.391 . S
C623 C622 1.386 . S
C623 C627 1.393 . S
C624 H613 0.950 . S
C624 C622 1.391 . S
C624 C625 1.400 . S
C625 C619 1.491 . S
C625 C624 1.400 . S
C625 C626 1.398 . S
C626 H614 0.950 1_655 S
C626 C625 1.398 . S
C626 C627 1.391 . S
C627 H615 0.950 . S
C627 C623 1.393 . S
C627 C626 1.391 . S
H628 C636 0.950 . S
H629 C641 0.950 . S
H630 C638 0.950 . S
H631 C640 0.950 . S
H632 C642 0.950 . S
H633 C644 0.950 . S
H634 C646 0.950 1_545 S
H635 C647 0.950 . S
C636 H628 0.950 . S
C636 C637 1.386 . S
C636 C638 1.391 . S
C637 C636 1.386 . S
C637 C641 1.393 1_545 S
C638 H630 0.950 . S
C638 C636 1.391 . S
C638 C639 1.400 1_545 S
C639 C638 1.400 1_565 S
C639 C640 1.398 . S
C639 C645 1.491 . S
C640 H631 0.950 . S
C640 C639 1.398 . S
C640 C641 1.391 . S
C641 H629 0.950 . S
C641 C637 1.393 1_565 S
C641 C640 1.391 . S
C642 H632 0.950 . S
C642 C643 1.386 . S
C642 C644 1.391 . S
C643 C642 1.386 . S
C643 C647 1.393 . S
C644 H633 0.950 . S
C644 C642 1.391 . S
C644 C645 1.400 . S
C645 C639 1.491 . S
C645 C644 1.400 . S
C645 C646 1.398 . S
C646 H634 0.950 1_565 S
C646 C645 1.398 . S
C646 C647 1.391 . S
C647 H635 0.950 . S
C647 C643 1.393 . S
C647 C646 1.391 . S
H648 C656 0.950 . S
H649 C661 0.950 . S
H650 C658 0.950 . S
H651 C660 0.950 . S
H652 C662 0.950 . S
H653 C664 0.950 . S
H654 C666 0.950 . S
H655 C667 0.950 . S
C656 H648 0.950 . S
C656 C657 1.386 . S
C656 C658 1.391 . S
C657 C656 1.386 . S
C657 C661 1.393 . S
C658 H650 0.950 . S
C658 C656 1.391 . S
C658 C659 1.400 . S
C659 C658 1.400 . S
C659 C660 1.398 . S
C659 C665 1.491 . S
C660 H651 0.950 . S
C660 C659 1.398 . S
C660 C661 1.391 . S
C661 H649 0.950 . S
C661 C657 1.393 . S
C661 C660 1.391 . S
C662 H652 0.950 . S
C662 C663 1.386 . S
C662 C664 1.391 . S
C663 C662 1.386 . S
C663 C667 1.393 . S
C664 H653 0.950 . S
C664 C662 1.391 . S
C664 C665 1.400 . S
C665 C659 1.491 . S
C665 C664 1.400 . S
C665 C666 1.398 . S
C666 H654 0.950 . S
C666 C665 1.398 . S
C666 C667 1.391 . S
C667 H655 0.950 . S
C667 C663 1.393 . S
C667 C666 1.391 . S
H668 C676 0.950 . S
H669 C681 0.950 . S
H670 C678 0.950 . S
H671 C680 0.950 . S
H672 C682 0.950 . S
H673 C684 0.950 . S
H674 C686 0.950 . S
H675 C687 0.950 . S
C676 H668 0.950 . S
C676 C677 1.386 . S
C676 C678 1.391 . S
C677 C676 1.386 . S
C677 C681 1.393 . S
C678 H670 0.950 . S
C678 C676 1.391 . S
C678 C679 1.400 . S
C679 C678 1.400 . S
C679 C680 1.398 . S
C679 C685 1.491 . S
C680 H671 0.950 . S
C680 C679 1.398 . S
C680 C681 1.391 . S
C681 H669 0.950 . S
C681 C677 1.393 . S
C681 C680 1.391 . S
C682 H672 0.950 . S
C682 C683 1.386 . S
C682 C684 1.391 . S
C683 C682 1.386 . S
C683 C687 1.393 . S
C684 H673 0.950 . S
C684 C682 1.391 . S
C684 C685 1.400 . S
C685 C679 1.491 . S
C685 C684 1.400 . S
C685 C686 1.398 . S
C686 H674 0.950 . S
C686 C685 1.398 . S
C686 C687 1.391 . S
C687 H675 0.950 . S
C687 C683 1.393 . S
C687 C686 1.391 . S
H688 C696 0.950 . S
H689 C701 0.950 . S
H690 C698 0.940 1_655 S
H691 C700 0.950 1_556 S
H692 C702 0.950 . S
H693 C704 0.950 . S
H694 C706 0.950 . S
H695 C707 0.950 . S
C696 H688 0.950 . S
C696 C697 1.386 . S
C696 C698 1.376 1_655 S
C697 C696 1.386 . S
C697 C701 1.393 1_655 S
C698 H690 0.940 1_455 S
C698 C696 1.376 1_455 S
C698 C699 1.428 . S
C699 C698 1.428 . S
C699 C700 1.398 . S
C699 C705 1.491 . S
C700 H691 0.950 1_554 S
C700 C699 1.398 . S
C700 C701 1.391 . S
C701 H689 0.950 . S
C701 C697 1.393 1_455 S
C701 C700 1.391 . S
C702 H692 0.950 . S
C702 C703 1.386 . S
C702 C704 1.391 . S
C703 C702 1.386 . S
C703 C707 1.393 1_556 S
C704 H693 0.950 . S
C704 C702 1.391 . S
C704 C705 1.400 1_556 S
C705 C699 1.491 . S
C705 C704 1.400 1_554 S
C705 C706 1.398 . S
C706 H694 0.950 . S
C706 C705 1.398 . S
C706 C707 1.391 . S
C707 H695 0.950 . S
C707 C703 1.393 1_554 S
C707 C706 1.391 . S
H708 C716 0.950 . S
H709 C721 0.950 . S
H710 C718 0.950 . S
H711 C720 0.950 1_556 S
H712 C722 0.950 . S
H713 C724 0.950 . S
H714 C726 0.950 . S
H715 C727 0.950 . S
C716 H708 0.950 . S
C716 C717 1.386 1_545 S
C716 C718 1.391 . S
C717 C716 1.386 1_565 S
C717 C721 1.393 . S
C718 H710 0.950 . S
C718 C716 1.391 . S
C718 C719 1.400 . S
C719 C718 1.400 . S
C719 C720 1.398 1_545 S
C719 C725 1.491 . S
C720 H711 0.950 1_554 S
C720 C719 1.398 1_565 S
C720 C721 1.391 . S
C721 H709 0.950 . S
C721 C717 1.393 . S
C721 C720 1.391 . S
C722 H712 0.950 . S
C722 C723 1.386 . S
C722 C724 1.391 . S
C723 C722 1.386 . S
C723 C727 1.393 1_556 S
C724 H713 0.950 . S
C724 C722 1.391 . S
C724 C725 1.400 1_556 S
C725 C719 1.491 . S
C725 C724 1.400 1_554 S
C725 C726 1.398 . S
C726 H714 0.950 . S
C726 C725 1.398 . S
C726 C727 1.391 . S
C727 H715 0.950 . S
C727 C723 1.393 1_554 S
C727 C726 1.391 . S
H728 C736 0.950 . S
H729 C741 0.950 . S
H730 C738 0.950 . S
H731 C740 0.950 1_556 S
H732 C742 0.950 . S
H733 C744 0.950 . S
H734 C746 0.950 . S
H735 C747 0.948 1_554 S
C736 H728 0.950 . S
C736 C737 1.386 . S
C736 C738 1.391 . S
C737 C736 1.386 . S
C737 C741 1.393 . S
C738 H730 0.950 . S
C738 C736 1.391 . S
C738 C739 1.400 . S
C739 C738 1.400 . S
C739 C740 1.398 . S
C739 C745 1.491 . S
C740 H731 0.950 1_554 S
C740 C739 1.398 . S
C740 C741 1.391 . S
C741 H729 0.950 . S
C741 C737 1.393 . S
C741 C740 1.391 . S
C742 H732 0.950 . S
C742 C743 1.386 . S
C742 C744 1.391 . S
C743 C742 1.386 . S
C743 C747 1.399 . S
C744 H733 0.950 . S
C744 C742 1.391 . S
C744 C745 1.400 1_556 S
C745 C739 1.491 . S
C745 C744 1.400 1_554 S
C745 C746 1.398 . S
C746 H734 0.950 . S
C746 C745 1.398 . S
C746 C747 1.387 1_554 S
C747 H735 0.948 1_556 S
C747 C743 1.399 . S
C747 C746 1.387 1_556 S
H748 C756 0.950 . S
H749 C761 0.950 . S
H750 C758 0.950 . S
H751 C760 0.950 . S
H752 C762 0.950 . S
H753 C764 0.950 . S
H754 C766 0.950 . S
H755 C767 0.950 . S
C756 H748 0.950 . S
C756 C757 1.386 . S
C756 C758 1.391 . S
C757 C756 1.386 . S
C757 C761 1.393 . S
C758 H750 0.950 . S
C758 C756 1.391 . S
C758 C759 1.400 . S
C759 C758 1.400 . S
C759 C760 1.398 . S
C759 C765 1.491 . S
C760 H751 0.950 . S
C760 C759 1.398 . S
C760 C761 1.391 . S
C761 H749 0.950 . S
C761 C757 1.393 . S
C761 C760 1.391 . S
C762 H752 0.950 . S
C762 C763 1.386 . S
C762 C764 1.391 . S
C763 C762 1.386 . S
C763 C767 1.393 . S
C764 H753 0.950 . S
C764 C762 1.391 . S
C764 C765 1.400 1_556 S
C765 C759 1.491 . S
C765 C764 1.400 1_554 S
C765 C766 1.398 . S
C766 H754 0.950 . S
C766 C765 1.398 . S
C766 C767 1.391 1_554 S
C767 H755 0.950 . S
C767 C763 1.393 . S
C767 C766 1.391 1_556 S
H768 C776 0.950 . S
H769 C781 0.950 . S
H770 C778 0.950 . S
H771 C780 0.950 . S
H772 C782 0.950 . S
H773 C784 0.950 . S
H774 C786 0.950 . S
H775 C787 0.950 . S
C776 H768 0.950 . S
C776 C777 1.386 1_655 S
C776 C778 1.391 . S
C777 C776 1.386 1_455 S
C777 C781 1.393 . S
C778 H770 0.950 . S
C778 C776 1.391 . S
C778 C779 1.400 1_655 S
C779 C778 1.400 1_455 S
C779 C780 1.398 . S
C779 C785 1.491 . S
C780 H771 0.950 . S
C780 C779 1.398 . S
C780 C781 1.391 . S
C781 H769 0.950 . S
C781 C777 1.393 . S
C781 C780 1.391 . S
C782 H772 0.950 . S
C782 C783 1.386 . S
C782 C784 1.391 . S
C783 C782 1.386 . S
C783 C787 1.393 1_455 S
C784 H773 0.950 . S
C784 C782 1.391 . S
C784 C785 1.400 . S
C785 C779 1.491 . S
C785 C784 1.400 . S
C785 C786 1.398 1_455 S
C786 H774 0.950 . S
C786 C785 1.398 1_655 S
C786 C787 1.391 . S
C787 H775 0.950 . S
C787 C783 1.393 1_655 S
C787 C786 1.391 . S
H788 C796 0.950 . S
H789 C801 0.950 . S
H790 C798 0.950 . S
H791 C800 0.950 . S
H792 C802 0.939 1_565 S
H793 C804 0.958 . S
H794 C806 0.950 . S
H795 C807 0.950 . S
C796 H788 0.950 . S
C796 C797 1.386 . S
C796 C798 1.391 . S
C797 C796 1.386 . S
C797 C801 1.393 1_545 S
C798 H790 0.950 . S
C798 C796 1.391 . S
C798 C799 1.400 . S
C799 C798 1.400 . S
C799 C800 1.398 1_545 S
C799 C805 1.491 . S
C800 H791 0.950 . S
C800 C799 1.398 1_565 S
C800 C801 1.391 . S
C801 H789 0.950 . S
C801 C797 1.393 1_565 S
C801 C800 1.391 . S
C802 H792 0.939 1_545 S
C802 C803 1.399 . S
C802 C804 1.390 1_545 S
C803 C802 1.399 . S
C803 C807 1.393 . S
C804 H793 0.958 . S
C804 C802 1.390 1_565 S
C804 C805 1.394 1_565 S
C805 C799 1.491 . S
C805 C804 1.394 1_545 S
C805 C806 1.398 . S
C806 H794 0.950 . S
C806 C805 1.398 . S
C806 C807 1.391 . S
C807 H795 0.950 . S
C807 C803 1.393 . S
C807 C806 1.391 . S
H808 C816 0.950 . S
H809 C821 0.950 . S
H810 C818 0.950 . S
H811 C820 0.950 . S
H812 C822 0.950 . S
H813 C824 0.950 . S
H814 C826 0.950 . S
H815 C827 0.950 . S
C816 H808 0.950 . S
C816 C817 1.386 . S
C816 C818 1.391 . S
C817 C816 1.386 . S
C817 C821 1.393 . S
C818 H810 0.950 . S
C818 C816 1.391 . S
C818 C819 1.400 . S
C819 C818 1.400 . S
C819 C820 1.398 . S
C819 C825 1.491 . S
C820 H811 0.950 . S
C820 C819 1.398 . S
C820 C821 1.391 . S
C821 H809 0.950 . S
C821 C817 1.393 . S
C821 C820 1.391 . S
C822 H812 0.950 . S
C822 C823 1.386 . S
C822 C824 1.391 . S
C823 C822 1.386 . S
C823 C827 1.393 . S
C824 H813 0.950 . S
C824 C822 1.391 . S
C824 C825 1.400 . S
C825 C819 1.491 . S
C825 C824 1.400 . S
C825 C826 1.398 . S
C826 H814 0.950 . S
C826 C825 1.398 . S
C826 C827 1.391 . S
C827 H815 0.950 . S
C827 C823 1.393 . S
C827 C826 1.391 . S
H828 C836 0.950 . S
H829 C841 0.950 . S
H830 C838 0.950 . S
H831 C840 0.950 . S
H832 C842 0.950 . S
H833 C844 0.950 . S
H834 C846 0.950 . S
H835 C847 0.950 . S
C836 H828 0.950 . S
C836 C837 1.386 . S
C836 C838 1.391 . S
C837 C836 1.386 . S
C837 C841 1.393 . S
C838 H830 0.950 . S
C838 C836 1.391 . S
C838 C839 1.400 . S
C839 C838 1.400 . S
C839 C840 1.398 . S
C839 C845 1.491 . S
C840 H831 0.950 . S
C840 C839 1.398 . S
C840 C841 1.391 . S
C841 H829 0.950 . S
C841 C837 1.393 . S
C841 C840 1.391 . S
C842 H832 0.950 . S
C842 C843 1.386 . S
C842 C844 1.391 . S
C843 C842 1.386 . S
C843 C847 1.393 . S
C844 H833 0.950 . S
C844 C842 1.391 . S
C844 C845 1.400 . S
C845 C839 1.491 . S
C845 C844 1.400 . S
C845 C846 1.398 . S
C846 H834 0.950 . S
C846 C845 1.398 . S
C846 C847 1.391 . S
C847 H835 0.950 . S
C847 C843 1.393 . S
C847 C846 1.391 . S
H848 C856 0.950 . S
H849 C861 0.950 1_455 S
H850 C858 0.950 . S
H851 C860 0.950 . S
H852 C862 0.950 . S
H853 C864 0.950 . S
H854 C866 0.950 . S
H855 C867 0.950 . S
C856 H848 0.950 . S
C856 C857 1.386 . S
C856 C858 1.391 . S
C857 C856 1.386 . S
C857 C861 1.393 . S
C858 H850 0.950 . S
C858 C856 1.391 . S
C858 C859 1.400 . S
C859 C858 1.400 . S
C859 C860 1.398 . S
C859 C865 1.491 . S
C860 H851 0.950 . S
C860 C859 1.398 . S
C860 C861 1.391 . S
C861 H849 0.950 1_655 S
C861 C857 1.393 . S
C861 C860 1.391 . S
C862 H852 0.950 . S
C862 C863 1.386 . S
C862 C864 1.391 . S
C863 C862 1.386 . S
C863 C867 1.393 . S
C864 H853 0.950 . S
C864 C862 1.391 . S
C864 C865 1.400 . S
C865 C859 1.491 . S
C865 C864 1.400 . S
C865 C866 1.398 . S
C866 H854 0.950 . S
C866 C865 1.398 . S
C866 C867 1.391 . S
C867 H855 0.950 . S
C867 C863 1.393 . S
C867 C866 1.391 . S
H868 C876 0.950 . S
H869 C881 0.950 . S
H870 C878 0.950 . S
H871 C880 0.950 . S
H872 C882 0.950 . S
H873 C884 0.950 . S
H874 C886 0.950 . S
H875 C887 0.950 . S
C876 H868 0.950 . S
C876 C877 1.386 . S
C876 C878 1.391 . S
C877 C876 1.386 . S
C877 C881 1.393 1_565 S
C878 H870 0.950 . S
C878 C876 1.391 . S
C878 C879 1.400 . S
C879 C878 1.400 . S
C879 C880 1.398 1_565 S
C879 C885 1.491 . S
C880 H871 0.950 . S
C880 C879 1.398 1_545 S
C880 C881 1.391 . S
C881 H869 0.950 . S
C881 C877 1.393 1_545 S
C881 C880 1.391 . S
C882 H872 0.950 . S
C882 C883 1.386 1_545 S
C882 C884 1.391 . S
C883 C882 1.386 1_565 S
C883 C887 1.393 . S
C884 H873 0.950 . S
C884 C882 1.391 . S
C884 C885 1.400 1_545 S
C885 C879 1.491 . S
C885 C884 1.400 1_565 S
C885 C886 1.398 . S
C886 H874 0.950 . S
C886 C885 1.398 . S
C886 C887 1.391 . S
C887 H875 0.950 . S
C887 C883 1.393 . S
C887 C886 1.391 . S
H888 C896 0.950 . S
H889 C901 0.950 . S
H890 C898 0.950 . S
H891 C900 0.950 . S
H892 C902 0.950 . S
H893 C904 0.950 . S
H894 C906 0.950 . S
H895 C907 0.950 . S
C896 H888 0.950 . S
C896 C897 1.386 . S
C896 C898 1.391 . S
C897 C896 1.386 . S
C897 C901 1.393 . S
C898 H890 0.950 . S
C898 C896 1.391 . S
C898 C899 1.400 . S
C899 C898 1.400 . S
C899 C900 1.398 . S
C899 C905 1.491 . S
C900 H891 0.950 . S
C900 C899 1.398 . S
C900 C901 1.391 . S
C901 H889 0.950 . S
C901 C897 1.393 . S
C901 C900 1.391 . S
C902 H892 0.950 . S
C902 C903 1.386 . S
C902 C904 1.391 . S
C903 C902 1.386 . S
C903 C907 1.393 . S
C904 H893 0.950 . S
C904 C902 1.391 . S
C904 C905 1.400 . S
C905 C899 1.491 . S
C905 C904 1.400 . S
C905 C906 1.398 . S
C906 H894 0.950 . S
C906 C905 1.398 . S
C906 C907 1.391 . S
C907 H895 0.950 . S
C907 C903 1.393 . S
C907 C906 1.391 . S
H908 C916 0.950 . S
H909 C921 0.950 . S
H910 C918 0.950 . S
H911 C920 0.950 . S
H912 C922 0.950 . S
H913 C924 0.950 . S
H914 C926 0.950 . S
H915 C927 0.950 . S
C916 H908 0.950 . S
C916 C917 1.386 . S
C916 C918 1.391 . S
C917 C916 1.386 . S
C917 C921 1.393 . S
C918 H910 0.950 . S
C918 C916 1.391 . S
C918 C919 1.400 . S
C919 C918 1.400 . S
C919 C920 1.398 . S
C919 C925 1.491 . S
C920 H911 0.950 . S
C920 C919 1.398 . S
C920 C921 1.391 . S
C921 H909 0.950 . S
C921 C917 1.393 . S
C921 C920 1.391 . S
C922 H912 0.950 . S
C922 C923 1.386 . S
C922 C924 1.391 . S
C923 C922 1.386 . S
C923 C927 1.393 . S
C924 H913 0.950 . S
C924 C922 1.391 . S
C924 C925 1.400 . S
C925 C919 1.491 . S
C925 C924 1.400 . S
C925 C926 1.398 . S
C926 H914 0.950 . S
C926 C925 1.398 . S
C926 C927 1.391 . S
C927 H915 0.950 . S
C927 C923 1.393 . S
C927 C926 1.391 . S
C457 C241 2.103 . S
C463 C298 2.309 1_545 S
C483 C338 2.329 . S
C477 C277 2.170 . S
C503 C378 2.311 . S
C497 C169 2.088 . S
C523 C418 2.325 1_455 S
C517 C205 2.114 . S
C543 C307 2.309 1_565 S
C537 C97 2.096 1_565 S
C557 C133 2.159 . S
C563 C347 2.335 . S
C577 C25 2.100 . S
C583 C387 2.319 . S
C597 C61 2.109 1_655 S
C603 C427 2.319 1_655 S
C623 C304 0.446 . S
C617 C211 0.450 . S
C643 C344 0.467 . S
C637 C247 0.457 . S
C663 C384 0.417 . S
C657 C253 0.439 . S
C677 C175 0.393 . S
C683 C424 0.450 . S
C697 C67 0.436 1_655 S
C703 C295 0.400 . S
C723 C335 0.419 . S
C717 C103 0.474 1_565 S
C743 C375 0.427 . S
C737 C109 0.406 . S
C757 C31 0.434 . S
C763 C415 0.422 . S
C777 C181 2.834 . S
C783 C299 3.182 . S
C797 C217 2.805 . S
C803 C339 3.171 . S
C823 C379 3.185 . S
C817 C283 2.766 . S
C843 C419 3.179 . S
C837 C145 2.821 . S
C857 C37 2.839 1_655 S
C863 C290 3.192 . S
C883 C330 3.175 . S
C877 C73 2.830 1_565 S
C903 C370 3.181 . S
C897 C139 2.729 . S
C917 C1 2.835 . S
C923 C410 3.186 . S
