# Generated by pormake.
# Topology anh, (6,3)-cn, num edge types: 1
# Building blocks:
#     Node 0, Type 0, BuildingBlock: MIFKUJ_clean_sbu_0, # of connection points: 6
#     Node 1, Type 0, BuildingBlock: MIFKUJ_clean_sbu_0, # of connection points: 6
#     Node 2, Type 0, BuildingBlock: MIFKUJ_clean_sbu_0, # of connection points: 6
#     Node 3, Type 1, BuildingBlock: BETDIP_clean_linker_0, # of connection points: 3
#     Node 4, Type 1, BuildingBlock: BETDIP_clean_linker_0, # of connection points: 3
#     Node 5, Type 1, BuildingBlock: BETDIP_clean_linker_0, # of connection points: 3
#     Node 6, Type 1, BuildingBlock: BETDIP_clean_linker_0, # of connection points: 3
#     Node 7, Type 1, BuildingBlock: BETDIP_clean_linker_0, # of connection points: 3
#     Node 8, Type 1, BuildingBlock: BETDIP_clean_linker_0, # of connection points: 3
#     Edge 9, Type (0, 1), BuildingBlock: UVAHIK_clean_linker_0, # of connection points: 2
#     Edge 10, Type (0, 1), BuildingBlock: UVAHIK_clean_linker_0, # of connection points: 2
#     Edge 11, Type (0, 1), BuildingBlock: UVAHIK_clean_linker_0, # of connection points: 2
#     Edge 12, Type (0, 1), BuildingBlock: UVAHIK_clean_linker_0, # of connection points: 2
#     Edge 13, Type (0, 1), BuildingBlock: UVAHIK_clean_linker_0, # of connection points: 2
#     Edge 14, Type (0, 1), BuildingBlock: UVAHIK_clean_linker_0, # of connection points: 2
#     Edge 15, Type (0, 1), BuildingBlock: UVAHIK_clean_linker_0, # of connection points: 2
#     Edge 16, Type (0, 1), BuildingBlock: UVAHIK_clean_linker_0, # of connection points: 2
#     Edge 17, Type (0, 1), BuildingBlock: UVAHIK_clean_linker_0, # of connection points: 2
#     Edge 18, Type (0, 1), BuildingBlock: UVAHIK_clean_linker_0, # of connection points: 2
#     Edge 19, Type (0, 1), BuildingBlock: UVAHIK_clean_linker_0, # of connection points: 2
#     Edge 20, Type (0, 1), BuildingBlock: UVAHIK_clean_linker_0, # of connection points: 2
#     Edge 21, Type (0, 1), BuildingBlock: UVAHIK_clean_linker_0, # of connection points: 2
#     Edge 22, Type (0, 1), BuildingBlock: UVAHIK_clean_linker_0, # of connection points: 2
#     Edge 23, Type (0, 1), BuildingBlock: UVAHIK_clean_linker_0, # of connection points: 2
#     Edge 24, Type (0, 1), BuildingBlock: UVAHIK_clean_linker_0, # of connection points: 2
#     Edge 25, Type (0, 1), BuildingBlock: UVAHIK_clean_linker_0, # of connection points: 2
#     Edge 26, Type (0, 1), BuildingBlock: UVAHIK_clean_linker_0, # of connection points: 2
# Relax obj value: 0.085
# Max RMSD: 0.182
# Mean RMSD: 0.116
data_MOF--net-anh--node1-MIFKUJ_clean_sbu_0--node2-BETDIP_clean_linker_0--edge1-UVAHIK_clean_linker_0
_symmetry_space_group_name_H-M    P1
_symmetry_Int_Tables_number       1
_symmetry_cell_setting            triclinic
loop_
_symmetry_equiv_pos_as_xyz
'x, y, z'
_cell_length_a     40.006083
_cell_length_b     39.925323
_cell_length_c     61.823501
_cell_angle_alpha  97.374522
_cell_angle_beta   90.504032
_cell_angle_gamma 119.65998
loop_
_atom_site_label
_atom_site_type_symbol
_atom_site_fract_x
_atom_site_fract_y
_atom_site_fract_z
_atom_type_partial_charge
Zn0 Zn 0.05338 0.61054 0.16645 0.0
Zn1 Zn 0.96655 0.52787 0.16019 0.0
C2 C 0.11194 0.59517 0.17951 0.0
O3 O 0.11577 0.62221 0.19551 0.0
C4 C 0.90716 0.5393 0.14381 0.0
O5 O 0.90783 0.51454 0.12785 0.0
O6 O 0.09509 0.66662 0.16866 0.0
O7 O 0.02262 0.59932 0.138 0.0
O8 O 0.9958 0.53541 0.13307 0.0
C9 C 0.11742 0.67473 0.15327 0.0
O10 O 0.11041 0.64713 0.13684 0.0
O11 O 0.08412 0.58208 0.16479 0.0
C12 C 0.89744 0.46029 0.16712 0.0
O13 O 0.89393 0.48704 0.17998 0.0
O14 O 0.92768 0.47033 0.15695 0.0
O15 O 0.99414 0.54071 0.19022 0.0
O16 O 0.02714 0.60506 0.1944 0.0
O17 O 0.93296 0.5532 0.15978 0.0
C18 C 0.01051 0.56726 0.12534 0.0
C19 C 0.01056 0.57361 0.20253 0.0
Zn20 Zn 0.56426 0.09241 0.4953 0.0
Zn21 Zn 0.55388 0.99332 0.50158 0.0
C22 C 0.6473 0.15313 0.50594 0.0
O23 O 0.65272 0.12606 0.51255 0.0
C24 C 0.4778 0.9332 0.49238 0.0
O25 O 0.49708 0.92248 0.47881 0.0
O26 O 0.52434 0.10552 0.48609 0.0
O27 O 0.56892 0.05829 0.46959 0.0
O28 O 0.56393 1.00069 0.4706 0.0
C29 C 0.52568 0.11594 0.46738 0.0
O30 O 0.55028 0.11378 0.45414 0.0
O31 O 0.61364 0.14459 0.49891 0.0
C32 C 0.55831 0.93895 0.52507 0.0
O33 O 0.538 0.9491 0.5381 0.0
O34 O 0.57013 0.95545 0.50827 0.0
O35 O 0.58465 0.04264 0.52261 0.0
O36 O 0.55198 0.07349 0.52472 0.0
O37 O 0.49613 0.96615 0.50462 0.0
C38 C 0.56927 0.02816 0.46023 0.0
C39 C 0.56587 0.05561 0.53365 0.0
Zn40 Zn 0.55087 0.51422 0.8317 0.0
Zn41 Zn 0.46633 0.50764 0.82757 0.0
C42 C 0.54111 0.4427 0.8441 0.0
O43 O 0.56126 0.46708 0.86177 0.0
C44 C 0.47786 0.57652 0.81337 0.0
O45 O 0.45397 0.54874 0.79783 0.0
O46 O 0.60829 0.53902 0.83356 0.0
O47 O 0.53766 0.5275 0.80365 0.0
O48 O 0.47599 0.48334 0.79954 0.0
C49 C 0.62421 0.52904 0.81836 0.0
O50 O 0.6025 0.50278 0.80164 0.0
O51 O 0.53125 0.45564 0.8289 0.0
C52 C 0.40077 0.5048 0.84353 0.0
O53 O 0.4269 0.52404 0.86019 0.0
O54 O 0.41004 0.49138 0.82631 0.0
O55 O 0.47639 0.49264 0.85578 0.0
O56 O 0.53876 0.53405 0.86052 0.0
O57 O 0.49132 0.56698 0.82875 0.0
C58 C 0.50757 0.50327 0.79129 0.0
C59 C 0.50673 0.51456 0.86844 0.0
H60 H 0.52749 0.99757 0.16837 0.0
H61 H 0.61573 0.04635 0.22177 0.0
H62 H 0.50282 0.95186 0.22919 0.0
H63 H 0.56073 0.06237 0.16276 0.0
C64 C 0.59087 0.07123 0.16629 0.0
C65 C 0.5367 0.9981 0.18499 0.0
C66 C 0.51083 0.97085 0.19756 0.0
C67 C 0.57459 0.02537 0.19378 0.0
C68 C 0.58656 0.02508 0.21506 0.0
C69 C 0.56082 0.99865 0.22796 0.0
C70 C 0.52318 0.97148 0.21902 0.0
N71 N 0.60125 0.05416 0.18194 0.0
H72 H 0.4945 0.4711 0.49487 0.0
H73 H 0.50775 0.52748 0.56105 0.0
H74 H 0.50914 0.41997 0.54892 0.0
H75 H 0.46146 0.5396 0.54346 0.0
C76 C 0.48101 0.55318 0.53114 0.0
C77 C 0.49844 0.47176 0.51231 0.0
C78 C 0.50185 0.44199 0.52015 0.0
C79 C 0.49999 0.50237 0.527 0.0
C80 C 0.50583 0.50355 0.5496 0.0
C81 C 0.50899 0.47388 0.55759 0.0
C82 C 0.50689 0.4431 0.5428 0.0
N83 N 0.49669 0.53239 0.51891 0.0
H84 H 0.04012 0.62965 0.83895 0.0
H85 H 0.09798 0.61791 0.89413 0.0
H86 H 0.98451 0.60258 0.89869 0.0
H87 H 0.15172 0.66956 0.877 0.0
C88 C 0.14267 0.64834 0.86215 0.0
C89 C 0.04041 0.6241 0.85563 0.0
C90 C 0.00876 0.61683 0.86787 0.0
C91 C 0.07309 0.62552 0.86515 0.0
C92 C 0.07342 0.61818 0.88682 0.0
C93 C 0.04129 0.60932 0.89881 0.0
C94 C 0.00924 0.609 0.88932 0.0
N95 N 0.10462 0.63246 0.85243 0.0
H96 H 0.06306 0.61219 0.49995 0.0
H97 H 0.98617 0.55172 0.44164 0.0
H98 H 0.09664 0.65257 0.43811 0.0
H99 H 0.94363 0.55137 0.47053 0.0
C100 C 0.95338 0.5361 0.47993 0.0
C101 C 0.05693 0.60939 0.4825 0.0
C102 C 0.08382 0.6369 0.47034 0.0
C103 C 0.02129 0.5791 0.47228 0.0
C104 C 0.01335 0.57541 0.44961 0.0
C105 C 0.04031 0.60185 0.43716 0.0
C106 C 0.0753 0.63253 0.4477 0.0
N107 N 0.99373 0.55211 0.48477 0.0
H108 H 0.51398 0.04291 0.82585 0.0
H109 H 0.51648 0.97806 0.76506 0.0
H110 H 0.53667 0.09428 0.76666 0.0
H111 H 0.46258 0.92953 0.7825 0.0
C112 C 0.48174 0.93466 0.79666 0.0
C113 C 0.5177 0.04103 0.80849 0.0
C114 C 0.52638 0.07317 0.79769 0.0
C115 C 0.51356 0.00626 0.79671 0.0
C116 C 0.51852 0.00418 0.77414 0.0
C117 C 0.52729 0.03595 0.7633 0.0
C118 C 0.53105 0.07011 0.77517 0.0
N119 N 0.50515 0.97373 0.80752 0.0
H120 H 0.46516 0.54949 0.164 0.0
H121 H 0.52664 0.54213 0.10862 0.0
H122 H 0.42432 0.54959 0.09914 0.0
H123 H 0.51571 0.48736 0.13371 0.0
C124 C 0.53623 0.51338 0.14477 0.0
C125 C 0.4683 0.5491 0.1466 0.0
C126 C 0.44046 0.54965 0.13262 0.0
C127 C 0.49897 0.54554 0.13784 0.0
C128 C 0.50258 0.54411 0.11525 0.0
C129 C 0.47592 0.54573 0.10123 0.0
C130 C 0.44514 0.5487 0.11003 0.0
N131 N 0.52572 0.54217 0.15146 0.0
C132 C 0.1747 0.6022 0.19298 0.0
C133 C 0.1426 0.58442 0.17741 0.0
C134 C 0.20571 0.59558 0.19017 0.0
C135 C 0.23535 0.52919 0.16041 0.0
H136 H 0.33796 0.6201 0.17052 0.0
C137 C 0.36941 0.52622 0.12896 0.0
C138 C 0.40555 0.54968 0.14097 0.0
C139 C 0.337 0.52827 0.13538 0.0
C140 C 0.30963 0.59423 0.16799 0.0
H141 H 0.11758 0.54466 0.14693 0.0
H142 H 0.17176 0.5329 0.14206 0.0
H143 H 0.28187 0.62722 0.17771 0.0
H144 H 0.43536 0.59258 0.1698 0.0
H145 H 0.37841 0.5956 0.1814 0.0
H146 H 0.26304 0.49615 0.15068 0.0
C147 C 0.1728 0.55195 0.15651 0.0
C148 C 0.27737 0.59836 0.17206 0.0
C149 C 0.14176 0.55875 0.15927 0.0
C150 C 0.40801 0.57414 0.16017 0.0
C151 C 0.37541 0.57616 0.16666 0.0
C152 C 0.26764 0.525 0.15648 0.0
C153 C 0.20547 0.57084 0.17175 0.0
C154 C 0.23978 0.56596 0.16813 0.0
C155 C 0.33955 0.55364 0.15415 0.0
C156 C 0.30526 0.55755 0.15996 0.0
H157 H 0.17638 0.62205 0.20721 0.0
H158 H 0.23007 0.61011 0.2024 0.0
H159 H 0.20688 0.50353 0.15753 0.0
H160 H 0.3662 0.50647 0.11431 0.0
H161 H 0.31017 0.51073 0.12517 0.0
C162 C 0.71796 0.20352 0.51311 0.0
C163 C 0.68028 0.19296 0.50548 0.0
C164 C 0.74906 0.24069 0.51165 0.0
C165 C 0.77737 0.32225 0.48035 0.0
H166 H 0.85787 0.38337 0.52745 0.0
C167 C 0.88512 0.48382 0.47933 0.0
C168 C 0.92416 0.49779 0.48546 0.0
C169 C 0.85682 0.44674 0.4828 0.0
C170 C 0.83585 0.36646 0.51406 0.0
H171 H 0.64574 0.21365 0.4908 0.0
H172 H 0.69963 0.27807 0.48838 0.0
H173 H 0.8057 0.3182 0.53164 0.0
H174 H 0.96428 0.48427 0.50054 0.0
H175 H 0.9146 0.41901 0.5066 0.0
H176 H 0.80717 0.37015 0.46274 0.0
C177 C 0.70534 0.25756 0.49522 0.0
C178 C 0.80596 0.32914 0.51646 0.0
C179 C 0.67435 0.22062 0.49674 0.0
C180 C 0.93436 0.47426 0.49567 0.0
C181 C 0.9059 0.43696 0.49919 0.0
C182 C 0.80712 0.35936 0.47795 0.0
C183 C 0.74314 0.26795 0.5024 0.0
C184 C 0.77608 0.30684 0.49973 0.0
C185 C 0.86683 0.42255 0.49246 0.0
C186 C 0.83645 0.38221 0.49487 0.0
H187 H 0.72353 0.18295 0.51996 0.0
H188 H 0.77784 0.24772 0.51724 0.0
H189 H 0.75535 0.30552 0.46692 0.0
H190 H 0.87646 0.50144 0.4715 0.0
H191 H 0.82698 0.43695 0.47781 0.0
C192 C 0.46503 0.62417 0.79769 0.0
C193 C 0.48442 0.6168 0.8139 0.0
C194 C 0.46735 0.66042 0.7988 0.0
C195 C 0.5236 0.76451 0.8207 0.0
H196 H 0.42562 0.76011 0.81056 0.0
C197 C 0.50971 0.90404 0.81935 0.0
C198 C 0.48362 0.90066 0.80265 0.0
C199 C 0.51127 0.87097 0.82359 0.0
C200 C 0.45334 0.76202 0.81325 0.0
H201 H 0.52281 0.64276 0.84364 0.0
H202 H 0.52744 0.7069 0.84534 0.0
H203 H 0.42697 0.70026 0.81217 0.0
H204 H 0.43906 0.86031 0.77734 0.0
H205 H 0.4419 0.80337 0.78445 0.0
H206 H 0.55003 0.82638 0.82105 0.0
C207 C 0.51017 0.68411 0.83186 0.0
C208 C 0.45407 0.72761 0.81425 0.0
C209 C 0.50749 0.6474 0.83089 0.0
C210 C 0.45921 0.8638 0.79045 0.0
C211 C 0.46071 0.83101 0.79464 0.0
C212 C 0.52292 0.79914 0.81952 0.0
C213 C 0.48939 0.69069 0.81604 0.0
C214 C 0.4892 0.72823 0.81746 0.0
C215 C 0.48665 0.83393 0.81129 0.0
C216 C 0.48777 0.79821 0.81522 0.0
H217 H 0.44712 0.60156 0.78428 0.0
H218 H 0.45154 0.66469 0.78614 0.0
H219 H 0.55114 0.76593 0.82319 0.0
H220 H 0.52905 0.93213 0.82897 0.0
H221 H 0.53151 0.87434 0.83659 0.0
C222 C 0.87062 0.57055 0.16175 0.0
C223 C 0.87276 0.54433 0.14502 0.0
C224 C 0.83617 0.57154 0.16398 0.0
C225 C 0.73251 0.5072 0.15412 0.0
H226 H 0.72172 0.59854 0.15433 0.0
C227 C 0.58411 0.49171 0.13845 0.0
C228 C 0.5758 0.51987 0.1487 0.0
C229 C 0.62128 0.49715 0.14056 0.0
C230 C 0.72427 0.57287 0.15473 0.0
H231 H 0.84049 0.49944 0.1172 0.0
H232 H 0.78077 0.50076 0.12141 0.0
H233 H 0.78588 0.60488 0.15315 0.0
H234 H 0.6 0.57595 0.16945 0.0
H235 H 0.66532 0.58524 0.17366 0.0
H236 H 0.67155 0.47504 0.15599 0.0
C237 C 0.80568 0.52059 0.13273 0.0
C238 C 0.76103 0.57654 0.15396 0.0
C239 C 0.84007 0.52004 0.13028 0.0
C240 C 0.60555 0.55367 0.1614 0.0
C241 C 0.64302 0.55907 0.16366 0.0
C242 C 0.69605 0.50361 0.15522 0.0
C243 C 0.80311 0.54584 0.14978 0.0
C244 C 0.76528 0.54351 0.15305 0.0
C245 C 0.65137 0.53081 0.15322 0.0
C246 C 0.69113 0.53612 0.15487 0.0
H247 H 0.89524 0.58962 0.17339 0.0
H248 H 0.83492 0.59129 0.17727 0.0
H249 H 0.73505 0.48137 0.15384 0.0
H250 H 0.56185 0.46555 0.12838 0.0
H251 H 0.6265 0.47513 0.13178 0.0
C252 C 0.41758 0.86965 0.4803 0.0
C253 C 0.43634 0.90567 0.49423 0.0
C254 C 0.37925 0.84228 0.48243 0.0
C255 C 0.28908 0.83085 0.50357 0.0
H256 H 0.25983 0.72151 0.49412 0.0
C257 C 0.13464 0.70746 0.47488 0.0
C258 C 0.12121 0.67024 0.4807 0.0
C259 C 0.17205 0.73776 0.48175 0.0
C260 C 0.26741 0.75186 0.49721 0.0
H261 H 0.42916 0.94135 0.52123 0.0
H262 H 0.36172 0.89325 0.52495 0.0
H263 H 0.32759 0.7712 0.49609 0.0
H264 H 0.13571 0.63634 0.49951 0.0
H265 H 0.20114 0.6896 0.51189 0.0
H266 H 0.22875 0.81138 0.50457 0.0
C267 C 0.3769 0.88638 0.51231 0.0
C268 C 0.30632 0.78041 0.49803 0.0
C269 C 0.41551 0.91391 0.51019 0.0
C270 C 0.14525 0.66468 0.49474 0.0
C271 C 0.18285 0.69511 0.50164 0.0
C272 C 0.25007 0.80223 0.50279 0.0
C273 C 0.35846 0.85004 0.49858 0.0
C274 C 0.31757 0.82022 0.50057 0.0
C275 C 0.19707 0.73173 0.49471 0.0
C276 C 0.23865 0.76231 0.49901 0.0
H277 H 0.43258 0.8623 0.46773 0.0
H278 H 0.36578 0.81504 0.47123 0.0
H279 H 0.2967 0.86121 0.50557 0.0
H280 H 0.11658 0.71281 0.46432 0.0
H281 H 0.18192 0.76533 0.4759 0.0
C282 C 0.51871 0.3773 0.82098 0.0
C283 C 0.53351 0.40183 0.84125 0.0
C284 C 0.51507 0.34016 0.81793 0.0
C285 C 0.51309 0.26329 0.84734 0.0
H286 H 0.5485 0.23485 0.79366 0.0
C287 C 0.49912 0.11024 0.81992 0.0
C288 C 0.52971 0.11015 0.80895 0.0
C289 C 0.49892 0.14532 0.82603 0.0
C290 C 0.53871 0.24238 0.80882 0.0
H291 H 0.55473 0.40573 0.87443 0.0
H292 H 0.54839 0.34123 0.86908 0.0
H293 H 0.54742 0.29573 0.79947 0.0
H294 H 0.58535 0.14691 0.79733 0.0
H295 H 0.58535 0.20776 0.80822 0.0
H296 H 0.50492 0.20989 0.85674 0.0
C297 C 0.53943 0.35054 0.85555 0.0
C298 C 0.5376 0.27714 0.81202 0.0
C299 C 0.54328 0.38772 0.85857 0.0
C300 C 0.56121 0.14603 0.80559 0.0
C301 C 0.56102 0.18087 0.81165 0.0
C302 C 0.51395 0.22825 0.84406 0.0
C303 C 0.5259 0.32649 0.83509 0.0
C304 C 0.52505 0.28828 0.83138 0.0
C305 C 0.52929 0.1809 0.82124 0.0
C306 C 0.52722 0.21757 0.82485 0.0
H307 H 0.51084 0.38713 0.80729 0.0
H308 H 0.50404 0.32224 0.80202 0.0
H309 H 0.50296 0.27076 0.86238 0.0
H310 H 0.4743 0.08302 0.82253 0.0
H311 H 0.47403 0.14427 0.8334 0.0
C312 C 0.58131 0.89199 0.51315 0.0
C313 C 0.56249 0.90507 0.52814 0.0
C314 C 0.58079 0.85705 0.51439 0.0
C315 C 0.55763 0.78126 0.54996 0.0
H316 H 0.52895 0.71156 0.49472 0.0
C317 C 0.48286 0.61518 0.54493 0.0
C318 C 0.49483 0.5946 0.52994 0.0
C319 C 0.49688 0.65486 0.54498 0.0
C320 C 0.53757 0.73086 0.51023 0.0
H321 H 0.5302 0.89289 0.5569 0.0
H322 H 0.5288 0.8318 0.55887 0.0
H323 H 0.54516 0.77904 0.49502 0.0
H324 H 0.53062 0.59905 0.50308 0.0
H325 H 0.55495 0.66866 0.50302 0.0
H326 H 0.54868 0.73257 0.56519 0.0
C327 C 0.5443 0.84863 0.54627 0.0
C328 C 0.54697 0.76957 0.51042 0.0
C329 C 0.54489 0.88358 0.54506 0.0
C330 C 0.52082 0.61424 0.51478 0.0
C331 C 0.53471 0.65401 0.51474 0.0
C332 C 0.54808 0.74253 0.54977 0.0
C333 C 0.56143 0.83449 0.53063 0.0
C334 C 0.5563 0.79498 0.53032 0.0
C335 C 0.52305 0.67474 0.52995 0.0
C336 C 0.53714 0.71673 0.52994 0.0
H337 H 0.59541 0.90807 0.50001 0.0
H338 H 0.5948 0.84725 0.50232 0.0
H339 H 0.56537 0.80029 0.56552 0.0
H340 H 0.46285 0.60063 0.55678 0.0
H341 H 0.48686 0.6699 0.55665 0.0
C342 C 0.68962 0.57487 0.83741 0.0
C343 C 0.66641 0.54513 0.82019 0.0
C344 C 0.72905 0.58813 0.8402 0.0
C345 C 0.81157 0.58812 0.81349 0.0
H346 H 0.84921 0.5982 0.87333 0.0
C347 C 0.95479 0.59382 0.83882 0.0
C348 C 0.97485 0.61728 0.85866 0.0
C349 C 0.91947 0.59002 0.83199 0.0
C350 C 0.83943 0.59621 0.85657 0.0
H351 H 0.66661 0.50706 0.79185 0.0
H352 H 0.73552 0.52982 0.79699 0.0
H353 H 0.78308 0.58228 0.86541 0.0
H354 H 0.97584 0.65764 0.88599 0.0
H355 H 0.91473 0.65169 0.87392 0.0
H356 H 0.86814 0.60138 0.80473 0.0
C357 C 0.72324 0.54315 0.80818 0.0
C358 C 0.80146 0.58706 0.85203 0.0
C359 C 0.68373 0.52995 0.80532 0.0
C360 C 0.96048 0.63886 0.8708 0.0
C361 C 0.9255 0.63532 0.86393 0.0
C362 C 0.84977 0.59732 0.81806 0.0
C363 C 0.74614 0.57183 0.82592 0.0
C364 C 0.78705 0.58289 0.83047 0.0
C365 C 0.90394 0.60983 0.84487 0.0
C366 C 0.86405 0.60148 0.83968 0.0
H367 H 0.67724 0.5875 0.849 0.0
H368 H 0.74608 0.6108 0.85379 0.0
H369 H 0.80131 0.58531 0.79673 0.0
H370 H 0.96536 0.57686 0.82923 0.0
H371 H 0.90344 0.57003 0.81727 0.0
C372 C 0.17909 0.72037 0.1386 0.0
C373 C 0.15366 0.71262 0.15522 0.0
C374 C 0.21577 0.75352 0.14165 0.0
C375 C 0.28831 0.81698 0.18633 0.0
H376 H 0.34405 0.87605 0.14084 0.0
C377 C 0.45283 0.90407 0.19324 0.0
C378 C 0.47033 0.94267 0.18899 0.0
C379 C 0.41354 0.87862 0.18771 0.0
C380 C 0.32873 0.85999 0.15373 0.0
H381 H 0.14572 0.73495 0.18747 0.0
H382 H 0.20973 0.79299 0.19273 0.0
H383 H 0.27472 0.82936 0.13405 0.0
H384 H 0.46069 0.98434 0.17471 0.0
H385 H 0.39169 0.93943 0.16478 0.0
H386 H 0.3421 0.8471 0.20594 0.0
C387 C 0.20148 0.77306 0.17748 0.0
C388 C 0.28917 0.83316 0.14982 0.0
C389 C 0.16476 0.73992 0.17442 0.0
C390 C 0.44804 0.95468 0.17806 0.0
C391 C 0.40858 0.92906 0.17244 0.0
C392 C 0.32773 0.84353 0.19017 0.0
C393 C 0.22777 0.7796 0.16139 0.0
C394 C 0.26867 0.81103 0.16601 0.0
C395 C 0.39081 0.8911 0.17774 0.0
C396 C 0.34849 0.86481 0.17381 0.0
H397 H 0.17133 0.70002 0.12355 0.0
H398 H 0.23542 0.75757 0.129 0.0
H399 H 0.27352 0.80008 0.19905 0.0
H400 H 0.46944 0.89375 0.20125 0.0
H401 H 0.40079 0.84922 0.19152 0.0
C402 C 0.48501 0.14584 0.47825 0.0
C403 C 0.50646 0.138 0.4626 0.0
C404 C 0.47439 0.17378 0.47606 0.0
C405 C 0.51513 0.26489 0.45451 0.0
H406 H 0.4289 0.26952 0.47981 0.0
C407 C 0.4672 0.38511 0.49022 0.0
C408 C 0.49984 0.40926 0.50496 0.0
C409 C 0.46326 0.35112 0.47801 0.0
C410 C 0.45279 0.26856 0.47225 0.0
H411 H 0.5298 0.1501 0.43115 0.0
H412 H 0.51115 0.19881 0.42735 0.0
H413 H 0.42539 0.20645 0.47025 0.0
H414 H 0.55477 0.41847 0.51773 0.0
H415 H 0.5483 0.3596 0.49624 0.0
H416 H 0.54333 0.32711 0.45759 0.0
C417 C 0.50319 0.18387 0.4415 0.0
C418 C 0.45091 0.23251 0.46695 0.0
C419 C 0.51377 0.15588 0.44367 0.0
C420 C 0.52934 0.40016 0.50648 0.0
C421 C 0.52571 0.36667 0.49407 0.0
C422 C 0.51708 0.30086 0.45992 0.0
C423 C 0.48498 0.19439 0.45817 0.0
C424 C 0.4827 0.2305 0.45886 0.0
C425 C 0.49227 0.34133 0.48009 0.0
C426 C 0.4866 0.30317 0.46968 0.0
H427 H 0.4786 0.13233 0.49293 0.0
H428 H 0.46054 0.18131 0.48927 0.0
H429 H 0.54027 0.26448 0.44846 0.0
H430 H 0.44403 0.39158 0.48891 0.0
H431 H 0.43724 0.33206 0.46734 0.0
C432 C 0.33963 0.49375 0.82456 0.0
C433 C 0.36377 0.50457 0.84385 0.0
C434 C 0.3079 0.49961 0.82449 0.0
C435 C 0.24813 0.52546 0.86144 0.0
H436 H 0.24153 0.57825 0.81448 0.0
C437 C 0.19401 0.63422 0.87218 0.0
C438 C 0.16488 0.62837 0.85686 0.0
C439 C 0.21295 0.61288 0.86863 0.0
C440 C 0.24267 0.56302 0.8275 0.0
H441 H 0.37227 0.52769 0.87843 0.0
H442 H 0.31782 0.53843 0.87825 0.0
H443 H 0.28255 0.54877 0.81198 0.0
H444 H 0.13352 0.59688 0.82541 0.0
H445 H 0.16777 0.56019 0.81887 0.0
H446 H 0.21009 0.54191 0.87752 0.0
C447 C 0.32281 0.52505 0.86319 0.0
C448 C 0.26595 0.54593 0.82606 0.0
C449 C 0.35434 0.51919 0.86327 0.0
C450 C 0.15586 0.6018 0.8375 0.0
C451 C 0.17535 0.58087 0.83376 0.0
C452 C 0.22535 0.54297 0.863 0.0
C453 C 0.29976 0.51628 0.84371 0.0
C454 C 0.26986 0.528 0.84334 0.0
C455 C 0.20352 0.58576 0.84951 0.0
C456 C 0.22331 0.56281 0.84633 0.0
H457 H 0.34614 0.48233 0.80934 0.0
H458 H 0.2904 0.49207 0.80928 0.0
H459 H 0.24978 0.5111 0.8748 0.0
H460 H 0.2014 0.65453 0.88723 0.0
H461 H 0.23499 0.61752 0.88086 0.0
C462 C 0.87198 0.38846 0.15776 0.0
C463 C 0.86531 0.41968 0.16346 0.0
C464 C 0.84125 0.35001 0.155 0.0
C465 C 0.73935 0.29203 0.1686 0.0
H466 H 0.74091 0.20947 0.12882 0.0
C467 C 0.61088 0.13518 0.15418 0.0
C468 C 0.62081 0.10812 0.15986 0.0
C469 C 0.63968 0.17244 0.15118 0.0
C470 C 0.74015 0.23238 0.1399 0.0
H471 H 0.82138 0.4356 0.1696 0.0
H472 H 0.76772 0.36904 0.16374 0.0
H473 H 0.79315 0.27679 0.1302 0.0
H474 H 0.66813 0.09745 0.16531 0.0
H475 H 0.71845 0.16237 0.15951 0.0
H476 H 0.68594 0.24752 0.17791 0.0
C477 C 0.79663 0.37371 0.16237 0.0
C478 C 0.77019 0.27089 0.14088 0.0
C479 C 0.82739 0.41197 0.16563 0.0
C480 C 0.65976 0.11794 0.16111 0.0
C481 C 0.6885 0.15493 0.15768 0.0
C482 C 0.70905 0.25375 0.16727 0.0
C483 C 0.80313 0.3421 0.15739 0.0
C484 C 0.77042 0.30122 0.15544 0.0
C485 C 0.67874 0.18281 0.15332 0.0
C486 C 0.70938 0.22357 0.15311 0.0
H487 H 0.90104 0.39371 0.15602 0.0
H488 H 0.84761 0.32658 0.15151 0.0
H489 H 0.73877 0.31419 0.18041 0.0
H490 H 0.58101 0.12818 0.15313 0.0
H491 H 0.63154 0.19349 0.14774 0.0
C492 C 0.03879 0.60244 0.09373 0.0
C493 C 0.01432 0.56742 0.10158 0.0
C494 C 0.04304 0.60289 0.07138 0.0
C495 C 0.99284 0.55533 0.01826 0.0
H496 H 0.09447 0.60453 0.99663 0.0
C497 C 0.01028 0.56553 0.92667 0.0
C498 C 0.04078 0.60012 0.92124 0.0
C499 C 0.00842 0.55771 0.94814 0.0
C500 C 0.06587 0.5911 0.00239 0.0
H501 H 0.97462 0.50548 0.09208 0.0
H502 H 0.9812 0.50663 0.05275 0.0
H503 H 0.08825 0.59839 0.03535 0.0
H504 H 0.09346 0.65348 0.93365 0.0
H505 H 0.08956 0.64088 0.97139 0.0
H506 H 0.97027 0.54981 0.98579 0.0
C507 C 0.99749 0.5335 0.06408 0.0
C508 C 0.06238 0.58736 0.02453 0.0
C509 C 0.99382 0.53288 0.08654 0.0
C510 C 0.06981 0.62648 0.93749 0.0
C511 C 0.0676 0.61905 0.95907 0.0
C512 C 0.99631 0.55967 0.99619 0.0
C513 C 0.02231 0.56851 0.05637 0.0
C514 C 0.02586 0.56976 0.03267 0.0
C515 C 0.03664 0.58471 0.96474 0.0
C516 C 0.03292 0.57796 0.98798 0.0
H517 H 0.05485 0.6296 0.10484 0.0
H518 H 0.06198 0.63032 0.06578 0.0
H519 H 0.96438 0.54203 0.02424 0.0
H520 H 0.98781 0.54457 0.91429 0.0
H521 H 0.98467 0.53055 0.9517 0.0
C522 C 0.56688 0.98861 0.42472 0.0
C523 C 0.57508 0.02466 0.43663 0.0
C524 C 0.5706 0.98488 0.40222 0.0
C525 C 0.61569 0.04097 0.35742 0.0
H526 H 0.52942 0.95417 0.32093 0.0
C527 C 0.58931 0.03737 0.2651 0.0
C528 C 0.57177 1.00122 0.25133 0.0
C529 C 0.59485 0.03932 0.28767 0.0
C530 C 0.55415 0.97816 0.33084 0.0
H531 H 0.59497 0.08537 0.43435 0.0
H532 H 0.60121 0.07876 0.39507 0.0
H533 H 0.52941 0.9592 0.36055 0.0
H534 H 0.54845 0.93907 0.25011 0.0
H535 H 0.55881 0.94246 0.28949 0.0
H536 H 0.64026 0.06017 0.32769 0.0
C537 C 0.59201 0.05343 0.40317 0.0
C538 C 0.55407 0.98108 0.35357 0.0
C539 C 0.58806 0.05711 0.42564 0.0
C540 C 0.56162 0.96726 0.26041 0.0
C541 C 0.5674 0.96923 0.28296 0.0
C542 C 0.6159 0.03794 0.33465 0.0
C543 C 0.5829 0.01718 0.39118 0.0
C544 C 0.58456 0.01278 0.3671 0.0
C545 C 0.58317 0.00516 0.29692 0.0
C546 C 0.58486 0.00678 0.32109 0.0
H547 H 0.55688 0.96303 0.43269 0.0
H548 H 0.56372 0.95667 0.39343 0.0
H549 H 0.63983 0.06546 0.36747 0.0
H550 H 0.59698 0.06395 0.25858 0.0
H551 H 0.60662 0.06742 0.29793 0.0
C552 C 0.47906 0.46775 0.75347 0.0
C553 C 0.50934 0.49919 0.7673 0.0
C554 C 0.48113 0.46389 0.7308 0.0
C555 C 0.52446 0.52077 0.68706 0.0
H556 H 0.50245 0.42243 0.65304 0.0
C557 C 0.54156 0.50859 0.59476 0.0
C558 C 0.51331 0.47473 0.58145 0.0
C559 C 0.54369 0.51056 0.61748 0.0
C560 C 0.50824 0.44998 0.66225 0.0
H561 H 0.56548 0.55124 0.76822 0.0
H562 H 0.56863 0.54478 0.72863 0.0
H563 H 0.49983 0.42769 0.69272 0.0
H564 H 0.46557 0.41618 0.58121 0.0
H565 H 0.46834 0.41985 0.62093 0.0
H566 H 0.5316 0.54293 0.65678 0.0
C567 C 0.54344 0.52312 0.73536 0.0
C568 C 0.50684 0.45296 0.68496 0.0
C569 C 0.54164 0.5267 0.75801 0.0
C570 C 0.48782 0.44249 0.59117 0.0
C571 C 0.48956 0.44462 0.61392 0.0
C572 C 0.52537 0.51769 0.66436 0.0
C573 C 0.51323 0.49168 0.72156 0.0
C574 C 0.51494 0.48839 0.69754 0.0
C575 C 0.51719 0.47889 0.62739 0.0
C576 C 0.51728 0.48226 0.65164 0.0
H577 H 0.45387 0.446 0.76014 0.0
H578 H 0.45733 0.43954 0.72046 0.0
H579 H 0.53037 0.54829 0.69638 0.0
H580 H 0.56183 0.53367 0.58758 0.0
H581 H 0.56594 0.53706 0.62726 0.0
C582 C 0.58001 0.03471 0.56742 0.0
C583 C 0.56067 0.05024 0.55688 0.0
C584 C 0.57554 0.02991 0.58939 0.0
C585 C 0.51191 0.02241 0.63362 0.0
H586 H 0.60369 0.05504 0.67169 0.0
C587 C 0.56273 0.06502 0.73133 0.0
C588 C 0.53215 0.03368 0.73948 0.0
C589 C 0.56618 0.06414 0.70885 0.0
C590 C 0.57781 0.04585 0.66127 0.0
H591 H 0.52114 0.07255 0.56113 0.0
H592 H 0.51361 0.06448 0.59959 0.0
H593 H 0.60908 0.05945 0.63277 0.0
H594 H 0.48148 0.97657 0.73049 0.0
H595 H 0.48765 0.97488 0.69106 0.0
H596 H 0.48079 0.00965 0.66226 0.0
C597 C 0.53194 0.05566 0.59075 0.0
C598 C 0.58083 0.04803 0.63895 0.0
C599 C 0.53649 0.06056 0.56877 0.0
C600 C 0.50548 1.00104 0.72467 0.0
C601 C 0.50879 1.00025 0.70212 0.0
C602 C 0.50886 0.02004 0.65595 0.0
C603 C 0.5516 0.04049 0.60134 0.0
C604 C 0.54798 0.03668 0.6249 0.0
C605 C 0.53904 0.03193 0.69397 0.0
C606 C 0.54185 0.03212 0.67005 0.0
H607 H 0.59883 0.02639 0.55875 0.0
H608 H 0.59072 0.01772 0.597 0.0
H609 H 0.48602 0.01308 0.62317 0.0
H610 H 0.58392 0.09042 0.74237 0.0
H611 H 0.5896 0.08915 0.70309 0.0
C612 C 0.53714 0.54367 0.90681 0.0
C613 C 0.50443 0.51771 0.89244 0.0
C614 C 0.53458 0.54705 0.92944 0.0
C615 C 0.47587 0.49433 0.9721 0.0
H616 H 0.52455 0.59662 0.00763 0.0
C617 C 0.48808 0.51534 0.06641 0.0
C618 C 0.47966 0.54308 0.0773 0.0
C619 C 0.49149 0.51257 0.04388 0.0
C620 C 0.51064 0.56788 -0.00211 0.0
H621 H 0.44338 0.47486 0.89063 0.0
H622 H 0.43903 0.48079 0.93005 0.0
H623 H 0.52968 0.59105 0.96812 0.0
H624 H 0.46858 0.58991 0.07319 0.0
H625 H 0.47429 0.58489 0.0337 0.0
H626 H 0.45648 0.47114 0.00179 0.0
C627 C 0.4667 0.49831 0.92382 0.0
C628 C 0.51392 0.56468 0.97533 0.0
C629 C 0.46919 0.49506 0.90121 0.0
C630 C 0.47481 0.56807 0.06519 0.0
C631 C 0.47845 0.56545 0.04265 0.0
C632 C 0.47279 0.49752 0.99466 0.0
C633 C 0.49933 0.52438 0.93818 0.0
C634 C 0.49646 0.52786 0.96219 0.0
C635 C 0.48671 0.53757 0.03176 0.0
C636 C 0.49008 0.53432 0.0078 0.0
H637 H 0.56473 0.56152 0.90059 0.0
H638 H 0.56031 0.5671 0.94012 0.0
H639 H 0.46239 0.46555 0.96243 0.0
H640 H 0.4916 0.49542 0.07527 0.0
H641 H 0.49821 0.49103 0.03598 0.0
C642 C 0.99479 0.54075 0.23597 0.0
C643 C 0.01081 0.57523 0.22661 0.0
C644 C 0.99536 0.54231 0.25869 0.0
C645 C 1.0041 0.6057 0.30985 0.0
H646 H 0.03487 0.54156 0.33684 0.0
C647 C 0.04304 0.63004 0.40272 0.0
C648 C 0.03248 0.59723 0.41308 0.0
C649 C 0.03764 0.62603 0.37999 0.0
C650 C 0.02562 0.55922 0.32957 0.0
H651 H 0.03981 0.6384 0.23386 0.0
H652 H 0.04079 0.64102 0.27348 0.0
H653 H 0.03071 0.537 0.29711 0.0
H654 H 0.00741 0.53436 0.40763 0.0
H655 H 0.99702 0.52725 0.36799 0.0
H656 H 0.99899 0.62795 0.34226 0.0
C657 C 0.02754 0.61279 0.26321 0.0
C658 C 0.02333 0.55665 0.30679 0.0
C659 C 0.02717 0.61127 0.2405 0.0
C660 C 0.01558 0.5602 0.40019 0.0
C661 C 0.01007 0.55618 0.37744 0.0
C662 C 0.00622 0.60814 0.33262 0.0
C663 C 0.01175 0.57834 0.27256 0.0
C664 C 0.01285 0.58009 0.2967 0.0
C665 C 0.02139 0.5891 0.36704 0.0
C666 C 0.01732 0.58517 0.34277 0.0
H667 H 0.98186 0.51248 0.22577 0.0
H668 H 0.98262 0.51525 0.26541 0.0
H669 H 0.99537 0.6237 0.30252 0.0
H670 H 0.05568 0.65893 0.41219 0.0
H671 H 0.04705 0.65206 0.37254 0.0
loop_
_geom_bond_atom_site_label_1
_geom_bond_atom_site_label_2
_geom_bond_distance
_geom_bond_site_symmetry_2
_ccdc_geom_bond_type
Zn0 O6 1.969 . S
Zn0 O7 1.965 . S
Zn0 O11 2.024 . S
Zn0 O16 1.969 . S
Zn1 O8 1.969 . S
Zn1 O14 1.969 . S
Zn1 O15 1.965 1_655 S
Zn1 O17 2.024 . S
C2 O3 1.229 . S
C2 O11 1.058 . S
O3 C2 1.229 . S
C4 O5 1.229 . S
C4 O17 1.058 . S
O5 C4 1.229 . S
O6 Zn0 1.969 . S
O6 C9 1.267 . S
O7 Zn0 1.965 . S
O7 C18 1.260 . S
O8 Zn1 1.969 . S
O8 C18 1.258 1_655 S
C9 O6 1.267 . S
C9 O10 1.228 . S
O10 C9 1.228 . S
O11 Zn0 2.024 . S
O11 C2 1.058 . S
C12 O13 1.228 . S
C12 O14 1.267 . S
O13 C12 1.228 . S
O14 Zn1 1.969 . S
O14 C12 1.267 . S
O15 Zn1 1.965 1_455 S
O15 C19 1.260 . S
O16 Zn0 1.969 . S
O16 C19 1.258 . S
O17 Zn1 2.024 . S
O17 C4 1.058 . S
C18 O7 1.260 . S
C18 O8 1.258 1_455 S
C19 O15 1.260 . S
C19 O16 1.258 . S
Zn20 O26 1.969 . S
Zn20 O27 1.965 . S
Zn20 O31 2.024 . S
Zn20 O36 1.969 . S
Zn21 O28 1.969 . S
Zn21 O34 1.969 . S
Zn21 O35 1.965 1_565 S
Zn21 O37 2.024 . S
C22 O23 1.229 . S
C22 O31 1.058 . S
O23 C22 1.229 . S
C24 O25 1.229 . S
C24 O37 1.058 . S
O25 C24 1.229 . S
O26 Zn20 1.969 . S
O26 C29 1.267 . S
O27 Zn20 1.965 . S
O27 C38 1.260 . S
O28 Zn21 1.969 . S
O28 C38 1.258 1_565 S
C29 O26 1.267 . S
C29 O30 1.228 . S
O30 C29 1.228 . S
O31 Zn20 2.024 . S
O31 C22 1.058 . S
C32 O33 1.228 . S
C32 O34 1.267 . S
O33 C32 1.228 . S
O34 Zn21 1.969 . S
O34 C32 1.267 . S
O35 Zn21 1.965 1_545 S
O35 C39 1.260 . S
O36 Zn20 1.969 . S
O36 C39 1.258 . S
O37 Zn21 2.024 . S
O37 C24 1.058 . S
C38 O27 1.260 . S
C38 O28 1.258 1_545 S
C39 O35 1.260 . S
C39 O36 1.258 . S
Zn40 O46 1.969 . S
Zn40 O47 1.965 . S
Zn40 O51 2.024 . S
Zn40 O56 1.969 . S
Zn41 O48 1.969 . S
Zn41 O54 1.969 . S
Zn41 O55 1.965 . S
Zn41 O57 2.024 . S
C42 O43 1.229 . S
C42 O51 1.058 . S
O43 C42 1.229 . S
C44 O45 1.229 . S
C44 O57 1.058 . S
O45 C44 1.229 . S
O46 Zn40 1.969 . S
O46 C49 1.267 . S
O47 Zn40 1.965 . S
O47 C58 1.260 . S
O48 Zn41 1.969 . S
O48 C58 1.258 . S
C49 O46 1.267 . S
C49 O50 1.228 . S
O50 C49 1.228 . S
O51 Zn40 2.024 . S
O51 C42 1.058 . S
C52 O53 1.228 . S
C52 O54 1.267 . S
O53 C52 1.228 . S
O54 Zn41 1.969 . S
O54 C52 1.267 . S
O55 Zn41 1.965 . S
O55 C59 1.260 . S
O56 Zn40 1.969 . S
O56 C59 1.258 . S
O57 Zn41 2.024 . S
O57 C44 1.058 . S
C58 O47 1.260 . S
C58 O48 1.258 . S
C59 O55 1.260 . S
C59 O56 1.258 . S
H60 C65 0.930 . S
H61 C68 0.930 . S
H62 C70 0.930 . S
H63 C64 1.016 . S
C64 H63 1.016 . S
C64 N71 1.286 . S
C65 H60 0.930 . S
C65 C66 1.397 . S
C65 C67 1.361 . S
C66 C65 1.397 . S
C66 C70 1.390 . S
C67 C65 1.361 . S
C67 C68 1.393 . S
C67 N71 1.413 . S
C68 H61 0.930 . S
C68 C67 1.393 . S
C68 C69 1.399 . S
C69 C68 1.399 . S
C69 C70 1.381 . S
C70 H62 0.930 . S
C70 C66 1.390 . S
C70 C69 1.381 . S
N71 C64 1.286 . S
N71 C67 1.413 . S
H72 C77 0.930 . S
H73 C80 0.930 . S
H74 C82 0.930 . S
H75 C76 1.016 . S
C76 H75 1.016 . S
C76 N83 1.286 . S
C77 H72 0.930 . S
C77 C78 1.397 . S
C77 C79 1.361 . S
C78 C77 1.397 . S
C78 C82 1.390 . S
C79 C77 1.361 . S
C79 C80 1.393 . S
C79 N83 1.413 . S
C80 H73 0.930 . S
C80 C79 1.393 . S
C80 C81 1.399 . S
C81 C80 1.399 . S
C81 C82 1.381 . S
C82 H74 0.930 . S
C82 C78 1.390 . S
C82 C81 1.381 . S
N83 C76 1.286 . S
N83 C79 1.413 . S
H84 C89 0.930 . S
H85 C92 0.930 . S
H86 C94 0.930 . S
H87 C88 1.016 . S
C88 H87 1.016 . S
C88 N95 1.286 . S
C89 H84 0.930 . S
C89 C90 1.397 1_455 S
C89 C91 1.361 . S
C90 C89 1.397 1_655 S
C90 C94 1.390 . S
C91 C89 1.361 . S
C91 C92 1.393 . S
C91 N95 1.413 . S
C92 H85 0.930 . S
C92 C91 1.393 . S
C92 C93 1.399 . S
C93 C92 1.399 . S
C93 C94 1.381 1_455 S
C94 H86 0.930 . S
C94 C90 1.390 . S
C94 C93 1.381 1_655 S
N95 C88 1.286 . S
N95 C91 1.413 . S
H96 C101 0.930 . S
H97 C104 0.930 . S
H98 C106 0.930 . S
H99 C100 1.016 . S
C100 H99 1.016 . S
C100 N107 1.286 . S
C101 H96 0.930 . S
C101 C102 1.397 . S
C101 C103 1.361 . S
C102 C101 1.397 . S
C102 C106 1.390 . S
C103 C101 1.361 . S
C103 C104 1.393 1_455 S
C103 N107 1.413 1_455 S
C104 H97 0.930 . S
C104 C103 1.393 1_655 S
C104 C105 1.399 1_655 S
C105 C104 1.399 1_455 S
C105 C106 1.381 . S
C106 H98 0.930 . S
C106 C102 1.390 . S
C106 C105 1.381 . S
N107 C100 1.286 . S
N107 C103 1.413 1_655 S
H108 C113 0.930 . S
H109 C116 0.930 1_565 S
H110 C118 0.930 . S
H111 C112 1.016 . S
C112 H111 1.016 . S
C112 N119 1.286 . S
C113 H108 0.930 . S
C113 C114 1.397 . S
C113 C115 1.361 . S
C114 C113 1.397 . S
C114 C118 1.390 . S
C115 C113 1.361 . S
C115 C116 1.393 . S
C115 N119 1.413 1_545 S
C116 H109 0.930 1_545 S
C116 C115 1.393 . S
C116 C117 1.399 . S
C117 C116 1.399 . S
C117 C118 1.381 . S
C118 H110 0.930 . S
C118 C114 1.390 . S
C118 C117 1.381 . S
N119 C112 1.286 . S
N119 C115 1.413 1_565 S
H120 C125 0.930 . S
H121 C128 0.930 . S
H122 C130 0.930 . S
H123 C124 1.016 . S
C124 H123 1.016 . S
C124 N131 1.286 . S
C125 H120 0.930 . S
C125 C126 1.397 . S
C125 C127 1.361 . S
C126 C125 1.397 . S
C126 C130 1.390 . S
C127 C125 1.361 . S
C127 C128 1.393 . S
C127 N131 1.413 . S
C128 H121 0.930 . S
C128 C127 1.393 . S
C128 C129 1.399 . S
C129 C128 1.399 . S
C129 C130 1.381 . S
C130 H122 0.930 . S
C130 C126 1.390 . S
C130 C129 1.381 . S
N131 C124 1.286 . S
N131 C127 1.413 . S
C132 C133 1.349 . S
C132 C134 1.327 . S
C132 H157 0.950 . S
C133 C132 1.349 . S
C133 C149 1.349 . S
C134 C132 1.327 . S
C134 C153 1.429 . S
C134 H158 0.950 . S
C135 C152 1.574 . S
C135 C154 1.368 . S
C135 H159 0.949 . S
H136 C140 0.949 . S
C137 C138 1.349 . S
C137 C139 1.327 . S
C137 H160 0.950 . S
C138 C137 1.349 . S
C138 C150 1.349 . S
C139 C137 1.327 . S
C139 C155 1.429 . S
C139 H161 0.950 . S
C140 H136 0.949 . S
C140 C148 1.574 . S
C140 C156 1.368 . S
H141 C149 0.950 . S
H142 C147 0.950 . S
H143 C148 0.949 . S
H144 C150 0.950 . S
H145 C151 0.950 . S
H146 C152 0.949 . S
C147 H142 0.950 . S
C147 C149 1.327 . S
C147 C153 1.429 . S
C148 C140 1.574 . S
C148 H143 0.949 . S
C148 C154 1.368 . S
C149 C133 1.349 . S
C149 H141 0.950 . S
C149 C147 1.327 . S
C150 C138 1.349 . S
C150 H144 0.950 . S
C150 C151 1.327 . S
C151 H145 0.950 . S
C151 C150 1.327 . S
C151 C155 1.429 . S
C152 C135 1.574 . S
C152 H146 0.949 . S
C152 C156 1.368 . S
C153 C134 1.429 . S
C153 C147 1.429 . S
C153 C154 1.523 . S
C154 C135 1.368 . S
C154 C148 1.368 . S
C154 C153 1.523 . S
C155 C139 1.429 . S
C155 C151 1.429 . S
C155 C156 1.523 . S
C156 C140 1.368 . S
C156 C152 1.368 . S
C156 C155 1.523 . S
H157 C132 0.950 . S
H158 C134 0.950 . S
H159 C135 0.949 . S
H160 C137 0.950 . S
H161 C139 0.950 . S
C162 C163 1.349 . S
C162 C164 1.327 . S
C162 H187 0.950 . S
C163 C162 1.349 . S
C163 C179 1.349 . S
C164 C162 1.327 . S
C164 C183 1.429 . S
C164 H188 0.950 . S
C165 C182 1.574 . S
C165 C184 1.368 . S
C165 H189 0.949 . S
H166 C170 0.949 . S
C167 C168 1.349 . S
C167 C169 1.327 . S
C167 H190 0.950 . S
C168 C167 1.349 . S
C168 C180 1.349 . S
C169 C167 1.327 . S
C169 C185 1.429 . S
C169 H191 0.950 . S
C170 H166 0.949 . S
C170 C178 1.574 . S
C170 C186 1.368 . S
H171 C179 0.950 . S
H172 C177 0.950 . S
H173 C178 0.949 . S
H174 C180 0.950 . S
H175 C181 0.950 . S
H176 C182 0.949 . S
C177 H172 0.950 . S
C177 C179 1.327 . S
C177 C183 1.429 . S
C178 C170 1.574 . S
C178 H173 0.949 . S
C178 C184 1.368 . S
C179 C163 1.349 . S
C179 H171 0.950 . S
C179 C177 1.327 . S
C180 C168 1.349 . S
C180 H174 0.950 . S
C180 C181 1.327 . S
C181 H175 0.950 . S
C181 C180 1.327 . S
C181 C185 1.429 . S
C182 C165 1.574 . S
C182 H176 0.949 . S
C182 C186 1.368 . S
C183 C164 1.429 . S
C183 C177 1.429 . S
C183 C184 1.523 . S
C184 C165 1.368 . S
C184 C178 1.368 . S
C184 C183 1.523 . S
C185 C169 1.429 . S
C185 C181 1.429 . S
C185 C186 1.523 . S
C186 C170 1.368 . S
C186 C182 1.368 . S
C186 C185 1.523 . S
H187 C162 0.950 . S
H188 C164 0.950 . S
H189 C165 0.949 . S
H190 C167 0.950 . S
H191 C169 0.950 . S
C192 C193 1.349 . S
C192 C194 1.327 . S
C192 H217 0.950 . S
C193 C192 1.349 . S
C193 C209 1.349 . S
C194 C192 1.327 . S
C194 C213 1.429 . S
C194 H218 0.950 . S
C195 C212 1.574 . S
C195 C214 1.368 . S
C195 H219 0.949 . S
H196 C200 0.949 . S
C197 C198 1.349 . S
C197 C199 1.327 . S
C197 H220 0.950 . S
C198 C197 1.349 . S
C198 C210 1.349 . S
C199 C197 1.327 . S
C199 C215 1.429 . S
C199 H221 0.950 . S
C200 H196 0.949 . S
C200 C208 1.574 . S
C200 C216 1.368 . S
H201 C209 0.950 . S
H202 C207 0.950 . S
H203 C208 0.949 . S
H204 C210 0.950 . S
H205 C211 0.950 . S
H206 C212 0.949 . S
C207 H202 0.950 . S
C207 C209 1.327 . S
C207 C213 1.429 . S
C208 C200 1.574 . S
C208 H203 0.949 . S
C208 C214 1.368 . S
C209 C193 1.349 . S
C209 H201 0.950 . S
C209 C207 1.327 . S
C210 C198 1.349 . S
C210 H204 0.950 . S
C210 C211 1.327 . S
C211 H205 0.950 . S
C211 C210 1.327 . S
C211 C215 1.429 . S
C212 C195 1.574 . S
C212 H206 0.949 . S
C212 C216 1.368 . S
C213 C194 1.429 . S
C213 C207 1.429 . S
C213 C214 1.523 . S
C214 C195 1.368 . S
C214 C208 1.368 . S
C214 C213 1.523 . S
C215 C199 1.429 . S
C215 C211 1.429 . S
C215 C216 1.523 . S
C216 C200 1.368 . S
C216 C212 1.368 . S
C216 C215 1.523 . S
H217 C192 0.950 . S
H218 C194 0.950 . S
H219 C195 0.949 . S
H220 C197 0.950 . S
H221 C199 0.950 . S
C222 C223 1.349 . S
C222 C224 1.327 . S
C222 H247 0.950 . S
C223 C222 1.349 . S
C223 C239 1.349 . S
C224 C222 1.327 . S
C224 C243 1.429 . S
C224 H248 0.950 . S
C225 C242 1.574 . S
C225 C244 1.368 . S
C225 H249 0.949 . S
H226 C230 0.949 . S
C227 C228 1.349 . S
C227 C229 1.327 . S
C227 H250 0.950 . S
C228 C227 1.349 . S
C228 C240 1.349 . S
C229 C227 1.327 . S
C229 C245 1.429 . S
C229 H251 0.950 . S
C230 H226 0.949 . S
C230 C238 1.574 . S
C230 C246 1.368 . S
H231 C239 0.950 . S
H232 C237 0.950 . S
H233 C238 0.949 . S
H234 C240 0.950 . S
H235 C241 0.950 . S
H236 C242 0.949 . S
C237 H232 0.950 . S
C237 C239 1.327 . S
C237 C243 1.429 . S
C238 C230 1.574 . S
C238 H233 0.949 . S
C238 C244 1.368 . S
C239 C223 1.349 . S
C239 H231 0.950 . S
C239 C237 1.327 . S
C240 C228 1.349 . S
C240 H234 0.950 . S
C240 C241 1.327 . S
C241 H235 0.950 . S
C241 C240 1.327 . S
C241 C245 1.429 . S
C242 C225 1.574 . S
C242 H236 0.949 . S
C242 C246 1.368 . S
C243 C224 1.429 . S
C243 C237 1.429 . S
C243 C244 1.523 . S
C244 C225 1.368 . S
C244 C238 1.368 . S
C244 C243 1.523 . S
C245 C229 1.429 . S
C245 C241 1.429 . S
C245 C246 1.523 . S
C246 C230 1.368 . S
C246 C242 1.368 . S
C246 C245 1.523 . S
H247 C222 0.950 . S
H248 C224 0.950 . S
H249 C225 0.949 . S
H250 C227 0.950 . S
H251 C229 0.950 . S
C252 C253 1.349 . S
C252 C254 1.327 . S
C252 H277 0.950 . S
C253 C252 1.349 . S
C253 C269 1.349 . S
C254 C252 1.327 . S
C254 C273 1.429 . S
C254 H278 0.950 . S
C255 C272 1.574 . S
C255 C274 1.368 . S
C255 H279 0.949 . S
H256 C260 0.949 . S
C257 C258 1.349 . S
C257 C259 1.327 . S
C257 H280 0.950 . S
C258 C257 1.349 . S
C258 C270 1.349 . S
C259 C257 1.327 . S
C259 C275 1.429 . S
C259 H281 0.950 . S
C260 H256 0.949 . S
C260 C268 1.574 . S
C260 C276 1.368 . S
H261 C269 0.950 . S
H262 C267 0.950 . S
H263 C268 0.949 . S
H264 C270 0.950 . S
H265 C271 0.950 . S
H266 C272 0.949 . S
C267 H262 0.950 . S
C267 C269 1.327 . S
C267 C273 1.429 . S
C268 C260 1.574 . S
C268 H263 0.949 . S
C268 C274 1.368 . S
C269 C253 1.349 . S
C269 H261 0.950 . S
C269 C267 1.327 . S
C270 C258 1.349 . S
C270 H264 0.950 . S
C270 C271 1.327 . S
C271 H265 0.950 . S
C271 C270 1.327 . S
C271 C275 1.429 . S
C272 C255 1.574 . S
C272 H266 0.949 . S
C272 C276 1.368 . S
C273 C254 1.429 . S
C273 C267 1.429 . S
C273 C274 1.523 . S
C274 C255 1.368 . S
C274 C268 1.368 . S
C274 C273 1.523 . S
C275 C259 1.429 . S
C275 C271 1.429 . S
C275 C276 1.523 . S
C276 C260 1.368 . S
C276 C272 1.368 . S
C276 C275 1.523 . S
H277 C252 0.950 . S
H278 C254 0.950 . S
H279 C255 0.949 . S
H280 C257 0.950 . S
H281 C259 0.950 . S
C282 C283 1.349 . S
C282 C284 1.327 . S
C282 H307 0.950 . S
C283 C282 1.349 . S
C283 C299 1.349 . S
C284 C282 1.327 . S
C284 C303 1.429 . S
C284 H308 0.950 . S
C285 C302 1.574 . S
C285 C304 1.368 . S
C285 H309 0.949 . S
H286 C290 0.949 . S
C287 C288 1.349 . S
C287 C289 1.327 . S
C287 H310 0.950 . S
C288 C287 1.349 . S
C288 C300 1.349 . S
C289 C287 1.327 . S
C289 C305 1.429 . S
C289 H311 0.950 . S
C290 H286 0.949 . S
C290 C298 1.574 . S
C290 C306 1.368 . S
H291 C299 0.950 . S
H292 C297 0.950 . S
H293 C298 0.949 . S
H294 C300 0.950 . S
H295 C301 0.950 . S
H296 C302 0.949 . S
C297 H292 0.950 . S
C297 C299 1.327 . S
C297 C303 1.429 . S
C298 C290 1.574 . S
C298 H293 0.949 . S
C298 C304 1.368 . S
C299 C283 1.349 . S
C299 H291 0.950 . S
C299 C297 1.327 . S
C300 C288 1.349 . S
C300 H294 0.950 . S
C300 C301 1.327 . S
C301 H295 0.950 . S
C301 C300 1.327 . S
C301 C305 1.429 . S
C302 C285 1.574 . S
C302 H296 0.949 . S
C302 C306 1.368 . S
C303 C284 1.429 . S
C303 C297 1.429 . S
C303 C304 1.523 . S
C304 C285 1.368 . S
C304 C298 1.368 . S
C304 C303 1.523 . S
C305 C289 1.429 . S
C305 C301 1.429 . S
C305 C306 1.523 . S
C306 C290 1.368 . S
C306 C302 1.368 . S
C306 C305 1.523 . S
H307 C282 0.950 . S
H308 C284 0.950 . S
H309 C285 0.949 . S
H310 C287 0.950 . S
H311 C289 0.950 . S
C312 C313 1.349 . S
C312 C314 1.327 . S
C312 H337 0.950 . S
C313 C312 1.349 . S
C313 C329 1.349 . S
C314 C312 1.327 . S
C314 C333 1.429 . S
C314 H338 0.950 . S
C315 C332 1.574 . S
C315 C334 1.368 . S
C315 H339 0.949 . S
H316 C320 0.949 . S
C317 C318 1.349 . S
C317 C319 1.327 . S
C317 H340 0.950 . S
C318 C317 1.349 . S
C318 C330 1.349 . S
C319 C317 1.327 . S
C319 C335 1.429 . S
C319 H341 0.950 . S
C320 H316 0.949 . S
C320 C328 1.574 . S
C320 C336 1.368 . S
H321 C329 0.950 . S
H322 C327 0.950 . S
H323 C328 0.949 . S
H324 C330 0.950 . S
H325 C331 0.950 . S
H326 C332 0.949 . S
C327 H322 0.950 . S
C327 C329 1.327 . S
C327 C333 1.429 . S
C328 C320 1.574 . S
C328 H323 0.949 . S
C328 C334 1.368 . S
C329 C313 1.349 . S
C329 H321 0.950 . S
C329 C327 1.327 . S
C330 C318 1.349 . S
C330 H324 0.950 . S
C330 C331 1.327 . S
C331 H325 0.950 . S
C331 C330 1.327 . S
C331 C335 1.429 . S
C332 C315 1.574 . S
C332 H326 0.949 . S
C332 C336 1.368 . S
C333 C314 1.429 . S
C333 C327 1.429 . S
C333 C334 1.523 . S
C334 C315 1.368 . S
C334 C328 1.368 . S
C334 C333 1.523 . S
C335 C319 1.429 . S
C335 C331 1.429 . S
C335 C336 1.523 . S
C336 C320 1.368 . S
C336 C332 1.368 . S
C336 C335 1.523 . S
H337 C312 0.950 . S
H338 C314 0.950 . S
H339 C315 0.949 . S
H340 C317 0.950 . S
H341 C319 0.950 . S
C342 C343 1.349 . S
C342 C344 1.327 . S
C342 H367 0.950 . S
C343 C342 1.349 . S
C343 C359 1.349 . S
C344 C342 1.327 . S
C344 C363 1.429 . S
C344 H368 0.950 . S
C345 C362 1.574 . S
C345 C364 1.368 . S
C345 H369 0.949 . S
H346 C350 0.949 . S
C347 C348 1.349 . S
C347 C349 1.327 . S
C347 H370 0.950 . S
C348 C347 1.349 . S
C348 C360 1.349 . S
C349 C347 1.327 . S
C349 C365 1.429 . S
C349 H371 0.950 . S
C350 H346 0.949 . S
C350 C358 1.574 . S
C350 C366 1.368 . S
H351 C359 0.950 . S
H352 C357 0.950 . S
H353 C358 0.949 . S
H354 C360 0.950 . S
H355 C361 0.950 . S
H356 C362 0.949 . S
C357 H352 0.950 . S
C357 C359 1.327 . S
C357 C363 1.429 . S
C358 C350 1.574 . S
C358 H353 0.949 . S
C358 C364 1.368 . S
C359 C343 1.349 . S
C359 H351 0.950 . S
C359 C357 1.327 . S
C360 C348 1.349 . S
C360 H354 0.950 . S
C360 C361 1.327 . S
C361 H355 0.950 . S
C361 C360 1.327 . S
C361 C365 1.429 . S
C362 C345 1.574 . S
C362 H356 0.949 . S
C362 C366 1.368 . S
C363 C344 1.429 . S
C363 C357 1.429 . S
C363 C364 1.523 . S
C364 C345 1.368 . S
C364 C358 1.368 . S
C364 C363 1.523 . S
C365 C349 1.429 . S
C365 C361 1.429 . S
C365 C366 1.523 . S
C366 C350 1.368 . S
C366 C362 1.368 . S
C366 C365 1.523 . S
H367 C342 0.950 . S
H368 C344 0.950 . S
H369 C345 0.949 . S
H370 C347 0.950 . S
H371 C349 0.950 . S
C372 C373 1.349 . S
C372 C374 1.327 . S
C372 H397 0.950 . S
C373 C372 1.349 . S
C373 C389 1.349 . S
C374 C372 1.327 . S
C374 C393 1.429 . S
C374 H398 0.950 . S
C375 C392 1.574 . S
C375 C394 1.368 . S
C375 H399 0.949 . S
H376 C380 0.949 . S
C377 C378 1.349 . S
C377 C379 1.327 . S
C377 H400 0.950 . S
C378 C377 1.349 . S
C378 C390 1.349 . S
C379 C377 1.327 . S
C379 C395 1.429 . S
C379 H401 0.950 . S
C380 H376 0.949 . S
C380 C388 1.574 . S
C380 C396 1.368 . S
H381 C389 0.950 . S
H382 C387 0.950 . S
H383 C388 0.949 . S
H384 C390 0.950 1_545 S
H385 C391 0.950 . S
H386 C392 0.949 . S
C387 H382 0.950 . S
C387 C389 1.327 . S
C387 C393 1.429 . S
C388 C380 1.574 . S
C388 H383 0.949 . S
C388 C394 1.368 . S
C389 C373 1.349 . S
C389 H381 0.950 . S
C389 C387 1.327 . S
C390 C378 1.349 . S
C390 H384 0.950 1_565 S
C390 C391 1.327 . S
C391 H385 0.950 . S
C391 C390 1.327 . S
C391 C395 1.429 . S
C392 C375 1.574 . S
C392 H386 0.949 . S
C392 C396 1.368 . S
C393 C374 1.429 . S
C393 C387 1.429 . S
C393 C394 1.523 . S
C394 C375 1.368 . S
C394 C388 1.368 . S
C394 C393 1.523 . S
C395 C379 1.429 . S
C395 C391 1.429 . S
C395 C396 1.523 . S
C396 C380 1.368 . S
C396 C392 1.368 . S
C396 C395 1.523 . S
H397 C372 0.950 . S
H398 C374 0.950 . S
H399 C375 0.949 . S
H400 C377 0.950 . S
H401 C379 0.950 . S
C402 C403 1.349 . S
C402 C404 1.327 . S
C402 H427 0.950 . S
C403 C402 1.349 . S
C403 C419 1.349 . S
C404 C402 1.327 . S
C404 C423 1.429 . S
C404 H428 0.950 . S
C405 C422 1.574 . S
C405 C424 1.368 . S
C405 H429 0.949 . S
H406 C410 0.949 . S
C407 C408 1.349 . S
C407 C409 1.327 . S
C407 H430 0.950 . S
C408 C407 1.349 . S
C408 C420 1.349 . S
C409 C407 1.327 . S
C409 C425 1.429 . S
C409 H431 0.950 . S
C410 H406 0.949 . S
C410 C418 1.574 . S
C410 C426 1.368 . S
H411 C419 0.950 . S
H412 C417 0.950 . S
H413 C418 0.949 . S
H414 C420 0.950 . S
H415 C421 0.950 . S
H416 C422 0.949 . S
C417 H412 0.950 . S
C417 C419 1.327 . S
C417 C423 1.429 . S
C418 C410 1.574 . S
C418 H413 0.949 . S
C418 C424 1.368 . S
C419 C403 1.349 . S
C419 H411 0.950 . S
C419 C417 1.327 . S
C420 C408 1.349 . S
C420 H414 0.950 . S
C420 C421 1.327 . S
C421 H415 0.950 . S
C421 C420 1.327 . S
C421 C425 1.429 . S
C422 C405 1.574 . S
C422 H416 0.949 . S
C422 C426 1.368 . S
C423 C404 1.429 . S
C423 C417 1.429 . S
C423 C424 1.523 . S
C424 C405 1.368 . S
C424 C418 1.368 . S
C424 C423 1.523 . S
C425 C409 1.429 . S
C425 C421 1.429 . S
C425 C426 1.523 . S
C426 C410 1.368 . S
C426 C422 1.368 . S
C426 C425 1.523 . S
H427 C402 0.950 . S
H428 C404 0.950 . S
H429 C405 0.949 . S
H430 C407 0.950 . S
H431 C409 0.950 . S
C432 C433 1.349 . S
C432 C434 1.327 . S
C432 H457 0.950 . S
C433 C432 1.349 . S
C433 C449 1.349 . S
C434 C432 1.327 . S
C434 C453 1.429 . S
C434 H458 0.950 . S
C435 C452 1.574 . S
C435 C454 1.368 . S
C435 H459 0.949 . S
H436 C440 0.949 . S
C437 C438 1.349 . S
C437 C439 1.327 . S
C437 H460 0.950 . S
C438 C437 1.349 . S
C438 C450 1.349 . S
C439 C437 1.327 . S
C439 C455 1.429 . S
C439 H461 0.950 . S
C440 H436 0.949 . S
C440 C448 1.574 . S
C440 C456 1.368 . S
H441 C449 0.950 . S
H442 C447 0.950 . S
H443 C448 0.949 . S
H444 C450 0.950 . S
H445 C451 0.950 . S
H446 C452 0.949 . S
C447 H442 0.950 . S
C447 C449 1.327 . S
C447 C453 1.429 . S
C448 C440 1.574 . S
C448 H443 0.949 . S
C448 C454 1.368 . S
C449 C433 1.349 . S
C449 H441 0.950 . S
C449 C447 1.327 . S
C450 C438 1.349 . S
C450 H444 0.950 . S
C450 C451 1.327 . S
C451 H445 0.950 . S
C451 C450 1.327 . S
C451 C455 1.429 . S
C452 C435 1.574 . S
C452 H446 0.949 . S
C452 C456 1.368 . S
C453 C434 1.429 . S
C453 C447 1.429 . S
C453 C454 1.523 . S
C454 C435 1.368 . S
C454 C448 1.368 . S
C454 C453 1.523 . S
C455 C439 1.429 . S
C455 C451 1.429 . S
C455 C456 1.523 . S
C456 C440 1.368 . S
C456 C452 1.368 . S
C456 C455 1.523 . S
H457 C432 0.950 . S
H458 C434 0.950 . S
H459 C435 0.949 . S
H460 C437 0.950 . S
H461 C439 0.950 . S
C462 C463 1.349 . S
C462 C464 1.327 . S
C462 H487 0.950 . S
C463 C462 1.349 . S
C463 C479 1.349 . S
C464 C462 1.327 . S
C464 C483 1.429 . S
C464 H488 0.950 . S
C465 C482 1.574 . S
C465 C484 1.368 . S
C465 H489 0.949 . S
H466 C470 0.949 . S
C467 C468 1.349 . S
C467 C469 1.327 . S
C467 H490 0.950 . S
C468 C467 1.349 . S
C468 C480 1.349 . S
C469 C467 1.327 . S
C469 C485 1.429 . S
C469 H491 0.950 . S
C470 H466 0.949 . S
C470 C478 1.574 . S
C470 C486 1.368 . S
H471 C479 0.950 . S
H472 C477 0.950 . S
H473 C478 0.949 . S
H474 C480 0.950 . S
H475 C481 0.950 . S
H476 C482 0.949 . S
C477 H472 0.950 . S
C477 C479 1.327 . S
C477 C483 1.429 . S
C478 C470 1.574 . S
C478 H473 0.949 . S
C478 C484 1.368 . S
C479 C463 1.349 . S
C479 H471 0.950 . S
C479 C477 1.327 . S
C480 C468 1.349 . S
C480 H474 0.950 . S
C480 C481 1.327 . S
C481 H475 0.950 . S
C481 C480 1.327 . S
C481 C485 1.429 . S
C482 C465 1.574 . S
C482 H476 0.949 . S
C482 C486 1.368 . S
C483 C464 1.429 . S
C483 C477 1.429 . S
C483 C484 1.523 . S
C484 C465 1.368 . S
C484 C478 1.368 . S
C484 C483 1.523 . S
C485 C469 1.429 . S
C485 C481 1.429 . S
C485 C486 1.523 . S
C486 C470 1.368 . S
C486 C482 1.368 . S
C486 C485 1.523 . S
H487 C462 0.950 . S
H488 C464 0.950 . S
H489 C465 0.949 . S
H490 C467 0.950 . S
H491 C469 0.950 . S
C492 C493 1.349 . S
C492 C494 1.327 . S
C492 H517 0.950 . S
C493 C492 1.349 . S
C493 C509 1.349 1_455 S
C494 C492 1.327 . S
C494 C513 1.429 . S
C494 H518 0.950 . S
C495 C512 1.574 . S
C495 C514 1.368 1_655 S
C495 H519 0.949 . S
H496 C500 0.949 . S
C497 C498 1.349 1_655 S
C497 C499 1.327 . S
C497 H520 0.950 . S
C498 C497 1.349 1_455 S
C498 C510 1.349 . S
C499 C497 1.327 . S
C499 C515 1.429 1_655 S
C499 H521 0.950 . S
C500 H496 0.949 . S
C500 C508 1.574 . S
C500 C516 1.368 1_554 S
H501 C509 0.950 . S
H502 C507 0.950 . S
H503 C508 0.949 . S
H504 C510 0.950 . S
H505 C511 0.950 . S
H506 C512 0.949 1_556 S
C507 H502 0.950 . S
C507 C509 1.327 . S
C507 C513 1.429 1_655 S
C508 C500 1.574 . S
C508 H503 0.949 . S
C508 C514 1.368 . S
C509 C493 1.349 1_655 S
C509 H501 0.950 . S
C509 C507 1.327 . S
C510 C498 1.349 . S
C510 H504 0.950 . S
C510 C511 1.327 . S
C511 H505 0.950 . S
C511 C510 1.327 . S
C511 C515 1.429 . S
C512 C495 1.574 . S
C512 H506 0.949 1_554 S
C512 C516 1.368 1_654 S
C513 C494 1.429 . S
C513 C507 1.429 1_455 S
C513 C514 1.523 . S
C514 C495 1.368 1_455 S
C514 C508 1.368 . S
C514 C513 1.523 . S
C515 C499 1.429 1_455 S
C515 C511 1.429 . S
C515 C516 1.523 . S
C516 C500 1.368 1_556 S
C516 C512 1.368 1_456 S
C516 C515 1.523 . S
H517 C492 0.950 . S
H518 C494 0.950 . S
H519 C495 0.949 . S
H520 C497 0.950 . S
H521 C499 0.950 . S
C522 C523 1.349 . S
C522 C524 1.327 . S
C522 H547 0.950 1_545 S
C523 C522 1.349 . S
C523 C539 1.349 . S
C524 C522 1.327 . S
C524 C543 1.429 . S
C524 H548 0.950 1_545 S
C525 C542 1.574 . S
C525 C544 1.368 . S
C525 H549 0.949 . S
H526 C530 0.949 1_565 S
C527 C528 1.349 . S
C527 C529 1.327 . S
C527 H550 0.950 . S
C528 C527 1.349 . S
C528 C540 1.349 . S
C529 C527 1.327 . S
C529 C545 1.429 . S
C529 H551 0.950 . S
C530 H526 0.949 1_545 S
C530 C538 1.574 . S
C530 C546 1.368 . S
H531 C539 0.950 . S
H532 C537 0.950 . S
H533 C538 0.949 1_565 S
H534 C540 0.950 . S
H535 C541 0.950 1_565 S
H536 C542 0.949 . S
C537 H532 0.950 . S
C537 C539 1.327 . S
C537 C543 1.429 . S
C538 C530 1.574 . S
C538 H533 0.949 1_545 S
C538 C544 1.368 . S
C539 C523 1.349 . S
C539 H531 0.950 . S
C539 C537 1.327 . S
C540 C528 1.349 . S
C540 H534 0.950 . S
C540 C541 1.327 . S
C541 H535 0.950 1_545 S
C541 C540 1.327 . S
C541 C545 1.429 . S
C542 C525 1.574 . S
C542 H536 0.949 . S
C542 C546 1.368 . S
C543 C524 1.429 . S
C543 C537 1.429 . S
C543 C544 1.523 . S
C544 C525 1.368 . S
C544 C538 1.368 . S
C544 C543 1.523 . S
C545 C529 1.429 . S
C545 C541 1.429 . S
C545 C546 1.523 . S
C546 C530 1.368 . S
C546 C542 1.368 . S
C546 C545 1.523 . S
H547 C522 0.950 1_565 S
H548 C524 0.950 1_565 S
H549 C525 0.949 . S
H550 C527 0.950 . S
H551 C529 0.950 . S
C552 C553 1.349 . S
C552 C554 1.327 . S
C552 H577 0.950 . S
C553 C552 1.349 . S
C553 C569 1.349 . S
C554 C552 1.327 . S
C554 C573 1.429 . S
C554 H578 0.950 . S
C555 C572 1.574 . S
C555 C574 1.368 . S
C555 H579 0.949 . S
H556 C560 0.949 . S
C557 C558 1.349 . S
C557 C559 1.327 . S
C557 H580 0.950 . S
C558 C557 1.349 . S
C558 C570 1.349 . S
C559 C557 1.327 . S
C559 C575 1.429 . S
C559 H581 0.950 . S
C560 H556 0.949 . S
C560 C568 1.574 . S
C560 C576 1.368 . S
H561 C569 0.950 . S
H562 C567 0.950 . S
H563 C568 0.949 . S
H564 C570 0.950 . S
H565 C571 0.950 . S
H566 C572 0.949 . S
C567 H562 0.950 . S
C567 C569 1.327 . S
C567 C573 1.429 . S
C568 C560 1.574 . S
C568 H563 0.949 . S
C568 C574 1.368 . S
C569 C553 1.349 . S
C569 H561 0.950 . S
C569 C567 1.327 . S
C570 C558 1.349 . S
C570 H564 0.950 . S
C570 C571 1.327 . S
C571 H565 0.950 . S
C571 C570 1.327 . S
C571 C575 1.429 . S
C572 C555 1.574 . S
C572 H566 0.949 . S
C572 C576 1.368 . S
C573 C554 1.429 . S
C573 C567 1.429 . S
C573 C574 1.523 . S
C574 C555 1.368 . S
C574 C568 1.368 . S
C574 C573 1.523 . S
C575 C559 1.429 . S
C575 C571 1.429 . S
C575 C576 1.523 . S
C576 C560 1.368 . S
C576 C572 1.368 . S
C576 C575 1.523 . S
H577 C552 0.950 . S
H578 C554 0.950 . S
H579 C555 0.949 . S
H580 C557 0.950 . S
H581 C559 0.950 . S
C582 C583 1.349 . S
C582 C584 1.327 . S
C582 H607 0.950 1_545 S
C583 C582 1.349 . S
C583 C599 1.349 . S
C584 C582 1.327 . S
C584 C603 1.429 . S
C584 H608 0.950 1_545 S
C585 C602 1.574 . S
C585 C604 1.368 . S
C585 H609 0.949 . S
H586 C590 0.949 1_565 S
C587 C588 1.349 . S
C587 C589 1.327 . S
C587 H610 0.950 . S
C588 C587 1.349 . S
C588 C600 1.349 . S
C589 C587 1.327 . S
C589 C605 1.429 . S
C589 H611 0.950 . S
C590 H586 0.949 1_545 S
C590 C598 1.574 . S
C590 C606 1.368 . S
H591 C599 0.950 . S
H592 C597 0.950 . S
H593 C598 0.949 1_565 S
H594 C600 0.950 1_565 S
H595 C601 0.950 1_565 S
H596 C602 0.949 . S
C597 H592 0.950 . S
C597 C599 1.327 . S
C597 C603 1.429 . S
C598 C590 1.574 . S
C598 H593 0.949 1_545 S
C598 C604 1.368 . S
C599 C583 1.349 . S
C599 H591 0.950 . S
C599 C597 1.327 . S
C600 C588 1.349 . S
C600 H594 0.950 1_545 S
C600 C601 1.327 . S
C601 H595 0.950 1_545 S
C601 C600 1.327 . S
C601 C605 1.429 . S
C602 C585 1.574 . S
C602 H596 0.949 . S
C602 C606 1.368 . S
C603 C584 1.429 . S
C603 C597 1.429 . S
C603 C604 1.523 . S
C604 C585 1.368 . S
C604 C598 1.368 . S
C604 C603 1.523 . S
C605 C589 1.429 . S
C605 C601 1.429 . S
C605 C606 1.523 . S
C606 C590 1.368 . S
C606 C602 1.368 . S
C606 C605 1.523 . S
H607 C582 0.950 1_565 S
H608 C584 0.950 1_565 S
H609 C585 0.949 . S
H610 C587 0.950 . S
H611 C589 0.950 . S
C612 C613 1.349 . S
C612 C614 1.327 . S
C612 H637 0.950 . S
C613 C612 1.349 . S
C613 C629 1.349 . S
C614 C612 1.327 . S
C614 C633 1.429 . S
C614 H638 0.950 . S
C615 C632 1.574 . S
C615 C634 1.368 . S
C615 H639 0.949 . S
H616 C620 0.949 1_554 S
C617 C618 1.349 . S
C617 C619 1.327 . S
C617 H640 0.950 . S
C618 C617 1.349 . S
C618 C630 1.349 . S
C619 C617 1.327 . S
C619 C635 1.429 . S
C619 H641 0.950 . S
C620 H616 0.949 1_556 S
C620 C628 1.574 . S
C620 C636 1.368 1_556 S
H621 C629 0.950 . S
H622 C627 0.950 . S
H623 C628 0.949 . S
H624 C630 0.950 . S
H625 C631 0.950 . S
H626 C632 0.949 1_554 S
C627 H622 0.950 . S
C627 C629 1.327 . S
C627 C633 1.429 . S
C628 C620 1.574 . S
C628 H623 0.949 . S
C628 C634 1.368 . S
C629 C613 1.349 . S
C629 H621 0.950 . S
C629 C627 1.327 . S
C630 C618 1.349 . S
C630 H624 0.950 . S
C630 C631 1.327 . S
C631 H625 0.950 . S
C631 C630 1.327 . S
C631 C635 1.429 . S
C632 C615 1.574 . S
C632 H626 0.949 1_556 S
C632 C636 1.368 1_556 S
C633 C614 1.429 . S
C633 C627 1.429 . S
C633 C634 1.523 . S
C634 C615 1.368 . S
C634 C628 1.368 . S
C634 C633 1.523 . S
C635 C619 1.429 . S
C635 C631 1.429 . S
C635 C636 1.523 . S
C636 C620 1.368 1_554 S
C636 C632 1.368 1_554 S
C636 C635 1.523 . S
H637 C612 0.950 . S
H638 C614 0.950 . S
H639 C615 0.949 . S
H640 C617 0.950 . S
H641 C619 0.950 . S
C642 C643 1.349 . S
C642 C644 1.327 . S
C642 H667 0.950 . S
C643 C642 1.349 . S
C643 C659 1.349 . S
C644 C642 1.327 . S
C644 C663 1.429 . S
C644 H668 0.950 . S
C645 C662 1.574 . S
C645 C664 1.368 . S
C645 H669 0.949 . S
H646 C650 0.949 . S
C647 C648 1.349 . S
C647 C649 1.327 . S
C647 H670 0.950 . S
C648 C647 1.349 . S
C648 C660 1.349 . S
C649 C647 1.327 . S
C649 C665 1.429 . S
C649 H671 0.950 . S
C650 H646 0.949 . S
C650 C658 1.574 . S
C650 C666 1.368 . S
H651 C659 0.950 . S
H652 C657 0.950 . S
H653 C658 0.949 . S
H654 C660 0.950 . S
H655 C661 0.950 . S
H656 C662 0.949 . S
C657 H652 0.950 . S
C657 C659 1.327 . S
C657 C663 1.429 . S
C658 C650 1.574 . S
C658 H653 0.949 . S
C658 C664 1.368 . S
C659 C643 1.349 . S
C659 H651 0.950 . S
C659 C657 1.327 . S
C660 C648 1.349 . S
C660 H654 0.950 . S
C660 C661 1.327 . S
C661 H655 0.950 . S
C661 C660 1.327 . S
C661 C665 1.429 . S
C662 C645 1.574 . S
C662 H656 0.949 . S
C662 C666 1.368 . S
C663 C644 1.429 . S
C663 C657 1.429 . S
C663 C664 1.523 . S
C664 C645 1.368 . S
C664 C658 1.368 . S
C664 C663 1.523 . S
C665 C649 1.429 . S
C665 C661 1.429 . S
C665 C666 1.523 . S
C666 C650 1.368 . S
C666 C662 1.368 . S
C666 C665 1.523 . S
H667 C642 0.950 . S
H668 C644 0.950 . S
H669 C645 0.949 . S
H670 C647 0.950 . S
H671 C649 0.950 . S
C133 C2 1.618 . S
C138 C126 1.702 . S
C163 C22 1.400 . S
C168 C100 1.447 . S
C193 C44 1.433 . S
C198 C112 1.477 . S
C223 C4 1.227 . S
C228 C124 1.262 . S
C258 C102 1.480 . S
C253 C24 1.402 . S
C288 C114 1.440 . S
C283 C42 1.354 . S
C313 C32 1.393 . S
C318 C76 1.376 . S
C343 C49 1.511 . S
C348 C90 1.526 . S
C373 C9 1.083 . S
C378 C66 1.099 1_565 S
C408 C78 1.114 . S
C403 C29 1.082 . S
C438 C88 1.003 . S
C433 C52 0.995 . S
C463 C12 1.293 . S
C468 C64 1.302 . S
C498 C93 1.498 . S
C493 C18 1.484 . S
C523 C38 1.474 . S
C528 C69 1.474 . S
C553 C58 1.462 . S
C558 C81 1.497 . S
C588 C117 1.517 . S
C583 C39 1.506 . S
C618 C129 1.572 . S
C613 C59 1.554 . S
C643 C19 1.503 . S
C648 C105 1.521 . S
