# Generated by pormake.
# Topology pth, (4,4)-cn, num edge types: 1
# Building blocks:
#     Node 0, Type 0, BuildingBlock: GALJAG_clean_sbu_0, # of connection points: 4
#     Node 1, Type 0, BuildingBlock: GALJAG_clean_sbu_0, # of connection points: 4
#     Node 2, Type 0, BuildingBlock: GALJAG_clean_sbu_0, # of connection points: 4
#     Node 3, Type 1, BuildingBlock: MIFKUJ_clean_linker_1, # of connection points: 4
#     Node 4, Type 1, BuildingBlock: MIFKUJ_clean_linker_1, # of connection points: 4
#     Node 5, Type 1, BuildingBlock: MIFKUJ_clean_linker_1, # of connection points: 4
#     Edge 6, Type (0, 1), BuildingBlock: XIVTED_clean_linker_0, # of connection points: 2
#     Edge 7, Type (0, 1), BuildingBlock: XIVTED_clean_linker_0, # of connection points: 2
#     Edge 8, Type (0, 1), BuildingBlock: XIVTED_clean_linker_0, # of connection points: 2
#     Edge 9, Type (0, 1), BuildingBlock: XIVTED_clean_linker_0, # of connection points: 2
#     Edge 10, Type (0, 1), BuildingBlock: XIVTED_clean_linker_0, # of connection points: 2
#     Edge 11, Type (0, 1), BuildingBlock: XIVTED_clean_linker_0, # of connection points: 2
#     Edge 12, Type (0, 1), BuildingBlock: XIVTED_clean_linker_0, # of connection points: 2
#     Edge 13, Type (0, 1), BuildingBlock: XIVTED_clean_linker_0, # of connection points: 2
#     Edge 14, Type (0, 1), BuildingBlock: XIVTED_clean_linker_0, # of connection points: 2
#     Edge 15, Type (0, 1), BuildingBlock: XIVTED_clean_linker_0, # of connection points: 2
#     Edge 16, Type (0, 1), BuildingBlock: XIVTED_clean_linker_0, # of connection points: 2
#     Edge 17, Type (0, 1), BuildingBlock: XIVTED_clean_linker_0, # of connection points: 2
# Relax obj value: 0.002
# Max RMSD: 0.043
# Mean RMSD: 0.028
data_MOF--net-pth--node1-GALJAG_clean_sbu_0--node2-MIFKUJ_clean_linker_1--edge1-XIVTED_clean_linker_0
_symmetry_space_group_name_H-M    P1
_symmetry_Int_Tables_number       1
_symmetry_cell_setting            triclinic
loop_
_symmetry_equiv_pos_as_xyz
'x, y, z'
_cell_length_a     30.362274
_cell_length_b     30.363898
_cell_length_c     62.543046
_cell_angle_alpha  90.214782
_cell_angle_beta   90.098653
_cell_angle_gamma 120.01308
loop_
_atom_site_label
_atom_site_type_symbol
_atom_site_fract_x
_atom_site_fract_y
_atom_site_fract_z
_atom_type_partial_charge
In0 In 0.001 -0.0015 0.03726 0.0
O1 O 0.97723 0.05919 0.04036 0.0
O2 O -0.00183 0.03524 0.06852 0.0
C3 C 0.92409 0.928 0.01307 0.0
C4 C 0.08142 0.06137 0.01279 0.0
C5 C 0.01293 0.93662 0.0644 0.0
O6 O 0.92082 0.96291 0.02268 0.0
O7 O 0.96568 0.92894 0.01573 0.0
O8 O 0.04543 0.96159 0.05018 0.0
O9 O 0.97507 0.94319 0.06487 0.0
C10 C 0.98387 0.06386 0.06036 0.0
O11 O 0.08457 0.06005 0.03286 0.0
O12 O 0.03834 0.03054 0.00517 0.0
In13 In -0.00426 -0.00128 0.36937 0.0
O14 O 0.03474 0.07866 0.35521 0.0
O15 O 0.96069 0.02503 0.34391 0.0
C16 C 0.07117 0.00733 0.39517 0.0
C17 C 0.92556 0.99558 0.39661 0.0
C18 C 0.98644 0.92427 0.34272 0.0
O19 O 0.07925 0.03748 0.3799 0.0
O20 O 0.02532 0.97335 0.39743 0.0
O21 O 0.95682 0.91553 0.35828 0.0
O22 O 0.02021 0.97025 0.34061 0.0
C23 C -0.00191 0.06968 0.3429 0.0
O24 O 0.91619 0.95935 0.38395 0.0
O25 O 0.97024 0.03293 0.39558 0.0
In26 In -0.0048 0.99562 0.7035 0.0
O27 O 0.95957 0.91818 0.72006 0.0
O28 O 0.93051 0.96727 0.72736 0.0
C29 C 0.06186 0.9906 0.67654 0.0
C30 C 0.93054 0.00141 0.67555 0.0
C31 C 0.06022 0.06588 0.73158 0.0
O32 O 0.02961 0.95244 0.68693 0.0
O33 O 0.06001 0.0307 0.67965 0.0
O34 O 0.0329 0.07463 0.71901 0.0
O35 O 0.05422 0.02177 0.73009 0.0
C36 C 0.92777 0.92497 0.73045 0.0
O37 O 0.95838 0.03759 0.68806 0.0
O38 O 0.93596 0.96296 0.67698 0.0
H39 H 0.06542 0.46473 0.15981 0.0
H40 H 0.05824 0.39522 0.13734 0.0
H41 H 0.92002 0.29009 0.17001 0.0
H42 H 0.92664 0.35966 0.19209 0.0
H43 H 0.00991 0.50588 0.16323 0.0
H44 H 0.06638 0.42781 0.21289 0.0
H45 H 0.06799 0.3607 0.23378 0.0
H46 H 0.92587 0.32641 0.26336 0.0
H47 H 0.92396 0.39292 0.2421 0.0
H48 H 0.91557 0.52572 0.23787 0.0
H49 H 0.90896 0.59037 0.25874 0.0
H50 H 0.06194 0.70198 0.24016 0.0
H51 H 0.06755 0.63731 0.21891 0.0
H52 H 0.98671 0.4924 0.24191 0.0
H53 H 0.93269 0.57119 0.18728 0.0
H54 H 0.93986 0.64262 0.16667 0.0
H55 H 0.09333 0.68355 0.14895 0.0
H56 H 0.08496 0.61088 0.16905 0.0
C57 C -0.00301 0.4174 0.17788 0.0
C58 C 0.03353 0.42673 0.16212 0.0
C59 C 0.02933 0.38706 0.14926 0.0
C60 C 0.98862 0.33726 0.15197 0.0
C61 C 0.95217 0.32795 0.16776 0.0
C62 C 0.95607 0.36769 0.18046 0.0
C63 C 0.00015 0.45985 0.19096 0.0
C64 C 0.00573 0.50314 0.18048 0.0
C65 C -0.00547 0.45656 0.21347 0.0
C66 C -0.00517 0.4151 0.22582 0.0
C67 C 0.03531 0.40549 0.22372 0.0
C68 C 0.03643 0.36745 0.2358 0.0
C69 C -0.00294 0.33829 0.25022 0.0
C70 C 0.95646 0.34785 0.25221 0.0
C71 C 0.95549 0.38607 0.2402 0.0
C72 C 0.99189 0.57685 0.22676 0.0
C73 C 0.94761 0.56418 0.23832 0.0
C74 C 0.94401 0.60116 0.25031 0.0
C75 C 0.9849 0.65149 0.25115 0.0
C76 C 0.02935 0.6639 0.23959 0.0
C77 C 0.03277 0.62694 0.2275 0.0
C78 C -0.00469 0.53741 0.21407 0.0
C79 C 0.99115 0.4949 0.22467 0.0
C80 C 0.00363 0.54201 0.19177 0.0
C81 C 0.00836 0.58598 0.17972 0.0
C82 C 0.9679 0.59576 0.17901 0.0
C83 C 0.97224 0.63683 0.16731 0.0
C84 C 0.01728 0.66908 0.15616 0.0
C85 C 0.05784 0.65916 0.15705 0.0
C86 C 0.05326 0.61781 0.16861 0.0
H87 H 0.60354 0.07209 0.49694 0.0
H88 H 0.67022 0.0694 0.47602 0.0
H89 H 0.63268 0.92611 0.50524 0.0
H90 H 0.56545 0.92856 0.52578 0.0
H91 H 0.50197 0.00758 0.49684 0.0
H92 H 0.63608 0.07165 0.54807 0.0
H93 H 0.70554 0.074 0.56885 0.0
H94 H 0.59948 0.93044 0.59776 0.0
H95 H 0.5303 0.92784 0.57658 0.0
H96 H 0.39383 0.92564 0.57619 0.0
H97 H 0.32568 0.92412 0.59742 0.0
H98 H 0.352 0.06283 0.56697 0.0
H99 H 0.42191 0.06559 0.54676 0.0
H100 H 0.49253 0.99206 0.57587 0.0
H101 H 0.35819 0.92979 0.52192 0.0
H102 H 0.29222 0.93236 0.50045 0.0
H103 H 0.4029 0.08186 0.47778 0.0
H104 H 0.46881 0.0781 0.49878 0.0
C105 C 0.57981 0.00073 0.51301 0.0
C106 C 0.60972 0.04013 0.49882 0.0
C107 C 0.64802 0.03871 0.487 0.0
C108 C 0.65676 -0.00242 0.48902 0.0
C109 C 0.62659 0.95808 0.50321 0.0
C110 C 0.58848 0.95965 0.51509 0.0
C111 C 0.53873 0.0019 0.52533 0.0
C112 C 0.50022 0.00482 0.51415 0.0
C113 C 0.5362 -0.00219 0.54786 0.0
C114 C 0.57812 -0.00068 0.56064 0.0
C115 C 0.62788 0.04052 0.55878 0.0
C116 C 0.66744 0.04203 0.57079 0.0
C117 C 0.658 0.00237 0.58491 0.0
C118 C 0.60806 0.96126 0.58682 0.0
C119 C 0.56845 0.9599 0.57486 0.0
C120 C 0.41269 0.99541 0.5597 0.0
C121 C 0.38497 0.95579 0.57415 0.0
C122 C 0.34561 0.9547 0.58612 0.0
C123 C 0.33309 0.99326 0.58388 0.0
C124 C 0.36088 0.03281 0.56932 0.0
C125 C 0.40051 0.03409 0.5575 0.0
C126 C 0.45518 -0.00311 0.54737 0.0
C127 C 0.49413 0.99463 0.55857 0.0
C128 C 0.45846 0.00227 0.52486 0.0
C129 C 0.41827 0.00384 0.51199 0.0
C130 C 0.36809 0.9631 0.51234 0.0
C131 C 0.33038 0.96481 0.50013 0.0
C132 C 0.34211 0.00741 0.48738 0.0
C133 C 0.39257 0.04813 0.48711 0.0
C134 C 0.43029 0.04618 0.49919 0.0
H135 H 0.46058 0.39336 0.82962 0.0
H136 H 0.39042 0.32636 0.80891 0.0
H137 H 0.28476 0.35981 0.84121 0.0
H138 H 0.35523 0.4273 0.86164 0.0
H139 H 0.49603 0.49429 0.83105 0.0
H140 H 0.42631 0.35644 0.8794 0.0
H141 H 0.36439 0.28705 0.90164 0.0
H142 H 0.33756 0.39367 0.93711 0.0
H143 H 0.39886 0.46288 0.91459 0.0
H144 H 0.52542 0.59856 0.91151 0.0
H145 H 0.59184 0.66566 0.93343 0.0
H146 H 0.70472 0.64171 0.90177 0.0
H147 H 0.63769 0.57294 0.88065 0.0
H148 H 0.49584 0.49997 0.91029 0.0
H149 H 0.57004 0.63894 0.86003 0.0
H150 H 0.63963 0.70566 0.83954 0.0
H151 H 0.6624 0.59199 0.80767 0.0
H152 H 0.59457 0.52586 0.82905 0.0
C153 C 0.41307 0.41506 0.84726 0.0
C154 C 0.4223 0.38627 0.83221 0.0
C155 C 0.38215 0.34779 0.82052 0.0
C156 C 0.33206 0.33773 0.82349 0.0
C157 C 0.32298 0.36691 0.83846 0.0
C158 C 0.36312 0.40518 0.85025 0.0
C159 C 0.45578 0.45597 0.8596 0.0
C160 C 0.4963 0.49529 0.84839 0.0
C161 C 0.45586 0.45738 0.88221 0.0
C162 C 0.41681 0.41485 0.89513 0.0
C163 C 0.40646 0.36479 0.89171 0.0
C164 C 0.37121 0.32518 0.90447 0.0
C165 C 0.34625 0.33499 0.92113 0.0
C166 C 0.35667 0.38509 0.92455 0.0
C167 C 0.39155 0.4246 0.91165 0.0
C168 C 0.5766 0.58099 0.89432 0.0
C169 C 0.56451 0.60776 0.90932 0.0
C170 C 0.60262 0.64648 0.9217 0.0
C171 C 0.65371 0.65925 0.91934 0.0
C172 C 0.66573 0.63251 0.90419 0.0
C173 C 0.62751 0.59355 0.89191 0.0
C174 C 0.53552 0.53887 0.88177 0.0
C175 C 0.49538 0.49914 0.89295 0.0
C176 C 0.53624 0.53676 0.85915 0.0
C177 C 0.57751 0.57743 0.8463 0.0
C178 C 0.59044 0.62848 0.84881 0.0
C179 C 0.62991 0.66656 0.83688 0.0
C180 C 0.65681 0.6543 0.82195 0.0
C181 C 0.6432 0.60299 0.81927 0.0
C182 C 0.60401 0.56502 0.83133 0.0
H183 H 0.97366 0.14376 0.04631 0.0
H184 H 0.96658 0.24226 0.16452 0.0
H185 H 0.98195 0.06988 0.10374 0.0
H186 H 0.00024 0.3363 0.10856 0.0
H187 H 0.96014 0.17333 0.14194 0.0
H188 H 0.97122 0.20944 0.06844 0.0
C189 C 0.97447 0.14113 0.06356 0.0
C190 C 0.97824 0.10154 0.07324 0.0
C191 C 0.96887 0.20903 0.13459 0.0
C192 C 0.97546 0.17619 0.09854 0.0
C193 C 0.97231 0.24825 0.14745 0.0
C194 C 0.98414 0.29508 0.13839 0.0
C195 C 0.97689 0.21647 0.11247 0.0
C196 C 0.99166 0.30097 0.1162 0.0
C197 C 0.97334 0.17868 0.07615 0.0
C198 C 0.97932 0.09993 0.09564 0.0
N199 N 0.98783 0.26208 0.10398 0.0
N200 N 0.97797 0.13673 0.10752 0.0
H201 H 0.93597 0.07147 0.42333 0.0
H202 H 0.65108 0.91586 0.46768 0.0
H203 H 0.82769 0.91875 0.40298 0.0
H204 H 0.75354 0.07486 0.48106 0.0
H205 H 0.71713 0.91399 0.44602 0.0
H206 H 0.87135 0.07125 0.4466 0.0
C207 C 0.89859 0.0378 0.42381 0.0
C208 C 0.88709 0.99509 0.41117 0.0
C209 C 0.72518 0.94928 0.45371 0.0
C210 C 0.81289 0.99457 0.43777 0.0
C211 C 0.68761 0.9503 0.46618 0.0
C212 C 0.69679 0.99563 0.47616 0.0
C213 C 0.77242 0.99385 0.45128 0.0
C214 C 0.7446 0.03926 0.47344 0.0
C215 C 0.86168 0.03774 0.43707 0.0
C216 C 0.83808 0.95252 0.41243 0.0
N217 N 0.78061 0.03727 0.46128 0.0
N218 N 0.80274 0.95334 0.42549 0.0
H219 H 0.84977 0.9279 0.75059 0.0
H220 H 0.74727 0.66152 0.80983 0.0
H221 H 0.91813 0.83389 0.74268 0.0
H222 H 0.66154 0.73947 0.80452 0.0
H223 H 0.81417 0.72747 0.78793 0.0
H224 H 0.78487 0.86279 0.77339 0.0
C225 C 0.85121 0.89357 0.75372 0.0
C226 C 0.88932 0.88619 0.7447 0.0
C227 C 0.78069 0.73007 0.79158 0.0
C228 C 0.81512 0.81149 0.77083 0.0
C229 C 0.7423 0.69229 0.804 0.0
C230 C 0.69846 0.69472 0.80903 0.0
C231 C 0.77547 0.77085 0.78423 0.0
C232 C 0.69484 0.73622 0.80135 0.0
C233 C 0.81405 0.85635 0.76669 0.0
C234 C 0.88932 0.84099 0.74928 0.0
N235 N 0.73279 0.77257 0.78937 0.0
N236 N 0.85277 0.80531 0.76206 0.0
H237 H 0.95725 0.89281 0.10012 0.0
H238 H 0.06455 0.70433 0.11742 0.0
H239 H 0.07881 0.89975 0.06197 0.0
H240 H 0.97943 0.73232 0.16553 0.0
H241 H 0.06809 0.77321 0.0961 0.0
H242 H 0.96195 0.8309 0.12338 0.0
C243 C 0.98509 0.88141 0.0967 0.0
C244 C 0.01761 0.90126 0.07908 0.0
C245 C 0.04892 0.76442 0.11139 0.0
C246 C 0.02292 0.83011 0.10553 0.0
C247 C 0.04705 0.72521 0.12365 0.0
C248 C 0.02143 0.71217 0.14333 0.0
C249 C 0.02454 0.79049 0.1187 0.0
C250 C -0.00129 0.74018 0.1503 0.0
C251 C 0.98785 0.84618 0.11002 0.0
C252 C 0.05309 0.88534 0.07542 0.0
N253 N 0.00052 0.77773 0.13795 0.0
N254 N 0.05453 0.85029 0.08844 0.0
H255 H 0.17418 0.06667 0.39002 0.0
H256 H 0.24198 0.97183 0.49776 0.0
H257 H 0.0609 0.95515 0.43195 0.0
H258 H 0.35054 0.0473 0.44717 0.0
H259 H 0.17641 0.97346 0.47572 0.0
H260 H 0.24091 0.06877 0.41286 0.0
C261 C 0.16339 0.04283 0.40408 0.0
C262 C 0.11201 0.01058 0.40909 0.0
C263 C 0.21461 0.98968 0.46947 0.0
C264 C 0.1879 0.0129 0.43526 0.0
C265 C 0.25208 0.98851 0.482 0.0
C266 C 0.30199 0.00922 0.47433 0.0
C267 C 0.22707 0.01207 0.44915 0.0
C268 C 0.31286 0.03143 0.45392 0.0
C269 C 0.20143 0.04391 0.41706 0.0
C270 C 0.10008 0.98042 0.42747 0.0
N271 N 0.27574 0.03227 0.44206 0.0
N272 N 0.13774 0.98237 0.43991 0.0
H273 H 0.12674 0.05678 0.758 0.0
H274 H 0.25324 0.3413 0.80371 0.0
H275 H 0.0792 0.163 0.73873 0.0
H276 H 0.31417 0.2418 0.81461 0.0
H277 H 0.18462 0.27432 0.78235 0.0
H278 H 0.19105 0.12202 0.7813 0.0
C279 C 0.12971 0.09382 0.75875 0.0
C280 C 0.0977 0.10457 0.74637 0.0
C281 C 0.21297 0.26714 0.78943 0.0
C282 C 0.17134 0.17954 0.77301 0.0
C283 C 0.25196 0.30523 0.80173 0.0
C284 C 0.28957 0.29715 0.81089 0.0
C285 C 0.21136 0.22049 0.7864 0.0
C286 C 0.28637 0.24989 0.8076 0.0
C287 C 0.16653 0.1311 0.77202 0.0
C288 C 0.10321 0.15319 0.74797 0.0
N289 N 0.24797 0.21337 0.79565 0.0
N290 N 0.13941 0.18894 0.76104 0.0
H291 H 0.86371 0.92601 0.64895 0.0
H292 H 0.73485 0.08366 0.60626 0.0
H293 H 0.91138 0.07955 0.66914 0.0
H294 H 0.67697 0.9246 0.59254 0.0
H295 H 0.80345 0.08501 0.62736 0.0
H296 H 0.79885 0.92699 0.62617 0.0
C297 C 0.86067 0.96005 0.64851 0.0
C298 C 0.89288 0.00274 0.66099 0.0
C299 C 0.77576 0.04983 0.61972 0.0
C300 C 0.81856 0.00409 0.63497 0.0
C301 C 0.73675 0.04909 0.60758 0.0
C302 C 0.70005 0.0039 0.59765 0.0
C303 C 0.77828 0.00512 0.62187 0.0
C304 C 0.70403 0.9601 0.60014 0.0
C305 C 0.82353 0.96054 0.63553 0.0
C306 C 0.88725 0.04579 0.65979 0.0
N307 N 0.74244 0.96182 0.61197 0.0
N308 N 0.85071 0.04535 0.64703 0.0
H309 H 0.83445 0.92225 0.0008 0.0
H310 H 0.73603 0.65956 0.93759 0.0
H311 H 0.92063 0.84505 0.99463 0.0
H312 H 0.66321 0.75018 0.93256 0.0
H313 H 0.80134 0.72509 0.96033 0.0
H314 H 0.76801 0.85705 0.97784 0.0
C315 C 0.8393 0.89155 0.99465 0.0
C316 C 0.88306 0.88901 -0.00041 0.0
C317 C 0.77115 0.73074 0.95422 0.0
C318 C 0.80749 0.81451 0.97346 0.0
C319 C 0.73396 0.69342 0.94109 0.0
C320 C 0.69405 0.69933 0.93303 0.0
C321 C 0.76845 0.77432 0.95949 0.0
C322 C 0.69287 0.74364 0.9386 0.0
C323 C 0.80151 0.85448 0.98153 0.0
C324 C 0.88755 0.84853 0.99119 0.0
N325 N 0.72948 0.77941 0.9515 0.0
N326 N 0.85023 0.81287 0.97859 0.0
H327 H 0.03819 0.93614 0.30564 0.0
H328 H 0.94009 0.64028 0.29044 0.0
H329 H 0.92731 0.82099 0.34714 0.0
H330 H 0.02206 0.75236 0.24182 0.0
H331 H 0.93675 0.70576 0.31198 0.0
H332 H 0.0351 0.86938 0.28269 0.0
C333 C 0.01305 0.89674 0.30988 0.0
C334 C 0.98304 0.88402 0.32834 0.0
C335 C 0.95527 0.71594 0.29656 0.0
C336 C 0.97955 0.8074 0.30222 0.0
C337 C 0.957 0.6785 0.28417 0.0
C338 C 0.98154 0.69071 0.26425 0.0
C339 C 0.97859 0.76615 0.28909 0.0
C340 C 0.00354 0.74124 0.25721 0.0
C341 C 0.01123 0.85865 0.29675 0.0
C342 C 0.95105 0.8324 0.33304 0.0
N343 N 0.00174 0.77707 0.26965 0.0
N344 N 0.95038 0.79592 0.32013 0.0
H345 H 0.06907 0.90776 0.664 0.0
H346 H 0.33102 0.0746 0.6021 0.0
H347 H 0.14128 0.07053 0.65668 0.0
H348 H 0.24164 0.91113 0.59593 0.0
H349 H 0.2639 0.07339 0.62382 0.0
H350 H 0.13415 0.90761 0.64087 0.0
C351 C 0.09855 0.94341 0.65749 0.0
C352 C 0.09985 0.98923 0.66226 0.0
C353 C 0.25887 0.03777 0.61765 0.0
C354 C 0.1744 0.9894 0.63598 0.0
C355 C 0.29712 0.03843 0.60512 0.0
C356 C 0.29209 0.9929 0.59704 0.0
C357 C 0.21525 0.99122 0.62238 0.0
C358 C 0.24762 0.94714 0.60201 0.0
C359 C 0.13559 0.94329 0.64428 0.0
C360 C 0.13881 0.03432 0.65341 0.0
N361 N 0.211 0.94746 0.61439 0.0
N362 N 0.17464 0.03329 0.64079 0.0
H363 H 0.08623 0.06336 0.96926 0.0
H364 H 0.33869 0.33503 0.96473 0.0
H365 H 0.17177 0.14333 0.02552 0.0
H366 H 0.27092 0.23994 0.90914 0.0
H367 H 0.27685 0.2663 0.98731 0.0
H368 H 0.15292 0.12819 0.94695 0.0
C369 C 0.11928 0.09442 0.97691 0.0
C370 C 0.12348 0.09812 -0.00074 0.0
C371 C 0.27567 0.26037 0.97018 0.0
C372 C 0.19969 0.17274 0.97384 0.0
C373 C 0.31069 0.29969 0.95729 0.0
C374 C 0.30975 0.29322 0.93503 0.0
C375 C 0.23908 0.21439 0.96074 0.0
C376 C 0.27318 0.2464 0.92624 0.0
C377 C 0.15735 0.13141 0.96417 0.0
C378 C 0.1671 0.13907 0.00834 0.0
N379 N 0.23908 0.20889 0.93911 0.0
N380 N 0.20337 0.17508 0.99558 0.0
H381 H 0.92135 0.06015 0.31702 0.0
H382 H 0.07865 0.34364 0.27146 0.0
H383 H 0.07528 0.16726 0.33631 0.0
H384 H 0.91903 0.24236 0.2589 0.0
H385 H 0.08 0.27788 0.29346 0.0
H386 H 0.92155 0.12492 0.29393 0.0
C387 C 0.95526 0.09732 0.31635 0.0
C388 C -0.00165 0.10842 0.32862 0.0
C389 C 0.04468 0.27003 0.28588 0.0
C390 C -0.00113 0.18279 0.3022 0.0
C391 C 0.04396 0.30743 0.27322 0.0
C392 C -0.00137 0.29847 0.26335 0.0
C393 C -0.00019 0.2232 0.28862 0.0
C394 C 0.95466 0.25111 0.26642 0.0
C395 C 0.95532 0.13432 0.30319 0.0
C396 C 0.04122 0.15718 0.32714 0.0
N397 N 0.95637 0.21525 0.27875 0.0
N398 N 0.04041 0.1926 0.31416 0.0
loop_
_geom_bond_atom_site_label_1
_geom_bond_atom_site_label_2
_geom_bond_distance
_geom_bond_site_symmetry_2
_ccdc_geom_bond_type
In0 O1 2.294 1_455 S
In0 O2 2.326 . S
In0 O6 2.266 1_445 S
In0 O7 2.326 1_445 S
In0 O8 2.266 1_545 S
In0 O9 2.326 1_445 S
In0 O11 2.294 . S
In0 O12 2.326 . S
O1 In0 2.294 1_655 S
O1 C10 1.240 1_655 S
O2 In0 2.326 . S
O2 C10 1.252 . S
C3 O6 1.252 . S
C3 O7 1.260 . S
C4 O11 1.240 . S
C4 O12 1.252 . S
C5 O8 1.240 1_655 S
C5 O9 1.280 . S
O6 In0 2.266 1_665 S
O6 C3 1.252 . S
O7 In0 2.326 1_665 S
O7 C3 1.260 . S
O8 In0 2.266 1_565 S
O8 C5 1.240 1_455 S
O9 In0 2.326 1_665 S
O9 C5 1.280 . S
C10 O1 1.240 1_455 S
C10 O2 1.252 . S
O11 In0 2.294 . S
O11 C4 1.240 . S
O12 In0 2.326 . S
O12 C4 1.252 . S
In13 O14 2.294 . S
In13 O15 2.326 1_455 S
In13 O19 2.266 . S
In13 O20 2.326 1_545 S
In13 O21 2.266 1_445 S
In13 O22 2.326 1_545 S
In13 O24 2.294 1_445 S
In13 O25 2.326 1_455 S
O14 In13 2.294 . S
O14 C23 1.240 1_455 S
O15 In13 2.326 1_655 S
O15 C23 1.252 . S
C16 O19 1.252 1_565 S
C16 O20 1.260 . S
C17 O24 1.240 1_545 S
C17 O25 1.252 . S
C18 O21 1.252 1_455 S
C18 O22 1.260 . S
O19 In13 2.266 . S
O19 C16 1.252 1_545 S
O20 In13 2.326 1_565 S
O20 C16 1.260 . S
O21 In13 2.266 1_665 S
O21 C18 1.252 1_655 S
O22 In13 2.326 1_565 S
O22 C18 1.260 . S
C23 O14 1.240 1_655 S
C23 O15 1.252 . S
O24 In13 2.294 1_665 S
O24 C17 1.240 1_565 S
O25 In13 2.326 1_655 S
O25 C17 1.252 . S
In26 O27 2.283 1_445 S
In26 O28 2.328 1_445 S
In26 O32 2.255 1_545 S
In26 O33 2.327 . S
In26 O34 2.277 . S
In26 O35 2.324 . S
In26 O37 2.305 1_455 S
In26 O38 2.325 1_445 S
O27 In26 2.283 1_665 S
O27 C36 1.240 . S
O28 In26 2.328 1_665 S
O28 C36 1.252 . S
C29 O32 1.252 1_545 S
C29 O33 1.260 . S
C30 O37 1.240 1_565 S
C30 O38 1.252 . S
C31 O34 1.252 . S
C31 O35 1.260 . S
O32 In26 2.255 1_565 S
O32 C29 1.252 1_565 S
O33 In26 2.327 . S
O33 C29 1.260 . S
O34 In26 2.277 . S
O34 C31 1.252 . S
O35 In26 2.324 . S
O35 C31 1.260 . S
C36 O27 1.240 . S
C36 O28 1.252 . S
O37 In26 2.305 1_655 S
O37 C30 1.240 1_545 S
O38 In26 2.325 1_665 S
O38 C30 1.252 . S
H39 C58 0.949 . S
H40 C59 0.950 . S
H41 C61 0.950 . S
H42 C62 0.950 . S
H43 C64 0.950 . S
H44 C67 0.950 . S
H45 C68 0.950 . S
H46 C70 0.951 . S
H47 C71 0.949 . S
H48 C73 0.949 . S
H49 C74 0.950 . S
H50 C76 0.950 . S
H51 C77 0.950 . S
H52 C79 0.950 . S
H53 C82 0.950 . S
H54 C83 0.950 . S
H55 C85 0.951 . S
H56 C86 0.949 . S
C57 C58 1.376 . S
C57 C62 1.386 1_455 S
C57 C63 1.483 . S
C58 H39 0.949 . S
C58 C57 1.376 . S
C58 C59 1.397 . S
C59 H40 0.950 . S
C59 C58 1.397 . S
C59 C60 1.391 . S
C60 C59 1.391 . S
C60 C61 1.405 1_455 S
C61 H41 0.950 . S
C61 C60 1.405 1_655 S
C61 C62 1.367 . S
C62 H42 0.950 . S
C62 C57 1.386 1_655 S
C62 C61 1.367 . S
C63 C57 1.483 . S
C63 C64 1.382 . S
C63 C65 1.403 1_455 S
C64 H43 0.950 . S
C64 C63 1.382 . S
C64 C80 1.411 . S
C65 C63 1.403 1_655 S
C65 C66 1.489 . S
C65 C79 1.411 . S
C66 C65 1.489 . S
C66 C67 1.383 1_655 S
C66 C71 1.382 . S
C67 H44 0.950 . S
C67 C66 1.383 1_455 S
C67 C68 1.395 . S
C68 H45 0.950 . S
C68 C67 1.395 . S
C68 C69 1.288 1_455 S
C69 C68 1.288 1_655 S
C69 C70 1.392 . S
C70 H46 0.951 . S
C70 C69 1.392 . S
C70 C71 1.392 . S
C71 H47 0.949 . S
C71 C66 1.382 . S
C71 C70 1.392 . S
C72 C73 1.376 . S
C72 C77 1.386 1_655 S
C72 C78 1.493 . S
C73 H48 0.949 . S
C73 C72 1.376 . S
C73 C74 1.397 . S
C74 H49 0.950 . S
C74 C73 1.397 . S
C74 C75 1.383 1_655 S
C75 C74 1.383 1_455 S
C75 C76 1.422 . S
C76 H50 0.950 . S
C76 C75 1.422 . S
C76 C77 1.367 . S
C77 H51 0.950 . S
C77 C72 1.386 1_455 S
C77 C76 1.367 . S
C78 C72 1.493 . S
C78 C79 1.373 . S
C78 C80 1.400 1_655 S
C79 H52 0.950 . S
C79 C65 1.411 . S
C79 C78 1.373 . S
C80 C64 1.411 . S
C80 C78 1.400 1_455 S
C80 C81 1.489 . S
C81 C80 1.489 . S
C81 C82 1.383 1_455 S
C81 C86 1.382 . S
C82 H53 0.950 . S
C82 C81 1.383 1_655 S
C82 C83 1.395 . S
C83 H54 0.950 . S
C83 C82 1.395 . S
C83 C84 1.288 1_655 S
C84 C83 1.288 1_455 S
C84 C85 1.392 . S
C85 H55 0.951 . S
C85 C84 1.392 . S
C85 C86 1.392 . S
C86 H56 0.949 . S
C86 C81 1.382 . S
C86 C85 1.392 . S
H87 C106 0.949 . S
H88 C107 0.950 . S
H89 C109 0.950 . S
H90 C110 0.950 . S
H91 C112 0.950 . S
H92 C115 0.950 . S
H93 C116 0.950 . S
H94 C118 0.951 . S
H95 C119 0.949 . S
H96 C121 0.949 . S
H97 C122 0.950 . S
H98 C124 0.950 . S
H99 C125 0.950 . S
H100 C127 0.950 . S
H101 C130 0.950 . S
H102 C131 0.950 . S
H103 C133 0.951 . S
H104 C134 0.949 . S
C105 C106 1.376 . S
C105 C110 1.386 1_545 S
C105 C111 1.483 . S
C106 H87 0.949 . S
C106 C105 1.376 . S
C106 C107 1.397 . S
C107 H88 0.950 . S
C107 C106 1.397 . S
C107 C108 1.391 . S
C108 C107 1.391 . S
C108 C109 1.405 1_545 S
C109 H89 0.950 . S
C109 C108 1.405 1_565 S
C109 C110 1.367 . S
C110 H90 0.950 . S
C110 C105 1.386 1_565 S
C110 C109 1.367 . S
C111 C105 1.483 . S
C111 C112 1.382 . S
C111 C113 1.403 1_545 S
C112 H91 0.950 . S
C112 C111 1.382 . S
C112 C128 1.411 . S
C113 C111 1.403 1_565 S
C113 C114 1.489 . S
C113 C127 1.411 . S
C114 C113 1.489 . S
C114 C115 1.383 1_565 S
C114 C119 1.382 . S
C115 H92 0.950 . S
C115 C114 1.383 1_545 S
C115 C116 1.395 . S
C116 H93 0.950 . S
C116 C115 1.395 . S
C116 C117 1.288 1_545 S
C117 C116 1.288 1_565 S
C117 C118 1.392 . S
C118 H94 0.951 . S
C118 C117 1.392 . S
C118 C119 1.392 . S
C119 H95 0.949 . S
C119 C114 1.382 . S
C119 C118 1.392 . S
C120 C121 1.376 . S
C120 C125 1.386 1_565 S
C120 C126 1.483 . S
C121 H96 0.949 . S
C121 C120 1.376 . S
C121 C122 1.397 . S
C122 H97 0.950 . S
C122 C121 1.397 . S
C122 C123 1.388 . S
C123 C122 1.388 . S
C123 C124 1.407 1_565 S
C124 H98 0.950 . S
C124 C123 1.407 1_545 S
C124 C125 1.367 . S
C125 H99 0.950 . S
C125 C120 1.386 1_545 S
C125 C124 1.367 . S
C126 C120 1.483 . S
C126 C127 1.382 . S
C126 C128 1.403 1_565 S
C127 H100 0.950 . S
C127 C113 1.411 . S
C127 C126 1.382 . S
C128 C112 1.411 . S
C128 C126 1.403 1_545 S
C128 C129 1.489 . S
C129 C128 1.489 . S
C129 C130 1.383 1_545 S
C129 C134 1.382 . S
C130 H101 0.950 . S
C130 C129 1.383 1_565 S
C130 C131 1.395 . S
C131 H102 0.950 . S
C131 C130 1.395 . S
C131 C132 1.288 1_565 S
C132 C131 1.288 1_545 S
C132 C133 1.392 . S
C133 H103 0.951 . S
C133 C132 1.392 . S
C133 C134 1.392 . S
C134 H104 0.949 . S
C134 C129 1.382 . S
C134 C133 1.392 . S
H135 C154 0.949 . S
H136 C155 0.950 . S
H137 C157 0.950 . S
H138 C158 0.950 . S
H139 C160 0.950 . S
H140 C163 0.950 . S
H141 C164 0.950 . S
H142 C166 0.951 . S
H143 C167 0.949 . S
H144 C169 0.949 . S
H145 C170 0.950 . S
H146 C172 0.950 . S
H147 C173 0.950 . S
H148 C175 0.950 . S
H149 C178 0.950 . S
H150 C179 0.950 . S
H151 C181 0.951 . S
H152 C182 0.949 . S
C153 C154 1.376 . S
C153 C158 1.386 . S
C153 C159 1.483 . S
C154 H135 0.949 . S
C154 C153 1.376 . S
C154 C155 1.397 . S
C155 H136 0.950 . S
C155 C154 1.397 . S
C155 C156 1.391 . S
C156 C155 1.391 . S
C156 C157 1.405 . S
C157 H137 0.950 . S
C157 C156 1.405 . S
C157 C158 1.367 . S
C158 H138 0.950 . S
C158 C153 1.386 . S
C158 C157 1.367 . S
C159 C153 1.483 . S
C159 C160 1.382 . S
C159 C161 1.403 . S
C160 H139 0.950 . S
C160 C159 1.382 . S
C160 C176 1.411 . S
C161 C159 1.403 . S
C161 C162 1.489 . S
C161 C175 1.411 . S
C162 C161 1.489 . S
C162 C163 1.383 . S
C162 C167 1.382 . S
C163 H140 0.950 . S
C163 C162 1.383 . S
C163 C164 1.395 . S
C164 H141 0.950 . S
C164 C163 1.395 . S
C164 C165 1.288 . S
C165 C164 1.288 . S
C165 C166 1.392 . S
C166 H142 0.951 . S
C166 C165 1.392 . S
C166 C167 1.392 . S
C167 H143 0.949 . S
C167 C162 1.382 . S
C167 C166 1.392 . S
C168 C169 1.376 . S
C168 C173 1.386 . S
C168 C174 1.483 . S
C169 H144 0.949 . S
C169 C168 1.376 . S
C169 C170 1.397 . S
C170 H145 0.950 . S
C170 C169 1.397 . S
C170 C171 1.391 . S
C171 C170 1.391 . S
C171 C172 1.405 . S
C172 H146 0.950 . S
C172 C171 1.405 . S
C172 C173 1.367 . S
C173 H147 0.950 . S
C173 C168 1.386 . S
C173 C172 1.367 . S
C174 C168 1.483 . S
C174 C175 1.382 . S
C174 C176 1.403 . S
C175 H148 0.950 . S
C175 C161 1.411 . S
C175 C174 1.382 . S
C176 C160 1.411 . S
C176 C174 1.403 . S
C176 C177 1.489 . S
C177 C176 1.489 . S
C177 C178 1.383 . S
C177 C182 1.382 . S
C178 H149 0.950 . S
C178 C177 1.383 . S
C178 C179 1.395 . S
C179 H150 0.950 . S
C179 C178 1.395 . S
C179 C180 1.288 . S
C180 C179 1.288 . S
C180 C181 1.392 . S
C181 H151 0.951 . S
C181 C180 1.392 . S
C181 C182 1.392 . S
C182 H152 0.949 . S
C182 C177 1.382 . S
C182 C181 1.392 . S
H183 C189 0.930 . S
H184 C193 0.930 . S
H185 C198 0.929 . S
H186 C196 0.929 . S
H187 C191 0.929 . S
H188 C197 0.929 . S
C189 H183 0.930 . S
C189 C190 1.367 . S
C189 C197 1.378 . S
C190 C189 1.367 . S
C190 C198 1.433 . S
C191 H187 0.929 . S
C191 C193 1.378 . S
C191 C195 1.350 . S
C192 C195 1.463 . S
C192 C197 1.350 . S
C192 N200 1.427 . S
C193 H184 0.930 . S
C193 C191 1.378 . S
C193 C194 1.367 . S
C194 C193 1.367 . S
C194 C196 1.433 . S
C195 C191 1.350 . S
C195 C192 1.463 . S
C195 N199 1.427 . S
C196 H186 0.929 . S
C196 C194 1.433 . S
C196 N199 1.384 . S
C197 H188 0.929 . S
C197 C189 1.378 . S
C197 C192 1.350 . S
C198 H185 0.929 . S
C198 C190 1.433 . S
C198 N200 1.384 . S
N199 C195 1.427 . S
N199 C196 1.384 . S
N200 C192 1.427 . S
N200 C198 1.384 . S
H201 C207 0.930 . S
H202 C211 0.930 . S
H203 C216 0.929 . S
H204 C214 0.929 . S
H205 C209 0.929 . S
H206 C215 0.929 . S
C207 H201 0.930 . S
C207 C208 1.367 . S
C207 C215 1.378 . S
C208 C207 1.367 . S
C208 C216 1.433 1_545 S
C209 H205 0.929 . S
C209 C211 1.378 . S
C209 C213 1.350 1_565 S
C210 C213 1.463 . S
C210 C215 1.350 . S
C210 N218 1.427 1_545 S
C211 H202 0.930 . S
C211 C209 1.378 . S
C211 C212 1.367 1_565 S
C212 C211 1.367 1_545 S
C212 C214 1.433 . S
C213 C209 1.350 1_545 S
C213 C210 1.463 . S
C213 N217 1.427 . S
C214 H204 0.929 . S
C214 C212 1.433 . S
C214 N217 1.384 . S
C215 H206 0.929 . S
C215 C207 1.378 . S
C215 C210 1.350 . S
C216 H203 0.929 . S
C216 C208 1.433 1_565 S
C216 N218 1.384 . S
N217 C213 1.427 . S
N217 C214 1.384 . S
N218 C210 1.427 1_565 S
N218 C216 1.384 . S
H219 C225 0.930 . S
H220 C229 0.930 . S
H221 C234 0.929 . S
H222 C232 0.929 . S
H223 C227 0.929 . S
H224 C233 0.929 . S
C225 H219 0.930 . S
C225 C226 1.367 . S
C225 C233 1.378 . S
C226 C225 1.367 . S
C226 C234 1.433 . S
C227 H223 0.929 . S
C227 C229 1.378 . S
C227 C231 1.350 . S
C228 C231 1.463 . S
C228 C233 1.350 . S
C228 N236 1.427 . S
C229 H220 0.930 . S
C229 C227 1.378 . S
C229 C230 1.367 . S
C230 C229 1.367 . S
C230 C232 1.433 . S
C231 C227 1.350 . S
C231 C228 1.463 . S
C231 N235 1.427 . S
C232 H222 0.929 . S
C232 C230 1.433 . S
C232 N235 1.384 . S
C233 H224 0.929 . S
C233 C225 1.378 . S
C233 C228 1.350 . S
C234 H221 0.929 . S
C234 C226 1.433 . S
C234 N236 1.384 . S
N235 C231 1.427 . S
N235 C232 1.384 . S
N236 C228 1.427 . S
N236 C234 1.384 . S
H237 C243 0.930 . S
H238 C247 0.930 . S
H239 C252 0.929 . S
H240 C250 0.929 . S
H241 C245 0.929 . S
H242 C251 0.929 . S
C243 H237 0.930 . S
C243 C244 1.367 . S
C243 C251 1.378 . S
C244 C243 1.367 . S
C244 C252 1.433 1_655 S
C245 H241 0.929 . S
C245 C247 1.378 . S
C245 C249 1.350 . S
C246 C249 1.460 1_655 S
C246 C251 1.354 . S
C246 N254 1.425 1_655 S
C247 H238 0.930 . S
C247 C245 1.378 . S
C247 C248 1.367 . S
C248 C247 1.367 . S
C248 C250 1.433 1_455 S
C249 C245 1.350 . S
C249 C246 1.460 1_455 S
C249 N253 1.427 1_455 S
C250 H240 0.929 . S
C250 C248 1.433 1_655 S
C250 N253 1.384 . S
C251 H242 0.929 . S
C251 C243 1.378 . S
C251 C246 1.354 . S
C252 H239 0.929 . S
C252 C244 1.433 1_455 S
C252 N254 1.384 . S
N253 C249 1.427 1_655 S
N253 C250 1.384 . S
N254 C246 1.425 1_455 S
N254 C252 1.384 . S
H255 C261 0.930 . S
H256 C265 0.930 . S
H257 C270 0.929 . S
H258 C268 0.929 . S
H259 C263 0.929 . S
H260 C269 0.929 . S
C261 H255 0.930 . S
C261 C262 1.365 1_545 S
C261 C269 1.378 . S
C262 C261 1.365 1_565 S
C262 C270 1.439 . S
C263 H259 0.929 . S
C263 C265 1.378 . S
C263 C267 1.355 . S
C264 C267 1.459 1_545 S
C264 C269 1.350 . S
C264 N272 1.427 1_545 S
C265 H256 0.930 . S
C265 C263 1.378 . S
C265 C266 1.367 1_565 S
C266 C265 1.367 1_545 S
C266 C268 1.433 . S
C267 C263 1.355 . S
C267 C264 1.459 1_565 S
C267 N271 1.425 1_565 S
C268 H258 0.929 . S
C268 C266 1.433 . S
C268 N271 1.384 . S
C269 H260 0.929 . S
C269 C261 1.378 . S
C269 C264 1.350 . S
C270 H257 0.929 . S
C270 C262 1.439 . S
C270 N272 1.384 . S
N271 C267 1.425 1_545 S
N271 C268 1.384 . S
N272 C264 1.427 1_565 S
N272 C270 1.384 . S
H273 C279 0.930 . S
H274 C283 0.930 . S
H275 C288 0.929 . S
H276 C286 0.929 . S
H277 C281 0.929 . S
H278 C287 0.929 . S
C279 H273 0.930 . S
C279 C280 1.367 . S
C279 C287 1.378 . S
C280 C279 1.367 . S
C280 C288 1.433 . S
C281 H277 0.929 . S
C281 C283 1.378 . S
C281 C285 1.350 . S
C282 C285 1.463 . S
C282 C287 1.350 . S
C282 N290 1.427 . S
C283 H274 0.930 . S
C283 C281 1.378 . S
C283 C284 1.367 . S
C284 C283 1.367 . S
C284 C286 1.433 . S
C285 C281 1.350 . S
C285 C282 1.463 . S
C285 N289 1.427 . S
C286 H276 0.929 . S
C286 C284 1.433 . S
C286 N289 1.384 . S
C287 H278 0.929 . S
C287 C279 1.378 . S
C287 C282 1.350 . S
C288 H275 0.929 . S
C288 C280 1.433 . S
C288 N290 1.384 . S
N289 C285 1.427 . S
N289 C286 1.384 . S
N290 C282 1.427 . S
N290 C288 1.384 . S
H291 C297 0.930 . S
H292 C301 0.930 . S
H293 C306 0.929 . S
H294 C304 0.929 . S
H295 C299 0.929 . S
H296 C305 0.929 . S
C297 H291 0.930 . S
C297 C298 1.367 . S
C297 C305 1.378 . S
C298 C297 1.367 . S
C298 C306 1.433 1_565 S
C299 H295 0.929 . S
C299 C301 1.378 . S
C299 C303 1.374 . S
C300 C303 1.451 1_565 S
C300 C305 1.350 . S
C300 N308 1.427 1_565 S
C301 H292 0.930 . S
C301 C299 1.378 . S
C301 C302 1.367 . S
C302 C301 1.367 . S
C302 C304 1.433 1_545 S
C303 C299 1.374 . S
C303 C300 1.451 1_545 S
C303 N307 1.413 1_545 S
C304 H294 0.929 . S
C304 C302 1.433 1_565 S
C304 N307 1.384 . S
C305 H296 0.929 . S
C305 C297 1.378 . S
C305 C300 1.350 . S
C306 H293 0.929 . S
C306 C298 1.433 1_545 S
C306 N308 1.384 . S
N307 C303 1.413 1_565 S
N307 C304 1.384 . S
N308 C300 1.427 1_545 S
N308 C306 1.384 . S
H309 C315 0.930 . S
H310 C319 0.930 . S
H311 C324 0.929 1_554 S
H312 C322 0.929 . S
H313 C317 0.929 . S
H314 C323 0.929 . S
C315 H309 0.930 . S
C315 C316 1.364 1_556 S
C315 C323 1.378 . S
C316 C315 1.364 1_554 S
C316 C324 1.433 1_554 S
C317 H313 0.929 . S
C317 C319 1.378 . S
C317 C321 1.350 . S
C318 C321 1.463 . S
C318 C323 1.350 . S
C318 N326 1.427 . S
C319 H310 0.930 . S
C319 C317 1.378 . S
C319 C320 1.367 . S
C320 C319 1.367 . S
C320 C322 1.433 . S
C321 C317 1.350 . S
C321 C318 1.463 . S
C321 N325 1.427 . S
C322 H312 0.929 . S
C322 C320 1.433 . S
C322 N325 1.384 . S
C323 H314 0.929 . S
C323 C315 1.378 . S
C323 C318 1.350 . S
C324 H311 0.929 1_556 S
C324 C316 1.433 1_556 S
C324 N326 1.384 . S
N325 C321 1.427 . S
N325 C322 1.384 . S
N326 C318 1.427 . S
N326 C324 1.384 . S
H327 C333 0.930 . S
H328 C337 0.930 . S
H329 C342 0.929 . S
H330 C340 0.927 1_655 S
H331 C335 0.929 . S
H332 C341 0.929 . S
C333 H327 0.930 . S
C333 C334 1.367 . S
C333 C341 1.378 . S
C334 C333 1.367 . S
C334 C342 1.433 . S
C335 H331 0.929 . S
C335 C337 1.378 . S
C335 C339 1.350 . S
C336 C339 1.463 . S
C336 C341 1.350 . S
C336 N344 1.427 . S
C337 H328 0.930 . S
C337 C335 1.378 . S
C337 C338 1.367 . S
C338 C337 1.367 . S
C338 C340 1.444 . S
C339 C335 1.350 . S
C339 C336 1.463 . S
C339 N343 1.427 . S
C340 H330 0.927 1_455 S
C340 C338 1.444 . S
C340 N343 1.375 . S
C341 H332 0.929 . S
C341 C333 1.378 . S
C341 C336 1.350 . S
C342 H329 0.929 . S
C342 C334 1.433 . S
C342 N344 1.384 . S
N343 C339 1.427 . S
N343 C340 1.375 . S
N344 C336 1.427 . S
N344 C342 1.384 . S
H345 C351 0.930 . S
H346 C355 0.930 . S
H347 C360 0.929 . S
H348 C358 0.929 . S
H349 C353 0.929 . S
H350 C359 0.929 . S
C351 H345 0.930 . S
C351 C352 1.367 1_565 S
C351 C359 1.378 . S
C352 C351 1.367 1_545 S
C352 C360 1.433 . S
C353 H349 0.929 . S
C353 C355 1.378 . S
C353 C357 1.350 . S
C354 C357 1.463 . S
C354 C359 1.350 1_545 S
C354 N362 1.427 . S
C355 H346 0.930 . S
C355 C353 1.378 . S
C355 C356 1.367 . S
C356 C355 1.367 . S
C356 C358 1.433 1_545 S
C357 C353 1.350 . S
C357 C354 1.463 . S
C357 N361 1.427 1_545 S
C358 H348 0.929 . S
C358 C356 1.433 1_565 S
C358 N361 1.384 . S
C359 H350 0.929 . S
C359 C351 1.378 . S
C359 C354 1.350 1_565 S
C360 H347 0.929 . S
C360 C352 1.433 . S
C360 N362 1.384 . S
N361 C357 1.427 1_565 S
N361 C358 1.384 . S
N362 C354 1.427 . S
N362 C360 1.384 . S
H363 C369 0.930 . S
H364 C373 0.930 . S
H365 C378 0.929 . S
H366 C376 0.929 . S
H367 C371 0.929 . S
H368 C377 0.929 . S
C369 H363 0.930 . S
C369 C370 1.373 . S
C369 C377 1.378 . S
C370 C369 1.373 . S
C370 C378 1.430 1_556 S
C371 H367 0.929 . S
C371 C373 1.378 . S
C371 C375 1.350 . S
C372 C375 1.463 . S
C372 C377 1.350 . S
C372 N380 1.427 . S
C373 H364 0.930 . S
C373 C371 1.378 . S
C373 C374 1.367 . S
C374 C373 1.367 . S
C374 C376 1.433 . S
C375 C371 1.350 . S
C375 C372 1.463 . S
C375 N379 1.427 . S
C376 H366 0.929 . S
C376 C374 1.433 . S
C376 N379 1.384 . S
C377 H368 0.929 . S
C377 C369 1.378 . S
C377 C372 1.350 . S
C378 H365 0.929 . S
C378 C370 1.430 1_554 S
C378 N380 1.384 1_554 S
N379 C375 1.427 . S
N379 C376 1.384 . S
N380 C372 1.427 . S
N380 C378 1.384 1_556 S
H381 C387 0.930 . S
H382 C391 0.930 . S
H383 C396 0.929 . S
H384 C394 0.929 . S
H385 C389 0.929 . S
H386 C395 0.929 . S
C387 H381 0.930 . S
C387 C388 1.367 . S
C387 C395 1.378 . S
C388 C387 1.367 . S
C388 C396 1.433 1_655 S
C389 H385 0.929 . S
C389 C391 1.378 . S
C389 C393 1.350 . S
C390 C393 1.463 1_655 S
C390 C395 1.350 . S
C390 N398 1.427 1_655 S
C391 H382 0.930 . S
C391 C389 1.378 . S
C391 C392 1.367 . S
C392 C391 1.367 . S
C392 C394 1.433 1_455 S
C393 C389 1.350 . S
C393 C390 1.463 1_455 S
C393 N397 1.427 1_455 S
C394 H384 0.929 . S
C394 C392 1.433 1_655 S
C394 N397 1.384 . S
C395 H386 0.929 . S
C395 C387 1.378 . S
C395 C390 1.350 . S
C396 H383 0.929 . S
C396 C388 1.433 1_455 S
C396 N398 1.384 . S
N397 C393 1.427 1_655 S
N397 C394 1.384 . S
N398 C390 1.427 1_455 S
N398 C396 1.384 . S
C194 C60 1.532 . S
C190 C10 1.533 . S
C208 C17 1.534 . S
C212 C108 1.534 . S
C226 C36 1.535 . S
C230 C180 1.530 . S
C244 C5 1.528 . S
C248 C84 1.529 . S
C266 C132 1.533 . S
C262 C16 1.532 . S
C280 C31 1.535 . S
C284 C156 1.535 . S
C302 C117 1.531 1_545 S
C298 C30 1.534 . S
C316 C3 1.538 . S
C320 C171 1.535 . S
C338 C75 1.528 . S
C334 C18 1.536 . S
C356 C123 1.536 1_545 S
C352 C29 1.536 . S
C374 C165 1.528 . S
C370 C4 1.532 1_556 S
C388 C23 1.534 . S
C392 C69 1.530 1_455 S
