# Generated by pormake.
# Topology pts, (4,4)-cn, num edge types: 1
# Building blocks:
#     Node 0, Type 0, BuildingBlock: NAHDIM_clean_linker_0, # of connection points: 4
#     Node 1, Type 0, BuildingBlock: NAHDIM_clean_linker_0, # of connection points: 4
#     Node 2, Type 1, BuildingBlock: UXUYUI_clean_sbu_0, # of connection points: 4
#     Node 3, Type 1, BuildingBlock: UXUYUI_clean_sbu_0, # of connection points: 4
#     Edge 4, Type (0, 1), BuildingBlock: XUDNAN_clean_linker_2, # of connection points: 2
#     Edge 5, Type (0, 1), BuildingBlock: XUDNAN_clean_linker_2, # of connection points: 2
#     Edge 6, Type (0, 1), BuildingBlock: XUDNAN_clean_linker_2, # of connection points: 2
#     Edge 7, Type (0, 1), BuildingBlock: XUDNAN_clean_linker_2, # of connection points: 2
#     Edge 8, Type (0, 1), BuildingBlock: XUDNAN_clean_linker_2, # of connection points: 2
#     Edge 9, Type (0, 1), BuildingBlock: XUDNAN_clean_linker_2, # of connection points: 2
#     Edge 10, Type (0, 1), BuildingBlock: XUDNAN_clean_linker_2, # of connection points: 2
#     Edge 11, Type (0, 1), BuildingBlock: XUDNAN_clean_linker_2, # of connection points: 2
# Relax obj value: 0.021
# Max RMSD: 0.066
# Mean RMSD: 0.065
data_MOF--net-pts--node1-UXUYUI_clean_sbu_0--node2-NAHDIM_clean_linker_0--edge1-XUDNAN_clean_linker_2
_symmetry_space_group_name_H-M    P1
_symmetry_Int_Tables_number       1
_symmetry_cell_setting            triclinic
loop_
_symmetry_equiv_pos_as_xyz
'x, y, z'
_cell_length_a     38.146837
_cell_length_b     38.11824
_cell_length_c     62.043067
_cell_angle_alpha  90.389495
_cell_angle_beta   89.638799
_cell_angle_gamma 89.999769
loop_
_atom_site_label
_atom_site_type_symbol
_atom_site_fract_x
_atom_site_fract_y
_atom_site_fract_z
_atom_type_partial_charge
C0 C 0.67484 0.02715 0.14488 0.0
C1 C 0.70504 0.01829 0.12938 0.0
C2 C 0.67729 0.02751 0.09461 0.0
C3 C 0.67131 0.99261 0.08822 0.0
C4 C 0.64524 0.98442 0.07316 0.0
C5 C 0.62477 0.01168 0.06438 0.0
C6 C 0.6318 0.04699 0.07008 0.0
C7 C 0.65841 0.05445 0.08493 0.0
C8 C 0.63907 0.94659 0.06695 0.0
C9 C 0.61042 0.07672 0.06105 0.0
C10 C 0.43908 0.94272 0.14089 0.0
C11 C 0.41741 0.96442 0.12516 0.0
C12 C 0.4458 0.95959 0.09013 0.0
C13 C 0.4525 0.99484 0.08529 0.0
C14 C 0.47989 0.00396 0.07123 0.0
C15 C 0.50086 0.97722 0.06188 0.0
C16 C 0.49305 0.94158 0.06596 0.0
C17 C 0.4652 0.93321 0.07988 0.0
C18 C 0.487 0.04218 0.06676 0.0
C19 C 0.51488 0.91245 0.05622 0.0
C20 C 0.43715 0.99243 0.92444 0.0
C21 C 0.44775 0.0244 0.93382 0.0
C22 C 0.48007 0.0273 0.94433 0.0
C23 C 0.50222 0.99765 0.94561 0.0
C24 C 0.49223 0.96578 0.93562 0.0
C25 C 0.45983 0.96366 0.92507 0.0
C26 C 0.49019 0.06189 0.95454 0.0
C27 C 0.51538 0.93375 0.93661 0.0
C28 C 0.7838 0.06183 0.94635 0.0
C29 C 0.76012 0.03657 0.93383 0.0
C30 C 0.69649 0.04305 0.93318 0.0
C31 C 0.67097 0.0685 0.93732 0.0
C32 C 0.63753 0.05906 0.9448 0.0
C33 C 0.62948 0.02319 0.94786 0.0
C34 C 0.65426 0.99718 0.94198 0.0
C35 C 0.68756 0.00738 0.93462 0.0
C36 C 0.61141 0.08741 0.95049 0.0
C37 C 0.64608 0.95869 0.94443 0.0
C38 C 0.59425 0.00307 0.05063 0.0
C39 C 0.5631 0.99377 0.06103 0.0
C40 C 0.5327 0.98663 0.0494 0.0
C41 C 0.53304 0.9891 0.02669 0.0
C42 C 0.50265 0.98307 0.01453 0.0
C43 C 0.50319 0.98623 0.9922 0.0
C44 C 0.53419 0.99541 0.98117 0.0
C45 C 0.53479 0.99966 0.95852 0.0
C46 C 0.56618 0.00815 0.94802 0.0
C47 C 0.59708 0.01319 0.95964 0.0
C48 C 0.59683 0.00987 0.98234 0.0
C49 C 0.6273 0.01563 0.99456 0.0
C50 C 0.62661 0.01318 0.01691 0.0
C51 C 0.59546 0.0048 0.02791 0.0
C52 C 0.56462 0.99813 0.01591 0.0
C53 C 0.56526 0.00093 0.99311 0.0
C54 C 0.35993 0.01141 0.93789 0.0
C55 C 0.37717 0.01102 0.91547 0.0
O56 O 0.7008 0.03605 0.11013 0.0
O57 O 0.72951 0.05381 0.9283 0.0
O58 O 0.40532 0.98797 0.91497 0.0
O59 O 0.42075 0.95031 0.10459 0.0
H60 H 0.70484 0.9895 0.12654 0.0
H61 H 0.64961 0.01808 0.13797 0.0
H62 H 0.6732 0.05592 0.14774 0.0
H63 H 0.67863 0.01376 0.16055 0.0
H64 H 0.68696 0.97167 0.09484 0.0
H65 H 0.66363 0.08133 0.08974 0.0
H66 H 0.61336 0.93793 0.0735 0.0
H67 H 0.65976 0.92893 0.07322 0.0
H68 H 0.63807 0.94384 0.04913 0.0
H69 H 0.61859 0.10265 0.06757 0.0
H70 H 0.58224 0.07264 0.06486 0.0
H71 H 0.61318 0.07712 0.04323 0.0
H72 H 0.42748 0.99181 0.1257 0.0
H73 H 0.43665 0.95365 0.15749 0.0
H74 H 0.46717 0.94342 0.13609 0.0
H75 H 0.43018 0.91496 0.1409 0.0
H76 H 0.4364 0.01521 0.09251 0.0
H77 H 0.45932 0.90606 0.08349 0.0
H78 H 0.48904 0.04652 0.04912 0.0
H79 H 0.51247 0.04978 0.07399 0.0
H80 H 0.46622 0.05957 0.0735 0.0
H81 H 0.50508 0.88605 0.06077 0.0
H82 H 0.54246 0.91508 0.06162 0.0
H83 H 0.51487 0.91453 0.03838 0.0
H84 H 0.38637 0.03789 0.91144 0.0
H85 H 0.43091 0.04717 0.93329 0.0
H86 H 0.45164 0.93918 0.91767 0.0
H87 H 0.49073 0.05906 0.97233 0.0
H88 H 0.47163 0.08328 0.95048 0.0
H89 H 0.51692 0.06959 0.9492 0.0
H90 H 0.50403 0.91099 0.92782 0.0
H91 H 0.51943 0.92633 0.95369 0.0
H92 H 0.54151 0.93982 0.92958 0.0
H93 H 0.7546 0.01456 0.94508 0.0
H94 H 0.80897 0.04881 0.95038 0.0
H95 H 0.77064 0.06982 0.96163 0.0
H96 H 0.78937 0.08586 0.9369 0.0
H97 H 0.67791 0.09593 0.93566 0.0
H98 H 0.70671 0.98749 0.93037 0.0
H99 H 0.60598 0.08701 0.96809 0.0
H100 H 0.58627 0.08236 0.9421 0.0
H101 H 0.62098 0.11395 0.94607 0.0
H102 H 0.66658 0.94171 0.937 0.0
H103 H 0.62043 0.95252 0.93693 0.0
H104 H 0.64398 0.95231 0.96182 0.0
H105 H 0.56243 0.99235 0.0785 0.0
H106 H 0.47806 0.97608 0.02218 0.0
H107 H 0.47895 0.98142 0.98369 0.0
H108 H 0.56643 0.01155 0.93067 0.0
H109 H 0.65204 0.02238 0.98703 0.0
H110 H 0.65078 0.01806 0.02549 0.0
H111 H 0.3369 0.02927 0.93808 0.0
H112 H 0.37861 0.02092 0.95025 0.0
H113 H 0.3512 0.98463 0.94242 0.0
C114 C 0.13684 0.32461 0.59001 0.0
C115 C 0.11442 0.3427 0.60743 0.0
C116 C 0.07389 0.38095 0.58765 0.0
C117 C 0.0388 0.38633 0.5822 0.0
C118 C 0.02845 0.4159 0.57046 0.0
C119 C 0.05398 0.44055 0.56388 0.0
C120 C 0.0896 0.43518 0.56914 0.0
C121 C 0.0992 0.40552 0.58098 0.0
C122 C 0.99027 0.42091 0.56512 0.0
C123 C 0.11754 0.46096 0.56233 0.0
C124 C 0.03643 0.71132 0.62242 0.0
C125 C 0.04477 0.68556 0.60511 0.0
C126 C 0.02279 0.63009 0.59056 0.0
C127 C 0.05452 0.62067 0.58042 0.0
C128 C 0.05745 0.58926 0.56867 0.0
C129 C 0.02785 0.56711 0.56662 0.0
C130 C 0.99591 0.57641 0.57684 0.0
C131 C 0.99388 0.60777 0.58879 0.0
C132 C 0.09217 0.57994 0.55829 0.0
C133 C 0.96388 0.55344 0.5749 0.0
C134 C 0.02103 0.64121 0.43295 0.0
C135 C 0.05477 0.6299 0.43863 0.0
C136 C 0.05995 0.59662 0.44759 0.0
C137 C 0.03091 0.57405 0.45055 0.0
C138 C 0.99731 0.5845 0.44355 0.0
C139 C 0.99286 0.618 0.43473 0.0
C140 C 0.0963 0.58586 0.45437 0.0
C141 C 0.96599 0.56068 0.44603 0.0
C142 C 0.15873 0.35807 0.3993 0.0
C143 C 0.12586 0.34379 0.4107 0.0
C144 C 0.08723 0.3927 0.42108 0.0
C145 C 0.1101 0.4095 0.4355 0.0
C146 C 0.09869 0.43794 0.44818 0.0
C147 C 0.06314 0.44864 0.44727 0.0
C148 C 0.03994 0.4314 0.43297 0.0
C149 C 0.05254 0.4041 0.41976 0.0
C150 C 0.12495 0.45666 0.46232 0.0
C151 C 0.00184 0.44178 0.43155 0.0
C152 C 0.04361 0.47233 0.55181 0.0
C153 C 0.0371 0.50305 0.56361 0.0
C154 C 0.03033 0.53475 0.55326 0.0
C155 C 0.02936 0.53591 0.53051 0.0
C156 C 0.0222 0.56731 0.51963 0.0
C157 C 0.02356 0.56877 0.49727 0.0
C158 C 0.03211 0.53887 0.48491 0.0
C159 C 0.03537 0.54056 0.46224 0.0
C160 C 0.04479 0.51063 0.45047 0.0
C161 C 0.05062 0.47858 0.46071 0.0
C162 C 0.04666 0.47617 0.48336 0.0
C163 C 0.0515 0.44426 0.49421 0.0
C164 C 0.05006 0.44277 0.51661 0.0
C165 C 0.04323 0.47306 0.52901 0.0
C166 C 0.03648 0.5051 0.51835 0.0
C167 C 0.03809 0.50663 0.49551 0.0
C168 C 0.00731 0.72297 0.44918 0.0
C169 C 0.03086 0.70463 0.43243 0.0
O170 O 0.08198 0.35181 0.59919 0.0
O171 O 0.09766 0.36611 0.40781 0.0
O172 O 0.01471 0.67402 0.42549 0.0
O173 O 0.0191 0.66024 0.60221 0.0
H174 H 0.12831 0.36662 0.6132 0.0
H175 H 0.14176 0.34261 0.57635 0.0
H176 H 0.12341 0.30087 0.58366 0.0
H177 H 0.16259 0.31684 0.59676 0.0
H178 H 0.01944 0.36727 0.58732 0.0
H179 H 0.12653 0.40187 0.58485 0.0
H180 H 0.98089 0.44626 0.57194 0.0
H181 H 0.97356 0.39943 0.57149 0.0
H182 H 0.98709 0.42211 0.54736 0.0
H183 H 0.1443 0.45222 0.56679 0.0
H184 H 0.11242 0.48679 0.5701 0.0
H185 H 0.11668 0.46478 0.54462 0.0
H186 H 0.05464 0.69689 0.58969 0.0
H187 H 0.07519 0.70158 0.64642 0.0
H188 H 0.00742 0.70907 0.62576 0.0
H189 H 0.03411 0.73721 0.61388 0.0
H190 H 0.07716 0.63765 0.58159 0.0
H191 H 0.96954 0.61519 0.5967 0.0
H192 H 0.0993 0.5524 0.56196 0.0
H193 H 0.11369 0.59743 0.56377 0.0
H194 H 0.08997 0.58218 0.54052 0.0
H195 H 0.94057 0.56511 0.58304 0.0
H196 H 0.96926 0.52746 0.58215 0.0
H197 H 0.95772 0.54898 0.55762 0.0
H198 H 0.05581 0.69925 0.44094 0.0
H199 H 0.07717 0.64678 0.43607 0.0
H200 H 0.96708 0.62665 0.4298 0.0
H201 H 0.09666 0.58149 0.47205 0.0
H202 H 0.11636 0.60593 0.45031 0.0
H203 H 0.1036 0.56071 0.4464 0.0
H204 H 0.94205 0.5718 0.4386 0.0
H205 H 0.96074 0.55623 0.46343 0.0
H206 H 0.97164 0.53476 0.43851 0.0
H207 H 0.13188 0.34138 0.42817 0.0
H208 H 0.18025 0.33846 0.39989 0.0
H209 H 0.16806 0.38236 0.40733 0.0
H210 H 0.15328 0.36452 0.38223 0.0
H211 H 0.13708 0.40115 0.43666 0.0
H212 H 0.03513 0.3911 0.40852 0.0
H213 H 0.12173 0.44775 0.4792 0.0
H214 H 0.12083 0.48549 0.46203 0.0
H215 H 0.15236 0.45102 0.45723 0.0
H216 H 0.98615 0.42213 0.42248 0.0
H217 H -0.00025 0.46734 0.42319 0.0
H218 H 0.99032 0.44505 0.44792 0.0
H219 H 0.03857 0.50253 0.58107 0.0
H220 H 0.01585 0.59126 0.5283 0.0
H221 H 0.01829 0.59381 0.48983 0.0
H222 H 0.04832 0.5125 0.43315 0.0
H223 H 0.057 0.42016 0.48549 0.0
H224 H 0.05472 0.41765 0.52411 0.0
H225 H 0.98013 0.72582 0.44311 0.0
H226 H 0.01806 0.74919 0.45346 0.0
H227 H 0.00613 0.70696 0.46406 0.0
Li228 Li 0.06635 0.04059 0.27512 0.0
Li229 Li 0.06054 0.97708 0.27262 0.0
Li230 Li 0.09492 0.00926 0.24541 0.0
Li231 Li 0.03158 0.01355 0.24583 0.0
C232 C 0.1356 0.02057 0.28141 0.0
N233 N 0.19886 0.05244 0.29065 0.0
C234 C 0.1597 0.00401 0.29481 0.0
C235 C 0.14367 0.05336 0.27269 0.0
C236 C 0.19154 0.02055 0.2993 0.0
C237 C 0.17579 0.06902 0.27756 0.0
C238 C 0.9944 0.99939 0.28753 0.0
C239 C 0.94219 0.96373 0.28746 0.0
N240 N 0.93647 0.97223 0.30851 0.0
C241 C 0.98775 0.00818 0.30908 0.0
C242 C 0.97126 0.97732 0.27655 0.0
C243 C 0.95843 0.99401 0.31944 0.0
C244 C 0.05523 0.10955 0.29121 0.0
N245 N 0.06882 0.07745 0.29555 0.0
C246 C 0.08669 0.09652 0.33051 0.0
C247 C 0.08395 0.07039 0.31479 0.0
C248 C 0.07312 0.13015 0.32657 0.0
C249 C 0.05698 0.13641 0.30661 0.0
H250 H 0.04292 0.11418 0.27583 0.0
H251 H 0.09411 0.04443 0.31788 0.0
C252 C 0.06809 0.90434 0.2814 0.0
N253 N 0.05889 0.93612 0.28976 0.0
C254 C 0.06811 0.87462 0.29446 0.0
C255 C 0.04996 0.91112 0.32454 0.0
C256 C 0.0505 0.94007 0.31095 0.0
C257 C 0.05882 0.87784 0.31633 0.0
H258 H 0.07585 0.90212 0.26466 0.0
H259 H 0.04494 0.96587 0.3174 0.0
C260 C 0.06655 0.06747 0.22381 0.0
N261 N 0.0673 0.09664 0.18317 0.0
C262 C 0.06403 0.046 0.20555 0.0
C263 C 0.06945 0.10377 0.22143 0.0
C264 C 0.06444 0.06123 0.18514 0.0
C265 C 0.0698 0.11803 0.20074 0.0
C266 C 0.04936 0.9451 0.22774 0.0
C267 C 0.06406 0.9411 0.20716 0.0
C268 C 0.02307 0.92206 0.23453 0.0
C269 C 0.05183 0.91444 0.19361 0.0
C270 C 0.01157 0.89572 0.2205 0.0
N271 N 0.02604 0.8925 0.2005 0.0
C272 C 0.14757 0.97148 0.22568 0.0
C273 C 0.15041 0.0319 0.21699 0.0
C274 C 0.1758 0.96415 0.21205 0.0
N275 N 0.13514 0.00472 0.2276 0.0
C276 C 0.17887 0.02577 0.20316 0.0
C277 C 0.19156 0.9914 0.20035 0.0
H278 H 0.13508 0.95052 0.23455 0.0
H279 H 0.14032 0.05821 0.21905 0.0
C280 C 0.96812 0.04565 0.23584 0.0
N281 N 0.99063 0.02025 0.22891 0.0
C282 C 0.93739 0.05244 0.22448 0.0
C283 C 0.95367 0.00692 0.19902 0.0
C284 C 0.98419 0.00126 0.21073 0.0
C285 C 0.92977 0.03269 0.20592 0.0
H286 H 0.97406 0.06051 0.25028 0.0
H287 H 0.0027 0.98188 0.20514 0.0
O288 O 0.10427 0.00466 0.277 0.0
O289 O 0.02312 0.01291 0.27723 0.0
O290 O 0.06627 0.05321 0.24397 0.0
O291 O 0.06108 0.97111 0.24121 0.0
H292 H 0.1538 0.97865 0.3017 0.0
H293 H 0.12538 0.06669 0.26235 0.0
H294 H 0.21043 0.00805 0.30967 0.0
H295 H 0.18235 0.09439 0.27094 0.0
H296 H 0.92414 0.9465 0.27917 0.0
H297 H 0.00528 0.02552 0.31774 0.0
H298 H 0.9755 0.97094 0.25975 0.0
H299 H 0.95313 0.00034 0.33617 0.0
H300 H 0.09987 0.09047 0.34543 0.0
H301 H 0.0456 0.16168 0.30295 0.0
H302 H 0.07524 0.84944 0.28754 0.0
H303 H 0.04355 0.9149 0.34143 0.0
H304 H 0.06188 0.01791 0.20712 0.0
H305 H 0.07149 0.12073 0.23543 0.0
H306 H 0.06252 0.0449 0.17087 0.0
H307 H 0.07207 0.14609 0.19865 0.0
H308 H 0.08455 0.95853 0.20161 0.0
H309 H 0.0119 0.92422 0.25053 0.0
H310 H 0.06285 0.91118 0.17761 0.0
H311 H 0.99122 0.87774 0.22555 0.0
H312 H 0.18524 0.93743 0.21073 0.0
H313 H 0.1903 0.04751 0.19444 0.0
H314 H 0.91949 0.07243 0.23037 0.0
H315 H 0.94896 0.99152 0.18459 0.0
Li316 Li 0.01721 0.00766 0.76709 0.0
Li317 Li 0.08455 0.00491 0.76877 0.0
Li318 Li 0.05399 0.03945 0.74204 0.0
Li319 Li 0.05234 0.97777 0.73912 0.0
C320 C 0.05425 0.08073 0.77594 0.0
N321 N 0.05933 0.15298 0.77792 0.0
C322 C 0.08645 0.09666 0.78031 0.0
C323 C 0.02455 0.10152 0.77282 0.0
C324 C 0.08849 0.13324 0.78119 0.0
C325 C 0.02768 0.138 0.77381 0.0
C326 C 0.05382 0.93093 0.76989 0.0
C327 C 0.09145 0.88041 0.76601 0.0
N328 N 0.06281 0.85918 0.76653 0.0
C329 C 0.02476 0.90862 0.77048 0.0
C330 C 0.08746 0.91676 0.76769 0.0
C331 C 0.02985 0.87241 0.76872 0.0
C332 C 0.95096 0.98187 0.78013 0.0
N333 N 0.97607 0.00632 0.78416 0.0
C334 C 0.94413 0.02801 0.81463 0.0
C335 C 0.97313 0.02934 0.80087 0.0
C336 C 0.91824 0.00241 0.81128 0.0
C337 C 0.92171 0.97924 0.79371 0.0
H338 H 0.95394 0.96412 0.76658 0.0
H339 H 0.99368 0.0483 0.80377 0.0
C340 C 0.15384 0.01745 0.78258 0.0
N341 N 0.12335 0.00071 0.78737 0.0
C342 C 0.18293 0.01367 0.79594 0.0
C343 C 0.14869 0.97515 0.81865 0.0
C344 C 0.12017 0.98003 0.80503 0.0
C345 C 0.18058 0.99207 0.81415 0.0
H346 H 0.15556 0.03358 0.76833 0.0
H347 H 0.09553 0.96709 0.8084 0.0
C348 C 0.98563 0.02288 0.724 0.0
N349 N 0.9305 0.04893 0.70026 0.0
C350 C 0.98298 0.01492 0.70204 0.0
C351 C 0.95986 0.04354 0.73397 0.0
C352 C 0.95503 0.02851 0.6903 0.0
C353 C 0.93229 0.05661 0.72167 0.0
C354 C 0.10905 0.00828 0.71755 0.0
C355 C 0.08776 0.01398 0.69969 0.0
C356 C 0.14506 0.0033 0.71465 0.0
C357 C 0.10286 0.01453 0.67913 0.0
C358 C 0.15918 0.00399 0.69383 0.0
N359 N 0.13796 0.00955 0.67664 0.0
C360 C 0.09304 0.09558 0.72655 0.0
C361 C 0.03319 0.10032 0.71703 0.0
C362 C 0.10058 0.1274 0.71659 0.0
N363 N 0.0598 0.0827 0.72667 0.0
C364 C 0.03962 0.13217 0.70673 0.0
C365 C 0.07367 0.14615 0.70651 0.0
H366 H 0.11371 0.08121 0.73444 0.0
H367 H 0.00691 0.09012 0.71752 0.0
C368 C 0.01933 0.92407 0.71605 0.0
N369 N 0.05126 0.93782 0.72076 0.0
C370 C 0.01684 0.89256 0.70461 0.0
C371 C 0.08015 0.8905 0.70258 0.0
C372 C 0.08142 0.92198 0.71416 0.0
C373 C 0.04754 0.87517 0.69794 0.0
H374 H 0.99583 0.93712 0.72177 0.0
H375 H 0.10646 0.93309 0.71856 0.0
O376 O 0.05194 0.045 0.77438 0.0
O377 O 0.04934 0.96652 0.77077 0.0
O378 O 0.01251 0.0093 0.73581 0.0
O379 O 0.09494 0.00757 0.73786 0.0
H380 H 0.10967 0.08095 0.78277 0.0
H381 H -0.00056 0.08962 0.76943 0.0
H382 H 0.11329 0.14593 0.78441 0.0
H383 H 0.00497 0.15442 0.77125 0.0
H384 H 0.11731 0.8691 0.76415 0.0
H385 H 0.99856 0.91915 0.77208 0.0
H386 H 0.1102 0.93368 0.76687 0.0
H387 H 0.00759 0.85484 0.76903 0.0
H388 H 0.94259 0.04603 0.82818 0.0
H389 H 0.90215 0.95928 0.79059 0.0
H390 H 0.20715 0.02697 0.79187 0.0
H391 H 0.14575 0.9586 0.83267 0.0
H392 H 0.00217 0.99824 0.69416 0.0
H393 H 0.96117 0.04962 0.75098 0.0
H394 H 0.95276 0.0227 0.67327 0.0
H395 H 0.9123 0.07282 0.72914 0.0
H396 H 0.05995 0.01813 0.70171 0.0
H397 H 0.16188 0.99885 0.72836 0.0
H398 H 0.08667 0.01897 0.66516 0.0
H399 H 0.18701 0.00011 0.69132 0.0
H400 H 0.12729 0.13704 0.7166 0.0
H401 H 0.01805 0.14601 0.69934 0.0
H402 H 0.9912 0.88174 0.7012 0.0
H403 H 0.10444 0.87766 0.69802 0.0
H404 H 0.38349 0.01314 0.15048 0.0
H405 H 0.36656 0.9147 0.11665 0.0
H406 H 0.3055 0.91326 0.13018 0.0
H407 H 0.33642 0.99074 0.1973 0.0
H408 H 0.3185 0.03392 0.20191 0.0
H409 H 0.35968 0.02894 0.18792 0.0
H410 H 0.33526 0.06381 0.1556 0.0
H411 H 0.29394 0.06894 0.16951 0.0
H412 H 0.29525 0.04958 0.14293 0.0
H413 H 0.24767 0.92094 0.14881 0.0
H414 H 0.19725 0.93622 0.17213 0.0
H415 H 0.25242 0.02893 0.1947 0.0
C416 C 0.36664 0.9917 0.14557 0.0
C417 C 0.37936 0.96455 0.13204 0.0
C418 C 0.357 0.93622 0.12654 0.0
C419 C 0.32236 0.93516 0.13418 0.0
C420 C 0.31062 0.96245 0.14742 0.0
C421 C 0.33207 0.99017 0.1531 0.0
C422 C 0.31371 0.01503 0.16862 0.0
C423 C 0.33324 0.01726 0.19021 0.0
C424 C 0.30928 0.0515 0.15856 0.0
C425 C 0.27878 0.99661 0.17107 0.0
C426 C 0.27745 0.96651 0.15855 0.0
C427 C 0.24835 0.94449 0.15863 0.0
C428 C 0.21996 0.95327 0.17204 0.0
C429 C 0.22097 0.98368 0.1853 0.0
C430 C 0.25067 0.00578 0.18455 0.0
H431 H 0.07358 0.28305 0.60975 0.0
H432 H 0.14506 0.34688 0.64739 0.0
H433 H 0.13982 0.30528 0.67762 0.0
H434 H 0.01683 0.25571 0.65433 0.0
H435 H 0.01129 0.21196 0.64367 0.0
H436 H 0.01869 0.24811 0.62563 0.0
H437 H 0.07218 0.21559 0.60901 0.0
H438 H 0.06499 0.17941 0.627 0.0
H439 H 0.10697 0.2011 0.62636 0.0
H440 H 0.12926 0.25527 0.70293 0.0
H441 H 0.11429 0.2001 0.72154 0.0
H442 H 0.05047 0.16836 0.66713 0.0
C443 C 0.08768 0.28848 0.6245 0.0
C444 C 0.10935 0.3184 0.62637 0.0
C445 C 0.12799 0.32433 0.64574 0.0
C446 C 0.12519 0.30087 0.66297 0.0
C447 C 0.10375 0.27153 0.66054 0.0
C448 C 0.0853 0.26526 0.64181 0.0
C449 C 0.06547 0.2309 0.64292 0.0
C450 C 0.02571 0.23705 0.64156 0.0
C451 C 0.07818 0.20524 0.62528 0.0
C452 C 0.07594 0.21865 0.66513 0.0
C453 C 0.09791 0.24253 0.67506 0.0
C454 C 0.11196 0.23643 0.69536 0.0
C455 C 0.10349 0.20496 0.70574 0.0
C456 C 0.08124 0.17998 0.69578 0.0
C457 C 0.06712 0.18719 0.67528 0.0
H458 H 0.75432 0.97454 0.14682 0.0
H459 H 0.733 0.0845 0.13513 0.0
H460 H 0.78856 0.10058 0.15318 0.0
H461 H 0.79107 0.9856 0.19902 0.0
H462 H 0.82361 0.95176 0.19534 0.0
H463 H 0.78272 0.94918 0.18109 0.0
H464 H 0.81645 0.94498 0.14474 0.0
H465 H 0.85746 0.94745 0.1589 0.0
H466 H 0.84795 0.97843 0.1379 0.0
H467 H 0.84573 0.10432 0.17363 0.0
H468 H 0.90085 0.09532 0.19375 0.0
H469 H 0.88428 0.98279 0.19135 0.0
C470 C 0.76154 0.00198 0.14786 0.0
C471 C 0.73968 0.02829 0.13937 0.0
C472 C 0.74968 0.06397 0.14134 0.0
C473 C 0.78107 0.0733 0.15159 0.0
C474 C 0.80204 0.04663 0.15976 0.0
C475 C 0.79273 0.0117 0.15792 0.0
C476 C 0.81955 0.98804 0.16823 0.0
C477 C 0.80326 0.96744 0.18704 0.0
C478 C 0.83635 0.96327 0.15144 0.0
C479 C 0.84547 0.01508 0.1762 0.0
C480 C 0.8349 0.04875 0.17128 0.0
C481 C 0.85433 0.07806 0.1775 0.0
C482 C 0.88544 0.07273 0.18899 0.0
C483 C 0.89682 0.03838 0.19397 0.0
C484 C 0.87647 0.00931 0.18747 0.0
H485 H 0.11465 0.72354 0.60675 0.0
H486 H 0.03041 0.63717 0.64478 0.0
H487 H 0.01038 0.6946 0.67339 0.0
H488 H 0.1352 0.77533 0.66117 0.0
H489 H 0.13739 0.81808 0.64903 0.0
H490 H 0.14599 0.77949 0.63296 0.0
H491 H 0.09758 0.79853 0.60621 0.0
H492 H 0.08908 0.83698 0.62248 0.0
H493 H 0.05392 0.8071 0.61625 0.0
H494 H 0.00383 0.76125 0.69137 0.0
H495 H 0.0056 0.81976 0.70854 0.0
H496 H 0.08559 0.85253 0.66309 0.0
C497 C 0.09654 0.71733 0.61965 0.0
C498 C 0.07027 0.67595 0.62003 0.0
C499 C 0.04292 0.66258 0.64379 0.0
C500 C 0.02924 0.69877 0.66059 0.0
C501 C 0.04725 0.74149 0.65636 0.0
C502 C 0.08012 0.75046 0.63757 0.0
C503 C 0.09049 0.78794 0.64061 0.0
C504 C 0.12957 0.79034 0.64628 0.0
C505 C 0.08228 0.80886 0.62018 0.0
C506 C 0.06692 0.7995 0.65967 0.0
C507 C 0.04359 0.77414 0.66786 0.0
C508 C 0.02137 0.78119 0.6852 0.0
C509 C 0.02241 0.81452 0.69476 0.0
C510 C 0.04566 0.84051 0.68702 0.0
C511 C 0.06782 0.83283 0.66931 0.0
H512 H 0.33848 0.05343 0.88907 0.0
H513 H 0.35402 0.94419 0.90556 0.0
H514 H 0.30683 0.92709 0.88038 0.0
H515 H 0.246 0.04977 0.88614 0.0
H516 H 0.24271 0.07964 0.86384 0.0
H517 H 0.27904 0.08295 0.88212 0.0
H518 H 0.32263 0.07681 0.85009 0.0
H519 H 0.28641 0.07362 0.83169 0.0
H520 H 0.31922 0.0396 0.83213 0.0
H521 H 0.25588 0.92246 0.85487 0.0
H522 H 0.20574 0.93046 0.83029 0.0
H523 H 0.22401 0.04278 0.83043 0.0
C524 C 0.33238 0.02586 0.88705 0.0
C525 C 0.35041 3e-05 0.89885 0.0
C526 C 0.341 0.96428 0.8963 0.0
C527 C 0.31421 0.95437 0.88211 0.0
C528 C 0.297 0.98055 0.8707 0.0
C529 C 0.3058 0.01554 0.87297 0.0
C530 C 0.28246 0.03867 0.85946 0.0
C531 C 0.2613 0.06426 0.87375 0.0
C532 C 0.30397 0.05832 0.84232 0.0
C533 C 0.25902 0.01124 0.8493 0.0
C534 C 0.26776 0.97788 0.85601 0.0
C535 C 0.24895 0.94843 0.84939 0.0
C536 C 0.22045 0.95323 0.83555 0.0
C537 C 0.21115 0.9872 0.82843 0.0
C538 C 0.23088 0.01647 0.83535 0.0
H539 H 0.11397 0.32407 0.36835 0.0
H540 H 0.11376 0.28312 0.43344 0.0
H541 H 0.09657 0.2248 0.41932 0.0
H542 H 0.04152 0.27346 0.34794 0.0
H543 H 0.06144 0.26657 0.32184 0.0
H544 H 0.07155 0.30551 0.3372 0.0
H545 H 0.13785 0.29084 0.33484 0.0
H546 H 0.12797 0.25208 0.31931 0.0
H547 H 0.15303 0.24858 0.34373 0.0
H548 H 0.08011 0.17085 0.39786 0.0
H549 H 0.0693 0.12455 0.37077 0.0
H550 H 0.08519 0.20039 0.31966 0.0
C551 C 0.1107 0.3028 0.37965 0.0
C552 C 0.11596 0.30796 0.40198 0.0
C553 C 0.11039 0.2796 0.41624 0.0
C554 C 0.10048 0.24647 0.40839 0.0
C555 C 0.09622 0.24218 0.38623 0.0
C556 C 0.1014 0.26953 0.37207 0.0
C557 C 0.0968 0.25773 0.34892 0.0
C558 C 0.06599 0.27696 0.33836 0.0
C559 C 0.13095 0.26259 0.33594 0.0
C560 C 0.08854 0.21934 0.35224 0.0
C561 C 0.08783 0.21098 0.37387 0.0
C562 C 0.08084 0.17705 0.38086 0.0
C563 C 0.07501 0.15086 0.36531 0.0
C564 C 0.0767 0.15859 0.34298 0.0
C565 C 0.08321 0.1935 0.33652 0.0
H566 H 0.7832 0.07416 0.89871 0.0
H567 H 0.77851 0.9685 0.92401 0.0
H568 H 0.81254 0.94688 0.89256 0.0
H569 H 0.7807 0.05042 0.84064 0.0
H570 H 0.81156 0.08431 0.83357 0.0
H571 H 0.78234 0.09045 0.85624 0.0
H572 H 0.83556 0.10239 0.88102 0.0
H573 H 0.86486 0.0963 0.85849 0.0
H574 H 0.87023 0.07035 0.88242 0.0
H575 H 0.85151 0.93782 0.8602 0.0
H576 H 0.89513 0.94255 0.8307 0.0
H577 H 0.87632 0.05457 0.82752 0.0
C578 C 0.78891 0.0464 0.89743 0.0
C579 C 0.77832 0.02296 0.91375 0.0
C580 C 0.78638 0.98684 0.91163 0.0
C581 C 0.80554 0.97433 0.89381 0.0
C582 C 0.81637 0.99831 0.87826 0.0
C583 C 0.80836 0.0336 0.87992 0.0
C584 C 0.8259 0.05445 0.8622 0.0
C585 C 0.79848 0.07087 0.84728 0.0
C586 C 0.85061 0.08251 0.8716 0.0
C587 C 0.84608 0.02559 0.85078 0.0
C588 C 0.8396 0.99326 0.85996 0.0
C589 C 0.85645 0.96291 0.85271 0.0
C590 C 0.88107 0.96581 0.83593 0.0
C591 C 0.88894 0.9989 0.82687 0.0
C592 C 0.87073 0.02897 0.83418 0.0
H593 H 0.99288 0.76008 0.4138 0.0
H594 H 0.08806 0.69852 0.40637 0.0
H595 H 0.10441 0.73372 0.3745 0.0
H596 H 0.97535 0.77249 0.35733 0.0
H597 H 0.96018 0.81691 0.3611 0.0
H598 H 0.95502 0.78551 0.38245 0.0
H599 H 0.98842 0.82689 0.40854 0.0
H600 H 0.99362 0.85843 0.3873 0.0
H601 H 0.03157 0.84218 0.40122 0.0
H602 H 0.11126 0.77712 0.34425 0.0
H603 H 0.10895 0.8265 0.31865 0.0
H604 H 0.00996 0.85996 0.34683 0.0
C605 C 0.01729 0.7539 0.4057 0.0
C606 C 0.03972 0.72695 0.413 0.0
C607 C 0.07089 0.71951 0.4013 0.0
C608 C 0.0803 0.73923 0.38316 0.0
C609 C 0.05809 0.76619 0.37681 0.0
C610 C 0.02728 0.77357 0.38775 0.0
C611 C 0.0087 0.80483 0.3782 0.0
C612 C 0.97268 0.79429 0.36923 0.0
C613 C 0.0054 0.83485 0.3948 0.0
C614 C 0.03403 0.8141 0.36028 0.0
C615 C 0.06219 0.79131 0.35958 0.0
C616 C 0.08924 0.79502 0.34457 0.0
C617 C 0.08762 0.82301 0.33004 0.0
C618 C 0.05928 0.84702 0.33077 0.0
C619 C 0.03207 0.84218 0.34599 0.0
loop_
_geom_bond_atom_site_label_1
_geom_bond_atom_site_label_2
_geom_bond_distance
_geom_bond_site_symmetry_2
_ccdc_geom_bond_type
C0 C1 1.560 . S
C0 H61 0.959 . S
C0 H62 0.959 . S
C0 H63 0.960 . S
C1 C0 1.560 . S
C1 O56 1.426 . S
C1 H60 0.980 . S
C2 C3 1.407 1_545 S
C2 C7 1.418 . S
C2 O56 1.334 . S
C3 C2 1.407 1_565 S
C3 C4 1.360 . S
C3 H64 0.929 . S
C4 C3 1.360 . S
C4 C5 1.401 1_565 S
C4 C8 1.527 . S
C5 C4 1.401 1_545 S
C5 C6 1.405 . S
C5 C38 1.587 1_545 S
C6 C5 1.405 . S
C6 C7 1.332 . S
C6 C9 1.496 . S
C7 C2 1.418 . S
C7 C6 1.332 . S
C7 H65 0.929 . S
C8 C4 1.527 . S
C8 H66 0.959 . S
C8 H67 0.961 . S
C8 H68 0.961 . S
C9 C6 1.496 . S
C9 H69 0.960 . S
C9 H70 0.960 . S
C9 H71 0.961 . S
C10 C11 1.517 . S
C10 H73 0.961 . S
C10 H74 0.960 . S
C10 H75 0.959 . S
C11 C10 1.517 . S
C11 O59 1.468 . S
C11 H72 0.980 1_565 S
C12 C13 1.349 . S
C12 C17 1.367 . S
C12 O59 1.408 . S
C13 C12 1.349 . S
C13 C14 1.407 1_565 S
C13 H76 0.930 1_565 S
C14 C13 1.407 1_545 S
C14 C15 1.449 1_545 S
C14 C18 1.535 . S
C15 C14 1.449 1_565 S
C15 C16 1.384 . S
C15 C40 1.553 . S
C16 C15 1.384 . S
C16 C17 1.364 . S
C16 C19 1.450 . S
C17 C12 1.367 . S
C17 C16 1.364 . S
C17 H77 0.931 . S
C18 C14 1.535 . S
C18 H78 0.959 . S
C18 H79 0.961 . S
C18 H80 0.959 . S
C19 C16 1.450 . S
C19 H81 0.960 . S
C19 H82 0.960 . S
C19 H83 0.960 . S
C20 C21 1.309 1_565 S
C20 C25 1.304 . S
C20 O58 1.435 . S
C21 C20 1.309 1_545 S
C21 C22 1.476 . S
C21 H85 0.930 . S
C22 C21 1.476 . S
C22 C23 1.400 1_545 S
C22 C26 1.567 . S
C23 C22 1.400 1_565 S
C23 C24 1.373 . S
C23 C45 1.432 . S
C24 C23 1.373 . S
C24 C25 1.339 . S
C24 C27 1.530 . S
C25 C20 1.304 . S
C25 C24 1.339 . S
C25 H86 0.930 . S
C26 C22 1.567 . S
C26 H87 0.961 . S
C26 H88 0.960 . S
C26 H89 0.958 . S
C27 C24 1.530 . S
C27 H90 0.961 . S
C27 H91 0.960 . S
C27 H92 0.960 . S
C28 C29 1.530 . S
C28 H94 0.961 . S
C28 H95 0.961 . S
C28 H96 0.959 . S
C29 C28 1.530 . S
C29 O57 1.412 . S
C29 H93 0.980 . S
C30 C31 1.288 . S
C30 C35 1.377 1_545 S
C30 O57 1.393 . S
C31 C30 1.288 . S
C31 C32 1.369 . S
C31 H97 0.932 . S
C32 C31 1.369 . S
C32 C33 1.398 . S
C32 C36 1.527 . S
C33 C32 1.398 . S
C33 C34 1.380 1_545 S
C33 C47 1.494 1_545 S
C34 C33 1.380 1_565 S
C34 C35 1.383 . S
C34 C37 1.603 . S
C35 C30 1.377 1_565 S
C35 C34 1.383 . S
C35 H98 0.929 . S
C36 C32 1.527 . S
C36 H99 0.961 . S
C36 H100 0.959 . S
C36 H101 0.959 . S
C37 C34 1.603 . S
C37 H102 0.960 . S
C37 H103 0.962 . S
C37 H104 0.961 . S
C38 C5 1.587 1_565 S
C38 C39 1.360 . S
C38 C51 1.412 . S
C39 C38 1.360 . S
C39 C40 1.365 . S
C39 H105 0.929 . S
C40 C15 1.553 . S
C40 C39 1.365 . S
C40 C41 1.404 . S
C41 C40 1.404 . S
C41 C42 1.395 . S
C41 C52 1.451 . S
C42 C41 1.395 . S
C42 C43 1.322 . S
C42 H106 0.930 . S
C43 C42 1.322 . S
C43 C44 1.459 1_554 S
C43 H107 0.929 1_554 S
C44 C43 1.459 1_556 S
C44 C45 1.445 . S
C44 C53 1.395 1_556 S
C45 C23 1.432 . S
C45 C44 1.445 . S
C45 C46 1.370 . S
C46 C45 1.370 . S
C46 C47 1.439 . S
C46 H108 0.930 . S
C47 C33 1.494 1_565 S
C47 C46 1.439 . S
C47 C48 1.362 . S
C48 C47 1.362 . S
C48 C49 1.399 1_566 S
C48 C53 1.446 1_556 S
C49 C48 1.399 1_544 S
C49 C50 1.345 1_545 S
C49 H109 0.932 1_554 S
C50 C49 1.345 1_565 S
C50 C51 1.461 . S
C50 H110 0.927 1_565 S
C51 C38 1.412 . S
C51 C50 1.461 . S
C51 C52 1.331 . S
C52 C41 1.451 . S
C52 C51 1.331 . S
C52 C53 1.497 . S
C53 C44 1.395 1_554 S
C53 C48 1.446 1_554 S
C53 C52 1.497 . S
C54 C55 1.582 . S
C54 H111 0.962 . S
C54 H112 0.959 . S
C54 H113 0.958 . S
C55 C54 1.582 . S
C55 O58 1.458 . S
C55 H84 0.980 1_565 S
O56 C1 1.426 . S
O56 C2 1.334 . S
O57 C29 1.412 . S
O57 C30 1.393 . S
O58 C20 1.435 . S
O58 C55 1.458 . S
O59 C11 1.468 . S
O59 C12 1.408 . S
H60 C1 0.980 . S
H61 C0 0.959 . S
H62 C0 0.959 . S
H63 C0 0.960 . S
H64 C3 0.929 . S
H65 C7 0.929 . S
H66 C8 0.959 . S
H67 C8 0.961 . S
H68 C8 0.961 . S
H69 C9 0.960 . S
H70 C9 0.960 . S
H71 C9 0.961 . S
H72 C11 0.980 1_545 S
H73 C10 0.961 . S
H74 C10 0.960 . S
H75 C10 0.959 . S
H76 C13 0.930 1_545 S
H77 C17 0.931 . S
H78 C18 0.959 . S
H79 C18 0.961 . S
H80 C18 0.959 . S
H81 C19 0.960 . S
H82 C19 0.960 . S
H83 C19 0.960 . S
H84 C55 0.980 1_545 S
H85 C21 0.930 . S
H86 C25 0.930 . S
H87 C26 0.961 . S
H88 C26 0.960 . S
H89 C26 0.958 . S
H90 C27 0.961 . S
H91 C27 0.960 . S
H92 C27 0.960 . S
H93 C29 0.980 . S
H94 C28 0.961 . S
H95 C28 0.961 . S
H96 C28 0.959 . S
H97 C31 0.932 . S
H98 C35 0.929 . S
H99 C36 0.961 . S
H100 C36 0.959 . S
H101 C36 0.959 . S
H102 C37 0.960 . S
H103 C37 0.962 . S
H104 C37 0.961 . S
H105 C39 0.929 . S
H106 C42 0.930 . S
H107 C43 0.929 1_556 S
H108 C46 0.930 . S
H109 C49 0.932 1_556 S
H110 C50 0.927 1_545 S
H111 C54 0.962 . S
H112 C54 0.959 . S
H113 C54 0.958 . S
C114 C115 1.560 . S
C114 H175 0.959 . S
C114 H176 0.959 . S
C114 H177 0.960 . S
C115 C114 1.560 . S
C115 O170 1.426 . S
C115 H174 0.980 . S
C116 C117 1.407 . S
C116 C121 1.418 . S
C116 O170 1.334 . S
C117 C116 1.407 . S
C117 C118 1.360 . S
C117 H178 0.929 . S
C118 C117 1.360 . S
C118 C119 1.401 . S
C118 C122 1.527 1_455 S
C119 C118 1.401 . S
C119 C120 1.405 . S
C119 C152 1.587 . S
C120 C119 1.405 . S
C120 C121 1.332 . S
C120 C123 1.496 . S
C121 C116 1.418 . S
C121 C120 1.332 . S
C121 H179 0.929 . S
C122 C118 1.527 1_655 S
C122 H180 0.959 . S
C122 H181 0.961 . S
C122 H182 0.961 . S
C123 C120 1.496 . S
C123 H183 0.960 . S
C123 H184 0.960 . S
C123 H185 0.961 . S
C124 C125 1.517 . S
C124 H187 0.961 . S
C124 H188 0.960 . S
C124 H189 0.959 . S
C125 C124 1.517 . S
C125 O173 1.468 . S
C125 H186 0.980 . S
C126 C127 1.349 . S
C126 C131 1.367 1_455 S
C126 O173 1.408 . S
C127 C126 1.349 . S
C127 C128 1.407 . S
C127 H190 0.930 . S
C128 C127 1.407 . S
C128 C129 1.449 . S
C128 C132 1.535 . S
C129 C128 1.449 . S
C129 C130 1.384 1_455 S
C129 C154 1.553 . S
C130 C129 1.384 1_655 S
C130 C131 1.364 . S
C130 C133 1.450 . S
C131 C126 1.367 1_655 S
C131 C130 1.364 . S
C131 H191 0.931 . S
C132 C128 1.535 . S
C132 H192 0.959 . S
C132 H193 0.961 . S
C132 H194 0.959 . S
C133 C130 1.450 . S
C133 H195 0.960 . S
C133 H196 0.960 . S
C133 H197 0.960 . S
C134 C135 1.309 . S
C134 C139 1.304 . S
C134 O172 1.435 . S
C135 C134 1.309 . S
C135 C136 1.476 . S
C135 H199 0.930 . S
C136 C135 1.476 . S
C136 C137 1.400 . S
C136 C140 1.567 . S
C137 C136 1.400 . S
C137 C138 1.373 . S
C137 C159 1.432 . S
C138 C137 1.373 . S
C138 C139 1.339 . S
C138 C141 1.530 1_455 S
C139 C134 1.304 . S
C139 C138 1.339 . S
C139 H200 0.930 1_455 S
C140 C136 1.567 . S
C140 H201 0.961 . S
C140 H202 0.960 . S
C140 H203 0.958 . S
C141 C138 1.530 1_655 S
C141 H204 0.961 . S
C141 H205 0.960 . S
C141 H206 0.960 . S
C142 C143 1.530 . S
C142 H208 0.961 . S
C142 H209 0.961 . S
C142 H210 0.959 . S
C143 C142 1.530 . S
C143 O171 1.412 . S
C143 H207 0.980 . S
C144 C145 1.288 . S
C144 C149 1.377 . S
C144 O171 1.393 . S
C145 C144 1.288 . S
C145 C146 1.369 . S
C145 H211 0.932 . S
C146 C145 1.369 . S
C146 C147 1.398 . S
C146 C150 1.527 . S
C147 C146 1.398 . S
C147 C148 1.380 . S
C147 C161 1.497 . S
C148 C147 1.380 . S
C148 C149 1.383 . S
C148 C151 1.633 . S
C149 C144 1.377 . S
C149 C148 1.383 . S
C149 H212 0.929 . S
C150 C146 1.527 . S
C150 H213 0.961 . S
C150 H214 0.959 . S
C150 H215 0.959 . S
C151 C148 1.633 . S
C151 H216 0.942 1_455 S
C151 H217 0.958 1_455 S
C151 H218 0.954 1_455 S
C152 C119 1.587 . S
C152 C153 1.360 . S
C152 C165 1.412 . S
C153 C152 1.360 . S
C153 C154 1.365 . S
C153 H219 0.929 . S
C154 C129 1.553 . S
C154 C153 1.365 . S
C154 C155 1.404 . S
C155 C154 1.404 . S
C155 C156 1.395 . S
C155 C166 1.451 . S
C156 C155 1.395 . S
C156 C157 1.322 . S
C156 H220 0.930 . S
C157 C156 1.322 . S
C157 C158 1.459 . S
C157 H221 0.929 . S
C158 C157 1.459 . S
C158 C159 1.445 . S
C158 C167 1.395 . S
C159 C137 1.432 . S
C159 C158 1.445 . S
C159 C160 1.370 . S
C160 C159 1.370 . S
C160 C161 1.438 . S
C160 H222 0.930 . S
C161 C147 1.497 . S
C161 C160 1.438 . S
C161 C162 1.360 . S
C162 C161 1.360 . S
C162 C163 1.401 . S
C162 C167 1.446 . S
C163 C162 1.401 . S
C163 C164 1.347 . S
C163 H223 0.929 . S
C164 C163 1.347 . S
C164 C165 1.455 . S
C164 H224 0.930 . S
C165 C152 1.412 . S
C165 C164 1.455 . S
C165 C166 1.331 . S
C166 C155 1.451 . S
C166 C165 1.331 . S
C166 C167 1.497 . S
C167 C158 1.395 . S
C167 C162 1.446 . S
C167 C166 1.497 . S
C168 C169 1.582 . S
C168 H225 0.962 . S
C168 H226 0.959 . S
C168 H227 0.958 . S
C169 C168 1.582 . S
C169 O172 1.458 . S
C169 H198 0.980 . S
O170 C115 1.426 . S
O170 C116 1.334 . S
O171 C143 1.412 . S
O171 C144 1.393 . S
O172 C134 1.435 . S
O172 C169 1.458 . S
O173 C125 1.468 . S
O173 C126 1.408 . S
H174 C115 0.980 . S
H175 C114 0.959 . S
H176 C114 0.959 . S
H177 C114 0.960 . S
H178 C117 0.929 . S
H179 C121 0.929 . S
H180 C122 0.959 . S
H181 C122 0.961 . S
H182 C122 0.961 . S
H183 C123 0.960 . S
H184 C123 0.960 . S
H185 C123 0.961 . S
H186 C125 0.980 . S
H187 C124 0.961 . S
H188 C124 0.960 . S
H189 C124 0.959 . S
H190 C127 0.930 . S
H191 C131 0.931 . S
H192 C132 0.959 . S
H193 C132 0.961 . S
H194 C132 0.959 . S
H195 C133 0.960 . S
H196 C133 0.960 . S
H197 C133 0.960 . S
H198 C169 0.980 . S
H199 C135 0.930 . S
H200 C139 0.930 1_655 S
H201 C140 0.961 . S
H202 C140 0.960 . S
H203 C140 0.958 . S
H204 C141 0.961 . S
H205 C141 0.960 . S
H206 C141 0.960 . S
H207 C143 0.980 . S
H208 C142 0.961 . S
H209 C142 0.961 . S
H210 C142 0.959 . S
H211 C145 0.932 . S
H212 C149 0.929 . S
H213 C150 0.961 . S
H214 C150 0.959 . S
H215 C150 0.959 . S
H216 C151 0.942 1_655 S
H217 C151 0.958 1_655 S
H218 C151 0.954 1_655 S
H219 C153 0.929 . S
H220 C156 0.930 . S
H221 C157 0.929 . S
H222 C160 0.930 . S
H223 C163 0.929 . S
H224 C164 0.930 . S
H225 C168 0.962 . S
H226 C168 0.959 . S
H227 C168 0.958 . S
Li228 N245 1.990 . S
Li228 O288 1.956 . S
Li228 O289 1.970 . S
Li228 O290 1.961 . S
Li229 N253 1.990 . S
Li229 O288 1.970 1_565 S
Li229 O289 1.956 1_565 S
Li229 O291 1.961 . S
Li230 N275 1.990 . S
Li230 O288 1.961 . S
Li230 O290 1.956 . S
Li230 O291 1.970 1_545 S
Li231 N281 1.990 1_455 S
Li231 O289 1.961 . S
Li231 O290 1.970 . S
Li231 O291 1.956 1_545 S
C232 C234 1.348 1_545 S
C232 C235 1.356 . S
C232 O288 1.325 . S
N233 C236 1.314 1_545 S
N233 C237 1.279 . S
C234 C232 1.348 1_565 S
C234 C236 1.353 . S
C234 H292 0.929 . S
C235 C232 1.356 . S
C235 C237 1.358 . S
C235 H293 0.930 . S
C236 N233 1.314 1_565 S
C236 C234 1.353 . S
C236 H294 0.930 . S
C237 N233 1.279 . S
C237 C235 1.358 . S
C237 H295 0.930 . S
C238 C241 1.348 . S
C238 C242 1.356 1_545 S
C238 O289 1.325 1_655 S
C239 N240 1.279 1_565 S
C239 C242 1.358 . S
C239 H296 0.930 . S
N240 C239 1.279 1_545 S
N240 C243 1.314 . S
C241 C238 1.348 . S
C241 C243 1.353 . S
C241 H297 0.929 1_655 S
C242 C238 1.356 1_565 S
C242 C239 1.358 . S
C242 H298 0.930 . S
C243 N240 1.314 . S
C243 C241 1.353 . S
C243 H299 0.930 . S
C244 N245 1.314 . S
C244 C249 1.353 . S
C244 H250 0.930 . S
N245 Li228 1.990 . S
N245 C244 1.314 . S
N245 C247 1.279 . S
C246 C247 1.358 . S
C246 C248 1.356 . S
C246 H300 0.930 . S
C247 N245 1.279 . S
C247 C246 1.358 . S
C247 H251 0.930 . S
C248 C246 1.356 . S
C248 C249 1.348 . S
C249 C244 1.353 . S
C249 C248 1.348 . S
C249 H301 0.929 . S
H250 C244 0.930 . S
H251 C247 0.930 . S
C252 N253 1.314 . S
C252 C254 1.353 . S
C252 H258 0.930 . S
N253 Li229 1.990 . S
N253 C252 1.314 . S
N253 C256 1.279 . S
C254 C252 1.353 . S
C254 C257 1.348 . S
C254 H302 0.929 . S
C255 C256 1.358 . S
C255 C257 1.356 . S
C255 H303 0.930 . S
C256 N253 1.279 . S
C256 C255 1.358 . S
C256 H259 0.930 . S
C257 C254 1.348 . S
C257 C255 1.356 . S
H258 C252 0.930 . S
H259 C256 0.930 . S
C260 C262 1.348 . S
C260 C263 1.356 . S
C260 O290 1.325 . S
N261 C264 1.314 . S
N261 C265 1.279 . S
C262 C260 1.348 . S
C262 C264 1.353 . S
C262 H304 0.929 . S
C263 C260 1.356 . S
C263 C265 1.358 . S
C263 H305 0.930 . S
C264 N261 1.314 . S
C264 C262 1.353 . S
C264 H306 0.930 . S
C265 N261 1.279 . S
C265 C263 1.358 . S
C265 H307 0.930 . S
C266 C267 1.348 . S
C266 C268 1.356 . S
C266 O291 1.325 . S
C267 C266 1.348 . S
C267 C269 1.353 . S
C267 H308 0.929 . S
C268 C266 1.356 . S
C268 C270 1.358 . S
C268 H309 0.930 . S
C269 C267 1.353 . S
C269 N271 1.314 . S
C269 H310 0.930 . S
C270 C268 1.358 . S
C270 N271 1.279 . S
C270 H311 0.930 . S
N271 C269 1.314 . S
N271 C270 1.279 . S
C272 C274 1.353 . S
C272 N275 1.314 1_565 S
C272 H278 0.930 . S
C273 N275 1.279 . S
C273 C276 1.358 . S
C273 H279 0.930 . S
C274 C272 1.353 . S
C274 C277 1.348 1_565 S
C274 H312 0.929 . S
N275 Li230 1.990 . S
N275 C272 1.314 1_545 S
N275 C273 1.279 . S
C276 C273 1.358 . S
C276 C277 1.356 . S
C276 H313 0.930 . S
C277 C274 1.348 1_545 S
C277 C276 1.356 . S
H278 C272 0.930 . S
H279 C273 0.930 . S
C280 N281 1.314 . S
C280 C282 1.353 . S
C280 H286 0.930 . S
N281 Li231 1.990 1_655 S
N281 C280 1.314 . S
N281 C284 1.279 1_545 S
C282 C280 1.353 . S
C282 C285 1.348 . S
C282 H314 0.929 . S
C283 C284 1.358 . S
C283 C285 1.356 1_565 S
C283 H315 0.930 . S
C284 N281 1.279 1_565 S
C284 C283 1.358 . S
C284 H287 0.916 1_655 S
C285 C282 1.348 . S
C285 C283 1.356 1_545 S
H286 C280 0.930 . S
H287 C284 0.916 1_455 S
O288 Li228 1.956 . S
O288 Li229 1.970 1_545 S
O288 Li230 1.961 . S
O288 C232 1.325 . S
O289 Li228 1.970 . S
O289 Li229 1.956 1_545 S
O289 Li231 1.961 . S
O289 C238 1.325 1_455 S
O290 Li228 1.961 . S
O290 Li230 1.956 . S
O290 Li231 1.970 . S
O290 C260 1.325 . S
O291 Li229 1.961 . S
O291 Li230 1.970 1_565 S
O291 Li231 1.956 1_565 S
O291 C266 1.325 . S
H292 C234 0.929 . S
H293 C235 0.930 . S
H294 C236 0.930 . S
H295 C237 0.930 . S
H296 C239 0.930 . S
H297 C241 0.929 1_455 S
H298 C242 0.930 . S
H299 C243 0.930 . S
H300 C246 0.930 . S
H301 C249 0.929 . S
H302 C254 0.929 . S
H303 C255 0.930 . S
H304 C262 0.929 . S
H305 C263 0.930 . S
H306 C264 0.930 . S
H307 C265 0.930 . S
H308 C267 0.929 . S
H309 C268 0.930 . S
H310 C269 0.930 . S
H311 C270 0.930 . S
H312 C274 0.929 . S
H313 C276 0.930 . S
H314 C282 0.929 . S
H315 C283 0.930 . S
Li316 N333 1.990 1_455 S
Li316 O376 1.956 . S
Li316 O377 1.970 1_545 S
Li316 O378 1.961 . S
Li317 N341 1.990 . S
Li317 O376 1.970 . S
Li317 O377 1.956 1_545 S
Li317 O379 1.961 . S
Li318 N363 1.990 . S
Li318 O376 1.961 . S
Li318 O378 1.956 . S
Li318 O379 1.970 . S
Li319 N369 1.990 . S
Li319 O377 1.961 . S
Li319 O378 1.970 1_565 S
Li319 O379 1.956 1_565 S
C320 C322 1.348 . S
C320 C323 1.356 . S
C320 O376 1.325 . S
N321 C324 1.314 . S
N321 C325 1.279 . S
C322 C320 1.348 . S
C322 C324 1.353 . S
C322 H380 0.929 . S
C323 C320 1.356 . S
C323 C325 1.358 . S
C323 H381 0.930 . S
C324 N321 1.314 . S
C324 C322 1.353 . S
C324 H382 0.930 . S
C325 N321 1.279 . S
C325 C323 1.358 . S
C325 H383 0.930 . S
C326 C329 1.348 . S
C326 C330 1.356 . S
C326 O377 1.325 . S
C327 N328 1.279 . S
C327 C330 1.358 . S
C327 H384 0.930 . S
N328 C327 1.279 . S
N328 C331 1.314 . S
C329 C326 1.348 . S
C329 C331 1.353 . S
C329 H385 0.929 . S
C330 C326 1.356 . S
C330 C327 1.358 . S
C330 H386 0.930 . S
C331 N328 1.314 . S
C331 C329 1.353 . S
C331 H387 0.930 . S
C332 N333 1.314 1_565 S
C332 C337 1.353 . S
C332 H338 0.930 . S
N333 Li316 1.990 1_655 S
N333 C332 1.314 1_545 S
N333 C335 1.279 . S
C334 C335 1.358 . S
C334 C336 1.356 . S
C334 H388 0.930 . S
C335 N333 1.279 . S
C335 C334 1.358 . S
C335 H339 0.930 . S
C336 C334 1.356 . S
C336 C337 1.348 1_545 S
C337 C332 1.353 . S
C337 C336 1.348 1_565 S
C337 H389 0.929 . S
H338 C332 0.930 . S
H339 C335 0.930 . S
C340 N341 1.314 . S
C340 C342 1.353 . S
C340 H346 0.930 . S
N341 Li317 1.990 . S
N341 C340 1.314 . S
N341 C344 1.279 1_545 S
C342 C340 1.353 . S
C342 C345 1.348 . S
C342 H390 0.929 . S
C343 C344 1.358 . S
C343 C345 1.356 1_565 S
C343 H391 0.930 . S
C344 N341 1.279 1_565 S
C344 C343 1.358 . S
C344 H347 0.930 . S
C345 C342 1.348 . S
C345 C343 1.356 1_545 S
H346 C340 0.930 . S
H347 C344 0.930 . S
C348 C350 1.348 1_545 S
C348 C351 1.356 . S
C348 O378 1.325 1_655 S
N349 C352 1.314 1_545 S
N349 C353 1.279 . S
C350 C348 1.348 1_565 S
C350 C352 1.353 . S
C350 H392 0.929 1_655 S
C351 C348 1.356 . S
C351 C353 1.358 . S
C351 H393 0.930 . S
C352 N349 1.314 1_565 S
C352 C350 1.353 . S
C352 H394 0.930 . S
C353 N349 1.279 . S
C353 C351 1.358 . S
C353 H395 0.930 . S
C354 C355 1.348 . S
C354 C356 1.356 1_545 S
C354 O379 1.325 . S
C355 C354 1.348 . S
C355 C357 1.353 . S
C355 H396 0.929 . S
C356 C354 1.356 1_565 S
C356 C358 1.358 . S
C356 H397 0.930 . S
C357 C355 1.353 . S
C357 N359 1.314 . S
C357 H398 0.930 . S
C358 C356 1.358 . S
C358 N359 1.279 1_565 S
C358 H399 0.930 . S
N359 C357 1.314 . S
N359 C358 1.279 1_545 S
C360 C362 1.353 . S
C360 N363 1.314 . S
C360 H366 0.930 . S
C361 N363 1.279 . S
C361 C364 1.358 . S
C361 H367 0.930 . S
C362 C360 1.353 . S
C362 C365 1.348 . S
C362 H400 0.929 . S
N363 Li318 1.990 . S
N363 C360 1.314 . S
N363 C361 1.279 . S
C364 C361 1.358 . S
C364 C365 1.356 . S
C364 H401 0.930 . S
C365 C362 1.348 . S
C365 C364 1.356 . S
H366 C360 0.930 . S
H367 C361 0.930 . S
C368 N369 1.314 . S
C368 C370 1.353 . S
C368 H374 0.930 . S
N369 Li319 1.990 . S
N369 C368 1.314 . S
N369 C372 1.279 . S
C370 C368 1.353 . S
C370 C373 1.348 . S
C370 H402 0.929 . S
C371 C372 1.358 . S
C371 C373 1.356 . S
C371 H403 0.930 . S
C372 N369 1.279 . S
C372 C371 1.358 . S
C372 H375 0.930 . S
C373 C370 1.348 . S
C373 C371 1.356 . S
H374 C368 0.930 . S
H375 C372 0.930 . S
O376 Li316 1.956 . S
O376 Li317 1.970 . S
O376 Li318 1.961 . S
O376 C320 1.325 . S
O377 Li316 1.970 1_565 S
O377 Li317 1.956 1_565 S
O377 Li319 1.961 . S
O377 C326 1.325 . S
O378 Li316 1.961 . S
O378 Li318 1.956 . S
O378 Li319 1.970 1_545 S
O378 C348 1.325 1_455 S
O379 Li317 1.961 . S
O379 Li318 1.970 . S
O379 Li319 1.956 1_545 S
O379 C354 1.325 . S
H380 C322 0.929 . S
H381 C323 0.930 . S
H382 C324 0.930 . S
H383 C325 0.930 . S
H384 C327 0.930 . S
H385 C329 0.929 . S
H386 C330 0.930 . S
H387 C331 0.930 . S
H388 C334 0.930 . S
H389 C337 0.929 . S
H390 C342 0.929 . S
H391 C343 0.930 . S
H392 C350 0.929 1_455 S
H393 C351 0.930 . S
H394 C352 0.930 . S
H395 C353 0.930 . S
H396 C355 0.929 . S
H397 C356 0.930 . S
H398 C357 0.930 . S
H399 C358 0.930 . S
H400 C362 0.929 . S
H401 C364 0.930 . S
H402 C370 0.929 . S
H403 C371 0.930 . S
H404 C416 0.930 . S
H405 C418 0.930 . S
H406 C419 0.930 . S
H407 C423 0.959 . S
H408 C423 0.959 . S
H409 C423 0.961 . S
H410 C424 0.960 . S
H411 C424 0.961 . S
H412 C424 0.959 . S
H413 C427 0.929 . S
H414 C428 0.931 . S
H415 C430 0.930 . S
C416 H404 0.930 . S
C416 C417 1.403 . S
C416 C421 1.399 . S
C417 C416 1.403 . S
C417 C418 1.373 1_545 S
C418 H405 0.930 . S
C418 C417 1.373 1_565 S
C418 C419 1.388 . S
C419 H406 0.930 . S
C419 C418 1.388 . S
C419 C420 1.390 . S
C420 C419 1.390 . S
C420 C421 1.394 1_565 S
C420 C426 1.465 . S
C421 C416 1.399 . S
C421 C420 1.394 1_545 S
C421 C422 1.516 . S
C422 C421 1.516 . S
C422 C423 1.502 . S
C422 C424 1.561 . S
C422 C425 1.526 . S
C423 H407 0.959 . S
C423 H408 0.959 . S
C423 H409 0.961 . S
C423 C422 1.502 . S
C424 H410 0.960 . S
C424 H411 0.961 . S
C424 H412 0.959 . S
C424 C422 1.561 . S
C425 C422 1.526 . S
C425 C426 1.396 1_545 S
C425 C430 1.390 . S
C426 C420 1.465 . S
C426 C425 1.396 1_565 S
C426 C427 1.399 . S
C427 H413 0.929 . S
C427 C426 1.399 . S
C427 C428 1.385 . S
C428 H414 0.931 . S
C428 C427 1.385 . S
C428 C429 1.389 1_565 S
C429 C428 1.389 1_545 S
C429 C430 1.387 . S
C430 H415 0.930 . S
C430 C425 1.390 . S
C430 C429 1.387 . S
H431 C443 0.930 . S
H432 C445 0.930 . S
H433 C446 0.930 . S
H434 C450 0.959 1_655 S
H435 C450 0.959 1_655 S
H436 C450 0.952 1_655 S
H437 C451 0.960 . S
H438 C451 0.961 . S
H439 C451 0.959 . S
H440 C454 0.929 . S
H441 C455 0.931 . S
H442 C457 0.930 . S
C443 H431 0.930 . S
C443 C444 1.399 . S
C443 C448 1.399 . S
C444 C443 1.399 . S
C444 C445 1.376 . S
C445 H432 0.930 . S
C445 C444 1.376 . S
C445 C446 1.388 . S
C446 H433 0.930 . S
C446 C445 1.388 . S
C446 C447 1.390 . S
C447 C446 1.390 . S
C447 C448 1.394 . S
C447 C453 1.465 . S
C448 C443 1.399 . S
C448 C447 1.394 . S
C448 C449 1.516 . S
C449 C448 1.516 . S
C449 C450 1.502 . S
C449 C451 1.561 . S
C449 C452 1.526 . S
C450 H434 0.959 1_455 S
C450 H435 0.959 1_455 S
C450 H436 0.952 1_455 S
C450 C449 1.502 . S
C451 H437 0.960 . S
C451 H438 0.961 . S
C451 H439 0.959 . S
C451 C449 1.561 . S
C452 C449 1.526 . S
C452 C453 1.396 . S
C452 C457 1.390 . S
C453 C447 1.465 . S
C453 C452 1.396 . S
C453 C454 1.399 . S
C454 H440 0.929 . S
C454 C453 1.399 . S
C454 C455 1.385 . S
C455 H441 0.931 . S
C455 C454 1.385 . S
C455 C456 1.389 . S
C456 C455 1.389 . S
C456 C457 1.387 . S
C457 H442 0.930 . S
C457 C452 1.390 . S
C457 C456 1.387 . S
H458 C470 0.930 . S
H459 C472 0.930 . S
H460 C473 0.930 . S
H461 C477 0.959 . S
H462 C477 0.959 . S
H463 C477 0.961 . S
H464 C478 0.960 . S
H465 C478 0.961 . S
H466 C478 0.959 . S
H467 C481 0.929 . S
H468 C482 0.931 . S
H469 C484 0.930 . S
C470 H458 0.930 . S
C470 C471 1.399 1_565 S
C470 C475 1.399 . S
C471 C470 1.399 1_545 S
C471 C472 1.376 . S
C472 H459 0.930 . S
C472 C471 1.376 . S
C472 C473 1.388 . S
C473 H460 0.930 . S
C473 C472 1.388 . S
C473 C474 1.390 . S
C474 C473 1.390 . S
C474 C475 1.394 1_545 S
C474 C480 1.465 . S
C475 C470 1.399 . S
C475 C474 1.394 1_565 S
C475 C476 1.516 . S
C476 C475 1.516 . S
C476 C477 1.502 . S
C476 C478 1.561 . S
C476 C479 1.526 . S
C477 H461 0.959 . S
C477 H462 0.959 . S
C477 H463 0.961 . S
C477 C476 1.502 . S
C478 H464 0.960 . S
C478 H465 0.961 . S
C478 H466 0.959 . S
C478 C476 1.561 . S
C479 C476 1.526 . S
C479 C480 1.396 1_565 S
C479 C484 1.390 . S
C480 C474 1.465 . S
C480 C479 1.396 1_545 S
C480 C481 1.399 . S
C481 H467 0.929 . S
C481 C480 1.399 . S
C481 C482 1.385 . S
C482 H468 0.931 . S
C482 C481 1.385 . S
C482 C483 1.389 . S
C483 C482 1.389 . S
C483 C484 1.387 1_545 S
C484 H469 0.930 . S
C484 C479 1.390 . S
C484 C483 1.387 1_565 S
H485 C497 0.930 . S
H486 C499 0.930 . S
H487 C500 0.930 . S
H488 C504 0.959 . S
H489 C504 0.959 . S
H490 C504 0.961 . S
H491 C505 0.960 . S
H492 C505 0.961 . S
H493 C505 0.959 . S
H494 C508 0.929 . S
H495 C509 0.931 . S
H496 C511 0.930 . S
C497 H485 0.930 . S
C497 C498 1.399 . S
C497 C502 1.399 . S
C498 C497 1.399 . S
C498 C499 1.376 . S
C499 H486 0.930 . S
C499 C498 1.376 . S
C499 C500 1.388 . S
C500 H487 0.930 . S
C500 C499 1.388 . S
C500 C501 1.390 . S
C501 C500 1.390 . S
C501 C502 1.394 . S
C501 C507 1.465 . S
C502 C497 1.399 . S
C502 C501 1.394 . S
C502 C503 1.516 . S
C503 C502 1.516 . S
C503 C504 1.502 . S
C503 C505 1.561 . S
C503 C506 1.526 . S
C504 H488 0.959 . S
C504 H489 0.959 . S
C504 H490 0.961 . S
C504 C503 1.502 . S
C505 H491 0.960 . S
C505 H492 0.961 . S
C505 H493 0.959 . S
C505 C503 1.561 . S
C506 C503 1.526 . S
C506 C507 1.396 . S
C506 C511 1.390 . S
C507 C501 1.465 . S
C507 C506 1.396 . S
C507 C508 1.399 . S
C508 H494 0.929 . S
C508 C507 1.399 . S
C508 C509 1.385 . S
C509 H495 0.931 . S
C509 C508 1.385 . S
C509 C510 1.389 . S
C510 C509 1.389 . S
C510 C511 1.387 . S
C511 H496 0.930 . S
C511 C506 1.390 . S
C511 C510 1.387 . S
H512 C524 0.930 . S
H513 C526 0.930 . S
H514 C527 0.930 . S
H515 C531 0.959 . S
H516 C531 0.959 . S
H517 C531 0.961 . S
H518 C532 0.960 . S
H519 C532 0.961 . S
H520 C532 0.959 . S
H521 C535 0.929 . S
H522 C536 0.931 . S
H523 C538 0.930 . S
C524 H512 0.930 . S
C524 C525 1.399 . S
C524 C529 1.399 . S
C525 C524 1.399 . S
C525 C526 1.376 1_545 S
C526 H513 0.930 . S
C526 C525 1.376 1_565 S
C526 C527 1.388 . S
C527 H514 0.930 . S
C527 C526 1.388 . S
C527 C528 1.390 . S
C528 C527 1.390 . S
C528 C529 1.394 1_565 S
C528 C534 1.465 . S
C529 C524 1.399 . S
C529 C528 1.394 1_545 S
C529 C530 1.516 . S
C530 C529 1.516 . S
C530 C531 1.502 . S
C530 C532 1.561 . S
C530 C533 1.526 . S
C531 H515 0.959 . S
C531 H516 0.959 . S
C531 H517 0.961 . S
C531 C530 1.502 . S
C532 H518 0.960 . S
C532 H519 0.961 . S
C532 H520 0.959 . S
C532 C530 1.561 . S
C533 C530 1.526 . S
C533 C534 1.396 1_545 S
C533 C538 1.390 . S
C534 C528 1.465 . S
C534 C533 1.396 1_565 S
C534 C535 1.399 . S
C535 H521 0.929 . S
C535 C534 1.399 . S
C535 C536 1.385 . S
C536 H522 0.931 . S
C536 C535 1.385 . S
C536 C537 1.389 1_565 S
C537 C536 1.389 1_545 S
C537 C538 1.387 . S
C538 H523 0.930 . S
C538 C533 1.390 . S
C538 C537 1.387 . S
H539 C551 0.930 . S
H540 C553 0.930 . S
H541 C554 0.930 . S
H542 C558 0.959 . S
H543 C558 0.959 . S
H544 C558 0.961 . S
H545 C559 0.960 . S
H546 C559 0.961 . S
H547 C559 0.959 . S
H548 C562 0.929 . S
H549 C563 0.931 . S
H550 C565 0.930 . S
C551 H539 0.930 . S
C551 C552 1.399 . S
C551 C556 1.399 . S
C552 C551 1.399 . S
C552 C553 1.376 . S
C553 H540 0.930 . S
C553 C552 1.376 . S
C553 C554 1.388 . S
C554 H541 0.930 . S
C554 C553 1.388 . S
C554 C555 1.390 . S
C555 C554 1.390 . S
C555 C556 1.394 . S
C555 C561 1.465 . S
C556 C551 1.399 . S
C556 C555 1.394 . S
C556 C557 1.516 . S
C557 C556 1.516 . S
C557 C558 1.502 . S
C557 C559 1.561 . S
C557 C560 1.526 . S
C558 H542 0.959 . S
C558 H543 0.959 . S
C558 H544 0.961 . S
C558 C557 1.502 . S
C559 H545 0.960 . S
C559 H546 0.961 . S
C559 H547 0.959 . S
C559 C557 1.561 . S
C560 C557 1.526 . S
C560 C561 1.396 . S
C560 C565 1.390 . S
C561 C555 1.465 . S
C561 C560 1.396 . S
C561 C562 1.399 . S
C562 H548 0.929 . S
C562 C561 1.399 . S
C562 C563 1.385 . S
C563 H549 0.931 . S
C563 C562 1.385 . S
C563 C564 1.389 . S
C564 C563 1.389 . S
C564 C565 1.387 . S
C565 H550 0.930 . S
C565 C560 1.390 . S
C565 C564 1.387 . S
H566 C578 0.930 . S
H567 C580 0.930 . S
H568 C581 0.930 . S
H569 C585 0.959 . S
H570 C585 0.959 . S
H571 C585 0.961 . S
H572 C586 0.960 . S
H573 C586 0.961 . S
H574 C586 0.959 . S
H575 C589 0.929 . S
H576 C590 0.931 . S
H577 C592 0.930 . S
C578 H566 0.930 . S
C578 C579 1.399 1_545 S
C578 C583 1.399 . S
C579 C578 1.399 1_565 S
C579 C580 1.376 . S
C580 H567 0.930 . S
C580 C579 1.376 . S
C580 C581 1.388 . S
C581 H568 0.930 . S
C581 C580 1.388 . S
C581 C582 1.390 . S
C582 C581 1.390 . S
C582 C583 1.394 1_565 S
C582 C588 1.465 . S
C583 C578 1.399 . S
C583 C582 1.394 1_545 S
C583 C584 1.516 . S
C584 C583 1.516 . S
C584 C585 1.502 . S
C584 C586 1.561 . S
C584 C587 1.526 . S
C585 H569 0.959 . S
C585 H570 0.959 . S
C585 H571 0.961 . S
C585 C584 1.502 . S
C586 H572 0.960 . S
C586 H573 0.961 . S
C586 H574 0.959 . S
C586 C584 1.561 . S
C587 C584 1.526 . S
C587 C588 1.396 1_545 S
C587 C592 1.390 . S
C588 C582 1.465 . S
C588 C587 1.396 1_565 S
C588 C589 1.399 . S
C589 H575 0.929 . S
C589 C588 1.399 . S
C589 C590 1.385 . S
C590 H576 0.931 . S
C590 C589 1.385 . S
C590 C591 1.389 1_565 S
C591 C590 1.389 1_545 S
C591 C592 1.387 . S
C592 H577 0.930 . S
C592 C587 1.390 . S
C592 C591 1.387 . S
H593 C605 0.930 . S
H594 C607 0.930 . S
H595 C608 0.930 . S
H596 C612 0.959 . S
H597 C612 0.959 . S
H598 C612 0.961 . S
H599 C613 0.960 . S
H600 C613 0.961 . S
H601 C613 0.959 . S
H602 C616 0.929 . S
H603 C617 0.931 . S
H604 C619 0.930 . S
C605 H593 0.930 . S
C605 C606 1.399 . S
C605 C610 1.399 . S
C606 C605 1.399 . S
C606 C607 1.376 . S
C607 H594 0.930 . S
C607 C606 1.376 . S
C607 C608 1.388 . S
C608 H595 0.930 . S
C608 C607 1.388 . S
C608 C609 1.390 . S
C609 C608 1.390 . S
C609 C610 1.394 . S
C609 C615 1.465 . S
C610 C605 1.399 . S
C610 C609 1.394 . S
C610 C611 1.516 . S
C611 C610 1.516 . S
C611 C612 1.502 1_455 S
C611 C613 1.561 . S
C611 C614 1.526 . S
C612 H596 0.959 . S
C612 H597 0.959 . S
C612 H598 0.961 . S
C612 C611 1.502 1_655 S
C613 H599 0.960 . S
C613 H600 0.961 . S
C613 H601 0.959 . S
C613 C611 1.561 . S
C614 C611 1.526 . S
C614 C615 1.396 . S
C614 C619 1.390 . S
C615 C609 1.465 . S
C615 C614 1.396 . S
C615 C616 1.399 . S
C616 H602 0.929 . S
C616 C615 1.399 . S
C616 C617 1.385 . S
C617 H603 0.931 . S
C617 C616 1.385 . S
C617 C618 1.389 . S
C618 C617 1.389 . S
C618 C619 1.387 . S
C619 H604 0.930 . S
C619 C614 1.390 . S
C619 C618 1.387 . S
C429 C277 1.469 . S
C417 C11 0.946 1_545 S
C456 C365 1.312 . S
C444 C115 0.965 . S
C483 C285 1.307 . S
C471 C1 1.073 . S
C510 C373 1.479 . S
C498 C125 0.793 . S
C537 C345 1.566 . S
C525 C55 1.132 1_545 S
C564 C248 1.400 . S
C552 C143 1.020 . S
C591 C336 1.403 . S
C579 C29 1.101 1_565 S
C606 C169 1.222 . S
C618 C257 1.570 . S
