# Generated by pormake.
# Topology hwx, (6,3)-cn, num edge types: 1
# Building blocks:
#     Node 0, Type 0, BuildingBlock: IZENUY_clean_sbu_0, # of connection points: 6
#     Node 1, Type 0, BuildingBlock: IZENUY_clean_sbu_0, # of connection points: 6
#     Node 2, Type 0, BuildingBlock: IZENUY_clean_sbu_0, # of connection points: 6
#     Node 3, Type 0, BuildingBlock: IZENUY_clean_sbu_0, # of connection points: 6
#     Node 4, Type 1, BuildingBlock: KAKCAD_clean_linker_0, # of connection points: 3
#     Node 5, Type 1, BuildingBlock: KAKCAD_clean_linker_0, # of connection points: 3
#     Node 6, Type 1, BuildingBlock: KAKCAD_clean_linker_0, # of connection points: 3
#     Node 7, Type 1, BuildingBlock: KAKCAD_clean_linker_0, # of connection points: 3
#     Node 8, Type 1, BuildingBlock: KAKCAD_clean_linker_0, # of connection points: 3
#     Node 9, Type 1, BuildingBlock: KAKCAD_clean_linker_0, # of connection points: 3
#     Node 10, Type 1, BuildingBlock: KAKCAD_clean_linker_0, # of connection points: 3
#     Node 11, Type 1, BuildingBlock: KAKCAD_clean_linker_0, # of connection points: 3
#     Edge 12, Type (0, 1), BuildingBlock: OJICUG_clean_linker_0, # of connection points: 2
#     Edge 13, Type (0, 1), BuildingBlock: OJICUG_clean_linker_0, # of connection points: 2
#     Edge 14, Type (0, 1), BuildingBlock: OJICUG_clean_linker_0, # of connection points: 2
#     Edge 15, Type (0, 1), BuildingBlock: OJICUG_clean_linker_0, # of connection points: 2
#     Edge 16, Type (0, 1), BuildingBlock: OJICUG_clean_linker_0, # of connection points: 2
#     Edge 17, Type (0, 1), BuildingBlock: OJICUG_clean_linker_0, # of connection points: 2
#     Edge 18, Type (0, 1), BuildingBlock: OJICUG_clean_linker_0, # of connection points: 2
#     Edge 19, Type (0, 1), BuildingBlock: OJICUG_clean_linker_0, # of connection points: 2
#     Edge 20, Type (0, 1), BuildingBlock: OJICUG_clean_linker_0, # of connection points: 2
#     Edge 21, Type (0, 1), BuildingBlock: OJICUG_clean_linker_0, # of connection points: 2
#     Edge 22, Type (0, 1), BuildingBlock: OJICUG_clean_linker_0, # of connection points: 2
#     Edge 23, Type (0, 1), BuildingBlock: OJICUG_clean_linker_0, # of connection points: 2
#     Edge 24, Type (0, 1), BuildingBlock: OJICUG_clean_linker_0, # of connection points: 2
#     Edge 25, Type (0, 1), BuildingBlock: OJICUG_clean_linker_0, # of connection points: 2
#     Edge 26, Type (0, 1), BuildingBlock: OJICUG_clean_linker_0, # of connection points: 2
#     Edge 27, Type (0, 1), BuildingBlock: OJICUG_clean_linker_0, # of connection points: 2
#     Edge 28, Type (0, 1), BuildingBlock: OJICUG_clean_linker_0, # of connection points: 2
#     Edge 29, Type (0, 1), BuildingBlock: OJICUG_clean_linker_0, # of connection points: 2
#     Edge 30, Type (0, 1), BuildingBlock: OJICUG_clean_linker_0, # of connection points: 2
#     Edge 31, Type (0, 1), BuildingBlock: OJICUG_clean_linker_0, # of connection points: 2
#     Edge 32, Type (0, 1), BuildingBlock: OJICUG_clean_linker_0, # of connection points: 2
#     Edge 33, Type (0, 1), BuildingBlock: OJICUG_clean_linker_0, # of connection points: 2
#     Edge 34, Type (0, 1), BuildingBlock: OJICUG_clean_linker_0, # of connection points: 2
#     Edge 35, Type (0, 1), BuildingBlock: OJICUG_clean_linker_0, # of connection points: 2
# Relax obj value: 0.051
# Max RMSD: 0.075
# Mean RMSD: 0.068
data_MOF--net-hwx--node1-IZENUY_clean_sbu_0--node2-KAKCAD_clean_linker_0--edge1-OJICUG_clean_linker_0
_symmetry_space_group_name_H-M    P1
_symmetry_Int_Tables_number       1
_symmetry_cell_setting            triclinic
loop_
_symmetry_equiv_pos_as_xyz
'x, y, z'
_cell_length_a     45.587082
_cell_length_b     45.431258
_cell_length_c     22.004143
_cell_angle_alpha  89.801562
_cell_angle_beta   90.241149
_cell_angle_gamma 90.021897
loop_
_atom_site_label
_atom_site_type_symbol
_atom_site_fract_x
_atom_site_fract_y
_atom_site_fract_z
_atom_type_partial_charge
Fe0 Fe 0.24376 0.21713 0.06686 0.0
Fe1 Fe 0.24238 0.21913 0.92782 0.0
O2 O 0.23361 0.20097 0.99673 0.0
Fe3 Fe 0.21454 0.16684 0.99518 0.0
O4 O 0.1843 0.18158 0.03906 0.0
O5 O 0.21165 0.20369 0.10787 0.0
O6 O 0.22276 0.25006 0.05079 0.0
C7 C 0.22618 0.26617 0.00472 0.0
C8 C 0.25572 0.15942 0.09151 0.0
O9 O 0.23942 0.25656 0.95844 0.0
C10 C 0.25211 0.15896 0.90031 0.0
O11 O 0.27776 0.23355 0.03808 0.0
O12 O 0.28131 0.21751 0.94424 0.0
O13 O 0.23253 0.15196 0.06357 0.0
O14 O 0.26534 0.18538 0.08851 0.0
C15 C 0.18681 0.2004 0.9025 0.0
O16 O 0.24694 0.1852 0.88392 0.0
O17 O 0.24337 0.14957 0.95113 0.0
C18 C 0.29303 0.22779 0.99166 0.0
O19 O 0.20405 0.22197 0.90742 0.0
O20 O 0.19304 0.17576 0.92652 0.0
C21 C 0.18695 0.19477 0.08909 0.0
Fe22 Fe 0.25334 0.71603 0.5792 0.0
Fe23 Fe 0.28002 0.66455 0.50822 0.0
O24 O 0.26024 0.69811 0.50951 0.0
Fe25 Fe 0.24728 0.71392 0.44102 0.0
O26 O 0.26891 0.747 0.45297 0.0
O27 O 0.25458 0.75332 0.54718 0.0
O28 O 0.29216 0.71978 0.59417 0.0
C29 C 0.31 0.69863 0.59719 0.0
C30 C 0.20066 0.72357 0.52216 0.0
O31 O 0.30384 0.67394 0.57343 0.0
C32 C 0.23463 0.65603 0.42118 0.0
O33 O 0.25127 0.68204 0.62409 0.0
O34 O 0.25326 0.64654 0.55664 0.0
O35 O 0.21472 0.73052 0.47484 0.0
O36 O 0.21385 0.71346 0.56826 0.0
C37 C 0.30289 0.69167 0.40819 0.0
O38 O 0.25954 0.6493 0.44317 0.0
O39 O 0.22494 0.68195 0.42512 0.0
C40 C 0.24615 0.65578 0.60839 0.0
O41 O 0.30819 0.6802 0.45935 0.0
O42 O 0.27726 0.70001 0.39439 0.0
C43 C 0.26696 0.76292 0.49967 0.0
Fe44 Fe 0.75077 0.79936 0.93581 0.0
Fe45 Fe 0.75373 0.79568 0.07473 0.0
O46 O 0.76152 0.8147 0.0064 0.0
Fe47 Fe 0.77999 0.84907 0.00858 0.0
O48 O 0.76092 0.86431 0.94175 0.0
O49 O 0.72784 0.83093 0.91837 0.0
O50 O 0.71786 0.78109 0.96511 0.0
C51 C 0.70284 0.78583 0.01227 0.0
C52 C 0.80632 0.82442 0.91025 0.0
O53 O 0.71463 0.79621 0.05946 0.0
C54 C 0.80884 0.81574 0.10072 0.0
O55 O 0.77307 0.7667 0.94857 0.0
O56 O 0.75783 0.75897 0.04193 0.0
O57 O 0.80996 0.83508 0.96262 0.0
O58 O 0.78152 0.81494 0.89337 0.0
C59 C 0.74225 0.85513 0.10399 0.0
O60 O 0.79222 0.79374 0.09494 0.0
O61 O 0.80227 0.84015 0.07617 0.0
C62 C 0.77096 0.75025 0.99475 0.0
O63 O 0.74825 0.82899 0.11973 0.0
O64 O 0.7513 0.86544 0.05423 0.0
C65 C 0.73699 0.85715 0.91622 0.0
Fe66 Fe 0.71499 0.34787 0.49003 0.0
Fe67 Fe 0.74184 0.29557 0.55929 0.0
O68 O 0.7332 0.31336 0.48974 0.0
Fe69 Fe 0.74272 0.29643 0.42008 0.0
O70 O 0.76544 0.32739 0.39791 0.0
O71 O 0.73355 0.36185 0.42173 0.0
O72 O 0.74419 0.36488 0.53416 0.0
C73 C 0.75314 0.35556 0.58501 0.0
C74 C 0.68715 0.32179 0.39416 0.0
O75 O 0.74759 0.32955 0.60206 0.0
C76 C 0.7234 0.24866 0.48443 0.0
O77 O 0.69329 0.34 0.55856 0.0
O78 O 0.7036 0.2939 0.58061 0.0
O79 O 0.71145 0.31115 0.3776 0.0
O80 O 0.68438 0.33355 0.44566 0.0
C81 C 0.79183 0.28482 0.49551 0.0
O82 O 0.73759 0.25823 0.52972 0.0
O83 O 0.72045 0.26422 0.43715 0.0
C84 C 0.68698 0.31596 0.58491 0.0
O85 O 0.78072 0.29603 0.54245 0.0
O86 O 0.77605 0.27884 0.44971 0.0
C87 C 0.75654 0.35365 0.39427 0.0
C88 C 0.19269 0.55343 0.79664 0.0
C89 C 0.20635 0.58103 0.8036 0.0
C90 C 0.18352 0.53731 0.84764 0.0
C91 C 0.18816 0.54827 0.90673 0.0
C92 C 0.2014 0.57609 0.91307 0.0
C93 C 0.20979 0.59237 0.86249 0.0
C94 C 0.18134 0.5305 0.96219 0.0
C95 C 0.18509 0.49981 0.96311 0.0
C96 C 0.18372 0.48392 0.01809 0.0
C97 C 0.18029 0.49936 0.07301 0.0
C98 C 0.17678 0.5301 0.07296 0.0
C99 C 0.17481 0.54483 0.0169 0.0
C100 C 0.1792 0.54757 0.13018 0.0
C101 C 0.16961 0.53652 0.1867 0.0
C102 C 0.19331 0.57518 0.12881 0.0
C103 C 0.19741 0.59135 0.18166 0.0
C104 C 0.18833 0.58012 0.23775 0.0
C105 C 0.18791 0.45144 0.01806 0.0
C106 C 0.17513 0.43411 0.97217 0.0
C107 C 0.20516 0.43757 0.06292 0.0
C108 C 0.20968 0.40717 0.06161 0.0
C109 C 0.19728 0.38999 0.01516 0.0
C110 C 0.17985 0.40375 0.97061 0.0
C111 C 0.17447 0.55255 0.24023 0.0
H112 H 0.18968 0.54393 0.752 0.0
H113 H 0.17313 0.51616 0.84065 0.0
H114 H 0.20624 0.58526 0.95732 0.0
H115 H 0.21937 0.61387 0.87 0.0
H116 H 0.19066 0.48835 0.92167 0.0
H117 H 0.16993 0.56814 0.01623 0.0
H118 H 0.18124 0.48751 0.11571 0.0
H119 H 0.15856 0.51549 0.18978 0.0
H120 H 0.20219 0.58415 0.08714 0.0
H121 H 0.2087 0.61231 0.17897 0.0
H122 H 0.16137 0.44403 0.93746 0.0
H123 H 0.21581 0.45026 0.09825 0.0
H124 H 0.16743 0.54351 0.28338 0.0
H125 H 0.16975 0.39099 0.93467 0.0
H126 H 0.22356 0.3972 0.09605 0.0
C127 C 0.91623 0.78813 0.30063 0.0
C128 C 0.89764 0.81226 0.28929 0.0
C129 C 0.93331 0.78692 0.35358 0.0
C130 C 0.93205 0.80974 0.39648 0.0
C131 C 0.91423 0.8343 0.38411 0.0
C132 C 0.89725 0.83555 0.33119 0.0
C133 C 0.94785 0.80724 0.45554 0.0
C134 C 0.97671 0.79646 0.45848 0.0
C135 C 0.99115 0.79319 0.51477 0.0
C136 C 0.97642 0.80097 0.56832 0.0
C137 C 0.94757 0.81167 0.56629 0.0
C138 C 0.93351 0.81473 0.50968 0.0
C139 C 0.93145 0.81823 0.62322 0.0
C140 C 0.93385 0.79945 0.67403 0.0
C141 C 0.91216 0.84231 0.6259 0.0
C142 C 0.89439 0.84649 0.67662 0.0
C143 C 0.89576 0.82685 0.72596 0.0
C144 C 0.02141 0.78113 0.51805 0.0
C145 C 0.02971 0.75742 0.48103 0.0
C146 C 0.04209 0.79293 0.55888 0.0
C147 C 0.07046 0.78142 0.56231 0.0
C148 C 0.07882 0.75802 0.52466 0.0
C149 C 0.05813 0.74605 0.48419 0.0
C150 C 0.91625 0.80382 0.72506 0.0
H151 H 0.91728 0.76997 0.26895 0.0
H152 H 0.9467 0.76762 0.36193 0.0
H153 H 0.91305 0.8524 0.41593 0.0
H154 H 0.88298 0.85434 0.32425 0.0
H155 H 0.98805 0.79102 0.41683 0.0
H156 H 0.91083 0.82185 0.50787 0.0
H157 H 0.9873 0.79829 0.61185 0.0
H158 H 0.94826 0.78052 0.6733 0.0
H159 H 0.91026 0.85756 0.58814 0.0
H160 H 0.87894 0.86459 0.67658 0.0
H161 H 0.01416 0.74744 0.44996 0.0
H162 H 0.03655 0.81145 0.58746 0.0
H163 H 0.91748 0.7882 0.7623 0.0
H164 H 0.06392 0.7278 0.45504 0.0
H165 H 0.0861 0.79139 0.59321 0.0
C166 C 0.7775 0.45644 0.19039 0.0
C167 C 0.79576 0.43223 0.20373 0.0
C168 C 0.78249 0.47395 0.13918 0.0
C169 C 0.80557 0.4675 0.0994 0.0
C170 C 0.82417 0.44371 0.11286 0.0
C171 C 0.8195 0.42643 0.16473 0.0
C172 C 0.80893 0.48454 0.04223 0.0
C173 C 0.80802 0.51542 0.04286 0.0
C174 C 0.80827 0.53165 0.98831 0.0
C175 C 0.80948 0.51656 0.93275 0.0
C176 C 0.81021 0.48566 0.93132 0.0
C177 C 0.81044 0.46984 0.98634 0.0
C178 C 0.80771 0.46972 0.87276 0.0
C179 C 0.78661 0.47833 0.82945 0.0
C180 C 0.82463 0.44448 0.86181 0.0
C181 C 0.81965 0.42747 0.80999 0.0
C182 C 0.79747 0.4352 0.76823 0.0
C183 C 0.80528 0.56421 0.9892 0.0
C184 C 0.78502 0.57755 0.02832 0.0
C185 C 0.82191 0.58212 0.95004 0.0
C186 C 0.81838 0.61273 0.95022 0.0
C187 C 0.79815 0.62603 0.98957 0.0
C188 C 0.78147 0.60803 0.02845 0.0
C189 C 0.78151 0.46124 0.77781 0.0
H190 H 0.75862 0.46135 0.21822 0.0
H191 H 0.76754 0.49191 0.12938 0.0
H192 H 0.84226 0.4384 0.08307 0.0
H193 H 0.8344 0.40839 0.1739 0.0
H194 H 0.80693 0.5268 0.08602 0.0
H195 H 0.80989 0.44599 0.98564 0.0
H196 H 0.80884 0.52884 0.89044 0.0
H197 H 0.77296 0.49747 0.83698 0.0
H198 H 0.84131 0.43756 0.89402 0.0
H199 H 0.83272 0.40785 0.8034 0.0
H200 H 0.77139 0.56436 0.05805 0.0
H201 H 0.83785 0.57248 0.91966 0.0
H202 H 0.76401 0.46766 0.7471 0.0
H203 H 0.76521 0.61747 0.05837 0.0
H204 H 0.83174 0.62599 0.92011 0.0
C205 C 0.07202 0.1929 0.71239 0.0
C206 C 0.09872 0.20839 0.71506 0.0
C207 C 0.05501 0.19331 0.65923 0.0
C208 C 0.0647 0.20885 0.60778 0.0
C209 C 0.09112 0.22468 0.61097 0.0
C210 C 0.10791 0.22445 0.66392 0.0
C211 C 0.04788 0.20851 0.55012 0.0
C212 C 0.01784 0.21497 0.54907 0.0
C213 C 0.0027 0.21776 0.49346 0.0
C214 C 0.01806 0.21372 0.43867 0.0
C215 C 0.04821 0.20738 0.43922 0.0
C216 C 0.06265 0.20408 0.49524 0.0
C217 C 0.06544 0.20658 0.38205 0.0
C218 C 0.05463 0.19288 0.32927 0.0
C219 C 0.09327 0.21982 0.38038 0.0
C220 C 0.11022 0.2188 0.32806 0.0
C221 C 0.09968 0.205 0.27522 0.0
C222 C 0.97143 0.22699 0.49282 0.0
C223 C 0.95171 0.21607 0.53643 0.0
C224 C 0.96132 0.24768 0.44989 0.0
C225 C 0.93222 0.2572 0.45056 0.0
C226 C 0.91265 0.24647 0.49448 0.0
C227 C 0.92265 0.22581 0.53741 0.0
C228 C 0.07162 0.19206 0.27631 0.0
H229 H 0.06437 0.18045 0.75128 0.0
H230 H 0.03469 0.18095 0.65782 0.0
H231 H 0.0989 0.23718 0.57223 0.0
H232 H 0.12855 0.23628 0.66421 0.0
H233 H 0.00668 0.21939 0.59146 0.0
H234 H 0.0858 0.19859 0.49629 0.0
H235 H 0.00678 0.2164 0.39558 0.0
H236 H 0.03328 0.18242 0.32916 0.0
H237 H 0.10209 0.23112 0.4197 0.0
H238 H 0.13192 0.22848 0.3296 0.0
H239 H 0.95869 0.19986 0.56967 0.0
H240 H 0.97603 0.25707 0.41653 0.0
H241 H 0.06277 0.1814 0.2363 0.0
H242 H 0.90789 0.2169 0.57127 0.0
H243 H 0.92516 0.27341 0.41738 0.0
C244 C 0.68226 0.96207 0.72994 0.0
C245 C 0.69816 0.9356 0.72819 0.0
C246 C 0.67784 0.97855 0.67651 0.0
C247 C 0.68965 0.96891 0.62097 0.0
C248 C 0.7066 0.94299 0.62065 0.0
C249 C 0.71045 0.92641 0.67328 0.0
C250 C 0.68466 0.98513 0.5628 0.0
C251 C 0.68568 0.01606 0.55943 0.0
C252 C 0.68507 0.03054 0.50254 0.0
C253 C 0.68395 0.01363 0.44903 0.0
C254 C 0.68323 0.98283 0.45188 0.0
C255 C 0.68178 0.96905 0.5088 0.0
C256 C 0.68793 0.96467 0.39674 0.0
C257 C 0.67503 0.97185 0.34037 0.0
C258 C 0.70679 0.94024 0.40032 0.0
C259 C 0.71212 0.92301 0.34956 0.0
C260 C 0.69907 0.92987 0.2935 0.0
C261 C 0.68787 0.06313 0.49849 0.0
C262 C 0.67293 0.08151 0.53926 0.0
C263 C 0.70573 0.0761 0.45377 0.0
C264 C 0.70857 0.10664 0.44983 0.0
C265 C 0.69386 0.12499 0.49086 0.0
C266 C 0.67595 0.11212 0.53556 0.0
C267 C 0.68068 0.95461 0.28897 0.0
H268 H 0.67284 0.96964 0.7722 0.0
H269 H 0.6648 0.99843 0.67847 0.0
H270 H 0.71711 0.9354 0.57953 0.0
H271 H 0.7234 0.90643 0.67125 0.0
H272 H 0.68855 0.02875 0.60062 0.0
H273 H 0.67984 0.94529 0.51091 0.0
H274 H 0.68473 0.0244 0.40508 0.0
H275 H 0.66046 0.99057 0.33612 0.0
H276 H 0.71799 0.93463 0.4423 0.0
H277 H 0.727 0.90452 0.35396 0.0
H278 H 0.65877 0.07225 0.5738 0.0
H279 H 0.71812 0.06266 0.42248 0.0
H280 H 0.67045 0.96035 0.24602 0.0
H281 H 0.6642 0.12574 0.5676 0.0
H282 H 0.72301 0.11585 0.41573 0.0
C283 C 0.57502 0.30649 0.20782 0.0
C284 C 0.59689 0.32821 0.20982 0.0
C285 C 0.55737 0.3034 0.15604 0.0
C286 C 0.56118 0.32216 0.1056 0.0
C287 C 0.58169 0.34519 0.10971 0.0
C288 C 0.59947 0.34807 0.16111 0.0
C289 C 0.54569 0.31629 0.04725 0.0
C290 C 0.51639 0.30674 0.04648 0.0
C291 C 0.50245 0.29927 0.9915 0.0
C292 C 0.51806 0.30185 0.93679 0.0
C293 C 0.54727 0.31159 0.93661 0.0
C294 C 0.56088 0.31869 0.99199 0.0
C295 C 0.5641 0.31326 0.87907 0.0
C296 C 0.56259 0.29033 0.83644 0.0
C297 C 0.5827 0.33728 0.86751 0.0
C298 C 0.59999 0.33801 0.8153 0.0
C299 C 0.59912 0.3147 0.77349 0.0
C300 C 0.47185 0.28807 0.99128 0.0
C301 C 0.46247 0.26809 0.03611 0.0
C302 C 0.45191 0.29691 0.94582 0.0
C303 C 0.42327 0.286 0.94521 0.0
C304 C 0.4139 0.26617 0.99024 0.0
C305 C 0.43379 0.25732 0.03568 0.0
C306 C 0.57995 0.29102 0.78425 0.0
H307 H 0.57279 0.29077 0.24466 0.0
H308 H 0.54193 0.28531 0.15429 0.0
H309 H 0.58469 0.36046 0.07233 0.0
H310 H 0.61599 0.36522 0.16195 0.0
H311 H 0.50434 0.30534 0.08873 0.0
H312 H 0.58383 0.32493 0.9922 0.0
H313 H 0.5076 0.2959 0.89425 0.0
H314 H 0.54863 0.2714 0.84427 0.0
H315 H 0.5841 0.35542 0.89923 0.0
H316 H 0.61475 0.35643 0.80871 0.0
H317 H 0.47743 0.26041 0.0711 0.0
H318 H 0.45831 0.31259 0.91114 0.0
H319 H 0.57859 0.27285 0.75261 0.0
H320 H 0.42726 0.24178 0.07054 0.0
H321 H 0.40827 0.29353 0.91016 0.0
C322 C 0.27563 0.05637 0.2947 0.0
C323 C 0.29447 0.08002 0.28102 0.0
C324 C 0.28032 0.03903 0.34627 0.0
C325 C 0.30365 0.04519 0.38601 0.0
C326 C 0.32284 0.06839 0.37225 0.0
C327 C 0.31849 0.08545 0.31993 0.0
C328 C 0.30669 0.02832 0.4433 0.0
C329 C 0.3059 0.9975 0.44246 0.0
C330 C 0.30524 0.98122 0.49685 0.0
C331 C 0.30562 0.99632 0.55262 0.0
C332 C 0.30662 0.02725 0.55417 0.0
C333 C 0.30753 0.04304 0.49916 0.0
C334 C 0.304 0.04338 0.61254 0.0
C335 C 0.28269 0.03513 0.65535 0.0
C336 C 0.32108 0.06856 0.62361 0.0
C337 C 0.31605 0.08587 0.6749 0.0
C338 C 0.2937 0.07849 0.71615 0.0
C339 C 0.3025 0.94861 0.49509 0.0
C340 C 0.28409 0.93508 0.45196 0.0
C341 C 0.31777 0.9308 0.53691 0.0
C342 C 0.31437 0.90021 0.53613 0.0
C343 C 0.29574 0.8868 0.49332 0.0
C344 C 0.28085 0.90454 0.45094 0.0
C345 C 0.27757 0.05251 0.70655 0.0
H346 H 0.25652 0.0518 0.26693 0.0
H347 H 0.26498 0.02148 0.3564 0.0
H348 H 0.34111 0.07339 0.40213 0.0
H349 H 0.33382 0.10306 0.31044 0.0
H350 H 0.30557 0.98624 0.39911 0.0
H351 H 0.30705 0.0669 0.49968 0.0
H352 H 0.30435 0.98407 0.59486 0.0
H353 H 0.26893 0.01604 0.64775 0.0
H354 H 0.33794 0.07522 0.59187 0.0
H355 H 0.32927 0.10542 0.68155 0.0
H356 H 0.27153 0.94813 0.41984 0.0
H357 H 0.33244 0.94047 0.57015 0.0
H358 H 0.25997 0.04634 0.73693 0.0
H359 H 0.26594 0.89488 0.41813 0.0
H360 H 0.32633 0.88703 0.56901 0.0
C361 C 0.42409 0.69318 0.79029 0.0
C362 C 0.39798 0.70945 0.78424 0.0
C363 C 0.44058 0.69451 0.84414 0.0
C364 C 0.43096 0.71179 0.89302 0.0
C365 C 0.40521 0.72845 0.88636 0.0
C366 C 0.38894 0.72731 0.83269 0.0
C367 C 0.44687 0.71191 0.95192 0.0
C368 C 0.47728 0.71663 0.95464 0.0
C369 C 0.49167 0.71912 0.01115 0.0
C370 C 0.4755 0.71577 0.06503 0.0
C371 C 0.44518 0.71095 0.06271 0.0
C372 C 0.43108 0.70895 0.00617 0.0
C373 C 0.42759 0.70975 0.11889 0.0
C374 C 0.43425 0.68969 0.16566 0.0
C375 C 0.40304 0.72808 0.1245 0.0
C376 C 0.3847 0.7256 0.17467 0.0
C377 C 0.39022 0.70441 0.22004 0.0
C378 C 0.52304 0.72753 0.01394 0.0
C379 C 0.54371 0.71392 0.97623 0.0
C380 C 0.53228 0.75013 0.05305 0.0
C381 C 0.56152 0.75922 0.05386 0.0
C382 C 0.58224 0.74582 0.01579 0.0
C383 C 0.57304 0.72286 0.97734 0.0
C384 C 0.41561 0.68694 0.21584 0.0
H385 H 0.43166 0.67934 0.75358 0.0
H386 H 0.46036 0.68143 0.84821 0.0
H387 H 0.39745 0.74222 0.92305 0.0
H388 H 0.36875 0.73981 0.82989 0.0
H389 H 0.48942 0.71995 0.91292 0.0
H390 H 0.4076 0.70515 0.00445 0.0
H391 H 0.48634 0.71778 0.10878 0.0
H392 H 0.45316 0.67537 0.16218 0.0
H393 H 0.39781 0.74411 0.08953 0.0
H394 H 0.36582 0.74 0.17734 0.0
H395 H 0.53721 0.69627 0.94604 0.0
H396 H 0.51671 0.76136 0.0819 0.0
H397 H 0.42043 0.67038 0.24996 0.0
H398 H 0.58852 0.71171 0.94819 0.0
H399 H 0.5677 0.77728 0.08324 0.0
C400 C 0.14158 0.17546 0.13936 0.0
C401 C 0.16157 0.19844 0.12932 0.0
H402 H 0.10647 0.15919 0.19463 0.0
C403 C 0.15877 0.22466 0.16215 0.0
H404 H 0.14342 0.15503 0.11444 0.0
C405 C 0.13731 0.2274 0.20658 0.0
C406 C 0.11868 0.20364 0.2205 0.0
H407 H 0.17366 0.24287 0.15432 0.0
H408 H 0.13599 0.24788 0.23144 0.0
C409 C 0.1204 0.17794 0.18506 0.0
C410 C 0.21269 0.61624 0.64661 0.0
C411 C 0.23701 0.63469 0.65522 0.0
H412 H 0.18317 0.58532 0.6875 0.0
C413 C 0.2523 0.63387 0.71045 0.0
H414 H 0.20066 0.61663 0.60405 0.0
C415 C 0.24307 0.61542 0.75719 0.0
C416 C 0.21764 0.59808 0.75064 0.0
H417 H 0.27148 0.64759 0.71748 0.0
H418 H 0.2558 0.61509 0.79883 0.0
C419 C 0.20285 0.59825 0.69426 0.0
C420 C 0.84021 0.78767 0.17488 0.0
C421 C 0.83382 0.81409 0.14405 0.0
H422 H 0.86514 0.76644 0.24496 0.0
C423 C 0.85034 0.83936 0.15801 0.0
H424 H 0.82802 0.76775 0.16519 0.0
C425 C 0.87179 0.83853 0.20363 0.0
C426 C 0.87728 0.81242 0.23624 0.0
H427 H 0.84618 0.86003 0.1349 0.0
H428 H 0.88375 0.8585 0.21406 0.0
C429 C 0.86167 0.78685 0.22042 0.0
C430 C 0.76935 0.40628 0.61667 0.0
C431 C 0.76706 0.37597 0.62891 0.0
H432 H 0.78125 0.44883 0.65073 0.0
C433 C 0.77695 0.36523 0.6854 0.0
H434 H 0.76211 0.41525 0.57348 0.0
C435 C 0.78772 0.38439 0.72952 0.0
C436 C 0.78903 0.41482 0.71835 0.0
H437 H 0.77567 0.34201 0.69638 0.0
H438 H 0.79391 0.37537 0.77335 0.0
C439 C 0.78019 0.42552 0.66102 0.0
C440 C 0.67081 0.32479 0.28651 0.0
C441 C 0.66345 0.32416 0.34845 0.0
H442 H 0.65551 0.32692 0.19476 0.0
C443 C 0.63376 0.32572 0.36513 0.0
H444 H 0.6935 0.32388 0.27214 0.0
C445 C 0.61182 0.32715 0.32028 0.0
C446 C 0.61941 0.32783 0.25841 0.0
H447 H 0.62752 0.32525 0.41258 0.0
H448 H 0.58901 0.32784 0.3338 0.0
C449 C 0.64909 0.32681 0.24212 0.0
C450 C 0.26689 0.10796 0.86786 0.0
C451 C 0.26507 0.13833 0.85575 0.0
H452 H 0.27775 0.06521 0.83364 0.0
C453 C 0.27453 0.14887 0.79896 0.0
H454 H 0.25993 0.09911 0.91124 0.0
C455 C 0.28459 0.12951 0.75462 0.0
C456 C 0.28555 0.09905 0.76583 0.0
H457 H 0.27355 0.17212 0.78802 0.0
H458 H 0.2906 0.1384 0.71067 0.0
C459 C 0.27697 0.08852 0.8233 0.0
C460 C 0.35581 0.69116 0.3753 0.0
C461 C 0.32579 0.69325 0.36094 0.0
H462 H 0.39999 0.69351 0.34201 0.0
C463 C 0.3174 0.69773 0.30011 0.0
H464 H 0.36291 0.68771 0.42181 0.0
C465 C 0.33837 0.70071 0.25485 0.0
C466 C 0.36841 0.69968 0.26905 0.0
H467 H 0.29447 0.69897 0.28718 0.0
H468 H 0.33094 0.70383 0.20845 0.0
C469 C 0.37698 0.69441 0.32966 0.0
C470 C 0.72998 0.90851 0.87651 0.0
C471 C 0.72267 0.87841 0.87443 0.0
H472 H 0.72721 0.95058 0.83196 0.0
C473 C 0.70373 0.86844 0.82831 0.0
H474 H 0.74434 0.91691 0.91177 0.0
C475 C 0.69421 0.88766 0.78267 0.0
C476 C 0.70294 0.91729 0.78291 0.0
H477 H 0.69761 0.84545 0.82539 0.0
H478 H 0.68107 0.87909 0.74557 0.0
C479 C 0.72004 0.92785 0.83125 0.0
C480 C 0.85959 0.82607 0.88115 0.0
C481 C 0.8298 0.82656 0.86454 0.0
H482 H 0.90419 0.82548 0.84973 0.0
C483 C 0.82215 0.82852 0.80274 0.0
H484 H 0.86601 0.82453 0.92851 0.0
C485 C 0.84374 0.82956 0.75831 0.0
C486 C 0.87349 0.82825 0.77448 0.0
H487 H 0.79937 0.82919 0.78854 0.0
H488 H 0.83709 0.8305 0.711 0.0
C489 C 0.88133 0.82655 0.83628 0.0
C490 C 0.76638 0.40444 0.35509 0.0
C491 C 0.77005 0.37388 0.34957 0.0
H492 H 0.77273 0.44687 0.31513 0.0
C493 C 0.7845 0.3628 0.29825 0.0
H494 H 0.75561 0.41364 0.39449 0.0
C495 C 0.7936 0.38176 0.25179 0.0
C496 C 0.78895 0.41234 0.25603 0.0
H497 H 0.78746 0.33932 0.29247 0.0
H498 H 0.80311 0.37219 0.21143 0.0
C499 C 0.77599 0.42345 0.30923 0.0
C500 C 0.15412 0.23028 0.83485 0.0
C501 C 0.16147 0.20288 0.86059 0.0
H502 H 0.12798 0.25355 0.76967 0.0
C503 C 0.14558 0.17778 0.84285 0.0
H504 H 0.16559 0.25014 0.84816 0.0
C505 C 0.12403 0.17977 0.7976 0.0
C506 C 0.11798 0.2069 0.7694 0.0
H507 H 0.15059 0.15637 0.86204 0.0
H508 H 0.1132 0.15983 0.7826 0.0
C509 C 0.1326 0.23225 0.78981 0.0
C510 C 0.19643 0.64462 0.34274 0.0
C511 C 0.21905 0.63485 0.38155 0.0
H512 H 0.16882 0.63454 0.26656 0.0
C513 C 0.22811 0.60529 0.37835 0.0
H514 H 0.18877 0.66718 0.34417 0.0
C515 C 0.21617 0.58648 0.3345 0.0
C516 C 0.19524 0.59706 0.29297 0.0
H517 H 0.24528 0.59702 0.40799 0.0
H518 H 0.22467 0.56431 0.33047 0.0
C519 C 0.18486 0.62597 0.2985 0.0
C520 C 0.34391 0.7294 0.65997 0.0
C521 C 0.33583 0.70156 0.63778 0.0
H522 H 0.3704 0.75375 0.72252 0.0
C523 C 0.35102 0.67659 0.65899 0.0
H524 H 0.33299 0.74915 0.64394 0.0
C525 C 0.37244 0.67926 0.70443 0.0
C526 C 0.37909 0.70695 0.72933 0.0
H527 H 0.34536 0.65483 0.64274 0.0
H528 H 0.3826 0.65949 0.72233 0.0
C529 C 0.3653 0.73206 0.70512 0.0
C530 C 0.71557 0.86231 0.20133 0.0
C531 C 0.72758 0.87453 0.14824 0.0
H532 H 0.69651 0.87037 0.28822 0.0
C533 C 0.72672 0.90525 0.13999 0.0
H534 H 0.71534 0.83872 0.20867 0.0
C535 C 0.71578 0.92344 0.18587 0.0
C536 C 0.70559 0.91113 0.24048 0.0
H537 H 0.7356 0.91531 0.09932 0.0
H538 H 0.71674 0.94711 0.18 0.0
C539 C 0.7047 0.88041 0.24688 0.0
C540 C 0.64629 0.34054 0.64199 0.0
C541 C 0.66232 0.31496 0.62853 0.0
H542 H 0.61348 0.36045 0.6978 0.0
C543 C 0.65577 0.2888 0.66004 0.0
H544 H 0.65063 0.36103 0.61837 0.0
C545 C 0.63457 0.28853 0.70566 0.0
C546 C 0.61941 0.31439 0.72086 0.0
H547 H 0.6676 0.26865 0.65071 0.0
H548 H 0.63089 0.26828 0.73065 0.0
C549 C 0.62512 0.34027 0.68775 0.0
C550 C 0.26453 0.10835 0.13023 0.0
C551 C 0.26889 0.13879 0.13589 0.0
H552 H 0.27038 0.06576 0.16992 0.0
C553 C 0.28403 0.14954 0.18692 0.0
H554 H 0.25323 0.09942 0.09098 0.0
C555 C 0.29313 0.1304 0.23306 0.0
C556 C 0.28781 0.09995 0.22875 0.0
H557 H 0.28758 0.17295 0.19274 0.0
H558 H 0.30314 0.13976 0.27329 0.0
C559 C 0.27417 0.08911 0.17579 0.0
C560 C 0.20874 0.31041 0.06214 0.0
C561 C 0.21743 0.29751 0.00706 0.0
H562 H 0.19553 0.3498 0.10782 0.0
C563 C 0.2184 0.31506 0.95436 0.0
H564 H 0.20766 0.2975 0.10355 0.0
C565 C 0.21132 0.34494 0.95685 0.0
C566 C 0.20332 0.35797 0.01215 0.0
H567 H 0.22487 0.30579 0.91115 0.0
H568 H 0.21281 0.35801 0.91571 0.0
C569 C 0.20193 0.34038 0.0647 0.0
C570 C 0.15414 0.73364 0.57952 0.0
C571 C 0.169 0.73036 0.52416 0.0
H572 H 0.11372 0.74513 0.62315 0.0
C573 C 0.15359 0.73482 0.46943 0.0
H574 H 0.16545 0.73031 0.62238 0.0
C575 C 0.12418 0.74309 0.46987 0.0
C576 C 0.10949 0.74728 0.52505 0.0
H577 H 0.16436 0.73224 0.42597 0.0
H578 H 0.11317 0.74705 0.42689 0.0
C579 C 0.12464 0.74226 0.57995 0.0
C580 C 0.78321 0.70301 0.04681 0.0
C581 C 0.78081 0.71924 0.99251 0.0
H582 H 0.79125 0.66126 0.08846 0.0
C583 C 0.7864 0.70507 0.93707 0.0
H584 H 0.77954 0.71335 0.09042 0.0
C585 C 0.79288 0.67491 0.93596 0.0
C586 C 0.79401 0.65848 0.99028 0.0
H587 H 0.78476 0.71699 0.89448 0.0
H588 H 0.79591 0.66429 0.89246 0.0
C589 C 0.78981 0.67308 0.04572 0.0
C590 C 0.83649 0.2674 0.44106 0.0
C591 C 0.82296 0.27576 0.49565 0.0
H592 H 0.87538 0.25152 0.39808 0.0
C593 C 0.83929 0.27474 0.54995 0.0
H594 H 0.82456 0.26803 0.39839 0.0
C595 C 0.86841 0.26511 0.5497 0.0
C596 C 0.88183 0.25669 0.49507 0.0
H597 H 0.82949 0.28103 0.59275 0.0
H598 H 0.88053 0.2645 0.59214 0.0
C599 C 0.86563 0.25809 0.44076 0.0
C600 C 0.71176 0.20249 0.54121 0.0
C601 C 0.71324 0.21772 0.48552 0.0
H602 H 0.70447 0.16142 0.58643 0.0
C603 C 0.70629 0.20267 0.43168 0.0
H604 H 0.71674 0.21351 0.58361 0.0
C605 C 0.69925 0.17267 0.4334 0.0
C606 C 0.69869 0.15729 0.48903 0.0
H607 H 0.70713 0.2138 0.38812 0.0
H608 H 0.69457 0.16141 0.39115 0.0
C609 C 0.70449 0.17268 0.54295 0.0
C610 C 0.34047 0.23644 0.93693 0.0
C611 C 0.32434 0.2363 0.99124 0.0
H612 H 0.38153 0.24598 0.89408 0.0
C613 C 0.33818 0.24525 0.04534 0.0
H614 H 0.33047 0.22963 0.8945 0.0
C615 C 0.36734 0.25454 0.04503 0.0
C616 C 0.38329 0.25525 0.9906 0.0
H617 H 0.32642 0.24532 0.08802 0.0
H618 H 0.37722 0.26181 0.08726 0.0
C619 C 0.36963 0.24596 0.93658 0.0
C620 C 0.28251 0.80816 0.44213 0.0
C621 C 0.27623 0.79412 0.49759 0.0
H622 H 0.29376 0.84857 0.39731 0.0
C623 C 0.27803 0.81044 0.55166 0.0
H624 H 0.28144 0.79617 0.39972 0.0
C625 C 0.28518 0.84029 0.55028 0.0
C626 C 0.29054 0.85458 0.49476 0.0
H627 H 0.27355 0.80024 0.59523 0.0
H628 H 0.2856 0.8524 0.5926 0.0
C629 C 0.28944 0.83816 0.44072 0.0
C630 C 0.65634 0.77466 0.06848 0.0
C631 C 0.67184 0.77626 0.0135 0.0
H632 H 0.61621 0.76308 0.11261 0.0
C633 C 0.65762 0.76797 0.9594 0.0
H634 H 0.66671 0.78074 0.111 0.0
C635 C 0.62862 0.75817 0.96021 0.0
C636 C 0.61316 0.75621 0.01521 0.0
H637 H 0.66885 0.76917 0.91617 0.0
H638 H 0.61821 0.75246 0.91752 0.0
C639 C 0.62735 0.76463 0.06935 0.0
loop_
_geom_bond_atom_site_label_1
_geom_bond_atom_site_label_2
_geom_bond_distance
_geom_bond_site_symmetry_2
_ccdc_geom_bond_type
Fe0 O2 1.918 . S
Fe0 O5 1.997 . S
Fe0 O6 2.002 . S
Fe0 O11 1.976 . S
Fe0 O14 1.996 . S
Fe1 O2 1.918 1_556 S
Fe1 O9 1.997 . S
Fe1 O12 1.996 . S
Fe1 O16 1.976 . S
Fe1 O19 2.002 . S
O2 Fe0 1.918 . S
O2 Fe1 1.918 1_554 S
O2 Fe3 1.918 . S
Fe3 O2 1.918 . S
Fe3 O4 2.002 . S
Fe3 O13 1.976 . S
Fe3 O17 1.996 1_554 S
Fe3 O20 1.997 1_554 S
O4 Fe3 2.002 . S
O4 C21 1.295 . S
O5 Fe0 1.997 . S
O5 C21 1.235 . S
O6 Fe0 2.002 . S
O6 C7 1.295 . S
C7 O6 1.295 . S
C7 O9 1.235 1_554 S
C8 O13 1.287 . S
C8 O14 1.255 . S
O9 Fe1 1.997 . S
O9 C7 1.235 1_556 S
C10 O16 1.287 . S
C10 O17 1.255 . S
O11 Fe0 1.976 . S
O11 C18 1.288 . S
O12 Fe1 1.996 . S
O12 C18 1.253 1_556 S
O13 Fe3 1.976 . S
O13 C8 1.287 . S
O14 Fe0 1.996 . S
O14 C8 1.255 . S
C15 O19 1.295 . S
C15 O20 1.235 . S
O16 Fe1 1.976 . S
O16 C10 1.287 . S
O17 Fe3 1.996 1_556 S
O17 C10 1.255 . S
C18 O11 1.288 . S
C18 O12 1.253 1_554 S
O19 Fe1 2.002 . S
O19 C15 1.295 . S
O20 Fe3 1.997 1_556 S
O20 C15 1.235 . S
C21 O4 1.295 . S
C21 O5 1.235 . S
Fe22 O24 1.918 . S
Fe22 O27 1.997 . S
Fe22 O28 2.002 . S
Fe22 O33 1.976 . S
Fe22 O36 1.996 . S
Fe23 O24 1.918 . S
Fe23 O31 1.997 . S
Fe23 O34 1.996 . S
Fe23 O38 1.976 . S
Fe23 O41 2.002 . S
O24 Fe22 1.918 . S
O24 Fe23 1.918 . S
O24 Fe25 1.918 . S
Fe25 O24 1.918 . S
Fe25 O26 2.002 . S
Fe25 O35 1.976 . S
Fe25 O39 1.996 . S
Fe25 O42 1.997 . S
O26 Fe25 2.002 . S
O26 C43 1.295 . S
O27 Fe22 1.997 . S
O27 C43 1.235 . S
O28 Fe22 2.002 . S
O28 C29 1.295 . S
C29 O28 1.295 . S
C29 O31 1.235 . S
C30 O35 1.287 . S
C30 O36 1.255 . S
O31 Fe23 1.997 . S
O31 C29 1.235 . S
C32 O38 1.287 . S
C32 O39 1.255 . S
O33 Fe22 1.976 . S
O33 C40 1.287 . S
O34 Fe23 1.996 . S
O34 C40 1.255 . S
O35 Fe25 1.976 . S
O35 C30 1.287 . S
O36 Fe22 1.996 . S
O36 C30 1.255 . S
C37 O41 1.295 . S
C37 O42 1.235 . S
O38 Fe23 1.976 . S
O38 C32 1.287 . S
O39 Fe25 1.996 . S
O39 C32 1.255 . S
C40 O33 1.287 . S
C40 O34 1.255 . S
O41 Fe23 2.002 . S
O41 C37 1.295 . S
O42 Fe25 1.997 . S
O42 C37 1.235 . S
C43 O26 1.295 . S
C43 O27 1.235 . S
Fe44 O46 1.918 1_556 S
Fe44 O49 1.997 . S
Fe44 O50 2.002 . S
Fe44 O55 1.976 . S
Fe44 O58 1.996 . S
Fe45 O46 1.918 . S
Fe45 O53 1.997 . S
Fe45 O56 1.996 . S
Fe45 O60 1.976 . S
Fe45 O63 2.002 . S
O46 Fe44 1.918 1_554 S
O46 Fe45 1.918 . S
O46 Fe47 1.918 . S
Fe47 O46 1.918 . S
Fe47 O48 2.002 1_554 S
Fe47 O57 1.976 1_554 S
Fe47 O61 1.996 . S
Fe47 O64 1.997 . S
O48 Fe47 2.002 1_556 S
O48 C65 1.295 . S
O49 Fe44 1.997 . S
O49 C65 1.235 . S
O50 Fe44 2.002 . S
O50 C51 1.294 . S
C51 O50 1.294 . S
C51 O53 1.237 1_556 S
C52 O57 1.287 . S
C52 O58 1.255 . S
O53 Fe45 1.997 . S
O53 C51 1.237 1_554 S
C54 O60 1.287 . S
C54 O61 1.255 . S
O55 Fe44 1.976 . S
O55 C62 1.287 1_556 S
O56 Fe45 1.996 . S
O56 C62 1.255 . S
O57 Fe47 1.976 1_556 S
O57 C52 1.287 . S
O58 Fe44 1.996 . S
O58 C52 1.255 . S
C59 O63 1.295 . S
C59 O64 1.235 . S
O60 Fe45 1.976 . S
O60 C54 1.287 . S
O61 Fe47 1.996 . S
O61 C54 1.255 . S
C62 O55 1.287 1_554 S
C62 O56 1.255 . S
O63 Fe45 2.002 . S
O63 C59 1.295 . S
O64 Fe47 1.997 . S
O64 C59 1.235 . S
C65 O48 1.295 . S
C65 O49 1.235 . S
Fe66 O68 1.918 . S
Fe66 O71 1.997 . S
Fe66 O72 2.002 . S
Fe66 O77 1.976 . S
Fe66 O80 1.996 . S
Fe67 O68 1.918 . S
Fe67 O75 1.997 . S
Fe67 O78 1.996 . S
Fe67 O82 1.976 . S
Fe67 O85 2.002 . S
O68 Fe66 1.918 . S
O68 Fe67 1.918 . S
O68 Fe69 1.918 . S
Fe69 O68 1.918 . S
Fe69 O70 2.002 . S
Fe69 O79 1.976 . S
Fe69 O83 1.996 . S
Fe69 O86 1.997 . S
O70 Fe69 2.002 . S
O70 C87 1.295 . S
O71 Fe66 1.997 . S
O71 C87 1.235 . S
O72 Fe66 2.002 . S
O72 C73 1.295 . S
C73 O72 1.295 . S
C73 O75 1.235 . S
C74 O79 1.287 . S
C74 O80 1.255 . S
O75 Fe67 1.997 . S
O75 C73 1.235 . S
C76 O82 1.287 . S
C76 O83 1.255 . S
O77 Fe66 1.976 . S
O77 C84 1.287 . S
O78 Fe67 1.996 . S
O78 C84 1.255 . S
O79 Fe69 1.976 . S
O79 C74 1.287 . S
O80 Fe66 1.996 . S
O80 C74 1.255 . S
C81 O85 1.295 . S
C81 O86 1.235 . S
O82 Fe67 1.976 . S
O82 C76 1.287 . S
O83 Fe69 1.996 . S
O83 C76 1.255 . S
C84 O77 1.287 . S
C84 O78 1.255 . S
O85 Fe67 2.002 . S
O85 C81 1.295 . S
O86 Fe69 1.997 . S
O86 C81 1.235 . S
C87 O70 1.295 . S
C87 O71 1.235 . S
C88 C89 1.386 . S
C88 C90 1.397 . S
C88 H112 0.931 . S
C89 C88 1.386 . S
C89 C93 1.397 . S
C90 C88 1.397 . S
C90 C91 1.384 . S
C90 H113 0.930 . S
C91 C90 1.384 . S
C91 C92 1.377 . S
C91 C94 1.481 . S
C92 C91 1.377 . S
C92 C93 1.389 . S
C92 H114 0.929 . S
C93 C89 1.397 . S
C93 C92 1.389 . S
C93 H115 0.931 . S
C94 C91 1.481 . S
C94 C95 1.387 . S
C94 C99 1.390 1_556 S
C95 C94 1.387 . S
C95 C96 1.401 1_556 S
C95 H116 0.930 . S
C96 C95 1.401 1_554 S
C96 C97 1.376 . S
C96 C105 1.511 . S
C97 C96 1.376 . S
C97 C98 1.392 . S
C97 H118 0.931 . S
C98 C97 1.392 . S
C98 C99 1.361 . S
C98 C100 1.500 . S
C99 C94 1.390 1_554 S
C99 C98 1.361 . S
C99 H117 0.931 . S
C100 C98 1.500 . S
C100 C101 1.371 . S
C100 C102 1.365 . S
C101 C100 1.371 . S
C101 C111 1.386 . S
C101 H119 0.931 . S
C102 C100 1.365 . S
C102 C103 1.409 . S
C102 H120 0.929 . S
C103 C102 1.409 . S
C103 C104 1.380 . S
C103 H121 0.930 . S
C104 C103 1.380 . S
C104 C111 1.357 . S
C105 C96 1.511 . S
C105 C106 1.341 1_554 S
C105 C107 1.371 . S
C106 C105 1.341 1_556 S
C106 C110 1.394 . S
C106 H122 0.930 . S
C107 C105 1.371 . S
C107 C108 1.392 . S
C107 H123 0.931 . S
C108 C107 1.392 . S
C108 C109 1.331 . S
C108 H126 0.932 . S
C109 C108 1.331 . S
C109 C110 1.336 1_554 S
C110 C106 1.394 . S
C110 C109 1.336 1_556 S
C110 H125 0.929 . S
C111 C101 1.386 . S
C111 C104 1.357 . S
C111 H124 0.928 . S
H112 C88 0.931 . S
H113 C90 0.930 . S
H114 C92 0.929 . S
H115 C93 0.931 . S
H116 C95 0.930 . S
H117 C99 0.931 . S
H118 C97 0.931 . S
H119 C101 0.931 . S
H120 C102 0.929 . S
H121 C103 0.930 . S
H122 C106 0.930 . S
H123 C107 0.931 . S
H124 C111 0.928 . S
H125 C110 0.929 . S
H126 C108 0.932 . S
C127 C128 1.386 . S
C127 C129 1.397 . S
C127 H151 0.931 . S
C128 C127 1.386 . S
C128 C132 1.397 . S
C129 C127 1.397 . S
C129 C130 1.384 . S
C129 H152 0.930 . S
C130 C129 1.384 . S
C130 C131 1.377 . S
C130 C133 1.481 . S
C131 C130 1.377 . S
C131 C132 1.389 . S
C131 H153 0.929 . S
C132 C128 1.397 . S
C132 C131 1.389 . S
C132 H154 0.931 . S
C133 C130 1.481 . S
C133 C134 1.387 . S
C133 C138 1.390 . S
C134 C133 1.387 . S
C134 C135 1.401 1_655 S
C134 H155 0.930 1_655 S
C135 C134 1.401 1_455 S
C135 C136 1.376 1_455 S
C135 C144 1.511 . S
C136 C135 1.376 1_655 S
C136 C137 1.392 . S
C136 H157 0.931 1_655 S
C137 C136 1.392 . S
C137 C138 1.361 . S
C137 C139 1.500 . S
C138 C133 1.390 . S
C138 C137 1.361 . S
C138 H156 0.931 . S
C139 C137 1.500 . S
C139 C140 1.371 . S
C139 C141 1.365 . S
C140 C139 1.371 . S
C140 C150 1.386 . S
C140 H158 0.931 . S
C141 C139 1.365 . S
C141 C142 1.409 . S
C141 H159 0.929 . S
C142 C141 1.409 . S
C142 C143 1.380 . S
C142 H160 0.930 . S
C143 C142 1.380 . S
C143 C150 1.357 . S
C144 C135 1.511 . S
C144 C145 1.341 . S
C144 C146 1.371 . S
C145 C144 1.341 . S
C145 C149 1.394 . S
C145 H161 0.930 . S
C146 C144 1.371 . S
C146 C147 1.392 . S
C146 H162 0.931 . S
C147 C146 1.392 . S
C147 C148 1.331 . S
C147 H165 0.932 . S
C148 C147 1.331 . S
C148 C149 1.336 . S
C149 C145 1.394 . S
C149 C148 1.336 . S
C149 H164 0.929 . S
C150 C140 1.386 . S
C150 C143 1.357 . S
C150 H163 0.928 . S
H151 C127 0.931 . S
H152 C129 0.930 . S
H153 C131 0.929 . S
H154 C132 0.931 . S
H155 C134 0.930 1_455 S
H156 C138 0.931 . S
H157 C136 0.931 1_455 S
H158 C140 0.931 . S
H159 C141 0.929 . S
H160 C142 0.930 . S
H161 C145 0.930 . S
H162 C146 0.931 . S
H163 C150 0.928 . S
H164 C149 0.929 . S
H165 C147 0.932 . S
C166 C167 1.386 . S
C166 C168 1.397 . S
C166 H190 0.931 . S
C167 C166 1.386 . S
C167 C171 1.397 . S
C168 C166 1.397 . S
C168 C169 1.384 . S
C168 H191 0.930 . S
C169 C168 1.384 . S
C169 C170 1.377 . S
C169 C172 1.481 . S
C170 C169 1.377 . S
C170 C171 1.389 . S
C170 H192 0.929 . S
C171 C167 1.397 . S
C171 C170 1.389 . S
C171 H193 0.931 . S
C172 C169 1.481 . S
C172 C173 1.387 . S
C172 C177 1.390 . S
C173 C172 1.387 . S
C173 C174 1.398 1_554 S
C173 H194 0.930 . S
C174 C173 1.398 1_556 S
C174 C175 1.379 . S
C174 C183 1.511 . S
C175 C174 1.379 . S
C175 C176 1.392 . S
C175 H196 0.931 . S
C176 C175 1.392 . S
C176 C177 1.361 1_556 S
C176 C178 1.500 . S
C177 C172 1.390 . S
C177 C176 1.361 1_554 S
C177 H195 0.931 . S
C178 C176 1.500 . S
C178 C179 1.371 . S
C178 C180 1.365 . S
C179 C178 1.371 . S
C179 C189 1.386 . S
C179 H197 0.931 . S
C180 C178 1.365 . S
C180 C181 1.409 . S
C180 H198 0.929 . S
C181 C180 1.409 . S
C181 C182 1.380 . S
C181 H199 0.930 . S
C182 C181 1.380 . S
C182 C189 1.357 . S
C183 C174 1.511 . S
C183 C184 1.342 1_556 S
C183 C185 1.370 . S
C184 C183 1.342 1_554 S
C184 C188 1.394 . S
C184 H200 0.930 . S
C185 C183 1.370 . S
C185 C186 1.392 . S
C185 H201 0.931 . S
C186 C185 1.392 . S
C186 C187 1.331 1_556 S
C186 H204 0.932 . S
C187 C186 1.331 1_554 S
C187 C188 1.336 . S
C188 C184 1.394 . S
C188 C187 1.336 . S
C188 H203 0.929 . S
C189 C179 1.386 . S
C189 C182 1.357 . S
C189 H202 0.928 . S
H190 C166 0.931 . S
H191 C168 0.930 . S
H192 C170 0.929 . S
H193 C171 0.931 . S
H194 C173 0.930 . S
H195 C177 0.931 . S
H196 C175 0.931 . S
H197 C179 0.931 . S
H198 C180 0.929 . S
H199 C181 0.930 . S
H200 C184 0.930 . S
H201 C185 0.931 . S
H202 C189 0.928 . S
H203 C188 0.929 . S
H204 C186 0.932 . S
C205 C206 1.386 . S
C205 C207 1.397 . S
C205 H229 0.931 . S
C206 C205 1.386 . S
C206 C210 1.397 . S
C207 C205 1.397 . S
C207 C208 1.384 . S
C207 H230 0.930 . S
C208 C207 1.384 . S
C208 C209 1.377 . S
C208 C211 1.481 . S
C209 C208 1.377 . S
C209 C210 1.389 . S
C209 H231 0.929 . S
C210 C206 1.397 . S
C210 C209 1.389 . S
C210 H232 0.931 . S
C211 C208 1.481 . S
C211 C212 1.387 . S
C211 C216 1.390 . S
C212 C211 1.387 . S
C212 C213 1.401 1_455 S
C212 H233 0.930 1_455 S
C213 C212 1.401 1_655 S
C213 C214 1.376 1_655 S
C213 C222 1.511 . S
C214 C213 1.376 1_455 S
C214 C215 1.392 . S
C214 H235 0.931 1_455 S
C215 C214 1.392 . S
C215 C216 1.361 . S
C215 C217 1.500 . S
C216 C211 1.390 . S
C216 C215 1.361 . S
C216 H234 0.931 . S
C217 C215 1.500 . S
C217 C218 1.371 . S
C217 C219 1.365 . S
C218 C217 1.371 . S
C218 C228 1.386 . S
C218 H236 0.931 . S
C219 C217 1.365 . S
C219 C220 1.409 . S
C219 H237 0.929 . S
C220 C219 1.409 . S
C220 C221 1.380 . S
C220 H238 0.930 . S
C221 C220 1.380 . S
C221 C228 1.357 . S
C222 C213 1.511 . S
C222 C223 1.341 . S
C222 C224 1.371 . S
C223 C222 1.341 . S
C223 C227 1.394 . S
C223 H239 0.930 . S
C224 C222 1.371 . S
C224 C225 1.392 . S
C224 H240 0.931 . S
C225 C224 1.392 . S
C225 C226 1.331 . S
C225 H243 0.932 . S
C226 C225 1.331 . S
C226 C227 1.336 . S
C227 C223 1.394 . S
C227 C226 1.336 . S
C227 H242 0.929 . S
C228 C218 1.386 . S
C228 C221 1.357 . S
C228 H241 0.928 . S
H229 C205 0.931 . S
H230 C207 0.930 . S
H231 C209 0.929 . S
H232 C210 0.931 . S
H233 C212 0.930 1_655 S
H234 C216 0.931 . S
H235 C214 0.931 1_655 S
H236 C218 0.931 . S
H237 C219 0.929 . S
H238 C220 0.930 . S
H239 C223 0.930 . S
H240 C224 0.931 . S
H241 C228 0.928 . S
H242 C227 0.929 . S
H243 C225 0.932 . S
C244 C245 1.386 . S
C244 C246 1.397 . S
C244 H268 0.931 . S
C245 C244 1.386 . S
C245 C249 1.397 . S
C246 C244 1.397 . S
C246 C247 1.384 . S
C246 H269 0.930 . S
C247 C246 1.384 . S
C247 C248 1.377 . S
C247 C250 1.481 . S
C248 C247 1.377 . S
C248 C249 1.389 . S
C248 H270 0.929 . S
C249 C245 1.397 . S
C249 C248 1.389 . S
C249 H271 0.931 . S
C250 C247 1.481 . S
C250 C251 1.387 1_565 S
C250 C255 1.390 . S
C251 C250 1.387 1_545 S
C251 C252 1.401 . S
C251 H272 0.930 . S
C252 C251 1.401 . S
C252 C253 1.376 . S
C252 C261 1.511 . S
C253 C252 1.376 . S
C253 C254 1.392 1_545 S
C253 H274 0.931 . S
C254 C253 1.392 1_565 S
C254 C255 1.361 . S
C254 C256 1.500 . S
C255 C250 1.390 . S
C255 C254 1.361 . S
C255 H273 0.931 . S
C256 C254 1.500 . S
C256 C257 1.371 . S
C256 C258 1.365 . S
C257 C256 1.371 . S
C257 C267 1.386 . S
C257 H275 0.931 . S
C258 C256 1.365 . S
C258 C259 1.409 . S
C258 H276 0.929 . S
C259 C258 1.409 . S
C259 C260 1.380 . S
C259 H277 0.930 . S
C260 C259 1.380 . S
C260 C267 1.357 . S
C261 C252 1.511 . S
C261 C262 1.341 . S
C261 C263 1.371 . S
C262 C261 1.341 . S
C262 C266 1.394 . S
C262 H278 0.930 . S
C263 C261 1.371 . S
C263 C264 1.392 . S
C263 H279 0.931 . S
C264 C263 1.392 . S
C264 C265 1.331 . S
C264 H282 0.932 . S
C265 C264 1.331 . S
C265 C266 1.336 . S
C266 C262 1.394 . S
C266 C265 1.336 . S
C266 H281 0.929 . S
C267 C257 1.386 . S
C267 C260 1.357 . S
C267 H280 0.928 . S
H268 C244 0.931 . S
H269 C246 0.930 . S
H270 C248 0.929 . S
H271 C249 0.931 . S
H272 C251 0.930 . S
H273 C255 0.931 . S
H274 C253 0.931 . S
H275 C257 0.931 . S
H276 C258 0.929 . S
H277 C259 0.930 . S
H278 C262 0.930 . S
H279 C263 0.931 . S
H280 C267 0.928 . S
H281 C266 0.929 . S
H282 C264 0.932 . S
C283 C284 1.386 . S
C283 C285 1.397 . S
C283 H307 0.931 . S
C284 C283 1.386 . S
C284 C288 1.397 . S
C285 C283 1.397 . S
C285 C286 1.384 . S
C285 H308 0.930 . S
C286 C285 1.384 . S
C286 C287 1.377 . S
C286 C289 1.481 . S
C287 C286 1.377 . S
C287 C288 1.389 . S
C287 H309 0.929 . S
C288 C284 1.397 . S
C288 C287 1.389 . S
C288 H310 0.931 . S
C289 C286 1.481 . S
C289 C290 1.387 . S
C289 C294 1.396 . S
C290 C289 1.387 . S
C290 C291 1.386 1_554 S
C290 H311 0.930 . S
C291 C290 1.386 1_556 S
C291 C292 1.391 . S
C291 C300 1.511 . S
C292 C291 1.391 . S
C292 C293 1.392 . S
C292 H313 0.931 . S
C293 C292 1.392 . S
C293 C294 1.356 1_556 S
C293 C295 1.500 . S
C294 C289 1.396 . S
C294 C293 1.356 1_554 S
C294 H312 0.931 . S
C295 C293 1.500 . S
C295 C296 1.371 . S
C295 C297 1.365 . S
C296 C295 1.371 . S
C296 C306 1.386 . S
C296 H314 0.931 . S
C297 C295 1.365 . S
C297 C298 1.409 . S
C297 H315 0.929 . S
C298 C297 1.409 . S
C298 C299 1.380 . S
C298 H316 0.930 . S
C299 C298 1.380 . S
C299 C306 1.357 . S
C300 C291 1.511 . S
C300 C301 1.331 1_556 S
C300 C302 1.381 . S
C301 C300 1.331 1_554 S
C301 C305 1.394 . S
C301 H317 0.930 . S
C302 C300 1.381 . S
C302 C303 1.392 . S
C302 H318 0.931 . S
C303 C302 1.392 . S
C303 C304 1.319 1_556 S
C303 H321 0.932 . S
C304 C303 1.319 1_554 S
C304 C305 1.348 . S
C305 C301 1.394 . S
C305 C304 1.348 . S
C305 H320 0.929 . S
C306 C296 1.386 . S
C306 C299 1.357 . S
C306 H319 0.928 . S
H307 C283 0.931 . S
H308 C285 0.930 . S
H309 C287 0.929 . S
H310 C288 0.931 . S
H311 C290 0.930 . S
H312 C294 0.931 . S
H313 C292 0.931 . S
H314 C296 0.931 . S
H315 C297 0.929 . S
H316 C298 0.930 . S
H317 C301 0.930 . S
H318 C302 0.931 . S
H319 C306 0.928 . S
H320 C305 0.929 . S
H321 C303 0.932 . S
C322 C323 1.386 . S
C322 C324 1.397 . S
C322 H346 0.931 . S
C323 C322 1.386 . S
C323 C327 1.397 . S
C324 C322 1.397 . S
C324 C325 1.384 . S
C324 H347 0.930 . S
C325 C324 1.384 . S
C325 C326 1.377 . S
C325 C328 1.481 . S
C326 C325 1.377 . S
C326 C327 1.389 . S
C326 H348 0.929 . S
C327 C323 1.397 . S
C327 C326 1.389 . S
C327 H349 0.931 . S
C328 C325 1.481 . S
C328 C329 1.363 1_545 S
C328 C333 1.390 . S
C329 C328 1.363 1_565 S
C329 C330 1.413 . S
C329 H350 0.943 . S
C330 C329 1.413 . S
C330 C331 1.377 . S
C330 C339 1.511 . S
C331 C330 1.377 . S
C331 C332 1.390 1_565 S
C331 H352 0.932 . S
C332 C331 1.390 1_545 S
C332 C333 1.361 . S
C332 C334 1.500 . S
C333 C328 1.390 . S
C333 C332 1.361 . S
C333 H351 0.931 . S
C334 C332 1.500 . S
C334 C335 1.371 . S
C334 C336 1.365 . S
C335 C334 1.371 . S
C335 C345 1.386 . S
C335 H353 0.931 . S
C336 C334 1.365 . S
C336 C337 1.409 . S
C336 H354 0.929 . S
C337 C336 1.409 . S
C337 C338 1.380 . S
C337 H355 0.930 . S
C338 C337 1.380 . S
C338 C345 1.357 . S
C339 C330 1.511 . S
C339 C340 1.341 . S
C339 C341 1.371 . S
C340 C339 1.341 . S
C340 C344 1.394 . S
C340 H356 0.930 . S
C341 C339 1.371 . S
C341 C342 1.392 . S
C341 H357 0.931 . S
C342 C341 1.392 . S
C342 C343 1.331 . S
C342 H360 0.932 . S
C343 C342 1.331 . S
C343 C344 1.336 . S
C344 C340 1.394 . S
C344 C343 1.336 . S
C344 H359 0.929 . S
C345 C335 1.386 . S
C345 C338 1.357 . S
C345 H358 0.928 . S
H346 C322 0.931 . S
H347 C324 0.930 . S
H348 C326 0.929 . S
H349 C327 0.931 . S
H350 C329 0.943 . S
H351 C333 0.931 . S
H352 C331 0.932 . S
H353 C335 0.931 . S
H354 C336 0.929 . S
H355 C337 0.930 . S
H356 C340 0.930 . S
H357 C341 0.931 . S
H358 C345 0.928 . S
H359 C344 0.929 . S
H360 C342 0.932 . S
C361 C362 1.386 . S
C361 C363 1.397 . S
C361 H385 0.931 . S
C362 C361 1.386 . S
C362 C366 1.397 . S
C363 C361 1.397 . S
C363 C364 1.384 . S
C363 H386 0.930 . S
C364 C363 1.384 . S
C364 C365 1.377 . S
C364 C367 1.481 . S
C365 C364 1.377 . S
C365 C366 1.389 . S
C365 H387 0.929 . S
C366 C362 1.397 . S
C366 C365 1.389 . S
C366 H388 0.931 . S
C367 C364 1.481 . S
C367 C368 1.387 . S
C367 C372 1.390 1_556 S
C368 C367 1.387 . S
C368 C369 1.401 1_556 S
C368 H389 0.930 . S
C369 C368 1.401 1_554 S
C369 C370 1.376 . S
C369 C378 1.511 . S
C370 C369 1.376 . S
C370 C371 1.392 . S
C370 H391 0.931 . S
C371 C370 1.392 . S
C371 C372 1.361 . S
C371 C373 1.500 . S
C372 C367 1.390 1_554 S
C372 C371 1.361 . S
C372 H390 0.931 . S
C373 C371 1.500 . S
C373 C374 1.371 . S
C373 C375 1.365 . S
C374 C373 1.371 . S
C374 C384 1.386 . S
C374 H392 0.931 . S
C375 C373 1.365 . S
C375 C376 1.409 . S
C375 H393 0.929 . S
C376 C375 1.409 . S
C376 C377 1.380 . S
C376 H394 0.930 . S
C377 C376 1.380 . S
C377 C384 1.357 . S
C378 C369 1.511 . S
C378 C379 1.341 1_554 S
C378 C380 1.371 . S
C379 C378 1.341 1_556 S
C379 C383 1.394 . S
C379 H395 0.930 . S
C380 C378 1.371 . S
C380 C381 1.392 . S
C380 H396 0.931 . S
C381 C380 1.392 . S
C381 C382 1.331 . S
C381 H399 0.932 . S
C382 C381 1.331 . S
C382 C383 1.336 1_554 S
C383 C379 1.394 . S
C383 C382 1.336 1_556 S
C383 H398 0.929 . S
C384 C374 1.386 . S
C384 C377 1.357 . S
C384 H397 0.928 . S
H385 C361 0.931 . S
H386 C363 0.930 . S
H387 C365 0.929 . S
H388 C366 0.931 . S
H389 C368 0.930 . S
H390 C372 0.931 . S
H391 C370 0.931 . S
H392 C374 0.931 . S
H393 C375 0.929 . S
H394 C376 0.930 . S
H395 C379 0.930 . S
H396 C380 0.931 . S
H397 C384 0.928 . S
H398 C383 0.929 . S
H399 C381 0.932 . S
C400 C401 1.387 . S
C400 H404 0.950 . S
C400 C409 1.390 . S
C401 C400 1.387 . S
C401 C403 1.387 . S
H402 C409 0.950 . S
C403 C401 1.387 . S
C403 C405 1.390 . S
C403 H407 0.950 . S
H404 C400 0.950 . S
C405 C403 1.390 . S
C405 C406 1.387 . S
C405 H408 0.950 . S
C406 C405 1.387 . S
C406 C409 1.387 . S
H407 C403 0.950 . S
H408 C405 0.950 . S
C409 C400 1.390 . S
C409 H402 0.950 . S
C409 C406 1.387 . S
C410 C411 1.387 . S
C410 H414 0.950 . S
C410 C419 1.390 . S
C411 C410 1.387 . S
C411 C413 1.387 . S
H412 C419 0.950 . S
C413 C411 1.387 . S
C413 C415 1.390 . S
C413 H417 0.950 . S
H414 C410 0.950 . S
C415 C413 1.390 . S
C415 C416 1.387 . S
C415 H418 0.950 . S
C416 C415 1.387 . S
C416 C419 1.387 . S
H417 C413 0.950 . S
H418 C415 0.950 . S
C419 C410 1.390 . S
C419 H412 0.950 . S
C419 C416 1.387 . S
C420 C421 1.387 . S
C420 H424 0.950 . S
C420 C429 1.390 . S
C421 C420 1.387 . S
C421 C423 1.387 . S
H422 C429 0.950 . S
C423 C421 1.387 . S
C423 C425 1.390 . S
C423 H427 0.950 . S
H424 C420 0.950 . S
C425 C423 1.390 . S
C425 C426 1.387 . S
C425 H428 0.950 . S
C426 C425 1.387 . S
C426 C429 1.387 . S
H427 C423 0.950 . S
H428 C425 0.950 . S
C429 C420 1.390 . S
C429 H422 0.950 . S
C429 C426 1.387 . S
C430 C431 1.387 . S
C430 H434 0.950 . S
C430 C439 1.390 . S
C431 C430 1.387 . S
C431 C433 1.387 . S
H432 C439 0.950 . S
C433 C431 1.387 . S
C433 C435 1.390 . S
C433 H437 0.950 . S
H434 C430 0.950 . S
C435 C433 1.390 . S
C435 C436 1.387 . S
C435 H438 0.950 . S
C436 C435 1.387 . S
C436 C439 1.387 . S
H437 C433 0.950 . S
H438 C435 0.950 . S
C439 C430 1.390 . S
C439 H432 0.950 . S
C439 C436 1.387 . S
C440 C441 1.387 . S
C440 H444 0.950 . S
C440 C449 1.390 . S
C441 C440 1.387 . S
C441 C443 1.387 . S
H442 C449 0.950 . S
C443 C441 1.387 . S
C443 C445 1.390 . S
C443 H447 0.950 . S
H444 C440 0.950 . S
C445 C443 1.390 . S
C445 C446 1.387 . S
C445 H448 0.950 . S
C446 C445 1.387 . S
C446 C449 1.387 . S
H447 C443 0.950 . S
H448 C445 0.950 . S
C449 C440 1.390 . S
C449 H442 0.950 . S
C449 C446 1.387 . S
C450 C451 1.387 . S
C450 H454 0.950 . S
C450 C459 1.390 . S
C451 C450 1.387 . S
C451 C453 1.387 . S
H452 C459 0.950 . S
C453 C451 1.387 . S
C453 C455 1.390 . S
C453 H457 0.950 . S
H454 C450 0.950 . S
C455 C453 1.390 . S
C455 C456 1.387 . S
C455 H458 0.950 . S
C456 C455 1.387 . S
C456 C459 1.387 . S
H457 C453 0.950 . S
H458 C455 0.950 . S
C459 C450 1.390 . S
C459 H452 0.950 . S
C459 C456 1.387 . S
C460 C461 1.387 . S
C460 H464 0.950 . S
C460 C469 1.390 . S
C461 C460 1.387 . S
C461 C463 1.387 . S
H462 C469 0.950 . S
C463 C461 1.387 . S
C463 C465 1.390 . S
C463 H467 0.950 . S
H464 C460 0.950 . S
C465 C463 1.390 . S
C465 C466 1.387 . S
C465 H468 0.950 . S
C466 C465 1.387 . S
C466 C469 1.387 . S
H467 C463 0.950 . S
H468 C465 0.950 . S
C469 C460 1.390 . S
C469 H462 0.950 . S
C469 C466 1.387 . S
C470 C471 1.387 . S
C470 H474 0.950 . S
C470 C479 1.390 . S
C471 C470 1.387 . S
C471 C473 1.387 . S
H472 C479 0.950 . S
C473 C471 1.387 . S
C473 C475 1.390 . S
C473 H477 0.950 . S
H474 C470 0.950 . S
C475 C473 1.390 . S
C475 C476 1.387 . S
C475 H478 0.950 . S
C476 C475 1.387 . S
C476 C479 1.387 . S
H477 C473 0.950 . S
H478 C475 0.950 . S
C479 C470 1.390 . S
C479 H472 0.950 . S
C479 C476 1.387 . S
C480 C481 1.387 . S
C480 H484 0.950 . S
C480 C489 1.390 . S
C481 C480 1.387 . S
C481 C483 1.387 . S
H482 C489 0.950 . S
C483 C481 1.387 . S
C483 C485 1.390 . S
C483 H487 0.950 . S
H484 C480 0.950 . S
C485 C483 1.390 . S
C485 C486 1.387 . S
C485 H488 0.950 . S
C486 C485 1.387 . S
C486 C489 1.387 . S
H487 C483 0.950 . S
H488 C485 0.950 . S
C489 C480 1.390 . S
C489 H482 0.950 . S
C489 C486 1.387 . S
C490 C491 1.387 . S
C490 H494 0.950 . S
C490 C499 1.390 . S
C491 C490 1.387 . S
C491 C493 1.387 . S
H492 C499 0.950 . S
C493 C491 1.387 . S
C493 C495 1.390 . S
C493 H497 0.950 . S
H494 C490 0.950 . S
C495 C493 1.390 . S
C495 C496 1.387 . S
C495 H498 0.950 . S
C496 C495 1.387 . S
C496 C499 1.387 . S
H497 C493 0.950 . S
H498 C495 0.950 . S
C499 C490 1.390 . S
C499 H492 0.950 . S
C499 C496 1.387 . S
C500 C501 1.387 . S
C500 H504 0.950 . S
C500 C509 1.390 . S
C501 C500 1.387 . S
C501 C503 1.387 . S
H502 C509 0.950 . S
C503 C501 1.387 . S
C503 C505 1.390 . S
C503 H507 0.950 . S
H504 C500 0.950 . S
C505 C503 1.390 . S
C505 C506 1.387 . S
C505 H508 0.950 . S
C506 C505 1.387 . S
C506 C509 1.387 . S
H507 C503 0.950 . S
H508 C505 0.950 . S
C509 C500 1.390 . S
C509 H502 0.950 . S
C509 C506 1.387 . S
C510 C511 1.387 . S
C510 H514 0.950 . S
C510 C519 1.390 . S
C511 C510 1.387 . S
C511 C513 1.387 . S
H512 C519 0.950 . S
C513 C511 1.387 . S
C513 C515 1.390 . S
C513 H517 0.950 . S
H514 C510 0.950 . S
C515 C513 1.390 . S
C515 C516 1.387 . S
C515 H518 0.950 . S
C516 C515 1.387 . S
C516 C519 1.387 . S
H517 C513 0.950 . S
H518 C515 0.950 . S
C519 C510 1.390 . S
C519 H512 0.950 . S
C519 C516 1.387 . S
C520 C521 1.387 . S
C520 H524 0.950 . S
C520 C529 1.390 . S
C521 C520 1.387 . S
C521 C523 1.387 . S
H522 C529 0.950 . S
C523 C521 1.387 . S
C523 C525 1.390 . S
C523 H527 0.950 . S
H524 C520 0.950 . S
C525 C523 1.390 . S
C525 C526 1.387 . S
C525 H528 0.950 . S
C526 C525 1.387 . S
C526 C529 1.387 . S
H527 C523 0.950 . S
H528 C525 0.950 . S
C529 C520 1.390 . S
C529 H522 0.950 . S
C529 C526 1.387 . S
C530 C531 1.387 . S
C530 H534 0.950 . S
C530 C539 1.390 . S
C531 C530 1.387 . S
C531 C533 1.387 . S
H532 C539 0.950 . S
C533 C531 1.387 . S
C533 C535 1.390 . S
C533 H537 0.950 . S
H534 C530 0.950 . S
C535 C533 1.390 . S
C535 C536 1.387 . S
C535 H538 0.950 . S
C536 C535 1.387 . S
C536 C539 1.387 . S
H537 C533 0.950 . S
H538 C535 0.950 . S
C539 C530 1.390 . S
C539 H532 0.950 . S
C539 C536 1.387 . S
C540 C541 1.387 . S
C540 H544 0.950 . S
C540 C549 1.390 . S
C541 C540 1.387 . S
C541 C543 1.387 . S
H542 C549 0.950 . S
C543 C541 1.387 . S
C543 C545 1.390 . S
C543 H547 0.950 . S
H544 C540 0.950 . S
C545 C543 1.390 . S
C545 C546 1.387 . S
C545 H548 0.950 . S
C546 C545 1.387 . S
C546 C549 1.387 . S
H547 C543 0.950 . S
H548 C545 0.950 . S
C549 C540 1.390 . S
C549 H542 0.950 . S
C549 C546 1.387 . S
C550 C551 1.387 . S
C550 H554 0.950 . S
C550 C559 1.390 . S
C551 C550 1.387 . S
C551 C553 1.387 . S
H552 C559 0.950 . S
C553 C551 1.387 . S
C553 C555 1.390 . S
C553 H557 0.950 . S
H554 C550 0.950 . S
C555 C553 1.390 . S
C555 C556 1.387 . S
C555 H558 0.950 . S
C556 C555 1.387 . S
C556 C559 1.387 . S
H557 C553 0.950 . S
H558 C555 0.950 . S
C559 C550 1.390 . S
C559 H552 0.950 . S
C559 C556 1.387 . S
C560 C561 1.387 . S
C560 H564 0.950 . S
C560 C569 1.390 . S
C561 C560 1.387 . S
C561 C563 1.387 1_554 S
H562 C569 0.950 . S
C563 C561 1.387 1_556 S
C563 C565 1.390 . S
C563 H567 0.950 . S
H564 C560 0.950 . S
C565 C563 1.390 . S
C565 C566 1.387 1_556 S
C565 H568 0.950 . S
C566 C565 1.387 1_554 S
C566 C569 1.387 . S
H567 C563 0.950 . S
H568 C565 0.950 . S
C569 C560 1.390 . S
C569 H562 0.950 . S
C569 C566 1.387 . S
C570 C571 1.387 . S
C570 H574 0.950 . S
C570 C579 1.390 . S
C571 C570 1.387 . S
C571 C573 1.387 . S
H572 C579 0.950 . S
C573 C571 1.387 . S
C573 C575 1.390 . S
C573 H577 0.950 . S
H574 C570 0.950 . S
C575 C573 1.390 . S
C575 C576 1.387 . S
C575 H578 0.950 . S
C576 C575 1.387 . S
C576 C579 1.387 . S
H577 C573 0.950 . S
H578 C575 0.950 . S
C579 C570 1.390 . S
C579 H572 0.950 . S
C579 C576 1.387 . S
C580 C581 1.387 . S
C580 H584 0.950 . S
C580 C589 1.390 . S
C581 C580 1.387 . S
C581 C583 1.387 1_554 S
H582 C589 0.950 . S
C583 C581 1.387 1_556 S
C583 C585 1.390 . S
C583 H587 0.950 . S
H584 C580 0.950 . S
C585 C583 1.390 . S
C585 C586 1.387 1_556 S
C585 H588 0.950 . S
C586 C585 1.387 1_554 S
C586 C589 1.387 . S
H587 C583 0.950 . S
H588 C585 0.950 . S
C589 C580 1.390 . S
C589 H582 0.950 . S
C589 C586 1.387 . S
C590 C591 1.387 . S
C590 H594 0.950 . S
C590 C599 1.390 . S
C591 C590 1.387 . S
C591 C593 1.387 . S
H592 C599 0.950 . S
C593 C591 1.387 . S
C593 C595 1.390 . S
C593 H597 0.950 . S
H594 C590 0.950 . S
C595 C593 1.390 . S
C595 C596 1.387 . S
C595 H598 0.950 . S
C596 C595 1.387 . S
C596 C599 1.387 . S
H597 C593 0.950 . S
H598 C595 0.950 . S
C599 C590 1.390 . S
C599 H592 0.950 . S
C599 C596 1.387 . S
C600 C601 1.387 . S
C600 H604 0.950 . S
C600 C609 1.390 . S
C601 C600 1.387 . S
C601 C603 1.387 . S
H602 C609 0.950 . S
C603 C601 1.387 . S
C603 C605 1.390 . S
C603 H607 0.950 . S
H604 C600 0.950 . S
C605 C603 1.390 . S
C605 C606 1.387 . S
C605 H608 0.950 . S
C606 C605 1.387 . S
C606 C609 1.387 . S
H607 C603 0.950 . S
H608 C605 0.950 . S
C609 C600 1.390 . S
C609 H602 0.950 . S
C609 C606 1.387 . S
C610 C611 1.387 1_556 S
C610 H614 0.950 . S
C610 C619 1.390 . S
C611 C610 1.387 1_554 S
C611 C613 1.387 . S
H612 C619 0.950 . S
C613 C611 1.387 . S
C613 C615 1.390 . S
C613 H617 0.950 . S
H614 C610 0.950 . S
C615 C613 1.390 . S
C615 C616 1.387 . S
C615 H618 0.950 . S
C616 C615 1.387 . S
C616 C619 1.387 1_554 S
H617 C613 0.950 . S
H618 C615 0.950 . S
C619 C610 1.390 . S
C619 H612 0.950 . S
C619 C616 1.387 1_556 S
C620 C621 1.387 . S
C620 H624 0.950 . S
C620 C629 1.390 . S
C621 C620 1.387 . S
C621 C623 1.387 . S
H622 C629 0.950 . S
C623 C621 1.387 . S
C623 C625 1.390 . S
C623 H627 0.950 . S
H624 C620 0.950 . S
C625 C623 1.390 . S
C625 C626 1.387 . S
C625 H628 0.950 . S
C626 C625 1.387 . S
C626 C629 1.387 . S
H627 C623 0.950 . S
H628 C625 0.950 . S
C629 C620 1.390 . S
C629 H622 0.950 . S
C629 C626 1.387 . S
C630 C631 1.387 . S
C630 H634 0.950 . S
C630 C639 1.390 . S
C631 C630 1.387 . S
C631 C633 1.387 1_554 S
H632 C639 0.950 . S
C633 C631 1.387 1_556 S
C633 C635 1.390 . S
C633 H637 0.950 . S
H634 C630 0.950 . S
C635 C633 1.390 . S
C635 C636 1.387 1_556 S
C635 H638 0.950 . S
C636 C635 1.387 1_554 S
C636 C639 1.387 . S
H637 C633 0.950 . S
H638 C635 0.950 . S
C639 C630 1.390 . S
C639 H632 0.950 . S
C639 C636 1.387 . S
C401 C21 1.668 . S
C406 C221 1.636 . S
C411 C40 1.819 . S
C416 C89 1.728 . S
C426 C128 1.603 . S
C421 C54 1.655 . S
C431 C73 1.860 . S
C436 C182 1.757 . S
C446 C284 1.603 . S
C441 C74 1.656 . S
C456 C338 1.723 . S
C451 C10 1.818 . S
C466 C377 1.638 . S
C461 C37 1.668 . S
C476 C245 1.763 . S
C471 C65 1.862 . S
C481 C52 1.664 . S
C486 C143 1.608 . S
C491 C87 1.858 . S
C496 C167 1.752 . S
C501 C15 1.678 . S
C506 C206 1.647 . S
C516 C104 1.713 . S
C511 C32 1.811 . S
C521 C29 1.678 . S
C526 C362 1.647 . S
C536 C260 1.750 . S
C531 C59 1.856 . S
C546 C299 1.611 . S
C541 C84 1.664 . S
C551 C8 1.814 . S
C556 C323 1.716 . S
C566 C109 1.816 . S
C561 C7 1.903 . S
C576 C148 1.671 . S
C571 C30 1.707 . S
C581 C62 1.910 . S
C586 C187 1.808 . S
C591 C81 1.671 . S
C596 C226 1.683 . S
C606 C265 1.836 . S
C601 C76 1.911 . S
C611 C18 1.707 . S
C616 C304 1.671 . S
C621 C43 1.903 . S
C626 C343 1.792 . S
C631 C51 1.671 1_554 S
C636 C382 1.683 . S
