# Generated by pormake.
# Topology bwt, (3,3)-cn, num edge types: 1
# Building blocks:
#     Node 0, Type 0, BuildingBlock: WUSLED_clean_sbu_0, # of connection points: 3
#     Node 1, Type 0, BuildingBlock: WUSLED_clean_sbu_0, # of connection points: 3
#     Node 2, Type 0, BuildingBlock: WUSLED_clean_sbu_0, # of connection points: 3
#     Node 3, Type 0, BuildingBlock: WUSLED_clean_sbu_0, # of connection points: 3
#     Node 4, Type 0, BuildingBlock: WUSLED_clean_sbu_0, # of connection points: 3
#     Node 5, Type 0, BuildingBlock: WUSLED_clean_sbu_0, # of connection points: 3
#     Node 6, Type 0, BuildingBlock: WUSLED_clean_sbu_0, # of connection points: 3
#     Node 7, Type 0, BuildingBlock: WUSLED_clean_sbu_0, # of connection points: 3
#     Node 8, Type 0, BuildingBlock: WUSLED_clean_sbu_0, # of connection points: 3
#     Node 9, Type 0, BuildingBlock: WUSLED_clean_sbu_0, # of connection points: 3
#     Node 10, Type 0, BuildingBlock: WUSLED_clean_sbu_0, # of connection points: 3
#     Node 11, Type 0, BuildingBlock: WUSLED_clean_sbu_0, # of connection points: 3
#     Node 12, Type 0, BuildingBlock: WUSLED_clean_sbu_0, # of connection points: 3
#     Node 13, Type 0, BuildingBlock: WUSLED_clean_sbu_0, # of connection points: 3
#     Node 14, Type 0, BuildingBlock: WUSLED_clean_sbu_0, # of connection points: 3
#     Node 15, Type 0, BuildingBlock: WUSLED_clean_sbu_0, # of connection points: 3
#     Node 16, Type 0, BuildingBlock: WUSLED_clean_sbu_0, # of connection points: 3
#     Node 17, Type 0, BuildingBlock: WUSLED_clean_sbu_0, # of connection points: 3
#     Node 18, Type 0, BuildingBlock: WUSLED_clean_sbu_0, # of connection points: 3
#     Node 19, Type 0, BuildingBlock: WUSLED_clean_sbu_0, # of connection points: 3
#     Node 20, Type 0, BuildingBlock: WUSLED_clean_sbu_0, # of connection points: 3
#     Node 21, Type 0, BuildingBlock: WUSLED_clean_sbu_0, # of connection points: 3
#     Node 22, Type 0, BuildingBlock: WUSLED_clean_sbu_0, # of connection points: 3
#     Node 23, Type 0, BuildingBlock: WUSLED_clean_sbu_0, # of connection points: 3
#     Node 24, Type 1, BuildingBlock: BETDAH_clean_linker_0, # of connection points: 3
#     Node 25, Type 1, BuildingBlock: BETDAH_clean_linker_0, # of connection points: 3
#     Node 26, Type 1, BuildingBlock: BETDAH_clean_linker_0, # of connection points: 3
#     Node 27, Type 1, BuildingBlock: BETDAH_clean_linker_0, # of connection points: 3
#     Node 28, Type 1, BuildingBlock: BETDAH_clean_linker_0, # of connection points: 3
#     Node 29, Type 1, BuildingBlock: BETDAH_clean_linker_0, # of connection points: 3
#     Node 30, Type 1, BuildingBlock: BETDAH_clean_linker_0, # of connection points: 3
#     Node 31, Type 1, BuildingBlock: BETDAH_clean_linker_0, # of connection points: 3
#     Node 32, Type 1, BuildingBlock: BETDAH_clean_linker_0, # of connection points: 3
#     Node 33, Type 1, BuildingBlock: BETDAH_clean_linker_0, # of connection points: 3
#     Node 34, Type 1, BuildingBlock: BETDAH_clean_linker_0, # of connection points: 3
#     Node 35, Type 1, BuildingBlock: BETDAH_clean_linker_0, # of connection points: 3
#     Node 36, Type 1, BuildingBlock: BETDAH_clean_linker_0, # of connection points: 3
#     Node 37, Type 1, BuildingBlock: BETDAH_clean_linker_0, # of connection points: 3
#     Node 38, Type 1, BuildingBlock: BETDAH_clean_linker_0, # of connection points: 3
#     Node 39, Type 1, BuildingBlock: BETDAH_clean_linker_0, # of connection points: 3
#     Node 40, Type 1, BuildingBlock: BETDAH_clean_linker_0, # of connection points: 3
#     Node 41, Type 1, BuildingBlock: BETDAH_clean_linker_0, # of connection points: 3
#     Node 42, Type 1, BuildingBlock: BETDAH_clean_linker_0, # of connection points: 3
#     Node 43, Type 1, BuildingBlock: BETDAH_clean_linker_0, # of connection points: 3
#     Node 44, Type 1, BuildingBlock: BETDAH_clean_linker_0, # of connection points: 3
#     Node 45, Type 1, BuildingBlock: BETDAH_clean_linker_0, # of connection points: 3
#     Node 46, Type 1, BuildingBlock: BETDAH_clean_linker_0, # of connection points: 3
#     Node 47, Type 1, BuildingBlock: BETDAH_clean_linker_0, # of connection points: 3
#     Edge 48, Type (0, 1), BuildingBlock: KIFKEQ_clean_linker_1, # of connection points: 2
#     Edge 49, Type (0, 1), BuildingBlock: KIFKEQ_clean_linker_1, # of connection points: 2
#     Edge 50, Type (0, 1), BuildingBlock: KIFKEQ_clean_linker_1, # of connection points: 2
#     Edge 51, Type (0, 1), BuildingBlock: KIFKEQ_clean_linker_1, # of connection points: 2
#     Edge 52, Type (0, 1), BuildingBlock: KIFKEQ_clean_linker_1, # of connection points: 2
#     Edge 53, Type (0, 1), BuildingBlock: KIFKEQ_clean_linker_1, # of connection points: 2
#     Edge 54, Type (0, 1), BuildingBlock: KIFKEQ_clean_linker_1, # of connection points: 2
#     Edge 55, Type (0, 1), BuildingBlock: KIFKEQ_clean_linker_1, # of connection points: 2
#     Edge 56, Type (0, 1), BuildingBlock: KIFKEQ_clean_linker_1, # of connection points: 2
#     Edge 57, Type (0, 1), BuildingBlock: KIFKEQ_clean_linker_1, # of connection points: 2
#     Edge 58, Type (0, 1), BuildingBlock: KIFKEQ_clean_linker_1, # of connection points: 2
#     Edge 59, Type (0, 1), BuildingBlock: KIFKEQ_clean_linker_1, # of connection points: 2
#     Edge 60, Type (0, 1), BuildingBlock: KIFKEQ_clean_linker_1, # of connection points: 2
#     Edge 61, Type (0, 1), BuildingBlock: KIFKEQ_clean_linker_1, # of connection points: 2
#     Edge 62, Type (0, 1), BuildingBlock: KIFKEQ_clean_linker_1, # of connection points: 2
#     Edge 63, Type (0, 1), BuildingBlock: KIFKEQ_clean_linker_1, # of connection points: 2
#     Edge 64, Type (0, 1), BuildingBlock: KIFKEQ_clean_linker_1, # of connection points: 2
#     Edge 65, Type (0, 1), BuildingBlock: KIFKEQ_clean_linker_1, # of connection points: 2
#     Edge 66, Type (0, 1), BuildingBlock: KIFKEQ_clean_linker_1, # of connection points: 2
#     Edge 67, Type (0, 1), BuildingBlock: KIFKEQ_clean_linker_1, # of connection points: 2
#     Edge 68, Type (0, 1), BuildingBlock: KIFKEQ_clean_linker_1, # of connection points: 2
#     Edge 69, Type (0, 1), BuildingBlock: KIFKEQ_clean_linker_1, # of connection points: 2
#     Edge 70, Type (0, 1), BuildingBlock: KIFKEQ_clean_linker_1, # of connection points: 2
#     Edge 71, Type (0, 1), BuildingBlock: KIFKEQ_clean_linker_1, # of connection points: 2
#     Edge 72, Type (0, 1), BuildingBlock: KIFKEQ_clean_linker_1, # of connection points: 2
#     Edge 73, Type (0, 1), BuildingBlock: KIFKEQ_clean_linker_1, # of connection points: 2
#     Edge 74, Type (0, 1), BuildingBlock: KIFKEQ_clean_linker_1, # of connection points: 2
#     Edge 75, Type (0, 1), BuildingBlock: KIFKEQ_clean_linker_1, # of connection points: 2
#     Edge 76, Type (0, 1), BuildingBlock: KIFKEQ_clean_linker_1, # of connection points: 2
#     Edge 77, Type (0, 1), BuildingBlock: KIFKEQ_clean_linker_1, # of connection points: 2
#     Edge 78, Type (0, 1), BuildingBlock: KIFKEQ_clean_linker_1, # of connection points: 2
#     Edge 79, Type (0, 1), BuildingBlock: KIFKEQ_clean_linker_1, # of connection points: 2
#     Edge 80, Type (0, 1), BuildingBlock: KIFKEQ_clean_linker_1, # of connection points: 2
#     Edge 81, Type (0, 1), BuildingBlock: KIFKEQ_clean_linker_1, # of connection points: 2
#     Edge 82, Type (0, 1), BuildingBlock: KIFKEQ_clean_linker_1, # of connection points: 2
#     Edge 83, Type (0, 1), BuildingBlock: KIFKEQ_clean_linker_1, # of connection points: 2
#     Edge 84, Type (0, 1), BuildingBlock: KIFKEQ_clean_linker_1, # of connection points: 2
#     Edge 85, Type (0, 1), BuildingBlock: KIFKEQ_clean_linker_1, # of connection points: 2
#     Edge 86, Type (0, 1), BuildingBlock: KIFKEQ_clean_linker_1, # of connection points: 2
#     Edge 87, Type (0, 1), BuildingBlock: KIFKEQ_clean_linker_1, # of connection points: 2
#     Edge 88, Type (0, 1), BuildingBlock: KIFKEQ_clean_linker_1, # of connection points: 2
#     Edge 89, Type (0, 1), BuildingBlock: KIFKEQ_clean_linker_1, # of connection points: 2
#     Edge 90, Type (0, 1), BuildingBlock: KIFKEQ_clean_linker_1, # of connection points: 2
#     Edge 91, Type (0, 1), BuildingBlock: KIFKEQ_clean_linker_1, # of connection points: 2
#     Edge 92, Type (0, 1), BuildingBlock: KIFKEQ_clean_linker_1, # of connection points: 2
#     Edge 93, Type (0, 1), BuildingBlock: KIFKEQ_clean_linker_1, # of connection points: 2
#     Edge 94, Type (0, 1), BuildingBlock: KIFKEQ_clean_linker_1, # of connection points: 2
#     Edge 95, Type (0, 1), BuildingBlock: KIFKEQ_clean_linker_1, # of connection points: 2
#     Edge 96, Type (0, 1), BuildingBlock: KIFKEQ_clean_linker_1, # of connection points: 2
#     Edge 97, Type (0, 1), BuildingBlock: KIFKEQ_clean_linker_1, # of connection points: 2
#     Edge 98, Type (0, 1), BuildingBlock: KIFKEQ_clean_linker_1, # of connection points: 2
#     Edge 99, Type (0, 1), BuildingBlock: KIFKEQ_clean_linker_1, # of connection points: 2
#     Edge 100, Type (0, 1), BuildingBlock: KIFKEQ_clean_linker_1, # of connection points: 2
#     Edge 101, Type (0, 1), BuildingBlock: KIFKEQ_clean_linker_1, # of connection points: 2
#     Edge 102, Type (0, 1), BuildingBlock: KIFKEQ_clean_linker_1, # of connection points: 2
#     Edge 103, Type (0, 1), BuildingBlock: KIFKEQ_clean_linker_1, # of connection points: 2
#     Edge 104, Type (0, 1), BuildingBlock: KIFKEQ_clean_linker_1, # of connection points: 2
#     Edge 105, Type (0, 1), BuildingBlock: KIFKEQ_clean_linker_1, # of connection points: 2
#     Edge 106, Type (0, 1), BuildingBlock: KIFKEQ_clean_linker_1, # of connection points: 2
#     Edge 107, Type (0, 1), BuildingBlock: KIFKEQ_clean_linker_1, # of connection points: 2
#     Edge 108, Type (0, 1), BuildingBlock: KIFKEQ_clean_linker_1, # of connection points: 2
#     Edge 109, Type (0, 1), BuildingBlock: KIFKEQ_clean_linker_1, # of connection points: 2
#     Edge 110, Type (0, 1), BuildingBlock: KIFKEQ_clean_linker_1, # of connection points: 2
#     Edge 111, Type (0, 1), BuildingBlock: KIFKEQ_clean_linker_1, # of connection points: 2
#     Edge 112, Type (0, 1), BuildingBlock: KIFKEQ_clean_linker_1, # of connection points: 2
#     Edge 113, Type (0, 1), BuildingBlock: KIFKEQ_clean_linker_1, # of connection points: 2
#     Edge 114, Type (0, 1), BuildingBlock: KIFKEQ_clean_linker_1, # of connection points: 2
#     Edge 115, Type (0, 1), BuildingBlock: KIFKEQ_clean_linker_1, # of connection points: 2
#     Edge 116, Type (0, 1), BuildingBlock: KIFKEQ_clean_linker_1, # of connection points: 2
#     Edge 117, Type (0, 1), BuildingBlock: KIFKEQ_clean_linker_1, # of connection points: 2
#     Edge 118, Type (0, 1), BuildingBlock: KIFKEQ_clean_linker_1, # of connection points: 2
#     Edge 119, Type (0, 1), BuildingBlock: KIFKEQ_clean_linker_1, # of connection points: 2
# Relax obj value: 0.119
# Max RMSD: 0.173
# Mean RMSD: 0.085
data_MOF--net-bwt--node1-WUSLED_clean_sbu_0--node2-BETDAH_clean_linker_0--edge1-KIFKEQ_clean_linker_1
_symmetry_space_group_name_H-M    P1
_symmetry_Int_Tables_number       1
_symmetry_cell_setting            triclinic
loop_
_symmetry_equiv_pos_as_xyz
'x, y, z'
_cell_length_a     69.754071
_cell_length_b     69.808577
_cell_length_c     69.748649
_cell_angle_alpha  95.108874
_cell_angle_beta   95.089449
_cell_angle_gamma 95.106661
loop_
_atom_site_label
_atom_site_type_symbol
_atom_site_fract_x
_atom_site_fract_y
_atom_site_fract_z
_atom_type_partial_charge
C0 C 0.31987 0.6294 0.35274 0.0
C1 C 0.33331 0.61779 0.36073 0.0
C2 C 0.35737 0.6299 0.34032 0.0
C3 C 0.35186 0.61799 0.35455 0.0
C4 C 0.34381 0.64155 0.3324 0.0
C5 C 0.32523 0.64128 0.33856 0.0
U6 U 0.28517 0.61459 0.38855 0.0
O7 O 0.26357 0.63032 0.40299 0.0
O8 O 0.25455 0.60309 0.3849 0.0
C9 C 0.24906 0.6179 0.39531 0.0
C10 C 0.30042 0.62937 0.35942 0.0
C11 C 0.23174 0.62611 0.38719 0.0
C12 C 0.21374 0.64021 0.36139 0.0
C13 C 0.23092 0.6336 0.36916 0.0
C14 C 0.19829 0.63223 0.3898 0.0
C15 C 0.19712 0.63942 0.37155 0.0
C16 C 0.21541 0.62567 0.39751 0.0
C17 C 0.30494 0.58559 0.42883 0.0
C18 C 0.2853 0.57282 0.45273 0.0
C19 C 0.31971 0.56957 0.45506 0.0
C20 C 0.32128 0.57908 0.43838 0.0
C21 C 0.30172 0.5664 0.4625 0.0
C22 C 0.28691 0.58238 0.43604 0.0
C23 C 0.30705 0.59584 0.41152 0.0
O24 O 0.29035 0.61237 0.35781 0.0
O25 O 0.29961 0.63932 0.37619 0.0
O26 O 0.30628 0.61463 0.41395 0.0
O27 O 0.29713 0.58766 0.39554 0.0
H28 H 0.32947 0.60863 0.37183 0.0
H29 H 0.362 0.60906 0.36115 0.0
H30 H 0.3475 0.65074 0.32129 0.0
H31 H 0.31504 0.65036 0.33226 0.0
H32 H 0.21344 0.64582 0.3474 0.0
H33 H 0.24344 0.63407 0.361 0.0
H34 H 0.18577 0.63104 0.39791 0.0
H35 H 0.21576 0.61985 0.41142 0.0
H36 H 0.27129 0.57084 0.45821 0.0
H37 H 0.33259 0.56464 0.4621 0.0
H38 H 0.33531 0.58141 0.43296 0.0
H39 H 0.27415 0.58739 0.42885 0.0
C40 C 0.18378 0.34682 0.76304 0.0
C41 C 0.17094 0.34452 0.77728 0.0
C42 C 0.14342 0.34045 0.75263 0.0
C43 C 0.151 0.34125 0.77212 0.0
C44 C 0.15638 0.34267 0.73843 0.0
C45 C 0.17634 0.34577 0.7436 0.0
U46 U 0.22602 0.3739 0.79545 0.0
O47 O 0.25376 0.36443 0.80703 0.0
O48 O 0.25343 0.38848 0.78875 0.0
C49 C 0.26397 0.37678 0.79786 0.0
C50 C 0.20482 0.35104 0.76825 0.0
C51 C 0.2797 0.36929 0.78751 0.0
C52 C 0.29445 0.3621 0.75772 0.0
C53 C 0.27829 0.36644 0.76722 0.0
C54 C 0.31327 0.36224 0.78865 0.0
C55 C 0.31226 0.36043 0.76833 0.0
C56 C 0.29715 0.36669 0.79812 0.0
C57 C 0.21547 0.41024 0.8366 0.0
C58 C 0.23483 0.42112 0.86699 0.0
C59 C 0.215 0.44311 0.85137 0.0
C60 C 0.20862 0.42855 0.8365 0.0
C61 C 0.22818 0.43955 0.86676 0.0
C62 C 0.22862 0.40663 0.85202 0.0
C63 C 0.20901 0.39539 0.82031 0.0
O64 O 0.21197 0.36858 0.76565 0.0
O65 O 0.21171 0.34514 0.78465 0.0
O66 O 0.21257 0.37752 0.82275 0.0
O67 O 0.21243 0.40042 0.80314 0.0
H68 H 0.17628 0.34537 0.79242 0.0
H69 H 0.14154 0.33932 0.78344 0.0
H70 H 0.15112 0.34247 0.72333 0.0
H71 H 0.18597 0.34764 0.7324 0.0
H72 H 0.29316 0.36054 0.74206 0.0
H73 H 0.26492 0.36824 0.75872 0.0
H74 H 0.32679 0.36124 0.79724 0.0
H75 H 0.29855 0.36887 0.81378 0.0
H76 H 0.24519 0.41804 0.87855 0.0
H77 H 0.20954 0.45713 0.85089 0.0
H78 H 0.19845 0.43166 0.82479 0.0
H79 H 0.23427 0.3927 0.85245 0.0
C80 C 0.72163 0.99331 0.64439 0.0
C81 C 0.73614 0.00304 0.63518 0.0
C82 C 0.76088 0.99325 0.6581 0.0
C83 C 0.75555 0.00311 0.64203 0.0
C84 C 0.74624 0.98414 0.66776 0.0
C85 C 0.72675 0.98414 0.6609 0.0
U86 U 0.68811 0.99168 0.59931 0.0
O87 O 0.66309 0.97128 0.58756 0.0
O88 O 0.65986 0.0023 0.59245 0.0
C89 C 0.65121 0.98486 0.58733 0.0
C90 C 0.70159 0.99081 0.63542 0.0
C91 C 0.63283 0.98055 0.59544 0.0
C92 C 0.61393 0.9783 0.62288 0.0
C93 C 0.63189 0.98059 0.61545 0.0
C94 C 0.59788 0.97519 0.5903 0.0
C95 C 0.59673 0.97606 0.61038 0.0
C96 C 0.61579 0.97742 0.58291 0.0
C97 C 0.70981 0.99978 0.55231 0.0
C98 C 0.70074 0.01669 0.52429 0.0
C99 C 0.70905 0.98374 0.51982 0.0
C100 C 0.71263 0.98358 0.53979 0.0
C101 C 0.70278 1.00018 0.51189 0.0
C102 C 0.70419 0.01649 0.54433 0.0
C103 C 0.71222 0.99883 0.5735 0.0
O104 O 0.69507 0.00629 0.62872 0.0
O105 O 0.69751 0.97518 0.62327 0.0
O106 O 0.70852 0.98159 0.57932 0.0
O107 O 0.70518 0.01253 0.58416 0.0
H108 H 0.7325 0.01005 0.62227 0.0
H109 H 0.76644 0.01051 0.63445 0.0
H110 H 0.74985 0.97624 0.68005 0.0
H111 H 0.71575 0.97636 0.66804 0.0
H112 H 0.61347 0.97922 0.63841 0.0
H113 H 0.64498 0.98299 0.62529 0.0
H114 H 0.58488 0.97328 0.58033 0.0
H115 H 0.61632 0.97727 0.56742 0.0
H116 H 0.69596 0.02956 0.51852 0.0
H117 H 0.71115 0.97095 0.51056 0.0
H118 H 0.7173 0.97062 0.54544 0.0
H119 H 0.70212 0.02932 0.55354 0.0
C120 C 0.75482 1.00112 0.26826 0.0
C121 C 0.74451 0.01735 0.26623 0.0
C122 C 0.71579 1.00043 0.2768 0.0
C123 C 0.72522 0.01697 0.27032 0.0
C124 C 0.7262 0.98425 0.27896 0.0
C125 C 0.74546 0.98461 0.27482 0.0
U126 U 0.78919 0.98729 0.23165 0.0
O127 O 0.81396 0.00376 0.22121 0.0
O128 O 0.81781 0.97642 0.23375 0.0
C129 C 0.82623 0.99173 0.22705 0.0
C130 C 0.77495 0.0013 0.26283 0.0
C131 C 0.84492 1.00036 0.23741 0.0
C132 C 0.87327 0.9978 0.25972 0.0
C133 C 0.85442 0.99109 0.25207 0.0
C134 C 0.87331 0.02364 0.23879 0.0
C135 C 0.88312 0.01391 0.25289 0.0
C136 C 0.85447 0.01688 0.23108 0.0
C137 C 0.76561 0.95974 0.18437 0.0
C138 C 0.78207 0.95631 0.15522 0.0
C139 C 0.74852 0.9436 0.15473 0.0
C140 C 0.74887 0.94979 0.17436 0.0
C141 C 0.76493 0.94734 0.14479 0.0
C142 C 0.78241 0.96248 0.17489 0.0
C143 C 0.76472 0.96873 0.20403 0.0
O144 O 0.78229 0.98455 0.26153 0.0
O145 O 0.77891 0.01172 0.24862 0.0
O146 O 0.76849 0.98762 0.20616 0.0
O147 O 0.77307 0.96016 0.21811 0.0
H148 H 0.75131 0.03034 0.26128 0.0
H149 H 0.7177 0.02966 0.26827 0.0
H150 H 0.71964 0.97137 0.28427 0.0
H151 H 0.75296 0.97188 0.27671 0.0
H152 H 0.88043 0.98975 0.27035 0.0
H153 H 0.84761 0.9782 0.25717 0.0
H154 H 0.88034 0.03624 0.23337 0.0
H155 H 0.84761 0.02424 0.21968 0.0
H156 H 0.795 0.95921 0.14801 0.0
H157 H 0.73503 0.93696 0.14711 0.0
H158 H 0.73578 0.94761 0.1815 0.0
H159 H 0.79549 0.9701 0.18249 0.0
C160 C 0.36006 0.31822 0.63617 0.0
C161 C 0.36682 0.33003 0.62244 0.0
C162 C 0.34855 0.35587 0.63468 0.0
C163 C 0.36107 0.34865 0.62165 0.0
C164 C 0.34186 0.34396 0.64846 0.0
C165 C 0.34756 0.32529 0.64917 0.0
U166 U 0.39483 0.2818 0.62303 0.0
O167 O 0.40912 0.26125 0.6404 0.0
O168 O 0.39053 0.25069 0.6138 0.0
C169 C 0.4006 0.24613 0.62931 0.0
C170 C 0.36644 0.2988 0.63732 0.0
C171 C 0.39178 0.23025 0.6393 0.0
C172 C 0.36395 0.20888 0.64545 0.0
C173 C 0.3717 0.2252 0.63742 0.0
C174 C 0.39611 0.20295 0.65808 0.0
C175 C 0.37609 0.19732 0.65558 0.0
C176 C 0.40385 0.21919 0.64996 0.0
C177 C 0.43462 0.29827 0.59172 0.0
C178 C 0.45736 0.27724 0.57891 0.0
C179 C 0.46119 0.3115 0.57511 0.0
C180 C 0.44478 0.31404 0.58482 0.0
C181 C 0.46776 0.29309 0.5721 0.0
C182 C 0.44094 0.27982 0.58867 0.0
C183 C 0.41764 0.30145 0.60219 0.0
O184 O 0.36427 0.28759 0.62094 0.0
O185 O 0.38337 0.29834 0.64709 0.0
O186 O 0.4205 0.30203 0.62111 0.0
O187 O 0.4014 0.29137 0.59493 0.0
H188 H 0.37667 0.32487 0.61241 0.0
H189 H 0.36671 0.35752 0.61107 0.0
H190 H 0.33208 0.34902 0.65858 0.0
H191 H 0.34227 0.3164 0.65991 0.0
H192 H 0.3485 0.20492 0.64304 0.0
H193 H 0.36203 0.23352 0.62931 0.0
H194 H 0.40588 0.19464 0.66608 0.0
H195 H 0.41937 0.22287 0.65166 0.0
H196 H 0.46189 0.26284 0.57668 0.0
H197 H 0.46899 0.32407 0.57039 0.0
H198 H 0.44011 0.3284 0.58712 0.0
H199 H 0.43323 0.26747 0.5939 0.0
C200 C 0.27001 0.75068 0.00266 0.0
C201 C 0.26957 0.74249 0.02032 0.0
C202 C 0.27692 0.71153 0.00507 0.0
C203 C 0.27286 0.72314 0.02149 0.0
C204 C 0.2777 0.7199 0.98748 0.0
C205 C 0.27434 0.73921 0.9863 0.0
U206 U 0.23353 0.78407 0.98647 0.0
O207 O 0.22341 0.80998 1.00112 0.0
O208 O 0.23561 0.81152 0.97326 0.0
C209 C 0.2291 0.82112 0.98804 0.0
C210 C 0.26486 0.77071 1.00127 0.0
C211 C 0.23953 0.84024 0.99511 0.0
C212 C 0.24469 0.86819 0.01917 0.0
C213 C 0.23735 0.84899 0.01364 0.0
C214 C 0.25711 0.8701 0.98801 0.0
C215 C 0.25426 0.87911 0.00625 0.0
C216 C 0.24977 0.85093 0.98248 0.0
C217 C 0.1855 0.75963 0.96172 0.0
C218 C 0.15671 0.7766 0.95814 0.0
C219 C 0.15513 0.74243 0.94748 0.0
C220 C 0.17488 0.74261 0.9531 0.0
C221 C 0.14571 0.75928 0.95051 0.0
C222 C 0.17648 0.77677 0.96371 0.0
C223 C 0.20533 0.75884 0.97029 0.0
O224 O 0.26322 0.77657 0.98382 0.0
O225 O 0.25097 0.77576 0.01167 0.0
O226 O 0.2081 0.76395 0.98899 0.0
O227 O 0.21918 0.76612 0.9607 0.0
H228 H 0.26634 0.75096 0.0332 0.0
H229 H 0.27192 0.71726 0.03526 0.0
H230 H 0.28124 0.71163 0.97461 0.0
H231 H 0.27496 0.74504 0.97246 0.0
H232 H 0.24242 0.87464 0.03339 0.0
H233 H 0.22937 0.84126 0.02367 0.0
H234 H 0.26413 0.87815 0.97757 0.0
H235 H 0.25144 0.84477 0.96799 0.0
H236 H 0.14988 0.78984 0.96047 0.0
H237 H 0.14705 0.72882 0.94187 0.0
H238 H 0.18165 0.72926 0.95152 0.0
H239 H 0.18454 0.79006 0.97031 0.0
C240 C 0.76384 0.18424 0.33956 0.0
C241 C 0.77377 0.17222 0.3512 0.0
C242 C 0.75528 0.1437 0.33374 0.0
C243 C 0.76953 0.15217 0.34834 0.0
C244 C 0.74554 0.15586 0.32195 0.0
C245 C 0.74979 0.17596 0.32486 0.0
U246 U 0.79275 0.22728 0.36801 0.0
O247 O 0.80504 0.25515 0.35952 0.0
O248 O 0.78422 0.25448 0.38139 0.0
C249 C 0.79483 0.2652 0.37098 0.0
C250 C 0.76786 0.20537 0.34315 0.0
C251 C 0.78589 0.28154 0.36313 0.0
C252 C 0.75785 0.29664 0.35068 0.0
C253 C 0.76641 0.28008 0.3556 0.0
C254 C 0.78833 0.31602 0.3601 0.0
C255 C 0.76862 0.31491 0.35327 0.0
C256 C 0.79684 0.29953 0.36493 0.0
C257 C 0.83126 0.2181 0.40728 0.0
C258 C 0.84634 0.24393 0.4309 0.0
C259 C 0.85894 0.21265 0.42909 0.0
C260 C 0.84471 0.20589 0.414 0.0
C261 C 0.85993 0.23176 0.43776 0.0
C262 C 0.8322 0.23719 0.41576 0.0
C263 C 0.81628 0.21083 0.39152 0.0
O264 O 0.76349 0.21276 0.36002 0.0
O265 O 0.78488 0.21242 0.33881 0.0
O266 O 0.82026 0.21471 0.37413 0.0
O267 O 0.79851 0.2138 0.39496 0.0
H268 H 0.78464 0.17839 0.36268 0.0
H269 H 0.77712 0.14333 0.35788 0.0
H270 H 0.73467 0.14984 0.31042 0.0
H271 H 0.74202 0.18504 0.31571 0.0
H272 H 0.74271 0.29519 0.34523 0.0
H273 H 0.75772 0.26628 0.35407 0.0
H274 H 0.79705 0.3298 0.36264 0.0
H275 H 0.81186 0.30096 0.37084 0.0
H276 H 0.84648 0.25864 0.43736 0.0
H277 H 0.86934 0.20298 0.43377 0.0
H278 H 0.84424 0.19114 0.40754 0.0
H279 H 0.82192 0.24684 0.41073 0.0
C280 C 0.64399 0.72446 0.98993 0.0
C281 C 0.6347 0.7401 0.99736 0.0
C282 C 0.66069 0.76259 0.98917 0.0
C283 C 0.64298 0.75899 0.99701 0.0
C284 C 0.67025 0.7468 0.98228 0.0
C285 C 0.66192 0.72785 0.98264 0.0
U286 U 0.59843 0.6929 0.9935 0.0
O287 O 0.58363 0.66868 0.97382 0.0
O288 O 0.59241 0.66447 0.00406 0.0
C289 C 0.58538 0.65631 0.98687 0.0
C290 C 0.63404 0.7049 0.98821 0.0
C291 C 0.59372 0.63854 0.98066 0.0
C292 C 0.62088 0.62218 0.97043 0.0
C293 C 0.61237 0.63925 0.97456 0.0
C294 C 0.59192 0.60357 0.9779 0.0
C295 C 0.6109 0.60416 0.97247 0.0
C296 C 0.58342 0.62064 0.98198 0.0
C297 C 0.5547 0.71604 0.00864 0.0
C298 C 0.5238 0.69663 0.00583 0.0
C299 C 0.52616 0.73049 0.01795 0.0
C300 C 0.54599 0.73208 0.01596 0.0
C301 C 0.51477 0.71283 0.01254 0.0
C302 C 0.5436 0.69822 0.00392 0.0
C303 C 0.57513 0.71802 0.0051 0.0
O304 O 0.62917 0.69864 0.00451 0.0
O305 O 0.62003 0.70166 0.97409 0.0
O306 O 0.57831 0.7144 0.9869 0.0
O307 O 0.58671 0.70984 0.0171 0.0
H308 H 0.62071 0.73771 0.00285 0.0
H309 H 0.63507 0.77078 0.00213 0.0
H310 H 0.684 0.74909 0.97633 0.0
H311 H 0.66921 0.71591 0.97676 0.0
H312 H 0.63544 0.6231 0.96609 0.0
H313 H 0.6205 0.65302 0.97348 0.0
H314 H 0.58395 0.58997 0.9799 0.0
H315 H 0.56903 0.6199 0.98675 0.0
H316 H 0.51545 0.6829 1.00126 0.0
H317 H 0.51968 0.74316 0.02339 0.0
H318 H 0.55443 0.7459 0.01976 0.0
H319 H 0.55018 0.68568 0.99825 0.0
C320 C 0.63415 0.35634 0.31792 0.0
C321 C 0.62112 0.36402 0.33002 0.0
C322 C 0.63301 0.34562 0.35589 0.0
C323 C 0.6205 0.35865 0.34881 0.0
C324 C 0.64592 0.33781 0.3436 0.0
C325 C 0.64647 0.34314 0.32476 0.0
U326 U 0.62315 0.39262 0.28258 0.0
O327 O 0.64143 0.40674 0.26265 0.0
O328 O 0.61416 0.38965 0.2514 0.0
C329 C 0.63016 0.39917 0.24724 0.0
C330 C 0.63565 0.3629 0.2986 0.0
C331 C 0.63987 0.38986 0.2315 0.0
C332 C 0.64995 0.36119 0.21432 0.0
C333 C 0.64206 0.37 0.23022 0.0
C334 C 0.65429 0.39211 0.20122 0.0
C335 C 0.65591 0.3721 0.19948 0.0
C336 C 0.6463 0.40088 0.21707 0.0
C337 C 0.59425 0.43392 0.30086 0.0
C338 C 0.59305 0.46525 0.28843 0.0
C339 C 0.57059 0.45526 0.31107 0.0
C340 C 0.57876 0.43771 0.31166 0.0
C341 C 0.57788 0.46937 0.29972 0.0
C342 C 0.60113 0.44764 0.28895 0.0
C343 C 0.60353 0.41601 0.303 0.0
O344 O 0.61927 0.36187 0.28748 0.0
O345 O 0.64636 0.37934 0.29845 0.0
O346 O 0.62252 0.41766 0.30384 0.0
O347 O 0.59539 0.40054 0.29219 0.0
H348 H 0.61165 0.37443 0.32505 0.0
H349 H 0.6106 0.36514 0.35798 0.0
H350 H 0.65562 0.32761 0.34855 0.0
H351 H 0.65668 0.33715 0.31563 0.0
H352 H 0.65121 0.34579 0.21352 0.0
H353 H 0.6373 0.36126 0.24131 0.0
H354 H 0.65851 0.40089 0.18997 0.0
H355 H 0.64472 0.41622 0.21782 0.0
H356 H 0.59879 0.47573 0.27935 0.0
H357 H 0.55905 0.45805 0.32004 0.0
H358 H 0.57326 0.42727 0.32093 0.0
H359 H 0.61298 0.44491 0.28037 0.0
C360 C 0.00995 0.27489 0.76122 0.0
C361 C 0.02701 0.27276 0.75227 0.0
C362 C 0.0111 0.27959 0.72142 0.0
C363 C 0.02754 0.27494 0.7326 0.0
C364 C 0.99445 0.28299 0.73072 0.0
C365 C 0.99387 0.28065 0.75036 0.0
U366 U 0.99213 0.23694 0.79182 0.0
O367 O 0.00638 0.22373 0.81612 0.0
O368 O 0.97933 0.23714 0.81947 0.0
C369 C 0.99353 0.2287 0.82784 0.0
C370 C 0.00842 0.26888 0.78096 0.0
C371 C 1.00105 0.23657 0.84762 0.0
C372 C 0.00507 0.26223 0.87407 0.0
C373 C 1.00027 0.25603 0.85442 0.0
C374 C 0.01235 0.22986 0.88002 0.0
C375 C 0.01061 0.24904 0.88714 0.0
C376 C 0.0076 0.22371 0.86047 0.0
C377 C 0.96533 0.19157 0.76397 0.0
C378 C 0.96095 0.1613 0.77839 0.0
C379 C 0.94898 0.16305 0.74494 0.0
C380 C 0.9556 0.18267 0.74659 0.0
C381 C 0.95212 0.15203 0.76065 0.0
C382 C 0.96748 0.18095 0.78004 0.0
C383 C 0.97469 0.2113 0.76461 0.0
O384 O 0.99099 0.26758 0.78691 0.0
O385 O 0.01811 0.25419 0.785 0.0
O386 O 0.99343 0.21303 0.76951 0.0
O387 O 0.96581 0.22498 0.77322 0.0
H388 H 0.03971 0.2685 0.76026 0.0
H389 H 0.04064 0.27213 0.72605 0.0
H390 H 0.9817 0.2872 0.72279 0.0
H391 H 0.98055 0.28272 0.75682 0.0
H392 H 0.00354 0.27708 0.87917 0.0
H393 H 0.9953 0.26623 0.84472 0.0
H394 H 0.01687 0.21945 0.8897 0.0
H395 H 0.00836 0.20866 0.85549 0.0
H396 H 0.96339 0.15321 0.79078 0.0
H397 H 0.94243 0.15628 0.73104 0.0
H398 H 0.95387 0.19069 0.73404 0.0
H399 H 0.97491 0.18766 0.79361 0.0
C400 C 0.34916 0.76598 0.18527 0.0
C401 C 0.34338 0.77985 0.17309 0.0
C402 C 0.34109 0.75613 0.1449 0.0
C403 C 0.33931 0.77495 0.15316 0.0
C404 C 0.34672 0.74225 0.15719 0.0
C405 C 0.35063 0.74712 0.17714 0.0
U406 U 0.37815 0.79789 0.22674 0.0
O407 O 0.37003 0.81017 0.25472 0.0
O408 O 0.39334 0.79101 0.25387 0.0
C409 C 0.38268 0.80117 0.26472 0.0
C410 C 0.35428 0.77103 0.20627 0.0
C411 C 0.37607 0.79215 0.28152 0.0
C412 C 0.35619 0.76815 0.29616 0.0
C413 C 0.36141 0.77679 0.27971 0.0
C414 C 0.38014 0.79031 0.31617 0.0
C415 C 0.36558 0.77478 0.31461 0.0
C416 C 0.38526 0.79889 0.29982 0.0
C417 C 0.41365 0.83889 0.2159 0.0
C418 C 0.42637 0.86525 0.24003 0.0
C419 C 0.44317 0.85867 0.21157 0.0
C420 C 0.42913 0.84334 0.20499 0.0
C421 C 0.44183 0.86988 0.22909 0.0
C422 C 0.41248 0.84984 0.23356 0.0
C423 C 0.39915 0.82253 0.20904 0.0
O424 O 0.37198 0.76814 0.21274 0.0
O425 O 0.34883 0.78745 0.21367 0.0
O426 O 0.3813 0.82486 0.21278 0.0
O427 O 0.40436 0.80545 0.21248 0.0
H428 H 0.34213 0.79456 0.17888 0.0
H429 H 0.33471 0.78596 0.14425 0.0
H430 H 0.34856 0.72769 0.15138 0.0
H431 H 0.35513 0.73619 0.18621 0.0
H432 H 0.34485 0.75631 0.29444 0.0
H433 H 0.35418 0.77139 0.26562 0.0
H434 H 0.38803 0.79554 0.32999 0.0
H435 H 0.3967 0.81066 0.30145 0.0
H436 H 0.42513 0.87344 0.25373 0.0
H437 H 0.45489 0.86196 0.20282 0.0
H438 H 0.43035 0.83495 0.1914 0.0
H439 H 0.40083 0.84647 0.24238 0.0
C440 C 0.99396 0.6493 0.73298 0.0
C441 C 0.00409 0.64082 0.74778 0.0
C442 C 0.99081 0.6616 0.77214 0.0
C443 C 0.00263 0.64699 0.76715 0.0
C444 C 0.98113 0.67046 0.75723 0.0
C445 C 0.98268 0.66433 0.73781 0.0
U446 U 0.99853 0.60614 0.69843 0.0
O447 O 0.98063 0.59369 0.6719 0.0
O448 O 0.01167 0.60187 0.67109 0.0
C449 C 0.99511 0.59542 0.66114 0.0
C450 C 0.99352 0.6411 0.71275 0.0
C451 C 0.99112 0.60371 0.64276 0.0
C452 C 0.98858 0.63128 0.62409 0.0
C453 C 0.99089 0.6237 0.64199 0.0
C454 C 0.98614 0.5989 0.60774 0.0
C455 C 0.98654 0.61897 0.60676 0.0
C456 C 0.98843 0.59137 0.62559 0.0
C457 C 0.00937 0.55984 0.71979 0.0
C458 C 0.00501 0.52918 0.69987 0.0
C459 C 0.01813 0.53067 0.73339 0.0
C460 C 0.01684 0.55061 0.73542 0.0
C461 C 0.01186 0.51965 0.71569 0.0
C462 C 0.00383 0.54911 0.70189 0.0
C463 C 0.00658 0.58045 0.7224 0.0
O464 O 0.01016 0.6363 0.70722 0.0
O465 O 0.97911 0.62775 0.70724 0.0
O466 O 0.98891 0.58456 0.71745 0.0
O467 O 0.01993 0.59215 0.71612 0.0
H468 H 0.01274 0.62905 0.74437 0.0
H469 H 0.01052 0.64006 0.77823 0.0
H470 H 0.97174 0.6816 0.76054 0.0
H471 H 0.97456 0.67087 0.72657 0.0
H472 H 0.98912 0.6468 0.62382 0.0
H473 H 0.99296 0.63342 0.65516 0.0
H474 H 0.98433 0.58903 0.59468 0.0
H475 H 0.9885 0.57589 0.62597 0.0
H476 H 0.9998 0.52116 0.68611 0.0
H477 H 0.02375 0.52385 0.74577 0.0
H478 H 0.0213 0.55876 0.7493 0.0
H479 H 0.99807 0.55606 0.68964 0.0
C480 C 0.68208 0.38176 0.65624 0.0
C481 C 0.66839 0.39194 0.64653 0.0
C482 C 0.64443 0.38226 0.66813 0.0
C483 C 0.64975 0.39222 0.65243 0.0
C484 C 0.65828 0.37209 0.67782 0.0
C485 C 0.67693 0.37185 0.67191 0.0
U486 U 0.71743 0.39402 0.62011 0.0
O487 O 0.74814 0.40523 0.62377 0.0
O488 O 0.73907 0.37726 0.60703 0.0
C489 C 0.7536 0.38985 0.61428 0.0
C490 C 0.7016 0.38125 0.64987 0.0
C491 C 0.77068 0.38192 0.62321 0.0
C492 C 0.78707 0.36619 0.64882 0.0
C493 C 0.77024 0.37292 0.64039 0.0
C494 C 0.80471 0.37725 0.62284 0.0
C495 C 0.80456 0.36838 0.64018 0.0
C496 C 0.78795 0.38391 0.61447 0.0
C497 C 0.69989 0.42048 0.57741 0.0
C498 C 0.72127 0.42981 0.55347 0.0
C499 C 0.68738 0.43526 0.54927 0.0
C500 C 0.68448 0.42732 0.56662 0.0
C501 C 0.70579 0.43648 0.5424 0.0
C502 C 0.71833 0.42186 0.57082 0.0
C503 C 0.69648 0.41164 0.59529 0.0
O504 O 0.70256 0.37037 0.63367 0.0
O505 O 0.71173 0.39816 0.65065 0.0
O506 O 0.70599 0.42055 0.61116 0.0
O507 O 0.69679 0.39278 0.59418 0.0
H508 H 0.67212 0.39968 0.63437 0.0
H509 H 0.63958 0.4004 0.64479 0.0
H510 H 0.65462 0.36405 0.68978 0.0
H511 H 0.6873 0.36383 0.6795 0.0
H512 H 0.78639 0.3593 0.66208 0.0
H513 H 0.75698 0.37126 0.64733 0.0
H514 H 0.81793 0.37957 0.61596 0.0
H515 H 0.78856 0.39092 0.60124 0.0
H516 H 0.73566 0.43073 0.54873 0.0
H517 H 0.6751 0.43998 0.54099 0.0
H518 H 0.67013 0.4263 0.5715 0.0
H519 H 0.73041 0.41666 0.57902 0.0
C520 C 0.81626 0.65412 0.24226 0.0
C521 C 0.82931 0.64788 0.22941 0.0
C522 C 0.85648 0.65919 0.25342 0.0
C523 C 0.84923 0.65044 0.2349 0.0
C524 C 0.84326 0.66544 0.26621 0.0
C525 C 0.82335 0.66293 0.26066 0.0
U526 U 0.773 0.62933 0.20951 0.0
O527 O 0.74465 0.61689 0.21612 0.0
O528 O 0.74637 0.64083 0.19774 0.0
C529 C 0.73519 0.62927 0.20683 0.0
C530 C 0.79526 0.65117 0.23679 0.0
C531 C 0.71992 0.63797 0.21694 0.0
C532 C 0.70572 0.64718 0.2466 0.0
C533 C 0.72161 0.64181 0.23716 0.0
C534 C 0.68669 0.64608 0.21567 0.0
C535 C 0.68792 0.64886 0.23598 0.0
C536 C 0.70254 0.64064 0.20627 0.0
C537 C 0.78061 0.59182 0.16851 0.0
C538 C 0.75643 0.58053 0.14168 0.0
C539 C 0.7823 0.56089 0.15002 0.0
C540 C 0.78978 0.57494 0.16503 0.0
C541 C 0.76559 0.56357 0.13813 0.0
C542 C 0.76381 0.59447 0.15679 0.0
C543 C 0.78838 0.60616 0.18477 0.0
O544 O 0.78934 0.65722 0.22014 0.0
O545 O 0.78697 0.63405 0.23934 0.0
O546 O 0.7844 0.60153 0.20192 0.0
O547 O 0.78631 0.62435 0.18229 0.0
H548 H 0.82409 0.641 0.21513 0.0
H549 H 0.85895 0.64569 0.22458 0.0
H550 H 0.84826 0.67195 0.28066 0.0
H551 H 0.81347 0.66773 0.27081 0.0
H552 H 0.70721 0.64948 0.26224 0.0
H553 H 0.73495 0.63995 0.2457 0.0
H554 H 0.67317 0.64706 0.20705 0.0
H555 H 0.70094 0.63769 0.19066 0.0
H556 H 0.74338 0.58288 0.13293 0.0
H557 H 0.78973 0.54805 0.14756 0.0
H558 H 0.8027 0.57259 0.17399 0.0
H559 H 0.75631 0.60726 0.15938 0.0
C560 C 0.26789 0.01531 0.36436 0.0
C561 C 0.25228 0.00985 0.37472 0.0
C562 C 0.22965 0.01928 0.34944 0.0
C563 C 0.23335 0.01173 0.3673 0.0
C564 C 0.24535 0.02437 0.33892 0.0
C565 C 0.26433 0.02243 0.34635 0.0
U566 U 0.30164 0.01281 0.40886 0.0
O567 O 0.32756 0.99765 0.41456 0.0
O568 O 0.32943 0.02929 0.41963 0.0
C569 C 0.33884 0.01378 0.41937 0.0
C570 C 0.28783 0.0149 0.37301 0.0
C571 C 0.35718 0.01515 0.41056 0.0
C572 C 0.37551 0.01834 0.3828 0.0
C573 C 0.3578 0.01749 0.39085 0.0
C574 C 0.39204 0.01466 0.41413 0.0
C575 C 0.39282 0.01678 0.39434 0.0
C576 C 0.37438 0.01385 0.42214 0.0
C577 C 0.28025 0.00961 0.45656 0.0
C578 C 0.30093 0.01487 0.48678 0.0
C579 C 0.26682 0.00455 0.48685 0.0
C580 C 0.26445 0.00439 0.4667 0.0
C581 C 0.28506 0.01 0.49715 0.0
C582 C 0.29855 0.0146 0.46667 0.0
C583 C 0.27756 0.01027 0.43554 0.0
O584 O 0.29441 0.03019 0.38492 0.0
O585 O 0.29176 0.99855 0.37981 0.0
O586 O 0.28239 0.99511 0.42519 0.0
O587 O 0.28393 0.02674 0.42948 0.0
H588 H 0.25477 0.00443 0.38872 0.0
H589 H 0.22161 0.00739 0.37565 0.0
H590 H 0.24304 0.03042 0.32523 0.0
H591 H 0.27623 0.02689 0.33826 0.0
H592 H 0.37561 0.01978 0.36748 0.0
H593 H 0.3446 0.01848 0.38171 0.0
H594 H 0.40511 0.01368 0.42346 0.0
H595 H 0.37413 0.01212 0.4374 0.0
H596 H 0.31511 0.01942 0.49422 0.0
H597 H 0.25437 1.00044 0.49434 0.0
H598 H 0.25024 1.00039 0.45907 0.0
H599 H 0.31093 0.01864 0.45902 0.0
C600 C 0.22852 0.01279 0.70857 0.0
C601 C 0.24334 0.02359 0.72086 0.0
C602 C 0.26659 0.01689 0.69779 0.0
C603 C 0.26213 0.02561 0.71556 0.0
C604 C 0.25154 0.00664 0.68511 0.0
C605 C 0.23261 0.00452 0.69052 0.0
U606 U 0.20107 0.01532 0.75145 0.0
O607 O 0.17222 0.02323 0.75729 0.0
O608 O 0.18066 0.99453 0.76308 0.0
C609 C 0.16689 0.00622 0.76287 0.0
C610 C 0.20955 0.00885 0.7158 0.0
C611 C 0.14748 0.99756 0.75525 0.0
C612 C 0.12307 0.98621 0.72868 0.0
C613 C 0.14212 0.99342 0.73535 0.0
C614 C 0.11489 0.9869 0.76177 0.0
C615 C 0.10918 0.98305 0.74184 0.0
C616 C 0.13385 0.99405 0.76838 0.0
C617 C 0.23073 0.03668 0.79815 0.0
C618 C 0.21786 0.03589 0.8293 0.0
C619 C 0.25053 0.05017 0.82739 0.0
C620 C 0.24814 0.04608 0.8073 0.0
C621 C 0.23551 0.04486 0.83864 0.0
C622 C 0.21548 0.03184 0.80919 0.0
C623 C 0.22892 0.03131 0.77722 0.0
O624 O 0.20912 0.99544 0.72789 0.0
O625 O 0.20152 0.0243 0.722 0.0
O626 O 0.21762 0.04136 0.76683 0.0
O627 O 0.22619 0.01264 0.77201 0.0
H628 H 0.24051 0.02991 0.73497 0.0
H629 H 0.27311 0.03332 0.72597 0.0
H630 H 0.25432 0.99993 0.6712 0.0
H631 H 0.22135 0.99604 0.68088 0.0
H632 H 0.11918 0.98327 0.71325 0.0
H633 H 0.15255 0.99604 0.72503 0.0
H634 H 0.10456 0.98505 0.77233 0.0
H635 H 0.13776 0.99725 0.78379 0.0
H636 H 0.20596 0.03182 0.83755 0.0
H637 H 0.26437 0.05688 0.83416 0.0
H638 H 0.26005 0.04987 0.79894 0.0
H639 H 0.2019 0.02463 0.80229 0.0
C640 C 0.65657 0.68309 0.37813 0.0
C641 C 0.64779 0.67034 0.38995 0.0
C642 C 0.66585 0.64447 0.37738 0.0
C643 C 0.65241 0.65124 0.38962 0.0
C644 C 0.67475 0.65739 0.36569 0.0
C645 C 0.67014 0.67653 0.36607 0.0
U646 U 0.62249 0.71948 0.39246 0.0
O647 O 0.62688 0.7504 0.40269 0.0
O648 O 0.60804 0.74059 0.37606 0.0
C649 C 0.61622 0.75542 0.38779 0.0
C650 C 0.65089 0.70287 0.37776 0.0
C651 C 0.6242 0.77216 0.3786 0.0
C652 C 0.65051 0.79037 0.36541 0.0
C653 C 0.64312 0.77365 0.37311 0.0
C654 C 0.62003 0.80398 0.3683 0.0
C655 C 0.63908 0.80582 0.36305 0.0
C656 C 0.6127 0.78734 0.37597 0.0
C657 C 0.58186 0.70125 0.42204 0.0
C658 C 0.55257 0.71686 0.42639 0.0
C659 C 0.55918 0.68916 0.44363 0.0
C660 C 0.57652 0.68814 0.43515 0.0
C661 C 0.5468 0.70331 0.43908 0.0
C662 C 0.56997 0.71585 0.41795 0.0
C663 C 0.59932 0.6988 0.41209 0.0
O664 O 0.63421 0.70414 0.36784 0.0
O665 O 0.65298 0.71336 0.39458 0.0
O666 O 0.61528 0.70891 0.42005 0.0
O667 O 0.59705 0.69874 0.39317 0.0
H668 H 0.63712 0.67511 0.39923 0.0
H669 H 0.64507 0.64164 0.39859 0.0
H670 H 0.6853 0.65271 0.35624 0.0
H671 H 0.67701 0.68616 0.3568 0.0
H672 H 0.66517 0.79121 0.36137 0.0
H673 H 0.65221 0.76202 0.375 0.0
H674 H 0.6109 0.81566 0.36706 0.0
H675 H 0.5981 0.78648 0.38021 0.0
H676 H 0.54331 0.72781 0.42239 0.0
H677 H 0.55534 0.6787 0.45356 0.0
H678 H 0.58559 0.67684 0.43854 0.0
H679 H 0.5739 0.72612 0.40786 0.0
C680 C 0.71407 0.22914 0.01565 0.0
C681 C 0.72676 0.24457 0.02491 0.0
C682 C 0.70249 0.26684 0.01924 0.0
C683 C 0.72105 0.26322 0.02667 0.0
C684 C 0.68952 0.25121 0.01059 0.0
C685 C 0.69532 0.23247 0.00873 0.0
U686 U 0.75659 0.20098 0.01919 0.0
O687 O 0.76139 0.17174 0.0266 0.0
O688 O 0.7683 0.18067 0.99836 0.0
C689 C 0.76713 0.16655 0.0096 0.0
C690 C 0.72129 0.21017 0.012 0.0
C691 C 0.75867 0.14769 1.0002 0.0
C692 C 0.73107 0.12451 0.98877 0.0
C693 C 0.73859 0.14304 0.99686 0.0
C694 C 0.76365 0.11545 0.98688 0.0
C695 C 0.74355 0.11044 0.98385 0.0
C696 C 0.7711 0.13389 0.99496 0.0
C697 C 0.80337 0.22978 0.04193 0.0
C698 C 0.83451 0.21683 0.04167 0.0
C699 C 0.83241 0.24929 0.05637 0.0
C700 C 0.81239 0.24702 0.05178 0.0
C701 C 0.84374 0.23433 0.05111 0.0
C702 C 0.81446 0.21457 0.03712 0.0
C703 C 0.78256 0.22819 0.03604 0.0
O704 O 0.73373 0.20962 0.99892 0.0
O705 O 0.72698 0.2021 0.0276 0.0
O706 O 0.77174 0.21687 0.0457 0.0
O707 O 0.77778 0.22578 0.01728 0.0
H708 H 0.74137 0.24228 0.03021 0.0
H709 H 0.7316 0.27477 0.03311 0.0
H710 H 0.67501 0.25339 0.00499 0.0
H711 H 0.68535 0.22071 0.00151 0.0
H712 H 0.71553 0.12115 0.98649 0.0
H713 H 0.72879 0.15362 1.00077 0.0
H714 H 0.7737 0.10492 0.98365 0.0
H715 H 0.78664 0.13726 0.99748 0.0
H716 H 0.84281 0.20498 0.03762 0.0
H717 H 0.83909 0.26303 0.06339 0.0
H718 H 0.804 0.2589 0.05554 0.0
H719 H 0.80764 0.20112 0.02955 0.0
C720 C 0.24339 0.80867 0.66842 0.0
C721 C 0.23776 0.82372 0.6578 0.0
C722 C 0.25755 0.84734 0.68095 0.0
C723 C 0.24478 0.84288 0.664 0.0
C724 C 0.26282 0.83216 0.6917 0.0
C725 C 0.25581 0.81301 0.68547 0.0
U726 U 0.21226 0.77018 0.63389 0.0
O727 O 0.2201 0.74351 0.61877 0.0
O728 O 0.19819 0.74192 0.63945 0.0
C729 C 0.20894 0.73228 0.62821 0.0
C730 C 0.23699 0.78839 0.66156 0.0
C731 C 0.2174 0.71538 0.6358 0.0
C732 C 0.24153 0.69226 0.63483 0.0
C733 C 0.23507 0.70978 0.63008 0.0
C734 C 0.21322 0.68588 0.65182 0.0
C735 C 0.23048 0.67986 0.64538 0.0
C736 C 0.20672 0.70339 0.647 0.0
C737 C 0.17674 0.78297 0.59379 0.0
C738 C 0.16651 0.76251 0.56389 0.0
C739 C 0.14515 0.78491 0.57667 0.0
C740 C 0.15909 0.79114 0.59218 0.0
C741 C 0.14863 0.77042 0.56236 0.0
C742 C 0.18034 0.76861 0.57949 0.0
C743 C 0.19097 0.7891 0.61069 0.0
O744 O 0.21909 0.78243 0.66421 0.0
O745 O 0.24178 0.7826 0.64433 0.0
O746 O 0.20903 0.78626 0.60832 0.0
O747 O 0.1857 0.78431 0.6274 0.0
H748 H 0.22819 0.82061 0.64456 0.0
H749 H 0.2406 0.85415 0.65523 0.0
H750 H 0.27238 0.83507 0.70495 0.0
H751 H 0.26026 0.80156 0.69387 0.0
H752 H 0.25472 0.68802 0.62932 0.0
H753 H 0.2436 0.71851 0.62125 0.0
H754 H 0.20446 0.67682 0.66017 0.0
H755 H 0.19296 0.70722 0.65148 0.0
H756 H 0.16986 0.75155 0.55305 0.0
H757 H 0.13145 0.79112 0.57618 0.0
H758 H 0.15596 0.80215 0.60311 0.0
H759 H 0.1938 0.76196 0.58039 0.0
C760 C 0.36645 0.26491 1.00061 0.0
C761 C 0.37714 0.24992 0.99415 0.0
C762 C 0.35189 0.22599 1.00131 0.0
C763 C 0.36989 0.23066 0.99439 0.0
C764 C 0.34099 0.24108 0.00731 0.0
C765 C 0.34824 0.26039 0.00698 0.0
U766 U 0.41133 0.29938 0.00544 0.0
O767 O 0.41915 0.32638 0.99285 0.0
O768 O 0.41992 0.32628 0.02438 0.0
C769 C 0.42154 0.33673 0.00973 0.0
C770 C 0.37508 0.28505 0.00238 0.0
C771 C 0.41189 0.35457 0.01074 0.0
C772 C 0.38338 0.3716 0.00508 0.0
C773 C 0.39206 0.3543 0.00508 0.0
C774 C 0.41415 0.38951 0.01696 0.0
C775 C 0.39439 0.38941 0.01081 0.0
C776 C 0.42282 0.37221 0.01688 0.0
C777 C 0.45956 0.27864 0.00673 0.0
C778 C 0.48916 0.29965 0.01582 0.0
C779 C 0.49067 0.2659 0.00494 0.0
C780 C 0.47046 0.26317 0.00243 0.0
C781 C 0.5002 0.28412 0.01191 0.0
C782 C 0.469 0.29695 0.01319 0.0
C783 C 0.43839 0.27563 0.0048 0.0
O784 O 0.38509 0.29072 0.01908 0.0
O785 O 0.38393 0.29027 0.9875 0.0
O786 O 0.42984 0.28137 0.98906 0.0
O787 O 0.43031 0.2809 0.02051 0.0
H788 H 0.39132 0.25311 0.98933 0.0
H789 H 0.37853 0.21942 0.98938 0.0
H790 H 0.32717 0.23799 0.01291 0.0
H791 H 0.3399 0.27179 0.01223 0.0
H792 H 0.36808 0.37105 1.00051 0.0
H793 H 0.3834 0.34076 1.00041 0.0
H794 H 0.42305 0.40298 0.02126 0.0
H795 H 0.43816 0.37264 0.02128 0.0
H796 H 0.49612 0.31391 0.02094 0.0
H797 H 0.49883 0.25366 0.00192 0.0
H798 H 0.46334 0.24896 0.99737 0.0
H799 H 0.46077 0.30909 0.01641 0.0
C800 C 0.38154 0.66059 0.68248 0.0
C801 C 0.38787 0.64824 0.66786 0.0
C802 C 0.38193 0.67149 0.64449 0.0
C803 C 0.38803 0.65362 0.64904 0.0
C804 C 0.37576 0.68389 0.65927 0.0
C805 C 0.37555 0.67846 0.67811 0.0
U806 U 0.39346 0.62502 0.71834 0.0
O807 O 0.40477 0.62888 0.74902 0.0
O808 O 0.3766 0.61242 0.74019 0.0
C809 C 0.38901 0.62022 0.75468 0.0
C810 C 0.38113 0.65477 0.70221 0.0
C811 C 0.38086 0.62989 0.77154 0.0
C812 C 0.35617 0.63002 0.79418 0.0
C813 C 0.36301 0.62247 0.7771 0.0
C814 C 0.3847 0.65288 0.80037 0.0
C815 C 0.36708 0.64511 0.80621 0.0
C816 C 0.39153 0.64534 0.78329 0.0
C817 C 0.41925 0.58176 0.69902 0.0
C818 C 0.42271 0.55231 0.71457 0.0
C819 C 0.43948 0.55803 0.68633 0.0
C820 C 0.43171 0.57574 0.6855 0.0
C821 C 0.43488 0.54596 0.70072 0.0
C822 C 0.41497 0.57008 0.71373 0.0
C823 C 0.41045 0.59994 0.69703 0.0
O824 O 0.36996 0.63887 0.70364 0.0
O825 O 0.39812 0.65538 0.71215 0.0
O826 O 0.41979 0.61544 0.70681 0.0
O827 O 0.39163 0.59905 0.69776 0.0
H828 H 0.39265 0.6344 0.67102 0.0
H829 H 0.3931 0.64384 0.63808 0.0
H830 H 0.37076 0.69766 0.65622 0.0
H831 H 0.3706 0.68815 0.68922 0.0
H832 H 0.34244 0.62383 0.79811 0.0
H833 H 0.35452 0.61044 0.7685 0.0
H834 H 0.39364 0.66428 0.80941 0.0
H835 H 0.40547 0.65127 0.77963 0.0
H836 H 0.4187 0.5433 0.72571 0.0
H837 H 0.44903 0.55376 0.67564 0.0
H838 H 0.43524 0.58465 0.6741 0.0
H839 H 0.40538 0.57453 0.72433 0.0
C840 C 0.00849 0.73193 0.24254 0.0
C841 C 0.02459 0.7401 0.25509 0.0
C842 C 0.01188 0.72451 0.28179 0.0
C843 C 0.02632 0.73634 0.27447 0.0
C844 C 0.99585 0.71621 0.2691 0.0
C845 C 0.9942 0.71986 0.24965 0.0
U846 U 0.01672 0.77091 0.21046 0.0
O847 O 0.02476 0.7721 0.18083 0.0
O848 O 0.99763 0.78301 0.18873 0.0
C849 C 0.00876 0.77935 0.17487 0.0
C850 C 0.00558 0.73786 0.22282 0.0
C851 C 0.99898 0.77071 0.15617 0.0
C852 C 0.98704 0.74294 0.13335 0.0
C853 C 0.9949 0.75065 0.15194 0.0
C854 C 0.98682 0.7753 0.12339 0.0
C855 C 0.98314 0.7552 0.11877 0.0
C856 C 0.99463 0.78294 0.14189 0.0
C857 C 0.04429 0.81718 0.23674 0.0
C858 C 0.04318 0.84928 0.22617 0.0
C859 C 0.0646 0.84428 0.25422 0.0
C860 C 0.05842 0.82456 0.25172 0.0
C861 C 0.05665 0.85696 0.2418 0.0
C862 C 0.03707 0.82953 0.22365 0.0
C863 C 0.03616 0.79698 0.236 0.0
O864 O 0.99416 0.75174 0.22121 0.0
O865 O 0.02134 0.74058 0.21394 0.0
O866 O 0.04452 0.78429 0.22537 0.0
O867 O 0.01719 0.79422 0.23377 0.0
H868 H 0.0356 0.74985 0.25004 0.0
H869 H 0.03869 0.74321 0.28385 0.0
H870 H 0.98448 0.707 0.27422 0.0
H871 H 0.98153 0.71367 0.24028 0.0
H872 H 0.98423 0.72741 0.13035 0.0
H873 H 0.99814 0.74099 0.16285 0.0
H874 H 0.98438 0.78519 0.11251 0.0
H875 H 0.99777 0.79846 0.14489 0.0
H876 H 0.03661 0.85864 0.21646 0.0
H877 H 0.07523 0.84969 0.26618 0.0
H878 H 0.0642 0.81518 0.26189 0.0
H879 H 0.02616 0.82402 0.21195 0.0
C880 C 0.6796 0.246 0.80821 0.0
C881 C 0.66935 0.23877 0.82286 0.0
C882 C 0.69005 0.26023 0.84726 0.0
C883 C 0.67452 0.24582 0.84221 0.0
C884 C 0.70043 0.26721 0.83248 0.0
C885 C 0.69522 0.26015 0.81313 0.0
U886 U 0.647 0.21362 0.76949 0.0
O887 O 0.63217 0.22034 0.74219 0.0
O888 O 0.65346 0.19896 0.74181 0.0
C889 C 0.64173 0.20874 0.73157 0.0
C890 C 0.6737 0.23935 0.78778 0.0
C891 C 0.64904 0.21651 0.71443 0.0
C892 C 0.6634 0.24288 0.69825 0.0
C893 C 0.65875 0.2351 0.71529 0.0
C894 C 0.64936 0.21324 0.67956 0.0
C895 C 0.65838 0.23216 0.68012 0.0
C896 C 0.64476 0.20552 0.69654 0.0
C897 C 0.60746 0.17765 0.78187 0.0
C898 C 0.57944 0.16593 0.75925 0.0
C899 C 0.58975 0.14657 0.78469 0.0
C900 C 0.60487 0.16083 0.79132 0.0
C901 C 0.57686 0.149 0.76859 0.0
C902 C 0.59465 0.18005 0.76573 0.0
C903 C 0.62389 0.19226 0.78842 0.0
O904 O 0.677 0.22153 0.78225 0.0
O905 O 0.65645 0.24355 0.78129 0.0
O906 O 0.62113 0.21012 0.78513 0.0
O907 O 0.64093 0.1874 0.78425 0.0
H908 H 0.65718 0.22789 0.81929 0.0
H909 H 0.66604 0.24031 0.85315 0.0
H910 H 0.7126 0.2781 0.83587 0.0
H911 H 0.70331 0.26586 0.80199 0.0
H912 H 0.67054 0.2574 0.69922 0.0
H913 H 0.66221 0.24378 0.72904 0.0
H914 H 0.64496 0.20466 0.66591 0.0
H915 H 0.63719 0.19118 0.69561 0.0
H916 H 0.56996 0.16806 0.74661 0.0
H917 H 0.58808 0.13368 0.79219 0.0
H918 H 0.61466 0.15865 0.80371 0.0
H919 H 0.5965 0.19276 0.75797 0.0
C920 C 0.00547 0.35446 0.27575 0.0
C921 C 1.00102 0.36685 0.26159 0.0
C922 C 0.00562 0.34189 0.23623 0.0
C923 C 1.00109 0.36064 0.24203 0.0
C924 C 0.00971 0.32938 0.25051 0.0
C925 C 0.00966 0.33564 0.27014 0.0
U926 U 0.00407 0.39651 0.31256 0.0
O927 O 0.99187 0.40027 0.34039 0.0
O928 O 0.02313 0.4067 0.33911 0.0
C929 C 0.00889 0.40501 0.35017 0.0
C930 C 0.00691 0.36174 0.29627 0.0
C931 C 0.01265 0.3952 0.36771 0.0
C932 C 0.00609 0.36828 0.38665 0.0
C933 C 0.0043 0.37639 0.36907 0.0
C934 C 0.0256 0.39719 0.4014 0.0
C935 C 0.01639 0.37878 0.40308 0.0
C936 C 0.02365 0.40537 0.38384 0.0
C937 C 0.99446 0.44463 0.29594 0.0
C938 C 0.99694 0.47207 0.32021 0.0
C939 C 0.98923 0.47644 0.28638 0.0
C940 C 0.98998 0.45667 0.28151 0.0
C941 C 0.99306 0.48437 0.30575 0.0
C942 C 0.99761 0.45235 0.31534 0.0
C943 C 0.99649 0.42416 0.29086 0.0
O944 O 0.02197 0.37431 0.30184 0.0
O945 O 0.99078 0.36714 0.30252 0.0
O946 O 0.98297 0.41214 0.29642 0.0
O947 O 0.01403 0.41913 0.29475 0.0
H948 H 0.99793 0.38151 0.26572 0.0
H949 H 0.9982 0.37078 0.23149 0.0
H950 H 0.01306 0.31479 0.24651 0.0
H951 H 0.01319 0.32593 0.28092 0.0
H952 H 0.99906 0.35395 0.38752 0.0
H953 H 0.99589 0.3682 0.35673 0.0
H954 H 0.03354 0.4056 0.41387 0.0
H955 H 0.03021 0.41991 0.38303 0.0
H956 H 0.99975 0.47777 0.33527 0.0
H957 H 0.9864 0.48562 0.27493 0.0
H958 H 0.98749 0.45087 0.26647 0.0
H959 H 1.00097 0.44316 0.32667 0.0
H960 H 0.27166 0.55642 0.59408 0.0
H961 H 0.30023 0.50516 0.60167 0.0
H962 H 0.28223 0.53819 0.65094 0.0
C963 C 0.27685 0.54599 0.60343 0.0
C964 C 0.27552 0.54906 0.62337 0.0
C965 C 0.28571 0.53027 0.59545 0.0
C966 C 0.29329 0.51726 0.60773 0.0
C967 C 0.29187 0.52007 0.62783 0.0
C968 C 0.28317 0.53605 0.63548 0.0
N969 N 0.29916 0.5074 0.64093 0.0
C970 C 0.30633 0.48991 0.63575 0.0
H971 H 0.31474 0.49505 0.9683 0.0
H972 H 0.29291 0.54909 0.98479 0.0
H973 H 0.33884 0.52886 0.02085 0.0
C974 C 0.31552 0.50809 0.97817 0.0
C975 C 0.3286 0.51035 0.99483 0.0
C976 C 0.30261 0.52188 0.97454 0.0
C977 C 0.30303 0.53852 0.98752 0.0
C978 C 0.31636 0.54114 0.0042 0.0
C979 C 0.32878 0.52687 0.0079 0.0
N980 N 0.31747 0.55767 0.0178 0.0
C981 C 0.3106 0.57512 0.01383 0.0
H982 H 0.67586 0.94549 0.37578 0.0
H983 H 0.7067 0.99633 0.35904 0.0
H984 H 0.69883 0.94386 0.32053 0.0
C985 C 0.68313 0.95288 0.36502 0.0
C986 C 0.68595 0.94249 0.3475 0.0
C987 C 0.69077 0.97222 0.36937 0.0
C988 C 0.70083 0.98141 0.35567 0.0
C989 C 0.7037 0.97127 0.33795 0.0
C990 C 0.69642 0.95176 0.33406 0.0
N991 N 0.71424 0.98018 0.32406 0.0
C992 C 0.72043 0.99982 0.32573 0.0
H993 H 0.73502 0.97817 0.00509 0.0
H994 H 0.71066 0.91896 0.99801 0.0
H995 H 0.69983 0.95598 0.95289 0.0
C996 C 0.72647 0.96619 0.99647 0.0
C997 C 0.71775 0.96915 0.97825 0.0
C998 C 0.72373 0.94822 0.00393 0.0
C999 C 0.71295 0.93278 0.99233 0.0
C1000 C 0.70451 0.93545 0.97374 0.0
C1001 C 0.70666 0.95377 0.96699 0.0
N1002 N 0.69353 0.92017 0.96163 0.0
C1003 C 0.69137 0.90115 0.96614 0.0
H1004 H 0.60279 0.27363 0.55971 0.0
H1005 H 0.60558 0.30569 0.50994 0.0
H1006 H 0.65789 0.29586 0.5438 0.0
C1007 C 0.61123 0.28102 0.54976 0.0
C1008 C 0.63141 0.28343 0.55336 0.0
C1009 C 0.60175 0.28915 0.5343 0.0
C1010 C 0.6128 0.29931 0.52185 0.0
C1011 C 0.63316 0.30149 0.52515 0.0
C1012 C 0.64226 0.29386 0.54111 0.0
N1013 N 0.64502 0.31165 0.51314 0.0
C1014 C 0.63911 0.31623 0.49468 0.0
H1015 H 0.00613 0.73818 0.98534 0.0
H1016 H 0.99676 0.71145 0.9269 0.0
H1017 H 0.95169 0.70603 0.96504 0.0
C1018 C 0.99686 0.7297 0.97376 0.0
C1019 C 0.97824 0.72255 0.97731 0.0
C1020 C 0.00384 0.72553 0.95572 0.0
C1021 C 0.99144 0.71487 0.94078 0.0
C1022 C 0.97247 0.70804 0.94399 0.0
C1023 C 0.96613 0.71162 0.9624 0.0
N1024 N 0.95953 0.69734 0.92915 0.0
C1025 C 0.96396 0.69352 0.91021 0.0
H1026 H 0.97119 0.30718 0.50565 0.0
H1027 H 0.98185 0.26897 0.54969 0.0
H1028 H 0.02761 0.30976 0.5364 0.0
C1029 C 0.98072 0.30254 0.51712 0.0
C1030 C 0.99994 0.31074 0.52022 0.0
C1031 C 0.97407 0.28733 0.52743 0.0
C1032 C 0.98673 0.28083 0.54174 0.0
C1033 C 0.00601 0.28922 0.54517 0.0
C1034 C 0.01263 0.30375 0.53406 0.0
N1035 N 0.01935 0.28256 0.55893 0.0
C1036 C 0.01521 0.27987 0.57766 0.0
H1037 H 0.38203 0.68536 0.94781 0.0
H1038 H 0.36005 0.71175 0.99817 0.0
H1039 H 0.32284 0.69866 0.94506 0.0
C1040 C 0.37005 0.69068 0.95489 0.0
C1041 C 0.35203 0.69064 0.94418 0.0
C1042 C 0.37307 0.69845 0.97429 0.0
C1043 C 0.3577 0.70592 0.98314 0.0
C1044 C 0.33951 0.70601 0.97268 0.0
C1045 C 0.33683 0.69853 0.95315 0.0
N1046 N 0.32382 0.71367 0.98142 0.0
C1047 C 0.32482 0.7199 1.00103 0.0
H1048 H 0.57242 0.60728 0.29516 0.0
H1049 H 0.51098 0.60549 0.29825 0.0
H1050 H 0.54226 0.6553 0.27917 0.0
C1051 C 0.55914 0.61427 0.29389 0.0
C1052 C 0.55949 0.63256 0.28715 0.0
C1053 C 0.54174 0.60429 0.2977 0.0
C1054 C 0.52446 0.61317 0.29539 0.0
C1055 C 0.52469 0.63182 0.28904 0.0
C1056 C 0.54216 0.64118 0.28452 0.0
N1057 N 0.50766 0.64145 0.28656 0.0
C1058 C 0.49048 0.63649 0.29445 0.0
H1059 H 0.97735 0.01167 0.73183 0.0
H1060 H 0.91726 0.00294 0.70999 0.0
H1061 H 0.95357 0.9564 0.70382 0.0
C1062 C 0.96503 0.00241 0.72463 0.0
C1063 C 0.96754 0.98333 0.71812 0.0
C1064 C 0.94704 0.00978 0.72148 0.0
C1065 C 0.93116 0.99737 0.71252 0.0
C1066 C 0.93344 0.97798 0.70632 0.0
C1067 C 0.95172 0.97119 0.70889 0.0
N1068 N 0.91778 0.96495 0.69728 0.0
C1069 C 0.89904 0.96988 0.69358 0.0
H1070 H 0.49416 0.98247 0.30668 0.0
H1071 H 0.55461 0.97831 0.30162 0.0
H1072 H 0.53659 0.01519 0.3482 0.0
C1073 C 0.50914 0.9872 0.31167 0.0
C1074 C 0.51349 1.00005 0.32842 0.0
C1075 C 0.52382 0.97931 0.30196 0.0
C1076 C 0.54327 0.9846 0.30895 0.0
C1077 C 0.54787 0.99781 0.32559 0.0
C1078 C 0.53294 0.00524 0.33528 0.0
N1079 N 0.56721 0.00365 0.3334 0.0
C1080 C 0.58362 1.00037 0.32413 0.0
H1081 H 0.94397 0.38806 0.69086 0.0
H1082 H 0.99647 0.36419 0.70864 0.0
H1083 H 0.94304 0.32726 0.69755 0.0
C1084 C 0.95143 0.37566 0.69437 0.0
C1085 C 0.94094 0.35743 0.69361 0.0
C1086 C 0.9714 0.37817 0.69983 0.0
C1087 C 0.98105 0.36217 0.70446 0.0
C1088 C 0.97087 0.3437 0.70349 0.0
C1089 C 0.95087 0.34144 0.69802 0.0
N1090 N 0.98034 0.32725 0.7081 0.0
C1091 C 1.00005 0.32812 0.7138 0.0
H1092 H 0.72688 0.43695 0.40489 0.0
H1093 H 0.69877 0.48899 0.40006 0.0
H1094 H 0.7073 0.45261 0.34885 0.0
C1095 C 0.72035 0.4471 0.39603 0.0
C1096 C 0.7182 0.44302 0.3759 0.0
C1097 C 0.71318 0.46348 0.4049 0.0
C1098 C 0.7043 0.47632 0.39329 0.0
C1099 C 0.70243 0.47255 0.37297 0.0
C1100 C 0.70902 0.45567 0.36445 0.0
N1101 N 0.69377 0.48513 0.36059 0.0
C1102 C 0.69001 0.50395 0.36623 0.0
H1103 H 0.69263 0.50602 0.01908 0.0
H1104 H 0.69025 0.44796 0.03568 0.0
H1105 H 0.64928 0.46271 0.9909 0.0
C1106 C 0.68654 0.49106 0.01681 0.0
C1107 C 0.67049 0.4859 0.0032 0.0
C1108 C 0.69375 0.47759 0.0287 0.0
C1109 C 0.68505 0.45841 0.02639 0.0
C1110 C 0.66907 0.45307 0.0125 0.0
C1111 C 0.66182 0.46688 1.00124 0.0
N1112 N 0.65902 0.43434 0.0102 0.0
C1113 C 0.66719 0.41746 0.01379 0.0
H1114 H 0.31527 0.0684 0.6368 0.0
H1115 H 0.30367 0.01171 0.64694 0.0
H1116 H 0.32071 0.05876 0.69443 0.0
C1117 C 0.31418 0.05804 0.64748 0.0
C1118 C 0.31841 0.06388 0.66675 0.0
C1119 C 0.30877 0.03901 0.64172 0.0
C1120 C 0.3079 0.02545 0.65543 0.0
C1121 C 0.31304 0.02822 0.67746 0.0
C1122 C 0.31739 0.0503 0.68055 0.0
N1123 N 0.31467 0.00578 0.69953 0.0
C1124 C 0.31139 0.98614 0.70406 0.0
H1125 H 0.26206 0.01554 0.9763 0.0
H1126 H 0.28743 0.07414 0.98879 0.0
H1127 H 0.29538 0.03325 0.03088 0.0
C1128 C 0.27021 0.02677 0.98629 0.0
C1129 C 0.27806 0.02216 0.00433 0.0
C1130 C 0.2736 0.04544 0.98056 0.0
C1131 C 0.28487 0.05972 0.99321 0.0
C1132 C 0.29265 0.05538 0.01148 0.0
C1133 C 0.28928 0.03658 0.01686 0.0
N1134 N 0.30398 0.06951 0.02471 0.0
C1135 C 0.30882 0.08838 0.02068 0.0
H1136 H 0.40792 0.71415 0.43012 0.0
H1137 H 0.40337 0.70577 0.48982 0.0
H1138 H 0.35392 0.72014 0.45437 0.0
C1139 C 0.39913 0.71333 0.44215 0.0
C1140 C 0.37978 0.71743 0.43983 0.0
C1141 C 0.40769 0.70906 0.46003 0.0
C1142 C 0.39674 0.70899 0.47599 0.0
C1143 C 0.37721 0.7129 0.47389 0.0
C1144 C 0.36893 0.71715 0.45585 0.0
N1145 N 0.36543 0.71281 0.4895 0.0
C1146 C 0.37129 0.70821 0.50798 0.0
H1147 H 0.98148 0.26379 0.02343 0.0
H1148 H 0.99155 0.29237 0.08103 0.0
H1149 H 0.03257 0.30296 0.03957 0.0
C1150 C 0.99056 0.27332 0.03438 0.0
C1151 C 0.00782 0.28265 0.02949 0.0
C1152 C 0.98444 0.27699 0.05286 0.0
C1153 C 0.99616 0.28973 0.06672 0.0
C1154 C 0.01367 0.29905 0.06204 0.0
C1155 C 0.01923 0.29567 0.0433 0.0
N1156 N 0.0259 0.31194 0.07578 0.0
C1157 C 0.02272 0.315 0.09516 0.0
H1158 H 0.03019 0.70158 0.50717 0.0
H1159 H 0.03743 0.7062 0.44719 0.0
H1160 H 0.99299 0.66554 0.46331 0.0
C1161 C 0.02528 0.69745 0.49205 0.0
C1162 C 0.01013 0.68278 0.48709 0.0
C1163 C 0.03519 0.70593 0.47782 0.0
C1164 C 0.02962 0.69987 0.45819 0.0
C1165 C 0.01415 0.68538 0.45297 0.0
C1166 C 0.00468 0.67684 0.46745 0.0
N1167 N 0.00803 0.67851 0.43341 0.0
C1168 C 0.01315 0.68758 0.4174 0.0
H1169 H 0.64086 0.31297 0.07152 0.0
H1170 H 0.64974 0.30123 0.01438 0.0
H1171 H 0.69783 0.32099 0.06025 0.0
C1172 C 0.65122 0.31224 0.06079 0.0
C1173 C 0.67048 0.317 0.06611 0.0
C1174 C 0.64506 0.30689 0.04182 0.0
C1175 C 0.65842 0.30612 0.02789 0.0
C1176 C 0.6803 0.31213 0.03008 0.0
C1177 C 0.68388 0.31676 0.05213 0.0
N1178 N 0.70166 0.31442 0.007 0.0
C1179 C 0.70586 0.31135 0.98725 0.0
H1180 H 0.4296 0.40602 0.71123 0.0
H1181 H 0.49084 0.40553 0.70786 0.0
H1182 H 0.45766 0.35613 0.72543 0.0
C1183 C 0.44255 0.39848 0.71225 0.0
C1184 C 0.44145 0.37988 0.71836 0.0
C1185 C 0.46029 0.40795 0.70867 0.0
C1186 C 0.47712 0.39829 0.71064 0.0
C1187 C 0.47614 0.37939 0.7164 0.0
C1188 C 0.45835 0.37049 0.72062 0.0
N1189 N 0.4927 0.36901 0.71847 0.0
C1190 C 0.51031 0.37419 0.71149 0.0
H1191 H 0.02081 0.99018 0.26943 0.0
H1192 H 0.08078 0.01006 0.28422 0.0
H1193 H 0.03706 0.04891 0.29334 0.0
C1194 C 0.03194 0.00167 0.27496 0.0
C1195 C 0.02658 0.0199 0.28126 0.0
C1196 C 0.05145 0.99805 0.27585 0.0
C1197 C 0.06572 0.01286 0.2835 0.0
C1198 C 0.06059 0.03128 0.28984 0.0
C1199 C 0.04103 0.03477 0.28837 0.0
N1200 N 0.07474 0.04642 0.29795 0.0
C1201 C 0.09384 0.04343 0.30334 0.0
H1202 H 0.50753 0.03007 0.69474 0.0
H1203 H 0.45518 0.05814 0.69325 0.0
H1204 H 0.45817 0.00703 0.65521 0.0
C1205 C 0.49243 0.03001 0.6895 0.0
C1206 C 0.48415 0.01622 0.6744 0.0
C1207 C 0.48211 0.04506 0.69657 0.0
C1208 C 0.46308 0.04617 0.68855 0.0
C1209 C 0.45447 0.03225 0.67384 0.0
C1210 C 0.4649 0.01728 0.66697 0.0
N1211 N 0.43659 0.03498 0.66379 0.0
C1212 C 0.41906 0.02795 0.66965 0.0
H1213 H 0.05531 0.61799 0.33183 0.0
H1214 H 0.00283 0.63853 0.30869 0.0
H1215 H 0.05601 0.67601 0.31527 0.0
C1216 C 0.04777 0.62961 0.32634 0.0
C1217 C 0.05819 0.64734 0.32427 0.0
C1218 C 0.02788 0.62638 0.32068 0.0
C1219 C 0.01817 0.6412 0.31322 0.0
C1220 C 0.02822 0.65923 0.3114 0.0
C1221 C 0.0482 0.66226 0.31709 0.0
N1222 N 0.01875 0.67425 0.30331 0.0
C1223 C 0.9991 0.67258 0.29707 0.0
H1224 H 0.16982 0.65846 0.38962 0.0
H1225 H 0.18157 0.63271 0.33375 0.0
H1226 H 0.13721 0.66304 0.37644 0.0
H1227 H 0.14932 0.6382 0.32036 0.0
H1228 H 0.08349 0.62196 0.31337 0.0
H1229 H 0.11781 0.62314 0.32339 0.0
H1230 H 0.11606 0.67906 0.35485 0.0
H1231 H 0.0812 0.6775 0.34521 0.0
C1232 C 0.16555 0.65399 0.37446 0.0
C1233 C 0.17829 0.64491 0.36285 0.0
C1234 C 0.14689 0.65688 0.36683 0.0
C1235 C 0.1405 0.6508 0.34737 0.0
C1236 C 0.15362 0.64275 0.3355 0.0
C1237 C 0.17224 0.63981 0.34314 0.0
C1238 C 0.09042 0.63455 0.3224 0.0
C1239 C 0.07958 0.64951 0.32874 0.0
C1240 C 0.1102 0.63535 0.32796 0.0
C1241 C 0.11979 0.65118 0.33998 0.0
C1242 C 0.1091 0.66655 0.34576 0.0
C1243 C 0.08919 0.66576 0.34012 0.0
H1244 H 0.32374 0.38011 0.73866 0.0
H1245 H 0.34144 0.33737 0.77589 0.0
H1246 H 0.3545 0.38066 0.72495 0.0
H1247 H 0.37231 0.33751 0.76179 0.0
H1248 H 0.4333 0.36649 0.75254 0.0
H1249 H 0.40134 0.35816 0.76289 0.0
H1250 H 0.37531 0.36497 0.70557 0.0
H1251 H 0.40727 0.37414 0.69567 0.0
C1252 C 0.33403 0.37042 0.74356 0.0
C1253 C 0.33014 0.35873 0.7584 0.0
C1254 C 0.35174 0.37068 0.73564 0.0
C1255 C 0.36602 0.35914 0.74224 0.0
C1256 C 0.36181 0.34684 0.75657 0.0
C1257 C 0.3441 0.34669 0.76461 0.0
C1258 C 0.42073 0.36577 0.7421 0.0
C1259 C 0.42266 0.3711 0.72339 0.0
C1260 C 0.40238 0.36096 0.74798 0.0
C1261 C 0.38562 0.36117 0.73517 0.0
C1262 C 0.3878 0.36515 0.716 0.0
C1263 C 0.4061 0.37024 0.71025 0.0
H1264 H 0.583 0.95677 0.6398 0.0
H1265 H 0.56776 0.99716 0.59892 0.0
H1266 H 0.55263 0.96038 0.65424 0.0
H1267 H 0.53803 1.00126 0.61348 0.0
H1268 H 0.48288 0.00436 0.63564 0.0
H1269 H 0.50717 0.98867 0.61914 0.0
H1270 H 0.53934 0.98392 0.67411 0.0
H1271 H 0.51404 0.99794 0.69078 0.0
C1272 C 0.57309 0.96631 0.63385 0.0
C1273 C 0.57771 0.97665 0.61822 0.0
C1274 C 0.55573 0.96841 0.64211 0.0
C1275 C 0.54277 0.98108 0.63504 0.0
C1276 C 0.54729 0.99098 0.61906 0.0
C1277 C 0.56446 0.98872 0.61072 0.0
C1278 C 0.49466 0.99927 0.64435 0.0
C1279 C 0.49665 0.00291 0.66463 0.0
C1280 C 0.50884 0.99054 0.63479 0.0
C1281 C 0.5256 0.98564 0.64522 0.0
C1282 C 0.52673 0.98759 0.66554 0.0
C1283 C 0.51231 0.99595 0.67513 0.0
H1284 H 0.90185 0.01443 0.28934 0.0
H1285 H 0.91181 0.02569 0.23092 0.0
H1286 H 0.93664 0.01934 0.29868 0.0
H1287 H 0.94644 0.03087 0.24036 0.0
H1288 H 0.00829 0.04874 0.26543 0.0
H1289 H 0.97332 0.0511 0.26073 0.0
H1290 H 0.96324 0.9999 0.29035 0.0
H1291 H 0.99797 0.99771 0.29514 0.0
C1292 C 0.91141 0.01811 0.27852 0.0
C1293 C 0.90399 0.01948 0.25932 0.0
C1294 C 0.93134 0.02098 0.2839 0.0
C1295 C 0.9443 0.02538 0.27023 0.0
C1296 C 0.93683 0.02774 0.2513 0.0
C1297 C 0.91693 0.02477 0.24589 0.0
C1298 C 0.99855 0.03826 0.27124 0.0
C1299 C 0.00577 0.02296 0.2805 0.0
C1300 C 0.97858 0.03952 0.26844 0.0
C1301 C 0.96551 0.02565 0.2751 0.0
C1302 C 0.97288 0.01093 0.2852 0.0
C1303 C 0.99276 0.00956 0.28781 0.0
H1304 H 0.34185 0.18977 0.6716 0.0
H1305 H 0.392 0.16282 0.6547 0.0
H1306 H 0.32745 0.15861 0.67951 0.0
H1307 H 0.37776 0.13191 0.66281 0.0
H1308 H 0.35282 0.079 0.68628 0.0
H1309 H 0.36708 0.11258 0.6883 0.0
H1310 H 0.31406 0.1287 0.66004 0.0
H1311 H 0.29987 0.0953 0.65835 0.0
C1312 C 0.34987 0.17727 0.66968 0.0
C1313 C 0.36806 0.17886 0.66238 0.0
C1314 C 0.34164 0.15942 0.67429 0.0
C1315 C 0.35144 0.14275 0.6718 0.0
C1316 C 0.36994 0.1445 0.66524 0.0
C1317 C 0.37812 0.16229 0.66057 0.0
C1318 C 0.34407 0.0899 0.68112 0.0
C1319 C 0.3253 0.08462 0.67212 0.0
C1320 C 0.35227 0.10906 0.68206 0.0
C1321 C 0.34179 0.12329 0.67411 0.0
C1322 C 0.3225 0.11819 0.66643 0.0
C1323 C 0.31437 0.09905 0.66539 0.0
H1324 H 0.23339 0.90554 0.02416 0.0
H1325 H 0.28715 0.90056 0.99861 0.0
H1326 H 0.2401 0.94057 0.02809 0.0
H1327 H 0.29352 0.93569 0.0019 0.0
H1328 H 0.30502 0.99996 0.01938 0.0
H1329 H 0.30047 0.96555 0.02403 0.0
H1330 H 0.23976 0.9645 0.00472 0.0
H1331 H 0.24425 0.99881 1.00053 0.0
C1332 C 0.24683 0.91188 0.01971 0.0
C1333 C 0.25967 0.90022 0.01093 0.0
C1334 C 0.25056 0.93199 0.02177 0.0
C1335 C 0.26723 0.94094 0.01512 0.0
C1336 C 0.28059 0.92926 0.00729 0.0
C1337 C 0.27684 0.90913 0.0052 0.0
C1338 C 0.29065 0.99242 0.01655 0.0
C1339 C 0.275 0.00201 0.00948 0.0
C1340 C 0.28808 0.97271 0.01904 0.0
C1341 C 0.26978 0.96226 0.01466 0.0
C1342 C 0.254 0.97212 0.00842 0.0
C1343 C 0.25659 0.99175 0.00584 0.0
H1344 H 0.7835 0.34773 0.33858 0.0
H1345 H 0.73251 0.32335 0.36209 0.0
H1346 H 0.77063 0.37914 0.33988 0.0
H1347 H 0.71948 0.35463 0.36277 0.0
H1348 H 0.75472 0.43251 0.37995 0.0
H1349 H 0.7657 0.40129 0.36967 0.0
H1350 H 0.7083 0.3816 0.34285 0.0
H1351 H 0.69739 0.41314 0.35301 0.0
C1352 C 0.76945 0.34896 0.34379 0.0
C1353 C 0.75923 0.33301 0.35055 0.0
C1354 C 0.76206 0.36695 0.34444 0.0
C1355 C 0.74414 0.36937 0.3516 0.0
C1356 C 0.73326 0.35317 0.35704 0.0
C1357 C 0.74075 0.3352 0.3566 0.0
C1358 C 0.74459 0.42162 0.37151 0.0
C1359 C 0.72526 0.42515 0.36723 0.0
C1360 C 0.75086 0.4038 0.36555 0.0
C1361 C 0.73785 0.38901 0.35546 0.0
C1362 C 0.71861 0.39274 0.35065 0.0
C1363 C 0.71241 0.41076 0.35633 0.0
H1364 H 0.64785 0.59953 0.98613 0.0
H1365 H 0.59626 0.56815 0.95568 0.0
H1366 H 0.66259 0.56951 0.98824 0.0
H1367 H 0.61111 0.5379 0.95782 0.0
H1368 H 0.63235 0.49177 0.99777 0.0
H1369 H 0.61858 0.51939 0.98503 0.0
H1370 H 0.6752 0.54186 0.97198 0.0
H1371 H 0.68903 0.51419 0.98495 0.0
C1372 C 0.63985 0.58628 0.97937 0.0
C1373 C 0.62081 0.58622 0.97088 0.0
C1374 C 0.64833 0.56902 0.98057 0.0
C1375 C 0.63797 0.55129 0.9733 0.0
C1376 C 0.61934 0.55131 0.96381 0.0
C1377 C 0.61084 0.56862 0.96261 0.0
C1378 C 0.64178 0.50232 0.99169 0.0
C1379 C 0.66179 0.50094 0.99253 0.0
C1380 C 0.63388 0.51816 0.98435 0.0
C1381 C 0.64583 0.53292 0.97765 0.0
C1382 C 0.66567 0.53089 0.97735 0.0
C1383 C 0.67358 0.51507 0.98475 0.0
H1384 H 0.68619 0.38428 0.17945 0.0
H1385 H 0.64028 0.33842 0.17892 0.0
H1386 H 0.69496 0.36987 0.14859 0.0
H1387 H 0.64871 0.32425 0.14813 0.0
H1388 H 0.67015 0.29567 0.09684 0.0
H1389 H 0.67106 0.3079 0.13088 0.0
H1390 H 0.68211 0.36624 0.11546 0.0
H1391 H 0.68198 0.35372 0.0816 0.0
C1392 C 0.67803 0.37108 0.17278 0.0
C1393 C 0.66252 0.36251 0.18164 0.0
C1394 C 0.68304 0.36282 0.15509 0.0
C1395 C 0.67258 0.34586 0.14578 0.0
C1396 C 0.65741 0.33706 0.15498 0.0
C1397 C 0.65251 0.34523 0.17268 0.0
C1398 C 0.67347 0.31103 0.10094 0.0
C1399 C 0.6761 0.32379 0.08676 0.0
C1400 C 0.67373 0.3181 0.12036 0.0
C1401 C 0.67625 0.33812 0.12594 0.0
C1402 C 0.68026 0.35075 0.1118 0.0
C1403 C 0.68022 0.34362 0.09239 0.0
H1404 H 0.99558 0.22908 0.91483 0.0
H1405 H 0.03028 0.28172 0.9072 0.0
H1406 H 0.99809 0.23791 0.94939 0.0
H1407 H 0.0333 0.2905 0.94224 0.0
H1408 H 0.01177 0.30833 0.00255 0.0
H1409 H 0.01481 0.30075 0.96805 0.0
H1410 H 0.01954 0.24092 0.97768 0.0
H1411 H 0.01552 0.24849 0.01181 0.0
C1412 C 0.00408 0.24241 0.92063 0.0
C1413 C 0.01289 0.25461 0.90832 0.0
C1414 C 0.00561 0.24747 0.94051 0.0
C1415 C 0.01615 0.26481 0.94873 0.0
C1416 C 0.02499 0.27709 0.93641 0.0
C1417 C 0.0233 0.27206 0.91637 0.0
C1418 C 0.01383 0.29367 0.99722 0.0
C1419 C 0.0133 0.27893 0.00965 0.0
C1420 C 0.01562 0.2893 0.97751 0.0
C1421 C 0.01709 0.27014 0.96998 0.0
C1422 C 0.01789 0.25572 0.98284 0.0
C1423 C 0.01579 0.26004 0.00241 0.0
H1424 H 0.36365 0.7917 0.35128 0.0
H1425 H 0.35758 0.73598 0.31784 0.0
H1426 H 0.36254 0.77598 0.38081 0.0
H1427 H 0.35507 0.72016 0.34739 0.0
H1428 H 0.38522 0.7016 0.40361 0.0
H1429 H 0.37709 0.71426 0.373 0.0
H1430 H 0.3464 0.75766 0.40205 0.0
H1431 H 0.35575 0.74572 0.43297 0.0
C1432 C 0.36176 0.77606 0.35019 0.0
C1433 C 0.36118 0.76513 0.33217 0.0
C1434 C 0.36079 0.76699 0.36719 0.0
C1435 C 0.35896 0.74671 0.36664 0.0
C1436 C 0.35693 0.73579 0.34846 0.0
C1437 C 0.3581 0.74489 0.33144 0.0
C1438 C 0.3767 0.71383 0.40349 0.0
C1439 C 0.37156 0.72291 0.42085 0.0
C1440 C 0.37175 0.72095 0.38582 0.0
C1441 C 0.36127 0.73722 0.38496 0.0
C1442 C 0.35486 0.74539 0.40217 0.0
C1443 C 0.36001 0.73838 0.41991 0.0
H1444 H 0.96656 0.64854 0.59457 0.0
H1445 H 0.00586 0.60776 0.57602 0.0
H1446 H 0.96786 0.66299 0.56398 0.0
H1447 H 0.00737 0.62223 0.54575 0.0
H1448 H 1.00052 0.64398 0.48809 0.0
H1449 H 0.99065 0.62751 0.51553 0.0
H1450 H 0.99101 0.68269 0.54906 0.0
H1451 H 0.99987 0.69912 0.52135 0.0
C1452 C 0.97543 0.64264 0.58394 0.0
C1453 C 0.98612 0.62703 0.58773 0.0
C1454 C 0.97617 0.6509 0.56642 0.0
C1455 C 0.98771 0.64379 0.55236 0.0
C1456 C 0.99801 0.62786 0.55602 0.0
C1457 C 0.99719 0.61957 0.57345 0.0
C1458 C 0.99794 0.6526 0.50113 0.0
C1459 C 1.00123 0.67286 0.50261 0.0
C1460 C 0.99253 0.64316 0.51696 0.0
C1461 C 0.99035 0.65375 0.53464 0.0
C1462 C 0.99246 0.67404 0.53569 0.0
C1463 C 0.99778 0.68348 0.51985 0.0
H1464 H 0.8174 0.37187 0.67881 0.0
H1465 H 0.83333 0.35138 0.62268 0.0
H1466 H 0.84887 0.36547 0.69356 0.0
H1467 H 0.86514 0.34599 0.63726 0.0
H1468 H 0.91905 0.32921 0.66902 0.0
H1469 H 0.88468 0.32816 0.65787 0.0
H1470 H 0.88082 0.38077 0.6944 0.0
H1471 H 0.91471 0.38126 0.70609 0.0
C1472 C 0.82749 0.36576 0.66962 0.0
C1473 C 0.82287 0.36238 0.6495 0.0
C1474 C 0.84566 0.36231 0.67807 0.0
C1475 C 0.85971 0.35547 0.6666 0.0
C1476 C 0.85471 0.35115 0.6466 0.0
C1477 C 0.83652 0.35451 0.63818 0.0
C1478 C 0.91072 0.34029 0.67495 0.0
C1479 C 0.91967 0.35545 0.68825 0.0
C1480 C 0.89107 0.33982 0.66842 0.0
C1481 C 0.87995 0.35447 0.67509 0.0
C1482 C 0.88879 0.36912 0.68905 0.0
C1483 C 0.90834 0.36956 0.69557 0.0
H1484 H 0.67652 0.6313 0.267 0.0
H1485 H 0.65895 0.67188 0.2272 0.0
H1486 H 0.64591 0.63202 0.28086 0.0
H1487 H 0.62819 0.67293 0.24137 0.0
H1488 H 0.56719 0.64434 0.25217 0.0
H1489 H 0.59906 0.6523 0.24139 0.0
H1490 H 0.62535 0.64925 0.29943 0.0
H1491 H 0.59352 0.64048 0.30982 0.0
C1492 C 0.66631 0.64082 0.26156 0.0
C1493 C 0.6702 0.6515 0.24596 0.0
C1494 C 0.64869 0.64127 0.26955 0.0
C1495 C 0.63445 0.65254 0.26226 0.0
C1496 C 0.63866 0.66386 0.24716 0.0
C1497 C 0.65631 0.6633 0.23907 0.0
C1498 C 0.57979 0.64588 0.26266 0.0
C1499 C 0.57799 0.64167 0.28176 0.0
C1500 C 0.59808 0.65046 0.25653 0.0
C1501 C 0.6149 0.6511 0.26945 0.0
C1502 C 0.61281 0.64838 0.28894 0.0
C1503 C 0.59459 0.64354 0.29497 0.0
H1504 H 0.40655 0.04016 0.368 0.0
H1505 H 0.42147 0.99333 0.40119 0.0
H1506 H 0.43704 0.0394 0.35333 0.0
H1507 H 0.45175 0.99245 0.38649 0.0
H1508 H 0.51103 0.00272 0.36752 0.0
H1509 H 0.48299 0.00963 0.3846 0.0
H1510 H 0.45137 0.01846 0.33047 0.0
H1511 H 0.47963 0.01238 0.31359 0.0
C1512 C 0.41632 0.02968 0.37212 0.0
C1513 C 0.41158 0.0168 0.38575 0.0
C1514 C 0.43379 0.02926 0.36375 0.0
C1515 C 0.44689 0.0159 0.36876 0.0
C1516 C 0.44222 0.0032 0.38258 0.0
C1517 C 0.4248 0.00366 0.39097 0.0
C1518 C 0.49826 0.00663 0.35936 0.0
C1519 C 0.4975 0.00683 0.33918 0.0
C1520 C 0.4821 0.01034 0.3691 0.0
C1521 C 0.46482 0.01434 0.35888 0.0
C1522 C 0.46443 0.01553 0.33884 0.0
C1523 C 0.48058 0.01185 0.32912 0.0
H1524 H 0.08385 0.95777 0.75729 0.0
H1525 H 0.08753 0.99509 0.71125 0.0
H1526 H 0.04879 0.95284 0.75002 0.0
H1527 H 0.05256 0.98971 0.70374 0.0
H1528 H 0.98876 0.97007 0.68971 0.0
H1529 H 0.02326 0.96506 0.69312 0.0
H1530 H 0.02466 0.97754 0.75504 0.0
H1531 H 0.9904 0.98269 0.75154 0.0
C1532 C 0.07723 0.9647 0.74545 0.0
C1533 C 0.08849 0.97711 0.73508 0.0
C1534 C 0.05718 0.96179 0.74125 0.0
C1535 C 0.04796 0.97102 0.72644 0.0
C1536 C 0.0593 0.98227 0.71513 0.0
C1537 C 0.07936 0.98534 0.71944 0.0
C1538 C 0.99641 0.97121 0.70404 0.0
C1539 C 0.98707 0.97673 0.72038 0.0
C1540 C 0.01611 0.96849 0.70598 0.0
C1541 C 0.02662 0.97094 0.72433 0.0
C1542 C 0.0169 0.97534 0.74074 0.0
C1543 C 0.99734 0.97835 0.73876 0.0
H1544 H 0.67533 0.82496 0.372 0.0
H1545 H 0.62087 0.82852 0.33843 0.0
H1546 H 0.68688 0.85698 0.36389 0.0
H1547 H 0.63237 0.86065 0.33059 0.0
H1548 H 0.64962 0.92625 0.35061 0.0
H1549 H 0.63895 0.89202 0.35065 0.0
H1550 H 0.6956 0.87746 0.33762 0.0
H1551 H 0.70628 0.91192 0.33768 0.0
C1552 C 0.66596 0.83236 0.36255 0.0
C1553 C 0.64706 0.82421 0.35608 0.0
C1554 C 0.6726 0.85074 0.3579 0.0
C1555 C 0.66048 0.86144 0.34674 0.0
C1556 C 0.64194 0.85291 0.33948 0.0
C1557 C 0.63535 0.83452 0.34404 0.0
C1558 C 0.65966 0.91569 0.34739 0.0
C1559 C 0.67877 0.9217 0.34419 0.0
C1560 C 0.65355 0.89608 0.34732 0.0
C1561 C 0.66646 0.882 0.34423 0.0
C1562 C 0.68537 0.88798 0.34021 0.0
C1563 C 0.69143 0.90765 0.34005 0.0
H1564 H 0.71358 0.08858 0.99661 0.0
H1565 H 0.75649 0.08636 0.95563 0.0
H1566 H 0.70498 0.05393 0.98942 0.0
H1567 H 0.74806 0.05158 0.94871 0.0
H1568 H 0.75088 0.99134 0.97449 0.0
H1569 H 0.75437 0.02581 0.97058 0.0
H1570 H 0.69221 0.02599 0.96471 0.0
H1571 H 0.6888 0.99129 0.9686 0.0
C1572 C 0.7208 0.08082 0.98567 0.0
C1573 C 0.73594 0.0902 0.97693 0.0
C1574 C 0.71586 0.06094 0.98154 0.0
C1575 C 0.726 0.05003 0.96865 0.0
C1576 C 0.7402 0.0596 0.95892 0.0
C1577 C 0.74507 0.07949 0.96295 0.0
C1578 C 0.73799 0.99868 0.97183 0.0
C1579 C 0.71959 0.98878 0.97185 0.0
C1580 C 0.73996 0.01837 0.96951 0.0
C1581 C 0.72355 0.02861 0.96742 0.0
C1582 C 0.70509 0.01846 0.9664 0.0
C1583 C 0.70312 0.99864 0.96846 0.0
H1584 H 0.2068 0.64608 0.64302 0.0
H1585 H 0.26692 0.6687 0.65329 0.0
H1586 H 0.2162 0.61334 0.64252 0.0
H1587 H 0.27636 0.6359 0.65169 0.0
H1588 H 0.2892 0.57444 0.65493 0.0
H1589 H 0.27703 0.60519 0.66502 0.0
H1590 H 0.23057 0.5938 0.61898 0.0
H1591 H 0.24228 0.56294 0.60949 0.0
C1592 C 0.22202 0.64412 0.64554 0.0
C1593 C 0.23611 0.66009 0.64797 0.0
C1594 C 0.22742 0.62529 0.645 0.0
C1595 C 0.24705 0.62193 0.64674 0.0
C1596 C 0.2611 0.6379 0.65037 0.0
C1597 C 0.25569 0.65674 0.65103 0.0
C1598 C 0.27611 0.57833 0.64731 0.0
C1599 C 0.2668 0.56638 0.63129 0.0
C1600 C 0.26925 0.59603 0.65296 0.0
C1601 C 0.25291 0.60208 0.64273 0.0
C1602 C 0.24307 0.58959 0.62735 0.0
C1603 C 0.24991 0.57196 0.62174 0.0
H1604 H 0.39919 0.42156 0.03709 0.0
H1605 H 0.36971 0.39904 0.98149 0.0
H1606 H 0.3854 0.45233 0.0341 0.0
H1607 H 0.35562 0.42946 0.97875 0.0
H1608 H 0.34963 0.49146 0.96941 0.0
H1609 H 0.36674 0.46304 0.97412 0.0
H1610 H 0.35327 0.46563 0.0335 0.0
H1611 H 0.33608 0.49418 0.02876 0.0
C1612 C 0.38976 0.42318 0.02425 0.0
C1613 C 0.38551 0.40787 0.00953 0.0
C1614 C 0.38178 0.44073 0.02262 0.0
C1615 C 0.36954 0.44336 0.00613 0.0
C1616 C 0.36523 0.42799 0.9915 0.0
C1617 C 0.3731 0.41047 0.99318 0.0
C1618 C 0.35043 0.48604 0.98351 0.0
C1619 C 0.34131 0.49489 0.99865 0.0
C1620 C 0.36018 0.46974 0.98619 0.0
C1621 C 0.36106 0.46191 0.00408 0.0
C1622 C 0.35287 0.47137 0.01956 0.0
C1623 C 0.34307 0.48773 0.01687 0.0
H1624 H 0.36938 0.68224 0.82365 0.0
H1625 H 0.35083 0.62319 0.83232 0.0
H1626 H 0.3624 0.69264 0.85644 0.0
H1627 H 0.34321 0.63368 0.86478 0.0
H1628 H 0.36249 0.65641 0.92875 0.0
H1629 H 0.36305 0.64538 0.89471 0.0
H1630 H 0.33697 0.69626 0.87868 0.0
H1631 H 0.33674 0.70746 0.91299 0.0
C1632 C 0.36362 0.6715 0.83246 0.0
C1633 C 0.36082 0.65185 0.82536 0.0
C1634 C 0.35939 0.6775 0.85118 0.0
C1635 C 0.35233 0.66398 0.86328 0.0
C1636 C 0.34884 0.64444 0.85592 0.0
C1637 C 0.35302 0.63846 0.83721 0.0
C1638 C 0.35668 0.66513 0.91795 0.0
C1639 C 0.34968 0.68284 0.92351 0.0
C1640 C 0.35686 0.65875 0.89842 0.0
C1641 C 0.35012 0.66997 0.88394 0.0
C1642 C 0.34244 0.68738 0.88949 0.0
C1643 C 0.34212 0.6937 0.9091 0.0
H1644 H 0.99493 0.72369 0.09832 0.0
H1645 H 0.95687 0.76892 0.09302 0.0
H1646 H 0.98838 0.71401 0.06375 0.0
H1647 H 0.9507 0.75944 0.05834 0.0
H1648 H 0.977 0.7571 0.99807 0.0
H1649 H 0.97336 0.76283 0.03254 0.0
H1650 H 0.96339 0.70131 0.03584 0.0
H1651 H 0.96697 0.69564 1.00114 0.0
C1652 C 0.98478 0.73126 0.08991 0.0
C1653 C 0.97666 0.74728 0.09845 0.0
C1654 C 0.98103 0.7257 0.07006 0.0
C1655 C 0.96917 0.73609 0.0583 0.0
C1656 C 0.96012 0.75134 0.067 0.0
C1657 C 0.96374 0.7568 0.08686 0.0
C1658 C 0.97353 0.74486 0.0061 0.0
C1659 C 0.97224 0.72596 0.99704 0.0
C1660 C 0.97138 0.74811 0.02579 0.0
C1661 C 0.96816 0.7325 0.03691 0.0
C1662 C 0.96596 0.71359 0.02764 0.0
C1663 C 0.96784 0.71035 0.00781 0.0
H1664 H 0.66928 0.2153 0.64621 0.0
H1665 H 0.65259 0.26907 0.67223 0.0
H1666 H 0.66723 0.22797 0.61465 0.0
H1667 H 0.65099 0.28179 0.6408 0.0
H1668 H 0.65723 0.30274 0.58185 0.0
H1669 H 0.66888 0.29106 0.6125 0.0
H1670 H 0.63776 0.2352 0.59425 0.0
H1671 H 0.62621 0.24687 0.56378 0.0
C1672 C 0.66544 0.2299 0.64527 0.0
C1673 C 0.6608 0.24104 0.66174 0.0
C1674 C 0.66433 0.23716 0.62721 0.0
C1675 C 0.65877 0.25579 0.62524 0.0
C1676 C 0.65549 0.26744 0.64189 0.0
C1677 C 0.65644 0.26013 0.65994 0.0
C1678 C 0.65328 0.28786 0.58428 0.0
C1679 C 0.64077 0.27571 0.57055 0.0
C1680 C 0.65982 0.28122 0.60183 0.0
C1681 C 0.6542 0.26224 0.60578 0.0
C1682 C 0.64252 0.24983 0.59156 0.0
C1683 C 0.63579 0.25653 0.57418 0.0
H1684 H 0.04697 0.3771 0.43031 0.0
H1685 H 0.98516 0.36354 0.41897 0.0
H1686 H 0.04595 0.36424 0.46193 0.0
H1687 H 0.98415 0.35071 0.45019 0.0
H1688 H 0.98309 0.343 0.51176 0.0
H1689 H 0.98946 0.36262 0.48535 0.0
H1690 H 0.03803 0.33074 0.4733 0.0
H1691 H 0.03166 0.31111 0.49985 0.0
C1692 C 0.03321 0.37145 0.43463 0.0
C1693 C 0.01617 0.37113 0.42218 0.0
C1694 C 0.03264 0.36409 0.45264 0.0
C1695 C 0.01496 0.35666 0.45856 0.0
C1696 C 0.99794 0.35663 0.44616 0.0
C1697 C 0.99855 0.36373 0.42817 0.0
C1698 C 0.99539 0.34051 0.50374 0.0
C1699 C 0.0067 0.32538 0.5076 0.0
C1700 C 0.99901 0.35168 0.48863 0.0
C1701 C 0.01399 0.34791 0.47706 0.0
C1702 C 0.0264 0.33395 0.48202 0.0
C1703 C 0.02277 0.32274 0.4972 0.0
H1704 H 0.27357 0.53915 0.47066 0.0
H1705 H 0.32645 0.57245 0.49561 0.0
H1706 H 0.27017 0.52532 0.50127 0.0
H1707 H 0.32301 0.55881 0.52615 0.0
H1708 H 0.31853 0.52569 0.57747 0.0
H1709 H 0.32312 0.53038 0.54373 0.0
H1710 H 0.26227 0.53721 0.53273 0.0
H1711 H 0.25772 0.53198 0.5661 0.0
C1712 C 0.28447 0.5435 0.48267 0.0
C1713 C 0.30021 0.557 0.48071 0.0
C1714 C 0.28256 0.53554 0.5002 0.0
C1715 C 0.29631 0.54094 0.51621 0.0
C1716 C 0.31234 0.55401 0.51405 0.0
C1717 C 0.31427 0.56192 0.49652 0.0
C1718 C 0.30608 0.52757 0.56762 0.0
C1719 C 0.28781 0.52865 0.5744 0.0
C1720 C 0.30872 0.5305 0.54838 0.0
C1721 C 0.29312 0.53448 0.53557 0.0
C1722 C 0.2746 0.53409 0.54209 0.0
C1723 C 0.27199 0.5312 0.56126 0.0
H1724 H 0.23163 0.43719 0.90575 0.0
H1725 H 0.24127 0.47694 0.86278 0.0
H1726 H 0.24624 0.46186 0.9311 0.0
H1727 H 0.2558 0.50174 0.88822 0.0
H1728 H 0.3087 0.52053 0.93666 0.0
H1729 H 0.28715 0.50367 0.9097 0.0
H1730 H 0.24256 0.49464 0.94806 0.0
H1731 H 0.26425 0.51168 0.97501 0.0
C1732 C 0.2367 0.45128 0.90177 0.0
C1733 C 0.23544 0.4551 0.88229 0.0
C1734 C 0.24485 0.46548 0.9163 0.0
C1735 C 0.2521 0.48376 0.91165 0.0
C1736 C 0.25034 0.48778 0.89221 0.0
C1737 C 0.24197 0.47362 0.87769 0.0
C1738 C 0.29399 0.51566 0.93907 0.0
C1739 C 0.28798 0.5175 0.95776 0.0
C1740 C 0.28167 0.50597 0.92369 0.0
C1741 C 0.26324 0.49766 0.92683 0.0
C1742 C 0.25675 0.50076 0.94528 0.0
C1743 C 0.26902 0.51069 0.96063 0.0
H1744 H 0.68128 0.97186 0.48799 0.0
H1745 H 0.71368 0.02754 0.48811 0.0
H1746 H 0.67595 0.96939 0.45289 0.0
H1747 H 0.708 0.02528 0.45276 0.0
H1748 H 0.6597 0.97218 0.39072 0.0
H1749 H 0.66 0.98286 0.42506 0.0
H1750 H 0.72015 0.00458 0.42671 0.0
H1751 H 0.71984 0.99394 0.39248 0.0
C1752 C 0.6871 0.98366 0.48047 0.0
C1753 C 0.69811 0.99977 0.49072 0.0
C1754 C 0.68383 0.98238 0.46038 0.0
C1755 C 0.69154 0.99716 0.45005 0.0
C1756 C 0.70198 0.01362 0.46034 0.0
C1757 C 0.70514 0.01496 0.48054 0.0
C1758 C 0.67288 0.97952 0.39838 0.0
C1759 C 0.68981 0.98197 0.38899 0.0
C1760 C 0.67306 0.98563 0.41801 0.0
C1761 C 0.69017 0.99431 0.42863 0.0
C1762 C 0.70669 0.99808 0.4189 0.0
C1763 C 0.70652 0.99196 0.39926 0.0
H1764 H 0.74662 0.91627 0.12107 0.0
H1765 H 0.77891 0.9719 0.12002 0.0
H1766 H 0.73852 0.91472 0.08601 0.0
H1767 H 0.77114 0.9701 0.08518 0.0
H1768 H 0.72411 0.9744 0.0354 0.0
H1769 H 0.73733 0.97209 0.06835 0.0
H1770 H 0.75268 0.91474 0.05215 0.0
H1771 H 0.73998 0.91724 0.01858 0.0
C1772 C 0.75232 0.92794 0.11332 0.0
C1773 C 0.76325 0.94429 0.12335 0.0
C1774 C 0.7478 0.92697 0.09327 0.0
C1775 C 0.75402 0.94241 0.08301 0.0
C1776 C 0.76601 0.9581 0.09283 0.0
C1777 C 0.77061 0.95903 0.11277 0.0
C1778 C 0.73064 0.96141 0.03865 0.0
C1779 C 0.7313 0.94616 0.0242 0.0
C1780 C 0.73815 0.96008 0.05758 0.0
C1781 C 0.7463 0.94337 0.06269 0.0
C1782 C 0.74653 0.92782 0.0485 0.0
C1783 C 0.73919 0.92924 0.02936 0.0
H1784 H 0.48017 0.31035 0.54089 0.0
H1785 H 0.49642 0.27049 0.58202 0.0
H1786 H 0.51098 0.30812 0.52709 0.0
H1787 H 0.527 0.26819 0.56822 0.0
H1788 H 0.57616 0.25733 0.53445 0.0
H1789 H 0.54204 0.25681 0.53988 0.0
H1790 H 0.54512 0.3186 0.53722 0.0
H1791 H 0.5792 0.31898 0.53148 0.0
C1792 C 0.49027 0.30108 0.54696 0.0
C1793 C 0.48582 0.29064 0.56262 0.0
C1794 C 0.50791 0.29978 0.53902 0.0
C1795 C 0.52146 0.28794 0.5465 0.0
C1796 C 0.51677 0.27715 0.56183 0.0
C1797 C 0.49919 0.27848 0.56978 0.0
C1798 C 0.56937 0.27071 0.53455 0.0
C1799 C 0.58033 0.28822 0.53272 0.0
C1800 C 0.54989 0.27045 0.5378 0.0
C1801 C 0.54095 0.28771 0.53939 0.0
C1802 C 0.55153 0.30502 0.53601 0.0
C1803 C 0.57105 0.30526 0.53267 0.0
H1804 H 0.12079 0.74012 0.9208 0.0
H1805 H 0.12218 0.77526 0.97524 0.0
H1806 H 0.08563 0.73353 0.92031 0.0
H1807 H 0.08724 0.76891 0.97453 0.0
H1808 H 0.03546 0.7251 0.98158 0.0
H1809 H 0.06885 0.73613 0.97823 0.0
H1810 H 0.05277 0.74973 0.92018 0.0
H1811 H 0.01883 0.73928 0.9237 0.0
C1812 C 0.11356 0.74673 0.93244 0.0
C1813 C 0.12427 0.75809 0.94813 0.0
C1814 C 0.09346 0.74306 0.93207 0.0
C1815 C 0.08383 0.75054 0.94749 0.0
C1816 C 0.09438 0.76282 0.96256 0.0
C1817 C 0.11437 0.7666 0.96285 0.0
C1818 C 0.03886 0.73078 0.96819 0.0
C1819 C 0.02434 0.73163 0.95304 0.0
C1820 C 0.05804 0.73703 0.96627 0.0
C1821 C 0.0633 0.74405 0.94906 0.0
C1822 C 0.04902 0.74442 0.93362 0.0
C1823 C 0.02965 0.73837 0.93563 0.0
H1824 H 0.87433 0.21275 0.46798 0.0
H1825 H 0.8804 0.26741 0.44343 0.0
H1826 H 0.89987 0.2249 0.4936 0.0
H1827 H 0.90555 0.27953 0.46905 0.0
H1828 H 0.93992 0.30324 0.52324 0.0
H1829 H 0.91037 0.28882 0.50403 0.0
H1830 H 0.93532 0.23449 0.49673 0.0
H1831 H 0.96482 0.24896 0.5162 0.0
C1832 C 0.8811 0.22733 0.46801 0.0
C1833 C 0.87523 0.23912 0.45364 0.0
C1834 C 0.89567 0.23429 0.48274 0.0
C1835 C 0.90458 0.25325 0.48351 0.0
C1836 C 0.89866 0.26502 0.46918 0.0
C1837 C 0.88422 0.25805 0.45444 0.0
C1838 C 0.93881 0.28805 0.51804 0.0
C1839 C 0.95465 0.27723 0.52109 0.0
C1840 C 0.922 0.27984 0.50688 0.0
C1841 C 0.92069 0.26064 0.49848 0.0
C1842 C 0.93587 0.24931 0.50301 0.0
C1843 C 0.95273 0.25755 0.51424 0.0
H1844 H 0.49087 0.73943 1.00112 0.0
H1845 H 0.49026 0.68332 0.02285 0.0
H1846 H 0.45579 0.73577 0.99631 0.0
H1847 H 0.45496 0.67958 0.01781 0.0
H1848 H 0.39847 0.6708 0.97474 0.0
H1849 H 0.43218 0.67465 0.98829 0.0
H1850 H 0.42547 0.73287 0.01156 0.0
H1851 H 0.39193 0.72924 0.99744 0.0
C1852 C 0.48324 0.72652 0.00536 0.0
C1853 C 0.49339 0.71161 0.01225 0.0
C1854 C 0.46309 0.72441 0.00258 0.0
C1855 C 0.45261 0.70733 0.00658 0.0
C1856 C 0.46268 0.69279 0.01435 0.0
C1857 C 0.48287 0.69493 0.0172 0.0
C1858 C 0.40417 0.68436 0.98288 0.0
C1859 C 0.39264 0.69979 0.98482 0.0
C1860 C 0.42341 0.68649 0.99084 0.0
C1861 C 0.43151 0.70411 1.00089 0.0
C1862 C 0.41968 0.71919 0.0037 0.0
C1863 C 0.40043 0.71705 0.99576 0.0
H1864 H 0.54015 0.47801 0.29879 0.0
H1865 H 0.59893 0.50445 0.30277 0.0
H1866 H 0.52839 0.51013 0.30127 0.0
H1867 H 0.58725 0.5363 0.30485 0.0
H1868 H 0.56496 0.59073 0.32573 0.0
H1869 H 0.57172 0.55726 0.32792 0.0
H1870 H 0.52682 0.5386 0.28164 0.0
H1871 H 0.51996 0.57222 0.27961 0.0
C1872 C 0.55054 0.49066 0.30021 0.0
C1873 C 0.57047 0.4887 0.30053 0.0
C1874 C 0.5438 0.50901 0.30153 0.0
C1875 C 0.55689 0.52574 0.30346 0.0
C1876 C 0.57679 0.52371 0.30372 0.0
C1877 C 0.58349 0.50545 0.30225 0.0
C1878 C 0.5562 0.5794 0.31639 0.0
C1879 C 0.54206 0.58403 0.30239 0.0
C1880 C 0.56017 0.56028 0.31752 0.0
C1881 C 0.55011 0.54536 0.30465 0.0
C1882 C 0.53482 0.54979 0.29175 0.0
C1883 C 0.53082 0.569 0.29064 0.0
H1884 H 0.97606 0.12586 0.77253 0.0
H1885 H 0.92025 0.12996 0.74175 0.0
H1886 H 0.97265 0.09108 0.76383 0.0
H1887 H 0.91695 0.09489 0.73292 0.0
H1888 H 0.91728 0.02651 0.73803 0.0
H1889 H 0.91622 0.06081 0.74897 0.0
H1890 H 0.97211 0.07405 0.72872 0.0
H1891 H 0.97295 0.0403 0.7172 0.0
C1892 C 0.96284 0.11928 0.76431 0.0
C1893 C 0.94844 0.13066 0.75777 0.0
C1894 C 0.96099 0.0994 0.7592 0.0
C1895 C 0.94463 0.09042 0.74757 0.0
C1896 C 0.92967 0.10153 0.74193 0.0
C1897 C 0.93162 0.12154 0.74688 0.0
C1898 C 0.92919 0.0368 0.73568 0.0
C1899 C 0.94538 0.03059 0.72708 0.0
C1900 C 0.9286 0.05637 0.742 0.0
C1901 C 0.94426 0.06991 0.74 0.0
C1902 C 0.96006 0.06379 0.73083 0.0
C1903 C 0.96055 0.04443 0.72432 0.0
H1904 H 0.43489 0.90596 0.24304 0.0
H1905 H 0.48139 0.87127 0.23075 0.0
H1906 H 0.4583 0.93274 0.25646 0.0
H1907 H 0.50505 0.89837 0.24403 0.0
H1908 H 0.53273 0.942 0.29861 0.0
H1909 H 0.515 0.91539 0.27711 0.0
H1910 H 0.48339 0.95634 0.24751 0.0
H1911 H 0.50089 0.98277 0.26921 0.0
C1912 C 0.45016 0.90413 0.2431 0.0
C1913 C 0.45631 0.88649 0.23597 0.0
C1914 C 0.4636 0.91956 0.25057 0.0
C1915 C 0.48356 0.91774 0.25119 0.0
C1916 C 0.48977 0.90019 0.24375 0.0
C1917 C 0.47625 0.88475 0.23607 0.0
C1918 C 0.52254 0.9453 0.287 0.0
C1919 C 0.51802 0.96435 0.2856 0.0
C1920 C 0.51233 0.93008 0.27473 0.0
C1921 C 0.4975 0.93376 0.2609 0.0
C1922 C 0.49444 0.95303 0.2583 0.0
C1923 C 0.50456 0.96816 0.27058 0.0
H1924 H 0.02002 0.49522 0.68502 0.0
H1925 H 1.00141 0.49546 0.74253 0.0
H1926 H 0.01412 0.46001 0.68083 0.0
H1927 H 0.9959 0.4604 0.73842 0.0
H1928 H 0.99668 0.39588 0.72962 0.0
H1929 H 0.01094 0.42949 0.73357 0.0
H1930 H 0.98351 0.43819 0.67743 0.0
H1931 H 0.96956 0.40461 0.6734 0.0
C1932 C 0.01486 0.48778 0.69683 0.0
C1933 C 0.01101 0.4982 0.71404 0.0
C1934 C 0.01154 0.46763 0.69444 0.0
C1935 C 0.00446 0.45747 0.70925 0.0
C1936 C 1.0016 0.4678 0.72683 0.0
C1937 C 0.00479 0.48793 0.72918 0.0
C1938 C 0.99406 0.4049 0.71798 0.0
C1939 C 0.98189 0.39773 0.70128 0.0
C1940 C 0.0021 0.42413 0.7203 0.0
C1941 C 0.99825 0.43648 0.70586 0.0
C1942 C 0.98688 0.429 0.68874 0.0
C1943 C 0.97873 0.40984 0.68651 0.0
H1944 H 0.72725 0.42216 0.5145 0.0
H1945 H 0.6905 0.4674 0.52709 0.0
H1946 H 0.73048 0.43288 0.48267 0.0
H1947 H 0.69373 0.47819 0.49504 0.0
H1948 H 0.6835 0.46992 0.42693 0.0
H1949 H 0.68301 0.46645 0.46144 0.0
H1950 H 0.74396 0.45868 0.46557 0.0
H1951 H 0.74427 0.4618 0.43104 0.0
C1952 C 0.72014 0.43464 0.51062 0.0
C1953 C 0.70861 0.4439 0.52339 0.0
C1954 C 0.72202 0.44083 0.49233 0.0
C1955 C 0.71242 0.45647 0.48629 0.0
C1956 C 0.70115 0.46598 0.49916 0.0
C1957 C 0.69928 0.45977 0.51751 0.0
C1958 C 0.69688 0.46802 0.43536 0.0
C1959 C 0.71387 0.46592 0.42631 0.0
C1960 C 0.69662 0.466 0.45514 0.0
C1961 C 0.71338 0.46191 0.46621 0.0
C1962 C 0.7307 0.46133 0.45738 0.0
C1963 C 0.73092 0.46325 0.43764 0.0
H1964 H 0.75309 0.56956 0.10119 0.0
H1965 H 0.76019 0.52423 0.13874 0.0
H1966 H 0.7389 0.54567 0.07504 0.0
H1967 H 0.74616 0.50015 0.11236 0.0
H1968 H 0.69337 0.47247 0.06708 0.0
H1969 H 0.71345 0.49141 0.09396 0.0
H1970 H 0.74768 0.51851 0.05336 0.0
H1971 H 0.7276 0.49963 0.02658 0.0
C1972 C 0.75167 0.55447 0.10383 0.0
C1973 C 0.75769 0.5488 0.12204 0.0
C1974 C 0.74375 0.54074 0.08878 0.0
C1975 C 0.74152 0.52098 0.09158 0.0
C1976 C 0.74766 0.51526 0.10977 0.0
C1977 C 0.75579 0.52902 0.12481 0.0
C1978 C 0.70562 0.48196 0.06396 0.0
C1979 C 0.70882 0.48473 0.04475 0.0
C1980 C 0.71707 0.49288 0.07935 0.0
C1981 C 0.73189 0.50676 0.07575 0.0
C1982 C 0.73609 0.50825 0.05657 0.0
C1983 C 0.7247 0.49735 0.04126 0.0
H1984 H 0.26022 0.0234 0.52238 0.0
H1985 H 0.31545 1.00001 0.52067 0.0
H1986 H 0.26543 0.0283 0.55757 0.0
H1987 H 0.32079 0.00537 0.55585 0.0
H1988 H 0.33303 0.04455 0.61388 0.0
H1989 H 0.32666 0.03536 0.57911 0.0
H1990 H 0.26942 0.01044 0.58746 0.0
H1991 H 0.27586 0.01978 0.62237 0.0
C1992 C 0.27332 0.01899 0.52949 0.0
C1993 C 0.28748 0.01144 0.51865 0.0
C1994 C 0.27631 0.02185 0.54966 0.0
C1995 C 0.29357 0.01736 0.55942 0.0
C1996 C 0.30747 0.00924 0.54867 0.0
C1997 C 0.30442 0.00624 0.52852 0.0
C1998 C 0.31911 0.0371 0.60823 0.0
C1999 C 0.30488 0.03294 0.62067 0.0
C2000 C 0.31552 0.03169 0.58841 0.0
C2001 C 0.29756 0.02215 0.58061 0.0
C2002 C 0.28335 0.01787 0.59309 0.0
C2003 C 0.28703 0.02312 0.613 0.0
H2004 H 0.25364 0.07636 0.86167 0.0
H2005 H 0.22496 0.01929 0.86404 0.0
H2006 H 0.26107 0.07951 0.89678 0.0
H2007 H 0.23247 0.02232 0.89892 0.0
H2008 H 0.23716 0.03607 0.96275 0.0
H2009 H 0.22596 0.03864 0.92902 0.0
H2010 H 0.28221 0.06581 0.92016 0.0
H2011 H 0.2932 0.06357 0.95401 0.0
C2012 C 0.24888 0.06453 0.8697 0.0
C2013 C 0.23872 0.04757 0.86008 0.0
C2014 C 0.25314 0.06632 0.88979 0.0
C2015 C 0.24738 0.05118 0.90069 0.0
C2016 C 0.23682 0.03443 0.89107 0.0
C2017 C 0.23252 0.03267 0.87103 0.0
C2018 C 0.24702 0.04279 0.95361 0.0
C2019 C 0.26609 0.04945 0.96092 0.0
C2020 C 0.24065 0.04421 0.93429 0.0
C2021 C 0.25326 0.05218 0.9218 0.0
C2022 C 0.27205 0.05974 0.9294 0.0
C2023 C 0.27838 0.05844 0.94879 0.0
H2024 H 0.52147 0.67191 0.44267 0.0
H2025 H 0.52813 0.73427 0.45206 0.0
H2026 H 0.48867 0.67153 0.45205 0.0
H2027 H 0.49496 0.73388 0.46078 0.0
H2028 H 0.4372 0.72691 0.48573 0.0
H2029 H 0.47195 0.72443 0.48431 0.0
H2030 H 0.45904 0.68084 0.43575 0.0
H2031 H 0.4246 0.68321 0.43738 0.0
C2032 C 0.51607 0.68554 0.44703 0.0
C2033 C 0.52743 0.70314 0.4465 0.0
C2034 C 0.49717 0.68531 0.45224 0.0
C2035 C 0.48915 0.70267 0.45703 0.0
C2036 C 0.50076 0.72025 0.45732 0.0
C2037 C 0.51968 0.72048 0.45208 0.0
C2038 C 0.44188 0.71647 0.47512 0.0
C2039 C 0.42831 0.70529 0.46162 0.0
C2040 C 0.46172 0.71519 0.47417 0.0
C2041 C 0.46825 0.70252 0.45985 0.0
C2042 C 0.45454 0.6906 0.44708 0.0
C2043 C 0.43481 0.69201 0.44794 0.0
H2044 H 0.86982 0.22404 0.02611 0.0
H2045 H 0.86606 0.25217 0.08319 0.0
H2046 H 0.90462 0.23224 0.02973 0.0
H2047 H 0.90107 0.26034 0.0869 0.0
H2048 H 0.95681 0.29512 0.07072 0.0
H2049 H 0.92347 0.28252 0.07301 0.0
H2050 H 0.93516 0.22694 0.04655 0.0
H2051 H 0.96848 0.23968 0.04406 0.0
C2052 C 0.87649 0.23159 0.03963 0.0
C2053 C 0.86516 0.23753 0.05433 0.0
C2054 C 0.89648 0.23628 0.04173 0.0
C2055 C 0.90565 0.247 0.0586 0.0
C2056 C 0.89442 0.25232 0.07361 0.0
C2057 C 0.87438 0.24765 0.07149 0.0
C2058 C 0.95237 0.28009 0.06581 0.0
C2059 C 0.96518 0.26844 0.05702 0.0
C2060 C 0.93325 0.27284 0.06713 0.0
C2061 C 0.92657 0.25377 0.05976 0.0
C2062 C 0.93974 0.24181 0.052 0.0
C2063 C 0.95882 0.24908 0.05061 0.0
H2064 H 0.12286 0.79088 0.54236 0.0
H2065 H 0.13971 0.73311 0.54611 0.0
H2066 H 0.09651 0.77817 0.51786 0.0
H2067 H 0.1138 0.72063 0.52137 0.0
H2068 H 0.07224 0.70307 0.46928 0.0
H2069 H 0.10143 0.72097 0.48661 0.0
H2070 H 0.06589 0.75697 0.51901 0.0
H2071 H 0.03688 0.73912 0.50166 0.0
C2072 C 0.12104 0.77551 0.53794 0.0
C2073 C 0.13342 0.76304 0.54635 0.0
C2074 C 0.10601 0.76827 0.5238 0.0
C2075 C 0.10314 0.74842 0.5176 0.0
C2076 C 0.11586 0.73605 0.52554 0.0
C2077 C 0.13075 0.74324 0.53978 0.0
C2078 C 0.07076 0.71526 0.47961 0.0
C2079 C 0.05239 0.71975 0.48419 0.0
C2080 C 0.08741 0.72536 0.48968 0.0
C2081 C 0.08594 0.74022 0.50434 0.0
C2082 C 0.06753 0.74569 0.50774 0.0
C2083 C 0.05092 0.73548 0.49783 0.0
H2084 H 0.52718 0.27154 0.98873 0.0
H2085 H 0.52132 0.30273 0.04387 0.0
H2086 H 0.5624 0.27688 0.99505 0.0
H2087 H 0.55632 0.30773 0.0504 0.0
H2088 H 0.618 0.33169 0.04791 0.0
H2089 H 0.58314 0.32604 0.03974 0.0
H2090 H 0.58966 0.26811 0.0153 0.0
H2091 H 0.62477 0.27414 0.02308 0.0
C2092 C 0.53345 0.27939 0.00226 0.0
C2093 C 0.52154 0.28688 0.01574 0.0
C2094 C 0.55359 0.28241 0.00591 0.0
C2095 C 0.5622 0.29287 0.02317 0.0
C2096 C 0.55021 0.30001 0.03676 0.0
C2097 C 0.53014 0.29712 0.03305 0.0
C2098 C 0.61191 0.31776 0.0408 0.0
C2099 C 0.62393 0.30327 0.03626 0.0
C2100 C 0.59197 0.31447 0.03618 0.0
C2101 C 0.58356 0.29653 0.02708 0.0
C2102 C 0.59568 0.28214 0.02218 0.0
C2103 C 0.61572 0.28551 0.02669 0.0
H2104 H 0.43763 0.51999 0.66955 0.0
H2105 H 0.4482 0.52777 0.73186 0.0
H2106 H 0.44766 0.48746 0.66949 0.0
H2107 H 0.45752 0.49489 0.73184 0.0
H2108 H 0.4847 0.43872 0.72582 0.0
H2109 H 0.48162 0.473 0.72265 0.0
H2110 H 0.4334 0.45731 0.67911 0.0
H2111 H 0.43681 0.42326 0.68201 0.0
C2112 C 0.44231 0.51486 0.68323 0.0
C2113 C 0.44204 0.5265 0.70072 0.0
C2114 C 0.44789 0.49612 0.6832 0.0
C2115 C 0.45332 0.48853 0.70065 0.0
C2116 C 0.45362 0.50035 0.71812 0.0
C2117 C 0.44802 0.51911 0.71815 0.0
C2118 C 0.47383 0.44266 0.71521 0.0
C2119 C 0.46094 0.42837 0.70422 0.0
C2120 C 0.4719 0.46226 0.71355 0.0
C2121 C 0.45714 0.4679 0.70078 0.0
C2122 C 0.44502 0.45352 0.68899 0.0
C2123 C 0.44689 0.43399 0.69071 0.0
H2124 H 0.06004 0.87774 0.27716 0.0
H2125 H 0.06244 0.88431 0.21637 0.0
H2126 H 0.06288 0.91261 0.28424 0.0
H2127 H 0.06522 0.91942 0.22351 0.0
H2128 H 0.03724 0.9755 0.24284 0.0
H2129 H 0.04246 0.94199 0.23389 0.0
H2130 H 0.08301 0.94314 0.28465 0.0
H2131 H 0.07727 0.97659 0.29393 0.0
C2132 C 0.06169 0.88662 0.26534 0.0
C2133 C 0.06092 0.87821 0.24617 0.0
C2134 C 0.06332 0.90666 0.26942 0.0
C2135 C 0.06419 0.91879 0.25443 0.0
C2136 C 0.0643 0.91043 0.23534 0.0
C2137 C 0.06269 0.89035 0.23125 0.0
C2138 C 0.04735 0.96862 0.25202 0.0
C2139 C 0.05664 0.97856 0.26922 0.0
C2140 C 0.05054 0.94949 0.24677 0.0
C2141 C 0.06308 0.93987 0.25862 0.0
C2142 C 0.0731 0.95011 0.27534 0.0
C2143 C 0.06993 0.9693 0.28058 0.0
H2144 H 0.53901 0.15332 0.75755 0.0
H2145 H 0.57934 0.11017 0.76235 0.0
H2146 H 0.51379 0.12849 0.74302 0.0
H2147 H 0.55441 0.0854 0.74736 0.0
H2148 H 0.50392 0.04149 0.7303 0.0
H2149 H 0.52501 0.06672 0.75035 0.0
H2150 H 0.50554 0.10907 0.71334 0.0
H2151 H 0.48408 0.0839 0.69378 0.0
C2152 C 0.54246 0.1385 0.75548 0.0
C2153 C 0.56116 0.13369 0.76103 0.0
C2154 C 0.52803 0.12426 0.7471 0.0
C2155 C 0.53201 0.10489 0.7439 0.0
C2156 C 0.55064 0.10006 0.74989 0.0
C2157 C 0.56501 0.11428 0.75844 0.0
C2158 C 0.50393 0.05629 0.72673 0.0
C2159 C 0.49238 0.06075 0.71049 0.0
C2160 C 0.51613 0.07073 0.7381 0.0
C2161 C 0.51724 0.08995 0.73336 0.0
C2162 C 0.50496 0.09451 0.71762 0.0
C2163 C 0.49261 0.08008 0.70637 0.0
H2164 H 0.02126 0.50641 0.3293 0.0
H2165 H 0.96848 0.51011 0.29308 0.0
H2166 H 0.02588 0.54134 0.33509 0.0
H2167 H 0.9728 0.54535 0.29924 0.0
H2168 H 0.00563 0.60484 0.29113 0.0
H2169 H 0.99385 0.5708 0.28969 0.0
H2170 H 0.01544 0.57004 0.34967 0.0
H2171 H 0.02784 0.60399 0.35076 0.0
C2172 C 0.01037 0.51472 0.32296 0.0
C2173 C 0.99454 0.50555 0.31069 0.0
C2174 C 0.01296 0.53479 0.32635 0.0
C2175 C 0.9997 0.54622 0.31765 0.0
C2176 C 0.98343 0.53699 0.30594 0.0
C2177 C 0.98093 0.51685 0.30242 0.0
C2178 C 0.00745 0.59746 0.3041 0.0
C2179 C 0.01781 0.6069 0.32099 0.0
C2180 C 1.00065 0.57796 0.30332 0.0
C2181 C 0.00392 0.56758 0.31949 0.0
C2182 C 0.01309 0.57748 0.33681 0.0
C2183 C 0.0201 0.59691 0.3375 0.0
H2184 H 0.38109 0.66137 0.33323 0.0
H2185 H 0.37862 0.5993 0.33294 0.0
H2186 H 0.41349 0.66205 0.32264 0.0
H2187 H 0.41133 0.60005 0.32292 0.0
H2188 H 0.46126 0.60845 0.28337 0.0
H2189 H 0.42896 0.60631 0.29488 0.0
H2190 H 0.44628 0.65715 0.33479 0.0
H2191 H 0.47833 0.6593 0.32298 0.0
C2192 C 0.38744 0.64786 0.33087 0.0
C2193 C 0.37721 0.63028 0.33391 0.0
C2194 C 0.40613 0.64827 0.32502 0.0
C2195 C 0.41508 0.63111 0.32201 0.0
C2196 C 0.40483 0.61351 0.32497 0.0
C2197 C 0.38615 0.61311 0.3309 0.0
C2198 C 0.45811 0.61897 0.29475 0.0
C2199 C 0.4721 0.63398 0.3024 0.0
C2200 C 0.43968 0.61776 0.30138 0.0
C2201 C 0.43497 0.63164 0.31569 0.0
C2202 C 0.4493 0.64641 0.32357 0.0
C2203 C 0.46768 0.64756 0.31696 0.0
H2204 H 0.11485 0.35531 0.77236 0.0
H2205 H 0.12352 0.31961 0.72053 0.0
H2206 H 0.0801 0.35149 0.76321 0.0
H2207 H 0.08874 0.31629 0.7112 0.0
H2208 H 0.02867 0.33577 0.69141 0.0
H2209 H 0.06356 0.33799 0.70096 0.0
H2210 H 0.0521 0.32564 0.75871 0.0
H2211 H 0.01723 0.32354 0.74903 0.0
C2212 C 0.10938 0.34647 0.75913 0.0
C2213 C 0.12209 0.33778 0.74721 0.0
C2214 C 0.08944 0.34434 0.75387 0.0
C2215 C 0.0817 0.33363 0.73647 0.0
C2216 C 0.09432 0.32484 0.72458 0.0
C2217 C 0.11426 0.32681 0.72992 0.0
C2218 C 0.03373 0.33358 0.70612 0.0
C2219 C 0.02052 0.32951 0.71954 0.0
C2220 C 0.05361 0.33472 0.71156 0.0
C2221 C 0.06057 0.33198 0.73059 0.0
C2222 C 0.04718 0.32799 0.74401 0.0
C2223 C 0.0273 0.32675 0.73851 0.0
H2224 H 0.78901 0.98634 0.63432 0.0
H2225 H 0.77958 0.99535 0.69473 0.0
H2226 H 0.82267 0.98187 0.64326 0.0
H2227 H 0.81327 0.99011 0.70371 0.0
H2228 H 0.88027 0.99767 0.71126 0.0
H2229 H 0.84676 0.00445 0.70295 0.0
H2230 H 0.84032 0.9574 0.65743 0.0
H2231 H 0.87382 0.95104 0.66559 0.0
C2232 C 0.79416 0.98755 0.64953 0.0
C2233 C 0.7816 0.99128 0.66381 0.0
C2234 C 0.81342 0.98472 0.65466 0.0
C2235 C 0.82062 0.98549 0.6742 0.0
C2236 C 0.80819 0.98955 0.68853 0.0
C2237 C 0.78885 0.99237 0.68339 0.0
C2238 C 0.87158 0.9889 0.69947 0.0
C2239 C 0.87939 0.97394 0.68894 0.0
C2240 C 0.85243 0.99266 0.69478 0.0
C2241 C 0.8409 0.98151 0.67947 0.0
C2242 C 0.84889 0.96646 0.66908 0.0
C2243 C 0.86798 0.96273 0.67378 0.0
H2244 H 0.69839 0.03047 0.29378 0.0
H2245 H 0.68708 0.97014 0.27211 0.0
H2246 H 0.66618 0.02985 0.30448 0.0
H2247 H 0.65496 0.96947 0.28342 0.0
H2248 H 0.59132 0.98266 0.28978 0.0
H2249 H 0.62317 0.98243 0.27726 0.0
H2250 H 0.64934 0.01552 0.32987 0.0
H2251 H 0.61758 0.01587 0.34207 0.0
C2252 C 0.68903 0.01709 0.2911 0.0
C2253 C 0.69553 1.00032 0.28216 0.0
C2254 C 0.6706 0.0167 0.29748 0.0
C2255 C 0.65806 0.99957 0.29496 0.0
C2256 C 0.66426 0.98292 0.28553 0.0
C2257 C 0.68277 0.98328 0.27923 0.0
C2258 C 0.60397 0.98978 0.29858 0.0
C2259 C 0.60222 0.99931 0.31679 0.0
C2260 C 0.62216 0.98961 0.2915 0.0
C2261 C 0.63876 0.99909 0.30252 0.0
C2262 C 0.63682 0.00838 0.32089 0.0
C2263 C 0.61871 0.00848 0.32793 0.0
H2264 H 0.33795 0.37417 0.60277 0.0
H2265 H 0.34598 0.38272 0.66517 0.0
H2266 H 0.32883 0.40708 0.6018 0.0
H2267 H 0.33633 0.41535 0.66422 0.0
H2268 H 0.33742 0.47906 0.6558 0.0
H2269 H 0.34839 0.44668 0.65476 0.0
H2270 H 0.30228 0.42635 0.61009 0.0
H2271 H 0.29158 0.45896 0.61108 0.0
C2272 C 0.3378 0.38308 0.61628 0.0
C2273 C 0.3427 0.37581 0.63405 0.0
C2274 C 0.3324 0.40188 0.61572 0.0
C2275 C 0.33189 0.41388 0.63292 0.0
C2276 C 0.3368 0.40659 0.65069 0.0
C2277 C 0.34211 0.38779 0.65125 0.0
C2278 C 0.32986 0.46767 0.64559 0.0
C2279 C 0.3138 0.47132 0.63345 0.0
C2280 C 0.336 0.44912 0.6451 0.0
C2281 C 0.32612 0.43387 0.63246 0.0
C2282 C 0.31031 0.43779 0.61988 0.0
C2283 C 0.30415 0.45638 0.62043 0.0
H2284 H 0.29526 0.6957 0.0355 0.0
H2285 H 0.2673 0.68051 0.97762 0.0
H2286 H 0.30284 0.66258 0.03711 0.0
H2287 H 0.27546 0.64743 0.97909 0.0
H2288 H 0.27667 0.58529 0.9977 0.0
H2289 H 0.26773 0.61833 0.99547 0.0
H2290 H 0.3243 0.64099 0.02265 0.0
H2291 H 0.33291 0.60804 0.02508 0.0
C2292 C 0.29068 0.68536 0.0231 0.0
C2293 C 0.28086 0.69099 0.00633 0.0
C2294 C 0.29522 0.66635 0.02397 0.0
C2295 C 0.28992 0.65238 0.00816 0.0
C2296 C 0.2797 0.65782 0.99155 0.0
C2297 C 0.27524 0.67688 0.99064 0.0
C2298 C 0.28711 0.59743 0.00309 0.0
C2299 C 0.3054 0.59436 0.01156 0.0
C2300 C 0.28208 0.61629 0.00176 0.0
C2301 C 0.29527 0.6323 0.00899 0.0
C2302 C 0.31369 0.62901 0.01724 0.0
C2303 C 0.31868 0.6102 0.01852 0.0
H2304 H 0.71939 0.12367 0.32576 0.0
H2305 H 0.77992 0.11529 0.33615 0.0
H2306 H 0.71118 0.08881 0.32291 0.0
H2307 H 0.77163 0.08049 0.33421 0.0
H2308 H 0.7514 0.0176 0.31177 0.0
H2309 H 0.75975 0.05249 0.31229 0.0
H2310 H 0.71007 0.06283 0.34331 0.0
H2311 H 0.70154 0.02795 0.34208 0.0
C2312 C 0.73097 0.11441 0.32732 0.0
C2313 C 0.75032 0.12235 0.33124 0.0
C2314 C 0.72623 0.0944 0.32595 0.0
C2315 C 0.74072 0.08179 0.32848 0.0
C2316 C 0.7601 0.08971 0.33203 0.0
C2317 C 0.76484 0.10972 0.33338 0.0
C2318 C 0.74238 0.02744 0.31871 0.0
C2319 C 0.72595 0.02033 0.32696 0.0
C2320 C 0.74716 0.04739 0.3191 0.0
C2321 C 0.73559 0.06053 0.32785 0.0
C2322 C 0.71916 0.05318 0.33621 0.0
C2323 C 0.71438 0.03325 0.33573 0.0
H2324 H 0.67703 0.77618 0.95819 0.0
H2325 H 0.66129 0.79468 0.01497 0.0
H2326 H 0.68655 0.80963 0.95316 0.0
H2327 H 0.67001 0.82822 0.00959 0.0
H2328 H 0.70154 0.88596 0.99952 0.0
H2329 H 0.69655 0.85203 0.00571 0.0
H2330 H 0.66963 0.83768 0.94731 0.0
H2331 H 0.6751 0.87158 0.94115 0.0
C2332 C 0.67584 0.78735 0.96971 0.0
C2333 C 0.66832 0.78275 0.98695 0.0
C2334 C 0.68105 0.80656 0.96671 0.0
C2335 C 0.67883 0.82162 0.98088 0.0
C2336 C 0.672 0.81697 0.99842 0.0
C2337 C 0.66682 0.79776 1.00143 0.0
C2338 C 0.69466 0.87549 0.98804 0.0
C2339 C 0.68868 0.88118 0.96988 0.0
C2340 C 0.69172 0.85609 0.99158 0.0
C2341 C 0.68273 0.84212 0.977 0.0
C2342 C 0.67689 0.84799 0.95876 0.0
C2343 C 0.67986 0.86737 0.95525 0.0
H2344 H 0.60187 0.33769 0.37633 0.0
H2345 H 0.66433 0.34274 0.38156 0.0
H2346 H 0.60221 0.33117 0.41022 0.0
H2347 H 0.66464 0.3357 0.41517 0.0
H2348 H 0.65944 0.3445 0.47962 0.0
H2349 H 0.65719 0.35173 0.44588 0.0
H2350 H 0.61056 0.30618 0.4319 0.0
H2351 H 0.6128 0.2992 0.4659 0.0
C2352 C 0.61566 0.33737 0.3847 0.0
C2353 C 0.63308 0.34076 0.37624 0.0
C2354 C 0.61584 0.33347 0.40405 0.0
C2355 C 0.63345 0.33302 0.41542 0.0
C2356 C 0.65083 0.33621 0.40689 0.0
C2357 C 0.65065 0.34001 0.38755 0.0
C2358 C 0.64858 0.33624 0.46931 0.0
C2359 C 0.63623 0.3214 0.47515 0.0
C2360 C 0.64739 0.34023 0.45 0.0
C2361 C 0.63382 0.32941 0.43615 0.0
C2362 C 0.62108 0.31486 0.44223 0.0
C2363 C 0.62234 0.31083 0.46161 0.0
H2364 H 0.04117 0.29174 0.70102 0.0
H2365 H 0.98111 0.26855 0.69322 0.0
H2366 H 0.04141 0.29155 0.66618 0.0
H2367 H 0.98141 0.2685 0.65837 0.0
H2368 H 0.98553 0.2899 0.59757 0.0
H2369 H 0.98407 0.29034 0.63265 0.0
H2370 H 0.03977 0.26762 0.63808 0.0
H2371 H 0.04117 0.26752 0.60315 0.0
C2372 C 0.02803 0.28652 0.69195 0.0
C2373 C 0.01111 0.28021 0.70009 0.0
C2374 C 0.02818 0.28641 0.67192 0.0
C2375 C 0.01145 0.2799 0.65949 0.0
C2376 C 0.99447 0.27383 0.66757 0.0
C2377 C 0.99431 0.27393 0.6876 0.0
C2378 C 0.99728 0.28484 0.60636 0.0
C2379 C 0.01339 0.27857 0.59791 0.0
C2380 C 0.99649 0.28506 0.62637 0.0
C2381 C 0.01187 0.27913 0.63817 0.0
C2382 C 0.02783 0.27257 0.62945 0.0
C2383 C 0.02857 0.27232 0.60949 0.0
H2384 H 0.32404 0.72214 0.1252 0.0
H2385 H 0.35016 0.7787 0.11604 0.0
H2386 H 0.31958 0.71355 0.09031 0.0
H2387 H 0.34517 0.7702 0.08118 0.0
H2388 H 0.31539 0.75307 0.01917 0.0
H2389 H 0.3183 0.76215 0.05423 0.0
H2390 H 0.34118 0.7079 0.06383 0.0
H2391 H 0.33821 0.69899 0.02883 0.0
C2392 C 0.3289 0.73274 0.1158 0.0
C2393 C 0.33755 0.75111 0.12354 0.0
C2394 C 0.32627 0.72782 0.0958 0.0
C2395 C 0.33205 0.74119 0.08301 0.0
C2396 C 0.34035 0.75967 0.09066 0.0
C2397 C 0.34315 0.76454 0.11067 0.0
C2398 C 0.32106 0.7432 0.02888 0.0
C2399 C 0.32658 0.7254 0.02157 0.0
C2400 C 0.32277 0.74836 0.04887 0.0
C2401 C 0.32993 0.73571 0.06179 0.0
C2402 C 0.33541 0.71785 0.05427 0.0
C2403 C 0.33385 0.7128 0.03431 0.0
H2404 H 0.98619 0.63719 0.80028 0.0
H2405 H 0.98827 0.69761 0.79065 0.0
H2406 H 0.98059 0.64523 0.83381 0.0
H2407 H 0.9818 0.70558 0.82413 0.0
H2408 H 0.989 0.7142 0.8908 0.0
H2409 H 0.99629 0.70672 0.85736 0.0
H2410 H 0.95508 0.656 0.85198 0.0
H2411 H 0.94828 0.66337 0.8855 0.0
C2412 C 0.98558 0.65223 0.80534 0.0
C2413 C 0.98776 0.66676 0.79275 0.0
C2414 C 0.9821 0.65681 0.82453 0.0
C2415 C 0.98062 0.67604 0.83166 0.0
C2416 C 0.983 0.69064 0.81916 0.0
C2417 C 0.98651 0.68604 0.79991 0.0
C2418 C 0.98161 0.70145 0.88238 0.0
C2419 C 0.96818 0.68927 0.89052 0.0
C2420 C 0.98566 0.69723 0.86324 0.0
C2421 C 0.97631 0.68073 0.85198 0.0
C2422 C 0.96277 0.66864 0.8603 0.0
C2423 C 0.95877 0.67288 0.87942 0.0
H2424 H 0.63347 0.38509 0.70503 0.0
H2425 H 0.61016 0.37958 0.64509 0.0
H2426 H 0.60079 0.3842 0.71495 0.0
H2427 H 0.57754 0.37952 0.65503 0.0
H2428 H 0.52214 0.35564 0.67994 0.0
H2429 H 0.55459 0.3585 0.66914 0.0
H2430 H 0.57302 0.4026 0.71632 0.0
H2431 H 0.54051 0.39929 0.72723 0.0
C2432 C 0.62138 0.38372 0.69396 0.0
C2433 C 0.62449 0.38233 0.67425 0.0
C2434 C 0.60263 0.38347 0.69966 0.0
C2435 C 0.58649 0.38182 0.6858 0.0
C2436 C 0.58961 0.38062 0.6661 0.0
C2437 C 0.60835 0.38087 0.6604 0.0
C2438 C 0.53314 0.36607 0.68781 0.0
C2439 C 0.529 0.37731 0.7043 0.0
C2440 C 0.55169 0.36778 0.68162 0.0
C2441 C 0.56648 0.38077 0.69187 0.0
C2442 C 0.56208 0.39228 0.70823 0.0
C2443 C 0.54348 0.39054 0.7144 0.0
H2444 H 0.88324 0.63377 0.24554 0.0
H2445 H 0.87787 0.68985 0.27509 0.0
H2446 H 0.91779 0.63736 0.25578 0.0
H2447 H 0.91242 0.69328 0.28553 0.0
H2448 H 0.97022 0.6818 0.31828 0.0
H2449 H 0.93561 0.67898 0.30743 0.0
H2450 H 0.9478 0.6566 0.25045 0.0
H2451 H 0.98239 0.65941 0.26151 0.0
C2452 C 0.88943 0.64696 0.25404 0.0
C2453 C 0.87769 0.66152 0.25947 0.0
C2454 C 0.90926 0.649 0.25994 0.0
C2455 C 0.91787 0.66559 0.2715 0.0
C2456 C 0.90619 0.68019 0.27687 0.0
C2457 C 0.88636 0.6782 0.2709 0.0
C2458 C 0.9654 0.67634 0.30345 0.0
C2459 C 0.97874 0.6708 0.29067 0.0
C2460 C 0.94565 0.6748 0.29719 0.0
C2461 C 0.93892 0.66756 0.27806 0.0
C2462 C 0.95246 0.66202 0.26533 0.0
C2463 C 0.97221 0.66366 0.27159 0.0
H2464 H 0.20163 0.03315 0.37034 0.0
H2465 H 0.21221 0.01287 0.31224 0.0
H2466 H 0.16879 0.03854 0.35882 0.0
H2467 H 0.17924 0.01839 0.30066 0.0
H2468 H 0.12584 0.05114 0.28518 0.0
H2469 H 0.15896 0.04494 0.29601 0.0
H2470 H 0.13823 0.0204 0.34599 0.0
H2471 H 0.1053 0.02695 0.33519 0.0
C2472 C 0.19689 0.02962 0.35513 0.0
C2473 C 0.20956 0.02246 0.34224 0.0
C2474 C 0.17804 0.03274 0.34851 0.0
C2475 C 0.17135 0.02883 0.32882 0.0
C2476 C 0.18402 0.02176 0.31588 0.0
C2477 C 0.20291 0.0186 0.32252 0.0
C2478 C 0.12851 0.04443 0.29847 0.0
C2479 C 0.11328 0.0396 0.3095 0.0
C2480 C 0.14737 0.04076 0.30461 0.0
C2481 C 0.15125 0.03223 0.32191 0.0
C2482 C 0.1358 0.02725 0.33277 0.0
C2483 C 0.11697 0.0309 0.32659 0.0
H2484 H 0.28342 0.98862 0.66544 0.0
H2485 H 0.3028 0.04382 0.72109 0.0
H2486 H 0.32577 0.98666 0.65965 0.0
H2487 H 0.34449 0.04156 0.71543 0.0
H2488 H 0.40598 0.03205 0.70477 0.0
H2489 H 0.37251 0.02564 0.71215 0.0
H2490 H 0.35556 0.00487 0.65229 0.0
H2491 H 0.38922 0.01095 0.64512 0.0
C2492 C 0.29423 0.99858 0.67412 0.0
C2493 C 0.28703 0.0172 0.69345 0.0
C2494 C 0.32162 0.997 0.67064 0.0
C2495 C 0.34091 0.01415 0.6865 0.0
C2496 C 0.33364 0.0319 0.70645 0.0
C2497 C 0.30656 0.03353 0.70988 0.0
C2498 C 0.39509 0.02578 0.69334 0.0
C2499 C 0.39993 0.02197 0.67444 0.0
C2500 C 0.37593 0.02225 0.69748 0.0
C2501 C 0.3614 0.01492 0.68274 0.0
C2502 C 0.36648 0.01028 0.66398 0.0
C2503 C 0.38567 0.01385 0.65985 0.0
H2504 H 0.67101 0.62183 0.40731 0.0
H2505 H 0.67007 0.62037 0.34519 0.0
H2506 H 0.67638 0.58763 0.40541 0.0
H2507 H 0.67607 0.58644 0.34336 0.0
H2508 H 0.66469 0.5214 0.34436 0.0
H2509 H 0.65887 0.55551 0.34762 0.0
H2510 H 0.70078 0.56547 0.39784 0.0
H2511 H 0.70629 0.5311 0.39458 0.0
C2512 C 0.67198 0.61423 0.39325 0.0
C2513 C 0.67006 0.62386 0.37639 0.0
C2514 C 0.67525 0.59467 0.39219 0.0
C2515 C 0.67657 0.58425 0.37422 0.0
C2516 C 0.67487 0.59395 0.35741 0.0
C2517 C 0.67167 0.61349 0.35848 0.0
C2518 C 0.67249 0.53091 0.35618 0.0
C2519 C 0.68585 0.52382 0.36927 0.0
C2520 C 0.66931 0.55045 0.35797 0.0
C2521 C 0.67948 0.56329 0.3729 0.0
C2522 C 0.69261 0.55596 0.38627 0.0
C2523 C 0.69581 0.53636 0.38442 0.0
H2524 H 0.6688 0.28139 0.99118 0.0
H2525 H 0.72501 0.30434 0.04486 0.0
H2526 H 0.66071 0.3229 0.98827 0.0
H2527 H 0.71695 0.34553 0.04187 0.0
H2528 H 0.70238 0.40659 0.02565 0.0
H2529 H 0.71113 0.37329 0.02572 0.0
H2530 H 0.65239 0.35192 0.00422 0.0
H2531 H 0.64395 0.38506 0.00386 0.0
C2532 C 0.67716 0.29275 1.00076 0.0
C2533 C 0.69739 0.28694 0.01916 0.0
C2534 C 0.67213 0.31962 0.99865 0.0
C2535 C 0.68735 0.33991 0.01513 0.0
C2536 C 0.70825 0.33411 0.0327 0.0
C2537 C 0.71327 0.30741 0.03479 0.0
C2538 C 0.69145 0.39466 0.02102 0.0
C2539 C 0.67254 0.39813 0.01482 0.0
C2540 C 0.69638 0.37565 0.02108 0.0
C2541 C 0.68247 0.35999 0.01481 0.0
C2542 C 0.66355 0.36363 0.0087 0.0
C2543 C 0.65864 0.38257 0.00871 0.0
H2544 H 0.23908 0.88037 0.6799 0.0
H2545 H 0.29462 0.86035 0.69577 0.0
H2546 H 0.25298 0.91367 0.68801 0.0
H2547 H 0.30832 0.89363 0.70469 0.0
H2548 H 0.33002 0.95585 0.69198 0.0
H2549 H 0.31719 0.9218 0.68844 0.0
H2550 H 0.26594 0.93735 0.71431 0.0
H2551 H 0.27877 0.97143 0.71733 0.0
C2552 C 0.25423 0.88305 0.68521 0.0
C2553 C 0.26573 0.86764 0.68706 0.0
C2554 C 0.26216 0.90216 0.69013 0.0
C2555 C 0.2818 0.90637 0.69703 0.0
C2556 C 0.2932 0.89094 0.69924 0.0
C2557 C 0.28528 0.87183 0.69432 0.0
C2558 C 0.31624 0.95181 0.69731 0.0
C2559 C 0.30544 0.96599 0.70517 0.0
C2560 C 0.30886 0.93235 0.6953 0.0
C2561 C 0.29047 0.9268 0.70102 0.0
C2562 C 0.28002 0.94112 0.70953 0.0
C2563 C 0.28743 0.96057 0.7115 0.0
H2564 H 0.37323 0.19769 0.01367 0.0
H2565 H 0.31503 0.20793 0.99339 0.0
H2566 H 0.36225 0.16428 0.01722 0.0
H2567 H 0.30398 0.17434 0.99706 0.0
H2568 H 0.28958 0.11951 0.02846 0.0
H2569 H 0.29954 0.15297 0.02284 0.0
H2570 H 0.35007 0.13417 0.99782 0.0
H2571 H 0.34013 0.10087 0.00381 0.0
C2572 C 0.35812 0.19275 0.0097 0.0
C2573 C 0.34503 0.20549 0.00312 0.0
C2574 C 0.35182 0.17357 0.01176 0.0
C2575 C 0.33225 0.16661 0.00735 0.0
C2576 C 0.31912 0.17932 1.00078 0.0
C2577 C 0.32544 0.19855 0.99868 0.0
C2578 C 0.30275 0.12266 0.02169 0.0
C2579 C 0.31421 0.10789 0.01661 0.0
C2580 C 0.3084 0.14172 0.01836 0.0
C2581 C 0.32564 0.14625 0.00994 0.0
C2582 C 0.33687 0.13122 0.00458 0.0
C2583 C 0.33118 0.11219 0.0079 0.0
H2584 H 0.37036 0.64873 0.6107 0.0
H2585 H 0.39316 0.70685 0.63269 0.0
H2586 H 0.36952 0.65792 0.57777 0.0
H2587 H 0.39243 0.71605 0.59971 0.0
H2588 H 0.36542 0.73 0.54022 0.0
H2589 H 0.36914 0.72127 0.57344 0.0
H2590 H 0.38969 0.66721 0.55299 0.0
H2591 H 0.38551 0.67598 0.5197 0.0
C2592 C 0.37542 0.66342 0.60849 0.0
C2593 C 0.3818 0.67706 0.62436 0.0
C2594 C 0.37498 0.66869 0.58959 0.0
C2595 C 0.38092 0.68773 0.58604 0.0
C2596 C 0.38748 0.70133 0.60191 0.0
C2597 C 0.38789 0.69607 0.62082 0.0
C2598 C 0.37093 0.71637 0.54296 0.0
C2599 C 0.37526 0.70364 0.52762 0.0
C2600 C 0.37314 0.71137 0.56195 0.0
C2601 C 0.37968 0.6935 0.56593 0.0
C2602 C 0.38438 0.68096 0.55044 0.0
C2603 C 0.38215 0.686 0.53143 0.0
H2604 H 0.98303 0.72324 0.30596 0.0
H2605 H 0.04422 0.71814 0.30484 0.0
H2606 H 0.98513 0.71597 0.33954 0.0
H2607 H 0.04638 0.71133 0.33865 0.0
H2608 H 0.03404 0.67375 0.38948 0.0
H2609 H 0.03498 0.68439 0.35698 0.0
H2610 H 0.99877 0.72945 0.37216 0.0
H2611 H 0.99772 0.71852 0.40451 0.0
C2612 C 0.99695 0.72065 0.31289 0.0
C2613 C 0.01341 0.72112 0.30262 0.0
C2614 C 0.9982 0.7167 0.33222 0.0
C2615 C 0.01593 0.71308 0.34177 0.0
C2616 C 0.03249 0.71395 0.33166 0.0
C2617 C 0.03127 0.71805 0.31234 0.0
C2618 C 0.02663 0.68615 0.38588 0.0
C2619 C 0.01592 0.69547 0.39933 0.0
C2620 C 0.02717 0.69226 0.36734 0.0
C2621 C 0.01688 0.70773 0.36197 0.0
C2622 C 0.00666 0.71736 0.37578 0.0
C2623 C 0.00618 0.71126 0.39431 0.0
H2624 H 0.70047 0.29801 0.8614 0.0
H2625 H 0.69082 0.24071 0.87969 0.0
H2626 H 0.70733 0.31133 0.89508 0.0
H2627 H 0.69684 0.25411 0.91336 0.0
H2628 H 0.72272 0.28105 0.97218 0.0
H2629 H 0.7214 0.26919 0.9379 0.0
H2630 H 0.68952 0.31698 0.9229 0.0
H2631 H 0.69135 0.32891 0.95715 0.0
C2632 C 0.69996 0.28822 0.87258 0.0
C2633 C 0.69503 0.26827 0.8678 0.0
C2634 C 0.70368 0.29589 0.89192 0.0
C2635 C 0.70258 0.28382 0.90697 0.0
C2636 C 0.69805 0.26383 0.90216 0.0
C2637 C 0.69433 0.25616 0.88284 0.0
C2638 C 0.71585 0.28917 0.96141 0.0
C2639 C 0.70736 0.30595 0.96704 0.0
C2640 C 0.71489 0.28231 0.94184 0.0
C2641 C 0.70526 0.29206 0.9276 0.0
C2642 C 0.69727 0.30924 0.9334 0.0
C2643 C 0.69828 0.31609 0.95297 0.0
H2644 H 0.03258 0.32089 0.22026 0.0
H2645 H 0.9817 0.34947 0.20506 0.0
H2646 H 0.03599 0.31296 0.18608 0.0
H2647 H 0.98567 0.34239 0.17092 0.0
H2648 H 0.98861 0.3124 0.11069 0.0
H2649 H 0.98367 0.31704 0.14501 0.0
H2650 H 0.04541 0.32959 0.15915 0.0
H2651 H 0.05019 0.32428 0.12483 0.0
C2652 C 0.02201 0.32533 0.20964 0.0
C2653 C 0.0069 0.33588 0.21542 0.0
C2654 C 0.02413 0.32102 0.19003 0.0
C2655 C 0.01122 0.32719 0.17572 0.0
C2656 C 0.9958 0.33728 0.18152 0.0
C2657 C 0.99365 0.34154 0.20112 0.0
C2658 C 1.00106 0.31604 0.12122 0.0
C2659 C 0.01976 0.31796 0.11534 0.0
C2660 C 0.99826 0.31882 0.14084 0.0
C2661 C 0.01415 0.32366 0.15488 0.0
C2662 C 0.03288 0.32556 0.1488 0.0
C2663 C 0.03565 0.32269 0.12918 0.0
loop_
_geom_bond_atom_site_label_1
_geom_bond_atom_site_label_2
_geom_bond_distance
_geom_bond_site_symmetry_2
_ccdc_geom_bond_type
C0 C1 1.264 . S
C0 C5 1.479 . S
C0 C10 1.465 . S
C1 C0 1.264 . S
C1 C3 1.339 . S
C1 H28 0.931 . S
C2 C3 1.395 . S
C2 C4 1.320 . S
C3 C1 1.339 . S
C3 C2 1.395 . S
C3 H29 0.929 . S
C4 C2 1.320 . S
C4 C5 1.405 . S
C4 H30 0.930 . S
C5 C0 1.479 . S
C5 C4 1.405 . S
C5 H31 0.931 . S
U6 O7 2.454 . S
U6 O8 2.458 . S
U6 C9 2.984 . S
U6 C10 2.847 . S
U6 C23 2.882 . S
U6 O24 2.441 . S
U6 O25 2.420 . S
U6 O26 2.455 . S
U6 O27 2.449 . S
O7 U6 2.454 . S
O7 C9 1.353 . S
O8 U6 2.458 . S
O8 C9 1.286 . S
C9 U6 2.984 . S
C9 O7 1.353 . S
C9 O8 1.286 . S
C9 C11 1.363 . S
C10 C0 1.465 . S
C10 U6 2.847 . S
C10 O24 1.249 . S
C10 O25 1.202 . S
C11 C9 1.363 . S
C11 C13 1.408 . S
C11 C16 1.342 . S
C12 C13 1.310 . S
C12 C15 1.461 . S
C12 H32 0.932 . S
C13 C11 1.408 . S
C13 C12 1.310 . S
C13 H33 0.930 . S
C14 C15 1.474 . S
C14 C16 1.285 . S
C14 H34 0.929 . S
C15 C12 1.461 . S
C15 C14 1.474 . S
C16 C11 1.342 . S
C16 C14 1.285 . S
C16 H35 0.930 . S
C17 C20 1.424 . S
C17 C22 1.245 . S
C17 C23 1.428 . S
C18 C21 1.260 . S
C18 C22 1.477 . S
C18 H36 0.932 . S
C19 C20 1.384 . S
C19 C21 1.479 . S
C19 H37 0.929 . S
C20 C17 1.424 . S
C20 C19 1.384 . S
C20 H38 0.928 . S
C21 C18 1.260 . S
C21 C19 1.479 . S
C22 C17 1.245 . S
C22 C18 1.477 . S
C22 H39 0.932 . S
C23 U6 2.882 . S
C23 C17 1.428 . S
C23 O26 1.301 . S
C23 O27 1.282 . S
O24 U6 2.441 . S
O24 C10 1.249 . S
O25 U6 2.420 . S
O25 C10 1.202 . S
O26 U6 2.455 . S
O26 C23 1.301 . S
O27 U6 2.449 . S
O27 C23 1.282 . S
H28 C1 0.931 . S
H29 C3 0.929 . S
H30 C4 0.930 . S
H31 C5 0.931 . S
H32 C12 0.932 . S
H33 C13 0.930 . S
H34 C14 0.929 . S
H35 C16 0.930 . S
H36 C18 0.932 . S
H37 C19 0.929 . S
H38 C20 0.928 . S
H39 C22 0.932 . S
C40 C41 1.264 . S
C40 C45 1.479 . S
C40 C50 1.465 . S
C41 C40 1.264 . S
C41 C43 1.339 . S
C41 H68 0.931 . S
C42 C43 1.395 . S
C42 C44 1.320 . S
C43 C41 1.339 . S
C43 C42 1.395 . S
C43 H69 0.929 . S
C44 C42 1.320 . S
C44 C45 1.405 . S
C44 H70 0.930 . S
C45 C40 1.479 . S
C45 C44 1.405 . S
C45 H71 0.931 . S
U46 O47 2.454 . S
U46 O48 2.458 . S
U46 C49 2.984 . S
U46 C50 2.847 . S
U46 C63 2.882 . S
U46 O64 2.441 . S
U46 O65 2.420 . S
U46 O66 2.455 . S
U46 O67 2.449 . S
O47 U46 2.454 . S
O47 C49 1.353 . S
O48 U46 2.458 . S
O48 C49 1.286 . S
C49 U46 2.984 . S
C49 O47 1.353 . S
C49 O48 1.286 . S
C49 C51 1.363 . S
C50 C40 1.465 . S
C50 U46 2.847 . S
C50 O64 1.249 . S
C50 O65 1.202 . S
C51 C49 1.363 . S
C51 C53 1.408 . S
C51 C56 1.342 . S
C52 C53 1.310 . S
C52 C55 1.461 . S
C52 H72 0.932 . S
C53 C51 1.408 . S
C53 C52 1.310 . S
C53 H73 0.930 . S
C54 C55 1.474 . S
C54 C56 1.285 . S
C54 H74 0.929 . S
C55 C52 1.461 . S
C55 C54 1.474 . S
C56 C51 1.342 . S
C56 C54 1.285 . S
C56 H75 0.930 . S
C57 C60 1.424 . S
C57 C62 1.245 . S
C57 C63 1.428 . S
C58 C61 1.260 . S
C58 C62 1.477 . S
C58 H76 0.932 . S
C59 C60 1.384 . S
C59 C61 1.479 . S
C59 H77 0.929 . S
C60 C57 1.424 . S
C60 C59 1.384 . S
C60 H78 0.928 . S
C61 C58 1.260 . S
C61 C59 1.479 . S
C62 C57 1.245 . S
C62 C58 1.477 . S
C62 H79 0.932 . S
C63 U46 2.882 . S
C63 C57 1.428 . S
C63 O66 1.301 . S
C63 O67 1.282 . S
O64 U46 2.441 . S
O64 C50 1.249 . S
O65 U46 2.420 . S
O65 C50 1.202 . S
O66 U46 2.455 . S
O66 C63 1.301 . S
O67 U46 2.449 . S
O67 C63 1.282 . S
H68 C41 0.931 . S
H69 C43 0.929 . S
H70 C44 0.930 . S
H71 C45 0.931 . S
H72 C52 0.932 . S
H73 C53 0.930 . S
H74 C54 0.929 . S
H75 C56 0.930 . S
H76 C58 0.932 . S
H77 C59 0.929 . S
H78 C60 0.928 . S
H79 C62 0.932 . S
C80 C81 1.264 . S
C80 C85 1.479 . S
C80 C90 1.465 . S
C81 C80 1.264 . S
C81 C83 1.339 . S
C81 H108 0.931 . S
C82 C83 1.395 . S
C82 C84 1.320 . S
C83 C81 1.339 . S
C83 C82 1.395 . S
C83 H109 0.929 . S
C84 C82 1.320 . S
C84 C85 1.405 . S
C84 H110 0.925 1_565 S
C85 C80 1.479 . S
C85 C84 1.405 . S
C85 H111 0.931 . S
U86 O87 2.454 . S
U86 O88 2.458 . S
U86 C89 2.984 . S
U86 C90 2.847 . S
U86 C103 2.882 . S
U86 O104 2.441 . S
U86 O105 2.420 . S
U86 O106 2.455 . S
U86 O107 2.449 . S
O87 U86 2.454 . S
O87 C89 1.353 . S
O88 U86 2.458 . S
O88 C89 1.286 . S
C89 U86 2.984 . S
C89 O87 1.353 . S
C89 O88 1.286 . S
C89 C91 1.363 . S
C90 C80 1.465 . S
C90 U86 2.847 . S
C90 O104 1.249 . S
C90 O105 1.202 . S
C91 C89 1.363 . S
C91 C93 1.408 . S
C91 C96 1.342 . S
C92 C93 1.310 . S
C92 C95 1.461 . S
C92 H112 0.932 . S
C93 C91 1.408 . S
C93 C92 1.310 . S
C93 H113 0.930 . S
C94 C95 1.473 1_545 S
C94 C96 1.284 1_545 S
C94 H114 0.932 . S
C95 C92 1.461 . S
C95 C94 1.473 1_565 S
C96 C91 1.342 . S
C96 C94 1.284 1_565 S
C96 H115 0.935 . S
C97 C100 1.424 . S
C97 C102 1.245 . S
C97 C103 1.428 . S
C98 C101 1.260 . S
C98 C102 1.477 . S
C98 H116 0.932 . S
C99 C100 1.384 . S
C99 C101 1.479 . S
C99 H117 0.929 . S
C100 C97 1.424 . S
C100 C99 1.384 . S
C100 H118 0.928 . S
C101 C98 1.260 . S
C101 C99 1.479 . S
C102 C97 1.245 . S
C102 C98 1.477 . S
C102 H119 0.932 . S
C103 U86 2.882 . S
C103 C97 1.428 . S
C103 O106 1.301 . S
C103 O107 1.282 . S
O104 U86 2.441 . S
O104 C90 1.249 . S
O105 U86 2.420 . S
O105 C90 1.202 . S
O106 U86 2.455 . S
O106 C103 1.301 . S
O107 U86 2.449 . S
O107 C103 1.282 . S
H108 C81 0.931 . S
H109 C83 0.929 . S
H110 C84 0.925 1_545 S
H111 C85 0.931 . S
H112 C92 0.932 . S
H113 C93 0.930 . S
H114 C94 0.932 . S
H115 C96 0.935 . S
H116 C98 0.932 . S
H117 C99 0.929 . S
H118 C100 0.928 . S
H119 C102 0.932 . S
C120 C121 1.264 . S
C120 C125 1.479 . S
C120 C130 1.465 . S
C121 C120 1.264 . S
C121 C123 1.339 . S
C121 H148 0.931 . S
C122 C123 1.395 . S
C122 C124 1.320 . S
C123 C121 1.339 . S
C123 C122 1.395 . S
C123 H149 0.929 . S
C124 C122 1.320 . S
C124 C125 1.405 . S
C124 H150 0.930 . S
C125 C120 1.479 . S
C125 C124 1.405 . S
C125 H151 0.931 . S
U126 O127 2.454 . S
U126 O128 2.458 . S
U126 C129 2.984 . S
U126 C130 2.847 . S
U126 C143 2.882 . S
U126 O144 2.441 . S
U126 O145 2.420 . S
U126 O146 2.455 . S
U126 O147 2.449 . S
O127 U126 2.454 . S
O127 C129 1.353 . S
O128 U126 2.458 . S
O128 C129 1.286 . S
C129 U126 2.984 . S
C129 O127 1.353 . S
C129 O128 1.286 . S
C129 C131 1.363 . S
C130 C120 1.465 . S
C130 U126 2.847 . S
C130 O144 1.249 . S
C130 O145 1.202 . S
C131 C129 1.363 . S
C131 C133 1.408 . S
C131 C136 1.342 . S
C132 C133 1.310 . S
C132 C135 1.461 . S
C132 H152 0.932 . S
C133 C131 1.408 . S
C133 C132 1.310 . S
C133 H153 0.930 . S
C134 C135 1.474 . S
C134 C136 1.285 . S
C134 H154 0.929 . S
C135 C132 1.461 . S
C135 C134 1.474 . S
C136 C131 1.342 . S
C136 C134 1.285 . S
C136 H155 0.930 . S
C137 C140 1.424 . S
C137 C142 1.245 . S
C137 C143 1.428 1_565 S
C138 C141 1.260 . S
C138 C142 1.477 . S
C138 H156 0.932 . S
C139 C140 1.384 . S
C139 C141 1.479 . S
C139 H157 0.929 . S
C140 C137 1.424 . S
C140 C139 1.384 . S
C140 H158 0.928 . S
C141 C138 1.260 . S
C141 C139 1.479 . S
C142 C137 1.245 . S
C142 C138 1.477 . S
C142 H159 0.932 . S
C143 U126 2.882 . S
C143 C137 1.428 1_545 S
C143 O146 1.301 . S
C143 O147 1.282 . S
O144 U126 2.441 . S
O144 C130 1.249 . S
O145 U126 2.420 . S
O145 C130 1.202 . S
O146 U126 2.455 . S
O146 C143 1.301 . S
O147 U126 2.449 . S
O147 C143 1.282 . S
H148 C121 0.931 . S
H149 C123 0.929 . S
H150 C124 0.930 . S
H151 C125 0.931 . S
H152 C132 0.932 . S
H153 C133 0.930 . S
H154 C134 0.929 . S
H155 C136 0.930 . S
H156 C138 0.932 . S
H157 C139 0.929 . S
H158 C140 0.928 . S
H159 C142 0.932 . S
C160 C161 1.264 . S
C160 C165 1.479 . S
C160 C170 1.465 . S
C161 C160 1.264 . S
C161 C163 1.339 . S
C161 H188 0.931 . S
C162 C163 1.395 . S
C162 C164 1.320 . S
C163 C161 1.339 . S
C163 C162 1.395 . S
C163 H189 0.929 . S
C164 C162 1.320 . S
C164 C165 1.405 . S
C164 H190 0.930 . S
C165 C160 1.479 . S
C165 C164 1.405 . S
C165 H191 0.931 . S
U166 O167 2.454 . S
U166 O168 2.458 . S
U166 C169 2.984 . S
U166 C170 2.847 . S
U166 C183 2.882 . S
U166 O184 2.441 . S
U166 O185 2.420 . S
U166 O186 2.455 . S
U166 O187 2.449 . S
O167 U166 2.454 . S
O167 C169 1.353 . S
O168 U166 2.458 . S
O168 C169 1.286 . S
C169 U166 2.984 . S
C169 O167 1.353 . S
C169 O168 1.286 . S
C169 C171 1.363 . S
C170 C160 1.465 . S
C170 U166 2.847 . S
C170 O184 1.249 . S
C170 O185 1.202 . S
C171 C169 1.363 . S
C171 C173 1.408 . S
C171 C176 1.342 . S
C172 C173 1.310 . S
C172 C175 1.461 . S
C172 H192 0.932 . S
C173 C171 1.408 . S
C173 C172 1.310 . S
C173 H193 0.930 . S
C174 C175 1.474 . S
C174 C176 1.285 . S
C174 H194 0.929 . S
C175 C172 1.461 . S
C175 C174 1.474 . S
C176 C171 1.342 . S
C176 C174 1.285 . S
C176 H195 0.930 . S
C177 C180 1.424 . S
C177 C182 1.245 . S
C177 C183 1.428 . S
C178 C181 1.260 . S
C178 C182 1.477 . S
C178 H196 0.932 . S
C179 C180 1.384 . S
C179 C181 1.479 . S
C179 H197 0.929 . S
C180 C177 1.424 . S
C180 C179 1.384 . S
C180 H198 0.928 . S
C181 C178 1.260 . S
C181 C179 1.479 . S
C182 C177 1.245 . S
C182 C178 1.477 . S
C182 H199 0.932 . S
C183 U166 2.882 . S
C183 C177 1.428 . S
C183 O186 1.301 . S
C183 O187 1.282 . S
O184 U166 2.441 . S
O184 C170 1.249 . S
O185 U166 2.420 . S
O185 C170 1.202 . S
O186 U166 2.455 . S
O186 C183 1.301 . S
O187 U166 2.449 . S
O187 C183 1.282 . S
H188 C161 0.931 . S
H189 C163 0.929 . S
H190 C164 0.930 . S
H191 C165 0.931 . S
H192 C172 0.932 . S
H193 C173 0.930 . S
H194 C174 0.929 . S
H195 C176 0.930 . S
H196 C178 0.932 . S
H197 C179 0.929 . S
H198 C180 0.928 . S
H199 C182 0.932 . S
C200 C201 1.264 . S
C200 C205 1.479 . S
C200 C210 1.465 . S
C201 C200 1.264 . S
C201 C203 1.339 . S
C201 H228 0.931 . S
C202 C203 1.395 . S
C202 C204 1.320 . S
C203 C201 1.339 . S
C203 C202 1.395 . S
C203 H229 0.929 . S
C204 C202 1.320 . S
C204 C205 1.405 . S
C204 H230 0.930 . S
C205 C200 1.479 . S
C205 C204 1.405 . S
C205 H231 0.931 . S
U206 O207 2.454 . S
U206 O208 2.458 . S
U206 C209 2.984 . S
U206 C210 2.847 . S
U206 C223 2.882 . S
U206 O224 2.441 . S
U206 O225 2.420 . S
U206 O226 2.455 . S
U206 O227 2.449 . S
O207 U206 2.454 . S
O207 C209 1.353 . S
O208 U206 2.458 . S
O208 C209 1.286 . S
C209 U206 2.984 . S
C209 O207 1.353 . S
C209 O208 1.286 . S
C209 C211 1.363 . S
C210 C200 1.465 . S
C210 U206 2.847 . S
C210 O224 1.249 . S
C210 O225 1.202 . S
C211 C209 1.363 . S
C211 C213 1.408 . S
C211 C216 1.342 . S
C212 C213 1.310 . S
C212 C215 1.461 . S
C212 H232 0.932 . S
C213 C211 1.408 . S
C213 C212 1.310 . S
C213 H233 0.930 . S
C214 C215 1.474 . S
C214 C216 1.285 . S
C214 H234 0.929 . S
C215 C212 1.461 . S
C215 C214 1.474 . S
C216 C211 1.342 . S
C216 C214 1.285 . S
C216 H235 0.930 . S
C217 C220 1.424 . S
C217 C222 1.245 . S
C217 C223 1.428 1_556 S
C218 C221 1.260 . S
C218 C222 1.477 . S
C218 H236 0.932 . S
C219 C220 1.384 . S
C219 C221 1.479 . S
C219 H237 0.929 . S
C220 C217 1.424 . S
C220 C219 1.384 . S
C220 H238 0.928 . S
C221 C218 1.260 . S
C221 C219 1.479 . S
C222 C217 1.245 . S
C222 C218 1.477 . S
C222 H239 0.932 . S
C223 U206 2.882 . S
C223 C217 1.428 1_554 S
C223 O226 1.301 . S
C223 O227 1.282 . S
O224 U206 2.441 . S
O224 C210 1.249 . S
O225 U206 2.420 . S
O225 C210 1.202 . S
O226 U206 2.455 . S
O226 C223 1.301 . S
O227 U206 2.449 . S
O227 C223 1.282 . S
H228 C201 0.931 . S
H229 C203 0.929 . S
H230 C204 0.930 . S
H231 C205 0.931 . S
H232 C212 0.932 . S
H233 C213 0.930 . S
H234 C214 0.929 . S
H235 C216 0.930 . S
H236 C218 0.932 . S
H237 C219 0.929 . S
H238 C220 0.928 . S
H239 C222 0.932 . S
C240 C241 1.264 . S
C240 C245 1.479 . S
C240 C250 1.465 . S
C241 C240 1.264 . S
C241 C243 1.339 . S
C241 H268 0.931 . S
C242 C243 1.395 . S
C242 C244 1.320 . S
C243 C241 1.339 . S
C243 C242 1.395 . S
C243 H269 0.929 . S
C244 C242 1.320 . S
C244 C245 1.405 . S
C244 H270 0.930 . S
C245 C240 1.479 . S
C245 C244 1.405 . S
C245 H271 0.931 . S
U246 O247 2.454 . S
U246 O248 2.458 . S
U246 C249 2.984 . S
U246 C250 2.847 . S
U246 C263 2.882 . S
U246 O264 2.441 . S
U246 O265 2.420 . S
U246 O266 2.455 . S
U246 O267 2.449 . S
O247 U246 2.454 . S
O247 C249 1.353 . S
O248 U246 2.458 . S
O248 C249 1.286 . S
C249 U246 2.984 . S
C249 O247 1.353 . S
C249 O248 1.286 . S
C249 C251 1.363 . S
C250 C240 1.465 . S
C250 U246 2.847 . S
C250 O264 1.249 . S
C250 O265 1.202 . S
C251 C249 1.363 . S
C251 C253 1.408 . S
C251 C256 1.342 . S
C252 C253 1.310 . S
C252 C255 1.461 . S
C252 H272 0.932 . S
C253 C251 1.408 . S
C253 C252 1.310 . S
C253 H273 0.930 . S
C254 C255 1.474 . S
C254 C256 1.285 . S
C254 H274 0.929 . S
C255 C252 1.461 . S
C255 C254 1.474 . S
C256 C251 1.342 . S
C256 C254 1.285 . S
C256 H275 0.930 . S
C257 C260 1.424 . S
C257 C262 1.245 . S
C257 C263 1.428 . S
C258 C261 1.260 . S
C258 C262 1.477 . S
C258 H276 0.932 . S
C259 C260 1.384 . S
C259 C261 1.479 . S
C259 H277 0.929 . S
C260 C257 1.424 . S
C260 C259 1.384 . S
C260 H278 0.928 . S
C261 C258 1.260 . S
C261 C259 1.479 . S
C262 C257 1.245 . S
C262 C258 1.477 . S
C262 H279 0.932 . S
C263 U246 2.882 . S
C263 C257 1.428 . S
C263 O266 1.301 . S
C263 O267 1.282 . S
O264 U246 2.441 . S
O264 C250 1.249 . S
O265 U246 2.420 . S
O265 C250 1.202 . S
O266 U246 2.455 . S
O266 C263 1.301 . S
O267 U246 2.449 . S
O267 C263 1.282 . S
H268 C241 0.931 . S
H269 C243 0.929 . S
H270 C244 0.930 . S
H271 C245 0.931 . S
H272 C252 0.932 . S
H273 C253 0.930 . S
H274 C254 0.929 . S
H275 C256 0.930 . S
H276 C258 0.932 . S
H277 C259 0.929 . S
H278 C260 0.928 . S
H279 C262 0.932 . S
C280 C281 1.264 . S
C280 C285 1.479 . S
C280 C290 1.465 . S
C281 C280 1.264 . S
C281 C283 1.339 . S
C281 H308 0.931 . S
C282 C283 1.395 . S
C282 C284 1.320 . S
C283 C281 1.339 . S
C283 C282 1.395 . S
C283 H309 0.929 . S
C284 C282 1.320 . S
C284 C285 1.405 . S
C284 H310 0.925 1_556 S
C285 C280 1.479 . S
C285 C284 1.405 . S
C285 H311 0.931 . S
U286 O287 2.454 . S
U286 O288 2.458 . S
U286 C289 2.984 . S
U286 C290 2.847 . S
U286 C303 2.882 . S
U286 O304 2.441 . S
U286 O305 2.420 . S
U286 O306 2.455 . S
U286 O307 2.449 . S
O287 U286 2.454 . S
O287 C289 1.353 . S
O288 U286 2.458 . S
O288 C289 1.286 . S
C289 U286 2.984 . S
C289 O287 1.353 . S
C289 O288 1.286 . S
C289 C291 1.363 . S
C290 C280 1.465 . S
C290 U286 2.847 . S
C290 O304 1.249 . S
C290 O305 1.202 . S
C291 C289 1.363 . S
C291 C293 1.408 . S
C291 C296 1.342 . S
C292 C293 1.310 . S
C292 C295 1.461 . S
C292 H312 0.932 . S
C293 C291 1.408 . S
C293 C292 1.310 . S
C293 H313 0.930 . S
C294 C295 1.473 1_554 S
C294 C296 1.284 1_554 S
C294 H314 0.932 . S
C295 C292 1.461 . S
C295 C294 1.473 1_556 S
C296 C291 1.342 . S
C296 C294 1.284 1_556 S
C296 H315 0.935 . S
C297 C300 1.424 . S
C297 C302 1.245 . S
C297 C303 1.428 . S
C298 C301 1.260 . S
C298 C302 1.477 . S
C298 H316 0.932 . S
C299 C300 1.384 . S
C299 C301 1.479 . S
C299 H317 0.929 . S
C300 C297 1.424 . S
C300 C299 1.384 . S
C300 H318 0.928 . S
C301 C298 1.260 . S
C301 C299 1.479 . S
C302 C297 1.245 . S
C302 C298 1.477 . S
C302 H319 0.932 . S
C303 U286 2.882 . S
C303 C297 1.428 . S
C303 O306 1.301 . S
C303 O307 1.282 . S
O304 U286 2.441 . S
O304 C290 1.249 . S
O305 U286 2.420 . S
O305 C290 1.202 . S
O306 U286 2.455 . S
O306 C303 1.301 . S
O307 U286 2.449 . S
O307 C303 1.282 . S
H308 C281 0.931 . S
H309 C283 0.929 . S
H310 C284 0.925 1_554 S
H311 C285 0.931 . S
H312 C292 0.932 . S
H313 C293 0.930 . S
H314 C294 0.932 . S
H315 C296 0.935 . S
H316 C298 0.932 . S
H317 C299 0.929 . S
H318 C300 0.928 . S
H319 C302 0.932 . S
C320 C321 1.264 . S
C320 C325 1.479 . S
C320 C330 1.465 . S
C321 C320 1.264 . S
C321 C323 1.339 . S
C321 H348 0.931 . S
C322 C323 1.395 . S
C322 C324 1.320 . S
C323 C321 1.339 . S
C323 C322 1.395 . S
C323 H349 0.929 . S
C324 C322 1.320 . S
C324 C325 1.405 . S
C324 H350 0.930 . S
C325 C320 1.479 . S
C325 C324 1.405 . S
C325 H351 0.931 . S
U326 O327 2.454 . S
U326 O328 2.458 . S
U326 C329 2.984 . S
U326 C330 2.847 . S
U326 C343 2.882 . S
U326 O344 2.441 . S
U326 O345 2.420 . S
U326 O346 2.455 . S
U326 O347 2.449 . S
O327 U326 2.454 . S
O327 C329 1.353 . S
O328 U326 2.458 . S
O328 C329 1.286 . S
C329 U326 2.984 . S
C329 O327 1.353 . S
C329 O328 1.286 . S
C329 C331 1.363 . S
C330 C320 1.465 . S
C330 U326 2.847 . S
C330 O344 1.249 . S
C330 O345 1.202 . S
C331 C329 1.363 . S
C331 C333 1.408 . S
C331 C336 1.342 . S
C332 C333 1.310 . S
C332 C335 1.461 . S
C332 H352 0.932 . S
C333 C331 1.408 . S
C333 C332 1.310 . S
C333 H353 0.930 . S
C334 C335 1.474 . S
C334 C336 1.285 . S
C334 H354 0.929 . S
C335 C332 1.461 . S
C335 C334 1.474 . S
C336 C331 1.342 . S
C336 C334 1.285 . S
C336 H355 0.930 . S
C337 C340 1.424 . S
C337 C342 1.245 . S
C337 C343 1.428 . S
C338 C341 1.260 . S
C338 C342 1.477 . S
C338 H356 0.932 . S
C339 C340 1.384 . S
C339 C341 1.479 . S
C339 H357 0.929 . S
C340 C337 1.424 . S
C340 C339 1.384 . S
C340 H358 0.928 . S
C341 C338 1.260 . S
C341 C339 1.479 . S
C342 C337 1.245 . S
C342 C338 1.477 . S
C342 H359 0.932 . S
C343 U326 2.882 . S
C343 C337 1.428 . S
C343 O346 1.301 . S
C343 O347 1.282 . S
O344 U326 2.441 . S
O344 C330 1.249 . S
O345 U326 2.420 . S
O345 C330 1.202 . S
O346 U326 2.455 . S
O346 C343 1.301 . S
O347 U326 2.449 . S
O347 C343 1.282 . S
H348 C321 0.931 . S
H349 C323 0.929 . S
H350 C324 0.930 . S
H351 C325 0.931 . S
H352 C332 0.932 . S
H353 C333 0.930 . S
H354 C334 0.929 . S
H355 C336 0.930 . S
H356 C338 0.932 . S
H357 C339 0.929 . S
H358 C340 0.928 . S
H359 C342 0.932 . S
C360 C361 1.264 . S
C360 C365 1.479 . S
C360 C370 1.465 . S
C361 C360 1.264 . S
C361 C363 1.339 . S
C361 H388 0.931 . S
C362 C363 1.395 . S
C362 C364 1.320 . S
C363 C361 1.339 . S
C363 C362 1.395 . S
C363 H389 0.929 . S
C364 C362 1.320 . S
C364 C365 1.405 . S
C364 H390 0.930 . S
C365 C360 1.479 . S
C365 C364 1.405 . S
C365 H391 0.931 . S
U366 O367 2.454 . S
U366 O368 2.458 . S
U366 C369 2.984 . S
U366 C370 2.847 . S
U366 C383 2.882 . S
U366 O384 2.441 . S
U366 O385 2.420 . S
U366 O386 2.455 . S
U366 O387 2.449 . S
O367 U366 2.454 . S
O367 C369 1.353 . S
O368 U366 2.458 . S
O368 C369 1.286 . S
C369 U366 2.984 . S
C369 O367 1.353 . S
C369 O368 1.286 . S
C369 C371 1.363 . S
C370 C360 1.465 . S
C370 U366 2.847 . S
C370 O384 1.249 . S
C370 O385 1.202 . S
C371 C369 1.363 . S
C371 C373 1.408 . S
C371 C376 1.342 . S
C372 C373 1.310 . S
C372 C375 1.461 . S
C372 H392 0.932 . S
C373 C371 1.408 . S
C373 C372 1.310 . S
C373 H393 0.930 . S
C374 C375 1.474 . S
C374 C376 1.285 . S
C374 H394 0.929 . S
C375 C372 1.461 . S
C375 C374 1.474 . S
C376 C371 1.342 . S
C376 C374 1.285 . S
C376 H395 0.930 . S
C377 C380 1.424 . S
C377 C382 1.245 . S
C377 C383 1.428 1_655 S
C378 C381 1.260 . S
C378 C382 1.477 . S
C378 H396 0.932 . S
C379 C380 1.384 . S
C379 C381 1.479 . S
C379 H397 0.929 . S
C380 C377 1.424 . S
C380 C379 1.384 . S
C380 H398 0.928 . S
C381 C378 1.260 . S
C381 C379 1.479 . S
C382 C377 1.245 . S
C382 C378 1.477 . S
C382 H399 0.932 . S
C383 U366 2.882 . S
C383 C377 1.428 1_455 S
C383 O386 1.301 . S
C383 O387 1.282 . S
O384 U366 2.441 . S
O384 C370 1.249 . S
O385 U366 2.420 . S
O385 C370 1.202 . S
O386 U366 2.455 . S
O386 C383 1.301 . S
O387 U366 2.449 . S
O387 C383 1.282 . S
H388 C361 0.931 . S
H389 C363 0.929 . S
H390 C364 0.930 . S
H391 C365 0.931 . S
H392 C372 0.932 . S
H393 C373 0.930 . S
H394 C374 0.929 . S
H395 C376 0.930 . S
H396 C378 0.932 . S
H397 C379 0.929 . S
H398 C380 0.928 . S
H399 C382 0.932 . S
C400 C401 1.264 . S
C400 C405 1.479 . S
C400 C410 1.465 . S
C401 C400 1.264 . S
C401 C403 1.339 . S
C401 H428 0.931 . S
C402 C403 1.395 . S
C402 C404 1.320 . S
C403 C401 1.339 . S
C403 C402 1.395 . S
C403 H429 0.929 . S
C404 C402 1.320 . S
C404 C405 1.405 . S
C404 H430 0.930 . S
C405 C400 1.479 . S
C405 C404 1.405 . S
C405 H431 0.931 . S
U406 O407 2.454 . S
U406 O408 2.458 . S
U406 C409 2.984 . S
U406 C410 2.847 . S
U406 C423 2.882 . S
U406 O424 2.441 . S
U406 O425 2.420 . S
U406 O426 2.455 . S
U406 O427 2.449 . S
O407 U406 2.454 . S
O407 C409 1.353 . S
O408 U406 2.458 . S
O408 C409 1.286 . S
C409 U406 2.984 . S
C409 O407 1.353 . S
C409 O408 1.286 . S
C409 C411 1.363 . S
C410 C400 1.465 . S
C410 U406 2.847 . S
C410 O424 1.249 . S
C410 O425 1.202 . S
C411 C409 1.363 . S
C411 C413 1.408 . S
C411 C416 1.342 . S
C412 C413 1.310 . S
C412 C415 1.461 . S
C412 H432 0.932 . S
C413 C411 1.408 . S
C413 C412 1.310 . S
C413 H433 0.930 . S
C414 C415 1.474 . S
C414 C416 1.285 . S
C414 H434 0.929 . S
C415 C412 1.461 . S
C415 C414 1.474 . S
C416 C411 1.342 . S
C416 C414 1.285 . S
C416 H435 0.930 . S
C417 C420 1.424 . S
C417 C422 1.245 . S
C417 C423 1.428 . S
C418 C421 1.260 . S
C418 C422 1.477 . S
C418 H436 0.932 . S
C419 C420 1.384 . S
C419 C421 1.479 . S
C419 H437 0.929 . S
C420 C417 1.424 . S
C420 C419 1.384 . S
C420 H438 0.928 . S
C421 C418 1.260 . S
C421 C419 1.479 . S
C422 C417 1.245 . S
C422 C418 1.477 . S
C422 H439 0.932 . S
C423 U406 2.882 . S
C423 C417 1.428 . S
C423 O426 1.301 . S
C423 O427 1.282 . S
O424 U406 2.441 . S
O424 C410 1.249 . S
O425 U406 2.420 . S
O425 C410 1.202 . S
O426 U406 2.455 . S
O426 C423 1.301 . S
O427 U406 2.449 . S
O427 C423 1.282 . S
H428 C401 0.931 . S
H429 C403 0.929 . S
H430 C404 0.930 . S
H431 C405 0.931 . S
H432 C412 0.932 . S
H433 C413 0.930 . S
H434 C414 0.929 . S
H435 C416 0.930 . S
H436 C418 0.932 . S
H437 C419 0.929 . S
H438 C420 0.928 . S
H439 C422 0.932 . S
C440 C441 1.264 . S
C440 C445 1.479 . S
C440 C450 1.465 . S
C441 C440 1.264 . S
C441 C443 1.339 . S
C441 H468 0.931 . S
C442 C443 1.395 . S
C442 C444 1.320 . S
C443 C441 1.339 . S
C443 C442 1.395 . S
C443 H469 0.929 . S
C444 C442 1.320 . S
C444 C445 1.405 . S
C444 H470 0.925 1_655 S
C445 C440 1.479 . S
C445 C444 1.405 . S
C445 H471 0.931 . S
U446 O447 2.454 . S
U446 O448 2.458 . S
U446 C449 2.984 . S
U446 C450 2.847 . S
U446 C463 2.882 . S
U446 O464 2.441 . S
U446 O465 2.420 . S
U446 O466 2.455 . S
U446 O467 2.449 . S
O447 U446 2.454 . S
O447 C449 1.353 . S
O448 U446 2.458 . S
O448 C449 1.286 . S
C449 U446 2.984 . S
C449 O447 1.353 . S
C449 O448 1.286 . S
C449 C451 1.363 . S
C450 C440 1.465 . S
C450 U446 2.847 . S
C450 O464 1.249 . S
C450 O465 1.202 . S
C451 C449 1.363 . S
C451 C453 1.408 . S
C451 C456 1.342 . S
C452 C453 1.310 . S
C452 C455 1.461 . S
C452 H472 0.932 . S
C453 C451 1.408 . S
C453 C452 1.310 . S
C453 H473 0.930 . S
C454 C455 1.473 1_455 S
C454 C456 1.284 1_455 S
C454 H474 0.932 . S
C455 C452 1.461 . S
C455 C454 1.473 1_655 S
C456 C451 1.342 . S
C456 C454 1.284 1_655 S
C456 H475 0.935 . S
C457 C460 1.424 . S
C457 C462 1.245 . S
C457 C463 1.428 . S
C458 C461 1.260 . S
C458 C462 1.477 . S
C458 H476 0.932 . S
C459 C460 1.384 . S
C459 C461 1.479 . S
C459 H477 0.929 . S
C460 C457 1.424 . S
C460 C459 1.384 . S
C460 H478 0.928 . S
C461 C458 1.260 . S
C461 C459 1.479 . S
C462 C457 1.245 . S
C462 C458 1.477 . S
C462 H479 0.932 . S
C463 U446 2.882 . S
C463 C457 1.428 . S
C463 O466 1.301 . S
C463 O467 1.282 . S
O464 U446 2.441 . S
O464 C450 1.249 . S
O465 U446 2.420 . S
O465 C450 1.202 . S
O466 U446 2.455 . S
O466 C463 1.301 . S
O467 U446 2.449 . S
O467 C463 1.282 . S
H468 C441 0.931 . S
H469 C443 0.929 . S
H470 C444 0.925 1_455 S
H471 C445 0.931 . S
H472 C452 0.932 . S
H473 C453 0.930 . S
H474 C454 0.932 . S
H475 C456 0.935 . S
H476 C458 0.932 . S
H477 C459 0.929 . S
H478 C460 0.928 . S
H479 C462 0.932 . S
C480 C481 1.264 . S
C480 C485 1.479 . S
C480 C490 1.465 . S
C481 C480 1.264 . S
C481 C483 1.339 . S
C481 H508 0.931 . S
C482 C483 1.395 . S
C482 C484 1.320 . S
C483 C481 1.339 . S
C483 C482 1.395 . S
C483 H509 0.929 . S
C484 C482 1.320 . S
C484 C485 1.405 . S
C484 H510 0.930 . S
C485 C480 1.479 . S
C485 C484 1.405 . S
C485 H511 0.931 . S
U486 O487 2.454 . S
U486 O488 2.458 . S
U486 C489 2.984 . S
U486 C490 2.847 . S
U486 C503 2.882 . S
U486 O504 2.441 . S
U486 O505 2.420 . S
U486 O506 2.455 . S
U486 O507 2.449 . S
O487 U486 2.454 . S
O487 C489 1.353 . S
O488 U486 2.458 . S
O488 C489 1.286 . S
C489 U486 2.984 . S
C489 O487 1.353 . S
C489 O488 1.286 . S
C489 C491 1.363 . S
C490 C480 1.465 . S
C490 U486 2.847 . S
C490 O504 1.249 . S
C490 O505 1.202 . S
C491 C489 1.363 . S
C491 C493 1.408 . S
C491 C496 1.342 . S
C492 C493 1.310 . S
C492 C495 1.461 . S
C492 H512 0.932 . S
C493 C491 1.408 . S
C493 C492 1.310 . S
C493 H513 0.930 . S
C494 C495 1.474 . S
C494 C496 1.285 . S
C494 H514 0.929 . S
C495 C492 1.461 . S
C495 C494 1.474 . S
C496 C491 1.342 . S
C496 C494 1.285 . S
C496 H515 0.930 . S
C497 C500 1.424 . S
C497 C502 1.245 . S
C497 C503 1.428 . S
C498 C501 1.260 . S
C498 C502 1.477 . S
C498 H516 0.932 . S
C499 C500 1.384 . S
C499 C501 1.479 . S
C499 H517 0.929 . S
C500 C497 1.424 . S
C500 C499 1.384 . S
C500 H518 0.928 . S
C501 C498 1.260 . S
C501 C499 1.479 . S
C502 C497 1.245 . S
C502 C498 1.477 . S
C502 H519 0.932 . S
C503 U486 2.882 . S
C503 C497 1.428 . S
C503 O506 1.301 . S
C503 O507 1.282 . S
O504 U486 2.441 . S
O504 C490 1.249 . S
O505 U486 2.420 . S
O505 C490 1.202 . S
O506 U486 2.455 . S
O506 C503 1.301 . S
O507 U486 2.449 . S
O507 C503 1.282 . S
H508 C481 0.931 . S
H509 C483 0.929 . S
H510 C484 0.930 . S
H511 C485 0.931 . S
H512 C492 0.932 . S
H513 C493 0.930 . S
H514 C494 0.929 . S
H515 C496 0.930 . S
H516 C498 0.932 . S
H517 C499 0.929 . S
H518 C500 0.928 . S
H519 C502 0.932 . S
C520 C521 1.264 . S
C520 C525 1.479 . S
C520 C530 1.465 . S
C521 C520 1.264 . S
C521 C523 1.339 . S
C521 H548 0.931 . S
C522 C523 1.395 . S
C522 C524 1.320 . S
C523 C521 1.339 . S
C523 C522 1.395 . S
C523 H549 0.929 . S
C524 C522 1.320 . S
C524 C525 1.405 . S
C524 H550 0.930 . S
C525 C520 1.479 . S
C525 C524 1.405 . S
C525 H551 0.931 . S
U526 O527 2.454 . S
U526 O528 2.458 . S
U526 C529 2.984 . S
U526 C530 2.847 . S
U526 C543 2.882 . S
U526 O544 2.441 . S
U526 O545 2.420 . S
U526 O546 2.455 . S
U526 O547 2.449 . S
O527 U526 2.454 . S
O527 C529 1.353 . S
O528 U526 2.458 . S
O528 C529 1.286 . S
C529 U526 2.984 . S
C529 O527 1.353 . S
C529 O528 1.286 . S
C529 C531 1.363 . S
C530 C520 1.465 . S
C530 U526 2.847 . S
C530 O544 1.249 . S
C530 O545 1.202 . S
C531 C529 1.363 . S
C531 C533 1.408 . S
C531 C536 1.342 . S
C532 C533 1.310 . S
C532 C535 1.461 . S
C532 H552 0.932 . S
C533 C531 1.408 . S
C533 C532 1.310 . S
C533 H553 0.930 . S
C534 C535 1.474 . S
C534 C536 1.285 . S
C534 H554 0.929 . S
C535 C532 1.461 . S
C535 C534 1.474 . S
C536 C531 1.342 . S
C536 C534 1.285 . S
C536 H555 0.930 . S
C537 C540 1.424 . S
C537 C542 1.245 . S
C537 C543 1.428 . S
C538 C541 1.260 . S
C538 C542 1.477 . S
C538 H556 0.932 . S
C539 C540 1.384 . S
C539 C541 1.479 . S
C539 H557 0.929 . S
C540 C537 1.424 . S
C540 C539 1.384 . S
C540 H558 0.928 . S
C541 C538 1.260 . S
C541 C539 1.479 . S
C542 C537 1.245 . S
C542 C538 1.477 . S
C542 H559 0.932 . S
C543 U526 2.882 . S
C543 C537 1.428 . S
C543 O546 1.301 . S
C543 O547 1.282 . S
O544 U526 2.441 . S
O544 C530 1.249 . S
O545 U526 2.420 . S
O545 C530 1.202 . S
O546 U526 2.455 . S
O546 C543 1.301 . S
O547 U526 2.449 . S
O547 C543 1.282 . S
H548 C521 0.931 . S
H549 C523 0.929 . S
H550 C524 0.930 . S
H551 C525 0.931 . S
H552 C532 0.932 . S
H553 C533 0.930 . S
H554 C534 0.929 . S
H555 C536 0.930 . S
H556 C538 0.932 . S
H557 C539 0.929 . S
H558 C540 0.928 . S
H559 C542 0.932 . S
C560 C561 1.264 . S
C560 C565 1.479 . S
C560 C570 1.465 . S
C561 C560 1.264 . S
C561 C563 1.339 . S
C561 H588 0.931 . S
C562 C563 1.395 . S
C562 C564 1.320 . S
C563 C561 1.339 . S
C563 C562 1.395 . S
C563 H589 0.929 . S
C564 C562 1.320 . S
C564 C565 1.405 . S
C564 H590 0.920 1_565 S
C565 C560 1.479 . S
C565 C564 1.405 . S
C565 H591 0.931 . S
U566 O567 2.454 . S
U566 O568 2.458 . S
U566 C569 2.984 . S
U566 C570 2.847 . S
U566 C583 2.882 . S
U566 O584 2.441 . S
U566 O585 2.420 . S
U566 O586 2.455 . S
U566 O587 2.449 . S
O567 U566 2.454 . S
O567 C569 1.353 . S
O568 U566 2.458 . S
O568 C569 1.286 . S
C569 U566 2.984 . S
C569 O567 1.353 . S
C569 O568 1.286 . S
C569 C571 1.363 . S
C570 C560 1.465 . S
C570 U566 2.847 . S
C570 O584 1.249 . S
C570 O585 1.202 . S
C571 C569 1.363 . S
C571 C573 1.408 . S
C571 C576 1.342 . S
C572 C573 1.310 . S
C572 C575 1.460 . S
C572 H592 0.932 . S
C573 C571 1.408 . S
C573 C572 1.310 . S
C573 H593 0.930 . S
C574 C575 1.475 1_545 S
C574 C576 1.286 1_545 S
C574 H594 0.930 . S
C575 C572 1.460 . S
C575 C574 1.475 1_565 S
C576 C571 1.342 . S
C576 C574 1.286 1_565 S
C576 H595 0.930 . S
C577 C580 1.424 . S
C577 C582 1.245 . S
C577 C583 1.428 . S
C578 C581 1.260 . S
C578 C582 1.477 . S
C578 H596 0.932 . S
C579 C580 1.384 . S
C579 C581 1.479 . S
C579 H597 0.929 . S
C580 C577 1.424 . S
C580 C579 1.384 . S
C580 H598 0.928 . S
C581 C578 1.260 . S
C581 C579 1.479 . S
C582 C577 1.245 . S
C582 C578 1.477 . S
C582 H599 0.932 . S
C583 U566 2.882 . S
C583 C577 1.428 . S
C583 O586 1.301 . S
C583 O587 1.282 . S
O584 U566 2.441 . S
O584 C570 1.249 . S
O585 U566 2.420 . S
O585 C570 1.202 . S
O586 U566 2.455 . S
O586 C583 1.301 . S
O587 U566 2.449 . S
O587 C583 1.282 . S
H588 C561 0.931 . S
H589 C563 0.929 . S
H590 C564 0.920 1_545 S
H591 C565 0.931 . S
H592 C572 0.932 . S
H593 C573 0.930 . S
H594 C574 0.930 . S
H595 C576 0.930 . S
H596 C578 0.932 . S
H597 C579 0.929 . S
H598 C580 0.928 . S
H599 C582 0.932 . S
C600 C601 1.264 . S
C600 C605 1.479 1_545 S
C600 C610 1.465 . S
C601 C600 1.264 . S
C601 C603 1.339 1_545 S
C601 H628 0.931 . S
C602 C603 1.395 . S
C602 C604 1.320 . S
C603 C601 1.339 1_565 S
C603 C602 1.395 . S
C603 H629 0.929 1_565 S
C604 C602 1.320 . S
C604 C605 1.405 . S
C604 H630 0.930 . S
C605 C600 1.479 1_565 S
C605 C604 1.405 . S
C605 H631 0.931 . S
U606 O607 2.454 1_545 S
U606 O608 2.458 . S
U606 C609 2.988 . S
U606 C610 2.847 . S
U606 C623 2.882 . S
U606 O624 2.441 . S
U606 O625 2.420 . S
U606 O626 2.455 . S
U606 O627 2.449 . S
O607 U606 2.454 1_565 S
O607 C609 1.350 1_565 S
O608 U606 2.458 . S
O608 C609 1.290 . S
C609 U606 2.988 . S
C609 O607 1.350 1_545 S
C609 O608 1.290 . S
C609 C611 1.361 1_545 S
C610 C600 1.465 . S
C610 U606 2.847 . S
C610 O624 1.249 . S
C610 O625 1.202 . S
C611 C609 1.361 1_565 S
C611 C613 1.408 . S
C611 C616 1.342 . S
C612 C613 1.310 . S
C612 C615 1.461 . S
C612 H632 0.932 . S
C613 C611 1.408 . S
C613 C612 1.310 . S
C613 H633 0.930 . S
C614 C615 1.474 . S
C614 C616 1.285 . S
C614 H634 0.929 . S
C615 C612 1.461 . S
C615 C614 1.474 . S
C616 C611 1.342 . S
C616 C614 1.285 . S
C616 H635 0.932 . S
C617 C620 1.424 . S
C617 C622 1.245 . S
C617 C623 1.428 . S
C618 C621 1.260 . S
C618 C622 1.477 . S
C618 H636 0.932 . S
C619 C620 1.384 . S
C619 C621 1.479 . S
C619 H637 0.929 . S
C620 C617 1.424 . S
C620 C619 1.384 . S
C620 H638 0.928 . S
C621 C618 1.260 . S
C621 C619 1.479 . S
C622 C617 1.245 . S
C622 C618 1.477 . S
C622 H639 0.932 . S
C623 U606 2.882 . S
C623 C617 1.428 . S
C623 O626 1.301 . S
C623 O627 1.282 . S
O624 U606 2.441 . S
O624 C610 1.249 . S
O625 U606 2.420 . S
O625 C610 1.202 . S
O626 U606 2.455 . S
O626 C623 1.301 . S
O627 U606 2.449 . S
O627 C623 1.282 . S
H628 C601 0.931 . S
H629 C603 0.929 1_545 S
H630 C604 0.930 . S
H631 C605 0.931 . S
H632 C612 0.932 . S
H633 C613 0.930 . S
H634 C614 0.929 . S
H635 C616 0.932 . S
H636 C618 0.932 . S
H637 C619 0.929 . S
H638 C620 0.928 . S
H639 C622 0.932 . S
C640 C641 1.264 . S
C640 C645 1.479 . S
C640 C650 1.465 . S
C641 C640 1.264 . S
C641 C643 1.339 . S
C641 H668 0.931 . S
C642 C643 1.395 . S
C642 C644 1.320 . S
C643 C641 1.339 . S
C643 C642 1.395 . S
C643 H669 0.929 . S
C644 C642 1.320 . S
C644 C645 1.405 . S
C644 H670 0.930 . S
C645 C640 1.479 . S
C645 C644 1.405 . S
C645 H671 0.931 . S
U646 O647 2.454 . S
U646 O648 2.458 . S
U646 C649 2.984 . S
U646 C650 2.847 . S
U646 C663 2.882 . S
U646 O664 2.441 . S
U646 O665 2.420 . S
U646 O666 2.455 . S
U646 O667 2.449 . S
O647 U646 2.454 . S
O647 C649 1.353 . S
O648 U646 2.458 . S
O648 C649 1.286 . S
C649 U646 2.984 . S
C649 O647 1.353 . S
C649 O648 1.286 . S
C649 C651 1.363 . S
C650 C640 1.465 . S
C650 U646 2.847 . S
C650 O664 1.249 . S
C650 O665 1.202 . S
C651 C649 1.363 . S
C651 C653 1.408 . S
C651 C656 1.342 . S
C652 C653 1.310 . S
C652 C655 1.461 . S
C652 H672 0.932 . S
C653 C651 1.408 . S
C653 C652 1.310 . S
C653 H673 0.930 . S
C654 C655 1.474 . S
C654 C656 1.285 . S
C654 H674 0.929 . S
C655 C652 1.461 . S
C655 C654 1.474 . S
C656 C651 1.342 . S
C656 C654 1.285 . S
C656 H675 0.930 . S
C657 C660 1.424 . S
C657 C662 1.245 . S
C657 C663 1.428 . S
C658 C661 1.260 . S
C658 C662 1.477 . S
C658 H676 0.932 . S
C659 C660 1.384 . S
C659 C661 1.479 . S
C659 H677 0.929 . S
C660 C657 1.424 . S
C660 C659 1.384 . S
C660 H678 0.928 . S
C661 C658 1.260 . S
C661 C659 1.479 . S
C662 C657 1.245 . S
C662 C658 1.477 . S
C662 H679 0.932 . S
C663 U646 2.882 . S
C663 C657 1.428 . S
C663 O666 1.301 . S
C663 O667 1.282 . S
O664 U646 2.441 . S
O664 C650 1.249 . S
O665 U646 2.420 . S
O665 C650 1.202 . S
O666 U646 2.455 . S
O666 C663 1.301 . S
O667 U646 2.449 . S
O667 C663 1.282 . S
H668 C641 0.931 . S
H669 C643 0.929 . S
H670 C644 0.930 . S
H671 C645 0.931 . S
H672 C652 0.932 . S
H673 C653 0.930 . S
H674 C654 0.929 . S
H675 C656 0.930 . S
H676 C658 0.932 . S
H677 C659 0.929 . S
H678 C660 0.928 . S
H679 C662 0.932 . S
C680 C681 1.264 . S
C680 C685 1.479 1_554 S
C680 C690 1.465 . S
C681 C680 1.264 . S
C681 C683 1.339 1_554 S
C681 H708 0.931 . S
C682 C683 1.395 . S
C682 C684 1.320 . S
C683 C681 1.339 1_556 S
C683 C682 1.395 . S
C683 H709 0.929 1_556 S
C684 C682 1.320 . S
C684 C685 1.405 . S
C684 H710 0.930 . S
C685 C680 1.479 1_556 S
C685 C684 1.405 . S
C685 H711 0.931 . S
U686 O687 2.454 1_554 S
U686 O688 2.458 . S
U686 C689 2.988 . S
U686 C690 2.847 . S
U686 C703 2.882 . S
U686 O704 2.441 . S
U686 O705 2.420 . S
U686 O706 2.455 . S
U686 O707 2.449 . S
O687 U686 2.454 1_556 S
O687 C689 1.350 1_556 S
O688 U686 2.458 . S
O688 C689 1.290 . S
C689 U686 2.988 . S
C689 O687 1.350 1_554 S
C689 O688 1.290 . S
C689 C691 1.361 1_554 S
C690 C680 1.465 . S
C690 U686 2.847 . S
C690 O704 1.249 . S
C690 O705 1.202 . S
C691 C689 1.361 1_556 S
C691 C693 1.408 . S
C691 C696 1.342 . S
C692 C693 1.310 . S
C692 C695 1.461 . S
C692 H712 0.932 . S
C693 C691 1.408 . S
C693 C692 1.310 . S
C693 H713 0.930 . S
C694 C695 1.474 . S
C694 C696 1.285 . S
C694 H714 0.929 . S
C695 C692 1.461 . S
C695 C694 1.474 . S
C696 C691 1.342 . S
C696 C694 1.285 . S
C696 H715 0.932 . S
C697 C700 1.424 . S
C697 C702 1.245 . S
C697 C703 1.428 . S
C698 C701 1.260 . S
C698 C702 1.477 . S
C698 H716 0.932 . S
C699 C700 1.384 . S
C699 C701 1.479 . S
C699 H717 0.929 . S
C700 C697 1.424 . S
C700 C699 1.384 . S
C700 H718 0.928 . S
C701 C698 1.260 . S
C701 C699 1.479 . S
C702 C697 1.245 . S
C702 C698 1.477 . S
C702 H719 0.932 . S
C703 U686 2.882 . S
C703 C697 1.428 . S
C703 O706 1.301 . S
C703 O707 1.282 . S
O704 U686 2.441 . S
O704 C690 1.249 . S
O705 U686 2.420 . S
O705 C690 1.202 . S
O706 U686 2.455 . S
O706 C703 1.301 . S
O707 U686 2.449 . S
O707 C703 1.282 . S
H708 C681 0.931 . S
H709 C683 0.929 1_554 S
H710 C684 0.930 . S
H711 C685 0.931 . S
H712 C692 0.932 . S
H713 C693 0.930 . S
H714 C694 0.929 . S
H715 C696 0.932 . S
H716 C698 0.932 . S
H717 C699 0.929 . S
H718 C700 0.928 . S
H719 C702 0.932 . S
C720 C721 1.264 . S
C720 C725 1.479 . S
C720 C730 1.465 . S
C721 C720 1.264 . S
C721 C723 1.339 . S
C721 H748 0.931 . S
C722 C723 1.395 . S
C722 C724 1.320 . S
C723 C721 1.339 . S
C723 C722 1.395 . S
C723 H749 0.929 . S
C724 C722 1.320 . S
C724 C725 1.405 . S
C724 H750 0.930 . S
C725 C720 1.479 . S
C725 C724 1.405 . S
C725 H751 0.931 . S
U726 O727 2.454 . S
U726 O728 2.458 . S
U726 C729 2.984 . S
U726 C730 2.847 . S
U726 C743 2.882 . S
U726 O744 2.441 . S
U726 O745 2.420 . S
U726 O746 2.455 . S
U726 O747 2.449 . S
O727 U726 2.454 . S
O727 C729 1.353 . S
O728 U726 2.458 . S
O728 C729 1.286 . S
C729 U726 2.984 . S
C729 O727 1.353 . S
C729 O728 1.286 . S
C729 C731 1.363 . S
C730 C720 1.465 . S
C730 U726 2.847 . S
C730 O744 1.249 . S
C730 O745 1.202 . S
C731 C729 1.363 . S
C731 C733 1.408 . S
C731 C736 1.342 . S
C732 C733 1.310 . S
C732 C735 1.461 . S
C732 H752 0.932 . S
C733 C731 1.408 . S
C733 C732 1.310 . S
C733 H753 0.930 . S
C734 C735 1.474 . S
C734 C736 1.285 . S
C734 H754 0.929 . S
C735 C732 1.461 . S
C735 C734 1.474 . S
C736 C731 1.342 . S
C736 C734 1.285 . S
C736 H755 0.930 . S
C737 C740 1.424 . S
C737 C742 1.245 . S
C737 C743 1.428 . S
C738 C741 1.260 . S
C738 C742 1.477 . S
C738 H756 0.932 . S
C739 C740 1.384 . S
C739 C741 1.479 . S
C739 H757 0.929 . S
C740 C737 1.424 . S
C740 C739 1.384 . S
C740 H758 0.928 . S
C741 C738 1.260 . S
C741 C739 1.479 . S
C742 C737 1.245 . S
C742 C738 1.477 . S
C742 H759 0.932 . S
C743 U726 2.882 . S
C743 C737 1.428 . S
C743 O746 1.301 . S
C743 O747 1.282 . S
O744 U726 2.441 . S
O744 C730 1.249 . S
O745 U726 2.420 . S
O745 C730 1.202 . S
O746 U726 2.455 . S
O746 C743 1.301 . S
O747 U726 2.449 . S
O747 C743 1.282 . S
H748 C721 0.931 . S
H749 C723 0.929 . S
H750 C724 0.930 . S
H751 C725 0.931 . S
H752 C732 0.932 . S
H753 C733 0.930 . S
H754 C734 0.929 . S
H755 C736 0.930 . S
H756 C738 0.932 . S
H757 C739 0.929 . S
H758 C740 0.928 . S
H759 C742 0.932 . S
C760 C761 1.264 . S
C760 C765 1.479 . S
C760 C770 1.465 . S
C761 C760 1.264 . S
C761 C763 1.339 . S
C761 H788 0.931 . S
C762 C763 1.395 . S
C762 C764 1.320 . S
C763 C761 1.339 . S
C763 C762 1.395 . S
C763 H789 0.929 . S
C764 C762 1.320 . S
C764 C765 1.405 . S
C764 H790 0.920 1_556 S
C765 C760 1.479 . S
C765 C764 1.405 . S
C765 H791 0.931 . S
U766 O767 2.454 . S
U766 O768 2.458 . S
U766 C769 2.984 . S
U766 C770 2.847 . S
U766 C783 2.882 . S
U766 O784 2.441 . S
U766 O785 2.420 . S
U766 O786 2.455 . S
U766 O787 2.449 . S
O767 U766 2.454 . S
O767 C769 1.353 . S
O768 U766 2.458 . S
O768 C769 1.286 . S
C769 U766 2.984 . S
C769 O767 1.353 . S
C769 O768 1.286 . S
C769 C771 1.363 . S
C770 C760 1.465 . S
C770 U766 2.847 . S
C770 O784 1.249 . S
C770 O785 1.202 . S
C771 C769 1.363 . S
C771 C773 1.408 . S
C771 C776 1.342 . S
C772 C773 1.310 . S
C772 C775 1.460 . S
C772 H792 0.932 . S
C773 C771 1.408 . S
C773 C772 1.310 . S
C773 H793 0.930 . S
C774 C775 1.475 1_554 S
C774 C776 1.286 1_554 S
C774 H794 0.930 . S
C775 C772 1.460 . S
C775 C774 1.475 1_556 S
C776 C771 1.342 . S
C776 C774 1.286 1_556 S
C776 H795 0.930 . S
C777 C780 1.424 . S
C777 C782 1.245 . S
C777 C783 1.428 . S
C778 C781 1.260 . S
C778 C782 1.477 . S
C778 H796 0.932 . S
C779 C780 1.384 . S
C779 C781 1.479 . S
C779 H797 0.929 . S
C780 C777 1.424 . S
C780 C779 1.384 . S
C780 H798 0.928 . S
C781 C778 1.260 . S
C781 C779 1.479 . S
C782 C777 1.245 . S
C782 C778 1.477 . S
C782 H799 0.932 . S
C783 U766 2.882 . S
C783 C777 1.428 . S
C783 O786 1.301 . S
C783 O787 1.282 . S
O784 U766 2.441 . S
O784 C770 1.249 . S
O785 U766 2.420 . S
O785 C770 1.202 . S
O786 U766 2.455 . S
O786 C783 1.301 . S
O787 U766 2.449 . S
O787 C783 1.282 . S
H788 C761 0.931 . S
H789 C763 0.929 . S
H790 C764 0.920 1_554 S
H791 C765 0.931 . S
H792 C772 0.932 . S
H793 C773 0.930 . S
H794 C774 0.930 . S
H795 C776 0.930 . S
H796 C778 0.932 . S
H797 C779 0.929 . S
H798 C780 0.928 . S
H799 C782 0.932 . S
C800 C801 1.264 . S
C800 C805 1.479 . S
C800 C810 1.465 . S
C801 C800 1.264 . S
C801 C803 1.339 . S
C801 H828 0.931 . S
C802 C803 1.395 . S
C802 C804 1.320 . S
C803 C801 1.339 . S
C803 C802 1.395 . S
C803 H829 0.929 . S
C804 C802 1.320 . S
C804 C805 1.405 . S
C804 H830 0.930 . S
C805 C800 1.479 . S
C805 C804 1.405 . S
C805 H831 0.931 . S
U806 O807 2.454 . S
U806 O808 2.458 . S
U806 C809 2.984 . S
U806 C810 2.847 . S
U806 C823 2.882 . S
U806 O824 2.441 . S
U806 O825 2.420 . S
U806 O826 2.455 . S
U806 O827 2.449 . S
O807 U806 2.454 . S
O807 C809 1.353 . S
O808 U806 2.458 . S
O808 C809 1.286 . S
C809 U806 2.984 . S
C809 O807 1.353 . S
C809 O808 1.286 . S
C809 C811 1.363 . S
C810 C800 1.465 . S
C810 U806 2.847 . S
C810 O824 1.249 . S
C810 O825 1.202 . S
C811 C809 1.363 . S
C811 C813 1.408 . S
C811 C816 1.342 . S
C812 C813 1.310 . S
C812 C815 1.461 . S
C812 H832 0.932 . S
C813 C811 1.408 . S
C813 C812 1.310 . S
C813 H833 0.930 . S
C814 C815 1.474 . S
C814 C816 1.285 . S
C814 H834 0.929 . S
C815 C812 1.461 . S
C815 C814 1.474 . S
C816 C811 1.342 . S
C816 C814 1.285 . S
C816 H835 0.930 . S
C817 C820 1.424 . S
C817 C822 1.245 . S
C817 C823 1.428 . S
C818 C821 1.260 . S
C818 C822 1.477 . S
C818 H836 0.932 . S
C819 C820 1.384 . S
C819 C821 1.479 . S
C819 H837 0.929 . S
C820 C817 1.424 . S
C820 C819 1.384 . S
C820 H838 0.928 . S
C821 C818 1.260 . S
C821 C819 1.479 . S
C822 C817 1.245 . S
C822 C818 1.477 . S
C822 H839 0.932 . S
C823 U806 2.882 . S
C823 C817 1.428 . S
C823 O826 1.301 . S
C823 O827 1.282 . S
O824 U806 2.441 . S
O824 C810 1.249 . S
O825 U806 2.420 . S
O825 C810 1.202 . S
O826 U806 2.455 . S
O826 C823 1.301 . S
O827 U806 2.449 . S
O827 C823 1.282 . S
H828 C801 0.931 . S
H829 C803 0.929 . S
H830 C804 0.930 . S
H831 C805 0.931 . S
H832 C812 0.932 . S
H833 C813 0.930 . S
H834 C814 0.929 . S
H835 C816 0.930 . S
H836 C818 0.932 . S
H837 C819 0.929 . S
H838 C820 0.928 . S
H839 C822 0.932 . S
C840 C841 1.264 . S
C840 C845 1.479 1_455 S
C840 C850 1.465 . S
C841 C840 1.264 . S
C841 C843 1.339 1_455 S
C841 H868 0.931 . S
C842 C843 1.395 . S
C842 C844 1.320 . S
C843 C841 1.339 1_655 S
C843 C842 1.395 . S
C843 H869 0.929 1_655 S
C844 C842 1.320 . S
C844 C845 1.405 . S
C844 H870 0.930 . S
C845 C840 1.479 1_655 S
C845 C844 1.405 . S
C845 H871 0.931 . S
U846 O847 2.454 1_455 S
U846 O848 2.458 . S
U846 C849 2.988 . S
U846 C850 2.847 . S
U846 C863 2.882 . S
U846 O864 2.441 . S
U846 O865 2.420 . S
U846 O866 2.455 . S
U846 O867 2.449 . S
O847 U846 2.454 1_655 S
O847 C849 1.350 1_655 S
O848 U846 2.458 . S
O848 C849 1.290 . S
C849 U846 2.988 . S
C849 O847 1.350 1_455 S
C849 O848 1.290 . S
C849 C851 1.361 1_455 S
C850 C840 1.465 . S
C850 U846 2.847 . S
C850 O864 1.249 . S
C850 O865 1.202 . S
C851 C849 1.361 1_655 S
C851 C853 1.408 . S
C851 C856 1.342 . S
C852 C853 1.310 . S
C852 C855 1.461 . S
C852 H872 0.932 . S
C853 C851 1.408 . S
C853 C852 1.310 . S
C853 H873 0.930 . S
C854 C855 1.474 . S
C854 C856 1.285 . S
C854 H874 0.929 . S
C855 C852 1.461 . S
C855 C854 1.474 . S
C856 C851 1.342 . S
C856 C854 1.285 . S
C856 H875 0.932 . S
C857 C860 1.424 . S
C857 C862 1.245 . S
C857 C863 1.428 . S
C858 C861 1.260 . S
C858 C862 1.477 . S
C858 H876 0.932 . S
C859 C860 1.384 . S
C859 C861 1.479 . S
C859 H877 0.929 . S
C860 C857 1.424 . S
C860 C859 1.384 . S
C860 H878 0.928 . S
C861 C858 1.260 . S
C861 C859 1.479 . S
C862 C857 1.245 . S
C862 C858 1.477 . S
C862 H879 0.932 . S
C863 U846 2.882 . S
C863 C857 1.428 . S
C863 O866 1.301 . S
C863 O867 1.282 . S
O864 U846 2.441 . S
O864 C850 1.249 . S
O865 U846 2.420 . S
O865 C850 1.202 . S
O866 U846 2.455 . S
O866 C863 1.301 . S
O867 U846 2.449 . S
O867 C863 1.282 . S
H868 C841 0.931 . S
H869 C843 0.929 1_455 S
H870 C844 0.930 . S
H871 C845 0.931 . S
H872 C852 0.932 . S
H873 C853 0.930 . S
H874 C854 0.929 . S
H875 C856 0.932 . S
H876 C858 0.932 . S
H877 C859 0.929 . S
H878 C860 0.928 . S
H879 C862 0.932 . S
C880 C881 1.264 . S
C880 C885 1.479 . S
C880 C890 1.465 . S
C881 C880 1.264 . S
C881 C883 1.339 . S
C881 H908 0.931 . S
C882 C883 1.395 . S
C882 C884 1.320 . S
C883 C881 1.339 . S
C883 C882 1.395 . S
C883 H909 0.929 . S
C884 C882 1.320 . S
C884 C885 1.405 . S
C884 H910 0.930 . S
C885 C880 1.479 . S
C885 C884 1.405 . S
C885 H911 0.931 . S
U886 O887 2.454 . S
U886 O888 2.458 . S
U886 C889 2.984 . S
U886 C890 2.847 . S
U886 C903 2.882 . S
U886 O904 2.441 . S
U886 O905 2.420 . S
U886 O906 2.455 . S
U886 O907 2.449 . S
O887 U886 2.454 . S
O887 C889 1.353 . S
O888 U886 2.458 . S
O888 C889 1.286 . S
C889 U886 2.984 . S
C889 O887 1.353 . S
C889 O888 1.286 . S
C889 C891 1.363 . S
C890 C880 1.465 . S
C890 U886 2.847 . S
C890 O904 1.249 . S
C890 O905 1.202 . S
C891 C889 1.363 . S
C891 C893 1.408 . S
C891 C896 1.342 . S
C892 C893 1.310 . S
C892 C895 1.461 . S
C892 H912 0.932 . S
C893 C891 1.408 . S
C893 C892 1.310 . S
C893 H913 0.930 . S
C894 C895 1.474 . S
C894 C896 1.285 . S
C894 H914 0.929 . S
C895 C892 1.461 . S
C895 C894 1.474 . S
C896 C891 1.342 . S
C896 C894 1.285 . S
C896 H915 0.930 . S
C897 C900 1.424 . S
C897 C902 1.245 . S
C897 C903 1.428 . S
C898 C901 1.260 . S
C898 C902 1.477 . S
C898 H916 0.932 . S
C899 C900 1.384 . S
C899 C901 1.479 . S
C899 H917 0.929 . S
C900 C897 1.424 . S
C900 C899 1.384 . S
C900 H918 0.928 . S
C901 C898 1.260 . S
C901 C899 1.479 . S
C902 C897 1.245 . S
C902 C898 1.477 . S
C902 H919 0.932 . S
C903 U886 2.882 . S
C903 C897 1.428 . S
C903 O906 1.301 . S
C903 O907 1.282 . S
O904 U886 2.441 . S
O904 C890 1.249 . S
O905 U886 2.420 . S
O905 C890 1.202 . S
O906 U886 2.455 . S
O906 C903 1.301 . S
O907 U886 2.449 . S
O907 C903 1.282 . S
H908 C881 0.931 . S
H909 C883 0.929 . S
H910 C884 0.930 . S
H911 C885 0.931 . S
H912 C892 0.932 . S
H913 C893 0.930 . S
H914 C894 0.929 . S
H915 C896 0.930 . S
H916 C898 0.932 . S
H917 C899 0.929 . S
H918 C900 0.928 . S
H919 C902 0.932 . S
C920 C921 1.264 . S
C920 C925 1.479 . S
C920 C930 1.465 . S
C921 C920 1.264 . S
C921 C923 1.339 . S
C921 H948 0.931 . S
C922 C923 1.395 . S
C922 C924 1.320 . S
C923 C921 1.339 . S
C923 C922 1.395 . S
C923 H949 0.929 . S
C924 C922 1.320 . S
C924 C925 1.405 . S
C924 H950 0.920 1_655 S
C925 C920 1.479 . S
C925 C924 1.405 . S
C925 H951 0.931 . S
U926 O927 2.454 . S
U926 O928 2.458 . S
U926 C929 2.984 . S
U926 C930 2.847 . S
U926 C943 2.882 . S
U926 O944 2.441 . S
U926 O945 2.420 . S
U926 O946 2.455 . S
U926 O947 2.449 . S
O927 U926 2.454 . S
O927 C929 1.353 . S
O928 U926 2.458 . S
O928 C929 1.286 . S
C929 U926 2.984 . S
C929 O927 1.353 . S
C929 O928 1.286 . S
C929 C931 1.363 . S
C930 C920 1.465 . S
C930 U926 2.847 . S
C930 O944 1.249 . S
C930 O945 1.202 . S
C931 C929 1.363 . S
C931 C933 1.408 . S
C931 C936 1.342 . S
C932 C933 1.310 . S
C932 C935 1.460 . S
C932 H952 0.932 . S
C933 C931 1.408 . S
C933 C932 1.310 . S
C933 H953 0.930 . S
C934 C935 1.475 1_455 S
C934 C936 1.286 1_455 S
C934 H954 0.930 . S
C935 C932 1.460 . S
C935 C934 1.475 1_655 S
C936 C931 1.342 . S
C936 C934 1.286 1_655 S
C936 H955 0.930 . S
C937 C940 1.424 . S
C937 C942 1.245 . S
C937 C943 1.428 . S
C938 C941 1.260 . S
C938 C942 1.477 . S
C938 H956 0.932 . S
C939 C940 1.384 . S
C939 C941 1.479 . S
C939 H957 0.929 . S
C940 C937 1.424 . S
C940 C939 1.384 . S
C940 H958 0.928 . S
C941 C938 1.260 . S
C941 C939 1.479 . S
C942 C937 1.245 . S
C942 C938 1.477 . S
C942 H959 0.932 . S
C943 U926 2.882 . S
C943 C937 1.428 . S
C943 O946 1.301 . S
C943 O947 1.282 . S
O944 U926 2.441 . S
O944 C930 1.249 . S
O945 U926 2.420 . S
O945 C930 1.202 . S
O946 U926 2.455 . S
O946 C943 1.301 . S
O947 U926 2.449 . S
O947 C943 1.282 . S
H948 C921 0.931 . S
H949 C923 0.929 . S
H950 C924 0.920 1_455 S
H951 C925 0.931 . S
H952 C932 0.932 . S
H953 C933 0.930 . S
H954 C934 0.930 . S
H955 C936 0.930 . S
H956 C938 0.932 . S
H957 C939 0.929 . S
H958 C940 0.928 . S
H959 C942 0.932 . S
H960 C963 0.929 . S
H961 C966 0.929 . S
H962 C968 0.930 . S
C963 H960 0.929 . S
C963 C964 1.398 . S
C963 C965 1.396 . S
C964 C963 1.398 . S
C964 C968 1.407 . S
C965 C963 1.396 . S
C965 C966 1.394 . S
C966 H961 0.929 . S
C966 C965 1.394 . S
C966 C967 1.382 . S
C967 C966 1.382 . S
C967 C968 1.392 . S
C967 N969 1.420 . S
C968 H962 0.930 . S
C968 C964 1.407 . S
C968 C967 1.392 . S
N969 C967 1.420 . S
N969 C970 1.244 . S
C970 N969 1.244 . S
H971 C974 0.929 . S
H972 C977 0.929 . S
H973 C979 0.930 . S
C974 H971 0.929 . S
C974 C975 1.398 1_556 S
C974 C976 1.396 . S
C975 C974 1.398 1_554 S
C975 C979 1.407 . S
C976 C974 1.396 . S
C976 C977 1.394 . S
C977 H972 0.929 . S
C977 C976 1.394 . S
C977 C978 1.382 1_556 S
C978 C977 1.382 1_554 S
C978 C979 1.392 . S
C978 N980 1.420 . S
C979 H973 0.930 . S
C979 C975 1.407 . S
C979 C978 1.392 . S
N980 C978 1.420 . S
N980 C981 1.244 . S
C981 N980 1.244 . S
H982 C985 0.929 . S
H983 C988 0.929 . S
H984 C990 0.930 . S
C985 H982 0.929 . S
C985 C986 1.398 . S
C985 C987 1.396 . S
C986 C985 1.398 . S
C986 C990 1.407 . S
C987 C985 1.396 . S
C987 C988 1.394 1_565 S
C988 H983 0.929 . S
C988 C987 1.394 1_545 S
C988 C989 1.382 . S
C989 C988 1.382 . S
C989 C990 1.392 1_545 S
C989 N991 1.420 . S
C990 H984 0.930 . S
C990 C986 1.407 . S
C990 C989 1.392 1_565 S
N991 C989 1.420 . S
N991 C992 1.244 . S
C992 N991 1.244 . S
H993 C996 0.929 . S
H994 C999 0.929 . S
H995 C1001 0.930 . S
C996 H993 0.929 . S
C996 C997 1.398 1_554 S
C996 C998 1.396 . S
C997 C996 1.398 1_556 S
C997 C1001 1.407 . S
C998 C996 1.396 . S
C998 C999 1.394 . S
C999 H994 0.929 . S
C999 C998 1.394 . S
C999 C1000 1.382 1_554 S
C1000 C999 1.382 1_556 S
C1000 C1001 1.392 . S
C1000 N1002 1.420 . S
C1001 H995 0.930 . S
C1001 C997 1.407 . S
C1001 C1000 1.392 . S
N1002 C1000 1.420 . S
N1002 C1003 1.244 . S
C1003 N1002 1.244 . S
H1004 C1007 0.929 . S
H1005 C1010 0.929 . S
H1006 C1012 0.930 . S
C1007 H1004 0.929 . S
C1007 C1008 1.398 . S
C1007 C1009 1.396 . S
C1008 C1007 1.398 . S
C1008 C1012 1.407 . S
C1009 C1007 1.396 . S
C1009 C1010 1.394 . S
C1010 H1005 0.929 . S
C1010 C1009 1.394 . S
C1010 C1011 1.382 . S
C1011 C1010 1.382 . S
C1011 C1012 1.392 . S
C1011 N1013 1.420 . S
C1012 H1006 0.930 . S
C1012 C1008 1.407 . S
C1012 C1011 1.392 . S
N1013 C1011 1.420 . S
N1013 C1014 1.244 . S
C1014 N1013 1.244 . S
H1015 C1018 0.929 . S
H1016 C1021 0.929 . S
H1017 C1023 0.930 . S
C1018 H1015 0.929 . S
C1018 C1019 1.398 1_455 S
C1018 C1020 1.396 . S
C1019 C1018 1.398 1_655 S
C1019 C1023 1.407 . S
C1020 C1018 1.396 . S
C1020 C1021 1.394 . S
C1021 H1016 0.929 . S
C1021 C1020 1.394 . S
C1021 C1022 1.382 1_455 S
C1022 C1021 1.382 1_655 S
C1022 C1023 1.392 . S
C1022 N1024 1.420 . S
C1023 H1017 0.930 . S
C1023 C1019 1.407 . S
C1023 C1022 1.392 . S
N1024 C1022 1.420 . S
N1024 C1025 1.244 . S
C1025 N1024 1.244 . S
H1026 C1029 0.929 . S
H1027 C1032 0.929 . S
H1028 C1034 0.930 . S
C1029 H1026 0.929 . S
C1029 C1030 1.398 1_655 S
C1029 C1031 1.396 . S
C1030 C1029 1.398 1_455 S
C1030 C1034 1.407 . S
C1031 C1029 1.396 . S
C1031 C1032 1.394 . S
C1032 H1027 0.929 . S
C1032 C1031 1.394 . S
C1032 C1033 1.382 1_655 S
C1033 C1032 1.382 1_455 S
C1033 C1034 1.392 . S
C1033 N1035 1.420 . S
C1034 H1028 0.930 . S
C1034 C1030 1.407 . S
C1034 C1033 1.392 . S
N1035 C1033 1.420 . S
N1035 C1036 1.244 . S
C1036 N1035 1.244 . S
H1037 C1040 0.929 . S
H1038 C1043 0.929 . S
H1039 C1045 0.930 . S
C1040 H1037 0.929 . S
C1040 C1041 1.398 . S
C1040 C1042 1.396 . S
C1041 C1040 1.398 . S
C1041 C1045 1.407 . S
C1042 C1040 1.396 . S
C1042 C1043 1.394 1_556 S
C1043 H1038 0.929 . S
C1043 C1042 1.394 1_554 S
C1043 C1044 1.382 . S
C1044 C1043 1.382 . S
C1044 C1045 1.392 1_554 S
C1044 N1046 1.420 . S
C1045 H1039 0.930 . S
C1045 C1041 1.407 . S
C1045 C1044 1.392 1_556 S
N1046 C1044 1.420 . S
N1046 C1047 1.244 . S
C1047 N1046 1.244 . S
H1048 C1051 0.929 . S
H1049 C1054 0.929 . S
H1050 C1056 0.930 . S
C1051 H1048 0.929 . S
C1051 C1052 1.398 . S
C1051 C1053 1.396 . S
C1052 C1051 1.398 . S
C1052 C1056 1.407 . S
C1053 C1051 1.396 . S
C1053 C1054 1.394 . S
C1054 H1049 0.929 . S
C1054 C1053 1.394 . S
C1054 C1055 1.382 . S
C1055 C1054 1.382 . S
C1055 C1056 1.392 . S
C1055 N1057 1.420 . S
C1056 H1050 0.930 . S
C1056 C1052 1.407 . S
C1056 C1055 1.392 . S
N1057 C1055 1.420 . S
N1057 C1058 1.244 . S
C1058 N1057 1.244 . S
H1059 C1062 0.929 . S
H1060 C1065 0.929 . S
H1061 C1067 0.930 . S
C1062 H1059 0.929 . S
C1062 C1063 1.398 1_545 S
C1062 C1064 1.396 . S
C1063 C1062 1.398 1_565 S
C1063 C1067 1.407 . S
C1064 C1062 1.396 . S
C1064 C1065 1.394 . S
C1065 H1060 0.929 . S
C1065 C1064 1.394 . S
C1065 C1066 1.382 1_545 S
C1066 C1065 1.382 1_565 S
C1066 C1067 1.392 . S
C1066 N1068 1.420 . S
C1067 H1061 0.930 . S
C1067 C1063 1.407 . S
C1067 C1066 1.392 . S
N1068 C1066 1.420 . S
N1068 C1069 1.244 . S
C1069 N1068 1.244 . S
H1070 C1073 0.929 . S
H1071 C1076 0.929 . S
H1072 C1078 0.930 . S
C1073 H1070 0.929 . S
C1073 C1074 1.398 1_565 S
C1073 C1075 1.396 . S
C1074 C1073 1.398 1_545 S
C1074 C1078 1.407 . S
C1075 C1073 1.396 . S
C1075 C1076 1.394 . S
C1076 H1071 0.929 . S
C1076 C1075 1.394 . S
C1076 C1077 1.382 1_565 S
C1077 C1076 1.382 1_545 S
C1077 C1078 1.392 . S
C1077 N1079 1.420 . S
C1078 H1072 0.930 . S
C1078 C1074 1.407 . S
C1078 C1077 1.392 . S
N1079 C1077 1.420 . S
N1079 C1080 1.244 . S
C1080 N1079 1.244 . S
H1081 C1084 0.929 . S
H1082 C1087 0.929 . S
H1083 C1089 0.930 . S
C1084 H1081 0.929 . S
C1084 C1085 1.398 . S
C1084 C1086 1.396 . S
C1085 C1084 1.398 . S
C1085 C1089 1.407 . S
C1086 C1084 1.396 . S
C1086 C1087 1.394 1_655 S
C1087 H1082 0.929 . S
C1087 C1086 1.394 1_455 S
C1087 C1088 1.382 . S
C1088 C1087 1.382 . S
C1088 C1089 1.392 1_455 S
C1088 N1090 1.420 . S
C1089 H1083 0.930 . S
C1089 C1085 1.407 . S
C1089 C1088 1.392 1_655 S
N1090 C1088 1.420 . S
N1090 C1091 1.244 . S
C1091 N1090 1.244 . S
H1092 C1095 0.929 . S
H1093 C1098 0.929 . S
H1094 C1100 0.930 . S
C1095 H1092 0.929 . S
C1095 C1096 1.398 . S
C1095 C1097 1.396 . S
C1096 C1095 1.398 . S
C1096 C1100 1.407 . S
C1097 C1095 1.396 . S
C1097 C1098 1.394 . S
C1098 H1093 0.929 . S
C1098 C1097 1.394 . S
C1098 C1099 1.382 . S
C1099 C1098 1.382 . S
C1099 C1100 1.392 . S
C1099 N1101 1.420 . S
C1100 H1094 0.930 . S
C1100 C1096 1.407 . S
C1100 C1099 1.392 . S
N1101 C1099 1.420 . S
N1101 C1102 1.244 . S
C1102 N1101 1.244 . S
H1103 C1106 0.929 . S
H1104 C1109 0.929 . S
H1105 C1111 0.930 . S
C1106 H1103 0.929 . S
C1106 C1107 1.398 1_554 S
C1106 C1108 1.396 . S
C1107 C1106 1.398 1_556 S
C1107 C1111 1.407 . S
C1108 C1106 1.396 . S
C1108 C1109 1.394 . S
C1109 H1104 0.929 . S
C1109 C1108 1.394 . S
C1109 C1110 1.382 1_554 S
C1110 C1109 1.382 1_556 S
C1110 C1111 1.392 . S
C1110 N1112 1.420 . S
C1111 H1105 0.930 . S
C1111 C1107 1.407 . S
C1111 C1110 1.392 . S
N1112 C1110 1.420 . S
N1112 C1113 1.244 . S
C1113 N1112 1.244 . S
H1114 C1117 0.929 . S
H1115 C1120 0.929 . S
H1116 C1122 0.930 . S
C1117 H1114 0.929 . S
C1117 C1118 1.398 . S
C1117 C1119 1.396 . S
C1118 C1117 1.398 . S
C1118 C1122 1.407 . S
C1119 C1117 1.396 . S
C1119 C1120 1.394 1_545 S
C1120 H1115 0.929 . S
C1120 C1119 1.394 1_565 S
C1120 C1121 1.382 . S
C1121 C1120 1.382 . S
C1121 C1122 1.392 1_565 S
C1121 N1123 1.420 . S
C1122 H1116 0.930 . S
C1122 C1118 1.407 . S
C1122 C1121 1.392 1_545 S
N1123 C1121 1.420 . S
N1123 C1124 1.244 . S
C1124 N1123 1.244 . S
H1125 C1128 0.929 . S
H1126 C1131 0.929 . S
H1127 C1133 0.930 . S
C1128 H1125 0.929 . S
C1128 C1129 1.398 1_556 S
C1128 C1130 1.396 . S
C1129 C1128 1.398 1_554 S
C1129 C1133 1.407 . S
C1130 C1128 1.396 . S
C1130 C1131 1.394 . S
C1131 H1126 0.929 . S
C1131 C1130 1.394 . S
C1131 C1132 1.382 1_556 S
C1132 C1131 1.382 1_554 S
C1132 C1133 1.392 . S
C1132 N1134 1.420 . S
C1133 H1127 0.930 . S
C1133 C1129 1.407 . S
C1133 C1132 1.392 . S
N1134 C1132 1.420 . S
N1134 C1135 1.244 . S
C1135 N1134 1.244 . S
H1136 C1139 0.929 . S
H1137 C1142 0.929 . S
H1138 C1144 0.930 . S
C1139 H1136 0.929 . S
C1139 C1140 1.398 . S
C1139 C1141 1.396 . S
C1140 C1139 1.398 . S
C1140 C1144 1.407 . S
C1141 C1139 1.396 . S
C1141 C1142 1.394 . S
C1142 H1137 0.929 . S
C1142 C1141 1.394 . S
C1142 C1143 1.382 . S
C1143 C1142 1.382 . S
C1143 C1144 1.392 . S
C1143 N1145 1.420 . S
C1144 H1138 0.930 . S
C1144 C1140 1.407 . S
C1144 C1143 1.392 . S
N1145 C1143 1.420 . S
N1145 C1146 1.244 . S
C1146 N1145 1.244 . S
H1147 C1150 0.929 . S
H1148 C1153 0.929 . S
H1149 C1155 0.930 . S
C1150 H1147 0.929 . S
C1150 C1151 1.398 1_655 S
C1150 C1152 1.396 . S
C1151 C1150 1.398 1_455 S
C1151 C1155 1.407 . S
C1152 C1150 1.396 . S
C1152 C1153 1.394 . S
C1153 H1148 0.929 . S
C1153 C1152 1.394 . S
C1153 C1154 1.382 1_655 S
C1154 C1153 1.382 1_455 S
C1154 C1155 1.392 . S
C1154 N1156 1.420 . S
C1155 H1149 0.930 . S
C1155 C1151 1.407 . S
C1155 C1154 1.392 . S
N1156 C1154 1.420 . S
N1156 C1157 1.244 . S
C1157 N1156 1.244 . S
H1158 C1161 0.929 . S
H1159 C1164 0.929 . S
H1160 C1166 0.930 . S
C1161 H1158 0.929 . S
C1161 C1162 1.398 1_455 S
C1161 C1163 1.396 . S
C1162 C1161 1.398 1_655 S
C1162 C1166 1.407 . S
C1163 C1161 1.396 . S
C1163 C1164 1.394 . S
C1164 H1159 0.929 . S
C1164 C1163 1.394 . S
C1164 C1165 1.382 1_455 S
C1165 C1164 1.382 1_655 S
C1165 C1166 1.392 . S
C1165 N1167 1.420 . S
C1166 H1160 0.930 . S
C1166 C1162 1.407 . S
C1166 C1165 1.392 . S
N1167 C1165 1.420 . S
N1167 C1168 1.244 . S
C1168 N1167 1.244 . S
H1169 C1172 0.929 . S
H1170 C1175 0.929 . S
H1171 C1177 0.930 . S
C1172 H1169 0.929 . S
C1172 C1173 1.398 . S
C1172 C1174 1.396 . S
C1173 C1172 1.398 . S
C1173 C1177 1.407 . S
C1174 C1172 1.396 . S
C1174 C1175 1.394 1_554 S
C1175 H1170 0.929 . S
C1175 C1174 1.394 1_556 S
C1175 C1176 1.382 . S
C1176 C1175 1.382 . S
C1176 C1177 1.392 1_556 S
C1176 N1178 1.420 . S
C1177 H1171 0.930 . S
C1177 C1173 1.407 . S
C1177 C1176 1.392 1_554 S
N1178 C1176 1.420 . S
N1178 C1179 1.244 . S
C1179 N1178 1.244 . S
H1180 C1183 0.929 . S
H1181 C1186 0.929 . S
H1182 C1188 0.930 . S
C1183 H1180 0.929 . S
C1183 C1184 1.398 . S
C1183 C1185 1.396 . S
C1184 C1183 1.398 . S
C1184 C1188 1.407 . S
C1185 C1183 1.396 . S
C1185 C1186 1.394 . S
C1186 H1181 0.929 . S
C1186 C1185 1.394 . S
C1186 C1187 1.382 . S
C1187 C1186 1.382 . S
C1187 C1188 1.392 . S
C1187 N1189 1.420 . S
C1188 H1182 0.930 . S
C1188 C1184 1.407 . S
C1188 C1187 1.392 . S
N1189 C1187 1.420 . S
N1189 C1190 1.244 . S
C1190 N1189 1.244 . S
H1191 C1194 0.929 . S
H1192 C1197 0.929 . S
H1193 C1199 0.930 . S
C1194 H1191 0.929 . S
C1194 C1195 1.398 1_565 S
C1194 C1196 1.396 . S
C1195 C1194 1.398 1_545 S
C1195 C1199 1.407 . S
C1196 C1194 1.396 . S
C1196 C1197 1.394 . S
C1197 H1192 0.929 . S
C1197 C1196 1.394 . S
C1197 C1198 1.382 1_565 S
C1198 C1197 1.382 1_545 S
C1198 C1199 1.392 . S
C1198 N1200 1.420 . S
C1199 H1193 0.930 . S
C1199 C1195 1.407 . S
C1199 C1198 1.392 . S
N1200 C1198 1.420 . S
N1200 C1201 1.244 . S
C1201 N1200 1.244 . S
H1202 C1205 0.929 . S
H1203 C1208 0.929 . S
H1204 C1210 0.930 . S
C1205 H1202 0.929 . S
C1205 C1206 1.398 1_545 S
C1205 C1207 1.396 . S
C1206 C1205 1.398 1_565 S
C1206 C1210 1.407 . S
C1207 C1205 1.396 . S
C1207 C1208 1.394 . S
C1208 H1203 0.929 . S
C1208 C1207 1.394 . S
C1208 C1209 1.382 1_545 S
C1209 C1208 1.382 1_565 S
C1209 C1210 1.392 . S
C1209 N1211 1.420 . S
C1210 H1204 0.930 . S
C1210 C1206 1.407 . S
C1210 C1209 1.392 . S
N1211 C1209 1.420 . S
N1211 C1212 1.244 . S
C1212 N1211 1.244 . S
H1213 C1216 0.929 . S
H1214 C1219 0.929 . S
H1215 C1221 0.930 . S
C1216 H1213 0.929 . S
C1216 C1217 1.398 . S
C1216 C1218 1.396 . S
C1217 C1216 1.398 . S
C1217 C1221 1.407 . S
C1218 C1216 1.396 . S
C1218 C1219 1.394 1_455 S
C1219 H1214 0.929 . S
C1219 C1218 1.394 1_655 S
C1219 C1220 1.382 . S
C1220 C1219 1.382 . S
C1220 C1221 1.392 1_655 S
C1220 N1222 1.420 . S
C1221 H1215 0.930 . S
C1221 C1217 1.407 . S
C1221 C1220 1.392 1_455 S
N1222 C1220 1.420 . S
N1222 C1223 1.244 . S
C1223 N1222 1.244 . S
H1224 C1232 0.950 . S
H1225 C1237 0.950 . S
H1226 C1234 0.950 . S
H1227 C1236 0.950 . S
H1228 C1238 0.950 . S
H1229 C1240 0.950 . S
H1230 C1242 0.950 . S
H1231 C1243 0.950 . S
C1232 H1224 0.950 . S
C1232 C1233 1.386 . S
C1232 C1234 1.391 . S
C1233 C1232 1.386 . S
C1233 C1237 1.393 . S
C1234 H1226 0.950 . S
C1234 C1232 1.391 . S
C1234 C1235 1.400 . S
C1235 C1234 1.400 . S
C1235 C1236 1.398 . S
C1235 C1241 1.491 . S
C1236 H1227 0.950 . S
C1236 C1235 1.398 . S
C1236 C1237 1.391 . S
C1237 H1225 0.950 . S
C1237 C1233 1.393 . S
C1237 C1236 1.391 . S
C1238 H1228 0.950 . S
C1238 C1239 1.386 . S
C1238 C1240 1.391 . S
C1239 C1238 1.386 . S
C1239 C1243 1.393 . S
C1240 H1229 0.950 . S
C1240 C1238 1.391 . S
C1240 C1241 1.400 . S
C1241 C1235 1.491 . S
C1241 C1240 1.400 . S
C1241 C1242 1.398 . S
C1242 H1230 0.950 . S
C1242 C1241 1.398 . S
C1242 C1243 1.391 . S
C1243 H1231 0.950 . S
C1243 C1239 1.393 . S
C1243 C1242 1.391 . S
H1244 C1252 0.950 . S
H1245 C1257 0.950 . S
H1246 C1254 0.950 . S
H1247 C1256 0.950 . S
H1248 C1258 0.950 . S
H1249 C1260 0.950 . S
H1250 C1262 0.950 . S
H1251 C1263 0.950 . S
C1252 H1244 0.950 . S
C1252 C1253 1.386 . S
C1252 C1254 1.391 . S
C1253 C1252 1.386 . S
C1253 C1257 1.393 . S
C1254 H1246 0.950 . S
C1254 C1252 1.391 . S
C1254 C1255 1.400 . S
C1255 C1254 1.400 . S
C1255 C1256 1.398 . S
C1255 C1261 1.491 . S
C1256 H1247 0.950 . S
C1256 C1255 1.398 . S
C1256 C1257 1.391 . S
C1257 H1245 0.950 . S
C1257 C1253 1.393 . S
C1257 C1256 1.391 . S
C1258 H1248 0.950 . S
C1258 C1259 1.386 . S
C1258 C1260 1.391 . S
C1259 C1258 1.386 . S
C1259 C1263 1.393 . S
C1260 H1249 0.950 . S
C1260 C1258 1.391 . S
C1260 C1261 1.400 . S
C1261 C1255 1.491 . S
C1261 C1260 1.400 . S
C1261 C1262 1.398 . S
C1262 H1250 0.950 . S
C1262 C1261 1.398 . S
C1262 C1263 1.391 . S
C1263 H1251 0.950 . S
C1263 C1259 1.393 . S
C1263 C1262 1.391 . S
H1264 C1272 0.950 . S
H1265 C1277 0.950 . S
H1266 C1274 0.950 . S
H1267 C1276 0.950 . S
H1268 C1278 0.953 1_545 S
H1269 C1280 0.950 . S
H1270 C1282 0.950 . S
H1271 C1283 0.950 . S
C1272 H1264 0.950 . S
C1272 C1273 1.370 1_565 S
C1272 C1274 1.391 . S
C1273 C1272 1.370 1_545 S
C1273 C1277 1.407 . S
C1274 H1266 0.950 . S
C1274 C1272 1.391 . S
C1274 C1275 1.400 . S
C1275 C1274 1.400 . S
C1275 C1276 1.398 1_565 S
C1275 C1281 1.491 . S
C1276 H1267 0.950 . S
C1276 C1275 1.398 1_545 S
C1276 C1277 1.391 . S
C1277 H1265 0.950 . S
C1277 C1273 1.407 . S
C1277 C1276 1.391 . S
C1278 H1268 0.953 1_565 S
C1278 C1279 1.382 . S
C1278 C1280 1.392 1_565 S
C1279 C1278 1.382 . S
C1279 C1283 1.393 . S
C1280 H1269 0.950 . S
C1280 C1278 1.392 1_545 S
C1280 C1281 1.400 1_545 S
C1281 C1275 1.491 . S
C1281 C1280 1.400 1_565 S
C1281 C1282 1.398 . S
C1282 H1270 0.950 . S
C1282 C1281 1.398 . S
C1282 C1283 1.391 . S
C1283 H1271 0.950 . S
C1283 C1279 1.393 . S
C1283 C1282 1.391 . S
H1284 C1292 0.950 . S
H1285 C1297 0.935 1_565 S
H1286 C1294 0.950 . S
H1287 C1296 0.927 1_565 S
H1288 C1298 0.950 1_565 S
H1289 C1300 0.950 1_565 S
H1290 C1302 0.950 . S
H1291 C1303 0.950 . S
C1292 H1284 0.950 . S
C1292 C1293 1.386 . S
C1292 C1294 1.391 . S
C1293 C1292 1.386 . S
C1293 C1297 1.411 . S
C1294 H1286 0.950 . S
C1294 C1292 1.391 . S
C1294 C1295 1.400 . S
C1295 C1294 1.400 . S
C1295 C1296 1.418 . S
C1295 C1301 1.491 . S
C1296 H1287 0.927 1_545 S
C1296 C1295 1.418 . S
C1296 C1297 1.391 . S
C1297 H1285 0.935 1_545 S
C1297 C1293 1.411 . S
C1297 C1296 1.391 . S
C1298 H1288 0.950 1_545 S
C1298 C1299 1.386 . S
C1298 C1300 1.391 1_455 S
C1299 C1298 1.386 . S
C1299 C1303 1.393 . S
C1300 H1289 0.950 1_545 S
C1300 C1298 1.391 1_655 S
C1300 C1301 1.400 . S
C1301 C1295 1.491 . S
C1301 C1300 1.400 . S
C1301 C1302 1.398 . S
C1302 H1290 0.950 . S
C1302 C1301 1.398 . S
C1302 C1303 1.391 1_655 S
C1303 H1291 0.950 . S
C1303 C1299 1.393 . S
C1303 C1302 1.391 1_455 S
H1304 C1312 0.950 . S
H1305 C1317 0.950 . S
H1306 C1314 0.950 . S
H1307 C1316 0.950 . S
H1308 C1318 0.950 . S
H1309 C1320 0.950 . S
H1310 C1322 0.950 . S
H1311 C1323 0.950 . S
C1312 H1304 0.950 . S
C1312 C1313 1.386 . S
C1312 C1314 1.391 . S
C1313 C1312 1.386 . S
C1313 C1317 1.393 . S
C1314 H1306 0.950 . S
C1314 C1312 1.391 . S
C1314 C1315 1.400 . S
C1315 C1314 1.400 . S
C1315 C1316 1.398 . S
C1315 C1321 1.491 . S
C1316 H1307 0.950 . S
C1316 C1315 1.398 . S
C1316 C1317 1.391 . S
C1317 H1305 0.950 . S
C1317 C1313 1.393 . S
C1317 C1316 1.391 . S
C1318 H1308 0.950 . S
C1318 C1319 1.386 . S
C1318 C1320 1.391 . S
C1319 C1318 1.386 . S
C1319 C1323 1.393 . S
C1320 H1309 0.950 . S
C1320 C1318 1.391 . S
C1320 C1321 1.400 . S
C1321 C1315 1.491 . S
C1321 C1320 1.400 . S
C1321 C1322 1.398 . S
C1322 H1310 0.950 . S
C1322 C1321 1.398 . S
C1322 C1323 1.391 . S
C1323 H1311 0.950 . S
C1323 C1319 1.393 . S
C1323 C1322 1.391 . S
H1324 C1332 0.950 . S
H1325 C1337 0.950 . S
H1326 C1334 0.950 . S
H1327 C1336 0.950 . S
H1328 C1338 0.950 . S
H1329 C1340 0.950 . S
H1330 C1342 0.950 . S
H1331 C1343 0.950 . S
C1332 H1324 0.950 . S
C1332 C1333 1.386 . S
C1332 C1334 1.391 . S
C1333 C1332 1.386 . S
C1333 C1337 1.393 1_554 S
C1334 H1326 0.950 . S
C1334 C1332 1.391 . S
C1334 C1335 1.400 . S
C1335 C1334 1.400 . S
C1335 C1336 1.398 1_554 S
C1335 C1341 1.491 . S
C1336 H1327 0.950 . S
C1336 C1335 1.398 1_556 S
C1336 C1337 1.391 . S
C1337 H1325 0.950 . S
C1337 C1333 1.393 1_556 S
C1337 C1336 1.391 . S
C1338 H1328 0.950 . S
C1338 C1339 1.386 1_556 S
C1338 C1340 1.391 1_545 S
C1339 C1338 1.386 1_554 S
C1339 C1343 1.393 . S
C1340 H1329 0.950 . S
C1340 C1338 1.391 1_565 S
C1340 C1341 1.400 1_556 S
C1341 C1335 1.491 . S
C1341 C1340 1.400 1_554 S
C1341 C1342 1.398 . S
C1342 H1330 0.950 . S
C1342 C1341 1.398 . S
C1342 C1343 1.391 1_565 S
C1343 H1331 0.950 . S
C1343 C1339 1.393 . S
C1343 C1342 1.391 1_545 S
H1344 C1352 0.950 . S
H1345 C1357 0.950 . S
H1346 C1354 0.950 . S
H1347 C1356 0.950 . S
H1348 C1358 0.950 . S
H1349 C1360 0.950 . S
H1350 C1362 0.950 . S
H1351 C1363 0.950 . S
C1352 H1344 0.950 . S
C1352 C1353 1.386 . S
C1352 C1354 1.391 . S
C1353 C1352 1.386 . S
C1353 C1357 1.393 . S
C1354 H1346 0.950 . S
C1354 C1352 1.391 . S
C1354 C1355 1.400 . S
C1355 C1354 1.400 . S
C1355 C1356 1.398 . S
C1355 C1361 1.491 . S
C1356 H1347 0.950 . S
C1356 C1355 1.398 . S
C1356 C1357 1.391 . S
C1357 H1345 0.950 . S
C1357 C1353 1.393 . S
C1357 C1356 1.391 . S
C1358 H1348 0.950 . S
C1358 C1359 1.386 . S
C1358 C1360 1.391 . S
C1359 C1358 1.386 . S
C1359 C1363 1.393 . S
C1360 H1349 0.950 . S
C1360 C1358 1.391 . S
C1360 C1361 1.400 . S
C1361 C1355 1.491 . S
C1361 C1360 1.400 . S
C1361 C1362 1.398 . S
C1362 H1350 0.950 . S
C1362 C1361 1.398 . S
C1362 C1363 1.391 . S
C1363 H1351 0.950 . S
C1363 C1359 1.393 . S
C1363 C1362 1.391 . S
H1364 C1372 0.950 . S
H1365 C1377 0.950 . S
H1366 C1374 0.950 . S
H1367 C1376 0.950 . S
H1368 C1378 0.950 . S
H1369 C1380 0.950 . S
H1370 C1382 0.967 . S
H1371 C1383 0.950 1_554 S
C1372 H1364 0.950 . S
C1372 C1373 1.395 . S
C1372 C1374 1.391 . S
C1373 C1372 1.395 . S
C1373 C1377 1.382 1_554 S
C1374 H1366 0.950 . S
C1374 C1372 1.391 . S
C1374 C1375 1.400 1_554 S
C1375 C1374 1.400 1_556 S
C1375 C1376 1.398 . S
C1375 C1381 1.491 . S
C1376 H1367 0.950 . S
C1376 C1375 1.398 . S
C1376 C1377 1.391 . S
C1377 H1365 0.950 . S
C1377 C1373 1.382 1_556 S
C1377 C1376 1.391 . S
C1378 H1368 0.950 . S
C1378 C1379 1.386 . S
C1378 C1380 1.391 . S
C1379 C1378 1.386 . S
C1379 C1383 1.393 . S
C1380 H1369 0.950 . S
C1380 C1378 1.391 . S
C1380 C1381 1.400 . S
C1381 C1375 1.491 . S
C1381 C1380 1.400 . S
C1381 C1382 1.385 1_556 S
C1382 H1370 0.967 . S
C1382 C1381 1.385 1_554 S
C1382 C1383 1.388 1_554 S
C1383 H1371 0.950 1_556 S
C1383 C1379 1.393 . S
C1383 C1382 1.388 1_556 S
H1384 C1392 0.950 . S
H1385 C1397 0.950 . S
H1386 C1394 0.950 . S
H1387 C1396 0.950 . S
H1388 C1398 0.950 . S
H1389 C1400 0.950 . S
H1390 C1402 0.950 . S
H1391 C1403 0.950 . S
C1392 H1384 0.950 . S
C1392 C1393 1.386 . S
C1392 C1394 1.391 . S
C1393 C1392 1.386 . S
C1393 C1397 1.393 . S
C1394 H1386 0.950 . S
C1394 C1392 1.391 . S
C1394 C1395 1.400 . S
C1395 C1394 1.400 . S
C1395 C1396 1.398 . S
C1395 C1401 1.491 . S
C1396 H1387 0.950 . S
C1396 C1395 1.398 . S
C1396 C1397 1.391 . S
C1397 H1385 0.950 . S
C1397 C1393 1.393 . S
C1397 C1396 1.391 . S
C1398 H1388 0.950 . S
C1398 C1399 1.386 . S
C1398 C1400 1.391 . S
C1399 C1398 1.386 . S
C1399 C1403 1.393 . S
C1400 H1389 0.950 . S
C1400 C1398 1.391 . S
C1400 C1401 1.400 . S
C1401 C1395 1.491 . S
C1401 C1400 1.400 . S
C1401 C1402 1.398 . S
C1402 H1390 0.950 . S
C1402 C1401 1.398 . S
C1402 C1403 1.391 . S
C1403 H1391 0.950 . S
C1403 C1399 1.393 . S
C1403 C1402 1.391 . S
H1404 C1412 0.942 1_655 S
H1405 C1417 0.950 . S
H1406 C1414 0.942 1_655 S
H1407 C1416 0.950 . S
H1408 C1418 0.950 . S
H1409 C1420 0.950 . S
H1410 C1422 0.967 . S
H1411 C1423 0.960 . S
C1412 H1404 0.942 1_455 S
C1412 C1413 1.394 . S
C1412 C1414 1.391 . S
C1413 C1412 1.394 . S
C1413 C1417 1.393 . S
C1414 H1406 0.942 1_455 S
C1414 C1412 1.391 . S
C1414 C1415 1.406 . S
C1415 C1414 1.406 . S
C1415 C1416 1.398 . S
C1415 C1421 1.491 . S
C1416 H1407 0.950 . S
C1416 C1415 1.398 . S
C1416 C1417 1.391 . S
C1417 H1405 0.950 . S
C1417 C1413 1.393 . S
C1417 C1416 1.391 . S
C1418 H1408 0.950 . S
C1418 C1419 1.386 . S
C1418 C1420 1.391 1_554 S
C1419 C1418 1.386 . S
C1419 C1423 1.384 1_455 S
C1420 H1409 0.950 . S
C1420 C1418 1.391 1_556 S
C1420 C1421 1.400 . S
C1421 C1415 1.491 . S
C1421 C1420 1.400 . S
C1421 C1422 1.380 1_455 S
C1422 H1410 0.967 . S
C1422 C1421 1.380 1_655 S
C1422 C1423 1.392 1_556 S
C1423 H1411 0.960 . S
C1423 C1419 1.384 1_655 S
C1423 C1422 1.392 1_554 S
H1424 C1432 0.950 . S
H1425 C1437 0.950 . S
H1426 C1434 0.950 . S
H1427 C1436 0.950 . S
H1428 C1438 0.950 . S
H1429 C1440 0.950 . S
H1430 C1442 0.950 . S
H1431 C1443 0.950 . S
C1432 H1424 0.950 . S
C1432 C1433 1.386 . S
C1432 C1434 1.391 . S
C1433 C1432 1.386 . S
C1433 C1437 1.393 . S
C1434 H1426 0.950 . S
C1434 C1432 1.391 . S
C1434 C1435 1.400 . S
C1435 C1434 1.400 . S
C1435 C1436 1.398 . S
C1435 C1441 1.491 . S
C1436 H1427 0.950 . S
C1436 C1435 1.398 . S
C1436 C1437 1.391 . S
C1437 H1425 0.950 . S
C1437 C1433 1.393 . S
C1437 C1436 1.391 . S
C1438 H1428 0.950 . S
C1438 C1439 1.386 . S
C1438 C1440 1.391 . S
C1439 C1438 1.386 . S
C1439 C1443 1.393 . S
C1440 H1429 0.950 . S
C1440 C1438 1.391 . S
C1440 C1441 1.400 . S
C1441 C1435 1.491 . S
C1441 C1440 1.400 . S
C1441 C1442 1.398 . S
C1442 H1430 0.950 . S
C1442 C1441 1.398 . S
C1442 C1443 1.391 . S
C1443 H1431 0.950 . S
C1443 C1439 1.393 . S
C1443 C1442 1.391 . S
H1444 C1452 0.950 . S
H1445 C1457 0.950 . S
H1446 C1454 0.950 . S
H1447 C1456 0.950 . S
H1448 C1458 0.950 . S
H1449 C1460 0.950 . S
H1450 C1462 0.950 . S
H1451 C1463 0.950 . S
C1452 H1444 0.950 . S
C1452 C1453 1.387 . S
C1452 C1454 1.391 . S
C1453 C1452 1.387 . S
C1453 C1457 1.391 1_655 S
C1454 H1446 0.950 . S
C1454 C1452 1.391 . S
C1454 C1455 1.400 . S
C1455 C1454 1.400 . S
C1455 C1456 1.398 1_655 S
C1455 C1461 1.491 . S
C1456 H1447 0.950 . S
C1456 C1455 1.398 1_455 S
C1456 C1457 1.391 . S
C1457 H1445 0.950 . S
C1457 C1453 1.391 1_455 S
C1457 C1456 1.391 . S
C1458 H1448 0.950 . S
C1458 C1459 1.386 1_455 S
C1458 C1460 1.391 . S
C1459 C1458 1.386 1_655 S
C1459 C1463 1.393 . S
C1460 H1449 0.950 . S
C1460 C1458 1.391 . S
C1460 C1461 1.400 1_455 S
C1461 C1455 1.491 . S
C1461 C1460 1.400 1_655 S
C1461 C1462 1.398 . S
C1462 H1450 0.950 . S
C1462 C1461 1.398 . S
C1462 C1463 1.391 . S
C1463 H1451 0.950 . S
C1463 C1459 1.393 . S
C1463 C1462 1.391 . S
H1464 C1472 0.950 . S
H1465 C1477 0.950 . S
H1466 C1474 0.950 . S
H1467 C1476 0.950 . S
H1468 C1478 0.950 . S
H1469 C1480 0.950 . S
H1470 C1482 0.950 . S
H1471 C1483 0.950 . S
C1472 H1464 0.950 . S
C1472 C1473 1.386 . S
C1472 C1474 1.391 . S
C1473 C1472 1.386 . S
C1473 C1477 1.393 . S
C1474 H1466 0.950 . S
C1474 C1472 1.391 . S
C1474 C1475 1.400 . S
C1475 C1474 1.400 . S
C1475 C1476 1.398 . S
C1475 C1481 1.491 . S
C1476 H1467 0.950 . S
C1476 C1475 1.398 . S
C1476 C1477 1.391 . S
C1477 H1465 0.950 . S
C1477 C1473 1.393 . S
C1477 C1476 1.391 . S
C1478 H1468 0.950 . S
C1478 C1479 1.386 . S
C1478 C1480 1.391 . S
C1479 C1478 1.386 . S
C1479 C1483 1.393 . S
C1480 H1469 0.950 . S
C1480 C1478 1.391 . S
C1480 C1481 1.400 . S
C1481 C1475 1.491 . S
C1481 C1480 1.400 . S
C1481 C1482 1.398 . S
C1482 H1470 0.950 . S
C1482 C1481 1.398 . S
C1482 C1483 1.391 . S
C1483 H1471 0.950 . S
C1483 C1479 1.393 . S
C1483 C1482 1.391 . S
H1484 C1492 0.950 . S
H1485 C1497 0.950 . S
H1486 C1494 0.950 . S
H1487 C1496 0.950 . S
H1488 C1498 0.950 . S
H1489 C1500 0.950 . S
H1490 C1502 0.950 . S
H1491 C1503 0.950 . S
C1492 H1484 0.950 . S
C1492 C1493 1.386 . S
C1492 C1494 1.391 . S
C1493 C1492 1.386 . S
C1493 C1497 1.393 . S
C1494 H1486 0.950 . S
C1494 C1492 1.391 . S
C1494 C1495 1.400 . S
C1495 C1494 1.400 . S
C1495 C1496 1.398 . S
C1495 C1501 1.491 . S
C1496 H1487 0.950 . S
C1496 C1495 1.398 . S
C1496 C1497 1.391 . S
C1497 H1485 0.950 . S
C1497 C1493 1.393 . S
C1497 C1496 1.391 . S
C1498 H1488 0.950 . S
C1498 C1499 1.386 . S
C1498 C1500 1.391 . S
C1499 C1498 1.386 . S
C1499 C1503 1.393 . S
C1500 H1489 0.950 . S
C1500 C1498 1.391 . S
C1500 C1501 1.400 . S
C1501 C1495 1.491 . S
C1501 C1500 1.400 . S
C1501 C1502 1.398 . S
C1502 H1490 0.950 . S
C1502 C1501 1.398 . S
C1502 C1503 1.391 . S
C1503 H1491 0.950 . S
C1503 C1499 1.393 . S
C1503 C1502 1.391 . S
H1504 C1512 0.950 . S
H1505 C1517 0.950 . S
H1506 C1514 0.950 . S
H1507 C1516 0.949 1_565 S
H1508 C1518 0.950 . S
H1509 C1520 0.958 . S
H1510 C1522 0.950 . S
H1511 C1523 0.950 . S
C1512 H1504 0.950 . S
C1512 C1513 1.403 . S
C1512 C1514 1.391 . S
C1513 C1512 1.403 . S
C1513 C1517 1.380 1_545 S
C1514 H1506 0.950 . S
C1514 C1512 1.391 . S
C1514 C1515 1.400 . S
C1515 C1514 1.400 . S
C1515 C1516 1.399 . S
C1515 C1521 1.491 . S
C1516 H1507 0.949 1_545 S
C1516 C1515 1.399 . S
C1516 C1517 1.390 1_545 S
C1517 H1505 0.950 . S
C1517 C1513 1.380 1_565 S
C1517 C1516 1.390 1_565 S
C1518 H1508 0.950 . S
C1518 C1519 1.386 . S
C1518 C1520 1.391 . S
C1519 C1518 1.386 . S
C1519 C1523 1.393 . S
C1520 H1509 0.958 . S
C1520 C1518 1.391 . S
C1520 C1521 1.400 . S
C1521 C1515 1.491 . S
C1521 C1520 1.400 . S
C1521 C1522 1.398 . S
C1522 H1510 0.950 . S
C1522 C1521 1.398 . S
C1522 C1523 1.391 . S
C1523 H1511 0.950 . S
C1523 C1519 1.393 . S
C1523 C1522 1.391 . S
H1524 C1532 0.950 . S
H1525 C1537 0.948 1_545 S
H1526 C1534 0.950 . S
H1527 C1536 0.941 1_545 S
H1528 C1538 0.950 1_545 S
H1529 C1540 0.950 1_545 S
H1530 C1542 0.950 . S
H1531 C1543 0.950 . S
C1532 H1524 0.950 . S
C1532 C1533 1.386 . S
C1532 C1534 1.391 . S
C1533 C1532 1.386 . S
C1533 C1537 1.395 . S
C1534 H1526 0.950 . S
C1534 C1532 1.391 . S
C1534 C1535 1.400 . S
C1535 C1534 1.400 . S
C1535 C1536 1.406 . S
C1535 C1541 1.491 . S
C1536 H1527 0.941 1_565 S
C1536 C1535 1.406 . S
C1536 C1537 1.391 . S
C1537 H1525 0.948 1_565 S
C1537 C1533 1.395 . S
C1537 C1536 1.391 . S
C1538 H1528 0.950 1_565 S
C1538 C1539 1.386 . S
C1538 C1540 1.391 1_655 S
C1539 C1538 1.386 . S
C1539 C1543 1.393 . S
C1540 H1529 0.950 1_565 S
C1540 C1538 1.391 1_455 S
C1540 C1541 1.400 . S
C1541 C1535 1.491 . S
C1541 C1540 1.400 . S
C1541 C1542 1.398 . S
C1542 H1530 0.950 . S
C1542 C1541 1.398 . S
C1542 C1543 1.391 1_455 S
C1543 H1531 0.950 . S
C1543 C1539 1.393 . S
C1543 C1542 1.391 1_655 S
H1544 C1552 0.950 . S
H1545 C1557 0.950 . S
H1546 C1554 0.950 . S
H1547 C1556 0.950 . S
H1548 C1558 0.950 . S
H1549 C1560 0.950 . S
H1550 C1562 0.950 . S
H1551 C1563 0.950 . S
C1552 H1544 0.950 . S
C1552 C1553 1.386 . S
C1552 C1554 1.391 . S
C1553 C1552 1.386 . S
C1553 C1557 1.393 . S
C1554 H1546 0.950 . S
C1554 C1552 1.391 . S
C1554 C1555 1.400 . S
C1555 C1554 1.400 . S
C1555 C1556 1.398 . S
C1555 C1561 1.491 . S
C1556 H1547 0.950 . S
C1556 C1555 1.398 . S
C1556 C1557 1.391 . S
C1557 H1545 0.950 . S
C1557 C1553 1.393 . S
C1557 C1556 1.391 . S
C1558 H1548 0.950 . S
C1558 C1559 1.386 . S
C1558 C1560 1.391 . S
C1559 C1558 1.386 . S
C1559 C1563 1.393 . S
C1560 H1549 0.950 . S
C1560 C1558 1.391 . S
C1560 C1561 1.400 . S
C1561 C1555 1.491 . S
C1561 C1560 1.400 . S
C1561 C1562 1.398 . S
C1562 H1550 0.950 . S
C1562 C1561 1.398 . S
C1562 C1563 1.391 . S
C1563 H1551 0.950 . S
C1563 C1559 1.393 . S
C1563 C1562 1.391 . S
H1564 C1572 0.956 . S
H1565 C1577 0.950 . S
H1566 C1574 0.949 . S
H1567 C1576 0.950 . S
H1568 C1578 0.950 . S
H1569 C1580 0.950 . S
H1570 C1582 0.950 1_554 S
H1571 C1583 0.928 1_554 S
C1572 H1564 0.956 . S
C1572 C1573 1.386 . S
C1572 C1574 1.391 . S
C1573 C1572 1.386 . S
C1573 C1577 1.393 . S
C1574 H1566 0.949 . S
C1574 C1572 1.391 . S
C1574 C1575 1.400 . S
C1575 C1574 1.400 . S
C1575 C1576 1.398 . S
C1575 C1581 1.491 . S
C1576 H1567 0.950 . S
C1576 C1575 1.398 . S
C1576 C1577 1.391 . S
C1577 H1565 0.950 . S
C1577 C1573 1.393 . S
C1577 C1576 1.391 . S
C1578 H1568 0.950 . S
C1578 C1579 1.386 . S
C1578 C1580 1.391 1_565 S
C1579 C1578 1.386 . S
C1579 C1583 1.393 . S
C1580 H1569 0.950 . S
C1580 C1578 1.391 1_545 S
C1580 C1581 1.400 . S
C1581 C1575 1.491 . S
C1581 C1580 1.400 . S
C1581 C1582 1.398 . S
C1582 H1570 0.950 1_556 S
C1582 C1581 1.398 . S
C1582 C1583 1.391 1_545 S
C1583 H1571 0.928 1_556 S
C1583 C1579 1.393 . S
C1583 C1582 1.391 1_565 S
H1584 C1592 0.950 . S
H1585 C1597 0.950 . S
H1586 C1594 0.950 . S
H1587 C1596 0.950 . S
H1588 C1598 0.950 . S
H1589 C1600 0.950 . S
H1590 C1602 0.950 . S
H1591 C1603 0.950 . S
C1592 H1584 0.950 . S
C1592 C1593 1.386 . S
C1592 C1594 1.391 . S
C1593 C1592 1.386 . S
C1593 C1597 1.393 . S
C1594 H1586 0.950 . S
C1594 C1592 1.391 . S
C1594 C1595 1.400 . S
C1595 C1594 1.400 . S
C1595 C1596 1.398 . S
C1595 C1601 1.491 . S
C1596 H1587 0.950 . S
C1596 C1595 1.398 . S
C1596 C1597 1.391 . S
C1597 H1585 0.950 . S
C1597 C1593 1.393 . S
C1597 C1596 1.391 . S
C1598 H1588 0.950 . S
C1598 C1599 1.386 . S
C1598 C1600 1.391 . S
C1599 C1598 1.386 . S
C1599 C1603 1.393 . S
C1600 H1589 0.950 . S
C1600 C1598 1.391 . S
C1600 C1601 1.400 . S
C1601 C1595 1.491 . S
C1601 C1600 1.400 . S
C1601 C1602 1.398 . S
C1602 H1590 0.950 . S
C1602 C1601 1.398 . S
C1602 C1603 1.391 . S
C1603 H1591 0.950 . S
C1603 C1599 1.393 . S
C1603 C1602 1.391 . S
H1604 C1612 0.950 . S
H1605 C1617 0.950 . S
H1606 C1614 0.950 . S
H1607 C1616 0.950 . S
H1608 C1618 0.950 . S
H1609 C1620 0.950 . S
H1610 C1622 0.950 . S
H1611 C1623 0.950 . S
C1612 H1604 0.950 . S
C1612 C1613 1.390 1_554 S
C1612 C1614 1.391 . S
C1613 C1612 1.390 1_556 S
C1613 C1617 1.389 . S
C1614 H1606 0.950 . S
C1614 C1612 1.391 . S
C1614 C1615 1.400 . S
C1615 C1614 1.400 . S
C1615 C1616 1.398 1_554 S
C1615 C1621 1.491 . S
C1616 H1607 0.950 . S
C1616 C1615 1.398 1_556 S
C1616 C1617 1.391 . S
C1617 H1605 0.950 . S
C1617 C1613 1.389 . S
C1617 C1616 1.391 . S
C1618 H1608 0.950 . S
C1618 C1619 1.386 1_556 S
C1618 C1620 1.391 . S
C1619 C1618 1.386 1_554 S
C1619 C1623 1.393 . S
C1620 H1609 0.950 . S
C1620 C1618 1.391 . S
C1620 C1621 1.400 1_556 S
C1621 C1615 1.491 . S
C1621 C1620 1.400 1_554 S
C1621 C1622 1.398 . S
C1622 H1610 0.950 . S
C1622 C1621 1.398 . S
C1622 C1623 1.391 . S
C1623 H1611 0.950 . S
C1623 C1619 1.393 . S
C1623 C1622 1.391 . S
H1624 C1632 0.950 . S
H1625 C1637 0.950 . S
H1626 C1634 0.950 . S
H1627 C1636 0.950 . S
H1628 C1638 0.950 . S
H1629 C1640 0.950 . S
H1630 C1642 0.950 . S
H1631 C1643 0.950 . S
C1632 H1624 0.950 . S
C1632 C1633 1.386 . S
C1632 C1634 1.391 . S
C1633 C1632 1.386 . S
C1633 C1637 1.393 . S
C1634 H1626 0.950 . S
C1634 C1632 1.391 . S
C1634 C1635 1.400 . S
C1635 C1634 1.400 . S
C1635 C1636 1.398 . S
C1635 C1641 1.491 . S
C1636 H1627 0.950 . S
C1636 C1635 1.398 . S
C1636 C1637 1.391 . S
C1637 H1625 0.950 . S
C1637 C1633 1.393 . S
C1637 C1636 1.391 . S
C1638 H1628 0.950 . S
C1638 C1639 1.386 . S
C1638 C1640 1.391 . S
C1639 C1638 1.386 . S
C1639 C1643 1.393 . S
C1640 H1629 0.950 . S
C1640 C1638 1.391 . S
C1640 C1641 1.400 . S
C1641 C1635 1.491 . S
C1641 C1640 1.400 . S
C1641 C1642 1.398 . S
C1642 H1630 0.950 . S
C1642 C1641 1.398 . S
C1642 C1643 1.391 . S
C1643 H1631 0.950 . S
C1643 C1639 1.393 . S
C1643 C1642 1.391 . S
H1644 C1652 0.950 . S
H1645 C1657 0.950 . S
H1646 C1654 0.950 . S
H1647 C1656 0.950 . S
H1648 C1658 0.950 . S
H1649 C1660 0.950 . S
H1650 C1662 0.950 . S
H1651 C1663 0.950 . S
C1652 H1644 0.950 . S
C1652 C1653 1.386 1_455 S
C1652 C1654 1.391 . S
C1653 C1652 1.386 1_655 S
C1653 C1657 1.393 . S
C1654 H1646 0.950 . S
C1654 C1652 1.391 . S
C1654 C1655 1.400 1_455 S
C1655 C1654 1.400 1_655 S
C1655 C1656 1.398 . S
C1655 C1661 1.491 . S
C1656 H1647 0.950 . S
C1656 C1655 1.398 . S
C1656 C1657 1.391 . S
C1657 H1645 0.950 . S
C1657 C1653 1.393 . S
C1657 C1656 1.391 . S
C1658 H1648 0.950 . S
C1658 C1659 1.386 . S
C1658 C1660 1.391 1_556 S
C1659 C1658 1.386 . S
C1659 C1663 1.393 1_655 S
C1660 H1649 0.950 . S
C1660 C1658 1.391 1_554 S
C1660 C1661 1.400 . S
C1661 C1655 1.491 . S
C1661 C1660 1.400 . S
C1661 C1662 1.398 1_655 S
C1662 H1650 0.950 . S
C1662 C1661 1.398 1_455 S
C1662 C1663 1.391 1_554 S
C1663 H1651 0.950 . S
C1663 C1659 1.393 1_455 S
C1663 C1662 1.391 1_556 S
H1664 C1672 0.950 . S
H1665 C1677 0.950 . S
H1666 C1674 0.950 . S
H1667 C1676 0.950 . S
H1668 C1678 0.950 . S
H1669 C1680 0.950 . S
H1670 C1682 0.950 . S
H1671 C1683 0.950 . S
C1672 H1664 0.950 . S
C1672 C1673 1.386 . S
C1672 C1674 1.391 . S
C1673 C1672 1.386 . S
C1673 C1677 1.393 . S
C1674 H1666 0.950 . S
C1674 C1672 1.391 . S
C1674 C1675 1.400 . S
C1675 C1674 1.400 . S
C1675 C1676 1.398 . S
C1675 C1681 1.491 . S
C1676 H1667 0.950 . S
C1676 C1675 1.398 . S
C1676 C1677 1.391 . S
C1677 H1665 0.950 . S
C1677 C1673 1.393 . S
C1677 C1676 1.391 . S
C1678 H1668 0.950 . S
C1678 C1679 1.386 . S
C1678 C1680 1.391 . S
C1679 C1678 1.386 . S
C1679 C1683 1.393 . S
C1680 H1669 0.950 . S
C1680 C1678 1.391 . S
C1680 C1681 1.400 . S
C1681 C1675 1.491 . S
C1681 C1680 1.400 . S
C1681 C1682 1.398 . S
C1682 H1670 0.950 . S
C1682 C1681 1.398 . S
C1682 C1683 1.391 . S
C1683 H1671 0.950 . S
C1683 C1679 1.393 . S
C1683 C1682 1.391 . S
H1684 C1692 0.950 . S
H1685 C1697 0.950 . S
H1686 C1694 0.950 . S
H1687 C1696 0.950 . S
H1688 C1698 0.950 . S
H1689 C1700 0.950 . S
H1690 C1702 0.950 . S
H1691 C1703 0.950 . S
C1692 H1684 0.950 . S
C1692 C1693 1.389 1_455 S
C1692 C1694 1.391 . S
C1693 C1692 1.389 1_655 S
C1693 C1697 1.390 . S
C1694 H1686 0.950 . S
C1694 C1692 1.391 . S
C1694 C1695 1.400 . S
C1695 C1694 1.400 . S
C1695 C1696 1.398 1_455 S
C1695 C1701 1.491 . S
C1696 H1687 0.950 . S
C1696 C1695 1.398 1_655 S
C1696 C1697 1.391 . S
C1697 H1685 0.950 . S
C1697 C1693 1.390 . S
C1697 C1696 1.391 . S
C1698 H1688 0.950 . S
C1698 C1699 1.386 1_655 S
C1698 C1700 1.391 . S
C1699 C1698 1.386 1_455 S
C1699 C1703 1.393 . S
C1700 H1689 0.950 . S
C1700 C1698 1.391 . S
C1700 C1701 1.400 1_655 S
C1701 C1695 1.491 . S
C1701 C1700 1.400 1_455 S
C1701 C1702 1.398 . S
C1702 H1690 0.950 . S
C1702 C1701 1.398 . S
C1702 C1703 1.391 . S
C1703 H1691 0.950 . S
C1703 C1699 1.393 . S
C1703 C1702 1.391 . S
H1704 C1712 0.950 . S
H1705 C1717 0.950 . S
H1706 C1714 0.950 . S
H1707 C1716 0.950 . S
H1708 C1718 0.950 . S
H1709 C1720 0.950 . S
H1710 C1722 0.950 . S
H1711 C1723 0.950 . S
C1712 H1704 0.950 . S
C1712 C1713 1.386 . S
C1712 C1714 1.391 . S
C1713 C1712 1.386 . S
C1713 C1717 1.393 . S
C1714 H1706 0.950 . S
C1714 C1712 1.391 . S
C1714 C1715 1.400 . S
C1715 C1714 1.400 . S
C1715 C1716 1.398 . S
C1715 C1721 1.491 . S
C1716 H1707 0.950 . S
C1716 C1715 1.398 . S
C1716 C1717 1.391 . S
C1717 H1705 0.950 . S
C1717 C1713 1.393 . S
C1717 C1716 1.391 . S
C1718 H1708 0.950 . S
C1718 C1719 1.386 . S
C1718 C1720 1.391 . S
C1719 C1718 1.386 . S
C1719 C1723 1.393 . S
C1720 H1709 0.950 . S
C1720 C1718 1.391 . S
C1720 C1721 1.400 . S
C1721 C1715 1.491 . S
C1721 C1720 1.400 . S
C1721 C1722 1.398 . S
C1722 H1710 0.950 . S
C1722 C1721 1.398 . S
C1722 C1723 1.391 . S
C1723 H1711 0.950 . S
C1723 C1719 1.393 . S
C1723 C1722 1.391 . S
H1724 C1732 0.950 . S
H1725 C1737 0.950 . S
H1726 C1734 0.950 . S
H1727 C1736 0.950 . S
H1728 C1738 0.950 . S
H1729 C1740 0.950 . S
H1730 C1742 0.950 . S
H1731 C1743 0.950 . S
C1732 H1724 0.950 . S
C1732 C1733 1.386 . S
C1732 C1734 1.391 . S
C1733 C1732 1.386 . S
C1733 C1737 1.393 . S
C1734 H1726 0.950 . S
C1734 C1732 1.391 . S
C1734 C1735 1.400 . S
C1735 C1734 1.400 . S
C1735 C1736 1.398 . S
C1735 C1741 1.491 . S
C1736 H1727 0.950 . S
C1736 C1735 1.398 . S
C1736 C1737 1.391 . S
C1737 H1725 0.950 . S
C1737 C1733 1.393 . S
C1737 C1736 1.391 . S
C1738 H1728 0.950 . S
C1738 C1739 1.386 . S
C1738 C1740 1.391 . S
C1739 C1738 1.386 . S
C1739 C1743 1.393 . S
C1740 H1729 0.950 . S
C1740 C1738 1.391 . S
C1740 C1741 1.400 . S
C1741 C1735 1.491 . S
C1741 C1740 1.400 . S
C1741 C1742 1.398 . S
C1742 H1730 0.950 . S
C1742 C1741 1.398 . S
C1742 C1743 1.391 . S
C1743 H1731 0.950 . S
C1743 C1739 1.393 . S
C1743 C1742 1.391 . S
H1744 C1752 0.950 . S
H1745 C1757 0.950 . S
H1746 C1754 0.950 . S
H1747 C1756 0.950 . S
H1748 C1758 0.950 . S
H1749 C1760 0.950 . S
H1750 C1762 0.950 . S
H1751 C1763 0.950 . S
C1752 H1744 0.950 . S
C1752 C1753 1.396 . S
C1752 C1754 1.391 . S
C1753 C1752 1.396 . S
C1753 C1757 1.382 1_565 S
C1754 H1746 0.950 . S
C1754 C1752 1.391 . S
C1754 C1755 1.447 . S
C1755 C1754 1.447 . S
C1755 C1756 1.358 1_565 S
C1755 C1761 1.487 . S
C1756 H1747 0.950 . S
C1756 C1755 1.358 1_545 S
C1756 C1757 1.391 . S
C1757 H1745 0.950 . S
C1757 C1753 1.382 1_545 S
C1757 C1756 1.391 . S
C1758 H1748 0.950 . S
C1758 C1759 1.386 1_545 S
C1758 C1760 1.391 . S
C1759 C1758 1.386 1_565 S
C1759 C1763 1.393 . S
C1760 H1749 0.950 . S
C1760 C1758 1.391 . S
C1760 C1761 1.400 1_545 S
C1761 C1755 1.487 . S
C1761 C1760 1.400 1_565 S
C1761 C1762 1.398 . S
C1762 H1750 0.950 . S
C1762 C1761 1.398 . S
C1762 C1763 1.391 . S
C1763 H1751 0.950 . S
C1763 C1759 1.393 . S
C1763 C1762 1.391 . S
H1764 C1772 0.950 . S
H1765 C1777 0.945 1_545 S
H1766 C1774 0.950 . S
H1767 C1776 0.950 . S
H1768 C1778 0.950 . S
H1769 C1780 0.950 . S
H1770 C1782 0.950 . S
H1771 C1783 0.950 . S
C1772 H1764 0.950 . S
C1772 C1773 1.386 . S
C1772 C1774 1.391 . S
C1773 C1772 1.386 . S
C1773 C1777 1.393 . S
C1774 H1766 0.950 . S
C1774 C1772 1.391 . S
C1774 C1775 1.400 . S
C1775 C1774 1.400 . S
C1775 C1776 1.398 . S
C1775 C1781 1.491 . S
C1776 H1767 0.950 . S
C1776 C1775 1.398 . S
C1776 C1777 1.391 . S
C1777 H1765 0.945 1_565 S
C1777 C1773 1.393 . S
C1777 C1776 1.391 . S
C1778 H1768 0.950 . S
C1778 C1779 1.386 . S
C1778 C1780 1.391 . S
C1779 C1778 1.386 . S
C1779 C1783 1.393 . S
C1780 H1769 0.950 . S
C1780 C1778 1.391 . S
C1780 C1781 1.400 . S
C1781 C1775 1.491 . S
C1781 C1780 1.400 . S
C1781 C1782 1.398 . S
C1782 H1770 0.950 . S
C1782 C1781 1.398 . S
C1782 C1783 1.391 . S
C1783 H1771 0.950 . S
C1783 C1779 1.393 . S
C1783 C1782 1.391 . S
H1784 C1792 0.950 . S
H1785 C1797 0.950 . S
H1786 C1794 0.950 . S
H1787 C1796 0.950 . S
H1788 C1798 0.950 . S
H1789 C1800 0.950 . S
H1790 C1802 0.950 . S
H1791 C1803 0.950 . S
C1792 H1784 0.950 . S
C1792 C1793 1.386 . S
C1792 C1794 1.391 . S
C1793 C1792 1.386 . S
C1793 C1797 1.393 . S
C1794 H1786 0.950 . S
C1794 C1792 1.391 . S
C1794 C1795 1.400 . S
C1795 C1794 1.400 . S
C1795 C1796 1.398 . S
C1795 C1801 1.491 . S
C1796 H1787 0.950 . S
C1796 C1795 1.398 . S
C1796 C1797 1.391 . S
C1797 H1785 0.950 . S
C1797 C1793 1.393 . S
C1797 C1796 1.391 . S
C1798 H1788 0.950 . S
C1798 C1799 1.386 . S
C1798 C1800 1.391 . S
C1799 C1798 1.386 . S
C1799 C1803 1.393 . S
C1800 H1789 0.950 . S
C1800 C1798 1.391 . S
C1800 C1801 1.400 . S
C1801 C1795 1.491 . S
C1801 C1800 1.400 . S
C1801 C1802 1.398 . S
C1802 H1790 0.950 . S
C1802 C1801 1.398 . S
C1802 C1803 1.391 . S
C1803 H1791 0.950 . S
C1803 C1799 1.393 . S
C1803 C1802 1.391 . S
H1804 C1812 0.950 . S
H1805 C1817 0.946 . S
H1806 C1814 0.950 . S
H1807 C1816 0.950 . S
H1808 C1818 0.950 . S
H1809 C1820 0.950 . S
H1810 C1822 0.950 . S
H1811 C1823 0.950 . S
C1812 H1804 0.950 . S
C1812 C1813 1.386 . S
C1812 C1814 1.391 . S
C1813 C1812 1.386 . S
C1813 C1817 1.393 . S
C1814 H1806 0.950 . S
C1814 C1812 1.391 . S
C1814 C1815 1.400 . S
C1815 C1814 1.400 . S
C1815 C1816 1.398 . S
C1815 C1821 1.491 . S
C1816 H1807 0.950 . S
C1816 C1815 1.398 . S
C1816 C1817 1.391 . S
C1817 H1805 0.946 . S
C1817 C1813 1.393 . S
C1817 C1816 1.391 . S
C1818 H1808 0.950 . S
C1818 C1819 1.386 . S
C1818 C1820 1.391 . S
C1819 C1818 1.386 . S
C1819 C1823 1.393 . S
C1820 H1809 0.950 . S
C1820 C1818 1.391 . S
C1820 C1821 1.400 . S
C1821 C1815 1.491 . S
C1821 C1820 1.400 . S
C1821 C1822 1.398 . S
C1822 H1810 0.950 . S
C1822 C1821 1.398 . S
C1822 C1823 1.391 . S
C1823 H1811 0.950 . S
C1823 C1819 1.393 . S
C1823 C1822 1.391 . S
H1824 C1832 0.950 . S
H1825 C1837 0.950 . S
H1826 C1834 0.950 . S
H1827 C1836 0.950 . S
H1828 C1838 0.950 . S
H1829 C1840 0.950 . S
H1830 C1842 0.950 . S
H1831 C1843 0.950 . S
C1832 H1824 0.950 . S
C1832 C1833 1.386 . S
C1832 C1834 1.391 . S
C1833 C1832 1.386 . S
C1833 C1837 1.393 . S
C1834 H1826 0.950 . S
C1834 C1832 1.391 . S
C1834 C1835 1.400 . S
C1835 C1834 1.400 . S
C1835 C1836 1.398 . S
C1835 C1841 1.491 . S
C1836 H1827 0.950 . S
C1836 C1835 1.398 . S
C1836 C1837 1.391 . S
C1837 H1825 0.950 . S
C1837 C1833 1.393 . S
C1837 C1836 1.391 . S
C1838 H1828 0.950 . S
C1838 C1839 1.386 . S
C1838 C1840 1.391 . S
C1839 C1838 1.386 . S
C1839 C1843 1.393 . S
C1840 H1829 0.950 . S
C1840 C1838 1.391 . S
C1840 C1841 1.400 . S
C1841 C1835 1.491 . S
C1841 C1840 1.400 . S
C1841 C1842 1.398 . S
C1842 H1830 0.950 . S
C1842 C1841 1.398 . S
C1842 C1843 1.391 . S
C1843 H1831 0.950 . S
C1843 C1839 1.393 . S
C1843 C1842 1.391 . S
H1844 C1852 0.950 . S
H1845 C1857 0.950 . S
H1846 C1854 0.950 . S
H1847 C1856 0.950 . S
H1848 C1858 0.950 . S
H1849 C1860 0.950 . S
H1850 C1862 0.950 . S
H1851 C1863 0.950 . S
C1852 H1844 0.950 . S
C1852 C1853 1.396 . S
C1852 C1854 1.391 . S
C1853 C1852 1.396 . S
C1853 C1857 1.382 1_556 S
C1854 H1846 0.950 . S
C1854 C1852 1.391 . S
C1854 C1855 1.400 . S
C1855 C1854 1.400 . S
C1855 C1856 1.398 1_556 S
C1855 C1861 1.491 . S
C1856 H1847 0.950 . S
C1856 C1855 1.398 1_554 S
C1856 C1857 1.391 . S
C1857 H1845 0.950 . S
C1857 C1853 1.382 1_554 S
C1857 C1856 1.391 . S
C1858 H1848 0.950 . S
C1858 C1859 1.386 1_554 S
C1858 C1860 1.391 . S
C1859 C1858 1.386 1_556 S
C1859 C1863 1.393 . S
C1860 H1849 0.950 . S
C1860 C1858 1.391 . S
C1860 C1861 1.400 1_554 S
C1861 C1855 1.491 . S
C1861 C1860 1.400 1_556 S
C1861 C1862 1.398 . S
C1862 H1850 0.950 . S
C1862 C1861 1.398 . S
C1862 C1863 1.391 . S
C1863 H1851 0.950 . S
C1863 C1859 1.393 . S
C1863 C1862 1.391 . S
H1864 C1872 0.950 . S
H1865 C1877 0.950 . S
H1866 C1874 0.950 . S
H1867 C1876 0.950 . S
H1868 C1878 0.950 . S
H1869 C1880 0.950 . S
H1870 C1882 0.950 . S
H1871 C1883 0.950 . S
C1872 H1864 0.950 . S
C1872 C1873 1.386 . S
C1872 C1874 1.391 . S
C1873 C1872 1.386 . S
C1873 C1877 1.393 . S
C1874 H1866 0.950 . S
C1874 C1872 1.391 . S
C1874 C1875 1.400 . S
C1875 C1874 1.400 . S
C1875 C1876 1.398 . S
C1875 C1881 1.491 . S
C1876 H1867 0.950 . S
C1876 C1875 1.398 . S
C1876 C1877 1.391 . S
C1877 H1865 0.950 . S
C1877 C1873 1.393 . S
C1877 C1876 1.391 . S
C1878 H1868 0.950 . S
C1878 C1879 1.386 . S
C1878 C1880 1.391 . S
C1879 C1878 1.386 . S
C1879 C1883 1.393 . S
C1880 H1869 0.950 . S
C1880 C1878 1.391 . S
C1880 C1881 1.400 . S
C1881 C1875 1.491 . S
C1881 C1880 1.400 . S
C1881 C1882 1.398 . S
C1882 H1870 0.950 . S
C1882 C1881 1.398 . S
C1882 C1883 1.391 . S
C1883 H1871 0.950 . S
C1883 C1879 1.393 . S
C1883 C1882 1.391 . S
H1884 C1892 0.950 1_455 S
H1885 C1897 0.950 . S
H1886 C1894 0.950 . S
H1887 C1896 0.950 . S
H1888 C1898 0.950 . S
H1889 C1900 0.950 . S
H1890 C1902 0.950 . S
H1891 C1903 0.950 . S
C1892 H1884 0.950 1_655 S
C1892 C1893 1.386 . S
C1892 C1894 1.391 . S
C1893 C1892 1.386 . S
C1893 C1897 1.393 . S
C1894 H1886 0.950 . S
C1894 C1892 1.391 . S
C1894 C1895 1.400 . S
C1895 C1894 1.400 . S
C1895 C1896 1.398 . S
C1895 C1901 1.491 . S
C1896 H1887 0.950 . S
C1896 C1895 1.398 . S
C1896 C1897 1.391 . S
C1897 H1885 0.950 . S
C1897 C1893 1.393 . S
C1897 C1896 1.391 . S
C1898 H1888 0.950 . S
C1898 C1899 1.386 . S
C1898 C1900 1.391 . S
C1899 C1898 1.386 . S
C1899 C1903 1.393 . S
C1900 H1889 0.950 . S
C1900 C1898 1.391 . S
C1900 C1901 1.400 . S
C1901 C1895 1.491 . S
C1901 C1900 1.400 . S
C1901 C1902 1.398 . S
C1902 H1890 0.950 . S
C1902 C1901 1.398 . S
C1902 C1903 1.391 . S
C1903 H1891 0.950 . S
C1903 C1899 1.393 . S
C1903 C1902 1.391 . S
H1904 C1912 0.950 . S
H1905 C1917 0.950 . S
H1906 C1914 0.950 . S
H1907 C1916 0.950 . S
H1908 C1918 0.950 . S
H1909 C1920 0.950 . S
H1910 C1922 0.950 . S
H1911 C1923 0.950 . S
C1912 H1904 0.950 . S
C1912 C1913 1.386 . S
C1912 C1914 1.391 . S
C1913 C1912 1.386 . S
C1913 C1917 1.393 . S
C1914 H1906 0.950 . S
C1914 C1912 1.391 . S
C1914 C1915 1.400 . S
C1915 C1914 1.400 . S
C1915 C1916 1.398 . S
C1915 C1921 1.491 . S
C1916 H1907 0.950 . S
C1916 C1915 1.398 . S
C1916 C1917 1.391 . S
C1917 H1905 0.950 . S
C1917 C1913 1.393 . S
C1917 C1916 1.391 . S
C1918 H1908 0.950 . S
C1918 C1919 1.386 . S
C1918 C1920 1.391 . S
C1919 C1918 1.386 . S
C1919 C1923 1.393 . S
C1920 H1909 0.950 . S
C1920 C1918 1.391 . S
C1920 C1921 1.400 . S
C1921 C1915 1.491 . S
C1921 C1920 1.400 . S
C1921 C1922 1.398 . S
C1922 H1910 0.950 . S
C1922 C1921 1.398 . S
C1922 C1923 1.391 . S
C1923 H1911 0.950 . S
C1923 C1919 1.393 . S
C1923 C1922 1.391 . S
H1924 C1932 0.950 . S
H1925 C1937 0.950 . S
H1926 C1934 0.950 . S
H1927 C1936 0.950 . S
H1928 C1938 0.950 . S
H1929 C1940 0.950 . S
H1930 C1942 0.950 . S
H1931 C1943 0.950 . S
C1932 H1924 0.950 . S
C1932 C1933 1.407 . S
C1932 C1934 1.391 . S
C1933 C1932 1.407 . S
C1933 C1937 1.374 1_455 S
C1934 H1926 0.950 . S
C1934 C1932 1.391 . S
C1934 C1935 1.385 1_455 S
C1935 C1934 1.385 1_655 S
C1935 C1936 1.415 . S
C1935 C1941 1.490 . S
C1936 H1927 0.950 . S
C1936 C1935 1.415 . S
C1936 C1937 1.391 . S
C1937 H1925 0.950 . S
C1937 C1933 1.374 1_655 S
C1937 C1936 1.391 . S
C1938 H1928 0.950 . S
C1938 C1939 1.386 . S
C1938 C1940 1.391 . S
C1939 C1938 1.386 . S
C1939 C1943 1.393 1_655 S
C1940 H1929 0.950 . S
C1940 C1938 1.391 . S
C1940 C1941 1.400 . S
C1941 C1935 1.490 . S
C1941 C1940 1.400 . S
C1941 C1942 1.398 1_655 S
C1942 H1930 0.950 . S
C1942 C1941 1.398 1_455 S
C1942 C1943 1.391 . S
C1943 H1931 0.950 . S
C1943 C1939 1.393 1_455 S
C1943 C1942 1.391 . S
H1944 C1952 0.950 . S
H1945 C1957 0.950 . S
H1946 C1954 0.950 . S
H1947 C1956 0.950 . S
H1948 C1958 0.950 . S
H1949 C1960 0.950 . S
H1950 C1962 0.950 . S
H1951 C1963 0.950 . S
C1952 H1944 0.950 . S
C1952 C1953 1.386 . S
C1952 C1954 1.391 . S
C1953 C1952 1.386 . S
C1953 C1957 1.393 . S
C1954 H1946 0.950 . S
C1954 C1952 1.391 . S
C1954 C1955 1.400 . S
C1955 C1954 1.400 . S
C1955 C1956 1.398 . S
C1955 C1961 1.491 . S
C1956 H1947 0.950 . S
C1956 C1955 1.398 . S
C1956 C1957 1.391 . S
C1957 H1945 0.950 . S
C1957 C1953 1.393 . S
C1957 C1956 1.391 . S
C1958 H1948 0.950 . S
C1958 C1959 1.386 . S
C1958 C1960 1.391 . S
C1959 C1958 1.386 . S
C1959 C1963 1.393 . S
C1960 H1949 0.950 . S
C1960 C1958 1.391 . S
C1960 C1961 1.400 . S
C1961 C1955 1.491 . S
C1961 C1960 1.400 . S
C1961 C1962 1.398 . S
C1962 H1950 0.950 . S
C1962 C1961 1.398 . S
C1962 C1963 1.391 . S
C1963 H1951 0.950 . S
C1963 C1959 1.393 . S
C1963 C1962 1.391 . S
H1964 C1972 0.950 . S
H1965 C1977 0.950 . S
H1966 C1974 0.950 . S
H1967 C1976 0.950 . S
H1968 C1978 0.950 . S
H1969 C1980 0.950 . S
H1970 C1982 0.950 . S
H1971 C1983 0.950 . S
C1972 H1964 0.950 . S
C1972 C1973 1.386 . S
C1972 C1974 1.391 . S
C1973 C1972 1.386 . S
C1973 C1977 1.393 . S
C1974 H1966 0.950 . S
C1974 C1972 1.391 . S
C1974 C1975 1.400 . S
C1975 C1974 1.400 . S
C1975 C1976 1.398 . S
C1975 C1981 1.491 . S
C1976 H1967 0.950 . S
C1976 C1975 1.398 . S
C1976 C1977 1.391 . S
C1977 H1965 0.950 . S
C1977 C1973 1.393 . S
C1977 C1976 1.391 . S
C1978 H1968 0.950 . S
C1978 C1979 1.386 . S
C1978 C1980 1.391 . S
C1979 C1978 1.386 . S
C1979 C1983 1.393 . S
C1980 H1969 0.950 . S
C1980 C1978 1.391 . S
C1980 C1981 1.400 . S
C1981 C1975 1.491 . S
C1981 C1980 1.400 . S
C1981 C1982 1.398 . S
C1982 H1970 0.950 . S
C1982 C1981 1.398 . S
C1982 C1983 1.391 . S
C1983 H1971 0.950 . S
C1983 C1979 1.393 . S
C1983 C1982 1.391 . S
H1984 C1992 0.950 . S
H1985 C1997 0.950 . S
H1986 C1994 0.950 . S
H1987 C1996 0.950 . S
H1988 C1998 0.950 . S
H1989 C2000 0.950 . S
H1990 C2002 0.950 . S
H1991 C2003 0.950 . S
C1992 H1984 0.950 . S
C1992 C1993 1.367 1_545 S
C1992 C1994 1.391 . S
C1993 C1992 1.367 1_565 S
C1993 C1997 1.416 . S
C1994 H1986 0.950 . S
C1994 C1992 1.391 . S
C1994 C1995 1.411 . S
C1995 C1994 1.411 . S
C1995 C1996 1.388 1_545 S
C1995 C2001 1.490 . S
C1996 H1987 0.950 . S
C1996 C1995 1.388 1_565 S
C1996 C1997 1.391 . S
C1997 H1985 0.950 . S
C1997 C1993 1.416 . S
C1997 C1996 1.391 . S
C1998 H1988 0.950 . S
C1998 C1999 1.386 1_565 S
C1998 C2000 1.391 . S
C1999 C1998 1.386 1_545 S
C1999 C2003 1.393 . S
C2000 H1989 0.950 . S
C2000 C1998 1.391 . S
C2000 C2001 1.400 1_565 S
C2001 C1995 1.490 . S
C2001 C2000 1.400 1_545 S
C2001 C2002 1.398 . S
C2002 H1990 0.950 . S
C2002 C2001 1.398 . S
C2002 C2003 1.391 . S
C2003 H1991 0.950 . S
C2003 C1999 1.393 . S
C2003 C2002 1.391 . S
H2004 C2012 0.950 . S
H2005 C2017 0.950 . S
H2006 C2014 0.950 . S
H2007 C2016 0.950 . S
H2008 C2018 0.950 . S
H2009 C2020 0.950 . S
H2010 C2022 0.950 . S
H2011 C2023 0.950 . S
C2012 H2004 0.950 . S
C2012 C2013 1.386 . S
C2012 C2014 1.391 . S
C2013 C2012 1.386 . S
C2013 C2017 1.393 . S
C2014 H2006 0.950 . S
C2014 C2012 1.391 . S
C2014 C2015 1.400 . S
C2015 C2014 1.400 . S
C2015 C2016 1.398 . S
C2015 C2021 1.491 . S
C2016 H2007 0.950 . S
C2016 C2015 1.398 . S
C2016 C2017 1.391 . S
C2017 H2005 0.950 . S
C2017 C2013 1.393 . S
C2017 C2016 1.391 . S
C2018 H2008 0.950 . S
C2018 C2019 1.386 . S
C2018 C2020 1.391 . S
C2019 C2018 1.386 . S
C2019 C2023 1.393 . S
C2020 H2009 0.950 . S
C2020 C2018 1.391 . S
C2020 C2021 1.400 . S
C2021 C2015 1.491 . S
C2021 C2020 1.400 . S
C2021 C2022 1.398 . S
C2022 H2010 0.950 . S
C2022 C2021 1.398 . S
C2022 C2023 1.391 . S
C2023 H2011 0.950 . S
C2023 C2019 1.393 . S
C2023 C2022 1.391 . S
H2024 C2032 0.950 . S
H2025 C2037 0.950 . S
H2026 C2034 0.950 . S
H2027 C2036 0.950 . S
H2028 C2038 0.950 . S
H2029 C2040 0.950 . S
H2030 C2042 0.950 . S
H2031 C2043 0.950 . S
C2032 H2024 0.950 . S
C2032 C2033 1.386 . S
C2032 C2034 1.391 . S
C2033 C2032 1.386 . S
C2033 C2037 1.393 . S
C2034 H2026 0.950 . S
C2034 C2032 1.391 . S
C2034 C2035 1.400 . S
C2035 C2034 1.400 . S
C2035 C2036 1.398 . S
C2035 C2041 1.491 . S
C2036 H2027 0.950 . S
C2036 C2035 1.398 . S
C2036 C2037 1.391 . S
C2037 H2025 0.950 . S
C2037 C2033 1.393 . S
C2037 C2036 1.391 . S
C2038 H2028 0.950 . S
C2038 C2039 1.386 . S
C2038 C2040 1.391 . S
C2039 C2038 1.386 . S
C2039 C2043 1.393 . S
C2040 H2029 0.950 . S
C2040 C2038 1.391 . S
C2040 C2041 1.400 . S
C2041 C2035 1.491 . S
C2041 C2040 1.400 . S
C2041 C2042 1.398 . S
C2042 H2030 0.950 . S
C2042 C2041 1.398 . S
C2042 C2043 1.391 . S
C2043 H2031 0.950 . S
C2043 C2039 1.393 . S
C2043 C2042 1.391 . S
H2044 C2052 0.950 . S
H2045 C2057 0.950 . S
H2046 C2054 0.950 . S
H2047 C2056 0.950 . S
H2048 C2058 0.950 . S
H2049 C2060 0.950 . S
H2050 C2062 0.950 . S
H2051 C2063 0.950 . S
C2052 H2044 0.950 . S
C2052 C2053 1.386 . S
C2052 C2054 1.391 . S
C2053 C2052 1.386 . S
C2053 C2057 1.393 . S
C2054 H2046 0.950 . S
C2054 C2052 1.391 . S
C2054 C2055 1.400 . S
C2055 C2054 1.400 . S
C2055 C2056 1.398 . S
C2055 C2061 1.491 . S
C2056 H2047 0.950 . S
C2056 C2055 1.398 . S
C2056 C2057 1.391 . S
C2057 H2045 0.950 . S
C2057 C2053 1.393 . S
C2057 C2056 1.391 . S
C2058 H2048 0.950 . S
C2058 C2059 1.386 . S
C2058 C2060 1.391 . S
C2059 C2058 1.386 . S
C2059 C2063 1.393 . S
C2060 H2049 0.950 . S
C2060 C2058 1.391 . S
C2060 C2061 1.400 . S
C2061 C2055 1.491 . S
C2061 C2060 1.400 . S
C2061 C2062 1.398 . S
C2062 H2050 0.950 . S
C2062 C2061 1.398 . S
C2062 C2063 1.391 . S
C2063 H2051 0.950 . S
C2063 C2059 1.393 . S
C2063 C2062 1.391 . S
H2064 C2072 0.950 . S
H2065 C2077 0.950 . S
H2066 C2074 0.950 . S
H2067 C2076 0.950 . S
H2068 C2078 0.950 . S
H2069 C2080 0.950 . S
H2070 C2082 0.950 . S
H2071 C2083 0.950 . S
C2072 H2064 0.950 . S
C2072 C2073 1.386 . S
C2072 C2074 1.391 . S
C2073 C2072 1.386 . S
C2073 C2077 1.393 . S
C2074 H2066 0.950 . S
C2074 C2072 1.391 . S
C2074 C2075 1.400 . S
C2075 C2074 1.400 . S
C2075 C2076 1.398 . S
C2075 C2081 1.491 . S
C2076 H2067 0.950 . S
C2076 C2075 1.398 . S
C2076 C2077 1.391 . S
C2077 H2065 0.950 . S
C2077 C2073 1.393 . S
C2077 C2076 1.391 . S
C2078 H2068 0.950 . S
C2078 C2079 1.386 . S
C2078 C2080 1.391 . S
C2079 C2078 1.386 . S
C2079 C2083 1.393 . S
C2080 H2069 0.950 . S
C2080 C2078 1.391 . S
C2080 C2081 1.400 . S
C2081 C2075 1.491 . S
C2081 C2080 1.400 . S
C2081 C2082 1.398 . S
C2082 H2070 0.950 . S
C2082 C2081 1.398 . S
C2082 C2083 1.391 . S
C2083 H2071 0.950 . S
C2083 C2079 1.393 . S
C2083 C2082 1.391 . S
H2084 C2092 0.950 . S
H2085 C2097 0.950 . S
H2086 C2094 0.950 . S
H2087 C2096 0.950 . S
H2088 C2098 0.950 . S
H2089 C2100 0.950 . S
H2090 C2102 0.950 . S
H2091 C2103 0.950 . S
C2092 H2084 0.950 . S
C2092 C2093 1.401 . S
C2092 C2094 1.391 . S
C2093 C2092 1.401 . S
C2093 C2097 1.381 1_556 S
C2094 H2086 0.950 . S
C2094 C2092 1.391 . S
C2094 C2095 1.391 1_556 S
C2095 C2094 1.391 1_554 S
C2095 C2096 1.409 . S
C2095 C2101 1.490 . S
C2096 H2087 0.950 . S
C2096 C2095 1.409 . S
C2096 C2097 1.391 . S
C2097 H2085 0.950 . S
C2097 C2093 1.381 1_554 S
C2097 C2096 1.391 . S
C2098 H2088 0.950 . S
C2098 C2099 1.386 . S
C2098 C2100 1.391 . S
C2099 C2098 1.386 . S
C2099 C2103 1.393 1_554 S
C2100 H2089 0.950 . S
C2100 C2098 1.391 . S
C2100 C2101 1.400 . S
C2101 C2095 1.490 . S
C2101 C2100 1.400 . S
C2101 C2102 1.398 1_554 S
C2102 H2090 0.950 . S
C2102 C2101 1.398 1_556 S
C2102 C2103 1.391 . S
C2103 H2091 0.950 . S
C2103 C2099 1.393 1_556 S
C2103 C2102 1.391 . S
H2104 C2112 0.950 . S
H2105 C2117 0.950 . S
H2106 C2114 0.950 . S
H2107 C2116 0.950 . S
H2108 C2118 0.950 . S
H2109 C2120 0.950 . S
H2110 C2122 0.950 . S
H2111 C2123 0.950 . S
C2112 H2104 0.950 . S
C2112 C2113 1.386 . S
C2112 C2114 1.391 . S
C2113 C2112 1.386 . S
C2113 C2117 1.393 . S
C2114 H2106 0.950 . S
C2114 C2112 1.391 . S
C2114 C2115 1.400 . S
C2115 C2114 1.400 . S
C2115 C2116 1.398 . S
C2115 C2121 1.491 . S
C2116 H2107 0.950 . S
C2116 C2115 1.398 . S
C2116 C2117 1.391 . S
C2117 H2105 0.950 . S
C2117 C2113 1.393 . S
C2117 C2116 1.391 . S
C2118 H2108 0.950 . S
C2118 C2119 1.386 . S
C2118 C2120 1.391 . S
C2119 C2118 1.386 . S
C2119 C2123 1.393 . S
C2120 H2109 0.950 . S
C2120 C2118 1.391 . S
C2120 C2121 1.400 . S
C2121 C2115 1.491 . S
C2121 C2120 1.400 . S
C2121 C2122 1.398 . S
C2122 H2110 0.950 . S
C2122 C2121 1.398 . S
C2122 C2123 1.391 . S
C2123 H2111 0.950 . S
C2123 C2119 1.393 . S
C2123 C2122 1.391 . S
H2124 C2132 0.950 . S
H2125 C2137 0.950 . S
H2126 C2134 0.950 . S
H2127 C2136 0.950 . S
H2128 C2138 0.950 . S
H2129 C2140 0.950 . S
H2130 C2142 0.950 . S
H2131 C2143 0.950 . S
C2132 H2124 0.950 . S
C2132 C2133 1.386 . S
C2132 C2134 1.391 . S
C2133 C2132 1.386 . S
C2133 C2137 1.393 . S
C2134 H2126 0.950 . S
C2134 C2132 1.391 . S
C2134 C2135 1.400 . S
C2135 C2134 1.400 . S
C2135 C2136 1.398 . S
C2135 C2141 1.491 . S
C2136 H2127 0.950 . S
C2136 C2135 1.398 . S
C2136 C2137 1.391 . S
C2137 H2125 0.950 . S
C2137 C2133 1.393 . S
C2137 C2136 1.391 . S
C2138 H2128 0.950 . S
C2138 C2139 1.386 . S
C2138 C2140 1.391 . S
C2139 C2138 1.386 . S
C2139 C2143 1.393 . S
C2140 H2129 0.950 . S
C2140 C2138 1.391 . S
C2140 C2141 1.400 . S
C2141 C2135 1.491 . S
C2141 C2140 1.400 . S
C2141 C2142 1.398 . S
C2142 H2130 0.950 . S
C2142 C2141 1.398 . S
C2142 C2143 1.391 . S
C2143 H2131 0.950 . S
C2143 C2139 1.393 . S
C2143 C2142 1.391 . S
H2144 C2152 0.950 . S
H2145 C2157 0.950 . S
H2146 C2154 0.950 . S
H2147 C2156 0.950 . S
H2148 C2158 0.950 . S
H2149 C2160 0.950 . S
H2150 C2162 0.950 . S
H2151 C2163 0.950 . S
C2152 H2144 0.950 . S
C2152 C2153 1.386 . S
C2152 C2154 1.391 . S
C2153 C2152 1.386 . S
C2153 C2157 1.393 . S
C2154 H2146 0.950 . S
C2154 C2152 1.391 . S
C2154 C2155 1.400 . S
C2155 C2154 1.400 . S
C2155 C2156 1.398 . S
C2155 C2161 1.491 . S
C2156 H2147 0.950 . S
C2156 C2155 1.398 . S
C2156 C2157 1.391 . S
C2157 H2145 0.950 . S
C2157 C2153 1.393 . S
C2157 C2156 1.391 . S
C2158 H2148 0.950 . S
C2158 C2159 1.386 . S
C2158 C2160 1.391 . S
C2159 C2158 1.386 . S
C2159 C2163 1.393 . S
C2160 H2149 0.950 . S
C2160 C2158 1.391 . S
C2160 C2161 1.400 . S
C2161 C2155 1.491 . S
C2161 C2160 1.400 . S
C2161 C2162 1.398 . S
C2162 H2150 0.950 . S
C2162 C2161 1.398 . S
C2162 C2163 1.391 . S
C2163 H2151 0.950 . S
C2163 C2159 1.393 . S
C2163 C2162 1.391 . S
H2164 C2172 0.950 . S
H2165 C2177 0.950 . S
H2166 C2174 0.950 . S
H2167 C2176 0.950 . S
H2168 C2178 0.950 . S
H2169 C2180 0.950 . S
H2170 C2182 0.950 . S
H2171 C2183 0.950 . S
C2172 H2164 0.950 . S
C2172 C2173 1.389 1_455 S
C2172 C2174 1.391 . S
C2173 C2172 1.389 1_655 S
C2173 C2177 1.389 . S
C2174 H2166 0.950 . S
C2174 C2172 1.391 . S
C2174 C2175 1.443 . S
C2175 C2174 1.443 . S
C2175 C2176 1.360 1_455 S
C2175 C2181 1.488 . S
C2176 H2167 0.950 . S
C2176 C2175 1.360 1_655 S
C2176 C2177 1.391 . S
C2177 H2165 0.950 . S
C2177 C2173 1.389 . S
C2177 C2176 1.391 . S
C2178 H2168 0.950 . S
C2178 C2179 1.386 1_655 S
C2178 C2180 1.391 . S
C2179 C2178 1.386 1_455 S
C2179 C2183 1.393 . S
C2180 H2169 0.950 . S
C2180 C2178 1.391 . S
C2180 C2181 1.400 1_655 S
C2181 C2175 1.488 . S
C2181 C2180 1.400 1_455 S
C2181 C2182 1.398 . S
C2182 H2170 0.950 . S
C2182 C2181 1.398 . S
C2182 C2183 1.391 . S
C2183 H2171 0.950 . S
C2183 C2179 1.393 . S
C2183 C2182 1.391 . S
H2184 C2192 0.950 . S
H2185 C2197 0.950 . S
H2186 C2194 0.950 . S
H2187 C2196 0.950 . S
H2188 C2198 0.950 . S
H2189 C2200 0.950 . S
H2190 C2202 0.950 . S
H2191 C2203 0.950 . S
C2192 H2184 0.950 . S
C2192 C2193 1.386 . S
C2192 C2194 1.391 . S
C2193 C2192 1.386 . S
C2193 C2197 1.393 . S
C2194 H2186 0.950 . S
C2194 C2192 1.391 . S
C2194 C2195 1.400 . S
C2195 C2194 1.400 . S
C2195 C2196 1.398 . S
C2195 C2201 1.491 . S
C2196 H2187 0.950 . S
C2196 C2195 1.398 . S
C2196 C2197 1.391 . S
C2197 H2185 0.950 . S
C2197 C2193 1.393 . S
C2197 C2196 1.391 . S
C2198 H2188 0.950 . S
C2198 C2199 1.386 . S
C2198 C2200 1.391 . S
C2199 C2198 1.386 . S
C2199 C2203 1.393 . S
C2200 H2189 0.950 . S
C2200 C2198 1.391 . S
C2200 C2201 1.400 . S
C2201 C2195 1.491 . S
C2201 C2200 1.400 . S
C2201 C2202 1.398 . S
C2202 H2190 0.950 . S
C2202 C2201 1.398 . S
C2202 C2203 1.391 . S
C2203 H2191 0.950 . S
C2203 C2199 1.393 . S
C2203 C2202 1.391 . S
H2204 C2212 0.950 . S
H2205 C2217 0.950 . S
H2206 C2214 0.950 . S
H2207 C2216 0.950 . S
H2208 C2218 0.950 . S
H2209 C2220 0.950 . S
H2210 C2222 0.950 . S
H2211 C2223 0.950 . S
C2212 H2204 0.950 . S
C2212 C2213 1.386 . S
C2212 C2214 1.391 . S
C2213 C2212 1.386 . S
C2213 C2217 1.393 . S
C2214 H2206 0.950 . S
C2214 C2212 1.391 . S
C2214 C2215 1.400 . S
C2215 C2214 1.400 . S
C2215 C2216 1.398 . S
C2215 C2221 1.491 . S
C2216 H2207 0.950 . S
C2216 C2215 1.398 . S
C2216 C2217 1.391 . S
C2217 H2205 0.950 . S
C2217 C2213 1.393 . S
C2217 C2216 1.391 . S
C2218 H2208 0.950 . S
C2218 C2219 1.386 . S
C2218 C2220 1.391 . S
C2219 C2218 1.386 . S
C2219 C2223 1.393 . S
C2220 H2209 0.950 . S
C2220 C2218 1.391 . S
C2220 C2221 1.400 . S
C2221 C2215 1.491 . S
C2221 C2220 1.400 . S
C2221 C2222 1.398 . S
C2222 H2210 0.950 . S
C2222 C2221 1.398 . S
C2222 C2223 1.391 . S
C2223 H2211 0.950 . S
C2223 C2219 1.393 . S
C2223 C2222 1.391 . S
H2224 C2232 0.950 . S
H2225 C2237 0.950 . S
H2226 C2234 0.950 . S
H2227 C2236 0.950 . S
H2228 C2238 0.950 . S
H2229 C2240 0.950 . S
H2230 C2242 0.950 . S
H2231 C2243 0.950 . S
C2232 H2224 0.950 . S
C2232 C2233 1.386 . S
C2232 C2234 1.391 . S
C2233 C2232 1.386 . S
C2233 C2237 1.393 1_565 S
C2234 H2226 0.950 . S
C2234 C2232 1.391 . S
C2234 C2235 1.400 . S
C2235 C2234 1.400 . S
C2235 C2236 1.398 1_565 S
C2235 C2241 1.491 . S
C2236 H2227 0.950 . S
C2236 C2235 1.398 1_545 S
C2236 C2237 1.391 . S
C2237 H2225 0.950 . S
C2237 C2233 1.393 1_545 S
C2237 C2236 1.391 . S
C2238 H2228 0.950 . S
C2238 C2239 1.386 1_545 S
C2238 C2240 1.391 . S
C2239 C2238 1.386 1_565 S
C2239 C2243 1.393 . S
C2240 H2229 0.950 . S
C2240 C2238 1.391 . S
C2240 C2241 1.400 1_545 S
C2241 C2235 1.491 . S
C2241 C2240 1.400 1_565 S
C2241 C2242 1.398 . S
C2242 H2230 0.950 . S
C2242 C2241 1.398 . S
C2242 C2243 1.391 . S
C2243 H2231 0.950 . S
C2243 C2239 1.393 . S
C2243 C2242 1.391 . S
H2244 C2252 0.950 . S
H2245 C2257 0.950 . S
H2246 C2254 0.950 . S
H2247 C2256 0.950 . S
H2248 C2258 0.950 . S
H2249 C2260 0.950 . S
H2250 C2262 0.950 . S
H2251 C2263 0.950 . S
C2252 H2244 0.950 . S
C2252 C2253 1.386 . S
C2252 C2254 1.391 . S
C2253 C2252 1.386 . S
C2253 C2257 1.393 . S
C2254 H2246 0.950 . S
C2254 C2252 1.391 . S
C2254 C2255 1.400 . S
C2255 C2254 1.400 . S
C2255 C2256 1.398 . S
C2255 C2261 1.491 . S
C2256 H2247 0.950 . S
C2256 C2255 1.398 . S
C2256 C2257 1.391 . S
C2257 H2245 0.950 . S
C2257 C2253 1.393 . S
C2257 C2256 1.391 . S
C2258 H2248 0.950 . S
C2258 C2259 1.386 . S
C2258 C2260 1.391 . S
C2259 C2258 1.386 . S
C2259 C2263 1.393 . S
C2260 H2249 0.950 . S
C2260 C2258 1.391 . S
C2260 C2261 1.400 . S
C2261 C2255 1.491 . S
C2261 C2260 1.400 . S
C2261 C2262 1.398 . S
C2262 H2250 0.950 . S
C2262 C2261 1.398 . S
C2262 C2263 1.391 . S
C2263 H2251 0.950 . S
C2263 C2259 1.393 . S
C2263 C2262 1.391 . S
H2264 C2272 0.950 . S
H2265 C2277 0.950 . S
H2266 C2274 0.950 . S
H2267 C2276 0.950 . S
H2268 C2278 0.950 . S
H2269 C2280 0.950 . S
H2270 C2282 0.950 . S
H2271 C2283 0.950 . S
C2272 H2264 0.950 . S
C2272 C2273 1.386 . S
C2272 C2274 1.391 . S
C2273 C2272 1.386 . S
C2273 C2277 1.393 . S
C2274 H2266 0.950 . S
C2274 C2272 1.391 . S
C2274 C2275 1.400 . S
C2275 C2274 1.400 . S
C2275 C2276 1.398 . S
C2275 C2281 1.491 . S
C2276 H2267 0.950 . S
C2276 C2275 1.398 . S
C2276 C2277 1.391 . S
C2277 H2265 0.950 . S
C2277 C2273 1.393 . S
C2277 C2276 1.391 . S
C2278 H2268 0.950 . S
C2278 C2279 1.386 . S
C2278 C2280 1.391 . S
C2279 C2278 1.386 . S
C2279 C2283 1.393 . S
C2280 H2269 0.950 . S
C2280 C2278 1.391 . S
C2280 C2281 1.400 . S
C2281 C2275 1.491 . S
C2281 C2280 1.400 . S
C2281 C2282 1.398 . S
C2282 H2270 0.950 . S
C2282 C2281 1.398 . S
C2282 C2283 1.391 . S
C2283 H2271 0.950 . S
C2283 C2279 1.393 . S
C2283 C2282 1.391 . S
H2284 C2292 0.950 . S
H2285 C2297 0.950 . S
H2286 C2294 0.950 . S
H2287 C2296 0.950 . S
H2288 C2298 0.950 . S
H2289 C2300 0.950 . S
H2290 C2302 0.950 . S
H2291 C2303 0.950 . S
C2292 H2284 0.950 . S
C2292 C2293 1.386 . S
C2292 C2294 1.391 . S
C2293 C2292 1.386 . S
C2293 C2297 1.393 . S
C2294 H2286 0.950 . S
C2294 C2292 1.391 . S
C2294 C2295 1.400 . S
C2295 C2294 1.400 . S
C2295 C2296 1.398 . S
C2295 C2301 1.491 . S
C2296 H2287 0.950 . S
C2296 C2295 1.398 . S
C2296 C2297 1.391 . S
C2297 H2285 0.950 . S
C2297 C2293 1.393 . S
C2297 C2296 1.391 . S
C2298 H2288 0.950 . S
C2298 C2299 1.386 . S
C2298 C2300 1.391 . S
C2299 C2298 1.386 . S
C2299 C2303 1.393 . S
C2300 H2289 0.950 . S
C2300 C2298 1.391 . S
C2300 C2301 1.400 . S
C2301 C2295 1.491 . S
C2301 C2300 1.400 . S
C2301 C2302 1.398 . S
C2302 H2290 0.950 . S
C2302 C2301 1.398 . S
C2302 C2303 1.391 . S
C2303 H2291 0.950 . S
C2303 C2299 1.393 . S
C2303 C2302 1.391 . S
H2304 C2312 0.950 . S
H2305 C2317 0.950 . S
H2306 C2314 0.950 . S
H2307 C2316 0.950 . S
H2308 C2318 0.950 . S
H2309 C2320 0.950 . S
H2310 C2322 0.950 . S
H2311 C2323 0.950 . S
C2312 H2304 0.950 . S
C2312 C2313 1.386 . S
C2312 C2314 1.391 . S
C2313 C2312 1.386 . S
C2313 C2317 1.393 . S
C2314 H2306 0.950 . S
C2314 C2312 1.391 . S
C2314 C2315 1.400 . S
C2315 C2314 1.400 . S
C2315 C2316 1.398 . S
C2315 C2321 1.491 . S
C2316 H2307 0.950 . S
C2316 C2315 1.398 . S
C2316 C2317 1.391 . S
C2317 H2305 0.950 . S
C2317 C2313 1.393 . S
C2317 C2316 1.391 . S
C2318 H2308 0.950 . S
C2318 C2319 1.386 . S
C2318 C2320 1.391 . S
C2319 C2318 1.386 . S
C2319 C2323 1.393 . S
C2320 H2309 0.950 . S
C2320 C2318 1.391 . S
C2320 C2321 1.400 . S
C2321 C2315 1.491 . S
C2321 C2320 1.400 . S
C2321 C2322 1.398 . S
C2322 H2310 0.950 . S
C2322 C2321 1.398 . S
C2322 C2323 1.391 . S
C2323 H2311 0.950 . S
C2323 C2319 1.393 . S
C2323 C2322 1.391 . S
H2324 C2332 0.950 . S
H2325 C2337 0.950 . S
H2326 C2334 0.950 . S
H2327 C2336 0.950 . S
H2328 C2338 0.950 . S
H2329 C2340 0.950 . S
H2330 C2342 0.950 . S
H2331 C2343 0.950 . S
C2332 H2324 0.950 . S
C2332 C2333 1.386 . S
C2332 C2334 1.391 . S
C2333 C2332 1.386 . S
C2333 C2337 1.393 1_556 S
C2334 H2326 0.950 . S
C2334 C2332 1.391 . S
C2334 C2335 1.400 . S
C2335 C2334 1.400 . S
C2335 C2336 1.398 1_556 S
C2335 C2341 1.491 . S
C2336 H2327 0.950 . S
C2336 C2335 1.398 1_554 S
C2336 C2337 1.391 . S
C2337 H2325 0.950 . S
C2337 C2333 1.393 1_554 S
C2337 C2336 1.391 . S
C2338 H2328 0.950 . S
C2338 C2339 1.386 1_554 S
C2338 C2340 1.391 . S
C2339 C2338 1.386 1_556 S
C2339 C2343 1.393 . S
C2340 H2329 0.950 . S
C2340 C2338 1.391 . S
C2340 C2341 1.400 1_554 S
C2341 C2335 1.491 . S
C2341 C2340 1.400 1_556 S
C2341 C2342 1.398 . S
C2342 H2330 0.950 . S
C2342 C2341 1.398 . S
C2342 C2343 1.391 . S
C2343 H2331 0.950 . S
C2343 C2339 1.393 . S
C2343 C2342 1.391 . S
H2344 C2352 0.950 . S
H2345 C2357 0.950 . S
H2346 C2354 0.950 . S
H2347 C2356 0.950 . S
H2348 C2358 0.950 . S
H2349 C2360 0.950 . S
H2350 C2362 0.950 . S
H2351 C2363 0.950 . S
C2352 H2344 0.950 . S
C2352 C2353 1.386 . S
C2352 C2354 1.391 . S
C2353 C2352 1.386 . S
C2353 C2357 1.393 . S
C2354 H2346 0.950 . S
C2354 C2352 1.391 . S
C2354 C2355 1.400 . S
C2355 C2354 1.400 . S
C2355 C2356 1.398 . S
C2355 C2361 1.491 . S
C2356 H2347 0.950 . S
C2356 C2355 1.398 . S
C2356 C2357 1.391 . S
C2357 H2345 0.950 . S
C2357 C2353 1.393 . S
C2357 C2356 1.391 . S
C2358 H2348 0.950 . S
C2358 C2359 1.386 . S
C2358 C2360 1.391 . S
C2359 C2358 1.386 . S
C2359 C2363 1.393 . S
C2360 H2349 0.950 . S
C2360 C2358 1.391 . S
C2360 C2361 1.400 . S
C2361 C2355 1.491 . S
C2361 C2360 1.400 . S
C2361 C2362 1.398 . S
C2362 H2350 0.950 . S
C2362 C2361 1.398 . S
C2362 C2363 1.391 . S
C2363 H2351 0.950 . S
C2363 C2359 1.393 . S
C2363 C2362 1.391 . S
H2364 C2372 0.950 . S
H2365 C2377 0.950 1_655 S
H2366 C2374 0.950 . S
H2367 C2376 0.950 1_655 S
H2368 C2378 0.936 1_655 S
H2369 C2380 0.950 1_655 S
H2370 C2382 0.950 . S
H2371 C2383 0.950 . S
C2372 H2364 0.950 . S
C2372 C2373 1.386 . S
C2372 C2374 1.391 . S
C2373 C2372 1.386 . S
C2373 C2377 1.393 . S
C2374 H2366 0.950 . S
C2374 C2372 1.391 . S
C2374 C2375 1.400 . S
C2375 C2374 1.400 . S
C2375 C2376 1.398 . S
C2375 C2381 1.491 . S
C2376 H2367 0.950 1_455 S
C2376 C2375 1.398 . S
C2376 C2377 1.391 . S
C2377 H2365 0.950 1_455 S
C2377 C2373 1.393 . S
C2377 C2376 1.391 . S
C2378 H2368 0.936 1_455 S
C2378 C2379 1.401 . S
C2378 C2380 1.390 . S
C2379 C2378 1.401 . S
C2379 C2383 1.393 . S
C2380 H2369 0.950 1_455 S
C2380 C2378 1.390 . S
C2380 C2381 1.400 . S
C2381 C2375 1.491 . S
C2381 C2380 1.400 . S
C2381 C2382 1.398 . S
C2382 H2370 0.950 . S
C2382 C2381 1.398 . S
C2382 C2383 1.391 . S
C2383 H2371 0.950 . S
C2383 C2379 1.393 . S
C2383 C2382 1.391 . S
H2384 C2392 0.950 . S
H2385 C2397 0.950 . S
H2386 C2394 0.950 . S
H2387 C2396 0.950 . S
H2388 C2398 0.950 . S
H2389 C2400 0.950 . S
H2390 C2402 0.950 . S
H2391 C2403 0.950 . S
C2392 H2384 0.950 . S
C2392 C2393 1.386 . S
C2392 C2394 1.391 . S
C2393 C2392 1.386 . S
C2393 C2397 1.393 . S
C2394 H2386 0.950 . S
C2394 C2392 1.391 . S
C2394 C2395 1.400 . S
C2395 C2394 1.400 . S
C2395 C2396 1.398 . S
C2395 C2401 1.491 . S
C2396 H2387 0.950 . S
C2396 C2395 1.398 . S
C2396 C2397 1.391 . S
C2397 H2385 0.950 . S
C2397 C2393 1.393 . S
C2397 C2396 1.391 . S
C2398 H2388 0.950 . S
C2398 C2399 1.386 . S
C2398 C2400 1.391 . S
C2399 C2398 1.386 . S
C2399 C2403 1.393 . S
C2400 H2389 0.950 . S
C2400 C2398 1.391 . S
C2400 C2401 1.400 . S
C2401 C2395 1.491 . S
C2401 C2400 1.400 . S
C2401 C2402 1.398 . S
C2402 H2390 0.950 . S
C2402 C2401 1.398 . S
C2402 C2403 1.391 . S
C2403 H2391 0.950 . S
C2403 C2399 1.393 . S
C2403 C2402 1.391 . S
H2404 C2412 0.950 . S
H2405 C2417 0.950 . S
H2406 C2414 0.950 . S
H2407 C2416 0.950 . S
H2408 C2418 0.950 1_455 S
H2409 C2420 0.950 1_455 S
H2410 C2422 0.950 . S
H2411 C2423 0.950 . S
C2412 H2404 0.950 . S
C2412 C2413 1.419 . S
C2412 C2414 1.391 . S
C2413 C2412 1.419 . S
C2413 C2417 1.375 1_655 S
C2414 H2406 0.950 . S
C2414 C2412 1.391 . S
C2414 C2415 1.400 . S
C2415 C2414 1.400 . S
C2415 C2416 1.398 1_655 S
C2415 C2421 1.491 . S
C2416 H2407 0.950 . S
C2416 C2415 1.398 1_455 S
C2416 C2417 1.391 . S
C2417 H2405 0.950 . S
C2417 C2413 1.375 1_455 S
C2417 C2416 1.391 . S
C2418 H2408 0.950 1_655 S
C2418 C2419 1.386 . S
C2418 C2420 1.391 . S
C2419 C2418 1.386 . S
C2419 C2423 1.393 . S
C2420 H2409 0.950 1_655 S
C2420 C2418 1.391 . S
C2420 C2421 1.400 . S
C2421 C2415 1.491 . S
C2421 C2420 1.400 . S
C2421 C2422 1.398 . S
C2422 H2410 0.950 . S
C2422 C2421 1.398 . S
C2422 C2423 1.391 . S
C2423 H2411 0.950 . S
C2423 C2419 1.393 . S
C2423 C2422 1.391 . S
H2424 C2432 0.950 . S
H2425 C2437 0.950 . S
H2426 C2434 0.950 . S
H2427 C2436 0.950 . S
H2428 C2438 0.950 . S
H2429 C2440 0.950 . S
H2430 C2442 0.950 . S
H2431 C2443 0.950 . S
C2432 H2424 0.950 . S
C2432 C2433 1.386 . S
C2432 C2434 1.391 . S
C2433 C2432 1.386 . S
C2433 C2437 1.393 . S
C2434 H2426 0.950 . S
C2434 C2432 1.391 . S
C2434 C2435 1.400 . S
C2435 C2434 1.400 . S
C2435 C2436 1.398 . S
C2435 C2441 1.491 . S
C2436 H2427 0.950 . S
C2436 C2435 1.398 . S
C2436 C2437 1.391 . S
C2437 H2425 0.950 . S
C2437 C2433 1.393 . S
C2437 C2436 1.391 . S
C2438 H2428 0.950 . S
C2438 C2439 1.386 . S
C2438 C2440 1.391 . S
C2439 C2438 1.386 . S
C2439 C2443 1.393 . S
C2440 H2429 0.950 . S
C2440 C2438 1.391 . S
C2440 C2441 1.400 . S
C2441 C2435 1.491 . S
C2441 C2440 1.400 . S
C2441 C2442 1.398 . S
C2442 H2430 0.950 . S
C2442 C2441 1.398 . S
C2442 C2443 1.391 . S
C2443 H2431 0.950 . S
C2443 C2439 1.393 . S
C2443 C2442 1.391 . S
H2444 C2452 0.950 . S
H2445 C2457 0.950 . S
H2446 C2454 0.950 . S
H2447 C2456 0.950 . S
H2448 C2458 0.950 . S
H2449 C2460 0.950 . S
H2450 C2462 0.950 . S
H2451 C2463 0.950 . S
C2452 H2444 0.950 . S
C2452 C2453 1.386 . S
C2452 C2454 1.391 . S
C2453 C2452 1.386 . S
C2453 C2457 1.393 . S
C2454 H2446 0.950 . S
C2454 C2452 1.391 . S
C2454 C2455 1.400 . S
C2455 C2454 1.400 . S
C2455 C2456 1.398 . S
C2455 C2461 1.491 . S
C2456 H2447 0.950 . S
C2456 C2455 1.398 . S
C2456 C2457 1.391 . S
C2457 H2445 0.950 . S
C2457 C2453 1.393 . S
C2457 C2456 1.391 . S
C2458 H2448 0.950 . S
C2458 C2459 1.386 . S
C2458 C2460 1.391 . S
C2459 C2458 1.386 . S
C2459 C2463 1.393 . S
C2460 H2449 0.950 . S
C2460 C2458 1.391 . S
C2460 C2461 1.400 . S
C2461 C2455 1.491 . S
C2461 C2460 1.400 . S
C2461 C2462 1.398 . S
C2462 H2450 0.950 . S
C2462 C2461 1.398 . S
C2462 C2463 1.391 . S
C2463 H2451 0.950 . S
C2463 C2459 1.393 . S
C2463 C2462 1.391 . S
H2464 C2472 0.950 . S
H2465 C2477 0.950 1_565 S
H2466 C2474 0.950 . S
H2467 C2476 0.950 . S
H2468 C2478 0.950 . S
H2469 C2480 0.950 . S
H2470 C2482 0.950 . S
H2471 C2483 0.950 . S
C2472 H2464 0.950 . S
C2472 C2473 1.386 . S
C2472 C2474 1.391 . S
C2473 C2472 1.386 . S
C2473 C2477 1.393 . S
C2474 H2466 0.950 . S
C2474 C2472 1.391 . S
C2474 C2475 1.400 . S
C2475 C2474 1.400 . S
C2475 C2476 1.398 . S
C2475 C2481 1.491 . S
C2476 H2467 0.950 . S
C2476 C2475 1.398 . S
C2476 C2477 1.391 . S
C2477 H2465 0.950 1_545 S
C2477 C2473 1.393 . S
C2477 C2476 1.391 . S
C2478 H2468 0.950 . S
C2478 C2479 1.386 . S
C2478 C2480 1.391 . S
C2479 C2478 1.386 . S
C2479 C2483 1.393 . S
C2480 H2469 0.950 . S
C2480 C2478 1.391 . S
C2480 C2481 1.400 . S
C2481 C2475 1.491 . S
C2481 C2480 1.400 . S
C2481 C2482 1.398 . S
C2482 H2470 0.950 . S
C2482 C2481 1.398 . S
C2482 C2483 1.391 . S
C2483 H2471 0.950 . S
C2483 C2479 1.393 . S
C2483 C2482 1.391 . S
H2484 C2492 0.950 . S
H2485 C2497 0.950 . S
H2486 C2494 0.950 . S
H2487 C2496 0.950 . S
H2488 C2498 0.950 . S
H2489 C2500 0.950 . S
H2490 C2502 0.950 . S
H2491 C2503 0.950 . S
C2492 H2484 0.950 . S
C2492 C2493 1.386 . S
C2492 C2494 1.391 . S
C2493 C2492 1.386 . S
C2493 C2497 1.393 . S
C2494 H2486 0.950 . S
C2494 C2492 1.391 . S
C2494 C2495 1.400 . S
C2495 C2494 1.400 . S
C2495 C2496 1.398 . S
C2495 C2501 1.491 . S
C2496 H2487 0.950 . S
C2496 C2495 1.398 . S
C2496 C2497 1.391 . S
C2497 H2485 0.950 . S
C2497 C2493 1.393 . S
C2497 C2496 1.391 . S
C2498 H2488 0.950 . S
C2498 C2499 1.386 . S
C2498 C2500 1.391 . S
C2499 C2498 1.386 . S
C2499 C2503 1.393 . S
C2500 H2489 0.950 . S
C2500 C2498 1.391 . S
C2500 C2501 1.400 . S
C2501 C2495 1.491 . S
C2501 C2500 1.400 . S
C2501 C2502 1.398 . S
C2502 H2490 0.950 . S
C2502 C2501 1.398 . S
C2502 C2503 1.391 . S
C2503 H2491 0.950 . S
C2503 C2499 1.393 . S
C2503 C2502 1.391 . S
H2504 C2512 0.950 . S
H2505 C2517 0.950 . S
H2506 C2514 0.950 . S
H2507 C2516 0.950 . S
H2508 C2518 0.950 . S
H2509 C2520 0.950 . S
H2510 C2522 0.950 . S
H2511 C2523 0.950 . S
C2512 H2504 0.950 . S
C2512 C2513 1.386 . S
C2512 C2514 1.391 . S
C2513 C2512 1.386 . S
C2513 C2517 1.393 . S
C2514 H2506 0.950 . S
C2514 C2512 1.391 . S
C2514 C2515 1.400 . S
C2515 C2514 1.400 . S
C2515 C2516 1.398 . S
C2515 C2521 1.491 . S
C2516 H2507 0.950 . S
C2516 C2515 1.398 . S
C2516 C2517 1.391 . S
C2517 H2505 0.950 . S
C2517 C2513 1.393 . S
C2517 C2516 1.391 . S
C2518 H2508 0.950 . S
C2518 C2519 1.386 . S
C2518 C2520 1.391 . S
C2519 C2518 1.386 . S
C2519 C2523 1.393 . S
C2520 H2509 0.950 . S
C2520 C2518 1.391 . S
C2520 C2521 1.400 . S
C2521 C2515 1.491 . S
C2521 C2520 1.400 . S
C2521 C2522 1.398 . S
C2522 H2510 0.950 . S
C2522 C2521 1.398 . S
C2522 C2523 1.391 . S
C2523 H2511 0.950 . S
C2523 C2519 1.393 . S
C2523 C2522 1.391 . S
H2524 C2532 0.950 . S
H2525 C2537 0.986 . S
H2526 C2534 0.950 . S
H2527 C2536 0.950 . S
H2528 C2538 0.950 . S
H2529 C2540 0.950 . S
H2530 C2542 0.950 . S
H2531 C2543 0.950 . S
C2532 H2524 0.950 . S
C2532 C2533 1.386 . S
C2532 C2534 1.391 . S
C2533 C2532 1.386 . S
C2533 C2537 1.361 1_556 S
C2534 H2526 0.950 . S
C2534 C2532 1.391 . S
C2534 C2535 1.400 . S
C2535 C2534 1.400 . S
C2535 C2536 1.398 1_556 S
C2535 C2541 1.491 . S
C2536 H2527 0.950 . S
C2536 C2535 1.398 1_554 S
C2536 C2537 1.390 . S
C2537 H2525 0.986 . S
C2537 C2533 1.361 1_554 S
C2537 C2536 1.390 . S
C2538 H2528 0.950 . S
C2538 C2539 1.386 1_554 S
C2538 C2540 1.391 . S
C2539 C2538 1.386 1_556 S
C2539 C2543 1.393 . S
C2540 H2529 0.950 . S
C2540 C2538 1.391 . S
C2540 C2541 1.400 1_554 S
C2541 C2535 1.491 . S
C2541 C2540 1.400 1_556 S
C2541 C2542 1.398 . S
C2542 H2530 0.950 . S
C2542 C2541 1.398 . S
C2542 C2543 1.391 . S
C2543 H2531 0.950 . S
C2543 C2539 1.393 . S
C2543 C2542 1.391 . S
H2544 C2552 0.950 . S
H2545 C2557 0.950 . S
H2546 C2554 0.950 . S
H2547 C2556 0.950 . S
H2548 C2558 0.950 . S
H2549 C2560 0.950 . S
H2550 C2562 0.950 . S
H2551 C2563 0.950 . S
C2552 H2544 0.950 . S
C2552 C2553 1.386 . S
C2552 C2554 1.391 . S
C2553 C2552 1.386 . S
C2553 C2557 1.393 . S
C2554 H2546 0.950 . S
C2554 C2552 1.391 . S
C2554 C2555 1.400 . S
C2555 C2554 1.400 . S
C2555 C2556 1.398 . S
C2555 C2561 1.491 . S
C2556 H2547 0.950 . S
C2556 C2555 1.398 . S
C2556 C2557 1.391 . S
C2557 H2545 0.950 . S
C2557 C2553 1.393 . S
C2557 C2556 1.391 . S
C2558 H2548 0.950 . S
C2558 C2559 1.386 . S
C2558 C2560 1.391 . S
C2559 C2558 1.386 . S
C2559 C2563 1.393 . S
C2560 H2549 0.950 . S
C2560 C2558 1.391 . S
C2560 C2561 1.400 . S
C2561 C2555 1.491 . S
C2561 C2560 1.400 . S
C2561 C2562 1.398 . S
C2562 H2550 0.950 . S
C2562 C2561 1.398 . S
C2562 C2563 1.391 . S
C2563 H2551 0.950 . S
C2563 C2559 1.393 . S
C2563 C2562 1.391 . S
H2564 C2572 0.950 . S
H2565 C2577 0.944 1_556 S
H2566 C2574 0.950 . S
H2567 C2576 0.950 . S
H2568 C2578 0.950 . S
H2569 C2580 0.950 . S
H2570 C2582 0.950 . S
H2571 C2583 0.950 . S
C2572 H2564 0.950 . S
C2572 C2573 1.386 . S
C2572 C2574 1.391 . S
C2573 C2572 1.386 . S
C2573 C2577 1.393 . S
C2574 H2566 0.950 . S
C2574 C2572 1.391 . S
C2574 C2575 1.400 . S
C2575 C2574 1.400 . S
C2575 C2576 1.398 . S
C2575 C2581 1.491 . S
C2576 H2567 0.950 . S
C2576 C2575 1.398 . S
C2576 C2577 1.397 . S
C2577 H2565 0.944 1_554 S
C2577 C2573 1.393 . S
C2577 C2576 1.397 . S
C2578 H2568 0.950 . S
C2578 C2579 1.386 . S
C2578 C2580 1.391 . S
C2579 C2578 1.386 . S
C2579 C2583 1.393 . S
C2580 H2569 0.950 . S
C2580 C2578 1.391 . S
C2580 C2581 1.400 . S
C2581 C2575 1.491 . S
C2581 C2580 1.400 . S
C2581 C2582 1.398 . S
C2582 H2570 0.950 . S
C2582 C2581 1.398 . S
C2582 C2583 1.391 . S
C2583 H2571 0.950 . S
C2583 C2579 1.393 . S
C2583 C2582 1.391 . S
H2584 C2592 0.950 . S
H2585 C2597 0.950 . S
H2586 C2594 0.950 . S
H2587 C2596 0.950 . S
H2588 C2598 0.950 . S
H2589 C2600 0.950 . S
H2590 C2602 0.950 . S
H2591 C2603 0.950 . S
C2592 H2584 0.950 . S
C2592 C2593 1.386 . S
C2592 C2594 1.391 . S
C2593 C2592 1.386 . S
C2593 C2597 1.393 . S
C2594 H2586 0.950 . S
C2594 C2592 1.391 . S
C2594 C2595 1.400 . S
C2595 C2594 1.400 . S
C2595 C2596 1.398 . S
C2595 C2601 1.491 . S
C2596 H2587 0.950 . S
C2596 C2595 1.398 . S
C2596 C2597 1.391 . S
C2597 H2585 0.950 . S
C2597 C2593 1.393 . S
C2597 C2596 1.391 . S
C2598 H2588 0.950 . S
C2598 C2599 1.386 . S
C2598 C2600 1.391 . S
C2599 C2598 1.386 . S
C2599 C2603 1.393 . S
C2600 H2589 0.950 . S
C2600 C2598 1.391 . S
C2600 C2601 1.400 . S
C2601 C2595 1.491 . S
C2601 C2600 1.400 . S
C2601 C2602 1.398 . S
C2602 H2590 0.950 . S
C2602 C2601 1.398 . S
C2602 C2603 1.391 . S
C2603 H2591 0.950 . S
C2603 C2599 1.393 . S
C2603 C2602 1.391 . S
H2604 C2612 0.950 . S
H2605 C2617 0.950 . S
H2606 C2614 0.950 . S
H2607 C2616 0.950 . S
H2608 C2618 0.950 . S
H2609 C2620 0.950 . S
H2610 C2622 0.950 . S
H2611 C2623 0.950 . S
C2612 H2604 0.950 . S
C2612 C2613 1.386 . S
C2612 C2614 1.391 . S
C2613 C2612 1.386 . S
C2613 C2617 1.393 1_655 S
C2614 H2606 0.950 . S
C2614 C2612 1.391 . S
C2614 C2615 1.400 . S
C2615 C2614 1.400 . S
C2615 C2616 1.398 1_655 S
C2615 C2621 1.491 . S
C2616 H2607 0.950 . S
C2616 C2615 1.398 1_455 S
C2616 C2617 1.391 . S
C2617 H2605 0.950 . S
C2617 C2613 1.393 1_455 S
C2617 C2616 1.391 . S
C2618 H2608 0.950 . S
C2618 C2619 1.386 1_455 S
C2618 C2620 1.391 . S
C2619 C2618 1.386 1_655 S
C2619 C2623 1.393 . S
C2620 H2609 0.950 . S
C2620 C2618 1.391 . S
C2620 C2621 1.400 1_455 S
C2621 C2615 1.491 . S
C2621 C2620 1.400 1_655 S
C2621 C2622 1.398 . S
C2622 H2610 0.950 . S
C2622 C2621 1.398 . S
C2622 C2623 1.391 . S
C2623 H2611 0.950 . S
C2623 C2619 1.393 . S
C2623 C2622 1.391 . S
H2624 C2632 0.950 . S
H2625 C2637 0.950 . S
H2626 C2634 0.950 . S
H2627 C2636 0.950 . S
H2628 C2638 0.950 . S
H2629 C2640 0.950 . S
H2630 C2642 0.950 . S
H2631 C2643 0.950 . S
C2632 H2624 0.950 . S
C2632 C2633 1.386 . S
C2632 C2634 1.391 . S
C2633 C2632 1.386 . S
C2633 C2637 1.393 . S
C2634 H2626 0.950 . S
C2634 C2632 1.391 . S
C2634 C2635 1.400 . S
C2635 C2634 1.400 . S
C2635 C2636 1.398 . S
C2635 C2641 1.491 . S
C2636 H2627 0.950 . S
C2636 C2635 1.398 . S
C2636 C2637 1.391 . S
C2637 H2625 0.950 . S
C2637 C2633 1.393 . S
C2637 C2636 1.391 . S
C2638 H2628 0.950 . S
C2638 C2639 1.386 . S
C2638 C2640 1.391 . S
C2639 C2638 1.386 . S
C2639 C2643 1.393 . S
C2640 H2629 0.950 . S
C2640 C2638 1.391 . S
C2640 C2641 1.400 . S
C2641 C2635 1.491 . S
C2641 C2640 1.400 . S
C2641 C2642 1.398 . S
C2642 H2630 0.950 . S
C2642 C2641 1.398 . S
C2642 C2643 1.391 . S
C2643 H2631 0.950 . S
C2643 C2639 1.393 . S
C2643 C2642 1.391 . S
H2644 C2652 0.950 . S
H2645 C2657 0.950 . S
H2646 C2654 0.950 . S
H2647 C2656 0.950 . S
H2648 C2658 0.950 . S
H2649 C2660 0.950 . S
H2650 C2662 0.950 . S
H2651 C2663 0.950 . S
C2652 H2644 0.950 . S
C2652 C2653 1.386 . S
C2652 C2654 1.391 . S
C2653 C2652 1.386 . S
C2653 C2657 1.393 1_455 S
C2654 H2646 0.950 . S
C2654 C2652 1.391 . S
C2654 C2655 1.400 . S
C2655 C2654 1.400 . S
C2655 C2656 1.398 1_455 S
C2655 C2661 1.491 . S
C2656 H2647 0.950 . S
C2656 C2655 1.398 1_655 S
C2656 C2657 1.391 . S
C2657 H2645 0.950 . S
C2657 C2653 1.393 1_655 S
C2657 C2656 1.391 . S
C2658 H2648 0.950 . S
C2658 C2659 1.386 1_655 S
C2658 C2660 1.391 . S
C2659 C2658 1.386 1_455 S
C2659 C2663 1.393 . S
C2660 H2649 0.950 . S
C2660 C2658 1.391 . S
C2660 C2661 1.400 1_655 S
C2661 C2655 1.491 . S
C2661 C2660 1.400 1_455 S
C2661 C2662 1.398 . S
C2662 H2650 0.950 . S
C2662 C2661 1.398 . S
C2662 C2663 1.391 . S
C2663 H2651 0.950 . S
C2663 C2659 1.393 . S
C2663 C2662 1.391 . S
C1239 C1217 1.750 . S
C1233 C15 1.830 . S
C1259 C1184 1.521 . S
C1253 C55 1.443 . S
C1279 C1206 0.830 . S
C1273 C95 0.827 1_545 S
C1299 C1195 1.498 . S
C1293 C135 1.501 . S
C1319 C1118 1.763 . S
C1313 C175 1.827 . S
C1333 C215 1.507 . S
C1339 C1129 1.486 . S
C1359 C1096 1.515 . S
C1353 C255 1.458 . S
C1373 C295 0.819 1_554 S
C1379 C1107 0.800 . S
C1399 C1173 1.750 . S
C1393 C335 1.830 . S
C1413 C375 1.492 . S
C1419 C1151 1.475 . S
C1433 C415 1.462 . S
C1439 C1140 1.513 . S
C1459 C1162 0.813 . S
C1453 C455 0.824 . S
C1479 C1085 1.741 . S
C1473 C495 1.828 . S
C1493 C535 1.464 . S
C1499 C1052 1.505 . S
C1519 C1074 0.762 . S
C1513 C575 0.813 1_545 S
C1533 C615 1.489 . S
C1539 C1063 1.476 . S
C1559 C986 1.746 . S
C1553 C655 1.828 . S
C1579 C997 1.459 . S
C1573 C695 1.503 . S
C1593 C735 1.436 . S
C1599 C964 1.519 . S
C1613 C775 0.817 . S
C1619 C975 0.778 . S
C1633 C815 1.821 . S
C1639 C1041 1.757 . S
C1653 C855 1.507 . S
C1659 C1019 1.468 . S
C1679 C1008 1.518 . S
C1673 C895 1.433 . S
C1693 C935 0.817 . S
C1699 C1030 0.779 . S
C1719 C965 1.631 . S
C1713 C21 1.686 . S
C1739 C976 1.669 . S
C1733 C61 1.740 . S
C1753 C101 0.795 . S
C1759 C987 0.799 . S
C1773 C141 0.908 . S
C1779 C998 0.907 . S
C1799 C1009 1.648 . S
C1793 C181 1.685 . S
C1813 C221 0.907 . S
C1819 C1020 0.910 . S
C1839 C1031 1.679 . S
C1833 C261 1.756 . S
C1859 C1042 0.799 . S
C1853 C301 0.795 . S
C1879 C1053 1.640 . S
C1873 C341 1.684 . S
C1893 C381 0.919 . S
C1899 C1064 0.892 . S
C1913 C421 1.742 . S
C1919 C1075 1.665 . S
C1933 C461 0.784 1_455 S
C1939 C1086 0.785 . S
C1953 C501 1.649 . S
C1959 C1097 1.641 . S
C1973 C541 1.619 . S
C1979 C1108 1.673 . S
C1993 C581 0.786 . S
C1999 C1119 0.782 . S
C2013 C621 0.909 . S
C2019 C1130 0.895 . S
C2033 C661 1.637 . S
C2039 C1141 1.631 . S
C2059 C1152 0.921 . S
C2053 C701 0.910 . S
C2079 C1163 1.667 . S
C2073 C741 1.587 . S
C2099 C1174 0.787 . S
C2093 C781 0.793 . S
C2119 C1185 1.631 . S
C2113 C821 1.637 . S
C2133 C861 0.891 . S
C2139 C1196 0.889 . S
C2153 C901 1.607 . S
C2159 C1207 1.681 . S
C2173 C941 0.786 . S
C2179 C1218 0.790 . S
C2193 C2 1.653 . S
C2199 C1058 1.636 . S
C2219 C1091 1.758 . S
C2213 C42 1.779 . S
C2233 C82 1.531 . S
C2239 C1069 1.482 . S
C2259 C1080 1.557 . S
C2253 C122 1.535 . S
C2273 C162 1.659 . S
C2279 C970 1.640 . S
C2293 C202 1.537 . S
C2299 C981 1.557 . S
C2313 C242 1.790 . S
C2319 C992 1.737 . S
C2333 C282 1.527 . S
C2339 C1003 1.475 . S
C2359 C1014 1.639 . S
C2353 C322 1.659 . S
C2379 C1036 1.568 . S
C2373 C362 1.537 . S
C2393 C402 1.794 . S
C2399 C1047 1.736 . S
C2413 C442 1.534 . S
C2419 C1025 1.492 . S
C2439 C1190 1.646 . S
C2433 C482 1.630 . S
C2459 C1223 1.738 . S
C2453 C522 1.711 . S
C2473 C562 1.554 1_545 S
C2479 C1201 1.460 . S
C2499 C1212 1.573 . S
C2493 C602 1.521 . S
C2513 C642 1.640 . S
C2519 C1102 1.638 . S
C2533 C682 1.530 . S
C2539 C1113 1.572 . S
C2553 C722 1.706 . S
C2559 C1124 1.732 . S
C2579 C1135 1.460 . S
C2573 C762 1.554 1_554 S
C2599 C1146 1.634 . S
C2593 C802 1.642 . S
C2619 C1168 1.569 . S
C2613 C842 1.538 . S
C2633 C882 1.691 . S
C2639 C1179 1.749 . S
C2659 C1157 1.480 . S
C2653 C922 1.550 1_455 S
