# Generated by pormake.
# Topology ptr, (4,4)-cn, num edge types: 1
# Building blocks:
#     Node 0, Type 0, BuildingBlock: AZAVOO_clean_sbu_0, # of connection points: 4
#     Node 1, Type 0, BuildingBlock: AZAVOO_clean_sbu_0, # of connection points: 4
#     Node 2, Type 0, BuildingBlock: AZAVOO_clean_sbu_0, # of connection points: 4
#     Node 3, Type 0, BuildingBlock: AZAVOO_clean_sbu_0, # of connection points: 4
#     Node 4, Type 0, BuildingBlock: AZAVOO_clean_sbu_0, # of connection points: 4
#     Node 5, Type 0, BuildingBlock: AZAVOO_clean_sbu_0, # of connection points: 4
#     Node 6, Type 0, BuildingBlock: AZAVOO_clean_sbu_0, # of connection points: 4
#     Node 7, Type 0, BuildingBlock: AZAVOO_clean_sbu_0, # of connection points: 4
#     Node 8, Type 0, BuildingBlock: AZAVOO_clean_sbu_0, # of connection points: 4
#     Node 9, Type 0, BuildingBlock: AZAVOO_clean_sbu_0, # of connection points: 4
#     Node 10, Type 0, BuildingBlock: AZAVOO_clean_sbu_0, # of connection points: 4
#     Node 11, Type 0, BuildingBlock: AZAVOO_clean_sbu_0, # of connection points: 4
#     Node 12, Type 0, BuildingBlock: AZAVOO_clean_sbu_0, # of connection points: 4
#     Node 13, Type 0, BuildingBlock: AZAVOO_clean_sbu_0, # of connection points: 4
#     Node 14, Type 0, BuildingBlock: AZAVOO_clean_sbu_0, # of connection points: 4
#     Node 15, Type 0, BuildingBlock: AZAVOO_clean_sbu_0, # of connection points: 4
#     Node 16, Type 0, BuildingBlock: AZAVOO_clean_sbu_0, # of connection points: 4
#     Node 17, Type 0, BuildingBlock: AZAVOO_clean_sbu_0, # of connection points: 4
#     Node 18, Type 1, BuildingBlock: AZAVOO_clean_linker_0, # of connection points: 4
#     Node 19, Type 1, BuildingBlock: AZAVOO_clean_linker_0, # of connection points: 4
#     Node 20, Type 1, BuildingBlock: AZAVOO_clean_linker_0, # of connection points: 4
#     Node 21, Type 1, BuildingBlock: AZAVOO_clean_linker_0, # of connection points: 4
#     Node 22, Type 1, BuildingBlock: AZAVOO_clean_linker_0, # of connection points: 4
#     Node 23, Type 1, BuildingBlock: AZAVOO_clean_linker_0, # of connection points: 4
#     Node 24, Type 1, BuildingBlock: AZAVOO_clean_linker_0, # of connection points: 4
#     Node 25, Type 1, BuildingBlock: AZAVOO_clean_linker_0, # of connection points: 4
#     Node 26, Type 1, BuildingBlock: AZAVOO_clean_linker_0, # of connection points: 4
#     Node 27, Type 1, BuildingBlock: AZAVOO_clean_linker_0, # of connection points: 4
#     Node 28, Type 1, BuildingBlock: AZAVOO_clean_linker_0, # of connection points: 4
#     Node 29, Type 1, BuildingBlock: AZAVOO_clean_linker_0, # of connection points: 4
#     Node 30, Type 1, BuildingBlock: AZAVOO_clean_linker_0, # of connection points: 4
#     Node 31, Type 1, BuildingBlock: AZAVOO_clean_linker_0, # of connection points: 4
#     Node 32, Type 1, BuildingBlock: AZAVOO_clean_linker_0, # of connection points: 4
#     Node 33, Type 1, BuildingBlock: AZAVOO_clean_linker_0, # of connection points: 4
#     Node 34, Type 1, BuildingBlock: AZAVOO_clean_linker_0, # of connection points: 4
#     Node 35, Type 1, BuildingBlock: AZAVOO_clean_linker_0, # of connection points: 4
#     Edge 36, Type (0, 1), BuildingBlock: KIFKEQ_clean_linker_1, # of connection points: 2
#     Edge 37, Type (0, 1), BuildingBlock: KIFKEQ_clean_linker_1, # of connection points: 2
#     Edge 38, Type (0, 1), BuildingBlock: KIFKEQ_clean_linker_1, # of connection points: 2
#     Edge 39, Type (0, 1), BuildingBlock: KIFKEQ_clean_linker_1, # of connection points: 2
#     Edge 40, Type (0, 1), BuildingBlock: KIFKEQ_clean_linker_1, # of connection points: 2
#     Edge 41, Type (0, 1), BuildingBlock: KIFKEQ_clean_linker_1, # of connection points: 2
#     Edge 42, Type (0, 1), BuildingBlock: KIFKEQ_clean_linker_1, # of connection points: 2
#     Edge 43, Type (0, 1), BuildingBlock: KIFKEQ_clean_linker_1, # of connection points: 2
#     Edge 44, Type (0, 1), BuildingBlock: KIFKEQ_clean_linker_1, # of connection points: 2
#     Edge 45, Type (0, 1), BuildingBlock: KIFKEQ_clean_linker_1, # of connection points: 2
#     Edge 46, Type (0, 1), BuildingBlock: KIFKEQ_clean_linker_1, # of connection points: 2
#     Edge 47, Type (0, 1), BuildingBlock: KIFKEQ_clean_linker_1, # of connection points: 2
#     Edge 48, Type (0, 1), BuildingBlock: KIFKEQ_clean_linker_1, # of connection points: 2
#     Edge 49, Type (0, 1), BuildingBlock: KIFKEQ_clean_linker_1, # of connection points: 2
#     Edge 50, Type (0, 1), BuildingBlock: KIFKEQ_clean_linker_1, # of connection points: 2
#     Edge 51, Type (0, 1), BuildingBlock: KIFKEQ_clean_linker_1, # of connection points: 2
#     Edge 52, Type (0, 1), BuildingBlock: KIFKEQ_clean_linker_1, # of connection points: 2
#     Edge 53, Type (0, 1), BuildingBlock: KIFKEQ_clean_linker_1, # of connection points: 2
#     Edge 54, Type (0, 1), BuildingBlock: KIFKEQ_clean_linker_1, # of connection points: 2
#     Edge 55, Type (0, 1), BuildingBlock: KIFKEQ_clean_linker_1, # of connection points: 2
#     Edge 56, Type (0, 1), BuildingBlock: KIFKEQ_clean_linker_1, # of connection points: 2
#     Edge 57, Type (0, 1), BuildingBlock: KIFKEQ_clean_linker_1, # of connection points: 2
#     Edge 58, Type (0, 1), BuildingBlock: KIFKEQ_clean_linker_1, # of connection points: 2
#     Edge 59, Type (0, 1), BuildingBlock: KIFKEQ_clean_linker_1, # of connection points: 2
#     Edge 60, Type (0, 1), BuildingBlock: KIFKEQ_clean_linker_1, # of connection points: 2
#     Edge 61, Type (0, 1), BuildingBlock: KIFKEQ_clean_linker_1, # of connection points: 2
#     Edge 62, Type (0, 1), BuildingBlock: KIFKEQ_clean_linker_1, # of connection points: 2
#     Edge 63, Type (0, 1), BuildingBlock: KIFKEQ_clean_linker_1, # of connection points: 2
#     Edge 64, Type (0, 1), BuildingBlock: KIFKEQ_clean_linker_1, # of connection points: 2
#     Edge 65, Type (0, 1), BuildingBlock: KIFKEQ_clean_linker_1, # of connection points: 2
#     Edge 66, Type (0, 1), BuildingBlock: KIFKEQ_clean_linker_1, # of connection points: 2
#     Edge 67, Type (0, 1), BuildingBlock: KIFKEQ_clean_linker_1, # of connection points: 2
#     Edge 68, Type (0, 1), BuildingBlock: KIFKEQ_clean_linker_1, # of connection points: 2
#     Edge 69, Type (0, 1), BuildingBlock: KIFKEQ_clean_linker_1, # of connection points: 2
#     Edge 70, Type (0, 1), BuildingBlock: KIFKEQ_clean_linker_1, # of connection points: 2
#     Edge 71, Type (0, 1), BuildingBlock: KIFKEQ_clean_linker_1, # of connection points: 2
#     Edge 72, Type (0, 1), BuildingBlock: KIFKEQ_clean_linker_1, # of connection points: 2
#     Edge 73, Type (0, 1), BuildingBlock: KIFKEQ_clean_linker_1, # of connection points: 2
#     Edge 74, Type (0, 1), BuildingBlock: KIFKEQ_clean_linker_1, # of connection points: 2
#     Edge 75, Type (0, 1), BuildingBlock: KIFKEQ_clean_linker_1, # of connection points: 2
#     Edge 76, Type (0, 1), BuildingBlock: KIFKEQ_clean_linker_1, # of connection points: 2
#     Edge 77, Type (0, 1), BuildingBlock: KIFKEQ_clean_linker_1, # of connection points: 2
#     Edge 78, Type (0, 1), BuildingBlock: KIFKEQ_clean_linker_1, # of connection points: 2
#     Edge 79, Type (0, 1), BuildingBlock: KIFKEQ_clean_linker_1, # of connection points: 2
#     Edge 80, Type (0, 1), BuildingBlock: KIFKEQ_clean_linker_1, # of connection points: 2
#     Edge 81, Type (0, 1), BuildingBlock: KIFKEQ_clean_linker_1, # of connection points: 2
#     Edge 82, Type (0, 1), BuildingBlock: KIFKEQ_clean_linker_1, # of connection points: 2
#     Edge 83, Type (0, 1), BuildingBlock: KIFKEQ_clean_linker_1, # of connection points: 2
#     Edge 84, Type (0, 1), BuildingBlock: KIFKEQ_clean_linker_1, # of connection points: 2
#     Edge 85, Type (0, 1), BuildingBlock: KIFKEQ_clean_linker_1, # of connection points: 2
#     Edge 86, Type (0, 1), BuildingBlock: KIFKEQ_clean_linker_1, # of connection points: 2
#     Edge 87, Type (0, 1), BuildingBlock: KIFKEQ_clean_linker_1, # of connection points: 2
#     Edge 88, Type (0, 1), BuildingBlock: KIFKEQ_clean_linker_1, # of connection points: 2
#     Edge 89, Type (0, 1), BuildingBlock: KIFKEQ_clean_linker_1, # of connection points: 2
#     Edge 90, Type (0, 1), BuildingBlock: KIFKEQ_clean_linker_1, # of connection points: 2
#     Edge 91, Type (0, 1), BuildingBlock: KIFKEQ_clean_linker_1, # of connection points: 2
#     Edge 92, Type (0, 1), BuildingBlock: KIFKEQ_clean_linker_1, # of connection points: 2
#     Edge 93, Type (0, 1), BuildingBlock: KIFKEQ_clean_linker_1, # of connection points: 2
#     Edge 94, Type (0, 1), BuildingBlock: KIFKEQ_clean_linker_1, # of connection points: 2
#     Edge 95, Type (0, 1), BuildingBlock: KIFKEQ_clean_linker_1, # of connection points: 2
#     Edge 96, Type (0, 1), BuildingBlock: KIFKEQ_clean_linker_1, # of connection points: 2
#     Edge 97, Type (0, 1), BuildingBlock: KIFKEQ_clean_linker_1, # of connection points: 2
#     Edge 98, Type (0, 1), BuildingBlock: KIFKEQ_clean_linker_1, # of connection points: 2
#     Edge 99, Type (0, 1), BuildingBlock: KIFKEQ_clean_linker_1, # of connection points: 2
#     Edge 100, Type (0, 1), BuildingBlock: KIFKEQ_clean_linker_1, # of connection points: 2
#     Edge 101, Type (0, 1), BuildingBlock: KIFKEQ_clean_linker_1, # of connection points: 2
#     Edge 102, Type (0, 1), BuildingBlock: KIFKEQ_clean_linker_1, # of connection points: 2
#     Edge 103, Type (0, 1), BuildingBlock: KIFKEQ_clean_linker_1, # of connection points: 2
#     Edge 104, Type (0, 1), BuildingBlock: KIFKEQ_clean_linker_1, # of connection points: 2
#     Edge 105, Type (0, 1), BuildingBlock: KIFKEQ_clean_linker_1, # of connection points: 2
#     Edge 106, Type (0, 1), BuildingBlock: KIFKEQ_clean_linker_1, # of connection points: 2
#     Edge 107, Type (0, 1), BuildingBlock: KIFKEQ_clean_linker_1, # of connection points: 2
# Relax obj value: 0.122
# Max RMSD: 0.324
# Mean RMSD: 0.192
data_MOF--net-ptr--node1-AZAVOO_clean_sbu_0--node2-AZAVOO_clean_linker_0--edge1-KIFKEQ_clean_linker_1
_symmetry_space_group_name_H-M    P1
_symmetry_Int_Tables_number       1
_symmetry_cell_setting            triclinic
loop_
_symmetry_equiv_pos_as_xyz
'x, y, z'
_cell_length_a     83.933019
_cell_length_b     81.530956
_cell_length_c     67.911257
_cell_angle_alpha  93.593089
_cell_angle_beta   93.57439
_cell_angle_gamma 120.11262
loop_
_atom_site_label
_atom_site_type_symbol
_atom_site_fract_x
_atom_site_fract_y
_atom_site_fract_z
_atom_type_partial_charge
Mg0 Mg 0.01845 0.35835 0.99291 0.0
O1 O 0.00311 0.36653 0.01461 0.0
O2 O 0.9829 0.37162 0.99704 0.0
Mg3 Mg 0.98464 0.3657 0.96395 0.0
C4 C 0.99069 0.37121 0.01363 0.0
C5 C 0.03941 0.35951 0.03386 0.0
O6 O 0.04181 0.37675 0.03636 0.0
O7 O 0.99329 0.32826 0.98566 0.0
O8 O 0.97437 0.33402 0.96648 0.0
O9 O 0.03881 0.38962 0.99173 0.0
O10 O 0.01325 0.3725 0.97125 0.0
C11 C 0.97824 0.32247 0.97448 0.0
C12 C 0.02762 0.3888 0.97716 0.0
O13 O 0.03028 0.34878 0.01801 0.0
Mg14 Mg 0.63937 0.62889 0.08846 0.0
O15 O 0.61954 0.62332 0.06088 0.0
O16 O 0.59336 0.62049 0.07037 0.0
Mg17 Mg 0.59619 0.623 0.10442 0.0
C18 C 0.60332 0.6207 0.05681 0.0
C19 C 0.67948 0.65164 0.07611 0.0
O20 O 0.68289 0.65868 0.09483 0.0
O21 O 0.64497 0.65909 0.0946 0.0
O22 O 0.61902 0.65467 0.10642 0.0
O23 O 0.62811 0.59768 0.08883 0.0
O24 O 0.61687 0.61375 0.10426 0.0
C25 C 0.63549 0.66563 0.10221 0.0
C26 C 0.61569 0.59763 0.09929 0.0
O27 O 0.66305 0.639 0.06926 0.0
Mg28 Mg 0.37261 0.99136 0.00419 0.0
O29 O 0.39298 -2e-05 0.03209 0.0
O30 O 0.41923 0.02651 0.02807 0.0
Mg31 Mg 0.41598 0.03402 0.99667 0.0
C32 C 0.40937 0.01326 0.03853 0.0
C33 C 0.33302 0.96976 0.01643 0.0
O34 O 0.33032 0.97618 1.00003 0.0
O35 O 0.36779 0.01585 0.01181 0.0
O36 O 0.39387 0.04129 0.00509 0.0
O37 O 0.38346 0.97364 0.99056 0.0
O38 O 0.39433 0.00405 0.98696 0.0
C39 C 0.3775 0.03368 0.01037 0.0
C40 C 0.39529 0.98892 0.98327 0.0
O41 O 0.3491 0.97272 0.02181 0.0
Mg42 Mg 0.98715 0.64742 0.07182 0.0
O43 O 0.00078 0.6387 0.04817 0.0
O44 O 0.02247 0.63442 0.06385 0.0
Mg45 Mg 0.02214 0.63947 0.09729 0.0
C46 C 0.01355 0.6345 0.04794 0.0
C47 C 0.96069 0.65928 0.05236 0.0
O48 O 0.95437 0.65489 0.06965 0.0
O49 O 0.01281 0.67724 0.07826 0.0
O50 O 0.03265 0.67113 0.09501 0.0
O51 O 0.96606 0.61663 0.07301 0.0
O52 O 0.99308 0.63209 0.09146 0.0
C53 C 0.02852 0.68284 0.08795 0.0
C54 C 0.97802 0.61624 0.08567 0.0
O55 O 0.97446 0.65768 0.04835 0.0
Mg56 Mg 0.35966 0.37571 0.9758 0.0
O57 O 0.37927 0.38225 0.004 0.0
O58 O 0.4057 0.38515 0.99516 0.0
Mg59 Mg 0.40334 0.38167 0.96116 0.0
C60 C 0.39558 0.38519 0.00843 0.0
C61 C 0.33335 0.37691 0.00591 0.0
O62 O 0.34552 0.39525 0.00724 0.0
O63 O 0.35451 0.34556 0.9709 0.0
O64 O 0.38084 0.35004 0.96009 0.0
O65 O 0.37076 0.40689 0.97429 0.0
O66 O 0.38246 0.39056 0.96043 0.0
C67 C 0.36432 0.33905 0.96413 0.0
C68 C 0.38353 0.40672 0.96467 0.0
O69 O 0.33534 0.36547 0.99419 0.0
Mg70 Mg 0.63872 0.02215 0.07042 0.0
O71 O 0.61787 0.01139 0.04255 0.0
O72 O 0.59312 0.98388 0.04791 0.0
Mg73 Mg 0.59728 0.97854 0.08004 0.0
C74 C 0.60193 0.9969 0.03675 0.0
C75 C 0.67762 0.0427 0.05736 0.0
O76 O 0.67986 0.03539 0.07328 0.0
O77 O 0.64505 0.99855 0.06412 0.0
O78 O 0.62049 0.97262 0.07258 0.0
O79 O 0.62701 0.03942 0.08252 0.0
O80 O 0.6171 0.00946 0.08773 0.0
C81 C 0.63663 0.98094 0.06672 0.0
C82 C 0.61537 0.02427 0.09013 0.0
O83 O 0.66188 0.04082 0.05247 0.0
Mg84 Mg 0.68004 0.69561 0.3309 0.0
O85 O 0.66717 0.70429 0.35548 0.0
O86 O 0.64575 0.70944 0.34071 0.0
Mg87 Mg 0.64564 0.70533 0.30707 0.0
C88 C 0.65463 0.70878 0.35631 0.0
C89 C 0.70623 0.69617 0.36605 0.0
O90 O 0.71213 0.71448 0.36637 0.0
O91 O 0.65387 0.66614 0.32409 0.0
O92 O 0.63466 0.67337 0.3078 0.0
O93 O 0.70168 0.72626 0.3298 0.0
O94 O 0.67446 0.71173 0.31186 0.0
C95 C 0.63836 0.66114 0.31426 0.0
C96 C 0.68996 0.72722 0.31732 0.0
O97 O 0.69279 0.68448 0.3534 0.0
Mg98 Mg 0.30478 0.96165 0.42564 0.0
O99 O 0.28456 0.95456 0.39788 0.0
O100 O 0.2587 0.9527 0.40715 0.0
Mg101 Mg 0.26207 0.95751 0.44114 0.0
C102 C 0.26834 0.95191 0.3937 0.0
C103 C 0.33063 0.95686 0.39787 0.0
O104 O 0.31961 0.93897 0.40074 0.0
O105 O 0.31089 0.99225 0.42935 0.0
O106 O 0.28507 0.98875 0.44074 0.0
O107 O 0.29292 0.93065 0.42866 0.0
O108 O 0.28279 0.94839 0.44261 0.0
C109 C 0.30148 0.99929 0.43609 0.0
C110 C 0.28117 0.93188 0.43923 0.0
O111 O 0.3281 0.96966 0.40614 0.0
Mg112 Mg 0.04896 0.32532 0.34185 0.0
O113 O 0.06939 0.33568 0.37007 0.0
O114 O 0.09712 0.35796 0.36263 0.0
Mg115 Mg 0.09456 0.36133 0.32959 0.0
C116 C 0.08652 0.34782 0.37506 0.0
C117 C 0.00885 0.30774 0.35224 0.0
O118 O 0.00701 0.31045 0.33356 0.0
O119 O 0.04843 0.35285 0.34421 0.0
O120 O 0.07573 0.37389 0.33468 0.0
O121 O 0.05553 0.30266 0.33266 0.0
O122 O 0.07041 0.3321 0.32447 0.0
C123 C 0.05988 0.36956 0.34009 0.0
C124 C 0.06867 0.31547 0.32376 0.0
O125 O 0.02473 0.31202 0.36026 0.0
Mg126 Mg 0.65753 0.97251 0.40504 0.0
O127 O 0.67133 0.9636 0.38177 0.0
O128 O 0.69361 0.96049 0.3978 0.0
Mg129 Mg 0.69374 0.96675 0.4311 0.0
C130 C 0.6844 0.95983 0.38177 0.0
C131 C 0.62614 0.97422 0.3811 0.0
O132 O 0.61777 0.96379 0.39526 0.0
O133 O 0.68268 0.00282 0.41007 0.0
O134 O 0.70326 0.99798 0.42722 0.0
O135 O 0.63726 0.94185 0.40776 0.0
O136 O 0.66439 0.95851 0.4258 0.0
C137 C 0.69862 0.0091 0.41957 0.0
C138 C 0.64942 0.94234 0.42085 0.0
O139 O 0.64339 0.98059 0.38077 0.0
Mg140 Mg 0.0379 0.71137 0.31943 0.0
O141 O 0.05863 0.71759 0.34655 0.0
O142 O 0.08534 0.72323 0.33571 0.0
Mg143 Mg 0.0818 0.72098 0.30172 0.0
C144 C 0.07545 0.72169 0.34981 0.0
C145 C 0.99905 0.69841 0.33311 0.0
O146 O 0.99746 0.70482 0.31627 0.0
O147 O 0.03417 0.68195 0.31214 0.0
O148 O 0.06045 0.68886 0.29936 0.0
O149 O 0.04742 0.74251 0.31956 0.0
O150 O 0.05971 0.72791 0.30346 0.0
C151 C 0.04435 0.67677 0.30371 0.0
C152 C 0.05999 0.74348 0.30874 0.0
O153 O 0.0142 0.69928 0.33872 0.0
Mg154 Mg 0.29117 0.34881 0.3984 0.0
O155 O 0.27002 0.33714 0.37079 0.0
O156 O 0.24402 0.31202 0.37815 0.0
Mg157 Mg 0.24803 0.30898 0.41111 0.0
C158 C 0.25348 0.32339 0.36584 0.0
C159 C 0.31994 0.37994 0.37258 0.0
O160 O 0.31177 0.3897 0.37676 0.0
O161 O 0.2951 0.32332 0.3951 0.0
O162 O 0.26941 0.29994 0.40524 0.0
O163 O 0.28161 0.36883 0.40875 0.0
O164 O 0.27006 0.33937 0.41651 0.0
C165 C 0.28542 0.30624 0.39929 0.0
C166 C 0.26979 0.35504 0.41791 0.0
O167 O 0.31443 0.36397 0.37925 0.0
Mg168 Mg 0.35095 0.02737 0.6678 0.0
O169 O 0.33777 0.03786 0.69042 0.0
O170 O 0.31536 0.04038 0.67385 0.0
Mg171 Mg 0.31443 0.03205 0.64091 0.0
C172 C 0.32482 0.04183 0.69 0.0
C173 C 0.37421 0.01224 0.68831 0.0
O174 O 0.37426 0.00758 0.66944 0.0
O175 O 0.32568 0.99715 0.66445 0.0
O176 O 0.3046 0.00125 0.6472 0.0
O177 O 0.37109 0.05756 0.66302 0.0
O178 O 0.34373 0.03985 0.64566 0.0
C179 C 0.30945 0.99059 0.65557 0.0
C180 C 0.35875 0.05617 0.64951 0.0
O181 O 0.36535 0.02054 0.69294 0.0
Mg182 Mg 0.96842 0.29134 0.75208 0.0
O183 O 0.94924 0.28506 0.72368 0.0
O184 O 0.92202 0.28006 0.73223 0.0
Mg185 Mg 0.92315 0.28093 0.76619 0.0
C186 C 0.93274 0.28145 0.71907 0.0
C187 C 0.00115 0.2943 0.73024 0.0
O188 O 0.99461 0.27726 0.73617 0.0
O189 O 0.97158 0.32069 0.75877 0.0
O190 O 0.94467 0.31288 0.77072 0.0
O191 O 0.95878 0.26016 0.75215 0.0
O192 O 0.94574 0.27454 0.76694 0.0
C193 C 0.96094 0.32527 0.76714 0.0
C194 C 0.9458 0.25903 0.76233 0.0
O195 O 0.99332 0.30377 0.73442 0.0
Mg196 Mg 0.71231 0.65558 0.67288 0.0
O197 O 0.73359 0.66774 0.70038 0.0
O198 O 0.75797 0.69496 0.69391 0.0
Mg199 Mg 0.75285 0.69908 0.6615 0.0
C200 C 0.74949 0.68246 0.70569 0.0
C201 C 0.67335 0.63149 0.68493 0.0
O202 O 0.67016 0.63567 0.66728 0.0
O203 O 0.70522 0.67866 0.67851 0.0
O204 O 0.72934 0.70452 0.6692 0.0
O205 O 0.72453 0.63872 0.66084 0.0
O206 O 0.73312 0.66812 0.65458 0.0
C207 C 0.71332 0.69615 0.6754 0.0
C208 C 0.73519 0.65354 0.65213 0.0
O209 O 0.68993 0.63698 0.69162 0.0
Mg210 Mg 0.32368 0.30814 0.73702 0.0
O211 O 0.3397 0.30068 0.71519 0.0
O212 O 0.35894 0.29474 0.73358 0.0
Mg213 Mg 0.35564 0.29848 0.76641 0.0
C214 C 0.35212 0.29596 0.71676 0.0
C215 C 0.30103 0.32395 0.71831 0.0
O216 O 0.29624 0.32138 0.73641 0.0
O217 O 0.34909 0.33764 0.74624 0.0
O218 O 0.36692 0.3305 0.76532 0.0
O219 O 0.30192 0.2772 0.73591 0.0
O220 O 0.32732 0.29165 0.75703 0.0
C221 C 0.36378 0.34269 0.75775 0.0
C222 C 0.31251 0.2761 0.74982 0.0
O223 O 0.31296 0.31978 0.71306 0.0
Mg224 Mg 0.70341 0.04463 0.64562 0.0
O225 O 0.72455 0.05084 0.6723 0.0
O226 O 0.75056 0.05475 0.66106 0.0
Mg227 Mg 0.74593 0.05089 0.62709 0.0
C228 C 0.74115 0.05423 0.67532 0.0
C229 C 0.68234 0.04579 0.68125 0.0
O230 O 0.69761 0.06248 0.68513 0.0
O231 O 0.69811 0.01448 0.6399 0.0
O232 O 0.7238 0.01921 0.62715 0.0
O233 O 0.71416 0.07573 0.64448 0.0
O234 O 0.72494 0.05952 0.62849 0.0
C235 C 0.70768 0.0081 0.63217 0.0
C236 C 0.72605 0.07563 0.63327 0.0
O237 O 0.68048 0.03497 0.66592 0.0
Mg238 Mg 0.95138 0.68004 0.72865 0.0
O239 O 0.92944 0.66869 0.70183 0.0
O240 O 0.90331 0.64437 0.71016 0.0
Mg241 Mg 0.90799 0.64228 0.74333 0.0
C242 C 0.91266 0.65528 0.69747 0.0
C243 C 0.99044 0.70612 0.71517 0.0
O244 O 0.99432 0.7119 0.73426 0.0
O245 O 0.9536 0.65349 0.72535 0.0
O246 O 0.92803 0.63151 0.73706 0.0
O247 O 0.94378 0.70158 0.73873 0.0
O248 O 0.93095 0.67234 0.74757 0.0
C249 C 0.94355 0.63674 0.73028 0.0
C250 C 0.93167 0.68853 0.74838 0.0
O251 O 0.9739 0.69384 0.70835 0.0
H252 H 0.146 0.34278 0.03054 0.0
H253 H 0.26515 0.28675 0.17351 0.0
H254 H 0.15222 0.33937 0.15416 0.0
H255 H 0.12853 0.34624 0.14151 0.0
H256 H 0.10172 0.29294 0.10345 0.0
H257 H 0.1251 0.28588 0.11678 0.0
H258 H 0.16867 0.34372 0.114 0.0
H259 H 0.16014 0.34867 0.08073 0.0
H260 H 0.14939 0.29277 0.05847 0.0
H261 H 0.15771 0.28791 0.0919 0.0
H262 H 0.20595 0.34675 0.11804 0.0
H263 H 0.2304 0.35667 0.09601 0.0
H264 H 0.21914 0.29874 0.08688 0.0
H265 H 0.19448 0.28886 0.10897 0.0
H266 H 0.22578 0.33795 0.15159 0.0
H267 H 0.25374 0.33614 0.15888 0.0
H268 H 0.2197 0.27594 0.16455 0.0
H269 H 0.19186 0.27791 0.157 0.0
H270 H 0.20803 0.33682 0.18682 0.0
H271 H 0.21938 0.33817 0.22114 0.0
H272 H 0.1749 0.28035 0.22355 0.0
H273 H 0.16414 0.27888 0.18869 0.0
H274 H 0.17001 0.33587 0.18947 0.0
H275 H 0.15413 0.33315 0.2191 0.0
H276 H 0.11358 0.27461 0.19766 0.0
H277 H 0.1295 0.27764 0.1678 0.0
O278 O 0.14933 0.34052 0.04359 0.0
O279 O 0.14416 0.31176 0.03285 0.0
O280 O 0.27121 0.31883 0.16731 0.0
O281 O 0.25433 0.28786 0.17049 0.0
C282 C 0.15688 0.31011 0.14079 0.0
C283 C 0.16846 0.31223 0.12566 0.0
C284 C 0.18497 0.31191 0.12992 0.0
C285 C 0.18978 0.30903 0.14915 0.0
C286 C 0.17858 0.30748 0.16439 0.0
C287 C 0.16209 0.30794 0.1602 0.0
C288 C 0.14038 0.3121 0.13644 0.0
C289 C 0.14085 0.32886 0.14364 0.0
C290 C 0.12745 0.33289 0.13615 0.0
C291 C 0.11338 0.32029 0.12122 0.0
C292 C 0.11226 0.30291 0.11502 0.0
C293 C 0.12562 0.29884 0.12261 0.0
C294 C 0.16364 0.31539 0.10537 0.0
C295 C 0.16437 0.33253 0.10193 0.0
C296 C 0.15954 0.33533 0.0829 0.0
C297 C 0.15404 0.3211 0.06694 0.0
C298 C 0.15353 0.30401 0.07044 0.0
C299 C 0.1583 0.3012 0.08949 0.0
C300 C 0.19845 0.3171 0.11502 0.0
C301 C 0.20858 0.33615 0.11106 0.0
C302 C 0.22263 0.34181 0.09864 0.0
C303 C 0.22674 0.3285 0.08989 0.0
C304 C 0.21617 0.30926 0.09337 0.0
C305 C 0.20215 0.30361 0.10596 0.0
C306 C 0.20681 0.30802 0.15355 0.0
C307 C 0.2244 0.32436 0.15423 0.0
C308 C 0.24034 0.3233 0.15849 0.0
C309 C 0.23895 0.30587 0.16226 0.0
C310 C 0.22127 0.28956 0.16168 0.0
C311 C 0.20535 0.29064 0.15738 0.0
C312 C 0.18534 0.30772 0.18523 0.0
C313 C 0.20086 0.32437 0.19469 0.0
C314 C 0.20717 0.32518 0.2144 0.0
C315 C 0.19796 0.30942 0.22519 0.0
C316 C 0.18241 0.29268 0.21563 0.0
C317 C 0.17617 0.29184 0.19578 0.0
C318 C 0.15087 0.30696 0.17655 0.0
C319 C 0.15753 0.32257 0.19106 0.0
C320 C 0.14858 0.32089 0.20806 0.0
C321 C 0.13277 0.30355 0.21088 0.0
C322 C 0.12569 0.28815 0.1959 0.0
C323 C 0.1347 0.28986 0.17884 0.0
C324 C 0.14887 0.3241 0.04675 0.0
C325 C 0.25584 0.30466 0.16683 0.0
H326 H 0.68848 0.81642 0.05657 0.0
H327 H 0.73211 0.99724 0.2036 0.0
H328 H 0.67913 0.82966 0.18005 0.0
H329 H 0.66975 0.79665 0.16975 0.0
H330 H 0.72306 0.81522 0.14847 0.0
H331 H 0.73243 0.84849 0.15906 0.0
H332 H 0.68062 0.8403 0.13664 0.0
H333 H 0.67853 0.82608 0.10308 0.0
H334 H 0.73533 0.86947 0.0988 0.0
H335 H 0.7373 0.8834 0.1325 0.0
H336 H 0.67956 0.87502 0.13646 0.0
H337 H 0.67238 0.89052 0.11079 0.0
H338 H 0.72878 0.93794 0.12024 0.0
H339 H 0.73574 0.92224 0.14635 0.0
H340 H 0.68479 0.90453 0.17068 0.0
H341 H 0.68612 0.93518 0.17579 0.0
H342 H 0.74284 0.9614 0.20228 0.0
H343 H 0.74139 0.9307 0.19683 0.0
H344 H 0.68237 0.88792 0.2076 0.0
H345 H 0.67872 0.90047 0.23941 0.0
H346 H 0.73351 0.91334 0.26222 0.0
H347 H 0.73732 0.90146 0.22977 0.0
H348 H 0.68375 0.84977 0.21593 0.0
H349 H 0.68295 0.82961 0.24142 0.0
H350 H 0.73998 0.8464 0.23507 0.0
H351 H 0.74022 0.86576 0.20889 0.0
O352 O 0.68962 0.82228 0.06982 0.0
O353 O 0.7188 0.845 0.0683 0.0
O354 O 0.70208 0.97082 0.18746 0.0
O355 O 0.73122 0.98495 0.20134 0.0
C356 C 0.71062 0.86142 0.174 0.0
C357 C 0.71058 0.87122 0.15757 0.0
C358 C 0.7113 0.88887 0.16055 0.0
C359 C 0.71235 0.89689 0.17999 0.0
C360 C 0.71225 0.88704 0.19644 0.0
C361 C 0.71181 0.86951 0.19347 0.0
C362 C 0.70653 0.84146 0.17052 0.0
C363 C 0.68902 0.82659 0.17377 0.0
C364 C 0.68367 0.80772 0.16779 0.0
C365 C 0.69567 0.80332 0.15828 0.0
C366 C 0.71348 0.81821 0.15562 0.0
C367 C 0.7189 0.83716 0.16178 0.0
C368 C 0.70918 0.86275 0.13706 0.0
C369 C 0.69263 0.84663 0.12847 0.0
C370 C 0.69146 0.83858 0.10927 0.0
C371 C 0.70678 0.8466 0.09827 0.0
C372 C 0.72329 0.8629 0.10688 0.0
C373 C 0.72445 0.8709 0.1261 0.0
C374 C 0.70816 0.8975 0.14323 0.0
C375 C 0.69049 0.88854 0.13265 0.0
C376 C 0.68645 0.89741 0.11789 0.0
C377 C 0.70002 0.91549 0.11339 0.0
C378 C 0.71799 0.92409 0.12347 0.0
C379 C 0.72202 0.91515 0.1383 0.0
C380 C 0.71307 0.91546 0.18318 0.0
C381 C 0.69754 0.91695 0.17743 0.0
C382 C 0.69831 0.93445 0.18044 0.0
C383 C 0.71462 0.95077 0.1894 0.0
C384 C 0.73009 0.94915 0.1953 0.0
C385 C 0.72931 0.93164 0.19222 0.0
C386 C 0.71016 0.89392 0.21633 0.0
C387 C 0.69362 0.89351 0.21945 0.0
C388 C 0.69149 0.90052 0.23774 0.0
C389 C 0.70579 0.90788 0.25346 0.0
C390 C 0.72231 0.908 0.25037 0.0
C391 C 0.72447 0.90109 0.23193 0.0
C392 C 0.71202 0.85915 0.21057 0.0
C393 C 0.69611 0.84924 0.22026 0.0
C394 C 0.69575 0.8378 0.23492 0.0
C395 C 0.71139 0.83624 0.24031 0.0
C396 C 0.72756 0.84691 0.23106 0.0
C397 C 0.72781 0.85812 0.21622 0.0
C398 C 0.7055 0.83798 0.0779 0.0
C399 C 0.71552 0.9694 0.19264 0.0
H400 H 0.13858 0.86118 0.04084 0.0
H401 H 0.30086 0.98595 0.19489 0.0
H402 H 0.13271 0.86543 0.14525 0.0
H403 H 0.10733 0.83392 0.13058 0.0
H404 H 0.13703 0.80787 0.15471 0.0
H405 H 0.16227 0.8392 0.16903 0.0
H406 H 0.16616 0.89979 0.1215 0.0
H407 H 0.15405 0.88819 0.08662 0.0
H408 H 0.15994 0.839 0.09313 0.0
H409 H 0.17228 0.85091 0.12786 0.0
H410 H 0.21028 0.93442 0.13915 0.0
H411 H 0.23331 0.94641 0.11523 0.0
H412 H 0.23033 0.8918 0.10851 0.0
H413 H 0.20841 0.88051 0.13315 0.0
H414 H 0.20855 0.9417 0.18873 0.0
H415 H 0.23878 0.97064 0.19759 0.0
H416 H 0.26575 0.9398 0.17899 0.0
H417 H 0.23546 0.91094 0.1704 0.0
H418 H 0.17799 0.91104 0.21794 0.0
H419 H 0.19026 0.92037 0.25307 0.0
H420 H 0.23332 0.90772 0.24171 0.0
H421 H 0.2204 0.89757 0.20705 0.0
H422 H 0.14007 0.87441 0.1949 0.0
H423 H 0.12227 0.85415 0.2199 0.0
H424 H 0.16546 0.84105 0.23297 0.0
H425 H 0.1829 0.86094 0.2078 0.0
O426 O 0.1435 0.86556 0.05462 0.0
O427 O 0.14674 0.8405 0.05876 0.0
O428 O 0.27419 0.98988 0.20101 0.0
O429 O 0.28873 0.9747 0.19155 0.0
C430 C 0.16627 0.87353 0.16364 0.0
C431 C 0.17701 0.88321 0.14848 0.0
C432 C 0.19484 0.89938 0.15343 0.0
C433 C 0.20139 0.9068 0.17352 0.0
C434 C 0.19059 0.89728 0.18873 0.0
C435 C 0.17314 0.88047 0.18377 0.0
C436 C 0.14929 0.85457 0.15826 0.0
C437 C 0.13347 0.85283 0.14776 0.0
C438 C 0.11905 0.83489 0.13937 0.0
C439 C 0.12039 0.81854 0.14128 0.0
C440 C 0.13579 0.82028 0.15276 0.0
C441 C 0.15009 0.83812 0.16118 0.0
C442 C 0.16988 0.87609 0.12726 0.0
C443 C 0.16484 0.88653 0.11534 0.0
C444 C 0.15791 0.87985 0.09544 0.0
C445 C 0.15595 0.86262 0.0871 0.0
C446 C 0.1612 0.85228 0.09909 0.0
C447 C 0.16817 0.85901 0.11896 0.0
C448 C 0.20764 0.90658 0.13783 0.0
C449 C 0.21463 0.92511 0.13244 0.0
C450 C 0.22768 0.93186 0.11869 0.0
C451 C 0.2338 0.92011 0.11004 0.0
C452 C 0.22628 0.90139 0.11515 0.0
C453 C 0.21351 0.89479 0.12902 0.0
C454 C 0.21982 0.92429 0.17876 0.0
C455 C 0.22101 0.94124 0.18658 0.0
C456 C 0.23829 0.95774 0.19162 0.0
C457 C 0.25469 0.95755 0.18894 0.0
C458 C 0.25341 0.94047 0.18118 0.0
C459 C 0.23612 0.92398 0.17619 0.0
C460 C 0.1984 0.90379 0.2099 0.0
C461 C 0.19007 0.91031 0.22311 0.0
C462 C 0.19718 0.91574 0.24313 0.0
C463 C 0.21279 0.91479 0.25027 0.0
C464 C 0.22113 0.90838 0.23686 0.0
C465 C 0.21393 0.90281 0.21695 0.0
C466 C 0.16278 0.86916 0.19962 0.0
C467 C 0.14569 0.86725 0.2033 0.0
C468 C 0.13563 0.8558 0.21763 0.0
C469 C 0.14247 0.84599 0.22833 0.0
C470 C 0.15976 0.84827 0.22481 0.0
C471 C 0.16979 0.85972 0.21056 0.0
C472 C 0.14847 0.8555 0.066 0.0
C473 C 0.27308 0.97505 0.19422 0.0
H474 H 0.28266 0.16623 0.01121 0.0
H475 H 0.32265 0.0345 0.88413 0.0
H476 H 0.2721 0.15628 0.90689 0.0
H477 H 0.28107 0.1891 0.91929 0.0
H478 H 0.33446 0.20963 0.89763 0.0
H479 H 0.32565 0.17706 0.88576 0.0
H480 H 0.27007 0.12213 0.93466 0.0
H481 H 0.27026 0.13621 0.96765 0.0
H482 H 0.325 0.18376 0.96295 0.0
H483 H 0.32474 0.16938 0.93015 0.0
H484 H 0.27971 0.08587 0.92365 0.0
H485 H 0.29198 0.07455 0.94993 0.0
H486 H 0.34271 0.1293 0.95821 0.0
H487 H 0.33086 0.13998 0.93136 0.0
H488 H 0.2715 0.07566 0.87362 0.0
H489 H 0.27426 0.04716 0.8697 0.0
H490 H 0.33161 0.08062 0.89463 0.0
H491 H 0.32872 0.10902 0.89822 0.0
H492 H 0.2705 0.10222 0.83905 0.0
H493 H 0.27453 0.08966 0.80714 0.0
H494 H 0.3313 0.10856 0.82882 0.0
H495 H 0.32736 0.12183 0.86001 0.0
H496 H 0.26504 0.13804 0.8581 0.0
H497 H 0.2638 0.15616 0.83126 0.0
H498 H 0.32108 0.17488 0.8239 0.0
H499 H 0.32184 0.1561 0.85017 0.0
O500 O 0.28292 0.16086 0.9982 0.0
O501 O 0.31102 0.18502 0.995 0.0
O502 O 0.29169 0.02902 0.87258 0.0
O503 O 0.32119 0.04556 0.88546 0.0
C504 C 0.29532 0.14474 0.89276 0.0
C505 C 0.29683 0.13625 0.90977 0.0
C506 C 0.29862 0.11994 0.90774 0.0
C507 C 0.29802 0.11156 0.88862 0.0
C508 C 0.29629 0.11992 0.87156 0.0
C509 C 0.29472 0.13638 0.87364 0.0
C510 C 0.29822 0.1643 0.89541 0.0
C511 C 0.28548 0.16796 0.90429 0.0
C512 C 0.29063 0.18665 0.91139 0.0
C513 C 0.30857 0.20178 0.90971 0.0
C514 C 0.32066 0.19817 0.89939 0.0
C515 C 0.31554 0.17961 0.89233 0.0
C516 C 0.29728 0.14483 0.92993 0.0
C517 C 0.28209 0.13557 0.94082 0.0
C518 C 0.28223 0.14366 0.95963 0.0
C519 C 0.29761 0.16116 0.96791 0.0
C520 C 0.31291 0.17031 0.957 0.0
C521 C 0.31277 0.16216 0.93822 0.0
C522 C 0.30439 0.11374 0.92558 0.0
C523 C 0.29335 0.09545 0.93137 0.0
C524 C 0.30033 0.08908 0.94647 0.0
C525 C 0.3184 0.10099 0.95601 0.0
C526 C 0.32888 0.11968 0.95094 0.0
C527 C 0.32203 0.1259 0.93575 0.0
C528 C 0.29984 0.09434 0.88638 0.0
C529 C 0.28463 0.07678 0.87822 0.0
C530 C 0.28625 0.06054 0.87601 0.0
C531 C 0.30315 0.0616 0.88192 0.0
C532 C 0.31839 0.07928 0.88999 0.0
C533 C 0.31676 0.09552 0.89214 0.0
C534 C 0.29859 0.11279 0.85188 0.0
C535 C 0.28382 0.10377 0.83675 0.0
C536 C 0.28613 0.09647 0.81861 0.0
C537 C 0.30324 0.09803 0.81537 0.0
C538 C 0.31802 0.10733 0.83058 0.0
C539 C 0.31575 0.11476 0.84854 0.0
C540 C 0.29349 0.1457 0.85599 0.0
C541 C 0.27718 0.14579 0.85039 0.0
C542 C 0.27657 0.15629 0.83516 0.0
C543 C 0.29238 0.16713 0.82544 0.0
C544 C 0.30854 0.16649 0.83077 0.0
C545 C 0.30905 0.15582 0.84585 0.0
C546 C 0.29766 0.16979 0.98783 0.0
C547 C 0.30492 0.04438 0.87967 0.0
H548 H 0.83826 0.15744 0.02818 0.0
H549 H 0.72153 0.99818 0.86606 0.0
H550 H 0.83805 0.16155 0.92391 0.0
H551 H 0.86462 0.19235 0.93758 0.0
H552 H 0.90172 0.17357 0.9192 0.0
H553 H 0.87491 0.14223 0.90624 0.0
H554 H 0.80941 0.13399 0.94437 0.0
H555 H 0.81738 0.14507 0.97982 0.0
H556 H 0.86144 0.13209 0.98088 0.0
H557 H 0.85315 0.1208 0.94545 0.0
H558 H 0.7764 0.1022 0.91367 0.0
H559 H 0.75411 0.09038 0.93805 0.0
H560 H 0.78748 0.07198 0.97003 0.0
H561 H 0.80976 0.08372 0.94527 0.0
H562 H 0.77474 0.09288 0.87099 0.0
H563 H 0.74563 0.06358 0.8591 0.0
H564 H 0.76553 0.03075 0.88858 0.0
H565 H 0.79467 0.06015 0.90018 0.0
H566 H 0.80842 0.1255 0.85302 0.0
H567 H 0.79794 0.11568 0.81766 0.0
H568 H 0.80125 0.0649 0.82263 0.0
H569 H 0.81241 0.07518 0.85805 0.0
H570 H 0.8392 0.158 0.87677 0.0
H571 H 0.85681 0.17606 0.85062 0.0
H572 H 0.8727 0.13404 0.83741 0.0
H573 H 0.85496 0.11597 0.86375 0.0
O574 O 0.83528 0.15289 0.01419 0.0
O575 O 0.85781 0.14606 0.01392 0.0
O576 O 0.72339 0.02751 0.85556 0.0
O577 O 0.73294 0.00999 0.87053 0.0
C578 C 0.83809 0.13051 0.9072 0.0
C579 C 0.82582 0.11973 0.92081 0.0
C580 C 0.8089 0.10293 0.91386 0.0
C581 C 0.80463 0.09637 0.89341 0.0
C582 C 0.81697 0.10697 0.87978 0.0
C583 C 0.83371 0.12403 0.8867 0.0
C584 C 0.85451 0.14951 0.91436 0.0
C585 C 0.85189 0.16395 0.92305 0.0
C586 C 0.86705 0.18151 0.93085 0.0
C587 C 0.88515 0.18518 0.92965 0.0
C588 C 0.88785 0.17098 0.92038 0.0
C589 C 0.87261 0.15318 0.91294 0.0
C590 C 0.83057 0.12639 0.94239 0.0
C591 C 0.82066 0.13338 0.95233 0.0
C592 C 0.8253 0.13978 0.97256 0.0
C593 C 0.84003 0.13943 0.9832 0.0
C594 C 0.85 0.13252 0.97314 0.0
C595 C 0.8453 0.12607 0.95292 0.0
C596 C 0.79462 0.0937 0.92763 0.0
C597 C 0.77869 0.09521 0.92567 0.0
C598 C 0.76599 0.08849 0.93963 0.0
C599 C 0.76908 0.08028 0.95594 0.0
C600 C 0.78486 0.0784 0.95768 0.0
C601 C 0.7975 0.08497 0.94354 0.0
C602 C 0.78688 0.0786 0.88628 0.0
C603 C 0.77283 0.07933 0.87474 0.0
C604 C 0.75619 0.06258 0.86803 0.0
C605 C 0.75326 0.04481 0.87286 0.0
C606 C 0.76734 0.04418 0.88457 0.0
C607 C 0.78399 0.06094 0.89122 0.0
C608 C 0.81145 0.10121 0.85808 0.0
C609 C 0.80731 0.11248 0.84641 0.0
C610 C 0.80127 0.10682 0.82624 0.0
C611 C 0.79886 0.08957 0.81742 0.0
C612 C 0.80296 0.07824 0.8291 0.0
C613 C 0.80935 0.0841 0.84926 0.0
C614 C 0.84591 0.13576 0.87218 0.0
C615 C 0.84668 0.15283 0.86842 0.0
C616 C 0.85655 0.16298 0.85335 0.0
C617 C 0.8659 0.15628 0.84187 0.0
C618 C 0.86559 0.13947 0.84606 0.0
C619 C 0.85554 0.1292 0.86106 0.0
C620 C 0.84496 0.1463 0.00468 0.0
C621 C 0.73561 0.02697 0.86576 0.0
H622 H 0.87703 0.72346 0.05518 0.0
H623 H 0.71604 0.68192 0.90288 0.0
H624 H 0.88134 0.73413 0.95254 0.0
H625 H 0.90577 0.73009 0.96892 0.0
H626 H 0.87824 0.67182 0.94167 0.0
H627 H 0.85407 0.6761 0.92523 0.0
H628 H 0.84965 0.73354 0.97817 0.0
H629 H 0.86181 0.73455 0.01223 0.0
H630 H 0.8525 0.67765 0.99881 0.0
H631 H 0.84009 0.67672 0.96493 0.0
H632 H 0.80871 0.72725 0.95904 0.0
H633 H 0.78557 0.71978 0.98256 0.0
H634 H 0.78137 0.66509 0.98698 0.0
H635 H 0.80376 0.67232 0.96289 0.0
H636 H 0.8085 0.73166 0.91121 0.0
H637 H 0.77881 0.72983 0.90291 0.0
H638 H 0.75003 0.6715 0.91705 0.0
H639 H 0.7798 0.67346 0.92508 0.0
H640 H 0.83827 0.73218 0.88292 0.0
H641 H 0.82703 0.72904 0.84793 0.0
H642 H 0.78462 0.67069 0.85223 0.0
H643 H 0.79644 0.67378 0.88687 0.0
H644 H 0.8732 0.73544 0.90141 0.0
H645 H 0.88793 0.73563 0.87127 0.0
H646 H 0.84985 0.67498 0.8579 0.0
H647 H 0.83501 0.67512 0.88768 0.0
O648 O 0.8719 0.72265 0.04174 0.0
O649 O 0.86713 0.69351 0.03396 0.0
O650 O 0.74343 0.71302 0.89886 0.0
O651 O 0.72797 0.68302 0.90603 0.0
C652 C 0.84869 0.70591 0.93282 0.0
C653 C 0.83769 0.70503 0.94816 0.0
C654 C 0.82043 0.70378 0.9436 0.0
C655 C 0.81437 0.70395 0.92377 0.0
C656 C 0.8253 0.70479 0.90845 0.0
C657 C 0.84239 0.70562 0.91298 0.0
C658 C 0.86591 0.7054 0.93774 0.0
C659 C 0.88099 0.72074 0.94954 0.0
C660 C 0.8948 0.71832 0.95907 0.0
C661 C 0.89378 0.70052 0.9569 0.0
C662 C 0.87953 0.68574 0.9436 0.0
C663 C 0.86572 0.68817 0.9341 0.0
C664 C 0.84414 0.70513 0.96907 0.0
C665 C 0.85013 0.72127 0.98268 0.0
C666 C 0.85712 0.72182 0.00209 0.0
C667 C 0.85822 0.70622 0.00821 0.0
C668 C 0.85191 0.68994 0.99457 0.0
C669 C 0.84485 0.68938 0.97521 0.0
C670 C 0.80789 0.70032 0.95928 0.0
C671 C 0.80283 0.71372 0.96522 0.0
C672 C 0.78971 0.70947 0.97872 0.0
C673 C 0.78152 0.69177 0.98653 0.0
C674 C 0.78715 0.67869 0.98099 0.0
C675 C 0.80011 0.68289 0.96742 0.0
C676 C 0.79629 0.70275 0.91886 0.0
C677 C 0.79576 0.71851 0.91249 0.0
C678 C 0.77879 0.71742 0.90778 0.0
C679 C 0.76204 0.70052 0.90937 0.0
C680 C 0.76265 0.68474 0.91571 0.0
C681 C 0.77963 0.68583 0.92037 0.0
C682 C 0.81815 0.70322 0.88742 0.0
C683 C 0.82659 0.71873 0.87624 0.0
C684 C 0.82006 0.71694 0.8563 0.0
C685 C 0.80493 0.6996 0.84724 0.0
C686 C 0.79647 0.68415 0.85861 0.0
C687 C 0.80306 0.68593 0.87847 0.0
C688 C 0.8531 0.70527 0.89664 0.0
C689 C 0.8683 0.72218 0.89208 0.0
C690 C 0.87664 0.72225 0.87487 0.0
C691 C 0.86989 0.70536 0.86203 0.0
C692 C 0.8551 0.68831 0.86719 0.0
C693 C 0.84676 0.68829 0.88431 0.0
C694 C 0.86599 0.70699 0.02872 0.0
C695 C 0.74397 0.69931 0.90442 0.0
H696 H 0.83648 0.67746 0.3528 0.0
H697 H 0.92789 0.61252 0.50428 0.0
H698 H 0.82995 0.67984 0.46437 0.0
H699 H 0.80628 0.68632 0.45058 0.0
H700 H 0.7665 0.62586 0.44236 0.0
H701 H 0.79037 0.61952 0.45638 0.0
H702 H 0.85839 0.67843 0.43656 0.0
H703 H 0.85348 0.68356 0.40211 0.0
H704 H 0.80775 0.62542 0.39082 0.0
H705 H 0.81295 0.62046 0.42526 0.0
H706 H 0.88857 0.67516 0.46254 0.0
H707 H 0.91245 0.68153 0.44052 0.0
H708 H 0.87609 0.627 0.40624 0.0
H709 H 0.85207 0.62088 0.42837 0.0
H710 H 0.8893 0.6669 0.5033 0.0
H711 H 0.91518 0.66258 0.5142 0.0
H712 H 0.88641 0.60593 0.48254 0.0
H713 H 0.86055 0.61038 0.47192 0.0
H714 H 0.86215 0.67134 0.52222 0.0
H715 H 0.87099 0.67182 0.55718 0.0
H716 H 0.84627 0.61044 0.54925 0.0
H717 H 0.83838 0.61041 0.51387 0.0
H718 H 0.82883 0.67384 0.50386 0.0
H719 H 0.81274 0.67541 0.53212 0.0
H720 H 0.78871 0.61471 0.53416 0.0
H721 H 0.80486 0.61331 0.50584 0.0
O722 O 0.83821 0.67511 0.36635 0.0
O723 O 0.81474 0.64515 0.36136 0.0
O724 O 0.93206 0.64382 0.51624 0.0
O725 O 0.91785 0.6146 0.5002 0.0
C726 C 0.82681 0.64552 0.46789 0.0
C727 C 0.83902 0.646 0.45421 0.0
C728 C 0.85437 0.64422 0.46059 0.0
C729 C 0.85722 0.64138 0.48049 0.0
C730 C 0.84517 0.64113 0.49419 0.0
C731 C 0.8299 0.64309 0.48788 0.0
C732 C 0.81181 0.64924 0.46146 0.0
C733 C 0.81603 0.66803 0.45992 0.0
C734 C 0.80249 0.67169 0.45208 0.0
C735 C 0.78453 0.65659 0.44541 0.0
C736 C 0.78025 0.63775 0.4473 0.0
C737 C 0.79379 0.63412 0.45539 0.0
C738 C 0.83606 0.64907 0.43332 0.0
C739 C 0.84738 0.66682 0.42658 0.0
C740 C 0.84451 0.66971 0.40692 0.0
C741 C 0.83022 0.65489 0.3937 0.0
C742 C 0.81888 0.63713 0.40059 0.0
C743 C 0.8218 0.63425 0.42025 0.0
C744 C 0.86868 0.64753 0.4471 0.0
C745 C 0.88582 0.66454 0.45035 0.0
C746 C 0.89947 0.6681 0.4378 0.0
C747 C 0.89624 0.6547 0.42171 0.0
C748 C 0.87895 0.63765 0.41843 0.0
C749 C 0.86526 0.63409 0.43106 0.0
C750 C 0.873 0.63887 0.48701 0.0
C751 C 0.88857 0.65352 0.49887 0.0
C752 C 0.90335 0.65104 0.505 0.0
C753 C 0.90284 0.63388 0.49928 0.0
C754 C 0.88724 0.6193 0.48725 0.0
C755 C 0.87246 0.62179 0.48115 0.0
C756 C 0.84967 0.64086 0.51559 0.0
C757 C 0.85863 0.65802 0.52809 0.0
C758 C 0.86351 0.6582 0.54814 0.0
C759 C 0.85927 0.64114 0.5562 0.0
C760 C 0.85001 0.62389 0.54357 0.0
C761 C 0.84536 0.62378 0.52339 0.0
C762 C 0.81782 0.64343 0.50269 0.0
C763 C 0.81968 0.66082 0.51007 0.0
C764 C 0.81056 0.66168 0.52626 0.0
C765 C 0.79956 0.64519 0.53542 0.0
C766 C 0.79727 0.62768 0.52756 0.0
C767 C 0.80631 0.62682 0.51129 0.0
C768 C 0.8272 0.65801 0.37283 0.0
C769 C 0.91849 0.63115 0.50579 0.0
H770 H 0.34794 0.15774 0.38882 0.0
H771 H 0.38973 0.32753 0.54188 0.0
H772 H 0.34091 0.16248 0.50884 0.0
H773 H 0.33207 0.12988 0.49731 0.0
H774 H 0.38812 0.14916 0.48419 0.0
H775 H 0.39696 0.1821 0.4961 0.0
H776 H 0.34225 0.1759 0.47182 0.0
H777 H 0.33922 0.1641 0.43699 0.0
H778 H 0.3965 0.20662 0.43353 0.0
H779 H 0.39937 0.21814 0.46848 0.0
H780 H 0.33754 0.20511 0.48368 0.0
H781 H 0.32314 0.21653 0.46031 0.0
H782 H 0.37654 0.26649 0.4566 0.0
H783 H 0.39107 0.25436 0.47955 0.0
H784 H 0.34677 0.23242 0.52959 0.0
H785 H 0.34598 0.26159 0.53836 0.0
H786 H 0.40333 0.29536 0.52739 0.0
H787 H 0.40391 0.26606 0.51877 0.0
H788 H 0.34977 0.20474 0.55776 0.0
H789 H 0.34886 0.21852 0.59037 0.0
H790 H 0.40487 0.26478 0.58897 0.0
H791 H 0.40596 0.25043 0.55652 0.0
H792 H 0.34609 0.17385 0.54397 0.0
H793 H 0.34517 0.15109 0.56633 0.0
H794 H 0.40491 0.17993 0.5726 0.0
H795 H 0.40574 0.20251 0.54963 0.0
O796 O 0.34946 0.16258 0.4026 0.0
O797 O 0.37897 0.1847 0.4016 0.0
O798 O 0.36018 0.29777 0.54392 0.0
O799 O 0.38963 0.31578 0.53842 0.0
C800 C 0.37402 0.19436 0.50914 0.0
C801 C 0.37308 0.20491 0.49388 0.0
C802 C 0.37308 0.22197 0.49864 0.0
C803 C 0.37593 0.22952 0.51866 0.0
C804 C 0.37749 0.21932 0.53404 0.0
C805 C 0.37615 0.20151 0.52925 0.0
C806 C 0.36968 0.17454 0.50385 0.0
C807 C 0.35144 0.15961 0.50408 0.0
C808 C 0.3464 0.141 0.49739 0.0
C809 C 0.35946 0.13692 0.49005 0.0
C810 C 0.37779 0.15191 0.4898 0.0
C811 C 0.38289 0.17064 0.49671 0.0
C812 C 0.37111 0.19768 0.47272 0.0
C813 C 0.35417 0.18251 0.46357 0.0
C814 C 0.35246 0.17587 0.44364 0.0
C815 C 0.36764 0.18437 0.43248 0.0
C816 C 0.38455 0.19971 0.44171 0.0
C817 C 0.38624 0.20632 0.46165 0.0
C818 C 0.36531 0.22894 0.48332 0.0
C819 C 0.3462 0.21837 0.47757 0.0
C820 C 0.33798 0.22499 0.46434 0.0
C821 C 0.34867 0.24254 0.45683 0.0
C822 C 0.36798 0.25287 0.46208 0.0
C823 C 0.37627 0.24608 0.47528 0.0
C824 C 0.37539 0.2472 0.52356 0.0
C825 C 0.35912 0.24615 0.52908 0.0
C826 C 0.35872 0.26282 0.53408 0.0
C827 C 0.37461 0.28082 0.53358 0.0
C828 C 0.39086 0.28175 0.52793 0.0
C829 C 0.39123 0.26506 0.52297 0.0
C830 C 0.37809 0.2263 0.55496 0.0
C831 C 0.36211 0.21742 0.5648 0.0
C832 C 0.36155 0.22541 0.58333 0.0
C833 C 0.37681 0.2427 0.59215 0.0
C834 C 0.39292 0.25146 0.58244 0.0
C835 C 0.3936 0.24323 0.56403 0.0
C836 C 0.37597 0.18972 0.54508 0.0
C837 C 0.359 0.1754 0.55031 0.0
C838 C 0.35849 0.16242 0.56303 0.0
C839 C 0.37497 0.16373 0.57101 0.0
C840 C 0.39204 0.1787 0.56663 0.0
C841 C 0.39253 0.19155 0.55358 0.0
C842 C 0.36577 0.17729 0.41131 0.0
C843 C 0.37429 0.29858 0.53896 0.0
H844 H 0.8092 0.19023 0.36439 0.0
H845 H 0.96809 0.31769 0.52046 0.0
H846 H 0.80135 0.19343 0.46878 0.0
H847 H 0.77627 0.16146 0.45483 0.0
H848 H 0.80747 0.13705 0.4792 0.0
H849 H 0.83236 0.16883 0.49284 0.0
H850 H 0.83425 0.22851 0.44536 0.0
H851 H 0.82293 0.21687 0.41034 0.0
H852 H 0.83154 0.1694 0.41715 0.0
H853 H 0.84306 0.18134 0.45206 0.0
H854 H 0.8764 0.26514 0.46561 0.0
H855 H 0.89929 0.28002 0.44189 0.0
H856 H 0.90129 0.22826 0.43203 0.0
H857 H 0.87896 0.21376 0.45597 0.0
H858 H 0.87569 0.27095 0.51429 0.0
H859 H 0.90549 0.30031 0.52361 0.0
H860 H 0.93387 0.27134 0.50382 0.0
H861 H 0.904 0.24204 0.4948 0.0
H862 H 0.84526 0.24002 0.54178 0.0
H863 H 0.85707 0.24958 0.57699 0.0
H864 H 0.90097 0.23793 0.56674 0.0
H865 H 0.88843 0.22742 0.53201 0.0
H866 H 0.80973 0.20674 0.51889 0.0
H867 H 0.79147 0.18851 0.54464 0.0
H868 H 0.83013 0.16893 0.55628 0.0
H869 H 0.84864 0.18793 0.53121 0.0
O870 O 0.8138 0.19462 0.37824 0.0
O871 O 0.81843 0.17045 0.38255 0.0
O872 O 0.94087 0.32045 0.52711 0.0
O873 O 0.95611 0.30625 0.51699 0.0
C874 C 0.83517 0.20265 0.48748 0.0
C875 C 0.84597 0.21279 0.47257 0.0
C876 C 0.86333 0.22957 0.47788 0.0
C877 C 0.86954 0.23669 0.4981 0.0
C878 C 0.85864 0.22669 0.51303 0.0
C879 C 0.84148 0.20966 0.50768 0.0
C880 C 0.81862 0.18341 0.48189 0.0
C881 C 0.80253 0.1811 0.47143 0.0
C882 C 0.78828 0.16289 0.46346 0.0
C883 C 0.79007 0.14684 0.46572 0.0
C884 C 0.80585 0.1492 0.47698 0.0
C885 C 0.81997 0.1673 0.48499 0.0
C886 C 0.83929 0.20567 0.45128 0.0
C887 C 0.83369 0.21561 0.43924 0.0
C888 C 0.82722 0.20892 0.41925 0.0
C889 C 0.82626 0.19216 0.41096 0.0
C890 C 0.83203 0.18231 0.42308 0.0
C891 C 0.83854 0.18905 0.44304 0.0
C892 C 0.87593 0.23832 0.46241 0.0
C893 C 0.88171 0.25702 0.45819 0.0
C894 C 0.89476 0.26548 0.44472 0.0
C895 C 0.90195 0.25523 0.43507 0.0
C896 C 0.89576 0.23637 0.439 0.0
C897 C 0.883 0.22807 0.45265 0.0
C898 C 0.88769 0.25443 0.50375 0.0
C899 C 0.88837 0.27099 0.51202 0.0
C900 C 0.9054 0.28773 0.5173 0.0
C901 C 0.92207 0.28819 0.5144 0.0
C902 C 0.92131 0.2715 0.5062 0.0
C903 C 0.90427 0.25476 0.50098 0.0
C904 C 0.86601 0.23308 0.53432 0.0
C905 C 0.85737 0.23947 0.54723 0.0
C906 C 0.86425 0.24508 0.5673 0.0
C907 C 0.87999 0.24453 0.57479 0.0
C908 C 0.88865 0.23825 0.56166 0.0
C909 C 0.88165 0.23245 0.54171 0.0
C910 C 0.83046 0.19862 0.52327 0.0
C911 C 0.81424 0.19857 0.52714 0.0
C912 C 0.8038 0.18806 0.54178 0.0
C913 C 0.80929 0.1772 0.5526 0.0
C914 C 0.82564 0.17739 0.5486 0.0
C915 C 0.83617 0.18809 0.53414 0.0
C916 C 0.81928 0.18504 0.38975 0.0
C917 C 0.9402 0.30596 0.51991 0.0
H918 H 0.98912 0.51359 0.34251 0.0
H919 H 0.01591 0.38273 0.19575 0.0
H920 H 0.95972 0.49585 0.23905 0.0
H921 H 0.9657 0.52756 0.25149 0.0
H922 H 0.01627 0.55334 0.2232 0.0
H923 H 0.01015 0.52182 0.2109 0.0
H924 H 0.96545 0.46678 0.26586 0.0
H925 H 0.97062 0.48205 0.2997 0.0
H926 H 0.02264 0.52914 0.28649 0.0
H927 H 0.01741 0.51358 0.25281 0.0
H928 H 0.97046 0.43102 0.25047 0.0
H929 H 0.98333 0.41945 0.27588 0.0
H930 H 0.0368 0.47062 0.27699 0.0
H931 H 0.02396 0.48179 0.25134 0.0
H932 H 0.95949 0.41761 0.20525 0.0
H933 H 0.96374 0.39024 0.19874 0.0
H934 H 0.02317 0.42822 0.20606 0.0
H935 H 0.01867 0.45544 0.2124 0.0
H936 H 0.95124 0.43433 0.17413 0.0
H937 H 0.95056 0.41761 0.14251 0.0
H938 H 0.0094 0.45641 0.14262 0.0
H939 H 0.00998 0.4723 0.17455 0.0
H940 H 0.94806 0.47799 0.18941 0.0
H941 H 0.94266 0.49553 0.16437 0.0
H942 H 0.99907 0.51855 0.15037 0.0
H943 H 0.00406 0.50059 0.17497 0.0
O944 O 0.98742 0.50774 0.32913 0.0
O945 O 0.01397 0.53167 0.32153 0.0
O946 O 0.98317 0.37437 0.19453 0.0
O947 O 0.01381 0.39328 0.19824 0.0
C948 C 0.98328 0.48784 0.22017 0.0
C949 C 0.98752 0.47996 0.23624 0.0
C950 C 0.98917 0.46369 0.23266 0.0
C951 C 0.98613 0.45498 0.2131 0.0
C952 C 0.98176 0.46274 0.19702 0.0
C953 C 0.9803 0.47916 0.20055 0.0
C954 C 0.98443 0.50656 0.22394 0.0
C955 C 0.97179 0.50841 0.2351 0.0
C956 C 0.97533 0.5265 0.24235 0.0
C957 C 0.99152 0.54298 0.23845 0.0
C958 C 0.00354 0.541 0.22626 0.0
C959 C 3e-05 0.52297 0.21912 0.0
C960 C 0.99096 0.48916 0.25687 0.0
C961 C 0.97797 0.48036 0.27035 0.0
C962 C 0.98095 0.48914 0.28964 0.0
C963 C 0.99701 0.50686 0.29578 0.0
C964 C 0.01009 0.51553 0.28224 0.0
C965 C 0.00712 0.50671 0.26298 0.0
C966 C 0.99631 0.45719 0.2491 0.0
C967 C 0.9849 0.43975 0.25638 0.0
C968 C 0.99223 0.43327 0.27096 0.0
C969 C 0.01108 0.44413 0.27838 0.0
C970 C 0.02228 0.46187 0.27142 0.0
C971 C 0.01496 0.46831 0.25688 0.0
C972 C 0.98877 0.43843 0.20928 0.0
C973 C 0.97339 0.41995 0.2054 0.0
C974 C 0.97587 0.40437 0.20171 0.0
C975 C 0.99381 0.40704 0.20188 0.0
C976 C 0.00918 0.42565 0.20582 0.0
C977 C 0.00666 0.44121 0.20946 0.0
C978 C 0.98063 0.45459 0.17649 0.0
C979 C 0.96388 0.43935 0.16709 0.0
C980 C 0.96355 0.42985 0.14902 0.0
C981 C 0.97997 0.43552 0.14005 0.0
C982 C 0.99656 0.45136 0.14925 0.0
C983 C 0.9969 0.46067 0.16736 0.0
C984 C 0.97637 0.48787 0.18381 0.0
C985 C 0.95908 0.48652 0.18058 0.0
C986 C 0.95609 0.49668 0.16641 0.0
C987 C 0.97043 0.50851 0.15535 0.0
C988 C 0.98758 0.50932 0.15829 0.0
C989 C 0.9905 0.49908 0.17237 0.0
C990 C 4e-05 0.51622 0.31622 0.0
C991 C 0.99653 0.39054 0.19799 0.0
H992 H 0.51527 0.51958 0.35392 0.0
H993 H 0.37814 0.34217 0.19712 0.0
H994 H 0.50456 0.50715 0.22904 0.0
H995 H 0.53157 0.53796 0.24128 0.0
H996 H 0.55599 0.50959 0.27185 0.0
H997 H 0.52865 0.4786 0.25946 0.0
H998 H 0.48991 0.49748 0.26921 0.0
H999 H 0.50026 0.5115 0.30377 0.0
H1000 H 0.50401 0.4625 0.31805 0.0
H1001 H 0.49386 0.44876 0.28336 0.0
H1002 H 0.45152 0.46619 0.26335 0.0
H1003 H 0.42756 0.45499 0.28593 0.0
H1004 H 0.42908 0.40285 0.28754 0.0
H1005 H 0.45306 0.4142 0.26463 0.0
H1006 H 0.42745 0.43538 0.22761 0.0
H1007 H 0.39736 0.40626 0.21893 0.0
H1008 H 0.42511 0.3748 0.2063 0.0
H1009 H 0.4551 0.40399 0.21527 0.0
H1010 H 0.44498 0.4488 0.19244 0.0
H1011 H 0.4323 0.43718 0.15792 0.0
H1012 H 0.47359 0.42108 0.15017 0.0
H1013 H 0.48554 0.43185 0.18527 0.0
H1014 H 0.48567 0.48574 0.19208 0.0
H1015 H 0.5057 0.50366 0.16747 0.0
H1016 H 0.54225 0.48239 0.18329 0.0
H1017 H 0.52242 0.46519 0.20855 0.0
O1018 O 0.5112 0.51378 0.34033 0.0
O1019 O 0.51276 0.48822 0.34693 0.0
O1020 O 0.37625 0.3707 0.20745 0.0
O1021 O 0.38986 0.3539 0.20069 0.0
C1022 C 0.49706 0.47226 0.23785 0.0
C1023 C 0.4853 0.46381 0.25271 0.0
C1024 C 0.46752 0.44764 0.24753 0.0
C1025 C 0.46176 0.43935 0.22761 0.0
C1026 C 0.47334 0.44798 0.21265 0.0
C1027 C 0.49099 0.46442 0.21779 0.0
C1028 C 0.51473 0.49062 0.24314 0.0
C1029 C 0.51595 0.50754 0.23791 0.0
C1030 C 0.53141 0.52516 0.24498 0.0
C1031 C 0.54598 0.52626 0.25753 0.0
C1032 C 0.54494 0.50923 0.26234 0.0
C1033 C 0.52944 0.49154 0.25516 0.0
C1034 C 0.49133 0.47221 0.27377 0.0
C1035 C 0.49309 0.48987 0.27981 0.0
C1036 C 0.49895 0.4978 0.29957 0.0
C1037 C 0.50302 0.48815 0.31368 0.0
C1038 C 0.50104 0.47034 0.30757 0.0
C1039 C 0.49522 0.46245 0.28778 0.0
C1040 C 0.45405 0.44103 0.26245 0.0
C1041 C 0.44687 0.45247 0.26882 0.0
C1042 C 0.43321 0.44606 0.28175 0.0
C1043 C 0.42643 0.42804 0.28855 0.0
C1044 C 0.4339 0.41672 0.28239 0.0
C1045 C 0.44763 0.42319 0.26943 0.0
C1046 C 0.44344 0.42174 0.22227 0.0
C1047 C 0.42699 0.42216 0.22313 0.0
C1048 C 0.40983 0.40552 0.21808 0.0
C1049 C 0.40883 0.38818 0.21196 0.0
C1050 C 0.42537 0.38788 0.21099 0.0
C1051 C 0.44252 0.40453 0.21609 0.0
C1052 C 0.46607 0.44101 0.19143 0.0
C1053 C 0.45116 0.44257 0.18334 0.0
C1054 C 0.44409 0.43613 0.1635 0.0
C1055 C 0.45198 0.42828 0.15114 0.0
C1056 C 0.46703 0.42684 0.15928 0.0
C1057 C 0.47398 0.43311 0.17928 0.0
C1058 C 0.50265 0.47424 0.20206 0.0
C1059 C 0.49795 0.48488 0.19009 0.0
C1060 C 0.50936 0.49498 0.17592 0.0
C1061 C 0.52562 0.49447 0.17329 0.0
C1062 C 0.53001 0.48336 0.18507 0.0
C1063 C 0.51867 0.47343 0.19943 0.0
C1064 C 0.50928 0.49664 0.33465 0.0
C1065 C 0.39063 0.37045 0.20658 0.0
H1066 H 0.5159 0.00337 0.38222 0.0
H1067 H 0.37127 0.98357 0.22249 0.0
H1068 H 0.53215 0.03117 0.28402 0.0
H1069 H 0.55677 0.02715 0.29976 0.0
H1070 H 0.53522 0.97348 0.26331 0.0
H1071 H 0.51024 0.97735 0.24818 0.0
H1072 H 0.49873 0.02595 0.30736 0.0
H1073 H 0.50663 0.02155 0.34117 0.0
H1074 H 0.49848 0.96649 0.31981 0.0
H1075 H 0.49036 0.97096 0.28614 0.0
H1076 H 0.46417 0.02628 0.28593 0.0
H1077 H 0.44126 0.01997 0.30942 0.0
H1078 H 0.4286 0.96148 0.30738 0.0
H1079 H 0.45174 0.96807 0.28421 0.0
H1080 H 0.46362 0.03259 0.23892 0.0
H1081 H 0.43454 0.03167 0.22939 0.0
H1082 H 0.40405 0.97162 0.23706 0.0
H1083 H 0.43323 0.9727 0.24633 0.0
H1084 H 0.49536 0.0365 0.213 0.0
H1085 H 0.48448 0.03836 0.17927 0.0
H1086 H 0.44167 0.97903 0.1755 0.0
H1087 H 0.45277 0.97723 0.20903 0.0
H1088 H 0.52899 0.0391 0.23459 0.0
H1089 H 0.54822 0.04457 0.20731 0.0
H1090 H 0.51312 0.98539 0.18357 0.0
H1091 H 0.49363 0.98039 0.21046 0.0
O1092 O 0.5126 0.00476 0.36876 0.0
O1093 O 0.50838 0.97662 0.35699 0.0
O1094 O 0.39929 0.01522 0.2224 0.0
O1095 O 0.38297 0.98435 0.22621 0.0
C1096 C 0.502 0.00462 0.25938 0.0
C1097 C 0.48959 0.00168 0.27377 0.0
C1098 C 0.4728 0.00118 0.26854 0.0
C1099 C 0.46822 0.00334 0.2489 0.0
C1100 C 0.48038 0.00584 0.2344 0.0
C1101 C 0.49734 0.00664 0.23969 0.0
C1102 C 0.51936 0.00452 0.26503 0.0
C1103 C 0.53306 0.01881 0.27906 0.0
C1104 C 0.54716 0.01648 0.28802 0.0
C1105 C 0.54784 -0.00015 0.283 0.0
C1106 C 0.53489 0.98628 0.26778 0.0
C1107 C 0.52075 0.98859 0.25891 0.0
C1108 C 0.49404 0.99881 0.29433 0.0
C1109 C 0.49857 0.01291 0.31006 0.0
C1110 C 0.50312 0.01038 0.32933 0.0
C1111 C 0.50323 0.99368 0.33319 0.0
C1112 C 0.49856 0.97952 0.31736 0.0
C1113 C 0.49395 0.98205 0.29812 0.0
C1114 C 0.4596 0.99764 0.28346 0.0
C1115 C 0.4565 0.01216 0.2907 0.0
C1116 C 0.44336 0.00849 0.304 0.0
C1117 C 0.43308 0.99021 0.31023 0.0
C1118 C 0.43645 0.97578 0.3031 0.0
C1119 C 0.44961 0.97947 0.28983 0.0
C1120 C 0.4505 0.00274 0.24339 0.0
C1121 C 0.45063 0.01926 0.23852 0.0
C1122 C 0.43401 0.01869 0.2331 0.0
C1123 C 0.41696 0.00156 0.23249 0.0
C1124 C 0.41692 0.98504 0.23741 0.0
C1125 C 0.43355 0.98563 0.24278 0.0
C1126 C 0.47482 0.00675 0.21346 0.0
C1127 C 0.48382 0.02385 0.20475 0.0
C1128 C 0.47759 0.02489 0.18553 0.0
C1129 C 0.46213 0.00887 0.17485 0.0
C1130 C 0.45344 0.99166 0.18349 0.0
C1131 C 0.45979 0.99059 0.20258 0.0
C1132 C 0.51 0.00937 0.22443 0.0
C1133 C 0.52562 0.02733 0.22355 0.0
C1134 C 0.53657 0.03039 0.20797 0.0
C1135 C 0.53215 0.01546 0.19313 0.0
C1136 C 0.51671 0.99733 0.19446 0.0
C1137 C 0.50568 0.99435 0.20992 0.0
C1138 C 0.50821 0.9911 0.35366 0.0
C1139 C 0.39926 0.00087 0.22672 0.0
H1140 H 0.51773 0.02969 0.69855 0.0
H1141 H 0.61629 0.97588 0.8537 0.0
H1142 H 0.50688 0.02784 0.80295 0.0
H1143 H 0.48098 0.02891 0.78592 0.0
H1144 H 0.44525 0.96877 0.7906 0.0
H1145 H 0.47154 0.96778 0.80712 0.0
H1146 H 0.53991 0.03125 0.78234 0.0
H1147 H 0.53489 0.03611 0.74784 0.0
H1148 H 0.48974 0.97767 0.73672 0.0
H1149 H 0.49508 0.97294 0.7712 0.0
H1150 H 0.57092 0.03018 0.8094 0.0
H1151 H 0.59541 0.03676 0.78807 0.0
H1152 H 0.56002 0.98206 0.75373 0.0
H1153 H 0.5355 0.97565 0.7752 0.0
H1154 H 0.56997 0.02266 0.85111 0.0
H1155 H 0.59732 0.02125 0.8631 0.0
H1156 H 0.57398 0.96552 0.83026 0.0
H1157 H 0.54662 0.96705 0.81856 0.0
H1158 H 0.54005 0.02157 0.87056 0.0
H1159 H 0.55058 0.02066 0.90454 0.0
H1160 H 0.53134 0.96057 0.8913 0.0
H1161 H 0.52187 0.96208 0.85697 0.0
H1162 H 0.5041 0.02146 0.8483 0.0
H1163 H 0.48404 0.01934 0.87385 0.0
H1164 H 0.46681 0.95986 0.87582 0.0
H1165 H 0.48711 0.96223 0.85038 0.0
O1166 O 0.51955 0.02742 0.7121 0.0
O1167 O 0.4964 0.9973 0.70719 0.0
O1168 O 0.61698 0.00546 0.86587 0.0
O1169 O 0.60563 0.97681 0.8492 0.0
C1170 C 0.50759 0.99661 0.81339 0.0
C1171 C 0.52083 0.99888 0.80024 0.0
C1172 C 0.53691 0.9986 0.80713 0.0
C1173 C 0.5396 0.99566 0.82702 0.0
C1174 C 0.52643 0.99341 0.84015 0.0
C1175 C 0.51039 0.99381 0.83336 0.0
C1176 C 0.49111 0.99772 0.80614 0.0
C1177 C 0.49338 0.01497 0.80056 0.0
C1178 C 0.47851 0.01556 0.79092 0.0
C1179 C 0.46102 0.99889 0.78675 0.0
C1180 C 0.4586 0.9818 0.7933 0.0
C1181 C 0.47353 0.98123 0.80292 0.0
C1182 C 0.5179 0.00173 0.77922 0.0
C1183 C 0.52903 0.01949 0.77238 0.0
C1184 C 0.52609 0.02224 0.75269 0.0
C1185 C 0.51191 0.00728 0.73951 0.0
C1186 C 0.50078 0.98949 0.74647 0.0
C1187 C 0.50378 0.98675 0.76615 0.0
C1188 C 0.55151 0.00242 0.79387 0.0
C1189 C 0.56851 0.0196 0.79731 0.0
C1190 C 0.58248 0.02328 0.78517 0.0
C1191 C 0.57968 0.00987 0.76929 0.0
C1192 C 0.56253 0.99272 0.76575 0.0
C1193 C 0.54855 0.98901 0.778 0.0
C1194 C 0.55629 0.9949 0.83411 0.0
C1195 C 0.57076 0.01012 0.84663 0.0
C1196 C 0.58638 0.0093 0.8534 0.0
C1197 C 0.58782 0.99324 0.84766 0.0
C1198 C 0.57331 0.97807 0.83499 0.0
C1199 C 0.55768 0.97891 0.82827 0.0
C1200 C 0.53024 0.99191 0.86138 0.0
C1201 C 0.53792 0.00818 0.87514 0.0
C1202 C 0.54385 0.00757 0.8946 0.0
C1203 C 0.54194 0.99054 0.90078 0.0
C1204 C 0.53344 0.97404 0.88704 0.0
C1205 C 0.5278 0.97477 0.86747 0.0
C1206 C 0.49698 0.99199 0.84748 0.0
C1207 C 0.49578 0.00792 0.85407 0.0
C1208 C 0.48431 0.00666 0.86864 0.0
C1209 C 0.47385 0.98942 0.87689 0.0
C1210 C 0.47487 0.97339 0.86996 0.0
C1211 C 0.48633 0.97467 0.85535 0.0
C1212 C 0.50876 0.01028 0.71862 0.0
C1213 C 0.60438 0.99228 0.85483 0.0
H1214 H 0.98536 0.47828 0.72256 0.0
H1215 H 0.03913 0.65243 0.87497 0.0
H1216 H 0.98733 0.48805 0.83465 0.0
H1217 H 0.97856 0.45565 0.82284 0.0
H1218 H 0.03638 0.47163 0.82853 0.0
H1219 H 0.04501 0.50468 0.83874 0.0
H1220 H 0.98557 0.50798 0.80328 0.0
H1221 H 0.97992 0.49353 0.76902 0.0
H1222 H 0.0384 0.51353 0.76918 0.0
H1223 H 0.04386 0.52811 0.80341 0.0
H1224 H 0.98393 0.5374 0.82028 0.0
H1225 H 0.97345 0.55028 0.79431 0.0
H1226 H 0.02964 0.58339 0.77952 0.0
H1227 H 0.04004 0.57032 0.80582 0.0
H1228 H 0.9923 0.55755 0.85576 0.0
H1229 H 0.99244 0.58731 0.86388 0.0
H1230 H 0.05201 0.61897 0.86389 0.0
H1231 H 0.05163 0.58907 0.85579 0.0
H1232 H 0.99595 0.53833 0.88571 0.0
H1233 H 0.99662 0.55517 0.91716 0.0
H1234 H 0.05634 0.5836 0.92462 0.0
H1235 H 0.0556 0.56695 0.89268 0.0
H1236 H 0.00106 0.50539 0.88752 0.0
H1237 H 0.00568 0.48635 0.9114 0.0
H1238 H 0.06132 0.50763 0.89581 0.0
H1239 H 0.05667 0.52678 0.87222 0.0
O1240 O 0.98792 0.48417 0.73607 0.0
O1241 O 0.01808 0.49461 0.73698 0.0
O1242 O 0.00808 0.62348 0.87185 0.0
O1243 O 0.03866 0.64045 0.87169 0.0
C1244 C 0.02143 0.51867 0.84211 0.0
C1245 C 0.01861 0.52792 0.82654 0.0
C1246 C 0.01857 0.54502 0.83084 0.0
C1247 C 0.0219 0.55318 0.85064 0.0
C1248 C 0.025 0.5441 0.86626 0.0
C1249 C 0.02512 0.52699 0.86197 0.0
C1250 C 0.01676 0.49863 0.8377 0.0
C1251 C 0.99809 0.48449 0.83351 0.0
C1252 C 0.99311 0.46587 0.82689 0.0
C1253 C 0.00672 0.46079 0.82482 0.0
C1254 C 0.02551 0.47499 0.82965 0.0
C1255 C 0.03049 0.49383 0.83582 0.0
C1256 C 0.01516 0.51931 0.80568 0.0
C1257 C 0.99716 0.50941 0.7958 0.0
C1258 C 0.99397 0.50108 0.77627 0.0
C1259 C 0.00872 0.50243 0.76633 0.0
C1260 C 0.02674 0.51228 0.77638 0.0
C1261 C 0.02991 0.52063 0.7959 0.0
C1262 C 0.0127 0.55301 0.81489 0.0
C1263 C 0.99395 0.54737 0.81136 0.0
C1264 C 0.98798 0.55459 0.7964 0.0
C1265 C 0.00071 0.56769 0.78475 0.0
C1266 C 0.01955 0.57331 0.78829 0.0
C1267 C 0.0255 0.56592 0.80325 0.0
C1268 C 0.02194 0.57123 0.85512 0.0
C1269 C 0.00533 0.57095 0.85742 0.0
C1270 C 0.00547 0.58796 0.86211 0.0
C1271 C 0.02225 0.60554 0.86453 0.0
C1272 C 0.03886 0.6057 0.86212 0.0
C1273 C 0.03869 0.58867 0.85747 0.0
C1274 C 0.02573 0.55145 0.88698 0.0
C1275 C 0.00917 0.54791 0.89431 0.0
C1276 C 0.00956 0.55761 0.91214 0.0
C1277 C 0.02653 0.57077 0.92311 0.0
C1278 C 0.04311 0.57348 0.91637 0.0
C1279 C 0.04271 0.56396 0.89827 0.0
C1280 C 0.02852 0.51738 0.87813 0.0
C1281 C 0.01436 0.50624 0.88961 0.0
C1282 C 0.01704 0.49543 0.90324 0.0
C1283 C 0.03384 0.49547 0.90537 0.0
C1284 C 0.0482 0.50723 0.89435 0.0
C1285 C 0.04559 0.51817 0.88093 0.0
C1286 C 0.00527 0.49353 0.74559 0.0
C1287 C 0.02249 0.62364 0.86957 0.0
H1288 H 0.4782 0.51276 0.7047 0.0
H1289 H 0.63692 0.64878 0.85716 0.0
H1290 H 0.47048 0.52634 0.8074 0.0
H1291 H 0.44363 0.49461 0.7963 0.0
H1292 H 0.4706 0.46886 0.82726 0.0
H1293 H 0.49723 0.50041 0.83809 0.0
H1294 H 0.50404 0.55739 0.78267 0.0
H1295 H 0.49273 0.54314 0.74826 0.0
H1296 H 0.49796 0.49485 0.76199 0.0
H1297 H 0.50947 0.50937 0.79628 0.0
H1298 H 0.54593 0.59339 0.80096 0.0
H1299 H 0.56931 0.60501 0.77744 0.0
H1300 H 0.56907 0.55175 0.77529 0.0
H1301 H 0.5466 0.5408 0.79946 0.0
H1302 H 0.54452 0.60366 0.84949 0.0
H1303 H 0.57451 0.63307 0.85746 0.0
H1304 H 0.6023 0.60194 0.84346 0.0
H1305 H 0.57225 0.57261 0.83576 0.0
H1306 H 0.51342 0.57492 0.87943 0.0
H1307 H 0.52587 0.58778 0.91418 0.0
H1308 H 0.56961 0.57521 0.90749 0.0
H1309 H 0.55687 0.56198 0.87313 0.0
H1310 H 0.47627 0.53789 0.85706 0.0
H1311 H 0.45702 0.51834 0.88166 0.0
H1312 H 0.4995 0.50558 0.89997 0.0
H1313 H 0.51852 0.52494 0.87528 0.0
O1314 O 0.4828 0.51818 0.71835 0.0
O1315 O 0.48568 0.49365 0.7262 0.0
O1316 O 0.60991 0.65268 0.86126 0.0
O1317 O 0.62487 0.63735 0.85414 0.0
C1318 C 0.50303 0.53452 0.82831 0.0
C1319 C 0.51406 0.54303 0.81292 0.0
C1320 C 0.5317 0.55958 0.81743 0.0
C1321 C 0.53793 0.56826 0.8372 0.0
C1322 C 0.52692 0.55978 0.85265 0.0
C1323 C 0.50954 0.54282 0.84819 0.0
C1324 C 0.48573 0.51568 0.82371 0.0
C1325 C 0.47039 0.51382 0.81203 0.0
C1326 C 0.45516 0.49572 0.8056 0.0
C1327 C 0.45499 0.47924 0.81092 0.0
C1328 C 0.47014 0.48126 0.82317 0.0
C1329 C 0.48537 0.49929 0.82943 0.0
C1330 C 0.5074 0.53433 0.792 0.0
C1331 C 0.50276 0.54375 0.77819 0.0
C1332 C 0.49628 0.53556 0.75856 0.0
C1333 C 0.49437 0.51781 0.75239 0.0
C1334 C 0.4992 0.5085 0.76626 0.0
C1335 C 0.50572 0.51672 0.78587 0.0
C1336 C 0.54457 0.56626 0.80189 0.0
C1337 C 0.55092 0.58427 0.79531 0.0
C1338 C 0.56418 0.59081 0.7818 0.0
C1339 C 0.57116 0.57935 0.77458 0.0
C1340 C 0.56428 0.56109 0.78082 0.0
C1341 C 0.55125 0.55469 0.79443 0.0
C1342 C 0.55621 0.58606 0.84189 0.0
C1343 C 0.55711 0.60324 0.84815 0.0
C1344 C 0.57425 0.62001 0.85269 0.0
C1345 C 0.59081 0.61987 0.85104 0.0
C1346 C 0.58983 0.60257 0.84483 0.0
C1347 C 0.57268 0.58581 0.84035 0.0
C1348 C 0.53437 0.56774 0.87366 0.0
C1349 C 0.52566 0.57493 0.88552 0.0
C1350 C 0.53276 0.58223 0.90531 0.0
C1351 C 0.54881 0.58265 0.91343 0.0
C1352 C 0.55742 0.57537 0.90152 0.0
C1353 C 0.55018 0.56784 0.8819 0.0
C1354 C 0.49876 0.5328 0.86443 0.0
C1355 C 0.48149 0.53108 0.86661 0.0
C1356 C 0.47059 0.52002 0.88069 0.0
C1357 C 0.47677 0.51041 0.89263 0.0
C1358 C 0.49435 0.51272 0.89083 0.0
C1359 C 0.50526 0.52384 0.87687 0.0
C1360 C 0.48737 0.5091 0.73155 0.0
C1361 C 0.60906 0.63765 0.8558 0.0
H1362 H 0.62852 0.83379 0.68585 0.0
H1363 H 0.64553 0.68979 0.55225 0.0
H1364 H 0.6142 0.82461 0.58038 0.0
H1365 H 0.62448 0.85788 0.59226 0.0
H1366 H 0.67766 0.87574 0.57101 0.0
H1367 H 0.66752 0.84266 0.55975 0.0
H1368 H 0.60977 0.7902 0.60776 0.0
H1369 H 0.61233 0.80456 0.64142 0.0
H1370 H 0.66923 0.84716 0.63627 0.0
H1371 H 0.66654 0.83251 0.60275 0.0
H1372 H 0.61144 0.75104 0.59464 0.0
H1373 H 0.61898 0.73616 0.62122 0.0
H1374 H 0.67537 0.78363 0.62887 0.0
H1375 H 0.66764 0.7983 0.60271 0.0
H1376 H 0.60464 0.74166 0.54408 0.0
H1377 H 0.60313 0.71088 0.53905 0.0
H1378 H 0.66028 0.7375 0.56419 0.0
H1379 H 0.66168 0.7682 0.56888 0.0
H1380 H 0.60778 0.77042 0.51081 0.0
H1381 H 0.61048 0.7575 0.47838 0.0
H1382 H 0.66554 0.77015 0.49969 0.0
H1383 H 0.66302 0.7838 0.53145 0.0
H1384 H 0.6051 0.80538 0.53077 0.0
H1385 H 0.60468 0.82452 0.50468 0.0
H1386 H 0.6622 0.84328 0.49856 0.0
H1387 H 0.66201 0.8232 0.52387 0.0
O1388 O 0.62783 0.8283 0.67256 0.0
O1389 O 0.65699 0.84993 0.66912 0.0
O1390 O 0.61648 0.68883 0.54098 0.0
O1391 O 0.64577 0.70179 0.55398 0.0
C1392 C 0.63576 0.81121 0.56575 0.0
C1393 C 0.63613 0.80167 0.58229 0.0
C1394 C 0.63541 0.78402 0.57945 0.0
C1395 C 0.63395 0.77569 0.56004 0.0
C1396 C 0.63365 0.78526 0.54346 0.0
C1397 C 0.63417 0.80283 0.54633 0.0
C1398 C 0.64009 0.83126 0.56911 0.0
C1399 C 0.62789 0.83581 0.57789 0.0
C1400 C 0.63379 0.85476 0.58468 0.0
C1401 C 0.65196 0.86933 0.58282 0.0
C1402 C 0.66369 0.86477 0.57295 0.0
C1403 C 0.65782 0.84592 0.56622 0.0
C1404 C 0.63789 0.81043 0.60277 0.0
C1405 C 0.62277 0.80262 0.61395 0.0
C1406 C 0.62427 0.81087 0.63315 0.0
C1407 C 0.64097 0.82706 0.64151 0.0
C1408 C 0.65615 0.83475 0.63026 0.0
C1409 C 0.65464 0.82645 0.61109 0.0
C1410 C 0.63899 0.77575 0.59683 0.0
C1411 C 0.6253 0.75831 0.60237 0.0
C1412 C 0.62966 0.74984 0.61748 0.0
C1413 C 0.64778 0.75873 0.62723 0.0
C1414 C 0.6612 0.77657 0.62204 0.0
C1415 C 0.65684 0.78495 0.607 0.0
C1416 C 0.6332 0.75709 0.55702 0.0
C1417 C 0.61681 0.74079 0.54847 0.0
C1418 C 0.61599 0.72325 0.54564 0.0
C1419 C 0.63157 0.72172 0.55129 0.0
C1420 C 0.64801 0.73815 0.55974 0.0
C1421 C 0.64883 0.75569 0.56251 0.0
C1422 C 0.63518 0.77797 0.52349 0.0
C1423 C 0.62047 0.77055 0.50831 0.0
C1424 C 0.62199 0.76302 0.48988 0.0
C1425 C 0.63823 0.76273 0.48638 0.0
C1426 C 0.65295 0.77039 0.50166 0.0
C1427 C 0.65148 0.77804 0.51993 0.0
C1428 C 0.63357 0.81294 0.52915 0.0
C1429 C 0.61747 0.81338 0.52348 0.0
C1430 C 0.61736 0.8245 0.50871 0.0
C1431 C 0.63348 0.8357 0.49958 0.0
C1432 C 0.64944 0.8347 0.50497 0.0
C1433 C 0.64942 0.82331 0.51953 0.0
C1434 C 0.64249 0.83583 0.66187 0.0
C1435 C 0.63074 0.7031 0.5484 0.0
H1436 H 0.15981 0.82609 0.70323 0.0
H1437 H 0.05126 0.67078 0.53425 0.0
H1438 H 0.16634 0.83363 0.59683 0.0
H1439 H 0.19222 0.86383 0.61262 0.0
H1440 H 0.2291 0.84174 0.60596 0.0
H1441 H 0.20294 0.8115 0.5897 0.0
H1442 H 0.13684 0.80609 0.61792 0.0
H1443 H 0.1426 0.81612 0.65361 0.0
H1444 H 0.18364 0.79894 0.65881 0.0
H1445 H 0.17758 0.78876 0.62311 0.0
H1446 H 0.10589 0.77672 0.58664 0.0
H1447 H 0.08105 0.76371 0.608 0.0
H1448 H 0.10783 0.73766 0.63888 0.0
H1449 H 0.13305 0.75134 0.61758 0.0
H1450 H 0.10522 0.76559 0.5434 0.0
H1451 H 0.07654 0.73671 0.52944 0.0
H1452 H 0.09411 0.70249 0.55988 0.0
H1453 H 0.12284 0.73148 0.57354 0.0
H1454 H 0.13998 0.7976 0.52686 0.0
H1455 H 0.13063 0.78721 0.49139 0.0
H1456 H 0.13438 0.737 0.49891 0.0
H1457 H 0.14425 0.74778 0.53441 0.0
H1458 H 0.16878 0.83058 0.55515 0.0
H1459 H 0.18779 0.85077 0.5311 0.0
H1460 H 0.2047 0.80993 0.51571 0.0
H1461 H 0.18595 0.78998 0.54038 0.0
O1462 O 0.15769 0.82195 0.68916 0.0
O1463 O 0.1787 0.81295 0.69102 0.0
O1464 O 0.05413 0.70067 0.52417 0.0
O1465 O 0.0625 0.68244 0.53956 0.0
C1466 C 0.16654 0.80176 0.58377 0.0
C1467 C 0.15329 0.79056 0.59631 0.0
C1468 C 0.13662 0.77411 0.58815 0.0
C1469 C 0.13369 0.7681 0.56764 0.0
C1470 C 0.14704 0.77911 0.55504 0.0
C1471 C 0.16335 0.79616 0.5631 0.0
C1472 C 0.18276 0.82038 0.59222 0.0
C1473 C 0.18002 0.83534 0.59874 0.0
C1474 C 0.19482 0.85252 0.60792 0.0
C1475 C 0.21272 0.85513 0.61085 0.0
C1476 C 0.21551 0.84022 0.60388 0.0
C1477 C 0.20062 0.82296 0.59462 0.0
C1478 C 0.15665 0.79652 0.618 0.0
C1479 C 0.14694 0.80435 0.62683 0.0
C1480 C 0.15032 0.81014 0.6472 0.0
C1481 C 0.16356 0.8083 0.65908 0.0
C1482 C 0.17333 0.80052 0.65011 0.0
C1483 C 0.1699 0.7947 0.62974 0.0
C1484 C 0.12115 0.76484 0.60051 0.0
C1485 C 0.10627 0.76802 0.59788 0.0
C1486 C 0.09206 0.7605 0.61007 0.0
C1487 C 0.09237 0.74953 0.62511 0.0
C1488 C 0.10726 0.7462 0.62757 0.0
C1489 C 0.12159 0.75385 0.61537 0.0
C1490 C 0.11617 0.75059 0.55932 0.0
C1491 C 0.10289 0.75184 0.54692 0.0
C1492 C 0.0865 0.73532 0.53903 0.0
C1493 C 0.08305 0.71728 0.54351 0.0
C1494 C 0.09634 0.71614 0.5561 0.0
C1495 C 0.11275 0.73267 0.56394 0.0
C1496 C 0.14301 0.77357 0.53321 0.0
C1497 C 0.13926 0.78462 0.52078 0.0
C1498 C 0.13386 0.77863 0.50054 0.0
C1499 C 0.13177 0.76129 0.49241 0.0
C1500 C 0.13577 0.75036 0.50482 0.0
C1501 C 0.14147 0.75652 0.52504 0.0
C1502 C 0.17616 0.80894 0.54964 0.0
C1503 C 0.17687 0.82616 0.54686 0.0
C1504 C 0.18751 0.83753 0.5329 0.0
C1505 C 0.19757 0.83182 0.52135 0.0
C1506 C 0.19716 0.81472 0.52446 0.0
C1507 C 0.18648 0.80333 0.5385 0.0
C1508 C 0.16716 0.81451 0.68071 0.0
C1509 C 0.06567 0.69968 0.53513 0.0
H1510 H 0.20464 0.3805 0.72641 0.0
H1511 H 0.04989 0.33619 0.56271 0.0
H1512 H 0.21601 0.39552 0.62135 0.0
H1513 H 0.2416 0.39273 0.6368 0.0
H1514 H 0.21289 0.33302 0.61414 0.0
H1515 H 0.1877 0.33611 0.59859 0.0
H1516 H 0.18253 0.39313 0.648 0.0
H1517 H 0.19264 0.39313 0.6826 0.0
H1518 H 0.18254 0.33593 0.66908 0.0
H1519 H 0.17223 0.33604 0.63461 0.0
H1520 H 0.14079 0.38527 0.62917 0.0
H1521 H 0.11529 0.37469 0.65008 0.0
H1522 H 0.11126 0.31964 0.64911 0.0
H1523 H 0.13611 0.33007 0.62766 0.0
H1524 H 0.14098 0.39275 0.58747 0.0
H1525 H 0.11064 0.38904 0.57782 0.0
H1526 H 0.08559 0.32776 0.57505 0.0
H1527 H 0.11604 0.33171 0.5846 0.0
H1528 H 0.16176 0.39497 0.55789 0.0
H1529 H 0.14934 0.39238 0.5235 0.0
H1530 H 0.13371 0.3329 0.51609 0.0
H1531 H 0.14531 0.3355 0.55071 0.0
H1532 H 0.20225 0.39842 0.56622 0.0
H1533 H 0.21896 0.39888 0.53763 0.0
H1534 H 0.19453 0.33772 0.53538 0.0
H1535 H 0.17816 0.3375 0.56389 0.0
O1536 O 0.20042 0.38012 0.7127 0.0
O1537 O 0.19512 0.35077 0.70494 0.0
O1538 O 0.07562 0.36965 0.56807 0.0
O1539 O 0.06206 0.33807 0.56651 0.0
C1540 C 0.18301 0.3666 0.60303 0.0
C1541 C 0.17125 0.36506 0.61773 0.0
C1542 C 0.15408 0.36371 0.61239 0.0
C1543 C 0.14902 0.3648 0.59252 0.0
C1544 C 0.16082 0.36656 0.57788 0.0
C1545 C 0.17774 0.36731 0.5831 0.0
C1546 C 0.20013 0.36609 0.60862 0.0
C1547 C 0.21559 0.38203 0.61921 0.0
C1548 C 0.23008 0.38033 0.62821 0.0
C1549 C 0.22927 0.3626 0.62686 0.0
C1550 C 0.21418 0.34696 0.61525 0.0
C1551 C 0.19975 0.34869 0.60626 0.0
C1552 C 0.17683 0.36467 0.6388 0.0
C1553 C 0.18246 0.3806 0.65258 0.0
C1554 C 0.18826 0.38057 0.67231 0.0
C1555 C 0.18848 0.36456 0.67859 0.0
C1556 C 0.18261 0.34852 0.66473 0.0
C1557 C 0.17677 0.34856 0.64502 0.0
C1558 C 0.14027 0.35843 0.62693 0.0
C1559 C 0.13445 0.371 0.63364 0.0
C1560 C 0.11996 0.36495 0.64563 0.0
C1561 C 0.11114 0.34626 0.6511 0.0
C1562 C 0.11752 0.334 0.64487 0.0
C1563 C 0.13187 0.34 0.63282 0.0
C1564 C 0.13063 0.3625 0.58668 0.0
C1565 C 0.12891 0.37855 0.58471 0.0
C1566 C 0.11157 0.37638 0.57923 0.0
C1567 C 0.09568 0.35809 0.57566 0.0
C1568 C 0.09753 0.34204 0.57768 0.0
C1569 C 0.11488 0.34424 0.58313 0.0
C1570 C 0.1544 0.36542 0.55672 0.0
C1571 C 0.15565 0.38142 0.54877 0.0
C1572 C 0.14866 0.37992 0.52908 0.0
C1573 C 0.14044 0.3624 0.51698 0.0
C1574 C 0.1396 0.34652 0.52502 0.0
C1575 C 0.1464 0.348 0.54473 0.0
C1576 C 0.18938 0.36799 0.56735 0.0
C1577 C 0.20085 0.38522 0.55972 0.0
C1578 C 0.21019 0.38542 0.54331 0.0
C1579 C 0.20814 0.36835 0.53432 0.0
C1580 C 0.19672 0.35116 0.54221 0.0
C1581 C 0.1874 0.35099 0.55854 0.0
C1582 C 0.19485 0.36466 0.69951 0.0
C1583 C 0.07723 0.3557 0.56986 0.0
H1584 H 0.97258 0.39112 0.01783 0.0
H1585 H 0.99924 0.36668 0.05169 0.0
H1586 H 0.96883 0.40537 0.04845 0.0
H1587 H 0.9948 0.38025 0.08236 0.0
H1588 H 0.00654 0.42713 0.13078 0.0
H1589 H 0.00752 0.41041 0.10052 0.0
H1590 H 0.95394 0.40091 0.07782 0.0
H1591 H 0.95355 0.41885 0.10771 0.0
C1592 C 0.97731 0.38846 0.03182 0.0
C1593 C 0.98635 0.37787 0.03228 0.0
C1594 C 0.97508 0.39658 0.04944 0.0
C1595 C 0.98167 0.39416 0.06796 0.0
C1596 C 0.98995 0.38283 0.06839 0.0
C1597 C 0.99237 0.3749 0.05078 0.0
C1598 C 0.99506 0.42174 0.11925 0.0
C1599 C 0.98007 0.42459 0.12166 0.0
C1600 C 0.99546 0.4118 0.10197 0.0
C1601 C 0.98077 0.40418 0.08665 0.0
C1602 C 0.96561 0.40675 0.08917 0.0
C1603 C 0.96528 0.41686 0.10644 0.0
H1604 H 0.61696 0.56551 0.10496 0.0
H1605 H 0.58158 0.58964 0.10886 0.0
H1606 H 0.59447 0.53769 0.12011 0.0
H1607 H 0.55915 0.56187 0.1237 0.0
H1608 H 0.51662 0.50219 0.13679 0.0
H1609 H 0.5376 0.52501 0.11576 0.0
H1610 H 0.58445 0.53595 0.15615 0.0
H1611 H 0.56362 0.51388 0.1777 0.0
C1612 C 0.60424 0.56471 0.1087 0.0
C1613 C 0.6011 0.57984 0.10593 0.0
C1614 C 0.59146 0.54886 0.11742 0.0
C1615 C 0.57515 0.54771 0.12308 0.0
C1616 C 0.57157 0.56237 0.11934 0.0
C1617 C 0.5845 0.57835 0.111 0.0
C1618 C 0.53139 0.50946 0.14124 0.0
C1619 C 0.53838 0.50633 0.15912 0.0
C1620 C 0.54336 0.52239 0.12911 0.0
C1621 C 0.56259 0.5322 0.13439 0.0
C1622 C 0.56967 0.52838 0.15164 0.0
C1623 C 0.5577 0.51567 0.16395 0.0
H1624 H 0.44163 0.04124 0.05983 0.0
H1625 H 0.39497 0.9848 0.06279 0.0
H1626 H 0.45442 0.04077 0.09287 0.0
H1627 H 0.40803 0.98408 0.09544 0.0
H1628 H 0.4261 0.99589 0.16149 0.0
H1629 H 0.41353 0.99759 0.12889 0.0
H1630 H 0.46875 0.02624 0.1106 0.0
H1631 H 0.48131 0.0249 0.14351 0.0
C1632 C 0.43414 0.02869 0.06747 0.0
C1633 C 0.41723 0.01308 0.05864 0.0
C1634 C 0.44154 0.02837 0.08638 0.0
C1635 C 0.43227 0.01239 0.09688 0.0
C1636 C 0.41541 0.99677 0.08799 0.0
C1637 C 0.40795 0.99714 0.06917 0.0
C1638 C 0.43553 0.00247 0.15045 0.0
C1639 C 0.45467 0.01016 0.15499 0.0
C1640 C 0.42833 0.00341 0.13174 0.0
C1641 C 0.44009 0.01194 0.11701 0.0
C1642 C 0.45929 0.01979 0.12164 0.0
C1643 C 0.46651 0.01898 0.14046 0.0
H1644 H 0.39965 0.95895 0.97043 0.0
H1645 H 0.4209 0.01889 0.9658 0.0
H1646 H 0.41896 0.95845 0.94508 0.0
H1647 H 0.44027 0.01844 0.94098 0.0
H1648 H 0.45164 0.00485 0.87937 0.0
H1649 H 0.43368 0.00445 0.90632 0.0
H1650 H 0.45166 0.97109 0.93769 0.0
H1651 H 0.46979 0.97158 0.91069 0.0
C1652 C 0.40866 0.97207 0.96429 0.0
C1653 C 0.40867 0.98893 0.97008 0.0
C1654 C 0.41972 0.97178 0.94981 0.0
C1655 C 0.43092 0.98835 0.94084 0.0
C1656 C 0.4315 0.00536 0.94731 0.0
C1657 C 0.42051 0.00564 0.96172 0.0
C1658 C 0.45187 0.99754 0.89206 0.0
C1659 C 0.46224 0.98836 0.89294 0.0
C1660 C 0.44159 0.99731 0.90752 0.0
C1661 C 0.44142 0.9879 0.92423 0.0
C1662 C 0.45144 0.97835 0.92495 0.0
C1663 C 0.46178 0.97861 0.90947 0.0
H1664 H 0.01393 0.38939 0.94032 0.0
H1665 H 0.04763 0.4265 0.99281 0.0
H1666 H 0.01773 0.41684 0.92432 0.0
H1667 H 0.05109 0.4542 0.97671 0.0
H1668 H 0.02532 0.48869 0.94349 0.0
H1669 H 0.02605 0.46424 0.9623 0.0
H1670 H 0.04694 0.44726 0.91338 0.0
H1671 H 0.04637 0.47163 0.8947 0.0
C1672 C 0.02214 0.40344 0.94846 0.0
C1673 C 0.0305 0.40582 0.96781 0.0
C1674 C 0.02437 0.41914 0.93925 0.0
C1675 C 0.03474 0.43758 0.94928 0.0
C1676 C 0.04302 0.44007 0.96872 0.0
C1677 C 0.04111 0.4243 0.97785 0.0
C1678 C 0.03028 0.47986 0.93691 0.0
C1679 C 0.03578 0.48203 0.91765 0.0
C1680 C 0.03082 0.46602 0.9477 0.0
C1681 C 0.03654 0.45393 0.93923 0.0
C1682 C 0.04247 0.45643 0.9202 0.0
C1683 C 0.04222 0.47042 0.90958 0.0
H1684 H 0.61789 0.61438 0.02429 0.0
H1685 H 0.57119 0.61853 0.04145 0.0
H1686 H 0.60455 0.60654 0.9899 0.0
H1687 H 0.55811 0.61131 0.00678 0.0
H1688 H 0.53031 0.57477 0.94646 0.0
H1689 H 0.54355 0.58535 0.98107 0.0
H1690 H 0.59801 0.61896 0.96199 0.0
H1691 H 0.58476 0.60788 0.9275 0.0
C1692 C 0.60488 0.61387 0.02071 0.0
C1693 C 0.5956 0.61704 0.03569 0.0
C1694 C 0.59726 0.60948 0.0009 0.0
C1695 C 0.58024 0.60831 0.99548 0.0
C1696 C 0.57111 0.61181 0.01043 0.0
C1697 C 0.57867 0.61607 0.03031 0.0
C1698 C 0.54507 0.58459 0.94973 0.0
C1699 C 0.55654 0.59038 0.93434 0.0
C1700 C 0.55268 0.59071 0.96955 0.0
C1701 C 0.5719 0.6029 0.97439 0.0
C1702 C 0.58322 0.60923 0.95888 0.0
C1703 C 0.57564 0.60296 0.93911 0.0
H1704 H 0.04462 0.63378 0.03936 0.0
H1705 H 0.99057 0.62023 0.01331 0.0
H1706 H 0.04952 0.62063 0.00866 0.0
H1707 H 0.99498 0.60621 0.98304 0.0
H1708 H 0.0114 0.59329 0.92529 0.0
H1709 H 0.01016 0.61124 0.95463 0.0
H1710 H 0.04015 0.59133 0.99048 0.0
H1711 H 0.04215 0.57423 0.96075 0.0
C1712 C 0.03379 0.62801 0.02705 0.0
C1713 C 0.0172 0.62805 0.02877 0.0
C1714 C 0.03652 0.6203 0.00948 0.0
C1715 C 0.02262 0.61217 0.9933 0.0
C1716 C 0.00619 0.61261 0.99496 0.0
C1717 C 0.00359 0.6206 0.0124 0.0
C1718 C 0.01782 0.59292 0.93948 0.0
C1719 C 0.02676 0.58233 0.94089 0.0
C1720 C 0.01702 0.60309 0.95634 0.0
C1721 C 0.02485 0.60263 0.97508 0.0
C1722 C 0.03417 0.59229 0.97632 0.0
C1723 C 0.03525 0.58238 0.95935 0.0
H1724 H 0.38186 0.4371 0.95269 0.0
H1725 H 0.41934 0.41604 0.9627 0.0
H1726 H 0.40551 0.46376 0.93732 0.0
H1727 H 0.44321 0.44291 0.94814 0.0
H1728 H 0.46936 0.47428 0.89542 0.0
H1729 H 0.448 0.45107 0.91552 0.0
H1730 H 0.43481 0.49259 0.93987 0.0
H1731 H 0.45598 0.51576 0.91909 0.0
C1732 C 0.39531 0.43843 0.95198 0.0
C1733 C 0.39867 0.42431 0.95842 0.0
C1734 C 0.4089 0.45373 0.94324 0.0
C1735 C 0.42618 0.4553 0.9411 0.0
C1736 C 0.42987 0.44182 0.94892 0.0
C1737 C 0.41621 0.42641 0.95731 0.0
C1738 C 0.46209 0.47853 0.90528 0.0
C1739 C 0.46439 0.49684 0.9058 0.0
C1740 C 0.44987 0.46525 0.91689 0.0
C1741 C 0.43976 0.46997 0.9295 0.0
C1742 C 0.44223 0.4884 0.93019 0.0
C1743 C 0.45437 0.50168 0.91836 0.0
H1744 H 0.57516 0.96468 0.01397 0.0
H1745 H 0.60863 0.02583 0.01423 0.0
H1746 H 0.56005 0.96247 0.98108 0.0
H1747 H 0.5932 0.02356 0.98156 0.0
H1748 H 0.54325 0.01057 0.93562 0.0
H1749 H 0.558 0.012 0.9683 0.0
H1750 H 0.572 0.9709 0.94523 0.0
H1751 H 0.55825 0.97014 0.91224 0.0
C1752 C 0.57927 0.97763 0.00703 0.0
C1753 C 0.59309 0.99543 0.01667 0.0
C1754 C 0.57066 0.97633 0.98822 0.0
C1755 C 0.57544 0.99285 0.97892 0.0
C1756 C 0.58921 0.01064 0.98853 0.0
C1757 C 0.59809 0.0119 0.00714 0.0
C1758 C 0.54964 0.00198 0.93736 0.0
C1759 C 0.54959 0.99031 0.92112 0.0
C1760 C 0.55799 0.00275 0.95612 0.0
C1761 C 0.56613 0.99159 0.95918 0.0
C1762 C 0.56567 0.97952 0.94323 0.0
C1763 C 0.55765 0.97901 0.92436 0.0
H1764 H 0.61552 0.05493 0.10885 0.0
H1765 H 0.58345 0.99343 0.09867 0.0
H1766 H 0.59438 0.05448 0.13238 0.0
H1767 H 0.56239 0.99302 0.12192 0.0
H1768 H 0.52024 0.00073 0.15416 0.0
H1769 H 0.53914 0.00417 0.1271 0.0
H1770 H 0.58862 0.04149 0.16665 0.0
H1771 H 0.56989 0.03759 0.19394 0.0
C1772 C 0.60378 0.04136 0.11133 0.0
C1773 C 0.60123 0.02419 0.10204 0.0
C1774 C 0.59179 0.04112 0.12486 0.0
C1775 C 0.57685 0.02372 0.12899 0.0
C1776 C 0.57375 0.00664 0.11891 0.0
C1777 C 0.58589 0.00687 0.10567 0.0
C1778 C 0.53515 0.00958 0.15716 0.0
C1779 C 0.54355 0.01869 0.17632 0.0
C1780 C 0.54593 0.01165 0.14161 0.0
C1781 C 0.56529 0.02309 0.14482 0.0
C1782 C 0.57368 0.03279 0.16373 0.0
C1783 C 0.56293 0.03054 0.17935 0.0
H1784 H 0.0037 0.60577 0.09346 0.0
H1785 H 0.94534 0.58578 0.0931 0.0
H1786 H 0.99931 0.57735 0.10769 0.0
H1787 H 0.94084 0.55698 0.10735 0.0
H1788 H 0.95215 0.52809 0.16111 0.0
H1789 H 0.95162 0.55168 0.14119 0.0
H1790 H 0.98351 0.54167 0.09965 0.0
H1791 H 0.98367 0.51766 0.11926 0.0
C1792 C 0.98993 0.59532 0.09647 0.0
C1793 C 0.97494 0.59817 0.09257 0.0
C1794 C 0.98736 0.57887 0.10435 0.0
C1795 C 0.96974 0.56497 0.10867 0.0
C1796 C 0.95459 0.56754 0.10426 0.0
C1797 C 0.95715 0.58393 0.09606 0.0
C1798 C 0.95861 0.53048 0.14744 0.0
C1799 C 0.96811 0.52107 0.1419 0.0
C1800 C 0.95832 0.54404 0.13605 0.0
C1801 C 0.96764 0.5486 0.11897 0.0
C1802 C 0.97641 0.5386 0.11291 0.0
C1803 C 0.97656 0.52492 0.12419 0.0
H1804 H 0.38183 0.39441 0.04001 0.0
H1805 H 0.42705 0.38665 0.02475 0.0
H1806 H 0.39574 0.40426 0.07439 0.0
H1807 H 0.44089 0.39648 0.05927 0.0
H1808 H 0.4476 0.3968 0.12849 0.0
H1809 H 0.434 0.38552 0.09399 0.0
H1810 H 0.42519 0.43318 0.09141 0.0
H1811 H 0.43927 0.44484 0.12552 0.0
C1812 C 0.39465 0.39464 0.04399 0.0
C1813 C 0.40337 0.38982 0.02958 0.0
C1814 C 0.40266 0.4004 0.06367 0.0
C1815 C 0.41945 0.40126 0.06945 0.0
C1816 C 0.4279 0.39587 0.05523 0.0
C1817 C 0.42 0.39033 0.03546 0.0
C1818 C 0.44303 0.40505 0.12049 0.0
C1819 C 0.44441 0.42166 0.1299 0.0
C1820 C 0.43517 0.39852 0.10077 0.0
C1821 C 0.42836 0.40836 0.09013 0.0
C1822 C 0.43 0.4251 0.09939 0.0
C1823 C 0.43802 0.43174 0.11897 0.0
H1824 H 0.6253 0.71284 0.36493 0.0
H1825 H 0.67589 0.71811 0.39199 0.0
H1826 H 0.62075 0.72509 0.3965 0.0
H1827 H 0.67127 0.73037 0.42353 0.0
H1828 H 0.66883 0.77547 0.46611 0.0
H1829 H 0.67206 0.76085 0.43541 0.0
H1830 H 0.61458 0.71657 0.43162 0.0
H1831 H 0.61139 0.73084 0.46275 0.0
C1832 C 0.63537 0.71645 0.37764 0.0
C1833 C 0.65102 0.71457 0.37589 0.0
C1834 C 0.6327 0.72339 0.39573 0.0
C1835 C 0.64572 0.7288 0.41242 0.0
C1836 C 0.66113 0.72651 0.41083 0.0
C1837 C 0.66369 0.71936 0.3928 0.0
C1838 C 0.65691 0.76248 0.45892 0.0
C1839 C 0.63987 0.75429 0.46704 0.0
C1840 C 0.65878 0.75412 0.4413 0.0
C1841 C 0.64362 0.73749 0.43121 0.0
C1842 C 0.62648 0.72945 0.43904 0.0
C1843 C 0.62464 0.73771 0.45682 0.0
H1844 H 0.27597 0.89586 0.43733 0.0
H1845 H 0.25424 0.93023 0.46093 0.0
H1846 H 0.25428 0.86932 0.45451 0.0
H1847 H 0.23274 0.9039 0.47794 0.0
H1848 H 0.18681 0.84918 0.49494 0.0
H1849 H 0.20545 0.87136 0.47209 0.0
H1850 H 0.25121 0.86351 0.49025 0.0
H1851 H 0.23256 0.84135 0.51324 0.0
C1852 C 0.26641 0.89767 0.44592 0.0
C1853 C 0.26682 0.91515 0.44774 0.0
C1854 C 0.25408 0.88252 0.45583 0.0
C1855 C 0.24183 0.88454 0.46756 0.0
C1856 C 0.24183 0.9018 0.46879 0.0
C1857 C 0.25422 0.91695 0.45905 0.0
C1858 C 0.20084 0.85217 0.49404 0.0
C1859 C 0.20833 0.84376 0.5061 0.0
C1860 C 0.21148 0.86481 0.48091 0.0
C1861 C 0.22982 0.86928 0.47952 0.0
C1862 C 0.23704 0.86019 0.49088 0.0
C1863 C 0.22639 0.84754 0.50406 0.0
H1864 H 0.12307 0.36579 0.38979 0.0
H1865 H 0.06777 0.33531 0.40754 0.0
H1866 H 0.136 0.36929 0.42391 0.0
H1867 H 0.08068 0.33945 0.4418 0.0
H1868 H 0.10878 0.33225 0.49711 0.0
H1869 H 0.09616 0.32875 0.46294 0.0
H1870 H 0.14065 0.38537 0.45587 0.0
H1871 H 0.15398 0.38835 0.4897 0.0
C1872 C 0.11366 0.35998 0.40101 0.0
C1873 C 0.09437 0.35021 0.39591 0.0
C1874 C 0.12109 0.3621 0.42063 0.0
C1875 C 0.10942 0.35468 0.43569 0.0
C1876 C 0.09011 0.34506 0.43058 0.0
C1877 C 0.08269 0.34276 0.41092 0.0
C1878 C 0.11605 0.34386 0.4882 0.0
C1879 C 0.13249 0.36055 0.49619 0.0
C1880 C 0.10863 0.34197 0.46864 0.0
C1881 C 0.11733 0.35678 0.45658 0.0
C1882 C 0.13369 0.37355 0.46461 0.0
C1883 C 0.14121 0.37538 0.48414 0.0
H1884 H 0.10333 0.33991 0.31437 0.0
H1885 H 0.05974 0.28082 0.30516 0.0
H1886 H 0.11945 0.33397 0.28893 0.0
H1887 H 0.07604 0.27477 0.27956 0.0
H1888 H 0.09571 0.28599 0.21518 0.0
H1889 H 0.08142 0.28578 0.24546 0.0
H1890 H 0.13552 0.31672 0.27894 0.0
H1891 H 0.14981 0.31676 0.24874 0.0
C1892 C 0.09736 0.32556 0.30717 0.0
C1893 C 0.08017 0.3109 0.31157 0.0
C1894 C 0.10668 0.32211 0.29267 0.0
C1895 C 0.09892 0.30394 0.28212 0.0
C1896 C 0.08224 0.28896 0.28734 0.0
C1897 C 0.07301 0.29239 0.30208 0.0
C1898 C 0.10452 0.29238 0.22907 0.0
C1899 C 0.1239 0.30168 0.2295 0.0
C1900 C 0.09634 0.29221 0.24642 0.0
C1901 C 0.10738 0.30135 0.26454 0.0
C1902 C 0.12669 0.3098 0.26514 0.0
C1903 C 0.13486 0.30991 0.24782 0.0
H1904 H 0.66559 0.73787 0.30334 0.0
H1905 H 0.72401 0.75758 0.31356 0.0
H1906 H 0.67251 0.76628 0.28741 0.0
H1907 H 0.73097 0.78616 0.29741 0.0
H1908 H 0.72743 0.81407 0.2392 0.0
H1909 H 0.72394 0.79012 0.26093 0.0
H1910 H 0.68895 0.80277 0.29495 0.0
H1911 H 0.693 0.8274 0.27373 0.0
C1912 C 0.67991 0.74828 0.30228 0.0
C1913 C 0.69423 0.74535 0.3095 0.0
C1914 C 0.68388 0.76468 0.29332 0.0
C1915 C 0.70226 0.77838 0.29112 0.0
C1916 C 0.71666 0.77575 0.29883 0.0
C1917 C 0.71268 0.75946 0.30813 0.0
C1918 C 0.71941 0.8122 0.25162 0.0
C1919 C 0.71044 0.8227 0.2546 0.0
C1920 C 0.71738 0.7984 0.26404 0.0
C1921 C 0.70615 0.79458 0.27957 0.0
C1922 C 0.69756 0.80534 0.28295 0.0
C1923 C 0.6998 0.81935 0.2707 0.0
H1924 H 0.28197 0.94327 0.3616 0.0
H1925 H 0.23645 0.95 0.37802 0.0
H1926 H 0.26827 0.93461 0.32715 0.0
H1927 H 0.22276 0.94125 0.34347 0.0
H1928 H 0.21614 0.94442 0.27534 0.0
H1929 H 0.22935 0.95374 0.31007 0.0
H1930 H 0.23999 0.9071 0.30807 0.0
H1931 H 0.22645 0.89748 0.27362 0.0
C1932 C 0.26908 0.94297 0.35789 0.0
C1933 C 0.26029 0.94728 0.37263 0.0
C1934 C 0.26119 0.93789 0.33815 0.0
C1935 C 0.2444 0.93716 0.33263 0.0
C1936 C 0.23577 0.94181 0.34726 0.0
C1937 C 0.24358 0.94672 0.36707 0.0
C1938 C 0.22107 0.93599 0.28237 0.0
C1939 C 0.22033 0.92027 0.27159 0.0
C1940 C 0.22868 0.94138 0.30225 0.0
C1941 C 0.23584 0.93124 0.31172 0.0
C1942 C 0.2349 0.9154 0.30105 0.0
C1943 C 0.22717 0.90993 0.28127 0.0
H1944 H 0.66365 0.94916 0.34561 0.0
H1945 H 0.71436 0.95628 0.37475 0.0
H1946 H 0.66945 0.93702 0.31478 0.0
H1947 H 0.72007 0.94411 0.34387 0.0
H1948 H 0.73162 0.93951 0.27811 0.0
H1949 H 0.7271 0.95283 0.30907 0.0
H1950 H 0.66999 0.90733 0.3033 0.0
H1951 H 0.67454 0.89371 0.27272 0.0
C1952 C 0.67609 0.94828 0.34543 0.0
C1953 C 0.68849 0.95363 0.3627 0.0
C1954 C 0.67934 0.94121 0.32779 0.0
C1955 C 0.69516 0.93951 0.32697 0.0
C1956 C 0.70782 0.94535 0.34405 0.0
C1957 C 0.70448 0.95224 0.36175 0.0
C1958 C 0.71818 0.93217 0.28358 0.0
C1959 C 0.70342 0.91558 0.27282 0.0
C1960 C 0.71558 0.93986 0.30127 0.0
C1961 C 0.69815 0.93122 0.30847 0.0
C1962 C 0.68349 0.91451 0.29789 0.0
C1963 C 0.68611 0.90673 0.28035 0.0
H1964 H 0.05505 0.77226 0.29752 0.0
H1965 H 0.09605 0.75537 0.30454 0.0
H1966 H 0.07602 0.7989 0.27996 0.0
H1967 H 0.1172 0.78213 0.28764 0.0
H1968 H 0.13618 0.81021 0.23126 0.0
H1969 H 0.1176 0.78774 0.25366 0.0
H1970 H 0.10467 0.82886 0.27969 0.0
H1971 H 0.1232 0.85139 0.25679 0.0
C1972 C 0.06873 0.77456 0.29575 0.0
C1973 C 0.07381 0.76155 0.30193 0.0
C1974 C 0.08077 0.78981 0.28572 0.0
C1975 C 0.09814 0.79238 0.28196 0.0
C1976 C 0.10369 0.7802 0.28967 0.0
C1977 C 0.0916 0.76487 0.2994 0.0
C1978 C 0.12957 0.81457 0.24192 0.0
C1979 C 0.13126 0.83261 0.24238 0.0
C1980 C 0.11895 0.8017 0.25485 0.0
C1981 C 0.10981 0.80657 0.2687 0.0
C1982 C 0.11144 0.82463 0.26914 0.0
C1983 C 0.12204 0.83752 0.25606 0.0
H1984 H 0.22091 0.29304 0.34773 0.0
H1985 H 0.26668 0.34774 0.33726 0.0
H1986 H 0.20668 0.28907 0.31397 0.0
H1987 H 0.25243 0.34368 0.3036 0.0
H1988 H 0.21094 0.33964 0.25382 0.0
H1989 H 0.22404 0.34253 0.28776 0.0
H1990 H 0.21302 0.28473 0.27865 0.0
H1991 H 0.20024 0.2819 0.24443 0.0
C1992 C 0.22795 0.3042 0.33826 0.0
C1993 C 0.24493 0.32074 0.34525 0.0
C1994 C 0.21983 0.30187 0.3189 0.0
C1995 C 0.2284 0.3161 0.3062 0.0
C1996 C 0.24539 0.33258 0.31314 0.0
C1997 C 0.2536 0.33484 0.33241 0.0
C1998 C 0.21143 0.32757 0.25896 0.0
C1999 C 0.20473 0.3106 0.2463 0.0
C2000 C 0.2189 0.32923 0.27842 0.0
C2001 C 0.21969 0.31392 0.28578 0.0
C2002 C 0.21248 0.29673 0.27339 0.0
C2003 C 0.20512 0.2951 0.25382 0.0
H2004 H 0.27171 0.38837 0.43186 0.0
H2005 H 0.24103 0.32748 0.43475 0.0
H2006 H 0.25616 0.39278 0.45934 0.0
H2007 H 0.22549 0.33187 0.46173 0.0
H2008 H 0.22563 0.34852 0.5267 0.0
H2009 H 0.23874 0.34597 0.49653 0.0
H2010 H 0.22517 0.38538 0.47141 0.0
H2011 H 0.21174 0.3878 0.50173 0.0
C2012 C 0.26133 0.37591 0.43797 0.0
C2013 C 0.2578 0.35759 0.4313 0.0
C2014 C 0.25246 0.37845 0.4537 0.0
C2015 C 0.23995 0.36269 0.46294 0.0
C2016 C 0.23542 0.34431 0.45521 0.0
C2017 C 0.24426 0.3418 0.43962 0.0
C2018 C 0.22533 0.35657 0.51473 0.0
C2019 C 0.21746 0.36818 0.51651 0.0
C2020 C 0.23282 0.3551 0.49744 0.0
C2021 C 0.23267 0.36522 0.4815 0.0
C2022 C 0.22544 0.37741 0.48348 0.0
C2023 C 0.21784 0.37884 0.50084 0.0
H2024 H 0.61631 0.91081 0.42497 0.0
H2025 H 0.67537 0.93448 0.43662 0.0
H2026 H 0.61102 0.88312 0.44193 0.0
H2027 H 0.67008 0.90688 0.4533 0.0
H2028 H 0.65229 0.84579 0.46649 0.0
H2029 H 0.65535 0.8702 0.44542 0.0
H2030 H 0.6185 0.88019 0.479 0.0
H2031 H 0.61603 0.85655 0.50067 0.0
C2032 C 0.62815 0.91001 0.43093 0.0
C2033 C 0.64627 0.92495 0.42965 0.0
C2034 C 0.62511 0.89422 0.44068 0.0
C2035 C 0.64015 0.89291 0.44892 0.0
C2036 C 0.65824 0.90748 0.44696 0.0
C2037 C 0.66127 0.9234 0.43757 0.0
C2038 C 0.64489 0.85323 0.4695 0.0
C2039 C 0.63399 0.84919 0.48543 0.0
C2040 C 0.64657 0.86711 0.45733 0.0
C2041 C 0.63714 0.87703 0.4606 0.0
C2042 C 0.62572 0.87256 0.476 0.0
C2043 C 0.62427 0.85892 0.48837 0.0
H2044 H 0.05809 0.71425 0.38374 0.0
H2045 H 0.11228 0.7384 0.36308 0.0
H2046 H 0.07241 0.72276 0.41801 0.0
H2047 H 0.12652 0.74688 0.39739 0.0
H2048 H 0.14298 0.78119 0.46024 0.0
H2049 H 0.12969 0.77033 0.42561 0.0
H2050 H 0.09101 0.71481 0.4422 0.0
H2051 H 0.10423 0.72573 0.47687 0.0
C2052 C 0.07303 0.72124 0.38648 0.0
C2053 C 0.08403 0.72569 0.37063 0.0
C2054 C 0.08122 0.72602 0.40613 0.0
C2055 C 0.10059 0.73553 0.41037 0.0
C2056 C 0.11157 0.73971 0.39456 0.0
C2057 C 0.10338 0.73474 0.37491 0.0
C2058 C 0.1317 0.76665 0.45644 0.0
C2059 C 0.12462 0.75431 0.47123 0.0
C2060 C 0.12418 0.76039 0.43663 0.0
C2061 C 0.10929 0.74173 0.43122 0.0
C2062 C 0.10239 0.7293 0.44597 0.0
C2063 C 0.11006 0.7355 0.46576 0.0
H2064 H 0.3467 0.05559 0.72556 0.0
H2065 H 0.29427 0.04432 0.69671 0.0
H2066 H 0.34099 0.06889 0.75573 0.0
H2067 H 0.28863 0.05758 0.72691 0.0
H2068 H 0.27831 0.06442 0.79282 0.0
H2069 H 0.28305 0.05028 0.7626 0.0
H2070 H 0.33869 0.09827 0.7652 0.0
H2071 H 0.33386 0.11276 0.79497 0.0
C2072 C 0.33391 0.05581 0.72568 0.0
C2073 C 0.32098 0.04894 0.70869 0.0
C2074 C 0.33071 0.06354 0.74292 0.0
C2075 C 0.3144 0.06433 0.74361 0.0
C2076 C 0.30127 0.05705 0.72682 0.0
C2077 C 0.30457 0.04955 0.7095 0.0
C2078 C 0.29146 0.07213 0.78679 0.0
C2079 C 0.30573 0.08972 0.79645 0.0
C2080 C 0.29419 0.06397 0.76954 0.0
C2081 C 0.3113 0.0731 0.76168 0.0
C2082 C 0.32547 0.09075 0.77114 0.0
C2083 C 0.32269 0.09902 0.78824 0.0
H2084 H 0.94472 0.22473 0.75982 0.0
H2085 H 0.91578 0.25251 0.78113 0.0
H2086 H 0.92371 0.19618 0.77513 0.0
H2087 H 0.89509 0.22441 0.79609 0.0
H2088 H 0.85292 0.16941 0.81288 0.0
H2089 H 0.8705 0.19099 0.78903 0.0
H2090 H 0.91904 0.18909 0.81049 0.0
H2091 H 0.90127 0.16721 0.83421 0.0
C2092 C 0.9337 0.22464 0.7674 0.0
C2093 C 0.93191 0.24091 0.76919 0.0
C2094 C 0.92176 0.20836 0.77622 0.0
C2095 C 0.9077 0.20803 0.78673 0.0
C2096 C 0.90553 0.22404 0.78779 0.0
C2097 C 0.91751 0.24026 0.77922 0.0
C2098 C 0.86728 0.17343 0.8123 0.0
C2099 C 0.87587 0.16699 0.8256 0.0
C2100 C 0.87733 0.18573 0.79864 0.0
C2101 C 0.89622 0.19195 0.79811 0.0
C2102 C 0.90448 0.18445 0.81047 0.0
C2103 C 0.89436 0.17201 0.8241 0.0
H2104 H 0.78116 0.7137 0.72422 0.0
H2105 H 0.73767 0.65732 0.73371 0.0
H2106 H 0.79531 0.7181 0.75809 0.0
H2107 H 0.75177 0.66184 0.76754 0.0
H2108 H 0.793 0.66893 0.81935 0.0
H2109 H 0.78013 0.66498 0.78505 0.0
H2110 H 0.78826 0.72176 0.79264 0.0
H2111 H 0.80089 0.72565 0.82709 0.0
C2112 C 0.77461 0.70224 0.73349 0.0
C2113 C 0.75826 0.68515 0.7262 0.0
C2114 C 0.78268 0.70482 0.75293 0.0
C2115 C 0.77467 0.69031 0.76547 0.0
C2116 C 0.7584 0.6732 0.75816 0.0
C2117 C 0.75026 0.67066 0.73879 0.0
C2118 C 0.79191 0.68053 0.81378 0.0
C2119 C 0.79787 0.69756 0.82605 0.0
C2120 C 0.78457 0.67827 0.79411 0.0
C2121 C 0.7831 0.69302 0.78617 0.0
C2122 C 0.78939 0.7102 0.79827 0.0
C2123 C 0.79665 0.71243 0.818 0.0
H2124 H 0.76019 0.68299 0.63341 0.0
H2125 H 0.73849 0.62312 0.63885 0.0
H2126 H 0.77726 0.68129 0.60652 0.0
H2127 H 0.75522 0.62129 0.61146 0.0
H2128 H 0.79856 0.62857 0.56942 0.0
H2129 H 0.78522 0.63123 0.59957 0.0
H2130 H 0.76812 0.66726 0.57239 0.0
H2131 H 0.78155 0.6647 0.54241 0.0
C2132 C 0.75925 0.66951 0.62906 0.0
C2133 C 0.74788 0.65316 0.6382 0.0
C2134 C 0.7689 0.66849 0.61349 0.0
C2135 C 0.76732 0.65108 0.60659 0.0
C2136 C 0.75678 0.63494 0.61646 0.0
C2137 C 0.74717 0.63599 0.63214 0.0
C2138 C 0.79181 0.63692 0.56987 0.0
C2139 C 0.79107 0.64641 0.55355 0.0
C2140 C 0.78421 0.63848 0.58714 0.0
C2141 C 0.77573 0.64956 0.58845 0.0
C2142 C 0.77492 0.65895 0.57205 0.0
C2143 C 0.78254 0.65743 0.55483 0.0
H2144 H 0.39009 0.09144 0.65171 0.0
H2145 H 0.33396 0.05829 0.62334 0.0
H2146 H 0.39515 0.11789 0.63284 0.0
H2147 H 0.33855 0.08482 0.60555 0.0
H2148 H 0.35636 0.12578 0.55978 0.0
H2149 H 0.35349 0.10042 0.57898 0.0
H2150 H 0.38812 0.14235 0.62827 0.0
H2151 H 0.39164 0.16783 0.60839 0.0
C2152 C 0.37874 0.08988 0.64168 0.0
C2153 C 0.3616 0.07271 0.63908 0.0
C2154 C 0.38161 0.10509 0.63093 0.0
C2155 C 0.36732 0.1035 0.61748 0.0
C2156 C 0.35005 0.08647 0.61536 0.0
C2157 C 0.34731 0.07125 0.62584 0.0
C2158 C 0.36338 0.12952 0.57471 0.0
C2159 C 0.37406 0.14867 0.58273 0.0
C2160 C 0.36165 0.11501 0.58581 0.0
C2161 C 0.37029 0.11925 0.60538 0.0
C2162 C 0.38137 0.13853 0.61323 0.0
C2163 C 0.38334 0.15312 0.60193 0.0
H2164 H 0.90054 0.27848 0.70269 0.0
H2165 H 0.94841 0.27576 0.68719 0.0
H2166 H 0.88775 0.27017 0.6678 0.0
H2167 H 0.93557 0.26744 0.65244 0.0
H2168 H 0.89463 0.22842 0.59871 0.0
H2169 H 0.90781 0.23859 0.63324 0.0
H2170 H 0.89476 0.28351 0.63432 0.0
H2171 H 0.88203 0.27377 0.59946 0.0
C2172 C 0.9084 0.27624 0.69186 0.0
C2173 C 0.92548 0.27772 0.69778 0.0
C2174 C 0.90109 0.27156 0.67188 0.0
C2175 C 0.91061 0.26803 0.65744 0.0
C2176 C 0.92783 0.26986 0.66329 0.0
C2177 C 0.93523 0.27474 0.6832 0.0
C2178 C 0.89477 0.24064 0.60615 0.0
C2179 C 0.88738 0.25036 0.59616 0.0
C2180 C 0.90229 0.24642 0.62598 0.0
C2181 C 0.90242 0.26191 0.63642 0.0
C2182 C 0.89473 0.27144 0.62665 0.0
C2183 C 0.88737 0.26579 0.6067 0.0
H2184 H 0.34466 0.30044 0.67811 0.0
H2185 H 0.37275 0.27871 0.71415 0.0
H2186 H 0.35242 0.28887 0.64817 0.0
H2187 H 0.38035 0.26718 0.6843 0.0
H2188 H 0.36504 0.22649 0.62618 0.0
H2189 H 0.36065 0.24097 0.65643 0.0
H2190 H 0.38063 0.29404 0.6306 0.0
H2191 H 0.38505 0.2795 0.60028 0.0
C2192 C 0.35261 0.29337 0.67968 0.0
C2193 C 0.35799 0.29044 0.69856 0.0
C2194 C 0.35711 0.28683 0.66255 0.0
C2195 C 0.36688 0.27703 0.66394 0.0
C2196 C 0.37264 0.27451 0.68279 0.0
C2197 C 0.36835 0.28123 0.69989 0.0
C2198 C 0.36861 0.24128 0.62705 0.0
C2199 C 0.37543 0.2519 0.61096 0.0
C2200 C 0.36619 0.24959 0.64436 0.0
C2201 C 0.37031 0.26863 0.64584 0.0
C2202 C 0.37727 0.27932 0.6298 0.0
C2203 C 0.37995 0.27107 0.61257 0.0
H2204 H 0.75949 0.08367 0.62136 0.0
H2205 H 0.7238 0.1072 0.62745 0.0
H2206 H 0.78038 0.11079 0.60464 0.0
H2207 H 0.74476 0.13439 0.61045 0.0
H2208 H 0.77136 0.15689 0.55077 0.0
H2209 H 0.75241 0.13518 0.57374 0.0
H2210 H 0.80174 0.14755 0.61055 0.0
H2211 H 0.82086 0.16998 0.58807 0.0
C2212 C 0.75618 0.0947 0.6193 0.0
C2213 C 0.73991 0.0932 0.62553 0.0
C2214 C 0.76824 0.11032 0.60986 0.0
C2215 C 0.76411 0.1246 0.6062 0.0
C2216 C 0.74818 0.12349 0.61304 0.0
C2217 C 0.73627 0.108 0.62283 0.0
C2218 C 0.77824 0.15545 0.56401 0.0
C2219 C 0.7977 0.16513 0.56744 0.0
C2220 C 0.76734 0.14295 0.57715 0.0
C2221 C 0.77564 0.13968 0.59385 0.0
C2222 C 0.79503 0.14973 0.59766 0.0
C2223 C 0.80594 0.16245 0.58469 0.0
H2224 H 0.88367 0.62248 0.67771 0.0
H2225 H 0.92164 0.6817 0.67115 0.0
H2226 H 0.86939 0.6179 0.64368 0.0
H2227 H 0.90707 0.67715 0.63741 0.0
H2228 H 0.86021 0.66433 0.58795 0.0
H2229 H 0.87255 0.66724 0.62227 0.0
H2230 H 0.88281 0.62135 0.60768 0.0
H2231 H 0.87146 0.619 0.57303 0.0
C2232 C 0.88887 0.63451 0.66906 0.0
C2233 C 0.90378 0.65244 0.67707 0.0
C2234 C 0.88076 0.63186 0.64962 0.0
C2235 C 0.88713 0.6472 0.63805 0.0
C2236 C 0.90186 0.66515 0.64612 0.0
C2237 C 0.91023 0.6677 0.66536 0.0
C2238 C 0.86526 0.65495 0.59191 0.0
C2239 C 0.86503 0.64159 0.57754 0.0
C2240 C 0.87219 0.65656 0.61161 0.0
C2241 C 0.87867 0.64458 0.6175 0.0
C2242 C 0.87776 0.63067 0.60347 0.0
C2243 C 0.87116 0.62929 0.58365 0.0
H2244 H 0.93758 0.72323 0.76336 0.0
H2245 H 0.90003 0.66268 0.76291 0.0
H2246 H 0.92152 0.72946 0.78909 0.0
H2247 H 0.88407 0.66889 0.78838 0.0
H2248 H 0.85158 0.68636 0.82581 0.0
H2249 H 0.86498 0.68401 0.79566 0.0
H2250 H 0.91983 0.72251 0.82524 0.0
H2251 H 0.90651 0.72459 0.85559 0.0
C2252 C 0.92566 0.71128 0.76841 0.0
C2253 C 0.92015 0.69245 0.76123 0.0
C2254 C 0.91658 0.71486 0.78321 0.0
C2255 C 0.90164 0.69965 0.79079 0.0
C2256 C 0.89546 0.6809 0.78272 0.0
C2257 C 0.90469 0.67733 0.76818 0.0
C2258 C 0.86651 0.6943 0.82592 0.0
C2259 C 0.87801 0.70541 0.84321 0.0
C2260 C 0.87415 0.69305 0.80861 0.0
C2261 C 0.89343 0.70301 0.80816 0.0
C2262 C 0.9049 0.71484 0.82512 0.0
C2263 C 0.89727 0.716 0.8425 0.0
H2264 H 0.33656 0.2646 0.76199 0.0
H2265 H 0.27833 0.24601 0.75364 0.0
H2266 H 0.32955 0.23585 0.77734 0.0
H2267 H 0.27121 0.21698 0.76905 0.0
H2268 H 0.27551 0.1885 0.82659 0.0
H2269 H 0.27835 0.21221 0.80482 0.0
H2270 H 0.31305 0.19978 0.77 0.0
H2271 H 0.30975 0.17549 0.79137 0.0
C2272 C 0.32226 0.25435 0.76341 0.0
C2273 C 0.30803 0.2577 0.75699 0.0
C2274 C 0.31821 0.23774 0.77196 0.0
C2275 C 0.29984 0.22423 0.77446 0.0
C2276 C 0.28551 0.22724 0.76741 0.0
C2277 C 0.28956 0.24377 0.75853 0.0
C2278 C 0.28331 0.19035 0.81398 0.0
C2279 C 0.2925 0.18011 0.81087 0.0
C2280 C 0.28496 0.204 0.80152 0.0
C2281 C 0.29599 0.20789 0.78579 0.0
C2282 C 0.30462 0.1972 0.78217 0.0
C2283 C 0.3028 0.18337 0.79449 0.0
H2284 H 0.77791 0.0695 0.68807 0.0
H2285 H 0.72423 0.04782 0.70951 0.0
H2286 H 0.79242 0.077 0.72223 0.0
H2287 H 0.73882 0.05528 0.74362 0.0
H2288 H 0.77039 0.05474 0.8013 0.0
H2289 H 0.75669 0.04508 0.76665 0.0
H2290 H 0.79678 0.1006 0.7513 0.0
H2291 H 0.81046 0.11023 0.7859 0.0
C2292 C 0.76918 0.06621 0.70003 0.0
C2293 C 0.7499 0.0581 0.69603 0.0
C2294 C 0.77752 0.07059 0.71958 0.0
C2295 C 0.76675 0.06672 0.73556 0.0
C2296 C 0.74744 0.05826 0.73159 0.0
C2297 C 0.73912 0.0541 0.71204 0.0
C2298 C 0.77639 0.06476 0.79044 0.0
C2299 C 0.79145 0.08322 0.79624 0.0
C2300 C 0.76847 0.0593 0.77069 0.0
C2301 C 0.77565 0.07211 0.75632 0.0
C2302 C 0.79105 0.09039 0.76204 0.0
C2303 C 0.79879 0.09593 0.78182 0.0
H2304 H 0.03778 0.32508 0.03275 0.0
H2305 H 0.06125 0.37943 0.06839 0.0
H2306 H 0.05437 0.31548 0.0556 0.0
H2307 H 0.0776 0.36966 0.09144 0.0
H2308 H 0.12284 0.35533 0.1099 0.0
H2309 H 0.1036 0.36435 0.09067 0.0
H2310 H 0.05682 0.30723 0.08917 0.0
H2311 H 0.07615 0.29816 0.1086 0.0
C2312 C 0.04631 0.33491 0.04558 0.0
C2313 C 0.0483 0.35309 0.04863 0.0
C2314 C 0.05573 0.32934 0.05877 0.0
C2315 C 0.06739 0.34183 0.07532 0.0
C2316 C 0.06894 0.3598 0.07869 0.0
C2317 C 0.05949 0.36536 0.06551 0.0
C2318 C 0.10835 0.34477 0.10588 0.0
C2319 C 0.10104 0.32602 0.11088 0.0
C2320 C 0.09731 0.34996 0.0948 0.0
C2321 C 0.07865 0.33653 0.08835 0.0
C2322 C 0.07121 0.31786 0.09369 0.0
C2323 C 0.08227 0.31267 0.10483 0.0
H2324 H 0.67072 0.69374 0.09712 0.0
H2325 H 0.62062 0.68466 0.1209 0.0
H2326 H 0.68642 0.7273 0.11044 0.0
H2327 H 0.63629 0.71813 0.13397 0.0
H2328 H 0.67555 0.77088 0.17593 0.0
H2329 H 0.66131 0.73798 0.16105 0.0
H2330 H 0.6862 0.75764 0.10716 0.0
H2331 H 0.70036 0.79067 0.12201 0.0
C2332 C 0.66297 0.69891 0.10495 0.0
C2333 C 0.64443 0.68643 0.10807 0.0
C2334 C 0.67198 0.71815 0.11254 0.0
C2335 C 0.66266 0.72525 0.1235 0.0
C2336 C 0.64395 0.71296 0.12594 0.0
C2337 C 0.63492 0.69379 0.1183 0.0
C2338 C 0.67801 0.76819 0.16092 0.0
C2339 C 0.68897 0.78337 0.1501 0.0
C2340 C 0.66982 0.74936 0.15238 0.0
C2341 C 0.67242 0.74526 0.13284 0.0
C2342 C 0.684 0.76038 0.12228 0.0
C2343 C 0.69217 0.77927 0.13082 0.0
H2344 H 0.29634 0.9579 0.00787 0.0
H2345 H 0.33608 0.96252 0.05475 0.0
H2346 H 0.27217 0.94552 0.03016 0.0
H2347 H 0.31219 0.9509 0.07722 0.0
H2348 H 0.26219 0.91296 0.10765 0.0
H2349 H 0.2852 0.92353 0.08427 0.0
H2350 H 0.2623 0.95538 0.05839 0.0
H2351 H 0.23838 0.94369 0.081 0.0
C2352 C 0.29991 0.95626 0.02293 0.0
C2353 C 0.3181 0.96113 0.02952 0.0
C2354 C 0.28609 0.94933 0.03577 0.0
C2355 C 0.29021 0.94727 0.05555 0.0
C2356 C 0.30841 0.95199 0.06203 0.0
C2357 C 0.32215 0.95872 0.04914 0.0
C2358 C 0.26183 0.92197 0.09678 0.0
C2359 C 0.24829 0.92733 0.09613 0.0
C2360 C 0.27524 0.92828 0.08353 0.0
C2361 C 0.27567 0.94035 0.06942 0.0
C2362 C 0.26224 0.94588 0.06887 0.0
C2363 C 0.24868 0.9394 0.08203 0.0
H2364 H 0.34043 0.02104 0.00732 0.0
H2365 H 0.39417 0.07254 0.0154 0.0
H2366 H 0.32595 0.03954 0.99937 0.0
H2367 H 0.37957 0.09119 0.00827 0.0
H2368 H 0.35323 0.10682 0.95665 0.0
H2369 H 0.36725 0.09282 0.97637 0.0
H2370 H 0.31751 0.06351 0.00558 0.0
H2371 H 0.30327 0.07768 0.98546 0.0
C2372 C 0.3491 0.03641 0.00814 0.0
C2373 C 0.36851 0.04529 0.01146 0.0
C2374 C 0.34076 0.04705 0.00364 0.0
C2375 C 0.35166 0.06679 0.00264 0.0
C2376 C 0.37085 0.07591 0.00831 0.0
C2377 C 0.37921 0.06525 0.01251 0.0
C2378 C 0.3454 0.09781 0.96763 0.0
C2379 C 0.32715 0.09345 0.96955 0.0
C2380 C 0.3535 0.08979 0.97905 0.0
C2381 C 0.3436 0.07715 0.99275 0.0
C2382 C 0.32548 0.07312 0.99509 0.0
C2383 C 0.31731 0.08118 0.98356 0.0
H2384 H 0.97442 0.29275 0.99482 0.0
H2385 H 0.95319 0.30534 0.94181 0.0
H2386 H 0.95339 0.25848 0.98488 0.0
H2387 H 0.93269 0.27139 0.93187 0.0
H2388 H 0.91392 0.20953 0.91029 0.0
H2389 H 0.93791 0.24247 0.92215 0.0
H2390 H 0.916 0.23627 0.97879 0.0
H2391 H 0.89182 0.20344 0.96682 0.0
C2392 C 0.96533 0.28823 0.98109 0.0
C2393 C 0.96539 0.30176 0.96916 0.0
C2394 C 0.95334 0.26868 0.97544 0.0
C2395 C 0.94161 0.26238 0.95754 0.0
C2396 C 0.94177 0.27589 0.94562 0.0
C2397 C 0.9534 0.29533 0.95144 0.0
C2398 C 0.91447 0.21513 0.92538 0.0
C2399 C 0.90104 0.20407 0.93764 0.0
C2400 C 0.92809 0.23393 0.93211 0.0
C2401 C 0.9287 0.24184 0.95134 0.0
C2402 C 0.91586 0.23044 0.96396 0.0
C2403 C 0.90202 0.21176 0.95709 0.0
H2404 H 0.71669 0.67552 0.08653 0.0
H2405 H 0.67623 0.64301 0.03607 0.0
H2406 H 0.74144 0.68578 0.06494 0.0
H2407 H 0.70084 0.65367 0.01447 0.0
H2408 H 0.74977 0.65739 0.98597 0.0
H2409 H 0.7256 0.64829 0.00791 0.0
H2410 H 0.75471 0.70541 0.03835 0.0
H2411 H 0.77949 0.71429 0.01692 0.0
C2412 C 0.71307 0.67067 0.07082 0.0
C2413 C 0.69451 0.65833 0.06304 0.0
C2414 C 0.72724 0.67665 0.05843 0.0
C2415 C 0.72314 0.67047 0.03799 0.0
C2416 C 0.70453 0.65841 0.0302 0.0
C2417 C 0.6904 0.65236 0.04258 0.0
C2418 C 0.75117 0.66797 0.9975 0.0
C2419 C 0.76665 0.68653 0.99978 0.0
C2420 C 0.73716 0.66282 0.00992 0.0
C2421 C 0.73817 0.67613 0.02485 0.0
C2422 C 0.7536 0.69475 0.02711 0.0
C2423 C 0.76769 0.69991 0.01469 0.0
H2424 H 0.97052 0.67028 0.01553 0.0
H2425 H 0.93088 0.66366 0.05657 0.0
H2426 H 0.95599 0.68173 0.99211 0.0
H2427 H 0.91621 0.67468 0.03311 0.0
H2428 H 0.90438 0.71198 0.99647 0.0
H2429 H 0.9219 0.70332 0.01904 0.0
H2430 H 0.92736 0.67041 0.97032 0.0
H2431 H 0.91043 0.67978 0.94749 0.0
C2432 C 0.95869 0.67122 0.01954 0.0
C2433 C 0.9519 0.66609 0.03795 0.0
C2434 C 0.95031 0.6777 0.00608 0.0
C2435 C 0.93499 0.67923 0.01076 0.0
C2436 C 0.92819 0.67403 0.02916 0.0
C2437 C 0.93654 0.66757 0.04257 0.0
C2438 C 0.90971 0.7033 0.99044 0.0
C2439 C 0.90606 0.69665 0.97012 0.0
C2440 C 0.91952 0.69807 0.00346 0.0
C2441 C 0.92588 0.68599 0.99655 0.0
C2442 C 0.92276 0.67982 0.97613 0.0
C2443 C 0.91292 0.68506 0.96306 0.0
H2444 H 0.38082 0.32 0.94953 0.0
H2445 H 0.32863 0.31082 0.96738 0.0
H2446 H 0.36639 0.28633 0.9382 0.0
H2447 H 0.31425 0.27683 0.95637 0.0
H2448 H 0.2921 0.22355 0.9093 0.0
H2449 H 0.30509 0.25627 0.92489 0.0
H2450 H 0.35326 0.25536 0.94984 0.0
H2451 H 0.34046 0.22302 0.93401 0.0
C2452 C 0.36632 0.31077 0.95132 0.0
C2453 C 0.35589 0.31818 0.9593 0.0
C2454 C 0.35805 0.29139 0.9449 0.0
C2455 C 0.33914 0.27888 0.94636 0.0
C2456 C 0.32879 0.28615 0.95482 0.0
C2457 C 0.33708 0.3056 0.96127 0.0
C2458 C 0.30538 0.23037 0.91826 0.0
C2459 C 0.31547 0.22098 0.92014 0.0
C2460 C 0.31279 0.24903 0.92726 0.0
C2461 C 0.33033 0.2585 0.93841 0.0
C2462 C 0.33994 0.24866 0.94097 0.0
C2463 C 0.33262 0.23016 0.93191 0.0
H2464 H 0.71077 0.04388 0.06086 0.0
H2465 H 0.67755 0.05884 0.02328 0.0
H2466 H 0.73329 0.05316 0.03676 0.0
H2467 H 0.70033 0.06856 0.99941 0.0
H2468 H 0.73132 0.06034 0.9506 0.0
H2469 H 0.71002 0.05261 0.97592 0.0
H2470 H 0.75646 0.07992 0.02157 0.0
H2471 H 0.77776 0.08746 0.99617 0.0
C2472 C 0.70842 0.04945 0.04761 0.0
C2473 C 0.69231 0.05051 0.04392 0.0
C2474 C 0.72137 0.05482 0.03382 0.0
C2475 C 0.7185 0.06141 0.01607 0.0
C2476 C 0.70274 0.06316 0.01275 0.0
C2477 C 0.68977 0.05774 0.02651 0.0
C2478 C 0.73695 0.06468 0.96605 0.0
C2479 C 0.75618 0.0745 0.97142 0.0
C2480 C 0.72478 0.06036 0.98055 0.0
C2481 C 0.73155 0.06583 0.00076 0.0
C2482 C 0.75079 0.07537 0.00615 0.0
C2483 C 0.76299 0.07964 0.99162 0.0
H2484 H 0.62316 0.94282 0.06851 0.0
H2485 H 0.67348 0.99564 0.06274 0.0
H2486 H 0.64116 0.92732 0.07392 0.0
H2487 H 0.69143 0.98001 0.06816 0.0
H2488 H 0.67672 0.90146 0.07863 0.0
H2489 H 0.66272 0.91715 0.06104 0.0
H2490 H 0.6971 0.96895 0.1002 0.0
H2491 H 0.71071 0.95327 0.11805 0.0
C2492 C 0.63799 0.95101 0.0679 0.0
C2493 C 0.64689 0.97056 0.06557 0.0
C2494 C 0.6483 0.94208 0.07087 0.0
C2495 C 0.66773 0.95253 0.07169 0.0
C2496 C 0.6765 0.97169 0.06783 0.0
C2497 C 0.66617 0.98059 0.06467 0.0
C2498 C 0.68148 0.91629 0.0833 0.0
C2499 C 0.69463 0.92601 0.09996 0.0
C2500 C 0.67351 0.92526 0.07318 0.0
C2501 C 0.67871 0.9442 0.07936 0.0
C2502 C 0.69294 0.9544 0.09495 0.0
C2503 C 0.70079 0.94539 0.10518 0.0
H2504 H 0.02354 0.71318 0.0821 0.0
H2505 H 0.06436 0.69938 0.10418 0.0
H2506 H 0.04556 0.74703 0.09241 0.0
H2507 H 0.08594 0.73278 0.11474 0.0
H2508 H 0.12707 0.79467 0.11833 0.0
H2509 H 0.10482 0.76288 0.10233 0.0
H2510 H 0.06005 0.76828 0.12368 0.0
H2511 H 0.08248 0.80044 0.13944 0.0
C2512 C 0.03722 0.71735 0.08895 0.0
C2513 C 0.04214 0.70353 0.09235 0.0
C2514 C 0.04977 0.73671 0.09499 0.0
C2515 C 0.06751 0.74262 0.1044 0.0
C2516 C 0.07252 0.72881 0.10728 0.0
C2517 C 0.06004 0.70957 0.10132 0.0
C2518 C 0.11246 0.78907 0.11957 0.0
C2519 C 0.1065 0.79984 0.13043 0.0
C2520 C 0.09971 0.77087 0.1104 0.0
C2521 C 0.08067 0.76291 0.11197 0.0
C2522 C 0.07461 0.77403 0.12209 0.0
C2523 C 0.08742 0.79239 0.13119 0.0
H2524 H 0.32267 0.39748 0.02915 0.0
H2525 H 0.3085 0.33972 0.0102 0.0
H2526 H 0.29677 0.38539 0.04915 0.0
H2527 H 0.28296 0.32764 0.03071 0.0
H2528 H 0.22733 0.31241 0.05357 0.0
H2529 H 0.25299 0.32397 0.03304 0.0
H2530 H 0.28731 0.37036 0.07868 0.0
H2531 H 0.26155 0.35903 0.09886 0.0
C2532 C 0.31409 0.38221 0.02934 0.0
C2533 C 0.31763 0.36958 0.01808 0.0
C2534 C 0.2993 0.37526 0.04091 0.0
C2535 C 0.28779 0.35552 0.04161 0.0
C2536 C 0.29136 0.3429 0.03031 0.0
C2537 C 0.30608 0.34984 0.01864 0.0
C2538 C 0.24042 0.32501 0.05919 0.0
C2539 C 0.24243 0.33493 0.0777 0.0
C2540 C 0.25513 0.33162 0.04748 0.0
C2541 C 0.2722 0.34819 0.05414 0.0
C2542 C 0.27426 0.35783 0.07288 0.0
C2543 C 0.25953 0.35131 0.08447 0.0
H2544 H 0.69674 0.65932 0.37093 0.0
H2545 H 0.73785 0.71789 0.39126 0.0
H2546 H 0.71374 0.64856 0.39171 0.0
H2547 H 0.7551 0.70723 0.41145 0.0
H2548 H 0.77607 0.68362 0.45768 0.0
H2549 H 0.75545 0.69211 0.44008 0.0
H2550 H 0.74171 0.64749 0.39293 0.0
H2551 H 0.762 0.63878 0.41083 0.0
C2552 C 0.70939 0.6699 0.37984 0.0
C2553 C 0.71595 0.68947 0.37938 0.0
C2554 C 0.7192 0.66374 0.39168 0.0
C2555 C 0.73586 0.677 0.40327 0.0
C2556 C 0.7422 0.69656 0.40302 0.0
C2557 C 0.73234 0.70271 0.3913 0.0
C2558 C 0.76853 0.67557 0.44362 0.0
C2559 C 0.77071 0.66059 0.4356 0.0
C2560 C 0.75676 0.68047 0.43347 0.0
C2561 C 0.74702 0.67062 0.41495 0.0
C2562 C 0.74878 0.65524 0.40725 0.0
C2563 C 0.76044 0.65025 0.41749 0.0
H2564 H 0.33756 0.02678 0.433 0.0
H2565 H 0.28566 0.01932 0.44988 0.0
H2566 H 0.35302 0.0606 0.44545 0.0
H2567 H 0.30109 0.05295 0.46208 0.0
H2568 H 0.3376 0.10432 0.50642 0.0
H2569 H 0.32416 0.07159 0.49142 0.0
H2570 H 0.35411 0.09182 0.44048 0.0
H2571 H 0.36753 0.1248 0.45549 0.0
C2572 C 0.32938 0.03237 0.43904 0.0
C2573 C 0.3104 0.02024 0.44068 0.0
C2574 C 0.33825 0.05173 0.44615 0.0
C2575 C 0.32832 0.05928 0.45507 0.0
C2576 C 0.30918 0.0474 0.45569 0.0
C2577 C 0.30032 0.02814 0.44857 0.0
C2578 C 0.34136 0.1018 0.49204 0.0
C2579 C 0.35343 0.11712 0.48202 0.0
C2580 C 0.33362 0.08308 0.48343 0.0
C2581 C 0.33781 0.0792 0.46462 0.0
C2582 C 0.35063 0.09443 0.45499 0.0
C2583 C 0.35836 0.11326 0.46361 0.0
H2584 H 0.00896 0.30604 0.39231 0.0
H2585 H 0.97246 0.29323 0.33862 0.0
H2586 H 0.9825 0.29446 0.4116 0.0
H2587 H 0.94603 0.28168 0.358 0.0
H2588 H 0.90342 0.24067 0.39841 0.0
H2589 H 0.92908 0.25409 0.37792 0.0
H2590 H 0.95921 0.30355 0.42121 0.0
H2591 H 0.93359 0.29002 0.44181 0.0
C2592 C 0.9953 0.30075 0.38462 0.0
C2593 C 0.9928 0.3005 0.36392 0.0
C2594 C 0.98018 0.29427 0.3957 0.0
C2595 C 0.96223 0.28725 0.3863 0.0
C2596 C 0.9597 0.28692 0.36561 0.0
C2597 C 0.97485 0.29358 0.35454 0.0
C2598 C 0.91548 0.25448 0.40344 0.0
C2599 C 0.91657 0.2643 0.42169 0.0
C2600 C 0.9301 0.2622 0.39168 0.0
C2601 C 0.94617 0.2798 0.39804 0.0
C2602 C 0.94705 0.28986 0.41605 0.0
C2603 C 0.93234 0.28222 0.42772 0.0
H2604 H 0.08106 0.40791 0.33773 0.0
H2605 H 0.02442 0.36266 0.33866 0.0
H2606 H 0.07013 0.42907 0.3278 0.0
H2607 H 0.0135 0.38351 0.32798 0.0
H2608 H 0.99737 0.42592 0.31124 0.0
H2609 H 0.01023 0.41097 0.33202 0.0
H2610 H 0.05609 0.42947 0.2965 0.0
H2611 H 0.04347 0.44453 0.2762 0.0
C2612 C 0.06629 0.40257 0.33614 0.0
C2613 C 0.0536 0.3835 0.3386 0.0
C2614 C 0.06001 0.41466 0.33032 0.0
C2615 C 0.04092 0.40786 0.32659 0.0
C2616 C 0.02829 0.38928 0.33075 0.0
C2617 C 0.03458 0.37726 0.33681 0.0
C2618 C 0.01029 0.4269 0.30808 0.0
C2619 C 0.01941 0.43638 0.29211 0.0
C2620 C 0.01766 0.41836 0.31996 0.0
C2621 C 0.03423 0.41904 0.31599 0.0
C2622 C 0.04356 0.42902 0.30034 0.0
C2623 C 0.03627 0.43761 0.2886 0.0
H2624 H 0.60472 0.64581 0.29248 0.0
H2625 H 0.64103 0.62987 0.32268 0.0
H2626 H 0.58381 0.61277 0.2795 0.0
H2627 H 0.61977 0.59648 0.30952 0.0
H2628 H 0.56297 0.53682 0.29576 0.0
H2629 H 0.58604 0.56897 0.31089 0.0
H2630 H 0.58689 0.59061 0.25433 0.0
H2631 H 0.56421 0.5586 0.23913 0.0
C2632 C 0.60822 0.63527 0.29652 0.0
C2633 C 0.62471 0.64061 0.30851 0.0
C2634 C 0.59624 0.61632 0.28894 0.0
C2635 C 0.60033 0.60213 0.29322 0.0
C2636 C 0.61633 0.60718 0.30595 0.0
C2637 C 0.62848 0.62628 0.31346 0.0
C2638 C 0.5684 0.54837 0.28647 0.0
C2639 C 0.56159 0.54519 0.26628 0.0
C2640 C 0.58155 0.56677 0.29516 0.0
C2641 C 0.58801 0.5823 0.28385 0.0
C2642 C 0.58185 0.57895 0.2635 0.0
C2643 C 0.56885 0.56062 0.25481 0.0
H2644 H 0.35429 0.99203 0.38678 0.0
H2645 H 0.34139 0.93341 0.38043 0.0
H2646 H 0.37949 0.00054 0.36608 0.0
H2647 H 0.36647 0.94193 0.35959 0.0
H2648 H 0.42542 0.96875 0.34149 0.0
H2649 H 0.4008 0.9609 0.36287 0.0
H2650 H 0.3834 0.99443 0.33096 0.0
H2651 H 0.40787 0.00212 0.30942 0.0
C2652 C 0.35681 0.98096 0.38096 0.0
C2653 C 0.34585 0.96205 0.38526 0.0
C2654 C 0.37118 0.98583 0.36903 0.0
C2655 C 0.37496 0.9719 0.36125 0.0
C2656 C 0.36402 0.95301 0.36558 0.0
C2657 C 0.34959 0.94812 0.37742 0.0
C2658 C 0.41627 0.97435 0.33896 0.0
C2659 C 0.41858 0.98603 0.32374 0.0
C2660 C 0.40218 0.96986 0.3512 0.0
C2661 C 0.39016 0.97702 0.34854 0.0
C2662 C 0.39261 0.9889 0.33351 0.0
C2663 C 0.40665 0.99333 0.32121 0.0
H2664 H 0.58926 0.96203 0.37796 0.0
H2665 H 0.63878 0.99527 0.34961 0.0
H2666 H 0.5714 0.96816 0.35306 0.0
H2667 H 0.6207 0.00118 0.32434 0.0
H2668 H 0.58422 0.0246 0.2977 0.0
H2669 H 0.60375 0.01843 0.32066 0.0
H2670 H 0.56001 0.95962 0.31817 0.0
H2671 H 0.54031 0.96592 0.29598 0.0
C2672 C 0.59635 0.9706 0.36636 0.0
C2673 C 0.61546 0.97814 0.36579 0.0
C2674 C 0.58605 0.974 0.35196 0.0
C2675 C 0.59457 0.98504 0.33659 0.0
C2676 C 0.61374 0.99272 0.33606 0.0
C2677 C 0.62407 0.98927 0.35049 0.0
C2678 C 0.57881 0.01035 0.30202 0.0
C2679 C 0.56067 0.99578 0.29501 0.0
C2680 C 0.59006 0.00677 0.31504 0.0
C2681 C 0.58338 0.98857 0.3214 0.0
C2682 C 0.56549 0.97387 0.31382 0.0
C2683 C 0.55428 0.97743 0.30084 0.0
H2684 H 0.0603 0.66098 0.28153 0.0
H2685 H 0.01069 0.64623 0.30974 0.0
H2686 H 0.04616 0.62829 0.26633 0.0
H2687 H 0.99657 0.61336 0.29439 0.0
H2688 H 0.00703 0.57692 0.22239 0.0
H2689 H 0.01953 0.60874 0.23968 0.0
H2690 H 0.00062 0.58423 0.29408 0.0
H2691 H 0.98841 0.55232 0.27691 0.0
C2692 C 0.04646 0.65075 0.2847 0.0
C2693 C 0.03659 0.65633 0.29676 0.0
C2694 C 0.03831 0.63204 0.27584 0.0
C2695 C 0.02016 0.61839 0.27892 0.0
C2696 C 0.01057 0.62363 0.29173 0.0
C2697 C 0.01868 0.64245 0.30051 0.0
C2698 C 0.0055 0.57829 0.23803 0.0
C2699 C 0.99684 0.56208 0.24829 0.0
C2700 C 0.01268 0.5965 0.24793 0.0
C2701 C 0.01125 0.59893 0.26828 0.0
C2702 C 0.00185 0.58274 0.27838 0.0
C2703 C 0.99477 0.56448 0.2685 0.0
H2704 H 0.3368 0.41412 0.35672 0.0
H2705 H 0.33845 0.36225 0.36058 0.0
H2706 H 0.36267 0.42582 0.33642 0.0
H2707 H 0.36429 0.37402 0.34065 0.0
H2708 H 0.39611 0.39221 0.2862 0.0
H2709 H 0.37031 0.38084 0.30638 0.0
H2710 H 0.39616 0.43646 0.33986 0.0
H2711 H 0.42206 0.44782 0.31977 0.0
C2712 C 0.34268 0.40524 0.35328 0.0
C2713 C 0.33555 0.38726 0.36025 0.0
C2714 C 0.35754 0.41198 0.34176 0.0
C2715 C 0.36548 0.40081 0.33693 0.0
C2716 C 0.35832 0.38285 0.3439 0.0
C2717 C 0.34355 0.37616 0.35542 0.0
C2718 C 0.39642 0.40194 0.29804 0.0
C2719 C 0.41115 0.4209 0.30141 0.0
C2720 C 0.38161 0.39545 0.30955 0.0
C2721 C 0.38119 0.40778 0.32467 0.0
C2722 C 0.39596 0.42671 0.32812 0.0
C2723 C 0.4108 0.4332 0.31664 0.0
H2724 H 0.322 0.31749 0.39799 0.0
H2725 H 0.2686 0.26813 0.40326 0.0
H2726 H 0.33716 0.30016 0.40821 0.0
H2727 H 0.28379 0.25063 0.4129 0.0
H2728 H 0.31717 0.24256 0.46359 0.0
H2729 H 0.30146 0.25538 0.44449 0.0
H2730 H 0.34326 0.2737 0.40371 0.0
H2731 H 0.35915 0.26065 0.42307 0.0
C2732 C 0.31344 0.30275 0.40071 0.0
C2733 C 0.2941 0.29434 0.4003 0.0
C2734 C 0.32217 0.29278 0.4065 0.0
C2735 C 0.3117 0.27419 0.41183 0.0
C2736 C 0.29226 0.26514 0.40941 0.0
C2737 C 0.28354 0.27514 0.40378 0.0
C2738 C 0.32287 0.24898 0.45034 0.0
C2739 C 0.3393 0.25041 0.44472 0.0
C2740 C 0.3138 0.25628 0.43932 0.0
C2741 C 0.32093 0.26528 0.42237 0.0
C2742 C 0.33743 0.26682 0.4167 0.0
C2743 C 0.34655 0.25943 0.4278 0.0
H2744 H 0.73482 0.02677 0.43486 0.0
H2745 H 0.69275 0.03865 0.41233 0.0
H2746 H 0.75617 0.06054 0.44357 0.0
H2747 H 0.71453 0.07286 0.42079 0.0
H2748 H 0.75223 0.12846 0.46504 0.0
H2749 H 0.72976 0.09568 0.45101 0.0
H2750 H 0.77416 0.08983 0.42928 0.0
H2751 H 0.79646 0.12227 0.44355 0.0
C2752 C 0.73016 0.03661 0.43152 0.0
C2753 C 0.712 0.02993 0.42294 0.0
C2754 C 0.74251 0.05606 0.4364 0.0
C2755 C 0.7371 0.06945 0.43284 0.0
C2756 C 0.71906 0.06288 0.42387 0.0
C2757 C 0.70665 0.04331 0.41889 0.0
C2758 C 0.75708 0.12018 0.45705 0.0
C2759 C 0.7761 0.12774 0.45571 0.0
C2760 C 0.74424 0.10146 0.44894 0.0
C2761 C 0.7502 0.09004 0.43926 0.0
C2762 C 0.76914 0.09806 0.43705 0.0
C2763 C 0.78192 0.11664 0.44523 0.0
H2764 H 0.96611 0.69756 0.32732 0.0
H2765 H 0.99671 0.68105 0.36684 0.0
H2766 H 0.94093 0.68537 0.34831 0.0
H2767 H 0.97131 0.66836 0.38752 0.0
H2768 H 0.93342 0.67075 0.43206 0.0
H2769 H 0.95775 0.6802 0.4102 0.0
H2770 H 0.91648 0.6567 0.3592 0.0
H2771 H 0.89213 0.64806 0.38113 0.0
C2772 C 0.9674 0.69118 0.34039 0.0
C2773 C 0.98347 0.6904 0.34548 0.0
C2774 C 0.95289 0.68405 0.35235 0.0
C2775 C 0.95409 0.6759 0.36963 0.0
C2776 C 0.97004 0.67481 0.37449 0.0
C2777 C 0.98458 0.68202 0.36259 0.0
C2778 C 0.92953 0.66766 0.41618 0.0
C2779 C 0.91085 0.65882 0.40834 0.0
C2780 C 0.94348 0.67287 0.40363 0.0
C2781 C 0.93909 0.66927 0.38292 0.0
C2782 C 0.92035 0.65992 0.37508 0.0
C2783 C 0.90638 0.65475 0.38765 0.0
H2784 H 0.39543 0.99601 0.68286 0.0
H2785 H 0.37771 0.02049 0.72872 0.0
H2786 H 0.41466 0.99166 0.70778 0.0
H2787 H 0.3967 0.0157 0.75382 0.0
H2788 H 0.45139 0.02652 0.78798 0.0
H2789 H 0.42914 0.02859 0.76498 0.0
H2790 H 0.41371 0.97362 0.73476 0.0
H2791 H 0.43655 0.97197 0.75713 0.0
C2792 C 0.39547 0.00029 0.69829 0.0
C2793 C 0.38507 0.00867 0.70376 0.0
C2794 C 0.40642 0.99766 0.71264 0.0
C2795 C 0.40723 0.0033 0.73285 0.0
C2796 C 0.39658 0.0114 0.73837 0.0
C2797 C 0.38561 0.01405 0.72399 0.0
C2798 C 0.44324 0.01487 0.77643 0.0
C2799 C 0.44589 0.99914 0.77434 0.0
C2800 C 0.43032 0.01596 0.76337 0.0
C2801 C 0.41971 0.00134 0.7479 0.0
C2802 C 0.42185 0.98528 0.7463 0.0
C2803 C 0.43478 0.98421 0.75933 0.0
H2804 H 0.95491 0.33746 0.80212 0.0
H2805 H 0.98389 0.35791 0.7507 0.0
H2806 H 0.96751 0.36989 0.81688 0.0
H2807 H 0.99546 0.39081 0.76468 0.0
H2808 H 0.02517 0.44855 0.80124 0.0
H2809 H 0.01525 0.41609 0.78798 0.0
H2810 H 0.96458 0.39583 0.81579 0.0
H2811 H 0.97545 0.42764 0.83087 0.0
C2812 C 0.96371 0.34902 0.79378 0.0
C2813 C 0.96826 0.34523 0.77518 0.0
C2814 C 0.97089 0.3677 0.80218 0.0
C2815 C 0.98233 0.3832 0.79192 0.0
C2816 C 0.98691 0.37935 0.77322 0.0
C2817 C 0.98015 0.36052 0.76506 0.0
C2818 C 0.01214 0.4371 0.80497 0.0
C2819 C 0.00113 0.44089 0.81714 0.0
C2820 C 0.00625 0.41844 0.79699 0.0
C2821 C 0.98903 0.40313 0.80066 0.0
C2822 C 0.97809 0.40701 0.81285 0.0
C2823 C 0.98419 0.42549 0.82123 0.0
H2824 H 0.63626 0.6157 0.67422 0.0
H2825 H 0.67606 0.62678 0.72422 0.0
H2826 H 0.61134 0.6024 0.6955 0.0
H2827 H 0.65126 0.61408 0.74562 0.0
H2828 H 0.60105 0.57437 0.7751 0.0
H2829 H 0.625 0.58541 0.75272 0.0
H2830 H 0.59955 0.61267 0.72188 0.0
H2831 H 0.57489 0.60063 0.74359 0.0
C2832 C 0.63969 0.61527 0.68975 0.0
C2833 C 0.65813 0.62228 0.69753 0.0
C2834 C 0.62542 0.60779 0.70198 0.0
C2835 C 0.62929 0.60727 0.7223 0.0
C2836 C 0.64773 0.61402 0.72999 0.0
C2837 C 0.66197 0.62137 0.71773 0.0
C2838 C 0.60037 0.58247 0.76335 0.0
C2839 C 0.58596 0.58651 0.76107 0.0
C2840 C 0.61427 0.58903 0.75068 0.0
C2841 C 0.61424 0.59996 0.7355 0.0
C2842 C 0.59987 0.60407 0.73324 0.0
C2843 C 0.58587 0.5974 0.74587 0.0
H2844 H 0.67656 0.6811 0.68001 0.0
H2845 H 0.72616 0.73403 0.67267 0.0
H2846 H 0.65809 0.69614 0.67443 0.0
H2847 H 0.70764 0.74894 0.66706 0.0
H2848 H 0.63733 0.72102 0.62382 0.0
H2849 H 0.65153 0.70615 0.64217 0.0
H2850 H 0.68601 0.75898 0.67977 0.0
H2851 H 0.67145 0.77387 0.66165 0.0
C2852 C 0.68361 0.69606 0.6777 0.0
C2853 C 0.70282 0.70628 0.67641 0.0
C2854 C 0.67298 0.70463 0.67445 0.0
C2855 C 0.68139 0.72362 0.67009 0.0
C2856 C 0.70077 0.7343 0.6705 0.0
C2857 C 0.71138 0.7257 0.67358 0.0
C2858 C 0.64741 0.72931 0.63647 0.0
C2859 C 0.65344 0.74873 0.64107 0.0
C2860 C 0.65559 0.72076 0.64699 0.0
C2861 C 0.67003 0.73148 0.66226 0.0
C2862 C 0.67508 0.75048 0.66788 0.0
C2863 C 0.66679 0.75899 0.65746 0.0
H2864 H 0.31647 0.96115 0.65585 0.0
H2865 H 0.27192 0.97324 0.6503 0.0
H2866 H 0.29394 0.92699 0.6479 0.0
H2867 H 0.24961 0.93936 0.64255 0.0
H2868 H 0.21214 0.8764 0.64328 0.0
H2869 H 0.23631 0.90823 0.65748 0.0
H2870 H 0.27287 0.90716 0.61611 0.0
H2871 H 0.24853 0.87539 0.60153 0.0
C2872 C 0.30187 0.95649 0.65333 0.0
C2873 C 0.29595 0.96987 0.65361 0.0
C2874 C 0.28903 0.93699 0.64864 0.0
C2875 C 0.27004 0.93054 0.64457 0.0
C2876 C 0.26412 0.94387 0.64579 0.0
C2877 C 0.27692 0.9633 0.65013 0.0
C2878 C 0.22533 0.88292 0.63718 0.0
C2879 C 0.22827 0.87347 0.62101 0.0
C2880 C 0.23919 0.9011 0.64541 0.0
C2881 C 0.25641 0.91022 0.6378 0.0
C2882 C 0.25977 0.9004 0.62238 0.0
C2883 C 0.24582 0.88221 0.61403 0.0
H2884 H 0.01941 0.32985 0.71765 0.0
H2885 H 0.0197 0.27694 0.71711 0.0
H2886 H 0.04604 0.34285 0.69853 0.0
H2887 H 0.04639 0.29004 0.69822 0.0
H2888 H 0.07933 0.31155 0.64523 0.0
H2889 H 0.05296 0.29941 0.66452 0.0
H2890 H 0.07953 0.3529 0.70214 0.0
H2891 H 0.10613 0.36506 0.6829 0.0
C2892 C 0.02518 0.32101 0.7135 0.0
C2893 C 0.01741 0.30233 0.71885 0.0
C2894 C 0.04049 0.32851 0.70266 0.0
C2895 C 0.04827 0.31745 0.69684 0.0
C2896 C 0.04054 0.29882 0.70227 0.0
C2897 C 0.02531 0.29135 0.71318 0.0
C2898 C 0.07966 0.32067 0.65775 0.0
C2899 C 0.09492 0.33921 0.66266 0.0
C2900 C 0.06453 0.31371 0.66877 0.0
C2901 C 0.06424 0.32514 0.68493 0.0
C2902 C 0.07931 0.34381 0.68966 0.0
C2903 C 0.09453 0.35078 0.67865 0.0
H2904 H 0.30801 0.33191 0.67996 0.0
H2905 H 0.2742 0.3324 0.72518 0.0
H2906 H 0.29304 0.34352 0.65724 0.0
H2907 H 0.25904 0.34345 0.7025 0.0
H2908 H 0.24459 0.37782 0.66498 0.0
H2909 H 0.26409 0.37059 0.68632 0.0
H2910 H 0.26336 0.33273 0.63836 0.0
H2911 H 0.24461 0.34077 0.61662 0.0
C2912 C 0.29741 0.33448 0.68505 0.0
C2913 C 0.29232 0.33124 0.70439 0.0
C2914 C 0.28877 0.34106 0.67201 0.0
C2915 C 0.27489 0.34453 0.67805 0.0
C2916 C 0.26992 0.34132 0.69744 0.0
C2917 C 0.27854 0.33482 0.71043 0.0
C2918 C 0.24899 0.36836 0.65877 0.0
C2919 C 0.24295 0.35984 0.63906 0.0
C2920 C 0.25996 0.36398 0.67113 0.0
C2921 C 0.26508 0.35085 0.66417 0.0
C2922 C 0.25975 0.34296 0.64421 0.0
C2923 C 0.24882 0.34741 0.6318 0.0
H2924 H 0.72406 0.98926 0.61663 0.0
H2925 H 0.67255 0.97962 0.63707 0.0
H2926 H 0.70989 0.9554 0.60628 0.0
H2927 H 0.65846 0.94551 0.62698 0.0
H2928 H 0.63534 0.89094 0.5818 0.0
H2929 H 0.64849 0.92411 0.59585 0.0
H2930 H 0.69794 0.92493 0.6194 0.0
H2931 H 0.68491 0.89201 0.60526 0.0
C2932 C 0.70977 0.97991 0.61916 0.0
C2933 C 0.69945 0.98723 0.62763 0.0
C2934 C 0.70166 0.96043 0.6133 0.0
C2935 C 0.68303 0.94775 0.61579 0.0
C2936 C 0.67278 0.95496 0.62466 0.0
C2937 C 0.68092 0.97449 0.63057 0.0
C2938 C 0.64894 0.89821 0.59014 0.0
C2939 C 0.65924 0.88903 0.59215 0.0
C2940 C 0.65645 0.91716 0.59824 0.0
C2941 C 0.67434 0.92721 0.60857 0.0
C2942 C 0.6843 0.91773 0.61116 0.0
C2943 C 0.67685 0.89889 0.60304 0.0
H2944 H 0.98834 0.69099 0.67751 0.0
H2945 H 0.02623 0.73565 0.72303 0.0
H2946 H 0.01303 0.70048 0.65618 0.0
H2947 H 0.05086 0.74572 0.70131 0.0
H2948 H 0.09541 0.74753 0.66523 0.0
H2949 H 0.07081 0.73649 0.68699 0.0
H2950 H 0.03101 0.72491 0.63677 0.0
H2951 H 0.0553 0.73471 0.61493 0.0
C2952 C 0.00191 0.70301 0.68287 0.0
C2953 C 0.00532 0.71261 0.70194 0.0
C2954 C 0.01607 0.70851 0.67059 0.0
C2955 C 0.03396 0.7239 0.67698 0.0
C2956 C 0.03734 0.7336 0.69603 0.0
C2957 C 0.02318 0.72795 0.70842 0.0
C2958 C 0.08135 0.74228 0.65879 0.0
C2959 C 0.07735 0.74205 0.63833 0.0
C2960 C 0.06728 0.73623 0.67132 0.0
C2961 C 0.04892 0.72991 0.66368 0.0
C2962 C 0.04493 0.72947 0.64318 0.0
C2963 C 0.05893 0.73534 0.63066 0.0
H2964 H 0.9775 0.64386 0.72047 0.0
H2965 H 0.92714 0.60055 0.74121 0.0
H2966 H 0.9923 0.62539 0.72762 0.0
H2967 H 0.94204 0.5824 0.74867 0.0
H2968 H 0.01664 0.60524 0.77889 0.0
H2969 H 0.00295 0.62005 0.75945 0.0
H2970 H 0.95632 0.56439 0.73793 0.0
H2971 H 0.97002 0.54959 0.75759 0.0
C2972 C 0.96945 0.63025 0.72618 0.0
C2973 C 0.95122 0.62387 0.73062 0.0
C2974 C 0.97799 0.61972 0.73036 0.0
C2975 C 0.96846 0.60259 0.73899 0.0
C2976 C 0.94977 0.59548 0.74191 0.0
C2977 C 0.94124 0.60599 0.73775 0.0
C2978 C 0.00375 0.59615 0.76955 0.0
C2979 C 0.99426 0.5763 0.76998 0.0
C2980 C 0.99589 0.60462 0.75835 0.0
C2981 C 0.97842 0.59339 0.74732 0.0
C2982 C 0.96963 0.57344 0.74657 0.0
C2983 C 0.97746 0.56498 0.75781 0.0
H2984 H 0.39635 0.35834 0.78174 0.0
H2985 H 0.36147 0.37367 0.74758 0.0
H2986 H 0.41706 0.39161 0.79406 0.0
H2987 H 0.38236 0.40722 0.7602 0.0
H2988 H 0.4376 0.46695 0.77298 0.0
H2989 H 0.41489 0.43426 0.75916 0.0
H2990 H 0.4153 0.41519 0.817 0.0
H2991 H 0.43785 0.44776 0.83081 0.0
C2992 C 0.3931 0.36879 0.77677 0.0
C2993 C 0.37712 0.36325 0.76374 0.0
C2994 C 0.40494 0.38789 0.78398 0.0
C2995 C 0.40118 0.40199 0.77836 0.0
C2996 C 0.38559 0.39664 0.7648 0.0
C2997 C 0.37364 0.37743 0.75759 0.0
C2998 C 0.43255 0.45582 0.78281 0.0
C2999 C 0.43965 0.4599 0.80296 0.0
C3000 C 0.41959 0.43711 0.77487 0.0
C3001 C 0.41353 0.42213 0.78693 0.0
C3002 C 0.42003 0.42637 0.80724 0.0
C3003 C 0.43292 0.44502 0.81515 0.0
H3004 H 0.64892 0.01246 0.67728 0.0
H3005 H 0.68191 0.06563 0.71495 0.0
H3006 H 0.62417 0.00288 0.69877 0.0
H3007 H 0.65704 0.05619 0.73618 0.0
H3008 H 0.61661 0.02535 0.78078 0.0
H3009 H 0.64143 0.03333 0.75971 0.0
H3010 H 0.60141 0.0116 0.70768 0.0
H3011 H 0.57656 0.00357 0.7288 0.0
C3012 C 0.65089 0.02212 0.69012 0.0
C3013 C 0.66739 0.03982 0.69439 0.0
C3014 C 0.63666 0.01666 0.70237 0.0
C3015 C 0.63862 0.02878 0.71917 0.0
C3016 C 0.65518 0.04642 0.7235 0.0
C3017 C 0.6694 0.05188 0.71125 0.0
C3018 C 0.61312 0.02235 0.76484 0.0
C3019 C 0.59464 0.01393 0.75645 0.0
C3020 C 0.62734 0.02693 0.75277 0.0
C3021 C 0.62341 0.02319 0.73202 0.0
C3022 C 0.60487 0.01445 0.72363 0.0
C3023 C 0.59064 0.00985 0.73572 0.0
loop_
_geom_bond_atom_site_label_1
_geom_bond_atom_site_label_2
_geom_bond_distance
_geom_bond_site_symmetry_2
_ccdc_geom_bond_type
Mg0 O1 2.028 . S
Mg0 O7 1.986 1_455 S
Mg0 O9 2.114 . S
Mg0 O10 2.251 1_554 S
Mg0 O13 2.010 . S
O1 Mg0 2.028 . S
O1 C4 1.250 1_455 S
O2 Mg3 2.028 . S
O2 C4 1.248 . S
Mg3 O2 2.028 . S
Mg3 O8 2.032 . S
Mg3 O10 2.079 1_654 S
C4 O1 1.250 1_655 S
C4 O2 1.248 . S
C5 O6 1.264 . S
C5 O13 1.249 . S
O6 C5 1.264 . S
O7 Mg0 1.986 1_655 S
O7 C11 1.246 . S
O8 Mg3 2.032 . S
O8 C11 1.259 . S
O9 Mg0 2.114 . S
O9 C12 1.252 1_554 S
O10 Mg0 2.251 1_556 S
O10 Mg3 2.079 1_456 S
O10 C12 1.273 . S
C11 O7 1.246 . S
C11 O8 1.259 . S
C12 O9 1.252 1_556 S
C12 O10 1.273 . S
O13 Mg0 2.010 . S
O13 C5 1.249 . S
Mg14 O15 2.028 . S
Mg14 O21 1.986 . S
Mg14 O23 2.114 . S
Mg14 O24 2.251 . S
Mg14 O27 2.010 . S
O15 Mg14 2.028 . S
O15 C18 1.250 . S
O16 Mg17 2.028 . S
O16 C18 1.248 . S
Mg17 O16 2.028 . S
Mg17 O22 2.032 . S
Mg17 O24 2.079 . S
C18 O15 1.250 . S
C18 O16 1.248 . S
C19 O20 1.264 . S
C19 O27 1.249 . S
O20 C19 1.264 . S
O21 Mg14 1.986 . S
O21 C25 1.246 . S
O22 Mg17 2.032 . S
O22 C25 1.259 . S
O23 Mg14 2.114 . S
O23 C26 1.252 . S
O24 Mg14 2.251 . S
O24 Mg17 2.079 . S
O24 C26 1.273 . S
C25 O21 1.246 . S
C25 O22 1.259 . S
C26 O23 1.252 . S
C26 O24 1.273 . S
O27 Mg14 2.010 . S
O27 C19 1.249 . S
Mg28 O29 2.028 1_565 S
Mg28 O35 1.986 1_565 S
Mg28 O37 2.114 . S
Mg28 O38 2.251 1_564 S
Mg28 O41 2.010 . S
O29 Mg28 2.028 1_545 S
O29 C32 1.250 . S
O30 Mg31 2.028 . S
O30 C32 1.248 . S
Mg31 O30 2.028 . S
Mg31 O36 2.032 . S
Mg31 O38 2.079 1_554 S
C32 O29 1.250 . S
C32 O30 1.248 . S
C33 O34 1.264 . S
C33 O41 1.249 . S
O34 C33 1.264 . S
O35 Mg28 1.986 1_545 S
O35 C39 1.246 . S
O36 Mg31 2.032 . S
O36 C39 1.259 . S
O37 Mg28 2.114 . S
O37 C40 1.252 1_554 S
O38 Mg28 2.251 1_546 S
O38 Mg31 2.079 1_556 S
O38 C40 1.273 1_545 S
C39 O35 1.246 . S
C39 O36 1.259 . S
C40 O37 1.252 1_556 S
C40 O38 1.273 1_565 S
O41 Mg28 2.010 . S
O41 C33 1.249 . S
Mg42 O43 2.017 1_655 S
Mg42 O49 1.986 1_655 S
Mg42 O51 2.114 . S
Mg42 O52 2.251 1_655 S
Mg42 O55 2.010 . S
O43 Mg42 2.017 1_455 S
O43 C46 1.276 . S
O44 Mg45 2.028 . S
O44 C46 1.248 . S
Mg45 O44 2.028 . S
Mg45 O50 2.032 . S
Mg45 O52 2.079 . S
C46 O43 1.276 . S
C46 O44 1.248 . S
C47 O48 1.264 . S
C47 O55 1.249 . S
O48 C47 1.264 . S
O49 Mg42 1.986 1_455 S
O49 C53 1.246 . S
O50 Mg45 2.032 . S
O50 C53 1.259 . S
O51 Mg42 2.114 . S
O51 C54 1.252 . S
O52 Mg42 2.251 1_455 S
O52 Mg45 2.079 . S
O52 C54 1.273 1_455 S
C53 O49 1.246 . S
C53 O50 1.259 . S
C54 O51 1.252 . S
C54 O52 1.273 1_655 S
O55 Mg42 2.010 . S
O55 C47 1.249 . S
Mg56 O57 2.028 1_556 S
Mg56 O63 1.986 . S
Mg56 O65 2.114 . S
Mg56 O66 2.251 . S
Mg56 O69 2.010 1_556 S
O57 Mg56 2.028 1_554 S
O57 C60 1.250 . S
O58 Mg59 2.028 1_554 S
O58 C60 1.248 . S
Mg59 O58 2.028 1_556 S
Mg59 O64 2.032 . S
Mg59 O66 2.079 . S
C60 O57 1.250 . S
C60 O58 1.248 . S
C61 O62 1.264 . S
C61 O69 1.249 . S
O62 C61 1.264 . S
O63 Mg56 1.986 . S
O63 C67 1.246 . S
O64 Mg59 2.032 . S
O64 C67 1.259 . S
O65 Mg56 2.114 . S
O65 C68 1.252 . S
O66 Mg56 2.251 . S
O66 Mg59 2.079 . S
O66 C68 1.273 . S
C67 O63 1.246 . S
C67 O64 1.259 . S
C68 O65 1.252 . S
C68 O66 1.273 . S
O69 Mg56 2.010 1_554 S
O69 C61 1.249 . S
Mg70 O71 2.028 . S
Mg70 O77 1.986 1_545 S
Mg70 O79 2.114 . S
Mg70 O80 2.251 . S
Mg70 O83 2.010 . S
O71 Mg70 2.028 . S
O71 C74 1.250 . S
O72 Mg73 2.028 . S
O72 C74 1.248 1_565 S
Mg73 O72 2.028 . S
Mg73 O78 2.032 . S
Mg73 O80 2.079 1_565 S
C74 O71 1.250 . S
C74 O72 1.248 1_545 S
C75 O76 1.264 . S
C75 O83 1.249 . S
O76 C75 1.264 . S
O77 Mg70 1.986 1_565 S
O77 C81 1.246 . S
O78 Mg73 2.032 . S
O78 C81 1.259 . S
O79 Mg70 2.114 . S
O79 C82 1.252 . S
O80 Mg70 2.251 . S
O80 Mg73 2.079 1_545 S
O80 C82 1.273 . S
C81 O77 1.246 . S
C81 O78 1.259 . S
C82 O79 1.252 . S
C82 O80 1.273 . S
O83 Mg70 2.010 . S
O83 C75 1.249 . S
Mg84 O85 2.028 . S
Mg84 O91 1.986 . S
Mg84 O93 2.114 . S
Mg84 O94 2.251 . S
Mg84 O97 2.010 . S
O85 Mg84 2.028 . S
O85 C88 1.250 . S
O86 Mg87 2.028 . S
O86 C88 1.248 . S
Mg87 O86 2.028 . S
Mg87 O92 2.032 . S
Mg87 O94 2.079 . S
C88 O85 1.250 . S
C88 O86 1.248 . S
C89 O90 1.264 . S
C89 O97 1.249 . S
O90 C89 1.264 . S
O91 Mg84 1.986 . S
O91 C95 1.246 . S
O92 Mg87 2.032 . S
O92 C95 1.259 . S
O93 Mg84 2.114 . S
O93 C96 1.252 . S
O94 Mg84 2.251 . S
O94 Mg87 2.079 . S
O94 C96 1.273 . S
C95 O91 1.246 . S
C95 O92 1.259 . S
C96 O93 1.252 . S
C96 O94 1.273 . S
O97 Mg84 2.010 . S
O97 C89 1.249 . S
Mg98 O99 2.028 . S
Mg98 O105 1.986 . S
Mg98 O107 2.114 . S
Mg98 O108 2.251 . S
Mg98 O111 2.010 . S
O99 Mg98 2.028 . S
O99 C102 1.250 . S
O100 Mg101 2.028 . S
O100 C102 1.248 . S
Mg101 O100 2.028 . S
Mg101 O106 2.032 . S
Mg101 O108 2.079 . S
C102 O99 1.250 . S
C102 O100 1.248 . S
C103 O104 1.264 . S
C103 O111 1.249 . S
O104 C103 1.264 . S
O105 Mg98 1.986 . S
O105 C109 1.215 1_565 S
O106 Mg101 2.032 . S
O106 C109 1.259 1_565 S
O107 Mg98 2.114 . S
O107 C110 1.252 . S
O108 Mg98 2.251 . S
O108 Mg101 2.079 . S
O108 C110 1.273 . S
C109 O105 1.215 1_545 S
C109 O106 1.259 1_545 S
C110 O107 1.252 . S
C110 O108 1.273 . S
O111 Mg98 2.010 . S
O111 C103 1.249 . S
Mg112 O113 2.028 . S
Mg112 O119 1.986 . S
Mg112 O121 2.114 . S
Mg112 O122 2.251 . S
Mg112 O125 2.010 . S
O113 Mg112 2.028 . S
O113 C116 1.250 . S
O114 Mg115 2.028 . S
O114 C116 1.248 . S
Mg115 O114 2.028 . S
Mg115 O120 2.032 . S
Mg115 O122 2.079 . S
C116 O113 1.250 . S
C116 O114 1.248 . S
C117 O118 1.264 . S
C117 O125 1.249 1_655 S
O118 C117 1.264 . S
O119 Mg112 1.986 . S
O119 C123 1.246 . S
O120 Mg115 2.032 . S
O120 C123 1.259 . S
O121 Mg112 2.114 . S
O121 C124 1.252 . S
O122 Mg112 2.251 . S
O122 Mg115 2.079 . S
O122 C124 1.273 . S
C123 O119 1.246 . S
C123 O120 1.259 . S
C124 O121 1.252 . S
C124 O122 1.273 . S
O125 Mg112 2.010 . S
O125 C117 1.249 1_455 S
Mg126 O127 2.028 . S
Mg126 O133 1.986 . S
Mg126 O135 2.114 . S
Mg126 O136 2.251 . S
Mg126 O139 2.010 . S
O127 Mg126 2.028 . S
O127 C130 1.250 . S
O128 Mg129 2.028 . S
O128 C130 1.248 . S
Mg129 O128 2.028 . S
Mg129 O134 2.032 . S
Mg129 O136 2.079 . S
C130 O127 1.250 . S
C130 O128 1.248 . S
C131 O132 1.264 . S
C131 O139 1.249 . S
O132 C131 1.264 . S
O133 Mg126 1.986 . S
O133 C137 1.244 . S
O134 Mg129 2.032 . S
O134 C137 1.275 . S
O135 Mg126 2.114 . S
O135 C138 1.252 . S
O136 Mg126 2.251 . S
O136 Mg129 2.079 . S
O136 C138 1.273 . S
C137 O133 1.244 . S
C137 O134 1.275 . S
C138 O135 1.252 . S
C138 O136 1.273 . S
O139 Mg126 2.010 . S
O139 C131 1.249 . S
Mg140 O141 2.028 . S
Mg140 O147 1.986 . S
Mg140 O149 2.114 . S
Mg140 O150 2.251 . S
Mg140 O153 2.010 . S
O141 Mg140 2.028 . S
O141 C144 1.250 . S
O142 Mg143 2.028 . S
O142 C144 1.248 . S
Mg143 O142 2.028 . S
Mg143 O148 2.032 . S
Mg143 O150 2.079 . S
C144 O141 1.250 . S
C144 O142 1.248 . S
C145 O146 1.264 . S
C145 O153 1.249 1_655 S
O146 C145 1.264 . S
O147 Mg140 1.986 . S
O147 C151 1.246 . S
O148 Mg143 2.032 . S
O148 C151 1.259 . S
O149 Mg140 2.114 . S
O149 C152 1.252 . S
O150 Mg140 2.251 . S
O150 Mg143 2.079 . S
O150 C152 1.273 . S
C151 O147 1.246 . S
C151 O148 1.259 . S
C152 O149 1.252 . S
C152 O150 1.273 . S
O153 Mg140 2.010 . S
O153 C145 1.249 1_455 S
Mg154 O155 2.028 . S
Mg154 O161 1.986 . S
Mg154 O163 2.114 . S
Mg154 O164 2.251 . S
Mg154 O167 2.010 . S
O155 Mg154 2.028 . S
O155 C158 1.250 . S
O156 Mg157 2.028 . S
O156 C158 1.248 . S
Mg157 O156 2.028 . S
Mg157 O162 2.032 . S
Mg157 O164 2.079 . S
C158 O155 1.250 . S
C158 O156 1.248 . S
C159 O160 1.264 . S
C159 O167 1.249 . S
O160 C159 1.264 . S
O161 Mg154 1.986 . S
O161 C165 1.246 . S
O162 Mg157 2.032 . S
O162 C165 1.259 . S
O163 Mg154 2.114 . S
O163 C166 1.252 . S
O164 Mg154 2.251 . S
O164 Mg157 2.079 . S
O164 C166 1.273 . S
C165 O161 1.246 . S
C165 O162 1.259 . S
C166 O163 1.252 . S
C166 O164 1.273 . S
O167 Mg154 2.010 . S
O167 C159 1.249 . S
Mg168 O169 2.028 . S
Mg168 O175 1.986 . S
Mg168 O177 2.114 . S
Mg168 O178 2.251 . S
Mg168 O181 2.010 . S
O169 Mg168 2.028 . S
O169 C172 1.250 . S
O170 Mg171 2.028 . S
O170 C172 1.248 . S
Mg171 O170 2.028 . S
Mg171 O176 2.032 . S
Mg171 O178 2.079 . S
C172 O169 1.250 . S
C172 O170 1.248 . S
C173 O174 1.264 . S
C173 O181 1.249 . S
O174 C173 1.264 . S
O175 Mg168 1.986 . S
O175 C179 1.246 . S
O176 Mg171 2.032 . S
O176 C179 1.259 . S
O177 Mg168 2.114 . S
O177 C180 1.252 . S
O178 Mg168 2.251 . S
O178 Mg171 2.079 . S
O178 C180 1.273 . S
C179 O175 1.246 . S
C179 O176 1.259 . S
C180 O177 1.252 . S
C180 O178 1.273 . S
O181 Mg168 2.010 . S
O181 C173 1.249 . S
Mg182 O183 2.028 . S
Mg182 O189 1.986 . S
Mg182 O191 2.114 . S
Mg182 O192 2.251 . S
Mg182 O195 2.010 . S
O183 Mg182 2.028 . S
O183 C186 1.250 . S
O184 Mg185 2.028 . S
O184 C186 1.248 . S
Mg185 O184 2.028 . S
Mg185 O190 2.032 . S
Mg185 O192 2.079 . S
C186 O183 1.250 . S
C186 O184 1.248 . S
C187 O188 1.264 . S
C187 O195 1.249 1_455 S
O188 C187 1.264 . S
O189 Mg182 1.986 . S
O189 C193 1.246 . S
O190 Mg185 2.032 . S
O190 C193 1.259 . S
O191 Mg182 2.114 . S
O191 C194 1.252 . S
O192 Mg182 2.251 . S
O192 Mg185 2.079 . S
O192 C194 1.273 . S
C193 O189 1.246 . S
C193 O190 1.259 . S
C194 O191 1.252 . S
C194 O192 1.273 . S
O195 Mg182 2.010 . S
O195 C187 1.249 1_655 S
Mg196 O197 2.028 . S
Mg196 O203 1.986 . S
Mg196 O205 2.114 . S
Mg196 O206 2.251 . S
Mg196 O209 2.010 . S
O197 Mg196 2.028 . S
O197 C200 1.250 . S
O198 Mg199 2.028 . S
O198 C200 1.248 . S
Mg199 O198 2.028 . S
Mg199 O204 2.032 . S
Mg199 O206 2.079 . S
C200 O197 1.250 . S
C200 O198 1.248 . S
C201 O202 1.264 . S
C201 O209 1.249 . S
O202 C201 1.264 . S
O203 Mg196 1.986 . S
O203 C207 1.246 . S
O204 Mg199 2.032 . S
O204 C207 1.259 . S
O205 Mg196 2.114 . S
O205 C208 1.252 . S
O206 Mg196 2.251 . S
O206 Mg199 2.079 . S
O206 C208 1.273 . S
C207 O203 1.246 . S
C207 O204 1.259 . S
C208 O205 1.252 . S
C208 O206 1.273 . S
O209 Mg196 2.010 . S
O209 C201 1.249 . S
Mg210 O211 2.028 . S
Mg210 O217 1.986 . S
Mg210 O219 2.114 . S
Mg210 O220 2.251 . S
Mg210 O223 2.010 . S
O211 Mg210 2.028 . S
O211 C214 1.250 . S
O212 Mg213 2.028 . S
O212 C214 1.248 . S
Mg213 O212 2.028 . S
Mg213 O218 2.032 . S
Mg213 O220 2.079 . S
C214 O211 1.250 . S
C214 O212 1.248 . S
C215 O216 1.264 . S
C215 O223 1.249 . S
O216 C215 1.264 . S
O217 Mg210 1.986 . S
O217 C221 1.246 . S
O218 Mg213 2.032 . S
O218 C221 1.259 . S
O219 Mg210 2.114 . S
O219 C222 1.252 . S
O220 Mg210 2.251 . S
O220 Mg213 2.079 . S
O220 C222 1.273 . S
C221 O217 1.246 . S
C221 O218 1.259 . S
C222 O219 1.252 . S
C222 O220 1.273 . S
O223 Mg210 2.010 . S
O223 C215 1.249 . S
Mg224 O225 2.028 . S
Mg224 O231 1.986 . S
Mg224 O233 2.114 . S
Mg224 O234 2.251 . S
Mg224 O237 2.010 . S
O225 Mg224 2.028 . S
O225 C228 1.250 . S
O226 Mg227 2.028 . S
O226 C228 1.248 . S
Mg227 O226 2.028 . S
Mg227 O232 2.032 . S
Mg227 O234 2.079 . S
C228 O225 1.250 . S
C228 O226 1.248 . S
C229 O230 1.264 . S
C229 O237 1.249 . S
O230 C229 1.264 . S
O231 Mg224 1.986 . S
O231 C235 1.246 . S
O232 Mg227 2.032 . S
O232 C235 1.259 . S
O233 Mg224 2.114 . S
O233 C236 1.252 . S
O234 Mg224 2.251 . S
O234 Mg227 2.079 . S
O234 C236 1.273 . S
C235 O231 1.246 . S
C235 O232 1.259 . S
C236 O233 1.252 . S
C236 O234 1.273 . S
O237 Mg224 2.010 . S
O237 C229 1.249 . S
Mg238 O239 2.028 . S
Mg238 O245 1.986 . S
Mg238 O247 2.114 . S
Mg238 O248 2.251 . S
Mg238 O251 2.010 . S
O239 Mg238 2.028 . S
O239 C242 1.250 . S
O240 Mg241 2.028 . S
O240 C242 1.248 . S
Mg241 O240 2.028 . S
Mg241 O246 2.032 . S
Mg241 O248 2.079 . S
C242 O239 1.250 . S
C242 O240 1.248 . S
C243 O244 1.264 . S
C243 O251 1.249 1_455 S
O244 C243 1.264 . S
O245 Mg238 1.986 . S
O245 C249 1.246 . S
O246 Mg241 2.032 . S
O246 C249 1.259 . S
O247 Mg238 2.114 . S
O247 C250 1.252 . S
O248 Mg238 2.251 . S
O248 Mg241 2.079 . S
O248 C250 1.273 . S
C249 O245 1.246 . S
C249 O246 1.259 . S
C250 O247 1.252 . S
C250 O248 1.273 . S
O251 Mg238 2.010 . S
O251 C243 1.249 1_655 S
H252 O278 0.856 . S
H253 O281 0.854 . S
H254 C289 0.930 . S
H255 C290 0.930 . S
H256 C292 0.930 . S
H257 C293 0.930 . S
H258 C295 0.931 . S
H259 C296 0.930 . S
H260 C298 0.930 . S
H261 C299 0.929 . S
H262 C301 0.930 . S
H263 C302 0.931 . S
H264 C304 0.930 . S
H265 C305 0.929 . S
H266 C307 0.931 . S
H267 C308 0.930 . S
H268 C310 0.930 . S
H269 C311 0.932 . S
H270 C313 0.930 . S
H271 C314 0.929 . S
H272 C316 0.931 . S
H273 C317 0.930 . S
H274 C319 0.929 . S
H275 C320 0.931 . S
H276 C322 0.930 . S
H277 C323 0.929 . S
O278 H252 0.856 . S
O278 C324 1.300 . S
O279 C324 1.209 . S
O280 C325 1.199 . S
O281 H253 0.854 . S
O281 C325 1.297 . S
C282 C283 1.404 . S
C282 C287 1.397 . S
C282 C288 1.492 . S
C283 C282 1.404 . S
C283 C284 1.396 . S
C283 C294 1.492 . S
C284 C283 1.396 . S
C284 C285 1.397 . S
C284 C300 1.509 . S
C285 C284 1.397 . S
C285 C286 1.412 . S
C285 C306 1.485 . S
C286 C285 1.412 . S
C286 C287 1.388 . S
C286 C312 1.490 . S
C287 C282 1.397 . S
C287 C286 1.388 . S
C287 C318 1.519 . S
C288 C282 1.492 . S
C288 C289 1.363 . S
C288 C293 1.390 . S
C289 H254 0.930 . S
C289 C288 1.363 . S
C289 C290 1.372 . S
C290 H255 0.930 . S
C290 C289 1.372 . S
C290 C291 1.383 . S
C291 C290 1.383 . S
C291 C292 1.395 . S
C292 H256 0.930 . S
C292 C291 1.395 . S
C292 C293 1.362 . S
C293 H257 0.930 . S
C293 C288 1.390 . S
C293 C292 1.362 . S
C294 C283 1.492 . S
C294 C295 1.377 . S
C294 C299 1.397 . S
C295 H258 0.931 . S
C295 C294 1.377 . S
C295 C296 1.376 . S
C296 H259 0.930 . S
C296 C295 1.376 . S
C296 C297 1.376 . S
C297 C296 1.376 . S
C297 C298 1.378 . S
C297 C324 1.486 . S
C298 H260 0.930 . S
C298 C297 1.378 . S
C298 C299 1.376 . S
C299 H261 0.929 . S
C299 C294 1.397 . S
C299 C298 1.376 . S
C300 C284 1.509 . S
C300 C301 1.391 . S
C300 C305 1.386 . S
C301 H262 0.930 . S
C301 C300 1.391 . S
C301 C302 1.375 . S
C302 H263 0.931 . S
C302 C301 1.375 . S
C302 C303 1.375 . S
C303 C302 1.375 . S
C303 C304 1.361 . S
C304 H264 0.930 . S
C304 C303 1.361 . S
C304 C305 1.399 . S
C305 H265 0.929 . S
C305 C300 1.386 . S
C305 C304 1.399 . S
C306 C285 1.485 . S
C306 C307 1.394 . S
C306 C311 1.360 . S
C307 H266 0.931 . S
C307 C306 1.394 . S
C307 C308 1.372 . S
C308 H267 0.930 . S
C308 C307 1.372 . S
C308 C309 1.397 . S
C309 C308 1.397 . S
C309 C310 1.390 . S
C309 C325 1.476 . S
C310 H268 0.930 . S
C310 C309 1.390 . S
C310 C311 1.366 . S
C311 H269 0.932 . S
C311 C306 1.360 . S
C311 C310 1.366 . S
C312 C286 1.490 . S
C312 C313 1.380 . S
C312 C317 1.386 . S
C313 H270 0.930 . S
C313 C312 1.380 . S
C313 C314 1.381 . S
C314 H271 0.929 . S
C314 C313 1.381 . S
C314 C315 1.371 . S
C315 C314 1.371 . S
C315 C316 1.380 . S
C316 H272 0.931 . S
C316 C315 1.380 . S
C316 C317 1.387 . S
C317 H273 0.930 . S
C317 C312 1.386 . S
C317 C316 1.387 . S
C318 C287 1.519 . S
C318 C319 1.377 . S
C318 C323 1.361 . S
C319 H274 0.929 . S
C319 C318 1.377 . S
C319 C320 1.386 . S
C320 H275 0.931 . S
C320 C319 1.386 . S
C320 C321 1.363 . S
C321 C320 1.363 . S
C321 C322 1.385 . S
C322 H276 0.930 . S
C322 C321 1.385 . S
C322 C323 1.396 . S
C323 H277 0.929 . S
C323 C318 1.361 . S
C323 C322 1.396 . S
C324 O278 1.300 . S
C324 O279 1.209 . S
C324 C297 1.486 . S
C325 O280 1.199 . S
C325 O281 1.297 . S
C325 C309 1.476 . S
H326 O352 0.856 . S
H327 O355 0.854 . S
H328 C363 0.930 . S
H329 C364 0.930 . S
H330 C366 0.930 . S
H331 C367 0.930 . S
H332 C369 0.931 . S
H333 C370 0.930 . S
H334 C372 0.930 . S
H335 C373 0.929 . S
H336 C375 0.930 . S
H337 C376 0.931 . S
H338 C378 0.930 . S
H339 C379 0.929 . S
H340 C381 0.931 . S
H341 C382 0.930 . S
H342 C384 0.930 . S
H343 C385 0.932 . S
H344 C387 0.930 . S
H345 C388 0.929 . S
H346 C390 0.931 . S
H347 C391 0.930 . S
H348 C393 0.929 . S
H349 C394 0.931 . S
H350 C396 0.930 . S
H351 C397 0.929 . S
O352 H326 0.856 . S
O352 C398 1.300 . S
O353 C398 1.209 . S
O354 C399 1.199 . S
O355 H327 0.854 . S
O355 C399 1.297 . S
C356 C357 1.404 . S
C356 C361 1.397 . S
C356 C362 1.492 . S
C357 C356 1.404 . S
C357 C358 1.396 . S
C357 C368 1.492 . S
C358 C357 1.396 . S
C358 C359 1.397 . S
C358 C374 1.509 . S
C359 C358 1.397 . S
C359 C360 1.412 . S
C359 C380 1.485 . S
C360 C359 1.412 . S
C360 C361 1.388 . S
C360 C386 1.490 . S
C361 C356 1.397 . S
C361 C360 1.388 . S
C361 C392 1.519 . S
C362 C356 1.492 . S
C362 C363 1.363 . S
C362 C367 1.390 . S
C363 H328 0.930 . S
C363 C362 1.363 . S
C363 C364 1.372 . S
C364 H329 0.930 . S
C364 C363 1.372 . S
C364 C365 1.383 . S
C365 C364 1.383 . S
C365 C366 1.395 . S
C366 H330 0.930 . S
C366 C365 1.395 . S
C366 C367 1.362 . S
C367 H331 0.930 . S
C367 C362 1.390 . S
C367 C366 1.362 . S
C368 C357 1.492 . S
C368 C369 1.377 . S
C368 C373 1.397 . S
C369 H332 0.931 . S
C369 C368 1.377 . S
C369 C370 1.376 . S
C370 H333 0.930 . S
C370 C369 1.376 . S
C370 C371 1.376 . S
C371 C370 1.376 . S
C371 C372 1.378 . S
C371 C398 1.486 . S
C372 H334 0.930 . S
C372 C371 1.378 . S
C372 C373 1.376 . S
C373 H335 0.929 . S
C373 C368 1.397 . S
C373 C372 1.376 . S
C374 C358 1.509 . S
C374 C375 1.391 . S
C374 C379 1.386 . S
C375 H336 0.930 . S
C375 C374 1.391 . S
C375 C376 1.375 . S
C376 H337 0.931 . S
C376 C375 1.375 . S
C376 C377 1.375 . S
C377 C376 1.375 . S
C377 C378 1.361 . S
C378 H338 0.930 . S
C378 C377 1.361 . S
C378 C379 1.399 . S
C379 H339 0.929 . S
C379 C374 1.386 . S
C379 C378 1.399 . S
C380 C359 1.485 . S
C380 C381 1.394 . S
C380 C385 1.360 . S
C381 H340 0.931 . S
C381 C380 1.394 . S
C381 C382 1.372 . S
C382 H341 0.930 . S
C382 C381 1.372 . S
C382 C383 1.397 . S
C383 C382 1.397 . S
C383 C384 1.390 . S
C383 C399 1.476 . S
C384 H342 0.930 . S
C384 C383 1.390 . S
C384 C385 1.366 . S
C385 H343 0.932 . S
C385 C380 1.360 . S
C385 C384 1.366 . S
C386 C360 1.490 . S
C386 C387 1.380 . S
C386 C391 1.386 . S
C387 H344 0.930 . S
C387 C386 1.380 . S
C387 C388 1.381 . S
C388 H345 0.929 . S
C388 C387 1.381 . S
C388 C389 1.371 . S
C389 C388 1.371 . S
C389 C390 1.380 . S
C390 H346 0.931 . S
C390 C389 1.380 . S
C390 C391 1.387 . S
C391 H347 0.930 . S
C391 C386 1.386 . S
C391 C390 1.387 . S
C392 C361 1.519 . S
C392 C393 1.377 . S
C392 C397 1.361 . S
C393 H348 0.929 . S
C393 C392 1.377 . S
C393 C394 1.386 . S
C394 H349 0.931 . S
C394 C393 1.386 . S
C394 C395 1.363 . S
C395 C394 1.363 . S
C395 C396 1.385 . S
C396 H350 0.930 . S
C396 C395 1.385 . S
C396 C397 1.396 . S
C397 H351 0.929 . S
C397 C392 1.361 . S
C397 C396 1.396 . S
C398 O352 1.300 . S
C398 O353 1.209 . S
C398 C371 1.486 . S
C399 O354 1.199 . S
C399 O355 1.297 . S
C399 C383 1.476 . S
H400 O426 0.856 . S
H401 O429 0.854 . S
H402 C437 0.930 . S
H403 C438 0.930 . S
H404 C440 0.930 . S
H405 C441 0.930 . S
H406 C443 0.931 . S
H407 C444 0.930 . S
H408 C446 0.930 . S
H409 C447 0.929 . S
H410 C449 0.930 . S
H411 C450 0.931 . S
H412 C452 0.930 . S
H413 C453 0.929 . S
H414 C455 0.931 . S
H415 C456 0.930 . S
H416 C458 0.930 . S
H417 C459 0.932 . S
H418 C461 0.930 . S
H419 C462 0.929 . S
H420 C464 0.931 . S
H421 C465 0.930 . S
H422 C467 0.929 . S
H423 C468 0.931 . S
H424 C470 0.930 . S
H425 C471 0.929 . S
O426 H400 0.856 . S
O426 C472 1.300 . S
O427 C472 1.209 . S
O428 C473 1.199 . S
O429 H401 0.854 . S
O429 C473 1.297 . S
C430 C431 1.404 . S
C430 C435 1.397 . S
C430 C436 1.492 . S
C431 C430 1.404 . S
C431 C432 1.396 . S
C431 C442 1.492 . S
C432 C431 1.396 . S
C432 C433 1.397 . S
C432 C448 1.509 . S
C433 C432 1.397 . S
C433 C434 1.412 . S
C433 C454 1.485 . S
C434 C433 1.412 . S
C434 C435 1.388 . S
C434 C460 1.490 . S
C435 C430 1.397 . S
C435 C434 1.388 . S
C435 C466 1.519 . S
C436 C430 1.492 . S
C436 C437 1.363 . S
C436 C441 1.390 . S
C437 H402 0.930 . S
C437 C436 1.363 . S
C437 C438 1.372 . S
C438 H403 0.930 . S
C438 C437 1.372 . S
C438 C439 1.383 . S
C439 C438 1.383 . S
C439 C440 1.395 . S
C440 H404 0.930 . S
C440 C439 1.395 . S
C440 C441 1.362 . S
C441 H405 0.930 . S
C441 C436 1.390 . S
C441 C440 1.362 . S
C442 C431 1.492 . S
C442 C443 1.377 . S
C442 C447 1.397 . S
C443 H406 0.931 . S
C443 C442 1.377 . S
C443 C444 1.376 . S
C444 H407 0.930 . S
C444 C443 1.376 . S
C444 C445 1.376 . S
C445 C444 1.376 . S
C445 C446 1.378 . S
C445 C472 1.486 . S
C446 H408 0.930 . S
C446 C445 1.378 . S
C446 C447 1.376 . S
C447 H409 0.929 . S
C447 C442 1.397 . S
C447 C446 1.376 . S
C448 C432 1.509 . S
C448 C449 1.391 . S
C448 C453 1.386 . S
C449 H410 0.930 . S
C449 C448 1.391 . S
C449 C450 1.375 . S
C450 H411 0.931 . S
C450 C449 1.375 . S
C450 C451 1.375 . S
C451 C450 1.375 . S
C451 C452 1.361 . S
C452 H412 0.930 . S
C452 C451 1.361 . S
C452 C453 1.399 . S
C453 H413 0.929 . S
C453 C448 1.386 . S
C453 C452 1.399 . S
C454 C433 1.485 . S
C454 C455 1.394 . S
C454 C459 1.360 . S
C455 H414 0.931 . S
C455 C454 1.394 . S
C455 C456 1.372 . S
C456 H415 0.930 . S
C456 C455 1.372 . S
C456 C457 1.397 . S
C457 C456 1.397 . S
C457 C458 1.390 . S
C457 C473 1.476 . S
C458 H416 0.930 . S
C458 C457 1.390 . S
C458 C459 1.366 . S
C459 H417 0.932 . S
C459 C454 1.360 . S
C459 C458 1.366 . S
C460 C434 1.490 . S
C460 C461 1.380 . S
C460 C465 1.386 . S
C461 H418 0.930 . S
C461 C460 1.380 . S
C461 C462 1.381 . S
C462 H419 0.929 . S
C462 C461 1.381 . S
C462 C463 1.371 . S
C463 C462 1.371 . S
C463 C464 1.380 . S
C464 H420 0.931 . S
C464 C463 1.380 . S
C464 C465 1.387 . S
C465 H421 0.930 . S
C465 C460 1.386 . S
C465 C464 1.387 . S
C466 C435 1.519 . S
C466 C467 1.377 . S
C466 C471 1.361 . S
C467 H422 0.929 . S
C467 C466 1.377 . S
C467 C468 1.386 . S
C468 H423 0.931 . S
C468 C467 1.386 . S
C468 C469 1.363 . S
C469 C468 1.363 . S
C469 C470 1.385 . S
C470 H424 0.930 . S
C470 C469 1.385 . S
C470 C471 1.396 . S
C471 H425 0.929 . S
C471 C466 1.361 . S
C471 C470 1.396 . S
C472 O426 1.300 . S
C472 O427 1.209 . S
C472 C445 1.486 . S
C473 O428 1.199 . S
C473 O429 1.297 . S
C473 C457 1.476 . S
H474 O500 0.856 . S
H475 O503 0.854 . S
H476 C511 0.930 . S
H477 C512 0.930 . S
H478 C514 0.930 . S
H479 C515 0.930 . S
H480 C517 0.931 . S
H481 C518 0.930 . S
H482 C520 0.930 . S
H483 C521 0.929 . S
H484 C523 0.930 . S
H485 C524 0.931 . S
H486 C526 0.930 . S
H487 C527 0.929 . S
H488 C529 0.931 . S
H489 C530 0.930 . S
H490 C532 0.930 . S
H491 C533 0.932 . S
H492 C535 0.930 . S
H493 C536 0.929 . S
H494 C538 0.931 . S
H495 C539 0.930 . S
H496 C541 0.929 . S
H497 C542 0.931 . S
H498 C544 0.930 . S
H499 C545 0.929 . S
O500 H474 0.856 . S
O500 C546 1.300 1_554 S
O501 C546 1.209 1_554 S
O502 C547 1.199 . S
O503 H475 0.854 . S
O503 C547 1.297 . S
C504 C505 1.404 . S
C504 C509 1.397 . S
C504 C510 1.492 . S
C505 C504 1.404 . S
C505 C506 1.396 . S
C505 C516 1.492 . S
C506 C505 1.396 . S
C506 C507 1.397 . S
C506 C522 1.509 . S
C507 C506 1.397 . S
C507 C508 1.412 . S
C507 C528 1.485 . S
C508 C507 1.412 . S
C508 C509 1.388 . S
C508 C534 1.490 . S
C509 C504 1.397 . S
C509 C508 1.388 . S
C509 C540 1.519 . S
C510 C504 1.492 . S
C510 C511 1.363 . S
C510 C515 1.390 . S
C511 H476 0.930 . S
C511 C510 1.363 . S
C511 C512 1.372 . S
C512 H477 0.930 . S
C512 C511 1.372 . S
C512 C513 1.383 . S
C513 C512 1.383 . S
C513 C514 1.395 . S
C514 H478 0.930 . S
C514 C513 1.395 . S
C514 C515 1.362 . S
C515 H479 0.930 . S
C515 C510 1.390 . S
C515 C514 1.362 . S
C516 C505 1.492 . S
C516 C517 1.377 . S
C516 C521 1.397 . S
C517 H480 0.931 . S
C517 C516 1.377 . S
C517 C518 1.376 . S
C518 H481 0.930 . S
C518 C517 1.376 . S
C518 C519 1.376 . S
C519 C518 1.376 . S
C519 C520 1.378 . S
C519 C546 1.486 . S
C520 H482 0.930 . S
C520 C519 1.378 . S
C520 C521 1.376 . S
C521 H483 0.929 . S
C521 C516 1.397 . S
C521 C520 1.376 . S
C522 C506 1.509 . S
C522 C523 1.391 . S
C522 C527 1.386 . S
C523 H484 0.930 . S
C523 C522 1.391 . S
C523 C524 1.375 . S
C524 H485 0.931 . S
C524 C523 1.375 . S
C524 C525 1.375 . S
C525 C524 1.375 . S
C525 C526 1.361 . S
C526 H486 0.930 . S
C526 C525 1.361 . S
C526 C527 1.399 . S
C527 H487 0.929 . S
C527 C522 1.386 . S
C527 C526 1.399 . S
C528 C507 1.485 . S
C528 C529 1.394 . S
C528 C533 1.360 . S
C529 H488 0.931 . S
C529 C528 1.394 . S
C529 C530 1.372 . S
C530 H489 0.930 . S
C530 C529 1.372 . S
C530 C531 1.397 . S
C531 C530 1.397 . S
C531 C532 1.390 . S
C531 C547 1.476 . S
C532 H490 0.930 . S
C532 C531 1.390 . S
C532 C533 1.366 . S
C533 H491 0.932 . S
C533 C528 1.360 . S
C533 C532 1.366 . S
C534 C508 1.490 . S
C534 C535 1.380 . S
C534 C539 1.386 . S
C535 H492 0.930 . S
C535 C534 1.380 . S
C535 C536 1.381 . S
C536 H493 0.929 . S
C536 C535 1.381 . S
C536 C537 1.371 . S
C537 C536 1.371 . S
C537 C538 1.380 . S
C538 H494 0.931 . S
C538 C537 1.380 . S
C538 C539 1.387 . S
C539 H495 0.930 . S
C539 C534 1.386 . S
C539 C538 1.387 . S
C540 C509 1.519 . S
C540 C541 1.377 . S
C540 C545 1.361 . S
C541 H496 0.929 . S
C541 C540 1.377 . S
C541 C542 1.386 . S
C542 H497 0.931 . S
C542 C541 1.386 . S
C542 C543 1.363 . S
C543 C542 1.363 . S
C543 C544 1.385 . S
C544 H498 0.930 . S
C544 C543 1.385 . S
C544 C545 1.396 . S
C545 H499 0.929 . S
C545 C540 1.361 . S
C545 C544 1.396 . S
C546 O500 1.300 1_556 S
C546 O501 1.209 1_556 S
C546 C519 1.486 . S
C547 O502 1.199 . S
C547 O503 1.297 . S
C547 C531 1.476 . S
H548 O574 0.856 . S
H549 O577 0.854 . S
H550 C585 0.930 . S
H551 C586 0.930 . S
H552 C588 0.930 . S
H553 C589 0.930 . S
H554 C591 0.931 . S
H555 C592 0.930 . S
H556 C594 0.930 . S
H557 C595 0.929 . S
H558 C597 0.930 . S
H559 C598 0.931 . S
H560 C600 0.930 . S
H561 C601 0.929 . S
H562 C603 0.931 . S
H563 C604 0.930 . S
H564 C606 0.930 . S
H565 C607 0.932 . S
H566 C609 0.930 . S
H567 C610 0.929 . S
H568 C612 0.931 . S
H569 C613 0.930 . S
H570 C615 0.929 . S
H571 C616 0.931 . S
H572 C618 0.930 . S
H573 C619 0.929 . S
O574 H548 0.856 . S
O574 C620 1.300 . S
O575 C620 1.209 . S
O576 C621 1.199 . S
O577 H549 0.854 . S
O577 C621 1.297 . S
C578 C579 1.404 . S
C578 C583 1.397 . S
C578 C584 1.492 . S
C579 C578 1.404 . S
C579 C580 1.396 . S
C579 C590 1.492 . S
C580 C579 1.396 . S
C580 C581 1.397 . S
C580 C596 1.509 . S
C581 C580 1.397 . S
C581 C582 1.412 . S
C581 C602 1.485 . S
C582 C581 1.412 . S
C582 C583 1.388 . S
C582 C608 1.490 . S
C583 C578 1.397 . S
C583 C582 1.388 . S
C583 C614 1.519 . S
C584 C578 1.492 . S
C584 C585 1.363 . S
C584 C589 1.390 . S
C585 H550 0.930 . S
C585 C584 1.363 . S
C585 C586 1.372 . S
C586 H551 0.930 . S
C586 C585 1.372 . S
C586 C587 1.383 . S
C587 C586 1.383 . S
C587 C588 1.395 . S
C588 H552 0.930 . S
C588 C587 1.395 . S
C588 C589 1.362 . S
C589 H553 0.930 . S
C589 C584 1.390 . S
C589 C588 1.362 . S
C590 C579 1.492 . S
C590 C591 1.377 . S
C590 C595 1.397 . S
C591 H554 0.931 . S
C591 C590 1.377 . S
C591 C592 1.376 . S
C592 H555 0.930 . S
C592 C591 1.376 . S
C592 C593 1.376 . S
C593 C592 1.376 . S
C593 C594 1.378 . S
C593 C620 1.486 1_556 S
C594 H556 0.930 . S
C594 C593 1.378 . S
C594 C595 1.376 . S
C595 H557 0.929 . S
C595 C590 1.397 . S
C595 C594 1.376 . S
C596 C580 1.509 . S
C596 C597 1.391 . S
C596 C601 1.386 . S
C597 H558 0.930 . S
C597 C596 1.391 . S
C597 C598 1.375 . S
C598 H559 0.931 . S
C598 C597 1.375 . S
C598 C599 1.375 . S
C599 C598 1.375 . S
C599 C600 1.361 . S
C600 H560 0.930 . S
C600 C599 1.361 . S
C600 C601 1.399 . S
C601 H561 0.929 . S
C601 C596 1.386 . S
C601 C600 1.399 . S
C602 C581 1.485 . S
C602 C603 1.394 . S
C602 C607 1.360 . S
C603 H562 0.931 . S
C603 C602 1.394 . S
C603 C604 1.372 . S
C604 H563 0.930 . S
C604 C603 1.372 . S
C604 C605 1.397 . S
C605 C604 1.397 . S
C605 C606 1.390 . S
C605 C621 1.476 . S
C606 H564 0.930 . S
C606 C605 1.390 . S
C606 C607 1.366 . S
C607 H565 0.932 . S
C607 C602 1.360 . S
C607 C606 1.366 . S
C608 C582 1.490 . S
C608 C609 1.380 . S
C608 C613 1.386 . S
C609 H566 0.930 . S
C609 C608 1.380 . S
C609 C610 1.381 . S
C610 H567 0.929 . S
C610 C609 1.381 . S
C610 C611 1.371 . S
C611 C610 1.371 . S
C611 C612 1.380 . S
C612 H568 0.931 . S
C612 C611 1.380 . S
C612 C613 1.387 . S
C613 H569 0.930 . S
C613 C608 1.386 . S
C613 C612 1.387 . S
C614 C583 1.519 . S
C614 C615 1.377 . S
C614 C619 1.361 . S
C615 H570 0.929 . S
C615 C614 1.377 . S
C615 C616 1.386 . S
C616 H571 0.931 . S
C616 C615 1.386 . S
C616 C617 1.363 . S
C617 C616 1.363 . S
C617 C618 1.385 . S
C618 H572 0.930 . S
C618 C617 1.385 . S
C618 C619 1.396 . S
C619 H573 0.929 . S
C619 C614 1.361 . S
C619 C618 1.396 . S
C620 O574 1.300 . S
C620 O575 1.209 . S
C620 C593 1.486 1_554 S
C621 O576 1.199 . S
C621 O577 1.297 . S
C621 C605 1.476 . S
H622 O648 0.856 . S
H623 O651 0.854 . S
H624 C659 0.930 . S
H625 C660 0.930 . S
H626 C662 0.930 . S
H627 C663 0.930 . S
H628 C665 0.931 . S
H629 C666 0.930 1_554 S
H630 C668 0.930 . S
H631 C669 0.929 . S
H632 C671 0.930 . S
H633 C672 0.931 . S
H634 C674 0.930 . S
H635 C675 0.929 . S
H636 C677 0.931 . S
H637 C678 0.930 . S
H638 C680 0.930 . S
H639 C681 0.932 . S
H640 C683 0.930 . S
H641 C684 0.929 . S
H642 C686 0.931 . S
H643 C687 0.930 . S
H644 C689 0.929 . S
H645 C690 0.931 . S
H646 C692 0.930 . S
H647 C693 0.929 . S
O648 H622 0.856 . S
O648 C694 1.300 . S
O649 C694 1.209 . S
O650 C695 1.199 . S
O651 H623 0.854 . S
O651 C695 1.297 . S
C652 C653 1.404 . S
C652 C657 1.397 . S
C652 C658 1.492 . S
C653 C652 1.404 . S
C653 C654 1.396 . S
C653 C664 1.492 . S
C654 C653 1.396 . S
C654 C655 1.397 . S
C654 C670 1.509 . S
C655 C654 1.397 . S
C655 C656 1.412 . S
C655 C676 1.485 . S
C656 C655 1.412 . S
C656 C657 1.388 . S
C656 C682 1.490 . S
C657 C652 1.397 . S
C657 C656 1.388 . S
C657 C688 1.519 . S
C658 C652 1.492 . S
C658 C659 1.363 . S
C658 C663 1.390 . S
C659 H624 0.930 . S
C659 C658 1.363 . S
C659 C660 1.372 . S
C660 H625 0.930 . S
C660 C659 1.372 . S
C660 C661 1.383 . S
C661 C660 1.383 . S
C661 C662 1.395 . S
C662 H626 0.930 . S
C662 C661 1.395 . S
C662 C663 1.362 . S
C663 H627 0.930 . S
C663 C658 1.390 . S
C663 C662 1.362 . S
C664 C653 1.492 . S
C664 C665 1.377 . S
C664 C669 1.397 . S
C665 H628 0.931 . S
C665 C664 1.377 . S
C665 C666 1.376 . S
C666 H629 0.930 1_556 S
C666 C665 1.376 . S
C666 C667 1.376 . S
C667 C666 1.376 . S
C667 C668 1.378 . S
C667 C694 1.486 1_556 S
C668 H630 0.930 . S
C668 C667 1.378 . S
C668 C669 1.376 . S
C669 H631 0.929 . S
C669 C664 1.397 . S
C669 C668 1.376 . S
C670 C654 1.509 . S
C670 C671 1.391 . S
C670 C675 1.386 . S
C671 H632 0.930 . S
C671 C670 1.391 . S
C671 C672 1.375 . S
C672 H633 0.931 . S
C672 C671 1.375 . S
C672 C673 1.375 . S
C673 C672 1.375 . S
C673 C674 1.361 . S
C674 H634 0.930 . S
C674 C673 1.361 . S
C674 C675 1.399 . S
C675 H635 0.929 . S
C675 C670 1.386 . S
C675 C674 1.399 . S
C676 C655 1.485 . S
C676 C677 1.394 . S
C676 C681 1.360 . S
C677 H636 0.931 . S
C677 C676 1.394 . S
C677 C678 1.372 . S
C678 H637 0.930 . S
C678 C677 1.372 . S
C678 C679 1.397 . S
C679 C678 1.397 . S
C679 C680 1.390 . S
C679 C695 1.476 . S
C680 H638 0.930 . S
C680 C679 1.390 . S
C680 C681 1.366 . S
C681 H639 0.932 . S
C681 C676 1.360 . S
C681 C680 1.366 . S
C682 C656 1.490 . S
C682 C683 1.380 . S
C682 C687 1.386 . S
C683 H640 0.930 . S
C683 C682 1.380 . S
C683 C684 1.381 . S
C684 H641 0.929 . S
C684 C683 1.381 . S
C684 C685 1.371 . S
C685 C684 1.371 . S
C685 C686 1.380 . S
C686 H642 0.931 . S
C686 C685 1.380 . S
C686 C687 1.387 . S
C687 H643 0.930 . S
C687 C682 1.386 . S
C687 C686 1.387 . S
C688 C657 1.519 . S
C688 C689 1.377 . S
C688 C693 1.361 . S
C689 H644 0.929 . S
C689 C688 1.377 . S
C689 C690 1.386 . S
C690 H645 0.931 . S
C690 C689 1.386 . S
C690 C691 1.363 . S
C691 C690 1.363 . S
C691 C692 1.385 . S
C692 H646 0.930 . S
C692 C691 1.385 . S
C692 C693 1.396 . S
C693 H647 0.929 . S
C693 C688 1.361 . S
C693 C692 1.396 . S
C694 O648 1.300 . S
C694 O649 1.209 . S
C694 C667 1.486 1_554 S
C695 O650 1.199 . S
C695 O651 1.297 . S
C695 C679 1.476 . S
H696 O722 0.856 . S
H697 O725 0.854 . S
H698 C733 0.930 . S
H699 C734 0.930 . S
H700 C736 0.930 . S
H701 C737 0.930 . S
H702 C739 0.931 . S
H703 C740 0.930 . S
H704 C742 0.930 . S
H705 C743 0.929 . S
H706 C745 0.930 . S
H707 C746 0.931 . S
H708 C748 0.930 . S
H709 C749 0.929 . S
H710 C751 0.931 . S
H711 C752 0.930 . S
H712 C754 0.930 . S
H713 C755 0.932 . S
H714 C757 0.930 . S
H715 C758 0.929 . S
H716 C760 0.931 . S
H717 C761 0.930 . S
H718 C763 0.929 . S
H719 C764 0.931 . S
H720 C766 0.930 . S
H721 C767 0.929 . S
O722 H696 0.856 . S
O722 C768 1.300 . S
O723 C768 1.209 . S
O724 C769 1.199 . S
O725 H697 0.854 . S
O725 C769 1.297 . S
C726 C727 1.404 . S
C726 C731 1.397 . S
C726 C732 1.492 . S
C727 C726 1.404 . S
C727 C728 1.396 . S
C727 C738 1.492 . S
C728 C727 1.396 . S
C728 C729 1.397 . S
C728 C744 1.509 . S
C729 C728 1.397 . S
C729 C730 1.412 . S
C729 C750 1.485 . S
C730 C729 1.412 . S
C730 C731 1.388 . S
C730 C756 1.490 . S
C731 C726 1.397 . S
C731 C730 1.388 . S
C731 C762 1.519 . S
C732 C726 1.492 . S
C732 C733 1.363 . S
C732 C737 1.390 . S
C733 H698 0.930 . S
C733 C732 1.363 . S
C733 C734 1.372 . S
C734 H699 0.930 . S
C734 C733 1.372 . S
C734 C735 1.383 . S
C735 C734 1.383 . S
C735 C736 1.395 . S
C736 H700 0.930 . S
C736 C735 1.395 . S
C736 C737 1.362 . S
C737 H701 0.930 . S
C737 C732 1.390 . S
C737 C736 1.362 . S
C738 C727 1.492 . S
C738 C739 1.377 . S
C738 C743 1.397 . S
C739 H702 0.931 . S
C739 C738 1.377 . S
C739 C740 1.376 . S
C740 H703 0.930 . S
C740 C739 1.376 . S
C740 C741 1.376 . S
C741 C740 1.376 . S
C741 C742 1.378 . S
C741 C768 1.486 . S
C742 H704 0.930 . S
C742 C741 1.378 . S
C742 C743 1.376 . S
C743 H705 0.929 . S
C743 C738 1.397 . S
C743 C742 1.376 . S
C744 C728 1.509 . S
C744 C745 1.391 . S
C744 C749 1.386 . S
C745 H706 0.930 . S
C745 C744 1.391 . S
C745 C746 1.375 . S
C746 H707 0.931 . S
C746 C745 1.375 . S
C746 C747 1.375 . S
C747 C746 1.375 . S
C747 C748 1.361 . S
C748 H708 0.930 . S
C748 C747 1.361 . S
C748 C749 1.399 . S
C749 H709 0.929 . S
C749 C744 1.386 . S
C749 C748 1.399 . S
C750 C729 1.485 . S
C750 C751 1.394 . S
C750 C755 1.360 . S
C751 H710 0.931 . S
C751 C750 1.394 . S
C751 C752 1.372 . S
C752 H711 0.930 . S
C752 C751 1.372 . S
C752 C753 1.397 . S
C753 C752 1.397 . S
C753 C754 1.390 . S
C753 C769 1.476 . S
C754 H712 0.930 . S
C754 C753 1.390 . S
C754 C755 1.366 . S
C755 H713 0.932 . S
C755 C750 1.360 . S
C755 C754 1.366 . S
C756 C730 1.490 . S
C756 C757 1.380 . S
C756 C761 1.386 . S
C757 H714 0.930 . S
C757 C756 1.380 . S
C757 C758 1.381 . S
C758 H715 0.929 . S
C758 C757 1.381 . S
C758 C759 1.371 . S
C759 C758 1.371 . S
C759 C760 1.380 . S
C760 H716 0.931 . S
C760 C759 1.380 . S
C760 C761 1.387 . S
C761 H717 0.930 . S
C761 C756 1.386 . S
C761 C760 1.387 . S
C762 C731 1.519 . S
C762 C763 1.377 . S
C762 C767 1.361 . S
C763 H718 0.929 . S
C763 C762 1.377 . S
C763 C764 1.386 . S
C764 H719 0.931 . S
C764 C763 1.386 . S
C764 C765 1.363 . S
C765 C764 1.363 . S
C765 C766 1.385 . S
C766 H720 0.930 . S
C766 C765 1.385 . S
C766 C767 1.396 . S
C767 H721 0.929 . S
C767 C762 1.361 . S
C767 C766 1.396 . S
C768 O722 1.300 . S
C768 O723 1.209 . S
C768 C741 1.486 . S
C769 O724 1.199 . S
C769 O725 1.297 . S
C769 C753 1.476 . S
H770 O796 0.856 . S
H771 O799 0.854 . S
H772 C807 0.930 . S
H773 C808 0.930 . S
H774 C810 0.930 . S
H775 C811 0.930 . S
H776 C813 0.931 . S
H777 C814 0.930 . S
H778 C816 0.930 . S
H779 C817 0.929 . S
H780 C819 0.930 . S
H781 C820 0.931 . S
H782 C822 0.930 . S
H783 C823 0.929 . S
H784 C825 0.931 . S
H785 C826 0.930 . S
H786 C828 0.930 . S
H787 C829 0.932 . S
H788 C831 0.930 . S
H789 C832 0.929 . S
H790 C834 0.931 . S
H791 C835 0.930 . S
H792 C837 0.929 . S
H793 C838 0.931 . S
H794 C840 0.930 . S
H795 C841 0.929 . S
O796 H770 0.856 . S
O796 C842 1.300 . S
O797 C842 1.209 . S
O798 C843 1.199 . S
O799 H771 0.854 . S
O799 C843 1.297 . S
C800 C801 1.404 . S
C800 C805 1.397 . S
C800 C806 1.492 . S
C801 C800 1.404 . S
C801 C802 1.396 . S
C801 C812 1.492 . S
C802 C801 1.396 . S
C802 C803 1.397 . S
C802 C818 1.509 . S
C803 C802 1.397 . S
C803 C804 1.412 . S
C803 C824 1.485 . S
C804 C803 1.412 . S
C804 C805 1.388 . S
C804 C830 1.490 . S
C805 C800 1.397 . S
C805 C804 1.388 . S
C805 C836 1.519 . S
C806 C800 1.492 . S
C806 C807 1.363 . S
C806 C811 1.390 . S
C807 H772 0.930 . S
C807 C806 1.363 . S
C807 C808 1.372 . S
C808 H773 0.930 . S
C808 C807 1.372 . S
C808 C809 1.383 . S
C809 C808 1.383 . S
C809 C810 1.395 . S
C810 H774 0.930 . S
C810 C809 1.395 . S
C810 C811 1.362 . S
C811 H775 0.930 . S
C811 C806 1.390 . S
C811 C810 1.362 . S
C812 C801 1.492 . S
C812 C813 1.377 . S
C812 C817 1.397 . S
C813 H776 0.931 . S
C813 C812 1.377 . S
C813 C814 1.376 . S
C814 H777 0.930 . S
C814 C813 1.376 . S
C814 C815 1.376 . S
C815 C814 1.376 . S
C815 C816 1.378 . S
C815 C842 1.486 . S
C816 H778 0.930 . S
C816 C815 1.378 . S
C816 C817 1.376 . S
C817 H779 0.929 . S
C817 C812 1.397 . S
C817 C816 1.376 . S
C818 C802 1.509 . S
C818 C819 1.391 . S
C818 C823 1.386 . S
C819 H780 0.930 . S
C819 C818 1.391 . S
C819 C820 1.375 . S
C820 H781 0.931 . S
C820 C819 1.375 . S
C820 C821 1.375 . S
C821 C820 1.375 . S
C821 C822 1.361 . S
C822 H782 0.930 . S
C822 C821 1.361 . S
C822 C823 1.399 . S
C823 H783 0.929 . S
C823 C818 1.386 . S
C823 C822 1.399 . S
C824 C803 1.485 . S
C824 C825 1.394 . S
C824 C829 1.360 . S
C825 H784 0.931 . S
C825 C824 1.394 . S
C825 C826 1.372 . S
C826 H785 0.930 . S
C826 C825 1.372 . S
C826 C827 1.397 . S
C827 C826 1.397 . S
C827 C828 1.390 . S
C827 C843 1.476 . S
C828 H786 0.930 . S
C828 C827 1.390 . S
C828 C829 1.366 . S
C829 H787 0.932 . S
C829 C824 1.360 . S
C829 C828 1.366 . S
C830 C804 1.490 . S
C830 C831 1.380 . S
C830 C835 1.386 . S
C831 H788 0.930 . S
C831 C830 1.380 . S
C831 C832 1.381 . S
C832 H789 0.929 . S
C832 C831 1.381 . S
C832 C833 1.371 . S
C833 C832 1.371 . S
C833 C834 1.380 . S
C834 H790 0.931 . S
C834 C833 1.380 . S
C834 C835 1.387 . S
C835 H791 0.930 . S
C835 C830 1.386 . S
C835 C834 1.387 . S
C836 C805 1.519 . S
C836 C837 1.377 . S
C836 C841 1.361 . S
C837 H792 0.929 . S
C837 C836 1.377 . S
C837 C838 1.386 . S
C838 H793 0.931 . S
C838 C837 1.386 . S
C838 C839 1.363 . S
C839 C838 1.363 . S
C839 C840 1.385 . S
C840 H794 0.930 . S
C840 C839 1.385 . S
C840 C841 1.396 . S
C841 H795 0.929 . S
C841 C836 1.361 . S
C841 C840 1.396 . S
C842 O796 1.300 . S
C842 O797 1.209 . S
C842 C815 1.486 . S
C843 O798 1.199 . S
C843 O799 1.297 . S
C843 C827 1.476 . S
H844 O870 0.856 . S
H845 O873 0.854 . S
H846 C881 0.930 . S
H847 C882 0.930 . S
H848 C884 0.930 . S
H849 C885 0.930 . S
H850 C887 0.931 . S
H851 C888 0.930 . S
H852 C890 0.930 . S
H853 C891 0.929 . S
H854 C893 0.930 . S
H855 C894 0.931 . S
H856 C896 0.930 . S
H857 C897 0.929 . S
H858 C899 0.931 . S
H859 C900 0.930 . S
H860 C902 0.930 . S
H861 C903 0.932 . S
H862 C905 0.930 . S
H863 C906 0.929 . S
H864 C908 0.931 . S
H865 C909 0.930 . S
H866 C911 0.929 . S
H867 C912 0.931 . S
H868 C914 0.930 . S
H869 C915 0.929 . S
O870 H844 0.856 . S
O870 C916 1.300 . S
O871 C916 1.209 . S
O872 C917 1.199 . S
O873 H845 0.854 . S
O873 C917 1.297 . S
C874 C875 1.404 . S
C874 C879 1.397 . S
C874 C880 1.492 . S
C875 C874 1.404 . S
C875 C876 1.396 . S
C875 C886 1.492 . S
C876 C875 1.396 . S
C876 C877 1.397 . S
C876 C892 1.509 . S
C877 C876 1.397 . S
C877 C878 1.412 . S
C877 C898 1.485 . S
C878 C877 1.412 . S
C878 C879 1.388 . S
C878 C904 1.490 . S
C879 C874 1.397 . S
C879 C878 1.388 . S
C879 C910 1.519 . S
C880 C874 1.492 . S
C880 C881 1.363 . S
C880 C885 1.390 . S
C881 H846 0.930 . S
C881 C880 1.363 . S
C881 C882 1.372 . S
C882 H847 0.930 . S
C882 C881 1.372 . S
C882 C883 1.383 . S
C883 C882 1.383 . S
C883 C884 1.395 . S
C884 H848 0.930 . S
C884 C883 1.395 . S
C884 C885 1.362 . S
C885 H849 0.930 . S
C885 C880 1.390 . S
C885 C884 1.362 . S
C886 C875 1.492 . S
C886 C887 1.377 . S
C886 C891 1.397 . S
C887 H850 0.931 . S
C887 C886 1.377 . S
C887 C888 1.376 . S
C888 H851 0.930 . S
C888 C887 1.376 . S
C888 C889 1.376 . S
C889 C888 1.376 . S
C889 C890 1.378 . S
C889 C916 1.486 . S
C890 H852 0.930 . S
C890 C889 1.378 . S
C890 C891 1.376 . S
C891 H853 0.929 . S
C891 C886 1.397 . S
C891 C890 1.376 . S
C892 C876 1.509 . S
C892 C893 1.391 . S
C892 C897 1.386 . S
C893 H854 0.930 . S
C893 C892 1.391 . S
C893 C894 1.375 . S
C894 H855 0.931 . S
C894 C893 1.375 . S
C894 C895 1.375 . S
C895 C894 1.375 . S
C895 C896 1.361 . S
C896 H856 0.930 . S
C896 C895 1.361 . S
C896 C897 1.399 . S
C897 H857 0.929 . S
C897 C892 1.386 . S
C897 C896 1.399 . S
C898 C877 1.485 . S
C898 C899 1.394 . S
C898 C903 1.360 . S
C899 H858 0.931 . S
C899 C898 1.394 . S
C899 C900 1.372 . S
C900 H859 0.930 . S
C900 C899 1.372 . S
C900 C901 1.397 . S
C901 C900 1.397 . S
C901 C902 1.390 . S
C901 C917 1.476 . S
C902 H860 0.930 . S
C902 C901 1.390 . S
C902 C903 1.366 . S
C903 H861 0.932 . S
C903 C898 1.360 . S
C903 C902 1.366 . S
C904 C878 1.490 . S
C904 C905 1.380 . S
C904 C909 1.386 . S
C905 H862 0.930 . S
C905 C904 1.380 . S
C905 C906 1.381 . S
C906 H863 0.929 . S
C906 C905 1.381 . S
C906 C907 1.371 . S
C907 C906 1.371 . S
C907 C908 1.380 . S
C908 H864 0.931 . S
C908 C907 1.380 . S
C908 C909 1.387 . S
C909 H865 0.930 . S
C909 C904 1.386 . S
C909 C908 1.387 . S
C910 C879 1.519 . S
C910 C911 1.377 . S
C910 C915 1.361 . S
C911 H866 0.929 . S
C911 C910 1.377 . S
C911 C912 1.386 . S
C912 H867 0.931 . S
C912 C911 1.386 . S
C912 C913 1.363 . S
C913 C912 1.363 . S
C913 C914 1.385 . S
C914 H868 0.930 . S
C914 C913 1.385 . S
C914 C915 1.396 . S
C915 H869 0.929 . S
C915 C910 1.361 . S
C915 C914 1.396 . S
C916 O870 1.300 . S
C916 O871 1.209 . S
C916 C889 1.486 . S
C917 O872 1.199 . S
C917 O873 1.297 . S
C917 C901 1.476 . S
H918 O944 0.856 . S
H919 O947 0.854 . S
H920 C955 0.930 . S
H921 C956 0.930 . S
H922 C958 0.930 . S
H923 C959 0.930 . S
H924 C961 0.931 . S
H925 C962 0.932 1_655 S
H926 C964 0.930 . S
H927 C965 0.929 . S
H928 C967 0.930 . S
H929 C968 0.932 . S
H930 C970 0.930 . S
H931 C971 0.929 . S
H932 C973 0.931 . S
H933 C974 0.930 . S
H934 C976 0.930 . S
H935 C977 0.932 . S
H936 C979 0.930 . S
H937 C980 0.929 . S
H938 C982 0.931 . S
H939 C983 0.930 . S
H940 C985 0.929 . S
H941 C986 0.931 . S
H942 C988 0.930 . S
H943 C989 0.929 . S
O944 H918 0.856 . S
O944 C990 1.300 . S
O945 C990 1.209 . S
O946 C991 1.199 1_655 S
O947 H919 0.854 . S
O947 C991 1.297 . S
C948 C949 1.404 . S
C948 C953 1.393 . S
C948 C954 1.492 . S
C949 C948 1.404 . S
C949 C950 1.396 . S
C949 C960 1.492 . S
C950 C949 1.396 . S
C950 C951 1.397 . S
C950 C966 1.509 . S
C951 C950 1.397 . S
C951 C952 1.426 . S
C951 C972 1.485 . S
C952 C951 1.426 . S
C952 C953 1.400 . S
C952 C978 1.491 1_455 S
C953 C948 1.393 . S
C953 C952 1.400 . S
C953 C984 1.496 1_455 S
C954 C948 1.492 . S
C954 C955 1.363 1_455 S
C954 C959 1.390 . S
C955 H920 0.930 . S
C955 C954 1.363 1_655 S
C955 C956 1.372 . S
C956 H921 0.930 . S
C956 C955 1.372 . S
C956 C957 1.383 . S
C957 C956 1.383 . S
C957 C958 1.395 1_655 S
C958 H922 0.930 . S
C958 C957 1.395 1_455 S
C958 C959 1.362 . S
C959 H923 0.930 . S
C959 C954 1.390 . S
C959 C958 1.362 . S
C960 C949 1.492 . S
C960 C961 1.377 1_455 S
C960 C965 1.397 . S
C961 H924 0.931 . S
C961 C960 1.377 1_655 S
C961 C962 1.375 1_655 S
C962 H925 0.932 1_455 S
C962 C961 1.375 1_455 S
C962 C963 1.374 . S
C963 C962 1.374 . S
C963 C964 1.378 . S
C963 C990 1.486 . S
C964 H926 0.930 . S
C964 C963 1.378 . S
C964 C965 1.376 . S
C965 H927 0.929 . S
C965 C960 1.397 . S
C965 C964 1.376 . S
C966 C950 1.509 . S
C966 C967 1.391 1_455 S
C966 C971 1.386 . S
C967 H928 0.930 . S
C967 C966 1.391 1_655 S
C967 C968 1.377 . S
C968 H929 0.932 . S
C968 C967 1.377 . S
C968 C969 1.371 1_655 S
C969 C968 1.371 1_455 S
C969 C970 1.361 . S
C970 H930 0.930 . S
C970 C969 1.361 . S
C970 C971 1.399 . S
C971 H931 0.929 . S
C971 C966 1.386 . S
C971 C970 1.399 . S
C972 C951 1.485 . S
C972 C973 1.394 1_455 S
C972 C977 1.360 . S
C973 H932 0.931 . S
C973 C972 1.394 1_655 S
C973 C974 1.372 . S
C974 H933 0.930 . S
C974 C973 1.372 . S
C974 C975 1.397 1_655 S
C975 C974 1.397 1_455 S
C975 C976 1.390 . S
C975 C991 1.476 . S
C976 H934 0.930 . S
C976 C975 1.390 . S
C976 C977 1.366 . S
C977 H935 0.932 . S
C977 C972 1.360 . S
C977 C976 1.366 . S
C978 C952 1.491 1_655 S
C978 C979 1.380 . S
C978 C983 1.386 1_655 S
C979 H936 0.930 . S
C979 C978 1.380 . S
C979 C980 1.381 . S
C980 H937 0.929 . S
C980 C979 1.381 . S
C980 C981 1.371 . S
C981 C980 1.371 . S
C981 C982 1.380 1_655 S
C982 H938 0.931 . S
C982 C981 1.380 1_455 S
C982 C983 1.387 . S
C983 H939 0.930 . S
C983 C978 1.386 1_455 S
C983 C982 1.387 . S
C984 C953 1.496 1_655 S
C984 C985 1.393 . S
C984 C989 1.350 1_655 S
C985 H940 0.929 . S
C985 C984 1.393 . S
C985 C986 1.386 . S
C986 H941 0.931 . S
C986 C985 1.386 . S
C986 C987 1.359 1_655 S
C987 C986 1.359 1_455 S
C987 C988 1.391 . S
C988 H942 0.930 . S
C988 C987 1.391 . S
C988 C989 1.396 . S
C989 H943 0.929 . S
C989 C984 1.350 1_455 S
C989 C988 1.396 . S
C990 O944 1.300 . S
C990 O945 1.209 . S
C990 C963 1.486 . S
C991 O946 1.199 1_455 S
C991 O947 1.297 . S
C991 C975 1.476 . S
H992 O1018 0.856 . S
H993 O1021 0.854 . S
H994 C1029 0.930 . S
H995 C1030 0.930 . S
H996 C1032 0.930 . S
H997 C1033 0.930 . S
H998 C1035 0.931 . S
H999 C1036 0.930 . S
H1000 C1038 0.930 . S
H1001 C1039 0.929 . S
H1002 C1041 0.930 . S
H1003 C1042 0.931 . S
H1004 C1044 0.930 . S
H1005 C1045 0.929 . S
H1006 C1047 0.931 . S
H1007 C1048 0.930 . S
H1008 C1050 0.930 . S
H1009 C1051 0.932 . S
H1010 C1053 0.930 . S
H1011 C1054 0.929 . S
H1012 C1056 0.931 . S
H1013 C1057 0.930 . S
H1014 C1059 0.929 . S
H1015 C1060 0.931 . S
H1016 C1062 0.930 . S
H1017 C1063 0.929 . S
O1018 H992 0.856 . S
O1018 C1064 1.300 . S
O1019 C1064 1.209 . S
O1020 C1065 1.199 . S
O1021 H993 0.854 . S
O1021 C1065 1.297 . S
C1022 C1023 1.404 . S
C1022 C1027 1.397 . S
C1022 C1028 1.492 . S
C1023 C1022 1.404 . S
C1023 C1024 1.396 . S
C1023 C1034 1.492 . S
C1024 C1023 1.396 . S
C1024 C1025 1.397 . S
C1024 C1040 1.509 . S
C1025 C1024 1.397 . S
C1025 C1026 1.412 . S
C1025 C1046 1.485 . S
C1026 C1025 1.412 . S
C1026 C1027 1.388 . S
C1026 C1052 1.490 . S
C1027 C1022 1.397 . S
C1027 C1026 1.388 . S
C1027 C1058 1.519 . S
C1028 C1022 1.492 . S
C1028 C1029 1.363 . S
C1028 C1033 1.390 . S
C1029 H994 0.930 . S
C1029 C1028 1.363 . S
C1029 C1030 1.372 . S
C1030 H995 0.930 . S
C1030 C1029 1.372 . S
C1030 C1031 1.383 . S
C1031 C1030 1.383 . S
C1031 C1032 1.395 . S
C1032 H996 0.930 . S
C1032 C1031 1.395 . S
C1032 C1033 1.362 . S
C1033 H997 0.930 . S
C1033 C1028 1.390 . S
C1033 C1032 1.362 . S
C1034 C1023 1.492 . S
C1034 C1035 1.377 . S
C1034 C1039 1.397 . S
C1035 H998 0.931 . S
C1035 C1034 1.377 . S
C1035 C1036 1.376 . S
C1036 H999 0.930 . S
C1036 C1035 1.376 . S
C1036 C1037 1.376 . S
C1037 C1036 1.376 . S
C1037 C1038 1.378 . S
C1037 C1064 1.486 . S
C1038 H1000 0.930 . S
C1038 C1037 1.378 . S
C1038 C1039 1.376 . S
C1039 H1001 0.929 . S
C1039 C1034 1.397 . S
C1039 C1038 1.376 . S
C1040 C1024 1.509 . S
C1040 C1041 1.391 . S
C1040 C1045 1.386 . S
C1041 H1002 0.930 . S
C1041 C1040 1.391 . S
C1041 C1042 1.375 . S
C1042 H1003 0.931 . S
C1042 C1041 1.375 . S
C1042 C1043 1.375 . S
C1043 C1042 1.375 . S
C1043 C1044 1.361 . S
C1044 H1004 0.930 . S
C1044 C1043 1.361 . S
C1044 C1045 1.399 . S
C1045 H1005 0.929 . S
C1045 C1040 1.386 . S
C1045 C1044 1.399 . S
C1046 C1025 1.485 . S
C1046 C1047 1.394 . S
C1046 C1051 1.360 . S
C1047 H1006 0.931 . S
C1047 C1046 1.394 . S
C1047 C1048 1.372 . S
C1048 H1007 0.930 . S
C1048 C1047 1.372 . S
C1048 C1049 1.397 . S
C1049 C1048 1.397 . S
C1049 C1050 1.390 . S
C1049 C1065 1.476 . S
C1050 H1008 0.930 . S
C1050 C1049 1.390 . S
C1050 C1051 1.366 . S
C1051 H1009 0.932 . S
C1051 C1046 1.360 . S
C1051 C1050 1.366 . S
C1052 C1026 1.490 . S
C1052 C1053 1.380 . S
C1052 C1057 1.386 . S
C1053 H1010 0.930 . S
C1053 C1052 1.380 . S
C1053 C1054 1.381 . S
C1054 H1011 0.929 . S
C1054 C1053 1.381 . S
C1054 C1055 1.371 . S
C1055 C1054 1.371 . S
C1055 C1056 1.380 . S
C1056 H1012 0.931 . S
C1056 C1055 1.380 . S
C1056 C1057 1.387 . S
C1057 H1013 0.930 . S
C1057 C1052 1.386 . S
C1057 C1056 1.387 . S
C1058 C1027 1.519 . S
C1058 C1059 1.377 . S
C1058 C1063 1.361 . S
C1059 H1014 0.929 . S
C1059 C1058 1.377 . S
C1059 C1060 1.386 . S
C1060 H1015 0.931 . S
C1060 C1059 1.386 . S
C1060 C1061 1.363 . S
C1061 C1060 1.363 . S
C1061 C1062 1.385 . S
C1062 H1016 0.930 . S
C1062 C1061 1.385 . S
C1062 C1063 1.396 . S
C1063 H1017 0.929 . S
C1063 C1058 1.361 . S
C1063 C1062 1.396 . S
C1064 O1018 1.300 . S
C1064 O1019 1.209 . S
C1064 C1037 1.486 . S
C1065 O1020 1.199 . S
C1065 O1021 1.297 . S
C1065 C1049 1.476 . S
H1066 O1092 0.856 . S
H1067 O1095 0.854 . S
H1068 C1103 0.930 . S
H1069 C1104 0.930 . S
H1070 C1106 0.930 . S
H1071 C1107 0.930 . S
H1072 C1109 0.931 . S
H1073 C1110 0.932 1_545 S
H1074 C1112 0.930 . S
H1075 C1113 0.929 . S
H1076 C1115 0.930 . S
H1077 C1116 0.941 . S
H1078 C1118 0.930 . S
H1079 C1119 0.929 . S
H1080 C1121 0.931 . S
H1081 C1122 0.930 . S
H1082 C1124 0.930 . S
H1083 C1125 0.932 . S
H1084 C1127 0.930 . S
H1085 C1128 0.929 . S
H1086 C1130 0.931 . S
H1087 C1131 0.930 . S
H1088 C1133 0.929 . S
H1089 C1134 0.931 . S
H1090 C1136 0.930 . S
H1091 C1137 0.929 . S
O1092 H1066 0.856 . S
O1092 C1138 1.300 . S
O1093 C1138 1.209 . S
O1094 C1139 1.199 1_545 S
O1095 H1067 0.854 . S
O1095 C1139 1.297 . S
C1096 C1097 1.404 . S
C1096 C1101 1.415 . S
C1096 C1102 1.492 . S
C1097 C1096 1.404 . S
C1097 C1098 1.396 . S
C1097 C1108 1.492 . S
C1098 C1097 1.396 . S
C1098 C1099 1.397 . S
C1098 C1114 1.509 . S
C1099 C1098 1.397 . S
C1099 C1100 1.408 . S
C1099 C1120 1.485 . S
C1100 C1099 1.408 . S
C1100 C1101 1.375 . S
C1100 C1126 1.481 1_565 S
C1101 C1096 1.415 . S
C1101 C1100 1.375 . S
C1101 C1132 1.538 1_565 S
C1102 C1096 1.492 . S
C1102 C1103 1.363 1_565 S
C1102 C1107 1.390 . S
C1103 H1068 0.930 . S
C1103 C1102 1.363 1_545 S
C1103 C1104 1.372 . S
C1104 H1069 0.930 . S
C1104 C1103 1.372 . S
C1104 C1105 1.383 . S
C1105 C1104 1.383 . S
C1105 C1106 1.395 1_545 S
C1106 H1070 0.930 . S
C1106 C1105 1.395 1_565 S
C1106 C1107 1.362 . S
C1107 H1071 0.930 . S
C1107 C1102 1.390 . S
C1107 C1106 1.362 . S
C1108 C1097 1.492 . S
C1108 C1109 1.377 1_565 S
C1108 C1113 1.397 . S
C1109 H1072 0.931 . S
C1109 C1108 1.377 1_545 S
C1109 C1110 1.377 1_545 S
C1110 H1073 0.932 1_565 S
C1110 C1109 1.377 1_565 S
C1110 C1111 1.372 . S
C1111 C1110 1.372 . S
C1111 C1112 1.378 . S
C1111 C1138 1.486 . S
C1112 H1074 0.930 . S
C1112 C1111 1.378 . S
C1112 C1113 1.376 . S
C1113 H1075 0.929 . S
C1113 C1108 1.397 . S
C1113 C1112 1.376 . S
C1114 C1098 1.509 . S
C1114 C1115 1.391 1_565 S
C1114 C1119 1.386 . S
C1115 H1076 0.930 . S
C1115 C1114 1.391 1_545 S
C1115 C1116 1.373 . S
C1116 H1077 0.941 . S
C1116 C1115 1.373 . S
C1116 C1117 1.367 1_545 S
C1117 C1116 1.367 1_565 S
C1117 C1118 1.361 . S
C1118 H1078 0.930 . S
C1118 C1117 1.361 . S
C1118 C1119 1.399 . S
C1119 H1079 0.929 . S
C1119 C1114 1.386 . S
C1119 C1118 1.399 . S
C1120 C1099 1.485 . S
C1120 C1121 1.394 1_565 S
C1120 C1125 1.360 . S
C1121 H1080 0.931 . S
C1121 C1120 1.394 1_545 S
C1121 C1122 1.372 . S
C1122 H1081 0.930 . S
C1122 C1121 1.372 . S
C1122 C1123 1.397 1_545 S
C1123 C1122 1.397 1_565 S
C1123 C1124 1.390 . S
C1123 C1139 1.476 . S
C1124 H1082 0.930 . S
C1124 C1123 1.390 . S
C1124 C1125 1.366 . S
C1125 H1083 0.932 . S
C1125 C1120 1.360 . S
C1125 C1124 1.366 . S
C1126 C1100 1.481 1_545 S
C1126 C1127 1.380 . S
C1126 C1131 1.386 1_545 S
C1127 H1084 0.930 . S
C1127 C1126 1.380 . S
C1127 C1128 1.381 . S
C1128 H1085 0.929 . S
C1128 C1127 1.381 . S
C1128 C1129 1.371 . S
C1129 C1128 1.371 . S
C1129 C1130 1.380 1_545 S
C1130 H1086 0.931 . S
C1130 C1129 1.380 1_565 S
C1130 C1131 1.387 . S
C1131 H1087 0.930 . S
C1131 C1126 1.386 1_565 S
C1131 C1130 1.387 . S
C1132 C1101 1.538 1_545 S
C1132 C1133 1.383 . S
C1132 C1137 1.350 1_545 S
C1133 H1088 0.929 . S
C1133 C1132 1.383 . S
C1133 C1134 1.386 . S
C1134 H1089 0.931 . S
C1134 C1133 1.386 . S
C1134 C1135 1.356 1_545 S
C1135 C1134 1.356 1_565 S
C1135 C1136 1.389 . S
C1136 H1090 0.930 . S
C1136 C1135 1.389 . S
C1136 C1137 1.396 . S
C1137 H1091 0.929 . S
C1137 C1132 1.350 1_565 S
C1137 C1136 1.396 . S
C1138 O1092 1.300 . S
C1138 O1093 1.209 . S
C1138 C1111 1.486 . S
C1139 O1094 1.199 1_565 S
C1139 O1095 1.297 . S
C1139 C1123 1.476 . S
H1140 O1166 0.856 . S
H1141 O1169 0.854 . S
H1142 C1177 0.930 . S
H1143 C1178 0.930 . S
H1144 C1180 0.930 . S
H1145 C1181 0.930 . S
H1146 C1183 0.931 . S
H1147 C1184 0.930 . S
H1148 C1186 0.930 . S
H1149 C1187 0.929 . S
H1150 C1189 0.930 . S
H1151 C1190 0.931 . S
H1152 C1192 0.930 . S
H1153 C1193 0.929 . S
H1154 C1195 0.931 . S
H1155 C1196 0.930 . S
H1156 C1198 0.930 . S
H1157 C1199 0.932 . S
H1158 C1201 0.930 . S
H1159 C1202 0.929 . S
H1160 C1204 0.931 . S
H1161 C1205 0.930 . S
H1162 C1207 0.929 . S
H1163 C1208 0.931 . S
H1164 C1210 0.930 . S
H1165 C1211 0.929 . S
O1166 H1140 0.856 . S
O1166 C1212 1.300 . S
O1167 C1212 1.209 1_565 S
O1168 C1213 1.199 1_545 S
O1169 H1141 0.854 . S
O1169 C1213 1.297 . S
C1170 C1171 1.404 . S
C1170 C1175 1.397 1_545 S
C1170 C1176 1.492 . S
C1171 C1170 1.404 . S
C1171 C1172 1.425 . S
C1171 C1182 1.492 . S
C1172 C1171 1.425 . S
C1172 C1173 1.384 1_545 S
C1172 C1188 1.503 . S
C1173 C1172 1.384 1_565 S
C1173 C1174 1.415 . S
C1173 C1194 1.490 . S
C1174 C1173 1.415 . S
C1174 C1175 1.378 . S
C1174 C1200 1.493 . S
C1175 C1170 1.397 1_565 S
C1175 C1174 1.378 . S
C1175 C1206 1.519 . S
C1176 C1170 1.492 . S
C1176 C1177 1.363 . S
C1176 C1181 1.390 1_545 S
C1177 H1142 0.930 . S
C1177 C1176 1.363 . S
C1177 C1178 1.372 . S
C1178 H1143 0.930 . S
C1178 C1177 1.372 . S
C1178 C1179 1.383 . S
C1179 C1178 1.383 . S
C1179 C1180 1.395 1_545 S
C1180 H1144 0.930 . S
C1180 C1179 1.395 1_565 S
C1180 C1181 1.362 . S
C1181 H1145 0.930 . S
C1181 C1176 1.390 1_565 S
C1181 C1180 1.362 . S
C1182 C1171 1.492 . S
C1182 C1183 1.377 . S
C1182 C1187 1.397 1_545 S
C1183 H1146 0.931 . S
C1183 C1182 1.377 . S
C1183 C1184 1.376 . S
C1184 H1147 0.930 . S
C1184 C1183 1.376 . S
C1184 C1185 1.376 . S
C1185 C1184 1.376 . S
C1185 C1186 1.378 1_545 S
C1185 C1212 1.486 . S
C1186 H1148 0.930 . S
C1186 C1185 1.378 1_565 S
C1186 C1187 1.376 . S
C1187 H1149 0.929 . S
C1187 C1182 1.397 1_565 S
C1187 C1186 1.376 . S
C1188 C1172 1.503 . S
C1188 C1189 1.406 . S
C1188 C1193 1.362 1_545 S
C1189 H1150 0.930 . S
C1189 C1188 1.406 . S
C1189 C1190 1.375 . S
C1190 H1151 0.931 . S
C1190 C1189 1.375 . S
C1190 C1191 1.381 1_545 S
C1191 C1190 1.381 1_565 S
C1191 C1192 1.358 . S
C1192 H1152 0.930 . S
C1192 C1191 1.358 . S
C1192 C1193 1.399 . S
C1193 H1153 0.929 . S
C1193 C1188 1.362 1_565 S
C1193 C1192 1.399 . S
C1194 C1173 1.490 . S
C1194 C1195 1.394 1_565 S
C1194 C1199 1.360 . S
C1195 H1154 0.931 . S
C1195 C1194 1.394 1_545 S
C1195 C1196 1.372 . S
C1196 H1155 0.930 . S
C1196 C1195 1.372 . S
C1196 C1197 1.397 1_545 S
C1197 C1196 1.397 1_565 S
C1197 C1198 1.390 . S
C1197 C1213 1.476 . S
C1198 H1156 0.930 . S
C1198 C1197 1.390 . S
C1198 C1199 1.366 . S
C1199 H1157 0.932 . S
C1199 C1194 1.360 . S
C1199 C1198 1.366 . S
C1200 C1174 1.493 . S
C1200 C1201 1.377 1_565 S
C1200 C1205 1.390 . S
C1201 H1158 0.930 . S
C1201 C1200 1.377 1_545 S
C1201 C1202 1.381 . S
C1202 H1159 0.929 . S
C1202 C1201 1.381 . S
C1202 C1203 1.371 . S
C1203 C1202 1.371 . S
C1203 C1204 1.380 1_545 S
C1204 H1160 0.931 . S
C1204 C1203 1.380 1_565 S
C1204 C1205 1.387 . S
C1205 H1161 0.930 . S
C1205 C1200 1.390 . S
C1205 C1204 1.387 . S
C1206 C1175 1.519 . S
C1206 C1207 1.377 1_565 S
C1206 C1211 1.361 . S
C1207 H1162 0.929 . S
C1207 C1206 1.377 1_545 S
C1207 C1208 1.386 . S
C1208 H1163 0.931 . S
C1208 C1207 1.386 . S
C1208 C1209 1.363 1_545 S
C1209 C1208 1.363 1_565 S
C1209 C1210 1.385 . S
C1210 H1164 0.930 . S
C1210 C1209 1.385 . S
C1210 C1211 1.396 . S
C1211 H1165 0.929 . S
C1211 C1206 1.361 . S
C1211 C1210 1.396 . S
C1212 O1166 1.300 . S
C1212 O1167 1.209 1_545 S
C1212 C1185 1.486 . S
C1213 O1168 1.199 1_565 S
C1213 O1169 1.297 . S
C1213 C1197 1.476 . S
H1214 O1240 0.856 . S
H1215 O1243 0.854 . S
H1216 C1251 0.930 . S
H1217 C1252 0.930 . S
H1218 C1254 0.930 . S
H1219 C1255 0.930 . S
H1220 C1257 0.931 . S
H1221 C1258 0.930 . S
H1222 C1260 0.930 . S
H1223 C1261 0.929 . S
H1224 C1263 0.930 . S
H1225 C1264 0.931 . S
H1226 C1266 0.930 . S
H1227 C1267 0.929 . S
H1228 C1269 0.931 . S
H1229 C1270 0.930 . S
H1230 C1272 0.930 . S
H1231 C1273 0.932 . S
H1232 C1275 0.930 . S
H1233 C1276 0.929 . S
H1234 C1278 0.931 . S
H1235 C1279 0.930 . S
H1236 C1281 0.929 . S
H1237 C1282 0.931 . S
H1238 C1284 0.930 . S
H1239 C1285 0.929 . S
O1240 H1214 0.856 . S
O1240 C1286 1.300 . S
O1241 C1286 1.209 1_455 S
O1242 C1287 1.199 1_655 S
O1243 H1215 0.854 . S
O1243 C1287 1.297 . S
C1244 C1245 1.404 . S
C1244 C1249 1.396 1_655 S
C1244 C1250 1.492 . S
C1245 C1244 1.404 . S
C1245 C1246 1.396 . S
C1245 C1256 1.492 . S
C1246 C1245 1.396 . S
C1246 C1247 1.397 . S
C1246 C1262 1.509 . S
C1247 C1246 1.397 . S
C1247 C1248 1.398 1_655 S
C1247 C1268 1.487 1_655 S
C1248 C1247 1.398 1_455 S
C1248 C1249 1.412 . S
C1248 C1274 1.485 . S
C1249 C1244 1.396 1_455 S
C1249 C1248 1.412 . S
C1249 C1280 1.515 . S
C1250 C1244 1.492 . S
C1250 C1251 1.363 . S
C1250 C1255 1.390 1_655 S
C1251 H1216 0.930 . S
C1251 C1250 1.363 . S
C1251 C1252 1.372 . S
C1252 H1217 0.930 . S
C1252 C1251 1.372 . S
C1252 C1253 1.383 . S
C1253 C1252 1.383 . S
C1253 C1254 1.395 1_655 S
C1254 H1218 0.930 . S
C1254 C1253 1.395 1_455 S
C1254 C1255 1.362 . S
C1255 H1219 0.930 . S
C1255 C1250 1.390 1_455 S
C1255 C1254 1.362 . S
C1256 C1245 1.492 . S
C1256 C1257 1.377 . S
C1256 C1261 1.397 1_655 S
C1257 H1220 0.931 . S
C1257 C1256 1.377 . S
C1257 C1258 1.376 . S
C1258 H1221 0.930 . S
C1258 C1257 1.376 . S
C1258 C1259 1.376 . S
C1259 C1258 1.376 . S
C1259 C1260 1.378 1_655 S
C1259 C1286 1.486 . S
C1260 H1222 0.930 . S
C1260 C1259 1.378 1_455 S
C1260 C1261 1.376 . S
C1261 H1223 0.929 . S
C1261 C1256 1.397 1_455 S
C1261 C1260 1.376 . S
C1262 C1246 1.509 . S
C1262 C1263 1.391 . S
C1262 C1267 1.386 1_655 S
C1263 H1224 0.930 . S
C1263 C1262 1.391 . S
C1263 C1264 1.375 . S
C1264 H1225 0.931 . S
C1264 C1263 1.375 . S
C1264 C1265 1.375 . S
C1265 C1264 1.375 . S
C1265 C1266 1.361 1_655 S
C1266 H1226 0.930 . S
C1266 C1265 1.361 1_455 S
C1266 C1267 1.399 . S
C1267 H1227 0.929 . S
C1267 C1262 1.386 1_455 S
C1267 C1266 1.399 . S
C1268 C1247 1.487 1_455 S
C1268 C1269 1.394 1_455 S
C1268 C1273 1.360 . S
C1269 H1228 0.931 . S
C1269 C1268 1.394 1_655 S
C1269 C1270 1.372 . S
C1270 H1229 0.930 . S
C1270 C1269 1.372 . S
C1270 C1271 1.397 1_655 S
C1271 C1270 1.397 1_455 S
C1271 C1272 1.390 . S
C1271 C1287 1.476 . S
C1272 H1230 0.930 . S
C1272 C1271 1.390 . S
C1272 C1273 1.366 . S
C1273 H1231 0.932 . S
C1273 C1268 1.360 . S
C1273 C1272 1.366 . S
C1274 C1248 1.485 . S
C1274 C1275 1.380 1_455 S
C1274 C1279 1.386 . S
C1275 H1232 0.930 . S
C1275 C1274 1.380 1_655 S
C1275 C1276 1.381 . S
C1276 H1233 0.929 . S
C1276 C1275 1.381 . S
C1276 C1277 1.371 1_655 S
C1277 C1276 1.371 1_455 S
C1277 C1278 1.380 . S
C1278 H1234 0.931 . S
C1278 C1277 1.380 . S
C1278 C1279 1.387 . S
C1279 H1235 0.930 . S
C1279 C1274 1.386 . S
C1279 C1278 1.387 . S
C1280 C1249 1.515 . S
C1280 C1281 1.377 1_455 S
C1280 C1285 1.361 . S
C1281 H1236 0.929 . S
C1281 C1280 1.377 1_655 S
C1281 C1282 1.386 . S
C1282 H1237 0.931 . S
C1282 C1281 1.386 . S
C1282 C1283 1.363 1_655 S
C1283 C1282 1.363 1_455 S
C1283 C1284 1.385 . S
C1284 H1238 0.930 . S
C1284 C1283 1.385 . S
C1284 C1285 1.396 . S
C1285 H1239 0.929 . S
C1285 C1280 1.361 . S
C1285 C1284 1.396 . S
C1286 O1240 1.300 . S
C1286 O1241 1.209 1_655 S
C1286 C1259 1.486 . S
C1287 O1242 1.199 1_455 S
C1287 O1243 1.297 . S
C1287 C1271 1.476 . S
H1288 O1314 0.856 . S
H1289 O1317 0.854 . S
H1290 C1325 0.930 . S
H1291 C1326 0.930 . S
H1292 C1328 0.930 . S
H1293 C1329 0.930 . S
H1294 C1331 0.931 . S
H1295 C1332 0.930 . S
H1296 C1334 0.930 . S
H1297 C1335 0.929 . S
H1298 C1337 0.930 . S
H1299 C1338 0.931 . S
H1300 C1340 0.930 . S
H1301 C1341 0.929 . S
H1302 C1343 0.931 . S
H1303 C1344 0.930 . S
H1304 C1346 0.930 . S
H1305 C1347 0.932 . S
H1306 C1349 0.930 . S
H1307 C1350 0.929 . S
H1308 C1352 0.931 . S
H1309 C1353 0.930 . S
H1310 C1355 0.929 . S
H1311 C1356 0.931 . S
H1312 C1358 0.930 . S
H1313 C1359 0.929 . S
O1314 H1288 0.856 . S
O1314 C1360 1.300 . S
O1315 C1360 1.209 . S
O1316 C1361 1.199 . S
O1317 H1289 0.854 . S
O1317 C1361 1.297 . S
C1318 C1319 1.404 . S
C1318 C1323 1.397 . S
C1318 C1324 1.492 . S
C1319 C1318 1.404 . S
C1319 C1320 1.396 . S
C1319 C1330 1.492 . S
C1320 C1319 1.396 . S
C1320 C1321 1.397 . S
C1320 C1336 1.509 . S
C1321 C1320 1.397 . S
C1321 C1322 1.412 . S
C1321 C1342 1.485 . S
C1322 C1321 1.412 . S
C1322 C1323 1.388 . S
C1322 C1348 1.490 . S
C1323 C1318 1.397 . S
C1323 C1322 1.388 . S
C1323 C1354 1.519 . S
C1324 C1318 1.492 . S
C1324 C1325 1.363 . S
C1324 C1329 1.390 . S
C1325 H1290 0.930 . S
C1325 C1324 1.363 . S
C1325 C1326 1.372 . S
C1326 H1291 0.930 . S
C1326 C1325 1.372 . S
C1326 C1327 1.383 . S
C1327 C1326 1.383 . S
C1327 C1328 1.395 . S
C1328 H1292 0.930 . S
C1328 C1327 1.395 . S
C1328 C1329 1.362 . S
C1329 H1293 0.930 . S
C1329 C1324 1.390 . S
C1329 C1328 1.362 . S
C1330 C1319 1.492 . S
C1330 C1331 1.377 . S
C1330 C1335 1.397 . S
C1331 H1294 0.931 . S
C1331 C1330 1.377 . S
C1331 C1332 1.376 . S
C1332 H1295 0.930 . S
C1332 C1331 1.376 . S
C1332 C1333 1.376 . S
C1333 C1332 1.376 . S
C1333 C1334 1.378 . S
C1333 C1360 1.486 . S
C1334 H1296 0.930 . S
C1334 C1333 1.378 . S
C1334 C1335 1.376 . S
C1335 H1297 0.929 . S
C1335 C1330 1.397 . S
C1335 C1334 1.376 . S
C1336 C1320 1.509 . S
C1336 C1337 1.391 . S
C1336 C1341 1.386 . S
C1337 H1298 0.930 . S
C1337 C1336 1.391 . S
C1337 C1338 1.375 . S
C1338 H1299 0.931 . S
C1338 C1337 1.375 . S
C1338 C1339 1.375 . S
C1339 C1338 1.375 . S
C1339 C1340 1.361 . S
C1340 H1300 0.930 . S
C1340 C1339 1.361 . S
C1340 C1341 1.399 . S
C1341 H1301 0.929 . S
C1341 C1336 1.386 . S
C1341 C1340 1.399 . S
C1342 C1321 1.485 . S
C1342 C1343 1.394 . S
C1342 C1347 1.360 . S
C1343 H1302 0.931 . S
C1343 C1342 1.394 . S
C1343 C1344 1.372 . S
C1344 H1303 0.930 . S
C1344 C1343 1.372 . S
C1344 C1345 1.397 . S
C1345 C1344 1.397 . S
C1345 C1346 1.390 . S
C1345 C1361 1.476 . S
C1346 H1304 0.930 . S
C1346 C1345 1.390 . S
C1346 C1347 1.366 . S
C1347 H1305 0.932 . S
C1347 C1342 1.360 . S
C1347 C1346 1.366 . S
C1348 C1322 1.490 . S
C1348 C1349 1.380 . S
C1348 C1353 1.386 . S
C1349 H1306 0.930 . S
C1349 C1348 1.380 . S
C1349 C1350 1.381 . S
C1350 H1307 0.929 . S
C1350 C1349 1.381 . S
C1350 C1351 1.371 . S
C1351 C1350 1.371 . S
C1351 C1352 1.380 . S
C1352 H1308 0.931 . S
C1352 C1351 1.380 . S
C1352 C1353 1.387 . S
C1353 H1309 0.930 . S
C1353 C1348 1.386 . S
C1353 C1352 1.387 . S
C1354 C1323 1.519 . S
C1354 C1355 1.377 . S
C1354 C1359 1.361 . S
C1355 H1310 0.929 . S
C1355 C1354 1.377 . S
C1355 C1356 1.386 . S
C1356 H1311 0.931 . S
C1356 C1355 1.386 . S
C1356 C1357 1.363 . S
C1357 C1356 1.363 . S
C1357 C1358 1.385 . S
C1358 H1312 0.930 . S
C1358 C1357 1.385 . S
C1358 C1359 1.396 . S
C1359 H1313 0.929 . S
C1359 C1354 1.361 . S
C1359 C1358 1.396 . S
C1360 O1314 1.300 . S
C1360 O1315 1.209 . S
C1360 C1333 1.486 . S
C1361 O1316 1.199 . S
C1361 O1317 1.297 . S
C1361 C1345 1.476 . S
H1362 O1388 0.856 . S
H1363 O1391 0.854 . S
H1364 C1399 0.930 . S
H1365 C1400 0.930 . S
H1366 C1402 0.930 . S
H1367 C1403 0.930 . S
H1368 C1405 0.931 . S
H1369 C1406 0.930 . S
H1370 C1408 0.930 . S
H1371 C1409 0.929 . S
H1372 C1411 0.930 . S
H1373 C1412 0.931 . S
H1374 C1414 0.930 . S
H1375 C1415 0.929 . S
H1376 C1417 0.931 . S
H1377 C1418 0.930 . S
H1378 C1420 0.930 . S
H1379 C1421 0.932 . S
H1380 C1423 0.930 . S
H1381 C1424 0.929 . S
H1382 C1426 0.931 . S
H1383 C1427 0.930 . S
H1384 C1429 0.929 . S
H1385 C1430 0.931 . S
H1386 C1432 0.930 . S
H1387 C1433 0.929 . S
O1388 H1362 0.856 . S
O1388 C1434 1.300 . S
O1389 C1434 1.209 . S
O1390 C1435 1.199 . S
O1391 H1363 0.854 . S
O1391 C1435 1.297 . S
C1392 C1393 1.404 . S
C1392 C1397 1.397 . S
C1392 C1398 1.492 . S
C1393 C1392 1.404 . S
C1393 C1394 1.396 . S
C1393 C1404 1.492 . S
C1394 C1393 1.396 . S
C1394 C1395 1.397 . S
C1394 C1410 1.509 . S
C1395 C1394 1.397 . S
C1395 C1396 1.412 . S
C1395 C1416 1.485 . S
C1396 C1395 1.412 . S
C1396 C1397 1.388 . S
C1396 C1422 1.490 . S
C1397 C1392 1.397 . S
C1397 C1396 1.388 . S
C1397 C1428 1.519 . S
C1398 C1392 1.492 . S
C1398 C1399 1.363 . S
C1398 C1403 1.390 . S
C1399 H1364 0.930 . S
C1399 C1398 1.363 . S
C1399 C1400 1.372 . S
C1400 H1365 0.930 . S
C1400 C1399 1.372 . S
C1400 C1401 1.383 . S
C1401 C1400 1.383 . S
C1401 C1402 1.395 . S
C1402 H1366 0.930 . S
C1402 C1401 1.395 . S
C1402 C1403 1.362 . S
C1403 H1367 0.930 . S
C1403 C1398 1.390 . S
C1403 C1402 1.362 . S
C1404 C1393 1.492 . S
C1404 C1405 1.377 . S
C1404 C1409 1.397 . S
C1405 H1368 0.931 . S
C1405 C1404 1.377 . S
C1405 C1406 1.376 . S
C1406 H1369 0.930 . S
C1406 C1405 1.376 . S
C1406 C1407 1.376 . S
C1407 C1406 1.376 . S
C1407 C1408 1.378 . S
C1407 C1434 1.486 . S
C1408 H1370 0.930 . S
C1408 C1407 1.378 . S
C1408 C1409 1.376 . S
C1409 H1371 0.929 . S
C1409 C1404 1.397 . S
C1409 C1408 1.376 . S
C1410 C1394 1.509 . S
C1410 C1411 1.391 . S
C1410 C1415 1.386 . S
C1411 H1372 0.930 . S
C1411 C1410 1.391 . S
C1411 C1412 1.375 . S
C1412 H1373 0.931 . S
C1412 C1411 1.375 . S
C1412 C1413 1.375 . S
C1413 C1412 1.375 . S
C1413 C1414 1.361 . S
C1414 H1374 0.930 . S
C1414 C1413 1.361 . S
C1414 C1415 1.399 . S
C1415 H1375 0.929 . S
C1415 C1410 1.386 . S
C1415 C1414 1.399 . S
C1416 C1395 1.485 . S
C1416 C1417 1.394 . S
C1416 C1421 1.360 . S
C1417 H1376 0.931 . S
C1417 C1416 1.394 . S
C1417 C1418 1.372 . S
C1418 H1377 0.930 . S
C1418 C1417 1.372 . S
C1418 C1419 1.397 . S
C1419 C1418 1.397 . S
C1419 C1420 1.390 . S
C1419 C1435 1.476 . S
C1420 H1378 0.930 . S
C1420 C1419 1.390 . S
C1420 C1421 1.366 . S
C1421 H1379 0.932 . S
C1421 C1416 1.360 . S
C1421 C1420 1.366 . S
C1422 C1396 1.490 . S
C1422 C1423 1.380 . S
C1422 C1427 1.386 . S
C1423 H1380 0.930 . S
C1423 C1422 1.380 . S
C1423 C1424 1.381 . S
C1424 H1381 0.929 . S
C1424 C1423 1.381 . S
C1424 C1425 1.371 . S
C1425 C1424 1.371 . S
C1425 C1426 1.380 . S
C1426 H1382 0.931 . S
C1426 C1425 1.380 . S
C1426 C1427 1.387 . S
C1427 H1383 0.930 . S
C1427 C1422 1.386 . S
C1427 C1426 1.387 . S
C1428 C1397 1.519 . S
C1428 C1429 1.377 . S
C1428 C1433 1.361 . S
C1429 H1384 0.929 . S
C1429 C1428 1.377 . S
C1429 C1430 1.386 . S
C1430 H1385 0.931 . S
C1430 C1429 1.386 . S
C1430 C1431 1.363 . S
C1431 C1430 1.363 . S
C1431 C1432 1.385 . S
C1432 H1386 0.930 . S
C1432 C1431 1.385 . S
C1432 C1433 1.396 . S
C1433 H1387 0.929 . S
C1433 C1428 1.361 . S
C1433 C1432 1.396 . S
C1434 O1388 1.300 . S
C1434 O1389 1.209 . S
C1434 C1407 1.486 . S
C1435 O1390 1.199 . S
C1435 O1391 1.297 . S
C1435 C1419 1.476 . S
H1436 O1462 0.856 . S
H1437 O1465 0.854 . S
H1438 C1473 0.930 . S
H1439 C1474 0.930 . S
H1440 C1476 0.930 . S
H1441 C1477 0.930 . S
H1442 C1479 0.931 . S
H1443 C1480 0.930 . S
H1444 C1482 0.930 . S
H1445 C1483 0.929 . S
H1446 C1485 0.930 . S
H1447 C1486 0.931 . S
H1448 C1488 0.930 . S
H1449 C1489 0.929 . S
H1450 C1491 0.931 . S
H1451 C1492 0.930 . S
H1452 C1494 0.930 . S
H1453 C1495 0.932 . S
H1454 C1497 0.930 . S
H1455 C1498 0.929 . S
H1456 C1500 0.931 . S
H1457 C1501 0.930 . S
H1458 C1503 0.929 . S
H1459 C1504 0.931 . S
H1460 C1506 0.930 . S
H1461 C1507 0.929 . S
O1462 H1436 0.856 . S
O1462 C1508 1.300 . S
O1463 C1508 1.209 . S
O1464 C1509 1.199 . S
O1465 H1437 0.854 . S
O1465 C1509 1.297 . S
C1466 C1467 1.404 . S
C1466 C1471 1.397 . S
C1466 C1472 1.492 . S
C1467 C1466 1.404 . S
C1467 C1468 1.396 . S
C1467 C1478 1.492 . S
C1468 C1467 1.396 . S
C1468 C1469 1.397 . S
C1468 C1484 1.509 . S
C1469 C1468 1.397 . S
C1469 C1470 1.412 . S
C1469 C1490 1.485 . S
C1470 C1469 1.412 . S
C1470 C1471 1.388 . S
C1470 C1496 1.490 . S
C1471 C1466 1.397 . S
C1471 C1470 1.388 . S
C1471 C1502 1.519 . S
C1472 C1466 1.492 . S
C1472 C1473 1.363 . S
C1472 C1477 1.390 . S
C1473 H1438 0.930 . S
C1473 C1472 1.363 . S
C1473 C1474 1.372 . S
C1474 H1439 0.930 . S
C1474 C1473 1.372 . S
C1474 C1475 1.383 . S
C1475 C1474 1.383 . S
C1475 C1476 1.395 . S
C1476 H1440 0.930 . S
C1476 C1475 1.395 . S
C1476 C1477 1.362 . S
C1477 H1441 0.930 . S
C1477 C1472 1.390 . S
C1477 C1476 1.362 . S
C1478 C1467 1.492 . S
C1478 C1479 1.377 . S
C1478 C1483 1.397 . S
C1479 H1442 0.931 . S
C1479 C1478 1.377 . S
C1479 C1480 1.376 . S
C1480 H1443 0.930 . S
C1480 C1479 1.376 . S
C1480 C1481 1.376 . S
C1481 C1480 1.376 . S
C1481 C1482 1.378 . S
C1481 C1508 1.486 . S
C1482 H1444 0.930 . S
C1482 C1481 1.378 . S
C1482 C1483 1.376 . S
C1483 H1445 0.929 . S
C1483 C1478 1.397 . S
C1483 C1482 1.376 . S
C1484 C1468 1.509 . S
C1484 C1485 1.391 . S
C1484 C1489 1.386 . S
C1485 H1446 0.930 . S
C1485 C1484 1.391 . S
C1485 C1486 1.375 . S
C1486 H1447 0.931 . S
C1486 C1485 1.375 . S
C1486 C1487 1.375 . S
C1487 C1486 1.375 . S
C1487 C1488 1.361 . S
C1488 H1448 0.930 . S
C1488 C1487 1.361 . S
C1488 C1489 1.399 . S
C1489 H1449 0.929 . S
C1489 C1484 1.386 . S
C1489 C1488 1.399 . S
C1490 C1469 1.485 . S
C1490 C1491 1.394 . S
C1490 C1495 1.360 . S
C1491 H1450 0.931 . S
C1491 C1490 1.394 . S
C1491 C1492 1.372 . S
C1492 H1451 0.930 . S
C1492 C1491 1.372 . S
C1492 C1493 1.397 . S
C1493 C1492 1.397 . S
C1493 C1494 1.390 . S
C1493 C1509 1.476 . S
C1494 H1452 0.930 . S
C1494 C1493 1.390 . S
C1494 C1495 1.366 . S
C1495 H1453 0.932 . S
C1495 C1490 1.360 . S
C1495 C1494 1.366 . S
C1496 C1470 1.490 . S
C1496 C1497 1.380 . S
C1496 C1501 1.386 . S
C1497 H1454 0.930 . S
C1497 C1496 1.380 . S
C1497 C1498 1.381 . S
C1498 H1455 0.929 . S
C1498 C1497 1.381 . S
C1498 C1499 1.371 . S
C1499 C1498 1.371 . S
C1499 C1500 1.380 . S
C1500 H1456 0.931 . S
C1500 C1499 1.380 . S
C1500 C1501 1.387 . S
C1501 H1457 0.930 . S
C1501 C1496 1.386 . S
C1501 C1500 1.387 . S
C1502 C1471 1.519 . S
C1502 C1503 1.377 . S
C1502 C1507 1.361 . S
C1503 H1458 0.929 . S
C1503 C1502 1.377 . S
C1503 C1504 1.386 . S
C1504 H1459 0.931 . S
C1504 C1503 1.386 . S
C1504 C1505 1.363 . S
C1505 C1504 1.363 . S
C1505 C1506 1.385 . S
C1506 H1460 0.930 . S
C1506 C1505 1.385 . S
C1506 C1507 1.396 . S
C1507 H1461 0.929 . S
C1507 C1502 1.361 . S
C1507 C1506 1.396 . S
C1508 O1462 1.300 . S
C1508 O1463 1.209 . S
C1508 C1481 1.486 . S
C1509 O1464 1.199 . S
C1509 O1465 1.297 . S
C1509 C1493 1.476 . S
H1510 O1536 0.856 . S
H1511 O1539 0.854 . S
H1512 C1547 0.930 . S
H1513 C1548 0.930 . S
H1514 C1550 0.930 . S
H1515 C1551 0.930 . S
H1516 C1553 0.931 . S
H1517 C1554 0.930 . S
H1518 C1556 0.930 . S
H1519 C1557 0.929 . S
H1520 C1559 0.930 . S
H1521 C1560 0.931 . S
H1522 C1562 0.930 . S
H1523 C1563 0.929 . S
H1524 C1565 0.931 . S
H1525 C1566 0.930 . S
H1526 C1568 0.930 . S
H1527 C1569 0.932 . S
H1528 C1571 0.930 . S
H1529 C1572 0.929 . S
H1530 C1574 0.931 . S
H1531 C1575 0.930 . S
H1532 C1577 0.929 . S
H1533 C1578 0.931 . S
H1534 C1580 0.930 . S
H1535 C1581 0.929 . S
O1536 H1510 0.856 . S
O1536 C1582 1.300 . S
O1537 C1582 1.209 . S
O1538 C1583 1.199 . S
O1539 H1511 0.854 . S
O1539 C1583 1.297 . S
C1540 C1541 1.404 . S
C1540 C1545 1.397 . S
C1540 C1546 1.492 . S
C1541 C1540 1.404 . S
C1541 C1542 1.396 . S
C1541 C1552 1.492 . S
C1542 C1541 1.396 . S
C1542 C1543 1.397 . S
C1542 C1558 1.509 . S
C1543 C1542 1.397 . S
C1543 C1544 1.412 . S
C1543 C1564 1.485 . S
C1544 C1543 1.412 . S
C1544 C1545 1.388 . S
C1544 C1570 1.490 . S
C1545 C1540 1.397 . S
C1545 C1544 1.388 . S
C1545 C1576 1.519 . S
C1546 C1540 1.492 . S
C1546 C1547 1.363 . S
C1546 C1551 1.390 . S
C1547 H1512 0.930 . S
C1547 C1546 1.363 . S
C1547 C1548 1.372 . S
C1548 H1513 0.930 . S
C1548 C1547 1.372 . S
C1548 C1549 1.383 . S
C1549 C1548 1.383 . S
C1549 C1550 1.395 . S
C1550 H1514 0.930 . S
C1550 C1549 1.395 . S
C1550 C1551 1.362 . S
C1551 H1515 0.930 . S
C1551 C1546 1.390 . S
C1551 C1550 1.362 . S
C1552 C1541 1.492 . S
C1552 C1553 1.377 . S
C1552 C1557 1.397 . S
C1553 H1516 0.931 . S
C1553 C1552 1.377 . S
C1553 C1554 1.376 . S
C1554 H1517 0.930 . S
C1554 C1553 1.376 . S
C1554 C1555 1.376 . S
C1555 C1554 1.376 . S
C1555 C1556 1.378 . S
C1555 C1582 1.486 . S
C1556 H1518 0.930 . S
C1556 C1555 1.378 . S
C1556 C1557 1.376 . S
C1557 H1519 0.929 . S
C1557 C1552 1.397 . S
C1557 C1556 1.376 . S
C1558 C1542 1.509 . S
C1558 C1559 1.391 . S
C1558 C1563 1.386 . S
C1559 H1520 0.930 . S
C1559 C1558 1.391 . S
C1559 C1560 1.375 . S
C1560 H1521 0.931 . S
C1560 C1559 1.375 . S
C1560 C1561 1.375 . S
C1561 C1560 1.375 . S
C1561 C1562 1.361 . S
C1562 H1522 0.930 . S
C1562 C1561 1.361 . S
C1562 C1563 1.399 . S
C1563 H1523 0.929 . S
C1563 C1558 1.386 . S
C1563 C1562 1.399 . S
C1564 C1543 1.485 . S
C1564 C1565 1.394 . S
C1564 C1569 1.360 . S
C1565 H1524 0.931 . S
C1565 C1564 1.394 . S
C1565 C1566 1.372 . S
C1566 H1525 0.930 . S
C1566 C1565 1.372 . S
C1566 C1567 1.397 . S
C1567 C1566 1.397 . S
C1567 C1568 1.390 . S
C1567 C1583 1.476 . S
C1568 H1526 0.930 . S
C1568 C1567 1.390 . S
C1568 C1569 1.366 . S
C1569 H1527 0.932 . S
C1569 C1564 1.360 . S
C1569 C1568 1.366 . S
C1570 C1544 1.490 . S
C1570 C1571 1.380 . S
C1570 C1575 1.386 . S
C1571 H1528 0.930 . S
C1571 C1570 1.380 . S
C1571 C1572 1.381 . S
C1572 H1529 0.929 . S
C1572 C1571 1.381 . S
C1572 C1573 1.371 . S
C1573 C1572 1.371 . S
C1573 C1574 1.380 . S
C1574 H1530 0.931 . S
C1574 C1573 1.380 . S
C1574 C1575 1.387 . S
C1575 H1531 0.930 . S
C1575 C1570 1.386 . S
C1575 C1574 1.387 . S
C1576 C1545 1.519 . S
C1576 C1577 1.377 . S
C1576 C1581 1.361 . S
C1577 H1532 0.929 . S
C1577 C1576 1.377 . S
C1577 C1578 1.386 . S
C1578 H1533 0.931 . S
C1578 C1577 1.386 . S
C1578 C1579 1.363 . S
C1579 C1578 1.363 . S
C1579 C1580 1.385 . S
C1580 H1534 0.930 . S
C1580 C1579 1.385 . S
C1580 C1581 1.396 . S
C1581 H1535 0.929 . S
C1581 C1576 1.361 . S
C1581 C1580 1.396 . S
C1582 O1536 1.300 . S
C1582 O1537 1.209 . S
C1582 C1555 1.486 . S
C1583 O1538 1.199 . S
C1583 O1539 1.297 . S
C1583 C1567 1.476 . S
H1584 C1592 0.950 . S
H1585 C1597 0.950 . S
H1586 C1594 0.950 . S
H1587 C1596 0.950 . S
H1588 C1598 0.950 . S
H1589 C1600 0.950 . S
H1590 C1602 0.950 . S
H1591 C1603 0.950 . S
C1592 H1584 0.950 . S
C1592 C1593 1.386 . S
C1592 C1594 1.391 . S
C1593 C1592 1.386 . S
C1593 C1597 1.393 . S
C1594 H1586 0.950 . S
C1594 C1592 1.391 . S
C1594 C1595 1.400 . S
C1595 C1594 1.400 . S
C1595 C1596 1.398 . S
C1595 C1601 1.491 . S
C1596 H1587 0.950 . S
C1596 C1595 1.398 . S
C1596 C1597 1.391 . S
C1597 H1585 0.950 . S
C1597 C1593 1.393 . S
C1597 C1596 1.391 . S
C1598 H1588 0.950 . S
C1598 C1599 1.386 . S
C1598 C1600 1.391 . S
C1599 C1598 1.386 . S
C1599 C1603 1.393 . S
C1600 H1589 0.950 . S
C1600 C1598 1.391 . S
C1600 C1601 1.400 . S
C1601 C1595 1.491 . S
C1601 C1600 1.400 . S
C1601 C1602 1.398 . S
C1602 H1590 0.950 . S
C1602 C1601 1.398 . S
C1602 C1603 1.391 . S
C1603 H1591 0.950 . S
C1603 C1599 1.393 . S
C1603 C1602 1.391 . S
H1604 C1612 0.950 . S
H1605 C1617 0.950 . S
H1606 C1614 0.950 . S
H1607 C1616 0.950 . S
H1608 C1618 0.950 . S
H1609 C1620 0.950 . S
H1610 C1622 0.950 . S
H1611 C1623 0.950 . S
C1612 H1604 0.950 . S
C1612 C1613 1.386 . S
C1612 C1614 1.391 . S
C1613 C1612 1.386 . S
C1613 C1617 1.393 . S
C1614 H1606 0.950 . S
C1614 C1612 1.391 . S
C1614 C1615 1.400 . S
C1615 C1614 1.400 . S
C1615 C1616 1.398 . S
C1615 C1621 1.491 . S
C1616 H1607 0.950 . S
C1616 C1615 1.398 . S
C1616 C1617 1.391 . S
C1617 H1605 0.950 . S
C1617 C1613 1.393 . S
C1617 C1616 1.391 . S
C1618 H1608 0.950 . S
C1618 C1619 1.386 . S
C1618 C1620 1.391 . S
C1619 C1618 1.386 . S
C1619 C1623 1.393 . S
C1620 H1609 0.950 . S
C1620 C1618 1.391 . S
C1620 C1621 1.400 . S
C1621 C1615 1.491 . S
C1621 C1620 1.400 . S
C1621 C1622 1.398 . S
C1622 H1610 0.950 . S
C1622 C1621 1.398 . S
C1622 C1623 1.391 . S
C1623 H1611 0.950 . S
C1623 C1619 1.393 . S
C1623 C1622 1.391 . S
H1624 C1632 0.950 . S
H1625 C1637 0.949 . S
H1626 C1634 0.950 . S
H1627 C1636 0.950 . S
H1628 C1638 0.967 . S
H1629 C1640 0.949 . S
H1630 C1642 0.950 . S
H1631 C1643 0.950 . S
C1632 H1624 0.950 . S
C1632 C1633 1.386 . S
C1632 C1634 1.391 . S
C1633 C1632 1.386 . S
C1633 C1637 1.393 . S
C1634 H1626 0.950 . S
C1634 C1632 1.391 . S
C1634 C1635 1.400 . S
C1635 C1634 1.400 . S
C1635 C1636 1.398 . S
C1635 C1641 1.491 . S
C1636 H1627 0.950 . S
C1636 C1635 1.398 . S
C1636 C1637 1.391 . S
C1637 H1625 0.949 . S
C1637 C1633 1.393 . S
C1637 C1636 1.391 . S
C1638 H1628 0.967 . S
C1638 C1639 1.386 . S
C1638 C1640 1.391 . S
C1639 C1638 1.386 . S
C1639 C1643 1.393 . S
C1640 H1629 0.949 . S
C1640 C1638 1.391 . S
C1640 C1641 1.400 . S
C1641 C1635 1.491 . S
C1641 C1640 1.400 . S
C1641 C1642 1.398 . S
C1642 H1630 0.950 . S
C1642 C1641 1.398 . S
C1642 C1643 1.391 . S
C1643 H1631 0.950 . S
C1643 C1639 1.393 . S
C1643 C1642 1.391 . S
H1644 C1652 0.950 . S
H1645 C1657 0.950 1_545 S
H1646 C1654 0.950 . S
H1647 C1656 0.962 . S
H1648 C1658 0.950 . S
H1649 C1660 0.950 . S
H1650 C1662 0.950 . S
H1651 C1663 0.950 . S
C1652 H1644 0.950 . S
C1652 C1653 1.386 . S
C1652 C1654 1.391 . S
C1653 C1652 1.386 . S
C1653 C1657 1.393 . S
C1654 H1646 0.950 . S
C1654 C1652 1.391 . S
C1654 C1655 1.400 . S
C1655 C1654 1.400 . S
C1655 C1656 1.383 1_565 S
C1655 C1661 1.491 . S
C1656 H1647 0.962 . S
C1656 C1655 1.383 1_545 S
C1656 C1657 1.395 1_545 S
C1657 H1645 0.950 1_565 S
C1657 C1653 1.393 . S
C1657 C1656 1.395 1_565 S
C1658 H1648 0.950 . S
C1658 C1659 1.386 1_545 S
C1658 C1660 1.391 . S
C1659 C1658 1.386 1_565 S
C1659 C1663 1.393 . S
C1660 H1649 0.950 . S
C1660 C1658 1.391 . S
C1660 C1661 1.400 1_545 S
C1661 C1655 1.491 . S
C1661 C1660 1.400 1_565 S
C1661 C1662 1.398 . S
C1662 H1650 0.950 . S
C1662 C1661 1.398 . S
C1662 C1663 1.391 . S
C1663 H1651 0.950 . S
C1663 C1659 1.393 . S
C1663 C1662 1.391 . S
H1664 C1672 0.950 . S
H1665 C1677 0.950 1_655 S
H1666 C1674 0.950 . S
H1667 C1676 0.950 1_655 S
H1668 C1678 0.956 . S
H1669 C1680 0.907 1_655 S
H1670 C1682 0.950 . S
H1671 C1683 0.950 . S
C1672 H1664 0.950 . S
C1672 C1673 1.386 . S
C1672 C1674 1.391 . S
C1673 C1672 1.386 . S
C1673 C1677 1.393 . S
C1674 H1666 0.950 . S
C1674 C1672 1.391 . S
C1674 C1675 1.400 . S
C1675 C1674 1.400 . S
C1675 C1676 1.398 . S
C1675 C1681 1.491 . S
C1676 H1667 0.950 1_455 S
C1676 C1675 1.398 . S
C1676 C1677 1.391 . S
C1677 H1665 0.950 1_455 S
C1677 C1673 1.393 . S
C1677 C1676 1.391 . S
C1678 H1668 0.956 . S
C1678 C1679 1.382 1_655 S
C1678 C1680 1.364 1_655 S
C1679 C1678 1.382 1_455 S
C1679 C1683 1.393 . S
C1680 H1669 0.907 1_455 S
C1680 C1678 1.364 1_455 S
C1680 C1681 1.471 . S
C1681 C1675 1.491 . S
C1681 C1680 1.471 . S
C1681 C1682 1.398 . S
C1682 H1670 0.950 . S
C1682 C1681 1.398 . S
C1682 C1683 1.391 . S
C1683 H1671 0.950 . S
C1683 C1679 1.393 . S
C1683 C1682 1.391 . S
H1684 C1692 0.946 1_556 S
H1685 C1697 0.950 . S
H1686 C1694 0.950 . S
H1687 C1696 0.950 . S
H1688 C1698 0.950 . S
H1689 C1700 0.950 . S
H1690 C1702 0.950 . S
H1691 C1703 0.950 . S
C1692 H1684 0.946 1_554 S
C1692 C1693 1.386 . S
C1692 C1694 1.391 1_554 S
C1693 C1692 1.386 . S
C1693 C1697 1.393 . S
C1694 H1686 0.950 . S
C1694 C1692 1.391 1_556 S
C1694 C1695 1.400 . S
C1695 C1694 1.400 . S
C1695 C1696 1.398 1_556 S
C1695 C1701 1.491 . S
C1696 H1687 0.950 . S
C1696 C1695 1.398 1_554 S
C1696 C1697 1.391 . S
C1697 H1685 0.950 . S
C1697 C1693 1.393 . S
C1697 C1696 1.391 . S
C1698 H1688 0.950 . S
C1698 C1699 1.386 . S
C1698 C1700 1.391 . S
C1699 C1698 1.386 . S
C1699 C1703 1.393 . S
C1700 H1689 0.950 . S
C1700 C1698 1.391 . S
C1700 C1701 1.400 . S
C1701 C1695 1.491 . S
C1701 C1700 1.400 . S
C1701 C1702 1.398 . S
C1702 H1690 0.950 . S
C1702 C1701 1.398 . S
C1702 C1703 1.391 . S
C1703 H1691 0.950 . S
C1703 C1699 1.393 . S
C1703 C1702 1.391 . S
H1704 C1712 0.956 . S
H1705 C1717 0.950 . S
H1706 C1714 0.950 . S
H1707 C1716 0.950 . S
H1708 C1718 0.950 . S
H1709 C1720 0.950 . S
H1710 C1722 0.950 . S
H1711 C1723 0.950 . S
C1712 H1704 0.956 . S
C1712 C1713 1.407 . S
C1712 C1714 1.365 1_554 S
C1713 C1712 1.407 . S
C1713 C1717 1.393 1_455 S
C1714 H1706 0.950 . S
C1714 C1712 1.365 1_556 S
C1714 C1715 1.400 . S
C1715 C1714 1.400 . S
C1715 C1716 1.398 1_455 S
C1715 C1721 1.491 . S
C1716 H1707 0.950 . S
C1716 C1715 1.398 1_655 S
C1716 C1717 1.391 1_556 S
C1717 H1705 0.950 . S
C1717 C1713 1.393 1_655 S
C1717 C1716 1.391 1_554 S
C1718 H1708 0.950 . S
C1718 C1719 1.386 1_655 S
C1718 C1720 1.391 . S
C1719 C1718 1.386 1_455 S
C1719 C1723 1.393 . S
C1720 H1709 0.950 . S
C1720 C1718 1.391 . S
C1720 C1721 1.400 1_655 S
C1721 C1715 1.491 . S
C1721 C1720 1.400 1_455 S
C1721 C1722 1.398 . S
C1722 H1710 0.950 . S
C1722 C1721 1.398 . S
C1722 C1723 1.391 . S
C1723 H1711 0.950 . S
C1723 C1719 1.393 . S
C1723 C1722 1.391 . S
H1724 C1732 0.950 . S
H1725 C1737 0.950 . S
H1726 C1734 0.950 . S
H1727 C1736 0.950 . S
H1728 C1738 0.950 . S
H1729 C1740 0.950 . S
H1730 C1742 0.950 . S
H1731 C1743 0.950 . S
C1732 H1724 0.950 . S
C1732 C1733 1.386 . S
C1732 C1734 1.391 . S
C1733 C1732 1.386 . S
C1733 C1737 1.393 . S
C1734 H1726 0.950 . S
C1734 C1732 1.391 . S
C1734 C1735 1.400 . S
C1735 C1734 1.400 . S
C1735 C1736 1.398 . S
C1735 C1741 1.491 . S
C1736 H1727 0.950 . S
C1736 C1735 1.398 . S
C1736 C1737 1.391 . S
C1737 H1725 0.950 . S
C1737 C1733 1.393 . S
C1737 C1736 1.391 . S
C1738 H1728 0.950 . S
C1738 C1739 1.386 . S
C1738 C1740 1.391 . S
C1739 C1738 1.386 . S
C1739 C1743 1.393 . S
C1740 H1729 0.950 . S
C1740 C1738 1.391 . S
C1740 C1741 1.400 . S
C1741 C1735 1.491 . S
C1741 C1740 1.400 . S
C1741 C1742 1.398 . S
C1742 H1730 0.950 . S
C1742 C1741 1.398 . S
C1742 C1743 1.391 . S
C1743 H1731 0.950 . S
C1743 C1739 1.393 . S
C1743 C1742 1.391 . S
H1744 C1752 0.950 . S
H1745 C1757 0.950 . S
H1746 C1754 0.950 . S
H1747 C1756 0.952 . S
H1748 C1758 0.950 . S
H1749 C1760 0.950 . S
H1750 C1762 0.950 . S
H1751 C1763 0.950 . S
C1752 H1744 0.950 . S
C1752 C1753 1.367 1_566 S
C1752 C1754 1.391 . S
C1753 C1752 1.367 1_544 S
C1753 C1757 1.432 . S
C1754 H1746 0.950 . S
C1754 C1752 1.391 . S
C1754 C1755 1.400 1_565 S
C1755 C1754 1.400 1_545 S
C1755 C1756 1.398 . S
C1755 C1761 1.491 . S
C1756 H1747 0.952 . S
C1756 C1755 1.398 . S
C1756 C1757 1.391 1_556 S
C1757 H1745 0.950 . S
C1757 C1753 1.432 . S
C1757 C1756 1.391 1_554 S
C1758 H1748 0.950 . S
C1758 C1759 1.386 . S
C1758 C1760 1.391 . S
C1759 C1758 1.386 . S
C1759 C1763 1.393 1_545 S
C1760 H1749 0.950 . S
C1760 C1758 1.391 . S
C1760 C1761 1.400 . S
C1761 C1755 1.491 . S
C1761 C1760 1.400 . S
C1761 C1762 1.398 1_545 S
C1762 H1750 0.950 . S
C1762 C1761 1.398 1_565 S
C1762 C1763 1.391 . S
C1763 H1751 0.950 . S
C1763 C1759 1.393 1_565 S
C1763 C1762 1.391 . S
H1764 C1772 0.950 . S
H1765 C1777 0.950 . S
H1766 C1774 0.950 . S
H1767 C1776 0.950 . S
H1768 C1778 0.950 . S
H1769 C1780 0.950 1_565 S
H1770 C1782 0.950 . S
H1771 C1783 0.950 . S
C1772 H1764 0.950 . S
C1772 C1773 1.386 . S
C1772 C1774 1.391 . S
C1773 C1772 1.386 . S
C1773 C1777 1.393 . S
C1774 H1766 0.950 . S
C1774 C1772 1.391 . S
C1774 C1775 1.400 . S
C1775 C1774 1.400 . S
C1775 C1776 1.398 . S
C1775 C1781 1.491 . S
C1776 H1767 0.950 . S
C1776 C1775 1.398 . S
C1776 C1777 1.391 . S
C1777 H1765 0.950 . S
C1777 C1773 1.393 . S
C1777 C1776 1.391 . S
C1778 H1768 0.950 . S
C1778 C1779 1.386 1_565 S
C1778 C1780 1.391 1_565 S
C1779 C1778 1.386 1_545 S
C1779 C1783 1.393 . S
C1780 H1769 0.950 1_545 S
C1780 C1778 1.391 1_545 S
C1780 C1781 1.400 . S
C1781 C1775 1.491 . S
C1781 C1780 1.400 . S
C1781 C1782 1.398 . S
C1782 H1770 0.950 . S
C1782 C1781 1.398 . S
C1782 C1783 1.391 . S
C1783 H1771 0.950 . S
C1783 C1779 1.393 . S
C1783 C1782 1.391 . S
H1784 C1792 0.950 . S
H1785 C1797 0.950 . S
H1786 C1794 0.950 . S
H1787 C1796 0.950 . S
H1788 C1798 0.950 . S
H1789 C1800 0.950 . S
H1790 C1802 0.950 . S
H1791 C1803 0.950 . S
C1792 H1784 0.950 . S
C1792 C1793 1.386 1_455 S
C1792 C1794 1.391 . S
C1793 C1792 1.386 1_655 S
C1793 C1797 1.393 . S
C1794 H1786 0.950 . S
C1794 C1792 1.391 . S
C1794 C1795 1.400 1_455 S
C1795 C1794 1.400 1_655 S
C1795 C1796 1.398 . S
C1795 C1801 1.491 . S
C1796 H1787 0.950 . S
C1796 C1795 1.398 . S
C1796 C1797 1.391 . S
C1797 H1785 0.950 . S
C1797 C1793 1.393 . S
C1797 C1796 1.391 . S
C1798 H1788 0.950 . S
C1798 C1799 1.428 . S
C1798 C1800 1.391 . S
C1799 C1798 1.428 . S
C1799 C1803 1.368 1_655 S
C1800 H1789 0.950 . S
C1800 C1798 1.391 . S
C1800 C1801 1.400 . S
C1801 C1795 1.491 . S
C1801 C1800 1.400 . S
C1801 C1802 1.398 1_655 S
C1802 H1790 0.950 . S
C1802 C1801 1.398 1_455 S
C1802 C1803 1.391 . S
C1803 H1791 0.950 . S
C1803 C1799 1.368 1_455 S
C1803 C1802 1.391 . S
H1804 C1812 0.950 . S
H1805 C1817 0.950 . S
H1806 C1814 0.950 . S
H1807 C1816 0.950 . S
H1808 C1818 0.950 . S
H1809 C1820 0.950 . S
H1810 C1822 0.950 . S
H1811 C1823 0.950 . S
C1812 H1804 0.950 . S
C1812 C1813 1.386 . S
C1812 C1814 1.391 . S
C1813 C1812 1.386 . S
C1813 C1817 1.393 . S
C1814 H1806 0.950 . S
C1814 C1812 1.391 . S
C1814 C1815 1.400 . S
C1815 C1814 1.400 . S
C1815 C1816 1.398 . S
C1815 C1821 1.491 . S
C1816 H1807 0.950 . S
C1816 C1815 1.398 . S
C1816 C1817 1.391 . S
C1817 H1805 0.950 . S
C1817 C1813 1.393 . S
C1817 C1816 1.391 . S
C1818 H1808 0.950 . S
C1818 C1819 1.386 . S
C1818 C1820 1.391 . S
C1819 C1818 1.386 . S
C1819 C1823 1.393 . S
C1820 H1809 0.950 . S
C1820 C1818 1.391 . S
C1820 C1821 1.400 . S
C1821 C1815 1.491 . S
C1821 C1820 1.400 . S
C1821 C1822 1.398 . S
C1822 H1810 0.950 . S
C1822 C1821 1.398 . S
C1822 C1823 1.391 . S
C1823 H1811 0.950 . S
C1823 C1819 1.393 . S
C1823 C1822 1.391 . S
H1824 C1832 0.950 . S
H1825 C1837 0.950 . S
H1826 C1834 0.950 . S
H1827 C1836 0.950 . S
H1828 C1838 0.950 . S
H1829 C1840 0.950 . S
H1830 C1842 0.950 . S
H1831 C1843 0.950 . S
C1832 H1824 0.950 . S
C1832 C1833 1.386 . S
C1832 C1834 1.391 . S
C1833 C1832 1.386 . S
C1833 C1837 1.393 . S
C1834 H1826 0.950 . S
C1834 C1832 1.391 . S
C1834 C1835 1.400 . S
C1835 C1834 1.400 . S
C1835 C1836 1.398 . S
C1835 C1841 1.491 . S
C1836 H1827 0.950 . S
C1836 C1835 1.398 . S
C1836 C1837 1.391 . S
C1837 H1825 0.950 . S
C1837 C1833 1.393 . S
C1837 C1836 1.391 . S
C1838 H1828 0.950 . S
C1838 C1839 1.386 . S
C1838 C1840 1.391 . S
C1839 C1838 1.386 . S
C1839 C1843 1.393 . S
C1840 H1829 0.950 . S
C1840 C1838 1.391 . S
C1840 C1841 1.400 . S
C1841 C1835 1.491 . S
C1841 C1840 1.400 . S
C1841 C1842 1.398 . S
C1842 H1830 0.950 . S
C1842 C1841 1.398 . S
C1842 C1843 1.391 . S
C1843 H1831 0.950 . S
C1843 C1839 1.393 . S
C1843 C1842 1.391 . S
H1844 C1852 0.950 . S
H1845 C1857 0.950 . S
H1846 C1854 0.950 . S
H1847 C1856 0.950 . S
H1848 C1858 0.950 . S
H1849 C1860 0.950 . S
H1850 C1862 0.950 . S
H1851 C1863 0.950 . S
C1852 H1844 0.950 . S
C1852 C1853 1.386 . S
C1852 C1854 1.391 . S
C1853 C1852 1.386 . S
C1853 C1857 1.393 . S
C1854 H1846 0.950 . S
C1854 C1852 1.391 . S
C1854 C1855 1.400 . S
C1855 C1854 1.400 . S
C1855 C1856 1.398 . S
C1855 C1861 1.491 . S
C1856 H1847 0.950 . S
C1856 C1855 1.398 . S
C1856 C1857 1.391 . S
C1857 H1845 0.950 . S
C1857 C1853 1.393 . S
C1857 C1856 1.391 . S
C1858 H1848 0.950 . S
C1858 C1859 1.386 . S
C1858 C1860 1.391 . S
C1859 C1858 1.386 . S
C1859 C1863 1.393 . S
C1860 H1849 0.950 . S
C1860 C1858 1.391 . S
C1860 C1861 1.400 . S
C1861 C1855 1.491 . S
C1861 C1860 1.400 . S
C1861 C1862 1.398 . S
C1862 H1850 0.950 . S
C1862 C1861 1.398 . S
C1862 C1863 1.391 . S
C1863 H1851 0.950 . S
C1863 C1859 1.393 . S
C1863 C1862 1.391 . S
H1864 C1872 0.950 . S
H1865 C1877 0.950 . S
H1866 C1874 0.950 . S
H1867 C1876 0.950 . S
H1868 C1878 0.950 . S
H1869 C1880 0.950 . S
H1870 C1882 0.950 . S
H1871 C1883 0.950 . S
C1872 H1864 0.950 . S
C1872 C1873 1.386 . S
C1872 C1874 1.391 . S
C1873 C1872 1.386 . S
C1873 C1877 1.393 . S
C1874 H1866 0.950 . S
C1874 C1872 1.391 . S
C1874 C1875 1.400 . S
C1875 C1874 1.400 . S
C1875 C1876 1.398 . S
C1875 C1881 1.491 . S
C1876 H1867 0.950 . S
C1876 C1875 1.398 . S
C1876 C1877 1.391 . S
C1877 H1865 0.950 . S
C1877 C1873 1.393 . S
C1877 C1876 1.391 . S
C1878 H1868 0.950 . S
C1878 C1879 1.386 . S
C1878 C1880 1.391 . S
C1879 C1878 1.386 . S
C1879 C1883 1.393 . S
C1880 H1869 0.950 . S
C1880 C1878 1.391 . S
C1880 C1881 1.400 . S
C1881 C1875 1.491 . S
C1881 C1880 1.400 . S
C1881 C1882 1.398 . S
C1882 H1870 0.950 . S
C1882 C1881 1.398 . S
C1882 C1883 1.391 . S
C1883 H1871 0.950 . S
C1883 C1879 1.393 . S
C1883 C1882 1.391 . S
H1884 C1892 0.950 . S
H1885 C1897 0.950 . S
H1886 C1894 0.950 . S
H1887 C1896 0.950 . S
H1888 C1898 0.950 . S
H1889 C1900 0.950 . S
H1890 C1902 0.950 . S
H1891 C1903 0.950 . S
C1892 H1884 0.950 . S
C1892 C1893 1.386 . S
C1892 C1894 1.391 . S
C1893 C1892 1.386 . S
C1893 C1897 1.393 . S
C1894 H1886 0.950 . S
C1894 C1892 1.391 . S
C1894 C1895 1.400 . S
C1895 C1894 1.400 . S
C1895 C1896 1.398 . S
C1895 C1901 1.491 . S
C1896 H1887 0.950 . S
C1896 C1895 1.398 . S
C1896 C1897 1.391 . S
C1897 H1885 0.950 . S
C1897 C1893 1.393 . S
C1897 C1896 1.391 . S
C1898 H1888 0.950 . S
C1898 C1899 1.386 . S
C1898 C1900 1.391 . S
C1899 C1898 1.386 . S
C1899 C1903 1.393 . S
C1900 H1889 0.950 . S
C1900 C1898 1.391 . S
C1900 C1901 1.400 . S
C1901 C1895 1.491 . S
C1901 C1900 1.400 . S
C1901 C1902 1.398 . S
C1902 H1890 0.950 . S
C1902 C1901 1.398 . S
C1902 C1903 1.391 . S
C1903 H1891 0.950 . S
C1903 C1899 1.393 . S
C1903 C1902 1.391 . S
H1904 C1912 0.950 . S
H1905 C1917 0.950 . S
H1906 C1914 0.950 . S
H1907 C1916 0.950 . S
H1908 C1918 0.950 . S
H1909 C1920 0.950 . S
H1910 C1922 0.950 . S
H1911 C1923 0.950 . S
C1912 H1904 0.950 . S
C1912 C1913 1.386 . S
C1912 C1914 1.391 . S
C1913 C1912 1.386 . S
C1913 C1917 1.393 . S
C1914 H1906 0.950 . S
C1914 C1912 1.391 . S
C1914 C1915 1.400 . S
C1915 C1914 1.400 . S
C1915 C1916 1.398 . S
C1915 C1921 1.491 . S
C1916 H1907 0.950 . S
C1916 C1915 1.398 . S
C1916 C1917 1.391 . S
C1917 H1905 0.950 . S
C1917 C1913 1.393 . S
C1917 C1916 1.391 . S
C1918 H1908 0.950 . S
C1918 C1919 1.386 . S
C1918 C1920 1.391 . S
C1919 C1918 1.386 . S
C1919 C1923 1.393 . S
C1920 H1909 0.950 . S
C1920 C1918 1.391 . S
C1920 C1921 1.400 . S
C1921 C1915 1.491 . S
C1921 C1920 1.400 . S
C1921 C1922 1.398 . S
C1922 H1910 0.950 . S
C1922 C1921 1.398 . S
C1922 C1923 1.391 . S
C1923 H1911 0.950 . S
C1923 C1919 1.393 . S
C1923 C1922 1.391 . S
H1924 C1932 0.950 . S
H1925 C1937 0.950 . S
H1926 C1934 0.950 . S
H1927 C1936 0.950 . S
H1928 C1938 0.950 . S
H1929 C1940 0.950 . S
H1930 C1942 0.950 . S
H1931 C1943 0.950 . S
C1932 H1924 0.950 . S
C1932 C1933 1.386 . S
C1932 C1934 1.391 . S
C1933 C1932 1.386 . S
C1933 C1937 1.393 . S
C1934 H1926 0.950 . S
C1934 C1932 1.391 . S
C1934 C1935 1.400 . S
C1935 C1934 1.400 . S
C1935 C1936 1.398 . S
C1935 C1941 1.491 . S
C1936 H1927 0.950 . S
C1936 C1935 1.398 . S
C1936 C1937 1.391 . S
C1937 H1925 0.950 . S
C1937 C1933 1.393 . S
C1937 C1936 1.391 . S
C1938 H1928 0.950 . S
C1938 C1939 1.386 . S
C1938 C1940 1.391 . S
C1939 C1938 1.386 . S
C1939 C1943 1.393 . S
C1940 H1929 0.950 . S
C1940 C1938 1.391 . S
C1940 C1941 1.400 . S
C1941 C1935 1.491 . S
C1941 C1940 1.400 . S
C1941 C1942 1.398 . S
C1942 H1930 0.950 . S
C1942 C1941 1.398 . S
C1942 C1943 1.391 . S
C1943 H1931 0.950 . S
C1943 C1939 1.393 . S
C1943 C1942 1.391 . S
H1944 C1952 0.950 . S
H1945 C1957 0.950 . S
H1946 C1954 0.950 . S
H1947 C1956 0.950 . S
H1948 C1958 0.950 . S
H1949 C1960 0.950 . S
H1950 C1962 0.950 . S
H1951 C1963 0.950 . S
C1952 H1944 0.950 . S
C1952 C1953 1.386 . S
C1952 C1954 1.391 . S
C1953 C1952 1.386 . S
C1953 C1957 1.393 . S
C1954 H1946 0.950 . S
C1954 C1952 1.391 . S
C1954 C1955 1.400 . S
C1955 C1954 1.400 . S
C1955 C1956 1.398 . S
C1955 C1961 1.491 . S
C1956 H1947 0.950 . S
C1956 C1955 1.398 . S
C1956 C1957 1.391 . S
C1957 H1945 0.950 . S
C1957 C1953 1.393 . S
C1957 C1956 1.391 . S
C1958 H1948 0.950 . S
C1958 C1959 1.386 . S
C1958 C1960 1.391 . S
C1959 C1958 1.386 . S
C1959 C1963 1.393 . S
C1960 H1949 0.950 . S
C1960 C1958 1.391 . S
C1960 C1961 1.400 . S
C1961 C1955 1.491 . S
C1961 C1960 1.400 . S
C1961 C1962 1.398 . S
C1962 H1950 0.950 . S
C1962 C1961 1.398 . S
C1962 C1963 1.391 . S
C1963 H1951 0.950 . S
C1963 C1959 1.393 . S
C1963 C1962 1.391 . S
H1964 C1972 0.950 . S
H1965 C1977 0.950 . S
H1966 C1974 0.950 . S
H1967 C1976 0.950 . S
H1968 C1978 0.950 . S
H1969 C1980 0.950 . S
H1970 C1982 0.950 . S
H1971 C1983 0.950 . S
C1972 H1964 0.950 . S
C1972 C1973 1.386 . S
C1972 C1974 1.391 . S
C1973 C1972 1.386 . S
C1973 C1977 1.393 . S
C1974 H1966 0.950 . S
C1974 C1972 1.391 . S
C1974 C1975 1.400 . S
C1975 C1974 1.400 . S
C1975 C1976 1.398 . S
C1975 C1981 1.491 . S
C1976 H1967 0.950 . S
C1976 C1975 1.398 . S
C1976 C1977 1.391 . S
C1977 H1965 0.950 . S
C1977 C1973 1.393 . S
C1977 C1976 1.391 . S
C1978 H1968 0.950 . S
C1978 C1979 1.386 . S
C1978 C1980 1.391 . S
C1979 C1978 1.386 . S
C1979 C1983 1.393 . S
C1980 H1969 0.950 . S
C1980 C1978 1.391 . S
C1980 C1981 1.400 . S
C1981 C1975 1.491 . S
C1981 C1980 1.400 . S
C1981 C1982 1.398 . S
C1982 H1970 0.950 . S
C1982 C1981 1.398 . S
C1982 C1983 1.391 . S
C1983 H1971 0.950 . S
C1983 C1979 1.393 . S
C1983 C1982 1.391 . S
H1984 C1992 0.950 . S
H1985 C1997 0.950 . S
H1986 C1994 0.950 . S
H1987 C1996 0.950 . S
H1988 C1998 0.950 . S
H1989 C2000 0.950 . S
H1990 C2002 0.950 . S
H1991 C2003 0.950 . S
C1992 H1984 0.950 . S
C1992 C1993 1.386 . S
C1992 C1994 1.391 . S
C1993 C1992 1.386 . S
C1993 C1997 1.393 . S
C1994 H1986 0.950 . S
C1994 C1992 1.391 . S
C1994 C1995 1.400 . S
C1995 C1994 1.400 . S
C1995 C1996 1.398 . S
C1995 C2001 1.491 . S
C1996 H1987 0.950 . S
C1996 C1995 1.398 . S
C1996 C1997 1.391 . S
C1997 H1985 0.950 . S
C1997 C1993 1.393 . S
C1997 C1996 1.391 . S
C1998 H1988 0.950 . S
C1998 C1999 1.386 . S
C1998 C2000 1.391 . S
C1999 C1998 1.386 . S
C1999 C2003 1.393 . S
C2000 H1989 0.950 . S
C2000 C1998 1.391 . S
C2000 C2001 1.400 . S
C2001 C1995 1.491 . S
C2001 C2000 1.400 . S
C2001 C2002 1.398 . S
C2002 H1990 0.950 . S
C2002 C2001 1.398 . S
C2002 C2003 1.391 . S
C2003 H1991 0.950 . S
C2003 C1999 1.393 . S
C2003 C2002 1.391 . S
H2004 C2012 0.950 . S
H2005 C2017 0.950 . S
H2006 C2014 0.950 . S
H2007 C2016 0.950 . S
H2008 C2018 0.950 . S
H2009 C2020 0.950 . S
H2010 C2022 0.950 . S
H2011 C2023 0.950 . S
C2012 H2004 0.950 . S
C2012 C2013 1.386 . S
C2012 C2014 1.391 . S
C2013 C2012 1.386 . S
C2013 C2017 1.393 . S
C2014 H2006 0.950 . S
C2014 C2012 1.391 . S
C2014 C2015 1.400 . S
C2015 C2014 1.400 . S
C2015 C2016 1.398 . S
C2015 C2021 1.491 . S
C2016 H2007 0.950 . S
C2016 C2015 1.398 . S
C2016 C2017 1.391 . S
C2017 H2005 0.950 . S
C2017 C2013 1.393 . S
C2017 C2016 1.391 . S
C2018 H2008 0.950 . S
C2018 C2019 1.386 . S
C2018 C2020 1.391 . S
C2019 C2018 1.386 . S
C2019 C2023 1.393 . S
C2020 H2009 0.950 . S
C2020 C2018 1.391 . S
C2020 C2021 1.400 . S
C2021 C2015 1.491 . S
C2021 C2020 1.400 . S
C2021 C2022 1.398 . S
C2022 H2010 0.950 . S
C2022 C2021 1.398 . S
C2022 C2023 1.391 . S
C2023 H2011 0.950 . S
C2023 C2019 1.393 . S
C2023 C2022 1.391 . S
H2024 C2032 0.950 . S
H2025 C2037 0.950 . S
H2026 C2034 0.950 . S
H2027 C2036 0.950 . S
H2028 C2038 0.950 . S
H2029 C2040 0.950 . S
H2030 C2042 0.950 . S
H2031 C2043 0.950 . S
C2032 H2024 0.950 . S
C2032 C2033 1.386 . S
C2032 C2034 1.391 . S
C2033 C2032 1.386 . S
C2033 C2037 1.393 . S
C2034 H2026 0.950 . S
C2034 C2032 1.391 . S
C2034 C2035 1.400 . S
C2035 C2034 1.400 . S
C2035 C2036 1.398 . S
C2035 C2041 1.491 . S
C2036 H2027 0.950 . S
C2036 C2035 1.398 . S
C2036 C2037 1.391 . S
C2037 H2025 0.950 . S
C2037 C2033 1.393 . S
C2037 C2036 1.391 . S
C2038 H2028 0.950 . S
C2038 C2039 1.386 . S
C2038 C2040 1.391 . S
C2039 C2038 1.386 . S
C2039 C2043 1.393 . S
C2040 H2029 0.950 . S
C2040 C2038 1.391 . S
C2040 C2041 1.400 . S
C2041 C2035 1.491 . S
C2041 C2040 1.400 . S
C2041 C2042 1.398 . S
C2042 H2030 0.950 . S
C2042 C2041 1.398 . S
C2042 C2043 1.391 . S
C2043 H2031 0.950 . S
C2043 C2039 1.393 . S
C2043 C2042 1.391 . S
H2044 C2052 0.950 . S
H2045 C2057 0.950 . S
H2046 C2054 0.950 . S
H2047 C2056 0.950 . S
H2048 C2058 0.950 . S
H2049 C2060 0.950 . S
H2050 C2062 0.950 . S
H2051 C2063 0.950 . S
C2052 H2044 0.950 . S
C2052 C2053 1.386 . S
C2052 C2054 1.391 . S
C2053 C2052 1.386 . S
C2053 C2057 1.393 . S
C2054 H2046 0.950 . S
C2054 C2052 1.391 . S
C2054 C2055 1.400 . S
C2055 C2054 1.400 . S
C2055 C2056 1.398 . S
C2055 C2061 1.491 . S
C2056 H2047 0.950 . S
C2056 C2055 1.398 . S
C2056 C2057 1.391 . S
C2057 H2045 0.950 . S
C2057 C2053 1.393 . S
C2057 C2056 1.391 . S
C2058 H2048 0.950 . S
C2058 C2059 1.386 . S
C2058 C2060 1.391 . S
C2059 C2058 1.386 . S
C2059 C2063 1.393 . S
C2060 H2049 0.950 . S
C2060 C2058 1.391 . S
C2060 C2061 1.400 . S
C2061 C2055 1.491 . S
C2061 C2060 1.400 . S
C2061 C2062 1.398 . S
C2062 H2050 0.950 . S
C2062 C2061 1.398 . S
C2062 C2063 1.391 . S
C2063 H2051 0.950 . S
C2063 C2059 1.393 . S
C2063 C2062 1.391 . S
H2064 C2072 0.950 . S
H2065 C2077 0.950 . S
H2066 C2074 0.950 . S
H2067 C2076 0.950 . S
H2068 C2078 0.950 . S
H2069 C2080 0.950 . S
H2070 C2082 0.950 . S
H2071 C2083 0.950 . S
C2072 H2064 0.950 . S
C2072 C2073 1.386 . S
C2072 C2074 1.391 . S
C2073 C2072 1.386 . S
C2073 C2077 1.393 . S
C2074 H2066 0.950 . S
C2074 C2072 1.391 . S
C2074 C2075 1.400 . S
C2075 C2074 1.400 . S
C2075 C2076 1.398 . S
C2075 C2081 1.491 . S
C2076 H2067 0.950 . S
C2076 C2075 1.398 . S
C2076 C2077 1.391 . S
C2077 H2065 0.950 . S
C2077 C2073 1.393 . S
C2077 C2076 1.391 . S
C2078 H2068 0.950 . S
C2078 C2079 1.386 . S
C2078 C2080 1.391 . S
C2079 C2078 1.386 . S
C2079 C2083 1.393 . S
C2080 H2069 0.950 . S
C2080 C2078 1.391 . S
C2080 C2081 1.400 . S
C2081 C2075 1.491 . S
C2081 C2080 1.400 . S
C2081 C2082 1.398 . S
C2082 H2070 0.950 . S
C2082 C2081 1.398 . S
C2082 C2083 1.391 . S
C2083 H2071 0.950 . S
C2083 C2079 1.393 . S
C2083 C2082 1.391 . S
H2084 C2092 0.950 . S
H2085 C2097 0.950 . S
H2086 C2094 0.950 . S
H2087 C2096 0.950 . S
H2088 C2098 0.950 . S
H2089 C2100 0.950 . S
H2090 C2102 0.950 . S
H2091 C2103 0.950 . S
C2092 H2084 0.950 . S
C2092 C2093 1.386 . S
C2092 C2094 1.391 . S
C2093 C2092 1.386 . S
C2093 C2097 1.393 . S
C2094 H2086 0.950 . S
C2094 C2092 1.391 . S
C2094 C2095 1.400 . S
C2095 C2094 1.400 . S
C2095 C2096 1.398 . S
C2095 C2101 1.491 . S
C2096 H2087 0.950 . S
C2096 C2095 1.398 . S
C2096 C2097 1.391 . S
C2097 H2085 0.950 . S
C2097 C2093 1.393 . S
C2097 C2096 1.391 . S
C2098 H2088 0.950 . S
C2098 C2099 1.386 . S
C2098 C2100 1.391 . S
C2099 C2098 1.386 . S
C2099 C2103 1.393 . S
C2100 H2089 0.950 . S
C2100 C2098 1.391 . S
C2100 C2101 1.400 . S
C2101 C2095 1.491 . S
C2101 C2100 1.400 . S
C2101 C2102 1.398 . S
C2102 H2090 0.950 . S
C2102 C2101 1.398 . S
C2102 C2103 1.391 . S
C2103 H2091 0.950 . S
C2103 C2099 1.393 . S
C2103 C2102 1.391 . S
H2104 C2112 0.950 . S
H2105 C2117 0.950 . S
H2106 C2114 0.950 . S
H2107 C2116 0.950 . S
H2108 C2118 0.950 . S
H2109 C2120 0.950 . S
H2110 C2122 0.950 . S
H2111 C2123 0.950 . S
C2112 H2104 0.950 . S
C2112 C2113 1.386 . S
C2112 C2114 1.391 . S
C2113 C2112 1.386 . S
C2113 C2117 1.393 . S
C2114 H2106 0.950 . S
C2114 C2112 1.391 . S
C2114 C2115 1.400 . S
C2115 C2114 1.400 . S
C2115 C2116 1.398 . S
C2115 C2121 1.491 . S
C2116 H2107 0.950 . S
C2116 C2115 1.398 . S
C2116 C2117 1.391 . S
C2117 H2105 0.950 . S
C2117 C2113 1.393 . S
C2117 C2116 1.391 . S
C2118 H2108 0.950 . S
C2118 C2119 1.386 . S
C2118 C2120 1.391 . S
C2119 C2118 1.386 . S
C2119 C2123 1.393 . S
C2120 H2109 0.950 . S
C2120 C2118 1.391 . S
C2120 C2121 1.400 . S
C2121 C2115 1.491 . S
C2121 C2120 1.400 . S
C2121 C2122 1.398 . S
C2122 H2110 0.950 . S
C2122 C2121 1.398 . S
C2122 C2123 1.391 . S
C2123 H2111 0.950 . S
C2123 C2119 1.393 . S
C2123 C2122 1.391 . S
H2124 C2132 0.950 . S
H2125 C2137 0.950 . S
H2126 C2134 0.950 . S
H2127 C2136 0.950 . S
H2128 C2138 0.950 . S
H2129 C2140 0.950 . S
H2130 C2142 0.950 . S
H2131 C2143 0.950 . S
C2132 H2124 0.950 . S
C2132 C2133 1.386 . S
C2132 C2134 1.391 . S
C2133 C2132 1.386 . S
C2133 C2137 1.393 . S
C2134 H2126 0.950 . S
C2134 C2132 1.391 . S
C2134 C2135 1.400 . S
C2135 C2134 1.400 . S
C2135 C2136 1.398 . S
C2135 C2141 1.491 . S
C2136 H2127 0.950 . S
C2136 C2135 1.398 . S
C2136 C2137 1.391 . S
C2137 H2125 0.950 . S
C2137 C2133 1.393 . S
C2137 C2136 1.391 . S
C2138 H2128 0.950 . S
C2138 C2139 1.386 . S
C2138 C2140 1.391 . S
C2139 C2138 1.386 . S
C2139 C2143 1.393 . S
C2140 H2129 0.950 . S
C2140 C2138 1.391 . S
C2140 C2141 1.400 . S
C2141 C2135 1.491 . S
C2141 C2140 1.400 . S
C2141 C2142 1.398 . S
C2142 H2130 0.950 . S
C2142 C2141 1.398 . S
C2142 C2143 1.391 . S
C2143 H2131 0.950 . S
C2143 C2139 1.393 . S
C2143 C2142 1.391 . S
H2144 C2152 0.950 . S
H2145 C2157 0.950 . S
H2146 C2154 0.950 . S
H2147 C2156 0.950 . S
H2148 C2158 0.950 . S
H2149 C2160 0.950 . S
H2150 C2162 0.950 . S
H2151 C2163 0.950 . S
C2152 H2144 0.950 . S
C2152 C2153 1.386 . S
C2152 C2154 1.391 . S
C2153 C2152 1.386 . S
C2153 C2157 1.393 . S
C2154 H2146 0.950 . S
C2154 C2152 1.391 . S
C2154 C2155 1.400 . S
C2155 C2154 1.400 . S
C2155 C2156 1.398 . S
C2155 C2161 1.491 . S
C2156 H2147 0.950 . S
C2156 C2155 1.398 . S
C2156 C2157 1.391 . S
C2157 H2145 0.950 . S
C2157 C2153 1.393 . S
C2157 C2156 1.391 . S
C2158 H2148 0.950 . S
C2158 C2159 1.386 . S
C2158 C2160 1.391 . S
C2159 C2158 1.386 . S
C2159 C2163 1.393 . S
C2160 H2149 0.950 . S
C2160 C2158 1.391 . S
C2160 C2161 1.400 . S
C2161 C2155 1.491 . S
C2161 C2160 1.400 . S
C2161 C2162 1.398 . S
C2162 H2150 0.950 . S
C2162 C2161 1.398 . S
C2162 C2163 1.391 . S
C2163 H2151 0.950 . S
C2163 C2159 1.393 . S
C2163 C2162 1.391 . S
H2164 C2172 0.950 . S
H2165 C2177 0.950 . S
H2166 C2174 0.950 . S
H2167 C2176 0.950 . S
H2168 C2178 0.950 . S
H2169 C2180 0.950 . S
H2170 C2182 0.950 . S
H2171 C2183 0.950 . S
C2172 H2164 0.950 . S
C2172 C2173 1.386 . S
C2172 C2174 1.391 . S
C2173 C2172 1.386 . S
C2173 C2177 1.393 . S
C2174 H2166 0.950 . S
C2174 C2172 1.391 . S
C2174 C2175 1.400 . S
C2175 C2174 1.400 . S
C2175 C2176 1.398 . S
C2175 C2181 1.491 . S
C2176 H2167 0.950 . S
C2176 C2175 1.398 . S
C2176 C2177 1.391 . S
C2177 H2165 0.950 . S
C2177 C2173 1.393 . S
C2177 C2176 1.391 . S
C2178 H2168 0.950 . S
C2178 C2179 1.386 . S
C2178 C2180 1.391 . S
C2179 C2178 1.386 . S
C2179 C2183 1.393 . S
C2180 H2169 0.950 . S
C2180 C2178 1.391 . S
C2180 C2181 1.400 . S
C2181 C2175 1.491 . S
C2181 C2180 1.400 . S
C2181 C2182 1.398 . S
C2182 H2170 0.950 . S
C2182 C2181 1.398 . S
C2182 C2183 1.391 . S
C2183 H2171 0.950 . S
C2183 C2179 1.393 . S
C2183 C2182 1.391 . S
H2184 C2192 0.950 . S
H2185 C2197 0.950 . S
H2186 C2194 0.950 . S
H2187 C2196 0.950 . S
H2188 C2198 0.950 . S
H2189 C2200 0.950 . S
H2190 C2202 0.950 . S
H2191 C2203 0.950 . S
C2192 H2184 0.950 . S
C2192 C2193 1.386 . S
C2192 C2194 1.391 . S
C2193 C2192 1.386 . S
C2193 C2197 1.393 . S
C2194 H2186 0.950 . S
C2194 C2192 1.391 . S
C2194 C2195 1.400 . S
C2195 C2194 1.400 . S
C2195 C2196 1.398 . S
C2195 C2201 1.491 . S
C2196 H2187 0.950 . S
C2196 C2195 1.398 . S
C2196 C2197 1.391 . S
C2197 H2185 0.950 . S
C2197 C2193 1.393 . S
C2197 C2196 1.391 . S
C2198 H2188 0.950 . S
C2198 C2199 1.386 . S
C2198 C2200 1.391 . S
C2199 C2198 1.386 . S
C2199 C2203 1.393 . S
C2200 H2189 0.950 . S
C2200 C2198 1.391 . S
C2200 C2201 1.400 . S
C2201 C2195 1.491 . S
C2201 C2200 1.400 . S
C2201 C2202 1.398 . S
C2202 H2190 0.950 . S
C2202 C2201 1.398 . S
C2202 C2203 1.391 . S
C2203 H2191 0.950 . S
C2203 C2199 1.393 . S
C2203 C2202 1.391 . S
H2204 C2212 0.950 . S
H2205 C2217 0.950 . S
H2206 C2214 0.950 . S
H2207 C2216 0.950 . S
H2208 C2218 0.950 . S
H2209 C2220 0.950 . S
H2210 C2222 0.950 . S
H2211 C2223 0.950 . S
C2212 H2204 0.950 . S
C2212 C2213 1.386 . S
C2212 C2214 1.391 . S
C2213 C2212 1.386 . S
C2213 C2217 1.393 . S
C2214 H2206 0.950 . S
C2214 C2212 1.391 . S
C2214 C2215 1.400 . S
C2215 C2214 1.400 . S
C2215 C2216 1.398 . S
C2215 C2221 1.491 . S
C2216 H2207 0.950 . S
C2216 C2215 1.398 . S
C2216 C2217 1.391 . S
C2217 H2205 0.950 . S
C2217 C2213 1.393 . S
C2217 C2216 1.391 . S
C2218 H2208 0.950 . S
C2218 C2219 1.386 . S
C2218 C2220 1.391 . S
C2219 C2218 1.386 . S
C2219 C2223 1.393 . S
C2220 H2209 0.950 . S
C2220 C2218 1.391 . S
C2220 C2221 1.400 . S
C2221 C2215 1.491 . S
C2221 C2220 1.400 . S
C2221 C2222 1.398 . S
C2222 H2210 0.950 . S
C2222 C2221 1.398 . S
C2222 C2223 1.391 . S
C2223 H2211 0.950 . S
C2223 C2219 1.393 . S
C2223 C2222 1.391 . S
H2224 C2232 0.950 . S
H2225 C2237 0.950 . S
H2226 C2234 0.950 . S
H2227 C2236 0.950 . S
H2228 C2238 0.950 . S
H2229 C2240 0.950 . S
H2230 C2242 0.950 . S
H2231 C2243 0.950 . S
C2232 H2224 0.950 . S
C2232 C2233 1.386 . S
C2232 C2234 1.391 . S
C2233 C2232 1.386 . S
C2233 C2237 1.393 . S
C2234 H2226 0.950 . S
C2234 C2232 1.391 . S
C2234 C2235 1.400 . S
C2235 C2234 1.400 . S
C2235 C2236 1.398 . S
C2235 C2241 1.491 . S
C2236 H2227 0.950 . S
C2236 C2235 1.398 . S
C2236 C2237 1.391 . S
C2237 H2225 0.950 . S
C2237 C2233 1.393 . S
C2237 C2236 1.391 . S
C2238 H2228 0.950 . S
C2238 C2239 1.386 . S
C2238 C2240 1.391 . S
C2239 C2238 1.386 . S
C2239 C2243 1.393 . S
C2240 H2229 0.950 . S
C2240 C2238 1.391 . S
C2240 C2241 1.400 . S
C2241 C2235 1.491 . S
C2241 C2240 1.400 . S
C2241 C2242 1.398 . S
C2242 H2230 0.950 . S
C2242 C2241 1.398 . S
C2242 C2243 1.391 . S
C2243 H2231 0.950 . S
C2243 C2239 1.393 . S
C2243 C2242 1.391 . S
H2244 C2252 0.950 . S
H2245 C2257 0.950 . S
H2246 C2254 0.950 . S
H2247 C2256 0.950 . S
H2248 C2258 0.950 . S
H2249 C2260 0.950 . S
H2250 C2262 0.950 . S
H2251 C2263 0.950 . S
C2252 H2244 0.950 . S
C2252 C2253 1.386 . S
C2252 C2254 1.391 . S
C2253 C2252 1.386 . S
C2253 C2257 1.393 . S
C2254 H2246 0.950 . S
C2254 C2252 1.391 . S
C2254 C2255 1.400 . S
C2255 C2254 1.400 . S
C2255 C2256 1.398 . S
C2255 C2261 1.491 . S
C2256 H2247 0.950 . S
C2256 C2255 1.398 . S
C2256 C2257 1.391 . S
C2257 H2245 0.950 . S
C2257 C2253 1.393 . S
C2257 C2256 1.391 . S
C2258 H2248 0.950 . S
C2258 C2259 1.386 . S
C2258 C2260 1.391 . S
C2259 C2258 1.386 . S
C2259 C2263 1.393 . S
C2260 H2249 0.950 . S
C2260 C2258 1.391 . S
C2260 C2261 1.400 . S
C2261 C2255 1.491 . S
C2261 C2260 1.400 . S
C2261 C2262 1.398 . S
C2262 H2250 0.950 . S
C2262 C2261 1.398 . S
C2262 C2263 1.391 . S
C2263 H2251 0.950 . S
C2263 C2259 1.393 . S
C2263 C2262 1.391 . S
H2264 C2272 0.950 . S
H2265 C2277 0.950 . S
H2266 C2274 0.950 . S
H2267 C2276 0.950 . S
H2268 C2278 0.950 . S
H2269 C2280 0.950 . S
H2270 C2282 0.950 . S
H2271 C2283 0.950 . S
C2272 H2264 0.950 . S
C2272 C2273 1.386 . S
C2272 C2274 1.391 . S
C2273 C2272 1.386 . S
C2273 C2277 1.393 . S
C2274 H2266 0.950 . S
C2274 C2272 1.391 . S
C2274 C2275 1.400 . S
C2275 C2274 1.400 . S
C2275 C2276 1.398 . S
C2275 C2281 1.491 . S
C2276 H2267 0.950 . S
C2276 C2275 1.398 . S
C2276 C2277 1.391 . S
C2277 H2265 0.950 . S
C2277 C2273 1.393 . S
C2277 C2276 1.391 . S
C2278 H2268 0.950 . S
C2278 C2279 1.386 . S
C2278 C2280 1.391 . S
C2279 C2278 1.386 . S
C2279 C2283 1.393 . S
C2280 H2269 0.950 . S
C2280 C2278 1.391 . S
C2280 C2281 1.400 . S
C2281 C2275 1.491 . S
C2281 C2280 1.400 . S
C2281 C2282 1.398 . S
C2282 H2270 0.950 . S
C2282 C2281 1.398 . S
C2282 C2283 1.391 . S
C2283 H2271 0.950 . S
C2283 C2279 1.393 . S
C2283 C2282 1.391 . S
H2284 C2292 0.950 . S
H2285 C2297 0.950 . S
H2286 C2294 0.950 . S
H2287 C2296 0.950 . S
H2288 C2298 0.950 . S
H2289 C2300 0.950 . S
H2290 C2302 0.950 . S
H2291 C2303 0.950 . S
C2292 H2284 0.950 . S
C2292 C2293 1.386 . S
C2292 C2294 1.391 . S
C2293 C2292 1.386 . S
C2293 C2297 1.393 . S
C2294 H2286 0.950 . S
C2294 C2292 1.391 . S
C2294 C2295 1.400 . S
C2295 C2294 1.400 . S
C2295 C2296 1.398 . S
C2295 C2301 1.491 . S
C2296 H2287 0.950 . S
C2296 C2295 1.398 . S
C2296 C2297 1.391 . S
C2297 H2285 0.950 . S
C2297 C2293 1.393 . S
C2297 C2296 1.391 . S
C2298 H2288 0.950 . S
C2298 C2299 1.386 . S
C2298 C2300 1.391 . S
C2299 C2298 1.386 . S
C2299 C2303 1.393 . S
C2300 H2289 0.950 . S
C2300 C2298 1.391 . S
C2300 C2301 1.400 . S
C2301 C2295 1.491 . S
C2301 C2300 1.400 . S
C2301 C2302 1.398 . S
C2302 H2290 0.950 . S
C2302 C2301 1.398 . S
C2302 C2303 1.391 . S
C2303 H2291 0.950 . S
C2303 C2299 1.393 . S
C2303 C2302 1.391 . S
H2304 C2312 0.950 . S
H2305 C2317 0.950 . S
H2306 C2314 0.950 . S
H2307 C2316 0.950 . S
H2308 C2318 0.950 . S
H2309 C2320 0.950 . S
H2310 C2322 0.950 . S
H2311 C2323 0.950 . S
C2312 H2304 0.950 . S
C2312 C2313 1.386 . S
C2312 C2314 1.391 . S
C2313 C2312 1.386 . S
C2313 C2317 1.393 . S
C2314 H2306 0.950 . S
C2314 C2312 1.391 . S
C2314 C2315 1.400 . S
C2315 C2314 1.400 . S
C2315 C2316 1.398 . S
C2315 C2321 1.491 . S
C2316 H2307 0.950 . S
C2316 C2315 1.398 . S
C2316 C2317 1.391 . S
C2317 H2305 0.950 . S
C2317 C2313 1.393 . S
C2317 C2316 1.391 . S
C2318 H2308 0.950 . S
C2318 C2319 1.386 . S
C2318 C2320 1.391 . S
C2319 C2318 1.386 . S
C2319 C2323 1.393 . S
C2320 H2309 0.950 . S
C2320 C2318 1.391 . S
C2320 C2321 1.400 . S
C2321 C2315 1.491 . S
C2321 C2320 1.400 . S
C2321 C2322 1.398 . S
C2322 H2310 0.950 . S
C2322 C2321 1.398 . S
C2322 C2323 1.391 . S
C2323 H2311 0.950 . S
C2323 C2319 1.393 . S
C2323 C2322 1.391 . S
H2324 C2332 0.950 . S
H2325 C2337 0.950 . S
H2326 C2334 0.950 . S
H2327 C2336 0.950 . S
H2328 C2338 0.950 . S
H2329 C2340 0.950 . S
H2330 C2342 0.950 . S
H2331 C2343 0.950 . S
C2332 H2324 0.950 . S
C2332 C2333 1.386 . S
C2332 C2334 1.391 . S
C2333 C2332 1.386 . S
C2333 C2337 1.393 . S
C2334 H2326 0.950 . S
C2334 C2332 1.391 . S
C2334 C2335 1.400 . S
C2335 C2334 1.400 . S
C2335 C2336 1.398 . S
C2335 C2341 1.491 . S
C2336 H2327 0.950 . S
C2336 C2335 1.398 . S
C2336 C2337 1.391 . S
C2337 H2325 0.950 . S
C2337 C2333 1.393 . S
C2337 C2336 1.391 . S
C2338 H2328 0.950 . S
C2338 C2339 1.386 . S
C2338 C2340 1.391 . S
C2339 C2338 1.386 . S
C2339 C2343 1.393 . S
C2340 H2329 0.950 . S
C2340 C2338 1.391 . S
C2340 C2341 1.400 . S
C2341 C2335 1.491 . S
C2341 C2340 1.400 . S
C2341 C2342 1.398 . S
C2342 H2330 0.950 . S
C2342 C2341 1.398 . S
C2342 C2343 1.391 . S
C2343 H2331 0.950 . S
C2343 C2339 1.393 . S
C2343 C2342 1.391 . S
H2344 C2352 0.950 . S
H2345 C2357 0.950 . S
H2346 C2354 0.950 . S
H2347 C2356 0.950 . S
H2348 C2358 0.950 . S
H2349 C2360 0.950 . S
H2350 C2362 0.950 . S
H2351 C2363 0.950 . S
C2352 H2344 0.950 . S
C2352 C2353 1.386 . S
C2352 C2354 1.391 . S
C2353 C2352 1.386 . S
C2353 C2357 1.393 . S
C2354 H2346 0.950 . S
C2354 C2352 1.391 . S
C2354 C2355 1.400 . S
C2355 C2354 1.400 . S
C2355 C2356 1.398 . S
C2355 C2361 1.491 . S
C2356 H2347 0.950 . S
C2356 C2355 1.398 . S
C2356 C2357 1.391 . S
C2357 H2345 0.950 . S
C2357 C2353 1.393 . S
C2357 C2356 1.391 . S
C2358 H2348 0.950 . S
C2358 C2359 1.386 . S
C2358 C2360 1.391 . S
C2359 C2358 1.386 . S
C2359 C2363 1.393 . S
C2360 H2349 0.950 . S
C2360 C2358 1.391 . S
C2360 C2361 1.400 . S
C2361 C2355 1.491 . S
C2361 C2360 1.400 . S
C2361 C2362 1.398 . S
C2362 H2350 0.950 . S
C2362 C2361 1.398 . S
C2362 C2363 1.391 . S
C2363 H2351 0.950 . S
C2363 C2359 1.393 . S
C2363 C2362 1.391 . S
H2364 C2372 0.950 . S
H2365 C2377 0.950 . S
H2366 C2374 0.950 . S
H2367 C2376 0.950 . S
H2368 C2378 0.950 . S
H2369 C2380 0.950 . S
H2370 C2382 0.950 . S
H2371 C2383 0.950 . S
C2372 H2364 0.950 . S
C2372 C2373 1.386 . S
C2372 C2374 1.391 . S
C2373 C2372 1.386 . S
C2373 C2377 1.393 1_554 S
C2374 H2366 0.950 . S
C2374 C2372 1.391 . S
C2374 C2375 1.400 1_554 S
C2375 C2374 1.400 1_556 S
C2375 C2376 1.398 . S
C2375 C2381 1.491 . S
C2376 H2367 0.950 . S
C2376 C2375 1.398 . S
C2376 C2377 1.391 . S
C2377 H2365 0.950 . S
C2377 C2373 1.393 1_556 S
C2377 C2376 1.391 . S
C2378 H2368 0.950 . S
C2378 C2379 1.386 . S
C2378 C2380 1.391 . S
C2379 C2378 1.386 . S
C2379 C2383 1.393 . S
C2380 H2369 0.950 . S
C2380 C2378 1.391 . S
C2380 C2381 1.400 . S
C2381 C2375 1.491 . S
C2381 C2380 1.400 . S
C2381 C2382 1.398 . S
C2382 H2370 0.950 . S
C2382 C2381 1.398 . S
C2382 C2383 1.391 . S
C2383 H2371 0.950 . S
C2383 C2379 1.393 . S
C2383 C2382 1.391 . S
H2384 C2392 0.950 . S
H2385 C2397 0.950 . S
H2386 C2394 0.950 1_554 S
H2387 C2396 0.950 . S
H2388 C2398 0.950 . S
H2389 C2400 0.950 . S
H2390 C2402 0.950 . S
H2391 C2403 0.950 . S
C2392 H2384 0.950 . S
C2392 C2393 1.386 1_554 S
C2392 C2394 1.391 1_554 S
C2393 C2392 1.386 1_556 S
C2393 C2397 1.393 . S
C2394 H2386 0.950 1_556 S
C2394 C2392 1.391 1_556 S
C2394 C2395 1.400 . S
C2395 C2394 1.400 . S
C2395 C2396 1.398 . S
C2395 C2401 1.491 . S
C2396 H2387 0.950 . S
C2396 C2395 1.398 . S
C2396 C2397 1.391 . S
C2397 H2385 0.950 . S
C2397 C2393 1.393 . S
C2397 C2396 1.391 . S
C2398 H2388 0.950 . S
C2398 C2399 1.386 . S
C2398 C2400 1.391 . S
C2399 C2398 1.386 . S
C2399 C2403 1.393 . S
C2400 H2389 0.950 . S
C2400 C2398 1.391 . S
C2400 C2401 1.400 . S
C2401 C2395 1.491 . S
C2401 C2400 1.400 . S
C2401 C2402 1.398 . S
C2402 H2390 0.950 . S
C2402 C2401 1.398 . S
C2402 C2403 1.391 . S
C2403 H2391 0.950 . S
C2403 C2399 1.393 . S
C2403 C2402 1.391 . S
H2404 C2412 0.950 . S
H2405 C2417 0.950 . S
H2406 C2414 0.950 . S
H2407 C2416 0.950 1_556 S
H2408 C2418 0.950 . S
H2409 C2420 0.950 . S
H2410 C2422 0.950 . S
H2411 C2423 0.950 . S
C2412 H2404 0.950 . S
C2412 C2413 1.386 . S
C2412 C2414 1.391 . S
C2413 C2412 1.386 . S
C2413 C2417 1.393 . S
C2414 H2406 0.950 . S
C2414 C2412 1.391 . S
C2414 C2415 1.400 . S
C2415 C2414 1.400 . S
C2415 C2416 1.398 . S
C2415 C2421 1.491 . S
C2416 H2407 0.950 1_554 S
C2416 C2415 1.398 . S
C2416 C2417 1.391 . S
C2417 H2405 0.950 . S
C2417 C2413 1.393 . S
C2417 C2416 1.391 . S
C2418 H2408 0.950 . S
C2418 C2419 1.386 . S
C2418 C2420 1.391 . S
C2419 C2418 1.386 . S
C2419 C2423 1.393 1_556 S
C2420 H2409 0.950 . S
C2420 C2418 1.391 . S
C2420 C2421 1.400 1_556 S
C2421 C2415 1.491 . S
C2421 C2420 1.400 1_554 S
C2421 C2422 1.398 . S
C2422 H2410 0.950 . S
C2422 C2421 1.398 . S
C2422 C2423 1.391 . S
C2423 H2411 0.950 . S
C2423 C2419 1.393 1_554 S
C2423 C2422 1.391 . S
H2424 C2432 0.950 . S
H2425 C2437 0.950 . S
H2426 C2434 0.950 . S
H2427 C2436 0.950 . S
H2428 C2438 0.950 . S
H2429 C2440 0.950 . S
H2430 C2442 0.950 . S
H2431 C2443 0.950 . S
C2432 H2424 0.950 . S
C2432 C2433 1.386 1_556 S
C2432 C2434 1.391 . S
C2433 C2432 1.386 1_554 S
C2433 C2437 1.393 . S
C2434 H2426 0.950 . S
C2434 C2432 1.391 . S
C2434 C2435 1.400 . S
C2435 C2434 1.400 . S
C2435 C2436 1.398 1_556 S
C2435 C2441 1.491 . S
C2436 H2427 0.950 . S
C2436 C2435 1.398 1_554 S
C2436 C2437 1.391 . S
C2437 H2425 0.950 . S
C2437 C2433 1.393 . S
C2437 C2436 1.391 . S
C2438 H2428 0.950 . S
C2438 C2439 1.386 . S
C2438 C2440 1.391 . S
C2439 C2438 1.386 . S
C2439 C2443 1.393 . S
C2440 H2429 0.950 . S
C2440 C2438 1.391 . S
C2440 C2441 1.400 . S
C2441 C2435 1.491 . S
C2441 C2440 1.400 . S
C2441 C2442 1.398 . S
C2442 H2430 0.950 . S
C2442 C2441 1.398 . S
C2442 C2443 1.391 . S
C2443 H2431 0.950 . S
C2443 C2439 1.393 . S
C2443 C2442 1.391 . S
H2444 C2452 0.950 . S
H2445 C2457 0.950 . S
H2446 C2454 0.950 . S
H2447 C2456 0.950 . S
H2448 C2458 0.950 . S
H2449 C2460 0.950 . S
H2450 C2462 0.950 . S
H2451 C2463 0.950 . S
C2452 H2444 0.950 . S
C2452 C2453 1.386 . S
C2452 C2454 1.391 . S
C2453 C2452 1.386 . S
C2453 C2457 1.393 . S
C2454 H2446 0.950 . S
C2454 C2452 1.391 . S
C2454 C2455 1.400 . S
C2455 C2454 1.400 . S
C2455 C2456 1.398 . S
C2455 C2461 1.491 . S
C2456 H2447 0.950 . S
C2456 C2455 1.398 . S
C2456 C2457 1.391 . S
C2457 H2445 0.950 . S
C2457 C2453 1.393 . S
C2457 C2456 1.391 . S
C2458 H2448 0.950 . S
C2458 C2459 1.386 . S
C2458 C2460 1.391 . S
C2459 C2458 1.386 . S
C2459 C2463 1.393 . S
C2460 H2449 0.950 . S
C2460 C2458 1.391 . S
C2460 C2461 1.400 . S
C2461 C2455 1.491 . S
C2461 C2460 1.400 . S
C2461 C2462 1.398 . S
C2462 H2450 0.950 . S
C2462 C2461 1.398 . S
C2462 C2463 1.391 . S
C2463 H2451 0.950 . S
C2463 C2459 1.393 . S
C2463 C2462 1.391 . S
H2464 C2472 0.950 . S
H2465 C2477 0.950 . S
H2466 C2474 0.950 . S
H2467 C2476 0.950 . S
H2468 C2478 0.950 . S
H2469 C2480 0.950 . S
H2470 C2482 0.950 . S
H2471 C2483 0.942 1_554 S
C2472 H2464 0.950 . S
C2472 C2473 1.386 . S
C2472 C2474 1.391 . S
C2473 C2472 1.386 . S
C2473 C2477 1.393 . S
C2474 H2466 0.950 . S
C2474 C2472 1.391 . S
C2474 C2475 1.400 . S
C2475 C2474 1.400 . S
C2475 C2476 1.398 1_554 S
C2475 C2481 1.491 1_554 S
C2476 H2467 0.950 . S
C2476 C2475 1.398 1_556 S
C2476 C2477 1.391 1_556 S
C2477 H2465 0.950 . S
C2477 C2473 1.393 . S
C2477 C2476 1.391 1_554 S
C2478 H2468 0.950 . S
C2478 C2479 1.386 . S
C2478 C2480 1.391 . S
C2479 C2478 1.386 . S
C2479 C2483 1.393 . S
C2480 H2469 0.950 . S
C2480 C2478 1.391 . S
C2480 C2481 1.400 . S
C2481 C2475 1.491 1_556 S
C2481 C2480 1.400 . S
C2481 C2482 1.398 1_556 S
C2482 H2470 0.950 . S
C2482 C2481 1.398 1_554 S
C2482 C2483 1.391 1_554 S
C2483 H2471 0.942 1_556 S
C2483 C2479 1.393 . S
C2483 C2482 1.391 1_556 S
H2484 C2492 0.950 . S
H2485 C2497 0.950 . S
H2486 C2494 0.950 . S
H2487 C2496 0.950 . S
H2488 C2498 0.950 . S
H2489 C2500 0.950 . S
H2490 C2502 0.950 . S
H2491 C2503 0.950 . S
C2492 H2484 0.950 . S
C2492 C2493 1.386 . S
C2492 C2494 1.391 . S
C2493 C2492 1.386 . S
C2493 C2497 1.393 . S
C2494 H2486 0.950 . S
C2494 C2492 1.391 . S
C2494 C2495 1.400 . S
C2495 C2494 1.400 . S
C2495 C2496 1.398 . S
C2495 C2501 1.491 . S
C2496 H2487 0.950 . S
C2496 C2495 1.398 . S
C2496 C2497 1.391 . S
C2497 H2485 0.950 . S
C2497 C2493 1.393 . S
C2497 C2496 1.391 . S
C2498 H2488 0.950 . S
C2498 C2499 1.386 . S
C2498 C2500 1.391 . S
C2499 C2498 1.386 . S
C2499 C2503 1.393 . S
C2500 H2489 0.950 . S
C2500 C2498 1.391 . S
C2500 C2501 1.400 . S
C2501 C2495 1.491 . S
C2501 C2500 1.400 . S
C2501 C2502 1.398 . S
C2502 H2490 0.950 . S
C2502 C2501 1.398 . S
C2502 C2503 1.391 . S
C2503 H2491 0.950 . S
C2503 C2499 1.393 . S
C2503 C2502 1.391 . S
H2504 C2512 0.950 . S
H2505 C2517 0.950 . S
H2506 C2514 0.950 . S
H2507 C2516 0.950 . S
H2508 C2518 0.950 . S
H2509 C2520 0.950 . S
H2510 C2522 0.950 . S
H2511 C2523 0.950 . S
C2512 H2504 0.950 . S
C2512 C2513 1.386 . S
C2512 C2514 1.391 . S
C2513 C2512 1.386 . S
C2513 C2517 1.393 . S
C2514 H2506 0.950 . S
C2514 C2512 1.391 . S
C2514 C2515 1.400 . S
C2515 C2514 1.400 . S
C2515 C2516 1.398 . S
C2515 C2521 1.491 . S
C2516 H2507 0.950 . S
C2516 C2515 1.398 . S
C2516 C2517 1.391 . S
C2517 H2505 0.950 . S
C2517 C2513 1.393 . S
C2517 C2516 1.391 . S
C2518 H2508 0.950 . S
C2518 C2519 1.386 . S
C2518 C2520 1.391 . S
C2519 C2518 1.386 . S
C2519 C2523 1.393 . S
C2520 H2509 0.950 . S
C2520 C2518 1.391 . S
C2520 C2521 1.400 . S
C2521 C2515 1.491 . S
C2521 C2520 1.400 . S
C2521 C2522 1.398 . S
C2522 H2510 0.950 . S
C2522 C2521 1.398 . S
C2522 C2523 1.391 . S
C2523 H2511 0.950 . S
C2523 C2519 1.393 . S
C2523 C2522 1.391 . S
H2524 C2532 0.950 . S
H2525 C2537 0.950 . S
H2526 C2534 0.950 . S
H2527 C2536 0.950 . S
H2528 C2538 0.950 . S
H2529 C2540 0.950 . S
H2530 C2542 0.950 . S
H2531 C2543 0.950 . S
C2532 H2524 0.950 . S
C2532 C2533 1.386 . S
C2532 C2534 1.391 . S
C2533 C2532 1.386 . S
C2533 C2537 1.393 . S
C2534 H2526 0.950 . S
C2534 C2532 1.391 . S
C2534 C2535 1.400 . S
C2535 C2534 1.400 . S
C2535 C2536 1.398 . S
C2535 C2541 1.491 . S
C2536 H2527 0.950 . S
C2536 C2535 1.398 . S
C2536 C2537 1.391 . S
C2537 H2525 0.950 . S
C2537 C2533 1.393 . S
C2537 C2536 1.391 . S
C2538 H2528 0.950 . S
C2538 C2539 1.386 . S
C2538 C2540 1.391 . S
C2539 C2538 1.386 . S
C2539 C2543 1.393 . S
C2540 H2529 0.950 . S
C2540 C2538 1.391 . S
C2540 C2541 1.400 . S
C2541 C2535 1.491 . S
C2541 C2540 1.400 . S
C2541 C2542 1.398 . S
C2542 H2530 0.950 . S
C2542 C2541 1.398 . S
C2542 C2543 1.391 . S
C2543 H2531 0.950 . S
C2543 C2539 1.393 . S
C2543 C2542 1.391 . S
H2544 C2552 0.950 . S
H2545 C2557 0.950 . S
H2546 C2554 0.950 . S
H2547 C2556 0.950 . S
H2548 C2558 0.950 . S
H2549 C2560 0.950 . S
H2550 C2562 0.950 . S
H2551 C2563 0.950 . S
C2552 H2544 0.950 . S
C2552 C2553 1.386 . S
C2552 C2554 1.391 . S
C2553 C2552 1.386 . S
C2553 C2557 1.393 . S
C2554 H2546 0.950 . S
C2554 C2552 1.391 . S
C2554 C2555 1.400 . S
C2555 C2554 1.400 . S
C2555 C2556 1.398 . S
C2555 C2561 1.491 . S
C2556 H2547 0.950 . S
C2556 C2555 1.398 . S
C2556 C2557 1.391 . S
C2557 H2545 0.950 . S
C2557 C2553 1.393 . S
C2557 C2556 1.391 . S
C2558 H2548 0.950 . S
C2558 C2559 1.386 . S
C2558 C2560 1.391 . S
C2559 C2558 1.386 . S
C2559 C2563 1.393 . S
C2560 H2549 0.950 . S
C2560 C2558 1.391 . S
C2560 C2561 1.400 . S
C2561 C2555 1.491 . S
C2561 C2560 1.400 . S
C2561 C2562 1.398 . S
C2562 H2550 0.950 . S
C2562 C2561 1.398 . S
C2562 C2563 1.391 . S
C2563 H2551 0.950 . S
C2563 C2559 1.393 . S
C2563 C2562 1.391 . S
H2564 C2572 0.950 . S
H2565 C2577 0.950 . S
H2566 C2574 0.950 . S
H2567 C2576 0.950 . S
H2568 C2578 0.950 . S
H2569 C2580 0.950 . S
H2570 C2582 0.950 . S
H2571 C2583 0.950 . S
C2572 H2564 0.950 . S
C2572 C2573 1.386 . S
C2572 C2574 1.391 . S
C2573 C2572 1.386 . S
C2573 C2577 1.393 . S
C2574 H2566 0.950 . S
C2574 C2572 1.391 . S
C2574 C2575 1.400 . S
C2575 C2574 1.400 . S
C2575 C2576 1.398 . S
C2575 C2581 1.491 . S
C2576 H2567 0.950 . S
C2576 C2575 1.398 . S
C2576 C2577 1.391 . S
C2577 H2565 0.950 . S
C2577 C2573 1.393 . S
C2577 C2576 1.391 . S
C2578 H2568 0.950 . S
C2578 C2579 1.386 . S
C2578 C2580 1.391 . S
C2579 C2578 1.386 . S
C2579 C2583 1.393 . S
C2580 H2569 0.950 . S
C2580 C2578 1.391 . S
C2580 C2581 1.400 . S
C2581 C2575 1.491 . S
C2581 C2580 1.400 . S
C2581 C2582 1.398 . S
C2582 H2570 0.950 . S
C2582 C2581 1.398 . S
C2582 C2583 1.391 . S
C2583 H2571 0.950 . S
C2583 C2579 1.393 . S
C2583 C2582 1.391 . S
H2584 C2592 0.950 1_455 S
H2585 C2597 0.950 . S
H2586 C2594 0.950 . S
H2587 C2596 0.950 . S
H2588 C2598 0.950 . S
H2589 C2600 0.950 . S
H2590 C2602 0.950 . S
H2591 C2603 0.950 . S
C2592 H2584 0.950 1_655 S
C2592 C2593 1.386 . S
C2592 C2594 1.391 . S
C2593 C2592 1.386 . S
C2593 C2597 1.393 . S
C2594 H2586 0.950 . S
C2594 C2592 1.391 . S
C2594 C2595 1.400 . S
C2595 C2594 1.400 . S
C2595 C2596 1.398 . S
C2595 C2601 1.491 . S
C2596 H2587 0.950 . S
C2596 C2595 1.398 . S
C2596 C2597 1.391 . S
C2597 H2585 0.950 . S
C2597 C2593 1.393 . S
C2597 C2596 1.391 . S
C2598 H2588 0.950 . S
C2598 C2599 1.386 . S
C2598 C2600 1.391 . S
C2599 C2598 1.386 . S
C2599 C2603 1.393 . S
C2600 H2589 0.950 . S
C2600 C2598 1.391 . S
C2600 C2601 1.400 . S
C2601 C2595 1.491 . S
C2601 C2600 1.400 . S
C2601 C2602 1.398 . S
C2602 H2590 0.950 . S
C2602 C2601 1.398 . S
C2602 C2603 1.391 . S
C2603 H2591 0.950 . S
C2603 C2599 1.393 . S
C2603 C2602 1.391 . S
H2604 C2612 0.950 . S
H2605 C2617 0.950 . S
H2606 C2614 0.950 . S
H2607 C2616 0.950 . S
H2608 C2618 0.950 1_655 S
H2609 C2620 0.976 . S
H2610 C2622 0.950 . S
H2611 C2623 0.950 . S
C2612 H2604 0.950 . S
C2612 C2613 1.386 . S
C2612 C2614 1.391 . S
C2613 C2612 1.386 . S
C2613 C2617 1.393 . S
C2614 H2606 0.950 . S
C2614 C2612 1.391 . S
C2614 C2615 1.400 . S
C2615 C2614 1.400 . S
C2615 C2616 1.398 . S
C2615 C2621 1.491 . S
C2616 H2607 0.950 . S
C2616 C2615 1.398 . S
C2616 C2617 1.391 . S
C2617 H2605 0.950 . S
C2617 C2613 1.393 . S
C2617 C2616 1.391 . S
C2618 H2608 0.950 1_455 S
C2618 C2619 1.386 . S
C2618 C2620 1.391 . S
C2619 C2618 1.386 . S
C2619 C2623 1.393 . S
C2620 H2609 0.976 . S
C2620 C2618 1.391 . S
C2620 C2621 1.400 . S
C2621 C2615 1.491 . S
C2621 C2620 1.400 . S
C2621 C2622 1.398 . S
C2622 H2610 0.950 . S
C2622 C2621 1.398 . S
C2622 C2623 1.391 . S
C2623 H2611 0.950 . S
C2623 C2619 1.393 . S
C2623 C2622 1.391 . S
H2624 C2632 0.950 . S
H2625 C2637 0.950 . S
H2626 C2634 0.950 . S
H2627 C2636 0.950 . S
H2628 C2638 0.950 . S
H2629 C2640 0.950 . S
H2630 C2642 0.950 . S
H2631 C2643 0.950 . S
C2632 H2624 0.950 . S
C2632 C2633 1.386 . S
C2632 C2634 1.391 . S
C2633 C2632 1.386 . S
C2633 C2637 1.393 . S
C2634 H2626 0.950 . S
C2634 C2632 1.391 . S
C2634 C2635 1.400 . S
C2635 C2634 1.400 . S
C2635 C2636 1.398 . S
C2635 C2641 1.491 . S
C2636 H2627 0.950 . S
C2636 C2635 1.398 . S
C2636 C2637 1.391 . S
C2637 H2625 0.950 . S
C2637 C2633 1.393 . S
C2637 C2636 1.391 . S
C2638 H2628 0.950 . S
C2638 C2639 1.386 . S
C2638 C2640 1.391 . S
C2639 C2638 1.386 . S
C2639 C2643 1.393 . S
C2640 H2629 0.950 . S
C2640 C2638 1.391 . S
C2640 C2641 1.400 . S
C2641 C2635 1.491 . S
C2641 C2640 1.400 . S
C2641 C2642 1.398 . S
C2642 H2630 0.950 . S
C2642 C2641 1.398 . S
C2642 C2643 1.391 . S
C2643 H2631 0.950 . S
C2643 C2639 1.393 . S
C2643 C2642 1.391 . S
H2644 C2652 0.950 . S
H2645 C2657 0.950 . S
H2646 C2654 0.950 . S
H2647 C2656 0.950 . S
H2648 C2658 0.950 . S
H2649 C2660 0.950 . S
H2650 C2662 0.950 . S
H2651 C2663 0.921 1_545 S
C2652 H2644 0.950 . S
C2652 C2653 1.386 . S
C2652 C2654 1.391 . S
C2653 C2652 1.386 . S
C2653 C2657 1.393 . S
C2654 H2646 0.950 . S
C2654 C2652 1.391 . S
C2654 C2655 1.400 . S
C2655 C2654 1.400 . S
C2655 C2656 1.398 . S
C2655 C2661 1.491 . S
C2656 H2647 0.950 . S
C2656 C2655 1.398 . S
C2656 C2657 1.391 . S
C2657 H2645 0.950 . S
C2657 C2653 1.393 . S
C2657 C2656 1.391 . S
C2658 H2648 0.950 . S
C2658 C2659 1.386 . S
C2658 C2660 1.391 . S
C2659 C2658 1.386 . S
C2659 C2663 1.393 . S
C2660 H2649 0.950 . S
C2660 C2658 1.391 . S
C2660 C2661 1.400 . S
C2661 C2655 1.491 . S
C2661 C2660 1.400 . S
C2661 C2662 1.398 . S
C2662 H2650 0.950 . S
C2662 C2661 1.398 . S
C2662 C2663 1.391 . S
C2663 H2651 0.921 1_565 S
C2663 C2659 1.393 . S
C2663 C2662 1.391 . S
H2664 C2672 0.950 . S
H2665 C2677 0.957 . S
H2666 C2674 0.950 . S
H2667 C2676 0.950 1_545 S
H2668 C2678 0.950 . S
H2669 C2680 0.950 . S
H2670 C2682 0.950 . S
H2671 C2683 0.950 . S
C2672 H2664 0.950 . S
C2672 C2673 1.386 . S
C2672 C2674 1.391 . S
C2673 C2672 1.386 . S
C2673 C2677 1.393 . S
C2674 H2666 0.950 . S
C2674 C2672 1.391 . S
C2674 C2675 1.400 . S
C2675 C2674 1.400 . S
C2675 C2676 1.398 . S
C2675 C2681 1.491 . S
C2676 H2667 0.950 1_565 S
C2676 C2675 1.398 . S
C2676 C2677 1.391 . S
C2677 H2665 0.957 . S
C2677 C2673 1.393 . S
C2677 C2676 1.391 . S
C2678 H2668 0.950 . S
C2678 C2679 1.382 1_545 S
C2678 C2680 1.391 . S
C2679 C2678 1.382 1_565 S
C2679 C2683 1.405 . S
C2680 H2669 0.950 . S
C2680 C2678 1.391 . S
C2680 C2681 1.400 1_545 S
C2681 C2675 1.491 . S
C2681 C2680 1.400 1_565 S
C2681 C2682 1.398 . S
C2682 H2670 0.950 . S
C2682 C2681 1.398 . S
C2682 C2683 1.391 . S
C2683 H2671 0.950 . S
C2683 C2679 1.405 . S
C2683 C2682 1.391 . S
H2684 C2692 0.950 . S
H2685 C2697 0.950 . S
H2686 C2694 0.950 . S
H2687 C2696 0.950 . S
H2688 C2698 0.939 1_655 S
H2689 C2700 0.950 . S
H2690 C2702 0.950 . S
H2691 C2703 0.950 . S
C2692 H2684 0.950 . S
C2692 C2693 1.386 . S
C2692 C2694 1.391 . S
C2693 C2692 1.386 . S
C2693 C2697 1.393 . S
C2694 H2686 0.950 . S
C2694 C2692 1.391 . S
C2694 C2695 1.400 . S
C2695 C2694 1.400 . S
C2695 C2696 1.398 . S
C2695 C2701 1.491 . S
C2696 H2687 0.950 . S
C2696 C2695 1.398 . S
C2696 C2697 1.391 . S
C2697 H2685 0.950 . S
C2697 C2693 1.393 . S
C2697 C2696 1.391 . S
C2698 H2688 0.939 1_455 S
C2698 C2699 1.423 1_455 S
C2698 C2700 1.382 . S
C2699 C2698 1.423 1_655 S
C2699 C2703 1.387 1_655 S
C2700 H2689 0.950 . S
C2700 C2698 1.382 . S
C2700 C2701 1.400 . S
C2701 C2695 1.491 . S
C2701 C2700 1.400 . S
C2701 C2702 1.398 . S
C2702 H2690 0.950 . S
C2702 C2701 1.398 . S
C2702 C2703 1.391 . S
C2703 H2691 0.950 . S
C2703 C2699 1.387 1_455 S
C2703 C2702 1.391 . S
H2704 C2712 0.950 . S
H2705 C2717 0.950 . S
H2706 C2714 0.950 . S
H2707 C2716 0.950 . S
H2708 C2718 0.950 . S
H2709 C2720 0.950 . S
H2710 C2722 0.950 . S
H2711 C2723 0.950 . S
C2712 H2704 0.950 . S
C2712 C2713 1.386 . S
C2712 C2714 1.391 . S
C2713 C2712 1.386 . S
C2713 C2717 1.393 . S
C2714 H2706 0.950 . S
C2714 C2712 1.391 . S
C2714 C2715 1.400 . S
C2715 C2714 1.400 . S
C2715 C2716 1.398 . S
C2715 C2721 1.491 . S
C2716 H2707 0.950 . S
C2716 C2715 1.398 . S
C2716 C2717 1.391 . S
C2717 H2705 0.950 . S
C2717 C2713 1.393 . S
C2717 C2716 1.391 . S
C2718 H2708 0.950 . S
C2718 C2719 1.386 . S
C2718 C2720 1.391 . S
C2719 C2718 1.386 . S
C2719 C2723 1.393 . S
C2720 H2709 0.950 . S
C2720 C2718 1.391 . S
C2720 C2721 1.400 . S
C2721 C2715 1.491 . S
C2721 C2720 1.400 . S
C2721 C2722 1.398 . S
C2722 H2710 0.950 . S
C2722 C2721 1.398 . S
C2722 C2723 1.391 . S
C2723 H2711 0.950 . S
C2723 C2719 1.393 . S
C2723 C2722 1.391 . S
H2724 C2732 0.950 . S
H2725 C2737 0.950 . S
H2726 C2734 0.950 . S
H2727 C2736 0.950 . S
H2728 C2738 0.950 . S
H2729 C2740 0.950 . S
H2730 C2742 0.950 . S
H2731 C2743 0.950 . S
C2732 H2724 0.950 . S
C2732 C2733 1.386 . S
C2732 C2734 1.391 . S
C2733 C2732 1.386 . S
C2733 C2737 1.393 . S
C2734 H2726 0.950 . S
C2734 C2732 1.391 . S
C2734 C2735 1.400 . S
C2735 C2734 1.400 . S
C2735 C2736 1.398 . S
C2735 C2741 1.491 . S
C2736 H2727 0.950 . S
C2736 C2735 1.398 . S
C2736 C2737 1.391 . S
C2737 H2725 0.950 . S
C2737 C2733 1.393 . S
C2737 C2736 1.391 . S
C2738 H2728 0.950 . S
C2738 C2739 1.386 . S
C2738 C2740 1.391 . S
C2739 C2738 1.386 . S
C2739 C2743 1.393 . S
C2740 H2729 0.950 . S
C2740 C2738 1.391 . S
C2740 C2741 1.400 . S
C2741 C2735 1.491 . S
C2741 C2740 1.400 . S
C2741 C2742 1.398 . S
C2742 H2730 0.950 . S
C2742 C2741 1.398 . S
C2742 C2743 1.391 . S
C2743 H2731 0.950 . S
C2743 C2739 1.393 . S
C2743 C2742 1.391 . S
H2744 C2752 0.950 . S
H2745 C2757 0.950 . S
H2746 C2754 0.950 . S
H2747 C2756 0.950 . S
H2748 C2758 0.950 . S
H2749 C2760 0.950 . S
H2750 C2762 0.950 . S
H2751 C2763 0.950 . S
C2752 H2744 0.950 . S
C2752 C2753 1.386 . S
C2752 C2754 1.391 . S
C2753 C2752 1.386 . S
C2753 C2757 1.393 . S
C2754 H2746 0.950 . S
C2754 C2752 1.391 . S
C2754 C2755 1.400 . S
C2755 C2754 1.400 . S
C2755 C2756 1.398 . S
C2755 C2761 1.491 . S
C2756 H2747 0.950 . S
C2756 C2755 1.398 . S
C2756 C2757 1.391 . S
C2757 H2745 0.950 . S
C2757 C2753 1.393 . S
C2757 C2756 1.391 . S
C2758 H2748 0.950 . S
C2758 C2759 1.386 . S
C2758 C2760 1.391 . S
C2759 C2758 1.386 . S
C2759 C2763 1.393 . S
C2760 H2749 0.950 . S
C2760 C2758 1.391 . S
C2760 C2761 1.400 . S
C2761 C2755 1.491 . S
C2761 C2760 1.400 . S
C2761 C2762 1.398 . S
C2762 H2750 0.950 . S
C2762 C2761 1.398 . S
C2762 C2763 1.391 . S
C2763 H2751 0.950 . S
C2763 C2759 1.393 . S
C2763 C2762 1.391 . S
H2764 C2772 0.950 . S
H2765 C2777 0.950 . S
H2766 C2774 0.950 . S
H2767 C2776 0.950 . S
H2768 C2778 0.950 . S
H2769 C2780 0.950 . S
H2770 C2782 0.950 . S
H2771 C2783 0.950 . S
C2772 H2764 0.950 . S
C2772 C2773 1.386 . S
C2772 C2774 1.391 . S
C2773 C2772 1.386 . S
C2773 C2777 1.393 . S
C2774 H2766 0.950 . S
C2774 C2772 1.391 . S
C2774 C2775 1.400 . S
C2775 C2774 1.400 . S
C2775 C2776 1.398 . S
C2775 C2781 1.491 . S
C2776 H2767 0.950 . S
C2776 C2775 1.398 . S
C2776 C2777 1.391 . S
C2777 H2765 0.950 . S
C2777 C2773 1.393 . S
C2777 C2776 1.391 . S
C2778 H2768 0.950 . S
C2778 C2779 1.386 . S
C2778 C2780 1.391 . S
C2779 C2778 1.386 . S
C2779 C2783 1.393 . S
C2780 H2769 0.950 . S
C2780 C2778 1.391 . S
C2780 C2781 1.400 . S
C2781 C2775 1.491 . S
C2781 C2780 1.400 . S
C2781 C2782 1.398 . S
C2782 H2770 0.950 . S
C2782 C2781 1.398 . S
C2782 C2783 1.391 . S
C2783 H2771 0.950 . S
C2783 C2779 1.393 . S
C2783 C2782 1.391 . S
H2784 C2792 0.950 . S
H2785 C2797 0.950 . S
H2786 C2794 0.950 . S
H2787 C2796 0.950 . S
H2788 C2798 0.950 . S
H2789 C2800 0.950 . S
H2790 C2802 0.950 . S
H2791 C2803 0.950 . S
C2792 H2784 0.950 . S
C2792 C2793 1.386 . S
C2792 C2794 1.391 . S
C2793 C2792 1.386 . S
C2793 C2797 1.393 . S
C2794 H2786 0.950 . S
C2794 C2792 1.391 . S
C2794 C2795 1.400 . S
C2795 C2794 1.400 . S
C2795 C2796 1.398 . S
C2795 C2801 1.491 . S
C2796 H2787 0.950 . S
C2796 C2795 1.398 . S
C2796 C2797 1.391 . S
C2797 H2785 0.950 . S
C2797 C2793 1.393 . S
C2797 C2796 1.391 . S
C2798 H2788 0.950 . S
C2798 C2799 1.386 . S
C2798 C2800 1.391 . S
C2799 C2798 1.386 . S
C2799 C2803 1.393 . S
C2800 H2789 0.950 . S
C2800 C2798 1.391 . S
C2800 C2801 1.400 . S
C2801 C2795 1.491 . S
C2801 C2800 1.400 . S
C2801 C2802 1.398 . S
C2802 H2790 0.950 . S
C2802 C2801 1.398 . S
C2802 C2803 1.391 . S
C2803 H2791 0.950 . S
C2803 C2799 1.393 . S
C2803 C2802 1.391 . S
H2804 C2812 0.950 . S
H2805 C2817 0.950 . S
H2806 C2814 0.950 . S
H2807 C2816 0.950 . S
H2808 C2818 0.950 1_455 S
H2809 C2820 0.950 . S
H2810 C2822 0.950 . S
H2811 C2823 0.950 . S
C2812 H2804 0.950 . S
C2812 C2813 1.386 . S
C2812 C2814 1.391 . S
C2813 C2812 1.386 . S
C2813 C2817 1.393 . S
C2814 H2806 0.950 . S
C2814 C2812 1.391 . S
C2814 C2815 1.400 . S
C2815 C2814 1.400 . S
C2815 C2816 1.398 . S
C2815 C2821 1.491 . S
C2816 H2807 0.950 . S
C2816 C2815 1.398 . S
C2816 C2817 1.391 . S
C2817 H2805 0.950 . S
C2817 C2813 1.393 . S
C2817 C2816 1.391 . S
C2818 H2808 0.950 1_655 S
C2818 C2819 1.386 . S
C2818 C2820 1.391 . S
C2819 C2818 1.386 . S
C2819 C2823 1.393 . S
C2820 H2809 0.950 . S
C2820 C2818 1.391 . S
C2820 C2821 1.400 . S
C2821 C2815 1.491 . S
C2821 C2820 1.400 . S
C2821 C2822 1.398 . S
C2822 H2810 0.950 . S
C2822 C2821 1.398 . S
C2822 C2823 1.391 . S
C2823 H2811 0.950 . S
C2823 C2819 1.393 . S
C2823 C2822 1.391 . S
H2824 C2832 0.950 . S
H2825 C2837 0.950 . S
H2826 C2834 0.950 . S
H2827 C2836 0.950 . S
H2828 C2838 0.950 . S
H2829 C2840 0.950 . S
H2830 C2842 0.950 . S
H2831 C2843 0.950 . S
C2832 H2824 0.950 . S
C2832 C2833 1.386 . S
C2832 C2834 1.391 . S
C2833 C2832 1.386 . S
C2833 C2837 1.393 . S
C2834 H2826 0.950 . S
C2834 C2832 1.391 . S
C2834 C2835 1.400 . S
C2835 C2834 1.400 . S
C2835 C2836 1.398 . S
C2835 C2841 1.491 . S
C2836 H2827 0.950 . S
C2836 C2835 1.398 . S
C2836 C2837 1.391 . S
C2837 H2825 0.950 . S
C2837 C2833 1.393 . S
C2837 C2836 1.391 . S
C2838 H2828 0.950 . S
C2838 C2839 1.386 . S
C2838 C2840 1.391 . S
C2839 C2838 1.386 . S
C2839 C2843 1.393 . S
C2840 H2829 0.950 . S
C2840 C2838 1.391 . S
C2840 C2841 1.400 . S
C2841 C2835 1.491 . S
C2841 C2840 1.400 . S
C2841 C2842 1.398 . S
C2842 H2830 0.950 . S
C2842 C2841 1.398 . S
C2842 C2843 1.391 . S
C2843 H2831 0.950 . S
C2843 C2839 1.393 . S
C2843 C2842 1.391 . S
H2844 C2852 0.950 . S
H2845 C2857 0.950 . S
H2846 C2854 0.950 . S
H2847 C2856 0.950 . S
H2848 C2858 0.950 . S
H2849 C2860 0.950 . S
H2850 C2862 0.950 . S
H2851 C2863 0.950 . S
C2852 H2844 0.950 . S
C2852 C2853 1.386 . S
C2852 C2854 1.391 . S
C2853 C2852 1.386 . S
C2853 C2857 1.393 . S
C2854 H2846 0.950 . S
C2854 C2852 1.391 . S
C2854 C2855 1.400 . S
C2855 C2854 1.400 . S
C2855 C2856 1.398 . S
C2855 C2861 1.491 . S
C2856 H2847 0.950 . S
C2856 C2855 1.398 . S
C2856 C2857 1.391 . S
C2857 H2845 0.950 . S
C2857 C2853 1.393 . S
C2857 C2856 1.391 . S
C2858 H2848 0.950 . S
C2858 C2859 1.386 . S
C2858 C2860 1.391 . S
C2859 C2858 1.386 . S
C2859 C2863 1.393 . S
C2860 H2849 0.950 . S
C2860 C2858 1.391 . S
C2860 C2861 1.400 . S
C2861 C2855 1.491 . S
C2861 C2860 1.400 . S
C2861 C2862 1.398 . S
C2862 H2850 0.950 . S
C2862 C2861 1.398 . S
C2862 C2863 1.391 . S
C2863 H2851 0.950 . S
C2863 C2859 1.393 . S
C2863 C2862 1.391 . S
H2864 C2872 0.950 . S
H2865 C2877 0.950 . S
H2866 C2874 0.950 . S
H2867 C2876 0.950 . S
H2868 C2878 0.950 . S
H2869 C2880 0.950 . S
H2870 C2882 0.950 . S
H2871 C2883 0.950 . S
C2872 H2864 0.950 . S
C2872 C2873 1.386 . S
C2872 C2874 1.391 . S
C2873 C2872 1.386 . S
C2873 C2877 1.393 . S
C2874 H2866 0.950 . S
C2874 C2872 1.391 . S
C2874 C2875 1.400 . S
C2875 C2874 1.400 . S
C2875 C2876 1.398 . S
C2875 C2881 1.491 . S
C2876 H2867 0.950 . S
C2876 C2875 1.398 . S
C2876 C2877 1.391 . S
C2877 H2865 0.950 . S
C2877 C2873 1.393 . S
C2877 C2876 1.391 . S
C2878 H2868 0.950 . S
C2878 C2879 1.386 . S
C2878 C2880 1.391 . S
C2879 C2878 1.386 . S
C2879 C2883 1.393 . S
C2880 H2869 0.950 . S
C2880 C2878 1.391 . S
C2880 C2881 1.400 . S
C2881 C2875 1.491 . S
C2881 C2880 1.400 . S
C2881 C2882 1.398 . S
C2882 H2870 0.950 . S
C2882 C2881 1.398 . S
C2882 C2883 1.391 . S
C2883 H2871 0.950 . S
C2883 C2879 1.393 . S
C2883 C2882 1.391 . S
H2884 C2892 0.950 . S
H2885 C2897 0.950 . S
H2886 C2894 0.950 . S
H2887 C2896 0.950 . S
H2888 C2898 0.950 . S
H2889 C2900 0.950 . S
H2890 C2902 0.950 . S
H2891 C2903 0.950 . S
C2892 H2884 0.950 . S
C2892 C2893 1.386 . S
C2892 C2894 1.391 . S
C2893 C2892 1.386 . S
C2893 C2897 1.393 . S
C2894 H2886 0.950 . S
C2894 C2892 1.391 . S
C2894 C2895 1.400 . S
C2895 C2894 1.400 . S
C2895 C2896 1.398 . S
C2895 C2901 1.491 . S
C2896 H2887 0.950 . S
C2896 C2895 1.398 . S
C2896 C2897 1.391 . S
C2897 H2885 0.950 . S
C2897 C2893 1.393 . S
C2897 C2896 1.391 . S
C2898 H2888 0.950 . S
C2898 C2899 1.386 . S
C2898 C2900 1.391 . S
C2899 C2898 1.386 . S
C2899 C2903 1.393 . S
C2900 H2889 0.950 . S
C2900 C2898 1.391 . S
C2900 C2901 1.400 . S
C2901 C2895 1.491 . S
C2901 C2900 1.400 . S
C2901 C2902 1.398 . S
C2902 H2890 0.950 . S
C2902 C2901 1.398 . S
C2902 C2903 1.391 . S
C2903 H2891 0.950 . S
C2903 C2899 1.393 . S
C2903 C2902 1.391 . S
H2904 C2912 0.950 . S
H2905 C2917 0.950 . S
H2906 C2914 0.950 . S
H2907 C2916 0.950 . S
H2908 C2918 0.950 . S
H2909 C2920 0.950 . S
H2910 C2922 0.950 . S
H2911 C2923 0.950 . S
C2912 H2904 0.950 . S
C2912 C2913 1.386 . S
C2912 C2914 1.391 . S
C2913 C2912 1.386 . S
C2913 C2917 1.393 . S
C2914 H2906 0.950 . S
C2914 C2912 1.391 . S
C2914 C2915 1.400 . S
C2915 C2914 1.400 . S
C2915 C2916 1.398 . S
C2915 C2921 1.491 . S
C2916 H2907 0.950 . S
C2916 C2915 1.398 . S
C2916 C2917 1.391 . S
C2917 H2905 0.950 . S
C2917 C2913 1.393 . S
C2917 C2916 1.391 . S
C2918 H2908 0.950 . S
C2918 C2919 1.386 . S
C2918 C2920 1.391 . S
C2919 C2918 1.386 . S
C2919 C2923 1.393 . S
C2920 H2909 0.950 . S
C2920 C2918 1.391 . S
C2920 C2921 1.400 . S
C2921 C2915 1.491 . S
C2921 C2920 1.400 . S
C2921 C2922 1.398 . S
C2922 H2910 0.950 . S
C2922 C2921 1.398 . S
C2922 C2923 1.391 . S
C2923 H2911 0.950 . S
C2923 C2919 1.393 . S
C2923 C2922 1.391 . S
H2924 C2932 0.950 . S
H2925 C2937 0.950 . S
H2926 C2934 0.950 . S
H2927 C2936 0.950 . S
H2928 C2938 0.950 . S
H2929 C2940 0.950 . S
H2930 C2942 0.950 . S
H2931 C2943 0.950 . S
C2932 H2924 0.950 . S
C2932 C2933 1.386 . S
C2932 C2934 1.391 . S
C2933 C2932 1.386 . S
C2933 C2937 1.393 . S
C2934 H2926 0.950 . S
C2934 C2932 1.391 . S
C2934 C2935 1.400 . S
C2935 C2934 1.400 . S
C2935 C2936 1.398 . S
C2935 C2941 1.491 . S
C2936 H2927 0.950 . S
C2936 C2935 1.398 . S
C2936 C2937 1.391 . S
C2937 H2925 0.950 . S
C2937 C2933 1.393 . S
C2937 C2936 1.391 . S
C2938 H2928 0.950 . S
C2938 C2939 1.386 . S
C2938 C2940 1.391 . S
C2939 C2938 1.386 . S
C2939 C2943 1.393 . S
C2940 H2929 0.950 . S
C2940 C2938 1.391 . S
C2940 C2941 1.400 . S
C2941 C2935 1.491 . S
C2941 C2940 1.400 . S
C2941 C2942 1.398 . S
C2942 H2930 0.950 . S
C2942 C2941 1.398 . S
C2942 C2943 1.391 . S
C2943 H2931 0.950 . S
C2943 C2939 1.393 . S
C2943 C2942 1.391 . S
H2944 C2952 0.950 . S
H2945 C2957 0.950 . S
H2946 C2954 0.950 . S
H2947 C2956 0.950 . S
H2948 C2958 0.950 . S
H2949 C2960 0.950 . S
H2950 C2962 0.950 . S
H2951 C2963 0.950 . S
C2952 H2944 0.950 . S
C2952 C2953 1.386 . S
C2952 C2954 1.391 . S
C2953 C2952 1.386 . S
C2953 C2957 1.393 . S
C2954 H2946 0.950 . S
C2954 C2952 1.391 . S
C2954 C2955 1.400 . S
C2955 C2954 1.400 . S
C2955 C2956 1.398 . S
C2955 C2961 1.491 . S
C2956 H2947 0.950 . S
C2956 C2955 1.398 . S
C2956 C2957 1.391 . S
C2957 H2945 0.950 . S
C2957 C2953 1.393 . S
C2957 C2956 1.391 . S
C2958 H2948 0.950 . S
C2958 C2959 1.386 . S
C2958 C2960 1.391 . S
C2959 C2958 1.386 . S
C2959 C2963 1.393 . S
C2960 H2949 0.950 . S
C2960 C2958 1.391 . S
C2960 C2961 1.400 . S
C2961 C2955 1.491 . S
C2961 C2960 1.400 . S
C2961 C2962 1.398 . S
C2962 H2950 0.950 . S
C2962 C2961 1.398 . S
C2962 C2963 1.391 . S
C2963 H2951 0.950 . S
C2963 C2959 1.393 . S
C2963 C2962 1.391 . S
H2964 C2972 0.950 . S
H2965 C2977 0.950 . S
H2966 C2974 0.950 . S
H2967 C2976 0.950 . S
H2968 C2978 0.950 1_455 S
H2969 C2980 0.950 . S
H2970 C2982 0.950 . S
H2971 C2983 0.950 . S
C2972 H2964 0.950 . S
C2972 C2973 1.386 . S
C2972 C2974 1.391 . S
C2973 C2972 1.386 . S
C2973 C2977 1.393 . S
C2974 H2966 0.950 . S
C2974 C2972 1.391 . S
C2974 C2975 1.400 . S
C2975 C2974 1.400 . S
C2975 C2976 1.398 . S
C2975 C2981 1.491 . S
C2976 H2967 0.950 . S
C2976 C2975 1.398 . S
C2976 C2977 1.391 . S
C2977 H2965 0.950 . S
C2977 C2973 1.393 . S
C2977 C2976 1.391 . S
C2978 H2968 0.950 1_655 S
C2978 C2979 1.386 . S
C2978 C2980 1.391 . S
C2979 C2978 1.386 . S
C2979 C2983 1.393 . S
C2980 H2969 0.950 . S
C2980 C2978 1.391 . S
C2980 C2981 1.400 . S
C2981 C2975 1.491 . S
C2981 C2980 1.400 . S
C2981 C2982 1.398 . S
C2982 H2970 0.950 . S
C2982 C2981 1.398 . S
C2982 C2983 1.391 . S
C2983 H2971 0.950 . S
C2983 C2979 1.393 . S
C2983 C2982 1.391 . S
H2984 C2992 0.950 . S
H2985 C2997 0.950 . S
H2986 C2994 0.950 . S
H2987 C2996 0.950 . S
H2988 C2998 0.950 . S
H2989 C3000 0.950 . S
H2990 C3002 0.950 . S
H2991 C3003 0.950 . S
C2992 H2984 0.950 . S
C2992 C2993 1.386 . S
C2992 C2994 1.391 . S
C2993 C2992 1.386 . S
C2993 C2997 1.393 . S
C2994 H2986 0.950 . S
C2994 C2992 1.391 . S
C2994 C2995 1.400 . S
C2995 C2994 1.400 . S
C2995 C2996 1.398 . S
C2995 C3001 1.491 . S
C2996 H2987 0.950 . S
C2996 C2995 1.398 . S
C2996 C2997 1.391 . S
C2997 H2985 0.950 . S
C2997 C2993 1.393 . S
C2997 C2996 1.391 . S
C2998 H2988 0.950 . S
C2998 C2999 1.386 . S
C2998 C3000 1.391 . S
C2999 C2998 1.386 . S
C2999 C3003 1.393 . S
C3000 H2989 0.950 . S
C3000 C2998 1.391 . S
C3000 C3001 1.400 . S
C3001 C2995 1.491 . S
C3001 C3000 1.400 . S
C3001 C3002 1.398 . S
C3002 H2990 0.950 . S
C3002 C3001 1.398 . S
C3002 C3003 1.391 . S
C3003 H2991 0.950 . S
C3003 C2999 1.393 . S
C3003 C3002 1.391 . S
H3004 C3012 0.950 . S
H3005 C3017 0.950 . S
H3006 C3014 0.950 1_565 S
H3007 C3016 0.950 . S
H3008 C3018 0.950 . S
H3009 C3020 0.950 . S
H3010 C3022 0.950 . S
H3011 C3023 0.950 . S
C3012 H3004 0.950 . S
C3012 C3013 1.386 . S
C3012 C3014 1.391 . S
C3013 C3012 1.386 . S
C3013 C3017 1.393 . S
C3014 H3006 0.950 1_545 S
C3014 C3012 1.391 . S
C3014 C3015 1.400 . S
C3015 C3014 1.400 . S
C3015 C3016 1.398 . S
C3015 C3021 1.491 . S
C3016 H3007 0.950 . S
C3016 C3015 1.398 . S
C3016 C3017 1.391 . S
C3017 H3005 0.950 . S
C3017 C3013 1.393 . S
C3017 C3016 1.391 . S
C3018 H3008 0.950 . S
C3018 C3019 1.386 . S
C3018 C3020 1.391 . S
C3019 C3018 1.386 . S
C3019 C3023 1.393 1_545 S
C3020 H3009 0.950 . S
C3020 C3018 1.391 . S
C3020 C3021 1.400 . S
C3021 C3015 1.491 . S
C3021 C3020 1.400 . S
C3021 C3022 1.398 1_545 S
C3022 H3010 0.950 . S
C3022 C3021 1.398 1_565 S
C3022 C3023 1.391 . S
C3023 H3011 0.950 . S
C3023 C3019 1.393 1_565 S
C3023 C3022 1.391 . S
C1593 C4 1.173 . S
C1599 C981 1.143 . S
C1613 C26 1.589 . S
C1619 C1061 1.559 . S
C1639 C1129 1.235 . S
C1633 C32 1.262 . S
C1653 C40 1.625 . S
C1659 C1209 1.631 . S
C1673 C12 1.458 . S
C1679 C1283 1.474 . S
C1693 C18 1.524 . S
C1699 C1351 1.485 . S
C1713 C46 1.078 . S
C1719 C1277 1.064 . S
C1739 C1357 1.451 . S
C1733 C68 1.441 . S
C1759 C1203 1.269 . S
C1753 C74 1.262 . S
C1773 C82 1.620 . S
C1779 C1135 1.657 1_545 S
C1799 C987 1.469 1_655 S
C1793 C54 1.469 . S
C1813 C60 1.381 . S
C1819 C1055 1.377 . S
C1833 C88 1.398 . S
C1839 C1425 1.349 . S
C1853 C110 1.624 . S
C1859 C1505 1.581 . S
C1879 C1573 1.499 . S
C1873 C116 1.571 . S
C1893 C124 1.747 . S
C1899 C321 1.712 . S
C1913 C96 1.634 . S
C1919 C395 1.587 . S
C1933 C102 1.536 . S
C1939 C463 1.475 . S
C1953 C130 1.119 . S
C1959 C389 1.114 . S
C1973 C152 1.519 . S
C1979 C469 1.526 . S
C1999 C315 1.382 . S
C1993 C158 1.389 . S
C2019 C1579 1.723 . S
C2013 C166 1.711 . S
C2039 C1431 1.453 . S
C2033 C138 1.455 . S
C2059 C1499 1.419 . S
C2053 C144 1.419 . S
C2073 C172 1.297 . S
C2079 C537 1.243 . S
C2093 C194 1.665 . S
C2099 C617 1.620 . S
C2113 C200 1.597 . S
C2119 C685 1.534 . S
C2133 C208 1.806 . S
C2139 C765 1.782 . S
C2159 C839 1.567 . S
C2153 C180 1.617 . S
C2179 C907 1.549 . S
C2173 C186 1.599 . S
C2199 C833 1.229 . S
C2193 C214 1.227 . S
C2219 C913 1.486 . S
C2213 C236 1.486 . S
C2233 C242 1.336 . S
C2239 C759 1.332 . S
C2259 C691 1.622 . S
C2253 C250 1.611 . S
C2273 C222 1.505 . S
C2279 C543 1.512 . S
C2299 C611 1.394 . S
C2293 C228 1.399 . S
C2319 C291 1.908 . S
C2313 C5 1.737 . S
C2333 C25 1.390 . S
C2339 C365 1.376 . S
C2359 C451 1.521 . S
C2353 C33 1.338 . S
C2379 C525 1.099 . S
C2373 C39 1.119 . S
C2399 C587 1.514 . S
C2393 C11 1.522 1_556 S
C2419 C673 1.491 . S
C2413 C19 1.299 . S
C2433 C47 1.943 . S
C2439 C661 2.069 . S
C2453 C67 1.610 . S
C2459 C513 1.501 . S
C2473 C75 1.554 . S
C2479 C599 1.726 . S
C2493 C81 1.439 . S
C2499 C377 1.356 . S
C2519 C439 1.656 . S
C2513 C53 1.748 . S
C2533 C61 1.452 . S
C2539 C303 1.665 . S
C2559 C735 1.852 . S
C2553 C89 1.647 . S
C2573 C109 1.533 . S
C2579 C809 1.491 . S
C2593 C117 1.289 . S
C2599 C895 1.500 . S
C2619 C969 0.962 . S
C2613 C123 0.950 . S
C2633 C95 1.401 . S
C2639 C1031 1.384 . S
C2653 C103 1.150 . S
C2659 C1117 1.313 . S
C2673 C131 1.539 . S
C2679 C1105 1.682 1_565 S
C2693 C151 1.320 . S
C2699 C957 1.254 . S
C2719 C1043 1.585 . S
C2713 C159 1.369 . S
C2733 C165 1.420 . S
C2739 C821 1.340 . S
C2753 C137 1.740 1_545 S
C2759 C883 1.660 . S
C2779 C747 1.716 . S
C2773 C145 1.503 . S
C2799 C1179 1.679 . S
C2793 C173 1.544 . S
C2813 C193 1.149 . S
C2819 C1253 1.147 . S
C2833 C201 1.216 . S
C2839 C1339 1.394 . S
C2859 C1413 1.106 . S
C2853 C207 1.119 . S
C2879 C1475 1.539 . S
C2873 C179 1.554 1_565 S
C2893 C187 1.335 . S
C2899 C1561 1.552 . S
C2913 C215 1.864 . S
C2919 C1549 2.011 . S
C2933 C235 1.713 1_565 S
C2939 C1401 1.615 . S
C2959 C1487 1.692 . S
C2953 C243 1.495 . S
C2979 C1265 0.990 . S
C2973 C249 1.025 . S
C2999 C1327 1.560 . S
C2993 C221 1.633 . S
C3013 C229 1.268 . S
C3019 C1191 1.420 1_545 S
