# Generated by pormake.
# Topology bwt, (3,3)-cn, num edge types: 1
# Building blocks:
#     Node 0, Type 0, BuildingBlock: OLANEW_clean_sbu_2, # of connection points: 3
#     Node 1, Type 0, BuildingBlock: OLANEW_clean_sbu_2, # of connection points: 3
#     Node 2, Type 0, BuildingBlock: OLANEW_clean_sbu_2, # of connection points: 3
#     Node 3, Type 0, BuildingBlock: OLANEW_clean_sbu_2, # of connection points: 3
#     Node 4, Type 0, BuildingBlock: OLANEW_clean_sbu_2, # of connection points: 3
#     Node 5, Type 0, BuildingBlock: OLANEW_clean_sbu_2, # of connection points: 3
#     Node 6, Type 0, BuildingBlock: OLANEW_clean_sbu_2, # of connection points: 3
#     Node 7, Type 0, BuildingBlock: OLANEW_clean_sbu_2, # of connection points: 3
#     Node 8, Type 0, BuildingBlock: OLANEW_clean_sbu_2, # of connection points: 3
#     Node 9, Type 0, BuildingBlock: OLANEW_clean_sbu_2, # of connection points: 3
#     Node 10, Type 0, BuildingBlock: OLANEW_clean_sbu_2, # of connection points: 3
#     Node 11, Type 0, BuildingBlock: OLANEW_clean_sbu_2, # of connection points: 3
#     Node 12, Type 0, BuildingBlock: OLANEW_clean_sbu_2, # of connection points: 3
#     Node 13, Type 0, BuildingBlock: OLANEW_clean_sbu_2, # of connection points: 3
#     Node 14, Type 0, BuildingBlock: OLANEW_clean_sbu_2, # of connection points: 3
#     Node 15, Type 0, BuildingBlock: OLANEW_clean_sbu_2, # of connection points: 3
#     Node 16, Type 0, BuildingBlock: OLANEW_clean_sbu_2, # of connection points: 3
#     Node 17, Type 0, BuildingBlock: OLANEW_clean_sbu_2, # of connection points: 3
#     Node 18, Type 0, BuildingBlock: OLANEW_clean_sbu_2, # of connection points: 3
#     Node 19, Type 0, BuildingBlock: OLANEW_clean_sbu_2, # of connection points: 3
#     Node 20, Type 0, BuildingBlock: OLANEW_clean_sbu_2, # of connection points: 3
#     Node 21, Type 0, BuildingBlock: OLANEW_clean_sbu_2, # of connection points: 3
#     Node 22, Type 0, BuildingBlock: OLANEW_clean_sbu_2, # of connection points: 3
#     Node 23, Type 0, BuildingBlock: OLANEW_clean_sbu_2, # of connection points: 3
#     Node 24, Type 1, BuildingBlock: BETDIP_clean_linker_0, # of connection points: 3
#     Node 25, Type 1, BuildingBlock: BETDIP_clean_linker_0, # of connection points: 3
#     Node 26, Type 1, BuildingBlock: BETDIP_clean_linker_0, # of connection points: 3
#     Node 27, Type 1, BuildingBlock: BETDIP_clean_linker_0, # of connection points: 3
#     Node 28, Type 1, BuildingBlock: BETDIP_clean_linker_0, # of connection points: 3
#     Node 29, Type 1, BuildingBlock: BETDIP_clean_linker_0, # of connection points: 3
#     Node 30, Type 1, BuildingBlock: BETDIP_clean_linker_0, # of connection points: 3
#     Node 31, Type 1, BuildingBlock: BETDIP_clean_linker_0, # of connection points: 3
#     Node 32, Type 1, BuildingBlock: BETDIP_clean_linker_0, # of connection points: 3
#     Node 33, Type 1, BuildingBlock: BETDIP_clean_linker_0, # of connection points: 3
#     Node 34, Type 1, BuildingBlock: BETDIP_clean_linker_0, # of connection points: 3
#     Node 35, Type 1, BuildingBlock: BETDIP_clean_linker_0, # of connection points: 3
#     Node 36, Type 1, BuildingBlock: BETDIP_clean_linker_0, # of connection points: 3
#     Node 37, Type 1, BuildingBlock: BETDIP_clean_linker_0, # of connection points: 3
#     Node 38, Type 1, BuildingBlock: BETDIP_clean_linker_0, # of connection points: 3
#     Node 39, Type 1, BuildingBlock: BETDIP_clean_linker_0, # of connection points: 3
#     Node 40, Type 1, BuildingBlock: BETDIP_clean_linker_0, # of connection points: 3
#     Node 41, Type 1, BuildingBlock: BETDIP_clean_linker_0, # of connection points: 3
#     Node 42, Type 1, BuildingBlock: BETDIP_clean_linker_0, # of connection points: 3
#     Node 43, Type 1, BuildingBlock: BETDIP_clean_linker_0, # of connection points: 3
#     Node 44, Type 1, BuildingBlock: BETDIP_clean_linker_0, # of connection points: 3
#     Node 45, Type 1, BuildingBlock: BETDIP_clean_linker_0, # of connection points: 3
#     Node 46, Type 1, BuildingBlock: BETDIP_clean_linker_0, # of connection points: 3
#     Node 47, Type 1, BuildingBlock: BETDIP_clean_linker_0, # of connection points: 3
#     Edge 48, Type (0, 1), BuildingBlock: CIFDUS_clean_linker_0, # of connection points: 2
#     Edge 49, Type (0, 1), BuildingBlock: CIFDUS_clean_linker_0, # of connection points: 2
#     Edge 50, Type (0, 1), BuildingBlock: CIFDUS_clean_linker_0, # of connection points: 2
#     Edge 51, Type (0, 1), BuildingBlock: CIFDUS_clean_linker_0, # of connection points: 2
#     Edge 52, Type (0, 1), BuildingBlock: CIFDUS_clean_linker_0, # of connection points: 2
#     Edge 53, Type (0, 1), BuildingBlock: CIFDUS_clean_linker_0, # of connection points: 2
#     Edge 54, Type (0, 1), BuildingBlock: CIFDUS_clean_linker_0, # of connection points: 2
#     Edge 55, Type (0, 1), BuildingBlock: CIFDUS_clean_linker_0, # of connection points: 2
#     Edge 56, Type (0, 1), BuildingBlock: CIFDUS_clean_linker_0, # of connection points: 2
#     Edge 57, Type (0, 1), BuildingBlock: CIFDUS_clean_linker_0, # of connection points: 2
#     Edge 58, Type (0, 1), BuildingBlock: CIFDUS_clean_linker_0, # of connection points: 2
#     Edge 59, Type (0, 1), BuildingBlock: CIFDUS_clean_linker_0, # of connection points: 2
#     Edge 60, Type (0, 1), BuildingBlock: CIFDUS_clean_linker_0, # of connection points: 2
#     Edge 61, Type (0, 1), BuildingBlock: CIFDUS_clean_linker_0, # of connection points: 2
#     Edge 62, Type (0, 1), BuildingBlock: CIFDUS_clean_linker_0, # of connection points: 2
#     Edge 63, Type (0, 1), BuildingBlock: CIFDUS_clean_linker_0, # of connection points: 2
#     Edge 64, Type (0, 1), BuildingBlock: CIFDUS_clean_linker_0, # of connection points: 2
#     Edge 65, Type (0, 1), BuildingBlock: CIFDUS_clean_linker_0, # of connection points: 2
#     Edge 66, Type (0, 1), BuildingBlock: CIFDUS_clean_linker_0, # of connection points: 2
#     Edge 67, Type (0, 1), BuildingBlock: CIFDUS_clean_linker_0, # of connection points: 2
#     Edge 68, Type (0, 1), BuildingBlock: CIFDUS_clean_linker_0, # of connection points: 2
#     Edge 69, Type (0, 1), BuildingBlock: CIFDUS_clean_linker_0, # of connection points: 2
#     Edge 70, Type (0, 1), BuildingBlock: CIFDUS_clean_linker_0, # of connection points: 2
#     Edge 71, Type (0, 1), BuildingBlock: CIFDUS_clean_linker_0, # of connection points: 2
#     Edge 72, Type (0, 1), BuildingBlock: CIFDUS_clean_linker_0, # of connection points: 2
#     Edge 73, Type (0, 1), BuildingBlock: CIFDUS_clean_linker_0, # of connection points: 2
#     Edge 74, Type (0, 1), BuildingBlock: CIFDUS_clean_linker_0, # of connection points: 2
#     Edge 75, Type (0, 1), BuildingBlock: CIFDUS_clean_linker_0, # of connection points: 2
#     Edge 76, Type (0, 1), BuildingBlock: CIFDUS_clean_linker_0, # of connection points: 2
#     Edge 77, Type (0, 1), BuildingBlock: CIFDUS_clean_linker_0, # of connection points: 2
#     Edge 78, Type (0, 1), BuildingBlock: CIFDUS_clean_linker_0, # of connection points: 2
#     Edge 79, Type (0, 1), BuildingBlock: CIFDUS_clean_linker_0, # of connection points: 2
#     Edge 80, Type (0, 1), BuildingBlock: CIFDUS_clean_linker_0, # of connection points: 2
#     Edge 81, Type (0, 1), BuildingBlock: CIFDUS_clean_linker_0, # of connection points: 2
#     Edge 82, Type (0, 1), BuildingBlock: CIFDUS_clean_linker_0, # of connection points: 2
#     Edge 83, Type (0, 1), BuildingBlock: CIFDUS_clean_linker_0, # of connection points: 2
#     Edge 84, Type (0, 1), BuildingBlock: CIFDUS_clean_linker_0, # of connection points: 2
#     Edge 85, Type (0, 1), BuildingBlock: CIFDUS_clean_linker_0, # of connection points: 2
#     Edge 86, Type (0, 1), BuildingBlock: CIFDUS_clean_linker_0, # of connection points: 2
#     Edge 87, Type (0, 1), BuildingBlock: CIFDUS_clean_linker_0, # of connection points: 2
#     Edge 88, Type (0, 1), BuildingBlock: CIFDUS_clean_linker_0, # of connection points: 2
#     Edge 89, Type (0, 1), BuildingBlock: CIFDUS_clean_linker_0, # of connection points: 2
#     Edge 90, Type (0, 1), BuildingBlock: CIFDUS_clean_linker_0, # of connection points: 2
#     Edge 91, Type (0, 1), BuildingBlock: CIFDUS_clean_linker_0, # of connection points: 2
#     Edge 92, Type (0, 1), BuildingBlock: CIFDUS_clean_linker_0, # of connection points: 2
#     Edge 93, Type (0, 1), BuildingBlock: CIFDUS_clean_linker_0, # of connection points: 2
#     Edge 94, Type (0, 1), BuildingBlock: CIFDUS_clean_linker_0, # of connection points: 2
#     Edge 95, Type (0, 1), BuildingBlock: CIFDUS_clean_linker_0, # of connection points: 2
#     Edge 96, Type (0, 1), BuildingBlock: CIFDUS_clean_linker_0, # of connection points: 2
#     Edge 97, Type (0, 1), BuildingBlock: CIFDUS_clean_linker_0, # of connection points: 2
#     Edge 98, Type (0, 1), BuildingBlock: CIFDUS_clean_linker_0, # of connection points: 2
#     Edge 99, Type (0, 1), BuildingBlock: CIFDUS_clean_linker_0, # of connection points: 2
#     Edge 100, Type (0, 1), BuildingBlock: CIFDUS_clean_linker_0, # of connection points: 2
#     Edge 101, Type (0, 1), BuildingBlock: CIFDUS_clean_linker_0, # of connection points: 2
#     Edge 102, Type (0, 1), BuildingBlock: CIFDUS_clean_linker_0, # of connection points: 2
#     Edge 103, Type (0, 1), BuildingBlock: CIFDUS_clean_linker_0, # of connection points: 2
#     Edge 104, Type (0, 1), BuildingBlock: CIFDUS_clean_linker_0, # of connection points: 2
#     Edge 105, Type (0, 1), BuildingBlock: CIFDUS_clean_linker_0, # of connection points: 2
#     Edge 106, Type (0, 1), BuildingBlock: CIFDUS_clean_linker_0, # of connection points: 2
#     Edge 107, Type (0, 1), BuildingBlock: CIFDUS_clean_linker_0, # of connection points: 2
#     Edge 108, Type (0, 1), BuildingBlock: CIFDUS_clean_linker_0, # of connection points: 2
#     Edge 109, Type (0, 1), BuildingBlock: CIFDUS_clean_linker_0, # of connection points: 2
#     Edge 110, Type (0, 1), BuildingBlock: CIFDUS_clean_linker_0, # of connection points: 2
#     Edge 111, Type (0, 1), BuildingBlock: CIFDUS_clean_linker_0, # of connection points: 2
#     Edge 112, Type (0, 1), BuildingBlock: CIFDUS_clean_linker_0, # of connection points: 2
#     Edge 113, Type (0, 1), BuildingBlock: CIFDUS_clean_linker_0, # of connection points: 2
#     Edge 114, Type (0, 1), BuildingBlock: CIFDUS_clean_linker_0, # of connection points: 2
#     Edge 115, Type (0, 1), BuildingBlock: CIFDUS_clean_linker_0, # of connection points: 2
#     Edge 116, Type (0, 1), BuildingBlock: CIFDUS_clean_linker_0, # of connection points: 2
#     Edge 117, Type (0, 1), BuildingBlock: CIFDUS_clean_linker_0, # of connection points: 2
#     Edge 118, Type (0, 1), BuildingBlock: CIFDUS_clean_linker_0, # of connection points: 2
#     Edge 119, Type (0, 1), BuildingBlock: CIFDUS_clean_linker_0, # of connection points: 2
# Relax obj value: 0.060
# Max RMSD: 0.116
# Mean RMSD: 0.061
data_MOF--net-bwt--node1-OLANEW_clean_sbu_2--node2-BETDIP_clean_linker_0--edge1-CIFDUS_clean_linker_0
_symmetry_space_group_name_H-M    P1
_symmetry_Int_Tables_number       1
_symmetry_cell_setting            triclinic
loop_
_symmetry_equiv_pos_as_xyz
'x, y, z'
_cell_length_a     52.913363
_cell_length_b     52.91717
_cell_length_c     52.944111
_cell_angle_alpha  94.244443
_cell_angle_beta   94.268204
_cell_angle_gamma 94.255481
loop_
_atom_site_label
_atom_site_type_symbol
_atom_site_fract_x
_atom_site_fract_y
_atom_site_fract_z
_atom_type_partial_charge
O0 O 0.28509 0.63691 0.4006 0.0
Cd1 Cd 0.28535 0.63609 0.35439 0.0
O2 O 0.30514 0.60193 0.40069 0.0
Cd3 Cd 0.31453 0.60008 0.36126 0.0
O4 O 0.34713 0.59203 0.34008 0.0
C5 C 0.34871 0.59054 0.31619 0.0
O6 O 0.32883 0.5944 0.301 0.0
C7 C 0.29419 0.61922 0.41256 0.0
C8 C 0.23828 0.61604 0.33144 0.0
O9 O 0.25497 0.60159 0.33954 0.0
O10 O 0.24386 0.64013 0.33384 0.0
O11 O 0.22122 0.36964 0.77608 0.0
Cd12 Cd 0.20657 0.35646 0.73187 0.0
O13 O 0.20342 0.40587 0.77524 0.0
Cd14 Cd 0.17971 0.39615 0.73986 0.0
O15 O 0.14364 0.39877 0.71774 0.0
C16 C 0.14157 0.41549 0.70184 0.0
O17 O 0.16195 0.42974 0.69745 0.0
C18 C 0.21765 0.39129 0.78668 0.0
C19 C 0.2402 0.38032 0.70127 0.0
O20 O 0.2194 0.3899 0.70621 0.0
O21 O 0.2447 0.35908 0.71014 0.0
O22 O 0.73737 0.9537 0.64314 0.0
Cd23 Cd 0.75372 0.96948 0.68614 0.0
O24 O 0.77151 0.93511 0.63302 0.0
Cd25 Cd 0.79527 0.95086 0.66688 0.0
O26 O 0.82957 0.97166 0.68594 0.0
C27 C 0.85068 0.96673 0.67747 0.0
O28 O 0.85074 0.9489 0.65883 0.0
C29 C 0.74878 0.94027 0.62739 0.0
C30 C 0.71584 0.99356 0.71034 0.0
O31 O 0.73122 0.00577 0.69713 0.0
O32 O 0.71857 0.96992 0.71245 0.0
O33 O 0.8053 0.98803 0.24176 0.0
Cd34 Cd 0.82359 0.98563 0.28525 0.0
O35 O 0.76657 0.98122 0.25331 0.0
Cd36 Cd 0.72499 0.97922 0.24758 0.0
O37 O 0.68344 0.97799 0.24531 0.0
C38 C 0.6708 0.95841 0.25164 0.0
O39 O 0.68309 0.93924 0.25911 0.0
C40 C 0.78145 0.98537 0.23601 0.0
C41 C 0.87137 0.96641 0.28628 0.0
O42 O 0.85121 0.95175 0.28771 0.0
O43 O 0.86892 0.99013 0.28442 0.0
O44 O 0.38507 0.3081 0.60623 0.0
Cd45 Cd 0.33888 0.30675 0.60615 0.0
O46 O 0.38412 0.33122 0.57336 0.0
Cd47 Cd 0.34656 0.34442 0.57795 0.0
O48 O 0.32935 0.38061 0.58218 0.0
C49 C 0.34497 0.39978 0.5806 0.0
O50 O 0.36869 0.39592 0.57678 0.0
C51 C 0.39632 0.3182 0.58864 0.0
C52 C 0.31987 0.26128 0.57907 0.0
O53 O 0.32581 0.28117 0.56771 0.0
O54 O 0.32204 0.26302 0.60342 0.0
O55 O 0.27041 0.80264 0.03056 0.0
Cd56 Cd 0.31454 0.8195 0.02938 0.0
O57 O 0.286 0.76648 0.02062 0.0
Cd58 Cd 0.28564 0.72528 0.0134 0.0
O59 O 0.2886 0.68465 0.00596 0.0
C60 C 0.29772 0.67633 0.98571 0.0
O61 O 0.30457 0.69246 0.96929 0.0
C62 C 0.26685 0.7788 0.02511 0.0
C63 C 0.31944 0.86616 0.00843 0.0
O64 O 0.31505 0.84539 0.99423 0.0
O65 O 0.32131 0.86494 0.03258 0.0
O66 O 0.74762 0.20028 0.38692 0.0
Cd67 Cd 0.70253 0.19024 0.37408 0.0
O68 O 0.7637 0.16729 0.36814 0.0
Cd69 Cd 0.72745 0.14454 0.35997 0.0
O70 O 0.71536 0.10767 0.37321 0.0
C71 C 0.72516 0.10529 0.39548 0.0
O72 O 0.73902 0.12482 0.40744 0.0
C73 C 0.7668 0.18869 0.38103 0.0
C74 C 0.67854 0.23254 0.39181 0.0
O75 O 0.68097 0.2135 0.40518 0.0
O76 O 0.68646 0.2311 0.3695 0.0
O77 O 0.5916 0.70445 0.95867 0.0
Cd78 Cd 0.6374 0.71652 0.96378 0.0
O79 O 0.58898 0.721 0.92171 0.0
Cd80 Cd 0.62325 0.74653 0.93219 0.0
O81 O 0.64401 0.78141 0.95029 0.0
C82 C 0.63379 0.80219 0.94774 0.0
O83 O 0.61214 0.80171 0.93377 0.0
C84 C 0.57907 0.70742 0.93779 0.0
C85 C 0.66488 0.67785 0.98243 0.0
O86 O 0.66119 0.69756 0.99682 0.0
O87 O 0.65564 0.67629 0.95927 0.0
O88 O 0.60188 0.36866 0.29171 0.0
Cd89 Cd 0.6065 0.32317 0.29275 0.0
O90 O 0.57169 0.36921 0.31811 0.0
Cd91 Cd 0.57715 0.3317 0.33121 0.0
O92 O 0.58074 0.31062 0.3651 0.0
C93 C 0.5812 0.3246 0.38574 0.0
O94 O 0.57995 0.3492 0.38456 0.0
C95 C 0.58534 0.38049 0.30295 0.0
C96 C 0.57965 0.29857 0.24938 0.0
O97 O 0.56955 0.3003 0.27064 0.0
O98 O 0.60265 0.30785 0.24881 0.0
O99 O 0.0205 0.28467 0.79174 0.0
Cd100 Cd 0.01381 0.32839 0.80652 0.0
O101 O 0.00777 0.28902 0.75197 0.0
Cd102 Cd 0.0019 0.27675 0.71131 0.0
O103 O 0.99551 0.2671 0.67027 0.0
C104 C 0.97357 0.26877 0.65929 0.0
O105 O 0.9553 0.27599 0.67301 0.0
C106 C 0.01619 0.27524 0.7689 0.0
C107 C 0.99342 0.33004 0.85373 0.0
O108 O 0.97904 0.32978 0.83311 0.0
O109 O 0.01743 0.32973 0.85204 0.0
O110 O 0.37457 0.7656 0.19767 0.0
Cd111 Cd 0.35121 0.72435 0.18545 0.0
O112 O 0.35525 0.78617 0.16827 0.0
Cd113 Cd 0.33643 0.75167 0.14811 0.0
O114 O 0.33217 0.7276 0.11262 0.0
C115 C 0.34176 0.70632 0.11038 0.0
O116 O 0.35282 0.69749 0.13058 0.0
C117 C 0.37107 0.78624 0.18755 0.0
C118 C 0.36736 0.6907 0.22022 0.0
O119 O 0.34887 0.70436 0.22445 0.0
O120 O 0.3776 0.69236 0.19915 0.0
O121 O 0.93114 0.6579 0.68936 0.0
Cd122 Cd 0.9389 0.70413 0.69527 0.0
O123 O 0.95462 0.65761 0.72504 0.0
Cd124 Cd 0.97236 0.64261 0.75888 0.0
O125 O 0.99115 0.63929 0.79651 0.0
C126 C 0.01478 0.64589 0.80066 0.0
O127 O 0.02747 0.65353 0.78183 0.0
C128 C 0.94134 0.6454 0.70642 0.0
C129 C 0.97682 0.72264 0.66609 0.0
O130 O 0.98241 0.71419 0.68772 0.0
O131 O 0.95329 0.72224 0.65821 0.0
O132 O 0.70026 0.36742 0.67504 0.0
Cd133 Cd 0.71902 0.3789 0.71827 0.0
O134 O 0.6707 0.39385 0.68086 0.0
Cd135 Cd 0.63624 0.41113 0.66742 0.0
O136 O 0.59854 0.42174 0.65422 0.0
C137 C 0.57955 0.41131 0.66392 0.0
O138 O 0.5836 0.39551 0.6815 0.0
C139 C 0.68119 0.37826 0.66634 0.0
C140 C 0.76706 0.40389 0.71584 0.0
O141 O 0.76454 0.38 0.71861 0.0
O142 O 0.74696 0.41599 0.71475 0.0
O143 O 0.76688 0.63618 0.24603 0.0
Cd144 Cd 0.76152 0.66385 0.28391 0.0
O145 O 0.80847 0.63524 0.25 0.0
Cd146 Cd 0.84428 0.62093 0.23928 0.0
O147 O 0.88051 0.60389 0.23654 0.0
C148 C 0.90142 0.61763 0.23848 0.0
O149 O 0.90101 0.64247 0.24143 0.0
C150 C 0.78712 0.62831 0.2379 0.0
C151 C 0.71188 0.65176 0.2958 0.0
O152 O 0.7168 0.66915 0.28087 0.0
O153 O 0.73059 0.64104 0.30601 0.0
O154 O 0.29758 0.10998 0.32287 0.0
Cd155 Cd 0.30988 0.1119 0.27946 0.0
O156 O 0.27944 0.07203 0.31044 0.0
Cd157 Cd 0.25522 0.03822 0.31683 0.0
O158 O 0.22273 0.01049 0.31795 0.0
C159 C 0.20069 0.01842 0.31492 0.0
O160 O 0.19871 0.0426 0.31172 0.0
C161 C 0.2853 0.08967 0.32796 0.0
C162 C 0.33992 0.07208 0.26838 0.0
O163 O 0.3502 0.09441 0.27554 0.0
O164 O 0.3156 0.06881 0.26597 0.0
O165 O 0.25376 0.01602 0.73689 0.0
Cd166 Cd 0.23804 0.02845 0.69536 0.0
O167 O 0.28903 0.04044 0.73685 0.0
Cd168 Cd 0.32545 0.06143 0.75074 0.0
O169 O 0.36428 0.07718 0.76296 0.0
C170 C 0.38192 0.06228 0.76549 0.0
O171 O 0.37629 0.03767 0.761 0.0
C172 C 0.2749 0.0251 0.74818 0.0
C173 C 0.1877 0.04088 0.6968 0.0
O174 O 0.19277 0.01866 0.68831 0.0
O175 O 0.20636 0.05721 0.70423 0.0
O176 O 0.6285 0.67836 0.33321 0.0
Cd177 Cd 0.67435 0.68896 0.3366 0.0
O178 O 0.63334 0.64832 0.359 0.0
Cd179 Cd 0.62335 0.61892 0.38444 0.0
O180 O 0.6189 0.58803 0.40932 0.0
C181 C 0.60669 0.56681 0.4021 0.0
O182 O 0.59539 0.56333 0.37902 0.0
C183 C 0.61865 0.6611 0.34573 0.0
C184 C 0.68413 0.73879 0.35815 0.0
O185 O 0.68333 0.73392 0.33401 0.0
O186 O 0.6809 0.72011 0.37197 0.0
O187 O 0.73529 0.21823 -0.00013 0.0
Cd188 Cd 0.69309 0.19522 0.99388 0.0
O189 O 0.72057 0.25608 0.00062 0.0
Cd190 Cd 0.72607 0.29777 0.00629 0.0
O191 O 0.73588 0.33862 0.0153 0.0
C192 C 0.72265 0.35515 0.00569 0.0
O193 O 0.70273 0.34748 0.98995 0.0
C194 C 0.7393 0.24231 0.00151 0.0
C195 C 0.69481 0.14456 0.00536 0.0
O196 O 0.6988 0.15117 0.98311 0.0
O197 O 0.68993 0.16187 0.02214 0.0
O198 O 0.24279 0.81125 0.6789 0.0
Cd199 Cd 0.28251 0.80138 0.70137 0.0
O200 O 0.2608 0.8399 0.65641 0.0
Cd201 Cd 0.25773 0.86935 0.62959 0.0
O202 O 0.25518 0.90502 0.61135 0.0
C203 C 0.24994 0.9245 0.62491 0.0
O204 O 0.24606 0.92221 0.6489 0.0
C205 C 0.24105 0.82705 0.66203 0.0
C206 C 0.29214 0.75168 0.68571 0.0
O207 O 0.27856 0.7562 0.70435 0.0
O208 O 0.30164 0.7707 0.67494 0.0
O209 O 0.31384 0.30891 0.11973 0.0
Cd210 Cd 0.26991 0.31851 0.11049 0.0
O211 O 0.30881 0.28761 0.08247 0.0
Cd212 Cd 0.32036 0.26593 0.04903 0.0
O213 O 0.32906 0.2363 0.02085 0.0
C214 C 0.32893 0.21379 0.02773 0.0
O215 O 0.32401 0.20981 0.05114 0.0
C216 C 0.32308 0.29546 0.10235 0.0
C217 C 0.26876 0.34779 0.06887 0.0
O218 O 0.27088 0.35825 0.09163 0.0
O219 O 0.26643 0.32345 0.06581 0.0
O220 O 0.34086 0.64852 0.69301 0.0
Cd221 Cd 0.33531 0.69249 0.70721 0.0
O222 O 0.36309 0.65617 0.66072 0.0
Cd223 Cd 0.38606 0.64843 0.62869 0.0
O224 O 0.40422 0.63882 0.59391 0.0
C225 C 0.39084 0.63022 0.57373 0.0
O226 O 0.36605 0.62688 0.57421 0.0
C227 C 0.35303 0.64029 0.67471 0.0
C228 C 0.35046 0.69722 0.75898 0.0
O229 O 0.32788 0.68848 0.75078 0.0
O230 O 0.36562 0.70479 0.7428 0.0
O231 O 0.0205 0.69986 0.22501 0.0
Cd232 Cd 0.02599 0.65669 0.20782 0.0
O233 O 0.02951 0.6908 0.26436 0.0
Cd234 Cd 0.03846 0.70323 0.30461 0.0
O235 O 0.05038 0.72069 0.34277 0.0
C236 C 0.0358 0.73483 0.3543 0.0
O237 O 0.01345 0.73829 0.34314 0.0
C238 C 0.02341 0.70675 0.24861 0.0
C239 C 0.04961 0.65832 0.16255 0.0
O240 O 0.02539 0.65824 0.16274 0.0
O241 O 0.06266 0.65724 0.18378 0.0
O242 O 0.67224 0.27355 0.81035 0.0
Cd243 Cd 0.69167 0.31472 0.80074 0.0
O244 O 0.64583 0.28908 0.83657 0.0
Cd245 Cd 0.61696 0.28238 0.86331 0.0
O246 O 0.59783 0.27226 0.89677 0.0
C247 C 0.61023 0.26061 0.91313 0.0
O248 O 0.63342 0.25503 0.90892 0.0
C249 C 0.65417 0.27016 0.82457 0.0
C250 C 0.67553 0.32061 0.75031 0.0
O251 O 0.69581 0.30968 0.75584 0.0
O252 O 0.66355 0.32965 0.76866 0.0
O253 O 0.10056 0.33976 0.3052 0.0
Cd254 Cd 0.10543 0.29524 0.31232 0.0
O255 O 0.07686 0.3321 0.26931 0.0
Cd256 Cd 0.05253 0.33969 0.23581 0.0
O257 O 0.03137 0.34361 0.19944 0.0
C258 C 0.00929 0.33235 0.19457 0.0
O259 O 0.99944 0.31893 0.21186 0.0
C260 C 0.08792 0.34801 0.2866 0.0
C261 C 0.07238 0.27967 0.3478 0.0
O262 O 0.0938 0.29196 0.35492 0.0
O263 O 0.06672 0.27438 0.32394 0.0
H264 H 0.30756 0.59909 0.63486 0.0
H265 H 0.29893 0.5588 0.56099 0.0
H266 H 0.30801 0.64045 0.56771 0.0
H267 H 0.2647 0.53621 0.59525 0.0
C268 C 0.28397 0.53245 0.60159 0.0
C269 C 0.30623 0.59946 0.61437 0.0
C270 C 0.30804 0.62277 0.60319 0.0
C271 C 0.30263 0.57647 0.59917 0.0
C272 C 0.30129 0.57667 0.57264 0.0
C273 C 0.30353 0.5997 0.56113 0.0
C274 C 0.30654 0.62263 0.57654 0.0
N275 N 0.30181 0.55309 0.61063 0.0
H276 H 0.30349 0.48194 0.98943 0.0
H277 H 0.2888 0.49414 0.91065 0.0
H278 H 0.26076 0.42415 0.9385 0.0
H279 H 0.32043 0.52566 0.91941 0.0
C280 C 0.31652 0.5329 0.93834 0.0
C281 C 0.29524 0.47503 0.97062 0.0
C282 C 0.28202 0.45084 0.96653 0.0
C283 C 0.29788 0.49072 0.9507 0.0
C284 C 0.28732 0.48205 0.92617 0.0
C285 C 0.27426 0.45785 0.92158 0.0
C286 C 0.27171 0.44238 0.94184 0.0
N287 N 0.30942 0.51579 0.95652 0.0
H288 H 0.69088 0.89277 0.40859 0.0
H289 H 0.71155 0.93851 0.47864 0.0
H290 H 0.70701 0.85746 0.47838 0.0
H291 H 0.7315 0.96304 0.4524 0.0
C292 C 0.7171 0.96321 0.43668 0.0
C293 C 0.69626 0.89411 0.42882 0.0
C294 C 0.69762 0.87191 0.4419 0.0
C295 C 0.70208 0.91821 0.44173 0.0
C296 C 0.70798 0.92008 0.46818 0.0
C297 C 0.70989 0.89825 0.48138 0.0
C298 C 0.70502 0.87428 0.46813 0.0
N299 N 0.70217 0.94033 0.4279 0.0
H300 H 0.6875 0.9891 0.02615 0.0
H301 H 0.71088 0.94189 0.08494 0.0
H302 H 0.71411 0.02274 0.10093 0.0
H303 H 0.72152 0.91712 0.05079 0.0
C304 C 0.70513 0.9181 0.03736 0.0
C305 C 0.695 0.98731 0.04549 0.0
C306 C 0.70019 0.00906 0.0626 0.0
C307 C 0.69934 0.96307 0.05316 0.0
C308 C 0.70818 0.96051 0.07851 0.0
C309 C 0.71356 0.98199 0.09579 0.0
C310 C 0.70974 0.00615 0.08763 0.0
N311 N 0.69393 0.94157 0.03525 0.0
H312 H 0.61856 0.31488 0.59736 0.0
H313 H 0.54523 0.29511 0.55794 0.0
H314 H 0.55183 0.30996 0.63913 0.0
H315 H 0.57712 0.26967 0.53124 0.0
C316 C 0.58507 0.28896 0.52965 0.0
C317 C 0.59831 0.31089 0.59795 0.0
C318 C 0.5872 0.31284 0.62125 0.0
C319 C 0.58336 0.30411 0.5752 0.0
C320 C 0.55692 0.29963 0.5756 0.0
C321 C 0.54537 0.30206 0.5986 0.0
C322 C 0.56069 0.30822 0.62134 0.0
N323 N 0.59489 0.30427 0.55186 0.0
H324 H 0.06639 0.65974 0.00084 0.0
H325 H 0.12997 0.68869 0.96266 0.0
H326 H 0.13187 0.69753 0.04427 0.0
H327 H 0.04752 0.64947 0.96383 0.0
C328 C 0.05933 0.65417 0.94872 0.0
C329 C 0.08502 0.66961 0.00135 0.0
C330 C 0.09753 0.67837 0.02511 0.0
C331 C 0.0967 0.67336 0.97873 0.0
C332 C 0.1212 0.68559 0.98015 0.0
C333 C 0.13414 0.69432 0.00368 0.0
C334 C 0.1221 0.69069 0.02606 0.0
N335 N 0.08452 0.66562 0.95419 0.0
H336 H 0.97991 0.24328 0.46325 0.0
H337 H 0.90022 0.22418 0.46852 0.0
H338 H 0.93014 0.22186 0.39554 0.0
H339 H 0.9066 0.2505 0.50377 0.0
C340 C 0.92547 0.2474 0.51188 0.0
C341 C 0.9612 0.23759 0.45398 0.0
C342 C 0.95785 0.2327 0.42737 0.0
C343 C 0.94049 0.23541 0.46893 0.0
C344 C 0.91622 0.22718 0.45722 0.0
C345 C 0.91258 0.22188 0.43078 0.0
C346 C 0.93335 0.22494 0.41603 0.0
N347 N 0.94477 0.24122 0.49567 0.0
H348 H 0.35683 0.65468 0.91634 0.0
H349 H 0.42381 0.65026 0.96585 0.0
H350 H 0.43031 0.67595 0.89119 0.0
H351 H 0.39508 0.61935 0.98347 0.0
C352 C 0.38076 0.63301 0.98434 0.0
C353 C 0.37738 0.65659 0.9194 0.0
C354 C 0.39226 0.66497 0.90028 0.0
C355 C 0.38863 0.65103 0.94283 0.0
C356 C 0.41519 0.65441 0.94761 0.0
C357 C 0.43055 0.664 0.92932 0.0
C358 C 0.41881 0.66884 0.90556 0.0
N359 N 0.3726 0.64446 0.96206 0.0
H360 H 0.55907 0.60102 0.30815 0.0
H361 H 0.51852 0.5272 0.29927 0.0
H362 H 0.60009 0.53374 0.30993 0.0
H363 H 0.49261 0.55663 0.26881 0.0
C364 C 0.49095 0.56691 0.28707 0.0
C365 C 0.55937 0.58053 0.30691 0.0
C366 C 0.58259 0.56929 0.30932 0.0
C367 C 0.53633 0.56544 0.30293 0.0
C368 C 0.53638 0.53885 0.30178 0.0
C369 C 0.55935 0.52729 0.30453 0.0
C370 C 0.58233 0.54264 0.30802 0.0
N371 N 0.51317 0.5773 0.30207 0.0
H372 H 0.03583 0.05652 0.71862 0.0
H373 H 0.9847 0.11545 0.72692 0.0
H374 H 0.0643 0.13537 0.72335 0.0
H375 H 0.9629 0.08443 0.74646 0.0
C376 C 0.96427 0.0681 0.73308 0.0
C377 C 0.03272 0.07656 0.72029 0.0
C378 C 0.0534 0.09502 0.72091 0.0
C379 C 0.00798 0.08371 0.72278 0.0
C380 C 0.00375 0.10967 0.72531 0.0
C381 C 0.02407 0.12837 0.72594 0.0
C382 C 0.04873 0.12089 0.72353 0.0
N383 N 0.98765 0.06445 0.72219 0.0
H384 H 0.47611 0.98763 0.25548 0.0
H385 H 0.47705 0.90931 0.22775 0.0
H386 H 0.40726 0.9454 0.22235 0.0
H387 H 0.51074 0.91176 0.25796 0.0
C388 C 0.52055 0.92971 0.25424 0.0
C389 C 0.46609 0.97032 0.24648 0.0
C390 C 0.43976 0.96932 0.2397 0.0
C391 C 0.47965 0.94877 0.24254 0.0
C392 C 0.46677 0.92595 0.23148 0.0
C393 C 0.44062 0.92468 0.22433 0.0
C394 C 0.4274 0.94646 0.22816 0.0
N395 N 0.50631 0.95079 0.24919 0.0
H396 H 0.92935 0.42025 0.69524 0.0
H397 H 0.97772 0.4889 0.69445 0.0
H398 H 0.90105 0.49296 0.71472 0.0
H399 H 0.99696 0.4631 0.66538 0.0
C400 C 0.99766 0.4465 0.67625 0.0
C401 C 0.93202 0.44078 0.69807 0.0
C402 C 0.91187 0.45503 0.70517 0.0
C403 C 0.95568 0.45279 0.69399 0.0
C404 C 0.95941 0.47944 0.69724 0.0
C405 C 0.93963 0.49406 0.70436 0.0
C406 C 0.91601 0.48171 0.7084 0.0
N407 N 0.97577 0.43755 0.68798 0.0
H408 H 0.62594 0.36994 0.44417 0.0
H409 H 0.62065 0.41271 0.51498 0.0
H410 H 0.65996 0.34458 0.51312 0.0
H411 H 0.62159 0.44568 0.49296 0.0
C412 C 0.6143 0.43995 0.47354 0.0
C413 C 0.63058 0.37238 0.4645 0.0
C414 C 0.64225 0.35341 0.47735 0.0
C415 C 0.62423 0.39458 0.47779 0.0
C416 C 0.62807 0.39705 0.50447 0.0
C417 C 0.64105 0.37918 0.51771 0.0
C418 C 0.64871 0.35785 0.50366 0.0
N419 N 0.61433 0.41414 0.46377 0.0
H420 H 0.74391 0.55441 0.02611 0.0
H421 H 0.77948 0.53416 0.0968 0.0
H422 H 0.76366 0.61122 0.08862 0.0
H423 H 0.79163 0.50165 0.07155 0.0
C424 C 0.77499 0.49645 0.05842 0.0
C425 C 0.75207 0.55998 0.04526 0.0
C426 C 0.75265 0.58549 0.05523 0.0
C427 C 0.7621 0.54135 0.05979 0.0
C428 C 0.77262 0.54829 0.0848 0.0
C429 C 0.77376 0.57364 0.09476 0.0
C430 C 0.76376 0.59199 0.08004 0.0
N431 N 0.76018 0.51569 0.04919 0.0
H432 H 0.26863 0.09952 0.54801 0.0
H433 H 0.24968 0.05944 0.4748 0.0
H434 H 0.26825 0.14027 0.48086 0.0
H435 H 0.24719 0.06585 0.56204 0.0
C436 C 0.25099 0.0498 0.54929 0.0
C437 C 0.26497 0.09976 0.52768 0.0
C438 C 0.26869 0.12287 0.51638 0.0
C439 C 0.25773 0.07692 0.51265 0.0
C440 C 0.25498 0.07718 0.48616 0.0
C441 C 0.259 0.09993 0.47436 0.0
C442 C 0.26533 0.12265 0.48975 0.0
N443 N 0.25443 0.0531 0.52332 0.0
H444 H 0.32867 0.01212 0.96544 0.0
H445 H 0.33126 0.0544 0.8994 0.0
H446 H 0.31968 0.9733 0.89026 0.0
H447 H 0.34489 0.08714 0.92604 0.0
C448 C 0.33997 0.08336 0.94499 0.0
C449 C 0.32843 0.01225 0.94498 0.0
C450 C 0.32423 0.98936 0.92938 0.0
C451 C 0.33158 0.03574 0.93458 0.0
C452 C 0.33 0.03651 0.90802 0.0
C453 C 0.32535 0.01396 0.89218 0.0
C454 C 0.32278 0.99053 0.90284 0.0
N455 N 0.33477 0.05804 0.95159 0.0
H456 H 0.39844 0.62877 0.36945 0.0
H457 H 0.4737 0.61582 0.39979 0.0
H458 H 0.46306 0.6437 0.32632 0.0
H459 H 0.45743 0.61244 0.43551 0.0
C460 C 0.43693 0.61274 0.43396 0.0
C461 C 0.41869 0.62915 0.36745 0.0
C462 C 0.42861 0.63695 0.3451 0.0
C463 C 0.43463 0.62188 0.38752 0.0
C464 C 0.46092 0.62156 0.38481 0.0
C465 C 0.47117 0.62942 0.3627 0.0
C466 C 0.45496 0.63721 0.34312 0.0
N467 N 0.42349 0.61607 0.4103 0.0
H468 H 0.94687 0.34184 0.00026 0.0
H469 H 0.88149 0.31788 0.03862 0.0
H470 H 0.87652 0.31562 0.95715 0.0
H471 H 0.96291 0.35799 0.03818 0.0
C472 C 0.9538 0.34755 0.05236 0.0
C473 C 0.92713 0.33482 0.99966 0.0
C474 C 0.91311 0.32963 0.97592 0.0
C475 C 0.91569 0.33064 0.02235 0.0
C476 C 0.8902 0.32116 0.02113 0.0
C477 C 0.87584 0.31616 0.99771 0.0
C478 C 0.8874 0.32043 0.97524 0.0
N479 N 0.92923 0.33473 0.04672 0.0
H480 H 0.04634 0.78502 0.53823 0.0
H481 H 0.12252 0.81701 0.53387 0.0
H482 H 0.09773 0.79476 0.60539 0.0
H483 H 0.04036 0.81264 0.50471 0.0
C484 C 0.05516 0.80476 0.49409 0.0
C485 C 0.06471 0.79187 0.54762 0.0
C486 C 0.06949 0.78947 0.57373 0.0
C487 C 0.08384 0.80183 0.5333 0.0
C488 C 0.10805 0.80926 0.54519 0.0
C489 C 0.11345 0.80697 0.57135 0.0
C490 C 0.09391 0.79702 0.58537 0.0
N491 N 0.07959 0.80292 0.50659 0.0
H492 H 0.53803 0.25482 0.08714 0.0
H493 H 0.46237 0.24831 0.05052 0.0
H494 H 0.4743 0.26768 0.131 0.0
H495 H 0.54772 0.23389 0.05113 0.0
C496 C 0.53522 0.24095 0.03651 0.0
C497 C 0.51775 0.25528 0.08824 0.0
C498 C 0.50827 0.26143 0.1119 0.0
C499 C 0.50116 0.2504 0.06607 0.0
C500 C 0.475 0.25145 0.06774 0.0
C501 C 0.46514 0.25748 0.09112 0.0
C502 C 0.48189 0.26246 0.11306 0.0
N503 N 0.5101 0.2464 0.04153 0.0
H504 H 0.38615 0.42237 0.63822 0.0
H505 H 0.41471 0.4987 0.62763 0.0
H506 H 0.34182 0.48548 0.65636 0.0
H507 H 0.44443 0.47946 0.60666 0.0
C508 C 0.44725 0.46266 0.61679 0.0
C509 C 0.38354 0.44251 0.63931 0.0
C510 C 0.36115 0.45158 0.64807 0.0
C511 C 0.403 0.45919 0.632 0.0
C512 C 0.39975 0.48539 0.63265 0.0
C513 C 0.37751 0.49479 0.64119 0.0
C514 C 0.35855 0.47788 0.64911 0.0
N515 N 0.42625 0.44907 0.62625 0.0
H516 H 0.01931 0.92657 0.30581 0.0
H517 H 0.06325 0.86435 0.28482 0.0
H518 H 0.98192 0.85386 0.27673 0.0
H519 H 0.09316 0.88584 0.31201 0.0
C520 C 0.09077 0.90567 0.30926 0.0
C521 C 0.02005 0.90698 0.29853 0.0
C522 C 0.99743 0.89155 0.29145 0.0
C523 C 0.04385 0.89732 0.29673 0.0
C524 C 0.04509 0.87198 0.28718 0.0
C525 C 0.02277 0.85621 0.28039 0.0
C526 C 0.99906 0.866 0.28268 0.0
N527 N 0.06608 0.91384 0.30381 0.0
H528 H 0.5868 0.05762 0.76443 0.0
H529 H 0.5756 0.12502 0.8116 0.0
H530 H 0.64787 0.11577 0.78145 0.0
H531 H 0.5352 0.11709 0.79583 0.0
C532 C 0.53159 0.09664 0.79216 0.0
C533 C 0.5942 0.07576 0.77403 0.0
C534 C 0.61944 0.08486 0.77175 0.0
C535 C 0.57795 0.09052 0.78751 0.0
C536 C 0.58759 0.11406 0.80012 0.0
C537 C 0.61297 0.12335 0.79827 0.0
C538 C 0.62853 0.10863 0.78376 0.0
N539 N 0.55198 0.08129 0.78745 0.0
H540 H 0.08943 0.56917 0.27539 0.0
H541 H 0.04622 0.49905 0.24801 0.0
H542 H 0.12182 0.49772 0.28289 0.0
H543 H 0.06091 0.58753 0.25188 0.0
C544 C 0.04342 0.57524 0.25034 0.0
C545 C 0.08809 0.54874 0.27173 0.0
C546 C 0.10856 0.5352 0.28035 0.0
C547 C 0.06568 0.53575 0.25956 0.0
C548 C 0.06372 0.50911 0.25657 0.0
C549 C 0.08375 0.49541 0.26549 0.0
C550 C 0.10617 0.50854 0.2768 0.0
N551 N 0.04408 0.54854 0.25164 0.0
H552 H 0.21303 0.5725 0.34223 0.0
H553 H 0.20719 0.6354 0.29542 0.0
H554 H 0.16621 0.61625 0.27558 0.0
H555 H 0.13293 0.58063 0.27053 0.0
H556 H 0.13749 0.51997 0.32064 0.0
H557 H 0.17815 0.53916 0.33998 0.0
C558 C 0.20277 0.58199 0.32767 0.0
C559 C 0.21318 0.60511 0.32003 0.0
C560 C 0.17906 0.57121 0.31684 0.0
C561 C 0.19952 0.61751 0.30152 0.0
C562 C 0.17614 0.60656 0.29017 0.0
C563 C 0.14257 0.57179 0.28594 0.0
C564 C 0.13227 0.5485 0.2936 0.0
C565 C 0.16578 0.5833 0.29758 0.0
C566 C 0.14523 0.5374 0.31364 0.0
C567 C 0.16846 0.54847 0.32493 0.0
H568 H 0.28975 0.37125 0.69792 0.0
H569 H 0.23322 0.42079 0.67311 0.0
H570 H 0.26538 0.4461 0.65298 0.0
H571 H 0.30972 0.45561 0.64485 0.0
H572 H 0.36684 0.40772 0.67216 0.0
H573 H 0.33412 0.38015 0.68851 0.0
C574 C 0.28439 0.38741 0.68786 0.0
C575 C 0.25914 0.39416 0.68709 0.0
C576 C 0.30307 0.40223 0.67682 0.0
C577 C 0.25255 0.41525 0.67409 0.0
C578 C 0.27093 0.42975 0.6626 0.0
C579 C 0.31518 0.43918 0.65431 0.0
C580 C 0.34093 0.4339 0.65698 0.0
C581 C 0.29633 0.42369 0.66428 0.0
C582 C 0.34727 0.41221 0.66922 0.0
C583 C 0.32854 0.39647 0.67885 0.0
H584 H 0.70302 0.04175 0.70553 0.0
H585 H 0.68291 0.97418 0.74289 0.0
H586 H 0.65012 0.9959 0.76404 0.0
H587 H 0.62834 0.03488 0.77334 0.0
H588 H 0.64888 0.10214 0.73574 0.0
H589 H 0.68018 0.07972 0.71319 0.0
C590 C 0.69146 0.03172 0.71827 0.0
C591 C 0.69556 0.00644 0.72275 0.0
C592 C 0.67267 0.04429 0.73034 0.0
C593 C 0.68023 0.9937 0.73917 0.0
C594 C 0.66145 0.0061 0.75127 0.0
C595 C 0.63946 0.04445 0.75994 0.0
C596 C 0.63648 0.07016 0.75636 0.0
C597 C 0.65763 0.03147 0.74715 0.0
C598 C 0.65109 0.08244 0.73907 0.0
C599 C 0.66897 0.06963 0.72615 0.0
H600 H 0.88386 0.9197 0.29876 0.0
H601 H 0.91586 0.99045 0.27449 0.0
H602 H 0.95757 0.97362 0.27409 0.0
H603 H 0.9847 0.93853 0.27961 0.0
H604 H 0.95325 0.86847 0.30591 0.0
H605 H 0.91153 0.88522 0.30615 0.0
C606 C 0.89996 0.93144 0.29338 0.0
C607 C 0.89671 0.95626 0.28656 0.0
C608 C 0.92397 0.92173 0.29342 0.0
C609 C 0.91782 0.97129 0.27984 0.0
C610 C 0.94169 0.96167 0.27957 0.0
C611 C 0.96886 0.92702 0.28579 0.0
C612 C 0.97221 0.90219 0.29263 0.0
C613 C 0.94497 0.9369 0.28627 0.0
C614 C 0.95122 0.88746 0.30012 0.0
C615 C 0.92735 0.89708 0.30042 0.0
H616 H 0.29084 0.22101 0.5937 0.0
H617 H 0.33167 0.24659 0.53153 0.0
H618 H 0.32077 0.20562 0.50748 0.0
H619 H 0.30046 0.16261 0.50437 0.0
H620 H 0.25522 0.13819 0.56411 0.0
H621 H 0.26787 0.17827 0.58923 0.0
C622 C 0.29726 0.21757 0.57486 0.0
C623 C 0.31205 0.23676 0.5644 0.0
C624 C 0.29043 0.19411 0.56085 0.0
C625 C 0.32012 0.23218 0.53991 0.0
C626 C 0.314 0.20872 0.5262 0.0
C627 C 0.29278 0.16608 0.52261 0.0
C628 C 0.27669 0.1472 0.53209 0.0
C629 C 0.29917 0.18957 0.53648 0.0
C630 C 0.26791 0.15204 0.55632 0.0
C631 C 0.27493 0.17513 0.57065 0.0
H632 H 0.29857 0.87849 0.96314 0.0
H633 H 0.34749 0.90899 0.02879 0.0
H634 H 0.3541 0.94942 0.00971 0.0
H635 H 0.34664 0.97561 0.97412 0.0
H636 H 0.29365 0.94669 0.91064 0.0
H637 H 0.28862 0.90594 0.92883 0.0
C638 C 0.31067 0.89403 0.97323 0.0
C639 C 0.32266 0.89079 0.99722 0.0
C640 C 0.31388 0.91739 0.96243 0.0
C641 C 0.33802 0.9111 0.0103 0.0
C642 C 0.34186 0.93417 0.99937 0.0
C643 C 0.3336 0.96066 0.96436 0.0
C644 C 0.32078 0.96445 0.9408 0.0
C645 C 0.3299 0.93751 0.97543 0.0
C646 C 0.3044 0.94438 0.9284 0.0
C647 C 0.30123 0.92103 0.93894 0.0
H648 H 0.66168 0.24119 0.43857 0.0
H649 H 0.67401 0.27729 0.36957 0.0
H650 H 0.66322 0.31779 0.38958 0.0
H651 H 0.65376 0.34356 0.42776 0.0
H652 H 0.64057 0.30659 0.49629 0.0
H653 H 0.64895 0.26612 0.47546 0.0
C654 C 0.66178 0.25784 0.42778 0.0
C655 C 0.66888 0.25622 0.40269 0.0
C656 C 0.65597 0.28111 0.43948 0.0
C657 C 0.66873 0.27799 0.38897 0.0
C658 C 0.66268 0.30121 0.40044 0.0
C659 C 0.65235 0.32669 0.43814 0.0
C660 C 0.64696 0.32856 0.46387 0.0
C661 C 0.65681 0.30311 0.42589 0.0
C662 C 0.64556 0.30622 0.47682 0.0
C663 C 0.65003 0.28284 0.46482 0.0
H664 H 0.70877 0.68322 0.01244 0.0
H665 H 0.65323 0.62686 0.97419 0.0
H666 H 0.67582 0.59292 0.99265 0.0
H667 H 0.71006 0.57975 0.02164 0.0
H668 H 0.76842 0.63617 0.05558 0.0
H669 H 0.74596 0.66956 0.03693 0.0
C670 C 0.70173 0.66347 0.00813 0.0
C671 C 0.67928 0.65743 0.99236 0.0
C672 C 0.71523 0.64412 0.01814 0.0
C673 C 0.6705 0.63184 0.98641 0.0
C674 C 0.68338 0.61249 0.99697 0.0
C675 C 0.71827 0.59922 0.02456 0.0
C676 C 0.74069 0.60528 0.04067 0.0
C677 C 0.70566 0.61843 0.01307 0.0
C678 C 0.75077 0.63083 0.04412 0.0
C679 C 0.73803 0.65003 0.03328 0.0
H680 H 0.59039 0.30409 0.20066 0.0
H681 H 0.53529 0.26821 0.24551 0.0
H682 H 0.50925 0.25204 0.2068 0.0
H683 H 0.50134 0.24956 0.16041 0.0
H684 H 0.5548 0.28862 0.11594 0.0
H685 H 0.58253 0.30146 0.15424 0.0
C686 C 0.57281 0.29252 0.20196 0.0
C687 C 0.56479 0.28735 0.22593 0.0
C688 C 0.55765 0.28379 0.17968 0.0
C689 C 0.54185 0.27252 0.2273 0.0
C690 C 0.52695 0.26328 0.20517 0.0
C691 C 0.51896 0.26103 0.15905 0.0
C692 C 0.52585 0.26806 0.13518 0.0
C693 C 0.53449 0.2691 0.18128 0.0
C694 C 0.54909 0.2825 0.13388 0.0
C695 C 0.56491 0.2901 0.15585 0.0
H696 H 0.94655 0.34288 0.86506 0.0
H697 H 0.01609 0.31738 0.89849 0.0
H698 H 0.99766 0.31551 0.93934 0.0
H699 H 0.96118 0.31932 0.965 0.0
H700 H 0.89251 0.34736 0.93223 0.0
H701 H 0.91114 0.3497 0.89164 0.0
C702 C 0.95768 0.33697 0.88131 0.0
C703 C 0.98257 0.3301 0.8787 0.0
C704 C 0.94708 0.33623 0.90482 0.0
C705 C 0.99688 0.32277 0.89999 0.0
C706 C 0.98633 0.32164 0.92335 0.0
C707 C 0.9504 0.32641 0.94917 0.0
C708 C 0.92533 0.33291 0.95175 0.0
C709 C 0.96138 0.32816 0.92594 0.0
C710 C 0.91163 0.34168 0.93076 0.0
C711 C 0.92232 0.3432 0.90753 0.0
H712 H 0.35542 0.68981 0.26928 0.0
H713 H 0.40332 0.65665 0.21537 0.0
H714 H 0.42496 0.63529 0.24906 0.0
H715 H 0.43292 0.6294 0.29413 0.0
H716 H 0.38645 0.66405 0.34855 0.0
H717 H 0.36136 0.68109 0.31421 0.0
C718 C 0.37036 0.67764 0.26482 0.0
C719 C 0.37794 0.67508 0.23989 0.0
C720 C 0.38311 0.66582 0.28438 0.0
C721 C 0.39728 0.65916 0.23444 0.0
C722 C 0.40971 0.64698 0.2537 0.0
C723 C 0.41733 0.64066 0.2986 0.0
C724 C 0.41184 0.64553 0.32405 0.0
C725 C 0.40327 0.6508 0.27883 0.0
C726 C 0.3911 0.65972 0.32922 0.0
C727 C 0.37681 0.66967 0.30957 0.0
H728 H 0.9716 0.75282 0.62703 0.0
H729 H 0.02736 0.71526 0.67105 0.0
H730 H 0.06079 0.7321 0.64603 0.0
H731 H 0.07411 0.75726 0.61159 0.0
H732 H 0.0188 0.79731 0.56956 0.0
H733 H 0.98522 0.77928 0.59354 0.0
C734 C 0.99105 0.74826 0.63109 0.0
C735 C 0.99697 0.73275 0.6508 0.0
C736 C 0.01025 0.75835 0.61692 0.0
C737 C 0.02231 0.7272 0.656 0.0
C738 C 0.04144 0.73679 0.64169 0.0
C739 C 0.05481 0.7624 0.60788 0.0
C740 C 0.0491 0.77865 0.5887 0.0
C741 C 0.03564 0.75245 0.62216 0.0
C742 C 0.02378 0.78455 0.58388 0.0
C743 C 0.00454 0.77439 0.59772 0.0
H744 H 0.81356 0.387 0.72749 0.0
H745 H 0.77718 0.45028 0.69806 0.0
H746 H 0.81859 0.47138 0.69184 0.0
H747 H 0.86492 0.47138 0.69363 0.0
H748 H 0.90166 0.40959 0.72589 0.0
H749 H 0.8603 0.38819 0.73152 0.0
C750 C 0.81472 0.40544 0.71976 0.0
C751 C 0.79231 0.417 0.71317 0.0
C752 C 0.83863 0.41764 0.71649 0.0
C753 C 0.79412 0.44098 0.70337 0.0
C754 C 0.8178 0.45304 0.69972 0.0
C755 C 0.86402 0.45344 0.7023 0.0
C756 C 0.88657 0.44217 0.70918 0.0
C757 C 0.84017 0.44151 0.70613 0.0
C758 C 0.88475 0.41859 0.71989 0.0
C759 C 0.86105 0.40638 0.72335 0.0
H760 H 0.69589 0.61655 0.32707 0.0
H761 H 0.66822 0.66604 0.27181 0.0
H762 H 0.62517 0.64609 0.27254 0.0
H763 H 0.59629 0.61179 0.28577 0.0
H764 H 0.62449 0.56216 0.34067 0.0
H765 H 0.66632 0.58504 0.34321 0.0
C766 C 0.68041 0.6232 0.3154 0.0
C767 C 0.68535 0.64252 0.29918 0.0
C768 C 0.6558 0.61142 0.31561 0.0
C769 C 0.665 0.65107 0.28437 0.0
C770 C 0.64038 0.63958 0.28466 0.0
C771 C 0.61146 0.60624 0.2986 0.0
C772 C 0.60723 0.58509 0.3128 0.0
C773 C 0.63568 0.6193 0.29973 0.0
C774 C 0.62721 0.57812 0.32925 0.0
C775 C 0.65119 0.59121 0.33074 0.0
H776 H 0.38939 0.07372 0.25701 0.0
H777 H 0.32542 0.02193 0.2695 0.0
H778 H 0.35104 0.9859 0.26296 0.0
H779 H 0.3914 0.96918 0.25422 0.0
H780 H 0.45453 0.02014 0.23757 0.0
H781 H 0.42966 0.05647 0.24603 0.0
C782 C 0.38111 0.05453 0.25828 0.0
C783 C 0.35557 0.05048 0.26375 0.0
C784 C 0.39583 0.03379 0.25401 0.0
C785 C 0.34499 0.02553 0.26516 0.0
C786 C 0.35965 0.00492 0.26153 0.0
C787 C 0.39971 0.98813 0.25191 0.0
C788 C 0.42487 0.99172 0.24507 0.0
C789 C 0.38504 0.00884 0.25589 0.0
C790 C 0.43538 0.01667 0.2431 0.0
C791 C 0.42107 0.03749 0.24772 0.0
H792 H 0.17111 0.08015 0.72513 0.0
H793 H 0.14456 0.01608 0.67226 0.0
H794 H 0.10068 0.02709 0.67492 0.0
H795 H 0.06995 0.0554 0.69185 0.0
H796 H 0.09678 0.11772 0.74695 0.0
H797 H 0.14039 0.10707 0.74352 0.0
C798 C 0.15574 0.06863 0.71412 0.0
C799 C 0.16111 0.04744 0.69839 0.0
C800 C 0.13057 0.07482 0.71605 0.0
C801 C 0.14093 0.03251 0.68451 0.0
C802 C 0.11584 0.03881 0.686 0.0
C803 C 0.08526 0.06649 0.70335 0.0
C804 C 0.07993 0.08757 0.71938 0.0
C805 C 0.11042 0.05994 0.70172 0.0
C806 C 0.10021 0.10179 0.73394 0.0
C807 C 0.12523 0.09561 0.73217 0.0
H808 H 0.67085 0.75635 0.40414 0.0
H809 H 0.70585 0.78049 0.33801 0.0
H810 H 0.71268 0.82406 0.35774 0.0
H811 H 0.70978 0.85495 0.39447 0.0
H812 H 0.67204 0.83075 0.45919 0.0
H813 H 0.66538 0.78756 0.43935 0.0
C814 C 0.68004 0.77114 0.39407 0.0
C815 C 0.68808 0.76519 0.3698 0.0
C816 C 0.68346 0.79614 0.40529 0.0
C817 C 0.69956 0.78461 0.35678 0.0
C818 C 0.70347 0.80951 0.36804 0.0
C819 C 0.69975 0.84034 0.40408 0.0
C820 C 0.69179 0.84613 0.42851 0.0
C821 C 0.69556 0.81548 0.39236 0.0
C822 C 0.67897 0.8268 0.44068 0.0
C823 C 0.675 0.80207 0.4293 0.0
H824 H 0.68112 0.12381 0.04829 0.0
H825 H 0.71141 0.10512 0.97639 0.0
H826 H 0.71497 0.06138 0.98729 0.0
H827 H 0.71098 0.02881 0.01799 0.0
H828 H 0.67954 0.04749 0.08932 0.0
H829 H 0.6751 0.09082 0.07792 0.0
C830 C 0.68846 0.11018 0.03496 0.0
C831 C 0.69612 0.11781 0.01162 0.0
C832 C 0.69036 0.08503 0.04129 0.0
C833 C 0.7054 0.0998 0.99451 0.0
C834 C 0.70747 0.07476 0.00073 0.0
C835 C 0.70282 0.04225 0.03088 0.0
C836 C 0.69586 0.0349 0.05459 0.0
C837 C 0.70016 0.0672 0.02415 0.0
C838 C 0.68554 0.05271 0.07116 0.0
C839 C 0.68286 0.07749 0.06461 0.0
H840 H 0.32314 0.73636 0.64992 0.0
H841 H 0.2683 0.70767 0.6993 0.0
H842 H 0.26993 0.66469 0.67948 0.0
H843 H 0.28391 0.63604 0.6454 0.0
H844 H 0.33907 0.66496 0.59643 0.0
H845 H 0.34022 0.70702 0.61876 0.0
C846 C 0.3117 0.72068 0.65651 0.0
C847 C 0.29538 0.7253 0.67582 0.0
C848 C 0.31257 0.69607 0.64492 0.0
C849 C 0.28092 0.7047 0.68434 0.0
C850 C 0.28177 0.6801 0.67297 0.0
C851 C 0.29652 0.65143 0.6399 0.0
C852 C 0.31103 0.64741 0.61896 0.0
C853 C 0.29709 0.67567 0.65284 0.0
C854 C 0.32721 0.66763 0.61206 0.0
C855 C 0.32799 0.6917 0.6249 0.0
H856 H 0.26643 0.39888 0.06865 0.0
H857 H 0.27425 0.33153 0.01959 0.0
H858 H 0.27911 0.3574 0.98367 0.0
H859 H 0.28271 0.39926 0.96659 0.0
H860 H 0.27263 0.46636 0.01525 0.0
H861 H 0.26763 0.44047 0.05099 0.0
C862 C 0.26909 0.38984 0.05007 0.0
C863 C 0.27007 0.36333 0.04684 0.0
C864 C 0.27177 0.40481 0.02948 0.0
C865 C 0.27337 0.3519 0.0226 0.0
C866 C 0.27624 0.36669 0.00206 0.0
C867 C 0.27908 0.40824 0.9849 0.0
C868 C 0.27834 0.43482 0.98816 0.0
C869 C 0.27566 0.39318 0.00532 0.0
C870 C 0.27393 0.44605 0.01222 0.0
C871 C 0.27082 0.43123 0.03267 0.0
H872 H 0.33193 0.66613 0.79269 0.0
H873 H 0.38951 0.72671 0.78562 0.0
H874 H 0.40646 0.72331 0.82943 0.0
H875 H 0.40588 0.70194 0.86898 0.0
H876 H 0.35101 0.63815 0.874 0.0
H877 H 0.33167 0.64448 0.83204 0.0
C878 C 0.34799 0.67881 0.80086 0.0
C879 C 0.35939 0.69674 0.78604 0.0
C880 C 0.35812 0.67616 0.8257 0.0
C881 C 0.38043 0.71276 0.7967 0.0
C882 C 0.39013 0.71079 0.82171 0.0
C883 C 0.3899 0.68917 0.86087 0.0
C884 C 0.38006 0.66954 0.87485 0.0
C885 C 0.37937 0.69227 0.83625 0.0
C886 C 0.35885 0.6537 0.86405 0.0
C887 C 0.34785 0.65714 0.83988 0.0
H888 H 0.02822 0.66909 0.11676 0.0
H889 H 0.09928 0.65205 0.15468 0.0
H890 H 0.12025 0.65626 0.11545 0.0
H891 H 0.11845 0.66504 0.07045 0.0
H892 H 0.04776 0.68411 0.03327 0.0
H893 H 0.02657 0.67845 0.07204 0.0
C894 C 0.04828 0.66618 0.11643 0.0
C895 C 0.06214 0.66022 0.13861 0.0
C896 C 0.06028 0.66893 0.09391 0.0
C897 C 0.08816 0.65668 0.13789 0.0
C898 C 0.10017 0.65909 0.11546 0.0
C899 C 0.09847 0.66821 0.07088 0.0
C900 C 0.08475 0.67492 0.04888 0.0
C901 C 0.08645 0.66534 0.09339 0.0
C902 C 0.05874 0.67853 0.04974 0.0
C903 C 0.04661 0.67547 0.07197 0.0
H904 H 0.63483 0.34445 0.73279 0.0
H905 H 0.69224 0.29659 0.70789 0.0
H906 H 0.67082 0.29126 0.66512 0.0
H907 H 0.63348 0.29675 0.63603 0.0
H908 H 0.57647 0.34505 0.66108 0.0
H909 H 0.5999 0.35324 0.70268 0.0
C910 C 0.64286 0.33311 0.71794 0.0
C911 C 0.66491 0.32068 0.72364 0.0
C912 C 0.63033 0.32988 0.69348 0.0
C913 C 0.6752 0.30628 0.70408 0.0
C914 C 0.66289 0.30309 0.67963 0.0
C915 C 0.6264 0.30945 0.65041 0.0
C916 C 0.60301 0.31992 0.64552 0.0
C917 C 0.64008 0.31429 0.67429 0.0
C918 C 0.59413 0.33627 0.66448 0.0
C919 C 0.6076 0.34115 0.68821 0.0
H920 H 0.03565 0.24068 0.34273 0.0
H921 H 0.06866 0.30295 0.39483 0.0
H922 H 0.03667 0.29346 0.42455 0.0
H923 H 0.99778 0.26918 0.43436 0.0
H924 H 0.96696 0.20463 0.38376 0.0
H925 H 0.99948 0.21353 0.35474 0.0
C926 C 0.03588 0.25207 0.36066 0.0
C927 C 0.05427 0.27262 0.36649 0.0
C928 C 0.01772 0.24626 0.37782 0.0
C929 C 0.05465 0.28702 0.38993 0.0
C930 C 0.03633 0.28166 0.40689 0.0
C931 C 0.99841 0.25667 0.4173 0.0
C932 C 0.97951 0.23652 0.41117 0.0
C933 C 0.01758 0.2615 0.40089 0.0
C934 C 0.9807 0.22075 0.38872 0.0
C935 C 0.99945 0.22569 0.37214 0.0
H936 H 0.31703 0.58776 0.44366 0.0
H937 H 0.26839 0.64978 0.44406 0.0
H938 H 0.2667 0.64896 0.49004 0.0
H939 H 0.27906 0.63054 0.53008 0.0
H940 H 0.32866 0.56935 0.52935 0.0
H941 H 0.32964 0.56975 0.48338 0.0
C942 C 0.30593 0.60107 0.45372 0.0
C943 C 0.29277 0.61875 0.44037 0.0
C944 C 0.30513 0.60056 0.48008 0.0
C945 C 0.27869 0.63596 0.45384 0.0
C946 C 0.27771 0.6355 0.48013 0.0
C947 C 0.29018 0.61739 0.51986 0.0
C948 C 0.30363 0.59983 0.53311 0.0
C949 C 0.29089 0.6179 0.49344 0.0
C950 C 0.31775 0.58273 0.51956 0.0
C951 C 0.31846 0.58306 0.4933 0.0
H952 H 0.21687 0.43752 0.81238 0.0
H953 H 0.24634 0.36409 0.81848 0.0
H954 H 0.26643 0.37819 0.86074 0.0
H955 H 0.27565 0.41148 0.89599 0.0
H956 H 0.24603 0.48474 0.8895 0.0
H957 H 0.22616 0.47063 0.84723 0.0
C958 C 0.22766 0.42454 0.82292 0.0
C959 C 0.23001 0.39975 0.81225 0.0
C960 C 0.23922 0.43278 0.84711 0.0
C961 C 0.24419 0.38327 0.8262 0.0
C962 C 0.25568 0.39132 0.85039 0.0
C963 C 0.26472 0.42428 0.88534 0.0
C964 C 0.26237 0.44913 0.89583 0.0
C965 C 0.25329 0.41602 0.86104 0.0
C966 C 0.2484 0.46562 0.88172 0.0
C967 C 0.23692 0.45753 0.85762 0.0
H968 H 0.76406 0.90586 0.59203 0.0
H969 H 0.70552 0.95688 0.60511 0.0
H970 H 0.68751 0.94732 0.56138 0.0
H971 H 0.6901 0.92673 0.51857 0.0
H972 H 0.74817 0.87537 0.50553 0.0
H973 H 0.76452 0.88259 0.55016 0.0
C974 C 0.74724 0.91473 0.58539 0.0
C975 C 0.73634 0.93225 0.60178 0.0
C976 C 0.73695 0.90915 0.5602 0.0
C977 C 0.71436 0.94335 0.59292 0.0
C978 C 0.70408 0.93798 0.56787 0.0
C979 C 0.70624 0.91704 0.52562 0.0
C980 C 0.71807 0.90071 0.50887 0.0
C981 C 0.71549 0.92129 0.55123 0.0
C982 C 0.73873 0.88795 0.51817 0.0
C983 C 0.74815 0.89218 0.54361 0.0
H984 H 0.74076 0.9586 0.20958 0.0
H985 H 0.80051 0.01716 0.20299 0.0
H986 H 0.78472 0.02144 0.15906 0.0
H987 H 0.75397 0.0085 0.12251 0.0
H988 H 0.69466 0.94936 0.12864 0.0
H989 H 0.71009 0.94539 0.17281 0.0
C990 C 0.74999 0.97261 0.19865 0.0
C991 C 0.77142 0.98792 0.20962 0.0
C992 C 0.74098 0.97474 0.17331 0.0
C993 C 0.78388 0.00527 0.19495 0.0
C994 C 0.77485 0.00775 0.16986 0.0
C995 C 0.74436 0.99486 0.1336 0.0
C996 C 0.72318 0.97931 0.12242 0.0
C997 C 0.75342 0.99259 0.15886 0.0
C998 C 0.71113 0.96141 0.13682 0.0
C999 C 0.71987 0.95922 0.16208 0.0
H1000 H 0.42881 0.29263 0.618 0.0
H1001 H 0.42551 0.33811 0.55353 0.0
H1002 H 0.47092 0.3359 0.55023 0.0
H1003 H 0.51192 0.32303 0.56679 0.0
H1004 H 0.51586 0.27761 0.63114 0.0
H1005 H 0.46986 0.27795 0.6334 0.0
C1006 C 0.43799 0.30194 0.60315 0.0
C1007 C 0.42372 0.31561 0.58614 0.0
C1008 C 0.46425 0.30071 0.60138 0.0
C1009 C 0.43597 0.32751 0.56696 0.0
C1010 C 0.46198 0.32629 0.56503 0.0
C1011 C 0.50267 0.31278 0.58102 0.0
C1012 C 0.51727 0.30028 0.59874 0.0
C1013 C 0.47633 0.31316 0.58226 0.0
C1014 C 0.50504 0.28755 0.6174 0.0
C1015 C 0.47876 0.2877 0.61867 0.0
H1016 H 0.24733 0.73751 0.99433 0.0
H1017 H 0.22792 0.79196 0.05295 0.0
H1018 H 0.18507 0.77076 0.05152 0.0
H1019 H 0.15326 0.73662 0.03363 0.0
H1020 H 0.17354 0.68125 0.97614 0.0
H1021 H 0.21612 0.7027 0.9774 0.0
C1022 C 0.23402 0.74428 0.00734 0.0
C1023 C 0.24104 0.76581 0.02426 0.0
C1024 C 0.20953 0.73191 0.0065 0.0
C1025 C 0.22302 0.77527 0.03991 0.0
C1026 C 0.19855 0.76313 0.03913 0.0
C1027 C 0.16708 0.72906 0.02159 0.0
C1028 C 0.16016 0.70734 0.00481 0.0
C1029 C 0.19163 0.74138 0.02255 0.0
C1030 C 0.17821 0.69811 0.98899 0.0
C1031 C 0.20262 0.71028 0.9898 0.0
H1032 H 0.81201 0.16998 0.37126 0.0
H1033 H 0.77981 0.23131 0.41307 0.0
H1034 H 0.82198 0.24698 0.43204 0.0
H1035 H 0.86793 0.24253 0.43792 0.0
H1036 H 0.90021 0.18162 0.39584 0.0
H1037 H 0.85812 0.16657 0.37579 0.0
C1038 C 0.8142 0.18687 0.38438 0.0
C1039 C 0.7927 0.19934 0.39077 0.0
C1040 C 0.83853 0.1958 0.3953 0.0
C1041 C 0.79598 0.22129 0.40777 0.0
C1042 C 0.8201 0.23024 0.41873 0.0
C1043 C 0.86567 0.22591 0.42443 0.0
C1044 C 0.88704 0.21309 0.41846 0.0
C1045 C 0.84146 0.21748 0.41287 0.0
C1046 C 0.88399 0.19184 0.40064 0.0
C1047 C 0.85995 0.1832 0.38923 0.0
H1048 H 0.54337 0.70184 0.97144 0.0
H1049 H 0.55574 0.68809 0.89222 0.0
H1050 H 0.51144 0.67109 0.88299 0.0
H1051 H 0.46905 0.66155 0.89724 0.0
H1052 H 0.45548 0.68144 0.97552 0.0
H1053 H 0.50045 0.69366 0.9854 0.0
C1054 C 0.53636 0.69487 0.95222 0.0
C1055 C 0.55272 0.69603 0.93255 0.0
C1056 C 0.51067 0.68608 0.9469 0.0
C1057 C 0.54341 0.68738 0.90764 0.0
C1058 C 0.51812 0.67767 0.90238 0.0
C1059 C 0.47569 0.66887 0.91642 0.0
C1060 C 0.45849 0.67036 0.93551 0.0
C1061 C 0.50148 0.67725 0.92181 0.0
C1062 C 0.46802 0.67933 0.9604 0.0
C1063 C 0.49383 0.68671 0.96609 0.0
H1064 H 0.55137 0.41074 0.32322 0.0
H1065 H 0.6128 0.41127 0.27387 0.0
H1066 H 0.60939 0.45645 0.26913 0.0
H1067 H 0.58997 0.49615 0.28015 0.0
H1068 H 0.5291 0.49569 0.33004 0.0
H1069 H 0.53106 0.45003 0.33309 0.0
C1070 C 0.56397 0.42067 0.31133 0.0
C1071 C 0.58241 0.4076 0.29905 0.0
C1072 C 0.56197 0.44667 0.30873 0.0
C1073 C 0.59847 0.42082 0.28362 0.0
C1074 C 0.59656 0.44668 0.2809 0.0
C1075 C 0.57715 0.48603 0.2917 0.0
C1076 C 0.55946 0.49929 0.30489 0.0
C1077 C 0.57856 0.45984 0.29357 0.0
C1078 C 0.54271 0.48588 0.31948 0.0
C1079 C 0.54394 0.45981 0.32138 0.0
H1080 H 0.9898 0.24047 0.73428 0.0
H1081 H 0.05413 0.25015 0.79008 0.0
H1082 H 0.06268 0.20577 0.78121 0.0
H1083 H 0.0513 0.16403 0.75839 0.0
H1084 H 0.98684 0.15393 0.70274 0.0
H1085 H 0.97902 0.19875 0.71053 0.0
C1086 C 0.00604 0.23302 0.74401 0.0
C1087 C 0.02162 0.24867 0.76243 0.0
C1088 C 0.0107 0.2074 0.73896 0.0
C1089 C 0.04195 0.23846 0.77573 0.0
C1090 C 0.04686 0.21312 0.77066 0.0
C1091 C 0.03574 0.17172 0.74774 0.0
C1092 C 0.01972 0.15572 0.72998 0.0
C1093 C 0.0313 0.19739 0.75241 0.0
C1094 C 0.99932 0.16584 0.71667 0.0
C1095 C 0.9949 0.19146 0.72104 0.0
H1096 H 0.36997 0.83275 0.16898 0.0
H1097 H 0.406 0.79337 0.22872 0.0
H1098 H 0.4314 0.83246 0.2447 0.0
H1099 H 0.44301 0.87802 0.24207 0.0
H1100 H 0.40683 0.91729 0.18246 0.0
H1101 H 0.38189 0.878 0.16604 0.0
C1102 C 0.38333 0.83268 0.18553 0.0
C1103 C 0.38599 0.81013 0.19764 0.0
C1104 C 0.39791 0.8552 0.1946 0.0
C1105 C 0.40349 0.81044 0.21903 0.0
C1106 C 0.41808 0.83278 0.22817 0.0
C1107 C 0.42988 0.87785 0.2253 0.0
C1108 C 0.42675 0.90047 0.21347 0.0
C1109 C 0.41546 0.85526 0.2161 0.0
C1110 C 0.40941 0.90013 0.19199 0.0
C1111 C 0.39518 0.87769 0.18259 0.0
H1112 H 0.9733 0.61143 0.72412 0.0
H1113 H 0.90028 0.61641 0.68359 0.0
H1114 H 0.89313 0.57009 0.67965 0.0
H1115 H 0.90778 0.5282 0.68736 0.0
H1116 H 0.98058 0.52318 0.72836 0.0
H1117 H 0.98755 0.56952 0.73275 0.0
C1118 C 0.95557 0.60243 0.715 0.0
C1119 C 0.93712 0.61736 0.70467 0.0
C1120 C 0.95161 0.57578 0.71276 0.0
C1121 C 0.91474 0.60532 0.69182 0.0
C1122 C 0.91061 0.57885 0.68959 0.0
C1123 C 0.92504 0.53726 0.69751 0.0
C1124 C 0.94361 0.52225 0.70751 0.0
C1125 C 0.92891 0.56389 0.69997 0.0
C1126 C 0.96609 0.53428 0.72023 0.0
C1127 C 0.97005 0.56078 0.72285 0.0
H1128 H 0.66796 0.41341 0.63458 0.0
H1129 H 0.67684 0.33338 0.63708 0.0
H1130 H 0.6634 0.32628 0.5917 0.0
H1131 H 0.64809 0.34282 0.5519 0.0
H1132 H 0.64798 0.42433 0.54814 0.0
H1133 H 0.65711 0.43051 0.59374 0.0
C1134 C 0.6663 0.39434 0.62527 0.0
C1135 C 0.67226 0.37375 0.63925 0.0
C1136 C 0.65957 0.39061 0.59905 0.0
C1137 C 0.67154 0.34936 0.62678 0.0
C1138 C 0.66394 0.34534 0.60086 0.0
C1139 C 0.65062 0.36208 0.56065 0.0
C1140 C 0.64696 0.38296 0.54598 0.0
C1141 C 0.65779 0.36584 0.58682 0.0
C1142 C 0.64969 0.40761 0.55851 0.0
C1143 C 0.65535 0.41131 0.58475 0.0
H1144 H 0.81736 0.63065 0.19879 0.0
H1145 H 0.75174 0.58931 0.22377 0.0
H1146 H 0.744 0.56562 0.18215 0.0
H1147 H 0.75287 0.56044 0.13722 0.0
H1148 H 0.81578 0.6048 0.11101 0.0
H1149 H 0.828 0.62326 0.15444 0.0
C1150 C 0.80182 0.61596 0.19525 0.0
C1151 C 0.78523 0.61154 0.21424 0.0
C1152 C 0.79692 0.60313 0.17096 0.0
C1153 C 0.76473 0.59296 0.20933 0.0
C1154 C 0.76027 0.57947 0.18556 0.0
C1155 C 0.7696 0.57367 0.14126 0.0
C1156 C 0.7836 0.58119 0.12125 0.0
C1157 C 0.7758 0.58492 0.16602 0.0
C1158 C 0.80493 0.59872 0.12635 0.0
C1159 C 0.81179 0.60933 0.15109 0.0
H1160 H 0.26411 0.12329 0.35941 0.0
H1161 H 0.29175 0.04866 0.35471 0.0
H1162 H 0.2847 0.04443 0.39943 0.0
H1163 H 0.27411 0.06355 0.44049 0.0
H1164 H 0.2423 0.13652 0.44418 0.0
H1165 H 0.24772 0.13984 0.39927 0.0
C1166 C 0.26832 0.10605 0.36821 0.0
C1167 C 0.27857 0.08638 0.35404 0.0
C1168 C 0.26373 0.10356 0.39374 0.0
C1169 C 0.28373 0.06397 0.36537 0.0
C1170 C 0.27981 0.06161 0.39092 0.0
C1171 C 0.26769 0.07992 0.43148 0.0
C1172 C 0.25838 0.10002 0.44611 0.0
C1173 C 0.27019 0.08146 0.4054 0.0
C1174 C 0.25039 0.12111 0.43379 0.0
C1175 C 0.2533 0.12299 0.40798 0.0
H1176 H 0.3219 0.02853 0.77506 0.0
H1177 H 0.24253 0.00656 0.78104 0.0
H1178 H 0.25159 0.99921 0.82554 0.0
H1179 H 0.2814 0.002 0.86368 0.0
H1180 H 0.35962 0.02894 0.85922 0.0
H1181 H 0.35161 0.03254 0.81337 0.0
C1182 C 0.30641 0.02309 0.78616 0.0
C1183 C 0.28141 0.01916 0.77476 0.0
C1184 C 0.31157 0.01988 0.8121 0.0
C1185 C 0.26195 0.01005 0.78927 0.0
C1186 C 0.26706 0.00592 0.81481 0.0
C1187 C 0.29665 0.00847 0.85251 0.0
C1188 C 0.32103 0.01507 0.86447 0.0
C1189 C 0.29169 0.01121 0.82652 0.0
C1190 C 0.34072 0.02373 0.85016 0.0
C1191 C 0.33612 0.02577 0.82406 0.0
H1192 H 0.58876 0.61897 0.35646 0.0
H1193 H 0.58505 0.69554 0.3343 0.0
H1194 H 0.53922 0.69217 0.33692 0.0
H1195 H 0.50056 0.66859 0.34769 0.0
H1196 H 0.50411 0.59308 0.37254 0.0
H1197 H 0.54995 0.59535 0.36793 0.0
C1198 C 0.57818 0.63523 0.35307 0.0
C1199 C 0.59062 0.65778 0.34608 0.0
C1200 C 0.55181 0.63343 0.35529 0.0
C1201 C 0.57608 0.67798 0.33991 0.0
C1202 C 0.54984 0.67616 0.34153 0.0
C1203 C 0.51134 0.65255 0.35192 0.0
C1204 C 0.49899 0.63066 0.3603 0.0
C1205 C 0.53758 0.65412 0.3495 0.0
C1206 C 0.51325 0.61019 0.36615 0.0
C1207 C 0.53941 0.61146 0.36345 0.0
H1208 H 0.75835 0.28331 0.9792 0.0
H1209 H 0.77947 0.22654 0.02942 0.0
H1210 H 0.82357 0.24487 0.03339 0.0
H1211 H 0.85622 0.2766 0.02189 0.0
H1212 H 0.83521 0.33273 0.97083 0.0
H1213 H 0.79085 0.31536 0.96812 0.0
C1214 C 0.77251 0.27535 0.99147 0.0
C1215 C 0.76565 0.254 0.00447 0.0
C1216 C 0.79782 0.28581 0.99339 0.0
C1217 C 0.78436 0.24312 0.01939 0.0
C1218 C 0.80953 0.25359 0.02168 0.0
C1219 C 0.84185 0.28515 0.01038 0.0
C1220 C 0.8489 0.30593 0.99662 0.0
C1221 C 0.81649 0.27488 0.0087 0.0
C1222 C 0.83021 0.3166 0.98144 0.0
C1223 C 0.80487 0.30673 0.97995 0.0
H1224 H 0.22985 0.82057 0.61144 0.0
H1225 H 0.19685 0.83714 0.68215 0.0
H1226 H 0.1545 0.83556 0.65963 0.0
H1227 H 0.12686 0.82651 0.6204 0.0
H1228 H 0.15944 0.80286 0.5508 0.0
H1229 H 0.2019 0.81107 0.57204 0.0
C1230 C 0.21336 0.82427 0.62174 0.0
C1231 C 0.21626 0.82926 0.64825 0.0
C1232 C 0.18902 0.82201 0.60884 0.0
C1233 C 0.19489 0.83344 0.66166 0.0
C1234 C 0.17075 0.83245 0.64881 0.0
C1235 C 0.14312 0.82277 0.60981 0.0
C1236 C 0.13959 0.81383 0.58392 0.0
C1237 C 0.16754 0.82614 0.62248 0.0
C1238 C 0.16125 0.81009 0.57056 0.0
C1239 C 0.18567 0.81451 0.58279 0.0
H1240 H 0.34524 0.25388 0.08348 0.0
H1241 H 0.36195 0.32582 0.1275 0.0
H1242 H 0.40737 0.31985 0.12899 0.0
H1243 H 0.44242 0.29559 0.11536 0.0
H1244 H 0.42589 0.22467 0.06943 0.0
H1245 H 0.38028 0.22934 0.07009 0.0
C1246 C 0.35883 0.26855 0.0928 0.0
C1247 C 0.35029 0.29064 0.10461 0.0
C1248 C 0.38493 0.26526 0.09305 0.0
C1249 C 0.36807 0.30872 0.11808 0.0
C1250 C 0.39405 0.30539 0.11882 0.0
C1251 C 0.42882 0.281 0.10576 0.0
C1252 C 0.43748 0.25981 0.09238 0.0
C1253 C 0.4027 0.28392 0.10605 0.0
C1254 C 0.41966 0.24126 0.07968 0.0
C1255 C 0.3936 0.24387 0.08014 0.0
H1256 H 0.36341 0.61121 0.63169 0.0
H1257 H 0.34851 0.60653 0.71034 0.0
H1258 H 0.3543 0.56132 0.70675 0.0
H1259 H 0.36484 0.52331 0.68195 0.0
H1260 H 0.38306 0.52803 0.60438 0.0
H1261 H 0.37581 0.57337 0.60714 0.0
C1262 C 0.36244 0.60069 0.64833 0.0
C1263 C 0.35635 0.61268 0.67147 0.0
C1264 C 0.36641 0.57465 0.64634 0.0
C1265 C 0.3533 0.59796 0.69228 0.0
C1266 C 0.3567 0.57206 0.69032 0.0
C1267 C 0.36719 0.5343 0.66565 0.0
C1268 C 0.3743 0.52242 0.64297 0.0
C1269 C 0.36343 0.56027 0.66754 0.0
C1270 C 0.37767 0.53687 0.62208 0.0
C1271 C 0.37344 0.56271 0.62363 0.0
H1272 H 0.04136 0.74892 0.22786 0.0
H1273 H 0.99859 0.72389 0.28881 0.0
H1274 H 0.99369 0.76812 0.30354 0.0
H1275 H 0.00228 0.81399 0.29941 0.0
H1276 H 0.04709 0.83897 0.23988 0.0
H1277 H 0.05055 0.79475 0.22415 0.0
C1278 C 0.03097 0.75325 0.24435 0.0
C1279 C 0.02054 0.73336 0.25744 0.0
C1280 C 0.02864 0.77866 0.25291 0.0
C1281 C 0.00715 0.73902 0.27878 0.0
C1282 C 0.00424 0.76424 0.2871 0.0
C1283 C 0.01266 0.80963 0.28292 0.0
C1284 C 0.02433 0.82951 0.27069 0.0
C1285 C 0.01502 0.78421 0.27438 0.0
C1286 C 0.03802 0.82383 0.24955 0.0
C1287 C 0.03997 0.79862 0.24057 0.0
H1288 H 0.67711 0.22695 0.83145 0.0
H1289 H 0.6037 0.25595 0.81862 0.0
H1290 H 0.5836 0.21257 0.8115 0.0
H1291 H 0.58802 0.16682 0.80344 0.0
H1292 H 0.66112 0.13772 0.81995 0.0
H1293 H 0.68019 0.18072 0.83109 0.0
C1294 C 0.65666 0.22366 0.82763 0.0
C1295 C 0.64186 0.24441 0.8254 0.0
C1296 C 0.64525 0.19872 0.82381 0.0
C1297 C 0.61538 0.24013 0.82059 0.0
C1298 C 0.60393 0.21536 0.81633 0.0
C1299 C 0.60796 0.16969 0.81015 0.0
C1300 C 0.6232 0.14895 0.80996 0.0
C1301 C 0.61881 0.19451 0.81714 0.0
C1302 C 0.64904 0.15331 0.81885 0.0
C1303 C 0.66001 0.17793 0.82543 0.0
H1304 H 0.07918 0.37613 0.24545 0.0
H1305 H 0.09344 0.38273 0.32712 0.0
H1306 H 0.09266 0.42867 0.32776 0.0
H1307 H 0.08908 0.4671 0.30526 0.0
H1308 H 0.07253 0.46119 0.22406 0.0
H1309 H 0.07194 0.41464 0.22311 0.0
C1310 C 0.08119 0.38741 0.26345 0.0
C1311 C 0.0859 0.37578 0.28623 0.0
C1312 C 0.08032 0.41396 0.26376 0.0
C1313 C 0.08981 0.39109 0.30927 0.0
C1314 C 0.0893 0.4174 0.30971 0.0
C1315 C 0.0852 0.45553 0.2874 0.0
C1316 C 0.08107 0.46735 0.26475 0.0
C1317 C 0.08478 0.42902 0.28708 0.0
C1318 C 0.07575 0.45235 0.24171 0.0
C1319 C 0.07554 0.42582 0.24118 0.0
H1320 H 0.39182 0.58063 0.34308 0.0
H1321 H 0.36054 0.58736 0.26644 0.0
H1322 H 0.40162 0.57914 0.2504 0.0
H1323 H 0.44714 0.57176 0.25858 0.0
H1324 H 0.47831 0.56862 0.33574 0.0
H1325 H 0.43648 0.57346 0.35119 0.0
C1326 C 0.39388 0.58028 0.32283 0.0
C1327 C 0.37313 0.58474 0.30601 0.0
C1328 C 0.41758 0.57618 0.31387 0.0
C1329 C 0.37619 0.58402 0.27982 0.0
C1330 C 0.39968 0.57933 0.27064 0.0
C1331 C 0.44463 0.57221 0.27875 0.0
C1332 C 0.46566 0.57022 0.2961 0.0
C1333 C 0.4206 0.57567 0.28754 0.0
C1334 C 0.46241 0.5707 0.32216 0.0
C1335 C 0.4385 0.57327 0.33096 0.0
H1336 H 0.09555 0.39369 0.71193 0.0
H1337 H 0.13031 0.45058 0.66821 0.0
H1338 H 0.08848 0.46387 0.655 0.0
H1339 H 0.0423 0.46171 0.65871 0.0
H1340 H 0.00778 0.40558 0.7033 0.0
H1341 H 0.04918 0.38957 0.71322 0.0
C1342 C 0.094 0.40879 0.69926 0.0
C1343 C 0.1161 0.42126 0.69127 0.0
C1344 C 0.0699 0.41662 0.69205 0.0
C1345 C 0.11366 0.44074 0.67479 0.0
C1346 C 0.08973 0.44841 0.66726 0.0
C1347 C 0.04387 0.44579 0.67037 0.0
C1348 C 0.02211 0.43498 0.6804 0.0
C1349 C 0.06778 0.43687 0.67623 0.0
C1350 C 0.02427 0.41434 0.69544 0.0
C1351 C 0.04796 0.40518 0.70115 0.0
H1352 H 0.85677 0.00709 0.71313 0.0
H1353 H 0.89843 0.96071 0.66298 0.0
H1354 H 0.93745 0.98731 0.67629 0.0
H1355 H 0.95951 0.02482 0.70081 0.0
H1356 H 0.91792 0.07146 0.75065 0.0
H1357 H 0.87917 0.04366 0.73888 0.0
C1358 C 0.87441 0.00268 0.70523 0.0
C1359 C 0.87458 0.98198 0.68699 0.0
C1360 C 0.89681 0.01818 0.71284 0.0
C1361 C 0.89766 0.97656 0.67699 0.0
C1362 C 0.92003 0.99179 0.68456 0.0
C1363 C 0.94201 0.02882 0.70919 0.0
C1364 C 0.9415 0.05019 0.72652 0.0
C1365 C 0.91979 0.01282 0.70225 0.0
C1366 C 0.9187 0.0551 0.73724 0.0
C1367 C 0.89656 0.03924 0.7305 0.0
H1368 H 0.63867 0.91909 0.26293 0.0
H1369 H 0.63965 0.99527 0.23875 0.0
H1370 H 0.59332 0.99345 0.23782 0.0
H1371 H 0.55243 0.9701 0.24364 0.0
H1372 H 0.55159 0.89379 0.2673 0.0
H1373 H 0.59799 0.89582 0.26874 0.0
C1374 C 0.62879 0.93532 0.25746 0.0
C1375 C 0.64267 0.95727 0.25092 0.0
C1376 C 0.60215 0.93414 0.25691 0.0
C1377 C 0.62948 0.9781 0.24385 0.0
C1378 C 0.60296 0.9771 0.24333 0.0
C1379 C 0.56241 0.95397 0.2492 0.0
C1380 C 0.54866 0.93182 0.25546 0.0
C1381 C 0.58909 0.95521 0.24982 0.0
C1382 C 0.56184 0.91104 0.26247 0.0
C1383 C 0.58833 0.91218 0.26327 0.0
H1384 H 0.2981 0.41496 0.59005 0.0
H1385 H 0.37407 0.44372 0.57669 0.0
H1386 H 0.36207 0.48714 0.58244 0.0
H1387 H 0.33047 0.51723 0.59265 0.0
H1388 H 0.25393 0.48904 0.60364 0.0
H1389 H 0.26573 0.44515 0.59785 0.0
C1390 C 0.312 0.43073 0.58833 0.0
C1391 C 0.33702 0.42603 0.58322 0.0
C1392 C 0.30497 0.45579 0.59157 0.0
C1393 C 0.35472 0.44671 0.58082 0.0
C1394 C 0.34791 0.47163 0.58416 0.0
C1395 C 0.31651 0.50145 0.59409 0.0
C1396 C 0.29155 0.50618 0.5991 0.0
C1397 C 0.32324 0.47641 0.58997 0.0
C1398 C 0.27334 0.48568 0.60006 0.0
C1399 C 0.28004 0.46066 0.59662 0.0
H1400 H 0.31322 0.65193 0.94319 0.0
H1401 H 0.29112 0.63938 0.01844 0.0
H1402 H 0.29669 0.59418 0.01107 0.0
H1403 H 0.30587 0.55797 0.98271 0.0
H1404 H 0.32739 0.56999 0.90725 0.0
H1405 H 0.32422 0.61577 0.91535 0.0
C1406 C 0.30959 0.63931 0.95797 0.0
C1407 C 0.3014 0.64898 0.98119 0.0
C1408 C 0.31276 0.61328 0.9536 0.0
C1409 C 0.29706 0.63239 0.00024 0.0
C1410 C 0.30035 0.60654 0.9961 0.0
C1411 C 0.31005 0.57059 0.96807 0.0
C1412 C 0.31671 0.56065 0.94433 0.0
C1413 C 0.30789 0.59674 0.97276 0.0
C1414 C 0.32217 0.57728 0.92565 0.0
C1415 C 0.32029 0.6034 0.93024 0.0
H1416 H 0.70065 0.05981 0.37545 0.0
H1417 H 0.74598 0.09527 0.44167 0.0
H1418 H 0.74684 0.05458 0.45999 0.0
H1419 H 0.73661 0.00874 0.4567 0.0
H1420 H 0.6907 0.97231 0.39162 0.0
H1421 H 0.68814 0.01348 0.37335 0.0
C1422 C 0.71052 0.05864 0.39397 0.0
C1423 C 0.72339 0.08062 0.40704 0.0
C1424 C 0.71099 0.03498 0.40454 0.0
C1425 C 0.73601 0.07874 0.43108 0.0
C1426 C 0.73658 0.05543 0.44161 0.0
C1427 C 0.72596 0.00985 0.43854 0.0
C1428 C 0.71403 0.98764 0.42543 0.0
C1429 C 0.72446 0.03343 0.42838 0.0
C1430 C 0.70009 0.98923 0.40204 0.0
C1431 C 0.69866 0.01275 0.39161 0.0
H1432 H 0.67603 0.80933 0.98113 0.0
H1433 H 0.61685 0.84947 0.94517 0.0
H1434 H 0.63389 0.88898 0.96909 0.0
H1435 H 0.6648 0.91204 0.00125 0.0
H1436 H 0.72371 0.87195 0.03754 0.0
H1437 H 0.7076 0.8326 0.01247 0.0
C1438 C 0.66693 0.82674 0.97841 0.0
C1439 C 0.64513 0.82634 0.9614 0.0
C1440 C 0.67673 0.84944 0.99236 0.0
C1441 C 0.63361 0.84913 0.95816 0.0
C1442 C 0.64333 0.87179 0.97186 0.0
C1443 C 0.67417 0.89473 0.00359 0.0
C1444 C 0.6954 0.89484 0.02124 0.0
C1445 C 0.66474 0.87215 0.98918 0.0
C1446 C 0.70732 0.87226 0.02405 0.0
C1447 C 0.69812 0.84978 0.00974 0.0
H1448 H 0.57909 0.34964 0.43192 0.0
H1449 H 0.58588 0.27492 0.39569 0.0
H1450 H 0.58693 0.25713 0.43709 0.0
H1451 H 0.58585 0.26297 0.48381 0.0
H1452 H 0.58225 0.33837 0.51961 0.0
H1453 H 0.57897 0.35558 0.4781 0.0
C1454 C 0.58079 0.32944 0.433 0.0
C1455 C 0.5823 0.31363 0.41071 0.0
C1456 C 0.5816 0.31943 0.4568 0.0
C1457 C 0.58457 0.28752 0.41254 0.0
C1458 C 0.58513 0.27732 0.4362 0.0
C1459 C 0.58452 0.28317 0.48239 0.0
C1460 C 0.58442 0.29942 0.50459 0.0
C1461 C 0.58365 0.29311 0.45846 0.0
C1462 C 0.58269 0.32556 0.50274 0.0
C1463 C 0.58076 0.3354 0.47902 0.0
H1464 H 0.92925 0.27142 0.63055 0.0
H1465 H 0.0071 0.25366 0.62527 0.0
H1466 H 0.99925 0.24527 0.57924 0.0
H1467 H 0.9703 0.24338 0.54034 0.0
H1468 H 0.89258 0.26127 0.54588 0.0
H1469 H 0.90037 0.26919 0.59197 0.0
C1470 C 0.94453 0.26568 0.61938 0.0
C1471 C 0.96874 0.26322 0.6314 0.0
C1472 C 0.93991 0.26093 0.59293 0.0
C1473 C 0.98827 0.25573 0.61655 0.0
C1474 C 0.98381 0.25093 0.5902 0.0
C1475 C 0.95509 0.249 0.55163 0.0
C1476 C 0.93088 0.25181 0.53976 0.0
C1477 C 0.95972 0.25354 0.57816 0.0
C1478 C 0.91137 0.25904 0.55465 0.0
C1479 C 0.9158 0.26356 0.58098 0.0
H1480 H 0.35998 0.66042 0.09838 0.0
H1481 H 0.32844 0.72426 0.06469 0.0
H1482 H 0.33689 0.70668 0.02269 0.0
H1483 H 0.35518 0.67454 0.99567 0.0
H1484 H 0.38729 0.61084 0.02869 0.0
H1485 H 0.37617 0.62674 0.07078 0.0
C1486 C 0.35457 0.67027 0.0818 0.0
C1487 C 0.34375 0.69371 0.08477 0.0
C1488 C 0.3594 0.66 0.05755 0.0
C1489 C 0.3368 0.70619 0.06305 0.0
C1490 C 0.34162 0.69615 0.03895 0.0
C1491 C 0.35937 0.66387 0.01198 0.0
C1492 C 0.3719 0.64147 0.00915 0.0
C1493 C 0.35318 0.67326 0.03601 0.0
C1494 C 0.37756 0.62812 0.03051 0.0
C1495 C 0.37124 0.63721 0.05452 0.0
H1496 H 0.99337 0.63424 0.84399 0.0
H1497 H 0.06466 0.65974 0.81587 0.0
H1498 H 0.085 0.66389 0.85903 0.0
H1499 H 0.08221 0.66187 0.90494 0.0
H1500 H 0.01096 0.63664 0.93314 0.0
H1501 H 0.99095 0.63077 0.88973 0.0
C1502 C 0.0134 0.64056 0.84725 0.0
C1503 C 0.02741 0.64678 0.82669 0.0
C1504 C 0.02497 0.64307 0.87216 0.0
C1505 C 0.05336 0.65489 0.83132 0.0
C1506 C 0.06503 0.65732 0.85602 0.0
C1507 C 0.06233 0.65502 0.9016 0.0
C1508 C 0.048 0.64981 0.9222 0.0
C1509 C 0.05096 0.65174 0.87661 0.0
C1510 C 0.02232 0.64081 0.91753 0.0
C1511 C 0.01088 0.63747 0.89275 0.0
H1512 H 0.56443 0.44749 0.6331 0.0
H1513 H 0.53547 0.38752 0.67672 0.0
H1514 H 0.49203 0.3972 0.665 0.0
H1515 H 0.46227 0.42359 0.64378 0.0
H1516 H 0.49074 0.48427 0.60089 0.0
H1517 H 0.53437 0.47332 0.61079 0.0
C1518 C 0.54861 0.43648 0.63995 0.0
C1519 C 0.55325 0.41692 0.65591 0.0
C1520 C 0.52359 0.44228 0.6333 0.0
C1521 C 0.5325 0.40282 0.66459 0.0
C1522 C 0.50761 0.4083 0.65787 0.0
C1523 C 0.47797 0.43434 0.63643 0.0
C1524 C 0.47333 0.45475 0.62162 0.0
C1525 C 0.50293 0.42813 0.64245 0.0
C1526 C 0.49391 0.46847 0.61232 0.0
C1527 C 0.51882 0.46225 0.61802 0.0
H1528 H 0.94917 0.64144 0.24239 0.0
H1529 H 0.90879 0.56697 0.23526 0.0
H1530 H 0.94904 0.54725 0.2377 0.0
H1531 H 0.99564 0.55108 0.2431 0.0
H1532 H 0.0362 0.62538 0.2502 0.0
H1533 H 0.99588 0.64523 0.24652 0.0
C1534 C 0.94914 0.62089 0.24126 0.0
C1535 C 0.92594 0.60574 0.23874 0.0
C1536 C 0.97239 0.60963 0.24275 0.0
C1537 C 0.92633 0.57913 0.23724 0.0
C1538 C 0.94936 0.5678 0.23866 0.0
C1539 C 0.9957 0.57161 0.24376 0.0
C1540 C 0.01886 0.58679 0.24702 0.0
C1541 C 0.97249 0.58286 0.24162 0.0
C1542 C 0.01857 0.61334 0.24774 0.0
C1543 C 0.99555 0.62468 0.24565 0.0
H1544 H 0.19809 0.96756 0.32071 0.0
H1545 H 0.15127 0.02944 0.30732 0.0
H1546 H 0.11312 0.00024 0.30477 0.0
H1547 H 0.093 0.95704 0.30551 0.0
H1548 H 0.13959 0.89509 0.31887 0.0
H1549 H 0.17789 0.92444 0.3223 0.0
C1550 C 0.17955 0.97469 0.3173 0.0
C1551 C 0.1776 0.00066 0.31415 0.0
C1552 C 0.15763 0.95778 0.31581 0.0
C1553 C 0.15338 0.00954 0.30979 0.0
C1554 C 0.13151 0.99286 0.3083 0.0
C1555 C 0.11151 0.94996 0.30924 0.0
C1556 C 0.11353 0.92394 0.3119 0.0
C1557 C 0.13341 0.96692 0.31115 0.0
C1558 C 0.13764 0.91508 0.31675 0.0
C1559 C 0.15951 0.93183 0.31869 0.0
H1560 H 0.42409 0.03581 0.76873 0.0
H1561 H 0.39979 0.11183 0.77784 0.0
H1562 H 0.44385 0.12888 0.7878 0.0
H1563 H 0.4895 0.12238 0.79268 0.0
H1564 H 0.51376 0.04648 0.78276 0.0
H1565 H 0.46956 0.02923 0.77446 0.0
C1566 C 0.42839 0.0561 0.77299 0.0
C1567 C 0.40861 0.0725 0.77245 0.0
C1568 C 0.4538 0.06582 0.77852 0.0
C1569 C 0.4146 0.09875 0.77803 0.0
C1570 C 0.43981 0.10854 0.78374 0.0
C1571 C 0.48504 0.10205 0.78882 0.0
C1572 C 0.50484 0.08578 0.78824 0.0
C1573 C 0.45958 0.09228 0.78385 0.0
C1574 C 0.49889 0.05947 0.78321 0.0
C1575 C 0.4736 0.04958 0.77846 0.0
H1576 H 0.59394 0.51631 0.38933 0.0
H1577 H 0.61991 0.5701 0.45296 0.0
H1578 H 0.62303 0.53551 0.48069 0.0
H1579 H 0.6205 0.49 0.48655 0.0
H1580 H 0.59629 0.43569 0.42303 0.0
H1581 H 0.59022 0.47043 0.39559 0.0
C1582 C 0.60005 0.52047 0.40932 0.0
C1583 C 0.60676 0.54577 0.41903 0.0
C1584 C 0.60223 0.50039 0.42514 0.0
C1585 C 0.61477 0.55082 0.44495 0.0
C1586 C 0.61656 0.53104 0.46084 0.0
C1587 C 0.61373 0.4858 0.46672 0.0
C1588 C 0.60895 0.46041 0.4568 0.0
C1589 C 0.61068 0.50578 0.45108 0.0
C1590 C 0.6002 0.45513 0.4311 0.0
C1591 C 0.59675 0.47498 0.41541 0.0
H1592 H 0.76283 0.37714 0.03687 0.0
H1593 H 0.69748 0.39514 0.98978 0.0
H1594 H 0.70794 0.4404 0.00148 0.0
H1595 H 0.73532 0.47497 0.02561 0.0
H1596 H 0.80054 0.45689 0.07271 0.0
H1597 H 0.79047 0.4116 0.06044 0.0
C1598 C 0.75087 0.39093 0.02912 0.0
C1599 C 0.72935 0.38267 0.0125 0.0
C1600 C 0.75697 0.41697 0.03594 0.0
C1601 C 0.71414 0.40089 0.00262 0.0
C1602 C 0.7201 0.42683 0.00931 0.0
C1603 C 0.74736 0.46113 0.03313 0.0
C1604 C 0.76867 0.46923 0.05006 0.0
C1605 C 0.74142 0.43509 0.02603 0.0
C1606 C 0.78405 0.45106 0.05963 0.0
C1607 C 0.7783 0.42518 0.05265 0.0
H1608 H 0.25713 0.93595 0.5764 0.0
H1609 H 0.23998 0.96945 0.64939 0.0
H1610 H 0.23861 0.0109 0.63231 0.0
H1611 H 0.24276 0.03793 0.59676 0.0
H1612 H 0.25989 0.00457 0.52381 0.0
H1613 H 0.26078 0.9629 0.54072 0.0
C1614 C 0.25305 0.9523 0.58857 0.0
C1615 C 0.24871 0.94952 0.61416 0.0
C1616 C 0.25231 0.97617 0.57863 0.0
C1617 C 0.24342 0.97096 0.62963 0.0
C1618 C 0.24265 0.99473 0.61989 0.0
C1619 C 0.24664 0.02149 0.5846 0.0
C1620 C 0.25123 0.02433 0.55913 0.0
C1621 C 0.24714 0.99758 0.59445 0.0
C1622 C 0.25625 0.00293 0.54351 0.0
C1623 C 0.25678 0.97907 0.55316 0.0
H1624 H 0.32671 0.16373 0.0361 0.0
H1625 H 0.34053 0.21536 0.97829 0.0
H1626 H 0.3459 0.17951 0.94786 0.0
H1627 H 0.34551 0.13328 0.93734 0.0
H1628 H 0.33093 0.082 0.99522 0.0
H1629 H 0.32707 0.11791 0.0259 0.0
C1630 C 0.33099 0.1672 0.01688 0.0
C1631 C 0.33314 0.19221 0.0095 0.0
C1632 C 0.33387 0.14652 0.99944 0.0
C1633 C 0.33871 0.1963 0.98449 0.0
C1634 C 0.34178 0.17581 0.96705 0.0
C1635 C 0.34159 0.13005 0.95672 0.0
C1636 C 0.33846 0.10507 0.96395 0.0
C1637 C 0.33922 0.15082 0.97427 0.0
C1638 C 0.33336 0.10104 0.98909 0.0
C1639 C 0.33115 0.12158 0.00668 0.0
H1640 H 0.36762 0.62096 0.5259 0.0
H1641 H 0.44141 0.62836 0.5677 0.0
H1642 H 0.46183 0.62214 0.52814 0.0
H1643 H 0.45898 0.6164 0.48159 0.0
H1644 H 0.38553 0.61076 0.43948 0.0
H1645 H 0.36475 0.61445 0.47918 0.0
C1646 C 0.38816 0.62104 0.52637 0.0
C1647 C 0.40297 0.6252 0.54974 0.0
C1648 C 0.39985 0.61784 0.50348 0.0
C1649 C 0.42956 0.62534 0.54998 0.0
C1650 C 0.44127 0.62176 0.52737 0.0
C1651 C 0.4384 0.61578 0.48116 0.0
C1652 C 0.42384 0.61339 0.45772 0.0
C1653 C 0.42664 0.61827 0.50401 0.0
C1654 C 0.3972 0.61269 0.45732 0.0
C1655 C 0.3853 0.61477 0.48002 0.0
H1656 H 0.00859 0.76473 0.3842 0.0
H1657 H 0.08117 0.73267 0.38212 0.0
H1658 H 0.09415 0.75244 0.4247 0.0
H1659 H 0.08446 0.77787 0.46305 0.0
H1660 H 0.01154 0.80902 0.46546 0.0
H1661 H 0.99919 0.79071 0.42213 0.0
C1662 C 0.02728 0.76209 0.39301 0.0
C1663 C 0.04382 0.74715 0.37998 0.0
C1664 C 0.03458 0.7734 0.41755 0.0
C1665 C 0.06799 0.74399 0.39172 0.0
C1666 C 0.07546 0.75532 0.41608 0.0
C1667 C 0.06595 0.78082 0.45401 0.0
C1668 C 0.04891 0.79482 0.46734 0.0
C1669 C 0.05887 0.76994 0.42924 0.0
C1670 C 0.02496 0.79834 0.45547 0.0
C1671 C 0.01788 0.78783 0.43076 0.0
H1672 H 0.56258 0.26796 0.92707 0.0
H1673 H 0.63325 0.23882 0.95297 0.0
H1674 H 0.61596 0.2296 0.99303 0.0
H1675 H 0.58118 0.2309 0.02133 0.0
H1676 H 0.51055 0.25992 0.99542 0.0
H1677 H 0.52737 0.26801 0.95482 0.0
C1678 C 0.57418 0.25953 0.94144 0.0
C1679 C 0.59922 0.25421 0.93701 0.0
C1680 C 0.56414 0.25426 0.96449 0.0
C1681 C 0.61393 0.24317 0.95583 0.0
C1682 C 0.60408 0.2379 0.9788 0.0
C1683 C 0.56947 0.23887 0.0067 0.0
C1684 C 0.54474 0.24482 0.01138 0.0
C1685 C 0.57928 0.24352 0.9834 0.0
C1686 C 0.52969 0.25514 0.99233 0.0
C1687 C 0.5393 0.25982 0.96909 0.0
H1688 H 0.02494 0.35684 0.15426 0.0
H1689 H 0.96193 0.31051 0.17842 0.0
H1690 H 0.93906 0.31137 0.13679 0.0
H1691 H 0.93718 0.32458 0.09334 0.0
H1692 H 1.00008 0.37068 0.06886 0.0
H1693 H 0.02278 0.37059 0.11087 0.0
C1694 C 0.00618 0.34698 0.15047 0.0
C1695 C 0.99522 0.33359 0.16947 0.0
C1696 C 0.99313 0.34746 0.12642 0.0
C1697 C 0.97087 0.32094 0.16418 0.0
C1698 C 0.95775 0.3214 0.14035 0.0
C1699 C 0.95583 0.33467 0.09717 0.0
C1700 C 0.96699 0.34763 0.07802 0.0
C1701 C 0.96874 0.33449 0.1213 0.0
C1702 C 0.99115 0.36058 0.08334 0.0
C1703 C 0.00411 0.36052 0.10732 0.0
loop_
_geom_bond_atom_site_label_1
_geom_bond_atom_site_label_2
_geom_bond_distance
_geom_bond_site_symmetry_2
_ccdc_geom_bond_type
O0 Cd1 2.300 . S
O0 C7 1.275 . S
Cd1 O0 2.300 . S
Cd1 O9 2.381 . S
Cd1 O10 2.378 . S
O2 Cd3 2.385 . S
O2 C7 1.255 . S
Cd3 O2 2.385 . S
Cd3 O4 2.317 . S
O4 Cd3 2.317 . S
O4 C5 1.232 . S
C5 O4 1.232 . S
C5 O6 1.218 . S
O6 C5 1.218 . S
C7 O0 1.275 . S
C7 O2 1.255 . S
C8 O9 1.258 . S
C8 O10 1.256 . S
O9 Cd1 2.381 . S
O9 C8 1.258 . S
O10 Cd1 2.378 . S
O10 C8 1.256 . S
O11 Cd12 2.300 . S
O11 C18 1.275 . S
Cd12 O11 2.300 . S
Cd12 O20 2.381 . S
Cd12 O21 2.378 . S
O13 Cd14 2.385 . S
O13 C18 1.255 . S
Cd14 O13 2.385 . S
Cd14 O15 2.317 . S
O15 Cd14 2.317 . S
O15 C16 1.232 . S
C16 O15 1.232 . S
C16 O17 1.218 . S
O17 C16 1.218 . S
C18 O11 1.275 . S
C18 O13 1.255 . S
C19 O20 1.258 . S
C19 O21 1.256 . S
O20 Cd12 2.381 . S
O20 C19 1.258 . S
O21 Cd12 2.378 . S
O21 C19 1.256 . S
O22 Cd23 2.284 1_545 S
O22 C29 1.256 1_545 S
Cd23 O22 2.284 1_565 S
Cd23 O31 2.381 1_565 S
Cd23 O32 2.378 . S
O24 Cd25 2.385 . S
O24 C29 1.255 . S
Cd25 O24 2.385 . S
Cd25 O26 2.317 . S
O26 Cd25 2.317 . S
O26 C27 1.232 . S
C27 O26 1.232 . S
C27 O28 1.218 . S
O28 C27 1.218 . S
C29 O22 1.256 1_565 S
C29 O24 1.255 . S
C30 O31 1.258 . S
C30 O32 1.256 1_545 S
O31 Cd23 2.381 1_545 S
O31 C30 1.258 . S
O32 Cd23 2.378 . S
O32 C30 1.256 1_565 S
O33 Cd34 2.300 1_565 S
O33 C40 1.275 1_565 S
Cd34 O33 2.300 1_545 S
Cd34 O42 2.381 1_545 S
Cd34 O43 2.378 . S
O35 Cd36 2.385 . S
O35 C40 1.255 . S
Cd36 O35 2.385 . S
Cd36 O37 2.317 . S
O37 Cd36 2.317 . S
O37 C38 1.232 . S
C38 O37 1.232 . S
C38 O39 1.218 . S
O39 C38 1.218 . S
C40 O33 1.275 1_545 S
C40 O35 1.255 . S
C41 O42 1.258 1_545 S
C41 O43 1.256 . S
O42 Cd34 2.381 1_565 S
O42 C41 1.258 1_565 S
O43 Cd34 2.378 . S
O43 C41 1.256 . S
O44 Cd45 2.300 . S
O44 C51 1.275 . S
Cd45 O44 2.300 . S
Cd45 O53 2.381 . S
Cd45 O54 2.378 . S
O46 Cd47 2.385 . S
O46 C51 1.255 . S
Cd47 O46 2.385 . S
Cd47 O48 2.317 . S
O48 Cd47 2.317 . S
O48 C49 1.232 . S
C49 O48 1.232 . S
C49 O50 1.218 . S
O50 C49 1.218 . S
C51 O44 1.275 . S
C51 O46 1.255 . S
C52 O53 1.258 . S
C52 O54 1.256 . S
O53 Cd45 2.381 . S
O53 C52 1.258 . S
O54 Cd45 2.378 . S
O54 C52 1.256 . S
O55 Cd56 2.300 1_556 S
O55 C62 1.275 1_556 S
Cd56 O55 2.300 1_554 S
Cd56 O64 2.381 1_554 S
Cd56 O65 2.378 . S
O57 Cd58 2.385 . S
O57 C62 1.255 . S
Cd58 O57 2.385 . S
Cd58 O59 2.317 . S
O59 Cd58 2.317 . S
O59 C60 1.232 . S
C60 O59 1.232 . S
C60 O61 1.218 . S
O61 C60 1.218 . S
C62 O55 1.275 1_554 S
C62 O57 1.255 . S
C63 O64 1.258 1_554 S
C63 O65 1.256 . S
O64 Cd56 2.381 1_556 S
O64 C63 1.258 1_556 S
O65 Cd56 2.378 . S
O65 C63 1.256 . S
O66 Cd67 2.300 . S
O66 C73 1.275 . S
Cd67 O66 2.300 . S
Cd67 O75 2.381 . S
Cd67 O76 2.378 . S
O68 Cd69 2.385 . S
O68 C73 1.255 . S
Cd69 O68 2.385 . S
Cd69 O70 2.317 . S
O70 Cd69 2.317 . S
O70 C71 1.232 . S
C71 O70 1.232 . S
C71 O72 1.218 . S
O72 C71 1.218 . S
C73 O66 1.275 . S
C73 O68 1.255 . S
C74 O75 1.258 . S
C74 O76 1.256 . S
O75 Cd67 2.381 . S
O75 C74 1.258 . S
O76 Cd67 2.378 . S
O76 C74 1.256 . S
O77 Cd78 2.284 1_554 S
O77 C84 1.256 1_554 S
Cd78 O77 2.284 1_556 S
Cd78 O86 2.381 1_556 S
Cd78 O87 2.378 . S
O79 Cd80 2.385 . S
O79 C84 1.255 . S
Cd80 O79 2.385 . S
Cd80 O81 2.317 . S
O81 Cd80 2.317 . S
O81 C82 1.232 . S
C82 O81 1.232 . S
C82 O83 1.218 . S
O83 C82 1.218 . S
C84 O77 1.256 1_556 S
C84 O79 1.255 . S
C85 O86 1.258 . S
C85 O87 1.256 1_554 S
O86 Cd78 2.381 1_554 S
O86 C85 1.258 . S
O87 Cd78 2.378 . S
O87 C85 1.256 1_556 S
O88 Cd89 2.300 . S
O88 C95 1.275 . S
Cd89 O88 2.300 . S
Cd89 O97 2.381 . S
Cd89 O98 2.378 . S
O90 Cd91 2.385 . S
O90 C95 1.255 . S
Cd91 O90 2.385 . S
Cd91 O92 2.317 . S
O92 Cd91 2.317 . S
O92 C93 1.232 . S
C93 O92 1.232 . S
C93 O94 1.218 . S
O94 C93 1.218 . S
C95 O88 1.275 . S
C95 O90 1.255 . S
C96 O97 1.258 . S
C96 O98 1.256 . S
O97 Cd89 2.381 . S
O97 C96 1.258 . S
O98 Cd89 2.378 . S
O98 C96 1.256 . S
O99 Cd100 2.300 1_655 S
O99 C106 1.275 1_655 S
Cd100 O99 2.300 1_455 S
Cd100 O108 2.381 1_455 S
Cd100 O109 2.378 . S
O101 Cd102 2.385 . S
O101 C106 1.255 . S
Cd102 O101 2.385 . S
Cd102 O103 2.317 . S
O103 Cd102 2.317 . S
O103 C104 1.232 . S
C104 O103 1.232 . S
C104 O105 1.218 . S
O105 C104 1.218 . S
C106 O99 1.275 1_455 S
C106 O101 1.255 . S
C107 O108 1.258 1_455 S
C107 O109 1.256 . S
O108 Cd100 2.381 1_655 S
O108 C107 1.258 1_655 S
O109 Cd100 2.378 . S
O109 C107 1.256 . S
O110 Cd111 2.300 . S
O110 C117 1.275 . S
Cd111 O110 2.300 . S
Cd111 O119 2.381 . S
Cd111 O120 2.378 . S
O112 Cd113 2.385 . S
O112 C117 1.255 . S
Cd113 O112 2.385 . S
Cd113 O114 2.317 . S
O114 Cd113 2.317 . S
O114 C115 1.232 . S
C115 O114 1.232 . S
C115 O116 1.218 . S
O116 C115 1.218 . S
C117 O110 1.275 . S
C117 O112 1.255 . S
C118 O119 1.258 . S
C118 O120 1.256 . S
O119 Cd111 2.381 . S
O119 C118 1.258 . S
O120 Cd111 2.378 . S
O120 C118 1.256 . S
O121 Cd122 2.284 1_455 S
O121 C128 1.256 1_455 S
Cd122 O121 2.284 1_655 S
Cd122 O130 2.381 1_655 S
Cd122 O131 2.378 . S
O123 Cd124 2.385 . S
O123 C128 1.255 . S
Cd124 O123 2.385 . S
Cd124 O125 2.317 . S
O125 Cd124 2.317 . S
O125 C126 1.232 . S
C126 O125 1.232 . S
C126 O127 1.218 . S
O127 C126 1.218 . S
C128 O121 1.256 1_655 S
C128 O123 1.255 . S
C129 O130 1.258 . S
C129 O131 1.256 1_455 S
O130 Cd122 2.381 1_455 S
O130 C129 1.258 . S
O131 Cd122 2.378 . S
O131 C129 1.256 1_655 S
O132 Cd133 2.300 . S
O132 C139 1.275 . S
Cd133 O132 2.300 . S
Cd133 O141 2.381 . S
Cd133 O142 2.378 . S
O134 Cd135 2.385 . S
O134 C139 1.255 . S
Cd135 O134 2.385 . S
Cd135 O136 2.317 . S
O136 Cd135 2.317 . S
O136 C137 1.232 . S
C137 O136 1.232 . S
C137 O138 1.218 . S
O138 C137 1.218 . S
C139 O132 1.275 . S
C139 O134 1.255 . S
C140 O141 1.258 . S
C140 O142 1.256 . S
O141 Cd133 2.381 . S
O141 C140 1.258 . S
O142 Cd133 2.378 . S
O142 C140 1.256 . S
O143 Cd144 2.300 . S
O143 C150 1.275 . S
Cd144 O143 2.300 . S
Cd144 O152 2.381 . S
Cd144 O153 2.378 . S
O145 Cd146 2.385 . S
O145 C150 1.255 . S
Cd146 O145 2.385 . S
Cd146 O147 2.317 . S
O147 Cd146 2.317 . S
O147 C148 1.232 . S
C148 O147 1.232 . S
C148 O149 1.218 . S
O149 C148 1.218 . S
C150 O143 1.275 . S
C150 O145 1.255 . S
C151 O152 1.258 . S
C151 O153 1.256 . S
O152 Cd144 2.381 . S
O152 C151 1.258 . S
O153 Cd144 2.378 . S
O153 C151 1.256 . S
O154 Cd155 2.300 1_545 S
O154 C161 1.275 . S
Cd155 O154 2.300 1_565 S
Cd155 O163 2.381 1_565 S
Cd155 O164 2.378 . S
O156 Cd157 2.385 . S
O156 C161 1.255 1_565 S
Cd157 O156 2.385 . S
Cd157 O158 2.317 . S
O158 Cd157 2.317 . S
O158 C159 1.232 . S
C159 O158 1.232 . S
C159 O160 1.218 . S
O160 C159 1.218 . S
C161 O154 1.275 . S
C161 O156 1.255 1_545 S
C162 O163 1.258 1_565 S
C162 O164 1.256 . S
O163 Cd155 2.381 1_545 S
O163 C162 1.258 1_545 S
O164 Cd155 2.378 . S
O164 C162 1.256 . S
O165 Cd166 2.300 1_565 S
O165 C172 1.275 1_565 S
Cd166 O165 2.300 1_545 S
Cd166 O174 2.381 1_545 S
Cd166 O175 2.378 . S
O167 Cd168 2.385 . S
O167 C172 1.255 . S
Cd168 O167 2.385 . S
Cd168 O169 2.317 . S
O169 Cd168 2.317 . S
O169 C170 1.232 . S
C170 O169 1.232 . S
C170 O171 1.218 . S
O171 C170 1.218 . S
C172 O165 1.275 1_545 S
C172 O167 1.255 . S
C173 O174 1.258 1_545 S
C173 O175 1.256 . S
O174 Cd166 2.381 1_565 S
O174 C173 1.258 1_565 S
O175 Cd166 2.378 . S
O175 C173 1.256 . S
O176 Cd177 2.300 . S
O176 C183 1.275 . S
Cd177 O176 2.300 . S
Cd177 O185 2.381 . S
Cd177 O186 2.378 . S
O178 Cd179 2.385 . S
O178 C183 1.255 . S
Cd179 O178 2.385 . S
Cd179 O180 2.317 . S
O180 Cd179 2.317 . S
O180 C181 1.232 . S
C181 O180 1.232 . S
C181 O182 1.218 . S
O182 C181 1.218 . S
C183 O176 1.275 . S
C183 O178 1.255 . S
C184 O185 1.258 . S
C184 O186 1.256 . S
O185 Cd177 2.381 . S
O185 C184 1.258 . S
O186 Cd177 2.378 . S
O186 C184 1.256 . S
O187 Cd188 2.300 1_556 S
O187 C194 1.275 1_556 S
Cd188 O187 2.300 1_554 S
Cd188 O196 2.381 1_554 S
Cd188 O197 2.378 . S
O189 Cd190 2.385 . S
O189 C194 1.255 . S
Cd190 O189 2.385 . S
Cd190 O191 2.317 . S
O191 Cd190 2.317 . S
O191 C192 1.232 . S
C192 O191 1.232 . S
C192 O193 1.218 . S
O193 C192 1.218 . S
C194 O187 1.275 1_554 S
C194 O189 1.255 . S
C195 O196 1.258 1_554 S
C195 O197 1.256 . S
O196 Cd188 2.381 1_556 S
O196 C195 1.258 1_556 S
O197 Cd188 2.378 . S
O197 C195 1.256 . S
O198 Cd199 2.300 . S
O198 C205 1.275 . S
Cd199 O198 2.300 . S
Cd199 O207 2.381 . S
Cd199 O208 2.378 . S
O200 Cd201 2.385 . S
O200 C205 1.255 . S
Cd201 O200 2.385 . S
Cd201 O202 2.317 . S
O202 Cd201 2.317 . S
O202 C203 1.232 . S
C203 O202 1.232 . S
C203 O204 1.218 . S
O204 C203 1.218 . S
C205 O198 1.275 . S
C205 O200 1.255 . S
C206 O207 1.258 . S
C206 O208 1.256 . S
O207 Cd199 2.381 . S
O207 C206 1.258 . S
O208 Cd199 2.378 . S
O208 C206 1.256 . S
O209 Cd210 2.300 1_554 S
O209 C216 1.275 . S
Cd210 O209 2.300 1_556 S
Cd210 O218 2.381 1_556 S
Cd210 O219 2.378 . S
O211 Cd212 2.385 . S
O211 C216 1.255 1_556 S
Cd212 O211 2.385 . S
Cd212 O213 2.317 . S
O213 Cd212 2.317 . S
O213 C214 1.232 . S
C214 O213 1.232 . S
C214 O215 1.218 . S
O215 C214 1.218 . S
C216 O209 1.275 . S
C216 O211 1.255 1_554 S
C217 O218 1.258 1_556 S
C217 O219 1.256 . S
O218 Cd210 2.381 1_554 S
O218 C217 1.258 1_554 S
O219 Cd210 2.378 . S
O219 C217 1.256 . S
O220 Cd221 2.300 . S
O220 C227 1.275 . S
Cd221 O220 2.300 . S
Cd221 O229 2.381 . S
Cd221 O230 2.378 . S
O222 Cd223 2.385 . S
O222 C227 1.255 . S
Cd223 O222 2.385 . S
Cd223 O224 2.317 . S
O224 Cd223 2.317 . S
O224 C225 1.232 . S
C225 O224 1.232 . S
C225 O226 1.218 . S
O226 C225 1.218 . S
C227 O220 1.275 . S
C227 O222 1.255 . S
C228 O229 1.258 . S
C228 O230 1.256 . S
O229 Cd221 2.381 . S
O229 C228 1.258 . S
O230 Cd221 2.378 . S
O230 C228 1.256 . S
O231 Cd232 2.300 1_655 S
O231 C238 1.275 1_655 S
Cd232 O231 2.300 1_455 S
Cd232 O240 2.381 1_455 S
Cd232 O241 2.378 . S
O233 Cd234 2.385 . S
O233 C238 1.255 . S
Cd234 O233 2.385 . S
Cd234 O235 2.317 . S
O235 Cd234 2.317 . S
O235 C236 1.232 . S
C236 O235 1.232 . S
C236 O237 1.218 . S
O237 C236 1.218 . S
C238 O231 1.275 1_455 S
C238 O233 1.255 . S
C239 O240 1.258 1_455 S
C239 O241 1.256 . S
O240 Cd232 2.381 1_655 S
O240 C239 1.258 1_655 S
O241 Cd232 2.378 . S
O241 C239 1.256 . S
O242 Cd243 2.300 . S
O242 C249 1.275 . S
Cd243 O242 2.300 . S
Cd243 O251 2.381 . S
Cd243 O252 2.378 . S
O244 Cd245 2.385 . S
O244 C249 1.255 . S
Cd245 O244 2.385 . S
Cd245 O246 2.317 . S
O246 Cd245 2.317 . S
O246 C247 1.232 . S
C247 O246 1.232 . S
C247 O248 1.218 . S
O248 C247 1.218 . S
C249 O242 1.275 . S
C249 O244 1.255 . S
C250 O251 1.258 . S
C250 O252 1.256 . S
O251 Cd243 2.381 . S
O251 C250 1.258 . S
O252 Cd243 2.378 . S
O252 C250 1.256 . S
O253 Cd254 2.300 1_455 S
O253 C260 1.275 . S
Cd254 O253 2.300 1_655 S
Cd254 O262 2.381 1_655 S
Cd254 O263 2.378 . S
O255 Cd256 2.385 . S
O255 C260 1.255 1_655 S
Cd256 O255 2.385 . S
Cd256 O257 2.317 . S
O257 Cd256 2.317 . S
O257 C258 1.232 . S
C258 O257 1.232 . S
C258 O259 1.218 . S
O259 C258 1.218 . S
C260 O253 1.275 . S
C260 O255 1.255 1_455 S
C261 O262 1.258 1_655 S
C261 O263 1.256 . S
O262 Cd254 2.381 1_455 S
O262 C261 1.258 1_455 S
O263 Cd254 2.378 . S
O263 C261 1.256 . S
H264 C269 0.930 . S
H265 C272 0.930 . S
H266 C274 0.930 . S
H267 C268 1.016 . S
C268 H267 1.016 . S
C268 N275 1.286 . S
C269 H264 0.930 . S
C269 C270 1.397 . S
C269 C271 1.361 . S
C270 C269 1.397 . S
C270 C274 1.390 . S
C271 C269 1.361 . S
C271 C272 1.393 . S
C271 N275 1.413 . S
C272 H265 0.930 . S
C272 C271 1.393 . S
C272 C273 1.399 . S
C273 C272 1.399 . S
C273 C274 1.381 . S
C274 H266 0.930 . S
C274 C270 1.390 . S
C274 C273 1.381 . S
N275 C268 1.286 . S
N275 C271 1.413 . S
H276 C281 0.930 . S
H277 C284 0.930 . S
H278 C286 0.930 . S
H279 C280 1.016 . S
C280 H279 1.016 . S
C280 N287 1.286 . S
C281 H276 0.930 . S
C281 C282 1.397 . S
C281 C283 1.361 . S
C282 C281 1.397 . S
C282 C286 1.390 . S
C283 C281 1.361 . S
C283 C284 1.393 . S
C283 N287 1.413 . S
C284 H277 0.930 . S
C284 C283 1.393 . S
C284 C285 1.399 . S
C285 C284 1.399 . S
C285 C286 1.381 . S
C286 H278 0.930 . S
C286 C282 1.390 . S
C286 C285 1.381 . S
N287 C280 1.286 . S
N287 C283 1.413 . S
H288 C293 0.930 . S
H289 C296 0.930 . S
H290 C298 0.930 . S
H291 C292 1.016 . S
C292 H291 1.016 . S
C292 N299 1.286 . S
C293 H288 0.930 . S
C293 C294 1.397 . S
C293 C295 1.361 1_565 S
C294 C293 1.397 . S
C294 C298 1.390 . S
C295 C293 1.361 1_545 S
C295 C296 1.393 . S
C295 N299 1.413 . S
C296 H289 0.930 . S
C296 C295 1.393 . S
C296 C297 1.424 . S
C297 C296 1.424 . S
C297 C298 1.353 1_545 S
C298 H290 0.930 . S
C298 C294 1.390 . S
C298 C297 1.353 1_565 S
N299 C292 1.286 . S
N299 C295 1.413 . S
H300 C305 0.930 . S
H301 C308 0.930 . S
H302 C310 0.930 1_545 S
H303 C304 1.016 . S
C304 H303 1.016 . S
C304 N311 1.286 . S
C305 H300 0.930 . S
C305 C306 1.397 . S
C305 C307 1.361 . S
C306 C305 1.397 . S
C306 C310 1.390 . S
C307 C305 1.361 . S
C307 C308 1.393 . S
C307 N311 1.413 . S
C308 H301 0.930 . S
C308 C307 1.393 . S
C308 C309 1.399 . S
C309 C308 1.399 . S
C309 C310 1.381 . S
C310 H302 0.930 1_565 S
C310 C306 1.390 . S
C310 C309 1.381 . S
N311 C304 1.286 . S
N311 C307 1.413 . S
H312 C317 0.930 . S
H313 C320 0.930 . S
H314 C322 0.930 . S
H315 C316 1.016 . S
C316 H315 1.016 . S
C316 N323 1.286 . S
C317 H312 0.930 . S
C317 C318 1.397 . S
C317 C319 1.361 . S
C318 C317 1.397 . S
C318 C322 1.390 . S
C319 C317 1.361 . S
C319 C320 1.393 . S
C319 N323 1.413 . S
C320 H313 0.930 . S
C320 C319 1.393 . S
C320 C321 1.399 . S
C321 C320 1.399 . S
C321 C322 1.381 . S
C322 H314 0.930 . S
C322 C318 1.390 . S
C322 C321 1.381 . S
N323 C316 1.286 . S
N323 C319 1.413 . S
H324 C329 0.930 . S
H325 C332 0.930 . S
H326 C334 0.930 1_554 S
H327 C328 1.016 . S
C328 H327 1.016 . S
C328 N335 1.286 . S
C329 H324 0.930 . S
C329 C330 1.397 . S
C329 C331 1.361 . S
C330 C329 1.397 . S
C330 C334 1.390 . S
C331 C329 1.361 . S
C331 C332 1.393 . S
C331 N335 1.413 . S
C332 H325 0.930 . S
C332 C331 1.393 . S
C332 C333 1.399 . S
C333 C332 1.399 . S
C333 C334 1.381 . S
C334 H326 0.930 1_556 S
C334 C330 1.390 . S
C334 C333 1.381 . S
N335 C328 1.286 . S
N335 C331 1.413 . S
H336 C341 0.930 . S
H337 C344 0.930 . S
H338 C346 0.930 . S
H339 C340 1.016 . S
C340 H339 1.016 . S
C340 N347 1.286 . S
C341 H336 0.930 . S
C341 C342 1.397 . S
C341 C343 1.361 . S
C342 C341 1.397 . S
C342 C346 1.390 . S
C343 C341 1.361 . S
C343 C344 1.393 . S
C343 N347 1.413 . S
C344 H337 0.930 . S
C344 C343 1.393 . S
C344 C345 1.399 . S
C345 C344 1.399 . S
C345 C346 1.381 . S
C346 H338 0.930 . S
C346 C342 1.390 . S
C346 C345 1.381 . S
N347 C340 1.286 . S
N347 C343 1.413 . S
H348 C353 0.930 . S
H349 C356 0.930 . S
H350 C358 0.930 . S
H351 C352 1.016 . S
C352 H351 1.016 . S
C352 N359 1.286 . S
C353 H348 0.930 . S
C353 C354 1.397 . S
C353 C355 1.361 1_556 S
C354 C353 1.397 . S
C354 C358 1.390 . S
C355 C353 1.361 1_554 S
C355 C356 1.393 . S
C355 N359 1.413 . S
C356 H349 0.930 . S
C356 C355 1.393 . S
C356 C357 1.422 . S
C357 C356 1.422 . S
C357 C358 1.355 1_554 S
C358 H350 0.930 . S
C358 C354 1.390 . S
C358 C357 1.355 1_556 S
N359 C352 1.286 . S
N359 C355 1.413 . S
H360 C365 0.930 . S
H361 C368 0.930 . S
H362 C370 0.930 . S
H363 C364 1.016 . S
C364 H363 1.016 . S
C364 N371 1.286 . S
C365 H360 0.930 . S
C365 C366 1.397 . S
C365 C367 1.361 . S
C366 C365 1.397 . S
C366 C370 1.390 . S
C367 C365 1.361 . S
C367 C368 1.393 . S
C367 N371 1.413 . S
C368 H361 0.930 . S
C368 C367 1.393 . S
C368 C369 1.399 . S
C369 C368 1.399 . S
C369 C370 1.381 . S
C370 H362 0.930 . S
C370 C366 1.390 . S
C370 C369 1.381 . S
N371 C364 1.286 . S
N371 C367 1.413 . S
H372 C377 0.930 . S
H373 C380 0.930 . S
H374 C382 0.930 1_455 S
H375 C376 1.016 . S
C376 H375 1.016 . S
C376 N383 1.286 . S
C377 H372 0.930 . S
C377 C378 1.397 . S
C377 C379 1.361 . S
C378 C377 1.397 . S
C378 C382 1.390 . S
C379 C377 1.361 . S
C379 C380 1.393 . S
C379 N383 1.413 . S
C380 H373 0.930 . S
C380 C379 1.393 . S
C380 C381 1.399 . S
C381 C380 1.399 . S
C381 C382 1.381 . S
C382 H374 0.930 1_655 S
C382 C378 1.390 . S
C382 C381 1.381 . S
N383 C376 1.286 . S
N383 C379 1.413 . S
H384 C389 0.930 . S
H385 C392 0.930 . S
H386 C394 0.930 . S
H387 C388 1.016 . S
C388 H387 1.016 . S
C388 N395 1.286 . S
C389 H384 0.930 . S
C389 C390 1.397 . S
C389 C391 1.361 . S
C390 C389 1.397 . S
C390 C394 1.390 . S
C391 C389 1.361 . S
C391 C392 1.393 . S
C391 N395 1.413 . S
C392 H385 0.930 . S
C392 C391 1.393 . S
C392 C393 1.399 . S
C393 C392 1.399 . S
C393 C394 1.381 . S
C394 H386 0.930 . S
C394 C390 1.390 . S
C394 C393 1.381 . S
N395 C388 1.286 . S
N395 C391 1.413 . S
H396 C401 0.930 . S
H397 C404 0.930 . S
H398 C406 0.930 . S
H399 C400 1.016 . S
C400 H399 1.016 . S
C400 N407 1.286 . S
C401 H396 0.930 . S
C401 C402 1.397 . S
C401 C403 1.361 1_655 S
C402 C401 1.397 . S
C402 C406 1.390 . S
C403 C401 1.361 1_455 S
C403 C404 1.393 . S
C403 N407 1.413 . S
C404 H397 0.930 . S
C404 C403 1.393 . S
C404 C405 1.423 . S
C405 C404 1.423 . S
C405 C406 1.354 1_455 S
C406 H398 0.930 . S
C406 C402 1.390 . S
C406 C405 1.354 1_655 S
N407 C400 1.286 . S
N407 C403 1.413 . S
H408 C413 0.930 . S
H409 C416 0.930 . S
H410 C418 0.930 . S
H411 C412 1.016 . S
C412 H411 1.016 . S
C412 N419 1.286 . S
C413 H408 0.930 . S
C413 C414 1.397 . S
C413 C415 1.361 . S
C414 C413 1.397 . S
C414 C418 1.390 . S
C415 C413 1.361 . S
C415 C416 1.393 . S
C415 N419 1.413 . S
C416 H409 0.930 . S
C416 C415 1.393 . S
C416 C417 1.399 . S
C417 C416 1.399 . S
C417 C418 1.381 . S
C418 H410 0.930 . S
C418 C414 1.390 . S
C418 C417 1.381 . S
N419 C412 1.286 . S
N419 C415 1.413 . S
H420 C425 0.930 . S
H421 C428 0.930 . S
H422 C430 0.930 . S
H423 C424 1.016 . S
C424 H423 1.016 . S
C424 N431 1.286 . S
C425 H420 0.930 . S
C425 C426 1.397 . S
C425 C427 1.361 . S
C426 C425 1.397 . S
C426 C430 1.390 . S
C427 C425 1.361 . S
C427 C428 1.393 . S
C427 N431 1.413 . S
C428 H421 0.930 . S
C428 C427 1.393 . S
C428 C429 1.399 . S
C429 C428 1.399 . S
C429 C430 1.381 . S
C430 H422 0.930 . S
C430 C426 1.390 . S
C430 C429 1.381 . S
N431 C424 1.286 . S
N431 C427 1.413 . S
H432 C437 0.930 . S
H433 C440 0.930 . S
H434 C442 0.930 . S
H435 C436 1.016 . S
C436 H435 1.016 . S
C436 N443 1.286 . S
C437 H432 0.930 . S
C437 C438 1.397 . S
C437 C439 1.361 1_545 S
C438 C437 1.397 . S
C438 C442 1.390 . S
C439 C437 1.361 1_565 S
C439 C440 1.393 . S
C439 N443 1.413 . S
C440 H433 0.930 . S
C440 C439 1.393 . S
C440 C441 1.434 . S
C441 C440 1.434 . S
C441 C442 1.343 1_565 S
C442 H434 0.930 . S
C442 C438 1.390 . S
C442 C441 1.343 1_545 S
N443 C436 1.286 . S
N443 C439 1.413 . S
H444 C449 0.930 . S
H445 C452 0.930 . S
H446 C454 0.930 1_565 S
H447 C448 1.016 . S
C448 H447 1.016 . S
C448 N455 1.286 . S
C449 H444 0.930 . S
C449 C450 1.397 . S
C449 C451 1.361 . S
C450 C449 1.397 . S
C450 C454 1.390 . S
C451 C449 1.361 . S
C451 C452 1.393 . S
C451 N455 1.413 . S
C452 H445 0.930 . S
C452 C451 1.393 . S
C452 C453 1.399 . S
C453 C452 1.399 . S
C453 C454 1.381 . S
C454 H446 0.930 1_545 S
C454 C450 1.390 . S
C454 C453 1.381 . S
N455 C448 1.286 . S
N455 C451 1.413 . S
H456 C461 0.930 . S
H457 C464 0.930 . S
H458 C466 0.930 . S
H459 C460 1.016 . S
C460 H459 1.016 . S
C460 N467 1.286 . S
C461 H456 0.930 . S
C461 C462 1.397 . S
C461 C463 1.361 . S
C462 C461 1.397 . S
C462 C466 1.390 . S
C463 C461 1.361 . S
C463 C464 1.393 . S
C463 N467 1.413 . S
C464 H457 0.930 . S
C464 C463 1.393 . S
C464 C465 1.399 . S
C465 C464 1.399 . S
C465 C466 1.381 . S
C466 H458 0.930 . S
C466 C462 1.390 . S
C466 C465 1.381 . S
N467 C460 1.286 . S
N467 C463 1.413 . S
H468 C473 0.930 . S
H469 C476 0.930 . S
H470 C478 0.930 1_556 S
H471 C472 1.016 . S
C472 H471 1.016 . S
C472 N479 1.286 . S
C473 H468 0.930 . S
C473 C474 1.397 . S
C473 C475 1.361 . S
C474 C473 1.397 . S
C474 C478 1.390 . S
C475 C473 1.361 . S
C475 C476 1.393 . S
C475 N479 1.413 . S
C476 H469 0.930 . S
C476 C475 1.393 . S
C476 C477 1.399 . S
C477 C476 1.399 . S
C477 C478 1.381 . S
C478 H470 0.930 1_554 S
C478 C474 1.390 . S
C478 C477 1.381 . S
N479 C472 1.286 . S
N479 C475 1.413 . S
H480 C485 0.930 . S
H481 C488 0.930 . S
H482 C490 0.930 . S
H483 C484 1.016 . S
C484 H483 1.016 . S
C484 N491 1.286 . S
C485 H480 0.930 . S
C485 C486 1.397 . S
C485 C487 1.361 . S
C486 C485 1.397 . S
C486 C490 1.390 . S
C487 C485 1.361 . S
C487 C488 1.393 . S
C487 N491 1.413 . S
C488 H481 0.930 . S
C488 C487 1.393 . S
C488 C489 1.399 . S
C489 C488 1.399 . S
C489 C490 1.381 . S
C490 H482 0.930 . S
C490 C486 1.390 . S
C490 C489 1.381 . S
N491 C484 1.286 . S
N491 C487 1.413 . S
H492 C497 0.930 . S
H493 C500 0.930 . S
H494 C502 0.930 . S
H495 C496 1.016 . S
C496 H495 1.016 . S
C496 N503 1.286 . S
C497 H492 0.930 . S
C497 C498 1.397 . S
C497 C499 1.361 1_554 S
C498 C497 1.397 . S
C498 C502 1.390 . S
C499 C497 1.361 1_556 S
C499 C500 1.393 . S
C499 N503 1.413 . S
C500 H493 0.930 . S
C500 C499 1.393 . S
C500 C501 1.432 . S
C501 C500 1.432 . S
C501 C502 1.345 1_556 S
C502 H494 0.930 . S
C502 C498 1.390 . S
C502 C501 1.345 1_554 S
N503 C496 1.286 . S
N503 C499 1.413 . S
H504 C509 0.930 . S
H505 C512 0.930 . S
H506 C514 0.930 . S
H507 C508 1.016 . S
C508 H507 1.016 . S
C508 N515 1.286 . S
C509 H504 0.930 . S
C509 C510 1.397 . S
C509 C511 1.361 . S
C510 C509 1.397 . S
C510 C514 1.390 . S
C511 C509 1.361 . S
C511 C512 1.393 . S
C511 N515 1.413 . S
C512 H505 0.930 . S
C512 C511 1.393 . S
C512 C513 1.399 . S
C513 C512 1.399 . S
C513 C514 1.381 . S
C514 H506 0.930 . S
C514 C510 1.390 . S
C514 C513 1.381 . S
N515 C508 1.286 . S
N515 C511 1.413 . S
H516 C521 0.930 . S
H517 C524 0.930 . S
H518 C526 0.930 1_655 S
H519 C520 1.016 . S
C520 H519 1.016 . S
C520 N527 1.286 . S
C521 H516 0.930 . S
C521 C522 1.397 . S
C521 C523 1.361 . S
C522 C521 1.397 . S
C522 C526 1.390 . S
C523 C521 1.361 . S
C523 C524 1.393 . S
C523 N527 1.413 . S
C524 H517 0.930 . S
C524 C523 1.393 . S
C524 C525 1.399 . S
C525 C524 1.399 . S
C525 C526 1.381 . S
C526 H518 0.930 1_455 S
C526 C522 1.390 . S
C526 C525 1.381 . S
N527 C520 1.286 . S
N527 C523 1.413 . S
H528 C533 0.930 . S
H529 C536 0.930 . S
H530 C538 0.930 . S
H531 C532 1.016 . S
C532 H531 1.016 . S
C532 N539 1.286 . S
C533 H528 0.930 . S
C533 C534 1.397 . S
C533 C535 1.361 . S
C534 C533 1.397 . S
C534 C538 1.390 . S
C535 C533 1.361 . S
C535 C536 1.393 . S
C535 N539 1.413 . S
C536 H529 0.930 . S
C536 C535 1.393 . S
C536 C537 1.399 . S
C537 C536 1.399 . S
C537 C538 1.381 . S
C538 H530 0.930 . S
C538 C534 1.390 . S
C538 C537 1.381 . S
N539 C532 1.286 . S
N539 C535 1.413 . S
H540 C545 0.930 . S
H541 C548 0.930 . S
H542 C550 0.930 . S
H543 C544 1.016 . S
C544 H543 1.016 . S
C544 N551 1.286 . S
C545 H540 0.930 . S
C545 C546 1.397 . S
C545 C547 1.361 1_455 S
C546 C545 1.397 . S
C546 C550 1.390 . S
C547 C545 1.361 1_655 S
C547 C548 1.393 . S
C547 N551 1.413 . S
C548 H541 0.930 . S
C548 C547 1.393 . S
C548 C549 1.433 . S
C549 C548 1.433 . S
C549 C550 1.344 1_655 S
C550 H542 0.930 . S
C550 C546 1.390 . S
C550 C549 1.344 1_455 S
N551 C544 1.286 . S
N551 C547 1.413 . S
H552 C558 0.930 . S
H553 C561 0.930 . S
H554 C562 0.930 . S
H555 C563 0.930 . S
H556 C566 0.930 . S
H557 C567 0.930 . S
C558 H552 0.930 . S
C558 C559 1.355 . S
C558 C560 1.415 . S
C559 C558 1.355 . S
C559 C561 1.419 . S
C560 C558 1.415 . S
C560 C565 1.425 . S
C560 C567 1.409 . S
C561 H553 0.930 . S
C561 C559 1.419 . S
C561 C562 1.362 . S
C562 H554 0.930 . S
C562 C561 1.362 . S
C562 C565 1.409 . S
C563 H555 0.930 . S
C563 C564 1.355 . S
C563 C565 1.415 . S
C564 C563 1.355 . S
C564 C566 1.419 . S
C565 C560 1.425 . S
C565 C562 1.409 . S
C565 C563 1.415 . S
C566 H556 0.930 . S
C566 C564 1.419 . S
C566 C567 1.362 . S
C567 H557 0.930 . S
C567 C560 1.409 . S
C567 C566 1.362 . S
H568 C574 0.930 . S
H569 C577 0.930 . S
H570 C578 0.930 . S
H571 C579 0.930 . S
H572 C582 0.930 . S
H573 C583 0.930 . S
C574 H568 0.930 . S
C574 C575 1.355 . S
C574 C576 1.415 . S
C575 C574 1.355 . S
C575 C577 1.419 . S
C576 C574 1.415 . S
C576 C581 1.425 . S
C576 C583 1.409 . S
C577 H569 0.930 . S
C577 C575 1.419 . S
C577 C578 1.362 . S
C578 H570 0.930 . S
C578 C577 1.362 . S
C578 C581 1.409 . S
C579 H571 0.930 . S
C579 C580 1.355 . S
C579 C581 1.415 . S
C580 C579 1.355 . S
C580 C582 1.419 . S
C581 C576 1.425 . S
C581 C578 1.409 . S
C581 C579 1.415 . S
C582 H572 0.930 . S
C582 C580 1.419 . S
C582 C583 1.362 . S
C583 H573 0.930 . S
C583 C576 1.409 . S
C583 C582 1.362 . S
H584 C590 0.930 . S
H585 C593 0.930 . S
H586 C594 0.930 . S
H587 C595 0.930 . S
H588 C598 0.930 . S
H589 C599 0.930 . S
C590 H584 0.930 . S
C590 C591 1.355 . S
C590 C592 1.415 . S
C591 C590 1.355 . S
C591 C593 1.419 . S
C592 C590 1.415 . S
C592 C597 1.425 . S
C592 C599 1.409 . S
C593 H585 0.930 . S
C593 C591 1.419 . S
C593 C594 1.362 . S
C594 H586 0.930 . S
C594 C593 1.362 . S
C594 C597 1.409 . S
C595 H587 0.930 . S
C595 C596 1.355 . S
C595 C597 1.415 . S
C596 C595 1.355 . S
C596 C598 1.419 . S
C597 C592 1.425 . S
C597 C594 1.409 . S
C597 C595 1.415 . S
C598 H588 0.930 . S
C598 C596 1.419 . S
C598 C599 1.362 . S
C599 H589 0.930 . S
C599 C592 1.409 . S
C599 C598 1.362 . S
H600 C606 0.930 . S
H601 C609 0.928 1_545 S
H602 C610 0.930 . S
H603 C611 0.930 . S
H604 C614 0.930 . S
H605 C615 0.930 . S
C606 H600 0.930 . S
C606 C607 1.355 . S
C606 C608 1.415 . S
C607 C606 1.355 . S
C607 C609 1.420 . S
C608 C606 1.415 . S
C608 C613 1.425 . S
C608 C615 1.409 . S
C609 H601 0.928 1_565 S
C609 C607 1.420 . S
C609 C610 1.364 . S
C610 H602 0.930 . S
C610 C609 1.364 . S
C610 C613 1.409 . S
C611 H603 0.930 . S
C611 C612 1.355 . S
C611 C613 1.415 . S
C612 C611 1.355 . S
C612 C614 1.419 . S
C613 C608 1.425 . S
C613 C610 1.409 . S
C613 C611 1.415 . S
C614 H604 0.930 . S
C614 C612 1.419 . S
C614 C615 1.362 . S
C615 H605 0.930 . S
C615 C608 1.409 . S
C615 C614 1.362 . S
H616 C622 0.930 . S
H617 C625 0.930 . S
H618 C626 0.930 . S
H619 C627 0.930 . S
H620 C630 0.930 . S
H621 C631 0.930 . S
C622 H616 0.930 . S
C622 C623 1.355 . S
C622 C624 1.415 . S
C623 C622 1.355 . S
C623 C625 1.419 . S
C624 C622 1.415 . S
C624 C629 1.425 . S
C624 C631 1.409 . S
C625 H617 0.930 . S
C625 C623 1.419 . S
C625 C626 1.362 . S
C626 H618 0.930 . S
C626 C625 1.362 . S
C626 C629 1.409 . S
C627 H619 0.930 . S
C627 C628 1.355 . S
C627 C629 1.415 . S
C628 C627 1.355 . S
C628 C630 1.419 . S
C629 C624 1.425 . S
C629 C626 1.409 . S
C629 C627 1.415 . S
C630 H620 0.930 . S
C630 C628 1.419 . S
C630 C631 1.362 . S
C631 H621 0.930 . S
C631 C624 1.409 . S
C631 C630 1.362 . S
H632 C638 0.930 . S
H633 C641 0.930 . S
H634 C642 0.930 . S
H635 C643 0.930 1_554 S
H636 C646 0.930 . S
H637 C647 0.930 . S
C638 H632 0.930 . S
C638 C639 1.355 . S
C638 C640 1.415 . S
C639 C638 1.355 . S
C639 C641 1.419 1_556 S
C640 C638 1.415 . S
C640 C645 1.425 . S
C640 C647 1.409 . S
C641 H633 0.930 . S
C641 C639 1.419 1_554 S
C641 C642 1.362 . S
C642 H634 0.930 . S
C642 C641 1.362 . S
C642 C645 1.409 1_554 S
C643 H635 0.930 1_556 S
C643 C644 1.355 . S
C643 C645 1.415 . S
C644 C643 1.355 . S
C644 C646 1.419 . S
C645 C640 1.425 . S
C645 C642 1.409 1_556 S
C645 C643 1.415 . S
C646 H636 0.930 . S
C646 C644 1.419 . S
C646 C647 1.362 . S
C647 H637 0.930 . S
C647 C640 1.409 . S
C647 C646 1.362 . S
H648 C654 0.930 . S
H649 C657 0.930 . S
H650 C658 0.930 . S
H651 C659 0.930 . S
H652 C662 0.930 . S
H653 C663 0.930 . S
C654 H648 0.930 . S
C654 C655 1.355 . S
C654 C656 1.415 . S
C655 C654 1.355 . S
C655 C657 1.419 . S
C656 C654 1.415 . S
C656 C661 1.425 . S
C656 C663 1.409 . S
C657 H649 0.930 . S
C657 C655 1.419 . S
C657 C658 1.362 . S
C658 H650 0.930 . S
C658 C657 1.362 . S
C658 C661 1.409 . S
C659 H651 0.930 . S
C659 C660 1.355 . S
C659 C661 1.415 . S
C660 C659 1.355 . S
C660 C662 1.419 . S
C661 C656 1.425 . S
C661 C658 1.409 . S
C661 C659 1.415 . S
C662 H652 0.930 . S
C662 C660 1.419 . S
C662 C663 1.362 . S
C663 H653 0.930 . S
C663 C656 1.409 . S
C663 C662 1.362 . S
H664 C670 0.930 . S
H665 C673 0.930 . S
H666 C674 0.930 . S
H667 C675 0.930 . S
H668 C678 0.930 . S
H669 C679 0.930 . S
C670 H664 0.930 . S
C670 C671 1.355 . S
C670 C672 1.415 . S
C671 C670 1.355 . S
C671 C673 1.419 1_554 S
C672 C670 1.415 . S
C672 C677 1.425 . S
C672 C679 1.409 . S
C673 H665 0.930 . S
C673 C671 1.419 1_556 S
C673 C674 1.362 . S
C674 H666 0.930 . S
C674 C673 1.362 . S
C674 C677 1.409 1_556 S
C675 H667 0.930 . S
C675 C676 1.355 . S
C675 C677 1.415 . S
C676 C675 1.355 . S
C676 C678 1.419 . S
C677 C672 1.425 . S
C677 C674 1.409 1_554 S
C677 C675 1.415 . S
C678 H668 0.930 . S
C678 C676 1.419 . S
C678 C679 1.362 . S
C679 H669 0.930 . S
C679 C672 1.409 . S
C679 C678 1.362 . S
H680 C686 0.930 . S
H681 C689 0.930 . S
H682 C690 0.930 . S
H683 C691 0.930 . S
H684 C694 0.930 . S
H685 C695 0.930 . S
C686 H680 0.930 . S
C686 C687 1.355 . S
C686 C688 1.415 . S
C687 C686 1.355 . S
C687 C689 1.419 . S
C688 C686 1.415 . S
C688 C693 1.425 . S
C688 C695 1.409 . S
C689 H681 0.930 . S
C689 C687 1.419 . S
C689 C690 1.362 . S
C690 H682 0.930 . S
C690 C689 1.362 . S
C690 C693 1.409 . S
C691 H683 0.930 . S
C691 C692 1.355 . S
C691 C693 1.415 . S
C692 C691 1.355 . S
C692 C694 1.419 . S
C693 C688 1.425 . S
C693 C690 1.409 . S
C693 C691 1.415 . S
C694 H684 0.930 . S
C694 C692 1.419 . S
C694 C695 1.362 . S
C695 H685 0.930 . S
C695 C688 1.409 . S
C695 C694 1.362 . S
H696 C702 0.930 . S
H697 C705 0.930 . S
H698 C706 0.930 . S
H699 C707 0.930 1_455 S
H700 C710 0.930 . S
H701 C711 0.930 . S
C702 H696 0.930 . S
C702 C703 1.374 . S
C702 C704 1.415 . S
C703 C702 1.374 . S
C703 C705 1.402 1_655 S
C704 C702 1.415 . S
C704 C709 1.425 . S
C704 C711 1.409 . S
C705 H697 0.930 . S
C705 C703 1.402 1_455 S
C705 C706 1.362 . S
C706 H698 0.930 . S
C706 C705 1.362 . S
C706 C709 1.409 1_455 S
C707 H699 0.930 1_655 S
C707 C708 1.355 . S
C707 C709 1.415 . S
C708 C707 1.355 . S
C708 C710 1.419 . S
C709 C704 1.425 . S
C709 C706 1.409 1_655 S
C709 C707 1.415 . S
C710 H700 0.930 . S
C710 C708 1.419 . S
C710 C711 1.362 . S
C711 H701 0.930 . S
C711 C704 1.409 . S
C711 C710 1.362 . S
H712 C718 0.930 . S
H713 C721 0.930 . S
H714 C722 0.930 . S
H715 C723 0.930 . S
H716 C726 0.930 . S
H717 C727 0.930 . S
C718 H712 0.930 . S
C718 C719 1.355 . S
C718 C720 1.415 . S
C719 C718 1.355 . S
C719 C721 1.419 . S
C720 C718 1.415 . S
C720 C725 1.425 . S
C720 C727 1.409 . S
C721 H713 0.930 . S
C721 C719 1.419 . S
C721 C722 1.362 . S
C722 H714 0.930 . S
C722 C721 1.362 . S
C722 C725 1.409 . S
C723 H715 0.930 . S
C723 C724 1.355 . S
C723 C725 1.415 . S
C724 C723 1.355 . S
C724 C726 1.419 . S
C725 C720 1.425 . S
C725 C722 1.409 . S
C725 C723 1.415 . S
C726 H716 0.930 . S
C726 C724 1.419 . S
C726 C727 1.362 . S
C727 H717 0.930 . S
C727 C720 1.409 . S
C727 C726 1.362 . S
H728 C734 0.966 . S
H729 C737 0.930 . S
H730 C738 0.930 . S
H731 C739 0.930 . S
H732 C742 0.930 . S
H733 C743 0.967 . S
C734 H728 0.966 . S
C734 C735 1.338 1_655 S
C734 C736 1.397 1_655 S
C735 C734 1.338 1_455 S
C735 C737 1.419 . S
C736 C734 1.397 1_455 S
C736 C741 1.425 . S
C736 C743 1.393 1_455 S
C737 H729 0.930 . S
C737 C735 1.419 . S
C737 C738 1.362 . S
C738 H730 0.930 . S
C738 C737 1.362 . S
C738 C741 1.409 . S
C739 H731 0.930 . S
C739 C740 1.355 . S
C739 C741 1.415 . S
C740 C739 1.355 . S
C740 C742 1.419 . S
C741 C736 1.425 . S
C741 C738 1.409 . S
C741 C739 1.415 . S
C742 H732 0.930 . S
C742 C740 1.419 . S
C742 C743 1.344 1_455 S
C743 H733 0.967 . S
C743 C736 1.393 1_655 S
C743 C742 1.344 1_655 S
H744 C750 0.930 . S
H745 C753 0.930 . S
H746 C754 0.930 . S
H747 C755 0.930 . S
H748 C758 0.930 . S
H749 C759 0.930 . S
C750 H744 0.930 . S
C750 C751 1.355 . S
C750 C752 1.415 . S
C751 C750 1.355 . S
C751 C753 1.419 . S
C752 C750 1.415 . S
C752 C757 1.425 . S
C752 C759 1.409 . S
C753 H745 0.930 . S
C753 C751 1.419 . S
C753 C754 1.362 . S
C754 H746 0.930 . S
C754 C753 1.362 . S
C754 C757 1.409 . S
C755 H747 0.930 . S
C755 C756 1.355 . S
C755 C757 1.415 . S
C756 C755 1.355 . S
C756 C758 1.419 . S
C757 C752 1.425 . S
C757 C754 1.409 . S
C757 C755 1.415 . S
C758 H748 0.930 . S
C758 C756 1.419 . S
C758 C759 1.362 . S
C759 H749 0.930 . S
C759 C752 1.409 . S
C759 C758 1.362 . S
H760 C766 0.930 . S
H761 C769 0.930 . S
H762 C770 0.930 . S
H763 C771 0.930 . S
H764 C774 0.930 . S
H765 C775 0.930 . S
C766 H760 0.930 . S
C766 C767 1.355 . S
C766 C768 1.415 . S
C767 C766 1.355 . S
C767 C769 1.419 . S
C768 C766 1.415 . S
C768 C773 1.425 . S
C768 C775 1.409 . S
C769 H761 0.930 . S
C769 C767 1.419 . S
C769 C770 1.362 . S
C770 H762 0.930 . S
C770 C769 1.362 . S
C770 C773 1.409 . S
C771 H763 0.930 . S
C771 C772 1.355 . S
C771 C773 1.415 . S
C772 C771 1.355 . S
C772 C774 1.419 . S
C773 C768 1.425 . S
C773 C770 1.409 . S
C773 C771 1.415 . S
C774 H764 0.930 . S
C774 C772 1.419 . S
C774 C775 1.362 . S
C775 H765 0.930 . S
C775 C768 1.409 . S
C775 C774 1.362 . S
H776 C782 0.930 . S
H777 C785 0.930 . S
H778 C786 0.930 . S
H779 C787 0.930 . S
H780 C790 0.930 . S
H781 C791 0.930 . S
C782 H776 0.930 . S
C782 C783 1.355 . S
C782 C784 1.415 . S
C783 C782 1.355 . S
C783 C785 1.419 . S
C784 C782 1.415 . S
C784 C789 1.425 . S
C784 C791 1.409 . S
C785 H777 0.930 . S
C785 C783 1.419 . S
C785 C786 1.362 . S
C786 H778 0.930 . S
C786 C785 1.362 . S
C786 C789 1.409 . S
C787 H779 0.930 . S
C787 C788 1.355 . S
C787 C789 1.415 . S
C788 C787 1.355 . S
C788 C790 1.419 . S
C789 C784 1.425 . S
C789 C786 1.409 . S
C789 C787 1.415 . S
C790 H780 0.930 . S
C790 C788 1.419 . S
C790 C791 1.362 . S
C791 H781 0.930 . S
C791 C784 1.409 . S
C791 C790 1.362 . S
H792 C798 0.930 . S
H793 C801 0.930 . S
H794 C802 0.930 . S
H795 C803 0.930 1_565 S
H796 C806 0.930 . S
H797 C807 0.930 . S
C798 H792 0.930 . S
C798 C799 1.375 . S
C798 C800 1.415 . S
C799 C798 1.375 . S
C799 C801 1.403 1_545 S
C800 C798 1.415 . S
C800 C805 1.425 . S
C800 C807 1.409 . S
C801 H793 0.930 . S
C801 C799 1.403 1_565 S
C801 C802 1.362 . S
C802 H794 0.930 . S
C802 C801 1.362 . S
C802 C805 1.409 1_565 S
C803 H795 0.930 1_545 S
C803 C804 1.355 . S
C803 C805 1.415 . S
C804 C803 1.355 . S
C804 C806 1.419 . S
C805 C800 1.425 . S
C805 C802 1.409 1_545 S
C805 C803 1.415 . S
C806 H796 0.930 . S
C806 C804 1.419 . S
C806 C807 1.362 . S
C807 H797 0.930 . S
C807 C800 1.409 . S
C807 C806 1.362 . S
H808 C814 0.930 . S
H809 C817 0.930 . S
H810 C818 0.930 . S
H811 C819 0.930 . S
H812 C822 0.930 . S
H813 C823 0.930 . S
C814 H808 0.930 . S
C814 C815 1.355 . S
C814 C816 1.415 . S
C815 C814 1.355 . S
C815 C817 1.419 . S
C816 C814 1.415 . S
C816 C821 1.425 . S
C816 C823 1.409 . S
C817 H809 0.930 . S
C817 C815 1.419 . S
C817 C818 1.362 . S
C818 H810 0.930 . S
C818 C817 1.362 . S
C818 C821 1.409 . S
C819 H811 0.930 . S
C819 C820 1.355 . S
C819 C821 1.415 . S
C820 C819 1.355 . S
C820 C822 1.419 . S
C821 C816 1.425 . S
C821 C818 1.409 . S
C821 C819 1.415 . S
C822 H812 0.930 . S
C822 C820 1.419 . S
C822 C823 1.362 . S
C823 H813 0.930 . S
C823 C816 1.409 . S
C823 C822 1.362 . S
H824 C830 0.930 . S
H825 C833 0.930 . S
H826 C834 0.930 . S
H827 C835 0.930 . S
H828 C838 0.930 . S
H829 C839 0.930 . S
C830 H824 0.930 . S
C830 C831 1.355 . S
C830 C832 1.415 . S
C831 C830 1.355 . S
C831 C833 1.419 1_554 S
C832 C830 1.415 . S
C832 C837 1.425 . S
C832 C839 1.409 . S
C833 H825 0.930 . S
C833 C831 1.419 1_556 S
C833 C834 1.362 . S
C834 H826 0.930 . S
C834 C833 1.362 . S
C834 C837 1.409 1_556 S
C835 H827 0.930 . S
C835 C836 1.355 . S
C835 C837 1.415 . S
C836 C835 1.355 . S
C836 C838 1.419 . S
C837 C832 1.425 . S
C837 C834 1.409 1_554 S
C837 C835 1.415 . S
C838 H828 0.930 . S
C838 C836 1.419 . S
C838 C839 1.362 . S
C839 H829 0.930 . S
C839 C832 1.409 . S
C839 C838 1.362 . S
H840 C846 0.930 . S
H841 C849 0.930 . S
H842 C850 0.930 . S
H843 C851 0.930 . S
H844 C854 0.930 . S
H845 C855 0.930 . S
C846 H840 0.930 . S
C846 C847 1.355 . S
C846 C848 1.415 . S
C847 C846 1.355 . S
C847 C849 1.419 . S
C848 C846 1.415 . S
C848 C853 1.425 . S
C848 C855 1.409 . S
C849 H841 0.930 . S
C849 C847 1.419 . S
C849 C850 1.362 . S
C850 H842 0.930 . S
C850 C849 1.362 . S
C850 C853 1.409 . S
C851 H843 0.930 . S
C851 C852 1.355 . S
C851 C853 1.415 . S
C852 C851 1.355 . S
C852 C854 1.419 . S
C853 C848 1.425 . S
C853 C850 1.409 . S
C853 C851 1.415 . S
C854 H844 0.930 . S
C854 C852 1.419 . S
C854 C855 1.362 . S
C855 H845 0.930 . S
C855 C848 1.409 . S
C855 C854 1.362 . S
H856 C862 0.930 1_554 S
H857 C865 0.930 . S
H858 C866 0.930 . S
H859 C867 0.930 . S
H860 C870 0.930 . S
H861 C871 0.930 1_554 S
C862 H856 0.930 1_556 S
C862 C863 1.355 . S
C862 C864 1.415 . S
C863 C862 1.355 . S
C863 C865 1.419 . S
C864 C862 1.415 . S
C864 C869 1.425 . S
C864 C871 1.409 . S
C865 H857 0.930 . S
C865 C863 1.419 . S
C865 C866 1.362 . S
C866 H858 0.930 . S
C866 C865 1.362 . S
C866 C869 1.409 . S
C867 H859 0.930 . S
C867 C868 1.355 . S
C867 C869 1.415 . S
C868 C867 1.355 . S
C868 C870 1.419 . S
C869 C864 1.425 . S
C869 C866 1.409 . S
C869 C867 1.415 . S
C870 H860 0.930 . S
C870 C868 1.419 . S
C870 C871 1.362 . S
C871 H861 0.930 1_556 S
C871 C864 1.409 . S
C871 C870 1.362 . S
H872 C878 0.930 . S
H873 C881 0.930 . S
H874 C882 0.930 . S
H875 C883 0.930 . S
H876 C886 0.930 . S
H877 C887 0.930 . S
C878 H872 0.930 . S
C878 C879 1.355 . S
C878 C880 1.415 . S
C879 C878 1.355 . S
C879 C881 1.419 . S
C880 C878 1.415 . S
C880 C885 1.425 . S
C880 C887 1.409 . S
C881 H873 0.930 . S
C881 C879 1.419 . S
C881 C882 1.362 . S
C882 H874 0.930 . S
C882 C881 1.362 . S
C882 C885 1.409 . S
C883 H875 0.930 . S
C883 C884 1.355 . S
C883 C885 1.415 . S
C884 C883 1.355 . S
C884 C886 1.419 . S
C885 C880 1.425 . S
C885 C882 1.409 . S
C885 C883 1.415 . S
C886 H876 0.930 . S
C886 C884 1.419 . S
C886 C887 1.362 . S
C887 H877 0.930 . S
C887 C880 1.409 . S
C887 C886 1.362 . S
H888 C894 0.930 . S
H889 C897 0.930 . S
H890 C898 0.930 . S
H891 C899 0.930 . S
H892 C902 0.930 . S
H893 C903 0.930 . S
C894 H888 0.930 . S
C894 C895 1.355 . S
C894 C896 1.415 . S
C895 C894 1.355 . S
C895 C897 1.419 . S
C896 C894 1.415 . S
C896 C901 1.425 . S
C896 C903 1.409 . S
C897 H889 0.930 . S
C897 C895 1.419 . S
C897 C898 1.362 . S
C898 H890 0.930 . S
C898 C897 1.362 . S
C898 C901 1.409 . S
C899 H891 0.930 . S
C899 C900 1.355 . S
C899 C901 1.415 . S
C900 C899 1.355 . S
C900 C902 1.419 . S
C901 C896 1.425 . S
C901 C898 1.409 . S
C901 C899 1.415 . S
C902 H892 0.930 . S
C902 C900 1.419 . S
C902 C903 1.362 . S
C903 H893 0.930 . S
C903 C896 1.409 . S
C903 C902 1.362 . S
H904 C910 0.930 . S
H905 C913 0.930 . S
H906 C914 0.930 . S
H907 C915 0.930 . S
H908 C918 0.930 . S
H909 C919 0.930 . S
C910 H904 0.930 . S
C910 C911 1.355 . S
C910 C912 1.415 . S
C911 C910 1.355 . S
C911 C913 1.419 . S
C912 C910 1.415 . S
C912 C917 1.425 . S
C912 C919 1.409 . S
C913 H905 0.930 . S
C913 C911 1.419 . S
C913 C914 1.362 . S
C914 H906 0.930 . S
C914 C913 1.362 . S
C914 C917 1.409 . S
C915 H907 0.930 . S
C915 C916 1.355 . S
C915 C917 1.415 . S
C916 C915 1.355 . S
C916 C918 1.419 . S
C917 C912 1.425 . S
C917 C914 1.409 . S
C917 C915 1.415 . S
C918 H908 0.930 . S
C918 C916 1.419 . S
C918 C919 1.362 . S
C919 H909 0.930 . S
C919 C912 1.409 . S
C919 C918 1.362 . S
H920 C926 0.930 . S
H921 C929 0.930 . S
H922 C930 0.930 . S
H923 C931 0.930 1_455 S
H924 C934 0.930 . S
H925 C935 0.930 . S
C926 H920 0.930 . S
C926 C927 1.355 . S
C926 C928 1.415 . S
C927 C926 1.355 . S
C927 C929 1.419 1_655 S
C928 C926 1.415 . S
C928 C933 1.425 . S
C928 C935 1.409 . S
C929 H921 0.930 . S
C929 C927 1.419 1_455 S
C929 C930 1.362 . S
C930 H922 0.930 . S
C930 C929 1.362 . S
C930 C933 1.409 1_455 S
C931 H923 0.930 1_655 S
C931 C932 1.355 . S
C931 C933 1.415 . S
C932 C931 1.355 . S
C932 C934 1.419 . S
C933 C928 1.425 . S
C933 C930 1.409 1_655 S
C933 C931 1.415 . S
C934 H924 0.930 . S
C934 C932 1.419 . S
C934 C935 1.362 . S
C935 H925 0.930 . S
C935 C928 1.409 . S
C935 C934 1.362 . S
H936 C942 0.930 . S
H937 C945 0.930 . S
H938 C946 0.930 . S
H939 C947 0.930 . S
H940 C950 0.930 . S
H941 C951 0.930 . S
C942 H936 0.930 . S
C942 C943 1.355 . S
C942 C944 1.415 . S
C943 C942 1.355 . S
C943 C945 1.419 . S
C944 C942 1.415 . S
C944 C949 1.425 . S
C944 C951 1.409 . S
C945 H937 0.930 . S
C945 C943 1.419 . S
C945 C946 1.362 . S
C946 H938 0.930 . S
C946 C945 1.362 . S
C946 C949 1.409 . S
C947 H939 0.930 . S
C947 C948 1.355 . S
C947 C949 1.415 . S
C948 C947 1.355 . S
C948 C950 1.419 . S
C949 C944 1.425 . S
C949 C946 1.409 . S
C949 C947 1.415 . S
C950 H940 0.930 . S
C950 C948 1.419 . S
C950 C951 1.362 . S
C951 H941 0.930 . S
C951 C944 1.409 . S
C951 C950 1.362 . S
H952 C958 0.930 . S
H953 C961 0.930 . S
H954 C962 0.930 . S
H955 C963 0.930 . S
H956 C966 0.930 . S
H957 C967 0.930 . S
C958 H952 0.930 . S
C958 C959 1.355 . S
C958 C960 1.415 . S
C959 C958 1.355 . S
C959 C961 1.419 . S
C960 C958 1.415 . S
C960 C965 1.425 . S
C960 C967 1.409 . S
C961 H953 0.930 . S
C961 C959 1.419 . S
C961 C962 1.362 . S
C962 H954 0.930 . S
C962 C961 1.362 . S
C962 C965 1.409 . S
C963 H955 0.930 . S
C963 C964 1.355 . S
C963 C965 1.415 . S
C964 C963 1.355 . S
C964 C966 1.419 . S
C965 C960 1.425 . S
C965 C962 1.409 . S
C965 C963 1.415 . S
C966 H956 0.930 . S
C966 C964 1.419 . S
C966 C967 1.362 . S
C967 H957 0.930 . S
C967 C960 1.409 . S
C967 C966 1.362 . S
H968 C974 0.930 . S
H969 C977 0.930 . S
H970 C978 0.930 . S
H971 C979 0.930 . S
H972 C982 0.930 . S
H973 C983 0.930 . S
C974 H968 0.930 . S
C974 C975 1.355 . S
C974 C976 1.415 . S
C975 C974 1.355 . S
C975 C977 1.419 1_565 S
C976 C974 1.415 . S
C976 C981 1.425 1_565 S
C976 C983 1.409 . S
C977 H969 0.930 . S
C977 C975 1.419 1_545 S
C977 C978 1.362 . S
C978 H970 0.930 . S
C978 C977 1.362 . S
C978 C981 1.409 . S
C979 H971 0.930 . S
C979 C980 1.356 . S
C979 C981 1.415 . S
C980 C979 1.356 . S
C980 C982 1.417 1_545 S
C981 C976 1.425 1_545 S
C981 C978 1.409 . S
C981 C979 1.415 . S
C982 H972 0.930 . S
C982 C980 1.417 1_565 S
C982 C983 1.362 . S
C983 H973 0.930 . S
C983 C976 1.409 . S
C983 C982 1.362 . S
H984 C990 0.930 . S
H985 C993 0.930 . S
H986 C994 0.930 . S
H987 C995 0.936 . S
H988 C998 0.930 . S
H989 C999 0.930 . S
C990 H984 0.930 . S
C990 C991 1.357 . S
C990 C992 1.415 . S
C991 C990 1.357 . S
C991 C993 1.417 1_565 S
C992 C990 1.415 . S
C992 C997 1.425 . S
C992 C999 1.409 . S
C993 H985 0.930 . S
C993 C991 1.417 1_545 S
C993 C994 1.362 . S
C994 H986 0.930 . S
C994 C993 1.362 . S
C994 C997 1.409 1_545 S
C995 H987 0.936 . S
C995 C996 1.355 . S
C995 C997 1.415 . S
C996 C995 1.355 . S
C996 C998 1.419 . S
C997 C992 1.425 . S
C997 C994 1.409 1_565 S
C997 C995 1.415 . S
C998 H988 0.930 . S
C998 C996 1.419 . S
C998 C999 1.362 . S
C999 H989 0.930 . S
C999 C992 1.409 . S
C999 C998 1.362 . S
H1000 C1006 0.930 . S
H1001 C1009 0.930 . S
H1002 C1010 0.930 . S
H1003 C1011 0.930 . S
H1004 C1014 0.930 . S
H1005 C1015 0.930 . S
C1006 H1000 0.930 . S
C1006 C1007 1.355 . S
C1006 C1008 1.415 . S
C1007 C1006 1.355 . S
C1007 C1009 1.419 . S
C1008 C1006 1.415 . S
C1008 C1013 1.425 . S
C1008 C1015 1.409 . S
C1009 H1001 0.930 . S
C1009 C1007 1.419 . S
C1009 C1010 1.362 . S
C1010 H1002 0.930 . S
C1010 C1009 1.362 . S
C1010 C1013 1.409 . S
C1011 H1003 0.930 . S
C1011 C1012 1.355 . S
C1011 C1013 1.415 . S
C1012 C1011 1.355 . S
C1012 C1014 1.419 . S
C1013 C1008 1.425 . S
C1013 C1010 1.409 . S
C1013 C1011 1.415 . S
C1014 H1004 0.930 . S
C1014 C1012 1.419 . S
C1014 C1015 1.362 . S
C1015 H1005 0.930 . S
C1015 C1008 1.409 . S
C1015 C1014 1.362 . S
H1016 C1022 0.930 . S
H1017 C1025 0.930 . S
H1018 C1026 0.930 . S
H1019 C1027 0.930 1_554 S
H1020 C1030 0.930 . S
H1021 C1031 0.930 . S
C1022 H1016 0.930 . S
C1022 C1023 1.352 . S
C1022 C1024 1.415 . S
C1023 C1022 1.352 . S
C1023 C1025 1.422 1_556 S
C1024 C1022 1.415 . S
C1024 C1029 1.425 . S
C1024 C1031 1.409 . S
C1025 H1017 0.930 . S
C1025 C1023 1.422 1_554 S
C1025 C1026 1.362 . S
C1026 H1018 0.930 . S
C1026 C1025 1.362 . S
C1026 C1029 1.409 1_554 S
C1027 H1019 0.930 1_556 S
C1027 C1028 1.355 . S
C1027 C1029 1.415 . S
C1028 C1027 1.355 . S
C1028 C1030 1.419 . S
C1029 C1024 1.425 . S
C1029 C1026 1.409 1_556 S
C1029 C1027 1.415 . S
C1030 H1020 0.930 . S
C1030 C1028 1.419 . S
C1030 C1031 1.362 . S
C1031 H1021 0.930 . S
C1031 C1024 1.409 . S
C1031 C1030 1.362 . S
H1032 C1038 0.930 . S
H1033 C1041 0.930 . S
H1034 C1042 0.930 . S
H1035 C1043 0.930 . S
H1036 C1046 0.930 . S
H1037 C1047 0.930 . S
C1038 H1032 0.930 . S
C1038 C1039 1.355 . S
C1038 C1040 1.415 . S
C1039 C1038 1.355 . S
C1039 C1041 1.419 . S
C1040 C1038 1.415 . S
C1040 C1045 1.425 . S
C1040 C1047 1.409 . S
C1041 H1033 0.930 . S
C1041 C1039 1.419 . S
C1041 C1042 1.362 . S
C1042 H1034 0.930 . S
C1042 C1041 1.362 . S
C1042 C1045 1.409 . S
C1043 H1035 0.930 . S
C1043 C1044 1.355 . S
C1043 C1045 1.415 . S
C1044 C1043 1.355 . S
C1044 C1046 1.419 . S
C1045 C1040 1.425 . S
C1045 C1042 1.409 . S
C1045 C1043 1.415 . S
C1046 H1036 0.930 . S
C1046 C1044 1.419 . S
C1046 C1047 1.362 . S
C1047 H1037 0.930 . S
C1047 C1040 1.409 . S
C1047 C1046 1.362 . S
H1048 C1054 0.930 . S
H1049 C1057 0.930 . S
H1050 C1058 0.930 . S
H1051 C1059 0.930 . S
H1052 C1062 0.930 . S
H1053 C1063 0.930 . S
C1054 H1048 0.930 . S
C1054 C1055 1.355 1_554 S
C1054 C1056 1.415 . S
C1055 C1054 1.355 1_556 S
C1055 C1057 1.419 . S
C1056 C1054 1.415 . S
C1056 C1061 1.425 1_554 S
C1056 C1063 1.409 . S
C1057 H1049 0.930 . S
C1057 C1055 1.419 . S
C1057 C1058 1.362 . S
C1058 H1050 0.930 . S
C1058 C1057 1.362 . S
C1058 C1061 1.409 . S
C1059 H1051 0.930 . S
C1059 C1060 1.355 1_556 S
C1059 C1061 1.415 . S
C1060 C1059 1.355 1_554 S
C1060 C1062 1.419 . S
C1061 C1056 1.425 1_556 S
C1061 C1058 1.409 . S
C1061 C1059 1.415 . S
C1062 H1052 0.930 . S
C1062 C1060 1.419 . S
C1062 C1063 1.362 . S
C1063 H1053 0.930 . S
C1063 C1056 1.409 . S
C1063 C1062 1.362 . S
H1064 C1070 0.930 . S
H1065 C1073 0.930 . S
H1066 C1074 0.930 . S
H1067 C1075 0.930 . S
H1068 C1078 0.930 . S
H1069 C1079 0.930 . S
C1070 H1064 0.930 . S
C1070 C1071 1.355 . S
C1070 C1072 1.415 . S
C1071 C1070 1.355 . S
C1071 C1073 1.419 . S
C1072 C1070 1.415 . S
C1072 C1077 1.425 . S
C1072 C1079 1.409 . S
C1073 H1065 0.930 . S
C1073 C1071 1.419 . S
C1073 C1074 1.362 . S
C1074 H1066 0.930 . S
C1074 C1073 1.362 . S
C1074 C1077 1.409 . S
C1075 H1067 0.930 . S
C1075 C1076 1.355 . S
C1075 C1077 1.415 . S
C1076 C1075 1.355 . S
C1076 C1078 1.419 . S
C1077 C1072 1.425 . S
C1077 C1074 1.409 . S
C1077 C1075 1.415 . S
C1078 H1068 0.930 . S
C1078 C1076 1.419 . S
C1078 C1079 1.362 . S
C1079 H1069 0.930 . S
C1079 C1072 1.409 . S
C1079 C1078 1.362 . S
H1080 C1086 0.930 . S
H1081 C1089 0.930 . S
H1082 C1090 0.930 . S
H1083 C1091 0.930 1_455 S
H1084 C1094 0.930 . S
H1085 C1095 0.930 . S
C1086 H1080 0.930 . S
C1086 C1087 1.352 . S
C1086 C1088 1.415 . S
C1087 C1086 1.352 . S
C1087 C1089 1.422 1_655 S
C1088 C1086 1.415 . S
C1088 C1093 1.425 . S
C1088 C1095 1.409 . S
C1089 H1081 0.930 . S
C1089 C1087 1.422 1_455 S
C1089 C1090 1.362 . S
C1090 H1082 0.930 . S
C1090 C1089 1.362 . S
C1090 C1093 1.409 1_455 S
C1091 H1083 0.930 1_655 S
C1091 C1092 1.355 . S
C1091 C1093 1.415 . S
C1092 C1091 1.355 . S
C1092 C1094 1.419 . S
C1093 C1088 1.425 . S
C1093 C1090 1.409 1_655 S
C1093 C1091 1.415 . S
C1094 H1084 0.930 . S
C1094 C1092 1.419 . S
C1094 C1095 1.362 . S
C1095 H1085 0.930 . S
C1095 C1088 1.409 . S
C1095 C1094 1.362 . S
H1096 C1102 0.930 . S
H1097 C1105 0.930 . S
H1098 C1106 0.930 . S
H1099 C1107 0.930 . S
H1100 C1110 0.930 . S
H1101 C1111 0.930 . S
C1102 H1096 0.930 . S
C1102 C1103 1.355 . S
C1102 C1104 1.415 . S
C1103 C1102 1.355 . S
C1103 C1105 1.419 . S
C1104 C1102 1.415 . S
C1104 C1109 1.425 . S
C1104 C1111 1.409 . S
C1105 H1097 0.930 . S
C1105 C1103 1.419 . S
C1105 C1106 1.362 . S
C1106 H1098 0.930 . S
C1106 C1105 1.362 . S
C1106 C1109 1.409 . S
C1107 H1099 0.930 . S
C1107 C1108 1.355 . S
C1107 C1109 1.415 . S
C1108 C1107 1.355 . S
C1108 C1110 1.419 . S
C1109 C1104 1.425 . S
C1109 C1106 1.409 . S
C1109 C1107 1.415 . S
C1110 H1100 0.930 . S
C1110 C1108 1.419 . S
C1110 C1111 1.362 . S
C1111 H1101 0.930 . S
C1111 C1104 1.409 . S
C1111 C1110 1.362 . S
H1112 C1118 0.930 . S
H1113 C1121 0.930 . S
H1114 C1122 0.930 . S
H1115 C1123 0.930 . S
H1116 C1126 0.930 . S
H1117 C1127 0.930 . S
C1118 H1112 0.930 . S
C1118 C1119 1.355 1_455 S
C1118 C1120 1.415 . S
C1119 C1118 1.355 1_655 S
C1119 C1121 1.419 . S
C1120 C1118 1.415 . S
C1120 C1125 1.425 1_455 S
C1120 C1127 1.409 . S
C1121 H1113 0.930 . S
C1121 C1119 1.419 . S
C1121 C1122 1.362 . S
C1122 H1114 0.930 . S
C1122 C1121 1.362 . S
C1122 C1125 1.409 . S
C1123 H1115 0.930 . S
C1123 C1124 1.355 1_655 S
C1123 C1125 1.415 . S
C1124 C1123 1.355 1_455 S
C1124 C1126 1.419 . S
C1125 C1120 1.425 1_655 S
C1125 C1122 1.409 . S
C1125 C1123 1.415 . S
C1126 H1116 0.930 . S
C1126 C1124 1.419 . S
C1126 C1127 1.362 . S
C1127 H1117 0.930 . S
C1127 C1120 1.409 . S
C1127 C1126 1.362 . S
H1128 C1134 0.930 . S
H1129 C1137 0.930 . S
H1130 C1138 0.930 . S
H1131 C1139 0.930 . S
H1132 C1142 0.930 . S
H1133 C1143 0.930 . S
C1134 H1128 0.930 . S
C1134 C1135 1.355 . S
C1134 C1136 1.415 . S
C1135 C1134 1.355 . S
C1135 C1137 1.419 . S
C1136 C1134 1.415 . S
C1136 C1141 1.425 . S
C1136 C1143 1.409 . S
C1137 H1129 0.930 . S
C1137 C1135 1.419 . S
C1137 C1138 1.362 . S
C1138 H1130 0.930 . S
C1138 C1137 1.362 . S
C1138 C1141 1.409 . S
C1139 H1131 0.930 . S
C1139 C1140 1.355 . S
C1139 C1141 1.415 . S
C1140 C1139 1.355 . S
C1140 C1142 1.419 . S
C1141 C1136 1.425 . S
C1141 C1138 1.409 . S
C1141 C1139 1.415 . S
C1142 H1132 0.930 . S
C1142 C1140 1.419 . S
C1142 C1143 1.362 . S
C1143 H1133 0.930 . S
C1143 C1136 1.409 . S
C1143 C1142 1.362 . S
H1144 C1150 0.930 . S
H1145 C1153 0.930 . S
H1146 C1154 0.930 . S
H1147 C1155 0.930 . S
H1148 C1158 0.930 . S
H1149 C1159 0.930 . S
C1150 H1144 0.930 . S
C1150 C1151 1.355 . S
C1150 C1152 1.415 . S
C1151 C1150 1.355 . S
C1151 C1153 1.419 . S
C1152 C1150 1.415 . S
C1152 C1157 1.425 . S
C1152 C1159 1.409 . S
C1153 H1145 0.930 . S
C1153 C1151 1.419 . S
C1153 C1154 1.362 . S
C1154 H1146 0.930 . S
C1154 C1153 1.362 . S
C1154 C1157 1.409 . S
C1155 H1147 0.930 . S
C1155 C1156 1.355 . S
C1155 C1157 1.415 . S
C1156 C1155 1.355 . S
C1156 C1158 1.419 . S
C1157 C1152 1.425 . S
C1157 C1154 1.409 . S
C1157 C1155 1.415 . S
C1158 H1148 0.930 . S
C1158 C1156 1.419 . S
C1158 C1159 1.362 . S
C1159 H1149 0.930 . S
C1159 C1152 1.409 . S
C1159 C1158 1.362 . S
H1160 C1166 0.930 . S
H1161 C1169 0.930 . S
H1162 C1170 0.930 . S
H1163 C1171 0.930 . S
H1164 C1174 0.930 . S
H1165 C1175 0.930 . S
C1166 H1160 0.930 . S
C1166 C1167 1.355 . S
C1166 C1168 1.415 . S
C1167 C1166 1.355 . S
C1167 C1169 1.419 1_545 S
C1168 C1166 1.415 . S
C1168 C1173 1.425 1_545 S
C1168 C1175 1.409 . S
C1169 H1161 0.930 . S
C1169 C1167 1.419 1_565 S
C1169 C1170 1.362 . S
C1170 H1162 0.930 . S
C1170 C1169 1.362 . S
C1170 C1173 1.409 . S
C1171 H1163 0.930 . S
C1171 C1172 1.355 . S
C1171 C1173 1.415 . S
C1172 C1171 1.355 . S
C1172 C1174 1.419 1_565 S
C1173 C1168 1.425 1_565 S
C1173 C1170 1.409 . S
C1173 C1171 1.415 . S
C1174 H1164 0.930 . S
C1174 C1172 1.419 1_545 S
C1174 C1175 1.362 . S
C1175 H1165 0.930 . S
C1175 C1168 1.409 . S
C1175 C1174 1.362 . S
H1176 C1182 0.930 . S
H1177 C1185 0.930 . S
H1178 C1186 0.930 . S
H1179 C1187 0.930 . S
H1180 C1190 0.930 . S
H1181 C1191 0.930 1_565 S
C1182 H1176 0.930 . S
C1182 C1183 1.355 1_565 S
C1182 C1184 1.415 1_565 S
C1183 C1182 1.355 1_545 S
C1183 C1185 1.419 . S
C1184 C1182 1.415 1_545 S
C1184 C1189 1.425 . S
C1184 C1191 1.409 . S
C1185 H1177 0.930 . S
C1185 C1183 1.419 . S
C1185 C1186 1.362 . S
C1186 H1178 0.930 . S
C1186 C1185 1.362 . S
C1186 C1189 1.409 . S
C1187 H1179 0.930 . S
C1187 C1188 1.355 . S
C1187 C1189 1.415 . S
C1188 C1187 1.355 . S
C1188 C1190 1.419 . S
C1189 C1184 1.425 . S
C1189 C1186 1.409 . S
C1189 C1187 1.415 . S
C1190 H1180 0.930 . S
C1190 C1188 1.419 . S
C1190 C1191 1.362 . S
C1191 H1181 0.930 1_545 S
C1191 C1184 1.409 . S
C1191 C1190 1.362 . S
H1192 C1198 0.930 . S
H1193 C1201 0.930 . S
H1194 C1202 0.930 . S
H1195 C1203 0.930 . S
H1196 C1206 0.930 . S
H1197 C1207 0.930 . S
C1198 H1192 0.930 . S
C1198 C1199 1.355 . S
C1198 C1200 1.415 . S
C1199 C1198 1.355 . S
C1199 C1201 1.419 . S
C1200 C1198 1.415 . S
C1200 C1205 1.425 . S
C1200 C1207 1.409 . S
C1201 H1193 0.930 . S
C1201 C1199 1.419 . S
C1201 C1202 1.362 . S
C1202 H1194 0.930 . S
C1202 C1201 1.362 . S
C1202 C1205 1.409 . S
C1203 H1195 0.930 . S
C1203 C1204 1.355 . S
C1203 C1205 1.415 . S
C1204 C1203 1.355 . S
C1204 C1206 1.419 . S
C1205 C1200 1.425 . S
C1205 C1202 1.409 . S
C1205 C1203 1.415 . S
C1206 H1196 0.930 . S
C1206 C1204 1.419 . S
C1206 C1207 1.362 . S
C1207 H1197 0.930 . S
C1207 C1200 1.409 . S
C1207 C1206 1.362 . S
H1208 C1214 0.930 . S
H1209 C1217 0.930 . S
H1210 C1218 0.930 . S
H1211 C1219 0.930 . S
H1212 C1222 0.930 . S
H1213 C1223 0.930 . S
C1214 H1208 0.930 . S
C1214 C1215 1.355 1_556 S
C1214 C1216 1.415 1_556 S
C1215 C1214 1.355 1_554 S
C1215 C1217 1.419 . S
C1216 C1214 1.415 1_554 S
C1216 C1221 1.425 . S
C1216 C1223 1.409 1_554 S
C1217 H1209 0.930 . S
C1217 C1215 1.419 . S
C1217 C1218 1.362 . S
C1218 H1210 0.930 . S
C1218 C1217 1.362 . S
C1218 C1221 1.409 . S
C1219 H1211 0.930 . S
C1219 C1220 1.355 . S
C1219 C1221 1.415 . S
C1220 C1219 1.355 . S
C1220 C1222 1.419 . S
C1221 C1216 1.425 . S
C1221 C1218 1.409 . S
C1221 C1219 1.415 . S
C1222 H1212 0.930 . S
C1222 C1220 1.419 . S
C1222 C1223 1.362 1_554 S
C1223 H1213 0.930 . S
C1223 C1216 1.409 1_556 S
C1223 C1222 1.362 1_556 S
H1224 C1230 0.930 . S
H1225 C1233 0.930 . S
H1226 C1234 0.930 . S
H1227 C1235 0.930 . S
H1228 C1238 0.930 . S
H1229 C1239 0.930 . S
C1230 H1224 0.930 . S
C1230 C1231 1.355 . S
C1230 C1232 1.415 . S
C1231 C1230 1.355 . S
C1231 C1233 1.419 . S
C1232 C1230 1.415 . S
C1232 C1237 1.425 . S
C1232 C1239 1.409 . S
C1233 H1225 0.930 . S
C1233 C1231 1.419 . S
C1233 C1234 1.362 . S
C1234 H1226 0.930 . S
C1234 C1233 1.362 . S
C1234 C1237 1.409 . S
C1235 H1227 0.930 . S
C1235 C1236 1.355 . S
C1235 C1237 1.415 . S
C1236 C1235 1.355 . S
C1236 C1238 1.419 . S
C1237 C1232 1.425 . S
C1237 C1234 1.409 . S
C1237 C1235 1.415 . S
C1238 H1228 0.930 . S
C1238 C1236 1.419 . S
C1238 C1239 1.362 . S
C1239 H1229 0.930 . S
C1239 C1232 1.409 . S
C1239 C1238 1.362 . S
H1240 C1246 0.930 . S
H1241 C1249 0.930 . S
H1242 C1250 0.930 . S
H1243 C1251 0.930 . S
H1244 C1254 0.930 . S
H1245 C1255 0.930 . S
C1246 H1240 0.930 . S
C1246 C1247 1.355 1_556 S
C1246 C1248 1.415 . S
C1247 C1246 1.355 1_554 S
C1247 C1249 1.419 . S
C1248 C1246 1.415 . S
C1248 C1253 1.425 1_556 S
C1248 C1255 1.409 . S
C1249 H1241 0.930 . S
C1249 C1247 1.419 . S
C1249 C1250 1.362 . S
C1250 H1242 0.930 . S
C1250 C1249 1.362 . S
C1250 C1253 1.409 . S
C1251 H1243 0.930 . S
C1251 C1252 1.355 1_554 S
C1251 C1253 1.415 . S
C1252 C1251 1.355 1_556 S
C1252 C1254 1.419 . S
C1253 C1248 1.425 1_554 S
C1253 C1250 1.409 . S
C1253 C1251 1.415 . S
C1254 H1244 0.930 . S
C1254 C1252 1.419 . S
C1254 C1255 1.362 . S
C1255 H1245 0.930 . S
C1255 C1248 1.409 . S
C1255 C1254 1.362 . S
H1256 C1262 0.930 . S
H1257 C1265 0.930 . S
H1258 C1266 0.930 . S
H1259 C1267 0.930 . S
H1260 C1270 0.930 . S
H1261 C1271 0.930 . S
C1262 H1256 0.930 . S
C1262 C1263 1.355 . S
C1262 C1264 1.415 . S
C1263 C1262 1.355 . S
C1263 C1265 1.419 . S
C1264 C1262 1.415 . S
C1264 C1269 1.425 . S
C1264 C1271 1.409 . S
C1265 H1257 0.930 . S
C1265 C1263 1.419 . S
C1265 C1266 1.362 . S
C1266 H1258 0.930 . S
C1266 C1265 1.362 . S
C1266 C1269 1.409 . S
C1267 H1259 0.930 . S
C1267 C1268 1.355 . S
C1267 C1269 1.415 . S
C1268 C1267 1.355 . S
C1268 C1270 1.419 . S
C1269 C1264 1.425 . S
C1269 C1266 1.409 . S
C1269 C1267 1.415 . S
C1270 H1260 0.930 . S
C1270 C1268 1.419 . S
C1270 C1271 1.362 . S
C1271 H1261 0.930 . S
C1271 C1264 1.409 . S
C1271 C1270 1.362 . S
H1272 C1278 0.930 . S
H1273 C1281 0.930 . S
H1274 C1282 0.930 . S
H1275 C1283 0.930 . S
H1276 C1286 0.930 . S
H1277 C1287 0.930 . S
C1278 H1272 0.930 . S
C1278 C1279 1.355 . S
C1278 C1280 1.415 . S
C1279 C1278 1.355 . S
C1279 C1281 1.419 . S
C1280 C1278 1.415 . S
C1280 C1285 1.425 . S
C1280 C1287 1.409 . S
C1281 H1273 0.930 . S
C1281 C1279 1.419 . S
C1281 C1282 1.362 . S
C1282 H1274 0.930 . S
C1282 C1281 1.362 . S
C1282 C1285 1.409 . S
C1283 H1275 0.930 . S
C1283 C1284 1.355 . S
C1283 C1285 1.415 . S
C1284 C1283 1.355 . S
C1284 C1286 1.419 . S
C1285 C1280 1.425 . S
C1285 C1282 1.409 . S
C1285 C1283 1.415 . S
C1286 H1276 0.930 . S
C1286 C1284 1.419 . S
C1286 C1287 1.362 . S
C1287 H1277 0.930 . S
C1287 C1280 1.409 . S
C1287 C1286 1.362 . S
H1288 C1294 0.930 . S
H1289 C1297 0.930 . S
H1290 C1298 0.930 . S
H1291 C1299 0.930 . S
H1292 C1302 0.930 . S
H1293 C1303 0.930 . S
C1294 H1288 0.930 . S
C1294 C1295 1.355 . S
C1294 C1296 1.415 . S
C1295 C1294 1.355 . S
C1295 C1297 1.419 . S
C1296 C1294 1.415 . S
C1296 C1301 1.425 . S
C1296 C1303 1.409 . S
C1297 H1289 0.930 . S
C1297 C1295 1.419 . S
C1297 C1298 1.362 . S
C1298 H1290 0.930 . S
C1298 C1297 1.362 . S
C1298 C1301 1.409 . S
C1299 H1291 0.930 . S
C1299 C1300 1.355 . S
C1299 C1301 1.415 . S
C1300 C1299 1.355 . S
C1300 C1302 1.419 . S
C1301 C1296 1.425 . S
C1301 C1298 1.409 . S
C1301 C1299 1.415 . S
C1302 H1292 0.930 . S
C1302 C1300 1.419 . S
C1302 C1303 1.362 . S
C1303 H1293 0.930 . S
C1303 C1296 1.409 . S
C1303 C1302 1.362 . S
H1304 C1310 0.930 . S
H1305 C1313 0.930 . S
H1306 C1314 0.930 . S
H1307 C1315 0.930 . S
H1308 C1318 0.930 . S
H1309 C1319 0.930 . S
C1310 H1304 0.930 . S
C1310 C1311 1.355 1_655 S
C1310 C1312 1.415 . S
C1311 C1310 1.355 1_455 S
C1311 C1313 1.419 . S
C1312 C1310 1.415 . S
C1312 C1317 1.425 1_655 S
C1312 C1319 1.409 . S
C1313 H1305 0.930 . S
C1313 C1311 1.419 . S
C1313 C1314 1.362 . S
C1314 H1306 0.930 . S
C1314 C1313 1.362 . S
C1314 C1317 1.409 . S
C1315 H1307 0.930 . S
C1315 C1316 1.355 1_455 S
C1315 C1317 1.415 . S
C1316 C1315 1.355 1_655 S
C1316 C1318 1.419 . S
C1317 C1312 1.425 1_455 S
C1317 C1314 1.409 . S
C1317 C1315 1.415 . S
C1318 H1308 0.930 . S
C1318 C1316 1.419 . S
C1318 C1319 1.362 . S
C1319 H1309 0.930 . S
C1319 C1312 1.409 . S
C1319 C1318 1.362 . S
H1320 C1326 0.930 . S
H1321 C1329 0.930 . S
H1322 C1330 0.930 . S
H1323 C1331 0.930 . S
H1324 C1334 0.930 . S
H1325 C1335 0.930 . S
C1326 H1320 0.930 . S
C1326 C1327 1.355 . S
C1326 C1328 1.415 . S
C1327 C1326 1.355 . S
C1327 C1329 1.419 . S
C1328 C1326 1.415 . S
C1328 C1333 1.425 . S
C1328 C1335 1.409 . S
C1329 H1321 0.930 . S
C1329 C1327 1.419 . S
C1329 C1330 1.362 . S
C1330 H1322 0.930 . S
C1330 C1329 1.362 . S
C1330 C1333 1.409 . S
C1331 H1323 0.930 . S
C1331 C1332 1.355 . S
C1331 C1333 1.415 . S
C1332 C1331 1.355 . S
C1332 C1334 1.419 . S
C1333 C1328 1.425 . S
C1333 C1330 1.409 . S
C1333 C1331 1.415 . S
C1334 H1324 0.930 . S
C1334 C1332 1.419 . S
C1334 C1335 1.362 . S
C1335 H1325 0.930 . S
C1335 C1328 1.409 . S
C1335 C1334 1.362 . S
H1336 C1342 0.930 . S
H1337 C1345 0.930 . S
H1338 C1346 0.930 . S
H1339 C1347 0.930 . S
H1340 C1350 0.930 . S
H1341 C1351 0.930 . S
C1342 H1336 0.930 . S
C1342 C1343 1.355 . S
C1342 C1344 1.415 . S
C1343 C1342 1.355 . S
C1343 C1345 1.419 . S
C1344 C1342 1.415 . S
C1344 C1349 1.425 . S
C1344 C1351 1.409 . S
C1345 H1337 0.930 . S
C1345 C1343 1.419 . S
C1345 C1346 1.362 . S
C1346 H1338 0.930 . S
C1346 C1345 1.362 . S
C1346 C1349 1.409 . S
C1347 H1339 0.930 . S
C1347 C1348 1.355 . S
C1347 C1349 1.415 . S
C1348 C1347 1.355 . S
C1348 C1350 1.419 . S
C1349 C1344 1.425 . S
C1349 C1346 1.409 . S
C1349 C1347 1.415 . S
C1350 H1340 0.930 . S
C1350 C1348 1.419 . S
C1350 C1351 1.362 . S
C1351 H1341 0.930 . S
C1351 C1344 1.409 . S
C1351 C1350 1.362 . S
H1352 C1358 0.930 . S
H1353 C1361 0.930 . S
H1354 C1362 0.930 . S
H1355 C1363 0.932 . S
H1356 C1366 0.930 . S
H1357 C1367 0.930 . S
C1358 H1352 0.930 . S
C1358 C1359 1.355 . S
C1358 C1360 1.415 . S
C1359 C1358 1.355 . S
C1359 C1361 1.419 1_545 S
C1360 C1358 1.415 . S
C1360 C1365 1.437 . S
C1360 C1367 1.409 . S
C1361 H1353 0.930 . S
C1361 C1359 1.419 1_565 S
C1361 C1362 1.362 . S
C1362 H1354 0.930 . S
C1362 C1361 1.362 . S
C1362 C1365 1.400 1_565 S
C1363 H1355 0.932 . S
C1363 C1364 1.353 1_565 S
C1363 C1365 1.412 1_565 S
C1364 C1363 1.353 1_545 S
C1364 C1366 1.419 . S
C1365 C1360 1.437 . S
C1365 C1362 1.400 1_545 S
C1365 C1363 1.412 1_545 S
C1366 H1356 0.930 . S
C1366 C1364 1.419 . S
C1366 C1367 1.362 . S
C1367 H1357 0.930 . S
C1367 C1360 1.409 . S
C1367 C1366 1.362 . S
H1368 C1374 0.930 . S
H1369 C1377 0.930 . S
H1370 C1378 0.930 . S
H1371 C1379 0.930 1_545 S
H1372 C1382 0.930 . S
H1373 C1383 0.930 . S
C1374 H1368 0.930 . S
C1374 C1375 1.355 . S
C1374 C1376 1.415 . S
C1375 C1374 1.355 . S
C1375 C1377 1.419 1_565 S
C1376 C1374 1.415 . S
C1376 C1381 1.425 . S
C1376 C1383 1.409 . S
C1377 H1369 0.930 . S
C1377 C1375 1.419 1_545 S
C1377 C1378 1.362 . S
C1378 H1370 0.930 . S
C1378 C1377 1.362 . S
C1378 C1381 1.409 1_545 S
C1379 H1371 0.930 1_565 S
C1379 C1380 1.355 . S
C1379 C1381 1.415 . S
C1380 C1379 1.355 . S
C1380 C1382 1.419 . S
C1381 C1376 1.425 . S
C1381 C1378 1.409 1_565 S
C1381 C1379 1.415 . S
C1382 H1372 0.930 . S
C1382 C1380 1.419 . S
C1382 C1383 1.362 . S
C1383 H1373 0.930 . S
C1383 C1376 1.409 . S
C1383 C1382 1.362 . S
H1384 C1390 0.930 . S
H1385 C1393 0.930 . S
H1386 C1394 0.930 . S
H1387 C1395 0.930 . S
H1388 C1398 0.930 . S
H1389 C1399 0.930 . S
C1390 H1384 0.930 . S
C1390 C1391 1.355 . S
C1390 C1392 1.415 . S
C1391 C1390 1.355 . S
C1391 C1393 1.419 . S
C1392 C1390 1.415 . S
C1392 C1397 1.425 . S
C1392 C1399 1.409 . S
C1393 H1385 0.930 . S
C1393 C1391 1.419 . S
C1393 C1394 1.362 . S
C1394 H1386 0.930 . S
C1394 C1393 1.362 . S
C1394 C1397 1.409 . S
C1395 H1387 0.930 . S
C1395 C1396 1.355 . S
C1395 C1397 1.415 . S
C1396 C1395 1.355 . S
C1396 C1398 1.419 . S
C1397 C1392 1.425 . S
C1397 C1394 1.409 . S
C1397 C1395 1.415 . S
C1398 H1388 0.930 . S
C1398 C1396 1.419 . S
C1398 C1399 1.362 . S
C1399 H1389 0.930 . S
C1399 C1392 1.409 . S
C1399 C1398 1.362 . S
H1400 C1406 0.930 . S
H1401 C1409 0.930 . S
H1402 C1410 0.930 . S
H1403 C1411 0.930 1_554 S
H1404 C1414 0.930 . S
H1405 C1415 0.930 . S
C1406 H1400 0.930 . S
C1406 C1407 1.355 . S
C1406 C1408 1.415 . S
C1407 C1406 1.355 . S
C1407 C1409 1.419 1_556 S
C1408 C1406 1.415 . S
C1408 C1413 1.425 . S
C1408 C1415 1.409 . S
C1409 H1401 0.930 . S
C1409 C1407 1.419 1_554 S
C1409 C1410 1.362 . S
C1410 H1402 0.930 . S
C1410 C1409 1.362 . S
C1410 C1413 1.409 1_554 S
C1411 H1403 0.930 1_556 S
C1411 C1412 1.355 . S
C1411 C1413 1.415 . S
C1412 C1411 1.355 . S
C1412 C1414 1.419 . S
C1413 C1408 1.425 . S
C1413 C1410 1.409 1_556 S
C1413 C1411 1.415 . S
C1414 H1404 0.930 . S
C1414 C1412 1.419 . S
C1414 C1415 1.362 . S
C1415 H1405 0.930 . S
C1415 C1408 1.409 . S
C1415 C1414 1.362 . S
H1416 C1422 0.930 . S
H1417 C1425 0.930 . S
H1418 C1426 0.930 . S
H1419 C1427 0.930 . S
H1420 C1430 0.930 . S
H1421 C1431 0.930 . S
C1422 H1416 0.930 . S
C1422 C1423 1.355 . S
C1422 C1424 1.415 . S
C1423 C1422 1.355 . S
C1423 C1425 1.419 . S
C1424 C1422 1.415 . S
C1424 C1429 1.425 . S
C1424 C1431 1.409 . S
C1425 H1417 0.930 . S
C1425 C1423 1.419 . S
C1425 C1426 1.362 . S
C1426 H1418 0.930 . S
C1426 C1425 1.362 . S
C1426 C1429 1.409 . S
C1427 H1419 0.930 . S
C1427 C1428 1.355 . S
C1427 C1429 1.415 . S
C1428 C1427 1.355 . S
C1428 C1430 1.419 . S
C1429 C1424 1.425 . S
C1429 C1426 1.409 . S
C1429 C1427 1.415 . S
C1430 H1420 0.930 . S
C1430 C1428 1.419 . S
C1430 C1431 1.362 . S
C1431 H1421 0.930 . S
C1431 C1424 1.409 . S
C1431 C1430 1.362 . S
H1432 C1438 0.930 . S
H1433 C1441 0.928 1_556 S
H1434 C1442 0.932 . S
H1435 C1443 0.930 . S
H1436 C1446 0.930 . S
H1437 C1447 0.930 . S
C1438 H1432 0.930 . S
C1438 C1439 1.355 . S
C1438 C1440 1.415 . S
C1439 C1438 1.355 . S
C1439 C1441 1.421 . S
C1440 C1438 1.415 . S
C1440 C1445 1.425 . S
C1440 C1447 1.409 . S
C1441 H1433 0.928 1_554 S
C1441 C1439 1.421 . S
C1441 C1442 1.362 . S
C1442 H1434 0.932 . S
C1442 C1441 1.362 . S
C1442 C1445 1.409 . S
C1443 H1435 0.930 . S
C1443 C1444 1.355 . S
C1443 C1445 1.415 . S
C1444 C1443 1.355 . S
C1444 C1446 1.419 . S
C1445 C1440 1.425 . S
C1445 C1442 1.409 . S
C1445 C1443 1.415 . S
C1446 H1436 0.930 . S
C1446 C1444 1.419 . S
C1446 C1447 1.362 . S
C1447 H1437 0.930 . S
C1447 C1440 1.409 . S
C1447 C1446 1.362 . S
H1448 C1454 0.930 . S
H1449 C1457 0.930 . S
H1450 C1458 0.930 . S
H1451 C1459 0.930 . S
H1452 C1462 0.930 . S
H1453 C1463 0.930 . S
C1454 H1448 0.930 . S
C1454 C1455 1.355 . S
C1454 C1456 1.415 . S
C1455 C1454 1.355 . S
C1455 C1457 1.419 . S
C1456 C1454 1.415 . S
C1456 C1461 1.425 . S
C1456 C1463 1.409 . S
C1457 H1449 0.930 . S
C1457 C1455 1.419 . S
C1457 C1458 1.362 . S
C1458 H1450 0.930 . S
C1458 C1457 1.362 . S
C1458 C1461 1.409 . S
C1459 H1451 0.930 . S
C1459 C1460 1.355 . S
C1459 C1461 1.415 . S
C1460 C1459 1.355 . S
C1460 C1462 1.419 . S
C1461 C1456 1.425 . S
C1461 C1458 1.409 . S
C1461 C1459 1.415 . S
C1462 H1452 0.930 . S
C1462 C1460 1.419 . S
C1462 C1463 1.362 . S
C1463 H1453 0.930 . S
C1463 C1456 1.409 . S
C1463 C1462 1.362 . S
H1464 C1470 0.930 . S
H1465 C1473 0.930 . S
H1466 C1474 0.930 . S
H1467 C1475 0.930 1_455 S
H1468 C1478 0.930 . S
H1469 C1479 0.930 . S
C1470 H1464 0.930 . S
C1470 C1471 1.355 . S
C1470 C1472 1.415 . S
C1471 C1470 1.355 . S
C1471 C1473 1.419 1_655 S
C1472 C1470 1.415 . S
C1472 C1477 1.425 . S
C1472 C1479 1.409 . S
C1473 H1465 0.930 . S
C1473 C1471 1.419 1_455 S
C1473 C1474 1.362 . S
C1474 H1466 0.930 . S
C1474 C1473 1.362 . S
C1474 C1477 1.409 1_455 S
C1475 H1467 0.930 1_655 S
C1475 C1476 1.355 . S
C1475 C1477 1.415 . S
C1476 C1475 1.355 . S
C1476 C1478 1.419 . S
C1477 C1472 1.425 . S
C1477 C1474 1.409 1_655 S
C1477 C1475 1.415 . S
C1478 H1468 0.930 . S
C1478 C1476 1.419 . S
C1478 C1479 1.362 . S
C1479 H1469 0.930 . S
C1479 C1472 1.409 . S
C1479 C1478 1.362 . S
H1480 C1486 0.930 . S
H1481 C1489 0.930 . S
H1482 C1490 0.930 . S
H1483 C1491 0.930 . S
H1484 C1494 0.930 . S
H1485 C1495 0.930 . S
C1486 H1480 0.930 . S
C1486 C1487 1.355 . S
C1486 C1488 1.415 . S
C1487 C1486 1.355 . S
C1487 C1489 1.419 . S
C1488 C1486 1.415 . S
C1488 C1493 1.425 . S
C1488 C1495 1.409 . S
C1489 H1481 0.930 . S
C1489 C1487 1.419 . S
C1489 C1490 1.362 . S
C1490 H1482 0.930 . S
C1490 C1489 1.362 . S
C1490 C1493 1.409 . S
C1491 H1483 0.930 . S
C1491 C1492 1.355 . S
C1491 C1493 1.415 . S
C1492 C1491 1.355 . S
C1492 C1494 1.419 . S
C1493 C1488 1.425 . S
C1493 C1490 1.409 . S
C1493 C1491 1.415 . S
C1494 H1484 0.930 . S
C1494 C1492 1.419 . S
C1494 C1495 1.362 . S
C1495 H1485 0.930 . S
C1495 C1488 1.409 . S
C1495 C1494 1.362 . S
H1496 C1502 0.930 . S
H1497 C1505 0.930 . S
H1498 C1506 0.930 . S
H1499 C1507 0.930 . S
H1500 C1510 0.930 . S
H1501 C1511 0.930 . S
C1502 H1496 0.930 . S
C1502 C1503 1.355 1_655 S
C1502 C1504 1.415 1_655 S
C1503 C1502 1.355 1_455 S
C1503 C1505 1.419 . S
C1504 C1502 1.415 1_455 S
C1504 C1509 1.425 . S
C1504 C1511 1.409 1_455 S
C1505 H1497 0.930 . S
C1505 C1503 1.419 . S
C1505 C1506 1.362 . S
C1506 H1498 0.930 . S
C1506 C1505 1.362 . S
C1506 C1509 1.409 . S
C1507 H1499 0.930 . S
C1507 C1508 1.355 . S
C1507 C1509 1.415 . S
C1508 C1507 1.355 . S
C1508 C1510 1.419 1_455 S
C1509 C1504 1.425 . S
C1509 C1506 1.409 . S
C1509 C1507 1.415 . S
C1510 H1500 0.930 . S
C1510 C1508 1.419 1_655 S
C1510 C1511 1.362 . S
C1511 H1501 0.930 . S
C1511 C1504 1.409 1_655 S
C1511 C1510 1.362 . S
H1512 C1518 0.930 . S
H1513 C1521 0.930 . S
H1514 C1522 0.930 . S
H1515 C1523 0.930 . S
H1516 C1526 0.930 . S
H1517 C1527 0.930 . S
C1518 H1512 0.930 . S
C1518 C1519 1.355 . S
C1518 C1520 1.415 . S
C1519 C1518 1.355 . S
C1519 C1521 1.419 . S
C1520 C1518 1.415 . S
C1520 C1525 1.425 . S
C1520 C1527 1.409 . S
C1521 H1513 0.930 . S
C1521 C1519 1.419 . S
C1521 C1522 1.362 . S
C1522 H1514 0.930 . S
C1522 C1521 1.362 . S
C1522 C1525 1.409 . S
C1523 H1515 0.930 . S
C1523 C1524 1.355 . S
C1523 C1525 1.415 . S
C1524 C1523 1.355 . S
C1524 C1526 1.419 . S
C1525 C1520 1.425 . S
C1525 C1522 1.409 . S
C1525 C1523 1.415 . S
C1526 H1516 0.930 . S
C1526 C1524 1.419 . S
C1526 C1527 1.362 . S
C1527 H1517 0.930 . S
C1527 C1520 1.409 . S
C1527 C1526 1.362 . S
H1528 C1534 0.930 . S
H1529 C1537 0.930 . S
H1530 C1538 0.930 . S
H1531 C1539 0.930 . S
H1532 C1542 0.930 . S
H1533 C1543 0.930 . S
C1534 H1528 0.930 . S
C1534 C1535 1.355 . S
C1534 C1536 1.415 . S
C1535 C1534 1.355 . S
C1535 C1537 1.419 . S
C1536 C1534 1.415 . S
C1536 C1541 1.425 . S
C1536 C1543 1.409 . S
C1537 H1529 0.930 . S
C1537 C1535 1.419 . S
C1537 C1538 1.362 . S
C1538 H1530 0.930 . S
C1538 C1537 1.362 . S
C1538 C1541 1.409 . S
C1539 H1531 0.930 . S
C1539 C1540 1.355 . S
C1539 C1541 1.415 . S
C1540 C1539 1.355 . S
C1540 C1542 1.419 . S
C1541 C1536 1.425 . S
C1541 C1538 1.409 . S
C1541 C1539 1.415 . S
C1542 H1532 0.930 . S
C1542 C1540 1.419 . S
C1542 C1543 1.362 . S
C1543 H1533 0.930 . S
C1543 C1536 1.409 . S
C1543 C1542 1.362 . S
H1544 C1550 0.930 . S
H1545 C1553 0.930 . S
H1546 C1554 0.930 . S
H1547 C1555 0.930 . S
H1548 C1558 0.930 . S
H1549 C1559 0.930 . S
C1550 H1544 0.930 . S
C1550 C1551 1.355 . S
C1550 C1552 1.415 . S
C1551 C1550 1.355 . S
C1551 C1553 1.419 1_565 S
C1552 C1550 1.415 . S
C1552 C1557 1.425 1_565 S
C1552 C1559 1.409 . S
C1553 H1545 0.930 . S
C1553 C1551 1.419 1_545 S
C1553 C1554 1.362 . S
C1554 H1546 0.930 . S
C1554 C1553 1.362 . S
C1554 C1557 1.409 . S
C1555 H1547 0.930 . S
C1555 C1556 1.355 1_545 S
C1555 C1557 1.415 . S
C1556 C1555 1.355 1_565 S
C1556 C1558 1.419 . S
C1557 C1552 1.425 1_545 S
C1557 C1554 1.409 . S
C1557 C1555 1.415 . S
C1558 H1548 0.930 . S
C1558 C1556 1.419 . S
C1558 C1559 1.362 . S
C1559 H1549 0.930 . S
C1559 C1552 1.409 . S
C1559 C1558 1.362 . S
H1560 C1566 0.930 . S
H1561 C1569 0.930 . S
H1562 C1570 0.930 . S
H1563 C1571 0.930 . S
H1564 C1574 0.903 1_565 S
H1565 C1575 0.930 . S
C1566 H1560 0.930 . S
C1566 C1567 1.355 1_565 S
C1566 C1568 1.415 1_565 S
C1567 C1566 1.355 1_545 S
C1567 C1569 1.419 . S
C1568 C1566 1.415 1_545 S
C1568 C1573 1.425 . S
C1568 C1575 1.409 1_545 S
C1569 H1561 0.930 . S
C1569 C1567 1.419 . S
C1569 C1570 1.362 . S
C1570 H1562 0.930 . S
C1570 C1569 1.362 . S
C1570 C1573 1.409 . S
C1571 H1563 0.930 . S
C1571 C1572 1.355 . S
C1571 C1573 1.415 . S
C1572 C1571 1.355 . S
C1572 C1574 1.461 . S
C1573 C1568 1.425 . S
C1573 C1570 1.409 . S
C1573 C1571 1.415 . S
C1574 H1564 0.903 1_545 S
C1574 C1572 1.461 . S
C1574 C1575 1.348 1_545 S
C1575 H1565 0.930 . S
C1575 C1568 1.409 1_565 S
C1575 C1574 1.348 1_565 S
H1576 C1582 0.930 . S
H1577 C1585 0.930 . S
H1578 C1586 0.930 . S
H1579 C1587 0.930 . S
H1580 C1590 0.930 . S
H1581 C1591 0.930 . S
C1582 H1576 0.930 . S
C1582 C1583 1.355 . S
C1582 C1584 1.415 . S
C1583 C1582 1.355 . S
C1583 C1585 1.419 . S
C1584 C1582 1.415 . S
C1584 C1589 1.425 . S
C1584 C1591 1.409 . S
C1585 H1577 0.930 . S
C1585 C1583 1.419 . S
C1585 C1586 1.362 . S
C1586 H1578 0.930 . S
C1586 C1585 1.362 . S
C1586 C1589 1.409 . S
C1587 H1579 0.930 . S
C1587 C1588 1.355 . S
C1587 C1589 1.415 . S
C1588 C1587 1.355 . S
C1588 C1590 1.419 . S
C1589 C1584 1.425 . S
C1589 C1586 1.409 . S
C1589 C1587 1.415 . S
C1590 H1580 0.930 . S
C1590 C1588 1.419 . S
C1590 C1591 1.362 . S
C1591 H1581 0.930 . S
C1591 C1584 1.409 . S
C1591 C1590 1.362 . S
H1592 C1598 0.930 . S
H1593 C1601 0.930 . S
H1594 C1602 0.930 . S
H1595 C1603 0.930 1_556 S
H1596 C1606 0.930 . S
H1597 C1607 0.930 . S
C1598 H1592 0.930 . S
C1598 C1599 1.355 . S
C1598 C1600 1.415 . S
C1599 C1598 1.355 . S
C1599 C1601 1.419 1_554 S
C1600 C1598 1.415 . S
C1600 C1605 1.425 . S
C1600 C1607 1.409 . S
C1601 H1593 0.930 . S
C1601 C1599 1.419 1_556 S
C1601 C1602 1.362 . S
C1602 H1594 0.930 . S
C1602 C1601 1.362 . S
C1602 C1605 1.409 1_556 S
C1603 H1595 0.930 1_554 S
C1603 C1604 1.355 . S
C1603 C1605 1.415 . S
C1604 C1603 1.355 . S
C1604 C1606 1.419 . S
C1605 C1600 1.425 . S
C1605 C1602 1.409 1_554 S
C1605 C1603 1.415 . S
C1606 H1596 0.930 . S
C1606 C1604 1.419 . S
C1606 C1607 1.362 . S
C1607 H1597 0.930 . S
C1607 C1600 1.409 . S
C1607 C1606 1.362 . S
H1608 C1614 0.930 . S
H1609 C1617 0.930 . S
H1610 C1618 0.930 . S
H1611 C1619 0.930 . S
H1612 C1622 0.930 . S
H1613 C1623 0.930 . S
C1614 H1608 0.930 . S
C1614 C1615 1.355 . S
C1614 C1616 1.415 . S
C1615 C1614 1.355 . S
C1615 C1617 1.419 . S
C1616 C1614 1.415 . S
C1616 C1621 1.425 . S
C1616 C1623 1.409 . S
C1617 H1609 0.930 . S
C1617 C1615 1.419 . S
C1617 C1618 1.362 . S
C1618 H1610 0.930 . S
C1618 C1617 1.362 . S
C1618 C1621 1.409 . S
C1619 H1611 0.930 . S
C1619 C1620 1.355 . S
C1619 C1621 1.415 . S
C1620 C1619 1.355 . S
C1620 C1622 1.419 . S
C1621 C1616 1.425 . S
C1621 C1618 1.409 . S
C1621 C1619 1.415 . S
C1622 H1612 0.930 . S
C1622 C1620 1.419 . S
C1622 C1623 1.362 . S
C1623 H1613 0.930 . S
C1623 C1616 1.409 . S
C1623 C1622 1.362 . S
H1624 C1630 0.930 . S
H1625 C1633 0.930 . S
H1626 C1634 0.930 . S
H1627 C1635 0.930 . S
H1628 C1638 0.930 . S
H1629 C1639 0.930 . S
C1630 H1624 0.930 . S
C1630 C1631 1.355 1_554 S
C1630 C1632 1.415 . S
C1631 C1630 1.355 1_556 S
C1631 C1633 1.419 . S
C1632 C1630 1.415 . S
C1632 C1637 1.425 1_554 S
C1632 C1639 1.409 . S
C1633 H1625 0.930 . S
C1633 C1631 1.419 . S
C1633 C1634 1.362 . S
C1634 H1626 0.930 . S
C1634 C1633 1.362 . S
C1634 C1637 1.409 . S
C1635 H1627 0.930 . S
C1635 C1636 1.355 . S
C1635 C1637 1.415 . S
C1636 C1635 1.355 . S
C1636 C1638 1.419 1_556 S
C1637 C1632 1.425 1_556 S
C1637 C1634 1.409 . S
C1637 C1635 1.415 . S
C1638 H1628 0.930 . S
C1638 C1636 1.419 1_554 S
C1638 C1639 1.362 . S
C1639 H1629 0.930 . S
C1639 C1632 1.409 . S
C1639 C1638 1.362 . S
H1640 C1646 0.930 . S
H1641 C1649 0.930 . S
H1642 C1650 0.930 . S
H1643 C1651 0.930 . S
H1644 C1654 0.930 . S
H1645 C1655 0.930 . S
C1646 H1640 0.930 . S
C1646 C1647 1.355 . S
C1646 C1648 1.415 . S
C1647 C1646 1.355 . S
C1647 C1649 1.419 . S
C1648 C1646 1.415 . S
C1648 C1653 1.425 . S
C1648 C1655 1.409 . S
C1649 H1641 0.930 . S
C1649 C1647 1.419 . S
C1649 C1650 1.362 . S
C1650 H1642 0.930 . S
C1650 C1649 1.362 . S
C1650 C1653 1.409 . S
C1651 H1643 0.930 . S
C1651 C1652 1.355 . S
C1651 C1653 1.415 . S
C1652 C1651 1.355 . S
C1652 C1654 1.419 . S
C1653 C1648 1.425 . S
C1653 C1650 1.409 . S
C1653 C1651 1.415 . S
C1654 H1644 0.930 . S
C1654 C1652 1.419 . S
C1654 C1655 1.362 . S
C1655 H1645 0.930 . S
C1655 C1648 1.409 . S
C1655 C1654 1.362 . S
H1656 C1662 0.930 . S
H1657 C1665 0.930 . S
H1658 C1666 0.930 . S
H1659 C1667 0.930 . S
H1660 C1670 0.930 . S
H1661 C1671 0.930 . S
C1662 H1656 0.930 . S
C1662 C1663 1.355 . S
C1662 C1664 1.415 . S
C1663 C1662 1.355 . S
C1663 C1665 1.419 . S
C1664 C1662 1.415 . S
C1664 C1669 1.425 . S
C1664 C1671 1.409 . S
C1665 H1657 0.930 . S
C1665 C1663 1.419 . S
C1665 C1666 1.362 . S
C1666 H1658 0.930 . S
C1666 C1665 1.362 . S
C1666 C1669 1.409 . S
C1667 H1659 0.930 . S
C1667 C1668 1.355 . S
C1667 C1669 1.415 . S
C1668 C1667 1.355 . S
C1668 C1670 1.419 . S
C1669 C1664 1.425 . S
C1669 C1666 1.409 . S
C1669 C1667 1.415 . S
C1670 H1660 0.930 . S
C1670 C1668 1.419 . S
C1670 C1671 1.362 . S
C1671 H1661 0.930 . S
C1671 C1664 1.409 . S
C1671 C1670 1.362 . S
H1672 C1678 0.930 . S
H1673 C1681 0.930 . S
H1674 C1682 0.930 . S
H1675 C1683 0.930 . S
H1676 C1686 0.930 . S
H1677 C1687 0.930 . S
C1678 H1672 0.930 . S
C1678 C1679 1.355 . S
C1678 C1680 1.415 . S
C1679 C1678 1.355 . S
C1679 C1681 1.419 . S
C1680 C1678 1.415 . S
C1680 C1685 1.425 . S
C1680 C1687 1.409 . S
C1681 H1673 0.930 . S
C1681 C1679 1.419 . S
C1681 C1682 1.362 . S
C1682 H1674 0.930 . S
C1682 C1681 1.362 . S
C1682 C1685 1.409 . S
C1683 H1675 0.930 . S
C1683 C1684 1.355 . S
C1683 C1685 1.415 . S
C1684 C1683 1.355 . S
C1684 C1686 1.419 . S
C1685 C1680 1.425 . S
C1685 C1682 1.409 . S
C1685 C1683 1.415 . S
C1686 H1676 0.930 . S
C1686 C1684 1.419 . S
C1686 C1687 1.362 . S
C1687 H1677 0.930 . S
C1687 C1680 1.409 . S
C1687 C1686 1.362 . S
H1688 C1694 0.930 . S
H1689 C1697 0.930 . S
H1690 C1698 0.930 . S
H1691 C1699 0.930 . S
H1692 C1702 0.930 . S
H1693 C1703 0.930 . S
C1694 H1688 0.930 . S
C1694 C1695 1.355 . S
C1694 C1696 1.415 . S
C1695 C1694 1.355 . S
C1695 C1697 1.419 1_655 S
C1696 C1694 1.415 . S
C1696 C1701 1.416 1_655 S
C1696 C1703 1.409 . S
C1697 H1689 0.930 . S
C1697 C1695 1.419 1_455 S
C1697 C1698 1.362 . S
C1698 H1690 0.930 . S
C1698 C1697 1.362 . S
C1698 C1701 1.417 . S
C1699 H1691 0.930 . S
C1699 C1700 1.355 1_455 S
C1699 C1701 1.416 . S
C1700 C1699 1.355 1_655 S
C1700 C1702 1.419 . S
C1701 C1696 1.416 1_455 S
C1701 C1698 1.417 . S
C1701 C1699 1.416 . S
C1702 H1692 0.930 . S
C1702 C1700 1.419 . S
C1702 C1703 1.362 . S
C1703 H1693 0.930 . S
C1703 C1696 1.409 . S
C1703 C1702 1.362 . S
C564 C546 1.535 . S
C559 C8 1.575 . S
C580 C510 1.511 . S
C575 C19 1.491 . S
C596 C534 1.280 . S
C591 C30 1.309 . S
C612 C522 1.587 1_655 S
C607 C41 1.545 1_565 S
C628 C438 1.575 . S
C623 C52 1.554 . S
C639 C63 1.587 1_556 S
C644 C450 1.579 1_565 S
C660 C414 1.521 . S
C655 C74 1.461 . S
C671 C85 1.283 . S
C676 C426 1.245 . S
C692 C498 1.535 . S
C687 C96 1.575 . S
C703 C107 1.562 1_655 S
C708 C474 1.577 1_556 S
C719 C118 1.507 . S
C724 C462 1.498 . S
C740 C486 1.290 . S
C735 C129 1.281 . S
C756 C402 1.576 . S
C751 C140 1.504 . S
C767 C151 1.434 . S
C772 C366 1.483 . S
C788 C390 1.279 . S
C783 C162 1.241 . S
C799 C173 1.560 . S
C804 C378 1.569 1_455 S
C820 C294 1.541 . S
C815 C184 1.563 . S
C836 C306 1.574 1_545 S
C831 C195 1.504 . S
C847 C206 1.386 . S
C852 C270 1.506 . S
C863 C217 1.238 . S
C868 C282 1.289 . S
C879 C228 1.549 . S
C884 C354 1.557 . S
C895 C239 1.560 . S
C900 C330 1.586 1_554 S
C916 C318 1.519 . S
C911 C250 1.380 . S
C927 C261 1.277 . S
C932 C342 1.245 . S
C948 C273 1.436 . S
C943 C7 1.439 . S
C964 C285 1.403 . S
C959 C18 1.414 . S
C975 C29 1.319 . S
C980 C297 1.316 . S
C991 C40 1.201 1_565 S
C996 C309 1.233 . S
C1012 C321 1.411 . S
C1007 C51 1.476 . S
C1023 C62 1.203 1_556 S
C1028 C333 1.234 . S
C1044 C345 1.341 . S
C1039 C73 1.434 . S
C1060 C357 1.337 . S
C1055 C84 1.302 . S
C1076 C369 1.401 . S
C1071 C95 1.467 . S
C1087 C106 1.203 1_655 S
C1092 C381 1.234 . S
C1103 C117 1.444 . S
C1108 C393 1.345 . S
C1119 C128 1.302 . S
C1124 C405 1.346 . S
C1135 C139 1.413 . S
C1140 C417 1.417 . S
C1151 C150 1.304 . S
C1156 C429 1.414 . S
C1167 C161 1.248 . S
C1172 C441 1.335 . S
C1183 C172 1.142 . S
C1188 C453 1.230 . S
C1199 C183 1.434 . S
C1204 C465 1.456 . S
C1220 C477 1.227 . S
C1215 C194 1.135 . S
C1236 C489 1.416 . S
C1231 C205 1.374 . S
C1252 C501 1.341 . S
C1247 C216 1.324 . S
C1268 C513 1.440 . S
C1263 C227 1.363 . S
C1279 C238 1.173 . S
C1284 C525 1.212 . S
C1295 C249 1.252 . S
C1300 C537 1.358 . S
C1311 C260 1.316 . S
C1316 C549 1.349 . S
C1327 C5 1.387 . S
C1332 C364 1.524 . S
C1348 C400 1.562 . S
C1343 C16 1.462 . S
C1359 C27 1.234 1_545 S
C1364 C376 1.376 . S
C1380 C388 1.571 . S
C1375 C38 1.344 1_565 S
C1391 C49 1.306 . S
C1396 C268 1.492 . S
C1407 C60 1.337 1_556 S
C1412 C280 1.564 . S
C1423 C71 1.426 . S
C1428 C292 1.550 . S
C1439 C82 1.269 1_554 S
C1444 C304 1.394 . S
C1460 C316 1.523 . S
C1455 C93 1.403 . S
C1476 C340 1.566 . S
C1471 C104 1.335 1_655 S
C1487 C115 1.367 . S
C1492 C352 1.514 . S
C1503 C126 1.318 1_455 S
C1508 C328 1.422 . S
C1524 C508 1.481 . S
C1519 C137 1.316 . S
C1540 C544 1.564 . S
C1535 C148 1.155 . S
C1551 C159 1.259 . S
C1556 C520 1.370 . S
C1572 C532 1.611 . S
C1567 C170 1.146 . S
C1583 C181 1.168 . S
C1588 C412 1.531 . S
C1599 C192 1.295 . S
C1604 C424 1.591 . S
C1615 C203 1.287 . S
C1620 C436 1.509 . S
C1636 C448 1.440 . S
C1631 C214 1.130 . S
C1652 C460 1.531 . S
C1647 C225 1.165 . S
C1668 C484 1.611 . S
C1663 C236 1.225 . S
C1679 C247 1.292 . S
C1684 C496 1.509 . S
C1700 C472 1.399 . S
C1695 C258 1.277 . S
