# Generated by pormake.
# Topology pyr, (3,6)-cn, num edge types: 1
# Building blocks:
#     Node 0, Type 0, BuildingBlock: BELTOD_clean_linker_0, # of connection points: 3
#     Node 1, Type 0, BuildingBlock: BELTOD_clean_linker_0, # of connection points: 3
#     Node 2, Type 0, BuildingBlock: BELTOD_clean_linker_0, # of connection points: 3
#     Node 3, Type 0, BuildingBlock: BELTOD_clean_linker_0, # of connection points: 3
#     Node 4, Type 0, BuildingBlock: BELTOD_clean_linker_0, # of connection points: 3
#     Node 5, Type 0, BuildingBlock: BELTOD_clean_linker_0, # of connection points: 3
#     Node 6, Type 0, BuildingBlock: BELTOD_clean_linker_0, # of connection points: 3
#     Node 7, Type 0, BuildingBlock: BELTOD_clean_linker_0, # of connection points: 3
#     Node 8, Type 1, BuildingBlock: MIFKUJ_clean_sbu_0, # of connection points: 6
#     Node 9, Type 1, BuildingBlock: MIFKUJ_clean_sbu_0, # of connection points: 6
#     Node 10, Type 1, BuildingBlock: MIFKUJ_clean_sbu_0, # of connection points: 6
#     Node 11, Type 1, BuildingBlock: MIFKUJ_clean_sbu_0, # of connection points: 6
#     Edge 12, Type (0, 1), BuildingBlock: EZIPEK_clean_linker_0, # of connection points: 2
#     Edge 13, Type (0, 1), BuildingBlock: EZIPEK_clean_linker_0, # of connection points: 2
#     Edge 14, Type (0, 1), BuildingBlock: EZIPEK_clean_linker_0, # of connection points: 2
#     Edge 15, Type (0, 1), BuildingBlock: EZIPEK_clean_linker_0, # of connection points: 2
#     Edge 16, Type (0, 1), BuildingBlock: EZIPEK_clean_linker_0, # of connection points: 2
#     Edge 17, Type (0, 1), BuildingBlock: EZIPEK_clean_linker_0, # of connection points: 2
#     Edge 18, Type (0, 1), BuildingBlock: EZIPEK_clean_linker_0, # of connection points: 2
#     Edge 19, Type (0, 1), BuildingBlock: EZIPEK_clean_linker_0, # of connection points: 2
#     Edge 20, Type (0, 1), BuildingBlock: EZIPEK_clean_linker_0, # of connection points: 2
#     Edge 21, Type (0, 1), BuildingBlock: EZIPEK_clean_linker_0, # of connection points: 2
#     Edge 22, Type (0, 1), BuildingBlock: EZIPEK_clean_linker_0, # of connection points: 2
#     Edge 23, Type (0, 1), BuildingBlock: EZIPEK_clean_linker_0, # of connection points: 2
#     Edge 24, Type (0, 1), BuildingBlock: EZIPEK_clean_linker_0, # of connection points: 2
#     Edge 25, Type (0, 1), BuildingBlock: EZIPEK_clean_linker_0, # of connection points: 2
#     Edge 26, Type (0, 1), BuildingBlock: EZIPEK_clean_linker_0, # of connection points: 2
#     Edge 27, Type (0, 1), BuildingBlock: EZIPEK_clean_linker_0, # of connection points: 2
#     Edge 28, Type (0, 1), BuildingBlock: EZIPEK_clean_linker_0, # of connection points: 2
#     Edge 29, Type (0, 1), BuildingBlock: EZIPEK_clean_linker_0, # of connection points: 2
#     Edge 30, Type (0, 1), BuildingBlock: EZIPEK_clean_linker_0, # of connection points: 2
#     Edge 31, Type (0, 1), BuildingBlock: EZIPEK_clean_linker_0, # of connection points: 2
#     Edge 32, Type (0, 1), BuildingBlock: EZIPEK_clean_linker_0, # of connection points: 2
#     Edge 33, Type (0, 1), BuildingBlock: EZIPEK_clean_linker_0, # of connection points: 2
#     Edge 34, Type (0, 1), BuildingBlock: EZIPEK_clean_linker_0, # of connection points: 2
#     Edge 35, Type (0, 1), BuildingBlock: EZIPEK_clean_linker_0, # of connection points: 2
# Relax obj value: 0.036
# Max RMSD: 0.090
# Mean RMSD: 0.054
data_MOF--net-pyr--node1-MIFKUJ_clean_sbu_0--node2-BELTOD_clean_linker_0--edge1-EZIPEK_clean_linker_0
_symmetry_space_group_name_H-M    P1
_symmetry_Int_Tables_number       1
_symmetry_cell_setting            triclinic
loop_
_symmetry_equiv_pos_as_xyz
'x, y, z'
_cell_length_a     34.711939
_cell_length_b     31.410704
_cell_length_c     32.730283
_cell_angle_alpha  85.091149
_cell_angle_beta   87.623022
_cell_angle_gamma 96.81163
loop_
_atom_site_label
_atom_site_type_symbol
_atom_site_fract_x
_atom_site_fract_y
_atom_site_fract_z
_atom_type_partial_charge
P0 P 0.24662 0.22994 0.26502 0.0
H1 H 0.32826 0.24298 0.23614 0.0
H2 H 0.36744 0.20147 0.19394 0.0
H3 H 0.26641 0.11036 0.18136 0.0
H4 H 0.2271 0.15194 0.22351 0.0
H5 H 0.18845 0.28383 0.28724 0.0
H6 H 0.14435 0.32336 0.24675 0.0
H7 H 0.20375 0.29652 0.1351 0.0
H8 H 0.24624 0.25434 0.17565 0.0
H9 H 0.25509 0.17748 0.34159 0.0
H10 H 0.16353 0.19972 0.25993 0.0
O11 O 0.27572 0.25928 0.29409 0.0
H12 H 0.20781 0.13045 0.38863 0.0
H13 H 0.1164 0.1554 0.30791 0.0
C14 C 0.27508 0.19987 0.23366 0.0
C15 C 0.31454 0.21406 0.22439 0.0
C16 C 0.3368 0.1906 0.20021 0.0
C17 C 0.31971 0.15293 0.18478 0.0
C18 C 0.27997 0.13938 0.19312 0.0
C19 C 0.25772 0.16289 0.2173 0.0
C20 C 0.22007 0.26555 0.23447 0.0
C21 C 0.19211 0.28658 0.25405 0.0
C22 C 0.16693 0.309 0.23099 0.0
C23 C 0.17054 0.31248 0.18792 0.0
C24 C 0.20025 0.29377 0.16831 0.0
C25 C 0.2246 0.26994 0.19147 0.0
C26 C 0.21261 0.1934 0.29808 0.0
C27 C 0.22491 0.17264 0.33399 0.0
C28 C 0.19807 0.14597 0.36074 0.0
C29 C 0.15864 0.14041 0.35198 0.0
C30 C 0.14664 0.16003 0.31541 0.0
C31 C 0.17357 0.1856 0.28823 0.0
P32 P 0.36731 0.88608 0.66067 0.0
H33 H 0.42318 0.95185 0.69015 0.0
H34 H 0.44203 0.96754 0.75892 0.0
H35 H 0.35723 0.86405 0.8121 0.0
H36 H 0.337 0.84942 0.74304 0.0
H37 H 0.42037 0.86322 0.59677 0.0
H38 H 0.43651 0.79396 0.57663 0.0
H39 H 0.36347 0.72804 0.67793 0.0
H40 H 0.3469 0.79742 0.69804 0.0
H41 H 0.31181 0.93905 0.69177 0.0
H42 H 0.31106 0.83383 0.61493 0.0
O43 O 0.38927 0.92502 0.62674 0.0
H44 H 0.24489 0.94723 0.67505 0.0
H45 H 0.24383 0.84199 0.59858 0.0
C46 C 0.37927 0.89885 0.71148 0.0
C47 C 0.40815 0.93286 0.71647 0.0
C48 C 0.41868 0.94211 0.75568 0.0
C49 C 0.40088 0.91704 0.79042 0.0
C50 C 0.37103 0.8839 0.78559 0.0
C51 C 0.36003 0.87512 0.74624 0.0
C52 C 0.38279 0.83555 0.64926 0.0
C53 C 0.40823 0.83406 0.61514 0.0
C54 C 0.41742 0.7946 0.60356 0.0
C55 C 0.40124 0.75613 0.62592 0.0
C56 C 0.37637 0.75754 0.66053 0.0
C57 C 0.36715 0.7971 0.67211 0.0
C58 C 0.31613 0.88538 0.65521 0.0
C59 C 0.29689 0.91683 0.67243 0.0
C60 C 0.2588 0.92151 0.66295 0.0
C61 C 0.23966 0.89496 0.63594 0.0
C62 C 0.2582 0.86227 0.61994 0.0
C63 C 0.29648 0.85772 0.62931 0.0
P64 P 0.69665 0.31117 0.77773 0.0
H65 H 0.77543 0.29833 0.79847 0.0
H66 H 0.82205 0.33457 0.84194 0.0
H67 H 0.73905 0.41995 0.87297 0.0
H68 H 0.69241 0.38446 0.82815 0.0
H69 H 0.6735 0.2187 0.77608 0.0
H70 H 0.63369 0.16508 0.82358 0.0
H71 H 0.60666 0.2649 0.8987 0.0
H72 H 0.6473 0.31872 0.8517 0.0
H73 H 0.70747 0.33945 0.69024 0.0
H74 H 0.63171 0.36234 0.79187 0.0
O75 O 0.72203 0.2833 0.74734 0.0
H76 H 0.67158 0.38307 0.64344 0.0
H77 H 0.59636 0.40701 0.74488 0.0
C78 C 0.73068 0.33925 0.80929 0.0
C79 C 0.76718 0.32509 0.81417 0.0
C80 C 0.79372 0.34548 0.83925 0.0
C81 C 0.78397 0.3799 0.86049 0.0
C82 C 0.74701 0.39341 0.85672 0.0
C83 C 0.72057 0.37332 0.83101 0.0
C84 C 0.66355 0.27286 0.81029 0.0
C85 C 0.65889 0.22934 0.80252 0.0
C86 C 0.63614 0.19867 0.82957 0.0
C87 C 0.61741 0.21109 0.86462 0.0
C88 C 0.62098 0.25478 0.87179 0.0
C89 C 0.64407 0.28545 0.84487 0.0
C90 C 0.67196 0.34694 0.74462 0.0
C91 C 0.68336 0.35406 0.70267 0.0
C92 C 0.66303 0.37915 0.67589 0.0
C93 C 0.63124 0.39809 0.69066 0.0
C94 C 0.62079 0.39256 0.73291 0.0
C95 C 0.64094 0.367 0.75969 0.0
P96 P 0.80853 0.70525 0.24495 0.0
H97 H 0.82661 0.79842 0.24602 0.0
H98 H 0.86095 0.84233 0.29443 0.0
H99 H 0.8947 0.72806 0.35877 0.0
H100 H 0.85939 0.68372 0.31079 0.0
H101 H 0.83348 0.7129 0.15813 0.0
H102 H 0.87085 0.6693 0.11658 0.0
H103 H 0.88314 0.58348 0.22404 0.0
H104 H 0.84636 0.62757 0.26594 0.0
H105 H 0.75999 0.73248 0.30955 0.0
H106 H 0.77468 0.61341 0.25739 0.0
O107 O 0.78588 0.73711 0.21304 0.0
H108 H 0.70989 0.69391 0.35884 0.0
H109 H 0.726 0.57476 0.30789 0.0
C110 C 0.84051 0.73781 0.27479 0.0
C111 C 0.8419 0.78271 0.27 0.0
C112 C 0.86142 0.80778 0.29763 0.0
C113 C 0.87982 0.78825 0.33034 0.0
C114 C 0.88044 0.74353 0.33376 0.0
C115 C 0.86053 0.71837 0.30628 0.0
C116 C 0.83619 0.67281 0.21497 0.0
C117 C 0.84399 0.68463 0.17285 0.0
C118 C 0.86537 0.65989 0.14912 0.0
C119 C 0.87924 0.62296 0.16722 0.0
C120 C 0.87229 0.61168 0.20954 0.0
C121 C 0.85129 0.63678 0.23336 0.0
C122 C 0.77193 0.67566 0.28053 0.0
C123 C 0.75286 0.69801 0.30902 0.0
C124 C 0.72437 0.67614 0.33713 0.0
C125 C 0.71488 0.63147 0.33739 0.0
C126 C 0.7335 0.60917 0.30851 0.0
C127 C 0.76149 0.63122 0.27988 0.0
P128 P 0.83059 0.85988 0.81774 0.0
H129 H 0.79731 0.85893 0.90003 0.0
H130 H 0.7353 0.87789 0.92676 0.0
H131 H 0.69461 0.88806 0.80404 0.0
H132 H 0.75695 0.86958 0.77699 0.0
H133 H 0.90151 0.82661 0.79437 0.0
H134 H 0.92891 0.76067 0.81704 0.0
H135 H 0.82262 0.71364 0.88796 0.0
H136 H 0.79494 0.77949 0.86514 0.0
H137 H 0.8748 0.93516 0.77297 0.0
H138 H 0.80507 0.81953 0.74412 0.0
O139 O 0.85954 0.89355 0.84314 0.0
H140 H 0.89519 0.95182 0.70074 0.0
H141 H 0.82447 0.83744 0.67067 0.0
C142 C 0.78188 0.86338 0.83657 0.0
C143 C 0.77479 0.86428 0.87891 0.0
C144 C 0.7395 0.87499 0.89417 0.0
C145 C 0.7108 0.88464 0.86725 0.0
C146 C 0.71663 0.88065 0.82513 0.0
C147 C 0.7522 0.87018 0.80978 0.0
C148 C 0.84626 0.80786 0.82808 0.0
C149 C 0.8837 0.80167 0.81398 0.0
C150 C 0.89936 0.76421 0.82684 0.0
C151 C 0.87771 0.73264 0.8541 0.0
C152 C 0.83956 0.73783 0.86678 0.0
C153 C 0.82387 0.77538 0.85383 0.0
C154 C 0.83876 0.8759 0.76384 0.0
C155 C 0.86322 0.91376 0.75103 0.0
C156 C 0.8748 0.92335 0.70978 0.0
C157 C 0.86177 0.89548 0.68063 0.0
C158 C 0.83505 0.85904 0.69293 0.0
C159 C 0.82401 0.84895 0.7346 0.0
P160 P 0.71725 0.21785 0.28105 0.0
H161 H 0.7161 0.30942 0.2912 0.0
H162 H 0.67559 0.34763 0.33512 0.0
H163 H 0.61066 0.2268 0.38296 0.0
H164 H 0.65105 0.18842 0.33879 0.0
H165 H 0.76861 0.15545 0.26113 0.0
H166 H 0.81111 0.11388 0.30244 0.0
H167 H 0.77272 0.16886 0.411 0.0
H168 H 0.73071 0.21099 0.36983 0.0
H169 H 0.6913 0.23338 0.1984 0.0
H170 H 0.67572 0.1304 0.29593 0.0
O171 O 0.74756 0.25315 0.25045 0.0
H172 H 0.64618 0.19114 0.15739 0.0
H173 H 0.63013 0.08815 0.25475 0.0
C174 C 0.68636 0.24613 0.31161 0.0
C175 C 0.69296 0.2911 0.31078 0.0
C176 C 0.66992 0.3129 0.33577 0.0
C177 C 0.64017 0.28992 0.36199 0.0
C178 C 0.63336 0.24495 0.36264 0.0
C179 C 0.65632 0.22318 0.33748 0.0
C180 C 0.74613 0.18576 0.31245 0.0
C181 C 0.76907 0.15828 0.29386 0.0
C182 C 0.79323 0.13467 0.31731 0.0
C183 C 0.79468 0.13832 0.35961 0.0
C184 C 0.7716 0.16558 0.37838 0.0
C185 C 0.7476 0.18945 0.35484 0.0
C186 C 0.68724 0.18471 0.24985 0.0
C187 C 0.67868 0.20144 0.2107 0.0
C188 C 0.65298 0.17744 0.18735 0.0
C189 C 0.63525 0.13655 0.20302 0.0
C190 C 0.64398 0.11949 0.2421 0.0
C191 C 0.66986 0.14356 0.26547 0.0
P192 P 0.36665 0.6393 0.17751 0.0
H193 H 0.33262 0.65016 0.09875 0.0
H194 H 0.26736 0.63083 0.07503 0.0
H195 H 0.22858 0.57622 0.19729 0.0
H196 H 0.29382 0.59705 0.22152 0.0
H197 H 0.43918 0.69258 0.18887 0.0
H198 H 0.46321 0.76747 0.16432 0.0
H199 H 0.34952 0.78604 0.12287 0.0
H200 H 0.32492 0.71277 0.14989 0.0
H201 H 0.39374 0.55927 0.20925 0.0
H202 H 0.35919 0.67288 0.2585 0.0
O203 O 0.39595 0.61798 0.14534 0.0
H204 H 0.41483 0.53439 0.27674 0.0
H205 H 0.38013 0.64758 0.32649 0.0
C206 C 0.318 0.62506 0.16186 0.0
C207 C 0.31002 0.63434 0.12059 0.0
C208 C 0.27286 0.62347 0.10705 0.0
C209 C 0.2433 0.60204 0.13438 0.0
C210 C 0.25111 0.59286 0.17582 0.0
C211 C 0.28828 0.60455 0.18957 0.0
C212 C 0.38056 0.69665 0.17025 0.0
C213 C 0.41913 0.71322 0.17575 0.0
C214 C 0.43285 0.75582 0.16166 0.0
C215 C 0.40834 0.78193 0.14092 0.0
C216 C 0.36903 0.76628 0.13833 0.0
C217 C 0.3551 0.72414 0.15344 0.0
C218 C 0.37554 0.61826 0.22877 0.0
C219 C 0.39018 0.57858 0.23469 0.0
C220 C 0.40218 0.56432 0.27315 0.0
C221 C 0.39935 0.58936 0.30635 0.0
C222 C 0.38268 0.62798 0.30108 0.0
C223 C 0.37077 0.64234 0.26241 0.0
P224 P 0.20747 0.2973 0.7757 0.0
H225 H 0.20574 0.20574 0.76556 0.0
H226 H 0.17115 0.15927 0.71936 0.0
H227 H 0.10828 0.26338 0.67629 0.0
H228 H 0.14163 0.3095 0.7241 0.0
H229 H 0.28363 0.34235 0.7882 0.0
H230 H 0.33388 0.38453 0.74134 0.0
H231 H 0.26001 0.36694 0.63997 0.0
H232 H 0.20986 0.3249 0.6864 0.0
H233 H 0.17725 0.28583 0.86062 0.0
H234 H 0.17334 0.37747 0.75533 0.0
O235 O 0.23172 0.26803 0.80837 0.0
H236 H 0.13681 0.32707 0.90125 0.0
H237 H 0.13176 0.41836 0.79599 0.0
C238 C 0.17639 0.26114 0.74812 0.0
C239 C 0.18372 0.21832 0.74718 0.0
C240 C 0.16402 0.19179 0.72081 0.0
C241 C 0.13743 0.20806 0.69429 0.0
C242 C 0.12861 0.25026 0.69667 0.0
C243 C 0.14766 0.2765 0.72388 0.0
C244 C 0.24304 0.33005 0.74095 0.0
C245 C 0.27818 0.34751 0.75592 0.0
C246 C 0.30686 0.37137 0.72925 0.0
C247 C 0.30069 0.37828 0.68726 0.0
C248 C 0.26536 0.36145 0.67226 0.0
C249 C 0.23666 0.33757 0.69895 0.0
C250 C 0.17881 0.32904 0.80519 0.0
C251 C 0.16792 0.31497 0.8463 0.0
C252 C 0.14474 0.33836 0.86946 0.0
C253 C 0.13152 0.37581 0.85166 0.0
C254 C 0.14193 0.38965 0.81028 0.0
C255 C 0.16559 0.36642 0.78718 0.0
Zn256 Zn 0.04624 0.01016 0.55578 0.0
Zn257 Zn 0.95991 0.99304 0.46903 0.0
C258 C 0.08549 0.09215 0.57454 0.0
O259 O 0.09966 0.09451 0.5365 0.0
C260 C 0.92079 0.91798 0.43841 0.0
O261 O 0.88985 0.93318 0.45285 0.0
O262 O 0.08849 0.97271 0.55908 0.0
O263 O 0.99825 0.97617 0.58494 0.0
O264 O 0.97626 0.98484 0.52483 0.0
C265 C 0.0982 0.96126 0.59493 0.0
O266 O 0.0787 0.97201 0.62694 0.0
O267 O 0.06167 0.05991 0.58845 0.0
C268 C 0.90512 0.03455 0.42738 0.0
O269 O 0.92641 0.02279 0.39719 0.0
O270 O 0.91319 0.02469 0.46417 0.0
O271 O 0.00509 0.03028 0.4398 0.0
O272 O 0.04022 0.02967 0.49479 0.0
O273 O 0.95417 0.93703 0.44389 0.0
C274 C 0.97044 0.96978 0.56168 0.0
C275 C 0.03638 0.04169 0.45708 0.0
Zn276 Zn 0.52951 0.98367 0.99671 0.0
Zn277 Zn 0.47461 0.03534 0.0358 0.0
C278 C 0.47563 0.94103 0.9426 0.0
O279 O 0.4857 0.9063 0.96226 0.0
C280 C 0.52829 0.07725 0.08538 0.0
O281 O 0.5188 0.10979 0.06153 0.0
O282 O 0.57216 0.95066 0.97818 0.0
O283 O 0.5546 0.04486 0.99181 0.0
O284 O 0.49874 0.07002 0.98376 0.0
C285 C 0.58647 0.96266 0.94212 0.0
O286 O 0.57338 0.99498 0.92105 0.0
O287 O 0.48924 0.97786 0.95272 0.0
C288 C 0.41846 0.05306 0.09454 0.0
O289 O 0.42822 0.01672 0.11142 0.0
O290 O 0.43329 0.06757 0.05918 0.0
O291 O 0.45185 0.97252 0.03396 0.0
O292 O 0.50785 0.95565 0.05229 0.0
O293 O 0.51368 0.03932 0.0797 0.0
C294 C 0.53538 0.07377 0.97672 0.0
C295 C 0.47141 0.94567 0.0522 0.0
Zn296 Zn 0.52987 0.47465 0.47795 0.0
Zn297 Zn 0.48424 0.53474 0.5409 0.0
C298 C 0.60334 0.51962 0.44472 0.0
O299 O 0.61339 0.48056 0.44788 0.0
C300 C 0.43053 0.48212 0.59843 0.0
O301 O 0.45335 0.50153 0.62395 0.0
O302 O 0.54616 0.42598 0.44723 0.0
O303 O 0.53354 0.45592 0.53812 0.0
O304 O 0.53369 0.51774 0.56559 0.0
C305 C 0.55584 0.39147 0.46487 0.0
O306 O 0.55208 0.38417 0.50502 0.0
O307 O 0.56995 0.52601 0.45879 0.0
C308 C 0.43892 0.5987 0.56295 0.0
O309 O 0.41299 0.57372 0.54498 0.0
O310 O 0.47311 0.58843 0.56568 0.0
O311 O 0.48142 0.55179 0.48045 0.0
O312 O 0.47905 0.48838 0.45578 0.0
O313 O 0.43833 0.48978 0.55998 0.0
C314 C 0.5434 0.47995 0.56611 0.0
C315 C 0.4716 0.52714 0.45289 0.0
Zn316 Zn 0.97183 0.51875 0.96912 0.0
Zn317 Zn 0.03316 0.476 0.05343 0.0
C318 C 0.91801 0.4495 0.94143 0.0
O319 O 0.94974 0.43776 0.92498 0.0
C320 C 0.0922 0.53092 0.09018 0.0
O321 O 0.0755 0.51005 0.12383 0.0
O322 O 0.96829 0.57047 0.92947 0.0
O323 O 0.97112 0.54396 0.02406 0.0
O324 O 0.98085 0.49259 0.0721 0.0
C325 C 0.93613 0.58564 0.93327 0.0
O326 O 0.90999 0.56758 0.9616 0.0
O327 O 0.9206 0.48117 0.96329 0.0
C328 C 0.0743 0.4092 0.08755 0.0
O329 O 0.09332 0.41788 0.05172 0.0
O330 O 0.04548 0.4291 0.09553 0.0
O331 O 0.04196 0.45292 0.99887 0.0
O332 O 0.0157 0.48876 0.94768 0.0
O333 O 0.07698 0.52524 0.05604 0.0
C334 C 0.9663 0.52666 0.0607 0.0
C335 C 0.03771 0.46172 0.96092 0.0
C336 C 0.1146 0.13196 0.41562 0.0
C337 C 0.12947 0.1139 0.38083 0.0
C338 C 0.0866 0.04668 0.39942 0.0
C339 C 0.06931 0.06618 0.43194 0.0
N340 N 0.0616 0.12949 0.4667 0.0
N341 N 0.12718 0.05623 0.33646 0.0
C342 C 0.08204 0.10932 0.43913 0.0
C343 C 0.11473 0.07185 0.3718 0.0
N344 N 0.13153 0.17076 0.42618 0.0
N345 N 0.07705 0.00368 0.39579 0.0
H346 H 0.14954 0.07247 0.31672 0.0
H347 H 0.11381 0.02841 0.32532 0.0
H348 H 0.05684 0.98401 0.41568 0.0
H349 H 0.09144 0.98656 0.37536 0.0
H350 H 0.12505 0.18298 0.45391 0.0
H351 H 0.15416 0.18945 0.40864 0.0
H352 H 0.06678 0.16231 0.47004 0.0
H353 H 0.03744 0.114 0.48435 0.0
C354 C 0.45537 0.90893 0.83619 0.0
C355 C 0.41799 0.92159 0.8308 0.0
C356 C 0.41674 0.9451 0.90045 0.0
C357 C 0.45588 0.93689 0.90365 0.0
N358 N 0.51498 0.91973 0.87096 0.0
N359 N 0.36377 0.95519 0.85566 0.0
C360 C 0.47587 0.92123 0.8705 0.0
C361 C 0.39869 0.94057 0.86241 0.0
N362 N 0.47091 0.88399 0.80906 0.0
N363 N 0.39661 0.95598 0.93399 0.0
H364 H 0.34964 0.95174 0.82841 0.0
H365 H 0.35003 0.97316 0.87584 0.0
H366 H 0.4093 0.9603 0.96192 0.0
H367 H 0.36684 0.95782 0.93505 0.0
H368 H 0.49632 0.8701 0.81396 0.0
H369 H 0.45646 0.87341 0.78379 0.0
H370 H 0.53183 0.91317 0.84571 0.0
H371 H 0.5312 0.92959 0.89511 0.0
C372 C 0.62355 0.46138 0.64002 0.0
C373 C 0.60762 0.42141 0.66123 0.0
C374 C 0.54713 0.4252 0.62572 0.0
C375 C 0.56471 0.46219 0.60087 0.0
N376 N 0.62149 0.51282 0.58067 0.0
N377 N 0.5565 0.36159 0.66946 0.0
C378 C 0.60338 0.47982 0.60719 0.0
C379 C 0.56992 0.40239 0.65294 0.0
N380 N 0.6576 0.4821 0.65183 0.0
N381 N 0.50826 0.41245 0.62407 0.0
H382 H 0.57236 0.34334 0.68913 0.0
H383 H 0.53114 0.3443 0.66078 0.0
H384 H 0.49067 0.42873 0.6048 0.0
H385 H 0.49283 0.38863 0.64455 0.0
H386 H 0.66879 0.51325 0.64037 0.0
H387 H 0.67301 0.46957 0.67581 0.0
H388 H 0.65102 0.52366 0.5807 0.0
H389 H 0.60767 0.52729 0.55644 0.0
C390 C 0.88123 0.5713 0.11283 0.0
C391 C 0.90101 0.59604 0.14162 0.0
C392 C 0.96163 0.56814 0.12281 0.0
C393 C 0.94307 0.5475 0.09068 0.0
N394 N 0.88547 0.53022 0.05368 0.0
N395 N 0.96101 0.62322 0.17016 0.0
C396 C 0.9029 0.54941 0.08523 0.0
C397 C 0.94142 0.5956 0.14585 0.0
N398 N 0.84155 0.56743 0.11299 0.0
N399 N -0.00135 0.56155 0.13144 0.0
H400 H 0.94743 0.64434 0.18717 0.0
H401 H 0.99119 0.62799 0.17076 0.0
H402 H 0.01525 0.54407 0.11359 0.0
H403 H 0.01168 0.57057 0.15801 0.0
H404 H 0.82499 0.54651 0.09572 0.0
H405 H 0.8247 0.58256 0.13308 0.0
H406 H 0.8579 0.53527 0.04447 0.0
H407 H 0.89934 0.51052 0.03531 0.0
C408 C 0.36978 0.102 0.18289 0.0
C409 C 0.34403 0.12653 0.16159 0.0
C410 C 0.36281 0.09787 0.09745 0.0
C411 C 0.39243 0.07796 0.11769 0.0
N412 N 0.42923 0.0697 0.17882 0.0
N413 N 0.32034 0.15378 0.0975 0.0
C414 C 0.39729 0.08219 0.16025 0.0
C415 C 0.34183 0.12629 0.11849 0.0
N416 N 0.36756 0.09691 0.22487 0.0
N417 N 0.35316 0.08794 0.05902 0.0
H418 H 0.30431 0.17481 0.11197 0.0
H419 H 0.32117 0.15832 0.06555 0.0
H420 H 0.36591 0.06517 0.04345 0.0
H421 H 0.32945 0.09861 0.04452 0.0
H422 H 0.3827 0.07536 0.24182 0.0
H423 H 0.34781 0.111 0.24267 0.0
H424 H 0.43585 0.07641 0.20854 0.0
H425 H 0.45167 0.05732 0.16349 0.0
C426 C 0.16676 0.88643 0.6396 0.0
C427 C 0.2025 0.90598 0.62027 0.0
C428 C 0.16977 0.96032 0.58243 0.0
C429 C 0.13364 0.94023 0.60083 0.0
N430 N 0.09643 0.87875 0.639 0.0
N431 N 0.23715 0.95348 0.56563 0.0
C432 C 0.13171 0.90152 0.62704 0.0
C433 C 0.20361 0.94014 0.58895 0.0
N434 N 0.1665 0.85448 0.67072 0.0
N435 N 0.17251 0.00018 0.56133 0.0
H436 H 0.26279 0.93979 0.56997 0.0
H437 H 0.23851 0.97516 0.53952 0.0
H438 H 0.14892 0.01734 0.5569 0.0
H439 H 0.1989 0.01825 0.55156 0.0
H440 H 0.14187 0.84238 0.68927 0.0
H441 H 0.19163 0.84171 0.67954 0.0
H442 H 0.09322 0.84834 0.65503 0.0
H443 H 0.07024 0.88851 0.62955 0.0
C444 C 0.83761 0.43933 0.86622 0.0
C445 C 0.81374 0.40255 0.88499 0.0
C446 C 0.85363 0.40283 0.94535 0.0
C447 C 0.88038 0.4356 0.92397 0.0
N448 N 0.8994 0.48451 0.86372 0.0
N449 N 0.79781 0.34877 0.94205 0.0
C450 C 0.87255 0.45405 0.88449 0.0
C451 C 0.82118 0.38439 0.92473 0.0
N452 N 0.82685 0.46016 0.83086 0.0
N453 N 0.85933 0.38958 0.98529 0.0
H454 H 0.77278 0.33595 0.92862 0.0
H455 H 0.80387 0.33081 0.9687 0.0
H456 H 0.88319 0.40217 0.00073 0.0
H457 H 0.83929 0.36856 0.00404 0.0
H458 H 0.84046 0.48995 0.81818 0.0
H459 H 0.80219 0.44947 0.81573 0.0
H460 H 0.89794 0.49546 0.83297 0.0
H461 H 0.92478 0.49715 0.87652 0.0
C462 C 0.69387 0.59609 0.40789 0.0
C463 C 0.68444 0.60791 0.36701 0.0
C464 C 0.61857 0.56969 0.38056 0.0
C465 C 0.62929 0.55431 0.42013 0.0
N466 N 0.67621 0.55205 0.47219 0.0
N467 N 0.63867 0.60749 0.3137 0.0
C468 C 0.66661 0.56767 0.43412 0.0
C469 C 0.6468 0.59558 0.35333 0.0
N470 N 0.72894 0.61218 0.42151 0.0
N471 N 0.58156 0.55892 0.36879 0.0
H472 H 0.65777 0.62849 0.29373 0.0
H473 H 0.6138 0.59563 0.29967 0.0
H474 H 0.56088 0.53736 0.38622 0.0
H475 H 0.57025 0.57283 0.34265 0.0
H476 H 0.73636 0.60876 0.45197 0.0
H477 H 0.75029 0.63141 0.40266 0.0
H478 H 0.70411 0.556 0.48283 0.0
H479 H 0.6562 0.53342 0.49307 0.0
C480 C 0.1382 0.37853 0.17049 0.0
C481 C 0.14271 0.3354 0.16371 0.0
C482 C 0.09546 0.33759 0.11013 0.0
C483 C 0.08968 0.37982 0.11902 0.0
N484 N 0.09254 0.43043 0.1705 0.0
N485 N 0.11691 0.26994 0.13528 0.0
C486 C 0.10688 0.39724 0.15328 0.0
C487 C 0.11873 0.31357 0.1359 0.0
N488 N 0.16446 0.40232 0.19196 0.0
N489 N 0.07866 0.32046 0.07725 0.0
H490 H 0.13221 0.25102 0.15495 0.0
H491 H 0.09729 0.25207 0.11823 0.0
H492 H 0.05909 0.33603 0.05981 0.0
H493 H 0.08539 0.29182 0.06647 0.0
H494 H 0.16379 0.43512 0.19437 0.0
H495 H 0.1892 0.39061 0.20328 0.0
H496 H 0.10336 0.44284 0.19687 0.0
H497 H 0.06596 0.44011 0.16268 0.0
C498 C 0.61107 0.16633 0.9326 0.0
C499 C 0.59529 0.17778 0.89448 0.0
C500 C 0.54221 0.1189 0.90882 0.0
C501 C 0.55565 0.11016 0.94877 0.0
N502 N 0.59998 0.13007 0.00102 0.0
N503 N 0.54224 0.17047 0.84937 0.0
C504 C 0.58929 0.13516 0.96134 0.0
C505 C 0.55969 0.15576 0.88358 0.0
N506 N 0.64762 0.18388 0.94071 0.0
N507 N 0.51448 0.09058 0.89381 0.0
H508 H 0.55421 0.19741 0.83014 0.0
H509 H 0.51429 0.15843 0.84225 0.0
H510 H 0.50216 0.06201 0.91027 0.0
H511 H 0.5067 0.09303 0.86338 0.0
H512 H 0.6625 0.17308 0.96578 0.0
H513 H 0.66459 0.20683 0.92055 0.0
H514 H 0.62121 0.15095 0.01314 0.0
H515 H 0.58562 0.10713 0.02299 0.0
C516 C 0.87653 0.81384 0.401 0.0
C517 C 0.89621 0.81521 0.36193 0.0
C518 C 0.93537 0.8823 0.37424 0.0
C519 C 0.91632 0.88047 0.41383 0.0
N520 N 0.87848 0.83754 0.46944 0.0
N521 N 0.95193 0.8425 0.31709 0.0
C522 C 0.89003 0.84389 0.42872 0.0
C523 C 0.92838 0.84662 0.35064 0.0
N524 N 0.84369 0.78567 0.41087 0.0
N525 N 0.9576 0.91903 0.35757 0.0
H526 H 0.94736 0.81646 0.29933 0.0
H527 H 0.97799 0.86226 0.30962 0.0
H528 H 0.96202 0.94717 0.37226 0.0
H529 H 0.9686 0.9231 0.3272 0.0
H530 H 0.82588 0.78692 0.43705 0.0
H531 H 0.83244 0.76322 0.39146 0.0
H532 H 0.86205 0.80942 0.48259 0.0
H533 H 0.88891 0.85829 0.49083 0.0
C534 C 0.39286 0.7013 0.5749 0.0
C535 C 0.40901 0.71436 0.61153 0.0
C536 C 0.4393 0.64793 0.61983 0.0
C537 C 0.42819 0.63821 0.58 0.0
N538 N 0.40106 0.66141 0.516 0.0
N539 N 0.45269 0.70357 0.66588 0.0
C540 C 0.40657 0.66631 0.55654 0.0
C541 C 0.43371 0.68867 0.63322 0.0
N542 N 0.36399 0.72188 0.55795 0.0
N543 N 0.45337 0.61767 0.64573 0.0
H544 H 0.44921 0.73323 0.67674 0.0
H545 H 0.47435 0.68817 0.67986 0.0
H546 H 0.4559 0.58654 0.6382 0.0
H547 H 0.45841 0.6219 0.67637 0.0
H548 H 0.34844 0.7107 0.53364 0.0
H549 H 0.35295 0.74751 0.57079 0.0
H550 H 0.38851 0.68352 0.49683 0.0
H551 H 0.41294 0.63823 0.50019 0.0
C552 C 0.90982 0.88186 0.62543 0.0
C553 C 0.87898 0.90444 0.63815 0.0
C554 C 0.90092 0.96456 0.58688 0.0
C555 C 0.93392 0.94397 0.57761 0.0
N556 N 0.9625 0.87834 0.57507 0.0
N557 N 0.83739 0.95883 0.62256 0.0
C558 C 0.93558 0.9007 0.59232 0.0
C559 C 0.87168 0.94281 0.61542 0.0
N560 N 0.91651 0.84451 0.64705 0.0
N561 N 0.89906 0.00582 0.57086 0.0
H562 H 0.81591 0.94294 0.64364 0.0
H563 H 0.82888 0.9852 0.60533 0.0
H564 H 0.91977 0.02206 0.54922 0.0
H565 H 0.87799 0.0245 0.58004 0.0
H566 H 0.94141 0.82967 0.6424 0.0
H567 H 0.89804 0.82922 0.67115 0.0
H568 H 0.96338 0.84551 0.58205 0.0
H569 H 0.98151 0.89209 0.55063 0.0
C570 C 0.56762 0.12634 0.17988 0.0
C571 C 0.60537 0.11359 0.17907 0.0
C572 C 0.58883 0.06782 0.12363 0.0
C573 C 0.55318 0.08576 0.1203 0.0
N574 N 0.50767 0.13128 0.14561 0.0
N575 N 0.65257 0.07158 0.15241 0.0
C576 C 0.54216 0.1145 0.1488 0.0
C577 C 0.61592 0.08346 0.15207 0.0
N578 N 0.55607 0.1493 0.21092 0.0
N579 N 0.5972 0.03666 0.09907 0.0
H580 H 0.67244 0.08125 0.17388 0.0
H581 H 0.66413 0.05369 0.13066 0.0
H582 H 0.57992 0.02675 0.07558 0.0
H583 H 0.62031 0.01873 0.10317 0.0
H584 H 0.52773 0.15605 0.21602 0.0
H585 H 0.57421 0.15857 0.23407 0.0
H586 H 0.50035 0.15678 0.16144 0.0
H587 H 0.48647 0.12083 0.12587 0.0
C588 C 0.45409 0.59473 0.35418 0.0
C589 C 0.41633 0.57602 0.34576 0.0
C590 C 0.41465 0.52523 0.40745 0.0
C591 C 0.45222 0.54445 0.41639 0.0
N592 N 0.50594 0.60095 0.40141 0.0
N593 N 0.35801 0.52848 0.36641 0.0
C594 C 0.47125 0.58046 0.39086 0.0
C595 C 0.39588 0.54259 0.37298 0.0
N596 N 0.4744 0.62464 0.32594 0.0
N597 N 0.39685 0.49044 0.43204 0.0
H598 H 0.34353 0.54059 0.34148 0.0
H599 H 0.33985 0.5072 0.38688 0.0
H600 H 0.40762 0.47936 0.45971 0.0
H601 H 0.37207 0.47131 0.42451 0.0
H602 H 0.50373 0.63569 0.32743 0.0
H603 H 0.4627 0.63664 0.29912 0.0
H604 H 0.51836 0.63085 0.38777 0.0
H605 H 0.52198 0.5892 0.42513 0.0
C606 C 0.1212 0.44033 0.88972 0.0
C607 C 0.10633 0.39986 0.87676 0.0
C608 C 0.04719 0.39912 0.92061 0.0
C609 C 0.06074 0.44094 0.9311 0.0
N610 N 0.10778 0.50438 0.92152 0.0
N611 N 0.05212 0.345 0.87279 0.0
C612 C 0.09682 0.46258 0.91417 0.0
C613 C 0.06835 0.38052 0.89011 0.0
N614 N 0.15919 0.45648 0.88045 0.0
N615 N 0.01474 0.37662 0.94065 0.0
H616 H 0.06657 0.3309 0.84987 0.0
H617 H 0.02315 0.33203 0.87824 0.0
H618 H 0.9984 0.38924 0.96311 0.0
H619 H 0.00587 0.34426 0.9375 0.0
H620 H 0.17295 0.48332 0.89288 0.0
H621 H 0.17808 0.44109 0.86284 0.0
H622 H 0.13159 0.52345 0.90643 0.0
H623 H 0.0914 0.52117 0.94059 0.0
C624 C 0.68037 0.94934 0.88412 0.0
C625 C 0.67705 0.90403 0.88317 0.0
C626 C 0.61313 0.89651 0.91957 0.0
C627 C 0.61812 0.94156 0.92375 0.0
N628 N 0.65982 0.00927 0.91743 0.0
N629 N 0.64257 0.83357 0.9021 0.0
C630 C 0.65256 0.96761 0.90781 0.0
C631 C 0.644 0.87732 0.90143 0.0
N632 N 0.71012 0.97499 0.86223 0.0
N633 N 0.57852 0.87229 0.93158 0.0
H634 H 0.66376 0.81865 0.88721 0.0
H635 H 0.62167 0.81196 0.91916 0.0
H636 H 0.55565 0.88441 0.94639 0.0
H637 H 0.57133 0.84074 0.92449 0.0
H638 H 0.71144 0.00837 0.85777 0.0
H639 H 0.73192 0.96287 0.84548 0.0
H640 H 0.68622 0.02845 0.91036 0.0
H641 H 0.64105 0.02346 0.93631 0.0
C642 C 0.80873 0.07271 0.40287 0.0
C643 C 0.82168 0.11447 0.38371 0.0
C644 C 0.88875 0.10635 0.39998 0.0
C645 C 0.87597 0.06404 0.41792 0.0
N646 N 0.82384 0.01078 0.4461 0.0
N647 N 0.87142 0.17514 0.37173 0.0
C648 C 0.83586 0.04851 0.42266 0.0
C649 C 0.86096 0.13264 0.38482 0.0
N650 N 0.77084 0.05562 0.40058 0.0
N651 N 0.9276 0.12093 0.39676 0.0
H652 H 0.85176 0.19509 0.35997 0.0
H653 H 0.89869 0.19167 0.37526 0.0
H654 H 0.94847 0.10384 0.41035 0.0
H655 H 0.93949 0.14915 0.37952 0.0
H656 H 0.76046 0.02358 0.40952 0.0
H657 H 0.74993 0.073 0.38748 0.0
H658 H 0.79483 -0.00044 0.45392 0.0
H659 H 0.84308 0.99238 0.4609 0.0
C660 C 0.20104 0.553 0.09335 0.0
C661 C 0.20468 0.58742 0.11892 0.0
C662 C 0.13443 0.59067 0.11833 0.0
C663 C 0.13084 0.55622 0.09277 0.0
N664 N 0.16166 0.51208 0.04745 0.0
N665 N 0.17687 0.64487 0.14912 0.0
C666 C 0.16449 0.54008 0.07725 0.0
C667 C 0.17192 0.60807 0.12943 0.0
N668 N 0.23197 0.53082 0.08648 0.0
N669 N 0.10175 0.60631 0.13231 0.0
H670 H 0.20395 0.65844 0.15759 0.0
H671 H 0.15488 0.66384 0.15442 0.0
H672 H 0.07455 0.59741 0.12118 0.0
H673 H 0.1013 0.62708 0.15541 0.0
H674 H 0.22997 0.50231 0.07224 0.0
H675 H 0.25912 0.53863 0.0982 0.0
H676 H 0.18568 0.50313 0.03173 0.0
H677 H 0.13553 0.50084 0.03535 0.0
C678 C 0.33275 0.45033 0.65707 0.0
C679 C 0.33088 0.40485 0.65943 0.0
C680 C 0.38877 0.41066 0.61254 0.0
C681 C 0.39377 0.45589 0.61482 0.0
N682 N 0.36979 0.51991 0.63625 0.0
N683 N 0.35673 0.34082 0.64109 0.0
C684 C 0.36533 0.47607 0.63605 0.0
C685 C 0.35854 0.38473 0.63721 0.0
N686 N 0.30314 0.46865 0.6749 0.0
N687 N 0.41271 0.39258 0.58661 0.0
H688 H 0.33434 0.32084 0.65784 0.0
H689 H 0.37845 0.32409 0.62989 0.0
H690 H 0.43499 0.41055 0.56805 0.0
H691 H 0.40858 0.36039 0.58066 0.0
H692 H 0.30077 0.50143 0.67231 0.0
H693 H 0.27908 0.45061 0.69072 0.0
H694 H 0.35241 0.537 0.65372 0.0
H695 H 0.392 0.53982 0.61937 0.0
C696 C 0.89982 0.6598 0.85088 0.0
C697 C 0.89654 0.69639 0.87271 0.0
C698 C 0.92654 0.663 0.9318 0.0
C699 C 0.92919 0.62618 0.91014 0.0
N700 N 0.92859 0.59353 0.84627 0.0
N701 N 0.91277 0.73712 0.9302 0.0
C702 C 0.91915 0.6259 0.86866 0.0
C703 C 0.91183 0.69933 0.9121 0.0
N704 N 0.88319 0.65685 0.81392 0.0
N705 N 0.93771 0.66277 0.97142 0.0
H706 H 0.90177 0.76423 0.91689 0.0
H707 H 0.92662 0.74294 0.9571 0.0
H708 H 0.95153 0.63806 0.98548 0.0
H709 H 0.93246 0.68614 0.99092 0.0
H710 H 0.88072 0.62904 0.79857 0.0
H711 H 0.86928 0.6814 0.79977 0.0
H712 H 0.92478 0.59296 0.81494 0.0
H713 H 0.9441 0.56935 0.85823 0.0
C714 C 0.40912 0.862 0.12601 0.0
C715 C 0.42445 0.82365 0.11801 0.0
C716 C 0.47109 0.8647 0.06689 0.0
C717 C 0.45293 0.90271 0.07172 0.0
N718 N 0.39424 0.93032 0.09639 0.0
N719 N 0.46158 0.78696 0.07114 0.0
C720 C 0.41873 0.89935 0.09824 0.0
C721 C 0.45305 0.82449 0.0857 0.0
N722 N 0.38592 0.86322 0.16053 0.0
N723 N 0.50524 0.86605 0.04419 0.0
H724 H 0.44768 0.75675 0.08243 0.0
H725 H 0.47917 0.78616 0.04469 0.0
H726 H 0.51872 0.89292 0.02623 0.0
H727 H 0.52154 0.84019 0.04494 0.0
H728 H 0.37715 0.89172 0.16969 0.0
H729 H 0.37903 0.83672 0.18216 0.0
H730 H 0.36782 0.92689 0.11342 0.0
H731 H 0.39679 0.95622 0.07418 0.0
C732 C 0.14992 0.17217 0.63072 0.0
C733 C 0.12285 0.18239 0.66088 0.0
C734 C 0.07035 0.14207 0.62736 0.0
C735 C 0.09835 0.12558 0.6021 0.0
N736 N 0.16612 0.11918 0.58603 0.0
N737 N 0.05743 0.1731 0.69103 0.0
C738 C 0.13854 0.13928 0.60515 0.0
C739 C 0.08298 0.16644 0.66002 0.0
N740 N 0.1864 0.19434 0.62606 0.0
N741 N 0.03187 0.13574 0.61933 0.0
H742 H 0.06565 0.19061 0.71559 0.0
H743 H 0.02886 0.15822 0.69412 0.0
H744 H 0.0217 0.11982 0.59447 0.0
H745 H 0.01069 0.15032 0.6345 0.0
H746 H 0.20597 0.1908 0.60191 0.0
H747 H 0.19557 0.21955 0.64355 0.0
H748 H 0.19563 0.12524 0.59112 0.0
H749 H 0.15959 0.09325 0.56871 0.0
C750 C 0.63496 0.32957 0.42466 0.0
C751 C 0.6173 0.31313 0.39004 0.0
C752 C 0.5571 0.34203 0.40885 0.0
C753 C 0.57632 0.36273 0.4405 0.0
N754 N 0.63553 0.38201 0.47465 0.0
N755 N 0.56331 0.30726 0.34595 0.0
C756 C 0.61574 0.35789 0.4476 0.0
C757 C 0.57874 0.32015 0.3813 0.0
N758 N 0.66979 0.31741 0.4361 0.0
N759 N 0.51796 0.34229 0.4059 0.0
H760 H 0.57815 0.29079 0.32522 0.0
H761 H 0.53704 0.31566 0.33557 0.0
H762 H 0.50121 0.35782 0.42576 0.0
H763 H 0.5015 0.32405 0.38624 0.0
H764 H 0.68208 0.32463 0.46356 0.0
H765 H 0.6848 0.29669 0.42001 0.0
H766 H 0.66545 0.38362 0.47732 0.0
H767 H 0.62288 0.40351 0.49198 0.0
loop_
_geom_bond_atom_site_label_1
_geom_bond_atom_site_label_2
_geom_bond_distance
_geom_bond_site_symmetry_2
_ccdc_geom_bond_type
P0 O11 1.490 . S
P0 C14 1.812 . S
P0 C20 1.803 . S
P0 C26 1.819 . S
H1 C15 0.941 . S
H2 C16 0.939 . S
H3 C18 0.940 . S
H4 C19 0.940 . S
H5 C21 0.939 . S
H6 C22 0.942 . S
H7 C24 0.940 . S
H8 C25 0.939 . S
H9 C27 0.941 . S
H10 C31 0.939 . S
O11 P0 1.490 . S
H12 C28 0.939 . S
H13 C30 0.940 . S
C14 P0 1.812 . S
C14 C15 1.389 . S
C14 C19 1.391 . S
C15 H1 0.941 . S
C15 C14 1.389 . S
C15 C16 1.397 . S
C16 H2 0.939 . S
C16 C15 1.397 . S
C16 C17 1.378 . S
C17 C16 1.378 . S
C17 C18 1.378 . S
C18 H3 0.940 . S
C18 C17 1.378 . S
C18 C19 1.396 . S
C19 H4 0.940 . S
C19 C14 1.391 . S
C19 C18 1.396 . S
C20 P0 1.803 . S
C20 C21 1.378 . S
C20 C25 1.400 . S
C21 H5 0.939 . S
C21 C20 1.378 . S
C21 C22 1.361 . S
C22 H6 0.942 . S
C22 C21 1.361 . S
C22 C23 1.369 . S
C23 C22 1.369 . S
C23 C24 1.404 . S
C24 H7 0.940 . S
C24 C23 1.404 . S
C24 C25 1.389 . S
C25 H8 0.939 . S
C25 C20 1.400 . S
C25 C24 1.389 . S
C26 P0 1.819 . S
C26 C27 1.391 . S
C26 C31 1.391 . S
C27 H9 0.941 . S
C27 C26 1.391 . S
C27 C28 1.396 . S
C28 H12 0.939 . S
C28 C27 1.396 . S
C28 C29 1.397 . S
C29 C28 1.397 . S
C29 C30 1.385 . S
C30 H13 0.940 . S
C30 C29 1.385 . S
C30 C31 1.388 . S
C31 H10 0.939 . S
C31 C26 1.391 . S
C31 C30 1.388 . S
P32 O43 1.490 . S
P32 C46 1.812 . S
P32 C52 1.803 . S
P32 C58 1.819 . S
H33 C47 0.941 . S
H34 C48 0.939 . S
H35 C50 0.940 . S
H36 C51 0.940 . S
H37 C53 0.939 . S
H38 C54 0.942 . S
H39 C56 0.940 . S
H40 C57 0.939 . S
H41 C59 0.941 . S
H42 C63 0.939 . S
O43 P32 1.490 . S
H44 C60 0.939 . S
H45 C62 0.940 . S
C46 P32 1.812 . S
C46 C47 1.389 . S
C46 C51 1.391 . S
C47 H33 0.941 . S
C47 C46 1.389 . S
C47 C48 1.397 . S
C48 H34 0.939 . S
C48 C47 1.397 . S
C48 C49 1.378 . S
C49 C48 1.378 . S
C49 C50 1.378 . S
C50 H35 0.940 . S
C50 C49 1.378 . S
C50 C51 1.396 . S
C51 H36 0.940 . S
C51 C46 1.391 . S
C51 C50 1.396 . S
C52 P32 1.803 . S
C52 C53 1.378 . S
C52 C57 1.400 . S
C53 H37 0.939 . S
C53 C52 1.378 . S
C53 C54 1.361 . S
C54 H38 0.942 . S
C54 C53 1.361 . S
C54 C55 1.369 . S
C55 C54 1.369 . S
C55 C56 1.404 . S
C56 H39 0.940 . S
C56 C55 1.404 . S
C56 C57 1.389 . S
C57 H40 0.939 . S
C57 C52 1.400 . S
C57 C56 1.389 . S
C58 P32 1.819 . S
C58 C59 1.391 . S
C58 C63 1.391 . S
C59 H41 0.941 . S
C59 C58 1.391 . S
C59 C60 1.396 . S
C60 H44 0.939 . S
C60 C59 1.396 . S
C60 C61 1.397 . S
C61 C60 1.397 . S
C61 C62 1.385 . S
C62 H45 0.940 . S
C62 C61 1.385 . S
C62 C63 1.388 . S
C63 H42 0.939 . S
C63 C58 1.391 . S
C63 C62 1.388 . S
P64 O75 1.490 . S
P64 C78 1.812 . S
P64 C84 1.803 . S
P64 C90 1.819 . S
H65 C79 0.941 . S
H66 C80 0.939 . S
H67 C82 0.940 . S
H68 C83 0.940 . S
H69 C85 0.939 . S
H70 C86 0.942 . S
H71 C88 0.940 . S
H72 C89 0.939 . S
H73 C91 0.941 . S
H74 C95 0.939 . S
O75 P64 1.490 . S
H76 C92 0.939 . S
H77 C94 0.940 . S
C78 P64 1.812 . S
C78 C79 1.389 . S
C78 C83 1.391 . S
C79 H65 0.941 . S
C79 C78 1.389 . S
C79 C80 1.397 . S
C80 H66 0.939 . S
C80 C79 1.397 . S
C80 C81 1.378 . S
C81 C80 1.378 . S
C81 C82 1.378 . S
C82 H67 0.940 . S
C82 C81 1.378 . S
C82 C83 1.396 . S
C83 H68 0.940 . S
C83 C78 1.391 . S
C83 C82 1.396 . S
C84 P64 1.803 . S
C84 C85 1.378 . S
C84 C89 1.400 . S
C85 H69 0.939 . S
C85 C84 1.378 . S
C85 C86 1.361 . S
C86 H70 0.942 . S
C86 C85 1.361 . S
C86 C87 1.369 . S
C87 C86 1.369 . S
C87 C88 1.404 . S
C88 H71 0.940 . S
C88 C87 1.404 . S
C88 C89 1.389 . S
C89 H72 0.939 . S
C89 C84 1.400 . S
C89 C88 1.389 . S
C90 P64 1.819 . S
C90 C91 1.391 . S
C90 C95 1.391 . S
C91 H73 0.941 . S
C91 C90 1.391 . S
C91 C92 1.396 . S
C92 H76 0.939 . S
C92 C91 1.396 . S
C92 C93 1.397 . S
C93 C92 1.397 . S
C93 C94 1.385 . S
C94 H77 0.940 . S
C94 C93 1.385 . S
C94 C95 1.388 . S
C95 H74 0.939 . S
C95 C90 1.391 . S
C95 C94 1.388 . S
P96 O107 1.490 . S
P96 C110 1.812 . S
P96 C116 1.803 . S
P96 C122 1.819 . S
H97 C111 0.941 . S
H98 C112 0.939 . S
H99 C114 0.940 . S
H100 C115 0.940 . S
H101 C117 0.939 . S
H102 C118 0.942 . S
H103 C120 0.940 . S
H104 C121 0.939 . S
H105 C123 0.941 . S
H106 C127 0.939 . S
O107 P96 1.490 . S
H108 C124 0.939 . S
H109 C126 0.940 . S
C110 P96 1.812 . S
C110 C111 1.389 . S
C110 C115 1.391 . S
C111 H97 0.941 . S
C111 C110 1.389 . S
C111 C112 1.397 . S
C112 H98 0.939 . S
C112 C111 1.397 . S
C112 C113 1.378 . S
C113 C112 1.378 . S
C113 C114 1.378 . S
C114 H99 0.940 . S
C114 C113 1.378 . S
C114 C115 1.396 . S
C115 H100 0.940 . S
C115 C110 1.391 . S
C115 C114 1.396 . S
C116 P96 1.803 . S
C116 C117 1.378 . S
C116 C121 1.400 . S
C117 H101 0.939 . S
C117 C116 1.378 . S
C117 C118 1.361 . S
C118 H102 0.942 . S
C118 C117 1.361 . S
C118 C119 1.369 . S
C119 C118 1.369 . S
C119 C120 1.404 . S
C120 H103 0.940 . S
C120 C119 1.404 . S
C120 C121 1.389 . S
C121 H104 0.939 . S
C121 C116 1.400 . S
C121 C120 1.389 . S
C122 P96 1.819 . S
C122 C123 1.391 . S
C122 C127 1.391 . S
C123 H105 0.941 . S
C123 C122 1.391 . S
C123 C124 1.396 . S
C124 H108 0.939 . S
C124 C123 1.396 . S
C124 C125 1.397 . S
C125 C124 1.397 . S
C125 C126 1.385 . S
C126 H109 0.940 . S
C126 C125 1.385 . S
C126 C127 1.388 . S
C127 H106 0.939 . S
C127 C122 1.391 . S
C127 C126 1.388 . S
P128 O139 1.490 . S
P128 C142 1.812 . S
P128 C148 1.803 . S
P128 C154 1.819 . S
H129 C143 0.941 . S
H130 C144 0.939 . S
H131 C146 0.940 . S
H132 C147 0.940 . S
H133 C149 0.939 . S
H134 C150 0.942 . S
H135 C152 0.940 . S
H136 C153 0.939 . S
H137 C155 0.941 . S
H138 C159 0.939 . S
O139 P128 1.490 . S
H140 C156 0.939 . S
H141 C158 0.940 . S
C142 P128 1.812 . S
C142 C143 1.389 . S
C142 C147 1.391 . S
C143 H129 0.941 . S
C143 C142 1.389 . S
C143 C144 1.397 . S
C144 H130 0.939 . S
C144 C143 1.397 . S
C144 C145 1.378 . S
C145 C144 1.378 . S
C145 C146 1.378 . S
C146 H131 0.940 . S
C146 C145 1.378 . S
C146 C147 1.396 . S
C147 H132 0.940 . S
C147 C142 1.391 . S
C147 C146 1.396 . S
C148 P128 1.803 . S
C148 C149 1.378 . S
C148 C153 1.400 . S
C149 H133 0.939 . S
C149 C148 1.378 . S
C149 C150 1.361 . S
C150 H134 0.942 . S
C150 C149 1.361 . S
C150 C151 1.369 . S
C151 C150 1.369 . S
C151 C152 1.404 . S
C152 H135 0.940 . S
C152 C151 1.404 . S
C152 C153 1.389 . S
C153 H136 0.939 . S
C153 C148 1.400 . S
C153 C152 1.389 . S
C154 P128 1.819 . S
C154 C155 1.391 . S
C154 C159 1.391 . S
C155 H137 0.941 . S
C155 C154 1.391 . S
C155 C156 1.396 . S
C156 H140 0.939 . S
C156 C155 1.396 . S
C156 C157 1.397 . S
C157 C156 1.397 . S
C157 C158 1.385 . S
C158 H141 0.940 . S
C158 C157 1.385 . S
C158 C159 1.388 . S
C159 H138 0.939 . S
C159 C154 1.391 . S
C159 C158 1.388 . S
P160 O171 1.490 . S
P160 C174 1.812 . S
P160 C180 1.803 . S
P160 C186 1.819 . S
H161 C175 0.941 . S
H162 C176 0.939 . S
H163 C178 0.940 . S
H164 C179 0.940 . S
H165 C181 0.939 . S
H166 C182 0.942 . S
H167 C184 0.940 . S
H168 C185 0.939 . S
H169 C187 0.941 . S
H170 C191 0.939 . S
O171 P160 1.490 . S
H172 C188 0.939 . S
H173 C190 0.940 . S
C174 P160 1.812 . S
C174 C175 1.389 . S
C174 C179 1.391 . S
C175 H161 0.941 . S
C175 C174 1.389 . S
C175 C176 1.397 . S
C176 H162 0.939 . S
C176 C175 1.397 . S
C176 C177 1.378 . S
C177 C176 1.378 . S
C177 C178 1.378 . S
C178 H163 0.940 . S
C178 C177 1.378 . S
C178 C179 1.396 . S
C179 H164 0.940 . S
C179 C174 1.391 . S
C179 C178 1.396 . S
C180 P160 1.803 . S
C180 C181 1.378 . S
C180 C185 1.400 . S
C181 H165 0.939 . S
C181 C180 1.378 . S
C181 C182 1.361 . S
C182 H166 0.942 . S
C182 C181 1.361 . S
C182 C183 1.369 . S
C183 C182 1.369 . S
C183 C184 1.404 . S
C184 H167 0.940 . S
C184 C183 1.404 . S
C184 C185 1.389 . S
C185 H168 0.939 . S
C185 C180 1.400 . S
C185 C184 1.389 . S
C186 P160 1.819 . S
C186 C187 1.391 . S
C186 C191 1.391 . S
C187 H169 0.941 . S
C187 C186 1.391 . S
C187 C188 1.396 . S
C188 H172 0.939 . S
C188 C187 1.396 . S
C188 C189 1.397 . S
C189 C188 1.397 . S
C189 C190 1.385 . S
C190 H173 0.940 . S
C190 C189 1.385 . S
C190 C191 1.388 . S
C191 H170 0.939 . S
C191 C186 1.391 . S
C191 C190 1.388 . S
P192 O203 1.490 . S
P192 C206 1.812 . S
P192 C212 1.803 . S
P192 C218 1.819 . S
H193 C207 0.941 . S
H194 C208 0.939 . S
H195 C210 0.940 . S
H196 C211 0.940 . S
H197 C213 0.939 . S
H198 C214 0.942 . S
H199 C216 0.940 . S
H200 C217 0.939 . S
H201 C219 0.941 . S
H202 C223 0.939 . S
O203 P192 1.490 . S
H204 C220 0.939 . S
H205 C222 0.940 . S
C206 P192 1.812 . S
C206 C207 1.389 . S
C206 C211 1.391 . S
C207 H193 0.941 . S
C207 C206 1.389 . S
C207 C208 1.397 . S
C208 H194 0.939 . S
C208 C207 1.397 . S
C208 C209 1.378 . S
C209 C208 1.378 . S
C209 C210 1.378 . S
C210 H195 0.940 . S
C210 C209 1.378 . S
C210 C211 1.396 . S
C211 H196 0.940 . S
C211 C206 1.391 . S
C211 C210 1.396 . S
C212 P192 1.803 . S
C212 C213 1.378 . S
C212 C217 1.400 . S
C213 H197 0.939 . S
C213 C212 1.378 . S
C213 C214 1.361 . S
C214 H198 0.942 . S
C214 C213 1.361 . S
C214 C215 1.369 . S
C215 C214 1.369 . S
C215 C216 1.404 . S
C216 H199 0.940 . S
C216 C215 1.404 . S
C216 C217 1.389 . S
C217 H200 0.939 . S
C217 C212 1.400 . S
C217 C216 1.389 . S
C218 P192 1.819 . S
C218 C219 1.391 . S
C218 C223 1.391 . S
C219 H201 0.941 . S
C219 C218 1.391 . S
C219 C220 1.396 . S
C220 H204 0.939 . S
C220 C219 1.396 . S
C220 C221 1.397 . S
C221 C220 1.397 . S
C221 C222 1.385 . S
C222 H205 0.940 . S
C222 C221 1.385 . S
C222 C223 1.388 . S
C223 H202 0.939 . S
C223 C218 1.391 . S
C223 C222 1.388 . S
P224 O235 1.490 . S
P224 C238 1.812 . S
P224 C244 1.803 . S
P224 C250 1.819 . S
H225 C239 0.941 . S
H226 C240 0.939 . S
H227 C242 0.940 . S
H228 C243 0.940 . S
H229 C245 0.939 . S
H230 C246 0.942 . S
H231 C248 0.940 . S
H232 C249 0.939 . S
H233 C251 0.941 . S
H234 C255 0.939 . S
O235 P224 1.490 . S
H236 C252 0.939 . S
H237 C254 0.940 . S
C238 P224 1.812 . S
C238 C239 1.389 . S
C238 C243 1.391 . S
C239 H225 0.941 . S
C239 C238 1.389 . S
C239 C240 1.397 . S
C240 H226 0.939 . S
C240 C239 1.397 . S
C240 C241 1.378 . S
C241 C240 1.378 . S
C241 C242 1.378 . S
C242 H227 0.940 . S
C242 C241 1.378 . S
C242 C243 1.396 . S
C243 H228 0.940 . S
C243 C238 1.391 . S
C243 C242 1.396 . S
C244 P224 1.803 . S
C244 C245 1.378 . S
C244 C249 1.400 . S
C245 H229 0.939 . S
C245 C244 1.378 . S
C245 C246 1.361 . S
C246 H230 0.942 . S
C246 C245 1.361 . S
C246 C247 1.369 . S
C247 C246 1.369 . S
C247 C248 1.404 . S
C248 H231 0.940 . S
C248 C247 1.404 . S
C248 C249 1.389 . S
C249 H232 0.939 . S
C249 C244 1.400 . S
C249 C248 1.389 . S
C250 P224 1.819 . S
C250 C251 1.391 . S
C250 C255 1.391 . S
C251 H233 0.941 . S
C251 C250 1.391 . S
C251 C252 1.396 . S
C252 H236 0.939 . S
C252 C251 1.396 . S
C252 C253 1.397 . S
C253 C252 1.397 . S
C253 C254 1.385 . S
C254 H237 0.940 . S
C254 C253 1.385 . S
C254 C255 1.388 . S
C255 H234 0.939 . S
C255 C250 1.391 . S
C255 C254 1.388 . S
Zn256 O262 1.969 1_545 S
Zn256 O263 1.965 1_545 S
Zn256 O267 2.024 . S
Zn256 O272 1.969 . S
Zn257 O264 1.969 . S
Zn257 O270 1.969 1_565 S
Zn257 O271 1.965 1_665 S
Zn257 O273 2.024 . S
C258 O259 1.229 . S
C258 O267 1.058 . S
O259 C258 1.229 . S
C260 O261 1.229 . S
C260 O273 1.058 . S
O261 C260 1.229 . S
O262 Zn256 1.969 1_565 S
O262 C265 1.267 . S
O263 Zn256 1.965 1_565 S
O263 C274 1.260 1_455 S
O264 Zn257 1.969 . S
O264 C274 1.258 . S
C265 O262 1.267 . S
C265 O266 1.228 . S
O266 C265 1.228 . S
O267 Zn256 2.024 . S
O267 C258 1.058 . S
C268 O269 1.228 . S
C268 O270 1.267 . S
O269 C268 1.228 . S
O270 Zn257 1.969 1_545 S
O270 C268 1.267 . S
O271 Zn257 1.965 1_445 S
O271 C275 1.260 . S
O272 Zn256 1.969 . S
O272 C275 1.258 . S
O273 Zn257 2.024 . S
O273 C260 1.058 . S
C274 O263 1.260 1_655 S
C274 O264 1.258 . S
C275 O271 1.260 . S
C275 O272 1.258 . S
Zn276 O282 1.969 . S
Zn276 O283 1.965 1_565 S
Zn276 O287 2.024 . S
Zn276 O292 1.969 1_556 S
Zn277 O284 1.969 . S
Zn277 O290 1.969 . S
Zn277 O291 1.965 1_545 S
Zn277 O293 2.024 . S
C278 O279 1.229 . S
C278 O287 1.058 . S
O279 C278 1.229 . S
C280 O281 1.229 . S
C280 O293 1.058 . S
O281 C280 1.229 . S
O282 Zn276 1.969 . S
O282 C285 1.267 . S
O283 Zn276 1.965 1_545 S
O283 C294 1.260 . S
O284 Zn277 1.969 . S
O284 C294 1.258 1_554 S
C285 O282 1.267 . S
C285 O286 1.228 . S
O286 C285 1.228 . S
O287 Zn276 2.024 . S
O287 C278 1.058 . S
C288 O289 1.228 . S
C288 O290 1.267 . S
O289 C288 1.228 . S
O290 Zn277 1.969 . S
O290 C288 1.267 . S
O291 Zn277 1.965 1_565 S
O291 C295 1.260 . S
O292 Zn276 1.969 1_554 S
O292 C295 1.258 . S
O293 Zn277 2.024 . S
O293 C280 1.058 . S
C294 O283 1.260 . S
C294 O284 1.258 1_556 S
C295 O291 1.260 . S
C295 O292 1.258 . S
Zn296 O302 1.969 . S
Zn296 O303 1.965 . S
Zn296 O307 2.024 . S
Zn296 O312 1.969 . S
Zn297 O304 1.969 . S
Zn297 O310 1.969 . S
Zn297 O311 1.965 . S
Zn297 O313 2.024 . S
C298 O299 1.229 . S
C298 O307 1.058 . S
O299 C298 1.229 . S
C300 O301 1.229 . S
C300 O313 1.058 . S
O301 C300 1.229 . S
O302 Zn296 1.969 . S
O302 C305 1.267 . S
O303 Zn296 1.965 . S
O303 C314 1.260 . S
O304 Zn297 1.969 . S
O304 C314 1.258 . S
C305 O302 1.267 . S
C305 O306 1.228 . S
O306 C305 1.228 . S
O307 Zn296 2.024 . S
O307 C298 1.058 . S
C308 O309 1.228 . S
C308 O310 1.267 . S
O309 C308 1.228 . S
O310 Zn297 1.969 . S
O310 C308 1.267 . S
O311 Zn297 1.965 . S
O311 C315 1.260 . S
O312 Zn296 1.969 . S
O312 C315 1.258 . S
O313 Zn297 2.024 . S
O313 C300 1.058 . S
C314 O303 1.260 . S
C314 O304 1.258 . S
C315 O311 1.260 . S
C315 O312 1.258 . S
Zn316 O322 1.969 . S
Zn316 O323 1.965 1_556 S
Zn316 O327 2.024 . S
Zn316 O332 1.969 1_655 S
Zn317 O324 1.969 . S
Zn317 O330 1.969 . S
Zn317 O331 1.965 1_554 S
Zn317 O333 2.024 . S
C318 O319 1.229 . S
C318 O327 1.058 . S
O319 C318 1.229 . S
C320 O321 1.229 . S
C320 O333 1.058 . S
O321 C320 1.229 . S
O322 Zn316 1.969 . S
O322 C325 1.267 . S
O323 Zn316 1.965 1_554 S
O323 C334 1.260 . S
O324 Zn317 1.969 . S
O324 C334 1.258 1_455 S
C325 O322 1.267 . S
C325 O326 1.228 . S
O326 C325 1.228 . S
O327 Zn316 2.024 . S
O327 C318 1.058 . S
C328 O329 1.228 . S
C328 O330 1.267 . S
O329 C328 1.228 . S
O330 Zn317 1.969 . S
O330 C328 1.267 . S
O331 Zn317 1.965 1_556 S
O331 C335 1.260 . S
O332 Zn316 1.969 1_455 S
O332 C335 1.258 . S
O333 Zn317 2.024 . S
O333 C320 1.058 . S
C334 O323 1.260 . S
C334 O324 1.258 1_655 S
C335 O331 1.260 . S
C335 O332 1.258 . S
C336 C337 1.363 . S
C336 C342 1.379 . S
C336 N344 1.356 . S
C337 C336 1.363 . S
C337 C343 1.363 . S
C338 C339 1.363 . S
C338 C343 1.379 . S
C338 N345 1.356 . S
C339 C338 1.363 . S
C339 C342 1.363 . S
N340 C342 1.356 . S
N340 H352 0.984 . S
N340 H353 0.985 . S
N341 C343 1.356 . S
N341 H346 0.984 . S
N341 H347 0.985 . S
C342 C336 1.379 . S
C342 C339 1.363 . S
C342 N340 1.356 . S
C343 C337 1.363 . S
C343 C338 1.379 . S
C343 N341 1.356 . S
N344 C336 1.356 . S
N344 H350 0.984 . S
N344 H351 0.984 . S
N345 C338 1.356 . S
N345 H348 0.984 . S
N345 H349 0.985 . S
H346 N341 0.984 . S
H347 N341 0.985 . S
H348 N345 0.984 . S
H349 N345 0.985 . S
H350 N344 0.984 . S
H351 N344 0.984 . S
H352 N340 0.984 . S
H353 N340 0.985 . S
C354 C355 1.363 . S
C354 C360 1.379 . S
C354 N362 1.356 . S
C355 C354 1.363 . S
C355 C361 1.363 . S
C356 C357 1.363 . S
C356 C361 1.379 . S
C356 N363 1.356 . S
C357 C356 1.363 . S
C357 C360 1.363 . S
N358 C360 1.356 . S
N358 H370 0.984 . S
N358 H371 0.985 . S
N359 C361 1.356 . S
N359 H364 0.984 . S
N359 H365 0.985 . S
C360 C354 1.379 . S
C360 C357 1.363 . S
C360 N358 1.356 . S
C361 C355 1.363 . S
C361 C356 1.379 . S
C361 N359 1.356 . S
N362 C354 1.356 . S
N362 H368 0.984 . S
N362 H369 0.984 . S
N363 C356 1.356 . S
N363 H366 0.984 . S
N363 H367 0.985 . S
H364 N359 0.984 . S
H365 N359 0.985 . S
H366 N363 0.984 . S
H367 N363 0.985 . S
H368 N362 0.984 . S
H369 N362 0.984 . S
H370 N358 0.984 . S
H371 N358 0.985 . S
C372 C373 1.363 . S
C372 C378 1.379 . S
C372 N380 1.356 . S
C373 C372 1.363 . S
C373 C379 1.363 . S
C374 C375 1.363 . S
C374 C379 1.379 . S
C374 N381 1.356 . S
C375 C374 1.363 . S
C375 C378 1.363 . S
N376 C378 1.356 . S
N376 H388 0.984 . S
N376 H389 0.985 . S
N377 C379 1.356 . S
N377 H382 0.984 . S
N377 H383 0.985 . S
C378 C372 1.379 . S
C378 C375 1.363 . S
C378 N376 1.356 . S
C379 C373 1.363 . S
C379 C374 1.379 . S
C379 N377 1.356 . S
N380 C372 1.356 . S
N380 H386 0.984 . S
N380 H387 0.984 . S
N381 C374 1.356 . S
N381 H384 0.984 . S
N381 H385 0.985 . S
H382 N377 0.984 . S
H383 N377 0.985 . S
H384 N381 0.984 . S
H385 N381 0.985 . S
H386 N380 0.984 . S
H387 N380 0.984 . S
H388 N376 0.984 . S
H389 N376 0.985 . S
C390 C391 1.363 . S
C390 C396 1.379 . S
C390 N398 1.356 . S
C391 C390 1.363 . S
C391 C397 1.363 . S
C392 C393 1.363 . S
C392 C397 1.379 . S
C392 N399 1.359 1_655 S
C393 C392 1.363 . S
C393 C396 1.363 . S
N394 C396 1.356 . S
N394 H406 0.984 . S
N394 H407 0.985 . S
N395 C397 1.356 . S
N395 H400 0.984 . S
N395 H401 0.985 . S
C396 C390 1.379 . S
C396 C393 1.363 . S
C396 N394 1.356 . S
C397 C391 1.363 . S
C397 C392 1.379 . S
C397 N395 1.356 . S
N398 C390 1.356 . S
N398 H404 0.984 . S
N398 H405 0.984 . S
N399 C392 1.359 1_455 S
N399 H402 0.984 . S
N399 H403 0.983 . S
H400 N395 0.984 . S
H401 N395 0.985 . S
H402 N399 0.984 . S
H403 N399 0.983 . S
H404 N398 0.984 . S
H405 N398 0.984 . S
H406 N394 0.984 . S
H407 N394 0.985 . S
C408 C409 1.363 . S
C408 C414 1.379 . S
C408 N416 1.356 . S
C409 C408 1.363 . S
C409 C415 1.363 . S
C410 C411 1.363 . S
C410 C415 1.379 . S
C410 N417 1.356 . S
C411 C410 1.363 . S
C411 C414 1.363 . S
N412 C414 1.356 . S
N412 H424 0.984 . S
N412 H425 0.985 . S
N413 C415 1.356 . S
N413 H418 0.984 . S
N413 H419 0.985 . S
C414 C408 1.379 . S
C414 C411 1.363 . S
C414 N412 1.356 . S
C415 C409 1.363 . S
C415 C410 1.379 . S
C415 N413 1.356 . S
N416 C408 1.356 . S
N416 H422 0.984 . S
N416 H423 0.984 . S
N417 C410 1.356 . S
N417 H420 0.984 . S
N417 H421 0.985 . S
H418 N413 0.984 . S
H419 N413 0.985 . S
H420 N417 0.984 . S
H421 N417 0.985 . S
H422 N416 0.984 . S
H423 N416 0.984 . S
H424 N412 0.984 . S
H425 N412 0.985 . S
C426 C427 1.363 . S
C426 C432 1.379 . S
C426 N434 1.356 . S
C427 C426 1.363 . S
C427 C433 1.363 . S
C428 C429 1.363 . S
C428 C433 1.379 . S
C428 N435 1.356 . S
C429 C428 1.363 . S
C429 C432 1.363 . S
N430 C432 1.356 . S
N430 H442 0.984 . S
N430 H443 0.985 . S
N431 C433 1.356 . S
N431 H436 0.984 . S
N431 H437 0.985 . S
C432 C426 1.379 . S
C432 C429 1.363 . S
C432 N430 1.356 . S
C433 C427 1.363 . S
C433 C428 1.379 . S
C433 N431 1.356 . S
N434 C426 1.356 . S
N434 H440 0.984 . S
N434 H441 0.984 . S
N435 C428 1.356 . S
N435 H438 0.989 . S
N435 H439 0.985 1_565 S
H436 N431 0.984 . S
H437 N431 0.985 . S
H438 N435 0.989 . S
H439 N435 0.985 1_545 S
H440 N434 0.984 . S
H441 N434 0.984 . S
H442 N430 0.984 . S
H443 N430 0.985 . S
C444 C445 1.363 . S
C444 C450 1.379 . S
C444 N452 1.356 . S
C445 C444 1.363 . S
C445 C451 1.363 . S
C446 C447 1.363 . S
C446 C451 1.379 . S
C446 N453 1.356 . S
C447 C446 1.363 . S
C447 C450 1.363 . S
N448 C450 1.356 . S
N448 H460 0.984 . S
N448 H461 0.985 . S
N449 C451 1.356 . S
N449 H454 0.984 . S
N449 H455 0.985 . S
C450 C444 1.379 . S
C450 C447 1.363 . S
C450 N448 1.356 . S
C451 C445 1.363 . S
C451 C446 1.379 . S
C451 N449 1.356 . S
N452 C444 1.356 . S
N452 H458 0.984 . S
N452 H459 0.984 . S
N453 C446 1.356 . S
N453 H456 0.984 . S
N453 H457 0.985 . S
H454 N449 0.984 . S
H455 N449 0.985 . S
H456 N453 0.984 . S
H457 N453 0.985 . S
H458 N452 0.984 . S
H459 N452 0.984 . S
H460 N448 0.984 . S
H461 N448 0.985 . S
C462 C463 1.363 . S
C462 C468 1.379 . S
C462 N470 1.356 . S
C463 C462 1.363 . S
C463 C469 1.363 . S
C464 C465 1.363 . S
C464 C469 1.379 . S
C464 N471 1.356 . S
C465 C464 1.363 . S
C465 C468 1.363 . S
N466 C468 1.356 . S
N466 H478 0.984 . S
N466 H479 0.985 . S
N467 C469 1.356 . S
N467 H472 0.984 . S
N467 H473 0.985 . S
C468 C462 1.379 . S
C468 C465 1.363 . S
C468 N466 1.356 . S
C469 C463 1.363 . S
C469 C464 1.379 . S
C469 N467 1.356 . S
N470 C462 1.356 . S
N470 H476 0.984 . S
N470 H477 0.984 . S
N471 C464 1.356 . S
N471 H474 0.984 . S
N471 H475 0.985 . S
H472 N467 0.984 . S
H473 N467 0.985 . S
H474 N471 0.984 . S
H475 N471 0.985 . S
H476 N470 0.984 . S
H477 N470 0.984 . S
H478 N466 0.984 . S
H479 N466 0.985 . S
C480 C481 1.363 . S
C480 C486 1.379 . S
C480 N488 1.356 . S
C481 C480 1.363 . S
C481 C487 1.363 . S
C482 C483 1.363 . S
C482 C487 1.379 . S
C482 N489 1.356 . S
C483 C482 1.363 . S
C483 C486 1.363 . S
N484 C486 1.356 . S
N484 H496 0.984 . S
N484 H497 0.985 . S
N485 C487 1.356 . S
N485 H490 0.984 . S
N485 H491 0.985 . S
C486 C480 1.379 . S
C486 C483 1.363 . S
C486 N484 1.356 . S
C487 C481 1.363 . S
C487 C482 1.379 . S
C487 N485 1.356 . S
N488 C480 1.356 . S
N488 H494 0.984 . S
N488 H495 0.984 . S
N489 C482 1.356 . S
N489 H492 0.984 . S
N489 H493 0.985 . S
H490 N485 0.984 . S
H491 N485 0.985 . S
H492 N489 0.984 . S
H493 N489 0.985 . S
H494 N488 0.984 . S
H495 N488 0.984 . S
H496 N484 0.984 . S
H497 N484 0.985 . S
C498 C499 1.363 . S
C498 C504 1.379 . S
C498 N506 1.356 . S
C499 C498 1.363 . S
C499 C505 1.363 . S
C500 C501 1.363 . S
C500 C505 1.379 . S
C500 N507 1.356 . S
C501 C500 1.363 . S
C501 C504 1.363 . S
N502 C504 1.356 1_554 S
N502 H514 0.984 . S
N502 H515 0.985 . S
N503 C505 1.356 . S
N503 H508 0.984 . S
N503 H509 0.985 . S
C504 C498 1.379 . S
C504 C501 1.363 . S
C504 N502 1.356 1_556 S
C505 C499 1.363 . S
C505 C500 1.379 . S
C505 N503 1.356 . S
N506 C498 1.356 . S
N506 H512 0.984 . S
N506 H513 0.984 . S
N507 C500 1.356 . S
N507 H510 0.984 . S
N507 H511 0.985 . S
H508 N503 0.984 . S
H509 N503 0.985 . S
H510 N507 0.984 . S
H511 N507 0.985 . S
H512 N506 0.984 . S
H513 N506 0.984 . S
H514 N502 0.984 . S
H515 N502 0.985 . S
C516 C517 1.363 . S
C516 C522 1.379 . S
C516 N524 1.356 . S
C517 C516 1.363 . S
C517 C523 1.363 . S
C518 C519 1.363 . S
C518 C523 1.379 . S
C518 N525 1.356 . S
C519 C518 1.363 . S
C519 C522 1.363 . S
N520 C522 1.356 . S
N520 H532 0.984 . S
N520 H533 0.985 . S
N521 C523 1.356 . S
N521 H526 0.984 . S
N521 H527 0.985 . S
C522 C516 1.379 . S
C522 C519 1.363 . S
C522 N520 1.356 . S
C523 C517 1.363 . S
C523 C518 1.379 . S
C523 N521 1.356 . S
N524 C516 1.356 . S
N524 H530 0.984 . S
N524 H531 0.984 . S
N525 C518 1.356 . S
N525 H528 0.984 . S
N525 H529 0.985 1_655 S
H526 N521 0.984 . S
H527 N521 0.985 . S
H528 N525 0.984 . S
H529 N525 0.985 1_455 S
H530 N524 0.984 . S
H531 N524 0.984 . S
H532 N520 0.984 . S
H533 N520 0.985 . S
C534 C535 1.363 . S
C534 C540 1.379 . S
C534 N542 1.356 . S
C535 C534 1.363 . S
C535 C541 1.363 . S
C536 C537 1.363 . S
C536 C541 1.379 . S
C536 N543 1.356 . S
C537 C536 1.363 . S
C537 C540 1.363 . S
N538 C540 1.356 . S
N538 H550 0.984 . S
N538 H551 0.985 . S
N539 C541 1.356 . S
N539 H544 0.984 . S
N539 H545 0.985 . S
C540 C534 1.379 . S
C540 C537 1.363 . S
C540 N538 1.356 . S
C541 C535 1.363 . S
C541 C536 1.379 . S
C541 N539 1.356 . S
N542 C534 1.356 . S
N542 H548 0.984 . S
N542 H549 0.984 . S
N543 C536 1.356 . S
N543 H546 0.984 . S
N543 H547 0.985 . S
H544 N539 0.984 . S
H545 N539 0.985 . S
H546 N543 0.984 . S
H547 N543 0.985 . S
H548 N542 0.984 . S
H549 N542 0.984 . S
H550 N538 0.984 . S
H551 N538 0.985 . S
C552 C553 1.363 . S
C552 C558 1.379 . S
C552 N560 1.356 . S
C553 C552 1.363 . S
C553 C559 1.363 . S
C554 C555 1.363 . S
C554 C559 1.379 . S
C554 N561 1.356 1_565 S
C555 C554 1.363 . S
C555 C558 1.363 . S
N556 C558 1.356 . S
N556 H568 0.984 . S
N556 H569 0.970 1_655 S
N557 C559 1.356 . S
N557 H562 0.984 . S
N557 H563 0.985 . S
C558 C552 1.379 . S
C558 C555 1.363 . S
C558 N556 1.356 . S
C559 C553 1.363 . S
C559 C554 1.379 . S
C559 N557 1.356 . S
N560 C552 1.356 . S
N560 H566 0.984 . S
N560 H567 0.984 . S
N561 C554 1.356 1_545 S
N561 H564 0.984 . S
N561 H565 0.985 . S
H562 N557 0.984 . S
H563 N557 0.985 . S
H564 N561 0.984 . S
H565 N561 0.985 . S
H566 N560 0.984 . S
H567 N560 0.984 . S
H568 N556 0.984 . S
H569 N556 0.970 1_455 S
C570 C571 1.363 . S
C570 C576 1.379 . S
C570 N578 1.356 . S
C571 C570 1.363 . S
C571 C577 1.363 . S
C572 C573 1.363 . S
C572 C577 1.379 . S
C572 N579 1.356 . S
C573 C572 1.363 . S
C573 C576 1.363 . S
N574 C576 1.356 . S
N574 H586 0.984 . S
N574 H587 0.985 . S
N575 C577 1.356 . S
N575 H580 0.984 . S
N575 H581 0.985 . S
C576 C570 1.379 . S
C576 C573 1.363 . S
C576 N574 1.356 . S
C577 C571 1.363 . S
C577 C572 1.379 . S
C577 N575 1.356 . S
N578 C570 1.356 . S
N578 H584 0.984 . S
N578 H585 0.984 . S
N579 C572 1.356 . S
N579 H582 0.984 . S
N579 H583 0.985 1_545 S
H580 N575 0.984 . S
H581 N575 0.985 . S
H582 N579 0.984 . S
H583 N579 0.985 1_565 S
H584 N578 0.984 . S
H585 N578 0.984 . S
H586 N574 0.984 . S
H587 N574 0.985 . S
C588 C589 1.363 . S
C588 C594 1.379 . S
C588 N596 1.356 . S
C589 C588 1.363 . S
C589 C595 1.363 . S
C590 C591 1.363 . S
C590 C595 1.379 . S
C590 N597 1.356 . S
C591 C590 1.363 . S
C591 C594 1.363 . S
N592 C594 1.356 . S
N592 H604 0.984 . S
N592 H605 0.985 . S
N593 C595 1.356 . S
N593 H598 0.984 . S
N593 H599 0.985 . S
C594 C588 1.379 . S
C594 C591 1.363 . S
C594 N592 1.356 . S
C595 C589 1.363 . S
C595 C590 1.379 . S
C595 N593 1.356 . S
N596 C588 1.356 . S
N596 H602 0.984 . S
N596 H603 0.984 . S
N597 C590 1.356 . S
N597 H600 0.984 . S
N597 H601 0.985 . S
H598 N593 0.984 . S
H599 N593 0.985 . S
H600 N597 0.984 . S
H601 N597 0.985 . S
H602 N596 0.984 . S
H603 N596 0.984 . S
H604 N592 0.984 . S
H605 N592 0.985 . S
C606 C607 1.363 . S
C606 C612 1.379 . S
C606 N614 1.356 . S
C607 C606 1.363 . S
C607 C613 1.363 . S
C608 C609 1.363 . S
C608 C613 1.379 . S
C608 N615 1.356 . S
C609 C608 1.363 . S
C609 C612 1.363 . S
N610 C612 1.356 . S
N610 H622 0.984 . S
N610 H623 0.985 . S
N611 C613 1.356 . S
N611 H616 0.984 . S
N611 H617 0.985 . S
C612 C606 1.379 . S
C612 C609 1.363 . S
C612 N610 1.356 . S
C613 C607 1.363 . S
C613 C608 1.379 . S
C613 N611 1.356 . S
N614 C606 1.356 . S
N614 H620 0.984 . S
N614 H621 0.984 . S
N615 C608 1.356 . S
N615 H618 0.984 . S
N615 H619 0.987 . S
H616 N611 0.984 . S
H617 N611 0.985 . S
H618 N615 0.984 . S
H619 N615 0.987 . S
H620 N614 0.984 . S
H621 N614 0.984 . S
H622 N610 0.984 . S
H623 N610 0.985 . S
C624 C625 1.363 . S
C624 C630 1.379 . S
C624 N632 1.356 . S
C625 C624 1.363 . S
C625 C631 1.363 . S
C626 C627 1.363 . S
C626 C631 1.379 . S
C626 N633 1.356 . S
C627 C626 1.363 . S
C627 C630 1.363 . S
N628 C630 1.356 . S
N628 H640 0.984 1_565 S
N628 H641 0.985 . S
N629 C631 1.356 . S
N629 H634 0.984 . S
N629 H635 0.985 . S
C630 C624 1.379 . S
C630 C627 1.363 . S
C630 N628 1.356 . S
C631 C625 1.363 . S
C631 C626 1.379 . S
C631 N629 1.356 . S
N632 C624 1.356 . S
N632 H638 0.984 . S
N632 H639 0.984 . S
N633 C626 1.356 . S
N633 H636 0.984 . S
N633 H637 0.985 . S
H634 N629 0.984 . S
H635 N629 0.985 . S
H636 N633 0.984 . S
H637 N633 0.985 . S
H638 N632 0.984 . S
H639 N632 0.984 . S
H640 N628 0.984 1_545 S
H641 N628 0.985 . S
C642 C643 1.363 . S
C642 C648 1.379 . S
C642 N650 1.356 . S
C643 C642 1.363 . S
C643 C649 1.363 . S
C644 C645 1.363 . S
C644 C649 1.379 . S
C644 N651 1.356 . S
C645 C644 1.363 . S
C645 C648 1.363 . S
N646 C648 1.356 . S
N646 H658 0.984 1_545 S
N646 H659 0.985 . S
N647 C649 1.356 . S
N647 H652 0.984 . S
N647 H653 0.985 . S
C648 C642 1.379 . S
C648 C645 1.363 . S
C648 N646 1.356 . S
C649 C643 1.363 . S
C649 C644 1.379 . S
C649 N647 1.356 . S
N650 C642 1.356 . S
N650 H656 0.984 . S
N650 H657 0.984 . S
N651 C644 1.356 . S
N651 H654 0.984 . S
N651 H655 0.985 . S
H652 N647 0.984 . S
H653 N647 0.985 . S
H654 N651 0.984 . S
H655 N651 0.985 . S
H656 N650 0.984 . S
H657 N650 0.984 . S
H658 N646 0.984 1_565 S
H659 N646 0.985 . S
C660 C661 1.363 . S
C660 C666 1.379 . S
C660 N668 1.356 . S
C661 C660 1.363 . S
C661 C667 1.363 . S
C662 C663 1.363 . S
C662 C667 1.379 . S
C662 N669 1.356 . S
C663 C662 1.363 . S
C663 C666 1.363 . S
N664 C666 1.356 . S
N664 H676 0.984 . S
N664 H677 0.985 . S
N665 C667 1.356 . S
N665 H670 0.984 . S
N665 H671 0.985 . S
C666 C660 1.379 . S
C666 C663 1.363 . S
C666 N664 1.356 . S
C667 C661 1.363 . S
C667 C662 1.379 . S
C667 N665 1.356 . S
N668 C660 1.356 . S
N668 H674 0.984 . S
N668 H675 0.984 . S
N669 C662 1.356 . S
N669 H672 0.984 . S
N669 H673 0.985 . S
H670 N665 0.984 . S
H671 N665 0.985 . S
H672 N669 0.984 . S
H673 N669 0.985 . S
H674 N668 0.984 . S
H675 N668 0.984 . S
H676 N664 0.984 . S
H677 N664 0.985 . S
C678 C679 1.363 . S
C678 C684 1.379 . S
C678 N686 1.356 . S
C679 C678 1.363 . S
C679 C685 1.363 . S
C680 C681 1.363 . S
C680 C685 1.379 . S
C680 N687 1.356 . S
C681 C680 1.363 . S
C681 C684 1.363 . S
N682 C684 1.356 . S
N682 H694 0.984 . S
N682 H695 0.985 . S
N683 C685 1.356 . S
N683 H688 0.984 . S
N683 H689 0.985 . S
C684 C678 1.379 . S
C684 C681 1.363 . S
C684 N682 1.356 . S
C685 C679 1.363 . S
C685 C680 1.379 . S
C685 N683 1.356 . S
N686 C678 1.356 . S
N686 H692 0.984 . S
N686 H693 0.984 . S
N687 C680 1.356 . S
N687 H690 0.984 . S
N687 H691 0.985 . S
H688 N683 0.984 . S
H689 N683 0.985 . S
H690 N687 0.984 . S
H691 N687 0.985 . S
H692 N686 0.984 . S
H693 N686 0.984 . S
H694 N682 0.984 . S
H695 N682 0.985 . S
C696 C697 1.363 . S
C696 C702 1.379 . S
C696 N704 1.356 . S
C697 C696 1.363 . S
C697 C703 1.363 . S
C698 C699 1.363 . S
C698 C703 1.379 . S
C698 N705 1.356 . S
C699 C698 1.363 . S
C699 C702 1.363 . S
N700 C702 1.356 . S
N700 H712 0.984 . S
N700 H713 0.985 . S
N701 C703 1.356 . S
N701 H706 0.984 . S
N701 H707 0.985 . S
C702 C696 1.379 . S
C702 C699 1.363 . S
C702 N700 1.356 . S
C703 C697 1.363 . S
C703 C698 1.379 . S
C703 N701 1.356 . S
N704 C696 1.356 . S
N704 H710 0.984 . S
N704 H711 0.984 . S
N705 C698 1.356 . S
N705 H708 0.984 . S
N705 H709 0.985 . S
H706 N701 0.984 . S
H707 N701 0.985 . S
H708 N705 0.984 . S
H709 N705 0.985 . S
H710 N704 0.984 . S
H711 N704 0.984 . S
H712 N700 0.984 . S
H713 N700 0.985 . S
C714 C715 1.363 . S
C714 C720 1.379 . S
C714 N722 1.356 . S
C715 C714 1.363 . S
C715 C721 1.363 . S
C716 C717 1.363 . S
C716 C721 1.379 . S
C716 N723 1.356 . S
C717 C716 1.363 . S
C717 C720 1.363 . S
N718 C720 1.356 . S
N718 H730 0.984 . S
N718 H731 0.985 . S
N719 C721 1.356 . S
N719 H724 0.984 . S
N719 H725 0.985 . S
C720 C714 1.379 . S
C720 C717 1.363 . S
C720 N718 1.356 . S
C721 C715 1.363 . S
C721 C716 1.379 . S
C721 N719 1.356 . S
N722 C714 1.356 . S
N722 H728 0.984 . S
N722 H729 0.984 . S
N723 C716 1.356 . S
N723 H726 0.984 . S
N723 H727 0.985 . S
H724 N719 0.984 . S
H725 N719 0.985 . S
H726 N723 0.984 . S
H727 N723 0.985 . S
H728 N722 0.984 . S
H729 N722 0.984 . S
H730 N718 0.984 . S
H731 N718 0.985 . S
C732 C733 1.363 . S
C732 C738 1.379 . S
C732 N740 1.356 . S
C733 C732 1.363 . S
C733 C739 1.363 . S
C734 C735 1.363 . S
C734 C739 1.379 . S
C734 N741 1.356 . S
C735 C734 1.363 . S
C735 C738 1.363 . S
N736 C738 1.356 . S
N736 H748 0.984 . S
N736 H749 0.985 . S
N737 C739 1.356 . S
N737 H742 0.984 . S
N737 H743 0.985 . S
C738 C732 1.379 . S
C738 C735 1.363 . S
C738 N736 1.356 . S
C739 C733 1.363 . S
C739 C734 1.379 . S
C739 N737 1.356 . S
N740 C732 1.356 . S
N740 H746 0.984 . S
N740 H747 0.984 . S
N741 C734 1.356 . S
N741 H744 0.984 . S
N741 H745 0.985 1_455 S
H742 N737 0.984 . S
H743 N737 0.985 . S
H744 N741 0.984 . S
H745 N741 0.985 1_655 S
H746 N740 0.984 . S
H747 N740 0.984 . S
H748 N736 0.984 . S
H749 N736 0.985 . S
C750 C751 1.363 . S
C750 C756 1.379 . S
C750 N758 1.356 . S
C751 C750 1.363 . S
C751 C757 1.363 . S
C752 C753 1.363 . S
C752 C757 1.379 . S
C752 N759 1.356 . S
C753 C752 1.363 . S
C753 C756 1.363 . S
N754 C756 1.356 . S
N754 H766 0.984 . S
N754 H767 0.985 . S
N755 C757 1.356 . S
N755 H760 0.984 . S
N755 H761 0.985 . S
C756 C750 1.379 . S
C756 C753 1.363 . S
C756 N754 1.356 . S
C757 C751 1.363 . S
C757 C752 1.379 . S
C757 N755 1.356 . S
N758 C750 1.356 . S
N758 H764 0.984 . S
N758 H765 0.984 . S
N759 C752 1.356 . S
N759 H762 0.984 . S
N759 H763 0.985 . S
H760 N755 0.984 . S
H761 N755 0.985 . S
H762 N759 0.984 . S
H763 N759 0.985 . S
H764 N758 0.984 . S
H765 N758 0.984 . S
H766 N754 0.984 . S
H767 N754 0.985 . S
C337 C29 1.575 . S
C339 C275 1.513 . S
C355 C49 1.223 . S
C357 C278 1.236 . S
C375 C314 1.824 . S
C373 C93 1.818 . S
C391 C119 1.678 . S
C393 C334 1.650 . S
C411 C288 1.610 . S
C409 C17 1.648 . S
C429 C265 1.507 . S
C427 C61 1.491 . S
C447 C318 1.563 . S
C445 C81 1.690 . S
C465 C298 1.422 . S
C463 C125 1.532 . S
C481 C23 1.382 . S
C483 C328 1.302 . S
C501 C294 1.649 . S
C499 C87 1.641 . S
C517 C113 1.661 . S
C519 C260 1.607 . S
C535 C55 1.300 . S
C537 C308 1.292 . S
C555 C274 1.464 . S
C553 C157 1.396 . S
C571 C189 1.287 . S
C573 C280 1.253 . S
C589 C221 1.763 . S
C591 C315 1.802 . S
C607 C253 1.728 . S
C609 C335 1.703 . S
C625 C145 1.620 . S
C627 C285 1.647 . S
C645 C268 1.443 . S
C643 C183 1.441 . S
C663 C320 1.590 . S
C661 C209 1.670 . S
C681 C300 1.396 . S
C679 C247 1.503 . S
C697 C151 1.301 . S
C699 C325 1.299 . S
C717 C295 1.636 . S
C715 C215 1.610 . S
C735 C258 1.624 . S
C733 C241 1.638 . S
C751 C177 1.329 . S
C753 C305 1.322 . S
