# Generated by pormake.
# Topology pyr, (3,6)-cn, num edge types: 1
# Building blocks:
#     Node 0, Type 0, BuildingBlock: KAKCAD_clean_linker_0, # of connection points: 3
#     Node 1, Type 0, BuildingBlock: KAKCAD_clean_linker_0, # of connection points: 3
#     Node 2, Type 0, BuildingBlock: KAKCAD_clean_linker_0, # of connection points: 3
#     Node 3, Type 0, BuildingBlock: KAKCAD_clean_linker_0, # of connection points: 3
#     Node 4, Type 0, BuildingBlock: KAKCAD_clean_linker_0, # of connection points: 3
#     Node 5, Type 0, BuildingBlock: KAKCAD_clean_linker_0, # of connection points: 3
#     Node 6, Type 0, BuildingBlock: KAKCAD_clean_linker_0, # of connection points: 3
#     Node 7, Type 0, BuildingBlock: KAKCAD_clean_linker_0, # of connection points: 3
#     Node 8, Type 1, BuildingBlock: JUFBIX_clean_sbu_0, # of connection points: 6
#     Node 9, Type 1, BuildingBlock: JUFBIX_clean_sbu_0, # of connection points: 6
#     Node 10, Type 1, BuildingBlock: JUFBIX_clean_sbu_0, # of connection points: 6
#     Node 11, Type 1, BuildingBlock: JUFBIX_clean_sbu_0, # of connection points: 6
#     Edge 12, Type (0, 1), BuildingBlock: XIVTED_clean_linker_0, # of connection points: 2
#     Edge 13, Type (0, 1), BuildingBlock: XIVTED_clean_linker_0, # of connection points: 2
#     Edge 14, Type (0, 1), BuildingBlock: XIVTED_clean_linker_0, # of connection points: 2
#     Edge 15, Type (0, 1), BuildingBlock: XIVTED_clean_linker_0, # of connection points: 2
#     Edge 16, Type (0, 1), BuildingBlock: XIVTED_clean_linker_0, # of connection points: 2
#     Edge 17, Type (0, 1), BuildingBlock: XIVTED_clean_linker_0, # of connection points: 2
#     Edge 18, Type (0, 1), BuildingBlock: XIVTED_clean_linker_0, # of connection points: 2
#     Edge 19, Type (0, 1), BuildingBlock: XIVTED_clean_linker_0, # of connection points: 2
#     Edge 20, Type (0, 1), BuildingBlock: XIVTED_clean_linker_0, # of connection points: 2
#     Edge 21, Type (0, 1), BuildingBlock: XIVTED_clean_linker_0, # of connection points: 2
#     Edge 22, Type (0, 1), BuildingBlock: XIVTED_clean_linker_0, # of connection points: 2
#     Edge 23, Type (0, 1), BuildingBlock: XIVTED_clean_linker_0, # of connection points: 2
#     Edge 24, Type (0, 1), BuildingBlock: XIVTED_clean_linker_0, # of connection points: 2
#     Edge 25, Type (0, 1), BuildingBlock: XIVTED_clean_linker_0, # of connection points: 2
#     Edge 26, Type (0, 1), BuildingBlock: XIVTED_clean_linker_0, # of connection points: 2
#     Edge 27, Type (0, 1), BuildingBlock: XIVTED_clean_linker_0, # of connection points: 2
#     Edge 28, Type (0, 1), BuildingBlock: XIVTED_clean_linker_0, # of connection points: 2
#     Edge 29, Type (0, 1), BuildingBlock: XIVTED_clean_linker_0, # of connection points: 2
#     Edge 30, Type (0, 1), BuildingBlock: XIVTED_clean_linker_0, # of connection points: 2
#     Edge 31, Type (0, 1), BuildingBlock: XIVTED_clean_linker_0, # of connection points: 2
#     Edge 32, Type (0, 1), BuildingBlock: XIVTED_clean_linker_0, # of connection points: 2
#     Edge 33, Type (0, 1), BuildingBlock: XIVTED_clean_linker_0, # of connection points: 2
#     Edge 34, Type (0, 1), BuildingBlock: XIVTED_clean_linker_0, # of connection points: 2
#     Edge 35, Type (0, 1), BuildingBlock: XIVTED_clean_linker_0, # of connection points: 2
# Relax obj value: 0.047
# Max RMSD: 0.093
# Mean RMSD: 0.033
data_MOF--net-pry--node1-JUFBIX_clean_sbu_0--node2-KAKCAD_clean_linker_0--edge1-XIVTED_clean_linker_0
_symmetry_space_group_name_H-M    P1
_symmetry_Int_Tables_number       1
_symmetry_cell_setting            triclinic
loop_
_symmetry_equiv_pos_as_xyz
'x, y, z'
_cell_length_a     46.391596
_cell_length_b     44.04875
_cell_length_c     46.227243
_cell_angle_alpha  85.625818
_cell_angle_beta   89.833244
_cell_angle_gamma 91.799145
loop_
_atom_site_label
_atom_site_type_symbol
_atom_site_fract_x
_atom_site_fract_y
_atom_site_fract_z
_atom_type_partial_charge
C0 C 0.12025 0.11664 0.24501 0.0
C1 C 0.13579 0.11055 0.27085 0.0
C2 C 0.13417 0.12847 0.21946 0.0
C3 C 0.16416 0.1343 0.21872 0.0
C4 C 0.17997 0.12736 0.24415 0.0
C5 C 0.16598 0.11581 0.2699 0.0
C6 C 0.17839 0.14896 0.19182 0.0
C7 C 0.16581 0.17424 0.17698 0.0
C8 C 0.17812 0.18849 0.15138 0.0
C9 C 0.20379 0.17698 0.14068 0.0
C10 C 0.21699 0.1515 0.15498 0.0
C11 C 0.20409 0.13788 0.18078 0.0
C12 C 0.24383 0.13888 0.14263 0.0
C13 C 0.24778 0.13857 0.11241 0.0
C14 C 0.26575 0.12694 0.1608 0.0
C15 C 0.29071 0.11514 0.14914 0.0
C16 C 0.29467 0.11489 0.1189 0.0
C17 C 0.16392 0.21533 0.13606 0.0
C18 C 0.13363 0.21634 0.13454 0.0
C19 C 0.18026 0.24048 0.12351 0.0
C20 C 0.16669 0.26604 0.11037 0.0
C21 C 0.13638 0.26725 0.1095 0.0
C22 C 0.1201 0.24189 0.12157 0.0
C23 C 0.27275 0.1269 0.10077 0.0
H24 H 0.09719 0.1122 0.24436 0.0
H25 H 0.12137 0.13309 0.20015 0.0
H26 H 0.20306 0.1318 0.24441 0.0
H27 H 0.17882 0.11184 0.28924 0.0
H28 H 0.14654 0.18332 0.18591 0.0
H29 H 0.21344 0.11799 0.1918 0.0
H30 H 0.21343 0.18784 0.12103 0.0
H31 H 0.23138 0.14705 0.09755 0.0
H32 H 0.26383 0.12696 0.18414 0.0
H33 H 0.30676 0.10584 0.16397 0.0
H34 H 0.12022 0.19723 0.14331 0.0
H35 H 0.20358 0.2408 0.12448 0.0
H36 H 0.27492 0.12763 0.0774 0.0
H37 H 0.09676 0.24164 0.12081 0.0
H38 H 0.17998 0.28521 0.10156 0.0
C39 C 0.43704 0.93454 0.7127 0.0
C40 C 0.46707 0.9332 0.71482 0.0
C41 C 0.42232 0.91971 0.69143 0.0
C42 C 0.43734 0.90381 0.67111 0.0
C43 C 0.46771 0.90376 0.67249 0.0
C44 C 0.48241 0.91793 0.69448 0.0
C45 C 0.421 0.88578 0.65015 0.0
C46 C 0.39364 0.89487 0.64056 0.0
C47 C 0.37594 0.87582 0.62485 0.0
C48 C 0.38655 0.84849 0.61636 0.0
C49 C 0.41409 0.83915 0.62502 0.0
C50 C 0.4311 0.85781 0.64205 0.0
C51 C 0.42418 0.80892 0.61804 0.0
C52 C 0.40496 0.78352 0.61954 0.0
C53 C 0.45299 0.80514 0.60995 0.0
C54 C 0.46227 0.77665 0.60319 0.0
C55 C 0.44291 0.75136 0.60426 0.0
C56 C 0.34526 0.88286 0.62053 0.0
C57 C 0.32867 0.89002 0.64436 0.0
C58 C 0.3322 0.88175 0.59328 0.0
C59 C 0.30316 0.88879 0.58976 0.0
C60 C 0.2867 0.8967 0.61354 0.0
C61 C 0.2997 0.89669 0.64095 0.0
C62 C 0.41417 0.75515 0.61259 0.0
H63 H 0.42472 0.94557 0.72864 0.0
H64 H 0.399 0.91962 0.69202 0.0
H65 H 0.48013 0.89226 0.65702 0.0
H66 H 0.50563 0.91649 0.69595 0.0
H67 H 0.38544 0.91646 0.64606 0.0
H68 H 0.45149 0.84963 0.65031 0.0
H69 H 0.37285 0.83397 0.60394 0.0
H70 H 0.38276 0.78548 0.62625 0.0
H71 H 0.46828 0.82429 0.60849 0.0
H72 H 0.48465 0.77444 0.59721 0.0
H73 H 0.33809 0.89024 0.66577 0.0
H74 H 0.34461 0.87613 0.57464 0.0
H75 H 0.39857 0.73629 0.61331 0.0
H76 H 0.2875 0.90197 0.65984 0.0
H77 H 0.29387 0.8889 0.56829 0.0
C78 C 0.77907 0.41612 0.87172 0.0
C79 C 0.79822 0.39591 0.88588 0.0
C80 C 0.75316 0.40525 0.86026 0.0
C81 C 0.74598 0.37385 0.86236 0.0
C82 C 0.76556 0.35367 0.87609 0.0
C83 C 0.7912 0.36459 0.8879 0.0
C84 C 0.71828 0.36201 0.85045 0.0
C85 C 0.70661 0.37552 0.82464 0.0
C86 C 0.68115 0.36352 0.81298 0.0
C87 C 0.66724 0.33782 0.82718 0.0
C88 C 0.67808 0.32435 0.85326 0.0
C89 C 0.70349 0.33675 0.86478 0.0
C90 C 0.66294 0.29733 0.86843 0.0
C91 C 0.63263 0.29531 0.86986 0.0
C92 C 0.67869 0.27323 0.8815 0.0
C93 C 0.66451 0.24781 0.89564 0.0
C94 C 0.63423 0.24576 0.89693 0.0
C95 C 0.66881 0.37774 0.78592 0.0
C96 C 0.66148 0.40852 0.784 0.0
C97 C 0.66304 0.3602 0.76235 0.0
C98 C 0.65002 0.37318 0.73732 0.0
C99 C 0.64199 0.40374 0.73566 0.0
C100 C 0.64788 0.42133 0.75919 0.0
C101 C 0.61845 0.26979 0.88386 0.0
H102 H 0.78384 0.44043 0.8701 0.0
H103 H 0.73854 0.42156 0.85026 0.0
H104 H 0.76125 0.3293 0.87753 0.0
H105 H 0.80575 0.34845 0.89834 0.0
H106 H 0.71767 0.39481 0.81306 0.0
H107 H 0.71145 0.32699 0.88533 0.0
H108 H 0.64785 0.32838 0.81784 0.0
H109 H 0.61982 0.31365 0.86047 0.0
H110 H 0.70203 0.27375 0.88041 0.0
H111 H 0.67727 0.22946 0.90513 0.0
H112 H 0.66558 0.4224 0.802 0.0
H113 H 0.66853 0.33642 0.76336 0.0
H114 H 0.5951 0.26909 0.88482 0.0
H115 H 0.642 0.44499 0.75835 0.0
H116 H 0.64557 0.35911 0.71953 0.0
C117 C 0.91706 0.60364 0.3051 0.0
C118 C 0.94493 0.59823 0.29513 0.0
C119 C 0.91269 0.61191 0.33318 0.0
C120 C 0.93606 0.61523 0.35202 0.0
C121 C 0.96413 0.61131 0.34182 0.0
C122 C 0.96854 0.60273 0.31358 0.0
C123 C 0.93034 0.62232 0.38225 0.0
C124 C 0.90859 0.60567 0.39813 0.0
C125 C 0.89796 0.61549 0.42419 0.0
C126 C 0.91112 0.6413 0.43536 0.0
C127 C 0.93387 0.65761 0.42028 0.0
C128 C 0.94348 0.64781 0.39374 0.0
C129 C 0.94504 0.68701 0.43024 0.0
C130 C 0.92569 0.70834 0.43929 0.0
C131 C 0.97468 0.69485 0.42901 0.0
C132 C 0.98464 0.72373 0.436 0.0
C133 C 0.96507 0.74536 0.44399 0.0
C134 C 0.87113 0.6009 0.43756 0.0
C135 C 0.8491 0.59017 0.41968 0.0
C136 C 0.86644 0.59894 0.46779 0.0
C137 C 0.84016 0.58722 0.47963 0.0
C138 C 0.81835 0.57671 0.46153 0.0
C139 C 0.82325 0.57796 0.43153 0.0
C140 C 0.93559 0.73714 0.44607 0.0
H141 H 0.89848 0.60127 0.29122 0.0
H142 H 0.89087 0.61558 0.34027 0.0
H143 H 0.98248 0.61393 0.35595 0.0
H144 H 0.99028 0.59869 0.30654 0.0
H145 H 0.89907 0.58559 0.38931 0.0
H146 H 0.95965 0.66124 0.38103 0.0
H147 H 0.90287 0.6496 0.45512 0.0
H148 H 0.9027 0.70322 0.44011 0.0
H149 H 0.99009 0.67879 0.42223 0.0
H150 H 1.00747 0.72951 0.43414 0.0
H151 H 0.85124 0.59215 0.39629 0.0
H152 H 0.88293 0.60666 0.48229 0.0
H153 H 0.92005 0.75324 0.45247 0.0
H154 H 0.80653 0.5707 0.41701 0.0
H155 H 0.8368 0.58654 0.50287 0.0
C156 C 0.88055 0.87426 0.74228 0.0
C157 C 0.88788 0.90559 0.73943 0.0
C158 C 0.86845 0.86064 0.76815 0.0
C159 C 0.86281 0.87806 0.79171 0.0
C160 C 0.86961 0.90951 0.78869 0.0
C161 C 0.88226 0.92304 0.763 0.0
C162 C 0.85056 0.86321 0.81948 0.0
C163 C 0.8627 0.83652 0.83224 0.0
C164 C 0.85157 0.82189 0.85829 0.0
C165 C 0.82737 0.83415 0.87122 0.0
C166 C 0.81467 0.86079 0.85885 0.0
C167 C 0.82679 0.87538 0.83318 0.0
C168 C 0.78847 0.87297 0.87253 0.0
C169 C 0.76526 0.85331 0.88204 0.0
C170 C 0.78637 0.90426 0.87622 0.0
C171 C 0.7619 0.9155 0.88932 0.0
C172 C 0.73861 0.89584 0.89865 0.0
C173 C 0.86552 0.79409 0.87205 0.0
C174 C 0.87579 0.77154 0.85498 0.0
C175 C 0.8693 0.79013 0.9023 0.0
C176 C 0.88323 0.76462 0.91504 0.0
C177 C 0.89376 0.74219 0.89794 0.0
C178 C 0.88964 0.74601 0.86771 0.0
C179 C 0.74063 0.86459 0.89471 0.0
H180 H 0.88473 0.8601 0.72467 0.0
H181 H 0.86334 0.8364 0.76968 0.0
H182 H 0.86569 0.92354 0.80646 0.0
H183 H 0.88747 0.94725 0.76148 0.0
H184 H 0.88147 0.82762 0.82221 0.0
H185 H 0.81708 0.89566 0.82327 0.0
H186 H 0.81833 0.8229 0.89101 0.0
H187 H 0.76599 0.82913 0.87936 0.0
H188 H 0.80386 0.92005 0.86931 0.0
H189 H 0.76105 0.93971 0.89179 0.0
H190 H 0.87289 0.77344 0.83168 0.0
H191 H 0.8621 0.80715 0.91617 0.0
H192 H 0.72326 0.84873 0.90179 0.0
H193 H 0.89684 0.72907 0.85376 0.0
H194 H 0.88628 0.76288 0.93831 0.0
C195 C 0.56324 0.04711 0.34385 0.0
C196 C 0.55477 0.0654 0.31931 0.0
C197 C 0.56959 0.06014 0.36981 0.0
C198 C 0.56788 0.09177 0.37165 0.0
C199 C 0.55821 0.1098 0.3474 0.0
C200 C 0.55162 0.09673 0.32157 0.0
C201 C 0.5785 0.10633 0.39773 0.0
C202 C 0.60409 0.09668 0.4112 0.0
C203 C 0.61617 0.11204 0.43405 0.0
C204 C 0.6023 0.13759 0.44316 0.0
C205 C 0.5772 0.14823 0.42936 0.0
C206 C 0.56495 0.13183 0.40732 0.0
C207 C 0.56599 0.17832 0.43564 0.0
C208 C 0.5672 0.18826 0.46384 0.0
C209 C 0.55664 0.19859 0.41279 0.0
C210 C 0.5497 0.22832 0.41785 0.0
C211 C 0.55241 0.23856 0.44571 0.0
C212 C 0.64457 0.10303 0.44645 0.0
C213 C 0.65241 0.07236 0.44857 0.0
C214 C 0.66475 0.12519 0.4548 0.0
C215 C 0.69217 0.11702 0.46426 0.0
C216 C 0.70057 0.08658 0.46481 0.0
C217 C 0.68012 0.06429 0.45725 0.0
C218 C 0.56075 0.2182 0.46876 0.0
H219 H 0.56553 0.02282 0.34277 0.0
H220 H 0.57651 0.04555 0.38823 0.0
H221 H 0.55711 0.13428 0.34782 0.0
H222 H 0.54554 0.11147 0.30289 0.0
H223 H 0.61553 0.07825 0.40264 0.0
H224 H 0.54521 0.13941 0.39705 0.0
H225 H 0.61177 0.15006 0.46022 0.0
H226 H 0.57374 0.17314 0.48204 0.0
H227 H 0.55595 0.19203 0.3907 0.0
H228 H 0.54347 0.24373 0.39971 0.0
H229 H 0.63734 0.05451 0.44294 0.0
H230 H 0.6599 0.14913 0.45316 0.0
H231 H 0.56257 0.22555 0.49054 0.0
H232 H 0.68565 0.04063 0.457 0.0
H233 H 0.70692 0.13482 0.47059 0.0
C234 C 0.23824 0.61108 0.1573 0.0
C235 C 0.23562 0.61326 0.12689 0.0
C236 C 0.26325 0.62194 0.17051 0.0
C237 C 0.28633 0.63518 0.15366 0.0
C238 C 0.2838 0.63705 0.12326 0.0
C239 C 0.25877 0.62639 0.11008 0.0
C240 C 0.31274 0.64748 0.1676 0.0
C241 C 0.32449 0.63219 0.19252 0.0
C242 C 0.34943 0.6438 0.20568 0.0
C243 C 0.36251 0.67113 0.19357 0.0
C244 C 0.35147 0.68641 0.16846 0.0
C245 C 0.3265 0.67458 0.15579 0.0
C246 C 0.36657 0.71427 0.15503 0.0
C247 C 0.3769 0.73722 0.1722 0.0
C248 C 0.37148 0.71766 0.12493 0.0
C249 C 0.38661 0.74327 0.11231 0.0
C250 C 0.39707 0.76624 0.12945 0.0
C251 C 0.36224 0.62736 0.23176 0.0
C252 C 0.34465 0.61268 0.25376 0.0
C253 C 0.39235 0.62675 0.23511 0.0
C254 C 0.40453 0.61265 0.26004 0.0
C255 C 0.38701 0.59822 0.28222 0.0
C256 C 0.35688 0.5982 0.2786 0.0
C257 C 0.39191 0.76294 0.15955 0.0
H258 H 0.22106 0.60077 0.17098 0.0
H259 H 0.2643 0.62035 0.19398 0.0
H260 H 0.30124 0.64667 0.10952 0.0
H261 H 0.25749 0.62887 0.08665 0.0
H262 H 0.31468 0.61074 0.20115 0.0
H263 H 0.31748 0.6869 0.13692 0.0
H264 H 0.38161 0.68047 0.2035 0.0
H265 H 0.37316 0.73541 0.19541 0.0
H266 H 0.36418 0.70014 0.11119 0.0
H267 H 0.39058 0.74474 0.08914 0.0
H268 H 0.32138 0.61283 0.25209 0.0
H269 H 0.40669 0.63723 0.21845 0.0
H270 H 0.39919 0.78039 0.17337 0.0
H271 H 0.34263 0.58695 0.29493 0.0
H272 H 0.42778 0.61364 0.26205 0.0
C273 C 0.04106 0.29295 0.59876 0.0
C274 C 0.03522 0.2842 0.57069 0.0
C275 C 0.05142 0.3224 0.60294 0.0
C276 C 0.05613 0.34385 0.57915 0.0
C277 C 0.04908 0.33552 0.55121 0.0
C278 C 0.03871 0.30603 0.54702 0.0
C279 C 0.0705 0.37385 0.58327 0.0
C280 C 0.09339 0.38454 0.56487 0.0
C281 C 0.1093 0.41115 0.57012 0.0
C282 C 0.10129 0.42789 0.59332 0.0
C283 C 0.07925 0.41706 0.6128 0.0
C284 C 0.06366 0.39019 0.60724 0.0
C285 C 0.07511 0.43164 0.64061 0.0
C286 C 0.09898 0.44441 0.65461 0.0
C287 C 0.04798 0.43129 0.65442 0.0
C288 C 0.04513 0.44222 0.68194 0.0
C289 C 0.06925 0.45422 0.69613 0.0
C290 C 0.13712 0.41876 0.55487 0.0
C291 C 0.15712 0.39583 0.5522 0.0
C292 C 0.14549 0.44912 0.54651 0.0
C293 C 0.17374 0.45653 0.53715 0.0
C294 C 0.19425 0.43374 0.53615 0.0
C295 C 0.18531 0.40322 0.54305 0.0
C296 C 0.09598 0.45597 0.68162 0.0
H297 H 0.03824 0.27679 0.61749 0.0
H298 H 0.05689 0.32792 0.62473 0.0
H299 H 0.05224 0.35162 0.53248 0.0
H300 H 0.03462 0.3 0.5251 0.0
H301 H 0.09988 0.37125 0.5473 0.0
H302 H 0.04698 0.38115 0.62221 0.0
H303 H 0.11362 0.44842 0.59727 0.0
H304 H 0.12042 0.44466 0.64531 0.0
H305 H 0.02897 0.42213 0.64424 0.0
H306 H 0.02417 0.44035 0.69239 0.0
H307 H 0.15156 0.37229 0.55898 0.0
H308 H 0.13045 0.46723 0.54813 0.0
H309 H 0.11496 0.46581 0.69132 0.0
H310 H 0.20049 0.38505 0.54308 0.0
H311 H 0.1797 0.4802 0.53149 0.0
Co312 Co 0.98724 0.01787 0.49481 0.0
C313 C 0.00998 0.95981 0.49012 0.0
Co314 Co 0.02913 0.01013 0.5158 0.0
C315 C 0.92763 0.03265 0.48701 0.0
C316 C 0.94397 0.00868 0.45214 0.0
N317 N 0.95181 0.0207 0.47705 0.0
N318 N 0.90499 0.02809 0.46951 0.0
C319 C 0.91507 0.01298 0.44757 0.0
H320 H 0.92638 0.04348 0.50721 0.0
H321 H 0.95821 0.99692 0.43853 0.0
C322 C 1.00594 0.06822 0.52047 0.0
N323 N 0.06491 0.00784 0.53302 0.0
C324 C 0.07801 0.98402 0.54694 0.0
C325 C 0.0841 0.03146 0.53364 0.0
N326 N 0.10439 0.99217 0.5565 0.0
C327 C 0.10824 0.02196 0.5482 0.0
C328 C 0.03337 0.03379 0.45757 0.0
O329 O 0.98499 0.05838 0.50589 0.0
O330 O 0.02667 0.05081 0.52672 0.0
O331 O 0.04758 0.02466 0.47989 0.0
O332 O 1.00596 0.03309 0.45916 0.0
O333 O 0.03104 0.96923 0.5049 0.0
H334 H 0.08097 0.05415 0.52371 0.0
H335 H 0.06847 0.96126 0.54999 0.0
O336 O 0.98955 0.97758 0.48377 0.0
O337 O 0.96874 1.00241 0.53073 0.0
O338 O 0.01069 0.99558 0.55157 0.0
C339 C 0.98327 0.99387 0.55311 0.0
H340 H 0.90239 0.00556 0.42964 0.0
H341 H 0.12757 0.03563 0.55159 0.0
Co342 Co 0.50678 1.0011 0.99347 0.0
C343 C 0.49973 0.9531 0.03593 0.0
Co344 Co 0.53095 0.00771 0.03344 0.0
C345 C 0.49674 0.99684 0.93277 0.0
C346 C 0.45978 0.98184 0.95856 0.0
N347 N 0.48654 0.99449 0.96023 0.0
N348 N 0.47763 0.98559 0.91421 0.0
C349 C 0.45437 0.97603 0.93024 0.0
H350 H 0.51848 1.00462 0.92683 0.0
H351 H 0.44581 0.97566 0.97699 0.0
C352 C 0.5378 0.05574 0.99094 0.0
N353 N 0.55142 0.01391 0.06672 0.0
C354 C 0.54138 0.01225 0.09421 0.0
C355 C 0.57976 0.02118 0.06875 0.0
N356 N 0.56233 0.01814 0.11334 0.0
C357 C 0.58655 0.0237 0.09742 0.0
C358 C 0.56289 0.97912 0.9924 0.0
O359 O 0.52066 0.03952 0.9767 0.0
O360 O 0.54496 0.0461 0.01646 0.0
O361 O 0.56374 0.98857 0.01772 0.0
O362 O 0.53971 0.982 0.97798 0.0
O363 O 0.51679 0.9692 0.05038 0.0
H364 H 0.59446 0.02473 0.05051 0.0
H365 H 0.51913 0.00667 0.10008 0.0
O366 O 0.493 0.96281 0.01037 0.0
O367 O 0.47395 0.02006 0.00906 0.0
O368 O 0.49795 0.02696 0.04884 0.0
C369 C 0.47476 0.02971 0.03432 0.0
H370 H 0.43538 0.96455 0.9222 0.0
H371 H 0.6075 0.02995 0.10581 0.0
Co372 Co 0.52866 0.51135 0.50396 0.0
C373 C 0.48216 0.51833 0.46644 0.0
Co374 Co 0.48763 0.4916 0.52239 0.0
C375 C 0.58987 0.52397 0.49427 0.0
C376 C 0.56334 0.55895 0.47511 0.0
N377 N 0.56208 0.53115 0.48958 0.0
N378 N 0.60829 0.5465 0.48374 0.0
C379 C 0.59168 0.56847 0.47158 0.0
H380 H 0.59643 0.50344 0.50653 0.0
H381 H 0.54478 0.57206 0.46869 0.0
C382 C 0.53434 0.48452 0.55974 0.0
N383 N 0.45406 0.472 0.53667 0.0
C384 C 0.42643 0.47948 0.53149 0.0
C385 C 0.45231 0.44429 0.55127 0.0
N386 N 0.40762 0.45725 0.54179 0.0
C387 C 0.42381 0.43513 0.55436 0.0
C388 C 0.52097 0.45243 0.49177 0.0
O389 O 0.54788 0.49914 0.53892 0.0
O390 O 0.5075 0.47865 0.55717 0.0
O391 O 0.49764 0.45555 0.50552 0.0
O392 O 0.5391 0.47467 0.48838 0.0
O393 O 0.46821 0.50486 0.48763 0.0
H394 H 0.47063 0.43092 0.55796 0.0
H395 H 0.42029 0.49996 0.51887 0.0
O396 O 0.50915 0.52319 0.46887 0.0
O397 O 0.51793 0.54793 0.51988 0.0
O398 O 0.4778 0.52764 0.53901 0.0
C399 C 0.49508 0.55047 0.53461 0.0
H400 H 0.59949 0.59014 0.46141 0.0
H401 H 0.41564 0.4135 0.56431 0.0
Co402 Co 0.03045 0.50562 0.98287 0.0
C403 C 0.97651 0.47791 0.97926 0.0
Co404 Co 1.00529 0.50644 0.02329 0.0
C405 C 0.04452 0.50677 0.92158 0.0
C406 C 0.08111 0.49977 0.94911 0.0
N407 N 0.05265 0.5049 0.94967 0.0
N408 N 0.06683 0.50281 0.90346 0.0
C409 C 0.08986 0.49847 0.92089 0.0
H410 H 0.02254 0.51035 0.91472 0.0
H411 H 0.09447 0.4961 0.96811 0.0
C412 C 0.05933 0.53408 0.02689 0.0
N413 N 0.9836 0.50619 0.05695 0.0
C414 C 0.98383 0.52668 0.07724 0.0
C415 C 0.96567 0.48334 0.06763 0.0
N416 N 0.96683 0.51743 0.10023 0.0
C417 C 0.9553 0.4902 0.09412 0.0
C418 C 0.03936 0.45533 0.02227 0.0
O419 O 0.06105 0.52687 1.00088 0.0
O420 O 0.03617 0.52763 0.04109 0.0
O421 O 0.02129 0.46849 0.0374 0.0
O422 O 0.0462 0.46755 0.99727 0.0
O423 O 0.97469 0.48521 1.00524 0.0
H424 H 0.96124 0.46247 0.05732 0.0
H425 H 0.99664 0.5477 0.07539 0.0
O426 O 0.99963 0.48443 0.96502 0.0
O427 O 0.01458 0.54358 0.96875 0.0
O428 O 0.98933 0.54449 0.00889 0.0
C429 C 0.99632 0.55668 0.98383 0.0
H430 H 0.11134 0.4933 0.91401 0.0
H431 H 0.94138 0.47556 0.10833 0.0
H432 H 0.08136 0.12419 0.28958 0.0
H433 H 0.09091 0.03038 0.44446 0.0
H434 H 0.15491 0.07133 0.31609 0.0
H435 H 0.01099 0.0627 0.40803 0.0
H436 H 0.11581 0.04874 0.39941 0.0
H437 H 0.05649 0.10521 0.3342 0.0
C438 C 0.09232 0.1084 0.30453 0.0
C439 C 0.12044 0.09931 0.29856 0.0
C440 C 0.09282 0.05179 0.40123 0.0
C441 C 0.09192 0.07795 0.35059 0.0
C442 C 0.07855 0.04137 0.42703 0.0
C443 C 0.04871 0.04493 0.43017 0.0
C444 C 0.07731 0.06627 0.37834 0.0
C445 C 0.03395 0.05935 0.40667 0.0
C446 C 0.07805 0.09771 0.33023 0.0
C447 C 0.1335 0.07942 0.31959 0.0
N448 N 0.04839 0.06957 0.38189 0.0
N449 N 0.11921 0.06952 0.34455 0.0
H450 H 0.49658 0.89995 0.75585 0.0
H451 H 0.49597 0.02614 0.87087 0.0
H452 H 0.4675 0.99064 0.73326 0.0
H453 H 0.47222 0.93164 0.89112 0.0
H454 H 0.50294 0.01559 0.81962 0.0
H455 H 0.50689 0.91434 0.80509 0.0
C456 C 0.49345 0.92321 0.761 0.0
C457 C 0.48111 0.94417 0.74075 0.0
C458 C 0.49656 0.99719 0.83546 0.0
C459 C 0.49252 0.96056 0.79661 0.0
C460 C 0.49256 1.00318 0.86443 0.0
C461 C 0.4831 0.97974 0.88472 0.0
C462 C 0.49187 0.96741 0.82726 0.0
C463 C 0.47905 0.95028 0.87577 0.0
C464 C 0.49903 0.93128 0.78905 0.0
C465 C 0.47696 0.97391 0.74847 0.0
N466 N 0.48349 0.94489 0.84764 0.0
N467 N 0.48238 0.98121 0.776 0.0
H468 H 0.65829 0.40327 0.67886 0.0
H469 H 0.51187 0.46691 0.61356 0.0
H470 H 0.59127 0.43376 0.73352 0.0
H471 H 0.59231 0.4774 0.56618 0.0
H472 H 0.53841 0.44832 0.65688 0.0
H473 H 0.63219 0.42397 0.63603 0.0
C474 C 0.63807 0.41435 0.68178 0.0
C475 C 0.6269 0.41694 0.70967 0.0
C476 C 0.55019 0.45483 0.637 0.0
C477 C 0.59683 0.44019 0.66097 0.0
C478 C 0.53508 0.46531 0.61228 0.0
C479 C 0.54992 0.47376 0.58626 0.0
C480 C 0.58023 0.45218 0.63548 0.0
C481 C 0.58003 0.47127 0.58582 0.0
C482 C 0.62328 0.42623 0.65742 0.0
C483 C 0.60068 0.43156 0.71235 0.0
N484 N 0.59417 0.46045 0.60999 0.0
N485 N 0.58637 0.44241 0.68828 0.0
H486 H 0.91134 0.55584 0.26987 0.0
H487 H 1.00464 0.55681 0.1243 0.0
H488 H 0.9873 0.61399 0.25417 0.0
H489 H 0.92155 0.51091 0.13751 0.0
H490 H 0.99971 0.57783 0.17153 0.0
H491 H 0.91618 0.53823 0.22165 0.0
C492 C 0.92897 0.56512 0.25617 0.0
C493 C 0.94875 0.58674 0.26602 0.0
C494 C 0.98253 0.56326 0.16398 0.0
C495 C 0.95471 0.56617 0.21059 0.0
C496 C 0.98523 0.5514 0.13692 0.0
C497 C 0.96354 0.53184 0.12696 0.0
C498 C 0.95802 0.55543 0.18117 0.0
C499 C 0.93905 0.52537 0.14448 0.0
C500 C 0.93179 0.55492 0.22861 0.0
C501 C 0.97163 0.59722 0.24752 0.0
N502 N 0.93704 0.537 0.17071 0.0
N503 N 0.97397 0.58685 0.22063 0.0
H504 H 0.29981 0.08354 0.0696 0.0
H505 H 0.46947 0.05542 0.08657 0.0
H506 H 0.35088 0.11679 0.13915 0.0
H507 H 0.42036 0.0344 0.01114 0.0
H508 H 0.42616 0.07615 0.10718 0.0
H509 H 0.34332 0.06385 0.049 0.0
C510 C 0.32011 0.08698 0.08054 0.0
C511 C 0.32133 0.10216 0.10627 0.0
C512 C 0.42486 0.06708 0.08609 0.0
C513 C 0.3717 0.07888 0.08273 0.0
C514 C 0.44964 0.05521 0.07426 0.0
C515 C 0.44874 0.04313 0.04695 0.0
C516 C 0.39875 0.06677 0.07068 0.0
C517 C 0.42226 0.04349 0.03218 0.0
C518 C 0.34504 0.07548 0.06876 0.0
C519 C 0.3485 0.10501 0.11956 0.0
N520 N 0.39844 0.05498 0.04422 0.0
N521 N 0.37245 0.09354 0.10769 0.0
H522 H 0.26091 0.94291 0.63881 0.0
H523 H 0.11673 0.93436 0.54561 0.0
H524 H 0.24404 0.87361 0.57925 0.0
H525 H 0.14055 0.00727 0.59873 0.0
H526 H 0.15876 0.90634 0.56396 0.0
H527 H 0.21264 0.96124 0.63056 0.0
C528 C 0.24691 0.93122 0.62428 0.0
C529 C 0.25664 0.9067 0.60963 0.0
C530 C 0.15452 0.92828 0.57189 0.0
C531 C 0.20128 0.9282 0.5995 0.0
C532 C 0.13049 0.94409 0.56161 0.0
C533 C 0.12559 0.97323 0.57048 0.0
C534 C 0.17344 0.94177 0.59123 0.0
C535 C 0.144 0.98506 0.59106 0.0
C536 C 0.21933 0.94187 0.61941 0.0
C537 C 0.23759 0.89291 0.59063 0.0
N538 N 0.16724 0.96941 0.60056 0.0
N539 N 0.21084 0.904 0.58592 0.0
H540 H 0.83866 0.43681 0.86132 0.0
H541 H 0.92968 0.44873 1.00599 0.0
H542 H 0.81916 0.38111 0.94016 0.0
H543 H 0.96582 0.47467 0.92123 0.0
H544 H 0.88683 0.42779 0.98295 0.0
H545 H 0.88316 0.4554 0.88361 0.0
C546 C 0.84374 0.42858 0.88334 0.0
C547 C 0.82526 0.40739 0.89893 0.0
C548 C 0.90422 0.43789 0.9694 0.0
C549 C 0.87589 0.42859 0.92455 0.0
C550 C 0.92866 0.44989 0.98252 0.0
C551 C 0.95137 0.46344 0.9655 0.0
C552 C 0.90219 0.43992 0.93902 0.0
C553 C 0.94887 0.46429 0.93518 0.0
C554 C 0.86917 0.43901 0.89596 0.0
C555 C 0.83294 0.39726 0.92731 0.0
N556 N 0.92459 0.45295 0.92289 0.0
N557 N 0.85755 0.40812 0.93928 0.0
H558 H 0.78689 0.52517 0.45117 0.0
H559 H 0.64084 0.59599 0.49496 0.0
H560 H 0.78387 0.60666 0.49702 0.0
H561 H 0.64574 0.50101 0.47971 0.0
H562 H 0.69345 0.5999 0.49648 0.0
H563 H 0.73578 0.51458 0.46257 0.0
C564 C 0.77553 0.5405 0.46412 0.0
C565 C 0.78946 0.56692 0.47304 0.0
C566 C 0.68309 0.57808 0.49312 0.0
C567 C 0.73106 0.55532 0.48566 0.0
C568 C 0.6531 0.57594 0.49201 0.0
C569 C 0.63909 0.54824 0.48684 0.0
C570 C 0.69924 0.55247 0.48846 0.0
C571 C 0.65586 0.52275 0.48369 0.0
C572 C 0.74643 0.53445 0.47063 0.0
C573 C 0.77391 0.58601 0.48983 0.0
N574 N 0.68516 0.52558 0.48408 0.0
N575 N 0.74538 0.58013 0.49516 0.0
H576 H 0.08827 0.29426 0.12945 0.0
H577 H 0.08312 0.42458 0.99832 0.0
H578 H 0.15091 0.30362 0.05993 0.0
H579 H 0.0273 0.42114 0.07339 0.0
H580 H 0.10661 0.37891 0.01907 0.0
H581 H 0.06425 0.33905 0.10789 0.0
C582 C 0.09693 0.30558 0.10954 0.0
C583 C 0.12171 0.2949 0.09652 0.0
C584 C 0.08919 0.38811 0.03099 0.0
C585 C 0.09421 0.34672 0.07165 0.0
C586 C 0.07567 0.41417 0.0191 0.0
C587 C 0.05311 0.42685 0.03407 0.0
C588 C 0.08009 0.37436 0.05808 0.0
C589 C 0.04456 0.41229 0.06101 0.0
C590 C 0.08325 0.33135 0.09731 0.0
C591 C 0.13208 0.31105 0.07096 0.0
N592 N 0.058 0.38692 0.07208 0.0
N593 N 0.11827 0.336 0.05936 0.0
H594 H 0.64769 0.21537 0.94884 0.0
H595 H 0.52526 0.08462 0.93802 0.0
H596 H 0.58654 0.2142 0.87874 0.0
H597 H 0.57889 0.09318 0.01332 0.0
H598 H 0.54774 0.13163 0.9156 0.0
H599 H 0.62333 0.16997 0.97231 0.0
C600 C 0.62918 0.2055 0.93834 0.0
C601 C 0.6192 0.21857 0.91174 0.0
C602 C 0.55449 0.1233 0.93708 0.0
C603 C 0.59107 0.16663 0.93858 0.0
C604 C 0.54166 0.09644 0.94991 0.0
C605 C 0.55021 0.0849 0.9776 0.0
C606 C 0.57618 0.13865 0.95196 0.0
C607 C 0.57159 0.10122 0.99195 0.0
C608 C 0.61517 0.17968 0.95184 0.0
C609 C 0.59483 0.20506 0.89936 0.0
N610 N 0.58391 0.12715 0.97891 0.0
N611 N 0.58169 0.17976 0.9128 0.0
H612 H 0.94114 0.79758 0.42194 0.0
H613 H 0.04196 0.91007 0.50848 0.0
H614 H 0.01121 0.76521 0.47584 0.0
H615 H 0.97315 0.93799 0.45067 0.0
H616 H 0.03398 0.85735 0.4953 0.0
H617 H 0.95516 0.84962 0.43085 0.0
C618 C 0.95949 0.80149 0.43578 0.0
C619 C 0.97478 0.77704 0.4485 0.0
C620 C 0.02085 0.87515 0.48539 0.0
C621 C 0.99122 0.83688 0.4588 0.0
C622 C 0.02544 0.9052 0.49284 0.0
C623 C 1.00801 0.9284 0.48088 0.0
C624 C 0.99875 0.86849 0.46585 0.0
C625 C 0.98691 0.92085 0.46073 0.0
C626 C 0.96763 0.83127 0.44076 0.0
C627 C 0.99882 0.78348 0.46569 0.0
N628 N 0.98283 0.89165 0.45403 0.0
N629 N 1.00619 0.81284 0.47058 0.0
H630 H 0.42725 0.69465 0.62925 0.0
H631 H 0.52326 0.60527 0.52234 0.0
H632 H 0.47996 0.73939 0.56049 0.0
H633 H 0.45257 0.56262 0.57296 0.0
H634 H 0.51209 0.65401 0.5408 0.0
H635 H 0.44069 0.64539 0.61335 0.0
C636 C 0.4416 0.69416 0.61078 0.0
C637 C 0.45231 0.72128 0.59606 0.0
C638 C 0.49904 0.63398 0.54787 0.0
C639 C 0.46812 0.66494 0.57812 0.0
C640 C 0.50543 0.60613 0.53742 0.0
C641 C 0.48874 0.57987 0.54607 0.0
C642 C 0.47595 0.63556 0.56731 0.0
C643 C 0.4659 0.58235 0.56562 0.0
C644 C 0.44933 0.66602 0.60182 0.0
C645 C 0.4714 0.71916 0.57272 0.0
N646 N 0.46019 0.60974 0.57564 0.0
N647 N 0.47864 0.69147 0.56444 0.0
H648 H 0.9353 0.94467 0.73364 0.0
H649 H 0.92701 0.97315 0.56071 0.0
H650 H 0.87201 0.89888 0.68289 0.0
H651 H 1.00572 0.98674 0.60813 0.0
H652 H 0.90349 0.9522 0.60586 0.0
H653 H 0.95828 0.9667 0.68857 0.0
C654 C 0.92611 0.93941 0.71303 0.0
C655 C 0.90167 0.91982 0.71212 0.0
C656 C 0.9259 0.95979 0.60636 0.0
C657 C 0.92783 0.94518 0.66032 0.0
C658 C 0.93934 0.97187 0.58061 0.0
C659 C 0.96847 0.98171 0.58051 0.0
C660 C 0.94147 0.95799 0.63246 0.0
C661 C 0.98329 0.97935 0.60706 0.0
C662 C 0.93935 0.95185 0.6873 0.0
C663 C 0.89091 0.91364 0.68468 0.0
N664 N 0.96963 0.96794 0.63191 0.0
N665 N 0.90391 0.92638 0.65996 0.0
H666 H 0.51251 0.0754 0.27866 0.0
H667 H 0.60229 0.00505 0.15456 0.0
H668 H 0.59101 0.02701 0.29466 0.0
H669 H 0.51541 0.03547 0.14227 0.0
H670 H 0.59794 0.01174 0.20637 0.0
H671 H 0.51209 0.05953 0.22905 0.0
C672 C 0.52947 0.06116 0.27179 0.0
C673 C 0.55189 0.05262 0.29071 0.0
C674 C 0.5797 0.01668 0.19241 0.0
C675 C 0.55173 0.03462 0.23405 0.0
C676 C 0.58227 0.01306 0.16283 0.0
C677 C 0.55926 0.01993 0.14412 0.0
C678 C 0.55405 0.02765 0.20331 0.0
C679 C 0.53361 0.02977 0.15599 0.0
C680 C 0.52919 0.05204 0.24354 0.0
C681 C 0.57321 0.03393 0.28085 0.0
N682 N 0.5318 0.03366 0.18481 0.0
N683 N 0.57279 0.02586 0.25309 0.0
H684 H 0.43811 0.56807 0.28777 0.0
H685 H 0.42417 0.52497 0.45802 0.0
H686 H 0.36628 0.59543 0.33842 0.0
H687 H 0.50606 0.53476 0.41316 0.0
H688 H 0.4001 0.54284 0.413 0.0
H689 H 0.46084 0.54786 0.33238 0.0
C690 C 0.42708 0.57 0.30819 0.0
C691 C 0.40025 0.5839 0.30914 0.0
C692 C 0.42333 0.54102 0.41308 0.0
C693 C 0.42603 0.55991 0.36036 0.0
C694 C 0.43707 0.53074 0.43869 0.0
C695 C 0.46719 0.52846 0.43935 0.0
C696 C 0.43976 0.54856 0.38785 0.0
C697 C 0.48282 0.53631 0.41367 0.0
C698 C 0.44008 0.55826 0.33365 0.0
C699 C 0.38677 0.58471 0.33638 0.0
N700 N 0.46892 0.54587 0.38894 0.0
N701 N 0.39979 0.5729 0.36087 0.0
H702 H 0.02381 0.4806 0.72297 0.0
H703 H 0.11231 0.50779 0.86599 0.0
H704 H 0.1099 0.44863 0.73899 0.0
H705 H 0.0198 0.49277 0.86938 0.0
H706 H 0.11176 0.49788 0.81501 0.0
H707 H 0.02186 0.49524 0.77312 0.0
C708 C 0.04226 0.4766 0.73685 0.0
C709 C 0.0672 0.46359 0.72639 0.0
C710 C 0.09158 0.49686 0.82696 0.0
C711 C 0.06525 0.48111 0.78333 0.0
C712 C 0.09184 0.50239 0.85618 0.0
C713 C 0.06614 0.50045 0.87246 0.0
C714 C 0.06542 0.48976 0.81358 0.0
C715 C 0.04019 0.49444 0.85791 0.0
C716 C 0.04113 0.48514 0.76538 0.0
C717 C 0.09052 0.45937 0.7455 0.0
N718 N 0.04049 0.48916 0.82927 0.0
N719 N 0.08902 0.46828 0.77286 0.0
H720 H 0.68147 0.88153 0.88863 0.0
H721 H 0.61886 0.98041 0.01191 0.0
H722 H 0.73564 0.9374 0.94018 0.0
H723 H 0.56637 0.94807 0.94306 0.0
H724 H 0.66142 0.96026 0.98934 0.0
H725 H 0.63882 0.90109 0.91158 0.0
C726 C 0.68444 0.89781 0.90486 0.0
C727 C 0.71233 0.90779 0.9124 0.0
C728 C 0.64059 0.95754 0.97919 0.0
C729 C 0.66334 0.93027 0.93898 0.0
C730 C 0.6162 0.96892 0.99215 0.0
C731 C 0.58885 0.96597 0.97945 0.0
C732 C 0.63773 0.94263 0.95345 0.0
C733 C 0.58694 0.95095 0.95368 0.0
C734 C 0.66003 0.9091 0.91786 0.0
C735 C 0.71466 0.92921 0.93343 0.0
N736 N 0.61093 0.93977 0.94166 0.0
N737 N 0.69059 0.93955 0.94605 0.0
H738 H 0.72082 0.03294 0.49106 0.0
H739 H 0.88697 0.08241 0.48436 0.0
H740 H 0.75024 0.12143 0.45326 0.0
H741 H 0.85706 0.99293 0.46422 0.0
H742 H 0.83646 0.09751 0.48808 0.0
H743 H 0.77108 0.01839 0.496 0.0
C744 C 0.73764 0.0494 0.48387 0.0
C745 C 0.73095 0.07842 0.47131 0.0
C746 C 0.84108 0.07451 0.48315 0.0
C747 C 0.78844 0.06211 0.47813 0.0
C748 C 0.86968 0.06593 0.48113 0.0
C749 C 0.87583 0.03657 0.47374 0.0
C750 C 0.81875 0.05323 0.4785 0.0
C751 C 0.85294 0.01588 0.46962 0.0
C752 C 0.76629 0.04108 0.48696 0.0
C753 C 0.754 0.09898 0.46341 0.0
N754 N 0.82528 0.02456 0.47215 0.0
N755 N 0.78169 0.09041 0.46693 0.0
H756 H 0.1791 0.61619 0.14492 0.0
H757 H 0.11372 0.54403 1.00458 0.0
H758 H 0.23099 0.5846 0.07623 0.0
H759 H 0.06296 0.55542 0.08121 0.0
H760 H 0.15616 0.56381 0.02885 0.0
H761 H 0.13578 0.59803 0.12068 0.0
C762 C 0.18149 0.60529 0.12487 0.0
C763 C 0.20891 0.60203 0.11265 0.0
C764 C 0.13574 0.56207 0.04036 0.0
C765 C 0.1592 0.58169 0.0845 0.0
C766 C 0.11142 0.55089 0.02646 0.0
C767 C 0.08469 0.54799 0.04088 0.0
C768 C 0.13341 0.57063 0.0689 0.0
C769 C 0.08313 0.55721 0.06927 0.0
C770 C 0.15667 0.59509 0.11096 0.0
C771 C 0.21042 0.58817 0.0863 0.0
N772 N 0.10716 0.56811 0.08236 0.0
N773 N 0.18597 0.57862 0.07314 0.0
H774 H 0.22585 0.48294 0.55361 0.0
H775 H 0.37536 0.40762 0.53019 0.0
H776 H 0.23399 0.40236 0.50686 0.0
H777 H 0.37024 0.50326 0.54267 0.0
H778 H 0.32311 0.40467 0.52384 0.0
H779 H 0.27811 0.49125 0.55082 0.0
C780 C 0.23845 0.4673 0.54223 0.0
C781 C 0.22536 0.44165 0.53075 0.0
C782 C 0.33339 0.42638 0.52777 0.0
C783 C 0.28535 0.45066 0.5283 0.0
C784 C 0.36314 0.42798 0.53168 0.0
C785 C 0.37698 0.45566 0.53725 0.0
C786 C 0.31723 0.45253 0.52996 0.0
C787 C 0.36026 0.48153 0.53841 0.0
C788 C 0.26836 0.47199 0.54085 0.0
C789 C 0.24308 0.422 0.51669 0.0
N790 N 0.33114 0.47929 0.53516 0.0
N791 N 0.27216 0.42667 0.51624 0.0
H792 H 0.88274 0.70936 0.95044 0.0
H793 H 1.00687 0.5891 0.93149 0.0
H794 H 0.94014 0.71289 0.87653 0.0
H795 H 0.95379 0.58896 1.0083 0.0
H796 H 0.98253 0.63426 0.91109 0.0
H797 H 0.90824 0.66545 0.97193 0.0
C798 C 0.90078 0.70113 0.93873 0.0
C799 C 0.90912 0.71513 0.91146 0.0
C800 C 0.97623 0.62445 0.93245 0.0
C801 C 0.9384 0.66421 0.93604 0.0
C802 C 0.99018 0.5986 0.94418 0.0
C803 C 0.98247 0.58506 0.97175 0.0
C804 C 0.95419 0.637 0.94826 0.0
C805 C 0.96057 0.59854 0.98701 0.0
C806 C 0.91528 0.67585 0.95101 0.0
C807 C 0.93248 0.70279 0.89731 0.0
N808 N 0.9472 0.62362 0.97507 0.0
N809 N 0.94619 0.67817 0.9097 0.0
H810 H 0.44416 0.79674 0.15082 0.0
H811 H 0.46025 0.91567 0.01147 0.0
H812 H 0.38709 0.79797 0.07714 0.0
H813 H 0.50851 0.92487 0.09022 0.0
H814 H 0.43617 0.86985 0.03398 0.0
H815 H 0.47027 0.84147 0.12808 0.0
C816 C 0.43698 0.80646 0.12996 0.0
C817 C 0.4133 0.79346 0.11593 0.0
C818 C 0.45207 0.88181 0.04636 0.0
C819 C 0.44348 0.84445 0.08957 0.0
C820 C 0.46594 0.90796 0.03347 0.0
C821 C 0.48644 0.92422 0.049 0.0
C822 C 0.45871 0.87164 0.07502 0.0
C823 C 0.49284 0.91308 0.07745 0.0
C824 C 0.45204 0.83191 0.11692 0.0
C825 C 0.40542 0.80682 0.08864 0.0
N826 N 0.47899 0.88749 0.08957 0.0
N827 N 0.42046 0.8315 0.0764 0.0
H828 H 0.05855 0.23316 0.59712 0.0
H829 H 0.97051 0.11547 0.5042 0.0
H830 H 0.99539 0.26156 0.53307 0.0
H831 H 0.04394 0.09257 0.5578 0.0
H832 H 0.97499 0.16804 0.51831 0.0
H833 H 0.04872 0.18039 0.58713 0.0
C834 C 0.04229 0.22829 0.58121 0.0
C835 C 0.02777 0.2519 0.56593 0.0
C836 C 0.99001 0.15141 0.52702 0.0
C837 C 0.01674 0.19128 0.55394 0.0
C838 C 0.98743 0.12143 0.51905 0.0
C839 C 1.00698 0.09965 0.5297 0.0
C840 C 0.01215 0.15951 0.54593 0.0
C841 C 0.02848 0.10861 0.54888 0.0
C842 C 0.03686 0.19811 0.57532 0.0
C843 C 1.00732 0.24411 0.54514 0.0
N844 N 0.03049 0.13779 0.55631 0.0
N845 N 1.00245 0.21446 0.53969 0.0
H846 H 0.50604 0.27248 0.42971 0.0
H847 H 0.57336 0.42825 0.48131 0.0
H848 H 0.58869 0.27779 0.4718 0.0
H849 H 0.48169 0.40902 0.47784 0.0
H850 H 0.58185 0.3764 0.46767 0.0
H851 H 0.49917 0.32626 0.43754 0.0
C852 C 0.52272 0.28506 0.44053 0.0
C853 C 0.54781 0.27081 0.45042 0.0
C854 C 0.55992 0.38373 0.46973 0.0
C855 C 0.54038 0.33203 0.45898 0.0
C856 C 0.55509 0.41326 0.47729 0.0
C857 C 0.52681 0.42272 0.48085 0.0
C858 C 0.5363 0.36396 0.4652 0.0
C859 C 0.50383 0.40246 0.47556 0.0
C860 C 0.51881 0.31561 0.44501 0.0
C861 C 0.56887 0.28798 0.46427 0.0
N862 N 0.50907 0.37401 0.46796 0.0
N863 N 0.56474 0.3178 0.46807 0.0
loop_
_geom_bond_atom_site_label_1
_geom_bond_atom_site_label_2
_geom_bond_distance
_geom_bond_site_symmetry_2
_ccdc_geom_bond_type
C0 C1 1.386 . S
C0 C2 1.397 . S
C0 H24 0.931 . S
C1 C0 1.386 . S
C1 C5 1.397 . S
C2 C0 1.397 . S
C2 C3 1.384 . S
C2 H25 0.930 . S
C3 C2 1.384 . S
C3 C4 1.377 . S
C3 C6 1.481 . S
C4 C3 1.377 . S
C4 C5 1.389 . S
C4 H26 0.929 . S
C5 C1 1.397 . S
C5 C4 1.389 . S
C5 H27 0.931 . S
C6 C3 1.481 . S
C6 C7 1.387 . S
C6 C11 1.390 . S
C7 C6 1.387 . S
C7 C8 1.401 . S
C7 H28 0.930 . S
C8 C7 1.401 . S
C8 C9 1.376 . S
C8 C17 1.511 . S
C9 C8 1.376 . S
C9 C10 1.392 . S
C9 H30 0.931 . S
C10 C9 1.392 . S
C10 C11 1.361 . S
C10 C12 1.500 . S
C11 C6 1.390 . S
C11 C10 1.361 . S
C11 H29 0.931 . S
C12 C10 1.500 . S
C12 C13 1.371 . S
C12 C14 1.365 . S
C13 C12 1.371 . S
C13 C23 1.386 . S
C13 H31 0.931 . S
C14 C12 1.365 . S
C14 C15 1.409 . S
C14 H32 0.929 . S
C15 C14 1.409 . S
C15 C16 1.380 . S
C15 H33 0.930 . S
C16 C15 1.380 . S
C16 C23 1.357 . S
C17 C8 1.511 . S
C17 C18 1.341 . S
C17 C19 1.371 . S
C18 C17 1.341 . S
C18 C22 1.394 . S
C18 H34 0.930 . S
C19 C17 1.371 . S
C19 C20 1.392 . S
C19 H35 0.931 . S
C20 C19 1.392 . S
C20 C21 1.331 . S
C20 H38 0.932 . S
C21 C20 1.331 . S
C21 C22 1.336 . S
C22 C18 1.394 . S
C22 C21 1.336 . S
C22 H37 0.929 . S
C23 C13 1.386 . S
C23 C16 1.357 . S
C23 H36 0.928 . S
H24 C0 0.931 . S
H25 C2 0.930 . S
H26 C4 0.929 . S
H27 C5 0.931 . S
H28 C7 0.930 . S
H29 C11 0.931 . S
H30 C9 0.931 . S
H31 C13 0.931 . S
H32 C14 0.929 . S
H33 C15 0.930 . S
H34 C18 0.930 . S
H35 C19 0.931 . S
H36 C23 0.928 . S
H37 C22 0.929 . S
H38 C20 0.932 . S
C39 C40 1.386 . S
C39 C41 1.397 . S
C39 H63 0.931 . S
C40 C39 1.386 . S
C40 C44 1.397 . S
C41 C39 1.397 . S
C41 C42 1.384 . S
C41 H64 0.930 . S
C42 C41 1.384 . S
C42 C43 1.377 . S
C42 C45 1.481 . S
C43 C42 1.377 . S
C43 C44 1.389 . S
C43 H65 0.929 . S
C44 C40 1.397 . S
C44 C43 1.389 . S
C44 H66 0.931 . S
C45 C42 1.481 . S
C45 C46 1.387 . S
C45 C50 1.390 . S
C46 C45 1.387 . S
C46 C47 1.401 . S
C46 H67 0.930 . S
C47 C46 1.401 . S
C47 C48 1.376 . S
C47 C56 1.511 . S
C48 C47 1.376 . S
C48 C49 1.392 . S
C48 H69 0.931 . S
C49 C48 1.392 . S
C49 C50 1.361 . S
C49 C51 1.500 . S
C50 C45 1.390 . S
C50 C49 1.361 . S
C50 H68 0.931 . S
C51 C49 1.500 . S
C51 C52 1.371 . S
C51 C53 1.365 . S
C52 C51 1.371 . S
C52 C62 1.386 . S
C52 H70 0.931 . S
C53 C51 1.365 . S
C53 C54 1.409 . S
C53 H71 0.929 . S
C54 C53 1.409 . S
C54 C55 1.380 . S
C54 H72 0.930 . S
C55 C54 1.380 . S
C55 C62 1.357 . S
C56 C47 1.511 . S
C56 C57 1.341 . S
C56 C58 1.371 . S
C57 C56 1.341 . S
C57 C61 1.394 . S
C57 H73 0.930 . S
C58 C56 1.371 . S
C58 C59 1.392 . S
C58 H74 0.931 . S
C59 C58 1.392 . S
C59 C60 1.331 . S
C59 H77 0.932 . S
C60 C59 1.331 . S
C60 C61 1.336 . S
C61 C57 1.394 . S
C61 C60 1.336 . S
C61 H76 0.929 . S
C62 C52 1.386 . S
C62 C55 1.357 . S
C62 H75 0.928 . S
H63 C39 0.931 . S
H64 C41 0.930 . S
H65 C43 0.929 . S
H66 C44 0.931 . S
H67 C46 0.930 . S
H68 C50 0.931 . S
H69 C48 0.931 . S
H70 C52 0.931 . S
H71 C53 0.929 . S
H72 C54 0.930 . S
H73 C57 0.930 . S
H74 C58 0.931 . S
H75 C62 0.928 . S
H76 C61 0.929 . S
H77 C59 0.932 . S
C78 C79 1.386 . S
C78 C80 1.397 . S
C78 H102 0.931 . S
C79 C78 1.386 . S
C79 C83 1.397 . S
C80 C78 1.397 . S
C80 C81 1.384 . S
C80 H103 0.930 . S
C81 C80 1.384 . S
C81 C82 1.377 . S
C81 C84 1.481 . S
C82 C81 1.377 . S
C82 C83 1.389 . S
C82 H104 0.929 . S
C83 C79 1.397 . S
C83 C82 1.389 . S
C83 H105 0.931 . S
C84 C81 1.481 . S
C84 C85 1.387 . S
C84 C89 1.390 . S
C85 C84 1.387 . S
C85 C86 1.401 . S
C85 H106 0.930 . S
C86 C85 1.401 . S
C86 C87 1.376 . S
C86 C95 1.511 . S
C87 C86 1.376 . S
C87 C88 1.392 . S
C87 H108 0.931 . S
C88 C87 1.392 . S
C88 C89 1.361 . S
C88 C90 1.500 . S
C89 C84 1.390 . S
C89 C88 1.361 . S
C89 H107 0.931 . S
C90 C88 1.500 . S
C90 C91 1.371 . S
C90 C92 1.365 . S
C91 C90 1.371 . S
C91 C101 1.386 . S
C91 H109 0.931 . S
C92 C90 1.365 . S
C92 C93 1.409 . S
C92 H110 0.929 . S
C93 C92 1.409 . S
C93 C94 1.380 . S
C93 H111 0.930 . S
C94 C93 1.380 . S
C94 C101 1.357 . S
C95 C86 1.511 . S
C95 C96 1.341 . S
C95 C97 1.371 . S
C96 C95 1.341 . S
C96 C100 1.394 . S
C96 H112 0.930 . S
C97 C95 1.371 . S
C97 C98 1.392 . S
C97 H113 0.931 . S
C98 C97 1.392 . S
C98 C99 1.331 . S
C98 H116 0.932 . S
C99 C98 1.331 . S
C99 C100 1.336 . S
C100 C96 1.394 . S
C100 C99 1.336 . S
C100 H115 0.929 . S
C101 C91 1.386 . S
C101 C94 1.357 . S
C101 H114 0.928 . S
H102 C78 0.931 . S
H103 C80 0.930 . S
H104 C82 0.929 . S
H105 C83 0.931 . S
H106 C85 0.930 . S
H107 C89 0.931 . S
H108 C87 0.931 . S
H109 C91 0.931 . S
H110 C92 0.929 . S
H111 C93 0.930 . S
H112 C96 0.930 . S
H113 C97 0.931 . S
H114 C101 0.928 . S
H115 C100 0.929 . S
H116 C98 0.932 . S
C117 C118 1.386 . S
C117 C119 1.397 . S
C117 H141 0.931 . S
C118 C117 1.386 . S
C118 C122 1.397 . S
C119 C117 1.397 . S
C119 C120 1.384 . S
C119 H142 0.930 . S
C120 C119 1.384 . S
C120 C121 1.377 . S
C120 C123 1.481 . S
C121 C120 1.377 . S
C121 C122 1.389 . S
C121 H143 0.929 . S
C122 C118 1.397 . S
C122 C121 1.389 . S
C122 H144 0.931 . S
C123 C120 1.481 . S
C123 C124 1.387 . S
C123 C128 1.390 . S
C124 C123 1.387 . S
C124 C125 1.401 . S
C124 H145 0.930 . S
C125 C124 1.401 . S
C125 C126 1.376 . S
C125 C134 1.511 . S
C126 C125 1.376 . S
C126 C127 1.392 . S
C126 H147 0.931 . S
C127 C126 1.392 . S
C127 C128 1.361 . S
C127 C129 1.500 . S
C128 C123 1.390 . S
C128 C127 1.361 . S
C128 H146 0.931 . S
C129 C127 1.500 . S
C129 C130 1.371 . S
C129 C131 1.365 . S
C130 C129 1.371 . S
C130 C140 1.386 . S
C130 H148 0.931 . S
C131 C129 1.365 . S
C131 C132 1.409 . S
C131 H149 0.929 . S
C132 C131 1.409 . S
C132 C133 1.380 . S
C132 H150 0.930 . S
C133 C132 1.380 . S
C133 C140 1.357 . S
C134 C125 1.511 . S
C134 C135 1.341 . S
C134 C136 1.371 . S
C135 C134 1.341 . S
C135 C139 1.394 . S
C135 H151 0.930 . S
C136 C134 1.371 . S
C136 C137 1.392 . S
C136 H152 0.931 . S
C137 C136 1.392 . S
C137 C138 1.331 . S
C137 H155 0.932 . S
C138 C137 1.331 . S
C138 C139 1.336 . S
C139 C135 1.394 . S
C139 C138 1.336 . S
C139 H154 0.929 . S
C140 C130 1.386 . S
C140 C133 1.357 . S
C140 H153 0.928 . S
H141 C117 0.931 . S
H142 C119 0.930 . S
H143 C121 0.929 . S
H144 C122 0.931 . S
H145 C124 0.930 . S
H146 C128 0.931 . S
H147 C126 0.931 . S
H148 C130 0.931 . S
H149 C131 0.929 . S
H150 C132 0.930 . S
H151 C135 0.930 . S
H152 C136 0.931 . S
H153 C140 0.928 . S
H154 C139 0.929 . S
H155 C137 0.932 . S
C156 C157 1.386 . S
C156 C158 1.397 . S
C156 H180 0.931 . S
C157 C156 1.386 . S
C157 C161 1.397 . S
C158 C156 1.397 . S
C158 C159 1.384 . S
C158 H181 0.930 . S
C159 C158 1.384 . S
C159 C160 1.377 . S
C159 C162 1.481 . S
C160 C159 1.377 . S
C160 C161 1.389 . S
C160 H182 0.929 . S
C161 C157 1.397 . S
C161 C160 1.389 . S
C161 H183 0.931 . S
C162 C159 1.481 . S
C162 C163 1.387 . S
C162 C167 1.390 . S
C163 C162 1.387 . S
C163 C164 1.401 . S
C163 H184 0.930 . S
C164 C163 1.401 . S
C164 C165 1.376 . S
C164 C173 1.511 . S
C165 C164 1.376 . S
C165 C166 1.392 . S
C165 H186 0.931 . S
C166 C165 1.392 . S
C166 C167 1.361 . S
C166 C168 1.500 . S
C167 C162 1.390 . S
C167 C166 1.361 . S
C167 H185 0.931 . S
C168 C166 1.500 . S
C168 C169 1.371 . S
C168 C170 1.365 . S
C169 C168 1.371 . S
C169 C179 1.386 . S
C169 H187 0.931 . S
C170 C168 1.365 . S
C170 C171 1.409 . S
C170 H188 0.929 . S
C171 C170 1.409 . S
C171 C172 1.380 . S
C171 H189 0.930 . S
C172 C171 1.380 . S
C172 C179 1.357 . S
C173 C164 1.511 . S
C173 C174 1.341 . S
C173 C175 1.371 . S
C174 C173 1.341 . S
C174 C178 1.394 . S
C174 H190 0.930 . S
C175 C173 1.371 . S
C175 C176 1.392 . S
C175 H191 0.931 . S
C176 C175 1.392 . S
C176 C177 1.331 . S
C176 H194 0.932 . S
C177 C176 1.331 . S
C177 C178 1.336 . S
C178 C174 1.394 . S
C178 C177 1.336 . S
C178 H193 0.929 . S
C179 C169 1.386 . S
C179 C172 1.357 . S
C179 H192 0.928 . S
H180 C156 0.931 . S
H181 C158 0.930 . S
H182 C160 0.929 . S
H183 C161 0.931 . S
H184 C163 0.930 . S
H185 C167 0.931 . S
H186 C165 0.931 . S
H187 C169 0.931 . S
H188 C170 0.929 . S
H189 C171 0.930 . S
H190 C174 0.930 . S
H191 C175 0.931 . S
H192 C179 0.928 . S
H193 C178 0.929 . S
H194 C176 0.932 . S
C195 C196 1.386 . S
C195 C197 1.397 . S
C195 H219 0.931 . S
C196 C195 1.386 . S
C196 C200 1.397 . S
C197 C195 1.397 . S
C197 C198 1.384 . S
C197 H220 0.930 . S
C198 C197 1.384 . S
C198 C199 1.377 . S
C198 C201 1.481 . S
C199 C198 1.377 . S
C199 C200 1.389 . S
C199 H221 0.929 . S
C200 C196 1.397 . S
C200 C199 1.389 . S
C200 H222 0.931 . S
C201 C198 1.481 . S
C201 C202 1.387 . S
C201 C206 1.390 . S
C202 C201 1.387 . S
C202 C203 1.401 . S
C202 H223 0.930 . S
C203 C202 1.401 . S
C203 C204 1.376 . S
C203 C212 1.511 . S
C204 C203 1.376 . S
C204 C205 1.392 . S
C204 H225 0.931 . S
C205 C204 1.392 . S
C205 C206 1.361 . S
C205 C207 1.500 . S
C206 C201 1.390 . S
C206 C205 1.361 . S
C206 H224 0.931 . S
C207 C205 1.500 . S
C207 C208 1.371 . S
C207 C209 1.365 . S
C208 C207 1.371 . S
C208 C218 1.386 . S
C208 H226 0.931 . S
C209 C207 1.365 . S
C209 C210 1.409 . S
C209 H227 0.929 . S
C210 C209 1.409 . S
C210 C211 1.380 . S
C210 H228 0.930 . S
C211 C210 1.380 . S
C211 C218 1.357 . S
C212 C203 1.511 . S
C212 C213 1.341 . S
C212 C214 1.371 . S
C213 C212 1.341 . S
C213 C217 1.394 . S
C213 H229 0.930 . S
C214 C212 1.371 . S
C214 C215 1.392 . S
C214 H230 0.931 . S
C215 C214 1.392 . S
C215 C216 1.331 . S
C215 H233 0.932 . S
C216 C215 1.331 . S
C216 C217 1.336 . S
C217 C213 1.394 . S
C217 C216 1.336 . S
C217 H232 0.929 . S
C218 C208 1.386 . S
C218 C211 1.357 . S
C218 H231 0.928 . S
H219 C195 0.931 . S
H220 C197 0.930 . S
H221 C199 0.929 . S
H222 C200 0.931 . S
H223 C202 0.930 . S
H224 C206 0.931 . S
H225 C204 0.931 . S
H226 C208 0.931 . S
H227 C209 0.929 . S
H228 C210 0.930 . S
H229 C213 0.930 . S
H230 C214 0.931 . S
H231 C218 0.928 . S
H232 C217 0.929 . S
H233 C215 0.932 . S
C234 C235 1.386 . S
C234 C236 1.397 . S
C234 H258 0.931 . S
C235 C234 1.386 . S
C235 C239 1.397 . S
C236 C234 1.397 . S
C236 C237 1.384 . S
C236 H259 0.930 . S
C237 C236 1.384 . S
C237 C238 1.377 . S
C237 C240 1.481 . S
C238 C237 1.377 . S
C238 C239 1.389 . S
C238 H260 0.929 . S
C239 C235 1.397 . S
C239 C238 1.389 . S
C239 H261 0.931 . S
C240 C237 1.481 . S
C240 C241 1.387 . S
C240 C245 1.390 . S
C241 C240 1.387 . S
C241 C242 1.401 . S
C241 H262 0.930 . S
C242 C241 1.401 . S
C242 C243 1.376 . S
C242 C251 1.511 . S
C243 C242 1.376 . S
C243 C244 1.392 . S
C243 H264 0.931 . S
C244 C243 1.392 . S
C244 C245 1.361 . S
C244 C246 1.500 . S
C245 C240 1.390 . S
C245 C244 1.361 . S
C245 H263 0.931 . S
C246 C244 1.500 . S
C246 C247 1.371 . S
C246 C248 1.365 . S
C247 C246 1.371 . S
C247 C257 1.386 . S
C247 H265 0.931 . S
C248 C246 1.365 . S
C248 C249 1.409 . S
C248 H266 0.929 . S
C249 C248 1.409 . S
C249 C250 1.380 . S
C249 H267 0.930 . S
C250 C249 1.380 . S
C250 C257 1.357 . S
C251 C242 1.511 . S
C251 C252 1.341 . S
C251 C253 1.371 . S
C252 C251 1.341 . S
C252 C256 1.394 . S
C252 H268 0.930 . S
C253 C251 1.371 . S
C253 C254 1.392 . S
C253 H269 0.931 . S
C254 C253 1.392 . S
C254 C255 1.331 . S
C254 H272 0.932 . S
C255 C254 1.331 . S
C255 C256 1.336 . S
C256 C252 1.394 . S
C256 C255 1.336 . S
C256 H271 0.929 . S
C257 C247 1.386 . S
C257 C250 1.357 . S
C257 H270 0.928 . S
H258 C234 0.931 . S
H259 C236 0.930 . S
H260 C238 0.929 . S
H261 C239 0.931 . S
H262 C241 0.930 . S
H263 C245 0.931 . S
H264 C243 0.931 . S
H265 C247 0.931 . S
H266 C248 0.929 . S
H267 C249 0.930 . S
H268 C252 0.930 . S
H269 C253 0.931 . S
H270 C257 0.928 . S
H271 C256 0.929 . S
H272 C254 0.932 . S
C273 C274 1.386 . S
C273 C275 1.397 . S
C273 H297 0.931 . S
C274 C273 1.386 . S
C274 C278 1.397 . S
C275 C273 1.397 . S
C275 C276 1.384 . S
C275 H298 0.930 . S
C276 C275 1.384 . S
C276 C277 1.377 . S
C276 C279 1.481 . S
C277 C276 1.377 . S
C277 C278 1.389 . S
C277 H299 0.929 . S
C278 C274 1.397 . S
C278 C277 1.389 . S
C278 H300 0.931 . S
C279 C276 1.481 . S
C279 C280 1.387 . S
C279 C284 1.390 . S
C280 C279 1.387 . S
C280 C281 1.401 . S
C280 H301 0.930 . S
C281 C280 1.401 . S
C281 C282 1.376 . S
C281 C290 1.511 . S
C282 C281 1.376 . S
C282 C283 1.392 . S
C282 H303 0.931 . S
C283 C282 1.392 . S
C283 C284 1.361 . S
C283 C285 1.500 . S
C284 C279 1.390 . S
C284 C283 1.361 . S
C284 H302 0.931 . S
C285 C283 1.500 . S
C285 C286 1.371 . S
C285 C287 1.365 . S
C286 C285 1.371 . S
C286 C296 1.386 . S
C286 H304 0.931 . S
C287 C285 1.365 . S
C287 C288 1.409 . S
C287 H305 0.929 . S
C288 C287 1.409 . S
C288 C289 1.380 . S
C288 H306 0.930 . S
C289 C288 1.380 . S
C289 C296 1.357 . S
C290 C281 1.511 . S
C290 C291 1.341 . S
C290 C292 1.371 . S
C291 C290 1.341 . S
C291 C295 1.394 . S
C291 H307 0.930 . S
C292 C290 1.371 . S
C292 C293 1.392 . S
C292 H308 0.931 . S
C293 C292 1.392 . S
C293 C294 1.331 . S
C293 H311 0.932 . S
C294 C293 1.331 . S
C294 C295 1.336 . S
C295 C291 1.394 . S
C295 C294 1.336 . S
C295 H310 0.929 . S
C296 C286 1.386 . S
C296 C289 1.357 . S
C296 H309 0.928 . S
H297 C273 0.931 . S
H298 C275 0.930 . S
H299 C277 0.929 . S
H300 C278 0.931 . S
H301 C280 0.930 . S
H302 C284 0.931 . S
H303 C282 0.931 . S
H304 C286 0.931 . S
H305 C287 0.929 . S
H306 C288 0.930 . S
H307 C291 0.930 . S
H308 C292 0.931 . S
H309 C296 0.928 . S
H310 C295 0.929 . S
H311 C293 0.932 . S
Co312 N317 2.057 . S
Co312 O329 2.021 . S
Co312 O332 2.062 . S
Co312 O336 2.117 1_545 S
Co312 O337 2.020 1_545 S
C313 O333 1.259 1_655 S
C313 O336 1.258 . S
Co314 N323 2.057 . S
Co314 O330 2.117 1_565 S
Co314 O331 2.020 1_565 S
Co314 O333 2.021 . S
Co314 O338 2.062 . S
C315 N317 1.316 . S
C315 N318 1.347 . S
C315 H320 0.931 . S
C316 N317 1.375 1_565 S
C316 C319 1.350 1_565 S
C316 H321 0.930 . S
N317 Co312 2.057 . S
N317 C315 1.316 . S
N317 C316 1.375 1_545 S
N318 C315 1.347 . S
N318 C319 1.373 . S
C319 C316 1.350 1_545 S
C319 N318 1.373 . S
C319 H340 0.931 1_545 S
H320 C315 0.931 . S
H321 C316 0.930 . S
C322 O329 1.259 1_455 S
C322 O330 1.258 . S
N323 Co314 2.057 . S
N323 C324 1.316 . S
N323 C325 1.375 1_565 S
C324 N323 1.316 . S
C324 N326 1.347 . S
C324 H335 0.931 . S
C325 N323 1.375 1_545 S
C325 C327 1.350 1_545 S
C325 H334 0.930 . S
N326 C324 1.347 . S
N326 C327 1.373 . S
C327 C325 1.350 1_565 S
C327 N326 1.373 . S
C327 H341 0.931 1_565 S
C328 O331 1.256 . S
C328 O332 1.255 1_455 S
O329 Co312 2.021 . S
O329 C322 1.259 1_655 S
O330 Co314 2.117 1_545 S
O330 C322 1.258 . S
O331 Co314 2.020 1_545 S
O331 C328 1.256 . S
O332 Co312 2.062 . S
O332 C328 1.255 1_655 S
O333 C313 1.259 1_455 S
O333 Co314 2.021 . S
H334 C325 0.930 . S
H335 C324 0.931 . S
O336 Co312 2.117 1_565 S
O336 C313 1.258 . S
O337 Co312 2.020 1_565 S
O337 C339 1.256 . S
O338 Co314 2.062 . S
O338 C339 1.255 1_455 S
C339 O337 1.256 . S
C339 O338 1.255 1_655 S
H340 C319 0.931 1_565 S
H341 C327 0.931 1_545 S
Co342 N347 2.057 . S
Co342 O359 2.021 1_565 S
Co342 O362 2.062 . S
Co342 O366 2.132 . S
Co342 O367 2.020 1_565 S
C343 O363 1.259 . S
C343 O366 1.232 1_554 S
Co344 N353 2.057 . S
Co344 O360 2.117 . S
Co344 O361 2.020 1_545 S
Co344 O363 2.021 1_545 S
Co344 O368 2.062 . S
C345 N347 1.316 . S
C345 N348 1.347 . S
C345 H350 0.931 1_565 S
C346 N347 1.375 . S
C346 C349 1.350 . S
C346 H351 0.930 . S
N347 Co342 2.057 . S
N347 C345 1.316 . S
N347 C346 1.375 . S
N348 C345 1.347 . S
N348 C349 1.373 . S
C349 C346 1.350 . S
C349 N348 1.373 . S
C349 H370 0.931 . S
H350 C345 0.931 1_545 S
H351 C346 0.930 . S
C352 O359 1.259 . S
C352 O360 1.258 1_556 S
N353 Co344 2.057 . S
N353 C354 1.316 . S
N353 C355 1.375 . S
C354 N353 1.316 . S
C354 N356 1.347 . S
C354 H365 0.931 1_545 S
C355 N353 1.375 . S
C355 C357 1.350 . S
C355 H364 0.930 . S
N356 C354 1.347 . S
N356 C357 1.373 . S
C357 C355 1.350 . S
C357 N356 1.373 . S
C357 H371 0.931 . S
C358 O361 1.256 1_556 S
C358 O362 1.255 . S
O359 Co342 2.021 1_545 S
O359 C352 1.259 . S
O360 Co344 2.117 . S
O360 C352 1.258 1_554 S
O361 Co344 2.020 1_565 S
O361 C358 1.256 1_554 S
O362 Co342 2.062 . S
O362 C358 1.255 . S
O363 C343 1.259 . S
O363 Co344 2.021 1_565 S
H364 C355 0.930 . S
H365 C354 0.931 1_565 S
O366 Co342 2.132 . S
O366 C343 1.232 1_556 S
O367 Co342 2.020 1_545 S
O367 C369 1.256 1_556 S
O368 Co344 2.062 . S
O368 C369 1.255 . S
C369 O367 1.256 1_554 S
C369 O368 1.255 . S
H370 C349 0.931 . S
H371 C357 0.931 . S
Co372 N377 2.057 . S
Co372 O389 2.021 . S
Co372 O392 2.062 . S
Co372 O396 2.117 . S
Co372 O397 2.020 . S
C373 O393 1.259 . S
C373 O396 1.258 . S
Co374 N383 2.057 . S
Co374 O390 2.117 . S
Co374 O391 2.020 . S
Co374 O393 2.021 . S
Co374 O398 2.062 . S
C375 N377 1.316 . S
C375 N378 1.347 . S
C375 H380 0.931 . S
C376 N377 1.375 . S
C376 C379 1.350 . S
C376 H381 0.930 . S
N377 Co372 2.057 . S
N377 C375 1.316 . S
N377 C376 1.375 . S
N378 C375 1.347 . S
N378 C379 1.373 . S
C379 C376 1.350 . S
C379 N378 1.373 . S
C379 H400 0.931 . S
H380 C375 0.931 . S
H381 C376 0.930 . S
C382 O389 1.259 . S
C382 O390 1.258 . S
N383 Co374 2.057 . S
N383 C384 1.316 . S
N383 C385 1.375 . S
C384 N383 1.316 . S
C384 N386 1.347 . S
C384 H395 0.931 . S
C385 N383 1.375 . S
C385 C387 1.350 . S
C385 H394 0.930 . S
N386 C384 1.347 . S
N386 C387 1.373 . S
C387 C385 1.350 . S
C387 N386 1.373 . S
C387 H401 0.931 . S
C388 O391 1.256 . S
C388 O392 1.255 . S
O389 Co372 2.021 . S
O389 C382 1.259 . S
O390 Co374 2.117 . S
O390 C382 1.258 . S
O391 Co374 2.020 . S
O391 C388 1.256 . S
O392 Co372 2.062 . S
O392 C388 1.255 . S
O393 C373 1.259 . S
O393 Co374 2.021 . S
H394 C385 0.930 . S
H395 C384 0.931 . S
O396 Co372 2.117 . S
O396 C373 1.258 . S
O397 Co372 2.020 . S
O397 C399 1.256 . S
O398 Co374 2.062 . S
O398 C399 1.255 . S
C399 O397 1.256 . S
C399 O398 1.255 . S
H400 C379 0.931 . S
H401 C387 0.931 . S
Co402 N407 2.057 . S
Co402 O419 2.021 . S
Co402 O422 2.062 . S
Co402 O426 2.117 1_455 S
Co402 O427 2.020 1_455 S
C403 O423 1.259 1_556 S
C403 O426 1.258 . S
Co404 N413 2.057 . S
Co404 O420 2.117 1_655 S
Co404 O421 2.020 1_655 S
Co404 O423 2.021 . S
Co404 O428 2.062 . S
C405 N407 1.316 . S
C405 N408 1.347 . S
C405 H410 0.931 . S
C406 N407 1.375 1_655 S
C406 C409 1.350 1_655 S
C406 H411 0.930 . S
N407 Co402 2.057 . S
N407 C405 1.316 . S
N407 C406 1.375 1_455 S
N408 C405 1.347 . S
N408 C409 1.373 . S
C409 C406 1.350 1_455 S
C409 N408 1.373 . S
C409 H430 0.931 1_455 S
H410 C405 0.931 . S
H411 C406 0.930 . S
C412 O419 1.259 1_554 S
C412 O420 1.258 . S
N413 Co404 2.057 . S
N413 C414 1.316 . S
N413 C415 1.375 1_655 S
C414 N413 1.316 . S
C414 N416 1.347 . S
C414 H425 0.931 . S
C415 N413 1.375 1_455 S
C415 C417 1.350 1_455 S
C415 H424 0.930 . S
N416 C414 1.347 . S
N416 C417 1.373 . S
C417 C415 1.350 1_655 S
C417 N416 1.373 . S
C417 H431 0.931 1_655 S
C418 O421 1.256 . S
C418 O422 1.255 1_554 S
O419 Co402 2.021 . S
O419 C412 1.259 1_556 S
O420 Co404 2.117 1_455 S
O420 C412 1.258 . S
O421 Co404 2.020 1_455 S
O421 C418 1.256 . S
O422 Co402 2.062 . S
O422 C418 1.255 1_556 S
O423 C403 1.259 1_554 S
O423 Co404 2.021 . S
H424 C415 0.930 . S
H425 C414 0.931 . S
O426 Co402 2.117 1_655 S
O426 C403 1.258 . S
O427 Co402 2.020 1_655 S
O427 C429 1.256 . S
O428 Co404 2.062 . S
O428 C429 1.255 1_554 S
C429 O427 1.256 . S
C429 O428 1.255 1_556 S
H430 C409 0.931 1_655 S
H431 C417 0.931 1_455 S
H432 C438 0.930 . S
H433 C442 0.930 1_565 S
H434 C447 0.929 . S
H435 C445 0.929 . S
H436 C440 0.929 1_565 S
H437 C446 0.929 . S
C438 H432 0.930 . S
C438 C439 1.367 . S
C438 C446 1.378 . S
C439 C438 1.367 . S
C439 C447 1.433 . S
C440 H436 0.929 1_545 S
C440 C442 1.378 . S
C440 C444 1.350 . S
C441 C444 1.463 . S
C441 C446 1.350 . S
C441 N449 1.427 . S
C442 H433 0.930 1_545 S
C442 C440 1.378 . S
C442 C443 1.367 . S
C443 C442 1.367 . S
C443 C445 1.433 . S
C444 C440 1.350 . S
C444 C441 1.463 . S
C444 N448 1.427 . S
C445 H435 0.929 . S
C445 C443 1.433 . S
C445 N448 1.384 . S
C446 H437 0.929 . S
C446 C438 1.378 . S
C446 C441 1.350 . S
C447 H434 0.929 . S
C447 C439 1.433 . S
C447 N449 1.384 . S
N448 C444 1.427 . S
N448 C445 1.384 . S
N449 C441 1.427 . S
N449 C447 1.384 . S
H450 C456 0.930 . S
H451 C460 0.930 1_545 S
H452 C465 0.929 . S
H453 C463 0.929 . S
H454 C458 0.929 . S
H455 C464 0.929 . S
C456 H450 0.930 . S
C456 C457 1.367 . S
C456 C464 1.378 . S
C457 C456 1.367 . S
C457 C465 1.433 . S
C458 H454 0.929 . S
C458 C460 1.378 . S
C458 C462 1.350 . S
C459 C462 1.463 . S
C459 C464 1.350 . S
C459 N467 1.427 . S
C460 H451 0.930 1_565 S
C460 C458 1.378 . S
C460 C461 1.367 . S
C461 C460 1.367 . S
C461 C463 1.433 . S
C462 C458 1.350 . S
C462 C459 1.463 . S
C462 N466 1.427 . S
C463 H453 0.929 . S
C463 C461 1.433 . S
C463 N466 1.384 . S
C464 H455 0.929 . S
C464 C456 1.378 . S
C464 C459 1.350 . S
C465 H452 0.929 . S
C465 C457 1.433 . S
C465 N467 1.384 . S
N466 C462 1.427 . S
N466 C463 1.384 . S
N467 C459 1.427 . S
N467 C465 1.384 . S
H468 C474 0.930 . S
H469 C478 0.930 . S
H470 C483 0.929 . S
H471 C481 0.929 . S
H472 C476 0.929 . S
H473 C482 0.929 . S
C474 H468 0.930 . S
C474 C475 1.367 . S
C474 C482 1.378 . S
C475 C474 1.367 . S
C475 C483 1.433 . S
C476 H472 0.929 . S
C476 C478 1.378 . S
C476 C480 1.350 . S
C477 C480 1.463 . S
C477 C482 1.350 . S
C477 N485 1.427 . S
C478 H469 0.930 . S
C478 C476 1.378 . S
C478 C479 1.367 . S
C479 C478 1.367 . S
C479 C481 1.433 . S
C480 C476 1.350 . S
C480 C477 1.463 . S
C480 N484 1.427 . S
C481 H471 0.929 . S
C481 C479 1.433 . S
C481 N484 1.384 . S
C482 H473 0.929 . S
C482 C474 1.378 . S
C482 C477 1.350 . S
C483 H470 0.929 . S
C483 C475 1.433 . S
C483 N485 1.384 . S
N484 C480 1.427 . S
N484 C481 1.384 . S
N485 C477 1.427 . S
N485 C483 1.384 . S
H486 C492 0.930 . S
H487 C496 0.930 . S
H488 C501 0.929 . S
H489 C499 0.929 . S
H490 C494 0.929 . S
H491 C500 0.929 . S
C492 H486 0.930 . S
C492 C493 1.367 . S
C492 C500 1.378 . S
C493 C492 1.367 . S
C493 C501 1.433 . S
C494 H490 0.929 . S
C494 C496 1.378 . S
C494 C498 1.350 . S
C495 C498 1.463 . S
C495 C500 1.350 . S
C495 N503 1.427 . S
C496 H487 0.930 . S
C496 C494 1.378 . S
C496 C497 1.367 . S
C497 C496 1.367 . S
C497 C499 1.433 . S
C498 C494 1.350 . S
C498 C495 1.463 . S
C498 N502 1.427 . S
C499 H489 0.929 . S
C499 C497 1.433 . S
C499 N502 1.384 . S
C500 H491 0.929 . S
C500 C492 1.378 . S
C500 C495 1.350 . S
C501 H488 0.929 . S
C501 C493 1.433 . S
C501 N503 1.384 . S
N502 C498 1.427 . S
N502 C499 1.384 . S
N503 C495 1.427 . S
N503 C501 1.384 . S
H504 C510 0.930 . S
H505 C514 0.930 . S
H506 C519 0.929 . S
H507 C517 0.929 1_556 S
H508 C512 0.929 . S
H509 C518 0.929 . S
C510 H504 0.930 . S
C510 C511 1.367 . S
C510 C518 1.378 . S
C511 C510 1.367 . S
C511 C519 1.433 . S
C512 H508 0.929 . S
C512 C514 1.378 . S
C512 C516 1.350 . S
C513 C516 1.463 . S
C513 C518 1.350 . S
C513 N521 1.427 . S
C514 H505 0.930 . S
C514 C512 1.378 . S
C514 C515 1.367 . S
C515 C514 1.367 . S
C515 C517 1.433 . S
C516 C512 1.350 . S
C516 C513 1.463 . S
C516 N520 1.427 . S
C517 H507 0.929 1_554 S
C517 C515 1.433 . S
C517 N520 1.384 . S
C518 H509 0.929 . S
C518 C510 1.378 . S
C518 C513 1.350 . S
C519 H506 0.929 . S
C519 C511 1.433 . S
C519 N521 1.384 . S
N520 C516 1.427 . S
N520 C517 1.384 . S
N521 C513 1.427 . S
N521 C519 1.384 . S
H522 C528 0.930 . S
H523 C532 0.930 . S
H524 C537 0.929 . S
H525 C535 0.929 . S
H526 C530 0.929 . S
H527 C536 0.929 . S
C528 H522 0.930 . S
C528 C529 1.367 . S
C528 C536 1.378 . S
C529 C528 1.367 . S
C529 C537 1.433 . S
C530 H526 0.929 . S
C530 C532 1.378 . S
C530 C534 1.350 . S
C531 C534 1.463 . S
C531 C536 1.350 . S
C531 N539 1.427 . S
C532 H523 0.930 . S
C532 C530 1.378 . S
C532 C533 1.367 . S
C533 C532 1.367 . S
C533 C535 1.433 . S
C534 C530 1.350 . S
C534 C531 1.463 . S
C534 N538 1.427 . S
C535 H525 0.929 . S
C535 C533 1.433 . S
C535 N538 1.384 . S
C536 H527 0.929 . S
C536 C528 1.378 . S
C536 C531 1.350 . S
C537 H524 0.929 . S
C537 C529 1.433 . S
C537 N539 1.384 . S
N538 C534 1.427 . S
N538 C535 1.384 . S
N539 C531 1.427 . S
N539 C537 1.384 . S
H540 C546 0.930 . S
H541 C550 0.930 1_554 S
H542 C555 0.929 . S
H543 C553 0.929 . S
H544 C548 0.948 . S
H545 C554 0.929 . S
C546 H540 0.930 . S
C546 C547 1.367 . S
C546 C554 1.378 . S
C547 C546 1.367 . S
C547 C555 1.433 . S
C548 H544 0.948 . S
C548 C550 1.378 . S
C548 C552 1.350 . S
C549 C552 1.463 . S
C549 C554 1.350 . S
C549 N557 1.427 . S
C550 H541 0.930 1_556 S
C550 C548 1.378 . S
C550 C551 1.367 . S
C551 C550 1.367 . S
C551 C553 1.433 . S
C552 C548 1.350 . S
C552 C549 1.463 . S
C552 N556 1.427 . S
C553 H543 0.929 . S
C553 C551 1.433 . S
C553 N556 1.384 . S
C554 H545 0.929 . S
C554 C546 1.378 . S
C554 C549 1.350 . S
C555 H542 0.929 . S
C555 C547 1.433 . S
C555 N557 1.384 . S
N556 C552 1.427 . S
N556 C553 1.384 . S
N557 C549 1.427 . S
N557 C555 1.384 . S
H558 C564 0.930 . S
H559 C568 0.930 . S
H560 C573 0.929 . S
H561 C571 0.929 . S
H562 C566 0.929 . S
H563 C572 0.929 . S
C564 H558 0.930 . S
C564 C565 1.367 . S
C564 C572 1.378 . S
C565 C564 1.367 . S
C565 C573 1.433 . S
C566 H562 0.929 . S
C566 C568 1.378 . S
C566 C570 1.350 . S
C567 C570 1.463 . S
C567 C572 1.350 . S
C567 N575 1.427 . S
C568 H559 0.930 . S
C568 C566 1.378 . S
C568 C569 1.367 . S
C569 C568 1.367 . S
C569 C571 1.433 . S
C570 C566 1.350 . S
C570 C567 1.463 . S
C570 N574 1.427 . S
C571 H561 0.929 . S
C571 C569 1.433 . S
C571 N574 1.384 . S
C572 H563 0.929 . S
C572 C564 1.378 . S
C572 C567 1.350 . S
C573 H560 0.929 . S
C573 C565 1.433 . S
C573 N575 1.384 . S
N574 C570 1.427 . S
N574 C571 1.384 . S
N575 C567 1.427 . S
N575 C573 1.384 . S
H576 C582 0.930 . S
H577 C586 0.930 1_556 S
H578 C591 0.929 . S
H579 C589 0.929 . S
H580 C584 0.929 1_556 S
H581 C590 0.929 . S
C582 H576 0.930 . S
C582 C583 1.367 . S
C582 C590 1.378 . S
C583 C582 1.367 . S
C583 C591 1.433 . S
C584 H580 0.929 1_554 S
C584 C586 1.378 . S
C584 C588 1.350 . S
C585 C588 1.463 . S
C585 C590 1.350 . S
C585 N593 1.427 . S
C586 H577 0.930 1_554 S
C586 C584 1.378 . S
C586 C587 1.367 . S
C587 C586 1.367 . S
C587 C589 1.433 . S
C588 C584 1.350 . S
C588 C585 1.463 . S
C588 N592 1.427 . S
C589 H579 0.929 . S
C589 C587 1.433 . S
C589 N592 1.384 . S
C590 H581 0.929 . S
C590 C582 1.378 . S
C590 C585 1.350 . S
C591 H578 0.929 . S
C591 C583 1.433 . S
C591 N593 1.384 . S
N592 C588 1.427 . S
N592 C589 1.384 . S
N593 C585 1.427 . S
N593 C591 1.384 . S
H594 C600 0.930 . S
H595 C604 0.930 . S
H596 C609 0.929 . S
H597 C607 0.929 . S
H598 C602 0.929 . S
H599 C608 0.929 . S
C600 H594 0.930 . S
C600 C601 1.367 . S
C600 C608 1.378 . S
C601 C600 1.367 . S
C601 C609 1.433 . S
C602 H598 0.929 . S
C602 C604 1.378 . S
C602 C606 1.350 . S
C603 C606 1.463 . S
C603 C608 1.350 . S
C603 N611 1.427 . S
C604 H595 0.930 . S
C604 C602 1.378 . S
C604 C605 1.367 . S
C605 C604 1.367 . S
C605 C607 1.433 . S
C606 C602 1.350 . S
C606 C603 1.463 . S
C606 N610 1.427 . S
C607 H597 0.929 . S
C607 C605 1.433 . S
C607 N610 1.384 . S
C608 H599 0.929 . S
C608 C600 1.378 . S
C608 C603 1.350 . S
C609 H596 0.929 . S
C609 C601 1.433 . S
C609 N611 1.384 . S
N610 C606 1.427 . S
N610 C607 1.384 . S
N611 C603 1.427 . S
N611 C609 1.384 . S
H612 C618 0.930 . S
H613 C622 0.910 1_455 S
H614 C627 0.929 . S
H615 C625 0.929 . S
H616 C620 0.929 1_455 S
H617 C626 0.929 . S
C618 H612 0.930 . S
C618 C619 1.367 . S
C618 C626 1.378 . S
C619 C618 1.367 . S
C619 C627 1.433 . S
C620 H616 0.929 1_655 S
C620 C622 1.381 . S
C620 C624 1.350 . S
C621 C624 1.463 . S
C621 C626 1.350 . S
C621 N629 1.427 . S
C622 H613 0.910 1_655 S
C622 C620 1.381 . S
C622 C623 1.385 . S
C623 C622 1.385 . S
C623 C625 1.433 . S
C624 C620 1.350 . S
C624 C621 1.463 . S
C624 N628 1.427 . S
C625 H615 0.929 . S
C625 C623 1.433 . S
C625 N628 1.384 . S
C626 H617 0.929 . S
C626 C618 1.378 . S
C626 C621 1.350 . S
C627 H614 0.929 . S
C627 C619 1.433 . S
C627 N629 1.384 . S
N628 C624 1.427 . S
N628 C625 1.384 . S
N629 C621 1.427 . S
N629 C627 1.384 . S
H630 C636 0.930 . S
H631 C640 0.930 . S
H632 C645 0.929 . S
H633 C643 0.929 . S
H634 C638 0.929 . S
H635 C644 0.929 . S
C636 H630 0.930 . S
C636 C637 1.367 . S
C636 C644 1.378 . S
C637 C636 1.367 . S
C637 C645 1.433 . S
C638 H634 0.929 . S
C638 C640 1.378 . S
C638 C642 1.350 . S
C639 C642 1.463 . S
C639 C644 1.350 . S
C639 N647 1.427 . S
C640 H631 0.930 . S
C640 C638 1.378 . S
C640 C641 1.367 . S
C641 C640 1.367 . S
C641 C643 1.433 . S
C642 C638 1.350 . S
C642 C639 1.463 . S
C642 N646 1.427 . S
C643 H633 0.929 . S
C643 C641 1.433 . S
C643 N646 1.384 . S
C644 H635 0.929 . S
C644 C636 1.378 . S
C644 C639 1.350 . S
C645 H632 0.929 . S
C645 C637 1.433 . S
C645 N647 1.384 . S
N646 C642 1.427 . S
N646 C643 1.384 . S
N647 C639 1.427 . S
N647 C645 1.384 . S
H648 C654 0.930 . S
H649 C658 0.930 . S
H650 C663 0.929 . S
H651 C661 0.929 1_445 S
H652 C656 0.929 . S
H653 C662 0.929 . S
C654 H648 0.930 . S
C654 C655 1.367 . S
C654 C662 1.378 . S
C655 C654 1.367 . S
C655 C663 1.433 . S
C656 H652 0.929 . S
C656 C658 1.378 . S
C656 C660 1.350 . S
C657 C660 1.463 . S
C657 C662 1.350 . S
C657 N665 1.427 . S
C658 H649 0.930 . S
C658 C656 1.378 . S
C658 C659 1.367 . S
C659 C658 1.367 . S
C659 C661 1.433 . S
C660 C656 1.350 . S
C660 C657 1.463 . S
C660 N664 1.427 . S
C661 H651 0.929 1_665 S
C661 C659 1.433 . S
C661 N664 1.384 . S
C662 H653 0.929 . S
C662 C654 1.378 . S
C662 C657 1.350 . S
C663 H650 0.929 . S
C663 C655 1.433 . S
C663 N665 1.384 . S
N664 C660 1.427 . S
N664 C661 1.384 . S
N665 C657 1.427 . S
N665 C663 1.384 . S
H666 C672 0.930 . S
H667 C676 0.930 . S
H668 C681 0.929 . S
H669 C679 0.929 . S
H670 C674 0.929 . S
H671 C680 0.929 . S
C672 H666 0.930 . S
C672 C673 1.367 . S
C672 C680 1.378 . S
C673 C672 1.367 . S
C673 C681 1.433 . S
C674 H670 0.929 . S
C674 C676 1.378 . S
C674 C678 1.350 . S
C675 C678 1.463 . S
C675 C680 1.350 . S
C675 N683 1.427 . S
C676 H667 0.930 . S
C676 C674 1.378 . S
C676 C677 1.367 . S
C677 C676 1.367 . S
C677 C679 1.433 . S
C678 C674 1.350 . S
C678 C675 1.463 . S
C678 N682 1.427 . S
C679 H669 0.929 . S
C679 C677 1.433 . S
C679 N682 1.384 . S
C680 H671 0.929 . S
C680 C672 1.378 . S
C680 C675 1.350 . S
C681 H668 0.929 . S
C681 C673 1.433 . S
C681 N683 1.384 . S
N682 C678 1.427 . S
N682 C679 1.384 . S
N683 C675 1.427 . S
N683 C681 1.384 . S
H684 C690 0.930 . S
H685 C694 0.930 . S
H686 C699 0.929 . S
H687 C697 0.929 . S
H688 C692 0.929 . S
H689 C698 0.929 . S
C690 H684 0.930 . S
C690 C691 1.367 . S
C690 C698 1.378 . S
C691 C690 1.367 . S
C691 C699 1.433 . S
C692 H688 0.929 . S
C692 C694 1.378 . S
C692 C696 1.350 . S
C693 C696 1.463 . S
C693 C698 1.350 . S
C693 N701 1.427 . S
C694 H685 0.930 . S
C694 C692 1.378 . S
C694 C695 1.367 . S
C695 C694 1.367 . S
C695 C697 1.433 . S
C696 C692 1.350 . S
C696 C693 1.463 . S
C696 N700 1.427 . S
C697 H687 0.929 . S
C697 C695 1.433 . S
C697 N700 1.384 . S
C698 H689 0.929 . S
C698 C690 1.378 . S
C698 C693 1.350 . S
C699 H686 0.929 . S
C699 C691 1.433 . S
C699 N701 1.384 . S
N700 C696 1.427 . S
N700 C697 1.384 . S
N701 C693 1.427 . S
N701 C699 1.384 . S
H702 C708 0.930 . S
H703 C712 0.930 . S
H704 C717 0.929 . S
H705 C715 0.929 . S
H706 C710 0.929 . S
H707 C716 0.929 . S
C708 H702 0.930 . S
C708 C709 1.367 . S
C708 C716 1.378 . S
C709 C708 1.367 . S
C709 C717 1.433 . S
C710 H706 0.929 . S
C710 C712 1.378 . S
C710 C714 1.350 . S
C711 C714 1.463 . S
C711 C716 1.350 . S
C711 N719 1.427 . S
C712 H703 0.930 . S
C712 C710 1.378 . S
C712 C713 1.367 . S
C713 C712 1.367 . S
C713 C715 1.433 . S
C714 C710 1.350 . S
C714 C711 1.463 . S
C714 N718 1.427 . S
C715 H705 0.929 . S
C715 C713 1.433 . S
C715 N718 1.384 . S
C716 H707 0.929 . S
C716 C708 1.378 . S
C716 C711 1.350 . S
C717 H704 0.929 . S
C717 C709 1.433 . S
C717 N719 1.384 . S
N718 C714 1.427 . S
N718 C715 1.384 . S
N719 C711 1.427 . S
N719 C717 1.384 . S
H720 C726 0.930 . S
H721 C730 0.930 1_554 S
H722 C735 0.929 . S
H723 C733 0.929 . S
H724 C728 0.926 1_554 S
H725 C734 0.929 . S
C726 H720 0.930 . S
C726 C727 1.367 . S
C726 C734 1.378 . S
C727 C726 1.367 . S
C727 C735 1.433 . S
C728 H724 0.926 1_556 S
C728 C730 1.378 . S
C728 C732 1.350 . S
C729 C732 1.463 . S
C729 C734 1.350 . S
C729 N737 1.427 . S
C730 H721 0.930 1_556 S
C730 C728 1.378 . S
C730 C731 1.367 . S
C731 C730 1.367 . S
C731 C733 1.433 . S
C732 C728 1.350 . S
C732 C729 1.463 . S
C732 N736 1.427 . S
C733 H723 0.929 . S
C733 C731 1.433 . S
C733 N736 1.384 . S
C734 H725 0.929 . S
C734 C726 1.378 . S
C734 C729 1.350 . S
C735 H722 0.929 . S
C735 C727 1.433 . S
C735 N737 1.384 . S
N736 C732 1.427 . S
N736 C733 1.384 . S
N737 C729 1.427 . S
N737 C735 1.384 . S
H738 C744 0.930 . S
H739 C748 0.930 . S
H740 C753 0.929 . S
H741 C751 0.929 . S
H742 C746 0.929 . S
H743 C752 0.929 . S
C744 H738 0.930 . S
C744 C745 1.367 . S
C744 C752 1.378 . S
C745 C744 1.367 . S
C745 C753 1.433 . S
C746 H742 0.929 . S
C746 C748 1.378 . S
C746 C750 1.350 . S
C747 C750 1.463 . S
C747 C752 1.350 . S
C747 N755 1.427 . S
C748 H739 0.930 . S
C748 C746 1.378 . S
C748 C749 1.367 . S
C749 C748 1.367 . S
C749 C751 1.433 . S
C750 C746 1.350 . S
C750 C747 1.463 . S
C750 N754 1.427 . S
C751 H741 0.929 . S
C751 C749 1.433 . S
C751 N754 1.384 . S
C752 H743 0.929 . S
C752 C744 1.378 . S
C752 C747 1.350 . S
C753 H740 0.929 . S
C753 C745 1.433 . S
C753 N755 1.384 . S
N754 C750 1.427 . S
N754 C751 1.384 . S
N755 C747 1.427 . S
N755 C753 1.384 . S
H756 C762 0.930 . S
H757 C766 0.930 1_556 S
H758 C771 0.929 . S
H759 C769 0.929 . S
H760 C764 0.929 . S
H761 C770 0.929 . S
C762 H756 0.930 . S
C762 C763 1.367 . S
C762 C770 1.378 . S
C763 C762 1.367 . S
C763 C771 1.433 . S
C764 H760 0.929 . S
C764 C766 1.378 . S
C764 C768 1.350 . S
C765 C768 1.463 . S
C765 C770 1.350 . S
C765 N773 1.427 . S
C766 H757 0.930 1_554 S
C766 C764 1.378 . S
C766 C767 1.367 . S
C767 C766 1.367 . S
C767 C769 1.433 . S
C768 C764 1.350 . S
C768 C765 1.463 . S
C768 N772 1.427 . S
C769 H759 0.929 . S
C769 C767 1.433 . S
C769 N772 1.384 . S
C770 H761 0.929 . S
C770 C762 1.378 . S
C770 C765 1.350 . S
C771 H758 0.929 . S
C771 C763 1.433 . S
C771 N773 1.384 . S
N772 C768 1.427 . S
N772 C769 1.384 . S
N773 C765 1.427 . S
N773 C771 1.384 . S
H774 C780 0.930 . S
H775 C784 0.930 . S
H776 C789 0.929 . S
H777 C787 0.929 . S
H778 C782 0.929 . S
H779 C788 0.929 . S
C780 H774 0.930 . S
C780 C781 1.367 . S
C780 C788 1.378 . S
C781 C780 1.367 . S
C781 C789 1.433 . S
C782 H778 0.929 . S
C782 C784 1.378 . S
C782 C786 1.350 . S
C783 C786 1.463 . S
C783 C788 1.350 . S
C783 N791 1.427 . S
C784 H775 0.930 . S
C784 C782 1.378 . S
C784 C785 1.367 . S
C785 C784 1.367 . S
C785 C787 1.433 . S
C786 C782 1.350 . S
C786 C783 1.463 . S
C786 N790 1.427 . S
C787 H777 0.929 . S
C787 C785 1.433 . S
C787 N790 1.384 . S
C788 H779 0.929 . S
C788 C780 1.378 . S
C788 C783 1.350 . S
C789 H776 0.929 . S
C789 C781 1.433 . S
C789 N791 1.384 . S
N790 C786 1.427 . S
N790 C787 1.384 . S
N791 C783 1.427 . S
N791 C789 1.384 . S
H792 C798 0.930 . S
H793 C802 0.930 1_455 S
H794 C807 0.929 . S
H795 C805 0.929 . S
H796 C800 0.939 . S
H797 C806 0.929 . S
C798 H792 0.930 . S
C798 C799 1.367 . S
C798 C806 1.378 . S
C799 C798 1.367 . S
C799 C807 1.433 . S
C800 H796 0.939 . S
C800 C802 1.378 . S
C800 C804 1.350 . S
C801 C804 1.463 . S
C801 C806 1.350 . S
C801 N809 1.427 . S
C802 H793 0.930 1_655 S
C802 C800 1.378 . S
C802 C803 1.367 . S
C803 C802 1.367 . S
C803 C805 1.433 . S
C804 C800 1.350 . S
C804 C801 1.463 . S
C804 N808 1.427 . S
C805 H795 0.929 . S
C805 C803 1.433 . S
C805 N808 1.384 . S
C806 H797 0.929 . S
C806 C798 1.378 . S
C806 C801 1.350 . S
C807 H794 0.929 . S
C807 C799 1.433 . S
C807 N809 1.384 . S
N808 C804 1.427 . S
N808 C805 1.384 . S
N809 C801 1.427 . S
N809 C807 1.384 . S
H810 C816 0.930 . S
H811 C820 0.930 1_556 S
H812 C825 0.929 . S
H813 C823 0.929 . S
H814 C818 0.929 . S
H815 C824 0.929 . S
C816 H810 0.930 . S
C816 C817 1.367 . S
C816 C824 1.378 . S
C817 C816 1.367 . S
C817 C825 1.433 . S
C818 H814 0.929 . S
C818 C820 1.378 . S
C818 C822 1.350 . S
C819 C822 1.463 . S
C819 C824 1.350 . S
C819 N827 1.427 . S
C820 H811 0.930 1_554 S
C820 C818 1.378 . S
C820 C821 1.367 . S
C821 C820 1.367 . S
C821 C823 1.433 . S
C822 C818 1.350 . S
C822 C819 1.463 . S
C822 N826 1.427 . S
C823 H813 0.929 . S
C823 C821 1.433 . S
C823 N826 1.384 . S
C824 H815 0.929 . S
C824 C816 1.378 . S
C824 C819 1.350 . S
C825 H812 0.929 . S
C825 C817 1.433 . S
C825 N827 1.384 . S
N826 C822 1.427 . S
N826 C823 1.384 . S
N827 C819 1.427 . S
N827 C825 1.384 . S
H828 C834 0.930 . S
H829 C838 0.930 1_655 S
H830 C843 0.929 . S
H831 C841 0.929 . S
H832 C836 0.929 . S
H833 C842 0.929 . S
C834 H828 0.930 . S
C834 C835 1.367 . S
C834 C842 1.378 . S
C835 C834 1.367 . S
C835 C843 1.433 . S
C836 H832 0.929 . S
C836 C838 1.378 . S
C836 C840 1.350 . S
C837 C840 1.463 . S
C837 C842 1.350 . S
C837 N845 1.427 . S
C838 H829 0.930 1_455 S
C838 C836 1.378 . S
C838 C839 1.367 . S
C839 C838 1.367 . S
C839 C841 1.433 . S
C840 C836 1.350 . S
C840 C837 1.463 . S
C840 N844 1.427 . S
C841 H831 0.929 . S
C841 C839 1.433 . S
C841 N844 1.384 . S
C842 H833 0.929 . S
C842 C834 1.378 . S
C842 C837 1.350 . S
C843 H830 0.929 . S
C843 C835 1.433 . S
C843 N845 1.384 . S
N844 C840 1.427 . S
N844 C841 1.384 . S
N845 C837 1.427 . S
N845 C843 1.384 . S
H846 C852 0.930 . S
H847 C856 0.930 . S
H848 C861 0.929 . S
H849 C859 0.929 . S
H850 C854 0.929 . S
H851 C860 0.929 . S
C852 H846 0.930 . S
C852 C853 1.367 . S
C852 C860 1.378 . S
C853 C852 1.367 . S
C853 C861 1.433 . S
C854 H850 0.929 . S
C854 C856 1.378 . S
C854 C858 1.350 . S
C855 C858 1.463 . S
C855 C860 1.350 . S
C855 N863 1.427 . S
C856 H847 0.930 . S
C856 C854 1.378 . S
C856 C857 1.367 . S
C857 C856 1.367 . S
C857 C859 1.433 . S
C858 C854 1.350 . S
C858 C855 1.463 . S
C858 N862 1.427 . S
C859 H849 0.929 . S
C859 C857 1.433 . S
C859 N862 1.384 . S
C860 H851 0.929 . S
C860 C852 1.378 . S
C860 C855 1.350 . S
C861 H848 0.929 . S
C861 C853 1.433 . S
C861 N863 1.384 . S
N862 C858 1.427 . S
N862 C859 1.384 . S
N863 C855 1.427 . S
N863 C861 1.384 . S
C439 C1 2.172 . S
C443 C328 2.191 . S
C457 C40 1.124 . S
C461 N348 1.123 . S
C479 C382 2.003 . S
C475 C99 1.994 . S
C493 C118 1.342 . S
C497 N416 1.278 . S
C515 C369 2.362 . S
C511 C16 2.346 . S
C533 N326 1.183 . S
C529 C60 1.214 . S
C551 C403 2.020 . S
C547 C79 2.009 . S
C569 N378 1.035 . S
C565 C138 1.034 . S
C583 C21 1.836 . S
C587 C418 1.853 . S
C605 C352 1.741 . S
C601 C94 1.722 . S
C619 C133 1.463 . S
C623 C313 1.482 . S
C637 C55 1.457 . S
C641 C399 1.474 . S
C659 C339 2.196 . S
C655 C157 2.175 . S
C673 C196 1.131 . S
C677 N356 1.115 . S
C691 C255 1.987 . S
C695 C373 2.003 . S
C709 C289 1.350 . S
C713 N408 1.289 . S
C727 C172 2.344 . S
C731 C358 2.358 . S
C749 N318 1.189 . S
C745 C216 1.229 . S
C767 C412 2.020 . S
C763 C235 2.003 . S
C785 N386 1.037 . S
C781 C294 1.027 . S
C799 C177 1.827 . S
C803 C429 1.854 . S
C821 C343 1.743 . S
C817 C250 1.725 . S
C839 C322 1.488 . S
C835 C274 1.466 . S
C853 C211 1.452 . S
C857 C388 1.470 . S
