# Generated by pormake.
# Topology eea, (3,6)-cn, num edge types: 1
# Building blocks:
#     Node 0, Type 0, BuildingBlock: BETDIP_clean_linker_0, # of connection points: 3
#     Node 1, Type 0, BuildingBlock: BETDIP_clean_linker_0, # of connection points: 3
#     Node 2, Type 0, BuildingBlock: BETDIP_clean_linker_0, # of connection points: 3
#     Node 3, Type 0, BuildingBlock: BETDIP_clean_linker_0, # of connection points: 3
#     Node 4, Type 0, BuildingBlock: BETDIP_clean_linker_0, # of connection points: 3
#     Node 5, Type 0, BuildingBlock: BETDIP_clean_linker_0, # of connection points: 3
#     Node 6, Type 0, BuildingBlock: BETDIP_clean_linker_0, # of connection points: 3
#     Node 7, Type 0, BuildingBlock: BETDIP_clean_linker_0, # of connection points: 3
#     Node 8, Type 0, BuildingBlock: BETDIP_clean_linker_0, # of connection points: 3
#     Node 9, Type 0, BuildingBlock: BETDIP_clean_linker_0, # of connection points: 3
#     Node 10, Type 0, BuildingBlock: BETDIP_clean_linker_0, # of connection points: 3
#     Node 11, Type 0, BuildingBlock: BETDIP_clean_linker_0, # of connection points: 3
#     Node 12, Type 0, BuildingBlock: BETDIP_clean_linker_0, # of connection points: 3
#     Node 13, Type 0, BuildingBlock: BETDIP_clean_linker_0, # of connection points: 3
#     Node 14, Type 0, BuildingBlock: BETDIP_clean_linker_0, # of connection points: 3
#     Node 15, Type 0, BuildingBlock: BETDIP_clean_linker_0, # of connection points: 3
#     Node 16, Type 0, BuildingBlock: BETDIP_clean_linker_0, # of connection points: 3
#     Node 17, Type 0, BuildingBlock: BETDIP_clean_linker_0, # of connection points: 3
#     Node 18, Type 1, BuildingBlock: KUMBOL_clean_sbu_0, # of connection points: 6
#     Node 19, Type 1, BuildingBlock: KUMBOL_clean_sbu_0, # of connection points: 6
#     Node 20, Type 1, BuildingBlock: KUMBOL_clean_sbu_0, # of connection points: 6
#     Node 21, Type 1, BuildingBlock: KUMBOL_clean_sbu_0, # of connection points: 6
#     Node 22, Type 1, BuildingBlock: KUMBOL_clean_sbu_0, # of connection points: 6
#     Node 23, Type 1, BuildingBlock: KUMBOL_clean_sbu_0, # of connection points: 6
#     Node 24, Type 1, BuildingBlock: KUMBOL_clean_sbu_0, # of connection points: 6
#     Node 25, Type 1, BuildingBlock: KUMBOL_clean_sbu_0, # of connection points: 6
#     Node 26, Type 1, BuildingBlock: KUMBOL_clean_sbu_0, # of connection points: 6
#     Edge 27, Type (0, 1), BuildingBlock: AJUNOK_clean_linker_0, # of connection points: 2
#     Edge 28, Type (0, 1), BuildingBlock: AJUNOK_clean_linker_0, # of connection points: 2
#     Edge 29, Type (0, 1), BuildingBlock: AJUNOK_clean_linker_0, # of connection points: 2
#     Edge 30, Type (0, 1), BuildingBlock: AJUNOK_clean_linker_0, # of connection points: 2
#     Edge 31, Type (0, 1), BuildingBlock: AJUNOK_clean_linker_0, # of connection points: 2
#     Edge 32, Type (0, 1), BuildingBlock: AJUNOK_clean_linker_0, # of connection points: 2
#     Edge 33, Type (0, 1), BuildingBlock: AJUNOK_clean_linker_0, # of connection points: 2
#     Edge 34, Type (0, 1), BuildingBlock: AJUNOK_clean_linker_0, # of connection points: 2
#     Edge 35, Type (0, 1), BuildingBlock: AJUNOK_clean_linker_0, # of connection points: 2
#     Edge 36, Type (0, 1), BuildingBlock: AJUNOK_clean_linker_0, # of connection points: 2
#     Edge 37, Type (0, 1), BuildingBlock: AJUNOK_clean_linker_0, # of connection points: 2
#     Edge 38, Type (0, 1), BuildingBlock: AJUNOK_clean_linker_0, # of connection points: 2
#     Edge 39, Type (0, 1), BuildingBlock: AJUNOK_clean_linker_0, # of connection points: 2
#     Edge 40, Type (0, 1), BuildingBlock: AJUNOK_clean_linker_0, # of connection points: 2
#     Edge 41, Type (0, 1), BuildingBlock: AJUNOK_clean_linker_0, # of connection points: 2
#     Edge 42, Type (0, 1), BuildingBlock: AJUNOK_clean_linker_0, # of connection points: 2
#     Edge 43, Type (0, 1), BuildingBlock: AJUNOK_clean_linker_0, # of connection points: 2
#     Edge 44, Type (0, 1), BuildingBlock: AJUNOK_clean_linker_0, # of connection points: 2
#     Edge 45, Type (0, 1), BuildingBlock: AJUNOK_clean_linker_0, # of connection points: 2
#     Edge 46, Type (0, 1), BuildingBlock: AJUNOK_clean_linker_0, # of connection points: 2
#     Edge 47, Type (0, 1), BuildingBlock: AJUNOK_clean_linker_0, # of connection points: 2
#     Edge 48, Type (0, 1), BuildingBlock: AJUNOK_clean_linker_0, # of connection points: 2
#     Edge 49, Type (0, 1), BuildingBlock: AJUNOK_clean_linker_0, # of connection points: 2
#     Edge 50, Type (0, 1), BuildingBlock: AJUNOK_clean_linker_0, # of connection points: 2
#     Edge 51, Type (0, 1), BuildingBlock: AJUNOK_clean_linker_0, # of connection points: 2
#     Edge 52, Type (0, 1), BuildingBlock: AJUNOK_clean_linker_0, # of connection points: 2
#     Edge 53, Type (0, 1), BuildingBlock: AJUNOK_clean_linker_0, # of connection points: 2
#     Edge 54, Type (0, 1), BuildingBlock: AJUNOK_clean_linker_0, # of connection points: 2
#     Edge 55, Type (0, 1), BuildingBlock: AJUNOK_clean_linker_0, # of connection points: 2
#     Edge 56, Type (0, 1), BuildingBlock: AJUNOK_clean_linker_0, # of connection points: 2
#     Edge 57, Type (0, 1), BuildingBlock: AJUNOK_clean_linker_0, # of connection points: 2
#     Edge 58, Type (0, 1), BuildingBlock: AJUNOK_clean_linker_0, # of connection points: 2
#     Edge 59, Type (0, 1), BuildingBlock: AJUNOK_clean_linker_0, # of connection points: 2
#     Edge 60, Type (0, 1), BuildingBlock: AJUNOK_clean_linker_0, # of connection points: 2
#     Edge 61, Type (0, 1), BuildingBlock: AJUNOK_clean_linker_0, # of connection points: 2
#     Edge 62, Type (0, 1), BuildingBlock: AJUNOK_clean_linker_0, # of connection points: 2
#     Edge 63, Type (0, 1), BuildingBlock: AJUNOK_clean_linker_0, # of connection points: 2
#     Edge 64, Type (0, 1), BuildingBlock: AJUNOK_clean_linker_0, # of connection points: 2
#     Edge 65, Type (0, 1), BuildingBlock: AJUNOK_clean_linker_0, # of connection points: 2
#     Edge 66, Type (0, 1), BuildingBlock: AJUNOK_clean_linker_0, # of connection points: 2
#     Edge 67, Type (0, 1), BuildingBlock: AJUNOK_clean_linker_0, # of connection points: 2
#     Edge 68, Type (0, 1), BuildingBlock: AJUNOK_clean_linker_0, # of connection points: 2
#     Edge 69, Type (0, 1), BuildingBlock: AJUNOK_clean_linker_0, # of connection points: 2
#     Edge 70, Type (0, 1), BuildingBlock: AJUNOK_clean_linker_0, # of connection points: 2
#     Edge 71, Type (0, 1), BuildingBlock: AJUNOK_clean_linker_0, # of connection points: 2
#     Edge 72, Type (0, 1), BuildingBlock: AJUNOK_clean_linker_0, # of connection points: 2
#     Edge 73, Type (0, 1), BuildingBlock: AJUNOK_clean_linker_0, # of connection points: 2
#     Edge 74, Type (0, 1), BuildingBlock: AJUNOK_clean_linker_0, # of connection points: 2
#     Edge 75, Type (0, 1), BuildingBlock: AJUNOK_clean_linker_0, # of connection points: 2
#     Edge 76, Type (0, 1), BuildingBlock: AJUNOK_clean_linker_0, # of connection points: 2
#     Edge 77, Type (0, 1), BuildingBlock: AJUNOK_clean_linker_0, # of connection points: 2
#     Edge 78, Type (0, 1), BuildingBlock: AJUNOK_clean_linker_0, # of connection points: 2
#     Edge 79, Type (0, 1), BuildingBlock: AJUNOK_clean_linker_0, # of connection points: 2
#     Edge 80, Type (0, 1), BuildingBlock: AJUNOK_clean_linker_0, # of connection points: 2
# Relax obj value: 0.026
# Max RMSD: 0.185
# Mean RMSD: 0.131
data_MOF--net-eea--node1-KUMBOL_clean_sbu_0--node2-BETDIP_clean_linker_0--edge1-AJUNOK_clean_linker_0
_symmetry_space_group_name_H-M    P1
_symmetry_Int_Tables_number       1
_symmetry_cell_setting            triclinic
loop_
_symmetry_equiv_pos_as_xyz
'x, y, z'
_cell_length_a     39.466551
_cell_length_b     40.790594
_cell_length_c     52.285292
_cell_angle_alpha  89.790044
_cell_angle_beta   89.899437
_cell_angle_gamma 119.94151
loop_
_atom_site_label
_atom_site_type_symbol
_atom_site_fract_x
_atom_site_fract_y
_atom_site_fract_z
_atom_type_partial_charge
H0 H 0.22353 0.08638 0.37331 0.0
H1 H 0.27268 0.16215 0.43664 0.0
H2 H 0.27221 0.05671 0.43709 0.0
H3 H 0.21572 0.16562 0.42863 0.0
C4 C 0.21943 0.1707 0.40814 0.0
C5 C 0.23733 0.09254 0.3919 0.0
C6 C 0.24705 0.06716 0.4036 0.0
C7 C 0.2446 0.12578 0.40435 0.0
C8 C 0.26482 0.13537 0.42772 0.0
C9 C 0.27606 0.11115 0.43925 0.0
C10 C 0.26581 0.07657 0.42748 0.0
N11 N 0.23141 0.14924 0.39313 0.0
H12 H 0.94658 0.13777 0.3714 0.0
H13 H 0.86698 0.09778 0.43524 0.0
H14 H 0.96264 0.21202 0.4345 0.0
H15 H 0.82329 0.06927 0.40247 0.0
C16 C 0.83814 0.05672 0.39243 0.0
C17 C 0.93763 0.1427 0.38992 0.0
C18 C 0.95961 0.17826 0.40184 0.0
C19 C 0.90307 0.11402 0.40136 0.0
C20 C 0.89194 0.12051 0.42552 0.0
C21 C 0.91251 0.15595 0.43737 0.0
C22 C 0.94649 0.18457 0.42546 0.0
N23 N 0.87943 0.07906 0.38838 0.0
H24 H 0.88533 0.80085 0.36326 0.0
H25 H 0.93016 0.76769 0.42738 0.0
H26 H 0.81565 0.75582 0.4315 0.0
H27 H 0.9899 0.83753 0.40416 0.0
C28 C 0.98525 0.81723 0.38925 0.0
C29 C 0.88187 0.79 0.38261 0.0
C30 C 0.84697 0.77968 0.39632 0.0
C31 C 0.9123 0.78613 0.39385 0.0
C32 C 0.9073 0.77147 0.41889 0.0
C33 C 0.8725 0.76048 0.43265 0.0
C34 C 0.84272 0.76473 0.42115 0.0
N35 N 0.9466 0.79448 0.37943 0.0
H36 H 0.08933 0.21045 0.66908 0.0
H37 H 0.16639 0.23963 0.60417 0.0
H38 H 0.06993 0.26076 0.60207 0.0
H39 H 0.15491 0.17242 0.62488 0.0
C40 C 0.17039 0.19098 0.64077 0.0
C41 C 0.09727 0.22153 0.64979 0.0
C42 C 0.07466 0.23444 0.63681 0.0
C43 C 0.13038 0.22319 0.638 0.0
C44 C 0.14091 0.2382 0.6131 0.0
C45 C 0.12 0.25286 0.60016 0.0
C46 C 0.08649 0.25002 0.61201 0.0
N47 N 0.1548 0.21266 0.65187 0.0
H48 H 0.80752 0.8917 0.6606 0.0
H49 H 0.75004 0.9113 0.5975 0.0
H50 H 0.75728 0.8097 0.60012 0.0
H51 H 0.84016 0.95778 0.66141 0.0
C52 C 0.81939 0.9662 0.65515 0.0
C53 C 0.79203 0.88274 0.64264 0.0
C54 C 0.78353 0.8476 0.63208 0.0
C55 C 0.78018 0.90594 0.62986 0.0
C56 C 0.75955 0.89358 0.60695 0.0
C57 C 0.75141 0.85917 0.59595 0.0
C58 C 0.76351 0.83635 0.60859 0.0
N59 N 0.78772 0.94167 0.63926 0.0
H60 H 0.12879 0.92765 0.65825 0.0
H61 H 0.09567 0.84443 0.59893 0.0
H62 H 0.20731 0.94637 0.59536 0.0
H63 H 0.06835 0.80515 0.63631 0.0
C64 C 0.05254 0.81882 0.64326 0.0
C65 C 0.13559 0.91839 0.64056 0.0
C66 C 0.17133 0.94205 0.6278 0.0
C67 C 0.10853 0.88261 0.63067 0.0
C68 C 0.11704 0.87103 0.60731 0.0
C69 C 0.15245 0.89411 0.59428 0.0
C70 C 0.17941 0.92925 0.60485 0.0
N71 N 0.07248 0.85923 0.64392 0.0
H72 H 0.89115 0.43107 0.70444 0.0
H73 H 0.94964 0.50756 0.76637 0.0
H74 H 0.93469 0.39586 0.76825 0.0
H75 H 0.86758 0.47224 0.69628 0.0
C76 C 0.88673 0.49919 0.70531 0.0
C77 C 0.90561 0.43696 0.72279 0.0
C78 C 0.91181 0.40925 0.73476 0.0
C79 C 0.91879 0.47233 0.73465 0.0
C80 C 0.93831 0.47976 0.75802 0.0
C81 C 0.94327 0.45213 0.77068 0.0
C82 C 0.93018 0.41708 0.75881 0.0
N83 N 0.91404 0.50194 0.72403 0.0
H84 H 0.61036 0.46939 0.70567 0.0
H85 H 0.53032 0.43701 0.76943 0.0
H86 H 0.62784 0.54933 0.76521 0.0
H87 H 0.51828 0.38002 0.76127 0.0
C88 C 0.51837 0.37847 0.74057 0.0
C89 C 0.60178 0.4761 0.72372 0.0
C90 C 0.6235 0.51311 0.73379 0.0
C91 C 0.56842 0.44783 0.73671 0.0
C92 C 0.55666 0.45743 0.75964 0.0
C93 C 0.57822 0.49365 0.77021 0.0
C94 C 0.61152 0.52117 0.75723 0.0
N95 N 0.5462 0.41061 0.72609 0.0
H96 H 0.55524 0.14175 0.70093 0.0
H97 H 0.59726 0.10706 0.76586 0.0
H98 H 0.48394 0.09779 0.76874 0.0
H99 H 0.65839 0.1707 0.74663 0.0
C100 C 0.65392 0.15381 0.72962 0.0
C101 C 0.55122 0.13097 0.72033 0.0
C102 C 0.51602 0.12099 0.73359 0.0
C103 C 0.58113 0.12666 0.73204 0.0
C104 C 0.57511 0.1116 0.75703 0.0
C105 C 0.54016 0.1012 0.77038 0.0
C106 C 0.51109 0.10626 0.75859 0.0
N107 N 0.61601 0.13525 0.71816 0.0
H108 H 0.74576 0.53148 0.9981 0.0
H109 H 0.82495 0.5732 0.93365 0.0
H110 H 0.7201 0.58051 0.93307 0.0
H111 H 0.86791 0.59244 0.97015 0.0
C112 C 0.85634 0.56394 0.97772 0.0
C113 C 0.75318 0.54408 0.97918 0.0
C114 C 0.7287 0.55577 0.96717 0.0
C115 C 0.78851 0.55075 0.96734 0.0
C116 C 0.79813 0.56798 0.94291 0.0
C117 C 0.77397 0.57926 0.93045 0.0
C118 C 0.73919 0.57244 0.94264 0.0
N119 N 0.81465 0.54104 0.98013 0.0
H120 H 0.48599 0.22084 0.98882 0.0
H121 H 0.43134 0.24654 0.92686 0.0
H122 H 0.41405 0.1346 0.93478 0.0
H123 H 0.47992 0.30477 0.93267 0.0
C124 C 0.48265 0.30715 0.95333 0.0
C125 C 0.46785 0.21205 0.97186 0.0
C126 C 0.45075 0.17444 0.96341 0.0
C127 C 0.46155 0.23847 0.95866 0.0
C128 C 0.43736 0.22682 0.93693 0.0
C129 C 0.42039 0.18953 0.92799 0.0
C130 C 0.42719 0.16351 0.94141 0.0
N131 N 0.47856 0.27608 0.96816 0.0
H132 H 0.78501 0.26171 0.99582 0.0
H133 H 0.76111 0.18122 0.93574 0.0
H134 H 0.86433 0.29112 0.93207 0.0
H135 H 0.74127 0.14324 0.97499 0.0
C136 C 0.7209 0.15229 0.9811 0.0
C137 C 0.79302 0.25448 0.97775 0.0
C138 C 0.82803 0.28078 0.96532 0.0
C139 C 0.76875 0.21841 0.96726 0.0
C140 C 0.77938 0.20906 0.94375 0.0
C141 C 0.81367 0.23528 0.93074 0.0
C142 C 0.83755 0.27098 0.94173 0.0
N143 N 0.73394 0.19181 0.98051 0.0
H144 H 0.53602 0.74313 0.04452 0.0
H145 H 0.59446 0.82605 0.10312 0.0
H146 H 0.59384 0.72047 0.10603 0.0
H147 H 0.53922 0.83297 0.09537 0.0
C148 C 0.54226 0.83561 0.07468 0.0
C149 C 0.55278 0.75174 0.06207 0.0
C150 C 0.5636 0.72751 0.0741 0.0
C151 C 0.56241 0.78661 0.07302 0.0
C152 C 0.5848 0.79811 0.09553 0.0
C153 C 0.59607 0.77431 0.1077 0.0
C154 C 0.58512 0.73898 0.09687 0.0
N155 N 0.54995 0.81003 0.06092 0.0
H156 H 0.28087 0.80594 0.03623 0.0
H157 H 0.19989 0.76593 0.09955 0.0
H158 H 0.29301 0.88118 0.09779 0.0
H159 H 0.20338 0.71193 0.09038 0.0
C160 C 0.1965 0.71088 0.07018 0.0
C161 C 0.27109 0.81105 0.05438 0.0
C162 C 0.29106 0.84744 0.06541 0.0
C163 C 0.23838 0.78122 0.06677 0.0
C164 C 0.2254 0.78837 0.09009 0.0
C165 C 0.2446 0.82438 0.10125 0.0
C166 C 0.27776 0.85348 0.08902 0.0
N167 N 0.2178 0.7446 0.05531 0.0
H168 H 0.21758 0.48028 0.03797 0.0
H169 H 0.25349 0.4352 0.10052 0.0
H170 H 0.14211 0.43 0.10322 0.0
H171 H 0.27726 0.41852 0.06274 0.0
C172 C 0.2948 0.44733 0.05563 0.0
C173 C 0.21207 0.46697 0.05665 0.0
C174 C 0.17568 0.45502 0.06898 0.0
C175 C 0.24048 0.45971 0.06781 0.0
C176 C 0.23224 0.44117 0.09185 0.0
C177 C 0.19654 0.42972 0.10464 0.0
C178 C 0.16923 0.43779 0.09326 0.0
N179 N 0.27662 0.47022 0.05463 0.0
H180 H 0.41831 0.86345 0.33002 0.0
H181 H 0.50172 0.90627 0.26819 0.0
H182 H 0.40202 0.92224 0.26665 0.0
H183 H 0.54161 0.92554 0.30838 0.0
C184 C 0.5295 0.89606 0.31397 0.0
C185 C 0.42766 0.87772 0.31169 0.0
C186 C 0.40521 0.89164 0.29953 0.0
C187 C 0.4634 0.88416 0.30086 0.0
C188 C 0.47535 0.90291 0.27707 0.0
C189 C 0.45367 0.91702 0.26457 0.0
C190 C 0.41869 0.91111 0.27599 0.0
N191 N 0.48777 0.87265 0.31397 0.0
H192 H 0.14575 0.54678 0.32756 0.0
H193 H 0.10028 0.58152 0.26517 0.0
H194 H 0.08927 0.47153 0.26414 0.0
H195 H 0.16116 0.63726 0.27302 0.0
C196 C 0.15538 0.63844 0.29323 0.0
C197 C 0.131 0.54066 0.30927 0.0
C198 C 0.11728 0.50506 0.29775 0.0
C199 C 0.12637 0.56881 0.29707 0.0
C200 C 0.10612 0.56069 0.27382 0.0
C201 C 0.09254 0.52565 0.26191 0.0
C202 C 0.09857 0.49811 0.27382 0.0
N203 N 0.14191 0.60514 0.30837 0.0
H204 H 0.46535 0.59072 0.33014 0.0
H205 H 0.42773 0.51043 0.26865 0.0
H206 H 0.53625 0.61523 0.2622 0.0
H207 H 0.41039 0.47187 0.30908 0.0
C208 C 0.39198 0.48304 0.31564 0.0
C209 C 0.4702 0.58301 0.31125 0.0
C210 C 0.50495 0.60729 0.29771 0.0
C211 C 0.44247 0.54776 0.30107 0.0
C212 C 0.44913 0.53731 0.27672 0.0
C213 C 0.48273 0.56168 0.26243 0.0
C214 C 0.51021 0.59656 0.27307 0.0
N215 N 0.40803 0.52307 0.31538 0.0
Gd216 Gd 0.51271 0.02727 0.04977 0.0
Gd217 Gd 0.48559 0.98617 0.98469 0.0
C218 C 0.36736 0.8792 0.97171 0.0
C219 C 0.38691 0.83392 0.95863 0.0
C220 C 0.43597 0.89896 0.96794 0.0
C221 C 0.4071 0.90717 0.97394 0.0
C222 C 0.42632 0.86262 0.95934 0.0
C223 C 0.35743 0.8422 0.96487 0.0
C224 C 0.33895 0.88972 0.97524 0.0
C225 C 0.35061 0.92766 0.97944 0.0
N226 N 0.41795 0.94342 0.97979 0.0
C227 C 0.39045 0.95435 0.98119 0.0
H228 H 0.3989 0.98342 0.98446 0.0
C229 C 0.50269 0.92269 0.9585 0.0
N230 N 0.47351 0.92757 0.96845 0.0
C231 C 0.4947 0.88716 0.94975 0.0
C232 C 0.45643 0.85676 0.95066 0.0
H233 H 0.53236 0.94605 0.95785 0.0
H234 H 0.32708 0.82019 0.96337 0.0
H235 H 0.59727 0.02649 0.0541 0.0
H236 H 0.3081 0.86911 0.97379 0.0
H237 H 0.32896 0.9364 0.98145 0.0
H238 H 0.37888 0.80566 0.95241 0.0
H239 H 0.46528 0.07277 0.06648 0.0
H240 H 0.68944 0.13973 0.06708 0.0
H241 H 0.66725 0.072 0.06025 0.0
H242 H 0.62133 0.20851 0.07849 0.0
H243 H 0.51806 0.88324 0.94236 0.0
H244 H 0.45028 0.8293 0.9438 0.0
H245 H 0.67205 0.19063 0.07356 0.0
H246 H 0.4809 0.13762 0.07794 0.0
N247 N 0.57988 0.06809 0.05663 0.0
C248 C 0.65863 0.11986 0.06437 0.0
C249 C 0.6462 0.08164 0.06061 0.0
C250 C 0.63098 0.13176 0.06542 0.0
C251 C 0.59125 0.10477 0.06163 0.0
C252 C 0.60642 0.0559 0.05712 0.0
N253 N 0.52482 0.08759 0.06196 0.0
C254 C 0.56282 0.11486 0.06439 0.0
C255 C 0.50422 0.13164 0.07406 0.0
C256 C 0.54323 0.16048 0.07543 0.0
C257 C 0.49546 0.09498 0.06767 0.0
C258 C 0.57313 0.15216 0.07099 0.0
H259 H 0.54994 0.18882 0.08052 0.0
O260 O 0.47803 0.01193 0.08472 0.0
O261 O 0.46764 0.98124 0.02564 0.0
O262 O 0.46615 0.02897 0.99363 0.0
O263 O 0.5106 0.07009 0.02347 0.0
O264 O 0.44784 0.0061 0.05137 0.0
O265 O 0.52975 0.00658 0.08309 0.0
O266 O 0.51916 0.00562 0.94922 0.0
O267 O 0.53153 0.0305 1.00931 0.0
O268 O 0.52917 0.98188 0.04358 0.0
O269 O 0.49486 0.94464 1.0082 0.0
O270 O 0.55016 0.00636 0.98223 0.0
O271 O 0.46767 0.01052 0.95409 0.0
C272 C 0.43709 0.97948 0.03476 0.0
C273 C 0.61277 0.17959 0.07365 0.0
C274 C 0.64165 0.16941 0.07085 0.0
C275 C 0.50113 0.00352 0.09736 0.0
C276 C 0.51098 0.01842 0.1237 0.0
C277 C 0.53219 0.05756 0.1277 0.0
C278 C 0.49834 0.99364 0.14506 0.0
C279 C 0.50711 0.00809 0.17025 0.0
C280 C 0.54032 0.072 0.15245 0.0
C281 C 0.52773 0.0476 0.17353 0.0
C282 C 0.48452 0.06215 1.00527 0.0
C283 C 0.56157 0.0313 1.00006 0.0
C284 C 0.49541 0.01488 0.93847 0.0
C285 C 0.48368 1.0018 0.91194 0.0
C286 C 0.45483 0.96423 0.90736 0.0
C287 C 0.50144 0.02673 0.89101 0.0
C288 C 0.49028 0.01405 0.86561 0.0
C289 C 0.44375 0.95154 0.8824 0.0
C290 C 0.46123 0.97612 0.86172 0.0
C291 C 0.51575 0.95097 0.02937 0.0
H292 H 0.54215 0.07702 0.1117 0.0
H293 H 0.48206 0.96333 0.14207 0.0
H294 H 0.55629 0.1023 0.15533 0.0
H295 H 0.53387 0.05976 0.1925 0.0
H296 H 0.44082 0.94472 0.9231 0.0
H297 H 0.5241 0.05565 0.89451 0.0
H298 H 0.42137 0.9225 0.87905 0.0
H299 H 0.45161 0.9655 0.84258 0.0
Gd300 Gd 0.98716 0.48968 0.05025 0.0
Gd301 Gd 0.03239 0.50447 0.98671 0.0
C302 C 0.13086 0.47673 0.98034 0.0
C303 C 0.18725 0.53854 0.97165 0.0
C304 C 0.12268 0.53158 0.97657 0.0
C305 C 0.10682 0.49324 0.98101 0.0
C306 C 0.16282 0.55441 0.9709 0.0
C307 C 0.1713 0.49976 0.97642 0.0
C308 C 0.11339 0.43745 0.98287 0.0
C309 C 0.07282 0.41555 0.98508 0.0
N310 N 0.0676 0.47177 0.98461 0.0
C311 C 0.05021 0.4332 0.98573 0.0
H312 H 0.01901 0.41574 0.98784 0.0
C313 C 0.11113 0.58167 0.96642 0.0
N314 N 0.09821 0.54589 0.97563 0.0
C315 C 0.15075 0.60554 0.96082 0.0
C316 C 0.17687 0.59207 0.96355 0.0
H317 H 0.0909 0.59213 0.96439 0.0
H318 H 0.19029 0.48766 0.97622 0.0
H319 H 0.98904 0.57326 0.04945 0.0
H320 H 0.13084 0.4237 0.98253 0.0
H321 H 0.05894 0.38507 0.9866 0.0
H322 H 0.21827 0.55574 0.96772 0.0
H323 H 0.94066 0.40353 0.07645 0.0
H324 H 0.87227 0.55203 0.05943 0.0
H325 H 0.94271 0.59682 0.05258 0.0
H326 H 0.79981 0.41945 0.07857 0.0
H327 H 0.16109 0.63426 0.95439 0.0
H328 H 0.20751 0.61052 0.95902 0.0
H329 H 0.81884 0.48544 0.06846 0.0
H330 H 0.87365 0.3561 0.09025 0.0
N331 N 0.94534 0.51528 0.05373 0.0
C332 C 0.89251 0.54145 0.0581 0.0
C333 C 0.93226 0.56682 0.05432 0.0
C334 C 0.87965 0.50292 0.06118 0.0
C335 C 0.90722 0.49063 0.05917 0.0
C336 C 0.95849 0.55325 0.05257 0.0
N337 N 0.92461 0.44382 0.06469 0.0
C338 C 0.89645 0.45359 0.06472 0.0
C339 C 0.87954 0.38326 0.08283 0.0
C340 C 0.84947 0.3918 0.08108 0.0
C341 C 0.91736 0.41009 0.07502 0.0
C342 C 0.85793 0.42769 0.07259 0.0
H343 H 0.82025 0.37109 0.08733 0.0
O344 O 1.00302 0.47348 0.08598 0.0
O345 O 0.0366 0.49248 0.02771 0.0
O346 O 0.97973 0.4448 0.99019 0.0
O347 O 0.94464 0.43836 0.02785 0.0
O348 O 1.00975 0.44857 0.05345 0.0
O349 O 1.00507 0.52737 0.08281 0.0
O350 O 0.02681 0.52678 0.95017 0.0
O351 O 0.98315 0.50259 1.00912 0.0
O352 O 0.03524 0.55125 0.04484 0.0
O353 O 0.07479 0.55405 0.01066 0.0
O354 O 0.01158 0.54685 0.98353 0.0
O355 O 0.01183 0.46806 0.95339 0.0
C356 C 0.03835 0.4649 0.03741 0.0
C357 C 0.82971 0.43907 0.07294 0.0
C358 C 0.84055 0.47666 0.06722 0.0
C359 C 1.0088 0.50382 0.09783 0.0
C360 C 0.9917 0.49826 0.1235 0.0
C361 C 0.95262 0.48874 0.12708 0.0
C362 C 0.01513 0.50272 0.14479 0.0
C363 C 0.99994 0.4983 0.16972 0.0
C364 C 0.93709 0.48355 0.15175 0.0
C365 C 0.96055 0.4883 0.17298 0.0
C366 C 0.94927 0.42562 1.00565 0.0
C367 C 0.98271 0.53095 0.99944 0.0
C368 C 0.01595 0.49516 0.93812 0.0
C369 C 0.03485 0.49803 0.9133 0.0
C370 C 0.07532 0.51272 0.91139 0.0
C371 C 0.01196 0.48641 0.89109 0.0
C372 C 0.02946 0.49069 0.86686 0.0
C373 C 0.09285 0.51654 0.88755 0.0
C374 C 0.0702 0.50585 0.8654 0.0
C375 C 0.06812 0.56867 0.03129 0.0
H376 H 0.93422 0.48548 0.11091 0.0
H377 H 0.04518 0.50958 0.14191 0.0
H378 H 0.90689 0.47618 0.15443 0.0
H379 H 0.94811 0.48484 0.19196 0.0
H380 H 0.09341 0.52132 0.9282 0.0
H381 H 0.98054 0.47392 0.89279 0.0
H382 H 0.12416 0.52813 0.88621 0.0
H383 H 0.08467 0.50987 0.84708 0.0
Gd384 Gd 0.50716 0.52655 0.98367 0.0
Gd385 Gd 0.52965 0.50377 0.04713 0.0
C386 C 0.6477 0.5115 0.06066 0.0
C387 C 0.62856 0.44604 0.06988 0.0
C388 C 0.57916 0.46358 0.06122 0.0
C389 C 0.60799 0.5008 0.05767 0.0
C390 C 0.58901 0.43593 0.06807 0.0
C391 C 0.65787 0.48376 0.06611 0.0
C392 C 0.67587 0.54989 0.05892 0.0
C393 C 0.66399 0.57659 0.0554 0.0
N394 N 0.59705 0.52688 0.05284 0.0
C395 C 0.62421 0.56458 0.05278 0.0
H396 H 0.61561 0.58559 0.04988 0.0
C397 C 0.51175 0.41973 0.06628 0.0
N398 N 0.54132 0.45491 0.05956 0.0
C399 C 0.52002 0.39131 0.07322 0.0
C400 C 0.5588 0.39928 0.07374 0.0
H401 H 0.48172 0.4134 0.06565 0.0
H402 H 0.68824 0.49138 0.06821 0.0
H403 H 0.41955 0.44704 0.97908 0.0
H404 H 0.70669 0.55927 0.06099 0.0
H405 H 0.68547 0.60643 0.05456 0.0
H406 H 0.63675 0.42512 0.07484 0.0
H407 H 0.55844 0.61666 0.96441 0.0
H408 H 0.33207 0.47849 0.96874 0.0
H409 H 0.35043 0.42906 0.97398 0.0
H410 H 0.40705 0.61296 0.95734 0.0
H411 H 0.49649 0.36325 0.07802 0.0
H412 H 0.56514 0.37723 0.07914 0.0
H413 H 0.35348 0.54738 0.96304 0.0
H414 H 0.54674 0.66913 0.95309 0.0
N415 N 0.44043 0.50628 0.97755 0.0
C416 C 0.36255 0.4866 0.97098 0.0
C417 C 0.37281 0.45862 0.97384 0.0
C418 C 0.39191 0.52464 0.97005 0.0
C419 C 0.43111 0.53364 0.97319 0.0
C420 C 0.41215 0.469 0.97672 0.0
N421 N 0.49843 0.57745 0.97159 0.0
C422 C 0.46111 0.57047 0.97011 0.0
C423 C 0.5224 0.64159 0.95803 0.0
C424 C 0.4843 0.63553 0.95812 0.0
C425 C 0.52893 0.61186 0.9644 0.0
C426 C 0.45297 0.59941 0.96366 0.0
H427 H 0.47929 0.65854 0.95305 0.0
O428 O 0.54349 0.54363 0.94938 0.0
O429 O 0.55075 0.51996 1.00707 0.0
O430 O 0.54752 0.56599 0.04366 0.0
O431 O 0.51376 0.57321 1.00939 0.0
O432 O 0.57269 0.56641 0.98347 0.0
O433 O 0.48698 0.49291 0.9491 0.0
O434 O 0.49623 0.48413 0.08258 0.0
O435 O 0.48519 0.50911 0.02374 0.0
O436 O 0.48675 0.46384 0.98822 0.0
O437 O 0.52433 0.45814 0.02031 0.0
O438 O 0.4647 0.46249 0.04742 0.0
O439 O 0.54675 0.54032 0.08036 0.0
C440 C 0.58232 0.54798 0.99914 0.0
C441 C 0.41394 0.59102 0.96196 0.0
C442 C 0.38344 0.55368 0.96518 0.0
C443 C 0.51764 0.51588 0.93567 0.0
C444 C 0.51051 0.52591 0.90993 0.0
C445 C 0.48793 0.54338 0.90671 0.0
C446 C 0.52669 0.5182 0.88832 0.0
C447 C 0.52046 0.52807 0.86358 0.0
C448 C 0.4818 0.55337 0.88233 0.0
C449 C 0.4979 0.54581 0.86091 0.0
C450 C 0.53404 0.58508 0.03073 0.0
C451 C 0.45424 0.48021 0.03173 0.0
C452 C 0.51909 0.51512 0.09494 0.0
C453 C 0.53052 0.51074 0.121 0.0
C454 C 0.55623 0.49686 0.12477 0.0
C455 C 0.51583 0.52082 0.14234 0.0
C456 C 0.52684 0.51706 0.16739 0.0
C457 C 0.56706 0.49287 0.14946 0.0
C458 C 0.55253 0.50283 0.17061 0.0
C459 C 0.50224 0.44531 0.99961 0.0
H460 H 0.47494 0.54921 0.92298 0.0
H461 H 0.5435 0.50401 0.89077 0.0
H462 H 0.46443 0.56697 0.88002 0.0
H463 H 0.49279 0.55395 0.84219 0.0
H464 H 0.56799 0.4892 0.10867 0.0
H465 H 0.49564 0.5312 0.13942 0.0
H466 H 0.58698 0.48216 0.15222 0.0
H467 H 0.56183 0.49987 0.18954 0.0
Gd468 Gd 0.181 0.35922 0.384 0.0
Gd469 Gd 0.15627 0.3166 0.31934 0.0
C470 C 0.04343 0.20419 0.30703 0.0
C471 C 0.06811 0.16219 0.29569 0.0
C472 C 0.11317 0.22873 0.30401 0.0
C473 C 0.08221 0.23436 0.30911 0.0
C474 C 0.10655 0.19284 0.29653 0.0
C475 C 0.03657 0.16786 0.30098 0.0
C476 C 0.0128 0.21174 0.31028 0.0
C477 C 0.02132 0.24888 0.31436 0.0
N478 N 0.09 0.26988 0.31467 0.0
C479 C 0.06031 0.27782 0.3161 0.0
H480 H 0.06649 0.30624 0.31949 0.0
C481 C 0.18098 0.25612 0.29635 0.0
N482 N 0.14981 0.25905 0.30487 0.0
C483 C 0.17595 0.22109 0.28883 0.0
C484 C 0.13864 0.18915 0.28932 0.0
H485 H 0.20995 0.28061 0.29596 0.0
H486 H 1.007 0.14422 0.29959 0.0
H487 H 0.26678 0.36095 0.38919 0.0
H488 H 0.98259 0.18935 0.30895 0.0
H489 H 0.9979 0.25525 0.31633 0.0
H490 H 0.06241 0.13429 0.29029 0.0
H491 H 0.13144 0.40302 0.3998 0.0
H492 H 0.35671 0.47529 0.40176 0.0
H493 H 0.33629 0.40783 0.39559 0.0
H494 H 0.28552 0.5414 0.41126 0.0
H495 H 0.20085 0.21874 0.2827 0.0
H496 H 0.13481 0.16208 0.28342 0.0
H497 H 0.33752 0.52509 0.40723 0.0
H498 H 0.14525 0.46759 0.4104 0.0
N499 N 0.24785 0.40147 0.39105 0.0
C500 C 0.32608 0.4548 0.399 0.0
C501 C 0.31465 0.41674 0.39559 0.0
C502 C 0.29768 0.46576 0.39961 0.0
C503 C 0.25823 0.43797 0.39579 0.0
C504 C 0.27513 0.39022 0.39197 0.0
N505 N 0.19141 0.41921 0.39558 0.0
C506 C 0.22909 0.44718 0.39805 0.0
C507 C 0.1691 0.46227 0.40685 0.0
C508 C 0.20778 0.49183 0.40814 0.0
C509 C 0.16138 0.42577 0.40094 0.0
C510 C 0.23838 0.48437 0.40417 0.0
H511 H 0.2137 0.52005 0.41283 0.0
O512 O 0.1455 0.3434 0.41865 0.0
O513 O 0.13697 0.31188 0.36014 0.0
O514 O 0.13403 0.35773 0.32689 0.0
O515 O 0.17614 0.40002 0.35721 0.0
O516 O 0.11593 0.33666 0.38502 0.0
O517 O 0.1987 0.34063 0.41801 0.0
O518 O 0.19119 0.34053 0.28479 0.0
O519 O 0.20093 0.36281 0.3437 0.0
O520 O 0.19924 0.31476 0.37895 0.0
O521 O 0.16695 0.27676 0.3435 0.0
O522 O 0.22123 0.33906 0.31737 0.0
O523 O 0.13298 0.33216 0.28651 0.0
C524 C 0.10587 0.30943 0.36899 0.0
C525 C 0.27773 0.51255 0.40682 0.0
C526 C 0.30734 0.50327 0.40454 0.0
C527 C 0.16915 0.33632 0.43181 0.0
C528 C 0.17773 0.35127 0.45817 0.0
C529 C 0.19832 0.39042 0.46218 0.0
C530 C 0.16488 0.32646 0.47952 0.0
C531 C 0.173 0.34092 0.50471 0.0
C532 C 0.20578 0.40484 0.48694 0.0
C533 C 0.19316 0.38042 0.50801 0.0
C534 C 0.15061 0.39102 0.33847 0.0
C535 C 0.23165 0.36443 0.33483 0.0
C536 C 0.16385 0.34255 0.27227 0.0
C537 C 0.15725 0.32835 0.24564 0.0
C538 C 0.14245 0.2897 0.2412 0.0
C539 C 0.16644 0.35326 0.22448 0.0
C540 C 0.16058 0.33931 0.19913 0.0
C541 C 0.13758 0.27599 0.21632 0.0
C542 C 0.14677 0.30049 0.1955 0.0
C543 C 0.18699 0.28369 0.36504 0.0
H544 H 0.20842 0.40988 0.44616 0.0
H545 H 0.14907 0.29614 0.47655 0.0
H546 H 0.22137 0.43514 0.48984 0.0
H547 H 0.19895 0.39253 0.527 0.0
H548 H 0.13487 0.27008 0.25696 0.0
H549 H 0.17755 0.38313 0.22773 0.0
H550 H 0.12663 0.24616 0.21316 0.0
H551 H 0.1431 0.28897 0.17641 0.0
Gd552 Gd 0.65795 0.81752 0.38107 0.0
Gd553 Gd 0.70493 0.83379 0.31808 0.0
C554 C 0.82062 0.8355 0.30618 0.0
C555 C 0.86395 0.90034 0.29244 0.0
C556 C 0.79576 0.87884 0.30234 0.0
C557 C 0.78977 0.84339 0.30843 0.0
C558 C 0.83256 0.90735 0.29338 0.0
C559 C 0.85802 0.86448 0.29894 0.0
C560 C 0.81258 0.79838 0.31028 0.0
C561 C 0.77421 0.76997 0.31521 0.0
N562 N 0.75309 0.81591 0.31478 0.0
C563 C 0.74458 0.77919 0.31694 0.0
H564 H 0.71515 0.75706 0.32094 0.0
C565 C 0.7678 0.91724 0.29391 0.0
N566 N 0.76469 0.88446 0.30323 0.0
C567 C 0.80368 0.94637 0.28485 0.0
C568 C 0.83632 0.94155 0.28479 0.0
H569 H 0.74273 0.92119 0.29382 0.0
H570 H 0.88219 0.85909 0.29741 0.0
H571 H 0.6516 0.89664 0.38382 0.0
H572 H 0.83548 0.79117 0.30888 0.0
H573 H 0.76744 0.74098 0.3178 0.0
H574 H 0.8926 0.92207 0.28599 0.0
H575 H 0.61533 0.72632 0.39861 0.0
H576 H 0.5317 0.86501 0.39459 0.0
H577 H 0.6009 0.9145 0.38873 0.0
H578 H 0.46809 0.73058 0.40614 0.0
H579 H 0.80614 0.9725 0.27791 0.0
H580 H 0.86406 0.96412 0.27768 0.0
H581 H 0.4822 0.79618 0.40064 0.0
H582 H 0.54922 0.67373 0.40907 0.0
N583 N 0.6117 0.83748 0.38629 0.0
C584 C 0.5539 0.85697 0.3925 0.0
C585 C 0.59293 0.88498 0.38927 0.0
C586 C 0.54418 0.819 0.39378 0.0
C587 C 0.5742 0.81008 0.39083 0.0
C588 C 0.62166 0.8747 0.38651 0.0
N589 N 0.5964 0.7663 0.39265 0.0
C590 C 0.56626 0.77328 0.39407 0.0
C591 C 0.55358 0.70156 0.40478 0.0
C592 C 0.52189 0.70786 0.40504 0.0
C593 C 0.59098 0.73141 0.39895 0.0
C594 C 0.5281 0.74421 0.40011 0.0
H595 H 0.49298 0.68473 0.40969 0.0
O596 O 0.67261 0.80119 0.41713 0.0
O597 O 0.70909 0.82233 0.35931 0.0
O598 O 0.66135 0.77114 0.32604 0.0
O599 O 0.61638 0.77109 0.35472 0.0
O600 O 0.68271 0.7782 0.38496 0.0
O601 O 0.67514 0.85531 0.41371 0.0
O602 O 0.68466 0.84365 0.28186 0.0
O603 O 0.65516 0.83082 0.34027 0.0
O604 O 0.70195 0.88041 0.37411 0.0
O605 O 0.74505 0.88466 0.34182 0.0
O606 O 0.67978 0.87262 0.31284 0.0
O607 O 0.68965 0.79357 0.28703 0.0
C608 C 0.71159 0.79525 0.36926 0.0
C609 C 0.4977 0.75259 0.40177 0.0
C610 C 0.50573 0.78993 0.39864 0.0
C611 C 0.67802 0.83144 0.42898 0.0
C612 C 0.65933 0.82517 0.45427 0.0
C613 C 0.61939 0.81312 0.45653 0.0
C614 C 0.6815 0.83033 0.47643 0.0
C615 C 0.66387 0.82331 0.50079 0.0
C616 C 0.60176 0.80622 0.48061 0.0
C617 C 0.62379 0.81131 0.50263 0.0
C618 C 0.62602 0.75451 0.33671 0.0
C619 C 0.6526 0.85762 0.32989 0.0
C620 C 0.68253 0.81399 0.27107 0.0
C621 C 0.70038 0.82024 0.24555 0.0
C622 C 0.74097 0.83694 0.24256 0.0
C623 C 0.67654 0.8107 0.22386 0.0
C624 C 0.69313 0.81881 0.19916 0.0
C625 C 0.75767 0.84488 0.21819 0.0
C626 C 0.73401 0.83611 0.19659 0.0
C627 C 0.73549 0.89938 0.36119 0.0
H628 H 0.60188 0.80911 0.43977 0.0
H629 H 0.71237 0.83953 0.47471 0.0
H630 H 0.57095 0.7971 0.48222 0.0
H631 H 0.60964 0.80656 0.52113 0.0
H632 H 0.75974 0.84392 0.25897 0.0
H633 H 0.64509 0.79667 0.22631 0.0
H634 H 0.78907 0.85803 0.21603 0.0
H635 H 0.7477 0.84298 0.17788 0.0
Gd636 Gd 0.18263 0.86142 0.31578 0.0
Gd637 Gd 0.20531 0.84062 0.38001 0.0
C638 C 0.32008 0.84087 0.39259 0.0
C639 C 0.29713 0.77507 0.40344 0.0
C640 C 0.25066 0.79644 0.39516 0.0
C641 C 0.28096 0.83252 0.39033 0.0
C642 C 0.25831 0.7675 0.40253 0.0
C643 C 0.328 0.81172 0.39844 0.0
C644 C 0.34996 0.87846 0.38977 0.0
C645 C 0.34036 0.90674 0.38599 0.0
N646 N 0.27212 0.85995 0.38504 0.0
C647 C 0.30107 0.897 0.38407 0.0
H648 H 0.29424 0.9192 0.38096 0.0
C649 C 0.18302 0.75679 0.40269 0.0
N650 N 0.21365 0.79033 0.39431 0.0
C651 C 0.18904 0.7271 0.41009 0.0
C652 C 0.2268 0.73226 0.40959 0.0
H653 H 0.15373 0.75258 0.40285 0.0
H654 H 0.35785 0.81747 0.39993 0.0
H655 H 0.09584 0.7814 0.31084 0.0
H656 H 0.3804 0.88607 0.39126 0.0
H657 H 0.3632 0.93603 0.38441 0.0
H658 H 0.30364 0.75309 0.40874 0.0
H659 H 0.23358 0.95324 0.30007 0.0
H660 H 1.00738 0.81155 0.30022 0.0
H661 H 0.02651 0.76264 0.30515 0.0
H662 H 0.08084 0.94648 0.29108 0.0
H663 H 0.16457 0.70024 0.41607 0.0
H664 H 0.23142 0.70926 0.41539 0.0
H665 H 0.0279 0.88035 0.29543 0.0
H666 H 0.22093 0.00551 0.29001 0.0
N667 N 0.1159 0.84046 0.30952 0.0
C668 C 0.03792 0.81998 0.30263 0.0
C669 C 0.04862 0.79229 0.30531 0.0
C670 C 0.0669 0.85819 0.30218 0.0
C671 C 0.1062 0.86763 0.30546 0.0
C672 C 0.08802 0.80308 0.30852 0.0
N673 N 0.17343 0.91242 0.30489 0.0
C674 C 0.1359 0.90479 0.303 0.0
C675 C 0.19676 0.97735 0.29372 0.0
C676 C 0.15833 0.97036 0.29297 0.0
C677 C 0.20384 0.94775 0.29933 0.0
C678 C 0.12728 0.93361 0.29721 0.0
H679 H 0.15292 0.99332 0.28854 0.0
O680 O 0.21724 0.88071 0.28087 0.0
O681 O 0.22597 0.85458 0.33938 0.0
O682 O 0.22752 0.90349 0.3733 0.0
O683 O 0.18635 0.90591 0.34264 0.0
O684 O 0.24811 0.90062 0.31515 0.0
O685 O 0.16337 0.82684 0.28152 0.0
O686 O 0.17179 0.82605 0.41548 0.0
O687 O 0.1618 0.84533 0.35571 0.0
O688 O 0.16368 0.79894 0.31997 0.0
O689 O 0.19479 0.79108 0.35575 0.0
O690 O 0.13933 0.80158 0.38139 0.0
O691 O 0.22536 0.87954 0.41211 0.0
C692 C 0.25755 0.88204 0.33083 0.0
C693 C 0.0881 0.92466 0.29521 0.0
C694 C 0.05795 0.88701 0.29771 0.0
C695 C 0.19252 0.85153 0.2676 0.0
C696 C 0.18291 0.85968 0.242 0.0
C697 C 0.1607 0.87762 0.23931 0.0
C698 C 0.19647 0.84989 0.21998 0.0
C699 C 0.18772 0.85791 0.19539 0.0
C700 C 0.15247 0.88616 0.21507 0.0
C701 C 0.16599 0.87658 0.19326 0.0
C702 C 0.21077 0.92084 0.36193 0.0
C703 C 0.13 0.81814 0.36403 0.0
C704 C 0.197 0.85665 0.42723 0.0
C705 C 0.2081 0.85146 0.45324 0.0
C706 C 0.23481 0.83865 0.45664 0.0
C707 C 0.19171 0.85898 0.47488 0.0
C708 C 0.20169 0.8533 0.49978 0.0
C709 C 0.24502 0.83329 0.48118 0.0
C710 C 0.22869 0.84058 0.5026 0.0
C711 C 0.17526 0.77917 0.33405 0.0
H712 H 0.14987 0.88519 0.2559 0.0
H713 H 0.21341 0.83575 0.22199 0.0
H714 H 0.13563 0.90037 0.21318 0.0
H715 H 0.15968 0.88405 0.17468 0.0
H716 H 0.24792 0.83298 0.44034 0.0
H717 H 0.17102 0.86885 0.47234 0.0
H718 H 0.26584 0.8236 0.48363 0.0
H719 H 0.23768 0.83682 0.52144 0.0
Gd720 Gd 0.84367 0.6912 0.71589 0.0
Gd721 Gd 0.81593 0.6604 0.64897 0.0
C722 C 0.69169 0.56065 0.64167 0.0
C723 C 0.70329 0.50957 0.62995 0.0
C724 C 0.75817 0.57338 0.63564 0.0
C725 C 0.73245 0.58611 0.64186 0.0
C726 C 0.74355 0.53534 0.62837 0.0
C727 C 0.67743 0.52218 0.6367 0.0
C728 C 0.6663 0.57477 0.64549 0.0
C729 C 0.68153 0.61358 0.64811 0.0
N730 N 0.74696 0.62362 0.64638 0.0
C731 C 0.72202 0.63778 0.64819 0.0
H732 H 0.73254 0.66757 0.65004 0.0
C733 C 0.82186 0.58923 0.62227 0.0
N734 N 0.79704 0.5988 0.63429 0.0
C735 C 0.80866 0.55198 0.61469 0.0
C736 C 0.76954 0.52467 0.61844 0.0
H737 H 0.85241 0.61002 0.61969 0.0
H738 H 0.64629 0.50222 0.63695 0.0
H739 H 0.93033 0.69624 0.71082 0.0
H740 H 0.63489 0.55612 0.64551 0.0
H741 H 0.66207 0.62494 0.65023 0.0
H742 H 0.6917 0.48012 0.62497 0.0
H743 H 0.79561 0.72876 0.74457 0.0
H744 H 0.02046 0.80889 0.7278 0.0
H745 H 1.00032 0.7431 0.71554 0.0
H746 H 0.94845 0.86893 0.75461 0.0
H747 H 0.82874 0.54433 0.60617 0.0
H748 H 0.75938 0.49579 0.61257 0.0
H749 H 1.00077 0.85605 0.74181 0.0
H750 H 0.8092 0.78996 0.76287 0.0
N751 N 0.91095 0.73468 0.72012 0.0
C752 C 0.98968 0.78827 0.72586 0.0
C753 C 0.97843 0.75115 0.71909 0.0
C754 C 0.96097 0.79799 0.73089 0.0
C755 C 0.92135 0.77007 0.72797 0.0
C756 C 0.93869 0.7245 0.71659 0.0
N757 N 0.85464 0.74874 0.73358 0.0
C758 C 0.89215 0.77738 0.73501 0.0
C759 C 0.83278 0.78694 0.75485 0.0
C760 C 0.87098 0.81751 0.75486 0.0
C761 C 0.82518 0.75237 0.74446 0.0
C762 C 0.9014 0.81272 0.74537 0.0
H763 H 0.87683 0.84418 0.76304 0.0
O764 O 0.80943 0.66751 0.75089 0.0
O765 O 0.79825 0.64813 0.69 0.0
O766 O 0.79752 0.70268 0.66004 0.0
O767 O 0.8359 0.73633 0.69506 0.0
O768 O 0.77895 0.67001 0.71819 0.0
O769 O 0.86549 0.67141 0.74709 0.0
O770 O 0.85042 0.67035 0.61428 0.0
O771 O 0.86597 0.69252 0.67634 0.0
O772 O 0.86016 0.64633 0.7072 0.0
O773 O 0.83882 0.62386 0.66583 0.0
O774 O 0.86771 0.71852 0.64236 0.0
O775 O 0.79862 0.6764 0.61387 0.0
C776 C 0.76784 0.64524 0.70027 0.0
C777 C 0.94073 0.84143 0.74698 0.0
C778 C 0.9705 0.83408 0.7397 0.0
C779 C 0.83606 0.66299 0.76226 0.0
C780 C 0.84556 0.6768 0.78892 0.0
C781 C 0.87449 0.71437 0.79351 0.0
C782 C 0.82593 0.65265 0.80995 0.0
C783 C 0.83499 0.66632 0.83532 0.0
C784 C 0.88384 0.72783 0.81845 0.0
C785 C 0.86441 0.7041 0.83916 0.0
C786 C 0.8137 0.73273 0.675 0.0
C787 C 0.88607 0.72234 0.66324 0.0
C788 C 0.82753 0.678 0.60054 0.0
C789 C 0.81849 0.6628 0.57431 0.0
C790 C 0.79205 0.62442 0.56998 0.0
C791 C 0.83574 0.68737 0.55321 0.0
C792 C 0.82684 0.67359 0.52794 0.0
C793 C 0.78369 0.61047 0.54508 0.0
C794 C 0.80096 0.63475 0.52422 0.0
C795 C 0.85421 0.62275 0.6881 0.0
H796 H 0.89013 0.73329 0.77781 0.0
H797 H 0.80349 0.62358 0.80659 0.0
H798 H 0.9064 0.75682 0.82176 0.0
H799 H 0.87272 0.71525 0.85832 0.0
H800 H 0.77758 0.60526 0.58575 0.0
H801 H 0.85599 0.71713 0.55649 0.0
H802 H 0.76333 0.58076 0.54192 0.0
H803 H 0.79331 0.62329 0.50509 0.0
Gd804 Gd 0.3221 0.14828 0.71616 0.0
Gd805 Gd 0.3698 0.17094 0.65326 0.0
C806 C 0.48367 0.16893 0.64347 0.0
C807 C 0.53021 0.23491 0.63416 0.0
C808 C 0.46161 0.21463 0.64124 0.0
C809 C 0.45358 0.17793 0.64534 0.0
C810 C 0.49973 0.24327 0.63467 0.0
C811 C 0.5222 0.19781 0.63863 0.0
C812 C 0.4739 0.13101 0.64569 0.0
C813 C 0.43475 0.10307 0.64855 0.0
N814 N 0.41596 0.15066 0.64967 0.0
C815 C 0.40592 0.1134 0.65014 0.0
H816 H 0.37584 0.09153 0.65257 0.0
C817 C 0.43656 0.25566 0.63332 0.0
N818 N 0.43143 0.22164 0.64164 0.0
C819 C 0.47383 0.28497 0.62659 0.0
C820 C 0.50571 0.27898 0.62776 0.0
H821 H 0.41195 0.26039 0.63262 0.0
H822 H 0.54579 0.19152 0.63746 0.0
H823 H 0.31435 0.22682 0.71854 0.0
H824 H 0.49617 0.12293 0.64448 0.0
H825 H 0.42676 0.07357 0.6497 0.0
H826 H 0.55981 0.25665 0.62952 0.0
H827 H 0.28101 0.05939 0.73797 0.0
H828 H 0.19333 0.19338 0.72494 0.0
H829 H 0.26267 0.24365 0.72159 0.0
H830 H 0.13111 0.05925 0.73742 0.0
H831 H 0.47799 0.31218 0.62064 0.0
H832 H 0.53454 0.3017 0.6225 0.0
H833 H 0.14421 0.12421 0.73007 0.0
H834 H 0.215 0.00637 0.74846 0.0
N835 N 0.2749 0.1674 0.71989 0.0
C836 C 0.21596 0.18578 0.72375 0.0
C837 C 0.25507 0.21423 0.72198 0.0
C838 C 0.20669 0.14794 0.72509 0.0
C839 C 0.23729 0.13963 0.72344 0.0
C840 C 0.28436 0.20451 0.72031 0.0
N841 N 0.26066 0.09714 0.72795 0.0
C842 C 0.22989 0.10321 0.72755 0.0
C843 C 0.21873 0.03339 0.74243 0.0
C844 C 0.18633 0.03843 0.74035 0.0
C845 C 0.25602 0.06345 0.73659 0.0
C846 C 0.19176 0.07393 0.73343 0.0
H847 H 0.15749 0.01517 0.74501 0.0
O848 O 0.33711 0.1317 0.75208 0.0
O849 O 0.37417 0.15653 0.69389 0.0
O850 O 0.32434 0.1079 0.65608 0.0
O851 O 0.28362 0.09835 0.69123 0.0
O852 O 0.34896 0.11071 0.71831 0.0
O853 O 0.33678 0.18444 0.74942 0.0
O854 O 0.35605 0.18846 0.61732 0.0
O855 O 0.31821 0.16285 0.67568 0.0
O856 O 0.36601 0.21176 0.71195 0.0
O857 O 0.40887 0.2199 0.67866 0.0
O858 O 0.34219 0.2082 0.65099 0.0
O859 O 0.35578 0.1353 0.61968 0.0
C860 C 0.37777 0.12946 0.70278 0.0
C861 C 0.16072 0.08148 0.73332 0.0
C862 C 0.16818 0.11847 0.72914 0.0
C863 C 0.34059 0.1609 0.76438 0.0
C864 C 0.32098 0.1532 0.78939 0.0
C865 C 0.28064 0.1394 0.79127 0.0
C866 C 0.34305 0.15979 0.81172 0.0
C867 C 0.32498 0.15225 0.83595 0.0
C868 C 0.26252 0.13199 0.81522 0.0
C869 C 0.28448 0.13837 0.83746 0.0
C870 C 0.29196 0.08702 0.66965 0.0
C871 C 0.31391 0.18953 0.66691 0.0
C872 C 0.35228 0.15921 0.60487 0.0
C873 C 0.3717 0.16688 0.57977 0.0
C874 C 0.41249 0.1886 0.57761 0.0
C875 C 0.34903 0.15274 0.55758 0.0
C876 C 0.36696 0.1606 0.53329 0.0
C877 C 0.43043 0.19693 0.55363 0.0
C878 C 0.40788 0.18335 0.53157 0.0
C879 C 0.3995 0.23229 0.69934 0.0
H880 H 0.26322 0.13454 0.77433 0.0
H881 H 0.37438 0.17131 0.8102 0.0
H882 H 0.23136 0.1213 0.81655 0.0
H883 H 0.26981 0.13227 0.85585 0.0
H884 H 0.43051 0.19936 0.59433 0.0
H885 H 0.3175 0.13552 0.55926 0.0
H886 H 0.46192 0.21419 0.55212 0.0
H887 H 0.42247 0.19103 0.51315 0.0
Gd888 Gd 0.85067 0.1969 0.65197 0.0
Gd889 Gd 0.87632 0.18484 0.71753 0.0
C890 C 0.99601 0.19749 0.73284 0.0
C891 C 0.97883 0.13383 0.74607 0.0
C892 C 0.92795 0.14836 0.73498 0.0
C893 C 0.95599 0.18546 0.72971 0.0
C894 C 0.93898 0.12241 0.74395 0.0
C895 C 1.0073 0.17127 0.74043 0.0
C896 C 0.02341 0.23576 0.72902 0.0
C897 C 0.01053 0.26119 0.72329 0.0
N898 N 0.94406 0.21023 0.72289 0.0
C899 C 0.9705 0.24797 0.72067 0.0
H900 H 0.96109 0.26797 0.71609 0.0
C901 C 0.86093 0.10342 0.74086 0.0
N902 N 0.8897 0.13825 0.73278 0.0
C903 C 0.87042 0.07663 0.74974 0.0
C904 C 0.90961 0.08604 0.75107 0.0
H905 H 0.83061 0.09611 0.7398 0.0
H906 H 0.03792 0.17991 0.74269 0.0
H907 H 0.76621 0.11347 0.65231 0.0
H908 H 0.05443 0.24611 0.73111 0.0
H909 H 0.03143 0.29097 0.72078 0.0
H910 H 0.98791 0.11416 0.75258 0.0
H911 H 0.89316 0.28232 0.62437 0.0
H912 H 0.6716 0.13526 0.64318 0.0
H913 H 0.69557 0.09018 0.64955 0.0
H914 H 0.73644 0.26787 0.62394 0.0
H915 H 0.84755 0.04879 0.75557 0.0
H916 H 0.91689 0.06527 0.75802 0.0
H917 H 0.68718 0.20206 0.63443 0.0
H918 H 0.87538 0.32995 0.61061 0.0
N919 N 0.78253 0.17146 0.64791 0.0
C920 C 0.70274 0.14569 0.64428 0.0
C921 C 0.71617 0.12015 0.64776 0.0
C922 C 0.72976 0.1842 0.64116 0.0
C923 C 0.76996 0.19625 0.6428 0.0
C924 C 0.75638 0.13354 0.64929 0.0
N925 N 0.83564 0.24259 0.63678 0.0
C926 C 0.79751 0.23319 0.63714 0.0
C927 C 0.85323 0.30299 0.61829 0.0
C928 C 0.81451 0.29487 0.62051 0.0
C929 C 0.8632 0.27603 0.62605 0.0
C930 C 0.78587 0.25921 0.62937 0.0
H931 H 0.80679 0.31567 0.61433 0.0
O932 O 0.88468 0.21168 0.61672 0.0
O933 O 0.89622 0.19615 0.67681 0.0
O934 O 0.89217 0.24592 0.71073 0.0
O935 O 0.86156 0.24944 0.67327 0.0
O936 O 0.91541 0.23854 0.64978 0.0
O937 O 0.83126 0.15815 0.61969 0.0
O938 O 0.84194 0.16821 0.75259 0.0
O939 O 0.83138 0.18658 0.69271 0.0
O940 O 0.8345 0.13529 0.66048 0.0
O941 O 0.87369 0.13744 0.69444 0.0
O942 O 0.81097 0.14343 0.71906 0.0
O943 O 0.89471 0.2228 0.75021 0.0
C944 C 0.92673 0.22388 0.66731 0.0
C945 C 0.74598 0.24813 0.62945 0.0
C946 C 0.71793 0.21064 0.63538 0.0
C947 C 0.85961 0.18137 0.60469 0.0
C948 C 0.84858 0.18748 0.57888 0.0
C949 C 0.82328 0.20205 0.57607 0.0
C950 C 0.86404 0.1797 0.55687 0.0
C951 C 0.85428 0.18667 0.53223 0.0
C952 C 0.81455 0.21013 0.55188 0.0
C953 C 0.83019 0.2029 0.53013 0.0
C954 C 0.8809 0.26395 0.69478 0.0
C955 C 0.80036 0.15935 0.70198 0.0
C956 C 0.866 0.19891 0.7648 0.0
C957 C 0.87594 0.19351 0.79111 0.0
C958 C 0.90032 0.17821 0.79528 0.0
C959 C 0.86019 0.20278 0.81229 0.0
C960 C 0.86844 0.19631 0.83752 0.0
C961 C 0.9084 0.17151 0.82007 0.0
C962 C 0.89252 0.18031 0.84101 0.0
C963 C 0.85113 0.12007 0.67468 0.0
H964 H 0.81036 0.20737 0.59254 0.0
H965 H 0.88308 0.16781 0.55892 0.0
H966 H 0.79555 0.22204 0.54997 0.0
H967 H 0.82333 0.20998 0.5116 0.0
H968 H 0.91309 0.17136 0.77944 0.0
H969 H 0.8421 0.21546 0.80907 0.0
H970 H 0.92703 0.15941 0.82306 0.0
H971 H 0.89907 0.17448 0.86004 0.0
C972 C 0.3589 0.87644 0.04606 0.0
C973 C 0.32606 0.87963 0.05288 0.0
C974 C 0.39446 0.90846 0.03855 0.0
C975 C 0.39826 0.94468 0.03751 0.0
H976 H 0.35777 0.84946 0.04789 0.0
H977 H 0.41957 0.90512 0.03483 0.0
S978 S 0.31947 0.96716 0.04927 0.0
N979 N 0.29855 0.92122 0.05478 0.0
N980 N 0.36519 0.98106 0.04132 0.0
C981 C 0.36503 0.9477 0.04276 0.0
C982 C 0.32897 0.91529 0.05016 0.0
C983 C 0.14566 0.49233 0.04959 0.0
C984 C 0.14244 0.45744 0.05667 0.0
C985 C 0.11239 0.4948 0.04221 0.0
C986 C 0.07471 0.4624 0.04138 0.0
H987 H 0.17368 0.51809 0.05091 0.0
H988 H 0.11601 0.52239 0.03804 0.0
S989 S 0.05115 0.36406 0.05552 0.0
N990 N 0.09875 0.38959 0.06022 0.0
N991 N 0.03698 0.39434 0.04694 0.0
C992 C 0.07159 0.42741 0.04751 0.0
C993 C 0.10518 0.42487 0.05481 0.0
C994 C 0.56332 0.68838 0.03722 0.0
C995 C 0.55344 0.69046 0.0628 0.0
C996 C 0.55688 0.65408 0.02682 0.0
C997 C 0.54035 0.62086 0.04166 0.0
H998 H 0.57717 0.71364 0.0254 0.0
H999 H 0.56601 0.65387 1.00735 0.0
S1000 S 0.50548 0.61031 0.10864 0.0
N1001 N 0.52364 0.65569 0.10207 0.0
N1002 N 0.5116 0.59136 0.08243 0.0
C1003 C 0.52935 0.6223 0.06697 0.0
C1004 C 0.53582 0.65708 0.07755 0.0
C1005 C 0.87224 0.35138 0.96219 0.0
C1006 C 0.85619 0.31798 0.97704 0.0
C1007 C 0.90219 0.38599 0.97166 0.0
C1008 C 0.91721 0.38872 0.99642 0.0
H1009 H 0.8619 0.35063 0.9429 0.0
H1010 H 0.91369 0.41086 0.9595 0.0
S1011 S 0.88768 0.30952 0.04236 0.0
N1012 N 0.85895 0.28985 0.01747 0.0
N1013 N 0.91531 0.35479 0.03507 0.0
C1014 C 0.90149 0.35573 0.0115 0.0
C1015 C 0.87095 0.32043 1.00188 0.0
C1016 C 0.66006 0.51885 0.98663 0.0
C1017 C 0.69342 0.55368 0.98009 0.0
C1018 C 0.62451 0.51687 0.99426 0.0
C1019 C 0.62106 0.54969 0.99581 0.0
H1020 H 0.6608 0.49282 0.98457 0.0
H1021 H 0.59917 0.48935 0.99781 0.0
S1022 S 0.70101 0.64797 0.98384 0.0
N1023 N 0.72129 0.62179 0.97809 0.0
N1024 N 0.65532 0.6181 0.99216 0.0
C1025 C 0.65483 0.58461 0.99062 0.0
C1026 C 0.69071 0.58662 0.98294 0.0
C1027 C 0.49693 0.15599 0.98303 0.0
C1028 C 0.45837 0.14665 0.97692 0.0
C1029 C 0.50511 0.12884 0.99329 0.0
C1030 C 0.47506 0.09142 0.99748 0.0
H1031 H 0.52109 0.18405 0.97894 0.0
H1032 H 0.53527 0.13676 0.99693 0.0
S1033 S 0.36884 0.05433 0.98921 0.0
N1034 N 0.38952 0.09865 0.9792 0.0
N1035 N 0.40512 0.04767 0.99799 0.0
C1036 C 0.43633 0.08231 0.99287 0.0
C1037 C 0.42792 0.10992 0.9827 0.0
C1038 C 0.6504 0.1306 0.99394 0.0
C1039 C 0.6809 0.12268 0.9896 0.0
C1040 C 0.61177 0.10124 0.99906 0.0
C1041 C 0.60257 0.06313 1.00019 0.0
H1042 H 0.656 0.15937 0.99243 0.0
H1043 H 0.58879 0.10824 1.001 0.0
S1044 S 0.67222 0.02783 0.99281 0.0
N1045 N 0.69933 0.07405 0.98876 0.0
N1046 N 0.6274 0.01954 0.99819 0.0
C1047 C 0.6331 0.05525 0.99696 0.0
C1048 C 0.67207 0.08484 0.99184 0.0
C1049 C 0.92562 0.5817 0.9862 0.0
C1050 C 0.88602 0.55299 0.98583 0.0
C1051 C 0.9559 0.57398 0.99134 0.0
C1052 C 0.94839 0.53712 0.99667 0.0
H1053 H 0.93353 0.6107 0.98199 0.0
H1054 H 0.98575 0.5973 0.99094 0.0
S1055 S 0.85011 0.45088 0.99713 0.0
N1056 N 0.84099 0.48553 0.99096 0.0
N1057 N 0.89806 0.47094 1.00017 0.0
C1058 C 0.90893 0.50784 0.99641 0.0
C1059 C 0.87777 0.51578 0.99123 0.0
C1060 C 0.5047 0.35391 0.98934 0.0
C1061 C 0.48666 0.34157 0.96544 0.0
C1062 C 0.50951 0.38737 1.00026 0.0
C1063 C 0.49536 0.40909 0.98811 0.0
H1064 H 0.51611 0.3382 0.99935 0.0
H1065 H 0.52492 0.39639 0.01821 0.0
S1066 S 0.44433 0.38713 0.92535 0.0
N1067 N 0.4544 0.35286 0.9299 0.0
N1068 N 0.46137 0.4144 0.95075 0.0
C1069 C 0.47643 0.39623 0.96434 0.0
C1070 C 0.4726 0.36282 0.95296 0.0
C1071 C 0.15431 0.67004 0.03369 0.0
C1072 C 0.16396 0.67482 0.05986 0.0
C1073 C 0.12319 0.63572 0.02445 0.0
C1074 C 0.10033 0.60519 0.04107 0.0
H1075 H 0.17085 0.69284 0.02025 0.0
H1076 H 0.1166 0.63335 1.00426 0.0
S1077 S 0.11439 0.60289 0.11106 0.0
N1078 N 0.14851 0.64568 0.10208 0.0
N1079 N 0.0905 0.58179 0.08476 0.0
C1080 C 0.10982 0.60972 0.06719 0.0
C1081 C 0.14151 0.64432 0.07654 0.0
C1082 C 0.34447 0.42956 0.04299 0.0
C1083 C 0.33527 0.45855 0.04606 0.0
C1084 C 0.38251 0.4373 0.03707 0.0
C1085 C 0.41365 0.4745 0.03372 0.0
H1086 H 0.32209 0.40029 0.0459 0.0
H1087 H 0.3878 0.41372 0.0357 0.0
S1088 S 0.4061 0.56134 0.03952 0.0
N1089 N 0.36094 0.52654 0.04476 0.0
N1090 N 0.43274 0.5411 0.03415 0.0
C1091 C 0.40503 0.50403 0.03616 0.0
C1092 C 0.36583 0.49607 0.0421 0.0
C1093 C 0.51943 0.88226 0.07626 0.0
C1094 C 0.53498 0.86389 0.06175 0.0
C1095 C 0.51311 0.91014 0.0654 0.0
C1096 C 0.52206 0.92072 0.03959 0.0
H1097 H 0.51216 0.87508 0.09626 0.0
H1098 H 0.50097 0.92348 0.07731 0.0
S1099 S 0.5667 0.88398 0.99387 0.0
N1100 N 0.56098 0.85963 0.02041 0.0
N1101 N 0.54968 0.91275 1.00025 0.0
C1102 C 0.53803 0.90302 0.02488 0.0
C1103 C 0.54439 0.87442 0.03591 0.0
C1104 C 0.99949 0.24583 0.38721 0.0
C1105 C 0.99557 0.20971 0.38963 0.0
C1106 C 0.0347 0.27722 0.37902 0.0
C1107 C 0.06763 0.27401 0.37282 0.0
H1108 H 0.97537 0.25009 0.39238 0.0
H1109 H 0.03655 0.30463 0.3783 0.0
S1110 S 0.07272 0.18561 0.37552 0.0
N1111 N 0.02744 0.1723 0.38439 0.0
N1112 N 0.09382 0.23144 0.36956 0.0
C1113 C 0.06383 0.23784 0.37437 0.0
C1114 C 0.02774 0.20567 0.38254 0.0
C1115 C 0.77589 0.75269 0.38513 0.0
C1116 C 0.81418 0.78392 0.38541 0.0
C1117 C 0.74349 0.7568 0.37893 0.0
C1118 C 0.74771 0.7923 0.3727 0.0
H1119 H 0.7708 0.72489 0.39044 0.0
H1120 H 0.71463 0.73192 0.3795 0.0
S1121 S 0.84161 0.8833 0.37184 0.0
N1122 N 0.85443 0.85161 0.37916 0.0
N1123 N 0.79363 0.85962 0.36822 0.0
C1124 C 0.78592 0.82377 0.37271 0.0
C1125 C 0.81905 0.81946 0.37877 0.0
C1126 C 0.26498 0.01791 0.39237 0.0
C1127 C 0.23771 0.03064 0.39133 0.0
C1128 C 0.25613 0.98252 0.3827 0.0
C1129 C 0.21994 0.95869 0.37112 0.0
H1130 H 0.29346 0.03536 0.40088 0.0
H1131 H 0.27792 0.97388 0.38424 0.0
S1132 S 0.13801 0.97809 0.36363 0.0
N1133 N 0.17242 0.01581 0.37827 0.0
N1134 N 0.15664 0.95029 0.35894 0.0
C1135 C 0.19272 0.97134 0.36933 0.0
C1136 C 0.2014 0.00706 0.37967 0.0
C1137 C 0.5265 0.6682 0.32197 0.0
C1138 C 0.5362 0.64365 0.30913 0.0
C1139 C 0.55562 0.70343 0.33135 0.0
C1140 C 0.59577 0.71598 0.328 0.0
H1141 H 0.49616 0.66058 0.32428 0.0
H1142 H 0.54648 0.72133 0.34079 0.0
S1143 S 0.63688 0.6602 0.29919 0.0
N1144 N 0.58911 0.63272 0.29647 0.0
N1145 N 0.6434 0.69919 0.31305 0.0
C1146 C 0.60582 0.69113 0.31606 0.0
C1147 C 0.57624 0.65503 0.30691 0.0
C1148 C 0.36464 0.92049 0.31339 0.0
C1149 C 0.36868 0.88815 0.31138 0.0
C1150 C 0.3292 0.91802 0.321 0.0
C1151 C 0.29587 0.88312 0.32711 0.0
H1152 H 0.38893 0.94806 0.30836 0.0
H1153 H 0.32758 0.94376 0.32144 0.0
S1154 S 0.29054 0.78964 0.32522 0.0
N1155 N 0.33615 0.81992 0.31681 0.0
N1156 N 0.26945 0.81522 0.33056 0.0
C1157 C 0.29967 0.85055 0.32588 0.0
C1158 C 0.33604 0.8531 0.31828 0.0
C1159 C 0.16047 0.48583 0.32099 0.0
C1160 C 0.12395 0.4757 0.31004 0.0
C1161 C 0.16832 0.45836 0.33098 0.0
C1162 C 0.14033 0.41963 0.32991 0.0
H1163 H 0.18362 0.51512 0.32121 0.0
H1164 H 0.19697 0.4675 0.33889 0.0
S1165 S 0.03814 0.37862 0.30729 0.0
N1166 N 0.0578 0.42448 0.30201 0.0
N1167 N 0.07322 0.37293 0.31982 0.0
C1168 C 0.10319 0.40923 0.32011 0.0
C1169 C 0.09488 0.43721 0.31039 0.0
C1170 C 0.3414 0.4171 0.32678 0.0
C1171 C 0.35145 0.45527 0.3244 0.0
C1172 C 0.30288 0.38857 0.33181 0.0
C1173 C 0.27249 0.39676 0.33494 0.0
H1174 H 0.36337 0.40894 0.32387 0.0
H1175 H 0.29655 0.35948 0.33247 0.0
S1176 S 0.28294 0.49222 0.33105 0.0
N1177 N 0.3278 0.50001 0.32642 0.0
N1178 N 0.25506 0.44607 0.33524 0.0
C1179 C 0.28211 0.43492 0.33334 0.0
C1180 C 0.32167 0.46425 0.32833 0.0
C1181 C 0.59804 0.91169 0.32253 0.0
C1182 C 0.5583 0.88362 0.32103 0.0
C1183 C 0.62761 0.90264 0.32653 0.0
C1184 C 0.61909 0.86503 0.32964 0.0
H1185 H 0.60665 0.94121 0.31994 0.0
H1186 H 0.65772 0.92546 0.3268 0.0
S1187 S 0.51998 0.78026 0.32677 0.0
N1188 N 0.51198 0.81608 0.32295 0.0
N1189 N 0.56776 0.79906 0.33008 0.0
C1190 C 0.57945 0.83642 0.32846 0.0
C1191 C 0.54904 0.84571 0.32438 0.0
C1192 C 0.15288 0.67734 0.32973 0.0
C1193 C 0.16065 0.6743 0.30383 0.0
C1194 C 0.15725 0.7113 0.33944 0.0
C1195 C 0.16917 0.74311 0.32355 0.0
H1196 H 0.14328 0.65343 0.34259 0.0
H1197 H 0.15067 0.71244 0.35938 0.0
S1198 S 0.19489 0.75025 0.25472 0.0
N1199 N 0.18186 0.70629 0.2627 0.0
N1200 N 0.19021 0.76991 0.28102 0.0
C1201 C 0.17722 0.74043 0.29772 0.0
C1202 C 0.17297 0.70607 0.28787 0.0
C1203 C 0.77392 0.99702 0.39066 0.0
C1204 C 0.81369 0.01686 0.38366 0.0
C1205 C 0.74921 0.95931 0.3834 0.0
C1206 C 0.76295 0.93962 0.36851 0.0
H1207 H 0.76167 0.01075 0.40206 0.0
H1208 H 0.71895 0.94567 0.38946 0.0
S1209 S 0.86533 0.97862 0.34557 0.0
N1210 N 0.86609 0.01393 0.36135 0.0
N1211 N 0.81981 0.94331 0.34738 0.0
C1212 C 0.80284 0.95927 0.3613 0.0
C1213 C 0.82815 0.99773 0.36896 0.0
C1214 C 0.05642 0.85099 0.37709 0.0
C1215 C 0.02035 0.81691 0.37861 0.0
C1216 C 0.09138 0.85144 0.37068 0.0
C1217 C 0.092 0.81778 0.36611 0.0
H1218 H 0.0578 0.87754 0.38155 0.0
H1219 H 0.11845 0.87813 0.37074 0.0
S1220 S 1.0058 0.72098 0.3677 0.0
N1221 N 0.98746 0.74863 0.37428 0.0
N1222 N 0.0533 0.74935 0.3636 0.0
C1223 C 0.05613 0.78355 0.36741 0.0
C1224 C 0.0203 0.78315 0.37314 0.0
C1225 C 0.21645 0.20822 0.37054 0.0
C1226 C 0.20983 0.19836 0.39666 0.0
C1227 C 0.20853 0.23556 0.36015 0.0
C1228 C 0.19401 0.25398 0.37558 0.0
H1229 H 0.22829 0.1952 0.3581 0.0
H1230 H 0.21482 0.24301 0.34015 0.0
S1231 S 0.16837 0.23584 0.44443 0.0
N1232 N 0.18581 0.20768 0.43726 0.0
N1233 N 0.17065 0.25847 0.41768 0.0
C1234 C 0.18636 0.24361 0.40148 0.0
C1235 C 0.19433 0.21593 0.41202 0.0
C1236 C 0.66181 0.58042 0.71838 0.0
C1237 C 0.65836 0.54439 0.72031 0.0
C1238 C 0.69671 0.61227 0.71035 0.0
C1239 C 0.72963 0.6096 0.70333 0.0
H1240 H 0.63772 0.58438 0.72415 0.0
H1241 H 0.69835 0.6396 0.71042 0.0
S1242 S 0.73579 0.52175 0.70347 0.0
N1243 N 0.69074 0.50775 0.7133 0.0
N1244 N 0.75632 0.5677 0.69809 0.0
C1245 C 0.7262 0.57353 0.70393 0.0
C1246 C 0.69052 0.54091 0.71226 0.0
C1247 C 0.44577 0.09155 0.71988 0.0
C1248 C 0.48305 0.12403 0.72167 0.0
C1249 C 0.4127 0.09384 0.71257 0.0
C1250 C 0.4151 0.12871 0.7067 0.0
H1251 H 0.44193 0.06411 0.72493 0.0
H1252 H 0.38461 0.068 0.71213 0.0
S1253 S 0.50576 0.22252 0.70918 0.0
N1254 N 0.52049 0.1923 0.71684 0.0
N1255 N 0.45825 0.19679 0.70402 0.0
C1256 C 0.45234 0.16146 0.70811 0.0
C1257 C 0.48626 0.15904 0.71526 0.0
C1258 C 0.88043 0.33864 0.73727 0.0
C1259 C 0.90018 0.37208 0.7226 0.0
C1260 C 0.87415 0.3039 0.72789 0.0
C1261 C 0.88685 0.30099 0.70333 0.0
H1262 H 0.87051 0.33949 0.75646 0.0
H1263 H 0.85933 0.27906 0.74005 0.0
S1264 S 0.94078 0.37975 0.65738 0.0
N1265 N 0.93281 0.39991 0.68225 0.0
N1266 N 0.92062 0.33435 0.66464 0.0
C1267 C 0.90583 0.33383 0.68818 0.0
C1268 C 0.91249 0.36941 0.69778 0.0
C1269 C 0.21167 0.98336 0.66449 0.0
C1270 C 0.20101 0.97971 0.63849 0.0
C1271 C 0.24131 0.01793 0.67444 0.0
C1272 C 0.26167 0.05022 0.6588 0.0
H1273 H 0.19764 0.95908 0.67717 0.0
H1274 H 0.24892 0.01909 0.69439 0.0
S1275 S 0.24233 0.05721 0.59017 0.0
N1276 N 0.21136 0.01272 0.59785 0.0
N1277 N 0.26719 0.07703 0.61645 0.0
C1278 C 0.25083 0.04721 0.63294 0.0
C1279 C 0.22049 0.01222 0.62285 0.0
C1280 C 1.00727 0.19826 0.6576 0.0
C1281 C 0.03911 0.23278 0.64888 0.0
C1282 C 0.97146 0.19556 0.66519 0.0
C1283 C 0.96626 0.22735 0.66467 0.0
H1284 H 1.00931 0.17276 0.65729 0.0
H1285 H 0.94718 0.16813 0.67027 0.0
S1286 S 0.04215 0.3252 0.64722 0.0
N1287 N 0.06402 0.30008 0.643 0.0
N1288 N 0.99739 0.29498 0.65711 0.0
C1289 C 0.99864 0.26228 0.65749 0.0
C1290 C 0.03482 0.26502 0.64973 0.0
C1291 C 0.81423 0.80661 0.63076 0.0
C1292 C 0.7953 0.82207 0.645 0.0
C1293 C 0.8212 0.77878 0.64116 0.0
C1294 C 0.80981 0.76534 0.66631 0.0
H1295 H 0.82293 0.81546 0.61113 0.0
H1296 H 0.83494 0.76706 0.62918 0.0
S1297 S 0.75855 0.79567 0.71155 0.0
N1298 N 0.76522 0.82167 0.6857 0.0
N1299 N 0.77815 0.76907 0.70509 0.0
C1300 C 0.79171 0.78104 0.68103 0.0
C1301 C 0.78457 0.80953 0.67043 0.0
C1302 C 0.98681 0.80975 0.65752 0.0
C1303 C 0.01089 0.7944 0.65154 0.0
C1304 C 0.94661 0.78616 0.66281 0.0
C1305 C 0.92924 0.74646 0.66294 0.0
H1306 H 0.99869 0.84009 0.65725 0.0
H1307 H 0.92873 0.79902 0.6662 0.0
S1308 S 0.97924 0.69206 0.64916 0.0
N1309 N 0.01415 0.73676 0.64667 0.0
N1310 N 0.939 0.69293 0.65649 0.0
C1311 C 0.95305 0.73085 0.65745 0.0
C1312 C 0.99378 0.7547 0.65198 0.0
C1313 C 0.2408 0.22385 0.65531 0.0
C1314 C 0.20525 0.19018 0.6512 0.0
C1315 C 0.27552 0.22322 0.66085 0.0
C1316 C 0.27582 0.1889 0.66355 0.0
H1317 H 0.24223 0.25091 0.65298 0.0
H1318 H 0.3025 0.24988 0.66291 0.0
S1319 S 0.18998 0.0929 0.65511 0.0
N1320 N 0.17245 0.12165 0.65018 0.0
N1321 N 0.23685 0.12042 0.6615 0.0
C1322 C 0.24013 0.1551 0.66009 0.0
C1323 C 0.20512 0.15578 0.65379 0.0
C1324 C 0.80049 0.01699 0.65336 0.0
C1325 C 0.8277 0.00553 0.65994 0.0
C1326 C 0.8085 0.05425 0.65763 0.0
C1327 C 0.84391 0.08142 0.66874 0.0
H1328 H 0.77264 0.99704 0.645 0.0
H1329 H 0.78645 0.06157 0.65265 0.0
S1330 S 0.92633 0.06664 0.68704 0.0
N1331 N 0.89223 0.02491 0.6767 0.0
N1332 N 0.90752 0.09467 0.68446 0.0
C1333 C 0.87163 0.07042 0.67484 0.0
C1334 C 0.86345 0.03259 0.67053 0.0
C1335 C 0.49392 0.32802 0.70646 0.0
C1336 C 0.48727 0.34294 0.72881 0.0
C1337 C 0.46545 0.29241 0.69714 0.0
C1338 C 0.42865 0.27075 0.70926 0.0
H1339 H 0.52184 0.34317 0.69668 0.0
H1340 H 0.47297 0.28148 0.68065 0.0
S1341 S 0.39672 0.29889 0.76813 0.0
N1342 N 0.44153 0.33403 0.76282 0.0
N1343 N 0.38753 0.26845 0.74482 0.0
C1344 C 0.42157 0.28617 0.73137 0.0
C1345 C 0.45093 0.32187 0.74119 0.0
C1346 C 0.69172 0.12187 0.71601 0.0
C1347 C 0.68907 0.15492 0.71786 0.0
C1348 C 0.72756 0.1236 0.7101 0.0
C1349 C 0.76194 0.15831 0.70498 0.0
H1350 H 0.66648 0.09467 0.72054 0.0
H1351 H 0.72855 0.09753 0.70992 0.0
S1352 S 0.76987 0.2529 0.7066 0.0
N1353 N 0.72362 0.22325 0.71384 0.0
N1354 N 0.79016 0.22647 0.702 0.0
C1355 C 0.75913 0.19138 0.70601 0.0
C1356 C 0.72293 0.18966 0.71257 0.0
C1357 C 0.85005 0.52744 0.68439 0.0
C1358 C 0.88059 0.53198 0.70049 0.0
C1359 C 0.84208 0.55701 0.68034 0.0
C1360 C 0.86442 0.5925 0.69209 0.0
H1361 H 0.83162 0.50052 0.67519 0.0
H1362 H 0.8173 0.5515 0.66861 0.0
S1363 S 0.94818 0.61958 0.73583 0.0
N1364 N 0.93384 0.57539 0.72808 0.0
N1365 N 0.91849 0.63037 0.72057 0.0
C1366 C 0.89509 0.59747 0.70821 0.0
C1367 C 0.90338 0.56746 0.7123 0.0
C1368 C 0.44263 0.93228 0.21933 0.0
C1369 C 0.46823 0.93908 0.24001 0.0
C1370 C 0.45558 0.95356 0.19646 0.0
C1371 C 0.49463 0.98275 0.19336 0.0
H1372 H 0.41222 0.91039 0.22085 0.0
H1373 H 0.43456 0.94786 0.1814 0.0
S1374 S 0.5739 0.01128 0.24114 0.0
N1375 N 0.53482 0.97719 0.2555 0.0
N1376 N 0.55922 0.01592 0.21251 0.0
C1377 C 0.52071 0.98916 0.21361 0.0
C1378 C 0.50755 0.9677 0.23687 0.0
C1379 C 0.03442 0.48473 0.23472 0.0
C1380 C 0.07103 0.51772 0.23735 0.0
C1381 C 0.01185 0.47842 0.21266 0.0
C1382 C 0.02518 0.50472 0.19235 0.0
H1383 H 0.0226 0.46419 0.25014 0.0
H1384 H 0.98361 0.45285 0.21155 0.0
S1385 S 0.11995 0.59473 0.18932 0.0
N1386 N 0.12052 0.57606 0.21728 0.0
N1387 N 0.07771 0.56471 0.17614 0.0
C1388 C 0.06218 0.53738 0.1945 0.0
C1389 C 0.08516 0.54376 0.21692 0.0
C1390 C 0.48752 0.51407 0.23457 0.0
C1391 C 0.49052 0.54977 0.2371 0.0
C1392 C 0.4982 0.50341 0.21177 0.0
C1393 C 0.51214 0.52787 0.19041 0.0
H1394 H 0.47807 0.49462 0.25065 0.0
H1395 H 0.49608 0.47591 0.21099 0.0
S1396 S 0.52303 0.62354 0.18644 0.0
N1397 N 0.50622 0.60874 0.21566 0.0
N1398 N 0.52697 0.58899 0.17303 0.0
C1399 C 0.51401 0.56315 0.19236 0.0
C1400 C 0.50317 0.57405 0.21562 0.0
C1401 C 0.99237 0.45086 0.80053 0.0
C1402 C 0.96324 0.46043 0.79594 0.0
C1403 C 0.01305 0.46017 0.82361 0.0
C1404 C 1.00565 0.47964 0.84305 0.0
H1405 H 0.9999 0.43677 0.78595 0.0
H1406 H 0.03517 0.45215 0.8262 0.0
S1407 S 0.93124 0.50998 0.84096 0.0
N1408 N 0.92647 0.48858 0.81337 0.0
N1409 N 0.96685 0.50803 0.8561 0.0
C1410 C 0.97621 0.48895 0.83885 0.0
C1411 C 0.95475 0.47897 0.81547 0.0
C1412 C 0.52532 0.49365 0.79686 0.0
C1413 C 0.56462 0.50285 0.79436 0.0
C1414 C 0.51144 0.50167 0.81931 0.0
C1415 C 0.53618 0.51908 0.84033 0.0
H1416 H 0.50514 0.48044 0.78118 0.0
H1417 H 0.48092 0.49396 0.82026 0.0
S1418 S 0.64154 0.54866 0.84374 0.0
N1419 N 0.62804 0.52987 0.81503 0.0
N1420 N 0.60207 0.54551 0.85713 0.0
C1421 C 0.57553 0.5283 0.83819 0.0
C1422 C 0.58973 0.52019 0.81523 0.0
C1423 C 0.53143 0.04736 0.79836 0.0
C1424 C 0.53234 0.08213 0.79588 0.0
C1425 C 0.51935 0.02642 0.82128 0.0
C1426 C 0.50803 0.03949 0.84282 0.0
H1427 H 0.53862 0.03553 0.78212 0.0
H1428 H 0.51806 0.99928 0.82196 0.0
S1429 S 0.50973 0.13112 0.84695 0.0
N1430 N 0.52401 0.13025 0.81738 0.0
N1431 N 0.50144 0.09112 0.8605 0.0
C1432 C 0.51081 0.07523 0.84095 0.0
C1433 C 0.52278 0.09638 0.81748 0.0
C1434 C 0.10853 0.26649 0.55454 0.0
C1435 C 0.13446 0.27327 0.57502 0.0
C1436 C 0.12137 0.28711 0.53139 0.0
C1437 C 0.1606 0.31567 0.52786 0.0
H1438 H 0.07793 0.24528 0.5565 0.0
H1439 H 0.10014 0.28158 0.51651 0.0
S1440 S 0.24068 0.3438 0.57491 0.0
N1441 N 0.20159 0.31049 0.58975 0.0
N1442 N 0.22563 0.34819 0.54634 0.0
C1443 C 0.18698 0.32194 0.54787 0.0
C1444 C 0.17398 0.30108 0.57136 0.0
C1445 C 0.74304 0.8737 0.55059 0.0
C1446 C 0.73044 0.84775 0.57111 0.0
C1447 C 0.72208 0.86504 0.52762 0.0
C1448 C 0.68751 0.8302 0.52435 0.0
H1449 H 0.76907 0.9012 0.55244 0.0
H1450 H 0.73232 0.8863 0.51263 0.0
S1451 S 0.64328 0.75156 0.57157 0.0
N1452 N 0.68203 0.78517 0.58627 0.0
N1453 N 0.64286 0.76868 0.54297 0.0
C1454 C 0.67525 0.80351 0.5444 0.0
C1455 C 0.6967 0.81229 0.56777 0.0
C1456 C 0.17659 0.90712 0.54868 0.0
C1457 C 0.16181 0.88186 0.56961 0.0
C1458 C 0.1879 0.89716 0.52579 0.0
C1459 C 0.18527 0.86166 0.52299 0.0
H1460 H 0.17982 0.93503 0.55009 0.0
H1461 H 0.20004 0.9179 0.5105 0.0
S1462 S 0.1468 0.78451 0.57143 0.0
N1463 N 0.14411 0.81925 0.5856 0.0
N1464 N 0.1648 0.80042 0.5426 0.0
C1465 C 0.1695 0.83575 0.54347 0.0
C1466 C 0.15787 0.84582 0.56673 0.0
C1467 C 0.65248 0.78055 0.13332 0.0
C1468 C 0.62042 0.78652 0.1312 0.0
C1469 C 0.67568 0.79112 0.15529 0.0
C1470 C 0.66804 0.8084 0.17602 0.0
H1471 H 0.65991 0.76773 0.1178 0.0
H1472 H 0.69959 0.78527 0.15612 0.0
S1473 S 0.588 0.83106 0.17996 0.0
N1474 N 0.58188 0.81044 0.15191 0.0
N1475 N 0.62682 0.83218 0.19269 0.0
C1476 C 0.63636 0.81501 0.17407 0.0
C1477 C 0.61235 0.80376 0.15178 0.0
C1478 C 0.25472 0.85007 0.14608 0.0
C1479 C 0.22943 0.83178 0.12543 0.0
C1480 C 0.24091 0.85752 0.16891 0.0
C1481 C 0.20137 0.84735 0.17184 0.0
H1482 H 0.28542 0.85859 0.14462 0.0
H1483 H 0.26151 0.87213 0.18415 0.0
S1484 S 0.12305 0.79835 0.12371 0.0
N1485 N 0.16289 0.80368 0.10951 0.0
N1486 N 0.13691 0.81689 0.15244 0.0
C1487 C 0.17574 0.82862 0.15146 0.0
C1488 C 0.18975 0.82104 0.12829 0.0
C1489 C 0.21372 0.41857 0.1495 0.0
C1490 C 0.18661 0.40749 0.12925 0.0
C1491 C 0.20472 0.39748 0.1725 0.0
C1492 C 0.16837 0.36424 0.17611 0.0
H1493 H 0.24216 0.44374 0.14755 0.0
H1494 H 0.22681 0.40664 0.18724 0.0
S1495 S 0.08678 0.32322 0.12945 0.0
N1496 N 0.12173 0.36072 0.11466 0.0
N1497 N 0.10455 0.3223 0.15782 0.0
C1498 C 0.1408 0.35338 0.15624 0.0
C1499 C 0.14995 0.37461 0.1329 0.0
C1500 C 0.80062 0.58712 0.88527 0.0
C1501 C 0.78624 0.6 0.9053 0.0
C1502 C 0.81446 0.60755 0.86213 0.0
C1503 C 0.81487 0.64192 0.85816 0.0
H1504 H 0.8016 0.56121 0.88761 0.0
H1505 H 0.8263 0.59711 0.84764 0.0
S1506 S 0.7791 0.68742 0.90386 0.0
N1507 N 0.77264 0.64918 0.91907 0.0
N1508 N 0.79773 0.68682 0.87569 0.0
C1509 C 0.79948 0.65446 0.87768 0.0
C1510 C 0.78542 0.63375 0.90115 0.0
C1511 C 0.36713 0.18939 0.90174 0.0
C1512 C 0.39529 0.17807 0.90474 0.0
C1513 C 0.34422 0.18049 0.87964 0.0
C1514 C 0.34846 0.15985 0.85964 0.0
H1515 H 0.36276 0.20535 0.91661 0.0
H1516 H 0.32349 0.19046 0.87803 0.0
S1517 S 0.41615 0.12158 0.85841 0.0
N1518 N 0.42547 0.14438 0.88582 0.0
N1519 N 0.38121 0.12642 0.84477 0.0
C1520 C 0.37574 0.14753 0.86259 0.0
C1521 C 0.39933 0.15682 0.88502 0.0
C1522 C 0.8655 0.23411 0.90351 0.0
C1523 C 0.82632 0.22516 0.90644 0.0
C1524 C 0.87871 0.22533 0.88107 0.0
C1525 C 0.85337 0.20693 0.86047 0.0
H1526 H 0.88623 0.24769 0.91886 0.0
H1527 H 0.90922 0.23305 0.8799 0.0
S1528 S 0.74798 0.17765 0.85809 0.0
N1529 N 0.7624 0.1977 0.88638 0.0
N1530 N 0.78695 0.17996 0.84451 0.0
C1531 C 0.81411 0.19795 0.86299 0.0
C1532 C 0.80064 0.20715 0.8859 0.0
C1533 C 0.28792 0.13781 0.48368 0.0
C1534 C 0.29878 0.12218 0.46347 0.0
C1535 C 0.30964 0.14948 0.50636 0.0
C1536 C 0.34309 0.146 0.50971 0.0
H1537 H 0.26243 0.14111 0.48196 0.0
H1538 H 0.30061 0.16205 0.52116 0.0
S1539 S 0.38324 0.10576 0.46302 0.0
N1540 N 0.34525 0.10378 0.44839 0.0
N1541 N 0.38494 0.12412 0.49139 0.0
C1542 C 0.35378 0.12968 0.48988 0.0
C1543 C 0.3319 0.11811 0.46672 0.0
C1544 C 0.92254 0.18158 0.4824 0.0
C1545 C 0.89735 0.16319 0.46169 0.0
C1546 C 0.90841 0.18827 0.50541 0.0
C1547 C 0.8686 0.17702 0.50854 0.0
H1548 H 0.95337 0.19071 0.48086 0.0
H1549 H 0.92894 0.20305 0.52065 0.0
S1550 S 0.79037 0.12734 0.4604 0.0
N1551 N 0.83062 0.13429 0.44591 0.0
N1552 N 0.804 0.1452 0.48929 0.0
C1553 C 0.84309 0.1581 0.48813 0.0
C1554 C 0.85745 0.15163 0.46472 0.0
C1555 C 0.87045 0.71027 0.46172 0.0
C1556 C 0.86566 0.74197 0.45834 0.0
C1557 C 0.8592 0.68921 0.48461 0.0
C1558 C 0.8431 0.69919 0.5052 0.0
H1559 H 0.88141 0.70066 0.44615 0.0
H1560 H 0.86233 0.66434 0.486 0.0
S1561 S 0.8273 0.78154 0.50683 0.0
N1562 N 0.84604 0.78376 0.47817 0.0
N1563 N 0.82469 0.7441 0.52103 0.0
C1564 C 0.83978 0.73181 0.50248 0.0
C1565 C 0.85101 0.75313 0.47911 0.0
loop_
_geom_bond_atom_site_label_1
_geom_bond_atom_site_label_2
_geom_bond_distance
_geom_bond_site_symmetry_2
_ccdc_geom_bond_type
H0 C5 0.930 . S
H1 C8 0.930 . S
H2 C10 0.930 . S
H3 C4 1.016 . S
C4 H3 1.016 . S
C4 N11 1.286 . S
C5 H0 0.930 . S
C5 C6 1.397 . S
C5 C7 1.361 . S
C6 C5 1.397 . S
C6 C10 1.390 . S
C7 C5 1.361 . S
C7 C8 1.393 . S
C7 N11 1.413 . S
C8 H1 0.930 . S
C8 C7 1.393 . S
C8 C9 1.399 . S
C9 C8 1.399 . S
C9 C10 1.381 . S
C10 H2 0.930 . S
C10 C6 1.390 . S
C10 C9 1.381 . S
N11 C4 1.286 . S
N11 C7 1.413 . S
H12 C17 0.930 . S
H13 C20 0.930 . S
H14 C22 0.930 . S
H15 C16 1.016 . S
C16 H15 1.016 . S
C16 N23 1.286 . S
C17 H12 0.930 . S
C17 C18 1.397 . S
C17 C19 1.361 . S
C18 C17 1.397 . S
C18 C22 1.390 . S
C19 C17 1.361 . S
C19 C20 1.393 . S
C19 N23 1.413 . S
C20 H13 0.930 . S
C20 C19 1.393 . S
C20 C21 1.399 . S
C21 C20 1.399 . S
C21 C22 1.381 . S
C22 H14 0.930 . S
C22 C18 1.390 . S
C22 C21 1.381 . S
N23 C16 1.286 . S
N23 C19 1.413 . S
H24 C29 0.930 . S
H25 C32 0.930 . S
H26 C34 0.930 . S
H27 C28 1.016 . S
C28 H27 1.016 . S
C28 N35 1.286 . S
C29 H24 0.930 . S
C29 C30 1.397 . S
C29 C31 1.361 . S
C30 C29 1.397 . S
C30 C34 1.390 . S
C31 C29 1.361 . S
C31 C32 1.393 . S
C31 N35 1.413 . S
C32 H25 0.930 . S
C32 C31 1.393 . S
C32 C33 1.399 . S
C33 C32 1.399 . S
C33 C34 1.381 . S
C34 H26 0.930 . S
C34 C30 1.390 . S
C34 C33 1.381 . S
N35 C28 1.286 . S
N35 C31 1.413 . S
H36 C41 0.930 . S
H37 C44 0.930 . S
H38 C46 0.930 . S
H39 C40 1.016 . S
C40 H39 1.016 . S
C40 N47 1.286 . S
C41 H36 0.930 . S
C41 C42 1.397 . S
C41 C43 1.361 . S
C42 C41 1.397 . S
C42 C46 1.390 . S
C43 C41 1.361 . S
C43 C44 1.393 . S
C43 N47 1.413 . S
C44 H37 0.930 . S
C44 C43 1.393 . S
C44 C45 1.399 . S
C45 C44 1.399 . S
C45 C46 1.381 . S
C46 H38 0.930 . S
C46 C42 1.390 . S
C46 C45 1.381 . S
N47 C40 1.286 . S
N47 C43 1.413 . S
H48 C53 0.930 . S
H49 C56 0.930 . S
H50 C58 0.930 . S
H51 C52 1.016 . S
C52 H51 1.016 . S
C52 N59 1.286 . S
C53 H48 0.930 . S
C53 C54 1.397 . S
C53 C55 1.361 . S
C54 C53 1.397 . S
C54 C58 1.390 . S
C55 C53 1.361 . S
C55 C56 1.393 . S
C55 N59 1.413 . S
C56 H49 0.930 . S
C56 C55 1.393 . S
C56 C57 1.399 . S
C57 C56 1.399 . S
C57 C58 1.381 . S
C58 H50 0.930 . S
C58 C54 1.390 . S
C58 C57 1.381 . S
N59 C52 1.286 . S
N59 C55 1.413 . S
H60 C65 0.930 . S
H61 C68 0.930 . S
H62 C70 0.930 . S
H63 C64 1.016 . S
C64 H63 1.016 . S
C64 N71 1.286 . S
C65 H60 0.930 . S
C65 C66 1.397 . S
C65 C67 1.361 . S
C66 C65 1.397 . S
C66 C70 1.390 . S
C67 C65 1.361 . S
C67 C68 1.393 . S
C67 N71 1.413 . S
C68 H61 0.930 . S
C68 C67 1.393 . S
C68 C69 1.399 . S
C69 C68 1.399 . S
C69 C70 1.381 . S
C70 H62 0.930 . S
C70 C66 1.390 . S
C70 C69 1.381 . S
N71 C64 1.286 . S
N71 C67 1.413 . S
H72 C77 0.930 . S
H73 C80 0.930 . S
H74 C82 0.930 . S
H75 C76 1.016 . S
C76 H75 1.016 . S
C76 N83 1.286 . S
C77 H72 0.930 . S
C77 C78 1.397 . S
C77 C79 1.361 . S
C78 C77 1.397 . S
C78 C82 1.390 . S
C79 C77 1.361 . S
C79 C80 1.393 . S
C79 N83 1.413 . S
C80 H73 0.930 . S
C80 C79 1.393 . S
C80 C81 1.399 . S
C81 C80 1.399 . S
C81 C82 1.381 . S
C82 H74 0.930 . S
C82 C78 1.390 . S
C82 C81 1.381 . S
N83 C76 1.286 . S
N83 C79 1.413 . S
H84 C89 0.930 . S
H85 C92 0.930 . S
H86 C94 0.930 . S
H87 C88 1.016 . S
C88 H87 1.016 . S
C88 N95 1.286 . S
C89 H84 0.930 . S
C89 C90 1.397 . S
C89 C91 1.361 . S
C90 C89 1.397 . S
C90 C94 1.390 . S
C91 C89 1.361 . S
C91 C92 1.393 . S
C91 N95 1.413 . S
C92 H85 0.930 . S
C92 C91 1.393 . S
C92 C93 1.399 . S
C93 C92 1.399 . S
C93 C94 1.381 . S
C94 H86 0.930 . S
C94 C90 1.390 . S
C94 C93 1.381 . S
N95 C88 1.286 . S
N95 C91 1.413 . S
H96 C101 0.930 . S
H97 C104 0.930 . S
H98 C106 0.930 . S
H99 C100 1.016 . S
C100 H99 1.016 . S
C100 N107 1.286 . S
C101 H96 0.930 . S
C101 C102 1.397 . S
C101 C103 1.361 . S
C102 C101 1.397 . S
C102 C106 1.390 . S
C103 C101 1.361 . S
C103 C104 1.393 . S
C103 N107 1.413 . S
C104 H97 0.930 . S
C104 C103 1.393 . S
C104 C105 1.399 . S
C105 C104 1.399 . S
C105 C106 1.381 . S
C106 H98 0.930 . S
C106 C102 1.390 . S
C106 C105 1.381 . S
N107 C100 1.286 . S
N107 C103 1.413 . S
H108 C113 0.930 . S
H109 C116 0.930 . S
H110 C118 0.930 . S
H111 C112 1.016 . S
C112 H111 1.016 . S
C112 N119 1.286 . S
C113 H108 0.930 . S
C113 C114 1.397 . S
C113 C115 1.361 . S
C114 C113 1.397 . S
C114 C118 1.390 . S
C115 C113 1.361 . S
C115 C116 1.393 . S
C115 N119 1.413 . S
C116 H109 0.930 . S
C116 C115 1.393 . S
C116 C117 1.399 . S
C117 C116 1.399 . S
C117 C118 1.381 . S
C118 H110 0.930 . S
C118 C114 1.390 . S
C118 C117 1.381 . S
N119 C112 1.286 . S
N119 C115 1.413 . S
H120 C125 0.930 . S
H121 C128 0.930 . S
H122 C130 0.930 . S
H123 C124 1.016 . S
C124 H123 1.016 . S
C124 N131 1.286 . S
C125 H120 0.930 . S
C125 C126 1.397 . S
C125 C127 1.361 . S
C126 C125 1.397 . S
C126 C130 1.390 . S
C127 C125 1.361 . S
C127 C128 1.393 . S
C127 N131 1.413 . S
C128 H121 0.930 . S
C128 C127 1.393 . S
C128 C129 1.399 . S
C129 C128 1.399 . S
C129 C130 1.381 . S
C130 H122 0.930 . S
C130 C126 1.390 . S
C130 C129 1.381 . S
N131 C124 1.286 . S
N131 C127 1.413 . S
H132 C137 0.930 . S
H133 C140 0.930 . S
H134 C142 0.930 . S
H135 C136 1.016 . S
C136 H135 1.016 . S
C136 N143 1.286 . S
C137 H132 0.930 . S
C137 C138 1.397 . S
C137 C139 1.361 . S
C138 C137 1.397 . S
C138 C142 1.390 . S
C139 C137 1.361 . S
C139 C140 1.393 . S
C139 N143 1.413 . S
C140 H133 0.930 . S
C140 C139 1.393 . S
C140 C141 1.399 . S
C141 C140 1.399 . S
C141 C142 1.381 . S
C142 H134 0.930 . S
C142 C138 1.390 . S
C142 C141 1.381 . S
N143 C136 1.286 . S
N143 C139 1.413 . S
H144 C149 0.930 . S
H145 C152 0.930 . S
H146 C154 0.930 . S
H147 C148 1.016 . S
C148 H147 1.016 . S
C148 N155 1.286 . S
C149 H144 0.930 . S
C149 C150 1.397 . S
C149 C151 1.361 . S
C150 C149 1.397 . S
C150 C154 1.390 . S
C151 C149 1.361 . S
C151 C152 1.393 . S
C151 N155 1.413 . S
C152 H145 0.930 . S
C152 C151 1.393 . S
C152 C153 1.399 . S
C153 C152 1.399 . S
C153 C154 1.381 . S
C154 H146 0.930 . S
C154 C150 1.390 . S
C154 C153 1.381 . S
N155 C148 1.286 . S
N155 C151 1.413 . S
H156 C161 0.930 . S
H157 C164 0.930 . S
H158 C166 0.930 . S
H159 C160 1.016 . S
C160 H159 1.016 . S
C160 N167 1.286 . S
C161 H156 0.930 . S
C161 C162 1.397 . S
C161 C163 1.361 . S
C162 C161 1.397 . S
C162 C166 1.390 . S
C163 C161 1.361 . S
C163 C164 1.393 . S
C163 N167 1.413 . S
C164 H157 0.930 . S
C164 C163 1.393 . S
C164 C165 1.399 . S
C165 C164 1.399 . S
C165 C166 1.381 . S
C166 H158 0.930 . S
C166 C162 1.390 . S
C166 C165 1.381 . S
N167 C160 1.286 . S
N167 C163 1.413 . S
H168 C173 0.930 . S
H169 C176 0.930 . S
H170 C178 0.930 . S
H171 C172 1.016 . S
C172 H171 1.016 . S
C172 N179 1.286 . S
C173 H168 0.930 . S
C173 C174 1.397 . S
C173 C175 1.361 . S
C174 C173 1.397 . S
C174 C178 1.390 . S
C175 C173 1.361 . S
C175 C176 1.393 . S
C175 N179 1.413 . S
C176 H169 0.930 . S
C176 C175 1.393 . S
C176 C177 1.399 . S
C177 C176 1.399 . S
C177 C178 1.381 . S
C178 H170 0.930 . S
C178 C174 1.390 . S
C178 C177 1.381 . S
N179 C172 1.286 . S
N179 C175 1.413 . S
H180 C185 0.930 . S
H181 C188 0.930 . S
H182 C190 0.930 . S
H183 C184 1.016 . S
C184 H183 1.016 . S
C184 N191 1.286 . S
C185 H180 0.930 . S
C185 C186 1.397 . S
C185 C187 1.361 . S
C186 C185 1.397 . S
C186 C190 1.390 . S
C187 C185 1.361 . S
C187 C188 1.393 . S
C187 N191 1.413 . S
C188 H181 0.930 . S
C188 C187 1.393 . S
C188 C189 1.399 . S
C189 C188 1.399 . S
C189 C190 1.381 . S
C190 H182 0.930 . S
C190 C186 1.390 . S
C190 C189 1.381 . S
N191 C184 1.286 . S
N191 C187 1.413 . S
H192 C197 0.930 . S
H193 C200 0.930 . S
H194 C202 0.930 . S
H195 C196 1.016 . S
C196 H195 1.016 . S
C196 N203 1.286 . S
C197 H192 0.930 . S
C197 C198 1.397 . S
C197 C199 1.361 . S
C198 C197 1.397 . S
C198 C202 1.390 . S
C199 C197 1.361 . S
C199 C200 1.393 . S
C199 N203 1.413 . S
C200 H193 0.930 . S
C200 C199 1.393 . S
C200 C201 1.399 . S
C201 C200 1.399 . S
C201 C202 1.381 . S
C202 H194 0.930 . S
C202 C198 1.390 . S
C202 C201 1.381 . S
N203 C196 1.286 . S
N203 C199 1.413 . S
H204 C209 0.930 . S
H205 C212 0.930 . S
H206 C214 0.930 . S
H207 C208 1.016 . S
C208 H207 1.016 . S
C208 N215 1.286 . S
C209 H204 0.930 . S
C209 C210 1.397 . S
C209 C211 1.361 . S
C210 C209 1.397 . S
C210 C214 1.390 . S
C211 C209 1.361 . S
C211 C212 1.393 . S
C211 N215 1.413 . S
C212 H205 0.930 . S
C212 C211 1.393 . S
C212 C213 1.399 . S
C213 C212 1.399 . S
C213 C214 1.381 . S
C214 H206 0.930 . S
C214 C210 1.390 . S
C214 C213 1.381 . S
N215 C208 1.286 . S
N215 C211 1.413 . S
Gd216 N247 2.661 . S
Gd216 N253 2.601 . S
Gd216 O260 2.545 . S
Gd216 O261 2.606 1_545 S
Gd216 O263 2.429 . S
Gd216 O264 2.545 1_545 S
Gd216 O265 2.412 1_545 S
Gd216 O267 2.362 . S
Gd216 O268 2.324 1_545 S
Gd216 C275 2.828 . S
Gd217 N226 2.661 . S
Gd217 N230 2.601 . S
Gd217 O261 2.362 1_556 S
Gd217 O262 2.324 1_565 S
Gd217 O266 2.545 . S
Gd217 O267 2.606 1_566 S
Gd217 O269 2.429 . S
Gd217 O270 2.545 1_565 S
Gd217 O271 2.412 1_565 S
Gd217 C284 2.828 . S
C218 C221 1.417 . S
C218 C223 1.431 . S
C218 C224 1.412 . S
C219 C222 1.437 . S
C219 C223 1.317 . S
C219 H238 0.929 . S
C220 C221 1.426 . S
C220 C222 1.413 . S
C220 N230 1.359 . S
C221 C218 1.417 . S
C221 C220 1.426 . S
C221 N226 1.350 . S
C222 C219 1.437 . S
C222 C220 1.413 . S
C222 C232 1.391 . S
C223 C218 1.431 . S
C223 C219 1.317 . S
C223 H234 0.930 . S
C224 C218 1.412 . S
C224 C225 1.355 . S
C224 H236 0.930 . S
C225 C224 1.355 . S
C225 C227 1.402 . S
C225 H237 0.930 . S
N226 Gd217 2.661 . S
N226 C221 1.350 . S
N226 C227 1.307 . S
C227 C225 1.402 . S
C227 N226 1.307 . S
C227 H228 0.930 . S
H228 C227 0.930 . S
C229 N230 1.334 . S
C229 C231 1.394 . S
C229 H233 0.930 . S
N230 Gd217 2.601 . S
N230 C220 1.359 . S
N230 C229 1.334 . S
C231 C229 1.394 . S
C231 C232 1.359 . S
C231 H243 0.930 . S
C232 C222 1.391 . S
C232 C231 1.359 . S
C232 H244 0.929 . S
H233 C229 0.930 . S
H234 C223 0.930 . S
H235 C252 0.930 . S
H236 C224 0.930 . S
H237 C225 0.930 . S
H238 C219 0.929 . S
H239 C257 0.930 . S
H240 C248 0.930 . S
H241 C249 0.930 . S
H242 C273 0.929 . S
H243 C231 0.930 . S
H244 C232 0.929 . S
H245 C274 0.930 . S
H246 C255 0.930 . S
N247 Gd216 2.661 . S
N247 C251 1.350 . S
N247 C252 1.307 . S
C248 H240 0.930 . S
C248 C249 1.355 . S
C248 C250 1.412 . S
C249 H241 0.930 . S
C249 C248 1.355 . S
C249 C252 1.402 . S
C250 C248 1.412 . S
C250 C251 1.417 . S
C250 C274 1.431 . S
C251 N247 1.350 . S
C251 C250 1.417 . S
C251 C254 1.426 . S
C252 H235 0.930 . S
C252 N247 1.307 . S
C252 C249 1.402 . S
N253 Gd216 2.601 . S
N253 C254 1.359 . S
N253 C257 1.334 . S
C254 C251 1.426 . S
C254 N253 1.359 . S
C254 C258 1.413 . S
C255 H246 0.930 . S
C255 C256 1.359 . S
C255 C257 1.394 . S
C256 C255 1.359 . S
C256 C258 1.391 . S
C256 H259 0.929 . S
C257 H239 0.930 . S
C257 N253 1.334 . S
C257 C255 1.394 . S
C258 C254 1.413 . S
C258 C256 1.391 . S
C258 C273 1.437 . S
H259 C256 0.929 . S
O260 Gd216 2.545 . S
O260 C275 1.258 . S
O261 Gd216 2.606 1_565 S
O261 Gd217 2.362 1_554 S
O261 C272 1.284 . S
O262 Gd217 2.324 1_545 S
O262 C282 1.254 . S
O263 Gd216 2.429 . S
O263 C282 1.268 1_554 S
O264 Gd216 2.545 1_565 S
O264 C272 1.250 . S
O265 Gd216 2.412 1_565 S
O265 C275 1.252 1_565 S
O266 Gd217 2.545 . S
O266 C284 1.258 . S
O267 Gd216 2.362 . S
O267 Gd217 2.606 1_544 S
O267 C283 1.284 1_554 S
O268 Gd216 2.324 1_565 S
O268 C291 1.254 . S
O269 Gd217 2.429 . S
O269 C291 1.268 1_556 S
O270 Gd217 2.545 1_545 S
O270 C283 1.250 . S
O271 Gd217 2.412 1_545 S
O271 C284 1.252 1_545 S
C272 O261 1.284 . S
C272 O264 1.250 . S
C273 H242 0.929 . S
C273 C258 1.437 . S
C273 C274 1.317 . S
C274 H245 0.930 . S
C274 C250 1.431 . S
C274 C273 1.317 . S
C275 Gd216 2.828 . S
C275 O260 1.258 . S
C275 O265 1.252 1_545 S
C275 C276 1.497 . S
C276 C275 1.497 . S
C276 C277 1.395 . S
C276 C278 1.380 1_545 S
C277 C276 1.395 . S
C277 C280 1.398 . S
C277 H292 0.930 . S
C278 C276 1.380 1_565 S
C278 C279 1.391 . S
C278 H293 0.930 . S
C279 C278 1.391 . S
C279 C281 1.387 . S
C280 C277 1.398 . S
C280 C281 1.380 1_545 S
C280 H294 0.930 . S
C281 C279 1.387 . S
C281 C280 1.380 1_565 S
C281 H295 0.930 . S
C282 O262 1.254 . S
C282 O263 1.268 1_556 S
C283 O267 1.284 1_556 S
C283 O270 1.250 . S
C284 Gd217 2.828 . S
C284 O266 1.258 . S
C284 O271 1.252 1_565 S
C284 C285 1.497 1_565 S
C285 C284 1.497 1_545 S
C285 C286 1.395 1_545 S
C285 C287 1.380 . S
C286 C285 1.395 1_565 S
C286 C289 1.398 . S
C286 H296 0.930 . S
C287 C285 1.380 . S
C287 C288 1.391 . S
C287 H297 0.930 . S
C288 C287 1.391 . S
C288 C290 1.387 . S
C289 C286 1.398 . S
C289 C290 1.380 1_565 S
C289 H298 0.930 . S
C290 C288 1.387 . S
C290 C289 1.380 1_545 S
C290 H299 0.930 . S
C291 O268 1.254 . S
C291 O269 1.268 1_554 S
H292 C277 0.930 . S
H293 C278 0.930 . S
H294 C280 0.930 . S
H295 C281 0.930 . S
H296 C286 0.930 . S
H297 C287 0.930 . S
H298 C289 0.930 . S
H299 C290 0.930 . S
Gd300 N331 2.661 . S
Gd300 N337 2.601 . S
Gd300 O344 2.545 . S
Gd300 O345 2.606 1_655 S
Gd300 O347 2.429 . S
Gd300 O348 2.545 1_655 S
Gd300 O349 2.412 1_655 S
Gd300 O351 2.362 . S
Gd300 O352 2.324 1_655 S
Gd300 C359 2.828 . S
Gd301 N310 2.661 . S
Gd301 N314 2.601 . S
Gd301 O345 2.362 1_556 S
Gd301 O346 2.324 1_455 S
Gd301 O350 2.545 . S
Gd301 O351 2.606 1_456 S
Gd301 O353 2.429 . S
Gd301 O354 2.545 1_455 S
Gd301 O355 2.407 1_455 S
Gd301 C368 2.828 . S
C302 C305 1.417 . S
C302 C307 1.431 . S
C302 C308 1.412 . S
C303 C306 1.437 . S
C303 C307 1.317 . S
C303 H322 0.929 . S
C304 C305 1.426 . S
C304 C306 1.413 . S
C304 N314 1.359 . S
C305 C302 1.417 . S
C305 C304 1.426 . S
C305 N310 1.350 . S
C306 C303 1.437 . S
C306 C304 1.413 . S
C306 C316 1.391 . S
C307 C302 1.431 . S
C307 C303 1.317 . S
C307 H318 0.930 . S
C308 C302 1.412 . S
C308 C309 1.355 . S
C308 H320 0.930 . S
C309 C308 1.355 . S
C309 C311 1.402 . S
C309 H321 0.930 . S
N310 Gd301 2.661 . S
N310 C305 1.350 . S
N310 C311 1.307 . S
C311 C309 1.402 . S
C311 N310 1.307 . S
C311 H312 0.930 . S
H312 C311 0.930 . S
C313 N314 1.334 . S
C313 C315 1.394 . S
C313 H317 0.930 . S
N314 Gd301 2.601 . S
N314 C304 1.359 . S
N314 C313 1.334 . S
C315 C313 1.394 . S
C315 C316 1.359 . S
C315 H327 0.930 . S
C316 C306 1.391 . S
C316 C315 1.359 . S
C316 H328 0.929 . S
H317 C313 0.930 . S
H318 C307 0.930 . S
H319 C336 0.930 . S
H320 C308 0.930 . S
H321 C309 0.930 . S
H322 C303 0.929 . S
H323 C341 0.930 . S
H324 C332 0.930 . S
H325 C333 0.930 . S
H326 C357 0.929 . S
H327 C315 0.930 . S
H328 C316 0.929 . S
H329 C358 0.930 . S
H330 C339 0.930 . S
N331 Gd300 2.661 . S
N331 C335 1.350 . S
N331 C336 1.307 . S
C332 H324 0.930 . S
C332 C333 1.355 . S
C332 C334 1.412 . S
C333 H325 0.930 . S
C333 C332 1.355 . S
C333 C336 1.402 . S
C334 C332 1.412 . S
C334 C335 1.417 . S
C334 C358 1.431 . S
C335 N331 1.350 . S
C335 C334 1.417 . S
C335 C338 1.426 . S
C336 H319 0.930 . S
C336 N331 1.307 . S
C336 C333 1.402 . S
N337 Gd300 2.601 . S
N337 C338 1.359 . S
N337 C341 1.334 . S
C338 C335 1.426 . S
C338 N337 1.359 . S
C338 C342 1.413 . S
C339 H330 0.930 . S
C339 C340 1.359 . S
C339 C341 1.394 . S
C340 C339 1.359 . S
C340 C342 1.391 . S
C340 H343 0.929 . S
C341 H323 0.930 . S
C341 N337 1.334 . S
C341 C339 1.394 . S
C342 C338 1.413 . S
C342 C340 1.391 . S
C342 C357 1.437 . S
H343 C340 0.929 . S
O344 Gd300 2.545 . S
O344 C359 1.258 . S
O345 Gd300 2.606 1_455 S
O345 Gd301 2.362 1_554 S
O345 C356 1.284 . S
O346 Gd301 2.324 1_655 S
O346 C366 1.254 . S
O347 Gd300 2.429 . S
O347 C366 1.268 1_554 S
O348 Gd300 2.545 1_455 S
O348 C356 1.250 . S
O349 Gd300 2.412 1_455 S
O349 C359 1.252 1_455 S
O350 Gd301 2.545 . S
O350 C368 1.258 . S
O351 Gd300 2.362 . S
O351 Gd301 2.606 1_654 S
O351 C367 1.284 1_554 S
O352 Gd300 2.324 1_455 S
O352 C375 1.254 . S
O353 Gd301 2.429 . S
O353 C375 1.268 1_556 S
O354 Gd301 2.545 1_655 S
O354 C367 1.250 . S
O355 Gd301 2.407 1_655 S
O355 C368 1.254 1_655 S
C356 O345 1.284 . S
C356 O348 1.250 . S
C357 H326 0.929 . S
C357 C342 1.437 . S
C357 C358 1.317 . S
C358 H329 0.930 . S
C358 C334 1.431 . S
C358 C357 1.317 . S
C359 Gd300 2.828 . S
C359 O344 1.258 . S
C359 O349 1.252 1_655 S
C359 C360 1.497 1_655 S
C360 C359 1.497 1_455 S
C360 C361 1.395 1_455 S
C360 C362 1.380 . S
C361 C360 1.395 1_655 S
C361 C364 1.398 . S
C361 H376 0.930 . S
C362 C360 1.380 . S
C362 C363 1.391 . S
C362 H377 0.930 . S
C363 C362 1.391 . S
C363 C365 1.387 . S
C364 C361 1.398 . S
C364 C365 1.380 1_655 S
C364 H378 0.930 . S
C365 C363 1.387 . S
C365 C364 1.380 1_455 S
C365 H379 0.930 . S
C366 O346 1.254 . S
C366 O347 1.268 1_556 S
C367 O351 1.284 1_556 S
C367 O354 1.250 . S
C368 Gd301 2.828 . S
C368 O350 1.258 . S
C368 O355 1.254 1_455 S
C368 C369 1.497 . S
C369 C368 1.497 . S
C369 C370 1.395 . S
C369 C371 1.380 1_455 S
C370 C369 1.395 . S
C370 C373 1.398 . S
C370 H380 0.930 . S
C371 C369 1.380 1_655 S
C371 C372 1.391 . S
C371 H381 0.930 . S
C372 C371 1.391 . S
C372 C374 1.387 . S
C373 C370 1.398 . S
C373 C374 1.380 1_455 S
C373 H382 0.930 . S
C374 C372 1.387 . S
C374 C373 1.380 1_655 S
C374 H383 0.930 . S
C375 O352 1.254 . S
C375 O353 1.268 1_554 S
H376 C361 0.930 . S
H377 C362 0.930 . S
H378 C364 0.930 . S
H379 C365 0.930 . S
H380 C370 0.930 . S
H381 C371 0.930 . S
H382 C373 0.930 . S
H383 C374 0.930 . S
Gd384 N415 2.661 . S
Gd384 N421 2.601 . S
Gd384 O428 2.545 . S
Gd384 O429 2.606 1_556 S
Gd384 O431 2.429 . S
Gd384 O432 2.545 . S
Gd384 O433 2.412 . S
Gd384 O435 2.362 1_556 S
Gd384 O436 2.324 . S
Gd384 C443 2.828 . S
Gd385 N394 2.661 . S
Gd385 N398 2.601 . S
Gd385 O429 2.362 . S
Gd385 O430 2.324 . S
Gd385 O434 2.545 . S
Gd385 O435 2.606 . S
Gd385 O437 2.429 . S
Gd385 O438 2.545 . S
Gd385 O439 2.412 . S
Gd385 C452 2.828 . S
C386 C389 1.417 . S
C386 C391 1.431 . S
C386 C392 1.412 . S
C387 C390 1.437 . S
C387 C391 1.317 . S
C387 H406 0.929 . S
C388 C389 1.426 . S
C388 C390 1.413 . S
C388 N398 1.359 . S
C389 C386 1.417 . S
C389 C388 1.426 . S
C389 N394 1.350 . S
C390 C387 1.437 . S
C390 C388 1.413 . S
C390 C400 1.391 . S
C391 C386 1.431 . S
C391 C387 1.317 . S
C391 H402 0.930 . S
C392 C386 1.412 . S
C392 C393 1.355 . S
C392 H404 0.930 . S
C393 C392 1.355 . S
C393 C395 1.402 . S
C393 H405 0.930 . S
N394 Gd385 2.661 . S
N394 C389 1.350 . S
N394 C395 1.307 . S
C395 C393 1.402 . S
C395 N394 1.307 . S
C395 H396 0.930 . S
H396 C395 0.930 . S
C397 N398 1.334 . S
C397 C399 1.394 . S
C397 H401 0.930 . S
N398 Gd385 2.601 . S
N398 C388 1.359 . S
N398 C397 1.334 . S
C399 C397 1.394 . S
C399 C400 1.359 . S
C399 H411 0.930 . S
C400 C390 1.391 . S
C400 C399 1.359 . S
C400 H412 0.929 . S
H401 C397 0.930 . S
H402 C391 0.930 . S
H403 C420 0.930 . S
H404 C392 0.930 . S
H405 C393 0.930 . S
H406 C387 0.929 . S
H407 C425 0.930 . S
H408 C416 0.930 . S
H409 C417 0.930 . S
H410 C441 0.929 . S
H411 C399 0.930 . S
H412 C400 0.929 . S
H413 C442 0.930 . S
H414 C423 0.930 . S
N415 Gd384 2.661 . S
N415 C419 1.350 . S
N415 C420 1.307 . S
C416 H408 0.930 . S
C416 C417 1.355 . S
C416 C418 1.412 . S
C417 H409 0.930 . S
C417 C416 1.355 . S
C417 C420 1.402 . S
C418 C416 1.412 . S
C418 C419 1.417 . S
C418 C442 1.431 . S
C419 N415 1.350 . S
C419 C418 1.417 . S
C419 C422 1.426 . S
C420 H403 0.930 . S
C420 N415 1.307 . S
C420 C417 1.402 . S
N421 Gd384 2.601 . S
N421 C422 1.359 . S
N421 C425 1.334 . S
C422 C419 1.426 . S
C422 N421 1.359 . S
C422 C426 1.413 . S
C423 H414 0.930 . S
C423 C424 1.359 . S
C423 C425 1.394 . S
C424 C423 1.359 . S
C424 C426 1.391 . S
C424 H427 0.929 . S
C425 H407 0.930 . S
C425 N421 1.334 . S
C425 C423 1.394 . S
C426 C422 1.413 . S
C426 C424 1.391 . S
C426 C441 1.437 . S
H427 C424 0.929 . S
O428 Gd384 2.545 . S
O428 C443 1.258 . S
O429 Gd384 2.606 1_554 S
O429 Gd385 2.362 . S
O429 C440 1.284 1_554 S
O430 Gd385 2.324 . S
O430 C450 1.254 . S
O431 Gd384 2.429 . S
O431 C450 1.268 1_556 S
O432 Gd384 2.545 . S
O432 C440 1.250 . S
O433 Gd384 2.412 . S
O433 C443 1.252 . S
O434 Gd385 2.545 . S
O434 C452 1.258 . S
O435 Gd384 2.362 1_554 S
O435 Gd385 2.606 . S
O435 C451 1.284 . S
O436 Gd384 2.324 . S
O436 C459 1.254 . S
O437 Gd385 2.429 . S
O437 C459 1.268 1_554 S
O438 Gd385 2.545 . S
O438 C451 1.250 . S
O439 Gd385 2.412 . S
O439 C452 1.252 . S
C440 O429 1.284 1_556 S
C440 O432 1.250 . S
C441 H410 0.929 . S
C441 C426 1.437 . S
C441 C442 1.317 . S
C442 H413 0.930 . S
C442 C418 1.431 . S
C442 C441 1.317 . S
C443 Gd384 2.828 . S
C443 O428 1.258 . S
C443 O433 1.252 . S
C443 C444 1.497 . S
C444 C443 1.497 . S
C444 C445 1.395 . S
C444 C446 1.380 . S
C445 C444 1.395 . S
C445 C448 1.398 . S
C445 H460 0.930 . S
C446 C444 1.380 . S
C446 C447 1.391 . S
C446 H461 0.930 . S
C447 C446 1.391 . S
C447 C449 1.387 . S
C448 C445 1.398 . S
C448 C449 1.380 . S
C448 H462 0.930 . S
C449 C447 1.387 . S
C449 C448 1.380 . S
C449 H463 0.930 . S
C450 O430 1.254 . S
C450 O431 1.268 1_554 S
C451 O435 1.284 . S
C451 O438 1.250 . S
C452 Gd385 2.828 . S
C452 O434 1.258 . S
C452 O439 1.252 . S
C452 C453 1.497 . S
C453 C452 1.497 . S
C453 C454 1.395 . S
C453 C455 1.380 . S
C454 C453 1.395 . S
C454 C457 1.398 . S
C454 H464 0.930 . S
C455 C453 1.380 . S
C455 C456 1.391 . S
C455 H465 0.930 . S
C456 C455 1.391 . S
C456 C458 1.387 . S
C457 C454 1.398 . S
C457 C458 1.380 . S
C457 H466 0.930 . S
C458 C456 1.387 . S
C458 C457 1.380 . S
C458 H467 0.930 . S
C459 O436 1.254 . S
C459 O437 1.268 1_556 S
H460 C445 0.930 . S
H461 C446 0.930 . S
H462 C448 0.930 . S
H463 C449 0.930 . S
H464 C454 0.930 . S
H465 C455 0.930 . S
H466 C457 0.930 . S
H467 C458 0.930 . S
Gd468 N499 2.661 . S
Gd468 N505 2.601 . S
Gd468 O512 2.545 . S
Gd468 O513 2.606 . S
Gd468 O515 2.429 . S
Gd468 O516 2.545 . S
Gd468 O517 2.412 . S
Gd468 O519 2.362 . S
Gd468 O520 2.324 . S
Gd468 C527 2.828 . S
Gd469 N478 2.661 . S
Gd469 N482 2.601 . S
Gd469 O513 2.362 . S
Gd469 O514 2.324 . S
Gd469 O518 2.545 . S
Gd469 O519 2.606 . S
Gd469 O521 2.429 . S
Gd469 O522 2.545 . S
Gd469 O523 2.412 . S
Gd469 C536 2.828 . S
C470 C473 1.417 1_655 S
C470 C475 1.431 . S
C470 C476 1.412 . S
C471 C474 1.437 1_655 S
C471 C475 1.317 . S
C471 H490 0.929 . S
C472 C473 1.426 . S
C472 C474 1.413 . S
C472 N482 1.359 . S
C473 C470 1.417 1_455 S
C473 C472 1.426 . S
C473 N478 1.350 . S
C474 C471 1.437 1_455 S
C474 C472 1.413 . S
C474 C484 1.391 . S
C475 C470 1.431 . S
C475 C471 1.317 . S
C475 H486 0.930 . S
C476 C470 1.412 . S
C476 C477 1.355 . S
C476 H488 0.930 . S
C477 C476 1.355 . S
C477 C479 1.402 1_655 S
C477 H489 0.930 . S
N478 Gd469 2.661 . S
N478 C473 1.350 . S
N478 C479 1.307 . S
C479 C477 1.402 1_455 S
C479 N478 1.307 . S
C479 H480 0.930 . S
H480 C479 0.930 . S
C481 N482 1.334 . S
C481 C483 1.394 . S
C481 H485 0.930 . S
N482 Gd469 2.601 . S
N482 C472 1.359 . S
N482 C481 1.334 . S
C483 C481 1.394 . S
C483 C484 1.359 . S
C483 H495 0.930 . S
C484 C474 1.391 . S
C484 C483 1.359 . S
C484 H496 0.929 . S
H485 C481 0.930 . S
H486 C475 0.930 . S
H487 C504 0.930 . S
H488 C476 0.930 . S
H489 C477 0.930 . S
H490 C471 0.929 . S
H491 C509 0.930 . S
H492 C500 0.930 . S
H493 C501 0.930 . S
H494 C525 0.929 . S
H495 C483 0.930 . S
H496 C484 0.929 . S
H497 C526 0.930 . S
H498 C507 0.930 . S
N499 Gd468 2.661 . S
N499 C503 1.350 . S
N499 C504 1.307 . S
C500 H492 0.930 . S
C500 C501 1.355 . S
C500 C502 1.412 . S
C501 H493 0.930 . S
C501 C500 1.355 . S
C501 C504 1.402 . S
C502 C500 1.412 . S
C502 C503 1.417 . S
C502 C526 1.431 . S
C503 N499 1.350 . S
C503 C502 1.417 . S
C503 C506 1.426 . S
C504 H487 0.930 . S
C504 N499 1.307 . S
C504 C501 1.402 . S
N505 Gd468 2.601 . S
N505 C506 1.359 . S
N505 C509 1.334 . S
C506 C503 1.426 . S
C506 N505 1.359 . S
C506 C510 1.413 . S
C507 H498 0.930 . S
C507 C508 1.359 . S
C507 C509 1.394 . S
C508 C507 1.359 . S
C508 C510 1.391 . S
C508 H511 0.929 . S
C509 H491 0.930 . S
C509 N505 1.334 . S
C509 C507 1.394 . S
C510 C506 1.413 . S
C510 C508 1.391 . S
C510 C525 1.437 . S
H511 C508 0.929 . S
O512 Gd468 2.545 . S
O512 C527 1.258 . S
O513 Gd468 2.606 . S
O513 Gd469 2.362 . S
O513 C524 1.284 . S
O514 Gd469 2.324 . S
O514 C534 1.254 . S
O515 Gd468 2.429 . S
O515 C534 1.268 . S
O516 Gd468 2.545 . S
O516 C524 1.250 . S
O517 Gd468 2.412 . S
O517 C527 1.252 . S
O518 Gd469 2.545 . S
O518 C536 1.258 . S
O519 Gd468 2.362 . S
O519 Gd469 2.606 . S
O519 C535 1.284 . S
O520 Gd468 2.324 . S
O520 C543 1.254 . S
O521 Gd469 2.429 . S
O521 C543 1.268 . S
O522 Gd469 2.545 . S
O522 C535 1.250 . S
O523 Gd469 2.412 . S
O523 C536 1.252 . S
C524 O513 1.284 . S
C524 O516 1.250 . S
C525 H494 0.929 . S
C525 C510 1.437 . S
C525 C526 1.317 . S
C526 H497 0.930 . S
C526 C502 1.431 . S
C526 C525 1.317 . S
C527 Gd468 2.828 . S
C527 O512 1.258 . S
C527 O517 1.252 . S
C527 C528 1.497 . S
C528 C527 1.497 . S
C528 C529 1.395 . S
C528 C530 1.380 . S
C529 C528 1.395 . S
C529 C532 1.398 . S
C529 H544 0.930 . S
C530 C528 1.380 . S
C530 C531 1.391 . S
C530 H545 0.930 . S
C531 C530 1.391 . S
C531 C533 1.387 . S
C532 C529 1.398 . S
C532 C533 1.380 . S
C532 H546 0.930 . S
C533 C531 1.387 . S
C533 C532 1.380 . S
C533 H547 0.930 . S
C534 O514 1.254 . S
C534 O515 1.268 . S
C535 O519 1.284 . S
C535 O522 1.250 . S
C536 Gd469 2.828 . S
C536 O518 1.258 . S
C536 O523 1.252 . S
C536 C537 1.497 . S
C537 C536 1.497 . S
C537 C538 1.395 . S
C537 C539 1.380 . S
C538 C537 1.395 . S
C538 C541 1.398 . S
C538 H548 0.930 . S
C539 C537 1.380 . S
C539 C540 1.391 . S
C539 H549 0.930 . S
C540 C539 1.391 . S
C540 C542 1.387 . S
C541 C538 1.398 . S
C541 C542 1.380 . S
C541 H550 0.930 . S
C542 C540 1.387 . S
C542 C541 1.380 . S
C542 H551 0.930 . S
C543 O520 1.254 . S
C543 O521 1.268 . S
H544 C529 0.930 . S
H545 C530 0.930 . S
H546 C532 0.930 . S
H547 C533 0.930 . S
H548 C538 0.930 . S
H549 C539 0.930 . S
H550 C541 0.930 . S
H551 C542 0.930 . S
Gd552 N583 2.661 . S
Gd552 N589 2.601 . S
Gd552 O596 2.545 . S
Gd552 O597 2.606 . S
Gd552 O599 2.429 . S
Gd552 O600 2.545 . S
Gd552 O601 2.412 . S
Gd552 O603 2.362 . S
Gd552 O604 2.324 . S
Gd552 C611 2.828 . S
Gd553 N562 2.661 . S
Gd553 N566 2.601 . S
Gd553 O597 2.362 . S
Gd553 O598 2.324 . S
Gd553 O602 2.545 . S
Gd553 O603 2.606 . S
Gd553 O605 2.429 . S
Gd553 O606 2.545 . S
Gd553 O607 2.412 . S
Gd553 C620 2.828 . S
C554 C557 1.417 . S
C554 C559 1.431 . S
C554 C560 1.412 . S
C555 C558 1.437 . S
C555 C559 1.317 . S
C555 H574 0.929 . S
C556 C557 1.426 . S
C556 C558 1.413 . S
C556 N566 1.359 . S
C557 C554 1.417 . S
C557 C556 1.426 . S
C557 N562 1.350 . S
C558 C555 1.437 . S
C558 C556 1.413 . S
C558 C568 1.391 . S
C559 C554 1.431 . S
C559 C555 1.317 . S
C559 H570 0.930 . S
C560 C554 1.412 . S
C560 C561 1.355 . S
C560 H572 0.930 . S
C561 C560 1.355 . S
C561 C563 1.402 . S
C561 H573 0.930 . S
N562 Gd553 2.661 . S
N562 C557 1.350 . S
N562 C563 1.307 . S
C563 C561 1.402 . S
C563 N562 1.307 . S
C563 H564 0.930 . S
H564 C563 0.930 . S
C565 N566 1.334 . S
C565 C567 1.394 . S
C565 H569 0.930 . S
N566 Gd553 2.601 . S
N566 C556 1.359 . S
N566 C565 1.334 . S
C567 C565 1.394 . S
C567 C568 1.359 . S
C567 H579 0.930 . S
C568 C558 1.391 . S
C568 C567 1.359 . S
C568 H580 0.929 . S
H569 C565 0.930 . S
H570 C559 0.930 . S
H571 C588 0.930 . S
H572 C560 0.930 . S
H573 C561 0.930 . S
H574 C555 0.929 . S
H575 C593 0.930 . S
H576 C584 0.930 . S
H577 C585 0.930 . S
H578 C609 0.929 . S
H579 C567 0.930 . S
H580 C568 0.929 . S
H581 C610 0.930 . S
H582 C591 0.930 . S
N583 Gd552 2.661 . S
N583 C587 1.350 . S
N583 C588 1.307 . S
C584 H576 0.930 . S
C584 C585 1.355 . S
C584 C586 1.412 . S
C585 H577 0.930 . S
C585 C584 1.355 . S
C585 C588 1.402 . S
C586 C584 1.412 . S
C586 C587 1.417 . S
C586 C610 1.431 . S
C587 N583 1.350 . S
C587 C586 1.417 . S
C587 C590 1.426 . S
C588 H571 0.930 . S
C588 N583 1.307 . S
C588 C585 1.402 . S
N589 Gd552 2.601 . S
N589 C590 1.359 . S
N589 C593 1.334 . S
C590 C587 1.426 . S
C590 N589 1.359 . S
C590 C594 1.413 . S
C591 H582 0.930 . S
C591 C592 1.359 . S
C591 C593 1.394 . S
C592 C591 1.359 . S
C592 C594 1.391 . S
C592 H595 0.929 . S
C593 H575 0.930 . S
C593 N589 1.334 . S
C593 C591 1.394 . S
C594 C590 1.413 . S
C594 C592 1.391 . S
C594 C609 1.437 . S
H595 C592 0.929 . S
O596 Gd552 2.545 . S
O596 C611 1.258 . S
O597 Gd552 2.606 . S
O597 Gd553 2.362 . S
O597 C608 1.284 . S
O598 Gd553 2.324 . S
O598 C618 1.254 . S
O599 Gd552 2.429 . S
O599 C618 1.268 . S
O600 Gd552 2.545 . S
O600 C608 1.250 . S
O601 Gd552 2.412 . S
O601 C611 1.252 . S
O602 Gd553 2.545 . S
O602 C620 1.258 . S
O603 Gd552 2.362 . S
O603 Gd553 2.606 . S
O603 C619 1.284 . S
O604 Gd552 2.324 . S
O604 C627 1.254 . S
O605 Gd553 2.429 . S
O605 C627 1.268 . S
O606 Gd553 2.545 . S
O606 C619 1.250 . S
O607 Gd553 2.412 . S
O607 C620 1.252 . S
C608 O597 1.284 . S
C608 O600 1.250 . S
C609 H578 0.929 . S
C609 C594 1.437 . S
C609 C610 1.317 . S
C610 H581 0.930 . S
C610 C586 1.431 . S
C610 C609 1.317 . S
C611 Gd552 2.828 . S
C611 O596 1.258 . S
C611 O601 1.252 . S
C611 C612 1.497 . S
C612 C611 1.497 . S
C612 C613 1.395 . S
C612 C614 1.380 . S
C613 C612 1.395 . S
C613 C616 1.398 . S
C613 H628 0.930 . S
C614 C612 1.380 . S
C614 C615 1.391 . S
C614 H629 0.930 . S
C615 C614 1.391 . S
C615 C617 1.387 . S
C616 C613 1.398 . S
C616 C617 1.380 . S
C616 H630 0.930 . S
C617 C615 1.387 . S
C617 C616 1.380 . S
C617 H631 0.930 . S
C618 O598 1.254 . S
C618 O599 1.268 . S
C619 O603 1.284 . S
C619 O606 1.250 . S
C620 Gd553 2.828 . S
C620 O602 1.258 . S
C620 O607 1.252 . S
C620 C621 1.497 . S
C621 C620 1.497 . S
C621 C622 1.395 . S
C621 C623 1.380 . S
C622 C621 1.395 . S
C622 C625 1.398 . S
C622 H632 0.930 . S
C623 C621 1.380 . S
C623 C624 1.391 . S
C623 H633 0.930 . S
C624 C623 1.391 . S
C624 C626 1.387 . S
C625 C622 1.398 . S
C625 C626 1.380 . S
C625 H634 0.930 . S
C626 C624 1.387 . S
C626 C625 1.380 . S
C626 H635 0.930 . S
C627 O604 1.254 . S
C627 O605 1.268 . S
H628 C613 0.930 . S
H629 C614 0.930 . S
H630 C616 0.930 . S
H631 C617 0.930 . S
H632 C622 0.930 . S
H633 C623 0.930 . S
H634 C625 0.930 . S
H635 C626 0.930 . S
Gd636 N667 2.661 . S
Gd636 N673 2.601 . S
Gd636 O680 2.545 . S
Gd636 O681 2.606 . S
Gd636 O683 2.429 . S
Gd636 O684 2.545 . S
Gd636 O685 2.412 . S
Gd636 O687 2.362 . S
Gd636 O688 2.324 . S
Gd636 C695 2.828 . S
Gd637 N646 2.661 . S
Gd637 N650 2.601 . S
Gd637 O681 2.362 . S
Gd637 O682 2.324 . S
Gd637 O686 2.545 . S
Gd637 O687 2.606 . S
Gd637 O689 2.429 . S
Gd637 O690 2.545 . S
Gd637 O691 2.412 . S
Gd637 C704 2.828 . S
C638 C641 1.417 . S
C638 C643 1.431 . S
C638 C644 1.412 . S
C639 C642 1.437 . S
C639 C643 1.317 . S
C639 H658 0.929 . S
C640 C641 1.426 . S
C640 C642 1.413 . S
C640 N650 1.359 . S
C641 C638 1.417 . S
C641 C640 1.426 . S
C641 N646 1.350 . S
C642 C639 1.437 . S
C642 C640 1.413 . S
C642 C652 1.391 . S
C643 C638 1.431 . S
C643 C639 1.317 . S
C643 H654 0.930 . S
C644 C638 1.412 . S
C644 C645 1.355 . S
C644 H656 0.930 . S
C645 C644 1.355 . S
C645 C647 1.402 . S
C645 H657 0.930 . S
N646 Gd637 2.661 . S
N646 C641 1.350 . S
N646 C647 1.307 . S
C647 C645 1.402 . S
C647 N646 1.307 . S
C647 H648 0.930 . S
H648 C647 0.930 . S
C649 N650 1.334 . S
C649 C651 1.394 . S
C649 H653 0.930 . S
N650 Gd637 2.601 . S
N650 C640 1.359 . S
N650 C649 1.334 . S
C651 C649 1.394 . S
C651 C652 1.359 . S
C651 H663 0.930 . S
C652 C642 1.391 . S
C652 C651 1.359 . S
C652 H664 0.929 . S
H653 C649 0.930 . S
H654 C643 0.930 . S
H655 C672 0.930 . S
H656 C644 0.930 . S
H657 C645 0.930 . S
H658 C639 0.929 . S
H659 C677 0.930 . S
H660 C668 0.930 . S
H661 C669 0.930 . S
H662 C693 0.929 . S
H663 C651 0.930 . S
H664 C652 0.929 . S
H665 C694 0.930 . S
H666 C675 0.930 . S
N667 Gd636 2.661 . S
N667 C671 1.350 . S
N667 C672 1.307 . S
C668 H660 0.930 . S
C668 C669 1.355 . S
C668 C670 1.412 . S
C669 H661 0.930 . S
C669 C668 1.355 . S
C669 C672 1.402 . S
C670 C668 1.412 . S
C670 C671 1.417 . S
C670 C694 1.431 . S
C671 N667 1.350 . S
C671 C670 1.417 . S
C671 C674 1.426 . S
C672 H655 0.930 . S
C672 N667 1.307 . S
C672 C669 1.402 . S
N673 Gd636 2.601 . S
N673 C674 1.359 . S
N673 C677 1.334 . S
C674 C671 1.426 . S
C674 N673 1.359 . S
C674 C678 1.413 . S
C675 H666 0.930 . S
C675 C676 1.359 . S
C675 C677 1.394 . S
C676 C675 1.359 . S
C676 C678 1.391 . S
C676 H679 0.929 . S
C677 H659 0.930 . S
C677 N673 1.334 . S
C677 C675 1.394 . S
C678 C674 1.413 . S
C678 C676 1.391 . S
C678 C693 1.437 . S
H679 C676 0.929 . S
O680 Gd636 2.545 . S
O680 C695 1.258 . S
O681 Gd636 2.606 . S
O681 Gd637 2.362 . S
O681 C692 1.284 . S
O682 Gd637 2.324 . S
O682 C702 1.254 . S
O683 Gd636 2.429 . S
O683 C702 1.268 . S
O684 Gd636 2.545 . S
O684 C692 1.250 . S
O685 Gd636 2.412 . S
O685 C695 1.252 . S
O686 Gd637 2.545 . S
O686 C704 1.258 . S
O687 Gd636 2.362 . S
O687 Gd637 2.606 . S
O687 C703 1.284 . S
O688 Gd636 2.324 . S
O688 C711 1.254 . S
O689 Gd637 2.429 . S
O689 C711 1.268 . S
O690 Gd637 2.545 . S
O690 C703 1.250 . S
O691 Gd637 2.412 . S
O691 C704 1.252 . S
C692 O681 1.284 . S
C692 O684 1.250 . S
C693 H662 0.929 . S
C693 C678 1.437 . S
C693 C694 1.317 . S
C694 H665 0.930 . S
C694 C670 1.431 . S
C694 C693 1.317 . S
C695 Gd636 2.828 . S
C695 O680 1.258 . S
C695 O685 1.252 . S
C695 C696 1.497 . S
C696 C695 1.497 . S
C696 C697 1.395 . S
C696 C698 1.380 . S
C697 C696 1.395 . S
C697 C700 1.398 . S
C697 H712 0.930 . S
C698 C696 1.380 . S
C698 C699 1.391 . S
C698 H713 0.930 . S
C699 C698 1.391 . S
C699 C701 1.387 . S
C700 C697 1.398 . S
C700 C701 1.380 . S
C700 H714 0.930 . S
C701 C699 1.387 . S
C701 C700 1.380 . S
C701 H715 0.930 . S
C702 O682 1.254 . S
C702 O683 1.268 . S
C703 O687 1.284 . S
C703 O690 1.250 . S
C704 Gd637 2.828 . S
C704 O686 1.258 . S
C704 O691 1.252 . S
C704 C705 1.497 . S
C705 C704 1.497 . S
C705 C706 1.395 . S
C705 C707 1.380 . S
C706 C705 1.395 . S
C706 C709 1.398 . S
C706 H716 0.930 . S
C707 C705 1.380 . S
C707 C708 1.391 . S
C707 H717 0.930 . S
C708 C707 1.391 . S
C708 C710 1.387 . S
C709 C706 1.398 . S
C709 C710 1.380 . S
C709 H718 0.930 . S
C710 C708 1.387 . S
C710 C709 1.380 . S
C710 H719 0.930 . S
C711 O688 1.254 . S
C711 O689 1.268 . S
H712 C697 0.930 . S
H713 C698 0.930 . S
H714 C700 0.930 . S
H715 C701 0.930 . S
H716 C706 0.930 . S
H717 C707 0.930 . S
H718 C709 0.930 . S
H719 C710 0.930 . S
Gd720 N751 2.661 . S
Gd720 N757 2.601 . S
Gd720 O764 2.545 . S
Gd720 O765 2.606 . S
Gd720 O767 2.429 . S
Gd720 O768 2.545 . S
Gd720 O769 2.412 . S
Gd720 O771 2.362 . S
Gd720 O772 2.324 . S
Gd720 C779 2.828 . S
Gd721 N730 2.661 . S
Gd721 N734 2.601 . S
Gd721 O765 2.362 . S
Gd721 O766 2.324 . S
Gd721 O770 2.545 . S
Gd721 O771 2.606 . S
Gd721 O773 2.429 . S
Gd721 O774 2.545 . S
Gd721 O775 2.412 . S
Gd721 C788 2.828 . S
C722 C725 1.417 . S
C722 C727 1.431 . S
C722 C728 1.412 . S
C723 C726 1.437 . S
C723 C727 1.317 . S
C723 H742 0.929 . S
C724 C725 1.426 . S
C724 C726 1.413 . S
C724 N734 1.359 . S
C725 C722 1.417 . S
C725 C724 1.426 . S
C725 N730 1.350 . S
C726 C723 1.437 . S
C726 C724 1.413 . S
C726 C736 1.391 . S
C727 C722 1.431 . S
C727 C723 1.317 . S
C727 H738 0.930 . S
C728 C722 1.412 . S
C728 C729 1.355 . S
C728 H740 0.930 . S
C729 C728 1.355 . S
C729 C731 1.402 . S
C729 H741 0.930 . S
N730 Gd721 2.661 . S
N730 C725 1.350 . S
N730 C731 1.307 . S
C731 C729 1.402 . S
C731 N730 1.307 . S
C731 H732 0.930 . S
H732 C731 0.930 . S
C733 N734 1.334 . S
C733 C735 1.394 . S
C733 H737 0.930 . S
N734 Gd721 2.601 . S
N734 C724 1.359 . S
N734 C733 1.334 . S
C735 C733 1.394 . S
C735 C736 1.359 . S
C735 H747 0.930 . S
C736 C726 1.391 . S
C736 C735 1.359 . S
C736 H748 0.929 . S
H737 C733 0.930 . S
H738 C727 0.930 . S
H739 C756 0.930 . S
H740 C728 0.930 . S
H741 C729 0.930 . S
H742 C723 0.929 . S
H743 C761 0.930 . S
H744 C752 0.930 . S
H745 C753 0.930 . S
H746 C777 0.929 . S
H747 C735 0.930 . S
H748 C736 0.929 . S
H749 C778 0.930 . S
H750 C759 0.930 . S
N751 Gd720 2.661 . S
N751 C755 1.350 . S
N751 C756 1.307 . S
C752 H744 0.930 . S
C752 C753 1.355 . S
C752 C754 1.412 . S
C753 H745 0.930 . S
C753 C752 1.355 . S
C753 C756 1.402 . S
C754 C752 1.412 . S
C754 C755 1.417 . S
C754 C778 1.431 . S
C755 N751 1.350 . S
C755 C754 1.417 . S
C755 C758 1.426 . S
C756 H739 0.930 . S
C756 N751 1.307 . S
C756 C753 1.402 . S
N757 Gd720 2.601 . S
N757 C758 1.359 . S
N757 C761 1.334 . S
C758 C755 1.426 . S
C758 N757 1.359 . S
C758 C762 1.413 . S
C759 H750 0.930 . S
C759 C760 1.359 . S
C759 C761 1.394 . S
C760 C759 1.359 . S
C760 C762 1.391 . S
C760 H763 0.929 . S
C761 H743 0.930 . S
C761 N757 1.334 . S
C761 C759 1.394 . S
C762 C758 1.413 . S
C762 C760 1.391 . S
C762 C777 1.437 . S
H763 C760 0.929 . S
O764 Gd720 2.545 . S
O764 C779 1.258 . S
O765 Gd720 2.606 . S
O765 Gd721 2.362 . S
O765 C776 1.284 . S
O766 Gd721 2.324 . S
O766 C786 1.254 . S
O767 Gd720 2.429 . S
O767 C786 1.268 . S
O768 Gd720 2.545 . S
O768 C776 1.250 . S
O769 Gd720 2.412 . S
O769 C779 1.252 . S
O770 Gd721 2.545 . S
O770 C788 1.258 . S
O771 Gd720 2.362 . S
O771 Gd721 2.606 . S
O771 C787 1.284 . S
O772 Gd720 2.324 . S
O772 C795 1.254 . S
O773 Gd721 2.429 . S
O773 C795 1.268 . S
O774 Gd721 2.545 . S
O774 C787 1.250 . S
O775 Gd721 2.412 . S
O775 C788 1.252 . S
C776 O765 1.284 . S
C776 O768 1.250 . S
C777 H746 0.929 . S
C777 C762 1.437 . S
C777 C778 1.317 . S
C778 H749 0.930 . S
C778 C754 1.431 . S
C778 C777 1.317 . S
C779 Gd720 2.828 . S
C779 O764 1.258 . S
C779 O769 1.252 . S
C779 C780 1.497 . S
C780 C779 1.497 . S
C780 C781 1.395 . S
C780 C782 1.380 . S
C781 C780 1.395 . S
C781 C784 1.398 . S
C781 H796 0.930 . S
C782 C780 1.380 . S
C782 C783 1.391 . S
C782 H797 0.930 . S
C783 C782 1.391 . S
C783 C785 1.387 . S
C784 C781 1.398 . S
C784 C785 1.380 . S
C784 H798 0.930 . S
C785 C783 1.387 . S
C785 C784 1.380 . S
C785 H799 0.930 . S
C786 O766 1.254 . S
C786 O767 1.268 . S
C787 O771 1.284 . S
C787 O774 1.250 . S
C788 Gd721 2.828 . S
C788 O770 1.258 . S
C788 O775 1.252 . S
C788 C789 1.497 . S
C789 C788 1.497 . S
C789 C790 1.395 . S
C789 C791 1.380 . S
C790 C789 1.395 . S
C790 C793 1.398 . S
C790 H800 0.930 . S
C791 C789 1.380 . S
C791 C792 1.391 . S
C791 H801 0.930 . S
C792 C791 1.391 . S
C792 C794 1.387 . S
C793 C790 1.398 . S
C793 C794 1.380 . S
C793 H802 0.930 . S
C794 C792 1.387 . S
C794 C793 1.380 . S
C794 H803 0.930 . S
C795 O772 1.254 . S
C795 O773 1.268 . S
H796 C781 0.930 . S
H797 C782 0.930 . S
H798 C784 0.930 . S
H799 C785 0.930 . S
H800 C790 0.930 . S
H801 C791 0.930 . S
H802 C793 0.930 . S
H803 C794 0.930 . S
Gd804 N835 2.661 . S
Gd804 N841 2.601 . S
Gd804 O848 2.545 . S
Gd804 O849 2.606 . S
Gd804 O851 2.429 . S
Gd804 O852 2.545 . S
Gd804 O853 2.412 . S
Gd804 O855 2.362 . S
Gd804 O856 2.324 . S
Gd804 C863 2.828 . S
Gd805 N814 2.661 . S
Gd805 N818 2.601 . S
Gd805 O849 2.362 . S
Gd805 O850 2.324 . S
Gd805 O854 2.545 . S
Gd805 O855 2.606 . S
Gd805 O857 2.429 . S
Gd805 O858 2.545 . S
Gd805 O859 2.412 . S
Gd805 C872 2.828 . S
C806 C809 1.417 . S
C806 C811 1.431 . S
C806 C812 1.412 . S
C807 C810 1.437 . S
C807 C811 1.317 . S
C807 H826 0.929 . S
C808 C809 1.426 . S
C808 C810 1.413 . S
C808 N818 1.359 . S
C809 C806 1.417 . S
C809 C808 1.426 . S
C809 N814 1.350 . S
C810 C807 1.437 . S
C810 C808 1.413 . S
C810 C820 1.391 . S
C811 C806 1.431 . S
C811 C807 1.317 . S
C811 H822 0.930 . S
C812 C806 1.412 . S
C812 C813 1.355 . S
C812 H824 0.930 . S
C813 C812 1.355 . S
C813 C815 1.402 . S
C813 H825 0.930 . S
N814 Gd805 2.661 . S
N814 C809 1.350 . S
N814 C815 1.307 . S
C815 C813 1.402 . S
C815 N814 1.307 . S
C815 H816 0.930 . S
H816 C815 0.930 . S
C817 N818 1.334 . S
C817 C819 1.394 . S
C817 H821 0.930 . S
N818 Gd805 2.601 . S
N818 C808 1.359 . S
N818 C817 1.334 . S
C819 C817 1.394 . S
C819 C820 1.359 . S
C819 H831 0.930 . S
C820 C810 1.391 . S
C820 C819 1.359 . S
C820 H832 0.929 . S
H821 C817 0.930 . S
H822 C811 0.930 . S
H823 C840 0.930 . S
H824 C812 0.930 . S
H825 C813 0.930 . S
H826 C807 0.929 . S
H827 C845 0.930 . S
H828 C836 0.930 . S
H829 C837 0.930 . S
H830 C861 0.929 . S
H831 C819 0.930 . S
H832 C820 0.929 . S
H833 C862 0.930 . S
H834 C843 0.930 . S
N835 Gd804 2.661 . S
N835 C839 1.350 . S
N835 C840 1.307 . S
C836 H828 0.930 . S
C836 C837 1.355 . S
C836 C838 1.412 . S
C837 H829 0.930 . S
C837 C836 1.355 . S
C837 C840 1.402 . S
C838 C836 1.412 . S
C838 C839 1.417 . S
C838 C862 1.431 . S
C839 N835 1.350 . S
C839 C838 1.417 . S
C839 C842 1.426 . S
C840 H823 0.930 . S
C840 N835 1.307 . S
C840 C837 1.402 . S
N841 Gd804 2.601 . S
N841 C842 1.359 . S
N841 C845 1.334 . S
C842 C839 1.426 . S
C842 N841 1.359 . S
C842 C846 1.413 . S
C843 H834 0.930 . S
C843 C844 1.359 . S
C843 C845 1.394 . S
C844 C843 1.359 . S
C844 C846 1.391 . S
C844 H847 0.929 . S
C845 H827 0.930 . S
C845 N841 1.334 . S
C845 C843 1.394 . S
C846 C842 1.413 . S
C846 C844 1.391 . S
C846 C861 1.437 . S
H847 C844 0.929 . S
O848 Gd804 2.545 . S
O848 C863 1.258 . S
O849 Gd804 2.606 . S
O849 Gd805 2.362 . S
O849 C860 1.284 . S
O850 Gd805 2.324 . S
O850 C870 1.254 . S
O851 Gd804 2.429 . S
O851 C870 1.268 . S
O852 Gd804 2.545 . S
O852 C860 1.250 . S
O853 Gd804 2.412 . S
O853 C863 1.252 . S
O854 Gd805 2.545 . S
O854 C872 1.258 . S
O855 Gd804 2.362 . S
O855 Gd805 2.606 . S
O855 C871 1.284 . S
O856 Gd804 2.324 . S
O856 C879 1.254 . S
O857 Gd805 2.429 . S
O857 C879 1.268 . S
O858 Gd805 2.545 . S
O858 C871 1.250 . S
O859 Gd805 2.412 . S
O859 C872 1.252 . S
C860 O849 1.284 . S
C860 O852 1.250 . S
C861 H830 0.929 . S
C861 C846 1.437 . S
C861 C862 1.317 . S
C862 H833 0.930 . S
C862 C838 1.431 . S
C862 C861 1.317 . S
C863 Gd804 2.828 . S
C863 O848 1.258 . S
C863 O853 1.252 . S
C863 C864 1.497 . S
C864 C863 1.497 . S
C864 C865 1.395 . S
C864 C866 1.380 . S
C865 C864 1.395 . S
C865 C868 1.398 . S
C865 H880 0.930 . S
C866 C864 1.380 . S
C866 C867 1.391 . S
C866 H881 0.930 . S
C867 C866 1.391 . S
C867 C869 1.387 . S
C868 C865 1.398 . S
C868 C869 1.380 . S
C868 H882 0.930 . S
C869 C867 1.387 . S
C869 C868 1.380 . S
C869 H883 0.930 . S
C870 O850 1.254 . S
C870 O851 1.268 . S
C871 O855 1.284 . S
C871 O858 1.250 . S
C872 Gd805 2.828 . S
C872 O854 1.258 . S
C872 O859 1.252 . S
C872 C873 1.497 . S
C873 C872 1.497 . S
C873 C874 1.395 . S
C873 C875 1.380 . S
C874 C873 1.395 . S
C874 C877 1.398 . S
C874 H884 0.930 . S
C875 C873 1.380 . S
C875 C876 1.391 . S
C875 H885 0.930 . S
C876 C875 1.391 . S
C876 C878 1.387 . S
C877 C874 1.398 . S
C877 C878 1.380 . S
C877 H886 0.930 . S
C878 C876 1.387 . S
C878 C877 1.380 . S
C878 H887 0.930 . S
C879 O856 1.254 . S
C879 O857 1.268 . S
H880 C865 0.930 . S
H881 C866 0.930 . S
H882 C868 0.930 . S
H883 C869 0.930 . S
H884 C874 0.930 . S
H885 C875 0.930 . S
H886 C877 0.930 . S
H887 C878 0.930 . S
Gd888 N919 2.661 . S
Gd888 N925 2.601 . S
Gd888 O932 2.545 . S
Gd888 O933 2.606 . S
Gd888 O935 2.429 . S
Gd888 O936 2.545 . S
Gd888 O937 2.412 . S
Gd888 O939 2.362 . S
Gd888 O940 2.324 . S
Gd888 C947 2.828 . S
Gd889 N898 2.661 . S
Gd889 N902 2.601 . S
Gd889 O933 2.362 . S
Gd889 O934 2.324 . S
Gd889 O938 2.545 . S
Gd889 O939 2.606 . S
Gd889 O941 2.429 . S
Gd889 O942 2.545 . S
Gd889 O943 2.412 . S
Gd889 C956 2.828 . S
C890 C893 1.417 1_455 S
C890 C895 1.431 . S
C890 C896 1.412 . S
C891 C894 1.437 1_455 S
C891 C895 1.317 . S
C891 H910 0.929 . S
C892 C893 1.426 . S
C892 C894 1.413 . S
C892 N902 1.359 . S
C893 C890 1.417 1_655 S
C893 C892 1.426 . S
C893 N898 1.350 . S
C894 C891 1.437 1_655 S
C894 C892 1.413 . S
C894 C904 1.391 . S
C895 C890 1.431 . S
C895 C891 1.317 . S
C895 H906 0.930 . S
C896 C890 1.412 . S
C896 C897 1.355 . S
C896 H908 0.930 . S
C897 C896 1.355 . S
C897 C899 1.402 1_455 S
C897 H909 0.930 . S
N898 Gd889 2.661 . S
N898 C893 1.350 . S
N898 C899 1.307 . S
C899 C897 1.402 1_655 S
C899 N898 1.307 . S
C899 H900 0.930 . S
H900 C899 0.930 . S
C901 N902 1.334 . S
C901 C903 1.394 . S
C901 H905 0.930 . S
N902 Gd889 2.601 . S
N902 C892 1.359 . S
N902 C901 1.334 . S
C903 C901 1.394 . S
C903 C904 1.359 . S
C903 H915 0.930 . S
C904 C894 1.391 . S
C904 C903 1.359 . S
C904 H916 0.929 . S
H905 C901 0.930 . S
H906 C895 0.930 . S
H907 C924 0.930 . S
H908 C896 0.930 . S
H909 C897 0.930 . S
H910 C891 0.929 . S
H911 C929 0.930 . S
H912 C920 0.930 . S
H913 C921 0.930 . S
H914 C945 0.929 . S
H915 C903 0.930 . S
H916 C904 0.929 . S
H917 C946 0.930 . S
H918 C927 0.930 . S
N919 Gd888 2.661 . S
N919 C923 1.350 . S
N919 C924 1.307 . S
C920 H912 0.930 . S
C920 C921 1.355 . S
C920 C922 1.412 . S
C921 H913 0.930 . S
C921 C920 1.355 . S
C921 C924 1.402 . S
C922 C920 1.412 . S
C922 C923 1.417 . S
C922 C946 1.431 . S
C923 N919 1.350 . S
C923 C922 1.417 . S
C923 C926 1.426 . S
C924 H907 0.930 . S
C924 N919 1.307 . S
C924 C921 1.402 . S
N925 Gd888 2.601 . S
N925 C926 1.359 . S
N925 C929 1.334 . S
C926 C923 1.426 . S
C926 N925 1.359 . S
C926 C930 1.413 . S
C927 H918 0.930 . S
C927 C928 1.359 . S
C927 C929 1.394 . S
C928 C927 1.359 . S
C928 C930 1.391 . S
C928 H931 0.929 . S
C929 H911 0.930 . S
C929 N925 1.334 . S
C929 C927 1.394 . S
C930 C926 1.413 . S
C930 C928 1.391 . S
C930 C945 1.437 . S
H931 C928 0.929 . S
O932 Gd888 2.545 . S
O932 C947 1.258 . S
O933 Gd888 2.606 . S
O933 Gd889 2.362 . S
O933 C944 1.284 . S
O934 Gd889 2.324 . S
O934 C954 1.254 . S
O935 Gd888 2.429 . S
O935 C954 1.268 . S
O936 Gd888 2.545 . S
O936 C944 1.250 . S
O937 Gd888 2.412 . S
O937 C947 1.252 . S
O938 Gd889 2.545 . S
O938 C956 1.258 . S
O939 Gd888 2.362 . S
O939 Gd889 2.606 . S
O939 C955 1.284 . S
O940 Gd888 2.324 . S
O940 C963 1.254 . S
O941 Gd889 2.429 . S
O941 C963 1.268 . S
O942 Gd889 2.545 . S
O942 C955 1.250 . S
O943 Gd889 2.412 . S
O943 C956 1.252 . S
C944 O933 1.284 . S
C944 O936 1.250 . S
C945 H914 0.929 . S
C945 C930 1.437 . S
C945 C946 1.317 . S
C946 H917 0.930 . S
C946 C922 1.431 . S
C946 C945 1.317 . S
C947 Gd888 2.828 . S
C947 O932 1.258 . S
C947 O937 1.252 . S
C947 C948 1.497 . S
C948 C947 1.497 . S
C948 C949 1.395 . S
C948 C950 1.380 . S
C949 C948 1.395 . S
C949 C952 1.398 . S
C949 H964 0.930 . S
C950 C948 1.380 . S
C950 C951 1.391 . S
C950 H965 0.930 . S
C951 C950 1.391 . S
C951 C953 1.387 . S
C952 C949 1.398 . S
C952 C953 1.380 . S
C952 H966 0.930 . S
C953 C951 1.387 . S
C953 C952 1.380 . S
C953 H967 0.930 . S
C954 O934 1.254 . S
C954 O935 1.268 . S
C955 O939 1.284 . S
C955 O942 1.250 . S
C956 Gd889 2.828 . S
C956 O938 1.258 . S
C956 O943 1.252 . S
C956 C957 1.497 . S
C957 C956 1.497 . S
C957 C958 1.395 . S
C957 C959 1.380 . S
C958 C957 1.395 . S
C958 C961 1.398 . S
C958 H968 0.930 . S
C959 C957 1.380 . S
C959 C960 1.391 . S
C959 H969 0.930 . S
C960 C959 1.391 . S
C960 C962 1.387 . S
C961 C958 1.398 . S
C961 C962 1.380 . S
C961 H970 0.930 . S
C962 C960 1.387 . S
C962 C961 1.380 . S
C962 H971 0.930 . S
C963 O940 1.254 . S
C963 O941 1.268 . S
H964 C949 0.930 . S
H965 C950 0.930 . S
H966 C952 0.930 . S
H967 C953 0.930 . S
H968 C958 0.930 . S
H969 C959 0.930 . S
H970 C961 0.930 . S
H971 C962 0.930 . S
C972 C973 1.369 . S
C972 C974 1.419 . S
C972 H976 0.930 . S
C973 C972 1.369 . S
C973 C982 1.429 . S
C974 C972 1.419 . S
C974 C975 1.363 . S
C974 H977 0.929 . S
C975 C974 1.363 . S
C975 C981 1.428 . S
H976 C972 0.930 . S
H977 C974 0.929 . S
S978 N979 1.613 . S
S978 N980 1.610 . S
N979 S978 1.613 . S
N979 C982 1.350 . S
N980 S978 1.610 . S
N980 C981 1.351 . S
C981 C975 1.428 . S
C981 N980 1.351 . S
C981 C982 1.434 . S
C982 C973 1.429 . S
C982 N979 1.350 . S
C982 C981 1.434 . S
C983 C984 1.369 . S
C983 C985 1.419 . S
C983 H987 0.930 . S
C984 C983 1.369 . S
C984 C993 1.429 . S
C985 C983 1.419 . S
C985 C986 1.363 . S
C985 H988 0.929 . S
C986 C985 1.363 . S
C986 C992 1.428 . S
H987 C983 0.930 . S
H988 C985 0.929 . S
S989 N990 1.613 1_556 S
S989 N991 1.610 . S
N990 S989 1.613 1_554 S
N990 C993 1.350 . S
N991 S989 1.610 . S
N991 C992 1.351 1_556 S
C992 C986 1.428 . S
C992 N991 1.351 1_554 S
C992 C993 1.434 . S
C993 C984 1.429 . S
C993 N990 1.350 . S
C993 C992 1.434 . S
C994 C995 1.369 . S
C994 C996 1.419 . S
C994 H998 0.930 . S
C995 C994 1.369 . S
C995 C1004 1.429 . S
C996 C994 1.419 . S
C996 C997 1.363 . S
C996 H999 0.929 . S
C997 C996 1.363 . S
C997 C1003 1.428 . S
H998 C994 0.930 . S
H999 C996 0.929 . S
S1000 N1001 1.613 . S
S1000 N1002 1.610 . S
N1001 S1000 1.613 . S
N1001 C1004 1.350 . S
N1002 S1000 1.610 . S
N1002 C1003 1.351 . S
C1003 C997 1.428 . S
C1003 N1002 1.351 . S
C1003 C1004 1.434 . S
C1004 C995 1.429 . S
C1004 N1001 1.350 . S
C1004 C1003 1.434 . S
C1005 C1006 1.369 . S
C1005 C1007 1.419 . S
C1005 H1009 0.930 . S
C1006 C1005 1.369 . S
C1006 C1015 1.429 . S
C1007 C1005 1.419 . S
C1007 C1008 1.363 . S
C1007 H1010 0.929 . S
C1008 C1007 1.363 . S
C1008 C1014 1.428 1_556 S
H1009 C1005 0.930 . S
H1010 C1007 0.929 . S
S1011 N1012 1.613 . S
S1011 N1013 1.610 . S
N1012 S1011 1.613 . S
N1012 C1015 1.350 1_554 S
N1013 S1011 1.610 . S
N1013 C1014 1.351 . S
C1014 C1008 1.428 1_554 S
C1014 N1013 1.351 . S
C1014 C1015 1.434 1_554 S
C1015 C1006 1.429 . S
C1015 N1012 1.350 1_556 S
C1015 C1014 1.434 1_556 S
C1016 C1017 1.369 . S
C1016 C1018 1.419 . S
C1016 H1020 0.930 . S
C1017 C1016 1.369 . S
C1017 C1026 1.429 . S
C1018 C1016 1.419 . S
C1018 C1019 1.363 . S
C1018 H1021 0.929 . S
C1019 C1018 1.363 . S
C1019 C1025 1.428 . S
H1020 C1016 0.930 . S
H1021 C1018 0.929 . S
S1022 N1023 1.594 1_554 S
S1022 N1024 1.610 . S
N1023 S1022 1.594 1_556 S
N1023 C1026 1.364 . S
N1024 S1022 1.610 . S
N1024 C1025 1.351 1_554 S
C1025 C1019 1.428 . S
C1025 N1024 1.351 1_556 S
C1025 C1026 1.434 . S
C1026 C1017 1.429 . S
C1026 N1023 1.364 . S
C1026 C1025 1.434 . S
C1027 C1028 1.369 . S
C1027 C1029 1.419 . S
C1027 H1031 0.930 . S
C1028 C1027 1.369 . S
C1028 C1037 1.429 . S
C1029 C1027 1.419 . S
C1029 C1030 1.363 . S
C1029 H1032 0.929 . S
C1030 C1029 1.363 . S
C1030 C1036 1.428 . S
H1031 C1027 0.930 . S
H1032 C1029 0.929 . S
S1033 N1034 1.613 . S
S1033 N1035 1.610 . S
N1034 S1033 1.613 . S
N1034 C1037 1.350 . S
N1035 S1033 1.610 . S
N1035 C1036 1.351 . S
C1036 C1030 1.428 . S
C1036 N1035 1.351 . S
C1036 C1037 1.434 . S
C1037 C1028 1.429 . S
C1037 N1034 1.350 . S
C1037 C1036 1.434 . S
C1038 C1039 1.369 . S
C1038 C1040 1.419 1_556 S
C1038 H1042 0.930 1_556 S
C1039 C1038 1.369 . S
C1039 C1048 1.429 . S
C1040 C1038 1.419 1_554 S
C1040 C1041 1.363 1_554 S
C1040 H1043 0.929 . S
C1041 C1040 1.363 1_556 S
C1041 C1047 1.428 . S
H1042 C1038 0.930 1_554 S
H1043 C1040 0.929 . S
S1044 N1045 1.613 . S
S1044 N1046 1.610 . S
N1045 S1044 1.613 . S
N1045 C1048 1.350 . S
N1046 S1044 1.610 . S
N1046 C1047 1.351 . S
C1047 C1041 1.428 . S
C1047 N1046 1.351 . S
C1047 C1048 1.434 . S
C1048 C1039 1.429 . S
C1048 N1045 1.350 . S
C1048 C1047 1.434 . S
C1049 C1050 1.369 . S
C1049 C1051 1.419 . S
C1049 H1053 0.930 . S
C1050 C1049 1.369 . S
C1050 C1059 1.429 . S
C1051 C1049 1.419 . S
C1051 C1052 1.363 . S
C1051 H1054 0.929 . S
C1052 C1051 1.363 . S
C1052 C1058 1.428 . S
H1053 C1049 0.930 . S
H1054 C1051 0.929 . S
S1055 N1056 1.613 . S
S1055 N1057 1.610 . S
N1056 S1055 1.613 . S
N1056 C1059 1.350 1_554 S
N1057 S1055 1.610 . S
N1057 C1058 1.351 1_554 S
C1058 C1052 1.428 . S
C1058 N1057 1.351 1_556 S
C1058 C1059 1.434 . S
C1059 C1050 1.429 . S
C1059 N1056 1.350 1_556 S
C1059 C1058 1.434 . S
C1060 C1061 1.369 . S
C1060 C1062 1.419 . S
C1060 H1064 0.930 . S
C1061 C1060 1.369 . S
C1061 C1070 1.429 . S
C1062 C1060 1.419 . S
C1062 C1063 1.363 . S
C1062 H1065 0.917 1_556 S
C1063 C1062 1.363 . S
C1063 C1069 1.428 . S
H1064 C1060 0.930 . S
H1065 C1062 0.917 1_554 S
S1066 N1067 1.613 . S
S1066 N1068 1.610 . S
N1067 S1066 1.613 . S
N1067 C1070 1.350 . S
N1068 S1066 1.610 . S
N1068 C1069 1.351 . S
C1069 C1063 1.428 . S
C1069 N1068 1.351 . S
C1069 C1070 1.434 . S
C1070 C1061 1.429 . S
C1070 N1067 1.350 . S
C1070 C1069 1.434 . S
C1071 C1072 1.369 . S
C1071 C1073 1.419 . S
C1071 H1075 0.930 . S
C1072 C1071 1.369 . S
C1072 C1081 1.429 . S
C1073 C1071 1.419 . S
C1073 C1074 1.363 . S
C1073 H1076 0.929 1_554 S
C1074 C1073 1.363 . S
C1074 C1080 1.428 . S
H1075 C1071 0.930 . S
H1076 C1073 0.929 1_556 S
S1077 N1078 1.613 . S
S1077 N1079 1.610 . S
N1078 S1077 1.613 . S
N1078 C1081 1.350 . S
N1079 S1077 1.610 . S
N1079 C1080 1.351 . S
C1080 C1074 1.428 . S
C1080 N1079 1.351 . S
C1080 C1081 1.434 . S
C1081 C1072 1.429 . S
C1081 N1078 1.350 . S
C1081 C1080 1.434 . S
C1082 C1083 1.369 . S
C1082 C1084 1.419 . S
C1082 H1086 0.930 . S
C1083 C1082 1.369 . S
C1083 C1092 1.429 . S
C1084 C1082 1.419 . S
C1084 C1085 1.363 . S
C1084 H1087 0.929 . S
C1085 C1084 1.363 . S
C1085 C1091 1.428 . S
H1086 C1082 0.930 . S
H1087 C1084 0.929 . S
S1088 N1089 1.613 . S
S1088 N1090 1.610 . S
N1089 S1088 1.613 . S
N1089 C1092 1.350 . S
N1090 S1088 1.610 . S
N1090 C1091 1.351 . S
C1091 C1085 1.428 . S
C1091 N1090 1.351 . S
C1091 C1092 1.434 . S
C1092 C1083 1.429 . S
C1092 N1089 1.350 . S
C1092 C1091 1.434 . S
C1093 C1094 1.369 . S
C1093 C1095 1.419 . S
C1093 H1097 0.930 . S
C1094 C1093 1.369 . S
C1094 C1103 1.429 . S
C1095 C1093 1.419 . S
C1095 C1096 1.363 . S
C1095 H1098 0.929 . S
C1096 C1095 1.363 . S
C1096 C1102 1.428 . S
H1097 C1093 0.930 . S
H1098 C1095 0.929 . S
S1099 N1100 1.613 . S
S1099 N1101 1.610 . S
N1100 S1099 1.613 . S
N1100 C1103 1.350 1_556 S
N1101 S1099 1.610 . S
N1101 C1102 1.351 1_556 S
C1102 C1096 1.428 . S
C1102 N1101 1.351 1_554 S
C1102 C1103 1.434 . S
C1103 C1094 1.429 . S
C1103 N1100 1.350 1_554 S
C1103 C1102 1.434 . S
C1104 C1105 1.369 . S
C1104 C1106 1.419 1_655 S
C1104 H1108 0.930 . S
C1105 C1104 1.369 . S
C1105 C1114 1.429 . S
C1106 C1104 1.419 1_455 S
C1106 C1107 1.363 . S
C1106 H1109 0.929 . S
C1107 C1106 1.363 . S
C1107 C1113 1.428 . S
H1108 C1104 0.930 . S
H1109 C1106 0.929 . S
S1110 N1111 1.613 . S
S1110 N1112 1.610 1_655 S
N1111 S1110 1.613 . S
N1111 C1114 1.350 . S
N1112 S1110 1.610 1_455 S
N1112 C1113 1.351 . S
C1113 C1107 1.428 . S
C1113 N1112 1.351 . S
C1113 C1114 1.434 1_455 S
C1114 C1105 1.429 . S
C1114 N1111 1.350 . S
C1114 C1113 1.434 1_655 S
C1115 C1116 1.369 . S
C1115 C1117 1.419 . S
C1115 H1119 0.930 . S
C1116 C1115 1.369 . S
C1116 C1125 1.429 . S
C1117 C1115 1.419 . S
C1117 C1118 1.363 . S
C1117 H1120 0.929 . S
C1118 C1117 1.363 . S
C1118 C1124 1.428 . S
H1119 C1115 0.930 . S
H1120 C1117 0.929 . S
S1121 N1122 1.613 . S
S1121 N1123 1.610 . S
N1122 S1121 1.613 . S
N1122 C1125 1.350 . S
N1123 S1121 1.610 . S
N1123 C1124 1.351 . S
C1124 C1118 1.428 . S
C1124 N1123 1.351 . S
C1124 C1125 1.434 . S
C1125 C1116 1.429 . S
C1125 N1122 1.350 . S
C1125 C1124 1.434 . S
C1126 C1127 1.369 . S
C1126 C1128 1.419 . S
C1126 H1130 0.930 . S
C1127 C1126 1.369 . S
C1127 C1136 1.429 . S
C1128 C1126 1.419 . S
C1128 C1129 1.363 1_545 S
C1128 H1131 0.929 . S
C1129 C1128 1.363 1_565 S
C1129 C1135 1.428 . S
H1130 C1126 0.930 . S
H1131 C1128 0.929 . S
S1132 N1133 1.613 1_565 S
S1132 N1134 1.610 . S
N1133 S1132 1.613 1_545 S
N1133 C1136 1.350 . S
N1134 S1132 1.610 . S
N1134 C1135 1.351 . S
C1135 C1129 1.428 . S
C1135 N1134 1.351 . S
C1135 C1136 1.434 1_565 S
C1136 C1127 1.429 . S
C1136 N1133 1.350 . S
C1136 C1135 1.434 1_545 S
C1137 C1138 1.369 . S
C1137 C1139 1.419 . S
C1137 H1141 0.930 . S
C1138 C1137 1.369 . S
C1138 C1147 1.429 . S
C1139 C1137 1.419 . S
C1139 C1140 1.363 . S
C1139 H1142 0.929 . S
C1140 C1139 1.363 . S
C1140 C1146 1.428 . S
H1141 C1137 0.930 . S
H1142 C1139 0.929 . S
S1143 N1144 1.613 . S
S1143 N1145 1.610 . S
N1144 S1143 1.613 . S
N1144 C1147 1.350 . S
N1145 S1143 1.610 . S
N1145 C1146 1.351 . S
C1146 C1140 1.428 . S
C1146 N1145 1.351 . S
C1146 C1147 1.434 . S
C1147 C1138 1.429 . S
C1147 N1144 1.350 . S
C1147 C1146 1.434 . S
C1148 C1149 1.369 . S
C1148 C1150 1.419 . S
C1148 H1152 0.930 . S
C1149 C1148 1.369 . S
C1149 C1158 1.429 . S
C1150 C1148 1.419 . S
C1150 C1151 1.363 . S
C1150 H1153 0.929 . S
C1151 C1150 1.363 . S
C1151 C1157 1.428 . S
H1152 C1148 0.930 . S
H1153 C1150 0.929 . S
S1154 N1155 1.613 . S
S1154 N1156 1.610 . S
N1155 S1154 1.613 . S
N1155 C1158 1.350 . S
N1156 S1154 1.610 . S
N1156 C1157 1.351 . S
C1157 C1151 1.428 . S
C1157 N1156 1.351 . S
C1157 C1158 1.434 . S
C1158 C1149 1.429 . S
C1158 N1155 1.350 . S
C1158 C1157 1.434 . S
C1159 C1160 1.369 . S
C1159 C1161 1.419 . S
C1159 H1163 0.930 . S
C1160 C1159 1.369 . S
C1160 C1169 1.429 . S
C1161 C1159 1.419 . S
C1161 C1162 1.363 . S
C1161 H1164 0.929 . S
C1162 C1161 1.363 . S
C1162 C1168 1.428 . S
H1163 C1159 0.930 . S
H1164 C1161 0.929 . S
S1165 N1166 1.613 . S
S1165 N1167 1.610 . S
N1166 S1165 1.613 . S
N1166 C1169 1.350 . S
N1167 S1165 1.610 . S
N1167 C1168 1.351 . S
C1168 C1162 1.428 . S
C1168 N1167 1.351 . S
C1168 C1169 1.434 . S
C1169 C1160 1.429 . S
C1169 N1166 1.350 . S
C1169 C1168 1.434 . S
C1170 C1171 1.369 . S
C1170 C1172 1.419 . S
C1170 H1174 0.930 . S
C1171 C1170 1.369 . S
C1171 C1180 1.429 . S
C1172 C1170 1.419 . S
C1172 C1173 1.363 . S
C1172 H1175 0.929 . S
C1173 C1172 1.363 . S
C1173 C1179 1.428 . S
H1174 C1170 0.930 . S
H1175 C1172 0.929 . S
S1176 N1177 1.613 . S
S1176 N1178 1.610 . S
N1177 S1176 1.613 . S
N1177 C1180 1.350 . S
N1178 S1176 1.610 . S
N1178 C1179 1.351 . S
C1179 C1173 1.428 . S
C1179 N1178 1.351 . S
C1179 C1180 1.434 . S
C1180 C1171 1.429 . S
C1180 N1177 1.350 . S
C1180 C1179 1.434 . S
C1181 C1182 1.369 . S
C1181 C1183 1.419 . S
C1181 H1185 0.930 . S
C1182 C1181 1.369 . S
C1182 C1191 1.429 . S
C1183 C1181 1.419 . S
C1183 C1184 1.363 . S
C1183 H1186 0.929 . S
C1184 C1183 1.363 . S
C1184 C1190 1.428 . S
H1185 C1181 0.930 . S
H1186 C1183 0.929 . S
S1187 N1188 1.613 . S
S1187 N1189 1.610 . S
N1188 S1187 1.613 . S
N1188 C1191 1.350 . S
N1189 S1187 1.610 . S
N1189 C1190 1.351 . S
C1190 C1184 1.428 . S
C1190 N1189 1.351 . S
C1190 C1191 1.434 . S
C1191 C1182 1.429 . S
C1191 N1188 1.350 . S
C1191 C1190 1.434 . S
C1192 C1193 1.369 . S
C1192 C1194 1.419 . S
C1192 H1196 0.930 . S
C1193 C1192 1.369 . S
C1193 C1202 1.429 . S
C1194 C1192 1.419 . S
C1194 C1195 1.363 . S
C1194 H1197 0.929 . S
C1195 C1194 1.363 . S
C1195 C1201 1.428 . S
H1196 C1192 0.930 . S
H1197 C1194 0.929 . S
S1198 N1199 1.613 . S
S1198 N1200 1.610 . S
N1199 S1198 1.613 . S
N1199 C1202 1.350 . S
N1200 S1198 1.610 . S
N1200 C1201 1.351 . S
C1201 C1195 1.428 . S
C1201 N1200 1.351 . S
C1201 C1202 1.434 . S
C1202 C1193 1.429 . S
C1202 N1199 1.350 . S
C1202 C1201 1.434 . S
C1203 C1204 1.369 . S
C1203 C1205 1.419 . S
C1203 H1207 0.930 . S
C1204 C1203 1.369 . S
C1204 C1213 1.429 . S
C1205 C1203 1.419 . S
C1205 C1206 1.363 . S
C1205 H1208 0.929 . S
C1206 C1205 1.363 . S
C1206 C1212 1.428 . S
H1207 C1203 0.930 . S
H1208 C1205 0.929 . S
S1209 N1210 1.613 . S
S1209 N1211 1.610 . S
N1210 S1209 1.613 . S
N1210 C1213 1.350 . S
N1211 S1209 1.610 . S
N1211 C1212 1.351 . S
C1212 C1206 1.428 . S
C1212 N1211 1.351 . S
C1212 C1213 1.434 . S
C1213 C1204 1.429 . S
C1213 N1210 1.350 . S
C1213 C1212 1.434 . S
C1214 C1215 1.369 . S
C1214 C1216 1.419 . S
C1214 H1218 0.930 . S
C1215 C1214 1.369 . S
C1215 C1224 1.429 . S
C1216 C1214 1.419 . S
C1216 C1217 1.363 . S
C1216 H1219 0.929 . S
C1217 C1216 1.363 . S
C1217 C1223 1.428 . S
H1218 C1214 0.930 . S
H1219 C1216 0.929 . S
S1220 N1221 1.613 . S
S1220 N1222 1.610 . S
N1221 S1220 1.613 . S
N1221 C1224 1.350 . S
N1222 S1220 1.610 . S
N1222 C1223 1.351 . S
C1223 C1217 1.428 . S
C1223 N1222 1.351 . S
C1223 C1224 1.434 . S
C1224 C1215 1.429 . S
C1224 N1221 1.350 . S
C1224 C1223 1.434 . S
C1225 C1226 1.369 . S
C1225 C1227 1.419 . S
C1225 H1229 0.930 . S
C1226 C1225 1.369 . S
C1226 C1235 1.429 . S
C1227 C1225 1.419 . S
C1227 C1228 1.363 . S
C1227 H1230 0.929 . S
C1228 C1227 1.363 . S
C1228 C1234 1.428 . S
H1229 C1225 0.930 . S
H1230 C1227 0.929 . S
S1231 N1232 1.613 . S
S1231 N1233 1.610 . S
N1232 S1231 1.613 . S
N1232 C1235 1.350 . S
N1233 S1231 1.610 . S
N1233 C1234 1.351 . S
C1234 C1228 1.428 . S
C1234 N1233 1.351 . S
C1234 C1235 1.434 . S
C1235 C1226 1.429 . S
C1235 N1232 1.350 . S
C1235 C1234 1.434 . S
C1236 C1237 1.369 . S
C1236 C1238 1.419 . S
C1236 H1240 0.930 . S
C1237 C1236 1.369 . S
C1237 C1246 1.429 . S
C1238 C1236 1.419 . S
C1238 C1239 1.363 . S
C1238 H1241 0.929 . S
C1239 C1238 1.363 . S
C1239 C1245 1.428 . S
H1240 C1236 0.930 . S
H1241 C1238 0.929 . S
S1242 N1243 1.613 . S
S1242 N1244 1.610 . S
N1243 S1242 1.613 . S
N1243 C1246 1.350 . S
N1244 S1242 1.610 . S
N1244 C1245 1.351 . S
C1245 C1239 1.428 . S
C1245 N1244 1.351 . S
C1245 C1246 1.434 . S
C1246 C1237 1.429 . S
C1246 N1243 1.350 . S
C1246 C1245 1.434 . S
C1247 C1248 1.369 . S
C1247 C1249 1.419 . S
C1247 H1251 0.930 . S
C1248 C1247 1.369 . S
C1248 C1257 1.429 . S
C1249 C1247 1.419 . S
C1249 C1250 1.363 . S
C1249 H1252 0.929 . S
C1250 C1249 1.363 . S
C1250 C1256 1.428 . S
H1251 C1247 0.930 . S
H1252 C1249 0.929 . S
S1253 N1254 1.613 . S
S1253 N1255 1.610 . S
N1254 S1253 1.613 . S
N1254 C1257 1.350 . S
N1255 S1253 1.610 . S
N1255 C1256 1.351 . S
C1256 C1250 1.428 . S
C1256 N1255 1.351 . S
C1256 C1257 1.434 . S
C1257 C1248 1.429 . S
C1257 N1254 1.350 . S
C1257 C1256 1.434 . S
C1258 C1259 1.369 . S
C1258 C1260 1.419 . S
C1258 H1262 0.930 . S
C1259 C1258 1.369 . S
C1259 C1268 1.429 . S
C1260 C1258 1.419 . S
C1260 C1261 1.363 . S
C1260 H1263 0.929 . S
C1261 C1260 1.363 . S
C1261 C1267 1.428 . S
H1262 C1258 0.930 . S
H1263 C1260 0.929 . S
S1264 N1265 1.613 . S
S1264 N1266 1.610 . S
N1265 S1264 1.613 . S
N1265 C1268 1.350 . S
N1266 S1264 1.610 . S
N1266 C1267 1.351 . S
C1267 C1261 1.428 . S
C1267 N1266 1.351 . S
C1267 C1268 1.434 . S
C1268 C1259 1.429 . S
C1268 N1265 1.350 . S
C1268 C1267 1.434 . S
C1269 C1270 1.369 . S
C1269 C1271 1.419 . S
C1269 H1273 0.930 . S
C1270 C1269 1.369 . S
C1270 C1279 1.429 1_565 S
C1271 C1269 1.419 . S
C1271 C1272 1.363 1_565 S
C1271 H1274 0.929 . S
C1272 C1271 1.363 1_545 S
C1272 C1278 1.428 . S
H1273 C1269 0.930 . S
H1274 C1271 0.929 . S
S1275 N1276 1.613 . S
S1275 N1277 1.610 . S
N1276 S1275 1.613 . S
N1276 C1279 1.350 . S
N1277 S1275 1.610 . S
N1277 C1278 1.351 . S
C1278 C1272 1.428 . S
C1278 N1277 1.351 . S
C1278 C1279 1.434 . S
C1279 C1270 1.429 1_545 S
C1279 N1276 1.350 . S
C1279 C1278 1.434 . S
C1280 C1281 1.369 1_655 S
C1280 C1282 1.419 . S
C1280 H1284 0.930 . S
C1281 C1280 1.369 1_455 S
C1281 C1290 1.429 . S
C1282 C1280 1.419 . S
C1282 C1283 1.363 . S
C1282 H1285 0.929 . S
C1283 C1282 1.363 . S
C1283 C1289 1.428 1_655 S
H1284 C1280 0.930 . S
H1285 C1282 0.929 . S
S1286 N1287 1.613 . S
S1286 N1288 1.610 . S
N1287 S1286 1.613 . S
N1287 C1290 1.350 . S
N1288 S1286 1.610 . S
N1288 C1289 1.351 . S
C1289 C1283 1.428 1_455 S
C1289 N1288 1.351 . S
C1289 C1290 1.434 . S
C1290 C1281 1.429 . S
C1290 N1287 1.350 . S
C1290 C1289 1.434 . S
C1291 C1292 1.369 . S
C1291 C1293 1.419 . S
C1291 H1295 0.930 . S
C1292 C1291 1.369 . S
C1292 C1301 1.429 . S
C1293 C1291 1.419 . S
C1293 C1294 1.363 . S
C1293 H1296 0.929 . S
C1294 C1293 1.363 . S
C1294 C1300 1.428 . S
H1295 C1291 0.930 . S
H1296 C1293 0.929 . S
S1297 N1298 1.613 . S
S1297 N1299 1.610 . S
N1298 S1297 1.613 . S
N1298 C1301 1.350 . S
N1299 S1297 1.610 . S
N1299 C1300 1.351 . S
C1300 C1294 1.428 . S
C1300 N1299 1.351 . S
C1300 C1301 1.434 . S
C1301 C1292 1.429 . S
C1301 N1298 1.350 . S
C1301 C1300 1.434 . S
C1302 C1303 1.369 . S
C1302 C1304 1.419 . S
C1302 H1306 0.930 . S
C1303 C1302 1.369 . S
C1303 C1312 1.429 . S
C1304 C1302 1.419 . S
C1304 C1305 1.363 . S
C1304 H1307 0.929 . S
C1305 C1304 1.363 . S
C1305 C1311 1.428 . S
H1306 C1302 0.930 . S
H1307 C1304 0.929 . S
S1308 N1309 1.613 . S
S1308 N1310 1.610 . S
N1309 S1308 1.613 . S
N1309 C1312 1.350 . S
N1310 S1308 1.610 . S
N1310 C1311 1.351 . S
C1311 C1305 1.428 . S
C1311 N1310 1.351 . S
C1311 C1312 1.434 . S
C1312 C1303 1.429 . S
C1312 N1309 1.350 . S
C1312 C1311 1.434 . S
C1313 C1314 1.369 . S
C1313 C1315 1.419 . S
C1313 H1317 0.930 . S
C1314 C1313 1.369 . S
C1314 C1323 1.429 . S
C1315 C1313 1.419 . S
C1315 C1316 1.363 . S
C1315 H1318 0.929 . S
C1316 C1315 1.363 . S
C1316 C1322 1.428 . S
H1317 C1313 0.930 . S
H1318 C1315 0.929 . S
S1319 N1320 1.613 . S
S1319 N1321 1.610 . S
N1320 S1319 1.613 . S
N1320 C1323 1.350 . S
N1321 S1319 1.610 . S
N1321 C1322 1.351 . S
C1322 C1316 1.428 . S
C1322 N1321 1.351 . S
C1322 C1323 1.434 . S
C1323 C1314 1.429 . S
C1323 N1320 1.350 . S
C1323 C1322 1.434 . S
C1324 C1325 1.369 . S
C1324 C1326 1.419 . S
C1324 H1328 0.930 . S
C1325 C1324 1.369 . S
C1325 C1334 1.429 . S
C1326 C1324 1.419 . S
C1326 C1327 1.363 . S
C1326 H1329 0.929 . S
C1327 C1326 1.363 . S
C1327 C1333 1.428 . S
H1328 C1324 0.930 . S
H1329 C1326 0.929 . S
S1330 N1331 1.613 . S
S1330 N1332 1.610 . S
N1331 S1330 1.613 . S
N1331 C1334 1.350 . S
N1332 S1330 1.610 . S
N1332 C1333 1.351 . S
C1333 C1327 1.428 . S
C1333 N1332 1.351 . S
C1333 C1334 1.434 . S
C1334 C1325 1.429 . S
C1334 N1331 1.350 . S
C1334 C1333 1.434 . S
C1335 C1336 1.369 . S
C1335 C1337 1.419 . S
C1335 H1339 0.930 . S
C1336 C1335 1.369 . S
C1336 C1345 1.429 . S
C1337 C1335 1.419 . S
C1337 C1338 1.363 . S
C1337 H1340 0.929 . S
C1338 C1337 1.363 . S
C1338 C1344 1.428 . S
H1339 C1335 0.930 . S
H1340 C1337 0.929 . S
S1341 N1342 1.613 . S
S1341 N1343 1.610 . S
N1342 S1341 1.613 . S
N1342 C1345 1.350 . S
N1343 S1341 1.610 . S
N1343 C1344 1.351 . S
C1344 C1338 1.428 . S
C1344 N1343 1.351 . S
C1344 C1345 1.434 . S
C1345 C1336 1.429 . S
C1345 N1342 1.350 . S
C1345 C1344 1.434 . S
C1346 C1347 1.369 . S
C1346 C1348 1.419 . S
C1346 H1350 0.930 . S
C1347 C1346 1.369 . S
C1347 C1356 1.429 . S
C1348 C1346 1.419 . S
C1348 C1349 1.363 . S
C1348 H1351 0.929 . S
C1349 C1348 1.363 . S
C1349 C1355 1.428 . S
H1350 C1346 0.930 . S
H1351 C1348 0.929 . S
S1352 N1353 1.613 . S
S1352 N1354 1.610 . S
N1353 S1352 1.613 . S
N1353 C1356 1.350 . S
N1354 S1352 1.610 . S
N1354 C1355 1.351 . S
C1355 C1349 1.428 . S
C1355 N1354 1.351 . S
C1355 C1356 1.434 . S
C1356 C1347 1.429 . S
C1356 N1353 1.350 . S
C1356 C1355 1.434 . S
C1357 C1358 1.369 . S
C1357 C1359 1.419 . S
C1357 H1361 0.930 . S
C1358 C1357 1.369 . S
C1358 C1367 1.429 . S
C1359 C1357 1.419 . S
C1359 C1360 1.363 . S
C1359 H1362 0.929 . S
C1360 C1359 1.363 . S
C1360 C1366 1.428 . S
H1361 C1357 0.930 . S
H1362 C1359 0.929 . S
S1363 N1364 1.613 . S
S1363 N1365 1.610 . S
N1364 S1363 1.613 . S
N1364 C1367 1.350 . S
N1365 S1363 1.610 . S
N1365 C1366 1.351 . S
C1366 C1360 1.428 . S
C1366 N1365 1.351 . S
C1366 C1367 1.434 . S
C1367 C1358 1.429 . S
C1367 N1364 1.350 . S
C1367 C1366 1.434 . S
C1368 C1369 1.369 . S
C1368 C1370 1.419 . S
C1368 H1372 0.930 . S
C1369 C1368 1.369 . S
C1369 C1378 1.429 . S
C1370 C1368 1.419 . S
C1370 C1371 1.363 . S
C1370 H1373 0.929 . S
C1371 C1370 1.363 . S
C1371 C1377 1.428 . S
H1372 C1368 0.930 . S
H1373 C1370 0.929 . S
S1374 N1375 1.613 . S
S1374 N1376 1.610 . S
N1375 S1374 1.613 . S
N1375 C1378 1.350 . S
N1376 S1374 1.610 . S
N1376 C1377 1.351 . S
C1377 C1371 1.428 . S
C1377 N1376 1.351 . S
C1377 C1378 1.434 . S
C1378 C1369 1.429 . S
C1378 N1375 1.350 . S
C1378 C1377 1.434 . S
C1379 C1380 1.369 . S
C1379 C1381 1.419 . S
C1379 H1383 0.930 . S
C1380 C1379 1.369 . S
C1380 C1389 1.429 . S
C1381 C1379 1.419 . S
C1381 C1382 1.363 . S
C1381 H1384 0.929 . S
C1382 C1381 1.363 . S
C1382 C1388 1.428 . S
H1383 C1379 0.930 . S
H1384 C1381 0.929 . S
S1385 N1386 1.613 . S
S1385 N1387 1.610 . S
N1386 S1385 1.613 . S
N1386 C1389 1.350 . S
N1387 S1385 1.610 . S
N1387 C1388 1.351 . S
C1388 C1382 1.428 . S
C1388 N1387 1.351 . S
C1388 C1389 1.434 . S
C1389 C1380 1.429 . S
C1389 N1386 1.350 . S
C1389 C1388 1.434 . S
C1390 C1391 1.369 . S
C1390 C1392 1.419 . S
C1390 H1394 0.930 . S
C1391 C1390 1.369 . S
C1391 C1400 1.429 . S
C1392 C1390 1.419 . S
C1392 C1393 1.363 . S
C1392 H1395 0.929 . S
C1393 C1392 1.363 . S
C1393 C1399 1.428 . S
H1394 C1390 0.930 . S
H1395 C1392 0.929 . S
S1396 N1397 1.613 . S
S1396 N1398 1.610 . S
N1397 S1396 1.613 . S
N1397 C1400 1.350 . S
N1398 S1396 1.610 . S
N1398 C1399 1.351 . S
C1399 C1393 1.428 . S
C1399 N1398 1.351 . S
C1399 C1400 1.434 . S
C1400 C1391 1.429 . S
C1400 N1397 1.350 . S
C1400 C1399 1.434 . S
C1401 C1402 1.369 . S
C1401 C1403 1.419 . S
C1401 H1405 0.930 . S
C1402 C1401 1.369 . S
C1402 C1411 1.429 . S
C1403 C1401 1.419 . S
C1403 C1404 1.363 . S
C1403 H1406 0.929 . S
C1404 C1403 1.363 . S
C1404 C1410 1.428 . S
H1405 C1401 0.930 . S
H1406 C1403 0.929 . S
S1407 N1408 1.613 . S
S1407 N1409 1.610 . S
N1408 S1407 1.613 . S
N1408 C1411 1.350 . S
N1409 S1407 1.610 . S
N1409 C1410 1.351 . S
C1410 C1404 1.428 . S
C1410 N1409 1.351 . S
C1410 C1411 1.434 . S
C1411 C1402 1.429 . S
C1411 N1408 1.350 . S
C1411 C1410 1.434 . S
C1412 C1413 1.369 . S
C1412 C1414 1.419 . S
C1412 H1416 0.930 . S
C1413 C1412 1.369 . S
C1413 C1422 1.429 . S
C1414 C1412 1.419 . S
C1414 C1415 1.363 . S
C1414 H1417 0.929 . S
C1415 C1414 1.363 . S
C1415 C1421 1.428 . S
H1416 C1412 0.930 . S
H1417 C1414 0.929 . S
S1418 N1419 1.613 . S
S1418 N1420 1.610 . S
N1419 S1418 1.613 . S
N1419 C1422 1.350 . S
N1420 S1418 1.610 . S
N1420 C1421 1.351 . S
C1421 C1415 1.428 . S
C1421 N1420 1.351 . S
C1421 C1422 1.434 . S
C1422 C1413 1.429 . S
C1422 N1419 1.350 . S
C1422 C1421 1.434 . S
C1423 C1424 1.369 . S
C1423 C1425 1.419 . S
C1423 H1427 0.930 . S
C1424 C1423 1.369 . S
C1424 C1433 1.429 . S
C1425 C1423 1.419 . S
C1425 C1426 1.363 . S
C1425 H1428 0.929 . S
C1426 C1425 1.363 . S
C1426 C1432 1.428 . S
H1427 C1423 0.930 . S
H1428 C1425 0.929 . S
S1429 N1430 1.613 . S
S1429 N1431 1.610 . S
N1430 S1429 1.613 . S
N1430 C1433 1.350 . S
N1431 S1429 1.610 . S
N1431 C1432 1.351 . S
C1432 C1426 1.428 . S
C1432 N1431 1.351 . S
C1432 C1433 1.434 . S
C1433 C1424 1.429 . S
C1433 N1430 1.350 . S
C1433 C1432 1.434 . S
C1434 C1435 1.369 . S
C1434 C1436 1.419 . S
C1434 H1438 0.930 . S
C1435 C1434 1.369 . S
C1435 C1444 1.429 . S
C1436 C1434 1.419 . S
C1436 C1437 1.363 . S
C1436 H1439 0.929 . S
C1437 C1436 1.363 . S
C1437 C1443 1.428 . S
H1438 C1434 0.930 . S
H1439 C1436 0.929 . S
S1440 N1441 1.613 . S
S1440 N1442 1.610 . S
N1441 S1440 1.613 . S
N1441 C1444 1.350 . S
N1442 S1440 1.610 . S
N1442 C1443 1.351 . S
C1443 C1437 1.428 . S
C1443 N1442 1.351 . S
C1443 C1444 1.434 . S
C1444 C1435 1.429 . S
C1444 N1441 1.350 . S
C1444 C1443 1.434 . S
C1445 C1446 1.369 . S
C1445 C1447 1.419 . S
C1445 H1449 0.930 . S
C1446 C1445 1.369 . S
C1446 C1455 1.429 . S
C1447 C1445 1.419 . S
C1447 C1448 1.363 . S
C1447 H1450 0.929 . S
C1448 C1447 1.363 . S
C1448 C1454 1.428 . S
H1449 C1445 0.930 . S
H1450 C1447 0.929 . S
S1451 N1452 1.613 . S
S1451 N1453 1.610 . S
N1452 S1451 1.613 . S
N1452 C1455 1.350 . S
N1453 S1451 1.610 . S
N1453 C1454 1.351 . S
C1454 C1448 1.428 . S
C1454 N1453 1.351 . S
C1454 C1455 1.434 . S
C1455 C1446 1.429 . S
C1455 N1452 1.350 . S
C1455 C1454 1.434 . S
C1456 C1457 1.369 . S
C1456 C1458 1.419 . S
C1456 H1460 0.930 . S
C1457 C1456 1.369 . S
C1457 C1466 1.429 . S
C1458 C1456 1.419 . S
C1458 C1459 1.363 . S
C1458 H1461 0.929 . S
C1459 C1458 1.363 . S
C1459 C1465 1.428 . S
H1460 C1456 0.930 . S
H1461 C1458 0.929 . S
S1462 N1463 1.613 . S
S1462 N1464 1.610 . S
N1463 S1462 1.613 . S
N1463 C1466 1.350 . S
N1464 S1462 1.610 . S
N1464 C1465 1.351 . S
C1465 C1459 1.428 . S
C1465 N1464 1.351 . S
C1465 C1466 1.434 . S
C1466 C1457 1.429 . S
C1466 N1463 1.350 . S
C1466 C1465 1.434 . S
C1467 C1468 1.369 . S
C1467 C1469 1.419 . S
C1467 H1471 0.930 . S
C1468 C1467 1.369 . S
C1468 C1477 1.429 . S
C1469 C1467 1.419 . S
C1469 C1470 1.363 . S
C1469 H1472 0.929 . S
C1470 C1469 1.363 . S
C1470 C1476 1.428 . S
H1471 C1467 0.930 . S
H1472 C1469 0.929 . S
S1473 N1474 1.613 . S
S1473 N1475 1.610 . S
N1474 S1473 1.613 . S
N1474 C1477 1.350 . S
N1475 S1473 1.610 . S
N1475 C1476 1.351 . S
C1476 C1470 1.428 . S
C1476 N1475 1.351 . S
C1476 C1477 1.434 . S
C1477 C1468 1.429 . S
C1477 N1474 1.350 . S
C1477 C1476 1.434 . S
C1478 C1479 1.369 . S
C1478 C1480 1.419 . S
C1478 H1482 0.930 . S
C1479 C1478 1.369 . S
C1479 C1488 1.429 . S
C1480 C1478 1.419 . S
C1480 C1481 1.363 . S
C1480 H1483 0.929 . S
C1481 C1480 1.363 . S
C1481 C1487 1.428 . S
H1482 C1478 0.930 . S
H1483 C1480 0.929 . S
S1484 N1485 1.613 . S
S1484 N1486 1.610 . S
N1485 S1484 1.613 . S
N1485 C1488 1.350 . S
N1486 S1484 1.610 . S
N1486 C1487 1.351 . S
C1487 C1481 1.428 . S
C1487 N1486 1.351 . S
C1487 C1488 1.434 . S
C1488 C1479 1.429 . S
C1488 N1485 1.350 . S
C1488 C1487 1.434 . S
C1489 C1490 1.369 . S
C1489 C1491 1.419 . S
C1489 H1493 0.930 . S
C1490 C1489 1.369 . S
C1490 C1499 1.429 . S
C1491 C1489 1.419 . S
C1491 C1492 1.363 . S
C1491 H1494 0.929 . S
C1492 C1491 1.363 . S
C1492 C1498 1.428 . S
H1493 C1489 0.930 . S
H1494 C1491 0.929 . S
S1495 N1496 1.613 . S
S1495 N1497 1.610 . S
N1496 S1495 1.613 . S
N1496 C1499 1.350 . S
N1497 S1495 1.610 . S
N1497 C1498 1.351 . S
C1498 C1492 1.428 . S
C1498 N1497 1.351 . S
C1498 C1499 1.434 . S
C1499 C1490 1.429 . S
C1499 N1496 1.350 . S
C1499 C1498 1.434 . S
C1500 C1501 1.369 . S
C1500 C1502 1.419 . S
C1500 H1504 0.930 . S
C1501 C1500 1.369 . S
C1501 C1510 1.429 . S
C1502 C1500 1.419 . S
C1502 C1503 1.363 . S
C1502 H1505 0.929 . S
C1503 C1502 1.363 . S
C1503 C1509 1.428 . S
H1504 C1500 0.930 . S
H1505 C1502 0.929 . S
S1506 N1507 1.613 . S
S1506 N1508 1.610 . S
N1507 S1506 1.613 . S
N1507 C1510 1.350 . S
N1508 S1506 1.610 . S
N1508 C1509 1.351 . S
C1509 C1503 1.428 . S
C1509 N1508 1.351 . S
C1509 C1510 1.434 . S
C1510 C1501 1.429 . S
C1510 N1507 1.350 . S
C1510 C1509 1.434 . S
C1511 C1512 1.369 . S
C1511 C1513 1.419 . S
C1511 H1515 0.930 . S
C1512 C1511 1.369 . S
C1512 C1521 1.429 . S
C1513 C1511 1.419 . S
C1513 C1514 1.363 . S
C1513 H1516 0.929 . S
C1514 C1513 1.363 . S
C1514 C1520 1.428 . S
H1515 C1511 0.930 . S
H1516 C1513 0.929 . S
S1517 N1518 1.613 . S
S1517 N1519 1.610 . S
N1518 S1517 1.613 . S
N1518 C1521 1.350 . S
N1519 S1517 1.610 . S
N1519 C1520 1.351 . S
C1520 C1514 1.428 . S
C1520 N1519 1.351 . S
C1520 C1521 1.434 . S
C1521 C1512 1.429 . S
C1521 N1518 1.350 . S
C1521 C1520 1.434 . S
C1522 C1523 1.369 . S
C1522 C1524 1.419 . S
C1522 H1526 0.930 . S
C1523 C1522 1.369 . S
C1523 C1532 1.429 . S
C1524 C1522 1.419 . S
C1524 C1525 1.363 . S
C1524 H1527 0.929 . S
C1525 C1524 1.363 . S
C1525 C1531 1.428 . S
H1526 C1522 0.930 . S
H1527 C1524 0.929 . S
S1528 N1529 1.613 . S
S1528 N1530 1.610 . S
N1529 S1528 1.613 . S
N1529 C1532 1.350 . S
N1530 S1528 1.610 . S
N1530 C1531 1.351 . S
C1531 C1525 1.428 . S
C1531 N1530 1.351 . S
C1531 C1532 1.434 . S
C1532 C1523 1.429 . S
C1532 N1529 1.350 . S
C1532 C1531 1.434 . S
C1533 C1534 1.369 . S
C1533 C1535 1.419 . S
C1533 H1537 0.930 . S
C1534 C1533 1.369 . S
C1534 C1543 1.429 . S
C1535 C1533 1.419 . S
C1535 C1536 1.363 . S
C1535 H1538 0.929 . S
C1536 C1535 1.363 . S
C1536 C1542 1.428 . S
H1537 C1533 0.930 . S
H1538 C1535 0.929 . S
S1539 N1540 1.613 . S
S1539 N1541 1.610 . S
N1540 S1539 1.613 . S
N1540 C1543 1.350 . S
N1541 S1539 1.610 . S
N1541 C1542 1.351 . S
C1542 C1536 1.428 . S
C1542 N1541 1.351 . S
C1542 C1543 1.434 . S
C1543 C1534 1.429 . S
C1543 N1540 1.350 . S
C1543 C1542 1.434 . S
C1544 C1545 1.369 . S
C1544 C1546 1.419 . S
C1544 H1548 0.930 . S
C1545 C1544 1.369 . S
C1545 C1554 1.429 . S
C1546 C1544 1.419 . S
C1546 C1547 1.363 . S
C1546 H1549 0.929 . S
C1547 C1546 1.363 . S
C1547 C1553 1.428 . S
H1548 C1544 0.930 . S
H1549 C1546 0.929 . S
S1550 N1551 1.613 . S
S1550 N1552 1.610 . S
N1551 S1550 1.613 . S
N1551 C1554 1.350 . S
N1552 S1550 1.610 . S
N1552 C1553 1.351 . S
C1553 C1547 1.428 . S
C1553 N1552 1.351 . S
C1553 C1554 1.434 . S
C1554 C1545 1.429 . S
C1554 N1551 1.350 . S
C1554 C1553 1.434 . S
C1555 C1556 1.369 . S
C1555 C1557 1.419 . S
C1555 H1559 0.930 . S
C1556 C1555 1.369 . S
C1556 C1565 1.429 . S
C1557 C1555 1.419 . S
C1557 C1558 1.363 . S
C1557 H1560 0.929 . S
C1558 C1557 1.363 . S
C1558 C1564 1.428 . S
H1559 C1555 0.930 . S
H1560 C1557 0.929 . S
S1561 N1562 1.613 . S
S1561 N1563 1.610 . S
N1562 S1561 1.613 . S
N1562 C1565 1.350 . S
N1563 S1561 1.610 . S
N1563 C1564 1.351 . S
C1564 C1558 1.428 . S
C1564 N1563 1.351 . S
C1564 C1565 1.434 . S
C1565 C1556 1.429 . S
C1565 N1562 1.350 . S
C1565 C1564 1.434 . S
C973 C162 1.471 . S
C975 C272 1.414 . S
C984 C174 1.498 . S
C986 C356 1.448 . S
C995 C150 1.468 . S
C997 C450 1.470 . S
C1006 C138 1.460 . S
C1008 C366 1.462 . S
C1019 C440 1.409 . S
C1017 C114 1.465 . S
C1028 C126 1.438 . S
C1030 C282 1.436 . S
C1041 C283 1.456 . S
C1039 C136 1.503 . S
C1052 C367 1.487 . S
C1050 C112 1.531 . S
C1061 C124 1.518 . S
C1063 C459 1.479 . S
C1072 C160 1.495 . S
C1074 C375 1.463 . S
C1083 C172 1.491 . S
C1085 C451 1.441 . S
C1096 C291 1.437 . S
C1094 C148 1.484 . S
C1107 C524 1.417 . S
C1105 C18 1.473 . S
C1116 C30 1.499 . S
C1118 C608 1.448 . S
C1127 C6 1.469 . S
C1129 C702 1.470 . S
C1138 C210 1.457 . S
C1140 C618 1.462 . S
C1149 C186 1.464 . S
C1151 C692 1.401 . S
C1160 C198 1.437 . S
C1162 C534 1.435 . S
C1171 C208 1.507 . S
C1173 C535 1.462 . S
C1182 C184 1.531 . S
C1184 C619 1.484 . S
C1195 C711 1.483 . S
C1193 C196 1.516 . S
C1204 C16 1.502 1_565 S
C1206 C627 1.460 . S
C1217 C703 1.434 . S
C1215 C28 1.486 1_455 S
C1226 C4 1.480 . S
C1228 C543 1.445 . S
C1239 C776 1.410 . S
C1237 C90 1.471 . S
C1248 C102 1.499 . S
C1250 C860 1.448 . S
C1261 C954 1.467 . S
C1259 C78 1.470 . S
C1272 C870 1.464 . S
C1270 C66 1.459 . S
C1283 C944 1.408 . S
C1281 C42 1.464 . S
C1292 C54 1.439 . S
C1294 C786 1.436 . S
C1303 C64 1.504 1_655 S
C1305 C787 1.454 . S
C1314 C40 1.531 . S
C1316 C871 1.485 . S
C1327 C963 1.484 . S
C1325 C52 1.520 1_545 S
C1336 C88 1.497 . S
C1338 C879 1.458 . S
C1347 C100 1.486 . S
C1349 C955 1.436 . S
C1358 C76 1.481 . S
C1360 C795 1.438 . S
C1369 C189 1.582 . S
C1371 C279 1.474 . S
C1382 C363 1.488 . S
C1380 C201 1.625 . S
C1391 C213 1.578 . S
C1393 C456 1.395 . S
C1402 C81 1.592 . S
C1404 C372 1.383 . S
C1413 C93 1.592 . S
C1415 C447 1.468 . S
C1426 C288 1.386 . S
C1424 C105 1.551 . S
C1435 C45 1.581 . S
C1437 C531 1.474 . S
C1446 C57 1.620 . S
C1448 C615 1.484 . S
C1457 C69 1.581 . S
C1459 C708 1.383 . S
C1468 C153 1.592 . S
C1470 C624 1.381 . S
C1481 C699 1.459 . S
C1479 C165 1.588 . S
C1490 C177 1.547 . S
C1492 C540 1.380 . S
C1501 C117 1.579 . S
C1503 C783 1.477 . S
C1512 C129 1.620 . S
C1514 C867 1.487 . S
C1525 C960 1.394 . S
C1523 C141 1.580 . S
C1534 C9 1.587 . S
C1536 C876 1.387 . S
C1545 C21 1.587 . S
C1547 C951 1.459 . S
C1556 C33 1.550 . S
C1558 C792 1.386 . S
