# Generated by pormake.
# Topology pyr, (3,6)-cn, num edge types: 1
# Building blocks:
#     Node 0, Type 0, BuildingBlock: VETTIZ_charged_linker_0, # of connection points: 3
#     Node 1, Type 0, BuildingBlock: VETTIZ_charged_linker_0, # of connection points: 3
#     Node 2, Type 0, BuildingBlock: VETTIZ_charged_linker_0, # of connection points: 3
#     Node 3, Type 0, BuildingBlock: VETTIZ_charged_linker_0, # of connection points: 3
#     Node 4, Type 0, BuildingBlock: VETTIZ_charged_linker_0, # of connection points: 3
#     Node 5, Type 0, BuildingBlock: VETTIZ_charged_linker_0, # of connection points: 3
#     Node 6, Type 0, BuildingBlock: VETTIZ_charged_linker_0, # of connection points: 3
#     Node 7, Type 0, BuildingBlock: VETTIZ_charged_linker_0, # of connection points: 3
#     Node 8, Type 1, BuildingBlock: BETDIP_clean_sbu_0, # of connection points: 6
#     Node 9, Type 1, BuildingBlock: BETDIP_clean_sbu_0, # of connection points: 6
#     Node 10, Type 1, BuildingBlock: BETDIP_clean_sbu_0, # of connection points: 6
#     Node 11, Type 1, BuildingBlock: BETDIP_clean_sbu_0, # of connection points: 6
#     Edge 12, Type (0, 1), BuildingBlock: ZUJKAS_clean_linker_0, # of connection points: 2
#     Edge 13, Type (0, 1), BuildingBlock: ZUJKAS_clean_linker_0, # of connection points: 2
#     Edge 14, Type (0, 1), BuildingBlock: ZUJKAS_clean_linker_0, # of connection points: 2
#     Edge 15, Type (0, 1), BuildingBlock: ZUJKAS_clean_linker_0, # of connection points: 2
#     Edge 16, Type (0, 1), BuildingBlock: ZUJKAS_clean_linker_0, # of connection points: 2
#     Edge 17, Type (0, 1), BuildingBlock: ZUJKAS_clean_linker_0, # of connection points: 2
#     Edge 18, Type (0, 1), BuildingBlock: ZUJKAS_clean_linker_0, # of connection points: 2
#     Edge 19, Type (0, 1), BuildingBlock: ZUJKAS_clean_linker_0, # of connection points: 2
#     Edge 20, Type (0, 1), BuildingBlock: ZUJKAS_clean_linker_0, # of connection points: 2
#     Edge 21, Type (0, 1), BuildingBlock: ZUJKAS_clean_linker_0, # of connection points: 2
#     Edge 22, Type (0, 1), BuildingBlock: ZUJKAS_clean_linker_0, # of connection points: 2
#     Edge 23, Type (0, 1), BuildingBlock: ZUJKAS_clean_linker_0, # of connection points: 2
#     Edge 24, Type (0, 1), BuildingBlock: ZUJKAS_clean_linker_0, # of connection points: 2
#     Edge 25, Type (0, 1), BuildingBlock: ZUJKAS_clean_linker_0, # of connection points: 2
#     Edge 26, Type (0, 1), BuildingBlock: ZUJKAS_clean_linker_0, # of connection points: 2
#     Edge 27, Type (0, 1), BuildingBlock: ZUJKAS_clean_linker_0, # of connection points: 2
#     Edge 28, Type (0, 1), BuildingBlock: ZUJKAS_clean_linker_0, # of connection points: 2
#     Edge 29, Type (0, 1), BuildingBlock: ZUJKAS_clean_linker_0, # of connection points: 2
#     Edge 30, Type (0, 1), BuildingBlock: ZUJKAS_clean_linker_0, # of connection points: 2
#     Edge 31, Type (0, 1), BuildingBlock: ZUJKAS_clean_linker_0, # of connection points: 2
#     Edge 32, Type (0, 1), BuildingBlock: ZUJKAS_clean_linker_0, # of connection points: 2
#     Edge 33, Type (0, 1), BuildingBlock: ZUJKAS_clean_linker_0, # of connection points: 2
#     Edge 34, Type (0, 1), BuildingBlock: ZUJKAS_clean_linker_0, # of connection points: 2
#     Edge 35, Type (0, 1), BuildingBlock: ZUJKAS_clean_linker_0, # of connection points: 2
# Relax obj value: 0.099
# Max RMSD: 0.184
# Mean RMSD: 0.084
data_MOF--net-pyr--node1-BETDIP_clean_sbu_0--node2-VETTIZ_charged_linker_0--edge1-ZUJKAS_clean_linker_0
_symmetry_space_group_name_H-M    P1
_symmetry_Int_Tables_number       1
_symmetry_cell_setting            triclinic
loop_
_symmetry_equiv_pos_as_xyz
'x, y, z'
_cell_length_a     54.479448
_cell_length_b     58.053766
_cell_length_c     57.088565
_cell_angle_alpha  88.942944
_cell_angle_beta   92.76384
_cell_angle_gamma 101.26138
loop_
_atom_site_label
_atom_site_type_symbol
_atom_site_fract_x
_atom_site_fract_y
_atom_site_fract_z
_atom_type_partial_charge
C0 C 0.28267 0.24446 0.30307 0.0
C1 C 0.26273 0.25393 0.31106 0.0
C2 C 0.25447 0.27194 0.29781 0.0
C3 C 0.28443 0.26941 0.26838 0.0
C4 C 0.29313 0.25237 0.28176 0.0
C5 C 0.31348 0.24322 0.27015 0.0
H6 H 0.37821 0.23698 0.17328 0.0
C7 C 0.29803 0.27246 0.24642 0.0
C8 C 0.3152 0.25728 0.24739 0.0
H9 H 0.38335 0.20023 0.23941 0.0
H10 H 0.35439 0.22141 0.25574 0.0
H11 H 0.37965 0.28861 0.19689 0.0
H12 H 0.32012 0.23353 0.1712 0.0
H13 H 0.31264 0.2604 0.16185 0.0
H14 H 0.34061 0.25216 0.15198 0.0
H15 H 0.37339 0.28284 0.16618 0.0
H16 H 0.35737 0.30201 0.18153 0.0
C17 C 0.33787 0.24933 0.28579 0.0
C18 C 0.30415 0.21658 0.2659 0.0
C19 C 0.27253 0.3257 0.1822 0.0
C20 C 0.27969 0.33042 0.159 0.0
C21 C 0.299 0.32026 0.15059 0.0
C22 C 0.31074 0.30538 0.165 0.0
C23 C 0.30288 0.30038 0.18798 0.0
C24 C 0.28423 0.31069 0.19625 0.0
C25 C 0.27756 0.30283 0.22075 0.0
C26 C 0.29542 0.28619 0.22596 0.0
C27 C 0.31014 0.28474 0.20671 0.0
C28 C 0.28346 0.32461 0.23683 0.0
C29 C 0.24976 0.28992 0.21996 0.0
C30 C 0.37348 0.23378 0.19141 0.0
C31 C 0.38295 0.21672 0.20499 0.0
C32 C 0.376 0.21296 0.22844 0.0
C33 C 0.35921 0.22532 0.23791 0.0
C34 C 0.34909 0.24155 0.22379 0.0
C35 C 0.35671 0.24596 0.20114 0.0
C36 C 0.34413 0.26393 0.18877 0.0
C37 C 0.32751 0.26939 0.20767 0.0
C38 C 0.33029 0.25602 0.22804 0.0
C39 C 0.36456 0.2855 0.1828 0.0
C40 C 0.32864 0.25213 0.1672 0.0
H41 H 0.25781 0.2932 0.26716 0.0
H42 H 0.28974 0.23087 0.313 0.0
H43 H 0.28404 0.2129 0.25989 0.0
H44 H 0.31396 0.20962 0.25201 0.0
H45 H 0.306 0.20628 0.28225 0.0
H46 H 0.33859 0.26585 0.29562 0.0
H47 H 0.33927 0.23518 0.29886 0.0
H48 H 0.35491 0.25276 0.27549 0.0
H49 H 0.25739 0.3328 0.18905 0.0
H50 H 0.30489 0.32371 0.1328 0.0
H51 H 0.32516 0.29802 0.15755 0.0
H52 H 0.30054 0.33698 0.23137 0.0
H53 H 0.26777 0.33432 0.23606 0.0
H54 H 0.28767 0.32014 0.25529 0.0
H55 H 0.24464 0.28035 0.20316 0.0
H56 H 0.2457 0.27621 0.23365 0.0
H57 H 0.23695 0.30248 0.22145 0.0
H58 H 0.23902 0.27942 0.30341 0.0
C59 C 0.26526 0.27977 0.27661 0.0
C60 C 0.14599 0.8108 0.6899 0.0
C61 C 0.1356 0.82765 0.7014 0.0
C62 C 0.13883 0.82942 0.726 0.0
C63 C 0.16432 0.79958 0.72695 0.0
C64 C 0.16018 0.79696 0.703 0.0
C65 C 0.17327 0.77874 0.69357 0.0
H66 H 0.25539 0.70589 0.71279 0.0
C67 C 0.1812 0.7838 0.73518 0.0
C68 C 0.18626 0.77124 0.71577 0.0
H69 H 0.2167 0.71885 0.64741 0.0
H70 H 0.19422 0.74419 0.66729 0.0
H71 H 0.26746 0.75726 0.72879 0.0
H72 H 0.2068 0.70095 0.74551 0.0
H73 H 0.21665 0.71634 0.77161 0.0
H74 H 0.23832 0.70229 0.75691 0.0
H75 H 0.2716 0.734 0.74881 0.0
H76 H 0.2622 0.76023 0.75851 0.0
C77 C 0.19225 0.79095 0.67571 0.0
C78 C 0.15312 0.75846 0.68323 0.0
C79 C 0.21901 0.79136 0.81832 0.0
C80 C 0.23768 0.78132 0.83011 0.0
C81 C 0.24621 0.76284 0.81938 0.0
C82 C 0.23735 0.75545 0.79676 0.0
C83 C 0.21994 0.76678 0.7846 0.0
C84 C 0.21058 0.78397 0.79564 0.0
C85 C 0.19253 0.79437 0.77994 0.0
C86 C 0.19314 0.78101 0.75742 0.0
C87 C 0.20934 0.76502 0.76023 0.0
C88 C 0.20337 0.82098 0.77705 0.0
C89 C 0.16639 0.78864 0.79065 0.0
C90 C 0.24168 0.71374 0.7028 0.0
C91 C 0.23779 0.7103 0.67849 0.0
C92 C 0.22021 0.72138 0.66611 0.0
C93 C 0.20715 0.73605 0.6777 0.0
C94 C 0.21187 0.73987 0.7019 0.0
C95 C 0.22864 0.7285 0.71405 0.0
C96 C 0.23195 0.73502 0.73949 0.0
C97 C 0.21425 0.75208 0.74073 0.0
C98 C 0.20266 0.75502 0.71865 0.0
C99 C 0.2597 0.74712 0.7444 0.0
C100 C 0.22319 0.71256 0.75433 0.0
H101 H 0.15506 0.81792 0.75741 0.0
H102 H 0.14389 0.80896 0.67103 0.0
H103 H 0.13594 0.75564 0.69354 0.0
H104 H 0.15923 0.74139 0.68395 0.0
H105 H 0.14758 0.76235 0.66483 0.0
H106 H 0.20173 0.80863 0.68202 0.0
H107 H 0.18272 0.79331 0.65844 0.0
H108 H 0.20754 0.78143 0.67311 0.0
H109 H 0.21174 0.8053 0.82624 0.0
H110 H 0.26066 0.75485 0.828 0.0
H111 H 0.24511 0.74178 0.78929 0.0
H112 H 0.22396 0.82406 0.77496 0.0
H113 H 0.2 0.83087 0.79266 0.0
H114 H 0.19578 0.82892 0.76131 0.0
H115 H 0.16398 0.7721 0.80119 0.0
H116 H 0.15091 0.78548 0.7771 0.0
H117 H 0.16363 0.80288 0.8024 0.0
H118 H 0.13052 0.8418 0.73539 0.0
C119 C 0.15302 0.81546 0.73881 0.0
C120 C 0.61477 0.28328 0.88751 0.0
C121 C 0.5921 0.26977 0.87862 0.0
C122 C 0.57974 0.27845 0.85904 0.0
C123 C 0.61273 0.31335 0.85758 0.0
C124 C 0.62458 0.30485 0.8769 0.0
C125 C 0.64806 0.32146 0.88495 0.0
H126 H 0.72927 0.42472 0.87383 0.0
C127 C 0.62801 0.33649 0.85099 0.0
C128 C 0.64865 0.34125 0.86715 0.0
H129 H 0.73042 0.37019 0.92632 0.0
H130 H 0.69341 0.34689 0.90808 0.0
H131 H 0.66946 0.42239 0.87271 0.0
H132 H 0.7159 0.38978 0.8302 0.0
H133 H 0.69212 0.39709 0.81136 0.0
H134 H 0.71384 0.42011 0.82654 0.0
H135 H 0.69052 0.43848 0.85225 0.0
H136 H 0.65901 0.42464 0.8433 0.0
C137 C 0.64446 0.32947 0.91015 0.0
C138 C 0.67043 0.30884 0.88277 0.0
C139 C 0.60203 0.38317 0.78026 0.0
C140 C 0.61291 0.40495 0.77016 0.0
C141 C 0.63576 0.41734 0.78024 0.0
C142 C 0.64726 0.40862 0.80005 0.0
C143 C 0.63602 0.38713 0.81012 0.0
C144 C 0.61389 0.37463 0.80015 0.0
C145 C 0.60497 0.35191 0.81323 0.0
C146 C 0.62538 0.35293 0.8326 0.0
C147 C 0.64346 0.37374 0.8307 0.0
C148 C 0.57923 0.35275 0.82317 0.0
C149 C 0.60453 0.33134 0.79629 0.0
C150 C 0.7216 0.4077 0.88128 0.0
C151 C 0.73273 0.39948 0.90178 0.0
C152 C 0.72202 0.37723 0.91089 0.0
C153 C 0.70052 0.3636 0.90016 0.0
C154 C 0.68936 0.37218 0.87999 0.0
C155 C 0.69995 0.39382 0.87078 0.0
C156 C 0.68535 0.39997 0.84923 0.0
C157 C 0.66413 0.3786 0.84729 0.0
C158 C 0.66667 0.36241 0.86535 0.0
C159 C 0.67562 0.42263 0.85439 0.0
C160 C 0.70258 0.40206 0.82816 0.0
H161 H 0.57974 0.30567 0.83356 0.0
H162 H 0.62451 0.27743 0.9028 0.0
H163 H 0.66778 0.29764 0.86689 0.0
H164 H 0.68841 0.32112 0.88056 0.0
H165 H 0.67236 0.29732 0.89823 0.0
H166 H 0.62443 0.32971 0.91292 0.0
H167 H 0.65067 0.31747 0.92356 0.0
H168 H 0.65432 0.34765 0.91377 0.0
H169 H 0.58448 0.37316 0.77312 0.0
H170 H 0.645 0.4338 0.77265 0.0
H171 H 0.66454 0.41903 0.80677 0.0
H172 H 0.57879 0.37069 0.82945 0.0
H173 H 0.56389 0.34806 0.80954 0.0
H174 H 0.57503 0.34115 0.83858 0.0
H175 H 0.62135 0.33473 0.7855 0.0
H176 H 0.60505 0.31455 0.80548 0.0
H177 H 0.5877 0.329 0.78414 0.0
H178 H 0.56228 0.26838 0.85178 0.0
C179 C 0.58997 0.30008 0.84844 0.0
C180 C 0.90513 0.76762 0.36619 0.0
C181 C 0.89638 0.77904 0.38487 0.0
C182 C 0.87455 0.76765 0.39574 0.0
C183 C 0.87023 0.73451 0.36957 0.0
C184 C 0.8916 0.74546 0.3587 0.0
C185 C 0.8973 0.73091 0.33862 0.0
H186 H 0.86498 0.63138 0.27279 0.0
C187 C 0.86032 0.71183 0.35781 0.0
C188 C 0.87597 0.7095 0.33949 0.0
H189 H 0.92761 0.68894 0.2641 0.0
H190 H 0.91554 0.70848 0.29743 0.0
H191 H 0.87069 0.62886 0.32947 0.0
H192 H 0.82439 0.66397 0.28332 0.0
H193 H 0.8061 0.65011 0.30605 0.0
H194 H 0.81926 0.63256 0.28616 0.0
H195 H 0.84454 0.61302 0.31229 0.0
H196 H 0.8406 0.62465 0.34064 0.0
C197 C 0.92311 0.72427 0.34414 0.0
C198 C 0.89586 0.74524 0.31566 0.0
C199 C 0.78225 0.65962 0.38854 0.0
C200 C 0.76788 0.63765 0.38189 0.0
C201 C 0.77553 0.62611 0.36274 0.0
C202 C 0.79685 0.63631 0.35044 0.0
C203 C 0.81086 0.65837 0.35729 0.0
C204 C 0.8034 0.66955 0.3761 0.0
C205 C 0.82026 0.69283 0.38107 0.0
C206 C 0.83922 0.69388 0.36224 0.0
C207 C 0.83373 0.6737 0.34826 0.0
C208 C 0.83249 0.69155 0.40605 0.0
C209 C 0.80442 0.71225 0.37755 0.0
C210 C 0.87601 0.6483 0.27784 0.0
C211 C 0.89737 0.65847 0.26552 0.0
C212 C 0.91129 0.6804 0.27325 0.0
C213 C 0.90414 0.69188 0.29259 0.0
C214 C 0.88273 0.6815 0.30458 0.0
C215 C 0.86911 0.66 0.29715 0.0
C216 C 0.84699 0.65142 0.31206 0.0
C217 C 0.84939 0.67131 0.3295 0.0
C218 C 0.87043 0.68903 0.3251 0.0
C219 C 0.85062 0.62818 0.32421 0.0
C220 C 0.82281 0.64919 0.29619 0.0
H221 H 0.84519 0.7381 0.39751 0.0
H222 H 0.92177 0.77592 0.35737 0.0
H223 H 0.88001 0.75476 0.31568 0.0
H224 H 0.89225 0.73414 0.29991 0.0
H225 H 0.91335 0.75849 0.31359 0.0
H226 H 0.92509 0.7193 0.36295 0.0
H227 H 0.93857 0.73927 0.34051 0.0
H228 H 0.9258 0.70888 0.33424 0.0
H229 H 0.77735 0.66893 0.40334 0.0
H230 H 0.7648 0.60931 0.35697 0.0
H231 H 0.80153 0.62667 0.33599 0.0
H232 H 0.83645 0.67372 0.40982 0.0
H233 H 0.81995 0.69539 0.41963 0.0
H234 H 0.85087 0.70348 0.40837 0.0
H235 H 0.78888 0.7071 0.36415 0.0
H236 H 0.8153 0.72892 0.37075 0.0
H237 H 0.79591 0.7157 0.39411 0.0
H238 H 0.86758 0.77575 0.41033 0.0
C239 C 0.86157 0.74562 0.38829 0.0
C240 C 0.7109 0.72528 0.89604 0.0
C241 C 0.7292 0.71387 0.88762 0.0
C242 C 0.73789 0.71943 0.86495 0.0
C243 C 0.71205 0.74883 0.86037 0.0
C244 C 0.70249 0.74255 0.88207 0.0
C245 C 0.6835 0.75681 0.88837 0.0
H246 H 0.62762 0.8494 0.86428 0.0
C247 C 0.70107 0.76863 0.85111 0.0
C248 C 0.68399 0.77318 0.86724 0.0
H249 H 0.61615 0.80119 0.92316 0.0
H250 H 0.64392 0.77834 0.90716 0.0
H251 H 0.62602 0.80977 0.82446 0.0
H252 H 0.68549 0.85382 0.86436 0.0
H253 H 0.69613 0.85254 0.83603 0.0
H254 H 0.66879 0.86493 0.84023 0.0
H255 H 0.63507 0.84076 0.8191 0.0
H256 H 0.6501 0.81987 0.80519 0.0
C257 C 0.65777 0.74002 0.89019 0.0
C258 C 0.69319 0.7703 0.91119 0.0
C259 C 0.73614 0.81292 0.7787 0.0
C260 C 0.73186 0.83365 0.76746 0.0
C261 C 0.71265 0.84438 0.77524 0.0
C262 C 0.69854 0.83508 0.79429 0.0
C263 C 0.70378 0.81493 0.80592 0.0
C264 C 0.72205 0.804 0.79787 0.0
C265 C 0.7254 0.78304 0.81266 0.0
C266 C 0.7063 0.78338 0.83112 0.0
C267 C 0.69381 0.80214 0.82712 0.0
C268 C 0.71858 0.76082 0.79721 0.0
C269 C 0.75263 0.78784 0.8233 0.0
C270 C 0.63109 0.83392 0.87375 0.0
C271 C 0.61987 0.8272 0.89511 0.0
C272 C 0.6245 0.80668 0.90662 0.0
C273 C 0.64076 0.79354 0.89739 0.0
C274 C 0.65257 0.80103 0.87644 0.0
C275 C 0.64727 0.82068 0.86481 0.0
C276 C 0.6615 0.82617 0.84286 0.0
C277 C 0.6762 0.80652 0.84316 0.0
C278 C 0.67111 0.79198 0.86298 0.0
C279 C 0.64233 0.82425 0.82169 0.0
C280 C 0.67881 0.85067 0.84575 0.0
H281 H 0.73709 0.74049 0.8344 0.0
H282 H 0.70361 0.72111 0.91325 0.0
H283 H 0.71359 0.7777 0.91059 0.0
H284 H 0.68429 0.78547 0.91398 0.0
H285 H 0.69031 0.75848 0.92676 0.0
H286 H 0.65605 0.72485 0.87818 0.0
H287 H 0.65514 0.73288 0.90828 0.0
H288 H 0.6419 0.74852 0.88475 0.0
H289 H 0.75043 0.80398 0.77296 0.0
H290 H 0.70905 0.86046 0.7671 0.0
H291 H 0.6845 0.8443 0.79957 0.0
H292 H 0.70446 0.76295 0.78299 0.0
H293 H 0.73532 0.75708 0.78878 0.0
H294 H 0.7097 0.7451 0.80716 0.0
H295 H 0.75826 0.80641 0.82907 0.0
H296 H 0.75519 0.77723 0.83909 0.0
H297 H 0.76602 0.78474 0.81019 0.0
H298 H 0.75211 0.71105 0.8581 0.0
C299 C 0.72935 0.73675 0.85128 0.0
C300 C 0.87354 0.25026 0.39273 0.0
C301 C 0.88335 0.23256 0.38205 0.0
C302 C 0.87708 0.22753 0.3582 0.0
C303 C 0.85027 0.25625 0.35651 0.0
C304 C 0.85721 0.26197 0.3796 0.0
C305 C 0.84471 0.281 0.38816 0.0
H306 H 0.75983 0.35104 0.36768 0.0
C307 C 0.83191 0.27051 0.34821 0.0
C308 C 0.82883 0.28538 0.36651 0.0
H309 H 0.80509 0.34582 0.43113 0.0
H310 H 0.82551 0.31799 0.41248 0.0
H311 H 0.74614 0.29827 0.35895 0.0
H312 H 0.80422 0.3508 0.33057 0.0
H313 H 0.79073 0.33233 0.30738 0.0
H314 H 0.77159 0.34875 0.3226 0.0
H315 H 0.73971 0.31814 0.33608 0.0
H316 H 0.74824 0.29049 0.32974 0.0
C317 C 0.82843 0.27092 0.40887 0.0
C318 C 0.86529 0.3027 0.3944 0.0
C319 C 0.78467 0.2519 0.26991 0.0
C320 C 0.76468 0.26039 0.25858 0.0
C321 C 0.75684 0.27988 0.26803 0.0
C322 C 0.76796 0.29006 0.28898 0.0
C323 C 0.78699 0.28054 0.30077 0.0
C324 C 0.79544 0.26214 0.29092 0.0
C325 C 0.81557 0.25408 0.30604 0.0
C326 C 0.81728 0.27025 0.32692 0.0
C327 C 0.80042 0.28559 0.32378 0.0
C328 C 0.80596 0.228 0.31283 0.0
C329 C 0.84007 0.25863 0.29247 0.0
C330 C 0.77455 0.34434 0.37741 0.0
C331 C 0.78101 0.35077 0.40084 0.0
C332 C 0.79975 0.34107 0.41308 0.0
C333 C 0.81157 0.32493 0.40221 0.0
C334 C 0.80435 0.3182 0.37894 0.0
C335 C 0.78629 0.32808 0.36692 0.0
C336 C 0.78006 0.31821 0.34275 0.0
C337 C 0.79762 0.30098 0.34205 0.0
C338 C 0.81177 0.30095 0.36329 0.0
C339 C 0.7521 0.30573 0.34156 0.0
C340 C 0.78677 0.33849 0.32474 0.0
H341 H 0.85633 0.23433 0.32746 0.0
H342 H 0.87827 0.25475 0.41094 0.0
H343 H 0.88079 0.30464 0.38207 0.0
H344 H 0.85845 0.31937 0.39283 0.0
H345 H 0.87348 0.30107 0.41241 0.0
H346 H 0.81908 0.25238 0.4055 0.0
H347 H 0.84003 0.2712 0.42544 0.0
H348 H 0.81303 0.28027 0.41158 0.0
H349 H 0.791 0.23683 0.26323 0.0
H350 H 0.74176 0.287 0.25942 0.0
H351 H 0.76085 0.30457 0.2955 0.0
H352 H 0.78589 0.22504 0.3172 0.0
H353 H 0.80756 0.2162 0.29812 0.0
H354 H 0.81578 0.22225 0.32853 0.0
H355 H 0.84052 0.27338 0.27967 0.0
H356 H 0.85696 0.2641 0.30413 0.0
H357 H 0.84204 0.24288 0.28252 0.0
H358 H 0.88418 0.21385 0.3496 0.0
C359 C 0.86071 0.2393 0.34539 0.0
C360 C 0.39884 0.67297 0.28828 0.0
C361 C 0.38874 0.6505 0.29734 0.0
C362 C 0.36699 0.63734 0.28612 0.0
C363 C 0.36613 0.66827 0.25715 0.0
C364 C 0.38732 0.68143 0.26813 0.0
C365 C 0.39581 0.70457 0.25558 0.0
H366 H 0.37886 0.7771 0.16336 0.0
C367 C 0.35889 0.68166 0.2365 0.0
C368 C 0.37624 0.70303 0.23536 0.0
H369 H 0.43702 0.78948 0.21843 0.0
H370 H 0.41938 0.75232 0.23681 0.0
H371 H 0.3346 0.7582 0.19651 0.0
H372 H 0.38031 0.72305 0.15586 0.0
H373 H 0.34948 0.70714 0.15245 0.0
H374 H 0.35657 0.73738 0.14287 0.0
H375 H 0.32999 0.75525 0.1653 0.0
H376 H 0.31469 0.73305 0.18517 0.0
C377 C 0.39434 0.72465 0.27257 0.0
C378 C 0.42233 0.70508 0.24681 0.0
C379 C 0.2826 0.64632 0.1844 0.0
C380 C 0.27142 0.65436 0.16386 0.0
C381 C 0.28199 0.67664 0.15469 0.0
C382 C 0.30329 0.69051 0.16554 0.0
C383 C 0.31436 0.68216 0.18589 0.0
C384 C 0.30396 0.66045 0.19505 0.0
C385 C 0.31829 0.65453 0.21684 0.0
C386 C 0.33894 0.67629 0.21923 0.0
C387 C 0.33655 0.69235 0.20102 0.0
C388 C 0.30048 0.65195 0.23751 0.0
C389 C 0.32883 0.63224 0.21187 0.0
C390 C 0.38802 0.77177 0.17925 0.0
C391 C 0.40954 0.78624 0.18926 0.0
C392 C 0.42038 0.77875 0.21033 0.0
C393 C 0.41018 0.75709 0.22092 0.0
C394 C 0.3888 0.74271 0.21044 0.0
C395 C 0.37805 0.75033 0.19003 0.0
C396 C 0.35523 0.73323 0.18136 0.0
C397 C 0.35409 0.71387 0.1997 0.0
C398 C 0.37381 0.71934 0.21677 0.0
C399 C 0.33235 0.74544 0.18188 0.0
C400 C 0.36039 0.72476 0.15679 0.0
H401 H 0.33923 0.63506 0.25863 0.0
H402 H 0.41559 0.68351 0.29639 0.0
H403 H 0.4237 0.68769 0.23968 0.0
H404 H 0.42719 0.71772 0.23233 0.0
H405 H 0.43677 0.70927 0.26133 0.0
H406 H 0.37723 0.72018 0.28291 0.0
H407 H 0.41083 0.72782 0.28513 0.0
H408 H 0.39289 0.74126 0.26339 0.0
H409 H 0.27516 0.62925 0.19187 0.0
H410 H 0.27357 0.68356 0.1392 0.0
H411 H 0.31031 0.70724 0.15759 0.0
H412 H 0.28771 0.66475 0.23572 0.0
H413 H 0.28866 0.63406 0.23811 0.0
H414 H 0.31049 0.65582 0.25469 0.0
H415 H 0.33382 0.63184 0.19323 0.0
H416 H 0.34641 0.63152 0.22207 0.0
H417 H 0.31485 0.61602 0.21535 0.0
H418 H 0.35852 0.62022 0.29288 0.0
C419 C 0.35568 0.64606 0.26622 0.0
C420 C 0.1031 0.2806 0.69853 0.0
C421 C 0.11039 0.27055 0.67822 0.0
C422 C 0.13155 0.28262 0.66679 0.0
C423 C 0.13754 0.31412 0.69509 0.0
C424 C 0.11683 0.3025 0.70651 0.0
C425 C 0.11145 0.31649 0.72717 0.0
H426 H 0.14303 0.4157 0.79361 0.0
C427 C 0.14767 0.33648 0.70739 0.0
C428 C 0.13245 0.33818 0.72624 0.0
H429 H 0.08116 0.35745 0.8025 0.0
H430 H 0.09354 0.33807 0.76919 0.0
H431 H 0.13737 0.41851 0.73719 0.0
H432 H 0.18391 0.38344 0.78307 0.0
H433 H 0.20212 0.39698 0.76019 0.0
H434 H 0.18926 0.41484 0.78002 0.0
H435 H 0.16333 0.43432 0.75463 0.0
H436 H 0.16755 0.42319 0.72614 0.0
C437 C 0.08533 0.3228 0.72255 0.0
C438 C 0.11375 0.3018 0.74974 0.0
C439 C 0.2257 0.38939 0.67726 0.0
C440 C 0.24009 0.4112 0.68435 0.0
C441 C 0.23253 0.42228 0.70386 0.0
C442 C 0.21127 0.41178 0.71606 0.0
C443 C 0.19719 0.3899 0.70876 0.0
C444 C 0.20457 0.37917 0.68961 0.0
C445 C 0.18749 0.35612 0.68406 0.0
C446 C 0.16867 0.35459 0.7031 0.0
C447 C 0.17434 0.37439 0.71759 0.0
C448 C 0.17515 0.35814 0.65922 0.0
C449 C 0.20318 0.33654 0.68683 0.0
C450 C 0.13221 0.39868 0.7886 0.0
C451 C 0.11095 0.38828 0.80094 0.0
C452 C 0.09736 0.36619 0.79329 0.0
C453 C 0.10467 0.35483 0.77394 0.0
C454 C 0.12586 0.36553 0.7618 0.0
C455 C 0.13925 0.38711 0.76926 0.0
C456 C 0.16126 0.39598 0.75433 0.0
C457 C 0.15889 0.37631 0.73664 0.0
C458 C 0.13807 0.35836 0.74103 0.0
C459 C 0.15745 0.41931 0.74249 0.0
C460 C 0.18552 0.39814 0.7701 0.0
H461 H 0.16095 0.31219 0.66542 0.0
H462 H 0.08684 0.27187 0.70766 0.0
H463 H 0.13023 0.29314 0.7493 0.0
H464 H 0.11683 0.31254 0.76574 0.0
H465 H 0.09681 0.28784 0.7516 0.0
H466 H 0.0825 0.32756 0.70378 0.0
H467 H 0.0702 0.30771 0.72677 0.0
H468 H 0.08288 0.33825 0.73248 0.0
H469 H 0.23053 0.38048 0.66215 0.0
H470 H 0.24328 0.43896 0.70994 0.0
H471 H 0.20663 0.4211 0.73078 0.0
H472 H 0.17302 0.3765 0.6552 0.0
H473 H 0.18661 0.3528 0.64547 0.0
H474 H 0.15588 0.34772 0.6574 0.0
H475 H 0.21739 0.34042 0.70161 0.0
H476 H 0.19187 0.31921 0.69124 0.0
H477 H 0.21332 0.33497 0.6707 0.0
H478 H 0.13784 0.27524 0.65139 0.0
C479 C 0.14508 0.30414 0.67507 0.0
Tb480 Tb 0.98241 1.01427 0.53772 0.0
Tb481 Tb 0.03759 0.03278 0.52386 0.0
C482 C 0.93989 0.98858 0.53976 0.0
C483 C 0.92392 0.97689 0.55818 0.0
C484 C 0.90754 0.95561 0.5532 0.0
C485 C 0.89241 0.94395 0.57051 0.0
C486 C 0.89336 0.95347 0.59308 0.0
C487 C 0.90982 0.97486 0.59801 0.0
C488 C 0.9251 0.98642 0.58072 0.0
C489 C 0.00479 0.04991 0.56516 0.0
C490 C 0.02791 0.99605 0.5646 0.0
C491 C 0.07954 0.05535 0.51267 0.0
C492 C 0.09055 0.07872 0.50354 0.0
C493 C 0.11587 0.08802 0.50884 0.0
C494 C 0.12769 0.10864 0.49786 0.0
C495 C 0.11433 0.12032 0.48135 0.0
C496 C 0.08859 0.11155 0.477 0.0
C497 C 0.07682 0.09089 0.48796 0.0
C498 C 0.01378 0.99277 0.50483 0.0
C499 C 0.99333 0.05617 0.5023 0.0
O500 O 0.96033 0.98042 0.53677 0.0
O501 O 0.94368 1.01162 0.5391 0.0
O502 O 0.01329 0.04011 0.54882 0.0
O503 O 0.98196 0.03857 0.56729 0.0
O504 O 0.00363 0.99211 0.55852 0.0
O505 O 0.04435 1.01331 0.55543 0.0
O506 O 0.07202 0.05418 0.53422 0.0
O507 O 0.06384 0.04184 0.49823 0.0
O508 O 0.00459 1.01059 0.50866 0.0
O509 O 0.03746 0.99752 0.5107 0.0
O510 O 0.01748 0.05894 0.50852 0.0
O511 O 0.97679 0.03754 0.50867 0.0
H512 H 0.90648 0.94799 0.53591 0.0
H513 H 0.87975 0.92762 0.56616 0.0
H514 H 0.91114 0.98245 0.61532 0.0
H515 H 0.93786 1.00274 0.58497 0.0
H516 H 0.12678 0.07879 0.52076 0.0
H517 H 0.14758 0.11473 0.50141 0.0
H518 H 0.0777 0.1203 0.46462 0.0
H519 H 0.05727 0.08394 0.48355 0.0
Tb520 Tb 0.52431 0.03886 0.03943 0.0
Tb521 Tb 0.46685 1.01995 1.02797 0.0
C522 C 0.56681 0.06484 0.03921 0.0
C523 C 0.58406 0.0786 0.05655 0.0
C524 C 0.5757 0.08386 0.0783 0.0
C525 C 0.59189 0.09826 0.09408 0.0
C526 C 0.61676 0.10754 0.08838 0.0
C527 C 0.62515 0.10172 0.06674 0.0
C528 C 0.60889 0.08739 0.05094 0.0
C529 C 0.50535 1.0036 0.06807 0.0
C530 C 0.48265 0.05718 0.06757 0.0
C531 C 0.42369 0.99656 1.01931 0.0
C532 C 0.4122 0.97232 1.01293 0.0
C533 C 0.38735 0.96339 1.01843 0.0
C534 C 0.37509 0.94146 1.01011 0.0
C535 C 0.38754 0.92812 0.9961 0.0
C536 C 0.41289 0.93664 0.99165 0.0
C537 C 0.42509 0.95858 0.99995 0.0
C538 C 0.48808 0.05918 1.00672 0.0
C539 C 0.50825 0.99621 1.006 0.0
O540 O 0.54586 0.07234 1.03458 0.0
O541 O 0.56335 0.04192 0.04163 0.0
O542 O 0.49492 1.01361 0.05197 0.0
O543 O 0.52857 1.01453 0.06935 0.0
O544 O 0.50607 0.06101 0.06071 0.0
O545 O 0.4648 0.04011 0.05908 0.0
O546 O 0.43372 0.99983 0.04063 0.0
O547 O 0.43751 1.00875 1.00344 0.0
O548 O 0.49774 0.0415 1.01124 0.0
O549 O 0.4651 0.0547 1.01301 0.0
O550 O 0.48519 0.99337 1.01352 0.0
O551 O 0.52564 1.01502 1.01095 0.0
H552 H 0.55652 0.07719 0.08288 0.0
H553 H 0.58473 0.1026 0.11046 0.0
H554 H 0.64428 0.10826 0.06197 0.0
H555 H 0.61563 0.08341 1.03422 0.0
H556 H 0.37712 0.97378 1.02842 0.0
H557 H 0.3555 0.93552 1.01364 0.0
H558 H 0.42308 0.92666 0.98116 0.0
H559 H 0.44427 0.96516 0.99547 0.0
Tb560 Tb 0.50165 0.5528 0.54008 0.0
Tb561 Tb 0.50281 0.50177 0.52289 0.0
C562 C 0.48786 0.59143 0.54103 0.0
C563 C 0.47074 0.60092 0.5555 0.0
C564 C 0.46454 0.62267 0.54969 0.0
C565 C 0.44598 0.63057 0.56158 0.0
C566 C 0.4332 0.61671 0.57935 0.0
C567 C 0.44 0.59516 0.58553 0.0
C568 C 0.45867 0.58735 0.57371 0.0
C569 C 0.51922 0.52713 0.57375 0.0
C570 C 0.4582 0.5088 0.55306 0.0
C571 C 0.51566 0.46361 0.51454 0.0
C572 C 0.53817 0.45698 0.50566 0.0
C573 C 0.54565 0.43654 0.51423 0.0
C574 C 0.5674 0.43031 0.50653 0.0
C575 C 0.58211 0.44449 0.49016 0.0
C576 C 0.57456 0.46503 0.48165 0.0
C577 C 0.55274 0.47119 0.4893 0.0
C578 C 0.479 0.52816 0.49544 0.0
C579 C 0.54906 0.5449 0.51378 0.0
O580 O 0.47688 0.57392 0.52764 0.0
O581 O 0.50871 0.58768 0.5516 0.0
O582 O 0.51092 0.52171 0.55333 0.0
O583 O 0.51807 0.54912 0.57606 0.0
O584 O 0.46528 0.53192 0.55012 0.0
O585 O 0.4714 0.49358 0.54573 0.0
O586 O 0.51859 0.47342 0.53521 0.0
O587 O 0.50243 0.47421 0.49964 0.0
O588 O 0.4989 0.53469 0.50766 0.0
O589 O 0.47216 0.50549 0.49744 0.0
O590 O 0.54003 0.52185 0.51409 0.0
O591 O 0.53651 0.56042 0.52165 0.0
H592 H 0.47353 0.63322 0.53549 0.0
H593 H 0.44097 0.64712 0.55625 0.0
H594 H 0.43071 0.58423 0.59931 0.0
H595 H 0.46323 0.57046 0.57837 0.0
H596 H 0.53472 0.42547 0.52701 0.0
H597 H 0.57288 0.41454 0.51364 0.0
H598 H 0.58532 0.47618 0.46884 0.0
H599 H 0.54729 0.48707 0.48244 0.0
Tb600 Tb 1.00042 0.54413 1.01644 0.0
Tb601 Tb 0.00638 0.50406 0.04834 0.0
C602 C 0.98339 0.5745 0.99223 0.0
C603 C 0.96133 0.58542 0.99279 0.0
C604 C 0.93983 0.5743 1.00416 0.0
C605 C 0.91824 0.58401 1.00287 0.0
C606 C 0.91791 0.60502 0.99029 0.0
C607 C 0.93982 0.61642 0.9796 0.0
C608 C 0.96132 0.60667 0.98084 0.0
C609 C 0.04546 0.5475 0.03686 0.0
C610 C 0.98144 0.54247 0.06907 0.0
C611 C 0.02348 0.47346 0.07211 0.0
C612 C 0.04472 0.46162 0.07005 0.0
C613 C 0.06594 0.47233 0.05803 0.0
C614 C 0.08656 0.46138 0.05726 0.0
C615 C 0.0862 0.4395 0.06836 0.0
C616 C 0.06459 0.42859 0.07979 0.0
C617 C 0.04405 0.4396 0.08064 0.0
C618 C 0.96128 0.50095 1.02809 0.0
C619 C 0.02542 0.50566 0.99574 0.0
O620 O 0.97874 0.5521 0.98737 0.0
O621 O 1.00019 0.57975 1.00944 0.0
O622 O 0.02483 0.53971 0.04585 0.0
O623 O 0.04123 0.55545 1.01599 0.0
O624 O 0.97887 0.54985 0.04706 0.0
O625 O 0.99402 0.52563 0.07432 0.0
O626 O 0.02933 0.49598 0.07645 0.0
O627 O 0.00533 0.46838 0.05608 0.0
O628 O 0.98192 0.50851 1.019 0.0
O629 O 0.96555 0.49309 0.049 0.0
O630 O 0.02768 0.49808 1.01769 0.0
O631 O 0.01312 0.5227 0.9905 0.0
H632 H 0.93955 0.55787 1.01356 0.0
H633 H 0.90174 0.57494 1.01144 0.0
H634 H 0.94007 0.63242 0.96948 0.0
H635 H 0.97776 0.61541 0.97194 0.0
H636 H 0.06673 0.48932 0.0496 0.0
H637 H 0.10285 0.4701 0.04816 0.0
H638 H 0.06388 0.41189 0.08877 0.0
H639 H 0.0278 0.4311 0.08995 0.0
H640 H 0.24495 0.27765 0.3457 0.0
H641 H 0.22097 0.26076 0.37926 0.0
H642 H 0.22643 0.19123 0.35763 0.0
H643 H 0.25004 0.20782 0.32405 0.0
H644 H 0.17518 0.22887 0.37789 0.0
H645 H 0.24854 0.19163 0.42724 0.0
H646 H 0.25566 0.21341 0.40428 0.0
H647 H 0.24497 0.18294 0.39706 0.0
C648 C 0.2411 0.25877 0.34814 0.0
C649 C 0.24956 0.24409 0.33228 0.0
C650 C 0.2275 0.24917 0.36736 0.0
C651 C 0.22231 0.22479 0.37112 0.0
C652 C 0.23079 0.21014 0.35538 0.0
H653 H 0.10808 0.12797 0.43435 0.0
H654 H 0.13343 0.15741 0.41003 0.0
C655 C 0.24433 0.21967 0.3362 0.0
C656 C 0.20684 0.21436 0.39068 0.0
H657 H 0.20599 0.176 0.43673 0.0
C658 C 0.182 0.21762 0.39101 0.0
C659 C 0.2159 0.19999 0.40798 0.0
C660 C 0.24281 0.19696 0.40932 0.0
C661 C 0.16555 0.20578 0.40742 0.0
C662 C 0.17413 0.19007 0.42364 0.0
C663 C 0.19936 0.18789 0.42415 0.0
C664 C 0.15692 0.17429 0.43892 0.0
C665 C 0.13904 0.20991 0.40699 0.0
C666 C 0.16174 0.17391 0.46329 0.0
C667 C 0.14723 0.15702 0.4773 0.0
C668 C 0.12776 0.14011 0.46716 0.0
C669 C 0.12257 0.14101 0.44282 0.0
C670 C 0.13706 0.15787 0.42885 0.0
H671 H 0.13781 0.22744 0.39941 0.0
H672 H 0.12686 0.19644 0.39584 0.0
H673 H 0.13166 0.20861 0.42486 0.0
H674 H 0.17708 0.18637 0.47138 0.0
H675 H 0.15157 0.15691 0.49602 0.0
H676 H 0.25143 0.82771 0.84063 0.0
H677 H 0.27474 0.84531 0.87541 0.0
H678 H 0.27608 0.77643 0.90443 0.0
H679 H 0.25245 0.7585 0.86946 0.0
H680 H 0.26414 0.84094 0.92303 0.0
H681 H 0.35062 0.8083 0.90389 0.0
H682 H 0.32505 0.80748 0.88243 0.0
H683 H 0.32229 0.78668 0.90628 0.0
C684 C 0.2562 0.81623 0.85456 0.0
C685 C 0.25003 0.79168 0.85228 0.0
C686 C 0.26966 0.82634 0.87439 0.0
C687 C 0.27734 0.81218 0.89236 0.0
C688 C 0.27065 0.78765 0.89056 0.0
H689 H 0.35246 0.89264 1.01438 0.0
H690 H 0.32565 0.8602 0.99291 0.0
C691 C 0.25716 0.77746 0.87061 0.0
C692 C 0.29313 0.82353 0.91236 0.0
H693 H 0.35334 0.83451 0.9351 0.0
C694 C 0.28353 0.83926 0.92602 0.0
C695 C 0.31844 0.82134 0.916 0.0
C696 C 0.3299 0.80518 0.90134 0.0
C697 C 0.29889 0.85378 0.94244 0.0
C698 C 0.32442 0.85214 0.94556 0.0
C699 C 0.33371 0.83557 0.93273 0.0
C700 C 0.3424 0.86957 0.95959 0.0
C701 C 0.28806 0.8718 0.95515 0.0
C702 C 0.36134 0.88491 0.94818 0.0
C703 C 0.37667 0.9033 0.96035 0.0
C704 C 0.3734 0.90671 0.98423 0.0
C705 C 0.35518 0.89064 0.99591 0.0
C706 C 0.33987 0.87213 0.9837 0.0
H707 H 0.26924 0.87344 0.9477 0.0
H708 H 0.28618 0.86657 0.97386 0.0
H709 H 0.30063 0.8893 0.95436 0.0
H710 H 0.36356 0.88327 0.92956 0.0
H711 H 0.39028 0.91551 0.95073 0.0
H712 H 0.61019 0.45101 0.76144 0.0
H713 H 0.59338 0.46806 0.72627 0.0
H714 H 0.5709 0.39915 0.69631 0.0
H715 H 0.58826 0.38184 0.73137 0.0
H716 H 0.60894 0.46325 0.67888 0.0
H717 H 0.50704 0.42928 0.68856 0.0
H718 H 0.52963 0.43065 0.71298 0.0
H719 H 0.52746 0.40836 0.69123 0.0
C720 C 0.60181 0.43939 0.74738 0.0
C721 C 0.60085 0.415 0.74927 0.0
C722 C 0.59205 0.4492 0.7273 0.0
C723 C 0.58077 0.43491 0.70868 0.0
C724 C 0.57923 0.41051 0.71059 0.0
H725 H 0.51025 0.4789 0.57739 0.0
H726 H 0.52623 0.45497 0.6083 0.0
C727 C 0.58913 0.40063 0.7307 0.0
C728 C 0.57166 0.4459 0.687 0.0
H729 H 0.51864 0.45282 0.65532 0.0
C730 C 0.5892 0.46088 0.67366 0.0
C731 C 0.54594 0.44262 0.68006 0.0
C732 C 0.5263 0.42699 0.69395 0.0
C733 C 0.58174 0.47288 0.65377 0.0
C734 C 0.55592 0.47039 0.64732 0.0
C735 C 0.53841 0.45484 0.66027 0.0
C736 C 0.54673 0.48468 0.62801 0.0
C737 C 0.60169 0.48801 0.63976 0.0
C738 C 0.55257 0.50933 0.62885 0.0
C739 C 0.54383 0.52292 0.61101 0.0
C740 C 0.52894 0.51223 0.59193 0.0
C741 C 0.52259 0.4876 0.59128 0.0
C742 C 0.53141 0.47393 0.60916 0.0
H743 H 0.61988 0.48211 0.64208 0.0
H744 H 0.59617 0.48779 0.62077 0.0
H745 H 0.60461 0.50639 0.64596 0.0
H746 H 0.56368 0.51812 0.64351 0.0
H747 H 0.54867 0.54188 0.61222 0.0
H748 H 0.94509 0.65626 0.25286 0.0
H749 H 0.95763 0.63703 0.21892 0.0
H750 H 0.88007 0.61366 0.19704 0.0
H751 H 0.86732 0.63296 0.23092 0.0
H752 H 0.90634 0.57855 0.19377 0.0
H753 H 0.95808 0.6587 0.15109 0.0
H754 H 0.9691 0.65492 0.18077 0.0
H755 H 0.93777 0.65985 0.17492 0.0
C756 C 0.93062 0.64732 0.24071 0.0
C757 C 0.90512 0.64642 0.24474 0.0
C758 C 0.93788 0.63628 0.2212 0.0
C759 C 0.91988 0.62417 0.20501 0.0
C760 C 0.8944 0.62293 0.20913 0.0
H761 H 0.95471 0.57831 0.06621 0.0
H762 H 0.93856 0.59751 0.09846 0.0
C763 C 0.88712 0.63393 0.22866 0.0
C764 C 0.92757 0.61237 0.18412 0.0
H765 H 0.96333 0.62212 0.13583 0.0
C766 C 0.91871 0.58814 0.18107 0.0
C767 C 0.94342 0.6248 0.16718 0.0
C768 C 0.95246 0.65104 0.16846 0.0
C769 C 0.92572 0.57599 0.16207 0.0
C770 C 0.94242 0.58823 0.1457 0.0
C771 C 0.95076 0.61258 0.1484 0.0
C772 C 0.95173 0.57609 0.1259 0.0
C773 C 0.9148 0.55015 0.15957 0.0
C774 C 0.96474 0.5577 0.13038 0.0
C775 C 0.97395 0.54664 0.11196 0.0
C776 C 0.9706 0.55375 0.08847 0.0
C777 C 0.9576 0.57223 0.08399 0.0
C778 C 0.94838 0.5833 0.10247 0.0
H779 H 0.89707 0.5451 0.16888 0.0
H780 H 0.91106 0.54524 0.14085 0.0
H781 H 0.92833 0.53983 0.16738 0.0
H782 H 0.96817 0.55208 0.14822 0.0
H783 H 0.98401 0.53266 0.11625 0.0
H784 H 0.42072 0.23018 0.17454 0.0
H785 H 0.44283 0.20463 0.15345 0.0
H786 H 0.40266 0.14425 0.18991 0.0
H787 H 0.38021 0.16948 0.21077 0.0
H788 H 0.45605 0.14522 0.18482 0.0
H789 H 0.4038 0.16036 0.1015 0.0
H790 H 0.4202 0.18614 0.11662 0.0
H791 H 0.39407 0.16761 0.12977 0.0
C792 C 0.41666 0.21147 0.17813 0.0
C793 C 0.39856 0.20184 0.19421 0.0
C794 C 0.42937 0.19694 0.16615 0.0
C795 C 0.42414 0.17259 0.17 0.0
C796 C 0.40696 0.16304 0.18677 0.0
H797 H 0.43632 0.057 0.08402 0.0
H798 H 0.42437 0.08533 0.11009 0.0
C799 C 0.39423 0.17752 0.19874 0.0
C800 C 0.43513 0.15677 0.15544 0.0
H801 H 0.43278 0.13531 0.09998 0.0
C802 C 0.45118 0.14314 0.16623 0.0
C803 C 0.42842 0.154 0.13128 0.0
C804 C 0.41054 0.16763 0.11903 0.0
C805 C 0.46062 0.12663 0.15342 0.0
C806 C 0.45382 0.12383 0.12929 0.0
C807 C 0.43798 0.13763 0.11849 0.0
C808 C 0.46183 0.10589 0.11503 0.0
C809 C 0.47714 0.11177 0.16582 0.0
C810 C 0.48693 0.10804 0.10935 0.0
C811 C 0.49389 0.09188 0.09436 0.0
C812 C 0.4758 0.07334 0.08479 0.0
C813 C 0.45076 0.07102 0.09102 0.0
C814 C 0.44386 0.0872 0.10591 0.0
H815 H 0.47738 0.11347 0.18519 0.0
H816 H 0.47072 0.093 0.16119 0.0
H817 H 0.4966 0.11734 0.16008 0.0
H818 H 0.50101 0.12254 0.11603 0.0
H819 H 0.51334 0.09421 0.08993 0.0
H820 H 0.10223 0.81802 0.66357 0.0
H821 H 0.08166 0.84577 0.64091 0.0
H822 H 0.11863 0.90202 0.68601 0.0
H823 H 0.13941 0.8746 0.70853 0.0
H824 H 0.06677 0.90104 0.67698 0.0
H825 H 0.11741 0.89624 0.59544 0.0
H826 H 0.10153 0.86858 0.60693 0.0
H827 H 0.12762 0.88548 0.62339 0.0
C828 C 0.10608 0.83632 0.66856 0.0
C829 C 0.12245 0.84409 0.68787 0.0
C830 C 0.09431 0.85213 0.65563 0.0
C831 C 0.09882 0.87596 0.6617 0.0
C832 C 0.11486 0.88368 0.6811 0.0
H833 H 0.07637 0.99694 0.58024 0.0
H834 H 0.09229 0.96776 0.60481 0.0
C835 C 0.12662 0.86795 0.69401 0.0
C836 C 0.08714 0.89305 0.64777 0.0
H837 H 0.08646 0.91964 0.59399 0.0
C838 C 0.07096 0.90507 0.6588 0.0
C839 C 0.09293 0.89841 0.62417 0.0
C840 C 0.11097 0.88668 0.61176 0.0
C841 C 0.06039 0.92238 0.64682 0.0
C842 C 0.066 0.92757 0.62316 0.0
C843 C 0.08214 0.91552 0.61212 0.0
C844 C 0.05588 0.94589 0.60961 0.0
C845 C 0.04383 0.93539 0.65971 0.0
C846 C 0.03008 0.94332 0.60433 0.0
C847 C 0.02086 0.96001 0.59029 0.0
C848 C 0.03733 0.9795 0.58118 0.0
C849 C 0.06313 0.9822 0.58694 0.0
C850 C 0.0723 0.96551 0.60094 0.0
H851 H 0.04584 0.93301 0.67902 0.0
H852 H 0.04824 0.95446 0.6555 0.0
H853 H 0.02397 0.92862 0.65415 0.0
H854 H 0.01714 0.92812 0.61058 0.0
H855 H 1.0009 0.9573 0.58616 0.0
H856 H 0.77457 0.42552 0.88212 0.0
H857 H 0.813 0.44625 0.90262 0.0
H858 H 0.78043 0.42644 0.96913 0.0
H859 H 0.74206 0.40595 0.94891 0.0
H860 H 0.82168 0.48314 0.93771 0.0
H861 H 0.84558 0.39963 0.97162 0.0
H862 H 0.8226 0.4006 0.94794 0.0
H863 H 0.81459 0.40338 0.97779 0.0
C864 C 0.77547 0.42585 0.90111 0.0
C865 C 0.75536 0.41376 0.91387 0.0
C866 C 0.79747 0.43764 0.91279 0.0
C867 C 0.79973 0.43751 0.9374 0.0
C868 C 0.77929 0.42635 0.95014 0.0
H869 H 0.91605 0.48101 0.04492 0.0
H870 H 0.8765 0.46784 1.02243 0.0
C871 C 0.75739 0.41458 0.93853 0.0
C872 C 0.82366 0.44823 0.94993 0.0
H873 H 0.86995 0.4348 0.98711 0.0
C874 C 0.83235 0.47261 0.94841 0.0
C875 C 0.83757 0.43442 0.96383 0.0
C876 C 0.82979 0.40803 0.96529 0.0
C877 C 0.85423 0.48362 0.96102 0.0
C878 C 0.86792 0.46981 0.97519 0.0
C879 C 0.85935 0.44541 0.97641 0.0
C880 C 0.89125 0.48008 0.98892 0.0
C881 C 0.86215 0.50999 0.95959 0.0
C882 C 0.91266 0.49154 0.97761 0.0
C883 C 0.93528 0.49907 0.99046 0.0
C884 C 0.93692 0.49514 1.01481 0.0
C885 C 0.91534 0.48424 1.02617 0.0
C886 C 0.89275 0.47671 1.01334 0.0
H887 H 0.84652 0.51845 0.95297 0.0
H888 H 0.86908 0.51741 0.97701 0.0
H889 H 0.87761 0.51456 0.94735 0.0
H890 H 0.91213 0.49391 0.95875 0.0
H891 H 0.95168 0.50723 0.9812 0.0
H892 H 0.75097 0.59121 0.39383 0.0
H893 H 0.71395 0.57432 0.41567 0.0
H894 H 0.69674 0.64323 0.42224 0.0
H895 H 0.73297 0.66008 0.39971 0.0
H896 H 0.70232 0.58286 0.46062 0.0
H897 H 0.6301 0.60607 0.39788 0.0
H898 H 0.66214 0.60773 0.39019 0.0
H899 H 0.6536 0.63098 0.40651 0.0
C900 C 0.73909 0.60274 0.39957 0.0
C901 C 0.74506 0.62706 0.39487 0.0
C902 C 0.71801 0.59306 0.41224 0.0
C903 C 0.70226 0.60741 0.42036 0.0
C904 C 0.70823 0.63167 0.4158 0.0
H905 H 0.57033 0.59051 0.50309 0.0
H906 H 0.60798 0.60472 0.48136 0.0
C907 C 0.72923 0.64134 0.40313 0.0
C908 C 0.67999 0.5972 0.43412 0.0
H909 H 0.61665 0.59339 0.43592 0.0
C910 C 0.68356 0.58499 0.45512 0.0
C911 C 0.65544 0.59993 0.42699 0.0
C912 C 0.64999 0.61168 0.40405 0.0
C913 C 0.66346 0.5761 0.46946 0.0
C914 C 0.63899 0.57919 0.46251 0.0
C915 C 0.63539 0.59114 0.44137 0.0
C916 C 0.61684 0.57038 0.47689 0.0
C917 C 0.66873 0.56409 0.49229 0.0
C918 C 0.6092 0.5463 0.48177 0.0
C919 C 0.58766 0.53808 0.49433 0.0
C920 C 0.57309 0.55374 0.50214 0.0
C921 C 0.58103 0.57789 0.49749 0.0
C922 C 0.60255 0.58607 0.48494 0.0
H923 H 0.68889 0.56844 0.49792 0.0
H924 H 0.65755 0.56908 0.50645 0.0
H925 H 0.66349 0.54478 0.49002 0.0
H926 H 0.61959 0.53374 0.47544 0.0
H927 H 0.58227 0.51941 0.4976 0.0
H928 H 0.26531 0.37142 0.16925 0.0
H929 H 0.23567 0.39059 0.14644 0.0
H930 H 0.23247 0.34055 0.091 0.0
H931 H 0.26192 0.321 0.11385 0.0
H932 H 0.23337 0.39505 0.07928 0.0
H933 H 0.16076 0.34733 0.13747 0.0
H934 H 0.18969 0.36212 0.15154 0.0
H935 H 0.18964 0.33748 0.13301 0.0
C936 C 0.2586 0.36472 0.15204 0.0
C937 C 0.26567 0.34454 0.14344 0.0
C938 C 0.24182 0.37575 0.13902 0.0
C939 C 0.23188 0.36684 0.11719 0.0
C940 C 0.24011 0.34768 0.10781 0.0
H941 H 0.08843 0.39338 0.06202 0.0
H942 H 0.12481 0.37485 0.06922 0.0
C943 C 0.25694 0.3366 0.12085 0.0
C944 C 0.21073 0.37578 0.10573 0.0
H945 H 0.14891 0.37608 0.11196 0.0
C946 C 0.21481 0.39081 0.0862 0.0
C947 C 0.18657 0.36986 0.11469 0.0
C948 C 0.18119 0.35319 0.13524 0.0
C949 C 0.19534 0.40079 0.07586 0.0
C950 C 0.17142 0.3957 0.08554 0.0
C951 C 0.16726 0.37999 0.10456 0.0
C952 C 0.15065 0.40733 0.07732 0.0
C953 C 0.20051 0.41669 0.05475 0.0
C954 C 0.15322 0.43176 0.07912 0.0
C955 C 0.13248 0.44237 0.07506 0.0
C956 C 0.10874 0.42868 0.06939 0.0
C957 C 0.10644 0.40433 0.06664 0.0
C958 C 0.1272 0.39375 0.0706 0.0
H959 H 0.21671 0.41309 0.04531 0.0
H960 H 0.1839 0.41465 0.04236 0.0
H961 H 0.20512 0.43522 0.0606 0.0
H962 H 0.17097 0.44251 0.08485 0.0
H963 H 0.13477 0.46113 0.07763 0.0
H964 H 0.54334 0.25302 0.88979 0.0
H965 H 0.52658 0.21677 0.91115 0.0
H966 H 0.59972 0.19856 0.91444 0.0
H967 H 0.61663 0.23489 0.89351 0.0
H968 H 0.52349 0.17094 0.90185 0.0
H969 H 0.58369 0.1931 0.9825 0.0
H970 H 0.58133 0.2143 0.95942 0.0
H971 H 0.6013 0.19326 0.95674 0.0
C972 C 0.55581 0.24121 0.89494 0.0
C973 C 0.58138 0.24698 0.89014 0.0
C974 C 0.54623 0.22052 0.90724 0.0
C975 C 0.56199 0.20513 0.91496 0.0
C976 C 0.58732 0.21045 0.90939 0.0
H977 H 0.53409 0.06862 0.98718 0.0
H978 H 0.55246 0.10385 0.96478 0.0
C979 C 0.59694 0.2312 0.89731 0.0
C980 C 0.55188 0.18349 0.92866 0.0
H981 H 0.55979 0.15422 0.98025 0.0
C982 C 0.53139 0.16737 0.91903 0.0
C983 C 0.56212 0.17874 0.95115 0.0
C984 C 0.58316 0.19586 0.96318 0.0
C985 C 0.5211 0.14663 0.93108 0.0
C986 C 0.53145 0.14188 0.95343 0.0
C987 C 0.55199 0.15784 0.96304 0.0
C988 C 0.52065 0.12075 0.96737 0.0
C989 C 0.49936 0.12978 0.91975 0.0
C990 C 0.49689 0.11875 0.97657 0.0
C991 C 0.48654 0.09884 0.98958 0.0
C992 C 0.49972 0.0805 0.99363 0.0
C993 C 0.5236 0.08257 0.98454 0.0
C994 C 0.53406 0.10262 0.97168 0.0
H995 H 0.49679 0.13357 0.90074 0.0
H996 H 0.5021 0.11139 0.92198 0.0
H997 H 0.48191 0.13125 0.92838 0.0
H998 H 0.48635 0.13263 0.9737 0.0
H999 H 0.46812 0.09777 0.99637 0.0
H1000 H 0.94672 0.79469 0.39549 0.0
H1001 H 0.96663 0.83162 0.41481 0.0
H1002 H 0.89541 0.85361 0.41299 0.0
H1003 H 0.87549 0.8168 0.39414 0.0
H1004 H 0.97134 0.8784 0.40349 0.0
H1005 H 0.91469 0.85904 0.48204 0.0
H1006 H 0.91541 0.83727 0.46008 0.0
H1007 H 0.8959 0.85878 0.45534 0.0
C1008 C 0.9354 0.80755 0.39896 0.0
C1009 C 0.90945 0.80263 0.39356 0.0
C1010 C 0.94677 0.82862 0.41012 0.0
C1011 C 0.93242 0.84521 0.41605 0.0
C1012 C 0.90679 0.84085 0.40939 0.0
H1013 H 0.96507 0.98155 0.48695 0.0
H1014 H 0.94522 0.94607 0.46511 0.0
C1015 C 0.89544 0.81981 0.39846 0.0
C1016 C 0.94404 0.8669 0.42939 0.0
H1017 H 0.93918 0.89755 0.47914 0.0
C1018 C 0.96437 0.88249 0.42009 0.0
C1019 C 0.93502 0.87239 0.45111 0.0
C1020 C 0.91422 0.85589 0.46287 0.0
C1021 C 0.97555 0.90347 0.43161 0.0
C1022 C 0.96642 0.90899 0.45323 0.0
C1023 C 0.9461 0.89345 0.46252 0.0
C1024 C 0.97822 0.93042 0.46679 0.0
C1025 C 0.99681 0.9198 0.42033 0.0
C1026 C 0.00317 0.93326 0.47548 0.0
C1027 C 0.01442 0.95336 0.48807 0.0
C1028 C 1.00101 0.97114 0.49233 0.0
C1029 C 0.97588 0.96816 0.48399 0.0
C1030 C 0.96455 0.94792 0.47146 0.0
H1031 H 0.99734 0.91622 0.40133 0.0
H1032 H 0.99525 0.93843 0.42248 0.0
H1033 H 0.01484 0.91733 0.42891 0.0
H1034 H 0.01398 0.91985 0.47257 0.0
H1035 H 0.03376 0.95503 0.49435 0.0
H1036 H 0.26045 0.72094 0.63688 0.0
H1037 H 0.29058 0.70105 0.6193 0.0
H1038 H 0.28133 0.6492 0.67489 0.0
H1039 H 0.25097 0.66885 0.69249 0.0
H1040 H 0.33112 0.6709 0.6686 0.0
H1041 H 0.28313 0.63864 0.58416 0.0
H1042 H 0.28365 0.66913 0.58953 0.0
H1043 H 0.26659 0.64707 0.60828 0.0
C1044 C 0.26429 0.70494 0.64502 0.0
C1045 C 0.25337 0.69651 0.66612 0.0
C1046 C 0.28154 0.6936 0.63496 0.0
C1047 C 0.28804 0.67358 0.64572 0.0
C1048 C 0.27654 0.66464 0.66632 0.0
H1049 H 0.38769 0.58991 0.58905 0.0
H1050 H 0.35233 0.60264 0.60632 0.0
C1051 C 0.25928 0.67593 0.67638 0.0
C1052 C 0.30846 0.66324 0.63669 0.0
H1053 H 0.32694 0.6386 0.58835 0.0
C1054 C 0.33014 0.66365 0.65113 0.0
C1055 C 0.30702 0.65365 0.61397 0.0
C1056 C 0.28376 0.65185 0.59813 0.0
C1057 C 0.35073 0.65531 0.64321 0.0
C1058 C 0.34967 0.64658 0.62016 0.0
C1059 C 0.32773 0.64552 0.60594 0.0
C1060 C 0.37131 0.6388 0.61038 0.0
C1061 C 0.37343 0.65585 0.65955 0.0
C1062 C 0.39363 0.65497 0.60693 0.0
C1063 C 0.41387 0.64776 0.59715 0.0
C1064 C 0.41213 0.62424 0.59063 0.0
C1065 C 0.38974 0.60807 0.59422 0.0
C1066 C 0.36947 0.61533 0.60391 0.0
H1067 H 0.36899 0.65759 0.67816 0.0
H1068 H 0.38123 0.6397 0.65781 0.0
H1069 H 0.38813 0.67115 0.65499 0.0
H1070 H 0.39527 0.67324 0.61156 0.0
H1071 H 0.4309 0.66058 0.59471 0.0
H1072 H 0.71831 0.85546 0.72714 0.0
H1073 H 0.74582 0.87556 0.69741 0.0
H1074 H 0.80963 0.85647 0.73494 0.0
H1075 H 0.78251 0.83734 0.76529 0.0
H1076 H 0.81841 0.90238 0.72197 0.0
H1077 H 0.77865 0.84677 0.64608 0.0
H1078 H 0.7558 0.85915 0.66057 0.0
H1079 H 0.77141 0.83839 0.67594 0.0
C1080 C 0.7382 0.85559 0.72911 0.0
C1081 C 0.74817 0.84469 0.74857 0.0
C1082 C 0.75386 0.86685 0.71195 0.0
C1083 C 0.77971 0.86718 0.71377 0.0
C1084 C 0.7897 0.85626 0.73311 0.0
H1085 H 0.88495 0.90672 0.60408 0.0
H1086 H 0.85786 0.88614 0.63392 0.0
C1087 C 0.77411 0.84513 0.75033 0.0
C1088 C 0.79655 0.87964 0.69604 0.0
H1089 H 0.80769 0.88183 0.63765 0.0
C1090 C 0.81614 0.89785 0.70354 0.0
C1091 C 0.79372 0.87348 0.67207 0.0
C1092 C 0.77392 0.85323 0.66317 0.0
C1093 C 0.83284 0.91025 0.68766 0.0
C1094 C 0.82949 0.90463 0.66357 0.0
C1095 C 0.81007 0.88625 0.65611 0.0
C1096 C 0.84615 0.91733 0.64581 0.0
C1097 C 0.85422 0.92891 0.69694 0.0
C1098 C 0.8484 0.94166 0.64249 0.0
C1099 C 0.86396 0.95346 0.62554 0.0
C1100 C 0.87724 0.94107 0.61138 0.0
C1101 C 0.87477 0.91668 0.61461 0.0
C1102 C 0.85937 0.90492 0.63167 0.0
H1103 H 0.85826 0.92647 0.71599 0.0
H1104 H 0.87154 0.92883 0.68749 0.0
H1105 H 0.84912 0.94641 0.69441 0.0
H1106 H 0.83788 0.95147 0.65281 0.0
H1107 H 0.86521 0.97221 0.62319 0.0
H1108 H 0.71403 0.24929 0.25044 0.0
H1109 H 0.69085 0.22486 0.2192 0.0
H1110 H 0.76037 0.21786 0.18966 0.0
H1111 H 0.7838 0.24238 0.22093 0.0
H1112 H 0.69001 0.2292 0.17053 0.0
H1113 H 0.72527 0.14967 0.20106 0.0
H1114 H 0.72908 0.17581 0.21856 0.0
H1115 H 0.74921 0.17469 0.19475 0.0
C1116 C 0.72441 0.24292 0.23707 0.0
C1117 C 0.75076 0.24768 0.2382 0.0
C1118 C 0.71113 0.22886 0.2193 0.0
C1119 C 0.72392 0.21924 0.20239 0.0
C1120 C 0.75019 0.22472 0.20287 0.0
H1121 H 0.65031 0.14742 0.07736 0.0
H1122 H 0.67737 0.17452 0.10426 0.0
C1123 C 0.76352 0.23874 0.22069 0.0
C1124 C 0.70961 0.20293 0.18474 0.0
H1125 H 0.69938 0.14608 0.16639 0.0
C1126 C 0.6921 0.21105 0.16953 0.0
C1127 C 0.71215 0.17917 0.18379 0.0
C1128 C 0.72976 0.16918 0.20053 0.0
C1129 C 0.677 0.19603 0.15333 0.0
C1130 C 0.67987 0.17238 0.15207 0.0
C1131 C 0.6974 0.16427 0.16729 0.0
C1132 C 0.66424 0.15554 0.13566 0.0
C1133 C 0.65762 0.20542 0.13819 0.0
C1134 C 0.64853 0.13547 0.14437 0.0
C1135 C 0.63333 0.11974 0.12904 0.0
C1136 C 0.63362 0.12375 0.10468 0.0
C1137 C 0.64977 0.14368 0.096 0.0
C1138 C 0.66502 0.15936 0.11135 0.0
H1139 H 0.65357 0.22189 0.14533 0.0
H1140 H 0.66472 0.20933 0.12037 0.0
H1141 H 0.63984 0.19229 0.13655 0.0
H1142 H 0.64782 0.13213 0.16309 0.0
H1143 H 0.62142 0.10438 0.13628 0.0
H1144 H 0.3972 0.60582 0.30305 0.0
H1145 H 0.41335 0.58794 0.33813 0.0
H1146 H 0.42355 0.65403 0.37404 0.0
H1147 H 0.407 0.67207 0.33892 0.0
H1148 H 0.46037 0.60072 0.36352 0.0
H1149 H 0.37984 0.60643 0.41801 0.0
H1150 H 0.37841 0.60979 0.38648 0.0
H1151 H 0.39505 0.63333 0.40446 0.0
C1152 C 0.4028 0.61659 0.31842 0.0
C1153 C 0.40054 0.64034 0.31823 0.0
C1154 C 0.41215 0.60634 0.33844 0.0
C1155 C 0.41931 0.61951 0.35886 0.0
C1156 C 0.41777 0.64342 0.35861 0.0
H1157 H 0.4997 0.57281 0.4819 0.0
H1158 H 0.48532 0.59602 0.4496 0.0
C1159 C 0.40854 0.65376 0.33846 0.0
C1160 C 0.4282 0.60796 0.3803 0.0
H1161 H 0.41255 0.59011 0.43603 0.0
C1162 C 0.45002 0.59855 0.37943 0.0
C1163 C 0.41451 0.60488 0.40097 0.0
C1164 C 0.39054 0.61395 0.40265 0.0
C1165 C 0.4585 0.5862 0.39863 0.0
C1166 C 0.44485 0.58317 0.41929 0.0
C1167 C 0.42304 0.59256 0.42021 0.0
C1168 C 0.45269 0.56973 0.43983 0.0
C1169 C 0.4817 0.57597 0.39654 0.0
C1170 C 0.43884 0.54743 0.4454 0.0
C1171 C 0.44707 0.53406 0.46381 0.0
C1172 C 0.46917 0.54289 0.47714 0.0
C1173 C 0.48258 0.56553 0.47198 0.0
C1174 C 0.47444 0.57879 0.45348 0.0
H1175 H 0.48789 0.57669 0.37824 0.0
H1176 H 0.49716 0.586 0.40781 0.0
H1177 H 0.4783 0.55741 0.40272 0.0
H1178 H 0.42197 0.54012 0.43512 0.0
H1179 H 0.43636 0.51669 0.46739 0.0
H1180 H 0.1406 0.41433 0.83544 0.0
H1181 H 0.12744 0.43387 0.86895 0.0
H1182 H 0.05008 0.40947 0.84697 0.0
H1183 H 0.06304 0.38997 0.8134 0.0
H1184 H 0.10084 0.46868 0.87154 0.0
H1185 H 0.04943 0.38889 0.91506 0.0
H1186 H 0.06986 0.38754 0.89137 0.0
H1187 H 0.03847 0.3922 0.88527 0.0
C1188 C 0.12076 0.41317 0.8376 0.0
C1189 C 0.10294 0.40033 0.82159 0.0
C1190 C 0.11324 0.42431 0.85692 0.0
C1191 C 0.08771 0.42288 0.86091 0.0
C1192 C 0.06988 0.41038 0.8448 0.0
H1193 H 0.02292 0.51524 0.94848 0.0
H1194 H 0.03882 0.4956 0.91666 0.0
C1195 C 0.07737 0.39919 0.8255 0.0
C1196 C 0.07978 0.4349 0.88154 0.0
H1197 H 0.04385 0.42558 0.92974 0.0
C1198 C 0.08845 0.4592 0.88429 0.0
C1199 C 0.06391 0.42262 0.89855 0.0
C1200 C 0.05506 0.39634 0.89761 0.0
C1201 C 0.0813 0.47154 0.90307 0.0
C1202 C 0.0646 0.45943 0.91952 0.0
C1203 C 0.05641 0.43503 0.91711 0.0
C1204 C 0.05524 0.47172 0.93919 0.0
C1205 C 0.09207 0.49744 0.90529 0.0
C1206 C 0.05855 0.46467 0.96267 0.0
C1207 C 0.04929 0.47584 0.98104 0.0
C1208 C 0.03629 0.4943 0.97641 0.0
C1209 C 0.03299 0.50128 0.95287 0.0
C1210 C 0.04223 0.4901 0.93456 0.0
H1211 H 0.10981 0.50245 0.89599 0.0
H1212 H 0.07849 0.50759 0.89729 0.0
H1213 H 0.09576 0.50258 0.92396 0.0
H1214 H 0.06838 0.45049 0.96681 0.0
H1215 H 0.05216 0.46986 0.99886 0.0
H1216 H 0.63023 0.87484 0.89837 0.0
H1217 H 0.60526 0.90006 0.91581 0.0
H1218 H 0.54989 0.8392 0.93353 0.0
H1219 H 0.57493 0.81369 0.91604 0.0
H1220 H 0.55611 0.90474 0.90386 0.0
H1221 H 0.56619 0.87377 0.9961 0.0
H1222 H 0.58569 0.86727 0.9734 0.0
H1223 H 0.55396 0.85152 0.97482 0.0
C1224 C 0.61264 0.8668 0.90581 0.0
C1225 C 0.60449 0.84228 0.90578 0.0
C1226 C 0.59845 0.88123 0.91584 0.0
C1227 C 0.57586 0.87148 0.92611 0.0
C1228 C 0.5675 0.84702 0.92603 0.0
H1229 H 0.48355 0.95052 1.00219 0.0
H1230 H 0.49637 0.91885 0.98102 0.0
C1231 C 0.58179 0.8325 0.91604 0.0
C1232 C 0.5613 0.88723 0.9368 0.0
H1233 H 0.54324 0.90381 0.98934 0.0
C1234 C 0.55307 0.90441 0.92252 0.0
C1235 C 0.5573 0.88665 0.96112 0.0
C1236 C 0.56637 0.86896 0.97737 0.0
C1237 C 0.54157 0.92148 0.93202 0.0
C1238 C 0.53848 0.92147 0.95644 0.0
C1239 C 0.54569 0.90371 0.9706 0.0
C1240 C 0.52972 0.9408 0.9679 0.0
C1241 C 0.53312 0.9396 0.91592 0.0
C1242 C 0.54431 0.96355 0.96755 0.0
C1243 C 0.53709 0.98165 0.9796 0.0
C1244 C 0.51511 0.97731 0.99222 0.0
C1245 C 0.50037 0.95452 0.99234 0.0
C1246 C 0.50771 0.93638 0.98037 0.0
H1247 H 0.53037 0.93348 0.89748 0.0
H1248 H 0.51535 0.94395 0.92158 0.0
H1249 H 0.54766 0.95593 0.91641 0.0
H1250 H 0.56161 0.96719 0.95836 0.0
H1251 H 0.54887 0.99898 0.9792 0.0
H1252 H 0.9261 0.21891 0.36934 0.0
H1253 H 0.94814 0.19103 0.38992 0.0
H1254 H 0.8972 0.18561 0.44618 0.0
H1255 H 0.8751 0.21351 0.42574 0.0
H1256 H 0.94722 0.18747 0.46169 0.0
H1257 H 0.91694 0.12078 0.39223 0.0
H1258 H 0.93374 0.14856 0.38193 0.0
H1259 H 0.90363 0.14676 0.39417 0.0
C1260 C 0.91971 0.21187 0.38617 0.0
C1261 C 0.89872 0.2182 0.39583 0.0
C1262 C 0.93228 0.19594 0.39787 0.0
C1263 C 0.92396 0.18591 0.41931 0.0
C1264 C 0.90383 0.19309 0.42958 0.0
H1265 H 0.94595 0.05593 0.48398 0.0
H1266 H 0.93041 0.08804 0.46385 0.0
C1267 C 0.8913 0.20911 0.41794 0.0
C1268 C 0.93545 0.16715 0.43056 0.0
H1269 H 0.94432 0.11126 0.42264 0.0
C1270 C 0.94668 0.17082 0.45316 0.0
C1271 C 0.93434 0.14534 0.41948 0.0
C1272 C 0.92133 0.13995 0.39571 0.0
C1273 C 0.95695 0.15324 0.465 0.0
C1274 C 0.95629 0.1316 0.45371 0.0
C1275 C 0.94501 0.12795 0.43113 0.0
C1276 C 0.96618 0.11211 0.46542 0.0
C1277 C 0.96775 0.15773 0.48971 0.0
C1278 C 0.99157 0.11484 0.47259 0.0
C1279 C 1.00052 0.09653 0.48422 0.0
C1280 C 0.98429 0.07505 0.48866 0.0
C1281 C 0.95899 0.07221 0.4809 0.0
C1282 C 0.95005 0.09055 0.46936 0.0
H1283 H 0.96134 0.17267 0.49777 0.0
H1284 H 0.96249 0.1419 0.50097 0.0
H1285 H 0.98849 0.16211 0.48941 0.0
H1286 H 0.00443 0.13119 0.46931 0.0
H1287 H 0.02006 0.09942 0.49006 0.0
H1288 H 0.26103 0.64834 0.11667 0.0
H1289 H 0.22286 0.62667 0.09705 0.0
H1290 H 0.19275 0.60491 0.16417 0.0
H1291 H 0.23055 0.62731 0.18401 0.0
H1292 H 0.20036 0.57939 0.09848 0.0
H1293 H 0.13782 0.63484 0.13245 0.0
H1294 H 0.17151 0.64334 0.13465 0.0
H1295 H 0.1555 0.6219 0.15462 0.0
C1296 C 0.24622 0.63914 0.12731 0.0
C1297 C 0.24878 0.63986 0.15196 0.0
C1298 C 0.22448 0.62658 0.11604 0.0
C1299 C 0.20476 0.61447 0.12911 0.0
C1300 C 0.20752 0.61449 0.15371 0.0
H1301 H 0.05432 0.54188 0.0839 0.0
H1302 H 0.09349 0.5555 0.10683 0.0
C1303 C 0.22928 0.6271 0.16503 0.0
C1304 C 0.18124 0.6022 0.11688 0.0
H1305 H 0.11863 0.60229 0.10954 0.0
C1306 C 0.18248 0.58435 0.10093 0.0
C1307 C 0.1579 0.60868 0.12009 0.0
C1308 C 0.15551 0.62837 0.13621 0.0
C1309 C 0.16102 0.57282 0.08814 0.0
C1310 C 0.13778 0.57956 0.0911 0.0
C1311 C 0.13646 0.59711 0.10733 0.0
C1312 C 0.11475 0.56936 0.07692 0.0
C1313 C 0.16336 0.5534 0.0717 0.0
C1314 C 0.11371 0.57248 0.05246 0.0
C1315 C 0.09136 0.56469 0.03932 0.0
C1316 C 0.06961 0.55373 0.05042 0.0
C1317 C 0.07082 0.55013 0.07484 0.0
C1318 C 0.09316 0.55797 0.08797 0.0
H1319 H 0.18036 0.54602 0.07618 0.0
H1320 H 0.14665 0.53898 0.07206 0.0
H1321 H 0.16485 0.56052 0.05354 0.0
H1322 H 0.12999 0.58161 0.04359 0.0
H1323 H 0.09094 0.56777 1.02054 0.0
H1324 H 0.25654 0.45792 0.67322 0.0
H1325 H 0.29294 0.47543 0.65085 0.0
H1326 H 0.31148 0.40713 0.64369 0.0
H1327 H 0.27537 0.38952 0.66613 0.0
H1328 H 0.34404 0.47565 0.65906 0.0
H1329 H 0.3095 0.43026 0.57582 0.0
H1330 H 0.28948 0.43124 0.59992 0.0
H1331 H 0.31029 0.41069 0.60044 0.0
C1332 C 0.26845 0.44661 0.66706 0.0
C1333 C 0.26276 0.42221 0.67136 0.0
C1334 C 0.28923 0.45667 0.65415 0.0
C1335 C 0.30473 0.44257 0.64513 0.0
C1336 C 0.29947 0.41833 0.64988 0.0
H1337 H 0.43843 0.46305 0.56466 0.0
H1338 H 0.40139 0.44819 0.587 0.0
C1339 C 0.27874 0.40827 0.66276 0.0
C1340 C 0.32653 0.45317 0.63097 0.0
H1341 H 0.35193 0.45046 0.57766 0.0
C1342 C 0.34568 0.47028 0.6412 0.0
C1343 C 0.32873 0.44619 0.60763 0.0
C1344 C 0.30831 0.42875 0.59518 0.0
C1345 C 0.36723 0.48005 0.62904 0.0
C1346 C 0.36955 0.47287 0.60578 0.0
C1347 C 0.35025 0.45595 0.59548 0.0
C1348 C 0.39204 0.48225 0.592 0.0
C1349 C 0.3877 0.49743 0.64149 0.0
C1350 C 0.39904 0.50637 0.58696 0.0
C1351 C 0.42031 0.51499 0.57415 0.0
C1352 C 0.43502 0.49965 0.56592 0.0
C1353 C 0.42767 0.47545 0.57066 0.0
C1354 C 0.40643 0.46688 0.58347 0.0
H1355 H 0.38607 0.49645 0.66083 0.0
H1356 H 0.40649 0.49437 0.63732 0.0
H1357 H 0.3863 0.51548 0.63566 0.0
H1358 H 0.38798 0.51857 0.59284 0.0
H1359 H 0.42522 0.5337 0.57077 0.0
H1360 H 0.74007 0.67166 0.87594 0.0
H1361 H 0.76646 0.64896 0.89867 0.0
H1362 H 0.7719 0.69722 0.95608 0.0
H1363 H 0.74552 0.72 0.93346 0.0
H1364 H 0.81501 0.67013 0.91194 0.0
H1365 H 0.76299 0.63295 0.98963 0.0
H1366 H 0.74768 0.64279 0.96359 0.0
H1367 H 0.76391 0.66375 0.98457 0.0
C1368 C 0.74648 0.67714 0.89359 0.0
C1369 C 0.74091 0.69769 0.90286 0.0
C1370 C 0.76144 0.66412 0.90658 0.0
C1371 C 0.77101 0.67134 0.92909 0.0
C1372 C 0.7643 0.69107 0.93894 0.0
H1373 H 0.91222 0.65075 0.99205 0.0
H1374 H 0.87498 0.6664 0.97976 0.0
C1375 C 0.74925 0.70409 0.92596 0.0
C1376 C 0.79078 0.66034 0.94069 0.0
H1377 H 0.80667 0.63192 0.99041 0.0
C1378 C 0.81309 0.66162 0.92902 0.0
C1379 C 0.78821 0.64932 0.96297 0.0
C1380 C 0.76433 0.64689 0.97589 0.0
C1381 C 0.83307 0.65244 0.93915 0.0
C1382 C 0.83078 0.64194 0.96165 0.0
C1383 C 0.80836 0.64025 0.97324 0.0
C1384 C 0.85163 0.63235 0.97294 0.0
C1385 C 0.85652 0.65396 0.92566 0.0
C1386 C 0.85041 0.60802 0.97392 0.0
C1387 C 0.87168 0.59902 0.98077 0.0
C1388 C 0.89446 0.61428 0.98675 0.0
C1389 C 0.89508 0.6386 0.98715 0.0
C1390 C 0.87382 0.64755 0.98029 0.0
H1391 H 0.85355 0.65867 0.90692 0.0
H1392 H 0.87161 0.66763 0.93356 0.0
H1393 H 0.86307 0.637 0.92661 0.0
H1394 H 0.83342 0.59607 0.96819 0.0
H1395 H 0.87065 0.58022 0.98009 0.0
H1396 H 0.42792 0.82919 0.20953 0.0
H1397 H 0.44423 0.86657 0.18976 0.0
H1398 H 0.43185 0.83206 0.12282 0.0
H1399 H 0.41599 0.79467 0.1424 0.0
H1400 H 0.47912 0.86232 0.12864 0.0
H1401 H 0.40158 0.90651 0.15069 0.0
H1402 H 0.41673 0.89419 0.1752 0.0
H1403 H 0.39928 0.87511 0.15325 0.0
C1404 C 0.42886 0.82952 0.19062 0.0
C1405 C 0.42046 0.80892 0.17756 0.0
C1406 C 0.43795 0.85096 0.17932 0.0
C1407 C 0.4389 0.85222 0.15475 0.0
C1408 C 0.43111 0.83158 0.14175 0.0
H1409 H 0.46032 0.97351 0.06002 0.0
H1410 H 0.44391 0.93712 0.0814 0.0
C1411 C 0.42192 0.81023 0.15299 0.0
C1412 C 0.44819 0.87491 0.14249 0.0
H1413 H 0.43559 0.92967 0.13146 0.0
C1414 C 0.46963 0.87705 0.12929 0.0
C1415 C 0.43559 0.89403 0.14307 0.0
C1416 C 0.41189 0.89242 0.15613 0.0
C1417 C 0.479 0.89787 0.11695 0.0
C1418 C 0.46673 0.91717 0.11794 0.0
C1419 C 0.44508 0.91493 0.13086 0.0
C1420 C 0.47613 0.93977 0.1056 0.0
C1421 C 0.50175 0.89894 0.1026 0.0
C1422 C 0.49947 0.95356 0.11229 0.0
C1423 C 0.50868 0.97447 0.10026 0.0
C1424 C 0.49468 0.98208 0.08136 0.0
C1425 C 0.47121 0.9684 0.07482 0.0
C1426 C 0.46193 0.94751 0.08693 0.0
H1427 H 0.50559 0.88118 0.09943 0.0
H1428 H 0.49934 0.90772 0.08543 0.0
H1429 H 0.51836 0.90932 0.11215 0.0
H1430 H 0.51064 0.94809 0.1268 0.0
H1431 H 0.52686 0.98461 0.10568 0.0
H1432 H 0.0953 0.2607 0.63258 0.0
H1433 H 0.07662 0.22267 0.61539 0.0
H1434 H 0.07556 0.19035 0.68399 0.0
H1435 H 0.09446 0.2286 0.7014 0.0
H1436 H 0.09698 0.16636 0.64761 0.0
H1437 H 0.00378 0.18502 0.61969 0.0
H1438 H 0.02999 0.20688 0.61103 0.0
H1439 H 0.0241 0.20217 0.64161 0.0
C1440 C 0.09091 0.24555 0.64408 0.0
C1441 C 0.09641 0.24773 0.6684 0.0
C1442 C 0.08012 0.22381 0.63421 0.0
C1443 C 0.07454 0.20359 0.64835 0.0
C1444 C 0.07963 0.2057 0.67271 0.0
H1445 H 0.98663 0.06863 0.60226 0.0
H1446 H 0.00424 0.10508 0.62299 0.0
C1447 C 0.09025 0.22759 0.68267 0.0
C1448 C 0.06419 0.18029 0.63743 0.0
H1449 H 0.01414 0.1504 0.60474 0.0
C1450 C 0.0788 0.16281 0.63835 0.0
C1451 C 0.04043 0.17556 0.6254 0.0
C1452 C 0.02351 0.19328 0.62447 0.0
C1453 C 0.07053 0.14098 0.62721 0.0
C1454 C 0.04704 0.1365 0.61463 0.0
C1455 C 0.03223 0.15383 0.61415 0.0
C1456 C 0.03712 0.11377 0.60237 0.0
C1457 C 0.08686 0.12278 0.62925 0.0
C1458 C 0.04962 0.10637 0.58372 0.0
C1459 C 0.03951 0.08542 0.57178 0.0
C1460 C 0.01671 0.07146 0.57824 0.0
C1461 C 0.00431 0.07889 0.59692 0.0
C1462 C 0.01434 0.09978 0.60878 0.0
H1463 H 0.10119 0.12662 0.64389 0.0
H1464 H 0.07541 0.10499 0.63201 0.0
H1465 H 0.09676 0.12261 0.61273 0.0
H1466 H 0.06693 0.11705 0.57804 0.0
H1467 H 0.0492 0.08048 0.55717 0.0
H1468 H 0.76775 0.3912 0.38398 0.0
H1469 H 0.73851 0.41273 0.40077 0.0
H1470 H 0.73201 0.36599 0.46074 0.0
H1471 H 0.7613 0.34447 0.4441 0.0
H1472 H 0.6903 0.39254 0.40847 0.0
H1473 H 0.73741 0.42957 0.49141 0.0
H1474 H 0.75412 0.41909 0.46853 0.0
H1475 H 0.73688 0.39871 0.48877 0.0
C1476 C 0.76042 0.38579 0.40095 0.0
C1477 C 0.76674 0.36611 0.4127 0.0
C1478 C 0.74379 0.39813 0.41054 0.0
C1479 C 0.73323 0.39109 0.43209 0.0
C1480 C 0.74036 0.37207 0.44435 0.0
H1481 H 0.58835 0.40074 0.47814 0.0
H1482 H 0.62595 0.3895 0.46404 0.0
C1483 C 0.75708 0.35976 0.43481 0.0
C1484 C 0.71265 0.40176 0.44033 0.0
H1485 H 0.69292 0.42745 0.48743 0.0
C1486 C 0.69101 0.40043 0.42563 0.0
C1487 C 0.71367 0.41222 0.46263 0.0
C1488 C 0.73687 0.41522 0.47866 0.0
C1489 C 0.67004 0.40853 0.43293 0.0
C1490 C 0.67057 0.41785 0.45568 0.0
C1491 C 0.6925 0.42002 0.47009 0.0
C1492 C 0.64819 0.42472 0.465 0.0
C1493 C 0.64742 0.40694 0.41626 0.0
C1494 C 0.64849 0.44816 0.47074 0.0
C1495 C 0.62705 0.45463 0.47896 0.0
C1496 C 0.60505 0.43769 0.48177 0.0
C1497 C 0.60503 0.41416 0.47636 0.0
C1498 C 0.62642 0.40774 0.4681 0.0
H1499 H 0.65233 0.40535 0.39777 0.0
H1500 H 0.63332 0.39114 0.42071 0.0
H1501 H 0.63868 0.42258 0.4177 0.0
H1502 H 0.6652 0.46147 0.46859 0.0
H1503 H 0.62774 0.47284 0.48328 0.0
loop_
_geom_bond_atom_site_label_1
_geom_bond_atom_site_label_2
_geom_bond_distance
_geom_bond_site_symmetry_2
_ccdc_geom_bond_type
C0 C1 1.391 . S
C0 C4 1.391 . S
C0 H42 0.948 . S
C1 C0 1.391 . S
C1 C2 1.391 . S
C2 C1 1.391 . S
C2 H58 0.947 . S
C2 C59 1.392 . S
C3 C4 1.391 . S
C3 C7 1.397 . S
C3 C59 1.419 . S
C4 C0 1.391 . S
C4 C3 1.391 . S
C4 C5 1.399 . S
C5 C4 1.399 . S
C5 C8 1.396 . S
C5 C17 1.453 . S
C5 C18 1.684 . S
H6 C30 0.948 . S
C7 C3 1.397 . S
C7 C8 1.394 . S
C7 C26 1.723 . S
C8 C5 1.396 . S
C8 C7 1.394 . S
C8 C38 1.723 . S
H9 C32 0.947 . S
H10 C33 0.948 . S
H11 C39 0.982 . S
H12 C40 0.979 . S
H13 C40 0.980 . S
H14 C40 0.983 . S
H15 C39 0.979 . S
H16 C39 0.977 . S
C17 C5 1.453 . S
C17 H46 0.982 . S
C17 H47 0.979 . S
C17 H48 0.977 . S
C18 C5 1.684 . S
C18 H43 0.979 . S
C18 H44 0.980 . S
C18 H45 0.983 . S
C19 C20 1.391 . S
C19 C24 1.391 . S
C19 H49 0.948 . S
C20 C19 1.391 . S
C20 C21 1.391 . S
C21 C20 1.391 . S
C21 C22 1.392 . S
C21 H50 0.947 . S
C22 C21 1.392 . S
C22 C23 1.419 . S
C22 H51 0.948 . S
C23 C22 1.419 . S
C23 C24 1.391 . S
C23 C27 1.397 . S
C24 C19 1.391 . S
C24 C23 1.391 . S
C24 C25 1.399 . S
C25 C24 1.399 . S
C25 C26 1.396 . S
C25 C28 1.453 . S
C25 C29 1.684 . S
C26 C7 1.723 . S
C26 C25 1.396 . S
C26 C27 1.394 . S
C27 C23 1.397 . S
C27 C26 1.394 . S
C27 C37 1.723 . S
C28 C25 1.453 . S
C28 H52 0.982 . S
C28 H53 0.979 . S
C28 H54 0.977 . S
C29 C25 1.684 . S
C29 H55 0.979 . S
C29 H56 0.980 . S
C29 H57 0.983 . S
C30 H6 0.948 . S
C30 C31 1.391 . S
C30 C35 1.391 . S
C31 C30 1.391 . S
C31 C32 1.391 . S
C32 H9 0.947 . S
C32 C31 1.391 . S
C32 C33 1.392 . S
C33 H10 0.948 . S
C33 C32 1.392 . S
C33 C34 1.419 . S
C34 C33 1.419 . S
C34 C35 1.391 . S
C34 C38 1.397 . S
C35 C30 1.391 . S
C35 C34 1.391 . S
C35 C36 1.399 . S
C36 C35 1.399 . S
C36 C37 1.396 . S
C36 C39 1.453 . S
C36 C40 1.684 . S
C37 C27 1.723 . S
C37 C36 1.396 . S
C37 C38 1.394 . S
C38 C8 1.723 . S
C38 C34 1.397 . S
C38 C37 1.394 . S
C39 H11 0.982 . S
C39 H15 0.979 . S
C39 H16 0.977 . S
C39 C36 1.453 . S
C40 H12 0.979 . S
C40 H13 0.980 . S
C40 H14 0.983 . S
C40 C36 1.684 . S
H41 C59 0.948 . S
H42 C0 0.948 . S
H43 C18 0.979 . S
H44 C18 0.980 . S
H45 C18 0.983 . S
H46 C17 0.982 . S
H47 C17 0.979 . S
H48 C17 0.977 . S
H49 C19 0.948 . S
H50 C21 0.947 . S
H51 C22 0.948 . S
H52 C28 0.982 . S
H53 C28 0.979 . S
H54 C28 0.977 . S
H55 C29 0.979 . S
H56 C29 0.980 . S
H57 C29 0.983 . S
H58 C2 0.947 . S
C59 C2 1.392 . S
C59 C3 1.419 . S
C59 H41 0.948 . S
C60 C61 1.391 . S
C60 C64 1.391 . S
C60 H102 0.948 . S
C61 C60 1.391 . S
C61 C62 1.391 . S
C62 C61 1.391 . S
C62 H118 0.947 . S
C62 C119 1.392 . S
C63 C64 1.391 . S
C63 C67 1.397 . S
C63 C119 1.419 . S
C64 C60 1.391 . S
C64 C63 1.391 . S
C64 C65 1.399 . S
C65 C64 1.399 . S
C65 C68 1.396 . S
C65 C77 1.453 . S
C65 C78 1.684 . S
H66 C90 0.948 . S
C67 C63 1.397 . S
C67 C68 1.394 . S
C67 C86 1.723 . S
C68 C65 1.396 . S
C68 C67 1.394 . S
C68 C98 1.723 . S
H69 C92 0.947 . S
H70 C93 0.948 . S
H71 C99 0.982 . S
H72 C100 0.979 . S
H73 C100 0.980 . S
H74 C100 0.983 . S
H75 C99 0.979 . S
H76 C99 0.977 . S
C77 C65 1.453 . S
C77 H106 0.982 . S
C77 H107 0.979 . S
C77 H108 0.977 . S
C78 C65 1.684 . S
C78 H103 0.979 . S
C78 H104 0.980 . S
C78 H105 0.983 . S
C79 C80 1.391 . S
C79 C84 1.391 . S
C79 H109 0.948 . S
C80 C79 1.391 . S
C80 C81 1.391 . S
C81 C80 1.391 . S
C81 C82 1.392 . S
C81 H110 0.947 . S
C82 C81 1.392 . S
C82 C83 1.419 . S
C82 H111 0.948 . S
C83 C82 1.419 . S
C83 C84 1.391 . S
C83 C87 1.397 . S
C84 C79 1.391 . S
C84 C83 1.391 . S
C84 C85 1.399 . S
C85 C84 1.399 . S
C85 C86 1.396 . S
C85 C88 1.453 . S
C85 C89 1.684 . S
C86 C67 1.723 . S
C86 C85 1.396 . S
C86 C87 1.394 . S
C87 C83 1.397 . S
C87 C86 1.394 . S
C87 C97 1.723 . S
C88 C85 1.453 . S
C88 H112 0.982 . S
C88 H113 0.979 . S
C88 H114 0.977 . S
C89 C85 1.684 . S
C89 H115 0.979 . S
C89 H116 0.980 . S
C89 H117 0.983 . S
C90 H66 0.948 . S
C90 C91 1.391 . S
C90 C95 1.391 . S
C91 C90 1.391 . S
C91 C92 1.391 . S
C92 H69 0.947 . S
C92 C91 1.391 . S
C92 C93 1.392 . S
C93 H70 0.948 . S
C93 C92 1.392 . S
C93 C94 1.419 . S
C94 C93 1.419 . S
C94 C95 1.391 . S
C94 C98 1.397 . S
C95 C90 1.391 . S
C95 C94 1.391 . S
C95 C96 1.399 . S
C96 C95 1.399 . S
C96 C97 1.396 . S
C96 C99 1.453 . S
C96 C100 1.684 . S
C97 C87 1.723 . S
C97 C96 1.396 . S
C97 C98 1.394 . S
C98 C68 1.723 . S
C98 C94 1.397 . S
C98 C97 1.394 . S
C99 H71 0.982 . S
C99 H75 0.979 . S
C99 H76 0.977 . S
C99 C96 1.453 . S
C100 H72 0.979 . S
C100 H73 0.980 . S
C100 H74 0.983 . S
C100 C96 1.684 . S
H101 C119 0.948 . S
H102 C60 0.948 . S
H103 C78 0.979 . S
H104 C78 0.980 . S
H105 C78 0.983 . S
H106 C77 0.982 . S
H107 C77 0.979 . S
H108 C77 0.977 . S
H109 C79 0.948 . S
H110 C81 0.947 . S
H111 C82 0.948 . S
H112 C88 0.982 . S
H113 C88 0.979 . S
H114 C88 0.977 . S
H115 C89 0.979 . S
H116 C89 0.980 . S
H117 C89 0.983 . S
H118 C62 0.947 . S
C119 C62 1.392 . S
C119 C63 1.419 . S
C119 H101 0.948 . S
C120 C121 1.391 . S
C120 C124 1.391 . S
C120 H162 0.948 . S
C121 C120 1.391 . S
C121 C122 1.391 . S
C122 C121 1.391 . S
C122 H178 0.947 . S
C122 C179 1.392 . S
C123 C124 1.391 . S
C123 C127 1.397 . S
C123 C179 1.419 . S
C124 C120 1.391 . S
C124 C123 1.391 . S
C124 C125 1.399 . S
C125 C124 1.399 . S
C125 C128 1.396 . S
C125 C137 1.453 . S
C125 C138 1.684 . S
H126 C150 0.948 . S
C127 C123 1.397 . S
C127 C128 1.394 . S
C127 C146 1.723 . S
C128 C125 1.396 . S
C128 C127 1.394 . S
C128 C158 1.723 . S
H129 C152 0.947 . S
H130 C153 0.948 . S
H131 C159 0.982 . S
H132 C160 0.979 . S
H133 C160 0.980 . S
H134 C160 0.983 . S
H135 C159 0.979 . S
H136 C159 0.977 . S
C137 C125 1.453 . S
C137 H166 0.982 . S
C137 H167 0.979 . S
C137 H168 0.977 . S
C138 C125 1.684 . S
C138 H163 0.979 . S
C138 H164 0.980 . S
C138 H165 0.983 . S
C139 C140 1.391 . S
C139 C144 1.391 . S
C139 H169 0.948 . S
C140 C139 1.391 . S
C140 C141 1.391 . S
C141 C140 1.391 . S
C141 C142 1.392 . S
C141 H170 0.947 . S
C142 C141 1.392 . S
C142 C143 1.419 . S
C142 H171 0.948 . S
C143 C142 1.419 . S
C143 C144 1.391 . S
C143 C147 1.397 . S
C144 C139 1.391 . S
C144 C143 1.391 . S
C144 C145 1.399 . S
C145 C144 1.399 . S
C145 C146 1.396 . S
C145 C148 1.453 . S
C145 C149 1.684 . S
C146 C127 1.723 . S
C146 C145 1.396 . S
C146 C147 1.394 . S
C147 C143 1.397 . S
C147 C146 1.394 . S
C147 C157 1.723 . S
C148 C145 1.453 . S
C148 H172 0.982 . S
C148 H173 0.979 . S
C148 H174 0.977 . S
C149 C145 1.684 . S
C149 H175 0.979 . S
C149 H176 0.980 . S
C149 H177 0.983 . S
C150 H126 0.948 . S
C150 C151 1.391 . S
C150 C155 1.391 . S
C151 C150 1.391 . S
C151 C152 1.391 . S
C152 H129 0.947 . S
C152 C151 1.391 . S
C152 C153 1.392 . S
C153 H130 0.948 . S
C153 C152 1.392 . S
C153 C154 1.419 . S
C154 C153 1.419 . S
C154 C155 1.391 . S
C154 C158 1.397 . S
C155 C150 1.391 . S
C155 C154 1.391 . S
C155 C156 1.399 . S
C156 C155 1.399 . S
C156 C157 1.396 . S
C156 C159 1.453 . S
C156 C160 1.684 . S
C157 C147 1.723 . S
C157 C156 1.396 . S
C157 C158 1.394 . S
C158 C128 1.723 . S
C158 C154 1.397 . S
C158 C157 1.394 . S
C159 H131 0.982 . S
C159 H135 0.979 . S
C159 H136 0.977 . S
C159 C156 1.453 . S
C160 H132 0.979 . S
C160 H133 0.980 . S
C160 H134 0.983 . S
C160 C156 1.684 . S
H161 C179 0.948 . S
H162 C120 0.948 . S
H163 C138 0.979 . S
H164 C138 0.980 . S
H165 C138 0.983 . S
H166 C137 0.982 . S
H167 C137 0.979 . S
H168 C137 0.977 . S
H169 C139 0.948 . S
H170 C141 0.947 . S
H171 C142 0.948 . S
H172 C148 0.982 . S
H173 C148 0.979 . S
H174 C148 0.977 . S
H175 C149 0.979 . S
H176 C149 0.980 . S
H177 C149 0.983 . S
H178 C122 0.947 . S
C179 C122 1.392 . S
C179 C123 1.419 . S
C179 H161 0.948 . S
C180 C181 1.391 . S
C180 C184 1.391 . S
C180 H222 0.948 . S
C181 C180 1.391 . S
C181 C182 1.391 . S
C182 C181 1.391 . S
C182 H238 0.947 . S
C182 C239 1.392 . S
C183 C184 1.391 . S
C183 C187 1.397 . S
C183 C239 1.419 . S
C184 C180 1.391 . S
C184 C183 1.391 . S
C184 C185 1.399 . S
C185 C184 1.399 . S
C185 C188 1.396 . S
C185 C197 1.453 . S
C185 C198 1.684 . S
H186 C210 0.948 . S
C187 C183 1.397 . S
C187 C188 1.394 . S
C187 C206 1.723 . S
C188 C185 1.396 . S
C188 C187 1.394 . S
C188 C218 1.723 . S
H189 C212 0.947 . S
H190 C213 0.948 . S
H191 C219 0.982 . S
H192 C220 0.979 . S
H193 C220 0.980 . S
H194 C220 0.983 . S
H195 C219 0.979 . S
H196 C219 0.977 . S
C197 C185 1.453 . S
C197 H226 0.982 . S
C197 H227 0.979 . S
C197 H228 0.977 . S
C198 C185 1.684 . S
C198 H223 0.979 . S
C198 H224 0.980 . S
C198 H225 0.983 . S
C199 C200 1.391 . S
C199 C204 1.391 . S
C199 H229 0.948 . S
C200 C199 1.391 . S
C200 C201 1.391 . S
C201 C200 1.391 . S
C201 C202 1.392 . S
C201 H230 0.947 . S
C202 C201 1.392 . S
C202 C203 1.419 . S
C202 H231 0.948 . S
C203 C202 1.419 . S
C203 C204 1.391 . S
C203 C207 1.397 . S
C204 C199 1.391 . S
C204 C203 1.391 . S
C204 C205 1.399 . S
C205 C204 1.399 . S
C205 C206 1.396 . S
C205 C208 1.453 . S
C205 C209 1.684 . S
C206 C187 1.723 . S
C206 C205 1.396 . S
C206 C207 1.394 . S
C207 C203 1.397 . S
C207 C206 1.394 . S
C207 C217 1.723 . S
C208 C205 1.453 . S
C208 H232 0.982 . S
C208 H233 0.979 . S
C208 H234 0.977 . S
C209 C205 1.684 . S
C209 H235 0.979 . S
C209 H236 0.980 . S
C209 H237 0.983 . S
C210 H186 0.948 . S
C210 C211 1.391 . S
C210 C215 1.391 . S
C211 C210 1.391 . S
C211 C212 1.391 . S
C212 H189 0.947 . S
C212 C211 1.391 . S
C212 C213 1.392 . S
C213 H190 0.948 . S
C213 C212 1.392 . S
C213 C214 1.419 . S
C214 C213 1.419 . S
C214 C215 1.391 . S
C214 C218 1.397 . S
C215 C210 1.391 . S
C215 C214 1.391 . S
C215 C216 1.399 . S
C216 C215 1.399 . S
C216 C217 1.396 . S
C216 C219 1.453 . S
C216 C220 1.684 . S
C217 C207 1.723 . S
C217 C216 1.396 . S
C217 C218 1.394 . S
C218 C188 1.723 . S
C218 C214 1.397 . S
C218 C217 1.394 . S
C219 H191 0.982 . S
C219 H195 0.979 . S
C219 H196 0.977 . S
C219 C216 1.453 . S
C220 H192 0.979 . S
C220 H193 0.980 . S
C220 H194 0.983 . S
C220 C216 1.684 . S
H221 C239 0.948 . S
H222 C180 0.948 . S
H223 C198 0.979 . S
H224 C198 0.980 . S
H225 C198 0.983 . S
H226 C197 0.982 . S
H227 C197 0.979 . S
H228 C197 0.977 . S
H229 C199 0.948 . S
H230 C201 0.947 . S
H231 C202 0.948 . S
H232 C208 0.982 . S
H233 C208 0.979 . S
H234 C208 0.977 . S
H235 C209 0.979 . S
H236 C209 0.980 . S
H237 C209 0.983 . S
H238 C182 0.947 . S
C239 C182 1.392 . S
C239 C183 1.419 . S
C239 H221 0.948 . S
C240 C241 1.391 . S
C240 C244 1.391 . S
C240 H282 0.948 . S
C241 C240 1.391 . S
C241 C242 1.391 . S
C242 C241 1.391 . S
C242 H298 0.947 . S
C242 C299 1.392 . S
C243 C244 1.391 . S
C243 C247 1.397 . S
C243 C299 1.419 . S
C244 C240 1.391 . S
C244 C243 1.391 . S
C244 C245 1.399 . S
C245 C244 1.399 . S
C245 C248 1.396 . S
C245 C257 1.453 . S
C245 C258 1.684 . S
H246 C270 0.948 . S
C247 C243 1.397 . S
C247 C248 1.394 . S
C247 C266 1.723 . S
C248 C245 1.396 . S
C248 C247 1.394 . S
C248 C278 1.723 . S
H249 C272 0.947 . S
H250 C273 0.948 . S
H251 C279 0.982 . S
H252 C280 0.979 . S
H253 C280 0.980 . S
H254 C280 0.983 . S
H255 C279 0.979 . S
H256 C279 0.977 . S
C257 C245 1.453 . S
C257 H286 0.982 . S
C257 H287 0.979 . S
C257 H288 0.977 . S
C258 C245 1.684 . S
C258 H283 0.979 . S
C258 H284 0.980 . S
C258 H285 0.983 . S
C259 C260 1.391 . S
C259 C264 1.391 . S
C259 H289 0.948 . S
C260 C259 1.391 . S
C260 C261 1.391 . S
C261 C260 1.391 . S
C261 C262 1.392 . S
C261 H290 0.947 . S
C262 C261 1.392 . S
C262 C263 1.419 . S
C262 H291 0.948 . S
C263 C262 1.419 . S
C263 C264 1.391 . S
C263 C267 1.397 . S
C264 C259 1.391 . S
C264 C263 1.391 . S
C264 C265 1.399 . S
C265 C264 1.399 . S
C265 C266 1.396 . S
C265 C268 1.453 . S
C265 C269 1.684 . S
C266 C247 1.723 . S
C266 C265 1.396 . S
C266 C267 1.394 . S
C267 C263 1.397 . S
C267 C266 1.394 . S
C267 C277 1.723 . S
C268 C265 1.453 . S
C268 H292 0.982 . S
C268 H293 0.979 . S
C268 H294 0.977 . S
C269 C265 1.684 . S
C269 H295 0.979 . S
C269 H296 0.980 . S
C269 H297 0.983 . S
C270 H246 0.948 . S
C270 C271 1.391 . S
C270 C275 1.391 . S
C271 C270 1.391 . S
C271 C272 1.391 . S
C272 H249 0.947 . S
C272 C271 1.391 . S
C272 C273 1.392 . S
C273 H250 0.948 . S
C273 C272 1.392 . S
C273 C274 1.419 . S
C274 C273 1.419 . S
C274 C275 1.391 . S
C274 C278 1.397 . S
C275 C270 1.391 . S
C275 C274 1.391 . S
C275 C276 1.399 . S
C276 C275 1.399 . S
C276 C277 1.396 . S
C276 C279 1.453 . S
C276 C280 1.684 . S
C277 C267 1.723 . S
C277 C276 1.396 . S
C277 C278 1.394 . S
C278 C248 1.723 . S
C278 C274 1.397 . S
C278 C277 1.394 . S
C279 H251 0.982 . S
C279 H255 0.979 . S
C279 H256 0.977 . S
C279 C276 1.453 . S
C280 H252 0.979 . S
C280 H253 0.980 . S
C280 H254 0.983 . S
C280 C276 1.684 . S
H281 C299 0.948 . S
H282 C240 0.948 . S
H283 C258 0.979 . S
H284 C258 0.980 . S
H285 C258 0.983 . S
H286 C257 0.982 . S
H287 C257 0.979 . S
H288 C257 0.977 . S
H289 C259 0.948 . S
H290 C261 0.947 . S
H291 C262 0.948 . S
H292 C268 0.982 . S
H293 C268 0.979 . S
H294 C268 0.977 . S
H295 C269 0.979 . S
H296 C269 0.980 . S
H297 C269 0.983 . S
H298 C242 0.947 . S
C299 C242 1.392 . S
C299 C243 1.419 . S
C299 H281 0.948 . S
C300 C301 1.391 . S
C300 C304 1.391 . S
C300 H342 0.948 . S
C301 C300 1.391 . S
C301 C302 1.391 . S
C302 C301 1.391 . S
C302 H358 0.947 . S
C302 C359 1.392 . S
C303 C304 1.391 . S
C303 C307 1.397 . S
C303 C359 1.419 . S
C304 C300 1.391 . S
C304 C303 1.391 . S
C304 C305 1.399 . S
C305 C304 1.399 . S
C305 C308 1.396 . S
C305 C317 1.453 . S
C305 C318 1.684 . S
H306 C330 0.948 . S
C307 C303 1.397 . S
C307 C308 1.394 . S
C307 C326 1.723 . S
C308 C305 1.396 . S
C308 C307 1.394 . S
C308 C338 1.723 . S
H309 C332 0.947 . S
H310 C333 0.948 . S
H311 C339 0.982 . S
H312 C340 0.979 . S
H313 C340 0.980 . S
H314 C340 0.983 . S
H315 C339 0.979 . S
H316 C339 0.977 . S
C317 C305 1.453 . S
C317 H346 0.982 . S
C317 H347 0.979 . S
C317 H348 0.977 . S
C318 C305 1.684 . S
C318 H343 0.979 . S
C318 H344 0.980 . S
C318 H345 0.983 . S
C319 C320 1.391 . S
C319 C324 1.391 . S
C319 H349 0.948 . S
C320 C319 1.391 . S
C320 C321 1.391 . S
C321 C320 1.391 . S
C321 C322 1.392 . S
C321 H350 0.947 . S
C322 C321 1.392 . S
C322 C323 1.419 . S
C322 H351 0.948 . S
C323 C322 1.419 . S
C323 C324 1.391 . S
C323 C327 1.397 . S
C324 C319 1.391 . S
C324 C323 1.391 . S
C324 C325 1.399 . S
C325 C324 1.399 . S
C325 C326 1.396 . S
C325 C328 1.453 . S
C325 C329 1.684 . S
C326 C307 1.723 . S
C326 C325 1.396 . S
C326 C327 1.394 . S
C327 C323 1.397 . S
C327 C326 1.394 . S
C327 C337 1.723 . S
C328 C325 1.453 . S
C328 H352 0.982 . S
C328 H353 0.979 . S
C328 H354 0.977 . S
C329 C325 1.684 . S
C329 H355 0.979 . S
C329 H356 0.980 . S
C329 H357 0.983 . S
C330 H306 0.948 . S
C330 C331 1.391 . S
C330 C335 1.391 . S
C331 C330 1.391 . S
C331 C332 1.391 . S
C332 H309 0.947 . S
C332 C331 1.391 . S
C332 C333 1.392 . S
C333 H310 0.948 . S
C333 C332 1.392 . S
C333 C334 1.419 . S
C334 C333 1.419 . S
C334 C335 1.391 . S
C334 C338 1.397 . S
C335 C330 1.391 . S
C335 C334 1.391 . S
C335 C336 1.399 . S
C336 C335 1.399 . S
C336 C337 1.396 . S
C336 C339 1.453 . S
C336 C340 1.684 . S
C337 C327 1.723 . S
C337 C336 1.396 . S
C337 C338 1.394 . S
C338 C308 1.723 . S
C338 C334 1.397 . S
C338 C337 1.394 . S
C339 H311 0.982 . S
C339 H315 0.979 . S
C339 H316 0.977 . S
C339 C336 1.453 . S
C340 H312 0.979 . S
C340 H313 0.980 . S
C340 H314 0.983 . S
C340 C336 1.684 . S
H341 C359 0.948 . S
H342 C300 0.948 . S
H343 C318 0.979 . S
H344 C318 0.980 . S
H345 C318 0.983 . S
H346 C317 0.982 . S
H347 C317 0.979 . S
H348 C317 0.977 . S
H349 C319 0.948 . S
H350 C321 0.947 . S
H351 C322 0.948 . S
H352 C328 0.982 . S
H353 C328 0.979 . S
H354 C328 0.977 . S
H355 C329 0.979 . S
H356 C329 0.980 . S
H357 C329 0.983 . S
H358 C302 0.947 . S
C359 C302 1.392 . S
C359 C303 1.419 . S
C359 H341 0.948 . S
C360 C361 1.391 . S
C360 C364 1.391 . S
C360 H402 0.948 . S
C361 C360 1.391 . S
C361 C362 1.391 . S
C362 C361 1.391 . S
C362 H418 0.947 . S
C362 C419 1.392 . S
C363 C364 1.391 . S
C363 C367 1.397 . S
C363 C419 1.419 . S
C364 C360 1.391 . S
C364 C363 1.391 . S
C364 C365 1.399 . S
C365 C364 1.399 . S
C365 C368 1.396 . S
C365 C377 1.453 . S
C365 C378 1.684 . S
H366 C390 0.948 . S
C367 C363 1.397 . S
C367 C368 1.394 . S
C367 C386 1.723 . S
C368 C365 1.396 . S
C368 C367 1.394 . S
C368 C398 1.723 . S
H369 C392 0.947 . S
H370 C393 0.948 . S
H371 C399 0.982 . S
H372 C400 0.979 . S
H373 C400 0.980 . S
H374 C400 0.983 . S
H375 C399 0.979 . S
H376 C399 0.977 . S
C377 C365 1.453 . S
C377 H406 0.982 . S
C377 H407 0.979 . S
C377 H408 0.977 . S
C378 C365 1.684 . S
C378 H403 0.979 . S
C378 H404 0.980 . S
C378 H405 0.983 . S
C379 C380 1.391 . S
C379 C384 1.391 . S
C379 H409 0.948 . S
C380 C379 1.391 . S
C380 C381 1.391 . S
C381 C380 1.391 . S
C381 C382 1.392 . S
C381 H410 0.947 . S
C382 C381 1.392 . S
C382 C383 1.419 . S
C382 H411 0.948 . S
C383 C382 1.419 . S
C383 C384 1.391 . S
C383 C387 1.397 . S
C384 C379 1.391 . S
C384 C383 1.391 . S
C384 C385 1.399 . S
C385 C384 1.399 . S
C385 C386 1.396 . S
C385 C388 1.453 . S
C385 C389 1.684 . S
C386 C367 1.723 . S
C386 C385 1.396 . S
C386 C387 1.394 . S
C387 C383 1.397 . S
C387 C386 1.394 . S
C387 C397 1.723 . S
C388 C385 1.453 . S
C388 H412 0.982 . S
C388 H413 0.979 . S
C388 H414 0.977 . S
C389 C385 1.684 . S
C389 H415 0.979 . S
C389 H416 0.980 . S
C389 H417 0.983 . S
C390 H366 0.948 . S
C390 C391 1.391 . S
C390 C395 1.391 . S
C391 C390 1.391 . S
C391 C392 1.391 . S
C392 H369 0.947 . S
C392 C391 1.391 . S
C392 C393 1.392 . S
C393 H370 0.948 . S
C393 C392 1.392 . S
C393 C394 1.419 . S
C394 C393 1.419 . S
C394 C395 1.391 . S
C394 C398 1.397 . S
C395 C390 1.391 . S
C395 C394 1.391 . S
C395 C396 1.399 . S
C396 C395 1.399 . S
C396 C397 1.396 . S
C396 C399 1.453 . S
C396 C400 1.684 . S
C397 C387 1.723 . S
C397 C396 1.396 . S
C397 C398 1.394 . S
C398 C368 1.723 . S
C398 C394 1.397 . S
C398 C397 1.394 . S
C399 H371 0.982 . S
C399 H375 0.979 . S
C399 H376 0.977 . S
C399 C396 1.453 . S
C400 H372 0.979 . S
C400 H373 0.980 . S
C400 H374 0.983 . S
C400 C396 1.684 . S
H401 C419 0.948 . S
H402 C360 0.948 . S
H403 C378 0.979 . S
H404 C378 0.980 . S
H405 C378 0.983 . S
H406 C377 0.982 . S
H407 C377 0.979 . S
H408 C377 0.977 . S
H409 C379 0.948 . S
H410 C381 0.947 . S
H411 C382 0.948 . S
H412 C388 0.982 . S
H413 C388 0.979 . S
H414 C388 0.977 . S
H415 C389 0.979 . S
H416 C389 0.980 . S
H417 C389 0.983 . S
H418 C362 0.947 . S
C419 C362 1.392 . S
C419 C363 1.419 . S
C419 H401 0.948 . S
C420 C421 1.391 . S
C420 C424 1.391 . S
C420 H462 0.948 . S
C421 C420 1.391 . S
C421 C422 1.391 . S
C422 C421 1.391 . S
C422 H478 0.947 . S
C422 C479 1.392 . S
C423 C424 1.391 . S
C423 C427 1.397 . S
C423 C479 1.419 . S
C424 C420 1.391 . S
C424 C423 1.391 . S
C424 C425 1.399 . S
C425 C424 1.399 . S
C425 C428 1.396 . S
C425 C437 1.453 . S
C425 C438 1.684 . S
H426 C450 0.948 . S
C427 C423 1.397 . S
C427 C428 1.394 . S
C427 C446 1.723 . S
C428 C425 1.396 . S
C428 C427 1.394 . S
C428 C458 1.723 . S
H429 C452 0.947 . S
H430 C453 0.948 . S
H431 C459 0.982 . S
H432 C460 0.979 . S
H433 C460 0.980 . S
H434 C460 0.983 . S
H435 C459 0.979 . S
H436 C459 0.977 . S
C437 C425 1.453 . S
C437 H466 0.982 . S
C437 H467 0.979 . S
C437 H468 0.977 . S
C438 C425 1.684 . S
C438 H463 0.979 . S
C438 H464 0.980 . S
C438 H465 0.983 . S
C439 C440 1.391 . S
C439 C444 1.391 . S
C439 H469 0.948 . S
C440 C439 1.391 . S
C440 C441 1.391 . S
C441 C440 1.391 . S
C441 C442 1.392 . S
C441 H470 0.947 . S
C442 C441 1.392 . S
C442 C443 1.419 . S
C442 H471 0.948 . S
C443 C442 1.419 . S
C443 C444 1.391 . S
C443 C447 1.397 . S
C444 C439 1.391 . S
C444 C443 1.391 . S
C444 C445 1.399 . S
C445 C444 1.399 . S
C445 C446 1.396 . S
C445 C448 1.453 . S
C445 C449 1.684 . S
C446 C427 1.723 . S
C446 C445 1.396 . S
C446 C447 1.394 . S
C447 C443 1.397 . S
C447 C446 1.394 . S
C447 C457 1.723 . S
C448 C445 1.453 . S
C448 H472 0.982 . S
C448 H473 0.979 . S
C448 H474 0.977 . S
C449 C445 1.684 . S
C449 H475 0.979 . S
C449 H476 0.980 . S
C449 H477 0.983 . S
C450 H426 0.948 . S
C450 C451 1.391 . S
C450 C455 1.391 . S
C451 C450 1.391 . S
C451 C452 1.391 . S
C452 H429 0.947 . S
C452 C451 1.391 . S
C452 C453 1.392 . S
C453 H430 0.948 . S
C453 C452 1.392 . S
C453 C454 1.419 . S
C454 C453 1.419 . S
C454 C455 1.391 . S
C454 C458 1.397 . S
C455 C450 1.391 . S
C455 C454 1.391 . S
C455 C456 1.399 . S
C456 C455 1.399 . S
C456 C457 1.396 . S
C456 C459 1.453 . S
C456 C460 1.684 . S
C457 C447 1.723 . S
C457 C456 1.396 . S
C457 C458 1.394 . S
C458 C428 1.723 . S
C458 C454 1.397 . S
C458 C457 1.394 . S
C459 H431 0.982 . S
C459 H435 0.979 . S
C459 H436 0.977 . S
C459 C456 1.453 . S
C460 H432 0.979 . S
C460 H433 0.980 . S
C460 H434 0.983 . S
C460 C456 1.684 . S
H461 C479 0.948 . S
H462 C420 0.948 . S
H463 C438 0.979 . S
H464 C438 0.980 . S
H465 C438 0.983 . S
H466 C437 0.982 . S
H467 C437 0.979 . S
H468 C437 0.977 . S
H469 C439 0.948 . S
H470 C441 0.947 . S
H471 C442 0.948 . S
H472 C448 0.982 . S
H473 C448 0.979 . S
H474 C448 0.977 . S
H475 C449 0.979 . S
H476 C449 0.980 . S
H477 C449 0.983 . S
H478 C422 0.947 . S
C479 C422 1.392 . S
C479 C423 1.419 . S
C479 H461 0.948 . S
Tb480 C482 2.809 . S
Tb480 O500 2.484 . S
Tb480 O501 2.440 . S
Tb480 O502 2.658 1_665 S
Tb480 O503 2.409 1_565 S
Tb480 O504 2.378 1_655 S
Tb480 O508 2.325 . S
Tb480 O511 2.341 1_565 S
Tb481 C491 2.809 . S
Tb481 O502 2.325 . S
Tb481 O505 2.341 1_545 S
Tb481 O506 2.484 . S
Tb481 O507 2.440 . S
Tb481 O508 2.658 1_445 S
Tb481 O509 2.409 1_545 S
Tb481 O510 2.378 1_455 S
C482 Tb480 2.809 . S
C482 C483 1.514 . S
C482 O500 1.248 . S
C482 O501 1.266 . S
C483 C482 1.514 . S
C483 C484 1.359 . S
C483 C488 1.348 . S
C484 C483 1.359 . S
C484 C485 1.380 . S
C484 H512 0.929 . S
C485 C484 1.380 . S
C485 C486 1.347 . S
C485 H513 0.931 . S
C486 C485 1.347 . S
C486 C487 1.369 . S
C487 C486 1.369 . S
C487 C488 1.408 . S
C487 H514 0.930 . S
C488 C483 1.348 . S
C488 C487 1.408 . S
C488 H515 0.930 . S
C489 O502 1.281 . S
C489 O503 1.254 1_455 S
C490 O504 1.236 . S
C490 O505 1.266 . S
C491 Tb481 2.809 . S
C491 C492 1.514 . S
C491 O506 1.248 . S
C491 O507 1.266 . S
C492 C491 1.514 . S
C492 C493 1.359 . S
C492 C497 1.348 . S
C493 C492 1.359 . S
C493 C494 1.380 . S
C493 H516 0.929 . S
C494 C493 1.380 . S
C494 C495 1.347 . S
C494 H517 0.931 . S
C495 C494 1.347 . S
C495 C496 1.369 . S
C496 C495 1.369 . S
C496 C497 1.408 . S
C496 H518 0.930 . S
C497 C492 1.348 . S
C497 C496 1.408 . S
C497 H519 0.930 . S
C498 O508 1.281 . S
C498 O509 1.254 1_655 S
C499 O510 1.236 . S
C499 O511 1.266 . S
O500 Tb480 2.484 . S
O500 C482 1.248 . S
O501 Tb480 2.440 . S
O501 C482 1.266 . S
O502 Tb480 2.658 1_445 S
O502 Tb481 2.325 . S
O502 C489 1.281 . S
O503 Tb480 2.409 1_545 S
O503 C489 1.254 1_655 S
O504 Tb480 2.378 1_455 S
O504 C490 1.236 . S
O505 Tb481 2.341 1_565 S
O505 C490 1.266 . S
O506 Tb481 2.484 . S
O506 C491 1.248 . S
O507 Tb481 2.440 . S
O507 C491 1.266 . S
O508 Tb480 2.325 . S
O508 Tb481 2.658 1_665 S
O508 C498 1.281 . S
O509 Tb481 2.409 1_565 S
O509 C498 1.254 1_455 S
O510 Tb481 2.378 1_655 S
O510 C499 1.236 . S
O511 Tb480 2.341 1_545 S
O511 C499 1.266 . S
H512 C484 0.929 . S
H513 C485 0.931 . S
H514 C487 0.930 . S
H515 C488 0.930 . S
H516 C493 0.929 . S
H517 C494 0.931 . S
H518 C496 0.930 . S
H519 C497 0.930 . S
Tb520 C522 2.809 . S
Tb520 O540 2.484 . S
Tb520 O541 2.440 . S
Tb520 O542 2.658 1_545 S
Tb520 O543 2.409 1_545 S
Tb520 O544 2.378 . S
Tb520 O548 2.325 1_554 S
Tb520 O551 2.341 1_544 S
Tb521 C531 2.809 . S
Tb521 O542 2.325 1_556 S
Tb521 O545 2.341 1_566 S
Tb521 O546 2.484 . S
Tb521 O547 2.440 . S
Tb521 O548 2.658 1_565 S
Tb521 O549 2.409 1_565 S
Tb521 O550 2.378 . S
C522 Tb520 2.809 . S
C522 C523 1.514 . S
C522 O540 1.248 . S
C522 O541 1.266 . S
C523 C522 1.514 . S
C523 C524 1.359 . S
C523 C528 1.348 . S
C524 C523 1.359 . S
C524 C525 1.380 . S
C524 H552 0.929 . S
C525 C524 1.380 . S
C525 C526 1.347 . S
C525 H553 0.931 . S
C526 C525 1.347 . S
C526 C527 1.369 . S
C527 C526 1.369 . S
C527 C528 1.408 . S
C527 H554 0.930 . S
C528 C523 1.348 . S
C528 C527 1.408 . S
C528 H555 0.930 . S
C529 O542 1.281 . S
C529 O543 1.254 . S
C530 O544 1.236 . S
C530 O545 1.266 . S
C531 Tb521 2.809 . S
C531 C532 1.514 . S
C531 O546 1.248 . S
C531 O547 1.266 . S
C532 C531 1.514 . S
C532 C533 1.359 . S
C532 C537 1.348 . S
C533 C532 1.359 . S
C533 C534 1.380 . S
C533 H556 0.929 . S
C534 C533 1.380 . S
C534 C535 1.347 . S
C534 H557 0.931 . S
C535 C534 1.347 . S
C535 C536 1.369 . S
C536 C535 1.369 . S
C536 C537 1.408 . S
C536 H558 0.930 . S
C537 C532 1.348 . S
C537 C536 1.408 . S
C537 H559 0.930 . S
C538 O548 1.281 . S
C538 O549 1.254 . S
C539 O550 1.236 . S
C539 O551 1.266 . S
O540 Tb520 2.484 . S
O540 C522 1.248 . S
O541 Tb520 2.440 . S
O541 C522 1.266 . S
O542 Tb520 2.658 1_565 S
O542 Tb521 2.325 1_554 S
O542 C529 1.281 . S
O543 Tb520 2.409 1_565 S
O543 C529 1.254 . S
O544 Tb520 2.378 . S
O544 C530 1.236 . S
O545 Tb521 2.341 1_544 S
O545 C530 1.266 . S
O546 Tb521 2.484 . S
O546 C531 1.248 . S
O547 Tb521 2.440 . S
O547 C531 1.266 . S
O548 Tb520 2.325 1_556 S
O548 Tb521 2.658 1_545 S
O548 C538 1.281 . S
O549 Tb521 2.409 1_545 S
O549 C538 1.254 . S
O550 Tb521 2.378 . S
O550 C539 1.236 . S
O551 Tb520 2.341 1_566 S
O551 C539 1.266 . S
H552 C524 0.929 . S
H553 C525 0.931 . S
H554 C527 0.930 . S
H555 C528 0.930 . S
H556 C533 0.929 . S
H557 C534 0.931 . S
H558 C536 0.930 . S
H559 C537 0.930 . S
Tb560 C562 2.809 . S
Tb560 O580 2.484 . S
Tb560 O581 2.440 . S
Tb560 O582 2.658 . S
Tb560 O583 2.409 . S
Tb560 O584 2.378 . S
Tb560 O588 2.325 . S
Tb560 O591 2.341 . S
Tb561 C571 2.809 . S
Tb561 O582 2.325 . S
Tb561 O585 2.341 . S
Tb561 O586 2.484 . S
Tb561 O587 2.440 . S
Tb561 O588 2.658 . S
Tb561 O589 2.409 . S
Tb561 O590 2.378 . S
C562 Tb560 2.809 . S
C562 C563 1.514 . S
C562 O580 1.248 . S
C562 O581 1.266 . S
C563 C562 1.514 . S
C563 C564 1.359 . S
C563 C568 1.348 . S
C564 C563 1.359 . S
C564 C565 1.380 . S
C564 H592 0.929 . S
C565 C564 1.380 . S
C565 C566 1.347 . S
C565 H593 0.931 . S
C566 C565 1.347 . S
C566 C567 1.369 . S
C567 C566 1.369 . S
C567 C568 1.408 . S
C567 H594 0.930 . S
C568 C563 1.348 . S
C568 C567 1.408 . S
C568 H595 0.930 . S
C569 O582 1.281 . S
C569 O583 1.254 . S
C570 O584 1.236 . S
C570 O585 1.266 . S
C571 Tb561 2.809 . S
C571 C572 1.514 . S
C571 O586 1.248 . S
C571 O587 1.266 . S
C572 C571 1.514 . S
C572 C573 1.359 . S
C572 C577 1.348 . S
C573 C572 1.359 . S
C573 C574 1.380 . S
C573 H596 0.929 . S
C574 C573 1.380 . S
C574 C575 1.347 . S
C574 H597 0.931 . S
C575 C574 1.347 . S
C575 C576 1.369 . S
C576 C575 1.369 . S
C576 C577 1.408 . S
C576 H598 0.930 . S
C577 C572 1.348 . S
C577 C576 1.408 . S
C577 H599 0.930 . S
C578 O588 1.281 . S
C578 O589 1.254 . S
C579 O590 1.236 . S
C579 O591 1.266 . S
O580 Tb560 2.484 . S
O580 C562 1.248 . S
O581 Tb560 2.440 . S
O581 C562 1.266 . S
O582 Tb560 2.658 . S
O582 Tb561 2.325 . S
O582 C569 1.281 . S
O583 Tb560 2.409 . S
O583 C569 1.254 . S
O584 Tb560 2.378 . S
O584 C570 1.236 . S
O585 Tb561 2.341 . S
O585 C570 1.266 . S
O586 Tb561 2.484 . S
O586 C571 1.248 . S
O587 Tb561 2.440 . S
O587 C571 1.266 . S
O588 Tb560 2.325 . S
O588 Tb561 2.658 . S
O588 C578 1.281 . S
O589 Tb561 2.409 . S
O589 C578 1.254 . S
O590 Tb561 2.378 . S
O590 C579 1.236 . S
O591 Tb560 2.341 . S
O591 C579 1.266 . S
H592 C564 0.929 . S
H593 C565 0.931 . S
H594 C567 0.930 . S
H595 C568 0.930 . S
H596 C573 0.929 . S
H597 C574 0.931 . S
H598 C576 0.930 . S
H599 C577 0.930 . S
Tb600 C602 2.809 . S
Tb600 O620 2.484 . S
Tb600 O621 2.440 . S
Tb600 O622 2.658 1_656 S
Tb600 O623 2.412 1_656 S
Tb600 O624 2.378 1_556 S
Tb600 O628 2.325 . S
Tb600 O631 2.341 1_655 S
Tb601 C611 2.809 . S
Tb601 O622 2.325 . S
Tb601 O625 2.341 1_455 S
Tb601 O626 2.484 . S
Tb601 O627 2.440 . S
Tb601 O628 2.658 1_454 S
Tb601 O629 2.412 1_455 S
Tb601 O630 2.378 1_554 S
C602 Tb600 2.809 . S
C602 C603 1.514 . S
C602 O620 1.248 . S
C602 O621 1.266 . S
C603 C602 1.514 . S
C603 C604 1.359 . S
C603 C608 1.348 . S
C604 C603 1.359 . S
C604 C605 1.380 . S
C604 H632 0.929 . S
C605 C604 1.380 . S
C605 C606 1.347 . S
C605 H633 0.931 . S
C606 C605 1.347 . S
C606 C607 1.369 . S
C607 C606 1.369 . S
C607 C608 1.408 . S
C607 H634 0.930 . S
C608 C603 1.348 . S
C608 C607 1.408 . S
C608 H635 0.930 . S
C609 O622 1.281 . S
C609 O623 1.250 . S
C610 O624 1.236 . S
C610 O625 1.266 . S
C611 Tb601 2.809 . S
C611 C612 1.514 . S
C611 O626 1.248 . S
C611 O627 1.266 . S
C612 C611 1.514 . S
C612 C613 1.359 . S
C612 C617 1.348 . S
C613 C612 1.359 . S
C613 C614 1.380 . S
C613 H636 0.929 . S
C614 C613 1.380 . S
C614 C615 1.347 . S
C614 H637 0.931 . S
C615 C614 1.347 . S
C615 C616 1.369 . S
C616 C615 1.369 . S
C616 C617 1.408 . S
C616 H638 0.930 . S
C617 C612 1.348 . S
C617 C616 1.408 . S
C617 H639 0.930 . S
C618 O628 1.281 . S
C618 O629 1.250 1_556 S
C619 O630 1.236 . S
C619 O631 1.266 . S
O620 Tb600 2.484 . S
O620 C602 1.248 . S
O621 Tb600 2.440 . S
O621 C602 1.266 . S
O622 Tb600 2.658 1_454 S
O622 Tb601 2.325 . S
O622 C609 1.281 . S
O623 Tb600 2.412 1_454 S
O623 C609 1.250 . S
O624 Tb600 2.378 1_554 S
O624 C610 1.236 . S
O625 Tb601 2.341 1_655 S
O625 C610 1.266 . S
O626 Tb601 2.484 . S
O626 C611 1.248 . S
O627 Tb601 2.440 . S
O627 C611 1.266 . S
O628 Tb600 2.325 . S
O628 Tb601 2.658 1_656 S
O628 C618 1.281 . S
O629 Tb601 2.412 1_655 S
O629 C618 1.250 1_554 S
O630 Tb601 2.378 1_556 S
O630 C619 1.236 . S
O631 Tb600 2.341 1_455 S
O631 C619 1.266 . S
H632 C604 0.929 . S
H633 C605 0.931 . S
H634 C607 0.930 . S
H635 C608 0.930 . S
H636 C613 0.929 . S
H637 C614 0.931 . S
H638 C616 0.930 . S
H639 C617 0.930 . S
H640 C648 0.929 . S
H641 C650 0.930 . S
H642 C652 0.930 . S
H643 C655 0.929 . S
H644 C658 0.930 . S
H645 C660 0.960 . S
H646 C660 0.960 . S
H647 C660 0.960 . S
C648 H640 0.929 . S
C648 C649 1.377 . S
C648 C650 1.384 . S
C649 C648 1.377 . S
C649 C655 1.390 . S
C650 H641 0.930 . S
C650 C648 1.384 . S
C650 C651 1.372 . S
C651 C650 1.372 . S
C651 C652 1.400 . S
C651 C656 1.490 . S
C652 H642 0.930 . S
C652 C651 1.400 . S
C652 C655 1.386 . S
H653 C669 0.930 . S
H654 C670 0.931 . S
C655 H643 0.929 . S
C655 C649 1.390 . S
C655 C652 1.386 . S
C656 C651 1.490 . S
C656 C658 1.395 . S
C656 C659 1.403 . S
H657 C663 0.930 . S
C658 H644 0.930 . S
C658 C656 1.395 . S
C658 C661 1.403 . S
C659 C656 1.403 . S
C659 C660 1.524 . S
C659 C663 1.400 . S
C660 H645 0.960 . S
C660 H646 0.960 . S
C660 H647 0.960 . S
C660 C659 1.524 . S
C661 C658 1.403 . S
C661 C662 1.392 . S
C661 C665 1.495 . S
C662 C661 1.392 . S
C662 C663 1.385 . S
C662 C664 1.478 . S
C663 H657 0.930 . S
C663 C659 1.400 . S
C663 C662 1.385 . S
C664 C662 1.478 . S
C664 C666 1.381 . S
C664 C670 1.383 . S
C665 C661 1.495 . S
C665 H671 0.959 . S
C665 H672 0.961 . S
C665 H673 0.960 . S
C666 C664 1.381 . S
C666 C667 1.394 . S
C666 H674 0.930 . S
C667 C666 1.394 . S
C667 C668 1.383 . S
C667 H675 0.929 . S
C668 C667 1.383 . S
C668 C669 1.377 . S
C669 H653 0.930 . S
C669 C668 1.377 . S
C669 C670 1.379 . S
C670 H654 0.931 . S
C670 C664 1.383 . S
C670 C669 1.379 . S
H671 C665 0.959 . S
H672 C665 0.961 . S
H673 C665 0.960 . S
H674 C666 0.930 . S
H675 C667 0.929 . S
H676 C684 0.929 . S
H677 C686 0.930 . S
H678 C688 0.930 . S
H679 C691 0.929 . S
H680 C694 0.930 . S
H681 C696 0.960 . S
H682 C696 0.960 . S
H683 C696 0.960 . S
C684 H676 0.929 . S
C684 C685 1.377 . S
C684 C686 1.384 . S
C685 C684 1.377 . S
C685 C691 1.390 . S
C686 H677 0.930 . S
C686 C684 1.384 . S
C686 C687 1.372 . S
C687 C686 1.372 . S
C687 C688 1.400 . S
C687 C692 1.490 . S
C688 H678 0.930 . S
C688 C687 1.400 . S
C688 C691 1.386 . S
H689 C705 0.930 . S
H690 C706 0.931 . S
C691 H679 0.929 . S
C691 C685 1.390 . S
C691 C688 1.386 . S
C692 C687 1.490 . S
C692 C694 1.395 . S
C692 C695 1.403 . S
H693 C699 0.930 . S
C694 H680 0.930 . S
C694 C692 1.395 . S
C694 C697 1.403 . S
C695 C692 1.403 . S
C695 C696 1.524 . S
C695 C699 1.400 . S
C696 H681 0.960 . S
C696 H682 0.960 . S
C696 H683 0.960 . S
C696 C695 1.524 . S
C697 C694 1.403 . S
C697 C698 1.392 . S
C697 C701 1.495 . S
C698 C697 1.392 . S
C698 C699 1.385 . S
C698 C700 1.478 . S
C699 H693 0.930 . S
C699 C695 1.400 . S
C699 C698 1.385 . S
C700 C698 1.478 . S
C700 C702 1.381 . S
C700 C706 1.383 . S
C701 C697 1.495 . S
C701 H707 0.959 . S
C701 H708 0.961 . S
C701 H709 0.960 . S
C702 C700 1.381 . S
C702 C703 1.394 . S
C702 H710 0.930 . S
C703 C702 1.394 . S
C703 C704 1.383 . S
C703 H711 0.929 . S
C704 C703 1.383 . S
C704 C705 1.377 . S
C705 H689 0.930 . S
C705 C704 1.377 . S
C705 C706 1.379 . S
C706 H690 0.931 . S
C706 C700 1.383 . S
C706 C705 1.379 . S
H707 C701 0.959 . S
H708 C701 0.961 . S
H709 C701 0.960 . S
H710 C702 0.930 . S
H711 C703 0.929 . S
H712 C720 0.929 . S
H713 C722 0.930 . S
H714 C724 0.930 . S
H715 C727 0.929 . S
H716 C730 0.930 . S
H717 C732 0.960 . S
H718 C732 0.960 . S
H719 C732 0.960 . S
C720 H712 0.929 . S
C720 C721 1.377 . S
C720 C722 1.384 . S
C721 C720 1.377 . S
C721 C727 1.390 . S
C722 H713 0.930 . S
C722 C720 1.384 . S
C722 C723 1.372 . S
C723 C722 1.372 . S
C723 C724 1.400 . S
C723 C728 1.490 . S
C724 H714 0.930 . S
C724 C723 1.400 . S
C724 C727 1.386 . S
H725 C741 0.930 . S
H726 C742 0.931 . S
C727 H715 0.929 . S
C727 C721 1.390 . S
C727 C724 1.386 . S
C728 C723 1.490 . S
C728 C730 1.395 . S
C728 C731 1.403 . S
H729 C735 0.930 . S
C730 H716 0.930 . S
C730 C728 1.395 . S
C730 C733 1.403 . S
C731 C728 1.403 . S
C731 C732 1.524 . S
C731 C735 1.400 . S
C732 H717 0.960 . S
C732 H718 0.960 . S
C732 H719 0.960 . S
C732 C731 1.524 . S
C733 C730 1.403 . S
C733 C734 1.392 . S
C733 C737 1.495 . S
C734 C733 1.392 . S
C734 C735 1.385 . S
C734 C736 1.478 . S
C735 H729 0.930 . S
C735 C731 1.400 . S
C735 C734 1.385 . S
C736 C734 1.478 . S
C736 C738 1.381 . S
C736 C742 1.383 . S
C737 C733 1.495 . S
C737 H743 0.959 . S
C737 H744 0.961 . S
C737 H745 0.960 . S
C738 C736 1.381 . S
C738 C739 1.394 . S
C738 H746 0.930 . S
C739 C738 1.394 . S
C739 C740 1.383 . S
C739 H747 0.929 . S
C740 C739 1.383 . S
C740 C741 1.377 . S
C741 H725 0.930 . S
C741 C740 1.377 . S
C741 C742 1.379 . S
C742 H726 0.931 . S
C742 C736 1.383 . S
C742 C741 1.379 . S
H743 C737 0.959 . S
H744 C737 0.961 . S
H745 C737 0.960 . S
H746 C738 0.930 . S
H747 C739 0.929 . S
H748 C756 0.929 . S
H749 C758 0.930 . S
H750 C760 0.930 . S
H751 C763 0.929 . S
H752 C766 0.930 . S
H753 C768 0.960 . S
H754 C768 0.960 . S
H755 C768 0.960 . S
C756 H748 0.929 . S
C756 C757 1.377 . S
C756 C758 1.384 . S
C757 C756 1.377 . S
C757 C763 1.390 . S
C758 H749 0.930 . S
C758 C756 1.384 . S
C758 C759 1.372 . S
C759 C758 1.372 . S
C759 C760 1.400 . S
C759 C764 1.490 . S
C760 H750 0.930 . S
C760 C759 1.400 . S
C760 C763 1.386 . S
H761 C777 0.930 . S
H762 C778 0.931 . S
C763 H751 0.929 . S
C763 C757 1.390 . S
C763 C760 1.386 . S
C764 C759 1.490 . S
C764 C766 1.395 . S
C764 C767 1.403 . S
H765 C771 0.930 . S
C766 H752 0.930 . S
C766 C764 1.395 . S
C766 C769 1.403 . S
C767 C764 1.403 . S
C767 C768 1.524 . S
C767 C771 1.400 . S
C768 H753 0.960 . S
C768 H754 0.960 . S
C768 H755 0.960 . S
C768 C767 1.524 . S
C769 C766 1.403 . S
C769 C770 1.392 . S
C769 C773 1.495 . S
C770 C769 1.392 . S
C770 C771 1.385 . S
C770 C772 1.478 . S
C771 H765 0.930 . S
C771 C767 1.400 . S
C771 C770 1.385 . S
C772 C770 1.478 . S
C772 C774 1.381 . S
C772 C778 1.383 . S
C773 C769 1.495 . S
C773 H779 0.959 . S
C773 H780 0.961 . S
C773 H781 0.960 . S
C774 C772 1.381 . S
C774 C775 1.394 . S
C774 H782 0.930 . S
C775 C774 1.394 . S
C775 C776 1.383 . S
C775 H783 0.929 . S
C776 C775 1.383 . S
C776 C777 1.377 . S
C777 H761 0.930 . S
C777 C776 1.377 . S
C777 C778 1.379 . S
C778 H762 0.931 . S
C778 C772 1.383 . S
C778 C777 1.379 . S
H779 C773 0.959 . S
H780 C773 0.961 . S
H781 C773 0.960 . S
H782 C774 0.930 . S
H783 C775 0.929 . S
H784 C792 0.929 . S
H785 C794 0.930 . S
H786 C796 0.930 . S
H787 C799 0.929 . S
H788 C802 0.930 . S
H789 C804 0.960 . S
H790 C804 0.960 . S
H791 C804 0.960 . S
C792 H784 0.929 . S
C792 C793 1.377 . S
C792 C794 1.384 . S
C793 C792 1.377 . S
C793 C799 1.390 . S
C794 H785 0.930 . S
C794 C792 1.384 . S
C794 C795 1.372 . S
C795 C794 1.372 . S
C795 C796 1.400 . S
C795 C800 1.490 . S
C796 H786 0.930 . S
C796 C795 1.400 . S
C796 C799 1.386 . S
H797 C813 0.930 . S
H798 C814 0.931 . S
C799 H787 0.929 . S
C799 C793 1.390 . S
C799 C796 1.386 . S
C800 C795 1.490 . S
C800 C802 1.395 . S
C800 C803 1.403 . S
H801 C807 0.930 . S
C802 H788 0.930 . S
C802 C800 1.395 . S
C802 C805 1.403 . S
C803 C800 1.403 . S
C803 C804 1.524 . S
C803 C807 1.400 . S
C804 H789 0.960 . S
C804 H790 0.960 . S
C804 H791 0.960 . S
C804 C803 1.524 . S
C805 C802 1.403 . S
C805 C806 1.392 . S
C805 C809 1.495 . S
C806 C805 1.392 . S
C806 C807 1.385 . S
C806 C808 1.478 . S
C807 H801 0.930 . S
C807 C803 1.400 . S
C807 C806 1.385 . S
C808 C806 1.478 . S
C808 C810 1.381 . S
C808 C814 1.383 . S
C809 C805 1.495 . S
C809 H815 0.959 . S
C809 H816 0.961 . S
C809 H817 0.960 . S
C810 C808 1.381 . S
C810 C811 1.394 . S
C810 H818 0.930 . S
C811 C810 1.394 . S
C811 C812 1.383 . S
C811 H819 0.929 . S
C812 C811 1.383 . S
C812 C813 1.377 . S
C813 H797 0.930 . S
C813 C812 1.377 . S
C813 C814 1.379 . S
C814 H798 0.931 . S
C814 C808 1.383 . S
C814 C813 1.379 . S
H815 C809 0.959 . S
H816 C809 0.961 . S
H817 C809 0.960 . S
H818 C810 0.930 . S
H819 C811 0.929 . S
H820 C828 0.929 . S
H821 C830 0.930 . S
H822 C832 0.930 . S
H823 C835 0.929 . S
H824 C838 0.930 . S
H825 C840 0.960 . S
H826 C840 0.960 . S
H827 C840 0.960 . S
C828 H820 0.929 . S
C828 C829 1.377 . S
C828 C830 1.384 . S
C829 C828 1.377 . S
C829 C835 1.390 . S
C830 H821 0.930 . S
C830 C828 1.384 . S
C830 C831 1.372 . S
C831 C830 1.372 . S
C831 C832 1.400 . S
C831 C836 1.490 . S
C832 H822 0.930 . S
C832 C831 1.400 . S
C832 C835 1.386 . S
H833 C849 0.930 . S
H834 C850 0.931 . S
C835 H823 0.929 . S
C835 C829 1.390 . S
C835 C832 1.386 . S
C836 C831 1.490 . S
C836 C838 1.395 . S
C836 C839 1.403 . S
H837 C843 0.930 . S
C838 H824 0.930 . S
C838 C836 1.395 . S
C838 C841 1.403 . S
C839 C836 1.403 . S
C839 C840 1.524 . S
C839 C843 1.400 . S
C840 H825 0.960 . S
C840 H826 0.960 . S
C840 H827 0.960 . S
C840 C839 1.524 . S
C841 C838 1.403 . S
C841 C842 1.392 . S
C841 C845 1.495 . S
C842 C841 1.392 . S
C842 C843 1.385 . S
C842 C844 1.478 . S
C843 H837 0.930 . S
C843 C839 1.400 . S
C843 C842 1.385 . S
C844 C842 1.478 . S
C844 C846 1.381 . S
C844 C850 1.383 . S
C845 C841 1.495 . S
C845 H851 0.959 1_455 S
C845 H852 0.962 1_455 S
C845 H853 0.960 . S
C846 C844 1.381 . S
C846 C847 1.394 . S
C846 H854 0.930 . S
C847 C846 1.394 . S
C847 C848 1.383 . S
C847 H855 0.929 . S
C848 C847 1.383 . S
C848 C849 1.377 . S
C849 H833 0.930 . S
C849 C848 1.377 . S
C849 C850 1.379 . S
C850 H834 0.931 . S
C850 C844 1.383 . S
C850 C849 1.379 . S
H851 C845 0.959 1_655 S
H852 C845 0.962 1_655 S
H853 C845 0.960 . S
H854 C846 0.930 . S
H855 C847 0.929 . S
H856 C864 0.929 . S
H857 C866 0.930 . S
H858 C868 0.930 . S
H859 C871 0.929 . S
H860 C874 0.930 . S
H861 C876 0.960 . S
H862 C876 0.960 . S
H863 C876 0.960 . S
C864 H856 0.929 . S
C864 C865 1.377 . S
C864 C866 1.384 . S
C865 C864 1.377 . S
C865 C871 1.390 . S
C866 H857 0.930 . S
C866 C864 1.384 . S
C866 C867 1.372 . S
C867 C866 1.372 . S
C867 C868 1.400 . S
C867 C872 1.490 . S
C868 H858 0.930 . S
C868 C867 1.400 . S
C868 C871 1.386 . S
H869 C885 0.930 . S
H870 C886 0.931 . S
C871 H859 0.929 . S
C871 C865 1.390 . S
C871 C868 1.386 . S
C872 C867 1.490 . S
C872 C874 1.395 . S
C872 C875 1.403 . S
H873 C879 0.930 . S
C874 H860 0.930 . S
C874 C872 1.395 . S
C874 C877 1.403 . S
C875 C872 1.403 . S
C875 C876 1.524 . S
C875 C879 1.400 . S
C876 H861 0.960 . S
C876 H862 0.960 . S
C876 H863 0.960 . S
C876 C875 1.524 . S
C877 C874 1.403 . S
C877 C878 1.392 . S
C877 C881 1.495 . S
C878 C877 1.392 . S
C878 C879 1.385 . S
C878 C880 1.478 . S
C879 H873 0.930 . S
C879 C875 1.400 . S
C879 C878 1.385 . S
C880 C878 1.478 . S
C880 C882 1.381 . S
C880 C886 1.383 . S
C881 C877 1.495 . S
C881 H887 0.959 . S
C881 H888 0.961 . S
C881 H889 0.960 . S
C882 C880 1.381 . S
C882 C883 1.394 . S
C882 H890 0.930 . S
C883 C882 1.394 . S
C883 C884 1.383 . S
C883 H891 0.929 . S
C884 C883 1.383 . S
C884 C885 1.377 . S
C885 H869 0.930 . S
C885 C884 1.377 . S
C885 C886 1.379 . S
C886 H870 0.931 . S
C886 C880 1.383 . S
C886 C885 1.379 . S
H887 C881 0.959 . S
H888 C881 0.961 . S
H889 C881 0.960 . S
H890 C882 0.930 . S
H891 C883 0.929 . S
H892 C900 0.929 . S
H893 C902 0.930 . S
H894 C904 0.930 . S
H895 C907 0.929 . S
H896 C910 0.930 . S
H897 C912 0.960 . S
H898 C912 0.960 . S
H899 C912 0.960 . S
C900 H892 0.929 . S
C900 C901 1.377 . S
C900 C902 1.384 . S
C901 C900 1.377 . S
C901 C907 1.390 . S
C902 H893 0.930 . S
C902 C900 1.384 . S
C902 C903 1.372 . S
C903 C902 1.372 . S
C903 C904 1.400 . S
C903 C908 1.490 . S
C904 H894 0.930 . S
C904 C903 1.400 . S
C904 C907 1.386 . S
H905 C921 0.930 . S
H906 C922 0.931 . S
C907 H895 0.929 . S
C907 C901 1.390 . S
C907 C904 1.386 . S
C908 C903 1.490 . S
C908 C910 1.395 . S
C908 C911 1.403 . S
H909 C915 0.930 . S
C910 H896 0.930 . S
C910 C908 1.395 . S
C910 C913 1.403 . S
C911 C908 1.403 . S
C911 C912 1.524 . S
C911 C915 1.400 . S
C912 H897 0.960 . S
C912 H898 0.960 . S
C912 H899 0.960 . S
C912 C911 1.524 . S
C913 C910 1.403 . S
C913 C914 1.392 . S
C913 C917 1.495 . S
C914 C913 1.392 . S
C914 C915 1.385 . S
C914 C916 1.478 . S
C915 H909 0.930 . S
C915 C911 1.400 . S
C915 C914 1.385 . S
C916 C914 1.478 . S
C916 C918 1.381 . S
C916 C922 1.383 . S
C917 C913 1.495 . S
C917 H923 0.959 . S
C917 H924 0.961 . S
C917 H925 0.960 . S
C918 C916 1.381 . S
C918 C919 1.394 . S
C918 H926 0.930 . S
C919 C918 1.394 . S
C919 C920 1.383 . S
C919 H927 0.929 . S
C920 C919 1.383 . S
C920 C921 1.377 . S
C921 H905 0.930 . S
C921 C920 1.377 . S
C921 C922 1.379 . S
C922 H906 0.931 . S
C922 C916 1.383 . S
C922 C921 1.379 . S
H923 C917 0.959 . S
H924 C917 0.961 . S
H925 C917 0.960 . S
H926 C918 0.930 . S
H927 C919 0.929 . S
H928 C936 0.929 . S
H929 C938 0.930 . S
H930 C940 0.930 . S
H931 C943 0.929 . S
H932 C946 0.930 . S
H933 C948 0.960 . S
H934 C948 0.960 . S
H935 C948 0.960 . S
C936 H928 0.929 . S
C936 C937 1.377 . S
C936 C938 1.384 . S
C937 C936 1.377 . S
C937 C943 1.390 . S
C938 H929 0.930 . S
C938 C936 1.384 . S
C938 C939 1.372 . S
C939 C938 1.372 . S
C939 C940 1.400 . S
C939 C944 1.490 . S
C940 H930 0.930 . S
C940 C939 1.400 . S
C940 C943 1.386 . S
H941 C957 0.930 . S
H942 C958 0.931 . S
C943 H931 0.929 . S
C943 C937 1.390 . S
C943 C940 1.386 . S
C944 C939 1.490 . S
C944 C946 1.395 . S
C944 C947 1.403 . S
H945 C951 0.930 . S
C946 H932 0.930 . S
C946 C944 1.395 . S
C946 C949 1.403 . S
C947 C944 1.403 . S
C947 C948 1.524 . S
C947 C951 1.400 . S
C948 H933 0.960 . S
C948 H934 0.960 . S
C948 H935 0.960 . S
C948 C947 1.524 . S
C949 C946 1.403 . S
C949 C950 1.392 . S
C949 C953 1.495 . S
C950 C949 1.392 . S
C950 C951 1.385 . S
C950 C952 1.478 . S
C951 H945 0.930 . S
C951 C947 1.400 . S
C951 C950 1.385 . S
C952 C950 1.478 . S
C952 C954 1.381 . S
C952 C958 1.383 . S
C953 C949 1.495 . S
C953 H959 0.959 . S
C953 H960 0.961 . S
C953 H961 0.960 . S
C954 C952 1.381 . S
C954 C955 1.394 . S
C954 H962 0.930 . S
C955 C954 1.394 . S
C955 C956 1.383 . S
C955 H963 0.929 . S
C956 C955 1.383 . S
C956 C957 1.377 . S
C957 H941 0.930 . S
C957 C956 1.377 . S
C957 C958 1.379 . S
C958 H942 0.931 . S
C958 C952 1.383 . S
C958 C957 1.379 . S
H959 C953 0.959 . S
H960 C953 0.961 . S
H961 C953 0.960 . S
H962 C954 0.930 . S
H963 C955 0.929 . S
H964 C972 0.929 . S
H965 C974 0.930 . S
H966 C976 0.930 . S
H967 C979 0.929 . S
H968 C982 0.930 . S
H969 C984 0.960 . S
H970 C984 0.960 . S
H971 C984 0.960 . S
C972 H964 0.929 . S
C972 C973 1.377 . S
C972 C974 1.384 . S
C973 C972 1.377 . S
C973 C979 1.390 . S
C974 H965 0.930 . S
C974 C972 1.384 . S
C974 C975 1.372 . S
C975 C974 1.372 . S
C975 C976 1.400 . S
C975 C980 1.490 . S
C976 H966 0.930 . S
C976 C975 1.400 . S
C976 C979 1.386 . S
H977 C993 0.930 . S
H978 C994 0.931 . S
C979 H967 0.929 . S
C979 C973 1.390 . S
C979 C976 1.386 . S
C980 C975 1.490 . S
C980 C982 1.395 . S
C980 C983 1.403 . S
H981 C987 0.930 . S
C982 H968 0.930 . S
C982 C980 1.395 . S
C982 C985 1.403 . S
C983 C980 1.403 . S
C983 C984 1.524 . S
C983 C987 1.400 . S
C984 H969 0.960 . S
C984 H970 0.960 . S
C984 H971 0.960 . S
C984 C983 1.524 . S
C985 C982 1.403 . S
C985 C986 1.392 . S
C985 C989 1.495 . S
C986 C985 1.392 . S
C986 C987 1.385 . S
C986 C988 1.478 . S
C987 H981 0.930 . S
C987 C983 1.400 . S
C987 C986 1.385 . S
C988 C986 1.478 . S
C988 C990 1.381 . S
C988 C994 1.383 . S
C989 C985 1.495 . S
C989 H995 0.959 . S
C989 H996 0.961 . S
C989 H997 0.960 . S
C990 C988 1.381 . S
C990 C991 1.394 . S
C990 H998 0.930 . S
C991 C990 1.394 . S
C991 C992 1.383 . S
C991 H999 0.929 . S
C992 C991 1.383 . S
C992 C993 1.377 . S
C993 H977 0.930 . S
C993 C992 1.377 . S
C993 C994 1.379 . S
C994 H978 0.931 . S
C994 C988 1.383 . S
C994 C993 1.379 . S
H995 C989 0.959 . S
H996 C989 0.961 . S
H997 C989 0.960 . S
H998 C990 0.930 . S
H999 C991 0.929 . S
H1000 C1008 0.929 . S
H1001 C1010 0.930 . S
H1002 C1012 0.930 . S
H1003 C1015 0.929 . S
H1004 C1018 0.930 . S
H1005 C1020 0.960 . S
H1006 C1020 0.960 . S
H1007 C1020 0.960 . S
C1008 H1000 0.929 . S
C1008 C1009 1.377 . S
C1008 C1010 1.384 . S
C1009 C1008 1.377 . S
C1009 C1015 1.390 . S
C1010 H1001 0.930 . S
C1010 C1008 1.384 . S
C1010 C1011 1.372 . S
C1011 C1010 1.372 . S
C1011 C1012 1.400 . S
C1011 C1016 1.490 . S
C1012 H1002 0.930 . S
C1012 C1011 1.400 . S
C1012 C1015 1.386 . S
H1013 C1029 0.930 . S
H1014 C1030 0.931 . S
C1015 H1003 0.929 . S
C1015 C1009 1.390 . S
C1015 C1012 1.386 . S
C1016 C1011 1.490 . S
C1016 C1018 1.395 . S
C1016 C1019 1.403 . S
H1017 C1023 0.930 . S
C1018 H1004 0.930 . S
C1018 C1016 1.395 . S
C1018 C1021 1.403 . S
C1019 C1016 1.403 . S
C1019 C1020 1.524 . S
C1019 C1023 1.400 . S
C1020 H1005 0.960 . S
C1020 H1006 0.960 . S
C1020 H1007 0.960 . S
C1020 C1019 1.524 . S
C1021 C1018 1.403 . S
C1021 C1022 1.392 . S
C1021 C1025 1.495 . S
C1022 C1021 1.392 . S
C1022 C1023 1.385 . S
C1022 C1024 1.478 . S
C1023 H1017 0.930 . S
C1023 C1019 1.400 . S
C1023 C1022 1.385 . S
C1024 C1022 1.478 . S
C1024 C1026 1.381 . S
C1024 C1030 1.383 . S
C1025 C1021 1.495 . S
C1025 H1031 0.959 . S
C1025 H1032 0.961 . S
C1025 H1033 0.960 . S
C1026 C1024 1.381 . S
C1026 C1027 1.394 . S
C1026 H1034 0.930 . S
C1027 C1026 1.394 . S
C1027 C1028 1.383 . S
C1027 H1035 0.929 . S
C1028 C1027 1.383 . S
C1028 C1029 1.377 . S
C1029 H1013 0.930 . S
C1029 C1028 1.377 . S
C1029 C1030 1.379 . S
C1030 H1014 0.931 . S
C1030 C1024 1.383 . S
C1030 C1029 1.379 . S
H1031 C1025 0.959 . S
H1032 C1025 0.961 . S
H1033 C1025 0.960 . S
H1034 C1026 0.930 . S
H1035 C1027 0.929 . S
H1036 C1044 0.929 . S
H1037 C1046 0.930 . S
H1038 C1048 0.930 . S
H1039 C1051 0.929 . S
H1040 C1054 0.930 . S
H1041 C1056 0.960 . S
H1042 C1056 0.960 . S
H1043 C1056 0.960 . S
C1044 H1036 0.929 . S
C1044 C1045 1.377 . S
C1044 C1046 1.384 . S
C1045 C1044 1.377 . S
C1045 C1051 1.390 . S
C1046 H1037 0.930 . S
C1046 C1044 1.384 . S
C1046 C1047 1.372 . S
C1047 C1046 1.372 . S
C1047 C1048 1.400 . S
C1047 C1052 1.490 . S
C1048 H1038 0.930 . S
C1048 C1047 1.400 . S
C1048 C1051 1.386 . S
H1049 C1065 0.930 . S
H1050 C1066 0.931 . S
C1051 H1039 0.929 . S
C1051 C1045 1.390 . S
C1051 C1048 1.386 . S
C1052 C1047 1.490 . S
C1052 C1054 1.395 . S
C1052 C1055 1.403 . S
H1053 C1059 0.930 . S
C1054 H1040 0.930 . S
C1054 C1052 1.395 . S
C1054 C1057 1.403 . S
C1055 C1052 1.403 . S
C1055 C1056 1.524 . S
C1055 C1059 1.400 . S
C1056 H1041 0.960 . S
C1056 H1042 0.960 . S
C1056 H1043 0.960 . S
C1056 C1055 1.524 . S
C1057 C1054 1.403 . S
C1057 C1058 1.392 . S
C1057 C1061 1.495 . S
C1058 C1057 1.392 . S
C1058 C1059 1.385 . S
C1058 C1060 1.478 . S
C1059 H1053 0.930 . S
C1059 C1055 1.400 . S
C1059 C1058 1.385 . S
C1060 C1058 1.478 . S
C1060 C1062 1.381 . S
C1060 C1066 1.383 . S
C1061 C1057 1.495 . S
C1061 H1067 0.959 . S
C1061 H1068 0.961 . S
C1061 H1069 0.960 . S
C1062 C1060 1.381 . S
C1062 C1063 1.394 . S
C1062 H1070 0.930 . S
C1063 C1062 1.394 . S
C1063 C1064 1.383 . S
C1063 H1071 0.929 . S
C1064 C1063 1.383 . S
C1064 C1065 1.377 . S
C1065 H1049 0.930 . S
C1065 C1064 1.377 . S
C1065 C1066 1.379 . S
C1066 H1050 0.931 . S
C1066 C1060 1.383 . S
C1066 C1065 1.379 . S
H1067 C1061 0.959 . S
H1068 C1061 0.961 . S
H1069 C1061 0.960 . S
H1070 C1062 0.930 . S
H1071 C1063 0.929 . S
H1072 C1080 0.929 . S
H1073 C1082 0.930 . S
H1074 C1084 0.930 . S
H1075 C1087 0.929 . S
H1076 C1090 0.930 . S
H1077 C1092 0.960 . S
H1078 C1092 0.960 . S
H1079 C1092 0.960 . S
C1080 H1072 0.929 . S
C1080 C1081 1.377 . S
C1080 C1082 1.384 . S
C1081 C1080 1.377 . S
C1081 C1087 1.390 . S
C1082 H1073 0.930 . S
C1082 C1080 1.384 . S
C1082 C1083 1.372 . S
C1083 C1082 1.372 . S
C1083 C1084 1.400 . S
C1083 C1088 1.490 . S
C1084 H1074 0.930 . S
C1084 C1083 1.400 . S
C1084 C1087 1.386 . S
H1085 C1101 0.930 . S
H1086 C1102 0.931 . S
C1087 H1075 0.929 . S
C1087 C1081 1.390 . S
C1087 C1084 1.386 . S
C1088 C1083 1.490 . S
C1088 C1090 1.395 . S
C1088 C1091 1.403 . S
H1089 C1095 0.930 . S
C1090 H1076 0.930 . S
C1090 C1088 1.395 . S
C1090 C1093 1.403 . S
C1091 C1088 1.403 . S
C1091 C1092 1.524 . S
C1091 C1095 1.400 . S
C1092 H1077 0.960 . S
C1092 H1078 0.960 . S
C1092 H1079 0.960 . S
C1092 C1091 1.524 . S
C1093 C1090 1.403 . S
C1093 C1094 1.392 . S
C1093 C1097 1.495 . S
C1094 C1093 1.392 . S
C1094 C1095 1.385 . S
C1094 C1096 1.478 . S
C1095 H1089 0.930 . S
C1095 C1091 1.400 . S
C1095 C1094 1.385 . S
C1096 C1094 1.478 . S
C1096 C1098 1.381 . S
C1096 C1102 1.383 . S
C1097 C1093 1.495 . S
C1097 H1103 0.959 . S
C1097 H1104 0.961 . S
C1097 H1105 0.960 . S
C1098 C1096 1.381 . S
C1098 C1099 1.394 . S
C1098 H1106 0.930 . S
C1099 C1098 1.394 . S
C1099 C1100 1.383 . S
C1099 H1107 0.929 . S
C1100 C1099 1.383 . S
C1100 C1101 1.377 . S
C1101 H1085 0.930 . S
C1101 C1100 1.377 . S
C1101 C1102 1.379 . S
C1102 H1086 0.931 . S
C1102 C1096 1.383 . S
C1102 C1101 1.379 . S
H1103 C1097 0.959 . S
H1104 C1097 0.961 . S
H1105 C1097 0.960 . S
H1106 C1098 0.930 . S
H1107 C1099 0.929 . S
H1108 C1116 0.929 . S
H1109 C1118 0.930 . S
H1110 C1120 0.930 . S
H1111 C1123 0.929 . S
H1112 C1126 0.930 . S
H1113 C1128 0.960 . S
H1114 C1128 0.960 . S
H1115 C1128 0.960 . S
C1116 H1108 0.929 . S
C1116 C1117 1.377 . S
C1116 C1118 1.384 . S
C1117 C1116 1.377 . S
C1117 C1123 1.390 . S
C1118 H1109 0.930 . S
C1118 C1116 1.384 . S
C1118 C1119 1.372 . S
C1119 C1118 1.372 . S
C1119 C1120 1.400 . S
C1119 C1124 1.490 . S
C1120 H1110 0.930 . S
C1120 C1119 1.400 . S
C1120 C1123 1.386 . S
H1121 C1137 0.930 . S
H1122 C1138 0.931 . S
C1123 H1111 0.929 . S
C1123 C1117 1.390 . S
C1123 C1120 1.386 . S
C1124 C1119 1.490 . S
C1124 C1126 1.395 . S
C1124 C1127 1.403 . S
H1125 C1131 0.930 . S
C1126 H1112 0.930 . S
C1126 C1124 1.395 . S
C1126 C1129 1.403 . S
C1127 C1124 1.403 . S
C1127 C1128 1.524 . S
C1127 C1131 1.400 . S
C1128 H1113 0.960 . S
C1128 H1114 0.960 . S
C1128 H1115 0.960 . S
C1128 C1127 1.524 . S
C1129 C1126 1.403 . S
C1129 C1130 1.392 . S
C1129 C1133 1.495 . S
C1130 C1129 1.392 . S
C1130 C1131 1.385 . S
C1130 C1132 1.478 . S
C1131 H1125 0.930 . S
C1131 C1127 1.400 . S
C1131 C1130 1.385 . S
C1132 C1130 1.478 . S
C1132 C1134 1.381 . S
C1132 C1138 1.383 . S
C1133 C1129 1.495 . S
C1133 H1139 0.959 . S
C1133 H1140 0.961 . S
C1133 H1141 0.960 . S
C1134 C1132 1.381 . S
C1134 C1135 1.394 . S
C1134 H1142 0.930 . S
C1135 C1134 1.394 . S
C1135 C1136 1.383 . S
C1135 H1143 0.929 . S
C1136 C1135 1.383 . S
C1136 C1137 1.377 . S
C1137 H1121 0.930 . S
C1137 C1136 1.377 . S
C1137 C1138 1.379 . S
C1138 H1122 0.931 . S
C1138 C1132 1.383 . S
C1138 C1137 1.379 . S
H1139 C1133 0.959 . S
H1140 C1133 0.961 . S
H1141 C1133 0.960 . S
H1142 C1134 0.930 . S
H1143 C1135 0.929 . S
H1144 C1152 0.929 . S
H1145 C1154 0.930 . S
H1146 C1156 0.930 . S
H1147 C1159 0.929 . S
H1148 C1162 0.930 . S
H1149 C1164 0.960 . S
H1150 C1164 0.960 . S
H1151 C1164 0.960 . S
C1152 H1144 0.929 . S
C1152 C1153 1.377 . S
C1152 C1154 1.384 . S
C1153 C1152 1.377 . S
C1153 C1159 1.390 . S
C1154 H1145 0.930 . S
C1154 C1152 1.384 . S
C1154 C1155 1.372 . S
C1155 C1154 1.372 . S
C1155 C1156 1.400 . S
C1155 C1160 1.490 . S
C1156 H1146 0.930 . S
C1156 C1155 1.400 . S
C1156 C1159 1.386 . S
H1157 C1173 0.930 . S
H1158 C1174 0.931 . S
C1159 H1147 0.929 . S
C1159 C1153 1.390 . S
C1159 C1156 1.386 . S
C1160 C1155 1.490 . S
C1160 C1162 1.395 . S
C1160 C1163 1.403 . S
H1161 C1167 0.930 . S
C1162 H1148 0.930 . S
C1162 C1160 1.395 . S
C1162 C1165 1.403 . S
C1163 C1160 1.403 . S
C1163 C1164 1.524 . S
C1163 C1167 1.400 . S
C1164 H1149 0.960 . S
C1164 H1150 0.960 . S
C1164 H1151 0.960 . S
C1164 C1163 1.524 . S
C1165 C1162 1.403 . S
C1165 C1166 1.392 . S
C1165 C1169 1.495 . S
C1166 C1165 1.392 . S
C1166 C1167 1.385 . S
C1166 C1168 1.478 . S
C1167 H1161 0.930 . S
C1167 C1163 1.400 . S
C1167 C1166 1.385 . S
C1168 C1166 1.478 . S
C1168 C1170 1.381 . S
C1168 C1174 1.383 . S
C1169 C1165 1.495 . S
C1169 H1175 0.959 . S
C1169 H1176 0.961 . S
C1169 H1177 0.960 . S
C1170 C1168 1.381 . S
C1170 C1171 1.394 . S
C1170 H1178 0.930 . S
C1171 C1170 1.394 . S
C1171 C1172 1.383 . S
C1171 H1179 0.929 . S
C1172 C1171 1.383 . S
C1172 C1173 1.377 . S
C1173 H1157 0.930 . S
C1173 C1172 1.377 . S
C1173 C1174 1.379 . S
C1174 H1158 0.931 . S
C1174 C1168 1.383 . S
C1174 C1173 1.379 . S
H1175 C1169 0.959 . S
H1176 C1169 0.961 . S
H1177 C1169 0.960 . S
H1178 C1170 0.930 . S
H1179 C1171 0.929 . S
H1180 C1188 0.929 . S
H1181 C1190 0.930 . S
H1182 C1192 0.930 . S
H1183 C1195 0.929 . S
H1184 C1198 0.930 . S
H1185 C1200 0.960 . S
H1186 C1200 0.960 . S
H1187 C1200 0.960 . S
C1188 H1180 0.929 . S
C1188 C1189 1.377 . S
C1188 C1190 1.384 . S
C1189 C1188 1.377 . S
C1189 C1195 1.390 . S
C1190 H1181 0.930 . S
C1190 C1188 1.384 . S
C1190 C1191 1.372 . S
C1191 C1190 1.372 . S
C1191 C1192 1.400 . S
C1191 C1196 1.490 . S
C1192 H1182 0.930 . S
C1192 C1191 1.400 . S
C1192 C1195 1.386 . S
H1193 C1209 0.930 . S
H1194 C1210 0.931 . S
C1195 H1183 0.929 . S
C1195 C1189 1.390 . S
C1195 C1192 1.386 . S
C1196 C1191 1.490 . S
C1196 C1198 1.395 . S
C1196 C1199 1.403 . S
H1197 C1203 0.930 . S
C1198 H1184 0.930 . S
C1198 C1196 1.395 . S
C1198 C1201 1.403 . S
C1199 C1196 1.403 . S
C1199 C1200 1.524 . S
C1199 C1203 1.400 . S
C1200 H1185 0.960 . S
C1200 H1186 0.960 . S
C1200 H1187 0.960 . S
C1200 C1199 1.524 . S
C1201 C1198 1.403 . S
C1201 C1202 1.392 . S
C1201 C1205 1.495 . S
C1202 C1201 1.392 . S
C1202 C1203 1.385 . S
C1202 C1204 1.478 . S
C1203 H1197 0.930 . S
C1203 C1199 1.400 . S
C1203 C1202 1.385 . S
C1204 C1202 1.478 . S
C1204 C1206 1.381 . S
C1204 C1210 1.383 . S
C1205 C1201 1.495 . S
C1205 H1211 0.959 . S
C1205 H1212 0.961 . S
C1205 H1213 0.960 . S
C1206 C1204 1.381 . S
C1206 C1207 1.394 . S
C1206 H1214 0.930 . S
C1207 C1206 1.394 . S
C1207 C1208 1.383 . S
C1207 H1215 0.929 . S
C1208 C1207 1.383 . S
C1208 C1209 1.377 . S
C1209 H1193 0.930 . S
C1209 C1208 1.377 . S
C1209 C1210 1.379 . S
C1210 H1194 0.931 . S
C1210 C1204 1.383 . S
C1210 C1209 1.379 . S
H1211 C1205 0.959 . S
H1212 C1205 0.961 . S
H1213 C1205 0.960 . S
H1214 C1206 0.930 . S
H1215 C1207 0.929 . S
H1216 C1224 0.929 . S
H1217 C1226 0.930 . S
H1218 C1228 0.930 . S
H1219 C1231 0.929 . S
H1220 C1234 0.930 . S
H1221 C1236 0.960 . S
H1222 C1236 0.960 . S
H1223 C1236 0.960 . S
C1224 H1216 0.929 . S
C1224 C1225 1.377 . S
C1224 C1226 1.384 . S
C1225 C1224 1.377 . S
C1225 C1231 1.390 . S
C1226 H1217 0.930 . S
C1226 C1224 1.384 . S
C1226 C1227 1.372 . S
C1227 C1226 1.372 . S
C1227 C1228 1.400 . S
C1227 C1232 1.490 . S
C1228 H1218 0.930 . S
C1228 C1227 1.400 . S
C1228 C1231 1.386 . S
H1229 C1245 0.930 . S
H1230 C1246 0.931 . S
C1231 H1219 0.929 . S
C1231 C1225 1.390 . S
C1231 C1228 1.386 . S
C1232 C1227 1.490 . S
C1232 C1234 1.395 . S
C1232 C1235 1.403 . S
H1233 C1239 0.930 . S
C1234 H1220 0.930 . S
C1234 C1232 1.395 . S
C1234 C1237 1.403 . S
C1235 C1232 1.403 . S
C1235 C1236 1.524 . S
C1235 C1239 1.400 . S
C1236 H1221 0.960 . S
C1236 H1222 0.960 . S
C1236 H1223 0.960 . S
C1236 C1235 1.524 . S
C1237 C1234 1.403 . S
C1237 C1238 1.392 . S
C1237 C1241 1.495 . S
C1238 C1237 1.392 . S
C1238 C1239 1.385 . S
C1238 C1240 1.478 . S
C1239 H1233 0.930 . S
C1239 C1235 1.400 . S
C1239 C1238 1.385 . S
C1240 C1238 1.478 . S
C1240 C1242 1.381 . S
C1240 C1246 1.383 . S
C1241 C1237 1.495 . S
C1241 H1247 0.959 . S
C1241 H1248 0.961 . S
C1241 H1249 0.960 . S
C1242 C1240 1.381 . S
C1242 C1243 1.394 . S
C1242 H1250 0.930 . S
C1243 C1242 1.394 . S
C1243 C1244 1.383 . S
C1243 H1251 0.929 . S
C1244 C1243 1.383 . S
C1244 C1245 1.377 . S
C1245 H1229 0.930 . S
C1245 C1244 1.377 . S
C1245 C1246 1.379 . S
C1246 H1230 0.931 . S
C1246 C1240 1.383 . S
C1246 C1245 1.379 . S
H1247 C1241 0.959 . S
H1248 C1241 0.961 . S
H1249 C1241 0.960 . S
H1250 C1242 0.930 . S
H1251 C1243 0.929 . S
H1252 C1260 0.929 . S
H1253 C1262 0.930 . S
H1254 C1264 0.930 . S
H1255 C1267 0.929 . S
H1256 C1270 0.930 . S
H1257 C1272 0.960 . S
H1258 C1272 0.960 . S
H1259 C1272 0.960 . S
C1260 H1252 0.929 . S
C1260 C1261 1.377 . S
C1260 C1262 1.384 . S
C1261 C1260 1.377 . S
C1261 C1267 1.390 . S
C1262 H1253 0.930 . S
C1262 C1260 1.384 . S
C1262 C1263 1.372 . S
C1263 C1262 1.372 . S
C1263 C1264 1.400 . S
C1263 C1268 1.490 . S
C1264 H1254 0.930 . S
C1264 C1263 1.400 . S
C1264 C1267 1.386 . S
H1265 C1281 0.930 . S
H1266 C1282 0.931 . S
C1267 H1255 0.929 . S
C1267 C1261 1.390 . S
C1267 C1264 1.386 . S
C1268 C1263 1.490 . S
C1268 C1270 1.395 . S
C1268 C1271 1.403 . S
H1269 C1275 0.930 . S
C1270 H1256 0.930 . S
C1270 C1268 1.395 . S
C1270 C1273 1.403 . S
C1271 C1268 1.403 . S
C1271 C1272 1.524 . S
C1271 C1275 1.400 . S
C1272 H1257 0.960 . S
C1272 H1258 0.960 . S
C1272 H1259 0.960 . S
C1272 C1271 1.524 . S
C1273 C1270 1.403 . S
C1273 C1274 1.392 . S
C1273 C1277 1.495 . S
C1274 C1273 1.392 . S
C1274 C1275 1.385 . S
C1274 C1276 1.478 . S
C1275 H1269 0.930 . S
C1275 C1271 1.400 . S
C1275 C1274 1.385 . S
C1276 C1274 1.478 . S
C1276 C1278 1.381 . S
C1276 C1282 1.383 . S
C1277 C1273 1.495 . S
C1277 H1283 0.959 . S
C1277 H1284 0.961 . S
C1277 H1285 0.960 . S
C1278 C1276 1.381 . S
C1278 C1279 1.394 . S
C1278 H1286 0.930 . S
C1279 C1278 1.394 . S
C1279 C1280 1.383 . S
C1279 H1287 0.898 1_655 S
C1280 C1279 1.383 . S
C1280 C1281 1.377 . S
C1281 H1265 0.930 . S
C1281 C1280 1.377 . S
C1281 C1282 1.379 . S
C1282 H1266 0.931 . S
C1282 C1276 1.383 . S
C1282 C1281 1.379 . S
H1283 C1277 0.959 . S
H1284 C1277 0.961 . S
H1285 C1277 0.960 . S
H1286 C1278 0.930 . S
H1287 C1279 0.898 1_455 S
H1288 C1296 0.929 . S
H1289 C1298 0.930 . S
H1290 C1300 0.930 . S
H1291 C1303 0.929 . S
H1292 C1306 0.930 . S
H1293 C1308 0.960 . S
H1294 C1308 0.960 . S
H1295 C1308 0.960 . S
C1296 H1288 0.929 . S
C1296 C1297 1.377 . S
C1296 C1298 1.384 . S
C1297 C1296 1.377 . S
C1297 C1303 1.390 . S
C1298 H1289 0.930 . S
C1298 C1296 1.384 . S
C1298 C1299 1.372 . S
C1299 C1298 1.372 . S
C1299 C1300 1.400 . S
C1299 C1304 1.490 . S
C1300 H1290 0.930 . S
C1300 C1299 1.400 . S
C1300 C1303 1.386 . S
H1301 C1317 0.930 . S
H1302 C1318 0.931 . S
C1303 H1291 0.929 . S
C1303 C1297 1.390 . S
C1303 C1300 1.386 . S
C1304 C1299 1.490 . S
C1304 C1306 1.395 . S
C1304 C1307 1.403 . S
H1305 C1311 0.930 . S
C1306 H1292 0.930 . S
C1306 C1304 1.395 . S
C1306 C1309 1.403 . S
C1307 C1304 1.403 . S
C1307 C1308 1.524 . S
C1307 C1311 1.400 . S
C1308 H1293 0.960 . S
C1308 H1294 0.960 . S
C1308 H1295 0.960 . S
C1308 C1307 1.524 . S
C1309 C1306 1.403 . S
C1309 C1310 1.392 . S
C1309 C1313 1.495 . S
C1310 C1309 1.392 . S
C1310 C1311 1.385 . S
C1310 C1312 1.478 . S
C1311 H1305 0.930 . S
C1311 C1307 1.400 . S
C1311 C1310 1.385 . S
C1312 C1310 1.478 . S
C1312 C1314 1.381 . S
C1312 C1318 1.383 . S
C1313 C1309 1.495 . S
C1313 H1319 0.959 . S
C1313 H1320 0.961 . S
C1313 H1321 0.960 . S
C1314 C1312 1.381 . S
C1314 C1315 1.394 . S
C1314 H1322 0.930 . S
C1315 C1314 1.394 . S
C1315 C1316 1.383 . S
C1315 H1323 0.929 . S
C1316 C1315 1.383 . S
C1316 C1317 1.377 . S
C1317 H1301 0.930 . S
C1317 C1316 1.377 . S
C1317 C1318 1.379 . S
C1318 H1302 0.931 . S
C1318 C1312 1.383 . S
C1318 C1317 1.379 . S
H1319 C1313 0.959 . S
H1320 C1313 0.961 . S
H1321 C1313 0.960 . S
H1322 C1314 0.930 . S
H1323 C1315 0.929 . S
H1324 C1332 0.929 . S
H1325 C1334 0.930 . S
H1326 C1336 0.930 . S
H1327 C1339 0.929 . S
H1328 C1342 0.930 . S
H1329 C1344 0.960 . S
H1330 C1344 0.960 . S
H1331 C1344 0.960 . S
C1332 H1324 0.929 . S
C1332 C1333 1.377 . S
C1332 C1334 1.384 . S
C1333 C1332 1.377 . S
C1333 C1339 1.390 . S
C1334 H1325 0.930 . S
C1334 C1332 1.384 . S
C1334 C1335 1.372 . S
C1335 C1334 1.372 . S
C1335 C1336 1.400 . S
C1335 C1340 1.490 . S
C1336 H1326 0.930 . S
C1336 C1335 1.400 . S
C1336 C1339 1.386 . S
H1337 C1353 0.930 . S
H1338 C1354 0.931 . S
C1339 H1327 0.929 . S
C1339 C1333 1.390 . S
C1339 C1336 1.386 . S
C1340 C1335 1.490 . S
C1340 C1342 1.395 . S
C1340 C1343 1.403 . S
H1341 C1347 0.930 . S
C1342 H1328 0.930 . S
C1342 C1340 1.395 . S
C1342 C1345 1.403 . S
C1343 C1340 1.403 . S
C1343 C1344 1.524 . S
C1343 C1347 1.400 . S
C1344 H1329 0.960 . S
C1344 H1330 0.960 . S
C1344 H1331 0.960 . S
C1344 C1343 1.524 . S
C1345 C1342 1.403 . S
C1345 C1346 1.392 . S
C1345 C1349 1.495 . S
C1346 C1345 1.392 . S
C1346 C1347 1.385 . S
C1346 C1348 1.478 . S
C1347 H1341 0.930 . S
C1347 C1343 1.400 . S
C1347 C1346 1.385 . S
C1348 C1346 1.478 . S
C1348 C1350 1.381 . S
C1348 C1354 1.383 . S
C1349 C1345 1.495 . S
C1349 H1355 0.959 . S
C1349 H1356 0.961 . S
C1349 H1357 0.960 . S
C1350 C1348 1.381 . S
C1350 C1351 1.394 . S
C1350 H1358 0.930 . S
C1351 C1350 1.394 . S
C1351 C1352 1.383 . S
C1351 H1359 0.929 . S
C1352 C1351 1.383 . S
C1352 C1353 1.377 . S
C1353 H1337 0.930 . S
C1353 C1352 1.377 . S
C1353 C1354 1.379 . S
C1354 H1338 0.931 . S
C1354 C1348 1.383 . S
C1354 C1353 1.379 . S
H1355 C1349 0.959 . S
H1356 C1349 0.961 . S
H1357 C1349 0.960 . S
H1358 C1350 0.930 . S
H1359 C1351 0.929 . S
H1360 C1368 0.929 . S
H1361 C1370 0.930 . S
H1362 C1372 0.930 . S
H1363 C1375 0.929 . S
H1364 C1378 0.930 . S
H1365 C1380 0.960 . S
H1366 C1380 0.960 . S
H1367 C1380 0.960 . S
C1368 H1360 0.929 . S
C1368 C1369 1.377 . S
C1368 C1370 1.384 . S
C1369 C1368 1.377 . S
C1369 C1375 1.390 . S
C1370 H1361 0.930 . S
C1370 C1368 1.384 . S
C1370 C1371 1.372 . S
C1371 C1370 1.372 . S
C1371 C1372 1.400 . S
C1371 C1376 1.490 . S
C1372 H1362 0.930 . S
C1372 C1371 1.400 . S
C1372 C1375 1.386 . S
H1373 C1389 0.930 . S
H1374 C1390 0.931 . S
C1375 H1363 0.929 . S
C1375 C1369 1.390 . S
C1375 C1372 1.386 . S
C1376 C1371 1.490 . S
C1376 C1378 1.395 . S
C1376 C1379 1.403 . S
H1377 C1383 0.930 . S
C1378 H1364 0.930 . S
C1378 C1376 1.395 . S
C1378 C1381 1.403 . S
C1379 C1376 1.403 . S
C1379 C1380 1.524 . S
C1379 C1383 1.400 . S
C1380 H1365 0.960 . S
C1380 H1366 0.960 . S
C1380 H1367 0.960 . S
C1380 C1379 1.524 . S
C1381 C1378 1.403 . S
C1381 C1382 1.392 . S
C1381 C1385 1.495 . S
C1382 C1381 1.392 . S
C1382 C1383 1.385 . S
C1382 C1384 1.478 . S
C1383 H1377 0.930 . S
C1383 C1379 1.400 . S
C1383 C1382 1.385 . S
C1384 C1382 1.478 . S
C1384 C1386 1.381 . S
C1384 C1390 1.383 . S
C1385 C1381 1.495 . S
C1385 H1391 0.959 . S
C1385 H1392 0.961 . S
C1385 H1393 0.960 . S
C1386 C1384 1.381 . S
C1386 C1387 1.394 . S
C1386 H1394 0.930 . S
C1387 C1386 1.394 . S
C1387 C1388 1.383 . S
C1387 H1395 0.929 . S
C1388 C1387 1.383 . S
C1388 C1389 1.377 . S
C1389 H1373 0.930 . S
C1389 C1388 1.377 . S
C1389 C1390 1.379 . S
C1390 H1374 0.931 . S
C1390 C1384 1.383 . S
C1390 C1389 1.379 . S
H1391 C1385 0.959 . S
H1392 C1385 0.961 . S
H1393 C1385 0.960 . S
H1394 C1386 0.930 . S
H1395 C1387 0.929 . S
H1396 C1404 0.929 . S
H1397 C1406 0.930 . S
H1398 C1408 0.930 . S
H1399 C1411 0.929 . S
H1400 C1414 0.930 . S
H1401 C1416 0.960 . S
H1402 C1416 0.960 . S
H1403 C1416 0.960 . S
C1404 H1396 0.929 . S
C1404 C1405 1.377 . S
C1404 C1406 1.384 . S
C1405 C1404 1.377 . S
C1405 C1411 1.390 . S
C1406 H1397 0.930 . S
C1406 C1404 1.384 . S
C1406 C1407 1.372 . S
C1407 C1406 1.372 . S
C1407 C1408 1.400 . S
C1407 C1412 1.490 . S
C1408 H1398 0.930 . S
C1408 C1407 1.400 . S
C1408 C1411 1.386 . S
H1409 C1425 0.930 . S
H1410 C1426 0.931 . S
C1411 H1399 0.929 . S
C1411 C1405 1.390 . S
C1411 C1408 1.386 . S
C1412 C1407 1.490 . S
C1412 C1414 1.395 . S
C1412 C1415 1.403 . S
H1413 C1419 0.930 . S
C1414 H1400 0.930 . S
C1414 C1412 1.395 . S
C1414 C1417 1.403 . S
C1415 C1412 1.403 . S
C1415 C1416 1.524 . S
C1415 C1419 1.400 . S
C1416 H1401 0.960 . S
C1416 H1402 0.960 . S
C1416 H1403 0.960 . S
C1416 C1415 1.524 . S
C1417 C1414 1.403 . S
C1417 C1418 1.392 . S
C1417 C1421 1.495 . S
C1418 C1417 1.392 . S
C1418 C1419 1.385 . S
C1418 C1420 1.478 . S
C1419 H1413 0.930 . S
C1419 C1415 1.400 . S
C1419 C1418 1.385 . S
C1420 C1418 1.478 . S
C1420 C1422 1.381 . S
C1420 C1426 1.383 . S
C1421 C1417 1.495 . S
C1421 H1427 0.959 . S
C1421 H1428 0.961 . S
C1421 H1429 0.960 . S
C1422 C1420 1.381 . S
C1422 C1423 1.394 . S
C1422 H1430 0.930 . S
C1423 C1422 1.394 . S
C1423 C1424 1.383 . S
C1423 H1431 0.929 . S
C1424 C1423 1.383 . S
C1424 C1425 1.377 . S
C1425 H1409 0.930 . S
C1425 C1424 1.377 . S
C1425 C1426 1.379 . S
C1426 H1410 0.931 . S
C1426 C1420 1.383 . S
C1426 C1425 1.379 . S
H1427 C1421 0.959 . S
H1428 C1421 0.961 . S
H1429 C1421 0.960 . S
H1430 C1422 0.930 . S
H1431 C1423 0.929 . S
H1432 C1440 0.929 . S
H1433 C1442 0.930 . S
H1434 C1444 0.930 . S
H1435 C1447 0.929 . S
H1436 C1450 0.930 . S
H1437 C1452 0.960 . S
H1438 C1452 0.960 . S
H1439 C1452 0.960 . S
C1440 H1432 0.929 . S
C1440 C1441 1.377 . S
C1440 C1442 1.384 . S
C1441 C1440 1.377 . S
C1441 C1447 1.390 . S
C1442 H1433 0.930 . S
C1442 C1440 1.384 . S
C1442 C1443 1.372 . S
C1443 C1442 1.372 . S
C1443 C1444 1.400 . S
C1443 C1448 1.490 . S
C1444 H1434 0.930 . S
C1444 C1443 1.400 . S
C1444 C1447 1.386 . S
H1445 C1461 0.930 . S
H1446 C1462 0.931 . S
C1447 H1435 0.929 . S
C1447 C1441 1.390 . S
C1447 C1444 1.386 . S
C1448 C1443 1.490 . S
C1448 C1450 1.395 . S
C1448 C1451 1.403 . S
H1449 C1455 0.930 . S
C1450 H1436 0.930 . S
C1450 C1448 1.395 . S
C1450 C1453 1.403 . S
C1451 C1448 1.403 . S
C1451 C1452 1.524 . S
C1451 C1455 1.400 . S
C1452 H1437 0.960 . S
C1452 H1438 0.960 . S
C1452 H1439 0.960 . S
C1452 C1451 1.524 . S
C1453 C1450 1.403 . S
C1453 C1454 1.392 . S
C1453 C1457 1.495 . S
C1454 C1453 1.392 . S
C1454 C1455 1.385 . S
C1454 C1456 1.478 . S
C1455 H1449 0.930 . S
C1455 C1451 1.400 . S
C1455 C1454 1.385 . S
C1456 C1454 1.478 . S
C1456 C1458 1.381 . S
C1456 C1462 1.383 . S
C1457 C1453 1.495 . S
C1457 H1463 0.959 . S
C1457 H1464 0.961 . S
C1457 H1465 0.960 . S
C1458 C1456 1.381 . S
C1458 C1459 1.394 . S
C1458 H1466 0.930 . S
C1459 C1458 1.394 . S
C1459 C1460 1.383 . S
C1459 H1467 0.929 . S
C1460 C1459 1.383 . S
C1460 C1461 1.377 . S
C1461 H1445 0.930 . S
C1461 C1460 1.377 . S
C1461 C1462 1.379 . S
C1462 H1446 0.931 . S
C1462 C1456 1.383 . S
C1462 C1461 1.379 . S
H1463 C1457 0.959 . S
H1464 C1457 0.961 . S
H1465 C1457 0.960 . S
H1466 C1458 0.930 . S
H1467 C1459 0.929 . S
H1468 C1476 0.929 . S
H1469 C1478 0.930 . S
H1470 C1480 0.930 . S
H1471 C1483 0.929 . S
H1472 C1486 0.930 . S
H1473 C1488 0.960 . S
H1474 C1488 0.960 . S
H1475 C1488 0.960 . S
C1476 H1468 0.929 . S
C1476 C1477 1.377 . S
C1476 C1478 1.384 . S
C1477 C1476 1.377 . S
C1477 C1483 1.390 . S
C1478 H1469 0.930 . S
C1478 C1476 1.384 . S
C1478 C1479 1.372 . S
C1479 C1478 1.372 . S
C1479 C1480 1.400 . S
C1479 C1484 1.490 . S
C1480 H1470 0.930 . S
C1480 C1479 1.400 . S
C1480 C1483 1.386 . S
H1481 C1497 0.930 . S
H1482 C1498 0.931 . S
C1483 H1471 0.929 . S
C1483 C1477 1.390 . S
C1483 C1480 1.386 . S
C1484 C1479 1.490 . S
C1484 C1486 1.395 . S
C1484 C1487 1.403 . S
H1485 C1491 0.930 . S
C1486 H1472 0.930 . S
C1486 C1484 1.395 . S
C1486 C1489 1.403 . S
C1487 C1484 1.403 . S
C1487 C1488 1.524 . S
C1487 C1491 1.400 . S
C1488 H1473 0.960 . S
C1488 H1474 0.960 . S
C1488 H1475 0.960 . S
C1488 C1487 1.524 . S
C1489 C1486 1.403 . S
C1489 C1490 1.392 . S
C1489 C1493 1.495 . S
C1490 C1489 1.392 . S
C1490 C1491 1.385 . S
C1490 C1492 1.478 . S
C1491 H1485 0.930 . S
C1491 C1487 1.400 . S
C1491 C1490 1.385 . S
C1492 C1490 1.478 . S
C1492 C1494 1.381 . S
C1492 C1498 1.383 . S
C1493 C1489 1.495 . S
C1493 H1499 0.959 . S
C1493 H1500 0.961 . S
C1493 H1501 0.960 . S
C1494 C1492 1.381 . S
C1494 C1495 1.394 . S
C1494 H1502 0.930 . S
C1495 C1494 1.394 . S
C1495 C1496 1.383 . S
C1495 H1503 0.929 . S
C1496 C1495 1.383 . S
C1496 C1497 1.377 . S
C1497 H1481 0.930 . S
C1497 C1496 1.377 . S
C1497 C1498 1.379 . S
C1498 H1482 0.931 . S
C1498 C1492 1.383 . S
C1498 C1497 1.379 . S
H1499 C1493 0.959 . S
H1500 C1493 0.961 . S
H1501 C1493 0.960 . S
H1502 C1494 0.930 . S
H1503 C1495 0.929 . S
C649 C1 1.243 . S
C668 C495 1.325 . S
C685 C80 1.233 . S
C704 C535 1.228 . S
C740 C569 2.151 . S
C721 C140 2.149 . S
C757 C211 2.644 . S
C776 C610 2.594 . S
C812 C530 1.413 . S
C793 C31 1.334 . S
C848 C490 2.179 . S
C829 C61 2.097 . S
C884 C618 1.459 . S
C865 C151 1.432 . S
C920 C579 1.788 . S
C901 C200 1.836 . S
C937 C20 1.170 . S
C956 C615 1.185 . S
C992 C538 1.908 . S
C973 C121 1.975 . S
C1009 C181 2.428 . S
C1028 C498 2.389 . S
C1045 C91 1.573 . S
C1064 C566 1.586 . S
C1100 C486 1.303 . S
C1081 C260 1.295 . S
C1117 C320 1.233 . S
C1136 C526 1.250 . S
C1153 C361 2.123 . S
C1172 C578 2.143 . S
C1189 C451 2.644 . S
C1208 C619 2.613 . S
C1225 C271 1.355 . S
C1244 C539 1.405 . S
C1280 C499 2.178 . S
C1261 C301 2.093 . S
C1316 C609 1.458 . S
C1297 C380 1.404 . S
C1352 C570 1.774 . S
C1333 C440 1.838 . S
C1369 C241 1.138 . S
C1388 C606 1.192 . S
C1424 C529 1.903 . S
C1405 C391 1.956 . S
C1460 C489 2.419 . S
C1441 C421 2.429 . S
C1477 C331 1.576 . S
C1496 C575 1.586 . S
