# Generated by pormake.
# Topology anh, (6,3)-cn, num edge types: 1
# Building blocks:
#     Node 0, Type 0, BuildingBlock: PAMTOO_clean_sbu_0, # of connection points: 6
#     Node 1, Type 0, BuildingBlock: PAMTOO_clean_sbu_0, # of connection points: 6
#     Node 2, Type 0, BuildingBlock: PAMTOO_clean_sbu_0, # of connection points: 6
#     Node 3, Type 1, BuildingBlock: BETDAH_clean_linker_0, # of connection points: 3
#     Node 4, Type 1, BuildingBlock: BETDAH_clean_linker_0, # of connection points: 3
#     Node 5, Type 1, BuildingBlock: BETDAH_clean_linker_0, # of connection points: 3
#     Node 6, Type 1, BuildingBlock: BETDAH_clean_linker_0, # of connection points: 3
#     Node 7, Type 1, BuildingBlock: BETDAH_clean_linker_0, # of connection points: 3
#     Node 8, Type 1, BuildingBlock: BETDAH_clean_linker_0, # of connection points: 3
#     Edge 9, Type (0, 1), BuildingBlock: ZUJKAS_clean_linker_0, # of connection points: 2
#     Edge 10, Type (0, 1), BuildingBlock: ZUJKAS_clean_linker_0, # of connection points: 2
#     Edge 11, Type (0, 1), BuildingBlock: ZUJKAS_clean_linker_0, # of connection points: 2
#     Edge 12, Type (0, 1), BuildingBlock: ZUJKAS_clean_linker_0, # of connection points: 2
#     Edge 13, Type (0, 1), BuildingBlock: ZUJKAS_clean_linker_0, # of connection points: 2
#     Edge 14, Type (0, 1), BuildingBlock: ZUJKAS_clean_linker_0, # of connection points: 2
#     Edge 15, Type (0, 1), BuildingBlock: ZUJKAS_clean_linker_0, # of connection points: 2
#     Edge 16, Type (0, 1), BuildingBlock: ZUJKAS_clean_linker_0, # of connection points: 2
#     Edge 17, Type (0, 1), BuildingBlock: ZUJKAS_clean_linker_0, # of connection points: 2
#     Edge 18, Type (0, 1), BuildingBlock: ZUJKAS_clean_linker_0, # of connection points: 2
#     Edge 19, Type (0, 1), BuildingBlock: ZUJKAS_clean_linker_0, # of connection points: 2
#     Edge 20, Type (0, 1), BuildingBlock: ZUJKAS_clean_linker_0, # of connection points: 2
#     Edge 21, Type (0, 1), BuildingBlock: ZUJKAS_clean_linker_0, # of connection points: 2
#     Edge 22, Type (0, 1), BuildingBlock: ZUJKAS_clean_linker_0, # of connection points: 2
#     Edge 23, Type (0, 1), BuildingBlock: ZUJKAS_clean_linker_0, # of connection points: 2
#     Edge 24, Type (0, 1), BuildingBlock: ZUJKAS_clean_linker_0, # of connection points: 2
#     Edge 25, Type (0, 1), BuildingBlock: ZUJKAS_clean_linker_0, # of connection points: 2
#     Edge 26, Type (0, 1), BuildingBlock: ZUJKAS_clean_linker_0, # of connection points: 2
# Relax obj value: 0.111
# Max RMSD: 0.148
# Mean RMSD: 0.099
data_MOF--net-anh--node1-PAMTOO_clean_sbu_0--node2-BETDAH_clean_linker_0--edge1-ZUJKAS_clean_linker_0
_symmetry_space_group_name_H-M    P1
_symmetry_Int_Tables_number       1
_symmetry_cell_setting            triclinic
loop_
_symmetry_equiv_pos_as_xyz
'x, y, z'
_cell_length_a     39.365756
_cell_length_b     38.741277
_cell_length_c     64.184906
_cell_angle_alpha  93.674649
_cell_angle_beta   96.338985
_cell_angle_gamma 105.38401
loop_
_atom_site_label
_atom_site_type_symbol
_atom_site_fract_x
_atom_site_fract_y
_atom_site_fract_z
_atom_type_partial_charge
Dy0 Dy 0.08168 0.59258 0.15416 0.0
Dy1 Dy 0.05927 0.50462 0.15044 0.0
C2 C 0.069 0.54648 0.11037 0.0
O3 O 1.02376 0.57727 0.15796 0.0
O4 O 1.00767 0.51899 0.1428 0.0
O5 O 0.09904 0.64174 0.13964 0.0
O6 O 0.08795 0.64378 0.17191 0.0
O7 O 1.05092 0.52402 0.18228 0.0
O8 O 0.09559 0.57596 0.18606 0.0
O9 O 0.11909 0.52025 0.15725 0.0
O10 O 0.13267 0.57921 0.14959 0.0
O11 O 0.06222 0.4556 0.16368 0.0
O12 O 1.03071 0.4534 0.13341 0.0
C13 C 0.99917 0.54785 0.14993 0.0
O14 O 0.05955 0.57204 0.12065 0.0
O15 O 0.07798 0.52113 0.12031 0.0
C16 C 0.13457 0.69005 0.16295 0.0
C17 C 0.1992 0.74409 0.1731 0.0
C18 C 0.19902 0.70787 0.16941 0.0
C19 C 0.16693 0.68104 0.16446 0.0
C20 C 0.13454 0.72602 0.16683 0.0
C21 C 0.16664 0.75288 0.17193 0.0
C22 C 0.10089 0.66217 0.1569 0.0
C23 C 0.07403 0.55016 0.19437 0.0
C24 C 0.14229 0.54994 0.15349 0.0
C25 C 1.00826 0.41041 0.1561 0.0
C26 C 0.94833 0.36307 0.16891 0.0
C27 C 0.95901 0.39963 0.1767 0.0
C28 C 0.98863 0.42311 0.17029 0.0
C29 C 0.99805 0.37402 0.14842 0.0
C30 C 0.96829 0.35049 0.15476 0.0
C31 C 1.03864 0.43537 0.14885 0.0
H32 H 0.22367 0.70025 0.17048 0.0
H33 H 0.16738 0.65331 0.16164 0.0
H34 H 0.10974 0.73336 0.16571 0.0
H35 H 0.166 0.78059 0.17453 0.0
H36 H 0.94454 0.4101 0.18781 0.0
H37 H 0.99612 0.45124 0.17631 0.0
H38 H 1.01281 0.36391 0.13733 0.0
H39 H 0.96049 0.32264 0.14823 0.0
Dy40 Dy 0.57164 0.03104 0.51082 0.0
Dy41 Dy 0.65875 0.05547 0.52211 0.0
C42 C 0.61008 0.03858 0.55821 0.0
O43 O 0.58865 0.08927 0.50604 0.0
O44 O 0.64006 0.10418 0.52914 0.0
O45 O 0.51943 0.02828 0.51937 0.0
O46 O 0.52507 0.00881 0.48798 0.0
O47 O 0.64549 0.06794 0.4893 0.0
O48 O 0.59501 0.02203 0.48149 0.0
O49 O 0.64345 0.99562 0.51431 0.0
O50 O 0.58466 0.98102 0.5197 0.0
O51 O 0.70975 0.05397 0.5134 0.0
O52 O 0.70691 0.08627 0.54164 0.0
C53 C 0.61439 0.11334 0.51797 0.0
O54 O 0.58465 0.04581 0.54565 0.0
O55 O 0.63889 0.03418 0.55121 0.0
C56 C 0.47403 0.97788 0.50207 0.0
C57 C 0.41903 0.91413 0.50201 0.0
C58 C 0.43825 0.93237 0.5211 0.0
C59 C 0.46566 0.96391 0.52115 0.0
C60 C 0.45437 0.95994 0.48306 0.0
C61 C 0.42728 0.9283 0.48301 0.0
C62 C 0.50312 0.01077 0.50147 0.0
C63 C 0.62151 0.04579 0.47539 0.0
C64 C 0.61392 0.97187 0.51724 0.0
C65 C 0.75098 0.11068 0.52081 0.0
C66 C 0.79555 0.17242 0.50716 0.0
C67 C 0.75939 0.16019 0.49882 0.0
C68 C 0.73732 0.12973 0.50565 0.0
C69 C 0.78701 0.12241 0.52907 0.0
C70 C 0.80917 0.15307 0.5223 0.0
C71 C 0.72721 0.07914 0.52816 0.0
H72 H 0.43247 0.9219 0.53595 0.0
H73 H 0.48035 0.97715 0.53607 0.0
H74 H 0.46011 0.97033 0.46818 0.0
H75 H 0.41253 0.91508 0.46809 0.0
H76 H 0.74811 0.17406 0.48693 0.0
H77 H 0.70949 0.12109 0.49913 0.0
H78 H 0.79789 0.10809 0.54087 0.0
H79 H 0.83678 0.16201 0.52923 0.0
Dy80 Dy 0.62265 0.57244 0.8425 0.0
Dy81 Dy 0.53752 0.54344 0.82656 0.0
C82 C 0.59181 0.56308 0.79435 0.0
O83 O 0.60698 0.62295 0.83798 0.0
O84 O 0.5457 0.60275 0.8322 0.0
O85 O 0.67398 0.606 0.83797 0.0
O86 O 0.66956 0.57022 0.86275 0.0
O87 O 0.54499 0.5365 0.86104 0.0
O88 O 0.59637 0.5818 0.87048 0.0
O89 O 0.5607 0.49747 0.82097 0.0
O90 O 0.60775 0.51393 0.84693 0.0
O91 O 0.48221 0.54139 0.82721 0.0
O92 O 0.49706 0.50384 0.80585 0.0
C93 C 0.57549 0.62888 0.83518 0.0
O94 O 0.61429 0.55403 0.8081 0.0
O95 O 0.56273 0.56891 0.79997 0.0
C96 C 0.7164 0.57393 0.84276 0.0
C97 C 0.76369 0.53939 0.82669 0.0
C98 C 0.73018 0.53564 0.81533 0.0
C99 C 0.70664 0.55258 0.82338 0.0
C100 C 0.74988 0.57797 0.85411 0.0
C101 C 0.77341 0.56076 0.84613 0.0
C102 C 0.6908 0.59036 0.85138 0.0
C103 C 0.56772 0.55936 0.87545 0.0
C104 C 0.58511 0.48925 0.83367 0.0
C105 C 0.44771 0.52327 0.79344 0.0
C106 C 0.39828 0.53264 0.76059 0.0
C107 C 0.41827 0.5621 0.77475 0.0
C108 C 0.44287 0.55749 0.79103 0.0
C109 C 0.4294 0.49436 0.77859 0.0
C110 C 0.40507 0.49902 0.76224 0.0
C111 C 0.47163 0.51685 0.81116 0.0
H112 H 0.72193 0.51907 0.80044 0.0
H113 H 0.68066 0.54874 0.81453 0.0
H114 H 0.75769 0.59416 0.86914 0.0
H115 H 0.79929 0.56435 0.85509 0.0
H116 H 0.41336 0.58826 0.77409 0.0
H117 H 0.45718 0.58041 0.80207 0.0
H118 H 0.43323 0.46787 0.77997 0.0
H119 H 0.39034 0.4759 0.75145 0.0
H120 H 0.53281 0.00696 0.25793 0.0
H121 H 0.62036 0.09072 0.24307 0.0
H122 H 0.53504 0.03632 0.19455 0.0
C123 C 0.54598 0.02331 0.24652 0.0
C124 C 0.53006 0.0184 0.22551 0.0
C125 C 0.57858 0.04923 0.25298 0.0
C126 C 0.59526 0.07065 0.23814 0.0
C127 C 0.57955 0.06571 0.21695 0.0
C128 C 0.54716 0.03963 0.21082 0.0
N129 N 0.59523 0.08647 0.20131 0.0
C130 C 0.6279 0.1122 0.20478 0.0
H131 H 0.62345 0.48118 0.58089 0.0
H132 H 0.61296 0.58313 0.563 0.0
H133 H 0.60224 0.49622 0.51535 0.0
C134 C 0.61899 0.49812 0.56866 0.0
C135 C 0.61277 0.48403 0.54745 0.0
C136 C 0.6188 0.53364 0.57439 0.0
C137 C 0.61312 0.55572 0.55859 0.0
C138 C 0.60778 0.54231 0.5372 0.0
C139 C 0.60737 0.50654 0.53182 0.0
N140 N 0.60229 0.56373 0.52067 0.0
C141 C 0.60427 0.60011 0.52363 0.0
H142 H 1.03984 0.48372 0.88134 0.0
H143 H 0.15373 0.51391 0.89541 0.0
H144 H 0.10409 0.47721 0.832 0.0
C145 C 0.06563 0.4864 0.87618 0.0
C146 C 0.0681 0.47843 0.85479 0.0
C147 C 0.09627 0.49876 0.89099 0.0
C148 C 0.12979 0.5034 0.88427 0.0
C149 C 0.13272 0.49676 0.86297 0.0
C150 C 0.10184 0.48343 0.84839 0.0
N151 N 0.1669 0.50546 0.85636 0.0
C152 C 0.17162 0.51212 0.83573 0.0
H153 H 0.1392 0.60826 0.41879 0.0
H154 H 1.04802 0.52109 0.42502 0.0
H155 H 0.10677 0.58934 0.47981 0.0
C156 C 0.12173 0.59238 0.42866 0.0
C157 C 0.12689 0.60214 0.45045 0.0
C158 C 0.09344 0.56321 0.41933 0.0
C159 C 0.06993 0.54358 0.4321 0.0
C160 C 0.07484 0.55322 0.45398 0.0
C161 C 0.10308 0.58246 0.46292 0.0
N162 N 1.0519 0.5346 0.46761 0.0
C163 C 1.02737 0.50124 0.46233 0.0
H164 H 0.58623 0.12333 0.77167 0.0
H165 H 0.58643 0.01882 0.79027 0.0
H166 H 0.59528 0.10586 0.83739 0.0
C167 C 0.58753 0.10572 0.78401 0.0
C168 C 0.5909 0.11934 0.80519 0.0
C169 C 0.58624 0.06965 0.7785 0.0
C170 C 0.58761 0.04668 0.79446 0.0
C171 C 0.59033 0.05973 0.81574 0.0
C172 C 0.5923 0.09596 0.82093 0.0
N173 N 0.5914 0.03741 0.83239 0.0
C174 C 0.58643 0.00045 0.82954 0.0
H175 H 0.63521 0.54726 0.09333 0.0
H176 H 0.53192 0.55224 0.10685 0.0
H177 H 0.6118 0.54636 0.15719 0.0
C178 C 0.61681 0.54786 0.10465 0.0
C179 C 0.62787 0.54629 0.12603 0.0
C180 C 0.58251 0.55033 0.09762 0.0
C181 C 0.55838 0.55042 0.11224 0.0
C182 C 0.56875 0.54906 0.13382 0.0
C183 C 0.60371 0.54744 0.14061 0.0
N184 N 0.54495 0.54938 0.14909 0.0
C185 C 0.50926 0.54958 0.14493 0.0
H186 H 0.19826 0.60581 0.14618 0.0
H187 H 0.2598 0.6055 0.14386 0.0
H188 H 0.23493 0.49471 0.15738 0.0
H189 H 0.17319 0.4946 0.15946 0.0
H190 H 0.31124 0.59347 0.17268 0.0
H191 H 0.28194 0.48997 0.10459 0.0
H192 H 0.24923 0.51136 0.11246 0.0
H193 H 0.25854 0.47528 0.1263 0.0
C194 C 0.20574 0.58129 0.14866 0.0
C195 C 0.18036 0.55015 0.15291 0.0
C196 C 0.24112 0.58117 0.14733 0.0
C197 C 0.25219 0.5499 0.15003 0.0
C198 C 0.22711 0.51899 0.15469 0.0
H199 H 0.45357 0.49403 0.15034 0.0
H200 H 0.39153 0.49485 0.1513 0.0
C201 C 0.19171 0.51907 0.15605 0.0
C202 C 0.28996 0.54985 0.14829 0.0
H203 H 0.34122 0.50758 0.122 0.0
C204 C 0.31774 0.5748 0.1615 0.0
C205 C 0.29878 0.52555 0.13373 0.0
C206 C 0.27062 0.49924 0.11831 0.0
C207 C 0.3537 0.57556 0.16092 0.0
C208 C 0.36252 0.55117 0.14641 0.0
C209 C 0.33473 0.5263 0.13315 0.0
C210 C 0.40024 0.55055 0.14501 0.0
C211 C 0.38185 0.60187 0.17635 0.0
C212 C 0.426 0.58126 0.14066 0.0
C213 C 0.4615 0.58073 0.14008 0.0
C214 C 0.47194 0.54941 0.14363 0.0
C215 C 0.44616 0.51848 0.14744 0.0
C216 C 0.4107 0.51898 0.14802 0.0
H217 H 0.37046 0.61149 0.18995 0.0
H218 H 0.403 0.5896 0.1824 0.0
H219 H 0.39425 0.62563 0.1683 0.0
H220 H 0.41871 0.60575 0.13777 0.0
H221 H 0.48089 0.60497 0.13715 0.0
H222 H 0.86459 0.18494 0.49908 0.0
H223 H 0.90264 0.24022 0.48849 0.0
H224 H 0.8164 0.28946 0.48826 0.0
H225 H 0.77871 0.23504 0.49962 0.0
H226 H 0.89353 0.277 0.45279 0.0
H227 H 0.89716 0.36155 0.52663 0.0
H228 H 0.88154 0.31309 0.52441 0.0
H229 H 0.85311 0.33909 0.51398 0.0
C230 C 0.85386 0.20768 0.49702 0.0
C231 C 0.81865 0.2056 0.50032 0.0
C232 C 0.87553 0.23911 0.49079 0.0
C233 C 0.86246 0.26905 0.48786 0.0
C234 C 0.82718 0.26685 0.49076 0.0
H235 H 0.95652 0.4878 0.46061 0.0
H236 H 0.91444 0.42951 0.4638 0.0
C237 C 0.80556 0.23555 0.49704 0.0
C238 C 0.88576 0.30274 0.48194 0.0
H239 H 0.92212 0.39168 0.49865 0.0
C240 C 0.89989 0.30209 0.46281 0.0
C241 C 0.89399 0.33538 0.49508 0.0
C242 C 0.88096 0.3374 0.51626 0.0
C243 C 0.92167 0.33344 0.45632 0.0
C244 C 0.92977 0.36606 0.46944 0.0
C245 C 0.91559 0.36666 0.48854 0.0
C246 C 0.95394 0.39981 0.46421 0.0
C247 C 0.93537 0.33154 0.43536 0.0
C248 C 0.98991 0.40224 0.46302 0.0
C249 C 1.01381 0.43542 0.46113 0.0
C250 C 1.00198 0.46644 0.46044 0.0
C251 C 0.96592 0.46393 0.46084 0.0
C252 C 0.94201 0.43079 0.46274 0.0
H253 H 0.91937 0.30747 0.42486 0.0
H254 H 0.93518 0.35598 0.42725 0.0
H255 H 0.96319 0.32983 0.43797 0.0
H256 H 0.99982 0.37887 0.46459 0.0
H257 H 1.04174 0.43711 0.46118 0.0
H258 H 0.63083 0.69009 0.84251 0.0
H259 H 0.62852 0.75218 0.84115 0.0
H260 H 0.51453 0.716 0.82577 0.0
H261 H 0.51646 0.65344 0.82687 0.0
H262 H 0.54878 0.76777 0.79998 0.0
H263 H 0.59281 0.8115 0.88493 0.0
H264 H 0.62171 0.7901 0.87259 0.0
H265 H 0.57704 0.7647 0.87475 0.0
C266 C 0.60518 0.69518 0.83892 0.0
C267 C 0.5738 0.66666 0.8349 0.0
C268 C 0.60393 0.73078 0.83825 0.0
C269 C 0.57133 0.7387 0.83365 0.0
C270 C 0.53994 0.71042 0.82947 0.0
H271 H 0.54533 0.95445 0.85203 0.0
H272 H 0.53871 0.8896 0.85195 0.0
C273 C 0.54113 0.6747 0.83017 0.0
C274 C 0.57027 0.77656 0.83282 0.0
H275 H 0.59233 0.85773 0.8623 0.0
C276 C 0.55805 0.78743 0.81362 0.0
C277 C 0.58203 0.80202 0.8507 0.0
C278 C 0.59383 0.79151 0.87197 0.0
C279 C 0.55817 0.8234 0.81169 0.0
C280 C 0.57127 0.84914 0.82938 0.0
C281 C 0.5826 0.83802 0.8487 0.0
C282 C 0.57353 0.88781 0.82829 0.0
C283 C 0.54403 0.83346 0.79081 0.0
C284 C 0.59529 0.90829 0.815 0.0
C285 C 0.59899 0.94525 0.81504 0.0
C286 C 0.58112 0.96209 0.82841 0.0
C287 C 0.55917 0.94173 0.84153 0.0
C288 C 0.55545 0.90483 0.84151 0.0
H289 H 0.52654 0.80959 0.78074 0.0
H290 H 0.52886 0.85353 0.79308 0.0
H291 H 0.56665 0.84556 0.78229 0.0
H292 H 0.61005 0.89587 0.805 0.0
H293 H 0.61627 0.96075 0.80493 0.0
H294 H 0.94003 0.49577 0.13032 0.0
H295 H 0.87753 0.49582 0.12846 0.0
H296 H 0.90844 0.59788 0.16631 0.0
H297 H 0.97086 0.59857 0.16768 0.0
H298 H 0.83394 0.4953 0.15738 0.0
H299 H 0.84628 0.62135 0.11911 0.0
H300 H 0.88165 0.59975 0.12165 0.0
H301 H 0.87519 0.62784 0.1435 0.0
C302 C 0.93361 0.51838 0.13815 0.0
C303 C 0.9608 0.54736 0.14895 0.0
C304 C 0.89771 0.51835 0.13711 0.0
C305 C 0.88792 0.54723 0.14684 0.0
C306 C 0.91501 0.57575 0.15806 0.0
H307 H 0.67949 0.58824 0.15674 0.0
H308 H 0.74229 0.58805 0.16362 0.0
C309 C 0.95089 0.57597 0.15896 0.0
C310 C 0.8495 0.54719 0.14554 0.0
H311 H 0.79128 0.59639 0.13163 0.0
C312 C 0.82473 0.51742 0.15168 0.0
C313 C 0.83702 0.57597 0.13812 0.0
C314 C 0.86134 0.60785 0.13002 0.0
C315 C 0.78832 0.51578 0.15075 0.0
C316 C 0.77598 0.54455 0.1434 0.0
C317 C 0.80068 0.57446 0.13747 0.0
C318 C 0.7373 0.54318 0.14052 0.0
C319 C 0.76329 0.48331 0.15783 0.0
C320 C 0.7134 0.51795 0.12539 0.0
C321 C 0.67771 0.51817 0.12139 0.0
C322 C 0.66478 0.54352 0.13247 0.0
C323 C 0.68844 0.56812 0.14811 0.0
C324 C 0.7244 0.56817 0.15193 0.0
H325 H 0.77775 0.46787 0.16772 0.0
H326 H 0.7437 0.49137 0.16689 0.0
H327 H 0.74839 0.46524 0.14378 0.0
H328 H 0.72261 0.49867 0.11617 0.0
H329 H 0.66027 0.49887 0.10924 0.0
H330 H 0.36483 0.90055 0.5262 0.0
H331 H 0.31507 0.84588 0.52368 0.0
H332 H 0.35873 0.79758 0.47442 0.0
H333 H 0.40846 0.85183 0.47694 0.0
H334 H 0.26737 0.8174 0.48509 0.0
H335 H 0.33498 0.71882 0.51584 0.0
H336 H 0.35358 0.76688 0.52157 0.0
H337 H 0.35695 0.74502 0.49663 0.0
C338 C 0.36406 0.87799 0.51511 0.0
C339 C 0.39037 0.88039 0.50171 0.0
C340 C 0.33566 0.84692 0.51365 0.0
C341 C 0.33355 0.81765 0.49904 0.0
C342 C 0.36022 0.8197 0.48602 0.0
H343 H 0.19506 0.62016 0.44101 0.0
H344 H 0.24364 0.67279 0.45528 0.0
C345 C 0.38838 0.85079 0.48733 0.0
C346 C 0.30215 0.786 0.49603 0.0
H347 H 0.27758 0.69466 0.49579 0.0
C348 C 0.26932 0.79058 0.48775 0.0
C349 C 0.30503 0.75119 0.49948 0.0
C350 C 0.33945 0.74508 0.50905 0.0
C351 C 0.23961 0.76093 0.48171 0.0
C352 C 0.24275 0.72591 0.48453 0.0
C353 C 0.27528 0.72152 0.49361 0.0
C354 C 0.2134 0.69338 0.47678 0.0
C355 C 0.20573 0.76723 0.47133 0.0
C356 C 0.18046 0.68722 0.48438 0.0
C357 C 0.15241 0.65742 0.47601 0.0
C358 C 0.15697 0.63306 0.46003 0.0
C359 C 0.19042 0.63877 0.45298 0.0
C360 C 0.21832 0.66864 0.46126 0.0
H361 H 0.2102 0.79467 0.46607 0.0
H362 H 0.19386 0.74727 0.4575 0.0
H363 H 0.18621 0.76425 0.48277 0.0
H364 H 0.17632 0.70565 0.49664 0.0
H365 H 0.12696 0.65392 0.48173 0.0
H366 H 0.62215 0.45811 0.86203 0.0
H367 H 0.62489 0.39559 0.86001 0.0
H368 H 0.55724 0.37344 0.80033 0.0
H369 H 0.55335 0.43532 0.8026 0.0
H370 H 0.53614 0.32179 0.82477 0.0
H371 H 0.68179 0.34909 0.82488 0.0
H372 H 0.66985 0.37043 0.84752 0.0
H373 H 0.65906 0.38356 0.82177 0.0
C374 C 0.60798 0.43993 0.84844 0.0
C375 C 0.58757 0.4517 0.83246 0.0
C376 C 0.60976 0.40424 0.84724 0.0
C377 C 0.59177 0.3799 0.82984 0.0
C378 C 0.5714 0.39169 0.8139 0.0
H379 H 0.62523 0.17812 0.78646 0.0
H380 H 0.62491 0.24053 0.79375 0.0
C381 C 0.56923 0.42713 0.81522 0.0
C382 C 0.59318 0.34186 0.82829 0.0
H383 H 0.64967 0.28857 0.82694 0.0
C384 C 0.56098 0.31453 0.82525 0.0
C385 C 0.62559 0.33239 0.82871 0.0
C386 C 0.66102 0.36039 0.83069 0.0
C387 C 0.56019 0.27809 0.82234 0.0
C388 C 0.59261 0.26856 0.82321 0.0
C389 C 0.62485 0.29586 0.82648 0.0
C390 C 0.59361 0.23058 0.81952 0.0
C391 C 0.52455 0.25036 0.81753 0.0
C392 C 0.57668 0.20418 0.83183 0.0
C393 C 0.57604 0.16816 0.82735 0.0
C394 C 0.5929 0.15789 0.8107 0.0
C395 C 0.61113 0.18475 0.79902 0.0
C396 C 0.61134 0.22061 0.80333 0.0
H397 H 0.50318 0.26255 0.81168 0.0
H398 H 0.52529 0.2287 0.80554 0.0
H399 H 0.51738 0.23805 0.83214 0.0
H400 H 0.5636 0.21133 0.84477 0.0
H401 H 0.56164 0.14831 0.83666 0.0
H402 H 0.55824 0.91533 0.52318 0.0
H403 H 0.55799 0.85263 0.52552 0.0
H404 H 0.66813 0.8786 0.51563 0.0
H405 H 0.66889 0.94163 0.51353 0.0
H406 H 0.57228 0.80514 0.49544 0.0
H407 H 0.66727 0.82528 0.56878 0.0
H408 H 0.64645 0.85934 0.56052 0.0
H409 H 0.68354 0.8525 0.54845 0.0
C410 C 0.58251 0.90785 0.52156 0.0
C411 C 0.61366 0.93365 0.51825 0.0
C412 C 0.58228 0.87194 0.5229 0.0
C413 C 0.61317 0.86107 0.52108 0.0
C414 C 0.64419 0.88657 0.51752 0.0
H415 H 0.66113 0.65472 0.51966 0.0
H416 H 0.6632 0.71869 0.51947 0.0
C417 C 0.64449 0.92256 0.51618 0.0
C418 C 0.61252 0.82281 0.52237 0.0
H419 H 0.64959 0.76687 0.55045 0.0
C420 C 0.58906 0.79673 0.50752 0.0
C421 C 0.63449 0.81196 0.53813 0.0
C422 C 0.65916 0.83865 0.55501 0.0
C423 C 0.58736 0.76011 0.50778 0.0
C424 C 0.60928 0.74924 0.52356 0.0
C425 C 0.6328 0.77531 0.5384 0.0
C426 C 0.60841 0.71093 0.52474 0.0
C427 C 0.56268 0.73346 0.49089 0.0
C428 C 0.57719 0.68558 0.52825 0.0
C429 C 0.57605 0.64919 0.52836 0.0
C430 C 0.60617 0.63784 0.52512 0.0
C431 C 0.63766 0.66315 0.52221 0.0
C432 C 0.63883 0.69954 0.5221 0.0
H433 H 0.55446 0.74685 0.47716 0.0
H434 H 0.57544 0.71286 0.4853 0.0
H435 H 0.53836 0.71948 0.49746 0.0
H436 H 0.55364 0.69391 0.53071 0.0
H437 H 0.55154 0.6299 0.53065 0.0
H438 H 0.80177 0.50054 0.84795 0.0
H439 H 0.84733 0.47535 0.8354 0.0
H440 H 0.82679 0.51076 0.77408 0.0
H441 H 0.7812 0.53652 0.78665 0.0
H442 H 0.84841 0.42509 0.79688 0.0
H443 H 0.93204 0.56689 0.7997 0.0
H444 H 0.893 0.55657 0.81296 0.0
H445 H 0.8884 0.55309 0.78474 0.0
C446 C 0.80675 0.50269 0.83175 0.0
C447 C 0.78848 0.52098 0.81837 0.0
C448 C 0.83238 0.4879 0.82452 0.0
C449 C 0.84029 0.49129 0.80386 0.0
C450 C 0.82086 0.50786 0.79007 0.0
H451 H 0.05988 0.49844 0.81465 0.0
H452 H 1.00441 0.49044 0.79165 0.0
C453 C 0.79498 0.52255 0.79728 0.0
C454 C 0.87239 0.48219 0.79832 0.0
H455 H 0.96113 0.52219 0.80298 0.0
C456 C 0.87308 0.44612 0.79747 0.0
C457 C 0.90429 0.50964 0.79858 0.0
C458 C 0.90475 0.54879 0.79904 0.0
C459 C 0.90545 0.43712 0.79914 0.0
C460 C 0.93762 0.46502 0.80253 0.0
C461 C 0.93657 0.50068 0.80067 0.0
C462 C 0.97135 0.45951 0.81251 0.0
C463 C 0.90477 0.39797 0.7984 0.0
C464 C 0.97158 0.44316 0.83142 0.0
C465 C 1.00341 0.44687 0.84439 0.0
C466 C 1.0356 0.46793 0.83904 0.0
C467 C 1.03568 0.48189 0.81932 0.0
C468 C 1.00387 0.47745 0.80611 0.0
H469 H 0.88309 0.38177 0.78628 0.0
H470 H 0.93038 0.39362 0.79482 0.0
H471 H 0.89908 0.3879 0.8138 0.0
H472 H 0.94699 0.42992 0.8371 0.0
H473 H 1.00247 0.43494 0.8592 0.0
H474 H 0.25846 0.75176 0.15345 0.0
H475 H 0.31476 0.79882 0.16137 0.0
H476 H 0.27328 0.84787 0.21139 0.0
H477 H 0.21672 0.80102 0.20341 0.0
H478 H 0.30757 0.89699 0.18622 0.0
H479 H 0.39099 0.80784 0.21103 0.0
H480 H 0.3664 0.79455 0.18521 0.0
H481 H 0.34305 0.79319 0.20783 0.0
C482 C 0.26148 0.77239 0.16626 0.0
C483 C 0.2333 0.77261 0.17791 0.0
C484 C 0.29365 0.7992 0.17079 0.0
C485 C 0.29838 0.82643 0.1872 0.0
C486 C 0.27017 0.82698 0.1987 0.0
H487 H 0.47083 0.0065 0.24542 0.0
H488 H 0.41421 0.96049 0.23524 0.0
C489 C 0.2379 0.8003 0.1941 0.0
C490 C 0.33253 0.85475 0.19217 0.0
H491 H 0.42138 0.86837 0.20729 0.0
C492 C 0.33244 0.89077 0.1909 0.0
C493 C 0.36492 0.84649 0.19826 0.0
C494 C 0.36644 0.80846 0.20087 0.0
C495 C 0.36398 0.91877 0.19536 0.0
C496 C 0.39628 0.91046 0.20139 0.0
C497 C 0.39648 0.8745 0.20255 0.0
C498 C 0.43011 0.93882 0.20715 0.0
C499 C 0.36266 0.957 0.19336 0.0
C500 C 0.45781 0.94144 0.19484 0.0
C501 C 0.49019 0.96761 0.20064 0.0
C502 C 0.49545 0.99124 0.219 0.0
C503 C 0.4676 0.98846 0.23129 0.0
C504 C 0.43519 0.96245 0.22541 0.0
H505 H 0.33742 0.95819 0.1842 0.0
H506 H 0.36477 0.97088 0.20931 0.0
H507 H 0.38528 0.97192 0.18564 0.0
H508 H 0.45437 0.9232 0.18077 0.0
H509 H 0.51133 0.96893 0.191 0.0
H510 H 0.65244 0.16797 0.54736 0.0
H511 H 0.65081 0.23069 0.54971 0.0
H512 H 0.57598 0.20837 0.49285 0.0
H513 H 0.57646 0.14527 0.49083 0.0
H514 H 0.66823 0.28218 0.52429 0.0
H515 H 0.5247 0.25528 0.53162 0.0
H516 H 0.54771 0.22085 0.53338 0.0
H517 H 0.5331 0.23326 0.50807 0.0
C518 C 0.63554 0.17637 0.53538 0.0
C519 C 0.61427 0.15156 0.51904 0.0
C520 C 0.63468 0.21226 0.53673 0.0
C521 C 0.61275 0.22413 0.52169 0.0
C522 C 0.59231 0.19964 0.50499 0.0
H523 H 0.63827 0.45524 0.51416 0.0
H524 H 0.63704 0.39235 0.5059 0.0
C525 C 0.59276 0.16361 0.50379 0.0
C526 C 0.61154 0.26218 0.52355 0.0
H527 H 0.55558 0.31544 0.52781 0.0
C528 C 0.6436 0.28948 0.52506 0.0
C529 C 0.57942 0.27167 0.52478 0.0
C530 C 0.54434 0.24375 0.52459 0.0
C531 C 0.64452 0.32597 0.52798 0.0
C532 C 0.6123 0.33546 0.52875 0.0
C533 C 0.58021 0.30816 0.52701 0.0
C534 C 0.61144 0.37338 0.53279 0.0
C535 C 0.68014 0.35383 0.53102 0.0
C536 C 0.59599 0.38338 0.55006 0.0
C537 C 0.59581 0.41904 0.5545 0.0
C538 C 0.61138 0.44571 0.54187 0.0
C539 C 0.62602 0.43546 0.52421 0.0
C540 C 0.6258 0.39958 0.51963 0.0
H541 H 0.70225 0.34185 0.53561 0.0
H542 H 0.68479 0.36584 0.516 0.0
H543 H 0.68102 0.37571 0.54329 0.0
H544 H 0.58442 0.3636 0.56032 0.0
H545 H 0.58342 0.42567 0.56788 0.0
H546 H 0.39065 0.58686 0.73604 0.0
H547 H 0.33406 0.59869 0.72336 0.0
H548 H 0.27762 0.49746 0.74353 0.0
H549 H 0.33302 0.48508 0.75508 0.0
H550 H 0.23537 0.51718 0.71354 0.0
H551 H 0.2965 0.63762 0.77125 0.0
H552 H 0.31261 0.63318 0.7464 0.0
H553 H 0.32254 0.60666 0.76713 0.0
C554 C 0.36601 0.56669 0.73702 0.0
C555 C 0.36625 0.5355 0.74709 0.0
C556 C 0.3337 0.57351 0.72984 0.0
C557 C 0.30148 0.54979 0.73334 0.0
C558 C 0.30195 0.51651 0.74072 0.0
H559 H 0.19034 0.4717 0.80598 0.0
H560 H 0.20525 0.48896 0.77151 0.0
C561 C 0.33394 0.5094 0.74746 0.0
C562 C 0.26876 0.56154 0.73481 0.0
H563 H 0.24119 0.60143 0.77601 0.0
C564 C 0.23616 0.53677 0.72657 0.0
C565 C 0.26894 0.58834 0.751 0.0
C566 C 0.30189 0.61814 0.75945 0.0
C567 C 0.20661 0.5323 0.73755 0.0
C568 C 0.20997 0.55364 0.75674 0.0
C569 C 0.23923 0.58399 0.76177 0.0
C570 C 0.19104 0.53937 0.77442 0.0
C571 C 0.17374 0.50208 0.72991 0.0
C572 C 0.17797 0.56174 0.78764 0.0
C573 C 0.17012 0.55204 0.80756 0.0
C574 C 0.1754 0.52001 0.81442 0.0
C575 C 0.18623 0.49658 0.80085 0.0
C576 C 0.19408 0.5062 0.781 0.0
H577 H 0.16779 0.50027 0.71249 0.0
H578 H 0.17846 0.47619 0.73402 0.0
H579 H 0.15034 0.50575 0.73706 0.0
H580 H 0.17593 0.58764 0.78309 0.0
H581 H 0.16151 0.57028 0.81793 0.0
H582 H 0.93859 0.29329 0.17819 0.0
H583 H 0.88434 0.25209 0.18691 0.0
H584 H 0.83139 0.33615 0.18328 0.0
H585 H 0.8849 0.37704 0.17373 0.0
H586 H 0.84494 0.25733 0.22033 0.0
H587 H 0.76525 0.25405 0.14286 0.0
H588 H 0.81297 0.27194 0.14723 0.0
H589 H 0.78502 0.29843 0.15588 0.0
C590 C 0.91529 0.30291 0.17904 0.0
C591 C 0.91601 0.33839 0.1751 0.0
C592 C 0.88444 0.27943 0.1842 0.0
C593 C 0.85377 0.29096 0.18544 0.0
C594 C 0.85463 0.32657 0.18205 0.0
H595 H 0.63774 0.18341 0.20438 0.0
H596 H 0.69405 0.22857 0.20222 0.0
C597 C 0.88539 0.35002 0.17683 0.0
C598 C 0.82068 0.2656 0.18999 0.0
H599 H 0.73449 0.22516 0.16938 0.0
C600 C 0.82077 0.2502 0.20921 0.0
C601 C 0.78928 0.25638 0.1754 0.0
C602 C 0.78805 0.27076 0.1541 0.0
C603 C 0.79003 0.22613 0.21435 0.0
C604 C 0.75865 0.21699 0.19976 0.0
C605 C 0.75858 0.23247 0.18059 0.0
C606 C 0.72572 0.19062 0.20364 0.0
C607 C 0.79121 0.21109 0.23544 0.0
C608 C 0.72503 0.15448 0.20536 0.0
C609 C 0.69298 0.12883 0.20662 0.0
C610 C 0.66138 0.13908 0.20612 0.0
C611 C 0.66207 0.17521 0.20496 0.0
C612 C 0.69408 0.20087 0.20369 0.0
H613 H 0.81389 0.22767 0.24682 0.0
H614 H 0.76615 0.20943 0.24225 0.0
H615 H 0.79441 0.18353 0.23335 0.0
H616 H 0.749 0.1459 0.20489 0.0
H617 H 0.69269 0.10087 0.20727 0.0
H618 H 0.09854 0.50496 0.08631 0.0
H619 H 0.10234 0.50473 0.04867 0.0
H620 H 1.04734 0.58708 0.04466 0.0
H621 H 1.04355 0.58782 0.08267 0.0
H622 H 1.02199 0.51823 0.01332 0.0
H623 H 0.16532 0.59123 0.01928 0.0
H624 H 0.15393 0.55667 0.03677 0.0
H625 H 0.13849 0.5961 0.03982 0.0
C626 C 0.08719 0.52308 0.07751 0.0
C627 C 0.0707 0.54643 0.08749 0.0
C628 C 0.08957 0.52299 0.05602 0.0
C629 C 0.07542 0.54609 0.04405 0.0
C630 C 1.05859 0.56923 0.05378 0.0
H631 H 1.05551 0.53916 0.90615 0.0
H632 H 1.04973 0.55413 0.94299 0.0
C633 C 1.05646 0.5696 0.07543 0.0
C634 C 0.0777 0.54498 0.02124 0.0
H635 H 0.13762 0.56025 0.98604 0.0
C636 C 1.04707 0.52789 0.00722 0.0
C637 C 0.11058 0.55744 0.01354 0.0
C638 C 0.144 0.57665 0.02807 0.0
C639 C 1.04878 0.52135 0.98564 0.0
C640 C 0.08191 0.53302 0.97796 0.0
C641 C 0.1123 0.55124 0.99197 0.0
C642 C 0.08601 0.52505 0.95565 0.0
C643 C 1.01547 0.50048 0.97149 0.0
C644 C 0.10922 0.50475 0.9506 0.0
C645 C 0.11283 0.49647 0.9296 0.0
C646 C 0.09318 0.50825 0.9133 0.0
C647 C 0.07043 0.52912 0.91841 0.0
C648 C 0.06706 0.53764 0.93942 0.0
H649 H 0.99463 0.48604 0.98062 0.0
H650 H 1.00454 0.51937 0.96235 0.0
H651 H 1.02127 0.48057 0.96017 0.0
H652 H 0.12419 0.49489 0.96292 0.0
H653 H 0.13047 0.48028 0.92609 0.0
H654 H 0.57387 0.00748 0.44233 0.0
H655 H 0.57563 0.01404 0.40484 0.0
H656 H 0.67448 0.09743 0.4193 0.0
H657 H 0.67315 0.091 0.45694 0.0
H658 H 0.5783 0.0794 0.38532 0.0
H659 H 0.69344 0.02567 0.37357 0.0
H660 H 0.66935 0.01671 0.3959 0.0
H661 H 0.69981 0.06003 0.395 0.0
C662 C 0.59617 0.02704 0.43759 0.0
C663 C 0.62339 0.04868 0.45265 0.0
C664 C 0.59707 0.03079 0.41615 0.0
C665 C 0.62529 0.05602 0.40934 0.0
C666 C 0.65271 0.07748 0.42426 0.0
H667 H 0.60519 0.11213 0.27867 0.0
H668 H 0.62263 0.11864 0.31697 0.0
C669 C 0.6518 0.07384 0.44575 0.0
C670 C 0.62508 0.06046 0.3866 0.0
H671 H 0.66565 0.04523 0.34392 0.0
C672 C 0.59758 0.07231 0.37627 0.0
C673 C 0.65027 0.05105 0.37493 0.0
C674 C 0.67983 0.03741 0.38529 0.0
C675 C 0.59401 0.07416 0.35442 0.0
C676 C 0.6189 0.06426 0.34266 0.0
C677 C 0.64689 0.05315 0.35306 0.0
C678 C 0.61383 0.06155 0.31936 0.0
C679 C 0.56273 0.08511 0.34394 0.0
C680 C 0.60468 0.02752 0.30803 0.0
C681 C 0.59489 0.02378 0.28627 0.0
C682 C 0.5942 0.05404 0.27543 0.0
C683 C 0.60552 0.08838 0.28663 0.0
C684 C 0.61523 0.0921 0.30848 0.0
H685 H 0.54285 0.08616 0.35481 0.0
H686 H 0.57225 0.11222 0.33853 0.0
H687 H 0.54936 0.06606 0.32995 0.0
H688 H 0.60359 0.00365 0.31615 0.0
H689 H 0.58679 0.99705 0.27798 0.0
H690 H 0.64659 0.54775 0.77624 0.0
H691 H 0.65627 0.54968 0.73927 0.0
H692 H 0.56182 0.58484 0.72529 0.0
H693 H 0.55196 0.58322 0.76218 0.0
H694 H 0.60747 0.50959 0.70472 0.0
H695 H 0.63755 0.65649 0.69789 0.0
H696 H 0.64024 0.63796 0.72295 0.0
H697 H 0.59779 0.63757 0.70924 0.0
C698 C 0.62803 0.5562 0.76535 0.0
C699 C 0.59849 0.56532 0.77217 0.0
C700 C 0.63363 0.55731 0.74425 0.0
C701 C 0.61005 0.56791 0.72964 0.0
C702 C 0.58072 0.5773 0.7364 0.0
H703 H 0.57658 0.56714 0.59418 0.0
H704 H 0.57708 0.5784 0.63229 0.0
C705 C 0.57501 0.57608 0.75748 0.0
C706 C 0.61473 0.5668 0.70706 0.0
H707 H 0.62751 0.61846 0.66591 0.0
C708 C 0.61218 0.53342 0.69626 0.0
C709 C 0.62056 0.59793 0.69609 0.0
C710 C 0.62451 0.63461 0.70713 0.0
C711 C 0.61452 0.53011 0.67462 0.0
C712 C 0.62043 0.56124 0.66361 0.0
C713 C 0.62313 0.5947 0.67443 0.0
C714 C 0.6231 0.55915 0.64074 0.0
C715 C 0.60951 0.49312 0.66363 0.0
C716 C 0.64972 0.54613 0.63294 0.0
C717 C 0.6494 0.53959 0.61127 0.0
C718 C 0.6227 0.54638 0.59702 0.0
C719 C 0.59753 0.56181 0.60483 0.0
C720 C 0.59772 0.56811 0.62656 0.0
H721 H 0.59631 0.47154 0.67301 0.0
H722 H 0.59338 0.48981 0.64793 0.0
H723 H 0.63587 0.4894 0.6613 0.0
H724 H 0.67005 0.53987 0.64363 0.0
H725 H 0.66941 0.52817 0.60564 0.0
H726 H 0.65414 0.01882 0.58842 0.0
H727 H 0.64804 0.01505 0.62577 0.0
H728 H 0.55207 0.04905 0.61662 0.0
H729 H 0.55749 0.05218 0.57923 0.0
H730 H 0.64833 0.06879 0.65487 0.0
H731 H 0.52086 0.96278 0.64921 0.0
H732 H 0.54565 0.97149 0.62716 0.0
H733 H 0.51747 -0.00086 0.63388 0.0
C734 C 0.63156 0.02526 0.5943 0.0
C735 C 0.60627 0.03579 0.5808 0.0
C736 C 0.62811 0.02301 0.61566 0.0
C737 C 0.59927 0.03112 0.62392 0.0
C738 C 0.57403 0.04171 0.6105 0.0
H739 H 0.543 0.08061 0.74475 0.0
H740 H 0.54615 0.06669 0.70739 0.0
C741 C 0.57735 0.0438 0.58913 0.0
C742 C 0.59678 0.03081 0.64682 0.0
H743 H 0.54099 -0.00172 0.68253 0.0
C744 C 0.62509 0.05296 0.66095 0.0
C745 C 0.56643 0.01011 0.65471 0.0
C746 C 0.53604 0.98426 0.64046 0.0
C747 C 0.62329 0.0561 0.68267 0.0
C748 C 0.59252 0.03624 0.69048 0.0
C749 C 0.56453 0.01346 0.67645 0.0
C750 C 0.58819 0.04073 0.71302 0.0
C751 C 0.65372 0.0817 0.69705 0.0
C752 C 0.61006 0.02973 0.72849 0.0
C753 C 0.60832 0.03766 0.74986 0.0
C754 C 0.58477 0.05684 0.75604 0.0
C755 C 0.56173 0.06624 0.74045 0.0
C756 C 0.56337 0.05815 0.71913 0.0
H757 H 0.67279 0.09944 0.68814 0.0
H758 H 0.64363 0.09878 0.70802 0.0
H759 H 0.66833 0.06604 0.70663 0.0
H760 H 0.62914 0.01592 0.72403 0.0
H761 H 0.62647 0.0302 0.76152 0.0
H762 H 0.51358 0.51492 0.89273 0.0
H763 H 0.50579 0.5136 0.93007 0.0
H764 H 0.60121 0.60098 0.94624 0.0
H765 H 0.60899 0.60288 0.90916 0.0
H766 H 0.55183 0.5009 0.96256 0.0
H767 H 0.53106 0.63534 0.97845 0.0
H768 H 0.52757 0.61431 0.95207 0.0
H769 H 0.57044 0.63734 0.96638 0.0
C770 C 0.53272 0.53413 0.90422 0.0
C771 C 0.56187 0.5591 0.8979 0.0
C772 C 0.5282 0.53329 0.92555 0.0
C773 C 0.55255 0.55761 0.94092 0.0
C774 C 0.58158 0.58255 0.93463 0.0
H775 H 0.62102 0.59386 0.07193 0.0
H776 H 0.60797 0.59428 0.03385 0.0
C777 C 0.58614 0.58341 0.91338 0.0
C778 C 0.54909 0.55573 0.96365 0.0
H779 H 0.54844 0.60734 0.00872 0.0
C780 C 0.55041 0.52392 0.97262 0.0
C781 C 0.54713 0.58578 0.97673 0.0
C782 C 0.5436 0.61999 0.96789 0.0
C783 C 0.55189 0.52203 0.99449 0.0
C784 C 0.55156 0.55263 0.00765 0.0
C785 C 0.54877 0.58395 -0.00141 0.0
C786 C 0.55747 0.55374 0.03093 0.0
C787 C 0.5557 0.48798 0.00345 0.0
C788 C 0.53293 0.53141 0.04201 0.0
C789 C 0.54037 0.53107 0.06385 0.0
C790 C 0.57252 0.55298 0.07489 0.0
C791 C 0.5963 0.57627 0.0638 0.0
C792 C 0.5888 0.57669 0.04208 0.0
H793 H 0.56133 0.46893 0.9915 0.0
H794 H 0.57741 0.49428 0.01689 0.0
H795 H 0.53064 0.47434 0.00941 0.0
H796 H 0.50836 0.51385 0.03372 0.0
H797 H 0.52159 0.51284 0.07198 0.0
H798 H 1.03423 0.49958 0.21607 0.0
H799 H 1.03524 0.49944 0.25412 0.0
H800 H 0.11733 0.60009 0.26335 0.0
H801 H 0.11632 0.60073 0.22511 0.0
H802 H 0.09205 0.50002 0.28447 0.0
H803 H 1.04131 0.61918 0.2983 0.0
H804 H 1.03795 0.59641 0.2724 0.0
H805 H 0.07936 0.62696 0.28433 0.0
C806 C 1.05247 0.52183 0.22613 0.0
C807 C 0.07513 0.55029 0.21752 0.0
C808 C 1.05301 0.52163 0.2479 0.0
C809 C 0.07602 0.54994 0.26153 0.0
C810 C 0.09892 0.57828 0.25306 0.0
H811 H 0.14388 0.55793 0.39435 0.0
H812 H 0.13753 0.55164 0.35588 0.0
C813 C 0.09845 0.57851 0.23122 0.0
C814 C 0.07638 0.54923 0.28461 0.0
H815 H 0.062 0.59477 0.32862 0.0
C816 C 0.08538 0.52066 0.29413 0.0
C817 C 0.0671 0.57587 0.29709 0.0
C818 C 1.05555 0.6062 0.28755 0.0
C819 C 0.08615 0.51847 0.31592 0.0
C820 C 0.07809 0.54579 0.32851 0.0
C821 C 0.0683 0.57392 0.31892 0.0
C822 C 0.08106 0.54657 0.35175 0.0
C823 C 0.09535 0.48682 0.32526 0.0
C824 C 1.05139 0.54581 0.36221 0.0
C825 C 1.05497 0.54953 0.38424 0.0
C826 C 0.08841 0.55454 0.39614 0.0
C827 C 0.11783 0.55431 0.38558 0.0
C828 C 0.1142 0.55045 0.36362 0.0
H829 H 0.09113 0.46373 0.31316 0.0
H830 H 0.1238 0.49487 0.33206 0.0
H831 H 0.07921 0.47786 0.33806 0.0
H832 H 1.02561 0.54301 0.35331 0.0
H833 H 1.03194 0.54998 0.39195 0.0
loop_
_geom_bond_atom_site_label_1
_geom_bond_atom_site_label_2
_geom_bond_distance
_geom_bond_site_symmetry_2
_ccdc_geom_bond_type
Dy0 O3 2.307 1_455 S
Dy0 O5 2.395 . S
Dy0 O6 2.379 . S
Dy0 O8 2.339 . S
Dy0 O10 2.298 . S
Dy0 O14 2.275 . S
Dy0 C22 2.738 . S
Dy1 O4 2.286 1_455 S
Dy1 O7 2.275 . S
Dy1 O9 2.320 . S
Dy1 O11 2.386 1_455 S
Dy1 O12 2.371 1_455 S
Dy1 O15 2.340 . S
Dy1 C31 2.729 1_455 S
C2 O14 1.254 . S
C2 O15 1.257 . S
O3 Dy0 2.307 1_655 S
O3 C13 1.266 . S
O4 Dy1 2.286 1_655 S
O4 C13 1.236 . S
O5 Dy0 2.395 . S
O5 C22 1.255 . S
O6 Dy0 2.379 . S
O6 C22 1.249 . S
O7 Dy1 2.275 . S
O7 C23 1.254 . S
O8 Dy0 2.339 . S
O8 C23 1.257 . S
O9 Dy1 2.320 . S
O9 C24 1.266 . S
O10 Dy0 2.298 . S
O10 C24 1.236 . S
O11 Dy1 2.386 1_655 S
O11 C31 1.255 . S
O12 Dy1 2.371 1_655 S
O12 C31 1.249 . S
C13 O3 1.266 . S
C13 O4 1.236 . S
O14 Dy0 2.275 . S
O14 C2 1.254 . S
O15 Dy1 2.340 . S
O15 C2 1.257 . S
C16 C19 1.344 . S
C16 C20 1.328 . S
C16 C22 1.516 . S
C17 C18 1.304 . S
C17 C21 1.323 . S
C18 C17 1.304 . S
C18 C19 1.371 . S
C18 H32 0.930 . S
C19 C16 1.344 . S
C19 C18 1.371 . S
C19 H33 0.931 . S
C20 C16 1.328 . S
C20 C21 1.433 . S
C20 H34 0.931 . S
C21 C17 1.323 . S
C21 C20 1.433 . S
C21 H35 0.933 . S
C22 Dy0 2.738 . S
C22 O5 1.255 . S
C22 O6 1.249 . S
C22 C16 1.516 . S
C23 O7 1.254 . S
C23 O8 1.257 . S
C24 O9 1.266 . S
C24 O10 1.236 . S
C25 C28 1.344 . S
C25 C29 1.328 . S
C25 C31 1.516 . S
C26 C27 1.304 . S
C26 C30 1.323 . S
C27 C26 1.304 . S
C27 C28 1.371 . S
C27 H36 0.930 . S
C28 C25 1.344 . S
C28 C27 1.371 . S
C28 H37 0.931 . S
C29 C25 1.328 . S
C29 C30 1.433 . S
C29 H38 0.931 . S
C30 C26 1.323 . S
C30 C29 1.433 . S
C30 H39 0.933 . S
C31 Dy1 2.729 1_655 S
C31 O11 1.255 . S
C31 O12 1.249 . S
C31 C25 1.516 . S
H32 C18 0.930 . S
H33 C19 0.931 . S
H34 C20 0.931 . S
H35 C21 0.933 . S
H36 C27 0.930 . S
H37 C28 0.931 . S
H38 C29 0.931 . S
H39 C30 0.933 . S
Dy40 O43 2.307 . S
Dy40 O45 2.395 1_545 S
Dy40 O46 2.379 1_545 S
Dy40 O48 2.339 . S
Dy40 O50 2.298 1_545 S
Dy40 O54 2.275 . S
Dy40 C62 2.738 1_545 S
Dy41 O44 2.298 . S
Dy41 O47 2.275 . S
Dy41 O49 2.307 . S
Dy41 O51 2.395 . S
Dy41 O52 2.379 . S
Dy41 O55 2.339 . S
Dy41 C71 2.738 . S
C42 O54 1.254 . S
C42 O55 1.257 . S
O43 Dy40 2.307 . S
O43 C53 1.266 . S
O44 Dy41 2.298 . S
O44 C53 1.236 . S
O45 Dy40 2.395 1_565 S
O45 C62 1.255 . S
O46 Dy40 2.379 1_565 S
O46 C62 1.249 . S
O47 Dy41 2.275 . S
O47 C63 1.254 . S
O48 Dy40 2.339 . S
O48 C63 1.257 . S
O49 Dy41 2.307 . S
O49 C64 1.266 1_545 S
O50 Dy40 2.298 1_565 S
O50 C64 1.236 . S
O51 Dy41 2.395 . S
O51 C71 1.255 . S
O52 Dy41 2.379 . S
O52 C71 1.249 . S
C53 O43 1.266 . S
C53 O44 1.236 . S
O54 Dy40 2.275 . S
O54 C42 1.254 . S
O55 Dy41 2.339 . S
O55 C42 1.257 . S
C56 C59 1.344 . S
C56 C60 1.328 . S
C56 C62 1.516 . S
C57 C58 1.304 . S
C57 C61 1.323 . S
C58 C57 1.304 . S
C58 C59 1.371 . S
C58 H72 0.930 . S
C59 C56 1.344 . S
C59 C58 1.371 . S
C59 H73 0.931 . S
C60 C56 1.328 . S
C60 C61 1.433 . S
C60 H74 0.931 . S
C61 C57 1.323 . S
C61 C60 1.433 . S
C61 H75 0.933 . S
C62 Dy40 2.738 1_565 S
C62 O45 1.255 . S
C62 O46 1.249 . S
C62 C56 1.516 . S
C63 O47 1.254 . S
C63 O48 1.257 . S
C64 O49 1.266 1_565 S
C64 O50 1.236 . S
C65 C68 1.344 . S
C65 C69 1.328 . S
C65 C71 1.516 . S
C66 C67 1.304 . S
C66 C70 1.323 . S
C67 C66 1.304 . S
C67 C68 1.371 . S
C67 H76 0.930 . S
C68 C65 1.344 . S
C68 C67 1.371 . S
C68 H77 0.931 . S
C69 C65 1.328 . S
C69 C70 1.433 . S
C69 H78 0.931 . S
C70 C66 1.323 . S
C70 C69 1.433 . S
C70 H79 0.933 . S
C71 Dy41 2.738 . S
C71 O51 1.255 . S
C71 O52 1.249 . S
C71 C65 1.516 . S
H72 C58 0.930 . S
H73 C59 0.931 . S
H74 C60 0.931 . S
H75 C61 0.933 . S
H76 C67 0.930 . S
H77 C68 0.931 . S
H78 C69 0.931 . S
H79 C70 0.933 . S
Dy80 O83 2.307 . S
Dy80 O85 2.395 . S
Dy80 O86 2.379 . S
Dy80 O88 2.339 . S
Dy80 O90 2.298 . S
Dy80 O94 2.275 . S
Dy80 C102 2.738 . S
Dy81 O84 2.298 . S
Dy81 O87 2.275 . S
Dy81 O89 2.307 . S
Dy81 O91 2.395 . S
Dy81 O92 2.379 . S
Dy81 O95 2.339 . S
Dy81 C111 2.738 . S
C82 O94 1.254 . S
C82 O95 1.257 . S
O83 Dy80 2.307 . S
O83 C93 1.266 . S
O84 Dy81 2.298 . S
O84 C93 1.236 . S
O85 Dy80 2.395 . S
O85 C102 1.255 . S
O86 Dy80 2.379 . S
O86 C102 1.249 . S
O87 Dy81 2.275 . S
O87 C103 1.254 . S
O88 Dy80 2.339 . S
O88 C103 1.257 . S
O89 Dy81 2.307 . S
O89 C104 1.266 . S
O90 Dy80 2.298 . S
O90 C104 1.236 . S
O91 Dy81 2.395 . S
O91 C111 1.255 . S
O92 Dy81 2.379 . S
O92 C111 1.249 . S
C93 O83 1.266 . S
C93 O84 1.236 . S
O94 Dy80 2.275 . S
O94 C82 1.254 . S
O95 Dy81 2.339 . S
O95 C82 1.257 . S
C96 C99 1.344 . S
C96 C100 1.328 . S
C96 C102 1.516 . S
C97 C98 1.304 . S
C97 C101 1.323 . S
C98 C97 1.304 . S
C98 C99 1.371 . S
C98 H112 0.930 . S
C99 C96 1.344 . S
C99 C98 1.371 . S
C99 H113 0.931 . S
C100 C96 1.328 . S
C100 C101 1.433 . S
C100 H114 0.931 . S
C101 C97 1.323 . S
C101 C100 1.433 . S
C101 H115 0.933 . S
C102 Dy80 2.738 . S
C102 O85 1.255 . S
C102 O86 1.249 . S
C102 C96 1.516 . S
C103 O87 1.254 . S
C103 O88 1.257 . S
C104 O89 1.266 . S
C104 O90 1.236 . S
C105 C108 1.344 . S
C105 C109 1.328 . S
C105 C111 1.516 . S
C106 C107 1.304 . S
C106 C110 1.323 . S
C107 C106 1.304 . S
C107 C108 1.371 . S
C107 H116 0.930 . S
C108 C105 1.344 . S
C108 C107 1.371 . S
C108 H117 0.931 . S
C109 C105 1.328 . S
C109 C110 1.433 . S
C109 H118 0.931 . S
C110 C106 1.323 . S
C110 C109 1.433 . S
C110 H119 0.933 . S
C111 Dy81 2.738 . S
C111 O91 1.255 . S
C111 O92 1.249 . S
C111 C105 1.516 . S
H112 C98 0.930 . S
H113 C99 0.931 . S
H114 C100 0.931 . S
H115 C101 0.933 . S
H116 C107 0.930 . S
H117 C108 0.931 . S
H118 C109 0.931 . S
H119 C110 0.933 . S
H120 C123 0.929 . S
H121 C126 0.929 . S
H122 C128 0.930 . S
C123 H120 0.929 . S
C123 C124 1.398 . S
C123 C125 1.396 . S
C124 C123 1.398 . S
C124 C128 1.407 . S
C125 C123 1.396 . S
C125 C126 1.394 . S
C126 H121 0.929 . S
C126 C125 1.394 . S
C126 C127 1.382 . S
C127 C126 1.382 . S
C127 C128 1.392 . S
C127 N129 1.420 . S
C128 H122 0.930 . S
C128 C124 1.407 . S
C128 C127 1.392 . S
N129 C127 1.420 . S
N129 C130 1.244 . S
C130 N129 1.244 . S
H131 C134 0.929 . S
H132 C137 0.929 . S
H133 C139 0.930 . S
C134 H131 0.929 . S
C134 C135 1.398 . S
C134 C136 1.396 . S
C135 C134 1.398 . S
C135 C139 1.407 . S
C136 C134 1.396 . S
C136 C137 1.394 . S
C137 H132 0.929 . S
C137 C136 1.394 . S
C137 C138 1.382 . S
C138 C137 1.382 . S
C138 C139 1.392 . S
C138 N140 1.420 . S
C139 H133 0.930 . S
C139 C135 1.407 . S
C139 C138 1.392 . S
N140 C138 1.420 . S
N140 C141 1.244 . S
C141 N140 1.244 . S
H142 C145 0.929 1_655 S
H143 C148 0.929 . S
H144 C150 0.930 . S
C145 H142 0.929 1_455 S
C145 C146 1.399 . S
C145 C147 1.396 . S
C146 C145 1.399 . S
C146 C150 1.431 . S
C147 C145 1.396 . S
C147 C148 1.394 . S
C148 H143 0.929 . S
C148 C147 1.394 . S
C148 C149 1.382 . S
C149 C148 1.382 . S
C149 C150 1.392 . S
C149 N151 1.420 . S
C150 H144 0.930 . S
C150 C146 1.431 . S
C150 C149 1.392 . S
N151 C149 1.420 . S
N151 C152 1.244 . S
C152 N151 1.244 . S
H153 C156 0.929 . S
H154 C159 0.929 1_655 S
H155 C161 0.930 . S
C156 H153 0.929 . S
C156 C157 1.398 . S
C156 C158 1.396 . S
C157 C156 1.398 . S
C157 C161 1.407 . S
C158 C156 1.396 . S
C158 C159 1.394 . S
C159 H154 0.929 1_455 S
C159 C158 1.394 . S
C159 C160 1.382 . S
C160 C159 1.382 . S
C160 C161 1.392 . S
C160 N162 1.420 1_455 S
C161 H155 0.930 . S
C161 C157 1.407 . S
C161 C160 1.392 . S
N162 C160 1.420 1_655 S
N162 C163 1.244 . S
C163 N162 1.244 . S
H164 C167 0.929 . S
H165 C170 0.929 . S
H166 C172 0.930 . S
C167 H164 0.929 . S
C167 C168 1.398 . S
C167 C169 1.396 . S
C168 C167 1.398 . S
C168 C172 1.407 . S
C169 C167 1.396 . S
C169 C170 1.394 1_545 S
C170 H165 0.929 . S
C170 C169 1.394 1_565 S
C170 C171 1.381 1_565 S
C171 C170 1.381 1_545 S
C171 C172 1.406 . S
C171 N173 1.408 1_545 S
C172 H166 0.930 . S
C172 C168 1.407 . S
C172 C171 1.406 . S
N173 C171 1.408 1_565 S
N173 C174 1.244 . S
C174 N173 1.244 . S
H175 C178 0.929 . S
H176 C181 0.929 . S
H177 C183 0.930 . S
C178 H175 0.929 . S
C178 C179 1.398 . S
C178 C180 1.396 . S
C179 C178 1.398 . S
C179 C183 1.407 . S
C180 C178 1.396 . S
C180 C181 1.394 . S
C181 H176 0.929 . S
C181 C180 1.394 . S
C181 C182 1.382 . S
C182 C181 1.382 . S
C182 C183 1.392 . S
C182 N184 1.420 . S
C183 H177 0.930 . S
C183 C179 1.407 . S
C183 C182 1.392 . S
N184 C182 1.420 . S
N184 C185 1.244 . S
C185 N184 1.244 . S
H186 C194 0.929 . S
H187 C196 0.930 . S
H188 C198 0.930 . S
H189 C201 0.929 . S
H190 C204 0.930 . S
H191 C206 0.960 . S
H192 C206 0.960 . S
H193 C206 0.960 . S
C194 H186 0.929 . S
C194 C195 1.377 . S
C194 C196 1.384 . S
C195 C194 1.377 . S
C195 C201 1.390 . S
C196 H187 0.930 . S
C196 C194 1.384 . S
C196 C197 1.372 . S
C197 C196 1.372 . S
C197 C198 1.400 . S
C197 C202 1.490 . S
C198 H188 0.930 . S
C198 C197 1.400 . S
C198 C201 1.386 . S
H199 C215 0.930 . S
H200 C216 0.931 . S
C201 H189 0.929 . S
C201 C195 1.390 . S
C201 C198 1.386 . S
C202 C197 1.490 . S
C202 C204 1.395 . S
C202 C205 1.403 . S
H203 C209 0.930 . S
C204 H190 0.930 . S
C204 C202 1.395 . S
C204 C207 1.403 . S
C205 C202 1.403 . S
C205 C206 1.524 . S
C205 C209 1.400 . S
C206 H191 0.960 . S
C206 H192 0.960 . S
C206 H193 0.960 . S
C206 C205 1.524 . S
C207 C204 1.403 . S
C207 C208 1.392 . S
C207 C211 1.495 . S
C208 C207 1.392 . S
C208 C209 1.385 . S
C208 C210 1.478 . S
C209 H203 0.930 . S
C209 C205 1.400 . S
C209 C208 1.385 . S
C210 C208 1.478 . S
C210 C212 1.381 . S
C210 C216 1.383 . S
C211 C207 1.495 . S
C211 H217 0.959 . S
C211 H218 0.961 . S
C211 H219 0.960 . S
C212 C210 1.381 . S
C212 C213 1.394 . S
C212 H220 0.930 . S
C213 C212 1.394 . S
C213 C214 1.383 . S
C213 H221 0.929 . S
C214 C213 1.383 . S
C214 C215 1.377 . S
C215 H199 0.930 . S
C215 C214 1.377 . S
C215 C216 1.379 . S
C216 H200 0.931 . S
C216 C210 1.383 . S
C216 C215 1.379 . S
H217 C211 0.959 . S
H218 C211 0.961 . S
H219 C211 0.960 . S
H220 C212 0.930 . S
H221 C213 0.929 . S
H222 C230 0.929 . S
H223 C232 0.930 . S
H224 C234 0.930 . S
H225 C237 0.929 . S
H226 C240 0.930 . S
H227 C242 0.960 . S
H228 C242 0.960 . S
H229 C242 0.960 . S
C230 H222 0.929 . S
C230 C231 1.377 . S
C230 C232 1.384 . S
C231 C230 1.377 . S
C231 C237 1.390 . S
C232 H223 0.930 . S
C232 C230 1.384 . S
C232 C233 1.372 . S
C233 C232 1.372 . S
C233 C234 1.400 . S
C233 C238 1.490 . S
C234 H224 0.930 . S
C234 C233 1.400 . S
C234 C237 1.386 . S
H235 C251 0.930 . S
H236 C252 0.931 . S
C237 H225 0.929 . S
C237 C231 1.390 . S
C237 C234 1.386 . S
C238 C233 1.490 . S
C238 C240 1.395 . S
C238 C241 1.403 . S
H239 C245 0.930 . S
C240 H226 0.930 . S
C240 C238 1.395 . S
C240 C243 1.403 . S
C241 C238 1.403 . S
C241 C242 1.524 . S
C241 C245 1.400 . S
C242 H227 0.960 . S
C242 H228 0.960 . S
C242 H229 0.960 . S
C242 C241 1.524 . S
C243 C240 1.403 . S
C243 C244 1.392 . S
C243 C247 1.495 . S
C244 C243 1.392 . S
C244 C245 1.385 . S
C244 C246 1.478 . S
C245 H239 0.930 . S
C245 C241 1.400 . S
C245 C244 1.385 . S
C246 C244 1.478 . S
C246 C248 1.381 . S
C246 C252 1.383 . S
C247 C243 1.495 . S
C247 H253 0.959 . S
C247 H254 0.961 . S
C247 H255 0.960 . S
C248 C246 1.381 . S
C248 C249 1.394 . S
C248 H256 0.930 . S
C249 C248 1.394 . S
C249 C250 1.383 . S
C249 H257 0.929 . S
C250 C249 1.383 . S
C250 C251 1.377 . S
C251 H235 0.930 . S
C251 C250 1.377 . S
C251 C252 1.379 . S
C252 H236 0.931 . S
C252 C246 1.383 . S
C252 C251 1.379 . S
H253 C247 0.959 . S
H254 C247 0.961 . S
H255 C247 0.960 . S
H256 C248 0.930 . S
H257 C249 0.929 . S
H258 C266 0.929 . S
H259 C268 0.930 . S
H260 C270 0.930 . S
H261 C273 0.929 . S
H262 C276 0.930 . S
H263 C278 0.960 . S
H264 C278 0.960 . S
H265 C278 0.960 . S
C266 H258 0.929 . S
C266 C267 1.377 . S
C266 C268 1.384 . S
C267 C266 1.377 . S
C267 C273 1.390 . S
C268 H259 0.930 . S
C268 C266 1.384 . S
C268 C269 1.372 . S
C269 C268 1.372 . S
C269 C270 1.400 . S
C269 C274 1.490 . S
C270 H260 0.930 . S
C270 C269 1.400 . S
C270 C273 1.386 . S
H271 C287 0.930 . S
H272 C288 0.931 . S
C273 H261 0.929 . S
C273 C267 1.390 . S
C273 C270 1.386 . S
C274 C269 1.490 . S
C274 C276 1.395 . S
C274 C277 1.403 . S
H275 C281 0.930 . S
C276 H262 0.930 . S
C276 C274 1.395 . S
C276 C279 1.403 . S
C277 C274 1.403 . S
C277 C278 1.524 . S
C277 C281 1.400 . S
C278 H263 0.960 . S
C278 H264 0.960 . S
C278 H265 0.960 . S
C278 C277 1.524 . S
C279 C276 1.403 . S
C279 C280 1.392 . S
C279 C283 1.495 . S
C280 C279 1.392 . S
C280 C281 1.385 . S
C280 C282 1.478 . S
C281 H275 0.930 . S
C281 C277 1.400 . S
C281 C280 1.385 . S
C282 C280 1.478 . S
C282 C284 1.381 . S
C282 C288 1.383 . S
C283 C279 1.495 . S
C283 H289 0.959 . S
C283 H290 0.961 . S
C283 H291 0.960 . S
C284 C282 1.381 . S
C284 C285 1.394 . S
C284 H292 0.930 . S
C285 C284 1.394 . S
C285 C286 1.383 . S
C285 H293 0.929 . S
C286 C285 1.383 . S
C286 C287 1.377 . S
C287 H271 0.930 . S
C287 C286 1.377 . S
C287 C288 1.379 . S
C288 H272 0.931 . S
C288 C282 1.383 . S
C288 C287 1.379 . S
H289 C283 0.959 . S
H290 C283 0.961 . S
H291 C283 0.960 . S
H292 C284 0.930 . S
H293 C285 0.929 . S
H294 C302 0.929 . S
H295 C304 0.930 . S
H296 C306 0.930 . S
H297 C309 0.929 . S
H298 C312 0.930 . S
H299 C314 0.960 . S
H300 C314 0.960 . S
H301 C314 0.960 . S
C302 H294 0.929 . S
C302 C303 1.377 . S
C302 C304 1.384 . S
C303 C302 1.377 . S
C303 C309 1.390 . S
C304 H295 0.930 . S
C304 C302 1.384 . S
C304 C305 1.372 . S
C305 C304 1.372 . S
C305 C306 1.400 . S
C305 C310 1.490 . S
C306 H296 0.930 . S
C306 C305 1.400 . S
C306 C309 1.386 . S
H307 C323 0.930 . S
H308 C324 0.931 . S
C309 H297 0.929 . S
C309 C303 1.390 . S
C309 C306 1.386 . S
C310 C305 1.490 . S
C310 C312 1.395 . S
C310 C313 1.403 . S
H311 C317 0.930 . S
C312 H298 0.930 . S
C312 C310 1.395 . S
C312 C315 1.403 . S
C313 C310 1.403 . S
C313 C314 1.524 . S
C313 C317 1.400 . S
C314 H299 0.960 . S
C314 H300 0.960 . S
C314 H301 0.960 . S
C314 C313 1.524 . S
C315 C312 1.403 . S
C315 C316 1.392 . S
C315 C319 1.495 . S
C316 C315 1.392 . S
C316 C317 1.385 . S
C316 C318 1.478 . S
C317 H311 0.930 . S
C317 C313 1.400 . S
C317 C316 1.385 . S
C318 C316 1.478 . S
C318 C320 1.381 . S
C318 C324 1.383 . S
C319 C315 1.495 . S
C319 H325 0.959 . S
C319 H326 0.961 . S
C319 H327 0.960 . S
C320 C318 1.381 . S
C320 C321 1.394 . S
C320 H328 0.930 . S
C321 C320 1.394 . S
C321 C322 1.383 . S
C321 H329 0.929 . S
C322 C321 1.383 . S
C322 C323 1.377 . S
C323 H307 0.930 . S
C323 C322 1.377 . S
C323 C324 1.379 . S
C324 H308 0.931 . S
C324 C318 1.383 . S
C324 C323 1.379 . S
H325 C319 0.959 . S
H326 C319 0.961 . S
H327 C319 0.960 . S
H328 C320 0.930 . S
H329 C321 0.929 . S
H330 C338 0.929 . S
H331 C340 0.930 . S
H332 C342 0.930 . S
H333 C345 0.929 . S
H334 C348 0.930 . S
H335 C350 0.960 . S
H336 C350 0.960 . S
H337 C350 0.960 . S
C338 H330 0.929 . S
C338 C339 1.377 . S
C338 C340 1.384 . S
C339 C338 1.377 . S
C339 C345 1.390 . S
C340 H331 0.930 . S
C340 C338 1.384 . S
C340 C341 1.372 . S
C341 C340 1.372 . S
C341 C342 1.400 . S
C341 C346 1.490 . S
C342 H332 0.930 . S
C342 C341 1.400 . S
C342 C345 1.386 . S
H343 C359 0.930 . S
H344 C360 0.931 . S
C345 H333 0.929 . S
C345 C339 1.390 . S
C345 C342 1.386 . S
C346 C341 1.490 . S
C346 C348 1.395 . S
C346 C349 1.403 . S
H347 C353 0.930 . S
C348 H334 0.930 . S
C348 C346 1.395 . S
C348 C351 1.403 . S
C349 C346 1.403 . S
C349 C350 1.524 . S
C349 C353 1.400 . S
C350 H335 0.960 . S
C350 H336 0.960 . S
C350 H337 0.960 . S
C350 C349 1.524 . S
C351 C348 1.403 . S
C351 C352 1.392 . S
C351 C355 1.495 . S
C352 C351 1.392 . S
C352 C353 1.385 . S
C352 C354 1.478 . S
C353 H347 0.930 . S
C353 C349 1.400 . S
C353 C352 1.385 . S
C354 C352 1.478 . S
C354 C356 1.381 . S
C354 C360 1.383 . S
C355 C351 1.495 . S
C355 H361 0.959 . S
C355 H362 0.961 . S
C355 H363 0.960 . S
C356 C354 1.381 . S
C356 C357 1.394 . S
C356 H364 0.930 . S
C357 C356 1.394 . S
C357 C358 1.383 . S
C357 H365 0.929 . S
C358 C357 1.383 . S
C358 C359 1.377 . S
C359 H343 0.930 . S
C359 C358 1.377 . S
C359 C360 1.379 . S
C360 H344 0.931 . S
C360 C354 1.383 . S
C360 C359 1.379 . S
H361 C355 0.959 . S
H362 C355 0.961 . S
H363 C355 0.960 . S
H364 C356 0.930 . S
H365 C357 0.929 . S
H366 C374 0.929 . S
H367 C376 0.930 . S
H368 C378 0.930 . S
H369 C381 0.929 . S
H370 C384 0.930 . S
H371 C386 0.960 . S
H372 C386 0.960 . S
H373 C386 0.960 . S
C374 H366 0.929 . S
C374 C375 1.377 . S
C374 C376 1.384 . S
C375 C374 1.377 . S
C375 C381 1.390 . S
C376 H367 0.930 . S
C376 C374 1.384 . S
C376 C377 1.372 . S
C377 C376 1.372 . S
C377 C378 1.400 . S
C377 C382 1.490 . S
C378 H368 0.930 . S
C378 C377 1.400 . S
C378 C381 1.386 . S
H379 C395 0.930 . S
H380 C396 0.931 . S
C381 H369 0.929 . S
C381 C375 1.390 . S
C381 C378 1.386 . S
C382 C377 1.490 . S
C382 C384 1.395 . S
C382 C385 1.403 . S
H383 C389 0.930 . S
C384 H370 0.930 . S
C384 C382 1.395 . S
C384 C387 1.403 . S
C385 C382 1.403 . S
C385 C386 1.524 . S
C385 C389 1.400 . S
C386 H371 0.960 . S
C386 H372 0.960 . S
C386 H373 0.960 . S
C386 C385 1.524 . S
C387 C384 1.403 . S
C387 C388 1.392 . S
C387 C391 1.495 . S
C388 C387 1.392 . S
C388 C389 1.385 . S
C388 C390 1.478 . S
C389 H383 0.930 . S
C389 C385 1.400 . S
C389 C388 1.385 . S
C390 C388 1.478 . S
C390 C392 1.381 . S
C390 C396 1.383 . S
C391 C387 1.495 . S
C391 H397 0.959 . S
C391 H398 0.961 . S
C391 H399 0.960 . S
C392 C390 1.381 . S
C392 C393 1.394 . S
C392 H400 0.930 . S
C393 C392 1.394 . S
C393 C394 1.383 . S
C393 H401 0.929 . S
C394 C393 1.383 . S
C394 C395 1.377 . S
C395 H379 0.930 . S
C395 C394 1.377 . S
C395 C396 1.379 . S
C396 H380 0.931 . S
C396 C390 1.383 . S
C396 C395 1.379 . S
H397 C391 0.959 . S
H398 C391 0.961 . S
H399 C391 0.960 . S
H400 C392 0.930 . S
H401 C393 0.929 . S
H402 C410 0.929 . S
H403 C412 0.930 . S
H404 C414 0.930 . S
H405 C417 0.929 . S
H406 C420 0.930 . S
H407 C422 0.960 . S
H408 C422 0.960 . S
H409 C422 0.960 . S
C410 H402 0.929 . S
C410 C411 1.377 . S
C410 C412 1.384 . S
C411 C410 1.377 . S
C411 C417 1.390 . S
C412 H403 0.930 . S
C412 C410 1.384 . S
C412 C413 1.372 . S
C413 C412 1.372 . S
C413 C414 1.400 . S
C413 C418 1.490 . S
C414 H404 0.930 . S
C414 C413 1.400 . S
C414 C417 1.386 . S
H415 C431 0.930 . S
H416 C432 0.931 . S
C417 H405 0.929 . S
C417 C411 1.390 . S
C417 C414 1.386 . S
C418 C413 1.490 . S
C418 C420 1.395 . S
C418 C421 1.403 . S
H419 C425 0.930 . S
C420 H406 0.930 . S
C420 C418 1.395 . S
C420 C423 1.403 . S
C421 C418 1.403 . S
C421 C422 1.524 . S
C421 C425 1.400 . S
C422 H407 0.960 . S
C422 H408 0.960 . S
C422 H409 0.960 . S
C422 C421 1.524 . S
C423 C420 1.403 . S
C423 C424 1.392 . S
C423 C427 1.495 . S
C424 C423 1.392 . S
C424 C425 1.385 . S
C424 C426 1.478 . S
C425 H419 0.930 . S
C425 C421 1.400 . S
C425 C424 1.385 . S
C426 C424 1.478 . S
C426 C428 1.381 . S
C426 C432 1.383 . S
C427 C423 1.495 . S
C427 H433 0.959 . S
C427 H434 0.961 . S
C427 H435 0.960 . S
C428 C426 1.381 . S
C428 C429 1.394 . S
C428 H436 0.930 . S
C429 C428 1.394 . S
C429 C430 1.383 . S
C429 H437 0.929 . S
C430 C429 1.383 . S
C430 C431 1.377 . S
C431 H415 0.930 . S
C431 C430 1.377 . S
C431 C432 1.379 . S
C432 H416 0.931 . S
C432 C426 1.383 . S
C432 C431 1.379 . S
H433 C427 0.959 . S
H434 C427 0.961 . S
H435 C427 0.960 . S
H436 C428 0.930 . S
H437 C429 0.929 . S
H438 C446 0.929 . S
H439 C448 0.930 . S
H440 C450 0.930 . S
H441 C453 0.929 . S
H442 C456 0.930 . S
H443 C458 0.960 . S
H444 C458 0.960 . S
H445 C458 0.960 . S
C446 H438 0.929 . S
C446 C447 1.377 . S
C446 C448 1.384 . S
C447 C446 1.377 . S
C447 C453 1.390 . S
C448 H439 0.930 . S
C448 C446 1.384 . S
C448 C449 1.372 . S
C449 C448 1.372 . S
C449 C450 1.400 . S
C449 C454 1.490 . S
C450 H440 0.930 . S
C450 C449 1.400 . S
C450 C453 1.386 . S
H451 C467 0.930 . S
H452 C468 0.931 . S
C453 H441 0.929 . S
C453 C447 1.390 . S
C453 C450 1.386 . S
C454 C449 1.490 . S
C454 C456 1.395 . S
C454 C457 1.403 . S
H455 C461 0.930 . S
C456 H442 0.930 . S
C456 C454 1.395 . S
C456 C459 1.403 . S
C457 C454 1.403 . S
C457 C458 1.524 . S
C457 C461 1.400 . S
C458 H443 0.960 . S
C458 H444 0.960 . S
C458 H445 0.960 . S
C458 C457 1.524 . S
C459 C456 1.403 . S
C459 C460 1.392 . S
C459 C463 1.495 . S
C460 C459 1.392 . S
C460 C461 1.385 . S
C460 C462 1.478 . S
C461 H455 0.930 . S
C461 C457 1.400 . S
C461 C460 1.385 . S
C462 C460 1.478 . S
C462 C464 1.381 . S
C462 C468 1.383 . S
C463 C459 1.495 . S
C463 H469 0.959 . S
C463 H470 0.961 . S
C463 H471 0.960 . S
C464 C462 1.381 . S
C464 C465 1.394 . S
C464 H472 0.930 . S
C465 C464 1.394 . S
C465 C466 1.402 . S
C465 H473 0.929 . S
C466 C465 1.402 . S
C466 C467 1.390 . S
C467 H451 0.930 . S
C467 C466 1.390 . S
C467 C468 1.379 . S
C468 H452 0.931 . S
C468 C462 1.383 . S
C468 C467 1.379 . S
H469 C463 0.959 . S
H470 C463 0.961 . S
H471 C463 0.960 . S
H472 C464 0.930 . S
H473 C465 0.929 . S
H474 C482 0.929 . S
H475 C484 0.930 . S
H476 C486 0.930 . S
H477 C489 0.929 . S
H478 C492 0.930 . S
H479 C494 0.960 . S
H480 C494 0.960 . S
H481 C494 0.960 . S
C482 H474 0.929 . S
C482 C483 1.377 . S
C482 C484 1.384 . S
C483 C482 1.377 . S
C483 C489 1.390 . S
C484 H475 0.930 . S
C484 C482 1.384 . S
C484 C485 1.372 . S
C485 C484 1.372 . S
C485 C486 1.400 . S
C485 C490 1.490 . S
C486 H476 0.930 . S
C486 C485 1.400 . S
C486 C489 1.386 . S
H487 C503 0.930 . S
H488 C504 0.931 . S
C489 H477 0.929 . S
C489 C483 1.390 . S
C489 C486 1.386 . S
C490 C485 1.490 . S
C490 C492 1.395 . S
C490 C493 1.403 . S
H491 C497 0.930 . S
C492 H478 0.930 . S
C492 C490 1.395 . S
C492 C495 1.403 . S
C493 C490 1.403 . S
C493 C494 1.524 . S
C493 C497 1.400 . S
C494 H479 0.960 . S
C494 H480 0.960 . S
C494 H481 0.960 . S
C494 C493 1.524 . S
C495 C492 1.403 . S
C495 C496 1.392 . S
C495 C499 1.495 . S
C496 C495 1.392 . S
C496 C497 1.385 . S
C496 C498 1.478 . S
C497 H491 0.930 . S
C497 C493 1.400 . S
C497 C496 1.385 . S
C498 C496 1.478 . S
C498 C500 1.381 . S
C498 C504 1.383 . S
C499 C495 1.495 . S
C499 H505 0.959 . S
C499 H506 0.961 1_565 S
C499 H507 0.960 . S
C500 C498 1.381 . S
C500 C501 1.394 1_565 S
C500 H508 0.930 . S
C501 C500 1.394 1_545 S
C501 C502 1.383 . S
C501 H509 0.929 . S
C502 C501 1.383 . S
C502 C503 1.377 . S
C503 H487 0.930 . S
C503 C502 1.377 . S
C503 C504 1.379 1_545 S
C504 H488 0.931 . S
C504 C498 1.383 . S
C504 C503 1.379 1_565 S
H505 C499 0.959 . S
H506 C499 0.961 1_545 S
H507 C499 0.960 . S
H508 C500 0.930 . S
H509 C501 0.929 . S
H510 C518 0.929 . S
H511 C520 0.930 . S
H512 C522 0.930 . S
H513 C525 0.929 . S
H514 C528 0.930 . S
H515 C530 0.960 . S
H516 C530 0.960 . S
H517 C530 0.960 . S
C518 H510 0.929 . S
C518 C519 1.377 . S
C518 C520 1.384 . S
C519 C518 1.377 . S
C519 C525 1.390 . S
C520 H511 0.930 . S
C520 C518 1.384 . S
C520 C521 1.372 . S
C521 C520 1.372 . S
C521 C522 1.400 . S
C521 C526 1.490 . S
C522 H512 0.930 . S
C522 C521 1.400 . S
C522 C525 1.386 . S
H523 C539 0.930 . S
H524 C540 0.931 . S
C525 H513 0.929 . S
C525 C519 1.390 . S
C525 C522 1.386 . S
C526 C521 1.490 . S
C526 C528 1.395 . S
C526 C529 1.403 . S
H527 C533 0.930 . S
C528 H514 0.930 . S
C528 C526 1.395 . S
C528 C531 1.403 . S
C529 C526 1.403 . S
C529 C530 1.524 . S
C529 C533 1.400 . S
C530 H515 0.960 . S
C530 H516 0.960 . S
C530 H517 0.960 . S
C530 C529 1.524 . S
C531 C528 1.403 . S
C531 C532 1.392 . S
C531 C535 1.495 . S
C532 C531 1.392 . S
C532 C533 1.385 . S
C532 C534 1.478 . S
C533 H527 0.930 . S
C533 C529 1.400 . S
C533 C532 1.385 . S
C534 C532 1.478 . S
C534 C536 1.381 . S
C534 C540 1.383 . S
C535 C531 1.495 . S
C535 H541 0.959 . S
C535 H542 0.961 . S
C535 H543 0.960 . S
C536 C534 1.381 . S
C536 C537 1.394 . S
C536 H544 0.930 . S
C537 C536 1.394 . S
C537 C538 1.383 . S
C537 H545 0.929 . S
C538 C537 1.383 . S
C538 C539 1.377 . S
C539 H523 0.930 . S
C539 C538 1.377 . S
C539 C540 1.379 . S
C540 H524 0.931 . S
C540 C534 1.383 . S
C540 C539 1.379 . S
H541 C535 0.959 . S
H542 C535 0.961 . S
H543 C535 0.960 . S
H544 C536 0.930 . S
H545 C537 0.929 . S
H546 C554 0.929 . S
H547 C556 0.930 . S
H548 C558 0.930 . S
H549 C561 0.929 . S
H550 C564 0.930 . S
H551 C566 0.960 . S
H552 C566 0.960 . S
H553 C566 0.960 . S
C554 H546 0.929 . S
C554 C555 1.377 . S
C554 C556 1.384 . S
C555 C554 1.377 . S
C555 C561 1.390 . S
C556 H547 0.930 . S
C556 C554 1.384 . S
C556 C557 1.372 . S
C557 C556 1.372 . S
C557 C558 1.400 . S
C557 C562 1.490 . S
C558 H548 0.930 . S
C558 C557 1.400 . S
C558 C561 1.386 . S
H559 C575 0.930 . S
H560 C576 0.931 . S
C561 H549 0.929 . S
C561 C555 1.390 . S
C561 C558 1.386 . S
C562 C557 1.490 . S
C562 C564 1.395 . S
C562 C565 1.403 . S
H563 C569 0.930 . S
C564 H550 0.930 . S
C564 C562 1.395 . S
C564 C567 1.403 . S
C565 C562 1.403 . S
C565 C566 1.524 . S
C565 C569 1.400 . S
C566 H551 0.960 . S
C566 H552 0.960 . S
C566 H553 0.960 . S
C566 C565 1.524 . S
C567 C564 1.403 . S
C567 C568 1.392 . S
C567 C571 1.495 . S
C568 C567 1.392 . S
C568 C569 1.385 . S
C568 C570 1.478 . S
C569 H563 0.930 . S
C569 C565 1.400 . S
C569 C568 1.385 . S
C570 C568 1.478 . S
C570 C572 1.381 . S
C570 C576 1.383 . S
C571 C567 1.495 . S
C571 H577 0.959 . S
C571 H578 0.961 . S
C571 H579 0.960 . S
C572 C570 1.381 . S
C572 C573 1.394 . S
C572 H580 0.930 . S
C573 C572 1.394 . S
C573 C574 1.383 . S
C573 H581 0.929 . S
C574 C573 1.383 . S
C574 C575 1.377 . S
C575 H559 0.930 . S
C575 C574 1.377 . S
C575 C576 1.379 . S
C576 H560 0.931 . S
C576 C570 1.383 . S
C576 C575 1.379 . S
H577 C571 0.959 . S
H578 C571 0.961 . S
H579 C571 0.960 . S
H580 C572 0.930 . S
H581 C573 0.929 . S
H582 C590 0.929 . S
H583 C592 0.930 . S
H584 C594 0.930 . S
H585 C597 0.929 . S
H586 C600 0.930 . S
H587 C602 0.960 . S
H588 C602 0.960 . S
H589 C602 0.960 . S
C590 H582 0.929 . S
C590 C591 1.377 . S
C590 C592 1.384 . S
C591 C590 1.377 . S
C591 C597 1.390 . S
C592 H583 0.930 . S
C592 C590 1.384 . S
C592 C593 1.372 . S
C593 C592 1.372 . S
C593 C594 1.400 . S
C593 C598 1.490 . S
C594 H584 0.930 . S
C594 C593 1.400 . S
C594 C597 1.386 . S
H595 C611 0.930 . S
H596 C612 0.931 . S
C597 H585 0.929 . S
C597 C591 1.390 . S
C597 C594 1.386 . S
C598 C593 1.490 . S
C598 C600 1.395 . S
C598 C601 1.403 . S
H599 C605 0.930 . S
C600 H586 0.930 . S
C600 C598 1.395 . S
C600 C603 1.403 . S
C601 C598 1.403 . S
C601 C602 1.524 . S
C601 C605 1.400 . S
C602 H587 0.960 . S
C602 H588 0.960 . S
C602 H589 0.960 . S
C602 C601 1.524 . S
C603 C600 1.403 . S
C603 C604 1.392 . S
C603 C607 1.495 . S
C604 C603 1.392 . S
C604 C605 1.385 . S
C604 C606 1.478 . S
C605 H599 0.930 . S
C605 C601 1.400 . S
C605 C604 1.385 . S
C606 C604 1.478 . S
C606 C608 1.381 . S
C606 C612 1.383 . S
C607 C603 1.495 . S
C607 H613 0.959 . S
C607 H614 0.961 . S
C607 H615 0.960 . S
C608 C606 1.381 . S
C608 C609 1.394 . S
C608 H616 0.930 . S
C609 C608 1.394 . S
C609 C610 1.383 . S
C609 H617 0.929 . S
C610 C609 1.383 . S
C610 C611 1.377 . S
C611 H595 0.930 . S
C611 C610 1.377 . S
C611 C612 1.379 . S
C612 H596 0.931 . S
C612 C606 1.383 . S
C612 C611 1.379 . S
H613 C607 0.959 . S
H614 C607 0.961 . S
H615 C607 0.960 . S
H616 C608 0.930 . S
H617 C609 0.929 . S
H618 C626 0.929 . S
H619 C628 0.930 . S
H620 C630 0.930 . S
H621 C633 0.929 . S
H622 C636 0.930 1_655 S
H623 C638 0.960 . S
H624 C638 0.960 . S
H625 C638 0.960 . S
C626 H618 0.929 . S
C626 C627 1.377 1_655 S
C626 C628 1.384 . S
C627 C626 1.377 1_455 S
C627 C633 1.390 . S
C628 H619 0.930 . S
C628 C626 1.384 . S
C628 C629 1.372 1_655 S
C629 C628 1.372 1_455 S
C629 C630 1.400 . S
C629 C634 1.490 . S
C630 H620 0.930 . S
C630 C629 1.400 . S
C630 C633 1.386 . S
H631 C647 0.930 . S
H632 C648 0.931 . S
C633 H621 0.929 . S
C633 C627 1.390 . S
C633 C630 1.386 . S
C634 C629 1.490 . S
C634 C636 1.395 . S
C634 C637 1.403 . S
H635 C641 0.930 . S
C636 H622 0.930 1_455 S
C636 C634 1.395 . S
C636 C639 1.403 . S
C637 C634 1.403 . S
C637 C638 1.524 . S
C637 C641 1.400 . S
C638 H623 0.960 . S
C638 H624 0.960 . S
C638 H625 0.960 . S
C638 C637 1.524 . S
C639 C636 1.403 . S
C639 C640 1.392 1_554 S
C639 C643 1.495 1_454 S
C640 C639 1.392 1_556 S
C640 C641 1.385 1_556 S
C640 C642 1.478 . S
C641 H635 0.930 . S
C641 C637 1.400 . S
C641 C640 1.385 1_554 S
C642 C640 1.478 . S
C642 C644 1.381 . S
C642 C648 1.383 . S
C643 C639 1.495 1_656 S
C643 H649 0.959 . S
C643 H650 0.961 1_655 S
C643 H651 0.960 . S
C644 C642 1.381 . S
C644 C645 1.394 . S
C644 H652 0.930 1_455 S
C645 C644 1.394 . S
C645 C646 1.383 . S
C645 H653 0.929 1_455 S
C646 C645 1.383 . S
C646 C647 1.377 . S
C647 H631 0.930 . S
C647 C646 1.377 . S
C647 C648 1.379 . S
C648 H632 0.931 . S
C648 C642 1.383 . S
C648 C647 1.379 . S
H649 C643 0.959 . S
H650 C643 0.961 1_455 S
H651 C643 0.960 . S
H652 C644 0.930 1_655 S
H653 C645 0.929 1_655 S
H654 C662 0.929 . S
H655 C664 0.930 . S
H656 C666 0.930 . S
H657 C669 0.929 . S
H658 C672 0.930 . S
H659 C674 0.960 . S
H660 C674 0.960 . S
H661 C674 0.960 . S
C662 H654 0.929 . S
C662 C663 1.377 . S
C662 C664 1.384 . S
C663 C662 1.377 . S
C663 C669 1.390 . S
C664 H655 0.930 . S
C664 C662 1.384 . S
C664 C665 1.372 . S
C665 C664 1.372 . S
C665 C666 1.400 . S
C665 C670 1.490 . S
C666 H656 0.930 . S
C666 C665 1.400 . S
C666 C669 1.386 . S
H667 C683 0.930 . S
H668 C684 0.931 . S
C669 H657 0.929 . S
C669 C663 1.390 . S
C669 C666 1.386 . S
C670 C665 1.490 . S
C670 C672 1.395 . S
C670 C673 1.403 . S
H671 C677 0.930 . S
C672 H658 0.930 . S
C672 C670 1.395 . S
C672 C675 1.403 . S
C673 C670 1.403 . S
C673 C674 1.524 . S
C673 C677 1.400 . S
C674 H659 0.960 . S
C674 H660 0.960 . S
C674 H661 0.960 . S
C674 C673 1.524 . S
C675 C672 1.403 . S
C675 C676 1.392 . S
C675 C679 1.495 . S
C676 C675 1.392 . S
C676 C677 1.385 . S
C676 C678 1.478 . S
C677 H671 0.930 . S
C677 C673 1.400 . S
C677 C676 1.385 . S
C678 C676 1.478 . S
C678 C680 1.381 . S
C678 C684 1.383 . S
C679 C675 1.495 . S
C679 H685 0.959 . S
C679 H686 0.961 . S
C679 H687 0.960 . S
C680 C678 1.381 . S
C680 C681 1.394 . S
C680 H688 0.930 . S
C681 C680 1.394 . S
C681 C682 1.383 . S
C681 H689 0.929 . S
C682 C681 1.383 . S
C682 C683 1.377 . S
C683 H667 0.930 . S
C683 C682 1.377 . S
C683 C684 1.379 . S
C684 H668 0.931 . S
C684 C678 1.383 . S
C684 C683 1.379 . S
H685 C679 0.959 . S
H686 C679 0.961 . S
H687 C679 0.960 . S
H688 C680 0.930 . S
H689 C681 0.929 . S
H690 C698 0.929 . S
H691 C700 0.930 . S
H692 C702 0.930 . S
H693 C705 0.929 . S
H694 C708 0.930 . S
H695 C710 0.960 . S
H696 C710 0.960 . S
H697 C710 0.960 . S
C698 H690 0.929 . S
C698 C699 1.377 . S
C698 C700 1.384 . S
C699 C698 1.377 . S
C699 C705 1.390 . S
C700 H691 0.930 . S
C700 C698 1.384 . S
C700 C701 1.372 . S
C701 C700 1.372 . S
C701 C702 1.400 . S
C701 C706 1.490 . S
C702 H692 0.930 . S
C702 C701 1.400 . S
C702 C705 1.386 . S
H703 C719 0.930 . S
H704 C720 0.931 . S
C705 H693 0.929 . S
C705 C699 1.390 . S
C705 C702 1.386 . S
C706 C701 1.490 . S
C706 C708 1.395 . S
C706 C709 1.403 . S
H707 C713 0.930 . S
C708 H694 0.930 . S
C708 C706 1.395 . S
C708 C711 1.403 . S
C709 C706 1.403 . S
C709 C710 1.524 . S
C709 C713 1.400 . S
C710 H695 0.960 . S
C710 H696 0.960 . S
C710 H697 0.960 . S
C710 C709 1.524 . S
C711 C708 1.403 . S
C711 C712 1.392 . S
C711 C715 1.495 . S
C712 C711 1.392 . S
C712 C713 1.385 . S
C712 C714 1.478 . S
C713 H707 0.930 . S
C713 C709 1.400 . S
C713 C712 1.385 . S
C714 C712 1.478 . S
C714 C716 1.381 . S
C714 C720 1.383 . S
C715 C711 1.495 . S
C715 H721 0.959 . S
C715 H722 0.961 . S
C715 H723 0.960 . S
C716 C714 1.381 . S
C716 C717 1.394 . S
C716 H724 0.930 . S
C717 C716 1.394 . S
C717 C718 1.383 . S
C717 H725 0.929 . S
C718 C717 1.383 . S
C718 C719 1.377 . S
C719 H703 0.930 . S
C719 C718 1.377 . S
C719 C720 1.379 . S
C720 H704 0.931 . S
C720 C714 1.383 . S
C720 C719 1.379 . S
H721 C715 0.959 . S
H722 C715 0.961 . S
H723 C715 0.960 . S
H724 C716 0.930 . S
H725 C717 0.929 . S
H726 C734 0.929 . S
H727 C736 0.930 . S
H728 C738 0.930 . S
H729 C741 0.929 . S
H730 C744 0.930 . S
H731 C746 0.960 . S
H732 C746 0.960 . S
H733 C746 0.960 . S
C734 H726 0.929 . S
C734 C735 1.377 . S
C734 C736 1.384 . S
C735 C734 1.377 . S
C735 C741 1.390 . S
C736 H727 0.930 . S
C736 C734 1.384 . S
C736 C737 1.372 . S
C737 C736 1.372 . S
C737 C738 1.400 . S
C737 C742 1.490 . S
C738 H728 0.930 . S
C738 C737 1.400 . S
C738 C741 1.386 . S
H739 C755 0.930 . S
H740 C756 0.931 . S
C741 H729 0.929 . S
C741 C735 1.390 . S
C741 C738 1.386 . S
C742 C737 1.490 . S
C742 C744 1.395 . S
C742 C745 1.403 . S
H743 C749 0.930 1_565 S
C744 H730 0.930 . S
C744 C742 1.395 . S
C744 C747 1.403 . S
C745 C742 1.403 . S
C745 C746 1.524 1_545 S
C745 C749 1.400 . S
C746 H731 0.960 . S
C746 H732 0.960 . S
C746 H733 0.960 . S
C746 C745 1.524 1_565 S
C747 C744 1.403 . S
C747 C748 1.392 . S
C747 C751 1.495 . S
C748 C747 1.392 . S
C748 C749 1.385 . S
C748 C750 1.478 . S
C749 H743 0.930 1_545 S
C749 C745 1.400 . S
C749 C748 1.385 . S
C750 C748 1.478 . S
C750 C752 1.381 . S
C750 C756 1.383 . S
C751 C747 1.495 . S
C751 H757 0.959 . S
C751 H758 0.961 . S
C751 H759 0.960 . S
C752 C750 1.381 . S
C752 C753 1.394 . S
C752 H760 0.930 . S
C753 C752 1.394 . S
C753 C754 1.383 . S
C753 H761 0.929 . S
C754 C753 1.383 . S
C754 C755 1.377 . S
C755 H739 0.930 . S
C755 C754 1.377 . S
C755 C756 1.379 . S
C756 H740 0.931 . S
C756 C750 1.383 . S
C756 C755 1.379 . S
H757 C751 0.959 . S
H758 C751 0.961 . S
H759 C751 0.960 . S
H760 C752 0.930 . S
H761 C753 0.929 . S
H762 C770 0.929 . S
H763 C772 0.930 . S
H764 C774 0.930 . S
H765 C777 0.929 . S
H766 C780 0.930 . S
H767 C782 0.960 . S
H768 C782 0.960 . S
H769 C782 0.960 . S
C770 H762 0.929 . S
C770 C771 1.377 . S
C770 C772 1.384 . S
C771 C770 1.377 . S
C771 C777 1.390 . S
C772 H763 0.930 . S
C772 C770 1.384 . S
C772 C773 1.372 . S
C773 C772 1.372 . S
C773 C774 1.400 . S
C773 C778 1.490 . S
C774 H764 0.930 . S
C774 C773 1.400 . S
C774 C777 1.386 . S
H775 C791 0.930 . S
H776 C792 0.931 . S
C777 H765 0.929 . S
C777 C771 1.390 . S
C777 C774 1.386 . S
C778 C773 1.490 . S
C778 C780 1.395 . S
C778 C781 1.403 . S
H779 C785 0.930 . S
C780 H766 0.930 . S
C780 C778 1.395 . S
C780 C783 1.403 . S
C781 C778 1.403 . S
C781 C782 1.524 . S
C781 C785 1.400 . S
C782 H767 0.960 . S
C782 H768 0.960 . S
C782 H769 0.960 . S
C782 C781 1.524 . S
C783 C780 1.403 . S
C783 C784 1.392 1_556 S
C783 C787 1.495 1_556 S
C784 C783 1.392 1_554 S
C784 C785 1.385 1_554 S
C784 C786 1.478 . S
C785 H779 0.930 . S
C785 C781 1.400 . S
C785 C784 1.385 1_556 S
C786 C784 1.478 . S
C786 C788 1.381 . S
C786 C792 1.383 . S
C787 C783 1.495 1_554 S
C787 H793 0.959 . S
C787 H794 0.961 . S
C787 H795 0.960 . S
C788 C786 1.381 . S
C788 C789 1.394 . S
C788 H796 0.930 . S
C789 C788 1.394 . S
C789 C790 1.383 . S
C789 H797 0.929 . S
C790 C789 1.383 . S
C790 C791 1.377 . S
C791 H775 0.930 . S
C791 C790 1.377 . S
C791 C792 1.379 . S
C792 H776 0.931 . S
C792 C786 1.383 . S
C792 C791 1.379 . S
H793 C787 0.959 . S
H794 C787 0.961 . S
H795 C787 0.960 . S
H796 C788 0.930 . S
H797 C789 0.929 . S
H798 C806 0.929 1_655 S
H799 C808 0.930 1_655 S
H800 C810 0.930 . S
H801 C813 0.929 . S
H802 C816 0.930 . S
H803 C818 0.960 . S
H804 C818 0.960 . S
H805 C818 0.960 1_455 S
C806 H798 0.929 1_455 S
C806 C807 1.377 . S
C806 C808 1.384 . S
C807 C806 1.377 . S
C807 C813 1.390 . S
C808 H799 0.930 1_455 S
C808 C806 1.384 . S
C808 C809 1.372 . S
C809 C808 1.372 . S
C809 C810 1.400 . S
C809 C814 1.490 . S
C810 H800 0.930 . S
C810 C809 1.400 . S
C810 C813 1.386 . S
H811 C827 0.930 . S
H812 C828 0.931 . S
C813 H801 0.929 . S
C813 C807 1.390 . S
C813 C810 1.386 . S
C814 C809 1.490 . S
C814 C816 1.395 . S
C814 C817 1.403 . S
H815 C821 0.930 . S
C816 H802 0.930 . S
C816 C814 1.395 . S
C816 C819 1.403 . S
C817 C814 1.403 . S
C817 C818 1.524 1_455 S
C817 C821 1.400 . S
C818 H803 0.960 . S
C818 H804 0.960 . S
C818 H805 0.960 1_655 S
C818 C817 1.524 1_655 S
C819 C816 1.403 . S
C819 C820 1.392 . S
C819 C823 1.495 . S
C820 C819 1.392 . S
C820 C821 1.385 . S
C820 C822 1.478 . S
C821 H815 0.930 . S
C821 C817 1.400 . S
C821 C820 1.385 . S
C822 C820 1.478 . S
C822 C824 1.381 . S
C822 C828 1.383 . S
C823 C819 1.495 . S
C823 H829 0.959 . S
C823 H830 0.961 . S
C823 H831 0.960 . S
C824 C822 1.381 . S
C824 C825 1.399 . S
C824 H832 0.930 1_455 S
C825 C824 1.399 . S
C825 C826 1.391 . S
C825 H833 0.918 1_455 S
C826 C825 1.391 . S
C826 C827 1.377 . S
C827 H811 0.930 . S
C827 C826 1.377 . S
C827 C828 1.379 . S
C828 H812 0.931 . S
C828 C822 1.383 . S
C828 C827 1.379 . S
H829 C823 0.959 . S
H830 C823 0.961 . S
H831 C823 0.960 . S
H832 C824 0.930 1_655 S
H833 C825 0.918 1_655 S
C195 C24 2.995 . S
C214 C185 2.943 . S
C231 C66 1.134 . S
C250 C163 1.130 . S
C267 C93 1.775 . S
C286 C174 1.731 . S
C303 C13 2.923 . S
C322 C179 2.885 . S
C358 C157 1.026 . S
C339 C57 1.051 . S
C394 C168 1.798 . S
C375 C104 1.829 . S
C411 C64 1.982 . S
C430 C141 1.921 . S
C447 C97 0.199 . S
C466 C146 0.253 1_655 S
C483 C17 1.106 . S
C502 C124 1.113 . S
C538 C135 1.606 . S
C519 C53 1.644 . S
C574 C152 0.325 . S
C555 C106 0.267 . S
C591 C26 1.155 . S
C610 C130 1.145 . S
C646 C147 1.246 . S
C627 C2 1.226 . S
C663 C63 1.484 . S
C682 C125 1.482 . S
C699 C82 1.457 . S
C718 C136 1.475 . S
C754 C169 1.449 . S
C735 C42 1.436 . S
C790 C180 1.717 . S
C771 C103 1.714 . S
C807 C23 1.544 . S
C826 C158 1.544 . S
