# Generated by pormake.
# Topology anh, (6,3)-cn, num edge types: 1
# Building blocks:
#     Node 0, Type 0, BuildingBlock: BETDAH_clean_sbu_0, # of connection points: 6
#     Node 1, Type 0, BuildingBlock: BETDAH_clean_sbu_0, # of connection points: 6
#     Node 2, Type 0, BuildingBlock: BETDAH_clean_sbu_0, # of connection points: 6
#     Node 3, Type 1, BuildingBlock: KAKCAD_clean_linker_0, # of connection points: 3
#     Node 4, Type 1, BuildingBlock: KAKCAD_clean_linker_0, # of connection points: 3
#     Node 5, Type 1, BuildingBlock: KAKCAD_clean_linker_0, # of connection points: 3
#     Node 6, Type 1, BuildingBlock: KAKCAD_clean_linker_0, # of connection points: 3
#     Node 7, Type 1, BuildingBlock: KAKCAD_clean_linker_0, # of connection points: 3
#     Node 8, Type 1, BuildingBlock: KAKCAD_clean_linker_0, # of connection points: 3
#     Edge 9, Type (0, 1), BuildingBlock: XIVTED_clean_linker_0, # of connection points: 2
#     Edge 10, Type (0, 1), BuildingBlock: XIVTED_clean_linker_0, # of connection points: 2
#     Edge 11, Type (0, 1), BuildingBlock: XIVTED_clean_linker_0, # of connection points: 2
#     Edge 12, Type (0, 1), BuildingBlock: XIVTED_clean_linker_0, # of connection points: 2
#     Edge 13, Type (0, 1), BuildingBlock: XIVTED_clean_linker_0, # of connection points: 2
#     Edge 14, Type (0, 1), BuildingBlock: XIVTED_clean_linker_0, # of connection points: 2
#     Edge 15, Type (0, 1), BuildingBlock: XIVTED_clean_linker_0, # of connection points: 2
#     Edge 16, Type (0, 1), BuildingBlock: XIVTED_clean_linker_0, # of connection points: 2
#     Edge 17, Type (0, 1), BuildingBlock: XIVTED_clean_linker_0, # of connection points: 2
#     Edge 18, Type (0, 1), BuildingBlock: XIVTED_clean_linker_0, # of connection points: 2
#     Edge 19, Type (0, 1), BuildingBlock: XIVTED_clean_linker_0, # of connection points: 2
#     Edge 20, Type (0, 1), BuildingBlock: XIVTED_clean_linker_0, # of connection points: 2
#     Edge 21, Type (0, 1), BuildingBlock: XIVTED_clean_linker_0, # of connection points: 2
#     Edge 22, Type (0, 1), BuildingBlock: XIVTED_clean_linker_0, # of connection points: 2
#     Edge 23, Type (0, 1), BuildingBlock: XIVTED_clean_linker_0, # of connection points: 2
#     Edge 24, Type (0, 1), BuildingBlock: XIVTED_clean_linker_0, # of connection points: 2
#     Edge 25, Type (0, 1), BuildingBlock: XIVTED_clean_linker_0, # of connection points: 2
#     Edge 26, Type (0, 1), BuildingBlock: XIVTED_clean_linker_0, # of connection points: 2
# Relax obj value: 0.181
# Max RMSD: 0.210
# Mean RMSD: 0.156
data_MOF--net-anh--node1-BETDAH_clean_sbu_0--node2-KAKCAD_clean_linker_0--edge1-XIVTED_clean_linker_0
_symmetry_space_group_name_H-M    P1
_symmetry_Int_Tables_number       1
_symmetry_cell_setting            triclinic
loop_
_symmetry_equiv_pos_as_xyz
'x, y, z'
_cell_length_a     36.95803
_cell_length_b     43.975894
_cell_length_c     66.583653
_cell_angle_alpha  92.333268
_cell_angle_beta   89.820122
_cell_angle_gamma 128.10557
loop_
_atom_site_label
_atom_site_type_symbol
_atom_site_fract_x
_atom_site_fract_y
_atom_site_fract_z
_atom_type_partial_charge
Ho0 Ho 0.14377 0.55259 0.14713 0.0
Ho1 Ho 0.08598 0.57624 0.1635 0.0
C2 C 0.19376 0.64408 0.15633 0.0
C3 C 0.19029 0.53747 0.12639 0.0
C4 C 0.18774 0.50298 0.12332 0.0
C5 C 0.1665 0.47403 0.13737 0.0
C6 C 0.16319 0.4408 0.13401 0.0
C7 C 0.18055 0.43583 0.11644 0.0
C8 C 0.20123 0.46473 0.1023 0.0
C9 C 0.20483 0.49806 0.10574 0.0
C10 C 0.12801 0.54426 0.18684 0.0
C11 C 1.03722 0.48652 0.15516 0.0
C12 C 1.0396 0.59278 0.18303 0.0
C13 C 0.98932 0.56841 0.18394 0.0
C14 C 0.96765 0.57347 0.19955 0.0
C15 C 0.91978 0.54672 0.20135 0.0
C16 C 0.8934 0.51441 0.18773 0.0
C17 C 0.91543 0.51005 0.17199 0.0
C18 C 0.96279 0.53668 0.17015 0.0
C19 C 0.07839 0.55935 0.12341 0.0
O20 O 0.19723 0.61751 0.14897 0.0
O21 O 0.15482 0.63518 0.16334 0.0
O22 O 0.15517 0.53413 0.11892 0.0
O23 O 0.2033 0.55442 0.14444 0.0
O24 O 0.1309 0.52125 0.17545 0.0
O25 O 0.13639 0.57162 0.17691 0.0
O26 O 1.03924 0.51229 0.16707 0.0
O27 O 0.07156 0.4964 0.14339 0.0
O28 O 1.05677 0.60635 0.1654 0.0
O29 O 1.0571 0.57784 0.19137 0.0
O30 O 1.04406 0.55015 0.13421 0.0
O31 O 0.11437 0.57792 0.1342 0.0
H32 H 0.15241 0.4771 0.15089 0.0
H33 H 0.14676 0.41888 0.14507 0.0
H34 H 0.21546 0.46194 0.08875 0.0
H35 H 0.22094 0.52 0.09467 0.0
H36 H 0.98774 0.59747 0.21053 0.0
H37 H 0.90357 0.55074 0.21362 0.0
H38 H 0.89603 0.48596 0.161 0.0
H39 H 0.97883 0.5319 0.15817 0.0
Ho40 Ho 0.63737 0.04253 0.48243 0.0
Ho41 Ho 0.57311 0.06125 0.47373 0.0
C42 C 0.52847 0.97285 0.47254 0.0
C43 C 0.67751 0.01553 0.49599 0.0
C44 C 0.66675 0.97773 0.49908 0.0
C45 C 0.62602 0.94773 0.50809 0.0
C46 C 0.6178 0.91272 0.51142 0.0
C47 C 0.65003 0.90701 0.50571 0.0
C48 C 0.69017 0.9369 0.49624 0.0
C49 C 0.69847 0.97187 0.49305 0.0
C50 C 0.63326 0.0564 0.44381 0.0
C51 C 0.68352 0.13154 0.4819 0.0
C52 C 0.53556 0.09129 0.46167 0.0
C53 C 0.54105 0.12621 0.46877 0.0
C54 C 0.54553 0.15146 0.45491 0.0
C55 C 0.5531 0.18564 0.4616 0.0
C56 C 0.55625 0.19516 0.48231 0.0
C57 C 0.55115 0.16942 0.49611 0.0
C58 C 0.54401 0.13555 0.48943 0.0
C59 C 0.57918 0.04976 0.51268 0.0
O60 O 0.56639 0.98402 0.48231 0.0
O61 O 0.52586 0.99831 0.46429 0.0
O62 O 0.67947 0.02438 0.47733 0.0
O63 O 0.65731 0.02555 0.5075 0.0
O64 O 0.67067 0.06741 0.45304 0.0
O65 O 0.59939 0.03696 0.45509 0.0
O66 O 0.64337 0.12017 0.47462 0.0
O67 O 0.68887 0.10656 0.48849 0.0
O68 O 0.51606 0.06308 0.47403 0.0
O69 O 0.5714 0.09744 0.4532 0.0
O70 O 0.54188 0.03983 0.50394 0.0
O71 O 0.612 0.06783 0.50084 0.0
H72 H 0.60081 0.95144 0.51277 0.0
H73 H 0.58671 0.89052 0.51889 0.0
H74 H 0.71529 0.93331 0.49123 0.0
H75 H 0.72993 0.99454 0.48593 0.0
H76 H 0.54382 0.145 0.4389 0.0
H77 H 0.55744 0.20495 0.45053 0.0
H78 H 0.55247 0.17529 0.51215 0.0
H79 H 0.5411 0.11679 0.50049 0.0
Ho80 Ho 0.60777 0.55187 0.848 0.0
Ho81 Ho 0.54263 0.4642 0.8486 0.0
C82 C 0.49632 0.50594 0.8496 0.0
C83 C 0.65104 0.62386 0.84055 0.0
C84 C 0.64005 0.64961 0.83538 0.0
C85 C 0.59989 0.63578 0.82431 0.0
C86 C 0.59112 0.66123 0.81905 0.0
C87 C 0.62221 0.70084 0.82487 0.0
C88 C 0.66194 0.7143 0.83625 0.0
C89 C 0.67076 0.68891 0.84141 0.0
C90 C 0.59152 0.52181 0.88446 0.0
C91 C 0.65535 0.51081 0.84764 0.0
C92 C 0.50122 0.3926 0.85616 0.0
C93 C 0.51062 0.36471 0.85264 0.0
C94 C 0.55282 0.37363 0.85853 0.0
C95 C 0.56162 0.34736 0.85422 0.0
C96 C 0.52844 0.31165 0.84391 0.0
C97 C 0.48604 0.3027 0.83828 0.0
C98 C 0.47725 0.32892 0.84264 0.0
C99 C 0.55655 0.49258 0.81191 0.0
O100 O 0.53654 0.53651 0.84323 0.0
O101 O 0.49204 0.47562 0.85584 0.0
O102 O 0.64092 0.611 0.85868 0.0
O103 O 0.64095 0.59727 0.82687 0.0
O104 O 0.63172 0.55199 0.87934 0.0
O105 O 0.56261 0.51044 0.87044 0.0
O106 O 0.61353 0.47816 0.85067 0.0
O107 O 0.66163 0.54328 0.84433 0.0
O108 O 0.49237 0.40333 0.84008 0.0
O109 O 0.52801 0.42143 0.86927 0.0
O110 O 0.51764 0.46171 0.81751 0.0
O111 O 0.58699 0.50543 0.82555 0.0
H112 H 0.57552 0.60544 0.81963 0.0
H113 H 0.55996 0.64989 0.81047 0.0
H114 H 0.68683 0.74467 0.84077 0.0
H115 H 0.70193 0.70009 0.84995 0.0
H116 H 0.57918 0.40097 0.86634 0.0
H117 H 0.59438 0.35503 0.85903 0.0
H118 H 0.45994 0.27579 0.83006 0.0
H119 H 0.44452 0.32146 0.83791 0.0
C120 C 0.62975 0.10064 0.28486 0.0
C121 C 0.61936 0.06853 0.29465 0.0
C122 C 0.63005 0.10083 0.26386 0.0
C123 C 0.62064 0.06911 0.2522 0.0
C124 C 0.61086 0.03723 0.26213 0.0
C125 C 0.60987 0.03683 0.28309 0.0
C126 C 0.62039 0.069 0.22981 0.0
C127 C 0.65191 0.10309 0.21978 0.0
C128 C 0.65122 0.10345 0.19865 0.0
C129 C 0.61874 0.0686 0.1874 0.0
C130 C 0.58745 0.03406 0.19726 0.0
C131 C 0.58832 0.03472 0.21835 0.0
C132 C 0.55277 0.99667 0.18613 0.0
C133 C 0.51899 0.99197 0.17361 0.0
C134 C 0.54956 0.96405 0.19033 0.0
C135 C 0.5122 0.92719 0.18299 0.0
C136 C 0.47685 0.92197 0.1714 0.0
C137 C 0.68509 0.1406 0.18882 0.0
C138 C 0.69442 0.17492 0.19686 0.0
C139 C 0.71082 0.14281 0.17254 0.0
C140 C 0.74645 0.1788 0.16508 0.0
C141 C 0.75686 0.2133 0.17367 0.0
C142 C 0.7298 0.21069 0.18945 0.0
C143 C 0.48118 0.9549 0.1664 0.0
H144 H 0.63686 0.12534 0.29344 0.0
H145 H 0.63694 0.1256 0.25678 0.0
H146 H 0.60441 0.01263 0.25374 0.0
H147 H 0.60246 0.01195 0.2903 0.0
H148 H 0.67786 0.12944 0.22846 0.0
H149 H 0.56298 0.00834 0.22584 0.0
H150 H 0.61777 0.06832 0.17112 0.0
H151 H 0.52052 0.01666 0.17031 0.0
H152 H 0.57511 0.96693 0.20003 0.0
H153 H 0.50986 0.90256 0.18732 0.0
H154 H 0.67491 0.17421 0.20926 0.0
H155 H 0.70459 0.11691 0.16607 0.0
H156 H 0.45476 0.95188 0.15734 0.0
H157 H 0.73693 0.23646 0.19666 0.0
H158 H 0.76617 0.17962 0.15275 0.0
C159 C 0.57194 0.55478 0.65466 0.0
C160 C 0.59841 0.54788 0.66568 0.0
C161 C 0.57453 0.5565 0.63376 0.0
C162 C 0.60372 0.5514 0.62334 0.0
C163 C 0.63093 0.54529 0.63438 0.0
C164 C 0.62836 0.5436 0.65532 0.0
C165 C 0.60481 0.55157 0.60101 0.0
C166 C 0.60378 0.57838 0.59083 0.0
C167 C 0.60309 0.57796 0.56971 0.0
C168 C 0.60343 0.55016 0.55869 0.0
C169 C 0.60479 0.52328 0.56864 0.0
C170 C 0.60565 0.5243 0.58976 0.0
C171 C 0.60423 0.49337 0.55716 0.0
C172 C 0.57073 0.46975 0.54196 0.0
C173 C 0.63589 0.48699 0.56208 0.0
C174 C 0.6335 0.45705 0.55232 0.0
C175 C 0.59889 0.43229 0.53761 0.0
C176 C 0.60298 0.60724 0.55941 0.0
C177 C 0.57447 0.61645 0.56599 0.0
C178 C 0.63318 0.62774 0.54374 0.0
C179 C 0.63612 0.65788 0.53541 0.0
C180 C 0.60866 0.66793 0.54246 0.0
C181 C 0.57719 0.64638 0.55759 0.0
C182 C 0.56789 0.43938 0.53237 0.0
H183 H 0.54892 0.55865 0.6622 0.0
H184 H 0.55281 0.56092 0.62573 0.0
H185 H 0.65415 0.54169 0.62683 0.0
H186 H 0.64893 0.53792 0.66333 0.0
H187 H 0.60453 0.60026 0.5994 0.0
H188 H 0.60537 0.50288 0.59743 0.0
H189 H 0.60265 0.54943 0.5424 0.0
H190 H 0.54565 0.47388 0.53801 0.0
H191 H 0.66244 0.50513 0.57357 0.0
H192 H 0.65876 0.45325 0.55643 0.0
H193 H 0.55049 0.60087 0.5779 0.0
H194 H 0.65572 0.62141 0.53842 0.0
H195 H 0.54041 0.42074 0.52133 0.0
H196 H 0.55581 0.65355 0.56347 0.0
H197 H 0.66035 0.67367 0.52361 0.0
C198 C 0.11264 0.53748 0.96349 0.0
C199 C 0.07081 0.52019 0.97333 0.0
C200 C 0.11362 0.53488 0.94255 0.0
C201 C 0.07271 0.51419 0.93077 0.0
C202 C 1.03073 0.49607 0.94061 0.0
C203 C 1.02982 0.49925 0.96158 0.0
C204 C 0.07427 0.51266 0.90834 0.0
C205 C 0.10737 0.51156 0.89881 0.0
C206 C 0.11293 0.51398 0.87784 0.0
C207 C 0.08105 0.51438 0.86599 0.0
C208 C 1.04633 0.51445 0.87545 0.0
C209 C 1.04415 0.51411 0.8965 0.0
C210 C 1.01207 0.51627 0.86462 0.0
C211 C 1.01468 0.54951 0.86746 0.0
C212 C 0.97071 0.48236 0.85648 0.0
C213 C 0.93257 0.48136 0.85207 0.0
C214 C 0.93438 0.51419 0.85581 0.0
C215 C 0.1537 0.51747 0.86969 0.0
C216 C 0.19605 0.54058 0.88066 0.0
C217 C 0.15025 0.49499 0.85294 0.0
C218 C 0.18706 0.49408 0.84819 0.0
C219 C 0.22792 0.5152 0.86021 0.0
C220 C 0.23203 0.53903 0.87621 0.0
C221 C 0.97674 0.54858 0.86307 0.0
H222 H 0.14492 0.55318 0.97192 0.0
H223 H 0.14675 0.5498 0.93562 0.0
H224 H 0.99842 0.47941 0.93214 0.0
H225 H 0.99692 0.48582 0.9685 0.0
H226 H 0.12948 0.50896 0.90793 0.0
H227 H 1.01897 0.51569 0.90371 0.0
H228 H 0.0841 0.51589 0.84982 0.0
H229 H 1.0454 0.57578 0.87433 0.0
H230 H 0.9669 0.45592 0.85465 0.0
H231 H 0.9012 0.45438 0.84622 0.0
H232 H 0.20091 0.55909 0.89335 0.0
H233 H 0.11845 0.47675 0.84413 0.0
H234 H 0.98005 0.57447 0.86651 0.0
H235 H 0.2631 0.5562 0.88558 0.0
H236 H 0.18277 0.4755 0.83568 0.0
C237 C 0.06907 0.52523 0.34704 0.0
C238 C 0.1073 0.5333 0.33688 0.0
C239 C 0.06877 0.52623 0.36805 0.0
C240 C 0.10702 0.53598 0.37929 0.0
C241 C 0.14521 0.54399 0.36913 0.0
C242 C 0.1452 0.54236 0.34812 0.0
C243 C 0.10751 0.5387 0.40156 0.0
C244 C 0.07047 0.50863 0.41221 0.0
C245 C 0.07022 0.51112 0.43335 0.0
C246 C 0.10779 0.54492 0.44383 0.0
C247 C 0.14526 0.57541 0.43322 0.0
C248 C 0.14482 0.57173 0.41215 0.0
C249 C 0.18459 0.61222 0.44349 0.0
C250 C 0.17733 0.63483 0.4556 0.0
C251 C 0.22991 0.62749 0.43888 0.0
C252 C 0.26703 0.66518 0.44541 0.0
C253 C 0.25974 0.68875 0.45654 0.0
C254 C 1.03077 0.47758 0.44398 0.0
C255 C 0.98555 0.45822 0.43654 0.0
C256 C 1.038 0.46225 0.46021 0.0
C257 C 1.00109 0.42727 0.46809 0.0
C258 C 0.95608 0.40698 0.46 0.0
C259 C 0.9488 0.42346 0.4444 0.0
C260 C 0.21452 0.67282 0.46196 0.0
H261 H 1.03933 0.51796 0.33871 0.0
H262 H 1.03902 0.52016 0.37554 0.0
H263 H 0.17503 0.55141 0.37746 0.0
H264 H 0.17522 0.54895 0.34066 0.0
H265 H 1.04223 0.48269 0.40396 0.0
H266 H 0.17305 0.59535 0.40387 0.0
H267 H 0.10787 0.54752 0.46008 0.0
H268 H 0.14273 0.62391 0.45922 0.0
H269 H 0.23647 0.61071 0.42953 0.0
H270 H 0.30124 0.67649 0.44082 0.0
H271 H 0.9787 0.46943 0.42418 0.0
H272 H 0.07243 0.47636 0.46622 0.0
H273 H 0.20776 0.69005 0.47071 0.0
H274 H 0.9149 0.4087 0.4376 0.0
H275 H 1.00797 0.4158 0.48029 0.0
C276 C 0.5684 0.99176 0.67033 0.0
C277 C 0.59707 0.02726 0.66102 0.0
C278 C 0.56941 0.99037 0.69123 0.0
C279 C 0.59902 0.02446 0.70332 0.0
C280 C 0.62806 0.05992 0.69401 0.0
C281 C 0.62718 0.0613 0.67309 0.0
C282 C 0.59907 0.02304 0.72558 0.0
C283 C 0.59743 0.99403 0.73471 0.0
C284 C 0.59661 0.992 0.75573 0.0
C285 C 0.5977 0.01966 0.76772 0.0
C286 C 0.59901 0.04884 0.75883 0.0
C287 C 0.59977 0.05024 0.73775 0.0
C288 C 0.59778 0.07707 0.7713 0.0
C289 C 0.56824 0.06497 0.78761 0.0
C290 C 0.62427 0.11599 0.76625 0.0
C291 C 0.62009 0.14181 0.77673 0.0
C292 C 0.58945 0.12946 0.79263 0.0
C293 C 0.59449 0.96074 0.76493 0.0
C294 C 0.56396 0.92248 0.75696 0.0
C295 C 0.62402 0.96903 0.78114 0.0
C296 C 0.62403 0.93983 0.78878 0.0
C297 C 0.59425 0.90166 0.78046 0.0
C298 C 0.56372 0.8933 0.76467 0.0
C299 C 0.56415 0.09086 0.79816 0.0
H300 H 0.54514 0.96498 0.66144 0.0
H301 H 0.54635 0.96263 0.69795 0.0
H302 H 0.65156 0.08664 0.70292 0.0
H303 H 0.64941 0.08914 0.6664 0.0
H304 H 0.59767 0.97333 0.72542 0.0
H305 H 0.59926 0.07176 0.73071 0.0
H306 H 0.59708 0.01822 0.78393 0.0
H307 H 0.5471 0.03516 0.79184 0.0
H308 H 0.64785 0.12643 0.75394 0.0
H309 H 0.63983 0.17117 0.77189 0.0
H310 H 0.54024 0.91511 0.74468 0.0
H311 H 0.64818 0.99832 0.78747 0.0
H312 H 0.54073 0.08047 0.81051 0.0
H313 H 0.53956 0.86413 0.75819 0.0
H314 H 0.64837 0.94747 0.8008 0.0
C315 C 0.4712 0.33275 0.00823 0.0
C316 C 0.51151 0.3714 0.00842 0.0
C317 C 0.45536 0.31282 0.02596 0.0
C318 C 0.47968 0.33093 0.04426 0.0
C319 C 0.52114 0.36888 0.04433 0.0
C320 C 0.53685 0.38893 0.02661 0.0
C321 C 0.45978 0.31176 0.06346 0.0
C322 C 0.48755 0.31363 0.07858 0.0
C323 C 0.47018 0.30002 0.09773 0.0
C324 C 0.42419 0.28373 0.10149 0.0
C325 C 0.39622 0.2824 0.08667 0.0
C326 C 0.41405 0.29569 0.06756 0.0
C327 C 0.35181 0.27386 0.09198 0.0
C328 C 0.31446 0.25431 0.07811 0.0
C329 C 0.34906 0.29042 0.10984 0.0
C330 C 0.31175 0.29044 0.11294 0.0
C331 C 0.27629 0.27392 0.09825 0.0
C332 C 0.50187 0.30777 0.11441 0.0
C333 C 0.53658 0.30408 0.11111 0.0
C334 C 0.5006 0.32287 0.1332 0.0
C335 C 0.53494 0.33626 0.14786 0.0
C336 C 0.5714 0.33501 0.14403 0.0
C337 C 0.571 0.31757 0.12575 0.0
C338 C 0.27701 0.2543 0.08122 0.0
H339 H 0.45135 0.31805 0.99442 0.0
H340 H 0.42355 0.28346 0.02545 0.0
H341 H 0.54031 0.38379 0.05826 0.0
H342 H 0.56773 0.41875 0.02737 0.0
H343 H 0.52339 0.32749 0.07569 0.0
H344 H 0.39357 0.29661 0.05635 0.0
H345 H 0.41069 0.27359 0.11627 0.0
H346 H 0.31528 0.24074 0.06435 0.0
H347 H 0.37741 0.30615 0.12074 0.0
H348 H 0.31277 0.30624 0.12612 0.0
H349 H 0.53815 0.29214 0.09688 0.0
H350 H 0.47457 0.32645 0.13622 0.0
H351 H 0.2498 0.24068 0.0698 0.0
H352 H 0.59876 0.31639 0.12223 0.0
H353 H 0.53395 0.34906 0.16189 0.0
H354 H 0.15686 0.39069 0.08186 0.0
H355 H 0.24628 0.29331 0.06753 0.0
H356 H 0.20048 0.40275 0.14364 0.0
H357 H 0.23349 0.27693 0.13138 0.0
H358 H 0.20916 0.32315 0.07047 0.0
H359 H 0.16333 0.33915 0.07581 0.0
C360 C 0.16794 0.38249 0.09413 0.0
C361 C 0.17911 0.40157 0.11316 0.0
C362 C 0.21278 0.31193 0.0838 0.0
C363 C 0.18801 0.34335 0.10627 0.0
C364 C 0.23411 0.29466 0.0821 0.0
C365 C 0.2436 0.28292 0.09927 0.0
C366 C 0.20089 0.31768 0.10287 0.0
C367 C 0.22776 0.28629 0.11779 0.0
C368 C 0.1719 0.35317 0.09066 0.0
C369 C 0.1918 0.38898 0.1287 0.0
N370 N 0.20801 0.30403 0.11916 0.0
N371 N 0.19647 0.36101 0.12484 0.0
H372 H 0.68358 0.19248 0.47464 0.0
H373 H 0.95744 0.34772 0.47058 0.0
H374 H 0.77514 0.16612 0.48879 0.0
H375 H 0.86544 0.37638 0.46479 0.0
H376 H 0.89194 0.28197 0.47857 0.0
H377 H 0.75003 0.26026 0.47195 0.0
C378 C 0.71764 0.20092 0.47732 0.0
C379 C 0.72364 0.17334 0.48188 0.0
C380 C 0.88614 0.30274 0.4757 0.0
C381 C 0.80031 0.25133 0.47865 0.0
C382 C 0.92366 0.34048 0.47126 0.0
C383 C 0.91717 0.36785 0.46683 0.0
C384 C 0.84159 0.29202 0.47563 0.0
C385 C 0.87222 0.35626 0.46768 0.0
C386 C 0.75567 0.23976 0.47579 0.0
C387 C 0.76876 0.18627 0.48525 0.0
N388 N 0.83628 0.3193 0.47182 0.0
N389 N 0.80532 0.22421 0.48341 0.0
H390 H 0.59176 0.70404 0.78813 0.0
H391 H 0.60707 0.88975 0.81926 0.0
H392 H 0.63464 0.76055 0.84736 0.0
H393 H 0.58561 0.84343 0.75822 0.0
H394 H 0.61157 0.83986 0.83048 0.0
H395 H 0.58229 0.75144 0.77768 0.0
C396 C 0.59875 0.72619 0.799 0.0
C397 C 0.61414 0.72835 0.81864 0.0
C398 C 0.60575 0.8406 0.81464 0.0
C399 C 0.60381 0.78305 0.80671 0.0
C400 C 0.60342 0.86922 0.80819 0.0
C401 C 0.59593 0.87093 0.78773 0.0
C402 C 0.60045 0.81334 0.80056 0.0
C403 C 0.59069 0.84301 0.77417 0.0
C404 C 0.59366 0.75344 0.79299 0.0
C405 C 0.62327 0.75807 0.832 0.0
N406 N 0.59308 0.81548 0.78082 0.0
N407 N 0.618 0.78424 0.82579 0.0
H408 H 0.83038 0.52708 0.19458 0.0
H409 H 0.62337 0.3129 0.15531 0.0
H410 H 0.84148 0.43568 0.18415 0.0
H411 H 0.61377 0.40556 0.16368 0.0
H412 H 0.6986 0.35364 0.17263 0.0
H413 H 0.7467 0.47933 0.19058 0.0
C414 C 0.81513 0.49686 0.19187 0.0
C415 C 0.84287 0.4854 0.18924 0.0
C416 C 0.67966 0.36481 0.17098 0.0
C417 C 0.74745 0.43077 0.18433 0.0
C418 C 0.63678 0.3416 0.16103 0.0
C419 C 0.61251 0.35602 0.15775 0.0
C420 C 0.69859 0.40285 0.17754 0.0
C421 C 0.63113 0.39314 0.16587 0.0
C422 C 0.76739 0.46962 0.18947 0.0
C423 C 0.82134 0.44585 0.18576 0.0
N424 N 0.67335 0.41547 0.1751 0.0
N425 N 0.77498 0.42005 0.1831 0.0
H426 H 0.44175 0.93931 0.45737 0.0
H427 H 0.34787 0.72128 0.46964 0.0
H428 H 0.52339 0.91075 0.48366 0.0
H429 H 0.26111 0.75149 0.45341 0.0
H430 H 0.41303 0.79022 0.47415 0.0
H431 H 0.376 0.87052 0.45483 0.0
C432 C 0.44596 0.91862 0.46258 0.0
C433 C 0.48836 0.931 0.47071 0.0
C434 C 0.37968 0.78178 0.46974 0.0
C435 C 0.41284 0.85185 0.46783 0.0
C436 C 0.34245 0.74239 0.46711 0.0
C437 C 0.29883 0.73044 0.46113 0.0
C438 C 0.37352 0.80962 0.46616 0.0
C439 C 0.29388 0.75921 0.45825 0.0
C440 C 0.40826 0.87928 0.46119 0.0
C441 C 0.49147 0.90268 0.47728 0.0
N442 N 0.33076 0.79735 0.46064 0.0
N443 N 0.45434 0.8645 0.47563 0.0
H444 H 0.4697 0.23224 0.8443 0.0
H445 H 0.65396 0.20726 0.80256 0.0
H446 H 0.60961 0.32831 0.83128 0.0
H447 H 0.50861 0.11305 0.80544 0.0
H448 H 0.64027 0.25146 0.81661 0.0
H449 H 0.48534 0.18768 0.8336 0.0
C450 C 0.50371 0.24402 0.83917 0.0
C451 C 0.53826 0.2842 0.83857 0.0
C452 C 0.61142 0.22108 0.81425 0.0
C453 C 0.55658 0.23316 0.82652 0.0
C454 C 0.61916 0.1958 0.80615 0.0
C455 C 0.58236 0.15628 0.80266 0.0
C456 C 0.56656 0.20683 0.81899 0.0
C457 C 0.53818 0.14311 0.80803 0.0
C458 C 0.51267 0.21852 0.83315 0.0
C459 C 0.58198 0.29765 0.8322 0.0
N460 N 0.53152 0.16832 0.81583 0.0
N461 N 0.58981 0.27222 0.82636 0.0
H462 H 0.56901 0.83224 0.50376 0.0
H463 H 0.68916 0.73903 0.53532 0.0
H464 H 0.71419 0.89849 0.51765 0.0
H465 H 0.54192 0.67505 0.53291 0.0
H466 H 0.69887 0.79633 0.52517 0.0
H467 H 0.55827 0.77322 0.51144 0.0
C468 C 0.59862 0.83448 0.50848 0.0
C469 C 0.64262 0.87056 0.51001 0.0
C470 C 0.6644 0.76974 0.52678 0.0
C471 C 0.63059 0.80294 0.51853 0.0
C472 C 0.65882 0.73689 0.53241 0.0
C473 C 0.61464 0.70215 0.53499 0.0
C474 C 0.62555 0.76794 0.52361 0.0
C475 C 0.57662 0.70134 0.53132 0.0
C476 C 0.59246 0.80071 0.51275 0.0
C477 C 0.67975 0.87141 0.51589 0.0
N478 N 0.58294 0.73375 0.52583 0.0
N479 N 0.67288 0.83819 0.51991 0.0
H480 H 0.74664 0.5715 0.84137 0.0
H481 H 0.84242 0.45269 0.86155 0.0
H482 H 0.65881 0.45084 0.85473 0.0
H483 H 0.92855 0.57142 0.84455 0.0
H484 H 0.77529 0.45119 0.85886 0.0
H485 H 0.81313 0.57182 0.84253 0.0
C486 C 0.74109 0.54496 0.84453 0.0
C487 C 0.69645 0.51107 0.84797 0.0
C488 C 0.80885 0.47757 0.85566 0.0
C489 C 0.77356 0.51133 0.84939 0.0
C490 C 0.84751 0.47842 0.85703 0.0
C491 C 0.89208 0.51227 0.85329 0.0
C492 C 0.8141 0.51081 0.85052 0.0
C493 C 0.89553 0.54471 0.84792 0.0
C494 C 0.77934 0.5452 0.84519 0.0
C495 C 0.69218 0.47774 0.85199 0.0
N496 N 0.85744 0.54316 0.84675 0.0
N497 N 0.72996 0.47875 0.85261 0.0
H498 H 0.28161 0.67424 0.14578 0.0
H499 H 0.38711 0.89444 0.17316 0.0
H500 H 0.2009 0.70846 0.16781 0.0
H501 H 0.46943 0.85834 0.15791 0.0
H502 H 0.31766 0.8274 0.16785 0.0
H503 H 0.3497 0.74212 0.14722 0.0
C504 C 0.27807 0.69596 0.15088 0.0
C505 C 0.23528 0.6854 0.15677 0.0
C506 C 0.3509 0.83417 0.16554 0.0
C507 C 0.31349 0.76354 0.1584 0.0
C508 C 0.3906 0.87255 0.16839 0.0
C509 C 0.43429 0.88212 0.16605 0.0
C510 C 0.35476 0.80504 0.16024 0.0
C511 C 0.43656 0.85229 0.16014 0.0
C512 C 0.31708 0.73481 0.1517 0.0
C513 C 0.23308 0.71506 0.16321 0.0
N514 N 0.39744 0.81517 0.15751 0.0
N515 N 0.27158 0.7527 0.16387 0.0
H516 H 0.60934 0.24273 0.51495 0.0
H517 H 0.57195 0.40064 0.49873 0.0
H518 H 0.52417 0.23177 0.46639 0.0
H519 H 0.6146 0.38604 0.5555 0.0
H520 H 0.56262 0.34385 0.48458 0.0
H521 H 0.62067 0.30079 0.52781 0.0
C522 C 0.59273 0.25231 0.50702 0.0
C523 C 0.5652 0.23181 0.48966 0.0
C524 C 0.57412 0.35325 0.50012 0.0
C525 C 0.57903 0.29913 0.50417 0.0
C526 C 0.57926 0.38558 0.50827 0.0
C527 C 0.59421 0.39845 0.5284 0.0
C528 C 0.58441 0.3338 0.51209 0.0
C529 C 0.60391 0.37793 0.53983 0.0
C530 C 0.59948 0.28567 0.51434 0.0
C531 C 0.5459 0.24661 0.47974 0.0
N532 N 0.59894 0.34679 0.53151 0.0
N533 N 0.55313 0.27933 0.48715 0.0
H534 H 0.41979 0.46291 0.87283 0.0
H535 H 0.28002 0.52984 0.82653 0.0
H536 H 0.47963 0.5495 0.82851 0.0
H537 H 0.26255 0.49295 0.8871 0.0
H538 H 0.34517 0.52776 0.82333 0.0
H539 H 0.35434 0.46409 0.87468 0.0
C540 C 0.41917 0.48205 0.86337 0.0
C541 C 0.45572 0.5062 0.85051 0.0
C542 C 0.32691 0.51997 0.83728 0.0
C543 C 0.37969 0.50719 0.85235 0.0
C544 C 0.28949 0.52089 0.83907 0.0
C545 C 0.26556 0.51151 0.85712 0.0
C546 C 0.33996 0.50865 0.85349 0.0
C547 C 0.27988 0.50047 0.87292 0.0
C548 C 0.38171 0.48279 0.8645 0.0
C549 C 0.45258 0.53047 0.83872 0.0
N550 N 0.31562 0.49908 0.87069 0.0
N551 N 0.41526 0.53012 0.8398 0.0
H552 H 0.95256 0.46009 0.1677 0.0
H553 H 0.84249 0.23713 0.16248 0.0
H554 H 1.02521 0.42001 0.14287 0.0
H555 H 0.76317 0.27847 0.16994 0.0
H556 H 0.90993 0.30286 0.15536 0.0
H557 H 0.8836 0.3933 0.16936 0.0
C558 C 0.95403 0.4372 0.16255 0.0
C559 C 0.9949 0.44574 0.15522 0.0
C560 C 0.87761 0.2974 0.15838 0.0
C561 C 0.91561 0.36867 0.15722 0.0
C562 C 0.83894 0.25978 0.16234 0.0
C563 C 0.79695 0.2521 0.16708 0.0
C564 C 0.87448 0.32767 0.15933 0.0
C565 C 0.79489 0.28296 0.16688 0.0
C566 C 0.91445 0.39896 0.16342 0.0
C567 C 0.99444 0.41474 0.14861 0.0
N568 N 0.83308 0.31929 0.16329 0.0
N569 N 0.95552 0.37752 0.14996 0.0
H570 H 0.15076 0.59289 0.09851 0.0
H571 H 1.00515 0.46801 -0.00035 0.0
H572 H 1.00276 0.50995 0.09859 0.0
H573 H 0.13519 0.58283 0.99831 0.0
H574 H 1.0057 0.47671 0.03622 0.0
H575 H 0.14824 0.58259 0.062 0.0
C576 C 0.11773 0.5724 0.09081 0.0
C577 C 0.07686 0.55236 0.10148 0.0
C578 C 1.03402 0.49989 0.02783 0.0
C579 C 0.07377 0.54022 0.0598 0.0
C580 C 1.0337 0.4951 0.00691 0.0
C581 C 0.07029 0.52465 0.99568 0.0
C582 C 0.07149 0.53417 0.03765 0.0
C583 C 0.10669 0.55878 0.00618 0.0
C584 C 0.11631 0.56666 0.06999 0.0
C585 C 1.03498 0.52611 0.09082 0.0
N586 N 0.10646 0.56246 0.02652 0.0
N587 N 1.03447 0.52062 0.07051 0.0
H588 H 0.70349 0.10548 0.41942 0.0
H589 H 0.55326 0.01117 0.31817 0.0
H590 H 0.55616 0.01778 0.41933 0.0
H591 H 0.68467 0.12497 0.32158 0.0
H592 H 0.55492 0.01006 0.35494 0.0
H593 H 0.69883 0.11052 0.38319 0.0
C594 C 0.67014 0.08739 0.41174 0.0
C595 C 0.63017 0.06105 0.42226 0.0
C596 C 0.58321 0.03537 0.34763 0.0
C597 C 0.62462 0.06633 0.3809 0.0
C598 C 0.58241 0.03592 0.3267 0.0
C599 C 0.61895 0.06817 0.31689 0.0
C600 C 0.62121 0.06702 0.35879 0.0
C601 C 0.65571 0.09965 0.3286 0.0
C602 C 0.66749 0.09036 0.39111 0.0
C603 C 0.58777 0.03842 0.41169 0.0
N604 N 0.65614 0.09814 0.34894 0.0
N605 N 0.58613 0.04126 0.3915 0.0
H606 H 0.63924 0.54574 0.79429 0.0
H607 H 0.51889 0.50966 0.6866 0.0
H608 H 0.49265 0.46877 0.78247 0.0
H609 H 0.66566 0.57536 0.69505 0.0
H610 H 0.50989 0.50039 0.72259 0.0
H611 H 0.65087 0.56277 0.75886 0.0
C612 C 0.60958 0.53269 0.78426 0.0
C613 C 0.56495 0.50562 0.79119 0.0
C614 C 0.54415 0.51697 0.71663 0.0
C615 C 0.57785 0.52481 0.75089 0.0
C616 C 0.54934 0.52252 0.69606 0.0
C617 C 0.59312 0.54335 0.68775 0.0
C618 C 0.58296 0.5323 0.72913 0.0
C619 C 0.63121 0.55871 0.70077 0.0
C620 C 0.61619 0.54229 0.76408 0.0
C621 C 0.52765 0.48955 0.77767 0.0
N622 N 0.62526 0.55284 0.72082 0.0
N623 N 0.53494 0.4993 0.75819 0.0
H624 H 0.65758 0.07984 0.53515 0.0
H625 H 0.52015 0.98813 0.63644 0.0
H626 H 0.51006 0.00955 0.53898 0.0
H627 H 0.66822 0.07018 0.63514 0.0
H628 H 0.51629 0.99187 0.60015 0.0
H629 H 0.66276 0.07313 0.57123 0.0
C630 C 0.62632 0.06289 0.54359 0.0
C631 C 0.58334 0.04532 0.53417 0.0
C632 C 0.54968 0.00904 0.60777 0.0
C633 C 0.5889 0.03752 0.57527 0.0
C634 C 0.55191 0.00671 0.62849 0.0
C635 C 0.59458 0.02886 0.63886 0.0
C636 C 0.59041 0.03363 0.59724 0.0
C637 C 0.63457 0.05292 0.62778 0.0
C638 C 0.62927 0.05914 0.56416 0.0
C639 C 0.54388 0.0237 0.54572 0.0
N640 N 0.63152 0.05466 0.60756 0.0
N641 N 0.54761 0.02043 0.56566 0.0
H642 H 0.50709 0.46428 0.89763 0.0
H643 H 0.59877 0.42569 0.99447 0.0
H644 H 0.65138 0.53238 0.91361 0.0
H645 H 0.45561 0.36936 0.98064 0.0
H646 H 0.6197 0.46392 0.96471 0.0
H647 H 0.48849 0.42799 0.92768 0.0
C648 C 0.53491 0.47165 0.90755 0.0
C649 C 0.58083 0.50129 0.90316 0.0
C650 C 0.58373 0.44311 0.96821 0.0
C651 C 0.55982 0.45974 0.93769 0.0
C652 C 0.57174 0.42134 0.98522 0.0
C653 C 0.52528 0.39401 0.99005 0.0
C654 C 0.54903 0.4375 0.95594 0.0
C655 C 0.49178 0.38941 0.97736 0.0
C656 C 0.52427 0.45092 0.92474 0.0
C657 C 0.61551 0.50973 0.91654 0.0
N658 N 0.50432 0.41088 0.96095 0.0
N659 N 0.6043 0.48891 0.93323 0.0
H660 H 0.12724 0.59327 0.21313 0.0
H661 H 0.13062 0.49785 0.31142 0.0
H662 H 0.11762 0.49032 0.21052 0.0
H663 H 0.08616 0.56837 0.31183 0.0
H664 H 0.13375 0.49932 0.27466 0.0
H665 H 0.11941 0.58911 0.24966 0.0
C666 C 0.12303 0.56959 0.22023 0.0
C667 C 0.1226 0.54187 0.20881 0.0
C668 C 0.1231 0.51431 0.28279 0.0
C669 C 0.11482 0.53749 0.25055 0.0
C670 C 0.12155 0.51364 0.30374 0.0
C671 C 0.1081 0.53301 0.31462 0.0
C672 C 0.11191 0.53505 0.2727 0.0
C673 C 0.09636 0.55282 0.30396 0.0
C674 C 0.1187 0.5673 0.24107 0.0
C675 C 0.11799 0.51222 0.2188 0.0
N676 N 0.09889 0.55361 0.28359 0.0
N677 N 0.11458 0.51094 0.23914 0.0
loop_
_geom_bond_atom_site_label_1
_geom_bond_atom_site_label_2
_geom_bond_distance
_geom_bond_site_symmetry_2
_ccdc_geom_bond_type
Ho0 C3 2.811 . S
Ho0 O20 2.322 . S
Ho0 O22 2.378 . S
Ho0 O23 2.524 . S
Ho0 O24 2.381 . S
Ho0 O25 2.669 . S
Ho0 O27 2.346 1_455 S
Ho0 O31 2.305 . S
Ho1 C12 2.811 . S
Ho1 O21 2.346 1_655 S
Ho1 O25 2.305 1_655 S
Ho1 O26 2.322 . S
Ho1 O28 2.378 . S
Ho1 O29 2.524 . S
Ho1 O30 2.381 1_655 S
Ho1 O31 2.669 1_655 S
C2 O20 1.259 . S
C2 O21 1.268 . S
C3 Ho0 2.811 . S
C3 C4 1.488 . S
C3 O22 1.215 . S
C3 O23 1.289 . S
C4 C3 1.488 . S
C4 C5 1.348 . S
C4 C9 1.413 . S
C5 C4 1.348 . S
C5 C6 1.442 . S
C5 H32 0.930 . S
C6 C5 1.442 . S
C6 C7 1.381 . S
C6 H33 0.931 . S
C7 C6 1.381 . S
C7 C8 1.321 . S
C8 C7 1.321 . S
C8 C9 1.403 . S
C8 H34 0.934 . S
C9 C4 1.413 . S
C9 C8 1.403 . S
C9 H35 0.930 . S
C10 O24 1.275 . S
C10 O25 1.256 . S
C11 O26 1.259 . S
C11 O27 1.268 . S
C12 Ho1 2.811 . S
C12 C13 1.488 . S
C12 O28 1.215 . S
C12 O29 1.289 . S
C13 C12 1.488 . S
C13 C14 1.348 . S
C13 C18 1.413 . S
C14 C13 1.348 . S
C14 C15 1.442 . S
C14 H36 0.930 . S
C15 C14 1.442 . S
C15 C16 1.381 . S
C15 H37 0.931 . S
C16 C15 1.381 . S
C16 C17 1.321 . S
C17 C16 1.321 . S
C17 C18 1.403 . S
C17 H38 0.934 . S
C18 C13 1.413 . S
C18 C17 1.403 . S
C18 H39 0.930 . S
C19 O30 1.275 . S
C19 O31 1.256 . S
O20 Ho0 2.322 . S
O20 C2 1.259 . S
O21 Ho1 2.346 1_455 S
O21 C2 1.268 . S
O22 Ho0 2.378 . S
O22 C3 1.215 . S
O23 Ho0 2.524 . S
O23 C3 1.289 . S
O24 Ho0 2.381 . S
O24 C10 1.275 . S
O25 Ho0 2.669 . S
O25 Ho1 2.305 1_455 S
O25 C10 1.256 . S
O26 Ho1 2.322 . S
O26 C11 1.259 . S
O27 Ho0 2.346 1_655 S
O27 C11 1.268 . S
O28 Ho1 2.378 . S
O28 C12 1.215 . S
O29 Ho1 2.524 . S
O29 C12 1.289 . S
O30 Ho1 2.381 1_455 S
O30 C19 1.275 . S
O31 Ho0 2.305 . S
O31 Ho1 2.669 1_455 S
O31 C19 1.256 . S
H32 C5 0.930 . S
H33 C6 0.931 . S
H34 C8 0.934 . S
H35 C9 0.930 . S
H36 C14 0.930 . S
H37 C15 0.931 . S
H38 C17 0.934 . S
H39 C18 0.930 . S
Ho40 C43 2.811 . S
Ho40 O60 2.322 . S
Ho40 O62 2.378 . S
Ho40 O63 2.524 . S
Ho40 O64 2.381 . S
Ho40 O65 2.669 1_565 S
Ho40 O67 2.346 1_565 S
Ho40 O71 2.305 1_565 S
Ho41 C52 2.811 . S
Ho41 O61 2.346 1_545 S
Ho41 O65 2.305 . S
Ho41 O66 2.322 . S
Ho41 O68 2.378 . S
Ho41 O69 2.524 . S
Ho41 O70 2.381 . S
Ho41 O71 2.669 . S
C42 O60 1.259 . S
C42 O61 1.268 . S
C43 Ho40 2.811 . S
C43 C44 1.488 . S
C43 O62 1.215 . S
C43 O63 1.289 . S
C44 C43 1.488 . S
C44 C45 1.348 . S
C44 C49 1.413 . S
C45 C44 1.348 . S
C45 C46 1.442 . S
C45 H72 0.930 . S
C46 C45 1.442 . S
C46 C47 1.381 . S
C46 H73 0.931 . S
C47 C46 1.381 . S
C47 C48 1.321 . S
C48 C47 1.321 . S
C48 C49 1.403 . S
C48 H74 0.934 . S
C49 C44 1.413 . S
C49 C48 1.403 . S
C49 H75 0.930 . S
C50 O64 1.275 1_545 S
C50 O65 1.256 . S
C51 O66 1.259 . S
C51 O67 1.268 . S
C52 Ho41 2.811 . S
C52 C53 1.488 . S
C52 O68 1.215 . S
C52 O69 1.289 . S
C53 C52 1.488 . S
C53 C54 1.348 . S
C53 C58 1.413 . S
C54 C53 1.348 . S
C54 C55 1.442 . S
C54 H76 0.930 . S
C55 C54 1.442 . S
C55 C56 1.381 . S
C55 H77 0.931 . S
C56 C55 1.381 . S
C56 C57 1.321 . S
C57 C56 1.321 . S
C57 C58 1.403 . S
C57 H78 0.934 . S
C58 C53 1.413 . S
C58 C57 1.403 . S
C58 H79 0.930 . S
C59 O70 1.275 . S
C59 O71 1.256 . S
O60 Ho40 2.322 . S
O60 C42 1.259 . S
O61 Ho41 2.346 1_565 S
O61 C42 1.268 . S
O62 Ho40 2.378 . S
O62 C43 1.215 . S
O63 Ho40 2.524 . S
O63 C43 1.289 . S
O64 Ho40 2.381 . S
O64 C50 1.275 1_565 S
O65 Ho40 2.669 1_545 S
O65 Ho41 2.305 . S
O65 C50 1.256 . S
O66 Ho41 2.322 . S
O66 C51 1.259 . S
O67 Ho40 2.346 1_545 S
O67 C51 1.268 . S
O68 Ho41 2.378 . S
O68 C52 1.215 . S
O69 Ho41 2.524 . S
O69 C52 1.289 . S
O70 Ho41 2.381 . S
O70 C59 1.275 . S
O71 Ho40 2.305 1_545 S
O71 Ho41 2.669 . S
O71 C59 1.256 . S
H72 C45 0.930 . S
H73 C46 0.931 . S
H74 C48 0.934 . S
H75 C49 0.930 . S
H76 C54 0.930 . S
H77 C55 0.931 . S
H78 C57 0.934 . S
H79 C58 0.930 . S
Ho80 C83 2.811 . S
Ho80 O100 2.322 . S
Ho80 O102 2.378 . S
Ho80 O103 2.524 . S
Ho80 O104 2.381 . S
Ho80 O105 2.669 . S
Ho80 O107 2.346 . S
Ho80 O111 2.305 . S
Ho81 C92 2.811 . S
Ho81 O101 2.346 . S
Ho81 O105 2.305 . S
Ho81 O106 2.322 . S
Ho81 O108 2.378 . S
Ho81 O109 2.524 . S
Ho81 O110 2.381 . S
Ho81 O111 2.669 . S
C82 O100 1.259 . S
C82 O101 1.268 . S
C83 Ho80 2.811 . S
C83 C84 1.488 . S
C83 O102 1.215 . S
C83 O103 1.289 . S
C84 C83 1.488 . S
C84 C85 1.348 . S
C84 C89 1.413 . S
C85 C84 1.348 . S
C85 C86 1.442 . S
C85 H112 0.930 . S
C86 C85 1.442 . S
C86 C87 1.381 . S
C86 H113 0.931 . S
C87 C86 1.381 . S
C87 C88 1.321 . S
C88 C87 1.321 . S
C88 C89 1.403 . S
C88 H114 0.934 . S
C89 C84 1.413 . S
C89 C88 1.403 . S
C89 H115 0.930 . S
C90 O104 1.275 . S
C90 O105 1.256 . S
C91 O106 1.259 . S
C91 O107 1.268 . S
C92 Ho81 2.811 . S
C92 C93 1.488 . S
C92 O108 1.215 . S
C92 O109 1.289 . S
C93 C92 1.488 . S
C93 C94 1.348 . S
C93 C98 1.413 . S
C94 C93 1.348 . S
C94 C95 1.442 . S
C94 H116 0.930 . S
C95 C94 1.442 . S
C95 C96 1.381 . S
C95 H117 0.931 . S
C96 C95 1.381 . S
C96 C97 1.321 . S
C97 C96 1.321 . S
C97 C98 1.403 . S
C97 H118 0.934 . S
C98 C93 1.413 . S
C98 C97 1.403 . S
C98 H119 0.930 . S
C99 O110 1.275 . S
C99 O111 1.256 . S
O100 Ho80 2.322 . S
O100 C82 1.259 . S
O101 Ho81 2.346 . S
O101 C82 1.268 . S
O102 Ho80 2.378 . S
O102 C83 1.215 . S
O103 Ho80 2.524 . S
O103 C83 1.289 . S
O104 Ho80 2.381 . S
O104 C90 1.275 . S
O105 Ho80 2.669 . S
O105 Ho81 2.305 . S
O105 C90 1.256 . S
O106 Ho81 2.322 . S
O106 C91 1.259 . S
O107 Ho80 2.346 . S
O107 C91 1.268 . S
O108 Ho81 2.378 . S
O108 C92 1.215 . S
O109 Ho81 2.524 . S
O109 C92 1.289 . S
O110 Ho81 2.381 . S
O110 C99 1.275 . S
O111 Ho80 2.305 . S
O111 Ho81 2.669 . S
O111 C99 1.256 . S
H112 C85 0.930 . S
H113 C86 0.931 . S
H114 C88 0.934 . S
H115 C89 0.930 . S
H116 C94 0.930 . S
H117 C95 0.931 . S
H118 C97 0.934 . S
H119 C98 0.930 . S
C120 C121 1.386 . S
C120 C122 1.397 . S
C120 H144 0.931 . S
C121 C120 1.386 . S
C121 C125 1.397 1_545 S
C122 C120 1.397 . S
C122 C123 1.384 . S
C122 H145 0.930 . S
C123 C122 1.384 . S
C123 C124 1.377 1_545 S
C123 C126 1.481 . S
C124 C123 1.377 1_565 S
C124 C125 1.389 . S
C124 H146 0.929 . S
C125 C121 1.397 1_565 S
C125 C124 1.389 . S
C125 H147 0.931 . S
C126 C123 1.481 . S
C126 C127 1.387 . S
C126 C131 1.390 1_545 S
C127 C126 1.387 . S
C127 C128 1.401 . S
C127 H148 0.930 . S
C128 C127 1.401 . S
C128 C129 1.376 . S
C128 C137 1.511 . S
C129 C128 1.376 . S
C129 C130 1.392 1_545 S
C129 H150 0.931 . S
C130 C129 1.392 1_565 S
C130 C131 1.361 . S
C130 C132 1.500 . S
C131 C126 1.390 1_565 S
C131 C130 1.361 . S
C131 H149 0.931 . S
C132 C130 1.500 . S
C132 C133 1.371 . S
C132 C134 1.365 . S
C133 C132 1.371 . S
C133 C143 1.386 . S
C133 H151 0.931 . S
C134 C132 1.365 . S
C134 C135 1.409 . S
C134 H152 0.929 . S
C135 C134 1.409 . S
C135 C136 1.380 . S
C135 H153 0.930 . S
C136 C135 1.380 . S
C136 C143 1.357 . S
C137 C128 1.511 . S
C137 C138 1.341 . S
C137 C139 1.371 . S
C138 C137 1.341 . S
C138 C142 1.394 . S
C138 H154 0.930 . S
C139 C137 1.371 . S
C139 C140 1.392 . S
C139 H155 0.931 . S
C140 C139 1.392 . S
C140 C141 1.331 . S
C140 H158 0.932 . S
C141 C140 1.331 . S
C141 C142 1.336 . S
C142 C138 1.394 . S
C142 C141 1.336 . S
C142 H157 0.929 . S
C143 C133 1.386 . S
C143 C136 1.357 . S
C143 H156 0.928 . S
H144 C120 0.931 . S
H145 C122 0.930 . S
H146 C124 0.929 . S
H147 C125 0.931 . S
H148 C127 0.930 . S
H149 C131 0.931 . S
H150 C129 0.931 . S
H151 C133 0.931 . S
H152 C134 0.929 . S
H153 C135 0.930 . S
H154 C138 0.930 . S
H155 C139 0.931 . S
H156 C143 0.928 . S
H157 C142 0.929 . S
H158 C140 0.932 . S
C159 C160 1.386 . S
C159 C161 1.397 . S
C159 H183 0.931 . S
C160 C159 1.386 . S
C160 C164 1.397 . S
C161 C159 1.397 . S
C161 C162 1.384 . S
C161 H184 0.930 . S
C162 C161 1.384 . S
C162 C163 1.377 . S
C162 C165 1.481 . S
C163 C162 1.377 . S
C163 C164 1.389 . S
C163 H185 0.929 . S
C164 C160 1.397 . S
C164 C163 1.389 . S
C164 H186 0.931 . S
C165 C162 1.481 . S
C165 C166 1.387 . S
C165 C170 1.390 . S
C166 C165 1.387 . S
C166 C167 1.401 . S
C166 H187 0.930 . S
C167 C166 1.401 . S
C167 C168 1.376 . S
C167 C176 1.511 . S
C168 C167 1.376 . S
C168 C169 1.392 . S
C168 H189 0.931 . S
C169 C168 1.392 . S
C169 C170 1.361 . S
C169 C171 1.500 . S
C170 C165 1.390 . S
C170 C169 1.361 . S
C170 H188 0.931 . S
C171 C169 1.500 . S
C171 C172 1.371 . S
C171 C173 1.365 . S
C172 C171 1.371 . S
C172 C182 1.386 . S
C172 H190 0.931 . S
C173 C171 1.365 . S
C173 C174 1.409 . S
C173 H191 0.929 . S
C174 C173 1.409 . S
C174 C175 1.380 . S
C174 H192 0.930 . S
C175 C174 1.380 . S
C175 C182 1.357 . S
C176 C167 1.511 . S
C176 C177 1.341 . S
C176 C178 1.371 . S
C177 C176 1.341 . S
C177 C181 1.394 . S
C177 H193 0.930 . S
C178 C176 1.371 . S
C178 C179 1.392 . S
C178 H194 0.931 . S
C179 C178 1.392 . S
C179 C180 1.331 . S
C179 H197 0.932 . S
C180 C179 1.331 . S
C180 C181 1.336 . S
C181 C177 1.394 . S
C181 C180 1.336 . S
C181 H196 0.929 . S
C182 C172 1.386 . S
C182 C175 1.357 . S
C182 H195 0.928 . S
H183 C159 0.931 . S
H184 C161 0.930 . S
H185 C163 0.929 . S
H186 C164 0.931 . S
H187 C166 0.930 . S
H188 C170 0.931 . S
H189 C168 0.931 . S
H190 C172 0.931 . S
H191 C173 0.929 . S
H192 C174 0.930 . S
H193 C177 0.930 . S
H194 C178 0.931 . S
H195 C182 0.928 . S
H196 C181 0.929 . S
H197 C179 0.932 . S
C198 C199 1.386 . S
C198 C200 1.397 . S
C198 H222 0.931 . S
C199 C198 1.386 . S
C199 C203 1.397 . S
C200 C198 1.397 . S
C200 C201 1.384 . S
C200 H223 0.930 . S
C201 C200 1.384 . S
C201 C202 1.377 . S
C201 C204 1.481 . S
C202 C201 1.377 . S
C202 C203 1.389 . S
C202 H224 0.929 1_455 S
C203 C199 1.397 . S
C203 C202 1.389 . S
C203 H225 0.931 1_455 S
C204 C201 1.481 . S
C204 C205 1.387 . S
C204 C209 1.390 . S
C205 C204 1.387 . S
C205 C206 1.401 . S
C205 H226 0.930 . S
C206 C205 1.401 . S
C206 C207 1.376 . S
C206 C215 1.511 . S
C207 C206 1.376 . S
C207 C208 1.392 . S
C207 H228 0.931 . S
C208 C207 1.392 . S
C208 C209 1.361 . S
C208 C210 1.500 1_455 S
C209 C204 1.390 . S
C209 C208 1.361 . S
C209 H227 0.931 . S
C210 C208 1.500 1_655 S
C210 C211 1.371 . S
C210 C212 1.365 . S
C211 C210 1.371 . S
C211 C221 1.391 . S
C211 H229 0.926 1_655 S
C212 C210 1.365 . S
C212 C213 1.409 . S
C212 H230 0.929 . S
C213 C212 1.409 . S
C213 C214 1.380 . S
C213 H231 0.930 . S
C214 C213 1.380 . S
C214 C221 1.357 . S
C215 C206 1.511 . S
C215 C216 1.341 . S
C215 C217 1.371 . S
C216 C215 1.341 . S
C216 C220 1.394 . S
C216 H232 0.930 . S
C217 C215 1.371 . S
C217 C218 1.392 . S
C217 H233 0.931 . S
C218 C217 1.392 . S
C218 C219 1.331 . S
C218 H236 0.932 . S
C219 C218 1.331 . S
C219 C220 1.336 . S
C220 C216 1.394 . S
C220 C219 1.336 . S
C220 H235 0.929 . S
C221 C211 1.391 . S
C221 C214 1.357 . S
C221 H234 0.928 . S
H222 C198 0.931 . S
H223 C200 0.930 . S
H224 C202 0.929 1_655 S
H225 C203 0.931 1_655 S
H226 C205 0.930 . S
H227 C209 0.931 . S
H228 C207 0.931 . S
H229 C211 0.926 1_455 S
H230 C212 0.929 . S
H231 C213 0.930 . S
H232 C216 0.930 . S
H233 C217 0.931 . S
H234 C221 0.928 . S
H235 C220 0.929 . S
H236 C218 0.932 . S
C237 C238 1.403 . S
C237 C239 1.397 . S
C237 H261 0.931 . S
C238 C237 1.403 . S
C238 C242 1.381 1_655 S
C239 C237 1.397 . S
C239 C240 1.384 . S
C239 H262 0.930 . S
C240 C239 1.384 . S
C240 C241 1.377 1_655 S
C240 C243 1.481 . S
C241 C240 1.377 1_455 S
C241 C242 1.389 . S
C241 H263 0.929 . S
C242 C238 1.381 1_455 S
C242 C241 1.389 . S
C242 H264 0.931 . S
C243 C240 1.481 . S
C243 C244 1.387 . S
C243 C248 1.390 1_655 S
C244 C243 1.387 . S
C244 C245 1.401 . S
C244 H265 0.930 . S
C245 C244 1.401 . S
C245 C246 1.376 . S
C245 C254 1.511 . S
C246 C245 1.376 . S
C246 C247 1.392 1_655 S
C246 H267 0.931 . S
C247 C246 1.392 1_455 S
C247 C248 1.361 . S
C247 C249 1.500 . S
C248 C243 1.390 1_455 S
C248 C247 1.361 . S
C248 H266 0.931 . S
C249 C247 1.500 . S
C249 C250 1.371 . S
C249 C251 1.365 . S
C250 C249 1.371 . S
C250 C260 1.386 . S
C250 H268 0.931 . S
C251 C249 1.365 . S
C251 C252 1.409 . S
C251 H269 0.929 . S
C252 C251 1.409 . S
C252 C253 1.380 . S
C252 H270 0.930 . S
C253 C252 1.380 . S
C253 C260 1.357 . S
C254 C245 1.511 . S
C254 C255 1.341 . S
C254 C256 1.371 . S
C255 C254 1.341 . S
C255 C259 1.394 . S
C255 H271 0.930 . S
C256 C254 1.371 . S
C256 C257 1.392 . S
C256 H272 0.931 . S
C257 C256 1.392 . S
C257 C258 1.331 . S
C257 H275 0.932 . S
C258 C257 1.331 . S
C258 C259 1.336 . S
C259 C255 1.394 . S
C259 C258 1.336 . S
C259 H274 0.929 . S
C260 C250 1.386 . S
C260 C253 1.357 . S
C260 H273 0.928 . S
H261 C237 0.931 . S
H262 C239 0.930 . S
H263 C241 0.929 . S
H264 C242 0.931 . S
H265 C244 0.930 . S
H266 C248 0.931 . S
H267 C246 0.931 . S
H268 C250 0.931 . S
H269 C251 0.929 . S
H270 C252 0.930 . S
H271 C255 0.930 . S
H272 C256 0.931 . S
H273 C260 0.928 . S
H274 C259 0.929 . S
H275 C257 0.932 . S
C276 C277 1.386 . S
C276 C278 1.397 . S
C276 H300 0.931 . S
C277 C276 1.386 . S
C277 C281 1.397 1_565 S
C278 C276 1.397 . S
C278 C279 1.384 . S
C278 H301 0.930 . S
C279 C278 1.384 . S
C279 C280 1.377 1_565 S
C279 C282 1.481 1_565 S
C280 C279 1.377 1_545 S
C280 C281 1.389 . S
C280 H302 0.929 . S
C281 C277 1.397 1_545 S
C281 C280 1.389 . S
C281 H303 0.931 . S
C282 C279 1.481 1_545 S
C282 C283 1.378 1_545 S
C282 C287 1.399 . S
C283 C282 1.378 1_565 S
C283 C284 1.401 . S
C283 H304 0.930 . S
C284 C283 1.401 . S
C284 C285 1.376 1_565 S
C284 C293 1.511 . S
C285 C284 1.376 1_545 S
C285 C286 1.392 . S
C285 H306 0.931 . S
C286 C285 1.392 . S
C286 C287 1.361 . S
C286 C288 1.500 . S
C287 C282 1.399 . S
C287 C286 1.361 . S
C287 H305 0.931 . S
C288 C286 1.500 . S
C288 C289 1.371 . S
C288 C290 1.365 . S
C289 C288 1.371 . S
C289 C299 1.386 . S
C289 H307 0.931 . S
C290 C288 1.365 . S
C290 C291 1.409 . S
C290 H308 0.929 . S
C291 C290 1.409 . S
C291 C292 1.380 . S
C291 H309 0.930 . S
C292 C291 1.380 . S
C292 C299 1.357 . S
C293 C284 1.511 . S
C293 C294 1.341 . S
C293 C295 1.371 . S
C294 C293 1.341 . S
C294 C298 1.394 . S
C294 H310 0.930 . S
C295 C293 1.371 . S
C295 C296 1.392 . S
C295 H311 0.931 . S
C296 C295 1.392 . S
C296 C297 1.331 . S
C296 H314 0.932 . S
C297 C296 1.331 . S
C297 C298 1.336 . S
C298 C294 1.394 . S
C298 C297 1.336 . S
C298 H313 0.929 . S
C299 C289 1.386 . S
C299 C292 1.357 . S
C299 H312 0.928 . S
H300 C276 0.931 . S
H301 C278 0.930 . S
H302 C280 0.929 . S
H303 C281 0.931 . S
H304 C283 0.930 . S
H305 C287 0.931 . S
H306 C285 0.931 . S
H307 C289 0.931 . S
H308 C290 0.929 . S
H309 C291 0.930 . S
H310 C294 0.930 . S
H311 C295 0.931 . S
H312 C299 0.928 . S
H313 C298 0.929 . S
H314 C296 0.932 . S
C315 C316 1.386 . S
C315 C317 1.397 . S
C315 H339 0.931 . S
C316 C315 1.386 . S
C316 C320 1.397 . S
C317 C315 1.397 . S
C317 C318 1.384 . S
C317 H340 0.930 . S
C318 C317 1.384 . S
C318 C319 1.377 . S
C318 C321 1.481 . S
C319 C318 1.377 . S
C319 C320 1.389 . S
C319 H341 0.929 . S
C320 C316 1.397 . S
C320 C319 1.389 . S
C320 H342 0.931 . S
C321 C318 1.481 . S
C321 C322 1.387 . S
C321 C326 1.390 . S
C322 C321 1.387 . S
C322 C323 1.401 . S
C322 H343 0.930 . S
C323 C322 1.401 . S
C323 C324 1.376 . S
C323 C332 1.511 . S
C324 C323 1.376 . S
C324 C325 1.392 . S
C324 H345 0.931 . S
C325 C324 1.392 . S
C325 C326 1.361 . S
C325 C327 1.500 . S
C326 C321 1.390 . S
C326 C325 1.361 . S
C326 H344 0.931 . S
C327 C325 1.500 . S
C327 C328 1.371 . S
C327 C329 1.365 . S
C328 C327 1.371 . S
C328 C338 1.386 . S
C328 H346 0.931 . S
C329 C327 1.365 . S
C329 C330 1.409 . S
C329 H347 0.929 . S
C330 C329 1.409 . S
C330 C331 1.380 . S
C330 H348 0.930 . S
C331 C330 1.380 . S
C331 C338 1.357 . S
C332 C323 1.511 . S
C332 C333 1.341 . S
C332 C334 1.371 . S
C333 C332 1.341 . S
C333 C337 1.394 . S
C333 H349 0.930 . S
C334 C332 1.371 . S
C334 C335 1.392 . S
C334 H350 0.931 . S
C335 C334 1.392 . S
C335 C336 1.331 . S
C335 H353 0.932 . S
C336 C335 1.331 . S
C336 C337 1.336 . S
C337 C333 1.394 . S
C337 C336 1.336 . S
C337 H352 0.929 . S
C338 C328 1.386 . S
C338 C331 1.357 . S
C338 H351 0.928 . S
H339 C315 0.931 . S
H340 C317 0.930 . S
H341 C319 0.929 . S
H342 C320 0.931 . S
H343 C322 0.930 . S
H344 C326 0.931 . S
H345 C324 0.931 . S
H346 C328 0.931 . S
H347 C329 0.929 . S
H348 C330 0.930 . S
H349 C333 0.930 . S
H350 C334 0.931 . S
H351 C338 0.928 . S
H352 C337 0.929 . S
H353 C335 0.932 . S
H354 C360 0.930 . S
H355 C364 0.930 . S
H356 C369 0.929 . S
H357 C367 0.929 . S
H358 C362 0.929 . S
H359 C368 0.929 . S
C360 H354 0.930 . S
C360 C361 1.367 . S
C360 C368 1.378 . S
C361 C360 1.367 . S
C361 C369 1.433 . S
C362 H358 0.929 . S
C362 C364 1.378 . S
C362 C366 1.350 . S
C363 C366 1.463 . S
C363 C368 1.350 . S
C363 N371 1.427 . S
C364 H355 0.930 . S
C364 C362 1.378 . S
C364 C365 1.367 . S
C365 C364 1.367 . S
C365 C367 1.433 . S
C366 C362 1.350 . S
C366 C363 1.463 . S
C366 N370 1.427 . S
C367 H357 0.929 . S
C367 C365 1.433 . S
C367 N370 1.384 . S
C368 H359 0.929 . S
C368 C360 1.378 . S
C368 C363 1.350 . S
C369 H356 0.929 . S
C369 C361 1.433 . S
C369 N371 1.384 . S
N370 C366 1.427 . S
N370 C367 1.384 . S
N371 C363 1.427 . S
N371 C369 1.384 . S
H372 C378 0.930 . S
H373 C382 0.930 . S
H374 C387 0.929 . S
H375 C385 0.929 . S
H376 C380 0.929 . S
H377 C386 0.929 . S
C378 H372 0.930 . S
C378 C379 1.367 . S
C378 C386 1.378 . S
C379 C378 1.367 . S
C379 C387 1.433 . S
C380 H376 0.929 . S
C380 C382 1.378 . S
C380 C384 1.350 . S
C381 C384 1.463 . S
C381 C386 1.350 . S
C381 N389 1.427 . S
C382 H373 0.930 . S
C382 C380 1.378 . S
C382 C383 1.367 . S
C383 C382 1.367 . S
C383 C385 1.433 . S
C384 C380 1.350 . S
C384 C381 1.463 . S
C384 N388 1.427 . S
C385 H375 0.929 . S
C385 C383 1.433 . S
C385 N388 1.384 . S
C386 H377 0.929 . S
C386 C378 1.378 . S
C386 C381 1.350 . S
C387 H374 0.929 . S
C387 C379 1.433 . S
C387 N389 1.384 . S
N388 C384 1.427 . S
N388 C385 1.384 . S
N389 C381 1.427 . S
N389 C387 1.384 . S
H390 C396 0.930 . S
H391 C400 0.930 . S
H392 C405 0.929 . S
H393 C403 0.929 . S
H394 C398 0.929 . S
H395 C404 0.929 . S
C396 H390 0.930 . S
C396 C397 1.367 . S
C396 C404 1.378 . S
C397 C396 1.367 . S
C397 C405 1.433 . S
C398 H394 0.929 . S
C398 C400 1.378 . S
C398 C402 1.350 . S
C399 C402 1.463 . S
C399 C404 1.350 . S
C399 N407 1.427 . S
C400 H391 0.930 . S
C400 C398 1.378 . S
C400 C401 1.367 . S
C401 C400 1.367 . S
C401 C403 1.433 . S
C402 C398 1.350 . S
C402 C399 1.463 . S
C402 N406 1.427 . S
C403 H393 0.929 . S
C403 C401 1.433 . S
C403 N406 1.384 . S
C404 H395 0.929 . S
C404 C396 1.378 . S
C404 C399 1.350 . S
C405 H392 0.929 . S
C405 C397 1.433 . S
C405 N407 1.384 . S
N406 C402 1.427 . S
N406 C403 1.384 . S
N407 C399 1.427 . S
N407 C405 1.384 . S
H408 C414 0.930 . S
H409 C418 0.930 . S
H410 C423 0.929 . S
H411 C421 0.929 . S
H412 C416 0.929 . S
H413 C422 0.929 . S
C414 H408 0.930 . S
C414 C415 1.367 . S
C414 C422 1.378 . S
C415 C414 1.367 . S
C415 C423 1.433 . S
C416 H412 0.929 . S
C416 C418 1.378 . S
C416 C420 1.350 . S
C417 C420 1.463 . S
C417 C422 1.350 . S
C417 N425 1.427 . S
C418 H409 0.930 . S
C418 C416 1.378 . S
C418 C419 1.367 . S
C419 C418 1.367 . S
C419 C421 1.433 . S
C420 C416 1.350 . S
C420 C417 1.463 . S
C420 N424 1.427 . S
C421 H411 0.929 . S
C421 C419 1.433 . S
C421 N424 1.384 . S
C422 H413 0.929 . S
C422 C414 1.378 . S
C422 C417 1.350 . S
C423 H410 0.929 . S
C423 C415 1.433 . S
C423 N425 1.384 . S
N424 C420 1.427 . S
N424 C421 1.384 . S
N425 C417 1.427 . S
N425 C423 1.384 . S
H426 C432 0.930 . S
H427 C436 0.930 . S
H428 C441 0.929 . S
H429 C439 0.929 . S
H430 C434 0.929 . S
H431 C440 0.929 . S
C432 H426 0.930 . S
C432 C433 1.367 . S
C432 C440 1.378 . S
C433 C432 1.367 . S
C433 C441 1.433 . S
C434 H430 0.929 . S
C434 C436 1.378 . S
C434 C438 1.350 . S
C435 C438 1.463 . S
C435 C440 1.350 . S
C435 N443 1.427 . S
C436 H427 0.930 . S
C436 C434 1.378 . S
C436 C437 1.367 . S
C437 C436 1.367 . S
C437 C439 1.433 . S
C438 C434 1.350 . S
C438 C435 1.463 . S
C438 N442 1.427 . S
C439 H429 0.929 . S
C439 C437 1.433 . S
C439 N442 1.384 . S
C440 H431 0.929 . S
C440 C432 1.378 . S
C440 C435 1.350 . S
C441 H428 0.929 . S
C441 C433 1.433 . S
C441 N443 1.384 . S
N442 C438 1.427 . S
N442 C439 1.384 . S
N443 C435 1.427 . S
N443 C441 1.384 . S
H444 C450 0.930 . S
H445 C454 0.930 . S
H446 C459 0.929 . S
H447 C457 0.929 . S
H448 C452 0.929 . S
H449 C458 0.929 . S
C450 H444 0.930 . S
C450 C451 1.367 . S
C450 C458 1.378 . S
C451 C450 1.367 . S
C451 C459 1.433 . S
C452 H448 0.929 . S
C452 C454 1.378 . S
C452 C456 1.350 . S
C453 C456 1.463 . S
C453 C458 1.350 . S
C453 N461 1.427 . S
C454 H445 0.930 . S
C454 C452 1.378 . S
C454 C455 1.367 . S
C455 C454 1.367 . S
C455 C457 1.433 . S
C456 C452 1.350 . S
C456 C453 1.463 . S
C456 N460 1.427 . S
C457 H447 0.929 . S
C457 C455 1.433 . S
C457 N460 1.384 . S
C458 H449 0.929 . S
C458 C450 1.378 . S
C458 C453 1.350 . S
C459 H446 0.929 . S
C459 C451 1.433 . S
C459 N461 1.384 . S
N460 C456 1.427 . S
N460 C457 1.384 . S
N461 C453 1.427 . S
N461 C459 1.384 . S
H462 C468 0.930 . S
H463 C472 0.930 . S
H464 C477 0.929 . S
H465 C475 0.929 . S
H466 C470 0.929 . S
H467 C476 0.929 . S
C468 H462 0.930 . S
C468 C469 1.367 . S
C468 C476 1.378 . S
C469 C468 1.367 . S
C469 C477 1.433 . S
C470 H466 0.929 . S
C470 C472 1.378 . S
C470 C474 1.350 . S
C471 C474 1.463 . S
C471 C476 1.350 . S
C471 N479 1.427 . S
C472 H463 0.930 . S
C472 C470 1.378 . S
C472 C473 1.367 . S
C473 C472 1.367 . S
C473 C475 1.433 . S
C474 C470 1.350 . S
C474 C471 1.463 . S
C474 N478 1.427 . S
C475 H465 0.929 . S
C475 C473 1.433 . S
C475 N478 1.384 . S
C476 H467 0.929 . S
C476 C468 1.378 . S
C476 C471 1.350 . S
C477 H464 0.929 . S
C477 C469 1.433 . S
C477 N479 1.384 . S
N478 C474 1.427 . S
N478 C475 1.384 . S
N479 C471 1.427 . S
N479 C477 1.384 . S
H480 C486 0.930 . S
H481 C490 0.930 . S
H482 C495 0.929 . S
H483 C493 0.929 . S
H484 C488 0.929 . S
H485 C494 0.929 . S
C486 H480 0.930 . S
C486 C487 1.367 . S
C486 C494 1.378 . S
C487 C486 1.367 . S
C487 C495 1.433 . S
C488 H484 0.929 . S
C488 C490 1.378 . S
C488 C492 1.350 . S
C489 C492 1.463 . S
C489 C494 1.350 . S
C489 N497 1.427 . S
C490 H481 0.930 . S
C490 C488 1.378 . S
C490 C491 1.367 . S
C491 C490 1.367 . S
C491 C493 1.433 . S
C492 C488 1.350 . S
C492 C489 1.463 . S
C492 N496 1.427 . S
C493 H483 0.929 . S
C493 C491 1.433 . S
C493 N496 1.384 . S
C494 H485 0.929 . S
C494 C486 1.378 . S
C494 C489 1.350 . S
C495 H482 0.929 . S
C495 C487 1.433 . S
C495 N497 1.384 . S
N496 C492 1.427 . S
N496 C493 1.384 . S
N497 C489 1.427 . S
N497 C495 1.384 . S
H498 C504 0.930 . S
H499 C508 0.930 . S
H500 C513 0.929 . S
H501 C511 0.929 . S
H502 C506 0.929 . S
H503 C512 0.929 . S
C504 H498 0.930 . S
C504 C505 1.367 . S
C504 C512 1.378 . S
C505 C504 1.367 . S
C505 C513 1.433 . S
C506 H502 0.929 . S
C506 C508 1.378 . S
C506 C510 1.350 . S
C507 C510 1.463 . S
C507 C512 1.350 . S
C507 N515 1.427 . S
C508 H499 0.930 . S
C508 C506 1.378 . S
C508 C509 1.367 . S
C509 C508 1.367 . S
C509 C511 1.433 . S
C510 C506 1.350 . S
C510 C507 1.463 . S
C510 N514 1.427 . S
C511 H501 0.929 . S
C511 C509 1.433 . S
C511 N514 1.384 . S
C512 H503 0.929 . S
C512 C504 1.378 . S
C512 C507 1.350 . S
C513 H500 0.929 . S
C513 C505 1.433 . S
C513 N515 1.384 . S
N514 C510 1.427 . S
N514 C511 1.384 . S
N515 C507 1.427 . S
N515 C513 1.384 . S
H516 C522 0.930 . S
H517 C526 0.930 . S
H518 C531 0.929 . S
H519 C529 0.929 . S
H520 C524 0.929 . S
H521 C530 0.929 . S
C522 H516 0.930 . S
C522 C523 1.367 . S
C522 C530 1.378 . S
C523 C522 1.367 . S
C523 C531 1.433 . S
C524 H520 0.929 . S
C524 C526 1.378 . S
C524 C528 1.350 . S
C525 C528 1.463 . S
C525 C530 1.350 . S
C525 N533 1.427 . S
C526 H517 0.930 . S
C526 C524 1.378 . S
C526 C527 1.367 . S
C527 C526 1.367 . S
C527 C529 1.433 . S
C528 C524 1.350 . S
C528 C525 1.463 . S
C528 N532 1.427 . S
C529 H519 0.929 . S
C529 C527 1.433 . S
C529 N532 1.384 . S
C530 H521 0.929 . S
C530 C522 1.378 . S
C530 C525 1.350 . S
C531 H518 0.929 . S
C531 C523 1.433 . S
C531 N533 1.384 . S
N532 C528 1.427 . S
N532 C529 1.384 . S
N533 C525 1.427 . S
N533 C531 1.384 . S
H534 C540 0.930 . S
H535 C544 0.930 . S
H536 C549 0.929 . S
H537 C547 0.929 . S
H538 C542 0.929 . S
H539 C548 0.929 . S
C540 H534 0.930 . S
C540 C541 1.367 . S
C540 C548 1.378 . S
C541 C540 1.367 . S
C541 C549 1.433 . S
C542 H538 0.929 . S
C542 C544 1.378 . S
C542 C546 1.350 . S
C543 C546 1.463 . S
C543 C548 1.350 . S
C543 N551 1.427 . S
C544 H535 0.930 . S
C544 C542 1.378 . S
C544 C545 1.367 . S
C545 C544 1.367 . S
C545 C547 1.433 . S
C546 C542 1.350 . S
C546 C543 1.463 . S
C546 N550 1.427 . S
C547 H537 0.929 . S
C547 C545 1.433 . S
C547 N550 1.384 . S
C548 H539 0.929 . S
C548 C540 1.378 . S
C548 C543 1.350 . S
C549 H536 0.929 . S
C549 C541 1.433 . S
C549 N551 1.384 . S
N550 C546 1.427 . S
N550 C547 1.384 . S
N551 C543 1.427 . S
N551 C549 1.384 . S
H552 C558 0.930 . S
H553 C562 0.930 . S
H554 C567 0.929 . S
H555 C565 0.929 . S
H556 C560 0.929 . S
H557 C566 0.929 . S
C558 H552 0.930 . S
C558 C559 1.367 . S
C558 C566 1.378 . S
C559 C558 1.367 . S
C559 C567 1.433 . S
C560 H556 0.929 . S
C560 C562 1.378 . S
C560 C564 1.350 . S
C561 C564 1.463 . S
C561 C566 1.350 . S
C561 N569 1.427 . S
C562 H553 0.930 . S
C562 C560 1.378 . S
C562 C563 1.367 . S
C563 C562 1.367 . S
C563 C565 1.433 . S
C564 C560 1.350 . S
C564 C561 1.463 . S
C564 N568 1.427 . S
C565 H555 0.929 . S
C565 C563 1.433 . S
C565 N568 1.384 . S
C566 H557 0.929 . S
C566 C558 1.378 . S
C566 C561 1.350 . S
C567 H554 0.929 . S
C567 C559 1.433 . S
C567 N569 1.384 . S
N568 C564 1.427 . S
N568 C565 1.384 . S
N569 C561 1.427 . S
N569 C567 1.384 . S
H570 C576 0.930 . S
H571 C580 0.930 1_655 S
H572 C585 0.929 . S
H573 C583 0.929 . S
H574 C578 0.929 1_655 S
H575 C584 0.929 . S
C576 H570 0.930 . S
C576 C577 1.367 . S
C576 C584 1.378 . S
C577 C576 1.367 . S
C577 C585 1.433 1_455 S
C578 H574 0.929 1_455 S
C578 C580 1.378 . S
C578 C582 1.350 . S
C579 C582 1.463 . S
C579 C584 1.350 . S
C579 N587 1.427 1_455 S
C580 H571 0.930 1_455 S
C580 C578 1.378 . S
C580 C581 1.367 . S
C581 C580 1.367 . S
C581 C583 1.433 . S
C582 C578 1.350 . S
C582 C579 1.463 . S
C582 N586 1.427 . S
C583 H573 0.929 . S
C583 C581 1.433 . S
C583 N586 1.384 . S
C584 H575 0.929 . S
C584 C576 1.378 . S
C584 C579 1.350 . S
C585 H572 0.929 . S
C585 C577 1.433 1_655 S
C585 N587 1.384 . S
N586 C582 1.427 . S
N586 C583 1.384 . S
N587 C579 1.427 1_655 S
N587 C585 1.384 . S
H588 C594 0.930 . S
H589 C598 0.930 1_565 S
H590 C603 0.929 . S
H591 C601 0.929 . S
H592 C596 0.929 1_565 S
H593 C602 0.929 . S
C594 H588 0.930 . S
C594 C595 1.367 . S
C594 C602 1.378 . S
C595 C594 1.367 . S
C595 C603 1.433 1_545 S
C596 H592 0.929 1_545 S
C596 C598 1.378 . S
C596 C600 1.350 . S
C597 C600 1.463 . S
C597 C602 1.350 . S
C597 N605 1.427 1_545 S
C598 H589 0.930 1_545 S
C598 C596 1.378 . S
C598 C599 1.367 . S
C599 C598 1.367 . S
C599 C601 1.433 . S
C600 C596 1.350 . S
C600 C597 1.463 . S
C600 N604 1.427 . S
C601 H591 0.929 . S
C601 C599 1.433 . S
C601 N604 1.384 . S
C602 H593 0.929 . S
C602 C594 1.378 . S
C602 C597 1.350 . S
C603 H590 0.929 . S
C603 C595 1.433 1_565 S
C603 N605 1.384 . S
N604 C600 1.427 . S
N604 C601 1.384 . S
N605 C597 1.427 1_565 S
N605 C603 1.384 . S
H606 C612 0.930 . S
H607 C616 0.930 . S
H608 C621 0.929 . S
H609 C619 0.929 . S
H610 C614 0.929 . S
H611 C620 0.929 . S
C612 H606 0.930 . S
C612 C613 1.367 . S
C612 C620 1.378 . S
C613 C612 1.367 . S
C613 C621 1.433 . S
C614 H610 0.929 . S
C614 C616 1.378 . S
C614 C618 1.350 . S
C615 C618 1.463 . S
C615 C620 1.350 . S
C615 N623 1.427 . S
C616 H607 0.930 . S
C616 C614 1.378 . S
C616 C617 1.367 . S
C617 C616 1.367 . S
C617 C619 1.433 . S
C618 C614 1.350 . S
C618 C615 1.463 . S
C618 N622 1.427 . S
C619 H609 0.929 . S
C619 C617 1.433 . S
C619 N622 1.384 . S
C620 H611 0.929 . S
C620 C612 1.378 . S
C620 C615 1.350 . S
C621 H608 0.929 . S
C621 C613 1.433 . S
C621 N623 1.384 . S
N622 C618 1.427 . S
N622 C619 1.384 . S
N623 C615 1.427 . S
N623 C621 1.384 . S
H624 C630 0.930 . S
H625 C634 0.930 . S
H626 C639 0.929 . S
H627 C637 0.929 . S
H628 C632 0.929 . S
H629 C638 0.929 . S
C630 H624 0.930 . S
C630 C631 1.367 1_565 S
C630 C638 1.378 . S
C631 C630 1.367 1_545 S
C631 C639 1.433 . S
C632 H628 0.929 . S
C632 C634 1.378 . S
C632 C636 1.350 . S
C633 C636 1.463 . S
C633 C638 1.350 1_545 S
C633 N641 1.427 . S
C634 H625 0.930 . S
C634 C632 1.378 . S
C634 C635 1.367 1_545 S
C635 C634 1.367 1_565 S
C635 C637 1.433 . S
C636 C632 1.350 . S
C636 C633 1.463 . S
C636 N640 1.427 1_545 S
C637 H627 0.929 . S
C637 C635 1.433 . S
C637 N640 1.384 . S
C638 H629 0.929 . S
C638 C630 1.378 . S
C638 C633 1.350 1_565 S
C639 H626 0.929 . S
C639 C631 1.433 . S
C639 N641 1.384 . S
N640 C636 1.427 1_565 S
N640 C637 1.384 . S
N641 C633 1.427 . S
N641 C639 1.384 . S
H642 C648 0.930 . S
H643 C652 0.930 . S
H644 C657 0.929 . S
H645 C655 0.929 . S
H646 C650 0.929 . S
H647 C656 0.929 . S
C648 H642 0.930 . S
C648 C649 1.367 . S
C648 C656 1.378 . S
C649 C648 1.367 . S
C649 C657 1.433 . S
C650 H646 0.929 . S
C650 C652 1.378 . S
C650 C654 1.350 . S
C651 C654 1.463 . S
C651 C656 1.350 . S
C651 N659 1.427 . S
C652 H643 0.930 . S
C652 C650 1.378 . S
C652 C653 1.367 . S
C653 C652 1.367 . S
C653 C655 1.433 . S
C654 C650 1.350 . S
C654 C651 1.463 . S
C654 N658 1.427 . S
C655 H645 0.929 . S
C655 C653 1.433 . S
C655 N658 1.384 . S
C656 H647 0.929 . S
C656 C648 1.378 . S
C656 C651 1.350 . S
C657 H644 0.929 . S
C657 C649 1.433 . S
C657 N659 1.384 . S
N658 C654 1.427 . S
N658 C655 1.384 . S
N659 C651 1.427 . S
N659 C657 1.384 . S
H660 C666 0.930 1_655 S
H661 C670 0.930 . S
H662 C675 0.929 . S
H663 C673 0.929 . S
H664 C668 0.929 . S
H665 C674 0.910 1_655 S
C666 H660 0.930 1_455 S
C666 C667 1.367 . S
C666 C674 1.380 . S
C667 C666 1.367 . S
C667 C675 1.433 . S
C668 H664 0.929 . S
C668 C670 1.378 . S
C668 C672 1.350 . S
C669 C672 1.463 . S
C669 C674 1.367 . S
C669 N677 1.427 . S
C670 H661 0.930 . S
C670 C668 1.378 . S
C670 C671 1.367 . S
C671 C670 1.367 . S
C671 C673 1.433 1_455 S
C672 C668 1.350 . S
C672 C669 1.463 . S
C672 N676 1.427 1_455 S
C673 H663 0.929 . S
C673 C671 1.433 1_655 S
C673 N676 1.384 . S
C674 H665 0.910 1_455 S
C674 C666 1.380 . S
C674 C669 1.367 . S
C675 H662 0.929 . S
C675 C667 1.433 . S
C675 N677 1.384 . S
N676 C672 1.427 1_655 S
N676 C673 1.384 . S
N677 C669 1.427 . S
N677 C675 1.384 . S
C361 C7 0.637 . S
C365 C331 0.607 . S
C379 C51 1.944 . S
C383 C258 1.907 . S
C397 C87 1.232 . S
C401 C297 1.248 . S
C415 C16 0.396 . S
C419 C336 0.318 . S
C437 C253 1.990 . S
C433 C42 2.047 . S
C455 C292 1.318 . S
C451 C96 1.307 . S
C469 C47 1.218 . S
C473 C180 1.229 . S
C487 C91 3.134 . S
C491 C214 3.081 . S
C505 C2 2.079 . S
C509 C136 2.035 . S
C527 C175 1.310 . S
C523 C56 1.288 . S
C545 C219 2.979 . S
C541 C82 3.009 . S
C559 C11 1.939 . S
C563 C141 1.909 . S
C581 C199 1.775 1_554 S
C577 C19 1.714 . S
C595 C50 1.337 . S
C599 C121 1.380 . S
C613 C99 1.469 . S
C617 C160 1.510 . S
C635 C277 1.491 . S
C631 C59 1.460 . S
C653 C316 1.104 1_556 S
C649 C90 1.099 . S
C667 C10 1.343 . S
C671 C238 1.367 1_455 S
