# Generated by pormake.
# Topology pyr, (3,6)-cn, num edge types: 1
# Building blocks:
#     Node 0, Type 0, BuildingBlock: ESEHIV_clean_linker_0, # of connection points: 3
#     Node 1, Type 0, BuildingBlock: ESEHIV_clean_linker_0, # of connection points: 3
#     Node 2, Type 0, BuildingBlock: ESEHIV_clean_linker_0, # of connection points: 3
#     Node 3, Type 0, BuildingBlock: ESEHIV_clean_linker_0, # of connection points: 3
#     Node 4, Type 0, BuildingBlock: ESEHIV_clean_linker_0, # of connection points: 3
#     Node 5, Type 0, BuildingBlock: ESEHIV_clean_linker_0, # of connection points: 3
#     Node 6, Type 0, BuildingBlock: ESEHIV_clean_linker_0, # of connection points: 3
#     Node 7, Type 0, BuildingBlock: ESEHIV_clean_linker_0, # of connection points: 3
#     Node 8, Type 1, BuildingBlock: BETFAJ_clean_sbu_0, # of connection points: 6
#     Node 9, Type 1, BuildingBlock: BETFAJ_clean_sbu_0, # of connection points: 6
#     Node 10, Type 1, BuildingBlock: BETFAJ_clean_sbu_0, # of connection points: 6
#     Node 11, Type 1, BuildingBlock: BETFAJ_clean_sbu_0, # of connection points: 6
#     Edge 12, Type (0, 1), BuildingBlock: OJICUG_clean_linker_0, # of connection points: 2
#     Edge 13, Type (0, 1), BuildingBlock: OJICUG_clean_linker_0, # of connection points: 2
#     Edge 14, Type (0, 1), BuildingBlock: OJICUG_clean_linker_0, # of connection points: 2
#     Edge 15, Type (0, 1), BuildingBlock: OJICUG_clean_linker_0, # of connection points: 2
#     Edge 16, Type (0, 1), BuildingBlock: OJICUG_clean_linker_0, # of connection points: 2
#     Edge 17, Type (0, 1), BuildingBlock: OJICUG_clean_linker_0, # of connection points: 2
#     Edge 18, Type (0, 1), BuildingBlock: OJICUG_clean_linker_0, # of connection points: 2
#     Edge 19, Type (0, 1), BuildingBlock: OJICUG_clean_linker_0, # of connection points: 2
#     Edge 20, Type (0, 1), BuildingBlock: OJICUG_clean_linker_0, # of connection points: 2
#     Edge 21, Type (0, 1), BuildingBlock: OJICUG_clean_linker_0, # of connection points: 2
#     Edge 22, Type (0, 1), BuildingBlock: OJICUG_clean_linker_0, # of connection points: 2
#     Edge 23, Type (0, 1), BuildingBlock: OJICUG_clean_linker_0, # of connection points: 2
#     Edge 24, Type (0, 1), BuildingBlock: OJICUG_clean_linker_0, # of connection points: 2
#     Edge 25, Type (0, 1), BuildingBlock: OJICUG_clean_linker_0, # of connection points: 2
#     Edge 26, Type (0, 1), BuildingBlock: OJICUG_clean_linker_0, # of connection points: 2
#     Edge 27, Type (0, 1), BuildingBlock: OJICUG_clean_linker_0, # of connection points: 2
#     Edge 28, Type (0, 1), BuildingBlock: OJICUG_clean_linker_0, # of connection points: 2
#     Edge 29, Type (0, 1), BuildingBlock: OJICUG_clean_linker_0, # of connection points: 2
#     Edge 30, Type (0, 1), BuildingBlock: OJICUG_clean_linker_0, # of connection points: 2
#     Edge 31, Type (0, 1), BuildingBlock: OJICUG_clean_linker_0, # of connection points: 2
#     Edge 32, Type (0, 1), BuildingBlock: OJICUG_clean_linker_0, # of connection points: 2
#     Edge 33, Type (0, 1), BuildingBlock: OJICUG_clean_linker_0, # of connection points: 2
#     Edge 34, Type (0, 1), BuildingBlock: OJICUG_clean_linker_0, # of connection points: 2
#     Edge 35, Type (0, 1), BuildingBlock: OJICUG_clean_linker_0, # of connection points: 2
# Relax obj value: 0.225
# Max RMSD: 0.157
# Mean RMSD: 0.076
data_MOF--net-pyr--node1-BETFAJ_clean_sbu_0--node2-ESEHIV_clean_linker_0--edge1-OJICUG_clean_linker_0
_symmetry_space_group_name_H-M    P1
_symmetry_Int_Tables_number       1
_symmetry_cell_setting            triclinic
loop_
_symmetry_equiv_pos_as_xyz
'x, y, z'
_cell_length_a     25.95741
_cell_length_b     27.045468
_cell_length_c     24.090415
_cell_angle_alpha  90.047091
_cell_angle_beta   88.608082
_cell_angle_gamma 104.11324
loop_
_atom_site_label
_atom_site_type_symbol
_atom_site_fract_x
_atom_site_fract_y
_atom_site_fract_z
_atom_type_partial_charge
H0 H 0.37541 0.38486 0.36924 0.0
H1 H 0.50667 0.31576 0.34407 0.0
H2 H 0.43566 0.36927 0.20492 0.0
C3 C 0.40647 0.37663 0.34267 0.0
C4 C 0.40472 0.38527 0.28526 0.0
C5 C 0.44177 0.34979 0.36435 0.0
C6 C 0.47958 0.33677 0.32813 0.0
C7 C 0.47452 0.33979 0.27057 0.0
C8 C 0.43943 0.36695 0.24949 0.0
H9 H 0.10072 0.86413 0.86873 0.0
H10 H 0.18039 0.74384 0.84223 0.0
H11 H 0.13941 0.82471 0.7033 0.0
C12 C 0.11485 0.83833 0.84121 0.0
C13 C 0.11247 0.8452 0.78364 0.0
C14 C 0.14064 0.80271 0.86294 0.0
C15 C 0.16001 0.771 0.82593 0.0
C16 C 0.1621 0.78022 0.76851 0.0
C17 C 0.13663 0.81627 0.74742 0.0
H18 H 0.71006 0.35753 0.99347 0.0
H19 H 0.72844 0.48723 0.88415 0.0
H20 H 0.59561 0.35711 0.86721 0.0
C21 C 0.69709 0.37596 0.95841 0.0
C22 C 0.65001 0.35057 0.93207 0.0
C23 C 0.72622 0.42536 0.94209 0.0
C24 C 0.7064 0.4498 0.898 0.0
C25 C 0.65937 0.42576 0.87003 0.0
C26 C 0.63173 0.37599 0.88774 0.0
H27 H 0.83733 0.77135 0.49395 0.0
H28 H 0.96242 0.77126 0.37336 0.0
H29 H 0.82224 0.64509 0.38395 0.0
C30 C 0.85442 0.75259 0.46109 0.0
C31 C 0.82553 0.70436 0.44386 0.0
C32 C 0.90407 0.77741 0.43704 0.0
C33 C 0.92392 0.75314 0.3915 0.0
C34 C 0.89519 0.70466 0.37112 0.0
C35 C 0.84558 0.68145 0.39806 0.0
H36 H 0.5498 0.83713 0.85744 0.0
H37 H 0.67931 0.76551 0.83352 0.0
H38 H 0.62188 0.78639 0.99767 0.0
C39 C 0.57671 0.81614 0.87383 0.0
C40 C 0.58212 0.81421 0.93146 0.0
C41 C 0.61387 0.80181 0.83782 0.0
C42 C 0.64884 0.77491 0.86003 0.0
C43 C 0.65127 0.76777 0.91761 0.0
C44 C 0.61745 0.78754 0.95311 0.0
H45 H 0.86772 0.37153 0.3355 0.0
H46 H 0.98778 0.28595 0.33669 0.0
H47 H 0.90552 0.30849 0.48749 0.0
C48 C 0.89381 0.35303 0.35742 0.0
C49 C 0.88625 0.34694 0.41516 0.0
C50 C 0.92857 0.32941 0.32764 0.0
C51 C 0.95977 0.30365 0.35797 0.0
C52 C 0.95044 0.29451 0.41502 0.0
C53 C 0.91425 0.31692 0.44378 0.0
H54 H 0.34787 0.79516 0.20005 0.0
H55 H 0.33122 0.66346 0.30603 0.0
H56 H 0.46285 0.79423 0.32546 0.0
C57 C 0.36118 0.77624 0.23452 0.0
C58 C 0.40809 0.80159 0.2612 0.0
C59 C 0.33262 0.72633 0.24974 0.0
C60 C 0.35288 0.70126 0.29296 0.0
C61 C 0.39982 0.72508 0.32116 0.0
C62 C 0.42686 0.77545 0.30466 0.0
H63 H 0.09841 0.37778 0.82445 0.0
H64 H 0.22222 0.37624 0.70293 0.0
H65 H 0.23669 0.50555 0.80845 0.0
C66 C 0.13649 0.39598 0.80546 0.0
C67 C 0.16472 0.44531 0.82402 0.0
C68 C 0.1562 0.37082 0.76063 0.0
C69 C 0.20522 0.39564 0.73528 0.0
C70 C 0.2336 0.44468 0.75056 0.0
C71 C 0.21372 0.46853 0.79579 0.0
Sm72 Sm 0.08327 0.07671 0.58435 0.0
Sm73 Sm 0.97926 1.0672 0.62219 0.0
C74 C 0.17893 0.08938 0.53812 0.0
C75 C 0.22537 0.13283 0.5321 0.0
C76 C 0.21958 0.18164 0.51872 0.0
C77 C 0.26436 0.22196 0.51078 0.0
C78 C 0.31567 0.21425 0.51661 0.0
C79 C 0.32091 0.16615 0.53418 0.0
C80 C 0.27612 0.12572 0.54153 0.0
C81 C 0.06177 1.01863 0.68037 0.0
C82 C 0.06821 0.16767 0.66518 0.0
C83 C 0.88358 1.05494 0.66827 0.0
C84 C 0.83607 1.01239 0.67274 0.0
C85 C 0.83986 0.96305 0.68666 0.0
C86 C 0.79396 0.92376 0.69336 0.0
C87 C 0.74352 0.93302 0.68576 0.0
C88 C 0.74037 0.98161 0.66761 0.0
C89 C 0.78626 1.02101 0.66151 0.0
C90 C 1.00099 0.1249 0.52611 0.0
C91 C 0.99408 0.97698 0.54006 0.0
O92 O 0.13692 0.09097 0.50979 0.0
O93 O 0.16739 1.07291 0.58882 0.0
O94 O 0.03217 1.01432 0.63916 0.0
O95 O 0.10148 1.05792 0.6739 0.0
O96 O 0.09576 0.15725 0.62193 0.0
O97 O 0.02365 0.13414 0.68005 0.0
O98 O 0.92511 1.05127 0.69631 0.0
O99 O 0.89576 1.07306 0.61828 0.0
O100 O 0.03033 0.12949 0.56751 0.0
O101 O 0.96136 0.08551 0.53241 0.0
O102 O 0.96626 0.98705 0.58329 0.0
O103 O 0.03893 1.01038 0.52587 0.0
H104 H 0.18059 0.18831 0.51269 0.0
H105 H 0.25875 0.25825 0.49666 0.0
H106 H 0.35981 0.15915 0.53977 0.0
H107 H 0.28118 0.08857 0.55331 0.0
H108 H 0.87808 0.95518 0.69414 0.0
H109 H 0.79796 0.88705 0.70798 0.0
H110 H 0.70221 0.9898 0.6607 0.0
H111 H 0.78274 1.05859 0.64934 0.0
Sm112 Sm 0.5837 0.08689 0.11049 0.0
Sm113 Sm 0.4708 1.06858 1.08652 0.0
C114 C 0.68751 0.12053 0.12064 0.0
C115 C 0.72963 0.16787 0.12178 0.0
C116 C 0.77947 0.16826 0.09784 0.0
C117 C 0.82315 0.2087 0.10782 0.0
C118 C 0.81759 0.24898 0.14253 0.0
C119 C 0.76628 0.25127 0.16085 0.0
C120 C 0.72254 0.21089 0.15059 0.0
C121 C 0.52415 0.99996 0.16617 0.0
C122 C 0.51611 0.16095 0.16761 0.0
C123 C 0.36689 1.03727 1.07407 0.0
C124 C 0.32486 0.99038 1.07021 0.0
C125 C 0.27447 0.99372 1.0541 0.0
C126 C 0.23599 0.94971 1.04149 0.0
C127 C 0.24746 0.90153 1.04467 0.0
C128 C 0.29653 0.89819 1.06615 0.0
C129 C 0.33522 0.94244 1.07843 0.0
C130 C 0.53132 0.15511 1.03097 0.0
C131 C 0.53827 0.99375 1.03054 0.0
O132 O 0.66511 0.10808 1.07302 0.0
O133 O 0.65409 0.11089 0.16319 0.0
O134 O 0.50971 1.04134 0.16015 0.0
O135 O 0.57226 1.00583 0.14706 0.0
O136 O 0.56338 0.15828 0.14888 0.0
O137 O 0.47393 0.12404 0.15813 0.0
O138 O 0.38893 1.04695 0.12231 0.0
O139 O 0.40106 1.04731 1.03228 0.0
O140 O 0.54481 0.11329 1.0367 0.0
O141 O 0.48367 0.15025 1.05091 0.0
O142 O 0.49091 0.99663 1.04893 0.0
O143 O 0.58036 1.03088 1.0395 0.0
H144 H 0.78538 0.13568 1.07459 0.0
H145 H 0.86207 0.20622 0.09265 0.0
H146 H 0.76057 0.28159 0.18791 0.0
H147 H 0.68405 0.21175 0.16846 0.0
H148 H 0.26587 1.03057 1.04806 0.0
H149 H 0.19909 0.95406 1.0245 0.0
H150 H 0.30636 0.86165 1.06975 0.0
H151 H 0.37397 0.93937 1.0915 0.0
Sm152 Sm 0.52551 0.52901 0.56064 0.0
Sm153 Sm 0.53148 0.6171 0.62858 0.0
C154 C 0.55019 0.45319 0.50439 0.0
C155 C 0.59997 0.43646 0.49952 0.0
C156 C 0.64795 0.46911 0.51588 0.0
C157 C 0.69582 0.45464 0.50893 0.0
C158 C 0.69661 0.40702 0.48594 0.0
C159 C 0.64821 0.37384 0.47098 0.0
C160 C 0.60026 0.38855 0.47756 0.0
C161 C 0.42925 0.52383 0.61734 0.0
C162 C 0.57895 0.53032 0.68618 0.0
C163 C 0.50373 0.69151 0.6839 0.0
C164 C 0.45216 0.70498 0.68573 0.0
C165 C 0.40683 0.67013 0.66638 0.0
C166 C 0.3571 0.68132 0.66991 0.0
C167 C 0.35181 0.72781 0.69243 0.0
C168 C 0.39763 0.76319 0.71048 0.0
C169 C 0.44742 0.75179 0.70724 0.0
C170 C 0.62794 0.62252 0.57281 0.0
C171 C 0.47919 0.61679 0.50284 0.0
O172 O 0.55199 0.49781 0.48278 0.0
O173 O 0.52611 0.44695 0.55298 0.0
O174 O 0.47507 0.53898 0.6371 0.0
O175 O 0.43339 0.50932 0.56635 0.0
O176 O 0.57576 0.51156 0.63514 0.0
O177 O 0.56115 0.57116 0.69679 0.0
O178 O 0.50344 0.64747 0.70613 0.0
O179 O 0.5296 0.69878 0.63629 0.0
O180 O 0.58233 0.60717 0.55239 0.0
O181 O 0.62331 0.63725 0.62366 0.0
O182 O 0.48209 0.63518 0.55394 0.0
O183 O 0.49671 0.57577 0.49222 0.0
H184 H 0.64845 0.5062 0.53327 0.0
H185 H 0.73231 0.48083 0.52128 0.0
H186 H 0.6476 0.33716 0.45256 0.0
H187 H 0.56361 0.3629 0.4647 0.0
H188 H 0.40981 0.63383 0.64927 0.0
H189 H 0.32273 0.65347 0.65536 0.0
H190 H 0.39474 0.79904 0.72879 0.0
H191 H 0.48198 0.7791 0.72232 0.0
Sm192 Sm 0.02886 0.53224 0.12737 0.0
Sm193 Sm 0.02964 0.61973 1.06502 0.0
C194 C 0.0564 0.45522 0.17663 0.0
C195 C 0.10863 0.44588 0.18992 0.0
C196 C 0.14693 0.4447 0.14788 0.0
C197 C 0.19699 0.4382 0.16123 0.0
C198 C 0.21011 0.43329 0.21686 0.0
C199 C 0.17191 0.43466 0.25887 0.0
C200 C 0.1216 0.44063 0.2455 0.0
C201 C 0.97457 0.59424 0.18615 0.0
C202 C 0.13432 0.62902 0.13611 0.0
C203 C 1.0017 0.69686 1.01642 0.0
C204 C 0.94927 0.70676 1.00495 0.0
C205 C 0.91344 0.71117 1.04842 0.0
C206 C 0.86303 0.71791 1.03696 0.0
C207 C 0.84707 0.71993 0.98186 0.0
C208 C 0.8829 0.71558 0.93843 0.0
C209 C 0.93354 0.70931 0.94988 0.0
C210 C 0.08413 0.5577 1.00653 0.0
C211 C 0.92431 0.52289 1.05608 0.0
O212 O 0.04473 0.45518 0.12422 0.0
O213 O 0.04273 0.49181 0.20407 0.0
O214 O 1.0181 0.60969 0.15886 0.0
O215 O 0.95809 0.54508 0.18122 0.0
O216 O 0.11655 0.57895 0.13751 0.0
O217 O 0.10522 0.65674 0.11311 0.0
O218 O 1.0151 0.69732 1.06833 0.0
O219 O 1.01401 0.65972 0.9887 0.0
O220 O 0.04047 0.54235 1.03363 0.0
O221 O 0.10042 0.60693 1.01107 0.0
O222 O 0.94194 0.57298 1.055 0.0
O223 O 0.95349 0.49517 1.07894 0.0
H224 H 0.13853 0.44923 0.10461 0.0
H225 H 0.22572 0.43762 0.12801 0.0
H226 H 0.18065 0.4303 0.30208 0.0
H227 H 0.09288 0.44153 0.27865 0.0
H228 H 0.924 0.7089 1.09141 0.0
H229 H 0.83621 0.72085 1.07128 0.0
H230 H 0.87204 0.71773 0.89553 0.0
H231 H 0.96031 0.706 0.91563 0.0
C232 C 0.39825 0.33929 0.46008 0.0
C233 C 0.42709 0.32107 0.41774 0.0
H234 H 0.33962 0.31928 0.52585 0.0
C235 C 0.42975 0.26965 0.42023 0.0
H236 H 0.39688 0.37898 0.4611 0.0
C237 C 0.39794 0.23598 0.45779 0.0
C238 C 0.36228 0.25256 0.4936 0.0
H239 H 0.45105 0.25316 0.38904 0.0
H240 H 0.39684 0.19585 0.45372 0.0
C241 C 0.36552 0.30514 0.49732 0.0
C242 C 0.13252 0.82801 0.9631 0.0
C243 C 0.16066 0.8092 0.92069 0.0
H244 H 0.13802 0.87148 1.03811 0.0
C245 C 0.21371 0.8079 0.93005 0.0
H246 H 0.09112 0.82795 0.95837 0.0
C247 C 0.24015 0.83203 0.97586 0.0
C248 C 0.21447 0.85857 1.01312 0.0
H249 H 0.23738 0.79401 0.89895 0.0
H250 H 0.28251 0.83535 0.9776 0.0
C251 C 0.15932 0.85273 1.00895 0.0
C252 C 0.62181 0.42733 0.7726 0.0
C253 C 0.63934 0.45277 0.82248 0.0
H254 H 0.59075 0.43137 0.69097 0.0
C255 C 0.63771 0.50452 0.82623 0.0
H256 H 0.62265 0.38776 0.76744 0.0
C257 C 0.61845 0.52946 0.78248 0.0
C258 C 0.60124 0.50411 0.73249 0.0
H259 H 0.65045 0.5257 0.86369 0.0
H260 H 0.61724 0.56893 0.78785 0.0
C261 C 0.60375 0.45263 0.72831 0.0
C262 C 0.90214 0.62327 0.31903 0.0
C263 C 0.91681 0.67712 0.32328 0.0
H264 H 0.90735 0.55613 0.27376 0.0
C265 C 0.95179 0.70348 0.28095 0.0
H266 H 0.87709 0.60029 0.35063 0.0
C267 C 0.97068 0.67722 0.23672 0.0
C268 C 0.95486 0.62359 0.23254 0.0
H269 H 0.96424 0.74467 0.28128 0.0
H270 H 0.99733 0.69907 0.20541 0.0
C271 C 0.92015 0.59735 0.27456 0.0
C272 C 0.44994 0.26563 0.20776 0.0
C273 C 0.49002 0.29999 0.2361 0.0
H274 H 0.42652 0.19477 0.1655 0.0
C275 C 0.54024 0.28929 0.24005 0.0
H276 H 0.41042 0.27194 0.2051 0.0
C277 C 0.54955 0.24441 0.21712 0.0
C278 C 0.50828 0.20901 0.19145 0.0
H279 H 0.57158 0.31477 0.26237 0.0
H280 H 0.58831 0.23663 0.22105 0.0
C281 C 0.45883 0.22067 0.18612 0.0
C282 C 0.1149 0.93827 0.78186 0.0
C283 C 0.09366 0.88882 0.76181 0.0
H284 H 0.12108 1.01829 0.7718 0.0
C285 C 0.05737 0.88207 0.71857 0.0
H286 H 0.14339 0.94459 0.81484 0.0
C287 C 0.04385 0.92421 0.69464 0.0
C288 C 0.06739 0.97392 0.71272 0.0
H289 H 0.04041 0.84434 0.70251 0.0
H290 H 1.01719 0.91803 0.66005 0.0
C291 C 0.10217 0.98043 0.7573 0.0
C292 C 0.8104 0.42173 0.99353 0.0
C293 C 0.77705 0.45082 0.97159 0.0
H294 H 0.88133 0.42076 1.03732 0.0
C295 C 0.79275 0.50418 0.97899 0.0
H296 H 0.80117 0.38081 0.98816 0.0
C297 C 0.83971 0.5273 1.00688 0.0
C298 C 0.87268 0.49801 1.02885 0.0
H299 H 0.76846 0.52835 0.96381 0.0
H300 H 0.85019 0.5684 1.01112 0.0
C301 C 0.85701 0.4448 1.0218 0.0
C302 C 0.72831 0.65284 0.44974 0.0
C303 C 0.77529 0.67846 0.47603 0.0
H304 H 0.64507 0.61515 0.45916 0.0
C305 C 0.77348 0.68173 0.5345 0.0
H306 H 0.7278 0.64941 0.40497 0.0
C307 C 0.72627 0.66237 0.56536 0.0
C308 C 0.67884 0.63877 0.53913 0.0
H309 H 0.80879 0.69999 0.55674 0.0
H310 H 0.72681 0.66682 0.61005 0.0
C311 C 0.68071 0.63335 0.48087 0.0
C312 C 0.33072 0.37765 0.21779 0.0
C313 C 0.35902 0.40286 0.26298 0.0
H314 H 0.26166 0.3674 0.16813 0.0
C315 C 0.33953 0.44074 0.29054 0.0
H316 H 0.34353 0.34737 0.19634 0.0
C317 C 0.2918 0.45149 0.27488 0.0
C318 C 0.26279 0.42499 0.23094 0.0
H319 H 0.3605 0.46117 0.3252 0.0
H320 H 0.27726 0.48014 0.29756 0.0
C321 C 0.28339 0.38881 0.2018 0.0
C322 C 0.56388 0.28694 0.96118 0.0
C323 C 0.61945 0.29841 0.95309 0.0
H324 H 0.49342 0.23395 0.9921 0.0
C325 C 0.64574 0.26057 0.96867 0.0
H326 H 0.542 0.31483 0.95059 0.0
C327 C 0.61754 0.21342 0.99207 0.0
C328 C 0.56219 0.20284 1.00153 0.0
H329 H 0.68843 0.26754 0.96306 0.0
H330 H 0.63932 0.18589 1.00416 0.0
C331 C 0.53595 0.24035 0.98539 0.0
C332 C 0.96338 0.86947 0.4304 0.0
C333 C 0.93382 0.82778 0.46233 0.0
H334 H 1.00607 0.94905 0.42919 0.0
C335 C 0.92909 0.83569 0.52006 0.0
H336 H 0.96834 0.86549 0.386 0.0
C337 C 0.94904 0.88356 0.54418 0.0
C338 C 0.97657 0.92569 0.51233 0.0
H339 H 0.90885 0.80478 0.5472 0.0
H340 H 0.94265 0.88753 0.58841 0.0
C341 C 0.98484 0.91765 0.45516 0.0
C342 C 0.24332 0.79895 0.70716 0.0
C343 C 0.20283 0.7626 0.73482 0.0
H344 H 0.3223 0.81642 0.67194 0.0
C345 C 0.20879 0.71261 0.74076 0.0
H346 H 0.24031 0.83798 0.70256 0.0
C347 C 0.2561 0.70043 0.72377 0.0
C348 C 0.29846 0.7381 0.70073 0.0
H349 H 0.17833 0.6839 0.76211 0.0
H350 H 0.26079 0.66247 0.73227 0.0
C351 C 0.29072 0.78687 0.69048 0.0
C352 C 0.65702 0.80987 0.74199 0.0
C353 C 0.62861 0.82934 0.78374 0.0
H354 H 0.71658 0.82794 0.67692 0.0
C355 C 0.62703 0.881 0.78015 0.0
H356 H 0.65746 0.76993 0.74172 0.0
C357 C 0.65993 0.91375 0.74254 0.0
C358 C 0.6955 0.89589 0.70779 0.0
H359 H 0.60592 0.89838 0.81072 0.0
H360 H 0.662 0.95411 0.74596 0.0
C361 C 0.69083 0.84305 0.70473 0.0
C362 C 0.925 0.27231 0.24487 0.0
C363 C 0.92086 0.3196 0.26677 0.0
H364 H 0.8963 0.2135 0.18689 0.0
C365 C 0.89662 0.35038 0.234 0.0
H366 H 0.94361 0.24695 0.26717 0.0
C367 C 0.8674 0.32982 0.18773 0.0
C368 C 0.8641 0.27908 0.17231 0.0
H369 H 0.89532 0.38833 0.24719 0.0
H370 H 0.84345 0.35179 0.16744 0.0
C371 C 0.89732 0.25256 0.19794 0.0
C372 C 0.42191 0.64553 0.36284 0.0
C373 C 0.42011 0.6972 0.36786 0.0
H374 H 0.44212 0.58029 0.39975 0.0
C375 C 0.43732 0.72156 0.41835 0.0
H376 H 0.40939 0.62513 0.32487 0.0
C377 C 0.45508 0.69533 0.46205 0.0
C378 C 0.45762 0.64391 0.4567 0.0
H379 H 0.43632 0.76099 0.42453 0.0
H380 H 0.4677 0.71581 0.49995 0.0
C381 C 0.44088 0.61964 0.40604 0.0
C382 C 0.10843 0.44757 0.91418 0.0
C383 C 0.14308 0.47349 0.87133 0.0
H384 H 0.06277 0.45272 0.98941 0.0
C385 C 0.15715 0.52743 0.87449 0.0
H386 H 0.09649 0.40636 0.91481 0.0
C387 C 0.13876 0.55384 0.91834 0.0
C388 C 0.10428 0.52799 0.96077 0.0
H389 H 0.18196 0.55008 0.8425 0.0
H390 H 0.15106 0.5951 0.91832 0.0
C391 C 0.08916 0.47428 0.95771 0.0
C392 C 0.51554 0.86423 0.96072 0.0
C393 C 0.56603 0.85418 0.96518 0.0
H394 H 0.46668 0.91651 0.97832 0.0
C395 C 0.60569 0.88923 0.99323 0.0
H396 H 0.48447 0.83815 0.93866 0.0
C397 C 0.59618 0.93428 1.01394 0.0
C398 C 0.54651 0.94537 1.00794 0.0
H399 H 0.64537 0.8834 0.99632 0.0
H400 H 0.62824 0.96073 1.03431 0.0
C401 C 0.50561 0.90923 0.98271 0.0
C402 C 1.00042 0.26046 0.48807 0.0
C403 C 0.96901 0.25259 0.44085 0.0
H404 H 0.03703 0.22591 0.5512 0.0
C405 C 0.95236 0.20314 0.41913 0.0
H406 H 1.01358 0.29827 0.50545 0.0
C407 C 0.96496 0.16182 0.44549 0.0
C408 C 0.9953 0.16931 0.49346 0.0
H409 H 0.9277 0.19617 0.38291 0.0
H410 H 0.94965 0.12381 0.42932 0.0
C411 C 1.01409 0.21915 0.51381 0.0
C412 C 0.26647 0.64769 0.21195 0.0
C413 C 0.28183 0.70097 0.22011 0.0
H414 H 0.20918 0.58357 0.17942 0.0
C415 C 0.24808 0.73004 0.19898 0.0
H416 H 0.29107 0.62353 0.22643 0.0
C417 C 0.2014 0.70703 0.17081 0.0
C418 C 0.18604 0.65389 0.16311 0.0
H419 H 0.25702 0.77088 0.20496 0.0
H420 H 0.17675 0.73103 0.15596 0.0
C421 C 0.21941 0.62461 0.18423 0.0
C422 C 0.28416 0.46513 0.65869 0.0
C423 C 0.28319 0.47014 0.71705 0.0
H424 H 0.32978 0.47792 0.58229 0.0
C425 C 0.3305 0.49671 0.74203 0.0
H426 H 0.24857 0.44602 0.63741 0.0
C427 C 0.37763 0.51537 0.70987 0.0
C428 C 0.37872 0.50822 0.65181 0.0
H429 H 0.33166 0.50146 0.78665 0.0
H430 H 0.41355 0.53436 0.73067 0.0
C431 C 0.33093 0.48372 0.62678 0.0
C432 C 0.71478 0.71068 0.91335 0.0
C433 C 0.69692 0.75007 0.93979 0.0
H434 H 0.77604 0.67014 0.90598 0.0
C435 C 0.72706 0.77674 0.98306 0.0
H436 H 0.69234 0.68912 0.88019 0.0
C437 C 0.77481 0.76572 0.99792 0.0
C438 C 0.79387 0.72809 0.96959 0.0
H439 H 0.71537 0.80808 1.00359 0.0
H440 H 0.79805 0.78835 1.02988 0.0
C441 C 0.7628 0.69996 0.92791 0.0
C442 C 0.41085 0.89197 0.22639 0.0
C443 C 0.4379 0.8545 0.24138 0.0
H444 H 0.41603 0.96701 0.19232 0.0
C445 C 0.49354 0.86714 0.23377 0.0
H446 H 0.36808 0.88419 0.23167 0.0
C447 C 0.52081 0.91443 0.21054 0.0
C448 C 0.49382 0.95155 0.19491 0.0
H449 H 0.51604 0.83965 0.2439 0.0
H450 H 0.56344 0.92166 0.20412 0.0
C451 C 0.43838 0.93982 0.20398 0.0
C452 C 0.13078 0.30993 0.67995 0.0
C453 C 0.12687 0.31942 0.73741 0.0
H454 H 0.11715 0.25609 0.61355 0.0
C455 C 0.09856 0.27837 0.77103 0.0
H456 H 0.15002 0.34024 0.65161 0.0
C457 C 0.07754 0.22929 0.7481 0.0
C458 C 0.08508 0.21976 0.69117 0.0
H459 H 0.09426 0.28359 0.81531 0.0
H460 H 0.05729 0.19842 0.7753 0.0
C461 C 0.11133 0.26123 0.65767 0.0
C462 C 0.80044 0.32983 0.47018 0.0
C463 C 0.84203 0.36467 0.44226 0.0
H464 H 0.72162 0.31585 0.50582 0.0
C465 C 0.83716 0.41459 0.43304 0.0
H466 H 0.80283 0.29089 0.47711 0.0
C467 C 0.79078 0.42883 0.4493 0.0
C468 C 0.74796 0.39327 0.47459 0.0
H469 H 0.8685 0.44205 0.41125 0.0
H470 H 0.78749 0.46703 0.43961 0.0
C471 C 0.75373 0.34391 0.48592 0.0
loop_
_geom_bond_atom_site_label_1
_geom_bond_atom_site_label_2
_geom_bond_distance
_geom_bond_site_symmetry_2
_ccdc_geom_bond_type
H0 C3 0.931 . S
H1 C6 0.928 . S
H2 C8 0.930 . S
C3 H0 0.931 . S
C3 C4 1.413 . S
C3 C5 1.360 . S
C4 C3 1.413 . S
C4 C8 1.429 . S
C5 C3 1.360 . S
C5 C6 1.372 . S
C6 H1 0.928 . S
C6 C5 1.372 . S
C6 C7 1.404 . S
C7 C6 1.404 . S
C7 C8 1.391 . S
C8 H2 0.930 . S
C8 C4 1.429 . S
C8 C7 1.391 . S
H9 C12 0.931 . S
H10 C15 0.928 . S
H11 C17 0.930 . S
C12 H9 0.931 . S
C12 C13 1.413 . S
C12 C14 1.360 . S
C13 C12 1.413 . S
C13 C17 1.429 . S
C14 C12 1.360 . S
C14 C15 1.372 . S
C15 H10 0.928 . S
C15 C14 1.372 . S
C15 C16 1.404 . S
C16 C15 1.404 . S
C16 C17 1.391 . S
C17 H11 0.930 . S
C17 C13 1.429 . S
C17 C16 1.391 . S
H18 C21 0.931 . S
H19 C24 0.928 . S
H20 C26 0.930 . S
C21 H18 0.931 . S
C21 C22 1.413 . S
C21 C23 1.360 . S
C22 C21 1.413 . S
C22 C26 1.429 . S
C23 C21 1.360 . S
C23 C24 1.372 . S
C24 H19 0.928 . S
C24 C23 1.372 . S
C24 C25 1.404 . S
C25 C24 1.404 . S
C25 C26 1.391 . S
C26 H20 0.930 . S
C26 C22 1.429 . S
C26 C25 1.391 . S
H27 C30 0.931 . S
H28 C33 0.928 . S
H29 C35 0.930 . S
C30 H27 0.931 . S
C30 C31 1.413 . S
C30 C32 1.360 . S
C31 C30 1.413 . S
C31 C35 1.429 . S
C32 C30 1.360 . S
C32 C33 1.372 . S
C33 H28 0.928 . S
C33 C32 1.372 . S
C33 C34 1.404 . S
C34 C33 1.404 . S
C34 C35 1.391 . S
C35 H29 0.930 . S
C35 C31 1.429 . S
C35 C34 1.391 . S
H36 C39 0.931 . S
H37 C42 0.928 . S
H38 C44 0.930 . S
C39 H36 0.931 . S
C39 C40 1.413 . S
C39 C41 1.360 . S
C40 C39 1.413 . S
C40 C44 1.429 . S
C41 C39 1.360 . S
C41 C42 1.372 . S
C42 H37 0.928 . S
C42 C41 1.372 . S
C42 C43 1.404 . S
C43 C42 1.404 . S
C43 C44 1.391 . S
C44 H38 0.930 . S
C44 C40 1.429 . S
C44 C43 1.391 . S
H45 C48 0.931 . S
H46 C51 0.928 . S
H47 C53 0.930 . S
C48 H45 0.931 . S
C48 C49 1.413 . S
C48 C50 1.360 . S
C49 C48 1.413 . S
C49 C53 1.429 . S
C50 C48 1.360 . S
C50 C51 1.372 . S
C51 H46 0.928 . S
C51 C50 1.372 . S
C51 C52 1.404 . S
C52 C51 1.404 . S
C52 C53 1.391 . S
C53 H47 0.930 . S
C53 C49 1.429 . S
C53 C52 1.391 . S
H54 C57 0.931 . S
H55 C60 0.928 . S
H56 C62 0.930 . S
C57 H54 0.931 . S
C57 C58 1.413 . S
C57 C59 1.360 . S
C58 C57 1.413 . S
C58 C62 1.429 . S
C59 C57 1.360 . S
C59 C60 1.372 . S
C60 H55 0.928 . S
C60 C59 1.372 . S
C60 C61 1.404 . S
C61 C60 1.404 . S
C61 C62 1.391 . S
C62 H56 0.930 . S
C62 C58 1.429 . S
C62 C61 1.391 . S
H63 C66 0.931 . S
H64 C69 0.928 . S
H65 C71 0.930 . S
C66 H63 0.931 . S
C66 C67 1.413 . S
C66 C68 1.360 . S
C67 C66 1.413 . S
C67 C71 1.429 . S
C68 C66 1.360 . S
C68 C69 1.372 . S
C69 H64 0.928 . S
C69 C68 1.372 . S
C69 C70 1.404 . S
C70 C69 1.404 . S
C70 C71 1.391 . S
C71 H65 0.930 . S
C71 C67 1.429 . S
C71 C70 1.391 . S
Sm72 C74 2.846 . S
Sm72 O92 2.543 . S
Sm72 O93 2.450 . S
Sm72 O94 2.681 1_545 S
Sm72 O95 2.464 1_545 S
Sm72 O96 2.396 . S
Sm72 O100 2.386 1_455 S
Sm72 O103 2.408 1_445 S
Sm73 C83 2.846 . S
Sm73 O94 2.386 1_655 S
Sm73 O97 2.408 1_665 S
Sm73 O98 2.543 . S
Sm73 O99 2.450 . S
Sm73 O100 2.681 1_565 S
Sm73 O101 2.464 1_565 S
Sm73 O102 2.396 . S
C74 Sm72 2.846 . S
C74 C75 1.506 . S
C74 O92 1.261 . S
C74 O93 1.242 . S
C75 C74 1.506 . S
C75 C76 1.358 . S
C75 C80 1.382 . S
C76 C75 1.358 . S
C76 C77 1.385 . S
C76 H104 0.930 . S
C77 C76 1.385 . S
C77 C78 1.395 . S
C77 H105 0.929 . S
C78 C77 1.395 . S
C78 C79 1.335 . S
C79 C78 1.335 . S
C79 C80 1.398 . S
C79 H106 0.930 . S
C80 C75 1.382 . S
C80 C79 1.398 . S
C80 H107 0.929 . S
C81 O94 1.271 . S
C81 O95 1.251 . S
C82 O96 1.252 . S
C82 O97 1.272 . S
C83 Sm73 2.846 . S
C83 C84 1.506 . S
C83 O98 1.261 . S
C83 O99 1.242 . S
C84 C83 1.506 . S
C84 C85 1.358 . S
C84 C89 1.382 . S
C85 C84 1.358 . S
C85 C86 1.385 . S
C85 H108 0.930 . S
C86 C85 1.385 . S
C86 C87 1.395 . S
C86 H109 0.929 . S
C87 C86 1.395 . S
C87 C88 1.335 . S
C88 C87 1.335 . S
C88 C89 1.398 . S
C88 H110 0.930 . S
C89 C84 1.382 . S
C89 C88 1.398 . S
C89 H111 0.929 . S
C90 O100 1.271 . S
C90 O101 1.251 . S
C91 O102 1.252 . S
C91 O103 1.272 . S
O92 Sm72 2.543 . S
O92 C74 1.261 . S
O93 Sm72 2.450 . S
O93 C74 1.242 . S
O94 Sm72 2.681 1_565 S
O94 Sm73 2.386 1_455 S
O94 C81 1.271 . S
O95 Sm72 2.464 1_565 S
O95 C81 1.251 . S
O96 Sm72 2.396 . S
O96 C82 1.252 . S
O97 Sm73 2.408 1_445 S
O97 C82 1.272 . S
O98 Sm73 2.543 . S
O98 C83 1.261 . S
O99 Sm73 2.450 . S
O99 C83 1.242 . S
O100 Sm72 2.386 1_655 S
O100 Sm73 2.681 1_545 S
O100 C90 1.271 . S
O101 Sm73 2.464 1_545 S
O101 C90 1.251 . S
O102 Sm73 2.396 . S
O102 C91 1.252 . S
O103 Sm72 2.408 1_665 S
O103 C91 1.272 . S
H104 C76 0.930 . S
H105 C77 0.929 . S
H106 C79 0.930 . S
H107 C80 0.929 . S
H108 C85 0.930 . S
H109 C86 0.929 . S
H110 C88 0.930 . S
H111 C89 0.929 . S
Sm112 C114 2.846 1_565 S
Sm112 O132 2.543 1_565 S
Sm112 O133 2.450 1_565 S
Sm112 O134 2.681 . S
Sm112 O135 2.464 . S
Sm112 O136 2.396 1_565 S
Sm112 O140 2.386 1_564 S
Sm112 O143 2.408 1_554 S
Sm113 C123 2.846 1_545 S
Sm113 O134 2.386 1_546 S
Sm113 O137 2.408 1_556 S
Sm113 O138 2.543 1_545 S
Sm113 O139 2.450 1_545 S
Sm113 O140 2.681 . S
Sm113 O141 2.464 . S
Sm113 O142 2.396 1_545 S
C114 Sm112 2.846 1_545 S
C114 C115 1.506 . S
C114 O132 1.261 . S
C114 O133 1.242 . S
C115 C114 1.506 . S
C115 C116 1.358 . S
C115 C120 1.382 . S
C116 C115 1.358 . S
C116 C117 1.385 . S
C116 H144 0.930 . S
C117 C116 1.385 . S
C117 C118 1.395 . S
C117 H145 0.929 . S
C118 C117 1.395 . S
C118 C119 1.335 . S
C119 C118 1.335 . S
C119 C120 1.398 . S
C119 H146 0.930 . S
C120 C115 1.382 . S
C120 C119 1.398 . S
C120 H147 0.929 . S
C121 O134 1.271 . S
C121 O135 1.251 . S
C122 O136 1.252 . S
C122 O137 1.272 . S
C123 Sm113 2.846 1_565 S
C123 C124 1.506 . S
C123 O138 1.261 . S
C123 O139 1.242 . S
C124 C123 1.506 . S
C124 C125 1.358 . S
C124 C129 1.382 . S
C125 C124 1.358 . S
C125 C126 1.385 . S
C125 H148 0.930 . S
C126 C125 1.385 . S
C126 C127 1.395 . S
C126 H149 0.929 . S
C127 C126 1.395 . S
C127 C128 1.335 . S
C128 C127 1.335 . S
C128 C129 1.398 . S
C128 H150 0.930 . S
C129 C124 1.382 . S
C129 C128 1.398 . S
C129 H151 0.929 . S
C130 O140 1.271 . S
C130 O141 1.251 . S
C131 O142 1.252 . S
C131 O143 1.272 . S
O132 Sm112 2.543 1_545 S
O132 C114 1.261 . S
O133 Sm112 2.450 1_545 S
O133 C114 1.242 . S
O134 Sm112 2.681 . S
O134 Sm113 2.386 1_564 S
O134 C121 1.271 . S
O135 Sm112 2.464 . S
O135 C121 1.251 . S
O136 Sm112 2.396 1_545 S
O136 C122 1.252 . S
O137 Sm113 2.408 1_554 S
O137 C122 1.272 . S
O138 Sm113 2.543 1_565 S
O138 C123 1.261 . S
O139 Sm113 2.450 1_565 S
O139 C123 1.242 . S
O140 Sm112 2.386 1_546 S
O140 Sm113 2.681 . S
O140 C130 1.271 . S
O141 Sm113 2.464 . S
O141 C130 1.251 . S
O142 Sm113 2.396 1_565 S
O142 C131 1.252 . S
O143 Sm112 2.408 1_556 S
O143 C131 1.272 . S
H144 C116 0.930 . S
H145 C117 0.929 . S
H146 C119 0.930 . S
H147 C120 0.929 . S
H148 C125 0.930 . S
H149 C126 0.929 . S
H150 C128 0.930 . S
H151 C129 0.929 . S
Sm152 C154 2.846 . S
Sm152 O172 2.543 . S
Sm152 O173 2.450 . S
Sm152 O174 2.681 . S
Sm152 O175 2.464 . S
Sm152 O176 2.396 . S
Sm152 O180 2.386 . S
Sm152 O183 2.408 . S
Sm153 C163 2.846 . S
Sm153 O174 2.386 . S
Sm153 O177 2.408 . S
Sm153 O178 2.543 . S
Sm153 O179 2.450 . S
Sm153 O180 2.681 . S
Sm153 O181 2.464 . S
Sm153 O182 2.396 . S
C154 Sm152 2.846 . S
C154 C155 1.506 . S
C154 O172 1.261 . S
C154 O173 1.242 . S
C155 C154 1.506 . S
C155 C156 1.358 . S
C155 C160 1.382 . S
C156 C155 1.358 . S
C156 C157 1.385 . S
C156 H184 0.930 . S
C157 C156 1.385 . S
C157 C158 1.395 . S
C157 H185 0.929 . S
C158 C157 1.395 . S
C158 C159 1.335 . S
C159 C158 1.335 . S
C159 C160 1.398 . S
C159 H186 0.930 . S
C160 C155 1.382 . S
C160 C159 1.398 . S
C160 H187 0.929 . S
C161 O174 1.271 . S
C161 O175 1.251 . S
C162 O176 1.252 . S
C162 O177 1.272 . S
C163 Sm153 2.846 . S
C163 C164 1.506 . S
C163 O178 1.261 . S
C163 O179 1.242 . S
C164 C163 1.506 . S
C164 C165 1.358 . S
C164 C169 1.382 . S
C165 C164 1.358 . S
C165 C166 1.385 . S
C165 H188 0.930 . S
C166 C165 1.385 . S
C166 C167 1.395 . S
C166 H189 0.929 . S
C167 C166 1.395 . S
C167 C168 1.335 . S
C168 C167 1.335 . S
C168 C169 1.398 . S
C168 H190 0.930 . S
C169 C164 1.382 . S
C169 C168 1.398 . S
C169 H191 0.929 . S
C170 O180 1.271 . S
C170 O181 1.251 . S
C171 O182 1.252 . S
C171 O183 1.272 . S
O172 Sm152 2.543 . S
O172 C154 1.261 . S
O173 Sm152 2.450 . S
O173 C154 1.242 . S
O174 Sm152 2.681 . S
O174 Sm153 2.386 . S
O174 C161 1.271 . S
O175 Sm152 2.464 . S
O175 C161 1.251 . S
O176 Sm152 2.396 . S
O176 C162 1.252 . S
O177 Sm153 2.408 . S
O177 C162 1.272 . S
O178 Sm153 2.543 . S
O178 C163 1.261 . S
O179 Sm153 2.450 . S
O179 C163 1.242 . S
O180 Sm152 2.386 . S
O180 Sm153 2.681 . S
O180 C170 1.271 . S
O181 Sm153 2.464 . S
O181 C170 1.251 . S
O182 Sm153 2.396 . S
O182 C171 1.252 . S
O183 Sm152 2.408 . S
O183 C171 1.272 . S
H184 C156 0.930 . S
H185 C157 0.929 . S
H186 C159 0.930 . S
H187 C160 0.929 . S
H188 C165 0.930 . S
H189 C166 0.929 . S
H190 C168 0.930 . S
H191 C169 0.929 . S
Sm192 C194 2.846 . S
Sm192 O212 2.543 . S
Sm192 O213 2.450 . S
Sm192 O214 2.681 1_455 S
Sm192 O215 2.464 1_455 S
Sm192 O216 2.396 . S
Sm192 O220 2.386 1_554 S
Sm192 O223 2.408 1_454 S
Sm193 C203 2.859 . S
Sm193 O214 2.390 1_556 S
Sm193 O217 2.395 1_656 S
Sm193 O218 2.557 . S
Sm193 O219 2.458 . S
Sm193 O220 2.673 1_655 S
Sm193 O221 2.456 1_655 S
Sm193 O222 2.404 . S
C194 Sm192 2.846 . S
C194 C195 1.506 . S
C194 O212 1.261 . S
C194 O213 1.242 . S
C195 C194 1.506 . S
C195 C196 1.358 . S
C195 C200 1.382 . S
C196 C195 1.358 . S
C196 C197 1.385 . S
C196 H224 0.930 . S
C197 C196 1.385 . S
C197 C198 1.395 . S
C197 H225 0.929 . S
C198 C197 1.395 . S
C198 C199 1.335 . S
C199 C198 1.335 . S
C199 C200 1.398 . S
C199 H226 0.930 . S
C200 C195 1.382 . S
C200 C199 1.398 . S
C200 H227 0.929 . S
C201 O214 1.271 . S
C201 O215 1.251 . S
C202 O216 1.252 . S
C202 O217 1.272 . S
C203 Sm193 2.859 . S
C203 C204 1.506 . S
C203 O218 1.261 . S
C203 O219 1.242 . S
C204 C203 1.506 . S
C204 C205 1.358 . S
C204 C209 1.382 . S
C205 C204 1.358 . S
C205 C206 1.385 . S
C205 H228 0.930 . S
C206 C205 1.385 . S
C206 C207 1.395 . S
C206 H229 0.929 . S
C207 C206 1.395 . S
C207 C208 1.335 . S
C208 C207 1.335 . S
C208 C209 1.398 . S
C208 H230 0.930 . S
C209 C204 1.382 . S
C209 C208 1.398 . S
C209 H231 0.929 . S
C210 O220 1.271 . S
C210 O221 1.251 . S
C211 O222 1.252 . S
C211 O223 1.272 . S
O212 Sm192 2.543 . S
O212 C194 1.261 . S
O213 Sm192 2.450 . S
O213 C194 1.242 . S
O214 Sm192 2.681 1_655 S
O214 Sm193 2.390 1_554 S
O214 C201 1.271 . S
O215 Sm192 2.464 1_655 S
O215 C201 1.251 . S
O216 Sm192 2.396 . S
O216 C202 1.252 . S
O217 Sm193 2.395 1_454 S
O217 C202 1.272 . S
O218 Sm193 2.557 . S
O218 C203 1.261 . S
O219 Sm193 2.458 . S
O219 C203 1.242 . S
O220 Sm192 2.386 1_556 S
O220 Sm193 2.673 1_455 S
O220 C210 1.271 . S
O221 Sm193 2.456 1_455 S
O221 C210 1.251 . S
O222 Sm193 2.404 . S
O222 C211 1.252 . S
O223 Sm192 2.408 1_656 S
O223 C211 1.272 . S
H224 C196 0.930 . S
H225 C197 0.929 . S
H226 C199 0.930 . S
H227 C200 0.929 . S
H228 C205 0.930 . S
H229 C206 0.929 . S
H230 C208 0.930 . S
H231 C209 0.929 . S
C232 C233 1.387 . S
C232 H236 0.950 . S
C232 C241 1.390 . S
C233 C232 1.387 . S
C233 C235 1.387 . S
H234 C241 0.950 . S
C235 C233 1.387 . S
C235 C237 1.390 . S
C235 H239 0.950 . S
H236 C232 0.950 . S
C237 C235 1.390 . S
C237 C238 1.387 . S
C237 H240 0.950 . S
C238 C237 1.387 . S
C238 C241 1.387 . S
H239 C235 0.950 . S
H240 C237 0.950 . S
C241 C232 1.390 . S
C241 H234 0.950 . S
C241 C238 1.387 . S
C242 C243 1.387 . S
C242 H246 0.950 . S
C242 C251 1.390 . S
C243 C242 1.387 . S
C243 C245 1.387 . S
H244 C251 0.950 . S
C245 C243 1.387 . S
C245 C247 1.390 . S
C245 H249 0.950 . S
H246 C242 0.950 . S
C247 C245 1.390 . S
C247 C248 1.387 . S
C247 H250 0.950 . S
C248 C247 1.387 . S
C248 C251 1.387 . S
H249 C245 0.950 . S
H250 C247 0.950 . S
C251 C242 1.390 . S
C251 H244 0.950 . S
C251 C248 1.387 . S
C252 C253 1.387 . S
C252 H256 0.950 . S
C252 C261 1.390 . S
C253 C252 1.387 . S
C253 C255 1.387 . S
H254 C261 0.950 . S
C255 C253 1.387 . S
C255 C257 1.390 . S
C255 H259 0.950 . S
H256 C252 0.950 . S
C257 C255 1.390 . S
C257 C258 1.387 . S
C257 H260 0.950 . S
C258 C257 1.387 . S
C258 C261 1.387 . S
H259 C255 0.950 . S
H260 C257 0.950 . S
C261 C252 1.390 . S
C261 H254 0.950 . S
C261 C258 1.387 . S
C262 C263 1.387 . S
C262 H266 0.950 . S
C262 C271 1.390 . S
C263 C262 1.387 . S
C263 C265 1.387 . S
H264 C271 0.950 . S
C265 C263 1.387 . S
C265 C267 1.390 . S
C265 H269 0.950 . S
H266 C262 0.950 . S
C267 C265 1.390 . S
C267 C268 1.387 . S
C267 H270 0.950 . S
C268 C267 1.387 . S
C268 C271 1.387 . S
H269 C265 0.950 . S
H270 C267 0.950 . S
C271 C262 1.390 . S
C271 H264 0.950 . S
C271 C268 1.387 . S
C272 C273 1.387 . S
C272 H276 0.950 . S
C272 C281 1.390 . S
C273 C272 1.387 . S
C273 C275 1.387 . S
H274 C281 0.950 . S
C275 C273 1.387 . S
C275 C277 1.390 . S
C275 H279 0.950 . S
H276 C272 0.950 . S
C277 C275 1.390 . S
C277 C278 1.387 . S
C277 H280 0.950 . S
C278 C277 1.387 . S
C278 C281 1.387 . S
H279 C275 0.950 . S
H280 C277 0.950 . S
C281 C272 1.390 . S
C281 H274 0.950 . S
C281 C278 1.387 . S
C282 C283 1.387 . S
C282 H286 0.950 . S
C282 C291 1.390 . S
C283 C282 1.387 . S
C283 C285 1.387 . S
H284 C291 0.950 . S
C285 C283 1.387 . S
C285 C287 1.390 . S
C285 H289 0.950 . S
H286 C282 0.950 . S
C287 C285 1.390 . S
C287 C288 1.387 . S
C287 H290 0.950 . S
C288 C287 1.387 . S
C288 C291 1.387 . S
H289 C285 0.950 . S
H290 C287 0.950 . S
C291 C282 1.390 . S
C291 H284 0.950 . S
C291 C288 1.387 . S
C292 C293 1.387 . S
C292 H296 0.950 . S
C292 C301 1.390 . S
C293 C292 1.387 . S
C293 C295 1.387 . S
H294 C301 0.950 . S
C295 C293 1.387 . S
C295 C297 1.390 . S
C295 H299 0.950 . S
H296 C292 0.950 . S
C297 C295 1.390 . S
C297 C298 1.387 . S
C297 H300 0.950 . S
C298 C297 1.387 . S
C298 C301 1.387 . S
H299 C295 0.950 . S
H300 C297 0.950 . S
C301 C292 1.390 . S
C301 H294 0.950 . S
C301 C298 1.387 . S
C302 C303 1.387 . S
C302 H306 0.950 . S
C302 C311 1.390 . S
C303 C302 1.387 . S
C303 C305 1.387 . S
H304 C311 0.950 . S
C305 C303 1.387 . S
C305 C307 1.390 . S
C305 H309 0.950 . S
H306 C302 0.950 . S
C307 C305 1.390 . S
C307 C308 1.387 . S
C307 H310 0.950 . S
C308 C307 1.387 . S
C308 C311 1.387 . S
H309 C305 0.950 . S
H310 C307 0.950 . S
C311 C302 1.390 . S
C311 H304 0.950 . S
C311 C308 1.387 . S
C312 C313 1.387 . S
C312 H316 0.950 . S
C312 C321 1.390 . S
C313 C312 1.387 . S
C313 C315 1.387 . S
H314 C321 0.950 . S
C315 C313 1.387 . S
C315 C317 1.390 . S
C315 H319 0.950 . S
H316 C312 0.950 . S
C317 C315 1.390 . S
C317 C318 1.387 . S
C317 H320 0.950 . S
C318 C317 1.387 . S
C318 C321 1.387 . S
H319 C315 0.950 . S
H320 C317 0.950 . S
C321 C312 1.390 . S
C321 H314 0.950 . S
C321 C318 1.387 . S
C322 C323 1.387 . S
C322 H326 0.950 . S
C322 C331 1.390 . S
C323 C322 1.387 . S
C323 C325 1.387 . S
H324 C331 0.950 . S
C325 C323 1.387 . S
C325 C327 1.390 . S
C325 H329 0.950 . S
H326 C322 0.950 . S
C327 C325 1.390 . S
C327 C328 1.387 . S
C327 H330 0.950 . S
C328 C327 1.387 . S
C328 C331 1.387 . S
H329 C325 0.950 . S
H330 C327 0.950 . S
C331 C322 1.390 . S
C331 H324 0.950 . S
C331 C328 1.387 . S
C332 C333 1.387 . S
C332 H336 0.950 . S
C332 C341 1.390 . S
C333 C332 1.387 . S
C333 C335 1.387 . S
H334 C341 0.950 . S
C335 C333 1.387 . S
C335 C337 1.390 . S
C335 H339 0.950 . S
H336 C332 0.950 . S
C337 C335 1.390 . S
C337 C338 1.387 . S
C337 H340 0.950 . S
C338 C337 1.387 . S
C338 C341 1.387 . S
H339 C335 0.950 . S
H340 C337 0.950 . S
C341 C332 1.390 . S
C341 H334 0.950 . S
C341 C338 1.387 . S
C342 C343 1.387 . S
C342 H346 0.950 . S
C342 C351 1.390 . S
C343 C342 1.387 . S
C343 C345 1.387 . S
H344 C351 0.950 . S
C345 C343 1.387 . S
C345 C347 1.390 . S
C345 H349 0.950 . S
H346 C342 0.950 . S
C347 C345 1.390 . S
C347 C348 1.387 . S
C347 H350 0.950 . S
C348 C347 1.387 . S
C348 C351 1.387 . S
H349 C345 0.950 . S
H350 C347 0.950 . S
C351 C342 1.390 . S
C351 H344 0.950 . S
C351 C348 1.387 . S
C352 C353 1.387 . S
C352 H356 0.950 . S
C352 C361 1.390 . S
C353 C352 1.387 . S
C353 C355 1.387 . S
H354 C361 0.950 . S
C355 C353 1.387 . S
C355 C357 1.390 . S
C355 H359 0.950 . S
H356 C352 0.950 . S
C357 C355 1.390 . S
C357 C358 1.387 . S
C357 H360 0.950 . S
C358 C357 1.387 . S
C358 C361 1.387 . S
H359 C355 0.950 . S
H360 C357 0.950 . S
C361 C352 1.390 . S
C361 H354 0.950 . S
C361 C358 1.387 . S
C362 C363 1.387 . S
C362 H366 0.950 . S
C362 C371 1.390 . S
C363 C362 1.387 . S
C363 C365 1.387 . S
H364 C371 0.950 . S
C365 C363 1.387 . S
C365 C367 1.390 . S
C365 H369 0.950 . S
H366 C362 0.950 . S
C367 C365 1.390 . S
C367 C368 1.387 . S
C367 H370 0.950 . S
C368 C367 1.387 . S
C368 C371 1.387 . S
H369 C365 0.950 . S
H370 C367 0.950 . S
C371 C362 1.390 . S
C371 H364 0.950 . S
C371 C368 1.387 . S
C372 C373 1.387 . S
C372 H376 0.950 . S
C372 C381 1.390 . S
C373 C372 1.387 . S
C373 C375 1.387 . S
H374 C381 0.950 . S
C375 C373 1.387 . S
C375 C377 1.390 . S
C375 H379 0.950 . S
H376 C372 0.950 . S
C377 C375 1.390 . S
C377 C378 1.387 . S
C377 H380 0.950 . S
C378 C377 1.387 . S
C378 C381 1.387 . S
H379 C375 0.950 . S
H380 C377 0.950 . S
C381 C372 1.390 . S
C381 H374 0.950 . S
C381 C378 1.387 . S
C382 C383 1.387 . S
C382 H386 0.950 . S
C382 C391 1.390 . S
C383 C382 1.387 . S
C383 C385 1.387 . S
H384 C391 0.950 . S
C385 C383 1.387 . S
C385 C387 1.390 . S
C385 H389 0.950 . S
H386 C382 0.950 . S
C387 C385 1.390 . S
C387 C388 1.387 . S
C387 H390 0.950 . S
C388 C387 1.387 . S
C388 C391 1.387 . S
H389 C385 0.950 . S
H390 C387 0.950 . S
C391 C382 1.390 . S
C391 H384 0.950 . S
C391 C388 1.387 . S
C392 C393 1.387 . S
C392 H396 0.950 . S
C392 C401 1.390 . S
C393 C392 1.387 . S
C393 C395 1.387 . S
H394 C401 0.950 . S
C395 C393 1.387 . S
C395 C397 1.390 . S
C395 H399 0.950 . S
H396 C392 0.950 . S
C397 C395 1.390 . S
C397 C398 1.387 . S
C397 H400 0.950 . S
C398 C397 1.387 . S
C398 C401 1.387 . S
H399 C395 0.950 . S
H400 C397 0.950 . S
C401 C392 1.390 . S
C401 H394 0.950 . S
C401 C398 1.387 . S
C402 C403 1.387 . S
C402 H406 0.950 . S
C402 C411 1.390 . S
C403 C402 1.387 . S
C403 C405 1.387 . S
H404 C411 0.950 . S
C405 C403 1.387 . S
C405 C407 1.390 . S
C405 H409 0.950 . S
H406 C402 0.950 . S
C407 C405 1.390 . S
C407 C408 1.387 . S
C407 H410 0.950 . S
C408 C407 1.387 . S
C408 C411 1.387 . S
H409 C405 0.950 . S
H410 C407 0.950 . S
C411 C402 1.390 . S
C411 H404 0.950 . S
C411 C408 1.387 . S
C412 C413 1.387 . S
C412 H416 0.950 . S
C412 C421 1.390 . S
C413 C412 1.387 . S
C413 C415 1.387 . S
H414 C421 0.950 . S
C415 C413 1.387 . S
C415 C417 1.390 . S
C415 H419 0.950 . S
H416 C412 0.950 . S
C417 C415 1.390 . S
C417 C418 1.387 . S
C417 H420 0.950 . S
C418 C417 1.387 . S
C418 C421 1.387 . S
H419 C415 0.950 . S
H420 C417 0.950 . S
C421 C412 1.390 . S
C421 H414 0.950 . S
C421 C418 1.387 . S
C422 C423 1.387 . S
C422 H426 0.950 . S
C422 C431 1.390 . S
C423 C422 1.387 . S
C423 C425 1.387 . S
H424 C431 0.950 . S
C425 C423 1.387 . S
C425 C427 1.390 . S
C425 H429 0.950 . S
H426 C422 0.950 . S
C427 C425 1.390 . S
C427 C428 1.387 . S
C427 H430 0.950 . S
C428 C427 1.387 . S
C428 C431 1.387 . S
H429 C425 0.950 . S
H430 C427 0.950 . S
C431 C422 1.390 . S
C431 H424 0.950 . S
C431 C428 1.387 . S
C432 C433 1.387 . S
C432 H436 0.950 . S
C432 C441 1.390 . S
C433 C432 1.387 . S
C433 C435 1.387 . S
H434 C441 0.950 . S
C435 C433 1.387 . S
C435 C437 1.390 . S
C435 H439 0.950 . S
H436 C432 0.950 . S
C437 C435 1.390 . S
C437 C438 1.387 . S
C437 H440 0.950 . S
C438 C437 1.387 . S
C438 C441 1.387 . S
H439 C435 0.950 . S
H440 C437 0.950 . S
C441 C432 1.390 . S
C441 H434 0.950 . S
C441 C438 1.387 . S
C442 C443 1.387 . S
C442 H446 0.950 . S
C442 C451 1.390 . S
C443 C442 1.387 . S
C443 C445 1.387 . S
H444 C451 0.950 . S
C445 C443 1.387 . S
C445 C447 1.390 . S
C445 H449 0.950 . S
H446 C442 0.950 . S
C447 C445 1.390 . S
C447 C448 1.387 . S
C447 H450 0.950 . S
C448 C447 1.387 . S
C448 C451 1.387 . S
H449 C445 0.950 . S
H450 C447 0.950 . S
C451 C442 1.390 . S
C451 H444 0.950 . S
C451 C448 1.387 . S
C452 C453 1.387 . S
C452 H456 0.950 . S
C452 C461 1.390 . S
C453 C452 1.387 . S
C453 C455 1.387 . S
H454 C461 0.950 . S
C455 C453 1.387 . S
C455 C457 1.390 . S
C455 H459 0.950 . S
H456 C452 0.950 . S
C457 C455 1.390 . S
C457 C458 1.387 . S
C457 H460 0.950 . S
C458 C457 1.387 . S
C458 C461 1.387 . S
H459 C455 0.950 . S
H460 C457 0.950 . S
C461 C452 1.390 . S
C461 H454 0.950 . S
C461 C458 1.387 . S
C462 C463 1.387 . S
C462 H466 0.950 . S
C462 C471 1.390 . S
C463 C462 1.387 . S
C463 C465 1.387 . S
H464 C471 0.950 . S
C465 C463 1.387 . S
C465 C467 1.390 . S
C465 H469 0.950 . S
H466 C462 0.950 . S
C467 C465 1.390 . S
C467 C468 1.387 . S
C467 H470 0.950 . S
C468 C467 1.387 . S
C468 C471 1.387 . S
H469 C465 0.950 . S
H470 C467 0.950 . S
C471 C462 1.390 . S
C471 H464 0.950 . S
C471 C468 1.387 . S
C233 C5 1.035 . S
C238 C78 1.048 . S
C243 C14 1.015 . S
C248 C127 1.018 . S
C258 C162 2.514 . S
C253 C25 2.577 . S
C263 C34 2.533 . S
C268 C201 2.484 . S
C278 C122 2.017 . S
C273 C7 1.860 . S
C288 C81 0.721 . S
C283 C13 0.714 . S
C298 C211 1.950 . S
C293 C23 2.010 . S
C308 C170 1.803 . S
C303 C31 1.824 . S
C313 C4 1.384 . S
C318 C198 1.443 . S
C328 C130 2.349 . S
C323 C22 2.450 . S
C333 C32 2.385 . S
C338 C91 2.374 . S
C343 C16 1.070 . S
C348 C167 1.098 . S
C358 C87 1.036 . S
C353 C41 1.018 . S
C363 C50 1.022 . S
C368 C118 1.022 . S
C373 C61 2.569 . S
C378 C171 2.507 . S
C383 C67 2.541 . S
C388 C210 2.492 . S
C393 C40 1.877 . S
C398 C131 2.031 . S
C408 C90 0.698 . S
C403 C52 0.690 . S
C418 C202 1.955 . S
C413 C59 2.019 . S
C428 C161 1.803 . S
C423 C70 1.820 . S
C433 C43 1.376 . S
C438 C207 1.439 . S
C448 C121 2.359 . S
C443 C58 2.460 . S
C458 C82 2.358 . S
C453 C68 2.366 . S
C463 C49 1.075 . S
C468 C158 1.099 . S
