# Generated by pormake.
# Topology tsx, (6,3)-cn, num edge types: 1
# Building blocks:
#     Node 0, Type 0, BuildingBlock: MIDCAF_clean_sbu_0, # of connection points: 6
#     Node 1, Type 0, BuildingBlock: MIDCAF_clean_sbu_0, # of connection points: 6
#     Node 2, Type 1, BuildingBlock: VETTIZ_charged_linker_0, # of connection points: 3
#     Node 3, Type 1, BuildingBlock: VETTIZ_charged_linker_0, # of connection points: 3
#     Node 4, Type 1, BuildingBlock: VETTIZ_charged_linker_0, # of connection points: 3
#     Node 5, Type 1, BuildingBlock: VETTIZ_charged_linker_0, # of connection points: 3
#     Edge 6, Type (0, 1), BuildingBlock: XIVTED_clean_linker_0, # of connection points: 2
#     Edge 7, Type (0, 1), BuildingBlock: XIVTED_clean_linker_0, # of connection points: 2
#     Edge 8, Type (0, 1), BuildingBlock: XIVTED_clean_linker_0, # of connection points: 2
#     Edge 9, Type (0, 1), BuildingBlock: XIVTED_clean_linker_0, # of connection points: 2
#     Edge 10, Type (0, 1), BuildingBlock: XIVTED_clean_linker_0, # of connection points: 2
#     Edge 11, Type (0, 1), BuildingBlock: XIVTED_clean_linker_0, # of connection points: 2
#     Edge 12, Type (0, 1), BuildingBlock: XIVTED_clean_linker_0, # of connection points: 2
#     Edge 13, Type (0, 1), BuildingBlock: XIVTED_clean_linker_0, # of connection points: 2
#     Edge 14, Type (0, 1), BuildingBlock: XIVTED_clean_linker_0, # of connection points: 2
#     Edge 15, Type (0, 1), BuildingBlock: XIVTED_clean_linker_0, # of connection points: 2
#     Edge 16, Type (0, 1), BuildingBlock: XIVTED_clean_linker_0, # of connection points: 2
#     Edge 17, Type (0, 1), BuildingBlock: XIVTED_clean_linker_0, # of connection points: 2
# Relax obj value: 0.121
# Max RMSD: 0.183
# Mean RMSD: 0.115
data_MOF--net-tsx--node1-MIDCAF_clean_sbu_0--node2-VETTIZ_charged_linker_0--edge1-XIVTED_clean_linker_0
_symmetry_space_group_name_H-M    P1
_symmetry_Int_Tables_number       1
_symmetry_cell_setting            triclinic
loop_
_symmetry_equiv_pos_as_xyz
'x, y, z'
_cell_length_a     23.291914
_cell_length_b     24.43618
_cell_length_c     46.788536
_cell_angle_alpha  90.703143
_cell_angle_beta   95.368046
_cell_angle_gamma 90.537932
loop_
_atom_site_label
_atom_site_type_symbol
_atom_site_fract_x
_atom_site_fract_y
_atom_site_fract_z
_atom_type_partial_charge
Zn0 Zn 0.95532 0.97628 0.97355 0.0
Zn1 Zn 0.1352 0.99548 0.04693 0.0
Zn2 Zn 0.04489 0.9962 0.01051 0.0
C3 C 0.16324 0.06182 0.00219 0.0
C4 C 0.11715 0.88806 0.03518 0.0
O5 O 0.01463 0.90868 0.01175 0.0
O6 O 0.93409 0.9008 0.98292 0.0
C7 C 0.92702 0.06077 0.01148 0.0
O8 O 0.11232 0.04649 0.99162 0.0
O9 O 0.1846 0.04281 0.02573 0.0
O10 O 0.15371 0.91733 0.05011 0.0
O11 O 0.0739 0.91075 0.02073 0.0
O12 O 0.90896 0.03648 0.98834 0.0
O13 O 0.97638 0.04882 0.02449 0.0
O14 O 0.07187 0.02424 0.96898 0.0
O15 O 0.99965 0.98905 0.94014 0.0
C16 C 0.04809 0.01304 0.9436 0.0
O17 O 0.01926 0.04323 0.04746 0.0
O18 O 0.09695 0.03233 0.07778 0.0
C19 C 0.97007 0.8803 0.00147 0.0
C20 C 0.04675 0.05091 0.07234 0.0
Zn21 Zn 0.67922 0.5604 0.5476 0.0
Zn22 Zn 0.48604 0.54928 0.52695 0.0
Zn23 Zn 0.58194 0.55442 0.52721 0.0
C24 C 0.51658 0.56046 0.46981 0.0
C25 C 0.50519 0.65641 0.52106 0.0
O26 O 0.5676 0.57273 0.57087 0.0
O27 O 0.65876 0.57589 0.58765 0.0
C28 C 0.66777 0.4552 0.52386 0.0
O29 O 0.55538 0.5892 0.48499 0.0
O30 O 0.48145 0.53266 0.48304 0.0
O31 O 0.47795 0.62945 0.53855 0.0
O32 O 0.54533 0.63201 0.50864 0.0
O33 O 0.70397 0.4847 0.53897 0.0
O34 O 0.61761 0.47425 0.51587 0.0
O35 O 0.60831 0.6222 0.5007 0.0
O36 O 0.69761 0.62151 0.52153 0.0
C37 C 0.66022 0.64164 0.50336 0.0
O38 O 0.55247 0.46927 0.52045 0.0
O39 O 0.49046 0.48323 0.55241 0.0
C40 C 0.60603 0.57839 0.59198 0.0
C41 C 0.51769 0.45014 0.53773 0.0
C42 C 0.19478 0.95786 0.44712 0.0
C43 C 0.23813 0.9348 0.43155 0.0
C44 C 0.23503 0.94357 0.40164 0.0
C45 C 0.14393 0.98984 0.4028 0.0
C46 C 0.14846 0.98561 0.43233 0.0
C47 C 0.099 0.01385 0.44505 0.0
H48 H 0.82974 0.12087 0.4197 0.0
C49 C 0.08805 0.01498 0.39347 0.0
C50 C 0.06027 0.02784 0.4181 0.0
H51 H 0.93807 0.12708 0.50007 0.0
H52 H 1.01021 0.07381 0.47854 0.0
H53 H 0.91814 0.16725 0.38895 0.0
H54 H 0.86708 0.99903 0.39433 0.0
H55 H 0.87711 0.01172 0.35813 0.0
H56 H 0.82441 0.05044 0.37557 0.0
H57 H 0.86001 0.13877 0.36549 0.0
H58 H 0.93344 0.13868 0.3562 0.0
C59 C 0.12375 0.06616 0.46068 0.0
C60 C 0.06997 0.97375 0.46464 0.0
C61 C 0.03118 0.04563 0.28738 0.0
C62 C 0.98011 0.06402 0.27221 0.0
C63 C 0.93076 0.07166 0.28692 0.0
C64 C 0.93311 0.06396 0.31662 0.0
C65 C 0.9854 0.04862 0.33178 0.0
C66 C 0.03271 0.03783 0.31702 0.0
C67 C 0.08343 0.01862 0.33652 0.0
C68 C 0.05988 0.02351 0.36566 0.0
C69 C 1.00288 0.04171 0.36268 0.0
C70 C 0.13455 0.05875 0.334 0.0
C71 C 0.09576 0.95838 0.32833 0.0
C72 C 0.86887 0.11129 0.43294 0.0
C73 C 0.87806 0.12986 0.46153 0.0
C74 C 0.9293 0.11395 0.4779 0.0
C75 C 0.97187 0.08379 0.46522 0.0
C76 C 0.96393 0.0705 0.43574 0.0
C77 C 0.9128 0.0845 0.42027 0.0
C78 C 0.9142 0.07619 0.38858 0.0
C79 C 0.97454 0.05466 0.38734 0.0
C80 C 1.00331 0.04943 0.41498 0.0
C81 C 0.9057 0.13273 0.37383 0.0
C82 C 0.86811 0.03234 0.37836 0.0
H83 H 0.18811 0.97406 0.36448 0.0
H84 H 0.19575 0.95319 0.47012 0.0
H85 H 0.06252 0.93328 0.45372 0.0
H86 H 0.02748 0.98787 0.47002 0.0
H87 H 0.09752 0.96752 0.485 0.0
H88 H 0.15375 0.08788 0.4474 0.0
H89 H 0.14841 0.05591 0.48129 0.0
H90 H 0.09045 0.09627 0.46467 0.0
H91 H 0.0693 0.03792 0.2764 0.0
H92 H 0.89089 0.08538 0.27559 0.0
H93 H 0.89447 0.0716 0.32674 0.0
H94 H 0.11938 0.1018 0.3335 0.0
H95 H 0.15544 0.05082 0.31399 0.0
H96 H 0.16767 0.05702 0.35245 0.0
H97 H 0.05691 0.93773 0.31727 0.0
H98 H 0.10747 0.93291 0.34734 0.0
H99 H 0.13052 0.95598 0.31367 0.0
H100 H 0.26871 0.92941 0.38902 0.0
C101 C 0.18815 0.97011 0.38727 0.0
C102 C 0.22376 0.12323 0.56135 0.0
C103 C 0.27046 0.14995 0.57736 0.0
C104 C 0.27028 0.15393 0.60745 0.0
C105 C 0.1794 0.10485 0.60531 0.0
C106 C 0.17882 0.10091 0.57581 0.0
C107 C 0.12528 0.07169 0.5625 0.0
H108 H 0.87737 0.9333 0.58056 0.0
C109 C 0.12675 0.07812 0.61389 0.0
C110 C 0.09428 0.05899 0.58895 0.0
H111 H 0.94567 0.97485 0.50071 0.0
H112 H 0.02545 0.02304 0.52687 0.0
H113 H 0.99519 0.90198 0.61391 0.0
H114 H 0.90478 0.05542 0.61231 0.0
H115 H 0.92788 0.03943 0.64816 0.0
H116 H 0.87759 0.99447 0.62763 0.0
H117 H 0.93171 0.91133 0.63234 0.0
H118 H 1.00247 0.92973 0.64888 0.0
C119 C 0.14439 0.01877 0.54779 0.0
C120 C 0.09086 0.11158 0.54206 0.0
C121 C 0.10005 0.06545 0.71992 0.0
C122 C 0.05972 0.03843 0.73535 0.0
C123 C 0.01335 0.00986 0.72011 0.0
C124 C 1.00729 0.00843 0.68992 0.0
C125 C 0.04851 0.03522 0.67476 0.0
C126 C 0.09401 0.06279 0.68988 0.0
C127 C 0.13568 0.08615 0.67059 0.0
C128 C 0.10752 0.06875 0.6413 0.0
C129 C 0.05615 0.03942 0.64371 0.0
C130 C 0.19489 0.05831 0.67779 0.0
C131 C 0.13647 0.14928 0.67455 0.0
C132 C 0.90888 0.95363 0.56864 0.0
C133 C 0.90512 0.95004 0.53844 0.0
C134 C 0.94789 0.9763 0.52393 0.0
C135 C 0.99419 0.00435 0.53918 0.0
C136 C 0.99811 0.00619 0.56936 0.0
C137 C 0.95538 0.98175 0.58357 0.0
C138 C 0.96659 0.98772 0.6157 0.0
C139 C 0.0228 0.02015 0.61847 0.0
C140 C 0.04139 0.03044 0.59123 0.0
C141 C 0.97405 0.92986 0.62862 0.0
C142 C 0.9166 0.02069 0.62678 0.0
H143 H 0.22807 0.13666 0.64428 0.0
H144 H 0.22217 0.11977 0.5382 0.0
H145 H 0.09872 0.1549 0.54906 0.0
H146 H 0.04367 0.1058 0.54183 0.0
H147 H 0.10335 0.10757 0.51984 0.0
H148 H 0.17476 0.99561 0.56279 0.0
H149 H 0.1671 0.02845 0.52864 0.0
H150 H 0.10839 0.99041 0.54122 0.0
H151 H 0.13676 0.08678 0.73102 0.0
H152 H 0.98167 0.98875 0.7316 0.0
H153 H 0.97112 0.98607 0.67955 0.0
H154 H 0.18948 0.01619 0.68601 0.0
H155 H 0.22211 0.08183 0.69451 0.0
H156 H 0.21913 0.05247 0.6588 0.0
H157 H 0.09285 0.16456 0.67821 0.0
H158 H 0.14807 0.17114 0.65534 0.0
H159 H 0.16646 0.16221 0.69333 0.0
H160 H 0.30439 0.17568 0.62036 0.0
C161 C 0.22533 0.13166 0.62141 0.0
C162 C 0.63527 0.39228 0.97711 0.0
C163 C 0.68578 0.37232 0.96666 0.0
C164 C 0.69884 0.38761 0.93899 0.0
C165 C 0.60966 0.43837 0.93206 0.0
C166 C 0.59811 0.42505 0.95954 0.0
C167 C 0.5424 0.44884 0.96736 0.0
H168 H 0.31009 0.60648 0.93113 0.0
C169 C 0.5606 0.47063 0.91909 0.0
C170 C 0.52116 0.47717 0.9398 0.0
H171 H 0.3584 0.53063 0.01285 0.0
H172 H 0.439 0.48779 0.99318 0.0
H173 H 0.43652 0.6414 0.91646 0.0
H174 H 0.32953 0.50037 0.89374 0.0
H175 H 0.37135 0.50999 0.86487 0.0
H176 H 0.32168 0.5625 0.87385 0.0
H177 H 0.3701 0.64319 0.89364 0.0
H178 H 0.43722 0.62818 0.87934 0.0
C179 C 0.55718 0.4899 0.99242 0.0
C180 C 0.50215 0.40092 0.9741 0.0
C181 C 0.55447 0.52708 0.81474 0.0
C182 C 0.5119 0.55156 0.79576 0.0
C183 C 0.46036 0.56878 0.8066 0.0
C184 C 0.45135 0.56146 0.83553 0.0
C185 C 0.49393 0.53607 0.85393 0.0
C186 C 0.54423 0.51896 0.84337 0.0
C187 C 0.58311 0.48955 0.86551 0.0
C188 C 0.54788 0.49205 0.89117 0.0
C189 C 0.49607 0.51997 0.88435 0.0
C190 C 0.64027 0.52254 0.87096 0.0
C191 C 0.5903 0.43003 0.85466 0.0
C192 C 0.33732 0.5799 0.94475 0.0
C193 C 0.32791 0.57264 0.97375 0.0
C194 C 0.3651 0.53798 0.99062 0.0
C195 C 0.41208 0.51311 0.97917 0.0
C196 C 0.42234 0.52288 0.95054 0.0
C197 C 0.38444 0.55481 0.93367 0.0
C198 C 0.40128 0.55996 0.90356 0.0
C199 C 0.45705 0.52803 0.90553 0.0
C200 C 0.46929 0.50644 0.93307 0.0
C201 C 0.41163 0.62134 0.89767 0.0
C202 C 0.35358 0.53221 0.88276 0.0
H203 H 0.67305 0.42999 0.90067 0.0
H204 H 0.62449 0.38207 0.99845 0.0
H205 H 0.50506 0.36665 0.95844 0.0
H206 H 0.45618 0.41205 0.97225 0.0
H207 H 0.51454 0.38469 0.99585 0.0
H208 H 0.59707 0.51361 0.98926 0.0
H209 H 0.565 0.4678 0.0129 0.0
H210 H 0.52398 0.52115 0.99447 0.0
H211 H 0.59511 0.51405 0.8076 0.0
H212 H 0.42622 0.58689 0.79263 0.0
H213 H 0.41125 0.57536 0.84238 0.0
H214 H 0.63211 0.56731 0.87003 0.0
H215 H 0.67017 0.51251 0.85454 0.0
H216 H 0.66244 0.51594 0.89253 0.0
H217 H 0.5495 0.41436 0.84299 0.0
H218 H 0.6001 0.40079 0.87217 0.0
H219 H 0.62447 0.42769 0.83966 0.0
H220 H 0.73727 0.37249 0.93031 0.0
C221 C 0.66114 0.42052 0.92167 0.0
C222 C 0.68816 0.59099 0.08475 0.0
C223 C 0.73366 0.61922 0.10099 0.0
C224 C 0.73478 0.61867 0.13125 0.0
C225 C 0.64486 0.56725 0.12831 0.0
C226 C 0.64493 0.56482 0.09884 0.0
C227 C 0.59491 0.5312 0.08504 0.0
H228 H 0.36126 0.36864 0.10065 0.0
C229 C 0.59278 0.53809 0.13623 0.0
C230 C 0.56319 0.51651 0.111 0.0
H231 H 0.43685 0.40775 0.0227 0.0
H232 H 0.50405 0.47026 0.04888 0.0
H233 H 0.4796 0.36117 0.14308 0.0
H234 H 0.36311 0.49452 0.12372 0.0
H235 H 0.38949 0.50183 0.15996 0.0
H236 H 0.34719 0.4419 0.14827 0.0
H237 H 0.40624 0.36161 0.15205 0.0
H238 H 0.46313 0.39309 0.17535 0.0
C239 C 0.62032 0.48011 0.0712 0.0
C240 C 0.55839 0.56782 0.06371 0.0
C241 C 0.54884 0.53934 0.24056 0.0
C242 C 0.50278 0.51888 0.25488 0.0
C243 C 0.45775 0.49006 0.23859 0.0
C244 C 0.45887 0.48154 0.20889 0.0
C245 C 0.50532 0.50224 0.19504 0.0
C246 C 0.54894 0.53103 0.21087 0.0
C247 C 0.59408 0.55156 0.19259 0.0
C248 C 0.57011 0.53091 0.16309 0.0
C249 C 0.51843 0.50144 0.16461 0.0
C250 C 0.6522 0.52423 0.20276 0.0
C251 C 0.59507 0.61494 0.19458 0.0
C252 C 0.39229 0.3908 0.08924 0.0
C253 C 0.39493 0.38211 0.05955 0.0
C254 C 0.43547 0.41237 0.04557 0.0
C255 C 0.47455 0.44846 0.06084 0.0
C256 C 0.47384 0.45429 0.09067 0.0
C257 C 0.43213 0.4269 0.10432 0.0
C258 C 0.43651 0.4402 0.13601 0.0
C259 C 0.48954 0.47747 0.13927 0.0
C260 C 0.51141 0.48549 0.11257 0.0
C261 C 0.44661 0.38634 0.15271 0.0
C262 C 0.38122 0.47088 0.14259 0.0
H263 H 0.69407 0.5955 0.16786 0.0
H264 H 0.68528 0.58995 0.06153 0.0
H265 H 0.55737 0.61059 0.07207 0.0
H266 H 0.51269 0.55484 0.06042 0.0
H267 H 0.57663 0.56901 0.04263 0.0
H268 H 0.65477 0.462 0.08616 0.0
H269 H 0.63994 0.49107 0.05127 0.0
H270 H 0.58857 0.44686 0.06625 0.0
H271 H 0.58473 0.56092 0.25218 0.0
H272 H 0.42109 0.47452 0.24872 0.0
H273 H 0.42348 0.45915 0.19783 0.0
H274 H 0.64526 0.48368 0.21253 0.0
H275 H 0.6778 0.54998 0.21913 0.0
H276 H 0.67863 0.51523 0.18485 0.0
H277 H 0.55047 0.63107 0.19412 0.0
H278 H 0.61369 0.63447 0.17638 0.0
H279 H 0.61928 0.62946 0.21488 0.0
H280 H 0.76992 0.63772 0.14468 0.0
C281 C 0.69069 0.59346 0.14486 0.0
H282 H 0.11654 0.16246 0.9951 0.0
H283 H 0.42786 0.30562 0.02134 0.0
H284 H 0.2756 0.07524 0.99176 0.0
H285 H 0.2784 0.362 0.06053 0.0
H286 H 0.36876 0.23293 0.99656 0.0
H287 H 0.17191 0.24811 0.00336 0.0
C288 C 0.16292 0.16175 0.99446 0.0
C289 C 0.19156 0.11172 0.99257 0.0
C290 C 0.34878 0.26161 0.01031 0.0
C291 C 0.25509 0.20909 0.00279 0.0
C292 C 0.3824 0.30318 0.02445 0.0
C293 C 0.35815 0.33979 0.04326 0.0
C294 C 0.29012 0.25687 0.01459 0.0
C295 C 0.29904 0.33428 0.04656 0.0
C296 C 0.19454 0.21047 -0.00018 0.0
C297 C 0.25189 0.113 0.99284 0.0
N298 N 0.26707 0.29358 0.03241 0.0
N299 N 0.28171 0.16073 0.99828 0.0
H300 H 0.18346 0.82361 0.07181 0.0
H301 H 0.21917 0.59964 0.94991 0.0
H302 H 0.07962 0.81877 0.99046 0.0
H303 H 0.33405 0.62042 0.02731 0.0
H304 H 0.15364 0.66573 0.96883 0.0
H305 H 0.22266 0.73453 0.06069 0.0
C306 C 0.16794 0.80321 0.05184 0.0
C307 C 0.12891 0.82907 0.03183 0.0
C308 C 0.19276 0.6551 0.98183 0.0
C309 C 0.1746 0.72742 0.01865 0.0
C310 C 0.23042 0.61758 0.971 0.0
C311 C 0.2829 0.60502 0.98678 0.0
C312 C 0.2076 0.68028 0.00868 0.0
C313 C 0.29423 0.62853 0.01431 0.0
C314 C 0.19054 0.75239 0.04545 0.0
C315 C 0.1098 0.80045 0.00647 0.0
N316 N 0.25733 0.66546 0.02417 0.0
N317 N 0.13372 0.75157 0.00033 0.0
H318 H 0.90787 0.79453 0.97603 0.0
H319 H 0.79354 0.71251 0.12053 0.0
H320 H 0.99364 0.84904 0.05719 0.0
H321 H 0.77734 0.59872 0.04862 0.0
H322 H 0.86487 0.764 0.09709 0.0
H323 H 0.85951 0.72212 0.00085 0.0
C324 C 0.91776 0.79026 0.99898 0.0
C325 C 0.9546 0.82801 0.0146 0.0
C326 C 0.84621 0.72734 0.08662 0.0
C327 C 0.89786 0.74665 0.04319 0.0
C328 C 0.80537 0.69743 0.10008 0.0
C329 C 0.77882 0.65042 0.08682 0.0
C330 C 0.85998 0.71143 0.05923 0.0
C331 C 0.79533 0.635 0.05965 0.0
C332 C 0.88998 0.74908 0.01313 0.0
C333 C 0.96571 0.82075 0.0443 0.0
N334 N 0.83419 0.66579 0.04663 0.0
N335 N 0.93634 0.78177 0.05774 0.0
H336 H 0.96717 0.16327 0.02656 0.0
H337 H 0.65028 0.28468 0.99642 0.0
H338 H 0.81152 0.06574 0.0144 0.0
H339 H 0.80422 0.36853 0.97516 0.0
H340 H 0.71011 0.21281 0.0191 0.0
H341 H 0.90835 0.24647 0.02446 0.0
C342 C 0.92058 0.15939 0.02469 0.0
C343 C 0.8939 0.10789 0.02046 0.0
C344 C 0.73081 0.2474 0.00988 0.0
C345 C 0.8269 0.20208 0.01774 0.0
C346 C 0.69674 0.28858 0.99702 0.0
C347 C 0.72228 0.33238 0.98355 0.0
C348 C 0.79093 0.25003 0.00942 0.0
C349 C 0.78274 0.33495 0.98482 0.0
C350 C 0.88715 0.20676 0.02312 0.0
C351 C 0.83353 0.10488 0.01762 0.0
N352 N 0.81505 0.29405 0.9973 0.0
N353 N 0.80203 0.15136 0.01599 0.0
H354 H 0.6096 0.74048 0.50881 0.0
H355 H 0.91525 0.87956 0.49314 0.0
H356 H 0.75051 0.66125 0.47227 0.0
H357 H 0.79024 0.94177 0.54745 0.0
H358 H 0.84329 0.81375 0.47206 0.0
H359 H 0.66191 0.82794 0.50834 0.0
C360 C 0.65009 0.74205 0.49918 0.0
C361 C 0.67588 0.69373 0.49054 0.0
C362 C 0.83128 0.84241 0.48825 0.0
C363 C 0.73684 0.79287 0.49094 0.0
C364 C 0.87232 0.88024 0.50024 0.0
C365 C 0.85917 0.91574 0.5225 0.0
C366 C 0.77655 0.83993 0.49853 0.0
C367 C 0.80275 0.91433 0.53085 0.0
C368 C 0.68049 0.79179 0.49944 0.0
C369 C 0.72921 0.69774 0.47904 0.0
N370 N 0.76378 0.87661 0.51913 0.0
N371 N 0.75845 0.74621 0.48007 0.0
H372 H 0.63559 0.39478 0.47489 0.0
H373 H 0.84941 0.1474 0.51731 0.0
H374 H 0.73864 0.38815 0.55628 0.0
H375 H 0.81487 0.20794 0.43096 0.0
H376 H 0.78773 0.21977 0.53409 0.0
H377 H 0.67806 0.30765 0.46087 0.0
C378 C 0.66619 0.37445 0.48996 0.0
C379 C 0.68448 0.39896 0.51652 0.0
C380 C 0.79319 0.21619 0.51141 0.0
C381 C 0.73241 0.29975 0.50092 0.0
C382 C 0.82874 0.17518 0.5018 0.0
C383 C 0.8375 0.17063 0.47253 0.0
C384 C 0.76552 0.25237 0.49159 0.0
C385 C 0.80857 0.20793 0.45356 0.0
C386 C 0.69056 0.32504 0.48196 0.0
C387 C 0.72421 0.37095 0.53537 0.0
N388 N 0.77404 0.2469 0.4634 0.0
N389 N 0.74708 0.32298 0.52718 0.0
H390 H 0.48276 0.38335 0.49219 0.0
H391 H 0.26355 0.20858 0.52722 0.0
H392 H 0.51414 0.3863 0.58441 0.0
H393 H 0.3857 0.15399 0.5958 0.0
H394 H 0.33802 0.26919 0.51117 0.0
H395 H 0.43079 0.29551 0.4949 0.0
C396 C 0.48043 0.36444 0.51288 0.0
C397 C 0.50233 0.39175 0.53817 0.0
C398 C 0.34897 0.24266 0.52919 0.0
C399 C 0.443 0.2927 0.54144 0.0
C400 C 0.3064 0.20803 0.53841 0.0
C401 C 0.31785 0.17707 0.56336 0.0
C402 C 0.40299 0.24667 0.54525 0.0
C403 C 0.37425 0.17849 0.57705 0.0
C404 C 0.45021 0.31491 0.51443 0.0
C405 C 0.49761 0.36633 0.5645 0.0
N406 N 0.41415 0.21386 0.56832 0.0
N407 N 0.46822 0.31827 0.56547 0.0
H408 H 0.44381 0.73024 0.54991 0.0
H409 H 0.29266 0.84787 0.408 0.0
H410 H 0.50909 0.70102 0.46788 0.0
H411 H 0.29071 0.93953 0.48756 0.0
H412 H 0.36837 0.79113 0.43034 0.0
H413 H 0.38576 0.80549 0.52892 0.0
C414 C 0.4469 0.74048 0.52764 0.0
C415 C 0.48112 0.70917 0.51057 0.0
C416 C 0.35188 0.8241 0.44281 0.0
C417 C 0.41359 0.79401 0.4863 0.0
C418 C 0.30857 0.85711 0.43001 0.0
C419 C 0.28508 0.89981 0.44559 0.0
C420 C 0.37133 0.83224 0.47179 0.0
C421 C 0.30658 0.90711 0.47457 0.0
C422 C 0.41369 0.78333 0.5157 0.0
C423 C 0.48342 0.7241 0.48184 0.0
N424 N 0.34802 0.87335 0.4868 0.0
N425 N 0.44916 0.76471 0.47046 0.0
H426 H 0.93889 0.03187 0.089 0.0
H427 H 0.05747 0.126 0.2466 0.0
H428 H 0.09512 0.12522 0.11057 0.0
H429 H 0.90021 0.0325 0.22802 0.0
H430 H 0.06028 0.14214 0.19547 0.0
H431 H 0.91084 0.04958 0.1376 0.0
C432 C 0.96606 0.05792 0.10362 0.0
C433 C 0.01967 0.07654 0.09616 0.0
C434 C 0.02475 0.11847 0.20245 0.0
C435 C 0.98893 0.09584 0.15152 0.0
C436 C 0.02345 0.10894 0.23164 0.0
C437 C 0.97922 0.07697 0.24139 0.0
C438 C 0.982 0.09508 0.1827 0.0
C439 C 0.93534 0.05698 0.22125 0.0
C440 C 0.95045 0.0675 0.13142 0.0
C441 C 0.05372 0.10964 0.11578 0.0
N442 N 0.93832 0.06558 0.19273 0.0
N443 N 0.03825 0.11747 0.14271 0.0
H444 H 0.09855 0.93871 0.91176 0.0
H445 H 0.08097 0.12595 0.77223 0.0
H446 H 0.05548 0.10945 0.91508 0.0
H447 H 0.05757 0.95066 0.77079 0.0
H448 H 0.09484 0.1242 0.82499 0.0
H449 H 0.11173 0.94713 0.86075 0.0
C450 C 0.09433 0.97858 0.90193 0.0
C451 C 0.07679 0.02366 0.91757 0.0
C452 C 0.08693 0.0862 0.81306 0.0
C453 C 0.08919 0.03316 0.85904 0.0
C454 C 0.07898 0.08712 0.78305 0.0
C455 C 0.06753 0.03839 0.7672 0.0
C456 C 0.08456 0.03604 0.82723 0.0
C457 C 0.06542 0.98921 0.7822 0.0
C458 C 0.10086 0.98317 0.87274 0.0
C459 C 0.07009 0.07407 0.90375 0.0
N460 N 0.07399 0.98929 0.81134 0.0
N461 N 0.07562 0.07741 0.87507 0.0
H462 H 0.67503 0.55588 0.6402 0.0
H463 H 0.47238 0.63291 0.75828 0.0
H464 H 0.50179 0.60588 0.6119 0.0
H465 H 0.57139 0.48387 0.76188 0.0
H466 H 0.49084 0.64224 0.70779 0.0
H467 H 0.64837 0.55113 0.68917 0.0
C468 C 0.63151 0.56665 0.6443 0.0
C469 C 0.59046 0.58118 0.62186 0.0
C470 C 0.50816 0.6076 0.71985 0.0
C471 C 0.56012 0.57605 0.67806 0.0
C472 C 0.49757 0.60194 0.74862 0.0
C473 C 0.52094 0.5578 0.76479 0.0
C474 C 0.54342 0.56967 0.70745 0.0
C475 C 0.55397 0.5196 0.7509 0.0
C476 C 0.61637 0.56351 0.67224 0.0
C477 C 0.53462 0.59431 0.62859 0.0
N478 N 0.56482 0.52686 0.72323 0.0
N479 N 0.52098 0.59168 0.65627 0.0
H480 H 0.57434 0.62466 0.43348 0.0
H481 H 0.46191 0.44868 0.29407 0.0
H482 H 0.44863 0.49377 0.43359 0.0
H483 H 0.54254 0.60766 0.2885 0.0
H484 H 0.46241 0.46215 0.34576 0.0
H485 H 0.56921 0.61702 0.38083 0.0
C486 C 0.54545 0.59463 0.42246 0.0
C487 C 0.51185 0.55984 0.43798 0.0
C488 C 0.47982 0.4942 0.33321 0.0
C489 C 0.50638 0.5504 0.37797 0.0
C490 C 0.47924 0.48669 0.30355 0.0
C491 C 0.50211 0.52706 0.28659 0.0
C492 C 0.50402 0.54218 0.34631 0.0
C493 C 0.52527 0.57486 0.30057 0.0
C494 C 0.54252 0.5903 0.39244 0.0
C495 C 0.47522 0.5216 0.42257 0.0
N496 N 0.52586 0.58096 0.32956 0.0
N497 N 0.47381 0.51767 0.39354 0.0
loop_
_geom_bond_atom_site_label_1
_geom_bond_atom_site_label_2
_geom_bond_distance
_geom_bond_site_symmetry_2
_ccdc_geom_bond_type
Zn0 O6 1.910 1_546 S
Zn0 O12 1.898 . S
Zn0 O15 1.905 1_545 S
Zn1 O9 1.905 . S
Zn1 O10 1.898 1_545 S
Zn1 O18 1.920 1_545 S
Zn2 O5 2.080 1_445 S
Zn2 O8 2.114 . S
Zn2 O11 2.120 1_545 S
Zn2 O13 2.120 1_455 S
Zn2 O14 2.114 1_554 S
Zn2 O17 2.080 . S
C3 O8 1.166 . S
C3 O9 1.182 . S
C4 O10 1.167 . S
C4 O11 1.299 . S
O5 Zn2 2.080 1_665 S
O5 C19 1.305 . S
O6 Zn0 1.910 1_564 S
O6 C19 1.242 . S
C7 O12 1.180 . S
C7 O13 1.287 1_556 S
O8 Zn2 2.114 . S
O8 C3 1.166 . S
O9 Zn1 1.905 . S
O9 C3 1.182 . S
O10 Zn1 1.898 1_565 S
O10 C4 1.167 . S
O11 Zn2 2.120 1_565 S
O11 C4 1.299 . S
O12 Zn0 1.898 . S
O12 C7 1.180 . S
O13 Zn2 2.120 1_655 S
O13 C7 1.287 1_554 S
O14 Zn2 2.114 1_556 S
O14 C16 1.166 1_545 S
O15 Zn0 1.905 1_565 S
O15 C16 1.182 1_655 S
C16 O14 1.166 1_565 S
C16 O15 1.182 1_455 S
O17 Zn2 2.080 . S
O17 C20 1.305 1_545 S
O18 Zn1 1.920 1_565 S
O18 C20 1.234 . S
C19 O5 1.305 . S
C19 O6 1.242 . S
C20 O17 1.305 1_565 S
C20 O18 1.234 . S
Zn21 O27 1.920 . S
Zn21 O33 1.898 . S
Zn21 O36 1.905 . S
Zn22 O30 1.905 . S
Zn22 O31 1.898 . S
Zn22 O39 1.920 . S
Zn23 O26 2.080 . S
Zn23 O29 2.114 . S
Zn23 O32 2.120 . S
Zn23 O34 2.120 . S
Zn23 O35 2.114 . S
Zn23 O38 2.080 . S
C24 O29 1.166 . S
C24 O30 1.182 . S
C25 O31 1.167 . S
C25 O32 1.299 . S
O26 Zn23 2.080 . S
O26 C40 1.305 . S
O27 Zn21 1.920 . S
O27 C40 1.234 . S
C28 O33 1.167 . S
C28 O34 1.299 . S
O29 Zn23 2.114 . S
O29 C24 1.166 . S
O30 Zn22 1.905 . S
O30 C24 1.182 . S
O31 Zn22 1.898 . S
O31 C25 1.167 . S
O32 Zn23 2.120 . S
O32 C25 1.299 . S
O33 Zn21 1.898 . S
O33 C28 1.167 . S
O34 Zn23 2.120 . S
O34 C28 1.299 . S
O35 Zn23 2.114 . S
O35 C37 1.166 . S
O36 Zn21 1.905 . S
O36 C37 1.182 . S
C37 O35 1.166 . S
C37 O36 1.182 . S
O38 Zn23 2.080 . S
O38 C41 1.305 . S
O39 Zn22 1.920 . S
O39 C41 1.234 . S
C40 O26 1.305 . S
C40 O27 1.234 . S
C41 O38 1.305 . S
C41 O39 1.234 . S
C42 C43 1.391 . S
C42 C46 1.391 . S
C42 H84 0.948 . S
C43 C42 1.391 . S
C43 C44 1.391 . S
C44 C43 1.391 . S
C44 H100 0.947 . S
C44 C101 1.392 . S
C45 C46 1.391 . S
C45 C49 1.397 . S
C45 C101 1.419 . S
C46 C42 1.391 . S
C46 C45 1.391 . S
C46 C47 1.399 . S
C47 C46 1.399 . S
C47 C50 1.396 1_565 S
C47 C59 1.453 1_565 S
C47 C60 1.684 . S
H48 C72 0.948 . S
C49 C45 1.397 . S
C49 C50 1.394 1_565 S
C49 C68 1.723 1_565 S
C50 C47 1.396 1_545 S
C50 C49 1.394 1_545 S
C50 C80 1.723 . S
H51 C74 0.947 . S
H52 C75 0.951 . S
H53 C81 0.982 1_455 S
H54 C82 0.979 . S
H55 C82 0.980 . S
H56 C82 0.983 . S
H57 C81 0.979 . S
H58 C81 0.977 1_455 S
C59 C47 1.453 1_545 S
C59 H88 0.982 . S
C59 H89 0.979 . S
C59 H90 0.977 . S
C60 C47 1.684 . S
C60 H85 0.979 . S
C60 H86 0.980 1_565 S
C60 H87 0.983 . S
C61 C62 1.391 . S
C61 C66 1.391 . S
C61 H91 0.948 1_545 S
C62 C61 1.391 . S
C62 C63 1.391 . S
C63 C62 1.391 . S
C63 C64 1.392 . S
C63 H92 0.938 1_455 S
C64 C63 1.392 . S
C64 C65 1.419 . S
C64 H93 0.948 1_455 S
C65 C64 1.419 . S
C65 C66 1.391 . S
C65 C69 1.397 . S
C66 C61 1.391 . S
C66 C65 1.391 . S
C66 C67 1.399 1_545 S
C67 C66 1.399 1_565 S
C67 C68 1.396 1_565 S
C67 C70 1.453 . S
C67 C71 1.684 . S
C68 C49 1.723 1_545 S
C68 C67 1.396 1_545 S
C68 C69 1.394 . S
C69 C65 1.397 . S
C69 C68 1.394 . S
C69 C79 1.723 . S
C70 C67 1.453 . S
C70 H94 0.982 1_565 S
C70 H95 0.979 . S
C70 H96 0.977 . S
C71 C67 1.684 . S
C71 H97 0.979 . S
C71 H98 0.980 . S
C71 H99 0.983 . S
C72 H48 0.948 . S
C72 C73 1.391 . S
C72 C77 1.391 . S
C73 C72 1.391 . S
C73 C74 1.391 . S
C74 H51 0.947 . S
C74 C73 1.391 . S
C74 C75 1.388 1_655 S
C75 H52 0.951 . S
C75 C74 1.388 1_455 S
C75 C76 1.419 . S
C76 C75 1.419 . S
C76 C77 1.391 1_455 S
C76 C80 1.397 . S
C77 C72 1.391 . S
C77 C76 1.391 1_655 S
C77 C78 1.399 . S
C78 C77 1.399 . S
C78 C79 1.396 1_655 S
C78 C81 1.453 . S
C78 C82 1.684 . S
C79 C69 1.723 . S
C79 C78 1.396 1_455 S
C79 C80 1.394 . S
C80 C50 1.723 . S
C80 C76 1.397 . S
C80 C79 1.394 . S
C81 H53 0.982 1_655 S
C81 H57 0.979 . S
C81 H58 0.977 1_655 S
C81 C78 1.453 . S
C82 H54 0.979 . S
C82 H55 0.980 . S
C82 H56 0.983 . S
C82 C78 1.684 . S
H83 C101 0.948 . S
H84 C42 0.948 . S
H85 C60 0.979 . S
H86 C60 0.980 1_545 S
H87 C60 0.983 . S
H88 C59 0.982 . S
H89 C59 0.979 . S
H90 C59 0.977 . S
H91 C61 0.948 1_565 S
H92 C63 0.938 1_655 S
H93 C64 0.948 1_655 S
H94 C70 0.982 1_545 S
H95 C70 0.979 . S
H96 C70 0.977 . S
H97 C71 0.979 . S
H98 C71 0.980 . S
H99 C71 0.983 . S
H100 C44 0.947 . S
C101 C44 1.392 . S
C101 C45 1.419 . S
C101 H83 0.948 . S
C102 C103 1.391 . S
C102 C106 1.391 . S
C102 H144 0.948 . S
C103 C102 1.391 . S
C103 C104 1.391 . S
C104 C103 1.391 . S
C104 H160 0.947 . S
C104 C161 1.392 . S
C105 C106 1.391 . S
C105 C109 1.397 . S
C105 C161 1.419 . S
C106 C102 1.391 . S
C106 C105 1.391 . S
C106 C107 1.399 . S
C107 C106 1.399 . S
C107 C110 1.396 . S
C107 C119 1.453 . S
C107 C120 1.684 1_455 S
H108 C132 0.948 . S
C109 C105 1.397 . S
C109 C110 1.394 . S
C109 C128 1.723 . S
C110 C107 1.396 . S
C110 C109 1.394 . S
C110 C140 1.723 1_445 S
H111 C134 0.947 . S
H112 C135 0.948 . S
H113 C141 0.982 . S
H114 C142 0.979 . S
H115 C142 0.980 . S
H116 C142 0.983 . S
H117 C141 0.979 . S
H118 C141 0.977 . S
C119 C107 1.453 . S
C119 H148 0.982 . S
C119 H149 0.979 . S
C119 H150 0.977 1_545 S
C120 C107 1.684 1_655 S
C120 H145 0.979 . S
C120 H146 0.980 . S
C120 H147 0.983 1_655 S
C121 C122 1.391 1_455 S
C121 C126 1.391 . S
C121 H151 0.948 . S
C122 C121 1.391 1_655 S
C122 C123 1.391 1_545 S
C123 C122 1.391 1_565 S
C123 C124 1.392 . S
C123 H152 0.947 . S
C124 C123 1.392 . S
C124 C125 1.419 1_565 S
C124 H153 0.948 . S
C125 C124 1.419 1_545 S
C125 C126 1.391 1_655 S
C125 C129 1.397 . S
C126 C121 1.391 . S
C126 C125 1.391 1_455 S
C126 C127 1.399 . S
C127 C126 1.399 . S
C127 C128 1.396 . S
C127 C130 1.453 . S
C127 C131 1.684 . S
C128 C109 1.723 . S
C128 C127 1.396 . S
C128 C129 1.394 1_455 S
C129 C125 1.397 . S
C129 C128 1.394 1_655 S
C129 C139 1.723 1_545 S
C130 C127 1.453 . S
C130 H154 0.982 . S
C130 H155 0.979 . S
C130 H156 0.977 . S
C131 C127 1.684 . S
C131 H157 0.979 . S
C131 H158 0.980 . S
C131 H159 0.983 . S
C132 H108 0.948 . S
C132 C133 1.391 . S
C132 C137 1.391 . S
C133 C132 1.391 . S
C133 C134 1.391 . S
C134 H111 0.947 . S
C134 C133 1.391 . S
C134 C135 1.392 . S
C135 H112 0.948 . S
C135 C134 1.392 . S
C135 C136 1.419 . S
C136 C135 1.419 . S
C136 C137 1.391 . S
C136 C140 1.397 . S
C137 C132 1.391 . S
C137 C136 1.391 . S
C137 C138 1.399 . S
C138 C137 1.399 . S
C138 C139 1.396 . S
C138 C141 1.453 . S
C138 C142 1.684 . S
C139 C129 1.723 1_565 S
C139 C138 1.396 . S
C139 C140 1.394 . S
C140 C110 1.723 1_665 S
C140 C136 1.397 . S
C140 C139 1.394 . S
C141 H113 0.982 . S
C141 H117 0.979 . S
C141 H118 0.977 . S
C141 C138 1.453 . S
C142 H114 0.979 . S
C142 H115 0.980 . S
C142 H116 0.983 . S
C142 C138 1.684 . S
H143 C161 0.948 . S
H144 C102 0.948 . S
H145 C120 0.979 . S
H146 C120 0.980 . S
H147 C120 0.983 1_455 S
H148 C119 0.982 . S
H149 C119 0.979 . S
H150 C119 0.977 1_565 S
H151 C121 0.948 . S
H152 C123 0.947 . S
H153 C124 0.948 . S
H154 C130 0.982 . S
H155 C130 0.979 . S
H156 C130 0.977 . S
H157 C131 0.979 . S
H158 C131 0.980 . S
H159 C131 0.983 . S
H160 C104 0.947 . S
C161 C104 1.392 . S
C161 C105 1.419 . S
C161 H143 0.948 . S
C162 C163 1.391 . S
C162 C166 1.391 . S
C162 H204 0.948 . S
C163 C162 1.391 . S
C163 C164 1.391 . S
C164 C163 1.391 . S
C164 H220 0.947 . S
C164 C221 1.392 . S
C165 C166 1.391 . S
C165 C169 1.397 . S
C165 C221 1.419 . S
C166 C162 1.391 . S
C166 C165 1.391 . S
C166 C167 1.399 . S
C167 C166 1.399 . S
C167 C170 1.396 . S
C167 C179 1.453 . S
C167 C180 1.684 . S
H168 C192 0.948 . S
C169 C165 1.397 . S
C169 C170 1.394 . S
C169 C188 1.723 . S
C170 C167 1.396 . S
C170 C169 1.394 . S
C170 C200 1.723 . S
H171 C194 0.947 1_554 S
H172 C195 0.948 . S
H173 C201 0.982 . S
H174 C202 0.979 . S
H175 C202 0.980 . S
H176 C202 0.983 . S
H177 C201 0.979 . S
H178 C201 0.977 . S
C179 C167 1.453 . S
C179 H208 0.982 . S
C179 H209 0.971 1_556 S
C179 H210 0.977 . S
C180 C167 1.684 . S
C180 H205 0.979 . S
C180 H206 0.980 . S
C180 H207 0.983 1_556 S
C181 C182 1.391 . S
C181 C186 1.391 . S
C181 H211 0.948 . S
C182 C181 1.391 . S
C182 C183 1.391 . S
C183 C182 1.391 . S
C183 C184 1.392 . S
C183 H212 0.947 . S
C184 C183 1.392 . S
C184 C185 1.419 . S
C184 H213 0.948 . S
C185 C184 1.419 . S
C185 C186 1.391 . S
C185 C189 1.397 . S
C186 C181 1.391 . S
C186 C185 1.391 . S
C186 C187 1.399 . S
C187 C186 1.399 . S
C187 C188 1.396 . S
C187 C190 1.453 . S
C187 C191 1.684 . S
C188 C169 1.723 . S
C188 C187 1.396 . S
C188 C189 1.394 . S
C189 C185 1.397 . S
C189 C188 1.394 . S
C189 C199 1.723 . S
C190 C187 1.453 . S
C190 H214 0.982 . S
C190 H215 0.979 . S
C190 H216 0.977 . S
C191 C187 1.684 . S
C191 H217 0.979 . S
C191 H218 0.980 . S
C191 H219 0.983 . S
C192 H168 0.948 . S
C192 C193 1.391 . S
C192 C197 1.391 . S
C193 C192 1.391 . S
C193 C194 1.391 . S
C194 H171 0.947 1_556 S
C194 C193 1.391 . S
C194 C195 1.392 . S
C195 H172 0.948 . S
C195 C194 1.392 . S
C195 C196 1.419 . S
C196 C195 1.419 . S
C196 C197 1.391 . S
C196 C200 1.397 . S
C197 C192 1.391 . S
C197 C196 1.391 . S
C197 C198 1.399 . S
C198 C197 1.399 . S
C198 C199 1.396 . S
C198 C201 1.453 . S
C198 C202 1.684 . S
C199 C189 1.723 . S
C199 C198 1.396 . S
C199 C200 1.394 . S
C200 C170 1.723 . S
C200 C196 1.397 . S
C200 C199 1.394 . S
C201 H173 0.982 . S
C201 H177 0.979 . S
C201 H178 0.977 . S
C201 C198 1.453 . S
C202 H174 0.979 . S
C202 H175 0.980 . S
C202 H176 0.983 . S
C202 C198 1.684 . S
H203 C221 0.948 . S
H204 C162 0.948 . S
H205 C180 0.979 . S
H206 C180 0.980 . S
H207 C180 0.983 1_554 S
H208 C179 0.982 . S
H209 C179 0.971 1_554 S
H210 C179 0.977 . S
H211 C181 0.948 . S
H212 C183 0.947 . S
H213 C184 0.948 . S
H214 C190 0.982 . S
H215 C190 0.979 . S
H216 C190 0.977 . S
H217 C191 0.979 . S
H218 C191 0.980 . S
H219 C191 0.983 . S
H220 C164 0.947 . S
C221 C164 1.392 . S
C221 C165 1.419 . S
C221 H203 0.948 . S
C222 C223 1.391 . S
C222 C226 1.391 . S
C222 H264 0.948 . S
C223 C222 1.391 . S
C223 C224 1.391 . S
C224 C223 1.391 . S
C224 H280 0.947 . S
C224 C281 1.392 . S
C225 C226 1.391 . S
C225 C229 1.397 . S
C225 C281 1.419 . S
C226 C222 1.391 . S
C226 C225 1.391 . S
C226 C227 1.399 . S
C227 C226 1.399 . S
C227 C230 1.396 . S
C227 C239 1.453 . S
C227 C240 1.684 . S
H228 C252 0.948 . S
C229 C225 1.397 . S
C229 C230 1.394 . S
C229 C248 1.723 . S
C230 C227 1.396 . S
C230 C229 1.394 . S
C230 C260 1.723 . S
H231 C254 0.947 . S
H232 C255 0.948 . S
H233 C261 0.982 . S
H234 C262 0.979 . S
H235 C262 0.980 . S
H236 C262 0.983 . S
H237 C261 0.979 . S
H238 C261 0.977 . S
C239 C227 1.453 . S
C239 H268 0.982 . S
C239 H269 0.979 . S
C239 H270 0.977 . S
C240 C227 1.684 . S
C240 H265 0.979 . S
C240 H266 0.980 . S
C240 H267 0.983 . S
C241 C242 1.391 . S
C241 C246 1.391 . S
C241 H271 0.948 . S
C242 C241 1.391 . S
C242 C243 1.391 . S
C243 C242 1.391 . S
C243 C244 1.392 . S
C243 H272 0.947 . S
C244 C243 1.392 . S
C244 C245 1.419 . S
C244 H273 0.948 . S
C245 C244 1.419 . S
C245 C246 1.391 . S
C245 C249 1.397 . S
C246 C241 1.391 . S
C246 C245 1.391 . S
C246 C247 1.399 . S
C247 C246 1.399 . S
C247 C248 1.396 . S
C247 C250 1.453 . S
C247 C251 1.684 . S
C248 C229 1.723 . S
C248 C247 1.396 . S
C248 C249 1.394 . S
C249 C245 1.397 . S
C249 C248 1.394 . S
C249 C259 1.723 . S
C250 C247 1.453 . S
C250 H274 0.982 . S
C250 H275 0.979 . S
C250 H276 0.977 . S
C251 C247 1.684 . S
C251 H277 0.979 . S
C251 H278 0.980 . S
C251 H279 0.983 . S
C252 H228 0.948 . S
C252 C253 1.391 . S
C252 C257 1.391 . S
C253 C252 1.391 . S
C253 C254 1.391 . S
C254 H231 0.947 . S
C254 C253 1.391 . S
C254 C255 1.392 . S
C255 H232 0.948 . S
C255 C254 1.392 . S
C255 C256 1.419 . S
C256 C255 1.419 . S
C256 C257 1.391 . S
C256 C260 1.397 . S
C257 C252 1.391 . S
C257 C256 1.391 . S
C257 C258 1.399 . S
C258 C257 1.399 . S
C258 C259 1.396 . S
C258 C261 1.453 . S
C258 C262 1.684 . S
C259 C249 1.723 . S
C259 C258 1.396 . S
C259 C260 1.394 . S
C260 C230 1.723 . S
C260 C256 1.397 . S
C260 C259 1.394 . S
C261 H233 0.982 . S
C261 H237 0.979 . S
C261 H238 0.977 . S
C261 C258 1.453 . S
C262 H234 0.979 . S
C262 H235 0.980 . S
C262 H236 0.983 . S
C262 C258 1.684 . S
H263 C281 0.948 . S
H264 C222 0.948 . S
H265 C240 0.979 . S
H266 C240 0.980 . S
H267 C240 0.983 . S
H268 C239 0.982 . S
H269 C239 0.979 . S
H270 C239 0.977 . S
H271 C241 0.948 . S
H272 C243 0.947 . S
H273 C244 0.948 . S
H274 C250 0.982 . S
H275 C250 0.979 . S
H276 C250 0.977 . S
H277 C251 0.979 . S
H278 C251 0.980 . S
H279 C251 0.983 . S
H280 C224 0.947 . S
C281 C224 1.392 . S
C281 C225 1.419 . S
C281 H263 0.948 . S
H282 C288 0.930 . S
H283 C292 0.930 . S
H284 C297 0.929 . S
H285 C295 0.929 . S
H286 C290 0.929 . S
H287 C296 0.929 . S
C288 H282 0.930 . S
C288 C289 1.367 . S
C288 C296 1.378 . S
C289 C288 1.367 . S
C289 C297 1.433 . S
C290 H286 0.929 . S
C290 C292 1.378 . S
C290 C294 1.350 . S
C291 C294 1.463 . S
C291 C296 1.350 . S
C291 N299 1.427 . S
C292 H283 0.930 . S
C292 C290 1.378 . S
C292 C293 1.367 . S
C293 C292 1.367 . S
C293 C295 1.433 . S
C294 C290 1.350 . S
C294 C291 1.463 . S
C294 N298 1.427 . S
C295 H285 0.929 . S
C295 C293 1.433 . S
C295 N298 1.384 . S
C296 H287 0.929 . S
C296 C288 1.378 . S
C296 C291 1.350 . S
C297 H284 0.929 . S
C297 C289 1.433 . S
C297 N299 1.384 . S
N298 C294 1.427 . S
N298 C295 1.384 . S
N299 C291 1.427 . S
N299 C297 1.384 . S
H300 C306 0.930 . S
H301 C310 0.930 . S
H302 C315 0.929 . S
H303 C313 0.929 1_554 S
H304 C308 0.929 . S
H305 C314 0.929 . S
C306 H300 0.930 . S
C306 C307 1.367 1_554 S
C306 C314 1.378 . S
C307 C306 1.367 1_556 S
C307 C315 1.433 . S
C308 H304 0.929 . S
C308 C310 1.378 . S
C308 C312 1.350 . S
C309 C312 1.463 . S
C309 C314 1.350 1_556 S
C309 N317 1.427 . S
C310 H301 0.930 . S
C310 C308 1.378 . S
C310 C311 1.367 . S
C311 C310 1.367 . S
C311 C313 1.433 . S
C312 C308 1.350 . S
C312 C309 1.463 . S
C312 N316 1.443 . S
C313 H303 0.929 1_556 S
C313 C311 1.433 . S
C313 N316 1.390 . S
C314 H305 0.929 . S
C314 C306 1.378 . S
C314 C309 1.350 1_554 S
C315 H302 0.929 . S
C315 C307 1.433 . S
C315 N317 1.384 . S
N316 C312 1.443 . S
N316 C313 1.390 . S
N317 C309 1.427 . S
N317 C315 1.384 . S
H318 C324 0.930 1_556 S
H319 C328 0.930 . S
H320 C333 0.929 . S
H321 C331 0.929 . S
H322 C326 0.929 . S
H323 C332 0.942 . S
C324 H318 0.930 1_554 S
C324 C325 1.367 . S
C324 C332 1.378 . S
C325 C324 1.367 . S
C325 C333 1.433 . S
C326 H322 0.929 . S
C326 C328 1.378 . S
C326 C330 1.350 . S
C327 C330 1.463 . S
C327 C332 1.350 . S
C327 N335 1.427 . S
C328 H319 0.930 . S
C328 C326 1.378 . S
C328 C329 1.367 . S
C329 C328 1.367 . S
C329 C331 1.433 . S
C330 C326 1.350 . S
C330 C327 1.463 . S
C330 N334 1.427 . S
C331 H321 0.929 . S
C331 C329 1.433 . S
C331 N334 1.384 . S
C332 H323 0.942 . S
C332 C324 1.378 . S
C332 C327 1.350 . S
C333 H320 0.929 . S
C333 C325 1.433 . S
C333 N335 1.384 . S
N334 C330 1.427 . S
N334 C331 1.384 . S
N335 C327 1.427 . S
N335 C333 1.384 . S
H336 C342 0.930 . S
H337 C346 0.930 . S
H338 C351 0.929 . S
H339 C349 0.929 . S
H340 C344 0.929 . S
H341 C350 0.929 . S
C342 H336 0.930 . S
C342 C343 1.367 1_556 S
C342 C350 1.378 . S
C343 C342 1.367 1_554 S
C343 C351 1.433 . S
C344 H340 0.929 . S
C344 C346 1.378 . S
C344 C348 1.350 . S
C345 C348 1.463 . S
C345 C350 1.350 . S
C345 N353 1.426 1_556 S
C346 H337 0.930 . S
C346 C344 1.378 . S
C346 C347 1.367 . S
C347 C346 1.367 . S
C347 C349 1.433 . S
C348 C344 1.350 . S
C348 C345 1.463 . S
C348 N352 1.427 . S
C349 H339 0.929 . S
C349 C347 1.433 . S
C349 N352 1.384 . S
C350 H341 0.929 . S
C350 C342 1.378 . S
C350 C345 1.350 . S
C351 H338 0.929 . S
C351 C343 1.433 . S
C351 N353 1.384 . S
N352 C348 1.427 . S
N352 C349 1.384 . S
N353 C345 1.426 1_554 S
N353 C351 1.384 . S
H354 C360 0.930 . S
H355 C364 0.930 . S
H356 C369 0.929 . S
H357 C367 0.929 . S
H358 C362 0.929 . S
H359 C368 0.929 . S
C360 H354 0.930 . S
C360 C361 1.367 . S
C360 C368 1.378 . S
C361 C360 1.367 . S
C361 C369 1.433 . S
C362 H358 0.929 . S
C362 C364 1.378 . S
C362 C366 1.350 . S
C363 C366 1.463 . S
C363 C368 1.350 . S
C363 N371 1.427 . S
C364 H355 0.930 . S
C364 C362 1.378 . S
C364 C365 1.367 . S
C365 C364 1.367 . S
C365 C367 1.433 . S
C366 C362 1.350 . S
C366 C363 1.463 . S
C366 N370 1.427 . S
C367 H357 0.929 . S
C367 C365 1.433 . S
C367 N370 1.384 . S
C368 H359 0.929 . S
C368 C360 1.378 . S
C368 C363 1.350 . S
C369 H356 0.929 . S
C369 C361 1.433 . S
C369 N371 1.384 . S
N370 C366 1.427 . S
N370 C367 1.384 . S
N371 C363 1.427 . S
N371 C369 1.384 . S
H372 C378 0.930 . S
H373 C382 0.930 . S
H374 C387 0.929 . S
H375 C385 0.929 . S
H376 C380 0.929 . S
H377 C386 0.929 . S
C378 H372 0.930 . S
C378 C379 1.367 . S
C378 C386 1.378 . S
C379 C378 1.367 . S
C379 C387 1.433 . S
C380 H376 0.929 . S
C380 C382 1.378 . S
C380 C384 1.350 . S
C381 C384 1.463 . S
C381 C386 1.350 . S
C381 N389 1.427 . S
C382 H373 0.930 . S
C382 C380 1.378 . S
C382 C383 1.367 . S
C383 C382 1.367 . S
C383 C385 1.433 . S
C384 C380 1.350 . S
C384 C381 1.463 . S
C384 N388 1.427 . S
C385 H375 0.929 . S
C385 C383 1.433 . S
C385 N388 1.384 . S
C386 H377 0.929 . S
C386 C378 1.378 . S
C386 C381 1.350 . S
C387 H374 0.929 . S
C387 C379 1.433 . S
C387 N389 1.384 . S
N388 C384 1.427 . S
N388 C385 1.384 . S
N389 C381 1.427 . S
N389 C387 1.384 . S
H390 C396 0.930 . S
H391 C400 0.930 . S
H392 C405 0.929 . S
H393 C403 0.929 . S
H394 C398 0.929 . S
H395 C404 0.929 . S
C396 H390 0.930 . S
C396 C397 1.367 . S
C396 C404 1.378 . S
C397 C396 1.367 . S
C397 C405 1.433 . S
C398 H394 0.929 . S
C398 C400 1.378 . S
C398 C402 1.350 . S
C399 C402 1.463 . S
C399 C404 1.350 . S
C399 N407 1.427 . S
C400 H391 0.930 . S
C400 C398 1.378 . S
C400 C401 1.367 . S
C401 C400 1.367 . S
C401 C403 1.433 . S
C402 C398 1.350 . S
C402 C399 1.463 . S
C402 N406 1.427 . S
C403 H393 0.929 . S
C403 C401 1.433 . S
C403 N406 1.384 . S
C404 H395 0.929 . S
C404 C396 1.378 . S
C404 C399 1.350 . S
C405 H392 0.929 . S
C405 C397 1.433 . S
C405 N407 1.384 . S
N406 C402 1.427 . S
N406 C403 1.384 . S
N407 C399 1.427 . S
N407 C405 1.384 . S
H408 C414 0.930 . S
H409 C418 0.930 . S
H410 C423 0.929 . S
H411 C421 0.929 . S
H412 C416 0.929 . S
H413 C422 0.929 . S
C414 H408 0.930 . S
C414 C415 1.367 . S
C414 C422 1.378 . S
C415 C414 1.367 . S
C415 C423 1.433 . S
C416 H412 0.929 . S
C416 C418 1.378 . S
C416 C420 1.350 . S
C417 C420 1.463 . S
C417 C422 1.350 . S
C417 N425 1.427 . S
C418 H409 0.930 . S
C418 C416 1.378 . S
C418 C419 1.367 . S
C419 C418 1.367 . S
C419 C421 1.433 . S
C420 C416 1.350 . S
C420 C417 1.463 . S
C420 N424 1.427 . S
C421 H411 0.929 . S
C421 C419 1.433 . S
C421 N424 1.384 . S
C422 H413 0.929 . S
C422 C414 1.378 . S
C422 C417 1.350 . S
C423 H410 0.929 . S
C423 C415 1.433 . S
C423 N425 1.384 . S
N424 C420 1.427 . S
N424 C421 1.384 . S
N425 C417 1.427 . S
N425 C423 1.384 . S
H426 C432 0.930 . S
H427 C436 0.930 . S
H428 C441 0.929 1_655 S
H429 C439 0.929 . S
H430 C434 0.929 1_655 S
H431 C440 0.929 . S
C432 H426 0.930 . S
C432 C433 1.367 . S
C432 C440 1.378 . S
C433 C432 1.367 . S
C433 C441 1.433 1_565 S
C434 H430 0.929 1_455 S
C434 C436 1.378 . S
C434 C438 1.350 . S
C435 C438 1.463 . S
C435 C440 1.350 1_545 S
C435 N443 1.427 . S
C436 H427 0.930 . S
C436 C434 1.378 . S
C436 C437 1.367 . S
C437 C436 1.367 . S
C437 C439 1.433 1_545 S
C438 C434 1.350 . S
C438 C435 1.463 . S
C438 N442 1.427 1_545 S
C439 H429 0.929 . S
C439 C437 1.433 1_565 S
C439 N442 1.384 . S
C440 H431 0.929 . S
C440 C432 1.378 . S
C440 C435 1.350 1_565 S
C441 H428 0.929 1_455 S
C441 C433 1.433 1_545 S
C441 N443 1.384 . S
N442 C438 1.427 1_565 S
N442 C439 1.384 . S
N443 C435 1.427 . S
N443 C441 1.384 . S
H444 C450 0.930 . S
H445 C454 0.930 . S
H446 C459 0.929 . S
H447 C457 0.929 . S
H448 C452 0.929 . S
H449 C458 0.929 . S
C450 H444 0.930 . S
C450 C451 1.367 1_655 S
C450 C458 1.378 . S
C451 C450 1.367 1_455 S
C451 C459 1.433 1_565 S
C452 H448 0.929 . S
C452 C454 1.378 . S
C452 C456 1.350 . S
C453 C456 1.464 . S
C453 C458 1.343 1_445 S
C453 N461 1.433 . S
C454 H445 0.930 . S
C454 C452 1.378 . S
C454 C455 1.367 . S
C455 C454 1.367 . S
C455 C457 1.433 1_445 S
C456 C452 1.350 . S
C456 C453 1.464 . S
C456 N460 1.427 1_445 S
C457 H447 0.929 . S
C457 C455 1.433 1_665 S
C457 N460 1.384 . S
C458 H449 0.929 . S
C458 C450 1.378 . S
C458 C453 1.343 1_665 S
C459 H446 0.929 . S
C459 C451 1.433 1_545 S
C459 N461 1.384 . S
N460 C456 1.427 1_665 S
N460 C457 1.384 . S
N461 C453 1.433 . S
N461 C459 1.384 . S
H462 C468 0.930 . S
H463 C472 0.930 . S
H464 C477 0.929 . S
H465 C475 0.929 . S
H466 C470 0.929 . S
H467 C476 0.929 . S
C468 H462 0.930 . S
C468 C469 1.367 . S
C468 C476 1.378 . S
C469 C468 1.367 . S
C469 C477 1.433 . S
C470 H466 0.929 . S
C470 C472 1.378 . S
C470 C474 1.350 . S
C471 C474 1.463 . S
C471 C476 1.350 . S
C471 N479 1.427 . S
C472 H463 0.930 . S
C472 C470 1.378 . S
C472 C473 1.367 . S
C473 C472 1.367 . S
C473 C475 1.433 . S
C474 C470 1.350 . S
C474 C471 1.463 . S
C474 N478 1.427 . S
C475 H465 0.929 . S
C475 C473 1.433 . S
C475 N478 1.384 . S
C476 H467 0.929 . S
C476 C468 1.378 . S
C476 C471 1.350 . S
C477 H464 0.929 . S
C477 C469 1.433 . S
C477 N479 1.384 . S
N478 C474 1.427 . S
N478 C475 1.384 . S
N479 C471 1.427 . S
N479 C477 1.384 . S
H480 C486 0.930 . S
H481 C490 0.930 . S
H482 C495 0.929 . S
H483 C493 0.929 . S
H484 C488 0.929 . S
H485 C494 0.929 . S
C486 H480 0.930 . S
C486 C487 1.367 . S
C486 C494 1.378 . S
C487 C486 1.367 . S
C487 C495 1.433 . S
C488 H484 0.929 . S
C488 C490 1.378 . S
C488 C492 1.350 . S
C489 C492 1.463 . S
C489 C494 1.350 . S
C489 N497 1.427 . S
C490 H481 0.930 . S
C490 C488 1.378 . S
C490 C491 1.367 . S
C491 C490 1.367 . S
C491 C493 1.433 . S
C492 C488 1.350 . S
C492 C489 1.463 . S
C492 N496 1.427 . S
C493 H483 0.929 . S
C493 C491 1.433 . S
C493 N496 1.384 . S
C494 H485 0.929 . S
C494 C486 1.378 . S
C494 C489 1.350 . S
C495 H482 0.929 . S
C495 C487 1.433 . S
C495 N497 1.384 . S
N496 C492 1.427 . S
N496 C493 1.384 . S
N497 C489 1.427 . S
N497 C495 1.384 . S
C293 C253 1.251 . S
C289 C3 1.137 . S
C307 C4 1.491 1_556 S
C311 C193 1.614 . S
C325 C19 1.522 . S
C329 C223 1.557 . S
C343 C7 1.135 1_554 S
C347 C163 1.182 . S
C361 C37 1.142 . S
C365 C133 1.251 . S
C379 C28 1.506 . S
C383 C73 1.615 . S
C401 C103 1.557 . S
C397 C41 1.522 . S
C419 C43 1.172 . S
C415 C25 1.139 . S
C433 C20 1.291 . S
C437 C62 1.430 . S
C451 C16 1.344 . S
C455 C122 1.487 1_455 S
C473 C182 1.430 . S
C469 C40 1.292 . S
C487 C24 1.347 . S
C491 C242 1.477 . S
