# Generated by pormake.
# Topology ptr, (4,4)-cn, num edge types: 1
# Building blocks:
#     Node 0, Type 0, BuildingBlock: NAHDIM_clean_sbu_0, # of connection points: 4
#     Node 1, Type 0, BuildingBlock: NAHDIM_clean_sbu_0, # of connection points: 4
#     Node 2, Type 0, BuildingBlock: NAHDIM_clean_sbu_0, # of connection points: 4
#     Node 3, Type 0, BuildingBlock: NAHDIM_clean_sbu_0, # of connection points: 4
#     Node 4, Type 0, BuildingBlock: NAHDIM_clean_sbu_0, # of connection points: 4
#     Node 5, Type 0, BuildingBlock: NAHDIM_clean_sbu_0, # of connection points: 4
#     Node 6, Type 0, BuildingBlock: NAHDIM_clean_sbu_0, # of connection points: 4
#     Node 7, Type 0, BuildingBlock: NAHDIM_clean_sbu_0, # of connection points: 4
#     Node 8, Type 0, BuildingBlock: NAHDIM_clean_sbu_0, # of connection points: 4
#     Node 9, Type 0, BuildingBlock: NAHDIM_clean_sbu_0, # of connection points: 4
#     Node 10, Type 0, BuildingBlock: NAHDIM_clean_sbu_0, # of connection points: 4
#     Node 11, Type 0, BuildingBlock: NAHDIM_clean_sbu_0, # of connection points: 4
#     Node 12, Type 0, BuildingBlock: NAHDIM_clean_sbu_0, # of connection points: 4
#     Node 13, Type 0, BuildingBlock: NAHDIM_clean_sbu_0, # of connection points: 4
#     Node 14, Type 0, BuildingBlock: NAHDIM_clean_sbu_0, # of connection points: 4
#     Node 15, Type 0, BuildingBlock: NAHDIM_clean_sbu_0, # of connection points: 4
#     Node 16, Type 0, BuildingBlock: NAHDIM_clean_sbu_0, # of connection points: 4
#     Node 17, Type 0, BuildingBlock: NAHDIM_clean_sbu_0, # of connection points: 4
#     Node 18, Type 1, BuildingBlock: GIZVER_clean_linker_0, # of connection points: 4
#     Node 19, Type 1, BuildingBlock: GIZVER_clean_linker_0, # of connection points: 4
#     Node 20, Type 1, BuildingBlock: GIZVER_clean_linker_0, # of connection points: 4
#     Node 21, Type 1, BuildingBlock: GIZVER_clean_linker_0, # of connection points: 4
#     Node 22, Type 1, BuildingBlock: GIZVER_clean_linker_0, # of connection points: 4
#     Node 23, Type 1, BuildingBlock: GIZVER_clean_linker_0, # of connection points: 4
#     Node 24, Type 1, BuildingBlock: GIZVER_clean_linker_0, # of connection points: 4
#     Node 25, Type 1, BuildingBlock: GIZVER_clean_linker_0, # of connection points: 4
#     Node 26, Type 1, BuildingBlock: GIZVER_clean_linker_0, # of connection points: 4
#     Node 27, Type 1, BuildingBlock: GIZVER_clean_linker_0, # of connection points: 4
#     Node 28, Type 1, BuildingBlock: GIZVER_clean_linker_0, # of connection points: 4
#     Node 29, Type 1, BuildingBlock: GIZVER_clean_linker_0, # of connection points: 4
#     Node 30, Type 1, BuildingBlock: GIZVER_clean_linker_0, # of connection points: 4
#     Node 31, Type 1, BuildingBlock: GIZVER_clean_linker_0, # of connection points: 4
#     Node 32, Type 1, BuildingBlock: GIZVER_clean_linker_0, # of connection points: 4
#     Node 33, Type 1, BuildingBlock: GIZVER_clean_linker_0, # of connection points: 4
#     Node 34, Type 1, BuildingBlock: GIZVER_clean_linker_0, # of connection points: 4
#     Node 35, Type 1, BuildingBlock: GIZVER_clean_linker_0, # of connection points: 4
#     Edge 36, Type (0, 1), BuildingBlock: CIFDUS_clean_linker_0, # of connection points: 2
#     Edge 37, Type (0, 1), BuildingBlock: CIFDUS_clean_linker_0, # of connection points: 2
#     Edge 38, Type (0, 1), BuildingBlock: CIFDUS_clean_linker_0, # of connection points: 2
#     Edge 39, Type (0, 1), BuildingBlock: CIFDUS_clean_linker_0, # of connection points: 2
#     Edge 40, Type (0, 1), BuildingBlock: CIFDUS_clean_linker_0, # of connection points: 2
#     Edge 41, Type (0, 1), BuildingBlock: CIFDUS_clean_linker_0, # of connection points: 2
#     Edge 42, Type (0, 1), BuildingBlock: CIFDUS_clean_linker_0, # of connection points: 2
#     Edge 43, Type (0, 1), BuildingBlock: CIFDUS_clean_linker_0, # of connection points: 2
#     Edge 44, Type (0, 1), BuildingBlock: CIFDUS_clean_linker_0, # of connection points: 2
#     Edge 45, Type (0, 1), BuildingBlock: CIFDUS_clean_linker_0, # of connection points: 2
#     Edge 46, Type (0, 1), BuildingBlock: CIFDUS_clean_linker_0, # of connection points: 2
#     Edge 47, Type (0, 1), BuildingBlock: CIFDUS_clean_linker_0, # of connection points: 2
#     Edge 48, Type (0, 1), BuildingBlock: CIFDUS_clean_linker_0, # of connection points: 2
#     Edge 49, Type (0, 1), BuildingBlock: CIFDUS_clean_linker_0, # of connection points: 2
#     Edge 50, Type (0, 1), BuildingBlock: CIFDUS_clean_linker_0, # of connection points: 2
#     Edge 51, Type (0, 1), BuildingBlock: CIFDUS_clean_linker_0, # of connection points: 2
#     Edge 52, Type (0, 1), BuildingBlock: CIFDUS_clean_linker_0, # of connection points: 2
#     Edge 53, Type (0, 1), BuildingBlock: CIFDUS_clean_linker_0, # of connection points: 2
#     Edge 54, Type (0, 1), BuildingBlock: CIFDUS_clean_linker_0, # of connection points: 2
#     Edge 55, Type (0, 1), BuildingBlock: CIFDUS_clean_linker_0, # of connection points: 2
#     Edge 56, Type (0, 1), BuildingBlock: CIFDUS_clean_linker_0, # of connection points: 2
#     Edge 57, Type (0, 1), BuildingBlock: CIFDUS_clean_linker_0, # of connection points: 2
#     Edge 58, Type (0, 1), BuildingBlock: CIFDUS_clean_linker_0, # of connection points: 2
#     Edge 59, Type (0, 1), BuildingBlock: CIFDUS_clean_linker_0, # of connection points: 2
#     Edge 60, Type (0, 1), BuildingBlock: CIFDUS_clean_linker_0, # of connection points: 2
#     Edge 61, Type (0, 1), BuildingBlock: CIFDUS_clean_linker_0, # of connection points: 2
#     Edge 62, Type (0, 1), BuildingBlock: CIFDUS_clean_linker_0, # of connection points: 2
#     Edge 63, Type (0, 1), BuildingBlock: CIFDUS_clean_linker_0, # of connection points: 2
#     Edge 64, Type (0, 1), BuildingBlock: CIFDUS_clean_linker_0, # of connection points: 2
#     Edge 65, Type (0, 1), BuildingBlock: CIFDUS_clean_linker_0, # of connection points: 2
#     Edge 66, Type (0, 1), BuildingBlock: CIFDUS_clean_linker_0, # of connection points: 2
#     Edge 67, Type (0, 1), BuildingBlock: CIFDUS_clean_linker_0, # of connection points: 2
#     Edge 68, Type (0, 1), BuildingBlock: CIFDUS_clean_linker_0, # of connection points: 2
#     Edge 69, Type (0, 1), BuildingBlock: CIFDUS_clean_linker_0, # of connection points: 2
#     Edge 70, Type (0, 1), BuildingBlock: CIFDUS_clean_linker_0, # of connection points: 2
#     Edge 71, Type (0, 1), BuildingBlock: CIFDUS_clean_linker_0, # of connection points: 2
#     Edge 72, Type (0, 1), BuildingBlock: CIFDUS_clean_linker_0, # of connection points: 2
#     Edge 73, Type (0, 1), BuildingBlock: CIFDUS_clean_linker_0, # of connection points: 2
#     Edge 74, Type (0, 1), BuildingBlock: CIFDUS_clean_linker_0, # of connection points: 2
#     Edge 75, Type (0, 1), BuildingBlock: CIFDUS_clean_linker_0, # of connection points: 2
#     Edge 76, Type (0, 1), BuildingBlock: CIFDUS_clean_linker_0, # of connection points: 2
#     Edge 77, Type (0, 1), BuildingBlock: CIFDUS_clean_linker_0, # of connection points: 2
#     Edge 78, Type (0, 1), BuildingBlock: CIFDUS_clean_linker_0, # of connection points: 2
#     Edge 79, Type (0, 1), BuildingBlock: CIFDUS_clean_linker_0, # of connection points: 2
#     Edge 80, Type (0, 1), BuildingBlock: CIFDUS_clean_linker_0, # of connection points: 2
#     Edge 81, Type (0, 1), BuildingBlock: CIFDUS_clean_linker_0, # of connection points: 2
#     Edge 82, Type (0, 1), BuildingBlock: CIFDUS_clean_linker_0, # of connection points: 2
#     Edge 83, Type (0, 1), BuildingBlock: CIFDUS_clean_linker_0, # of connection points: 2
#     Edge 84, Type (0, 1), BuildingBlock: CIFDUS_clean_linker_0, # of connection points: 2
#     Edge 85, Type (0, 1), BuildingBlock: CIFDUS_clean_linker_0, # of connection points: 2
#     Edge 86, Type (0, 1), BuildingBlock: CIFDUS_clean_linker_0, # of connection points: 2
#     Edge 87, Type (0, 1), BuildingBlock: CIFDUS_clean_linker_0, # of connection points: 2
#     Edge 88, Type (0, 1), BuildingBlock: CIFDUS_clean_linker_0, # of connection points: 2
#     Edge 89, Type (0, 1), BuildingBlock: CIFDUS_clean_linker_0, # of connection points: 2
#     Edge 90, Type (0, 1), BuildingBlock: CIFDUS_clean_linker_0, # of connection points: 2
#     Edge 91, Type (0, 1), BuildingBlock: CIFDUS_clean_linker_0, # of connection points: 2
#     Edge 92, Type (0, 1), BuildingBlock: CIFDUS_clean_linker_0, # of connection points: 2
#     Edge 93, Type (0, 1), BuildingBlock: CIFDUS_clean_linker_0, # of connection points: 2
#     Edge 94, Type (0, 1), BuildingBlock: CIFDUS_clean_linker_0, # of connection points: 2
#     Edge 95, Type (0, 1), BuildingBlock: CIFDUS_clean_linker_0, # of connection points: 2
#     Edge 96, Type (0, 1), BuildingBlock: CIFDUS_clean_linker_0, # of connection points: 2
#     Edge 97, Type (0, 1), BuildingBlock: CIFDUS_clean_linker_0, # of connection points: 2
#     Edge 98, Type (0, 1), BuildingBlock: CIFDUS_clean_linker_0, # of connection points: 2
#     Edge 99, Type (0, 1), BuildingBlock: CIFDUS_clean_linker_0, # of connection points: 2
#     Edge 100, Type (0, 1), BuildingBlock: CIFDUS_clean_linker_0, # of connection points: 2
#     Edge 101, Type (0, 1), BuildingBlock: CIFDUS_clean_linker_0, # of connection points: 2
#     Edge 102, Type (0, 1), BuildingBlock: CIFDUS_clean_linker_0, # of connection points: 2
#     Edge 103, Type (0, 1), BuildingBlock: CIFDUS_clean_linker_0, # of connection points: 2
#     Edge 104, Type (0, 1), BuildingBlock: CIFDUS_clean_linker_0, # of connection points: 2
#     Edge 105, Type (0, 1), BuildingBlock: CIFDUS_clean_linker_0, # of connection points: 2
#     Edge 106, Type (0, 1), BuildingBlock: CIFDUS_clean_linker_0, # of connection points: 2
#     Edge 107, Type (0, 1), BuildingBlock: CIFDUS_clean_linker_0, # of connection points: 2
# Relax obj value: 0.076
# Max RMSD: 0.211
# Mean RMSD: 0.115
data_MOF--net-ptr--node1-NAHDIM_clean_sbu_0--node2-GIZVER_clean_linker_0--edge1-CIFDUS_clean_linker_0
_symmetry_space_group_name_H-M    P1
_symmetry_Int_Tables_number       1
_symmetry_cell_setting            triclinic
loop_
_symmetry_equiv_pos_as_xyz
'x, y, z'
_cell_length_a     71.352142
_cell_length_b     70.103021
_cell_length_c     41.738816
_cell_angle_alpha  92.143414
_cell_angle_beta   89.446767
_cell_angle_gamma 121.7442
loop_
_atom_site_label
_atom_site_type_symbol
_atom_site_fract_x
_atom_site_fract_y
_atom_site_fract_z
_atom_type_partial_charge
C0 C 0.03796 0.36476 0.00521 0.0
O1 O 0.02169 0.34785 0.98885 0.0
O2 O 0.98029 0.34849 0.0161 0.0
Zn3 Zn 0.00702 0.3802 0.01636 0.0
O4 O 0.0073 0.39866 0.0549 0.0
C5 C 0.01864 0.41413 0.96758 0.0
O6 O 0.03676 0.42711 0.98443 0.0
O7 O 0.03521 0.37995 0.01771 0.0
C8 C 0.99212 0.39182 0.07559 0.0
O9 O 0.97474 0.37142 0.07235 0.0
C10 C 0.96197 0.34555 0.00687 0.0
O11 O 0.9611 0.36314 -0.00043 0.0
O12 O 1.00501 0.3944 0.97656 0.0
C13 C 0.68034 0.63406 0.00845 0.0
O14 O 0.68294 0.65341 0.01786 0.0
O15 O 0.64334 0.65221 0.00877 0.0
Zn16 Zn 0.63384 0.6195 0.00376 0.0
O17 O 0.61643 0.60353 0.96359 0.0
C18 C 0.60112 0.60772 0.05116 0.0
O19 O 0.59891 0.62249 0.03587 0.0
O20 O 0.66102 0.61741 0.00235 0.0
C21 C 0.59959 0.60247 0.95156 0.0
O22 O 0.59156 0.61384 0.96512 0.0
C23 C 0.64076 0.66537 0.99179 0.0
O24 O 0.62972 0.658 0.96458 0.0
O25 O 0.61549 0.60335 0.04171 0.0
C26 C 0.37124 0.04865 0.02776 0.0
O27 O 0.35386 0.03325 0.0428 0.0
O28 O 0.35316 0.98731 0.01934 0.0
Zn29 Zn 0.38418 0.01457 0.01737 0.0
O30 O 0.39913 0.01205 0.97738 0.0
C31 C 0.40235 0.99577 0.05472 0.0
O32 O 0.39204 0.98047 0.03165 0.0
O33 O 0.38526 0.04417 0.01674 0.0
C34 C 0.39201 0.99384 0.96093 0.0
O35 O 0.37342 0.97584 0.96893 0.0
C36 C 0.33512 0.98373 0.00768 0.0
O37 O 0.33481 0.99942 0.99191 0.0
O38 O 0.40144 0.01343 0.05488 0.0
C39 C 0.96439 0.63867 0.01205 0.0
O40 O 0.97945 0.65578 0.02963 0.0
O41 O 0.02309 0.65561 0.00979 0.0
Zn42 Zn 0.99635 0.62405 0.00599 0.0
O43 O 0.999 0.60722 0.96787 0.0
C44 C 1.00428 0.59774 0.04908 0.0
O45 O 0.01765 0.59894 0.02632 0.0
O46 O 0.96835 0.62413 0.00041 0.0
C47 C 0.01722 0.61168 0.95575 0.0
O48 O 0.03573 0.62845 0.96809 0.0
C49 C 0.02513 0.67182 0.99413 0.0
O50 O 0.00941 0.66827 0.97414 0.0
O51 O 0.9936 0.60743 0.04576 0.0
C52 C 0.32527 0.36941 0.98724 0.0
O53 O 0.32448 0.3518 0.97362 0.0
O54 O 0.36971 0.3582 -0.00268 0.0
Zn55 Zn 0.37337 0.38894 -0.00402 0.0
O56 O 0.38918 0.40786 0.03558 0.0
C57 C 0.40653 0.40461 0.94632 0.0
O58 O 0.41311 0.39311 0.96166 0.0
O59 O 0.34372 0.38607 -0.00309 0.0
C60 C 0.40983 0.4209 0.03993 0.0
O61 O 0.42348 0.42252 0.01735 0.0
C62 C 0.38335 0.3548 0.0115 0.0
O63 O 0.40048 0.37169 0.02652 0.0
O64 O 0.38981 0.40495 0.95637 0.0
C65 C 0.64836 0.96796 0.98686 0.0
O66 O 0.66257 0.9857 0.97114 0.0
O67 O 0.65832 0.02285 -0.00169 0.0
Zn68 Zn 0.62816 0.99425 -0.00144 0.0
O69 O 0.61097 0.99417 0.03724 0.0
C70 C 0.60925 0.98113 0.93391 0.0
O71 O 0.62047 0.97113 0.93189 0.0
O72 O 0.63203 0.96762 3e-05 0.0
C73 C 0.61871 0.00894 0.06002 0.0
O74 O 0.63945 0.02535 0.05947 0.0
C75 C 0.66074 0.04174 0.99285 0.0
O76 O 0.64317 0.04274 0.98739 0.0
O77 O 0.61033 0.99197 0.95962 0.0
C78 C 0.71819 0.71181 0.32452 0.0
O79 O 0.70272 0.69504 0.30691 0.0
O80 O 0.66167 0.69346 0.32459 0.0
Zn81 Zn 0.68609 0.72585 0.3317 0.0
O82 O 0.68211 0.73759 0.3742 0.0
C83 C 0.67123 0.74432 0.28365 0.0
O84 O 0.65167 0.73029 0.29521 0.0
O85 O 0.71483 0.72682 0.33599 0.0
C86 C 0.67686 0.75209 0.38013 0.0
O87 O 0.67244 0.76093 0.35636 0.0
C88 C 0.6419 0.68456 0.33412 0.0
O89 O 0.63561 0.69708 0.349 0.0
O90 O 0.68803 0.74518 0.29548 0.0
C91 C 0.35041 0.97596 0.3587 0.0
O92 O 0.35029 0.99239 0.37471 0.0
O93 O 0.31561 0.99526 0.34863 0.0
Zn94 Zn 0.30538 0.96231 0.34612 0.0
O95 O 0.28717 0.94636 0.30661 0.0
C96 C 0.28145 0.92837 0.39333 0.0
O97 O 0.28819 0.91682 0.37679 0.0
O98 O 0.33264 0.96035 0.34543 0.0
C99 C 0.26793 0.94276 0.30238 0.0
O100 O 0.25952 0.95012 0.32404 0.0
C101 C 0.30873 0.0065 0.33523 0.0
O102 O 0.29184 0.99639 0.3153 0.0
O103 O 0.2871 0.94788 0.38475 0.0
C104 C 0.03738 0.38179 0.35956 0.0
O105 O 0.02052 0.36712 0.37625 0.0
O106 O 0.01432 0.32056 0.35178 0.0
Zn107 Zn 0.046 0.34532 0.34536 0.0
O108 O 0.05546 0.33947 0.30244 0.0
C109 C 0.06711 0.3273 0.37986 0.0
O110 O 0.05672 0.31115 0.35785 0.0
O111 O 0.04972 0.37604 0.34567 0.0
C112 C 0.07529 0.34554 0.29629 0.0
O113 O 0.09059 0.35649 0.31851 0.0
C114 C 0.99797 0.31949 0.33798 0.0
O115 O 1.00128 0.33546 0.31893 0.0
O116 O 0.06496 0.34418 0.37973 0.0
C117 C 0.6314 0.96113 0.33834 0.0
O118 O 0.64061 0.9743 0.36392 0.0
O119 O 0.69574 0.99478 0.33028 0.0
Zn120 Zn 0.67307 0.96139 0.32956 0.0
O121 O 0.68019 0.94656 0.29357 0.0
C122 C 0.68247 0.96179 0.39602 0.0
O123 O 0.68669 0.98237 0.39453 0.0
O124 O 0.64209 0.95439 0.32194 0.0
C125 C 0.67427 0.92601 0.29398 0.0
O126 O 0.66351 0.91426 0.31882 0.0
C127 C 0.69239 0.01042 0.32439 0.0
O128 O 0.67261 0.00539 0.31568 0.0
O129 O 0.67548 0.94898 0.37103 0.0
C130 C 1.00015 0.71817 0.32577 0.0
O131 O 0.99915 0.70359 0.30407 0.0
O132 O 0.04315 0.70468 0.31501 0.0
Zn133 Zn 0.04753 0.73431 0.33086 0.0
O134 O 0.0642 0.74288 0.37271 0.0
C135 C 0.08543 0.76134 0.29461 0.0
O136 O 0.09281 0.75264 0.31457 0.0
O137 O 0.01862 0.73241 0.33881 0.0
C138 C 0.07706 0.76286 0.38354 0.0
O139 O 0.08027 0.77976 0.36666 0.0
C140 C 0.04072 0.68886 0.33207 0.0
O141 O 0.0393 0.69041 0.36335 0.0
O142 O 0.06568 0.75661 0.29737 0.0
C143 C 0.30503 0.29134 0.31642 0.0
O144 O 0.31884 0.30645 0.29664 0.0
O145 O 0.32214 0.34781 0.31684 0.0
Zn146 Zn 0.29134 0.32339 0.32865 0.0
O147 O 0.28285 0.32947 0.37234 0.0
C148 C 0.27053 0.33585 0.28159 0.0
O149 O 0.28647 0.35622 0.29037 0.0
O150 O 0.29141 0.29471 0.33159 0.0
C151 C 0.26928 0.33569 0.37801 0.0
O152 O 0.2604 0.33988 0.35398 0.0
C153 C 0.33532 0.36621 0.33193 0.0
O154 O 0.32888 0.37173 0.35839 0.0
O155 O 0.26929 0.31917 0.29478 0.0
C156 C 0.37264 0.02739 0.66619 0.0
O157 O 0.35594 0.0128 0.64788 0.0
O158 O 0.31789 0.01609 0.6738 0.0
Zn159 Zn 0.34569 0.04691 0.678 0.0
O160 O 0.34516 0.06214 0.71964 0.0
C161 C 0.3405 0.07612 0.63346 0.0
O162 O 0.32759 0.07735 0.65498 0.0
O163 O 0.37182 0.04321 0.68071 0.0
C164 C 0.35308 0.08302 0.72475 0.0
O165 O 0.36215 0.09687 0.70123 0.0
C166 C 0.29904 0.01336 0.66901 0.0
O167 O 0.29735 0.03105 0.66707 0.0
O168 O 0.34924 0.06472 0.63888 0.0
C169 C 1.00429 0.29988 0.67769 0.0
O170 O 0.00739 0.30942 0.70644 0.0
O171 O 0.96302 0.32125 0.68335 0.0
Zn172 Zn 0.95846 0.29026 0.68011 0.0
O173 O 0.93425 0.27025 0.64855 0.0
C174 C 0.93433 0.25731 0.72829 0.0
O175 O 0.92116 0.24557 0.70407 0.0
O176 O 0.98569 0.29156 0.66368 0.0
C177 C 0.92394 0.27592 0.63038 0.0
O178 O 0.92843 0.29667 0.63209 0.0
C179 C 0.97653 0.33721 0.66599 0.0
O180 O 0.98802 0.33359 0.64454 0.0
O181 O 0.95113 0.27665 0.7236 0.0
C182 C 0.70027 0.7139 0.67901 0.0
O183 O 0.68612 0.69746 0.69683 0.0
O184 O 0.6872 0.65642 0.66671 0.0
Zn185 Zn 0.71755 0.68475 0.6659 0.0
O186 O 0.73432 0.68327 0.62768 0.0
C187 C 0.74028 0.67255 0.70786 0.0
O188 O 0.73515 0.65746 0.6845 0.0
O189 O 0.71506 0.71223 0.66422 0.0
C190 C 0.75114 0.70109 0.61799 0.0
O191 O 0.75693 0.7204 0.63256 0.0
C192 C 0.67049 0.65406 0.65209 0.0
O193 O 0.67275 0.67035 0.63465 0.0
O194 O 0.73432 0.68665 0.70557 0.0
C195 C 0.30491 0.31919 0.68759 0.0
O196 O 0.32311 0.33481 0.70217 0.0
O197 O 0.35751 0.3213 0.68312 0.0
Zn198 Zn 0.32694 0.29356 0.68157 0.0
O199 O 0.32509 0.27437 0.64346 0.0
C200 C 0.3361 0.26939 0.7249 0.0
O201 O 0.35106 0.27366 0.70303 0.0
O202 O 0.30316 0.3009 0.67784 0.0
C203 C 0.30677 0.25776 0.6334 0.0
O204 O 0.28856 0.25326 0.64799 0.0
C205 C 0.36472 0.33873 0.66675 0.0
O206 O 0.3515 0.34016 0.64665 0.0
O207 O 0.32302 0.27632 0.72111 0.0
C208 C 0.66101 0.04814 0.66445 0.0
O209 O 0.65943 0.03358 0.6422 0.0
O210 O 0.69456 0.02354 0.66808 0.0
Zn211 Zn 0.70517 0.05645 0.6749 0.0
O212 O 0.72261 0.06742 0.71605 0.0
C213 C 0.74261 0.07552 0.63411 0.0
O214 O 0.74903 0.06643 0.65491 0.0
O215 O 0.67902 0.05993 0.68007 0.0
C216 C 0.73884 0.08704 0.72288 0.0
O217 O 0.74568 0.10269 0.70169 0.0
C218 C 0.70414 0.01483 0.68137 0.0
O219 O 0.72139 0.02749 0.70001 0.0
O220 O 0.724 0.07365 0.63775 0.0
C221 C 0.97192 0.61938 0.64476 0.0
O222 O 0.98563 0.63479 0.62525 0.0
O223 O 0.99199 0.67631 0.65288 0.0
Zn224 Zn 0.95993 0.65223 0.65885 0.0
O225 O 0.94676 0.65656 0.69933 0.0
C226 C 0.94663 0.67171 0.61317 0.0
O227 O 0.96274 0.68971 0.62798 0.0
O228 O 0.95844 0.62263 0.66058 0.0
C229 C 0.94994 0.675 0.71127 0.0
O230 O 0.96397 0.69393 0.69784 0.0
C231 C 0.0071 0.68992 0.67251 0.0
O232 O 1.00268 0.69037 0.70304 0.0
O233 O 0.94208 0.65251 0.62171 0.0
H234 H 0.1411 0.31365 0.14281 0.0
H235 H 0.13447 0.3208 0.04204 0.0
H236 H 0.10781 0.34604 0.11264 0.0
H237 H 0.1449 0.28946 0.09922 0.0
H238 H 0.14784 0.29738 0.05848 0.0
H239 H 0.17442 0.31696 0.14092 0.0
H240 H 0.23974 0.35246 0.10349 0.0
H241 H 0.18415 0.32104 0.03861 0.0
C242 C 0.13618 0.32021 0.12376 0.0
C243 C 0.1245 0.33073 0.13142 0.0
C244 C 0.14037 0.317 0.09157 0.0
C245 C 0.13216 0.324 0.06692 0.0
C246 C 0.12043 0.33457 0.07445 0.0
C247 C 0.11712 0.33819 0.1067 0.0
C248 C 0.15159 0.30416 0.08367 0.0
C249 C 0.17629 0.31846 0.08912 0.0
C250 C 0.18517 0.32341 0.12051 0.0
C251 C 0.20803 0.33621 0.12569 0.0
C252 C 0.22207 0.34362 0.09936 0.0
C253 C 0.21367 0.33791 0.06791 0.0
C254 C 0.19072 0.32561 0.06286 0.0
H255 H 0.68158 0.82907 0.12937 0.0
H256 H 0.67628 0.8067 0.03019 0.0
H257 H 0.64832 0.75893 0.10444 0.0
H258 H 0.7102 0.85194 0.07938 0.0
H259 H 0.69617 0.84571 0.04192 0.0
H260 H 0.6994 0.86699 0.12637 0.0
H261 H 0.66583 0.90076 0.10438 0.0
H262 H 0.67026 0.85788 0.03243 0.0
C263 C 0.67511 0.81582 0.11099 0.0
C264 C 0.66349 0.79348 0.12033 0.0
C265 C 0.67906 0.82088 0.07826 0.0
C266 C 0.67206 0.80312 0.05517 0.0
C267 C 0.66128 0.78081 0.06468 0.0
C268 C 0.65634 0.77616 0.09704 0.0
C269 C 0.69362 0.84496 0.0683 0.0
C270 C 0.68494 0.85979 0.07866 0.0
C271 C 0.68965 0.86986 0.10976 0.0
C272 C 0.68265 0.8845 0.11906 0.0
C273 C 0.67098 0.88916 0.09727 0.0
C274 C 0.66651 0.87972 0.0661 0.0
C275 C 0.67339 0.86492 0.05675 0.0
H276 H 0.16615 0.82478 0.13569 0.0
H277 H 0.15809 0.79185 0.04306 0.0
H278 H 0.10189 0.77393 0.10162 0.0
H279 H 0.19551 0.81369 0.09985 0.0
H280 H 0.19416 0.81981 0.05948 0.0
H281 H 0.2029 0.84188 0.14451 0.0
H282 H 0.23996 0.91066 0.11835 0.0
H283 H 0.20989 0.85828 0.04495 0.0
C284 C 0.1558 0.8135 0.1165 0.0
C285 C 0.13299 0.80028 0.12161 0.0
C286 C 0.16516 0.8111 0.08787 0.0
C287 C 0.15114 0.79497 0.06436 0.0
C288 C 0.12828 0.78189 0.06901 0.0
C289 C 0.11935 0.78504 0.09728 0.0
C290 C 0.18998 0.82242 0.08436 0.0
C291 C 0.203 0.84722 0.09377 0.0
C292 C 0.2082 0.85422 0.12622 0.0
C293 C 0.22076 0.87709 0.1352 0.0
C294 C 0.22903 0.89306 0.11151 0.0
C295 C 0.22568 0.88637 0.07898 0.0
C296 C 0.2122 0.86348 0.07012 0.0
H297 H 0.37497 0.20927 0.87468 0.0
H298 H 0.3764 0.2281 0.97455 0.0
H299 H 0.34853 0.24939 0.90407 0.0
H300 H 0.40372 0.21247 0.91816 0.0
H301 H 0.39537 0.20985 0.9589 0.0
H302 H 0.37906 0.18112 0.87705 0.0
H303 H 0.34592 0.11507 0.91432 0.0
H304 H 0.37558 0.17283 0.97875 0.0
C305 C 0.37034 0.21671 0.89376 0.0
C306 C 0.35993 0.22823 0.88573 0.0
C307 C 0.3757 0.21576 0.92588 0.0
C308 C 0.37125 0.22748 0.94999 0.0
C309 C 0.36115 0.23938 0.94215 0.0
C310 C 0.3552 0.2392 0.91022 0.0
C311 C 0.389 0.20524 0.93379 0.0
C312 C 0.37631 0.17989 0.92848 0.0
C313 C 0.37226 0.17034 0.89713 0.0
C314 C 0.36098 0.14697 0.89149 0.0
C315 C 0.35441 0.13314 0.91795 0.0
C316 C 0.36036 0.14237 0.94921 0.0
C317 C 0.37083 0.16571 0.95456 0.0
H318 H 0.86656 0.16952 0.89095 0.0
H319 H 0.86459 0.19502 0.98573 0.0
H320 H 0.901 0.24048 0.9113 0.0
H321 H 0.85244 0.14463 0.93877 0.0
H322 H 0.84755 0.15501 0.9757 0.0
H323 H 0.83073 0.14854 0.88721 0.0
H324 H 0.76235 0.11674 0.90829 0.0
H325 H 0.80929 0.13759 0.98555 0.0
C326 C 0.87044 0.18347 0.90734 0.0
C327 C 0.88394 0.20541 0.89692 0.0
C328 C 0.8623 0.17947 0.93884 0.0
C329 C 0.86972 0.19782 0.96095 0.0
C330 C 0.88407 0.21981 0.95106 0.0
C331 C 0.89044 0.22342 0.91894 0.0
C332 C 0.84686 0.15563 0.94916 0.0
C333 C 0.82323 0.14606 0.93798 0.0
C334 C 0.81806 0.14357 0.90494 0.0
C335 C 0.79619 0.13311 0.89428 0.0
C336 C 0.77931 0.12527 0.91671 0.0
C337 C 0.78378 0.12659 0.94956 0.0
C338 C 0.80581 0.13704 0.96021 0.0
H339 H 0.83915 0.63258 0.84449 0.0
H340 H 0.8464 0.634 0.94697 0.0
H341 H 0.90362 0.6651 0.88753 0.0
H342 H 0.80873 0.60469 0.88014 0.0
H343 H 0.81082 0.60983 0.92251 0.0
H344 H 0.80727 0.63283 0.84418 0.0
H345 H 0.76943 0.65896 0.88518 0.0
H346 H 0.79597 0.63064 0.94589 0.0
C347 C 0.84954 0.63849 0.86576 0.0
C348 C 0.87253 0.65036 0.86241 0.0
C349 C 0.8399 0.63312 0.89624 0.0
C350 C 0.8536 0.6393 0.92353 0.0
C351 C 0.8766 0.65107 0.9204 0.0
C352 C 0.88591 0.6571 0.88997 0.0
C353 C 0.81518 0.61827 0.89918 0.0
C354 C 0.80382 0.63119 0.89558 0.0
C355 C 0.80079 0.63701 0.86496 0.0
C356 C 0.78863 0.64732 0.86087 0.0
C357 C 0.77982 0.6521 0.88799 0.0
C358 C 0.78243 0.64616 0.91855 0.0
C359 C 0.7945 0.6358 0.92235 0.0
H360 H 0.81377 0.65539 0.47358 0.0
H361 H 0.80876 0.66343 0.37271 0.0
H362 H 0.78387 0.691 0.44252 0.0
H363 H 0.81349 0.62848 0.42828 0.0
H364 H 0.81997 0.63857 0.38868 0.0
H365 H 0.84145 0.64611 0.47238 0.0
H366 H 0.90897 0.68184 0.44318 0.0
H367 H 0.85788 0.66631 0.37461 0.0
C368 C 0.80947 0.66243 0.4544 0.0
C369 C 0.79927 0.67453 0.4618 0.0
C370 C 0.81346 0.65878 0.42231 0.0
C371 C 0.80656 0.66693 0.39751 0.0
C372 C 0.79604 0.67879 0.40465 0.0
C373 C 0.7929 0.68281 0.43684 0.0
C374 C 0.82266 0.64403 0.41447 0.0
C375 C 0.84692 0.65558 0.42281 0.0
C376 C 0.85365 0.65477 0.45411 0.0
C377 C 0.87609 0.66467 0.46172 0.0
C378 C 0.89173 0.67523 0.43774 0.0
C379 C 0.88542 0.67583 0.40629 0.0
C380 C 0.86294 0.66614 0.39895 0.0
H381 H 0.35352 0.16751 0.48211 0.0
H382 H 0.33956 0.1467 0.38207 0.0
H383 H 0.32924 0.09916 0.4526 0.0
H384 H 0.37115 0.19492 0.43576 0.0
H385 H 0.35915 0.18595 0.39664 0.0
H386 H 0.34733 0.19543 0.48209 0.0
H387 H 0.30436 0.21734 0.4539 0.0
H388 H 0.33056 0.19221 0.38236 0.0
C389 C 0.34714 0.1545 0.46336 0.0
C390 C 0.34081 0.13264 0.47124 0.0
C391 C 0.34638 0.15974 0.43127 0.0
C392 C 0.33949 0.14278 0.40696 0.0
C393 C 0.33383 0.12108 0.41466 0.0
C394 C 0.33408 0.1161 0.44675 0.0
C395 C 0.35531 0.1838 0.42264 0.0
C396 C 0.3397 0.19159 0.43141 0.0
C397 C 0.33789 0.19713 0.46357 0.0
C398 C 0.32469 0.20585 0.4719 0.0
C399 C 0.31342 0.20927 0.4477 0.0
C400 C 0.31563 0.2047 0.41534 0.0
C401 C 0.32852 0.19548 0.40734 0.0
H402 H 0.82859 0.14624 0.48429 0.0
H403 H 0.82289 0.13257 0.38229 0.0
H404 H 0.76503 0.10328 0.44079 0.0
H405 H 0.86048 0.15161 0.45046 0.0
H406 H 0.8583 0.15033 0.40781 0.0
H407 H 0.85229 0.18244 0.47889 0.0
H408 H 0.89893 0.24616 0.44116 0.0
H409 H 0.88075 0.1858 0.38627 0.0
C410 C 0.81851 0.13914 0.46283 0.0
C411 C 0.79554 0.12568 0.46573 0.0
C412 C 0.82852 0.14266 0.43261 0.0
C413 C 0.81526 0.13123 0.40537 0.0
C414 C 0.79232 0.11687 0.4082 0.0
C415 C 0.7826 0.11492 0.43824 0.0
C416 C 0.85342 0.15573 0.43013 0.0
C417 C 0.86373 0.18099 0.43125 0.0
C418 C 0.86212 0.19203 0.45907 0.0
C419 C 0.87459 0.21553 0.46273 0.0
C420 C 0.88826 0.22811 0.43772 0.0
C421 C 0.89068 0.21755 0.41021 0.0
C422 C 0.87824 0.19399 0.40695 0.0
H423 H 0.03712 0.53618 0.20425 0.0
H424 H 0.04962 0.56724 0.29906 0.0
H425 H 0.01772 0.58305 0.2273 0.0
H426 H 0.07048 0.54443 0.24563 0.0
H427 H 0.06353 0.54381 0.2867 0.0
H428 H 0.04461 0.5109 0.20751 0.0
H429 H 0.0151 0.44753 0.2517 0.0
H430 H 0.0436 0.50811 0.31044 0.0
C431 C 0.03512 0.5464 0.22209 0.0
C432 C 0.02577 0.55856 0.21243 0.0
C433 C 0.04307 0.5486 0.25366 0.0
C434 C 0.04214 0.56403 0.27544 0.0
C435 C 0.03336 0.5768 0.2657 0.0
C436 C 0.02429 0.57304 0.23479 0.0
C437 C 0.05628 0.53805 0.26218 0.0
C438 C 0.04345 0.51255 0.25932 0.0
C439 C 0.03883 0.5014 0.22894 0.0
C440 C 0.02765 0.47789 0.22593 0.0
C441 C 0.02233 0.46557 0.25372 0.0
C442 C 0.02849 0.47636 0.28404 0.0
C443 C 0.03855 0.49979 0.28695 0.0
H444 H 0.53332 0.51573 0.21029 0.0
H445 H 0.52975 0.54014 0.30516 0.0
H446 H 0.56545 0.5863 0.23113 0.0
H447 H 0.52149 0.49142 0.25974 0.0
H448 H 0.51422 0.50077 0.29543 0.0
H449 H 0.49829 0.49406 0.20638 0.0
H450 H 0.43031 0.44773 0.22434 0.0
H451 H 0.47599 0.47684 0.30347 0.0
C452 C 0.53614 0.52933 0.22667 0.0
C453 C 0.54856 0.55138 0.21632 0.0
C454 C 0.52766 0.52491 0.25803 0.0
C455 C 0.53443 0.54314 0.28023 0.0
C456 C 0.54857 0.56523 0.27058 0.0
C457 C 0.55458 0.56917 0.23844 0.0
C458 C 0.51388 0.5009 0.2688 0.0
C459 C 0.49011 0.48828 0.25663 0.0
C460 C 0.48536 0.48563 0.22344 0.0
C461 C 0.46386 0.4713 0.21156 0.0
C462 C 0.44688 0.45943 0.23327 0.0
C463 C 0.45107 0.4612 0.2663 0.0
C464 C 0.47264 0.47594 0.27801 0.0
H465 H 0.50097 0.9623 0.18382 0.0
H466 H 0.50402 0.94968 0.2834 0.0
H467 H 0.56278 0.98064 0.22737 0.0
H468 H 0.46794 0.9324 0.21318 0.0
H469 H 0.46897 0.93139 0.25567 0.0
H470 H 0.47266 0.96852 0.18925 0.0
H471 H 0.43501 0.99052 0.24172 0.0
H472 H 0.45374 0.94879 0.28648 0.0
C473 C 0.5105 0.96406 0.20495 0.0
C474 C 0.53335 0.97352 0.20238 0.0
C475 C 0.49977 0.95587 0.23428 0.0
C476 C 0.51219 0.95696 0.26115 0.0
C477 C 0.53492 0.96595 0.25849 0.0
C478 C 0.54535 0.97454 0.22942 0.0
C479 C 0.47487 0.94306 0.23549 0.0
C480 C 0.46578 0.95829 0.23833 0.0
C481 C 0.4655 0.96981 0.21156 0.0
C482 C 0.4547 0.98177 0.21273 0.0
C483 C 0.44449 0.98247 0.24122 0.0
C484 C 0.44389 0.97046 0.26771 0.0
C485 C 0.45479 0.95864 0.26635 0.0
H486 H 0.47714 0.98738 0.81731 0.0
H487 H 0.4746 1.00218 0.71865 0.0
H488 H 0.45351 0.03013 0.79372 0.0
H489 H 0.47661 0.96284 0.76984 0.0
H490 H 0.48228 0.97375 0.73064 0.0
H491 H 0.50597 0.97771 0.81159 0.0
H492 H 0.57245 0.01238 0.77773 0.0
H493 H 0.51999 1.00166 0.71524 0.0
C494 C 0.47427 0.9965 0.79959 0.0
C495 C 0.46577 0.00982 0.80924 0.0
C496 C 0.47821 0.99423 0.76696 0.0
C497 C 0.47276 0.00481 0.74395 0.0
C498 C 0.46399 0.01796 0.75352 0.0
C499 C 0.46121 0.02086 0.78624 0.0
C500 C 0.48591 0.97862 0.75656 0.0
C501 C 0.51026 0.98911 0.76301 0.0
C502 C 0.51771 0.98679 0.79296 0.0
C503 C 0.54014 0.99498 0.79815 0.0
C504 C 0.55515 0.00631 0.7738 0.0
C505 C 0.54813 0.00887 0.74393 0.0
C506 C 0.52561 1.00021 0.73855 0.0
H507 H 0.02935 0.5003 0.80772 0.0
H508 H 1.00167 0.47189 0.7139 0.0
H509 H 0.99443 0.42897 0.78978 0.0
H510 H 0.04159 0.52372 0.75846 0.0
H511 H 0.02702 0.51211 0.7213 0.0
H512 H 0.0194 0.52627 0.80708 0.0
H513 H 0.97569 0.54753 0.78022 0.0
H514 H 0.99995 0.52078 0.70798 0.0
C515 C 0.01979 0.48582 0.79173 0.0
C516 C 0.01158 0.46423 0.80306 0.0
C517 C 0.0158 0.48878 0.75979 0.0
C518 C 1.00425 0.46984 0.73877 0.0
C519 C 0.99637 0.44826 0.74979 0.0
C520 C 0.99991 0.44565 0.78181 0.0
C521 C 0.02495 0.51214 0.74775 0.0
C522 C 0.01037 0.52119 0.75672 0.0
C523 C 0.0096 0.52768 0.7888 0.0
C524 C 0.99664 0.53661 0.79737 0.0
C525 C 0.9847 0.53946 0.77366 0.0
C526 C 0.98604 0.53418 0.74132 0.0
C527 C 0.99869 0.52473 0.73296 0.0
H528 H 0.51176 0.475 0.80222 0.0
H529 H 0.49725 0.46438 0.70077 0.0
H530 H 0.44489 0.43405 0.76863 0.0
H531 H 0.5406 0.48209 0.76112 0.0
H532 H 0.53466 0.48137 0.71945 0.0
H533 H 0.53235 0.51194 0.79571 0.0
H534 H 0.57569 0.57671 0.75855 0.0
H535 H 0.55751 0.51761 0.70007 0.0
C536 C 0.49992 0.46855 0.78261 0.0
C537 C 0.47735 0.45523 0.78932 0.0
C538 C 0.50728 0.473 0.7507 0.0
C539 C 0.49177 0.46254 0.72539 0.0
C540 C 0.46931 0.44845 0.73204 0.0
C541 C 0.46222 0.44555 0.7638 0.0
C542 C 0.53174 0.48634 0.74374 0.0
C543 C 0.54183 0.51157 0.74638 0.0
C544 C 0.54106 0.52192 0.7755 0.0
C545 C 0.55297 0.54535 0.77979 0.0
C546 C 0.56547 0.55865 0.75454 0.0
C547 C 0.56742 0.54878 0.72587 0.0
C548 C 0.5554 0.52524 0.72177 0.0
H549 H 0.71474 0.8872 0.52751 0.0
H550 H 0.7156 0.89542 0.63042 0.0
H551 H 0.68735 0.92315 0.57145 0.0
H552 H 0.74032 0.88258 0.56236 0.0
H553 H 0.73801 0.88306 0.60494 0.0
H554 H 0.70568 0.85045 0.53035 0.0
H555 H 0.68172 0.78681 0.57256 0.0
H556 H 0.72244 0.84778 0.62804 0.0
C557 C 0.70985 0.89258 0.54896 0.0
C558 C 0.69978 0.90505 0.54608 0.0
C559 C 0.7151 0.8885 0.57941 0.0
C560 C 0.71055 0.8975 0.60705 0.0
C561 C 0.70072 0.91028 0.60441 0.0
C562 C 0.69466 0.91309 0.5739 0.0
C563 C 0.72825 0.87733 0.58219 0.0
C564 C 0.71381 0.85198 0.58035 0.0
C565 C 0.70345 0.84078 0.55118 0.0
C566 C 0.69203 0.81725 0.54794 0.0
C567 C 0.69032 0.80496 0.57479 0.0
C568 C 0.70172 0.8158 0.60337 0.0
C569 C 0.71317 0.83933 0.60624 0.0
H570 H 0.20457 0.8377 0.55046 0.0
H571 H 0.20173 0.86325 0.64486 0.0
H572 H 0.24035 0.90868 0.5716 0.0
H573 H 0.19103 0.81309 0.5981 0.0
H574 H 0.18669 0.82355 0.6354 0.0
H575 H 0.1678 0.82219 0.54906 0.0
H576 H 0.09985 0.77929 0.57127 0.0
H577 H 0.14874 0.79869 0.64517 0.0
C578 C 0.20876 0.85172 0.56695 0.0
C579 C 0.22241 0.8737 0.55669 0.0
C580 C 0.20024 0.84773 0.59827 0.0
C581 C 0.20719 0.86608 0.62022 0.0
C582 C 0.2217 0.88806 0.61051 0.0
C583 C 0.22877 0.89167 0.57873 0.0
C584 C 0.18533 0.82388 0.60892 0.0
C585 C 0.16131 0.81349 0.59911 0.0
C586 C 0.1554 0.8136 0.56692 0.0
C587 C 0.13332 0.80115 0.55686 0.0
C588 C 0.11697 0.78889 0.57913 0.0
C589 C 0.12233 0.78754 0.61077 0.0
C590 C 0.1445 0.8002 0.62092 0.0
H591 H 0.1745 0.31145 0.52205 0.0
H592 H 0.1771 0.30173 0.62254 0.0
H593 H 0.2369 0.33695 0.56897 0.0
H594 H 0.1421 0.28082 0.55264 0.0
H595 H 0.14249 0.28261 0.59531 0.0
H596 H 0.14453 0.31368 0.52173 0.0
H597 H 0.10292 0.33453 0.56378 0.0
H598 H 0.12437 0.29941 0.62009 0.0
C599 C 0.18401 0.3151 0.54388 0.0
C600 C 0.20707 0.32609 0.54216 0.0
C601 C 0.17305 0.30704 0.57304 0.0
C602 C 0.18545 0.30924 0.60048 0.0
C603 C 0.20849 0.31975 0.59899 0.0
C604 C 0.21916 0.32899 0.57017 0.0
C605 C 0.14811 0.29291 0.57362 0.0
C606 C 0.13747 0.3067 0.57201 0.0
C607 C 0.13679 0.31581 0.5428 0.0
C608 C 0.12483 0.32639 0.53996 0.0
C609 C 0.1133 0.32763 0.56642 0.0
C610 C 0.11271 0.31757 0.59505 0.0
C611 C 0.12535 0.30774 0.59822 0.0
H612 H 0.02678 0.4338 0.09092 0.0
H613 H 0.96275 0.38254 0.12388 0.0
H614 H 0.96746 0.40551 0.17206 0.0
H615 H 0.99048 0.43924 0.20611 0.0
H616 H 0.05514 0.48973 0.17431 0.0
H617 H 0.0492 0.46822 0.12406 0.0
C618 C 0.01379 0.42768 0.10853 0.0
C619 C 0.99451 0.40638 0.10386 0.0
C620 C 0.01667 0.4409 0.13635 0.0
C621 C 0.97782 0.3988 0.12691 0.0
C622 C 0.98048 0.41193 0.15449 0.0
C623 C 1.00326 0.44555 0.18815 0.0
C624 C 0.02323 0.46604 0.19404 0.0
C625 C 0.99996 0.43285 0.15966 0.0
C626 C 0.03949 0.47417 0.1703 0.0
C627 C 0.0362 0.46176 0.14166 0.0
H628 H 0.5985 0.57378 0.0848 0.0
H629 H 0.5738 0.61827 0.08206 0.0
H630 H 0.5538 0.6032 0.13152 0.0
H631 H 0.54533 0.57933 0.17739 0.0
H632 H 0.57002 0.53502 0.1811 0.0
H633 H 0.58765 0.54771 0.12905 0.0
C634 C 0.58864 0.58008 0.09494 0.0
C635 C 0.58786 0.59732 0.07993 0.0
C636 C 0.57714 0.57133 0.12348 0.0
C637 C 0.57481 0.60511 0.09317 0.0
C638 C 0.56335 0.59652 0.12149 0.0
C639 C 0.55443 0.57233 0.16661 0.0
C640 C 0.55656 0.55643 0.18303 0.0
C641 C 0.56471 0.57992 0.13708 0.0
C642 C 0.56809 0.54721 0.16875 0.0
C643 C 0.57831 0.5546 0.13917 0.0
H644 H 0.42431 0.02254 0.10766 0.0
H645 H 0.40701 0.95989 0.05875 0.0
H646 H 0.42412 0.95144 0.10149 0.0
H647 H 0.44103 0.96003 0.15482 0.0
H648 H 0.45794 0.02205 0.20496 0.0
H649 H 0.4442 0.03263 0.15963 0.0
C650 C 0.42444 0.00714 0.10627 0.0
C651 C 0.41413 0.99179 0.08015 0.0
C652 C 0.43426 1.00223 0.13117 0.0
C653 C 0.4146 0.97195 0.07865 0.0
C654 C 0.42443 0.96708 0.10309 0.0
C655 C 0.4423 0.97616 0.15549 0.0
C656 C 0.45052 0.99024 0.18319 0.0
C657 C 0.43397 0.98188 0.1297 0.0
C658 C 0.4516 0.01088 0.18391 0.0
C659 C 0.44367 0.01689 0.15807 0.0
H660 H 0.43049 0.02793 0.93755 0.0
H661 H 0.38268 0.95708 0.92338 0.0
H662 H 0.40338 0.95521 0.87778 0.0
H663 H 0.43347 0.97428 0.8393 0.0
H664 H 0.47987 0.04539 0.85134 0.0
H665 H 0.46167 0.04656 0.90084 0.0
C666 C 0.42463 0.01205 0.9246 0.0
C667 C 0.40493 0.99273 0.93373 0.0
C668 C 0.43651 0.01112 0.89819 0.0
C669 C 0.39767 0.97227 0.91674 0.0
C670 C 0.40954 0.97115 0.8907 0.0
C671 C 0.4399 0.98986 0.85337 0.0
C672 C 0.4581 0.00966 0.84223 0.0
C673 C 0.42881 0.99052 0.88095 0.0
C674 C 0.46604 0.02993 0.85994 0.0
C675 C 0.45551 0.03061 0.88796 0.0
H676 H 0.04628 0.45186 0.93472 0.0
H677 H 0.97956 0.39464 0.93531 0.0
H678 H 0.97103 0.40668 0.88658 0.0
H679 H 0.98276 0.43208 0.84233 0.0
H680 H 0.04991 0.48796 0.8387 0.0
H681 H 0.05777 0.47831 0.8906 0.0
C682 C 0.02985 0.44211 0.92426 0.0
C683 C 0.01366 0.42226 0.93855 0.0
C684 C 0.02506 0.44898 0.8958 0.0
C685 C 0.99243 0.40985 0.92469 0.0
C686 C 0.98748 0.41675 0.89685 0.0
C687 C 0.99915 0.44217 0.85285 0.0
C688 C 0.01577 0.46055 0.83644 0.0
C689 C 1.00373 0.43607 0.88197 0.0
C690 C 0.03675 0.47379 0.85086 0.0
C691 C 0.04132 0.46813 0.88039 0.0
H692 H 0.57637 0.60755 0.90465 0.0
H693 H 0.59945 0.5649 0.93378 0.0
H694 H 0.58437 0.54178 0.88473 0.0
H695 H 0.56746 0.53545 0.83183 0.0
H696 H 0.54716 0.57959 0.79959 0.0
H697 H 0.55807 0.60029 0.85161 0.0
C698 C 0.57783 0.59304 0.90032 0.0
C699 C 0.58907 0.58797 0.92266 0.0
C700 C 0.56965 0.58014 0.87152 0.0
C701 C 0.59106 0.56926 0.91675 0.0
C702 C 0.5824 0.55599 0.88877 0.0
C703 C 0.56494 0.54927 0.83652 0.0
C704 C 0.55627 0.55587 0.81228 0.0
C705 C 0.57202 0.5615 0.86578 0.0
C706 C 0.55365 0.57418 0.81816 0.0
C707 C 0.55999 0.58603 0.84777 0.0
H708 H 0.98199 0.57551 0.92642 0.0
H709 H 0.05294 0.61713 0.92271 0.0
H710 H 0.05299 0.59569 0.87522 0.0
H711 H 0.03258 0.56693 0.83235 0.0
H712 H 0.96166 0.52652 0.83519 0.0
H713 H 0.96187 0.54546 0.88574 0.0
C714 C 0.9975 0.57986 0.91537 0.0
C715 C 0.01741 0.59805 0.92794 0.0
C716 C 0.99739 0.5676 0.88797 0.0
C717 C 0.03735 0.60331 0.91341 0.0
C718 C 0.0374 0.59104 0.88626 0.0
C719 C 0.01725 0.56197 0.84451 0.0
C720 C 0.99713 0.54536 0.83032 0.0
C721 C 0.0175 0.57337 0.87306 0.0
C722 C 0.97731 0.53928 0.84585 0.0
C723 C 0.97744 0.55017 0.87459 0.0
H724 H 0.44597 0.41264 0.92429 0.0
H725 H 0.39386 0.42463 0.904 0.0
H726 H 0.41248 0.44346 0.85523 0.0
H727 H 0.44229 0.45438 0.81663 0.0
H728 H 0.49398 0.44174 0.83612 0.0
H729 H 0.47713 0.4259 0.88737 0.0
C730 C 0.43871 0.41943 0.90926 0.0
C731 C 0.4184 0.41698 0.9176 0.0
C732 C 0.44952 0.43028 0.88123 0.0
C733 C 0.40939 0.42615 0.89807 0.0
C734 C 0.42004 0.43695 0.87017 0.0
C735 C 0.44995 0.44833 0.83226 0.0
C736 C 0.46928 0.44912 0.82252 0.0
C737 C 0.43992 0.4388 0.86129 0.0
C738 C 0.47923 0.44152 0.84318 0.0
C739 C 0.46946 0.43223 0.87232 0.0
H740 H 0.57952 0.99447 0.93251 0.0
H741 H 0.60894 0.96559 0.87306 0.0
H742 H 0.58859 0.96564 0.82655 0.0
H743 H 0.56421 0.97581 0.80205 0.0
H744 H 0.53456 0.00472 0.86042 0.0
H745 H 0.55284 1.00229 0.90833 0.0
C746 C 0.58142 0.98811 0.9094 0.0
C747 C 0.59594 0.98025 0.90624 0.0
C748 C 0.56956 0.9881 0.88265 0.0
C749 C 0.59799 0.97183 0.87619 0.0
C750 C 0.58635 0.97184 0.84955 0.0
C751 C 0.56164 0.98142 0.82536 0.0
C752 C 0.54831 0.99065 0.82782 0.0
C753 C 0.57235 0.98021 0.85243 0.0
C754 C 0.54475 0.99753 0.85808 0.0
C755 C 0.55533 0.99629 0.88534 0.0
H756 H 0.57515 0.9779 0.06751 0.0
H757 H 0.63053 0.03623 0.11398 0.0
H758 H 0.60798 0.03198 0.16066 0.0
H759 H 0.57346 0.01008 0.18988 0.0
H760 H 0.5187 0.9507 0.14449 0.0
H761 H 0.53985 0.95746 0.0954 0.0
C762 C 0.58228 0.98978 0.08775 0.0
C763 C 0.6046 0.00719 0.08738 0.0
C764 C 0.56927 0.98716 0.11464 0.0
C765 C 0.61347 0.02256 0.11371 0.0
C766 C 0.60057 0.02017 0.14042 0.0
C767 C 0.5661 0.99872 0.16914 0.0
C768 C 0.5446 0.97983 0.17097 0.0
C769 C 0.57859 1.00228 0.14138 0.0
C770 C 0.53513 0.96548 0.1437 0.0
C771 C 0.54732 0.96919 0.11572 0.0
H772 H 0.03013 0.58238 0.06815 0.0
H773 H 0.97468 0.58753 0.09729 0.0
H774 H 0.97409 0.57193 0.14887 0.0
H775 H 0.99163 0.56049 0.18749 0.0
H776 H 0.04944 0.55915 0.15995 0.0
H777 H 0.0461 0.5685 0.1056 0.0
C778 C 0.01775 0.57987 0.08563 0.0
C779 C 1.00266 0.58639 0.07904 0.0
C780 C 0.01781 0.57136 0.1155 0.0
C781 C 0.98667 0.58292 0.10191 0.0
C782 C 0.98628 0.57394 0.13139 0.0
C783 C 1.00342 0.56208 0.16954 0.0
C784 C 0.02088 0.55933 0.17806 0.0
C785 C 1.00214 0.56868 0.13874 0.0
C786 C 0.03567 0.56091 0.15422 0.0
C787 C 0.03399 0.56661 0.12314 0.0
H788 H 0.45043 0.43759 0.0666 0.0
H789 H 0.38795 0.43207 0.08278 0.0
H790 H 0.40052 0.45019 0.13584 0.0
H791 H 0.42803 0.46494 0.17899 0.0
H792 H 0.48898 0.46672 0.16521 0.0
H793 H 0.47863 0.45366 0.10955 0.0
C794 C 0.43969 0.4406 0.08164 0.0
C795 C 0.41826 0.43338 0.07092 0.0
C796 C 0.4468 0.45049 0.1125 0.0
C797 C 0.40445 0.43727 0.09066 0.0
C798 C 0.41163 0.44768 0.12095 0.0
C799 C 0.43908 0.46247 0.16386 0.0
C800 C 0.45916 0.46664 0.17651 0.0
C801 C 0.43258 0.4539 0.13237 0.0
C802 C 0.47352 0.46391 0.15619 0.0
C803 C 0.46749 0.45615 0.12439 0.0
H804 H 0.66765 0.78348 0.40275 0.0
H805 H 0.6887 0.73927 0.43302 0.0
H806 H 0.69412 0.75486 0.48744 0.0
H807 H 0.69579 0.7827 0.52527 0.0
H808 H 0.67367 0.82644 0.49737 0.0
H809 H 0.66618 0.80959 0.44292 0.0
C810 C 0.67322 0.77713 0.42133 0.0
C811 C 0.67796 0.76037 0.41363 0.0
C812 C 0.67635 0.7862 0.45288 0.0
C813 C 0.68504 0.75224 0.43808 0.0
C814 C 0.68819 0.76116 0.46929 0.0
C815 C 0.68867 0.78819 0.50774 0.0
C816 C 0.68515 0.80574 0.51567 0.0
C817 C 0.68424 0.77835 0.47681 0.0
C818 C 0.6767 0.81306 0.49197 0.0
C819 C 0.67234 0.80339 0.46085 0.0
H820 H 0.27199 0.8909 0.42486 0.0
H821 H 0.25975 0.94507 0.42619 0.0
H822 H 0.23851 0.93137 0.47499 0.0
H823 H 0.22521 0.90553 0.51885 0.0
H824 H 0.23897 0.85257 0.52013 0.0
H825 H 0.25719 0.86382 0.46824 0.0
C826 C 0.26454 0.8996 0.43572 0.0
C827 C 0.26764 0.9191 0.42202 0.0
C828 C 0.25253 0.89179 0.46416 0.0
C829 C 0.25784 0.93016 0.43637 0.0
C830 C 0.24562 0.92232 0.46426 0.0
C831 C 0.2322 0.89643 0.50778 0.0
C832 C 0.23097 0.87842 0.5235 0.0
C833 C 0.24318 0.9034 0.47861 0.0
C834 C 0.2396 0.86644 0.50848 0.0
C835 C 0.2502 0.873 0.47896 0.0
H836 H 0.09184 0.35818 0.4271 0.0
H837 H 0.07239 0.29206 0.38914 0.0
H838 H 0.09165 0.28738 0.43321 0.0
H839 H 0.11049 0.30036 0.48554 0.0
H840 H 0.1288 0.36579 0.52456 0.0
H841 H 0.11388 0.37265 0.47679 0.0
C842 C 0.09197 0.34282 0.4283 0.0
C843 C 0.0804 0.32538 0.4051 0.0
C844 C 0.10293 0.34015 0.45387 0.0
C845 C 0.08096 0.30569 0.40683 0.0
C846 C 0.092 0.30299 0.43203 0.0
C847 C 0.11181 0.31638 0.48309 0.0
C848 C 0.12073 0.33258 0.5084 0.0
C849 C 0.10261 0.31989 0.45605 0.0
C850 C 0.12199 0.35311 0.50527 0.0
C851 C 0.11333 0.35695 0.47811 0.0
H852 H 0.11497 0.3525 0.27674 0.0
H853 H 0.04824 0.32653 0.24402 0.0
H854 H 0.05744 0.31856 0.19088 0.0
H855 H 0.08448 0.31996 0.15323 0.0
H856 H 0.15136 0.34616 0.18472 0.0
H857 H 0.14193 0.35259 0.2391 0.0
C858 C 0.10244 0.34508 0.25799 0.0
C859 C 0.08099 0.34029 0.26434 0.0
C860 C 0.10783 0.34048 0.22736 0.0
C861 C 0.0649 0.33048 0.23983 0.0
C862 C 0.07013 0.32589 0.2094 0.0
C863 C 0.09702 0.32715 0.172 0.0
C864 C 0.11864 0.33289 0.16497 0.0
C865 C 0.09155 0.331 0.20285 0.0
C866 C 0.1346 0.34163 0.18963 0.0
C867 C 0.12924 0.34543 0.22061 0.0
H868 H 0.63855 0.74377 0.24969 0.0
H869 H 0.70935 0.77642 0.2561 0.0
H870 H 0.71325 0.79735 0.20849 0.0
H871 H 0.69642 0.80349 0.16184 0.0
H872 H 0.62574 0.76902 0.15358 0.0
H873 H 0.62186 0.75205 0.20539 0.0
C874 C 0.65486 0.75562 0.24089 0.0
C875 C 0.6736 0.75831 0.25629 0.0
C876 C 0.65698 0.76737 0.21319 0.0
C877 C 0.6946 0.77384 0.24458 0.0
C878 C 0.69687 0.78587 0.21735 0.0
C879 C 0.68024 0.79279 0.17198 0.0
C880 C 0.66138 0.78766 0.15436 0.0
C881 C 0.67817 0.78243 0.20108 0.0
C882 C 0.64043 0.77334 0.1671 0.0
C883 C 0.63824 0.76351 0.1965 0.0
H884 H 0.26875 0.90937 0.26931 0.0
H885 H 0.23909 0.94938 0.26977 0.0
H886 H 0.22059 0.93154 0.2185 0.0
H887 H 0.21494 0.90625 0.17184 0.0
H888 H 0.24309 0.86492 0.17306 0.0
H889 H 0.25989 0.8813 0.22566 0.0
C890 C 0.25813 0.91407 0.25819 0.0
C891 C 0.25546 0.93082 0.27288 0.0
C892 C 0.24727 0.90345 0.22916 0.0
C893 C 0.24138 0.93653 0.25873 0.0
C894 C 0.23087 0.92638 0.22944 0.0
C895 C 0.22449 0.90066 0.18398 0.0
C896 C 0.22788 0.88451 0.16882 0.0
C897 C 0.23396 0.91006 0.21423 0.0
C898 C 0.24017 0.87723 0.18456 0.0
C899 C 0.2499 0.8867 0.21444 0.0
H900 H 0.69661 0.94586 0.24022 0.0
H901 H 0.65953 0.88144 0.2837 0.0
H902 H 0.66149 0.86293 0.23411 0.0
H903 H 0.6702 0.86476 0.17639 0.0
H904 H 0.70568 0.92915 0.13297 0.0
H905 H 0.7082 0.94802 0.18461 0.0
C906 C 0.68914 0.92778 0.23902 0.0
C907 C 0.67766 0.91504 0.26547 0.0
C908 C 0.69003 0.91725 0.21036 0.0
C909 C 0.66831 0.89166 0.26358 0.0
C910 C 0.6694 0.88104 0.23521 0.0
C911 C 0.67891 0.88294 0.17859 0.0
C912 C 0.6877 0.89564 0.15119 0.0
C913 C 0.67972 0.89361 0.20818 0.0
C914 C 0.69878 0.91915 0.15394 0.0
C915 C 0.70012 0.9299 0.18335 0.0
H916 H 0.07314 0.77551 0.24324 0.0
H917 H 0.12836 0.7751 0.28385 0.0
H918 H 0.14921 0.7903 0.23506 0.0
H919 H 0.14993 0.79881 0.17867 0.0
H920 H 0.09465 0.79847 0.13702 0.0
H921 H 0.07574 0.78862 0.18849 0.0
C922 C 0.08987 0.7791 0.24163 0.0
C923 C 0.09901 0.77383 0.26701 0.0
C924 C 0.10171 0.78753 0.2132 0.0
C925 C 0.12077 0.77872 0.26456 0.0
C926 C 0.13275 0.78741 0.23663 0.0
C927 C 0.13405 0.7973 0.18104 0.0
C928 C 0.12366 0.79924 0.15397 0.0
C929 C 0.12313 0.79121 0.21046 0.0
C930 C 0.1029 0.79683 0.15744 0.0
C931 C 0.09207 0.79115 0.18683 0.0
H932 H 0.27005 0.36765 0.24686 0.0
H933 H 0.23535 0.29606 0.25851 0.0
H934 H 0.2109 0.29006 0.21363 0.0
H935 H 0.20149 0.30494 0.16796 0.0
H936 H 0.23744 0.37627 0.15489 0.0
H937 H 0.25903 0.38265 0.20369 0.0
C938 C 0.25703 0.35074 0.23979 0.0
C939 C 0.25471 0.33234 0.25587 0.0
C940 C 0.24319 0.34737 0.2137 0.0
C941 C 0.23765 0.31054 0.24642 0.0
C942 C 0.22362 0.30708 0.22076 0.0
C943 C 0.21368 0.32188 0.17636 0.0
C944 C 0.21786 0.34015 0.15813 0.0
C945 C 0.22649 0.32533 0.20384 0.0
C946 C 0.23396 0.36202 0.16874 0.0
C947 C 0.24636 0.36563 0.19647 0.0
H948 H 0.23966 0.34675 0.39897 0.0
H949 H 0.28196 0.3244 0.43187 0.0
H950 H 0.26712 0.32052 0.4856 0.0
H951 H 0.24035 0.32059 0.52205 0.0
H952 H 0.19846 0.34378 0.49063 0.0
H953 H 0.21472 0.34983 0.43728 0.0
C954 C 0.24579 0.34125 0.41796 0.0
C955 C 0.26178 0.33569 0.41123 0.0
C956 C 0.23711 0.33894 0.44895 0.0
C957 C 0.2696 0.3287 0.43622 0.0
C958 C 0.26109 0.32641 0.46701 0.0
C959 C 0.23511 0.32755 0.50391 0.0
C960 C 0.21821 0.33179 0.51052 0.0
C961 C 0.2446 0.33113 0.47349 0.0
C962 C 0.21128 0.34015 0.48618 0.0
C963 C 0.22063 0.3437 0.4557 0.0
H964 H 0.67501 0.92023 0.40802 0.0
H965 H 0.70081 0.98657 0.45109 0.0
H966 H 0.70964 0.97505 0.50007 0.0
H967 H 0.70995 0.94649 0.53081 0.0
H968 H 0.68279 0.87945 0.4902 0.0
H969 H 0.67524 0.89111 0.4396 0.0
C970 C 0.68251 0.93213 0.42816 0.0
C971 C 0.68715 0.95423 0.42588 0.0
C972 C 0.68751 0.92536 0.45651 0.0
C973 C 0.69694 0.96945 0.45217 0.0
C974 C 0.70209 0.96292 0.4802 0.0
C975 C 0.70213 0.9343 0.51104 0.0
C976 C 0.69655 0.91202 0.51444 0.0
C977 C 0.69738 0.94095 0.48263 0.0
C978 C 0.68719 0.89668 0.48818 0.0
C979 C 0.68274 0.90332 0.45939 0.0
H980 H 0.10662 0.80302 0.41364 0.0
H981 H 0.07118 0.73131 0.42522 0.0
H982 H 0.08661 0.73711 0.4789 0.0
H983 H 0.10863 0.76223 0.52344 0.0
H984 H 0.14423 0.83388 0.5135 0.0
H985 H 0.13061 0.82845 0.45799 0.0
C986 C 0.10236 0.78868 0.42787 0.0
C987 C 0.08758 0.76677 0.41546 0.0
C988 C 0.11132 0.79211 0.45895 0.0
C989 C 0.08239 0.74836 0.43414 0.0
C990 C 0.09121 0.75163 0.4649 0.0
C991 C 0.11339 0.77666 0.50909 0.0
C992 C 0.12706 0.79841 0.52252 0.0
C993 C 0.10542 0.77339 0.47764 0.0
C994 C 0.13362 0.81699 0.50357 0.0
C995 C 0.12575 0.81387 0.47198 0.0
H996 H 0.35131 0.11966 0.74318 0.0
H997 H 0.35632 0.06579 0.77999 0.0
H998 H 0.35937 0.0809 0.83461 0.0
H999 H 0.36222 0.11008 0.87135 0.0
H1000 H 0.35316 0.16189 0.83598 0.0
H1001 H 0.35064 0.1472 0.78122 0.0
C1002 C 0.353 0.11125 0.76324 0.0
C1003 C 0.35374 0.09176 0.75765 0.0
C1004 C 0.35422 0.11974 0.79472 0.0
C1005 C 0.35565 0.0808 0.78376 0.0
C1006 C 0.35747 0.08946 0.81496 0.0
C1007 C 0.35908 0.11793 0.85198 0.0
C1008 C 0.35792 0.13717 0.85814 0.0
C1009 C 0.35688 0.10897 0.82069 0.0
C1010 C 0.35454 0.14732 0.83214 0.0
C1011 C 0.35293 0.13884 0.80075 0.0
H1012 H 0.89651 0.22062 0.74835 0.0
H1013 H 0.96052 0.27452 0.78178 0.0
H1014 H 0.95125 0.26169 0.83644 0.0
H1015 H 0.92437 0.23663 0.87508 0.0
H1016 H 0.85948 0.18421 0.84256 0.0
H1017 H 0.86996 0.19456 0.78705 0.0
C1018 C 0.9085 0.22946 0.76754 0.0
C1019 C 0.92912 0.24861 0.761 0.0
C1020 C 0.90295 0.2222 0.79904 0.0
C1021 C 0.94446 0.25985 0.78617 0.0
C1022 C 0.9392 0.25251 0.81744 0.0
C1023 C 0.91248 0.22749 0.85587 0.0
C1024 C 0.89109 0.20985 0.86303 0.0
C1025 C 0.91837 0.23396 0.82421 0.0
C1026 C 0.87609 0.19778 0.83775 0.0
C1027 C 0.88201 0.20382 0.80601 0.0
H1028 H 0.7509 0.64193 0.72261 0.0
H1029 H 0.75612 0.70317 0.75835 0.0
H1030 H 0.77374 0.70199 0.80748 0.0
H1031 H 0.78573 0.68247 0.84148 0.0
H1032 H 0.77799 0.61981 0.80703 0.0
H1033 H 0.76405 0.62313 0.75584 0.0
C1034 C 0.75601 0.65512 0.74103 0.0
C1035 C 0.75203 0.67252 0.73687 0.0
C1036 C 0.76586 0.65418 0.7694 0.0
C1037 C 0.75883 0.68948 0.761 0.0
C1038 C 0.76894 0.68885 0.7891 0.0
C1039 C 0.781 0.66952 0.82279 0.0
C1040 C 0.78287 0.65088 0.82832 0.0
C1041 C 0.77221 0.67108 0.79376 0.0
C1042 C 0.77708 0.63452 0.80348 0.0
C1043 C 0.76882 0.63625 0.77424 0.0
H1044 H 0.75128 0.66476 0.59288 0.0
H1045 H 0.7796 0.73566 0.58105 0.0
H1046 H 0.79894 0.73414 0.5334 0.0
H1047 H 0.80567 0.71217 0.4929 0.0
H1048 H 0.77761 0.64136 0.50452 0.0
H1049 H 0.76079 0.64343 0.55488 0.0
C1050 C 0.76175 0.67988 0.57991 0.0
C1051 C 0.76375 0.70023 0.59023 0.0
C1052 C 0.773 0.67893 0.55265 0.0
C1053 C 0.77767 0.71976 0.57353 0.0
C1054 C 0.78875 0.71892 0.54627 0.0
C1055 C 0.79612 0.69728 0.50676 0.0
C1056 C 0.79278 0.67663 0.495 0.0
C1057 C 0.78625 0.69854 0.53534 0.0
C1058 C 0.78057 0.65748 0.51323 0.0
C1059 C 0.77075 0.65861 0.54183 0.0
H1060 H 0.32762 0.10465 0.6155 0.0
H1061 H 0.36205 0.07244 0.58163 0.0
H1062 H 0.3666 0.08859 0.52939 0.0
H1063 H 0.3591 0.11001 0.49233 0.0
H1064 H 0.32453 0.14216 0.52506 0.0
H1065 H 0.32217 0.1283 0.57897 0.0
C1066 C 0.3362 0.10125 0.59674 0.0
C1067 C 0.34427 0.08715 0.60245 0.0
C1068 C 0.3388 0.11063 0.56659 0.0
C1069 C 0.35556 0.08312 0.57794 0.0
C1070 C 0.35819 0.09235 0.54799 0.0
C1071 C 0.35111 0.11404 0.51133 0.0
C1072 C 0.34175 0.12681 0.50473 0.0
C1073 C 0.3496 0.10583 0.54193 0.0
C1074 C 0.33187 0.13235 0.52964 0.0
C1075 C 0.33038 0.1243 0.56035 0.0
H1076 H 0.90567 0.28435 0.57986 0.0
H1077 H 0.90973 0.23155 0.62293 0.0
H1078 H 0.89138 0.2068 0.57626 0.0
H1079 H 0.87945 0.20216 0.52046 0.0
H1080 H 0.87603 0.25489 0.47618 0.0
H1081 H 0.88871 0.2776 0.52622 0.0
C1082 C 0.90218 0.2673 0.57929 0.0
C1083 C 0.90946 0.25999 0.6046 0.0
C1084 C 0.89193 0.2532 0.55204 0.0
C1085 C 0.90463 0.23776 0.60357 0.0
C1086 C 0.89413 0.22356 0.57687 0.0
C1087 C 0.88071 0.21828 0.52199 0.0
C1088 C 0.87695 0.22689 0.49454 0.0
C1089 C 0.88843 0.23138 0.55053 0.0
C1090 C 0.87906 0.248 0.4969 0.0
C1091 C 0.88637 0.26101 0.52547 0.0
H1092 H 0.34118 0.25798 0.60473 0.0
H1093 H 0.27057 0.22695 0.59818 0.0
H1094 H 0.26966 0.20649 0.54894 0.0
H1095 H 0.28926 0.19941 0.50587 0.0
H1096 H 0.3599 0.231 0.51218 0.0
H1097 H 0.36038 0.24883 0.5638 0.0
C1098 C 0.32557 0.24667 0.59262 0.0
C1099 C 0.30601 0.24421 0.60488 0.0
C1100 C 0.32516 0.23497 0.56437 0.0
C1101 C 0.28588 0.22924 0.58916 0.0
C1102 C 0.28534 0.21754 0.56098 0.0
C1103 C 0.30472 0.21006 0.51873 0.0
C1104 C 0.32451 0.21395 0.50518 0.0
C1105 C 0.30492 0.22058 0.5481 0.0
C1106 C 0.34441 0.22754 0.52223 0.0
C1107 C 0.34473 0.23793 0.55159 0.0
H1108 H 0.73364 0.09479 0.5859 0.0
H1109 H 0.78268 0.08159 0.61928 0.0
H1110 H 0.8044 0.09785 0.57139 0.0
H1111 H 0.80815 0.11325 0.51822 0.0
H1112 H 0.75885 0.12578 0.48425 0.0
H1113 H 0.7386 0.11244 0.53425 0.0
C1114 C 0.74915 0.09561 0.58284 0.0
C1115 C 0.7564 0.0868 0.60606 0.0
C1116 C 0.7615 0.10482 0.55509 0.0
C1117 C 0.77661 0.08811 0.60173 0.0
C1118 C 0.78908 0.09742 0.57433 0.0
C1119 C 0.79323 0.11353 0.52208 0.0
C1120 C 0.78499 0.12049 0.49763 0.0
C1121 C 0.78152 0.10551 0.55063 0.0
C1122 C 0.76543 0.12037 0.50271 0.0
C1123 C 0.75385 0.11273 0.53123 0.0
H1124 H 0.90837 0.63899 0.58366 0.0
H1125 H 0.95718 0.70998 0.58369 0.0
H1126 H 0.93818 0.71437 0.53913 0.0
H1127 H 0.90918 0.69787 0.49795 0.0
H1128 H 0.86045 0.62702 0.49664 0.0
H1129 H 0.87751 0.62286 0.54442 0.0
C1130 C 0.9148 0.65542 0.57395 0.0
C1131 C 0.93433 0.67407 0.5868 0.0
C1132 C 0.9037 0.6579 0.54827 0.0
C1133 C 0.94227 0.6953 0.57421 0.0
C1134 C 0.9314 0.69786 0.54871 0.0
C1135 C 0.90216 0.68157 0.50838 0.0
C1136 C 0.8837 0.66276 0.49373 0.0
C1137 C 0.9123 0.67926 0.5353 0.0
C1138 C 0.87457 0.64177 0.50765 0.0
C1139 C 0.88447 0.63936 0.53474 0.0
H1140 H 0.91102 0.64032 0.73107 0.0
H1141 H 0.96024 0.70952 0.75449 0.0
H1142 H 0.93972 0.7086 0.80238 0.0
H1143 H 0.90866 0.68737 0.83899 0.0
H1144 H 0.85949 0.61828 0.81462 0.0
H1145 H 0.87885 0.62008 0.7653 0.0
C1146 C 0.91727 0.65521 0.74666 0.0
C1147 C 0.93726 0.67486 0.73954 0.0
C1148 C 0.90528 0.65463 0.7738 0.0
C1149 C 0.94493 0.69415 0.75958 0.0
C1150 C 0.93321 0.69363 0.78694 0.0
C1151 C 0.90211 0.67281 0.82267 0.0
C1152 C 0.88267 0.65274 0.83045 0.0
C1153 C 0.91348 0.67387 0.79447 0.0
C1154 C 0.87424 0.63402 0.80901 0.0
C1155 C 0.88543 0.63495 0.78096 0.0
H1156 H 0.36579 0.25894 0.74424 0.0
H1157 H 0.30506 0.25424 0.77186 0.0
H1158 H 0.30564 0.23813 0.82245 0.0
H1159 H 0.32483 0.22819 0.86046 0.0
H1160 H 0.38716 0.23597 0.83453 0.0
H1161 H 0.38402 0.24718 0.78124 0.0
C1162 C 0.35255 0.2542 0.76117 0.0
C1163 C 0.33551 0.258 0.75438 0.0
C1164 C 0.3532 0.24534 0.79047 0.0
C1165 C 0.31848 0.2517 0.77659 0.0
C1166 C 0.31878 0.24245 0.80552 0.0
C1167 C 0.33772 0.23227 0.84313 0.0
C1168 C 0.35629 0.23139 0.85173 0.0
C1169 C 0.3363 0.23965 0.81298 0.0
C1170 C 0.37255 0.23622 0.82864 0.0
C1171 C 0.37092 0.24294 0.79821 0.0
H1172 H 0.77318 0.12708 0.74712 0.0
H1173 H 0.7278 0.05812 0.77112 0.0
H1174 H 0.74277 0.0662 0.82534 0.0
H1175 H 0.76709 0.09295 0.86682 0.0
H1176 H 0.81247 0.16202 0.84465 0.0
H1177 H 0.79951 0.15372 0.78859 0.0
C1178 C 0.76666 0.11382 0.76418 0.0
C1179 C 0.7492 0.09209 0.7551 0.0
C1180 C 0.77534 0.11857 0.79559 0.0
C1181 C 0.74109 0.07504 0.77744 0.0
C1182 C 0.74964 0.07961 0.80851 0.0
C1183 C 0.77414 0.10619 0.84967 0.0
C1184 C 0.79036 0.12811 0.85978 0.0
C1185 C 0.76648 0.10134 0.81794 0.0
C1186 C 0.79984 0.14503 0.8373 0.0
C1187 C 0.79235 0.1403 0.80538 0.0
H1188 H 0.04676 0.33179 0.99146 0.0
H1189 H 0.07499 0.398 0.03606 0.0
H1190 H 0.10585 0.39609 0.05625 0.0
H1191 H 0.12177 0.37354 0.0681 0.0
H1192 H 0.09274 0.30659 0.02654 0.0
H1193 H 0.06579 0.31114 -0.00261 0.0
C1194 C 0.05985 0.34596 0.00511 0.0
C1195 C 0.05828 0.36483 0.01274 0.0
C1196 C 0.07747 0.34462 0.0172 0.0
C1197 C 0.07554 0.38312 0.03022 0.0
C1198 C 0.09325 0.38207 0.04179 0.0
C1199 C 0.10988 0.36018 0.05196 0.0
C1200 C 0.10907 0.33969 0.04969 0.0
C1201 C 0.09395 0.3626 0.03642 0.0
C1202 C 0.09376 0.32256 0.02855 0.0
C1203 C 0.07815 0.32506 0.01225 0.0
H1204 H 0.62873 0.69482 0.97413 0.0
H1205 H 0.67232 0.68815 0.03747 0.0
H1206 H 0.68425 0.72462 0.06279 0.0
H1207 H 0.67986 0.75661 0.07065 0.0
H1208 H 0.63564 0.76372 0.00995 0.0
H1209 H 0.62663 0.72912 0.9794 0.0
C1210 C 0.64105 0.70153 0.99316 0.0
C1211 C 0.64942 0.68864 0.00414 0.0
C1212 C 0.64765 0.72253 0.00813 0.0
C1213 C 0.66539 0.69755 0.02883 0.0
C1214 C 0.67227 0.71844 0.04333 0.0
C1215 C 0.66846 0.75069 0.05043 0.0
C1216 C 0.65823 0.76239 0.0426 0.0
C1217 C 0.66312 0.73077 0.03373 0.0
C1218 C 0.64367 0.75486 0.01626 0.0
C1219 C 0.63845 0.73505 -0.00097 0.0
H1220 H 0.29368 0.97597 0.0149 0.0
H1221 H 0.33068 0.94323 0.01393 0.0
H1222 H 0.29798 0.90829 0.02974 0.0
H1223 H 0.26048 0.88863 0.0508 0.0
H1224 H 0.22466 0.92235 0.05843 0.0
H1225 H 0.25487 0.9551 0.03242 0.0
C1226 C 0.29441 0.96104 0.01759 0.0
C1227 C 0.31455 0.96216 0.01346 0.0
C1228 C 0.27568 0.94118 0.02787 0.0
C1229 C 0.31539 0.9428 0.01731 0.0
C1230 C 0.2967 0.92281 0.02629 0.0
C1231 C 0.25905 0.90287 0.04564 0.0
C1232 C 0.24033 0.90305 0.05577 0.0
C1233 C 0.27696 0.92199 0.03253 0.0
C1234 C 0.23881 0.9218 0.05014 0.0
C1235 C 0.25618 0.94057 0.03567 0.0
H1236 H 0.33863 0.05785 0.02455 0.0
H1237 H 0.40871 0.08777 0.01333 0.0
H1238 H 0.41193 0.12176 0.99381 0.0
H1239 H 0.39419 0.14081 0.97302 0.0
H1240 H 0.3238 0.10947 0.97859 0.0
H1241 H 0.32126 0.07849 0.00787 0.0
C1242 C 0.35466 0.07199 0.01844 0.0
C1243 C 0.37339 0.07022 0.02021 0.0
C1244 C 0.35628 0.09125 0.0062 0.0
C1245 C 0.39402 0.08862 0.01192 0.0
C1246 C 0.39588 0.10808 0.00077 0.0
C1247 C 0.37844 0.12758 0.98176 0.0
C1248 C 0.35925 0.12754 0.97438 0.0
C1249 C 0.37705 0.10932 -0.00308 0.0
C1250 C 0.33878 0.10998 0.9847 0.0
C1251 C 0.33734 0.09218 0.00104 0.0
H1252 H 0.95581 0.30568 0.02568 0.0
H1253 H 0.9243 0.33398 0.97454 0.0
H1254 H 0.89461 0.29652 0.9575 0.0
H1255 H 0.88063 0.25629 0.9504 0.0
H1256 H 0.91191 0.22764 0.00059 0.0
H1257 H 0.93824 0.26446 0.02551 0.0
C1258 C 0.94227 0.30362 0.01122 0.0
C1259 C 0.94254 0.32266 0.00089 0.0
C1260 C 0.92515 0.28193 0.0014 0.0
C1261 C 0.92468 0.31968 0.98258 0.0
C1262 C 0.90765 0.29823 0.97277 0.0
C1263 C 0.89274 0.25805 0.96772 0.0
C1264 C 0.89442 0.23944 0.97375 0.0
C1265 C 0.90811 0.27931 0.98115 0.0
C1266 C 0.91021 0.24176 -0.00404 0.0
C1267 C 0.92545 0.26287 0.0098 0.0
H1268 H 0.72248 0.66847 0.0004 0.0
H1269 H 0.68157 0.59614 -0.00311 0.0
H1270 H 0.71188 0.59363 0.97406 0.0
H1271 H 0.74786 0.61205 0.94753 0.0
H1272 H 0.78721 0.68418 0.94627 0.0
H1273 H 0.75995 0.68684 0.97909 0.0
C1274 C 0.72032 0.65215 -0.00473 0.0
C1275 C 0.6997 0.63253 -4e-05 0.0
C1276 C 0.73758 0.65084 0.98116 0.0
C1277 C 0.6972 0.61151 0.99315 0.0
C1278 C 0.71452 0.61005 0.98008 0.0
C1279 C 0.75073 0.6283 0.95548 0.0
C1280 C 0.76947 0.64791 0.94497 0.0
C1281 C 0.7345 0.6296 0.97292 0.0
C1282 C 0.77293 0.66893 0.95453 0.0
C1283 C 0.75727 0.67041 0.97298 0.0
H1284 H 0.95828 0.6733 0.00393 0.0
H1285 H 0.92474 0.60105 -0.00168 0.0
H1286 H 0.89223 0.59863 0.9751 0.0
H1287 H 0.87562 0.61712 0.94925 0.0
H1288 H 0.91071 0.68926 0.94864 0.0
H1289 H 0.94013 0.69183 0.98201 0.0
C1290 C 0.94365 0.65705 -0.00175 0.0
C1291 C 0.94388 0.63738 0.00262 0.0
C1292 C 0.92534 0.65583 0.98371 0.0
C1293 C 0.92496 0.61641 -0.00513 0.0
C1294 C 0.90639 0.61502 0.98162 0.0
C1295 C 0.88936 0.63336 0.95745 0.0
C1296 C 0.89099 0.65298 0.94706 0.0
C1297 C 0.90667 0.63462 0.97496 0.0
C1298 C 0.9091 0.67399 0.95686 0.0
C1299 C 0.92597 0.67543 0.97561 0.0
H1300 H 0.34661 0.31432 -0.00365 0.0
H1301 H 0.4159 0.34582 0.01832 0.0
H1302 H 0.41418 0.31078 0.00445 0.0
H1303 H 0.39422 0.27304 0.97819 0.0
H1304 H 0.32506 0.24173 0.95597 0.0
H1305 H 0.32531 0.27451 0.97866 0.0
C1306 C 0.36125 0.3134 -0.00146 0.0
C1307 C 0.38143 0.33275 0.00773 0.0
C1308 C 0.36015 0.29318 0.99055 0.0
C1309 C 0.40018 0.33122 0.01104 0.0
C1310 C 0.39923 0.31118 0.00306 0.0
C1311 C 0.37904 0.27306 0.97953 0.0
C1312 C 0.35969 0.25511 0.96528 0.0
C1313 C 0.37947 0.29226 0.99179 0.0
C1314 C 0.34016 0.25543 0.96678 0.0
C1315 C 0.34035 0.27426 0.97942 0.0
H1316 H 0.70016 0.04657 0.0084 0.0
H1317 H 0.67162 0.08273 0.97211 0.0
H1318 H 0.7083 0.1147 0.96166 0.0
H1319 H 0.74791 0.13008 0.95556 0.0
H1320 H 0.77653 0.09358 0.98956 0.0
H1321 H 0.7406 0.0645 0.00936 0.0
C1322 C 0.70197 0.06155 -0.00142 0.0
C1323 C 0.68311 0.06204 0.99045 0.0
C1324 C 0.72318 0.07991 0.99243 0.0
C1325 C 0.68579 0.08174 0.97825 0.0
C1326 C 0.70679 0.10008 0.97228 0.0
C1327 C 0.74635 0.11609 0.96826 0.0
C1328 C 0.76474 0.11386 0.97096 0.0
C1329 C 0.72553 0.09906 0.97832 0.0
C1330 C 0.76264 0.09575 0.98745 0.0
C1331 C 0.74202 0.07894 -0.00172 0.0
H1332 H 0.62163 0.92825 0.01551 0.0
H1333 H 0.68467 0.96661 0.96956 0.0
H1334 H 0.69412 0.93938 0.98469 0.0
H1335 H 0.6868 0.90798 0.01815 0.0
H1336 H 0.6247 0.8709 0.06629 0.0
H1337 H 0.61226 0.8938 0.04247 0.0
C1338 C 0.6373 0.93048 0.00838 0.0
C1339 C 0.65257 0.94969 0.99196 0.0
C1340 C 0.64276 0.91487 0.01748 0.0
C1341 C 0.67268 0.95214 0.98253 0.0
C1342 C 0.67813 0.93655 0.99118 0.0
C1343 C 0.67022 0.90438 0.02223 0.0
C1344 C 0.65654 0.8877 0.04353 0.0
C1345 C 0.6636 0.91827 0.00956 0.0
C1346 C 0.6353 0.88347 0.04951 0.0
C1347 C 0.62834 0.89677 0.03627 0.0
H1348 H 0.06695 0.6846 0.01048 0.0
H1349 H 0.02506 0.71054 0.99369 0.0
H1350 H 0.05449 0.74805 0.01212 0.0
H1351 H 0.09072 0.77243 0.03862 0.0
H1352 H 0.13309 0.74684 0.05337 0.0
H1353 H 0.10516 0.71037 0.02949 0.0
C1354 C 0.06442 0.69856 0.01051 0.0
C1355 C 0.04384 0.69483 0.00123 0.0
C1356 C 0.08151 0.72012 0.02068 0.0
C1357 C 0.04079 0.71305 0.00082 0.0
C1358 C 0.05757 0.73447 0.01145 0.0
C1359 C 0.09398 0.75899 0.03576 0.0
C1360 C 0.11384 0.7622 0.04767 0.0
C1361 C 0.07781 0.73808 0.02216 0.0
C1362 C 0.11798 0.74476 0.04401 0.0
C1363 C 0.10193 0.72386 0.03071 0.0
H1364 H 0.28266 0.33435 0.97937 0.0
H1365 H 0.32172 0.40327 0.01463 0.0
H1366 H 0.28908 0.40072 0.03774 0.0
H1367 H 0.25089 0.37733 0.05527 0.0
H1368 H 0.21196 0.30804 0.02249 0.0
H1369 H 0.24277 0.3125 0.99026 0.0
C1370 C 0.28396 0.34894 0.99157 0.0
C1371 C 0.30474 0.36881 -0.00417 0.0
C1372 C 0.26509 0.34728 0.00533 0.0
C1373 C 0.30604 0.38763 0.01141 0.0
C1374 C 0.28735 0.38621 0.02468 0.0
C1375 C 0.24901 0.3634 0.04034 0.0
C1376 C 0.22933 0.34236 0.04146 0.0
C1377 C 0.267 0.36589 0.02286 0.0
C1378 C 0.22693 0.32444 0.02188 0.0
C1379 C 0.24466 0.32692 0.0038 0.0
H1380 H 0.72745 0.67905 0.31265 0.0
H1381 H 0.7532 0.74398 0.36034 0.0
H1382 H 0.78232 0.74104 0.38515 0.0
H1383 H 0.79725 0.71791 0.39916 0.0
H1384 H 0.77032 0.65211 0.35418 0.0
H1385 H 0.74547 0.65783 0.32169 0.0
C1386 C 0.73965 0.69274 0.32802 0.0
C1387 C 0.73786 0.71154 0.33503 0.0
C1388 C 0.75618 0.69078 0.34275 0.0
C1389 C 0.75396 0.72919 0.35481 0.0
C1390 C 0.77065 0.72753 0.36906 0.0
C1391 C 0.78622 0.705 0.38178 0.0
C1392 C 0.78545 0.68452 0.37937 0.0
C1393 C 0.77143 0.70807 0.36409 0.0
C1394 C 0.77133 0.66807 0.35642 0.0
C1395 C 0.75691 0.67123 0.33811 0.0
H1396 H 0.29151 0.03298 0.32803 0.0
H1397 H 0.34845 0.03385 0.36431 0.0
H1398 H 0.36292 0.07138 0.38779 0.0
H1399 H 0.35711 0.10163 0.40417 0.0
H1400 H 0.29975 0.10082 0.37102 0.0
H1401 H 0.2879 0.06587 0.3395 0.0
C1402 C 0.30726 0.04157 0.34057 0.0
C1403 C 0.3187 0.03047 0.34487 0.0
C1404 C 0.31535 0.06312 0.35465 0.0
C1405 C 0.33913 0.04184 0.36109 0.0
C1406 C 0.34746 0.06334 0.37451 0.0
C1407 C 0.34228 0.09401 0.38939 0.0
C1408 C 0.3292 0.10352 0.38987 0.0
C1409 C 0.33537 0.07378 0.37235 0.0
C1410 C 0.31006 0.09372 0.37075 0.0
C1411 C 0.30322 0.07368 0.35306 0.0
H1412 H 0.98468 0.27689 0.35269 0.0
H1413 H 0.96059 0.32097 0.33874 0.0
H1414 H 0.92389 0.29188 0.35601 0.0
H1415 H 0.89987 0.25539 0.38064 0.0
H1416 H 0.92384 0.21109 0.39331 0.0
H1417 H 0.95916 0.23846 0.37012 0.0
C1418 C 0.97131 0.28 0.35316 0.0
C1419 C 0.97535 0.30112 0.34501 0.0
C1420 C 0.95022 0.26311 0.36268 0.0
C1421 C 0.95786 0.30486 0.34508 0.0
C1422 C 0.9369 0.28826 0.355 0.0
C1423 C 0.91267 0.25156 0.37751 0.0
C1424 C 0.90932 0.23132 0.3887 0.0
C1425 C 0.93303 0.26751 0.36456 0.0
C1426 C 0.92596 0.22645 0.38455 0.0
C1427 C 0.94626 0.24222 0.37168 0.0
H1428 H 0.00664 0.39364 0.36212 0.0
H1429 H 0.07528 0.41956 0.34262 0.0
H1430 H 0.07959 0.4543 0.32427 0.0
H1431 H 0.06251 0.47446 0.30557 0.0
H1432 H 0.99312 0.44679 0.31885 0.0
H1433 H 0.99042 0.41595 0.34867 0.0
C1434 C 0.02264 0.40711 0.35453 0.0
C1435 C 0.04057 0.40396 0.35343 0.0
C1436 C 0.02481 0.42676 0.34291 0.0
C1437 C 0.06117 0.42149 0.34334 0.0
C1438 C 0.06366 0.44137 0.33287 0.0
C1439 C 0.04704 0.46216 0.31626 0.0
C1440 C 0.02813 0.463 0.31074 0.0
C1441 C 0.04543 0.44384 0.33148 0.0
C1442 C 0.00794 0.44664 0.32356 0.0
C1443 C 0.00638 0.42887 0.34012 0.0
H1444 H 0.59683 0.66172 0.33401 0.0
H1445 H 0.65185 0.65275 0.32064 0.0
H1446 H 0.6267 0.61322 0.30618 0.0
H1447 H 0.58974 0.58253 0.29085 0.0
H1448 H 0.53475 0.59163 0.29863 0.0
H1449 H 0.55895 0.62951 0.32269 0.0
C1450 C 0.60325 0.65101 0.32834 0.0
C1451 C 0.6262 0.66024 0.32802 0.0
C1452 C 0.58865 0.62828 0.31925 0.0
C1453 C 0.63429 0.64617 0.3206 0.0
C1454 C 0.61992 0.62352 0.31246 0.0
C1455 C 0.583 0.59259 0.29893 0.0
C1456 C 0.56058 0.58438 0.29363 0.0
C1457 C 0.59716 0.61457 0.31092 0.0
C1458 C 0.55192 0.59758 0.30322 0.0
C1459 C 0.56583 0.6193 0.31647 0.0
H1460 H 0.35707 0.94232 0.34048 0.0
H1461 H 0.39123 0.01388 0.35964 0.0
H1462 H 0.42498 0.01826 0.33747 0.0
H1463 H 0.44294 1.0024 0.30506 0.0
H1464 H 0.40912 0.93091 0.28649 0.0
H1465 H 0.37731 0.92574 0.31667 0.0
C1466 C 0.37203 0.9588 0.34033 0.0
C1467 C 0.37155 0.97778 0.35109 0.0
C1468 C 0.39144 0.96121 0.32761 0.0
C1469 C 0.39112 0.999 0.3513 0.0
C1470 C 0.41043 1.00155 0.3385 0.0
C1471 C 0.42886 0.98567 0.3086 0.0
C1472 C 0.42824 0.96708 0.29357 0.0
C1473 C 0.41054 0.98288 0.32554 0.0
C1474 C 0.40998 0.94544 0.29813 0.0
C1475 C 0.39169 0.94251 0.31503 0.0
H1476 H 0.60972 0.98279 0.35371 0.0
H1477 H 0.60439 0.92785 0.29556 0.0
H1478 H 0.57127 0.92208 0.26964 0.0
H1479 H 0.54687 0.93575 0.25833 0.0
H1480 H 0.55312 0.99209 0.31308 0.0
H1481 H 0.58247 0.99399 0.34606 0.0
C1482 C 0.60106 0.9693 0.3358 0.0
C1483 C 0.60969 0.95595 0.3263 0.0
C1484 C 0.58219 0.96637 0.32038 0.0
C1485 C 0.59829 0.93856 0.30302 0.0
C1486 C 0.57931 0.93521 0.28819 0.0
C1487 C 0.55424 0.94796 0.2782 0.0
C1488 C 0.54786 0.9636 0.28368 0.0
C1489 C 0.57154 0.94943 0.29597 0.0
C1490 C 0.55765 0.97968 0.30893 0.0
C1491 C 0.57457 0.98091 0.32744 0.0
H1492 H 0.03035 0.64903 0.35809 0.0
H1493 H 0.05278 0.68603 0.27114 0.0
H1494 H 0.05453 0.65556 0.24477 0.0
H1495 H 0.04893 0.61839 0.24538 0.0
H1496 H 0.02406 0.57915 0.32971 0.0
H1497 H 0.02481 0.61083 0.35858 0.0
C1498 C 0.03562 0.65038 0.33338 0.0
C1499 C 0.04129 0.66979 0.31659 0.0
C1500 C 0.03636 0.63252 0.31802 0.0
C1501 C 0.04811 0.67127 0.2846 0.0
C1502 C 0.04924 0.65389 0.26948 0.0
C1503 C 0.04351 0.61665 0.27006 0.0
C1504 C 0.03602 0.5963 0.28521 0.0
C1505 C 0.04325 0.63444 0.28584 0.0
C1506 C 0.02981 0.59462 0.31751 0.0
C1507 C 0.03007 0.61265 0.33386 0.0
H1508 H 0.36614 0.40961 0.35115 0.0
H1509 H 0.35535 0.35578 0.28494 0.0
H1510 H 0.39152 0.37977 0.26213 0.0
H1511 H 0.42494 0.41649 0.25799 0.0
H1512 H 0.43591 0.47157 0.32104 0.0
H1513 H 0.40133 0.44652 0.34883 0.0
C1514 C 0.37179 0.40312 0.33188 0.0
C1515 C 0.35788 0.38096 0.31956 0.0
C1516 C 0.39269 0.41719 0.31844 0.0
C1517 C 0.36551 0.3728 0.29466 0.0
C1518 C 0.38627 0.38648 0.28163 0.0
C1519 C 0.41984 0.42296 0.27803 0.0
C1520 C 0.43273 0.44584 0.28726 0.0
C1521 C 0.39978 0.40876 0.29293 0.0
C1522 C 0.42622 0.45399 0.31358 0.0
C1523 C 0.40637 0.43972 0.32919 0.0
H1524 H 0.27625 0.25421 0.34873 0.0
H1525 H 0.33979 0.28629 0.30335 0.0
H1526 H 0.34714 0.25916 0.32574 0.0
H1527 H 0.33798 0.23036 0.36519 0.0
H1528 H 0.2747 0.19869 0.41111 0.0
H1529 H 0.26461 0.2213 0.38107 0.0
C1530 C 0.29155 0.25503 0.34329 0.0
C1531 C 0.30762 0.27252 0.32495 0.0
C1532 C 0.29576 0.2395 0.35648 0.0
C1533 C 0.3272 0.27312 0.31765 0.0
C1534 C 0.33146 0.25764 0.33053 0.0
C1535 C 0.32168 0.22783 0.36773 0.0
C1536 C 0.30721 0.21309 0.3906 0.0
C1537 C 0.31621 0.24128 0.35094 0.0
C1538 C 0.2862 0.21012 0.39385 0.0
C1539 C 0.28049 0.22314 0.37685 0.0
H1540 H 0.73654 0.02801 0.32683 0.0
H1541 H 0.68734 0.04562 0.33981 0.0
H1542 H 0.71528 0.08248 0.36237 0.0
H1543 H 0.75242 0.1072 0.38583 0.0
H1544 H 0.80139 0.0893 0.37317 0.0
H1545 H 0.77506 0.05545 0.3422 0.0
C1546 C 0.73202 0.04008 0.33408 0.0
C1547 C 0.70986 0.03397 0.33222 0.0
C1548 C 0.74816 0.06121 0.3471 0.0
C1549 C 0.70428 0.04988 0.34117 0.0
C1550 C 0.72023 0.07093 0.3542 0.0
C1551 C 0.75745 0.09617 0.37548 0.0
C1552 C 0.77872 0.10061 0.382 0.0
C1553 C 0.74205 0.07645 0.35834 0.0
C1554 C 0.78516 0.08633 0.36832 0.0
C1555 C 0.77001 0.0668 0.35096 0.0
H1556 H 0.95743 0.68653 0.30943 0.0
H1557 H 0.9969 0.74584 0.37009 0.0
H1558 H 0.96384 0.73998 0.39668 0.0
H1559 H 0.92458 0.7153 0.40785 0.0
H1560 H 0.88507 0.65505 0.34942 0.0
H1561 H 0.91706 0.66436 0.31617 0.0
C1562 C 0.95877 0.69838 0.3281 0.0
C1563 C 0.97971 0.71636 0.33811 0.0
C1564 C 0.93964 0.69475 0.34372 0.0
C1565 C 0.98108 0.73167 0.36215 0.0
C1566 C 0.96216 0.72836 0.37742 0.0
C1567 C 0.9229 0.7045 0.38735 0.0
C1568 C 0.9026 0.68443 0.38125 0.0
C1569 C 0.94148 0.70955 0.36915 0.0
C1570 C 0.90051 0.67066 0.35448 0.0
C1571 C 0.91887 0.67584 0.33574 0.0
H1572 H 0.41203 0.0572 0.69472 0.0
H1573 H 0.37454 0.98997 0.65288 0.0
H1574 H 0.40227 0.9824 0.67149 0.0
H1575 H 0.4341 0.99305 0.70665 0.0
H1576 H 0.47085 0.05986 0.74969 0.0
H1577 H 0.44681 0.06962 0.72303 0.0
C1578 C 0.41008 0.04099 0.68927 0.0
C1579 C 0.39103 0.02404 0.67299 0.0
C1580 C 0.42598 0.03668 0.70029 0.0
C1581 C 0.38894 0.00326 0.66563 0.0
C1582 C 0.40478 0.99889 0.67633 0.0
C1583 C 0.43731 0.00998 0.7092 0.0
C1584 C 0.45411 0.0257 0.73018 0.0
C1585 C 0.42298 0.01522 0.6946 0.0
C1586 C 0.45795 0.0475 0.73368 0.0
C1587 C 0.4441 0.053 0.71868 0.0
H1588 H 0.95125 0.34898 0.69992 0.0
H1589 H 0.01134 0.37688 0.64587 0.0
H1590 H 0.02098 0.4148 0.66254 0.0
H1591 H 0.01488 0.43958 0.69894 0.0
H1592 H 0.95546 0.41131 0.75429 0.0
H1593 H 0.9427 0.37409 0.73009 0.0
C1594 C 0.96632 0.36337 0.69144 0.0
C1595 C 0.98075 0.36009 0.6722 0.0
C1596 C 0.97184 0.3851 0.70132 0.0
C1597 C 1.00002 0.37891 0.66095 0.0
C1598 C 1.00558 0.40063 0.67051 0.0
C1599 C 0.99879 0.42537 0.70469 0.0
C1600 C 0.98605 0.42804 0.72819 0.0
C1601 C 0.99195 0.40389 0.69151 0.0
C1602 C 0.96541 0.40953 0.73605 0.0
C1603 C 0.95825 0.38825 0.7225 0.0
H1604 H 0.65951 0.61174 0.66498 0.0
H1605 H 0.63183 0.65295 0.65374 0.0
H1606 H 0.59609 0.6226 0.67192 0.0
H1607 H 0.57408 0.586 0.69717 0.0
H1608 H 0.60143 0.54439 0.70676 0.0
H1609 H 0.63572 0.57291 0.68235 0.0
C1610 C 0.64554 0.6139 0.66609 0.0
C1611 C 0.64833 0.6346 0.65849 0.0
C1612 C 0.62498 0.59629 0.6762 0.0
C1613 C 0.63007 0.63715 0.65953 0.0
C1614 C 0.60966 0.61984 0.67003 0.0
C1615 C 0.58737 0.583 0.69305 0.0
C1616 C 0.58531 0.5632 0.70374 0.0
C1617 C 0.60709 0.59956 0.67924 0.0
C1618 C 0.60258 0.55941 0.69838 0.0
C1619 C 0.62228 0.57583 0.68479 0.0
H1620 H 0.73187 0.75681 0.66645 0.0
H1621 H 0.66168 0.71286 0.6769 0.0
H1622 H 0.65583 0.74208 0.65854 0.0
H1623 H 0.67051 0.77839 0.63298 0.0
H1624 H 0.74075 0.82267 0.62406 0.0
H1625 H 0.74684 0.79543 0.64921 0.0
C1626 C 0.71535 0.75381 0.66515 0.0
C1627 C 0.69721 0.73266 0.67252 0.0
C1628 C 0.71214 0.77078 0.65495 0.0
C1629 C 0.67589 0.72902 0.67126 0.0
C1630 C 0.67253 0.74569 0.66066 0.0
C1631 C 0.68714 0.78228 0.63748 0.0
C1632 C 0.70515 0.80244 0.62666 0.0
C1633 C 0.69049 0.76641 0.6516 0.0
C1634 C 0.72664 0.80737 0.63251 0.0
C1635 C 0.73012 0.79166 0.64649 0.0
H1636 H 0.2927 0.97341 0.68678 0.0
H1637 H 0.26192 1.00235 0.63555 0.0
H1638 H 0.23242 0.96499 0.61721 0.0
H1639 H 0.2185 0.92472 0.60943 0.0
H1640 H 0.24889 0.89555 0.66068 0.0
H1641 H 0.27504 0.93221 0.68614 0.0
C1642 C 0.27935 0.97148 0.67199 0.0
C1643 C 0.27971 0.99062 0.66202 0.0
C1644 C 0.26234 0.9499 0.66167 0.0
C1645 C 0.26212 0.9879 0.64335 0.0
C1646 C 0.24525 0.96653 0.6328 0.0
C1647 C 0.23036 0.92633 0.6271 0.0
C1648 C 0.23186 0.90762 0.63331 0.0
C1649 C 0.24557 0.94749 0.641 0.0
C1650 C 0.24733 0.90975 0.65593 0.0
C1651 C 0.26247 0.93076 0.67008 0.0
H1652 H 0.04763 0.31967 0.69639 0.0
H1653 H 1.00132 0.27814 0.62101 0.0
H1654 H 0.03064 0.27821 0.59091 0.0
H1655 H 0.06957 0.29206 0.58379 0.0
H1656 H 0.1169 0.33446 0.65695 0.0
H1657 H 0.08705 0.33175 0.69052 0.0
C1658 C 0.04396 0.31051 0.67351 0.0
C1659 C 0.02229 0.29912 0.66089 0.0
C1660 C 0.06105 0.31073 0.65599 0.0
C1661 C 0.01782 0.28725 0.63123 0.0
C1662 C 0.03457 0.28721 0.61396 0.0
C1663 C 0.07325 0.30043 0.60733 0.0
C1664 C 0.09522 0.31347 0.61803 0.0
C1665 C 0.05623 0.29917 0.62583 0.0
C1666 C 0.1 0.32425 0.64847 0.0
C1667 C 0.08298 0.32282 0.66743 0.0
H1668 H 0.26137 0.28899 0.67745 0.0
H1669 H 0.3101 0.35986 0.67729 0.0
H1670 H 0.28318 0.36699 0.65384 0.0
H1671 H 0.2473 0.3523 0.62673 0.0
H1672 H 0.19862 0.28145 0.62754 0.0
H1673 H 0.22371 0.27516 0.65821 0.0
C1674 C 0.26596 0.30602 0.67274 0.0
C1675 C 0.28774 0.32382 0.67857 0.0
C1676 C 0.25038 0.31 0.65941 0.0
C1677 C 0.29343 0.34586 0.67288 0.0
C1678 C 0.27807 0.34994 0.65936 0.0
C1679 C 0.24203 0.3356 0.63441 0.0
C1680 C 0.22121 0.31735 0.62474 0.0
C1681 C 0.25671 0.33205 0.6516 0.0
C1682 C 0.21448 0.2958 0.63492 0.0
C1683 C 0.22894 0.29214 0.65211 0.0
H1684 H 0.72754 0.99495 0.69084 0.0
H1685 H 0.66541 0.98185 0.65379 0.0
H1686 H 0.65628 0.94473 0.6337 0.0
H1687 H 0.66846 0.9188 0.61942 0.0
H1688 H 0.7328 0.93445 0.65002 0.0
H1689 H 0.73793 0.96689 0.68152 0.0
C1690 C 0.71183 0.98382 0.67887 0.0
C1691 C 0.69734 0.99129 0.67333 0.0
C1692 C 0.70702 0.9628 0.66642 0.0
C1693 C 0.67701 0.97664 0.6579 0.0
C1694 C 0.67175 0.95538 0.64649 0.0
C1695 C 0.68346 0.9291 0.63344 0.0
C1696 C 0.70041 0.92446 0.63166 0.0
C1697 C 0.68701 0.94868 0.64951 0.0
C1698 C 0.71944 0.93754 0.65081 0.0
C1699 C 0.72257 0.95638 0.66843 0.0
H1700 H 0.04023 0.73016 0.69866 0.0
H1701 H 0.02455 0.68286 0.61896 0.0
H1702 H 0.06033 0.70783 0.59562 0.0
H1703 H 0.09449 0.74409 0.59506 0.0
H1704 H 0.11017 0.79336 0.67154 0.0
H1705 H 0.07636 0.76647 0.69952 0.0
C1706 C 0.04481 0.72529 0.67639 0.0
C1707 C 0.02964 0.70479 0.66039 0.0
C1708 C 0.0654 0.74005 0.66259 0.0
C1709 C 0.03576 0.69866 0.63153 0.0
C1710 C 0.05626 0.71289 0.61819 0.0
C1711 C 0.09059 0.74888 0.61804 0.0
C1712 C 0.10454 0.7707 0.63107 0.0
C1713 C 0.07094 0.73377 0.63311 0.0
C1714 C 0.09961 0.77662 0.66109 0.0
C1715 C 0.08021 0.76132 0.67686 0.0
H1716 H 0.94405 0.58215 0.6778 0.0
H1717 H 0.00648 0.61452 0.6293 0.0
H1718 H 0.01472 0.58775 0.65054 0.0
H1719 H 0.00688 0.5593 0.69002 0.0
H1720 H 0.94473 0.5273 0.73901 0.0
H1721 H 0.9335 0.54937 0.70997 0.0
C1722 C 0.95928 0.5831 0.67141 0.0
C1723 C 0.9748 0.6006 0.65253 0.0
C1724 C 0.96402 0.56774 0.68393 0.0
C1725 C 0.9943 0.60136 0.64403 0.0
C1726 C 0.99908 0.58608 0.65626 0.0
C1727 C 0.99056 0.55656 0.69342 0.0
C1728 C 0.97676 0.54191 0.71689 0.0
C1729 C 0.98444 0.56974 0.67721 0.0
C1730 C 0.95571 0.53866 0.72125 0.0
C1731 C 0.94935 0.55139 0.70483 0.0
H1732 H 0.38082 0.38328 0.66012 0.0
H1733 H 0.39969 0.33661 0.68608 0.0
H1734 H 0.43629 0.3677 0.702 0.0
H1735 H 0.4608 0.40758 0.71603 0.0
H1736 H 0.44085 0.45422 0.69649 0.0
H1737 H 0.40711 0.42401 0.66974 0.0
C1738 C 0.39313 0.38 0.66867 0.0
C1739 C 0.38755 0.35772 0.67221 0.0
C1740 C 0.41396 0.39801 0.67886 0.0
C1741 C 0.40355 0.35363 0.68352 0.0
C1742 C 0.42448 0.37139 0.69256 0.0
C1743 C 0.4494 0.41119 0.70474 0.0
C1744 C 0.45331 0.43298 0.70748 0.0
C1745 C 0.42961 0.39357 0.6913 0.0
C1746 C 0.43826 0.43757 0.69387 0.0
C1747 C 0.41888 0.42025 0.67906 0.0
H1748 H 0.61827 0.01937 0.6453 0.0
H1749 H 0.65912 0.07691 0.70825 0.0
H1750 H 0.62644 0.07246 0.7343 0.0
H1751 H 0.5871 0.04835 0.74555 0.0
H1752 H 0.5463 0.98953 0.68522 0.0
H1753 H 0.57789 0.99874 0.65113 0.0
C1754 C 0.62001 0.03124 0.66424 0.0
C1755 C 0.64116 0.04813 0.67528 0.0
C1756 C 0.6011 0.0283 0.67967 0.0
C1757 C 0.64308 0.06351 0.69962 0.0
C1758 C 0.62438 0.06099 0.71458 0.0
C1759 C 0.58504 0.03798 0.72432 0.0
C1760 C 0.56456 0.0182 0.71803 0.0
C1761 C 0.60342 0.04287 0.70575 0.0
C1762 C 0.56192 0.0049 0.69043 0.0
C1763 C 0.58006 0.01 0.67122 0.0
loop_
_geom_bond_atom_site_label_1
_geom_bond_atom_site_label_2
_geom_bond_distance
_geom_bond_site_symmetry_2
_ccdc_geom_bond_type
C0 O1 1.160 . S
C0 O7 1.185 . S
O1 C0 1.160 . S
O2 Zn3 1.899 1_656 S
O2 C10 1.288 . S
Zn3 O2 1.899 1_454 S
Zn3 O4 2.032 . S
Zn3 O7 2.086 . S
Zn3 O12 1.977 1_554 S
O4 Zn3 2.032 . S
O4 C8 1.278 1_455 S
C5 O6 1.203 1_455 S
C5 O12 1.267 . S
O6 C5 1.203 1_655 S
O7 C0 1.185 . S
O7 Zn3 2.086 . S
C8 O4 1.278 1_655 S
C8 O9 1.211 . S
O9 C8 1.211 . S
C10 O2 1.288 . S
C10 O11 1.267 1_556 S
O11 C10 1.267 1_554 S
O12 Zn3 1.977 1_556 S
O12 C5 1.267 . S
C13 O14 1.160 . S
C13 O20 1.185 1_556 S
O14 C13 1.160 . S
O15 Zn16 1.899 . S
O15 C23 1.284 . S
Zn16 O15 1.899 . S
Zn16 O17 2.032 1_554 S
Zn16 O20 2.086 . S
Zn16 O25 1.977 . S
O17 Zn16 2.032 1_556 S
O17 C21 1.278 . S
C18 O19 1.203 . S
C18 O25 1.267 . S
O19 C18 1.203 . S
O20 C13 1.185 1_554 S
O20 Zn16 2.086 . S
C21 O17 1.278 . S
C21 O22 1.211 . S
O22 C21 1.211 . S
C23 O15 1.284 . S
C23 O24 1.273 . S
O24 C23 1.273 . S
O25 Zn16 1.977 . S
O25 C18 1.267 . S
C26 O27 1.160 . S
C26 O33 1.185 1_556 S
O27 C26 1.160 . S
O28 Zn29 1.899 1_565 S
O28 C36 1.284 . S
Zn29 O28 1.899 1_545 S
Zn29 O30 2.032 1_554 S
Zn29 O33 2.086 . S
Zn29 O38 1.977 . S
O30 Zn29 2.032 1_556 S
O30 C34 1.278 1_545 S
C31 O32 1.203 1_545 S
C31 O38 1.267 . S
O32 C31 1.203 1_565 S
O33 C26 1.185 1_554 S
O33 Zn29 2.086 . S
C34 O30 1.278 1_565 S
C34 O35 1.211 . S
O35 C34 1.211 . S
C36 O28 1.284 . S
C36 O37 1.273 . S
O37 C36 1.273 . S
O38 Zn29 1.977 . S
O38 C31 1.267 . S
C39 O40 1.160 . S
C39 O46 1.185 1_556 S
O40 C39 1.160 . S
O41 Zn42 1.899 1_455 S
O41 C49 1.284 . S
Zn42 O41 1.899 1_655 S
Zn42 O43 2.032 1_554 S
Zn42 O46 2.086 . S
Zn42 O51 1.977 . S
O43 Zn42 2.032 1_556 S
O43 C47 1.278 1_655 S
C44 O45 1.203 1_655 S
C44 O51 1.267 . S
O45 C44 1.203 1_455 S
O46 C39 1.185 1_554 S
O46 Zn42 2.086 . S
C47 O43 1.278 1_455 S
C47 O48 1.211 . S
O48 C47 1.211 . S
C49 O41 1.284 . S
C49 O50 1.273 . S
O50 C49 1.273 . S
O51 Zn42 1.977 . S
O51 C44 1.267 . S
C52 O53 1.160 . S
C52 O59 1.185 . S
O53 C52 1.160 . S
O54 Zn55 1.899 1_556 S
O54 C62 1.284 . S
Zn55 O54 1.899 1_554 S
Zn55 O56 2.032 . S
Zn55 O59 2.086 . S
Zn55 O64 1.977 1_554 S
O56 Zn55 2.032 . S
O56 C60 1.278 . S
C57 O58 1.203 . S
C57 O64 1.267 . S
O58 C57 1.203 . S
O59 C52 1.185 . S
O59 Zn55 2.086 . S
C60 O56 1.278 . S
C60 O61 1.211 . S
O61 C60 1.211 . S
C62 O54 1.284 . S
C62 O63 1.273 1_556 S
O63 C62 1.273 1_554 S
O64 Zn55 1.977 1_556 S
O64 C57 1.267 . S
C65 O66 1.160 . S
C65 O72 1.185 . S
O66 C65 1.160 . S
O67 Zn68 1.899 1_546 S
O67 C75 1.284 . S
Zn68 O67 1.899 1_564 S
Zn68 O69 2.032 . S
Zn68 O72 2.086 . S
Zn68 O77 1.977 1_554 S
O69 Zn68 2.032 . S
O69 C73 1.278 1_565 S
C70 O71 1.203 1_565 S
C70 O77 1.267 . S
O71 C70 1.203 1_545 S
O72 C65 1.185 . S
O72 Zn68 2.086 . S
C73 O69 1.278 1_545 S
C73 O74 1.211 . S
O74 C73 1.211 . S
C75 O67 1.284 . S
C75 O76 1.273 1_556 S
O76 C75 1.273 1_554 S
O77 Zn68 1.977 1_556 S
O77 C70 1.267 . S
C78 O79 1.160 . S
C78 O85 1.185 . S
O79 C78 1.160 . S
O80 Zn81 1.899 . S
O80 C88 1.284 . S
Zn81 O80 1.899 . S
Zn81 O82 2.032 . S
Zn81 O85 2.086 . S
Zn81 O90 1.977 . S
O82 Zn81 2.032 . S
O82 C86 1.278 . S
C83 O84 1.203 . S
C83 O90 1.267 . S
O84 C83 1.203 . S
O85 C78 1.185 . S
O85 Zn81 2.086 . S
C86 O82 1.278 . S
C86 O87 1.211 . S
O87 C86 1.211 . S
C88 O80 1.284 . S
C88 O89 1.273 . S
O89 C88 1.273 . S
O90 Zn81 1.977 . S
O90 C83 1.267 . S
C91 O92 1.160 1_565 S
C91 O98 1.185 . S
O92 C91 1.160 1_545 S
O93 Zn94 1.899 1_545 S
O93 C101 1.284 . S
Zn94 O93 1.899 1_565 S
Zn94 O95 2.032 . S
Zn94 O98 2.086 . S
Zn94 O103 1.977 . S
O95 Zn94 2.032 . S
O95 C99 1.278 . S
C96 O97 1.203 . S
C96 O103 1.267 . S
O97 C96 1.203 . S
O98 C91 1.185 . S
O98 Zn94 2.086 . S
C99 O95 1.278 . S
C99 O100 1.211 . S
O100 C99 1.211 . S
C101 O93 1.284 . S
C101 O102 1.273 . S
O102 C101 1.273 . S
O103 Zn94 1.977 . S
O103 C96 1.267 . S
C104 O105 1.160 1_455 S
C104 O111 1.185 . S
O105 C104 1.160 1_655 S
O106 Zn107 1.899 1_655 S
O106 C114 1.284 . S
Zn107 O106 1.899 1_455 S
Zn107 O108 2.032 . S
Zn107 O111 2.086 . S
Zn107 O116 1.977 . S
O108 Zn107 2.032 . S
O108 C112 1.278 . S
C109 O110 1.203 . S
C109 O116 1.267 . S
O110 C109 1.203 . S
O111 C104 1.185 . S
O111 Zn107 2.086 . S
C112 O108 1.278 . S
C112 O113 1.211 . S
O113 C112 1.211 . S
C114 O106 1.284 . S
C114 O115 1.273 . S
O115 C114 1.273 . S
O116 Zn107 1.977 . S
O116 C109 1.267 . S
C117 O118 1.160 1_565 S
C117 O124 1.185 . S
O118 C117 1.160 1_545 S
O119 Zn120 1.899 1_545 S
O119 C127 1.284 . S
Zn120 O119 1.899 1_565 S
Zn120 O121 2.032 . S
Zn120 O124 2.086 . S
Zn120 O129 1.977 . S
O121 Zn120 2.032 . S
O121 C125 1.278 . S
C122 O123 1.203 . S
C122 O129 1.267 . S
O123 C122 1.203 . S
O124 C117 1.185 . S
O124 Zn120 2.086 . S
C125 O121 1.278 . S
C125 O126 1.211 . S
O126 C125 1.211 . S
C127 O119 1.284 . S
C127 O128 1.273 . S
O128 C127 1.273 . S
O129 Zn120 1.977 . S
O129 C122 1.267 . S
C130 O131 1.160 . S
C130 O137 1.185 . S
O131 C130 1.160 . S
O132 Zn133 1.899 . S
O132 C140 1.284 . S
Zn133 O132 1.899 . S
Zn133 O134 2.032 . S
Zn133 O137 2.086 1_455 S
Zn133 O142 1.977 . S
O134 Zn133 2.032 . S
O134 C138 1.278 . S
C135 O136 1.203 . S
C135 O142 1.267 . S
O136 C135 1.203 . S
O137 C130 1.185 . S
O137 Zn133 2.086 1_655 S
C138 O134 1.278 . S
C138 O139 1.211 . S
O139 C138 1.211 . S
C140 O132 1.284 . S
C140 O141 1.273 . S
O141 C140 1.273 . S
O142 Zn133 1.977 . S
O142 C135 1.267 . S
C143 O144 1.160 . S
C143 O150 1.185 . S
O144 C143 1.160 . S
O145 Zn146 1.899 . S
O145 C153 1.284 . S
Zn146 O145 1.899 . S
Zn146 O147 2.032 . S
Zn146 O150 2.086 . S
Zn146 O155 1.977 . S
O147 Zn146 2.032 . S
O147 C151 1.278 . S
C148 O149 1.203 . S
C148 O155 1.267 . S
O149 C148 1.203 . S
O150 C143 1.185 . S
O150 Zn146 2.086 . S
C151 O147 1.278 . S
C151 O152 1.211 . S
O152 C151 1.211 . S
C153 O145 1.284 . S
C153 O154 1.273 . S
O154 C153 1.273 . S
O155 Zn146 1.977 . S
O155 C148 1.267 . S
C156 O157 1.160 1_545 S
C156 O163 1.185 . S
O157 C156 1.160 1_565 S
O158 Zn159 1.899 1_565 S
O158 C166 1.284 . S
Zn159 O158 1.899 1_545 S
Zn159 O160 2.032 . S
Zn159 O163 2.086 . S
Zn159 O168 1.977 . S
O160 Zn159 2.032 . S
O160 C164 1.278 . S
C161 O162 1.203 . S
C161 O168 1.267 . S
O162 C161 1.203 . S
O163 C156 1.185 . S
O163 Zn159 2.086 . S
C164 O160 1.278 . S
C164 O165 1.211 . S
O165 C164 1.211 . S
C166 O158 1.284 . S
C166 O167 1.273 . S
O167 C166 1.273 . S
O168 Zn159 1.977 . S
O168 C161 1.267 . S
C169 O170 1.160 . S
C169 O176 1.185 . S
O170 C169 1.160 . S
O171 Zn172 1.899 . S
O171 C179 1.284 . S
Zn172 O171 1.899 . S
Zn172 O173 2.032 . S
Zn172 O176 2.086 1_655 S
Zn172 O181 1.977 . S
O173 Zn172 2.032 . S
O173 C177 1.278 . S
C174 O175 1.203 . S
C174 O181 1.267 . S
O175 C174 1.203 . S
O176 C169 1.185 . S
O176 Zn172 2.086 1_455 S
C177 O173 1.278 . S
C177 O178 1.211 . S
O178 C177 1.211 . S
C179 O171 1.284 . S
C179 O180 1.273 . S
O180 C179 1.273 . S
O181 Zn172 1.977 . S
O181 C174 1.267 . S
C182 O183 1.160 . S
C182 O189 1.185 . S
O183 C182 1.160 . S
O184 Zn185 1.899 . S
O184 C192 1.284 . S
Zn185 O184 1.899 . S
Zn185 O186 2.032 . S
Zn185 O189 2.086 . S
Zn185 O194 1.977 . S
O186 Zn185 2.032 . S
O186 C190 1.278 . S
C187 O188 1.203 . S
C187 O194 1.267 . S
O188 C187 1.203 . S
O189 C182 1.185 . S
O189 Zn185 2.086 . S
C190 O186 1.278 . S
C190 O191 1.211 . S
O191 C190 1.211 . S
C192 O184 1.284 . S
C192 O193 1.273 . S
O193 C192 1.273 . S
O194 Zn185 1.977 . S
O194 C187 1.267 . S
C195 O196 1.160 . S
C195 O202 1.185 . S
O196 C195 1.160 . S
O197 Zn198 1.899 . S
O197 C205 1.284 . S
Zn198 O197 1.899 . S
Zn198 O199 2.032 . S
Zn198 O202 2.086 . S
Zn198 O207 1.977 . S
O199 Zn198 2.032 . S
O199 C203 1.278 . S
C200 O201 1.203 . S
C200 O207 1.267 . S
O201 C200 1.203 . S
O202 C195 1.185 . S
O202 Zn198 2.086 . S
C203 O199 1.278 . S
C203 O204 1.211 . S
O204 C203 1.211 . S
C205 O197 1.284 . S
C205 O206 1.273 . S
O206 C205 1.273 . S
O207 Zn198 1.977 . S
O207 C200 1.267 . S
C208 O209 1.160 1_545 S
C208 O215 1.185 . S
O209 C208 1.160 1_565 S
O210 Zn211 1.899 1_565 S
O210 C218 1.284 . S
Zn211 O210 1.899 1_545 S
Zn211 O212 2.032 . S
Zn211 O215 2.086 . S
Zn211 O220 1.977 . S
O212 Zn211 2.032 . S
O212 C216 1.278 . S
C213 O214 1.203 . S
C213 O220 1.267 . S
O214 C213 1.203 . S
O215 C208 1.185 . S
O215 Zn211 2.086 . S
C216 O212 1.278 . S
C216 O217 1.211 . S
O217 C216 1.211 . S
C218 O210 1.284 . S
C218 O219 1.273 . S
O219 C218 1.273 . S
O220 Zn211 1.977 . S
O220 C213 1.267 . S
C221 O222 1.160 1_655 S
C221 O228 1.185 . S
O222 C221 1.160 1_455 S
O223 Zn224 1.899 1_455 S
O223 C231 1.284 . S
Zn224 O223 1.899 1_655 S
Zn224 O225 2.032 . S
Zn224 O228 2.086 . S
Zn224 O233 1.977 . S
O225 Zn224 2.032 . S
O225 C229 1.278 . S
C226 O227 1.203 . S
C226 O233 1.267 . S
O227 C226 1.203 . S
O228 C221 1.185 . S
O228 Zn224 2.086 . S
C229 O225 1.278 . S
C229 O230 1.211 . S
O230 C229 1.211 . S
C231 O223 1.284 . S
C231 O232 1.273 . S
O232 C231 1.273 . S
O233 Zn224 1.977 . S
O233 C226 1.267 . S
H234 C242 0.930 . S
H235 C245 0.930 . S
H236 C247 0.930 . S
H237 C248 0.970 . S
H238 C248 0.970 . S
H239 C250 0.930 . S
H240 C252 0.930 . S
H241 C254 0.930 . S
C242 H234 0.930 . S
C242 C243 1.382 . S
C242 C244 1.426 . S
C243 C242 1.382 . S
C243 C247 1.389 . S
C244 C242 1.426 . S
C244 C245 1.375 . S
C244 C248 1.532 . S
C245 H235 0.930 . S
C245 C244 1.375 . S
C245 C246 1.416 . S
C246 C245 1.416 . S
C246 C247 1.371 . S
C247 H236 0.930 . S
C247 C243 1.389 . S
C247 C246 1.371 . S
C248 H237 0.970 . S
C248 H238 0.970 . S
C248 C244 1.532 . S
C248 C249 1.499 . S
C249 C248 1.499 . S
C249 C250 1.370 . S
C249 C254 1.415 . S
C250 H239 0.930 . S
C250 C249 1.370 . S
C250 C251 1.407 . S
C251 C250 1.407 . S
C251 C252 1.365 . S
C252 H240 0.930 . S
C252 C251 1.365 . S
C252 C253 1.393 . S
C253 C252 1.393 . S
C253 C254 1.387 . S
C254 H241 0.930 . S
C254 C249 1.415 . S
C254 C253 1.387 . S
H255 C263 0.930 . S
H256 C266 0.930 . S
H257 C268 0.930 . S
H258 C269 0.970 . S
H259 C269 0.970 . S
H260 C271 0.930 . S
H261 C273 0.930 . S
H262 C275 0.930 . S
C263 H255 0.930 . S
C263 C264 1.382 . S
C263 C265 1.426 . S
C264 C263 1.382 . S
C264 C268 1.389 . S
C265 C263 1.426 . S
C265 C266 1.375 . S
C265 C269 1.532 . S
C266 H256 0.930 . S
C266 C265 1.375 . S
C266 C267 1.416 . S
C267 C266 1.416 . S
C267 C268 1.371 . S
C268 H257 0.930 . S
C268 C264 1.389 . S
C268 C267 1.371 . S
C269 H258 0.970 . S
C269 H259 0.970 . S
C269 C265 1.532 . S
C269 C270 1.499 . S
C270 C269 1.499 . S
C270 C271 1.370 . S
C270 C275 1.415 . S
C271 H260 0.930 . S
C271 C270 1.370 . S
C271 C272 1.407 . S
C272 C271 1.407 . S
C272 C273 1.365 . S
C273 H261 0.930 . S
C273 C272 1.365 . S
C273 C274 1.393 . S
C274 C273 1.393 . S
C274 C275 1.387 . S
C275 H262 0.930 . S
C275 C270 1.415 . S
C275 C274 1.387 . S
H276 C284 0.930 . S
H277 C287 0.930 . S
H278 C289 0.930 . S
H279 C290 0.970 . S
H280 C290 0.970 . S
H281 C292 0.930 . S
H282 C294 0.930 . S
H283 C296 0.930 . S
C284 H276 0.930 . S
C284 C285 1.382 . S
C284 C286 1.426 . S
C285 C284 1.382 . S
C285 C289 1.389 . S
C286 C284 1.426 . S
C286 C287 1.375 . S
C286 C290 1.532 . S
C287 H277 0.930 . S
C287 C286 1.375 . S
C287 C288 1.416 . S
C288 C287 1.416 . S
C288 C289 1.371 . S
C289 H278 0.930 . S
C289 C285 1.389 . S
C289 C288 1.371 . S
C290 H279 0.970 . S
C290 H280 0.970 . S
C290 C286 1.532 . S
C290 C291 1.499 . S
C291 C290 1.499 . S
C291 C292 1.370 . S
C291 C296 1.415 . S
C292 H281 0.930 . S
C292 C291 1.370 . S
C292 C293 1.407 . S
C293 C292 1.407 . S
C293 C294 1.365 . S
C294 H282 0.930 . S
C294 C293 1.365 . S
C294 C295 1.393 . S
C295 C294 1.393 . S
C295 C296 1.387 . S
C296 H283 0.930 . S
C296 C291 1.415 . S
C296 C295 1.387 . S
H297 C305 0.930 . S
H298 C308 0.930 . S
H299 C310 0.930 . S
H300 C311 0.970 . S
H301 C311 0.970 . S
H302 C313 0.930 . S
H303 C315 0.930 . S
H304 C317 0.930 . S
C305 H297 0.930 . S
C305 C306 1.382 . S
C305 C307 1.426 . S
C306 C305 1.382 . S
C306 C310 1.389 . S
C307 C305 1.426 . S
C307 C308 1.375 . S
C307 C311 1.532 . S
C308 H298 0.930 . S
C308 C307 1.375 . S
C308 C309 1.416 . S
C309 C308 1.416 . S
C309 C310 1.371 . S
C310 H299 0.930 . S
C310 C306 1.389 . S
C310 C309 1.371 . S
C311 H300 0.970 . S
C311 H301 0.970 . S
C311 C307 1.532 . S
C311 C312 1.499 . S
C312 C311 1.499 . S
C312 C313 1.370 . S
C312 C317 1.415 . S
C313 H302 0.930 . S
C313 C312 1.370 . S
C313 C314 1.407 . S
C314 C313 1.407 . S
C314 C315 1.365 . S
C315 H303 0.930 . S
C315 C314 1.365 . S
C315 C316 1.393 . S
C316 C315 1.393 . S
C316 C317 1.387 . S
C317 H304 0.930 . S
C317 C312 1.415 . S
C317 C316 1.387 . S
H318 C326 0.930 . S
H319 C329 0.930 . S
H320 C331 0.930 . S
H321 C332 0.970 . S
H322 C332 0.970 . S
H323 C334 0.930 . S
H324 C336 0.930 . S
H325 C338 0.930 . S
C326 H318 0.930 . S
C326 C327 1.382 . S
C326 C328 1.426 . S
C327 C326 1.382 . S
C327 C331 1.389 . S
C328 C326 1.426 . S
C328 C329 1.375 . S
C328 C332 1.532 . S
C329 H319 0.930 . S
C329 C328 1.375 . S
C329 C330 1.416 . S
C330 C329 1.416 . S
C330 C331 1.371 . S
C331 H320 0.930 . S
C331 C327 1.389 . S
C331 C330 1.371 . S
C332 H321 0.970 . S
C332 H322 0.970 . S
C332 C328 1.532 . S
C332 C333 1.499 . S
C333 C332 1.499 . S
C333 C334 1.370 . S
C333 C338 1.415 . S
C334 H323 0.930 . S
C334 C333 1.370 . S
C334 C335 1.407 . S
C335 C334 1.407 . S
C335 C336 1.365 . S
C336 H324 0.930 . S
C336 C335 1.365 . S
C336 C337 1.393 . S
C337 C336 1.393 . S
C337 C338 1.387 . S
C338 H325 0.930 . S
C338 C333 1.415 . S
C338 C337 1.387 . S
H339 C347 0.930 . S
H340 C350 0.930 . S
H341 C352 0.930 . S
H342 C353 0.970 . S
H343 C353 0.970 . S
H344 C355 0.930 . S
H345 C357 0.930 . S
H346 C359 0.930 . S
C347 H339 0.930 . S
C347 C348 1.382 . S
C347 C349 1.426 . S
C348 C347 1.382 . S
C348 C352 1.389 . S
C349 C347 1.426 . S
C349 C350 1.375 . S
C349 C353 1.532 . S
C350 H340 0.930 . S
C350 C349 1.375 . S
C350 C351 1.416 . S
C351 C350 1.416 . S
C351 C352 1.371 . S
C352 H341 0.930 . S
C352 C348 1.389 . S
C352 C351 1.371 . S
C353 H342 0.970 . S
C353 H343 0.970 . S
C353 C349 1.532 . S
C353 C354 1.499 . S
C354 C353 1.499 . S
C354 C355 1.370 . S
C354 C359 1.415 . S
C355 H344 0.930 . S
C355 C354 1.370 . S
C355 C356 1.407 . S
C356 C355 1.407 . S
C356 C357 1.365 . S
C357 H345 0.930 . S
C357 C356 1.365 . S
C357 C358 1.393 . S
C358 C357 1.393 . S
C358 C359 1.387 . S
C359 H346 0.930 . S
C359 C354 1.415 . S
C359 C358 1.387 . S
H360 C368 0.930 . S
H361 C371 0.930 . S
H362 C373 0.930 . S
H363 C374 0.970 . S
H364 C374 0.970 . S
H365 C376 0.930 . S
H366 C378 0.930 . S
H367 C380 0.930 . S
C368 H360 0.930 . S
C368 C369 1.382 . S
C368 C370 1.426 . S
C369 C368 1.382 . S
C369 C373 1.389 . S
C370 C368 1.426 . S
C370 C371 1.375 . S
C370 C374 1.532 . S
C371 H361 0.930 . S
C371 C370 1.375 . S
C371 C372 1.416 . S
C372 C371 1.416 . S
C372 C373 1.371 . S
C373 H362 0.930 . S
C373 C369 1.389 . S
C373 C372 1.371 . S
C374 H363 0.970 . S
C374 H364 0.970 . S
C374 C370 1.532 . S
C374 C375 1.499 . S
C375 C374 1.499 . S
C375 C376 1.370 . S
C375 C380 1.415 . S
C376 H365 0.930 . S
C376 C375 1.370 . S
C376 C377 1.407 . S
C377 C376 1.407 . S
C377 C378 1.365 . S
C378 H366 0.930 . S
C378 C377 1.365 . S
C378 C379 1.393 . S
C379 C378 1.393 . S
C379 C380 1.387 . S
C380 H367 0.930 . S
C380 C375 1.415 . S
C380 C379 1.387 . S
H381 C389 0.930 . S
H382 C392 0.930 . S
H383 C394 0.930 . S
H384 C395 0.970 . S
H385 C395 0.970 . S
H386 C397 0.930 . S
H387 C399 0.930 . S
H388 C401 0.930 . S
C389 H381 0.930 . S
C389 C390 1.382 . S
C389 C391 1.426 . S
C390 C389 1.382 . S
C390 C394 1.389 . S
C391 C389 1.426 . S
C391 C392 1.375 . S
C391 C395 1.532 . S
C392 H382 0.930 . S
C392 C391 1.375 . S
C392 C393 1.416 . S
C393 C392 1.416 . S
C393 C394 1.371 . S
C394 H383 0.930 . S
C394 C390 1.389 . S
C394 C393 1.371 . S
C395 H384 0.970 . S
C395 H385 0.970 . S
C395 C391 1.532 . S
C395 C396 1.499 . S
C396 C395 1.499 . S
C396 C397 1.370 . S
C396 C401 1.415 . S
C397 H386 0.930 . S
C397 C396 1.370 . S
C397 C398 1.407 . S
C398 C397 1.407 . S
C398 C399 1.365 . S
C399 H387 0.930 . S
C399 C398 1.365 . S
C399 C400 1.393 . S
C400 C399 1.393 . S
C400 C401 1.387 . S
C401 H388 0.930 . S
C401 C396 1.415 . S
C401 C400 1.387 . S
H402 C410 0.930 . S
H403 C413 0.930 . S
H404 C415 0.930 . S
H405 C416 0.970 . S
H406 C416 0.970 . S
H407 C418 0.930 . S
H408 C420 0.930 . S
H409 C422 0.930 . S
C410 H402 0.930 . S
C410 C411 1.382 . S
C410 C412 1.426 . S
C411 C410 1.382 . S
C411 C415 1.389 . S
C412 C410 1.426 . S
C412 C413 1.375 . S
C412 C416 1.532 . S
C413 H403 0.930 . S
C413 C412 1.375 . S
C413 C414 1.416 . S
C414 C413 1.416 . S
C414 C415 1.371 . S
C415 H404 0.930 . S
C415 C411 1.389 . S
C415 C414 1.371 . S
C416 H405 0.970 . S
C416 H406 0.970 . S
C416 C412 1.532 . S
C416 C417 1.499 . S
C417 C416 1.499 . S
C417 C418 1.370 . S
C417 C422 1.415 . S
C418 H407 0.930 . S
C418 C417 1.370 . S
C418 C419 1.407 . S
C419 C418 1.407 . S
C419 C420 1.365 . S
C420 H408 0.930 . S
C420 C419 1.365 . S
C420 C421 1.393 . S
C421 C420 1.393 . S
C421 C422 1.387 . S
C422 H409 0.930 . S
C422 C417 1.415 . S
C422 C421 1.387 . S
H423 C431 0.930 . S
H424 C434 0.930 . S
H425 C436 0.930 . S
H426 C437 0.970 . S
H427 C437 0.970 . S
H428 C439 0.930 . S
H429 C441 0.930 . S
H430 C443 0.930 . S
C431 H423 0.930 . S
C431 C432 1.382 . S
C431 C433 1.426 . S
C432 C431 1.382 . S
C432 C436 1.389 1_455 S
C433 C431 1.426 . S
C433 C434 1.375 . S
C433 C437 1.532 . S
C434 H424 0.930 . S
C434 C433 1.375 . S
C434 C435 1.416 . S
C435 C434 1.416 . S
C435 C436 1.371 1_455 S
C436 H425 0.930 . S
C436 C432 1.389 1_655 S
C436 C435 1.371 1_655 S
C437 H426 0.970 . S
C437 H427 0.970 . S
C437 C433 1.532 . S
C437 C438 1.499 . S
C438 C437 1.499 . S
C438 C439 1.370 . S
C438 C443 1.415 . S
C439 H428 0.930 . S
C439 C438 1.370 . S
C439 C440 1.407 . S
C440 C439 1.407 . S
C440 C441 1.365 1_455 S
C441 H429 0.930 . S
C441 C440 1.365 1_655 S
C441 C442 1.393 1_655 S
C442 C441 1.393 1_455 S
C442 C443 1.387 . S
C443 H430 0.930 . S
C443 C438 1.415 . S
C443 C442 1.387 . S
H444 C452 0.930 . S
H445 C455 0.930 . S
H446 C457 0.930 . S
H447 C458 0.970 . S
H448 C458 0.970 . S
H449 C460 0.930 . S
H450 C462 0.930 . S
H451 C464 0.930 . S
C452 H444 0.930 . S
C452 C453 1.382 . S
C452 C454 1.426 . S
C453 C452 1.382 . S
C453 C457 1.389 . S
C454 C452 1.426 . S
C454 C455 1.375 . S
C454 C458 1.532 . S
C455 H445 0.930 . S
C455 C454 1.375 . S
C455 C456 1.416 . S
C456 C455 1.416 . S
C456 C457 1.371 . S
C457 H446 0.930 . S
C457 C453 1.389 . S
C457 C456 1.371 . S
C458 H447 0.970 . S
C458 H448 0.970 . S
C458 C454 1.532 . S
C458 C459 1.499 . S
C459 C458 1.499 . S
C459 C460 1.370 . S
C459 C464 1.415 . S
C460 H449 0.930 . S
C460 C459 1.370 . S
C460 C461 1.407 . S
C461 C460 1.407 . S
C461 C462 1.365 . S
C462 H450 0.930 . S
C462 C461 1.365 . S
C462 C463 1.393 . S
C463 C462 1.393 . S
C463 C464 1.387 . S
C464 H451 0.930 . S
C464 C459 1.415 . S
C464 C463 1.387 . S
H465 C473 0.930 . S
H466 C476 0.930 . S
H467 C478 0.930 . S
H468 C479 0.970 . S
H469 C479 0.970 . S
H470 C481 0.930 . S
H471 C483 0.930 . S
H472 C485 0.930 . S
C473 H465 0.930 . S
C473 C474 1.382 . S
C473 C475 1.426 . S
C474 C473 1.382 . S
C474 C478 1.389 1_565 S
C475 C473 1.426 . S
C475 C476 1.375 . S
C475 C479 1.532 . S
C476 H466 0.930 . S
C476 C475 1.375 . S
C476 C477 1.416 . S
C477 C476 1.416 . S
C477 C478 1.371 1_565 S
C478 H467 0.930 . S
C478 C474 1.389 1_545 S
C478 C477 1.371 1_545 S
C479 H468 0.970 . S
C479 H469 0.970 . S
C479 C475 1.532 . S
C479 C480 1.499 . S
C480 C479 1.499 . S
C480 C481 1.370 . S
C480 C485 1.415 . S
C481 H470 0.930 . S
C481 C480 1.370 . S
C481 C482 1.408 . S
C482 C481 1.408 . S
C482 C483 1.364 1_565 S
C483 H471 0.930 . S
C483 C482 1.364 1_545 S
C483 C484 1.393 1_545 S
C484 C483 1.393 1_565 S
C484 C485 1.387 . S
C485 H472 0.930 . S
C485 C480 1.415 . S
C485 C484 1.387 . S
H486 C494 0.930 . S
H487 C497 0.930 . S
H488 C499 0.930 . S
H489 C500 0.970 . S
H490 C500 0.970 . S
H491 C502 0.930 . S
H492 C504 0.930 . S
H493 C506 0.930 . S
C494 H486 0.930 . S
C494 C495 1.382 . S
C494 C496 1.426 . S
C495 C494 1.382 . S
C495 C499 1.389 1_565 S
C496 C494 1.426 . S
C496 C497 1.375 . S
C496 C500 1.532 . S
C497 H487 0.930 . S
C497 C496 1.375 . S
C497 C498 1.471 . S
C498 C497 1.471 . S
C498 C499 1.353 1_565 S
C499 H488 0.930 . S
C499 C495 1.389 1_545 S
C499 C498 1.353 1_545 S
C500 H489 0.970 . S
C500 H490 0.970 . S
C500 C496 1.532 . S
C500 C501 1.499 . S
C501 C500 1.499 . S
C501 C502 1.370 . S
C501 C506 1.415 . S
C502 H491 0.930 . S
C502 C501 1.370 . S
C502 C503 1.407 . S
C503 C502 1.407 . S
C503 C504 1.365 1_565 S
C504 H492 0.930 . S
C504 C503 1.365 1_545 S
C504 C505 1.393 1_545 S
C505 C504 1.393 1_565 S
C505 C506 1.387 . S
C506 H493 0.930 . S
C506 C501 1.415 . S
C506 C505 1.387 . S
H507 C515 0.930 . S
H508 C518 0.930 . S
H509 C520 0.930 . S
H510 C521 0.970 . S
H511 C521 0.970 . S
H512 C523 0.930 . S
H513 C525 0.930 . S
H514 C527 0.930 . S
C515 H507 0.930 . S
C515 C516 1.382 . S
C515 C517 1.426 . S
C516 C515 1.382 . S
C516 C520 1.389 1_455 S
C517 C515 1.426 . S
C517 C518 1.375 . S
C517 C521 1.532 . S
C518 H508 0.930 . S
C518 C517 1.375 . S
C518 C519 1.416 . S
C519 C518 1.416 . S
C519 C520 1.371 1_455 S
C520 H509 0.930 . S
C520 C516 1.389 1_655 S
C520 C519 1.371 1_655 S
C521 H510 0.970 . S
C521 H511 0.970 . S
C521 C517 1.532 . S
C521 C522 1.499 . S
C522 C521 1.499 . S
C522 C523 1.370 . S
C522 C527 1.415 . S
C523 H512 0.930 . S
C523 C522 1.370 . S
C523 C524 1.407 . S
C524 C523 1.407 . S
C524 C525 1.365 1_455 S
C525 H513 0.930 . S
C525 C524 1.365 1_655 S
C525 C526 1.393 1_655 S
C526 C525 1.393 1_455 S
C526 C527 1.387 . S
C527 H514 0.930 . S
C527 C522 1.415 . S
C527 C526 1.387 . S
H528 C536 0.930 . S
H529 C539 0.930 . S
H530 C541 0.930 . S
H531 C542 0.970 . S
H532 C542 0.970 . S
H533 C544 0.930 . S
H534 C546 0.930 . S
H535 C548 0.930 . S
C536 H528 0.930 . S
C536 C537 1.382 . S
C536 C538 1.426 . S
C537 C536 1.382 . S
C537 C541 1.389 . S
C538 C536 1.426 . S
C538 C539 1.375 . S
C538 C542 1.532 . S
C539 H529 0.930 . S
C539 C538 1.375 . S
C539 C540 1.416 . S
C540 C539 1.416 . S
C540 C541 1.371 . S
C541 H530 0.930 . S
C541 C537 1.389 . S
C541 C540 1.371 . S
C542 H531 0.970 . S
C542 H532 0.970 . S
C542 C538 1.532 . S
C542 C543 1.499 . S
C543 C542 1.499 . S
C543 C544 1.370 . S
C543 C548 1.415 . S
C544 H533 0.930 . S
C544 C543 1.370 . S
C544 C545 1.407 . S
C545 C544 1.407 . S
C545 C546 1.365 . S
C546 H534 0.930 . S
C546 C545 1.365 . S
C546 C547 1.393 . S
C547 C546 1.393 . S
C547 C548 1.387 . S
C548 H535 0.930 . S
C548 C543 1.415 . S
C548 C547 1.387 . S
H549 C557 0.930 . S
H550 C560 0.930 . S
H551 C562 0.930 . S
H552 C563 0.970 . S
H553 C563 0.970 . S
H554 C565 0.930 . S
H555 C567 0.930 . S
H556 C569 0.930 . S
C557 H549 0.930 . S
C557 C558 1.382 . S
C557 C559 1.426 . S
C558 C557 1.382 . S
C558 C562 1.389 . S
C559 C557 1.426 . S
C559 C560 1.375 . S
C559 C563 1.532 . S
C560 H550 0.930 . S
C560 C559 1.375 . S
C560 C561 1.416 . S
C561 C560 1.416 . S
C561 C562 1.371 . S
C562 H551 0.930 . S
C562 C558 1.389 . S
C562 C561 1.371 . S
C563 H552 0.970 . S
C563 H553 0.970 . S
C563 C559 1.532 . S
C563 C564 1.499 . S
C564 C563 1.499 . S
C564 C565 1.370 . S
C564 C569 1.415 . S
C565 H554 0.930 . S
C565 C564 1.370 . S
C565 C566 1.407 . S
C566 C565 1.407 . S
C566 C567 1.365 . S
C567 H555 0.930 . S
C567 C566 1.365 . S
C567 C568 1.393 . S
C568 C567 1.393 . S
C568 C569 1.387 . S
C569 H556 0.930 . S
C569 C564 1.415 . S
C569 C568 1.387 . S
H570 C578 0.930 . S
H571 C581 0.930 . S
H572 C583 0.930 . S
H573 C584 0.970 . S
H574 C584 0.970 . S
H575 C586 0.930 . S
H576 C588 0.930 . S
H577 C590 0.930 . S
C578 H570 0.930 . S
C578 C579 1.382 . S
C578 C580 1.426 . S
C579 C578 1.382 . S
C579 C583 1.389 . S
C580 C578 1.426 . S
C580 C581 1.375 . S
C580 C584 1.532 . S
C581 H571 0.930 . S
C581 C580 1.375 . S
C581 C582 1.416 . S
C582 C581 1.416 . S
C582 C583 1.371 . S
C583 H572 0.930 . S
C583 C579 1.389 . S
C583 C582 1.371 . S
C584 H573 0.970 . S
C584 H574 0.970 . S
C584 C580 1.532 . S
C584 C585 1.499 . S
C585 C584 1.499 . S
C585 C586 1.370 . S
C585 C590 1.415 . S
C586 H575 0.930 . S
C586 C585 1.370 . S
C586 C587 1.407 . S
C587 C586 1.407 . S
C587 C588 1.365 . S
C588 H576 0.930 . S
C588 C587 1.365 . S
C588 C589 1.393 . S
C589 C588 1.393 . S
C589 C590 1.387 . S
C590 H577 0.930 . S
C590 C585 1.415 . S
C590 C589 1.387 . S
H591 C599 0.930 . S
H592 C602 0.930 . S
H593 C604 0.930 . S
H594 C605 0.970 . S
H595 C605 0.970 . S
H596 C607 0.930 . S
H597 C609 0.930 . S
H598 C611 0.930 . S
C599 H591 0.930 . S
C599 C600 1.382 . S
C599 C601 1.426 . S
C600 C599 1.382 . S
C600 C604 1.389 . S
C601 C599 1.426 . S
C601 C602 1.375 . S
C601 C605 1.532 . S
C602 H592 0.930 . S
C602 C601 1.375 . S
C602 C603 1.416 . S
C603 C602 1.416 . S
C603 C604 1.371 . S
C604 H593 0.930 . S
C604 C600 1.389 . S
C604 C603 1.371 . S
C605 H594 0.970 . S
C605 H595 0.970 . S
C605 C601 1.532 . S
C605 C606 1.499 . S
C606 C605 1.499 . S
C606 C607 1.370 . S
C606 C611 1.415 . S
C607 H596 0.930 . S
C607 C606 1.370 . S
C607 C608 1.407 . S
C608 C607 1.407 . S
C608 C609 1.365 . S
C609 H597 0.930 . S
C609 C608 1.365 . S
C609 C610 1.393 . S
C610 C609 1.393 . S
C610 C611 1.387 . S
C611 H598 0.930 . S
C611 C606 1.415 . S
C611 C610 1.387 . S
H612 C618 0.930 . S
H613 C621 0.930 . S
H614 C622 0.930 . S
H615 C623 0.930 . S
H616 C626 0.930 . S
H617 C627 0.930 . S
C618 H612 0.930 . S
C618 C619 1.355 1_455 S
C618 C620 1.415 . S
C619 C618 1.355 1_655 S
C619 C621 1.419 . S
C620 C618 1.415 . S
C620 C625 1.425 1_455 S
C620 C627 1.409 . S
C621 H613 0.930 . S
C621 C619 1.419 . S
C621 C622 1.362 . S
C622 H614 0.930 . S
C622 C621 1.362 . S
C622 C625 1.409 . S
C623 H615 0.930 . S
C623 C624 1.355 . S
C623 C625 1.415 . S
C624 C623 1.355 . S
C624 C626 1.419 1_655 S
C625 C620 1.425 1_655 S
C625 C622 1.409 . S
C625 C623 1.415 . S
C626 H616 0.930 . S
C626 C624 1.419 1_455 S
C626 C627 1.362 . S
C627 H617 0.930 . S
C627 C620 1.409 . S
C627 C626 1.362 . S
H628 C634 0.930 . S
H629 C637 0.930 . S
H630 C638 0.930 . S
H631 C639 0.930 . S
H632 C642 0.930 . S
H633 C643 0.930 . S
C634 H628 0.930 . S
C634 C635 1.355 . S
C634 C636 1.415 . S
C635 C634 1.355 . S
C635 C637 1.419 . S
C636 C634 1.415 . S
C636 C641 1.425 . S
C636 C643 1.409 . S
C637 H629 0.930 . S
C637 C635 1.419 . S
C637 C638 1.362 . S
C638 H630 0.930 . S
C638 C637 1.362 . S
C638 C641 1.409 . S
C639 H631 0.930 . S
C639 C640 1.355 . S
C639 C641 1.415 . S
C640 C639 1.355 . S
C640 C642 1.419 . S
C641 C636 1.425 . S
C641 C638 1.409 . S
C641 C639 1.415 . S
C642 H632 0.930 . S
C642 C640 1.419 . S
C642 C643 1.362 . S
C643 H633 0.930 . S
C643 C636 1.409 . S
C643 C642 1.362 . S
H644 C650 0.930 . S
H645 C653 0.930 . S
H646 C654 0.930 . S
H647 C655 0.930 . S
H648 C658 0.930 . S
H649 C659 0.930 . S
C650 H644 0.930 . S
C650 C651 1.355 . S
C650 C652 1.415 . S
C651 C650 1.355 . S
C651 C653 1.419 1_545 S
C652 C650 1.415 . S
C652 C657 1.418 1_545 S
C652 C659 1.409 . S
C653 H645 0.930 . S
C653 C651 1.419 1_565 S
C653 C654 1.362 . S
C654 H646 0.930 . S
C654 C653 1.362 . S
C654 C657 1.411 . S
C655 H647 0.930 . S
C655 C656 1.355 1_565 S
C655 C657 1.420 . S
C656 C655 1.355 1_545 S
C656 C658 1.419 . S
C657 C652 1.418 1_565 S
C657 C654 1.411 . S
C657 C655 1.420 . S
C658 H648 0.930 . S
C658 C656 1.419 . S
C658 C659 1.362 . S
C659 H649 0.930 . S
C659 C652 1.409 . S
C659 C658 1.362 . S
H660 C666 0.930 . S
H661 C669 0.930 . S
H662 C670 0.930 . S
H663 C671 0.930 . S
H664 C674 0.930 . S
H665 C675 0.930 . S
C666 H660 0.930 . S
C666 C667 1.355 1_545 S
C666 C668 1.415 . S
C667 C666 1.355 1_565 S
C667 C669 1.419 . S
C668 C666 1.415 . S
C668 C673 1.425 1_545 S
C668 C675 1.409 . S
C669 H661 0.930 . S
C669 C667 1.419 . S
C669 C670 1.362 . S
C670 H662 0.930 . S
C670 C669 1.362 . S
C670 C673 1.409 . S
C671 H663 0.930 . S
C671 C672 1.355 . S
C671 C673 1.415 . S
C672 C671 1.355 . S
C672 C674 1.419 1_565 S
C673 C668 1.425 1_565 S
C673 C670 1.409 . S
C673 C671 1.415 . S
C674 H664 0.930 . S
C674 C672 1.419 1_545 S
C674 C675 1.362 . S
C675 H665 0.930 . S
C675 C668 1.409 . S
C675 C674 1.362 . S
H676 C682 0.930 . S
H677 C685 0.930 . S
H678 C686 0.930 . S
H679 C687 0.930 . S
H680 C690 0.933 . S
H681 C691 0.928 . S
C682 H676 0.930 . S
C682 C683 1.355 . S
C682 C684 1.415 . S
C683 C682 1.355 . S
C683 C685 1.419 . S
C684 C682 1.415 . S
C684 C689 1.425 . S
C684 C691 1.409 . S
C685 H677 0.930 . S
C685 C683 1.419 . S
C685 C686 1.362 . S
C686 H678 0.930 . S
C686 C685 1.362 . S
C686 C689 1.409 . S
C687 H679 0.930 . S
C687 C688 1.355 . S
C687 C689 1.415 . S
C688 C687 1.355 . S
C688 C690 1.419 . S
C689 C684 1.425 . S
C689 C686 1.409 . S
C689 C687 1.415 . S
C690 H680 0.933 . S
C690 C688 1.419 . S
C690 C691 1.362 . S
C691 H681 0.928 . S
C691 C684 1.409 . S
C691 C690 1.362 . S
H692 C698 0.930 . S
H693 C701 0.930 . S
H694 C702 0.930 . S
H695 C703 0.930 . S
H696 C706 0.930 . S
H697 C707 0.930 . S
C698 H692 0.930 . S
C698 C699 1.355 . S
C698 C700 1.415 . S
C699 C698 1.355 . S
C699 C701 1.419 . S
C700 C698 1.415 . S
C700 C705 1.425 . S
C700 C707 1.409 . S
C701 H693 0.930 . S
C701 C699 1.419 . S
C701 C702 1.362 . S
C702 H694 0.930 . S
C702 C701 1.362 . S
C702 C705 1.409 . S
C703 H695 0.930 . S
C703 C704 1.355 . S
C703 C705 1.415 . S
C704 C703 1.355 . S
C704 C706 1.419 . S
C705 C700 1.425 . S
C705 C702 1.409 . S
C705 C703 1.415 . S
C706 H696 0.930 . S
C706 C704 1.419 . S
C706 C707 1.362 . S
C707 H697 0.930 . S
C707 C700 1.409 . S
C707 C706 1.362 . S
H708 C714 0.930 . S
H709 C717 0.930 . S
H710 C718 0.930 . S
H711 C719 0.930 . S
H712 C722 0.930 . S
H713 C723 0.930 . S
C714 H708 0.930 . S
C714 C715 1.355 1_655 S
C714 C716 1.415 . S
C715 C714 1.355 1_455 S
C715 C717 1.419 . S
C716 C714 1.415 . S
C716 C721 1.425 1_655 S
C716 C723 1.409 . S
C717 H709 0.930 . S
C717 C715 1.419 . S
C717 C718 1.362 . S
C718 H710 0.930 . S
C718 C717 1.362 . S
C718 C721 1.409 . S
C719 H711 0.930 . S
C719 C720 1.346 1_455 S
C719 C721 1.415 . S
C720 C719 1.346 1_655 S
C720 C722 1.438 . S
C721 C716 1.425 1_455 S
C721 C718 1.409 . S
C721 C719 1.415 . S
C722 H712 0.930 . S
C722 C720 1.438 . S
C722 C723 1.362 . S
C723 H713 0.930 . S
C723 C716 1.409 . S
C723 C722 1.362 . S
H724 C730 0.930 . S
H725 C733 0.930 . S
H726 C734 0.930 . S
H727 C735 0.930 . S
H728 C738 0.930 . S
H729 C739 0.930 . S
C730 H724 0.930 . S
C730 C731 1.355 . S
C730 C732 1.415 . S
C731 C730 1.355 . S
C731 C733 1.419 . S
C732 C730 1.415 . S
C732 C737 1.425 . S
C732 C739 1.409 . S
C733 H725 0.930 . S
C733 C731 1.419 . S
C733 C734 1.362 . S
C734 H726 0.930 . S
C734 C733 1.362 . S
C734 C737 1.409 . S
C735 H727 0.930 . S
C735 C736 1.355 . S
C735 C737 1.415 . S
C736 C735 1.355 . S
C736 C738 1.419 . S
C737 C732 1.425 . S
C737 C734 1.409 . S
C737 C735 1.415 . S
C738 H728 0.930 . S
C738 C736 1.419 . S
C738 C739 1.362 . S
C739 H729 0.930 . S
C739 C732 1.409 . S
C739 C738 1.362 . S
H740 C746 0.930 . S
H741 C749 0.923 . S
H742 C750 0.930 . S
H743 C751 0.930 . S
H744 C754 0.930 . S
H745 C755 0.930 . S
C746 H740 0.930 . S
C746 C747 1.355 . S
C746 C748 1.415 . S
C747 C746 1.355 . S
C747 C749 1.419 . S
C748 C746 1.415 . S
C748 C753 1.425 . S
C748 C755 1.409 . S
C749 H741 0.923 . S
C749 C747 1.419 . S
C749 C750 1.361 1_565 S
C750 H742 0.930 . S
C750 C749 1.361 1_545 S
C750 C753 1.410 1_545 S
C751 H743 0.930 . S
C751 C752 1.355 1_545 S
C751 C753 1.415 1_545 S
C752 C751 1.355 1_565 S
C752 C754 1.419 . S
C753 C748 1.425 . S
C753 C750 1.410 1_565 S
C753 C751 1.415 1_565 S
C754 H744 0.930 . S
C754 C752 1.419 . S
C754 C755 1.362 . S
C755 H745 0.930 . S
C755 C748 1.409 . S
C755 C754 1.362 . S
H756 C762 0.928 1_565 S
H757 C765 0.930 . S
H758 C766 0.930 . S
H759 C767 0.930 . S
H760 C770 0.930 . S
H761 C771 0.930 . S
C762 H756 0.928 1_545 S
C762 C763 1.355 . S
C762 C764 1.415 . S
C763 C762 1.355 . S
C763 C765 1.419 . S
C764 C762 1.415 . S
C764 C769 1.425 . S
C764 C771 1.409 1_545 S
C765 H757 0.930 . S
C765 C763 1.419 . S
C765 C766 1.362 . S
C766 H758 0.930 . S
C766 C765 1.362 . S
C766 C769 1.409 . S
C767 H759 0.930 . S
C767 C768 1.355 . S
C767 C769 1.415 . S
C768 C767 1.355 . S
C768 C770 1.419 1_545 S
C769 C764 1.425 . S
C769 C766 1.409 . S
C769 C767 1.415 . S
C770 H760 0.930 . S
C770 C768 1.419 1_565 S
C770 C771 1.362 . S
C771 H761 0.930 . S
C771 C764 1.409 1_565 S
C771 C770 1.362 . S
H772 C778 0.930 . S
H773 C781 0.930 . S
H774 C782 0.930 . S
H775 C783 0.930 . S
H776 C786 0.930 . S
H777 C787 0.930 . S
C778 H772 0.930 . S
C778 C779 1.355 1_455 S
C778 C780 1.415 . S
C779 C778 1.355 1_655 S
C779 C781 1.419 . S
C780 C778 1.415 . S
C780 C785 1.425 1_455 S
C780 C787 1.409 . S
C781 H773 0.930 . S
C781 C779 1.419 . S
C781 C782 1.362 . S
C782 H774 0.930 . S
C782 C781 1.362 . S
C782 C785 1.409 . S
C783 H775 0.930 . S
C783 C784 1.356 1_655 S
C783 C785 1.415 . S
C784 C783 1.356 1_455 S
C784 C786 1.418 . S
C785 C780 1.425 1_655 S
C785 C782 1.409 . S
C785 C783 1.415 . S
C786 H776 0.930 . S
C786 C784 1.418 . S
C786 C787 1.362 . S
C787 H777 0.930 . S
C787 C780 1.409 . S
C787 C786 1.362 . S
H788 C794 0.930 . S
H789 C797 0.930 . S
H790 C798 0.930 . S
H791 C799 0.930 . S
H792 C802 0.930 . S
H793 C803 0.930 . S
C794 H788 0.930 . S
C794 C795 1.355 . S
C794 C796 1.415 . S
C795 C794 1.355 . S
C795 C797 1.419 . S
C796 C794 1.415 . S
C796 C801 1.425 . S
C796 C803 1.409 . S
C797 H789 0.930 . S
C797 C795 1.419 . S
C797 C798 1.362 . S
C798 H790 0.930 . S
C798 C797 1.362 . S
C798 C801 1.409 . S
C799 H791 0.930 . S
C799 C800 1.355 . S
C799 C801 1.415 . S
C800 C799 1.355 . S
C800 C802 1.419 . S
C801 C796 1.425 . S
C801 C798 1.409 . S
C801 C799 1.415 . S
C802 H792 0.930 . S
C802 C800 1.419 . S
C802 C803 1.362 . S
C803 H793 0.930 . S
C803 C796 1.409 . S
C803 C802 1.362 . S
H804 C810 0.930 . S
H805 C813 0.930 . S
H806 C814 0.930 . S
H807 C815 0.930 . S
H808 C818 0.930 . S
H809 C819 0.930 . S
C810 H804 0.930 . S
C810 C811 1.355 . S
C810 C812 1.415 . S
C811 C810 1.355 . S
C811 C813 1.419 . S
C812 C810 1.415 . S
C812 C817 1.425 . S
C812 C819 1.409 . S
C813 H805 0.930 . S
C813 C811 1.419 . S
C813 C814 1.362 . S
C814 H806 0.930 . S
C814 C813 1.362 . S
C814 C817 1.409 . S
C815 H807 0.930 . S
C815 C816 1.355 . S
C815 C817 1.415 . S
C816 C815 1.355 . S
C816 C818 1.419 . S
C817 C812 1.425 . S
C817 C814 1.409 . S
C817 C815 1.415 . S
C818 H808 0.930 . S
C818 C816 1.419 . S
C818 C819 1.362 . S
C819 H809 0.930 . S
C819 C812 1.409 . S
C819 C818 1.362 . S
H820 C826 0.930 . S
H821 C829 0.930 . S
H822 C830 0.930 . S
H823 C831 0.930 . S
H824 C834 0.930 . S
H825 C835 0.930 . S
C826 H820 0.930 . S
C826 C827 1.355 . S
C826 C828 1.415 . S
C827 C826 1.355 . S
C827 C829 1.419 . S
C828 C826 1.415 . S
C828 C833 1.425 . S
C828 C835 1.409 . S
C829 H821 0.930 . S
C829 C827 1.419 . S
C829 C830 1.362 . S
C830 H822 0.930 . S
C830 C829 1.362 . S
C830 C833 1.409 . S
C831 H823 0.930 . S
C831 C832 1.355 . S
C831 C833 1.415 . S
C832 C831 1.355 . S
C832 C834 1.419 . S
C833 C828 1.425 . S
C833 C830 1.409 . S
C833 C831 1.415 . S
C834 H824 0.930 . S
C834 C832 1.419 . S
C834 C835 1.362 . S
C835 H825 0.930 . S
C835 C828 1.409 . S
C835 C834 1.362 . S
H836 C842 0.930 . S
H837 C845 0.930 . S
H838 C846 0.930 . S
H839 C847 0.930 . S
H840 C850 0.930 . S
H841 C851 0.930 . S
C842 H836 0.930 . S
C842 C843 1.355 . S
C842 C844 1.415 . S
C843 C842 1.355 . S
C843 C845 1.419 . S
C844 C842 1.415 . S
C844 C849 1.425 . S
C844 C851 1.409 . S
C845 H837 0.930 . S
C845 C843 1.419 . S
C845 C846 1.362 . S
C846 H838 0.930 . S
C846 C845 1.362 . S
C846 C849 1.409 . S
C847 H839 0.930 . S
C847 C848 1.355 . S
C847 C849 1.415 . S
C848 C847 1.355 . S
C848 C850 1.419 . S
C849 C844 1.425 . S
C849 C846 1.409 . S
C849 C847 1.415 . S
C850 H840 0.930 . S
C850 C848 1.419 . S
C850 C851 1.362 . S
C851 H841 0.930 . S
C851 C844 1.409 . S
C851 C850 1.362 . S
H852 C858 0.930 . S
H853 C861 0.930 . S
H854 C862 0.930 . S
H855 C863 0.930 . S
H856 C866 0.930 . S
H857 C867 0.930 . S
C858 H852 0.930 . S
C858 C859 1.355 . S
C858 C860 1.415 . S
C859 C858 1.355 . S
C859 C861 1.419 . S
C860 C858 1.415 . S
C860 C865 1.425 . S
C860 C867 1.409 . S
C861 H853 0.930 . S
C861 C859 1.419 . S
C861 C862 1.362 . S
C862 H854 0.930 . S
C862 C861 1.362 . S
C862 C865 1.409 . S
C863 H855 0.930 . S
C863 C864 1.355 . S
C863 C865 1.415 . S
C864 C863 1.355 . S
C864 C866 1.419 . S
C865 C860 1.425 . S
C865 C862 1.409 . S
C865 C863 1.415 . S
C866 H856 0.930 . S
C866 C864 1.419 . S
C866 C867 1.362 . S
C867 H857 0.930 . S
C867 C860 1.409 . S
C867 C866 1.362 . S
H868 C874 0.930 . S
H869 C877 0.930 . S
H870 C878 0.930 . S
H871 C879 0.930 . S
H872 C882 0.930 . S
H873 C883 0.930 . S
C874 H868 0.930 . S
C874 C875 1.355 . S
C874 C876 1.415 . S
C875 C874 1.355 . S
C875 C877 1.419 . S
C876 C874 1.415 . S
C876 C881 1.425 . S
C876 C883 1.409 . S
C877 H869 0.930 . S
C877 C875 1.419 . S
C877 C878 1.362 . S
C878 H870 0.930 . S
C878 C877 1.362 . S
C878 C881 1.409 . S
C879 H871 0.930 . S
C879 C880 1.355 . S
C879 C881 1.415 . S
C880 C879 1.355 . S
C880 C882 1.419 . S
C881 C876 1.425 . S
C881 C878 1.409 . S
C881 C879 1.415 . S
C882 H872 0.930 . S
C882 C880 1.419 . S
C882 C883 1.362 . S
C883 H873 0.930 . S
C883 C876 1.409 . S
C883 C882 1.362 . S
H884 C890 0.930 . S
H885 C893 0.930 . S
H886 C894 0.930 . S
H887 C895 0.930 . S
H888 C898 0.930 . S
H889 C899 0.930 . S
C890 H884 0.930 . S
C890 C891 1.355 . S
C890 C892 1.415 . S
C891 C890 1.355 . S
C891 C893 1.419 . S
C892 C890 1.415 . S
C892 C897 1.425 . S
C892 C899 1.409 . S
C893 H885 0.930 . S
C893 C891 1.419 . S
C893 C894 1.362 . S
C894 H886 0.930 . S
C894 C893 1.362 . S
C894 C897 1.409 . S
C895 H887 0.930 . S
C895 C896 1.355 . S
C895 C897 1.415 . S
C896 C895 1.355 . S
C896 C898 1.419 . S
C897 C892 1.425 . S
C897 C894 1.409 . S
C897 C895 1.415 . S
C898 H888 0.930 . S
C898 C896 1.419 . S
C898 C899 1.362 . S
C899 H889 0.930 . S
C899 C892 1.409 . S
C899 C898 1.362 . S
H900 C906 0.930 . S
H901 C909 0.930 . S
H902 C910 0.930 . S
H903 C911 0.930 . S
H904 C914 0.930 . S
H905 C915 0.930 . S
C906 H900 0.930 . S
C906 C907 1.355 . S
C906 C908 1.415 . S
C907 C906 1.355 . S
C907 C909 1.419 . S
C908 C906 1.415 . S
C908 C913 1.425 . S
C908 C915 1.409 . S
C909 H901 0.930 . S
C909 C907 1.419 . S
C909 C910 1.362 . S
C910 H902 0.930 . S
C910 C909 1.362 . S
C910 C913 1.409 . S
C911 H903 0.930 . S
C911 C912 1.355 . S
C911 C913 1.415 . S
C912 C911 1.355 . S
C912 C914 1.419 . S
C913 C908 1.425 . S
C913 C910 1.409 . S
C913 C911 1.415 . S
C914 H904 0.930 . S
C914 C912 1.419 . S
C914 C915 1.362 . S
C915 H905 0.930 . S
C915 C908 1.409 . S
C915 C914 1.362 . S
H916 C922 0.930 . S
H917 C925 0.930 . S
H918 C926 0.930 . S
H919 C927 0.930 . S
H920 C930 0.930 . S
H921 C931 0.930 . S
C922 H916 0.930 . S
C922 C923 1.355 . S
C922 C924 1.415 . S
C923 C922 1.355 . S
C923 C925 1.419 . S
C924 C922 1.415 . S
C924 C929 1.425 . S
C924 C931 1.409 . S
C925 H917 0.930 . S
C925 C923 1.419 . S
C925 C926 1.362 . S
C926 H918 0.930 . S
C926 C925 1.362 . S
C926 C929 1.409 . S
C927 H919 0.930 . S
C927 C928 1.355 . S
C927 C929 1.415 . S
C928 C927 1.355 . S
C928 C930 1.419 . S
C929 C924 1.425 . S
C929 C926 1.409 . S
C929 C927 1.415 . S
C930 H920 0.930 . S
C930 C928 1.419 . S
C930 C931 1.362 . S
C931 H921 0.930 . S
C931 C924 1.409 . S
C931 C930 1.362 . S
H932 C938 0.930 . S
H933 C941 0.930 . S
H934 C942 0.930 . S
H935 C943 0.930 . S
H936 C946 0.930 . S
H937 C947 0.930 . S
C938 H932 0.930 . S
C938 C939 1.355 . S
C938 C940 1.415 . S
C939 C938 1.355 . S
C939 C941 1.419 . S
C940 C938 1.415 . S
C940 C945 1.425 . S
C940 C947 1.409 . S
C941 H933 0.930 . S
C941 C939 1.419 . S
C941 C942 1.362 . S
C942 H934 0.930 . S
C942 C941 1.362 . S
C942 C945 1.409 . S
C943 H935 0.930 . S
C943 C944 1.355 . S
C943 C945 1.415 . S
C944 C943 1.355 . S
C944 C946 1.419 . S
C945 C940 1.425 . S
C945 C942 1.409 . S
C945 C943 1.415 . S
C946 H936 0.930 . S
C946 C944 1.419 . S
C946 C947 1.362 . S
C947 H937 0.930 . S
C947 C940 1.409 . S
C947 C946 1.362 . S
H948 C954 0.930 . S
H949 C957 0.930 . S
H950 C958 0.930 . S
H951 C959 0.930 . S
H952 C962 0.930 . S
H953 C963 0.930 . S
C954 H948 0.930 . S
C954 C955 1.355 . S
C954 C956 1.415 . S
C955 C954 1.355 . S
C955 C957 1.419 . S
C956 C954 1.415 . S
C956 C961 1.425 . S
C956 C963 1.409 . S
C957 H949 0.930 . S
C957 C955 1.419 . S
C957 C958 1.362 . S
C958 H950 0.930 . S
C958 C957 1.362 . S
C958 C961 1.409 . S
C959 H951 0.930 . S
C959 C960 1.355 . S
C959 C961 1.415 . S
C960 C959 1.355 . S
C960 C962 1.419 . S
C961 C956 1.425 . S
C961 C958 1.409 . S
C961 C959 1.415 . S
C962 H952 0.930 . S
C962 C960 1.419 . S
C962 C963 1.362 . S
C963 H953 0.930 . S
C963 C956 1.409 . S
C963 C962 1.362 . S
H964 C970 0.930 . S
H965 C973 0.930 . S
H966 C974 0.930 . S
H967 C975 0.930 . S
H968 C978 0.930 . S
H969 C979 0.930 . S
C970 H964 0.930 . S
C970 C971 1.355 . S
C970 C972 1.415 . S
C971 C970 1.355 . S
C971 C973 1.419 . S
C972 C970 1.415 . S
C972 C977 1.425 . S
C972 C979 1.409 . S
C973 H965 0.930 . S
C973 C971 1.419 . S
C973 C974 1.362 . S
C974 H966 0.930 . S
C974 C973 1.362 . S
C974 C977 1.409 . S
C975 H967 0.930 . S
C975 C976 1.355 . S
C975 C977 1.415 . S
C976 C975 1.355 . S
C976 C978 1.419 . S
C977 C972 1.425 . S
C977 C974 1.409 . S
C977 C975 1.415 . S
C978 H968 0.930 . S
C978 C976 1.419 . S
C978 C979 1.362 . S
C979 H969 0.930 . S
C979 C972 1.409 . S
C979 C978 1.362 . S
H980 C986 0.930 . S
H981 C989 0.930 . S
H982 C990 0.930 . S
H983 C991 0.930 . S
H984 C994 0.930 . S
H985 C995 0.930 . S
C986 H980 0.930 . S
C986 C987 1.355 . S
C986 C988 1.415 . S
C987 C986 1.355 . S
C987 C989 1.419 . S
C988 C986 1.415 . S
C988 C993 1.425 . S
C988 C995 1.409 . S
C989 H981 0.930 . S
C989 C987 1.419 . S
C989 C990 1.362 . S
C990 H982 0.930 . S
C990 C989 1.362 . S
C990 C993 1.409 . S
C991 H983 0.930 . S
C991 C992 1.355 . S
C991 C993 1.415 . S
C992 C991 1.355 . S
C992 C994 1.419 . S
C993 C988 1.425 . S
C993 C990 1.409 . S
C993 C991 1.415 . S
C994 H984 0.930 . S
C994 C992 1.419 . S
C994 C995 1.362 . S
C995 H985 0.930 . S
C995 C988 1.409 . S
C995 C994 1.362 . S
H996 C1002 0.930 . S
H997 C1005 0.930 . S
H998 C1006 0.930 . S
H999 C1007 0.930 . S
H1000 C1010 0.930 . S
H1001 C1011 0.930 . S
C1002 H996 0.930 . S
C1002 C1003 1.355 . S
C1002 C1004 1.415 . S
C1003 C1002 1.355 . S
C1003 C1005 1.419 . S
C1004 C1002 1.415 . S
C1004 C1009 1.425 . S
C1004 C1011 1.409 . S
C1005 H997 0.930 . S
C1005 C1003 1.419 . S
C1005 C1006 1.362 . S
C1006 H998 0.930 . S
C1006 C1005 1.362 . S
C1006 C1009 1.409 . S
C1007 H999 0.930 . S
C1007 C1008 1.355 . S
C1007 C1009 1.415 . S
C1008 C1007 1.355 . S
C1008 C1010 1.419 . S
C1009 C1004 1.425 . S
C1009 C1006 1.409 . S
C1009 C1007 1.415 . S
C1010 H1000 0.930 . S
C1010 C1008 1.419 . S
C1010 C1011 1.362 . S
C1011 H1001 0.930 . S
C1011 C1004 1.409 . S
C1011 C1010 1.362 . S
H1012 C1018 0.930 . S
H1013 C1021 0.930 . S
H1014 C1022 0.930 . S
H1015 C1023 0.930 . S
H1016 C1026 0.930 . S
H1017 C1027 0.930 . S
C1018 H1012 0.930 . S
C1018 C1019 1.355 . S
C1018 C1020 1.415 . S
C1019 C1018 1.355 . S
C1019 C1021 1.419 . S
C1020 C1018 1.415 . S
C1020 C1025 1.425 . S
C1020 C1027 1.409 . S
C1021 H1013 0.930 . S
C1021 C1019 1.419 . S
C1021 C1022 1.362 . S
C1022 H1014 0.930 . S
C1022 C1021 1.362 . S
C1022 C1025 1.409 . S
C1023 H1015 0.930 . S
C1023 C1024 1.355 . S
C1023 C1025 1.415 . S
C1024 C1023 1.355 . S
C1024 C1026 1.419 . S
C1025 C1020 1.425 . S
C1025 C1022 1.409 . S
C1025 C1023 1.415 . S
C1026 H1016 0.930 . S
C1026 C1024 1.419 . S
C1026 C1027 1.362 . S
C1027 H1017 0.930 . S
C1027 C1020 1.409 . S
C1027 C1026 1.362 . S
H1028 C1034 0.930 . S
H1029 C1037 0.930 . S
H1030 C1038 0.930 . S
H1031 C1039 0.930 . S
H1032 C1042 0.930 . S
H1033 C1043 0.930 . S
C1034 H1028 0.930 . S
C1034 C1035 1.355 . S
C1034 C1036 1.415 . S
C1035 C1034 1.355 . S
C1035 C1037 1.419 . S
C1036 C1034 1.415 . S
C1036 C1041 1.425 . S
C1036 C1043 1.409 . S
C1037 H1029 0.930 . S
C1037 C1035 1.419 . S
C1037 C1038 1.362 . S
C1038 H1030 0.930 . S
C1038 C1037 1.362 . S
C1038 C1041 1.409 . S
C1039 H1031 0.930 . S
C1039 C1040 1.355 . S
C1039 C1041 1.415 . S
C1040 C1039 1.355 . S
C1040 C1042 1.419 . S
C1041 C1036 1.425 . S
C1041 C1038 1.409 . S
C1041 C1039 1.415 . S
C1042 H1032 0.930 . S
C1042 C1040 1.419 . S
C1042 C1043 1.362 . S
C1043 H1033 0.930 . S
C1043 C1036 1.409 . S
C1043 C1042 1.362 . S
H1044 C1050 0.930 . S
H1045 C1053 0.930 . S
H1046 C1054 0.930 . S
H1047 C1055 0.930 . S
H1048 C1058 0.930 . S
H1049 C1059 0.930 . S
C1050 H1044 0.930 . S
C1050 C1051 1.355 . S
C1050 C1052 1.415 . S
C1051 C1050 1.355 . S
C1051 C1053 1.419 . S
C1052 C1050 1.415 . S
C1052 C1057 1.425 . S
C1052 C1059 1.409 . S
C1053 H1045 0.930 . S
C1053 C1051 1.419 . S
C1053 C1054 1.362 . S
C1054 H1046 0.930 . S
C1054 C1053 1.362 . S
C1054 C1057 1.409 . S
C1055 H1047 0.930 . S
C1055 C1056 1.355 . S
C1055 C1057 1.415 . S
C1056 C1055 1.355 . S
C1056 C1058 1.419 . S
C1057 C1052 1.425 . S
C1057 C1054 1.409 . S
C1057 C1055 1.415 . S
C1058 H1048 0.930 . S
C1058 C1056 1.419 . S
C1058 C1059 1.362 . S
C1059 H1049 0.930 . S
C1059 C1052 1.409 . S
C1059 C1058 1.362 . S
H1060 C1066 0.930 . S
H1061 C1069 0.930 . S
H1062 C1070 0.930 . S
H1063 C1071 0.930 . S
H1064 C1074 0.930 . S
H1065 C1075 0.930 . S
C1066 H1060 0.930 . S
C1066 C1067 1.355 . S
C1066 C1068 1.415 . S
C1067 C1066 1.355 . S
C1067 C1069 1.419 . S
C1068 C1066 1.415 . S
C1068 C1073 1.425 . S
C1068 C1075 1.409 . S
C1069 H1061 0.930 . S
C1069 C1067 1.419 . S
C1069 C1070 1.362 . S
C1070 H1062 0.930 . S
C1070 C1069 1.362 . S
C1070 C1073 1.409 . S
C1071 H1063 0.930 . S
C1071 C1072 1.355 . S
C1071 C1073 1.415 . S
C1072 C1071 1.355 . S
C1072 C1074 1.419 . S
C1073 C1068 1.425 . S
C1073 C1070 1.409 . S
C1073 C1071 1.415 . S
C1074 H1064 0.930 . S
C1074 C1072 1.419 . S
C1074 C1075 1.362 . S
C1075 H1065 0.930 . S
C1075 C1068 1.409 . S
C1075 C1074 1.362 . S
H1076 C1082 0.930 . S
H1077 C1085 0.930 . S
H1078 C1086 0.930 . S
H1079 C1087 0.930 . S
H1080 C1090 0.930 . S
H1081 C1091 0.930 . S
C1082 H1076 0.930 . S
C1082 C1083 1.355 . S
C1082 C1084 1.415 . S
C1083 C1082 1.355 . S
C1083 C1085 1.419 . S
C1084 C1082 1.415 . S
C1084 C1089 1.425 . S
C1084 C1091 1.409 . S
C1085 H1077 0.930 . S
C1085 C1083 1.419 . S
C1085 C1086 1.362 . S
C1086 H1078 0.930 . S
C1086 C1085 1.362 . S
C1086 C1089 1.409 . S
C1087 H1079 0.930 . S
C1087 C1088 1.355 . S
C1087 C1089 1.415 . S
C1088 C1087 1.355 . S
C1088 C1090 1.419 . S
C1089 C1084 1.425 . S
C1089 C1086 1.409 . S
C1089 C1087 1.415 . S
C1090 H1080 0.930 . S
C1090 C1088 1.419 . S
C1090 C1091 1.362 . S
C1091 H1081 0.930 . S
C1091 C1084 1.409 . S
C1091 C1090 1.362 . S
H1092 C1098 0.930 . S
H1093 C1101 0.930 . S
H1094 C1102 0.930 . S
H1095 C1103 0.930 . S
H1096 C1106 0.930 . S
H1097 C1107 0.930 . S
C1098 H1092 0.930 . S
C1098 C1099 1.355 . S
C1098 C1100 1.415 . S
C1099 C1098 1.355 . S
C1099 C1101 1.419 . S
C1100 C1098 1.415 . S
C1100 C1105 1.425 . S
C1100 C1107 1.409 . S
C1101 H1093 0.930 . S
C1101 C1099 1.419 . S
C1101 C1102 1.362 . S
C1102 H1094 0.930 . S
C1102 C1101 1.362 . S
C1102 C1105 1.409 . S
C1103 H1095 0.930 . S
C1103 C1104 1.355 . S
C1103 C1105 1.415 . S
C1104 C1103 1.355 . S
C1104 C1106 1.419 . S
C1105 C1100 1.425 . S
C1105 C1102 1.409 . S
C1105 C1103 1.415 . S
C1106 H1096 0.930 . S
C1106 C1104 1.419 . S
C1106 C1107 1.362 . S
C1107 H1097 0.930 . S
C1107 C1100 1.409 . S
C1107 C1106 1.362 . S
H1108 C1114 0.930 . S
H1109 C1117 0.930 . S
H1110 C1118 0.930 . S
H1111 C1119 0.930 . S
H1112 C1122 0.930 . S
H1113 C1123 0.930 . S
C1114 H1108 0.930 . S
C1114 C1115 1.355 . S
C1114 C1116 1.415 . S
C1115 C1114 1.355 . S
C1115 C1117 1.419 . S
C1116 C1114 1.415 . S
C1116 C1121 1.425 . S
C1116 C1123 1.409 . S
C1117 H1109 0.930 . S
C1117 C1115 1.419 . S
C1117 C1118 1.362 . S
C1118 H1110 0.930 . S
C1118 C1117 1.362 . S
C1118 C1121 1.409 . S
C1119 H1111 0.930 . S
C1119 C1120 1.355 . S
C1119 C1121 1.415 . S
C1120 C1119 1.355 . S
C1120 C1122 1.419 . S
C1121 C1116 1.425 . S
C1121 C1118 1.409 . S
C1121 C1119 1.415 . S
C1122 H1112 0.930 . S
C1122 C1120 1.419 . S
C1122 C1123 1.362 . S
C1123 H1113 0.930 . S
C1123 C1116 1.409 . S
C1123 C1122 1.362 . S
H1124 C1130 0.930 . S
H1125 C1133 0.930 . S
H1126 C1134 0.930 . S
H1127 C1135 0.930 . S
H1128 C1138 0.930 . S
H1129 C1139 0.930 . S
C1130 H1124 0.930 . S
C1130 C1131 1.355 . S
C1130 C1132 1.415 . S
C1131 C1130 1.355 . S
C1131 C1133 1.419 . S
C1132 C1130 1.415 . S
C1132 C1137 1.425 . S
C1132 C1139 1.409 . S
C1133 H1125 0.930 . S
C1133 C1131 1.419 . S
C1133 C1134 1.362 . S
C1134 H1126 0.930 . S
C1134 C1133 1.362 . S
C1134 C1137 1.409 . S
C1135 H1127 0.930 . S
C1135 C1136 1.355 . S
C1135 C1137 1.415 . S
C1136 C1135 1.355 . S
C1136 C1138 1.419 . S
C1137 C1132 1.425 . S
C1137 C1134 1.409 . S
C1137 C1135 1.415 . S
C1138 H1128 0.930 . S
C1138 C1136 1.419 . S
C1138 C1139 1.362 . S
C1139 H1129 0.930 . S
C1139 C1132 1.409 . S
C1139 C1138 1.362 . S
H1140 C1146 0.930 . S
H1141 C1149 0.930 . S
H1142 C1150 0.930 . S
H1143 C1151 0.930 . S
H1144 C1154 0.930 . S
H1145 C1155 0.930 . S
C1146 H1140 0.930 . S
C1146 C1147 1.355 . S
C1146 C1148 1.415 . S
C1147 C1146 1.355 . S
C1147 C1149 1.419 . S
C1148 C1146 1.415 . S
C1148 C1153 1.425 . S
C1148 C1155 1.409 . S
C1149 H1141 0.930 . S
C1149 C1147 1.419 . S
C1149 C1150 1.362 . S
C1150 H1142 0.930 . S
C1150 C1149 1.362 . S
C1150 C1153 1.409 . S
C1151 H1143 0.930 . S
C1151 C1152 1.355 . S
C1151 C1153 1.415 . S
C1152 C1151 1.355 . S
C1152 C1154 1.419 . S
C1153 C1148 1.425 . S
C1153 C1150 1.409 . S
C1153 C1151 1.415 . S
C1154 H1144 0.930 . S
C1154 C1152 1.419 . S
C1154 C1155 1.362 . S
C1155 H1145 0.930 . S
C1155 C1148 1.409 . S
C1155 C1154 1.362 . S
H1156 C1162 0.930 . S
H1157 C1165 0.930 . S
H1158 C1166 0.930 . S
H1159 C1167 0.930 . S
H1160 C1170 0.930 . S
H1161 C1171 0.930 . S
C1162 H1156 0.930 . S
C1162 C1163 1.355 . S
C1162 C1164 1.415 . S
C1163 C1162 1.355 . S
C1163 C1165 1.419 . S
C1164 C1162 1.415 . S
C1164 C1169 1.425 . S
C1164 C1171 1.409 . S
C1165 H1157 0.930 . S
C1165 C1163 1.419 . S
C1165 C1166 1.362 . S
C1166 H1158 0.930 . S
C1166 C1165 1.362 . S
C1166 C1169 1.409 . S
C1167 H1159 0.930 . S
C1167 C1168 1.355 . S
C1167 C1169 1.415 . S
C1168 C1167 1.355 . S
C1168 C1170 1.419 . S
C1169 C1164 1.425 . S
C1169 C1166 1.409 . S
C1169 C1167 1.415 . S
C1170 H1160 0.930 . S
C1170 C1168 1.419 . S
C1170 C1171 1.362 . S
C1171 H1161 0.930 . S
C1171 C1164 1.409 . S
C1171 C1170 1.362 . S
H1172 C1178 0.930 . S
H1173 C1181 0.930 . S
H1174 C1182 0.930 . S
H1175 C1183 0.930 . S
H1176 C1186 0.930 . S
H1177 C1187 0.930 . S
C1178 H1172 0.930 . S
C1178 C1179 1.355 . S
C1178 C1180 1.415 . S
C1179 C1178 1.355 . S
C1179 C1181 1.419 . S
C1180 C1178 1.415 . S
C1180 C1185 1.425 . S
C1180 C1187 1.409 . S
C1181 H1173 0.930 . S
C1181 C1179 1.419 . S
C1181 C1182 1.362 . S
C1182 H1174 0.930 . S
C1182 C1181 1.362 . S
C1182 C1185 1.409 . S
C1183 H1175 0.930 . S
C1183 C1184 1.355 . S
C1183 C1185 1.415 . S
C1184 C1183 1.355 . S
C1184 C1186 1.419 . S
C1185 C1180 1.425 . S
C1185 C1182 1.409 . S
C1185 C1183 1.415 . S
C1186 H1176 0.930 . S
C1186 C1184 1.419 . S
C1186 C1187 1.362 . S
C1187 H1177 0.930 . S
C1187 C1180 1.409 . S
C1187 C1186 1.362 . S
H1188 C1194 0.930 . S
H1189 C1197 0.930 . S
H1190 C1198 0.930 . S
H1191 C1199 0.930 . S
H1192 C1202 0.930 . S
H1193 C1203 0.930 . S
C1194 H1188 0.930 . S
C1194 C1195 1.355 . S
C1194 C1196 1.415 . S
C1195 C1194 1.355 . S
C1195 C1197 1.419 . S
C1196 C1194 1.415 . S
C1196 C1201 1.425 . S
C1196 C1203 1.409 . S
C1197 H1189 0.930 . S
C1197 C1195 1.419 . S
C1197 C1198 1.362 . S
C1198 H1190 0.930 . S
C1198 C1197 1.362 . S
C1198 C1201 1.409 . S
C1199 H1191 0.930 . S
C1199 C1200 1.355 . S
C1199 C1201 1.415 . S
C1200 C1199 1.355 . S
C1200 C1202 1.419 . S
C1201 C1196 1.425 . S
C1201 C1198 1.409 . S
C1201 C1199 1.415 . S
C1202 H1192 0.930 . S
C1202 C1200 1.419 . S
C1202 C1203 1.362 . S
C1203 H1193 0.930 . S
C1203 C1196 1.409 . S
C1203 C1202 1.362 . S
H1204 C1210 0.930 . S
H1205 C1213 0.930 . S
H1206 C1214 0.930 . S
H1207 C1215 0.930 . S
H1208 C1218 0.930 . S
H1209 C1219 0.930 . S
C1210 H1204 0.930 . S
C1210 C1211 1.355 . S
C1210 C1212 1.415 . S
C1211 C1210 1.355 . S
C1211 C1213 1.419 . S
C1212 C1210 1.415 . S
C1212 C1217 1.425 . S
C1212 C1219 1.409 . S
C1213 H1205 0.930 . S
C1213 C1211 1.419 . S
C1213 C1214 1.362 . S
C1214 H1206 0.930 . S
C1214 C1213 1.362 . S
C1214 C1217 1.409 . S
C1215 H1207 0.930 . S
C1215 C1216 1.355 . S
C1215 C1217 1.415 . S
C1216 C1215 1.355 . S
C1216 C1218 1.419 . S
C1217 C1212 1.425 . S
C1217 C1214 1.409 . S
C1217 C1215 1.415 . S
C1218 H1208 0.930 . S
C1218 C1216 1.419 . S
C1218 C1219 1.362 . S
C1219 H1209 0.930 . S
C1219 C1212 1.409 . S
C1219 C1218 1.362 . S
H1220 C1226 0.930 . S
H1221 C1229 0.930 . S
H1222 C1230 0.930 . S
H1223 C1231 0.930 . S
H1224 C1234 0.930 . S
H1225 C1235 0.930 . S
C1226 H1220 0.930 . S
C1226 C1227 1.355 . S
C1226 C1228 1.415 . S
C1227 C1226 1.355 . S
C1227 C1229 1.419 . S
C1228 C1226 1.415 . S
C1228 C1233 1.425 . S
C1228 C1235 1.409 . S
C1229 H1221 0.930 . S
C1229 C1227 1.419 . S
C1229 C1230 1.362 . S
C1230 H1222 0.930 . S
C1230 C1229 1.362 . S
C1230 C1233 1.409 . S
C1231 H1223 0.930 . S
C1231 C1232 1.355 . S
C1231 C1233 1.415 . S
C1232 C1231 1.355 . S
C1232 C1234 1.419 . S
C1233 C1228 1.425 . S
C1233 C1230 1.409 . S
C1233 C1231 1.415 . S
C1234 H1224 0.930 . S
C1234 C1232 1.419 . S
C1234 C1235 1.362 . S
C1235 H1225 0.930 . S
C1235 C1228 1.409 . S
C1235 C1234 1.362 . S
H1236 C1242 0.904 1_554 S
H1237 C1245 0.930 . S
H1238 C1246 0.930 . S
H1239 C1247 0.930 . S
H1240 C1250 0.930 . S
H1241 C1251 0.930 1_554 S
C1242 H1236 0.904 1_556 S
C1242 C1243 1.365 . S
C1242 C1244 1.429 . S
C1243 C1242 1.365 . S
C1243 C1245 1.419 . S
C1244 C1242 1.429 . S
C1244 C1249 1.425 . S
C1244 C1251 1.409 . S
C1245 H1237 0.930 . S
C1245 C1243 1.419 . S
C1245 C1246 1.362 . S
C1246 H1238 0.930 . S
C1246 C1245 1.362 . S
C1246 C1249 1.409 . S
C1247 H1239 0.930 . S
C1247 C1248 1.355 . S
C1247 C1249 1.415 . S
C1248 C1247 1.355 . S
C1248 C1250 1.419 . S
C1249 C1244 1.425 . S
C1249 C1246 1.409 . S
C1249 C1247 1.415 . S
C1250 H1240 0.930 . S
C1250 C1248 1.419 . S
C1250 C1251 1.362 . S
C1251 H1241 0.930 1_556 S
C1251 C1244 1.409 . S
C1251 C1250 1.362 . S
H1252 C1258 0.930 . S
H1253 C1261 0.930 . S
H1254 C1262 0.930 1_554 S
H1255 C1263 0.930 . S
H1256 C1266 0.930 . S
H1257 C1267 0.930 . S
C1258 H1252 0.930 . S
C1258 C1259 1.355 . S
C1258 C1260 1.415 . S
C1259 C1258 1.355 . S
C1259 C1261 1.419 1_556 S
C1260 C1258 1.415 . S
C1260 C1265 1.425 . S
C1260 C1267 1.409 . S
C1261 H1253 0.930 . S
C1261 C1259 1.419 1_554 S
C1261 C1262 1.362 1_554 S
C1262 H1254 0.930 1_556 S
C1262 C1261 1.362 1_556 S
C1262 C1265 1.409 . S
C1263 H1255 0.930 . S
C1263 C1264 1.355 . S
C1263 C1265 1.415 . S
C1264 C1263 1.355 . S
C1264 C1266 1.419 . S
C1265 C1260 1.425 . S
C1265 C1262 1.409 . S
C1265 C1263 1.415 . S
C1266 H1256 0.930 . S
C1266 C1264 1.419 . S
C1266 C1267 1.362 . S
C1267 H1257 0.930 . S
C1267 C1260 1.409 . S
C1267 C1266 1.362 . S
H1268 C1274 0.930 1_554 S
H1269 C1277 0.930 . S
H1270 C1278 0.930 . S
H1271 C1279 0.930 . S
H1272 C1282 0.930 . S
H1273 C1283 0.948 . S
C1274 H1268 0.930 1_556 S
C1274 C1275 1.355 . S
C1274 C1276 1.415 . S
C1275 C1274 1.355 . S
C1275 C1277 1.419 . S
C1276 C1274 1.415 . S
C1276 C1281 1.425 . S
C1276 C1283 1.409 . S
C1277 H1269 0.930 . S
C1277 C1275 1.419 . S
C1277 C1278 1.362 . S
C1278 H1270 0.930 . S
C1278 C1277 1.362 . S
C1278 C1281 1.409 . S
C1279 H1271 0.930 . S
C1279 C1280 1.355 . S
C1279 C1281 1.415 . S
C1280 C1279 1.355 . S
C1280 C1282 1.419 . S
C1281 C1276 1.425 . S
C1281 C1278 1.409 . S
C1281 C1279 1.415 . S
C1282 H1272 0.930 . S
C1282 C1280 1.419 . S
C1282 C1283 1.362 . S
C1283 H1273 0.948 . S
C1283 C1276 1.409 . S
C1283 C1282 1.362 . S
H1284 C1290 0.930 . S
H1285 C1293 0.930 . S
H1286 C1294 0.930 1_554 S
H1287 C1295 0.930 . S
H1288 C1298 0.930 . S
H1289 C1299 0.930 . S
C1290 H1284 0.930 . S
C1290 C1291 1.355 . S
C1290 C1292 1.415 . S
C1291 C1290 1.355 . S
C1291 C1293 1.419 1_556 S
C1292 C1290 1.415 . S
C1292 C1297 1.425 . S
C1292 C1299 1.409 . S
C1293 H1285 0.930 . S
C1293 C1291 1.419 1_554 S
C1293 C1294 1.362 1_554 S
C1294 H1286 0.930 1_556 S
C1294 C1293 1.362 1_556 S
C1294 C1297 1.409 . S
C1295 H1287 0.930 . S
C1295 C1296 1.355 . S
C1295 C1297 1.415 . S
C1296 C1295 1.355 . S
C1296 C1298 1.419 . S
C1297 C1292 1.425 . S
C1297 C1294 1.409 . S
C1297 C1295 1.415 . S
C1298 H1288 0.930 . S
C1298 C1296 1.419 . S
C1298 C1299 1.362 . S
C1299 H1289 0.930 . S
C1299 C1292 1.409 . S
C1299 C1298 1.362 . S
H1300 C1306 0.930 . S
H1301 C1309 0.930 . S
H1302 C1310 0.930 1_554 S
H1303 C1311 0.930 . S
H1304 C1314 0.930 . S
H1305 C1315 0.930 . S
C1306 H1300 0.930 . S
C1306 C1307 1.355 . S
C1306 C1308 1.415 . S
C1307 C1306 1.355 . S
C1307 C1309 1.419 1_556 S
C1308 C1306 1.415 . S
C1308 C1313 1.425 . S
C1308 C1315 1.409 . S
C1309 H1301 0.930 . S
C1309 C1307 1.419 1_554 S
C1309 C1310 1.362 1_554 S
C1310 H1302 0.930 1_556 S
C1310 C1309 1.362 1_556 S
C1310 C1313 1.409 . S
C1311 H1303 0.930 . S
C1311 C1312 1.355 . S
C1311 C1313 1.415 . S
C1312 C1311 1.355 . S
C1312 C1314 1.419 . S
C1313 C1308 1.425 . S
C1313 C1310 1.409 . S
C1313 C1311 1.415 . S
C1314 H1304 0.930 . S
C1314 C1312 1.419 . S
C1314 C1315 1.362 . S
C1315 H1305 0.930 . S
C1315 C1308 1.409 . S
C1315 C1314 1.362 . S
H1316 C1322 0.930 . S
H1317 C1325 0.930 . S
H1318 C1326 0.930 . S
H1319 C1327 0.930 . S
H1320 C1330 0.930 . S
H1321 C1331 0.930 . S
C1322 H1316 0.930 . S
C1322 C1323 1.355 . S
C1322 C1324 1.415 . S
C1323 C1322 1.355 . S
C1323 C1325 1.419 1_556 S
C1324 C1322 1.415 . S
C1324 C1329 1.425 . S
C1324 C1331 1.409 . S
C1325 H1317 0.930 . S
C1325 C1323 1.419 1_554 S
C1325 C1326 1.362 . S
C1326 H1318 0.930 . S
C1326 C1325 1.362 . S
C1326 C1329 1.409 1_554 S
C1327 H1319 0.930 . S
C1327 C1328 1.355 . S
C1327 C1329 1.415 . S
C1328 C1327 1.355 . S
C1328 C1330 1.419 . S
C1329 C1324 1.425 . S
C1329 C1326 1.409 1_556 S
C1329 C1327 1.415 . S
C1330 H1320 0.930 . S
C1330 C1328 1.419 . S
C1330 C1331 1.362 . S
C1331 H1321 0.930 . S
C1331 C1324 1.409 . S
C1331 C1330 1.362 . S
H1332 C1338 0.930 . S
H1333 C1341 0.930 . S
H1334 C1342 0.930 . S
H1335 C1343 0.930 . S
H1336 C1346 0.930 . S
H1337 C1347 0.930 . S
C1338 H1332 0.930 . S
C1338 C1339 1.355 . S
C1338 C1340 1.415 . S
C1339 C1338 1.355 . S
C1339 C1341 1.419 . S
C1340 C1338 1.415 . S
C1340 C1345 1.425 . S
C1340 C1347 1.409 . S
C1341 H1333 0.930 . S
C1341 C1339 1.419 . S
C1341 C1342 1.362 . S
C1342 H1334 0.930 . S
C1342 C1341 1.362 . S
C1342 C1345 1.409 . S
C1343 H1335 0.930 . S
C1343 C1344 1.355 . S
C1343 C1345 1.415 . S
C1344 C1343 1.355 . S
C1344 C1346 1.419 . S
C1345 C1340 1.425 . S
C1345 C1342 1.409 . S
C1345 C1343 1.415 . S
C1346 H1336 0.930 . S
C1346 C1344 1.419 . S
C1346 C1347 1.362 . S
C1347 H1337 0.930 . S
C1347 C1340 1.409 . S
C1347 C1346 1.362 . S
H1348 C1354 0.930 . S
H1349 C1357 0.930 . S
H1350 C1358 0.930 . S
H1351 C1359 0.930 . S
H1352 C1362 0.930 . S
H1353 C1363 0.930 . S
C1354 H1348 0.930 . S
C1354 C1355 1.355 . S
C1354 C1356 1.415 . S
C1355 C1354 1.355 . S
C1355 C1357 1.419 . S
C1356 C1354 1.415 . S
C1356 C1361 1.425 . S
C1356 C1363 1.409 . S
C1357 H1349 0.930 . S
C1357 C1355 1.419 . S
C1357 C1358 1.362 . S
C1358 H1350 0.930 . S
C1358 C1357 1.362 . S
C1358 C1361 1.409 . S
C1359 H1351 0.930 . S
C1359 C1360 1.355 . S
C1359 C1361 1.415 . S
C1360 C1359 1.355 . S
C1360 C1362 1.419 . S
C1361 C1356 1.425 . S
C1361 C1358 1.409 . S
C1361 C1359 1.415 . S
C1362 H1352 0.930 . S
C1362 C1360 1.419 . S
C1362 C1363 1.362 . S
C1363 H1353 0.930 . S
C1363 C1356 1.409 . S
C1363 C1362 1.362 . S
H1364 C1370 0.930 . S
H1365 C1373 0.930 1_556 S
H1366 C1374 0.930 1_556 S
H1367 C1375 0.930 . S
H1368 C1378 0.930 . S
H1369 C1379 0.930 . S
C1370 H1364 0.930 . S
C1370 C1371 1.355 . S
C1370 C1372 1.415 . S
C1371 C1370 1.355 . S
C1371 C1373 1.419 . S
C1372 C1370 1.415 . S
C1372 C1377 1.425 . S
C1372 C1379 1.409 . S
C1373 H1365 0.930 1_554 S
C1373 C1371 1.419 . S
C1373 C1374 1.362 . S
C1374 H1366 0.930 1_554 S
C1374 C1373 1.362 . S
C1374 C1377 1.409 . S
C1375 H1367 0.930 . S
C1375 C1376 1.355 . S
C1375 C1377 1.415 . S
C1376 C1375 1.355 . S
C1376 C1378 1.419 . S
C1377 C1372 1.425 . S
C1377 C1374 1.409 . S
C1377 C1375 1.415 . S
C1378 H1368 0.930 . S
C1378 C1376 1.419 . S
C1378 C1379 1.362 . S
C1379 H1369 0.930 . S
C1379 C1372 1.409 . S
C1379 C1378 1.362 . S
H1380 C1386 0.930 . S
H1381 C1389 0.930 . S
H1382 C1390 0.930 . S
H1383 C1391 0.930 . S
H1384 C1394 0.930 . S
H1385 C1395 0.930 . S
C1386 H1380 0.930 . S
C1386 C1387 1.355 . S
C1386 C1388 1.415 . S
C1387 C1386 1.355 . S
C1387 C1389 1.419 . S
C1388 C1386 1.415 . S
C1388 C1393 1.425 . S
C1388 C1395 1.409 . S
C1389 H1381 0.930 . S
C1389 C1387 1.419 . S
C1389 C1390 1.362 . S
C1390 H1382 0.930 . S
C1390 C1389 1.362 . S
C1390 C1393 1.409 . S
C1391 H1383 0.930 . S
C1391 C1392 1.355 . S
C1391 C1393 1.415 . S
C1392 C1391 1.355 . S
C1392 C1394 1.419 . S
C1393 C1388 1.425 . S
C1393 C1390 1.409 . S
C1393 C1391 1.415 . S
C1394 H1384 0.930 . S
C1394 C1392 1.419 . S
C1394 C1395 1.362 . S
C1395 H1385 0.930 . S
C1395 C1388 1.409 . S
C1395 C1394 1.362 . S
H1396 C1402 0.930 . S
H1397 C1405 0.930 . S
H1398 C1406 0.930 . S
H1399 C1407 0.930 . S
H1400 C1410 0.930 . S
H1401 C1411 0.930 . S
C1402 H1396 0.930 . S
C1402 C1403 1.355 . S
C1402 C1404 1.415 . S
C1403 C1402 1.355 . S
C1403 C1405 1.419 . S
C1404 C1402 1.415 . S
C1404 C1409 1.425 . S
C1404 C1411 1.409 . S
C1405 H1397 0.930 . S
C1405 C1403 1.419 . S
C1405 C1406 1.362 . S
C1406 H1398 0.930 . S
C1406 C1405 1.362 . S
C1406 C1409 1.409 . S
C1407 H1399 0.930 . S
C1407 C1408 1.355 . S
C1407 C1409 1.415 . S
C1408 C1407 1.355 . S
C1408 C1410 1.419 . S
C1409 C1404 1.425 . S
C1409 C1406 1.409 . S
C1409 C1407 1.415 . S
C1410 H1400 0.930 . S
C1410 C1408 1.419 . S
C1410 C1411 1.362 . S
C1411 H1401 0.930 . S
C1411 C1404 1.409 . S
C1411 C1410 1.362 . S
H1412 C1418 0.930 . S
H1413 C1421 0.930 . S
H1414 C1422 0.930 . S
H1415 C1423 0.930 . S
H1416 C1426 0.930 . S
H1417 C1427 0.930 . S
C1418 H1412 0.930 . S
C1418 C1419 1.355 . S
C1418 C1420 1.415 . S
C1419 C1418 1.355 . S
C1419 C1421 1.419 . S
C1420 C1418 1.415 . S
C1420 C1425 1.425 . S
C1420 C1427 1.409 . S
C1421 H1413 0.930 . S
C1421 C1419 1.419 . S
C1421 C1422 1.362 . S
C1422 H1414 0.930 . S
C1422 C1421 1.362 . S
C1422 C1425 1.409 . S
C1423 H1415 0.930 . S
C1423 C1424 1.355 . S
C1423 C1425 1.415 . S
C1424 C1423 1.355 . S
C1424 C1426 1.419 . S
C1425 C1420 1.425 . S
C1425 C1422 1.409 . S
C1425 C1423 1.415 . S
C1426 H1416 0.930 . S
C1426 C1424 1.419 . S
C1426 C1427 1.362 . S
C1427 H1417 0.930 . S
C1427 C1420 1.409 . S
C1427 C1426 1.362 . S
H1428 C1434 0.930 1_655 S
H1429 C1437 0.930 . S
H1430 C1438 0.930 . S
H1431 C1439 0.930 . S
H1432 C1442 0.930 . S
H1433 C1443 0.930 . S
C1434 H1428 0.930 1_455 S
C1434 C1435 1.355 . S
C1434 C1436 1.415 . S
C1435 C1434 1.355 . S
C1435 C1437 1.419 . S
C1436 C1434 1.415 . S
C1436 C1441 1.425 . S
C1436 C1443 1.409 1_455 S
C1437 H1429 0.930 . S
C1437 C1435 1.419 . S
C1437 C1438 1.362 . S
C1438 H1430 0.930 . S
C1438 C1437 1.362 . S
C1438 C1441 1.409 . S
C1439 H1431 0.930 . S
C1439 C1440 1.355 . S
C1439 C1441 1.415 . S
C1440 C1439 1.355 . S
C1440 C1442 1.419 1_455 S
C1441 C1436 1.425 . S
C1441 C1438 1.409 . S
C1441 C1439 1.415 . S
C1442 H1432 0.930 . S
C1442 C1440 1.419 1_655 S
C1442 C1443 1.362 . S
C1443 H1433 0.930 . S
C1443 C1436 1.409 1_655 S
C1443 C1442 1.362 . S
H1444 C1450 0.930 . S
H1445 C1453 0.930 . S
H1446 C1454 0.930 . S
H1447 C1455 0.930 . S
H1448 C1458 0.930 . S
H1449 C1459 0.930 . S
C1450 H1444 0.930 . S
C1450 C1451 1.355 . S
C1450 C1452 1.415 . S
C1451 C1450 1.355 . S
C1451 C1453 1.419 . S
C1452 C1450 1.415 . S
C1452 C1457 1.425 . S
C1452 C1459 1.409 . S
C1453 H1445 0.930 . S
C1453 C1451 1.419 . S
C1453 C1454 1.362 . S
C1454 H1446 0.930 . S
C1454 C1453 1.362 . S
C1454 C1457 1.409 . S
C1455 H1447 0.930 . S
C1455 C1456 1.355 . S
C1455 C1457 1.415 . S
C1456 C1455 1.355 . S
C1456 C1458 1.419 . S
C1457 C1452 1.425 . S
C1457 C1454 1.409 . S
C1457 C1455 1.415 . S
C1458 H1448 0.930 . S
C1458 C1456 1.419 . S
C1458 C1459 1.362 . S
C1459 H1449 0.930 . S
C1459 C1452 1.409 . S
C1459 C1458 1.362 . S
H1460 C1466 0.930 . S
H1461 C1469 0.930 . S
H1462 C1470 0.930 . S
H1463 C1471 0.930 . S
H1464 C1474 0.930 . S
H1465 C1475 0.930 . S
C1466 H1460 0.930 . S
C1466 C1467 1.355 . S
C1466 C1468 1.415 . S
C1467 C1466 1.355 . S
C1467 C1469 1.419 1_565 S
C1468 C1466 1.415 . S
C1468 C1473 1.410 1_565 S
C1468 C1475 1.409 . S
C1469 H1461 0.930 . S
C1469 C1467 1.419 1_545 S
C1469 C1470 1.362 . S
C1470 H1462 0.930 . S
C1470 C1469 1.362 . S
C1470 C1473 1.431 . S
C1471 H1463 0.930 . S
C1471 C1472 1.355 1_545 S
C1471 C1473 1.408 . S
C1472 C1471 1.355 1_565 S
C1472 C1474 1.419 . S
C1473 C1468 1.410 1_545 S
C1473 C1470 1.431 . S
C1473 C1471 1.408 . S
C1474 H1464 0.930 . S
C1474 C1472 1.419 . S
C1474 C1475 1.362 . S
C1475 H1465 0.930 . S
C1475 C1468 1.409 . S
C1475 C1474 1.362 . S
H1476 C1482 0.930 . S
H1477 C1485 0.930 1_545 S
H1478 C1486 0.930 . S
H1479 C1487 0.930 . S
H1480 C1490 0.930 . S
H1481 C1491 0.930 . S
C1482 H1476 0.930 . S
C1482 C1483 1.355 . S
C1482 C1484 1.415 . S
C1483 C1482 1.355 . S
C1483 C1485 1.419 . S
C1484 C1482 1.415 . S
C1484 C1489 1.425 . S
C1484 C1491 1.409 . S
C1485 H1477 0.930 1_565 S
C1485 C1483 1.419 . S
C1485 C1486 1.362 1_565 S
C1486 H1478 0.930 . S
C1486 C1485 1.362 1_545 S
C1486 C1489 1.409 1_545 S
C1487 H1479 0.930 . S
C1487 C1488 1.355 1_545 S
C1487 C1489 1.415 1_545 S
C1488 C1487 1.355 1_565 S
C1488 C1490 1.419 . S
C1489 C1484 1.425 . S
C1489 C1486 1.409 1_565 S
C1489 C1487 1.415 1_565 S
C1490 H1480 0.930 . S
C1490 C1488 1.419 . S
C1490 C1491 1.362 . S
C1491 H1481 0.930 . S
C1491 C1484 1.409 . S
C1491 C1490 1.362 . S
H1492 C1498 0.930 . S
H1493 C1501 0.930 . S
H1494 C1502 0.930 . S
H1495 C1503 0.930 . S
H1496 C1506 0.930 . S
H1497 C1507 0.926 1_655 S
C1498 H1492 0.930 . S
C1498 C1499 1.355 . S
C1498 C1500 1.415 . S
C1499 C1498 1.355 . S
C1499 C1501 1.419 . S
C1500 C1498 1.415 . S
C1500 C1505 1.425 . S
C1500 C1507 1.393 . S
C1501 H1493 0.930 . S
C1501 C1499 1.419 . S
C1501 C1502 1.362 . S
C1502 H1494 0.930 . S
C1502 C1501 1.362 . S
C1502 C1505 1.409 . S
C1503 H1495 0.930 . S
C1503 C1504 1.349 . S
C1503 C1505 1.415 . S
C1504 C1503 1.349 . S
C1504 C1506 1.418 1_455 S
C1505 C1500 1.425 . S
C1505 C1502 1.409 . S
C1505 C1503 1.415 . S
C1506 H1496 0.930 . S
C1506 C1504 1.418 1_655 S
C1506 C1507 1.386 1_655 S
C1507 H1497 0.926 1_455 S
C1507 C1500 1.393 . S
C1507 C1506 1.386 1_455 S
H1508 C1514 0.930 . S
H1509 C1517 0.930 . S
H1510 C1518 0.930 . S
H1511 C1519 0.930 . S
H1512 C1522 0.930 . S
H1513 C1523 0.930 . S
C1514 H1508 0.930 . S
C1514 C1515 1.355 . S
C1514 C1516 1.415 . S
C1515 C1514 1.355 . S
C1515 C1517 1.419 . S
C1516 C1514 1.415 . S
C1516 C1521 1.425 . S
C1516 C1523 1.409 . S
C1517 H1509 0.930 . S
C1517 C1515 1.419 . S
C1517 C1518 1.362 . S
C1518 H1510 0.930 . S
C1518 C1517 1.362 . S
C1518 C1521 1.409 . S
C1519 H1511 0.930 . S
C1519 C1520 1.355 . S
C1519 C1521 1.415 . S
C1520 C1519 1.355 . S
C1520 C1522 1.419 . S
C1521 C1516 1.425 . S
C1521 C1518 1.409 . S
C1521 C1519 1.415 . S
C1522 H1512 0.930 . S
C1522 C1520 1.419 . S
C1522 C1523 1.362 . S
C1523 H1513 0.930 . S
C1523 C1516 1.409 . S
C1523 C1522 1.362 . S
H1524 C1530 0.930 . S
H1525 C1533 0.930 . S
H1526 C1534 0.930 . S
H1527 C1535 0.930 . S
H1528 C1538 0.930 . S
H1529 C1539 0.930 . S
C1530 H1524 0.930 . S
C1530 C1531 1.355 . S
C1530 C1532 1.415 . S
C1531 C1530 1.355 . S
C1531 C1533 1.419 . S
C1532 C1530 1.415 . S
C1532 C1537 1.425 . S
C1532 C1539 1.409 . S
C1533 H1525 0.930 . S
C1533 C1531 1.419 . S
C1533 C1534 1.362 . S
C1534 H1526 0.930 . S
C1534 C1533 1.362 . S
C1534 C1537 1.409 . S
C1535 H1527 0.930 . S
C1535 C1536 1.355 . S
C1535 C1537 1.415 . S
C1536 C1535 1.355 . S
C1536 C1538 1.419 . S
C1537 C1532 1.425 . S
C1537 C1534 1.409 . S
C1537 C1535 1.415 . S
C1538 H1528 0.930 . S
C1538 C1536 1.419 . S
C1538 C1539 1.362 . S
C1539 H1529 0.930 . S
C1539 C1532 1.409 . S
C1539 C1538 1.362 . S
H1540 C1546 0.930 . S
H1541 C1549 0.930 . S
H1542 C1550 0.930 . S
H1543 C1551 0.930 . S
H1544 C1554 0.930 . S
H1545 C1555 0.930 . S
C1546 H1540 0.930 . S
C1546 C1547 1.355 . S
C1546 C1548 1.415 . S
C1547 C1546 1.355 . S
C1547 C1549 1.419 . S
C1548 C1546 1.415 . S
C1548 C1553 1.425 . S
C1548 C1555 1.409 . S
C1549 H1541 0.930 . S
C1549 C1547 1.419 . S
C1549 C1550 1.362 . S
C1550 H1542 0.930 . S
C1550 C1549 1.362 . S
C1550 C1553 1.409 . S
C1551 H1543 0.930 . S
C1551 C1552 1.355 . S
C1551 C1553 1.415 . S
C1552 C1551 1.355 . S
C1552 C1554 1.419 . S
C1553 C1548 1.425 . S
C1553 C1550 1.409 . S
C1553 C1551 1.415 . S
C1554 H1544 0.930 . S
C1554 C1552 1.419 . S
C1554 C1555 1.362 . S
C1555 H1545 0.930 . S
C1555 C1548 1.409 . S
C1555 C1554 1.362 . S
H1556 C1562 0.930 . S
H1557 C1565 0.930 . S
H1558 C1566 0.930 . S
H1559 C1567 0.930 . S
H1560 C1570 0.930 . S
H1561 C1571 0.930 . S
C1562 H1556 0.930 . S
C1562 C1563 1.355 . S
C1562 C1564 1.415 . S
C1563 C1562 1.355 . S
C1563 C1565 1.419 . S
C1564 C1562 1.415 . S
C1564 C1569 1.425 . S
C1564 C1571 1.409 . S
C1565 H1557 0.930 . S
C1565 C1563 1.419 . S
C1565 C1566 1.362 . S
C1566 H1558 0.930 . S
C1566 C1565 1.362 . S
C1566 C1569 1.409 . S
C1567 H1559 0.930 . S
C1567 C1568 1.355 . S
C1567 C1569 1.415 . S
C1568 C1567 1.355 . S
C1568 C1570 1.419 . S
C1569 C1564 1.425 . S
C1569 C1566 1.409 . S
C1569 C1567 1.415 . S
C1570 H1560 0.930 . S
C1570 C1568 1.419 . S
C1570 C1571 1.362 . S
C1571 H1561 0.930 . S
C1571 C1564 1.409 . S
C1571 C1570 1.362 . S
H1572 C1578 0.930 . S
H1573 C1581 0.930 . S
H1574 C1582 0.930 . S
H1575 C1583 0.930 . S
H1576 C1586 0.930 . S
H1577 C1587 0.930 . S
C1578 H1572 0.930 . S
C1578 C1579 1.355 . S
C1578 C1580 1.415 . S
C1579 C1578 1.355 . S
C1579 C1581 1.419 1_545 S
C1580 C1578 1.415 . S
C1580 C1585 1.425 1_545 S
C1580 C1587 1.409 . S
C1581 H1573 0.930 . S
C1581 C1579 1.419 1_565 S
C1581 C1582 1.362 . S
C1582 H1574 0.930 . S
C1582 C1581 1.362 . S
C1582 C1585 1.409 . S
C1583 H1575 0.930 . S
C1583 C1584 1.355 1_565 S
C1583 C1585 1.415 . S
C1584 C1583 1.355 1_545 S
C1584 C1586 1.419 . S
C1585 C1580 1.425 1_565 S
C1585 C1582 1.409 . S
C1585 C1583 1.415 . S
C1586 H1576 0.930 . S
C1586 C1584 1.419 . S
C1586 C1587 1.362 . S
C1587 H1577 0.930 . S
C1587 C1580 1.409 . S
C1587 C1586 1.362 . S
H1588 C1594 0.930 . S
H1589 C1597 0.914 1_455 S
H1590 C1598 0.931 . S
H1591 C1599 0.930 . S
H1592 C1602 0.930 . S
H1593 C1603 0.930 . S
C1594 H1588 0.930 . S
C1594 C1595 1.355 . S
C1594 C1596 1.415 . S
C1595 C1594 1.355 . S
C1595 C1597 1.419 . S
C1596 C1594 1.415 . S
C1596 C1601 1.425 . S
C1596 C1603 1.409 . S
C1597 H1589 0.914 1_655 S
C1597 C1595 1.419 . S
C1597 C1598 1.378 1_655 S
C1598 H1590 0.931 . S
C1598 C1597 1.378 1_455 S
C1598 C1601 1.395 1_455 S
C1599 H1591 0.930 . S
C1599 C1600 1.351 1_455 S
C1599 C1601 1.418 1_455 S
C1600 C1599 1.351 1_655 S
C1600 C1602 1.419 . S
C1601 C1596 1.425 . S
C1601 C1598 1.395 1_655 S
C1601 C1599 1.418 1_655 S
C1602 H1592 0.930 . S
C1602 C1600 1.419 . S
C1602 C1603 1.362 . S
C1603 H1593 0.930 . S
C1603 C1596 1.409 . S
C1603 C1602 1.362 . S
H1604 C1610 0.930 . S
H1605 C1613 0.930 . S
H1606 C1614 0.930 . S
H1607 C1615 0.930 . S
H1608 C1618 0.930 . S
H1609 C1619 0.930 . S
C1610 H1604 0.930 . S
C1610 C1611 1.355 . S
C1610 C1612 1.415 . S
C1611 C1610 1.355 . S
C1611 C1613 1.419 . S
C1612 C1610 1.415 . S
C1612 C1617 1.425 . S
C1612 C1619 1.409 . S
C1613 H1605 0.930 . S
C1613 C1611 1.419 . S
C1613 C1614 1.362 . S
C1614 H1606 0.930 . S
C1614 C1613 1.362 . S
C1614 C1617 1.409 . S
C1615 H1607 0.930 . S
C1615 C1616 1.355 . S
C1615 C1617 1.415 . S
C1616 C1615 1.355 . S
C1616 C1618 1.419 . S
C1617 C1612 1.425 . S
C1617 C1614 1.409 . S
C1617 C1615 1.415 . S
C1618 H1608 0.930 . S
C1618 C1616 1.419 . S
C1618 C1619 1.362 . S
C1619 H1609 0.930 . S
C1619 C1612 1.409 . S
C1619 C1618 1.362 . S
H1620 C1626 0.930 . S
H1621 C1629 0.930 . S
H1622 C1630 0.930 . S
H1623 C1631 0.930 . S
H1624 C1634 0.930 . S
H1625 C1635 0.930 . S
C1626 H1620 0.930 . S
C1626 C1627 1.355 . S
C1626 C1628 1.415 . S
C1627 C1626 1.355 . S
C1627 C1629 1.419 . S
C1628 C1626 1.415 . S
C1628 C1633 1.425 . S
C1628 C1635 1.409 . S
C1629 H1621 0.930 . S
C1629 C1627 1.419 . S
C1629 C1630 1.362 . S
C1630 H1622 0.930 . S
C1630 C1629 1.362 . S
C1630 C1633 1.409 . S
C1631 H1623 0.930 . S
C1631 C1632 1.355 . S
C1631 C1633 1.415 . S
C1632 C1631 1.355 . S
C1632 C1634 1.419 . S
C1633 C1628 1.425 . S
C1633 C1630 1.409 . S
C1633 C1631 1.415 . S
C1634 H1624 0.930 . S
C1634 C1632 1.419 . S
C1634 C1635 1.362 . S
C1635 H1625 0.930 . S
C1635 C1628 1.409 . S
C1635 C1634 1.362 . S
H1636 C1642 0.930 . S
H1637 C1645 0.930 . S
H1638 C1646 0.930 . S
H1639 C1647 0.930 . S
H1640 C1650 0.930 . S
H1641 C1651 0.930 . S
C1642 H1636 0.930 . S
C1642 C1643 1.355 . S
C1642 C1644 1.415 . S
C1643 C1642 1.355 . S
C1643 C1645 1.419 . S
C1644 C1642 1.415 . S
C1644 C1649 1.425 . S
C1644 C1651 1.409 . S
C1645 H1637 0.930 . S
C1645 C1643 1.419 . S
C1645 C1646 1.362 . S
C1646 H1638 0.930 . S
C1646 C1645 1.362 . S
C1646 C1649 1.409 . S
C1647 H1639 0.930 . S
C1647 C1648 1.355 . S
C1647 C1649 1.415 . S
C1648 C1647 1.355 . S
C1648 C1650 1.419 . S
C1649 C1644 1.425 . S
C1649 C1646 1.409 . S
C1649 C1647 1.415 . S
C1650 H1640 0.930 . S
C1650 C1648 1.419 . S
C1650 C1651 1.362 . S
C1651 H1641 0.930 . S
C1651 C1644 1.409 . S
C1651 C1650 1.362 . S
H1652 C1658 0.930 . S
H1653 C1661 0.930 . S
H1654 C1662 0.930 . S
H1655 C1663 0.930 . S
H1656 C1666 0.930 . S
H1657 C1667 0.930 . S
C1658 H1652 0.930 . S
C1658 C1659 1.355 . S
C1658 C1660 1.415 . S
C1659 C1658 1.355 . S
C1659 C1661 1.419 . S
C1660 C1658 1.415 . S
C1660 C1665 1.425 . S
C1660 C1667 1.409 . S
C1661 H1653 0.930 . S
C1661 C1659 1.419 . S
C1661 C1662 1.362 . S
C1662 H1654 0.930 . S
C1662 C1661 1.362 . S
C1662 C1665 1.409 . S
C1663 H1655 0.930 . S
C1663 C1664 1.355 . S
C1663 C1665 1.415 . S
C1664 C1663 1.355 . S
C1664 C1666 1.419 . S
C1665 C1660 1.425 . S
C1665 C1662 1.409 . S
C1665 C1663 1.415 . S
C1666 H1656 0.930 . S
C1666 C1664 1.419 . S
C1666 C1667 1.362 . S
C1667 H1657 0.930 . S
C1667 C1660 1.409 . S
C1667 C1666 1.362 . S
H1668 C1674 0.930 . S
H1669 C1677 0.930 . S
H1670 C1678 0.930 . S
H1671 C1679 0.930 . S
H1672 C1682 0.930 . S
H1673 C1683 0.930 . S
C1674 H1668 0.930 . S
C1674 C1675 1.355 . S
C1674 C1676 1.415 . S
C1675 C1674 1.355 . S
C1675 C1677 1.419 . S
C1676 C1674 1.415 . S
C1676 C1681 1.425 . S
C1676 C1683 1.409 . S
C1677 H1669 0.930 . S
C1677 C1675 1.419 . S
C1677 C1678 1.362 . S
C1678 H1670 0.930 . S
C1678 C1677 1.362 . S
C1678 C1681 1.409 . S
C1679 H1671 0.930 . S
C1679 C1680 1.355 . S
C1679 C1681 1.415 . S
C1680 C1679 1.355 . S
C1680 C1682 1.419 . S
C1681 C1676 1.425 . S
C1681 C1678 1.409 . S
C1681 C1679 1.415 . S
C1682 H1672 0.930 . S
C1682 C1680 1.419 . S
C1682 C1683 1.362 . S
C1683 H1673 0.930 . S
C1683 C1676 1.409 . S
C1683 C1682 1.362 . S
H1684 C1690 0.930 . S
H1685 C1693 0.930 . S
H1686 C1694 0.930 . S
H1687 C1695 0.930 . S
H1688 C1698 0.930 . S
H1689 C1699 0.930 . S
C1690 H1684 0.930 . S
C1690 C1691 1.355 . S
C1690 C1692 1.415 . S
C1691 C1690 1.355 . S
C1691 C1693 1.419 . S
C1692 C1690 1.415 . S
C1692 C1697 1.425 . S
C1692 C1699 1.409 . S
C1693 H1685 0.930 . S
C1693 C1691 1.419 . S
C1693 C1694 1.362 . S
C1694 H1686 0.930 . S
C1694 C1693 1.362 . S
C1694 C1697 1.409 . S
C1695 H1687 0.930 . S
C1695 C1696 1.355 . S
C1695 C1697 1.415 . S
C1696 C1695 1.355 . S
C1696 C1698 1.419 . S
C1697 C1692 1.425 . S
C1697 C1694 1.409 . S
C1697 C1695 1.415 . S
C1698 H1688 0.930 . S
C1698 C1696 1.419 . S
C1698 C1699 1.362 . S
C1699 H1689 0.930 . S
C1699 C1692 1.409 . S
C1699 C1698 1.362 . S
H1700 C1706 0.930 . S
H1701 C1709 0.930 . S
H1702 C1710 0.930 . S
H1703 C1711 0.930 . S
H1704 C1714 0.930 . S
H1705 C1715 0.930 . S
C1706 H1700 0.930 . S
C1706 C1707 1.355 . S
C1706 C1708 1.415 . S
C1707 C1706 1.355 . S
C1707 C1709 1.419 . S
C1708 C1706 1.415 . S
C1708 C1713 1.425 . S
C1708 C1715 1.409 . S
C1709 H1701 0.930 . S
C1709 C1707 1.419 . S
C1709 C1710 1.362 . S
C1710 H1702 0.930 . S
C1710 C1709 1.362 . S
C1710 C1713 1.409 . S
C1711 H1703 0.930 . S
C1711 C1712 1.355 . S
C1711 C1713 1.415 . S
C1712 C1711 1.355 . S
C1712 C1714 1.419 . S
C1713 C1708 1.425 . S
C1713 C1710 1.409 . S
C1713 C1711 1.415 . S
C1714 H1704 0.930 . S
C1714 C1712 1.419 . S
C1714 C1715 1.362 . S
C1715 H1705 0.930 . S
C1715 C1708 1.409 . S
C1715 C1714 1.362 . S
H1716 C1722 0.930 . S
H1717 C1725 0.930 . S
H1718 C1726 0.930 . S
H1719 C1727 0.930 . S
H1720 C1730 0.930 . S
H1721 C1731 0.930 . S
C1722 H1716 0.930 . S
C1722 C1723 1.355 . S
C1722 C1724 1.415 . S
C1723 C1722 1.355 . S
C1723 C1725 1.419 1_655 S
C1724 C1722 1.415 . S
C1724 C1729 1.403 1_655 S
C1724 C1731 1.409 . S
C1725 H1717 0.930 . S
C1725 C1723 1.419 1_455 S
C1725 C1726 1.362 . S
C1726 H1718 0.930 . S
C1726 C1725 1.362 . S
C1726 C1729 1.410 . S
C1727 H1719 0.930 . S
C1727 C1728 1.355 1_455 S
C1727 C1729 1.436 . S
C1728 C1727 1.355 1_655 S
C1728 C1730 1.419 . S
C1729 C1724 1.403 1_455 S
C1729 C1726 1.410 . S
C1729 C1727 1.436 . S
C1730 H1720 0.930 . S
C1730 C1728 1.419 . S
C1730 C1731 1.362 . S
C1731 H1721 0.930 . S
C1731 C1724 1.409 . S
C1731 C1730 1.362 . S
H1732 C1738 0.930 . S
H1733 C1741 0.930 . S
H1734 C1742 0.930 . S
H1735 C1743 0.930 . S
H1736 C1746 0.930 . S
H1737 C1747 0.930 . S
C1738 H1732 0.930 . S
C1738 C1739 1.355 . S
C1738 C1740 1.415 . S
C1739 C1738 1.355 . S
C1739 C1741 1.419 . S
C1740 C1738 1.415 . S
C1740 C1745 1.425 . S
C1740 C1747 1.409 . S
C1741 H1733 0.930 . S
C1741 C1739 1.419 . S
C1741 C1742 1.362 . S
C1742 H1734 0.930 . S
C1742 C1741 1.362 . S
C1742 C1745 1.409 . S
C1743 H1735 0.930 . S
C1743 C1744 1.355 . S
C1743 C1745 1.415 . S
C1744 C1743 1.355 . S
C1744 C1746 1.419 . S
C1745 C1740 1.425 . S
C1745 C1742 1.409 . S
C1745 C1743 1.415 . S
C1746 H1736 0.930 . S
C1746 C1744 1.419 . S
C1746 C1747 1.362 . S
C1747 H1737 0.930 . S
C1747 C1740 1.409 . S
C1747 C1746 1.362 . S
H1748 C1754 0.930 . S
H1749 C1757 0.930 . S
H1750 C1758 0.930 . S
H1751 C1759 0.930 . S
H1752 C1762 0.930 . S
H1753 C1763 0.930 . S
C1754 H1748 0.930 . S
C1754 C1755 1.355 1_565 S
C1754 C1756 1.415 . S
C1755 C1754 1.355 1_545 S
C1755 C1757 1.419 . S
C1756 C1754 1.415 . S
C1756 C1761 1.425 1_565 S
C1756 C1763 1.409 . S
C1757 H1749 0.930 . S
C1757 C1755 1.419 . S
C1757 C1758 1.362 . S
C1758 H1750 0.930 . S
C1758 C1757 1.362 . S
C1758 C1761 1.409 . S
C1759 H1751 0.930 . S
C1759 C1760 1.346 1_545 S
C1759 C1761 1.415 . S
C1760 C1759 1.346 1_565 S
C1760 C1762 1.438 . S
C1761 C1756 1.425 1_545 S
C1761 C1758 1.409 . S
C1761 C1759 1.415 . S
C1762 H1752 0.930 . S
C1762 C1760 1.438 . S
C1762 C1763 1.362 . S
C1763 H1753 0.930 . S
C1763 C1756 1.409 . S
C1763 C1762 1.362 . S
C619 C8 1.494 . S
C624 C440 1.485 1_655 S
C635 C18 1.491 . S
C640 C453 1.492 . S
C656 C482 1.502 1_545 S
C651 C31 1.482 . S
C667 C34 1.541 . S
C672 C495 1.564 . S
C683 C5 1.528 . S
C688 C516 1.515 . S
C699 C21 1.487 . S
C704 C545 1.523 . S
C715 C47 1.484 . S
C720 C524 1.501 1_655 S
C736 C537 1.483 . S
C731 C57 1.539 . S
C752 C503 1.555 . S
C747 C70 1.540 . S
C763 C73 1.447 . S
C768 C474 1.500 1_545 S
C784 C432 1.514 . S
C779 C44 1.556 . S
C795 C60 1.480 . S
C800 C461 1.495 . S
C811 C86 1.578 . S
C816 C566 1.576 . S
C827 C96 1.539 . S
C832 C579 1.517 . S
C848 C608 1.502 . S
C843 C109 1.562 . S
C859 C112 1.596 . S
C864 C243 1.621 . S
C875 C83 1.593 . S
C880 C264 1.611 . S
C891 C99 1.551 . S
C896 C293 1.507 . S
C907 C125 1.476 . S
C912 C272 1.504 . S
C923 C135 1.525 . S
C928 C285 1.556 . S
C944 C251 1.553 . S
C939 C148 1.581 . S
C960 C600 1.590 . S
C955 C151 1.569 . S
C976 C558 1.554 . S
C971 C122 1.555 . S
C992 C587 1.581 . S
C987 C138 1.560 . S
C1003 C164 1.566 . S
C1008 C314 1.549 . S
C1019 C174 1.564 . S
C1024 C327 1.572 . S
C1035 C187 1.589 . S
C1040 C356 1.479 . S
C1051 C190 1.550 . S
C1056 C369 1.593 . S
C1072 C390 1.605 . S
C1067 C161 1.596 . S
C1088 C419 1.570 . S
C1083 C177 1.545 . S
C1104 C398 1.537 . S
C1099 C203 1.500 . S
C1120 C411 1.536 . S
C1115 C213 1.499 . S
C1131 C226 1.531 . S
C1136 C377 1.512 . S
C1152 C348 1.495 . S
C1147 C229 1.525 . S
C1163 C200 1.564 . S
C1168 C306 1.502 . S
C1184 C335 1.578 . S
C1179 C216 1.561 . S
C1200 C246 1.300 . S
C1195 C0 1.405 . S
C1211 C23 1.370 . S
C1216 C267 1.311 . S
C1232 C295 1.346 . S
C1227 C36 1.419 . S
C1248 C316 1.336 . S
C1243 C26 1.352 . S
C1264 C330 1.227 . S
C1259 C10 1.380 . S
C1280 C358 1.318 . S
C1275 C13 1.359 . S
C1291 C39 1.397 . S
C1296 C351 1.228 . S
C1307 C62 1.367 . S
C1312 C309 1.162 . S
C1323 C75 1.406 . S
C1328 C337 1.278 . S
C1339 C65 1.375 . S
C1344 C274 1.410 . S
C1360 C288 1.249 . S
C1355 C49 1.405 . S
C1371 C52 1.360 . S
C1376 C253 1.283 . S
C1392 C372 1.283 . S
C1387 C78 1.405 . S
C1403 C101 1.406 . S
C1408 C393 1.279 . S
C1419 C114 1.419 . S
C1424 C421 1.286 . S
C1440 C442 1.317 . S
C1435 C104 1.349 . S
C1451 C88 1.381 . S
C1456 C456 1.282 . S
C1467 C91 1.269 . S
C1472 C484 1.230 . S
C1483 C117 1.328 . S
C1488 C477 1.278 . S
C1499 C140 1.340 . S
C1504 C435 1.279 . S
C1520 C463 1.368 . S
C1515 C153 1.423 . S
C1531 C143 1.374 . S
C1536 C400 1.396 . S
C1547 C127 1.438 . S
C1552 C414 1.200 . S
C1568 C379 1.380 . S
C1563 C130 1.425 . S
C1584 C498 1.201 1_545 S
C1579 C156 1.306 . S
C1595 C179 1.314 . S
C1600 C519 1.159 1_655 S
C1611 C192 1.382 . S
C1616 C547 1.245 . S
C1632 C568 1.226 . S
C1627 C182 1.359 . S
C1648 C582 1.294 . S
C1643 C166 1.419 . S
C1659 C169 1.364 . S
C1664 C610 1.328 . S
C1675 C195 1.363 . S
C1680 C603 1.272 . S
C1691 C218 1.426 . S
C1696 C561 1.199 . S
C1712 C589 1.392 . S
C1707 C231 1.449 . S
C1728 C526 1.328 1_655 S
C1723 C221 1.309 . S
C1744 C540 1.290 . S
C1739 C205 1.395 . S
C1755 C208 1.338 . S
C1760 C505 1.223 . S
