# Generated by pormake.
# Topology ftw, (4,12)-cn, num edge types: 1
# Building blocks:
#     Node 0, Type 0, BuildingBlock: NAHDIM_clean_linker_0, # of connection points: 4
#     Node 1, Type 0, BuildingBlock: NAHDIM_clean_linker_0, # of connection points: 4
#     Node 2, Type 0, BuildingBlock: NAHDIM_clean_linker_0, # of connection points: 4
#     Node 3, Type 1, BuildingBlock: QEWDON_clean_sbu_0, # of connection points: 12
#     Edge 4, Type (0, 1), BuildingBlock: EZIPEK_clean_linker_0, # of connection points: 2
#     Edge 5, Type (0, 1), BuildingBlock: EZIPEK_clean_linker_0, # of connection points: 2
#     Edge 6, Type (0, 1), BuildingBlock: EZIPEK_clean_linker_0, # of connection points: 2
#     Edge 7, Type (0, 1), BuildingBlock: EZIPEK_clean_linker_0, # of connection points: 2
#     Edge 8, Type (0, 1), BuildingBlock: EZIPEK_clean_linker_0, # of connection points: 2
#     Edge 9, Type (0, 1), BuildingBlock: EZIPEK_clean_linker_0, # of connection points: 2
#     Edge 10, Type (0, 1), BuildingBlock: EZIPEK_clean_linker_0, # of connection points: 2
#     Edge 11, Type (0, 1), BuildingBlock: EZIPEK_clean_linker_0, # of connection points: 2
#     Edge 12, Type (0, 1), BuildingBlock: EZIPEK_clean_linker_0, # of connection points: 2
#     Edge 13, Type (0, 1), BuildingBlock: EZIPEK_clean_linker_0, # of connection points: 2
#     Edge 14, Type (0, 1), BuildingBlock: EZIPEK_clean_linker_0, # of connection points: 2
#     Edge 15, Type (0, 1), BuildingBlock: EZIPEK_clean_linker_0, # of connection points: 2
# Relax obj value: 0.037
# Max RMSD: 0.109
# Mean RMSD: 0.083
data_MOF--net-ftw--node1-QEWDON_clean_sbu_0--node2-NAHDIM_clean_linker_0--edge1-EZIPEK_clean_linker_0
_symmetry_space_group_name_H-M    P1
_symmetry_Int_Tables_number       1
_symmetry_cell_setting            triclinic
loop_
_symmetry_equiv_pos_as_xyz
'x, y, z'
_cell_length_a     26.619861
_cell_length_b     26.261125
_cell_length_c     27.235069
_cell_angle_alpha  90.549541
_cell_angle_beta   89.456022
_cell_angle_gamma 89.423117
loop_
_atom_site_label
_atom_site_type_symbol
_atom_site_fract_x
_atom_site_fract_y
_atom_site_fract_z
_atom_type_partial_charge
C0 C 0.08123 0.78764 0.29482 0.0
C1 C 0.04002 0.7608 0.26494 0.0
C2 C 0.99839 0.70277 0.32237 0.0
C3 C 0.95239 0.69045 0.34411 0.0
C4 C 0.94689 0.64579 0.37154 0.0
C5 C 0.98908 0.61357 0.3787 0.0
C6 C 0.03613 0.62653 0.35804 0.0
C7 C 0.04012 0.67043 0.3295 0.0
C8 C 0.89578 0.63252 0.39185 0.0
C9 C 0.08221 0.59349 0.36525 0.0
C10 C 0.98523 0.22135 0.33612 0.0
C11 C 0.02037 0.24693 0.29842 0.0
C12 C 0.9942 0.33597 0.30947 0.0
C13 C 0.03623 0.35562 0.33349 0.0
C14 C 0.03249 0.40107 0.36072 0.0
C15 C 0.98556 0.42678 0.36447 0.0
C16 C 0.94366 0.40801 0.33873 0.0
C17 C 0.9488 0.36304 0.31091 0.0
C18 C 0.07855 0.42125 0.386 0.0
C19 C 0.89327 0.43472 0.34164 0.0
C20 C 0.97482 0.30826 0.67238 0.0
C21 C 0.01935 0.32907 0.65357 0.0
C22 C 0.01911 0.37724 0.6317 0.0
C23 C 0.97333 0.40482 0.62806 0.0
C24 C 0.92859 0.38421 0.6475 0.0
C25 C 0.93012 0.3364 0.66998 0.0
C26 C 0.06788 0.39889 0.61286 0.0
C27 C 0.87919 0.4126 0.64434 0.0
C28 C 0.9846 0.79305 0.6987 0.0
C29 C 0.96581 0.76159 0.74279 0.0
C30 C 0.98695 0.67591 0.7101 0.0
C31 C 0.02806 0.64324 0.70285 0.0
C32 C 0.02574 0.60179 0.67022 0.0
C33 C 0.98031 0.59178 0.64551 0.0
C34 C 0.93787 0.62377 0.65388 0.0
C35 C 0.94186 0.66608 0.68548 0.0
C36 C 0.07195 0.56885 0.66216 0.0
C37 C 0.8882 0.61313 0.62974 0.0
C38 C 0.98355 0.56438 0.40448 0.0
C39 C 0.98279 0.52016 0.37555 0.0
C40 C 0.9802 0.47217 0.39684 0.0
C41 C 0.97608 0.46779 0.44833 0.0
C42 C 0.97116 0.42002 0.47064 0.0
C43 C 0.96923 0.4158 0.52141 0.0
C44 C 0.97231 0.45918 0.55183 0.0
C45 C 0.97239 0.45501 0.60348 0.0
C46 C 0.97396 0.49889 0.63276 0.0
C47 C 0.97707 0.54719 0.61183 0.0
C48 C 0.97874 0.55208 0.56012 0.0
C49 C 0.98407 0.59981 0.53768 0.0
C50 C 0.9855 0.60406 0.48674 0.0
C51 C 0.98188 0.56074 0.45629 0.0
C52 C 0.97753 0.51219 0.4782 0.0
C53 C 0.97584 0.50787 0.53009 0.0
C54 C 0.96956 0.18269 0.65892 0.0
C55 C 0.0034 0.21999 0.687 0.0
O56 O 1.00066 0.74583 0.29498 0.0
O57 O 0.99269 0.71604 0.74131 0.0
O58 O 0.97377 0.26297 0.69604 0.0
O59 O 0.9961 0.29135 0.2841 0.0
H60 H 0.05882 0.72689 0.24798 0.0
H61 H 0.10228 0.75995 0.31739 0.0
H62 H 0.06548 0.81685 0.32039 0.0
H63 H 0.10877 0.80587 0.26978 0.0
H64 H 0.92037 0.71546 0.3385 0.0
H65 H 0.07609 0.67872 0.31298 0.0
H66 H 0.88582 0.59313 0.38072 0.0
H67 H 0.86596 0.65906 0.37914 0.0
H68 H 0.89656 0.63392 0.43256 0.0
H69 H 0.11734 0.6135 0.35513 0.0
H70 H 0.07945 0.55882 0.34182 0.0
H71 H 0.08484 0.58112 0.40403 0.0
H72 H 0.05696 0.25495 0.31589 0.0
H73 H 0.95248 0.20405 0.3175 0.0
H74 H 0.97067 0.25003 0.36306 0.0
H75 H 0.00473 0.1922 0.35816 0.0
H76 H 0.07212 0.3361 0.33059 0.0
H77 H 0.91688 0.34782 0.29143 0.0
H78 H 0.08278 0.46253 0.37875 0.0
H79 H 0.1134 0.40099 0.37382 0.0
H80 H 0.07431 0.41658 0.42628 0.0
H81 H 0.86382 0.41389 0.32122 0.0
H82 H 0.89651 0.47356 0.32626 0.0
H83 H 0.88119 0.43892 0.38063 0.0
H84 H 0.03649 0.22848 0.66358 0.0
H85 H 0.05469 0.30889 0.65732 0.0
H86 H 0.89616 0.32042 0.68546 0.0
H87 H 0.06676 0.40135 0.57222 0.0
H88 H 0.10091 0.37521 0.62308 0.0
H89 H 0.07299 0.43807 0.62757 0.0
H90 H 0.84723 0.3899 0.6584 0.0
H91 H 0.87176 0.42302 0.60564 0.0
H92 H 0.8812 0.44851 0.66605 0.0
H93 H 0.92486 0.75492 0.74005 0.0
H94 H 0.96055 0.82644 0.69087 0.0
H95 H 0.9846 0.76944 0.66465 0.0
H96 H 0.02367 0.80597 0.70494 0.0
H97 H 0.06255 0.65105 0.72225 0.0
H98 H 0.90941 0.69052 0.69123 0.0
H99 H 0.07868 0.56213 0.6223 0.0
H100 H 0.0661 0.53128 0.67951 0.0
H101 H 0.10604 0.58618 0.67824 0.0
H102 H 0.85714 0.63667 0.64579 0.0
H103 H 0.8785 0.5723 0.63338 0.0
H104 H 0.89106 0.62156 0.58998 0.0
H105 H 0.98573 0.52305 0.33589 0.0
H106 H 0.96891 0.38527 0.4491 0.0
H107 H 0.96559 0.37802 0.53651 0.0
H108 H 0.97374 0.49533 0.67243 0.0
H109 H 0.98732 0.63443 0.55925 0.0
H110 H 0.98971 0.64172 0.47149 0.0
H111 H 0.93862 0.16931 0.68314 0.0
H112 H 0.99027 0.14917 0.64402 0.0
H113 H 0.95253 0.20226 0.62704 0.0
C114 C 0.79125 0.14624 0.71639 0.0
C115 C 0.7649 0.09459 0.72094 0.0
C116 C 0.71731 0.06641 0.64935 0.0
C117 C 0.71026 0.02168 0.62236 0.0
C118 C 0.66597 0.01368 0.59598 0.0
C119 C 0.62878 0.05266 0.59477 0.0
C120 C 0.63661 0.09893 0.62065 0.0
C121 C 0.68061 0.10512 0.6481 0.0
C122 C 0.65873 0.9631 0.57029 0.0
C123 C 0.59851 0.14183 0.61945 0.0
C124 C 0.28907 0.94522 0.73666 0.0
C125 C 0.32036 0.99239 0.74951 0.0
C126 C 0.36692 0.01913 0.6753 0.0
C127 C 0.37337 0.06001 0.64354 0.0
C128 C 0.41331 0.06085 0.60957 0.0
C129 C 0.44704 0.01887 0.60637 0.0
C130 C 0.43968 0.9764 0.63716 0.0
C131 C 0.39989 0.97702 0.67152 0.0
C132 C 0.42026 0.10739 0.57819 0.0
C133 C 0.47435 0.93064 0.63427 0.0
C134 C 0.35788 0.94388 0.28793 0.0
C135 C 0.35604 0.99332 0.30776 0.0
C136 C 0.39731 0.0132 0.33319 0.0
C137 C 0.44062 0.98227 0.34009 0.0
C138 C 0.44243 0.93244 0.31965 0.0
C139 C 0.40134 0.91434 0.29298 0.0
C140 C 0.39484 0.06743 0.35198 0.0
C141 C 0.48782 0.89825 0.32578 0.0
C142 C 0.80559 0.15108 0.23985 0.0
C143 C 0.77953 0.09962 0.24525 0.0
C144 C 0.69107 0.08764 0.26821 0.0
C145 C 0.64804 0.11761 0.27565 0.0
C146 C 0.60862 0.10125 0.30598 0.0
C147 C 0.61175 0.05278 0.32813 0.0
C148 C 0.65442 0.02124 0.31896 0.0
C149 C 0.69395 0.03927 0.28943 0.0
C150 C 0.56379 0.13596 0.31456 0.0
C151 C 0.65813 0.96847 0.34014 0.0
C152 C 0.58092 0.04388 0.56831 0.0
C153 C 0.53783 0.03432 0.59632 0.0
C154 C 0.49237 0.0218 0.57415 0.0
C155 C 0.49041 0.01568 0.5225 0.0
C156 C 0.44698 0.99799 0.49917 0.0
C157 C 0.44544 0.9925 0.44823 0.0
C158 C 0.48665 0.00622 0.41858 0.0
C159 C 0.48496 0.00246 0.36667 0.0
C160 C 0.52652 0.0173 0.33859 0.0
C161 C 0.57018 0.03538 0.36065 0.0
C162 C 0.57291 0.03839 0.41247 0.0
C163 C 0.61635 0.05591 0.43603 0.0
C164 C 0.61916 0.05757 0.48702 0.0
C165 C 0.5782 0.04302 0.51645 0.0
C166 C 0.53319 0.02748 0.4935 0.0
C167 C 0.53092 0.02398 0.44146 0.0
C168 C 0.25215 0.87048 0.28648 0.0
C169 C 0.26889 0.9251 0.27642 0.0
O170 O 0.76025 0.07113 0.67544 0.0
O171 O 0.72822 0.10608 0.23913 0.0
O172 O 0.31909 0.92438 0.26209 0.0
O173 O 0.32844 0.02224 0.70852 0.0
H174 H 0.72743 0.10516 0.73645 0.0
H175 H 0.76631 0.17365 0.69731 0.0
H176 H 0.82679 0.144 0.69506 0.0
H177 H 0.79918 0.16211 0.75346 0.0
H178 H 0.73906 0.99224 0.62331 0.0
H179 H 0.68649 0.14042 0.66795 0.0
H180 H 0.62059 0.94821 0.578 0.0
H181 H 0.68696 0.93421 0.58169 0.0
H182 H 0.66238 0.96819 0.53003 0.0
H183 H 0.61395 0.17807 0.63397 0.0
H184 H 0.56536 0.13165 0.64222 0.0
H185 H 0.58538 0.148 0.58136 0.0
H186 H 0.35641 0.97628 0.76269 0.0
H187 H 0.27992 0.92385 0.77055 0.0
H188 H 0.25365 0.95486 0.71777 0.0
H189 H 0.31088 0.91936 0.71183 0.0
H190 H 0.34756 0.09211 0.6464 0.0
H191 H 0.39499 0.94452 0.69506 0.0
H192 H 0.41484 0.09707 0.53901 0.0
H193 H 0.45907 0.12195 0.58199 0.0
H194 H 0.39331 0.13848 0.58811 0.0
H195 H 0.45913 0.89766 0.65465 0.0
H196 H 0.51122 0.94069 0.6502 0.0
H197 H 0.48096 0.91912 0.59538 0.0
H198 H 0.26596 0.94662 0.3116 0.0
H199 H 0.32283 0.0167 0.30229 0.0
H200 H 0.40255 0.87652 0.27669 0.0
H201 H 0.39163 0.06755 0.39262 0.0
H202 H 0.36211 0.08865 0.33712 0.0
H203 H 0.42974 0.08789 0.34202 0.0
H204 H 0.48044 0.85843 0.31397 0.0
H205 H 0.49981 0.89819 0.36473 0.0
H206 H 0.51946 0.91293 0.30337 0.0
H207 H 0.78623 0.08984 0.28399 0.0
H208 H 0.84637 0.14687 0.24746 0.0
H209 H 0.78932 0.17895 0.26668 0.0
H210 H 0.80127 0.16687 0.20249 0.0
H211 H 0.64595 0.15458 0.25837 0.0
H212 H 0.72644 0.01523 0.28207 0.0
H213 H 0.55609 0.1403 0.35454 0.0
H214 H 0.53009 0.11883 0.29762 0.0
H215 H 0.56938 0.17431 0.29864 0.0
H216 H 0.69063 0.94652 0.32477 0.0
H217 H 0.62315 0.94711 0.33279 0.0
H218 H 0.66238 0.97127 0.38056 0.0
H219 H 0.53961 0.03701 0.63606 0.0
H220 H 0.41396 0.9876 0.52017 0.0
H221 H 0.41125 0.97801 0.43235 0.0
H222 H 0.52479 0.01492 0.29883 0.0
H223 H 0.64894 0.06802 0.41533 0.0
H224 H 0.65371 0.07089 0.50316 0.0
H225 H 0.21251 0.86982 0.29949 0.0
H226 H 0.27608 0.85353 0.31538 0.0
H227 H 0.25539 0.84631 0.25294 0.0
C228 C 0.86024 0.59419 0.91178 0.0
C229 C 0.82436 0.62037 0.94889 0.0
C230 C 0.76292 0.57539 0.99881 0.0
C231 C 0.75061 0.57266 0.04866 0.0
C232 C 0.70061 0.56641 0.06415 0.0
C233 C 0.66229 0.56233 0.02871 0.0
C234 C 0.67502 0.56187 0.97813 0.0
C235 C 0.72536 0.56777 0.96371 0.0
C236 C 0.68845 0.56587 0.11834 0.0
C237 C 0.63523 0.55677 0.93933 0.0
C238 C 0.4305 0.87746 0.14048 0.0
C239 C 0.41659 0.8309 0.10906 0.0
C240 C 0.47445 0.76575 0.07822 0.0
C241 C 0.48232 0.74364 0.032 0.0
C242 C 0.50022 0.69343 0.02715 0.0
C243 C 0.51206 0.66541 0.06977 0.0
C244 C 0.50521 0.68819 0.11675 0.0
C245 C 0.48599 0.73811 0.12048 0.0
C246 C 0.50702 0.67061 0.97643 0.0
C247 C 0.51911 0.6602 0.16288 0.0
C248 C 0.26889 0.43558 0.14207 0.0
C249 C 0.27891 0.4278 0.0917 0.0
C250 C 0.32849 0.42722 0.07349 0.0
C251 C 0.36889 0.43344 0.10636 0.0
C252 C 0.35893 0.43958 0.15724 0.0
C253 C 0.30902 0.441 0.17427 0.0
C254 C 0.3377 0.42027 0.01907 0.0
C255 C 0.40099 0.44466 0.19368 0.0
C256 C 0.61236 0.17269 0.92007 0.0
C257 C 0.63034 0.19962 0.96716 0.0
C258 C 0.56534 0.24206 0.01624 0.0
C259 C 0.5469 0.27608 0.98119 0.0
C260 C 0.52135 0.32075 0.99562 0.0
C261 C 0.51525 0.33223 0.04624 0.0
C262 C 0.53188 0.29689 0.08165 0.0
C263 C 0.5561 0.25172 0.06604 0.0
C264 C 0.50213 0.35632 0.95666 0.0
C265 C 0.52574 0.30773 0.13587 0.0
C266 C 0.60868 0.56249 0.04434 0.0
C267 C 0.58527 0.60975 0.05216 0.0
C268 C 0.53436 0.61352 0.0648 0.0
C269 C 0.50578 0.56878 0.07052 0.0
C270 C 0.4544 0.57099 0.08298 0.0
C271 C 0.42679 0.52665 0.08895 0.0
C272 C 0.44929 0.4784 0.08185 0.0
C273 C 0.42163 0.43305 0.08783 0.0
C274 C 0.44433 0.38594 0.07698 0.0
C275 C 0.49454 0.38266 0.06168 0.0
C276 C 0.52367 0.42731 0.0587 0.0
C277 C 0.57512 0.42505 0.04635 0.0
C278 C 0.60318 0.46921 0.04213 0.0
C279 C 0.58081 0.51735 0.04977 0.0
C280 C 0.52917 0.52053 0.06298 0.0
C281 C 0.50072 0.47538 0.06799 0.0
C282 C 0.13425 0.46027 0.16672 0.0
C283 C 0.17657 0.43536 0.13605 0.0
O284 O 0.81083 0.58694 0.98579 0.0
O285 O 0.59307 0.20037 0.0031 0.0
O286 O 0.22149 0.43814 0.16127 0.0
O287 O 0.45733 0.81444 0.081 0.0
H288 H 0.79175 0.63058 0.92573 0.0
H289 H 0.83948 0.56474 0.89083 0.0
H290 H 0.89229 0.57472 0.92944 0.0
H291 H 0.8749 0.62239 0.8852 0.0
H292 H 0.78005 0.57761 0.07545 0.0
H293 H 0.73515 0.56739 0.92503 0.0
H294 H 0.66632 0.60056 0.12837 0.0
H295 H 0.72281 0.56471 0.14116 0.0
H296 H 0.66499 0.53236 0.1271 0.0
H297 H 0.65131 0.55697 0.90155 0.0
H298 H 0.60766 0.58861 0.94307 0.0
H299 H 0.61447 0.52075 0.94457 0.0
H300 H 0.4067 0.80228 0.13722 0.0
H301 H 0.39704 0.89153 0.16145 0.0
H302 H 0.44562 0.90916 0.11851 0.0
H303 H 0.45974 0.86637 0.16731 0.0
H304 H 0.4737 0.76572 0.99967 0.0
H305 H 0.48112 0.75603 0.15622 0.0
H306 H 0.49068 0.63188 0.97482 0.0
H307 H 0.54775 0.66692 0.96785 0.0
H308 H 0.48929 0.69442 0.94775 0.0
H309 H 0.51531 0.68468 0.19623 0.0
H310 H 0.55844 0.64589 0.16003 0.0
H311 H 0.49447 0.62669 0.16732 0.0
H312 H 0.18101 0.45942 0.1031 0.0
H313 H 0.2484 0.42236 0.06629 0.0
H314 H 0.30102 0.4464 0.21308 0.0
H315 H 0.36274 0.45064 0.00527 0.0
H316 H 0.30228 0.42104 0.99782 0.0
H317 H 0.35697 0.38317 0.01216 0.0
H318 H 0.38723 0.44321 0.23228 0.0
H319 H 0.42019 0.48151 0.18817 0.0
H320 H 0.4293 0.41381 0.1877 0.0
H321 H 0.63879 0.23892 0.95475 0.0
H322 H 0.64474 0.16393 0.89524 0.0
H323 H 0.58622 0.19795 0.89988 0.0
H324 H 0.59177 0.13718 0.92769 0.0
H325 H 0.55269 0.26803 0.94253 0.0
H326 H 0.56999 0.22483 0.09276 0.0
H327 H 0.52684 0.39003 0.95457 0.0
H328 H 0.4636 0.37006 0.96607 0.0
H329 H 0.50155 0.33777 0.91983 0.0
H330 H 0.54283 0.27745 0.15872 0.0
H331 H 0.48517 0.31104 0.14533 0.0
H332 H 0.54337 0.34467 0.14526 0.0
H333 H 0.60686 0.64425 0.04751 0.0
H334 H 0.43501 0.60706 0.08851 0.0
H335 H 0.38744 0.53067 0.09877 0.0
H336 H 0.42254 0.35141 0.08015 0.0
H337 H 0.59437 0.38906 0.03989 0.0
H338 H 0.64258 0.46518 0.03247 0.0
H339 H 0.09901 0.46195 0.14529 0.0
H340 H 0.14469 0.49983 0.1768 0.0
H341 H 0.12645 0.43911 0.20093 0.0
Zn342 Zn 0.18228 0.1368 0.00511 0.0
Zn343 Zn 0.10151 0.12087 0.08823 0.0
O344 O 0.12283 0.09293 0.02283 0.0
H345 H 0.10183 0.07455 1.00013 0.0
C346 C 0.99786 0.11489 0.86722 0.0
O347 O 0.03055 0.09275 0.89608 0.0
Zn348 Zn 0.95266 0.90736 0.04659 0.0
Zn349 Zn 0.93224 0.9135 0.92871 0.0
O350 O 0.94978 0.955 0.98908 0.0
H351 H 0.96726 0.98702 0.98742 0.0
Zn352 Zn 0.92408 0.08824 0.94415 0.0
O353 O 0.96915 0.09668 0.00306 0.0
Zn354 Zn 0.92146 0.08532 0.05886 0.0
H355 H 0.99845 0.11808 0.0029 0.0
Zn356 Zn 0.14249 0.90757 0.95327 0.0
O357 O 0.10074 0.95173 0.99977 0.0
H358 H 0.07531 0.97646 0.99104 0.0
Zn359 Zn 0.13465 0.94675 0.06398 0.0
C360 C 0.05642 0.86759 0.90388 0.0
O361 O 0.03436 0.89484 0.93864 0.0
O362 O 0.17929 0.20914 0.03641 0.0
O363 O 0.12026 0.1954 0.09352 0.0
O364 O 0.91278 0.84048 0.94528 0.0
O365 O 0.92854 0.8362 0.0257 0.0
O366 O 0.85062 0.10848 0.9594 0.0
O367 O 0.85158 0.11203 0.04127 0.0
C368 C 0.14968 0.03671 0.13214 0.0
O369 O 0.21107 0.88367 0.98046 0.0
O370 O 0.20445 0.91653 0.05621 0.0
O371 O 0.89625 0.94794 0.87002 0.0
C372 C 0.15113 0.22467 0.07178 0.0
O373 O 0.22339 0.11931 0.94145 0.0
C374 C 0.89823 0.98279 0.10198 0.0
O375 O 0.95175 0.11696 0.87944 0.0
C376 C 0.91377 0.81603 0.98541 0.0
O377 O 0.10406 0.8652 0.90156 0.0
C378 C 0.99481 0.12784 0.12443 0.0
O379 O 0.13918 0.08311 0.14123 0.0
O380 O 0.13406 0.01747 0.09222 0.0
C381 C 0.82897 0.11762 1.00044 0.0
O382 O 0.9061 0.93496 0.10089 0.0
O383 O 0.92041 0.00988 0.07023 0.0
C384 C 0.05008 0.89084 0.10435 0.0
O385 O 0.94795 0.12082 0.11909 0.0
O386 O 0.02571 0.11126 0.09206 0.0
C387 C 0.22911 0.89244 0.02286 0.0
O388 O 0.09618 0.90156 0.10907 0.0
O389 O 0.02565 0.90886 0.06837 0.0
C390 C 0.86757 0.98634 0.87676 0.0
O391 O 0.86076 0.0047 0.92134 0.0
C392 C 0.22079 0.07444 0.9237 0.0
O393 O 0.19284 0.04046 0.94573 0.0
C394 C 0.03183 0.16011 0.25471 0.0
C395 C 0.03077 0.21388 0.25251 0.0
C396 C 0.02394 0.2089 0.16309 0.0
C397 C 0.01258 0.15644 0.1674 0.0
N398 N 0.0041 0.0816 0.21757 0.0
N399 N 0.0579 0.28397 0.20283 0.0
C400 C 0.01666 0.13165 0.21318 0.0
C401 C 0.03696 0.23684 0.20591 0.0
N402 N 0.05176 0.13658 0.29452 0.0
N403 N 0.01931 0.23257 0.11885 0.0
H404 H 0.07205 0.3027 0.23364 0.0
H405 H 0.06685 0.30143 0.16976 0.0
H406 H 0.01062 0.21307 0.08652 0.0
H407 H 0.02152 0.27186 0.11462 0.0
H408 H 0.05667 0.09723 0.2966 0.0
H409 H 0.0701 0.15726 0.32179 0.0
H410 H 0.00103 0.06364 0.25143 0.0
H411 H 0.99431 0.05886 0.1876 0.0
C412 C 0.79264 0.06355 0.15687 0.0
C413 C 0.80239 0.06066 0.20845 0.0
C414 C 0.87457 0.00421 0.18983 0.0
C415 C 0.86364 0.00626 0.13919 0.0
N416 N 0.8004 0.02022 0.07842 0.0
N417 N 0.84146 0.00987 0.27232 0.0
C418 C 0.81896 0.03036 0.12392 0.0
C419 C 0.83987 0.02536 0.22457 0.0
N420 N 0.76033 0.09905 0.13813 0.0
N421 N 0.91862 0.98294 0.20495 0.0
H422 H 0.8141 0.019 0.29852 0.0
H423 H 0.86589 0.98144 0.28431 0.0
H424 H 0.94415 0.96641 0.18036 0.0
H425 H 0.93145 0.98572 0.24091 0.0
H426 H 0.7569 0.10501 0.10054 0.0
H427 H 0.73999 0.12566 0.15878 0.0
H428 H 0.76414 0.03104 0.06857 0.0
H429 H 0.81874 0.99617 0.05315 0.0
C430 C 0.01582 0.77347 0.17522 0.0
C431 C 0.02028 0.79408 0.22328 0.0
C432 C 0.02136 0.87999 0.19074 0.0
C433 C 0.02662 0.85936 0.14263 0.0
N434 N 0.02556 0.78717 0.08756 0.0
N435 N 0.99492 0.86504 0.27458 0.0
C436 C 0.02112 0.80631 0.1342 0.0
C437 C 0.01227 0.84691 0.23044 0.0
N438 N 0.00526 0.72302 0.16932 0.0
N439 N 0.02912 0.93062 0.19912 0.0
H440 H 0.98487 0.84069 0.30299 0.0
H441 H 0.98474 0.90303 0.28062 0.0
H442 H 0.03472 0.95653 0.17081 0.0
H443 H 0.03133 0.94638 0.23426 0.0
H444 H 0.99802 0.7059 0.13553 0.0
H445 H 0.99826 0.69946 0.19922 0.0
H446 H 0.02861 0.74849 0.07933 0.0
H447 H 0.0285 0.81053 0.05693 0.0
C448 C 0.24889 0.94949 0.18698 0.0
C449 C 0.235 0.95004 0.23771 0.0
C450 C 0.15912 -0.00023 0.21646 0.0
C451 C 0.17822 0.00597 0.16817 0.0
N452 N 0.24786 0.99691 0.11144 0.0
N453 N 0.17383 0.9753 0.30048 0.0
C454 C 0.22497 0.98377 0.15454 0.0
C455 C 0.18916 0.97507 0.25238 0.0
N456 N 0.28291 0.91474 0.16875 0.0
N457 N 0.11132 0.01581 0.22751 0.0
H458 H 0.18918 0.95212 0.32734 0.0
H459 H 0.14621 -8e-05 0.31446 0.0
H460 H 0.08795 0.03243 0.20162 0.0
H461 H 0.09301 0.00862 0.2606 0.0
H462 H 0.29177 0.91175 0.13154 0.0
H463 H 0.29715 0.88458 0.18903 0.0
H464 H 0.28467 0.98607 0.10262 0.0
H465 H 0.23186 0.02225 0.08664 0.0
C466 C 0.99301 0.76095 0.83327 0.0
C467 C 0.97505 0.78855 0.79233 0.0
C468 C 0.99764 0.8683 0.83286 0.0
C469 C 0.02573 0.84033 0.86757 0.0
N470 N 0.04792 0.75969 0.90372 0.0
N471 N 0.93308 0.86808 0.77294 0.0
C472 C 0.02239 0.78646 0.869 0.0
C473 C 0.9688 0.84194 0.79793 0.0
N474 N 0.97818 0.71186 0.84001 0.0
N475 N 0.99901 0.92024 0.83207 0.0
H476 H 0.90611 0.85032 0.7513 0.0
H477 H 0.90611 0.85032 0.7513 0.0
H478 H 0.01996 0.94188 0.85664 0.0
H479 H 0.98036 0.94118 0.80529 0.0
H480 H 0.98641 0.69096 0.87127 0.0
H481 H 0.95177 0.69471 0.81726 0.0
H482 H 0.0515 0.72015 0.90299 0.0
H483 H 0.06775 0.77721 0.93198 0.0
C484 C 0.24462 0.03998 0.7893 0.0
C485 C 0.29609 0.02485 0.79087 0.0
C486 C 0.30007 0.05336 0.87696 0.0
C487 C 0.24727 0.06092 0.87726 0.0
N488 N 0.16831 0.06113 0.83467 0.0
N489 N 0.37597 0.04311 0.828 0.0
C490 C 0.21933 0.0546 0.83357 0.0
C491 C 0.32495 0.03925 0.83235 0.0
N492 N 0.22102 0.04427 0.74517 0.0
N493 N 0.32618 0.05707 0.91982 0.0
H494 H 0.3949 0.03884 0.79449 0.0
H495 H 0.3987 0.05744 0.85569 0.0
H496 H 0.30946 0.06797 0.95314 0.0
H497 H 0.36353 0.04556 0.92317 0.0
H498 H 0.18512 0.05966 0.74119 0.0
H499 H 0.23943 0.03841 0.71167 0.0
H500 H 0.14513 0.04996 0.80605 0.0
H501 H 0.14863 0.07479 0.86546 0.0
C502 C 0.01689 0.22483 0.78043 0.0
C503 C 0.02178 0.19719 0.73565 0.0
C504 C 0.03418 0.11872 0.78196 0.0
C505 C 0.01477 0.14408 0.82427 0.0
N506 N 0.99413 0.22289 0.86662 0.0
N507 N 0.06431 0.12369 0.69933 0.0
C508 C 0.00857 0.19781 0.82453 0.0
C509 C 0.03991 0.14624 0.73797 0.0
N510 N 0.02489 0.27604 0.78121 0.0
N511 N 0.04566 0.06797 0.78281 0.0
H512 H 0.07384 0.14301 0.66729 0.0
H513 H 0.07384 0.14301 0.66729 0.0
H514 H 0.04176 0.04594 0.81426 0.0
H515 H 0.05878 0.04821 0.75172 0.0
H516 H 0.02528 0.29794 0.81329 0.0
H517 H 0.03858 0.29489 0.75043 0.0
H518 H 0.98294 0.26102 0.86736 0.0
H519 H 0.99146 0.20491 0.90053 0.0
C520 C 0.84417 0.04984 0.75392 0.0
C521 C 0.79135 0.05805 0.75634 0.0
C522 C 0.78784 0.00902 0.83287 0.0
C523 C 0.84116 0.00943 0.83461 0.0
N524 N 0.92038 0.03462 0.79908 0.0
N525 N 0.71277 0.0235 0.78482 0.0
C526 C 0.86943 0.03047 0.7955 0.0
C527 C 0.76289 0.03135 0.79215 0.0
N528 N 0.86973 0.05676 0.71082 0.0
N529 N 0.76108 0.98747 0.87027 0.0
H530 H 0.69459 0.03379 0.75261 0.0
H531 H 0.69028 0.00127 0.80731 0.0
H532 H 0.77782 0.96694 0.89844 0.0
H533 H 0.72242 0.99171 0.87486 0.0
H534 H 0.90749 0.04703 0.70587 0.0
H535 H 0.85179 0.0654 0.67808 0.0
H536 H 0.94197 0.05503 0.77415 0.0
H537 H 0.94051 0.02208 0.82938 0.0
C538 C 0.17776 0.33895 0.15336 0.0
C539 C 0.16366 0.38006 0.12225 0.0
C540 C 0.13194 0.31753 0.06209 0.0
C541 C 0.15481 0.27797 0.0891 0.0
N542 N 0.20347 0.25051 0.15828 0.0
N543 N 0.12134 0.40782 0.04842 0.0
C544 C 0.17864 0.28852 0.13419 0.0
C545 C 0.13869 0.36912 0.07714 0.0
N546 N 0.18813 0.3473 0.20183 0.0
N547 N 0.10196 0.30555 0.02318 0.0
H548 H 0.11747 0.44539 0.06047 0.0
H549 H 0.11108 0.40284 0.01192 0.0
H550 H 0.09664 0.26824 0.01094 0.0
H551 H 0.07919 0.33181 0.00533 0.0
H552 H 0.19312 0.31792 0.22682 0.0
H553 H 0.18593 0.38282 0.21892 0.0
H554 H 0.22675 0.25721 0.18814 0.0
H555 H 0.2044 0.21278 0.14591 0.0
C556 C 0.32993 0.80734 0.07665 0.0
C557 C 0.37142 0.84102 0.07576 0.0
C558 C 0.3224 0.90133 0.02649 0.0
C559 C 0.27905 0.87182 0.03524 0.0
N560 N 0.24001 0.79716 0.06863 0.0
N561 N 0.41307 0.90624 0.02871 0.0
C562 C 0.2825 0.82457 0.0597 0.0
C563 C 0.36961 0.88402 0.04423 0.0
N564 N 0.33664 0.75782 0.09041 0.0
N565 N 0.31792 0.94719 0.00346 0.0
H566 H 0.44856 0.89249 0.03774 0.0
H567 H 0.41442 0.93454 0.00225 0.0
H568 H 0.28428 0.96011 0.98837 0.0
H569 H 0.34656 0.97386 0.00193 0.0
H570 H 0.30882 0.73037 0.08783 0.0
H571 H 0.3718 0.74217 0.09802 0.0
H572 H 0.23892 0.76615 0.09215 0.0
H573 H 0.2049 0.80733 0.05486 0.0
C574 C 0.71718 0.20916 0.00578 0.0
C575 C 0.67882 0.17672 0.98799 0.0
C576 C 0.73683 0.10409 0.9886 0.0
C577 C 0.77676 0.13731 1.00021 0.0
N578 N 0.80624 0.22151 0.02002 0.0
N579 N 0.64724 0.09128 0.99308 0.0
C580 C 0.76715 0.18977 0.0099 0.0
C581 C 0.68698 0.12336 0.98861 0.0
N582 N 0.70512 0.25747 0.02128 0.0
N583 N 0.74646 0.05446 0.97599 0.0
H584 H 0.6108 0.10478 0.99961 0.0
H585 H 0.65131 0.0521 0.99759 0.0
H586 H 0.78239 0.03836 0.97641 0.0
H587 H 0.71906 0.03027 0.96224 0.0
H588 H 0.73015 0.28186 0.03845 0.0
H589 H 0.66832 0.27141 0.02221 0.0
H590 H 0.80302 0.26101 0.02146 0.0
H591 H 0.84313 0.2086 0.02404 0.0
C592 C 0.89566 0.67252 0.98758 0.0
C593 C 0.84525 0.66968 0.97119 0.0
C594 C 0.83704 0.7626 0.97996 0.0
C595 C 0.88987 0.76548 0.98609 0.0
N596 N 0.97048 0.72374 0.99266 0.0
N597 N 0.76315 0.7096 0.97541 0.0
C598 C 0.91942 0.72061 0.98986 0.0
C599 C 0.81429 0.71412 0.97443 0.0
N600 N 0.91963 0.62991 0.00407 0.0
N601 N 0.80894 0.80645 0.97785 0.0
H602 H 0.74512 0.67465 0.97549 0.0
H603 H 0.73829 0.73978 0.98184 0.0
H604 H 0.82348 0.84236 0.98561 0.0
H605 H 0.77178 0.80789 0.96642 0.0
H606 H 0.95502 0.63059 0.02007 0.0
H607 H 0.90129 0.5953 0.00801 0.0
H608 H 0.9943 0.6921 0.98978 0.0
H609 H 0.98918 0.75841 0.99364 0.0
loop_
_geom_bond_atom_site_label_1
_geom_bond_atom_site_label_2
_geom_bond_distance
_geom_bond_site_symmetry_2
_ccdc_geom_bond_type
C0 C1 1.560 . S
C0 H61 0.959 . S
C0 H62 0.959 . S
C0 H63 0.960 . S
C1 C0 1.560 . S
C1 O56 1.426 . S
C1 H60 0.980 . S
C2 C3 1.405 1_455 S
C2 C7 1.418 . S
C2 O56 1.334 . S
C3 C2 1.405 1_655 S
C3 C4 1.360 . S
C3 H64 0.930 . S
C4 C3 1.360 . S
C4 C5 1.401 1_655 S
C4 C8 1.527 . S
C5 C4 1.401 1_455 S
C5 C6 1.405 . S
C5 C38 1.587 1_455 S
C6 C5 1.405 . S
C6 C7 1.332 . S
C6 C9 1.496 . S
C7 C2 1.418 . S
C7 C6 1.332 . S
C7 H65 0.929 . S
C8 C4 1.527 . S
C8 H66 0.959 . S
C8 H67 0.961 . S
C8 H68 0.961 . S
C9 C6 1.496 . S
C9 H69 0.960 . S
C9 H70 0.960 . S
C9 H71 0.961 . S
C10 C11 1.517 . S
C10 H73 0.961 1_655 S
C10 H74 0.960 . S
C10 H75 0.959 . S
C11 C10 1.517 . S
C11 O59 1.468 . S
C11 H72 0.980 1_655 S
C12 C13 1.349 1_655 S
C12 C17 1.367 . S
C12 O59 1.408 . S
C13 C12 1.349 1_455 S
C13 C14 1.407 . S
C13 H76 0.930 . S
C14 C13 1.407 . S
C14 C15 1.449 1_455 S
C14 C18 1.535 . S
C15 C14 1.449 1_655 S
C15 C16 1.384 . S
C15 C40 1.553 . S
C16 C15 1.384 . S
C16 C17 1.364 . S
C16 C19 1.450 . S
C17 C12 1.367 . S
C17 C16 1.364 . S
C17 H77 0.931 . S
C18 C14 1.535 . S
C18 H78 0.959 . S
C18 H79 0.961 . S
C18 H80 0.959 . S
C19 C16 1.450 . S
C19 H81 0.960 . S
C19 H82 0.960 . S
C19 H83 0.960 . S
C20 C21 1.309 1_655 S
C20 C25 1.304 . S
C20 O58 1.435 . S
C21 C20 1.309 1_455 S
C21 C22 1.476 . S
C21 H85 0.930 . S
C22 C21 1.476 . S
C22 C23 1.400 1_455 S
C22 C26 1.567 . S
C23 C22 1.400 1_655 S
C23 C24 1.373 . S
C23 C45 1.432 . S
C24 C23 1.373 . S
C24 C25 1.339 . S
C24 C27 1.530 . S
C25 C20 1.304 . S
C25 C24 1.339 . S
C25 H86 0.930 . S
C26 C22 1.567 . S
C26 H87 0.961 . S
C26 H88 0.960 . S
C26 H89 0.958 . S
C27 C24 1.530 . S
C27 H90 0.961 . S
C27 H91 0.960 . S
C27 H92 0.960 . S
C28 C29 1.530 . S
C28 H94 0.961 . S
C28 H95 0.961 . S
C28 H96 0.959 . S
C29 C28 1.530 . S
C29 O57 1.412 . S
C29 H93 0.980 . S
C30 C31 1.288 . S
C30 C35 1.380 . S
C30 O57 1.393 . S
C31 C30 1.288 . S
C31 C32 1.369 . S
C31 H97 0.932 . S
C32 C31 1.369 . S
C32 C33 1.398 . S
C32 C36 1.527 . S
C33 C32 1.398 . S
C33 C34 1.380 1_455 S
C33 C47 1.497 . S
C34 C33 1.380 1_655 S
C34 C35 1.382 1_655 S
C34 C37 1.603 . S
C35 C30 1.380 . S
C35 C34 1.382 1_455 S
C35 H98 0.927 1_455 S
C36 C32 1.527 . S
C36 H99 0.961 . S
C36 H100 0.959 . S
C36 H101 0.959 . S
C37 C34 1.603 . S
C37 H102 0.960 . S
C37 H103 0.962 . S
C37 H104 0.961 . S
C38 C5 1.587 1_655 S
C38 C39 1.360 . S
C38 C51 1.412 . S
C39 C38 1.360 . S
C39 C40 1.365 . S
C39 H105 0.929 . S
C40 C15 1.553 . S
C40 C39 1.365 . S
C40 C41 1.404 . S
C41 C40 1.404 . S
C41 C42 1.395 . S
C41 C52 1.451 . S
C42 C41 1.395 . S
C42 C43 1.322 . S
C42 H106 0.930 . S
C43 C42 1.322 . S
C43 C44 1.459 . S
C43 H107 0.929 . S
C44 C43 1.459 . S
C44 C45 1.445 . S
C44 C53 1.395 . S
C45 C23 1.432 . S
C45 C44 1.445 . S
C45 C46 1.370 1_655 S
C46 C45 1.370 1_455 S
C46 C47 1.438 . S
C46 H108 0.930 . S
C47 C33 1.497 . S
C47 C46 1.438 . S
C47 C48 1.360 . S
C48 C47 1.360 . S
C48 C49 1.401 . S
C48 C53 1.446 1_455 S
C49 C48 1.401 . S
C49 C50 1.347 . S
C49 H109 0.929 . S
C50 C49 1.347 . S
C50 C51 1.454 1_455 S
C50 H110 0.930 . S
C51 C38 1.412 . S
C51 C50 1.454 1_655 S
C51 C52 1.333 . S
C52 C41 1.451 . S
C52 C51 1.333 . S
C52 C53 1.497 . S
C53 C44 1.395 . S
C53 C48 1.446 1_655 S
C53 C52 1.497 . S
C54 C55 1.582 1_655 S
C54 H111 0.962 1_655 S
C54 H112 0.959 . S
C54 H113 0.958 . S
C55 C54 1.582 1_455 S
C55 O58 1.458 1_455 S
C55 H84 0.980 . S
O56 C1 1.426 . S
O56 C2 1.334 . S
O57 C29 1.412 . S
O57 C30 1.393 . S
O58 C20 1.435 . S
O58 C55 1.458 1_655 S
O59 C11 1.468 . S
O59 C12 1.408 . S
H60 C1 0.980 . S
H61 C0 0.959 . S
H62 C0 0.959 . S
H63 C0 0.960 . S
H64 C3 0.930 . S
H65 C7 0.929 . S
H66 C8 0.959 . S
H67 C8 0.961 . S
H68 C8 0.961 . S
H69 C9 0.960 . S
H70 C9 0.960 . S
H71 C9 0.961 . S
H72 C11 0.980 1_455 S
H73 C10 0.961 1_455 S
H74 C10 0.960 . S
H75 C10 0.959 . S
H76 C13 0.930 . S
H77 C17 0.931 . S
H78 C18 0.959 . S
H79 C18 0.961 . S
H80 C18 0.959 . S
H81 C19 0.960 . S
H82 C19 0.960 . S
H83 C19 0.960 . S
H84 C55 0.980 . S
H85 C21 0.930 . S
H86 C25 0.930 . S
H87 C26 0.961 . S
H88 C26 0.960 . S
H89 C26 0.958 . S
H90 C27 0.961 . S
H91 C27 0.960 . S
H92 C27 0.960 . S
H93 C29 0.980 . S
H94 C28 0.961 . S
H95 C28 0.961 . S
H96 C28 0.959 . S
H97 C31 0.932 . S
H98 C35 0.927 1_655 S
H99 C36 0.961 . S
H100 C36 0.959 . S
H101 C36 0.959 . S
H102 C37 0.960 . S
H103 C37 0.962 . S
H104 C37 0.961 . S
H105 C39 0.929 . S
H106 C42 0.930 . S
H107 C43 0.929 . S
H108 C46 0.930 . S
H109 C49 0.929 . S
H110 C50 0.930 . S
H111 C54 0.962 1_455 S
H112 C54 0.959 . S
H113 C54 0.958 . S
C114 C115 1.560 . S
C114 H175 0.959 . S
C114 H176 0.959 . S
C114 H177 0.960 . S
C115 C114 1.560 . S
C115 O170 1.426 . S
C115 H174 0.980 . S
C116 C117 1.407 1_545 S
C116 C121 1.418 . S
C116 O170 1.334 . S
C117 C116 1.407 1_565 S
C117 C118 1.360 . S
C117 H178 0.929 . S
C118 C117 1.360 . S
C118 C119 1.401 1_565 S
C118 C122 1.527 . S
C119 C118 1.401 1_545 S
C119 C120 1.405 . S
C119 C152 1.587 1_545 S
C120 C119 1.405 . S
C120 C121 1.332 . S
C120 C123 1.496 . S
C121 C116 1.418 . S
C121 C120 1.332 . S
C121 H179 0.929 . S
C122 C118 1.527 . S
C122 H180 0.959 . S
C122 H181 0.961 . S
C122 H182 0.961 . S
C123 C120 1.496 . S
C123 H183 0.960 . S
C123 H184 0.960 . S
C123 H185 0.961 . S
C124 C125 1.517 . S
C124 H187 0.953 1_565 S
C124 H188 0.960 . S
C124 H189 0.959 . S
C125 C124 1.517 . S
C125 O173 1.468 . S
C125 H186 0.980 1_565 S
C126 C127 1.337 1_565 S
C126 C131 1.367 . S
C126 O173 1.408 . S
C127 C126 1.337 1_545 S
C127 C128 1.410 . S
C127 H190 0.940 . S
C128 C127 1.410 . S
C128 C129 1.449 1_545 S
C128 C132 1.535 . S
C129 C128 1.449 1_565 S
C129 C130 1.384 . S
C129 C154 1.553 . S
C130 C129 1.384 . S
C130 C131 1.364 . S
C130 C133 1.450 . S
C131 C126 1.367 . S
C131 C130 1.364 . S
C131 H191 0.931 . S
C132 C128 1.535 . S
C132 H192 0.959 . S
C132 H193 0.961 . S
C132 H194 0.959 . S
C133 C130 1.450 . S
C133 H195 0.960 . S
C133 H196 0.960 . S
C133 H197 0.960 . S
C134 C135 1.309 1_565 S
C134 C139 1.304 . S
C134 O172 1.435 . S
C135 C134 1.309 1_545 S
C135 C136 1.476 . S
C135 H199 0.930 . S
C136 C135 1.476 . S
C136 C137 1.400 1_545 S
C136 C140 1.567 . S
C137 C136 1.400 1_565 S
C137 C138 1.373 . S
C137 C159 1.432 . S
C138 C137 1.373 . S
C138 C139 1.339 . S
C138 C141 1.530 . S
C139 C134 1.304 . S
C139 C138 1.339 . S
C139 H200 0.930 . S
C140 C136 1.567 . S
C140 H201 0.961 . S
C140 H202 0.960 . S
C140 H203 0.958 . S
C141 C138 1.530 . S
C141 H204 0.961 . S
C141 H205 0.960 . S
C141 H206 0.960 . S
C142 C143 1.530 . S
C142 H208 0.961 . S
C142 H209 0.961 . S
C142 H210 0.959 . S
C143 C142 1.530 . S
C143 O171 1.412 . S
C143 H207 0.980 . S
C144 C145 1.288 . S
C144 C149 1.377 1_545 S
C144 O171 1.393 . S
C145 C144 1.288 . S
C145 C146 1.369 . S
C145 H211 0.932 . S
C146 C145 1.369 . S
C146 C147 1.398 . S
C146 C150 1.527 . S
C147 C146 1.398 . S
C147 C148 1.380 1_545 S
C147 C161 1.497 . S
C148 C147 1.380 1_565 S
C148 C149 1.383 . S
C148 C151 1.603 . S
C149 C144 1.377 1_565 S
C149 C148 1.383 . S
C149 H212 0.929 . S
C150 C146 1.527 . S
C150 H213 0.961 . S
C150 H214 0.959 . S
C150 H215 0.959 . S
C151 C148 1.603 . S
C151 H216 0.960 . S
C151 H217 0.962 . S
C151 H218 0.961 . S
C152 C119 1.587 1_565 S
C152 C153 1.360 . S
C152 C165 1.412 . S
C153 C152 1.360 . S
C153 C154 1.365 . S
C153 H219 0.929 . S
C154 C129 1.553 . S
C154 C153 1.365 . S
C154 C155 1.404 . S
C155 C154 1.404 . S
C155 C156 1.395 . S
C155 C166 1.451 . S
C156 C155 1.395 . S
C156 C157 1.322 . S
C156 H220 0.930 . S
C157 C156 1.322 . S
C157 C158 1.459 . S
C157 H221 0.929 . S
C158 C157 1.459 . S
C158 C159 1.445 . S
C158 C167 1.395 . S
C159 C137 1.432 . S
C159 C158 1.445 . S
C159 C160 1.370 . S
C160 C159 1.370 . S
C160 C161 1.438 1_565 S
C160 H222 0.932 . S
C161 C147 1.497 . S
C161 C160 1.438 1_545 S
C161 C162 1.360 1_545 S
C162 C161 1.360 1_565 S
C162 C163 1.401 1_565 S
C162 C167 1.446 . S
C163 C162 1.401 1_545 S
C163 C164 1.347 . S
C163 H223 0.929 . S
C164 C163 1.347 . S
C164 C165 1.455 1_545 S
C164 H224 0.930 . S
C165 C152 1.412 . S
C165 C164 1.455 1_565 S
C165 C166 1.331 . S
C166 C155 1.451 . S
C166 C165 1.331 . S
C166 C167 1.497 . S
C167 C158 1.395 . S
C167 C162 1.446 . S
C167 C166 1.497 . S
C168 C169 1.582 1_565 S
C168 H225 0.962 . S
C168 H226 0.959 . S
C168 H227 0.958 . S
C169 C168 1.582 1_545 S
C169 O172 1.458 1_545 S
C169 H198 0.980 . S
O170 C115 1.426 . S
O170 C116 1.334 . S
O171 C143 1.412 . S
O171 C144 1.393 . S
O172 C134 1.435 . S
O172 C169 1.458 1_565 S
O173 C125 1.468 . S
O173 C126 1.408 . S
H174 C115 0.980 . S
H175 C114 0.959 . S
H176 C114 0.959 . S
H177 C114 0.960 . S
H178 C117 0.929 . S
H179 C121 0.929 . S
H180 C122 0.959 . S
H181 C122 0.961 . S
H182 C122 0.961 . S
H183 C123 0.960 . S
H184 C123 0.960 . S
H185 C123 0.961 . S
H186 C125 0.980 1_545 S
H187 C124 0.953 1_545 S
H188 C124 0.960 . S
H189 C124 0.959 . S
H190 C127 0.940 . S
H191 C131 0.931 . S
H192 C132 0.959 . S
H193 C132 0.961 . S
H194 C132 0.959 . S
H195 C133 0.960 . S
H196 C133 0.960 . S
H197 C133 0.960 . S
H198 C169 0.980 . S
H199 C135 0.930 . S
H200 C139 0.930 . S
H201 C140 0.961 . S
H202 C140 0.960 . S
H203 C140 0.958 . S
H204 C141 0.961 . S
H205 C141 0.960 . S
H206 C141 0.960 . S
H207 C143 0.980 . S
H208 C142 0.961 . S
H209 C142 0.961 . S
H210 C142 0.959 . S
H211 C145 0.932 . S
H212 C149 0.929 . S
H213 C150 0.961 . S
H214 C150 0.959 . S
H215 C150 0.959 . S
H216 C151 0.960 . S
H217 C151 0.962 . S
H218 C151 0.961 . S
H219 C153 0.929 . S
H220 C156 0.930 . S
H221 C157 0.929 . S
H222 C160 0.932 . S
H223 C163 0.929 . S
H224 C164 0.930 . S
H225 C168 0.962 . S
H226 C168 0.959 . S
H227 C168 0.958 . S
C228 C229 1.560 . S
C228 H289 0.959 . S
C228 H290 0.959 . S
C228 H291 0.960 . S
C229 C228 1.560 . S
C229 O284 1.426 . S
C229 H288 0.980 1_556 S
C230 C231 1.407 1_556 S
C230 C235 1.418 . S
C230 O284 1.334 . S
C231 C230 1.407 1_554 S
C231 C232 1.360 . S
C231 H292 0.929 . S
C232 C231 1.360 . S
C232 C233 1.401 . S
C232 C236 1.527 . S
C233 C232 1.401 . S
C233 C234 1.405 1_554 S
C233 C266 1.587 . S
C234 C233 1.405 1_556 S
C234 C235 1.332 . S
C234 C237 1.496 . S
C235 C230 1.418 . S
C235 C234 1.332 . S
C235 H293 0.929 . S
C236 C232 1.527 . S
C236 H294 0.959 . S
C236 H295 0.961 . S
C236 H296 0.961 . S
C237 C234 1.496 . S
C237 H297 0.960 . S
C237 H298 0.960 . S
C237 H299 0.961 . S
C238 C239 1.517 . S
C238 H301 0.961 . S
C238 H302 0.960 . S
C238 H303 0.959 . S
C239 C238 1.517 . S
C239 O287 1.468 . S
C239 H300 0.980 . S
C240 C241 1.349 . S
C240 C245 1.367 . S
C240 O287 1.408 . S
C241 C240 1.349 . S
C241 C242 1.407 . S
C241 H304 0.928 1_554 S
C242 C241 1.407 . S
C242 C243 1.449 . S
C242 C246 1.535 1_554 S
C243 C242 1.449 . S
C243 C244 1.384 . S
C243 C268 1.553 . S
C244 C243 1.384 . S
C244 C245 1.364 . S
C244 C247 1.450 . S
C245 C240 1.367 . S
C245 C244 1.364 . S
C245 H305 0.931 . S
C246 C242 1.535 1_556 S
C246 H306 0.959 . S
C246 H307 0.961 . S
C246 H308 0.959 . S
C247 C244 1.450 . S
C247 H309 0.960 . S
C247 H310 0.960 . S
C247 H311 0.960 . S
C248 C249 1.309 . S
C248 C253 1.304 . S
C248 O286 1.435 . S
C249 C248 1.309 . S
C249 C250 1.476 . S
C249 H313 0.930 1_554 S
C250 C249 1.476 . S
C250 C251 1.400 . S
C250 C254 1.567 1_554 S
C251 C250 1.400 . S
C251 C252 1.373 . S
C251 C273 1.432 . S
C252 C251 1.373 . S
C252 C253 1.339 . S
C252 C255 1.530 . S
C253 C248 1.304 . S
C253 C252 1.339 . S
C253 H314 0.930 . S
C254 C250 1.567 1_556 S
C254 H315 0.961 . S
C254 H316 0.960 . S
C254 H317 0.958 . S
C255 C252 1.530 . S
C255 H318 0.961 . S
C255 H319 0.960 . S
C255 H320 0.960 . S
C256 C257 1.530 1_556 S
C256 H322 0.961 . S
C256 H323 0.961 . S
C256 H324 0.959 . S
C257 C256 1.530 1_554 S
C257 O285 1.412 1_554 S
C257 H321 0.980 . S
C258 C259 1.288 . S
C258 C263 1.377 1_556 S
C258 O285 1.393 . S
C259 C258 1.288 . S
C259 C260 1.369 . S
C259 H325 0.932 . S
C260 C259 1.369 . S
C260 C261 1.398 1_556 S
C260 C264 1.527 . S
C261 C260 1.398 1_554 S
C261 C262 1.380 . S
C261 C275 1.497 . S
C262 C261 1.380 . S
C262 C263 1.383 . S
C262 C265 1.603 . S
C263 C258 1.377 1_554 S
C263 C262 1.383 . S
C263 H326 0.929 . S
C264 C260 1.527 . S
C264 H327 0.961 . S
C264 H328 0.959 . S
C264 H329 0.959 . S
C265 C262 1.603 . S
C265 H330 0.960 . S
C265 H331 0.962 . S
C265 H332 0.961 . S
C266 C233 1.587 . S
C266 C267 1.360 . S
C266 C279 1.412 . S
C267 C266 1.360 . S
C267 C268 1.365 . S
C267 H333 0.929 . S
C268 C243 1.553 . S
C268 C267 1.365 . S
C268 C269 1.404 . S
C269 C268 1.404 . S
C269 C270 1.395 . S
C269 C280 1.451 . S
C270 C269 1.395 . S
C270 C271 1.322 . S
C270 H334 0.930 . S
C271 C270 1.322 . S
C271 C272 1.459 . S
C271 H335 0.929 . S
C272 C271 1.459 . S
C272 C273 1.445 . S
C272 C281 1.395 . S
C273 C251 1.432 . S
C273 C272 1.445 . S
C273 C274 1.370 . S
C274 C273 1.370 . S
C274 C275 1.438 . S
C274 H336 0.930 . S
C275 C261 1.497 . S
C275 C274 1.438 . S
C275 C276 1.360 . S
C276 C275 1.360 . S
C276 C277 1.401 . S
C276 C281 1.446 . S
C277 C276 1.401 . S
C277 C278 1.347 . S
C277 H337 0.929 . S
C278 C277 1.347 . S
C278 C279 1.455 . S
C278 H338 0.930 . S
C279 C266 1.412 . S
C279 C278 1.455 . S
C279 C280 1.331 . S
C280 C269 1.451 . S
C280 C279 1.331 . S
C280 C281 1.497 . S
C281 C272 1.395 . S
C281 C276 1.446 . S
C281 C280 1.497 . S
C282 C283 1.582 . S
C282 H339 0.962 . S
C282 H340 0.959 . S
C282 H341 0.958 . S
C283 C282 1.582 . S
C283 O286 1.458 . S
C283 H312 0.980 . S
O284 C229 1.426 . S
O284 C230 1.334 . S
O285 C257 1.412 1_556 S
O285 C258 1.393 . S
O286 C248 1.435 . S
O286 C283 1.458 . S
O287 C239 1.468 . S
O287 C240 1.408 . S
H288 C229 0.980 1_554 S
H289 C228 0.959 . S
H290 C228 0.959 . S
H291 C228 0.960 . S
H292 C231 0.929 . S
H293 C235 0.929 . S
H294 C236 0.959 . S
H295 C236 0.961 . S
H296 C236 0.961 . S
H297 C237 0.960 . S
H298 C237 0.960 . S
H299 C237 0.961 . S
H300 C239 0.980 . S
H301 C238 0.961 . S
H302 C238 0.960 . S
H303 C238 0.959 . S
H304 C241 0.928 1_556 S
H305 C245 0.931 . S
H306 C246 0.959 . S
H307 C246 0.961 . S
H308 C246 0.959 . S
H309 C247 0.960 . S
H310 C247 0.960 . S
H311 C247 0.960 . S
H312 C283 0.980 . S
H313 C249 0.930 1_556 S
H314 C253 0.930 . S
H315 C254 0.961 . S
H316 C254 0.960 . S
H317 C254 0.958 . S
H318 C255 0.961 . S
H319 C255 0.960 . S
H320 C255 0.960 . S
H321 C257 0.980 . S
H322 C256 0.961 . S
H323 C256 0.961 . S
H324 C256 0.959 . S
H325 C259 0.932 . S
H326 C263 0.929 . S
H327 C264 0.961 . S
H328 C264 0.959 . S
H329 C264 0.959 . S
H330 C265 0.960 . S
H331 C265 0.962 . S
H332 C265 0.961 . S
H333 C267 0.929 . S
H334 C270 0.930 . S
H335 C271 0.929 . S
H336 C274 0.930 . S
H337 C277 0.929 . S
H338 C278 0.930 . S
H339 C282 0.962 . S
H340 C282 0.959 . S
H341 C282 0.958 . S
Zn342 O344 1.933 1_556 S
Zn342 O362 1.985 . S
Zn342 O373 1.955 . S
Zn343 O344 1.911 . S
Zn343 O363 1.970 . S
Zn343 O379 1.945 . S
Zn343 O386 1.981 . S
O344 Zn342 1.933 1_554 S
O344 Zn343 1.911 . S
O344 H345 0.841 . S
H345 O344 0.841 . S
C346 O347 1.246 . S
C346 O375 1.276 1_455 S
O347 C346 1.246 . S
Zn348 O350 1.911 . S
Zn348 O365 1.970 . S
Zn348 O382 1.945 . S
Zn348 O389 1.981 . S
Zn349 O350 1.933 1_556 S
Zn349 O364 1.985 . S
Zn349 O371 1.955 . S
O350 Zn348 1.911 . S
O350 Zn349 1.933 1_554 S
O350 H351 0.841 1_565 S
H351 O350 0.841 1_545 S
Zn352 O353 1.933 1_556 S
Zn352 O366 1.985 . S
Zn352 O375 1.955 . S
O353 Zn352 1.933 1_554 S
O353 Zn354 1.911 . S
O353 H355 0.841 1_655 S
Zn354 O353 1.911 . S
Zn354 O367 1.970 . S
Zn354 O383 1.981 . S
Zn354 O385 1.945 . S
H355 O353 0.841 1_455 S
Zn356 O357 1.933 1_556 S
Zn356 O369 1.985 . S
Zn356 O377 1.955 . S
O357 Zn356 1.933 1_554 S
O357 H358 0.841 . S
O357 Zn359 1.911 . S
H358 O357 0.841 . S
Zn359 O357 1.911 . S
Zn359 O370 1.970 . S
Zn359 O380 1.981 . S
Zn359 O388 1.945 . S
C360 O361 1.246 1_455 S
C360 O377 1.276 . S
O361 C360 1.246 1_655 S
O362 Zn342 1.985 . S
O362 C372 1.245 1_556 S
O363 Zn343 1.970 . S
O363 C372 1.263 . S
O364 Zn349 1.985 . S
O364 C376 1.245 1_556 S
O365 Zn348 1.970 . S
O365 C376 1.263 . S
O366 Zn352 1.985 . S
O366 C381 1.245 1_556 S
O367 Zn354 1.970 . S
O367 C381 1.263 . S
C368 O379 1.262 . S
C368 O380 1.245 1_545 S
O369 Zn356 1.985 . S
O369 C387 1.245 1_556 S
O370 Zn359 1.970 . S
O370 C387 1.263 . S
O371 Zn349 1.955 . S
O371 C390 1.276 1_565 S
C372 O362 1.245 1_554 S
C372 O363 1.263 . S
O373 Zn342 1.955 . S
O373 C392 1.276 . S
C374 O382 1.262 1_545 S
C374 O383 1.245 . S
O375 C346 1.276 1_655 S
O375 Zn352 1.955 . S
C376 O364 1.245 1_554 S
C376 O365 1.263 . S
O377 Zn356 1.955 . S
O377 C360 1.276 . S
C378 O385 1.262 1_455 S
C378 O386 1.245 . S
O379 Zn343 1.945 . S
O379 C368 1.262 . S
O380 Zn359 1.981 . S
O380 C368 1.245 1_565 S
C381 O366 1.245 1_554 S
C381 O367 1.263 . S
O382 Zn348 1.945 . S
O382 C374 1.262 1_565 S
O383 Zn354 1.981 . S
O383 C374 1.245 . S
C384 O388 1.262 . S
C384 O389 1.245 1_455 S
O385 Zn354 1.945 . S
O385 C378 1.262 1_655 S
O386 Zn343 1.981 . S
O386 C378 1.245 . S
C387 O369 1.245 1_554 S
C387 O370 1.263 . S
O388 Zn359 1.945 . S
O388 C384 1.262 . S
O389 Zn348 1.981 . S
O389 C384 1.245 1_655 S
C390 O371 1.276 1_545 S
C390 O391 1.246 . S
O391 C390 1.246 . S
C392 O373 1.276 . S
C392 O393 1.246 1_545 S
O393 C392 1.246 1_565 S
C394 C395 1.363 . S
C394 C400 1.379 . S
C394 N402 1.356 . S
C395 C394 1.363 . S
C395 C401 1.363 1_455 S
C396 C397 1.363 . S
C396 C401 1.379 1_455 S
C396 N403 1.356 1_455 S
C397 C396 1.363 . S
C397 C400 1.363 . S
N398 C400 1.356 . S
N398 H410 0.984 . S
N398 H411 0.985 . S
N399 C401 1.356 . S
N399 H404 0.984 . S
N399 H405 0.985 . S
C400 C394 1.379 . S
C400 C397 1.363 . S
C400 N398 1.356 . S
C401 C395 1.363 1_655 S
C401 C396 1.379 1_655 S
C401 N399 1.356 . S
N402 C394 1.356 . S
N402 H408 0.984 . S
N402 H409 0.984 . S
N403 C396 1.356 1_655 S
N403 H406 0.979 1_655 S
N403 H407 0.985 . S
H404 N399 0.984 . S
H405 N399 0.985 . S
H406 N403 0.979 1_455 S
H407 N403 0.985 . S
H408 N402 0.984 . S
H409 N402 0.984 . S
H410 N398 0.984 . S
H411 N398 0.985 . S
C412 C413 1.363 . S
C412 C418 1.379 . S
C412 N420 1.356 . S
C413 C412 1.363 . S
C413 C419 1.363 1_545 S
C414 C415 1.363 1_565 S
C414 C419 1.379 . S
C414 N421 1.356 . S
C415 C414 1.363 1_545 S
C415 C418 1.363 . S
N416 C418 1.356 . S
N416 H428 0.984 . S
N416 H429 0.985 . S
N417 C419 1.356 . S
N417 H422 0.984 . S
N417 H423 0.985 . S
C418 C412 1.379 . S
C418 C415 1.363 . S
C418 N416 1.356 . S
C419 C413 1.363 1_565 S
C419 C414 1.379 . S
C419 N417 1.356 . S
N420 C412 1.356 . S
N420 H426 0.984 . S
N420 H427 0.984 . S
N421 C414 1.356 . S
N421 H424 0.984 . S
N421 H425 0.985 . S
H422 N417 0.984 . S
H423 N417 0.985 . S
H424 N421 0.984 . S
H425 N421 0.985 . S
H426 N420 0.984 . S
H427 N420 0.984 . S
H428 N416 0.984 . S
H429 N416 0.985 . S
C430 C431 1.363 . S
C430 C436 1.379 . S
C430 N438 1.356 . S
C431 C430 1.363 . S
C431 C437 1.363 1_455 S
C432 C433 1.363 1_655 S
C432 C437 1.379 . S
C432 N439 1.356 . S
C433 C432 1.363 1_455 S
C433 C436 1.363 . S
N434 C436 1.356 . S
N434 H446 0.984 . S
N434 H447 0.985 . S
N435 C437 1.356 . S
N435 H440 0.984 . S
N435 H441 0.985 . S
C436 C430 1.379 . S
C436 C433 1.363 . S
C436 N434 1.356 . S
C437 C431 1.363 1_655 S
C437 C432 1.379 . S
C437 N435 1.356 . S
N438 C430 1.356 . S
N438 H444 0.984 . S
N438 H445 0.984 . S
N439 C432 1.356 . S
N439 H442 0.984 . S
N439 H443 0.985 . S
H440 N435 0.984 . S
H441 N435 0.985 . S
H442 N439 0.984 . S
H443 N439 0.985 . S
H444 N438 0.984 . S
H445 N438 0.984 . S
H446 N434 0.984 . S
H447 N434 0.985 . S
C448 C449 1.363 1_565 S
C448 C454 1.379 . S
C448 N456 1.356 . S
C449 C448 1.363 1_545 S
C449 C455 1.363 . S
C450 C451 1.363 . S
C450 C455 1.379 . S
C450 N457 1.356 . S
C451 C450 1.363 . S
C451 C454 1.363 1_545 S
N452 C454 1.356 . S
N452 H464 0.984 . S
N452 H465 0.985 . S
N453 C455 1.356 . S
N453 H458 0.984 . S
N453 H459 0.985 . S
C454 C448 1.379 . S
C454 C451 1.363 1_565 S
C454 N452 1.356 . S
C455 C449 1.363 . S
C455 C450 1.379 . S
C455 N453 1.356 . S
N456 C448 1.356 . S
N456 H462 0.984 . S
N456 H463 0.984 . S
N457 C450 1.356 . S
N457 H460 0.984 . S
N457 H461 0.985 . S
H458 N453 0.984 . S
H459 N453 0.985 . S
H460 N457 0.984 . S
H461 N457 0.985 . S
H462 N456 0.984 . S
H463 N456 0.984 . S
H464 N452 0.984 . S
H465 N452 0.985 . S
C466 C467 1.363 1_655 S
C466 C472 1.379 . S
C466 N474 1.356 . S
C467 C466 1.363 1_455 S
C467 C473 1.363 . S
C468 C469 1.363 . S
C468 C473 1.379 . S
C468 N475 1.356 . S
C469 C468 1.363 . S
C469 C472 1.363 1_455 S
N470 C472 1.356 . S
N470 H482 0.984 . S
N470 H483 0.985 . S
N471 C473 1.356 . S
N471 H476 0.984 . S
N471 H477 0.985 . S
C472 C466 1.379 . S
C472 C469 1.363 1_655 S
C472 N470 1.356 . S
C473 C467 1.363 . S
C473 C468 1.379 . S
C473 N471 1.356 . S
N474 C466 1.356 . S
N474 H480 0.984 . S
N474 H481 0.984 . S
N475 C468 1.356 . S
N475 H478 0.984 . S
N475 H479 0.985 . S
H476 N471 0.984 . S
H477 N471 0.985 . S
H478 N475 0.984 . S
H479 N475 0.985 . S
H480 N474 0.984 . S
H481 N474 0.984 . S
H482 N470 0.984 . S
H483 N470 0.985 . S
C484 C485 1.363 1_565 S
C484 C490 1.379 . S
C484 N492 1.356 . S
C485 C484 1.363 1_545 S
C485 C491 1.363 . S
C486 C487 1.363 1_545 S
C486 C491 1.379 . S
C486 N493 1.356 . S
C487 C486 1.363 1_565 S
C487 C490 1.363 . S
N488 C490 1.356 . S
N488 H500 0.984 . S
N488 H501 0.985 . S
N489 C491 1.356 . S
N489 H494 0.984 . S
N489 H495 0.985 . S
C490 C484 1.379 . S
C490 C487 1.363 . S
C490 N488 1.356 . S
C491 C485 1.363 . S
C491 C486 1.379 . S
C491 N489 1.356 . S
N492 C484 1.356 . S
N492 H498 0.984 . S
N492 H499 0.984 . S
N493 C486 1.356 . S
N493 H496 0.984 . S
N493 H497 0.985 . S
H494 N489 0.984 . S
H495 N489 0.985 . S
H496 N493 0.984 . S
H497 N493 0.985 . S
H498 N492 0.984 . S
H499 N492 0.984 . S
H500 N488 0.984 . S
H501 N488 0.985 . S
C502 C503 1.363 . S
C502 C508 1.379 . S
C502 N510 1.356 . S
C503 C502 1.363 . S
C503 C509 1.363 . S
C504 C505 1.363 . S
C504 C509 1.379 . S
C504 N511 1.356 . S
C505 C504 1.363 . S
C505 C508 1.363 . S
N506 C508 1.356 . S
N506 H518 0.984 . S
N506 H519 0.985 . S
N507 C509 1.356 . S
N507 H512 0.984 . S
N507 H513 0.985 1_455 S
C508 C502 1.379 . S
C508 C505 1.363 . S
C508 N506 1.356 . S
C509 C503 1.363 . S
C509 C504 1.379 . S
C509 N507 1.356 . S
N510 C502 1.356 . S
N510 H516 0.984 . S
N510 H517 0.984 . S
N511 C504 1.356 . S
N511 H514 0.984 . S
N511 H515 0.985 . S
H512 N507 0.984 . S
H513 N507 0.985 1_655 S
H514 N511 0.984 . S
H515 N511 0.985 . S
H516 N510 0.984 . S
H517 N510 0.984 . S
H518 N506 0.984 . S
H519 N506 0.985 . S
C520 C521 1.363 . S
C520 C526 1.379 . S
C520 N528 1.356 . S
C521 C520 1.363 . S
C521 C527 1.363 1_545 S
C522 C523 1.363 1_565 S
C522 C527 1.379 . S
C522 N529 1.356 . S
C523 C522 1.363 1_545 S
C523 C526 1.363 . S
N524 C526 1.356 . S
N524 H536 0.984 . S
N524 H537 0.985 . S
N525 C527 1.356 . S
N525 H530 0.984 . S
N525 H531 0.985 . S
C526 C520 1.379 . S
C526 C523 1.363 . S
C526 N524 1.356 . S
C527 C521 1.363 1_565 S
C527 C522 1.379 . S
C527 N525 1.356 . S
N528 C520 1.356 . S
N528 H534 0.984 . S
N528 H535 0.984 . S
N529 C522 1.356 . S
N529 H532 0.984 . S
N529 H533 0.985 . S
H530 N525 0.984 . S
H531 N525 0.985 . S
H532 N529 0.984 . S
H533 N529 0.985 . S
H534 N528 0.984 . S
H535 N528 0.984 . S
H536 N524 0.984 . S
H537 N524 0.985 . S
C538 C539 1.363 . S
C538 C544 1.379 . S
C538 N546 1.356 . S
C539 C538 1.363 . S
C539 C545 1.363 1_554 S
C540 C541 1.363 1_556 S
C540 C545 1.379 . S
C540 N547 1.356 . S
C541 C540 1.363 1_554 S
C541 C544 1.363 . S
N542 C544 1.356 . S
N542 H554 0.984 . S
N542 H555 0.985 . S
N543 C545 1.356 . S
N543 H548 0.984 . S
N543 H549 0.985 . S
C544 C538 1.379 . S
C544 C541 1.363 . S
C544 N542 1.356 . S
C545 C539 1.363 1_556 S
C545 C540 1.379 . S
C545 N543 1.356 . S
N546 C538 1.356 . S
N546 H552 0.984 . S
N546 H553 0.984 . S
N547 C540 1.356 . S
N547 H550 0.984 . S
N547 H551 0.985 . S
H548 N543 0.984 . S
H549 N543 0.985 . S
H550 N547 0.984 . S
H551 N547 0.985 . S
H552 N546 0.984 . S
H553 N546 0.984 . S
H554 N542 0.984 . S
H555 N542 0.985 . S
C556 C557 1.363 1_556 S
C556 C562 1.379 . S
C556 N564 1.356 . S
C557 C556 1.363 1_554 S
C557 C563 1.363 . S
C558 C559 1.363 . S
C558 C563 1.379 . S
C558 N565 1.356 . S
C559 C558 1.363 . S
C559 C562 1.363 1_554 S
N560 C562 1.356 . S
N560 H572 0.984 . S
N560 H573 0.985 . S
N561 C563 1.356 . S
N561 H566 0.984 . S
N561 H567 0.985 . S
C562 C556 1.379 . S
C562 C559 1.363 1_556 S
C562 N560 1.356 . S
C563 C557 1.363 . S
C563 C558 1.379 . S
C563 N561 1.356 . S
N564 C556 1.356 . S
N564 H570 0.984 . S
N564 H571 0.984 . S
N565 C558 1.356 . S
N565 H568 0.984 . S
N565 H569 0.985 . S
H566 N561 0.984 . S
H567 N561 0.985 . S
H568 N565 0.984 . S
H569 N565 0.985 . S
H570 N564 0.984 . S
H571 N564 0.984 . S
H572 N560 0.984 . S
H573 N560 0.985 . S
C574 C575 1.363 . S
C574 C580 1.379 . S
C574 N582 1.356 . S
C575 C574 1.363 . S
C575 C581 1.363 1_554 S
C576 C577 1.363 1_556 S
C576 C581 1.379 . S
C576 N583 1.356 . S
C577 C576 1.363 1_554 S
C577 C580 1.363 . S
N578 C580 1.356 . S
N578 H590 0.984 . S
N578 H591 0.985 . S
N579 C581 1.356 . S
N579 H584 0.984 . S
N579 H585 0.985 . S
C580 C574 1.379 . S
C580 C577 1.363 . S
C580 N578 1.356 . S
C581 C575 1.363 1_556 S
C581 C576 1.379 . S
C581 N579 1.356 . S
N582 C574 1.356 . S
N582 H588 0.984 . S
N582 H589 0.984 . S
N583 C576 1.356 . S
N583 H586 0.984 . S
N583 H587 0.985 . S
H584 N579 0.984 . S
H585 N579 0.985 . S
H586 N583 0.984 . S
H587 N583 0.985 . S
H588 N582 0.984 . S
H589 N582 0.984 . S
H590 N578 0.984 . S
H591 N578 0.985 . S
C592 C593 1.363 1_556 S
C592 C598 1.379 . S
C592 N600 1.356 . S
C593 C592 1.363 1_554 S
C593 C599 1.363 . S
C594 C595 1.363 . S
C594 C599 1.379 . S
C594 N601 1.356 . S
C595 C594 1.363 . S
C595 C598 1.363 1_554 S
N596 C598 1.356 . S
N596 H608 0.984 . S
N596 H609 0.985 . S
N597 C599 1.356 . S
N597 H602 0.984 . S
N597 H603 0.985 . S
C598 C592 1.379 . S
C598 C595 1.363 1_556 S
C598 N596 1.356 . S
C599 C593 1.363 . S
C599 C594 1.379 . S
C599 N597 1.356 . S
N600 C592 1.356 . S
N600 H606 0.984 . S
N600 H607 0.984 . S
N601 C594 1.356 . S
N601 H604 0.984 . S
N601 H605 0.985 . S
H602 N597 0.984 . S
H603 N597 0.985 . S
H604 N601 0.984 . S
H605 N601 0.985 . S
H606 N600 0.984 . S
H607 N600 0.984 . S
H608 N596 0.984 . S
H609 N596 0.985 . S
C397 C378 1.665 . S
C395 C11 1.004 1_455 S
C415 C374 1.566 . S
C413 C143 1.341 . S
C433 C384 1.410 . S
C431 C1 1.145 . S
C451 C368 1.714 . S
C449 C169 1.353 . S
C467 C29 1.409 . S
C469 C360 1.589 . S
C487 C392 1.818 1_565 S
C485 C125 1.090 1_545 S
C503 C55 1.450 . S
C505 C346 1.742 . S
C521 C115 1.262 . S
C523 C390 1.569 . S
C539 C283 0.887 . S
C541 C372 1.152 . S
C557 C239 0.678 . S
C559 C387 1.212 . S
C577 C381 1.044 . S
C575 C257 0.930 . S
C595 C376 0.945 . S
C593 C229 0.842 1_554 S
