# Generated by pormake.
# Topology zzz, (3,6)-cn, num edge types: 1
# Building blocks:
#     Node 0, Type 0, BuildingBlock: PAMTOO_clean_linker_0, # of connection points: 3
#     Node 1, Type 0, BuildingBlock: PAMTOO_clean_linker_0, # of connection points: 3
#     Node 2, Type 0, BuildingBlock: PAMTOO_clean_linker_0, # of connection points: 3
#     Node 3, Type 0, BuildingBlock: PAMTOO_clean_linker_0, # of connection points: 3
#     Node 4, Type 0, BuildingBlock: PAMTOO_clean_linker_0, # of connection points: 3
#     Node 5, Type 0, BuildingBlock: PAMTOO_clean_linker_0, # of connection points: 3
#     Node 6, Type 0, BuildingBlock: PAMTOO_clean_linker_0, # of connection points: 3
#     Node 7, Type 0, BuildingBlock: PAMTOO_clean_linker_0, # of connection points: 3
#     Node 8, Type 1, BuildingBlock: MIFKUJ_clean_sbu_0, # of connection points: 6
#     Node 9, Type 1, BuildingBlock: MIFKUJ_clean_sbu_0, # of connection points: 6
#     Node 10, Type 1, BuildingBlock: MIFKUJ_clean_sbu_0, # of connection points: 6
#     Node 11, Type 1, BuildingBlock: MIFKUJ_clean_sbu_0, # of connection points: 6
#     Edge 12, Type (0, 1), BuildingBlock: AJUNOK_clean_linker_0, # of connection points: 2
#     Edge 13, Type (0, 1), BuildingBlock: AJUNOK_clean_linker_0, # of connection points: 2
#     Edge 14, Type (0, 1), BuildingBlock: AJUNOK_clean_linker_0, # of connection points: 2
#     Edge 15, Type (0, 1), BuildingBlock: AJUNOK_clean_linker_0, # of connection points: 2
#     Edge 16, Type (0, 1), BuildingBlock: AJUNOK_clean_linker_0, # of connection points: 2
#     Edge 17, Type (0, 1), BuildingBlock: AJUNOK_clean_linker_0, # of connection points: 2
#     Edge 18, Type (0, 1), BuildingBlock: AJUNOK_clean_linker_0, # of connection points: 2
#     Edge 19, Type (0, 1), BuildingBlock: AJUNOK_clean_linker_0, # of connection points: 2
#     Edge 20, Type (0, 1), BuildingBlock: AJUNOK_clean_linker_0, # of connection points: 2
#     Edge 21, Type (0, 1), BuildingBlock: AJUNOK_clean_linker_0, # of connection points: 2
#     Edge 22, Type (0, 1), BuildingBlock: AJUNOK_clean_linker_0, # of connection points: 2
#     Edge 23, Type (0, 1), BuildingBlock: AJUNOK_clean_linker_0, # of connection points: 2
#     Edge 24, Type (0, 1), BuildingBlock: AJUNOK_clean_linker_0, # of connection points: 2
#     Edge 25, Type (0, 1), BuildingBlock: AJUNOK_clean_linker_0, # of connection points: 2
#     Edge 26, Type (0, 1), BuildingBlock: AJUNOK_clean_linker_0, # of connection points: 2
#     Edge 27, Type (0, 1), BuildingBlock: AJUNOK_clean_linker_0, # of connection points: 2
#     Edge 28, Type (0, 1), BuildingBlock: AJUNOK_clean_linker_0, # of connection points: 2
#     Edge 29, Type (0, 1), BuildingBlock: AJUNOK_clean_linker_0, # of connection points: 2
#     Edge 30, Type (0, 1), BuildingBlock: AJUNOK_clean_linker_0, # of connection points: 2
#     Edge 31, Type (0, 1), BuildingBlock: AJUNOK_clean_linker_0, # of connection points: 2
#     Edge 32, Type (0, 1), BuildingBlock: AJUNOK_clean_linker_0, # of connection points: 2
#     Edge 33, Type (0, 1), BuildingBlock: AJUNOK_clean_linker_0, # of connection points: 2
#     Edge 34, Type (0, 1), BuildingBlock: AJUNOK_clean_linker_0, # of connection points: 2
#     Edge 35, Type (0, 1), BuildingBlock: AJUNOK_clean_linker_0, # of connection points: 2
# Relax obj value: 0.121
# Max RMSD: 0.123
# Mean RMSD: 0.083
data_MOF--net-zzz--node1-MIFKUJ_clean_sbu_0--node2-PAMTOO_clean_linker_0--edge1-AJUNOK_clean_linker_0
_symmetry_space_group_name_H-M    P1
_symmetry_Int_Tables_number       1
_symmetry_cell_setting            triclinic
loop_
_symmetry_equiv_pos_as_xyz
'x, y, z'
_cell_length_a     37.137252
_cell_length_b     37.262518
_cell_length_c     12.258398
_cell_angle_alpha  89.618443
_cell_angle_beta   89.566466
_cell_angle_gamma 90.401057
loop_
_atom_site_label
_atom_site_type_symbol
_atom_site_fract_x
_atom_site_fract_y
_atom_site_fract_z
_atom_type_partial_charge
H0 H 0.82309 0.58175 0.10836 0.0
H1 H 0.7304 0.57151 0.90405 0.0
H2 H 0.72339 0.54214 0.24331 0.0
H3 H 0.66681 0.49912 0.08826 0.0
C4 C 0.67747 0.51559 0.01919 0.0
O5 O 0.6871 0.54907 0.05811 0.0
H6 H 0.70129 0.50097 -0.01329 0.0
C7 C 0.79427 0.57742 0.10035 0.0
C8 C 0.775 0.56353 0.18926 0.0
C9 C 0.77891 0.57893 -0.00308 0.0
C10 C 0.7423 0.57107 -0.0155 0.0
C11 C 0.72183 0.55893 0.07392 0.0
C12 C 0.7384 0.55424 0.17631 0.0
H13 H 0.98602 0.82665 0.08609 0.0
H14 H 0.98347 0.72652 0.9151 0.0
H15 H 0.00679 0.72845 0.25935 0.0
H16 H 0.03604 0.65211 0.12777 0.0
C17 C 0.02719 0.6688 0.05766 0.0
O18 O 0.99628 0.68684 0.0874 0.0
H19 H 0.04964 0.68795 0.03891 0.0
C20 C 0.98742 0.79751 0.08745 0.0
C21 C 0.99609 0.77996 0.18406 0.0
C22 C 0.98334 0.77863 -0.0093 0.0
C23 C 0.98634 0.74128 -0.00956 0.0
C24 C 0.99402 0.72302 0.08792 0.0
C25 C 0.9996 0.74241 0.18495 0.0
H26 H 0.69429 0.9536 0.0982 0.0
H27 H 0.79133 0.96294 0.90837 0.0
H28 H 0.79645 0.96094 0.25934 0.0
H29 H 0.86962 0.9992 0.13343 0.0
C30 C 0.85264 0.99415 0.06083 0.0
O31 O 0.8347 0.96181 0.07513 0.0
H32 H 0.83341 0.01696 0.05606 0.0
C33 C 0.72355 0.95377 0.09455 0.0
C34 C 0.74307 0.95546 0.19099 0.0
C35 C 0.74055 0.95793 -0.00635 0.0
C36 C 0.77806 0.9595 -0.01317 0.0
C37 C 0.79842 0.95929 0.08266 0.0
C38 C 0.78089 0.95845 0.18537 0.0
H39 H 0.48435 0.69358 0.10819 0.0
H40 H 0.48027 0.79084 0.91917 0.0
H41 H 0.52461 0.7919 0.24335 0.0
H42 H 0.55251 0.82218 0.96383 0.0
C43 C 0.53955 0.84392 0.012 0.0
O44 O 0.50943 0.83128 0.06772 0.0
H45 H 0.55988 0.85304 0.07196 0.0
C46 C 0.48852 0.72239 0.10145 0.0
C47 C 0.50531 0.74034 0.18679 0.0
C48 C 0.47942 0.74011 0.00501 0.0
C49 C 0.48607 0.77701 -0.00498 0.0
C50 C 0.50223 0.79583 0.08077 0.0
C51 C 0.51181 0.77751 0.17751 0.0
H52 H 0.19092 0.48767 0.11515 0.0
H53 H 0.28916 0.50417 0.28875 0.0
H54 H 0.29201 0.46232 0.96153 0.0
H55 H 0.36142 0.43406 0.1297 0.0
C56 C 0.34743 0.45119 0.19032 0.0
O57 O 0.33112 0.47928 0.13562 0.0
H58 H 0.32723 0.43353 0.23228 0.0
C59 C 0.2201 0.48623 0.11777 0.0
C60 C 0.23895 0.47367 0.02713 0.0
C61 C 0.23787 0.49715 0.21167 0.0
C62 C 0.27534 0.49564 0.21599 0.0
C63 C 0.29493 0.48215 0.12729 0.0
C64 C 0.27682 0.47167 0.03141 0.0
H65 H 0.01228 0.19923 0.13749 0.0
H66 H 0.99752 0.29853 0.30687 0.0
H67 H 0.99881 0.29699 0.95498 0.0
H68 H 0.02431 0.38118 0.08025 0.0
C69 C 0.02162 0.36262 0.15114 0.0
O70 O 0.99439 0.33816 0.13037 0.0
H71 H 0.04808 0.34899 0.16011 0.0
C72 C 0.0093 0.22823 0.13522 0.0
C73 C 0.00654 0.24569 0.0351 0.0
C74 C 0.00538 0.24688 0.23259 0.0
C75 C 1.00062 0.28398 0.23117 0.0
C76 C 0.99949 0.30231 0.13096 0.0
C77 C 1.00179 0.28311 0.03225 0.0
H78 H 0.32431 0.04984 0.11836 0.0
H79 H 0.22816 0.03013 0.30543 0.0
H80 H 0.22107 0.0564 0.96299 0.0
H81 H 0.14494 0.07975 0.12506 0.0
C82 C 0.1623 0.06847 0.19003 0.0
O83 O 0.18387 0.04213 0.14512 0.0
H84 H 0.17889 0.09109 0.22182 0.0
C85 C 0.29507 0.04917 0.12306 0.0
C86 C 0.27504 0.05515 0.02914 0.0
C87 C 0.27856 0.0392 0.22103 0.0
C88 C 0.24108 0.03761 0.22895 0.0
C89 C 0.22015 0.04501 0.13684 0.0
C90 C 0.23712 0.05297 0.03565 0.0
H91 H 0.49862 0.32719 0.12862 0.0
H92 H 0.51532 0.22722 0.29546 0.0
H93 H 0.52373 0.2326 0.94478 0.0
H94 H 0.50006 0.14497 0.06322 0.0
C95 C 0.49931 0.16331 0.13422 0.0
O96 O 0.5254 0.18967 0.1193 0.0
H97 H 0.47183 0.17516 0.13645 0.0
C98 C 0.50308 0.29842 0.12525 0.0
C99 C 0.51031 0.28244 0.02517 0.0
C100 C 0.50528 0.27886 0.22219 0.0
C101 C 0.51295 0.24229 0.21996 0.0
C102 C 0.51802 0.22516 0.11974 0.0
C103 C 0.51754 0.24537 0.02171 0.0
Zn104 Zn 1.00212 0.06753 0.62267 0.0
Zn105 Zn 0.01547 0.95493 0.59928 0.0
C106 C 0.98987 0.12334 0.75859 0.0
O107 O 0.95948 0.11712 0.70767 0.0
C108 C 0.02595 0.90143 0.45314 0.0
O109 O 0.05688 0.90532 0.50315 0.0
O110 O 0.99187 0.10274 0.50627 0.0
O111 O 0.0406 0.03422 0.56597 0.0
O112 O 0.06147 0.97966 0.54816 0.0
C113 C 0.01798 0.12494 0.50057 0.0
O114 O 0.04826 0.11696 0.54956 0.0
O115 O 0.01597 0.10174 0.74383 0.0
C116 C 0.99069 0.89897 0.71115 0.0
O117 O 0.96312 0.91235 0.65849 0.0
O118 O 0.02083 0.91555 0.70786 0.0
O119 O 0.97634 0.98717 0.6626 0.0
O120 O 0.95733 0.04273 0.677 0.0
O121 O 1.00103 0.92405 0.47176 0.0
C122 C 0.06471 0.01316 0.53057 0.0
C123 C 0.95329 0.00956 0.69764 0.0
Zn124 Zn 0.45469 0.01772 0.62807 0.0
Zn125 Zn 0.56829 0.00774 0.59598 0.0
C126 C 0.39235 0.02338 0.75128 0.0
O127 O 0.3929 0.99005 0.71693 0.0
C128 C 0.62763 1.00148 0.46458 0.0
O129 O 0.62889 0.03428 0.5032 0.0
O130 O 0.41965 1.00432 0.51277 0.0
O131 O 0.49131 0.05079 0.54583 0.0
O132 O 0.55075 0.05327 0.52666 0.0
C133 C 0.40119 0.03183 0.48901 0.0
O134 O 0.41129 0.06327 0.52622 0.0
O135 O 0.42021 0.04299 0.73407 0.0
C136 C 0.6185 0.98394 0.72975 0.0
O137 O 0.6026 0.95538 0.6894 0.0
O138 O 0.60505 0.01467 0.71087 0.0
O139 O 0.52905 0.97902 0.66739 0.0
O140 O 0.47177 0.9721 0.70473 0.0
O141 O 0.59938 0.98261 0.483 0.0
C142 C 0.51971 0.06592 0.50681 0.0
C143 C 0.50387 0.96107 0.71217 0.0
Zn144 Zn 0.52046 0.45915 0.60152 0.0
Zn145 Zn 0.49596 0.56214 0.6123 0.0
C146 C 0.53478 0.4079 0.75866 0.0
O147 O 0.56607 0.41228 0.70936 0.0
C148 C 0.49424 0.6238 0.48013 0.0
O149 O 0.4609 0.62107 0.516 0.0
O150 O 0.53141 0.41801 0.50479 0.0
O151 O 0.47706 0.47916 0.52878 0.0
O152 O 0.45692 0.53466 0.53264 0.0
C153 C 0.50431 0.39681 0.50659 0.0
O154 O 0.47478 0.40652 0.55783 0.0
O155 O 0.50985 0.43036 0.73892 0.0
C156 C 0.49443 0.6195 0.74413 0.0
O157 O 0.52836 0.61589 0.71532 0.0
O158 O 0.47209 0.59498 0.71925 0.0
O159 O 0.53783 0.53959 0.69775 0.0
O160 O 0.5634 0.49144 0.6245 0.0
O161 O 0.5162 0.59865 0.50197 0.0
C162 C 0.45401 0.50235 0.50225 0.0
C163 C 0.56324 0.51678 0.69344 0.0
Zn164 Zn 0.06156 0.50439 0.62232 0.0
Zn165 Zn 0.94817 0.51755 0.60289 0.0
C166 C 0.12367 0.49728 0.74238 0.0
O167 O 0.12442 0.53035 0.70444 0.0
C168 C 0.89121 0.51779 0.46353 0.0
O169 O 0.89035 0.48641 0.51303 0.0
O170 O 0.09535 0.51851 0.50335 0.0
O171 O 0.02304 0.47332 0.55436 0.0
O172 O 0.96379 0.46916 0.54474 0.0
C173 C 0.1159 0.49251 0.48095 0.0
O174 O 0.10737 0.46018 0.51642 0.0
O175 O 0.09533 0.47842 0.7275 0.0
C176 C 0.89987 0.54982 0.72558 0.0
O177 O 0.91827 0.57504 0.67405 0.0
O178 O 0.90932 0.51714 0.71542 0.0
O179 O 0.98645 0.54871 0.67546 0.0
O180 O 0.04549 0.54926 0.69547 0.0
O181 O 0.91791 0.53882 0.48073 0.0
C182 C 0.9949 0.45731 0.52085 0.0
C183 C 0.01497 0.5633 0.71185 0.0
C184 C 0.13818 0.06774 0.38532 0.0
C185 C 0.13856 0.05273 0.27989 0.0
C186 C 0.11455 0.05477 0.46726 0.0
C187 C 0.09107 0.02586 0.44718 0.0
H188 H 0.15585 0.09006 0.4041 0.0
H189 H 0.11465 0.06738 0.54661 0.0
S190 S 0.08019 0.97844 0.18404 0.0
N191 N 0.11214 0.00853 0.15937 0.0
N192 N 0.06878 0.98342 0.31352 0.0
C193 C 0.09136 0.01054 0.34252 0.0
C194 C 0.11481 0.02416 0.25889 0.0
C195 C 0.47882 0.13575 0.31505 0.0
C196 C 0.50638 0.14175 0.23732 0.0
C197 C 0.48382 0.11265 0.40499 0.0
C198 C 0.51659 0.09457 0.42104 0.0
H199 H 0.45282 0.14827 0.30478 0.0
H200 H 0.46154 0.10838 0.46097 0.0
S201 S 0.59782 0.10262 0.24205 0.0
N202 N 0.56782 0.12879 0.18354 0.0
N203 N 0.57772 0.08592 0.35188 0.0
C204 C 0.54484 0.1016 0.34557 0.0
C205 C 0.53957 0.12489 0.25388 0.0
C206 C 0.41015 0.47144 0.2412 0.0
C207 C 0.37406 0.46557 0.27251 0.0
C208 C 0.43567 0.48388 0.31616 0.0
C209 C 0.42583 0.4919 0.42421 0.0
H210 H 0.41884 0.46574 0.15859 0.0
H211 H 0.46341 0.48713 0.28954 0.0
S212 S 0.33506 0.48158 0.54762 0.0
N213 N 0.33002 0.46838 0.42018 0.0
N214 N 0.37782 0.49343 0.55916 0.0
C215 C 0.38983 0.487 0.45623 0.0
C216 C 0.36394 0.47353 0.38068 0.0
C217 C 0.03666 0.38589 0.33995 0.0
C218 C 0.01255 0.38406 0.25201 0.0
C219 C 0.02993 0.40828 0.42964 0.0
C220 C 0.99862 0.42932 0.43547 0.0
H221 H 0.06139 0.37067 0.33807 0.0
H222 H 0.0498 0.40975 0.49369 0.0
S223 S 0.92684 0.43356 0.22602 0.0
N224 N 0.95618 0.40474 0.17646 0.0
N225 N 0.943 0.44624 0.34491 0.0
C226 C 0.97373 0.42669 0.34941 0.0
C227 C 0.98087 0.40429 0.25772 0.0
C228 C 0.8679 0.01435 0.86781 0.0
C229 C 0.87621 0.99317 0.95957 0.0
C230 C 0.89198 0.01744 0.77921 0.0
C231 C 0.92496 0.99899 0.77807 0.0
H232 H 0.84337 0.0299 0.86655 0.0
H233 H 0.8854 0.03561 0.71302 0.0
S234 S 0.95815 0.93843 -0.00358 0.0
N235 N 0.91852 0.95193 0.04162 0.0
N236 N 0.96389 0.95782 0.87587 0.0
C237 C 0.93258 0.97617 0.86682 0.0
C238 C 0.90814 0.97322 0.95727 0.0
C239 C 0.52029 0.8675 0.82662 0.0
C240 C 0.5294 0.87438 0.93601 0.0
C241 C 0.51198 0.89564 0.75398 0.0
C242 C 0.51234 0.9315 0.78861 0.0
H243 H 0.52 0.84019 0.79679 0.0
H244 H 0.50545 0.88934 0.67026 0.0
S245 S 0.53179 0.9636 0.06771 0.0
N246 N 0.53627 0.91959 0.07615 0.0
N247 N 0.52089 0.97233 0.93982 0.0
C248 C 0.52048 0.93864 0.89807 0.0
C249 C 0.52882 0.9101 0.97187 0.0
C250 C 0.61268 0.52349 0.96255 0.0
C251 C 0.64894 0.51892 0.93202 0.0
C252 C 0.58522 0.52395 0.88431 0.0
C253 C 0.59301 0.51947 0.77274 0.0
H254 H 0.60543 0.5259 0.04794 0.0
H255 H 0.55757 0.52658 0.91173 0.0
S256 S 0.68387 0.51164 0.64851 0.0
N257 N 0.69146 0.51382 0.78099 0.0
N258 N 0.63971 0.51367 0.63452 0.0
C259 C 0.62923 0.51638 0.74056 0.0
C260 C 0.65725 0.51651 0.82 0.0
C261 C 0.04251 0.64615 0.86861 0.0
C262 C 0.01999 0.64461 0.96142 0.0
C263 C 0.03924 0.6209 0.78468 0.0
C264 C 0.01301 0.5935 0.78958 0.0
H265 H 0.06372 0.66618 0.86264 0.0
H266 H 0.05818 0.6221 0.71705 0.0
S267 S 0.94747 0.57778 0.0151 0.0
N268 N 0.97049 0.61363 0.05296 0.0
N269 N 0.96407 0.56642 0.89487 0.0
C270 C 0.98949 0.59243 0.88005 0.0
C271 C 0.9931 0.61789 0.96609 0.0
C272 C 0.97547 0.20141 0.34659 0.0
C273 C 1.00446 0.22541 0.33264 0.0
C274 C 0.97971 0.16943 0.40466 0.0
C275 C 0.01307 0.16063 0.45087 0.0
H276 H 0.95055 0.2057 0.30302 0.0
H277 H 0.95727 0.15073 0.408 0.0
S278 S 0.0946 0.21896 0.45652 0.0
N279 N 0.06542 0.24152 0.38225 0.0
N280 N 0.07362 0.18169 0.49484 0.0
C281 C 0.04097 0.18648 0.44775 0.0
C282 C 0.03653 0.21898 0.38805 0.0
C283 C 0.30806 0.05512 0.39337 0.0
C284 C 0.30225 0.02977 0.31154 0.0
C285 C 0.33972 0.05449 0.45409 0.0
C286 C 0.36635 0.02852 0.43435 0.0
H287 H 0.28962 0.07727 0.40391 0.0
H288 H 0.34406 0.07549 0.5134 0.0
S289 S 0.36108 0.95367 0.2379 0.0
N290 N 0.32318 0.97591 0.22123 0.0
N291 N 0.38297 0.97467 0.33569 0.0
C292 C 0.35926 1.00116 0.35955 0.0
C293 C 0.327 1.00178 0.29804 0.0
C294 C 0.47219 0.31543 0.35469 0.0
C295 C 0.5046 0.29932 0.3233 0.0
C296 C 0.47238 0.34617 0.41909 0.0
C297 C 0.50504 0.36197 0.4519 0.0
H298 H 0.44687 0.30601 0.32168 0.0
H299 H 0.44688 0.3589 0.43687 0.0
S300 S 0.59663 0.32619 0.40464 0.0
N301 N 0.56964 0.29821 0.33993 0.0
N302 N 0.57018 0.3564 0.46121 0.0
C303 C 0.5374 0.34428 0.42871 0.0
C304 C 0.53711 0.31268 0.36445 0.0
C305 C 0.18755 0.53051 0.29417 0.0
C306 C 0.21543 0.5055 0.30701 0.0
C307 C 0.1558 0.52741 0.3554 0.0
C308 C 0.15126 0.49922 0.43076 0.0
H309 H 0.18876 0.55006 0.22835 0.0
H310 H 0.13379 0.54542 0.33768 0.0
S311 S 0.22061 0.43391 0.51693 0.0
N312 N 0.23969 0.4568 0.41589 0.0
N313 N 0.18012 0.45122 0.53302 0.0
C314 C 0.18083 0.47723 0.45471 0.0
C315 C 0.21315 0.48053 0.3927 0.0
C316 C 0.01299 0.80922 0.83662 0.0
C317 C 0.98075 0.80017 0.89105 0.0
C318 C 0.01592 0.8411 0.77622 0.0
C319 C 0.98653 0.86444 0.76785 0.0
H320 H 0.03696 0.79334 0.8493 0.0
H321 H 0.04163 0.8481 0.73917 0.0
S322 S 0.89534 0.85064 0.88683 0.0
N323 N 0.91838 0.81522 0.92671 0.0
N324 N 0.92334 0.8748 0.81059 0.0
C325 C 0.95332 0.85411 0.81441 0.0
C326 C 0.95052 0.82189 0.87647 0.0
C327 C 0.70313 0.94087 0.83652 0.0
C328 C 0.71753 0.96784 0.90224 0.0
C329 C 0.67164 0.94693 0.77767 0.0
C330 C 0.6534 0.97996 0.78438 0.0
H331 H 0.71478 0.91429 0.83673 0.0
H332 H 0.66079 0.925 0.73023 0.0
S333 S 0.68254 0.05976 0.94053 0.0
N334 N 0.71345 0.02923 0.96566 0.0
N335 N 0.65383 0.0407 0.85615 0.0
C336 C 0.66901 0.00784 0.8446 0.0
C337 C 0.70126 1.00173 0.90328 0.0
C338 C 0.49783 0.71623 0.82761 0.0
C339 C 0.47152 0.71744 0.91011 0.0
C340 C 0.50342 0.68476 0.76905 0.0
C341 C 0.48258 0.65378 0.79034 0.0
H342 H 0.51706 0.73804 0.81742 0.0
H343 H 0.52577 0.68406 0.7118 0.0
S344 S 0.40384 0.64697 0.97659 0.0
N345 N 0.41954 0.68812 -0.00602 0.0
N346 N 0.42996 0.62861 0.8829 0.0
C347 C 0.45281 0.65639 0.8608 0.0
C348 C 0.44713 0.68854 0.92052 0.0
C349 C 0.80679 0.54422 0.84938 0.0
C350 C 0.80397 0.57716 0.90398 0.0
C351 C 0.838 0.5355 0.79134 0.0
C352 C 0.86705 0.5597 0.78489 0.0
H353 H 0.78598 0.52387 0.859 0.0
H354 H 0.83967 0.50939 0.75333 0.0
S355 S 0.87141 0.6508 0.90479 0.0
N356 N 0.83149 0.63496 0.94201 0.0
N357 N 0.89005 0.6191 0.83022 0.0
C358 C 0.86354 0.59374 0.8326 0.0
C359 C 0.83192 0.60242 0.89254 0.0
C360 C 0.03259 0.20347 0.90023 0.0
C361 C 1.00247 0.22221 0.93965 0.0
C362 C 0.02848 0.17158 0.84086 0.0
C363 C 0.99408 0.15713 0.82047 0.0
H364 H 0.05948 0.21235 0.92127 0.0
H365 H 0.05239 0.15778 0.81308 0.0
S366 S 0.90678 0.196 0.90874 0.0
N367 N 0.93744 0.22438 0.95408 0.0
N368 N 0.92935 0.16448 0.84414 0.0
C369 C 0.96377 0.17634 0.8569 0.0
C370 C 0.96805 0.20889 0.91591 0.0
C371 C 0.29695 0.02424 0.86497 0.0
C372 C 0.29602 0.05596 0.92581 0.0
C373 C 0.32768 0.01501 0.80458 0.0
C374 C 0.35869 0.03718 0.80229 0.0
H375 H 0.27548 1.00456 0.8737 0.0
H376 H 0.32773 0.98917 0.76468 0.0
S377 S 0.36635 0.12709 0.92819 0.0
N378 N 0.32598 0.11244 0.96549 0.0
N379 N 0.38378 0.09531 0.85111 0.0
C380 C 0.35639 0.07096 0.85211 0.0
C381 C 0.32494 0.08037 0.91346 0.0
C382 C 0.55066 0.3202 0.91051 0.0
C383 C 0.51567 0.30732 0.93191 0.0
C384 C 0.55644 0.3527 0.85437 0.0
C385 C 0.52742 0.37378 0.81843 0.0
H386 H 0.57366 0.30633 0.9441 0.0
H387 H 0.58393 0.36194 0.84247 0.0
S388 S 0.43059 0.34945 0.84343 0.0
N389 N 0.45172 0.31637 0.90576 0.0
N390 N 0.46235 0.37728 0.79907 0.0
C391 C 0.49231 0.36013 0.83425 0.0
C392 C 0.48651 0.32694 0.89103 0.0
C393 C 0.21946 0.49358 0.84483 0.0
C394 C 0.21736 0.46755 0.92772 0.0
C395 C 0.18946 0.5012 0.78019 0.0
C396 C 0.15635 0.48299 0.7959 0.0
H397 H 0.24291 0.51094 0.8381 0.0
H398 H 0.19167 0.52319 0.72221 0.0
S399 S 0.14 0.40662 -0.0146 0.0
N400 N 0.18203 0.41902 0.00885 0.0
N401 N 0.12551 0.43337 0.8873 0.0
C402 C 0.15544 0.45374 0.86863 0.0
C403 C 0.18611 0.44588 0.93415 0.0
C404 C 0.97708 0.82199 0.32868 0.0
C405 C 0.00504 0.80326 0.27668 0.0
C406 C 0.98396 0.85383 0.38556 0.0
C407 C 0.01904 0.86812 0.39163 0.0
H408 H 0.94942 0.81316 0.31932 0.0
H409 H 0.96157 0.86763 0.42336 0.0
S410 S 0.10149 0.82905 0.26889 0.0
N411 N 0.06892 0.80089 0.23546 0.0
N412 N 0.08216 0.86056 0.34262 0.0
C413 C 0.0474 0.84887 0.34325 0.0
C414 C 0.04033 0.81645 0.28583 0.0
C415 C 0.71922 0.99823 0.32518 0.0
C416 C 0.72167 0.96252 0.29059 0.0
C417 C 0.68903 0.01017 0.38338 0.0
C418 C 0.66006 0.98685 0.40935 0.0
H419 H 0.73916 0.01784 0.29849 0.0
H420 H 0.68776 0.0384 0.40344 0.0
S421 S 0.65651 0.88924 0.35239 0.0
N422 N 0.69492 0.90294 0.29683 0.0
N423 N 0.63827 0.92511 0.40805 0.0
C424 C 0.66364 0.95036 0.38307 0.0
C425 C 0.69448 0.93825 0.32375 0.0
C426 C 0.49117 0.71923 0.37394 0.0
C427 C 0.51441 0.71825 0.28337 0.0
C428 C 0.48676 0.68906 0.44186 0.0
C429 C 0.5055 0.65696 0.42164 0.0
H430 H 0.47355 0.74196 0.38565 0.0
H431 H 0.46683 0.69021 0.50673 0.0
S432 S 0.57421 0.64311 0.2058 0.0
N433 N 0.5601 0.68457 0.18574 0.0
N434 N 0.55188 0.62787 0.31382 0.0
C435 C 0.53181 0.65707 0.33896 0.0
C436 C 0.53632 0.68781 0.26986 0.0
C437 C 0.81817 0.57601 0.33945 0.0
C438 C 0.79711 0.551 0.28181 0.0
C439 C 0.84872 0.56524 0.39791 0.0
C440 C 0.85935 0.5291 0.40028 0.0
H441 H 0.81218 0.60437 0.33372 0.0
H442 H 0.86437 0.5854 0.44016 0.0
S443 S 0.81351 0.45331 0.26209 0.0
N444 N 0.789 0.48869 0.23118 0.0
N445 N 0.84597 0.46826 0.3415 0.0
C446 C 0.83774 0.50371 0.3463 0.0
C447 C 0.8067 0.51468 0.2872 0.0
loop_
_geom_bond_atom_site_label_1
_geom_bond_atom_site_label_2
_geom_bond_distance
_geom_bond_site_symmetry_2
_ccdc_geom_bond_type
H0 C7 0.929 . S
H1 C10 0.930 . S
H2 C12 0.929 . S
H3 C4 0.969 . S
C4 H3 0.969 . S
C4 O5 1.550 1_556 S
C4 H6 0.973 . S
O5 C4 1.550 1_554 S
O5 C11 1.412 . S
H6 C4 0.973 . S
C7 H0 0.929 . S
C7 C8 1.400 . S
C7 C9 1.364 1_554 S
C8 C7 1.400 . S
C8 C12 1.377 . S
C9 C7 1.364 1_556 S
C9 C10 1.374 . S
C10 H1 0.930 . S
C10 C9 1.374 . S
C10 C11 1.383 1_556 S
C11 O5 1.412 . S
C11 C10 1.383 1_554 S
C11 C12 1.394 . S
C12 H2 0.929 . S
C12 C8 1.377 . S
C12 C11 1.394 . S
H13 C20 0.928 . S
H14 C23 0.932 . S
H15 C25 0.929 . S
H16 C17 0.969 . S
C17 H16 0.969 . S
C17 O18 1.550 1_456 S
C17 H19 0.973 1_455 S
O18 C17 1.550 1_654 S
O18 C24 1.410 1_655 S
H19 C17 0.973 1_655 S
C20 H13 0.928 . S
C20 C21 1.399 . S
C20 C22 1.364 1_554 S
C21 C20 1.399 . S
C21 C25 1.377 . S
C22 C20 1.364 1_556 S
C22 C23 1.374 . S
C23 H14 0.932 . S
C23 C22 1.374 . S
C23 C24 1.382 1_656 S
C24 O18 1.410 1_455 S
C24 C23 1.382 1_454 S
C24 C25 1.394 1_455 S
C25 H15 0.929 . S
C25 C21 1.377 . S
C25 C24 1.394 1_655 S
H26 C33 0.929 . S
H27 C36 0.930 . S
H28 C38 0.929 . S
H29 C30 0.969 . S
C30 H29 0.969 . S
C30 O31 1.550 1_556 S
C30 H32 0.973 . S
O31 C30 1.550 1_554 S
O31 C37 1.412 . S
H32 C30 0.973 . S
C33 H26 0.929 . S
C33 C34 1.400 . S
C33 C35 1.364 1_554 S
C34 C33 1.400 . S
C34 C38 1.377 . S
C35 C33 1.364 1_556 S
C35 C36 1.374 . S
C36 H27 0.930 . S
C36 C35 1.374 . S
C36 C37 1.383 1_556 S
C37 O31 1.412 . S
C37 C36 1.383 1_554 S
C37 C38 1.394 . S
C38 H28 0.929 . S
C38 C34 1.377 . S
C38 C37 1.394 . S
H39 C46 0.929 . S
H40 C49 0.930 . S
H41 C51 0.929 . S
H42 C43 0.969 . S
C43 H42 0.969 . S
C43 O44 1.550 1_556 S
C43 H45 0.973 . S
O44 C43 1.550 1_554 S
O44 C50 1.412 . S
H45 C43 0.973 . S
C46 H39 0.929 . S
C46 C47 1.400 . S
C46 C48 1.364 1_554 S
C47 C46 1.400 . S
C47 C51 1.377 . S
C48 C46 1.364 1_556 S
C48 C49 1.374 . S
C49 H40 0.930 . S
C49 C48 1.374 . S
C49 C50 1.383 1_556 S
C50 O44 1.412 . S
C50 C49 1.383 1_554 S
C50 C51 1.394 . S
C51 H41 0.929 . S
C51 C47 1.377 . S
C51 C50 1.394 . S
H52 C59 0.929 . S
H53 C62 0.930 . S
H54 C64 0.929 . S
H55 C56 0.969 . S
C56 H55 0.969 . S
C56 O57 1.550 . S
C56 H58 0.973 . S
O57 C56 1.550 . S
O57 C63 1.412 . S
H58 C56 0.973 . S
C59 H52 0.929 . S
C59 C60 1.400 . S
C59 C61 1.364 . S
C60 C59 1.400 . S
C60 C64 1.377 . S
C61 C59 1.364 . S
C61 C62 1.374 . S
C62 H53 0.930 . S
C62 C61 1.374 . S
C62 C63 1.383 . S
C63 O57 1.412 . S
C63 C62 1.383 . S
C63 C64 1.394 . S
C64 H54 0.929 . S
C64 C60 1.377 . S
C64 C63 1.394 . S
H65 C72 0.929 . S
H66 C75 0.930 . S
H67 C77 0.929 1_556 S
H68 C69 0.969 . S
C69 H68 0.969 . S
C69 O70 1.550 1_455 S
C69 H71 0.973 1_455 S
O70 C69 1.550 1_655 S
O70 C76 1.412 1_655 S
H71 C69 0.973 1_655 S
C72 H65 0.929 . S
C72 C73 1.400 . S
C72 C74 1.364 . S
C73 C72 1.400 . S
C73 C77 1.377 . S
C74 C72 1.364 . S
C74 C75 1.374 . S
C75 H66 0.930 . S
C75 C74 1.374 . S
C75 C76 1.383 . S
C76 O70 1.412 1_455 S
C76 C75 1.383 . S
C76 C77 1.394 . S
C77 H67 0.929 1_554 S
C77 C73 1.377 . S
C77 C76 1.394 . S
H78 C85 0.929 . S
H79 C88 0.930 . S
H80 C90 0.929 . S
H81 C82 0.969 . S
C82 H81 0.969 . S
C82 O83 1.550 . S
C82 H84 0.973 . S
O83 C82 1.550 . S
O83 C89 1.412 . S
H84 C82 0.973 . S
C85 H78 0.929 . S
C85 C86 1.400 . S
C85 C87 1.364 . S
C86 C85 1.400 . S
C86 C90 1.377 . S
C87 C85 1.364 . S
C87 C88 1.374 . S
C88 H79 0.930 . S
C88 C87 1.374 . S
C88 C89 1.383 . S
C89 O83 1.412 . S
C89 C88 1.383 . S
C89 C90 1.394 . S
C90 H80 0.929 . S
C90 C86 1.377 . S
C90 C89 1.394 . S
H91 C98 0.929 . S
H92 C101 0.930 . S
H93 C103 0.932 . S
H94 C95 0.969 . S
C95 H94 0.969 . S
C95 O96 1.550 . S
C95 H97 0.973 . S
O96 C95 1.550 . S
O96 C102 1.412 . S
H97 C95 0.973 . S
C98 H91 0.929 . S
C98 C99 1.400 . S
C98 C100 1.364 . S
C99 C98 1.400 . S
C99 C103 1.377 . S
C100 C98 1.364 . S
C100 C101 1.374 . S
C101 H92 0.930 . S
C101 C100 1.374 . S
C101 C102 1.383 . S
C102 O96 1.412 . S
C102 C101 1.383 . S
C102 C103 1.394 . S
C103 H93 0.932 . S
C103 C99 1.377 . S
C103 C102 1.394 . S
Zn104 O110 1.969 . S
Zn104 O111 1.965 1_655 S
Zn104 O115 2.024 1_655 S
Zn104 O120 1.969 . S
Zn105 O112 1.969 . S
Zn105 O118 1.969 . S
Zn105 O119 1.965 1_455 S
Zn105 O121 2.024 1_455 S
C106 O107 1.229 1_455 S
C106 O115 1.058 . S
O107 C106 1.229 1_655 S
C108 O109 1.229 1_655 S
C108 O121 1.058 . S
O109 C108 1.229 1_455 S
O110 Zn104 1.969 . S
O110 C113 1.267 . S
O111 Zn104 1.965 1_455 S
O111 C122 1.260 . S
O112 Zn105 1.969 . S
O112 C122 1.258 1_565 S
C113 O110 1.267 . S
C113 O114 1.228 1_655 S
O114 C113 1.228 1_455 S
O115 Zn104 2.024 1_455 S
O115 C106 1.058 . S
C116 O117 1.228 1_455 S
C116 O118 1.267 . S
O117 C116 1.228 1_655 S
O118 Zn105 1.969 . S
O118 C116 1.267 . S
O119 Zn105 1.965 1_655 S
O119 C123 1.260 1_565 S
O120 Zn104 1.969 . S
O120 C123 1.258 . S
O121 Zn105 2.024 1_655 S
O121 C108 1.058 . S
C122 O111 1.260 . S
C122 O112 1.258 1_545 S
C123 O119 1.260 1_545 S
C123 O120 1.258 . S
Zn124 O130 1.969 1_545 S
Zn124 O131 1.965 . S
Zn124 O135 2.024 . S
Zn124 O140 1.969 1_545 S
Zn125 O132 1.969 . S
Zn125 O138 1.969 . S
Zn125 O139 1.965 1_545 S
Zn125 O141 2.024 1_545 S
C126 O127 1.229 . S
C126 O135 1.058 . S
O127 C126 1.229 . S
C128 O129 1.229 1_565 S
C128 O141 1.058 . S
O129 C128 1.229 1_545 S
O130 Zn124 1.969 1_565 S
O130 C133 1.267 1_565 S
O131 Zn124 1.965 . S
O131 C142 1.260 . S
O132 Zn125 1.969 . S
O132 C142 1.258 . S
C133 O130 1.267 1_545 S
C133 O134 1.228 . S
O134 C133 1.228 . S
O135 Zn124 2.024 . S
O135 C126 1.058 . S
C136 O137 1.228 . S
C136 O138 1.267 1_565 S
O137 C136 1.228 . S
O138 Zn125 1.969 . S
O138 C136 1.267 1_545 S
O139 Zn125 1.965 1_565 S
O139 C143 1.260 . S
O140 Zn124 1.969 1_565 S
O140 C143 1.258 . S
O141 Zn125 2.024 1_565 S
O141 C128 1.058 . S
C142 O131 1.260 . S
C142 O132 1.258 . S
C143 O139 1.260 . S
C143 O140 1.258 . S
Zn144 O150 1.969 . S
Zn144 O151 1.965 . S
Zn144 O155 2.024 . S
Zn144 O160 1.969 . S
Zn145 O152 1.969 . S
Zn145 O158 1.969 . S
Zn145 O159 1.965 . S
Zn145 O161 2.024 . S
C146 O147 1.229 . S
C146 O155 1.058 . S
O147 C146 1.229 . S
C148 O149 1.229 . S
C148 O161 1.058 . S
O149 C148 1.229 . S
O150 Zn144 1.969 . S
O150 C153 1.267 . S
O151 Zn144 1.965 . S
O151 C162 1.260 . S
O152 Zn145 1.969 . S
O152 C162 1.258 . S
C153 O150 1.267 . S
C153 O154 1.228 . S
O154 C153 1.228 . S
O155 Zn144 2.024 . S
O155 C146 1.058 . S
C156 O157 1.228 . S
C156 O158 1.267 . S
O157 C156 1.228 . S
O158 Zn145 1.969 . S
O158 C156 1.267 . S
O159 Zn145 1.965 . S
O159 C163 1.260 . S
O160 Zn144 1.969 . S
O160 C163 1.258 . S
O161 Zn145 2.024 . S
O161 C148 1.058 . S
C162 O151 1.260 . S
C162 O152 1.258 . S
C163 O159 1.260 . S
C163 O160 1.258 . S
Zn164 O170 1.969 . S
Zn164 O171 1.965 . S
Zn164 O175 2.024 . S
Zn164 O180 1.969 . S
Zn165 O172 1.969 . S
Zn165 O178 1.969 . S
Zn165 O179 1.965 . S
Zn165 O181 2.024 . S
C166 O167 1.229 . S
C166 O175 1.058 . S
O167 C166 1.229 . S
C168 O169 1.229 . S
C168 O181 1.058 . S
O169 C168 1.229 . S
O170 Zn164 1.969 . S
O170 C173 1.267 . S
O171 Zn164 1.965 . S
O171 C182 1.260 1_455 S
O172 Zn165 1.969 . S
O172 C182 1.258 . S
C173 O170 1.267 . S
C173 O174 1.228 . S
O174 C173 1.228 . S
O175 Zn164 2.024 . S
O175 C166 1.058 . S
C176 O177 1.228 . S
C176 O178 1.267 . S
O177 C176 1.228 . S
O178 Zn165 1.969 . S
O178 C176 1.267 . S
O179 Zn165 1.965 . S
O179 C183 1.260 1_655 S
O180 Zn164 1.969 . S
O180 C183 1.258 . S
O181 Zn165 2.024 . S
O181 C168 1.058 . S
C182 O171 1.260 1_655 S
C182 O172 1.258 . S
C183 O179 1.260 1_455 S
C183 O180 1.258 . S
C184 C185 1.369 . S
C184 C186 1.419 . S
C184 H188 0.930 . S
C185 C184 1.369 . S
C185 C194 1.429 . S
C186 C184 1.419 . S
C186 C187 1.363 . S
C186 H189 0.929 . S
C187 C186 1.363 . S
C187 C193 1.428 . S
H188 C184 0.930 . S
H189 C186 0.929 . S
S190 N191 1.613 1_565 S
S190 N192 1.610 . S
N191 S190 1.613 1_545 S
N191 C194 1.350 . S
N192 S190 1.610 . S
N192 C193 1.351 1_565 S
C193 C187 1.428 . S
C193 N192 1.351 1_545 S
C193 C194 1.434 . S
C194 C185 1.429 . S
C194 N191 1.350 . S
C194 C193 1.434 . S
C195 C196 1.369 . S
C195 C197 1.419 . S
C195 H199 0.930 . S
C196 C195 1.369 . S
C196 C205 1.429 . S
C197 C195 1.419 . S
C197 C198 1.363 . S
C197 H200 0.929 . S
C198 C197 1.363 . S
C198 C204 1.428 . S
H199 C195 0.930 . S
H200 C197 0.929 . S
S201 N202 1.613 . S
S201 N203 1.610 . S
N202 S201 1.613 . S
N202 C205 1.350 . S
N203 S201 1.610 . S
N203 C204 1.351 . S
C204 C198 1.428 . S
C204 N203 1.351 . S
C204 C205 1.434 . S
C205 C196 1.429 . S
C205 N202 1.350 . S
C205 C204 1.434 . S
C206 C207 1.369 . S
C206 C208 1.419 . S
C206 H210 0.930 . S
C207 C206 1.369 . S
C207 C216 1.429 . S
C208 C206 1.419 . S
C208 C209 1.363 . S
C208 H211 0.929 . S
C209 C208 1.363 . S
C209 C215 1.428 . S
H210 C206 0.930 . S
H211 C208 0.929 . S
S212 N213 1.613 . S
S212 N214 1.610 . S
N213 S212 1.613 . S
N213 C216 1.350 . S
N214 S212 1.610 . S
N214 C215 1.351 . S
C215 C209 1.428 . S
C215 N214 1.351 . S
C215 C216 1.434 . S
C216 C207 1.429 . S
C216 N213 1.350 . S
C216 C215 1.434 . S
C217 C218 1.369 . S
C217 C219 1.419 . S
C217 H221 0.930 . S
C218 C217 1.369 . S
C218 C227 1.429 1_455 S
C219 C217 1.419 . S
C219 C220 1.368 . S
C219 H222 0.929 . S
C220 C219 1.368 . S
C220 C226 1.424 1_455 S
H221 C217 0.930 . S
H222 C219 0.929 . S
S223 N224 1.613 . S
S223 N225 1.610 . S
N224 S223 1.613 . S
N224 C227 1.350 . S
N225 S223 1.610 . S
N225 C226 1.351 . S
C226 C220 1.424 1_655 S
C226 N225 1.351 . S
C226 C227 1.434 . S
C227 C218 1.429 1_655 S
C227 N224 1.350 . S
C227 C226 1.434 . S
C228 C229 1.369 . S
C228 C230 1.419 1_565 S
C228 H232 0.931 . S
C229 C228 1.369 . S
C229 C238 1.429 . S
C230 C228 1.419 1_545 S
C230 C231 1.363 1_545 S
C230 H233 0.929 . S
C231 C230 1.363 1_565 S
C231 C237 1.428 . S
H232 C228 0.931 . S
H233 C230 0.929 . S
S234 N235 1.613 1_556 S
S234 N236 1.610 . S
N235 S234 1.613 1_554 S
N235 C238 1.350 1_554 S
N236 S234 1.610 . S
N236 C237 1.351 . S
C237 C231 1.428 . S
C237 N236 1.351 . S
C237 C238 1.434 . S
C238 C229 1.429 . S
C238 N235 1.350 1_556 S
C238 C237 1.434 . S
C239 C240 1.369 . S
C239 C241 1.419 . S
C239 H243 0.930 . S
C240 C239 1.369 . S
C240 C249 1.429 . S
C241 C239 1.419 . S
C241 C242 1.363 . S
C241 H244 0.929 . S
C242 C241 1.363 . S
C242 C248 1.428 . S
H243 C239 0.930 . S
H244 C241 0.929 . S
S245 N246 1.613 . S
S245 N247 1.610 1_554 S
N246 S245 1.613 . S
N246 C249 1.350 1_554 S
N247 S245 1.610 1_556 S
N247 C248 1.351 . S
C248 C242 1.428 . S
C248 N247 1.351 . S
C248 C249 1.434 . S
C249 C240 1.429 . S
C249 N246 1.350 1_556 S
C249 C248 1.434 . S
C250 C251 1.369 . S
C250 C252 1.419 . S
C250 H254 0.930 1_556 S
C251 C250 1.369 . S
C251 C260 1.429 . S
C252 C250 1.419 . S
C252 C253 1.363 . S
C252 H255 0.929 . S
C253 C252 1.363 . S
C253 C259 1.428 . S
H254 C250 0.930 1_554 S
H255 C252 0.929 . S
S256 N257 1.613 . S
S256 N258 1.610 . S
N257 S256 1.613 . S
N257 C260 1.350 . S
N258 S256 1.610 . S
N258 C259 1.351 . S
C259 C253 1.428 . S
C259 N258 1.351 . S
C259 C260 1.434 . S
C260 C251 1.429 . S
C260 N257 1.350 . S
C260 C259 1.434 . S
C261 C262 1.367 1_455 S
C261 C263 1.419 . S
C261 H265 0.930 . S
C262 C261 1.367 1_655 S
C262 C271 1.431 . S
C263 C261 1.419 . S
C263 C264 1.363 . S
C263 H266 0.929 . S
C264 C263 1.363 . S
C264 C270 1.428 1_455 S
H265 C261 0.930 . S
H266 C263 0.929 . S
S267 N268 1.613 . S
S267 N269 1.610 1_554 S
N268 S267 1.613 . S
N268 C271 1.350 1_554 S
N269 S267 1.610 1_556 S
N269 C270 1.351 . S
C270 C264 1.428 1_655 S
C270 N269 1.351 . S
C270 C271 1.434 . S
C271 C262 1.431 . S
C271 N268 1.350 1_556 S
C271 C270 1.434 . S
C272 C273 1.369 1_655 S
C272 C274 1.419 . S
C272 H276 0.930 . S
C273 C272 1.369 1_455 S
C273 C282 1.429 . S
C274 C272 1.419 . S
C274 C275 1.363 . S
C274 H277 0.929 . S
C275 C274 1.363 . S
C275 C281 1.428 1_655 S
H276 C272 0.930 . S
H277 C274 0.929 . S
S278 N279 1.613 . S
S278 N280 1.610 . S
N279 S278 1.613 . S
N279 C282 1.350 . S
N280 S278 1.610 . S
N280 C281 1.351 . S
C281 C275 1.428 1_455 S
C281 N280 1.351 . S
C281 C282 1.434 . S
C282 C273 1.429 . S
C282 N279 1.350 . S
C282 C281 1.434 . S
C283 C284 1.369 . S
C283 C285 1.419 . S
C283 H287 0.930 . S
C284 C283 1.369 . S
C284 C293 1.429 . S
C285 C283 1.419 . S
C285 C286 1.363 . S
C285 H288 0.929 . S
C286 C285 1.363 . S
C286 C292 1.428 . S
H287 C283 0.930 . S
H288 C285 0.929 . S
S289 N290 1.613 1_565 S
S289 N291 1.610 . S
N290 S289 1.613 1_545 S
N290 C293 1.350 . S
N291 S289 1.610 . S
N291 C292 1.351 1_565 S
C292 C286 1.428 . S
C292 N291 1.351 1_545 S
C292 C293 1.434 . S
C293 C284 1.429 . S
C293 N290 1.350 . S
C293 C292 1.434 . S
C294 C295 1.369 . S
C294 C296 1.419 . S
C294 H298 0.930 . S
C295 C294 1.369 . S
C295 C304 1.429 . S
C296 C294 1.419 . S
C296 C297 1.363 . S
C296 H299 0.929 . S
C297 C296 1.363 . S
C297 C303 1.428 . S
H298 C294 0.930 . S
H299 C296 0.929 . S
S300 N301 1.613 . S
S300 N302 1.610 . S
N301 S300 1.613 . S
N301 C304 1.350 . S
N302 S300 1.610 . S
N302 C303 1.351 . S
C303 C297 1.428 . S
C303 N302 1.351 . S
C303 C304 1.434 . S
C304 C295 1.429 . S
C304 N301 1.350 . S
C304 C303 1.434 . S
C305 C306 1.369 . S
C305 C307 1.419 . S
C305 H309 0.930 . S
C306 C305 1.369 . S
C306 C315 1.429 . S
C307 C305 1.419 . S
C307 C308 1.363 . S
C307 H310 0.929 . S
C308 C307 1.363 . S
C308 C314 1.428 . S
H309 C305 0.930 . S
H310 C307 0.929 . S
S311 N312 1.613 . S
S311 N313 1.610 . S
N312 S311 1.613 . S
N312 C315 1.350 . S
N313 S311 1.610 . S
N313 C314 1.351 . S
C314 C308 1.428 . S
C314 N313 1.351 . S
C314 C315 1.434 . S
C315 C306 1.429 . S
C315 N312 1.350 . S
C315 C314 1.434 . S
C316 C317 1.380 . S
C316 C318 1.419 . S
C316 H320 0.930 . S
C317 C316 1.380 . S
C317 C326 1.421 1_455 S
C318 C316 1.419 . S
C318 C319 1.363 . S
C318 H321 0.929 . S
C319 C318 1.363 . S
C319 C325 1.428 1_455 S
H320 C316 0.930 . S
H321 C318 0.929 . S
S322 N323 1.613 . S
S322 N324 1.610 1_554 S
N323 S322 1.613 . S
N323 C326 1.350 1_554 S
N324 S322 1.610 1_556 S
N324 C325 1.351 . S
C325 C319 1.428 1_655 S
C325 N324 1.351 . S
C325 C326 1.434 . S
C326 C317 1.421 1_655 S
C326 N323 1.350 1_556 S
C326 C325 1.434 . S
C327 C328 1.369 . S
C327 C329 1.419 . S
C327 H331 0.930 . S
C328 C327 1.369 . S
C328 C337 1.429 . S
C329 C327 1.419 . S
C329 C330 1.363 . S
C329 H332 0.929 . S
C330 C329 1.363 . S
C330 C336 1.428 1_565 S
H331 C327 0.930 . S
H332 C329 0.929 . S
S333 N334 1.613 . S
S333 N335 1.610 1_554 S
N334 S333 1.613 . S
N334 C337 1.350 1_544 S
N335 S333 1.610 1_556 S
N335 C336 1.351 . S
C336 C330 1.428 1_545 S
C336 N335 1.351 . S
C336 C337 1.434 1_545 S
C337 C328 1.429 . S
C337 N334 1.350 1_566 S
C337 C336 1.434 1_565 S
C338 C339 1.369 . S
C338 C340 1.419 . S
C338 H342 0.930 . S
C339 C338 1.369 . S
C339 C348 1.429 1_556 S
C340 C338 1.419 . S
C340 C341 1.363 . S
C340 H343 0.929 . S
C341 C340 1.363 . S
C341 C347 1.428 . S
H342 C338 0.930 . S
H343 C340 0.929 . S
S344 N345 1.613 . S
S344 N346 1.610 . S
N345 S344 1.613 . S
N345 C348 1.350 . S
N346 S344 1.610 . S
N346 C347 1.351 1_554 S
C347 C341 1.428 . S
C347 N346 1.351 1_556 S
C347 C348 1.434 1_556 S
C348 C339 1.429 1_554 S
C348 N345 1.350 . S
C348 C347 1.434 1_554 S
C349 C350 1.369 . S
C349 C351 1.419 . S
C349 H353 0.930 . S
C350 C349 1.369 . S
C350 C359 1.429 . S
C351 C349 1.419 . S
C351 C352 1.363 . S
C351 H354 0.929 . S
C352 C351 1.363 . S
C352 C358 1.428 . S
H353 C349 0.930 . S
H354 C351 0.929 . S
S355 N356 1.613 . S
S355 N357 1.610 . S
N356 S355 1.613 . S
N356 C359 1.350 . S
N357 S355 1.610 . S
N357 C358 1.351 . S
C358 C352 1.428 . S
C358 N357 1.351 . S
C358 C359 1.434 . S
C359 C350 1.429 . S
C359 N356 1.350 . S
C359 C358 1.434 . S
C360 C361 1.369 . S
C360 C362 1.419 . S
C360 H364 0.930 . S
C361 C360 1.369 . S
C361 C370 1.429 1_456 S
C362 C360 1.419 . S
C362 C363 1.363 . S
C362 H365 0.929 . S
C363 C362 1.363 . S
C363 C369 1.428 1_455 S
H364 C360 0.930 . S
H365 C362 0.929 . S
S366 N367 1.613 . S
S366 N368 1.610 . S
N367 S366 1.613 . S
N367 C370 1.350 . S
N368 S366 1.610 . S
N368 C369 1.351 1_554 S
C369 C363 1.428 1_655 S
C369 N368 1.351 1_556 S
C369 C370 1.434 1_556 S
C370 C361 1.429 1_654 S
C370 N367 1.350 . S
C370 C369 1.434 1_554 S
C371 C372 1.369 . S
C371 C373 1.419 . S
C371 H375 0.930 1_545 S
C372 C371 1.369 . S
C372 C381 1.429 . S
C373 C371 1.419 . S
C373 C374 1.363 . S
C373 H376 0.929 1_545 S
C374 C373 1.363 . S
C374 C380 1.428 . S
H375 C371 0.930 1_565 S
H376 C373 0.929 1_565 S
S377 N378 1.613 . S
S377 N379 1.610 . S
N378 S377 1.613 . S
N378 C381 1.350 . S
N379 S377 1.610 . S
N379 C380 1.351 . S
C380 C374 1.428 . S
C380 N379 1.351 . S
C380 C381 1.434 . S
C381 C372 1.429 . S
C381 N378 1.350 . S
C381 C380 1.434 . S
C382 C383 1.369 1_554 S
C382 C384 1.419 1_554 S
C382 H386 0.930 . S
C383 C382 1.369 1_556 S
C383 C392 1.429 . S
C384 C382 1.419 1_556 S
C384 C385 1.363 . S
C384 H387 0.929 1_556 S
C385 C384 1.363 . S
C385 C391 1.428 . S
H386 C382 0.930 . S
H387 C384 0.929 1_554 S
S388 N389 1.613 . S
S388 N390 1.610 . S
N389 S388 1.613 . S
N389 C392 1.350 . S
N390 S388 1.610 . S
N390 C391 1.351 . S
C391 C385 1.428 . S
C391 N390 1.351 . S
C391 C392 1.434 . S
C392 C383 1.429 . S
C392 N389 1.350 . S
C392 C391 1.434 . S
C393 C394 1.369 . S
C393 C395 1.419 . S
C393 H397 0.930 . S
C394 C393 1.369 . S
C394 C403 1.429 1_556 S
C395 C393 1.419 . S
C395 C396 1.363 . S
C395 H398 0.929 . S
C396 C395 1.363 . S
C396 C402 1.428 . S
H397 C393 0.930 . S
H398 C395 0.929 . S
S399 N400 1.613 . S
S399 N401 1.610 . S
N400 S399 1.613 . S
N400 C403 1.350 . S
N401 S399 1.610 . S
N401 C402 1.351 1_554 S
C402 C396 1.428 . S
C402 N401 1.351 1_556 S
C402 C403 1.434 1_556 S
C403 C394 1.429 1_554 S
C403 N400 1.350 . S
C403 C402 1.434 1_554 S
C404 C405 1.369 . S
C404 C406 1.419 . S
C404 H408 0.930 . S
C405 C404 1.369 . S
C405 C414 1.429 1_655 S
C406 C404 1.419 . S
C406 C407 1.363 . S
C406 H409 0.929 . S
C407 C406 1.363 . S
C407 C413 1.428 1_655 S
H408 C404 0.930 . S
H409 C406 0.929 . S
S410 N411 1.613 . S
S410 N412 1.610 . S
N411 S410 1.613 . S
N411 C414 1.350 . S
N412 S410 1.610 . S
N412 C413 1.351 . S
C413 C407 1.428 1_455 S
C413 N412 1.351 . S
C413 C414 1.434 . S
C414 C405 1.429 1_455 S
C414 N411 1.350 . S
C414 C413 1.434 . S
C415 C416 1.369 . S
C415 C417 1.418 1_565 S
C415 H419 0.930 1_565 S
C416 C415 1.369 . S
C416 C425 1.429 . S
C417 C415 1.418 1_545 S
C417 C418 1.358 1_545 S
C417 H420 0.936 . S
C418 C417 1.358 1_565 S
C418 C424 1.428 . S
H419 C415 0.930 1_545 S
H420 C417 0.936 . S
S421 N422 1.613 . S
S421 N423 1.610 . S
N422 S421 1.613 . S
N422 C425 1.350 . S
N423 S421 1.610 . S
N423 C424 1.351 . S
C424 C418 1.428 . S
C424 N423 1.351 . S
C424 C425 1.434 . S
C425 C416 1.429 . S
C425 N422 1.350 . S
C425 C424 1.434 . S
C426 C427 1.369 . S
C426 C428 1.419 . S
C426 H430 0.930 . S
C427 C426 1.369 . S
C427 C436 1.429 . S
C428 C426 1.419 . S
C428 C429 1.363 . S
C428 H431 0.929 . S
C429 C428 1.363 . S
C429 C435 1.428 . S
H430 C426 0.930 . S
H431 C428 0.929 . S
S432 N433 1.613 . S
S432 N434 1.610 . S
N433 S432 1.613 . S
N433 C436 1.350 . S
N434 S432 1.610 . S
N434 C435 1.351 . S
C435 C429 1.428 . S
C435 N434 1.351 . S
C435 C436 1.434 . S
C436 C427 1.429 . S
C436 N433 1.350 . S
C436 C435 1.434 . S
C437 C438 1.369 . S
C437 C439 1.419 . S
C437 H441 0.930 . S
C438 C437 1.369 . S
C438 C447 1.429 . S
C439 C437 1.419 . S
C439 C440 1.363 . S
C439 H442 0.929 . S
C440 C439 1.363 . S
C440 C446 1.428 . S
H441 C437 0.930 . S
H442 C439 0.929 . S
S443 N444 1.613 . S
S443 N445 1.610 . S
N444 S443 1.613 . S
N444 C447 1.350 . S
N445 S443 1.610 . S
N445 C446 1.351 . S
C446 C440 1.428 . S
C446 N445 1.351 . S
C446 C447 1.434 . S
C447 C438 1.429 . S
C447 N444 1.350 . S
C447 C446 1.434 . S
C185 C82 1.480 . S
C187 C122 1.571 . S
C198 C142 1.509 . S
C196 C95 1.403 . S
C209 C162 1.609 . S
C207 C56 1.495 . S
C220 C182 1.502 1_455 S
C218 C69 1.399 . S
C231 C123 1.580 1_565 S
C229 C30 1.413 . S
C240 C43 1.399 . S
C242 C143 1.508 . S
C251 C4 1.416 . S
C253 C163 1.598 . S
C262 C17 1.385 1_655 S
C264 C183 1.492 . S
C275 C113 0.977 . S
C273 C74 1.015 . S
C286 C133 1.015 . S
C284 C87 1.031 . S
C297 C153 0.997 . S
C295 C100 1.029 . S
C306 C61 1.059 . S
C308 C173 1.012 . S
C317 C22 1.013 1_455 S
C319 C116 0.985 . S
C330 C136 1.034 . S
C328 C35 1.048 . S
C341 C156 1.002 . S
C339 C48 1.019 . S
C350 C9 1.051 . S
C352 C176 1.011 . S
C361 C73 1.518 1_556 S
C363 C106 1.463 . S
C372 C86 1.558 1_556 S
C374 C126 1.494 . S
C385 C146 1.443 . S
C383 C99 1.520 1_556 S
C396 C166 1.506 . S
C394 C60 1.558 1_556 S
C405 C21 1.524 . S
C407 C108 1.455 . S
C418 C128 1.481 . S
C416 C34 1.534 . S
C429 C148 1.461 . S
C427 C47 1.522 . S
C438 C8 1.551 . S
C440 C168 1.493 . S
