# Generated by pormake.
# Topology sit, (3,6)-cn, num edge types: 1
# Building blocks:
#     Node 0, Type 0, BuildingBlock: CUQRIR_clean_linker_1, # of connection points: 3
#     Node 1, Type 0, BuildingBlock: CUQRIR_clean_linker_1, # of connection points: 3
#     Node 2, Type 0, BuildingBlock: CUQRIR_clean_linker_1, # of connection points: 3
#     Node 3, Type 0, BuildingBlock: CUQRIR_clean_linker_1, # of connection points: 3
#     Node 4, Type 1, BuildingBlock: MIDCAF_clean_sbu_0, # of connection points: 6
#     Node 5, Type 1, BuildingBlock: MIDCAF_clean_sbu_0, # of connection points: 6
#     Edge 6, Type (0, 1), BuildingBlock: XUDNAN_clean_linker_2, # of connection points: 2
#     Edge 7, Type (0, 1), BuildingBlock: XUDNAN_clean_linker_2, # of connection points: 2
#     Edge 8, Type (0, 1), BuildingBlock: XUDNAN_clean_linker_2, # of connection points: 2
#     Edge 9, Type (0, 1), BuildingBlock: XUDNAN_clean_linker_2, # of connection points: 2
#     Edge 10, Type (0, 1), BuildingBlock: XUDNAN_clean_linker_2, # of connection points: 2
#     Edge 11, Type (0, 1), BuildingBlock: XUDNAN_clean_linker_2, # of connection points: 2
#     Edge 12, Type (0, 1), BuildingBlock: XUDNAN_clean_linker_2, # of connection points: 2
#     Edge 13, Type (0, 1), BuildingBlock: XUDNAN_clean_linker_2, # of connection points: 2
#     Edge 14, Type (0, 1), BuildingBlock: XUDNAN_clean_linker_2, # of connection points: 2
#     Edge 15, Type (0, 1), BuildingBlock: XUDNAN_clean_linker_2, # of connection points: 2
#     Edge 16, Type (0, 1), BuildingBlock: XUDNAN_clean_linker_2, # of connection points: 2
#     Edge 17, Type (0, 1), BuildingBlock: XUDNAN_clean_linker_2, # of connection points: 2
# Relax obj value: 0.072
# Max RMSD: 0.181
# Mean RMSD: 0.120
data_MOF--net-sit--node1-MIDCAF_clean_sbu_0--node2-CUQRIR_clean_linker_1--edge1-XUDNAN_clean_linker_2
_symmetry_space_group_name_H-M    P1
_symmetry_Int_Tables_number       1
_symmetry_cell_setting            triclinic
loop_
_symmetry_equiv_pos_as_xyz
'x, y, z'
_cell_length_a     19.364091
_cell_length_b     31.286207
_cell_length_c     34.913439
_cell_angle_alpha  90.383456
_cell_angle_beta   89.314221
_cell_angle_gamma 84.203901
loop_
_atom_site_label
_atom_site_type_symbol
_atom_site_fract_x
_atom_site_fract_y
_atom_site_fract_z
_atom_type_partial_charge
C0 C 0.0784 0.2496 0.02523 0.0
N1 N 0.09938 0.28596 0.01026 0.0
N2 N 0.13251 0.22571 0.04155 0.0
C3 C 0.00392 0.23982 0.02756 0.0
C4 C 0.18682 0.24933 0.03602 0.0
N5 N 0.16641 0.28612 0.0174 0.0
C6 C 0.26062 0.23522 0.04671 0.0
H7 H -0.00778 0.22663 0.05606 0.0
H8 H -0.00474 0.21532 0.0055 0.0
H9 H 0.96743 0.26882 0.02242 0.0
H10 H 0.2692 0.19973 0.04909 0.0
H11 H 0.27201 0.24974 0.07471 0.0
H12 H 0.29715 0.24627 0.02505 0.0
C13 C 0.98528 0.7689 0.02824 0.0
N14 N 0.02057 0.73321 0.01299 0.0
N15 N 0.02514 0.78834 0.0535 0.0
C16 C 0.91362 0.78623 0.01604 0.0
C17 C 0.08636 0.76284 0.05273 0.0
N18 N 0.08322 0.72956 0.02818 0.0
C19 C 0.14767 0.76837 0.07769 0.0
H20 H 0.90549 0.77788 0.98559 0.0
H21 H 0.90559 0.82164 0.01978 0.0
H22 H 0.87432 0.77142 0.03353 0.0
H23 H 0.13034 0.7802 0.10661 0.0
H24 H 0.17921 0.79214 0.06442 0.0
H25 H 0.18116 0.73766 0.08061 0.0
C26 C 0.52058 0.77763 0.55424 0.0
N27 N 0.53622 0.81046 0.53175 0.0
N28 N 0.57795 0.75029 0.56072 0.0
C29 C 0.45016 0.77381 0.57182 0.0
C30 C 0.6293 0.76789 0.54163 0.0
N31 N 0.6039 0.80445 0.52391 0.0
C32 C 0.70265 0.74722 0.53746 0.0
H33 H 0.41952 0.8057 0.57405 0.0
H34 H 0.45516 0.75939 0.60073 0.0
H35 H 0.42157 0.75265 0.55351 0.0
H36 H 0.70453 0.71179 0.53999 0.0
H37 H 0.73455 0.75931 0.56058 0.0
H38 H 0.7256 0.75524 0.50947 0.0
C39 C 0.4554 0.25934 0.55034 0.0
N40 N 0.47467 0.2203 0.53461 0.0
N41 N 0.5118 0.27743 0.563 0.0
C42 C 0.38182 0.27976 0.55309 0.0
C43 C 0.56575 0.24762 0.5545 0.0
N44 N 0.54294 0.21291 0.53739 0.0
C45 C 0.64059 0.25212 0.56313 0.0
H46 H 0.38011 0.31528 0.55481 0.0
H47 H 0.35703 0.26806 0.57929 0.0
H48 H 0.35139 0.2707 0.52813 0.0
H49 H 0.64509 0.26994 0.59042 0.0
H50 H 0.66307 0.27035 0.53971 0.0
H51 H 0.67116 0.22029 0.56501 0.0
Zn52 Zn 0.01908 0.09857 0.34635 0.0
Zn53 Zn 0.05323 0.93984 0.35042 0.0
Zn54 Zn 0.04244 0.01642 0.34797 0.0
C55 C 0.01786 0.95842 0.27667 0.0
C56 C 0.94651 0.95777 0.39633 0.0
O57 O 0.12725 0.03892 0.38178 0.0
O58 O 0.0935 0.10871 0.38274 0.0
C59 C 0.05249 0.07451 0.27196 0.0
O60 O 0.03866 0.99427 0.2877 0.0
O61 O 0.01151 0.92904 0.30057 0.0
O62 O -0.00423 0.9282 0.3958 0.0
O63 O 0.95197 0.99252 0.37741 0.0
O64 O 0.04134 0.10789 0.29243 0.0
O65 O 0.05061 0.03706 0.28694 0.0
O66 O 0.94283 0.03816 0.37761 0.0
O67 O 0.9214 0.10718 0.36459 0.0
C68 C 0.90308 0.07369 0.38002 0.0
O69 O 0.14222 0.9938 0.37686 0.0
O70 O 0.15368 0.92734 0.35485 0.0
C71 C 0.13527 0.0774 0.39302 0.0
C72 C 0.17842 0.95701 0.37314 0.0
Zn73 Zn 0.58919 0.58702 0.85662 0.0
Zn74 Zn 0.60057 0.4282 0.85103 0.0
Zn75 Zn 0.59282 0.50977 0.85344 0.0
C76 C 0.5681 0.45347 0.77779 0.0
C77 C 0.49324 0.45315 0.90142 0.0
O78 O 0.69047 0.52795 0.87919 0.0
O79 O 0.65807 0.59522 0.896 0.0
C80 C 0.60382 0.56993 0.78062 0.0
O81 O 0.57808 0.49022 0.79252 0.0
O82 O 0.57247 0.4203 0.79821 0.0
O83 O 0.52946 0.41968 0.89001 0.0
O84 O 0.50695 0.49053 0.89006 0.0
O85 O 0.61684 0.59901 0.8038 0.0
O86 O 0.58673 0.53385 0.79346 0.0
O87 O 0.49973 0.53576 0.8884 0.0
O88 O 0.49243 0.60368 0.87116 0.0
C89 C 0.46715 0.57388 0.88893 0.0
O90 O 0.69438 0.48268 0.87727 0.0
O91 O 0.69839 0.41327 0.86429 0.0
C92 C 0.70258 0.563 0.89632 0.0
C93 C 0.72681 0.44458 0.8777 0.0
H94 H 0.18258 0.22037 0.11285 0.0
H95 H 0.07154 0.15216 0.0292 0.0
H96 H 0.05123 0.09707 0.07788 0.0
H97 H 0.26465 0.1216 0.16281 0.0
H98 H 0.25737 0.14934 0.20832 0.0
H99 H 0.27112 0.17863 0.16505 0.0
H100 H 0.16149 0.23065 0.18096 0.0
H101 H 0.14703 0.20148 0.22388 0.0
H102 H 0.07956 0.20912 0.18872 0.0
H103 H 0.02725 0.05696 0.13984 0.0
H104 H 0.00477 0.03643 0.20715 0.0
H105 H 0.1414 0.12816 0.24671 0.0
C106 C 0.15685 0.19281 0.10423 0.0
C107 C 0.12913 0.19021 0.06734 0.0
C108 C 0.09289 0.15466 0.05753 0.0
C109 C 0.0817 0.12315 0.08486 0.0
C110 C 0.10867 0.12727 0.12146 0.0
C111 C 0.14667 0.16095 0.13077 0.0
C112 C 0.16538 0.16077 0.17255 0.0
C113 C 0.24432 0.15205 0.17746 0.0
C114 C 0.13659 0.20298 0.19267 0.0
C115 C 0.12864 0.12324 0.186 0.0
C116 C 0.09696 0.10364 0.15627 0.0
C117 C 0.05371 0.0712 0.16309 0.0
C118 C 0.04165 0.05936 0.20128 0.0
C119 C 0.07275 0.08004 0.23173 0.0
C120 C 0.11793 0.11143 0.22374 0.0
H121 H 0.09858 0.85453 0.07488 0.0
H122 H 0.90446 0.79955 0.09358 0.0
H123 H 0.86979 0.85494 0.14188 0.0
H124 H 0.13098 0.86059 0.16987 0.0
H125 H 0.17388 0.90913 0.16885 0.0
H126 H 0.17421 0.8758 0.12677 0.0
H127 H 0.12023 0.94109 0.08806 0.0
H128 H 0.11919 0.97453 0.13042 0.0
H129 H 0.04022 0.97026 0.10453 0.0
H130 H 0.8631 0.9057 0.19475 0.0
H131 H 0.89218 0.93963 0.25544 0.0
H132 H 0.09743 0.9562 0.21106 0.0
C133 C 0.04831 0.85473 0.08869 0.0
C134 C 0.00335 0.82333 0.07951 0.0
C135 C 0.93834 0.82437 0.09861 0.0
C136 C 0.91829 0.85573 0.12632 0.0
C137 C 0.96451 0.88542 0.13552 0.0
C138 C 0.02882 0.88481 0.11778 0.0
C139 C 0.07452 0.91372 0.1388 0.0
C140 C 0.14235 0.88828 0.15186 0.0
C141 C 0.08941 0.95218 0.11396 0.0
C142 C 0.02747 0.92817 0.17249 0.0
C143 C 0.96304 0.91313 0.16879 0.0
C144 C 0.91268 0.91847 0.19766 0.0
C145 C 0.92957 0.93777 0.23198 0.0
C146 C -0.00361 0.95103 0.23731 0.0
C147 C 0.04529 0.94753 0.2069 0.0
H148 H 0.66733 0.73203 0.61808 0.0
H149 H 0.49915 0.68371 0.55607 0.0
H150 H 0.49928 0.62276 0.60113 0.0
H151 H 0.75734 0.6237 0.64427 0.0
H152 H 0.78108 0.64369 0.69032 0.0
H153 H 0.77431 0.67901 0.64964 0.0
H154 H 0.68683 0.73211 0.68751 0.0
H155 H 0.69331 0.69709 0.7281 0.0
H156 H 0.60961 0.71304 0.70775 0.0
H157 H 0.50602 0.57442 0.65914 0.0
H158 H 0.51839 0.54421 0.72444 0.0
H159 H 0.68757 0.62155 0.7454 0.0
C160 C 0.63233 0.70771 0.61333 0.0
C161 C 0.58328 0.71227 0.58386 0.0
C162 C 0.53666 0.6807 0.57887 0.0
C163 C 0.53691 0.64587 0.60403 0.0
C164 C 0.58507 0.64277 0.63352 0.0
C165 C 0.63251 0.67266 0.6379 0.0
C166 C 0.67443 0.66471 0.6738 0.0
C167 C 0.75136 0.65201 0.6639 0.0
C168 C 0.66543 0.70405 0.70087 0.0
C169 C 0.64074 0.62715 0.69006 0.0
C170 C 0.5901 0.61429 0.66623 0.0
C171 C 0.54695 0.58331 0.67751 0.0
C172 C 0.55458 0.56603 0.71449 0.0
C173 C 0.60492 0.57987 0.73946 0.0
C174 C 0.64958 0.60979 0.72652 0.0
H175 H 0.43758 0.3012 0.62645 0.0
H176 H 0.59243 0.34153 0.54807 0.0
H177 H 0.60864 0.40343 0.59059 0.0
H178 H 0.36494 0.41402 0.65823 0.0
H179 H 0.35149 0.39543 0.70624 0.0
H180 H 0.34306 0.36006 0.66592 0.0
H181 H 0.43366 0.30354 0.69569 0.0
H182 H 0.44223 0.33854 0.73584 0.0
H183 H 0.51797 0.31891 0.70797 0.0
H184 H 0.62383 0.45135 0.64791 0.0
H185 H 0.63616 0.47946 0.71387 0.0
H186 H 0.46492 0.41104 0.75191 0.0
C187 C 0.47258 0.3242 0.61753 0.0
C188 C 0.51369 0.3169 0.58419 0.0
C189 C 0.56091 0.34665 0.57381 0.0
C190 C 0.56982 0.38204 0.59755 0.0
C191 C 0.52981 0.38769 0.63104 0.0
C192 C 0.48121 0.35985 0.64061 0.0
C193 C 0.4503 0.36968 0.67997 0.0
C194 C 0.37285 0.38577 0.67742 0.0
C195 C 0.46182 0.33036 0.70639 0.0
C196 C 0.49244 0.40539 0.69223 0.0
C197 C 0.53706 0.4162 0.66345 0.0
C198 C 0.5875 0.44428 0.67022 0.0
C199 C 0.594 0.46034 0.70761 0.0
C200 C 0.55026 0.44813 0.7374 0.0
C201 C 0.49753 0.42171 0.72918 0.0
H202 H 0.18383 0.3213 0.94813 0.0
H203 H 0.24142 0.32821 0.06715 0.0
H204 H 0.31843 0.38442 0.05156 0.0
H205 H 0.34388 0.32867 0.90884 0.0
H206 H 0.31544 0.36146 0.86862 0.0
H207 H 0.25742 0.3273 0.89053 0.0
H208 H 0.16642 0.39302 0.90168 0.0
H209 H 0.22465 0.42753 0.87986 0.0
H210 H 0.19054 0.43924 0.92746 0.0
H211 H 0.40226 0.42979 0.02146 0.0
H212 H 0.48806 0.45986 0.97889 0.0
H213 H 0.37122 0.42736 0.87992 0.0
C214 C 0.21136 0.33566 0.9709 0.0
C215 C 0.20755 0.32062 0.00869 0.0
C216 C 0.24495 0.33916 0.03792 0.0
C217 C 0.28785 0.3714 0.02939 0.0
C218 C 0.29155 0.38517 0.9916 0.0
C219 C 0.25385 0.3681 0.96285 0.0
C220 C 0.2721 0.38527 0.92404 0.0
C221 C 0.29884 0.34849 0.89642 0.0
C222 C 0.20971 0.41291 0.90727 0.0
C223 C 0.32914 0.41253 0.9351 0.0
C224 C 0.33853 0.41286 0.97434 0.0
C225 C 0.39395 0.43115 0.99088 0.0
C226 C 0.44223 0.44827 0.96663 0.0
C227 C 0.43398 0.44743 0.92653 0.0
C228 C 0.37617 0.43022 0.91068 0.0
H229 H 0.91256 0.69251 0.03636 0.0
H230 H 0.05992 0.69926 0.94307 0.0
H231 H 0.00848 0.64063 0.90928 0.0
H232 H 0.88938 0.57585 0.02994 0.0
H233 H 0.7973 0.58571 0.03901 0.0
H234 H 0.85565 0.62066 0.05969 0.0
H235 H 0.78671 0.68681 0.02867 0.0
H236 H 0.72778 0.65217 0.00871 0.0
H237 H 0.77228 0.68659 0.97775 0.0
H238 H 0.93269 0.58684 0.88279 0.0
H239 H 0.8288 0.5539 0.8608 0.0
H240 H 0.72469 0.58846 0.96856 0.0
C241 C 0.93431 0.68111 0.00901 0.0
C242 C -0.00893 0.69943 0.99265 0.0
C243 C 0.0181 0.68442 0.95668 0.0
C244 C 0.98908 0.65119 0.93732 0.0
C245 C 0.9327 0.63376 0.95427 0.0
C246 C 0.90497 0.64882 0.98909 0.0
C247 C 0.83781 0.63023 -0.0016 0.0
C248 C 0.84554 0.6014 0.03387 0.0
C249 C 0.77763 0.66607 0.00365 0.0
C250 C 0.83005 0.60395 0.96252 0.0
C251 C 0.88665 0.60486 0.93806 0.0
C252 C 0.88864 0.58537 0.90193 0.0
C253 C 0.82979 0.56651 0.88974 0.0
C254 C 0.76981 0.56849 0.91334 0.0
C255 C 0.77088 0.58593 0.95054 0.0
H256 H 0.03879 0.28219 0.94198 0.0
H257 H 0.06359 0.36536 0.03903 0.0
H258 H 0.98134 0.42213 0.01032 0.0
H259 H 0.01983 0.36978 0.86859 0.0
H260 H 0.95718 0.34287 0.84222 0.0
H261 H 0.02477 0.31194 0.86812 0.0
H262 H 0.93216 0.27364 0.90517 0.0
H263 H 0.86449 0.30417 0.87941 0.0
H264 H 0.86382 0.30546 0.93104 0.0
H265 H 0.88223 0.46368 0.97595 0.0
H266 H 0.7776 0.48676 0.93872 0.0
H267 H 0.82508 0.3789 0.86121 0.0
C268 C 0.0276 0.31282 0.95652 0.0
C269 C 0.05656 0.32001 0.99239 0.0
C270 C 0.04139 0.35993 0.01131 0.0
C271 C -0.00477 0.39215 -0.00484 0.0
C272 C 0.96623 0.38391 0.95979 0.0
C273 C 0.98266 0.34537 0.94048 0.0
C274 C 0.94103 0.34305 0.90437 0.0
C275 C 0.98854 0.34185 0.86871 0.0
C276 C 0.89781 0.30431 0.90508 0.0
C277 C 0.89559 0.38518 0.90742 0.0
C278 C 0.91147 0.40872 0.93922 0.0
C279 C 0.87102 0.44636 0.95019 0.0
C280 C 0.81213 0.45969 0.92856 0.0
C281 C 0.79478 0.43566 0.89624 0.0
C282 C 0.8381 0.39852 0.88524 0.0
H283 H 0.16333 0.73996 0.96737 0.0
H284 H 0.12709 0.65243 0.05883 0.0
H285 H 0.21958 0.59902 0.03176 0.0
H286 H 0.1854 0.65843 0.89403 0.0
H287 H 0.24954 0.68472 0.86773 0.0
H288 H 0.18406 0.71609 0.89592 0.0
H289 H 0.2792 0.75056 0.93362 0.0
H290 H 0.34495 0.72 0.90513 0.0
H291 H 0.34665 0.71635 0.95662 0.0
H292 H 0.3216 0.5576 -0.0052 0.0
H293 H 0.42 0.53223 0.95171 0.0
H294 H 0.37452 0.64397 0.88056 0.0
C295 C 0.17594 0.70965 0.98174 0.0
C296 C 0.13982 0.69991 0.01509 0.0
C297 C 0.15555 0.66002 0.03331 0.0
C298 C 0.20734 0.62969 0.018 0.0
C299 C 0.24121 0.63986 0.98421 0.0
C300 C 0.22551 0.67886 0.96624 0.0
C301 C 0.26663 0.6818 0.9296 0.0
C302 C 0.21854 0.68546 0.89476 0.0
C303 C 0.31207 0.71939 0.93138 0.0
C304 C 0.30985 0.63891 0.93015 0.0
C305 C 0.29483 0.615 0.96176 0.0
C306 C 0.33242 0.57561 0.96944 0.0
C307 C 0.38748 0.56092 0.94451 0.0
C308 C 0.40346 0.58513 0.91212 0.0
C309 C 0.36299 0.6242 0.90471 0.0
H310 H 0.72208 0.83771 0.54324 0.0
H311 H 0.57439 0.83177 0.45167 0.0
H312 H 0.63641 0.88296 0.41403 0.0
H313 H 0.7641 0.94842 0.53123 0.0
H314 H 0.85547 0.9346 0.53894 0.0
H315 H 0.79268 0.90399 0.56173 0.0
H316 H 0.85297 0.83368 0.53144 0.0
H317 H 0.91642 0.86404 0.50927 0.0
H318 H 0.86684 0.83061 0.4803 0.0
H319 H 0.71573 0.93394 0.3862 0.0
H320 H 0.82048 0.96569 0.36305 0.0
H321 H 0.92579 0.92827 0.46819 0.0
C322 C 0.70289 0.84736 0.5153 0.0
C323 C 0.64225 0.83212 0.50082 0.0
C324 C 0.61921 0.84457 0.46384 0.0
C325 C 0.65404 0.87359 0.44233 0.0
C326 C 0.71309 0.8887 0.45777 0.0
C327 C 0.73855 0.87494 0.49291 0.0
C328 C 0.80859 0.89054 0.50045 0.0
C329 C 0.80495 0.92121 0.53515 0.0
C330 C 0.86449 0.85246 0.50564 0.0
C331 C 0.81941 0.9143 0.46363 0.0
C332 C 0.76244 0.91444 0.4401 0.0
C333 C 0.76065 0.93403 0.40433 0.0
C334 C 0.81998 0.95217 0.39153 0.0
C335 C 0.88044 0.94919 0.414 0.0
C336 C 0.87965 0.93104 0.45078 0.0
H337 H 0.41148 0.22798 0.46658 0.0
H338 H 0.44139 0.14676 0.5658 0.0
H339 H 0.36347 0.0963 0.5382 0.0
H340 H 0.23422 0.21815 0.45392 0.0
H341 H 0.23866 0.21717 0.40231 0.0
H342 H 0.30017 0.24436 0.42906 0.0
H343 H 0.40165 0.19806 0.39488 0.0
H344 H 0.34037 0.17056 0.36805 0.0
H345 H 0.40509 0.14032 0.39641 0.0
H346 H 0.2742 0.05848 0.50137 0.0
H347 H 0.18287 0.03622 0.45823 0.0
H348 H 0.21601 0.1417 0.38266 0.0
C349 C 0.40142 0.1994 0.48216 0.0
C350 C 0.43077 0.19099 0.51826 0.0
C351 C 0.41814 0.15336 0.53814 0.0
C352 C 0.37445 0.12469 0.52263 0.0
C353 C 0.3451 0.1341 0.48699 0.0
C354 C 0.35857 0.17043 0.46692 0.0
C355 C 0.31929 0.17406 0.42981 0.0
C356 C 0.27017 0.2159 0.42874 0.0
C357 C 0.3696 0.17052 0.39524 0.0
C358 C 0.27958 0.135 0.4327 0.0
C359 C 0.29553 0.11196 0.46562 0.0
C360 C 0.26215 0.07587 0.47521 0.0
C361 C 0.21064 0.06339 0.45064 0.0
C362 C 0.19386 0.08682 0.41696 0.0
C363 C 0.22898 0.12284 0.40797 0.0
H364 H 0.42803 0.79246 0.49008 0.0
H365 H 0.53622 0.89755 0.53155 0.0
H366 H 0.45915 0.94884 0.49298 0.0
H367 H 0.40221 0.82834 0.39588 0.0
H368 H 0.31696 0.81041 0.39203 0.0
H369 H 0.37955 0.78322 0.42353 0.0
H370 H 0.29369 0.79623 0.48106 0.0
H371 H 0.2302 0.82255 0.44957 0.0
H372 H 0.25583 0.85006 0.49181 0.0
H373 H 0.37173 0.98723 0.44503 0.0
H374 H 0.2765 0.00878 0.39958 0.0
H375 H 0.22485 0.87734 0.39608 0.0
C376 C 0.43423 0.82642 0.49175 0.0
C377 C 0.48725 0.84136 0.51369 0.0
C378 C 0.49537 0.88583 0.51472 0.0
C379 C 0.45219 0.91495 0.49286 0.0
C380 C 0.40098 0.89885 0.47069 0.0
C381 C 0.39145 0.8556 0.47064 0.0
C382 C 0.33306 0.84576 0.44503 0.0
C383 C 0.35957 0.81513 0.41218 0.0
C384 C 0.27474 0.82761 0.46826 0.0
C385 C 0.3108 0.89016 0.43046 0.0
C386 C 0.35054 0.92059 0.44502 0.0
C387 C 0.33941 0.96369 0.43425 0.0
C388 C 0.2848 0.97587 0.40893 0.0
C389 C 0.24161 0.94527 0.39561 0.0
C390 C 0.25641 0.90182 0.40591 0.0
H391 H 0.57242 0.20978 0.46261 0.0
H392 H 0.60888 0.14178 0.56879 0.0
H393 H 0.69226 0.08786 0.53544 0.0
H394 H 0.59712 0.11289 0.39616 0.0
H395 H 0.64004 0.14293 0.36078 0.0
H396 H 0.57296 0.16972 0.39121 0.0
H397 H 0.65803 0.2238 0.41295 0.0
H398 H 0.72505 0.19724 0.3828 0.0
H399 H 0.7401 0.2038 0.43327 0.0
H400 H 0.78403 0.04919 0.4929 0.0
H401 H 0.88089 0.03219 0.4469 0.0
H402 H 0.78482 0.12603 0.3682 0.0
C403 C 0.59663 0.18259 0.47822 0.0
C404 C 0.58476 0.17907 0.51777 0.0
C405 C 0.61773 0.1442 0.53824 0.0
C406 C 0.66452 0.11355 0.51949 0.0
C407 C 0.67687 0.1184 0.48033 0.0
C408 C 0.64355 0.15207 0.45993 0.0
C409 C 0.67236 0.15371 0.41961 0.0
C410 C 0.61734 0.14424 0.3902 0.0
C411 C 0.70058 0.19719 0.41174 0.0
C412 C 0.73003 0.11741 0.42112 0.0
C413 C 0.7305 0.09649 0.45593 0.0
C414 C 0.78307 0.06454 0.4652 0.0
C415 C 0.83761 0.05477 0.43876 0.0
C416 C 0.83928 0.07712 0.40373 0.0
C417 C 0.78391 0.10795 0.39452 0.0
loop_
_geom_bond_atom_site_label_1
_geom_bond_atom_site_label_2
_geom_bond_distance
_geom_bond_site_symmetry_2
_ccdc_geom_bond_type
C0 N1 1.317 . S
C0 N2 1.348 . S
C0 C3 1.485 . S
N1 C0 1.317 . S
N1 N5 1.370 . S
N2 C0 1.348 . S
N2 C4 1.346 . S
C3 C0 1.485 . S
C3 H7 0.960 1_455 S
C3 H8 0.961 . S
C3 H9 0.960 1_455 S
C4 N2 1.346 . S
C4 N5 1.307 . S
C4 C6 1.486 . S
N5 N1 1.370 . S
N5 C4 1.307 . S
C6 C4 1.486 . S
C6 H10 0.960 . S
C6 H11 0.960 . S
C6 H12 0.959 . S
H7 C3 0.960 1_655 S
H8 C3 0.961 . S
H9 C3 0.960 1_655 S
H10 C6 0.960 . S
H11 C6 0.960 . S
H12 C6 0.959 . S
C13 N14 1.317 . S
C13 N15 1.348 . S
C13 C16 1.485 . S
N14 C13 1.317 . S
N14 N18 1.370 1_655 S
N15 C13 1.348 . S
N15 C17 1.346 1_655 S
C16 C13 1.485 . S
C16 H20 0.960 . S
C16 H21 0.961 . S
C16 H22 0.960 . S
C17 N15 1.346 1_455 S
C17 N18 1.307 . S
C17 C19 1.486 . S
N18 N14 1.370 1_455 S
N18 C17 1.307 . S
C19 C17 1.486 . S
C19 H23 0.960 . S
C19 H24 0.960 . S
C19 H25 0.959 . S
H20 C16 0.960 . S
H21 C16 0.961 . S
H22 C16 0.960 . S
H23 C19 0.960 . S
H24 C19 0.960 . S
H25 C19 0.959 . S
C26 N27 1.317 . S
C26 N28 1.348 . S
C26 C29 1.485 . S
N27 C26 1.317 . S
N27 N31 1.370 . S
N28 C26 1.348 . S
N28 C30 1.346 . S
C29 C26 1.485 . S
C29 H33 0.960 . S
C29 H34 0.961 . S
C29 H35 0.960 . S
C30 N28 1.346 . S
C30 N31 1.307 . S
C30 C32 1.486 . S
N31 N27 1.370 . S
N31 C30 1.307 . S
C32 C30 1.486 . S
C32 H36 0.960 . S
C32 H37 0.960 . S
C32 H38 0.959 . S
H33 C29 0.960 . S
H34 C29 0.961 . S
H35 C29 0.960 . S
H36 C32 0.960 . S
H37 C32 0.960 . S
H38 C32 0.959 . S
C39 N40 1.317 . S
C39 N41 1.348 . S
C39 C42 1.485 . S
N40 C39 1.317 . S
N40 N44 1.370 . S
N41 C39 1.348 . S
N41 C43 1.346 . S
C42 C39 1.485 . S
C42 H46 0.960 . S
C42 H47 0.961 . S
C42 H48 0.960 . S
C43 N41 1.346 . S
C43 N44 1.307 . S
C43 C45 1.486 . S
N44 N40 1.370 . S
N44 C43 1.307 . S
C45 C43 1.486 . S
C45 H49 0.960 . S
C45 H50 0.960 . S
C45 H51 0.959 . S
H46 C42 0.960 . S
H47 C42 0.961 . S
H48 C42 0.960 . S
H49 C45 0.960 . S
H50 C45 0.960 . S
H51 C45 0.959 . S
Zn52 O58 1.920 . S
Zn52 O64 1.898 . S
Zn52 O67 1.905 1_455 S
Zn53 O61 1.905 . S
Zn53 O62 1.898 . S
Zn53 O70 1.920 . S
Zn54 O57 2.080 . S
Zn54 O60 2.114 1_545 S
Zn54 O63 2.120 1_545 S
Zn54 O65 2.120 . S
Zn54 O66 2.114 1_455 S
Zn54 O69 2.080 1_545 S
C55 O60 1.166 . S
C55 O61 1.182 . S
C56 O62 1.167 . S
C56 O63 1.299 . S
O57 Zn54 2.080 . S
O57 C71 1.305 . S
O58 Zn52 1.920 . S
O58 C71 1.234 . S
C59 O64 1.167 . S
C59 O65 1.299 . S
O60 Zn54 2.114 1_565 S
O60 C55 1.166 . S
O61 Zn53 1.905 . S
O61 C55 1.182 . S
O62 Zn53 1.898 . S
O62 C56 1.167 . S
O63 Zn54 2.120 1_565 S
O63 C56 1.299 . S
O64 Zn52 1.898 . S
O64 C59 1.167 . S
O65 Zn54 2.120 . S
O65 C59 1.299 . S
O66 Zn54 2.114 1_655 S
O66 C68 1.166 . S
O67 Zn52 1.905 1_655 S
O67 C68 1.182 . S
C68 O66 1.166 . S
C68 O67 1.182 . S
O69 Zn54 2.080 1_565 S
O69 C72 1.305 . S
O70 Zn53 1.920 . S
O70 C72 1.234 . S
C71 O57 1.305 . S
C71 O58 1.234 . S
C72 O69 1.305 . S
C72 O70 1.234 . S
Zn73 O79 1.920 . S
Zn73 O85 1.898 . S
Zn73 O88 1.905 . S
Zn74 O82 1.905 . S
Zn74 O83 1.898 . S
Zn74 O91 1.920 . S
Zn75 O78 2.080 . S
Zn75 O81 2.114 . S
Zn75 O84 2.120 . S
Zn75 O86 2.120 . S
Zn75 O87 2.114 . S
Zn75 O90 2.080 . S
C76 O81 1.166 . S
C76 O82 1.182 . S
C77 O83 1.167 . S
C77 O84 1.299 . S
O78 Zn75 2.080 . S
O78 C92 1.305 . S
O79 Zn73 1.920 . S
O79 C92 1.234 . S
C80 O85 1.167 . S
C80 O86 1.299 . S
O81 Zn75 2.114 . S
O81 C76 1.166 . S
O82 Zn74 1.905 . S
O82 C76 1.182 . S
O83 Zn74 1.898 . S
O83 C77 1.167 . S
O84 Zn75 2.120 . S
O84 C77 1.299 . S
O85 Zn73 1.898 . S
O85 C80 1.167 . S
O86 Zn75 2.120 . S
O86 C80 1.299 . S
O87 Zn75 2.114 . S
O87 C89 1.166 . S
O88 Zn73 1.905 . S
O88 C89 1.182 . S
C89 O87 1.166 . S
C89 O88 1.182 . S
O90 Zn75 2.080 . S
O90 C93 1.305 . S
O91 Zn74 1.920 . S
O91 C93 1.234 . S
C92 O78 1.305 . S
C92 O79 1.234 . S
C93 O90 1.305 . S
C93 O91 1.234 . S
H94 C106 0.930 . S
H95 C108 0.930 . S
H96 C109 0.930 . S
H97 C113 0.959 . S
H98 C113 0.959 . S
H99 C113 0.961 . S
H100 C114 0.960 . S
H101 C114 0.961 . S
H102 C114 0.959 . S
H103 C117 0.929 . S
H104 C118 0.931 . S
H105 C120 0.930 . S
C106 H94 0.930 . S
C106 C107 1.399 . S
C106 C111 1.399 . S
C107 C106 1.399 . S
C107 C108 1.376 . S
C108 H95 0.930 . S
C108 C107 1.376 . S
C108 C109 1.388 . S
C109 H96 0.930 . S
C109 C108 1.388 . S
C109 C110 1.390 . S
C110 C109 1.390 . S
C110 C111 1.394 . S
C110 C116 1.465 . S
C111 C106 1.399 . S
C111 C110 1.394 . S
C111 C112 1.516 . S
C112 C111 1.516 . S
C112 C113 1.502 . S
C112 C114 1.561 . S
C112 C115 1.526 . S
C113 H97 0.959 . S
C113 H98 0.959 . S
C113 H99 0.961 . S
C113 C112 1.502 . S
C114 H100 0.960 . S
C114 H101 0.961 . S
C114 H102 0.959 . S
C114 C112 1.561 . S
C115 C112 1.526 . S
C115 C116 1.396 . S
C115 C120 1.390 . S
C116 C110 1.465 . S
C116 C115 1.396 . S
C116 C117 1.399 . S
C117 H103 0.929 . S
C117 C116 1.399 . S
C117 C118 1.385 . S
C118 H104 0.931 . S
C118 C117 1.385 . S
C118 C119 1.389 . S
C119 C118 1.389 . S
C119 C120 1.387 . S
C120 H105 0.930 . S
C120 C115 1.390 . S
C120 C119 1.387 . S
H121 C133 0.930 . S
H122 C135 0.930 . S
H123 C136 0.930 . S
H124 C140 0.959 . S
H125 C140 0.959 . S
H126 C140 0.961 . S
H127 C141 0.960 . S
H128 C141 0.961 1_455 S
H129 C141 0.959 . S
H130 C144 0.929 . S
H131 C145 0.928 1_655 S
H132 C147 0.930 . S
C133 H121 0.930 . S
C133 C134 1.399 1_455 S
C133 C138 1.399 . S
C134 C133 1.399 1_655 S
C134 C135 1.376 . S
C135 H122 0.930 . S
C135 C134 1.376 . S
C135 C136 1.388 . S
C136 H123 0.930 . S
C136 C135 1.388 . S
C136 C137 1.390 . S
C137 C136 1.390 . S
C137 C138 1.394 1_655 S
C137 C143 1.465 1_655 S
C138 C133 1.399 . S
C138 C137 1.394 1_455 S
C138 C139 1.516 . S
C139 C138 1.516 . S
C139 C140 1.502 . S
C139 C141 1.561 1_455 S
C139 C142 1.526 . S
C140 H124 0.959 . S
C140 H125 0.959 . S
C140 H126 0.961 . S
C140 C139 1.502 . S
C141 H127 0.960 . S
C141 H128 0.961 1_655 S
C141 H129 0.959 . S
C141 C139 1.561 1_655 S
C142 C139 1.526 . S
C142 C143 1.396 . S
C142 C147 1.390 . S
C143 C137 1.465 1_455 S
C143 C142 1.396 . S
C143 C144 1.399 1_455 S
C144 H130 0.929 . S
C144 C143 1.399 1_655 S
C144 C145 1.382 1_655 S
C145 H131 0.928 1_455 S
C145 C144 1.382 1_455 S
C145 C146 1.395 . S
C146 C145 1.395 . S
C146 C147 1.387 . S
C147 H132 0.930 . S
C147 C142 1.390 . S
C147 C146 1.387 . S
H148 C160 0.930 . S
H149 C162 0.930 . S
H150 C163 0.930 . S
H151 C167 0.959 . S
H152 C167 0.959 . S
H153 C167 0.961 . S
H154 C168 0.960 . S
H155 C168 0.961 . S
H156 C168 0.959 . S
H157 C171 0.929 . S
H158 C172 0.931 . S
H159 C174 0.930 . S
C160 H148 0.930 . S
C160 C161 1.399 . S
C160 C165 1.399 . S
C161 C160 1.399 . S
C161 C162 1.376 . S
C162 H149 0.930 . S
C162 C161 1.376 . S
C162 C163 1.388 . S
C163 H150 0.930 . S
C163 C162 1.388 . S
C163 C164 1.390 . S
C164 C163 1.390 . S
C164 C165 1.394 . S
C164 C170 1.465 . S
C165 C160 1.399 . S
C165 C164 1.394 . S
C165 C166 1.516 . S
C166 C165 1.516 . S
C166 C167 1.502 . S
C166 C168 1.561 . S
C166 C169 1.526 . S
C167 H151 0.959 . S
C167 H152 0.959 . S
C167 H153 0.961 . S
C167 C166 1.502 . S
C168 H154 0.960 . S
C168 H155 0.961 . S
C168 H156 0.959 . S
C168 C166 1.561 . S
C169 C166 1.526 . S
C169 C170 1.396 . S
C169 C174 1.390 . S
C170 C164 1.465 . S
C170 C169 1.396 . S
C170 C171 1.399 . S
C171 H157 0.929 . S
C171 C170 1.399 . S
C171 C172 1.385 . S
C172 H158 0.931 . S
C172 C171 1.385 . S
C172 C173 1.389 . S
C173 C172 1.389 . S
C173 C174 1.387 . S
C174 H159 0.930 . S
C174 C169 1.390 . S
C174 C173 1.387 . S
H175 C187 0.930 . S
H176 C189 0.930 . S
H177 C190 0.930 . S
H178 C194 0.959 . S
H179 C194 0.959 . S
H180 C194 0.961 . S
H181 C195 0.960 . S
H182 C195 0.961 . S
H183 C195 0.959 . S
H184 C198 0.929 . S
H185 C199 0.931 . S
H186 C201 0.930 . S
C187 H175 0.930 . S
C187 C188 1.399 . S
C187 C192 1.399 . S
C188 C187 1.399 . S
C188 C189 1.376 . S
C189 H176 0.930 . S
C189 C188 1.376 . S
C189 C190 1.388 . S
C190 H177 0.930 . S
C190 C189 1.388 . S
C190 C191 1.390 . S
C191 C190 1.390 . S
C191 C192 1.394 . S
C191 C197 1.465 . S
C192 C187 1.399 . S
C192 C191 1.394 . S
C192 C193 1.516 . S
C193 C192 1.516 . S
C193 C194 1.502 . S
C193 C195 1.561 . S
C193 C196 1.526 . S
C194 H178 0.959 . S
C194 H179 0.959 . S
C194 H180 0.961 . S
C194 C193 1.502 . S
C195 H181 0.960 . S
C195 H182 0.961 . S
C195 H183 0.959 . S
C195 C193 1.561 . S
C196 C193 1.526 . S
C196 C197 1.396 . S
C196 C201 1.390 . S
C197 C191 1.465 . S
C197 C196 1.396 . S
C197 C198 1.399 . S
C198 H184 0.929 . S
C198 C197 1.399 . S
C198 C199 1.385 . S
C199 H185 0.931 . S
C199 C198 1.385 . S
C199 C200 1.389 . S
C200 C199 1.389 . S
C200 C201 1.387 . S
C201 H186 0.930 . S
C201 C196 1.390 . S
C201 C200 1.387 . S
H202 C214 0.930 . S
H203 C216 0.930 . S
H204 C217 0.930 . S
H205 C221 0.959 . S
H206 C221 0.959 . S
H207 C221 0.961 . S
H208 C222 0.960 . S
H209 C222 0.961 . S
H210 C222 0.959 . S
H211 C225 0.929 . S
H212 C226 0.931 . S
H213 C228 0.930 . S
C214 H202 0.930 . S
C214 C215 1.387 1_556 S
C214 C219 1.399 . S
C215 C214 1.387 1_554 S
C215 C216 1.385 . S
C216 H203 0.930 . S
C216 C215 1.385 . S
C216 C217 1.388 . S
C217 H204 0.930 . S
C217 C216 1.388 . S
C217 C218 1.390 1_554 S
C218 C217 1.390 1_556 S
C218 C219 1.394 . S
C218 C224 1.465 . S
C219 C214 1.399 . S
C219 C218 1.394 . S
C219 C220 1.516 . S
C220 C219 1.516 . S
C220 C221 1.502 . S
C220 C222 1.561 . S
C220 C223 1.526 . S
C221 H205 0.959 . S
C221 H206 0.959 . S
C221 H207 0.961 . S
C221 C220 1.502 . S
C222 H208 0.960 . S
C222 H209 0.961 . S
C222 H210 0.959 . S
C222 C220 1.561 . S
C223 C220 1.526 . S
C223 C224 1.396 . S
C223 C228 1.390 . S
C224 C218 1.465 . S
C224 C223 1.396 . S
C224 C225 1.399 . S
C225 H211 0.929 . S
C225 C224 1.399 . S
C225 C226 1.385 . S
C226 H212 0.931 . S
C226 C225 1.385 . S
C226 C227 1.389 . S
C227 C226 1.389 . S
C227 C228 1.387 . S
C228 H213 0.930 . S
C228 C223 1.390 . S
C228 C227 1.387 . S
H229 C241 0.930 . S
H230 C243 0.930 . S
H231 C244 0.930 . S
H232 C248 0.980 . S
H233 C248 0.959 . S
H234 C248 0.961 . S
H235 C249 0.960 . S
H236 C249 0.961 . S
H237 C249 0.959 . S
H238 C252 0.929 . S
H239 C253 0.931 . S
H240 C255 0.930 . S
C241 H229 0.930 . S
C241 C242 1.388 1_554 S
C241 C246 1.399 1_554 S
C242 C241 1.388 1_556 S
C242 C243 1.401 . S
C243 H230 0.930 . S
C243 C242 1.401 . S
C243 C244 1.388 . S
C244 H231 0.930 . S
C244 C243 1.388 . S
C244 C245 1.390 . S
C245 C244 1.390 . S
C245 C246 1.394 . S
C245 C251 1.465 . S
C246 C241 1.399 1_556 S
C246 C245 1.394 . S
C246 C247 1.516 1_556 S
C247 C246 1.516 1_554 S
C247 C248 1.502 . S
C247 C249 1.561 . S
C247 C250 1.526 1_554 S
C248 H232 0.980 . S
C248 H233 0.959 . S
C248 H234 0.961 . S
C248 C247 1.502 . S
C249 H235 0.960 . S
C249 H236 0.961 . S
C249 H237 0.959 . S
C249 C247 1.561 . S
C250 C247 1.526 1_556 S
C250 C251 1.396 . S
C250 C255 1.390 . S
C251 C245 1.465 . S
C251 C250 1.396 . S
C251 C252 1.399 . S
C252 H238 0.929 . S
C252 C251 1.399 . S
C252 C253 1.385 . S
C253 H239 0.931 . S
C253 C252 1.385 . S
C253 C254 1.389 . S
C254 C253 1.389 . S
C254 C255 1.387 . S
C255 H240 0.930 . S
C255 C250 1.390 . S
C255 C254 1.387 . S
H256 C268 0.930 . S
H257 C270 0.940 . S
H258 C271 0.930 . S
H259 C275 0.959 1_655 S
H260 C275 0.959 1_655 S
H261 C275 0.961 . S
H262 C276 0.950 1_455 S
H263 C276 0.962 . S
H264 C276 0.965 . S
H265 C279 0.929 . S
H266 C280 0.931 . S
H267 C282 0.930 . S
C268 H256 0.930 . S
C268 C269 1.399 . S
C268 C273 1.399 1_455 S
C269 C268 1.399 . S
C269 C270 1.373 1_456 S
C270 H257 0.940 . S
C270 C269 1.373 1_654 S
C270 C271 1.383 1_554 S
C271 H258 0.930 . S
C271 C270 1.383 1_556 S
C271 C272 1.390 . S
C272 C271 1.390 . S
C272 C273 1.394 . S
C272 C278 1.465 . S
C273 C268 1.399 1_655 S
C273 C272 1.394 . S
C273 C274 1.516 . S
C274 C273 1.516 . S
C274 C275 1.502 1_655 S
C274 C276 1.565 . S
C274 C277 1.526 . S
C275 H259 0.959 1_455 S
C275 H260 0.959 1_455 S
C275 H261 0.961 . S
C275 C274 1.502 1_455 S
C276 H262 0.950 1_655 S
C276 H263 0.962 . S
C276 H264 0.965 . S
C276 C274 1.565 . S
C277 C274 1.526 . S
C277 C278 1.396 . S
C277 C282 1.390 . S
C278 C272 1.465 . S
C278 C277 1.396 . S
C278 C279 1.399 . S
C279 H265 0.929 . S
C279 C278 1.399 . S
C279 C280 1.385 . S
C280 H266 0.931 . S
C280 C279 1.385 . S
C280 C281 1.389 . S
C281 C280 1.389 . S
C281 C282 1.387 . S
C282 H267 0.930 . S
C282 C277 1.390 . S
C282 C281 1.387 . S
H283 C295 0.930 . S
H284 C297 0.930 . S
H285 C298 0.930 . S
H286 C302 0.959 . S
H287 C302 0.959 . S
H288 C302 0.961 . S
H289 C303 0.960 . S
H290 C303 0.961 . S
H291 C303 0.959 . S
H292 C306 0.929 . S
H293 C307 0.931 . S
H294 C309 0.930 . S
C295 H283 0.930 . S
C295 C296 1.399 . S
C295 C300 1.399 . S
C296 C295 1.399 . S
C296 C297 1.376 1_556 S
C297 H284 0.930 . S
C297 C296 1.376 1_554 S
C297 C298 1.388 . S
C298 H285 0.930 . S
C298 C297 1.388 . S
C298 C299 1.390 1_554 S
C299 C298 1.390 1_556 S
C299 C300 1.394 . S
C299 C305 1.465 . S
C300 C295 1.399 . S
C300 C299 1.394 . S
C300 C301 1.516 . S
C301 C300 1.516 . S
C301 C302 1.502 . S
C301 C303 1.561 . S
C301 C304 1.526 . S
C302 H286 0.959 . S
C302 H287 0.959 . S
C302 H288 0.961 . S
C302 C301 1.502 . S
C303 H289 0.960 . S
C303 H290 0.961 . S
C303 H291 0.959 . S
C303 C301 1.561 . S
C304 C301 1.526 . S
C304 C305 1.396 . S
C304 C309 1.390 . S
C305 C299 1.465 . S
C305 C304 1.396 . S
C305 C306 1.399 . S
C306 H292 0.929 . S
C306 C305 1.399 . S
C306 C307 1.385 . S
C307 H293 0.931 . S
C307 C306 1.385 . S
C307 C308 1.389 . S
C308 C307 1.389 . S
C308 C309 1.387 . S
C309 H294 0.930 . S
C309 C304 1.390 . S
C309 C308 1.387 . S
H310 C322 0.930 . S
H311 C324 0.930 . S
H312 C325 0.930 . S
H313 C329 0.959 . S
H314 C329 0.959 . S
H315 C329 0.961 . S
H316 C330 0.960 . S
H317 C330 0.961 . S
H318 C330 0.959 . S
H319 C333 0.929 . S
H320 C334 0.931 . S
H321 C336 0.930 . S
C322 H310 0.930 . S
C322 C323 1.399 . S
C322 C327 1.399 . S
C323 C322 1.399 . S
C323 C324 1.376 . S
C324 H311 0.930 . S
C324 C323 1.376 . S
C324 C325 1.388 . S
C325 H312 0.930 . S
C325 C324 1.388 . S
C325 C326 1.390 . S
C326 C325 1.390 . S
C326 C327 1.394 . S
C326 C332 1.465 . S
C327 C322 1.399 . S
C327 C326 1.394 . S
C327 C328 1.516 . S
C328 C327 1.516 . S
C328 C329 1.502 . S
C328 C330 1.561 . S
C328 C331 1.526 . S
C329 H313 0.959 . S
C329 H314 0.959 . S
C329 H315 0.961 . S
C329 C328 1.502 . S
C330 H316 0.960 . S
C330 H317 0.961 . S
C330 H318 0.959 . S
C330 C328 1.561 . S
C331 C328 1.526 . S
C331 C332 1.396 . S
C331 C336 1.390 . S
C332 C326 1.465 . S
C332 C331 1.396 . S
C332 C333 1.399 . S
C333 H319 0.929 . S
C333 C332 1.399 . S
C333 C334 1.385 . S
C334 H320 0.931 . S
C334 C333 1.385 . S
C334 C335 1.389 . S
C335 C334 1.389 . S
C335 C336 1.387 . S
C336 H321 0.930 . S
C336 C331 1.390 . S
C336 C335 1.387 . S
H337 C349 0.930 . S
H338 C351 0.930 . S
H339 C352 0.930 . S
H340 C356 0.959 . S
H341 C356 0.959 . S
H342 C356 0.961 . S
H343 C357 0.960 . S
H344 C357 0.961 . S
H345 C357 0.959 . S
H346 C360 0.929 . S
H347 C361 0.931 . S
H348 C363 0.930 . S
C349 H337 0.930 . S
C349 C350 1.399 . S
C349 C354 1.399 . S
C350 C349 1.399 . S
C350 C351 1.376 . S
C351 H338 0.930 . S
C351 C350 1.376 . S
C351 C352 1.388 . S
C352 H339 0.930 . S
C352 C351 1.388 . S
C352 C353 1.390 . S
C353 C352 1.390 . S
C353 C354 1.394 . S
C353 C359 1.465 . S
C354 C349 1.399 . S
C354 C353 1.394 . S
C354 C355 1.516 . S
C355 C354 1.516 . S
C355 C356 1.502 . S
C355 C357 1.561 . S
C355 C358 1.526 . S
C356 H340 0.959 . S
C356 H341 0.959 . S
C356 H342 0.961 . S
C356 C355 1.502 . S
C357 H343 0.960 . S
C357 H344 0.961 . S
C357 H345 0.959 . S
C357 C355 1.561 . S
C358 C355 1.526 . S
C358 C359 1.396 . S
C358 C363 1.390 . S
C359 C353 1.465 . S
C359 C358 1.396 . S
C359 C360 1.399 . S
C360 H346 0.929 . S
C360 C359 1.399 . S
C360 C361 1.385 . S
C361 H347 0.931 . S
C361 C360 1.385 . S
C361 C362 1.389 . S
C362 C361 1.389 . S
C362 C363 1.387 . S
C363 H348 0.930 . S
C363 C358 1.390 . S
C363 C362 1.387 . S
H364 C376 0.930 . S
H365 C378 0.930 . S
H366 C379 0.930 . S
H367 C383 0.959 . S
H368 C383 0.959 . S
H369 C383 0.961 . S
H370 C384 0.960 . S
H371 C384 0.961 . S
H372 C384 0.959 . S
H373 C387 0.929 . S
H374 C388 0.931 . S
H375 C390 0.930 . S
C376 H364 0.930 . S
C376 C377 1.399 . S
C376 C381 1.399 . S
C377 C376 1.399 . S
C377 C378 1.376 . S
C378 H365 0.930 . S
C378 C377 1.376 . S
C378 C379 1.388 . S
C379 H366 0.930 . S
C379 C378 1.388 . S
C379 C380 1.390 . S
C380 C379 1.390 . S
C380 C381 1.394 . S
C380 C386 1.465 . S
C381 C376 1.399 . S
C381 C380 1.394 . S
C381 C382 1.516 . S
C382 C381 1.516 . S
C382 C383 1.502 . S
C382 C384 1.561 . S
C382 C385 1.526 . S
C383 H367 0.959 . S
C383 H368 0.959 . S
C383 H369 0.961 . S
C383 C382 1.502 . S
C384 H370 0.960 . S
C384 H371 0.961 . S
C384 H372 0.959 . S
C384 C382 1.561 . S
C385 C382 1.526 . S
C385 C386 1.396 . S
C385 C390 1.390 . S
C386 C380 1.465 . S
C386 C385 1.396 . S
C386 C387 1.399 . S
C387 H373 0.929 . S
C387 C386 1.399 . S
C387 C388 1.385 . S
C388 H374 0.931 . S
C388 C387 1.385 . S
C388 C389 1.389 . S
C389 C388 1.389 . S
C389 C390 1.387 . S
C390 H375 0.930 . S
C390 C385 1.390 . S
C390 C389 1.387 . S
H391 C403 0.930 . S
H392 C405 0.930 . S
H393 C406 0.930 . S
H394 C410 0.959 . S
H395 C410 0.959 . S
H396 C410 0.961 . S
H397 C411 0.960 . S
H398 C411 0.961 . S
H399 C411 0.959 . S
H400 C414 0.929 . S
H401 C415 0.931 . S
H402 C417 0.930 . S
C403 H391 0.930 . S
C403 C404 1.399 . S
C403 C408 1.399 . S
C404 C403 1.399 . S
C404 C405 1.376 . S
C405 H392 0.930 . S
C405 C404 1.376 . S
C405 C406 1.388 . S
C406 H393 0.930 . S
C406 C405 1.388 . S
C406 C407 1.390 . S
C407 C406 1.390 . S
C407 C408 1.394 . S
C407 C413 1.465 . S
C408 C403 1.399 . S
C408 C407 1.394 . S
C408 C409 1.516 . S
C409 C408 1.516 . S
C409 C410 1.502 . S
C409 C411 1.561 . S
C409 C412 1.526 . S
C410 H394 0.959 . S
C410 H395 0.959 . S
C410 H396 0.961 . S
C410 C409 1.502 . S
C411 H397 0.960 . S
C411 H398 0.961 . S
C411 H399 0.959 . S
C411 C409 1.561 . S
C412 C409 1.526 . S
C412 C413 1.396 . S
C412 C417 1.390 . S
C413 C407 1.465 . S
C413 C412 1.396 . S
C413 C414 1.399 . S
C414 H400 0.929 . S
C414 C413 1.399 . S
C414 C415 1.385 . S
C415 H401 0.931 . S
C415 C414 1.385 . S
C415 C416 1.389 . S
C416 C415 1.389 . S
C416 C417 1.387 . S
C417 H402 0.930 . S
C417 C412 1.390 . S
C417 C416 1.387 . S
C119 C59 1.410 . S
C107 N2 1.501 . S
C146 C55 1.350 . S
C134 N15 1.501 . S
C173 C80 1.428 . S
C161 N28 1.506 . S
C188 N41 1.499 . S
C200 C76 1.401 . S
C215 N5 1.276 . S
C227 C77 1.214 . S
C254 C92 1.080 . S
C242 N14 1.291 1_556 S
C269 N1 1.721 1_556 S
C281 C93 1.532 . S
C308 C89 1.583 . S
C296 N18 1.725 1_556 S
C335 C56 1.083 1_655 S
C323 N31 1.296 . S
C350 N40 1.274 . S
C362 C71 1.227 . S
C389 C72 1.616 . S
C377 N27 1.731 . S
C416 C68 1.608 . S
C404 N44 1.726 . S
