# Generated by pormake.
# Topology sqc, (4,8)-cn, num edge types: 1
# Building blocks:
#     Node 0, Type 0, BuildingBlock: NAHDIM_clean_linker_0, # of connection points: 4
#     Node 1, Type 0, BuildingBlock: NAHDIM_clean_linker_0, # of connection points: 4
#     Node 2, Type 0, BuildingBlock: NAHDIM_clean_linker_0, # of connection points: 4
#     Node 3, Type 0, BuildingBlock: NAHDIM_clean_linker_0, # of connection points: 4
#     Node 4, Type 0, BuildingBlock: NAHDIM_clean_linker_0, # of connection points: 4
#     Node 5, Type 0, BuildingBlock: NAHDIM_clean_linker_0, # of connection points: 4
#     Node 6, Type 0, BuildingBlock: NAHDIM_clean_linker_0, # of connection points: 4
#     Node 7, Type 0, BuildingBlock: NAHDIM_clean_linker_0, # of connection points: 4
#     Node 8, Type 1, BuildingBlock: VETTIZ_charged_sbu_0, # of connection points: 8
#     Node 9, Type 1, BuildingBlock: VETTIZ_charged_sbu_0, # of connection points: 8
#     Node 10, Type 1, BuildingBlock: VETTIZ_charged_sbu_0, # of connection points: 8
#     Node 11, Type 1, BuildingBlock: VETTIZ_charged_sbu_0, # of connection points: 8
#     Edge 12, Type (0, 1), BuildingBlock: AJUNOK_clean_linker_0, # of connection points: 2
#     Edge 13, Type (0, 1), BuildingBlock: AJUNOK_clean_linker_0, # of connection points: 2
#     Edge 14, Type (0, 1), BuildingBlock: AJUNOK_clean_linker_0, # of connection points: 2
#     Edge 15, Type (0, 1), BuildingBlock: AJUNOK_clean_linker_0, # of connection points: 2
#     Edge 16, Type (0, 1), BuildingBlock: AJUNOK_clean_linker_0, # of connection points: 2
#     Edge 17, Type (0, 1), BuildingBlock: AJUNOK_clean_linker_0, # of connection points: 2
#     Edge 18, Type (0, 1), BuildingBlock: AJUNOK_clean_linker_0, # of connection points: 2
#     Edge 19, Type (0, 1), BuildingBlock: AJUNOK_clean_linker_0, # of connection points: 2
#     Edge 20, Type (0, 1), BuildingBlock: AJUNOK_clean_linker_0, # of connection points: 2
#     Edge 21, Type (0, 1), BuildingBlock: AJUNOK_clean_linker_0, # of connection points: 2
#     Edge 22, Type (0, 1), BuildingBlock: AJUNOK_clean_linker_0, # of connection points: 2
#     Edge 23, Type (0, 1), BuildingBlock: AJUNOK_clean_linker_0, # of connection points: 2
#     Edge 24, Type (0, 1), BuildingBlock: AJUNOK_clean_linker_0, # of connection points: 2
#     Edge 25, Type (0, 1), BuildingBlock: AJUNOK_clean_linker_0, # of connection points: 2
#     Edge 26, Type (0, 1), BuildingBlock: AJUNOK_clean_linker_0, # of connection points: 2
#     Edge 27, Type (0, 1), BuildingBlock: AJUNOK_clean_linker_0, # of connection points: 2
#     Edge 28, Type (0, 1), BuildingBlock: AJUNOK_clean_linker_0, # of connection points: 2
#     Edge 29, Type (0, 1), BuildingBlock: AJUNOK_clean_linker_0, # of connection points: 2
#     Edge 30, Type (0, 1), BuildingBlock: AJUNOK_clean_linker_0, # of connection points: 2
#     Edge 31, Type (0, 1), BuildingBlock: AJUNOK_clean_linker_0, # of connection points: 2
#     Edge 32, Type (0, 1), BuildingBlock: AJUNOK_clean_linker_0, # of connection points: 2
#     Edge 33, Type (0, 1), BuildingBlock: AJUNOK_clean_linker_0, # of connection points: 2
#     Edge 34, Type (0, 1), BuildingBlock: AJUNOK_clean_linker_0, # of connection points: 2
#     Edge 35, Type (0, 1), BuildingBlock: AJUNOK_clean_linker_0, # of connection points: 2
#     Edge 36, Type (0, 1), BuildingBlock: AJUNOK_clean_linker_0, # of connection points: 2
#     Edge 37, Type (0, 1), BuildingBlock: AJUNOK_clean_linker_0, # of connection points: 2
#     Edge 38, Type (0, 1), BuildingBlock: AJUNOK_clean_linker_0, # of connection points: 2
#     Edge 39, Type (0, 1), BuildingBlock: AJUNOK_clean_linker_0, # of connection points: 2
#     Edge 40, Type (0, 1), BuildingBlock: AJUNOK_clean_linker_0, # of connection points: 2
#     Edge 41, Type (0, 1), BuildingBlock: AJUNOK_clean_linker_0, # of connection points: 2
#     Edge 42, Type (0, 1), BuildingBlock: AJUNOK_clean_linker_0, # of connection points: 2
#     Edge 43, Type (0, 1), BuildingBlock: AJUNOK_clean_linker_0, # of connection points: 2
# Relax obj value: 0.111
# Max RMSD: 0.262
# Mean RMSD: 0.120
data_MOF--net-sqc--node1-VETTIZ_charged_sbu_0--node2-NAHDIM_clean_linker_0--edge1-AJUNOK_clean_linker_0
_symmetry_space_group_name_H-M    P1
_symmetry_Int_Tables_number       1
_symmetry_cell_setting            triclinic
loop_
_symmetry_equiv_pos_as_xyz
'x, y, z'
_cell_length_a     26.253349
_cell_length_b     26.052345
_cell_length_c     83.574465
_cell_angle_alpha  89.775406
_cell_angle_beta   89.242962
_cell_angle_gamma 90.78771
loop_
_atom_site_label
_atom_site_type_symbol
_atom_site_fract_x
_atom_site_fract_y
_atom_site_fract_z
_atom_type_partial_charge
C0 C 0.75496 0.00842 0.43706 0.0
C1 C 0.76299 0.95229 0.43203 0.0
C2 C 0.82592 0.92399 0.45198 0.0
C3 C 0.83247 0.89301 0.46547 0.0
C4 C 0.87843 0.89347 0.47392 0.0
C5 C 0.91887 0.9266 0.46891 0.0
C6 C 0.91327 0.9568 0.45493 0.0
C7 C 0.86717 0.95474 0.4465 0.0
C8 C 0.88339 0.85912 0.48838 0.0
C9 C 0.95564 0.99213 0.44909 0.0
C10 C 0.27654 0.75621 0.47885 0.0
C11 C 0.26753 0.78641 0.46332 0.0
C12 C 0.20029 0.8493 0.46891 0.0
C13 C 0.19002 0.90157 0.46789 0.0
C14 C 0.14123 0.92025 0.47114 0.0
C15 C 0.10208 0.88582 0.47631 0.0
C16 C 0.11147 0.83244 0.4767 0.0
C17 C 0.1604 0.81458 0.47277 0.0
C18 C 0.13235 0.97722 0.46967 0.0
C19 C 0.0705 0.79453 0.48193 0.0
C20 C 0.17572 0.02252 0.57602 0.0
C21 C 0.1816 0.04951 0.56156 0.0
C22 C 0.14333 0.04776 0.54994 0.0
C23 C 0.09898 0.01718 0.55273 0.0
C24 C 0.09356 0.98935 0.56728 0.0
C25 C 0.13165 0.99319 0.57886 0.0
C26 C 0.14964 0.07967 0.53492 0.0
C27 C 0.04709 0.95621 0.57075 0.0
C28 C 0.72057 0.18694 0.54021 0.0
C29 C 0.75174 0.15182 0.55091 0.0
C30 C 0.84338 0.14141 0.54871 0.0
C31 C 0.88525 0.16392 0.54083 0.0
C32 C 0.92779 0.13468 0.53664 0.0
C33 C 0.92845 0.08198 0.54077 0.0
C34 C 0.88739 0.05973 0.54959 0.0
C35 C 0.84516 0.08975 0.55348 0.0
C36 C 0.97137 0.15967 0.52744 0.0
C37 C 0.88774 0.00405 0.55463 0.0
C38 C 0.96578 0.93128 0.47877 0.0
C39 C 0.00981 0.90559 0.47381 0.0
C40 C 0.05401 0.90683 0.48305 0.0
C41 C 0.05374 0.93224 0.498 0.0
C42 C 0.09586 0.93036 0.50826 0.0
C43 C 0.0964 0.95758 0.52256 0.0
C44 C 0.05527 0.98853 0.52703 0.0
C45 C 0.05607 0.01796 0.54125 0.0
C46 C 0.01441 0.04842 0.5452 0.0
C47 C 0.97151 0.04976 0.53554 0.0
C48 C 0.96967 0.02027 0.52139 0.0
C49 C 0.92674 0.02051 0.51148 0.0
C50 C 0.92516 0.9911 0.49762 0.0
C51 C 0.96677 0.96091 0.49297 0.0
C52 C 0.01069 0.96079 0.5027 0.0
C53 C 0.01188 0.98986 0.51705 0.0
C54 C 0.27422 0.96341 0.59395 0.0
C55 C 0.2624 0.01324 0.58508 0.0
O56 O 0.77924 0.92331 0.44494 0.0
O57 O 0.80146 0.17018 0.55124 0.0
O58 O 0.21163 0.02513 0.58753 0.0
O59 O 0.24943 0.83484 0.46669 0.0
H60 H 0.79269 0.95256 0.42241 0.0
H61 H 0.7919 0.02775 0.4395 0.0
H62 H 0.73134 0.0104 0.44816 0.0
H63 H 0.73643 0.0302 0.42733 0.0
H64 H 0.80098 0.86871 0.46952 0.0
H65 H 0.86366 0.97784 0.43581 0.0
H66 H 0.91989 0.8381 0.48778 0.0
H67 H 0.85148 0.8308 0.48943 0.0
H68 H 0.88376 0.88291 0.49936 0.0
H69 H 0.94429 0.01563 0.43864 0.0
H70 H 0.98924 0.9691 0.4456 0.0
H71 H 0.96754 0.01825 0.45887 0.0
H72 H 0.23867 0.76421 0.45643 0.0
H73 H 0.30153 0.723 0.47659 0.0
H74 H 0.23997 0.74083 0.48375 0.0
H75 H 0.2933 0.7811 0.48821 0.0
H76 H 0.22077 0.92798 0.46466 0.0
H77 H 0.16742 0.77386 0.47331 0.0
H78 H 0.09406 0.98479 0.46476 0.0
H79 H 0.16157 0.99623 0.46185 0.0
H80 H 0.13438 0.99501 0.48169 0.0
H81 H 0.08437 0.75443 0.48216 0.0
H82 H 0.0379 0.79655 0.47364 0.0
H83 H 0.05611 0.80457 0.49406 0.0
H84 H 0.26987 0.00573 0.57213 0.0
H85 H 0.21553 0.07296 0.55958 0.0
H86 H 0.1275 0.97273 0.59013 0.0
H87 H 0.1522 0.0541 0.52437 0.0
H88 H 0.18437 0.10449 0.53515 0.0
H89 H 0.11589 0.10433 0.53333 0.0
H90 H 0.05273 0.93022 0.58113 0.0
H91 H 0.03728 0.93271 0.56013 0.0
H92 H 0.01421 0.98118 0.57348 0.0
H93 H 0.75018 0.11321 0.54526 0.0
H94 H 0.68044 0.17296 0.53969 0.0
H95 H 0.73682 0.18708 0.52787 0.0
H96 H 0.72115 0.22696 0.54477 0.0
H97 H 0.88366 0.20407 0.53744 0.0
H98 H 0.81348 0.07278 0.56015 0.0
H99 H 0.97706 0.1396 0.51586 0.0
H100 H 0.00708 0.15607 0.5343 0.0
H101 H 0.96472 0.20099 0.52501 0.0
H102 H 0.85447 0.99351 0.56237 0.0
H103 H 0.92322 0.99579 0.56119 0.0
H104 H 0.88725 0.97929 0.54385 0.0
H105 H 0.00994 0.88514 0.46253 0.0
H106 H 0.12892 0.90763 0.50537 0.0
H107 H 0.12977 0.95467 0.52997 0.0
H108 H 0.01511 0.07099 0.55609 0.0
H109 H 0.89375 0.04338 0.51435 0.0
H110 H 0.89112 0.9929 0.49048 0.0
H111 H 0.26655 0.96724 0.60699 0.0
H112 H 0.31479 0.95313 0.59205 0.0
H113 H 0.24997 0.93167 0.58931 0.0
C114 C 0.14944 0.95907 0.8455 0.0
C115 C 0.17826 -0.0023 0.83462 0.0
C116 C 0.18661 0.93952 0.81152 0.0
C117 C 0.23009 0.91266 0.81612 0.0
C118 C 0.24356 0.86657 0.80852 0.0
C119 C 0.21225 0.84615 0.79632 0.0
C120 C 0.16825 0.87323 0.79173 0.0
C121 C 0.15681 0.92012 0.79914 0.0
C122 C 0.29101 0.83946 0.81372 0.0
C123 C 0.13259 0.8523 0.77924 0.0
C124 C 0.14767 0.43939 0.83101 0.0
C125 C 0.18217 0.47347 0.82126 0.0
C126 C 0.19801 0.56529 0.81985 0.0
C127 C 0.16177 0.5801 0.80861 0.0
C128 C 0.16825 0.62577 0.79976 0.0
C129 C 0.21263 0.65645 0.80191 0.0
C130 C 0.24839 0.6422 0.81362 0.0
C131 C 0.24004 0.59721 0.82266 0.0
C132 C 0.12808 0.64072 0.78793 0.0
C133 C 0.29593 0.67392 0.81642 0.0
C134 C 0.30693 0.53537 0.70491 0.0
C135 C 0.26397 0.56635 0.70292 0.0
C136 C 0.26085 0.61469 0.71031 0.0
C137 C 0.30191 0.63317 0.7196 0.0
C138 C 0.34584 0.6028 0.72121 0.0
C139 C 0.34751 0.55417 0.71397 0.0
C140 C 0.2133 0.64586 0.70835 0.0
C141 C 0.39078 0.62149 0.73074 0.0
C142 C 0.28497 0.01189 0.69009 0.0
C143 C 0.34136 0.00241 0.69346 0.0
C144 C 0.34383 0.91078 0.69721 0.0
C145 C 0.29878 0.88322 0.69444 0.0
C146 C 0.28568 0.83979 0.70371 0.0
C147 C 0.31933 0.82277 0.71569 0.0
C148 C 0.36599 0.8496 0.71804 0.0
C149 C 0.37743 0.89372 0.70885 0.0
C150 C 0.23576 0.81233 0.70072 0.0
C151 C 0.40366 0.83187 0.73029 0.0
C152 C 0.22428 0.7956 0.78884 0.0
C153 C 0.21361 0.75097 0.79776 0.0
C154 C 0.22287 0.70215 0.7915 0.0
C155 C 0.24245 0.69735 0.7757 0.0
C156 C 0.25126 0.64893 0.76887 0.0
C157 C 0.26899 0.64442 0.75318 0.0
C158 C 0.28038 0.68816 0.74384 0.0
C159 C 0.29828 0.68382 0.72783 0.0
C160 C 0.31116 0.72827 0.71913 0.0
C161 C 0.3055 0.77721 0.72578 0.0
C162 C 0.28576 0.78215 0.74157 0.0
C163 C 0.27766 0.83061 0.74847 0.0
C164 C 0.25806 0.83512 0.76398 0.0
C165 C 0.24523 0.79139 0.77317 0.0
C166 C 0.25368 0.74209 0.76652 0.0
C167 C 0.27348 0.73747 0.75065 0.0
C168 C 0.23247 0.43906 0.69861 0.0
C169 C 0.27709 0.4616 0.68863 0.0
O170 O 0.17202 0.98399 0.81869 0.0
O171 O 0.35499 0.95367 0.68853 0.0
O172 O 0.3108 0.48721 0.69864 0.0
O173 O 0.19318 0.52062 0.82817 0.0
H174 H 0.21944 -0.00254 0.83754 0.0
H175 H 0.16442 0.91981 0.8438 0.0
H176 H 0.10818 0.95862 0.84268 0.0
H177 H 0.15414 0.96905 0.8583 0.0
H178 H 0.25389 0.92768 0.82553 0.0
H179 H 0.12337 0.94115 0.79564 0.0
H180 H 0.27987 0.8061 0.82134 0.0
H181 H 0.31645 0.86496 0.82076 0.0
H182 H 0.31262 0.82488 0.80321 0.0
H183 H 0.09619 0.87353 0.77893 0.0
H184 H 0.1239 0.81107 0.78155 0.0
H185 H 0.1511 0.8554 0.76726 0.0
H186 H 0.17362 0.47577 0.80822 0.0
H187 H 0.11239 0.43466 0.82362 0.0
H188 H 0.12904 0.46451 0.84028 0.0
H189 H 0.19412 0.37774 0.83696 0.0
H190 H 0.12832 0.55606 0.80685 0.0
H191 H 0.26732 0.58575 0.83157 0.0
H192 H 0.14259 0.63419 0.77558 0.0
H193 H 0.11931 0.68214 0.78904 0.0
H194 H 0.0923 0.61797 0.78963 0.0
H195 H 0.32246 0.65477 0.82472 0.0
H196 H 0.28518 0.7114 0.82162 0.0
H197 H 0.31622 0.6817 0.8049 0.0
H198 H 0.2613 0.48888 0.67976 0.0
H199 H 0.23236 0.553 0.69582 0.0
H200 H 0.3807 0.53038 0.7154 0.0
H201 H 0.19715 0.65568 0.72028 0.0
H202 H 0.18367 0.62522 0.70141 0.0
H203 H 0.22305 0.68242 0.70211 0.0
H204 H 0.42342 0.59488 0.72999 0.0
H205 H 0.37926 0.6256 0.74349 0.0
H206 H 0.40345 0.65995 0.72636 0.0
H207 H 0.34687 0.0054 0.70664 0.0
H208 H 0.27488 0.05196 0.69319 0.0
H209 H 0.26053 0.98579 0.6975 0.0
H210 H 0.27655 0.00516 0.67727 0.0
H211 H 0.27351 0.89634 0.68518 0.0
H212 H 0.41255 0.91508 0.71071 0.0
H213 H 0.21501 0.80497 0.71219 0.0
H214 H 0.24346 0.77466 0.6951 0.0
H215 H 0.21084 0.83448 0.69266 0.0
H216 H 0.44082 0.85258 0.72915 0.0
H217 H 0.4102 0.79003 0.72906 0.0
H218 H 0.38795 0.83852 0.74249 0.0
H219 H 0.19789 0.75427 0.80978 0.0
H220 H 0.24392 0.61378 0.7755 0.0
H221 H 0.27408 0.60609 0.74852 0.0
H222 H 0.32526 0.72475 0.70692 0.0
H223 H 0.28626 0.86571 0.74195 0.0
H224 H 0.25294 0.87341 0.76866 0.0
H225 H 0.20514 0.41856 0.69077 0.0
H226 H 0.21136 0.46994 0.7048 0.0
H227 H 0.24662 0.41244 0.70792 0.0
C228 C 0.76946 -0.00324 0.08213 0.0
C229 C 0.75381 0.9398 0.08147 0.0
C230 C 0.70421 0.9319 0.05651 0.0
C231 C 0.70312 0.9072 0.04172 0.0
C232 C 0.66128 0.91154 0.03155 0.0
C233 C 0.62032 0.94356 0.03599 0.0
C234 C 0.62186 0.96993 0.05081 0.0
C235 C 0.66317 0.96286 0.06107 0.0
C236 C 0.66045 0.88059 0.01631 0.0
C237 C 0.57942 0.00494 0.05601 0.0
C238 C 0.26985 0.77154 0.04967 0.0
C239 C 0.29313 0.80381 0.06312 0.0
C240 C 0.35116 0.86538 0.04941 0.0
C241 C 0.35961 0.91758 0.04663 0.0
C242 C 0.40324 0.9353 0.03846 0.0
C243 C 0.43843 0.89939 0.03233 0.0
C244 C 0.43008 0.84624 0.03501 0.0
C245 C 0.38681 0.82973 0.04375 0.0
C246 C 0.41175 0.99251 0.03657 0.0
C247 C 0.4668 0.80693 0.02866 0.0
C248 C 0.33503 0.01275 0.9362 0.0
C249 C 0.33912 0.04397 0.94981 0.0
C250 C 0.38458 0.0465 0.9585 0.0
C251 C 0.42646 0.01603 0.95378 0.0
C252 C 0.42257 0.98501 0.93995 0.0
C253 C 0.37719 0.98455 0.9312 0.0
C254 C 0.38779 0.08193 0.97272 0.0
C255 C 0.46615 0.9519 0.93451 0.0
C256 C 0.76757 0.21923 0.96193 0.0
C257 C 0.77357 0.17065 0.95186 0.0
C258 C 0.68952 0.13522 0.94794 0.0
C259 C 0.64853 0.16018 0.95517 0.0
C260 C 0.6063 0.13211 0.96113 0.0
C261 C 0.60484 0.07804 0.95941 0.0
C262 C 0.64561 0.05302 0.95152 0.0
C263 C 0.6878 0.08202 0.94598 0.0
C264 C 0.56368 0.16011 0.96948 0.0
C265 C 0.64484 0.99566 0.94909 0.0
C266 C 0.57357 0.94487 0.02611 0.0
C267 C 0.53031 0.91936 0.03219 0.0
C268 C 0.48482 0.9182 0.02376 0.0
C269 C 0.48281 0.94024 0.00833 0.0
C270 C 0.43871 0.93611 0.99904 0.0
C271 C 0.43611 0.96007 0.98418 0.0
C272 C 0.47724 0.98975 0.97814 0.0
C273 C 0.47403 0.01627 0.96337 0.0
C274 C 0.51622 0.04451 0.95761 0.0
C275 C 0.56149 0.04752 0.96627 0.0
C276 C 0.56491 0.02213 0.98122 0.0
C277 C 0.60925 0.02555 0.9905 0.0
C278 C 0.6123 0.00029 0.00518 0.0
C279 C 0.57111 0.97075 0.01118 0.0
C280 C 0.52571 0.96766 0.00216 0.0
C281 C 0.5227 0.99304 0.98713 0.0
C282 C 0.22432 0.95157 0.9323 0.0
C283 C 0.24224 0.00776 0.93322 0.0
O284 O 0.74569 0.92465 0.06579 0.0
O285 O 0.73062 0.16265 0.94269 0.0
O286 O 0.29195 0.01057 0.9273 0.0
O287 O 0.30792 0.85173 0.05747 0.0
H288 H 0.71827 0.93355 0.08867 0.0
H289 H 0.73897 0.02153 0.0775 0.0
H290 H 0.80445 0.00433 0.07483 0.0
H291 H 0.77679 0.00817 0.0947 0.0
H292 H 0.73488 0.88321 0.03833 0.0
H293 H 0.66291 0.98166 0.07258 0.0
H294 H 0.623 0.86087 0.01493 0.0
H295 H 0.6908 0.85129 0.01599 0.0
H296 H 0.66633 0.90658 0.00589 0.0
H297 H 0.59184 0.0318 0.06553 0.0
H298 H 0.5471 0.98143 0.06083 0.0
H299 H 0.56538 0.02763 0.04573 0.0
H300 H 0.32674 0.7837 0.068 0.0
H301 H 0.25757 0.7333 0.05436 0.0
H302 H 0.29802 0.76533 0.03989 0.0
H303 H 0.23637 0.79098 0.04452 0.0
H304 H 0.33196 0.94466 0.05115 0.0
H305 H 0.3811 0.78913 0.04597 0.0
H306 H 0.4047 0.00384 0.02399 0.0
H307 H 0.45172 0.00326 0.03938 0.0
H308 H 0.38586 0.01484 0.04444 0.0
H309 H 0.45115 0.76719 0.02968 0.0
H310 H 0.50266 0.80916 0.03553 0.0
H311 H 0.47647 0.81507 0.01592 0.0
H312 H 0.24053 0.01835 0.94608 0.0
H313 H 0.30736 0.06741 0.95348 0.0
H314 H 0.37402 0.96116 0.92055 0.0
H315 H 0.3869 0.05888 0.98391 0.0
H316 H 0.35565 0.10921 0.97317 0.0
H317 H 0.42418 0.10418 0.97238 0.0
H318 H 0.45531 0.92609 0.92453 0.0
H319 H 0.47965 0.92819 0.94464 0.0
H320 H 0.49849 0.97676 0.93043 0.0
H321 H 0.77815 0.13755 0.96021 0.0
H322 H 0.80173 0.22533 0.96941 0.0
H323 H 0.73409 0.21516 0.9701 0.0
H324 H 0.76226 0.2534 0.95416 0.0
H325 H 0.65009 0.20157 0.95637 0.0
H326 H 0.71964 0.06336 0.94016 0.0
H327 H 0.55674 0.14336 0.98157 0.0
H328 H 0.52804 0.15529 0.96261 0.0
H329 H 0.57211 0.20181 0.97073 0.0
H330 H 0.67632 0.98296 0.94109 0.0
H331 H 0.60795 0.98318 0.94392 0.0
H332 H 0.64855 0.97608 0.96083 0.0
H333 H 0.5316 0.90142 0.04392 0.0
H334 H 0.40569 0.91426 0.00319 0.0
H335 H 0.40117 0.95548 0.97757 0.0
H336 H 0.51372 0.06467 0.94627 0.0
H337 H 0.64213 0.04793 0.98654 0.0
H338 H 0.64721 0.00448 0.01183 0.0
H339 H 0.18738 0.94595 0.93875 0.0
H340 H 0.25248 0.92649 0.93817 0.0
H341 H 0.22068 0.93933 0.91964 0.0
C342 C 0.08753 0.04668 0.17978 0.0
C343 C 0.13244 0.01419 0.18513 0.0
C344 C 0.16185 0.06466 0.20754 0.0
C345 C 0.20967 0.08299 0.20226 0.0
C346 C 0.23069 0.12848 0.20848 0.0
C347 C 0.20304 0.1564 0.22013 0.0
C348 C 0.15478 0.13777 0.22551 0.0
C349 C 0.13518 0.09161 0.2193 0.0
C350 C 0.2826 0.14654 0.2027 0.0
C351 C 0.12392 0.16668 0.23778 0.0
C352 C 0.31418 0.52596 0.1816 0.0
C353 C 0.25861 0.50772 0.18005 0.0
C354 C 0.23795 0.44185 0.20038 0.0
C355 C 0.20228 0.43019 0.21243 0.0
C356 C 0.19997 0.38141 0.21957 0.0
C357 C 0.23591 0.34405 0.21497 0.0
C358 C 0.271 0.35496 0.20236 0.0
C359 C 0.27128 0.40363 0.19505 0.0
C360 C 0.16059 0.37068 0.23251 0.0
C361 C 0.30951 0.31589 0.19702 0.0
C362 C 0.36963 0.44254 0.30787 0.0
C363 C 0.31901 0.42435 0.30721 0.0
C364 C 0.3074 0.37636 0.30044 0.0
C365 C 0.34692 0.34647 0.29371 0.0
C366 C 0.39788 0.36458 0.29439 0.0
C367 C 0.40851 0.41213 0.30158 0.0
C368 C 0.25264 0.35788 0.30034 0.0
C369 C 0.44098 0.33429 0.28719 0.0
C370 C 0.3413 0.94455 0.2925 0.0
C371 C 0.37957 0.9645 0.30475 0.0
C372 C 0.35623 0.05568 0.30675 0.0
C373 C 0.31891 0.08705 0.31347 0.0
C374 C 0.31023 0.13646 0.30739 0.0
C375 C 0.34082 0.15541 0.29457 0.0
C376 C 0.38103 0.12522 0.28845 0.0
C377 C 0.38788 0.07541 0.29443 0.0
C378 C 0.26717 0.16758 0.31426 0.0
C379 C 0.41593 0.14499 0.27523 0.0
C380 C 0.22534 0.20408 0.22708 0.0
C381 C 0.22064 0.25025 0.21862 0.0
C382 C 0.24078 0.29629 0.22458 0.0
C383 C 0.26552 0.29671 0.23954 0.0
C384 C 0.2858 0.34236 0.24599 0.0
C385 C 0.3082 0.34279 0.26097 0.0
C386 C 0.3126 0.29734 0.26992 0.0
C387 C 0.33436 0.29757 0.28534 0.0
C388 C 0.34262 0.25093 0.29323 0.0
C389 C 0.32776 0.20416 0.28638 0.0
C390 C 0.30186 0.20384 0.27164 0.0
C391 C 0.28279 0.15792 0.26503 0.0
C392 C 0.25775 0.15789 0.25048 0.0
C393 C 0.25097 0.20371 0.24188 0.0
C394 C 0.27042 0.25031 0.24822 0.0
C395 C 0.295 0.25049 0.26327 0.0
C396 C 0.33709 0.55895 0.30388 0.0
C397 C 0.35143 0.52875 0.31899 0.0
O398 O 0.14057 0.02139 0.20134 0.0
O399 O 0.36034 0.0071 0.31259 0.0
O400 O 0.38294 0.48883 0.31428 0.0
O401 O 0.24022 0.49086 0.19479 0.0
H402 H 0.16676 0.02719 0.1782 0.0
H403 H 0.09571 0.08798 0.18196 0.0
H404 H 0.05237 0.03558 0.18653 0.0
H405 H 0.08115 0.04178 0.16676 0.0
H406 H 0.2309 0.06136 0.19344 0.0
H407 H 0.09831 0.07698 0.22332 0.0
H408 H 0.27907 0.18386 0.19639 0.0
H409 H 0.30069 0.11876 0.19441 0.0
H410 H 0.30802 0.15277 0.21305 0.0
H411 H 0.0851 0.14988 0.23952 0.0
H412 H 0.12048 0.20747 0.23408 0.0
H413 H 0.14374 0.16606 0.24943 0.0
H414 H 0.25793 0.47592 0.17118 0.0
H415 H 0.32865 0.54173 0.17 0.0
H416 H 0.33868 0.49336 0.18492 0.0
H417 H 0.31771 0.55553 0.19107 0.0
H418 H 0.17636 0.45979 0.21635 0.0
H419 H 0.2989 0.41207 0.18566 0.0
H420 H 0.14422 0.33139 0.23125 0.0
H421 H 0.12918 0.39881 0.23223 0.0
H422 H 0.17887 0.3731 0.24438 0.0
H423 H 0.33566 0.33105 0.18751 0.0
H424 H 0.28935 0.28146 0.19236 0.0
H425 H 0.33251 0.30346 0.20736 0.0
H426 H 0.31626 0.51345 0.32488 0.0
H427 H 0.28817 0.44708 0.31191 0.0
H428 H 0.44741 0.42638 0.302 0.0
H429 H 0.23773 0.36072 0.28801 0.0
H430 H 0.22794 0.38094 0.30837 0.0
H431 H 0.24986 0.31698 0.3041 0.0
H432 H 0.47807 0.35501 0.28796 0.0
H433 H 0.43314 0.32594 0.27443 0.0
H434 H 0.44409 0.29699 0.29354 0.0
H435 H 0.41561 0.97488 0.29836 0.0
H436 H 0.35627 0.90987 0.28644 0.0
H437 H 0.33484 0.97437 0.28324 0.0
H438 H 0.30421 0.93475 0.29837 0.0
H439 H 0.29521 0.07186 0.32314 0.0
H440 H 0.41807 0.05256 0.28939 0.0
H441 H 0.24025 0.17769 0.30464 0.0
H442 H 0.28252 0.20402 0.31922 0.0
H443 H 0.24585 0.14669 0.32389 0.0
H444 H 0.45085 0.12162 0.27401 0.0
H445 H 0.42732 0.18552 0.27747 0.0
H446 H 0.39548 0.14372 0.2637 0.0
H447 H 0.20124 0.25033 0.20724 0.0
H448 H 0.28414 0.37855 0.23964 0.0
H449 H 0.32247 0.37919 0.26538 0.0
H450 H 0.36079 0.25103 0.30481 0.0
H451 H 0.28658 0.12143 0.27111 0.0
H452 H 0.24389 0.12137 0.24604 0.0
H453 H 0.36876 0.58508 0.3 0.0
H454 H 0.30173 0.58094 0.3059 0.0
H455 H 0.32892 0.53226 0.29388 0.0
C456 C 0.53543 0.45066 0.32771 0.0
C457 C 0.58927 0.46981 0.32316 0.0
C458 C 0.6218 0.41801 0.30147 0.0
C459 C 0.66969 0.40351 0.30702 0.0
C460 C 0.69347 0.35926 0.30117 0.0
C461 C 0.6686 0.32871 0.28958 0.0
C462 C 0.61985 0.34296 0.28414 0.0
C463 C 0.59756 0.38811 0.28993 0.0
C464 C 0.74564 0.34575 0.30711 0.0
C465 C 0.5917 0.31095 0.27202 0.0
C466 C 0.77459 0.96168 0.32695 0.0
C467 C 0.72132 0.98384 0.32976 0.0
C468 C 0.7077 0.04798 0.30829 0.0
C469 C 0.67678 0.05929 0.29529 0.0
C470 C 0.67986 0.10712 0.28746 0.0
C471 C 0.71578 0.14451 0.29254 0.0
C472 C 0.74735 0.13342 0.30569 0.0
C473 C 0.74291 0.08542 0.31348 0.0
C474 C 0.64471 0.11757 0.27372 0.0
C475 C 0.78621 0.17215 0.31141 0.0
C476 C 0.88904 0.08289 0.20078 0.0
C477 C 0.83608 0.08726 0.20128 0.0
C478 C 0.81315 0.13019 0.2083 0.0
C479 C 0.84414 0.16878 0.21532 0.0
C480 C 0.89787 0.16461 0.21458 0.0
C481 C 0.91971 0.12189 0.20709 0.0
C482 C 0.75583 0.13396 0.20833 0.0
C483 C 0.93213 0.20477 0.22194 0.0
C484 C 0.70112 0.54033 0.1836 0.0
C485 C 0.75569 0.52715 0.18807 0.0
C486 C 0.77421 0.43665 0.1917 0.0
C487 C 0.74596 0.39199 0.18877 0.0
C488 C 0.75121 0.34813 0.19841 0.0
C489 C 0.78723 0.34841 0.2109 0.0
C490 C 0.81769 0.39297 0.21342 0.0
C491 C 0.81024 0.43695 0.20393 0.0
C492 C 0.71788 0.30166 0.19528 0.0
C493 C 0.85807 0.39415 0.22609 0.0
C494 C 0.6955 0.28459 0.28217 0.0
C495 C 0.69528 0.2373 0.29024 0.0
C496 C 0.72055 0.19474 0.28388 0.0
C497 C 0.74749 0.19977 0.26912 0.0
C498 C 0.77483 0.15863 0.26258 0.0
C499 C 0.79955 0.1633 0.24778 0.0
C500 C 0.7975 0.20911 0.23884 0.0
C501 C 0.82021 0.21332 0.22341 0.0
C502 C 0.81774 0.25964 0.21494 0.0
C503 C 0.79247 0.30207 0.22128 0.0
C504 C 0.76946 0.29842 0.23669 0.0
C505 C 0.7436 0.34006 0.24347 0.0
C506 C 0.72063 0.33603 0.25852 0.0
C507 C 0.72091 0.28958 0.26718 0.0
C508 C 0.74687 0.24706 0.26063 0.0
C509 C 0.77167 0.25167 0.24543 0.0
C510 C 0.95797 -0.00208 0.21483 0.0
C511 C 0.91377 0.99486 0.20307 0.0
O512 O 0.59848 0.46072 0.30706 0.0
O513 O 0.76682 0.47857 0.18234 0.0
O514 O 0.91073 0.04041 0.19455 0.0
O515 O 0.70262 0.00049 0.31516 0.0
H516 H 0.61511 0.44667 0.33069 0.0
H517 H 0.53306 0.40828 0.32637 0.0
H518 H 0.50643 0.46772 0.31984 0.0
H519 H 0.52631 0.46026 0.34036 0.0
H520 H 0.68892 0.42739 0.3157 0.0
H521 H 0.56075 0.39991 0.28565 0.0
H522 H 0.744 0.3075 0.31301 0.0
H523 H 0.76052 0.37429 0.31578 0.0
H524 H 0.77281 0.34329 0.29685 0.0
H525 H 0.5517 0.32334 0.2706 0.0
H526 H 0.59171 0.26986 0.27561 0.0
H527 H 0.61135 0.31421 0.26022 0.0
H528 H 0.72472 0.01667 0.33816 0.0
H529 H 0.79369 0.95483 0.33853 0.0
H530 H 0.79886 0.98923 0.32001 0.0
H531 H 0.77212 0.92531 0.32009 0.0
H532 H 0.64972 0.03038 0.29134 0.0
H533 H 0.76762 0.07728 0.3234 0.0
H534 H 0.62542 0.15484 0.27548 0.0
H535 H 0.61525 0.08692 0.27238 0.0
H536 H 0.66727 0.12034 0.26242 0.0
H537 H 0.81014 0.1567 0.32113 0.0
H538 H 0.76643 0.20672 0.3159 0.0
H539 H 0.81137 0.18449 0.30128 0.0
H540 H 0.87783 0.98885 0.21014 0.0
H541 H 0.81284 0.05688 0.19621 0.0
H542 H 0.96075 0.11799 0.20653 0.0
H543 H 0.74078 0.12734 0.22064 0.0
H544 H 0.73794 0.10522 0.20029 0.0
H545 H 0.74421 0.17293 0.20453 0.0
H546 H 0.97286 0.1937 0.22154 0.0
H547 H 0.92057 0.21128 0.2346 0.0
H548 H 0.92811 0.24168 0.21543 0.0
H549 H 0.75739 0.52735 0.20138 0.0
H550 H 0.69111 0.57885 0.18825 0.0
H551 H 0.67421 0.5116 0.18896 0.0
H552 H 0.69661 0.54008 0.1704 0.0
H553 H 0.71868 0.39208 0.17915 0.0
H554 H 0.83297 0.47134 0.20588 0.0
H555 H 0.6998 0.28772 0.2066 0.0
H556 H 0.74166 0.27023 0.19046 0.0
H557 H 0.68751 0.30986 0.18654 0.0
H558 H 0.88355 0.4284 0.2249 0.0
H559 H 0.88152 0.35904 0.22542 0.0
H560 H 0.83963 0.39488 0.23811 0.0
H561 H 0.67475 0.23345 0.30155 0.0
H562 H 0.77727 0.12225 0.2688 0.0
H563 H 0.81986 0.13026 0.24334 0.0
H564 H 0.83451 0.26225 0.20302 0.0
H565 H 0.74085 0.3764 0.23725 0.0
H566 H 0.70187 0.36972 0.26312 0.0
H567 H 0.96108 0.96133 0.22159 0.0
H568 H 0.95134 0.02894 0.22365 0.0
H569 H -0.00563 0.00614 0.20836 0.0
C570 C 0.64859 0.55268 0.67239 0.0
C571 C 0.69598 0.52039 0.67588 0.0
C572 C 0.71631 0.5654 0.70026 0.0
C573 C 0.76249 0.59165 0.69785 0.0
C574 C 0.77274 0.63743 0.70605 0.0
C575 C 0.73527 0.65768 0.71654 0.0
C576 C 0.68836 0.63114 0.71889 0.0
C577 C 0.6799 0.58455 0.71092 0.0
C578 C 0.82348 0.66427 0.70343 0.0
C579 C 0.64711 0.65225 0.72963 0.0
C580 C 0.76537 0.05115 0.69252 0.0
C581 C 0.71111 0.02885 0.69325 0.0
C582 C 0.71973 0.93661 0.69536 0.0
C583 C 0.69051 0.9238 0.70898 0.0
C584 C 0.70045 0.87917 0.71783 0.0
C585 C 0.74124 0.84719 0.71311 0.0
C586 C 0.77033 0.85987 0.6992 0.0
C587 C 0.75856 0.90404 0.69035 0.0
C588 C 0.66704 0.86612 0.73215 0.0
C589 C 0.81388 0.82692 0.69364 0.0
C590 C 0.91488 0.94782 0.79873 0.0
C591 C 0.86537 0.93408 0.80386 0.0
C592 C 0.84303 0.88761 0.79907 0.0
C593 C 0.87133 0.85387 0.7893 0.0
C594 C 0.92242 0.86605 0.78505 0.0
C595 C 0.9436 0.91305 0.78988 0.0
C596 C 0.789 0.87492 0.80422 0.0
C597 C 0.95411 0.83003 0.77508 0.0
C598 C 0.7539 0.50833 0.84408 0.0
C599 C 0.80473 0.51789 0.83532 0.0
C600 C 0.81994 0.60233 0.82451 0.0
C601 C 0.78135 0.63833 0.82336 0.0
C602 C 0.78117 0.67387 0.81072 0.0
C603 C 0.8214 0.67403 0.79923 0.0
C604 C 0.86039 0.63718 0.80034 0.0
C605 C 0.85889 0.60126 0.81294 0.0
C606 C 0.73875 0.71227 0.80992 0.0
C607 C 0.90426 0.63682 0.78851 0.0
C608 C 0.74539 0.70694 0.72481 0.0
C609 C 0.73797 0.75248 0.71627 0.0
C610 C 0.75256 0.80007 0.72254 0.0
C611 C 0.77678 0.80208 0.73757 0.0
C612 C 0.79651 0.8484 0.74362 0.0
C613 C 0.82011 0.84993 0.75843 0.0
C614 C 0.82383 0.8054 0.76791 0.0
C615 C 0.84702 0.80665 0.78306 0.0
C616 C 0.84699 0.76277 0.79266 0.0
C617 C 0.82547 0.71663 0.7874 0.0
C618 C 0.80557 0.71346 0.77176 0.0
C619 C 0.78737 0.66683 0.76551 0.0
C620 C 0.76885 0.66425 0.74998 0.0
C621 C 0.76505 0.70877 0.74047 0.0
C622 C 0.78172 0.75644 0.74673 0.0
C623 C 0.80382 0.75839 0.76213 0.0
C624 C 0.93169 0.07992 0.7923 0.0
C625 C 0.90959 0.03968 0.80391 0.0
O626 O 0.70598 0.52178 0.69213 0.0
O627 O 0.81942 0.56877 0.83691 0.0
O628 O 0.9359 0.99439 0.8019 0.0
O629 O 0.71068 0.97987 0.68679 0.0
H630 H 0.7293 0.53651 0.66909 0.0
H631 H 0.65575 0.5935 0.67552 0.0
H632 H 0.61532 0.53819 0.67951 0.0
H633 H 0.63874 0.55181 0.65953 0.0
H634 H 0.79047 0.57607 0.68962 0.0
H635 H 0.64424 0.56364 0.7126 0.0
H636 H 0.81757 0.70148 0.69728 0.0
H637 H 0.85013 0.64114 0.69607 0.0
H638 H 0.84144 0.67262 0.71511 0.0
H639 H 0.61136 0.62901 0.72917 0.0
H640 H 0.6387 0.69237 0.72612 0.0
H641 H 0.66042 0.653 0.74218 0.0
H642 H 0.69939 0.02716 0.7061 0.0
H643 H 0.76627 0.09047 0.69763 0.0
H644 H 0.77991 0.05278 0.67998 0.0
H645 H 0.79113 0.02673 0.69962 0.0
H646 H 0.6594 0.94835 0.71253 0.0
H647 H 0.78048 0.91404 0.67968 0.0
H648 H 0.65517 0.82505 0.73189 0.0
H649 H 0.63239 0.8901 0.7327 0.0
H650 H 0.68883 0.87248 0.74327 0.0
H651 H 0.83852 0.84695 0.68462 0.0
H652 H 0.79826 0.7915 0.68812 0.0
H653 H 0.83767 0.81536 0.7039 0.0
H654 H 0.86891 0.03467 0.80063 0.0
H655 H 0.84394 0.95965 0.8115 0.0
H656 H 0.98221 0.92361 0.78632 0.0
H657 H 0.76546 0.8663 0.79359 0.0
H658 H 0.77113 0.90669 0.811 0.0
H659 H 0.78875 0.84009 0.8119 0.0
H660 H -0.00568 0.84346 0.77379 0.0
H661 H 0.9375 0.82656 0.76297 0.0
H662 H 0.9535 0.79114 0.78058 0.0
H663 H 0.79789 0.50903 0.82246 0.0
H664 H 0.74221 0.46732 0.84306 0.0
H665 H 0.72395 0.53215 0.8386 0.0
H666 H 0.75645 0.51852 0.85693 0.0
H667 H 0.75136 0.63844 0.8324 0.0
H668 H 0.88856 0.57298 0.81402 0.0
H669 H 0.72389 0.71468 0.79757 0.0
H670 H 0.75383 0.75079 0.81314 0.0
H671 H 0.70676 0.70233 0.81825 0.0
H672 H 0.93113 0.60519 0.79088 0.0
H673 H 0.92542 0.67396 0.78903 0.0
H674 H 0.88959 0.63267 0.77618 0.0
H675 H 0.72115 0.75076 0.70449 0.0
H676 H 0.79441 0.88389 0.7369 0.0
H677 H 0.83484 0.88664 0.76244 0.0
H678 H 0.86318 0.7648 0.80453 0.0
H679 H 0.78833 0.63167 0.77245 0.0
H680 H 0.75655 0.62708 0.74563 0.0
H681 H 0.97281 0.0866 0.79451 0.0
H682 H 0.91131 0.1168 0.79361 0.0
H683 H 0.92731 0.06643 0.77979 0.0
C684 C 0.70897 0.60391 0.09794 0.0
C685 C 0.74971 0.57989 0.08703 0.0
C686 C 0.69485 0.57437 0.06334 0.0
C687 C 0.66479 0.53151 0.06773 0.0
C688 C 0.61975 0.51973 0.0595 0.0
C689 C 0.60427 0.55189 0.04679 0.0
C690 C 0.63461 0.59525 0.04243 0.0
C691 C 0.68006 0.60515 0.05056 0.0
C692 C 0.58867 0.47305 0.06446 0.0
C693 C 0.61895 0.63155 0.02931 0.0
C694 C 0.2181 0.50407 0.06665 0.0
C695 C 0.24134 0.54658 0.07708 0.0
C696 C 0.31916 0.57146 0.06173 0.0
C697 C 0.34205 0.61018 0.05236 0.0
C698 C 0.38999 0.60339 0.04501 0.0
C699 C 0.41537 0.55618 0.04689 0.0
C700 C 0.39323 0.51742 0.05677 0.0
C701 C 0.34571 0.52559 0.0642 0.0
C702 C 0.41295 0.64622 0.03496 0.0
C703 C 0.41937 0.46678 0.0592 0.0
C704 C 0.31778 0.47702 0.95116 0.0
C705 C 0.35371 0.51669 0.94847 0.0
C706 C 0.40238 0.51451 0.95523 0.0
C707 C 0.41565 0.47142 0.9646 0.0
C708 C 0.38052 0.43015 0.96653 0.0
C709 C 0.33178 0.43389 0.95997 0.0
C710 C 0.43884 0.5593 0.95297 0.0
C711 C 0.39363 0.38318 0.97617 0.0
C712 C 0.80295 0.43596 0.96219 0.0
C713 C 0.78258 0.38879 0.95325 0.0
C714 C 0.69431 0.41407 0.95121 0.0
C715 C 0.67206 0.46086 0.94737 0.0
C716 C 0.62686 0.4766 0.95501 0.0
C717 C 0.60252 0.4439 0.96645 0.0
C718 C 0.62361 0.39524 0.96974 0.0
C719 C 0.66952 0.38108 0.9622 0.0
C720 C 0.60555 0.5285 0.95101 0.0
C721 C 0.59782 0.35826 0.9813 0.0
C722 C 0.55625 0.5407 0.03811 0.0
C723 C 0.50997 0.553 0.04562 0.0
C724 C 0.46353 0.54589 0.03786 0.0
C725 C 0.46323 0.52733 0.02196 0.0
C726 C 0.41754 0.52176 0.01354 0.0
C727 C 0.41756 0.5045 0.99783 0.0
C728 C 0.46311 0.49047 0.99003 0.0
C729 C 0.46325 0.47272 0.97405 0.0
C730 C 0.50896 0.45755 0.96679 0.0
C731 C 0.5552 0.46064 0.97495 0.0
C732 C 0.55586 0.48002 0.99081 0.0
C733 C 0.60157 0.48552 0.99927 0.0
C734 C 0.60178 0.50488 0.01479 0.0
C735 C 0.55633 0.51985 0.02247 0.0
C736 C 0.50973 0.51394 0.01428 0.0
C737 C 0.50957 0.49462 0.99838 0.0
C738 C 0.2295 0.56028 0.94164 0.0
C739 C 0.24933 0.51049 0.93419 0.0
O740 O 0.73842 0.5874 0.07102 0.0
O741 O 0.74016 0.40218 0.94446 0.0
O742 O 0.26884 0.47945 0.94609 0.0
O743 O 0.27153 0.57982 0.06786 0.0
H744 H 0.75158 0.53798 0.08951 0.0
H745 H 0.6716 0.58422 0.0965 0.0
H746 H 0.70457 0.64527 0.09503 0.0
H747 H 0.71973 0.60014 0.1107 0.0
H748 H 0.67657 0.50703 0.07746 0.0
H749 H 0.70374 0.63802 0.04725 0.0
H750 H 0.5532 0.48559 0.07056 0.0
H751 H 0.60962 0.44783 0.07278 0.0
H752 H 0.57758 0.45041 0.05379 0.0
H753 H 0.64175 0.6678 0.02933 0.0
H754 H 0.578 0.64108 0.03059 0.0
H755 H 0.62446 0.61286 0.01752 0.0
H756 H 0.26514 0.52822 0.08632 0.0
H757 H 0.19159 0.47956 0.07392 0.0
H758 H 0.24816 0.47905 0.06166 0.0
H759 H 0.19701 0.52063 0.05646 0.0
H760 H 0.32183 0.64575 0.05065 0.0
H761 H 0.32946 0.49551 0.07169 0.0
H762 H 0.45288 0.65392 0.03858 0.0
H763 H 0.39105 0.68228 0.03601 0.0
H764 H 0.41383 0.63448 0.0222 0.0
H765 H 0.39666 0.43996 0.06691 0.0
H766 H 0.45694 0.47353 0.06481 0.0
H767 H 0.42637 0.44822 0.04745 0.0
H768 H 0.27954 0.52101 0.92525 0.0
H769 H 0.34354 0.55029 0.94166 0.0
H770 H 0.30395 0.40328 0.9619 0.0
H771 H 0.44757 0.57653 0.96477 0.0
H772 H 0.42327 0.58955 0.94508 0.0
H773 H 0.47521 0.54574 0.94768 0.0
H774 H 0.36531 0.35156 0.97463 0.0
H775 H 0.39483 0.39332 0.98905 0.0
H776 H 0.43194 0.36925 0.97264 0.0
H777 H 0.77133 0.35899 0.96222 0.0
H778 H 0.83705 0.42598 0.96924 0.0
H779 H 0.77352 0.45037 0.97065 0.0
H780 H 0.81337 0.46718 0.9536 0.0
H781 H 0.69122 0.48588 0.93875 0.0
H782 H 0.68578 0.34404 0.96481 0.0
H783 H 0.59712 0.55013 0.96214 0.0
H784 H 0.56923 0.52325 0.94453 0.0
H785 H 0.63207 0.5518 0.94337 0.0
H786 H 0.61519 0.31962 0.98096 0.0
H787 H 0.55668 0.35437 0.97855 0.0
H788 H 0.60086 0.37341 0.99365 0.0
H789 H 0.51009 0.56828 0.05768 0.0
H790 H 0.38117 0.53136 0.01891 0.0
H791 H 0.38115 0.502 0.99195 0.0
H792 H 0.50858 0.44353 0.95458 0.0
H793 H 0.63779 0.4751 0.99395 0.0
H794 H 0.63812 0.50801 0.02071 0.0
H795 H 0.20066 0.5517 0.95116 0.0
H796 H 0.21268 0.58508 0.93231 0.0
H797 H 0.26121 0.58214 0.94718 0.0
C798 C 0.7725 0.72596 0.47696 0.0
C799 C 0.78154 0.6971 0.46116 0.0
C800 C 0.84553 0.63051 0.4657 0.0
C801 C 0.85473 0.5786 0.46298 0.0
C802 C 0.90269 0.55754 0.46579 0.0
C803 C 0.94157 0.58873 0.47244 0.0
C804 C 0.93333 0.64196 0.4745 0.0
C805 C 0.88566 0.66248 0.4708 0.0
C806 C 0.91071 0.50136 0.46238 0.0
C807 C 0.97408 0.67688 0.48124 0.0
C808 C 0.34539 0.63813 0.43466 0.0
C809 C 0.30481 0.62924 0.44718 0.0
C810 C 0.22102 0.58721 0.45135 0.0
C811 C 0.2077 0.61402 0.46539 0.0
C812 C 0.1616 0.6034 0.47364 0.0
C813 C 0.12873 0.56373 0.46821 0.0
C814 C 0.14229 0.53622 0.45424 0.0
C815 C 0.18787 0.54872 0.44593 0.0
C816 C 0.14781 0.63508 0.48812 0.0
C817 C 0.10856 0.49358 0.44805 0.0
C818 C 0.2164 0.41214 0.55766 0.0
C819 C 0.19129 0.4588 0.56024 0.0
C820 C 0.14338 0.46769 0.55362 0.0
C821 C 0.1198 0.42915 0.54427 0.0
C822 C 0.14394 0.38145 0.54215 0.0
C823 C 0.19205 0.37365 0.54885 0.0
C824 C 0.11864 0.51906 0.55618 0.0
C825 C 0.11967 0.3395 0.53234 0.0
C826 C 0.75337 0.4797 0.579 0.0
C827 C 0.75091 0.42676 0.57106 0.0
C828 C 0.83957 0.41539 0.56293 0.0
C829 C 0.87212 0.45527 0.56777 0.0
C830 C 0.91719 0.46719 0.55915 0.0
C831 C 0.93098 0.43739 0.54565 0.0
C832 C 0.8987 0.3961 0.541 0.0
C833 C 0.85332 0.38571 0.54969 0.0
C834 C 0.95048 0.51118 0.56464 0.0
C835 C 0.91261 0.36239 0.52702 0.0
C836 C 0.98796 0.56471 0.47904 0.0
C837 C 0.0347 0.57196 0.47098 0.0
C838 C 0.07984 0.55179 0.47699 0.0
C839 C 0.07803 0.52259 0.49137 0.0
C840 C 0.12228 0.50155 0.49784 0.0
C841 C 0.12048 0.47472 0.51228 0.0
C842 C 0.07413 0.46674 0.52067 0.0
C843 C 0.07231 0.44106 0.53562 0.0
C844 C 0.02531 0.43116 0.54324 0.0
C845 C 0.97973 0.44852 0.53671 0.0
C846 C 0.98147 0.47752 0.5223 0.0
C847 C 0.93742 0.49952 0.51607 0.0
C848 C 0.93964 0.52879 0.50211 0.0
C849 C 0.98573 0.53597 0.49347 0.0
C850 C 0.03078 0.51452 0.49958 0.0
C851 C 0.02872 0.48584 0.51412 0.0
C852 C 0.32074 0.476 0.56094 0.0
C853 C 0.29519 0.43542 0.57189 0.0
O854 O 0.79712 0.64733 0.46393 0.0
O855 O 0.79758 0.40228 0.57184 0.0
O856 O 0.26411 0.40286 0.56311 0.0
O857 O 0.26451 0.59752 0.44263 0.0
H858 H 0.81186 0.7187 0.4544 0.0
H859 H 0.80895 0.74093 0.48173 0.0
H860 H 0.75529 0.70038 0.48627 0.0
H861 H 0.74756 0.75951 0.47506 0.0
H862 H 0.8239 0.55433 0.45876 0.0
H863 H 0.87964 0.70298 0.47255 0.0
H864 H 0.95025 0.49443 0.45811 0.0
H865 H 0.88369 0.48687 0.45327 0.0
H866 H 0.90414 0.47881 0.47353 0.0
H867 H 0.96035 0.71652 0.48323 0.0
H868 H 0.00715 0.67877 0.47284 0.0
H869 H 0.98773 0.66129 0.49278 0.0
H870 H 0.29227 0.66545 0.45296 0.0
H871 H 0.34382 0.68026 0.43169 0.0
H872 H 0.32873 0.62518 0.42297 0.0
H873 H 0.40959 0.60465 0.44462 0.0
H874 H 0.23251 0.64375 0.46997 0.0
H875 H 0.19807 0.52808 0.43514 0.0
H876 H 0.14944 0.61081 0.49904 0.0
H877 H 0.10826 0.64926 0.48714 0.0
H878 H 0.17394 0.66855 0.48964 0.0
H879 H 0.12659 0.47266 0.43795 0.0
H880 H 0.07214 0.50985 0.4439 0.0
H881 H 0.09929 0.46583 0.45782 0.0
H882 H 0.27202 0.4559 0.58099 0.0
H883 H 0.20898 0.48902 0.56713 0.0
H884 H 0.21138 0.33763 0.54699 0.0
H885 H 0.11657 0.53976 0.54457 0.0
H886 H 0.13992 0.54354 0.56473 0.0
H887 H 0.07907 0.51345 0.56076 0.0
H888 H 0.14195 0.30356 0.53253 0.0
H889 H 0.11634 0.35267 0.51975 0.0
H890 H 0.08054 0.33109 0.53694 0.0
H891 H 0.74121 0.43223 0.55823 0.0
H892 H 0.71488 0.49689 0.57957 0.0
H893 H 0.77827 0.50617 0.57188 0.0
H894 H 0.76836 0.4766 0.59133 0.0
H895 H 0.86261 0.4767 0.57845 0.0
H896 H 0.82868 0.35397 0.5463 0.0
H897 H 0.9616 0.53619 0.55435 0.0
H898 H 0.98589 0.49572 0.5698 0.0
H899 H 0.93122 0.53488 0.57388 0.0
H900 H 0.88539 0.32974 0.5256 0.0
H901 H 0.95146 0.34696 0.52862 0.0
H902 H 0.91318 0.38555 0.51584 0.0
H903 H 0.03607 0.59431 0.46 0.0
H904 H 0.15897 0.50613 0.4919 0.0
H905 H 0.15598 0.46008 0.51676 0.0
H906 H 0.02437 0.411 0.55462 0.0
H907 H 0.9008 0.49505 0.52206 0.0
H908 H 0.90447 0.54562 0.4982 0.0
H909 H 0.34878 0.4992 0.56778 0.0
H910 H 0.29196 0.50251 0.55613 0.0
H911 H 0.34045 0.45788 0.55063 0.0
Fe912 Fe 0.01043 0.71249 0.17248 0.0
O913 O 0.01355 0.70895 0.14897 0.0
Fe914 Fe 0.95517 0.74434 0.1362 0.0
Fe915 Fe 0.07276 0.73615 0.13607 0.0
O916 O 0.00844 0.7091 0.14893 0.0
O917 O 0.01454 0.77156 0.12336 0.0
O918 O 0.0194 0.77024 0.12321 0.0
Fe919 Fe 0.01837 0.7693 0.09988 0.0
C920 C 0.07963 0.80529 0.16481 0.0
O921 O 0.06744 0.65909 0.17022 0.0
O922 O 0.12138 0.69647 0.15136 0.0
O923 O 0.95777 0.71914 0.09783 0.0
O924 O 0.94782 0.68126 0.12154 0.0
O925 O 0.90041 0.70781 0.15149 0.0
O926 O 0.94853 0.66413 0.17013 0.0
O927 O 0.07216 0.67177 0.1218 0.0
O928 O 0.06875 0.70949 0.0979 0.0
C929 C 0.90645 0.67294 0.16262 0.0
O930 O 0.9632 0.82422 0.10249 0.0
O931 O 0.9074 0.78677 0.12089 0.0
O932 O 0.06731 0.7686 0.17431 0.0
O933 O 0.07684 0.80081 0.14973 0.0
C934 C 0.11037 0.66256 0.16239 0.0
C935 C 0.0827 0.67274 0.10686 0.0
C936 C 0.12523 0.80055 0.1088 0.0
O937 O 0.12803 0.76863 0.12077 0.0
O938 O 0.08288 0.81476 0.10236 0.0
C939 C 0.93738 0.68473 0.10675 0.0
O940 O 0.95942 0.8084 0.15067 0.0
O941 O 0.95729 0.76961 0.17437 0.0
C942 C 0.91846 0.81897 0.10923 0.0
C943 C 0.95247 0.80947 0.16576 0.0
Fe944 Fe 0.52303 0.75087 0.40563 0.0
O945 O 0.55529 0.7113 0.388 0.0
Fe946 Fe 0.48171 0.86132 0.38765 0.0
Fe947 Fe 0.55995 0.63654 0.3889 0.0
O948 O 0.48715 0.78648 0.38804 0.0
O949 O 0.48735 0.78652 0.3865 0.0
O950 O 0.55589 0.71158 0.38642 0.0
Fe951 Fe 0.52011 0.7475 0.36865 0.0
C952 C 0.60641 0.68137 0.41893 0.0
O953 O 0.46384 0.69968 0.40751 0.0
O954 O 0.50706 0.6272 0.40776 0.0
O955 O 0.47761 0.79201 0.35271 0.0
O956 O 0.43254 0.84799 0.36887 0.0
O957 O 0.43158 0.84539 0.40633 0.0
O958 O 0.48248 0.79566 0.42212 0.0
O959 O 0.50327 0.62151 0.37283 0.0
O960 O 0.46086 0.69419 0.36923 0.0
C961 C 0.44084 0.82067 0.41947 0.0
O962 O 0.57919 0.80153 0.36634 0.0
O963 O 0.53588 0.87413 0.37014 0.0
O964 O 0.56704 0.70975 0.42194 0.0
O965 O 0.61302 0.65445 0.40605 0.0
C966 C 0.4679 0.65317 0.41159 0.0
C967 C 0.46557 0.64585 0.3673 0.0
C968 C 0.59149 0.66225 0.35487 0.0
O969 O 0.60622 0.64686 0.36888 0.0
O970 O 0.55815 0.69831 0.35251 0.0
C971 C 0.44288 0.82671 0.35515 0.0
O972 O 0.53802 0.87413 0.40477 0.0
O973 O 0.58222 0.80224 0.4042 0.0
C974 C 0.57367 0.84994 0.36434 0.0
C975 C 0.57971 0.85013 0.40652 0.0
Fe976 Fe 0.51411 0.27197 0.66829 0.0
O977 O 0.51662 0.27456 0.6447 0.0
Fe978 Fe 0.45567 0.23968 0.63255 0.0
Fe979 Fe 0.57449 0.24707 0.63159 0.0
O980 O 0.51138 0.27401 0.64478 0.0
O981 O 0.51341 0.21118 0.61964 0.0
O982 O 0.51889 0.21143 0.61961 0.0
Fe983 Fe 0.51558 0.21184 0.59615 0.0
C984 C 0.61303 0.32473 0.6572 0.0
O985 O 0.57142 0.21909 0.6703 0.0
O986 O 0.58048 0.18381 0.64627 0.0
O987 O 0.45726 0.15889 0.59937 0.0
O988 O 0.40483 0.19781 0.61796 0.0
O989 O 0.45711 0.17593 0.64708 0.0
O990 O 0.46092 0.213 0.67088 0.0
O991 O 0.6273 0.212 0.61595 0.0
O992 O 0.57691 0.16419 0.59894 0.0
C993 C 0.45022 0.17453 0.66213 0.0
O994 O 0.45861 0.26507 0.59396 0.0
O995 O 0.45082 0.30258 0.61775 0.0
O996 O 0.57081 0.3259 0.66539 0.0
O997 O 0.62408 0.29163 0.64597 0.0
C998 C 0.58677 0.18295 0.66132 0.0
C999 C 0.62074 0.17726 0.60488 0.0
C1000 C 0.5852 0.30669 0.60162 0.0
O1001 O 0.57368 0.30966 0.61645 0.0
O1002 O 0.57017 0.26923 0.5931 0.0
C1003 C 0.41382 0.16403 0.60679 0.0
O1004 O 0.4026 0.27707 0.64788 0.0
O1005 O 0.4536 0.32011 0.66594 0.0
C1006 C 0.4421 0.30105 0.60282 0.0
C1007 C 0.41105 0.31267 0.65858 0.0
Fe1008 Fe 0.05709 0.26285 0.92004 0.0
O1009 O 0.05689 0.26186 0.89651 0.0
Fe1010 Fe 0.02226 0.32413 0.88479 0.0
Fe1011 Fe 0.02504 0.20441 0.88425 0.0
O1012 O 0.05642 0.26735 0.89657 0.0
O1013 O 0.99197 0.26643 0.87221 0.0
O1014 O -0.00722 0.26122 0.87209 0.0
Fe1015 Fe 0.99165 0.26303 0.84873 0.0
C1016 C 0.10252 0.16224 0.90871 0.0
O1017 O 0.00236 0.20526 0.92273 0.0
O1018 O 0.96282 0.20348 0.89942 0.0
O1019 O 0.94295 0.32359 0.85164 0.0
O1020 O 0.9812 0.37566 0.87045 0.0
O1021 O 0.95991 0.32129 0.90021 0.0
O1022 O 0.00061 0.31631 0.92332 0.0
O1023 O 0.98606 0.15195 0.86943 0.0
O1024 O 0.94023 0.20394 0.85262 0.0
C1025 C 0.96032 0.32414 0.91542 0.0
O1026 O 0.0487 0.3173 0.84553 0.0
O1027 O 0.08395 0.33081 0.86941 0.0
O1028 O 0.10844 0.20518 0.91633 0.0
O1029 O 0.06576 0.15245 0.89871 0.0
C1030 C 0.96229 0.19857 0.91455 0.0
C1031 C 0.95113 0.15954 0.85871 0.0
C1032 C 0.08204 0.19004 0.85415 0.0
O1033 O 0.08664 0.20289 0.86875 0.0
O1034 O 0.04464 0.20557 0.84598 0.0
C1035 C 0.94868 0.36696 0.85904 0.0
O1036 O 0.06129 0.37658 0.89965 0.0
O1037 O 0.10602 0.32431 0.91683 0.0
C1038 C 0.08436 0.33465 0.85423 0.0
C1039 C 0.09826 0.36758 0.90956 0.0
C1040 C 0.30835 0.79361 0.43599 0.0
C1041 C 0.31486 0.79303 0.45269 0.0
C1042 C 0.34909 0.80404 0.42545 0.0
C1043 C 0.39835 0.81421 0.43112 0.0
H1044 H 0.2711 0.78626 0.43099 0.0
H1045 H 0.34207 0.80308 0.41271 0.0
S1046 S 0.43647 0.8215 0.47354 0.0
N1047 N 0.37491 0.80777 0.47433 0.0
N1048 N 0.45174 0.82479 0.45434 0.0
C1049 C 0.40578 0.81443 0.4477 0.0
C1050 C 0.364 0.80482 0.45852 0.0
C1051 C 0.39134 0.08597 0.69387 0.0
C1052 C 0.37415 0.04327 0.68511 0.0
C1053 C 0.41691 0.12727 0.68639 0.0
C1054 C 0.4261 0.12811 0.66973 0.0
H1055 H 0.38398 0.08802 0.70664 0.0
H1056 H 0.42858 0.15931 0.69377 0.0
S1057 S 0.38948 0.02495 0.64129 0.0
N1058 N 0.3685 0.00388 0.65887 0.0
N1059 N 0.4169 0.08117 0.64473 0.0
C1060 C 0.4099 0.08509 0.66082 0.0
C1061 C 0.38375 0.04294 0.6685 0.0
C1062 C 0.15818 0.03277 0.91946 0.0
C1063 C 0.20826 0.04572 0.92436 0.0
C1064 C 0.12499 0.06997 0.91349 0.0
C1065 C 0.13993 0.1218 0.91243 0.0
H1066 H 0.1433 0.99405 0.92058 0.0
H1067 H 0.08652 0.05841 0.91045 0.0
S1068 S 0.26738 0.17604 0.9221 0.0
N1069 N 0.27128 0.11451 0.92658 0.0
N1070 N 0.20922 0.18379 0.91535 0.0
C1071 C 0.19025 0.13505 0.91653 0.0
C1072 C 0.22408 0.09732 0.92254 0.0
C1073 C 0.13829 0.9391 0.1663 0.0
C1074 C 0.12236 0.9579 0.18129 0.0
C1075 C 0.12575 0.88925 0.16139 0.0
C1076 C 0.09662 0.85575 0.17122 0.0
H1077 H 0.15974 0.96369 0.1581 0.0
H1078 H 0.13837 0.87721 0.14961 0.0
S1079 S 0.04402 0.88619 0.21144 0.0
N1080 N 0.07486 0.9391 0.20586 0.0
N1081 N 0.05165 0.84508 0.19666 0.0
C1082 C 0.0808 0.87365 0.18633 0.0
C1083 C 0.0933 0.92479 0.19132 0.0
C1084 C 0.33916 0.07102 0.58095 0.0
C1085 C 0.29723 0.05652 0.59063 0.0
C1086 C 0.37551 0.10661 0.58621 0.0
C1087 C 0.37188 0.12934 0.60146 0.0
H1088 H 0.34462 0.05384 0.56928 0.0
H1089 H 0.40718 0.11583 0.57822 0.0
S1090 S 0.26876 0.10509 0.63145 0.0
N1091 N 0.25348 0.06813 0.61618 0.0
N1092 N 0.32194 0.13551 0.62609 0.0
C1093 C 0.32941 0.11626 0.61117 0.0
C1094 C 0.29224 0.07964 0.60579 0.0
C1095 C 0.17013 0.07504 0.85273 0.0
C1096 C 0.15865 0.05184 0.83795 0.0
C1097 C 0.14767 0.12124 0.85753 0.0
C1098 C 0.11316 0.14698 0.84766 0.0
H1099 H 0.19518 0.05601 0.86099 0.0
H1100 H 0.15594 0.13564 0.86937 0.0
S1101 S 0.07595 0.10731 0.80668 0.0
N1102 N 0.11346 0.06123 0.81284 0.0
N1103 N 0.07341 0.14883 0.82149 0.0
C1104 C 0.10419 0.12625 0.83234 0.0
C1105 C 0.12619 0.07857 0.82759 0.0
C1106 C 0.25379 0.77719 0.08966 0.0
C1107 C 0.25392 0.81046 0.07639 0.0
C1108 C 0.21422 0.77773 0.10105 0.0
C1109 C 0.17275 0.81118 0.0995 0.0
H1110 H 0.28342 0.74895 0.09089 0.0
H1111 H 0.21462 0.74916 0.1105 0.0
S1112 S 0.15781 0.90993 0.06782 0.0
N1113 N 0.21105 0.88052 0.06297 0.0
N1114 N 0.1372 0.8822 0.08451 0.0
C1115 C 0.17416 0.84699 0.08685 0.0
C1116 C 0.21436 0.84627 0.07521 0.0
C1117 C 0.43677 0.89527 0.31546 0.0
C1118 C 0.39125 0.92293 0.31688 0.0
C1119 C 0.45114 0.86029 0.3273 0.0
C1120 C 0.42052 0.85171 0.34101 0.0
H1121 H 0.46258 0.90233 0.30545 0.0
H1122 H 0.48814 0.84263 0.32619 0.0
S1123 S 0.29334 0.90707 0.34903 0.0
N1124 N 0.31221 0.9337 0.33195 0.0
N1125 N 0.33964 0.86851 0.35433 0.0
C1126 C 0.37307 0.87597 0.34196 0.0
C1127 C 0.35826 0.91132 0.32985 0.0
C1128 C 0.73454 0.19252 0.57785 0.0
C1129 C 0.72877 0.15009 0.56763 0.0
C1130 C 0.70372 0.19767 0.59154 0.0
C1131 C 0.66544 0.16114 0.59531 0.0
H1132 H 0.76031 0.2238 0.57461 0.0
H1133 H 0.70654 0.23298 0.5982 0.0
S1134 S 0.64285 0.03773 0.57446 0.0
N1135 N 0.68809 0.06675 0.56374 0.0
N1136 N 0.62994 0.07678 0.58945 0.0
C1137 C 0.66345 0.11583 0.58624 0.0
C1138 C 0.69494 0.1104 0.57235 0.0
C1139 C 0.69837 0.90114 0.34596 0.0
C1140 C 0.68313 0.94583 0.33761 0.0
C1141 C 0.66288 0.86905 0.35409 0.0
C1142 C 0.61082 0.88065 0.35452 0.0
H1143 H 0.73797 0.89068 0.34654 0.0
H1144 H 0.67659 0.83593 0.36053 0.0
S1145 S 0.55013 0.99173 0.33463 0.0
N1146 N 0.61144 -0.00087 0.33055 0.0
N1147 N 0.54525 0.93863 0.34538 0.0
C1148 C 0.59488 0.92452 0.34611 0.0
C1149 C 0.6308 0.95713 0.33789 0.0
C1150 C 0.79214 0.88784 0.10412 0.0
C1151 C 0.79606 0.90748 0.08841 0.0
C1152 C 0.8316 0.85911 0.11083 0.0
C1153 C 0.87681 0.84959 0.10215 0.0
H1154 H 0.75831 0.89483 0.1113 0.0
H1155 H 0.82682 0.8448 0.12295 0.0
S1156 S 0.90554 0.89205 0.06036 0.0
N1157 N 0.84872 0.91528 0.06437 0.0
N1158 N 0.9222 0.86119 0.07669 0.0
C1159 C 0.88101 0.86904 0.08638 0.0
C1160 C 0.84097 0.89807 0.07961 0.0
C1161 C 0.96009 0.05344 0.82923 0.0
C1162 C 0.91397 0.05849 0.82096 0.0
C1163 C 0.9692 0.08105 0.84328 0.0
C1164 C 0.93298 0.11551 0.84929 0.0
H1165 H 0.99078 0.03097 0.82422 0.0
H1166 H 0.00688 0.07961 0.84838 0.0
S1167 S 0.80341 0.13613 0.83369 0.0
N1168 N 0.82926 0.09499 0.8211 0.0
N1169 N 0.84694 0.14766 0.84735 0.0
C1170 C 0.88503 0.11695 0.84207 0.0
C1171 C 0.87552 0.08852 0.82787 0.0
C1172 C 0.66527 0.9436 0.42906 0.0
C1173 C 0.71503 0.92703 0.42515 0.0
C1174 C 0.62184 0.91969 0.42262 0.0
C1175 C 0.62602 0.87714 0.41243 0.0
H1176 H 0.65919 0.97526 0.43714 0.0
H1177 H 0.58463 0.93386 0.426 0.0
S1178 S 0.74656 0.81681 0.399 0.0
N1179 N 0.76511 0.86429 0.41068 0.0
N1180 N 0.68376 0.81889 0.39886 0.0
C1181 C 0.67522 0.8595 0.40865 0.0
C1182 C 0.71942 0.8843 0.415 0.0
C1183 C 0.90267 0.90065 0.19733 0.0
C1184 C 0.92041 0.94909 0.19202 0.0
C1185 C 0.91191 0.85614 0.18849 0.0
C1186 C 0.93917 0.85803 0.17389 0.0
H1187 H 0.88243 0.89698 0.20866 0.0
H1188 H 0.89813 0.81975 0.19329 0.0
S1189 S -0.00493 0.97462 0.15468 0.0
N1190 N 0.96763 0.99593 0.17122 0.0
N1191 N 0.98421 0.91209 0.15449 0.0
C1192 C 0.95665 0.90611 0.16827 0.0
C1193 C 0.94774 0.9516 0.17738 0.0
C1194 C 0.86723 0.15519 0.94663 0.0
C1195 C 0.8209 0.17525 0.94126 0.0
C1196 C 0.91255 0.16173 0.93773 0.0
C1197 C 0.9133 0.18823 0.92304 0.0
H1198 H 0.86862 0.13504 0.95797 0.0
H1199 H 0.94739 0.14635 0.94249 0.0
S1200 S 0.8033 0.25161 0.90419 0.0
N1201 N 0.77942 0.22562 0.92075 0.0
N1202 N 0.8641 0.23628 0.90376 0.0
C1203 C 0.86729 0.20843 0.91749 0.0
C1204 C 0.82133 0.20262 0.9267 0.0
C1205 C 0.6454 0.09867 0.69322 0.0
C1206 C 0.67499 0.06385 0.68441 0.0
C1207 C 0.61599 0.1357 0.68561 0.0
C1208 C 0.61504 0.14001 0.6688 0.0
H1209 H 0.64591 0.09813 0.70618 0.0
H1210 H 0.59458 0.16187 0.69307 0.0
S1211 S 0.68523 0.05736 0.64011 0.0
N1212 N 0.70101 0.03534 0.6579 0.0
N1213 N 0.64568 0.10494 0.64352 0.0
C1214 C 0.64355 0.10459 0.65978 0.0
C1215 C 0.67363 0.06674 0.66758 0.0
C1216 C 0.83279 0.38416 0.92672 0.0
C1217 C 0.82488 0.3673 0.94264 0.0
C1218 C 0.87574 0.36884 0.91772 0.0
C1219 C 0.91306 0.33731 0.92446 0.0
H1220 H 0.80627 0.41025 0.92129 0.0
H1221 H 0.88059 0.38322 0.90561 0.0
S1222 S 0.90959 0.28162 0.96545 0.0
N1223 N 0.85757 0.31625 0.9645 0.0
N1224 N 0.93788 0.28801 0.9478 0.0
C1225 C 0.90503 0.31956 0.94024 0.0
C1226 C 0.86123 0.33451 0.94926 0.0
C1227 C 0.80863 0.56524 0.16498 0.0
C1228 C 0.79264 0.56714 0.18116 0.0
C1229 C 0.84314 0.6019 0.15857 0.0
C1230 C 0.86232 0.64183 0.16809 0.0
H1231 H 0.79517 0.53461 0.15732 0.0
H1232 H 0.8565 0.59774 0.14633 0.0
S1233 S 0.82821 0.66792 0.21039 0.0
N1234 N 0.79527 0.6155 0.20598 0.0
N1235 N 0.86056 0.68356 0.19396 0.0
C1236 C 0.84493 0.6456 0.18397 0.0
C1237 C 0.80981 0.60861 0.19048 0.0
C1238 C 0.73951 0.70291 0.43426 0.0
C1239 C 0.73422 0.69447 0.45085 0.0
C1240 C 0.69794 0.69771 0.42405 0.0
C1241 C 0.64929 0.68445 0.43004 0.0
H1242 H 0.77629 0.71322 0.42906 0.0
H1243 H 0.70378 0.70479 0.41137 0.0
S1244 S 0.61474 0.65363 0.47206 0.0
N1245 N 0.6763 0.66744 0.47248 0.0
N1246 N 0.59775 0.66097 0.45324 0.0
C1247 C 0.64306 0.67543 0.44647 0.0
C1248 C 0.68568 0.67931 0.45687 0.0
C1249 C 0.67681 0.42577 0.68177 0.0
C1250 C 0.68683 0.46525 0.67051 0.0
C1251 C 0.65862 0.37757 0.67699 0.0
C1252 C 0.64868 0.36707 0.66084 0.0
H1253 H 0.68032 0.43258 0.69448 0.0
H1254 H 0.64845 0.34955 0.68615 0.0
S1255 S 0.67037 0.4559 0.62662 0.0
N1256 N 0.6903 0.48843 0.64231 0.0
N1257 N 0.65048 0.39967 0.63363 0.0
C1258 C 0.6608 0.40498 0.6494 0.0
C1259 C 0.68126 0.45354 0.65418 0.0
C1260 C 0.83129 0.58449 0.10294 0.0
C1261 C 0.80111 0.60468 0.09066 0.0
C1262 C 0.8763 0.60945 0.10778 0.0
C1263 C 0.8931 0.65543 0.10043 0.0
H1264 H 0.81921 0.54977 0.10917 0.0
H1265 H 0.8976 0.59309 0.11752 0.0
S1266 S 0.82659 0.72612 0.06824 0.0
N1267 N 0.79032 0.67506 0.07179 0.0
N1268 N 0.87516 0.72085 0.08041 0.0
C1269 C 0.86351 0.6758 0.088 0.0
C1270 C 0.81741 0.6509 0.08329 0.0
C1271 C 0.55944 0.56302 0.32424 0.0
C1272 C 0.59745 0.52643 0.32711 0.0
C1273 C 0.56111 0.61144 0.33158 0.0
C1274 C 0.60131 0.62525 0.34177 0.0
H1275 H 0.52612 0.553 0.31737 0.0
H1276 H 0.52812 0.63573 0.33057 0.0
S1277 S 0.71848 0.55068 0.34841 0.0
N1278 N 0.68239 0.51269 0.33741 0.0
N1279 N 0.6858 0.60379 0.35095 0.0
C1280 C 0.64326 0.59238 0.34251 0.0
C1281 C 0.64133 0.54299 0.3352 0.0
C1282 C 0.65966 0.39286 0.57261 0.0
C1283 C 0.70894 0.3944 0.57916 0.0
C1284 C 0.61932 0.36568 0.58017 0.0
C1285 C 0.62625 0.34012 0.5948 0.0
H1286 H 0.65227 0.41275 0.5615 0.0
H1287 H 0.58244 0.36453 0.5745 0.0
S1288 S 0.74759 0.33066 0.61682 0.0
N1289 N 0.76196 0.3674 0.60122 0.0
N1290 N 0.68657 0.31569 0.61515 0.0
C1291 C 0.67515 0.34119 0.60148 0.0
C1292 C 0.71626 0.36868 0.59379 0.0
C1293 C 0.86274 0.44253 0.83191 0.0
C1294 C 0.84568 0.48285 0.8416 0.0
C1295 C 0.89715 0.40663 0.83761 0.0
C1296 C 0.91597 0.40909 0.85331 0.0
H1297 H 0.84866 0.43802 0.81987 0.0
H1298 H 0.90852 0.37614 0.82959 0.0
S1299 S 0.88493 0.50859 0.88337 0.0
N1300 N 0.85181 0.52476 0.8675 0.0
N1301 N 0.91623 0.45637 0.87833 0.0
C1302 C 0.90057 0.45013 0.86303 0.0
C1303 C 0.86542 0.48708 0.85716 0.0
C1304 C 0.16479 0.60494 0.07596 0.0
C1305 C 0.19911 0.57684 0.08522 0.0
C1306 C 0.12568 0.63329 0.08309 0.0
C1307 C 0.11927 0.63543 0.09986 0.0
H1308 H 0.16856 0.60553 0.06304 0.0
H1309 H 0.10099 0.6548 0.07533 0.0
S1310 S 0.19979 0.56935 0.12955 0.0
N1311 N 0.22417 0.55272 0.11207 0.0
N1312 N 0.15131 0.60678 0.12554 0.0
C1313 C 0.15302 0.60701 0.10929 0.0
C1314 C 0.19279 0.5778 0.10198 0.0
C1315 C 0.18789 0.38234 0.81398 0.0
C1316 C 0.21847 0.43646 0.82512 0.0
C1317 C 0.13777 0.34871 0.82499 0.0
C1318 C 0.12721 0.36101 0.84614 0.0
H1319 H 0.19159 0.37872 0.80113 0.0
H1320 H 0.11364 0.32144 0.81884 0.0
S1321 S 0.20792 0.46394 0.87419 0.0
N1322 N 0.23955 0.47515 0.8568 0.0
N1323 N 0.16269 0.41765 0.87256 0.0
C1324 C 0.16795 0.40432 0.85713 0.0
C1325 C 0.21814 0.4394 0.8474 0.0
C1326 C 0.3709 0.37586 0.57134 0.0
C1327 C 0.33487 0.40352 0.58032 0.0
C1328 C 0.40665 0.34468 0.57879 0.0
C1329 C 0.40757 0.33912 0.59555 0.0
H1330 H 0.37101 0.37761 0.5584 0.0
H1331 H 0.43319 0.32395 0.57127 0.0
S1332 S 0.31903 0.40047 0.62451 0.0
N1333 N 0.30124 0.42202 0.60689 0.0
N1334 N 0.3678 0.36269 0.6209 0.0
C1335 C 0.37168 0.36645 0.60471 0.0
C1336 C 0.33538 0.39852 0.5971 0.0
C1337 C 0.41391 0.53753 0.34171 0.0
C1338 C 0.37837 0.56137 0.33171 0.0
C1339 C 0.43982 0.56468 0.35355 0.0
C1340 C 0.43125 0.61722 0.35628 0.0
H1341 H 0.42255 0.49725 0.34034 0.0
H1342 H 0.46781 0.5441 0.36038 0.0
S1343 S 0.33586 0.69688 0.33568 0.0
N1344 N 0.33079 0.64004 0.32716 0.0
N1345 N 0.38084 0.69117 0.34914 0.0
C1346 C 0.39365 0.64118 0.34716 0.0
C1347 C 0.36675 0.61329 0.33506 0.0
C1348 C 0.15646 0.48949 0.92603 0.0
C1349 C 0.20926 0.47894 0.92539 0.0
C1350 C 0.12035 0.455 0.91975 0.0
C1351 C 0.13564 0.40854 0.91292 0.0
H1352 H 0.14218 0.52345 0.93185 0.0
H1353 H 0.0802 0.46329 0.92111 0.0
S1354 S 0.26807 0.3647 0.90675 0.0
N1355 N 0.27423 0.42049 0.91588 0.0
N1356 N 0.20622 0.35516 0.90469 0.0
C1357 C 0.18786 0.39858 0.91151 0.0
C1358 C 0.22458 0.43392 0.91755 0.0
C1359 C 0.29744 0.36785 0.68031 0.0
C1360 C 0.30672 0.42153 0.67903 0.0
C1361 C 0.32872 0.33228 0.6724 0.0
C1362 C 0.37058 0.34878 0.66306 0.0
H1363 H 0.26704 0.35244 0.68781 0.0
H1364 H 0.32194 0.29162 0.67442 0.0
S1365 S 0.40957 0.48352 0.65462 0.0
N1366 N 0.359 0.48834 0.66645 0.0
N1367 N 0.41858 0.42141 0.65223 0.0
C1368 C 0.37922 0.40176 0.66115 0.0
C1369 C 0.34706 0.43796 0.66892 0.0
C1370 C 0.38567 0.65904 0.45834 0.0
C1371 C 0.34366 0.60189 0.45471 0.0
C1372 C 0.42684 0.67684 0.44166 0.0
C1373 C 0.43332 0.63512 0.42445 0.0
H1374 H 0.37908 0.68515 0.46814 0.0
H1375 H 0.44835 0.71245 0.44207 0.0
S1376 S 0.36039 0.49466 0.41797 0.0
N1377 N 0.33428 0.50871 0.43597 0.0
N1378 N 0.40283 0.53976 0.41154 0.0
C1379 C 0.40162 0.57324 0.42371 0.0
C1380 C 0.35986 0.55209 0.43948 0.0
C1381 C 0.23546 0.60133 0.17315 0.0
C1382 C 0.22238 0.5485 0.17408 0.0
C1383 C 0.19935 0.63807 0.16894 0.0
C1384 C 0.14868 0.62364 0.16599 0.0
H1385 H 0.27341 0.6151 0.17581 0.0
H1386 H 0.21077 0.67817 0.16845 0.0
S1387 S 0.09519 0.49129 0.16589 0.0
N1388 N 0.1554 0.48423 0.1708 0.0
N1389 N 0.08744 0.5536 0.16345 0.0
C1390 C 0.13511 0.57141 0.16666 0.0
C1391 C 0.17196 0.53391 0.17057 0.0
loop_
_geom_bond_atom_site_label_1
_geom_bond_atom_site_label_2
_geom_bond_distance
_geom_bond_site_symmetry_2
_ccdc_geom_bond_type
C0 C1 1.560 . S
C0 H61 0.959 . S
C0 H62 0.959 . S
C0 H63 0.960 . S
C1 C0 1.560 . S
C1 O56 1.426 . S
C1 H60 0.980 . S
C2 C3 1.407 . S
C2 C7 1.418 . S
C2 O56 1.334 . S
C3 C2 1.407 . S
C3 C4 1.360 . S
C3 H64 0.929 . S
C4 C3 1.360 . S
C4 C5 1.401 . S
C4 C8 1.527 . S
C5 C4 1.401 . S
C5 C6 1.405 . S
C5 C38 1.587 . S
C6 C5 1.405 . S
C6 C7 1.332 . S
C6 C9 1.496 1_565 S
C7 C2 1.418 . S
C7 C6 1.332 . S
C7 H65 0.929 1_565 S
C8 C4 1.527 . S
C8 H66 0.959 . S
C8 H67 0.961 . S
C8 H68 0.961 . S
C9 C6 1.496 1_545 S
C9 H69 0.960 . S
C9 H70 0.960 . S
C9 H71 0.961 . S
C10 C11 1.517 . S
C10 H73 0.961 . S
C10 H74 0.960 . S
C10 H75 0.959 . S
C11 C10 1.517 . S
C11 O59 1.468 . S
C11 H72 0.980 . S
C12 C13 1.349 . S
C12 C17 1.367 . S
C12 O59 1.408 . S
C13 C12 1.349 . S
C13 C14 1.407 . S
C13 H76 0.930 . S
C14 C13 1.407 . S
C14 C15 1.449 . S
C14 C18 1.535 . S
C15 C14 1.449 . S
C15 C16 1.384 . S
C15 C40 1.553 . S
C16 C15 1.384 . S
C16 C17 1.364 . S
C16 C19 1.450 . S
C17 C12 1.367 . S
C17 C16 1.364 . S
C17 H77 0.931 . S
C18 C14 1.535 . S
C18 H78 0.959 . S
C18 H79 0.961 . S
C18 H80 0.959 . S
C19 C16 1.450 . S
C19 H81 0.960 . S
C19 H82 0.960 . S
C19 H83 0.960 . S
C20 C21 1.309 . S
C20 C25 1.304 . S
C20 O58 1.435 . S
C21 C20 1.309 . S
C21 C22 1.476 . S
C21 H85 0.930 . S
C22 C21 1.476 . S
C22 C23 1.400 . S
C22 C26 1.567 . S
C23 C22 1.400 . S
C23 C24 1.373 . S
C23 C45 1.432 . S
C24 C23 1.373 . S
C24 C25 1.339 . S
C24 C27 1.530 1_545 S
C25 C20 1.304 . S
C25 C24 1.339 . S
C25 H86 0.930 . S
C26 C22 1.567 . S
C26 H87 0.961 . S
C26 H88 0.960 . S
C26 H89 0.958 . S
C27 C24 1.530 1_565 S
C27 H90 0.961 . S
C27 H91 0.960 . S
C27 H92 0.960 . S
C28 C29 1.530 . S
C28 H94 0.961 . S
C28 H95 0.961 . S
C28 H96 0.959 . S
C29 C28 1.530 . S
C29 O57 1.412 . S
C29 H93 0.980 . S
C30 C31 1.288 . S
C30 C35 1.377 . S
C30 O57 1.393 . S
C31 C30 1.288 . S
C31 C32 1.369 . S
C31 H97 0.932 . S
C32 C31 1.369 . S
C32 C33 1.398 . S
C32 C36 1.527 . S
C33 C32 1.398 . S
C33 C34 1.380 . S
C33 C47 1.497 . S
C34 C33 1.380 . S
C34 C35 1.383 . S
C34 C37 1.603 . S
C35 C30 1.377 . S
C35 C34 1.383 . S
C35 H98 0.929 . S
C36 C32 1.527 . S
C36 H99 0.961 . S
C36 H100 0.959 . S
C36 H101 0.959 . S
C37 C34 1.603 . S
C37 H102 0.960 1_545 S
C37 H103 0.962 1_545 S
C37 H104 0.961 1_545 S
C38 C5 1.587 . S
C38 C39 1.360 1_655 S
C38 C51 1.412 . S
C39 C38 1.360 1_455 S
C39 C40 1.365 . S
C39 H105 0.929 . S
C40 C15 1.553 . S
C40 C39 1.365 . S
C40 C41 1.404 . S
C41 C40 1.404 . S
C41 C42 1.395 . S
C41 C52 1.451 . S
C42 C41 1.395 . S
C42 C43 1.322 . S
C42 H106 0.930 . S
C43 C42 1.322 . S
C43 C44 1.459 1_565 S
C43 H107 0.929 . S
C44 C43 1.459 1_545 S
C44 C45 1.445 . S
C44 C53 1.395 . S
C45 C23 1.432 . S
C45 C44 1.445 . S
C45 C46 1.370 . S
C46 C45 1.370 . S
C46 C47 1.438 1_455 S
C46 H108 0.930 . S
C47 C33 1.497 . S
C47 C46 1.438 1_655 S
C47 C48 1.360 . S
C48 C47 1.360 . S
C48 C49 1.401 . S
C48 C53 1.446 1_655 S
C49 C48 1.401 . S
C49 C50 1.347 1_545 S
C49 H109 0.929 . S
C50 C49 1.347 1_565 S
C50 C51 1.455 . S
C50 H110 0.930 . S
C51 C38 1.412 . S
C51 C50 1.455 . S
C51 C52 1.331 1_655 S
C52 C41 1.451 . S
C52 C51 1.331 1_455 S
C52 C53 1.497 1_565 S
C53 C44 1.395 . S
C53 C48 1.446 1_455 S
C53 C52 1.497 1_545 S
C54 C55 1.582 . S
C54 H111 0.962 . S
C54 H112 0.959 . S
C54 H113 0.958 . S
C55 C54 1.582 . S
C55 O58 1.458 . S
C55 H84 0.980 . S
O56 C1 1.426 . S
O56 C2 1.334 . S
O57 C29 1.412 . S
O57 C30 1.393 . S
O58 C20 1.435 . S
O58 C55 1.458 . S
O59 C11 1.468 . S
O59 C12 1.408 . S
H60 C1 0.980 . S
H61 C0 0.959 . S
H62 C0 0.959 . S
H63 C0 0.960 . S
H64 C3 0.929 . S
H65 C7 0.929 1_545 S
H66 C8 0.959 . S
H67 C8 0.961 . S
H68 C8 0.961 . S
H69 C9 0.960 . S
H70 C9 0.960 . S
H71 C9 0.961 . S
H72 C11 0.980 . S
H73 C10 0.961 . S
H74 C10 0.960 . S
H75 C10 0.959 . S
H76 C13 0.930 . S
H77 C17 0.931 . S
H78 C18 0.959 . S
H79 C18 0.961 . S
H80 C18 0.959 . S
H81 C19 0.960 . S
H82 C19 0.960 . S
H83 C19 0.960 . S
H84 C55 0.980 . S
H85 C21 0.930 . S
H86 C25 0.930 . S
H87 C26 0.961 . S
H88 C26 0.960 . S
H89 C26 0.958 . S
H90 C27 0.961 . S
H91 C27 0.960 . S
H92 C27 0.960 . S
H93 C29 0.980 . S
H94 C28 0.961 . S
H95 C28 0.961 . S
H96 C28 0.959 . S
H97 C31 0.932 . S
H98 C35 0.929 . S
H99 C36 0.961 . S
H100 C36 0.959 . S
H101 C36 0.959 . S
H102 C37 0.960 1_565 S
H103 C37 0.962 1_565 S
H104 C37 0.961 1_565 S
H105 C39 0.929 . S
H106 C42 0.930 . S
H107 C43 0.929 . S
H108 C46 0.930 . S
H109 C49 0.929 . S
H110 C50 0.930 . S
H111 C54 0.962 . S
H112 C54 0.959 . S
H113 C54 0.958 . S
C114 C115 1.560 . S
C114 H175 0.959 1_545 S
C114 H176 0.959 . S
C114 H177 0.960 . S
C115 C114 1.560 . S
C115 O170 1.426 1_545 S
C115 H174 0.980 1_545 S
C116 C117 1.407 . S
C116 C121 1.418 . S
C116 O170 1.334 . S
C117 C116 1.407 . S
C117 C118 1.360 . S
C117 H178 0.929 . S
C118 C117 1.360 . S
C118 C119 1.401 . S
C118 C122 1.527 . S
C119 C118 1.401 . S
C119 C120 1.405 . S
C119 C152 1.587 . S
C120 C119 1.405 . S
C120 C121 1.332 . S
C120 C123 1.496 . S
C121 C116 1.418 . S
C121 C120 1.332 . S
C121 H179 0.929 . S
C122 C118 1.527 . S
C122 H180 0.959 . S
C122 H181 0.961 . S
C122 H182 0.961 . S
C123 C120 1.496 . S
C123 H183 0.960 . S
C123 H184 0.960 . S
C123 H185 0.961 . S
C124 C125 1.517 . S
C124 H187 0.961 . S
C124 H188 0.960 . S
C124 H189 0.959 . S
C125 C124 1.517 . S
C125 O173 1.468 . S
C125 H186 0.980 . S
C126 C127 1.349 . S
C126 C131 1.367 . S
C126 O173 1.408 . S
C127 C126 1.349 . S
C127 C128 1.407 . S
C127 H190 0.930 . S
C128 C127 1.407 . S
C128 C129 1.449 . S
C128 C132 1.535 . S
C129 C128 1.449 . S
C129 C130 1.384 . S
C129 C154 1.553 . S
C130 C129 1.384 . S
C130 C131 1.364 . S
C130 C133 1.450 . S
C131 C126 1.367 . S
C131 C130 1.364 . S
C131 H191 0.931 . S
C132 C128 1.535 . S
C132 H192 0.959 . S
C132 H193 0.961 . S
C132 H194 0.959 . S
C133 C130 1.450 . S
C133 H195 0.960 . S
C133 H196 0.960 . S
C133 H197 0.960 . S
C134 C135 1.309 . S
C134 C139 1.304 . S
C134 O172 1.435 . S
C135 C134 1.309 . S
C135 C136 1.476 . S
C135 H199 0.930 . S
C136 C135 1.476 . S
C136 C137 1.400 . S
C136 C140 1.567 . S
C137 C136 1.400 . S
C137 C138 1.373 . S
C137 C159 1.432 . S
C138 C137 1.373 . S
C138 C139 1.339 . S
C138 C141 1.530 . S
C139 C134 1.304 . S
C139 C138 1.339 . S
C139 H200 0.930 . S
C140 C136 1.567 . S
C140 H201 0.961 . S
C140 H202 0.960 . S
C140 H203 0.958 . S
C141 C138 1.530 . S
C141 H204 0.961 . S
C141 H205 0.960 . S
C141 H206 0.960 . S
C142 C143 1.530 . S
C142 H208 0.961 . S
C142 H209 0.961 . S
C142 H210 0.959 . S
C143 C142 1.530 . S
C143 O171 1.412 1_545 S
C143 H207 0.980 . S
C144 C145 1.288 . S
C144 C149 1.377 . S
C144 O171 1.393 . S
C145 C144 1.288 . S
C145 C146 1.369 . S
C145 H211 0.932 . S
C146 C145 1.369 . S
C146 C147 1.398 . S
C146 C150 1.527 . S
C147 C146 1.398 . S
C147 C148 1.380 . S
C147 C161 1.497 . S
C148 C147 1.380 . S
C148 C149 1.383 . S
C148 C151 1.603 . S
C149 C144 1.377 . S
C149 C148 1.383 . S
C149 H212 0.929 . S
C150 C146 1.527 . S
C150 H213 0.961 . S
C150 H214 0.959 . S
C150 H215 0.959 . S
C151 C148 1.603 . S
C151 H216 0.960 . S
C151 H217 0.962 . S
C151 H218 0.961 . S
C152 C119 1.587 . S
C152 C153 1.360 . S
C152 C165 1.412 . S
C153 C152 1.360 . S
C153 C154 1.365 . S
C153 H219 0.929 . S
C154 C129 1.553 . S
C154 C153 1.365 . S
C154 C155 1.404 . S
C155 C154 1.404 . S
C155 C156 1.395 . S
C155 C166 1.451 . S
C156 C155 1.395 . S
C156 C157 1.322 . S
C156 H220 0.930 . S
C157 C156 1.322 . S
C157 C158 1.459 . S
C157 H221 0.929 . S
C158 C157 1.459 . S
C158 C159 1.445 . S
C158 C167 1.395 . S
C159 C137 1.432 . S
C159 C158 1.445 . S
C159 C160 1.370 . S
C160 C159 1.370 . S
C160 C161 1.438 . S
C160 H222 0.930 . S
C161 C147 1.497 . S
C161 C160 1.438 . S
C161 C162 1.360 . S
C162 C161 1.360 . S
C162 C163 1.401 . S
C162 C167 1.446 . S
C163 C162 1.401 . S
C163 C164 1.347 . S
C163 H223 0.929 . S
C164 C163 1.347 . S
C164 C165 1.455 . S
C164 H224 0.930 . S
C165 C152 1.412 . S
C165 C164 1.455 . S
C165 C166 1.331 . S
C166 C155 1.451 . S
C166 C165 1.331 . S
C166 C167 1.497 . S
C167 C158 1.395 . S
C167 C162 1.446 . S
C167 C166 1.497 . S
C168 C169 1.582 . S
C168 H225 0.962 . S
C168 H226 0.959 . S
C168 H227 0.958 . S
C169 C168 1.582 . S
C169 O172 1.458 . S
C169 H198 0.980 . S
O170 C115 1.426 1_565 S
O170 C116 1.334 . S
O171 C143 1.412 1_565 S
O171 C144 1.393 . S
O172 C134 1.435 . S
O172 C169 1.458 . S
O173 C125 1.468 . S
O173 C126 1.408 . S
H174 C115 0.980 1_565 S
H175 C114 0.959 1_565 S
H176 C114 0.959 . S
H177 C114 0.960 . S
H178 C117 0.929 . S
H179 C121 0.929 . S
H180 C122 0.959 . S
H181 C122 0.961 . S
H182 C122 0.961 . S
H183 C123 0.960 . S
H184 C123 0.960 . S
H185 C123 0.961 . S
H186 C125 0.980 . S
H187 C124 0.961 . S
H188 C124 0.960 . S
H189 C124 0.959 . S
H190 C127 0.930 . S
H191 C131 0.931 . S
H192 C132 0.959 . S
H193 C132 0.961 . S
H194 C132 0.959 . S
H195 C133 0.960 . S
H196 C133 0.960 . S
H197 C133 0.960 . S
H198 C169 0.980 . S
H199 C135 0.930 . S
H200 C139 0.930 . S
H201 C140 0.961 . S
H202 C140 0.960 . S
H203 C140 0.958 . S
H204 C141 0.961 . S
H205 C141 0.960 . S
H206 C141 0.960 . S
H207 C143 0.980 . S
H208 C142 0.961 . S
H209 C142 0.961 . S
H210 C142 0.959 . S
H211 C145 0.932 . S
H212 C149 0.929 . S
H213 C150 0.961 . S
H214 C150 0.959 . S
H215 C150 0.959 . S
H216 C151 0.960 . S
H217 C151 0.962 . S
H218 C151 0.961 . S
H219 C153 0.929 . S
H220 C156 0.930 . S
H221 C157 0.929 . S
H222 C160 0.930 . S
H223 C163 0.929 . S
H224 C164 0.930 . S
H225 C168 0.962 . S
H226 C168 0.959 . S
H227 C168 0.958 . S
C228 C229 1.560 . S
C228 H289 0.959 . S
C228 H290 0.959 . S
C228 H291 0.960 . S
C229 C228 1.560 . S
C229 O284 1.426 . S
C229 H288 0.980 . S
C230 C231 1.407 . S
C230 C235 1.418 . S
C230 O284 1.334 . S
C231 C230 1.407 . S
C231 C232 1.360 . S
C231 H292 0.929 . S
C232 C231 1.360 . S
C232 C233 1.401 . S
C232 C236 1.527 . S
C233 C232 1.401 . S
C233 C234 1.405 . S
C233 C266 1.587 . S
C234 C233 1.405 . S
C234 C235 1.332 . S
C234 C237 1.496 1_565 S
C235 C230 1.418 . S
C235 C234 1.332 . S
C235 H293 0.929 . S
C236 C232 1.527 . S
C236 H294 0.959 . S
C236 H295 0.961 . S
C236 H296 0.961 . S
C237 C234 1.496 1_545 S
C237 H297 0.960 . S
C237 H298 0.960 1_545 S
C237 H299 0.961 . S
C238 C239 1.517 . S
C238 H301 0.961 . S
C238 H302 0.960 . S
C238 H303 0.959 . S
C239 C238 1.517 . S
C239 O287 1.468 . S
C239 H300 0.980 . S
C240 C241 1.349 . S
C240 C245 1.367 . S
C240 O287 1.408 . S
C241 C240 1.349 . S
C241 C242 1.407 . S
C241 H304 0.930 . S
C242 C241 1.407 . S
C242 C243 1.449 . S
C242 C246 1.535 . S
C243 C242 1.449 . S
C243 C244 1.384 . S
C243 C268 1.553 . S
C244 C243 1.384 . S
C244 C245 1.364 . S
C244 C247 1.450 . S
C245 C240 1.367 . S
C245 C244 1.364 . S
C245 H305 0.931 . S
C246 C242 1.535 . S
C246 H306 0.959 . S
C246 H307 0.961 . S
C246 H308 0.959 . S
C247 C244 1.450 . S
C247 H309 0.960 . S
C247 H310 0.960 . S
C247 H311 0.960 . S
C248 C249 1.309 . S
C248 C253 1.304 . S
C248 O286 1.435 . S
C249 C248 1.309 . S
C249 C250 1.476 . S
C249 H313 0.930 . S
C250 C249 1.476 . S
C250 C251 1.400 . S
C250 C254 1.567 . S
C251 C250 1.400 . S
C251 C252 1.373 . S
C251 C273 1.432 . S
C252 C251 1.373 . S
C252 C253 1.339 . S
C252 C255 1.530 1_545 S
C253 C248 1.304 . S
C253 C252 1.339 . S
C253 H314 0.930 1_545 S
C254 C250 1.567 . S
C254 H315 0.961 . S
C254 H316 0.960 . S
C254 H317 0.958 . S
C255 C252 1.530 1_565 S
C255 H318 0.961 . S
C255 H319 0.960 . S
C255 H320 0.960 . S
C256 C257 1.530 . S
C256 H322 0.961 . S
C256 H323 0.961 . S
C256 H324 0.959 . S
C257 C256 1.530 . S
C257 O285 1.412 . S
C257 H321 0.980 . S
C258 C259 1.288 . S
C258 C263 1.377 . S
C258 O285 1.393 . S
C259 C258 1.288 . S
C259 C260 1.369 . S
C259 H325 0.932 . S
C260 C259 1.369 . S
C260 C261 1.398 . S
C260 C264 1.527 . S
C261 C260 1.398 . S
C261 C262 1.380 . S
C261 C275 1.497 . S
C262 C261 1.380 . S
C262 C263 1.383 . S
C262 C265 1.603 1_545 S
C263 C258 1.377 . S
C263 C262 1.383 . S
C263 H326 0.929 . S
C264 C260 1.527 . S
C264 H327 0.961 . S
C264 H328 0.959 . S
C264 H329 0.959 . S
C265 C262 1.603 1_565 S
C265 H330 0.960 . S
C265 H331 0.962 . S
C265 H332 0.961 . S
C266 C233 1.587 . S
C266 C267 1.360 . S
C266 C279 1.412 . S
C267 C266 1.360 . S
C267 C268 1.365 . S
C267 H333 0.929 . S
C268 C243 1.553 . S
C268 C267 1.365 . S
C268 C269 1.404 . S
C269 C268 1.404 . S
C269 C270 1.395 . S
C269 C280 1.451 . S
C270 C269 1.395 . S
C270 C271 1.322 1_554 S
C270 H334 0.930 . S
C271 C270 1.322 1_556 S
C271 C272 1.459 . S
C271 H335 0.929 . S
C272 C271 1.459 . S
C272 C273 1.445 1_565 S
C272 C281 1.395 . S
C273 C251 1.432 . S
C273 C272 1.445 1_545 S
C273 C274 1.370 . S
C274 C273 1.370 . S
C274 C275 1.438 . S
C274 H336 0.930 . S
C275 C261 1.497 . S
C275 C274 1.438 . S
C275 C276 1.360 . S
C276 C275 1.360 . S
C276 C277 1.405 . S
C276 C281 1.446 1_545 S
C277 C276 1.405 . S
C277 C278 1.334 1_546 S
C277 H337 0.939 . S
C278 C277 1.334 1_564 S
C278 C279 1.455 . S
C278 H338 0.930 . S
C279 C266 1.412 . S
C279 C278 1.455 . S
C279 C280 1.331 . S
C280 C269 1.451 . S
C280 C279 1.331 . S
C280 C281 1.497 1_554 S
C281 C272 1.395 . S
C281 C276 1.446 1_565 S
C281 C280 1.497 1_556 S
C282 C283 1.582 . S
C282 H339 0.962 . S
C282 H340 0.959 . S
C282 H341 0.958 . S
C283 C282 1.582 . S
C283 O286 1.458 . S
C283 H312 0.980 . S
O284 C229 1.426 . S
O284 C230 1.334 . S
O285 C257 1.412 . S
O285 C258 1.393 . S
O286 C248 1.435 . S
O286 C283 1.458 . S
O287 C239 1.468 . S
O287 C240 1.408 . S
H288 C229 0.980 . S
H289 C228 0.959 . S
H290 C228 0.959 . S
H291 C228 0.960 . S
H292 C231 0.929 . S
H293 C235 0.929 . S
H294 C236 0.959 . S
H295 C236 0.961 . S
H296 C236 0.961 . S
H297 C237 0.960 . S
H298 C237 0.960 1_565 S
H299 C237 0.961 . S
H300 C239 0.980 . S
H301 C238 0.961 . S
H302 C238 0.960 . S
H303 C238 0.959 . S
H304 C241 0.930 . S
H305 C245 0.931 . S
H306 C246 0.959 . S
H307 C246 0.961 . S
H308 C246 0.959 . S
H309 C247 0.960 . S
H310 C247 0.960 . S
H311 C247 0.960 . S
H312 C283 0.980 . S
H313 C249 0.930 . S
H314 C253 0.930 1_565 S
H315 C254 0.961 . S
H316 C254 0.960 . S
H317 C254 0.958 . S
H318 C255 0.961 . S
H319 C255 0.960 . S
H320 C255 0.960 . S
H321 C257 0.980 . S
H322 C256 0.961 . S
H323 C256 0.961 . S
H324 C256 0.959 . S
H325 C259 0.932 . S
H326 C263 0.929 . S
H327 C264 0.961 . S
H328 C264 0.959 . S
H329 C264 0.959 . S
H330 C265 0.960 . S
H331 C265 0.962 . S
H332 C265 0.961 . S
H333 C267 0.929 . S
H334 C270 0.930 . S
H335 C271 0.929 . S
H336 C274 0.930 . S
H337 C277 0.939 . S
H338 C278 0.930 . S
H339 C282 0.962 . S
H340 C282 0.959 . S
H341 C282 0.958 . S
C342 C343 1.560 1_565 S
C342 H403 0.959 1_565 S
C342 H404 0.959 . S
C342 H405 0.960 . S
C343 C342 1.560 1_545 S
C343 O398 1.426 . S
C343 H402 0.980 . S
C344 C345 1.407 . S
C344 C349 1.418 . S
C344 O398 1.334 . S
C345 C344 1.407 . S
C345 C346 1.360 . S
C345 H406 0.929 . S
C346 C345 1.360 . S
C346 C347 1.401 . S
C346 C350 1.527 . S
C347 C346 1.401 . S
C347 C348 1.405 . S
C347 C380 1.587 . S
C348 C347 1.405 . S
C348 C349 1.332 . S
C348 C351 1.496 . S
C349 C344 1.418 . S
C349 C348 1.332 . S
C349 H407 0.929 . S
C350 C346 1.527 . S
C350 H408 0.959 . S
C350 H409 0.961 . S
C350 H410 0.961 . S
C351 C348 1.496 . S
C351 H411 0.960 . S
C351 H412 0.960 . S
C351 H413 0.961 . S
C352 C353 1.517 . S
C352 H415 0.961 . S
C352 H416 0.960 . S
C352 H417 0.959 . S
C353 C352 1.517 . S
C353 O401 1.468 . S
C353 H414 0.980 . S
C354 C355 1.349 . S
C354 C359 1.367 . S
C354 O401 1.408 . S
C355 C354 1.349 . S
C355 C356 1.407 . S
C355 H418 0.930 . S
C356 C355 1.407 . S
C356 C357 1.449 . S
C356 C360 1.535 . S
C357 C356 1.449 . S
C357 C358 1.384 . S
C357 C382 1.553 . S
C358 C357 1.384 . S
C358 C359 1.364 . S
C358 C361 1.450 . S
C359 C354 1.367 . S
C359 C358 1.364 . S
C359 H419 0.931 . S
C360 C356 1.535 . S
C360 H420 0.959 . S
C360 H421 0.961 . S
C360 H422 0.959 . S
C361 C358 1.450 . S
C361 H423 0.960 . S
C361 H424 0.960 . S
C361 H425 0.960 . S
C362 C363 1.309 . S
C362 C367 1.304 . S
C362 O400 1.435 . S
C363 C362 1.309 . S
C363 C364 1.476 . S
C363 H427 0.930 . S
C364 C363 1.476 . S
C364 C365 1.400 . S
C364 C368 1.567 . S
C365 C364 1.400 . S
C365 C366 1.373 . S
C365 C387 1.432 . S
C366 C365 1.373 . S
C366 C367 1.339 . S
C366 C369 1.530 . S
C367 C362 1.304 . S
C367 C366 1.339 . S
C367 H428 0.930 . S
C368 C364 1.567 . S
C368 H429 0.961 . S
C368 H430 0.960 . S
C368 H431 0.958 . S
C369 C366 1.530 . S
C369 H432 0.961 . S
C369 H433 0.960 . S
C369 H434 0.960 . S
C370 C371 1.530 1_565 S
C370 H436 0.961 . S
C370 H437 0.961 . S
C370 H438 0.959 . S
C371 C370 1.530 1_545 S
C371 O399 1.412 . S
C371 H435 0.980 1_545 S
C372 C373 1.288 . S
C372 C377 1.377 . S
C372 O399 1.393 . S
C373 C372 1.288 . S
C373 C374 1.369 . S
C373 H439 0.932 . S
C374 C373 1.369 . S
C374 C375 1.398 . S
C374 C378 1.527 . S
C375 C374 1.398 . S
C375 C376 1.380 . S
C375 C389 1.497 . S
C376 C375 1.380 . S
C376 C377 1.383 . S
C376 C379 1.603 . S
C377 C372 1.377 . S
C377 C376 1.383 . S
C377 H440 0.929 . S
C378 C374 1.527 . S
C378 H441 0.961 . S
C378 H442 0.959 . S
C378 H443 0.959 . S
C379 C376 1.603 . S
C379 H444 0.960 . S
C379 H445 0.962 . S
C379 H446 0.961 . S
C380 C347 1.587 . S
C380 C381 1.360 . S
C380 C393 1.412 . S
C381 C380 1.360 . S
C381 C382 1.365 . S
C381 H447 0.929 . S
C382 C357 1.553 . S
C382 C381 1.365 . S
C382 C383 1.404 . S
C383 C382 1.404 . S
C383 C384 1.395 . S
C383 C394 1.451 . S
C384 C383 1.395 . S
C384 C385 1.322 . S
C384 H448 0.930 . S
C385 C384 1.322 . S
C385 C386 1.459 . S
C385 H449 0.929 . S
C386 C385 1.459 . S
C386 C387 1.445 . S
C386 C395 1.395 . S
C387 C365 1.432 . S
C387 C386 1.445 . S
C387 C388 1.370 . S
C388 C387 1.370 . S
C388 C389 1.438 . S
C388 H450 0.930 . S
C389 C375 1.497 . S
C389 C388 1.438 . S
C389 C390 1.360 . S
C390 C389 1.360 . S
C390 C391 1.401 . S
C390 C395 1.446 . S
C391 C390 1.401 . S
C391 C392 1.347 . S
C391 H451 0.929 . S
C392 C391 1.347 . S
C392 C393 1.455 . S
C392 H452 0.930 . S
C393 C380 1.412 . S
C393 C392 1.455 . S
C393 C394 1.331 . S
C394 C383 1.451 . S
C394 C393 1.331 . S
C394 C395 1.497 . S
C395 C386 1.395 . S
C395 C390 1.446 . S
C395 C394 1.497 . S
C396 C397 1.582 . S
C396 H453 0.962 . S
C396 H454 0.959 . S
C396 H455 0.958 . S
C397 C396 1.582 . S
C397 O400 1.458 . S
C397 H426 0.980 . S
O398 C343 1.426 . S
O398 C344 1.334 . S
O399 C371 1.412 . S
O399 C372 1.393 . S
O400 C362 1.435 . S
O400 C397 1.458 . S
O401 C353 1.468 . S
O401 C354 1.408 . S
H402 C343 0.980 . S
H403 C342 0.959 1_545 S
H404 C342 0.959 . S
H405 C342 0.960 . S
H406 C345 0.929 . S
H407 C349 0.929 . S
H408 C350 0.959 . S
H409 C350 0.961 . S
H410 C350 0.961 . S
H411 C351 0.960 . S
H412 C351 0.960 . S
H413 C351 0.961 . S
H414 C353 0.980 . S
H415 C352 0.961 . S
H416 C352 0.960 . S
H417 C352 0.959 . S
H418 C355 0.930 . S
H419 C359 0.931 . S
H420 C360 0.959 . S
H421 C360 0.961 . S
H422 C360 0.959 . S
H423 C361 0.960 . S
H424 C361 0.960 . S
H425 C361 0.960 . S
H426 C397 0.980 . S
H427 C363 0.930 . S
H428 C367 0.930 . S
H429 C368 0.961 . S
H430 C368 0.960 . S
H431 C368 0.958 . S
H432 C369 0.961 . S
H433 C369 0.960 . S
H434 C369 0.960 . S
H435 C371 0.980 1_565 S
H436 C370 0.961 . S
H437 C370 0.961 . S
H438 C370 0.959 . S
H439 C373 0.932 . S
H440 C377 0.929 . S
H441 C378 0.961 . S
H442 C378 0.959 . S
H443 C378 0.959 . S
H444 C379 0.960 . S
H445 C379 0.962 . S
H446 C379 0.961 . S
H447 C381 0.929 . S
H448 C384 0.930 . S
H449 C385 0.929 . S
H450 C388 0.930 . S
H451 C391 0.929 . S
H452 C392 0.930 . S
H453 C396 0.962 . S
H454 C396 0.959 . S
H455 C396 0.958 . S
C456 C457 1.560 . S
C456 H517 0.959 . S
C456 H518 0.959 . S
C456 H519 0.960 . S
C457 C456 1.560 . S
C457 O512 1.426 . S
C457 H516 0.980 . S
C458 C459 1.407 . S
C458 C463 1.418 . S
C458 O512 1.334 . S
C459 C458 1.407 . S
C459 C460 1.360 . S
C459 H520 0.929 . S
C460 C459 1.360 . S
C460 C461 1.401 . S
C460 C464 1.527 . S
C461 C460 1.401 . S
C461 C462 1.405 . S
C461 C494 1.587 . S
C462 C461 1.405 . S
C462 C463 1.332 . S
C462 C465 1.496 . S
C463 C458 1.418 . S
C463 C462 1.332 . S
C463 H521 0.929 . S
C464 C460 1.527 . S
C464 H522 0.959 . S
C464 H523 0.961 . S
C464 H524 0.961 . S
C465 C462 1.496 . S
C465 H525 0.960 . S
C465 H526 0.960 . S
C465 H527 0.961 . S
C466 C467 1.517 . S
C466 H529 0.961 . S
C466 H530 0.960 . S
C466 H531 0.959 . S
C467 C466 1.517 . S
C467 O515 1.468 1_565 S
C467 H528 0.980 1_565 S
C468 C469 1.349 . S
C468 C473 1.367 . S
C468 O515 1.408 . S
C469 C468 1.349 . S
C469 C470 1.407 . S
C469 H532 0.930 . S
C470 C469 1.407 . S
C470 C471 1.449 . S
C470 C474 1.535 . S
C471 C470 1.449 . S
C471 C472 1.384 . S
C471 C496 1.553 . S
C472 C471 1.384 . S
C472 C473 1.364 . S
C472 C475 1.450 . S
C473 C468 1.367 . S
C473 C472 1.364 . S
C473 H533 0.931 . S
C474 C470 1.535 . S
C474 H534 0.959 . S
C474 H535 0.961 . S
C474 H536 0.959 . S
C475 C472 1.450 . S
C475 H537 0.960 . S
C475 H538 0.960 . S
C475 H539 0.960 . S
C476 C477 1.309 . S
C476 C481 1.304 . S
C476 O514 1.435 . S
C477 C476 1.309 . S
C477 C478 1.476 . S
C477 H541 0.930 . S
C478 C477 1.476 . S
C478 C479 1.400 . S
C478 C482 1.567 . S
C479 C478 1.400 . S
C479 C480 1.373 . S
C479 C501 1.432 . S
C480 C479 1.373 . S
C480 C481 1.339 . S
C480 C483 1.530 . S
C481 C476 1.304 . S
C481 C480 1.339 . S
C481 H542 0.930 . S
C482 C478 1.567 . S
C482 H543 0.961 . S
C482 H544 0.960 . S
C482 H545 0.958 . S
C483 C480 1.530 . S
C483 H546 0.961 . S
C483 H547 0.960 . S
C483 H548 0.960 . S
C484 C485 1.530 . S
C484 H550 0.961 . S
C484 H551 0.961 . S
C484 H552 0.959 . S
C485 C484 1.530 . S
C485 O513 1.412 . S
C485 H549 0.980 . S
C486 C487 1.288 . S
C486 C491 1.377 . S
C486 O513 1.393 . S
C487 C486 1.288 . S
C487 C488 1.369 . S
C487 H553 0.932 . S
C488 C487 1.369 . S
C488 C489 1.398 . S
C488 C492 1.527 . S
C489 C488 1.398 . S
C489 C490 1.380 . S
C489 C503 1.497 . S
C490 C489 1.380 . S
C490 C491 1.383 . S
C490 C493 1.603 . S
C491 C486 1.377 . S
C491 C490 1.383 . S
C491 H554 0.929 . S
C492 C488 1.527 . S
C492 H555 0.961 . S
C492 H556 0.959 . S
C492 H557 0.959 . S
C493 C490 1.603 . S
C493 H558 0.960 . S
C493 H559 0.962 . S
C493 H560 0.961 . S
C494 C461 1.587 . S
C494 C495 1.360 . S
C494 C507 1.412 . S
C495 C494 1.360 . S
C495 C496 1.365 . S
C495 H561 0.929 . S
C496 C471 1.553 . S
C496 C495 1.365 . S
C496 C497 1.404 . S
C497 C496 1.404 . S
C497 C498 1.395 . S
C497 C508 1.451 . S
C498 C497 1.395 . S
C498 C499 1.322 . S
C498 H562 0.930 . S
C499 C498 1.322 . S
C499 C500 1.459 . S
C499 H563 0.929 . S
C500 C499 1.459 . S
C500 C501 1.445 . S
C500 C509 1.395 . S
C501 C479 1.432 . S
C501 C500 1.445 . S
C501 C502 1.370 . S
C502 C501 1.370 . S
C502 C503 1.438 . S
C502 H564 0.930 . S
C503 C489 1.497 . S
C503 C502 1.438 . S
C503 C504 1.360 . S
C504 C503 1.360 . S
C504 C505 1.401 . S
C504 C509 1.446 . S
C505 C504 1.401 . S
C505 C506 1.347 . S
C505 H565 0.929 . S
C506 C505 1.347 . S
C506 C507 1.455 . S
C506 H566 0.930 . S
C507 C494 1.412 . S
C507 C506 1.455 . S
C507 C508 1.331 . S
C508 C497 1.451 . S
C508 C507 1.331 . S
C508 C509 1.497 . S
C509 C500 1.395 . S
C509 C504 1.446 . S
C509 C508 1.497 . S
C510 C511 1.582 . S
C510 H567 0.962 . S
C510 H568 0.959 . S
C510 H569 0.958 . S
C511 C510 1.582 . S
C511 O514 1.458 1_565 S
C511 H540 0.980 . S
O512 C457 1.426 . S
O512 C458 1.334 . S
O513 C485 1.412 . S
O513 C486 1.393 . S
O514 C476 1.435 . S
O514 C511 1.458 1_545 S
O515 C467 1.468 1_545 S
O515 C468 1.408 . S
H516 C457 0.980 . S
H517 C456 0.959 . S
H518 C456 0.959 . S
H519 C456 0.960 . S
H520 C459 0.929 . S
H521 C463 0.929 . S
H522 C464 0.959 . S
H523 C464 0.961 . S
H524 C464 0.961 . S
H525 C465 0.960 . S
H526 C465 0.960 . S
H527 C465 0.961 . S
H528 C467 0.980 1_545 S
H529 C466 0.961 . S
H530 C466 0.960 . S
H531 C466 0.959 . S
H532 C469 0.930 . S
H533 C473 0.931 . S
H534 C474 0.959 . S
H535 C474 0.961 . S
H536 C474 0.959 . S
H537 C475 0.960 . S
H538 C475 0.960 . S
H539 C475 0.960 . S
H540 C511 0.980 . S
H541 C477 0.930 . S
H542 C481 0.930 . S
H543 C482 0.961 . S
H544 C482 0.960 . S
H545 C482 0.958 . S
H546 C483 0.961 . S
H547 C483 0.960 . S
H548 C483 0.960 . S
H549 C485 0.980 . S
H550 C484 0.961 . S
H551 C484 0.961 . S
H552 C484 0.959 . S
H553 C487 0.932 . S
H554 C491 0.929 . S
H555 C492 0.961 . S
H556 C492 0.959 . S
H557 C492 0.959 . S
H558 C493 0.960 . S
H559 C493 0.962 . S
H560 C493 0.961 . S
H561 C495 0.929 . S
H562 C498 0.930 . S
H563 C499 0.929 . S
H564 C502 0.930 . S
H565 C505 0.929 . S
H566 C506 0.930 . S
H567 C510 0.962 . S
H568 C510 0.959 . S
H569 C510 0.958 . S
C570 C571 1.560 . S
C570 H631 0.959 . S
C570 H632 0.959 . S
C570 H633 0.960 . S
C571 C570 1.560 . S
C571 O626 1.426 . S
C571 H630 0.980 . S
C572 C573 1.407 . S
C572 C577 1.418 . S
C572 O626 1.334 . S
C573 C572 1.407 . S
C573 C574 1.360 . S
C573 H634 0.929 . S
C574 C573 1.360 . S
C574 C575 1.401 . S
C574 C578 1.527 . S
C575 C574 1.401 . S
C575 C576 1.405 . S
C575 C608 1.587 . S
C576 C575 1.405 . S
C576 C577 1.332 . S
C576 C579 1.496 . S
C577 C572 1.418 . S
C577 C576 1.332 . S
C577 H635 0.929 . S
C578 C574 1.527 . S
C578 H636 0.959 . S
C578 H637 0.961 . S
C578 H638 0.961 . S
C579 C576 1.496 . S
C579 H639 0.960 . S
C579 H640 0.960 . S
C579 H641 0.961 . S
C580 C581 1.517 . S
C580 H643 0.961 . S
C580 H644 0.960 . S
C580 H645 0.959 . S
C581 C580 1.517 . S
C581 O629 1.468 1_545 S
C581 H642 0.980 1_545 S
C582 C583 1.349 . S
C582 C587 1.367 . S
C582 O629 1.408 . S
C583 C582 1.349 . S
C583 C584 1.407 . S
C583 H646 0.930 . S
C584 C583 1.407 . S
C584 C585 1.449 . S
C584 C588 1.535 . S
C585 C584 1.449 . S
C585 C586 1.384 . S
C585 C610 1.553 . S
C586 C585 1.384 . S
C586 C587 1.364 . S
C586 C589 1.450 . S
C587 C582 1.367 . S
C587 C586 1.364 . S
C587 H647 0.931 . S
C588 C584 1.535 . S
C588 H648 0.959 . S
C588 H649 0.961 . S
C588 H650 0.959 . S
C589 C586 1.450 . S
C589 H651 0.960 . S
C589 H652 0.960 . S
C589 H653 0.960 . S
C590 C591 1.309 . S
C590 C595 1.304 . S
C590 O628 1.435 . S
C591 C590 1.309 . S
C591 C592 1.476 . S
C591 H655 0.930 . S
C592 C591 1.476 . S
C592 C593 1.400 . S
C592 C596 1.567 . S
C593 C592 1.400 . S
C593 C594 1.373 . S
C593 C615 1.432 . S
C594 C593 1.373 . S
C594 C595 1.339 . S
C594 C597 1.530 . S
C595 C590 1.304 . S
C595 C594 1.339 . S
C595 H656 0.930 . S
C596 C592 1.567 . S
C596 H657 0.961 . S
C596 H658 0.960 . S
C596 H659 0.958 . S
C597 C594 1.530 . S
C597 H660 0.961 . S
C597 H661 0.960 . S
C597 H662 0.960 . S
C598 C599 1.530 . S
C598 H664 0.961 . S
C598 H665 0.961 . S
C598 H666 0.959 . S
C599 C598 1.530 . S
C599 O627 1.412 . S
C599 H663 0.980 . S
C600 C601 1.288 . S
C600 C605 1.377 . S
C600 O627 1.393 . S
C601 C600 1.288 . S
C601 C602 1.369 . S
C601 H667 0.932 . S
C602 C601 1.369 . S
C602 C603 1.398 . S
C602 C606 1.527 . S
C603 C602 1.398 . S
C603 C604 1.380 . S
C603 C617 1.497 . S
C604 C603 1.380 . S
C604 C605 1.383 . S
C604 C607 1.603 . S
C605 C600 1.377 . S
C605 C604 1.383 . S
C605 H668 0.929 . S
C606 C602 1.527 . S
C606 H669 0.961 . S
C606 H670 0.959 . S
C606 H671 0.959 . S
C607 C604 1.603 . S
C607 H672 0.960 . S
C607 H673 0.962 . S
C607 H674 0.961 . S
C608 C575 1.587 . S
C608 C609 1.360 . S
C608 C621 1.412 . S
C609 C608 1.360 . S
C609 C610 1.365 . S
C609 H675 0.929 . S
C610 C585 1.553 . S
C610 C609 1.365 . S
C610 C611 1.404 . S
C611 C610 1.404 . S
C611 C612 1.395 . S
C611 C622 1.451 . S
C612 C611 1.395 . S
C612 C613 1.322 . S
C612 H676 0.930 . S
C613 C612 1.322 . S
C613 C614 1.459 . S
C613 H677 0.929 . S
C614 C613 1.459 . S
C614 C615 1.445 . S
C614 C623 1.395 . S
C615 C593 1.432 . S
C615 C614 1.445 . S
C615 C616 1.370 . S
C616 C615 1.370 . S
C616 C617 1.438 . S
C616 H678 0.930 . S
C617 C603 1.497 . S
C617 C616 1.438 . S
C617 C618 1.360 . S
C618 C617 1.360 . S
C618 C619 1.401 . S
C618 C623 1.446 . S
C619 C618 1.401 . S
C619 C620 1.347 . S
C619 H679 0.929 . S
C620 C619 1.347 . S
C620 C621 1.455 . S
C620 H680 0.930 . S
C621 C608 1.412 . S
C621 C620 1.455 . S
C621 C622 1.331 . S
C622 C611 1.451 . S
C622 C621 1.331 . S
C622 C623 1.497 . S
C623 C614 1.395 . S
C623 C618 1.446 . S
C623 C622 1.497 . S
C624 C625 1.582 . S
C624 H681 0.962 . S
C624 H682 0.959 . S
C624 H683 0.958 . S
C625 C624 1.582 . S
C625 O628 1.458 1_545 S
C625 H654 0.980 . S
O626 C571 1.426 . S
O626 C572 1.334 . S
O627 C599 1.412 . S
O627 C600 1.393 . S
O628 C590 1.435 . S
O628 C625 1.458 1_565 S
O629 C581 1.468 1_565 S
O629 C582 1.408 . S
H630 C571 0.980 . S
H631 C570 0.959 . S
H632 C570 0.959 . S
H633 C570 0.960 . S
H634 C573 0.929 . S
H635 C577 0.929 . S
H636 C578 0.959 . S
H637 C578 0.961 . S
H638 C578 0.961 . S
H639 C579 0.960 . S
H640 C579 0.960 . S
H641 C579 0.961 . S
H642 C581 0.980 1_565 S
H643 C580 0.961 . S
H644 C580 0.960 . S
H645 C580 0.959 . S
H646 C583 0.930 . S
H647 C587 0.931 . S
H648 C588 0.959 . S
H649 C588 0.961 . S
H650 C588 0.959 . S
H651 C589 0.960 . S
H652 C589 0.960 . S
H653 C589 0.960 . S
H654 C625 0.980 . S
H655 C591 0.930 . S
H656 C595 0.930 . S
H657 C596 0.961 . S
H658 C596 0.960 . S
H659 C596 0.958 . S
H660 C597 0.961 . S
H661 C597 0.960 . S
H662 C597 0.960 . S
H663 C599 0.980 . S
H664 C598 0.961 . S
H665 C598 0.961 . S
H666 C598 0.959 . S
H667 C601 0.932 . S
H668 C605 0.929 . S
H669 C606 0.961 . S
H670 C606 0.959 . S
H671 C606 0.959 . S
H672 C607 0.960 . S
H673 C607 0.962 . S
H674 C607 0.961 . S
H675 C609 0.929 . S
H676 C612 0.930 . S
H677 C613 0.929 . S
H678 C616 0.930 . S
H679 C619 0.929 . S
H680 C620 0.930 . S
H681 C624 0.962 . S
H682 C624 0.959 . S
H683 C624 0.958 . S
C684 C685 1.560 . S
C684 H745 0.959 . S
C684 H746 0.959 . S
C684 H747 0.960 . S
C685 C684 1.560 . S
C685 O740 1.426 . S
C685 H744 0.980 . S
C686 C687 1.407 . S
C686 C691 1.418 . S
C686 O740 1.334 . S
C687 C686 1.407 . S
C687 C688 1.360 . S
C687 H748 0.929 . S
C688 C687 1.360 . S
C688 C689 1.401 . S
C688 C692 1.527 . S
C689 C688 1.401 . S
C689 C690 1.405 . S
C689 C722 1.587 . S
C690 C689 1.405 . S
C690 C691 1.332 . S
C690 C693 1.496 . S
C691 C686 1.418 . S
C691 C690 1.332 . S
C691 H749 0.929 . S
C692 C688 1.527 . S
C692 H750 0.959 . S
C692 H751 0.961 . S
C692 H752 0.961 . S
C693 C690 1.496 . S
C693 H753 0.960 . S
C693 H754 0.960 . S
C693 H755 0.961 . S
C694 C695 1.517 . S
C694 H757 0.961 . S
C694 H758 0.960 . S
C694 H759 0.959 . S
C695 C694 1.517 . S
C695 O743 1.468 . S
C695 H756 0.980 . S
C696 C697 1.349 . S
C696 C701 1.367 . S
C696 O743 1.408 . S
C697 C696 1.349 . S
C697 C698 1.407 . S
C697 H760 0.930 . S
C698 C697 1.407 . S
C698 C699 1.449 . S
C698 C702 1.535 . S
C699 C698 1.449 . S
C699 C700 1.384 . S
C699 C724 1.553 . S
C700 C699 1.384 . S
C700 C701 1.364 . S
C700 C703 1.450 . S
C701 C696 1.367 . S
C701 C700 1.364 . S
C701 H761 0.931 . S
C702 C698 1.535 . S
C702 H762 0.959 . S
C702 H763 0.961 . S
C702 H764 0.959 . S
C703 C700 1.450 . S
C703 H765 0.960 . S
C703 H766 0.960 . S
C703 H767 0.960 . S
C704 C705 1.309 . S
C704 C709 1.304 . S
C704 O742 1.435 . S
C705 C704 1.309 . S
C705 C706 1.476 . S
C705 H769 0.930 . S
C706 C705 1.476 . S
C706 C707 1.400 . S
C706 C710 1.567 . S
C707 C706 1.400 . S
C707 C708 1.373 . S
C707 C729 1.432 . S
C708 C707 1.373 . S
C708 C709 1.339 . S
C708 C711 1.530 . S
C709 C704 1.304 . S
C709 C708 1.339 . S
C709 H770 0.930 . S
C710 C706 1.567 . S
C710 H771 0.961 . S
C710 H772 0.960 . S
C710 H773 0.958 . S
C711 C708 1.530 . S
C711 H774 0.961 . S
C711 H775 0.960 1_556 S
C711 H776 0.960 . S
C712 C713 1.530 . S
C712 H778 0.961 . S
C712 H779 0.961 . S
C712 H780 0.959 . S
C713 C712 1.530 . S
C713 O741 1.412 . S
C713 H777 0.980 . S
C714 C715 1.288 . S
C714 C719 1.377 . S
C714 O741 1.393 . S
C715 C714 1.288 . S
C715 C716 1.369 . S
C715 H781 0.932 . S
C716 C715 1.369 . S
C716 C717 1.398 . S
C716 C720 1.527 . S
C717 C716 1.398 . S
C717 C718 1.380 . S
C717 C731 1.497 . S
C718 C717 1.380 . S
C718 C719 1.383 . S
C718 C721 1.603 . S
C719 C714 1.377 . S
C719 C718 1.383 . S
C719 H782 0.929 . S
C720 C716 1.527 . S
C720 H783 0.961 . S
C720 H784 0.959 . S
C720 H785 0.959 . S
C721 C718 1.603 . S
C721 H786 0.960 . S
C721 H787 0.962 . S
C721 H788 0.961 . S
C722 C689 1.587 . S
C722 C723 1.360 . S
C722 C735 1.412 . S
C723 C722 1.360 . S
C723 C724 1.365 . S
C723 H789 0.929 . S
C724 C699 1.553 . S
C724 C723 1.365 . S
C724 C725 1.404 . S
C725 C724 1.404 . S
C725 C726 1.395 . S
C725 C736 1.451 . S
C726 C725 1.395 . S
C726 C727 1.322 . S
C726 H790 0.930 . S
C727 C726 1.322 . S
C727 C728 1.421 1_554 S
C727 H791 0.929 . S
C728 C727 1.421 1_556 S
C728 C729 1.509 . S
C728 C737 1.372 1_556 S
C729 C707 1.432 . S
C729 C728 1.509 . S
C729 C730 1.370 . S
C730 C729 1.370 . S
C730 C731 1.438 . S
C730 H792 0.930 . S
C731 C717 1.497 . S
C731 C730 1.438 . S
C731 C732 1.360 . S
C732 C731 1.360 . S
C732 C733 1.401 1_556 S
C732 C737 1.446 1_556 S
C733 C732 1.401 1_554 S
C733 C734 1.347 . S
C733 H793 0.929 1_554 S
C734 C733 1.347 . S
C734 C735 1.455 . S
C734 H794 0.930 . S
C735 C722 1.412 . S
C735 C734 1.455 . S
C735 C736 1.331 . S
C736 C725 1.451 . S
C736 C735 1.331 . S
C736 C737 1.497 . S
C737 C728 1.372 1_554 S
C737 C732 1.446 1_554 S
C737 C736 1.497 . S
C738 C739 1.582 . S
C738 H795 0.962 . S
C738 H796 0.959 . S
C738 H797 0.958 . S
C739 C738 1.582 . S
C739 O742 1.458 . S
C739 H768 0.980 . S
O740 C685 1.426 . S
O740 C686 1.334 . S
O741 C713 1.412 . S
O741 C714 1.393 . S
O742 C704 1.435 . S
O742 C739 1.458 . S
O743 C695 1.468 . S
O743 C696 1.408 . S
H744 C685 0.980 . S
H745 C684 0.959 . S
H746 C684 0.959 . S
H747 C684 0.960 . S
H748 C687 0.929 . S
H749 C691 0.929 . S
H750 C692 0.959 . S
H751 C692 0.961 . S
H752 C692 0.961 . S
H753 C693 0.960 . S
H754 C693 0.960 . S
H755 C693 0.961 . S
H756 C695 0.980 . S
H757 C694 0.961 . S
H758 C694 0.960 . S
H759 C694 0.959 . S
H760 C697 0.930 . S
H761 C701 0.931 . S
H762 C702 0.959 . S
H763 C702 0.961 . S
H764 C702 0.959 . S
H765 C703 0.960 . S
H766 C703 0.960 . S
H767 C703 0.960 . S
H768 C739 0.980 . S
H769 C705 0.930 . S
H770 C709 0.930 . S
H771 C710 0.961 . S
H772 C710 0.960 . S
H773 C710 0.958 . S
H774 C711 0.961 . S
H775 C711 0.960 1_554 S
H776 C711 0.960 . S
H777 C713 0.980 . S
H778 C712 0.961 . S
H779 C712 0.961 . S
H780 C712 0.959 . S
H781 C715 0.932 . S
H782 C719 0.929 . S
H783 C720 0.961 . S
H784 C720 0.959 . S
H785 C720 0.959 . S
H786 C721 0.960 . S
H787 C721 0.962 . S
H788 C721 0.961 . S
H789 C723 0.929 . S
H790 C726 0.930 . S
H791 C727 0.929 . S
H792 C730 0.930 . S
H793 C733 0.929 1_556 S
H794 C734 0.930 . S
H795 C738 0.962 . S
H796 C738 0.959 . S
H797 C738 0.958 . S
C798 C799 1.560 . S
C798 H859 0.959 . S
C798 H860 0.959 . S
C798 H861 0.960 . S
C799 C798 1.560 . S
C799 O854 1.426 . S
C799 H858 0.980 . S
C800 C801 1.407 . S
C800 C805 1.418 . S
C800 O854 1.334 . S
C801 C800 1.407 . S
C801 C802 1.360 . S
C801 H862 0.929 . S
C802 C801 1.360 . S
C802 C803 1.401 . S
C802 C806 1.527 . S
C803 C802 1.401 . S
C803 C804 1.405 . S
C803 C836 1.587 . S
C804 C803 1.405 . S
C804 C805 1.332 . S
C804 C807 1.496 . S
C805 C800 1.418 . S
C805 C804 1.332 . S
C805 H863 0.929 . S
C806 C802 1.527 . S
C806 H864 0.959 . S
C806 H865 0.961 . S
C806 H866 0.961 . S
C807 C804 1.496 . S
C807 H867 0.960 . S
C807 H868 0.960 . S
C807 H869 0.961 . S
C808 C809 1.517 . S
C808 H871 0.961 . S
C808 H872 0.960 . S
C808 H873 0.959 . S
C809 C808 1.517 . S
C809 O857 1.468 . S
C809 H870 0.980 . S
C810 C811 1.349 . S
C810 C815 1.367 . S
C810 O857 1.408 . S
C811 C810 1.349 . S
C811 C812 1.407 . S
C811 H874 0.930 . S
C812 C811 1.407 . S
C812 C813 1.449 . S
C812 C816 1.535 . S
C813 C812 1.449 . S
C813 C814 1.384 . S
C813 C838 1.553 . S
C814 C813 1.384 . S
C814 C815 1.364 . S
C814 C817 1.450 . S
C815 C810 1.367 . S
C815 C814 1.364 . S
C815 H875 0.931 . S
C816 C812 1.535 . S
C816 H876 0.959 . S
C816 H877 0.961 . S
C816 H878 0.959 . S
C817 C814 1.450 . S
C817 H879 0.960 . S
C817 H880 0.960 . S
C817 H881 0.960 . S
C818 C819 1.309 . S
C818 C823 1.304 . S
C818 O856 1.435 . S
C819 C818 1.309 . S
C819 C820 1.476 . S
C819 H883 0.930 . S
C820 C819 1.476 . S
C820 C821 1.400 . S
C820 C824 1.567 . S
C821 C820 1.400 . S
C821 C822 1.373 . S
C821 C843 1.432 . S
C822 C821 1.373 . S
C822 C823 1.339 . S
C822 C825 1.530 . S
C823 C818 1.304 . S
C823 C822 1.339 . S
C823 H884 0.930 . S
C824 C820 1.567 . S
C824 H885 0.961 . S
C824 H886 0.960 . S
C824 H887 0.958 . S
C825 C822 1.530 . S
C825 H888 0.961 . S
C825 H889 0.960 . S
C825 H890 0.960 . S
C826 C827 1.530 . S
C826 H892 0.961 . S
C826 H893 0.961 . S
C826 H894 0.959 . S
C827 C826 1.530 . S
C827 O855 1.412 . S
C827 H891 0.980 . S
C828 C829 1.288 . S
C828 C833 1.377 . S
C828 O855 1.393 . S
C829 C828 1.288 . S
C829 C830 1.369 . S
C829 H895 0.932 . S
C830 C829 1.369 . S
C830 C831 1.398 . S
C830 C834 1.527 . S
C831 C830 1.398 . S
C831 C832 1.380 . S
C831 C845 1.497 . S
C832 C831 1.380 . S
C832 C833 1.383 . S
C832 C835 1.603 . S
C833 C828 1.377 . S
C833 C832 1.383 . S
C833 H896 0.929 . S
C834 C830 1.527 . S
C834 H897 0.961 . S
C834 H898 0.959 . S
C834 H899 0.959 . S
C835 C832 1.603 . S
C835 H900 0.960 . S
C835 H901 0.962 . S
C835 H902 0.961 . S
C836 C803 1.587 . S
C836 C837 1.360 1_655 S
C836 C849 1.412 . S
C837 C836 1.360 1_455 S
C837 C838 1.365 . S
C837 H903 0.929 . S
C838 C813 1.553 . S
C838 C837 1.365 . S
C838 C839 1.404 . S
C839 C838 1.404 . S
C839 C840 1.395 . S
C839 C850 1.451 . S
C840 C839 1.395 . S
C840 C841 1.322 . S
C840 H904 0.930 . S
C841 C840 1.322 . S
C841 C842 1.459 . S
C841 H905 0.929 . S
C842 C841 1.459 . S
C842 C843 1.445 . S
C842 C851 1.395 . S
C843 C821 1.432 . S
C843 C842 1.445 . S
C843 C844 1.370 . S
C844 C843 1.370 . S
C844 C845 1.438 1_455 S
C844 H906 0.930 . S
C845 C831 1.497 . S
C845 C844 1.438 1_655 S
C845 C846 1.360 . S
C846 C845 1.360 . S
C846 C847 1.401 . S
C846 C851 1.446 1_655 S
C847 C846 1.401 . S
C847 C848 1.347 . S
C847 H907 0.929 . S
C848 C847 1.347 . S
C848 C849 1.455 . S
C848 H908 0.930 . S
C849 C836 1.412 . S
C849 C848 1.455 . S
C849 C850 1.331 1_655 S
C850 C839 1.451 . S
C850 C849 1.331 1_455 S
C850 C851 1.497 . S
C851 C842 1.395 . S
C851 C846 1.446 1_455 S
C851 C850 1.497 . S
C852 C853 1.582 . S
C852 H909 0.962 . S
C852 H910 0.959 . S
C852 H911 0.958 . S
C853 C852 1.582 . S
C853 O856 1.458 . S
C853 H882 0.980 . S
O854 C799 1.426 . S
O854 C800 1.334 . S
O855 C827 1.412 . S
O855 C828 1.393 . S
O856 C818 1.435 . S
O856 C853 1.458 . S
O857 C809 1.468 . S
O857 C810 1.408 . S
H858 C799 0.980 . S
H859 C798 0.959 . S
H860 C798 0.959 . S
H861 C798 0.960 . S
H862 C801 0.929 . S
H863 C805 0.929 . S
H864 C806 0.959 . S
H865 C806 0.961 . S
H866 C806 0.961 . S
H867 C807 0.960 . S
H868 C807 0.960 . S
H869 C807 0.961 . S
H870 C809 0.980 . S
H871 C808 0.961 . S
H872 C808 0.960 . S
H873 C808 0.959 . S
H874 C811 0.930 . S
H875 C815 0.931 . S
H876 C816 0.959 . S
H877 C816 0.961 . S
H878 C816 0.959 . S
H879 C817 0.960 . S
H880 C817 0.960 . S
H881 C817 0.960 . S
H882 C853 0.980 . S
H883 C819 0.930 . S
H884 C823 0.930 . S
H885 C824 0.961 . S
H886 C824 0.960 . S
H887 C824 0.958 . S
H888 C825 0.961 . S
H889 C825 0.960 . S
H890 C825 0.960 . S
H891 C827 0.980 . S
H892 C826 0.961 . S
H893 C826 0.961 . S
H894 C826 0.959 . S
H895 C829 0.932 . S
H896 C833 0.929 . S
H897 C834 0.961 . S
H898 C834 0.959 . S
H899 C834 0.959 . S
H900 C835 0.960 . S
H901 C835 0.962 . S
H902 C835 0.961 . S
H903 C837 0.929 . S
H904 C840 0.930 . S
H905 C841 0.929 . S
H906 C844 0.930 . S
H907 C847 0.929 . S
H908 C848 0.930 . S
H909 C852 0.962 . S
H910 C852 0.959 . S
H911 C852 0.958 . S
Fe912 O913 1.886 . S
Fe912 O916 1.715 1_455 S
Fe912 O921 2.077 . S
Fe912 O926 1.935 1_455 S
Fe912 O932 2.077 . S
Fe912 O941 1.935 1_455 S
O913 Fe912 1.886 . S
O913 Fe915 1.715 . S
Fe914 O916 1.886 . S
Fe914 O917 1.715 . S
Fe914 O924 1.935 . S
Fe914 O925 2.077 . S
Fe914 O931 1.935 . S
Fe914 O940 2.077 . S
Fe915 O913 1.715 . S
Fe915 O918 1.886 . S
Fe915 O922 1.935 . S
Fe915 O927 2.077 . S
Fe915 O933 1.935 . S
Fe915 O937 2.077 . S
O916 Fe912 1.715 1_655 S
O916 Fe914 1.886 . S
O917 Fe914 1.715 . S
O917 Fe919 1.886 1_655 S
O918 Fe915 1.886 . S
O918 Fe919 1.715 . S
Fe919 O917 1.886 1_455 S
Fe919 O918 1.715 . S
Fe919 O923 2.077 1_455 S
Fe919 O928 1.935 . S
Fe919 O930 2.077 1_455 S
Fe919 O938 1.935 . S
C920 O932 1.381 . S
C920 O933 1.421 . S
O921 Fe912 2.077 . S
O921 C934 1.381 . S
O922 Fe915 1.935 . S
O922 C934 1.421 . S
O923 Fe919 2.077 1_655 S
O923 C939 1.381 . S
O924 Fe914 1.935 . S
O924 C939 1.421 . S
O925 Fe914 2.077 . S
O925 C929 1.381 . S
O926 Fe912 1.935 1_655 S
O926 C929 1.421 . S
O927 Fe915 2.077 . S
O927 C935 1.381 . S
O928 Fe919 1.935 . S
O928 C935 1.421 . S
C929 O925 1.381 . S
C929 O926 1.421 . S
O930 Fe919 2.077 1_655 S
O930 C942 1.381 . S
O931 Fe914 1.935 . S
O931 C942 1.421 . S
O932 Fe912 2.077 . S
O932 C920 1.381 . S
O933 Fe915 1.935 . S
O933 C920 1.421 . S
C934 O921 1.381 . S
C934 O922 1.421 . S
C935 O927 1.381 . S
C935 O928 1.421 . S
C936 O937 1.381 . S
C936 O938 1.421 . S
O937 Fe915 2.077 . S
O937 C936 1.381 . S
O938 Fe919 1.935 . S
O938 C936 1.421 . S
C939 O923 1.381 . S
C939 O924 1.421 . S
O940 Fe914 2.077 . S
O940 C943 1.381 . S
O941 Fe912 1.935 1_655 S
O941 C943 1.421 . S
C942 O930 1.381 . S
C942 O931 1.421 . S
C943 O940 1.381 . S
C943 O941 1.421 . S
Fe944 O945 1.886 . S
Fe944 O948 1.715 . S
Fe944 O953 2.077 . S
Fe944 O958 1.935 . S
Fe944 O964 2.077 . S
Fe944 O973 1.935 . S
O945 Fe944 1.886 . S
O945 Fe947 1.715 . S
Fe946 O948 1.886 . S
Fe946 O949 1.715 . S
Fe946 O956 1.935 . S
Fe946 O957 2.077 . S
Fe946 O963 1.935 . S
Fe946 O972 2.077 . S
Fe947 O945 1.715 . S
Fe947 O950 1.886 . S
Fe947 O954 1.935 . S
Fe947 O959 2.077 . S
Fe947 O965 1.935 . S
Fe947 O969 2.077 . S
O948 Fe944 1.715 . S
O948 Fe946 1.886 . S
O949 Fe946 1.715 . S
O949 Fe951 1.886 . S
O950 Fe947 1.886 . S
O950 Fe951 1.715 . S
Fe951 O949 1.886 . S
Fe951 O950 1.715 . S
Fe951 O955 2.077 . S
Fe951 O960 1.935 . S
Fe951 O962 2.077 . S
Fe951 O970 1.935 . S
C952 O964 1.381 . S
C952 O965 1.421 . S
O953 Fe944 2.077 . S
O953 C966 1.381 . S
O954 Fe947 1.935 . S
O954 C966 1.421 . S
O955 Fe951 2.077 . S
O955 C971 1.381 . S
O956 Fe946 1.935 . S
O956 C971 1.421 . S
O957 Fe946 2.077 . S
O957 C961 1.381 . S
O958 Fe944 1.935 . S
O958 C961 1.421 . S
O959 Fe947 2.077 . S
O959 C967 1.381 . S
O960 Fe951 1.935 . S
O960 C967 1.421 . S
C961 O957 1.381 . S
C961 O958 1.421 . S
O962 Fe951 2.077 . S
O962 C974 1.381 . S
O963 Fe946 1.935 . S
O963 C974 1.421 . S
O964 Fe944 2.077 . S
O964 C952 1.381 . S
O965 Fe947 1.935 . S
O965 C952 1.421 . S
C966 O953 1.381 . S
C966 O954 1.421 . S
C967 O959 1.381 . S
C967 O960 1.421 . S
C968 O969 1.381 . S
C968 O970 1.421 . S
O969 Fe947 2.077 . S
O969 C968 1.381 . S
O970 Fe951 1.935 . S
O970 C968 1.421 . S
C971 O955 1.381 . S
C971 O956 1.421 . S
O972 Fe946 2.077 . S
O972 C975 1.381 . S
O973 Fe944 1.935 . S
O973 C975 1.421 . S
C974 O962 1.381 . S
C974 O963 1.421 . S
C975 O972 1.381 . S
C975 O973 1.421 . S
Fe976 O977 1.886 . S
Fe976 O980 1.715 . S
Fe976 O985 2.077 . S
Fe976 O990 1.935 . S
Fe976 O996 2.077 . S
Fe976 O1005 1.935 . S
O977 Fe976 1.886 . S
O977 Fe979 1.715 . S
Fe978 O980 1.886 . S
Fe978 O981 1.715 . S
Fe978 O988 1.935 . S
Fe978 O989 2.077 . S
Fe978 O995 1.935 . S
Fe978 O1004 2.077 . S
Fe979 O977 1.715 . S
Fe979 O982 1.886 . S
Fe979 O986 1.935 . S
Fe979 O991 2.077 . S
Fe979 O997 1.935 . S
Fe979 O1001 2.077 . S
O980 Fe976 1.715 . S
O980 Fe978 1.886 . S
O981 Fe978 1.715 . S
O981 Fe983 1.886 . S
O982 Fe979 1.886 . S
O982 Fe983 1.715 . S
Fe983 O981 1.886 . S
Fe983 O982 1.715 . S
Fe983 O987 2.077 . S
Fe983 O992 1.935 . S
Fe983 O994 2.077 . S
Fe983 O1002 1.935 . S
C984 O996 1.381 . S
C984 O997 1.421 . S
O985 Fe976 2.077 . S
O985 C998 1.381 . S
O986 Fe979 1.935 . S
O986 C998 1.421 . S
O987 Fe983 2.077 . S
O987 C1003 1.381 . S
O988 Fe978 1.935 . S
O988 C1003 1.421 . S
O989 Fe978 2.077 . S
O989 C993 1.381 . S
O990 Fe976 1.935 . S
O990 C993 1.421 . S
O991 Fe979 2.077 . S
O991 C999 1.381 . S
O992 Fe983 1.935 . S
O992 C999 1.421 . S
C993 O989 1.381 . S
C993 O990 1.421 . S
O994 Fe983 2.077 . S
O994 C1006 1.381 . S
O995 Fe978 1.935 . S
O995 C1006 1.421 . S
O996 Fe976 2.077 . S
O996 C984 1.381 . S
O997 Fe979 1.935 . S
O997 C984 1.421 . S
C998 O985 1.381 . S
C998 O986 1.421 . S
C999 O991 1.381 . S
C999 O992 1.421 . S
C1000 O1001 1.381 . S
C1000 O1002 1.421 . S
O1001 Fe979 2.077 . S
O1001 C1000 1.381 . S
O1002 Fe983 1.935 . S
O1002 C1000 1.421 . S
C1003 O987 1.381 . S
C1003 O988 1.421 . S
O1004 Fe978 2.077 . S
O1004 C1007 1.381 . S
O1005 Fe976 1.935 . S
O1005 C1007 1.421 . S
C1006 O994 1.381 . S
C1006 O995 1.421 . S
C1007 O1004 1.381 . S
C1007 O1005 1.421 . S
Fe1008 O1009 1.886 . S
Fe1008 O1012 1.715 . S
Fe1008 O1017 2.077 1_455 S
Fe1008 O1022 1.935 1_455 S
Fe1008 O1028 2.077 . S
Fe1008 O1037 1.935 . S
O1009 Fe1008 1.886 . S
O1009 Fe1011 1.715 . S
Fe1010 O1012 1.886 . S
Fe1010 O1013 1.715 . S
Fe1010 O1020 1.935 1_455 S
Fe1010 O1021 2.077 1_455 S
Fe1010 O1027 1.935 . S
Fe1010 O1036 2.077 . S
Fe1011 O1009 1.715 . S
Fe1011 O1014 1.886 . S
Fe1011 O1018 1.935 1_455 S
Fe1011 O1023 2.077 1_455 S
Fe1011 O1029 1.935 . S
Fe1011 O1033 2.077 . S
O1012 Fe1008 1.715 . S
O1012 Fe1010 1.886 . S
O1013 Fe1010 1.715 . S
O1013 Fe1015 1.886 . S
O1014 Fe1011 1.886 . S
O1014 Fe1015 1.715 . S
Fe1015 O1013 1.886 . S
Fe1015 O1014 1.715 . S
Fe1015 O1019 2.077 1_455 S
Fe1015 O1024 1.935 1_455 S
Fe1015 O1026 2.077 . S
Fe1015 O1034 1.935 . S
C1016 O1028 1.381 . S
C1016 O1029 1.421 . S
O1017 Fe1008 2.077 1_655 S
O1017 C1030 1.381 . S
O1018 Fe1011 1.935 1_655 S
O1018 C1030 1.421 . S
O1019 Fe1015 2.077 1_655 S
O1019 C1035 1.381 . S
O1020 Fe1010 1.935 1_655 S
O1020 C1035 1.421 . S
O1021 Fe1010 2.077 1_655 S
O1021 C1025 1.381 . S
O1022 Fe1008 1.935 1_655 S
O1022 C1025 1.421 . S
O1023 Fe1011 2.077 1_655 S
O1023 C1031 1.381 . S
O1024 Fe1015 1.935 1_655 S
O1024 C1031 1.421 . S
C1025 O1021 1.381 . S
C1025 O1022 1.421 . S
O1026 Fe1015 2.077 . S
O1026 C1038 1.381 . S
O1027 Fe1010 1.935 . S
O1027 C1038 1.421 . S
O1028 Fe1008 2.077 . S
O1028 C1016 1.381 . S
O1029 Fe1011 1.935 . S
O1029 C1016 1.421 . S
C1030 O1017 1.381 . S
C1030 O1018 1.421 . S
C1031 O1023 1.381 . S
C1031 O1024 1.421 . S
C1032 O1033 1.381 . S
C1032 O1034 1.421 . S
O1033 Fe1011 2.077 . S
O1033 C1032 1.381 . S
O1034 Fe1015 1.935 . S
O1034 C1032 1.421 . S
C1035 O1019 1.381 . S
C1035 O1020 1.421 . S
O1036 Fe1010 2.077 . S
O1036 C1039 1.381 . S
O1037 Fe1008 1.935 . S
O1037 C1039 1.421 . S
C1038 O1026 1.381 . S
C1038 O1027 1.421 . S
C1039 O1036 1.381 . S
C1039 O1037 1.421 . S
C1040 C1041 1.369 . S
C1040 C1042 1.419 . S
C1040 H1044 0.930 . S
C1041 C1040 1.369 . S
C1041 C1050 1.429 . S
C1042 C1040 1.419 . S
C1042 C1043 1.363 . S
C1042 H1045 0.929 . S
C1043 C1042 1.363 . S
C1043 C1049 1.428 . S
H1044 C1040 0.930 . S
H1045 C1042 0.929 . S
S1046 N1047 1.613 . S
S1046 N1048 1.610 . S
N1047 S1046 1.613 . S
N1047 C1050 1.350 . S
N1048 S1046 1.610 . S
N1048 C1049 1.351 . S
C1049 C1043 1.428 . S
C1049 N1048 1.351 . S
C1049 C1050 1.434 . S
C1050 C1041 1.429 . S
C1050 N1047 1.350 . S
C1050 C1049 1.434 . S
C1051 C1052 1.369 . S
C1051 C1053 1.419 . S
C1051 H1055 0.930 . S
C1052 C1051 1.369 . S
C1052 C1061 1.429 . S
C1053 C1051 1.419 . S
C1053 C1054 1.363 . S
C1053 H1056 0.929 . S
C1054 C1053 1.363 . S
C1054 C1060 1.428 . S
H1055 C1051 0.930 . S
H1056 C1053 0.929 . S
S1057 N1058 1.613 1_545 S
S1057 N1059 1.610 . S
N1058 S1057 1.613 1_565 S
N1058 C1061 1.350 1_565 S
N1059 S1057 1.610 . S
N1059 C1060 1.351 . S
C1060 C1054 1.428 . S
C1060 N1059 1.351 . S
C1060 C1061 1.434 . S
C1061 C1052 1.429 . S
C1061 N1058 1.350 1_545 S
C1061 C1060 1.434 . S
C1062 C1063 1.369 . S
C1062 C1064 1.419 . S
C1062 H1066 0.930 . S
C1063 C1062 1.369 . S
C1063 C1072 1.429 . S
C1064 C1062 1.419 . S
C1064 C1065 1.363 . S
C1064 H1067 0.929 . S
C1065 C1064 1.363 . S
C1065 C1071 1.428 . S
H1066 C1062 0.930 . S
H1067 C1064 0.929 . S
S1068 N1069 1.613 . S
S1068 N1070 1.610 . S
N1069 S1068 1.613 . S
N1069 C1072 1.350 . S
N1070 S1068 1.610 . S
N1070 C1071 1.351 . S
C1071 C1065 1.428 . S
C1071 N1070 1.351 . S
C1071 C1072 1.434 . S
C1072 C1063 1.429 . S
C1072 N1069 1.350 . S
C1072 C1071 1.434 . S
C1073 C1074 1.369 . S
C1073 C1075 1.419 . S
C1073 H1077 0.937 . S
C1074 C1073 1.369 . S
C1074 C1083 1.429 . S
C1075 C1073 1.419 . S
C1075 C1076 1.363 . S
C1075 H1078 0.929 . S
C1076 C1075 1.363 . S
C1076 C1082 1.428 . S
H1077 C1073 0.937 . S
H1078 C1075 0.929 . S
S1079 N1080 1.613 . S
S1079 N1081 1.610 . S
N1080 S1079 1.613 . S
N1080 C1083 1.350 . S
N1081 S1079 1.610 . S
N1081 C1082 1.351 . S
C1082 C1076 1.428 . S
C1082 N1081 1.351 . S
C1082 C1083 1.434 . S
C1083 C1074 1.429 . S
C1083 N1080 1.350 . S
C1083 C1082 1.434 . S
C1084 C1085 1.369 . S
C1084 C1086 1.419 . S
C1084 H1088 0.930 . S
C1085 C1084 1.369 . S
C1085 C1094 1.429 . S
C1086 C1084 1.419 . S
C1086 C1087 1.363 . S
C1086 H1089 0.929 . S
C1087 C1086 1.363 . S
C1087 C1093 1.428 . S
H1088 C1084 0.930 . S
H1089 C1086 0.929 . S
S1090 N1091 1.613 . S
S1090 N1092 1.610 . S
N1091 S1090 1.613 . S
N1091 C1094 1.350 . S
N1092 S1090 1.610 . S
N1092 C1093 1.351 . S
C1093 C1087 1.428 . S
C1093 N1092 1.351 . S
C1093 C1094 1.434 . S
C1094 C1085 1.429 . S
C1094 N1091 1.350 . S
C1094 C1093 1.434 . S
C1095 C1096 1.369 . S
C1095 C1097 1.419 . S
C1095 H1099 0.930 . S
C1096 C1095 1.369 . S
C1096 C1105 1.429 . S
C1097 C1095 1.419 . S
C1097 C1098 1.363 . S
C1097 H1100 0.929 . S
C1098 C1097 1.363 . S
C1098 C1104 1.428 . S
H1099 C1095 0.930 . S
H1100 C1097 0.929 . S
S1101 N1102 1.613 . S
S1101 N1103 1.610 . S
N1102 S1101 1.613 . S
N1102 C1105 1.350 . S
N1103 S1101 1.610 . S
N1103 C1104 1.351 . S
C1104 C1098 1.428 . S
C1104 N1103 1.351 . S
C1104 C1105 1.434 . S
C1105 C1096 1.429 . S
C1105 N1102 1.350 . S
C1105 C1104 1.434 . S
C1106 C1107 1.369 . S
C1106 C1108 1.419 . S
C1106 H1110 0.930 . S
C1107 C1106 1.369 . S
C1107 C1116 1.429 . S
C1108 C1106 1.419 . S
C1108 C1109 1.363 . S
C1108 H1111 0.929 . S
C1109 C1108 1.363 . S
C1109 C1115 1.428 . S
H1110 C1106 0.930 . S
H1111 C1108 0.929 . S
S1112 N1113 1.613 . S
S1112 N1114 1.610 . S
N1113 S1112 1.613 . S
N1113 C1116 1.350 . S
N1114 S1112 1.610 . S
N1114 C1115 1.351 . S
C1115 C1109 1.428 . S
C1115 N1114 1.351 . S
C1115 C1116 1.434 . S
C1116 C1107 1.429 . S
C1116 N1113 1.350 . S
C1116 C1115 1.434 . S
C1117 C1118 1.369 . S
C1117 C1119 1.419 . S
C1117 H1121 0.930 . S
C1118 C1117 1.369 . S
C1118 C1127 1.429 . S
C1119 C1117 1.419 . S
C1119 C1120 1.363 . S
C1119 H1122 0.929 . S
C1120 C1119 1.363 . S
C1120 C1126 1.428 . S
H1121 C1117 0.930 . S
H1122 C1119 0.929 . S
S1123 N1124 1.613 . S
S1123 N1125 1.610 . S
N1124 S1123 1.613 . S
N1124 C1127 1.350 . S
N1125 S1123 1.610 . S
N1125 C1126 1.351 . S
C1126 C1120 1.428 . S
C1126 N1125 1.351 . S
C1126 C1127 1.434 . S
C1127 C1118 1.429 . S
C1127 N1124 1.350 . S
C1127 C1126 1.434 . S
C1128 C1129 1.369 . S
C1128 C1130 1.419 . S
C1128 H1132 0.930 . S
C1129 C1128 1.369 . S
C1129 C1138 1.429 . S
C1130 C1128 1.419 . S
C1130 C1131 1.363 . S
C1130 H1133 0.929 . S
C1131 C1130 1.363 . S
C1131 C1137 1.428 . S
H1132 C1128 0.930 . S
H1133 C1130 0.929 . S
S1134 N1135 1.613 . S
S1134 N1136 1.610 . S
N1135 S1134 1.613 . S
N1135 C1138 1.350 . S
N1136 S1134 1.610 . S
N1136 C1137 1.351 . S
C1137 C1131 1.428 . S
C1137 N1136 1.351 . S
C1137 C1138 1.434 . S
C1138 C1129 1.429 . S
C1138 N1135 1.350 . S
C1138 C1137 1.434 . S
C1139 C1140 1.369 . S
C1139 C1141 1.419 . S
C1139 H1143 0.930 . S
C1140 C1139 1.369 . S
C1140 C1149 1.429 . S
C1141 C1139 1.419 . S
C1141 C1142 1.363 . S
C1141 H1144 0.929 . S
C1142 C1141 1.363 . S
C1142 C1148 1.428 . S
H1143 C1139 0.930 . S
H1144 C1141 0.929 . S
S1145 N1146 1.613 1_565 S
S1145 N1147 1.610 . S
N1146 S1145 1.613 1_545 S
N1146 C1149 1.350 1_545 S
N1147 S1145 1.610 . S
N1147 C1148 1.351 . S
C1148 C1142 1.428 . S
C1148 N1147 1.351 . S
C1148 C1149 1.434 . S
C1149 C1140 1.429 . S
C1149 N1146 1.350 1_565 S
C1149 C1148 1.434 . S
C1150 C1151 1.369 . S
C1150 C1152 1.419 . S
C1150 H1154 0.930 . S
C1151 C1150 1.369 . S
C1151 C1160 1.429 . S
C1152 C1150 1.419 . S
C1152 C1153 1.363 . S
C1152 H1155 0.929 . S
C1153 C1152 1.363 . S
C1153 C1159 1.428 . S
H1154 C1150 0.930 . S
H1155 C1152 0.929 . S
S1156 N1157 1.613 . S
S1156 N1158 1.610 . S
N1157 S1156 1.613 . S
N1157 C1160 1.350 . S
N1158 S1156 1.610 . S
N1158 C1159 1.351 . S
C1159 C1153 1.428 . S
C1159 N1158 1.351 . S
C1159 C1160 1.434 . S
C1160 C1151 1.429 . S
C1160 N1157 1.350 . S
C1160 C1159 1.434 . S
C1161 C1162 1.369 . S
C1161 C1163 1.419 . S
C1161 H1165 0.930 . S
C1162 C1161 1.369 . S
C1162 C1171 1.429 . S
C1163 C1161 1.419 . S
C1163 C1164 1.363 . S
C1163 H1166 0.929 . S
C1164 C1163 1.363 . S
C1164 C1170 1.428 . S
H1165 C1161 0.930 . S
H1166 C1163 0.929 . S
S1167 N1168 1.613 . S
S1167 N1169 1.610 . S
N1168 S1167 1.613 . S
N1168 C1171 1.350 . S
N1169 S1167 1.610 . S
N1169 C1170 1.351 . S
C1170 C1164 1.428 . S
C1170 N1169 1.351 . S
C1170 C1171 1.434 . S
C1171 C1162 1.429 . S
C1171 N1168 1.350 . S
C1171 C1170 1.434 . S
C1172 C1173 1.369 . S
C1172 C1174 1.419 . S
C1172 H1176 0.930 . S
C1173 C1172 1.369 . S
C1173 C1182 1.429 . S
C1174 C1172 1.419 . S
C1174 C1175 1.363 . S
C1174 H1177 0.929 . S
C1175 C1174 1.363 . S
C1175 C1181 1.428 . S
H1176 C1172 0.930 . S
H1177 C1174 0.929 . S
S1178 N1179 1.613 . S
S1178 N1180 1.610 . S
N1179 S1178 1.613 . S
N1179 C1182 1.350 . S
N1180 S1178 1.610 . S
N1180 C1181 1.351 . S
C1181 C1175 1.428 . S
C1181 N1180 1.351 . S
C1181 C1182 1.434 . S
C1182 C1173 1.429 . S
C1182 N1179 1.350 . S
C1182 C1181 1.434 . S
C1183 C1184 1.369 . S
C1183 C1185 1.419 . S
C1183 H1187 0.930 . S
C1184 C1183 1.369 . S
C1184 C1193 1.429 . S
C1185 C1183 1.419 . S
C1185 C1186 1.363 . S
C1185 H1188 0.929 . S
C1186 C1185 1.363 . S
C1186 C1192 1.428 . S
H1187 C1183 0.930 . S
H1188 C1185 0.929 . S
S1189 N1190 1.613 1_465 S
S1189 N1191 1.610 1_455 S
N1190 S1189 1.613 1_645 S
N1190 C1193 1.350 1_545 S
N1191 S1189 1.610 1_655 S
N1191 C1192 1.351 . S
C1192 C1186 1.428 . S
C1192 N1191 1.351 . S
C1192 C1193 1.434 . S
C1193 C1184 1.429 . S
C1193 N1190 1.350 1_565 S
C1193 C1192 1.434 . S
C1194 C1195 1.369 . S
C1194 C1196 1.419 . S
C1194 H1198 0.930 . S
C1195 C1194 1.369 . S
C1195 C1204 1.429 . S
C1196 C1194 1.419 . S
C1196 C1197 1.363 . S
C1196 H1199 0.929 . S
C1197 C1196 1.363 . S
C1197 C1203 1.428 . S
H1198 C1194 0.930 . S
H1199 C1196 0.929 . S
S1200 N1201 1.613 . S
S1200 N1202 1.610 . S
N1201 S1200 1.613 . S
N1201 C1204 1.350 . S
N1202 S1200 1.610 . S
N1202 C1203 1.351 . S
C1203 C1197 1.428 . S
C1203 N1202 1.351 . S
C1203 C1204 1.434 . S
C1204 C1195 1.429 . S
C1204 N1201 1.350 . S
C1204 C1203 1.434 . S
C1205 C1206 1.369 . S
C1205 C1207 1.419 . S
C1205 H1209 0.930 . S
C1206 C1205 1.369 . S
C1206 C1215 1.429 . S
C1207 C1205 1.419 . S
C1207 C1208 1.363 . S
C1207 H1210 0.929 . S
C1208 C1207 1.363 . S
C1208 C1214 1.428 . S
H1209 C1205 0.930 . S
H1210 C1207 0.929 . S
S1211 N1212 1.611 1_545 S
S1211 N1213 1.626 . S
N1212 S1211 1.611 1_565 S
N1212 C1215 1.350 1_565 S
N1213 S1211 1.626 . S
N1213 C1214 1.351 . S
C1214 C1208 1.428 . S
C1214 N1213 1.351 . S
C1214 C1215 1.434 . S
C1215 C1206 1.429 . S
C1215 N1212 1.350 1_545 S
C1215 C1214 1.434 . S
C1216 C1217 1.369 . S
C1216 C1218 1.419 . S
C1216 H1220 0.930 . S
C1217 C1216 1.369 . S
C1217 C1226 1.429 . S
C1218 C1216 1.419 . S
C1218 C1219 1.363 . S
C1218 H1221 0.929 . S
C1219 C1218 1.363 . S
C1219 C1225 1.428 . S
H1220 C1216 0.930 . S
H1221 C1218 0.929 . S
S1222 N1223 1.613 . S
S1222 N1224 1.610 . S
N1223 S1222 1.613 . S
N1223 C1226 1.350 . S
N1224 S1222 1.610 . S
N1224 C1225 1.351 . S
C1225 C1219 1.428 . S
C1225 N1224 1.351 . S
C1225 C1226 1.434 . S
C1226 C1217 1.429 . S
C1226 N1223 1.350 . S
C1226 C1225 1.434 . S
C1227 C1228 1.369 . S
C1227 C1229 1.419 . S
C1227 H1231 0.930 . S
C1228 C1227 1.369 . S
C1228 C1237 1.429 . S
C1229 C1227 1.419 . S
C1229 C1230 1.363 . S
C1229 H1232 0.929 . S
C1230 C1229 1.363 . S
C1230 C1236 1.428 . S
H1231 C1227 0.930 . S
H1232 C1229 0.929 . S
S1233 N1234 1.613 . S
S1233 N1235 1.610 . S
N1234 S1233 1.613 . S
N1234 C1237 1.350 . S
N1235 S1233 1.610 . S
N1235 C1236 1.351 . S
C1236 C1230 1.428 . S
C1236 N1235 1.351 . S
C1236 C1237 1.434 . S
C1237 C1228 1.429 . S
C1237 N1234 1.350 . S
C1237 C1236 1.434 . S
C1238 C1239 1.369 . S
C1238 C1240 1.419 . S
C1238 H1242 0.930 . S
C1239 C1238 1.369 . S
C1239 C1248 1.429 . S
C1240 C1238 1.419 . S
C1240 C1241 1.363 . S
C1240 H1243 0.929 . S
C1241 C1240 1.363 . S
C1241 C1247 1.428 . S
H1242 C1238 0.930 . S
H1243 C1240 0.929 . S
S1244 N1245 1.613 . S
S1244 N1246 1.610 . S
N1245 S1244 1.613 . S
N1245 C1248 1.350 . S
N1246 S1244 1.610 . S
N1246 C1247 1.351 . S
C1247 C1241 1.428 . S
C1247 N1246 1.351 . S
C1247 C1248 1.434 . S
C1248 C1239 1.429 . S
C1248 N1245 1.350 . S
C1248 C1247 1.434 . S
C1249 C1250 1.369 . S
C1249 C1251 1.419 . S
C1249 H1253 0.930 . S
C1250 C1249 1.369 . S
C1250 C1259 1.429 . S
C1251 C1249 1.419 . S
C1251 C1252 1.363 . S
C1251 H1254 0.929 . S
C1252 C1251 1.363 . S
C1252 C1258 1.428 . S
H1253 C1249 0.930 . S
H1254 C1251 0.929 . S
S1255 N1256 1.613 . S
S1255 N1257 1.610 . S
N1256 S1255 1.613 . S
N1256 C1259 1.350 . S
N1257 S1255 1.610 . S
N1257 C1258 1.351 . S
C1258 C1252 1.428 . S
C1258 N1257 1.351 . S
C1258 C1259 1.434 . S
C1259 C1250 1.429 . S
C1259 N1256 1.350 . S
C1259 C1258 1.434 . S
C1260 C1261 1.369 . S
C1260 C1262 1.419 . S
C1260 H1264 0.930 . S
C1261 C1260 1.369 . S
C1261 C1270 1.429 . S
C1262 C1260 1.419 . S
C1262 C1263 1.363 . S
C1262 H1265 0.929 . S
C1263 C1262 1.363 . S
C1263 C1269 1.428 . S
H1264 C1260 0.930 . S
H1265 C1262 0.929 . S
S1266 N1267 1.613 . S
S1266 N1268 1.610 . S
N1267 S1266 1.613 . S
N1267 C1270 1.350 . S
N1268 S1266 1.610 . S
N1268 C1269 1.351 . S
C1269 C1263 1.428 . S
C1269 N1268 1.351 . S
C1269 C1270 1.434 . S
C1270 C1261 1.429 . S
C1270 N1267 1.350 . S
C1270 C1269 1.434 . S
C1271 C1272 1.369 . S
C1271 C1273 1.419 . S
C1271 H1275 0.930 . S
C1272 C1271 1.369 . S
C1272 C1281 1.429 . S
C1273 C1271 1.419 . S
C1273 C1274 1.363 . S
C1273 H1276 0.929 . S
C1274 C1273 1.363 . S
C1274 C1280 1.428 . S
H1275 C1271 0.930 . S
H1276 C1273 0.929 . S
S1277 N1278 1.613 . S
S1277 N1279 1.610 . S
N1278 S1277 1.613 . S
N1278 C1281 1.350 . S
N1279 S1277 1.610 . S
N1279 C1280 1.351 . S
C1280 C1274 1.428 . S
C1280 N1279 1.351 . S
C1280 C1281 1.434 . S
C1281 C1272 1.429 . S
C1281 N1278 1.350 . S
C1281 C1280 1.434 . S
C1282 C1283 1.369 . S
C1282 C1284 1.419 . S
C1282 H1286 0.930 . S
C1283 C1282 1.369 . S
C1283 C1292 1.429 . S
C1284 C1282 1.419 . S
C1284 C1285 1.363 . S
C1284 H1287 0.929 . S
C1285 C1284 1.363 . S
C1285 C1291 1.428 . S
H1286 C1282 0.930 . S
H1287 C1284 0.929 . S
S1288 N1289 1.613 . S
S1288 N1290 1.610 . S
N1289 S1288 1.613 . S
N1289 C1292 1.350 . S
N1290 S1288 1.610 . S
N1290 C1291 1.351 . S
C1291 C1285 1.428 . S
C1291 N1290 1.351 . S
C1291 C1292 1.434 . S
C1292 C1283 1.429 . S
C1292 N1289 1.350 . S
C1292 C1291 1.434 . S
C1293 C1294 1.369 . S
C1293 C1295 1.419 . S
C1293 H1297 0.930 . S
C1294 C1293 1.369 . S
C1294 C1303 1.429 . S
C1295 C1293 1.419 . S
C1295 C1296 1.363 . S
C1295 H1298 0.929 . S
C1296 C1295 1.363 . S
C1296 C1302 1.428 . S
H1297 C1293 0.930 . S
H1298 C1295 0.929 . S
S1299 N1300 1.613 . S
S1299 N1301 1.610 . S
N1300 S1299 1.613 . S
N1300 C1303 1.350 . S
N1301 S1299 1.610 . S
N1301 C1302 1.351 . S
C1302 C1296 1.428 . S
C1302 N1301 1.351 . S
C1302 C1303 1.434 . S
C1303 C1294 1.429 . S
C1303 N1300 1.350 . S
C1303 C1302 1.434 . S
C1304 C1305 1.369 . S
C1304 C1306 1.419 . S
C1304 H1308 0.930 . S
C1305 C1304 1.369 . S
C1305 C1314 1.429 . S
C1306 C1304 1.419 . S
C1306 C1307 1.363 . S
C1306 H1309 0.929 . S
C1307 C1306 1.363 . S
C1307 C1313 1.428 . S
H1308 C1304 0.930 . S
H1309 C1306 0.929 . S
S1310 N1311 1.613 . S
S1310 N1312 1.610 . S
N1311 S1310 1.613 . S
N1311 C1314 1.350 . S
N1312 S1310 1.610 . S
N1312 C1313 1.351 . S
C1313 C1307 1.428 . S
C1313 N1312 1.351 . S
C1313 C1314 1.434 . S
C1314 C1305 1.429 . S
C1314 N1311 1.350 . S
C1314 C1313 1.434 . S
C1315 C1316 1.369 . S
C1315 C1317 1.419 . S
C1315 H1319 0.930 . S
C1316 C1315 1.369 . S
C1316 C1325 1.429 . S
C1317 C1315 1.419 . S
C1317 C1318 1.363 . S
C1317 H1320 0.929 . S
C1318 C1317 1.363 . S
C1318 C1324 1.428 . S
H1319 C1315 0.930 . S
H1320 C1317 0.929 . S
S1321 N1322 1.613 . S
S1321 N1323 1.610 . S
N1322 S1321 1.613 . S
N1322 C1325 1.350 . S
N1323 S1321 1.610 . S
N1323 C1324 1.351 . S
C1324 C1318 1.428 . S
C1324 N1323 1.351 . S
C1324 C1325 1.434 . S
C1325 C1316 1.429 . S
C1325 N1322 1.350 . S
C1325 C1324 1.434 . S
C1326 C1327 1.369 . S
C1326 C1328 1.419 . S
C1326 H1330 0.930 . S
C1327 C1326 1.369 . S
C1327 C1336 1.429 . S
C1328 C1326 1.419 . S
C1328 C1329 1.363 . S
C1328 H1331 0.929 . S
C1329 C1328 1.363 . S
C1329 C1335 1.428 . S
H1330 C1326 0.930 . S
H1331 C1328 0.929 . S
S1332 N1333 1.613 . S
S1332 N1334 1.610 . S
N1333 S1332 1.613 . S
N1333 C1336 1.350 . S
N1334 S1332 1.610 . S
N1334 C1335 1.351 . S
C1335 C1329 1.428 . S
C1335 N1334 1.351 . S
C1335 C1336 1.434 . S
C1336 C1327 1.429 . S
C1336 N1333 1.350 . S
C1336 C1335 1.434 . S
C1337 C1338 1.369 . S
C1337 C1339 1.419 . S
C1337 H1341 0.930 . S
C1338 C1337 1.369 . S
C1338 C1347 1.429 . S
C1339 C1337 1.419 . S
C1339 C1340 1.363 . S
C1339 H1342 0.929 . S
C1340 C1339 1.363 . S
C1340 C1346 1.428 . S
H1341 C1337 0.930 . S
H1342 C1339 0.929 . S
S1343 N1344 1.613 . S
S1343 N1345 1.610 . S
N1344 S1343 1.613 . S
N1344 C1347 1.350 . S
N1345 S1343 1.610 . S
N1345 C1346 1.351 . S
C1346 C1340 1.428 . S
C1346 N1345 1.351 . S
C1346 C1347 1.434 . S
C1347 C1338 1.429 . S
C1347 N1344 1.350 . S
C1347 C1346 1.434 . S
C1348 C1349 1.369 . S
C1348 C1350 1.419 . S
C1348 H1352 0.930 . S
C1349 C1348 1.369 . S
C1349 C1358 1.429 . S
C1350 C1348 1.419 . S
C1350 C1351 1.363 . S
C1350 H1353 0.929 . S
C1351 C1350 1.363 . S
C1351 C1357 1.428 . S
H1352 C1348 0.930 . S
H1353 C1350 0.929 . S
S1354 N1355 1.613 . S
S1354 N1356 1.610 . S
N1355 S1354 1.613 . S
N1355 C1358 1.350 . S
N1356 S1354 1.610 . S
N1356 C1357 1.351 . S
C1357 C1351 1.428 . S
C1357 N1356 1.351 . S
C1357 C1358 1.434 . S
C1358 C1349 1.429 . S
C1358 N1355 1.350 . S
C1358 C1357 1.434 . S
C1359 C1360 1.369 . S
C1359 C1361 1.419 . S
C1359 H1363 0.930 . S
C1360 C1359 1.369 . S
C1360 C1369 1.429 . S
C1361 C1359 1.419 . S
C1361 C1362 1.363 . S
C1361 H1364 0.929 . S
C1362 C1361 1.363 . S
C1362 C1368 1.428 . S
H1363 C1359 0.930 . S
H1364 C1361 0.929 . S
S1365 N1366 1.613 . S
S1365 N1367 1.610 . S
N1366 S1365 1.613 . S
N1366 C1369 1.350 . S
N1367 S1365 1.610 . S
N1367 C1368 1.351 . S
C1368 C1362 1.428 . S
C1368 N1367 1.351 . S
C1368 C1369 1.434 . S
C1369 C1360 1.429 . S
C1369 N1366 1.350 . S
C1369 C1368 1.434 . S
C1370 C1371 1.369 . S
C1370 C1372 1.419 . S
C1370 H1374 0.930 . S
C1371 C1370 1.369 . S
C1371 C1380 1.429 . S
C1372 C1370 1.419 . S
C1372 C1373 1.363 . S
C1372 H1375 0.929 . S
C1373 C1372 1.363 . S
C1373 C1379 1.428 . S
H1374 C1370 0.930 . S
H1375 C1372 0.929 . S
S1376 N1377 1.613 . S
S1376 N1378 1.610 . S
N1377 S1376 1.613 . S
N1377 C1380 1.350 . S
N1378 S1376 1.610 . S
N1378 C1379 1.351 . S
C1379 C1373 1.428 . S
C1379 N1378 1.351 . S
C1379 C1380 1.434 . S
C1380 C1371 1.429 . S
C1380 N1377 1.350 . S
C1380 C1379 1.434 . S
C1381 C1382 1.369 . S
C1381 C1383 1.419 . S
C1381 H1385 0.930 . S
C1382 C1381 1.369 . S
C1382 C1391 1.429 . S
C1383 C1381 1.419 . S
C1383 C1384 1.363 . S
C1383 H1386 0.929 . S
C1384 C1383 1.363 . S
C1384 C1390 1.428 . S
H1385 C1381 0.930 . S
H1386 C1383 0.929 . S
S1387 N1388 1.613 . S
S1387 N1389 1.610 . S
N1388 S1387 1.613 . S
N1388 C1391 1.350 . S
N1389 S1387 1.610 . S
N1389 C1390 1.351 . S
C1390 C1384 1.428 . S
C1390 N1389 1.351 . S
C1390 C1391 1.434 . S
C1391 C1382 1.429 . S
C1391 N1388 1.350 . S
C1391 C1390 1.434 . S
C1043 C961 1.540 . S
C1041 C11 1.048 . S
C1052 C143 1.148 . S
C1054 C993 1.532 . S
C1063 C283 1.112 . S
C1065 C1016 1.618 . S
C1076 C920 1.470 . S
C1074 C343 1.253 1_565 S
C1087 C1003 1.423 . S
C1085 C55 1.081 . S
C1098 C1032 1.268 . S
C1096 C115 1.267 . S
C1109 C936 1.384 . S
C1107 C239 1.071 . S
C1120 C971 1.338 . S
C1118 C371 1.112 1_565 S
C1129 C29 1.226 . S
C1131 C999 1.326 . S
C1140 C467 0.840 . S
C1142 C974 1.345 . S
C1151 C229 1.100 . S
C1153 C942 1.215 . S
C1164 C1031 1.398 . S
C1162 C625 1.203 . S
C1175 C975 1.402 . S
C1173 C1 1.116 . S
C1184 C511 1.192 . S
C1186 C943 1.552 . S
C1195 C257 1.208 . S
C1197 C1030 1.509 . S
C1208 C998 1.524 . S
C1206 C581 0.881 . S
C1217 C713 1.137 . S
C1219 C1025 1.534 . S
C1228 C485 1.116 . S
C1230 C929 1.518 . S
C1239 C799 1.235 . S
C1241 C952 1.445 . S
C1250 C571 1.227 . S
C1252 C984 1.455 . S
C1263 C939 1.252 . S
C1261 C685 1.264 . S
C1272 C457 1.251 . S
C1274 C968 1.255 . S
C1283 C827 1.110 . S
C1285 C1000 1.327 . S
C1296 C1035 1.318 . S
C1294 C599 1.099 . S
C1305 C695 0.846 . S
C1307 C935 1.374 . S
C1316 C125 0.853 . S
C1318 C1038 1.373 . S
C1327 C853 1.218 . S
C1329 C1006 1.388 . S
C1340 C967 1.419 . S
C1338 C397 1.224 . S
C1351 C1039 1.578 . S
C1349 C739 1.222 . S
C1362 C1007 1.567 . S
C1360 C169 1.208 . S
C1373 C966 1.520 . S
C1371 C809 0.894 . S
C1384 C934 1.545 . S
C1382 C353 0.895 . S
