# Generated by pormake.
# Topology zzz, (3,6)-cn, num edge types: 1
# Building blocks:
#     Node 0, Type 0, BuildingBlock: VETTIZ_charged_linker_0, # of connection points: 3
#     Node 1, Type 0, BuildingBlock: VETTIZ_charged_linker_0, # of connection points: 3
#     Node 2, Type 0, BuildingBlock: VETTIZ_charged_linker_0, # of connection points: 3
#     Node 3, Type 0, BuildingBlock: VETTIZ_charged_linker_0, # of connection points: 3
#     Node 4, Type 0, BuildingBlock: VETTIZ_charged_linker_0, # of connection points: 3
#     Node 5, Type 0, BuildingBlock: VETTIZ_charged_linker_0, # of connection points: 3
#     Node 6, Type 0, BuildingBlock: VETTIZ_charged_linker_0, # of connection points: 3
#     Node 7, Type 0, BuildingBlock: VETTIZ_charged_linker_0, # of connection points: 3
#     Node 8, Type 1, BuildingBlock: HISSIN_clean_sbu_0, # of connection points: 6
#     Node 9, Type 1, BuildingBlock: HISSIN_clean_sbu_0, # of connection points: 6
#     Node 10, Type 1, BuildingBlock: HISSIN_clean_sbu_0, # of connection points: 6
#     Node 11, Type 1, BuildingBlock: HISSIN_clean_sbu_0, # of connection points: 6
#     Edge 12, Type (0, 1), BuildingBlock: EZIPEK_clean_linker_0, # of connection points: 2
#     Edge 13, Type (0, 1), BuildingBlock: EZIPEK_clean_linker_0, # of connection points: 2
#     Edge 14, Type (0, 1), BuildingBlock: EZIPEK_clean_linker_0, # of connection points: 2
#     Edge 15, Type (0, 1), BuildingBlock: EZIPEK_clean_linker_0, # of connection points: 2
#     Edge 16, Type (0, 1), BuildingBlock: EZIPEK_clean_linker_0, # of connection points: 2
#     Edge 17, Type (0, 1), BuildingBlock: EZIPEK_clean_linker_0, # of connection points: 2
#     Edge 18, Type (0, 1), BuildingBlock: EZIPEK_clean_linker_0, # of connection points: 2
#     Edge 19, Type (0, 1), BuildingBlock: EZIPEK_clean_linker_0, # of connection points: 2
#     Edge 20, Type (0, 1), BuildingBlock: EZIPEK_clean_linker_0, # of connection points: 2
#     Edge 21, Type (0, 1), BuildingBlock: EZIPEK_clean_linker_0, # of connection points: 2
#     Edge 22, Type (0, 1), BuildingBlock: EZIPEK_clean_linker_0, # of connection points: 2
#     Edge 23, Type (0, 1), BuildingBlock: EZIPEK_clean_linker_0, # of connection points: 2
#     Edge 24, Type (0, 1), BuildingBlock: EZIPEK_clean_linker_0, # of connection points: 2
#     Edge 25, Type (0, 1), BuildingBlock: EZIPEK_clean_linker_0, # of connection points: 2
#     Edge 26, Type (0, 1), BuildingBlock: EZIPEK_clean_linker_0, # of connection points: 2
#     Edge 27, Type (0, 1), BuildingBlock: EZIPEK_clean_linker_0, # of connection points: 2
#     Edge 28, Type (0, 1), BuildingBlock: EZIPEK_clean_linker_0, # of connection points: 2
#     Edge 29, Type (0, 1), BuildingBlock: EZIPEK_clean_linker_0, # of connection points: 2
#     Edge 30, Type (0, 1), BuildingBlock: EZIPEK_clean_linker_0, # of connection points: 2
#     Edge 31, Type (0, 1), BuildingBlock: EZIPEK_clean_linker_0, # of connection points: 2
#     Edge 32, Type (0, 1), BuildingBlock: EZIPEK_clean_linker_0, # of connection points: 2
#     Edge 33, Type (0, 1), BuildingBlock: EZIPEK_clean_linker_0, # of connection points: 2
#     Edge 34, Type (0, 1), BuildingBlock: EZIPEK_clean_linker_0, # of connection points: 2
#     Edge 35, Type (0, 1), BuildingBlock: EZIPEK_clean_linker_0, # of connection points: 2
# Relax obj value: 0.460
# Max RMSD: 0.243
# Mean RMSD: 0.198
data_MOF--net-zzz--node1-HISSIN_clean_sbu_0--node2-VETTIZ_charged_linker_0--edge1-EZIPEK_clean_linker_0
_symmetry_space_group_name_H-M    P1
_symmetry_Int_Tables_number       1
_symmetry_cell_setting            triclinic
loop_
_symmetry_equiv_pos_as_xyz
'x, y, z'
_cell_length_a     43.705232
_cell_length_b     43.57058
_cell_length_c     16.958859
_cell_angle_alpha  89.89364
_cell_angle_beta   91.843752
_cell_angle_gamma 91.238623
loop_
_atom_site_label
_atom_site_type_symbol
_atom_site_fract_x
_atom_site_fract_y
_atom_site_fract_z
_atom_type_partial_charge
C0 C 0.82141 0.52355 0.42117 0.0
C1 C 0.85257 0.51433 0.41632 0.0
C2 C 0.86189 0.50118 0.34545 0.0
C3 C 0.81511 0.51676 0.28067 0.0
C4 C 0.80226 0.5229 0.3513 0.0
C5 C 0.76926 0.53312 0.33487 0.0
H6 H 0.67419 0.57813 1.01587 0.0
C7 C 0.79694 0.53109 0.21764 0.0
C8 C 0.76698 0.53408 0.24352 0.0
H9 H 0.65247 0.49633 0.14799 0.0
H10 H 0.70103 0.50309 0.22754 0.0
H11 H 0.71068 0.61828 0.17707 0.0
H12 H 0.74437 0.56282 0.98612 0.0
H13 H 0.75981 0.60095 0.98897 0.0
H14 H 0.72033 0.59524 0.96712 0.0
H15 H 0.70744 0.63078 0.07613 0.0
H16 H 0.74279 0.63547 0.13304 0.0
C17 C 0.76454 0.56505 0.37078 0.0
C18 C 0.74641 0.50949 0.36771 0.0
C19 C 0.86295 0.60732 0.07393 0.0
C20 C 0.85715 0.63376 0.02903 0.0
C21 C 0.82731 0.64554 0.02728 0.0
C22 C 0.80341 0.62952 0.06444 0.0
C23 C 0.80935 0.60097 0.10008 0.0
C24 C 0.83901 0.59114 0.10709 0.0
C25 C 0.842 0.56083 0.14757 0.0
C26 C 0.80883 0.55437 0.16781 0.0
C27 C 0.78982 0.57751 0.13764 0.0
C28 C 0.8643 0.56502 0.22011 0.0
C29 C 0.85315 0.53725 0.08742 0.0
C30 C 0.67935 0.56209 0.06304 0.0
C31 C 0.65945 0.53693 0.07566 0.0
C32 C 0.66722 0.5161 0.1374 0.0
C33 C 0.69476 0.52003 0.18361 0.0
C34 C 0.71434 0.54523 0.1688 0.0
C35 C 0.70671 0.56548 0.10849 0.0
C36 C 0.73251 0.58791 0.09295 0.0
C37 C 0.7578 0.57483 0.14602 0.0
C38 C 0.74628 0.55229 0.19716 0.0
C39 C 0.72297 0.61994 0.1207 0.0
C40 C 0.73978 0.58677 1.0042 0.0
H41 H 0.85164 0.49392 0.22275 0.0
H42 H 0.81301 0.53238 0.4758 0.0
H43 H 0.749 0.48673 0.33946 0.0
H44 H 0.72256 0.51706 0.35659 0.0
H45 H 0.75022 0.50678 0.43245 0.0
H46 H 0.78132 0.58204 0.34744 0.0
H47 H 0.7675 0.56431 0.43607 0.0
H48 H 0.7411 0.57315 0.35607 0.0
H49 H 0.88535 0.59723 0.07693 0.0
H50 H 0.82217 0.66606 0.99375 0.0
H51 H 0.78096 0.63893 0.06038 0.0
H52 H 0.85158 0.57018 0.27386 0.0
H53 H 0.88106 0.58427 0.21296 0.0
H54 H 0.87873 0.54473 0.22985 0.0
H55 H 0.84059 0.53956 0.02965 0.0
H56 H 0.84919 0.51338 0.10699 0.0
H57 H 0.87796 0.54067 0.07737 0.0
H58 H 0.88483 0.49251 0.34111 0.0
C59 C 0.8431 0.50216 0.2774 0.0
C60 C 0.89921 0.81072 0.94141 0.0
C61 C 0.87584 0.82795 0.97509 0.0
C62 C 0.8656 0.81822 0.04957 0.0
C63 C 0.91371 0.79368 0.07109 0.0
C64 C 0.91888 0.79463 0.99184 0.0
C65 C 0.94986 0.78267 0.97302 0.0
H66 H 0.01931 0.66901 0.1013 0.0
C67 C 0.94206 0.78575 0.11248 0.0
C68 C 0.96307 0.77746 0.05634 0.0
H69 H 0.02431 0.70882 0.8673 0.0
H70 H 0.01348 0.75894 0.92159 0.0
H71 H 0.0573 0.74491 0.19478 0.0
H72 H 0.96254 0.71171 0.18354 0.0
H73 H 0.98073 0.72063 0.27789 0.0
H74 H 0.99176 0.68718 0.22439 0.0
H75 H 0.04846 0.70639 0.22727 0.0
H76 H 0.03698 0.73868 0.28454 0.0
C77 C 0.9683 0.80778 0.92939 0.0
C78 C 0.94499 0.75289 0.92409 0.0
C79 C 0.97176 0.84933 0.34914 0.0
C80 C 0.99904 0.8537 0.39413 0.0
C81 C 0.02278 0.83236 0.38209 0.0
C82 C 0.01919 0.80789 0.32597 0.0
C83 C 0.99136 0.80408 0.28246 0.0
C84 C 0.96835 0.82487 0.29486 0.0
C85 C 0.94149 0.82001 0.23878 0.0
C86 C 0.95261 0.79335 0.18942 0.0
C87 C 0.98132 0.78267 0.2162 0.0
C88 C 0.93745 0.84975 0.18941 0.0
C89 C 0.91263 0.81165 0.28572 0.0
C90 C 0.01833 0.68852 0.0618 0.0
C91 C 0.02064 0.68428 0.97801 0.0
C92 C 0.02102 0.71078 0.93014 0.0
C93 C 0.01431 0.73953 0.96079 0.0
C94 C 1.00734 0.74206 0.04018 0.0
C95 C 0.01321 0.71865 0.09209 0.0
C96 C 1.00923 0.73075 0.17661 0.0
C97 C 0.9987 0.76427 0.16308 0.0
C98 C 0.99218 0.76671 0.08121 0.0
C99 C 0.03982 0.73018 0.22358 0.0
C100 C 0.9846 0.7114 0.21806 0.0
H101 H 0.87852 0.79525 0.15788 0.0
H102 H 0.906 0.81448 0.88133 0.0
H103 H 0.92409 0.75402 0.88511 0.0
H104 H 0.94232 0.73252 0.96304 0.0
H105 H 0.96381 0.74915 0.88346 0.0
H106 H 0.96559 0.83054 0.95761 0.0
H107 H 0.9604 0.80952 0.86665 0.0
H108 H 0.9931 0.80335 0.93117 0.0
H109 H 0.95328 0.86521 0.3556 0.0
H110 H 0.0443 0.83501 0.41504 0.0
H111 H 0.03795 0.79271 0.31645 0.0
H112 H 0.95847 0.85529 0.15646 0.0
H113 H 0.93254 0.86961 0.22756 0.0
H114 H 0.91811 0.84789 0.14628 0.0
H115 H 0.90816 0.78644 0.28642 0.0
H116 H 0.89206 0.82317 0.26104 0.0
H117 H 0.9148 0.81931 0.34819 0.0
H118 H 0.84474 0.82679 0.07292 0.0
C119 C 0.88503 0.80094 0.09895 0.0
C120 C 0.83811 0.01512 0.05875 0.0
C121 C 0.85883 0.99776 1.01176 0.0
C122 C 0.85584 0.96559 1.0142 0.0
C123 C 0.80894 0.96856 0.08499 0.0
C124 C 0.81332 0.99932 0.09771 0.0
C125 C 0.78903 0.00951 0.15723 0.0
H126 H 0.64821 0.96089 0.32409 0.0
C127 C 0.77936 0.95821 0.11425 0.0
C128 C 0.76756 0.98055 0.1645 0.0
H129 H 0.70304 0.03624 0.41792 0.0
H130 H 0.74222 0.02708 0.31797 0.0
H131 H 0.65438 0.9799 0.15713 0.0
H132 H 0.69921 0.91288 0.2988 0.0
H133 H 0.69055 0.89556 0.20661 0.0
H134 H 0.66013 0.91099 0.26256 0.0
H135 H 0.64123 0.9409 0.15472 0.0
H136 H 0.66841 0.95562 0.08514 0.0
C137 C 0.77126 0.03704 0.12484 0.0
C138 C 0.80557 0.01723 0.23624 0.0
C139 C 0.71998 0.89446 0.91519 0.0
C140 C 0.68803 0.89398 0.90237 0.0
C141 C 0.66993 0.89289 0.97031 0.0
C142 C 0.68281 0.90058 0.0445 0.0
C143 C 0.71361 0.91032 0.05021 0.0
C144 C 0.73216 0.90524 0.98753 0.0
C145 C 0.76371 0.9189 1.0004 0.0
C146 C 0.76009 0.93509 0.07994 0.0
C147 C 0.73051 0.93059 0.10728 0.0
C148 C 0.76994 0.94201 0.9325 0.0
C149 C 0.78673 0.89229 1.00319 0.0
C150 C 0.66873 0.97531 0.32471 0.0
C151 C 0.67226 0.99885 0.3807 0.0
C152 C 0.69945 0.01752 0.37657 0.0
C153 C 0.72223 0.01223 0.31879 0.0
C154 C 0.71812 0.98808 0.2635 0.0
C155 C 0.69129 0.97042 0.26832 0.0
C156 C 0.68856 0.94662 0.20532 0.0
C157 C 0.71957 0.94958 0.16794 0.0
C158 C 0.73745 0.97475 0.19838 0.0
C159 C 0.66181 0.95594 0.14766 0.0
C160 C 0.68417 0.91476 0.24488 0.0
H161 H 0.83092 0.9267 0.05661 0.0
H162 H 0.8411 0.03973 0.06446 0.0
H163 H 0.81774 0.99686 0.25987 0.0
H164 H 0.78939 0.02463 0.28068 0.0
H165 H 0.8227 0.03613 0.22843 0.0
H166 H 0.75996 0.03126 0.06694 0.0
H167 H 0.78691 0.05716 0.11665 0.0
H168 H 0.75331 0.04356 0.16624 0.0
H169 H 0.73508 0.89182 0.86685 0.0
H170 H 0.64531 0.89001 0.96587 0.0
H171 H 0.66764 0.90134 0.09278 0.0
H172 H 0.75203 0.95978 0.92941 0.0
H173 H 0.7702 0.93026 0.87456 0.0
H174 H 0.79234 0.95394 0.93875 0.0
H175 H 0.77704 0.87089 0.97577 0.0
H176 H 0.79365 0.88648 0.06495 0.0
H177 H 0.80738 0.89784 0.96905 0.0
H178 H 0.8721 0.95149 0.98486 0.0
C179 C 0.83173 0.95113 0.05266 0.0
C180 C 0.50628 0.70106 0.36773 0.0
C181 C 0.4933 0.67266 0.39607 0.0
C182 C 0.46769 0.66022 0.35453 0.0
C183 C 0.46621 0.70361 0.2643 0.0
C184 C 0.49235 0.71609 0.30043 0.0
C185 C 0.50215 0.74556 0.25624 0.0
H186 H 0.45924 0.85049 0.95887 0.0
C187 C 0.45525 0.72448 0.20073 0.0
C188 C 0.47588 0.74971 0.19396 0.0
H189 H 0.54674 0.85181 0.08275 0.0
H190 H 0.5304 0.80717 0.16268 0.0
H191 H 0.45809 0.7817 0.92661 0.0
H192 H 0.41818 0.83532 0.10702 0.0
H193 H 0.39099 0.80625 0.0837 0.0
H194 H 0.40221 0.83329 1.00839 0.0
H195 H 0.42547 0.80528 0.90836 0.0
H196 H 0.42145 0.76585 0.93853 0.0
C197 C 0.5327 0.73963 0.2169 0.0
C198 C 0.5046 0.77282 0.31358 0.0
C199 C 0.35838 0.69257 0.04778 0.0
C200 C 0.34088 0.7062 0.98617 0.0
C201 C 0.34679 0.73751 0.96935 0.0
C202 C 0.37152 0.75351 1.00634 0.0
C203 C 0.39064 0.73824 0.06131 0.0
C204 C 0.38277 0.70889 0.08408 0.0
C205 C 0.40449 0.6965 0.14584 0.0
C206 C 0.42785 0.72276 0.15364 0.0
C207 C 0.42009 0.74676 0.10265 0.0
C208 C 0.41898 0.66722 0.11205 0.0
C209 C 0.38632 0.6914 0.22236 0.0
C210 C 0.47502 0.84141 1.0032 0.0
C211 C 0.50421 0.85486 1.01375 0.0
C212 C 0.52403 0.84191 0.07258 0.0
C213 C 0.51467 0.81592 0.11851 0.0
C214 C 0.48536 0.8022 0.10492 0.0
C215 C 0.46638 0.8155 0.04761 0.0
C216 C 0.43686 0.79814 0.03513 0.0
C217 C 0.44087 0.77177 0.09245 0.0
C218 C 0.4691 0.77367 0.13607 0.0
C219 C 0.435 0.78723 0.94779 0.0
C220 C 0.41053 0.81923 0.05907 0.0
H221 H 0.43479 0.66388 0.26322 0.0
H222 H 0.52637 0.71117 0.39719 0.0
H223 H 0.48258 0.77572 0.34349 0.0
H224 H 0.51001 0.79446 0.28211 0.0
H225 H 0.52287 0.76909 0.35946 0.0
H226 H 0.53078 0.71865 0.17968 0.0
H227 H 0.55125 0.73624 0.26225 0.0
H228 H 0.53959 0.75881 0.17833 0.0
H229 H 0.3549 0.66875 0.06407 0.0
H230 H 0.33321 0.7496 0.92571 0.0
H231 H 0.37562 0.77676 0.98786 0.0
H232 H 0.42268 0.66975 0.04772 0.0
H233 H 0.40395 0.64666 0.12031 0.0
H234 H 0.44196 0.66263 0.13796 0.0
H235 H 0.36457 0.70423 0.22159 0.0
H236 H 0.39914 0.69987 0.2757 0.0
H237 H 0.38023 0.66677 0.2307 0.0
H238 H 0.45751 0.63856 0.37303 0.0
C239 C 0.45426 0.67529 0.29023 0.0
C240 C 0.35235 0.52168 0.29994 0.0
C241 C 0.37179 0.53539 0.35991 0.0
C242 C 0.36828 0.56654 0.37723 0.0
C243 C 0.32483 0.56948 0.28521 0.0
C244 C 0.32905 0.53952 0.26229 0.0
C245 C 0.30616 0.53067 0.19534 0.0
H246 H 0.17284 0.5718 0.99049 0.0
C247 C 0.29749 0.58148 0.24295 0.0
C248 C 0.28612 0.55924 0.18834 0.0
H249 H 0.22492 0.49153 0.94226 0.0
H250 H 0.26263 0.50641 0.04709 0.0
H251 H 0.17663 0.56959 0.16692 0.0
H252 H 0.22546 0.64341 0.07373 0.0
H253 H 0.19233 0.62737 0.02115 0.0
H254 H 0.23046 0.61702 0.99734 0.0
H255 H 0.16534 0.60579 0.12668 0.0
H256 H 0.18864 0.60316 0.21619 0.0
C257 C 0.2875 0.50198 0.21923 0.0
C258 C 0.32408 0.52573 0.11983 0.0
C259 C 0.24943 0.67581 0.35706 0.0
C260 C 0.21982 0.68776 0.34676 0.0
C261 C 0.20298 0.67969 0.27666 0.0
C262 C 0.21351 0.65766 0.22489 0.0
C263 C 0.24095 0.64275 0.24313 0.0
C264 C 0.25909 0.65288 0.30609 0.0
C265 C 0.28679 0.63339 0.31895 0.0
C266 C 0.28113 0.60872 0.25618 0.0
C267 C 0.25435 0.61446 0.21205 0.0
C268 C 0.28579 0.62017 0.4041 0.0
C269 C 0.31558 0.65352 0.30198 0.0
C270 C 0.19228 0.55724 1.00204 0.0
C271 C 0.19549 0.53038 0.95825 0.0
C272 C 0.22154 0.51229 0.97556 0.0
C273 C 0.2435 0.52103 0.03593 0.0
C274 C 0.23982 0.54847 0.07854 0.0
C275 C 0.21448 0.56597 0.05955 0.0
C276 C 0.21376 0.59496 0.10581 0.0
C277 C 0.24293 0.5928 0.15564 0.0
C278 C 0.25853 0.5653 0.14192 0.0
C279 C 0.18462 0.59363 0.15628 0.0
C280 C 0.21535 0.62227 0.04695 0.0
H281 H 0.34388 0.60699 0.35788 0.0
H282 H 0.35514 0.49794 0.28358 0.0
H283 H 0.33978 0.54565 0.10927 0.0
H284 H 0.30882 0.5235 0.06701 0.0
H285 H 0.33806 0.50478 0.12511 0.0
H286 H 0.27665 0.50578 0.27671 0.0
H287 H 0.30247 0.48177 0.22532 0.0
H288 H 0.26903 0.49635 0.17532 0.0
H289 H 0.26408 0.68195 0.40702 0.0
H290 H 0.18024 0.68814 0.26437 0.0
H291 H 0.19865 0.65166 0.17559 0.0
H292 H 0.29852 0.59886 0.41273 0.0
H293 H 0.26188 0.61386 0.41938 0.0
H294 H 0.29464 0.63728 0.44812 0.0
H295 H 0.33268 0.64075 0.26893 0.0
H296 H 0.32656 0.6627 0.35727 0.0
H297 H 0.30998 0.67351 0.26357 0.0
H298 H 0.38313 0.57771 0.4214 0.0
C299 C 0.34533 0.58355 0.34012 0.0
C300 C 0.1459 0.22266 0.50688 0.0
C301 C 0.14581 0.19063 0.51774 0.0
C302 C 0.14768 0.17226 0.44901 0.0
C303 C 0.13571 0.21601 0.36674 0.0
C304 C 0.13909 0.23469 0.432 0.0
C305 C 0.12919 0.26687 0.41551 0.0
H306 H 0.02156 0.35108 0.29853 0.0
C307 C 0.12011 0.23353 0.30298 0.0
C308 C 0.11711 0.26358 0.3299 0.0
H309 H 0.10684 0.37791 0.41991 0.0
H310 H 0.13145 0.33475 0.35943 0.0
H311 H 0.07285 0.32388 0.12976 0.0
H312 H 0.02064 0.2705 0.29844 0.0
H313 H 0.0137 0.26325 0.19485 0.0
H314 H 1.00153 0.29862 0.23746 0.0
H315 H 0.03255 0.33043 0.13835 0.0
H316 H 0.04531 0.29631 0.09186 0.0
C317 C 0.15761 0.28858 0.42578 0.0
C318 C 0.10342 0.2748 0.47259 0.0
C319 C 0.07797 0.17321 0.06736 0.0
C320 C 0.05606 0.17781 1.00663 0.0
C321 C 0.03986 0.20582 1.00751 0.0
C322 C 0.04594 0.22859 0.06719 0.0
C323 C 0.06843 0.2235 0.12716 0.0
C324 C 0.08358 0.19576 0.12596 0.0
C325 C 0.1047 0.19192 0.19612 0.0
C326 C 0.10311 0.22319 0.23483 0.0
C327 C 0.08128 0.24223 0.19658 0.0
C328 C 0.13729 0.18597 0.16705 0.0
C329 C 0.09121 0.16566 0.24801 0.0
C330 C 0.0451 0.34669 0.31595 0.0
C331 C 0.06149 0.36686 0.3708 0.0
C332 C 0.09301 0.36202 0.38403 0.0
C333 C 0.1071 0.33664 0.35253 0.0
C334 C 0.08937 0.31441 0.3123 0.0
C335 C 0.06028 0.32051 0.28526 0.0
C336 C 0.05094 0.2964 0.22129 0.0
C337 C 0.0772 0.27292 0.22816 0.0
C338 C 0.09794 0.28387 0.28738 0.0
C339 C 0.05032 0.31255 0.14058 0.0
C340 C 0.01984 0.2813 0.23899 0.0
H341 H 0.1433 0.16968 0.32433 0.0
H342 H 0.14722 0.23813 0.55632 0.0
H343 H 0.08398 0.25798 0.46621 0.0
H344 H 0.09431 0.29792 0.46256 0.0
H345 H 0.11189 0.27461 0.53498 0.0
H346 H 0.1673 0.29468 0.36788 0.0
H347 H 0.17634 0.27808 0.4619 0.0
H348 H 0.15212 0.30982 0.45792 0.0
H349 H 0.09013 0.15182 0.07045 0.0
H350 H 0.0223 0.20993 0.96249 0.0
H351 H 0.03266 0.24908 0.06629 0.0
H352 H 0.13922 0.16197 0.14608 0.0
H353 H 0.1553 0.19044 0.2131 0.0
H354 H 0.14281 0.20158 0.11723 0.0
H355 H 0.08909 0.1727 0.31033 0.0
H356 H 0.10518 0.14471 0.24588 0.0
H357 H 0.06751 0.15859 0.2288 0.0
H358 H 0.14955 0.1476 0.45233 0.0
C359 C 0.14312 0.18497 0.37371 0.0
C360 C 0.334 0.01928 0.04995 0.0
C361 C 0.3614 1.00509 0.0228 0.0
C362 C 0.37099 0.9786 0.0628 0.0
C363 C 0.32672 0.97822 0.14674 0.0
C364 C 0.3171 1.00546 0.11362 0.0
C365 C 0.28814 0.01595 0.15642 0.0
H366 H 0.17843 0.97043 0.43657 0.0
C367 C 0.30427 0.96722 0.20528 0.0
C368 C 0.28095 0.98897 0.21354 0.0
H369 H 0.18366 0.06112 0.337 0.0
H370 H 0.22738 0.04569 0.25642 0.0
H371 H 0.18986 0.93437 0.27681 0.0
H372 H 0.24383 0.96548 0.47662 0.0
H373 H 0.26016 0.93069 0.45284 0.0
H374 H 0.22057 0.93116 0.47892 0.0
H375 H 0.18985 0.91517 0.37037 0.0
H376 H 0.21603 0.90503 0.29466 0.0
C377 C 0.2615 0.02073 0.09676 0.0
C378 C 0.29625 0.04554 0.20242 0.0
C379 C 0.32599 0.8664 0.34454 0.0
C380 C 0.31001 0.84879 0.40072 0.0
C381 C 0.279 0.85545 0.41177 0.0
C382 C 0.26567 0.88121 0.37612 0.0
C383 C 0.28336 0.90061 0.32818 0.0
C384 C 0.31227 0.89194 0.30943 0.0
C385 C 0.32708 0.91414 0.25371 0.0
C386 C 0.303 0.93877 0.24622 0.0
C387 C 0.27795 0.93115 0.29186 0.0
C388 C 0.33146 0.89685 0.1748 0.0
C389 C 0.35697 0.92702 0.29451 0.0
C390 C 0.18871 0.98724 0.39777 0.0
C391 C 0.17737 0.01697 0.3947 0.0
C392 C 0.19189 0.03793 0.34201 0.0
C393 C 0.2173 0.02908 0.2955 0.0
C394 C 0.22878 0.99899 0.30159 0.0
C395 C 0.21385 0.97905 0.35272 0.0
C396 C 0.22834 0.94857 0.35801 0.0
C397 C 0.25509 0.95297 0.30446 0.0
C398 C 0.25602 0.98232 0.26783 0.0
C399 C 0.2049 0.92434 0.32392 0.0
C400 C 0.23867 0.94335 0.44576 0.0
H401 H 0.36346 0.94494 0.14795 0.0
H402 H 0.32593 0.04007 0.02205 0.0
H403 H 0.31606 0.04186 0.24388 0.0
H404 H 0.27687 0.05305 0.23739 0.0
H405 H 0.30245 0.06441 0.16132 0.0
H406 H 0.25649 0.99931 0.0628 0.0
H407 H 0.26723 0.03934 0.05448 0.0
H408 H 0.24048 0.02705 0.12735 0.0
H409 H 0.34965 0.86208 0.33222 0.0
H410 H 0.26519 0.84176 0.45058 0.0
H411 H 0.24258 0.88586 0.39096 0.0
H412 H 0.31592 0.87637 0.16849 0.0
H413 H 0.35525 0.88867 0.1705 0.0
H414 H 0.32569 0.9111 0.12248 0.0
H415 H 0.35385 0.9301 0.35884 0.0
H416 H 0.36369 0.95018 0.27376 0.0
H417 H 0.37633 0.91134 0.28668 0.0
H418 H 0.39169 0.9674 0.04586 0.0
C419 C 0.35412 0.96528 0.12275 0.0
C420 C 0.50704 0.32717 0.02465 0.0
C421 C 0.52522 0.34457 0.97072 0.0
C422 C 0.55553 0.33537 0.96022 0.0
C423 C 0.55229 0.30032 0.07031 0.0
C424 C 0.52119 0.30403 0.07256 0.0
C425 C 0.50797 0.28214 0.13469 0.0
H426 H 0.54106 0.1961 0.46914 0.0
C427 C 0.56277 0.2824 0.13921 0.0
C428 C 0.53704 0.26746 0.17155 0.0
H429 H 0.4836 0.15819 0.28093 0.0
H430 H 0.49597 0.20325 0.1971 0.0
H431 H 0.59171 0.21743 0.45941 0.0
H432 H 0.52904 0.26757 0.45 0.0
H433 H 0.5598 0.29216 0.42574 0.0
H434 H 0.56535 0.26263 0.49953 0.0
H435 H 0.61413 0.24055 0.39498 0.0
H436 H 0.59502 0.20727 0.35736 0.0
C437 C 0.48647 0.25819 0.09442 0.0
C438 C 0.49102 0.30045 0.19665 0.0
C439 C 0.65516 0.33305 0.27842 0.0
C440 C 0.6585 0.34078 0.35874 0.0
C441 C 0.64265 0.32316 0.41446 0.0
C442 C 0.62156 0.30028 0.39013 0.0
C443 C 0.61534 0.29566 0.30923 0.0
C444 C 0.63168 0.31223 0.25445 0.0
C445 C 0.6176 0.30902 0.17225 0.0
C446 C 0.58924 0.28881 0.18831 0.0
C447 C 0.5894 0.27981 0.26784 0.0
C448 C 0.64026 0.29203 0.12101 0.0
C449 C 0.60999 0.34136 0.13884 0.0
C450 C 0.52995 0.19789 0.41136 0.0
C451 C 0.51064 0.17379 0.38337 0.0
C452 C 0.49774 0.17672 0.30562 0.0
C453 C 0.50434 0.20288 0.25763 0.0
C454 C 0.52393 0.22655 0.28731 0.0
C455 C 0.53736 0.22283 0.36195 0.0
C456 C 0.56359 0.24517 0.37684 0.0
C457 C 0.56569 0.26052 0.2965 0.0
C458 C 0.54064 0.25225 0.24669 0.0
C459 C 0.59273 0.22685 0.39863 0.0
C460 C 0.55419 0.26802 0.44152 0.0
H461 H 0.5919 0.30613 0.9983 0.0
H462 H 0.48314 0.33229 0.03123 0.0
H463 H 0.50652 0.31819 0.22444 0.0
H464 H 0.48267 0.28496 0.24383 0.0
H465 H 0.47097 0.31208 0.16911 0.0
H466 H 0.49946 0.24271 0.05634 0.0
H467 H 0.46875 0.26968 0.05706 0.0
H468 H 0.47436 0.24425 0.13888 0.0
H469 H 0.66753 0.34621 0.23503 0.0
H470 H 0.64502 0.32849 0.47677 0.0
H471 H 0.60962 0.28831 0.43533 0.0
H472 H 0.64808 0.27069 0.15084 0.0
H473 H 0.66071 0.30683 0.11002 0.0
H474 H 0.62968 0.28512 0.0635 0.0
H475 H 0.58666 0.34832 0.15465 0.0
H476 H 0.61254 0.34273 0.0744 0.0
H477 H 0.62612 0.35956 0.16048 0.0
H478 H 0.56947 0.34672 0.91672 0.0
C479 C 0.56877 0.31273 1.00825 0.0
Eu480 Eu 0.99739 0.03668 0.64309 0.0
Eu481 Eu 0.03569 0.99829 0.76251 0.0
C482 C 0.03716 0.06982 0.79423 0.0
C483 C 0.98908 0.1116 0.56467 0.0
C484 C 0.99537 0.12482 0.63953 0.0
C485 C 0.03306 0.13959 0.51486 0.0
C486 C 0.02222 0.14212 0.6537 0.0
C487 C 1.00662 0.1215 0.50107 0.0
C488 C 0.04221 0.14786 0.59231 0.0
C489 C 0.97403 0.08081 0.56062 0.0
O490 O 0.99202 0.01517 0.82114 0.0
O491 O 0.95966 0.01413 0.71772 0.0
C492 C 0.96345 0.01379 0.7951 0.0
O493 O 0.99133 0.99097 0.57756 0.0
O494 O 0.04224 0.98334 0.88569 0.0
O495 O 0.05457 0.95328 0.79286 0.0
O496 O 0.02117 0.964 0.66466 0.0
C497 C 1.0047 0.96527 0.59865 0.0
O498 O 0.04629 0.03825 0.59402 0.0
O499 O 0.07465 1.00823 0.67842 0.0
O500 O 0.05429 0.0453 0.80211 0.0
O501 O 0.99056 0.05973 0.52931 0.0
O502 O 0.96181 0.07094 0.62534 0.0
O503 O 0.01337 0.06925 0.74417 0.0
C504 C 0.01639 0.93584 0.87635 0.0
C505 C 0.99068 0.94212 0.82754 0.0
C506 C 0.98464 0.89994 0.94929 0.0
C507 C 0.96217 0.92918 0.84156 0.0
C508 C 0.01332 0.91439 0.93748 0.0
C509 C 0.95874 0.90763 0.90167 0.0
C510 C 0.04428 0.95483 0.86386 0.0
C511 C 0.0722 0.02414 0.61195 0.0
H512 H 0.98192 0.11844 0.68978 0.0
H513 H 0.04813 0.14416 0.4665 0.0
H514 H 0.02867 0.14861 0.71369 0.0
H515 H 1.00228 0.11193 0.44274 0.0
H516 H 0.99207 0.95864 0.7807 0.0
H517 H 0.9824 0.8836 0.99705 0.0
H518 H 0.94264 0.93612 0.80528 0.0
H519 H 0.03267 0.90928 0.97641 0.0
Eu520 Eu 0.53253 0.03162 0.75426 0.0
Eu521 Eu 0.49199 0.99199 0.62735 0.0
C522 C 0.51798 0.95913 0.7919 0.0
C523 C 0.60429 0.04671 0.85226 0.0
C524 C 0.62077 0.04369 0.7826 0.0
C525 C 0.63168 1.00342 0.9079 0.0
C526 C 0.6396 0.01864 0.7727 0.0
C527 C 0.61232 0.02819 0.91737 0.0
C528 C 0.64322 0.99707 0.8334 0.0
C529 C 0.57288 0.05887 0.84618 0.0
O530 O 0.45576 1.00726 0.71437 0.0
O531 O 0.48547 0.03059 0.81228 0.0
C532 C 0.45858 0.01946 0.78596 0.0
O533 O 0.51321 0.06846 0.6712 0.0
O534 O 0.49048 0.95167 0.55267 0.0
O535 O 0.45113 0.98144 0.55356 0.0
O536 O 0.49533 0.0388 0.56706 0.0
C537 C 0.5034 0.06578 0.597 0.0
O538 O 0.56872 0.01585 0.66751 0.0
O539 O 0.53852 0.9954 0.56788 0.0
O540 O 0.49948 0.95805 0.72915 0.0
O541 O 0.56451 0.0702 0.77781 0.0
O542 O 0.55176 0.04042 0.87304 0.0
O543 O 0.53563 0.98344 0.80621 0.0
C544 C 0.442 0.92824 0.53219 0.0
C545 C 0.42072 0.923 0.4702 0.0
C546 C 0.42574 0.88023 0.59354 0.0
C547 C 0.40196 0.8968 0.47012 0.0
C548 C 0.44455 0.9067 0.59402 0.0
C549 C 0.40405 0.87541 0.53181 0.0
C550 C 0.46212 0.95557 0.52913 0.0
C551 C 0.56567 1.00488 0.59512 0.0
H552 H 0.61589 0.05802 0.73164 0.0
H553 H 0.63473 0.98724 0.956 0.0
H554 H 0.64893 0.01461 0.71536 0.0
H555 H 0.60037 0.03015 0.97207 0.0
H556 H 0.41863 0.93915 0.42175 0.0
H557 H 0.42774 0.86386 0.64149 0.0
H558 H 0.38547 0.89316 0.42208 0.0
H559 H 0.46106 0.91033 0.64232 0.0
Eu560 Eu 0.48776 0.5317 0.77248 0.0
Eu561 Eu 0.53872 0.50554 0.65386 0.0
C562 C 0.55926 0.52716 0.8348 0.0
C563 C 0.41799 0.5704 0.86309 0.0
C564 C 0.39413 0.56778 0.80547 0.0
C565 C 0.39084 0.61104 0.92625 0.0
C566 C 0.36877 0.58685 0.80838 0.0
C567 C 0.41591 0.59193 0.92381 0.0
C568 C 0.3673 0.6089 0.86826 0.0
C569 C 0.44485 0.55057 0.86324 0.0
O570 O 0.53126 0.46421 0.73497 0.0
O571 O 0.49145 0.48111 0.80799 0.0
C572 C 0.51104 0.45974 0.79027 0.0
O573 O 0.46199 0.52655 0.65421 0.0
O574 O 0.58154 0.51615 0.59571 0.0
O575 O 0.55746 0.47267 0.57309 0.0
O576 O 0.49377 0.49575 0.58553 0.0
C577 C 0.4677 0.51011 0.5915 0.0
O578 O 0.50353 0.57481 0.70528 0.0
O579 O 0.52482 0.55148 0.60028 0.0
O580 O 0.56715 0.52096 0.76232 0.0
O581 O 0.44269 0.52539 0.82165 0.0
O582 O 0.47169 0.56418 0.85915 0.0
O583 O 0.53047 0.53081 0.85237 0.0
C584 C 0.61179 0.47382 0.56064 0.0
C585 C 0.61319 0.44185 0.56913 0.0
C586 C 0.6646 0.47498 0.51867 0.0
C587 C 0.63927 0.4265 0.54758 0.0
C588 C 0.63827 0.4904 0.53946 0.0
C589 C 0.66442 0.44278 0.51698 0.0
C590 C 0.58212 0.48939 0.56147 0.0
C591 C 0.51363 0.57608 0.63265 0.0
H592 H 0.39513 0.5512 0.75814 0.0
H593 H 0.39 0.62794 0.97287 0.0
H594 H 0.35073 0.58493 0.76323 0.0
H595 H 0.43386 0.59412 0.96921 0.0
H596 H 0.59336 0.42839 0.58628 0.0
H597 H 0.68399 0.48811 0.49754 0.0
H598 H 0.63843 0.40162 0.54691 0.0
H599 H 0.63789 0.51515 0.53343 0.0
Eu600 Eu 0.0392 0.54518 0.61019 0.0
Eu601 Eu 0.01377 0.50249 0.7408 0.0
C602 C 0.08694 0.51853 0.74702 0.0
C603 C 0.07961 0.60855 0.49605 0.0
C604 C 0.08573 0.62852 0.56005 0.0
C605 C 0.11857 0.63521 0.42209 0.0
C606 C 0.10822 0.65174 0.55491 0.0
C607 C 0.09594 0.61229 0.42688 0.0
C608 C 0.12514 0.65478 0.48634 0.0
C609 C 0.05705 0.58318 0.50101 0.0
O610 O 1.00348 0.55303 0.76727 0.0
O611 O 0.0462 0.57423 0.72072 0.0
C612 C 0.0245 0.57497 0.77161 0.0
O613 O 0.98637 0.54716 0.60309 0.0
O614 O 1.00912 0.49556 0.86819 0.0
O615 O 0.97824 0.47155 0.78728 0.0
O616 O 0.97919 0.49831 0.63817 0.0
C617 C 0.96849 0.5224 0.60195 0.0
O618 O 0.03344 0.49812 0.55091 0.0
O619 O 0.03445 0.46671 0.65964 0.0
O620 O 0.06344 0.50603 0.78274 0.0
O621 O 0.0681 0.55577 0.51052 0.0
O622 O 0.03361 0.58782 0.5449 0.0
O623 O 0.08332 0.53156 0.67692 0.0
C624 C 0.95738 0.50635 0.87608 0.0
C625 C 0.94731 0.52584 0.81493 0.0
C626 C 0.935 0.54118 0.96933 0.0
C627 C 0.93339 0.5533 0.83013 0.0
C628 C 0.95078 0.51406 0.954 0.0
C629 C 0.92692 0.56138 0.90716 0.0
C630 C 0.98142 0.48446 0.85661 0.0
C631 C 0.0361 0.47042 0.58208 0.0
H632 H 0.07346 0.62591 0.61426 0.0
H633 H 0.13147 0.6373 0.36874 0.0
H634 H 0.11304 0.66669 0.60493 0.0
H635 H 0.09154 0.59711 0.37704 0.0
H636 H 0.95313 0.52175 0.75501 0.0
H637 H 0.93048 0.54717 0.02971 0.0
H638 H 0.92808 0.56859 0.78131 0.0
H639 H 0.95907 0.50011 1.00273 0.0
C640 C 0.11964 0.02122 0.41783 0.0
C641 C 0.1504 0.02456 0.44746 0.0
C642 C 0.12993 0.03104 0.58253 0.0
C643 C 0.09909 0.02561 0.55412 0.0
N644 N 0.0649 0.02041 0.43901 0.0
N645 N 0.18481 0.03021 0.56004 0.0
C646 C 0.09412 0.02234 0.47012 0.0
C647 C 0.15537 0.02895 0.53036 0.0
N648 N 0.11485 0.01462 0.33951 0.0
N649 N 0.13489 0.04075 0.65859 0.0
H650 H 0.20375 0.03089 0.52408 0.0
H651 H 0.19062 0.02886 0.61992 0.0
H652 H 0.1172 0.04463 0.69684 0.0
H653 H 0.15607 0.04838 0.68151 0.0
H654 H 0.09399 1.00712 0.31444 0.0
H655 H 0.13243 0.01494 0.29934 0.0
H656 H 0.05933 0.02365 0.37953 0.0
H657 H 0.04562 0.01642 0.47205 0.0
C658 C 0.53435 0.12851 0.45721 0.0
C659 C 0.50754 0.14462 0.43338 0.0
C660 C 0.47716 0.10721 0.51175 0.0
C661 C 0.50444 0.09366 0.54268 0.0
N662 N 0.55967 0.09572 0.55361 0.0
N663 N 0.45345 0.15132 0.44788 0.0
C664 C 0.53317 0.10575 0.51826 0.0
C665 C 0.47889 0.13435 0.463 0.0
N666 N 0.56092 0.13383 0.41856 0.0
N667 N 0.44947 0.09424 0.5292 0.0
H668 H 0.45382 0.17118 0.41352 0.0
H669 H 0.43261 0.14718 0.4744 0.0
H670 H 0.4473 0.07562 0.5675 0.0
H671 H 0.4289 0.10065 0.50189 0.0
H672 H 0.58035 0.12065 0.42722 0.0
H673 H 0.5625 0.1491 0.37134 0.0
H674 H 0.58095 0.10623 0.54513 0.0
H675 H 0.56027 0.07827 0.59572 0.0
C676 C 0.42708 0.52261 0.38802 0.0
C677 C 0.39599 0.51886 0.40821 0.0
C678 C 0.41315 0.50023 0.53993 0.0
C679 C 0.44391 0.50916 0.52447 0.0
N680 N 0.47988 0.5307 0.43292 0.0
N681 N 0.35901 0.50414 0.50384 0.0
C682 C 0.45092 0.52025 0.44768 0.0
C683 C 0.38897 0.5072 0.48402 0.0
N684 N 0.4337 0.52888 0.31142 0.0
N685 N 0.40715 0.48454 0.60774 0.0
H686 H 0.34095 0.50749 0.46319 0.0
H687 H 0.35204 0.4997 0.56095 0.0
H688 H 0.42434 0.47862 0.64879 0.0
H689 H 0.38582 0.47488 0.61983 0.0
H690 H 0.4558 0.52909 0.29023 0.0
H691 H 0.41662 0.53088 0.26733 0.0
H692 H 0.48551 0.54274 0.38215 0.0
H693 H 0.49811 0.52931 0.47359 0.0
C694 C 0.02976 0.38971 0.48129 0.0
C695 C 0.0484 0.39405 0.41451 0.0
C696 C 0.06094 0.44668 0.46238 0.0
C697 C 0.04058 0.44339 0.52618 0.0
N698 N 0.99964 0.41322 0.58223 0.0
N699 N 0.07471 0.43002 0.33176 0.0
C700 C 0.02326 0.41528 0.53159 0.0
C701 C 0.06144 0.42376 0.40194 0.0
N702 N 0.01914 0.3609 0.49889 0.0
N703 N 0.08156 0.47071 0.46186 0.0
H704 H 0.07513 0.41386 0.28644 0.0
H705 H 0.08219 0.45196 0.31571 0.0
H706 H 0.08399 0.48659 0.50764 0.0
H707 H 0.0988 0.47271 0.421 0.0
H708 H 1.00867 0.35551 0.55163 0.0
H709 H 0.02263 0.34198 0.46294 0.0
H710 H 0.98438 0.39453 0.58324 0.0
H711 H 0.9933 0.43144 0.61744 0.0
C712 C 0.91568 1.00752 0.9902 0.0
C713 C 0.88506 0.01042 0.96173 0.0
C714 C 0.90616 0.02302 0.83019 0.0
C715 C 0.93646 0.01373 0.85411 0.0
N716 N 0.96716 0.99279 0.96423 0.0
N717 N 0.85123 0.01788 0.84927 0.0
C718 C 0.94048 1.00516 0.93638 0.0
C719 C 0.88042 0.01727 0.88015 0.0
N720 N 0.92115 1.00657 0.06992 0.0
N721 N 0.90181 0.03936 0.76219 0.0
H722 H 0.83207 0.01531 0.88408 0.0
H723 H 0.84627 0.019 0.78881 0.0
H724 H 0.91976 0.04771 0.72898 0.0
H725 H 0.88081 0.04861 0.74523 0.0
H726 H 0.94303 1.0081 0.09608 0.0
H727 H 0.90357 1.00781 0.10998 0.0
H728 H 0.96991 0.98353 0.02057 0.0
H729 H 0.98573 0.9882 0.93052 0.0
C730 C 0.51971 0.87663 0.87978 0.0
C731 C 0.51301 0.88179 0.96046 0.0
C732 C 0.50976 0.93751 0.93091 0.0
C733 C 0.51764 0.93255 0.85085 0.0
N734 N 0.5354 0.89761 0.75353 0.0
N735 N 0.50691 0.91796 0.06531 0.0
C736 C 0.52401 0.9021 0.82665 0.0
C737 C 0.5099 0.91254 0.98664 0.0
N738 N 0.52137 0.84712 0.85333 0.0
N739 N 0.50002 0.96575 0.95286 0.0
H740 H 0.50595 0.90039 0.10705 0.0
H741 H 0.50802 0.93981 0.09012 0.0
H742 H 0.49888 0.9844 0.91447 0.0
H743 H 0.49041 0.97013 1.00695 0.0
H744 H 0.52211 0.84128 0.79395 0.0
H745 H 0.52042 0.82816 0.89091 0.0
H746 H 0.54364 0.87675 0.73454 0.0
H747 H 0.53929 0.91555 0.71404 0.0
C748 C 0.63046 0.50769 0.96476 0.0
C749 C 0.63181 0.53225 0.02007 0.0
C750 C 0.58656 0.55456 0.95147 0.0
C751 C 0.58385 0.5288 0.89993 0.0
N752 N 0.59912 0.47703 0.8729 0.0
N753 N 0.60688 0.57554 0.07569 0.0
C754 C 0.60463 0.50427 0.91109 0.0
C755 C 0.60847 0.55456 1.01628 0.0
N756 N 0.65451 0.48831 0.96048 0.0
N757 N 0.56936 0.57984 0.93634 0.0
H758 H 0.62218 0.57595 0.12422 0.0
H759 H 0.58873 0.59043 0.08083 0.0
H760 H 0.55388 0.58127 0.88848 0.0
H761 H 0.57259 0.60051 0.96656 0.0
H762 H 0.65636 0.47227 0.91547 0.0
H763 H 0.67395 0.49002 0.99755 0.0
H764 H 0.61154 0.45734 0.88508 0.0
H765 H 0.58012 0.47307 0.83535 0.0
C766 C 0.99539 0.64659 0.87981 0.0
C767 C 0.01998 0.65335 0.93522 0.0
C768 C 0.04557 0.60648 0.88974 0.0
C769 C 0.02248 0.60158 0.82931 0.0
N770 N 0.9769 0.61926 0.76181 0.0
N771 N 0.07036 0.64129 0.98569 0.0
C772 C 0.99768 0.62218 0.8235 0.0
C773 C 0.04546 0.63352 0.9386 0.0
N774 N 0.96931 0.66331 0.88233 0.0
N775 N 0.06731 0.58475 0.90197 0.0
H776 H 0.07093 0.6604 0.02269 0.0
H777 H 0.09116 0.63015 0.98422 0.0
H778 H 0.06818 0.56492 0.86784 0.0
H779 H 0.08289 0.58499 0.94972 0.0
H780 H 0.94944 0.65835 0.84893 0.0
H781 H 0.96626 0.68036 0.92426 0.0
H782 H 0.96022 0.63528 0.74823 0.0
H783 H 0.97773 0.60191 0.71972 0.0
C784 C 0.12888 0.14521 0.59527 0.0
C785 C 0.13483 0.177 0.59407 0.0
C786 C 0.08337 0.18643 0.63684 0.0
C787 C 0.07473 0.15657 0.61009 0.0
N788 N 0.09019 0.10479 0.5828 0.0
N789 N 0.1264 0.21865 0.68229 0.0
C790 C 0.09791 0.13475 0.59719 0.0
C791 C 0.11489 0.19481 0.63813 0.0
N792 N 0.1528 0.12582 0.59183 0.0
N793 N 0.06192 0.20713 0.65629 0.0
H794 H 0.14995 0.2234 0.68562 0.0
H795 H 0.11312 0.23123 0.72009 0.0
H796 H 0.03854 0.20181 0.65509 0.0
H797 H 0.06748 0.23001 0.66905 0.0
H798 H 0.15056 0.10206 0.59684 0.0
H799 H 0.17523 0.13449 0.58896 0.0
H800 H 0.10559 0.08924 0.56147 0.0
H801 H 0.06807 0.09597 0.58979 0.0
C802 C 0.35525 0.81691 0.43119 0.0
C803 C 0.32768 0.82892 0.45772 0.0
C804 C 0.35431 0.85188 0.57094 0.0
C805 C 0.3819 0.8492 0.53014 0.0
N806 N 0.41109 0.82058 0.43918 0.0
N807 N 0.30192 0.83295 0.57999 0.0
C808 C 0.38329 0.82782 0.46734 0.0
C809 C 0.32741 0.83795 0.53745 0.0
N810 N 0.35407 0.79864 0.36606 0.0
N811 N 0.35332 0.8694 0.63728 0.0
H812 H 0.28333 0.82011 0.55686 0.0
H813 H 0.30106 0.83793 0.63996 0.0
H814 H 0.37295 0.87919 0.66419 0.0
H815 H 0.3329 0.8748 0.66361 0.0
H816 H 0.37316 0.78938 0.34069 0.0
H817 H 0.333 0.79229 0.33933 0.0
H818 H 0.41407 0.80608 0.39149 0.0
H819 H 0.43141 0.82886 0.46637 0.0
C820 C 0.69442 0.37108 0.44997 0.0
C821 C 0.67328 0.37042 0.38433 0.0
C822 C 0.67497 0.42628 0.38458 0.0
C823 C 0.68467 0.42577 0.46435 0.0
N824 N 0.71116 0.39924 0.56825 0.0
N825 N 0.63902 0.39993 0.29836 0.0
C826 C 0.698 0.39874 0.49436 0.0
C827 C 0.66301 0.39873 0.35176 0.0
N828 N 0.70984 0.34529 0.47089 0.0
N829 N 0.67348 0.45329 0.34434 0.0
H830 H 0.62515 0.38101 0.28365 0.0
H831 H 0.63007 0.42061 0.27808 0.0
H832 H 0.68218 0.47375 0.36866 0.0
H833 H 0.66708 0.4543 0.28459 0.0
H834 H 0.72668 0.3449 0.51573 0.0
H835 H 0.70748 0.32503 0.43824 0.0
H836 H 0.71842 0.37967 0.59813 0.0
H837 H 0.71366 0.41978 0.59981 0.0
C838 C 0.17518 0.71562 0.39761 0.0
C839 C 0.2035 0.70167 0.41469 0.0
C840 C 0.18009 0.67019 0.51532 0.0
C841 C 0.15098 0.67713 0.48103 0.0
N842 N 0.12023 0.713 0.40606 0.0
N843 N 0.23271 0.68838 0.53161 0.0
C844 C 0.1483 0.70256 0.42908 0.0
C845 C 0.20613 0.68627 0.48776 0.0
N846 N 0.17327 0.73904 0.34492 0.0
N847 N 0.18319 0.64741 0.57006 0.0
H848 H 0.25045 0.70325 0.51525 0.0
H849 H 0.23521 0.67883 0.5878 0.0
H850 H 0.16456 0.63529 0.59241 0.0
H851 H 0.20451 0.63974 0.59006 0.0
H852 H 0.19262 0.7486 0.31885 0.0
H853 H 0.19262 0.7486 0.31885 0.0
H854 H 0.1176 0.73107 0.36605 0.0
H855 H 0.10005 0.70388 0.42876 0.0
C856 C 0.88069 0.86708 0.87218 0.0
C857 C 0.87457 0.86111 0.95151 0.0
C858 C 0.9142 0.89905 0.99094 0.0
C859 C 0.92754 0.89469 0.91637 0.0
N860 N 0.92229 0.87411 0.78325 0.0
N861 N 0.87247 0.88548 0.07754 0.0
C862 C 0.90998 0.87958 0.85478 0.0
C863 C 0.88685 0.88226 1.00804 0.0
N864 N 0.86075 0.85604 0.81534 0.0
N865 N 0.92743 0.91934 0.04386 0.0
H866 H 0.8507 0.87597 0.08536 0.0
H867 H 0.88058 0.89889 0.12463 0.0
H868 H 0.94618 0.93331 0.03039 0.0
H869 H 0.91947 0.92341 0.09987 0.0
H870 H 0.86323 0.86044 0.75542 0.0
H871 H 0.84045 0.84471 0.83062 0.0
H872 H 0.91107 0.86107 0.73931 0.0
H873 H 0.94485 0.87986 0.7704 0.0
C874 C 0.69252 0.92889 0.78765 0.0
C875 C 0.6748 0.9061 0.82546 0.0
C876 C 0.63176 0.94042 0.81953 0.0
C877 C 0.65324 0.96554 0.81541 0.0
N878 N 0.70444 0.98321 0.78418 0.0
N879 N 0.62433 0.88453 0.8213 0.0
C880 C 0.6837 0.9598 0.79402 0.0
C881 C 0.64297 0.90997 0.82048 0.0
N882 N 0.717 0.92072 0.74553 0.0
N883 N 0.6013 0.94582 0.82536 0.0
H884 H 0.63366 0.86265 0.82418 0.0
H885 H 0.60057 0.88498 0.81523 0.0
H886 H 0.59241 0.96771 0.8189 0.0
H887 H 0.58506 0.92879 0.83694 0.0
H888 H 0.72973 0.93644 0.71286 0.0
H889 H 0.72211 0.89762 0.73788 0.0
H890 H 0.72755 0.97936 0.7753 0.0
H891 H 0.69897 1.00623 0.79024 0.0
C892 C 0.33074 0.68536 0.85246 0.0
C893 C 0.32181 0.68586 0.93152 0.0
C894 C 0.32169 0.62993 0.93296 0.0
C895 C 0.3425 0.63149 0.87034 0.0
N896 N 0.36246 0.65988 0.75987 0.0
N897 N 0.29308 0.65909 0.02815 0.0
C898 C 0.34498 0.65876 0.82505 0.0
C899 C 0.3106 0.65795 0.96325 0.0
N900 N 0.32517 0.70981 0.80451 0.0
N901 N 0.31468 0.60214 0.96575 0.0
H902 H 0.28634 0.68019 0.05029 0.0
H903 H 0.28518 0.63991 0.05857 0.0
H904 H 0.32293 0.58177 0.94295 0.0
H905 H 0.30013 0.59908 1.01262 0.0
H906 H 0.33002 0.70996 0.74472 0.0
H907 H 0.3119 0.72791 0.82289 0.0
H908 H 0.36762 0.68029 0.73053 0.0
H909 H 0.37267 0.64053 0.7372 0.0
C910 C 0.87138 0.62748 0.89633 0.0
C911 C 0.87958 0.64176 0.96795 0.0
C912 C 0.92744 0.61398 0.97122 0.0
C913 C 0.91257 0.5915 0.92101 0.0
N914 N 0.86846 0.57764 0.83567 0.0
N915 N 0.92169 0.66185 0.04504 0.0
C916 C 0.88437 0.59879 0.88107 0.0
C917 C 0.91053 0.6402 0.99329 0.0
N918 N 0.84879 0.63942 0.84939 0.0
N919 N 0.95665 0.60965 0.99932 0.0
H920 H 0.90794 0.6799 0.06192 0.0
H921 H 0.94397 0.66262 0.06856 0.0
H922 H 0.96997 0.59172 0.98017 0.0
H923 H 0.96821 0.62436 0.03885 0.0
H924 H 0.84247 0.63024 0.79434 0.0
H925 H 0.83888 0.66022 0.86348 0.0
H926 H 0.84674 0.58175 0.81121 0.0
H927 H 0.87524 0.55503 0.82935 0.0
C928 C 0.02476 0.13078 0.9576 0.0
C929 C 0.0495 0.15197 0.94686 0.0
C930 C 0.06767 0.11832 0.83977 0.0
C931 C 0.04203 0.09788 0.84798 0.0
N932 N 0.99324 0.08818 0.90747 0.0
N933 N 0.09186 0.16829 0.86897 0.0
C934 C 0.01971 0.10532 0.9045 0.0
C935 C 0.0702 0.14631 0.88535 0.0
N936 N 1.00668 0.13412 0.02121 0.0
N937 N 0.08976 0.11094 0.78828 0.0
H938 H 0.0942 0.18873 0.90078 0.0
H939 H 0.10572 0.16763 0.82029 0.0
H940 H 0.08803 0.09162 0.75211 0.0
H941 H 0.11057 0.12282 0.78435 0.0
H942 H 0.99094 0.11747 0.03918 0.0
H943 H 1.00893 0.15266 0.05995 0.0
H944 H 0.97437 0.09462 0.93901 0.0
H945 H 0.98916 0.06845 0.87417 0.0
C946 C 0.40188 0.0398 0.95335 0.0
C947 C 0.38073 0.01439 0.95138 0.0
C948 C 0.41072 0.99228 0.84346 0.0
C949 C 0.43078 0.01866 0.84079 0.0
N950 N 0.4392 0.07109 0.88335 0.0
N951 N 0.36074 0.97128 0.87652 0.0
C952 C 0.42446 0.04347 0.89294 0.0
C953 C 0.38372 0.99253 0.88984 0.0
N954 N 0.40127 0.06 1.01458 0.0
N955 N 0.41853 0.96565 0.80755 0.0
H956 H 0.34079 0.97095 0.90882 0.0
H957 H 0.36008 0.95643 0.82834 0.0
H958 H 0.43924 0.96281 0.78018 0.0
H959 H 0.40628 0.94506 0.81402 0.0
H960 H 0.41816 0.07686 0.02512 0.0
H961 H 0.38477 0.05855 0.05762 0.0
H962 H 0.43378 0.09075 0.91439 0.0
H963 H 0.45443 0.0752 0.83827 0.0
C964 C 0.50922 0.37283 0.84363 0.0
C965 C 0.51486 0.37338 0.92693 0.0
C966 C 0.51776 0.43032 0.92071 0.0
C967 C 0.51122 0.42989 0.83766 0.0
N968 N 0.49519 0.40053 0.72308 0.0
N969 N 0.51908 0.40312 0.04632 0.0
C970 C 0.50539 0.40101 0.8001 0.0
C971 C 0.51717 0.40232 0.96575 0.0
N972 N 0.50825 0.34519 0.80566 0.0
N973 N 0.52659 0.45736 0.95624 0.0
H974 H 0.51977 0.38337 0.08106 0.0
H975 H 0.51731 0.42315 0.07908 0.0
H976 H 0.52764 0.47817 0.92616 0.0
H977 H 0.53548 0.45892 1.0138 0.0
H978 H 0.50823 0.34289 0.74458 0.0
H979 H 0.50892 0.32431 0.83589 0.0
H980 H 0.48747 0.38072 0.69383 0.0
H981 H 0.49202 0.42047 0.68994 0.0
C982 C 0.16609 0.54593 0.83398 0.0
C983 C 0.17175 0.52335 0.89298 0.0
C984 C 0.12731 0.49367 0.83745 0.0
C985 C 0.118 0.51924 0.79037 0.0
N986 N 0.12762 0.57285 0.75774 0.0
N987 N 0.15469 0.47657 0.95578 0.0
C988 C 0.13733 0.54612 0.79147 0.0
C989 C 0.15167 0.49727 0.89566 0.0
N990 N 0.18829 0.56748 0.81869 0.0
N991 N 0.11353 0.46559 0.82516 0.0
H992 H 0.17185 0.47838 0.99971 0.0
H993 H 0.13862 0.45907 0.96548 0.0
H994 H 0.09706 0.4616 0.78024 0.0
H995 H 0.12106 0.44566 0.85301 0.0
H996 H 0.18657 0.58282 0.77159 0.0
H997 H 0.20974 0.56765 0.84764 0.0
H998 H 0.13967 0.59364 0.76458 0.0
H999 H 0.10615 0.57548 0.7309 0.0
C1000 C 0.98101 0.88532 0.51237 0.0
C1001 C 1.00213 0.88135 0.45045 0.0
C1002 C 0.02637 0.93137 0.49073 0.0
C1003 C 1.00309 0.93682 0.54581 0.0
N1004 N 0.95848 0.91724 0.61068 0.0
N1005 N 0.0415 0.90495 0.37258 0.0
C1006 C 0.98045 0.91338 0.55635 0.0
C1007 C 0.02396 0.90557 0.43776 0.0
N1008 N 0.96114 0.86234 0.53243 0.0
N1009 N 0.0518 0.95011 0.49128 0.0
H1010 H 0.04017 0.8872 0.33144 0.0
H1011 H 0.05521 0.92346 0.35529 0.0
H1012 H 0.05496 0.96822 0.53088 0.0
H1013 H 0.07104 0.94572 0.45873 0.0
H1014 H 0.96058 0.84053 0.50702 0.0
H1015 H 0.96058 0.84053 0.50702 0.0
H1016 H 0.94138 0.90071 0.62057 0.0
H1017 H 0.95716 0.93711 0.6446 0.0
C1018 C 0.64755 0.98973 0.51596 0.0
C1019 C 0.64643 1.0036 0.43956 0.0
C1020 C 0.59332 0.02008 0.46711 0.0
C1021 C 0.59358 1.00418 0.54113 0.0
N1022 N 0.61981 0.96887 0.6273 0.0
N1023 N 0.61632 0.02943 0.33972 0.0
C1024 C 0.62056 0.98791 0.56332 0.0
C1025 C 0.61872 0.01807 0.41479 0.0
N1026 N 0.67465 0.97829 0.54388 0.0
N1027 N 0.56907 0.03812 0.44735 0.0
H1028 H 0.63466 0.03024 0.30184 0.0
H1029 H 0.59582 0.03643 0.3132 0.0
H1030 H 0.54985 0.03963 0.48167 0.0
H1031 H 0.56887 0.05348 0.40026 0.0
H1032 H 0.67833 0.971 0.60187 0.0
H1033 H 0.69434 0.97853 0.51069 0.0
H1034 H 0.63699 0.95346 0.64176 0.0
H1035 H 0.60067 0.96649 0.66212 0.0
C1036 C 0.48253 0.6499 0.53031 0.0
C1037 C 0.5038 0.65477 0.4694 0.0
C1038 C 0.53552 0.61433 0.53208 0.0
C1039 C 0.51129 0.60537 0.58267 0.0
N1040 N 0.45869 0.61313 0.61755 0.0
N1041 N 0.55013 0.63912 0.40967 0.0
C1042 C 0.48413 0.62306 0.5794 0.0
C1043 C 0.53037 0.63647 0.4701 0.0
N1044 N 0.46021 0.67086 0.5402 0.0
N1045 N 0.56389 0.60237 0.54454 0.0
H1046 H 0.54758 0.65541 0.36495 0.0
H1047 H 0.56782 0.62392 0.40141 0.0
H1048 H 0.56899 0.58755 0.5913 0.0
H1049 H 0.58305 0.60984 0.51434 0.0
H1050 H 0.44564 0.67028 0.58766 0.0
H1051 H 0.45859 0.69062 0.5055 0.0
H1052 H 0.43746 0.62337 0.61013 0.0
H1053 H 0.45755 0.59278 0.64957 0.0
C1054 C 0.89869 0.54452 0.46757 0.0
C1055 C 0.8774 0.52008 0.47908 0.0
C1056 C 0.9127 0.49994 0.58238 0.0
C1057 C 0.93661 0.52148 0.56064 0.0
N1058 N 0.95225 0.55814 0.46073 0.0
N1059 N 0.86603 0.47198 0.54155 0.0
C1060 C 0.92949 0.54235 0.49776 0.0
C1061 C 0.88497 0.49714 0.53498 0.0
N1062 N 0.88966 0.5697 0.4258 0.0
N1063 N 0.91533 0.48256 0.64923 0.0
H1064 H 0.8449 0.47004 0.51126 0.0
H1065 H 0.87219 0.45234 0.57293 0.0
H1066 H 0.93419 0.48264 0.68741 0.0
H1067 H 0.89706 0.46985 0.67149 0.0
H1068 H 0.9035 0.58932 0.42016 0.0
H1069 H 0.86705 0.57216 0.40557 0.0
H1070 H 0.94814 0.57176 0.41107 0.0
H1071 H 0.97541 0.55406 0.47084 0.0
loop_
_geom_bond_atom_site_label_1
_geom_bond_atom_site_label_2
_geom_bond_distance
_geom_bond_site_symmetry_2
_ccdc_geom_bond_type
C0 C1 1.391 . S
C0 C4 1.391 . S
C0 H42 0.948 . S
C1 C0 1.391 . S
C1 C2 1.391 . S
C2 C1 1.391 . S
C2 H58 0.947 . S
C2 C59 1.392 . S
C3 C4 1.391 . S
C3 C7 1.397 . S
C3 C59 1.419 . S
C4 C0 1.391 . S
C4 C3 1.391 . S
C4 C5 1.399 . S
C5 C4 1.399 . S
C5 C8 1.396 . S
C5 C17 1.453 . S
C5 C18 1.684 . S
H6 C30 0.948 . S
C7 C3 1.397 . S
C7 C8 1.394 . S
C7 C26 1.723 . S
C8 C5 1.396 . S
C8 C7 1.394 . S
C8 C38 1.723 . S
H9 C32 0.947 . S
H10 C33 0.948 . S
H11 C39 0.982 . S
H12 C40 0.979 . S
H13 C40 0.980 . S
H14 C40 0.983 . S
H15 C39 0.979 . S
H16 C39 0.977 . S
C17 C5 1.453 . S
C17 H46 0.982 . S
C17 H47 0.979 . S
C17 H48 0.977 . S
C18 C5 1.684 . S
C18 H43 0.979 . S
C18 H44 0.980 . S
C18 H45 0.983 . S
C19 C20 1.391 . S
C19 C24 1.391 . S
C19 H49 0.948 . S
C20 C19 1.391 . S
C20 C21 1.391 . S
C21 C20 1.391 . S
C21 C22 1.392 . S
C21 H50 0.947 1_554 S
C22 C21 1.392 . S
C22 C23 1.419 . S
C22 H51 0.948 . S
C23 C22 1.419 . S
C23 C24 1.391 . S
C23 C27 1.397 . S
C24 C19 1.391 . S
C24 C23 1.391 . S
C24 C25 1.399 . S
C25 C24 1.399 . S
C25 C26 1.396 . S
C25 C28 1.453 . S
C25 C29 1.684 . S
C26 C7 1.723 . S
C26 C25 1.396 . S
C26 C27 1.394 . S
C27 C23 1.397 . S
C27 C26 1.394 . S
C27 C37 1.723 . S
C28 C25 1.453 . S
C28 H52 0.982 . S
C28 H53 0.979 . S
C28 H54 0.977 . S
C29 C25 1.684 . S
C29 H55 0.979 . S
C29 H56 0.980 . S
C29 H57 0.983 . S
C30 H6 0.948 . S
C30 C31 1.391 . S
C30 C35 1.391 . S
C31 C30 1.391 . S
C31 C32 1.391 . S
C32 H9 0.947 . S
C32 C31 1.391 . S
C32 C33 1.392 . S
C33 H10 0.948 . S
C33 C32 1.392 . S
C33 C34 1.419 . S
C34 C33 1.419 . S
C34 C35 1.391 . S
C34 C38 1.397 . S
C35 C30 1.391 . S
C35 C34 1.391 . S
C35 C36 1.399 . S
C36 C35 1.399 . S
C36 C37 1.396 . S
C36 C39 1.453 . S
C36 C40 1.684 . S
C37 C27 1.723 . S
C37 C36 1.396 . S
C37 C38 1.394 . S
C38 C8 1.723 . S
C38 C34 1.397 . S
C38 C37 1.394 . S
C39 H11 0.982 . S
C39 H15 0.979 . S
C39 H16 0.977 . S
C39 C36 1.453 . S
C40 H12 0.979 . S
C40 H13 0.980 . S
C40 H14 0.983 . S
C40 C36 1.684 . S
H41 C59 0.948 . S
H42 C0 0.948 . S
H43 C18 0.979 . S
H44 C18 0.980 . S
H45 C18 0.983 . S
H46 C17 0.982 . S
H47 C17 0.979 . S
H48 C17 0.977 . S
H49 C19 0.948 . S
H50 C21 0.947 1_556 S
H51 C22 0.948 . S
H52 C28 0.982 . S
H53 C28 0.979 . S
H54 C28 0.977 . S
H55 C29 0.979 . S
H56 C29 0.980 . S
H57 C29 0.983 . S
H58 C2 0.947 . S
C59 C2 1.392 . S
C59 C3 1.419 . S
C59 H41 0.948 . S
C60 C61 1.391 . S
C60 C64 1.391 . S
C60 H102 0.948 . S
C61 C60 1.391 . S
C61 C62 1.391 . S
C62 C61 1.391 . S
C62 H118 0.947 . S
C62 C119 1.392 . S
C63 C64 1.391 . S
C63 C67 1.397 . S
C63 C119 1.419 . S
C64 C60 1.391 . S
C64 C63 1.391 . S
C64 C65 1.399 . S
C65 C64 1.399 . S
C65 C68 1.396 . S
C65 C77 1.453 . S
C65 C78 1.684 . S
H66 C90 0.948 . S
C67 C63 1.397 . S
C67 C68 1.394 . S
C67 C86 1.723 . S
C68 C65 1.396 . S
C68 C67 1.394 . S
C68 C98 1.723 . S
H69 C92 0.947 . S
H70 C93 0.948 . S
H71 C99 0.982 1_455 S
H72 C100 0.979 . S
H73 C100 0.980 . S
H74 C100 0.983 . S
H75 C99 0.979 . S
H76 C99 0.977 . S
C77 C65 1.453 . S
C77 H106 0.982 1_655 S
C77 H107 0.979 . S
C77 H108 0.977 . S
C78 C65 1.684 . S
C78 H103 0.979 . S
C78 H104 0.980 . S
C78 H105 0.983 . S
C79 C80 1.391 . S
C79 C84 1.391 . S
C79 H109 0.948 . S
C80 C79 1.391 . S
C80 C81 1.391 . S
C81 C80 1.391 . S
C81 C82 1.392 . S
C81 H110 0.947 . S
C82 C81 1.392 . S
C82 C83 1.419 . S
C82 H111 0.948 . S
C83 C82 1.419 . S
C83 C84 1.391 . S
C83 C87 1.397 . S
C84 C79 1.391 . S
C84 C83 1.391 . S
C84 C85 1.399 . S
C85 C84 1.399 . S
C85 C86 1.396 . S
C85 C88 1.453 . S
C85 C89 1.684 . S
C86 C67 1.723 . S
C86 C85 1.396 . S
C86 C87 1.394 . S
C87 C83 1.397 . S
C87 C86 1.394 . S
C87 C97 1.723 . S
C88 C85 1.453 . S
C88 H112 0.982 1_655 S
C88 H113 0.979 . S
C88 H114 0.977 . S
C89 C85 1.684 . S
C89 H115 0.979 . S
C89 H116 0.980 . S
C89 H117 0.983 . S
C90 H66 0.948 . S
C90 C91 1.391 . S
C90 C95 1.391 . S
C91 C90 1.391 . S
C91 C92 1.391 . S
C92 H69 0.947 . S
C92 C91 1.391 . S
C92 C93 1.392 . S
C93 H70 0.948 . S
C93 C92 1.392 . S
C93 C94 1.419 . S
C94 C93 1.419 . S
C94 C95 1.391 . S
C94 C98 1.397 . S
C95 C90 1.391 . S
C95 C94 1.391 . S
C95 C96 1.399 . S
C96 C95 1.399 . S
C96 C97 1.396 . S
C96 C99 1.453 . S
C96 C100 1.684 . S
C97 C87 1.723 . S
C97 C96 1.396 . S
C97 C98 1.394 . S
C98 C68 1.723 . S
C98 C94 1.397 . S
C98 C97 1.394 . S
C99 H71 0.982 1_655 S
C99 H75 0.979 . S
C99 H76 0.977 . S
C99 C96 1.453 . S
C100 H72 0.979 . S
C100 H73 0.980 . S
C100 H74 0.983 . S
C100 C96 1.684 . S
H101 C119 0.948 . S
H102 C60 0.948 . S
H103 C78 0.979 . S
H104 C78 0.980 . S
H105 C78 0.983 . S
H106 C77 0.982 1_455 S
H107 C77 0.979 . S
H108 C77 0.977 . S
H109 C79 0.948 . S
H110 C81 0.947 . S
H111 C82 0.948 . S
H112 C88 0.982 1_455 S
H113 C88 0.979 . S
H114 C88 0.977 . S
H115 C89 0.979 . S
H116 C89 0.980 . S
H117 C89 0.983 . S
H118 C62 0.947 . S
C119 C62 1.392 . S
C119 C63 1.419 . S
C119 H101 0.948 . S
C120 C121 1.391 . S
C120 C124 1.391 . S
C120 H162 0.948 . S
C121 C120 1.391 . S
C121 C122 1.391 . S
C122 C121 1.391 . S
C122 H178 0.947 . S
C122 C179 1.392 . S
C123 C124 1.391 . S
C123 C127 1.397 . S
C123 C179 1.419 . S
C124 C120 1.391 . S
C124 C123 1.391 . S
C124 C125 1.399 . S
C125 C124 1.399 . S
C125 C128 1.396 . S
C125 C137 1.453 . S
C125 C138 1.684 . S
H126 C150 0.948 . S
C127 C123 1.397 . S
C127 C128 1.394 . S
C127 C146 1.723 . S
C128 C125 1.396 . S
C128 C127 1.394 . S
C128 C158 1.723 . S
H129 C152 0.947 . S
H130 C153 0.948 . S
H131 C159 0.982 1_545 S
H132 C160 0.979 . S
H133 C160 0.980 . S
H134 C160 0.983 . S
H135 C159 0.979 . S
H136 C159 0.977 . S
C137 C125 1.453 . S
C137 H166 0.982 1_565 S
C137 H167 0.979 . S
C137 H168 0.977 . S
C138 C125 1.684 . S
C138 H163 0.979 . S
C138 H164 0.980 . S
C138 H165 0.983 . S
C139 C140 1.391 . S
C139 C144 1.391 . S
C139 H169 0.948 . S
C140 C139 1.391 . S
C140 C141 1.391 . S
C141 C140 1.391 . S
C141 C142 1.392 . S
C141 H170 0.947 . S
C142 C141 1.392 . S
C142 C143 1.419 . S
C142 H171 0.948 . S
C143 C142 1.419 . S
C143 C144 1.391 . S
C143 C147 1.397 . S
C144 C139 1.391 . S
C144 C143 1.391 . S
C144 C145 1.399 . S
C145 C144 1.399 . S
C145 C146 1.396 . S
C145 C148 1.453 . S
C145 C149 1.684 . S
C146 C127 1.723 . S
C146 C145 1.396 . S
C146 C147 1.394 . S
C147 C143 1.397 . S
C147 C146 1.394 . S
C147 C157 1.723 . S
C148 C145 1.453 . S
C148 H172 0.982 1_565 S
C148 H173 0.979 . S
C148 H174 0.977 . S
C149 C145 1.684 . S
C149 H175 0.979 . S
C149 H176 0.980 . S
C149 H177 0.983 . S
C150 H126 0.948 . S
C150 C151 1.391 . S
C150 C155 1.391 . S
C151 C150 1.391 . S
C151 C152 1.391 . S
C152 H129 0.947 . S
C152 C151 1.391 . S
C152 C153 1.392 . S
C153 H130 0.948 . S
C153 C152 1.392 . S
C153 C154 1.419 . S
C154 C153 1.419 . S
C154 C155 1.391 . S
C154 C158 1.397 . S
C155 C150 1.391 . S
C155 C154 1.391 . S
C155 C156 1.399 . S
C156 C155 1.399 . S
C156 C157 1.396 . S
C156 C159 1.453 . S
C156 C160 1.684 . S
C157 C147 1.723 . S
C157 C156 1.396 . S
C157 C158 1.394 . S
C158 C128 1.723 . S
C158 C154 1.397 . S
C158 C157 1.394 . S
C159 H131 0.982 1_565 S
C159 H135 0.979 . S
C159 H136 0.977 . S
C159 C156 1.453 . S
C160 H132 0.979 . S
C160 H133 0.980 . S
C160 H134 0.983 . S
C160 C156 1.684 . S
H161 C179 0.948 . S
H162 C120 0.948 . S
H163 C138 0.979 . S
H164 C138 0.980 . S
H165 C138 0.983 . S
H166 C137 0.982 1_545 S
H167 C137 0.979 . S
H168 C137 0.977 . S
H169 C139 0.948 . S
H170 C141 0.947 . S
H171 C142 0.948 . S
H172 C148 0.982 1_545 S
H173 C148 0.979 . S
H174 C148 0.977 . S
H175 C149 0.979 . S
H176 C149 0.980 . S
H177 C149 0.983 . S
H178 C122 0.947 . S
C179 C122 1.392 . S
C179 C123 1.419 . S
C179 H161 0.948 . S
C180 C181 1.391 . S
C180 C184 1.391 . S
C180 H222 0.948 . S
C181 C180 1.391 . S
C181 C182 1.391 . S
C182 C181 1.391 . S
C182 H238 0.947 . S
C182 C239 1.392 . S
C183 C184 1.391 . S
C183 C187 1.397 . S
C183 C239 1.419 . S
C184 C180 1.391 . S
C184 C183 1.391 . S
C184 C185 1.399 . S
C185 C184 1.399 . S
C185 C188 1.396 . S
C185 C197 1.453 . S
C185 C198 1.684 . S
H186 C210 0.948 . S
C187 C183 1.397 . S
C187 C188 1.394 . S
C187 C206 1.723 . S
C188 C185 1.396 . S
C188 C187 1.394 . S
C188 C218 1.723 . S
H189 C212 0.947 . S
H190 C213 0.948 . S
H191 C219 0.982 . S
H192 C220 0.979 . S
H193 C220 0.980 . S
H194 C220 0.983 . S
H195 C219 0.979 . S
H196 C219 0.977 . S
C197 C185 1.453 . S
C197 H226 0.982 . S
C197 H227 0.979 . S
C197 H228 0.977 . S
C198 C185 1.684 . S
C198 H223 0.979 . S
C198 H224 0.980 . S
C198 H225 0.983 . S
C199 C200 1.391 . S
C199 C204 1.391 . S
C199 H229 0.948 . S
C200 C199 1.391 . S
C200 C201 1.391 . S
C201 C200 1.391 . S
C201 C202 1.392 . S
C201 H230 0.947 1_554 S
C202 C201 1.392 . S
C202 C203 1.419 . S
C202 H231 0.948 . S
C203 C202 1.419 . S
C203 C204 1.391 . S
C203 C207 1.397 . S
C204 C199 1.391 . S
C204 C203 1.391 . S
C204 C205 1.399 . S
C205 C204 1.399 . S
C205 C206 1.396 . S
C205 C208 1.453 . S
C205 C209 1.684 . S
C206 C187 1.723 . S
C206 C205 1.396 . S
C206 C207 1.394 . S
C207 C203 1.397 . S
C207 C206 1.394 . S
C207 C217 1.723 . S
C208 C205 1.453 . S
C208 H232 0.982 . S
C208 H233 0.979 . S
C208 H234 0.977 . S
C209 C205 1.684 . S
C209 H235 0.979 . S
C209 H236 0.980 . S
C209 H237 0.983 . S
C210 H186 0.948 . S
C210 C211 1.391 . S
C210 C215 1.391 . S
C211 C210 1.391 . S
C211 C212 1.391 . S
C212 H189 0.947 . S
C212 C211 1.391 . S
C212 C213 1.392 . S
C213 H190 0.948 . S
C213 C212 1.392 . S
C213 C214 1.419 . S
C214 C213 1.419 . S
C214 C215 1.391 . S
C214 C218 1.397 . S
C215 C210 1.391 . S
C215 C214 1.391 . S
C215 C216 1.399 . S
C216 C215 1.399 . S
C216 C217 1.396 . S
C216 C219 1.453 . S
C216 C220 1.684 . S
C217 C207 1.723 . S
C217 C216 1.396 . S
C217 C218 1.394 . S
C218 C188 1.723 . S
C218 C214 1.397 . S
C218 C217 1.394 . S
C219 H191 0.982 . S
C219 H195 0.979 . S
C219 H196 0.977 . S
C219 C216 1.453 . S
C220 H192 0.979 . S
C220 H193 0.980 . S
C220 H194 0.983 . S
C220 C216 1.684 . S
H221 C239 0.948 . S
H222 C180 0.948 . S
H223 C198 0.979 . S
H224 C198 0.980 . S
H225 C198 0.983 . S
H226 C197 0.982 . S
H227 C197 0.979 . S
H228 C197 0.977 . S
H229 C199 0.948 . S
H230 C201 0.947 1_556 S
H231 C202 0.948 . S
H232 C208 0.982 . S
H233 C208 0.979 . S
H234 C208 0.977 . S
H235 C209 0.979 . S
H236 C209 0.980 . S
H237 C209 0.983 . S
H238 C182 0.947 . S
C239 C182 1.392 . S
C239 C183 1.419 . S
C239 H221 0.948 . S
C240 C241 1.391 . S
C240 C244 1.391 . S
C240 H282 0.948 . S
C241 C240 1.391 . S
C241 C242 1.391 . S
C242 C241 1.391 . S
C242 H298 0.947 . S
C242 C299 1.392 . S
C243 C244 1.391 . S
C243 C247 1.397 . S
C243 C299 1.419 . S
C244 C240 1.391 . S
C244 C243 1.391 . S
C244 C245 1.399 . S
C245 C244 1.399 . S
C245 C248 1.396 . S
C245 C257 1.453 1_554 S
C245 C258 1.684 1_554 S
H246 C270 0.948 . S
C247 C243 1.397 . S
C247 C248 1.394 . S
C247 C266 1.723 . S
C248 C245 1.396 . S
C248 C247 1.394 . S
C248 C278 1.723 1_554 S
H249 C272 0.947 . S
H250 C273 0.948 . S
H251 C279 0.982 . S
H252 C280 0.979 . S
H253 C280 0.980 1_554 S
H254 C280 0.983 . S
H255 C279 0.979 . S
H256 C279 0.977 1_554 S
C257 C245 1.453 1_556 S
C257 H286 0.982 . S
C257 H287 0.979 . S
C257 H288 0.977 . S
C258 C245 1.684 1_556 S
C258 H283 0.979 . S
C258 H284 0.980 . S
C258 H285 0.983 . S
C259 C260 1.391 . S
C259 C264 1.391 . S
C259 H289 0.948 . S
C260 C259 1.391 . S
C260 C261 1.391 . S
C261 C260 1.391 . S
C261 C262 1.392 . S
C261 H290 0.947 . S
C262 C261 1.392 . S
C262 C263 1.419 . S
C262 H291 0.948 . S
C263 C262 1.419 . S
C263 C264 1.391 . S
C263 C267 1.397 . S
C264 C259 1.391 . S
C264 C263 1.391 . S
C264 C265 1.399 . S
C265 C264 1.399 . S
C265 C266 1.396 . S
C265 C268 1.453 . S
C265 C269 1.684 . S
C266 C247 1.723 . S
C266 C265 1.396 . S
C266 C267 1.394 . S
C267 C263 1.397 . S
C267 C266 1.394 . S
C267 C277 1.723 . S
C268 C265 1.453 . S
C268 H292 0.982 . S
C268 H293 0.979 . S
C268 H294 0.977 . S
C269 C265 1.684 . S
C269 H295 0.979 . S
C269 H296 0.980 . S
C269 H297 0.983 . S
C270 H246 0.948 . S
C270 C271 1.391 . S
C270 C275 1.391 . S
C271 C270 1.391 . S
C271 C272 1.391 . S
C272 H249 0.947 . S
C272 C271 1.391 . S
C272 C273 1.392 . S
C273 H250 0.948 . S
C273 C272 1.392 . S
C273 C274 1.419 . S
C274 C273 1.419 . S
C274 C275 1.391 . S
C274 C278 1.397 . S
C275 C270 1.391 . S
C275 C274 1.391 . S
C275 C276 1.399 . S
C276 C275 1.399 . S
C276 C277 1.396 1_556 S
C276 C279 1.453 . S
C276 C280 1.684 . S
C277 C267 1.723 . S
C277 C276 1.396 1_554 S
C277 C278 1.394 1_554 S
C278 C248 1.723 1_556 S
C278 C274 1.397 . S
C278 C277 1.394 1_556 S
C279 H251 0.982 . S
C279 H255 0.979 . S
C279 H256 0.977 1_556 S
C279 C276 1.453 . S
C280 H252 0.979 . S
C280 H253 0.980 1_556 S
C280 H254 0.983 . S
C280 C276 1.684 . S
H281 C299 0.948 . S
H282 C240 0.948 . S
H283 C258 0.979 . S
H284 C258 0.980 . S
H285 C258 0.983 . S
H286 C257 0.982 . S
H287 C257 0.979 . S
H288 C257 0.977 . S
H289 C259 0.948 . S
H290 C261 0.947 . S
H291 C262 0.948 . S
H292 C268 0.982 . S
H293 C268 0.979 . S
H294 C268 0.977 . S
H295 C269 0.979 . S
H296 C269 0.980 . S
H297 C269 0.983 . S
H298 C242 0.947 . S
C299 C242 1.392 . S
C299 C243 1.419 . S
C299 H281 0.948 . S
C300 C301 1.391 . S
C300 C304 1.391 . S
C300 H342 0.948 . S
C301 C300 1.391 . S
C301 C302 1.391 . S
C302 C301 1.391 . S
C302 H358 0.947 . S
C302 C359 1.392 . S
C303 C304 1.391 . S
C303 C307 1.397 . S
C303 C359 1.419 . S
C304 C300 1.391 . S
C304 C303 1.391 . S
C304 C305 1.399 . S
C305 C304 1.399 . S
C305 C308 1.396 . S
C305 C317 1.453 . S
C305 C318 1.684 . S
H306 C330 0.948 . S
C307 C303 1.397 . S
C307 C308 1.394 . S
C307 C326 1.723 1_554 S
C308 C305 1.396 . S
C308 C307 1.394 . S
C308 C338 1.723 . S
H309 C332 0.947 . S
H310 C333 0.948 . S
H311 C339 0.982 . S
H312 C340 0.979 . S
H313 C340 0.980 . S
H314 C340 0.983 . S
H315 C339 0.979 . S
H316 C339 0.977 . S
C317 C305 1.453 . S
C317 H346 0.982 . S
C317 H347 0.979 . S
C317 H348 0.977 . S
C318 C305 1.684 . S
C318 H343 0.979 . S
C318 H344 0.980 . S
C318 H345 0.983 . S
C319 C320 1.391 . S
C319 C324 1.391 . S
C319 H349 0.948 . S
C320 C319 1.391 . S
C320 C321 1.391 . S
C321 C320 1.391 . S
C321 C322 1.392 . S
C321 H350 0.947 . S
C322 C321 1.392 . S
C322 C323 1.419 . S
C322 H351 0.948 . S
C323 C322 1.419 . S
C323 C324 1.391 . S
C323 C327 1.397 . S
C324 C319 1.391 . S
C324 C323 1.391 . S
C324 C325 1.399 . S
C325 C324 1.399 . S
C325 C326 1.396 . S
C325 C328 1.453 . S
C325 C329 1.684 . S
C326 C307 1.723 1_556 S
C326 C325 1.396 . S
C326 C327 1.394 . S
C327 C323 1.397 . S
C327 C326 1.394 . S
C327 C337 1.723 . S
C328 C325 1.453 . S
C328 H352 0.982 . S
C328 H353 0.979 . S
C328 H354 0.980 . S
C329 C325 1.684 . S
C329 H355 0.979 . S
C329 H356 0.980 . S
C329 H357 0.983 . S
C330 H306 0.948 . S
C330 C331 1.391 . S
C330 C335 1.391 . S
C331 C330 1.391 . S
C331 C332 1.391 . S
C332 H309 0.947 . S
C332 C331 1.391 . S
C332 C333 1.392 . S
C333 H310 0.948 . S
C333 C332 1.392 . S
C333 C334 1.419 . S
C334 C333 1.419 . S
C334 C335 1.391 . S
C334 C338 1.397 . S
C335 C330 1.391 . S
C335 C334 1.391 . S
C335 C336 1.399 1_554 S
C336 C335 1.399 1_556 S
C336 C337 1.396 . S
C336 C339 1.453 . S
C336 C340 1.684 . S
C337 C327 1.723 . S
C337 C336 1.396 . S
C337 C338 1.394 1_556 S
C338 C308 1.723 . S
C338 C334 1.397 . S
C338 C337 1.394 1_554 S
C339 H311 0.982 . S
C339 H315 0.979 . S
C339 H316 0.977 . S
C339 C336 1.453 . S
C340 H312 0.979 . S
C340 H313 0.980 . S
C340 H314 0.983 . S
C340 C336 1.684 . S
H341 C359 0.948 . S
H342 C300 0.948 . S
H343 C318 0.979 . S
H344 C318 0.980 . S
H345 C318 0.983 . S
H346 C317 0.982 . S
H347 C317 0.979 . S
H348 C317 0.977 . S
H349 C319 0.948 . S
H350 C321 0.947 . S
H351 C322 0.948 . S
H352 C328 0.982 . S
H353 C328 0.979 . S
H354 C328 0.980 . S
H355 C329 0.979 . S
H356 C329 0.980 . S
H357 C329 0.983 . S
H358 C302 0.947 . S
C359 C302 1.392 . S
C359 C303 1.419 . S
C359 H341 0.948 . S
C360 C361 1.391 . S
C360 C364 1.391 . S
C360 H402 0.948 . S
C361 C360 1.391 . S
C361 C362 1.391 . S
C362 C361 1.391 . S
C362 H418 0.947 . S
C362 C419 1.392 . S
C363 C364 1.391 . S
C363 C367 1.397 . S
C363 C419 1.419 . S
C364 C360 1.391 . S
C364 C363 1.391 . S
C364 C365 1.399 . S
C365 C364 1.399 . S
C365 C368 1.396 . S
C365 C377 1.453 . S
C365 C378 1.684 . S
H366 C390 0.948 . S
C367 C363 1.397 . S
C367 C368 1.394 . S
C367 C386 1.723 1_556 S
C368 C365 1.396 . S
C368 C367 1.394 . S
C368 C398 1.723 1_556 S
H369 C392 0.947 . S
H370 C393 0.948 . S
H371 C399 0.982 . S
H372 C400 0.979 . S
H373 C400 0.980 . S
H374 C400 0.983 . S
H375 C399 0.979 . S
H376 C399 0.977 . S
C377 C365 1.453 . S
C377 H406 0.982 . S
C377 H407 0.979 . S
C377 H408 0.977 . S
C378 C365 1.684 . S
C378 H403 0.979 . S
C378 H404 0.980 . S
C378 H405 0.983 . S
C379 C380 1.391 . S
C379 C384 1.391 . S
C379 H409 0.948 . S
C380 C379 1.391 . S
C380 C381 1.391 . S
C381 C380 1.391 . S
C381 C382 1.392 . S
C381 H410 0.947 . S
C382 C381 1.392 . S
C382 C383 1.419 . S
C382 H411 0.948 . S
C383 C382 1.419 . S
C383 C384 1.391 . S
C383 C387 1.397 . S
C384 C379 1.391 . S
C384 C383 1.391 . S
C384 C385 1.399 . S
C385 C384 1.399 . S
C385 C386 1.396 . S
C385 C388 1.453 . S
C385 C389 1.684 . S
C386 C367 1.723 1_554 S
C386 C385 1.396 . S
C386 C387 1.394 . S
C387 C383 1.397 . S
C387 C386 1.394 . S
C387 C397 1.723 . S
C388 C385 1.453 . S
C388 H412 0.982 . S
C388 H413 0.979 . S
C388 H414 0.977 1_554 S
C389 C385 1.684 . S
C389 H415 0.979 . S
C389 H416 0.980 1_554 S
C389 H417 0.983 . S
C390 H366 0.948 . S
C390 C391 1.391 . S
C390 C395 1.391 . S
C391 C390 1.391 . S
C391 C392 1.391 1_554 S
C392 H369 0.947 . S
C392 C391 1.391 1_556 S
C392 C393 1.392 . S
C393 H370 0.948 . S
C393 C392 1.392 . S
C393 C394 1.419 1_556 S
C394 C393 1.419 1_554 S
C394 C395 1.391 . S
C394 C398 1.397 . S
C395 C390 1.391 . S
C395 C394 1.391 . S
C395 C396 1.399 . S
C396 C395 1.399 . S
C396 C397 1.396 . S
C396 C399 1.453 . S
C396 C400 1.684 . S
C397 C387 1.723 . S
C397 C396 1.396 . S
C397 C398 1.394 . S
C398 C368 1.723 1_554 S
C398 C394 1.397 . S
C398 C397 1.394 . S
C399 H371 0.982 . S
C399 H375 0.979 . S
C399 H376 0.977 . S
C399 C396 1.453 . S
C400 H372 0.979 . S
C400 H373 0.980 . S
C400 H374 0.983 . S
C400 C396 1.684 . S
H401 C419 0.948 . S
H402 C360 0.948 . S
H403 C378 0.979 . S
H404 C378 0.980 . S
H405 C378 0.983 . S
H406 C377 0.982 . S
H407 C377 0.979 . S
H408 C377 0.977 . S
H409 C379 0.948 . S
H410 C381 0.947 . S
H411 C382 0.948 . S
H412 C388 0.982 . S
H413 C388 0.979 . S
H414 C388 0.977 1_556 S
H415 C389 0.979 . S
H416 C389 0.980 1_556 S
H417 C389 0.983 . S
H418 C362 0.947 . S
C419 C362 1.392 . S
C419 C363 1.419 . S
C419 H401 0.948 . S
C420 C421 1.391 . S
C420 C424 1.391 . S
C420 H462 0.948 . S
C421 C420 1.391 . S
C421 C422 1.391 . S
C422 C421 1.391 . S
C422 H478 0.947 . S
C422 C479 1.392 . S
C423 C424 1.391 . S
C423 C427 1.397 . S
C423 C479 1.419 . S
C424 C420 1.391 . S
C424 C423 1.391 . S
C424 C425 1.399 . S
C425 C424 1.399 . S
C425 C428 1.396 . S
C425 C437 1.453 . S
C425 C438 1.684 . S
H426 C450 0.948 . S
C427 C423 1.397 . S
C427 C428 1.394 . S
C427 C446 1.723 1_556 S
C428 C425 1.396 . S
C428 C427 1.394 . S
C428 C458 1.723 1_556 S
H429 C452 0.947 . S
H430 C453 0.948 1_556 S
H431 C459 0.982 . S
H432 C460 0.979 . S
H433 C460 0.980 . S
H434 C460 0.983 . S
H435 C459 0.979 . S
H436 C459 0.977 . S
C437 C425 1.453 . S
C437 H466 0.982 . S
C437 H467 0.979 . S
C437 H468 0.977 . S
C438 C425 1.684 . S
C438 H463 0.979 . S
C438 H464 0.980 . S
C438 H465 0.983 . S
C439 C440 1.391 . S
C439 C444 1.391 . S
C439 H469 0.948 . S
C440 C439 1.391 . S
C440 C441 1.391 . S
C441 C440 1.391 . S
C441 C442 1.392 . S
C441 H470 0.947 . S
C442 C441 1.392 . S
C442 C443 1.419 . S
C442 H471 0.948 . S
C443 C442 1.419 . S
C443 C444 1.391 . S
C443 C447 1.397 . S
C444 C439 1.391 . S
C444 C443 1.391 . S
C444 C445 1.399 . S
C445 C444 1.399 . S
C445 C446 1.396 . S
C445 C448 1.453 . S
C445 C449 1.684 . S
C446 C427 1.723 1_554 S
C446 C445 1.396 . S
C446 C447 1.394 . S
C447 C443 1.397 . S
C447 C446 1.394 . S
C447 C457 1.723 . S
C448 C445 1.453 . S
C448 H472 0.982 . S
C448 H473 0.979 . S
C448 H474 0.977 . S
C449 C445 1.684 . S
C449 H475 0.979 . S
C449 H476 0.980 1_554 S
C449 H477 0.983 . S
C450 H426 0.948 . S
C450 C451 1.391 . S
C450 C455 1.391 . S
C451 C450 1.391 . S
C451 C452 1.391 . S
C452 H429 0.947 . S
C452 C451 1.391 . S
C452 C453 1.392 . S
C453 H430 0.948 1_554 S
C453 C452 1.392 . S
C453 C454 1.419 . S
C454 C453 1.419 . S
C454 C455 1.391 . S
C454 C458 1.397 . S
C455 C450 1.391 . S
C455 C454 1.391 . S
C455 C456 1.399 . S
C456 C455 1.399 . S
C456 C457 1.396 . S
C456 C459 1.453 . S
C456 C460 1.684 . S
C457 C447 1.723 . S
C457 C456 1.396 . S
C457 C458 1.394 . S
C458 C428 1.723 1_554 S
C458 C454 1.397 . S
C458 C457 1.394 . S
C459 H431 0.982 . S
C459 H435 0.979 . S
C459 H436 0.977 . S
C459 C456 1.453 . S
C460 H432 0.979 . S
C460 H433 0.980 . S
C460 H434 0.983 . S
C460 C456 1.684 . S
H461 C479 0.948 . S
H462 C420 0.948 . S
H463 C438 0.979 . S
H464 C438 0.980 . S
H465 C438 0.983 . S
H466 C437 0.982 . S
H467 C437 0.979 . S
H468 C437 0.977 . S
H469 C439 0.948 . S
H470 C441 0.947 . S
H471 C442 0.948 . S
H472 C448 0.982 . S
H473 C448 0.979 . S
H474 C448 0.977 . S
H475 C449 0.979 . S
H476 C449 0.980 1_556 S
H477 C449 0.983 . S
H478 C422 0.947 . S
C479 C422 1.392 . S
C479 C423 1.419 . S
C479 H461 0.948 . S
Eu480 C489 2.828 . S
Eu480 O491 2.392 . S
Eu480 O493 2.418 1_545 S
Eu480 O498 2.373 1_655 S
Eu480 O501 2.488 . S
Eu480 O502 2.471 . S
Eu480 O503 2.349 1_655 S
Eu481 O490 2.373 1_455 S
Eu481 O494 2.488 . S
Eu481 O495 2.471 . S
Eu481 O496 2.349 . S
Eu481 O499 2.392 1_565 S
Eu481 O500 2.418 1_565 S
Eu481 C510 2.828 . S
C482 O500 1.244 . S
C482 O503 1.265 . S
C483 C484 1.379 1_655 S
C483 C487 1.373 . S
C483 C489 1.505 . S
C484 C483 1.379 1_455 S
C484 C486 1.369 . S
C484 H512 0.930 . S
C485 C487 1.383 . S
C485 C488 1.382 . S
C485 H513 0.930 . S
C486 C484 1.369 . S
C486 C488 1.392 1_455 S
C486 H514 0.930 . S
C487 C483 1.373 . S
C487 C485 1.383 . S
C487 H515 0.931 . S
C488 C485 1.382 . S
C488 C486 1.392 1_655 S
C489 Eu480 2.828 . S
C489 C483 1.505 . S
C489 O501 1.249 . S
C489 O502 1.244 . S
O490 Eu481 2.373 1_655 S
O490 C492 1.266 . S
O491 Eu480 2.392 . S
O491 C492 1.229 1_545 S
C492 O490 1.266 . S
C492 O491 1.229 1_565 S
O493 Eu480 2.418 1_565 S
O493 C497 1.244 . S
O494 Eu481 2.488 . S
O494 C510 1.249 . S
O495 Eu481 2.471 . S
O495 C510 1.244 . S
O496 Eu481 2.349 . S
O496 C497 1.265 1_455 S
C497 O493 1.244 . S
C497 O496 1.265 1_655 S
O498 Eu480 2.373 1_455 S
O498 C511 1.258 . S
O499 Eu481 2.392 1_545 S
O499 C511 1.242 . S
O500 Eu481 2.418 1_545 S
O500 C482 1.244 . S
O501 Eu480 2.488 . S
O501 C489 1.249 . S
O502 Eu480 2.471 . S
O502 C489 1.244 . S
O503 Eu480 2.349 1_455 S
O503 C482 1.265 . S
C504 C505 1.379 . S
C504 C508 1.373 1_556 S
C504 C510 1.505 . S
C505 C504 1.379 . S
C505 C507 1.369 . S
C505 H516 0.930 1_455 S
C506 C508 1.383 . S
C506 C509 1.382 . S
C506 H517 0.930 . S
C507 C505 1.369 . S
C507 C509 1.392 1_556 S
C507 H518 0.930 1_455 S
C508 C504 1.373 1_554 S
C508 C506 1.383 . S
C508 H519 0.931 . S
C509 C506 1.382 . S
C509 C507 1.392 1_554 S
C510 Eu481 2.828 . S
C510 O494 1.249 . S
C510 O495 1.244 . S
C510 C504 1.505 . S
C511 O498 1.258 . S
C511 O499 1.242 . S
H512 C484 0.930 . S
H513 C485 0.930 . S
H514 C486 0.930 . S
H515 C487 0.931 . S
H516 C505 0.930 1_655 S
H517 C506 0.930 . S
H518 C507 0.930 1_655 S
H519 C508 0.931 . S
Eu520 C529 2.828 . S
Eu520 O531 2.392 . S
Eu520 O533 2.418 . S
Eu520 O538 2.373 . S
Eu520 O541 2.488 . S
Eu520 O542 2.471 . S
Eu520 O543 2.349 1_545 S
Eu521 O530 2.373 1_565 S
Eu521 O534 2.488 . S
Eu521 O535 2.471 1_565 S
Eu521 O536 2.349 1_565 S
Eu521 O539 2.392 . S
Eu521 O540 2.418 . S
Eu521 C550 2.828 . S
C522 O540 1.244 . S
C522 O543 1.265 . S
C523 C524 1.379 . S
C523 C527 1.373 . S
C523 C529 1.505 . S
C524 C523 1.379 . S
C524 C526 1.369 . S
C524 H552 0.930 1_545 S
C525 C527 1.383 . S
C525 C528 1.382 . S
C525 H553 0.930 . S
C526 C524 1.369 . S
C526 C528 1.392 . S
C526 H554 0.930 1_545 S
C527 C523 1.373 . S
C527 C525 1.383 . S
C527 H555 0.931 . S
C528 C525 1.382 . S
C528 C526 1.392 . S
C529 Eu520 2.828 . S
C529 C523 1.505 . S
C529 O541 1.249 . S
C529 O542 1.244 . S
O530 Eu521 2.373 1_545 S
O530 C532 1.258 . S
O531 Eu520 2.392 . S
O531 C532 1.242 . S
C532 O530 1.258 . S
C532 O531 1.242 . S
O533 Eu520 2.418 . S
O533 C537 1.244 . S
O534 Eu521 2.488 . S
O534 C550 1.249 . S
O535 Eu521 2.471 1_545 S
O535 C550 1.244 1_545 S
O536 Eu521 2.349 1_545 S
O536 C537 1.265 . S
C537 O533 1.244 . S
C537 O536 1.265 . S
O538 Eu520 2.373 . S
O538 C551 1.258 1_545 S
O539 Eu521 2.392 . S
O539 C551 1.242 . S
O540 Eu521 2.418 . S
O540 C522 1.244 . S
O541 Eu520 2.488 . S
O541 C529 1.249 . S
O542 Eu520 2.471 . S
O542 C529 1.244 . S
O543 Eu520 2.349 1_565 S
O543 C522 1.265 . S
C544 C545 1.379 1_565 S
C544 C548 1.373 . S
C544 C550 1.505 . S
C545 C544 1.379 1_545 S
C545 C547 1.369 . S
C545 H556 0.930 . S
C546 C548 1.383 . S
C546 C549 1.382 . S
C546 H557 0.930 . S
C547 C545 1.369 . S
C547 C549 1.392 1_545 S
C547 H558 0.930 . S
C548 C544 1.373 . S
C548 C546 1.383 . S
C548 H559 0.931 . S
C549 C546 1.382 . S
C549 C547 1.392 1_565 S
C550 Eu521 2.828 . S
C550 O534 1.249 . S
C550 O535 1.244 1_565 S
C550 C544 1.505 . S
C551 O538 1.258 1_565 S
C551 O539 1.242 . S
H552 C524 0.930 1_565 S
H553 C525 0.930 . S
H554 C526 0.930 1_565 S
H555 C527 0.931 . S
H556 C545 0.930 . S
H557 C546 0.930 . S
H558 C547 0.930 . S
H559 C548 0.931 . S
Eu560 C569 2.828 . S
Eu560 O571 2.392 . S
Eu560 O573 2.418 . S
Eu560 O578 2.373 . S
Eu560 O581 2.488 . S
Eu560 O582 2.471 . S
Eu560 O583 2.349 . S
Eu561 O570 2.373 . S
Eu561 O574 2.488 . S
Eu561 O575 2.471 . S
Eu561 O576 2.349 . S
Eu561 O579 2.392 . S
Eu561 O580 2.418 . S
Eu561 C590 2.828 . S
C562 O580 1.244 . S
C562 O583 1.265 . S
C563 C564 1.379 . S
C563 C567 1.373 . S
C563 C569 1.505 . S
C564 C563 1.379 . S
C564 C566 1.369 . S
C564 H592 0.930 . S
C565 C567 1.383 . S
C565 C568 1.382 . S
C565 H593 0.930 . S
C566 C564 1.369 . S
C566 C568 1.392 . S
C566 H594 0.930 . S
C567 C563 1.373 . S
C567 C565 1.383 . S
C567 H595 0.931 . S
C568 C565 1.382 . S
C568 C566 1.392 . S
C569 Eu560 2.828 . S
C569 C563 1.505 . S
C569 O581 1.249 . S
C569 O582 1.244 . S
O570 Eu561 2.373 . S
O570 C572 1.258 . S
O571 Eu560 2.392 . S
O571 C572 1.242 . S
C572 O570 1.258 . S
C572 O571 1.242 . S
O573 Eu560 2.418 . S
O573 C577 1.244 . S
O574 Eu561 2.488 . S
O574 C590 1.249 . S
O575 Eu561 2.471 . S
O575 C590 1.244 . S
O576 Eu561 2.349 . S
O576 C577 1.265 . S
C577 O573 1.244 . S
C577 O576 1.265 . S
O578 Eu560 2.373 . S
O578 C591 1.258 . S
O579 Eu561 2.392 . S
O579 C591 1.242 . S
O580 Eu561 2.418 . S
O580 C562 1.244 . S
O581 Eu560 2.488 . S
O581 C569 1.249 . S
O582 Eu560 2.471 . S
O582 C569 1.244 . S
O583 Eu560 2.349 . S
O583 C562 1.265 . S
C584 C585 1.379 . S
C584 C588 1.373 . S
C584 C590 1.505 . S
C585 C584 1.379 . S
C585 C587 1.369 . S
C585 H596 0.930 . S
C586 C588 1.383 . S
C586 C589 1.382 . S
C586 H597 0.930 . S
C587 C585 1.369 . S
C587 C589 1.392 . S
C587 H598 0.930 . S
C588 C584 1.373 . S
C588 C586 1.383 . S
C588 H599 0.931 . S
C589 C586 1.382 . S
C589 C587 1.392 . S
C590 Eu561 2.828 . S
C590 O574 1.249 . S
C590 O575 1.244 . S
C590 C584 1.505 . S
C591 O578 1.258 . S
C591 O579 1.242 . S
H592 C564 0.930 . S
H593 C565 0.930 . S
H594 C566 0.930 . S
H595 C567 0.931 . S
H596 C585 0.930 . S
H597 C586 0.930 . S
H598 C587 0.930 . S
H599 C588 0.931 . S
Eu600 C609 2.828 . S
Eu600 O611 2.392 . S
Eu600 O613 2.418 1_455 S
Eu600 O618 2.373 . S
Eu600 O621 2.488 . S
Eu600 O622 2.471 . S
Eu600 O623 2.349 . S
Eu601 O610 2.373 . S
Eu601 O614 2.488 . S
Eu601 O615 2.471 . S
Eu601 O616 2.349 . S
Eu601 O619 2.392 1_655 S
Eu601 O620 2.418 1_655 S
Eu601 C630 2.828 . S
C602 O620 1.244 . S
C602 O623 1.265 . S
C603 C604 1.379 . S
C603 C607 1.373 . S
C603 C609 1.505 . S
C604 C603 1.379 . S
C604 C606 1.369 . S
C604 H632 0.930 . S
C605 C607 1.383 . S
C605 C608 1.382 . S
C605 H633 0.930 . S
C606 C604 1.369 . S
C606 C608 1.392 . S
C606 H634 0.930 . S
C607 C603 1.373 . S
C607 C605 1.383 . S
C607 H635 0.931 . S
C608 C605 1.382 . S
C608 C606 1.392 . S
C609 Eu600 2.828 . S
C609 C603 1.505 . S
C609 O621 1.249 . S
C609 O622 1.244 . S
O610 Eu601 2.373 . S
O610 C612 1.258 . S
O611 Eu600 2.392 . S
O611 C612 1.242 1_455 S
C612 O610 1.258 . S
C612 O611 1.242 1_655 S
O613 Eu600 2.418 1_655 S
O613 C617 1.244 . S
O614 Eu601 2.488 . S
O614 C630 1.249 . S
O615 Eu601 2.471 . S
O615 C630 1.244 . S
O616 Eu601 2.349 . S
O616 C617 1.265 . S
C617 O613 1.244 . S
C617 O616 1.265 . S
O618 Eu600 2.373 . S
O618 C631 1.258 . S
O619 Eu601 2.392 1_455 S
O619 C631 1.242 . S
O620 Eu601 2.418 1_455 S
O620 C602 1.244 . S
O621 Eu600 2.488 . S
O621 C609 1.249 . S
O622 Eu600 2.471 . S
O622 C609 1.244 . S
O623 Eu600 2.349 . S
O623 C602 1.265 . S
C624 C625 1.379 . S
C624 C628 1.373 . S
C624 C630 1.505 . S
C625 C624 1.379 . S
C625 C627 1.369 . S
C625 H636 0.930 . S
C626 C628 1.383 1_554 S
C626 C629 1.382 . S
C626 H637 0.930 . S
C627 C625 1.369 . S
C627 C629 1.392 1_556 S
C627 H638 0.930 . S
C628 C624 1.373 . S
C628 C626 1.383 1_556 S
C628 H639 0.931 . S
C629 C626 1.382 . S
C629 C627 1.392 1_554 S
C630 Eu601 2.828 . S
C630 O614 1.249 . S
C630 O615 1.244 . S
C630 C624 1.505 . S
C631 O618 1.258 . S
C631 O619 1.242 . S
H632 C604 0.930 . S
H633 C605 0.930 . S
H634 C606 0.930 . S
H635 C607 0.931 . S
H636 C625 0.930 . S
H637 C626 0.930 . S
H638 C627 0.930 . S
H639 C628 0.931 . S
C640 C641 1.363 . S
C640 C646 1.379 . S
C640 N648 1.356 . S
C641 C640 1.363 . S
C641 C647 1.363 . S
C642 C643 1.363 . S
C642 C647 1.379 . S
C642 N649 1.356 . S
C643 C642 1.363 . S
C643 C646 1.363 . S
N644 C646 1.356 1_565 S
N644 H656 0.984 . S
N644 H657 0.985 . S
N645 C647 1.356 . S
N645 H650 0.984 . S
N645 H651 0.985 . S
C646 C640 1.379 . S
C646 C643 1.363 . S
C646 N644 1.356 1_545 S
C647 C641 1.363 . S
C647 C642 1.379 . S
C647 N645 1.356 . S
N648 C640 1.356 . S
N648 H654 0.984 1_545 S
N648 H655 0.984 . S
N649 C642 1.356 . S
N649 H652 0.984 . S
N649 H653 0.985 . S
H650 N645 0.984 . S
H651 N645 0.985 . S
H652 N649 0.984 . S
H653 N649 0.985 . S
H654 N648 0.984 1_565 S
H655 N648 0.984 . S
H656 N644 0.984 . S
H657 N644 0.985 . S
C658 C659 1.363 . S
C658 C664 1.379 . S
C658 N666 1.356 . S
C659 C658 1.363 . S
C659 C665 1.363 . S
C660 C661 1.363 . S
C660 C665 1.379 . S
C660 N667 1.356 . S
C661 C660 1.363 . S
C661 C664 1.363 . S
N662 C664 1.356 . S
N662 H674 0.984 . S
N662 H675 0.985 . S
N663 C665 1.356 . S
N663 H668 0.984 . S
N663 H669 0.985 . S
C664 C658 1.379 . S
C664 C661 1.363 . S
C664 N662 1.356 . S
C665 C659 1.363 . S
C665 C660 1.379 . S
C665 N663 1.356 . S
N666 C658 1.356 . S
N666 H672 0.984 . S
N666 H673 0.984 . S
N667 C660 1.356 . S
N667 H670 0.984 . S
N667 H671 0.985 . S
H668 N663 0.984 . S
H669 N663 0.985 . S
H670 N667 0.984 . S
H671 N667 0.985 . S
H672 N666 0.984 . S
H673 N666 0.984 . S
H674 N662 0.984 . S
H675 N662 0.985 . S
C676 C677 1.363 . S
C676 C682 1.379 . S
C676 N684 1.356 . S
C677 C676 1.363 . S
C677 C683 1.363 . S
C678 C679 1.363 . S
C678 C683 1.379 . S
C678 N685 1.356 . S
C679 C678 1.363 . S
C679 C682 1.363 . S
N680 C682 1.356 . S
N680 H692 0.984 . S
N680 H693 0.985 . S
N681 C683 1.356 . S
N681 H686 0.984 . S
N681 H687 0.985 . S
C682 C676 1.379 . S
C682 C679 1.363 . S
C682 N680 1.356 . S
C683 C677 1.363 . S
C683 C678 1.379 . S
C683 N681 1.356 . S
N684 C676 1.356 . S
N684 H690 0.984 . S
N684 H691 0.984 . S
N685 C678 1.356 . S
N685 H688 0.984 . S
N685 H689 0.985 . S
H686 N681 0.984 . S
H687 N681 0.985 . S
H688 N685 0.984 . S
H689 N685 0.985 . S
H690 N684 0.984 . S
H691 N684 0.984 . S
H692 N680 0.984 . S
H693 N680 0.985 . S
C694 C695 1.363 . S
C694 C700 1.379 . S
C694 N702 1.356 . S
C695 C694 1.363 . S
C695 C701 1.363 . S
C696 C697 1.363 . S
C696 C701 1.379 . S
C696 N703 1.356 . S
C697 C696 1.363 . S
C697 C700 1.363 . S
N698 C700 1.356 . S
N698 H710 0.984 1_455 S
N698 H711 0.985 . S
N699 C701 1.356 . S
N699 H704 0.984 . S
N699 H705 0.985 . S
C700 C694 1.379 . S
C700 C697 1.363 . S
C700 N698 1.356 . S
C701 C695 1.363 . S
C701 C696 1.379 . S
C701 N699 1.356 . S
N702 C694 1.356 . S
N702 H708 0.984 . S
N702 H709 0.984 . S
N703 C696 1.356 . S
N703 H706 0.984 . S
N703 H707 0.985 . S
H704 N699 0.984 . S
H705 N699 0.985 . S
H706 N703 0.984 . S
H707 N703 0.985 . S
H708 N702 0.984 . S
H709 N702 0.984 . S
H710 N698 0.984 1_655 S
H711 N698 0.985 . S
C712 C713 1.363 . S
C712 C718 1.379 1_554 S
C712 N720 1.356 . S
C713 C712 1.363 . S
C713 C719 1.363 1_565 S
C714 C715 1.363 1_544 S
C714 C719 1.379 . S
C714 N721 1.356 1_554 S
C715 C714 1.363 1_566 S
C715 C718 1.363 . S
N716 C718 1.356 . S
N716 H728 0.984 . S
N716 H729 0.985 . S
N717 C719 1.356 . S
N717 H722 0.984 . S
N717 H723 0.985 . S
C718 C712 1.379 1_556 S
C718 C715 1.363 . S
C718 N716 1.356 . S
C719 C713 1.363 1_545 S
C719 C714 1.379 . S
C719 N717 1.356 . S
N720 C712 1.356 . S
N720 H726 0.984 . S
N720 H727 0.984 . S
N721 C714 1.356 1_556 S
N721 H724 0.984 . S
N721 H725 0.985 . S
H722 N717 0.984 . S
H723 N717 0.985 . S
H724 N721 0.984 . S
H725 N721 0.985 . S
H726 N720 0.984 . S
H727 N720 0.984 . S
H728 N716 0.984 . S
H729 N716 0.985 . S
C730 C731 1.363 . S
C730 C736 1.379 1_554 S
C730 N738 1.356 . S
C731 C730 1.363 . S
C731 C737 1.363 . S
C732 C733 1.363 . S
C732 C737 1.379 1_556 S
C732 N739 1.356 . S
C733 C732 1.363 . S
C733 C736 1.363 . S
N734 C736 1.356 . S
N734 H746 0.984 . S
N734 H747 0.985 . S
N735 C737 1.356 . S
N735 H740 0.984 . S
N735 H741 0.985 1_565 S
C736 C730 1.379 1_556 S
C736 C733 1.363 . S
C736 N734 1.356 . S
C737 C731 1.363 . S
C737 C732 1.379 1_554 S
C737 N735 1.356 . S
N738 C730 1.356 . S
N738 H744 0.984 . S
N738 H745 0.984 . S
N739 C732 1.356 . S
N739 H742 0.984 . S
N739 H743 0.985 1_565 S
H740 N735 0.984 . S
H741 N735 0.985 1_545 S
H742 N739 0.984 . S
H743 N739 0.985 1_545 S
H744 N738 0.984 . S
H745 N738 0.984 . S
H746 N734 0.984 . S
H747 N734 0.985 . S
C748 C749 1.363 . S
C748 C754 1.379 1_554 S
C748 N756 1.356 . S
C749 C748 1.363 . S
C749 C755 1.363 . S
C750 C751 1.363 . S
C750 C755 1.379 1_556 S
C750 N757 1.356 . S
C751 C750 1.363 . S
C751 C754 1.363 . S
N752 C754 1.356 . S
N752 H764 0.984 . S
N752 H765 0.985 . S
N753 C755 1.356 . S
N753 H758 0.984 . S
N753 H759 0.985 . S
C754 C748 1.379 1_556 S
C754 C751 1.363 . S
C754 N752 1.356 . S
C755 C749 1.363 . S
C755 C750 1.379 1_554 S
C755 N753 1.356 . S
N756 C748 1.356 . S
N756 H762 0.984 . S
N756 H763 0.984 . S
N757 C750 1.356 . S
N757 H760 0.984 . S
N757 H761 0.985 . S
H758 N753 0.984 . S
H759 N753 0.985 . S
H760 N757 0.984 . S
H761 N757 0.985 . S
H762 N756 0.984 . S
H763 N756 0.984 . S
H764 N752 0.984 . S
H765 N752 0.985 . S
C766 C767 1.363 . S
C766 C772 1.379 1_554 S
C766 N774 1.356 . S
C767 C766 1.363 . S
C767 C773 1.363 . S
C768 C769 1.363 . S
C768 C773 1.379 1_556 S
C768 N775 1.356 1_655 S
C769 C768 1.363 . S
C769 C772 1.363 . S
N770 C772 1.356 . S
N770 H782 0.984 . S
N770 H783 0.985 . S
N771 C773 1.356 . S
N771 H776 0.984 . S
N771 H777 0.985 1_655 S
C772 C766 1.379 1_556 S
C772 C769 1.363 . S
C772 N770 1.356 . S
C773 C767 1.363 . S
C773 C768 1.379 1_554 S
C773 N771 1.356 . S
N774 C766 1.356 . S
N774 H780 0.984 . S
N774 H781 0.984 . S
N775 C768 1.356 1_455 S
N775 H778 0.984 . S
N775 H779 0.985 . S
H776 N771 0.984 . S
H777 N771 0.985 1_455 S
H778 N775 0.984 . S
H779 N775 0.985 . S
H780 N774 0.984 . S
H781 N774 0.984 . S
H782 N770 0.984 . S
H783 N770 0.985 . S
C784 C785 1.363 . S
C784 C790 1.379 . S
C784 N792 1.356 . S
C785 C784 1.363 . S
C785 C791 1.363 . S
C786 C787 1.363 1_455 S
C786 C791 1.379 . S
C786 N793 1.356 1_455 S
C787 C786 1.363 1_655 S
C787 C790 1.363 1_655 S
N788 C790 1.356 . S
N788 H800 0.984 . S
N788 H801 0.985 1_455 S
N789 C791 1.356 . S
N789 H794 0.984 . S
N789 H795 0.985 . S
C790 C784 1.379 . S
C790 C787 1.363 1_455 S
C790 N788 1.356 . S
C791 C785 1.363 . S
C791 C786 1.379 . S
C791 N789 1.356 . S
N792 C784 1.356 . S
N792 H798 0.984 . S
N792 H799 0.984 . S
N793 C786 1.356 1_655 S
N793 H796 0.984 . S
N793 H797 0.985 . S
H794 N789 0.984 . S
H795 N789 0.985 . S
H796 N793 0.984 . S
H797 N793 0.985 . S
H798 N792 0.984 . S
H799 N792 0.984 . S
H800 N788 0.984 . S
H801 N788 0.985 1_655 S
C802 C803 1.363 . S
C802 C808 1.379 1_545 S
C802 N810 1.356 . S
C803 C802 1.363 . S
C803 C809 1.363 . S
C804 C805 1.363 1_545 S
C804 C809 1.379 . S
C804 N811 1.356 . S
C805 C804 1.363 1_565 S
C805 C808 1.363 . S
N806 C808 1.356 . S
N806 H818 0.984 . S
N806 H819 0.985 . S
N807 C809 1.356 . S
N807 H812 0.984 . S
N807 H813 0.985 . S
C808 C802 1.379 1_565 S
C808 C805 1.363 . S
C808 N806 1.356 . S
C809 C803 1.363 . S
C809 C804 1.379 . S
C809 N807 1.356 . S
N810 C802 1.356 . S
N810 H816 0.984 . S
N810 H817 0.984 . S
N811 C804 1.356 . S
N811 H814 0.984 1_545 S
N811 H815 0.985 . S
H812 N807 0.984 . S
H813 N807 0.985 . S
H814 N811 0.984 1_565 S
H815 N811 0.985 . S
H816 N810 0.984 . S
H817 N810 0.984 . S
H818 N806 0.984 . S
H819 N806 0.985 . S
C820 C821 1.363 . S
C820 C826 1.379 . S
C820 N828 1.356 . S
C821 C820 1.363 . S
C821 C827 1.363 . S
C822 C823 1.363 . S
C822 C827 1.379 . S
C822 N829 1.356 . S
C823 C822 1.363 . S
C823 C826 1.363 . S
N824 C826 1.356 . S
N824 H836 0.984 . S
N824 H837 0.985 . S
N825 C827 1.356 . S
N825 H830 0.984 . S
N825 H831 0.985 . S
C826 C820 1.379 . S
C826 C823 1.363 . S
C826 N824 1.356 . S
C827 C821 1.363 . S
C827 C822 1.379 . S
C827 N825 1.356 . S
N828 C820 1.356 . S
N828 H834 0.984 . S
N828 H835 0.984 . S
N829 C822 1.356 . S
N829 H832 0.984 . S
N829 H833 0.985 . S
H830 N825 0.984 . S
H831 N825 0.985 . S
H832 N829 0.984 . S
H833 N829 0.985 . S
H834 N828 0.984 . S
H835 N828 0.984 . S
H836 N824 0.984 . S
H837 N824 0.985 . S
C838 C839 1.363 . S
C838 C844 1.379 . S
C838 N846 1.356 . S
C839 C838 1.363 . S
C839 C845 1.363 . S
C840 C841 1.363 . S
C840 C845 1.379 . S
C840 N847 1.356 . S
C841 C840 1.363 . S
C841 C844 1.363 . S
N842 C844 1.356 . S
N842 H854 0.984 . S
N842 H855 0.985 . S
N843 C845 1.356 . S
N843 H848 0.984 . S
N843 H849 0.985 . S
C844 C838 1.379 . S
C844 C841 1.363 . S
C844 N842 1.356 . S
C845 C839 1.363 . S
C845 C840 1.379 . S
C845 N843 1.356 . S
N846 C838 1.356 . S
N846 H852 0.984 . S
N846 H853 0.984 . S
N847 C840 1.356 . S
N847 H850 0.984 . S
N847 H851 0.985 . S
H848 N843 0.984 . S
H849 N843 0.985 . S
H850 N847 0.984 . S
H851 N847 0.985 . S
H852 N846 0.984 . S
H853 N846 0.984 . S
H854 N842 0.984 . S
H855 N842 0.985 . S
C856 C857 1.363 . S
C856 C862 1.379 1_655 S
C856 N864 1.356 1_554 S
C857 C856 1.363 . S
C857 C863 1.363 . S
C858 C859 1.363 . S
C858 C863 1.379 1_455 S
C858 N865 1.356 . S
C859 C858 1.363 . S
C859 C862 1.363 . S
N860 C862 1.356 1_556 S
N860 H872 0.984 . S
N860 H873 0.985 . S
N861 C863 1.356 . S
N861 H866 0.984 . S
N861 H867 0.985 . S
C862 C856 1.379 1_455 S
C862 C859 1.363 . S
C862 N860 1.356 1_554 S
C863 C857 1.363 . S
C863 C858 1.379 1_655 S
C863 N861 1.356 . S
N864 C856 1.356 1_556 S
N864 H870 0.984 . S
N864 H871 0.984 . S
N865 C858 1.356 . S
N865 H868 0.984 . S
N865 H869 0.985 . S
H866 N861 0.984 . S
H867 N861 0.985 . S
H868 N865 0.984 . S
H869 N865 0.985 . S
H870 N864 0.984 . S
H871 N864 0.984 . S
H872 N860 0.984 . S
H873 N860 0.985 . S
C874 C875 1.363 . S
C874 C880 1.379 1_564 S
C874 N882 1.356 . S
C875 C874 1.363 . S
C875 C881 1.363 . S
C876 C877 1.363 1_554 S
C876 C881 1.379 1_545 S
C876 N883 1.356 . S
C877 C876 1.363 1_556 S
C877 C880 1.363 . S
N878 C880 1.356 . S
N878 H890 0.984 . S
N878 H891 0.985 . S
N879 C881 1.356 . S
N879 H884 0.984 . S
N879 H885 0.985 . S
C880 C874 1.379 1_546 S
C880 C877 1.363 . S
C880 N878 1.356 . S
C881 C875 1.363 . S
C881 C876 1.379 1_565 S
C881 N879 1.356 . S
N882 C874 1.356 . S
N882 H888 0.979 1_554 S
N882 H889 0.984 . S
N883 C876 1.356 . S
N883 H886 0.984 1_554 S
N883 H887 0.985 . S
H884 N879 0.984 . S
H885 N879 0.985 . S
H886 N883 0.984 1_556 S
H887 N883 0.985 . S
H888 N882 0.979 1_556 S
H889 N882 0.984 . S
H890 N878 0.984 . S
H891 N878 0.985 . S
C892 C893 1.363 . S
C892 C898 1.379 1_554 S
C892 N900 1.356 . S
C893 C892 1.363 . S
C893 C899 1.363 1_554 S
C894 C895 1.363 . S
C894 C899 1.379 . S
C894 N901 1.356 . S
C895 C894 1.363 . S
C895 C898 1.363 . S
N896 C898 1.356 . S
N896 H908 0.984 . S
N896 H909 0.985 . S
N897 C899 1.356 1_554 S
N897 H902 0.984 . S
N897 H903 0.985 1_554 S
C898 C892 1.379 1_556 S
C898 C895 1.363 . S
C898 N896 1.356 . S
C899 C893 1.363 1_556 S
C899 C894 1.379 . S
C899 N897 1.356 1_556 S
N900 C892 1.356 . S
N900 H906 0.984 . S
N900 H907 0.984 . S
N901 C894 1.356 . S
N901 H904 0.984 . S
N901 H905 0.985 . S
H902 N897 0.984 . S
H903 N897 0.985 1_556 S
H904 N901 0.984 . S
H905 N901 0.985 . S
H906 N900 0.984 . S
H907 N900 0.984 . S
H908 N896 0.984 . S
H909 N896 0.985 . S
C910 C911 1.363 . S
C910 C916 1.379 . S
C910 N918 1.356 1_554 S
C911 C910 1.363 . S
C911 C917 1.363 . S
C912 C913 1.363 . S
C912 C917 1.379 . S
C912 N919 1.356 . S
C913 C912 1.363 . S
C913 C916 1.363 . S
N914 C916 1.356 . S
N914 H926 0.984 1_554 S
N914 H927 0.985 . S
N915 C917 1.356 . S
N915 H920 0.984 . S
N915 H921 0.985 . S
C916 C910 1.379 . S
C916 C913 1.363 . S
C916 N914 1.356 . S
C917 C911 1.363 . S
C917 C912 1.379 . S
C917 N915 1.356 . S
N918 C910 1.356 1_556 S
N918 H924 0.984 . S
N918 H925 0.984 . S
N919 C912 1.356 . S
N919 H922 0.984 . S
N919 H923 0.985 . S
H920 N915 0.984 . S
H921 N915 0.985 . S
H922 N919 0.984 . S
H923 N919 0.985 . S
H924 N918 0.984 . S
H925 N918 0.984 . S
H926 N914 0.984 1_556 S
H927 N914 0.985 . S
C928 C929 1.363 . S
C928 C934 1.379 . S
C928 N936 1.356 . S
C929 C928 1.363 . S
C929 C935 1.363 . S
C930 C931 1.363 . S
C930 C935 1.379 . S
C930 N937 1.356 . S
C931 C930 1.363 . S
C931 C934 1.363 . S
N932 C934 1.356 . S
N932 H944 0.984 1_455 S
N932 H945 0.985 . S
N933 C935 1.356 . S
N933 H938 0.984 . S
N933 H939 0.985 . S
C934 C928 1.379 . S
C934 C931 1.363 . S
C934 N932 1.356 . S
C935 C929 1.363 . S
C935 C930 1.379 . S
C935 N933 1.356 . S
N936 C928 1.356 . S
N936 H942 0.984 . S
N936 H943 0.984 . S
N937 C930 1.356 . S
N937 H940 0.984 . S
N937 H941 0.985 . S
H938 N933 0.984 . S
H939 N933 0.985 . S
H940 N937 0.984 . S
H941 N937 0.985 . S
H942 N936 0.984 . S
H943 N936 0.984 . S
H944 N932 0.984 1_655 S
H945 N932 0.985 . S
C946 C947 1.363 . S
C946 C952 1.379 . S
C946 N954 1.356 . S
C947 C946 1.363 . S
C947 C953 1.363 . S
C948 C949 1.363 . S
C948 C953 1.379 . S
C948 N955 1.356 1_545 S
C949 C948 1.363 . S
C949 C952 1.363 . S
N950 C952 1.356 . S
N950 H962 0.984 . S
N950 H963 0.985 . S
N951 C953 1.356 1_565 S
N951 H956 0.984 1_565 S
N951 H957 0.985 . S
C952 C946 1.379 . S
C952 C949 1.363 . S
C952 N950 1.356 . S
C953 C947 1.363 . S
C953 C948 1.379 . S
C953 N951 1.356 1_545 S
N954 C946 1.356 . S
N954 H960 0.984 . S
N954 H961 0.984 . S
N955 C948 1.356 1_565 S
N955 H958 0.984 . S
N955 H959 0.985 . S
H956 N951 0.984 1_545 S
H957 N951 0.985 . S
H958 N955 0.984 . S
H959 N955 0.985 . S
H960 N954 0.984 . S
H961 N954 0.984 . S
H962 N950 0.984 . S
H963 N950 0.985 . S
C964 C965 1.363 . S
C964 C970 1.379 . S
C964 N972 1.356 . S
C965 C964 1.363 . S
C965 C971 1.363 . S
C966 C967 1.363 . S
C966 C971 1.379 . S
C966 N973 1.356 . S
C967 C966 1.363 . S
C967 C970 1.363 . S
N968 C970 1.356 . S
N968 H980 0.984 . S
N968 H981 0.985 . S
N969 C971 1.356 . S
N969 H974 0.984 . S
N969 H975 0.985 . S
C970 C964 1.379 . S
C970 C967 1.363 . S
C970 N968 1.356 . S
C971 C965 1.363 . S
C971 C966 1.379 . S
C971 N969 1.356 . S
N972 C964 1.356 . S
N972 H978 0.984 . S
N972 H979 0.984 . S
N973 C966 1.356 . S
N973 H976 0.984 . S
N973 H977 0.985 . S
H974 N969 0.984 . S
H975 N969 0.985 . S
H976 N973 0.984 . S
H977 N973 0.985 . S
H978 N972 0.984 . S
H979 N972 0.984 . S
H980 N968 0.984 . S
H981 N968 0.985 . S
C982 C983 1.363 . S
C982 C988 1.379 . S
C982 N990 1.356 . S
C983 C982 1.363 . S
C983 C989 1.363 . S
C984 C985 1.363 . S
C984 C989 1.379 . S
C984 N991 1.356 . S
C985 C984 1.363 . S
C985 C988 1.363 . S
N986 C988 1.356 . S
N986 H998 0.984 . S
N986 H999 0.985 . S
N987 C989 1.356 . S
N987 H992 0.984 . S
N987 H993 0.985 . S
C988 C982 1.379 . S
C988 C985 1.363 . S
C988 N986 1.356 . S
C989 C983 1.363 . S
C989 C984 1.379 . S
C989 N987 1.356 . S
N990 C982 1.356 . S
N990 H996 0.984 . S
N990 H997 0.984 . S
N991 C984 1.356 . S
N991 H994 0.984 . S
N991 H995 0.985 . S
H992 N987 0.984 . S
H993 N987 0.985 . S
H994 N991 0.984 . S
H995 N991 0.985 . S
H996 N990 0.984 . S
H997 N990 0.984 . S
H998 N986 0.984 . S
H999 N986 0.985 . S
C1000 C1001 1.363 . S
C1000 C1006 1.379 . S
C1000 N1008 1.356 . S
C1001 C1000 1.363 . S
C1001 C1007 1.363 . S
C1002 C1003 1.363 . S
C1002 C1007 1.379 . S
C1002 N1009 1.363 . S
C1003 C1002 1.363 . S
C1003 C1006 1.363 . S
N1004 C1006 1.356 . S
N1004 H1016 0.984 . S
N1004 H1017 0.985 . S
N1005 C1007 1.356 . S
N1005 H1010 0.984 . S
N1005 H1011 0.995 . S
C1006 C1000 1.379 . S
C1006 C1003 1.363 . S
C1006 N1004 1.356 . S
C1007 C1001 1.363 . S
C1007 C1002 1.379 . S
C1007 N1005 1.356 . S
N1008 C1000 1.356 . S
N1008 H1014 0.984 . S
N1008 H1015 0.984 . S
N1009 C1002 1.363 . S
N1009 H1012 0.985 . S
N1009 H1013 0.978 1_655 S
H1010 N1005 0.984 . S
H1011 N1005 0.995 . S
H1012 N1009 0.985 . S
H1013 N1009 0.978 1_455 S
H1014 N1008 0.984 . S
H1015 N1008 0.984 . S
H1016 N1004 0.984 . S
H1017 N1004 0.985 . S
C1018 C1019 1.363 . S
C1018 C1024 1.379 . S
C1018 N1026 1.356 . S
C1019 C1018 1.363 . S
C1019 C1025 1.363 . S
C1020 C1021 1.363 . S
C1020 C1025 1.379 . S
C1020 N1027 1.356 1_565 S
C1021 C1020 1.363 . S
C1021 C1024 1.363 . S
N1022 C1024 1.356 . S
N1022 H1034 0.984 . S
N1022 H1035 0.985 . S
N1023 C1025 1.356 1_545 S
N1023 H1028 0.978 1_545 S
N1023 H1029 0.985 . S
C1024 C1018 1.379 . S
C1024 C1021 1.363 . S
C1024 N1022 1.356 . S
C1025 C1019 1.363 . S
C1025 C1020 1.379 . S
C1025 N1023 1.356 1_565 S
N1026 C1018 1.356 . S
N1026 H1032 0.984 . S
N1026 H1033 0.984 . S
N1027 C1020 1.356 1_545 S
N1027 H1030 0.984 . S
N1027 H1031 0.985 . S
H1028 N1023 0.978 1_565 S
H1029 N1023 0.985 . S
H1030 N1027 0.984 . S
H1031 N1027 0.985 . S
H1032 N1026 0.984 . S
H1033 N1026 0.984 . S
H1034 N1022 0.984 . S
H1035 N1022 0.985 . S
C1036 C1037 1.363 . S
C1036 C1042 1.379 . S
C1036 N1044 1.356 . S
C1037 C1036 1.363 . S
C1037 C1043 1.363 . S
C1038 C1039 1.363 . S
C1038 C1043 1.379 . S
C1038 N1045 1.356 . S
C1039 C1038 1.363 . S
C1039 C1042 1.363 . S
N1040 C1042 1.356 . S
N1040 H1052 0.984 . S
N1040 H1053 0.985 . S
N1041 C1043 1.356 . S
N1041 H1046 0.984 . S
N1041 H1047 0.985 . S
C1042 C1036 1.379 . S
C1042 C1039 1.363 . S
C1042 N1040 1.356 . S
C1043 C1037 1.363 . S
C1043 C1038 1.379 . S
C1043 N1041 1.356 . S
N1044 C1036 1.356 . S
N1044 H1050 0.984 . S
N1044 H1051 0.984 . S
N1045 C1038 1.356 . S
N1045 H1048 0.984 . S
N1045 H1049 0.985 . S
H1046 N1041 0.984 . S
H1047 N1041 0.985 . S
H1048 N1045 0.984 . S
H1049 N1045 0.985 . S
H1050 N1044 0.984 . S
H1051 N1044 0.984 . S
H1052 N1040 0.984 . S
H1053 N1040 0.985 . S
C1054 C1055 1.363 . S
C1054 C1060 1.379 . S
C1054 N1062 1.356 . S
C1055 C1054 1.363 . S
C1055 C1061 1.363 . S
C1056 C1057 1.363 . S
C1056 C1061 1.379 . S
C1056 N1063 1.356 . S
C1057 C1056 1.363 . S
C1057 C1060 1.363 . S
N1058 C1060 1.356 . S
N1058 H1070 0.984 . S
N1058 H1071 0.985 . S
N1059 C1061 1.356 . S
N1059 H1064 0.984 . S
N1059 H1065 0.985 . S
C1060 C1054 1.379 . S
C1060 C1057 1.363 . S
C1060 N1058 1.356 . S
C1061 C1055 1.363 . S
C1061 C1056 1.379 . S
C1061 N1059 1.356 . S
N1062 C1054 1.356 . S
N1062 H1068 0.984 . S
N1062 H1069 0.984 . S
N1063 C1056 1.356 . S
N1063 H1066 0.984 . S
N1063 H1067 0.985 . S
H1064 N1059 0.984 . S
H1065 N1059 0.985 . S
H1066 N1063 0.984 . S
H1067 N1063 0.985 . S
H1068 N1062 0.984 . S
H1069 N1062 0.984 . S
H1070 N1058 0.984 . S
H1071 N1058 0.985 . S
C641 C391 3.179 . S
C643 C511 3.278 . S
C661 C537 2.937 . S
C659 C451 2.726 . S
C679 C577 2.828 . S
C677 C241 2.272 . S
C697 C631 3.172 . S
C695 C331 2.684 . S
C715 C492 3.283 . S
C713 C121 2.793 . S
C731 C211 2.763 . S
C733 C522 2.938 . S
C749 C31 2.635 . S
C751 C562 2.827 . S
C767 C91 2.730 . S
C769 C612 3.172 . S
C787 C488 0.871 . S
C785 C301 0.791 . S
C805 C549 0.954 . S
C803 C380 0.983 . S
C823 C589 0.627 . S
C821 C440 0.593 . S
C839 C260 0.751 . S
C841 C608 0.756 . S
C857 C61 0.851 . S
C859 C509 0.871 . S
C877 C528 0.954 . S
C875 C140 1.000 . S
C895 C568 0.626 . S
C893 C200 0.626 . S
C911 C20 0.755 . S
C913 C629 0.756 . S
C929 C320 3.061 . S
C931 C482 3.408 . S
C947 C361 3.133 . S
C949 C532 3.811 . S
C967 C572 3.579 . S
C965 C421 2.894 . S
C985 C602 3.146 . S
C983 C271 2.831 . S
C1001 C80 3.093 . S
C1003 C497 3.408 . S
C1021 C551 3.811 . S
C1019 C151 3.544 . S
C1039 C591 3.579 . S
C1037 C181 2.952 . S
C1055 C1 2.416 . S
C1057 C617 3.145 . S
