# Generated by pormake.
# Topology hwx, (6,3)-cn, num edge types: 1
# Building blocks:
#     Node 0, Type 0, BuildingBlock: IZENUY_clean_sbu_0, # of connection points: 6
#     Node 1, Type 0, BuildingBlock: IZENUY_clean_sbu_0, # of connection points: 6
#     Node 2, Type 0, BuildingBlock: IZENUY_clean_sbu_0, # of connection points: 6
#     Node 3, Type 0, BuildingBlock: IZENUY_clean_sbu_0, # of connection points: 6
#     Node 4, Type 1, BuildingBlock: VETTIZ_charged_linker_0, # of connection points: 3
#     Node 5, Type 1, BuildingBlock: VETTIZ_charged_linker_0, # of connection points: 3
#     Node 6, Type 1, BuildingBlock: VETTIZ_charged_linker_0, # of connection points: 3
#     Node 7, Type 1, BuildingBlock: VETTIZ_charged_linker_0, # of connection points: 3
#     Node 8, Type 1, BuildingBlock: VETTIZ_charged_linker_0, # of connection points: 3
#     Node 9, Type 1, BuildingBlock: VETTIZ_charged_linker_0, # of connection points: 3
#     Node 10, Type 1, BuildingBlock: VETTIZ_charged_linker_0, # of connection points: 3
#     Node 11, Type 1, BuildingBlock: VETTIZ_charged_linker_0, # of connection points: 3
#     Edge 12, Type (0, 1), BuildingBlock: MIFKUJ_clean_linker_0, # of connection points: 2
#     Edge 13, Type (0, 1), BuildingBlock: MIFKUJ_clean_linker_0, # of connection points: 2
#     Edge 14, Type (0, 1), BuildingBlock: MIFKUJ_clean_linker_0, # of connection points: 2
#     Edge 15, Type (0, 1), BuildingBlock: MIFKUJ_clean_linker_0, # of connection points: 2
#     Edge 16, Type (0, 1), BuildingBlock: MIFKUJ_clean_linker_0, # of connection points: 2
#     Edge 17, Type (0, 1), BuildingBlock: MIFKUJ_clean_linker_0, # of connection points: 2
#     Edge 18, Type (0, 1), BuildingBlock: MIFKUJ_clean_linker_0, # of connection points: 2
#     Edge 19, Type (0, 1), BuildingBlock: MIFKUJ_clean_linker_0, # of connection points: 2
#     Edge 20, Type (0, 1), BuildingBlock: MIFKUJ_clean_linker_0, # of connection points: 2
#     Edge 21, Type (0, 1), BuildingBlock: MIFKUJ_clean_linker_0, # of connection points: 2
#     Edge 22, Type (0, 1), BuildingBlock: MIFKUJ_clean_linker_0, # of connection points: 2
#     Edge 23, Type (0, 1), BuildingBlock: MIFKUJ_clean_linker_0, # of connection points: 2
#     Edge 24, Type (0, 1), BuildingBlock: MIFKUJ_clean_linker_0, # of connection points: 2
#     Edge 25, Type (0, 1), BuildingBlock: MIFKUJ_clean_linker_0, # of connection points: 2
#     Edge 26, Type (0, 1), BuildingBlock: MIFKUJ_clean_linker_0, # of connection points: 2
#     Edge 27, Type (0, 1), BuildingBlock: MIFKUJ_clean_linker_0, # of connection points: 2
#     Edge 28, Type (0, 1), BuildingBlock: MIFKUJ_clean_linker_0, # of connection points: 2
#     Edge 29, Type (0, 1), BuildingBlock: MIFKUJ_clean_linker_0, # of connection points: 2
#     Edge 30, Type (0, 1), BuildingBlock: MIFKUJ_clean_linker_0, # of connection points: 2
#     Edge 31, Type (0, 1), BuildingBlock: MIFKUJ_clean_linker_0, # of connection points: 2
#     Edge 32, Type (0, 1), BuildingBlock: MIFKUJ_clean_linker_0, # of connection points: 2
#     Edge 33, Type (0, 1), BuildingBlock: MIFKUJ_clean_linker_0, # of connection points: 2
#     Edge 34, Type (0, 1), BuildingBlock: MIFKUJ_clean_linker_0, # of connection points: 2
#     Edge 35, Type (0, 1), BuildingBlock: MIFKUJ_clean_linker_0, # of connection points: 2
# Relax obj value: 0.054
# Max RMSD: 0.077
# Mean RMSD: 0.070
data_MOF--net-hwx--node1-IZENUY_clean_sbu_0--node2-VETTIZ_charged_linker_0--edge1-MIFKUJ_clean_linker_0
_symmetry_space_group_name_H-M    P1
_symmetry_Int_Tables_number       1
_symmetry_cell_setting            triclinic
loop_
_symmetry_equiv_pos_as_xyz
'x, y, z'
_cell_length_a     71.207765
_cell_length_b     71.26689
_cell_length_c     34.816449
_cell_angle_alpha  90.030301
_cell_angle_beta   90.002021
_cell_angle_gamma 90.005943
loop_
_atom_site_label
_atom_site_type_symbol
_atom_site_fract_x
_atom_site_fract_y
_atom_site_fract_z
_atom_type_partial_charge
Fe0 Fe 0.23771 0.20754 0.03988 0.0
Fe1 Fe 0.2378 0.20689 0.95192 0.0
O2 O 0.23267 0.19587 0.99625 0.0
Fe3 Fe 0.22245 0.17323 0.99719 0.0
O4 O 0.20891 0.17737 0.04137 0.0
O5 O 0.21318 0.20731 0.05374 0.0
O6 O 0.23375 0.23127 0.02094 0.0
C7 C 0.22429 0.23682 0.99234 0.0
C8 C 0.24757 0.16986 0.05582 0.0
O9 O 0.22256 0.22656 0.96305 0.0
C10 C 0.24859 0.17093 0.93582 0.0
O11 O 0.26248 0.2084 0.02849 0.0
O12 O 0.25877 0.21924 0.96985 0.0
O13 O 0.2422 0.16369 0.0237 0.0
O14 O 0.24267 0.18604 0.06704 0.0
C15 C 0.20266 0.18933 0.93856 0.0
O16 O 0.25332 0.18796 0.93756 0.0
O17 O 0.23411 0.16506 0.95323 0.0
C18 C 0.26914 0.21586 0.99864 0.0
O19 O 0.21781 0.19649 0.92628 0.0
O20 O 0.20206 0.18128 0.97078 0.0
C21 C 0.20358 0.19252 0.05701 0.0
Fe22 Fe 0.26315 0.70777 0.54263 0.0
Fe23 Fe 0.28172 0.67508 0.49919 0.0
O24 O 0.26958 0.69681 0.49879 0.0
Fe25 Fe 0.2639 0.70762 0.45448 0.0
O26 O 0.27752 0.72835 0.46652 0.0
O27 O 0.26576 0.73182 0.52444 0.0
O28 O 0.28737 0.70916 0.55811 0.0
C29 C 0.29852 0.69546 0.55984 0.0
C30 C 0.23166 0.71432 0.50022 0.0
O31 O 0.29485 0.68007 0.54331 0.0
C32 C 0.25592 0.67101 0.43765 0.0
O33 O 0.25937 0.68572 0.56877 0.0
O34 O 0.26288 0.66366 0.52524 0.0
O35 O 0.24201 0.71826 0.47177 0.0
O36 O 0.23847 0.7072 0.53027 0.0
C37 C 0.3003 0.69282 0.44111 0.0
O38 O 0.27084 0.66622 0.45489 0.0
O39 O 0.24992 0.68763 0.43965 0.0
C40 C 0.25638 0.66917 0.55699 0.0
O41 O 0.30145 0.68491 0.47334 0.0
O42 O 0.2847 0.6989 0.4289 0.0
C43 C 0.27487 0.73824 0.49609 0.0
Fe44 Fe 0.76337 0.80012 0.95954 0.0
Fe45 Fe 0.76226 0.80174 0.04743 0.0
O46 O 0.76853 0.81198 0.00294 0.0
Fe47 Fe 0.77995 0.83404 0.00184 0.0
O48 O 0.7612 0.84437 0.97353 0.0
O49 O 0.75972 0.82152 0.93133 0.0
O50 O 0.73841 0.80036 0.96983 0.0
C51 C 0.73123 0.79323 0.99955 0.0
C52 C 0.79857 0.81323 0.94383 0.0
O53 O 0.74119 0.78998 0.02894 0.0
C54 C 0.79785 0.81785 0.06268 0.0
O55 O 0.76616 0.7765 0.97977 0.0
O56 O 0.7768 0.78131 0.03815 0.0
O57 O 0.79404 0.82875 0.95901 0.0
O58 O 0.78796 0.79911 0.94645 0.0
C59 C 0.75287 0.83829 0.06109 0.0
O60 O 0.78215 0.81163 0.07404 0.0
O61 O 0.79948 0.82527 0.03 0.0
C62 C 0.77493 0.77082 0.0092 0.0
O63 O 0.74734 0.82149 0.05963 0.0
O64 O 0.76795 0.84324 0.0446 0.0
C65 C 0.75587 0.83814 0.94143 0.0
Fe66 Fe 0.72081 0.3345 0.50366 0.0
Fe67 Fe 0.7401 0.3022 0.5468 0.0
O68 O 0.73232 0.3124 0.50322 0.0
Fe69 Fe 0.73598 0.30041 0.4593 0.0
O70 O 0.7496 0.31968 0.43992 0.0
O71 O 0.73001 0.34206 0.45678 0.0
O72 O 0.74094 0.34591 0.52555 0.0
C73 C 0.74832 0.34082 0.5568 0.0
C74 C 0.69942 0.31545 0.45137 0.0
O75 O 0.74523 0.32463 0.57036 0.0
C76 C 0.72621 0.27095 0.50511 0.0
O77 O 0.70943 0.3308 0.55036 0.0
O78 O 0.71644 0.30169 0.56576 0.0
O79 O 0.71433 0.30888 0.43683 0.0
O80 O 0.69982 0.32475 0.48211 0.0
C81 C 0.7698 0.29399 0.50043 0.0
O82 O 0.73645 0.27778 0.53136 0.0
O83 O 0.72252 0.28035 0.47544 0.0
C84 C 0.70584 0.31581 0.56847 0.0
O85 O 0.76424 0.30208 0.53056 0.0
O86 O 0.75832 0.28968 0.47405 0.0
C87 C 0.74378 0.33633 0.43687 0.0
C88 C 0.19132 0.53695 0.87193 0.0
C89 C 0.19435 0.55642 0.86944 0.0
C90 C 0.19381 0.5673 0.90322 0.0
C91 C 0.18895 0.53936 0.94138 0.0
C92 C 0.1887 0.52873 0.90817 0.0
C93 C 0.1863 0.50813 0.91653 0.0
H94 H 0.18077 0.43799 0.04735 0.0
C95 C 0.18707 0.52654 0.97444 0.0
C96 C 0.18533 0.50822 0.96019 0.0
H97 H 0.18126 0.4337 0.92334 0.0
H98 H 0.18174 0.46734 0.91809 0.0
H99 H 0.21268 0.47002 0.05151 0.0
H100 H 0.1522 0.47342 0.05284 0.0
H101 H 0.16089 0.48962 0.08654 0.0
H102 H 0.16533 0.4649 0.09325 0.0
H103 H 0.19882 0.46177 0.09115 0.0
H104 H 0.20596 0.48593 0.08757 0.0
C105 C 0.20394 0.49769 0.90153 0.0
C106 C 0.16758 0.50158 0.89825 0.0
C107 C 0.19379 0.55266 0.10907 0.0
C108 C 0.19367 0.54448 0.14572 0.0
C109 C 0.1897 0.52518 0.14924 0.0
C110 C 0.18664 0.51407 0.11644 0.0
C111 C 0.18753 0.52238 0.0798 0.0
C112 C 0.19067 0.54146 0.07676 0.0
C113 C 0.19084 0.54809 0.03587 0.0
C114 C 0.18765 0.5298 0.01462 0.0
C115 C 0.18588 0.51473 0.04036 0.0
C116 C 0.21052 0.55648 0.0275 0.0
C117 C 0.17428 0.56198 0.03031 0.0
C118 C 0.18104 0.44427 0.01905 0.0
C119 C 0.18097 0.43303 0.98575 0.0
C120 C 0.18102 0.44191 0.94952 0.0
C121 C 0.18149 0.46151 0.94648 0.0
C122 C 0.18211 0.47248 0.97998 0.0
C123 C 0.18169 0.46385 0.0155 0.0
C124 C 0.18277 0.47777 0.04797 0.0
C125 C 0.18398 0.49615 0.02604 0.0
C126 C 0.18364 0.49294 0.98619 0.0
C127 C 0.2009 0.47372 0.07111 0.0
C128 C 0.16445 0.47637 0.07175 0.0
H129 H 0.19112 0.56797 0.96363 0.0
H130 H 0.19172 0.52822 0.84646 0.0
H131 H 0.15674 0.51279 0.90018 0.0
H132 H 0.16134 0.48941 0.91316 0.0
H133 H 0.16948 0.4981 0.86739 0.0
H134 H 0.21679 0.50634 0.90576 0.0
H135 H 0.20272 0.49461 0.87036 0.0
H136 H 0.20682 0.48452 0.91707 0.0
H137 H 0.19642 0.56754 0.10553 0.0
H138 H 0.18948 0.51859 0.17727 0.0
H139 H 0.18399 0.4994 0.12082 0.0
H140 H 0.22169 0.54814 0.04192 0.0
H141 H 0.21157 0.57113 0.03821 0.0
H142 H 0.21431 0.55626 0.99679 0.0
H143 H 0.16246 0.55873 0.05015 0.0
H144 H 0.168 0.56112 0.0013 0.0
H145 H 0.17871 0.57666 0.036 0.0
H146 H 0.19577 0.58237 0.90194 0.0
C147 C 0.19107 0.55891 0.93906 0.0
C148 C 0.0357 0.7961 0.52036 0.0
C149 C 0.0466 0.7943 0.48681 0.0
C150 C 0.03877 0.80001 0.45143 0.0
C151 C 0.00944 0.80775 0.48291 0.0
C152 C 0.01734 0.80299 0.51779 0.0
C153 C 0.00401 0.80595 0.55074 0.0
H154 H 0.91573 0.82364 0.61186 0.0
C155 C 0.98986 0.81361 0.48992 0.0
C156 C 0.98668 0.81289 0.52972 0.0
H157 H 0.96456 0.81127 0.68092 0.0
H158 H 0.98409 0.81128 0.62397 0.0
H159 H 0.93495 0.85415 0.56115 0.0
H160 H 0.92553 0.79538 0.54145 0.0
H161 H 0.91892 0.80768 0.49979 0.0
H162 H 0.90716 0.81259 0.54429 0.0
H163 H 0.91291 0.84567 0.54331 0.0
H164 H 0.93194 0.85183 0.51133 0.0
C165 C 0.01234 0.82118 0.57763 0.0
C166 C 0.00064 0.78673 0.57032 0.0
C167 C 0.94552 0.82374 0.37719 0.0
C168 C 0.92626 0.82812 0.37519 0.0
C169 C 0.91657 0.83248 0.4094 0.0
C170 C 0.92555 0.83148 0.44504 0.0
C171 C 0.94446 0.82605 0.44675 0.0
C172 C 0.95431 0.82285 0.4132 0.0
C173 C 0.97454 0.81798 0.42083 0.0
C174 C 0.97495 0.81821 0.46451 0.0
C175 C 0.9572 0.82268 0.47941 0.0
C176 C 0.98709 0.83357 0.40333 0.0
C177 C 0.97826 0.79812 0.40443 0.0
C178 C 0.93063 0.82088 0.61457 0.0
C179 C 0.93864 0.81717 0.65061 0.0
C180 C 0.95814 0.81411 0.65332 0.0
C181 C 0.96939 0.81405 0.62024 0.0
C182 C 0.96106 0.81716 0.58416 0.0
C183 C 0.94206 0.82095 0.58193 0.0
C184 C 0.93569 0.82458 0.54147 0.0
C185 C 0.95395 0.82198 0.51961 0.0
C186 C 0.96868 0.81737 0.54467 0.0
C187 C 0.92835 0.84504 0.53897 0.0
C188 C 0.92097 0.8094 0.53095 0.0
H189 H 0.0151 0.81058 0.42153 0.0
H190 H 0.04111 0.79186 0.54808 0.0
H191 H 0.99863 0.77555 0.54838 0.0
H192 H 0.98788 0.78639 0.58822 0.0
H193 H 0.01283 0.78271 0.58844 0.0
H194 H 0.02141 0.83116 0.56148 0.0
H195 H 0.02106 0.81481 0.60063 0.0
H196 H 0.00139 0.83011 0.59084 0.0
H197 H 0.95343 0.82046 0.35149 0.0
H198 H 0.90191 0.8365 0.40867 0.0
H199 H 0.91728 0.83464 0.46994 0.0
H200 H 0.9795 0.84719 0.40164 0.0
H201 H 0.99167 0.82987 0.37378 0.0
H202 H 0.9996 0.83658 0.42117 0.0
H203 H 0.96663 0.78842 0.41225 0.0
H204 H 0.99114 0.79159 0.41575 0.0
H205 H 0.97925 0.79849 0.37259 0.0
H206 H 0.04692 0.79936 0.42522 0.0
C207 C 0.02029 0.80667 0.44932 0.0
C208 C 0.81352 0.46823 0.12276 0.0
C209 C 0.812 0.44856 0.12455 0.0
C210 C 0.81357 0.43808 0.09032 0.0
C211 C 0.81689 0.46672 0.05341 0.0
C212 C 0.81598 0.47696 0.08707 0.0
C213 C 0.8172 0.49774 0.07998 0.0
H214 H 0.82122 0.56997 0.95427 0.0
C215 C 0.81844 0.48009 0.02109 0.0
C216 C 0.81881 0.49828 0.03649 0.0
H217 H 0.81768 0.57224 0.07834 0.0
H218 H 0.81902 0.5386 0.08142 0.0
H219 H 0.85164 0.53584 0.94895 0.0
H220 H 0.79117 0.53728 0.94549 0.0
H221 H 0.7987 0.52126 0.91045 0.0
H222 H 0.80538 0.54557 0.90646 0.0
H223 H 0.83889 0.54487 0.90849 0.0
H224 H 0.84422 0.52021 0.91292 0.0
C225 C 0.83521 0.50518 0.09979 0.0
C226 C 0.79872 0.50686 0.09437 0.0
C227 C 0.8161 0.4559 0.88399 0.0
C228 C 0.81621 0.4648 0.84792 0.0
C229 C 0.81852 0.48445 0.84644 0.0
C230 C 0.82026 0.49505 0.88025 0.0
C231 C 0.81958 0.48596 0.91606 0.0
C232 C 0.81781 0.46667 0.91743 0.0
C233 C 0.81732 0.45933 0.95789 0.0
C234 C 0.8188 0.47743 0.98067 0.0
C235 C 0.82001 0.493 0.95607 0.0
C236 C 0.83468 0.44654 0.96395 0.0
C237 C 0.79817 0.44944 0.96412 0.0
C238 C 0.82068 0.56326 0.98214 0.0
C239 C 0.81937 0.57396 0.01609 0.0
C240 C 0.81901 0.56451 0.0517 0.0
C241 C 0.81959 0.54488 0.05345 0.0
C242 C 0.82032 0.53443 0.01927 0.0
C243 C 0.82101 0.54363 0.98439 0.0
C244 C 0.82121 0.5302 0.951 0.0
C245 C 0.82056 0.51144 0.97164 0.0
C246 C 0.82001 0.51403 0.01163 0.0
C247 C 0.83986 0.5329 0.92881 0.0
C248 C 0.80331 0.53372 0.92673 0.0
H249 H 0.81679 0.43828 0.02984 0.0
H250 H 0.81261 0.47669 0.14855 0.0
H251 H 0.78654 0.49737 0.0895 0.0
H252 H 0.79507 0.51986 0.07884 0.0
H253 H 0.7994 0.50992 0.12562 0.0
H254 H 0.84675 0.49468 0.09802 0.0
H255 H 0.83266 0.50816 0.13067 0.0
H256 H 0.84092 0.51789 0.0859 0.0
H257 H 0.8141 0.44088 0.88634 0.0
H258 H 0.81892 0.49166 0.81907 0.0
H259 H 0.82185 0.50995 0.87719 0.0
H260 H 0.84681 0.45141 0.94641 0.0
H261 H 0.83161 0.43183 0.95549 0.0
H262 H 0.83989 0.44677 0.99386 0.0
H263 H 0.78669 0.45727 0.94953 0.0
H264 H 0.79391 0.44878 0.99454 0.0
H265 H 0.79835 0.43498 0.9522 0.0
H266 H 0.81225 0.42294 0.09075 0.0
C267 C 0.81604 0.44704 0.05486 0.0
C268 C 0.05572 0.18731 0.37207 0.0
C269 C 0.07443 0.18126 0.36881 0.0
C270 C 0.08396 0.17495 0.40184 0.0
C271 C 0.05671 0.18203 0.44093 0.0
C272 C 0.04713 0.18743 0.40824 0.0
C273 C 0.02734 0.19346 0.41684 0.0
H274 H 0.96004 0.21314 0.54777 0.0
C275 C 0.04413 0.18481 0.47417 0.0
C276 C 0.02681 0.19125 0.46021 0.0
H277 H 0.95666 0.21698 0.42394 0.0
H278 H 0.98812 0.20498 0.41832 0.0
H279 H 0.98151 0.17317 0.55081 0.0
H280 H 0.00141 0.23021 0.55388 0.0
H281 H 0.01465 0.21744 0.58736 0.0
H282 H 0.98962 0.21956 0.59387 0.0
H283 H 0.97832 0.18808 0.59187 0.0
H284 H 0.99941 0.17438 0.58551 0.0
C285 C 0.01373 0.1797 0.39642 0.0
C286 C 0.0252 0.21424 0.40445 0.0
C287 C 0.06999 0.17824 0.60924 0.0
C288 C 0.06236 0.18176 0.64578 0.0
C289 C 0.04313 0.1862 0.64887 0.0
C290 C 0.0319 0.18791 0.61595 0.0
C291 C 0.03999 0.18525 0.57951 0.0
C292 C 0.05865 0.18014 0.57668 0.0
C293 C 0.06497 0.17804 0.53571 0.0
C294 C 0.04713 0.18315 0.51433 0.0
C295 C 0.03257 0.18744 0.5401 0.0
C296 C 0.07064 0.15729 0.52899 0.0
C297 C 0.08094 0.19239 0.52847 0.0
C298 C 0.96612 0.21149 0.51946 0.0
C299 C 0.9558 0.21603 0.48627 0.0
C300 C 0.96417 0.21338 0.44996 0.0
C301 C 0.98253 0.20651 0.44674 0.0
C302 C 0.99274 0.20233 0.48016 0.0
C303 C 0.98448 0.20468 0.51573 0.0
C304 C 0.99753 0.19961 0.54807 0.0
C305 C 0.01493 0.19367 0.52598 0.0
C306 C 0.01206 0.19545 0.48625 0.0
C307 C 0.9888 0.18303 0.57061 0.0
C308 C 0.00099 0.2175 0.57242 0.0
H309 H 0.08329 0.17064 0.46202 0.0
H310 H 0.04798 0.19194 0.34703 0.0
H311 H 0.03805 0.22237 0.4118 0.0
H312 H 0.01365 0.22157 0.41926 0.0
H313 H 0.02302 0.21538 0.37295 0.0
H314 H 0.02001 0.16546 0.39383 0.0
H315 H 0.01028 0.1846 0.36698 0.0
H316 H 0.00057 0.17747 0.41265 0.0
H317 H 0.08464 0.17446 0.60593 0.0
H318 H 0.03691 0.18904 0.67666 0.0
H319 H 0.01745 0.19168 0.62012 0.0
H320 H 0.06247 0.14767 0.54783 0.0
H321 H 0.08576 0.15501 0.53522 0.0
H322 H 0.06753 0.15246 0.49946 0.0
H323 H 0.07768 0.20605 0.54249 0.0
H324 H 0.08299 0.19576 0.49787 0.0
H325 H 0.09447 0.18728 0.5404 0.0
H326 H 0.09841 0.17029 0.39998 0.0
C327 C 0.0752 0.1753 0.43786 0.0
C328 C 0.68927 0.9673 0.62312 0.0
C329 C 0.68913 0.94756 0.62503 0.0
C330 C 0.68478 0.93728 0.59152 0.0
C331 C 0.68297 0.96601 0.55463 0.0
C332 C 0.68603 0.97618 0.58782 0.0
C333 C 0.68595 0.997 0.58057 0.0
H334 H 0.68642 0.06889 0.45398 0.0
C335 C 0.68162 0.97934 0.52229 0.0
C336 C 0.68304 0.99755 0.53733 0.0
H337 H 0.68729 0.07155 0.57813 0.0
H338 H 0.68465 0.03792 0.58162 0.0
H339 H 0.7134 0.03349 0.4461 0.0
H340 H 0.65306 0.03762 0.44873 0.0
H341 H 0.65903 0.02103 0.41341 0.0
H342 H 0.66664 0.04504 0.40806 0.0
H343 H 0.7001 0.04304 0.40692 0.0
H344 H 0.7045 0.01822 0.41095 0.0
C345 C 0.70538 0.00491 0.5923 0.0
C346 C 0.66915 0.00572 0.60263 0.0
C347 C 0.68196 0.95446 0.38571 0.0
C348 C 0.68304 0.96322 0.3496 0.0
C349 C 0.68215 0.98297 0.3477 0.0
C350 C 0.68082 0.9938 0.38126 0.0
C351 C 0.68056 0.98483 0.41721 0.0
C352 C 0.68079 0.96546 0.41892 0.0
C353 C 0.68075 0.95828 0.4595 0.0
C354 C 0.68071 0.97655 0.48195 0.0
C355 C 0.68069 0.99206 0.45707 0.0
C356 C 0.6991 0.94697 0.46571 0.0
C357 C 0.66248 0.94687 0.46594 0.0
C358 C 0.68579 0.06226 0.48193 0.0
C359 C 0.68727 0.07296 0.51582 0.0
C360 C 0.68656 0.06367 0.55157 0.0
C361 C 0.68491 0.04412 0.55357 0.0
C362 C 0.68399 0.03362 0.51949 0.0
C363 C 0.68412 0.0427 0.48445 0.0
C364 C 0.68283 0.02919 0.4513 0.0
C365 C 0.6818 0.01054 0.47229 0.0
C366 C 0.68273 0.01324 0.51221 0.0
C367 C 0.70104 0.03105 0.4272 0.0
C368 C 0.66454 0.03341 0.42883 0.0
H369 H 0.67884 0.93773 0.53194 0.0
H370 H 0.69247 0.97571 0.64818 0.0
H371 H 0.65768 0.99533 0.60695 0.0
H372 H 0.66246 0.01735 0.58664 0.0
H373 H 0.67349 0.01082 0.63144 0.0
H374 H 0.71682 0.99549 0.58217 0.0
H375 H 0.70657 0.00611 0.62402 0.0
H376 H 0.70846 0.01872 0.57953 0.0
H377 H 0.68286 0.93934 0.38829 0.0
H378 H 0.68271 0.99007 0.32022 0.0
H379 H 0.68045 0.00876 0.37793 0.0
H380 H 0.71123 0.95426 0.45217 0.0
H381 H 0.69803 0.93279 0.45264 0.0
H382 H 0.70298 0.94537 0.49616 0.0
H383 H 0.65094 0.95192 0.44703 0.0
H384 H 0.6569 0.94842 0.49544 0.0
H385 H 0.66466 0.93175 0.45965 0.0
H386 H 0.68394 0.92212 0.59224 0.0
C387 C 0.68172 0.94638 0.55645 0.0
C388 C 0.55402 0.32236 0.13453 0.0
C389 C 0.57358 0.32459 0.13757 0.0
C390 C 0.58433 0.32727 0.10411 0.0
C391 C 0.55644 0.32404 0.065 0.0
C392 C 0.54578 0.32196 0.09792 0.0
C393 C 0.52544 0.31813 0.08886 0.0
H394 H 0.46001 0.29452 0.95635 0.0
C395 C 0.544 0.32153 0.03153 0.0
C396 C 0.52577 0.31813 0.04516 0.0
H397 H 0.45272 0.29994 0.07902 0.0
H398 H 0.48453 0.31151 0.0853 0.0
H399 H 0.48115 0.33365 0.94624 0.0
H400 H 0.5019 0.27718 0.95748 0.0
H401 H 0.51357 0.28815 0.91893 0.0
H402 H 0.48854 0.28535 0.91704 0.0
H403 H 0.4817 0.31786 0.90611 0.0
H404 H 0.50163 0.33241 0.9183 0.0
C405 C 0.5135 0.33448 0.10505 0.0
C406 C 0.52039 0.29861 0.10546 0.0
C407 C 0.57226 0.32095 0.89785 0.0
C408 C 0.56462 0.3182 0.86111 0.0
C409 C 0.54507 0.31585 0.85714 0.0
C410 C 0.53338 0.31558 0.88958 0.0
C411 C 0.54134 0.31775 0.92631 0.0
C412 C 0.56041 0.32079 0.92983 0.0
C413 C 0.56641 0.32327 0.97087 0.0
C414 C 0.54779 0.3211 0.99153 0.0
C415 C 0.53321 0.31759 0.96539 0.0
C416 C 0.57453 0.34334 0.97544 0.0
C417 C 0.58033 0.30723 0.98084 0.0
C418 C 0.46535 0.29818 0.98452 0.0
C419 C 0.45408 0.29606 0.01732 0.0
C420 C 0.46124 0.30142 0.05341 0.0
C421 C 0.47972 0.30799 0.057 0.0
C422 C 0.49114 0.3092 0.02415 0.0
C423 C 0.48371 0.30488 0.98854 0.0
C424 C 0.4976 0.30778 0.95659 0.0
C425 C 0.51482 0.31382 0.97904 0.0
C426 C 0.51104 0.3144 0.01866 0.0
C427 C 0.4902 0.32363 0.93013 0.0
C428 C 0.50059 0.28871 0.9361 0.0
H429 H 0.58488 0.32903 0.04357 0.0
H430 H 0.54551 0.32013 0.1599 0.0
H431 H 0.53202 0.28847 0.10049 0.0
H432 H 0.50799 0.29219 0.09184 0.0
H433 H 0.51793 0.29942 0.13693 0.0
H434 H 0.52131 0.34799 0.10351 0.0
H435 H 0.50977 0.33202 0.13561 0.0
H436 H 0.50054 0.33693 0.08833 0.0
H437 H 0.58721 0.32312 0.90166 0.0
H438 H 0.53891 0.31372 0.82902 0.0
H439 H 0.51866 0.31339 0.88487 0.0
H440 H 0.56711 0.35344 0.95638 0.0
H441 H 0.58967 0.34374 0.96783 0.0
H442 H 0.57264 0.34907 0.00469 0.0
H443 H 0.57667 0.29412 0.96517 0.0
H444 H 0.58 0.3032 0.01144 0.0
H445 H 0.59493 0.31104 0.9728 0.0
H446 H 0.5994 0.32918 0.10601 0.0
C447 C 0.57586 0.32716 0.06792 0.0
C448 C 0.3201 0.03699 0.36327 0.0
C449 C 0.3202 0.05658 0.35848 0.0
C450 C 0.3226 0.06815 0.39098 0.0
C451 C 0.32317 0.04082 0.43231 0.0
C452 C 0.3217 0.02944 0.4003 0.0
C453 C 0.32144 0.00895 0.41065 0.0
H454 H 0.3182 0.94149 0.54716 0.0
C455 C 0.32322 0.02866 0.46668 0.0
C456 C 0.32247 0.00996 0.4542 0.0
H457 H 0.31906 0.93482 0.42359 0.0
H458 H 0.32177 0.9682 0.4157 0.0
H459 H 0.35023 0.97409 0.5516 0.0
H460 H 0.28978 0.97646 0.54684 0.0
H461 H 0.29735 0.99323 0.58041 0.0
H462 H 0.30216 0.96874 0.58888 0.0
H463 H 0.33568 0.96709 0.5912 0.0
H464 H 0.34261 0.99122 0.58451 0.0
C465 C 0.33913 0.99959 0.39309 0.0
C466 C 0.30256 0.00056 0.39666 0.0
C467 C 0.31873 0.05833 0.59886 0.0
C468 C 0.31662 0.05093 0.63603 0.0
C469 C 0.3175 0.0313 0.64104 0.0
C470 C 0.31973 0.01927 0.60941 0.0
C471 C 0.32101 0.0269 0.57226 0.0
C472 C 0.3208 0.04616 0.5676 0.0
C473 C 0.32206 0.05186 0.52614 0.0
C474 C 0.32277 0.03286 0.50654 0.0
C475 C 0.32209 0.01826 0.53362 0.0
C476 C 0.34051 0.06307 0.52036 0.0
C477 C 0.30393 0.06285 0.51593 0.0
C478 C 0.31891 0.94722 0.51839 0.0
C479 C 0.31847 0.93537 0.48598 0.0
C480 C 0.31968 0.94349 0.44911 0.0
C481 C 0.3211 0.96295 0.44453 0.0
C482 C 0.32117 0.97459 0.47709 0.0
C483 C 0.32025 0.9667 0.51328 0.0
C484 C 0.32036 0.98134 0.5445 0.0
C485 C 0.32164 0.99927 0.52103 0.0
C486 C 0.32196 0.99519 0.48155 0.0
C487 C 0.33804 0.97832 0.56962 0.0
C488 C 0.30154 0.97992 0.56668 0.0
H489 H 0.32552 0.06996 0.45138 0.0
H490 H 0.31853 0.02774 0.33879 0.0
H491 H 0.29084 0.0106 0.40169 0.0
H492 H 0.29847 0.9877 0.41217 0.0
H493 H 0.30301 0.99746 0.3654 0.0
H494 H 0.351 0.00971 0.39114 0.0
H495 H 0.3363 0.9943 0.36365 0.0
H496 H 0.34461 0.988 0.41096 0.0
H497 H 0.31844 0.07334 0.59401 0.0
H498 H 0.3158 0.02518 0.6693 0.0
H499 H 0.31997 0.00447 0.61502 0.0
H500 H 0.3516 0.05832 0.54065 0.0
H501 H 0.33828 0.07831 0.52529 0.0
H502 H 0.34669 0.06096 0.49154 0.0
H503 H 0.29147 0.05635 0.52989 0.0
H504 H 0.30067 0.0628 0.48499 0.0
H505 H 0.30483 0.07763 0.52593 0.0
H506 H 0.32257 0.08328 0.38811 0.0
C507 C 0.32413 0.06038 0.42778 0.0
C508 C 0.53644 0.70844 0.01604 0.0
C509 C 0.54683 0.71167 0.98228 0.0
C510 C 0.53864 0.70729 0.9465 0.0
C511 C 0.50987 0.69787 0.9781 0.0
C512 C 0.51808 0.7015 0.01328 0.0
C513 C 0.50494 0.69765 0.0462 0.0
H514 H 0.41743 0.6751 0.10636 0.0
C515 C 0.49041 0.69164 0.98499 0.0
C516 C 0.48747 0.69122 0.02489 0.0
H517 H 0.4652 0.69052 0.1762 0.0
H518 H 0.48478 0.69186 0.11946 0.0
H519 H 0.42439 0.70536 0.04331 0.0
H520 H 0.43938 0.64702 0.04941 0.0
H521 H 0.4329 0.65133 0.00155 0.0
H522 H 0.41587 0.65463 0.0394 0.0
H523 H 0.40752 0.68684 0.03792 0.0
H524 H 0.42042 0.69594 0.99753 0.0
C525 C 0.50166 0.71631 0.06807 0.0
C526 C 0.51346 0.68175 0.07099 0.0
C527 C 0.44575 0.68369 0.87229 0.0
C528 C 0.4265 0.67942 0.87016 0.0
C529 C 0.41693 0.67408 0.90388 0.0
C530 C 0.42612 0.67389 0.93939 0.0
C531 C 0.44507 0.67925 0.9414 0.0
C532 C 0.45472 0.68353 0.90811 0.0
C533 C 0.47485 0.68869 0.91589 0.0
C534 C 0.47547 0.68735 0.95944 0.0
C535 C 0.45795 0.682 0.97414 0.0
C536 C 0.478 0.70905 0.90165 0.0
C537 C 0.48764 0.67385 0.89648 0.0
C538 C 0.43211 0.67878 0.10949 0.0
C539 C 0.43972 0.68294 0.14574 0.0
C540 C 0.459 0.68723 0.1486 0.0
C541 C 0.4703 0.68814 0.11558 0.0
C542 C 0.46221 0.68479 0.07933 0.0
C543 C 0.44348 0.6799 0.07691 0.0
C544 C 0.43703 0.67725 0.03622 0.0
C545 C 0.45496 0.68144 0.01442 0.0
C546 C 0.46966 0.68593 0.03971 0.0
C547 C 0.42144 0.69195 0.02805 0.0
C548 C 0.43081 0.65655 0.03115 0.0
H549 H 0.51481 0.69753 0.91616 0.0
H550 H 0.54224 0.71172 0.044 0.0
H551 H 0.5208 0.67126 0.05267 0.0
H552 H 0.50272 0.67363 0.08672 0.0
H553 H 0.52386 0.68739 0.09179 0.0
H554 H 0.50079 0.7283 0.04769 0.0
H555 H 0.51335 0.71921 0.08835 0.0
H556 H 0.48828 0.71661 0.084 0.0
H557 H 0.4535 0.68786 0.84692 0.0
H558 H 0.4022 0.6703 0.90286 0.0
H559 H 0.41795 0.67004 0.96403 0.0
H560 H 0.46584 0.71809 0.90944 0.0
H561 H 0.47957 0.70947 0.86991 0.0
H562 H 0.49032 0.7159 0.9147 0.0
H563 H 0.48045 0.66004 0.89408 0.0
H564 H 0.50047 0.6709 0.91337 0.0
H565 H 0.49171 0.67824 0.86703 0.0
H566 H 0.54645 0.70923 0.9201 0.0
C567 C 0.52027 0.70039 0.94425 0.0
H568 H 0.18726 0.16194 0.09003 0.0
H569 H 0.1621 0.16142 0.13734 0.0
H570 H 0.15776 0.22176 0.13102 0.0
H571 H 0.18358 0.22242 0.08462 0.0
H572 H 0.15746 0.21194 0.20174 0.0
H573 H 0.12344 0.19129 0.09237 0.0
H574 H 0.11681 0.17246 0.03452 0.0
H575 H 0.11492 0.12238 0.1029 0.0
H576 H 0.12183 0.14086 0.16111 0.0
H577 H 0.07564 0.21091 0.31958 0.0
H578 H 0.09432 0.2138 0.26075 0.0
H579 H 0.11434 0.15715 0.27541 0.0
H580 H 0.09576 0.1542 0.33443 0.0
H581 H 0.10386 0.16748 0.19704 0.0
H582 H 0.14122 0.18944 0.30502 0.0
H583 H 0.14699 0.20933 0.3618 0.0
H584 H 0.14079 0.25881 0.29261 0.0
H585 H 0.1347 0.23918 0.2355 0.0
C586 C 0.18084 0.1751 0.09838 0.0
C587 C 0.18742 0.19223 0.08362 0.0
C588 C 0.16634 0.17477 0.1253 0.0
C589 C 0.15778 0.19152 0.13735 0.0
C590 C 0.16411 0.20865 0.12213 0.0
C591 C 0.17885 0.20901 0.09561 0.0
C592 C 0.14307 0.19115 0.1676 0.0
C593 C 0.14553 0.20249 0.20021 0.0
C594 C 0.12759 0.17866 0.16601 0.0
C595 C 0.12329 0.16747 0.1311 0.0
C596 C 0.12174 0.17625 0.09505 0.0
C597 C 0.11791 0.16563 0.06219 0.0
C598 C 0.11548 0.14623 0.06502 0.0
C599 C 0.11682 0.13741 0.10074 0.0
C600 C 0.12066 0.14795 0.1337 0.0
C601 C 0.08379 0.19898 0.30988 0.0
C602 C 0.08435 0.18235 0.33154 0.0
C603 C 0.09447 0.20067 0.27642 0.0
C604 C 0.10572 0.18571 0.26396 0.0
C605 C 0.1057 0.16882 0.28463 0.0
C606 C 0.09521 0.1672 0.31837 0.0
C607 C 0.11851 0.18806 0.23088 0.0
C608 C 0.11567 0.17709 0.19798 0.0
C609 C 0.13347 0.20108 0.23187 0.0
C610 C 0.13728 0.21286 0.26612 0.0
C611 C 0.14092 0.20456 0.30199 0.0
C612 C 0.14428 0.21578 0.33422 0.0
C613 C 0.1442 0.23532 0.33084 0.0
C614 C 0.14081 0.24367 0.2952 0.0
C615 C 0.13741 0.23251 0.2629 0.0
H616 H 0.1468 0.24398 0.35582 0.0
H617 H 0.11252 0.13804 0.03954 0.0
H618 H 0.23739 0.67676 0.62329 0.0
H619 H 0.22395 0.65439 0.66865 0.0
H620 H 0.24029 0.60858 0.59491 0.0
H621 H 0.25386 0.6309 0.5492 0.0
H622 H 0.19659 0.62716 0.66512 0.0
H623 H 0.2566 0.57412 0.65256 0.0
H624 H 0.29034 0.5727 0.63627 0.0
H625 H 0.29723 0.62977 0.67362 0.0
H626 H 0.26361 0.63149 0.68977 0.0
H627 H 0.17723 0.55187 0.79928 0.0
H628 H 0.18522 0.56778 0.73873 0.0
H629 H 0.23029 0.59701 0.79602 0.0
H630 H 0.22256 0.58114 0.85598 0.0
H631 H 0.24127 0.58313 0.72703 0.0
H632 H 0.18926 0.61849 0.78053 0.0
H633 H 0.15685 0.62248 0.80414 0.0
H634 H 0.1353 0.60489 0.69468 0.0
H635 H 0.16762 0.60056 0.6706 0.0
C636 C 0.23802 0.66194 0.6165 0.0
C637 C 0.24691 0.65562 0.58281 0.0
C638 C 0.2302 0.64918 0.64236 0.0
C639 C 0.23123 0.62984 0.63527 0.0
C640 C 0.23947 0.62346 0.60103 0.0
C641 C 0.24721 0.63624 0.57496 0.0
C642 C 0.22489 0.61645 0.66517 0.0
C643 C 0.20627 0.61733 0.67832 0.0
C644 C 0.23753 0.60375 0.68261 0.0
C645 C 0.25761 0.60298 0.67189 0.0
C646 C 0.26535 0.58636 0.65706 0.0
C647 C 0.28444 0.58552 0.64781 0.0
C648 C 0.29593 0.60116 0.65366 0.0
C649 C 0.28834 0.6177 0.6687 0.0
C650 C 0.26925 0.61864 0.67777 0.0
C651 C 0.18891 0.5616 0.79873 0.0
C652 C 0.19917 0.56542 0.83236 0.0
C653 C 0.19339 0.57072 0.76427 0.0
C654 C 0.20829 0.58363 0.76299 0.0
C655 C 0.21875 0.5871 0.79637 0.0
C656 C 0.21421 0.57815 0.83068 0.0
C657 C 0.21304 0.59397 0.72738 0.0
C658 C 0.23139 0.59251 0.7131 0.0
C659 C 0.20022 0.60636 0.70948 0.0
C660 C 0.18083 0.60896 0.72394 0.0
C661 C 0.1776 0.61531 0.76162 0.0
C662 C 0.15925 0.61766 0.77506 0.0
C663 C 0.14402 0.61387 0.75097 0.0
C664 C 0.14711 0.60777 0.71334 0.0
C665 C 0.16544 0.60537 0.69978 0.0
H666 H 0.12983 0.61572 0.76142 0.0
H667 H 0.31072 0.60041 0.64672 0.0
H668 H 0.83423 0.8289 0.04899 0.0
H669 H 0.85973 0.83172 0.09609 0.0
H670 H 0.82278 0.81132 0.18489 0.0
H671 H 0.79739 0.80841 0.13846 0.0
H672 H 0.84098 0.84447 0.20408 0.0
H673 H 0.85532 0.7834 0.15039 0.0
H674 H 0.86291 0.76154 0.09767 0.0
H675 H 0.91272 0.79311 0.07208 0.0
H676 H 0.90527 0.81532 0.12435 0.0
H677 H 0.89122 0.81414 0.36254 0.0
H678 H 0.87329 0.81428 0.30302 0.0
H679 H 0.91998 0.83961 0.24364 0.0
H680 H 0.93804 0.84004 0.30381 0.0
H681 H 0.90071 0.80857 0.20293 0.0
H682 H 0.88787 0.86759 0.26246 0.0
H683 H 0.87998 0.88883 0.31599 0.0
H684 H 0.82699 0.86097 0.33048 0.0
H685 H 0.83469 0.83935 0.27742 0.0
C686 C 0.83159 0.82492 0.07852 0.0
C687 C 0.81374 0.81856 0.09003 0.0
C688 C 0.84617 0.82648 0.1053 0.0
C689 C 0.84306 0.82177 0.1439 0.0
C690 C 0.8254 0.8151 0.15523 0.0
C691 C 0.81092 0.81341 0.12857 0.0
C692 C 0.85783 0.82439 0.17326 0.0
C693 C 0.85403 0.83661 0.20386 0.0
C694 C 0.87508 0.81456 0.17219 0.0
C695 C 0.87961 0.80116 0.14095 0.0
C696 C 0.8678 0.78578 0.13329 0.0
C697 C 0.87209 0.7733 0.10355 0.0
C698 C 0.88825 0.77597 0.08146 0.0
C699 C 0.90019 0.79108 0.08916 0.0
C700 C 0.89594 0.80361 0.11885 0.0
C701 C 0.89768 0.81994 0.33701 0.0
C702 C 0.91595 0.82741 0.33813 0.0
C703 C 0.88746 0.81985 0.30294 0.0
C704 C 0.89528 0.82712 0.26915 0.0
C705 C 0.91375 0.83394 0.26954 0.0
C706 C 0.92402 0.83416 0.30388 0.0
C707 C 0.88353 0.8282 0.23424 0.0
C708 C 0.88786 0.81674 0.20266 0.0
C709 C 0.86669 0.83871 0.23428 0.0
C710 C 0.86192 0.85177 0.26609 0.0
C711 C 0.8746 0.8659 0.27725 0.0
C712 C 0.87015 0.87802 0.30748 0.0
C713 C 0.85301 0.87623 0.32666 0.0
C714 C 0.84026 0.86233 0.3156 0.0
C715 C 0.84465 0.85015 0.28541 0.0
H716 H 0.84959 0.88563 0.35006 0.0
H717 H 0.89155 0.76631 0.05844 0.0
H718 H 0.74659 0.37927 0.55435 0.0
H719 H 0.7612 0.40138 0.5991 0.0
H720 H 0.78848 0.35536 0.65722 0.0
H721 H 0.77341 0.33322 0.61353 0.0
H722 H 0.77278 0.37649 0.70742 0.0
H723 H 0.81269 0.3882 0.59944 0.0
H724 H 0.82029 0.39599 0.53223 0.0
H725 H 0.79349 0.4496 0.54493 0.0
H726 H 0.78549 0.44203 0.61211 0.0
H727 H 0.83022 0.43007 0.82995 0.0
H728 H 0.82166 0.41021 0.77544 0.0
H729 H 0.78653 0.45434 0.73065 0.0
H730 H 0.79471 0.47421 0.78548 0.0
H731 H 0.80702 0.43475 0.67305 0.0
H732 H 0.76654 0.42171 0.78117 0.0
H733 H 0.76001 0.4136 0.8487 0.0
H734 H 0.78948 0.36146 0.83498 0.0
H735 H 0.79645 0.36941 0.76749 0.0
C736 C 0.75591 0.37391 0.57635 0.0
C737 C 0.75875 0.3545 0.58062 0.0
C738 C 0.76432 0.38657 0.60185 0.0
C739 C 0.77605 0.38008 0.63151 0.0
C740 C 0.77942 0.36073 0.63477 0.0
C741 C 0.77081 0.34809 0.60973 0.0
C742 C 0.78375 0.39317 0.66086 0.0
C743 C 0.78055 0.38905 0.69975 0.0
C744 C 0.79349 0.40984 0.65106 0.0
C745 C 0.79834 0.41447 0.61071 0.0
C746 C 0.80829 0.40159 0.58782 0.0
C747 C 0.81269 0.40598 0.54974 0.0
C748 C 0.80734 0.42326 0.53429 0.0
C749 C 0.79761 0.43621 0.55693 0.0
C750 C 0.79316 0.43189 0.59502 0.0
C751 C 0.82072 0.4356 0.80846 0.0
C752 C 0.81296 0.45366 0.81238 0.0
C753 C 0.81594 0.42427 0.77722 0.0
C754 C 0.80331 0.43075 0.74928 0.0
C755 C 0.79634 0.44911 0.75189 0.0
C756 C 0.80107 0.46046 0.78323 0.0
C757 C 0.7962 0.41784 0.71921 0.0
C758 C 0.79938 0.42208 0.6804 0.0
C759 C 0.78657 0.40115 0.72897 0.0
C760 C 0.78217 0.39624 0.7694 0.0
C761 C 0.77175 0.40858 0.79263 0.0
C762 C 0.76795 0.404 0.83089 0.0
C763 C 0.77437 0.38705 0.84615 0.0
C764 C 0.78454 0.3746 0.82314 0.0
C765 C 0.78841 0.37913 0.78488 0.0
H766 H 0.77142 0.38353 0.87578 0.0
H767 H 0.81076 0.42662 0.5048 0.0
H768 H 0.68975 0.28838 0.40035 0.0
H769 H 0.66339 0.28883 0.35552 0.0
H770 H 0.64331 0.34022 0.40645 0.0
H771 H 0.66945 0.33957 0.45236 0.0
H772 H 0.6139 0.3155 0.37724 0.0
H773 H 0.67238 0.34422 0.33803 0.0
H774 H 0.70687 0.3426 0.33319 0.0
H775 H 0.70237 0.29614 0.25514 0.0
H776 H 0.66784 0.29693 0.26092 0.0
H777 H 0.56729 0.34475 0.20327 0.0
H778 H 0.58533 0.34318 0.26338 0.0
H779 H 0.61895 0.2984 0.21583 0.0
H780 H 0.6015 0.30052 0.15566 0.0
H781 H 0.64081 0.32267 0.24651 0.0
H782 H 0.58374 0.29187 0.28699 0.0
H783 H 0.54962 0.2892 0.2979 0.0
H784 H 0.5513 0.33697 0.37303 0.0
H785 H 0.5854 0.34008 0.36217 0.0
C786 C 0.67949 0.29955 0.40256 0.0
C787 C 0.68185 0.31418 0.42914 0.0
C788 C 0.66438 0.29972 0.37716 0.0
C789 C 0.65166 0.31475 0.37728 0.0
C790 C 0.65302 0.32853 0.40593 0.0
C791 C 0.66802 0.3282 0.4319 0.0
C792 C 0.63921 0.31762 0.34379 0.0
C793 C 0.61968 0.31731 0.34865 0.0
C794 C 0.64689 0.31984 0.3066 0.0
C795 C 0.66751 0.32053 0.30017 0.0
C796 C 0.67874 0.33362 0.31991 0.0
C797 C 0.6983 0.33276 0.31725 0.0
C798 C 0.7068 0.31921 0.29402 0.0
C799 C 0.69575 0.30658 0.27323 0.0
C800 C 0.67618 0.30719 0.27629 0.0
C801 C 0.57845 0.33451 0.20602 0.0
C802 C 0.58317 0.32285 0.17498 0.0
C803 C 0.58869 0.33356 0.24031 0.0
C804 C 0.60348 0.32061 0.24423 0.0
C805 C 0.60773 0.3086 0.21345 0.0
C806 C 0.59776 0.30979 0.17913 0.0
C807 C 0.61525 0.31998 0.27942 0.0
C808 C 0.63484 0.32095 0.27497 0.0
C809 C 0.60756 0.31822 0.31681 0.0
C810 C 0.58708 0.31633 0.32343 0.0
C811 C 0.5768 0.3019 0.3056 0.0
C812 C 0.55747 0.30029 0.31182 0.0
C813 C 0.54829 0.31294 0.33605 0.0
C814 C 0.55842 0.3272 0.35421 0.0
C815 C 0.57775 0.32888 0.34806 0.0
H816 H 0.53332 0.31167 0.34084 0.0
H817 H 0.72196 0.3186 0.29192 0.0
H818 H 0.24571 0.13281 0.93225 0.0
H819 H 0.26038 0.11166 0.88601 0.0
H820 H 0.28834 0.15865 0.83277 0.0
H821 H 0.27411 0.17986 0.87967 0.0
H822 H 0.25545 0.11024 0.81234 0.0
H823 H 0.32813 0.1446 0.78906 0.0
H824 H 0.35124 0.16303 0.82607 0.0
H825 H 0.33195 0.13763 0.93068 0.0
H826 H 0.30886 0.11893 0.89428 0.0
H827 H 0.29297 0.08107 0.63669 0.0
H828 H 0.28455 0.101 0.69094 0.0
H829 H 0.32134 0.06912 0.76453 0.0
H830 H 0.33031 0.04931 0.70985 0.0
H831 H 0.32317 0.10762 0.77907 0.0
H832 H 0.27614 0.05979 0.76683 0.0
H833 H 0.25273 0.04055 0.73255 0.0
H834 H 0.22096 0.09003 0.70562 0.0
H835 H 0.24434 0.10961 0.73927 0.0
C836 C 0.25514 0.13864 0.91096 0.0
C837 C 0.25866 0.15804 0.90954 0.0
C838 C 0.2635 0.12652 0.8845 0.0
C839 C 0.27553 0.13352 0.85596 0.0
C840 C 0.27937 0.15285 0.8549 0.0
C841 C 0.27114 0.16499 0.88164 0.0
C842 C 0.28306 0.12071 0.82598 0.0
C843 C 0.27028 0.10965 0.80525 0.0
C844 C 0.30243 0.11974 0.8169 0.0
C845 C 0.31668 0.13046 0.83893 0.0
C846 C 0.32891 0.14286 0.81992 0.0
C847 C 0.34198 0.15338 0.84081 0.0
C848 C 0.34304 0.15153 0.8807 0.0
C849 C 0.33108 0.13909 0.89979 0.0
C850 C 0.31799 0.12855 0.87905 0.0
C851 C 0.29958 0.07847 0.6642 0.0
C852 C 0.31232 0.06356 0.66892 0.0
C853 C 0.29462 0.0898 0.69527 0.0
C854 C 0.30217 0.08642 0.73183 0.0
C855 C 0.31533 0.07194 0.73654 0.0
C856 C 0.3203 0.06054 0.70537 0.0
C857 C 0.29549 0.09744 0.76531 0.0
C858 C 0.30839 0.10818 0.78649 0.0
C859 C 0.27624 0.09793 0.77533 0.0
C860 C 0.26207 0.08618 0.75531 0.0
C861 C 0.26423 0.06658 0.75337 0.0
C862 C 0.25096 0.05561 0.73408 0.0
C863 C 0.23539 0.06407 0.71685 0.0
C864 C 0.23304 0.08351 0.71895 0.0
C865 C 0.24628 0.09454 0.73816 0.0
H866 H 0.22513 0.05555 0.70193 0.0
H867 H 0.35313 0.15973 0.89681 0.0
H868 H 0.30253 0.70732 0.36872 0.0
H869 H 0.32857 0.70473 0.32362 0.0
H870 H 0.36135 0.6755 0.40885 0.0
H871 H 0.33535 0.67817 0.45459 0.0
H872 H 0.3825 0.7012 0.3669 0.0
H873 H 0.3404 0.65047 0.34265 0.0
H874 H 0.30958 0.63572 0.33122 0.0
H875 H 0.30317 0.66756 0.22738 0.0
H876 H 0.33382 0.68275 0.23853 0.0
H877 H 0.44639 0.66959 0.21861 0.0
H878 H 0.42489 0.67035 0.27375 0.0
H879 H 0.38352 0.69888 0.2046 0.0
H880 H 0.40482 0.69833 0.1499 0.0
H881 H 0.36843 0.66962 0.24311 0.0
H882 H 0.40933 0.72226 0.27094 0.0
H883 H 0.4399 0.73737 0.28323 0.0
H884 H 0.44868 0.70146 0.38059 0.0
H885 H 0.41825 0.68596 0.36855 0.0
C886 C 0.3153 0.70046 0.3781 0.0
C887 C 0.31674 0.69272 0.41511 0.0
C888 C 0.33017 0.69897 0.35223 0.0
C889 C 0.34673 0.68963 0.36272 0.0
C890 C 0.34862 0.68266 0.40018 0.0
C891 C 0.33372 0.68416 0.42619 0.0
C892 C 0.36162 0.68648 0.33377 0.0
C893 C 0.37956 0.69402 0.34008 0.0
C894 C 0.35769 0.67719 0.29877 0.0
C895 C 0.33937 0.66785 0.29159 0.0
C896 C 0.33237 0.65442 0.3175 0.0
C897 C 0.31493 0.64597 0.31107 0.0
C898 C 0.30441 0.65072 0.27863 0.0
C899 C 0.31133 0.6639 0.25251 0.0
C900 C 0.32875 0.67242 0.25886 0.0
C901 C 0.43277 0.67616 0.21536 0.0
C902 C 0.42722 0.68373 0.17982 0.0
C903 C 0.42051 0.67656 0.24681 0.0
C904 C 0.40261 0.68465 0.24319 0.0
C905 C 0.3972 0.69241 0.2079 0.0
C906 C 0.40938 0.69202 0.17662 0.0
C907 C 0.38916 0.68486 0.27566 0.0
C908 C 0.37147 0.67663 0.27008 0.0
C909 C 0.39337 0.69346 0.31129 0.0
C910 C 0.41163 0.7028 0.31857 0.0
C911 C 0.41786 0.71747 0.29476 0.0
C912 C 0.43514 0.72613 0.30172 0.0
C913 C 0.44626 0.72034 0.3326 0.0
C914 C 0.44008 0.70591 0.35664 0.0
C915 C 0.42281 0.69719 0.34978 0.0
H916 H 0.45963 0.72706 0.33794 0.0
H917 H 0.2909 0.64418 0.27371 0.0
H918 H 0.75046 0.83176 0.8651 0.0
H919 H 0.73804 0.85336 0.81723 0.0
H920 H 0.729 0.89511 0.90494 0.0
H921 H 0.74169 0.87354 0.95349 0.0
H922 H 0.69804 0.88933 0.84795 0.0
H923 H 0.76408 0.90266 0.85554 0.0
H924 H 0.79764 0.89421 0.85774 0.0
H925 H 0.79335 0.86898 0.74607 0.0
H926 H 0.75968 0.87701 0.74346 0.0
H927 H 0.68123 0.95745 0.69992 0.0
H928 H 0.69184 0.94181 0.75853 0.0
H929 H 0.71913 0.89925 0.69026 0.0
H930 H 0.7097 0.91536 0.6319 0.0
H931 H 0.7415 0.90956 0.74452 0.0
H932 H 0.67597 0.89234 0.73837 0.0
H933 H 0.64187 0.89822 0.73529 0.0
H934 H 0.64446 0.92834 0.84201 0.0
H935 H 0.67864 0.92283 0.84547 0.0
C936 C 0.74574 0.84547 0.87444 0.0
C937 C 0.7472 0.85098 0.91312 0.0
C938 C 0.73866 0.8578 0.84698 0.0
C939 C 0.73277 0.87583 0.8576 0.0
C940 C 0.73353 0.88123 0.89631 0.0
C941 C 0.74085 0.86894 0.92389 0.0
C942 C 0.72655 0.88908 0.82753 0.0
C943 C 0.70755 0.89413 0.82568 0.0
C944 C 0.73898 0.89492 0.79824 0.0
C945 C 0.75931 0.89033 0.79944 0.0
C946 C 0.77026 0.8952 0.83157 0.0
C947 C 0.78931 0.89049 0.83287 0.0
C948 C 0.79762 0.88103 0.8021 0.0
C949 C 0.7869 0.8763 0.7699 0.0
C950 C 0.76783 0.88095 0.76847 0.0
C951 C 0.68961 0.94484 0.69737 0.0
C952 C 0.69451 0.93765 0.66104 0.0
C953 C 0.6955 0.93579 0.73096 0.0
C954 C 0.70614 0.91923 0.72886 0.0
C955 C 0.71092 0.91199 0.69267 0.0
C956 C 0.70527 0.92112 0.65922 0.0
C957 C 0.71275 0.90947 0.76405 0.0
C958 C 0.73193 0.90507 0.76697 0.0
C959 C 0.70041 0.90404 0.794 0.0
C960 C 0.67989 0.90737 0.79193 0.0
C961 C 0.66929 0.90035 0.76101 0.0
C962 C 0.64995 0.90359 0.75923 0.0
C963 C 0.64102 0.91371 0.78837 0.0
C964 C 0.65141 0.92055 0.81942 0.0
C965 C 0.67076 0.91736 0.82131 0.0
H966 H 0.62604 0.9162 0.78695 0.0
H967 H 0.81237 0.87739 0.80317 0.0
H968 H 0.8068 0.78728 0.88842 0.0
H969 H 0.83348 0.78733 0.84449 0.0
H970 H 0.85547 0.8368 0.9002 0.0
H971 H 0.82838 0.83725 0.94327 0.0
H972 H 0.85703 0.84173 0.82775 0.0
H973 H 0.87649 0.79186 0.90944 0.0
H974 H 0.87429 0.76223 0.9457 0.0
H975 H 0.86502 0.73188 0.84083 0.0
H976 H 0.86698 0.76135 0.80394 0.0
H977 H 0.94286 0.83528 0.71929 0.0
H978 H 0.92161 0.83406 0.77493 0.0
H979 H 0.88613 0.79481 0.71463 0.0
H980 H 0.90711 0.79619 0.65896 0.0
H981 H 0.89444 0.78534 0.79415 0.0
H982 H 0.87271 0.83702 0.71468 0.0
H983 H 0.87662 0.86696 0.68012 0.0
H984 H 0.89223 0.89428 0.78535 0.0
H985 H 0.88868 0.86441 0.82044 0.0
C986 C 0.81741 0.79806 0.89157 0.0
C987 C 0.81544 0.81232 0.91919 0.0
C988 C 0.83275 0.79801 0.86658 0.0
C989 C 0.84666 0.81194 0.86928 0.0
C990 C 0.84493 0.82592 0.89749 0.0
C991 C 0.82944 0.82615 0.9221 0.0
C992 C 0.86231 0.81262 0.84107 0.0
C993 C 0.86545 0.82946 0.82109 0.0
C994 C 0.87319 0.7966 0.83183 0.0
C995 C 0.87176 0.77885 0.85395 0.0
C996 C 0.87383 0.77889 0.89413 0.0
C997 C 0.87266 0.76211 0.91479 0.0
C998 C 0.86949 0.74519 0.89558 0.0
C999 C 0.86747 0.745 0.85567 0.0
C1000 C 0.86865 0.76174 0.83486 0.0
C1001 C 0.93059 0.82631 0.71817 0.0
C1002 C 0.9265 0.81591 0.68492 0.0
C1003 C 0.91849 0.82566 0.74979 0.0
C1004 C 0.90234 0.81437 0.7487 0.0
C1005 C 0.89856 0.80357 0.71595 0.0
C1006 C 0.91045 0.80446 0.68418 0.0
C1007 C 0.88888 0.81429 0.78101 0.0
C1008 C 0.88615 0.7976 0.80151 0.0
C1009 C 0.87858 0.83049 0.79116 0.0
C1010 C 0.88067 0.84844 0.77008 0.0
C1011 C 0.87716 0.84937 0.73038 0.0
C1012 C 0.87927 0.86634 0.71071 0.0
C1013 C 0.88474 0.8825 0.7305 0.0
C1014 C 0.88804 0.88174 0.77004 0.0
C1015 C 0.88598 0.8648 0.78983 0.0
H1016 H 0.88635 0.89563 0.71523 0.0
H1017 H 0.86864 0.7322 0.91158 0.0
H1018 H 0.73309 0.3721 0.41846 0.0
H1019 H 0.74585 0.39226 0.36823 0.0
H1020 H 0.78521 0.34896 0.33656 0.0
H1021 H 0.77274 0.32872 0.38725 0.0
H1022 H 0.80197 0.3833 0.3403 0.0
H1023 H 0.7487 0.35918 0.25942 0.0
H1024 H 0.71551 0.35115 0.24715 0.0
H1025 H 0.69817 0.40376 0.29573 0.0
H1026 H 0.73138 0.41247 0.30638 0.0
H1027 H 0.82674 0.41574 0.15259 0.0
H1028 H 0.81683 0.39852 0.20989 0.0
H1029 H 0.77755 0.44261 0.23726 0.0
H1030 H 0.78699 0.45965 0.17955 0.0
H1031 H 0.76098 0.40894 0.23778 0.0
H1032 H 0.81666 0.43564 0.29178 0.0
H1033 H 0.85034 0.44343 0.29542 0.0
H1034 H 0.86418 0.38481 0.29797 0.0
H1035 H 0.83058 0.37665 0.29377 0.0
C1036 C 0.74446 0.36681 0.40086 0.0
C1037 C 0.75184 0.34873 0.40688 0.0
C1038 C 0.75163 0.37833 0.37189 0.0
C1039 C 0.76625 0.372 0.34816 0.0
C1040 C 0.77385 0.35409 0.35441 0.0
C1041 C 0.76669 0.34254 0.3834 0.0
C1042 C 0.77388 0.38426 0.31743 0.0
C1043 C 0.79308 0.38878 0.31764 0.0
C1044 C 0.76225 0.39178 0.28841 0.0
C1045 C 0.74237 0.38629 0.28427 0.0
C1046 C 0.73776 0.36893 0.26773 0.0
C1047 C 0.71899 0.36434 0.26078 0.0
C1048 C 0.70471 0.37681 0.27118 0.0
C1049 C 0.70922 0.39406 0.28792 0.0
C1050 C 0.72802 0.39892 0.29406 0.0
C1051 C 0.81607 0.42182 0.17095 0.0
C1052 C 0.8076 0.43903 0.16142 0.0
C1053 C 0.81056 0.41205 0.2039 0.0
C1054 C 0.79653 0.41934 0.22799 0.0
C1055 C 0.78845 0.43676 0.21914 0.0
C1056 C 0.79396 0.44655 0.18627 0.0
C1057 C 0.78913 0.40808 0.26049 0.0
C1058 C 0.76994 0.40367 0.26058 0.0
C1059 C 0.80086 0.40068 0.28962 0.0
C1060 C 0.82109 0.40554 0.29208 0.0
C1061 C 0.82689 0.42441 0.29276 0.0
C1062 C 0.84597 0.42889 0.295 0.0
C1063 C 0.8594 0.41463 0.29682 0.0
C1064 C 0.85377 0.39584 0.2965 0.0
C1065 C 0.8347 0.39128 0.29423 0.0
H1066 H 0.87416 0.41813 0.29857 0.0
H1067 H 0.69018 0.37314 0.26607 0.0
H1068 H 0.16798 0.17399 0.95306 0.0
H1069 H 0.14089 0.1729 0.90979 0.0
H1070 H 0.17258 0.20265 0.82353 0.0
H1071 H 0.19952 0.20405 0.86652 0.0
H1072 H 0.13757 0.2163 0.82944 0.0
H1073 H 0.16673 0.15492 0.81974 0.0
H1074 H 0.17837 0.12488 0.8456 0.0
H1075 H 0.12319 0.11185 0.88763 0.0
H1076 H 0.11128 0.14195 0.8624 0.0
H1077 H 0.09734 0.19693 0.65146 0.0
H1078 H 0.11774 0.19804 0.70757 0.0
H1079 H 0.07577 0.16909 0.77441 0.0
H1080 H 0.05532 0.16747 0.71769 0.0
H1081 H 0.11142 0.1552 0.78673 0.0
H1082 H 0.08146 0.21491 0.78787 0.0
H1083 H 0.07006 0.24475 0.76075 0.0
H1084 H 0.12668 0.26105 0.7346 0.0
H1085 H 0.13842 0.23117 0.76103 0.0
C1086 C 0.16917 0.18034 0.92491 0.0
C1087 C 0.18599 0.18899 0.91316 0.0
C1088 C 0.15368 0.17966 0.90021 0.0
C1089 C 0.15479 0.18754 0.86332 0.0
C1090 C 0.17141 0.19649 0.85189 0.0
C1091 C 0.18685 0.1972 0.87649 0.0
C1092 C 0.13886 0.18629 0.83602 0.0
C1093 C 0.1319 0.20294 0.81998 0.0
C1094 C 0.13105 0.16888 0.82463 0.0
C1095 C 0.13818 0.15077 0.8396 0.0
C1096 C 0.15712 0.14571 0.83475 0.0
C1097 C 0.16375 0.12866 0.84925 0.0
C1098 C 0.15154 0.11649 0.86835 0.0
C1099 C 0.13264 0.12131 0.87289 0.0
C1100 C 0.12594 0.13835 0.85848 0.0
C1101 C 0.0925 0.19058 0.67792 0.0
C1102 C 0.07473 0.18204 0.68009 0.0
C1103 C 0.10409 0.19142 0.7101 0.0
C1104 C 0.09815 0.18389 0.74528 0.0
C1105 C 0.08055 0.17509 0.74755 0.0
C1106 C 0.06887 0.17427 0.71525 0.0
C1107 C 0.11058 0.18519 0.7793 0.0
C1108 C 0.11684 0.16858 0.79667 0.0
C1109 C 0.11778 0.20265 0.79192 0.0
C1110 C 0.11081 0.22073 0.77625 0.0
C1111 C 0.09148 0.2248 0.77611 0.0
C1112 C 0.08495 0.24173 0.76089 0.0
C1113 C 0.09763 0.25478 0.74592 0.0
C1114 C 0.11687 0.25093 0.74621 0.0
C1115 C 0.12347 0.23401 0.76136 0.0
H1116 H 0.09255 0.26788 0.73414 0.0
H1117 H 0.1567 0.1033 0.87956 0.0
H1118 H 0.22266 0.67527 0.39895 0.0
H1119 H 0.20791 0.65309 0.35458 0.0
H1120 H 0.25345 0.61414 0.37264 0.0
H1121 H 0.26803 0.63597 0.41751 0.0
H1122 H 0.21971 0.64036 0.28864 0.0
H1123 H 0.23882 0.56957 0.36304 0.0
H1124 H 0.24237 0.55717 0.42877 0.0
H1125 H 0.20542 0.59992 0.47168 0.0
H1126 H 0.20141 0.6124 0.40617 0.0
H1127 H 0.22299 0.56853 0.15354 0.0
H1128 H 0.22989 0.58934 0.20737 0.0
H1129 H 0.18177 0.56779 0.26845 0.0
H1130 H 0.17499 0.54656 0.21454 0.0
H1131 H 0.21044 0.57269 0.31645 0.0
H1132 H 0.1795 0.61023 0.22312 0.0
H1133 H 0.17325 0.62323 0.15877 0.0
H1134 H 0.22808 0.6483 0.15702 0.0
H1135 H 0.23478 0.63521 0.22114 0.0
C1136 C 0.22946 0.66192 0.3937 0.0
C1137 C 0.24654 0.65742 0.41178 0.0
C1138 C 0.22101 0.64926 0.36831 0.0
C1139 C 0.22945 0.63186 0.36058 0.0
C1140 C 0.24645 0.62731 0.37873 0.0
C1141 C 0.25484 0.63988 0.40425 0.0
C1142 C 0.22111 0.61883 0.33196 0.0
C1143 C 0.21757 0.62559 0.29483 0.0
C1144 C 0.21787 0.59964 0.34022 0.0
C1145 C 0.21994 0.592 0.37967 0.0
C1146 C 0.23137 0.57626 0.38645 0.0
C1147 C 0.23348 0.56923 0.42369 0.0
C1148 C 0.22417 0.57778 0.45439 0.0
C1149 C 0.21267 0.59334 0.4479 0.0
C1150 C 0.21049 0.60041 0.41072 0.0
C1151 C 0.21387 0.56823 0.17844 0.0
C1152 C 0.19831 0.55612 0.1797 0.0
C1153 C 0.2178 0.58014 0.20916 0.0
C1154 C 0.2061 0.58044 0.24158 0.0
C1155 C 0.19092 0.56787 0.24359 0.0
C1156 C 0.18707 0.55576 0.21287 0.0
C1157 C 0.20972 0.59412 0.2729 0.0
C1158 C 0.21238 0.5875 0.31046 0.0
C1159 C 0.21171 0.61355 0.2653 0.0
C1160 C 0.20768 0.62164 0.22687 0.0
C1161 C 0.19027 0.61843 0.20893 0.0
C1162 C 0.18665 0.62582 0.17249 0.0
C1163 C 0.20027 0.63656 0.15379 0.0
C1164 C 0.21754 0.63997 0.17154 0.0
C1165 C 0.22125 0.63259 0.20795 0.0
H1166 H 0.19744 0.64227 0.12558 0.0
H1167 H 0.22584 0.57233 0.4832 0.0
H1168 H 0.3332 0.68079 0.54731 0.0
H1169 H 0.35993 0.68064 0.59167 0.0
H1170 H 0.32692 0.71128 0.67479 0.0
H1171 H 0.30078 0.71257 0.62942 0.0
H1172 H 0.36089 0.72286 0.67858 0.0
H1173 H 0.33246 0.66065 0.66787 0.0
H1174 H 0.32363 0.63244 0.63107 0.0
H1175 H 0.38157 0.62177 0.60538 0.0
H1176 H 0.39073 0.65049 0.64024 0.0
H1177 H 0.3922 0.69551 0.86001 0.0
H1178 H 0.37496 0.69974 0.80018 0.0
H1179 H 0.42009 0.67343 0.73742 0.0
H1180 H 0.43733 0.66869 0.7977 0.0
H1181 H 0.38576 0.66037 0.71538 0.0
H1182 H 0.41472 0.71989 0.73126 0.0
H1183 H 0.42437 0.74855 0.76568 0.0
H1184 H 0.36656 0.76362 0.78233 0.0
H1185 H 0.35654 0.7349 0.74851 0.0
C1186 C 0.33183 0.68767 0.57492 0.0
C1187 C 0.31496 0.69652 0.58528 0.0
C1188 C 0.34704 0.68752 0.60028 0.0
C1189 C 0.3453 0.69549 0.63705 0.0
C1190 C 0.32863 0.70496 0.64669 0.0
C1191 C 0.31366 0.70565 0.62085 0.0
C1192 C 0.36022 0.6932 0.66651 0.0
C1193 C 0.36623 0.70917 0.68673 0.0
C1194 C 0.36782 0.67541 0.67625 0.0
C1195 C 0.36226 0.65786 0.6563 0.0
C1196 C 0.34331 0.65236 0.6542 0.0
C1197 C 0.33824 0.63628 0.63367 0.0
C1198 C 0.35201 0.62525 0.61616 0.0
C1199 C 0.3709 0.63033 0.61895 0.0
C1200 C 0.37604 0.64658 0.63888 0.0
C1201 C 0.3984 0.69043 0.83356 0.0
C1202 C 0.41609 0.68167 0.83358 0.0
C1203 C 0.38863 0.69307 0.79933 0.0
C1204 C 0.39638 0.68715 0.76432 0.0
C1205 C 0.41395 0.67822 0.76415 0.0
C1206 C 0.42379 0.6756 0.79851 0.0
C1207 C 0.3857 0.6899 0.72828 0.0
C1208 C 0.38059 0.67407 0.70682 0.0
C1209 C 0.37893 0.70777 0.71736 0.0
C1210 C 0.38488 0.72516 0.73751 0.0
C1211 C 0.40406 0.72924 0.74248 0.0
C1212 C 0.4096 0.74551 0.76186 0.0
C1213 C 0.39609 0.75788 0.77623 0.0
C1214 C 0.37701 0.75402 0.77118 0.0
C1215 C 0.37139 0.73776 0.75186 0.0
H1216 H 0.40041 0.77047 0.79123 0.0
H1217 H 0.34803 0.61277 0.60039 0.0
H1218 H 0.72167 0.83238 0.10591 0.0
H1219 H 0.70712 0.85443 0.15087 0.0
H1220 H 0.74711 0.89695 0.11803 0.0
H1221 H 0.76183 0.87506 0.07341 0.0
H1222 H 0.74492 0.89339 0.19478 0.0
H1223 H 0.70151 0.89957 0.08974 0.0
H1224 H 0.67932 0.88812 0.04068 0.0
H1225 H 0.64384 0.86551 0.12899 0.0
H1226 H 0.66597 0.87661 0.17859 0.0
H1227 H 0.70737 0.9709 0.29103 0.0
H1228 H 0.71622 0.95043 0.23779 0.0
H1229 H 0.67647 0.90888 0.27651 0.0
H1230 H 0.66713 0.92955 0.32942 0.0
H1231 H 0.67763 0.91145 0.19712 0.0
H1232 H 0.72076 0.90437 0.30166 0.0
H1233 H 0.74288 0.91509 0.35156 0.0
H1234 H 0.7789 0.93828 0.26482 0.0
H1235 H 0.75683 0.92797 0.21441 0.0
C1236 C 0.72728 0.84648 0.108 0.0
C1237 C 0.74301 0.8519 0.08621 0.0
C1238 C 0.71888 0.85908 0.1336 0.0
C1239 C 0.726 0.87735 0.1377 0.0
C1240 C 0.74142 0.88291 0.11538 0.0
C1241 C 0.7498 0.87036 0.08983 0.0
C1242 C 0.71812 0.89041 0.16672 0.0
C1243 C 0.73027 0.89756 0.19489 0.0
C1244 C 0.69887 0.89535 0.16762 0.0
C1245 C 0.6855 0.88876 0.13786 0.0
C1246 C 0.68906 0.89203 0.09869 0.0
C1247 C 0.67647 0.88563 0.07079 0.0
C1248 C 0.6602 0.87605 0.08171 0.0
C1249 C 0.65646 0.87291 0.12057 0.0
C1250 C 0.66901 0.87927 0.1486 0.0
C1251 C 0.70015 0.95762 0.28773 0.0
C1252 C 0.68663 0.9518 0.31464 0.0
C1253 C 0.70534 0.94587 0.25745 0.0
C1254 C 0.69721 0.92802 0.25358 0.0
C1255 C 0.68298 0.92256 0.2791 0.0
C1256 C 0.67778 0.93432 0.30946 0.0
C1257 C 0.70452 0.91463 0.22464 0.0
C1258 C 0.69229 0.90732 0.19677 0.0
C1259 C 0.7237 0.90941 0.22405 0.0
C1260 C 0.73704 0.91557 0.25429 0.0
C1261 C 0.73332 0.9119 0.29325 0.0
C1262 C 0.74586 0.91788 0.32162 0.0
C1263 C 0.76226 0.9274 0.31138 0.0
C1264 C 0.76618 0.93093 0.27272 0.0
C1265 C 0.75366 0.92501 0.24423 0.0
H1266 H 0.77196 0.93201 0.33339 0.0
H1267 H 0.65048 0.87111 0.06006 0.0
H1268 H 0.67538 0.33894 0.56915 0.0
H1269 H 0.64918 0.33881 0.61439 0.0
H1270 H 0.67418 0.29212 0.67455 0.0
H1271 H 0.70005 0.29171 0.62844 0.0
H1272 H 0.63818 0.28695 0.66998 0.0
H1273 H 0.67742 0.33871 0.70726 0.0
H1274 H 0.69503 0.36814 0.69777 0.0
H1275 H 0.64405 0.39658 0.66701 0.0
H1276 H 0.62616 0.36724 0.67583 0.0
H1277 H 0.59655 0.29767 0.85369 0.0
H1278 H 0.61814 0.29688 0.79908 0.0
H1279 H 0.58278 0.33587 0.7379 0.0
H1280 H 0.56101 0.33668 0.79267 0.0
H1281 H 0.62166 0.34549 0.73944 0.0
H1282 H 0.58241 0.29283 0.70906 0.0
H1283 H 0.56596 0.26309 0.7223 0.0
H1284 H 0.61869 0.236 0.74477 0.0
H1285 H 0.63545 0.26566 0.73222 0.0
C1286 C 0.67529 0.32864 0.59202 0.0
C1287 C 0.68986 0.31545 0.5955 0.0
C1288 C 0.66033 0.32862 0.61793 0.0
C1289 C 0.65988 0.31569 0.64834 0.0
C1290 C 0.67423 0.30226 0.65137 0.0
C1291 C 0.68905 0.30207 0.62508 0.0
C1292 C 0.64461 0.3163 0.67733 0.0
C1293 C 0.63471 0.29972 0.6854 0.0
C1294 C 0.63978 0.33305 0.69692 0.0
C1295 C 0.65049 0.35073 0.6918 0.0
C1296 C 0.66998 0.35121 0.69821 0.0
C1297 C 0.68001 0.36788 0.69299 0.0
C1298 C 0.67067 0.38421 0.68169 0.0
C1299 C 0.65127 0.38391 0.6757 0.0
C1300 C 0.64118 0.36727 0.68083 0.0
C1301 C 0.59338 0.30605 0.82856 0.0
C1302 C 0.57717 0.31728 0.82734 0.0
C1303 C 0.60563 0.30549 0.79736 0.0
C1304 C 0.60196 0.31623 0.76447 0.0
C1305 C 0.58578 0.32745 0.76306 0.0
C1306 C 0.57335 0.32783 0.79417 0.0
C1307 C 0.61548 0.31614 0.73225 0.0
C1308 C 0.62505 0.3328 0.72367 0.0
C1309 C 0.62021 0.29942 0.71266 0.0
C1310 C 0.61017 0.28152 0.71998 0.0
C1311 C 0.59049 0.28057 0.71712 0.0
C1312 C 0.58111 0.26372 0.72445 0.0
C1313 C 0.59127 0.24767 0.73445 0.0
C1314 C 0.61083 0.24844 0.73704 0.0
C1315 C 0.62028 0.26527 0.72978 0.0
H1316 H 0.58398 0.23464 0.74012 0.0
H1317 H 0.67846 0.3971 0.67766 0.0
H1318 H 0.25768 0.17747 0.12974 0.0
H1319 H 0.27264 0.15652 0.17574 0.0
H1320 H 0.27525 0.11295 0.08991 0.0
H1321 H 0.26023 0.13392 0.04329 0.0
H1322 H 0.25896 0.12335 0.20212 0.0
H1323 H 0.31564 0.08646 0.11112 0.0
H1324 H 0.33523 0.09272 0.05408 0.0
H1325 H 0.3329 0.15186 0.07719 0.0
H1326 H 0.31353 0.14593 0.13463 0.0
H1327 H 0.29303 0.04658 0.30726 0.0
H1328 H 0.28349 0.06352 0.24937 0.0
H1329 H 0.32859 0.10304 0.26641 0.0
H1330 H 0.33833 0.08606 0.32429 0.0
H1331 H 0.32166 0.09382 0.18698 0.0
H1332 H 0.28907 0.11444 0.30156 0.0
H1333 H 0.27013 0.10956 0.36 0.0
H1334 H 0.22548 0.08631 0.29207 0.0
H1335 H 0.24432 0.09078 0.23325 0.0
C1336 C 0.26151 0.16348 0.12041 0.0
C1337 C 0.25763 0.15734 0.08284 0.0
C1338 C 0.27003 0.15152 0.14684 0.0
C1339 C 0.27503 0.13321 0.13625 0.0
C1340 C 0.27159 0.12709 0.09856 0.0
C1341 C 0.26296 0.13907 0.07203 0.0
C1342 C 0.28314 0.12042 0.16538 0.0
C1343 C 0.27263 0.11684 0.19865 0.0
C1344 C 0.30102 0.11202 0.16097 0.0
C1345 C 0.31296 0.11574 0.12691 0.0
C1346 C 0.31937 0.10079 0.10409 0.0
C1347 C 0.33043 0.10428 0.07169 0.0
C1348 C 0.33525 0.12268 0.06193 0.0
C1349 C 0.32909 0.13762 0.08468 0.0
C1350 C 0.31805 0.1342 0.11713 0.0
C1351 C 0.30124 0.05857 0.29811 0.0
C1352 C 0.31633 0.0651 0.32045 0.0
C1353 C 0.29573 0.06826 0.26512 0.0
C1354 C 0.30527 0.08459 0.25386 0.0
C1355 C 0.32109 0.09045 0.27464 0.0
C1356 C 0.32652 0.08084 0.30783 0.0
C1357 C 0.2974 0.09675 0.22342 0.0
C1358 C 0.30792 0.1002 0.19006 0.0
C1359 C 0.27959 0.10526 0.22783 0.0
C1360 C 0.26818 0.10275 0.26309 0.0
C1361 C 0.27528 0.10814 0.29913 0.0
C1362 C 0.26456 0.10548 0.33231 0.0
C1363 C 0.24663 0.09758 0.32976 0.0
C1364 C 0.23938 0.09239 0.294 0.0
C1365 C 0.25007 0.09499 0.26074 0.0
H1366 H 0.23835 0.09553 0.35548 0.0
H1367 H 0.34378 0.12535 0.0368 0.0
H1368 H 0.23034 0.26441 0.04536 0.0
H1369 H 0.21914 0.29667 0.04397 0.0
H1370 H 0.18996 0.28566 0.9377 0.0
H1371 H 0.20156 0.25331 0.93837 0.0
H1372 H 0.20811 0.3177 0.93309 0.0
H1373 H 0.16614 0.29067 0.02366 0.0
H1374 H 0.15677 0.27227 0.08045 0.0
H1375 H 0.18684 0.31033 0.1537 0.0
H1376 H 0.19666 0.3288 0.09727 0.0
H1377 H 0.16312 0.40696 0.94041 0.0
H1378 H 0.16688 0.37286 0.94168 0.0
H1379 H 0.20406 0.3777 0.03891 0.0
H1380 H 0.20086 0.41179 0.03726 0.0
H1381 H 0.17815 0.34809 0.04579 0.0
H1382 H 0.22238 0.37286 0.95301 0.0
H1383 H 0.23136 0.39101 0.89559 0.0
H1384 H 0.19551 0.35658 0.82576 0.0
H1385 H 0.1861 0.33839 0.88292 0.0
C1386 C 0.22146 0.26876 0.02174 0.0
C1387 C 0.21687 0.25624 0.99194 0.0
C1388 C 0.21496 0.28723 0.02112 0.0
C1389 C 0.20346 0.29355 0.99103 0.0
C1390 C 0.19877 0.28108 0.96127 0.0
C1391 C 0.2054 0.2626 0.96172 0.0
C1392 C 0.19705 0.31339 0.99004 0.0
C1393 C 0.2012 0.32422 0.95746 0.0
C1394 C 0.18828 0.32202 0.02203 0.0
C1395 C 0.18226 0.31105 0.05615 0.0
C1396 C 0.17087 0.29506 0.05184 0.0
C1397 C 0.16546 0.28462 0.08398 0.0
C1398 C 0.17123 0.29011 0.12065 0.0
C1399 C 0.18238 0.30609 0.12527 0.0
C1400 C 0.18786 0.31656 0.09321 0.0
C1401 C 0.17215 0.40081 0.96202 0.0
C1402 C 0.1818 0.41219 0.98854 0.0
C1403 C 0.17418 0.3813 0.96283 0.0
C1404 C 0.18586 0.37279 0.99021 0.0
C1405 C 0.19492 0.384 0.01764 0.0
C1406 C 0.19301 0.40351 0.01672 0.0
C1407 C 0.18946 0.35231 0.98913 0.0
C1408 C 0.18481 0.34142 0.0213 0.0
C1409 C 0.19763 0.34357 0.95668 0.0
C1410 C 0.20337 0.35441 0.92229 0.0
C1411 C 0.21629 0.36926 0.92546 0.0
C1412 C 0.22148 0.37954 0.89295 0.0
C1413 C 0.21396 0.37499 0.85706 0.0
C1414 C 0.20129 0.36011 0.85359 0.0
C1415 C 0.19603 0.34981 0.88602 0.0
H1416 H 0.218 0.38296 0.83193 0.0
H1417 H 0.16703 0.28201 0.1455 0.0
H1418 H 0.20984 0.7242 0.56145 0.0
H1419 H 0.17805 0.73705 0.55983 0.0
H1420 H 0.17687 0.73049 0.43653 0.0
H1421 H 0.20904 0.71855 0.43793 0.0
H1422 H 0.16387 0.76259 0.45236 0.0
H1423 H 0.15136 0.70134 0.50181 0.0
H1424 H 0.15487 0.67419 0.54508 0.0
H1425 H 0.13827 0.70817 0.64112 0.0
H1426 H 0.13491 0.73561 0.59849 0.0
H1427 H 0.06393 0.77174 0.43358 0.0
H1428 H 0.09533 0.75812 0.43675 0.0
H1429 H 0.10393 0.7834 0.5478 0.0
H1430 H 0.07298 0.79808 0.54413 0.0
H1431 H 0.11245 0.74191 0.53867 0.0
H1432 H 0.12535 0.80328 0.48487 0.0
H1433 H 0.12071 0.82892 0.43829 0.0
H1434 H 0.1352 0.79181 0.34572 0.0
H1435 H 0.13965 0.76586 0.39174 0.0
C1436 C 0.2027 0.72533 0.53407 0.0
C1437 C 0.21187 0.72041 0.4998 0.0
C1438 C 0.18449 0.7326 0.53317 0.0
C1439 C 0.17491 0.73455 0.49808 0.0
C1440 C 0.18396 0.7292 0.46394 0.0
C1441 C 0.20231 0.72232 0.46476 0.0
C1442 C 0.15584 0.743 0.49669 0.0
C1443 C 0.1526 0.75782 0.4709 0.0
C1444 C 0.14112 0.73707 0.52128 0.0
C1445 C 0.14306 0.72058 0.54699 0.0
C1446 C 0.14859 0.70306 0.5322 0.0
C1447 C 0.15054 0.68761 0.5566 0.0
C1448 C 0.14685 0.68947 0.59584 0.0
C1449 C 0.14115 0.70677 0.61073 0.0
C1450 C 0.1392 0.72227 0.58645 0.0
C1451 C 0.07256 0.77477 0.45841 0.0
C1452 C 0.06583 0.78612 0.48855 0.0
C1453 C 0.09044 0.76679 0.46028 0.0
C1454 C 0.10182 0.76976 0.49253 0.0
C1455 C 0.09522 0.78089 0.52281 0.0
C1456 C 0.07747 0.78917 0.52069 0.0
C1457 C 0.1207 0.76127 0.49441 0.0
C1458 C 0.12383 0.74653 0.52023 0.0
C1459 C 0.13521 0.76697 0.46937 0.0
C1460 C 0.13263 0.78258 0.44171 0.0
C1461 C 0.12737 0.80054 0.45455 0.0
C1462 C 0.12481 0.81514 0.42826 0.0
C1463 C 0.1276 0.81198 0.38906 0.0
C1464 C 0.13301 0.79423 0.37609 0.0
C1465 C 0.13556 0.77957 0.40226 0.0
H1466 H 0.12562 0.8233 0.36875 0.0
H1467 H 0.14836 0.67749 0.61469 0.0
H1468 H 0.79485 0.75327 0.06646 0.0
H1469 H 0.80404 0.72016 0.0694 0.0
H1470 H 0.77823 0.71055 0.95906 0.0
H1471 H 0.76893 0.74341 0.9559 0.0
H1472 H 0.76821 0.68415 0.01246 0.0
H1473 H 0.82481 0.71451 0.96775 0.0
H1474 H 0.85012 0.73791 0.9733 0.0
H1475 H 0.86848 0.71271 0.07877 0.0
H1476 H 0.84285 0.68948 0.07454 0.0
H1477 H 0.80006 0.59485 0.963 0.0
H1478 H 0.79489 0.6286 0.96271 0.0
H1479 H 0.82756 0.63408 0.06645 0.0
H1480 H 0.83387 0.60038 0.06561 0.0
H1481 H 0.83441 0.66284 0.02133 0.0
H1482 H 0.77899 0.63297 0.06818 0.0
H1483 H 0.75245 0.61074 0.06808 0.0
H1484 H 0.73134 0.63547 0.96427 0.0
H1485 H 0.75792 0.65768 0.96341 0.0
C1486 C 0.79117 0.74411 0.04279 0.0
C1487 C 0.78112 0.751 0.01097 0.0
C1488 C 0.79648 0.72522 0.04448 0.0
C1489 C 0.79187 0.71294 0.01436 0.0
C1490 C 0.78189 0.71979 0.98262 0.0
C1491 C 0.77665 0.73862 0.98084 0.0
C1492 C 0.7971 0.69283 0.01585 0.0
C1493 C 0.78269 0.67946 0.01395 0.0
C1494 C 0.81597 0.6868 0.01917 0.0
C1495 C 0.83178 0.70035 0.02102 0.0
C1496 C 0.83417 0.71401 0.99227 0.0
C1497 C 0.84858 0.72724 0.99516 0.0
C1498 C 0.86094 0.72678 0.02631 0.0
C1499 C 0.8589 0.71305 0.05465 0.0
C1500 C 0.8444 0.69986 0.05205 0.0
C1501 C 0.80655 0.60321 0.98532 0.0
C1502 C 0.81728 0.59476 0.01452 0.0
C1503 C 0.80335 0.62254 0.9854 0.0
C1504 C 0.81045 0.63384 0.01508 0.0
C1505 C 0.82178 0.62563 0.04344 0.0
C1506 C 0.8252 0.6063 0.04313 0.0
C1507 C 0.80549 0.65408 0.01712 0.0
C1508 C 0.81992 0.66748 0.01987 0.0
C1509 C 0.78658 0.6602 0.01511 0.0
C1510 C 0.77055 0.64687 0.01554 0.0
C1511 C 0.76877 0.63357 0.04516 0.0
C1512 C 0.75371 0.62099 0.0453 0.0
C1513 C 0.74025 0.62166 0.01613 0.0
C1514 C 0.74179 0.63495 0.98681 0.0
C1515 C 0.75685 0.64754 0.9865 0.0
H1516 H 0.72859 0.61191 0.0163 0.0
H1517 H 0.87208 0.73705 0.02849 0.0
H1518 H 0.79896 0.30207 0.54903 0.0
H1519 H 0.83086 0.28938 0.54693 0.0
H1520 H 0.81692 0.25798 0.4449 0.0
H1521 H 0.78502 0.27052 0.44671 0.0
H1522 H 0.83458 0.23644 0.49989 0.0
H1523 H 0.84354 0.29594 0.43736 0.0
H1524 H 0.84153 0.33036 0.4315 0.0
H1525 H 0.87556 0.33679 0.53248 0.0
H1526 H 0.87755 0.30238 0.53925 0.0
H1527 H 0.92523 0.20781 0.44169 0.0
H1528 H 0.89391 0.22164 0.4452 0.0
H1529 H 0.91126 0.25538 0.54183 0.0
H1530 H 0.94287 0.24214 0.53753 0.0
H1531 H 0.89184 0.27592 0.49166 0.0
H1532 H 0.88348 0.21681 0.55426 0.0
H1533 H 0.88521 0.18245 0.56165 0.0
H1534 H 0.84984 0.17525 0.46284 0.0
H1535 H 0.84812 0.20958 0.45452 0.0
C1536 C 0.8027 0.29254 0.526 0.0
C1537 C 0.78942 0.28727 0.49809 0.0
C1538 C 0.82095 0.28536 0.5248 0.0
C1539 C 0.82622 0.27279 0.4957 0.0
C1540 C 0.81308 0.26764 0.46762 0.0
C1541 C 0.79489 0.2749 0.46864 0.0
C1542 C 0.84531 0.26459 0.49504 0.0
C1543 C 0.84711 0.24503 0.49759 0.0
C1544 C 0.86161 0.27589 0.49319 0.0
C1545 C 0.86053 0.29658 0.48903 0.0
C1546 C 0.85046 0.30469 0.4585 0.0
C1547 C 0.84935 0.3242 0.45498 0.0
C1548 C 0.85836 0.33576 0.48166 0.0
C1549 C 0.86856 0.32782 0.51186 0.0
C1550 C 0.8697 0.30832 0.51553 0.0
C1551 C 0.92242 0.21826 0.46354 0.0
C1552 C 0.93654 0.22386 0.48935 0.0
C1553 C 0.90446 0.22602 0.46576 0.0
C1554 C 0.90019 0.23939 0.49406 0.0
C1555 C 0.91424 0.24503 0.51985 0.0
C1556 C 0.93224 0.23732 0.51759 0.0
C1557 C 0.88115 0.24772 0.49625 0.0
C1558 C 0.87933 0.26731 0.49404 0.0
C1559 C 0.86482 0.23644 0.49863 0.0
C1560 C 0.86582 0.21578 0.50356 0.0
C1561 C 0.87619 0.2079 0.53392 0.0
C1562 C 0.87715 0.18843 0.53831 0.0
C1563 C 0.86768 0.17667 0.51267 0.0
C1564 C 0.85719 0.18437 0.48265 0.0
C1565 C 0.85621 0.20384 0.4781 0.0
H1566 H 0.86844 0.1616 0.51613 0.0
H1567 H 0.85748 0.35086 0.47889 0.0
H1568 H 0.70197 0.25219 0.45752 0.0
H1569 H 0.69395 0.2188 0.45891 0.0
H1570 H 0.72949 0.21116 0.55797 0.0
H1571 H 0.73761 0.24446 0.55688 0.0
H1572 H 0.73602 0.18497 0.50107 0.0
H1573 H 0.68317 0.2111 0.56878 0.0
H1574 H 0.65609 0.23225 0.57737 0.0
H1575 H 0.62962 0.20855 0.47771 0.0
H1576 H 0.65669 0.18743 0.4682 0.0
H1577 H 0.71058 0.09431 0.56033 0.0
H1578 H 0.71563 0.12811 0.55738 0.0
H1579 H 0.67626 0.13221 0.46359 0.0
H1580 H 0.67055 0.09836 0.46734 0.0
H1581 H 0.67116 0.16033 0.51427 0.0
H1582 H 0.72309 0.13381 0.44671 0.0
H1583 H 0.75015 0.11283 0.43642 0.0
H1584 H 0.77845 0.13746 0.53298 0.0
H1585 H 0.75142 0.15841 0.54422 0.0
C1586 C 0.70801 0.24343 0.47975 0.0
C1587 C 0.72048 0.25099 0.50703 0.0
C1588 C 0.70335 0.22437 0.48056 0.0
C1589 C 0.7111 0.21254 0.5086 0.0
C1590 C 0.72339 0.22007 0.53606 0.0
C1591 C 0.72795 0.23912 0.53546 0.0
C1592 C 0.7069 0.19217 0.50868 0.0
C1593 C 0.72187 0.17956 0.50444 0.0
C1594 C 0.68836 0.18519 0.51179 0.0
C1595 C 0.67205 0.19782 0.51754 0.0
C1596 C 0.67165 0.21051 0.5485 0.0
C1597 C 0.65629 0.22247 0.55357 0.0
C1598 C 0.64117 0.22178 0.52804 0.0
C1599 C 0.64136 0.20909 0.49743 0.0
C1600 C 0.6567 0.19711 0.4922 0.0
C1601 C 0.70278 0.1024 0.53938 0.0
C1602 C 0.69015 0.0936 0.51407 0.0
C1603 C 0.70585 0.12171 0.53746 0.0
C1604 C 0.69652 0.13265 0.50991 0.0
C1605 C 0.68367 0.12401 0.48496 0.0
C1606 C 0.68055 0.10465 0.48692 0.0
C1607 C 0.70034 0.15309 0.5072 0.0
C1608 C 0.68531 0.16572 0.51079 0.0
C1609 C 0.71883 0.16012 0.50321 0.0
C1610 C 0.73515 0.14757 0.49651 0.0
C1611 C 0.73502 0.13465 0.46594 0.0
C1612 C 0.75036 0.12278 0.45991 0.0
C1613 C 0.76599 0.12378 0.48409 0.0
C1614 C 0.76632 0.13669 0.51431 0.0
C1615 C 0.751 0.14858 0.5205 0.0
H1616 H 0.77786 0.11458 0.47936 0.0
H1617 H 0.62929 0.23105 0.53202 0.0
H1618 H 0.28508 0.24232 0.95219 0.0
H1619 H 0.31714 0.25437 0.95481 0.0
H1620 H 0.3298 0.21626 0.04761 0.0
H1621 H 0.2975 0.20466 0.04609 0.0
H1622 H 0.3437 0.24819 0.06412 0.0
H1623 H 0.34643 0.20909 0.95417 0.0
H1624 H 0.33671 0.1961 0.89159 0.0
H1625 H 0.34535 0.2498 0.83861 0.0
H1626 H 0.35489 0.26319 0.901 0.0
H1627 H 0.44508 0.26336 0.98174 0.0
H1628 H 0.41435 0.24816 0.97846 0.0
H1629 H 0.38988 0.29447 0.04093 0.0
H1630 H 0.42084 0.30928 0.04563 0.0
H1631 H 0.38308 0.25555 0.94757 0.0
H1632 H 0.35377 0.28054 0.09525 0.0
H1633 H 0.36564 0.28842 0.15986 0.0
H1634 H 0.41409 0.25376 0.14101 0.0
H1635 H 0.40239 0.24547 0.07654 0.0
C1636 C 0.29472 0.23643 0.97301 0.0
C1637 C 0.28877 0.22256 0.99897 0.0
C1638 C 0.31308 0.24328 0.97437 0.0
C1639 C 0.32598 0.23608 0.0011 0.0
C1640 C 0.3201 0.22208 0.0268 0.0
C1641 C 0.30165 0.21543 0.02585 0.0
C1642 C 0.34542 0.24358 0.00304 0.0
C1643 C 0.35232 0.24975 0.03863 0.0
C1644 C 0.35691 0.24516 0.97001 0.0
C1645 C 0.35123 0.23718 0.93235 0.0
C1646 C 0.34614 0.21817 0.92923 0.0
C1647 C 0.34068 0.21072 0.89378 0.0
C1648 C 0.34038 0.22213 0.86116 0.0
C1649 C 0.34558 0.24099 0.86391 0.0
C1650 C 0.35103 0.24851 0.8993 0.0
C1651 C 0.4331 0.27028 0.99467 0.0
C1652 C 0.43527 0.28742 0.01409 0.0
C1653 C 0.41555 0.26161 0.99275 0.0
C1654 C 0.3998 0.27001 0.00988 0.0
C1655 C 0.40188 0.28745 0.02832 0.0
C1656 C 0.41952 0.29596 0.03087 0.0
C1657 C 0.38125 0.26045 0.00858 0.0
C1658 C 0.37449 0.25393 0.97308 0.0
C1659 C 0.37023 0.25778 0.04199 0.0
C1660 C 0.37728 0.26255 0.08091 0.0
C1661 C 0.36692 0.27455 0.10496 0.0
C1662 C 0.37362 0.2791 0.14155 0.0
C1663 C 0.39064 0.27165 0.15448 0.0
C1664 C 0.40095 0.25958 0.13091 0.0
C1665 C 0.3943 0.25497 0.09433 0.0
H1666 H 0.39581 0.2752 0.1828 0.0
H1667 H 0.33615 0.21634 0.83375 0.0
H1668 H 0.29825 0.75628 0.44545 0.0
H1669 H 0.30722 0.78948 0.44568 0.0
H1670 H 0.2737 0.7985 0.54718 0.0
H1671 H 0.26473 0.76544 0.54733 0.0
H1672 H 0.26725 0.82495 0.49031 0.0
H1673 H 0.31974 0.79689 0.5556 0.0
H1674 H 0.34601 0.77466 0.56309 0.0
H1675 H 0.37232 0.79707 0.46206 0.0
H1676 H 0.34604 0.81926 0.45364 0.0
H1677 H 0.29604 0.91657 0.53713 0.0
H1678 H 0.29046 0.88283 0.54106 0.0
H1679 H 0.32896 0.87368 0.44724 0.0
H1680 H 0.33532 0.90734 0.44434 0.0
H1681 H 0.33318 0.84703 0.49966 0.0
H1682 H 0.28122 0.87447 0.43282 0.0
H1683 H 0.25487 0.8964 0.42295 0.0
H1684 H 0.22744 0.87482 0.5235 0.0
H1685 H 0.25377 0.85293 0.53428 0.0
C1686 C 0.29283 0.76532 0.46787 0.0
C1687 C 0.28075 0.7582 0.49633 0.0
C1688 C 0.29802 0.78426 0.46804 0.0
C1689 C 0.29117 0.79641 0.49655 0.0
C1690 C 0.27913 0.78935 0.52493 0.0
C1691 C 0.27408 0.77042 0.52501 0.0
C1692 C 0.29615 0.81661 0.49639 0.0
C1693 C 0.28164 0.82981 0.49287 0.0
C1694 C 0.31497 0.82287 0.49866 0.0
C1695 C 0.33082 0.8096 0.50376 0.0
C1696 C 0.33104 0.79697 0.53479 0.0
C1697 C 0.34595 0.7844 0.53924 0.0
C1698 C 0.3608 0.78442 0.51301 0.0
C1699 C 0.36079 0.79705 0.48232 0.0
C1700 C 0.3459 0.80964 0.47771 0.0
C1701 C 0.30361 0.90738 0.5178 0.0
C1702 C 0.31602 0.91472 0.49018 0.0
C1703 C 0.30024 0.88808 0.5198 0.0
C1704 C 0.309 0.87574 0.49393 0.0
C1705 C 0.32192 0.88293 0.46731 0.0
C1706 C 0.3254 0.90221 0.46545 0.0
C1707 C 0.30425 0.85543 0.49382 0.0
C1708 C 0.31879 0.8422 0.49716 0.0
C1709 C 0.28544 0.8491 0.49104 0.0
C1710 C 0.26956 0.8622 0.48457 0.0
C1711 C 0.26963 0.8745 0.45299 0.0
C1712 C 0.25469 0.88691 0.44721 0.0
C1713 C 0.23952 0.88704 0.47264 0.0
C1714 C 0.23922 0.87472 0.50386 0.0
C1715 C 0.25414 0.86231 0.5098 0.0
H1716 H 0.22796 0.89665 0.46811 0.0
H1717 H 0.37233 0.77467 0.5165 0.0
H1718 H 0.71374 0.77099 0.05237 0.0
H1719 H 0.68221 0.75774 0.04893 0.0
H1720 H 0.67282 0.78609 0.94124 0.0
H1721 H 0.70451 0.79946 0.94427 0.0
H1722 H 0.64235 0.78847 0.9936 0.0
H1723 H 0.68304 0.74184 0.93822 0.0
H1724 H 0.71058 0.72089 0.93693 0.0
H1725 H 0.69043 0.69246 0.03751 0.0
H1726 H 0.6629 0.71347 0.03979 0.0
H1727 H 0.56181 0.73835 0.93496 0.0
H1728 H 0.59302 0.75236 0.93803 0.0
H1729 H 0.60594 0.71882 0.03772 0.0
H1730 H 0.57495 0.7041 0.03384 0.0
H1731 H 0.63483 0.71925 0.98922 0.0
H1732 H 0.59471 0.76526 0.04624 0.0
H1733 H 0.56746 0.7865 0.0505 0.0
H1734 H 0.58656 0.81623 0.95063 0.0
H1735 H 0.6138 0.79499 0.94544 0.0
C1736 C 0.70498 0.77454 0.028 0.0
C1737 C 0.7117 0.78619 0.99842 0.0
C1738 C 0.68698 0.76689 0.02607 0.0
C1739 C 0.67533 0.77079 0.99463 0.0
C1740 C 0.68169 0.78289 0.96565 0.0
C1741 C 0.69979 0.79045 0.96739 0.0
C1742 C 0.65663 0.76188 0.99181 0.0
C1743 C 0.64066 0.77335 0.99206 0.0
C1744 C 0.65455 0.74214 0.99094 0.0
C1745 C 0.67099 0.72936 0.98939 0.0
C1746 C 0.68455 0.73123 0.96025 0.0
C1747 C 0.70015 0.71933 0.95931 0.0
C1748 C 0.70228 0.70539 0.98718 0.0
C1749 C 0.68878 0.70329 0.01598 0.0
C1750 C 0.67317 0.71518 0.01709 0.0
C1751 C 0.57136 0.73375 0.95726 0.0
C1752 C 0.56588 0.72008 0.98416 0.0
C1753 C 0.58913 0.74195 0.95924 0.0
C1754 C 0.60171 0.73683 0.98843 0.0
C1755 C 0.5964 0.72303 0.01506 0.0
C1756 C 0.57864 0.71475 0.013 0.0
C1757 C 0.62043 0.74584 0.99098 0.0
C1758 C 0.63645 0.73437 0.9907 0.0
C1759 C 0.62256 0.76559 0.99218 0.0
C1760 C 0.6062 0.77841 0.99523 0.0
C1761 C 0.59302 0.77623 0.02499 0.0
C1762 C 0.57759 0.78829 0.02761 0.0
C1763 C 0.57525 0.80267 0.00079 0.0
C1764 C 0.58837 0.80506 0.97135 0.0
C1765 C 0.60382 0.79303 0.96857 0.0
H1766 H 0.5633 0.812 0.00287 0.0
H1767 H 0.71437 0.69619 0.98641 0.0
loop_
_geom_bond_atom_site_label_1
_geom_bond_atom_site_label_2
_geom_bond_distance
_geom_bond_site_symmetry_2
_ccdc_geom_bond_type
Fe0 O2 1.918 . S
Fe0 O5 1.997 . S
Fe0 O6 2.002 . S
Fe0 O11 1.976 . S
Fe0 O14 1.996 . S
Fe1 O2 1.918 1_556 S
Fe1 O9 1.997 . S
Fe1 O12 1.996 . S
Fe1 O16 1.976 . S
Fe1 O19 2.002 . S
O2 Fe0 1.918 . S
O2 Fe1 1.918 1_554 S
O2 Fe3 1.918 1_554 S
Fe3 O2 1.918 1_556 S
Fe3 O4 1.998 1_556 S
Fe3 O13 1.972 1_556 S
Fe3 O17 2.000 . S
Fe3 O20 2.001 . S
O4 Fe3 1.998 1_554 S
O4 C21 1.295 . S
O5 Fe0 1.997 . S
O5 C21 1.235 . S
O6 Fe0 2.002 . S
O6 C7 1.295 . S
C7 O6 1.295 . S
C7 O9 1.235 1_554 S
C8 O13 1.287 . S
C8 O14 1.255 . S
O9 Fe1 1.997 . S
O9 C7 1.235 1_556 S
C10 O16 1.287 . S
C10 O17 1.255 . S
O11 Fe0 1.976 . S
O11 C18 1.287 1_554 S
O12 Fe1 1.996 . S
O12 C18 1.255 . S
O13 Fe3 1.972 1_554 S
O13 C8 1.287 . S
O14 Fe0 1.996 . S
O14 C8 1.255 . S
C15 O19 1.295 . S
C15 O20 1.235 . S
O16 Fe1 1.976 . S
O16 C10 1.287 . S
O17 Fe3 2.000 . S
O17 C10 1.255 . S
C18 O11 1.287 1_556 S
C18 O12 1.255 . S
O19 Fe1 2.002 . S
O19 C15 1.295 . S
O20 Fe3 2.001 . S
O20 C15 1.235 . S
C21 O4 1.295 . S
C21 O5 1.235 . S
Fe22 O24 1.918 . S
Fe22 O27 1.997 . S
Fe22 O28 2.002 . S
Fe22 O33 1.976 . S
Fe22 O36 1.996 . S
Fe23 O24 1.918 . S
Fe23 O31 1.997 . S
Fe23 O34 1.996 . S
Fe23 O38 1.976 . S
Fe23 O41 2.002 . S
O24 Fe22 1.918 . S
O24 Fe23 1.918 . S
O24 Fe25 1.918 . S
Fe25 O24 1.918 . S
Fe25 O26 2.002 . S
Fe25 O35 1.976 . S
Fe25 O39 1.996 . S
Fe25 O42 1.997 . S
O26 Fe25 2.002 . S
O26 C43 1.295 . S
O27 Fe22 1.997 . S
O27 C43 1.235 . S
O28 Fe22 2.002 . S
O28 C29 1.295 . S
C29 O28 1.295 . S
C29 O31 1.235 . S
C30 O35 1.287 . S
C30 O36 1.255 . S
O31 Fe23 1.997 . S
O31 C29 1.235 . S
C32 O38 1.287 . S
C32 O39 1.255 . S
O33 Fe22 1.976 . S
O33 C40 1.287 . S
O34 Fe23 1.996 . S
O34 C40 1.255 . S
O35 Fe25 1.976 . S
O35 C30 1.287 . S
O36 Fe22 1.996 . S
O36 C30 1.255 . S
C37 O41 1.295 . S
C37 O42 1.235 . S
O38 Fe23 1.976 . S
O38 C32 1.287 . S
O39 Fe25 1.996 . S
O39 C32 1.255 . S
C40 O33 1.287 . S
C40 O34 1.255 . S
O41 Fe23 2.002 . S
O41 C37 1.295 . S
O42 Fe25 1.997 . S
O42 C37 1.235 . S
C43 O26 1.295 . S
C43 O27 1.235 . S
Fe44 O46 1.918 1_556 S
Fe44 O49 1.997 . S
Fe44 O50 2.002 . S
Fe44 O55 1.976 . S
Fe44 O58 1.996 . S
Fe45 O46 1.918 . S
Fe45 O53 1.997 . S
Fe45 O56 1.996 . S
Fe45 O60 1.976 . S
Fe45 O63 2.002 . S
O46 Fe44 1.918 1_554 S
O46 Fe45 1.918 . S
O46 Fe47 1.918 . S
Fe47 O46 1.918 . S
Fe47 O48 1.994 1_554 S
Fe47 O57 1.967 1_554 S
Fe47 O61 2.005 . S
Fe47 O64 2.006 . S
O48 Fe47 1.994 1_556 S
O48 C65 1.295 . S
O49 Fe44 1.997 . S
O49 C65 1.235 . S
O50 Fe44 2.002 . S
O50 C51 1.320 . S
C51 O50 1.320 . S
C51 O53 1.211 1_556 S
C52 O57 1.287 . S
C52 O58 1.255 . S
O53 Fe45 1.997 . S
O53 C51 1.211 1_554 S
C54 O60 1.287 . S
C54 O61 1.255 . S
O55 Fe44 1.976 . S
O55 C62 1.287 1_556 S
O56 Fe45 1.996 . S
O56 C62 1.255 . S
O57 Fe47 1.967 1_556 S
O57 C52 1.287 . S
O58 Fe44 1.996 . S
O58 C52 1.255 . S
C59 O63 1.295 . S
C59 O64 1.235 . S
O60 Fe45 1.976 . S
O60 C54 1.287 . S
O61 Fe47 2.005 . S
O61 C54 1.255 . S
C62 O55 1.287 1_554 S
C62 O56 1.255 . S
O63 Fe45 2.002 . S
O63 C59 1.295 . S
O64 Fe47 2.006 . S
O64 C59 1.235 . S
C65 O48 1.295 . S
C65 O49 1.235 . S
Fe66 O68 1.918 . S
Fe66 O71 1.997 . S
Fe66 O72 2.002 . S
Fe66 O77 1.976 . S
Fe66 O80 1.996 . S
Fe67 O68 1.918 . S
Fe67 O75 1.997 . S
Fe67 O78 1.996 . S
Fe67 O82 1.976 . S
Fe67 O85 2.002 . S
O68 Fe66 1.918 . S
O68 Fe67 1.918 . S
O68 Fe69 1.918 . S
Fe69 O68 1.918 . S
Fe69 O70 2.002 . S
Fe69 O79 1.976 . S
Fe69 O83 1.996 . S
Fe69 O86 1.997 . S
O70 Fe69 2.002 . S
O70 C87 1.295 . S
O71 Fe66 1.997 . S
O71 C87 1.235 . S
O72 Fe66 2.002 . S
O72 C73 1.295 . S
C73 O72 1.295 . S
C73 O75 1.235 . S
C74 O79 1.287 . S
C74 O80 1.255 . S
O75 Fe67 1.997 . S
O75 C73 1.235 . S
C76 O82 1.287 . S
C76 O83 1.255 . S
O77 Fe66 1.976 . S
O77 C84 1.287 . S
O78 Fe67 1.996 . S
O78 C84 1.255 . S
O79 Fe69 1.976 . S
O79 C74 1.287 . S
O80 Fe66 1.996 . S
O80 C74 1.255 . S
C81 O85 1.295 . S
C81 O86 1.235 . S
O82 Fe67 1.976 . S
O82 C76 1.287 . S
O83 Fe69 1.996 . S
O83 C76 1.255 . S
C84 O77 1.287 . S
C84 O78 1.255 . S
O85 Fe67 2.002 . S
O85 C81 1.295 . S
O86 Fe69 1.997 . S
O86 C81 1.235 . S
C87 O70 1.295 . S
C87 O71 1.235 . S
C88 C89 1.391 . S
C88 C92 1.391 . S
C88 H130 0.948 . S
C89 C88 1.391 . S
C89 C90 1.391 . S
C90 C89 1.391 . S
C90 H146 0.947 . S
C90 C147 1.392 . S
C91 C92 1.391 . S
C91 C95 1.397 . S
C91 C147 1.419 . S
C92 C88 1.391 . S
C92 C91 1.391 . S
C92 C93 1.399 . S
C93 C92 1.399 . S
C93 C96 1.396 . S
C93 C105 1.453 . S
C93 C106 1.684 . S
H94 C118 0.948 . S
C95 C91 1.397 . S
C95 C96 1.394 . S
C95 C114 1.723 1_556 S
C96 C93 1.396 . S
C96 C95 1.394 . S
C96 C126 1.723 . S
H97 C120 0.947 . S
H98 C121 0.948 . S
H99 C127 0.982 . S
H100 C128 0.979 . S
H101 C128 0.980 . S
H102 C128 0.983 . S
H103 C127 0.979 . S
H104 C127 0.977 . S
C105 C93 1.453 . S
C105 H134 0.982 . S
C105 H135 0.979 . S
C105 H136 0.977 . S
C106 C93 1.684 . S
C106 H131 0.979 . S
C106 H132 0.980 . S
C106 H133 0.983 . S
C107 C108 1.391 . S
C107 C112 1.391 . S
C107 H137 0.948 . S
C108 C107 1.391 . S
C108 C109 1.391 . S
C109 C108 1.391 . S
C109 C110 1.392 . S
C109 H138 0.947 . S
C110 C109 1.392 . S
C110 C111 1.419 . S
C110 H139 0.948 . S
C111 C110 1.419 . S
C111 C112 1.391 . S
C111 C115 1.397 . S
C112 C107 1.391 . S
C112 C111 1.391 . S
C112 C113 1.399 . S
C113 C112 1.399 . S
C113 C114 1.396 . S
C113 C116 1.453 . S
C113 C117 1.684 . S
C114 C95 1.723 1_554 S
C114 C113 1.396 . S
C114 C115 1.394 . S
C115 C111 1.397 . S
C115 C114 1.394 . S
C115 C125 1.723 . S
C116 C113 1.453 . S
C116 H140 0.982 . S
C116 H141 0.979 . S
C116 H142 0.977 1_554 S
C117 C113 1.684 . S
C117 H143 0.979 . S
C117 H144 0.980 1_554 S
C117 H145 0.983 . S
C118 H94 0.948 . S
C118 C119 1.391 1_554 S
C118 C123 1.391 . S
C119 C118 1.391 1_556 S
C119 C120 1.391 . S
C120 H97 0.947 . S
C120 C119 1.391 . S
C120 C121 1.392 . S
C121 H98 0.948 . S
C121 C120 1.392 . S
C121 C122 1.419 . S
C122 C121 1.419 . S
C122 C123 1.391 1_556 S
C122 C126 1.397 . S
C123 C118 1.391 . S
C123 C122 1.391 1_554 S
C123 C124 1.399 . S
C124 C123 1.399 . S
C124 C125 1.396 . S
C124 C127 1.453 . S
C124 C128 1.684 . S
C125 C115 1.723 . S
C125 C124 1.396 . S
C125 C126 1.394 1_554 S
C126 C96 1.723 . S
C126 C122 1.397 . S
C126 C125 1.394 1_556 S
C127 H99 0.982 . S
C127 H103 0.979 . S
C127 H104 0.977 . S
C127 C124 1.453 . S
C128 H100 0.979 . S
C128 H101 0.980 . S
C128 H102 0.983 . S
C128 C124 1.684 . S
H129 C147 0.948 . S
H130 C88 0.948 . S
H131 C106 0.979 . S
H132 C106 0.980 . S
H133 C106 0.983 . S
H134 C105 0.982 . S
H135 C105 0.979 . S
H136 C105 0.977 . S
H137 C107 0.948 . S
H138 C109 0.947 . S
H139 C110 0.948 . S
H140 C116 0.982 . S
H141 C116 0.979 . S
H142 C116 0.977 1_556 S
H143 C117 0.979 . S
H144 C117 0.980 1_556 S
H145 C117 0.983 . S
H146 C90 0.947 . S
C147 C90 1.392 . S
C147 C91 1.419 . S
C147 H129 0.948 . S
C148 C149 1.391 . S
C148 C152 1.391 . S
C148 H190 0.948 . S
C149 C148 1.391 . S
C149 C150 1.391 . S
C150 C149 1.391 . S
C150 H206 0.947 . S
C150 C207 1.392 . S
C151 C152 1.391 . S
C151 C155 1.397 . S
C151 C207 1.419 . S
C152 C148 1.391 . S
C152 C151 1.391 . S
C152 C153 1.399 . S
C153 C152 1.399 . S
C153 C156 1.396 1_455 S
C153 C165 1.453 . S
C153 C166 1.684 . S
H154 C178 0.948 . S
C155 C151 1.397 . S
C155 C156 1.394 1_455 S
C155 C174 1.723 1_455 S
C156 C153 1.396 1_655 S
C156 C155 1.394 1_655 S
C156 C186 1.723 . S
H157 C180 0.947 . S
H158 C181 0.948 . S
H159 C187 0.982 . S
H160 C188 0.979 . S
H161 C188 0.980 . S
H162 C188 0.983 . S
H163 C187 0.979 . S
H164 C187 0.977 . S
C165 C153 1.453 . S
C165 H194 0.982 . S
C165 H195 0.979 . S
C165 H196 0.977 . S
C166 C153 1.684 . S
C166 H191 0.979 . S
C166 H192 0.980 . S
C166 H193 0.983 . S
C167 C168 1.391 . S
C167 C172 1.391 . S
C167 H197 0.948 . S
C168 C167 1.391 . S
C168 C169 1.391 . S
C169 C168 1.391 . S
C169 C170 1.392 . S
C169 H198 0.947 . S
C170 C169 1.392 . S
C170 C171 1.419 . S
C170 H199 0.948 . S
C171 C170 1.419 . S
C171 C172 1.391 . S
C171 C175 1.397 . S
C172 C167 1.391 . S
C172 C171 1.391 . S
C172 C173 1.399 . S
C173 C172 1.399 . S
C173 C174 1.396 . S
C173 C176 1.449 1_655 S
C173 C177 1.684 . S
C174 C155 1.723 1_655 S
C174 C173 1.396 . S
C174 C175 1.394 . S
C175 C171 1.397 . S
C175 C174 1.394 . S
C175 C185 1.723 . S
C176 C173 1.449 1_455 S
C176 H200 0.981 1_455 S
C176 H201 0.979 . S
C176 H202 0.981 . S
C177 C173 1.684 . S
C177 H203 0.979 . S
C177 H204 0.980 1_655 S
C177 H205 0.983 . S
C178 H154 0.948 . S
C178 C179 1.391 . S
C178 C183 1.391 . S
C179 C178 1.391 . S
C179 C180 1.391 . S
C180 H157 0.947 . S
C180 C179 1.391 . S
C180 C181 1.392 . S
C181 H158 0.948 . S
C181 C180 1.392 . S
C181 C182 1.419 . S
C182 C181 1.419 . S
C182 C183 1.391 . S
C182 C186 1.397 . S
C183 C178 1.391 . S
C183 C182 1.391 . S
C183 C184 1.399 . S
C184 C183 1.399 . S
C184 C185 1.396 . S
C184 C187 1.453 . S
C184 C188 1.684 . S
C185 C175 1.723 . S
C185 C184 1.396 . S
C185 C186 1.394 . S
C186 C156 1.723 . S
C186 C182 1.397 . S
C186 C185 1.394 . S
C187 H159 0.982 . S
C187 H163 0.979 . S
C187 H164 0.977 . S
C187 C184 1.453 . S
C188 H160 0.979 . S
C188 H161 0.980 . S
C188 H162 0.983 . S
C188 C184 1.684 . S
H189 C207 0.948 . S
H190 C148 0.948 . S
H191 C166 0.979 . S
H192 C166 0.980 . S
H193 C166 0.983 . S
H194 C165 0.982 . S
H195 C165 0.979 . S
H196 C165 0.977 . S
H197 C167 0.948 . S
H198 C169 0.947 . S
H199 C170 0.948 . S
H200 C176 0.981 1_655 S
H201 C176 0.979 . S
H202 C176 0.981 . S
H203 C177 0.979 . S
H204 C177 0.980 1_455 S
H205 C177 0.983 . S
H206 C150 0.947 . S
C207 C150 1.392 . S
C207 C151 1.419 . S
C207 H189 0.948 . S
C208 C209 1.391 . S
C208 C212 1.391 . S
C208 H250 0.948 . S
C209 C208 1.391 . S
C209 C210 1.391 . S
C210 C209 1.391 . S
C210 H266 0.947 . S
C210 C267 1.392 . S
C211 C212 1.391 . S
C211 C215 1.397 . S
C211 C267 1.419 . S
C212 C208 1.391 . S
C212 C211 1.391 . S
C212 C213 1.399 . S
C213 C212 1.399 . S
C213 C216 1.396 . S
C213 C225 1.453 . S
C213 C226 1.684 . S
H214 C238 0.948 . S
C215 C211 1.397 . S
C215 C216 1.394 . S
C215 C234 1.723 1_554 S
C216 C213 1.396 . S
C216 C215 1.394 . S
C216 C246 1.723 . S
H217 C240 0.947 . S
H218 C241 0.948 . S
H219 C247 0.982 . S
H220 C248 0.979 . S
H221 C248 0.980 . S
H222 C248 0.983 . S
H223 C247 0.979 . S
H224 C247 0.977 . S
C225 C213 1.453 . S
C225 H254 0.982 . S
C225 H255 0.979 . S
C225 H256 0.977 . S
C226 C213 1.684 . S
C226 H251 0.979 . S
C226 H252 0.980 . S
C226 H253 0.983 . S
C227 C228 1.391 . S
C227 C232 1.391 . S
C227 H257 0.948 . S
C228 C227 1.391 . S
C228 C229 1.391 . S
C229 C228 1.391 . S
C229 C230 1.392 . S
C229 H258 0.947 . S
C230 C229 1.392 . S
C230 C231 1.419 . S
C230 H259 0.948 . S
C231 C230 1.419 . S
C231 C232 1.391 . S
C231 C235 1.397 . S
C232 C227 1.391 . S
C232 C231 1.391 . S
C232 C233 1.399 . S
C233 C232 1.399 . S
C233 C234 1.396 . S
C233 C236 1.453 . S
C233 C237 1.684 . S
C234 C215 1.723 1_556 S
C234 C233 1.396 . S
C234 C235 1.394 . S
C235 C231 1.397 . S
C235 C234 1.394 . S
C235 C245 1.723 . S
C236 C233 1.453 . S
C236 H260 0.982 . S
C236 H261 0.979 . S
C236 H262 0.977 1_556 S
C237 C233 1.684 . S
C237 H263 0.979 . S
C237 H264 0.980 1_556 S
C237 H265 0.983 . S
C238 H214 0.948 . S
C238 C239 1.391 1_556 S
C238 C243 1.391 . S
C239 C238 1.391 1_554 S
C239 C240 1.391 . S
C240 H217 0.947 . S
C240 C239 1.391 . S
C240 C241 1.392 . S
C241 H218 0.948 . S
C241 C240 1.392 . S
C241 C242 1.419 . S
C242 C241 1.419 . S
C242 C243 1.391 1_554 S
C242 C246 1.397 . S
C243 C238 1.391 . S
C243 C242 1.391 1_556 S
C243 C244 1.399 . S
C244 C243 1.399 . S
C244 C245 1.396 . S
C244 C247 1.453 . S
C244 C248 1.684 . S
C245 C235 1.723 . S
C245 C244 1.396 . S
C245 C246 1.394 1_556 S
C246 C216 1.723 . S
C246 C242 1.397 . S
C246 C245 1.394 1_554 S
C247 H219 0.982 . S
C247 H223 0.979 . S
C247 H224 0.977 . S
C247 C244 1.453 . S
C248 H220 0.979 . S
C248 H221 0.980 . S
C248 H222 0.983 . S
C248 C244 1.684 . S
H249 C267 0.948 . S
H250 C208 0.948 . S
H251 C226 0.979 . S
H252 C226 0.980 . S
H253 C226 0.983 . S
H254 C225 0.982 . S
H255 C225 0.979 . S
H256 C225 0.977 . S
H257 C227 0.948 . S
H258 C229 0.947 . S
H259 C230 0.948 . S
H260 C236 0.982 . S
H261 C236 0.979 . S
H262 C236 0.977 1_554 S
H263 C237 0.979 . S
H264 C237 0.980 1_554 S
H265 C237 0.983 . S
H266 C210 0.947 . S
C267 C210 1.392 . S
C267 C211 1.419 . S
C267 H249 0.948 . S
C268 C269 1.391 . S
C268 C272 1.391 . S
C268 H310 0.948 . S
C269 C268 1.391 . S
C269 C270 1.391 . S
C270 C269 1.391 . S
C270 H326 0.947 . S
C270 C327 1.392 . S
C271 C272 1.391 . S
C271 C275 1.397 . S
C271 C327 1.419 . S
C272 C268 1.391 . S
C272 C271 1.391 . S
C272 C273 1.399 . S
C273 C272 1.399 . S
C273 C276 1.396 . S
C273 C285 1.453 . S
C273 C286 1.684 . S
H274 C298 0.948 . S
C275 C271 1.397 . S
C275 C276 1.394 . S
C275 C294 1.723 . S
C276 C273 1.396 . S
C276 C275 1.394 . S
C276 C306 1.723 . S
H277 C300 0.947 . S
H278 C301 0.948 . S
H279 C307 0.982 . S
H280 C308 0.979 . S
H281 C308 0.982 . S
H282 C308 0.983 . S
H283 C307 0.979 . S
H284 C307 0.977 . S
C285 C273 1.453 . S
C285 H314 0.982 . S
C285 H315 0.979 . S
C285 H316 0.977 1_455 S
C286 C273 1.684 . S
C286 H311 0.979 . S
C286 H312 0.980 1_455 S
C286 H313 0.983 . S
C287 C288 1.391 . S
C287 C292 1.391 . S
C287 H317 0.948 . S
C288 C287 1.391 . S
C288 C289 1.391 . S
C289 C288 1.391 . S
C289 C290 1.392 . S
C289 H318 0.947 . S
C290 C289 1.392 . S
C290 C291 1.419 . S
C290 H319 0.948 . S
C291 C290 1.419 . S
C291 C292 1.391 . S
C291 C295 1.397 . S
C292 C287 1.391 . S
C292 C291 1.391 . S
C292 C293 1.399 . S
C293 C292 1.399 . S
C293 C294 1.396 . S
C293 C296 1.453 . S
C293 C297 1.684 . S
C294 C275 1.723 . S
C294 C293 1.396 . S
C294 C295 1.394 . S
C295 C291 1.397 . S
C295 C294 1.394 . S
C295 C305 1.723 . S
C296 C293 1.453 . S
C296 H320 0.982 . S
C296 H321 0.979 . S
C296 H322 0.977 . S
C297 C293 1.684 . S
C297 H323 0.979 . S
C297 H324 0.980 . S
C297 H325 0.983 . S
C298 H274 0.948 . S
C298 C299 1.391 . S
C298 C303 1.391 . S
C299 C298 1.391 . S
C299 C300 1.391 . S
C300 H277 0.947 . S
C300 C299 1.391 . S
C300 C301 1.392 . S
C301 H278 0.948 . S
C301 C300 1.392 . S
C301 C302 1.419 . S
C302 C301 1.419 . S
C302 C303 1.391 . S
C302 C306 1.397 1_655 S
C303 C298 1.391 . S
C303 C302 1.391 . S
C303 C304 1.399 . S
C304 C303 1.399 . S
C304 C305 1.396 1_655 S
C304 C307 1.453 . S
C304 C308 1.684 . S
C305 C295 1.723 . S
C305 C304 1.396 1_455 S
C305 C306 1.394 . S
C306 C276 1.723 . S
C306 C302 1.397 1_455 S
C306 C305 1.394 . S
C307 H279 0.982 . S
C307 H283 0.979 . S
C307 H284 0.977 . S
C307 C304 1.453 . S
C308 H280 0.979 . S
C308 H281 0.982 . S
C308 H282 0.983 . S
C308 C304 1.684 . S
H309 C327 0.948 . S
H310 C268 0.948 . S
H311 C286 0.979 . S
H312 C286 0.980 1_655 S
H313 C286 0.983 . S
H314 C285 0.982 . S
H315 C285 0.979 . S
H316 C285 0.977 1_655 S
H317 C287 0.948 . S
H318 C289 0.947 . S
H319 C290 0.948 . S
H320 C296 0.982 . S
H321 C296 0.979 . S
H322 C296 0.977 . S
H323 C297 0.979 . S
H324 C297 0.980 . S
H325 C297 0.983 . S
H326 C270 0.947 . S
C327 C270 1.392 . S
C327 C271 1.419 . S
C327 H309 0.948 . S
C328 C329 1.391 . S
C328 C332 1.391 . S
C328 H370 0.948 . S
C329 C328 1.391 . S
C329 C330 1.391 . S
C330 C329 1.391 . S
C330 H386 0.947 . S
C330 C387 1.392 . S
C331 C332 1.391 . S
C331 C335 1.397 . S
C331 C387 1.419 . S
C332 C328 1.391 . S
C332 C331 1.391 . S
C332 C333 1.399 . S
C333 C332 1.399 . S
C333 C336 1.396 . S
C333 C345 1.453 1_565 S
C333 C346 1.684 1_565 S
H334 C358 0.948 . S
C335 C331 1.397 . S
C335 C336 1.394 . S
C335 C354 1.723 . S
C336 C333 1.396 . S
C336 C335 1.394 . S
C336 C366 1.723 1_565 S
H337 C360 0.947 . S
H338 C361 0.948 . S
H339 C367 0.982 . S
H340 C368 0.979 . S
H341 C368 0.980 . S
H342 C368 0.983 . S
H343 C367 0.979 . S
H344 C367 0.977 . S
C345 C333 1.453 1_545 S
C345 H374 0.982 . S
C345 H375 0.979 . S
C345 H376 0.977 . S
C346 C333 1.684 1_545 S
C346 H371 0.979 . S
C346 H372 0.980 . S
C346 H373 0.983 . S
C347 C348 1.391 . S
C347 C352 1.391 . S
C347 H377 0.948 . S
C348 C347 1.391 . S
C348 C349 1.391 . S
C349 C348 1.391 . S
C349 C350 1.392 . S
C349 H378 0.947 . S
C350 C349 1.392 . S
C350 C351 1.419 . S
C350 H379 0.948 . S
C351 C350 1.419 . S
C351 C352 1.391 . S
C351 C355 1.397 . S
C352 C347 1.391 . S
C352 C351 1.391 . S
C352 C353 1.399 . S
C353 C352 1.399 . S
C353 C354 1.396 . S
C353 C356 1.453 . S
C353 C357 1.684 . S
C354 C335 1.723 . S
C354 C353 1.396 . S
C354 C355 1.394 . S
C355 C351 1.397 . S
C355 C354 1.394 . S
C355 C365 1.723 1_565 S
C356 C353 1.453 . S
C356 H380 0.982 . S
C356 H381 0.979 . S
C356 H382 0.977 . S
C357 C353 1.684 . S
C357 H383 0.979 . S
C357 H384 0.980 . S
C357 H385 0.983 . S
C358 H334 0.948 . S
C358 C359 1.391 . S
C358 C363 1.391 . S
C359 C358 1.391 . S
C359 C360 1.391 . S
C360 H337 0.947 . S
C360 C359 1.391 . S
C360 C361 1.392 . S
C361 H338 0.948 . S
C361 C360 1.392 . S
C361 C362 1.419 . S
C362 C361 1.419 . S
C362 C363 1.391 . S
C362 C366 1.397 . S
C363 C358 1.391 . S
C363 C362 1.391 . S
C363 C364 1.399 . S
C364 C363 1.399 . S
C364 C365 1.396 . S
C364 C367 1.453 . S
C364 C368 1.684 . S
C365 C355 1.723 1_545 S
C365 C364 1.396 . S
C365 C366 1.394 . S
C366 C336 1.723 1_545 S
C366 C362 1.397 . S
C366 C365 1.394 . S
C367 H339 0.982 . S
C367 H343 0.979 . S
C367 H344 0.977 . S
C367 C364 1.453 . S
C368 H340 0.979 . S
C368 H341 0.980 . S
C368 H342 0.983 . S
C368 C364 1.684 . S
H369 C387 0.948 . S
H370 C328 0.948 . S
H371 C346 0.979 . S
H372 C346 0.980 . S
H373 C346 0.983 . S
H374 C345 0.982 . S
H375 C345 0.979 . S
H376 C345 0.977 . S
H377 C347 0.948 . S
H378 C349 0.947 . S
H379 C350 0.948 . S
H380 C356 0.982 . S
H381 C356 0.979 . S
H382 C356 0.977 . S
H383 C357 0.979 . S
H384 C357 0.980 . S
H385 C357 0.983 . S
H386 C330 0.947 . S
C387 C330 1.392 . S
C387 C331 1.419 . S
C387 H369 0.948 . S
C388 C389 1.391 . S
C388 C392 1.391 . S
C388 H430 0.948 . S
C389 C388 1.391 . S
C389 C390 1.391 . S
C390 C389 1.391 . S
C390 H446 0.947 . S
C390 C447 1.392 . S
C391 C392 1.391 . S
C391 C395 1.397 . S
C391 C447 1.419 . S
C392 C388 1.391 . S
C392 C391 1.391 . S
C392 C393 1.399 . S
C393 C392 1.399 . S
C393 C396 1.396 . S
C393 C405 1.453 . S
C393 C406 1.684 . S
H394 C418 0.948 . S
C395 C391 1.397 . S
C395 C396 1.394 . S
C395 C414 1.723 1_554 S
C396 C393 1.396 . S
C396 C395 1.394 . S
C396 C426 1.723 . S
H397 C420 0.947 . S
H398 C421 0.948 . S
H399 C427 0.982 . S
H400 C428 0.979 . S
H401 C428 0.980 . S
H402 C428 0.983 . S
H403 C427 0.979 . S
H404 C427 0.977 . S
C405 C393 1.453 . S
C405 H434 0.982 . S
C405 H435 0.979 . S
C405 H436 0.977 . S
C406 C393 1.684 . S
C406 H431 0.979 . S
C406 H432 0.980 . S
C406 H433 0.983 . S
C407 C408 1.391 . S
C407 C412 1.391 . S
C407 H437 0.948 . S
C408 C407 1.391 . S
C408 C409 1.391 . S
C409 C408 1.391 . S
C409 C410 1.392 . S
C409 H438 0.947 . S
C410 C409 1.392 . S
C410 C411 1.419 . S
C410 H439 0.948 . S
C411 C410 1.419 . S
C411 C412 1.391 . S
C411 C415 1.397 . S
C412 C407 1.391 . S
C412 C411 1.391 . S
C412 C413 1.399 . S
C413 C412 1.399 . S
C413 C414 1.396 . S
C413 C416 1.453 . S
C413 C417 1.684 . S
C414 C395 1.723 1_556 S
C414 C413 1.396 . S
C414 C415 1.394 . S
C415 C411 1.397 . S
C415 C414 1.394 . S
C415 C425 1.723 . S
C416 C413 1.453 . S
C416 H440 0.982 . S
C416 H441 0.979 . S
C416 H442 0.977 1_556 S
C417 C413 1.684 . S
C417 H443 0.979 . S
C417 H444 0.980 1_556 S
C417 H445 0.983 . S
C418 H394 0.948 . S
C418 C419 1.391 1_556 S
C418 C423 1.391 . S
C419 C418 1.391 1_554 S
C419 C420 1.391 . S
C420 H397 0.947 . S
C420 C419 1.391 . S
C420 C421 1.392 . S
C421 H398 0.948 . S
C421 C420 1.392 . S
C421 C422 1.419 . S
C422 C421 1.419 . S
C422 C423 1.391 1_554 S
C422 C426 1.397 . S
C423 C418 1.391 . S
C423 C422 1.391 1_556 S
C423 C424 1.399 . S
C424 C423 1.399 . S
C424 C425 1.396 . S
C424 C427 1.453 . S
C424 C428 1.684 . S
C425 C415 1.723 . S
C425 C424 1.396 . S
C425 C426 1.394 1_556 S
C426 C396 1.723 . S
C426 C422 1.397 . S
C426 C425 1.394 1_554 S
C427 H399 0.982 . S
C427 H403 0.979 . S
C427 H404 0.977 . S
C427 C424 1.453 . S
C428 H400 0.979 . S
C428 H401 0.980 . S
C428 H402 0.983 . S
C428 C424 1.684 . S
H429 C447 0.948 . S
H430 C388 0.948 . S
H431 C406 0.979 . S
H432 C406 0.980 . S
H433 C406 0.983 . S
H434 C405 0.982 . S
H435 C405 0.979 . S
H436 C405 0.977 . S
H437 C407 0.948 . S
H438 C409 0.947 . S
H439 C410 0.948 . S
H440 C416 0.982 . S
H441 C416 0.979 . S
H442 C416 0.977 1_554 S
H443 C417 0.979 . S
H444 C417 0.980 1_554 S
H445 C417 0.983 . S
H446 C390 0.947 . S
C447 C390 1.392 . S
C447 C391 1.419 . S
C447 H429 0.948 . S
C448 C449 1.391 . S
C448 C452 1.391 . S
C448 H490 0.948 . S
C449 C448 1.391 . S
C449 C450 1.391 . S
C450 C449 1.391 . S
C450 H506 0.947 . S
C450 C507 1.392 . S
C451 C452 1.391 . S
C451 C455 1.397 . S
C451 C507 1.419 . S
C452 C448 1.391 . S
C452 C451 1.391 . S
C452 C453 1.399 . S
C453 C452 1.399 . S
C453 C456 1.396 . S
C453 C465 1.453 1_545 S
C453 C466 1.684 1_545 S
H454 C478 0.948 . S
C455 C451 1.397 . S
C455 C456 1.394 . S
C455 C474 1.723 . S
C456 C453 1.396 . S
C456 C455 1.394 . S
C456 C486 1.723 1_545 S
H457 C480 0.947 . S
H458 C481 0.948 . S
H459 C487 0.982 . S
H460 C488 0.979 . S
H461 C488 0.980 . S
H462 C488 0.983 . S
H463 C487 0.979 . S
H464 C487 0.977 . S
C465 C453 1.453 1_565 S
C465 H494 0.982 1_565 S
C465 H495 0.979 . S
C465 H496 0.977 . S
C466 C453 1.684 1_565 S
C466 H491 0.979 . S
C466 H492 0.980 . S
C466 H493 0.983 . S
C467 C468 1.391 . S
C467 C472 1.391 . S
C467 H497 0.948 . S
C468 C467 1.391 . S
C468 C469 1.391 . S
C469 C468 1.391 . S
C469 C470 1.392 . S
C469 H498 0.947 . S
C470 C469 1.392 . S
C470 C471 1.419 . S
C470 H499 0.948 . S
C471 C470 1.419 . S
C471 C472 1.391 . S
C471 C475 1.397 . S
C472 C467 1.391 . S
C472 C471 1.391 . S
C472 C473 1.399 . S
C473 C472 1.399 . S
C473 C474 1.396 . S
C473 C476 1.453 . S
C473 C477 1.684 . S
C474 C455 1.723 . S
C474 C473 1.396 . S
C474 C475 1.394 . S
C475 C471 1.397 . S
C475 C474 1.394 . S
C475 C485 1.723 1_545 S
C476 C473 1.453 . S
C476 H500 0.982 . S
C476 H501 0.979 . S
C476 H502 0.977 . S
C477 C473 1.684 . S
C477 H503 0.979 . S
C477 H504 0.980 . S
C477 H505 0.983 . S
C478 H454 0.948 . S
C478 C479 1.391 . S
C478 C483 1.391 . S
C479 C478 1.391 . S
C479 C480 1.391 . S
C480 H457 0.947 . S
C480 C479 1.391 . S
C480 C481 1.392 . S
C481 H458 0.948 . S
C481 C480 1.392 . S
C481 C482 1.419 . S
C482 C481 1.419 . S
C482 C483 1.391 . S
C482 C486 1.397 . S
C483 C478 1.391 . S
C483 C482 1.391 . S
C483 C484 1.399 . S
C484 C483 1.399 . S
C484 C485 1.396 . S
C484 C487 1.453 . S
C484 C488 1.684 . S
C485 C475 1.723 1_565 S
C485 C484 1.396 . S
C485 C486 1.394 . S
C486 C456 1.723 1_565 S
C486 C482 1.397 . S
C486 C485 1.394 . S
C487 H459 0.982 . S
C487 H463 0.979 . S
C487 H464 0.977 . S
C487 C484 1.453 . S
C488 H460 0.979 . S
C488 H461 0.980 . S
C488 H462 0.983 . S
C488 C484 1.684 . S
H489 C507 0.948 . S
H490 C448 0.948 . S
H491 C466 0.979 . S
H492 C466 0.980 . S
H493 C466 0.983 . S
H494 C465 0.982 1_545 S
H495 C465 0.979 . S
H496 C465 0.977 . S
H497 C467 0.948 . S
H498 C469 0.947 . S
H499 C470 0.948 . S
H500 C476 0.982 . S
H501 C476 0.979 . S
H502 C476 0.977 . S
H503 C477 0.979 . S
H504 C477 0.980 . S
H505 C477 0.983 . S
H506 C450 0.947 . S
C507 C450 1.392 . S
C507 C451 1.419 . S
C507 H489 0.948 . S
C508 C509 1.391 1_554 S
C508 C512 1.391 . S
C508 H550 0.948 . S
C509 C508 1.391 1_556 S
C509 C510 1.391 . S
C510 C509 1.391 . S
C510 H566 0.947 . S
C510 C567 1.392 . S
C511 C512 1.391 1_556 S
C511 C515 1.397 . S
C511 C567 1.419 . S
C512 C508 1.391 . S
C512 C511 1.391 1_554 S
C512 C513 1.399 . S
C513 C512 1.399 . S
C513 C516 1.396 . S
C513 C525 1.453 . S
C513 C526 1.684 . S
H514 C538 0.948 . S
C515 C511 1.397 . S
C515 C516 1.394 1_556 S
C515 C534 1.723 . S
C516 C513 1.396 . S
C516 C515 1.394 1_554 S
C516 C546 1.723 . S
H517 C540 0.947 . S
H518 C541 0.948 . S
H519 C547 0.982 . S
H520 C548 0.979 . S
H521 C548 0.980 1_556 S
H522 C548 0.983 . S
H523 C547 0.979 . S
H524 C547 0.977 1_556 S
C525 C513 1.453 . S
C525 H554 0.982 . S
C525 H555 0.979 . S
C525 H556 0.977 . S
C526 C513 1.684 . S
C526 H551 0.979 . S
C526 H552 0.980 . S
C526 H553 0.983 . S
C527 C528 1.391 . S
C527 C532 1.391 . S
C527 H557 0.948 . S
C528 C527 1.391 . S
C528 C529 1.391 . S
C529 C528 1.391 . S
C529 C530 1.392 . S
C529 H558 0.947 . S
C530 C529 1.392 . S
C530 C531 1.419 . S
C530 H559 0.948 . S
C531 C530 1.419 . S
C531 C532 1.391 . S
C531 C535 1.397 . S
C532 C527 1.391 . S
C532 C531 1.391 . S
C532 C533 1.399 . S
C533 C532 1.399 . S
C533 C534 1.396 . S
C533 C536 1.453 . S
C533 C537 1.684 . S
C534 C515 1.723 . S
C534 C533 1.396 . S
C534 C535 1.394 . S
C535 C531 1.397 . S
C535 C534 1.394 . S
C535 C545 1.723 1_556 S
C536 C533 1.453 . S
C536 H560 0.982 . S
C536 H561 0.979 . S
C536 H562 0.977 . S
C537 C533 1.684 . S
C537 H563 0.979 . S
C537 H564 0.980 . S
C537 H565 0.983 . S
C538 H514 0.948 . S
C538 C539 1.391 . S
C538 C543 1.391 . S
C539 C538 1.391 . S
C539 C540 1.391 . S
C540 H517 0.947 . S
C540 C539 1.391 . S
C540 C541 1.392 . S
C541 H518 0.948 . S
C541 C540 1.392 . S
C541 C542 1.419 . S
C542 C541 1.419 . S
C542 C543 1.391 . S
C542 C546 1.397 . S
C543 C538 1.391 . S
C543 C542 1.391 . S
C543 C544 1.399 . S
C544 C543 1.399 . S
C544 C545 1.396 . S
C544 C547 1.453 . S
C544 C548 1.684 . S
C545 C535 1.723 1_554 S
C545 C544 1.396 . S
C545 C546 1.394 . S
C546 C516 1.723 . S
C546 C542 1.397 . S
C546 C545 1.394 . S
C547 H519 0.982 . S
C547 H523 0.979 . S
C547 H524 0.977 1_554 S
C547 C544 1.453 . S
C548 H520 0.979 . S
C548 H521 0.980 1_554 S
C548 H522 0.983 . S
C548 C544 1.684 . S
H549 C567 0.948 . S
H550 C508 0.948 . S
H551 C526 0.979 . S
H552 C526 0.980 . S
H553 C526 0.983 . S
H554 C525 0.982 . S
H555 C525 0.979 . S
H556 C525 0.977 . S
H557 C527 0.948 . S
H558 C529 0.947 . S
H559 C530 0.948 . S
H560 C536 0.982 . S
H561 C536 0.979 . S
H562 C536 0.977 . S
H563 C537 0.979 . S
H564 C537 0.980 . S
H565 C537 0.983 . S
H566 C510 0.947 . S
C567 C510 1.392 . S
C567 C511 1.419 . S
C567 H549 0.948 . S
H568 C586 0.951 . S
H569 C588 0.951 . S
H570 C590 0.950 . S
H571 C591 0.950 . S
H572 C593 0.950 . S
H573 C596 0.950 . S
H574 C597 0.950 . S
H575 C599 0.950 . S
H576 C600 0.950 . S
H577 C601 0.951 . S
H578 C603 0.951 . S
H579 C605 0.950 . S
H580 C606 0.950 . S
H581 C608 0.950 . S
H582 C611 0.950 . S
H583 C612 0.950 . S
H584 C614 0.950 . S
H585 C615 0.950 . S
C586 H568 0.951 . S
C586 C587 1.366 . S
C586 C588 1.388 . S
C587 C586 1.366 . S
C587 C591 1.385 . S
C588 H569 0.951 . S
C588 C586 1.388 . S
C588 C589 1.366 . S
C589 C588 1.366 . S
C589 C590 1.414 . S
C589 C592 1.499 . S
C590 H570 0.950 . S
C590 C589 1.414 . S
C590 C591 1.374 . S
C591 H571 0.950 . S
C591 C587 1.385 . S
C591 C590 1.374 . S
C592 C589 1.499 . S
C592 C593 1.373 . S
C592 C594 1.389 . S
C593 H572 0.950 . S
C593 C592 1.373 . S
C593 C609 1.377 . S
C594 C592 1.389 . S
C594 C595 1.524 . S
C594 C608 1.377 . S
C595 C594 1.524 . S
C595 C596 1.397 . S
C595 C600 1.363 . S
C596 H573 0.950 . S
C596 C595 1.397 . S
C596 C597 1.334 . S
C597 H574 0.950 . S
C597 C596 1.334 . S
C597 C598 1.287 . S
C598 C597 1.287 . S
C598 C599 1.524 . S
C598 H617 0.913 . S
C599 H575 0.950 . S
C599 C598 1.524 . S
C599 C600 1.415 . S
C600 H576 0.950 . S
C600 C595 1.363 . S
C600 C599 1.415 . S
C601 H577 0.951 . S
C601 C602 1.366 . S
C601 C603 1.388 . S
C602 C601 1.366 . S
C602 C606 1.385 . S
C603 H578 0.951 . S
C603 C601 1.388 . S
C603 C604 1.366 . S
C604 C603 1.366 . S
C604 C605 1.414 . S
C604 C607 1.499 . S
C605 H579 0.950 . S
C605 C604 1.414 . S
C605 C606 1.374 . S
C606 H580 0.950 . S
C606 C602 1.385 . S
C606 C605 1.374 . S
C607 C604 1.499 . S
C607 C608 1.373 . S
C607 C609 1.389 . S
C608 H581 0.950 . S
C608 C594 1.377 . S
C608 C607 1.373 . S
C609 C593 1.377 . S
C609 C607 1.389 . S
C609 C610 1.524 . S
C610 C609 1.524 . S
C610 C611 1.397 . S
C610 C615 1.363 . S
C611 H582 0.950 . S
C611 C610 1.397 . S
C611 C612 1.334 . S
C612 H583 0.950 . S
C612 C611 1.334 . S
C612 C613 1.287 . S
C613 C612 1.287 . S
C613 C614 1.524 . S
C613 H616 0.999 . S
C614 H584 0.950 . S
C614 C613 1.524 . S
C614 C615 1.415 . S
C615 H585 0.950 . S
C615 C610 1.363 . S
C615 C614 1.415 . S
H616 C613 0.999 . S
H617 C598 0.913 . S
H618 C636 0.951 . S
H619 C638 0.951 . S
H620 C640 0.950 . S
H621 C641 0.950 . S
H622 C643 0.950 . S
H623 C646 0.950 . S
H624 C647 0.950 . S
H625 C649 0.950 . S
H626 C650 0.950 . S
H627 C651 0.951 . S
H628 C653 0.951 . S
H629 C655 0.950 . S
H630 C656 0.950 . S
H631 C658 0.950 . S
H632 C661 0.950 . S
H633 C662 0.950 . S
H634 C664 0.950 . S
H635 C665 0.950 . S
C636 H618 0.951 . S
C636 C637 1.366 . S
C636 C638 1.388 . S
C637 C636 1.366 . S
C637 C641 1.385 . S
C638 H619 0.951 . S
C638 C636 1.388 . S
C638 C639 1.366 . S
C639 C638 1.366 . S
C639 C640 1.414 . S
C639 C642 1.499 . S
C640 H620 0.950 . S
C640 C639 1.414 . S
C640 C641 1.374 . S
C641 H621 0.950 . S
C641 C637 1.385 . S
C641 C640 1.374 . S
C642 C639 1.499 . S
C642 C643 1.373 . S
C642 C644 1.389 . S
C643 H622 0.950 . S
C643 C642 1.373 . S
C643 C659 1.377 . S
C644 C642 1.389 . S
C644 C645 1.524 . S
C644 C658 1.377 . S
C645 C644 1.524 . S
C645 C646 1.397 . S
C645 C650 1.363 . S
C646 H623 0.950 . S
C646 C645 1.397 . S
C646 C647 1.334 . S
C647 H624 0.950 . S
C647 C646 1.334 . S
C647 C648 1.287 . S
C648 C647 1.287 . S
C648 C649 1.524 . S
C648 H667 0.913 . S
C649 H625 0.950 . S
C649 C648 1.524 . S
C649 C650 1.415 . S
C650 H626 0.950 . S
C650 C645 1.363 . S
C650 C649 1.415 . S
C651 H627 0.951 . S
C651 C652 1.366 . S
C651 C653 1.388 . S
C652 C651 1.366 . S
C652 C656 1.385 . S
C653 H628 0.951 . S
C653 C651 1.388 . S
C653 C654 1.366 . S
C654 C653 1.366 . S
C654 C655 1.414 . S
C654 C657 1.499 . S
C655 H629 0.950 . S
C655 C654 1.414 . S
C655 C656 1.374 . S
C656 H630 0.950 . S
C656 C652 1.385 . S
C656 C655 1.374 . S
C657 C654 1.499 . S
C657 C658 1.373 . S
C657 C659 1.389 . S
C658 H631 0.950 . S
C658 C644 1.377 . S
C658 C657 1.373 . S
C659 C643 1.377 . S
C659 C657 1.389 . S
C659 C660 1.524 . S
C660 C659 1.524 . S
C660 C661 1.397 . S
C660 C665 1.363 . S
C661 H632 0.950 . S
C661 C660 1.397 . S
C661 C662 1.334 . S
C662 H633 0.950 . S
C662 C661 1.334 . S
C662 C663 1.287 . S
C663 C662 1.287 . S
C663 C664 1.524 . S
C663 H666 0.999 . S
C664 H634 0.950 . S
C664 C663 1.524 . S
C664 C665 1.415 . S
C665 H635 0.950 . S
C665 C660 1.363 . S
C665 C664 1.415 . S
H666 C663 0.999 . S
H667 C648 0.913 . S
H668 C686 0.951 . S
H669 C688 0.951 . S
H670 C690 0.950 . S
H671 C691 0.950 . S
H672 C693 0.950 . S
H673 C696 0.950 . S
H674 C697 0.950 . S
H675 C699 0.950 . S
H676 C700 0.950 . S
H677 C701 0.951 . S
H678 C703 0.951 . S
H679 C705 0.950 . S
H680 C706 0.950 . S
H681 C708 0.950 . S
H682 C711 0.950 . S
H683 C712 0.950 . S
H684 C714 0.950 . S
H685 C715 0.950 . S
C686 H668 0.951 . S
C686 C687 1.366 . S
C686 C688 1.388 . S
C687 C686 1.366 . S
C687 C691 1.385 . S
C688 H669 0.951 . S
C688 C686 1.388 . S
C688 C689 1.366 . S
C689 C688 1.366 . S
C689 C690 1.414 . S
C689 C692 1.499 . S
C690 H670 0.950 . S
C690 C689 1.414 . S
C690 C691 1.374 . S
C691 H671 0.950 . S
C691 C687 1.385 . S
C691 C690 1.374 . S
C692 C689 1.499 . S
C692 C693 1.373 . S
C692 C694 1.389 . S
C693 H672 0.950 . S
C693 C692 1.373 . S
C693 C709 1.377 . S
C694 C692 1.389 . S
C694 C695 1.524 . S
C694 C708 1.377 . S
C695 C694 1.524 . S
C695 C696 1.397 . S
C695 C700 1.363 . S
C696 H673 0.950 . S
C696 C695 1.397 . S
C696 C697 1.334 . S
C697 H674 0.950 . S
C697 C696 1.334 . S
C697 C698 1.287 . S
C698 C697 1.287 . S
C698 C699 1.524 . S
C698 H717 0.913 . S
C699 H675 0.950 . S
C699 C698 1.524 . S
C699 C700 1.415 . S
C700 H676 0.950 . S
C700 C695 1.363 . S
C700 C699 1.415 . S
C701 H677 0.951 . S
C701 C702 1.366 . S
C701 C703 1.388 . S
C702 C701 1.366 . S
C702 C706 1.385 . S
C703 H678 0.951 . S
C703 C701 1.388 . S
C703 C704 1.366 . S
C704 C703 1.366 . S
C704 C705 1.414 . S
C704 C707 1.499 . S
C705 H679 0.950 . S
C705 C704 1.414 . S
C705 C706 1.374 . S
C706 H680 0.950 . S
C706 C702 1.385 . S
C706 C705 1.374 . S
C707 C704 1.499 . S
C707 C708 1.373 . S
C707 C709 1.389 . S
C708 H681 0.950 . S
C708 C694 1.377 . S
C708 C707 1.373 . S
C709 C693 1.377 . S
C709 C707 1.389 . S
C709 C710 1.524 . S
C710 C709 1.524 . S
C710 C711 1.397 . S
C710 C715 1.363 . S
C711 H682 0.950 . S
C711 C710 1.397 . S
C711 C712 1.334 . S
C712 H683 0.950 . S
C712 C711 1.334 . S
C712 C713 1.287 . S
C713 C712 1.287 . S
C713 C714 1.524 . S
C713 H716 0.999 . S
C714 H684 0.950 . S
C714 C713 1.524 . S
C714 C715 1.415 . S
C715 H685 0.950 . S
C715 C710 1.363 . S
C715 C714 1.415 . S
H716 C713 0.999 . S
H717 C698 0.913 . S
H718 C736 0.951 . S
H719 C738 0.951 . S
H720 C740 0.950 . S
H721 C741 0.950 . S
H722 C743 0.950 . S
H723 C746 0.950 . S
H724 C747 0.950 . S
H725 C749 0.950 . S
H726 C750 0.950 . S
H727 C751 0.951 . S
H728 C753 0.951 . S
H729 C755 0.950 . S
H730 C756 0.950 . S
H731 C758 0.950 . S
H732 C761 0.950 . S
H733 C762 0.950 . S
H734 C764 0.950 . S
H735 C765 0.950 . S
C736 H718 0.951 . S
C736 C737 1.366 . S
C736 C738 1.388 . S
C737 C736 1.366 . S
C737 C741 1.385 . S
C738 H719 0.951 . S
C738 C736 1.388 . S
C738 C739 1.366 . S
C739 C738 1.366 . S
C739 C740 1.414 . S
C739 C742 1.499 . S
C740 H720 0.950 . S
C740 C739 1.414 . S
C740 C741 1.374 . S
C741 H721 0.950 . S
C741 C737 1.385 . S
C741 C740 1.374 . S
C742 C739 1.499 . S
C742 C743 1.373 . S
C742 C744 1.389 . S
C743 H722 0.950 . S
C743 C742 1.373 . S
C743 C759 1.377 . S
C744 C742 1.389 . S
C744 C745 1.524 . S
C744 C758 1.377 . S
C745 C744 1.524 . S
C745 C746 1.397 . S
C745 C750 1.363 . S
C746 H723 0.950 . S
C746 C745 1.397 . S
C746 C747 1.334 . S
C747 H724 0.950 . S
C747 C746 1.334 . S
C747 C748 1.287 . S
C748 C747 1.287 . S
C748 C749 1.524 . S
C748 H767 0.913 . S
C749 H725 0.950 . S
C749 C748 1.524 . S
C749 C750 1.415 . S
C750 H726 0.950 . S
C750 C745 1.363 . S
C750 C749 1.415 . S
C751 H727 0.951 . S
C751 C752 1.366 . S
C751 C753 1.388 . S
C752 C751 1.366 . S
C752 C756 1.385 . S
C753 H728 0.951 . S
C753 C751 1.388 . S
C753 C754 1.366 . S
C754 C753 1.366 . S
C754 C755 1.414 . S
C754 C757 1.499 . S
C755 H729 0.950 . S
C755 C754 1.414 . S
C755 C756 1.374 . S
C756 H730 0.950 . S
C756 C752 1.385 . S
C756 C755 1.374 . S
C757 C754 1.499 . S
C757 C758 1.373 . S
C757 C759 1.389 . S
C758 H731 0.950 . S
C758 C744 1.377 . S
C758 C757 1.373 . S
C759 C743 1.377 . S
C759 C757 1.389 . S
C759 C760 1.524 . S
C760 C759 1.524 . S
C760 C761 1.397 . S
C760 C765 1.363 . S
C761 H732 0.950 . S
C761 C760 1.397 . S
C761 C762 1.334 . S
C762 H733 0.950 . S
C762 C761 1.334 . S
C762 C763 1.287 . S
C763 C762 1.287 . S
C763 C764 1.524 . S
C763 H766 0.999 . S
C764 H734 0.950 . S
C764 C763 1.524 . S
C764 C765 1.415 . S
C765 H735 0.950 . S
C765 C760 1.363 . S
C765 C764 1.415 . S
H766 C763 0.999 . S
H767 C748 0.913 . S
H768 C786 0.951 . S
H769 C788 0.951 . S
H770 C790 0.950 . S
H771 C791 0.950 . S
H772 C793 0.950 . S
H773 C796 0.950 . S
H774 C797 0.950 . S
H775 C799 0.950 . S
H776 C800 0.950 . S
H777 C801 0.951 . S
H778 C803 0.951 . S
H779 C805 0.950 . S
H780 C806 0.950 . S
H781 C808 0.950 . S
H782 C811 0.950 . S
H783 C812 0.950 . S
H784 C814 0.950 . S
H785 C815 0.950 . S
C786 H768 0.951 . S
C786 C787 1.366 . S
C786 C788 1.388 . S
C787 C786 1.366 . S
C787 C791 1.385 . S
C788 H769 0.951 . S
C788 C786 1.388 . S
C788 C789 1.366 . S
C789 C788 1.366 . S
C789 C790 1.414 . S
C789 C792 1.499 . S
C790 H770 0.950 . S
C790 C789 1.414 . S
C790 C791 1.374 . S
C791 H771 0.950 . S
C791 C787 1.385 . S
C791 C790 1.374 . S
C792 C789 1.499 . S
C792 C793 1.373 . S
C792 C794 1.389 . S
C793 H772 0.950 . S
C793 C792 1.373 . S
C793 C809 1.377 . S
C794 C792 1.389 . S
C794 C795 1.524 . S
C794 C808 1.377 . S
C795 C794 1.524 . S
C795 C796 1.397 . S
C795 C800 1.363 . S
C796 H773 0.950 . S
C796 C795 1.397 . S
C796 C797 1.334 . S
C797 H774 0.950 . S
C797 C796 1.334 . S
C797 C798 1.287 . S
C798 C797 1.287 . S
C798 C799 1.524 . S
C798 H817 0.913 . S
C799 H775 0.950 . S
C799 C798 1.524 . S
C799 C800 1.415 . S
C800 H776 0.950 . S
C800 C795 1.363 . S
C800 C799 1.415 . S
C801 H777 0.951 . S
C801 C802 1.366 . S
C801 C803 1.388 . S
C802 C801 1.366 . S
C802 C806 1.385 . S
C803 H778 0.951 . S
C803 C801 1.388 . S
C803 C804 1.366 . S
C804 C803 1.366 . S
C804 C805 1.414 . S
C804 C807 1.499 . S
C805 H779 0.950 . S
C805 C804 1.414 . S
C805 C806 1.374 . S
C806 H780 0.950 . S
C806 C802 1.385 . S
C806 C805 1.374 . S
C807 C804 1.499 . S
C807 C808 1.373 . S
C807 C809 1.389 . S
C808 H781 0.950 . S
C808 C794 1.377 . S
C808 C807 1.373 . S
C809 C793 1.377 . S
C809 C807 1.389 . S
C809 C810 1.524 . S
C810 C809 1.524 . S
C810 C811 1.397 . S
C810 C815 1.363 . S
C811 H782 0.950 . S
C811 C810 1.397 . S
C811 C812 1.334 . S
C812 H783 0.950 . S
C812 C811 1.334 . S
C812 C813 1.287 . S
C813 C812 1.287 . S
C813 C814 1.524 . S
C813 H816 0.999 . S
C814 H784 0.950 . S
C814 C813 1.524 . S
C814 C815 1.415 . S
C815 H785 0.950 . S
C815 C810 1.363 . S
C815 C814 1.415 . S
H816 C813 0.999 . S
H817 C798 0.913 . S
H818 C836 0.951 . S
H819 C838 0.951 . S
H820 C840 0.950 . S
H821 C841 0.950 . S
H822 C843 0.950 . S
H823 C846 0.950 . S
H824 C847 0.950 . S
H825 C849 0.950 . S
H826 C850 0.950 . S
H827 C851 0.951 . S
H828 C853 0.951 . S
H829 C855 0.950 . S
H830 C856 0.950 . S
H831 C858 0.950 . S
H832 C861 0.950 . S
H833 C862 0.950 . S
H834 C864 0.950 . S
H835 C865 0.950 . S
C836 H818 0.951 . S
C836 C837 1.366 . S
C836 C838 1.388 . S
C837 C836 1.366 . S
C837 C841 1.385 . S
C838 H819 0.951 . S
C838 C836 1.388 . S
C838 C839 1.366 . S
C839 C838 1.366 . S
C839 C840 1.414 . S
C839 C842 1.499 . S
C840 H820 0.950 . S
C840 C839 1.414 . S
C840 C841 1.374 . S
C841 H821 0.950 . S
C841 C837 1.385 . S
C841 C840 1.374 . S
C842 C839 1.499 . S
C842 C843 1.373 . S
C842 C844 1.389 . S
C843 H822 0.950 . S
C843 C842 1.373 . S
C843 C859 1.377 . S
C844 C842 1.389 . S
C844 C845 1.524 . S
C844 C858 1.377 . S
C845 C844 1.524 . S
C845 C846 1.397 . S
C845 C850 1.363 . S
C846 H823 0.950 . S
C846 C845 1.397 . S
C846 C847 1.334 . S
C847 H824 0.950 . S
C847 C846 1.334 . S
C847 C848 1.287 . S
C848 C847 1.287 . S
C848 C849 1.524 . S
C848 H867 0.913 . S
C849 H825 0.950 . S
C849 C848 1.524 . S
C849 C850 1.415 . S
C850 H826 0.950 . S
C850 C845 1.363 . S
C850 C849 1.415 . S
C851 H827 0.951 . S
C851 C852 1.366 . S
C851 C853 1.388 . S
C852 C851 1.366 . S
C852 C856 1.385 . S
C853 H828 0.951 . S
C853 C851 1.388 . S
C853 C854 1.366 . S
C854 C853 1.366 . S
C854 C855 1.414 . S
C854 C857 1.499 . S
C855 H829 0.950 . S
C855 C854 1.414 . S
C855 C856 1.374 . S
C856 H830 0.950 . S
C856 C852 1.385 . S
C856 C855 1.374 . S
C857 C854 1.499 . S
C857 C858 1.373 . S
C857 C859 1.389 . S
C858 H831 0.950 . S
C858 C844 1.377 . S
C858 C857 1.373 . S
C859 C843 1.377 . S
C859 C857 1.389 . S
C859 C860 1.524 . S
C860 C859 1.524 . S
C860 C861 1.397 . S
C860 C865 1.363 . S
C861 H832 0.950 . S
C861 C860 1.397 . S
C861 C862 1.334 . S
C862 H833 0.950 . S
C862 C861 1.334 . S
C862 C863 1.287 . S
C863 C862 1.287 . S
C863 C864 1.524 . S
C863 H866 0.999 . S
C864 H834 0.950 . S
C864 C863 1.524 . S
C864 C865 1.415 . S
C865 H835 0.950 . S
C865 C860 1.363 . S
C865 C864 1.415 . S
H866 C863 0.999 . S
H867 C848 0.913 . S
H868 C886 0.951 . S
H869 C888 0.951 . S
H870 C890 0.950 . S
H871 C891 0.950 . S
H872 C893 0.950 . S
H873 C896 0.950 . S
H874 C897 0.950 . S
H875 C899 0.950 . S
H876 C900 0.950 . S
H877 C901 0.951 . S
H878 C903 0.951 . S
H879 C905 0.950 . S
H880 C906 0.950 . S
H881 C908 0.950 . S
H882 C911 0.950 . S
H883 C912 0.950 . S
H884 C914 0.950 . S
H885 C915 0.950 . S
C886 H868 0.951 . S
C886 C887 1.366 . S
C886 C888 1.388 . S
C887 C886 1.366 . S
C887 C891 1.385 . S
C888 H869 0.951 . S
C888 C886 1.388 . S
C888 C889 1.366 . S
C889 C888 1.366 . S
C889 C890 1.414 . S
C889 C892 1.499 . S
C890 H870 0.950 . S
C890 C889 1.414 . S
C890 C891 1.374 . S
C891 H871 0.950 . S
C891 C887 1.385 . S
C891 C890 1.374 . S
C892 C889 1.499 . S
C892 C893 1.373 . S
C892 C894 1.389 . S
C893 H872 0.950 . S
C893 C892 1.373 . S
C893 C909 1.377 . S
C894 C892 1.389 . S
C894 C895 1.524 . S
C894 C908 1.377 . S
C895 C894 1.524 . S
C895 C896 1.397 . S
C895 C900 1.363 . S
C896 H873 0.950 . S
C896 C895 1.397 . S
C896 C897 1.334 . S
C897 H874 0.950 . S
C897 C896 1.334 . S
C897 C898 1.287 . S
C898 C897 1.287 . S
C898 C899 1.524 . S
C898 H917 0.913 . S
C899 H875 0.950 . S
C899 C898 1.524 . S
C899 C900 1.415 . S
C900 H876 0.950 . S
C900 C895 1.363 . S
C900 C899 1.415 . S
C901 H877 0.951 . S
C901 C902 1.366 . S
C901 C903 1.388 . S
C902 C901 1.366 . S
C902 C906 1.385 . S
C903 H878 0.951 . S
C903 C901 1.388 . S
C903 C904 1.366 . S
C904 C903 1.366 . S
C904 C905 1.414 . S
C904 C907 1.499 . S
C905 H879 0.950 . S
C905 C904 1.414 . S
C905 C906 1.374 . S
C906 H880 0.950 . S
C906 C902 1.385 . S
C906 C905 1.374 . S
C907 C904 1.499 . S
C907 C908 1.373 . S
C907 C909 1.389 . S
C908 H881 0.950 . S
C908 C894 1.377 . S
C908 C907 1.373 . S
C909 C893 1.377 . S
C909 C907 1.389 . S
C909 C910 1.524 . S
C910 C909 1.524 . S
C910 C911 1.397 . S
C910 C915 1.363 . S
C911 H882 0.950 . S
C911 C910 1.397 . S
C911 C912 1.334 . S
C912 H883 0.950 . S
C912 C911 1.334 . S
C912 C913 1.287 . S
C913 C912 1.287 . S
C913 C914 1.524 . S
C913 H916 0.999 . S
C914 H884 0.950 . S
C914 C913 1.524 . S
C914 C915 1.415 . S
C915 H885 0.950 . S
C915 C910 1.363 . S
C915 C914 1.415 . S
H916 C913 0.999 . S
H917 C898 0.913 . S
H918 C936 0.951 . S
H919 C938 0.951 . S
H920 C940 0.950 . S
H921 C941 0.950 . S
H922 C943 0.950 . S
H923 C946 0.950 . S
H924 C947 0.950 . S
H925 C949 0.950 . S
H926 C950 0.950 . S
H927 C951 0.951 . S
H928 C953 0.951 . S
H929 C955 0.950 . S
H930 C956 0.950 . S
H931 C958 0.950 . S
H932 C961 0.950 . S
H933 C962 0.950 . S
H934 C964 0.950 . S
H935 C965 0.950 . S
C936 H918 0.951 . S
C936 C937 1.366 . S
C936 C938 1.388 . S
C937 C936 1.366 . S
C937 C941 1.385 . S
C938 H919 0.951 . S
C938 C936 1.388 . S
C938 C939 1.366 . S
C939 C938 1.366 . S
C939 C940 1.414 . S
C939 C942 1.499 . S
C940 H920 0.950 . S
C940 C939 1.414 . S
C940 C941 1.374 . S
C941 H921 0.950 . S
C941 C937 1.385 . S
C941 C940 1.374 . S
C942 C939 1.499 . S
C942 C943 1.373 . S
C942 C944 1.389 . S
C943 H922 0.950 . S
C943 C942 1.373 . S
C943 C959 1.377 . S
C944 C942 1.389 . S
C944 C945 1.524 . S
C944 C958 1.377 . S
C945 C944 1.524 . S
C945 C946 1.397 . S
C945 C950 1.363 . S
C946 H923 0.950 . S
C946 C945 1.397 . S
C946 C947 1.334 . S
C947 H924 0.950 . S
C947 C946 1.334 . S
C947 C948 1.287 . S
C948 C947 1.287 . S
C948 C949 1.524 . S
C948 H967 0.913 . S
C949 H925 0.950 . S
C949 C948 1.524 . S
C949 C950 1.415 . S
C950 H926 0.950 . S
C950 C945 1.363 . S
C950 C949 1.415 . S
C951 H927 0.951 . S
C951 C952 1.366 . S
C951 C953 1.388 . S
C952 C951 1.366 . S
C952 C956 1.385 . S
C953 H928 0.951 . S
C953 C951 1.388 . S
C953 C954 1.366 . S
C954 C953 1.366 . S
C954 C955 1.414 . S
C954 C957 1.499 . S
C955 H929 0.950 . S
C955 C954 1.414 . S
C955 C956 1.374 . S
C956 H930 0.950 . S
C956 C952 1.385 . S
C956 C955 1.374 . S
C957 C954 1.499 . S
C957 C958 1.373 . S
C957 C959 1.389 . S
C958 H931 0.950 . S
C958 C944 1.377 . S
C958 C957 1.373 . S
C959 C943 1.377 . S
C959 C957 1.389 . S
C959 C960 1.524 . S
C960 C959 1.524 . S
C960 C961 1.397 . S
C960 C965 1.363 . S
C961 H932 0.950 . S
C961 C960 1.397 . S
C961 C962 1.334 . S
C962 H933 0.950 . S
C962 C961 1.334 . S
C962 C963 1.287 . S
C963 C962 1.287 . S
C963 C964 1.524 . S
C963 H966 0.999 . S
C964 H934 0.950 . S
C964 C963 1.524 . S
C964 C965 1.415 . S
C965 H935 0.950 . S
C965 C960 1.363 . S
C965 C964 1.415 . S
H966 C963 0.999 . S
H967 C948 0.913 . S
H968 C986 0.951 . S
H969 C988 0.951 . S
H970 C990 0.950 . S
H971 C991 0.950 . S
H972 C993 0.950 . S
H973 C996 0.950 . S
H974 C997 0.950 . S
H975 C999 0.950 . S
H976 C1000 0.950 . S
H977 C1001 0.951 . S
H978 C1003 0.951 . S
H979 C1005 0.950 . S
H980 C1006 0.950 . S
H981 C1008 0.950 . S
H982 C1011 0.950 . S
H983 C1012 0.950 . S
H984 C1014 0.950 . S
H985 C1015 0.950 . S
C986 H968 0.951 . S
C986 C987 1.366 . S
C986 C988 1.388 . S
C987 C986 1.366 . S
C987 C991 1.385 . S
C988 H969 0.951 . S
C988 C986 1.388 . S
C988 C989 1.366 . S
C989 C988 1.366 . S
C989 C990 1.414 . S
C989 C992 1.499 . S
C990 H970 0.950 . S
C990 C989 1.414 . S
C990 C991 1.374 . S
C991 H971 0.950 . S
C991 C987 1.385 . S
C991 C990 1.374 . S
C992 C989 1.499 . S
C992 C993 1.373 . S
C992 C994 1.389 . S
C993 H972 0.950 . S
C993 C992 1.373 . S
C993 C1009 1.377 . S
C994 C992 1.389 . S
C994 C995 1.524 . S
C994 C1008 1.377 . S
C995 C994 1.524 . S
C995 C996 1.397 . S
C995 C1000 1.363 . S
C996 H973 0.950 . S
C996 C995 1.397 . S
C996 C997 1.334 . S
C997 H974 0.950 . S
C997 C996 1.334 . S
C997 C998 1.287 . S
C998 C997 1.287 . S
C998 C999 1.524 . S
C998 H1017 0.913 . S
C999 H975 0.950 . S
C999 C998 1.524 . S
C999 C1000 1.415 . S
C1000 H976 0.950 . S
C1000 C995 1.363 . S
C1000 C999 1.415 . S
C1001 H977 0.951 . S
C1001 C1002 1.366 . S
C1001 C1003 1.388 . S
C1002 C1001 1.366 . S
C1002 C1006 1.385 . S
C1003 H978 0.951 . S
C1003 C1001 1.388 . S
C1003 C1004 1.366 . S
C1004 C1003 1.366 . S
C1004 C1005 1.414 . S
C1004 C1007 1.499 . S
C1005 H979 0.950 . S
C1005 C1004 1.414 . S
C1005 C1006 1.374 . S
C1006 H980 0.950 . S
C1006 C1002 1.385 . S
C1006 C1005 1.374 . S
C1007 C1004 1.499 . S
C1007 C1008 1.373 . S
C1007 C1009 1.389 . S
C1008 H981 0.950 . S
C1008 C994 1.377 . S
C1008 C1007 1.373 . S
C1009 C993 1.377 . S
C1009 C1007 1.389 . S
C1009 C1010 1.524 . S
C1010 C1009 1.524 . S
C1010 C1011 1.397 . S
C1010 C1015 1.363 . S
C1011 H982 0.950 . S
C1011 C1010 1.397 . S
C1011 C1012 1.334 . S
C1012 H983 0.950 . S
C1012 C1011 1.334 . S
C1012 C1013 1.287 . S
C1013 C1012 1.287 . S
C1013 C1014 1.524 . S
C1013 H1016 0.999 . S
C1014 H984 0.950 . S
C1014 C1013 1.524 . S
C1014 C1015 1.415 . S
C1015 H985 0.950 . S
C1015 C1010 1.363 . S
C1015 C1014 1.415 . S
H1016 C1013 0.999 . S
H1017 C998 0.913 . S
H1018 C1036 0.951 . S
H1019 C1038 0.951 . S
H1020 C1040 0.950 . S
H1021 C1041 0.950 . S
H1022 C1043 0.950 . S
H1023 C1046 0.950 . S
H1024 C1047 0.950 . S
H1025 C1049 0.950 . S
H1026 C1050 0.950 . S
H1027 C1051 0.951 . S
H1028 C1053 0.951 . S
H1029 C1055 0.950 . S
H1030 C1056 0.950 . S
H1031 C1058 0.950 . S
H1032 C1061 0.950 . S
H1033 C1062 0.950 . S
H1034 C1064 0.950 . S
H1035 C1065 0.950 . S
C1036 H1018 0.951 . S
C1036 C1037 1.366 . S
C1036 C1038 1.388 . S
C1037 C1036 1.366 . S
C1037 C1041 1.385 . S
C1038 H1019 0.951 . S
C1038 C1036 1.388 . S
C1038 C1039 1.366 . S
C1039 C1038 1.366 . S
C1039 C1040 1.414 . S
C1039 C1042 1.499 . S
C1040 H1020 0.950 . S
C1040 C1039 1.414 . S
C1040 C1041 1.374 . S
C1041 H1021 0.950 . S
C1041 C1037 1.385 . S
C1041 C1040 1.374 . S
C1042 C1039 1.499 . S
C1042 C1043 1.373 . S
C1042 C1044 1.389 . S
C1043 H1022 0.950 . S
C1043 C1042 1.373 . S
C1043 C1059 1.377 . S
C1044 C1042 1.389 . S
C1044 C1045 1.524 . S
C1044 C1058 1.377 . S
C1045 C1044 1.524 . S
C1045 C1046 1.397 . S
C1045 C1050 1.363 . S
C1046 H1023 0.950 . S
C1046 C1045 1.397 . S
C1046 C1047 1.334 . S
C1047 H1024 0.950 . S
C1047 C1046 1.334 . S
C1047 C1048 1.287 . S
C1048 C1047 1.287 . S
C1048 C1049 1.524 . S
C1048 H1067 0.913 . S
C1049 H1025 0.950 . S
C1049 C1048 1.524 . S
C1049 C1050 1.415 . S
C1050 H1026 0.950 . S
C1050 C1045 1.363 . S
C1050 C1049 1.415 . S
C1051 H1027 0.951 . S
C1051 C1052 1.366 . S
C1051 C1053 1.388 . S
C1052 C1051 1.366 . S
C1052 C1056 1.385 . S
C1053 H1028 0.951 . S
C1053 C1051 1.388 . S
C1053 C1054 1.366 . S
C1054 C1053 1.366 . S
C1054 C1055 1.414 . S
C1054 C1057 1.499 . S
C1055 H1029 0.950 . S
C1055 C1054 1.414 . S
C1055 C1056 1.374 . S
C1056 H1030 0.950 . S
C1056 C1052 1.385 . S
C1056 C1055 1.374 . S
C1057 C1054 1.499 . S
C1057 C1058 1.373 . S
C1057 C1059 1.389 . S
C1058 H1031 0.950 . S
C1058 C1044 1.377 . S
C1058 C1057 1.373 . S
C1059 C1043 1.377 . S
C1059 C1057 1.389 . S
C1059 C1060 1.524 . S
C1060 C1059 1.524 . S
C1060 C1061 1.397 . S
C1060 C1065 1.363 . S
C1061 H1032 0.950 . S
C1061 C1060 1.397 . S
C1061 C1062 1.334 . S
C1062 H1033 0.950 . S
C1062 C1061 1.334 . S
C1062 C1063 1.287 . S
C1063 C1062 1.287 . S
C1063 C1064 1.524 . S
C1063 H1066 0.999 . S
C1064 H1034 0.950 . S
C1064 C1063 1.524 . S
C1064 C1065 1.415 . S
C1065 H1035 0.950 . S
C1065 C1060 1.363 . S
C1065 C1064 1.415 . S
H1066 C1063 0.999 . S
H1067 C1048 0.913 . S
H1068 C1086 0.951 . S
H1069 C1088 0.951 . S
H1070 C1090 0.950 . S
H1071 C1091 0.950 . S
H1072 C1093 0.950 . S
H1073 C1096 0.950 . S
H1074 C1097 0.950 . S
H1075 C1099 0.950 . S
H1076 C1100 0.950 . S
H1077 C1101 0.951 . S
H1078 C1103 0.951 . S
H1079 C1105 0.950 . S
H1080 C1106 0.950 . S
H1081 C1108 0.950 . S
H1082 C1111 0.950 . S
H1083 C1112 0.950 . S
H1084 C1114 0.950 . S
H1085 C1115 0.950 . S
C1086 H1068 0.951 . S
C1086 C1087 1.366 . S
C1086 C1088 1.388 . S
C1087 C1086 1.366 . S
C1087 C1091 1.385 . S
C1088 H1069 0.951 . S
C1088 C1086 1.388 . S
C1088 C1089 1.366 . S
C1089 C1088 1.366 . S
C1089 C1090 1.414 . S
C1089 C1092 1.499 . S
C1090 H1070 0.950 . S
C1090 C1089 1.414 . S
C1090 C1091 1.374 . S
C1091 H1071 0.950 . S
C1091 C1087 1.385 . S
C1091 C1090 1.374 . S
C1092 C1089 1.499 . S
C1092 C1093 1.373 . S
C1092 C1094 1.389 . S
C1093 H1072 0.950 . S
C1093 C1092 1.373 . S
C1093 C1109 1.377 . S
C1094 C1092 1.389 . S
C1094 C1095 1.524 . S
C1094 C1108 1.377 . S
C1095 C1094 1.524 . S
C1095 C1096 1.397 . S
C1095 C1100 1.363 . S
C1096 H1073 0.950 . S
C1096 C1095 1.397 . S
C1096 C1097 1.334 . S
C1097 H1074 0.950 . S
C1097 C1096 1.334 . S
C1097 C1098 1.287 . S
C1098 C1097 1.287 . S
C1098 C1099 1.524 . S
C1098 H1117 0.913 . S
C1099 H1075 0.950 . S
C1099 C1098 1.524 . S
C1099 C1100 1.415 . S
C1100 H1076 0.950 . S
C1100 C1095 1.363 . S
C1100 C1099 1.415 . S
C1101 H1077 0.951 . S
C1101 C1102 1.366 . S
C1101 C1103 1.388 . S
C1102 C1101 1.366 . S
C1102 C1106 1.385 . S
C1103 H1078 0.951 . S
C1103 C1101 1.388 . S
C1103 C1104 1.366 . S
C1104 C1103 1.366 . S
C1104 C1105 1.414 . S
C1104 C1107 1.499 . S
C1105 H1079 0.950 . S
C1105 C1104 1.414 . S
C1105 C1106 1.374 . S
C1106 H1080 0.950 . S
C1106 C1102 1.385 . S
C1106 C1105 1.374 . S
C1107 C1104 1.499 . S
C1107 C1108 1.373 . S
C1107 C1109 1.389 . S
C1108 H1081 0.950 . S
C1108 C1094 1.377 . S
C1108 C1107 1.373 . S
C1109 C1093 1.377 . S
C1109 C1107 1.389 . S
C1109 C1110 1.524 . S
C1110 C1109 1.524 . S
C1110 C1111 1.397 . S
C1110 C1115 1.363 . S
C1111 H1082 0.950 . S
C1111 C1110 1.397 . S
C1111 C1112 1.334 . S
C1112 H1083 0.950 . S
C1112 C1111 1.334 . S
C1112 C1113 1.287 . S
C1113 C1112 1.287 . S
C1113 C1114 1.524 . S
C1113 H1116 0.999 . S
C1114 H1084 0.950 . S
C1114 C1113 1.524 . S
C1114 C1115 1.415 . S
C1115 H1085 0.950 . S
C1115 C1110 1.363 . S
C1115 C1114 1.415 . S
H1116 C1113 0.999 . S
H1117 C1098 0.913 . S
H1118 C1136 0.951 . S
H1119 C1138 0.951 . S
H1120 C1140 0.950 . S
H1121 C1141 0.950 . S
H1122 C1143 0.950 . S
H1123 C1146 0.950 . S
H1124 C1147 0.950 . S
H1125 C1149 0.950 . S
H1126 C1150 0.950 . S
H1127 C1151 0.951 . S
H1128 C1153 0.951 . S
H1129 C1155 0.950 . S
H1130 C1156 0.950 . S
H1131 C1158 0.950 . S
H1132 C1161 0.950 . S
H1133 C1162 0.950 . S
H1134 C1164 0.950 . S
H1135 C1165 0.950 . S
C1136 H1118 0.951 . S
C1136 C1137 1.366 . S
C1136 C1138 1.388 . S
C1137 C1136 1.366 . S
C1137 C1141 1.385 . S
C1138 H1119 0.951 . S
C1138 C1136 1.388 . S
C1138 C1139 1.366 . S
C1139 C1138 1.366 . S
C1139 C1140 1.414 . S
C1139 C1142 1.499 . S
C1140 H1120 0.950 . S
C1140 C1139 1.414 . S
C1140 C1141 1.374 . S
C1141 H1121 0.950 . S
C1141 C1137 1.385 . S
C1141 C1140 1.374 . S
C1142 C1139 1.499 . S
C1142 C1143 1.373 . S
C1142 C1144 1.389 . S
C1143 H1122 0.950 . S
C1143 C1142 1.373 . S
C1143 C1159 1.377 . S
C1144 C1142 1.389 . S
C1144 C1145 1.524 . S
C1144 C1158 1.377 . S
C1145 C1144 1.524 . S
C1145 C1146 1.397 . S
C1145 C1150 1.363 . S
C1146 H1123 0.950 . S
C1146 C1145 1.397 . S
C1146 C1147 1.334 . S
C1147 H1124 0.950 . S
C1147 C1146 1.334 . S
C1147 C1148 1.287 . S
C1148 C1147 1.287 . S
C1148 C1149 1.524 . S
C1148 H1167 0.913 . S
C1149 H1125 0.950 . S
C1149 C1148 1.524 . S
C1149 C1150 1.415 . S
C1150 H1126 0.950 . S
C1150 C1145 1.363 . S
C1150 C1149 1.415 . S
C1151 H1127 0.951 . S
C1151 C1152 1.366 . S
C1151 C1153 1.388 . S
C1152 C1151 1.366 . S
C1152 C1156 1.385 . S
C1153 H1128 0.951 . S
C1153 C1151 1.388 . S
C1153 C1154 1.366 . S
C1154 C1153 1.366 . S
C1154 C1155 1.414 . S
C1154 C1157 1.499 . S
C1155 H1129 0.950 . S
C1155 C1154 1.414 . S
C1155 C1156 1.374 . S
C1156 H1130 0.950 . S
C1156 C1152 1.385 . S
C1156 C1155 1.374 . S
C1157 C1154 1.499 . S
C1157 C1158 1.373 . S
C1157 C1159 1.389 . S
C1158 H1131 0.950 . S
C1158 C1144 1.377 . S
C1158 C1157 1.373 . S
C1159 C1143 1.377 . S
C1159 C1157 1.389 . S
C1159 C1160 1.524 . S
C1160 C1159 1.524 . S
C1160 C1161 1.397 . S
C1160 C1165 1.363 . S
C1161 H1132 0.950 . S
C1161 C1160 1.397 . S
C1161 C1162 1.334 . S
C1162 H1133 0.950 . S
C1162 C1161 1.334 . S
C1162 C1163 1.287 . S
C1163 C1162 1.287 . S
C1163 C1164 1.524 . S
C1163 H1166 0.999 . S
C1164 H1134 0.950 . S
C1164 C1163 1.524 . S
C1164 C1165 1.415 . S
C1165 H1135 0.950 . S
C1165 C1160 1.363 . S
C1165 C1164 1.415 . S
H1166 C1163 0.999 . S
H1167 C1148 0.913 . S
H1168 C1186 0.951 . S
H1169 C1188 0.951 . S
H1170 C1190 0.950 . S
H1171 C1191 0.950 . S
H1172 C1193 0.950 . S
H1173 C1196 0.950 . S
H1174 C1197 0.950 . S
H1175 C1199 0.950 . S
H1176 C1200 0.950 . S
H1177 C1201 0.951 . S
H1178 C1203 0.951 . S
H1179 C1205 0.950 . S
H1180 C1206 0.950 . S
H1181 C1208 0.950 . S
H1182 C1211 0.950 . S
H1183 C1212 0.950 . S
H1184 C1214 0.950 . S
H1185 C1215 0.950 . S
C1186 H1168 0.951 . S
C1186 C1187 1.366 . S
C1186 C1188 1.388 . S
C1187 C1186 1.366 . S
C1187 C1191 1.385 . S
C1188 H1169 0.951 . S
C1188 C1186 1.388 . S
C1188 C1189 1.366 . S
C1189 C1188 1.366 . S
C1189 C1190 1.414 . S
C1189 C1192 1.499 . S
C1190 H1170 0.950 . S
C1190 C1189 1.414 . S
C1190 C1191 1.374 . S
C1191 H1171 0.950 . S
C1191 C1187 1.385 . S
C1191 C1190 1.374 . S
C1192 C1189 1.499 . S
C1192 C1193 1.373 . S
C1192 C1194 1.389 . S
C1193 H1172 0.950 . S
C1193 C1192 1.373 . S
C1193 C1209 1.377 . S
C1194 C1192 1.389 . S
C1194 C1195 1.524 . S
C1194 C1208 1.377 . S
C1195 C1194 1.524 . S
C1195 C1196 1.397 . S
C1195 C1200 1.363 . S
C1196 H1173 0.950 . S
C1196 C1195 1.397 . S
C1196 C1197 1.334 . S
C1197 H1174 0.950 . S
C1197 C1196 1.334 . S
C1197 C1198 1.287 . S
C1198 C1197 1.287 . S
C1198 C1199 1.524 . S
C1198 H1217 0.913 . S
C1199 H1175 0.950 . S
C1199 C1198 1.524 . S
C1199 C1200 1.415 . S
C1200 H1176 0.950 . S
C1200 C1195 1.363 . S
C1200 C1199 1.415 . S
C1201 H1177 0.951 . S
C1201 C1202 1.366 . S
C1201 C1203 1.388 . S
C1202 C1201 1.366 . S
C1202 C1206 1.385 . S
C1203 H1178 0.951 . S
C1203 C1201 1.388 . S
C1203 C1204 1.366 . S
C1204 C1203 1.366 . S
C1204 C1205 1.414 . S
C1204 C1207 1.499 . S
C1205 H1179 0.950 . S
C1205 C1204 1.414 . S
C1205 C1206 1.374 . S
C1206 H1180 0.950 . S
C1206 C1202 1.385 . S
C1206 C1205 1.374 . S
C1207 C1204 1.499 . S
C1207 C1208 1.373 . S
C1207 C1209 1.389 . S
C1208 H1181 0.950 . S
C1208 C1194 1.377 . S
C1208 C1207 1.373 . S
C1209 C1193 1.377 . S
C1209 C1207 1.389 . S
C1209 C1210 1.524 . S
C1210 C1209 1.524 . S
C1210 C1211 1.397 . S
C1210 C1215 1.363 . S
C1211 H1182 0.950 . S
C1211 C1210 1.397 . S
C1211 C1212 1.334 . S
C1212 H1183 0.950 . S
C1212 C1211 1.334 . S
C1212 C1213 1.287 . S
C1213 C1212 1.287 . S
C1213 C1214 1.524 . S
C1213 H1216 0.999 . S
C1214 H1184 0.950 . S
C1214 C1213 1.524 . S
C1214 C1215 1.415 . S
C1215 H1185 0.950 . S
C1215 C1210 1.363 . S
C1215 C1214 1.415 . S
H1216 C1213 0.999 . S
H1217 C1198 0.913 . S
H1218 C1236 0.951 . S
H1219 C1238 0.951 . S
H1220 C1240 0.950 . S
H1221 C1241 0.950 . S
H1222 C1243 0.950 . S
H1223 C1246 0.950 . S
H1224 C1247 0.950 . S
H1225 C1249 0.950 . S
H1226 C1250 0.950 . S
H1227 C1251 0.951 . S
H1228 C1253 0.951 . S
H1229 C1255 0.950 . S
H1230 C1256 0.950 . S
H1231 C1258 0.950 . S
H1232 C1261 0.950 . S
H1233 C1262 0.950 . S
H1234 C1264 0.950 . S
H1235 C1265 0.950 . S
C1236 H1218 0.951 . S
C1236 C1237 1.366 . S
C1236 C1238 1.388 . S
C1237 C1236 1.366 . S
C1237 C1241 1.385 . S
C1238 H1219 0.951 . S
C1238 C1236 1.388 . S
C1238 C1239 1.366 . S
C1239 C1238 1.366 . S
C1239 C1240 1.414 . S
C1239 C1242 1.499 . S
C1240 H1220 0.950 . S
C1240 C1239 1.414 . S
C1240 C1241 1.374 . S
C1241 H1221 0.950 . S
C1241 C1237 1.385 . S
C1241 C1240 1.374 . S
C1242 C1239 1.499 . S
C1242 C1243 1.373 . S
C1242 C1244 1.389 . S
C1243 H1222 0.950 . S
C1243 C1242 1.373 . S
C1243 C1259 1.377 . S
C1244 C1242 1.389 . S
C1244 C1245 1.524 . S
C1244 C1258 1.377 . S
C1245 C1244 1.524 . S
C1245 C1246 1.397 . S
C1245 C1250 1.363 . S
C1246 H1223 0.950 . S
C1246 C1245 1.397 . S
C1246 C1247 1.334 . S
C1247 H1224 0.950 . S
C1247 C1246 1.334 . S
C1247 C1248 1.287 . S
C1248 C1247 1.287 . S
C1248 C1249 1.524 . S
C1248 H1267 0.913 . S
C1249 H1225 0.950 . S
C1249 C1248 1.524 . S
C1249 C1250 1.415 . S
C1250 H1226 0.950 . S
C1250 C1245 1.363 . S
C1250 C1249 1.415 . S
C1251 H1227 0.951 . S
C1251 C1252 1.366 . S
C1251 C1253 1.388 . S
C1252 C1251 1.366 . S
C1252 C1256 1.385 . S
C1253 H1228 0.951 . S
C1253 C1251 1.388 . S
C1253 C1254 1.366 . S
C1254 C1253 1.366 . S
C1254 C1255 1.414 . S
C1254 C1257 1.499 . S
C1255 H1229 0.950 . S
C1255 C1254 1.414 . S
C1255 C1256 1.374 . S
C1256 H1230 0.950 . S
C1256 C1252 1.385 . S
C1256 C1255 1.374 . S
C1257 C1254 1.499 . S
C1257 C1258 1.373 . S
C1257 C1259 1.389 . S
C1258 H1231 0.950 . S
C1258 C1244 1.377 . S
C1258 C1257 1.373 . S
C1259 C1243 1.377 . S
C1259 C1257 1.389 . S
C1259 C1260 1.524 . S
C1260 C1259 1.524 . S
C1260 C1261 1.397 . S
C1260 C1265 1.363 . S
C1261 H1232 0.950 . S
C1261 C1260 1.397 . S
C1261 C1262 1.334 . S
C1262 H1233 0.950 . S
C1262 C1261 1.334 . S
C1262 C1263 1.287 . S
C1263 C1262 1.287 . S
C1263 C1264 1.524 . S
C1263 H1266 0.999 . S
C1264 H1234 0.950 . S
C1264 C1263 1.524 . S
C1264 C1265 1.415 . S
C1265 H1235 0.950 . S
C1265 C1260 1.363 . S
C1265 C1264 1.415 . S
H1266 C1263 0.999 . S
H1267 C1248 0.913 . S
H1268 C1286 0.951 . S
H1269 C1288 0.951 . S
H1270 C1290 0.950 . S
H1271 C1291 0.950 . S
H1272 C1293 0.950 . S
H1273 C1296 0.950 . S
H1274 C1297 0.950 . S
H1275 C1299 0.950 . S
H1276 C1300 0.950 . S
H1277 C1301 0.951 . S
H1278 C1303 0.951 . S
H1279 C1305 0.950 . S
H1280 C1306 0.950 . S
H1281 C1308 0.950 . S
H1282 C1311 0.950 . S
H1283 C1312 0.950 . S
H1284 C1314 0.950 . S
H1285 C1315 0.950 . S
C1286 H1268 0.951 . S
C1286 C1287 1.366 . S
C1286 C1288 1.388 . S
C1287 C1286 1.366 . S
C1287 C1291 1.385 . S
C1288 H1269 0.951 . S
C1288 C1286 1.388 . S
C1288 C1289 1.366 . S
C1289 C1288 1.366 . S
C1289 C1290 1.414 . S
C1289 C1292 1.499 . S
C1290 H1270 0.950 . S
C1290 C1289 1.414 . S
C1290 C1291 1.374 . S
C1291 H1271 0.950 . S
C1291 C1287 1.385 . S
C1291 C1290 1.374 . S
C1292 C1289 1.499 . S
C1292 C1293 1.373 . S
C1292 C1294 1.389 . S
C1293 H1272 0.950 . S
C1293 C1292 1.373 . S
C1293 C1309 1.377 . S
C1294 C1292 1.389 . S
C1294 C1295 1.524 . S
C1294 C1308 1.377 . S
C1295 C1294 1.524 . S
C1295 C1296 1.397 . S
C1295 C1300 1.363 . S
C1296 H1273 0.950 . S
C1296 C1295 1.397 . S
C1296 C1297 1.334 . S
C1297 H1274 0.950 . S
C1297 C1296 1.334 . S
C1297 C1298 1.287 . S
C1298 C1297 1.287 . S
C1298 C1299 1.524 . S
C1298 H1317 0.913 . S
C1299 H1275 0.950 . S
C1299 C1298 1.524 . S
C1299 C1300 1.415 . S
C1300 H1276 0.950 . S
C1300 C1295 1.363 . S
C1300 C1299 1.415 . S
C1301 H1277 0.951 . S
C1301 C1302 1.366 . S
C1301 C1303 1.388 . S
C1302 C1301 1.366 . S
C1302 C1306 1.385 . S
C1303 H1278 0.951 . S
C1303 C1301 1.388 . S
C1303 C1304 1.366 . S
C1304 C1303 1.366 . S
C1304 C1305 1.414 . S
C1304 C1307 1.499 . S
C1305 H1279 0.950 . S
C1305 C1304 1.414 . S
C1305 C1306 1.374 . S
C1306 H1280 0.950 . S
C1306 C1302 1.385 . S
C1306 C1305 1.374 . S
C1307 C1304 1.499 . S
C1307 C1308 1.373 . S
C1307 C1309 1.389 . S
C1308 H1281 0.950 . S
C1308 C1294 1.377 . S
C1308 C1307 1.373 . S
C1309 C1293 1.377 . S
C1309 C1307 1.389 . S
C1309 C1310 1.524 . S
C1310 C1309 1.524 . S
C1310 C1311 1.397 . S
C1310 C1315 1.363 . S
C1311 H1282 0.950 . S
C1311 C1310 1.397 . S
C1311 C1312 1.334 . S
C1312 H1283 0.950 . S
C1312 C1311 1.334 . S
C1312 C1313 1.287 . S
C1313 C1312 1.287 . S
C1313 C1314 1.524 . S
C1313 H1316 0.999 . S
C1314 H1284 0.950 . S
C1314 C1313 1.524 . S
C1314 C1315 1.415 . S
C1315 H1285 0.950 . S
C1315 C1310 1.363 . S
C1315 C1314 1.415 . S
H1316 C1313 0.999 . S
H1317 C1298 0.913 . S
H1318 C1336 0.951 . S
H1319 C1338 0.951 . S
H1320 C1340 0.950 . S
H1321 C1341 0.950 . S
H1322 C1343 0.950 . S
H1323 C1346 0.950 . S
H1324 C1347 0.950 . S
H1325 C1349 0.950 . S
H1326 C1350 0.950 . S
H1327 C1351 0.951 . S
H1328 C1353 0.951 . S
H1329 C1355 0.950 . S
H1330 C1356 0.950 . S
H1331 C1358 0.950 . S
H1332 C1361 0.950 . S
H1333 C1362 0.950 . S
H1334 C1364 0.950 . S
H1335 C1365 0.950 . S
C1336 H1318 0.951 . S
C1336 C1337 1.366 . S
C1336 C1338 1.388 . S
C1337 C1336 1.366 . S
C1337 C1341 1.385 . S
C1338 H1319 0.951 . S
C1338 C1336 1.388 . S
C1338 C1339 1.366 . S
C1339 C1338 1.366 . S
C1339 C1340 1.414 . S
C1339 C1342 1.499 . S
C1340 H1320 0.950 . S
C1340 C1339 1.414 . S
C1340 C1341 1.374 . S
C1341 H1321 0.950 . S
C1341 C1337 1.385 . S
C1341 C1340 1.374 . S
C1342 C1339 1.499 . S
C1342 C1343 1.373 . S
C1342 C1344 1.389 . S
C1343 H1322 0.950 . S
C1343 C1342 1.373 . S
C1343 C1359 1.377 . S
C1344 C1342 1.389 . S
C1344 C1345 1.524 . S
C1344 C1358 1.377 . S
C1345 C1344 1.524 . S
C1345 C1346 1.397 . S
C1345 C1350 1.363 . S
C1346 H1323 0.950 . S
C1346 C1345 1.397 . S
C1346 C1347 1.334 . S
C1347 H1324 0.950 . S
C1347 C1346 1.334 . S
C1347 C1348 1.287 . S
C1348 C1347 1.287 . S
C1348 C1349 1.524 . S
C1348 H1367 0.913 . S
C1349 H1325 0.950 . S
C1349 C1348 1.524 . S
C1349 C1350 1.415 . S
C1350 H1326 0.950 . S
C1350 C1345 1.363 . S
C1350 C1349 1.415 . S
C1351 H1327 0.951 . S
C1351 C1352 1.366 . S
C1351 C1353 1.388 . S
C1352 C1351 1.366 . S
C1352 C1356 1.385 . S
C1353 H1328 0.951 . S
C1353 C1351 1.388 . S
C1353 C1354 1.366 . S
C1354 C1353 1.366 . S
C1354 C1355 1.414 . S
C1354 C1357 1.499 . S
C1355 H1329 0.950 . S
C1355 C1354 1.414 . S
C1355 C1356 1.374 . S
C1356 H1330 0.950 . S
C1356 C1352 1.385 . S
C1356 C1355 1.374 . S
C1357 C1354 1.499 . S
C1357 C1358 1.373 . S
C1357 C1359 1.389 . S
C1358 H1331 0.950 . S
C1358 C1344 1.377 . S
C1358 C1357 1.373 . S
C1359 C1343 1.377 . S
C1359 C1357 1.389 . S
C1359 C1360 1.524 . S
C1360 C1359 1.524 . S
C1360 C1361 1.397 . S
C1360 C1365 1.363 . S
C1361 H1332 0.950 . S
C1361 C1360 1.397 . S
C1361 C1362 1.334 . S
C1362 H1333 0.950 . S
C1362 C1361 1.334 . S
C1362 C1363 1.287 . S
C1363 C1362 1.287 . S
C1363 C1364 1.524 . S
C1363 H1366 0.999 . S
C1364 H1334 0.950 . S
C1364 C1363 1.524 . S
C1364 C1365 1.415 . S
C1365 H1335 0.950 . S
C1365 C1360 1.363 . S
C1365 C1364 1.415 . S
H1366 C1363 0.999 . S
H1367 C1348 0.913 . S
H1368 C1386 0.951 . S
H1369 C1388 0.951 . S
H1370 C1390 0.950 . S
H1371 C1391 0.950 . S
H1372 C1393 0.950 . S
H1373 C1396 0.950 . S
H1374 C1397 0.950 . S
H1375 C1399 0.950 . S
H1376 C1400 0.950 . S
H1377 C1401 0.951 . S
H1378 C1403 0.951 . S
H1379 C1405 0.950 . S
H1380 C1406 0.950 . S
H1381 C1408 0.950 . S
H1382 C1411 0.950 . S
H1383 C1412 0.950 . S
H1384 C1414 0.950 . S
H1385 C1415 0.950 . S
C1386 H1368 0.951 . S
C1386 C1387 1.374 . S
C1386 C1388 1.388 . S
C1387 C1386 1.374 . S
C1387 C1391 1.377 1_554 S
C1388 H1369 0.951 . S
C1388 C1386 1.388 . S
C1388 C1389 1.366 . S
C1389 C1388 1.366 . S
C1389 C1390 1.414 1_554 S
C1389 C1392 1.499 . S
C1390 H1370 0.950 . S
C1390 C1389 1.414 1_556 S
C1390 C1391 1.374 . S
C1391 H1371 0.950 . S
C1391 C1387 1.377 1_556 S
C1391 C1390 1.374 . S
C1392 C1389 1.499 . S
C1392 C1393 1.366 1_554 S
C1392 C1394 1.397 . S
C1393 H1372 0.950 . S
C1393 C1392 1.366 1_556 S
C1393 C1409 1.377 . S
C1394 C1392 1.397 . S
C1394 C1395 1.524 . S
C1394 C1408 1.377 . S
C1395 C1394 1.524 . S
C1395 C1396 1.397 . S
C1395 C1400 1.363 . S
C1396 H1373 0.950 . S
C1396 C1395 1.397 . S
C1396 C1397 1.334 . S
C1397 H1374 0.950 . S
C1397 C1396 1.334 . S
C1397 C1398 1.287 . S
C1398 C1397 1.287 . S
C1398 C1399 1.524 . S
C1398 H1417 0.913 . S
C1399 H1375 0.950 . S
C1399 C1398 1.524 . S
C1399 C1400 1.415 . S
C1400 H1376 0.950 . S
C1400 C1395 1.363 . S
C1400 C1399 1.415 . S
C1401 H1377 0.951 . S
C1401 C1402 1.364 1_556 S
C1401 C1403 1.388 . S
C1402 C1401 1.364 1_554 S
C1402 C1406 1.387 . S
C1403 H1378 0.951 . S
C1403 C1401 1.388 . S
C1403 C1404 1.382 . S
C1404 C1403 1.382 . S
C1404 C1405 1.397 1_556 S
C1404 C1407 1.498 1_556 S
C1405 H1379 0.950 . S
C1405 C1404 1.397 1_554 S
C1405 C1406 1.374 . S
C1406 H1380 0.950 . S
C1406 C1402 1.387 . S
C1406 C1405 1.374 . S
C1407 C1404 1.498 1_554 S
C1407 C1408 1.377 . S
C1407 C1409 1.386 1_554 S
C1408 H1381 0.950 . S
C1408 C1394 1.377 . S
C1408 C1407 1.377 . S
C1409 C1393 1.377 . S
C1409 C1407 1.386 1_556 S
C1409 C1410 1.524 . S
C1410 C1409 1.524 . S
C1410 C1411 1.397 . S
C1410 C1415 1.363 . S
C1411 H1382 0.950 . S
C1411 C1410 1.397 . S
C1411 C1412 1.334 . S
C1412 H1383 0.950 . S
C1412 C1411 1.334 . S
C1412 C1413 1.287 . S
C1413 C1412 1.287 . S
C1413 C1414 1.524 . S
C1413 H1416 0.999 . S
C1414 H1384 0.950 . S
C1414 C1413 1.524 . S
C1414 C1415 1.415 . S
C1415 H1385 0.950 . S
C1415 C1410 1.363 . S
C1415 C1414 1.415 . S
H1416 C1413 0.999 . S
H1417 C1398 0.913 . S
H1418 C1436 0.951 . S
H1419 C1438 0.951 . S
H1420 C1440 0.950 . S
H1421 C1441 0.950 . S
H1422 C1443 0.950 . S
H1423 C1446 0.950 . S
H1424 C1447 0.950 . S
H1425 C1449 0.950 . S
H1426 C1450 0.950 . S
H1427 C1451 0.951 . S
H1428 C1453 0.951 . S
H1429 C1455 0.950 . S
H1430 C1456 0.950 . S
H1431 C1458 0.950 . S
H1432 C1461 0.950 . S
H1433 C1462 0.950 . S
H1434 C1464 0.950 . S
H1435 C1465 0.950 . S
C1436 H1418 0.951 . S
C1436 C1437 1.366 . S
C1436 C1438 1.388 . S
C1437 C1436 1.366 . S
C1437 C1441 1.385 . S
C1438 H1419 0.951 . S
C1438 C1436 1.388 . S
C1438 C1439 1.366 . S
C1439 C1438 1.366 . S
C1439 C1440 1.414 . S
C1439 C1442 1.499 . S
C1440 H1420 0.950 . S
C1440 C1439 1.414 . S
C1440 C1441 1.374 . S
C1441 H1421 0.950 . S
C1441 C1437 1.385 . S
C1441 C1440 1.374 . S
C1442 C1439 1.499 . S
C1442 C1443 1.373 . S
C1442 C1444 1.389 . S
C1443 H1422 0.950 . S
C1443 C1442 1.373 . S
C1443 C1459 1.377 . S
C1444 C1442 1.389 . S
C1444 C1445 1.524 . S
C1444 C1458 1.377 . S
C1445 C1444 1.524 . S
C1445 C1446 1.397 . S
C1445 C1450 1.363 . S
C1446 H1423 0.950 . S
C1446 C1445 1.397 . S
C1446 C1447 1.334 . S
C1447 H1424 0.950 . S
C1447 C1446 1.334 . S
C1447 C1448 1.287 . S
C1448 C1447 1.287 . S
C1448 C1449 1.524 . S
C1448 H1467 0.913 . S
C1449 H1425 0.950 . S
C1449 C1448 1.524 . S
C1449 C1450 1.415 . S
C1450 H1426 0.950 . S
C1450 C1445 1.363 . S
C1450 C1449 1.415 . S
C1451 H1427 0.951 . S
C1451 C1452 1.366 . S
C1451 C1453 1.388 . S
C1452 C1451 1.366 . S
C1452 C1456 1.385 . S
C1453 H1428 0.951 . S
C1453 C1451 1.388 . S
C1453 C1454 1.366 . S
C1454 C1453 1.366 . S
C1454 C1455 1.414 . S
C1454 C1457 1.499 . S
C1455 H1429 0.950 . S
C1455 C1454 1.414 . S
C1455 C1456 1.374 . S
C1456 H1430 0.950 . S
C1456 C1452 1.385 . S
C1456 C1455 1.374 . S
C1457 C1454 1.499 . S
C1457 C1458 1.373 . S
C1457 C1459 1.389 . S
C1458 H1431 0.950 . S
C1458 C1444 1.377 . S
C1458 C1457 1.373 . S
C1459 C1443 1.377 . S
C1459 C1457 1.389 . S
C1459 C1460 1.524 . S
C1460 C1459 1.524 . S
C1460 C1461 1.397 . S
C1460 C1465 1.363 . S
C1461 H1432 0.950 . S
C1461 C1460 1.397 . S
C1461 C1462 1.334 . S
C1462 H1433 0.950 . S
C1462 C1461 1.334 . S
C1462 C1463 1.287 . S
C1463 C1462 1.287 . S
C1463 C1464 1.524 . S
C1463 H1466 0.999 . S
C1464 H1434 0.950 . S
C1464 C1463 1.524 . S
C1464 C1465 1.415 . S
C1465 H1435 0.950 . S
C1465 C1460 1.363 . S
C1465 C1464 1.415 . S
H1466 C1463 0.999 . S
H1467 C1448 0.913 . S
H1468 C1486 0.951 . S
H1469 C1488 0.951 . S
H1470 C1490 0.950 . S
H1471 C1491 0.950 . S
H1472 C1493 0.950 . S
H1473 C1496 0.950 1_556 S
H1474 C1497 0.950 . S
H1475 C1499 0.950 . S
H1476 C1500 0.950 . S
H1477 C1501 0.951 . S
H1478 C1503 0.951 . S
H1479 C1505 0.950 . S
H1480 C1506 0.950 . S
H1481 C1508 0.950 . S
H1482 C1511 0.950 1_554 S
H1483 C1512 0.950 . S
H1484 C1514 0.950 . S
H1485 C1515 0.950 . S
C1486 H1468 0.951 . S
C1486 C1487 1.376 . S
C1486 C1488 1.388 . S
C1487 C1486 1.376 . S
C1487 C1491 1.374 1_554 S
C1488 H1469 0.951 . S
C1488 C1486 1.388 . S
C1488 C1489 1.366 1_554 S
C1489 C1488 1.366 1_556 S
C1489 C1490 1.414 . S
C1489 C1492 1.499 . S
C1490 H1470 0.950 . S
C1490 C1489 1.414 . S
C1490 C1491 1.374 . S
C1491 H1471 0.950 . S
C1491 C1487 1.374 1_556 S
C1491 C1490 1.374 . S
C1492 C1489 1.499 . S
C1492 C1493 1.373 . S
C1492 C1494 1.389 1_556 S
C1493 H1472 0.950 . S
C1493 C1492 1.373 . S
C1493 C1509 1.377 . S
C1494 C1492 1.389 1_554 S
C1494 C1495 1.524 . S
C1494 C1508 1.377 . S
C1495 C1494 1.524 . S
C1495 C1496 1.397 . S
C1495 C1500 1.363 . S
C1496 H1473 0.950 1_554 S
C1496 C1495 1.397 . S
C1496 C1497 1.334 . S
C1497 H1474 0.950 . S
C1497 C1496 1.334 . S
C1497 C1498 1.287 . S
C1498 C1497 1.287 . S
C1498 C1499 1.524 . S
C1498 H1517 0.913 . S
C1499 H1475 0.950 . S
C1499 C1498 1.524 . S
C1499 C1500 1.415 . S
C1500 H1476 0.950 . S
C1500 C1495 1.363 . S
C1500 C1499 1.415 . S
C1501 H1477 0.951 . S
C1501 C1502 1.365 1_556 S
C1501 C1503 1.388 . S
C1502 C1501 1.365 1_554 S
C1502 C1506 1.386 . S
C1503 H1478 0.951 . S
C1503 C1501 1.388 . S
C1503 C1504 1.349 1_556 S
C1504 C1503 1.349 1_554 S
C1504 C1505 1.431 . S
C1504 C1507 1.499 . S
C1505 H1479 0.950 . S
C1505 C1504 1.431 . S
C1505 C1506 1.374 . S
C1506 H1480 0.950 . S
C1506 C1502 1.386 . S
C1506 C1505 1.374 . S
C1507 C1504 1.499 . S
C1507 C1508 1.373 . S
C1507 C1509 1.389 1_554 S
C1508 H1481 0.950 . S
C1508 C1494 1.377 . S
C1508 C1507 1.373 . S
C1509 C1493 1.377 . S
C1509 C1507 1.389 1_556 S
C1509 C1510 1.524 . S
C1510 C1509 1.524 . S
C1510 C1511 1.397 . S
C1510 C1515 1.363 . S
C1511 H1482 0.950 1_556 S
C1511 C1510 1.397 . S
C1511 C1512 1.334 . S
C1512 H1483 0.950 . S
C1512 C1511 1.334 . S
C1512 C1513 1.287 . S
C1513 C1512 1.287 . S
C1513 C1514 1.524 . S
C1513 H1516 0.999 . S
C1514 H1484 0.950 . S
C1514 C1513 1.524 . S
C1514 C1515 1.415 . S
C1515 H1485 0.950 . S
C1515 C1510 1.363 . S
C1515 C1514 1.415 . S
H1516 C1513 0.999 . S
H1517 C1498 0.913 . S
H1518 C1536 0.951 . S
H1519 C1538 0.951 . S
H1520 C1540 0.950 . S
H1521 C1541 0.950 . S
H1522 C1543 0.950 . S
H1523 C1546 0.950 . S
H1524 C1547 0.950 . S
H1525 C1549 0.950 . S
H1526 C1550 0.950 . S
H1527 C1551 0.951 . S
H1528 C1553 0.951 . S
H1529 C1555 0.950 . S
H1530 C1556 0.950 . S
H1531 C1558 0.950 . S
H1532 C1561 0.950 . S
H1533 C1562 0.950 . S
H1534 C1564 0.950 . S
H1535 C1565 0.950 . S
C1536 H1518 0.951 . S
C1536 C1537 1.366 . S
C1536 C1538 1.388 . S
C1537 C1536 1.366 . S
C1537 C1541 1.385 . S
C1538 H1519 0.951 . S
C1538 C1536 1.388 . S
C1538 C1539 1.366 . S
C1539 C1538 1.366 . S
C1539 C1540 1.414 . S
C1539 C1542 1.499 . S
C1540 H1520 0.950 . S
C1540 C1539 1.414 . S
C1540 C1541 1.374 . S
C1541 H1521 0.950 . S
C1541 C1537 1.385 . S
C1541 C1540 1.374 . S
C1542 C1539 1.499 . S
C1542 C1543 1.373 . S
C1542 C1544 1.389 . S
C1543 H1522 0.950 . S
C1543 C1542 1.373 . S
C1543 C1559 1.377 . S
C1544 C1542 1.389 . S
C1544 C1545 1.524 . S
C1544 C1558 1.377 . S
C1545 C1544 1.524 . S
C1545 C1546 1.397 . S
C1545 C1550 1.363 . S
C1546 H1523 0.950 . S
C1546 C1545 1.397 . S
C1546 C1547 1.334 . S
C1547 H1524 0.950 . S
C1547 C1546 1.334 . S
C1547 C1548 1.287 . S
C1548 C1547 1.287 . S
C1548 C1549 1.524 . S
C1548 H1567 0.913 . S
C1549 H1525 0.950 . S
C1549 C1548 1.524 . S
C1549 C1550 1.415 . S
C1550 H1526 0.950 . S
C1550 C1545 1.363 . S
C1550 C1549 1.415 . S
C1551 H1527 0.951 . S
C1551 C1552 1.366 . S
C1551 C1553 1.388 . S
C1552 C1551 1.366 . S
C1552 C1556 1.385 . S
C1553 H1528 0.951 . S
C1553 C1551 1.388 . S
C1553 C1554 1.366 . S
C1554 C1553 1.366 . S
C1554 C1555 1.414 . S
C1554 C1557 1.499 . S
C1555 H1529 0.950 . S
C1555 C1554 1.414 . S
C1555 C1556 1.374 . S
C1556 H1530 0.950 . S
C1556 C1552 1.385 . S
C1556 C1555 1.374 . S
C1557 C1554 1.499 . S
C1557 C1558 1.373 . S
C1557 C1559 1.389 . S
C1558 H1531 0.950 . S
C1558 C1544 1.377 . S
C1558 C1557 1.373 . S
C1559 C1543 1.377 . S
C1559 C1557 1.389 . S
C1559 C1560 1.524 . S
C1560 C1559 1.524 . S
C1560 C1561 1.397 . S
C1560 C1565 1.363 . S
C1561 H1532 0.950 . S
C1561 C1560 1.397 . S
C1561 C1562 1.334 . S
C1562 H1533 0.950 . S
C1562 C1561 1.334 . S
C1562 C1563 1.287 . S
C1563 C1562 1.287 . S
C1563 C1564 1.524 . S
C1563 H1566 0.999 . S
C1564 H1534 0.950 . S
C1564 C1563 1.524 . S
C1564 C1565 1.415 . S
C1565 H1535 0.950 . S
C1565 C1560 1.363 . S
C1565 C1564 1.415 . S
H1566 C1563 0.999 . S
H1567 C1548 0.913 . S
H1568 C1586 0.951 . S
H1569 C1588 0.951 . S
H1570 C1590 0.950 . S
H1571 C1591 0.950 . S
H1572 C1593 0.950 . S
H1573 C1596 0.950 . S
H1574 C1597 0.950 . S
H1575 C1599 0.950 . S
H1576 C1600 0.950 . S
H1577 C1601 0.951 . S
H1578 C1603 0.951 . S
H1579 C1605 0.950 . S
H1580 C1606 0.950 . S
H1581 C1608 0.950 . S
H1582 C1611 0.950 . S
H1583 C1612 0.950 . S
H1584 C1614 0.950 . S
H1585 C1615 0.950 . S
C1586 H1568 0.951 . S
C1586 C1587 1.366 . S
C1586 C1588 1.388 . S
C1587 C1586 1.366 . S
C1587 C1591 1.385 . S
C1588 H1569 0.951 . S
C1588 C1586 1.388 . S
C1588 C1589 1.366 . S
C1589 C1588 1.366 . S
C1589 C1590 1.414 . S
C1589 C1592 1.499 . S
C1590 H1570 0.950 . S
C1590 C1589 1.414 . S
C1590 C1591 1.374 . S
C1591 H1571 0.950 . S
C1591 C1587 1.385 . S
C1591 C1590 1.374 . S
C1592 C1589 1.499 . S
C1592 C1593 1.373 . S
C1592 C1594 1.389 . S
C1593 H1572 0.950 . S
C1593 C1592 1.373 . S
C1593 C1609 1.377 . S
C1594 C1592 1.389 . S
C1594 C1595 1.524 . S
C1594 C1608 1.377 . S
C1595 C1594 1.524 . S
C1595 C1596 1.397 . S
C1595 C1600 1.363 . S
C1596 H1573 0.950 . S
C1596 C1595 1.397 . S
C1596 C1597 1.334 . S
C1597 H1574 0.950 . S
C1597 C1596 1.334 . S
C1597 C1598 1.287 . S
C1598 C1597 1.287 . S
C1598 C1599 1.524 . S
C1598 H1617 0.913 . S
C1599 H1575 0.950 . S
C1599 C1598 1.524 . S
C1599 C1600 1.415 . S
C1600 H1576 0.950 . S
C1600 C1595 1.363 . S
C1600 C1599 1.415 . S
C1601 H1577 0.951 . S
C1601 C1602 1.366 . S
C1601 C1603 1.388 . S
C1602 C1601 1.366 . S
C1602 C1606 1.385 . S
C1603 H1578 0.951 . S
C1603 C1601 1.388 . S
C1603 C1604 1.366 . S
C1604 C1603 1.366 . S
C1604 C1605 1.414 . S
C1604 C1607 1.499 . S
C1605 H1579 0.950 . S
C1605 C1604 1.414 . S
C1605 C1606 1.374 . S
C1606 H1580 0.950 . S
C1606 C1602 1.385 . S
C1606 C1605 1.374 . S
C1607 C1604 1.499 . S
C1607 C1608 1.373 . S
C1607 C1609 1.389 . S
C1608 H1581 0.950 . S
C1608 C1594 1.377 . S
C1608 C1607 1.373 . S
C1609 C1593 1.377 . S
C1609 C1607 1.389 . S
C1609 C1610 1.524 . S
C1610 C1609 1.524 . S
C1610 C1611 1.397 . S
C1610 C1615 1.363 . S
C1611 H1582 0.950 . S
C1611 C1610 1.397 . S
C1611 C1612 1.334 . S
C1612 H1583 0.950 . S
C1612 C1611 1.334 . S
C1612 C1613 1.287 . S
C1613 C1612 1.287 . S
C1613 C1614 1.524 . S
C1613 H1616 0.999 . S
C1614 H1584 0.950 . S
C1614 C1613 1.524 . S
C1614 C1615 1.415 . S
C1615 H1585 0.950 . S
C1615 C1610 1.363 . S
C1615 C1614 1.415 . S
H1616 C1613 0.999 . S
H1617 C1598 0.913 . S
H1618 C1636 0.951 . S
H1619 C1638 0.951 . S
H1620 C1640 0.950 1_554 S
H1621 C1641 0.950 1_554 S
H1622 C1643 0.950 . S
H1623 C1646 0.950 . S
H1624 C1647 0.950 . S
H1625 C1649 0.950 . S
H1626 C1650 0.950 . S
H1627 C1651 0.951 . S
H1628 C1653 0.951 . S
H1629 C1655 0.950 1_556 S
H1630 C1656 0.950 . S
H1631 C1658 0.950 . S
H1632 C1661 0.950 . S
H1633 C1662 0.950 . S
H1634 C1664 0.950 . S
H1635 C1665 0.950 . S
C1636 H1618 0.951 . S
C1636 C1637 1.365 . S
C1636 C1638 1.389 . S
C1637 C1636 1.365 . S
C1637 C1641 1.385 . S
C1638 H1619 0.951 . S
C1638 C1636 1.389 . S
C1638 C1639 1.366 . S
C1639 C1638 1.366 . S
C1639 C1640 1.415 . S
C1639 C1642 1.499 . S
C1640 H1620 0.950 1_556 S
C1640 C1639 1.415 . S
C1640 C1641 1.374 . S
C1641 H1621 0.950 1_556 S
C1641 C1637 1.385 . S
C1641 C1640 1.374 . S
C1642 C1639 1.499 . S
C1642 C1643 1.373 1_556 S
C1642 C1644 1.389 . S
C1643 H1622 0.950 . S
C1643 C1642 1.373 1_554 S
C1643 C1659 1.377 . S
C1644 C1642 1.389 . S
C1644 C1645 1.524 . S
C1644 C1658 1.377 . S
C1645 C1644 1.524 . S
C1645 C1646 1.397 . S
C1645 C1650 1.363 . S
C1646 H1623 0.950 . S
C1646 C1645 1.397 . S
C1646 C1647 1.334 . S
C1647 H1624 0.950 . S
C1647 C1646 1.334 . S
C1647 C1648 1.287 . S
C1648 C1647 1.287 . S
C1648 C1649 1.524 . S
C1648 H1667 0.913 . S
C1649 H1625 0.950 . S
C1649 C1648 1.524 . S
C1649 C1650 1.415 . S
C1650 H1626 0.950 . S
C1650 C1645 1.363 . S
C1650 C1649 1.415 . S
C1651 H1627 0.951 . S
C1651 C1652 1.366 . S
C1651 C1653 1.389 . S
C1652 C1651 1.366 . S
C1652 C1656 1.385 1_554 S
C1653 H1628 0.951 . S
C1653 C1651 1.389 . S
C1653 C1654 1.366 . S
C1654 C1653 1.366 . S
C1654 C1655 1.414 . S
C1654 C1657 1.499 . S
C1655 H1629 0.950 1_554 S
C1655 C1654 1.414 . S
C1655 C1656 1.374 1_554 S
C1656 H1630 0.950 . S
C1656 C1652 1.385 1_556 S
C1656 C1655 1.374 1_556 S
C1657 C1654 1.499 . S
C1657 C1658 1.373 1_554 S
C1657 C1659 1.389 . S
C1658 H1631 0.950 . S
C1658 C1644 1.377 . S
C1658 C1657 1.373 1_556 S
C1659 C1643 1.377 . S
C1659 C1657 1.389 . S
C1659 C1660 1.524 . S
C1660 C1659 1.524 . S
C1660 C1661 1.397 . S
C1660 C1665 1.363 . S
C1661 H1632 0.950 . S
C1661 C1660 1.397 . S
C1661 C1662 1.334 . S
C1662 H1633 0.950 . S
C1662 C1661 1.334 . S
C1662 C1663 1.287 . S
C1663 C1662 1.287 . S
C1663 C1664 1.524 . S
C1663 H1666 0.999 . S
C1664 H1634 0.950 . S
C1664 C1663 1.524 . S
C1664 C1665 1.415 . S
C1665 H1635 0.950 . S
C1665 C1660 1.363 . S
C1665 C1664 1.415 . S
H1666 C1663 0.999 . S
H1667 C1648 0.913 . S
H1668 C1686 0.951 . S
H1669 C1688 0.951 . S
H1670 C1690 0.950 . S
H1671 C1691 0.950 . S
H1672 C1693 0.950 . S
H1673 C1696 0.950 . S
H1674 C1697 0.950 . S
H1675 C1699 0.950 . S
H1676 C1700 0.950 . S
H1677 C1701 0.951 . S
H1678 C1703 0.951 . S
H1679 C1705 0.950 . S
H1680 C1706 0.950 . S
H1681 C1708 0.950 . S
H1682 C1711 0.950 . S
H1683 C1712 0.950 . S
H1684 C1714 0.950 . S
H1685 C1715 0.950 . S
C1686 H1668 0.951 . S
C1686 C1687 1.366 . S
C1686 C1688 1.388 . S
C1687 C1686 1.366 . S
C1687 C1691 1.385 . S
C1688 H1669 0.951 . S
C1688 C1686 1.388 . S
C1688 C1689 1.366 . S
C1689 C1688 1.366 . S
C1689 C1690 1.414 . S
C1689 C1692 1.499 . S
C1690 H1670 0.950 . S
C1690 C1689 1.414 . S
C1690 C1691 1.374 . S
C1691 H1671 0.950 . S
C1691 C1687 1.385 . S
C1691 C1690 1.374 . S
C1692 C1689 1.499 . S
C1692 C1693 1.373 . S
C1692 C1694 1.389 . S
C1693 H1672 0.950 . S
C1693 C1692 1.373 . S
C1693 C1709 1.377 . S
C1694 C1692 1.389 . S
C1694 C1695 1.524 . S
C1694 C1708 1.377 . S
C1695 C1694 1.524 . S
C1695 C1696 1.397 . S
C1695 C1700 1.363 . S
C1696 H1673 0.950 . S
C1696 C1695 1.397 . S
C1696 C1697 1.334 . S
C1697 H1674 0.950 . S
C1697 C1696 1.334 . S
C1697 C1698 1.287 . S
C1698 C1697 1.287 . S
C1698 C1699 1.524 . S
C1698 H1717 0.913 . S
C1699 H1675 0.950 . S
C1699 C1698 1.524 . S
C1699 C1700 1.415 . S
C1700 H1676 0.950 . S
C1700 C1695 1.363 . S
C1700 C1699 1.415 . S
C1701 H1677 0.951 . S
C1701 C1702 1.366 . S
C1701 C1703 1.388 . S
C1702 C1701 1.366 . S
C1702 C1706 1.385 . S
C1703 H1678 0.951 . S
C1703 C1701 1.388 . S
C1703 C1704 1.366 . S
C1704 C1703 1.366 . S
C1704 C1705 1.414 . S
C1704 C1707 1.499 . S
C1705 H1679 0.950 . S
C1705 C1704 1.414 . S
C1705 C1706 1.374 . S
C1706 H1680 0.950 . S
C1706 C1702 1.385 . S
C1706 C1705 1.374 . S
C1707 C1704 1.499 . S
C1707 C1708 1.373 . S
C1707 C1709 1.389 . S
C1708 H1681 0.950 . S
C1708 C1694 1.377 . S
C1708 C1707 1.373 . S
C1709 C1693 1.377 . S
C1709 C1707 1.389 . S
C1709 C1710 1.524 . S
C1710 C1709 1.524 . S
C1710 C1711 1.397 . S
C1710 C1715 1.363 . S
C1711 H1682 0.950 . S
C1711 C1710 1.397 . S
C1711 C1712 1.334 . S
C1712 H1683 0.950 . S
C1712 C1711 1.334 . S
C1712 C1713 1.287 . S
C1713 C1712 1.287 . S
C1713 C1714 1.524 . S
C1713 H1716 0.999 . S
C1714 H1684 0.950 . S
C1714 C1713 1.524 . S
C1714 C1715 1.415 . S
C1715 H1685 0.950 . S
C1715 C1710 1.363 . S
C1715 C1714 1.415 . S
H1716 C1713 0.999 . S
H1717 C1698 0.913 . S
H1718 C1736 0.951 . S
H1719 C1738 0.951 . S
H1720 C1740 0.950 . S
H1721 C1741 0.950 . S
H1722 C1743 0.950 . S
H1723 C1746 0.950 . S
H1724 C1747 0.950 . S
H1725 C1749 0.950 . S
H1726 C1750 0.950 . S
H1727 C1751 0.951 . S
H1728 C1753 0.951 . S
H1729 C1755 0.950 . S
H1730 C1756 0.950 . S
H1731 C1758 0.950 . S
H1732 C1761 0.950 . S
H1733 C1762 0.950 . S
H1734 C1764 0.950 . S
H1735 C1765 0.950 . S
C1736 H1718 0.951 . S
C1736 C1737 1.365 1_554 S
C1736 C1738 1.388 . S
C1737 C1736 1.365 1_556 S
C1737 C1741 1.385 . S
C1738 H1719 0.951 . S
C1738 C1736 1.388 . S
C1738 C1739 1.366 1_554 S
C1739 C1738 1.366 1_556 S
C1739 C1740 1.414 . S
C1739 C1742 1.499 . S
C1740 H1720 0.950 . S
C1740 C1739 1.414 . S
C1740 C1741 1.374 . S
C1741 H1721 0.950 . S
C1741 C1737 1.385 . S
C1741 C1740 1.374 . S
C1742 C1739 1.499 . S
C1742 C1743 1.373 1_556 S
C1742 C1744 1.389 . S
C1743 H1722 0.950 . S
C1743 C1742 1.373 1_554 S
C1743 C1759 1.377 . S
C1744 C1742 1.389 . S
C1744 C1745 1.524 . S
C1744 C1758 1.377 . S
C1745 C1744 1.524 . S
C1745 C1746 1.397 . S
C1745 C1750 1.363 . S
C1746 H1723 0.950 . S
C1746 C1745 1.397 . S
C1746 C1747 1.334 . S
C1747 H1724 0.950 . S
C1747 C1746 1.334 . S
C1747 C1748 1.287 . S
C1748 C1747 1.287 . S
C1748 C1749 1.524 . S
C1748 H1767 0.913 . S
C1749 H1725 0.950 . S
C1749 C1748 1.524 . S
C1749 C1750 1.415 . S
C1750 H1726 0.950 . S
C1750 C1745 1.363 . S
C1750 C1749 1.415 . S
C1751 H1727 0.951 . S
C1751 C1752 1.366 1_556 S
C1751 C1753 1.388 . S
C1752 C1751 1.366 1_554 S
C1752 C1756 1.384 . S
C1753 H1728 0.951 . S
C1753 C1751 1.388 . S
C1753 C1754 1.366 1_556 S
C1754 C1753 1.366 1_554 S
C1754 C1755 1.414 . S
C1754 C1757 1.499 . S
C1755 H1729 0.950 . S
C1755 C1754 1.414 . S
C1755 C1756 1.374 . S
C1756 H1730 0.950 . S
C1756 C1752 1.384 . S
C1756 C1755 1.374 . S
C1757 C1754 1.499 . S
C1757 C1758 1.373 1_554 S
C1757 C1759 1.389 . S
C1758 H1731 0.950 . S
C1758 C1744 1.377 . S
C1758 C1757 1.373 1_556 S
C1759 C1743 1.377 . S
C1759 C1757 1.389 . S
C1759 C1760 1.524 . S
C1760 C1759 1.524 . S
C1760 C1761 1.397 . S
C1760 C1765 1.363 . S
C1761 H1732 0.950 . S
C1761 C1760 1.397 . S
C1761 C1762 1.334 . S
C1762 H1733 0.950 . S
C1762 C1761 1.334 . S
C1762 C1763 1.287 . S
C1763 C1762 1.287 . S
C1763 C1764 1.524 . S
C1763 H1766 0.999 . S
C1764 H1734 0.950 . S
C1764 C1763 1.524 . S
C1764 C1765 1.415 . S
C1765 H1735 0.950 . S
C1765 C1760 1.363 . S
C1765 C1764 1.415 . S
H1766 C1763 0.999 . S
H1767 C1748 0.913 . S
C587 C21 1.596 . S
C602 C269 1.514 . S
C637 C40 1.702 . S
C652 C89 1.648 . S
C702 C168 1.463 . S
C687 C54 1.556 . S
C737 C73 1.746 . S
C752 C228 1.669 . S
C802 C389 1.463 . S
C787 C74 1.557 . S
C852 C468 1.619 . S
C837 C10 1.704 . S
C902 C539 1.612 . S
C887 C37 1.594 . S
C952 C329 1.696 . S
C937 C65 1.748 . S
C987 C52 1.560 . S
C1002 C179 1.511 . S
C1037 C87 1.742 . S
C1052 C209 1.620 . S
C1087 C15 1.598 . S
C1102 C288 1.567 . S
C1152 C108 1.684 . S
C1137 C32 1.696 . S
C1187 C29 1.597 . S
C1202 C528 1.569 . S
C1252 C348 1.735 . S
C1237 C59 1.740 . S
C1302 C408 1.510 . S
C1287 C84 1.563 . S
C1337 C8 1.698 . S
C1352 C449 1.572 . S
C1402 C119 1.814 1_554 S
C1387 C7 1.845 . S
C1452 C149 1.614 . S
C1437 C30 1.682 . S
C1487 C62 1.866 . S
C1502 C239 1.759 . S
C1537 C81 1.670 . S
C1552 C299 1.620 . S
C1602 C359 1.832 . S
C1587 C76 1.866 . S
C1637 C18 1.683 . S
C1652 C419 1.614 . S
C1687 C43 1.845 . S
C1702 C479 1.743 . S
C1737 C51 1.670 . S
C1752 C509 1.671 1_554 S
