# Generated by pormake.
# Topology pth, (4,4)-cn, num edge types: 1
# Building blocks:
#     Node 0, Type 0, BuildingBlock: QUQFOY_clean_sbu_3, # of connection points: 4
#     Node 1, Type 0, BuildingBlock: QUQFOY_clean_sbu_3, # of connection points: 4
#     Node 2, Type 0, BuildingBlock: QUQFOY_clean_sbu_3, # of connection points: 4
#     Node 3, Type 1, BuildingBlock: AZAVOO_clean_linker_0, # of connection points: 4
#     Node 4, Type 1, BuildingBlock: AZAVOO_clean_linker_0, # of connection points: 4
#     Node 5, Type 1, BuildingBlock: AZAVOO_clean_linker_0, # of connection points: 4
#     Edge 6, Type (0, 1), BuildingBlock: MIFKUJ_clean_linker_0, # of connection points: 2
#     Edge 7, Type (0, 1), BuildingBlock: MIFKUJ_clean_linker_0, # of connection points: 2
#     Edge 8, Type (0, 1), BuildingBlock: MIFKUJ_clean_linker_0, # of connection points: 2
#     Edge 9, Type (0, 1), BuildingBlock: MIFKUJ_clean_linker_0, # of connection points: 2
#     Edge 10, Type (0, 1), BuildingBlock: MIFKUJ_clean_linker_0, # of connection points: 2
#     Edge 11, Type (0, 1), BuildingBlock: MIFKUJ_clean_linker_0, # of connection points: 2
#     Edge 12, Type (0, 1), BuildingBlock: MIFKUJ_clean_linker_0, # of connection points: 2
#     Edge 13, Type (0, 1), BuildingBlock: MIFKUJ_clean_linker_0, # of connection points: 2
#     Edge 14, Type (0, 1), BuildingBlock: MIFKUJ_clean_linker_0, # of connection points: 2
#     Edge 15, Type (0, 1), BuildingBlock: MIFKUJ_clean_linker_0, # of connection points: 2
#     Edge 16, Type (0, 1), BuildingBlock: MIFKUJ_clean_linker_0, # of connection points: 2
#     Edge 17, Type (0, 1), BuildingBlock: MIFKUJ_clean_linker_0, # of connection points: 2
# Relax obj value: 0.099
# Max RMSD: 0.224
# Mean RMSD: 0.148
data_MOF--net-pth--node1-QUQFOY_clean_sbu_3--node2-AZAVOO_clean_linker_0--edge1-MIFKUJ_clean_linker_0
_symmetry_space_group_name_H-M    P1
_symmetry_Int_Tables_number       1
_symmetry_cell_setting            triclinic
loop_
_symmetry_equiv_pos_as_xyz
'x, y, z'
_cell_length_a     32.915854
_cell_length_b     32.988714
_cell_length_c     91.473065
_cell_angle_alpha  92.286253
_cell_angle_beta   89.89334
_cell_angle_gamma 120.71344
loop_
_atom_site_label
_atom_site_type_symbol
_atom_site_fract_x
_atom_site_fract_y
_atom_site_fract_z
_atom_type_partial_charge
C0 C 0.98034 0.11713 0.09268 0.0
O1 O 0.9597 0.12282 0.08194 0.0
Cd2 Cd 0.96582 0.09947 0.05721 0.0
O3 O 0.00485 0.09762 0.09075 0.0
Cd4 Cd 0.02872 0.0614 0.07124 0.0
C5 C 0.08704 0.16209 0.0536 0.0
O6 O 0.95639 0.02266 0.05657 0.0
O7 O 0.01844 0.02788 0.04655 0.0
O8 O 0.00953 -0.00438 0.08599 0.0
C9 C 0.97454 0.01301 0.0457 0.0
O10 O 0.04625 0.15451 0.05002 0.0
C11 C 0.05126 0.00316 0.08712 0.0
O12 O 0.09167 0.13534 0.06225 0.0
O13 O 0.08347 0.03831 0.08065 0.0
C14 C 0.10228 0.09346 0.41063 0.0
O15 O 0.11815 0.10931 0.39816 0.0
Cd16 Cd 0.06732 0.10275 0.37829 0.0
O17 O 0.05829 0.07379 0.41312 0.0
Cd18 Cd 0.98183 0.05232 0.40188 0.0
C19 C 0.99241 0.98138 0.37642 0.0
O20 O 0.01354 0.12303 0.38879 0.0
O21 O 0.94057 0.07176 0.38343 0.0
O22 O 0.96193 0.08068 0.42379 0.0
C23 C 0.97641 0.1122 0.38153 0.0
O24 O 0.02489 0.01911 0.37102 0.0
C25 C 0.92686 0.04122 0.427 0.0
O26 O 0.97185 0.9828 0.38808 0.0
O27 O 0.91659 0.00594 0.41838 0.0
C28 C 0.96275 0.11233 0.72214 0.0
O29 O 0.97068 0.14194 0.73266 0.0
Cd30 Cd 0.02127 0.15557 0.75318 0.0
O31 O 0.98377 0.08883 0.72164 0.0
Cd32 Cd 0.04443 0.08277 0.73583 0.0
C33 C 0.97064 0.04139 0.76427 0.0
O34 O 0.09191 0.16682 0.74219 0.0
O35 O 0.1145 0.12261 0.75179 0.0
O36 O 0.07404 0.07613 0.71212 0.0
C37 C 0.12212 0.16368 0.74983 0.0
O38 O 0.97788 0.08299 0.76628 0.0
C39 C 0.0818 0.04366 0.71544 0.0
O40 O 0.98979 0.03109 0.75381 0.0
O41 O 0.0697 0.02743 0.72809 0.0
H42 H 0.02295 0.49877 0.14123 0.0
H43 H 0.11914 0.87317 0.26301 0.0
H44 H 0.97092 0.46122 0.21981 0.0
H45 H 0.96617 0.38898 0.2097 0.0
H46 H 0.11097 0.44263 0.22342 0.0
H47 H 0.11508 0.51454 0.23388 0.0
H48 H 0.98895 0.54898 0.20016 0.0
H49 H 0.99054 0.52668 0.17442 0.0
H50 H 0.12789 0.54287 0.1819 0.0
H51 H 0.12605 0.56566 0.20758 0.0
H52 H -0.00212 0.64167 0.2177 0.0
H53 H 0.00717 0.69608 0.19896 0.0
H54 H 0.14414 0.71524 0.18872 0.0
H55 H 0.1356 0.66287 0.20821 0.0
H56 H 0.98563 0.64025 0.25015 0.0
H57 H 0.99296 0.71493 0.25872 0.0
H58 H 0.14189 0.78779 0.24907 0.0
H59 H 0.13422 0.71266 0.24077 0.0
H60 H 0.96426 0.55128 0.26561 0.0
H61 H 0.9482 0.58105 0.28849 0.0
H62 H 0.09678 0.68541 0.29365 0.0
H63 H 0.11242 0.65564 0.27068 0.0
H64 H 0.96347 0.46265 0.24935 0.0
H65 H 0.94936 0.40277 0.26671 0.0
H66 H 0.08569 0.49791 0.28739 0.0
H67 H 0.10069 0.55611 0.26926 0.0
O68 O 0.02325 0.50807 0.15142 0.0
O69 O 0.0938 0.51686 0.15584 0.0
O70 O 0.03868 0.80386 0.26465 0.0
O71 O 0.1152 0.84319 0.25959 0.0
C72 C 0.04762 0.53836 0.23205 0.0
C73 C 0.05559 0.57126 0.22139 0.0
C74 C 0.05968 0.61484 0.22561 0.0
C75 C 0.05541 0.62526 0.24046 0.0
C76 C 0.04678 0.59186 0.25107 0.0
C77 C 0.04284 0.54845 0.24686 0.0
C78 C 0.04331 0.49281 0.22753 0.0
C79 C 0.00117 0.45679 0.22094 0.0
C80 C -0.00155 0.41562 0.21528 0.0
C81 C 0.03815 0.4104 0.21592 0.0
C82 C 0.07991 0.44594 0.22292 0.0
C83 C 0.0823 0.48679 0.22885 0.0
C84 C 0.05737 0.55891 0.2057 0.0
C85 C 0.01945 0.54794 0.19619 0.0
C86 C 0.0204 0.5351 0.1815 0.0
C87 C 0.05931 0.53292 0.1761 0.0
C88 C 0.09737 0.54416 0.1857 0.0
C89 C 0.0964 0.55712 0.20037 0.0
C90 C 0.06614 0.64856 0.21434 0.0
C91 C 0.03014 0.65815 0.21154 0.0
C92 C 0.0353 0.68877 0.20068 0.0
C93 C 0.07625 0.70971 0.19222 0.0
C94 C 0.1124 0.70012 0.19512 0.0
C95 C 0.10745 0.66996 0.20616 0.0
C96 C 0.05946 0.67104 0.24493 0.0
C97 C 0.01982 0.67237 0.24993 0.0
C98 C 0.02409 0.71508 0.25479 0.0
C99 C 0.06807 0.75734 0.25462 0.0
C100 C 0.10754 0.75591 0.24938 0.0
C101 C 0.10325 0.7131 0.24458 0.0
C102 C 0.03936 0.60185 0.26645 0.0
C103 C 0.99351 0.57948 0.27196 0.0
C104 C 0.98443 0.59644 0.28504 0.0
C105 C 0.02117 0.63597 0.2927 0.0
C106 C 0.06775 0.65531 0.28783 0.0
C107 C 0.07678 0.63832 0.27478 0.0
C108 C 0.03338 0.51331 0.25793 0.0
C109 C 0.99044 0.47022 0.25754 0.0
C110 C 0.98222 0.43632 0.2676 0.0
C111 C 0.01647 0.44537 0.27843 0.0
C112 C 0.05897 0.48929 0.27901 0.0
C113 C 0.06746 0.52282 0.26877 0.0
C114 C 0.06001 0.51885 0.16053 0.0
C115 C 0.07289 0.80274 0.25992 0.0
H116 H 0.52528 0.02299 0.47403 0.0
H117 H 0.29903 0.15201 0.60186 0.0
H118 H 0.54026 0.99297 0.55298 0.0
H119 H 0.60187 0.98434 0.54088 0.0
H120 H 0.70411 0.13002 0.5529 0.0
H121 H 0.64173 0.13856 0.56462 0.0
H122 H 0.46546 0.00247 0.5349 0.0
H123 H 0.47893 -0.00211 0.50872 0.0
H124 H 0.60165 0.13862 0.51242 0.0
H125 H 0.5874 0.14289 0.53856 0.0
H126 H 0.39195 0.0104 0.55057 0.0
H127 H 0.34104 0.01292 0.53149 0.0
H128 H 0.44546 0.15891 0.52501 0.0
H129 H 0.4963 0.15594 0.54401 0.0
H130 H 0.39084 0.01591 0.58677 0.0
H131 H 0.32772 0.02556 0.59733 0.0
H132 H 0.39932 0.16998 0.58406 0.0
H133 H 0.46262 0.1601 0.57381 0.0
H134 H 0.467 0.00847 0.60286 0.0
H135 H 0.42811 0.00472 0.62597 0.0
H136 H 0.47695 0.15346 0.62465 0.0
H137 H 0.5159 0.1569 0.60152 0.0
H138 H 0.54137 0.00069 0.59004 0.0
H139 H 0.59626 0.00083 0.6081 0.0
H140 H 0.67138 0.15354 0.61099 0.0
H141 H 0.61491 0.15261 0.59348 0.0
O142 O 0.52044 0.02565 0.4844 0.0
O143 O 0.58325 0.09807 0.48689 0.0
O144 O 0.28853 0.07306 0.60459 0.0
O145 O 0.32297 0.14694 0.59753 0.0
C146 C 0.5479 0.07319 0.56478 0.0
C147 C 0.51737 0.07553 0.55449 0.0
C148 C 0.4794 0.08049 0.55935 0.0
C149 C 0.47168 0.08279 0.57442 0.0
C150 C 0.50284 0.08127 0.5847 0.0
C151 C 0.54095 0.07666 0.57987 0.0
C152 C 0.58667 0.06637 0.5596 0.0
C153 C 0.57619 0.02269 0.55322 0.0
C154 C 0.61147 0.0178 0.5464 0.0
C155 C 0.6578 0.0566 0.54588 0.0
C156 C 0.66861 0.09969 0.55298 0.0
C157 C 0.63322 0.10455 0.55977 0.0
C158 C 0.52538 0.07304 0.53858 0.0
C159 C 0.49504 0.03235 0.53 0.0
C160 C 0.50291 0.02979 0.51507 0.0
C161 C 0.54138 0.06789 0.50847 0.0
C162 C 0.5717 0.10865 0.51715 0.0
C163 C 0.5637 0.11119 0.53207 0.0
C164 C 0.44758 0.08297 0.54857 0.0
C165 C 0.40352 0.04293 0.54508 0.0
C166 C 0.37475 0.04438 0.53419 0.0
C167 C 0.38953 0.0861 0.52683 0.0
C168 C 0.43321 0.1265 0.53064 0.0
C169 C 0.46222 0.12484 0.54139 0.0
C170 C 0.43123 0.0873 0.57953 0.0
C171 C 0.39263 0.04949 0.58608 0.0
C172 C 0.35668 0.05512 0.59211 0.0
C173 C 0.35856 0.09862 0.59157 0.0
C174 C 0.39681 0.13606 0.58468 0.0
C175 C 0.43287 0.13045 0.57873 0.0
C176 C 0.49375 0.08283 0.6005 0.0
C177 C 0.47118 0.04068 0.60792 0.0
C178 C 0.44893 0.0386 0.6211 0.0
C179 C 0.44894 0.07867 0.62694 0.0
C180 C 0.476 0.12199 0.62027 0.0
C181 C 0.49845 0.12408 0.60714 0.0
C182 C 0.57426 0.07661 0.5906 0.0
C183 C 0.56966 0.03403 0.59466 0.0
C184 C 0.60127 0.03427 0.60486 0.0
C185 C 0.63824 0.07722 0.61101 0.0
C186 C 0.64286 0.11983 0.6067 0.0
C187 C 0.61089 0.11947 0.59665 0.0
C188 C 0.54977 0.06497 0.49262 0.0
C189 C 0.32114 0.10521 0.59828 0.0
H190 H 0.55419 0.68021 -0.0015 0.0
H191 H 0.27969 0.28901 0.88405 0.0
H192 H 0.55231 0.70662 0.91654 0.0
H193 H 0.61724 0.78113 0.92706 0.0
H194 H 0.71246 0.72816 0.92082 0.0
H195 H 0.64754 0.65453 0.90986 0.0
H196 H 0.48703 0.63374 0.93754 0.0
H197 H 0.50454 0.65624 0.9636 0.0
H198 H 0.61217 0.618 0.96218 0.0
H199 H 0.59435 0.59582 0.93608 0.0
H200 H 0.40831 0.54096 0.9277 0.0
H201 H 0.36398 0.48891 0.94733 0.0
H202 H 0.46341 0.43995 0.94834 0.0
H203 H 0.5086 0.49403 0.92922 0.0
H204 H 0.3931 0.5244 0.88958 0.0
H205 H 0.32188 0.449 0.88279 0.0
H206 H 0.39187 0.37515 0.89611 0.0
H207 H 0.46298 0.4508 0.90269 0.0
H208 H 0.4751 0.60764 0.86941 0.0
H209 H 0.44837 0.57858 0.84415 0.0
H210 H 0.47654 0.46568 0.85016 0.0
H211 H 0.50527 0.49641 0.875 0.0
H212 H 0.56094 0.69953 0.88571 0.0
H213 H 0.61626 0.7503 0.86762 0.0
H214 H 0.65091 0.64285 0.85653 0.0
H215 H 0.598 0.59395 0.87541 0.0
O216 O 0.54845 0.67192 0.98815 0.0
O217 O 0.59585 0.64231 0.98752 0.0
O218 O 0.27305 0.35896 0.87988 0.0
O219 O 0.30736 0.31929 0.88664 0.0
C220 C 0.55495 0.62836 0.90832 0.0
C221 C 0.52747 0.59807 0.91934 0.0
C222 C 0.48866 0.55312 0.91549 0.0
C223 C 0.47617 0.53889 0.90066 0.0
C224 C 0.5042 0.56897 0.88962 0.0
C225 C 0.54414 0.61342 0.89346 0.0
C226 C 0.59545 0.67541 0.91257 0.0
C227 C 0.58752 0.71177 0.91713 0.0
C228 C 0.62455 0.75411 0.92315 0.0
C229 C 0.66988 0.76038 0.92488 0.0
C230 C 0.67816 0.72475 0.91946 0.0
C231 C 0.64112 0.68253 0.91332 0.0
C232 C 0.53943 0.6132 0.93499 0.0
C233 C 0.5145 0.63048 0.94288 0.0
C234 C 0.52461 0.64331 0.95775 0.0
C235 C 0.55964 0.63876 0.96499 0.0
C236 C 0.58486 0.62178 0.95696 0.0
C237 C 0.57486 0.60919 0.94207 0.0
C238 C 0.46129 0.52086 0.92709 0.0
C239 C 0.42034 0.51894 0.93222 0.0
C240 C 0.395 0.48896 0.94335 0.0
C241 C 0.40996 0.45997 0.94937 0.0
C242 C 0.45122 0.46218 0.94412 0.0
C243 C 0.47685 0.49267 0.93312 0.0
C244 C 0.433 0.49297 0.8967 0.0
C245 C 0.39291 0.49187 0.89102 0.0
C246 C 0.35231 0.44878 0.88716 0.0
C247 C 0.35114 0.40601 0.88894 0.0
C248 C 0.39151 0.40738 0.89464 0.0
C249 C 0.43211 0.45051 0.89846 0.0
C250 C 0.49154 0.55373 0.87403 0.0
C251 C 0.47625 0.57716 0.86511 0.0
C252 C 0.46079 0.56038 0.85075 0.0
C253 C 0.46012 0.5197 0.84514 0.0
C254 C 0.47725 0.49752 0.854 0.0
C255 C 0.49308 0.51458 0.86828 0.0
C256 C 0.57585 0.64332 0.88196 0.0
C257 C 0.58085 0.68725 0.87945 0.0
C258 C 0.61203 0.7159 0.86896 0.0
C259 C 0.63814 0.70071 0.86058 0.0
C260 C 0.6321 0.65609 0.86294 0.0
C261 C 0.60152 0.62785 0.87361 0.0
C262 C 0.5693 0.65114 0.98088 0.0
C263 C 0.3081 0.36013 0.88486 0.0
H264 H 0.95518 0.18227 0.09992 0.0
H265 H 0.96229 0.22053 0.12393 0.0
H266 H 0.00747 0.13184 0.14288 0.0
H267 H 0.0021 0.09458 0.11877 0.0
H268 H 0.92551 0.19705 0.14943 0.0
H269 H 0.09084 0.1948 0.16929 0.0
H270 H 0.15819 0.19088 0.15897 0.0
H271 H 0.1481 0.25352 0.11991 0.0
H272 H 0.08113 0.25831 0.13006 0.0
H273 H 0.97529 0.3162 0.21791 0.0
H274 H 0.96504 0.25294 0.20052 0.0
H275 H 0.08679 0.35393 0.17709 0.0
H276 H 0.09818 0.41638 0.19478 0.0
H277 H 0.08212 0.27341 0.17485 0.0
H278 H 0.97222 0.32768 0.16863 0.0
H279 H 0.91005 0.34385 0.17662 0.0
H280 H 0.81708 0.19678 0.18398 0.0
H281 H 0.87905 0.17989 0.17623 0.0
C282 C 0.96611 0.17053 0.10922 0.0
C283 C 0.97869 0.1359 0.10744 0.0
C284 C 0.97004 0.19234 0.12296 0.0
C285 C 0.98617 0.17958 0.13516 0.0
C286 C -0.00406 0.14294 0.13356 0.0
C287 C 0.99273 0.12162 0.11978 0.0
C288 C 0.99539 0.20676 0.14927 0.0
C289 C 0.95959 0.21332 0.15507 0.0
C290 C 0.04011 0.22863 0.15651 0.0
C291 C 0.08063 0.22631 0.15036 0.0
C292 C 0.10309 0.2078 0.15851 0.0
C293 C 0.14118 0.20543 0.15269 0.0
C294 C 0.15729 0.22176 0.13877 0.0
C295 C 0.13547 0.2407 0.13066 0.0
C296 C 0.09742 0.2432 0.13644 0.0
C297 C 0.00055 0.32433 0.20927 0.0
C298 C 0.03734 0.37091 0.20757 0.0
C299 C 0.99462 0.28838 0.19933 0.0
C300 C 0.02448 0.29895 0.18731 0.0
C301 C 0.0633 0.3449 0.18627 0.0
C302 C 0.0698 0.38058 0.19637 0.0
C303 C 0.01246 0.26426 0.17488 0.0
C304 C 0.04768 0.25619 0.1694 0.0
C305 C 0.96787 0.24266 0.16756 0.0
C306 C 0.93038 0.25262 0.17202 0.0
C307 C 0.93859 0.29885 0.17202 0.0
C308 C 0.90341 0.30814 0.17651 0.0
C309 C 0.85968 0.27138 0.18084 0.0
C310 C 0.851 0.22523 0.18065 0.0
C311 C 0.88613 0.21577 0.17622 0.0
H312 H 0.83248 0.27863 0.18431 0.0
H313 H 0.18675 0.21986 0.13428 0.0
H314 H 0.87645 0.96375 0.44334 0.0
H315 H 0.83605 0.95983 0.46627 0.0
H316 H 0.87488 0.10548 0.46287 0.0
H317 H 0.91726 0.11011 0.44056 0.0
H318 H 0.88879 0.09314 0.48925 0.0
H319 H 0.75902 0.00455 0.45403 0.0
H320 H 0.71165 0.94019 0.43572 0.0
H321 H 0.68739 0.83751 0.46726 0.0
H322 H 0.73505 0.90131 0.48571 0.0
H323 H 0.71877 0.12113 0.52717 0.0
H324 H 0.77062 0.11247 0.50996 0.0
H325 H 0.72765 0.97532 0.52602 0.0
H326 H 0.6756 0.98392 0.54347 0.0
H327 H 0.72038 0.9734 0.49644 0.0
H328 H 0.83948 0.06647 0.53285 0.0
H329 H 0.88379 0.13318 0.5507 0.0
H330 H 0.92578 0.23064 0.51624 0.0
H331 H 0.88119 0.16459 0.4982 0.0
C332 C 0.87605 0.99474 0.44752 0.0
C333 C 0.89984 0.03721 0.44024 0.0
C334 C 0.85292 0.99248 0.46057 0.0
C335 C 0.85204 0.03227 0.46626 0.0
C336 C 0.87532 0.07441 0.4588 0.0
C337 C 0.89933 0.07698 0.446 0.0
C338 C 0.82735 0.03088 0.47998 0.0
C339 C 0.85186 0.06708 0.49077 0.0
C340 C 0.77969 -0.00409 0.48226 0.0
C341 C 0.75103 0.95765 0.47118 0.0
C342 C 0.74384 0.96824 0.45702 0.0
C343 C 0.7169 0.93187 0.44663 0.0
C344 C 0.69666 0.88479 0.45031 0.0
C345 C 0.70318 0.87398 0.46441 0.0
C346 C 0.73012 0.91022 0.47484 0.0
C347 C 0.72128 0.08967 0.52735 0.0
C348 C 0.69325 0.05329 0.53672 0.0
C349 C 0.75087 0.08471 0.51747 0.0
C350 C 0.75332 0.04345 0.51682 0.0
C351 C 0.72629 0.00747 0.52639 0.0
C352 C 0.69658 0.0124 0.53631 0.0
C353 C 0.78129 0.03682 0.50531 0.0
C354 C 0.75752 -0.00102 0.49502 0.0
C355 C 0.82944 0.07068 0.50336 0.0
C356 C 0.8568 0.11051 0.51418 0.0
C357 C 0.85795 0.10213 0.52908 0.0
C358 C 0.88315 0.13984 0.53924 0.0
C359 C 0.90755 0.18612 0.53461 0.0
C360 C 0.90689 0.19477 0.51981 0.0
C361 C 0.88173 0.1572 0.50961 0.0
H362 H 0.92701 0.21526 0.54249 0.0
H363 H 0.67582 0.85669 0.44225 0.0
H364 H 0.97231 0.96326 0.77223 0.0
H365 H 0.91784 0.90258 0.7885 0.0
H366 H 0.83904 0.97413 0.79336 0.0
H367 H 0.895 0.03607 0.77792 0.0
H368 H 0.84635 0.94855 0.8181 0.0
H369 H 0.80226 0.86811 0.77067 0.0
H370 H 0.81455 0.83797 0.74698 0.0
H371 H 0.85996 0.75537 0.76929 0.0
H372 H 0.84848 0.78548 0.79312 0.0
H373 H 0.62919 0.76 0.84241 0.0
H374 H 0.68795 0.81515 0.82583 0.0
H375 H 0.78201 0.76566 0.83684 0.0
H376 H 0.72463 0.71199 0.85404 0.0
H377 H 0.76924 0.77736 0.80489 0.0
H378 H 0.80833 0.85886 0.85264 0.0
H379 H 0.78895 0.88694 0.8755 0.0
H380 H 0.74481 0.96647 0.85089 0.0
H381 H 0.76322 0.93821 0.82785 0.0
C382 C 0.94334 0.96589 0.77681 0.0
C383 C 0.93784 0.00429 0.77388 0.0
C384 C 0.91203 0.93107 0.78602 0.0
C385 C 0.87378 0.93328 0.792 0.0
C386 C 0.8683 0.97163 0.78895 0.0
C387 C 0.90026 0.007 0.78011 0.0
C388 C 0.8399 0.89651 0.80172 0.0
C389 C 0.8292 0.9112 0.81506 0.0
C390 C 0.81804 0.84756 0.79799 0.0
C391 C 0.82501 0.82946 0.78367 0.0
C392 C 0.81521 0.8438 0.77052 0.0
C393 C 0.82197 0.82667 0.75707 0.0
C394 C 0.83816 0.79489 0.75663 0.0
C395 C 0.8475 0.78006 0.76965 0.0
C396 C 0.84084 0.79711 0.78313 0.0
C397 C 0.66249 0.76102 0.84143 0.0
C398 C 0.67227 0.73177 0.84968 0.0
C399 C 0.69577 0.79222 0.83185 0.0
C400 C 0.73912 0.79433 0.8302 0.0
C401 C 0.7485 0.76417 0.83796 0.0
C402 C 0.71554 0.73342 0.84772 0.0
C403 C 0.77555 0.82985 0.82093 0.0
C404 C 0.78672 0.81483 0.80779 0.0
C405 C 0.79715 0.87851 0.82467 0.0
C406 C 0.78674 0.89607 0.83852 0.0
C407 C 0.79413 0.88202 0.8521 0.0
C408 C 0.78338 0.89802 0.86508 0.0
C409 C 0.76555 0.92838 0.86464 0.0
C410 C 0.75857 0.94291 0.85121 0.0
C411 C 0.76919 0.92695 0.83819 0.0
H412 H 0.75724 0.94072 0.87471 0.0
H413 H 0.84337 0.78166 0.74621 0.0
H414 H 0.98763 0.91932 0.09813 0.0
H415 H 0.00262 0.87366 0.11527 0.0
H416 H 0.15238 0.97376 0.11411 0.0
H417 H 0.13765 0.01966 0.0966 0.0
H418 H 0.13156 0.88061 0.1149 0.0
H419 H 0.09457 0.98353 0.14179 0.0
H420 H 0.04982 0.02306 0.14785 0.0
H421 H 0.92683 0.8893 0.1561 0.0
H422 H 0.97062 0.84885 0.14986 0.0
H423 H 0.15556 0.79124 0.18428 0.0
H424 H 0.16124 0.84429 0.16534 0.0
H425 H 0.01287 0.75335 0.15491 0.0
H426 H 0.00714 0.69913 0.17325 0.0
H427 H 0.04516 0.85247 0.16145 0.0
H428 H 0.08277 0.75034 0.1322 0.0
H429 H 0.12918 0.71249 0.12626 0.0
H430 H 0.25466 0.84862 0.12339 0.0
H431 H 0.20906 0.88731 0.12953 0.0
C432 C 0.02384 0.93147 0.10138 0.0
C433 C 0.06146 0.97337 0.09619 0.0
C434 C 0.03233 0.90536 0.11119 0.0
C435 C 0.07849 0.92096 0.11616 0.0
C436 C 0.11649 0.96142 0.11044 0.0
C437 C 0.10802 0.98755 0.10049 0.0
C438 C 0.086 0.89594 0.12792 0.0
C439 C 0.11346 0.87517 0.1252 0.0
C440 C 0.06226 0.88892 0.14133 0.0
C441 C 0.03583 0.91312 0.14526 0.0
C442 C 0.05789 0.9625 0.1448 0.0
C443 C 0.0327 0.98508 0.14828 0.0
C444 C 0.98549 0.9587 0.15233 0.0
C445 C 0.9634 0.90969 0.15295 0.0
C446 C 0.98841 0.88692 0.14946 0.0
C447 C 0.12434 0.78204 0.17777 0.0
C448 C 0.08076 0.74113 0.18038 0.0
C449 C 0.12766 0.8125 0.16703 0.0
C450 C 0.08742 0.80262 0.15885 0.0
C451 C 0.04419 0.76157 0.16123 0.0
C452 C 0.04095 0.73087 0.1718 0.0
C453 C 0.08938 0.83593 0.14822 0.0
C454 C 0.06382 0.8585 0.15123 0.0
C455 C 0.11529 0.84495 0.13521 0.0
C456 C 0.14265 0.8217 0.13152 0.0
C457 C 0.12036 0.77221 0.13046 0.0
C458 C 0.14648 0.7506 0.12702 0.0
C459 C 0.19487 0.77813 0.1245 0.0
C460 C 0.2172 0.82734 0.12537 0.0
C461 C 0.19123 0.84912 0.12883 0.0
H462 H 0.21504 0.76134 0.12183 0.0
H463 H 0.96605 0.97625 0.15501 0.0
H464 H 0.19485 0.11739 0.40836 0.0
H465 H 0.24609 0.11708 0.42765 0.0
H466 H 0.13442 0.07762 0.45867 0.0
H467 H 0.08277 0.07677 0.43946 0.0
H468 H 0.28039 0.16476 0.45317 0.0
H469 H 0.13433 0.00109 0.48179 0.0
H470 H 0.05905 0.92795 0.47541 0.0
H471 H 0.10388 0.93057 0.43116 0.0
H472 H 0.17965 0.00332 0.43733 0.0
H473 H 0.36306 0.15094 0.52302 0.0
H474 H 0.31592 0.15317 0.50272 0.0
H475 H 0.30459 0.0264 0.48314 0.0
H476 H 0.35054 0.02343 0.50362 0.0
H477 H 0.22337 0.02065 0.4814 0.0
H478 H 0.38204 0.13748 0.47035 0.0
H479 H 0.46078 0.20788 0.4752 0.0
H480 H 0.39788 0.29361 0.48118 0.0
H481 H 0.31866 0.22358 0.47656 0.0
C482 C 0.18132 0.10886 0.4193 0.0
C483 C 0.13462 0.0966 0.42235 0.0
C484 C 0.21064 0.10879 0.43031 0.0
C485 C 0.19372 0.09656 0.4445 0.0
C486 C 0.14779 0.08618 0.4477 0.0
C487 C 0.11838 0.08584 0.43671 0.0
C488 C 0.22357 0.09353 0.45595 0.0
C489 C 0.26803 0.13327 0.45934 0.0
C490 C 0.20771 0.05207 0.46377 0.0
C491 C 0.16248 0.0079 0.46 0.0
C492 C 0.1282 0.98593 0.47072 0.0
C493 C 0.08543 0.94457 0.46713 0.0
C494 C 0.07663 0.92471 0.45288 0.0
C495 C 0.11066 0.94608 0.44219 0.0
C496 C 0.1535 0.98741 0.44572 0.0
C497 C 0.35043 0.12365 0.51435 0.0
C498 C 0.36029 0.08704 0.51482 0.0
C499 C 0.32373 0.12501 0.50276 0.0
C500 C 0.30738 0.09033 0.49132 0.0
C501 C 0.31685 0.05348 0.49187 0.0
C502 C 0.34298 0.05176 0.50355 0.0
C503 C 0.28 0.09214 0.47881 0.0
C504 C 0.23588 0.05215 0.47522 0.0
C505 C 0.29676 0.13295 0.47057 0.0
C506 C 0.34439 0.17521 0.47322 0.0
C507 C 0.38497 0.1713 0.47279 0.0
C508 C 0.42969 0.21114 0.47548 0.0
C509 C 0.43432 0.25517 0.47853 0.0
C510 C 0.39424 0.25947 0.47883 0.0
C511 C 0.34942 0.21973 0.47616 0.0
H512 H 0.46897 0.28597 0.48062 0.0
H513 H 0.04348 0.89271 0.45012 0.0
H514 H 0.20735 0.17447 0.75684 0.0
H515 H 0.27503 0.24355 0.7688 0.0
H516 H 0.19626 0.31559 0.77052 0.0
H517 H 0.12961 0.24757 0.75776 0.0
H518 H 0.28242 0.3765 0.7656 0.0
H519 H 0.20664 0.25654 0.8004 0.0
H520 H 0.17371 0.1776 0.81033 0.0
H521 H 0.31026 0.19065 0.80858 0.0
H522 H 0.34388 0.26947 0.79846 0.0
H523 H 0.37991 0.51138 0.83324 0.0
H524 H 0.33406 0.46128 0.81215 0.0
H525 H 0.44073 0.4248 0.80385 0.0
H526 H 0.48802 0.47646 0.82462 0.0
H527 H 0.34801 0.34862 0.81032 0.0
H528 H 0.42294 0.47919 0.77873 0.0
H529 H 0.44958 0.55987 0.77127 0.0
H530 H 0.30599 0.52869 0.77019 0.0
H531 H 0.2785 0.44801 0.77785 0.0
C532 C 0.20473 0.20523 0.75971 0.0
C533 C 0.16328 0.20572 0.75658 0.0
C534 C 0.2433 0.2446 0.76656 0.0
C535 C 0.24036 0.28438 0.77086 0.0
C536 C 0.19936 0.28532 0.76732 0.0
C537 C 0.16125 0.24642 0.76011 0.0
C538 C 0.27894 0.32396 0.7797 0.0
C539 C 0.29657 0.37041 0.77543 0.0
C540 C 0.29775 0.31607 0.79246 0.0
C541 C 0.27763 0.26863 0.79851 0.0
C542 C 0.22955 0.2424 0.80203 0.0
C543 C 0.21078 0.19772 0.80771 0.0
C544 C 0.23984 0.17905 0.81004 0.0
C545 C 0.28777 0.2051 0.80673 0.0
C546 C 0.30671 0.24979 0.80103 0.0
C547 C 0.39468 0.49431 0.82661 0.0
C548 C 0.43737 0.4974 0.83074 0.0
C549 C 0.3683 0.46557 0.81457 0.0
C550 C 0.38407 0.43937 0.80653 0.0
C551 C 0.4281 0.44483 0.80998 0.0
C552 C 0.4548 0.47401 0.82191 0.0
C553 C 0.35128 0.4009 0.79624 0.0
C554 C 0.33444 0.35458 0.80033 0.0
C555 C 0.33224 0.40913 0.78365 0.0
C556 C 0.3487 0.4576 0.77897 0.0
C557 C 0.39706 0.48963 0.77702 0.0
C558 C 0.41231 0.53536 0.77273 0.0
C559 C 0.37951 0.54943 0.77028 0.0
C560 C 0.33137 0.51775 0.77209 0.0
C561 C 0.31593 0.47199 0.77639 0.0
H562 H 0.3914 0.58484 0.76696 0.0
H563 H 0.22525 0.14446 0.81444 0.0
H564 H 0.92883 0.04541 0.69958 0.0
H565 H 0.87211 0.03391 0.68027 0.0
H566 H 0.86422 0.15223 0.69859 0.0
H567 H 0.91991 0.16335 0.71805 0.0
H568 H 0.77848 0.07946 0.69193 0.0
H569 H 0.92912 0.16098 0.6679 0.0
H570 H 0.00515 0.17156 0.65959 0.0
H571 H 0.93182 0.03982 0.63464 0.0
H572 H 0.85535 0.02817 0.64295 0.0
H573 H 0.67563 0.13564 0.63547 0.0
H574 H 0.73027 0.13679 0.65359 0.0
H575 H 0.72861 0.01948 0.63037 0.0
H576 H 0.67607 0.01997 0.61161 0.0
H577 H 0.81565 0.08294 0.63924 0.0
H578 H 0.66473 0.00397 0.66181 0.0
H579 H 0.5886 0.99355 0.66992 0.0
H580 H 0.6618 0.11936 0.69766 0.0
H581 H 0.7384 0.13092 0.68956 0.0
C582 C 0.91505 0.06901 0.69948 0.0
C583 C 0.9289 0.10533 0.71034 0.0
C584 C 0.88278 0.06248 0.68842 0.0
C585 C 0.86433 0.0925 0.68794 0.0
C586 C 0.87801 0.12863 0.69879 0.0
C587 C 0.90994 0.13499 0.70988 0.0
C588 C 0.83034 0.08631 0.67627 0.0
C589 C 0.78675 0.08063 0.68041 0.0
C590 C 0.84061 0.0863 0.66124 0.0
C591 C 0.88657 0.09347 0.65618 0.0
C592 C 0.92924 0.1341 0.66073 0.0
C593 C 0.9724 0.14032 0.656 0.0
C594 C 0.97332 0.10632 0.64663 0.0
C595 C 0.93106 0.06609 0.64192 0.0
C596 C 0.8878 0.05968 0.64663 0.0
C597 C 0.68736 0.11049 0.63406 0.0
C598 C 0.67136 0.07764 0.62208 0.0
C599 C 0.71812 0.11078 0.64455 0.0
C600 C 0.73273 0.0776 0.64348 0.0
C601 C 0.71743 0.04515 0.63146 0.0
C602 C 0.68703 0.04518 0.62083 0.0
C603 C 0.7642 0.07715 0.65492 0.0
C604 C 0.80719 0.08135 0.65075 0.0
C605 C 0.75336 0.07569 0.66994 0.0
C606 C 0.70731 0.06845 0.675 0.0
C607 C 0.66459 0.02955 0.66958 0.0
C608 C 0.62136 0.02343 0.67418 0.0
C609 C 0.62037 0.05581 0.68428 0.0
C610 C 0.66262 0.09431 0.68983 0.0
C611 C 0.70596 0.10063 0.68526 0.0
H612 H 0.58686 0.05103 0.68782 0.0
H613 H 0.00678 0.11119 0.64298 0.0
H614 H 0.00836 0.00707 0.01893 0.0
H615 H 0.96273 0.97137 -0.00385 0.0
H616 H 0.83386 0.93304 0.01887 0.0
H617 H 0.87913 0.96883 0.04167 0.0
H618 H 0.83137 0.85928 0.0014 0.0
H619 H 0.877 0.02397 -0.00199 0.0
H620 H 0.93628 0.10902 -0.00183 0.0
H621 H 0.00431 0.08522 0.96151 0.0
H622 H 0.9456 -0.00012 0.96122 0.0
H623 H 0.65618 0.79563 0.95053 0.0
H624 H 0.7161 0.84894 0.96843 0.0
H625 H 0.8259 0.86666 0.93899 0.0
H626 H 0.76568 0.81378 0.92065 0.0
H627 H 0.84655 0.9513 0.95793 0.0
H628 H 0.8012 0.78933 0.9599 0.0
H629 H 0.74569 0.70346 0.95973 0.0
H630 H 0.68323 0.72055 -0.00101 0.0
H631 H 0.7376 0.80673 -0.00082 0.0
C632 C 0.97028 0.99091 0.01908 0.0
C633 C 0.94718 0.99058 0.03206 0.0
C634 C 0.9444 0.97083 0.00606 0.0
C635 C 0.89512 0.94995 0.00589 0.0
C636 C 0.87196 0.94914 0.01885 0.0
C637 C 0.89781 0.96958 0.03183 0.0
C638 C 0.86724 0.92793 -0.00772 0.0
C639 C 0.83442 0.87942 -0.00806 0.0
C640 C 0.87277 0.95412 0.97979 0.0
C641 C 0.90717 0.00553 0.97967 0.0
C642 C 0.90472 0.03686 0.99002 0.0
C643 C 0.93818 0.08511 0.99013 0.0
C644 C 0.9741 0.10249 0.97988 0.0
C645 C 0.97646 0.07169 0.96944 0.0
C646 C 0.94305 0.02339 0.96928 0.0
C647 C 0.69295 0.81222 0.94755 0.0
C648 C 0.70621 0.80018 0.9342 0.0
C649 C 0.72716 0.84252 0.95785 0.0
C650 C 0.77519 0.86108 0.95504 0.0
C651 C 0.78887 0.85251 0.94129 0.0
C652 C 0.75451 0.82202 0.93093 0.0
C653 C 0.80974 0.88298 0.96729 0.0
C654 C 0.84387 0.93118 0.96735 0.0
C655 C 0.80606 0.85644 0.97951 0.0
C656 C 0.7732 0.80457 0.97947 0.0
C657 C 0.77527 0.77486 0.9684 0.0
C658 C 0.74403 0.72612 0.96831 0.0
C659 C 0.71092 0.70656 0.97933 0.0
C660 C 0.70886 0.73574 0.99044 0.0
C661 C 0.73987 0.78456 0.99055 0.0
H662 H 0.68704 0.66878 0.97928 0.0
H663 H 4e-05 0.13984 0.98 0.0
H664 H 0.02272 0.96682 0.35016 0.0
H665 H 0.00652 0.89246 0.33857 0.0
H666 H 0.91779 0.81705 0.37434 0.0
H667 H 0.93437 0.8922 0.38626 0.0
H668 H 0.98058 0.78799 0.36706 0.0
H669 H 0.86518 0.80478 0.34205 0.0
H670 H 0.83164 0.84557 0.32912 0.0
H671 H 0.92968 0.87525 0.29442 0.0
H672 H 0.96433 0.83531 0.30722 0.0
H673 H 0.96118 0.59984 0.31584 0.0
H674 H 0.93698 0.64316 0.33283 0.0
H675 H 0.0306 0.77232 0.3117 0.0
H676 H 0.05438 0.72977 0.29481 0.0
H677 H 0.9361 0.75209 0.31433 0.0
H678 H 0.06231 0.7531 0.34341 0.0
H679 H 0.09662 0.71343 0.3566 0.0
H680 H 0.97468 0.64834 0.38369 0.0
H681 H 0.9394 0.68722 0.37051 0.0
C682 C -0.00055 0.93455 0.35557 0.0
C683 C 0.97983 0.9355 0.36914 0.0
C684 C 0.98996 0.89195 0.34887 0.0
C685 C 0.96036 0.84921 0.35549 0.0
C686 C 0.94043 0.84971 0.36902 0.0
C687 C 0.94985 0.8926 0.37577 0.0
C688 C 0.95307 0.80488 0.34837 0.0
C689 C 0.96947 0.77912 0.35565 0.0
C690 C 0.93837 0.79324 0.33351 0.0
C691 C 0.91739 0.817 0.32563 0.0
C692 C 0.87976 0.82019 0.33169 0.0
C693 C 0.86053 0.84317 0.32438 0.0
C694 C 0.87851 0.86298 0.31096 0.0
C695 C 0.91573 0.85981 0.3048 0.0
C696 C 0.93511 0.8369 0.31207 0.0
C697 C 0.97685 0.63757 0.31499 0.0
C698 C 0.01002 0.66157 0.30413 0.0
C699 C 0.96304 0.66213 0.32465 0.0
C700 C 0.98192 0.71076 0.32342 0.0
C701 C 0.01559 0.73474 0.31277 0.0
C702 C 0.02958 0.71047 0.30326 0.0
C703 C 0.96641 0.73758 0.33278 0.0
C704 C 0.94545 0.75979 0.32589 0.0
C705 C 0.97664 0.74568 0.34796 0.0
C706 C -0.00205 0.72248 0.35585 0.0
C707 C 0.04263 0.72996 0.35208 0.0
C708 C 0.06229 0.70771 0.35958 0.0
C709 C 0.03776 0.67823 0.37094 0.0
C710 C 0.99358 0.67107 0.37486 0.0
C711 C 0.97375 0.6932 0.36738 0.0
H712 H 0.05305 0.66106 0.37673 0.0
H713 H 0.8636 0.88079 0.30532 0.0
H714 H 0.12214 0.99176 0.72208 0.0
H715 H 0.18075 0.98381 0.70772 0.0
H716 H 0.16307 0.0582 0.67288 0.0
H717 H 0.10453 0.0662 0.6871 0.0
H718 H 0.17648 0.98639 0.66249 0.0
H719 H 0.24677 0.11807 0.69809 0.0
H720 H 0.26123 0.155 0.72297 0.0
H721 H 0.31718 0.06981 0.73669 0.0
H722 H 0.30232 0.03182 0.71192 0.0
H723 H 0.38823 0.11103 0.62613 0.0
H724 H 0.32314 0.09305 0.64248 0.0
H725 H 0.36419 0.0141 0.669 0.0
H726 H 0.43006 0.0322 0.65257 0.0
H727 H 0.33765 0.07454 0.68506 0.0
H728 H 0.28006 0.95446 0.6469 0.0
H729 H 0.26805 0.92324 0.62136 0.0
H730 H 0.18868 0.98981 0.61183 0.0
H731 H 0.2015 0.02277 0.6372 0.0
C732 C 0.12985 0.00534 0.7112 0.0
C733 C 0.10921 0.03011 0.70576 0.0
C734 C 0.16346 0.00093 0.70306 0.0
C735 C 0.17668 0.02109 0.68936 0.0
C736 C 0.15339 0.04252 0.68345 0.0
C737 C 0.12006 0.04718 0.6916 0.0
C738 C 0.2179 0.02437 0.68179 0.0
C739 C 0.21172 0.00557 0.6674 0.0
C740 C 0.26369 0.04872 0.68836 0.0
C741 C 0.27283 0.07165 0.70322 0.0
C742 C 0.26176 0.10692 0.70645 0.0
C743 C 0.27009 0.12808 0.72052 0.0
C744 C 0.28995 0.11464 0.73142 0.0
C745 C 0.30167 0.08009 0.72825 0.0
C746 C 0.29329 0.05872 0.7142 0.0
C747 C 0.38423 0.09087 0.63564 0.0
C748 C 0.41436 0.07324 0.63816 0.0
C749 C 0.34674 0.08023 0.64488 0.0
C750 C 0.33868 0.05181 0.6568 0.0
C751 C 0.36991 0.03594 0.65979 0.0
C752 C 0.40733 0.04622 0.65043 0.0
C753 C 0.2963 0.03744 0.66566 0.0
C754 C 0.30229 0.05429 0.68026 0.0
C755 C 0.25038 0.01167 0.65923 0.0
C756 C 0.2421 0.99144 0.64397 0.0
C757 C 0.26046 0.96289 0.63934 0.0
C758 C 0.25351 0.94488 0.62488 0.0
C759 C 0.2277 0.95462 0.61497 0.0
C760 C 0.20868 0.9823 0.61952 0.0
C761 C 0.21587 0.00076 0.63393 0.0
H762 H 0.22237 0.94066 0.60378 0.0
H763 H 0.2964 0.13108 0.74231 0.0
H764 H 0.08887 0.22266 0.03388 0.0
H765 H 0.15417 0.27344 0.01844 0.0
H766 H 0.24512 0.23664 0.04087 0.0
H767 H 0.17955 0.18494 0.05645 0.0
H768 H 0.28565 0.33962 0.03254 0.0
H769 H 0.20665 0.17872 0.01285 0.0
H770 H 0.13557 0.10224 0.006 0.0
H771 H 0.09293 0.16977 0.97548 0.0
H772 H 0.16335 0.24684 0.98235 0.0
H773 H 0.44355 0.43743 0.97332 0.0
H774 H 0.39762 0.38434 -0.00749 0.0
H775 H 0.26867 0.35828 0.97146 0.0
H776 H 0.31393 0.40835 0.95175 0.0
H777 H 0.25617 0.28009 0.98065 0.0
H778 H 0.32437 0.43928 0.00174 0.0
H779 H 0.38986 0.51889 0.00916 0.0
H780 H 0.44809 0.45856 0.03701 0.0
H781 H 0.3832 0.37852 0.0296 0.0
C782 C 0.12288 0.22585 0.03577 0.0
C783 C 0.1288 0.19915 0.04625 0.0
C784 C 0.16014 0.25495 0.02693 0.0
C785 C 0.20398 0.25807 0.02845 0.0
C786 C 0.2113 0.23437 0.03958 0.0
C787 C 0.17381 0.20486 0.04842 0.0
C788 C 0.24009 0.28254 0.0174 0.0
C789 C 0.28002 0.32634 0.02123 0.0
C790 C 0.23182 0.26519 0.00268 0.0
C791 C 0.19016 0.21862 -0.00181 0.0
C792 C 0.18198 0.17732 0.00474 0.0
C793 C 0.1418 0.13385 0.00085 0.0
C794 C 0.10968 0.13116 0.99033 0.0
C795 C 0.11781 0.17191 0.98363 0.0
C796 C 0.15789 0.21549 0.98751 0.0
C797 C 0.40537 0.41975 0.97263 0.0
C798 C 0.38245 0.42748 0.96103 0.0
C799 C 0.37921 0.38985 0.98372 0.0
C800 C 0.32975 0.36794 0.98355 0.0
C801 C 0.30683 0.37493 0.97185 0.0
C802 C 0.33283 0.40414 0.96068 0.0
C803 C 0.30138 0.3383 -0.00439 0.0
C804 C 0.26272 0.29322 -0.00802 0.0
C805 C 0.3105 0.35489 0.01046 0.0
C806 C 0.3493 0.40296 0.01498 0.0
C807 C 0.35133 0.44301 0.00937 0.0
C808 C 0.38831 0.48819 0.01358 0.0
C809 C 0.4232 0.49378 0.02351 0.0
C810 C 0.42109 0.45418 0.02929 0.0
C811 C 0.38423 0.4089 0.02509 0.0
H812 H 0.4518 0.52879 0.02676 0.0
H813 H 0.07853 0.09751 0.98736 0.0
H814 H 0.90059 0.10534 0.36684 0.0
H815 H 0.90186 0.15986 0.34916 0.0
H816 H 0.05383 0.24408 0.3538 0.0
H817 H 0.05265 0.19083 0.3717 0.0
H818 H 0.01902 0.29895 0.35464 0.0
H819 H -0.00223 0.16877 0.3236 0.0
H820 H 0.95973 0.0858 0.31445 0.0
H821 H 0.83175 0.08533 0.30501 0.0
H822 H 0.86886 0.16818 0.3143 0.0
H823 H 0.08095 0.42481 0.28937 0.0
H824 H 0.06781 0.3663 0.30714 0.0
H825 H 0.92021 0.32287 0.30853 0.0
H826 H 0.93323 0.38304 0.2913 0.0
H827 H 0.94611 0.24701 0.30488 0.0
H828 H 0.97471 0.38287 0.33528 0.0
H829 H 0.01937 0.46723 0.34307 0.0
H830 H 0.14179 0.4573 0.35228 0.0
H831 H 0.09804 0.373 0.34432 0.0
C832 C 0.9342 0.13548 0.36405 0.0
C833 C 0.97649 0.14396 0.37065 0.0
C834 C 0.93491 0.16645 0.35392 0.0
C835 C 0.97799 0.20584 0.35009 0.0
C836 C 0.02018 0.21405 0.35664 0.0
C837 C 0.01945 0.18352 0.36685 0.0
C838 C 0.97951 0.2393 0.3395 0.0
C839 C 0.00333 0.2875 0.34373 0.0
C840 C 0.95838 0.22434 0.32535 0.0
C841 C 0.9359 0.17448 0.31982 0.0
C842 C 0.96137 0.15084 0.3197 0.0
C843 C 0.94001 0.10386 0.31446 0.0
C844 C 0.8933 0.08026 0.3092 0.0
C845 C 0.86789 0.10363 0.30913 0.0
C846 C 0.88908 0.1506 0.31437 0.0
C847 C 0.04579 0.40342 0.29359 0.0
C848 C 0.00822 0.40896 0.28897 0.0
C849 C 0.03832 0.36971 0.30362 0.0
C850 C 0.99312 0.34057 0.30908 0.0
C851 C 0.95528 0.34507 0.30432 0.0
C852 C 0.96282 0.37932 0.29444 0.0
C853 C 0.98598 0.30618 0.32004 0.0
C854 C 0.96121 0.25804 0.31587 0.0
C855 C 0.007 0.32117 0.33415 0.0
C856 C 0.03322 0.37174 0.33908 0.0
C857 C 0.01127 0.39877 0.33884 0.0
C858 C 0.03639 0.44656 0.34331 0.0
C859 C 0.08342 0.46764 0.34814 0.0
C860 C 0.10537 0.44094 0.34853 0.0
C861 C 0.08042 0.39314 0.34406 0.0
H862 H 0.10281 0.50464 0.35159 0.0
H863 H 0.87683 0.0439 0.30514 0.0
loop_
_geom_bond_atom_site_label_1
_geom_bond_atom_site_label_2
_geom_bond_distance
_geom_bond_site_symmetry_2
_ccdc_geom_bond_type
C0 O1 1.306 . S
C0 O3 1.160 . S
O1 C0 1.306 . S
O1 Cd2 2.228 . S
Cd2 O1 2.228 . S
Cd2 O6 2.273 1_455 S
Cd2 O10 2.277 . S
O3 C0 1.160 . S
O3 Cd4 2.203 . S
Cd4 O3 2.203 . S
Cd4 O6 2.411 1_455 S
Cd4 O7 2.333 . S
Cd4 O8 2.352 . S
Cd4 O12 2.277 . S
Cd4 O13 2.356 . S
C5 O10 1.209 . S
C5 O12 1.226 . S
O6 Cd2 2.273 1_655 S
O6 Cd4 2.411 1_655 S
O6 C9 1.320 . S
O7 Cd4 2.333 . S
O7 C9 1.214 1_455 S
O8 Cd4 2.352 . S
O8 C11 1.258 . S
C9 O6 1.320 . S
C9 O7 1.214 1_655 S
O10 Cd2 2.277 . S
O10 C5 1.209 . S
C11 O8 1.258 . S
C11 O13 1.282 . S
O12 Cd4 2.277 . S
O12 C5 1.226 . S
O13 Cd4 2.356 . S
O13 C11 1.282 . S
C14 O15 1.306 . S
C14 O17 1.160 . S
O15 C14 1.306 . S
O15 Cd16 2.228 . S
Cd16 O15 2.228 . S
Cd16 O20 2.273 . S
Cd16 O24 2.277 . S
O17 C14 1.160 . S
O17 Cd18 2.203 1_455 S
Cd18 O17 2.203 1_655 S
Cd18 O20 2.411 1_655 S
Cd18 O21 2.333 . S
Cd18 O22 2.352 . S
Cd18 O26 2.277 1_545 S
Cd18 O27 2.356 . S
C19 O24 1.209 1_565 S
C19 O26 1.226 1_455 S
O20 Cd16 2.273 . S
O20 Cd18 2.411 1_455 S
O20 C23 1.320 . S
O21 Cd18 2.333 . S
O21 C23 1.214 1_655 S
O22 Cd18 2.352 . S
O22 C25 1.258 . S
C23 O20 1.320 . S
C23 O21 1.214 1_455 S
O24 Cd16 2.277 . S
O24 C19 1.209 1_545 S
C25 O22 1.258 . S
C25 O27 1.282 . S
O26 Cd18 2.277 1_565 S
O26 C19 1.226 1_655 S
O27 Cd18 2.356 . S
O27 C25 1.282 . S
C28 O29 1.306 1_655 S
C28 O31 1.160 1_655 S
O29 C28 1.306 1_455 S
O29 Cd30 2.228 . S
Cd30 O29 2.228 . S
Cd30 O34 2.273 . S
Cd30 O38 2.277 . S
O31 C28 1.160 1_455 S
O31 Cd32 2.203 . S
Cd32 O31 2.203 . S
Cd32 O34 2.411 . S
Cd32 O35 2.333 . S
Cd32 O36 2.352 . S
Cd32 O40 2.277 . S
Cd32 O41 2.356 . S
C33 O38 1.213 1_655 S
C33 O40 1.219 1_655 S
O34 Cd30 2.273 . S
O34 Cd32 2.411 . S
O34 C37 1.320 . S
O35 Cd32 2.333 . S
O35 C37 1.214 . S
O36 Cd32 2.352 . S
O36 C39 1.258 . S
C37 O34 1.320 . S
C37 O35 1.214 . S
O38 Cd30 2.277 . S
O38 C33 1.213 1_455 S
C39 O36 1.258 . S
C39 O41 1.282 . S
O40 Cd32 2.277 . S
O40 C33 1.219 1_455 S
O41 Cd32 2.356 . S
O41 C39 1.282 . S
H42 O68 0.856 . S
H43 O71 0.854 . S
H44 C79 0.930 . S
H45 C80 0.930 . S
H46 C82 0.930 . S
H47 C83 0.930 . S
H48 C85 0.931 1_655 S
H49 C86 0.930 1_655 S
H50 C88 0.930 . S
H51 C89 0.929 . S
H52 C91 0.930 1_655 S
H53 C92 0.931 1_655 S
H54 C94 0.930 . S
H55 C95 0.929 . S
H56 C97 0.927 1_655 S
H57 C98 0.930 1_655 S
H58 C100 0.930 . S
H59 C101 0.932 . S
H60 C103 0.930 . S
H61 C104 0.929 . S
H62 C106 0.931 . S
H63 C107 0.930 . S
H64 C109 0.929 . S
H65 C110 0.931 . S
H66 C112 0.930 . S
H67 C113 0.929 . S
O68 H42 0.856 . S
O68 C114 1.300 . S
O69 C114 1.209 . S
O70 C115 1.199 . S
O71 H43 0.854 . S
O71 C115 1.297 . S
C72 C73 1.404 . S
C72 C77 1.397 . S
C72 C78 1.492 . S
C73 C72 1.404 . S
C73 C74 1.396 . S
C73 C84 1.492 . S
C74 C73 1.396 . S
C74 C75 1.397 . S
C74 C90 1.509 . S
C75 C74 1.397 . S
C75 C76 1.412 . S
C75 C96 1.485 . S
C76 C75 1.412 . S
C76 C77 1.388 . S
C76 C102 1.490 . S
C77 C72 1.397 . S
C77 C76 1.388 . S
C77 C108 1.519 . S
C78 C72 1.492 . S
C78 C79 1.363 1_455 S
C78 C83 1.390 . S
C79 H44 0.930 . S
C79 C78 1.363 1_655 S
C79 C80 1.372 . S
C80 H45 0.930 . S
C80 C79 1.372 . S
C80 C81 1.383 1_655 S
C81 C80 1.383 1_455 S
C81 C82 1.395 . S
C82 H46 0.930 . S
C82 C81 1.395 . S
C82 C83 1.362 . S
C83 H47 0.930 . S
C83 C78 1.390 . S
C83 C82 1.362 . S
C84 C73 1.492 . S
C84 C85 1.377 . S
C84 C89 1.397 . S
C85 H48 0.931 1_455 S
C85 C84 1.377 . S
C85 C86 1.376 . S
C86 H49 0.930 1_455 S
C86 C85 1.376 . S
C86 C87 1.376 . S
C87 C86 1.376 . S
C87 C88 1.378 . S
C87 C114 1.486 . S
C88 H50 0.930 . S
C88 C87 1.378 . S
C88 C89 1.376 . S
C89 H51 0.929 . S
C89 C84 1.397 . S
C89 C88 1.376 . S
C90 C74 1.509 . S
C90 C91 1.391 . S
C90 C95 1.386 . S
C91 H52 0.930 1_455 S
C91 C90 1.391 . S
C91 C92 1.375 . S
C92 H53 0.931 1_455 S
C92 C91 1.375 . S
C92 C93 1.375 . S
C93 C92 1.375 . S
C93 C94 1.361 . S
C94 H54 0.930 . S
C94 C93 1.361 . S
C94 C95 1.399 . S
C95 H55 0.929 . S
C95 C90 1.386 . S
C95 C94 1.399 . S
C96 C75 1.485 . S
C96 C97 1.402 . S
C96 C101 1.360 . S
C97 H56 0.927 1_455 S
C97 C96 1.402 . S
C97 C98 1.368 . S
C98 H57 0.930 1_455 S
C98 C97 1.368 . S
C98 C99 1.397 . S
C99 C98 1.397 . S
C99 C100 1.390 . S
C99 C115 1.476 . S
C100 H58 0.930 . S
C100 C99 1.390 . S
C100 C101 1.366 . S
C101 H59 0.932 . S
C101 C96 1.360 . S
C101 C100 1.366 . S
C102 C76 1.490 . S
C102 C103 1.380 1_455 S
C102 C107 1.386 . S
C103 H60 0.930 . S
C103 C102 1.380 1_655 S
C103 C104 1.381 . S
C104 H61 0.929 . S
C104 C103 1.381 . S
C104 C105 1.371 1_655 S
C105 C104 1.371 1_455 S
C105 C106 1.380 . S
C106 H62 0.931 . S
C106 C105 1.380 . S
C106 C107 1.387 . S
C107 H63 0.930 . S
C107 C102 1.386 . S
C107 C106 1.387 . S
C108 C77 1.519 . S
C108 C109 1.377 1_455 S
C108 C113 1.361 . S
C109 H64 0.929 . S
C109 C108 1.377 1_655 S
C109 C110 1.386 . S
C110 H65 0.931 . S
C110 C109 1.386 . S
C110 C111 1.363 1_655 S
C111 C110 1.363 1_455 S
C111 C112 1.385 . S
C112 H66 0.930 . S
C112 C111 1.385 . S
C112 C113 1.396 . S
C113 H67 0.929 . S
C113 C108 1.361 . S
C113 C112 1.396 . S
C114 O68 1.300 . S
C114 O69 1.209 . S
C114 C87 1.486 . S
C115 O70 1.199 . S
C115 O71 1.297 . S
C115 C99 1.476 . S
H116 O142 0.856 . S
H117 O145 0.854 . S
H118 C153 0.930 . S
H119 C154 0.930 1_565 S
H120 C156 0.930 . S
H121 C157 0.930 . S
H122 C159 0.931 . S
H123 C160 0.930 . S
H124 C162 0.930 . S
H125 C163 0.929 . S
H126 C165 0.930 . S
H127 C166 0.931 . S
H128 C168 0.930 . S
H129 C169 0.929 . S
H130 C171 0.931 . S
H131 C172 0.930 . S
H132 C174 0.930 . S
H133 C175 0.932 . S
H134 C177 0.930 . S
H135 C178 0.929 . S
H136 C180 0.931 . S
H137 C181 0.930 . S
H138 C183 0.929 . S
H139 C184 0.931 . S
H140 C186 0.930 . S
H141 C187 0.929 . S
O142 H116 0.856 . S
O142 C188 1.300 . S
O143 C188 1.209 . S
O144 C189 1.199 . S
O145 H117 0.854 . S
O145 C189 1.297 . S
C146 C147 1.404 . S
C146 C151 1.397 . S
C146 C152 1.492 . S
C147 C146 1.404 . S
C147 C148 1.396 . S
C147 C158 1.492 . S
C148 C147 1.396 . S
C148 C149 1.397 . S
C148 C164 1.509 . S
C149 C148 1.397 . S
C149 C150 1.412 . S
C149 C170 1.485 . S
C150 C149 1.412 . S
C150 C151 1.388 . S
C150 C176 1.490 . S
C151 C146 1.397 . S
C151 C150 1.388 . S
C151 C182 1.519 . S
C152 C146 1.492 . S
C152 C153 1.363 . S
C152 C157 1.390 . S
C153 H118 0.930 . S
C153 C152 1.363 . S
C153 C154 1.372 . S
C154 H119 0.930 1_545 S
C154 C153 1.372 . S
C154 C155 1.383 . S
C155 C154 1.383 . S
C155 C156 1.395 . S
C156 H120 0.930 . S
C156 C155 1.395 . S
C156 C157 1.362 . S
C157 H121 0.930 . S
C157 C152 1.390 . S
C157 C156 1.362 . S
C158 C147 1.492 . S
C158 C159 1.377 . S
C158 C163 1.397 . S
C159 H122 0.931 . S
C159 C158 1.377 . S
C159 C160 1.376 . S
C160 H123 0.930 . S
C160 C159 1.376 . S
C160 C161 1.376 . S
C161 C160 1.376 . S
C161 C162 1.378 . S
C161 C188 1.486 . S
C162 H124 0.930 . S
C162 C161 1.378 . S
C162 C163 1.376 . S
C163 H125 0.929 . S
C163 C158 1.397 . S
C163 C162 1.376 . S
C164 C148 1.509 . S
C164 C165 1.391 . S
C164 C169 1.386 . S
C165 H126 0.930 . S
C165 C164 1.391 . S
C165 C166 1.375 . S
C166 H127 0.931 . S
C166 C165 1.375 . S
C166 C167 1.375 . S
C167 C166 1.375 . S
C167 C168 1.361 . S
C168 H128 0.930 . S
C168 C167 1.361 . S
C168 C169 1.399 . S
C169 H129 0.929 . S
C169 C164 1.386 . S
C169 C168 1.399 . S
C170 C149 1.485 . S
C170 C171 1.394 . S
C170 C175 1.360 . S
C171 H130 0.931 . S
C171 C170 1.394 . S
C171 C172 1.372 . S
C172 H131 0.930 . S
C172 C171 1.372 . S
C172 C173 1.397 . S
C173 C172 1.397 . S
C173 C174 1.390 . S
C173 C189 1.476 . S
C174 H132 0.930 . S
C174 C173 1.390 . S
C174 C175 1.366 . S
C175 H133 0.932 . S
C175 C170 1.360 . S
C175 C174 1.366 . S
C176 C150 1.490 . S
C176 C177 1.380 . S
C176 C181 1.386 . S
C177 H134 0.930 . S
C177 C176 1.380 . S
C177 C178 1.381 . S
C178 H135 0.929 . S
C178 C177 1.381 . S
C178 C179 1.371 . S
C179 C178 1.371 . S
C179 C180 1.380 . S
C180 H136 0.931 . S
C180 C179 1.380 . S
C180 C181 1.387 . S
C181 H137 0.930 . S
C181 C176 1.386 . S
C181 C180 1.387 . S
C182 C151 1.519 . S
C182 C183 1.377 . S
C182 C187 1.361 . S
C183 H138 0.929 . S
C183 C182 1.377 . S
C183 C184 1.386 . S
C184 H139 0.931 . S
C184 C183 1.386 . S
C184 C185 1.363 . S
C185 C184 1.363 . S
C185 C186 1.385 . S
C186 H140 0.930 . S
C186 C185 1.385 . S
C186 C187 1.396 . S
C187 H141 0.929 . S
C187 C182 1.361 . S
C187 C186 1.396 . S
C188 O142 1.300 . S
C188 O143 1.209 . S
C188 C161 1.486 . S
C189 O144 1.199 . S
C189 O145 1.297 . S
C189 C173 1.476 . S
H190 O216 0.856 . S
H191 O219 0.854 . S
H192 C227 0.930 . S
H193 C228 0.930 . S
H194 C230 0.930 . S
H195 C231 0.930 . S
H196 C233 0.931 . S
H197 C234 0.930 . S
H198 C236 0.930 . S
H199 C237 0.929 . S
H200 C239 0.930 . S
H201 C240 0.931 . S
H202 C242 0.930 . S
H203 C243 0.929 . S
H204 C245 0.931 . S
H205 C246 0.930 . S
H206 C248 0.930 . S
H207 C249 0.932 . S
H208 C251 0.930 . S
H209 C252 0.929 . S
H210 C254 0.931 . S
H211 C255 0.930 . S
H212 C257 0.929 . S
H213 C258 0.931 . S
H214 C260 0.930 . S
H215 C261 0.929 . S
O216 H190 0.856 . S
O216 C262 1.325 . S
O217 C262 1.223 . S
O218 C263 1.199 . S
O219 H191 0.854 . S
O219 C263 1.297 . S
C220 C221 1.404 . S
C220 C225 1.397 . S
C220 C226 1.492 . S
C221 C220 1.404 . S
C221 C222 1.396 . S
C221 C232 1.492 . S
C222 C221 1.396 . S
C222 C223 1.397 . S
C222 C238 1.509 . S
C223 C222 1.397 . S
C223 C224 1.412 . S
C223 C244 1.485 . S
C224 C223 1.412 . S
C224 C225 1.388 . S
C224 C250 1.490 . S
C225 C220 1.397 . S
C225 C224 1.388 . S
C225 C256 1.519 . S
C226 C220 1.492 . S
C226 C227 1.363 . S
C226 C231 1.390 . S
C227 H192 0.930 . S
C227 C226 1.363 . S
C227 C228 1.372 . S
C228 H193 0.930 . S
C228 C227 1.372 . S
C228 C229 1.383 . S
C229 C228 1.383 . S
C229 C230 1.395 . S
C230 H194 0.930 . S
C230 C229 1.395 . S
C230 C231 1.362 . S
C231 H195 0.930 . S
C231 C226 1.390 . S
C231 C230 1.362 . S
C232 C221 1.492 . S
C232 C233 1.377 . S
C232 C237 1.397 . S
C233 H196 0.931 . S
C233 C232 1.377 . S
C233 C234 1.376 . S
C234 H197 0.930 . S
C234 C233 1.376 . S
C234 C235 1.376 . S
C235 C234 1.376 . S
C235 C236 1.378 . S
C235 C262 1.446 1_556 S
C236 H198 0.930 . S
C236 C235 1.378 . S
C236 C237 1.376 . S
C237 H199 0.929 . S
C237 C232 1.397 . S
C237 C236 1.376 . S
C238 C222 1.509 . S
C238 C239 1.391 . S
C238 C243 1.386 . S
C239 H200 0.930 . S
C239 C238 1.391 . S
C239 C240 1.375 . S
C240 H201 0.931 . S
C240 C239 1.375 . S
C240 C241 1.375 . S
C241 C240 1.375 . S
C241 C242 1.361 . S
C242 H202 0.930 . S
C242 C241 1.361 . S
C242 C243 1.399 . S
C243 H203 0.929 . S
C243 C238 1.386 . S
C243 C242 1.399 . S
C244 C223 1.485 . S
C244 C245 1.394 . S
C244 C249 1.360 . S
C245 H204 0.931 . S
C245 C244 1.394 . S
C245 C246 1.372 . S
C246 H205 0.930 . S
C246 C245 1.372 . S
C246 C247 1.397 . S
C247 C246 1.397 . S
C247 C248 1.390 . S
C247 C263 1.476 . S
C248 H206 0.930 . S
C248 C247 1.390 . S
C248 C249 1.366 . S
C249 H207 0.932 . S
C249 C244 1.360 . S
C249 C248 1.366 . S
C250 C224 1.490 . S
C250 C251 1.380 . S
C250 C255 1.386 . S
C251 H208 0.930 . S
C251 C250 1.380 . S
C251 C252 1.381 . S
C252 H209 0.929 . S
C252 C251 1.381 . S
C252 C253 1.371 . S
C253 C252 1.371 . S
C253 C254 1.380 . S
C254 H210 0.931 . S
C254 C253 1.380 . S
C254 C255 1.387 . S
C255 H211 0.930 . S
C255 C250 1.386 . S
C255 C254 1.387 . S
C256 C225 1.519 . S
C256 C257 1.377 . S
C256 C261 1.361 . S
C257 H212 0.929 . S
C257 C256 1.377 . S
C257 C258 1.386 . S
C258 H213 0.931 . S
C258 C257 1.386 . S
C258 C259 1.363 . S
C259 C258 1.363 . S
C259 C260 1.385 . S
C260 H214 0.930 . S
C260 C259 1.385 . S
C260 C261 1.396 . S
C261 H215 0.929 . S
C261 C256 1.361 . S
C261 C260 1.396 . S
C262 O216 1.325 . S
C262 O217 1.223 . S
C262 C235 1.446 1_554 S
C263 O218 1.199 . S
C263 O219 1.297 . S
C263 C247 1.476 . S
H264 C282 0.951 . S
H265 C284 0.951 . S
H266 C286 0.948 1_655 S
H267 C287 0.950 . S
H268 C289 0.950 . S
H269 C292 0.950 . S
H270 C293 0.950 . S
H271 C295 0.950 . S
H272 C296 0.950 . S
H273 C297 0.951 . S
H274 C299 0.951 . S
H275 C301 0.950 . S
H276 C302 0.950 . S
H277 C304 0.950 . S
H278 C307 0.950 . S
H279 C308 0.950 . S
H280 C310 0.950 . S
H281 C311 0.950 . S
C282 H264 0.951 . S
C282 C283 1.366 . S
C282 C284 1.388 . S
C283 C282 1.366 . S
C283 C287 1.385 . S
C284 H265 0.951 . S
C284 C282 1.388 . S
C284 C285 1.366 . S
C285 C284 1.366 . S
C285 C286 1.414 . S
C285 C288 1.499 . S
C286 H266 0.948 1_455 S
C286 C285 1.414 . S
C286 C287 1.374 . S
C287 H267 0.950 . S
C287 C283 1.385 . S
C287 C286 1.374 . S
C288 C285 1.499 . S
C288 C289 1.373 1_455 S
C288 C290 1.389 . S
C289 H268 0.950 . S
C289 C288 1.373 1_655 S
C289 C305 1.377 . S
C290 C288 1.389 . S
C290 C291 1.524 . S
C290 C304 1.377 . S
C291 C290 1.524 . S
C291 C292 1.397 . S
C291 C296 1.363 . S
C292 H269 0.950 . S
C292 C291 1.397 . S
C292 C293 1.334 . S
C293 H270 0.950 . S
C293 C292 1.334 . S
C293 C294 1.287 . S
C294 C293 1.287 . S
C294 C295 1.524 . S
C294 H313 0.913 . S
C295 H271 0.950 . S
C295 C294 1.524 . S
C295 C296 1.415 . S
C296 H272 0.950 . S
C296 C291 1.363 . S
C296 C295 1.415 . S
C297 H273 0.951 . S
C297 C298 1.366 1_655 S
C297 C299 1.388 . S
C298 C297 1.366 1_455 S
C298 C302 1.385 . S
C299 H274 0.951 . S
C299 C297 1.388 . S
C299 C300 1.366 1_655 S
C300 C299 1.366 1_455 S
C300 C301 1.414 . S
C300 C303 1.499 . S
C301 H275 0.950 . S
C301 C300 1.414 . S
C301 C302 1.374 . S
C302 H276 0.950 . S
C302 C298 1.385 . S
C302 C301 1.374 . S
C303 C300 1.499 . S
C303 C304 1.373 . S
C303 C305 1.389 1_455 S
C304 H277 0.950 . S
C304 C290 1.377 . S
C304 C303 1.373 . S
C305 C289 1.377 . S
C305 C303 1.389 1_655 S
C305 C306 1.524 . S
C306 C305 1.524 . S
C306 C307 1.397 . S
C306 C311 1.363 . S
C307 H278 0.950 . S
C307 C306 1.397 . S
C307 C308 1.334 . S
C308 H279 0.950 . S
C308 C307 1.334 . S
C308 C309 1.287 . S
C309 C308 1.287 . S
C309 C310 1.524 . S
C309 H312 0.999 . S
C310 H280 0.950 . S
C310 C309 1.524 . S
C310 C311 1.415 . S
C311 H281 0.950 . S
C311 C306 1.363 . S
C311 C310 1.415 . S
H312 C309 0.999 . S
H313 C294 0.913 . S
H314 C332 0.951 1_565 S
H315 C334 0.951 1_565 S
H316 C336 0.950 . S
H317 C337 0.950 . S
H318 C339 0.950 . S
H319 C342 0.950 . S
H320 C343 0.950 . S
H321 C345 0.950 . S
H322 C346 0.950 . S
H323 C347 0.951 . S
H324 C349 0.951 . S
H325 C351 0.950 . S
H326 C352 0.950 . S
H327 C354 0.950 1_565 S
H328 C357 0.950 . S
H329 C358 0.950 . S
H330 C360 0.950 . S
H331 C361 0.950 . S
C332 H314 0.951 1_545 S
C332 C333 1.366 . S
C332 C334 1.388 . S
C333 C332 1.366 . S
C333 C337 1.385 . S
C334 H315 0.951 1_545 S
C334 C332 1.388 . S
C334 C335 1.366 . S
C335 C334 1.366 . S
C335 C336 1.414 . S
C335 C338 1.499 . S
C336 H316 0.950 . S
C336 C335 1.414 . S
C336 C337 1.374 . S
C337 H317 0.950 . S
C337 C333 1.385 . S
C337 C336 1.374 . S
C338 C335 1.499 . S
C338 C339 1.373 . S
C338 C340 1.389 . S
C339 H318 0.950 . S
C339 C338 1.373 . S
C339 C355 1.377 . S
C340 C338 1.389 . S
C340 C341 1.524 1_545 S
C340 C354 1.377 . S
C341 C340 1.524 1_565 S
C341 C342 1.397 . S
C341 C346 1.363 . S
C342 H319 0.950 . S
C342 C341 1.397 . S
C342 C343 1.334 . S
C343 H320 0.950 . S
C343 C342 1.334 . S
C343 C344 1.287 . S
C344 C343 1.287 . S
C344 C345 1.524 . S
C344 H363 0.913 . S
C345 H321 0.950 . S
C345 C344 1.524 . S
C345 C346 1.415 . S
C346 H322 0.950 . S
C346 C341 1.363 . S
C346 C345 1.415 . S
C347 H323 0.951 . S
C347 C348 1.366 . S
C347 C349 1.388 . S
C348 C347 1.366 . S
C348 C352 1.385 . S
C349 H324 0.951 . S
C349 C347 1.388 . S
C349 C350 1.366 . S
C350 C349 1.366 . S
C350 C351 1.414 . S
C350 C353 1.499 . S
C351 H325 0.950 . S
C351 C350 1.414 . S
C351 C352 1.374 . S
C352 H326 0.950 . S
C352 C348 1.385 . S
C352 C351 1.374 . S
C353 C350 1.499 . S
C353 C354 1.373 . S
C353 C355 1.389 . S
C354 H327 0.950 1_545 S
C354 C340 1.377 . S
C354 C353 1.373 . S
C355 C339 1.377 . S
C355 C353 1.389 . S
C355 C356 1.524 . S
C356 C355 1.524 . S
C356 C357 1.397 . S
C356 C361 1.363 . S
C357 H328 0.950 . S
C357 C356 1.397 . S
C357 C358 1.334 . S
C358 H329 0.950 . S
C358 C357 1.334 . S
C358 C359 1.287 . S
C359 C358 1.287 . S
C359 C360 1.524 . S
C359 H362 0.999 . S
C360 H330 0.950 . S
C360 C359 1.524 . S
C360 C361 1.415 . S
C361 H331 0.950 . S
C361 C356 1.363 . S
C361 C360 1.415 . S
H362 C359 0.999 . S
H363 C344 0.913 . S
H364 C382 0.951 . S
H365 C384 0.951 . S
H366 C386 0.950 . S
H367 C387 0.950 1_545 S
H368 C389 0.950 . S
H369 C392 0.950 . S
H370 C393 0.950 . S
H371 C395 0.950 . S
H372 C396 0.950 . S
H373 C397 0.951 . S
H374 C399 0.951 . S
H375 C401 0.950 . S
H376 C402 0.950 . S
H377 C404 0.950 . S
H378 C407 0.950 . S
H379 C408 0.950 . S
H380 C410 0.950 . S
H381 C411 0.950 . S
C382 H364 0.951 . S
C382 C383 1.366 . S
C382 C384 1.388 . S
C383 C382 1.366 . S
C383 C387 1.385 . S
C384 H365 0.951 . S
C384 C382 1.388 . S
C384 C385 1.366 . S
C385 C384 1.366 . S
C385 C386 1.414 . S
C385 C388 1.499 . S
C386 H366 0.950 . S
C386 C385 1.414 . S
C386 C387 1.374 . S
C387 H367 0.950 1_565 S
C387 C383 1.385 . S
C387 C386 1.374 . S
C388 C385 1.499 . S
C388 C389 1.373 . S
C388 C390 1.389 . S
C389 H368 0.950 . S
C389 C388 1.373 . S
C389 C405 1.377 . S
C390 C388 1.389 . S
C390 C391 1.524 . S
C390 C404 1.377 . S
C391 C390 1.524 . S
C391 C392 1.397 . S
C391 C396 1.363 . S
C392 H369 0.950 . S
C392 C391 1.397 . S
C392 C393 1.334 . S
C393 H370 0.950 . S
C393 C392 1.334 . S
C393 C394 1.287 . S
C394 C393 1.287 . S
C394 C395 1.524 . S
C394 H413 0.913 . S
C395 H371 0.950 . S
C395 C394 1.524 . S
C395 C396 1.415 . S
C396 H372 0.950 . S
C396 C391 1.363 . S
C396 C395 1.415 . S
C397 H373 0.951 . S
C397 C398 1.366 . S
C397 C399 1.388 . S
C398 C397 1.366 . S
C398 C402 1.385 . S
C399 H374 0.951 . S
C399 C397 1.388 . S
C399 C400 1.366 . S
C400 C399 1.366 . S
C400 C401 1.414 . S
C400 C403 1.499 . S
C401 H375 0.950 . S
C401 C400 1.414 . S
C401 C402 1.374 . S
C402 H376 0.950 . S
C402 C398 1.385 . S
C402 C401 1.374 . S
C403 C400 1.499 . S
C403 C404 1.373 . S
C403 C405 1.389 . S
C404 H377 0.950 . S
C404 C390 1.377 . S
C404 C403 1.373 . S
C405 C389 1.377 . S
C405 C403 1.389 . S
C405 C406 1.524 . S
C406 C405 1.524 . S
C406 C407 1.397 . S
C406 C411 1.363 . S
C407 H378 0.950 . S
C407 C406 1.397 . S
C407 C408 1.334 . S
C408 H379 0.950 . S
C408 C407 1.334 . S
C408 C409 1.287 . S
C409 C408 1.287 . S
C409 C410 1.524 . S
C409 H412 0.999 . S
C410 H380 0.950 . S
C410 C409 1.524 . S
C410 C411 1.415 . S
C411 H381 0.950 . S
C411 C406 1.363 . S
C411 C410 1.415 . S
H412 C409 0.999 . S
H413 C394 0.913 . S
H414 C432 0.951 1_655 S
H415 C434 0.951 1_655 S
H416 C436 0.950 . S
H417 C437 0.950 1_545 S
H418 C439 0.950 . S
H419 C442 0.950 . S
H420 C443 0.950 1_545 S
H421 C445 0.950 . S
H422 C446 0.950 . S
H423 C447 0.951 . S
H424 C449 0.951 . S
H425 C451 0.950 1_655 S
H426 C452 0.950 1_655 S
H427 C454 0.950 . S
H428 C457 0.950 . S
H429 C458 0.950 . S
H430 C460 0.950 . S
H431 C461 0.950 . S
C432 H414 0.951 1_455 S
C432 C433 1.366 . S
C432 C434 1.388 . S
C433 C432 1.366 . S
C433 C437 1.385 . S
C434 H415 0.951 1_455 S
C434 C432 1.388 . S
C434 C435 1.366 . S
C435 C434 1.366 . S
C435 C436 1.414 . S
C435 C438 1.499 . S
C436 H416 0.950 . S
C436 C435 1.414 . S
C436 C437 1.374 . S
C437 H417 0.950 1_565 S
C437 C433 1.385 . S
C437 C436 1.374 . S
C438 C435 1.499 . S
C438 C439 1.373 . S
C438 C440 1.389 . S
C439 H418 0.950 . S
C439 C438 1.373 . S
C439 C455 1.377 . S
C440 C438 1.389 . S
C440 C441 1.524 . S
C440 C454 1.377 . S
C441 C440 1.524 . S
C441 C442 1.397 . S
C441 C446 1.363 1_455 S
C442 H419 0.950 . S
C442 C441 1.397 . S
C442 C443 1.334 . S
C443 H420 0.950 1_565 S
C443 C442 1.334 . S
C443 C444 1.287 1_455 S
C444 C443 1.287 1_655 S
C444 C445 1.524 . S
C444 H463 0.913 . S
C445 H421 0.950 . S
C445 C444 1.524 . S
C445 C446 1.415 . S
C446 H422 0.950 . S
C446 C441 1.363 1_655 S
C446 C445 1.415 . S
C447 H423 0.951 . S
C447 C448 1.366 . S
C447 C449 1.388 . S
C448 C447 1.366 . S
C448 C452 1.385 . S
C449 H424 0.951 . S
C449 C447 1.388 . S
C449 C450 1.366 . S
C450 C449 1.366 . S
C450 C451 1.414 . S
C450 C453 1.499 . S
C451 H425 0.950 1_455 S
C451 C450 1.414 . S
C451 C452 1.374 . S
C452 H426 0.950 1_455 S
C452 C448 1.385 . S
C452 C451 1.374 . S
C453 C450 1.499 . S
C453 C454 1.373 . S
C453 C455 1.389 . S
C454 H427 0.950 . S
C454 C440 1.377 . S
C454 C453 1.373 . S
C455 C439 1.377 . S
C455 C453 1.389 . S
C455 C456 1.524 . S
C456 C455 1.524 . S
C456 C457 1.397 . S
C456 C461 1.363 . S
C457 H428 0.950 . S
C457 C456 1.397 . S
C457 C458 1.334 . S
C458 H429 0.950 . S
C458 C457 1.334 . S
C458 C459 1.287 . S
C459 C458 1.287 . S
C459 C460 1.524 . S
C459 H462 0.999 . S
C460 H430 0.950 . S
C460 C459 1.524 . S
C460 C461 1.415 . S
C461 H431 0.950 . S
C461 C456 1.363 . S
C461 C460 1.415 . S
H462 C459 0.999 . S
H463 C444 0.913 . S
H464 C482 0.951 1_565 S
H465 C484 0.951 . S
H466 C486 0.950 . S
H467 C487 0.950 . S
H468 C489 0.950 . S
H469 C492 0.944 1_545 S
H470 C493 0.950 . S
H471 C495 0.950 . S
H472 C496 0.950 . S
H473 C497 0.951 . S
H474 C499 0.951 . S
H475 C501 0.950 . S
H476 C502 0.950 . S
H477 C504 0.950 . S
H478 C507 0.950 . S
H479 C508 0.950 . S
H480 C510 0.950 . S
H481 C511 0.950 . S
C482 H464 0.951 1_545 S
C482 C483 1.366 . S
C482 C484 1.388 . S
C483 C482 1.366 . S
C483 C487 1.385 . S
C484 H465 0.951 . S
C484 C482 1.388 . S
C484 C485 1.366 . S
C485 C484 1.366 . S
C485 C486 1.414 . S
C485 C488 1.499 . S
C486 H466 0.950 . S
C486 C485 1.414 . S
C486 C487 1.374 . S
C487 H467 0.950 . S
C487 C483 1.385 . S
C487 C486 1.374 . S
C488 C485 1.499 . S
C488 C489 1.373 . S
C488 C490 1.389 . S
C489 H468 0.950 . S
C489 C488 1.373 . S
C489 C505 1.377 . S
C490 C488 1.389 . S
C490 C491 1.524 1_545 S
C490 C504 1.377 . S
C491 C490 1.524 1_565 S
C491 C492 1.397 . S
C491 C496 1.363 . S
C492 H469 0.944 1_565 S
C492 C491 1.397 . S
C492 C493 1.334 . S
C493 H470 0.950 . S
C493 C492 1.334 . S
C493 C494 1.287 . S
C494 C493 1.287 . S
C494 C495 1.524 . S
C494 H513 0.913 . S
C495 H471 0.950 . S
C495 C494 1.524 . S
C495 C496 1.415 . S
C496 H472 0.950 . S
C496 C491 1.363 . S
C496 C495 1.415 . S
C497 H473 0.951 . S
C497 C498 1.366 . S
C497 C499 1.388 . S
C498 C497 1.366 . S
C498 C502 1.385 . S
C499 H474 0.951 . S
C499 C497 1.388 . S
C499 C500 1.366 . S
C500 C499 1.366 . S
C500 C501 1.414 . S
C500 C503 1.499 . S
C501 H475 0.950 . S
C501 C500 1.414 . S
C501 C502 1.374 . S
C502 H476 0.950 . S
C502 C498 1.385 . S
C502 C501 1.374 . S
C503 C500 1.499 . S
C503 C504 1.373 . S
C503 C505 1.389 . S
C504 H477 0.950 . S
C504 C490 1.377 . S
C504 C503 1.373 . S
C505 C489 1.377 . S
C505 C503 1.389 . S
C505 C506 1.524 . S
C506 C505 1.524 . S
C506 C507 1.397 . S
C506 C511 1.363 . S
C507 H478 0.950 . S
C507 C506 1.397 . S
C507 C508 1.334 . S
C508 H479 0.950 . S
C508 C507 1.334 . S
C508 C509 1.287 . S
C509 C508 1.287 . S
C509 C510 1.524 . S
C509 H512 0.999 . S
C510 H480 0.950 . S
C510 C509 1.524 . S
C510 C511 1.415 . S
C511 H481 0.950 . S
C511 C506 1.363 . S
C511 C510 1.415 . S
H512 C509 0.999 . S
H513 C494 0.913 . S
H514 C532 0.951 . S
H515 C534 0.951 . S
H516 C536 0.950 . S
H517 C537 0.950 . S
H518 C539 0.950 . S
H519 C542 0.950 . S
H520 C543 0.950 . S
H521 C545 0.950 . S
H522 C546 0.950 . S
H523 C547 0.951 . S
H524 C549 0.951 . S
H525 C551 0.950 . S
H526 C552 0.950 . S
H527 C554 0.950 . S
H528 C557 0.950 . S
H529 C558 0.950 . S
H530 C560 0.950 . S
H531 C561 0.950 . S
C532 H514 0.951 . S
C532 C533 1.366 . S
C532 C534 1.388 . S
C533 C532 1.366 . S
C533 C537 1.385 . S
C534 H515 0.951 . S
C534 C532 1.388 . S
C534 C535 1.366 . S
C535 C534 1.366 . S
C535 C536 1.414 . S
C535 C538 1.499 . S
C536 H516 0.950 . S
C536 C535 1.414 . S
C536 C537 1.374 . S
C537 H517 0.950 . S
C537 C533 1.385 . S
C537 C536 1.374 . S
C538 C535 1.499 . S
C538 C539 1.373 . S
C538 C540 1.389 . S
C539 H518 0.950 . S
C539 C538 1.373 . S
C539 C555 1.377 . S
C540 C538 1.389 . S
C540 C541 1.524 . S
C540 C554 1.377 . S
C541 C540 1.524 . S
C541 C542 1.397 . S
C541 C546 1.363 . S
C542 H519 0.950 . S
C542 C541 1.397 . S
C542 C543 1.334 . S
C543 H520 0.950 . S
C543 C542 1.334 . S
C543 C544 1.287 . S
C544 C543 1.287 . S
C544 C545 1.524 . S
C544 H563 0.913 . S
C545 H521 0.950 . S
C545 C544 1.524 . S
C545 C546 1.415 . S
C546 H522 0.950 . S
C546 C541 1.363 . S
C546 C545 1.415 . S
C547 H523 0.951 . S
C547 C548 1.366 . S
C547 C549 1.388 . S
C548 C547 1.366 . S
C548 C552 1.385 . S
C549 H524 0.951 . S
C549 C547 1.388 . S
C549 C550 1.366 . S
C550 C549 1.366 . S
C550 C551 1.414 . S
C550 C553 1.499 . S
C551 H525 0.950 . S
C551 C550 1.414 . S
C551 C552 1.374 . S
C552 H526 0.950 . S
C552 C548 1.385 . S
C552 C551 1.374 . S
C553 C550 1.499 . S
C553 C554 1.373 . S
C553 C555 1.389 . S
C554 H527 0.950 . S
C554 C540 1.377 . S
C554 C553 1.373 . S
C555 C539 1.377 . S
C555 C553 1.389 . S
C555 C556 1.524 . S
C556 C555 1.524 . S
C556 C557 1.397 . S
C556 C561 1.363 . S
C557 H528 0.950 . S
C557 C556 1.397 . S
C557 C558 1.334 . S
C558 H529 0.950 . S
C558 C557 1.334 . S
C558 C559 1.287 . S
C559 C558 1.287 . S
C559 C560 1.524 . S
C559 H562 0.999 . S
C560 H530 0.950 . S
C560 C559 1.524 . S
C560 C561 1.415 . S
C561 H531 0.950 . S
C561 C556 1.363 . S
C561 C560 1.415 . S
H562 C559 0.999 . S
H563 C544 0.913 . S
H564 C582 0.951 . S
H565 C584 0.951 . S
H566 C586 0.950 . S
H567 C587 0.950 . S
H568 C589 0.950 . S
H569 C592 0.950 . S
H570 C593 0.950 1_455 S
H571 C595 0.950 . S
H572 C596 0.950 . S
H573 C597 0.951 . S
H574 C599 0.951 . S
H575 C601 0.950 . S
H576 C602 0.950 . S
H577 C604 0.950 . S
H578 C607 0.950 . S
H579 C608 0.950 . S
H580 C610 0.950 . S
H581 C611 0.950 . S
C582 H564 0.951 . S
C582 C583 1.366 . S
C582 C584 1.388 . S
C583 C582 1.366 . S
C583 C587 1.385 . S
C584 H565 0.951 . S
C584 C582 1.388 . S
C584 C585 1.366 . S
C585 C584 1.366 . S
C585 C586 1.414 . S
C585 C588 1.499 . S
C586 H566 0.950 . S
C586 C585 1.414 . S
C586 C587 1.374 . S
C587 H567 0.950 . S
C587 C583 1.385 . S
C587 C586 1.374 . S
C588 C585 1.499 . S
C588 C589 1.373 . S
C588 C590 1.389 . S
C589 H568 0.950 . S
C589 C588 1.373 . S
C589 C605 1.377 . S
C590 C588 1.389 . S
C590 C591 1.524 . S
C590 C604 1.377 . S
C591 C590 1.524 . S
C591 C592 1.397 . S
C591 C596 1.363 . S
C592 H569 0.950 . S
C592 C591 1.397 . S
C592 C593 1.334 . S
C593 H570 0.950 1_655 S
C593 C592 1.334 . S
C593 C594 1.287 . S
C594 C593 1.287 . S
C594 C595 1.524 . S
C594 H613 0.913 . S
C595 H571 0.950 . S
C595 C594 1.524 . S
C595 C596 1.415 . S
C596 H572 0.950 . S
C596 C591 1.363 . S
C596 C595 1.415 . S
C597 H573 0.951 . S
C597 C598 1.366 . S
C597 C599 1.388 . S
C598 C597 1.366 . S
C598 C602 1.385 . S
C599 H574 0.951 . S
C599 C597 1.388 . S
C599 C600 1.366 . S
C600 C599 1.366 . S
C600 C601 1.414 . S
C600 C603 1.499 . S
C601 H575 0.950 . S
C601 C600 1.414 . S
C601 C602 1.374 . S
C602 H576 0.950 . S
C602 C598 1.385 . S
C602 C601 1.374 . S
C603 C600 1.499 . S
C603 C604 1.373 . S
C603 C605 1.389 . S
C604 H577 0.950 . S
C604 C590 1.377 . S
C604 C603 1.373 . S
C605 C589 1.377 . S
C605 C603 1.389 . S
C605 C606 1.524 . S
C606 C605 1.524 . S
C606 C607 1.397 . S
C606 C611 1.363 . S
C607 H578 0.950 . S
C607 C606 1.397 . S
C607 C608 1.334 . S
C608 H579 0.950 . S
C608 C607 1.334 . S
C608 C609 1.287 . S
C609 C608 1.287 . S
C609 C610 1.524 . S
C609 H612 0.999 . S
C610 H580 0.950 . S
C610 C609 1.524 . S
C610 C611 1.415 . S
C611 H581 0.950 . S
C611 C606 1.363 . S
C611 C610 1.415 . S
H612 C609 0.999 . S
H613 C594 0.913 . S
H614 C632 0.951 . S
H615 C634 0.951 . S
H616 C636 0.950 . S
H617 C637 0.950 . S
H618 C639 0.950 . S
H619 C642 0.950 1_565 S
H620 C643 0.950 . S
H621 C645 0.950 . S
H622 C646 0.950 . S
H623 C647 0.951 . S
H624 C649 0.951 . S
H625 C651 0.950 . S
H626 C652 0.950 . S
H627 C654 0.950 . S
H628 C657 0.950 . S
H629 C658 0.950 . S
H630 C660 0.950 . S
H631 C661 0.950 . S
C632 H614 0.951 . S
C632 C633 1.366 1_545 S
C632 C634 1.388 1_545 S
C633 C632 1.366 1_565 S
C633 C637 1.385 . S
C634 H615 0.951 . S
C634 C632 1.388 1_565 S
C634 C635 1.366 . S
C635 C634 1.366 . S
C635 C636 1.414 . S
C635 C638 1.499 . S
C636 H616 0.950 . S
C636 C635 1.414 . S
C636 C637 1.374 . S
C637 H617 0.950 . S
C637 C633 1.385 . S
C637 C636 1.374 . S
C638 C635 1.499 . S
C638 C639 1.373 . S
C638 C640 1.389 . S
C639 H618 0.950 . S
C639 C638 1.373 . S
C639 C655 1.377 1_554 S
C640 C638 1.389 . S
C640 C641 1.524 . S
C640 C654 1.377 1_554 S
C641 C640 1.524 . S
C641 C642 1.397 1_565 S
C641 C646 1.363 1_564 S
C642 H619 0.950 1_545 S
C642 C641 1.397 1_545 S
C642 C643 1.334 . S
C643 H620 0.950 . S
C643 C642 1.334 . S
C643 C644 1.287 . S
C644 C643 1.287 . S
C644 C645 1.524 1_554 S
C644 H663 0.913 . S
C645 H621 0.950 . S
C645 C644 1.524 1_556 S
C645 C646 1.415 . S
C646 H622 0.950 . S
C646 C641 1.363 1_546 S
C646 C645 1.415 . S
C647 H623 0.951 . S
C647 C648 1.366 . S
C647 C649 1.388 . S
C648 C647 1.366 . S
C648 C652 1.385 . S
C649 H624 0.951 . S
C649 C647 1.388 . S
C649 C650 1.366 . S
C650 C649 1.366 . S
C650 C651 1.414 . S
C650 C653 1.499 . S
C651 H625 0.950 . S
C651 C650 1.414 . S
C651 C652 1.374 . S
C652 H626 0.950 . S
C652 C648 1.385 . S
C652 C651 1.374 . S
C653 C650 1.499 . S
C653 C654 1.373 . S
C653 C655 1.389 . S
C654 H627 0.950 . S
C654 C640 1.377 1_556 S
C654 C653 1.373 . S
C655 C639 1.377 1_556 S
C655 C653 1.389 . S
C655 C656 1.524 . S
C656 C655 1.524 . S
C656 C657 1.397 . S
C656 C661 1.363 1_556 S
C657 H628 0.950 . S
C657 C656 1.397 . S
C657 C658 1.334 . S
C658 H629 0.950 . S
C658 C657 1.334 . S
C658 C659 1.287 . S
C659 C658 1.287 . S
C659 C660 1.524 1_556 S
C659 H662 0.999 . S
C660 H630 0.950 . S
C660 C659 1.524 1_554 S
C660 C661 1.415 . S
C661 H631 0.950 . S
C661 C656 1.363 1_554 S
C661 C660 1.415 . S
H662 C659 0.999 . S
H663 C644 0.913 . S
H664 C682 0.951 . S
H665 C684 0.951 . S
H666 C686 0.950 . S
H667 C687 0.950 . S
H668 C689 0.950 . S
H669 C692 0.950 . S
H670 C693 0.950 . S
H671 C695 0.955 . S
H672 C696 0.950 . S
H673 C697 0.951 . S
H674 C699 0.951 . S
H675 C701 0.950 . S
H676 C702 0.950 . S
H677 C704 0.952 . S
H678 C707 0.950 . S
H679 C708 0.950 . S
H680 C710 0.950 1_655 S
H681 C711 0.950 . S
C682 H664 0.951 . S
C682 C683 1.366 . S
C682 C684 1.388 . S
C683 C682 1.366 . S
C683 C687 1.385 1_455 S
C684 H665 0.951 . S
C684 C682 1.388 . S
C684 C685 1.366 1_455 S
C685 C684 1.366 1_655 S
C685 C686 1.414 . S
C685 C688 1.498 . S
C686 H666 0.950 . S
C686 C685 1.414 . S
C686 C687 1.374 . S
C687 H667 0.950 . S
C687 C683 1.385 1_655 S
C687 C686 1.374 . S
C688 C685 1.498 . S
C688 C689 1.373 1_655 S
C688 C690 1.389 . S
C689 H668 0.950 . S
C689 C688 1.373 1_455 S
C689 C705 1.377 . S
C690 C688 1.389 . S
C690 C691 1.524 . S
C690 C704 1.385 . S
C691 C690 1.524 . S
C691 C692 1.397 . S
C691 C696 1.363 1_655 S
C692 H669 0.950 . S
C692 C691 1.397 . S
C692 C693 1.334 . S
C693 H670 0.950 . S
C693 C692 1.334 . S
C693 C694 1.287 . S
C694 C693 1.287 . S
C694 C695 1.505 1_655 S
C694 H713 0.913 . S
C695 H671 0.955 . S
C695 C694 1.505 1_455 S
C695 C696 1.427 . S
C696 H672 0.950 . S
C696 C691 1.363 1_455 S
C696 C695 1.427 . S
C697 H673 0.951 . S
C697 C698 1.366 1_655 S
C697 C699 1.388 . S
C698 C697 1.366 1_455 S
C698 C702 1.385 . S
C699 H674 0.951 . S
C699 C697 1.388 . S
C699 C700 1.366 1_655 S
C700 C699 1.366 1_455 S
C700 C701 1.414 . S
C700 C703 1.499 . S
C701 H675 0.950 . S
C701 C700 1.414 . S
C701 C702 1.374 . S
C702 H676 0.950 . S
C702 C698 1.385 . S
C702 C701 1.374 . S
C703 C700 1.499 . S
C703 C704 1.363 1_455 S
C703 C705 1.389 . S
C704 H677 0.952 . S
C704 C690 1.385 . S
C704 C703 1.363 1_655 S
C705 C689 1.377 . S
C705 C703 1.389 . S
C705 C706 1.524 . S
C706 C705 1.524 . S
C706 C707 1.397 . S
C706 C711 1.363 1_455 S
C707 H678 0.950 . S
C707 C706 1.397 . S
C707 C708 1.334 . S
C708 H679 0.950 . S
C708 C707 1.334 . S
C708 C709 1.287 . S
C709 C708 1.287 . S
C709 C710 1.524 . S
C709 H712 0.999 . S
C710 H680 0.950 1_455 S
C710 C709 1.524 . S
C710 C711 1.415 1_455 S
C711 H681 0.950 . S
C711 C706 1.363 1_655 S
C711 C710 1.415 1_655 S
H712 C709 0.999 . S
H713 C694 0.913 . S
H714 C732 0.951 . S
H715 C734 0.951 . S
H716 C736 0.950 . S
H717 C737 0.950 . S
H718 C739 0.950 . S
H719 C742 0.950 . S
H720 C743 0.950 . S
H721 C745 0.950 . S
H722 C746 0.950 . S
H723 C747 0.951 . S
H724 C749 0.951 . S
H725 C751 0.950 . S
H726 C752 0.950 . S
H727 C754 0.950 . S
H728 C757 0.950 . S
H729 C758 0.950 . S
H730 C760 0.950 . S
H731 C761 0.950 . S
C732 H714 0.951 . S
C732 C733 1.366 . S
C732 C734 1.388 . S
C733 C732 1.366 . S
C733 C737 1.385 . S
C734 H715 0.951 . S
C734 C732 1.388 . S
C734 C735 1.366 . S
C735 C734 1.366 . S
C735 C736 1.414 . S
C735 C738 1.499 . S
C736 H716 0.950 . S
C736 C735 1.414 . S
C736 C737 1.374 . S
C737 H717 0.950 . S
C737 C733 1.385 . S
C737 C736 1.374 . S
C738 C735 1.499 . S
C738 C739 1.373 . S
C738 C740 1.389 . S
C739 H718 0.950 . S
C739 C738 1.373 . S
C739 C755 1.377 . S
C740 C738 1.389 . S
C740 C741 1.524 . S
C740 C754 1.377 . S
C741 C740 1.524 . S
C741 C742 1.397 . S
C741 C746 1.363 . S
C742 H719 0.950 . S
C742 C741 1.397 . S
C742 C743 1.334 . S
C743 H720 0.950 . S
C743 C742 1.334 . S
C743 C744 1.287 . S
C744 C743 1.287 . S
C744 C745 1.524 . S
C744 H763 0.913 . S
C745 H721 0.950 . S
C745 C744 1.524 . S
C745 C746 1.415 . S
C746 H722 0.950 . S
C746 C741 1.363 . S
C746 C745 1.415 . S
C747 H723 0.951 . S
C747 C748 1.366 . S
C747 C749 1.388 . S
C748 C747 1.366 . S
C748 C752 1.385 . S
C749 H724 0.951 . S
C749 C747 1.388 . S
C749 C750 1.366 . S
C750 C749 1.366 . S
C750 C751 1.414 . S
C750 C753 1.499 . S
C751 H725 0.950 . S
C751 C750 1.414 . S
C751 C752 1.374 . S
C752 H726 0.950 . S
C752 C748 1.385 . S
C752 C751 1.374 . S
C753 C750 1.499 . S
C753 C754 1.373 . S
C753 C755 1.389 . S
C754 H727 0.950 . S
C754 C740 1.377 . S
C754 C753 1.373 . S
C755 C739 1.377 . S
C755 C753 1.389 . S
C755 C756 1.524 . S
C756 C755 1.524 . S
C756 C757 1.397 1_545 S
C756 C761 1.363 . S
C757 H728 0.950 . S
C757 C756 1.397 1_565 S
C757 C758 1.334 . S
C758 H729 0.950 . S
C758 C757 1.334 . S
C758 C759 1.287 . S
C759 C758 1.287 . S
C759 C760 1.524 . S
C759 H762 0.999 . S
C760 H730 0.950 . S
C760 C759 1.524 . S
C760 C761 1.415 1_565 S
C761 H731 0.950 . S
C761 C756 1.363 . S
C761 C760 1.415 1_545 S
H762 C759 0.999 . S
H763 C744 0.913 . S
H764 C782 0.951 . S
H765 C784 0.951 . S
H766 C786 0.950 . S
H767 C787 0.950 . S
H768 C789 0.950 . S
H769 C792 0.950 . S
H770 C793 0.950 1_554 S
H771 C795 0.950 . S
H772 C796 0.950 . S
H773 C797 0.951 . S
H774 C799 0.907 1_554 S
H775 C801 0.950 . S
H776 C802 0.950 . S
H777 C804 0.948 . S
H778 C807 0.950 . S
H779 C808 0.950 . S
H780 C810 0.950 . S
H781 C811 0.950 . S
C782 H764 0.951 . S
C782 C783 1.366 . S
C782 C784 1.388 . S
C783 C782 1.366 . S
C783 C787 1.385 . S
C784 H765 0.951 . S
C784 C782 1.388 . S
C784 C785 1.366 . S
C785 C784 1.366 . S
C785 C786 1.414 . S
C785 C788 1.499 . S
C786 H766 0.950 . S
C786 C785 1.414 . S
C786 C787 1.374 . S
C787 H767 0.950 . S
C787 C783 1.385 . S
C787 C786 1.374 . S
C788 C785 1.499 . S
C788 C789 1.373 . S
C788 C790 1.389 . S
C789 H768 0.950 . S
C789 C788 1.373 . S
C789 C805 1.377 . S
C790 C788 1.389 . S
C790 C791 1.524 . S
C790 C804 1.378 1_554 S
C791 C790 1.524 . S
C791 C792 1.397 . S
C791 C796 1.363 1_554 S
C792 H769 0.950 . S
C792 C791 1.397 . S
C792 C793 1.334 1_554 S
C793 H770 0.950 1_556 S
C793 C792 1.334 1_556 S
C793 C794 1.287 . S
C794 C793 1.287 . S
C794 C795 1.524 . S
C794 H813 0.913 . S
C795 H771 0.950 . S
C795 C794 1.524 . S
C795 C796 1.415 . S
C796 H772 0.950 . S
C796 C791 1.363 1_556 S
C796 C795 1.415 . S
C797 H773 0.951 . S
C797 C798 1.366 . S
C797 C799 1.388 . S
C798 C797 1.366 . S
C798 C802 1.385 . S
C799 H774 0.907 1_556 S
C799 C797 1.388 . S
C799 C800 1.366 . S
C800 C799 1.366 . S
C800 C801 1.414 . S
C800 C803 1.499 1_556 S
C801 H775 0.950 . S
C801 C800 1.414 . S
C801 C802 1.374 . S
C802 H776 0.950 . S
C802 C798 1.385 . S
C802 C801 1.374 . S
C803 C800 1.499 1_554 S
C803 C804 1.374 1_554 S
C803 C805 1.389 . S
C804 H777 0.948 . S
C804 C790 1.378 1_556 S
C804 C803 1.374 1_556 S
C805 C789 1.377 . S
C805 C803 1.389 . S
C805 C806 1.524 . S
C806 C805 1.524 . S
C806 C807 1.397 . S
C806 C811 1.363 . S
C807 H778 0.950 . S
C807 C806 1.397 . S
C807 C808 1.334 . S
C808 H779 0.950 . S
C808 C807 1.334 . S
C808 C809 1.287 . S
C809 C808 1.287 . S
C809 C810 1.524 . S
C809 H812 0.999 . S
C810 H780 0.950 . S
C810 C809 1.524 . S
C810 C811 1.415 . S
C811 H781 0.950 . S
C811 C806 1.363 . S
C811 C810 1.415 . S
H812 C809 0.999 . S
H813 C794 0.913 . S
H814 C832 0.951 . S
H815 C834 0.951 . S
H816 C836 0.950 . S
H817 C837 0.950 . S
H818 C839 0.950 . S
H819 C842 0.950 . S
H820 C843 0.939 1_455 S
H821 C845 0.950 . S
H822 C846 0.950 . S
H823 C847 0.951 . S
H824 C849 0.951 . S
H825 C851 0.950 . S
H826 C852 0.950 . S
H827 C854 0.950 1_655 S
H828 C857 0.950 . S
H829 C858 0.950 . S
H830 C860 0.950 . S
H831 C861 0.950 . S
C832 H814 0.951 . S
C832 C833 1.366 1_655 S
C832 C834 1.388 . S
C833 C832 1.366 1_455 S
C833 C837 1.385 . S
C834 H815 0.951 . S
C834 C832 1.388 . S
C834 C835 1.366 1_655 S
C835 C834 1.366 1_455 S
C835 C836 1.414 . S
C835 C838 1.499 . S
C836 H816 0.950 . S
C836 C835 1.414 . S
C836 C837 1.374 . S
C837 H817 0.950 . S
C837 C833 1.385 . S
C837 C836 1.374 . S
C838 C835 1.499 . S
C838 C839 1.373 . S
C838 C840 1.389 . S
C839 H818 0.950 . S
C839 C838 1.373 . S
C839 C855 1.377 . S
C840 C838 1.389 . S
C840 C841 1.524 1_455 S
C840 C854 1.377 . S
C841 C840 1.524 1_655 S
C841 C842 1.397 1_655 S
C841 C846 1.363 . S
C842 H819 0.950 . S
C842 C841 1.397 1_455 S
C842 C843 1.337 1_455 S
C843 H820 0.939 1_655 S
C843 C842 1.337 1_655 S
C843 C844 1.296 . S
C844 C843 1.296 . S
C844 C845 1.524 . S
C844 H863 0.913 . S
C845 H821 0.950 . S
C845 C844 1.524 . S
C845 C846 1.415 . S
C846 H822 0.950 . S
C846 C841 1.363 . S
C846 C845 1.415 . S
C847 H823 0.951 . S
C847 C848 1.366 . S
C847 C849 1.388 . S
C848 C847 1.366 . S
C848 C852 1.385 1_455 S
C849 H824 0.951 . S
C849 C847 1.388 . S
C849 C850 1.366 . S
C850 C849 1.366 . S
C850 C851 1.414 1_455 S
C850 C853 1.499 . S
C851 H825 0.950 . S
C851 C850 1.414 1_655 S
C851 C852 1.374 . S
C852 H826 0.950 . S
C852 C848 1.385 1_655 S
C852 C851 1.374 . S
C853 C850 1.499 . S
C853 C854 1.373 . S
C853 C855 1.389 . S
C854 H827 0.950 1_455 S
C854 C840 1.377 . S
C854 C853 1.373 . S
C855 C839 1.377 . S
C855 C853 1.389 . S
C855 C856 1.524 . S
C856 C855 1.524 . S
C856 C857 1.397 . S
C856 C861 1.363 . S
C857 H828 0.950 . S
C857 C856 1.397 . S
C857 C858 1.334 . S
C858 H829 0.950 . S
C858 C857 1.334 . S
C858 C859 1.287 . S
C859 C858 1.287 . S
C859 C860 1.524 . S
C859 H862 0.999 . S
C860 H830 0.950 . S
C860 C859 1.524 . S
C860 C861 1.415 . S
C861 H831 0.950 . S
C861 C856 1.363 . S
C861 C860 1.415 . S
H862 C859 0.999 . S
H863 C844 0.913 . S
C298 C81 1.360 . S
C283 C0 1.433 . S
C333 C25 1.380 . S
C348 C155 1.316 . S
C383 C33 2.215 1_565 S
C398 C259 2.213 . S
C433 C11 0.674 1_565 S
C448 C93 0.675 . S
C498 C167 0.678 . S
C483 C14 0.678 . S
C533 C37 1.458 . S
C548 C253 1.370 . S
C598 C185 2.211 . S
C583 C28 2.214 . S
C633 C9 1.506 1_565 S
C648 C229 1.426 . S
C698 C105 1.423 . S
C683 C19 1.509 . S
C748 C179 1.312 . S
C733 C39 1.386 . S
C798 C241 0.724 . S
C783 C5 0.724 . S
C833 C23 2.329 . S
C848 C111 2.329 . S
