# Generated by pormake.
# Topology pyr, (3,6)-cn, num edge types: 1
# Building blocks:
#     Node 0, Type 0, BuildingBlock: PAMTOO_clean_linker_0, # of connection points: 3
#     Node 1, Type 0, BuildingBlock: PAMTOO_clean_linker_0, # of connection points: 3
#     Node 2, Type 0, BuildingBlock: PAMTOO_clean_linker_0, # of connection points: 3
#     Node 3, Type 0, BuildingBlock: PAMTOO_clean_linker_0, # of connection points: 3
#     Node 4, Type 0, BuildingBlock: PAMTOO_clean_linker_0, # of connection points: 3
#     Node 5, Type 0, BuildingBlock: PAMTOO_clean_linker_0, # of connection points: 3
#     Node 6, Type 0, BuildingBlock: PAMTOO_clean_linker_0, # of connection points: 3
#     Node 7, Type 0, BuildingBlock: PAMTOO_clean_linker_0, # of connection points: 3
#     Node 8, Type 1, BuildingBlock: LEVNOQ01_clean_sbu_1, # of connection points: 6
#     Node 9, Type 1, BuildingBlock: LEVNOQ01_clean_sbu_1, # of connection points: 6
#     Node 10, Type 1, BuildingBlock: LEVNOQ01_clean_sbu_1, # of connection points: 6
#     Node 11, Type 1, BuildingBlock: LEVNOQ01_clean_sbu_1, # of connection points: 6
#     Edge 12, Type (0, 1), BuildingBlock: AJUNOK_clean_linker_0, # of connection points: 2
#     Edge 13, Type (0, 1), BuildingBlock: AJUNOK_clean_linker_0, # of connection points: 2
#     Edge 14, Type (0, 1), BuildingBlock: AJUNOK_clean_linker_0, # of connection points: 2
#     Edge 15, Type (0, 1), BuildingBlock: AJUNOK_clean_linker_0, # of connection points: 2
#     Edge 16, Type (0, 1), BuildingBlock: AJUNOK_clean_linker_0, # of connection points: 2
#     Edge 17, Type (0, 1), BuildingBlock: AJUNOK_clean_linker_0, # of connection points: 2
#     Edge 18, Type (0, 1), BuildingBlock: AJUNOK_clean_linker_0, # of connection points: 2
#     Edge 19, Type (0, 1), BuildingBlock: AJUNOK_clean_linker_0, # of connection points: 2
#     Edge 20, Type (0, 1), BuildingBlock: AJUNOK_clean_linker_0, # of connection points: 2
#     Edge 21, Type (0, 1), BuildingBlock: AJUNOK_clean_linker_0, # of connection points: 2
#     Edge 22, Type (0, 1), BuildingBlock: AJUNOK_clean_linker_0, # of connection points: 2
#     Edge 23, Type (0, 1), BuildingBlock: AJUNOK_clean_linker_0, # of connection points: 2
#     Edge 24, Type (0, 1), BuildingBlock: AJUNOK_clean_linker_0, # of connection points: 2
#     Edge 25, Type (0, 1), BuildingBlock: AJUNOK_clean_linker_0, # of connection points: 2
#     Edge 26, Type (0, 1), BuildingBlock: AJUNOK_clean_linker_0, # of connection points: 2
#     Edge 27, Type (0, 1), BuildingBlock: AJUNOK_clean_linker_0, # of connection points: 2
#     Edge 28, Type (0, 1), BuildingBlock: AJUNOK_clean_linker_0, # of connection points: 2
#     Edge 29, Type (0, 1), BuildingBlock: AJUNOK_clean_linker_0, # of connection points: 2
#     Edge 30, Type (0, 1), BuildingBlock: AJUNOK_clean_linker_0, # of connection points: 2
#     Edge 31, Type (0, 1), BuildingBlock: AJUNOK_clean_linker_0, # of connection points: 2
#     Edge 32, Type (0, 1), BuildingBlock: AJUNOK_clean_linker_0, # of connection points: 2
#     Edge 33, Type (0, 1), BuildingBlock: AJUNOK_clean_linker_0, # of connection points: 2
#     Edge 34, Type (0, 1), BuildingBlock: AJUNOK_clean_linker_0, # of connection points: 2
#     Edge 35, Type (0, 1), BuildingBlock: AJUNOK_clean_linker_0, # of connection points: 2
# Relax obj value: 0.096
# Max RMSD: 0.206
# Mean RMSD: 0.142
data_MOF--net-pry--node1-LEVNOQ01_clean_sbu_1--node2-PAMTOO_clean_linker_0--edge1-AJUNOK_clean_linker_0
_symmetry_space_group_name_H-M    P1
_symmetry_Int_Tables_number       1
_symmetry_cell_setting            triclinic
loop_
_symmetry_equiv_pos_as_xyz
'x, y, z'
_cell_length_a     26.818632
_cell_length_b     26.701509
_cell_length_c     26.119923
_cell_angle_alpha  92.403396
_cell_angle_beta   92.363847
_cell_angle_gamma 98.927848
loop_
_atom_site_label
_atom_site_type_symbol
_atom_site_fract_x
_atom_site_fract_y
_atom_site_fract_z
_atom_type_partial_charge
H0 H 0.09886 0.19674 0.21913 0.0
H1 H 0.19329 0.08029 0.22373 0.0
H2 H 0.19308 0.17346 0.0937 0.0
H3 H 0.20914 0.06434 0.0736 0.0
C4 C 0.2334 0.06104 0.10849 0.0
O5 O 0.23828 0.1054 0.13905 0.0
H6 H 0.21442 0.02886 0.12989 0.0
C7 C 0.12433 0.17483 0.20062 0.0
C8 C 0.14064 0.18803 0.15147 0.0
C9 C 0.14079 0.13436 0.22653 0.0
C10 C 0.17886 0.11063 0.20455 0.0
C11 C 0.1984 0.12543 0.15728 0.0
C12 C 0.17852 0.16323 0.13054 0.0
H13 H 0.34311 0.98812 0.69266 0.0
H14 H 0.32092 0.87237 0.5705 0.0
H15 H 0.44624 0.87949 0.67823 0.0
H16 H 0.46467 0.86372 0.56804 0.0
C17 C 0.43336 0.83131 0.56042 0.0
O18 O 0.39863 0.83096 0.59793 0.0
H19 H 0.41422 0.83583 0.52271 0.0
C20 C 0.35537 0.95588 0.6732 0.0
C21 C 0.39942 0.93791 0.69117 0.0
C22 C 0.32668 0.93205 0.62985 0.0
C23 C 0.34309 0.89154 0.60329 0.0
C24 C 0.38632 0.87332 0.62066 0.0
C25 C 0.41402 0.89592 0.66444 0.0
H26 H 0.72444 0.32405 0.98577 0.0
H27 H 0.62764 0.29173 0.85008 0.0
H28 H 0.69975 0.44374 0.88577 0.0
H29 H 0.58393 0.41144 0.84705 0.0
C30 C 0.59584 0.39181 0.81216 0.0
O31 O 0.64436 0.38246 0.81852 0.0
H32 H 0.56975 0.35529 0.80496 0.0
C33 C 0.70613 0.33796 0.95273 0.0
C34 C 0.71847 0.38852 0.93913 0.0
C35 C 0.67307 0.30338 0.92093 0.0
C36 C 0.65287 0.31849 0.87532 0.0
C37 C 0.66232 0.36894 0.86347 0.0
C38 C 0.69211 0.4047 0.89673 0.0
H39 H 0.87581 0.68707 0.49759 0.0
H40 H 0.8828 0.53338 0.44257 0.0
H41 H 0.99142 0.65459 0.39837 0.0
H42 H 0.89802 0.61063 0.32612 0.0
C43 C 0.90481 0.57061 0.32852 0.0
O44 O 0.93913 0.56644 0.36883 0.0
H45 H 0.8678 0.54742 0.33548 0.0
C46 C 0.89456 0.65913 0.47824 0.0
C47 C 0.93968 0.67621 0.45393 0.0
C48 C 0.87108 0.60778 0.47251 0.0
C49 C 0.89671 0.57358 0.44559 0.0
C50 C 0.93529 0.59196 0.41395 0.0
C51 C 0.95965 0.64191 0.42139 0.0
H52 H 0.84343 0.94431 0.83675 0.0
H53 H 0.85383 0.85388 0.96828 0.0
H54 H 0.95214 0.84165 0.84371 0.0
H55 H 0.86852 0.75001 0.92535 0.0
C56 C 0.90303 0.76266 0.95066 0.0
O57 O 0.92834 0.80861 0.93496 0.0
H58 H 0.88944 0.76899 0.98967 0.0
C59 C 0.86076 0.91638 0.85703 0.0
C60 C 0.90063 0.8961 0.83463 0.0
C61 C 0.84315 0.90203 0.90516 0.0
C62 C 0.86667 0.86591 0.93135 0.0
C63 C 0.90512 0.84283 0.9088 0.0
C64 C 0.92147 0.85786 0.86018 0.0
H65 H 0.7201 0.05115 0.34712 0.0
H66 H 0.62002 0.16155 0.33508 0.0
H67 H 0.71981 0.16567 0.46845 0.0
H68 H 0.61194 0.20186 0.48491 0.0
C69 C 0.60972 0.21677 0.4459 0.0
O70 O 0.65344 0.21143 0.42154 0.0
H71 H 0.57639 0.19494 0.42388 0.0
C72 C 0.7042 0.08256 0.36403 0.0
C73 C 0.72416 0.10546 0.41169 0.0
C74 C 0.66613 0.10199 0.33645 0.0
C75 C 0.64735 0.14433 0.35721 0.0
C76 C 0.66596 0.1665 0.40533 0.0
C77 C 0.70368 0.14652 0.43278 0.0
H78 H 0.34812 0.72277 0.06403 0.0
H79 H 0.3349 0.6043 0.17047 0.0
H80 H 0.44291 0.73811 0.20368 0.0
H81 H 0.46927 0.62759 0.23949 0.0
C82 C 0.42844 0.61278 0.24249 0.0
O83 O 0.40078 0.65127 0.23663 0.0
H84 H 0.41713 0.58211 0.21206 0.0
C85 C 0.36135 0.70761 0.09903 0.0
C86 C 0.39909 0.73648 0.13184 0.0
C87 C 0.33837 0.66003 0.11296 0.0
C88 C 0.3544 0.64013 0.15806 0.0
C89 C 0.39141 0.66845 0.19047 0.0
C90 C 0.41471 0.71616 0.17735 0.0
H91 H 0.07368 0.32923 0.70805 0.0
H92 H 0.14791 0.48277 0.69627 0.0
H93 H 0.14015 0.37649 0.56755 0.0
H94 H 0.23301 0.47561 0.66757 0.0
C95 C 0.22823 0.48795 0.62764 0.0
O96 O 0.18155 0.46665 0.6052 0.0
H97 H 0.22937 0.52969 0.63179 0.0
C98 C 0.09127 0.35942 0.68528 0.0
C99 C 0.09958 0.34849 0.63337 0.0
C100 C 0.10908 0.40757 0.70885 0.0
C101 C 0.13458 0.44514 0.6792 0.0
C102 C 0.14852 0.43298 0.6295 0.0
C103 C 0.13032 0.38503 0.60641 0.0
O104 O 0.03213 0.01372 0.66706 0.0
Mg105 Mg 0.0716 0.05627 0.61265 0.0
O106 O 0.97925 0.9795 0.60431 0.0
Mg107 Mg 0.02077 0.01377 0.52867 0.0
O108 O 0.04101 0.10041 0.56163 0.0
O109 O 0.07802 0.12779 0.63913 0.0
O110 O 0.06229 0.04653 0.45348 0.0
O111 O 0.94328 0.04774 0.50676 0.0
Mg112 Mg 0.96511 0.97665 0.45512 0.0
O113 O 0.00128 0.92642 0.49417 0.0
O114 O -0.00272 0.02609 0.39969 0.0
O115 O 0.8918 0.98131 0.47609 0.0
O116 O 0.95887 0.90958 0.41781 0.0
C117 C 0.14092 0.00292 0.57503 0.0
C118 C 0.9924 0.98426 0.65233 0.0
C119 C 0.05746 0.13691 0.59587 0.0
C120 C 0.04184 0.04883 0.40866 0.0
C121 C 0.8983 0.02667 0.4928 0.0
C122 C 0.98327 0.89456 0.4561 0.0
O123 O 0.14367 0.0439 0.60105 0.0
O124 O 0.09916 0.98357 0.55124 0.0
O125 O 0.46607 0.07035 0.09167 0.0
Mg126 Mg 0.53275 0.103 0.06027 0.0
O127 O 0.46047 0.01254 0.02889 0.0
Mg128 Mg 0.54683 0.00603 0.00869 0.0
O129 O 0.56941 0.08805 0.99449 0.0
O130 O 0.51005 0.13625 0.99476 0.0
O131 O 0.63207 0.99227 0.98395 0.0
O132 O 0.51338 -0.00088 0.9231 0.0
Mg133 Mg 0.55328 0.89762 0.95226 0.0
O134 O 0.52906 0.92357 0.0205 0.0
O135 O 0.63018 0.90847 0.97217 0.0
O136 O 0.53496 0.93146 0.88392 0.0
O137 O 0.48909 0.8551 0.97943 0.0
C138 C 0.59949 0.06027 0.12492 0.0
C139 C 0.43969 0.03587 0.06397 0.0
C140 C 0.54947 0.12389 0.97476 0.0
C141 C 0.65478 0.95316 0.97676 0.0
C142 C 0.51517 0.97133 0.88249 0.0
C143 C 0.49092 0.88807 0.01704 0.0
O144 O 0.59394 0.10415 0.11123 0.0
O145 O 0.57995 0.02008 0.0974 0.0
O146 O 0.5587 0.64635 0.59286 0.0
Mg147 Mg 0.52262 0.57225 0.60334 0.0
O148 O 0.51641 0.61294 0.52435 0.0
Mg149 Mg 0.53897 0.52928 0.51892 0.0
O150 O 0.56216 0.51382 0.60382 0.0
O151 O 0.54399 0.55857 0.67407 0.0
O152 O 0.55862 0.44801 0.49838 0.0
O153 O 0.62518 0.56115 0.51425 0.0
Mg154 Mg 0.58504 0.5331 0.40623 0.0
O155 O 0.51927 0.5383 0.43791 0.0
O156 O 0.59432 0.45804 0.42308 0.0
O157 O 0.63789 0.59397 0.4393 0.0
O158 O 0.5273 0.54489 0.35487 0.0
C159 C 0.4256 0.51288 0.55834 0.0
C160 C 0.53329 0.65225 0.55283 0.0
C161 C 0.56484 0.52301 0.65313 0.0
C162 C 0.58028 0.43044 0.46003 0.0
C163 C 0.65424 0.58661 0.48406 0.0
C164 C 0.4992 0.54417 0.39383 0.0
O165 O 0.44316 0.54872 0.59066 0.0
O166 O 0.45463 0.49474 0.52754 0.0
O167 O 0.06915 0.38977 0.13057 0.0
Mg168 Mg 0.07342 0.46666 0.12521 0.0
O169 O 0.06301 0.3951 0.04702 0.0
Mg170 Mg 0.04058 0.48016 0.02902 0.0
O171 O 0.00909 0.49873 0.11153 0.0
O172 O 0.04541 0.4886 0.18941 0.0
O173 O 0.01544 0.56042 0.00398 0.0
O174 O 0.95793 0.44461 0.00699 0.0
Mg175 Mg 0.0141 0.48037 0.89877 0.0
O176 O 0.07105 0.46332 0.94846 0.0
O177 O 0.00061 0.55471 0.91902 0.0
O178 O 0.94918 0.43536 0.92157 0.0
O179 O 0.07222 0.46281 0.94853 0.0
C180 C 0.15333 0.53077 0.08167 0.0
C181 C 0.06907 0.369 0.08663 0.0
C182 C 0.00974 0.50241 0.16164 0.0
C183 C 0.0016 0.57938 0.96188 0.0
C184 C 0.93098 0.43213 0.96566 0.0
C185 C 0.10834 0.44427 0.93055 0.0
O186 O 0.14433 0.50982 0.12327 0.0
O187 O 0.12079 0.52419 0.0446 0.0
C188 C 0.14463 0.09899 0.31628 0.0
C189 C 0.11649 0.11575 0.27504 0.0
C190 C 0.12124 0.07956 0.36065 0.0
C191 C 0.06862 0.07578 0.36563 0.0
H192 H 0.18508 0.10058 0.31424 0.0
H193 H 0.14429 0.06592 0.39041 0.0
S194 S 0.97779 0.11545 0.26992 0.0
N195 N 0.03262 0.12654 0.24312 0.0
N196 N 0.98989 0.09304 0.3262 0.0
C197 C 0.04058 0.09371 0.32536 0.0
C198 C 0.06405 0.11282 0.28033 0.0
C199 C 0.48249 0.96304 0.74085 0.0
C200 C 0.42944 0.95999 0.73885 0.0
C201 C 0.51107 0.97207 0.78739 0.0
C202 C 0.48815 0.97993 0.83383 0.0
H203 H 0.50191 0.95539 0.70652 0.0
H204 H 0.55106 0.96973 0.78748 0.0
S205 S 0.35229 0.98451 0.8496 0.0
N206 N 0.35608 0.9712 0.78769 0.0
N207 N 0.41062 0.99065 0.8746 0.0
C208 C 0.43622 0.98256 0.83197 0.0
C209 C 0.40665 0.97209 0.78462 0.0
C210 C 0.57272 0.40487 0.72038 0.0
C211 C 0.59444 0.42496 0.76816 0.0
C212 C 0.56829 0.43664 0.67994 0.0
C213 C 0.58554 0.48891 0.6868 0.0
H214 H 0.55712 0.36498 0.71503 0.0
H215 H 0.54767 0.42099 0.64484 0.0
S216 S 0.65695 0.55693 0.7998 0.0
N217 N 0.64213 0.49776 0.81682 0.0
N218 N 0.63322 0.55784 0.74053 0.0
C219 C 0.61227 0.50827 0.7323 0.0
C220 C 0.61687 0.47607 0.77327 0.0
C221 C 0.95713 0.58868 0.25182 0.0
C222 C 0.92409 0.55401 0.27847 0.0
C223 C 0.97992 0.57288 0.20795 0.0
C224 C 0.97035 0.522 0.18957 0.0
H225 H 0.96722 0.62769 0.26642 0.0
H226 H 0.00843 0.59959 0.19097 0.0
S227 S 0.88461 0.41722 0.24361 0.0
N228 N 0.88075 0.4673 0.28172 0.0
N229 N 0.92407 0.43764 0.19932 0.0
C230 C 0.93526 0.48769 0.2141 0.0
C231 C 0.91217 0.50364 0.25878 0.0
C232 C 0.30992 0.01543 0.11866 0.0
C233 C 0.285 0.0505 0.09273 0.0
C234 C 0.35872 0.0071 0.10603 0.0
C235 C 0.38418 0.03292 0.06653 0.0
H236 H 0.2921 0.99529 0.1499 0.0
H237 H 0.37755 0.98196 0.12883 0.0
S238 S 0.33651 0.12972 0.9881 0.0
N239 N 0.29018 0.11173 0.02635 0.0
N240 N 0.38133 0.09589 0.0025 0.0
C241 C 0.3594 0.06745 0.03989 0.0
C242 C 0.31005 0.07629 0.05301 0.0
C243 C 0.26814 0.96149 0.56409 0.0
C244 C 0.27731 0.9463 0.6142 0.0
C245 C 0.2216 0.97592 0.54924 0.0
C246 C 0.18262 0.97416 0.5837 0.0
H247 H 0.29777 0.96397 0.53692 0.0
H248 H 0.21698 0.99082 0.51169 0.0
S249 S 0.18585 0.93213 0.71707 0.0
N250 N 0.24236 0.92685 0.69665 0.0
N251 N 0.15494 0.95333 0.66862 0.0
C252 C 0.19055 0.95656 0.63283 0.0
C253 C 0.2379 0.94273 0.64814 0.0
C254 C 0.79919 0.43569 0.91593 0.0
C255 C 0.76899 0.41637 0.95535 0.0
C256 C 0.85103 0.44078 0.92093 0.0
C257 C 0.87571 0.42782 0.96589 0.0
H258 H 0.78342 0.44188 0.87834 0.0
H259 H 0.87163 0.4536 0.88785 0.0
S260 S 0.81485 0.39551 0.08763 0.0
N261 N 0.76728 0.39827 0.04604 0.0
N262 N 0.86692 0.40844 0.0557 0.0
C263 C 0.84677 0.41619 0.00868 0.0
C264 C 0.79292 0.41063 0.00341 0.0
C265 C 0.79415 0.62105 0.52198 0.0
C266 C 0.81614 0.59329 0.48385 0.0
C267 C 0.74133 0.61765 0.52444 0.0
C268 C 0.70884 0.58522 0.48982 0.0
H269 H 0.81775 0.6475 0.54873 0.0
H270 H 0.72604 0.64201 0.55188 0.0
S271 S 0.7437 0.49541 0.39073 0.0
N272 N 0.79791 0.5269 0.41463 0.0
N273 N 0.70033 0.51824 0.42335 0.0
C274 C 0.72956 0.55305 0.45591 0.0
C275 C 0.78276 0.55741 0.45196 0.0
C276 C 0.15057 0.2667 0.09851 0.0
C277 C 0.11901 0.22891 0.12352 0.0
C278 C 0.1323 0.30968 0.07967 0.0
C279 C 0.08167 0.31659 0.08466 0.0
H280 H 0.19053 0.265 0.09659 0.0
H281 H 0.15906 0.33978 0.06514 0.0
S282 S 0.98136 0.22559 0.13919 0.0
N283 N 0.03242 0.1984 0.14501 0.0
N284 N -0.00068 0.2798 0.11203 0.0
C285 C 0.049 0.2774 0.10594 0.0
C286 C 0.06727 0.23352 0.12463 0.0
C287 C 0.62338 0.25408 0.98196 0.0
C288 C 0.6523 0.25414 0.93877 0.0
C289 C 0.59036 0.21118 0.99261 0.0
C290 C 0.58525 0.16693 0.96044 0.0
H291 H 0.6237 0.2884 0.00577 0.0
H292 H 0.56797 0.21309 0.02605 0.0
S293 S 0.66056 0.14556 0.84833 0.0
N294 N 0.67954 0.20564 0.86715 0.0
N295 N 0.61744 0.12294 0.88848 0.0
C296 C 0.61729 0.16491 0.91967 0.0
C297 C 0.65082 0.20926 0.90837 0.0
C298 C 0.96549 0.76071 0.50183 0.0
C299 C 0.95993 0.73148 0.45511 0.0
C300 C 0.97792 0.81394 0.5029 0.0
C301 C 0.985 0.83954 0.45719 0.0
H302 H 0.95827 0.74244 0.53762 0.0
H303 H 0.97859 0.83519 0.53924 0.0
S304 S 0.97908 0.78095 0.32526 0.0
N305 N 0.96486 0.73269 0.36221 0.0
N306 N 0.99043 0.83175 0.36463 0.0
C307 C 0.98296 0.81055 0.41072 0.0
C308 C 0.96977 0.75677 0.4095 0.0
C309 C 0.48927 0.77559 0.51907 0.0
C310 C 0.45602 0.78268 0.55825 0.0
C311 C 0.51395 0.73288 0.51644 0.0
C312 C 0.50607 0.69593 0.55298 0.0
H313 H 0.49676 0.80381 0.4906 0.0
H314 H 0.53989 0.72918 0.48631 0.0
S315 S 0.42151 0.69371 0.66188 0.0
N316 N 0.41583 0.74692 0.63389 0.0
N317 N 0.46181 0.66707 0.62806 0.0
C318 C 0.47233 0.70167 0.59167 0.0
C319 C 0.44735 0.74496 0.59463 0.0
C320 C 0.93111 0.88666 0.74366 0.0
C321 C 0.92153 0.91785 0.78611 0.0
C322 C 0.95045 0.90768 0.69813 0.0
C323 C 0.96091 0.96067 0.69346 0.0
H324 H 0.92393 0.84577 0.74578 0.0
H325 H 0.95928 0.88245 0.66743 0.0
S326 S 0.94375 0.05903 0.79293 0.0
N327 N 0.92556 0.00482 0.81984 0.0
N328 N 0.95993 0.04344 0.73486 0.0
C329 C 0.95069 0.9919 0.73517 0.0
C330 C 0.9316 0.97083 0.78122 0.0
C331 C 0.68256 0.10199 0.24324 0.0
C332 C 0.6519 0.08334 0.28272 0.0
C333 C 0.66748 0.08999 0.19152 0.0
C334 C 0.62168 0.05806 0.17737 0.0
H335 H 0.71727 0.12804 0.25241 0.0
H336 H 0.69046 0.1081 0.16227 0.0
S337 S 0.52918 -0.0024 0.26649 0.0
N338 N 0.57471 0.03009 0.30462 0.0
N339 N 0.54669 0.00676 0.20723 0.0
C340 C 0.592 0.03706 0.2166 0.0
C341 C 0.60699 0.04999 0.26937 0.0
C342 C 0.41012 0.5399 0.30002 0.0
C343 C 0.42015 0.59254 0.29429 0.0
C344 C 0.42077 0.52018 0.34728 0.0
C345 C 0.44719 0.55269 0.38631 0.0
H346 H 0.39932 0.51392 0.26705 0.0
H347 H 0.42021 0.47957 0.34849 0.0
S348 S 0.45421 0.69166 0.39847 0.0
N349 N 0.43578 0.67619 0.33801 0.0
N350 N 0.45838 0.63766 0.42584 0.0
C351 C 0.44272 0.60411 0.38575 0.0
C352 C 0.43107 0.62481 0.33844 0.0
C353 C 0.15016 0.4425 0.7939 0.0
C354 C 0.10708 0.41679 0.7655 0.0
C355 C 0.15068 0.44985 0.84747 0.0
C356 C 0.10826 0.43178 0.87478 0.0
H357 H 0.1842 0.45658 0.77471 0.0
H358 H 0.18423 0.47067 0.86753 0.0
S359 S 0.98702 0.35927 0.8201 0.0
N360 N 0.02086 0.37281 0.76969 0.0
N361 N 0.02335 0.3835 0.87046 0.0
C362 C 0.06548 0.40463 0.84735 0.0
C363 C 0.06451 0.39797 0.79275 0.0
C364 C 0.75741 0.92826 0.89108 0.0
C365 C 0.79827 0.92323 0.9253 0.0
C366 C 0.71348 0.94492 0.90798 0.0
C367 C 0.70753 0.95702 0.96007 0.0
H368 H 0.75806 0.91674 0.85089 0.0
H369 H 0.68209 0.94452 0.88036 0.0
S370 S 0.80432 0.95603 0.06537 0.0
N371 N 0.83143 0.93721 0.01381 0.0
N372 N 0.74742 0.9659 0.04568 0.0
C373 C 0.7486 0.95451 0.99464 0.0
C374 C 0.79409 0.93816 0.97731 0.0
C375 C 0.77359 0.07694 0.48668 0.0
C376 C 0.77096 0.09113 0.43538 0.0
C377 C 0.81677 0.05926 0.5072 0.0
C378 C 0.85896 0.05678 0.47745 0.0
H379 H 0.7413 0.07731 0.51019 0.0
H380 H 0.81634 0.04551 0.54563 0.0
S381 S 0.87162 0.09263 0.34266 0.0
N382 N 0.81518 0.10438 0.35682 0.0
N383 N 0.8957 0.07114 0.39504 0.0
C384 C 0.85739 0.0731 0.42713 0.0
C385 C 0.81362 0.09043 0.40623 0.0
C386 C 0.28203 0.59873 0.05379 0.0
C387 C 0.28825 0.63804 0.09203 0.0
C388 C 0.23611 0.5654 0.04737 0.0
C389 C 0.19691 0.57022 0.08036 0.0
H390 H 0.31368 0.59158 0.03162 0.0
H391 H 0.23261 0.53372 0.01946 0.0
S392 S 0.19457 0.66891 0.18358 0.0
N393 N 0.2508 0.68259 0.1597 0.0
N394 N 0.16558 0.61857 0.14943 0.0
C395 C 0.20188 0.61121 0.11628 0.0
C396 C 0.24746 0.64573 0.12156 0.0
C397 C 0.31015 0.45394 0.62111 0.0
C398 C 0.27246 0.4774 0.59713 0.0
C399 C 0.35942 0.46043 0.60391 0.0
C400 C 0.37241 0.48987 0.56176 0.0
H401 H 0.30294 0.43476 0.65642 0.0
H402 H 0.38854 0.44632 0.6266 0.0
S403 S 0.28527 0.54921 0.47884 0.0
N404 N 0.24947 0.52371 0.52399 0.0
N405 N 0.34239 0.53546 0.49139 0.0
C406 C 0.33387 0.50803 0.53365 0.0
C407 C 0.28362 0.50166 0.55131 0.0
C408 C 0.92682 0.68068 0.91403 0.0
C409 C 0.93545 0.72011 0.95217 0.0
C410 C 0.94879 0.63646 0.91807 0.0
C411 C 0.98094 0.62885 0.96049 0.0
H412 H 0.90117 0.68312 0.88141 0.0
H413 H 0.93909 0.6072 0.88775 0.0
S414 S 0.01953 0.72254 0.06932 0.0
N415 N 0.98103 0.75019 0.03279 0.0
N416 N 0.02248 0.6669 0.04031 0.0
C417 C 0.99131 0.6687 0.99837 0.0
C418 C 0.96885 0.71427 0.99409 0.0
C419 C 0.47508 0.79992 0.1198 0.0
C420 C 0.42219 0.78745 0.11806 0.0
C421 C 0.49823 0.8407 0.09323 0.0
C422 C 0.46899 0.86892 0.06346 0.0
H423 H 0.4987 0.7752 0.13716 0.0
H424 H 0.53891 0.84566 0.09029 0.0
S425 S 0.33023 0.86135 0.05988 0.0
N426 N 0.34179 0.8149 0.09624 0.0
N427 N 0.38587 0.88932 0.04242 0.0
C428 C 0.41665 0.86143 0.06728 0.0
C429 C 0.39301 0.82094 0.09563 0.0
C430 C 0.11537 0.27058 0.58386 0.0
C431 C 0.08159 0.29659 0.61016 0.0
C432 C 0.10368 0.21832 0.57195 0.0
C433 C 0.05786 0.1904 0.58574 0.0
H434 H 0.15286 0.2896 0.57639 0.0
H435 H 0.13276 0.19883 0.55656 0.0
S436 S 0.9528 0.24135 0.64633 0.0
N437 N -0.00305 0.29143 0.64227 0.0
N438 N 0.97618 0.19268 0.62116 0.0
C439 C 0.02187 0.21645 0.60745 0.0
C440 C 0.03346 0.26973 0.61939 0.0
C441 C 0.58139 0.29223 0.49212 0.0
C442 C 0.60328 0.27222 0.44927 0.0
C443 C 0.57424 0.34334 0.49573 0.0
C444 C 0.5886 0.37644 0.45647 0.0
H445 H 0.56967 0.2681 0.52316 0.0
H446 H 0.55724 0.35687 0.52948 0.0
S447 S 0.64504 0.34164 0.3344 0.0
N448 N 0.63647 0.28867 0.36535 0.0
N449 N 0.62486 0.38438 0.37231 0.0
C450 C 0.60994 0.35643 0.41294 0.0
C451 C 0.61656 0.30445 0.40915 0.0
loop_
_geom_bond_atom_site_label_1
_geom_bond_atom_site_label_2
_geom_bond_distance
_geom_bond_site_symmetry_2
_ccdc_geom_bond_type
H0 C7 0.929 . S
H1 C10 0.930 . S
H2 C12 0.929 . S
H3 C4 0.969 . S
C4 H3 0.969 . S
C4 O5 1.550 . S
C4 H6 0.973 . S
O5 C4 1.550 . S
O5 C11 1.412 . S
H6 C4 0.973 . S
C7 H0 0.929 . S
C7 C8 1.400 . S
C7 C9 1.364 . S
C8 C7 1.400 . S
C8 C12 1.377 . S
C9 C7 1.364 . S
C9 C10 1.374 . S
C10 H1 0.930 . S
C10 C9 1.374 . S
C10 C11 1.383 . S
C11 O5 1.412 . S
C11 C10 1.383 . S
C11 C12 1.394 . S
C12 H2 0.929 . S
C12 C8 1.377 . S
C12 C11 1.394 . S
H13 C20 0.929 . S
H14 C23 0.930 . S
H15 C25 0.929 . S
H16 C17 0.969 . S
C17 H16 0.969 . S
C17 O18 1.550 . S
C17 H19 0.973 . S
O18 C17 1.550 . S
O18 C24 1.412 . S
H19 C17 0.973 . S
C20 H13 0.929 . S
C20 C21 1.400 . S
C20 C22 1.364 . S
C21 C20 1.400 . S
C21 C25 1.377 . S
C22 C20 1.364 . S
C22 C23 1.374 . S
C23 H14 0.930 . S
C23 C22 1.374 . S
C23 C24 1.383 . S
C24 O18 1.412 . S
C24 C23 1.383 . S
C24 C25 1.394 . S
C25 H15 0.929 . S
C25 C21 1.377 . S
C25 C24 1.394 . S
H26 C33 0.929 . S
H27 C36 0.930 . S
H28 C38 0.929 . S
H29 C30 0.969 . S
C30 H29 0.969 . S
C30 O31 1.550 . S
C30 H32 0.973 . S
O31 C30 1.550 . S
O31 C37 1.412 . S
H32 C30 0.973 . S
C33 H26 0.929 . S
C33 C34 1.400 . S
C33 C35 1.364 . S
C34 C33 1.400 . S
C34 C38 1.377 . S
C35 C33 1.364 . S
C35 C36 1.374 . S
C36 H27 0.930 . S
C36 C35 1.374 . S
C36 C37 1.383 . S
C37 O31 1.412 . S
C37 C36 1.383 . S
C37 C38 1.394 . S
C38 H28 0.929 . S
C38 C34 1.377 . S
C38 C37 1.394 . S
H39 C46 0.929 . S
H40 C49 0.930 . S
H41 C51 0.929 . S
H42 C43 0.969 . S
C43 H42 0.969 . S
C43 O44 1.550 . S
C43 H45 0.973 . S
O44 C43 1.550 . S
O44 C50 1.412 . S
H45 C43 0.973 . S
C46 H39 0.929 . S
C46 C47 1.400 . S
C46 C48 1.364 . S
C47 C46 1.400 . S
C47 C51 1.377 . S
C48 C46 1.364 . S
C48 C49 1.374 . S
C49 H40 0.930 . S
C49 C48 1.374 . S
C49 C50 1.383 . S
C50 O44 1.412 . S
C50 C49 1.383 . S
C50 C51 1.394 . S
C51 H41 0.929 . S
C51 C47 1.377 . S
C51 C50 1.394 . S
H52 C59 0.929 . S
H53 C62 0.930 . S
H54 C64 0.929 . S
H55 C56 0.969 . S
C56 H55 0.969 . S
C56 O57 1.550 . S
C56 H58 0.973 . S
O57 C56 1.550 . S
O57 C63 1.412 . S
H58 C56 0.973 . S
C59 H52 0.929 . S
C59 C60 1.400 . S
C59 C61 1.364 . S
C60 C59 1.400 . S
C60 C64 1.377 . S
C61 C59 1.364 . S
C61 C62 1.374 . S
C62 H53 0.930 . S
C62 C61 1.374 . S
C62 C63 1.383 . S
C63 O57 1.412 . S
C63 C62 1.383 . S
C63 C64 1.394 . S
C64 H54 0.929 . S
C64 C60 1.377 . S
C64 C63 1.394 . S
H65 C72 0.929 . S
H66 C75 0.930 . S
H67 C77 0.929 . S
H68 C69 0.969 . S
C69 H68 0.969 . S
C69 O70 1.550 . S
C69 H71 0.973 . S
O70 C69 1.550 . S
O70 C76 1.412 . S
H71 C69 0.973 . S
C72 H65 0.929 . S
C72 C73 1.400 . S
C72 C74 1.364 . S
C73 C72 1.400 . S
C73 C77 1.377 . S
C74 C72 1.364 . S
C74 C75 1.374 . S
C75 H66 0.930 . S
C75 C74 1.374 . S
C75 C76 1.383 . S
C76 O70 1.412 . S
C76 C75 1.383 . S
C76 C77 1.394 . S
C77 H67 0.929 . S
C77 C73 1.377 . S
C77 C76 1.394 . S
H78 C85 0.929 . S
H79 C88 0.930 . S
H80 C90 0.929 . S
H81 C82 0.969 . S
C82 H81 0.969 . S
C82 O83 1.550 . S
C82 H84 0.973 . S
O83 C82 1.550 . S
O83 C89 1.412 . S
H84 C82 0.973 . S
C85 H78 0.929 . S
C85 C86 1.400 . S
C85 C87 1.364 . S
C86 C85 1.400 . S
C86 C90 1.377 . S
C87 C85 1.364 . S
C87 C88 1.374 . S
C88 H79 0.930 . S
C88 C87 1.374 . S
C88 C89 1.383 . S
C89 O83 1.412 . S
C89 C88 1.383 . S
C89 C90 1.394 . S
C90 H80 0.929 . S
C90 C86 1.377 . S
C90 C89 1.394 . S
H91 C98 0.929 . S
H92 C101 0.930 . S
H93 C103 0.929 . S
H94 C95 0.969 . S
C95 H94 0.969 . S
C95 O96 1.550 . S
C95 H97 0.973 . S
O96 C95 1.550 . S
O96 C102 1.412 . S
H97 C95 0.973 . S
C98 H91 0.929 . S
C98 C99 1.400 . S
C98 C100 1.364 . S
C99 C98 1.400 . S
C99 C103 1.377 . S
C100 C98 1.364 . S
C100 C101 1.374 . S
C101 H92 0.930 . S
C101 C100 1.374 . S
C101 C102 1.383 . S
C102 O96 1.412 . S
C102 C101 1.383 . S
C102 C103 1.394 . S
C103 H93 0.929 . S
C103 C99 1.377 . S
C103 C102 1.394 . S
O104 Mg105 1.990 . S
O104 C118 1.253 1_445 S
Mg105 O104 1.990 . S
Mg105 O108 2.180 . S
Mg105 O109 2.117 . S
Mg105 O123 2.030 . S
O106 Mg107 2.072 1_665 S
O106 C118 1.260 . S
Mg107 O106 2.072 1_445 S
Mg107 O108 2.099 . S
Mg107 O110 2.079 . S
Mg107 O111 2.072 1_455 S
Mg107 O113 2.099 1_445 S
Mg107 O124 2.079 1_545 S
O108 Mg105 2.180 . S
O108 Mg107 2.099 . S
O108 C119 1.279 . S
O109 Mg105 2.117 . S
O109 C119 1.250 . S
O110 Mg107 2.079 . S
O110 C120 1.264 . S
O111 Mg107 2.072 1_655 S
O111 C121 1.260 . S
Mg112 O113 2.180 . S
Mg112 O114 2.030 1_565 S
Mg112 O115 1.990 1_565 S
Mg112 O116 2.117 . S
O113 Mg107 2.099 1_665 S
O113 Mg112 2.180 . S
O113 C122 1.279 . S
O114 Mg112 2.030 1_545 S
O114 C120 1.248 1_655 S
O115 Mg112 1.990 1_545 S
O115 C121 1.253 . S
O116 Mg112 2.117 . S
O116 C122 1.250 . S
C117 O123 1.248 1_565 S
C117 O124 1.264 . S
C118 O104 1.253 1_665 S
C118 O106 1.260 . S
C119 O108 1.279 . S
C119 O109 1.250 . S
C120 O110 1.264 . S
C120 O114 1.248 1_455 S
C121 O111 1.260 . S
C121 O115 1.253 . S
C122 O113 1.279 . S
C122 O116 1.250 . S
O123 Mg105 2.030 . S
O123 C117 1.248 1_545 S
O124 Mg107 2.079 1_565 S
O124 C117 1.264 . S
O125 Mg126 1.990 . S
O125 C139 1.253 . S
Mg126 O125 1.990 . S
Mg126 O129 2.187 . S
Mg126 O130 2.117 1_554 S
Mg126 O144 2.030 . S
O127 Mg128 2.072 . S
O127 C139 1.260 . S
Mg128 O127 2.072 . S
Mg128 O129 2.100 . S
Mg128 O131 2.079 1_554 S
Mg128 O132 2.072 1_554 S
Mg128 O134 2.099 1_545 S
Mg128 O145 2.079 . S
O129 Mg126 2.187 . S
O129 Mg128 2.100 . S
O129 C140 1.273 1_554 S
O130 Mg126 2.117 1_556 S
O130 C140 1.250 . S
O131 Mg128 2.079 1_556 S
O131 C141 1.264 1_545 S
O132 Mg128 2.072 1_556 S
O132 C142 1.260 1_545 S
Mg133 O134 2.180 1_556 S
Mg133 O135 2.030 . S
Mg133 O136 1.990 . S
Mg133 O137 2.117 1_556 S
O134 Mg128 2.099 1_565 S
O134 Mg133 2.180 1_554 S
O134 C143 1.279 . S
O135 Mg133 2.030 . S
O135 C141 1.248 . S
O136 Mg133 1.990 . S
O136 C142 1.253 . S
O137 Mg133 2.117 1_554 S
O137 C143 1.250 . S
C138 O144 1.248 . S
C138 O145 1.264 . S
C139 O125 1.253 . S
C139 O127 1.260 . S
C140 O129 1.273 1_556 S
C140 O130 1.250 . S
C141 O131 1.264 1_565 S
C141 O135 1.248 . S
C142 O132 1.260 1_565 S
C142 O136 1.253 . S
C143 O134 1.279 . S
C143 O137 1.250 . S
O144 Mg126 2.030 . S
O144 C138 1.248 . S
O145 Mg128 2.079 . S
O145 C138 1.264 . S
O146 Mg147 1.990 . S
O146 C160 1.253 . S
Mg147 O146 1.990 . S
Mg147 O150 2.180 . S
Mg147 O151 2.117 . S
Mg147 O165 2.030 . S
O148 Mg149 2.072 . S
O148 C160 1.260 . S
Mg149 O148 2.072 . S
Mg149 O150 2.099 . S
Mg149 O152 2.079 . S
Mg149 O153 2.072 . S
Mg149 O155 2.099 . S
Mg149 O166 2.079 . S
O150 Mg147 2.180 . S
O150 Mg149 2.099 . S
O150 C161 1.279 . S
O151 Mg147 2.117 . S
O151 C161 1.250 . S
O152 Mg149 2.079 . S
O152 C162 1.264 . S
O153 Mg149 2.072 . S
O153 C163 1.260 . S
Mg154 O155 2.180 . S
Mg154 O156 2.030 . S
Mg154 O157 1.990 . S
Mg154 O158 2.117 . S
O155 Mg149 2.099 . S
O155 Mg154 2.180 . S
O155 C164 1.279 . S
O156 Mg154 2.030 . S
O156 C162 1.248 . S
O157 Mg154 1.990 . S
O157 C163 1.253 . S
O158 Mg154 2.117 . S
O158 C164 1.250 . S
C159 O165 1.248 . S
C159 O166 1.264 . S
C160 O146 1.253 . S
C160 O148 1.260 . S
C161 O150 1.279 . S
C161 O151 1.250 . S
C162 O152 1.264 . S
C162 O156 1.248 . S
C163 O153 1.260 . S
C163 O157 1.253 . S
C164 O155 1.279 . S
C164 O158 1.250 . S
O165 Mg147 2.030 . S
O165 C159 1.248 . S
O166 Mg149 2.079 . S
O166 C159 1.264 . S
O167 Mg168 1.990 . S
O167 C181 1.253 . S
Mg168 O167 1.990 . S
Mg168 O171 2.180 . S
Mg168 O172 2.117 . S
Mg168 O186 2.030 . S
O169 Mg170 2.072 . S
O169 C181 1.260 . S
Mg170 O169 2.072 . S
Mg170 O171 2.099 . S
Mg170 O173 2.079 . S
Mg170 O174 2.072 1_455 S
Mg170 O176 2.099 1_554 S
Mg170 O187 2.079 . S
O171 Mg168 2.180 . S
O171 Mg170 2.099 . S
O171 C182 1.279 1_455 S
O172 Mg168 2.117 . S
O172 C182 1.250 1_455 S
O173 Mg170 2.079 . S
O173 C183 1.264 1_454 S
O174 Mg170 2.072 1_655 S
O174 C184 1.260 1_554 S
Mg175 O176 2.180 1_655 S
Mg175 O177 2.030 . S
Mg175 O178 1.990 . S
Mg175 O179 2.117 1_655 S
O176 Mg170 2.099 1_556 S
O176 Mg175 2.180 1_455 S
O176 C185 1.279 . S
O177 Mg175 2.030 . S
O177 C183 1.248 . S
O178 Mg175 1.990 . S
O178 C184 1.253 . S
O179 Mg175 2.117 1_455 S
O179 C185 1.250 . S
C180 O186 1.248 . S
C180 O187 1.264 . S
C181 O167 1.253 . S
C181 O169 1.260 . S
C182 O171 1.279 1_655 S
C182 O172 1.250 1_655 S
C183 O173 1.264 1_656 S
C183 O177 1.248 . S
C184 O174 1.260 1_556 S
C184 O178 1.253 . S
C185 O176 1.279 . S
C185 O179 1.250 . S
O186 Mg168 2.030 . S
O186 C180 1.248 . S
O187 Mg170 2.079 . S
O187 C180 1.264 . S
C188 C189 1.369 . S
C188 C190 1.419 . S
C188 H192 0.930 . S
C189 C188 1.369 . S
C189 C198 1.429 . S
C190 C188 1.419 . S
C190 C191 1.363 . S
C190 H193 0.929 . S
C191 C190 1.363 . S
C191 C197 1.428 . S
H192 C188 0.930 . S
H193 C190 0.929 . S
S194 N195 1.613 1_655 S
S194 N196 1.610 1_655 S
N195 S194 1.613 1_455 S
N195 C198 1.350 . S
N196 S194 1.610 1_455 S
N196 C197 1.351 . S
C197 C191 1.428 . S
C197 N196 1.351 . S
C197 C198 1.434 . S
C198 C189 1.429 . S
C198 N195 1.350 . S
C198 C197 1.434 . S
C199 C200 1.369 . S
C199 C201 1.419 . S
C199 H203 0.930 . S
C200 C199 1.369 . S
C200 C209 1.429 . S
C201 C199 1.419 . S
C201 C202 1.363 . S
C201 H204 0.929 . S
C202 C201 1.363 . S
C202 C208 1.428 . S
H203 C199 0.930 . S
H204 C201 0.929 . S
S205 N206 1.613 1_545 S
S205 N207 1.610 . S
N206 S205 1.613 1_565 S
N206 C209 1.350 . S
N207 S205 1.610 . S
N207 C208 1.351 1_545 S
C208 C202 1.428 . S
C208 N207 1.351 1_565 S
C208 C209 1.434 . S
C209 C200 1.429 . S
C209 N206 1.350 . S
C209 C208 1.434 . S
C210 C211 1.369 . S
C210 C212 1.419 . S
C210 H214 0.930 . S
C211 C210 1.369 . S
C211 C220 1.429 . S
C212 C210 1.419 . S
C212 C213 1.363 . S
C212 H215 0.929 . S
C213 C212 1.363 . S
C213 C219 1.428 . S
H214 C210 0.930 . S
H215 C212 0.929 . S
S216 N217 1.613 . S
S216 N218 1.610 . S
N217 S216 1.613 . S
N217 C220 1.350 . S
N218 S216 1.610 . S
N218 C219 1.351 . S
C219 C213 1.428 . S
C219 N218 1.351 . S
C219 C220 1.434 . S
C220 C211 1.429 . S
C220 N217 1.350 . S
C220 C219 1.434 . S
C221 C222 1.369 . S
C221 C223 1.419 . S
C221 H225 0.930 . S
C222 C221 1.369 . S
C222 C231 1.429 . S
C223 C221 1.419 . S
C223 C224 1.363 . S
C223 H226 0.929 1_655 S
C224 C223 1.363 . S
C224 C230 1.428 . S
H225 C221 0.930 . S
H226 C223 0.929 1_455 S
S227 N228 1.613 . S
S227 N229 1.610 . S
N228 S227 1.613 . S
N228 C231 1.350 . S
N229 S227 1.610 . S
N229 C230 1.351 . S
C230 C224 1.428 . S
C230 N229 1.351 . S
C230 C231 1.434 . S
C231 C222 1.429 . S
C231 N228 1.350 . S
C231 C230 1.434 . S
C232 C233 1.369 . S
C232 C234 1.419 . S
C232 H236 0.930 . S
C233 C232 1.369 . S
C233 C242 1.429 . S
C234 C232 1.419 . S
C234 C235 1.363 . S
C234 H237 0.929 . S
C235 C234 1.363 . S
C235 C241 1.428 . S
H236 C232 0.930 . S
H237 C234 0.929 . S
S238 N239 1.613 1_556 S
S238 N240 1.610 . S
N239 S238 1.613 1_554 S
N239 C242 1.350 . S
N240 S238 1.610 . S
N240 C241 1.351 1_556 S
C241 C235 1.428 . S
C241 N240 1.351 1_554 S
C241 C242 1.434 . S
C242 C233 1.429 . S
C242 N239 1.350 . S
C242 C241 1.434 . S
C243 C244 1.369 . S
C243 C245 1.419 . S
C243 H247 0.930 . S
C244 C243 1.369 . S
C244 C253 1.429 . S
C245 C243 1.419 . S
C245 C246 1.363 . S
C245 H248 0.929 . S
C246 C245 1.363 . S
C246 C252 1.428 . S
H247 C243 0.930 . S
H248 C245 0.929 . S
S249 N250 1.613 . S
S249 N251 1.610 . S
N250 S249 1.613 . S
N250 C253 1.350 . S
N251 S249 1.610 . S
N251 C252 1.351 . S
C252 C246 1.428 . S
C252 N251 1.351 . S
C252 C253 1.434 . S
C253 C244 1.429 . S
C253 N250 1.350 . S
C253 C252 1.434 . S
C254 C255 1.369 . S
C254 C256 1.419 . S
C254 H258 0.930 . S
C255 C254 1.369 . S
C255 C264 1.429 . S
C256 C254 1.419 . S
C256 C257 1.363 . S
C256 H259 0.929 . S
C257 C256 1.363 . S
C257 C263 1.428 1_556 S
H258 C254 0.930 . S
H259 C256 0.929 . S
S260 N261 1.613 . S
S260 N262 1.610 . S
N261 S260 1.613 . S
N261 C264 1.350 1_554 S
N262 S260 1.610 . S
N262 C263 1.351 . S
C263 C257 1.428 1_554 S
C263 N262 1.351 . S
C263 C264 1.434 1_554 S
C264 C255 1.429 . S
C264 N261 1.350 1_556 S
C264 C263 1.434 1_556 S
C265 C266 1.369 . S
C265 C267 1.419 . S
C265 H269 0.930 . S
C266 C265 1.369 . S
C266 C275 1.429 . S
C267 C265 1.419 . S
C267 C268 1.363 . S
C267 H270 0.929 . S
C268 C267 1.363 . S
C268 C274 1.428 . S
H269 C265 0.930 . S
H270 C267 0.929 . S
S271 N272 1.613 . S
S271 N273 1.610 . S
N272 S271 1.613 . S
N272 C275 1.350 . S
N273 S271 1.610 . S
N273 C274 1.351 . S
C274 C268 1.428 . S
C274 N273 1.351 . S
C274 C275 1.434 . S
C275 C266 1.429 . S
C275 N272 1.350 . S
C275 C274 1.434 . S
C276 C277 1.369 . S
C276 C278 1.419 . S
C276 H280 0.930 . S
C277 C276 1.369 . S
C277 C286 1.429 . S
C278 C276 1.419 . S
C278 C279 1.363 . S
C278 H281 0.929 . S
C279 C278 1.363 . S
C279 C285 1.428 . S
H280 C276 0.930 . S
H281 C278 0.929 . S
S282 N283 1.613 . S
S282 N284 1.610 . S
N283 S282 1.613 . S
N283 C286 1.350 . S
N284 S282 1.610 . S
N284 C285 1.351 . S
C285 C279 1.428 . S
C285 N284 1.351 . S
C285 C286 1.434 . S
C286 C277 1.429 . S
C286 N283 1.350 . S
C286 C285 1.434 . S
C287 C288 1.369 . S
C287 C289 1.419 . S
C287 H291 0.930 . S
C288 C287 1.369 . S
C288 C297 1.429 . S
C289 C287 1.419 . S
C289 C290 1.363 . S
C289 H292 0.929 . S
C290 C289 1.363 . S
C290 C296 1.428 . S
H291 C287 0.930 . S
H292 C289 0.929 . S
S293 N294 1.613 . S
S293 N295 1.610 . S
N294 S293 1.613 . S
N294 C297 1.350 . S
N295 S293 1.610 . S
N295 C296 1.351 . S
C296 C290 1.428 . S
C296 N295 1.351 . S
C296 C297 1.434 . S
C297 C288 1.429 . S
C297 N294 1.350 . S
C297 C296 1.434 . S
C298 C299 1.369 . S
C298 C300 1.419 . S
C298 H302 0.930 . S
C299 C298 1.369 . S
C299 C308 1.429 . S
C300 C298 1.419 . S
C300 C301 1.363 . S
C300 H303 0.929 . S
C301 C300 1.363 . S
C301 C307 1.428 . S
H302 C298 0.930 . S
H303 C300 0.929 . S
S304 N305 1.613 . S
S304 N306 1.610 . S
N305 S304 1.613 . S
N305 C308 1.350 . S
N306 S304 1.610 . S
N306 C307 1.351 . S
C307 C301 1.428 . S
C307 N306 1.351 . S
C307 C308 1.434 . S
C308 C299 1.429 . S
C308 N305 1.350 . S
C308 C307 1.434 . S
C309 C310 1.369 . S
C309 C311 1.419 . S
C309 H313 0.930 . S
C310 C309 1.369 . S
C310 C319 1.429 . S
C311 C309 1.419 . S
C311 C312 1.363 . S
C311 H314 0.929 . S
C312 C311 1.363 . S
C312 C318 1.428 . S
H313 C309 0.930 . S
H314 C311 0.929 . S
S315 N316 1.613 . S
S315 N317 1.610 . S
N316 S315 1.613 . S
N316 C319 1.350 . S
N317 S315 1.610 . S
N317 C318 1.351 . S
C318 C312 1.428 . S
C318 N317 1.351 . S
C318 C319 1.434 . S
C319 C310 1.429 . S
C319 N316 1.350 . S
C319 C318 1.434 . S
C320 C321 1.369 . S
C320 C322 1.419 . S
C320 H324 0.930 . S
C321 C320 1.369 . S
C321 C330 1.429 . S
C322 C320 1.419 . S
C322 C323 1.363 . S
C322 H325 0.929 . S
C323 C322 1.363 . S
C323 C329 1.428 . S
H324 C320 0.930 . S
H325 C322 0.929 . S
S326 N327 1.613 . S
S326 N328 1.610 . S
N327 S326 1.613 . S
N327 C330 1.350 1_545 S
N328 S326 1.610 . S
N328 C329 1.351 1_545 S
C329 C323 1.428 . S
C329 N328 1.351 1_565 S
C329 C330 1.434 . S
C330 C321 1.429 . S
C330 N327 1.350 1_565 S
C330 C329 1.434 . S
C331 C332 1.369 . S
C331 C333 1.419 . S
C331 H335 0.930 . S
C332 C331 1.369 . S
C332 C341 1.429 . S
C333 C331 1.419 . S
C333 C334 1.363 . S
C333 H336 0.929 . S
C334 C333 1.363 . S
C334 C340 1.428 . S
H335 C331 0.930 . S
H336 C333 0.929 . S
S337 N338 1.613 1_565 S
S337 N339 1.610 1_565 S
N338 S337 1.613 1_545 S
N338 C341 1.350 . S
N339 S337 1.610 1_545 S
N339 C340 1.351 . S
C340 C334 1.428 . S
C340 N339 1.351 . S
C340 C341 1.434 . S
C341 C332 1.429 . S
C341 N338 1.350 . S
C341 C340 1.434 . S
C342 C343 1.369 . S
C342 C344 1.419 . S
C342 H346 0.930 . S
C343 C342 1.369 . S
C343 C352 1.429 . S
C344 C342 1.419 . S
C344 C345 1.363 . S
C344 H347 0.929 . S
C345 C344 1.363 . S
C345 C351 1.428 . S
H346 C342 0.930 . S
H347 C344 0.929 . S
S348 N349 1.613 . S
S348 N350 1.610 . S
N349 S348 1.613 . S
N349 C352 1.350 . S
N350 S348 1.610 . S
N350 C351 1.351 . S
C351 C345 1.428 . S
C351 N350 1.351 . S
C351 C352 1.434 . S
C352 C343 1.429 . S
C352 N349 1.350 . S
C352 C351 1.434 . S
C353 C354 1.369 . S
C353 C355 1.419 . S
C353 H357 0.930 . S
C354 C353 1.369 . S
C354 C363 1.429 . S
C355 C353 1.419 . S
C355 C356 1.363 . S
C355 H358 0.929 . S
C356 C355 1.363 . S
C356 C362 1.428 . S
H357 C353 0.930 . S
H358 C355 0.929 . S
S359 N360 1.613 1_655 S
S359 N361 1.610 . S
N360 S359 1.613 1_455 S
N360 C363 1.350 . S
N361 S359 1.610 . S
N361 C362 1.351 1_655 S
C362 C356 1.428 . S
C362 N361 1.351 1_455 S
C362 C363 1.434 . S
C363 C354 1.429 . S
C363 N360 1.350 . S
C363 C362 1.434 . S
C364 C365 1.369 . S
C364 C366 1.419 . S
C364 H368 0.930 . S
C365 C364 1.369 . S
C365 C374 1.429 . S
C366 C364 1.419 . S
C366 C367 1.363 . S
C366 H369 0.929 . S
C367 C366 1.363 . S
C367 C373 1.428 . S
H368 C364 0.930 . S
H369 C366 0.929 . S
S370 N371 1.613 . S
S370 N372 1.610 . S
N371 S370 1.613 . S
N371 C374 1.350 1_554 S
N372 S370 1.610 . S
N372 C373 1.351 1_554 S
C373 C367 1.428 . S
C373 N372 1.351 1_556 S
C373 C374 1.434 . S
C374 C365 1.429 . S
C374 N371 1.350 1_556 S
C374 C373 1.434 . S
C375 C376 1.369 . S
C375 C377 1.419 . S
C375 H379 0.930 . S
C376 C375 1.369 . S
C376 C385 1.429 . S
C377 C375 1.419 . S
C377 C378 1.363 . S
C377 H380 0.929 . S
C378 C377 1.363 . S
C378 C384 1.428 . S
H379 C375 0.930 . S
H380 C377 0.929 . S
S381 N382 1.613 . S
S381 N383 1.610 . S
N382 S381 1.613 . S
N382 C385 1.350 . S
N383 S381 1.610 . S
N383 C384 1.351 . S
C384 C378 1.428 . S
C384 N383 1.351 . S
C384 C385 1.434 . S
C385 C376 1.429 . S
C385 N382 1.350 . S
C385 C384 1.434 . S
C386 C387 1.369 . S
C386 C388 1.419 . S
C386 H390 0.930 . S
C387 C386 1.369 . S
C387 C396 1.429 . S
C388 C386 1.419 . S
C388 C389 1.363 . S
C388 H391 0.929 . S
C389 C388 1.363 . S
C389 C395 1.428 . S
H390 C386 0.930 . S
H391 C388 0.929 . S
S392 N393 1.613 . S
S392 N394 1.610 . S
N393 S392 1.613 . S
N393 C396 1.350 . S
N394 S392 1.610 . S
N394 C395 1.351 . S
C395 C389 1.428 . S
C395 N394 1.351 . S
C395 C396 1.434 . S
C396 C387 1.429 . S
C396 N393 1.350 . S
C396 C395 1.434 . S
C397 C398 1.369 . S
C397 C399 1.419 . S
C397 H401 0.930 . S
C398 C397 1.369 . S
C398 C407 1.429 . S
C399 C397 1.419 . S
C399 C400 1.363 . S
C399 H402 0.929 . S
C400 C399 1.363 . S
C400 C406 1.428 . S
H401 C397 0.930 . S
H402 C399 0.929 . S
S403 N404 1.613 . S
S403 N405 1.610 . S
N404 S403 1.613 . S
N404 C407 1.350 . S
N405 S403 1.610 . S
N405 C406 1.351 . S
C406 C400 1.428 . S
C406 N405 1.351 . S
C406 C407 1.434 . S
C407 C398 1.429 . S
C407 N404 1.350 . S
C407 C406 1.434 . S
C408 C409 1.369 . S
C408 C410 1.419 . S
C408 H412 0.930 . S
C409 C408 1.369 . S
C409 C418 1.429 1_556 S
C410 C408 1.419 . S
C410 C411 1.363 . S
C410 H413 0.929 . S
C411 C410 1.363 . S
C411 C417 1.428 1_656 S
H412 C408 0.930 . S
H413 C410 0.929 . S
S414 N415 1.613 . S
S414 N416 1.610 . S
N415 S414 1.613 . S
N415 C418 1.350 1_455 S
N416 S414 1.610 . S
N416 C417 1.351 . S
C417 C411 1.428 1_454 S
C417 N416 1.351 . S
C417 C418 1.434 1_455 S
C418 C409 1.429 1_554 S
C418 N415 1.350 1_655 S
C418 C417 1.434 1_655 S
C419 C420 1.369 . S
C419 C421 1.419 . S
C419 H423 0.930 . S
C420 C419 1.369 . S
C420 C429 1.429 . S
C421 C419 1.419 . S
C421 C422 1.363 . S
C421 H424 0.929 . S
C422 C421 1.363 . S
C422 C428 1.428 . S
H423 C419 0.930 . S
H424 C421 0.929 . S
S425 N426 1.613 . S
S425 N427 1.610 . S
N426 S425 1.613 . S
N426 C429 1.350 . S
N427 S425 1.610 . S
N427 C428 1.351 . S
C428 C422 1.428 . S
C428 N427 1.351 . S
C428 C429 1.434 . S
C429 C420 1.429 . S
C429 N426 1.350 . S
C429 C428 1.434 . S
C430 C431 1.369 . S
C430 C432 1.419 . S
C430 H434 0.930 . S
C431 C430 1.369 . S
C431 C440 1.429 . S
C432 C430 1.419 . S
C432 C433 1.363 . S
C432 H435 0.929 . S
C433 C432 1.363 . S
C433 C439 1.428 . S
H434 C430 0.930 . S
H435 C432 0.929 . S
S436 N437 1.613 . S
S436 N438 1.610 . S
N437 S436 1.613 . S
N437 C440 1.350 1_655 S
N438 S436 1.610 . S
N438 C439 1.351 1_655 S
C439 C433 1.428 . S
C439 N438 1.351 1_455 S
C439 C440 1.434 . S
C440 C431 1.429 . S
C440 N437 1.350 1_455 S
C440 C439 1.434 . S
C441 C442 1.369 . S
C441 C443 1.419 . S
C441 H445 0.930 . S
C442 C441 1.369 . S
C442 C451 1.429 . S
C443 C441 1.419 . S
C443 C444 1.363 . S
C443 H446 0.929 . S
C444 C443 1.363 . S
C444 C450 1.428 . S
H445 C441 0.930 . S
H446 C443 0.929 . S
S447 N448 1.613 . S
S447 N449 1.610 . S
N448 S447 1.613 . S
N448 C451 1.350 . S
N449 S447 1.610 . S
N449 C450 1.351 . S
C450 C444 1.428 . S
C450 N449 1.351 . S
C450 C451 1.434 . S
C451 C442 1.429 . S
C451 N448 1.350 . S
C451 C450 1.434 . S
C189 C9 1.845 . S
C191 C120 1.799 . S
C200 C21 1.544 . S
C202 C142 1.522 . S
C213 C161 1.104 . S
C211 C30 1.363 . S
C222 C43 1.456 . S
C224 C182 1.267 . S
C235 C139 1.581 . S
C233 C4 1.596 . S
C246 C117 1.970 . S
C244 C22 2.007 . S
C257 C184 1.137 . S
C255 C34 1.195 . S
C268 C163 1.315 . S
C266 C48 1.351 . S
C277 C8 1.730 . S
C279 C181 1.649 . S
C290 C140 1.315 . S
C288 C35 1.639 . S
C299 C47 1.663 . S
C301 C122 1.518 . S
C310 C17 1.466 . S
C312 C160 1.448 . S
C323 C118 1.528 . S
C321 C60 1.599 . S
C332 C74 1.591 . S
C334 C138 1.549 . S
C343 C82 1.172 . S
C345 C164 1.003 . S
C354 C100 1.866 . S
C356 C185 1.479 . S
C365 C61 1.886 . S
C367 C141 1.830 . S
C378 C121 1.621 . S
C376 C73 1.710 . S
C389 C180 1.415 . S
C387 C87 1.461 . S
C400 C159 1.229 . S
C398 C95 1.250 . S
C409 C56 1.514 . S
C411 C183 1.545 . S
C422 C143 1.308 . S
C420 C86 1.589 . S
C433 C119 1.322 . S
C431 C99 1.490 . S
C442 C69 1.343 . S
C444 C162 1.366 . S
