# Generated by pormake.
# Topology cml, (3,6)-cn, num edge types: 1
# Building blocks:
#     Node 0, Type 0, BuildingBlock: BELTOD_clean_linker_0, # of connection points: 3
#     Node 1, Type 0, BuildingBlock: BELTOD_clean_linker_0, # of connection points: 3
#     Node 2, Type 0, BuildingBlock: BELTOD_clean_linker_0, # of connection points: 3
#     Node 3, Type 0, BuildingBlock: BELTOD_clean_linker_0, # of connection points: 3
#     Node 4, Type 0, BuildingBlock: BELTOD_clean_linker_0, # of connection points: 3
#     Node 5, Type 0, BuildingBlock: BELTOD_clean_linker_0, # of connection points: 3
#     Node 6, Type 0, BuildingBlock: BELTOD_clean_linker_0, # of connection points: 3
#     Node 7, Type 0, BuildingBlock: BELTOD_clean_linker_0, # of connection points: 3
#     Node 8, Type 1, BuildingBlock: IZENUY_clean_sbu_0, # of connection points: 6
#     Node 9, Type 1, BuildingBlock: IZENUY_clean_sbu_0, # of connection points: 6
#     Node 10, Type 1, BuildingBlock: IZENUY_clean_sbu_0, # of connection points: 6
#     Node 11, Type 1, BuildingBlock: IZENUY_clean_sbu_0, # of connection points: 6
#     Edge 12, Type (0, 1), BuildingBlock: AJUNOK_clean_linker_0, # of connection points: 2
#     Edge 13, Type (0, 1), BuildingBlock: AJUNOK_clean_linker_0, # of connection points: 2
#     Edge 14, Type (0, 1), BuildingBlock: AJUNOK_clean_linker_0, # of connection points: 2
#     Edge 15, Type (0, 1), BuildingBlock: AJUNOK_clean_linker_0, # of connection points: 2
#     Edge 16, Type (0, 1), BuildingBlock: AJUNOK_clean_linker_0, # of connection points: 2
#     Edge 17, Type (0, 1), BuildingBlock: AJUNOK_clean_linker_0, # of connection points: 2
#     Edge 18, Type (0, 1), BuildingBlock: AJUNOK_clean_linker_0, # of connection points: 2
#     Edge 19, Type (0, 1), BuildingBlock: AJUNOK_clean_linker_0, # of connection points: 2
#     Edge 20, Type (0, 1), BuildingBlock: AJUNOK_clean_linker_0, # of connection points: 2
#     Edge 21, Type (0, 1), BuildingBlock: AJUNOK_clean_linker_0, # of connection points: 2
#     Edge 22, Type (0, 1), BuildingBlock: AJUNOK_clean_linker_0, # of connection points: 2
#     Edge 23, Type (0, 1), BuildingBlock: AJUNOK_clean_linker_0, # of connection points: 2
#     Edge 24, Type (0, 1), BuildingBlock: AJUNOK_clean_linker_0, # of connection points: 2
#     Edge 25, Type (0, 1), BuildingBlock: AJUNOK_clean_linker_0, # of connection points: 2
#     Edge 26, Type (0, 1), BuildingBlock: AJUNOK_clean_linker_0, # of connection points: 2
#     Edge 27, Type (0, 1), BuildingBlock: AJUNOK_clean_linker_0, # of connection points: 2
#     Edge 28, Type (0, 1), BuildingBlock: AJUNOK_clean_linker_0, # of connection points: 2
#     Edge 29, Type (0, 1), BuildingBlock: AJUNOK_clean_linker_0, # of connection points: 2
#     Edge 30, Type (0, 1), BuildingBlock: AJUNOK_clean_linker_0, # of connection points: 2
#     Edge 31, Type (0, 1), BuildingBlock: AJUNOK_clean_linker_0, # of connection points: 2
#     Edge 32, Type (0, 1), BuildingBlock: AJUNOK_clean_linker_0, # of connection points: 2
#     Edge 33, Type (0, 1), BuildingBlock: AJUNOK_clean_linker_0, # of connection points: 2
#     Edge 34, Type (0, 1), BuildingBlock: AJUNOK_clean_linker_0, # of connection points: 2
#     Edge 35, Type (0, 1), BuildingBlock: AJUNOK_clean_linker_0, # of connection points: 2
# Relax obj value: 0.048
# Max RMSD: 0.064
# Mean RMSD: 0.062
data_MOF--net-cml--node1-IZENUY_clean_sbu_0--node2-BELTOD_clean_linker_0--edge1-AJUNOK_clean_linker_0
_symmetry_space_group_name_H-M    P1
_symmetry_Int_Tables_number       1
_symmetry_cell_setting            triclinic
loop_
_symmetry_equiv_pos_as_xyz
'x, y, z'
_cell_length_a     31.160019
_cell_length_b     36.080537
_cell_length_c     33.181631
_cell_angle_alpha  89.460301
_cell_angle_beta   89.584895
_cell_angle_gamma 90.133661
loop_
_atom_site_label
_atom_site_type_symbol
_atom_site_fract_x
_atom_site_fract_y
_atom_site_fract_z
_atom_type_partial_charge
P0 P 0.30666 0.35262 0.99176 0.0
H1 H 0.31596 0.29045 0.04756 0.0
H2 H 0.33664 0.28723 0.11844 0.0
H3 H 0.33194 0.40678 0.12447 0.0
H4 H 0.3082 0.40957 0.05495 0.0
H5 H 0.26829 0.35507 0.91224 0.0
H6 H 0.20469 0.32546 0.8841 0.0
H7 H 0.17312 0.28033 1.00175 0.0
H8 H 0.23506 0.31175 0.03 0.0
H9 H 0.38678 0.3926 0.99123 0.0
H10 H 0.2556 0.41495 0.9582 0.0
O11 O 0.34394 0.32456 0.97263 0.0
H12 H 0.40707 0.45565 0.97117 0.0
H13 H 0.27641 0.47792 0.93648 0.0
C14 C 0.31135 0.35021 0.04577 0.0
C15 C 0.318 0.31585 0.06461 0.0
C16 C 0.33004 0.31408 0.10503 0.0
C17 C 0.33637 0.34676 0.12707 0.0
C18 C 0.32672 0.38102 0.10877 0.0
C19 C 0.31373 0.38267 0.06859 0.0
C20 C 0.25592 0.33636 0.97336 0.0
C21 C 0.24683 0.33983 0.9322 0.0
C22 C 0.21076 0.32255 0.91608 0.0
C23 C 0.18362 0.30079 0.94073 0.0
C24 C 0.19261 0.29774 0.98212 0.0
C25 C 0.22835 0.31552 0.9983 0.0
C26 C 0.32001 0.39883 0.97518 0.0
C27 C 0.36244 0.41099 0.97932 0.0
C28 C 0.3739 0.44703 0.96831 0.0
C29 C 0.34313 0.47142 0.95265 0.0
C30 C 0.3005 0.45944 0.94866 0.0
C31 C 0.2888 0.42344 0.9606 0.0
P32 P 0.74453 0.60151 0.52306 0.0
H33 H 0.7615 0.53125 0.48246 0.0
H34 H 0.71731 0.49206 0.43946 0.0
H35 H 0.61884 0.57598 0.43823 0.0
H36 H 0.66351 0.61542 0.48101 0.0
H37 H 0.83083 0.6019 0.48981 0.0
H38 H 0.87393 0.64873 0.4547 0.0
H39 H 0.76933 0.72651 0.46401 0.0
H40 H 0.72609 0.6792 0.4999 0.0
H41 H 0.6625 0.57373 0.55417 0.0
H42 H 0.75096 0.66173 0.58216 0.0
O43 O 0.77883 0.57257 0.54544 0.0
H44 H 0.61929 0.58902 0.61285 0.0
H45 H 0.70844 0.67624 0.64257 0.0
C46 C 0.71523 0.57581 0.48578 0.0
C47 C 0.73074 0.54155 0.47242 0.0
C48 C 0.70563 0.51927 0.44755 0.0
C49 C 0.66463 0.53096 0.43566 0.0
C50 C 0.65029 0.56629 0.44713 0.0
C51 C 0.6757 0.58877 0.47156 0.0
C52 C 0.77559 0.63731 0.49816 0.0
C53 C 0.81713 0.62907 0.48459 0.0
C54 C 0.84162 0.65575 0.46412 0.0
C55 C 0.82486 0.69117 0.45624 0.0
C56 C 0.78307 0.69945 0.46978 0.0
C57 C 0.75841 0.67253 0.49026 0.0
C58 C 0.70917 0.61753 0.56265 0.0
C59 C 0.6721 0.59709 0.57225 0.0
C60 C 0.64766 0.60549 0.60634 0.0
C61 C 0.66026 0.63395 0.63241 0.0
C62 C 0.6973 0.65469 0.62268 0.0
C63 C 0.72164 0.64642 0.58813 0.0
P64 P 0.75496 0.39846 0.02238 0.0
H65 H 0.7689 0.39251 0.10954 0.0
H66 H 0.72154 0.37516 0.16564 0.0
H67 H 0.62394 0.34273 0.08113 0.0
H68 H 0.67061 0.36212 0.02512 0.0
H69 H 0.83442 0.39861 0.97616 0.0
H70 H 0.87239 0.35107 0.93825 0.0
H71 H 0.76729 0.27496 0.95972 0.0
H72 H 0.73008 0.32236 0.99897 0.0
H73 H 0.73286 0.47569 0.03393 0.0
H74 H 0.70339 0.39014 0.94855 0.0
O75 O 0.79442 0.42338 0.0426 0.0
H76 H 0.68614 0.51868 0.99789 0.0
H77 H 0.65562 0.43307 0.91257 0.0
C78 C 0.72304 0.37916 0.0631 0.0
C79 C 0.73745 0.38141 0.10298 0.0
C80 C 0.71045 0.3712 0.13512 0.0
C81 C 0.66864 0.35831 0.1279 0.0
C82 C 0.65553 0.35356 0.08774 0.0
C83 C 0.68231 0.36432 0.05565 0.0
C84 C 0.77995 0.36376 0.99133 0.0
C85 C 0.81951 0.37168 0.9728 0.0
C86 C 0.84107 0.34455 0.95083 0.0
C87 C 0.82323 0.30899 0.94656 0.0
C88 C 0.78244 0.30174 0.96342 0.0
C89 C 0.761 0.32892 0.9857 0.0
C90 C 0.72226 0.42997 0.99348 0.0
C91 C 0.71669 0.46627 0.00711 0.0
C92 C 0.68979 0.49078 0.9866 0.0
C93 C 0.66749 0.47939 0.95216 0.0
C94 C 0.67309 0.44289 0.93848 0.0
C95 C 0.70019 0.4183 0.95912 0.0
P96 P 0.3122 0.6455 0.49219 0.0
H97 H 0.30655 0.61824 0.41068 0.0
H98 H 0.32578 0.55822 0.38222 0.0
H99 H 0.33227 0.51094 0.50188 0.0
H100 H 0.31125 0.57057 0.53031 0.0
H101 H 0.30251 0.72244 0.46731 0.0
H102 H 0.24155 0.75788 0.44183 0.0
H103 H 0.15853 0.66366 0.46284 0.0
H104 H 0.2201 0.62785 0.48813 0.0
H105 H 0.38286 0.61452 0.53653 0.0
H106 H 0.26888 0.67743 0.56383 0.0
O107 O 0.35449 0.66521 0.46937 0.0
H108 H 0.40322 0.61568 0.60737 0.0
H109 H 0.28992 0.67937 0.63522 0.0
C110 C 0.30904 0.59922 0.47258 0.0
C111 C 0.3103 0.59463 0.43075 0.0
C112 C 0.32122 0.56036 0.41452 0.0
C113 C 0.33141 0.53039 0.44003 0.0
C114 C 0.32477 0.53375 0.48168 0.0
C115 C 0.31334 0.56804 0.49791 0.0
C116 C 0.26587 0.67232 0.47875 0.0
C117 C 0.27123 0.70935 0.46661 0.0
C118 C 0.23648 0.72956 0.45199 0.0
C119 C 0.19572 0.71317 0.44976 0.0
C120 C 0.18983 0.67671 0.46407 0.0
C121 C 0.22484 0.65631 0.47842 0.0
C122 C 0.32412 0.6454 0.54509 0.0
C123 C 0.36199 0.62826 0.55791 0.0
C124 C 0.37356 0.62888 0.59832 0.0
C125 C 0.34795 0.64741 0.62657 0.0
C126 C 0.31003 0.66484 0.61384 0.0
C127 C 0.29802 0.66367 0.57321 0.0
P128 P 0.83909 0.83079 0.97629 0.0
H129 H 0.89489 0.78691 0.0288 0.0
H130 H 0.91127 0.79081 0.10039 0.0
H131 H 0.8151 0.87597 0.11409 0.0
H132 H 0.80029 0.87311 0.04171 0.0
H133 H 0.8021 0.81548 0.89818 0.0
H134 H 0.7348 0.78606 0.87773 0.0
H135 H 0.69534 0.77789 0.0025 0.0
H136 H 0.76261 0.80663 0.02285 0.0
H137 H 0.91313 0.87819 0.98332 0.0
H138 H 0.78652 0.88631 0.93219 0.0
O139 O 0.87605 0.8039 0.95476 0.0
H140 H 0.9296 0.94087 0.95936 0.0
H141 H 0.8031 0.9492 0.90783 0.0
C142 C 0.84666 0.82998 0.02998 0.0
C143 C 0.8771 0.80626 0.04719 0.0
C144 C 0.88623 0.80833 0.08823 0.0
C145 C 0.86489 0.83405 0.11281 0.0
C146 C 0.83281 0.8565 0.09576 0.0
C147 C 0.82409 0.85472 0.05455 0.0
C148 C 0.78741 0.81324 0.96196 0.0
C149 C 0.77873 0.80768 0.92107 0.0
C150 C 0.74034 0.791 0.90943 0.0
C151 C 0.71024 0.77937 0.93862 0.0
C152 C 0.71839 0.78609 0.97949 0.0
C153 C 0.75677 0.8028 0.99109 0.0
C154 C 0.84887 0.87747 0.95917 0.0
C155 C 0.88885 0.89352 0.96699 0.0
C156 C 0.89814 0.92935 0.95348 0.0
C157 C 0.86765 0.94973 0.93163 0.0
C158 C 0.82728 0.93384 0.92423 0.0
C159 C 0.81785 0.89793 0.93813 0.0
P160 P 0.26421 0.09031 0.52711 0.0
H161 H 0.27806 0.02056 0.48449 0.0
H162 H 0.22967 0.97982 0.44744 0.0
H163 H 0.12713 0.05884 0.46275 0.0
H164 H 0.17579 0.09966 0.49953 0.0
H165 H 0.33862 0.13474 0.54671 0.0
H166 H 0.37745 0.18406 0.51101 0.0
H167 H 0.28354 0.1815 0.41593 0.0
H168 H 0.24539 0.13124 0.45146 0.0
H169 H 0.22336 0.0474 0.59045 0.0
H170 H 0.23445 0.16297 0.55767 0.0
O171 O 0.30329 0.06298 0.5443 0.0
H172 H 0.17883 0.06359 0.64842 0.0
H173 H 0.19055 0.17955 0.6166 0.0
C174 C 0.23039 0.063 0.49498 0.0
C175 C 0.24533 0.02935 0.47946 0.0
C176 C 0.21764 0.00601 0.45846 0.0
C177 C 0.17466 0.01615 0.45222 0.0
C178 C 0.16022 0.05051 0.46664 0.0
C179 C 0.18792 0.07378 0.48777 0.0
C180 C 0.28961 0.12888 0.50143 0.0
C181 C 0.32636 0.14478 0.51818 0.0
C182 C 0.34841 0.17312 0.49782 0.0
C183 C 0.33398 0.18635 0.46031 0.0
C184 C 0.29609 0.17128 0.44427 0.0
C185 C 0.27407 0.14273 0.46469 0.0
C186 C 0.23273 0.10396 0.57018 0.0
C187 C 0.21669 0.07635 0.59613 0.0
C188 C 0.1915 0.08567 0.62943 0.0
C189 C 0.18203 0.12293 0.63764 0.0
C190 C 0.19765 0.15064 0.61119 0.0
C191 C 0.22285 0.14121 0.57764 0.0
P192 P 0.26164 0.91178 0.02919 0.0
H193 H 0.27751 0.86863 0.10253 0.0
H194 H 0.23083 0.85131 0.15976 0.0
H195 H 0.12126 0.89369 0.09553 0.0
H196 H 0.16739 0.91011 0.03831 0.0
H197 H 0.3451 0.91314 0.98977 0.0
H198 H 0.3866 0.86649 0.95343 0.0
H199 H 0.28067 0.78975 0.96417 0.0
H200 H 0.23903 0.83669 1.00113 0.0
H201 H 0.22586 0.98341 0.04861 0.0
H202 H 0.23176 0.91269 0.94474 0.0
O203 O 0.29875 0.93528 0.05452 0.0
H204 H 0.18065 0.02695 0.01171 0.0
H205 H 0.18781 0.95704 0.90687 0.0
C206 C 0.22614 0.89123 0.06642 0.0
C207 C 0.24328 0.87332 0.10039 0.0
C208 C 0.21667 0.86343 0.13301 0.0
C209 C 0.17263 0.87157 0.13207 0.0
C210 C 0.15522 0.88746 0.09705 0.0
C211 C 0.18167 0.89689 0.06434 0.0
C212 C 0.28945 0.87802 0.99901 0.0
C213 C 0.33064 0.88636 0.98424 0.0
C214 C 0.35428 0.85978 0.9634 0.0
C215 C 0.33693 0.8245 0.95646 0.0
C216 C 0.2947 0.81679 0.96926 0.0
C217 C 0.27108 0.84343 0.99051 0.0
C218 C 0.23271 0.94516 0.99923 0.0
C219 C 0.21829 0.97777 0.01745 0.0
C220 C 0.19267 0.00278 0.9962 0.0
C221 C 0.18127 0.99587 0.95604 0.0
C222 C 0.19615 0.96321 0.93772 0.0
C223 C 0.2215 0.93795 0.95923 0.0
P224 P 0.83604 0.16546 0.46904 0.0
H225 H 0.86566 0.13725 0.39156 0.0
H226 H 0.87934 0.07454 0.36779 0.0
H227 H 0.82289 0.02965 0.47713 0.0
H228 H 0.80996 0.09273 0.50113 0.0
H229 H 0.81352 0.24329 0.46415 0.0
H230 H 0.74704 0.2757 0.44785 0.0
H231 H 0.68114 0.17063 0.43924 0.0
H232 H 0.74824 0.13824 0.45474 0.0
H233 H 0.91295 0.14219 0.50978 0.0
H234 H 0.787 0.18066 0.54393 0.0
O235 O 0.87471 0.19054 0.44678 0.0
H236 H 0.9324 0.13658 0.58075 0.0
H237 H 0.80629 0.17481 0.61536 0.0
C238 C 0.83764 0.11955 0.4484 0.0
C239 C 0.85548 0.11394 0.4101 0.0
C240 C 0.86289 0.07803 0.39637 0.0
C241 C 0.8521 0.04715 0.42059 0.0
C242 C 0.83171 0.05294 0.45794 0.0
C243 C 0.82433 0.08892 0.47165 0.0
C244 C 0.78589 0.18843 0.45994 0.0
C245 C 0.78472 0.22723 0.45892 0.0
C246 C 0.74662 0.24573 0.45001 0.0
C247 C 0.70883 0.22569 0.44254 0.0
C248 C 0.70987 0.18673 0.44467 0.0
C249 C 0.74813 0.16823 0.45354 0.0
C250 C 0.84885 0.16229 0.52168 0.0
C251 C 0.88953 0.14952 0.53263 0.0
C252 C 0.90048 0.14608 0.57313 0.0
C253 C 0.87089 0.1554 0.6035 0.0
C254 C 0.82986 0.16792 0.5925 0.0
C255 C 0.81883 0.17121 0.55176 0.0
Fe256 Fe 0.00203 0.81175 0.31695 0.0
Fe257 Fe 0.99683 0.85556 0.39573 0.0
O258 O 0.99932 0.85464 0.34235 0.0
Fe259 Fe 0.99927 0.89662 0.31444 0.0
O260 O 0.97033 0.8776 0.27143 0.0
O261 O 0.95273 0.82098 0.28985 0.0
O262 O 0.96927 0.78638 0.35455 0.0
C263 C 0.94281 0.79748 0.38102 0.0
C264 C 0.05864 0.85796 0.27111 0.0
O265 O 0.94724 0.82901 0.39668 0.0
C266 C 0.05223 0.91322 0.38122 0.0
O267 O 0.05151 0.79984 0.34202 0.0
O268 O 0.02954 0.81362 0.40308 0.0
O269 O 0.05079 0.88647 0.29156 0.0
O270 O 0.03533 0.82926 0.27472 0.0
C271 C 0.94041 0.91378 0.37224 0.0
O272 O 0.04631 0.88221 0.39837 0.0
O273 O 0.02842 0.92335 0.3524 0.0
C274 C 0.0563 0.79832 0.37966 0.0
O275 O 0.96389 0.89779 0.39814 0.0
O276 O 0.9477 0.9097 0.33517 0.0
C277 C 0.94694 0.84913 0.26772 0.0
Fe278 Fe 0.99604 0.14694 0.89084 0.0
Fe279 Fe 0.00222 0.10395 0.81212 0.0
O280 O 0.99901 0.14662 0.83763 0.0
Fe281 Fe 0.99922 0.18887 0.81009 0.0
O282 O 0.04743 0.20439 0.83521 0.0
O283 O 0.02483 0.19102 0.89648 0.0
O284 O 0.04758 0.12386 0.895 0.0
C285 C 0.05588 0.09282 0.87959 0.0
C286 C 0.93836 0.20123 0.8733 0.0
O287 O 0.03244 0.07994 0.85198 0.0
C288 C 0.94819 0.14754 0.76159 0.0
O289 O 0.96664 0.10285 0.89517 0.0
O290 O 0.95119 0.08859 0.83289 0.0
O291 O 0.96386 0.21323 0.84607 0.0
O292 O 0.94463 0.1701 0.88982 0.0
C293 C 0.06023 0.14482 0.7684 0.0
O294 O 0.97294 0.1202 0.76745 0.0
O295 O 0.95126 0.17611 0.78297 0.0
C296 C 0.94416 0.08503 0.87019 0.0
O297 O 0.05349 0.11645 0.78998 0.0
O298 O 0.03449 0.172 0.76921 0.0
C299 C 0.0506 0.20764 0.87284 0.0
Fe300 Fe 0.50221 0.31152 0.31877 0.0
Fe301 Fe 0.49666 0.35937 0.39528 0.0
O302 O 0.4981 0.35553 0.34198 0.0
Fe303 Fe 0.49536 0.39611 0.31171 0.0
O304 O 0.44569 0.38064 0.28895 0.0
O305 O 0.46846 0.32428 0.27579 0.0
O306 O 0.45366 0.29483 0.34361 0.0
C307 C 0.44623 0.295 0.38101 0.0
C308 C 0.55295 0.35137 0.26683 0.0
O309 O 0.46756 0.31573 0.40409 0.0
C310 C 0.54982 0.4197 0.37015 0.0
O311 O 0.53649 0.29122 0.35786 0.0
O312 O 0.54824 0.33675 0.4 0.0
O313 O 0.52689 0.37791 0.26987 0.0
O314 O 0.55124 0.32447 0.29139 0.0
C315 C 0.43921 0.41321 0.37656 0.0
O316 O 0.52584 0.40369 0.39603 0.0
O317 O 0.54498 0.41406 0.33289 0.0
C318 C 0.55838 0.30573 0.38561 0.0
O319 O 0.44478 0.38279 0.3948 0.0
O320 O 0.46316 0.4224 0.34732 0.0
C321 C 0.44185 0.35037 0.27047 0.0
Fe322 Fe 0.49626 0.64705 0.90216 0.0
Fe323 Fe 0.49211 0.60667 0.82161 0.0
O324 O 0.49574 0.64858 0.84873 0.0
Fe325 Fe 0.49901 0.69188 0.82294 0.0
O326 O 0.53494 0.71314 0.86014 0.0
O327 O 0.54894 0.66787 0.9029 0.0
O328 O 0.52274 0.60186 0.90606 0.0
C329 C 0.54647 0.58467 0.8815 0.0
C330 C 0.44703 0.71144 0.88597 0.0
O331 O 0.54116 0.58873 0.84407 0.0
C332 C 0.43856 0.65093 0.77715 0.0
O333 O 0.4435 0.62575 0.90452 0.0
O334 O 0.45809 0.58329 0.85928 0.0
O335 O 0.45099 0.70914 0.84823 0.0
O336 O 0.47023 0.69204 0.90898 0.0
C337 C 0.55073 0.6495 0.77428 0.0
O338 O 0.44317 0.62135 0.7972 0.0
O339 O 0.46421 0.67789 0.78132 0.0
C340 C 0.4346 0.59562 0.88742 0.0
O341 O 0.52509 0.62256 0.77896 0.0
O342 O 0.54707 0.67837 0.79522 0.0
C343 C 0.55882 0.69849 0.88671 0.0
C344 C 0.15538 0.25901 0.88714 0.0
C345 C 0.14809 0.27907 0.92276 0.0
C346 C 0.12332 0.23658 0.87068 0.0
C347 C 0.08301 0.23299 0.88954 0.0
H348 H 0.18648 0.25985 0.87235 0.0
H349 H 0.13058 0.22113 0.84365 0.0
S350 S 0.04598 0.28246 0.98087 0.0
N351 N 0.09614 0.29625 0.97434 0.0
N352 N 0.03635 0.25313 0.9441 0.0
C353 C 0.07488 0.25346 0.92461 0.0
C354 C 0.1073 0.27672 0.94105 0.0
C355 C 0.85808 0.75458 0.45096 0.0
C356 C 0.85157 0.71927 0.43446 0.0
C357 C 0.88668 0.78007 0.43293 0.0
C358 C 0.90988 0.77128 0.39762 0.0
H359 H 0.84209 0.7621 0.47879 0.0
H360 H 0.89144 0.80649 0.4475 0.0
S361 S 0.89977 0.68397 0.3398 0.0
N362 N 0.86738 0.67803 0.37891 0.0
N363 N 0.92105 0.72557 0.34501 0.0
C364 C 0.902 0.73658 0.37987 0.0
C365 C 0.87295 0.7107 0.39829 0.0
C366 C 0.87012 0.28724 0.88966 0.0
C367 C 0.84841 0.27946 0.92613 0.0
C368 C 0.8978 0.26128 0.87207 0.0
C369 C 0.90505 0.22641 0.89022 0.0
H370 H 0.86626 0.31392 0.87491 0.0
H371 H 0.91439 0.26906 0.84445 0.0
S372 S 0.85473 0.19196 0.98546 0.0
N373 N 0.8353 0.23413 0.97945 0.0
N374 N 0.88647 0.18506 0.94624 0.0
C375 C 0.88223 0.21778 0.92601 0.0
C376 C 0.85417 0.24433 0.94397 0.0
C377 C 0.12215 0.74073 0.45309 0.0
C378 C 0.15995 0.73387 0.43112 0.0
C379 C 0.0888 0.76176 0.43631 0.0
C380 C 0.09184 0.77606 0.39671 0.0
H381 H 0.11869 0.73034 0.48369 0.0
H382 H 0.06037 0.76663 0.45443 0.0
S383 S 0.18403 0.76459 0.32641 0.0
N384 N 0.19843 0.74217 0.36775 0.0
N385 N 0.1358 0.78135 0.33595 0.0
C386 C 0.12935 0.7688 0.37428 0.0
C387 C 0.1634 0.74781 0.39156 0.0
C388 C 0.6446 0.77301 0.89621 0.0
C389 C 0.67136 0.75876 0.92649 0.0
C390 C 0.60817 0.75347 0.88376 0.0
C391 C 0.59731 0.71878 0.90091 0.0
H392 H 0.65176 0.79958 0.8822 0.0
H393 H 0.58855 0.76569 0.86036 0.0
S394 S 0.6588 0.6687 0.98009 0.0
N395 N 0.68577 0.70758 0.97243 0.0
N396 N 0.61746 0.67071 0.94936 0.0
C397 C 0.62422 0.70415 0.93113 0.0
C398 C 0.66115 0.72418 0.94384 0.0
C399 C 0.37501 0.24627 0.45877 0.0
C400 C 0.35928 0.21525 0.43811 0.0
C401 C 0.40211 0.27222 0.43974 0.0
C402 C 0.41472 0.26837 0.39912 0.0
H403 H 0.36667 0.25035 0.49018 0.0
H404 H 0.41367 0.29528 0.45732 0.0
S405 S 0.38191 0.19214 0.3313 0.0
N406 N 0.358 0.18221 0.37464 0.0
N407 N 0.40833 0.2312 0.33856 0.0
C408 C 0.39824 0.23796 0.37772 0.0
C409 C 0.3707 0.21141 0.39725 0.0
C410 C 0.35386 0.77839 0.90207 0.0
C411 C 0.3644 0.79519 0.93881 0.0
C412 C 0.38094 0.75161 0.88469 0.0
C413 C 0.41891 0.7402 0.90397 0.0
H414 H 0.3249 0.78642 0.88642 0.0
H415 H 0.37186 0.73946 0.85625 0.0
S416 S 0.46023 0.77585 1.00102 0.0
N417 N 0.41501 0.79864 0.99386 0.0
N418 N 0.46546 0.74826 0.9619 0.0
C419 C 0.42937 0.75671 0.94096 0.0
C420 C 0.40224 0.7842 0.95819 0.0
C421 C 0.6469 0.234 0.39583 0.0
C422 C 0.66913 0.24537 0.4303 0.0
C423 C 0.61099 0.25347 0.38198 0.0
C424 C 0.59577 0.28516 0.40203 0.0
H425 H 0.65799 0.21038 0.37877 0.0
H426 H 0.59552 0.24385 0.35487 0.0
S427 S 0.64086 0.32452 0.49583 0.0
N428 N 0.67206 0.28883 0.4857 0.0
N429 N 0.60484 0.32581 0.4596 0.0
C430 C 0.61724 0.29633 0.43716 0.0
C431 C 0.65381 0.27638 0.45128 0.0
C432 C 0.35742 0.51545 0.89617 0.0
C433 C 0.35713 0.50817 0.93779 0.0
C434 C 0.38014 0.5458 0.8802 0.0
C435 C 0.40262 0.57013 0.90542 0.0
H436 H 0.34266 0.4961 0.87566 0.0
H437 H 0.38204 0.54913 0.84774 0.0
S438 S 0.40716 0.56521 0.01697 0.0
N439 N 0.37781 0.52904 0.00422 0.0
N440 N 0.41984 0.58672 0.97434 0.0
C441 C 0.39957 0.56478 0.94735 0.0
C442 C 0.37703 0.53352 0.96352 0.0
C443 C 0.59524 0.4966 0.43427 0.0
C444 C 0.63496 0.50463 0.41585 0.0
C445 C 0.568 0.46934 0.41893 0.0
C446 C 0.57903 0.44934 0.38412 0.0
H447 H 0.58568 0.51071 0.46157 0.0
H448 H 0.53801 0.46384 0.43464 0.0
S449 S 0.67852 0.46122 0.32336 0.0
N450 N 0.68358 0.49132 0.36028 0.0
N451 N 0.63179 0.44041 0.33081 0.0
C452 C 0.61806 0.45787 0.3646 0.0
C453 C 0.64623 0.48534 0.38069 0.0
C454 C 0.60692 0.52444 0.95647 0.0
C455 C 0.63665 0.50521 0.9325 0.0
C456 C 0.57815 0.54977 0.93954 0.0
C457 C 0.57764 0.55713 0.89773 0.0
H458 H 0.6057 0.51974 0.98876 0.0
H459 H 0.55604 0.56366 0.95968 0.0
S460 S 0.64989 0.51462 0.82166 0.0
N461 N 0.66455 0.49553 0.86484 0.0
N462 N 0.61017 0.54311 0.83272 0.0
C463 C 0.60718 0.53797 0.87325 0.0
C464 C 0.63663 0.512 0.89066 0.0
C465 C 0.34563 0.46248 0.42782 0.0
C466 C 0.35814 0.4999 0.42426 0.0
C467 C 0.37211 0.43401 0.41289 0.0
C468 C 0.41171 0.44234 0.39416 0.0
H469 H 0.31516 0.45531 0.44175 0.0
H470 H 0.36127 0.40553 0.41537 0.0
S471 S 0.46155 0.53569 0.38367 0.0
N472 N 0.41437 0.54333 0.40482 0.0
N473 N 0.46385 0.4905 0.37701 0.0
C474 C 0.42505 0.47964 0.39211 0.0
C475 C 0.39833 0.50826 0.40713 0.0
C476 C 0.8974 0.01311 0.9419 0.0
C477 C 0.87932 0.98698 0.91587 0.0
C478 C 0.91559 0.046 0.92698 0.0
C479 C 0.9169 0.05393 0.8853 0.0
H480 H 0.89895 0.0074 0.97398 0.0
H481 H 0.93062 0.06443 0.94829 0.0
S482 S 0.86923 0.99609 0.80498 0.0
N483 N 0.86026 0.97233 0.84699 0.0
N484 N 0.89429 0.03429 0.81862 0.0
C485 C 0.89619 0.02909 0.85919 0.0
C486 C 0.87748 0.99558 0.87455 0.0
C487 C 0.14128 0.95319 0.44604 0.0
C488 C 0.14452 0.99014 0.43242 0.0
C489 C 0.11173 0.92849 0.42911 0.0
C490 C 0.08435 0.93968 0.39766 0.0
H491 H 0.16116 0.94345 0.4706 0.0
H492 H 0.11021 0.90049 0.44107 0.0
S493 S 0.08244 0.0332 0.34948 0.0
N494 N 0.11953 0.03639 0.38454 0.0
N495 N 0.06397 0.99035 0.35257 0.0
C496 C 0.08806 0.9765 0.38318 0.0
C497 C 0.11804 1.00161 0.40062 0.0
C498 C 0.11649 0.00687 0.91321 0.0
C499 C 0.15159 0.0214 0.9344 0.0
C500 C 0.08625 0.03019 0.89497 0.0
C501 C 0.08961 0.06901 0.89749 0.0
H502 H 0.11161 0.97719 0.91164 0.0
H503 H 0.05935 0.01758 0.87971 0.0
S504 S 0.17795 0.1212 0.94554 0.0
N505 N 0.18995 0.07723 0.95376 0.0
N506 N 0.13248 0.12102 0.9203 0.0
C507 C 0.12515 0.08398 0.91759 0.0
C508 C 0.15624 0.06022 0.93583 0.0
C509 C 0.89098 0.98858 0.43705 0.0
C510 C 0.86725 0.00965 0.40919 0.0
C511 C 0.91227 0.95624 0.42539 0.0
C512 C 0.91086 0.9437 0.38535 0.0
H513 H 0.89522 0.99826 0.46756 0.0
H514 H 0.93185 0.94214 0.4476 0.0
S515 S 0.84672 0.9855 0.30267 0.0
N516 N 0.83879 0.01323 0.34131 0.0
N517 N 0.87896 0.95249 0.31911 0.0
C518 C 0.88455 0.96305 0.35793 0.0
C519 C 0.86283 0.99604 0.3699 0.0
C520 C 0.39564 0.32285 0.17006 0.0
C521 C 0.35907 0.34539 0.16633 0.0
C522 C 0.42111 0.32381 0.20449 0.0
C523 C 0.41147 0.3477 0.23655 0.0
H524 H 0.40588 0.30535 0.14547 0.0
H525 H 0.44963 0.3067 0.20512 0.0
S526 S 0.3168 0.40943 0.24392 0.0
N527 N 0.31227 0.38987 0.19933 0.0
N528 N 0.36111 0.39246 0.26385 0.0
C529 C 0.37424 0.36951 0.23399 0.0
C530 C 0.34786 0.36819 0.19895 0.0
C531 C 0.62354 0.60888 0.69426 0.0
C532 C 0.63585 0.63981 0.67068 0.0
C533 C 0.59741 0.61265 0.72845 0.0
C534 C 0.58269 0.64758 0.74093 0.0
H535 H 0.63368 0.58129 0.68587 0.0
H536 H 0.58809 0.58781 0.74493 0.0
S537 S 0.60685 0.73766 0.69076 0.0
N538 N 0.63213 0.70681 0.66287 0.0
N539 N 0.58356 0.714 0.72778 0.0
C540 C 0.59613 0.67901 0.71871 0.0
C541 C 0.62258 0.67511 0.68348 0.0
C542 C 0.64937 0.33476 0.19774 0.0
C543 C 0.63764 0.35361 0.16204 0.0
C544 C 0.62146 0.3329 0.23132 0.0
C545 C 0.58114 0.35036 0.23054 0.0
H546 H 0.68054 0.32168 0.19987 0.0
H547 H 0.63203 0.31873 0.25838 0.0
S548 S 0.53444 0.40199 0.14386 0.0
N549 N 0.58247 0.38939 0.12798 0.0
N550 N 0.53 0.38531 0.19015 0.0
C551 C 0.56868 0.3684 0.1946 0.0
C552 C 0.59689 0.37018 0.16063 0.0
C553 C 0.37236 0.61665 0.68983 0.0
C554 C 0.36278 0.64948 0.6687 0.0
C555 C 0.3943 0.61754 0.72647 0.0
C556 C 0.40818 0.65131 0.74295 0.0
H557 H 0.36443 0.59 0.67702 0.0
H558 H 0.40259 0.59137 0.74064 0.0
S559 S 0.38669 0.74523 0.70119 0.0
N560 N 0.36524 0.71673 0.66824 0.0
N561 N 0.40683 0.71863 0.73711 0.0
C562 C 0.39637 0.68447 0.72326 0.0
C563 C 0.37357 0.68351 0.68612 0.0
C564 C 0.88673 0.80786 0.17984 0.0
C565 C 0.87883 0.83901 0.15516 0.0
C566 C 0.90629 0.81148 0.21753 0.0
C567 C 0.91895 0.84642 0.23186 0.0
H568 H 0.87905 0.7803 0.16934 0.0
H569 H 0.91344 0.7865 0.23454 0.0
S570 S 0.90106 0.9371 0.18082 0.0
N571 N 0.88233 0.90619 0.14906 0.0
N572 N 0.91795 0.91314 0.2202 0.0
C573 C 0.90858 0.878 0.20864 0.0
C574 C 0.88881 0.87428 0.17023 0.0
C575 C 0.11874 0.1557 0.66812 0.0
C576 C 0.15448 0.13229 0.67291 0.0
C577 C 0.08936 0.16116 0.69982 0.0
C578 C 0.09456 0.14323 0.73733 0.0
H579 H 0.11239 0.16859 0.63917 0.0
H580 H 0.06134 0.17814 0.69425 0.0
S581 S 0.18638 0.08404 0.76729 0.0
N582 N 0.19617 0.09485 0.71963 0.0
N583 N 0.14064 0.10452 0.77881 0.0
C584 C 0.13142 0.12148 0.74317 0.0
C585 C 0.16143 0.11616 0.71107 0.0
C586 C 0.12458 0.8982 0.18465 0.0
C587 C 0.14542 0.86706 0.16865 0.0
C588 C 0.09786 0.89512 0.21864 0.0
C589 C 0.09025 0.86062 0.23756 0.0
H590 H 0.12896 0.92523 0.17069 0.0
H591 H 0.08204 0.91988 0.22941 0.0
S592 S 0.13847 0.77081 0.20813 0.0
N593 N 0.15812 0.8009 0.17494 0.0
N594 N 0.10692 0.79478 0.23842 0.0
C595 C 0.11138 0.82928 0.22215 0.0
C596 C 0.13927 0.83259 0.18786 0.0
C597 C 0.90362 0.11976 0.66025 0.0
C598 C 0.88386 0.15237 0.64632 0.0
C599 C 0.92201 0.11782 0.69856 0.0
C600 C 0.92172 0.14855 0.72446 0.0
H601 H 0.90606 0.09586 0.64084 0.0
H602 H 0.93811 0.09241 0.70715 0.0
S603 S 0.8702 0.23946 0.70337 0.0
N604 N 0.86225 0.21523 0.66211 0.0
N605 N 0.89647 0.21175 0.7344 0.0
C606 C 0.89969 0.18068 0.71174 0.0
C607 C 0.88088 0.18255 0.67261 0.0
loop_
_geom_bond_atom_site_label_1
_geom_bond_atom_site_label_2
_geom_bond_distance
_geom_bond_site_symmetry_2
_ccdc_geom_bond_type
P0 O11 1.490 . S
P0 C14 1.812 1_556 S
P0 C20 1.803 . S
P0 C26 1.819 . S
H1 C15 0.941 . S
H2 C16 0.939 . S
H3 C18 0.940 . S
H4 C19 0.940 . S
H5 C21 0.939 . S
H6 C22 0.942 . S
H7 C24 0.940 1_554 S
H8 C25 0.915 1_554 S
H9 C27 0.941 . S
H10 C31 0.939 . S
O11 P0 1.490 . S
H12 C28 0.939 . S
H13 C30 0.940 . S
C14 P0 1.812 1_554 S
C14 C15 1.389 . S
C14 C19 1.391 . S
C15 H1 0.941 . S
C15 C14 1.389 . S
C15 C16 1.397 . S
C16 H2 0.939 . S
C16 C15 1.397 . S
C16 C17 1.378 . S
C17 C16 1.378 . S
C17 C18 1.378 . S
C18 H3 0.940 . S
C18 C17 1.378 . S
C18 C19 1.396 . S
C19 H4 0.940 . S
C19 C14 1.391 . S
C19 C18 1.396 . S
C20 P0 1.803 . S
C20 C21 1.378 . S
C20 C25 1.416 . S
C21 H5 0.939 . S
C21 C20 1.378 . S
C21 C22 1.361 . S
C22 H6 0.942 . S
C22 C21 1.361 . S
C22 C23 1.369 . S
C23 C22 1.369 . S
C23 C24 1.404 . S
C24 H7 0.940 1_556 S
C24 C23 1.404 . S
C24 C25 1.397 . S
C25 H8 0.915 1_556 S
C25 C20 1.416 . S
C25 C24 1.397 . S
C26 P0 1.819 . S
C26 C27 1.391 . S
C26 C31 1.391 . S
C27 H9 0.941 . S
C27 C26 1.391 . S
C27 C28 1.396 . S
C28 H12 0.939 . S
C28 C27 1.396 . S
C28 C29 1.397 . S
C29 C28 1.397 . S
C29 C30 1.385 . S
C30 H13 0.940 . S
C30 C29 1.385 . S
C30 C31 1.388 . S
C31 H10 0.939 . S
C31 C26 1.391 . S
C31 C30 1.388 . S
P32 O43 1.490 . S
P32 C46 1.812 . S
P32 C52 1.803 . S
P32 C58 1.819 . S
H33 C47 0.941 . S
H34 C48 0.939 . S
H35 C50 0.940 . S
H36 C51 0.940 . S
H37 C53 0.939 . S
H38 C54 0.942 . S
H39 C56 0.940 . S
H40 C57 0.939 . S
H41 C59 0.941 . S
H42 C63 0.939 . S
O43 P32 1.490 . S
H44 C60 0.939 . S
H45 C62 0.940 . S
C46 P32 1.812 . S
C46 C47 1.389 . S
C46 C51 1.391 . S
C47 H33 0.941 . S
C47 C46 1.389 . S
C47 C48 1.397 . S
C48 H34 0.939 . S
C48 C47 1.397 . S
C48 C49 1.378 . S
C49 C48 1.378 . S
C49 C50 1.378 . S
C50 H35 0.940 . S
C50 C49 1.378 . S
C50 C51 1.396 . S
C51 H36 0.940 . S
C51 C46 1.391 . S
C51 C50 1.396 . S
C52 P32 1.803 . S
C52 C53 1.378 . S
C52 C57 1.400 . S
C53 H37 0.939 . S
C53 C52 1.378 . S
C53 C54 1.361 . S
C54 H38 0.942 . S
C54 C53 1.361 . S
C54 C55 1.369 . S
C55 C54 1.369 . S
C55 C56 1.404 . S
C56 H39 0.940 . S
C56 C55 1.404 . S
C56 C57 1.389 . S
C57 H40 0.939 . S
C57 C52 1.400 . S
C57 C56 1.389 . S
C58 P32 1.819 . S
C58 C59 1.391 . S
C58 C63 1.391 . S
C59 H41 0.941 . S
C59 C58 1.391 . S
C59 C60 1.396 . S
C60 H44 0.939 . S
C60 C59 1.396 . S
C60 C61 1.397 . S
C61 C60 1.397 . S
C61 C62 1.385 . S
C62 H45 0.940 . S
C62 C61 1.385 . S
C62 C63 1.388 . S
C63 H42 0.939 . S
C63 C58 1.391 . S
C63 C62 1.388 . S
P64 O75 1.490 . S
P64 C78 1.812 . S
P64 C84 1.803 . S
P64 C90 1.819 1_554 S
H65 C79 0.941 . S
H66 C80 0.939 . S
H67 C82 0.940 . S
H68 C83 0.940 . S
H69 C85 0.939 . S
H70 C86 0.942 . S
H71 C88 0.940 . S
H72 C89 0.939 1_554 S
H73 C91 0.941 . S
H74 C95 0.939 . S
O75 P64 1.490 . S
H76 C92 0.939 . S
H77 C94 0.940 . S
C78 P64 1.812 . S
C78 C79 1.389 . S
C78 C83 1.391 . S
C79 H65 0.941 . S
C79 C78 1.389 . S
C79 C80 1.397 . S
C80 H66 0.939 . S
C80 C79 1.397 . S
C80 C81 1.378 . S
C81 C80 1.378 . S
C81 C82 1.378 . S
C82 H67 0.940 . S
C82 C81 1.378 . S
C82 C83 1.396 . S
C83 H68 0.940 . S
C83 C78 1.391 . S
C83 C82 1.396 . S
C84 P64 1.803 . S
C84 C85 1.378 1_554 S
C84 C89 1.400 1_554 S
C85 H69 0.939 . S
C85 C84 1.378 1_556 S
C85 C86 1.361 . S
C86 H70 0.942 . S
C86 C85 1.361 . S
C86 C87 1.369 . S
C87 C86 1.369 . S
C87 C88 1.404 . S
C88 H71 0.940 . S
C88 C87 1.404 . S
C88 C89 1.389 . S
C89 H72 0.939 1_556 S
C89 C84 1.400 1_556 S
C89 C88 1.389 . S
C90 P64 1.819 1_556 S
C90 C91 1.391 1_556 S
C90 C95 1.391 . S
C91 H73 0.941 . S
C91 C90 1.391 1_554 S
C91 C92 1.396 1_554 S
C92 H76 0.939 . S
C92 C91 1.396 1_556 S
C92 C93 1.397 . S
C93 C92 1.397 . S
C93 C94 1.385 . S
C94 H77 0.940 . S
C94 C93 1.385 . S
C94 C95 1.388 . S
C95 H74 0.939 . S
C95 C90 1.391 . S
C95 C94 1.388 . S
P96 O107 1.490 . S
P96 C110 1.812 . S
P96 C116 1.803 . S
P96 C122 1.819 . S
H97 C111 0.941 . S
H98 C112 0.939 . S
H99 C114 0.940 . S
H100 C115 0.940 . S
H101 C117 0.939 . S
H102 C118 0.942 . S
H103 C120 0.940 . S
H104 C121 0.939 . S
H105 C123 0.941 . S
H106 C127 0.939 . S
O107 P96 1.490 . S
H108 C124 0.939 . S
H109 C126 0.940 . S
C110 P96 1.812 . S
C110 C111 1.389 . S
C110 C115 1.391 . S
C111 H97 0.941 . S
C111 C110 1.389 . S
C111 C112 1.397 . S
C112 H98 0.939 . S
C112 C111 1.397 . S
C112 C113 1.378 . S
C113 C112 1.378 . S
C113 C114 1.378 . S
C114 H99 0.940 . S
C114 C113 1.378 . S
C114 C115 1.396 . S
C115 H100 0.940 . S
C115 C110 1.391 . S
C115 C114 1.396 . S
C116 P96 1.803 . S
C116 C117 1.378 . S
C116 C121 1.400 . S
C117 H101 0.939 . S
C117 C116 1.378 . S
C117 C118 1.361 . S
C118 H102 0.942 . S
C118 C117 1.361 . S
C118 C119 1.369 . S
C119 C118 1.369 . S
C119 C120 1.404 . S
C120 H103 0.940 . S
C120 C119 1.404 . S
C120 C121 1.389 . S
C121 H104 0.939 . S
C121 C116 1.400 . S
C121 C120 1.389 . S
C122 P96 1.819 . S
C122 C123 1.391 . S
C122 C127 1.391 . S
C123 H105 0.941 . S
C123 C122 1.391 . S
C123 C124 1.396 . S
C124 H108 0.939 . S
C124 C123 1.396 . S
C124 C125 1.397 . S
C125 C124 1.397 . S
C125 C126 1.385 . S
C126 H109 0.940 . S
C126 C125 1.385 . S
C126 C127 1.388 . S
C127 H106 0.939 . S
C127 C122 1.391 . S
C127 C126 1.388 . S
P128 O139 1.490 . S
P128 C142 1.812 1_556 S
P128 C148 1.803 . S
P128 C154 1.819 . S
H129 C143 0.941 . S
H130 C144 0.939 . S
H131 C146 0.940 . S
H132 C147 0.940 . S
H133 C149 0.939 . S
H134 C150 0.942 . S
H135 C152 0.940 1_554 S
H136 C153 0.915 1_554 S
H137 C155 0.941 . S
H138 C159 0.939 . S
O139 P128 1.490 . S
H140 C156 0.939 . S
H141 C158 0.940 . S
C142 P128 1.812 1_554 S
C142 C143 1.389 . S
C142 C147 1.391 . S
C143 H129 0.941 . S
C143 C142 1.389 . S
C143 C144 1.397 . S
C144 H130 0.939 . S
C144 C143 1.397 . S
C144 C145 1.378 . S
C145 C144 1.378 . S
C145 C146 1.378 . S
C146 H131 0.940 . S
C146 C145 1.378 . S
C146 C147 1.396 . S
C147 H132 0.940 . S
C147 C142 1.391 . S
C147 C146 1.396 . S
C148 P128 1.803 . S
C148 C149 1.378 . S
C148 C153 1.416 . S
C149 H133 0.939 . S
C149 C148 1.378 . S
C149 C150 1.361 . S
C150 H134 0.942 . S
C150 C149 1.361 . S
C150 C151 1.369 . S
C151 C150 1.369 . S
C151 C152 1.404 . S
C152 H135 0.940 1_556 S
C152 C151 1.404 . S
C152 C153 1.397 . S
C153 H136 0.915 1_556 S
C153 C148 1.416 . S
C153 C152 1.397 . S
C154 P128 1.819 . S
C154 C155 1.391 . S
C154 C159 1.391 . S
C155 H137 0.941 . S
C155 C154 1.391 . S
C155 C156 1.396 . S
C156 H140 0.939 . S
C156 C155 1.396 . S
C156 C157 1.397 . S
C157 C156 1.397 . S
C157 C158 1.385 . S
C158 H141 0.940 . S
C158 C157 1.385 . S
C158 C159 1.388 . S
C159 H138 0.939 . S
C159 C154 1.391 . S
C159 C158 1.388 . S
P160 O171 1.490 . S
P160 C174 1.812 . S
P160 C180 1.803 . S
P160 C186 1.819 . S
H161 C175 0.941 . S
H162 C176 0.939 . S
H163 C178 0.940 . S
H164 C179 0.940 . S
H165 C181 0.939 . S
H166 C182 0.942 . S
H167 C184 0.940 . S
H168 C185 0.939 . S
H169 C187 0.941 . S
H170 C191 0.939 . S
O171 P160 1.490 . S
H172 C188 0.939 . S
H173 C190 0.940 . S
C174 P160 1.812 . S
C174 C175 1.389 . S
C174 C179 1.391 . S
C175 H161 0.941 . S
C175 C174 1.389 . S
C175 C176 1.397 1_545 S
C176 H162 0.939 . S
C176 C175 1.397 1_565 S
C176 C177 1.378 1_565 S
C177 C176 1.378 1_545 S
C177 C178 1.378 . S
C178 H163 0.940 . S
C178 C177 1.378 . S
C178 C179 1.396 . S
C179 H164 0.940 . S
C179 C174 1.391 . S
C179 C178 1.396 . S
C180 P160 1.803 . S
C180 C181 1.378 . S
C180 C185 1.400 . S
C181 H165 0.939 . S
C181 C180 1.378 . S
C181 C182 1.361 . S
C182 H166 0.942 . S
C182 C181 1.361 . S
C182 C183 1.369 . S
C183 C182 1.369 . S
C183 C184 1.404 . S
C184 H167 0.940 . S
C184 C183 1.404 . S
C184 C185 1.389 . S
C185 H168 0.939 . S
C185 C180 1.400 . S
C185 C184 1.389 . S
C186 P160 1.819 . S
C186 C187 1.391 . S
C186 C191 1.391 . S
C187 H169 0.941 . S
C187 C186 1.391 . S
C187 C188 1.396 . S
C188 H172 0.939 . S
C188 C187 1.396 . S
C188 C189 1.397 . S
C189 C188 1.397 . S
C189 C190 1.385 . S
C190 H173 0.940 . S
C190 C189 1.385 . S
C190 C191 1.388 . S
C191 H170 0.939 . S
C191 C186 1.391 . S
C191 C190 1.388 . S
P192 O203 1.490 . S
P192 C206 1.812 . S
P192 C212 1.803 . S
P192 C218 1.819 1_554 S
H193 C207 0.941 . S
H194 C208 0.939 . S
H195 C210 0.940 . S
H196 C211 0.940 . S
H197 C213 0.939 . S
H198 C214 0.942 . S
H199 C216 0.940 . S
H200 C217 0.939 1_554 S
H201 C219 0.941 . S
H202 C223 0.939 . S
O203 P192 1.490 . S
H204 C220 0.939 . S
H205 C222 0.940 . S
C206 P192 1.812 . S
C206 C207 1.389 . S
C206 C211 1.391 . S
C207 H193 0.941 . S
C207 C206 1.389 . S
C207 C208 1.397 . S
C208 H194 0.939 . S
C208 C207 1.397 . S
C208 C209 1.378 . S
C209 C208 1.378 . S
C209 C210 1.378 . S
C210 H195 0.940 . S
C210 C209 1.378 . S
C210 C211 1.396 . S
C211 H196 0.940 . S
C211 C206 1.391 . S
C211 C210 1.396 . S
C212 P192 1.803 . S
C212 C213 1.378 1_554 S
C212 C217 1.400 1_554 S
C213 H197 0.939 . S
C213 C212 1.378 1_556 S
C213 C214 1.361 . S
C214 H198 0.942 . S
C214 C213 1.361 . S
C214 C215 1.369 . S
C215 C214 1.369 . S
C215 C216 1.404 . S
C216 H199 0.940 . S
C216 C215 1.404 . S
C216 C217 1.389 . S
C217 H200 0.939 1_556 S
C217 C212 1.400 1_556 S
C217 C216 1.389 . S
C218 P192 1.819 1_556 S
C218 C219 1.391 1_556 S
C218 C223 1.391 . S
C219 H201 0.941 . S
C219 C218 1.391 1_554 S
C219 C220 1.396 1_564 S
C220 H204 0.939 . S
C220 C219 1.396 1_546 S
C220 C221 1.397 1_545 S
C221 C220 1.397 1_565 S
C221 C222 1.385 . S
C222 H205 0.940 . S
C222 C221 1.385 . S
C222 C223 1.388 . S
C223 H202 0.939 . S
C223 C218 1.391 . S
C223 C222 1.388 . S
P224 O235 1.490 . S
P224 C238 1.812 . S
P224 C244 1.803 . S
P224 C250 1.819 . S
H225 C239 0.941 . S
H226 C240 0.939 . S
H227 C242 0.940 1_565 S
H228 C243 0.940 . S
H229 C245 0.939 . S
H230 C246 0.942 . S
H231 C248 0.940 . S
H232 C249 0.939 . S
H233 C251 0.941 . S
H234 C255 0.939 . S
O235 P224 1.490 . S
H236 C252 0.939 . S
H237 C254 0.940 . S
C238 P224 1.812 . S
C238 C239 1.389 . S
C238 C243 1.391 . S
C239 H225 0.941 . S
C239 C238 1.389 . S
C239 C240 1.397 . S
C240 H226 0.939 . S
C240 C239 1.397 . S
C240 C241 1.378 . S
C241 C240 1.378 . S
C241 C242 1.378 . S
C242 H227 0.940 1_545 S
C242 C241 1.378 . S
C242 C243 1.396 . S
C243 H228 0.940 . S
C243 C238 1.391 . S
C243 C242 1.396 . S
C244 P224 1.803 . S
C244 C245 1.378 . S
C244 C249 1.400 . S
C245 H229 0.939 . S
C245 C244 1.378 . S
C245 C246 1.361 . S
C246 H230 0.942 . S
C246 C245 1.361 . S
C246 C247 1.369 . S
C247 C246 1.369 . S
C247 C248 1.404 . S
C248 H231 0.940 . S
C248 C247 1.404 . S
C248 C249 1.389 . S
C249 H232 0.939 . S
C249 C244 1.400 . S
C249 C248 1.389 . S
C250 P224 1.819 . S
C250 C251 1.391 . S
C250 C255 1.391 . S
C251 H233 0.941 . S
C251 C250 1.391 . S
C251 C252 1.396 . S
C252 H236 0.939 . S
C252 C251 1.396 . S
C252 C253 1.397 . S
C253 C252 1.397 . S
C253 C254 1.385 . S
C254 H237 0.940 . S
C254 C253 1.385 . S
C254 C255 1.388 . S
C255 H234 0.939 . S
C255 C250 1.391 . S
C255 C254 1.388 . S
Fe256 O258 1.918 . S
Fe256 O261 1.997 1_455 S
Fe256 O262 2.002 1_455 S
Fe256 O267 1.976 . S
Fe256 O270 1.996 . S
Fe257 O258 1.918 . S
Fe257 O265 1.997 1_455 S
Fe257 O268 1.996 . S
Fe257 O272 1.976 . S
Fe257 O275 2.002 1_455 S
O258 Fe256 1.918 . S
O258 Fe257 1.918 . S
O258 Fe259 1.918 . S
Fe259 O258 1.918 . S
Fe259 O260 2.002 1_455 S
Fe259 O269 1.976 . S
Fe259 O273 1.996 . S
Fe259 O276 1.997 1_455 S
O260 Fe259 2.002 1_655 S
O260 C277 1.295 . S
O261 Fe256 1.997 1_655 S
O261 C277 1.235 . S
O262 Fe256 2.002 1_655 S
O262 C263 1.295 . S
C263 O262 1.295 . S
C263 O265 1.235 . S
C264 O269 1.287 . S
C264 O270 1.255 . S
O265 Fe257 1.997 1_655 S
O265 C263 1.235 . S
C266 O272 1.287 . S
C266 O273 1.255 . S
O267 Fe256 1.976 . S
O267 C274 1.287 . S
O268 Fe257 1.996 . S
O268 C274 1.255 . S
O269 Fe259 1.976 . S
O269 C264 1.287 . S
O270 Fe256 1.996 . S
O270 C264 1.255 . S
C271 O275 1.295 . S
C271 O276 1.235 . S
O272 Fe257 1.976 . S
O272 C266 1.287 . S
O273 Fe259 1.996 . S
O273 C266 1.255 . S
C274 O267 1.287 . S
C274 O268 1.255 . S
O275 Fe257 2.002 1_655 S
O275 C271 1.295 . S
O276 Fe259 1.997 1_655 S
O276 C271 1.235 . S
C277 O260 1.295 . S
C277 O261 1.235 . S
Fe278 O280 1.919 . S
Fe278 O283 1.977 1_655 S
Fe278 O284 1.982 1_655 S
Fe278 O289 1.996 . S
Fe278 O292 2.015 . S
Fe279 O280 1.919 . S
Fe279 O287 1.977 1_655 S
Fe279 O290 2.015 . S
Fe279 O294 1.995 . S
Fe279 O297 1.983 1_655 S
O280 Fe278 1.919 . S
O280 Fe279 1.919 . S
O280 Fe281 1.919 . S
Fe281 O280 1.919 . S
Fe281 O282 1.983 1_655 S
Fe281 O291 1.995 . S
Fe281 O295 2.015 . S
Fe281 O298 1.977 1_655 S
O282 Fe281 1.983 1_455 S
O282 C299 1.295 . S
O283 Fe278 1.977 1_455 S
O283 C299 1.235 . S
O284 Fe278 1.982 1_455 S
O284 C285 1.295 . S
C285 O284 1.295 . S
C285 O287 1.235 . S
C286 O291 1.287 . S
C286 O292 1.255 . S
O287 Fe279 1.977 1_455 S
O287 C285 1.235 . S
C288 O294 1.287 . S
C288 O295 1.255 . S
O289 Fe278 1.996 . S
O289 C296 1.287 . S
O290 Fe279 2.015 . S
O290 C296 1.255 . S
O291 Fe281 1.995 . S
O291 C286 1.287 . S
O292 Fe278 2.015 . S
O292 C286 1.255 . S
C293 O297 1.295 . S
C293 O298 1.235 . S
O294 Fe279 1.995 . S
O294 C288 1.287 . S
O295 Fe281 2.015 . S
O295 C288 1.255 . S
C296 O289 1.287 . S
C296 O290 1.255 . S
O297 Fe279 1.983 1_455 S
O297 C293 1.295 . S
O298 Fe281 1.977 1_455 S
O298 C293 1.235 . S
C299 O282 1.295 . S
C299 O283 1.235 . S
Fe300 O302 1.918 . S
Fe300 O305 1.997 . S
Fe300 O306 2.002 . S
Fe300 O311 1.976 . S
Fe300 O314 1.996 . S
Fe301 O302 1.918 . S
Fe301 O309 1.997 . S
Fe301 O312 1.996 . S
Fe301 O316 1.976 . S
Fe301 O319 2.002 . S
O302 Fe300 1.918 . S
O302 Fe301 1.918 . S
O302 Fe303 1.918 . S
Fe303 O302 1.918 . S
Fe303 O304 2.002 . S
Fe303 O313 1.976 . S
Fe303 O317 1.996 . S
Fe303 O320 1.997 . S
O304 Fe303 2.002 . S
O304 C321 1.295 . S
O305 Fe300 1.997 . S
O305 C321 1.235 . S
O306 Fe300 2.002 . S
O306 C307 1.295 . S
C307 O306 1.295 . S
C307 O309 1.235 . S
C308 O313 1.287 . S
C308 O314 1.255 . S
O309 Fe301 1.997 . S
O309 C307 1.235 . S
C310 O316 1.287 . S
C310 O317 1.255 . S
O311 Fe300 1.976 . S
O311 C318 1.287 . S
O312 Fe301 1.996 . S
O312 C318 1.255 . S
O313 Fe303 1.976 . S
O313 C308 1.287 . S
O314 Fe300 1.996 . S
O314 C308 1.255 . S
C315 O319 1.295 . S
C315 O320 1.235 . S
O316 Fe301 1.976 . S
O316 C310 1.287 . S
O317 Fe303 1.996 . S
O317 C310 1.255 . S
C318 O311 1.287 . S
C318 O312 1.255 . S
O319 Fe301 2.002 . S
O319 C315 1.295 . S
O320 Fe303 1.997 . S
O320 C315 1.235 . S
C321 O304 1.295 . S
C321 O305 1.235 . S
Fe322 O324 1.918 . S
Fe322 O327 1.997 . S
Fe322 O328 2.002 . S
Fe322 O333 1.976 . S
Fe322 O336 1.996 . S
Fe323 O324 1.918 . S
Fe323 O331 1.997 . S
Fe323 O334 1.996 . S
Fe323 O338 1.976 . S
Fe323 O341 2.002 . S
O324 Fe322 1.918 . S
O324 Fe323 1.918 . S
O324 Fe325 1.918 . S
Fe325 O324 1.918 . S
Fe325 O326 2.002 . S
Fe325 O335 1.976 . S
Fe325 O339 1.996 . S
Fe325 O342 1.997 . S
O326 Fe325 2.002 . S
O326 C343 1.295 . S
O327 Fe322 1.997 . S
O327 C343 1.235 . S
O328 Fe322 2.002 . S
O328 C329 1.295 . S
C329 O328 1.295 . S
C329 O331 1.235 . S
C330 O335 1.287 . S
C330 O336 1.255 . S
O331 Fe323 1.997 . S
O331 C329 1.235 . S
C332 O338 1.287 . S
C332 O339 1.255 . S
O333 Fe322 1.976 . S
O333 C340 1.287 . S
O334 Fe323 1.996 . S
O334 C340 1.255 . S
O335 Fe325 1.976 . S
O335 C330 1.287 . S
O336 Fe322 1.996 . S
O336 C330 1.255 . S
C337 O341 1.295 . S
C337 O342 1.235 . S
O338 Fe323 1.976 . S
O338 C332 1.287 . S
O339 Fe325 1.996 . S
O339 C332 1.255 . S
C340 O333 1.287 . S
C340 O334 1.255 . S
O341 Fe323 2.002 . S
O341 C337 1.295 . S
O342 Fe325 1.997 . S
O342 C337 1.235 . S
C343 O326 1.295 . S
C343 O327 1.235 . S
C344 C345 1.369 . S
C344 C346 1.419 . S
C344 H348 0.930 . S
C345 C344 1.369 . S
C345 C354 1.429 . S
C346 C344 1.419 . S
C346 C347 1.363 . S
C346 H349 0.929 . S
C347 C346 1.363 . S
C347 C353 1.428 . S
H348 C344 0.930 . S
H349 C346 0.929 . S
S350 N351 1.613 . S
S350 N352 1.610 . S
N351 S350 1.613 . S
N351 C354 1.350 . S
N352 S350 1.610 . S
N352 C353 1.351 . S
C353 C347 1.428 . S
C353 N352 1.351 . S
C353 C354 1.434 . S
C354 C345 1.429 . S
C354 N351 1.350 . S
C354 C353 1.434 . S
C355 C356 1.369 . S
C355 C357 1.419 . S
C355 H359 0.930 . S
C356 C355 1.369 . S
C356 C365 1.429 . S
C357 C355 1.419 . S
C357 C358 1.363 . S
C357 H360 0.929 . S
C358 C357 1.363 . S
C358 C364 1.428 . S
H359 C355 0.930 . S
H360 C357 0.929 . S
S361 N362 1.613 . S
S361 N363 1.610 . S
N362 S361 1.613 . S
N362 C365 1.350 . S
N363 S361 1.610 . S
N363 C364 1.351 . S
C364 C358 1.428 . S
C364 N363 1.351 . S
C364 C365 1.434 . S
C365 C356 1.429 . S
C365 N362 1.350 . S
C365 C364 1.434 . S
C366 C367 1.369 . S
C366 C368 1.419 . S
C366 H370 0.930 . S
C367 C366 1.369 . S
C367 C376 1.429 . S
C368 C366 1.419 . S
C368 C369 1.363 . S
C368 H371 0.929 . S
C369 C368 1.363 . S
C369 C375 1.428 . S
H370 C366 0.930 . S
H371 C368 0.929 . S
S372 N373 1.613 . S
S372 N374 1.610 . S
N373 S372 1.613 . S
N373 C376 1.350 . S
N374 S372 1.610 . S
N374 C375 1.351 . S
C375 C369 1.428 . S
C375 N374 1.351 . S
C375 C376 1.434 . S
C376 C367 1.429 . S
C376 N373 1.350 . S
C376 C375 1.434 . S
C377 C378 1.369 . S
C377 C379 1.419 . S
C377 H381 0.930 . S
C378 C377 1.369 . S
C378 C387 1.429 . S
C379 C377 1.419 . S
C379 C380 1.363 . S
C379 H382 0.929 . S
C380 C379 1.363 . S
C380 C386 1.428 . S
H381 C377 0.930 . S
H382 C379 0.929 . S
S383 N384 1.613 . S
S383 N385 1.610 . S
N384 S383 1.613 . S
N384 C387 1.350 . S
N385 S383 1.610 . S
N385 C386 1.351 . S
C386 C380 1.428 . S
C386 N385 1.351 . S
C386 C387 1.434 . S
C387 C378 1.429 . S
C387 N384 1.350 . S
C387 C386 1.434 . S
C388 C389 1.369 . S
C388 C390 1.419 . S
C388 H392 0.930 . S
C389 C388 1.369 . S
C389 C398 1.429 . S
C390 C388 1.419 . S
C390 C391 1.363 . S
C390 H393 0.929 . S
C391 C390 1.363 . S
C391 C397 1.428 . S
H392 C388 0.930 . S
H393 C390 0.929 . S
S394 N395 1.613 . S
S394 N396 1.610 . S
N395 S394 1.613 . S
N395 C398 1.350 . S
N396 S394 1.610 . S
N396 C397 1.351 . S
C397 C391 1.428 . S
C397 N396 1.351 . S
C397 C398 1.434 . S
C398 C389 1.429 . S
C398 N395 1.350 . S
C398 C397 1.434 . S
C399 C400 1.369 . S
C399 C401 1.419 . S
C399 H403 0.930 . S
C400 C399 1.369 . S
C400 C409 1.429 . S
C401 C399 1.419 . S
C401 C402 1.363 . S
C401 H404 0.929 . S
C402 C401 1.363 . S
C402 C408 1.428 . S
H403 C399 0.930 . S
H404 C401 0.929 . S
S405 N406 1.613 . S
S405 N407 1.610 . S
N406 S405 1.613 . S
N406 C409 1.350 . S
N407 S405 1.610 . S
N407 C408 1.351 . S
C408 C402 1.428 . S
C408 N407 1.351 . S
C408 C409 1.434 . S
C409 C400 1.429 . S
C409 N406 1.350 . S
C409 C408 1.434 . S
C410 C411 1.369 . S
C410 C412 1.419 . S
C410 H414 0.930 . S
C411 C410 1.369 . S
C411 C420 1.429 . S
C412 C410 1.419 . S
C412 C413 1.363 . S
C412 H415 0.929 . S
C413 C412 1.363 . S
C413 C419 1.428 . S
H414 C410 0.930 . S
H415 C412 0.929 . S
S416 N417 1.613 . S
S416 N418 1.610 . S
N417 S416 1.613 . S
N417 C420 1.350 . S
N418 S416 1.610 . S
N418 C419 1.351 . S
C419 C413 1.428 . S
C419 N418 1.351 . S
C419 C420 1.434 . S
C420 C411 1.429 . S
C420 N417 1.350 . S
C420 C419 1.434 . S
C421 C422 1.369 . S
C421 C423 1.419 . S
C421 H425 0.930 . S
C422 C421 1.369 . S
C422 C431 1.429 . S
C423 C421 1.419 . S
C423 C424 1.363 . S
C423 H426 0.929 . S
C424 C423 1.363 . S
C424 C430 1.428 . S
H425 C421 0.930 . S
H426 C423 0.929 . S
S427 N428 1.613 . S
S427 N429 1.610 . S
N428 S427 1.613 . S
N428 C431 1.350 . S
N429 S427 1.610 . S
N429 C430 1.351 . S
C430 C424 1.428 . S
C430 N429 1.351 . S
C430 C431 1.434 . S
C431 C422 1.429 . S
C431 N428 1.350 . S
C431 C430 1.434 . S
C432 C433 1.369 . S
C432 C434 1.419 . S
C432 H436 0.930 . S
C433 C432 1.369 . S
C433 C442 1.429 . S
C434 C432 1.419 . S
C434 C435 1.363 . S
C434 H437 0.929 . S
C435 C434 1.363 . S
C435 C441 1.428 . S
H436 C432 0.930 . S
H437 C434 0.929 . S
S438 N439 1.613 . S
S438 N440 1.610 . S
N439 S438 1.613 . S
N439 C442 1.350 . S
N440 S438 1.610 . S
N440 C441 1.351 . S
C441 C435 1.428 . S
C441 N440 1.351 . S
C441 C442 1.434 . S
C442 C433 1.429 . S
C442 N439 1.350 . S
C442 C441 1.434 . S
C443 C444 1.369 . S
C443 C445 1.419 . S
C443 H447 0.930 . S
C444 C443 1.369 . S
C444 C453 1.429 . S
C445 C443 1.419 . S
C445 C446 1.363 . S
C445 H448 0.929 . S
C446 C445 1.363 . S
C446 C452 1.428 . S
H447 C443 0.930 . S
H448 C445 0.929 . S
S449 N450 1.613 . S
S449 N451 1.610 . S
N450 S449 1.613 . S
N450 C453 1.350 . S
N451 S449 1.610 . S
N451 C452 1.351 . S
C452 C446 1.428 . S
C452 N451 1.351 . S
C452 C453 1.434 . S
C453 C444 1.429 . S
C453 N450 1.350 . S
C453 C452 1.434 . S
C454 C455 1.369 . S
C454 C456 1.419 . S
C454 H458 0.930 . S
C455 C454 1.369 . S
C455 C464 1.429 . S
C456 C454 1.419 . S
C456 C457 1.363 . S
C456 H459 0.929 . S
C457 C456 1.363 . S
C457 C463 1.428 . S
H458 C454 0.930 . S
H459 C456 0.929 . S
S460 N461 1.613 . S
S460 N462 1.610 . S
N461 S460 1.613 . S
N461 C464 1.350 . S
N462 S460 1.610 . S
N462 C463 1.351 . S
C463 C457 1.428 . S
C463 N462 1.351 . S
C463 C464 1.434 . S
C464 C455 1.429 . S
C464 N461 1.350 . S
C464 C463 1.434 . S
C465 C466 1.369 . S
C465 C467 1.419 . S
C465 H469 0.930 . S
C466 C465 1.369 . S
C466 C475 1.429 . S
C467 C465 1.419 . S
C467 C468 1.363 . S
C467 H470 0.929 . S
C468 C467 1.363 . S
C468 C474 1.428 . S
H469 C465 0.930 . S
H470 C467 0.929 . S
S471 N472 1.613 . S
S471 N473 1.610 . S
N472 S471 1.613 . S
N472 C475 1.350 . S
N473 S471 1.610 . S
N473 C474 1.351 . S
C474 C468 1.428 . S
C474 N473 1.351 . S
C474 C475 1.434 . S
C475 C466 1.429 . S
C475 N472 1.350 . S
C475 C474 1.434 . S
C476 C477 1.369 . S
C476 C478 1.419 . S
C476 H480 0.930 . S
C477 C476 1.369 . S
C477 C486 1.429 . S
C478 C476 1.419 . S
C478 C479 1.363 . S
C478 H481 0.929 . S
C479 C478 1.363 . S
C479 C485 1.428 . S
H480 C476 0.930 . S
H481 C478 0.929 . S
S482 N483 1.613 1_545 S
S482 N484 1.610 . S
N483 S482 1.613 1_565 S
N483 C486 1.350 1_565 S
N484 S482 1.610 . S
N484 C485 1.351 . S
C485 C479 1.428 . S
C485 N484 1.351 . S
C485 C486 1.434 . S
C486 C477 1.429 . S
C486 N483 1.350 1_545 S
C486 C485 1.434 . S
C487 C488 1.369 . S
C487 C489 1.419 . S
C487 H491 0.930 . S
C488 C487 1.369 . S
C488 C497 1.429 . S
C489 C487 1.419 . S
C489 C490 1.363 . S
C489 H492 0.929 . S
C490 C489 1.363 . S
C490 C496 1.428 . S
H491 C487 0.930 . S
H492 C489 0.929 . S
S493 N494 1.613 . S
S493 N495 1.610 1_545 S
N494 S493 1.613 . S
N494 C497 1.350 1_545 S
N495 S493 1.610 1_565 S
N495 C496 1.351 . S
C496 C490 1.428 . S
C496 N495 1.351 . S
C496 C497 1.434 . S
C497 C488 1.429 . S
C497 N494 1.350 1_565 S
C497 C496 1.434 . S
C498 C499 1.369 . S
C498 C500 1.419 . S
C498 H502 0.930 1_545 S
C499 C498 1.369 . S
C499 C508 1.429 . S
C500 C498 1.419 . S
C500 C501 1.363 . S
C500 H503 0.929 . S
C501 C500 1.363 . S
C501 C507 1.428 . S
H502 C498 0.930 1_565 S
H503 C500 0.929 . S
S504 N505 1.613 . S
S504 N506 1.610 . S
N505 S504 1.613 . S
N505 C508 1.350 . S
N506 S504 1.610 . S
N506 C507 1.351 . S
C507 C501 1.428 . S
C507 N506 1.351 . S
C507 C508 1.434 . S
C508 C499 1.429 . S
C508 N505 1.350 . S
C508 C507 1.434 . S
C509 C510 1.369 . S
C509 C511 1.419 . S
C509 H513 0.930 . S
C510 C509 1.369 . S
C510 C519 1.429 . S
C511 C509 1.419 . S
C511 C512 1.363 . S
C511 H514 0.929 . S
C512 C511 1.363 . S
C512 C518 1.428 . S
H513 C509 0.930 . S
H514 C511 0.929 . S
S515 N516 1.613 . S
S515 N517 1.610 . S
N516 S515 1.613 . S
N516 C519 1.350 . S
N517 S515 1.610 . S
N517 C518 1.351 . S
C518 C512 1.428 . S
C518 N517 1.351 . S
C518 C519 1.434 . S
C519 C510 1.429 . S
C519 N516 1.350 . S
C519 C518 1.434 . S
C520 C521 1.369 . S
C520 C522 1.419 . S
C520 H524 0.930 . S
C521 C520 1.369 . S
C521 C530 1.429 . S
C522 C520 1.419 . S
C522 C523 1.363 . S
C522 H525 0.929 . S
C523 C522 1.363 . S
C523 C529 1.428 . S
H524 C520 0.930 . S
H525 C522 0.929 . S
S526 N527 1.613 . S
S526 N528 1.610 . S
N527 S526 1.613 . S
N527 C530 1.350 . S
N528 S526 1.610 . S
N528 C529 1.351 . S
C529 C523 1.428 . S
C529 N528 1.351 . S
C529 C530 1.434 . S
C530 C521 1.429 . S
C530 N527 1.350 . S
C530 C529 1.434 . S
C531 C532 1.369 . S
C531 C533 1.419 . S
C531 H535 0.930 . S
C532 C531 1.369 . S
C532 C541 1.429 . S
C533 C531 1.419 . S
C533 C534 1.363 . S
C533 H536 0.929 . S
C534 C533 1.363 . S
C534 C540 1.428 . S
H535 C531 0.930 . S
H536 C533 0.929 . S
S537 N538 1.613 . S
S537 N539 1.610 . S
N538 S537 1.613 . S
N538 C541 1.350 . S
N539 S537 1.610 . S
N539 C540 1.351 . S
C540 C534 1.428 . S
C540 N539 1.351 . S
C540 C541 1.434 . S
C541 C532 1.429 . S
C541 N538 1.350 . S
C541 C540 1.434 . S
C542 C543 1.369 . S
C542 C544 1.419 . S
C542 H546 0.930 . S
C543 C542 1.369 . S
C543 C552 1.429 . S
C544 C542 1.419 . S
C544 C545 1.363 . S
C544 H547 0.929 . S
C545 C544 1.363 . S
C545 C551 1.428 . S
H546 C542 0.930 . S
H547 C544 0.929 . S
S548 N549 1.613 . S
S548 N550 1.610 . S
N549 S548 1.613 . S
N549 C552 1.350 . S
N550 S548 1.610 . S
N550 C551 1.351 . S
C551 C545 1.428 . S
C551 N550 1.351 . S
C551 C552 1.434 . S
C552 C543 1.429 . S
C552 N549 1.350 . S
C552 C551 1.434 . S
C553 C554 1.369 . S
C553 C555 1.419 . S
C553 H557 0.930 . S
C554 C553 1.369 . S
C554 C563 1.429 . S
C555 C553 1.419 . S
C555 C556 1.363 . S
C555 H558 0.929 . S
C556 C555 1.363 . S
C556 C562 1.428 . S
H557 C553 0.930 . S
H558 C555 0.929 . S
S559 N560 1.613 . S
S559 N561 1.610 . S
N560 S559 1.613 . S
N560 C563 1.350 . S
N561 S559 1.610 . S
N561 C562 1.351 . S
C562 C556 1.428 . S
C562 N561 1.351 . S
C562 C563 1.434 . S
C563 C554 1.429 . S
C563 N560 1.350 . S
C563 C562 1.434 . S
C564 C565 1.369 . S
C564 C566 1.419 . S
C564 H568 0.930 . S
C565 C564 1.369 . S
C565 C574 1.429 . S
C566 C564 1.419 . S
C566 C567 1.363 . S
C566 H569 0.929 . S
C567 C566 1.363 . S
C567 C573 1.428 . S
H568 C564 0.930 . S
H569 C566 0.929 . S
S570 N571 1.613 . S
S570 N572 1.610 . S
N571 S570 1.613 . S
N571 C574 1.350 . S
N572 S570 1.610 . S
N572 C573 1.351 . S
C573 C567 1.428 . S
C573 N572 1.351 . S
C573 C574 1.434 . S
C574 C565 1.429 . S
C574 N571 1.350 . S
C574 C573 1.434 . S
C575 C576 1.369 . S
C575 C577 1.419 . S
C575 H579 0.930 . S
C576 C575 1.369 . S
C576 C585 1.429 . S
C577 C575 1.419 . S
C577 C578 1.363 . S
C577 H580 0.929 . S
C578 C577 1.363 . S
C578 C584 1.428 . S
H579 C575 0.930 . S
H580 C577 0.929 . S
S581 N582 1.613 . S
S581 N583 1.610 . S
N582 S581 1.613 . S
N582 C585 1.350 . S
N583 S581 1.610 . S
N583 C584 1.351 . S
C584 C578 1.428 . S
C584 N583 1.351 . S
C584 C585 1.434 . S
C585 C576 1.429 . S
C585 N582 1.350 . S
C585 C584 1.434 . S
C586 C587 1.369 . S
C586 C588 1.419 . S
C586 H590 0.930 . S
C587 C586 1.369 . S
C587 C596 1.429 . S
C588 C586 1.419 . S
C588 C589 1.363 . S
C588 H591 0.929 . S
C589 C588 1.363 . S
C589 C595 1.428 . S
H590 C586 0.930 . S
H591 C588 0.929 . S
S592 N593 1.613 . S
S592 N594 1.610 . S
N593 S592 1.613 . S
N593 C596 1.350 . S
N594 S592 1.610 . S
N594 C595 1.351 . S
C595 C589 1.428 . S
C595 N594 1.351 . S
C595 C596 1.434 . S
C596 C587 1.429 . S
C596 N593 1.350 . S
C596 C595 1.434 . S
C597 C598 1.369 . S
C597 C599 1.419 . S
C597 H601 0.930 . S
C598 C597 1.369 . S
C598 C607 1.429 . S
C599 C597 1.419 . S
C599 C600 1.363 . S
C599 H602 0.929 . S
C600 C599 1.363 . S
C600 C606 1.428 . S
H601 C597 0.930 . S
H602 C599 0.929 . S
S603 N604 1.613 . S
S603 N605 1.610 . S
N604 S603 1.613 . S
N604 C607 1.350 . S
N605 S603 1.610 . S
N605 C606 1.351 . S
C606 C600 1.428 . S
C606 N605 1.351 . S
C606 C607 1.434 . S
C607 C598 1.429 . S
C607 N604 1.350 . S
C607 C606 1.434 . S
C345 C23 1.507 . S
C347 C299 1.554 . S
C358 C263 1.516 . S
C356 C55 1.550 . S
C369 C286 1.555 . S
C367 C87 1.575 . S
C380 C274 1.517 . S
C378 C119 1.436 . S
C391 C343 1.557 . S
C389 C151 1.500 . S
C402 C307 1.521 . S
C400 C183 1.549 . S
C411 C215 1.574 . S
C413 C330 1.553 . S
C424 C318 1.513 . S
C422 C247 1.447 . S
C433 C29 1.478 . S
C435 C340 1.566 . S
C446 C310 1.502 . S
C444 C49 1.498 . S
C455 C93 1.582 . S
C457 C329 1.588 . S
C466 C113 1.445 . S
C468 C315 1.524 . S
C479 C296 1.565 . S
C477 C157 1.470 1_545 S
C488 C177 1.496 1_565 S
C490 C266 1.502 . S
C501 C285 1.589 . S
C499 C221 1.579 1_545 S
C512 C271 1.525 . S
C510 C241 1.451 1_565 S
C523 C321 1.540 . S
C521 C17 1.471 . S
C534 C337 1.545 . S
C532 C61 1.549 . S
C543 C81 1.525 . S
C545 C308 1.523 . S
C556 C332 1.528 . S
C554 C125 1.416 . S
C567 C277 1.539 . S
C565 C145 1.460 . S
C576 C189 1.546 . S
C578 C293 1.543 . S
C587 C209 1.526 . S
C589 C264 1.524 . S
C598 C253 1.423 . S
C600 C288 1.528 . S
