# Generated by pormake.
# Topology anh, (6,3)-cn, num edge types: 1
# Building blocks:
#     Node 0, Type 0, BuildingBlock: BETDAH_clean_sbu_0, # of connection points: 6
#     Node 1, Type 0, BuildingBlock: BETDAH_clean_sbu_0, # of connection points: 6
#     Node 2, Type 0, BuildingBlock: BETDAH_clean_sbu_0, # of connection points: 6
#     Node 3, Type 1, BuildingBlock: MIDCAF_clean_linker_0, # of connection points: 3
#     Node 4, Type 1, BuildingBlock: MIDCAF_clean_linker_0, # of connection points: 3
#     Node 5, Type 1, BuildingBlock: MIDCAF_clean_linker_0, # of connection points: 3
#     Node 6, Type 1, BuildingBlock: MIDCAF_clean_linker_0, # of connection points: 3
#     Node 7, Type 1, BuildingBlock: MIDCAF_clean_linker_0, # of connection points: 3
#     Node 8, Type 1, BuildingBlock: MIDCAF_clean_linker_0, # of connection points: 3
#     Edge 9, Type (0, 1), BuildingBlock: CIFDUS_clean_linker_0, # of connection points: 2
#     Edge 10, Type (0, 1), BuildingBlock: CIFDUS_clean_linker_0, # of connection points: 2
#     Edge 11, Type (0, 1), BuildingBlock: CIFDUS_clean_linker_0, # of connection points: 2
#     Edge 12, Type (0, 1), BuildingBlock: CIFDUS_clean_linker_0, # of connection points: 2
#     Edge 13, Type (0, 1), BuildingBlock: CIFDUS_clean_linker_0, # of connection points: 2
#     Edge 14, Type (0, 1), BuildingBlock: CIFDUS_clean_linker_0, # of connection points: 2
#     Edge 15, Type (0, 1), BuildingBlock: CIFDUS_clean_linker_0, # of connection points: 2
#     Edge 16, Type (0, 1), BuildingBlock: CIFDUS_clean_linker_0, # of connection points: 2
#     Edge 17, Type (0, 1), BuildingBlock: CIFDUS_clean_linker_0, # of connection points: 2
#     Edge 18, Type (0, 1), BuildingBlock: CIFDUS_clean_linker_0, # of connection points: 2
#     Edge 19, Type (0, 1), BuildingBlock: CIFDUS_clean_linker_0, # of connection points: 2
#     Edge 20, Type (0, 1), BuildingBlock: CIFDUS_clean_linker_0, # of connection points: 2
#     Edge 21, Type (0, 1), BuildingBlock: CIFDUS_clean_linker_0, # of connection points: 2
#     Edge 22, Type (0, 1), BuildingBlock: CIFDUS_clean_linker_0, # of connection points: 2
#     Edge 23, Type (0, 1), BuildingBlock: CIFDUS_clean_linker_0, # of connection points: 2
#     Edge 24, Type (0, 1), BuildingBlock: CIFDUS_clean_linker_0, # of connection points: 2
#     Edge 25, Type (0, 1), BuildingBlock: CIFDUS_clean_linker_0, # of connection points: 2
#     Edge 26, Type (0, 1), BuildingBlock: CIFDUS_clean_linker_0, # of connection points: 2
# Relax obj value: 0.195
# Max RMSD: 0.217
# Mean RMSD: 0.160
data_MOF--net-anh--node1-BETDAH_clean_sbu_0--node2-MIDCAF_clean_linker_0--edge1-CIFDUS_clean_linker_0
_symmetry_space_group_name_H-M    P1
_symmetry_Int_Tables_number       1
_symmetry_cell_setting            triclinic
loop_
_symmetry_equiv_pos_as_xyz
'x, y, z'
_cell_length_a     35.31217
_cell_length_b     40.334159
_cell_length_c     59.630765
_cell_angle_alpha  92.421659
_cell_angle_beta   89.663819
_cell_angle_gamma 129.92061
loop_
_atom_site_label
_atom_site_type_symbol
_atom_site_fract_x
_atom_site_fract_y
_atom_site_fract_z
_atom_type_partial_charge
Ho0 Ho 0.08441 0.50112 0.15511 0.0
Ho1 Ho 1.02601 0.5286 0.15375 0.0
C2 C 0.14283 0.60494 0.15563 0.0
C3 C 0.15277 0.49643 0.15093 0.0
C4 C 0.20428 0.52735 0.159 0.0
C5 C 0.24165 0.54533 0.14343 0.0
C6 C 0.29023 0.56861 0.15078 0.0
C7 C 0.30173 0.57256 0.17392 0.0
C8 C 0.26569 0.56193 0.18941 0.0
C9 C 0.21689 0.53884 0.18199 0.0
C10 C 0.04964 0.50071 0.19572 0.0
C11 C 0.9688 0.42537 0.15019 0.0
C12 C 0.97062 0.54366 0.16908 0.0
C13 C 0.91938 0.51057 0.17555 0.0
C14 C 0.90638 0.50829 0.19804 0.0
C15 C 0.85712 0.47808 0.20393 0.0
C16 C 0.82047 0.45116 0.18717 0.0
C17 C 0.83462 0.44913 0.16542 0.0
C18 C 0.88364 0.47897 0.15958 0.0
C19 C 0.03972 0.51891 0.10971 0.0
O20 O 0.1456 0.5744 0.15929 0.0
O21 O 0.09979 0.59519 0.15207 0.0
O22 O 0.11945 0.47623 0.16625 0.0
O23 O 0.14069 0.50948 0.13492 0.0
O24 O 0.05177 0.47146 0.18813 0.0
O25 O 0.06795 0.52979 0.18153 0.0
O26 O 0.96631 0.45566 0.15687 0.0
O27 O 1.01172 0.43651 0.14441 0.0
O28 O 0.97919 0.54444 0.14769 0.0
O29 O 1.00329 0.54741 0.18171 0.0
O30 O 1.01553 0.53099 0.11705 0.0
O31 O 0.05619 0.51237 0.12637 0.0
H32 H 0.2329 0.53866 0.12557 0.0
H33 H 0.31687 0.57765 0.13803 0.0
H34 H 0.27382 0.56642 0.20729 0.0
H35 H 0.18881 0.52746 0.19436 0.0
H36 H 0.93385 0.53121 0.2108 0.0
H37 H 0.84696 0.47983 0.22084 0.0
H38 H 0.8073 0.4287 0.15209 0.0
H39 H 0.89286 0.47859 0.14226 0.0
Ho40 Ho 0.57097 1.00262 0.47874 0.0
Ho41 Ho 0.5106 0.02826 0.47355 0.0
C42 C 0.44987 0.92799 0.4743 0.0
C43 C 0.60236 0.96093 0.48598 0.0
C44 C 0.57966 0.91457 0.48509 0.0
C45 C 0.55047 0.88754 0.50254 0.0
C46 C 0.53285 0.84501 0.50233 0.0
C47 C 0.54395 0.82839 0.48467 0.0
C48 C 0.57079 0.85468 0.4666 0.0
C49 C 0.58862 0.89729 0.46687 0.0
C50 C 0.56617 0.02136 0.43652 0.0
C51 C 0.63203 0.10325 0.47979 0.0
C52 C 0.47969 0.06905 0.46271 0.0
C53 C 0.49923 0.11445 0.46566 0.0
C54 C 0.51576 0.14067 0.44712 0.0
C55 C 0.53146 0.18263 0.44962 0.0
C56 C 0.5311 0.1993 0.47075 0.0
C57 C 0.51576 0.17341 0.48935 0.0
C58 C 0.49998 0.13158 0.48685 0.0
C59 C 0.51616 0.01111 0.51613 0.0
O60 O 0.49224 0.93996 0.48215 0.0
O61 O 0.44827 0.95694 0.46592 0.0
O62 O 0.60589 0.97693 0.4668 0.0
O63 O 0.58953 0.9748 0.50208 0.0
O64 O 0.6059 0.03353 0.44656 0.0
O65 O 0.52958 0.9989 0.44921 0.0
O66 O 0.58947 0.09181 0.4726 0.0
O67 O 0.6343 0.07379 0.48671 0.0
O68 O 0.46665 0.04722 0.4808 0.0
O69 O 0.50276 0.06179 0.44888 0.0
O70 O 0.47698 1.00109 0.50661 0.0
O71 O 0.55222 0.03222 0.50308 0.0
H72 H 0.54242 0.89956 0.51674 0.0
H73 H 0.51263 0.82595 0.51663 0.0
H74 H 0.57919 0.84273 0.45251 0.0
H75 H 0.61051 0.9171 0.45302 0.0
H76 H 0.51578 0.12845 0.43059 0.0
H77 H 0.54344 0.20189 0.435 0.0
H78 H 0.51424 0.18489 0.50581 0.0
H79 H 0.48747 0.11246 0.50154 0.0
Ho80 Ho 0.6183 0.58427 0.82592 0.0
Ho81 Ho 0.55162 0.4913 0.83198 0.0
C82 C 0.49529 0.53398 0.83422 0.0
C83 C 0.65263 0.65946 0.81391 0.0
C84 C 0.63341 0.68307 0.81727 0.0
C85 C 0.59871 0.67628 0.8019 0.0
C86 C 0.58231 0.69981 0.80437 0.0
C87 C 0.60013 0.73071 0.82221 0.0
C88 C 0.63272 0.73609 0.8383 0.0
C89 C 0.64933 0.71253 0.83583 0.0
C90 C 0.60721 0.56411 0.8686 0.0
C91 C 0.67635 0.54398 0.82997 0.0
C92 C 0.51331 0.41364 0.84246 0.0
C93 C 0.52345 0.38382 0.83602 0.0
C94 C 0.55178 0.37957 0.85022 0.0
C95 C 0.56203 0.35211 0.84385 0.0
C96 C 0.54445 0.32853 0.82306 0.0
C97 C 0.51547 0.33223 0.80911 0.0
C98 C 0.50494 0.35927 0.81551 0.0
C99 C 0.55765 0.51138 0.78876 0.0
O100 O 0.54052 0.56847 0.82758 0.0
O101 O 0.49091 0.49923 0.83926 0.0
O102 O 0.66867 0.65392 0.83187 0.0
O103 O 0.62701 0.62493 0.80025 0.0
O104 O 0.64906 0.59674 0.86087 0.0
O105 O 0.57327 0.54536 0.85385 0.0
O106 O 0.63048 0.50874 0.83535 0.0
O107 O 0.68021 0.57749 0.82301 0.0
O108 O 0.49506 0.42184 0.82676 0.0
O109 O 0.54689 0.44832 0.85492 0.0
O110 O 0.51791 0.47949 0.79804 0.0
O111 O 0.59416 0.53012 0.80243 0.0
H112 H 0.5851 0.6536 0.78757 0.0
H113 H 0.55727 0.69529 0.79171 0.0
H114 H 0.64735 0.76011 0.85205 0.0
H115 H 0.67568 0.71828 0.84811 0.0
H116 H 0.56638 0.39776 0.8662 0.0
H117 H 0.58457 0.35004 0.85493 0.0
H118 H 0.5007 0.31398 0.79315 0.0
H119 H 0.48249 0.36109 0.80422 0.0
C120 C 0.38676 0.87757 0.1886 0.0
C121 C 0.39159 0.85436 0.17242 0.0
C122 C 0.4364 0.87694 0.16089 0.0
C123 C 0.47654 0.92117 0.16659 0.0
H124 H 0.60759 0.08587 0.1537 0.0
H125 H 0.67658 0.15843 0.14058 0.0
H126 H 0.74321 0.19826 0.20698 0.0
H127 H 0.6762 0.12732 0.22006 0.0
H128 H 0.60198 0.08948 0.2622 0.0
H129 H 0.59272 0.08707 0.30284 0.0
H130 H 0.48804 0.94727 0.29678 0.0
H131 H 0.49594 0.94977 0.25632 0.0
H132 H 0.42141 0.93709 0.20758 0.0
H133 H 0.35297 0.86124 0.19782 0.0
H134 H 0.4413 0.85981 0.14838 0.0
H135 H 0.51158 0.93679 0.1586 0.0
N136 N 0.55475 0.02131 0.18507 0.0
N137 N 0.58992 0.05673 0.22069 0.0
N138 N 0.5163 0.98548 0.21834 0.0
C139 C 0.59213 0.05784 0.19785 0.0
C140 C 0.55247 0.0208 0.23104 0.0
C141 C 0.51635 0.9848 0.1956 0.0
C142 C 0.63534 0.10003 0.18809 0.0
C143 C 0.63723 0.10984 0.16543 0.0
C144 C 0.67681 0.15148 0.1579 0.0
C145 C 0.71556 0.18418 0.17277 0.0
C146 C 0.71423 0.17395 0.19507 0.0
C147 C 0.67521 0.13287 0.20255 0.0
C148 C 0.54954 0.01988 0.25592 0.0
C149 C 0.57709 0.05826 0.26957 0.0
C150 C 0.5718 0.05682 0.29292 0.0
C151 C 0.53924 0.01694 0.30323 0.0
C152 C 0.51248 0.97862 0.28952 0.0
C153 C 0.51738 0.98008 0.26623 0.0
C154 C 0.47245 0.94351 0.18392 0.0
C155 C 0.42622 0.92127 0.19412 0.0
C156 C 0.54887 0.39962 0.54183 0.0
C157 C 0.5632 0.40245 0.5195 0.0
C158 C 0.57227 0.4353 0.50669 0.0
C159 C 0.56982 0.46618 0.51654 0.0
H160 H 0.56328 0.56647 0.50473 0.0
H161 H 0.56045 0.61667 0.48461 0.0
H162 H 0.55097 0.66727 0.54756 0.0
H163 H 0.5546 0.61814 0.56779 0.0
H164 H 0.55873 0.58427 0.61448 0.0
H165 H 0.56882 0.59145 0.65557 0.0
H166 H 0.60396 0.50695 0.65314 0.0
H167 H 0.593 0.49872 0.61235 0.0
H168 H 0.53633 0.42725 0.56902 0.0
H169 H 0.54021 0.37395 0.55195 0.0
H170 H 0.58309 0.4381 0.48938 0.0
H171 H 0.57874 0.49209 0.50656 0.0
N172 N 0.55901 0.52665 0.53938 0.0
N173 N 0.56607 0.56243 0.57333 0.0
N174 N 0.5655 0.50416 0.57375 0.0
C175 C 0.56142 0.55825 0.55048 0.0
C176 C 0.56841 0.53563 0.58509 0.0
C177 C 0.56065 0.49923 0.55099 0.0
C178 C 0.55909 0.58808 0.53795 0.0
C179 C 0.5605 0.58821 0.51432 0.0
C180 C 0.5589 0.61689 0.50276 0.0
C181 C 0.55493 0.64535 0.51458 0.0
C182 C 0.55324 0.64511 0.53808 0.0
C183 C 0.5556 0.61705 0.54964 0.0
C184 C 0.57498 0.54086 0.61 0.0
C185 C 0.56869 0.56726 0.62266 0.0
C186 C 0.57448 0.57145 0.64615 0.0
C187 C 0.58763 0.55007 0.65736 0.0
C188 C 0.59437 0.52412 0.6448 0.0
C189 C 0.58779 0.5193 0.62143 0.0
C190 C 0.55826 0.46459 0.53933 0.0
C191 C 0.54656 0.43023 0.55161 0.0
C192 C 0.94047 0.54582 0.87242 0.0
C193 C 0.91845 0.53936 0.8509 0.0
C194 C 0.94284 0.5332 0.83361 0.0
C195 C 0.9837 0.53238 0.83787 0.0
H196 H 0.17345 0.55185 0.82536 0.0
H197 H 0.24197 0.55038 0.81772 0.0
H198 H 0.22989 0.50694 0.88369 0.0
H199 H 0.16388 0.50854 0.89139 0.0
H200 H 0.13234 0.52006 0.93072 0.0
H201 H 0.12703 0.51283 0.97143 0.0
H202 H 1.01542 0.5261 0.97305 0.0
H203 H 1.0195 0.53237 0.9322 0.0
H204 H 0.99267 0.55089 0.89394 0.0
H205 H 0.92668 0.55179 0.88692 0.0
H206 H 0.92953 0.52779 0.81645 0.0
H207 H 0.9981 0.5264 0.82366 0.0
N208 N 0.08235 0.53474 0.85642 0.0
N209 N 0.11155 0.52967 0.89085 0.0
N210 N 0.04725 0.53243 0.89108 0.0
C211 C 0.11597 0.53199 0.8681 0.0
C212 C 0.07846 0.52982 0.90249 0.0
C213 C 0.04671 0.53498 0.86831 0.0
C214 C 0.15918 0.53032 0.85944 0.0
C215 C 0.18472 0.54193 0.83853 0.0
C216 C 0.22584 0.54154 0.83413 0.0
C217 C 0.24532 0.5293 0.85007 0.0
C218 C 0.21917 0.51727 0.87047 0.0
C219 C 0.17935 0.51816 0.87491 0.0
C220 C 0.0762 0.52666 0.92775 0.0
C221 C 0.10648 0.5214 0.93958 0.0
C222 C 0.10353 0.51725 0.96303 0.0
C223 C 0.07088 0.51895 0.97556 0.0
C224 C 0.04123 0.52495 0.96395 0.0
C225 C 0.04356 0.52844 0.94043 0.0
C226 C 1.00467 0.53814 0.85988 0.0
C227 C 0.98059 0.5454 0.87656 0.0
C228 C 0.1975 0.66392 0.44269 0.0
C229 C 0.19621 0.68103 0.46328 0.0
C230 C 0.15604 0.65306 0.47733 0.0
C231 C 0.11675 0.60932 0.47018 0.0
H232 H 0.96419 0.45915 0.48128 0.0
H233 H 0.89559 0.38816 0.4959 0.0
H234 H 0.88314 0.3257 0.43251 0.0
H235 H 0.94928 0.3949 0.4181 0.0
H236 H 0.96226 0.44808 0.37235 0.0
H237 H 0.96764 0.44704 0.33117 0.0
H238 H 0.1139 0.57137 0.33623 0.0
H239 H 0.10868 0.57325 0.37688 0.0
H240 H 0.16159 0.61002 0.41925 0.0
H241 H 0.22778 0.68446 0.43152 0.0
H242 H 0.15413 0.66541 0.4934 0.0
H243 H 0.08537 0.58911 0.48084 0.0
N244 N 0.03776 0.51384 0.44932 0.0
N245 N 0.99974 0.47544 0.41447 0.0
N246 N 0.07035 0.548 0.41516 0.0
C247 C 1.00074 0.47583 0.43741 0.0
C248 C 0.03422 0.51132 0.40322 0.0
C249 C 0.07319 0.55029 0.43794 0.0
C250 C 0.96223 0.43343 0.44826 0.0
C251 C 0.94685 0.43017 0.47056 0.0
C252 C 0.90741 0.38931 0.47894 0.0
C253 C 0.88243 0.35068 0.46527 0.0
C254 C 0.89966 0.35429 0.44345 0.0
C255 C 0.93831 0.39453 0.43515 0.0
C256 C 0.03509 0.51061 0.37812 0.0
C257 C 0.99534 0.47541 0.36468 0.0
C258 C 0.99825 0.47487 0.3411 0.0
C259 C 0.0412 0.50918 0.33054 0.0
C260 C 0.08037 0.54454 0.34391 0.0
C261 C 0.07723 0.54546 0.36729 0.0
C262 C 0.11696 0.59308 0.44878 0.0
C263 C 0.15899 0.62093 0.43565 0.0
C264 C 0.53974 0.12796 0.76739 0.0
C265 C 0.55705 0.14143 0.78982 0.0
C266 C 0.57046 0.12017 0.80114 0.0
C267 C 0.56751 0.08701 0.7901 0.0
H268 H 0.5718 0.98183 0.79818 0.0
H269 H 0.58288 0.93314 0.81413 0.0
H270 H 0.52882 0.8563 0.75177 0.0
H271 H 0.51807 0.9042 0.73585 0.0
H272 H 0.53311 0.94766 0.69042 0.0
H273 H 0.5375 0.9489 0.64937 0.0
H274 H 0.57309 0.07311 0.652 0.0
H275 H 0.56792 0.07199 0.6929 0.0
H276 H 0.524 0.08635 0.73906 0.0
H277 H 0.52745 0.14231 0.75825 0.0
H278 H 0.58409 0.12963 0.81839 0.0
H279 H 0.57875 0.07173 0.79915 0.0
N280 N 0.54853 0.01123 0.76595 0.0
N281 N 0.54591 0.97975 0.73126 0.0
N282 N 0.55005 0.03998 0.73212 0.0
C283 C 0.54598 0.98014 0.7541 0.0
C284 C 0.54822 0.0096 0.7201 0.0
C285 C 0.55004 0.04105 0.75498 0.0
C286 C 0.54526 0.94763 0.76552 0.0
C287 C 0.56138 0.95403 0.78806 0.0
C288 C 0.56748 0.9261 0.79726 0.0
C289 C 0.55738 0.89141 0.78404 0.0
C290 C 0.53752 0.88316 0.76222 0.0
C291 C 0.53164 0.91086 0.75307 0.0
C292 C 0.55015 0.00975 0.6951 0.0
C293 C 0.54181 0.97527 0.68232 0.0
C294 C 0.54434 0.97589 0.65883 0.0
C295 C 0.55605 0.01127 0.64769 0.0
C296 C 0.56447 0.04569 0.66031 0.0
C297 C 0.56125 0.04485 0.68373 0.0
C298 C 0.5515 0.07466 0.76745 0.0
C299 C 0.53737 0.09543 0.75636 0.0
C300 C 0.66614 0.48758 0.10968 0.0
C301 C 0.66492 0.49378 0.13289 0.0
C302 C 0.62843 0.49384 0.1419 0.0
C303 C 0.59065 0.48392 0.12807 0.0
H304 H 0.4448 0.42058 0.13448 0.0
H305 H 0.41406 0.45164 0.15528 0.0
H306 H 0.36324 0.46476 0.09326 0.0
H307 H 0.39487 0.43447 0.07222 0.0
H308 H 0.45103 0.45138 0.02932 0.0
H309 H 0.46189 0.46481 0.9893 0.0
H310 H 0.57919 0.45841 0.98892 0.0
H311 H 0.56858 0.4446 0.02896 0.0
H312 H 0.62875 0.4715 0.07792 0.0
H313 H 0.69441 0.48745 0.10263 0.0
H314 H 0.6271 0.49827 0.15986 0.0
H315 H 0.56144 0.48204 0.1357 0.0
N316 N 0.50381 0.44417 0.10172 0.0
N317 N 0.46476 0.43082 0.0671 0.0
N318 N 0.54609 0.45637 0.06871 0.0
C319 C 0.46335 0.43071 0.0898 0.0
C320 C 0.50577 0.44296 0.05649 0.0
C321 C 0.54521 0.45719 0.09139 0.0
C322 C 0.42459 0.42741 0.10169 0.0
C323 C 0.42517 0.42832 0.1253 0.0
C324 C 0.40752 0.44605 0.13726 0.0
C325 C 0.38862 0.46231 0.12566 0.0
C326 C 0.37944 0.4537 0.10239 0.0
C327 C 0.39716 0.43601 0.09039 0.0
C328 C 0.50882 0.4467 0.03213 0.0
C329 C 0.47833 0.45178 0.02063 0.0
C330 C 0.48447 0.45953 -0.00213 0.0
C331 C 0.52095 0.46213 0.9865 0.0
C332 C 0.55074 0.45621 -0.0023 0.0
C333 C 0.54468 0.44846 0.02045 0.0
C334 C 0.58918 0.47404 0.10503 0.0
C335 C 0.62854 0.47816 0.09569 0.0
H336 H 0.39332 0.61473 0.15625 0.0
H337 H 0.29869 0.52422 0.20635 0.0
H338 H 0.32241 0.48122 0.19618 0.0
H339 H 0.34839 0.45739 0.16556 0.0
H340 H 0.43087 0.54167 0.11133 0.0
H341 H 0.43031 0.59684 0.12918 0.0
C342 C 0.37926 0.58634 0.16544 0.0
C343 C 0.34074 0.5705 0.18037 0.0
C344 C 0.38789 0.55866 0.15748 0.0
C345 C 0.32625 0.53611 0.19367 0.0
C346 C 0.33867 0.51052 0.18744 0.0
C347 C 0.3666 0.48806 0.15786 0.0
C348 C 0.3881 0.4951 0.13691 0.0
C349 C 0.36548 0.51932 0.16801 0.0
C350 C 0.41236 0.53507 0.12711 0.0
C351 C 0.41288 0.5669 0.13748 0.0
H352 H 0.7143 0.16688 0.50771 0.0
H353 H 0.65217 0.14115 0.44086 0.0
H354 H 0.72192 0.2141 0.4309 0.0
H355 H 0.79948 0.28572 0.44068 0.0
H356 H 0.8642 0.31553 0.50719 0.0
H357 H 0.7944 0.24192 0.51789 0.0
C358 C 0.71639 0.17728 0.49096 0.0
C359 C 0.6778 0.14809 0.47499 0.0
C360 C 0.75686 0.2205 0.48531 0.0
C361 C 0.68101 0.1626 0.45348 0.0
C362 C 0.72099 0.20452 0.44774 0.0
C363 C 0.799 0.27628 0.45751 0.0
C364 C 0.83814 0.30659 0.47288 0.0
C365 C 0.75898 0.23384 0.46347 0.0
C366 C 0.83506 0.29341 0.49484 0.0
C367 C 0.79511 0.25096 0.50095 0.0
H368 H 0.63275 0.78744 0.79087 0.0
H369 H 0.54935 0.74442 0.85127 0.0
H370 H 0.53096 0.79328 0.84606 0.0
H371 H 0.53421 0.84478 0.82197 0.0
H372 H 0.61858 0.88516 0.7616 0.0
H373 H 0.6413 0.84114 0.76916 0.0
C374 C 0.61077 0.78901 0.80296 0.0
C375 C 0.59186 0.76226 0.82118 0.0
C376 C 0.60039 0.81662 0.79974 0.0
C377 C 0.56404 0.76477 0.83701 0.0
C378 C 0.55348 0.79255 0.83397 0.0
C379 C 0.55799 0.84417 0.81072 0.0
C380 C 0.57407 0.86761 0.79102 0.0
C381 C 0.57075 0.81815 0.81508 0.0
C382 C 0.60508 0.8668 0.77661 0.0
C383 C 0.61818 0.84172 0.78092 0.0
H384 H 0.81008 0.50876 0.19957 0.0
H385 H 0.72697 0.37568 0.17595 0.0
H386 H 0.66698 0.37754 0.15713 0.0
H387 H 0.65094 0.42233 0.1404 0.0
H388 H 0.74195 0.55802 0.15988 0.0
H389 H 0.78898 0.551 0.18645 0.0
C390 C 0.77754 0.47944 0.19124 0.0
C391 C 0.77331 0.4424 0.18864 0.0
C392 C 0.74697 0.48237 0.17855 0.0
C393 C 0.73082 0.40454 0.17804 0.0
C394 C 0.69751 0.40607 0.16676 0.0
C395 C 0.68114 0.45016 0.15057 0.0
C396 C 0.69441 0.49079 0.14814 0.0
C397 C 0.70752 0.4457 0.16559 0.0
C398 C 0.73237 0.52678 0.16147 0.0
C399 C 0.75855 0.52256 0.17673 0.0
H400 H 0.35476 0.88481 0.45715 0.0
H401 H 0.44089 0.86555 0.49652 0.0
H402 H 0.36941 0.78943 0.49919 0.0
H403 H 0.28344 0.72563 0.48768 0.0
H404 H 0.19722 0.74386 0.44801 0.0
H405 H 0.26651 0.82189 0.44829 0.0
C406 C 0.35791 0.86405 0.46637 0.0
C407 C 0.40403 0.88142 0.47622 0.0
C408 C 0.31613 0.81951 0.46785 0.0
C409 C 0.40661 0.85356 0.48833 0.0
C410 C 0.36544 0.80969 0.48998 0.0
C411 C 0.27949 0.74692 0.47964 0.0
C412 C 0.23478 0.7289 0.46814 0.0
C413 C 0.32014 0.79195 0.47948 0.0
C414 C 0.2308 0.75692 0.45734 0.0
C415 C 0.27071 0.8016 0.4573 0.0
H416 H 0.5373 0.26699 0.84604 0.0
H417 H 0.57935 0.32784 0.78254 0.0
H418 H 0.59144 0.27812 0.76757 0.0
H419 H 0.58453 0.21451 0.77136 0.0
H420 H 0.53761 0.14965 0.83375 0.0
H421 H 0.53488 0.20453 0.85049 0.0
C422 C 0.54972 0.26964 0.82904 0.0
C423 C 0.55673 0.30078 0.81532 0.0
C424 C 0.55576 0.24019 0.8203 0.0
C425 C 0.57286 0.30377 0.79332 0.0
C426 C 0.57991 0.27539 0.78475 0.0
C427 C 0.57327 0.21198 0.78859 0.0
C428 C 0.56029 0.17721 0.80103 0.0
C429 C 0.5703 0.24284 0.79788 0.0
C430 C 0.54776 0.17583 0.82364 0.0
C431 C 0.54579 0.2071 0.83321 0.0
H432 H 0.60164 0.80782 0.47284 0.0
H433 H 0.46028 0.75321 0.50077 0.0
H434 H 0.44917 0.68937 0.51078 0.0
H435 H 0.48468 0.65369 0.51593 0.0
H436 H 0.62481 0.7075 0.48722 0.0
H437 H 0.63099 0.76676 0.47278 0.0
C438 C 0.56772 0.78153 0.48056 0.0
C439 C 0.53239 0.78594 0.4865 0.0
C440 C 0.56165 0.74497 0.48635 0.0
C441 C 0.48877 0.75134 0.49657 0.0
C442 C 0.48231 0.71474 0.50226 0.0
C443 C 0.5161 0.67809 0.50618 0.0
C444 C 0.55451 0.67671 0.5028 0.0
C445 C 0.51937 0.71201 0.498 0.0
C446 C 0.59486 0.70805 0.48998 0.0
C447 C 0.59848 0.74199 0.48185 0.0
H448 H 0.71329 0.51686 0.86291 0.0
H449 H 0.75187 0.5743 0.79875 0.0
H450 H 0.82298 0.57639 0.79788 0.0
H451 H 0.87957 0.56321 0.81535 0.0
H452 H 0.84233 0.51042 0.8809 0.0
H453 H 0.77092 0.50675 0.88084 0.0
C454 C 0.73675 0.53002 0.84851 0.0
C455 C 0.72362 0.54517 0.83071 0.0
C456 C 0.78067 0.53255 0.84833 0.0
C457 C 0.75795 0.5622 0.81295 0.0
C458 C 0.79989 0.5634 0.81242 0.0
C459 C 0.85625 0.55057 0.82981 0.0
C460 C 0.87039 0.53721 0.84834 0.0
C461 C 0.81265 0.54884 0.83 0.0
C462 C 0.83651 0.52176 0.86627 0.0
C463 C 0.7939 0.51928 0.86625 0.0
H464 H 0.22503 0.65179 0.18407 0.0
H465 H 0.16454 0.66245 0.12499 0.0
H466 H 0.23777 0.73889 0.12326 0.0
H467 H 0.31741 0.8049 0.13998 0.0
H468 H 0.37472 0.79556 0.20069 0.0
H469 H 0.30518 0.7176 0.20053 0.0
C470 C 0.22806 0.67085 0.17077 0.0
C471 C 0.18899 0.65127 0.15474 0.0
C472 C 0.26996 0.71552 0.17027 0.0
C473 C 0.1936 0.67668 0.13771 0.0
C474 C 0.23566 0.7205 0.13668 0.0
C475 C 0.31502 0.78557 0.15291 0.0
C476 C 0.35185 0.80603 0.17011 0.0
C477 C 0.27387 0.74062 0.15304 0.0
C478 C 0.34745 0.78058 0.18706 0.0
C479 C 0.30743 0.73593 0.18704 0.0
H480 H 0.58691 0.26158 0.50397 0.0
H481 H 0.50202 0.23312 0.4437 0.0
H482 H 0.50924 0.29699 0.45192 0.0
H483 H 0.53008 0.35528 0.47915 0.0
H484 H 0.61334 0.38151 0.53971 0.0
H485 H 0.61604 0.32428 0.52858 0.0
C486 C 0.5703 0.26953 0.49254 0.0
C487 C 0.54315 0.2421 0.4735 0.0
C488 C 0.57364 0.30566 0.49762 0.0
C489 C 0.52303 0.25357 0.45853 0.0
C490 C 0.52678 0.28993 0.46332 0.0
C491 C 0.54952 0.3489 0.48966 0.0
C492 C 0.57047 0.37195 0.51049 0.0
C493 C 0.55054 0.31539 0.48325 0.0
C494 C 0.59584 0.3635 0.52388 0.0
C495 C 0.59756 0.33086 0.5175 0.0
H496 H 0.38587 0.47061 0.84223 0.0
H497 H 0.5011 0.60617 0.8316 0.0
H498 H 0.44109 0.61752 0.83441 0.0
H499 H 0.35312 0.59098 0.8401 0.0
H500 H 0.23788 0.45593 0.8514 0.0
H501 H 0.29757 0.44399 0.84781 0.0
C502 C 0.3988 0.50301 0.84048 0.0
C503 C 0.45148 0.53732 0.83654 0.0
C504 C 0.36217 0.50998 0.8421 0.0
C505 C 0.46315 0.57816 0.83448 0.0
C506 C 0.42773 0.58496 0.83613 0.0
C507 C 0.34005 0.5585 0.84164 0.0
C508 C 0.28758 0.52444 0.84596 0.0
C509 C 0.37653 0.55142 0.8399 0.0
C510 C 0.27574 0.48359 0.84808 0.0
C511 C 0.31097 0.47653 0.84604 0.0
H512 H 0.87368 0.38819 0.1629 0.0
H513 H 0.96157 0.35468 0.13923 0.0
H514 H 0.89129 0.27802 0.14252 0.0
H515 H 0.80522 0.2194 0.15412 0.0
H516 H 0.71749 0.25255 0.178 0.0
H517 H 0.78628 0.32934 0.17253 0.0
C518 C 0.87749 0.3642 0.15824 0.0
C519 C 0.92364 0.37797 0.1508 0.0
C520 C 0.83645 0.31952 0.16024 0.0
C521 C 0.92709 0.34575 0.14498 0.0
C522 C 0.88666 0.30156 0.1469 0.0
C523 C 0.80093 0.2434 0.1577 0.0
C524 C 0.75575 0.22995 0.16616 0.0
C525 C 0.84121 0.28791 0.15473 0.0
C526 C 0.75138 0.26176 0.17115 0.0
C527 C 0.79098 0.30583 0.16816 0.0
H528 H 1.02937 0.46153 0.07725 0.0
H529 H 0.08668 0.59284 0.08859 0.0
H530 H 0.10224 0.60518 0.04867 0.0
H531 H 0.09379 0.57744 0.00966 0.0
H532 H 0.03852 0.44705 0.99755 0.0
H533 H 1.02755 0.43545 0.03798 0.0
C534 C 0.04635 0.49307 0.07101 0.0
C535 C 0.05716 0.52635 0.08607 0.0
C536 C 0.05463 0.4999 0.04761 0.0
C537 C 0.0782 0.56674 0.07749 0.0
C538 C 0.08684 0.57378 0.05455 0.0
C539 C 0.07958 0.54657 0.01591 0.0
C540 C 0.06662 0.51306 0.00048 0.0
C541 C 0.07413 0.54038 0.03931 0.0
C542 C 0.04874 0.4734 0.00897 0.0
C543 C 0.04246 0.46676 0.03217 0.0
H544 H 0.48767 0.9762 0.40602 0.0
H545 H 0.64377 0.08434 0.41332 0.0
H546 H 0.64877 0.09434 0.37316 0.0
H547 H 0.61117 0.06863 0.33557 0.0
H548 H 0.45517 0.96063 0.32722 0.0
H549 H 0.44808 0.95389 0.36785 0.0
C550 C 0.52247 1.00228 0.39878 0.0
C551 C 0.56534 0.02928 0.4126 0.0
C552 C 0.52543 0.00742 0.37537 0.0
C553 C 0.61029 0.06288 0.40302 0.0
C554 C 0.61328 0.06861 0.38001 0.0
C555 C 0.57533 0.04412 0.34256 0.0
C556 C 0.53397 0.015 0.32816 0.0
C557 C 0.57141 0.04048 0.36595 0.0
C558 C 0.48802 0.98303 0.33775 0.0
C559 C 0.48379 0.97929 0.36106 0.0
H560 H 0.63705 0.56123 0.76082 0.0
H561 H 0.47845 0.48122 0.76285 0.0
H562 H 0.47405 0.48911 0.723 0.0
H563 H 0.51399 0.51452 0.68674 0.0
H564 H 0.67141 0.59073 0.68323 0.0
H565 H 0.67783 0.58924 0.72414 0.0
C566 C 0.60172 0.54594 0.75252 0.0
C567 C 0.55815 0.52041 0.76482 0.0
C568 C 0.5992 0.54992 0.72921 0.0
C569 C 0.51258 0.50075 0.7538 0.0
C570 C 0.50991 0.50525 0.73095 0.0
C571 C 0.54969 0.53125 0.69506 0.0
C572 C 0.59218 0.55287 0.68219 0.0
C573 C 0.55278 0.52912 0.71839 0.0
C574 C 0.63826 0.57396 0.69296 0.0
C575 C 0.64185 0.57298 0.7163 0.0
H576 H 0.59711 0.04879 0.54449 0.0
H577 H 0.43795 0.95437 0.54126 0.0
H578 H 0.4363 0.94329 0.5812 0.0
H579 H 0.47928 0.96404 0.61785 0.0
H580 H 0.63769 0.06115 0.62227 0.0
H581 H 0.64075 0.06728 0.58136 0.0
C582 C 0.56224 0.02554 0.55255 0.0
C583 C 0.51771 1.00276 0.53995 0.0
C584 C 0.56142 0.0199 0.57584 0.0
C585 C 0.47275 0.97267 0.55061 0.0
C586 C 0.47169 0.96625 0.57348 0.0
C587 C 0.5144 0.98612 0.60973 0.0
C588 C 0.55818 0.01209 0.62287 0.0
C589 C 0.51565 0.99023 0.58637 0.0
C590 C 0.60356 0.04093 0.61235 0.0
C591 C 0.60526 0.04446 0.58901 0.0
H592 H 0.53208 0.48749 0.88359 0.0
H593 H 0.66221 0.61593 0.90534 0.0
H594 H 0.64557 0.59562 0.94456 0.0
H595 H 0.59465 0.54022 0.97221 0.0
H596 H 0.46808 0.41073 0.94979 0.0
H597 H 0.48368 0.4318 0.91068 0.0
C598 C 0.5572 0.51072 0.89691 0.0
C599 C 0.59856 0.55269 0.8919 0.0
C600 C 0.54831 0.49841 0.91901 0.0
C601 C 0.63049 0.58315 0.9091 0.0
C602 C 0.62097 0.5716 0.93138 0.0
C603 C 0.57083 0.51688 0.95861 0.0
C604 C 0.53044 0.4743 0.96332 0.0
C605 C 0.58023 0.5292 0.93645 0.0
C606 C 0.49919 0.44376 0.94608 0.0
C607 C 0.50807 0.45578 0.92392 0.0
H608 H 0.10079 0.50404 0.23071 0.0
H609 H 0.98299 0.50556 0.21559 0.0
H610 H 0.96931 0.50815 0.25568 0.0
H611 H 0.98946 0.50761 0.29562 0.0
H612 H 0.10832 0.50704 0.31034 0.0
H613 H 0.12246 0.50566 0.27023 0.0
C614 C 0.07254 0.50549 0.23624 0.0
C615 C 0.04401 0.50607 0.2201 0.0
C616 C 0.06456 0.50638 0.25941 0.0
C617 C 1.00697 0.50714 0.22754 0.0
C618 C 0.99857 0.50781 0.25056 0.0
C619 C 1.01826 0.50701 0.28994 0.0
C620 C 0.04762 0.5071 0.30591 0.0
C621 C 1.02691 0.50715 0.26671 0.0
C622 C 0.08523 0.50688 0.29837 0.0
C623 C 0.09338 0.50618 0.27543 0.0
loop_
_geom_bond_atom_site_label_1
_geom_bond_atom_site_label_2
_geom_bond_distance
_geom_bond_site_symmetry_2
_ccdc_geom_bond_type
Ho0 C3 2.811 . S
Ho0 O20 2.322 . S
Ho0 O22 2.378 . S
Ho0 O23 2.524 . S
Ho0 O24 2.381 . S
Ho0 O25 2.669 . S
Ho0 O27 2.346 1_455 S
Ho0 O31 2.305 . S
Ho1 C12 2.811 . S
Ho1 O21 2.346 1_655 S
Ho1 O25 2.305 1_655 S
Ho1 O26 2.322 . S
Ho1 O28 2.378 . S
Ho1 O29 2.524 . S
Ho1 O30 2.381 . S
Ho1 O31 2.669 1_655 S
C2 O20 1.259 . S
C2 O21 1.268 . S
C3 Ho0 2.811 . S
C3 C4 1.488 . S
C3 O22 1.215 . S
C3 O23 1.289 . S
C4 C3 1.488 . S
C4 C5 1.348 . S
C4 C9 1.413 . S
C5 C4 1.348 . S
C5 C6 1.442 . S
C5 H32 0.930 . S
C6 C5 1.442 . S
C6 C7 1.381 . S
C6 H33 0.931 . S
C7 C6 1.381 . S
C7 C8 1.321 . S
C8 C7 1.321 . S
C8 C9 1.403 . S
C8 H34 0.934 . S
C9 C4 1.413 . S
C9 C8 1.403 . S
C9 H35 0.930 . S
C10 O24 1.275 . S
C10 O25 1.256 . S
C11 O26 1.259 . S
C11 O27 1.268 . S
C12 Ho1 2.811 . S
C12 C13 1.488 . S
C12 O28 1.215 . S
C12 O29 1.289 . S
C13 C12 1.488 . S
C13 C14 1.348 . S
C13 C18 1.413 . S
C14 C13 1.348 . S
C14 C15 1.442 . S
C14 H36 0.930 . S
C15 C14 1.442 . S
C15 C16 1.381 . S
C15 H37 0.931 . S
C16 C15 1.381 . S
C16 C17 1.321 . S
C17 C16 1.321 . S
C17 C18 1.403 . S
C17 H38 0.934 . S
C18 C13 1.413 . S
C18 C17 1.403 . S
C18 H39 0.930 . S
C19 O30 1.272 1_455 S
C19 O31 1.256 . S
O20 Ho0 2.322 . S
O20 C2 1.259 . S
O21 Ho1 2.346 1_455 S
O21 C2 1.268 . S
O22 Ho0 2.378 . S
O22 C3 1.215 . S
O23 Ho0 2.524 . S
O23 C3 1.289 . S
O24 Ho0 2.381 . S
O24 C10 1.275 . S
O25 Ho0 2.669 . S
O25 Ho1 2.305 1_455 S
O25 C10 1.256 . S
O26 Ho1 2.322 . S
O26 C11 1.259 . S
O27 Ho0 2.346 1_655 S
O27 C11 1.268 . S
O28 Ho1 2.378 . S
O28 C12 1.215 . S
O29 Ho1 2.524 . S
O29 C12 1.289 . S
O30 Ho1 2.381 . S
O30 C19 1.272 1_655 S
O31 Ho0 2.305 . S
O31 Ho1 2.669 1_455 S
O31 C19 1.256 . S
H32 C5 0.930 . S
H33 C6 0.931 . S
H34 C8 0.934 . S
H35 C9 0.930 . S
H36 C14 0.930 . S
H37 C15 0.931 . S
H38 C17 0.934 . S
H39 C18 0.930 . S
Ho40 C43 2.811 . S
Ho40 O60 2.322 . S
Ho40 O62 2.378 . S
Ho40 O63 2.524 . S
Ho40 O64 2.381 . S
Ho40 O65 2.669 1_565 S
Ho40 O67 2.346 1_565 S
Ho40 O71 2.307 . S
Ho41 C52 2.811 . S
Ho41 O61 2.346 1_545 S
Ho41 O65 2.305 . S
Ho41 O66 2.322 . S
Ho41 O68 2.378 . S
Ho41 O69 2.524 . S
Ho41 O70 2.381 . S
Ho41 O71 2.665 1_545 S
C42 O60 1.259 . S
C42 O61 1.268 . S
C43 Ho40 2.811 . S
C43 C44 1.488 . S
C43 O62 1.215 . S
C43 O63 1.289 . S
C44 C43 1.488 . S
C44 C45 1.348 . S
C44 C49 1.413 . S
C45 C44 1.348 . S
C45 C46 1.442 . S
C45 H72 0.930 . S
C46 C45 1.442 . S
C46 C47 1.381 . S
C46 H73 0.931 . S
C47 C46 1.381 . S
C47 C48 1.321 . S
C48 C47 1.321 . S
C48 C49 1.403 . S
C48 H74 0.934 . S
C49 C44 1.413 . S
C49 C48 1.403 . S
C49 H75 0.930 . S
C50 O64 1.275 1_545 S
C50 O65 1.256 . S
C51 O66 1.259 . S
C51 O67 1.268 . S
C52 Ho41 2.811 . S
C52 C53 1.488 . S
C52 O68 1.215 . S
C52 O69 1.289 . S
C53 C52 1.488 . S
C53 C54 1.348 . S
C53 C58 1.413 . S
C54 C53 1.348 . S
C54 C55 1.442 . S
C54 H76 0.930 . S
C55 C54 1.442 . S
C55 C56 1.381 . S
C55 H77 0.931 . S
C56 C55 1.381 . S
C56 C57 1.321 . S
C57 C56 1.321 . S
C57 C58 1.403 . S
C57 H78 0.934 . S
C58 C53 1.413 . S
C58 C57 1.403 . S
C58 H79 0.930 . S
C59 O70 1.275 . S
C59 O71 1.254 1_545 S
O60 Ho40 2.322 . S
O60 C42 1.259 . S
O61 Ho41 2.346 1_565 S
O61 C42 1.268 . S
O62 Ho40 2.378 . S
O62 C43 1.215 . S
O63 Ho40 2.524 . S
O63 C43 1.289 . S
O64 Ho40 2.381 . S
O64 C50 1.275 1_565 S
O65 Ho40 2.669 1_545 S
O65 Ho41 2.305 . S
O65 C50 1.256 . S
O66 Ho41 2.322 . S
O66 C51 1.259 . S
O67 Ho40 2.346 1_545 S
O67 C51 1.268 . S
O68 Ho41 2.378 . S
O68 C52 1.215 . S
O69 Ho41 2.524 . S
O69 C52 1.289 . S
O70 Ho41 2.381 . S
O70 C59 1.275 . S
O71 Ho40 2.307 . S
O71 Ho41 2.665 1_565 S
O71 C59 1.254 1_565 S
H72 C45 0.930 . S
H73 C46 0.931 . S
H74 C48 0.934 . S
H75 C49 0.930 . S
H76 C54 0.930 . S
H77 C55 0.931 . S
H78 C57 0.934 . S
H79 C58 0.930 . S
Ho80 C83 2.811 . S
Ho80 O100 2.322 . S
Ho80 O102 2.378 . S
Ho80 O103 2.524 . S
Ho80 O104 2.381 . S
Ho80 O105 2.669 . S
Ho80 O107 2.346 . S
Ho80 O111 2.305 . S
Ho81 C92 2.811 . S
Ho81 O101 2.346 . S
Ho81 O105 2.305 . S
Ho81 O106 2.322 . S
Ho81 O108 2.378 . S
Ho81 O109 2.524 . S
Ho81 O110 2.381 . S
Ho81 O111 2.669 . S
C82 O100 1.259 . S
C82 O101 1.268 . S
C83 Ho80 2.811 . S
C83 C84 1.488 . S
C83 O102 1.215 . S
C83 O103 1.289 . S
C84 C83 1.488 . S
C84 C85 1.348 . S
C84 C89 1.413 . S
C85 C84 1.348 . S
C85 C86 1.442 . S
C85 H112 0.930 . S
C86 C85 1.442 . S
C86 C87 1.381 . S
C86 H113 0.931 . S
C87 C86 1.381 . S
C87 C88 1.321 . S
C88 C87 1.321 . S
C88 C89 1.403 . S
C88 H114 0.934 . S
C89 C84 1.413 . S
C89 C88 1.403 . S
C89 H115 0.930 . S
C90 O104 1.275 . S
C90 O105 1.256 . S
C91 O106 1.259 . S
C91 O107 1.268 . S
C92 Ho81 2.811 . S
C92 C93 1.488 . S
C92 O108 1.215 . S
C92 O109 1.289 . S
C93 C92 1.488 . S
C93 C94 1.348 . S
C93 C98 1.413 . S
C94 C93 1.348 . S
C94 C95 1.442 . S
C94 H116 0.930 . S
C95 C94 1.442 . S
C95 C96 1.381 . S
C95 H117 0.931 . S
C96 C95 1.381 . S
C96 C97 1.321 . S
C97 C96 1.321 . S
C97 C98 1.403 . S
C97 H118 0.934 . S
C98 C93 1.413 . S
C98 C97 1.403 . S
C98 H119 0.930 . S
C99 O110 1.275 . S
C99 O111 1.256 . S
O100 Ho80 2.322 . S
O100 C82 1.259 . S
O101 Ho81 2.346 . S
O101 C82 1.268 . S
O102 Ho80 2.378 . S
O102 C83 1.215 . S
O103 Ho80 2.524 . S
O103 C83 1.289 . S
O104 Ho80 2.381 . S
O104 C90 1.275 . S
O105 Ho80 2.669 . S
O105 Ho81 2.305 . S
O105 C90 1.256 . S
O106 Ho81 2.322 . S
O106 C91 1.259 . S
O107 Ho80 2.346 . S
O107 C91 1.268 . S
O108 Ho81 2.378 . S
O108 C92 1.215 . S
O109 Ho81 2.524 . S
O109 C92 1.289 . S
O110 Ho81 2.381 . S
O110 C99 1.275 . S
O111 Ho80 2.305 . S
O111 Ho81 2.669 . S
O111 C99 1.256 . S
H112 C85 0.930 . S
H113 C86 0.931 . S
H114 C88 0.934 . S
H115 C89 0.930 . S
H116 C94 0.930 . S
H117 C95 0.931 . S
H118 C97 0.934 . S
H119 C98 0.930 . S
C120 C121 1.384 . S
C120 H133 0.947 . S
C120 C155 1.382 . S
C121 C120 1.384 . S
C121 C122 1.378 . S
C122 C121 1.378 . S
C122 C123 1.378 . S
C122 H134 0.952 . S
C123 C122 1.378 . S
C123 H135 0.950 . S
C123 C154 1.383 . S
H124 C143 0.947 . S
H125 C144 0.946 . S
H126 C146 0.953 . S
H127 C147 0.945 . S
H128 C149 0.952 . S
H129 C150 0.949 . S
H130 C152 0.950 . S
H131 C153 0.948 . S
H132 C155 0.951 . S
H133 C120 0.947 . S
H134 C122 0.952 . S
H135 C123 0.950 . S
N136 C139 1.382 . S
N136 C141 1.363 1_545 S
N137 C139 1.371 . S
N137 C140 1.372 . S
N138 C140 1.361 1_565 S
N138 C141 1.377 . S
C139 N136 1.382 . S
C139 N137 1.371 . S
C139 C142 1.480 . S
C140 N137 1.372 . S
C140 N138 1.361 1_545 S
C140 C148 1.457 . S
C141 N136 1.363 1_565 S
C141 N138 1.377 . S
C141 C154 1.479 . S
C142 C139 1.480 . S
C142 C143 1.383 . S
C142 C147 1.385 . S
C143 H124 0.947 . S
C143 C142 1.383 . S
C143 C144 1.388 . S
C144 H125 0.946 . S
C144 C143 1.388 . S
C144 C145 1.384 . S
C145 C144 1.384 . S
C145 C146 1.377 . S
C146 H126 0.953 . S
C146 C145 1.377 . S
C146 C147 1.369 . S
C147 H127 0.945 . S
C147 C142 1.385 . S
C147 C146 1.369 . S
C148 C140 1.457 . S
C148 C149 1.372 . S
C148 C153 1.364 1_545 S
C149 H128 0.952 . S
C149 C148 1.372 . S
C149 C150 1.389 . S
C150 H129 0.949 . S
C150 C149 1.389 . S
C150 C151 1.387 . S
C151 C150 1.387 . S
C151 C152 1.372 1_545 S
C152 H130 0.950 . S
C152 C151 1.372 1_565 S
C152 C153 1.379 . S
C153 H131 0.948 . S
C153 C148 1.364 1_565 S
C153 C152 1.379 . S
C154 C123 1.383 . S
C154 C141 1.479 . S
C154 C155 1.398 . S
C155 C120 1.382 . S
C155 H132 0.951 . S
C155 C154 1.398 . S
C156 C157 1.384 . S
C156 H169 0.947 . S
C156 C191 1.382 . S
C157 C156 1.384 . S
C157 C158 1.378 . S
C158 C157 1.378 . S
C158 C159 1.378 . S
C158 H170 0.952 . S
C159 C158 1.378 . S
C159 H171 0.950 . S
C159 C190 1.383 . S
H160 C179 0.947 . S
H161 C180 0.946 . S
H162 C182 0.953 . S
H163 C183 0.945 . S
H164 C185 0.952 . S
H165 C186 0.949 . S
H166 C188 0.950 . S
H167 C189 0.948 . S
H168 C191 0.951 . S
H169 C156 0.947 . S
H170 C158 0.952 . S
H171 C159 0.950 . S
N172 C175 1.382 . S
N172 C177 1.363 . S
N173 C175 1.371 . S
N173 C176 1.372 . S
N174 C176 1.361 . S
N174 C177 1.377 . S
C175 N172 1.382 . S
C175 N173 1.371 . S
C175 C178 1.480 . S
C176 N173 1.372 . S
C176 N174 1.361 . S
C176 C184 1.457 . S
C177 N172 1.363 . S
C177 N174 1.377 . S
C177 C190 1.479 . S
C178 C175 1.480 . S
C178 C179 1.383 . S
C178 C183 1.385 . S
C179 H160 0.947 . S
C179 C178 1.383 . S
C179 C180 1.388 . S
C180 H161 0.946 . S
C180 C179 1.388 . S
C180 C181 1.384 . S
C181 C180 1.384 . S
C181 C182 1.377 . S
C182 H162 0.953 . S
C182 C181 1.377 . S
C182 C183 1.369 . S
C183 H163 0.945 . S
C183 C178 1.385 . S
C183 C182 1.369 . S
C184 C176 1.457 . S
C184 C185 1.372 . S
C184 C189 1.364 . S
C185 H164 0.952 . S
C185 C184 1.372 . S
C185 C186 1.389 . S
C186 H165 0.949 . S
C186 C185 1.389 . S
C186 C187 1.387 . S
C187 C186 1.387 . S
C187 C188 1.372 . S
C188 H166 0.950 . S
C188 C187 1.372 . S
C188 C189 1.379 . S
C189 H167 0.948 . S
C189 C184 1.364 . S
C189 C188 1.379 . S
C190 C159 1.383 . S
C190 C177 1.479 . S
C190 C191 1.398 . S
C191 C156 1.382 . S
C191 H168 0.951 . S
C191 C190 1.398 . S
C192 C193 1.384 . S
C192 H205 0.947 . S
C192 C227 1.382 . S
C193 C192 1.384 . S
C193 C194 1.378 . S
C194 C193 1.378 . S
C194 C195 1.378 . S
C194 H206 0.952 . S
C195 C194 1.378 . S
C195 H207 0.965 . S
C195 C226 1.383 . S
H196 C215 0.947 . S
H197 C216 0.946 . S
H198 C218 0.953 . S
H199 C219 0.945 . S
H200 C221 0.952 . S
H201 C222 0.949 . S
H202 C224 0.950 1_655 S
H203 C225 0.948 1_655 S
H204 C227 0.951 . S
H205 C192 0.947 . S
H206 C194 0.952 . S
H207 C195 0.965 . S
N208 C211 1.382 . S
N208 C213 1.363 . S
N209 C211 1.371 . S
N209 C212 1.372 . S
N210 C212 1.361 . S
N210 C213 1.377 . S
C211 N208 1.382 . S
C211 N209 1.371 . S
C211 C214 1.480 . S
C212 N209 1.372 . S
C212 N210 1.361 . S
C212 C220 1.457 . S
C213 N208 1.363 . S
C213 N210 1.377 . S
C213 C226 1.479 1_455 S
C214 C211 1.480 . S
C214 C215 1.383 . S
C214 C219 1.385 . S
C215 H196 0.947 . S
C215 C214 1.383 . S
C215 C216 1.388 . S
C216 H197 0.946 . S
C216 C215 1.388 . S
C216 C217 1.384 . S
C217 C216 1.384 . S
C217 C218 1.377 . S
C218 H198 0.953 . S
C218 C217 1.377 . S
C218 C219 1.369 . S
C219 H199 0.945 . S
C219 C214 1.385 . S
C219 C218 1.369 . S
C220 C212 1.457 . S
C220 C221 1.372 . S
C220 C225 1.364 . S
C221 H200 0.952 . S
C221 C220 1.372 . S
C221 C222 1.389 . S
C222 H201 0.949 . S
C222 C221 1.389 . S
C222 C223 1.387 . S
C223 C222 1.387 . S
C223 C224 1.372 . S
C224 H202 0.950 1_455 S
C224 C223 1.372 . S
C224 C225 1.379 . S
C225 H203 0.948 1_455 S
C225 C220 1.364 . S
C225 C224 1.379 . S
C226 C195 1.383 . S
C226 C213 1.479 1_655 S
C226 C227 1.398 . S
C227 C192 1.382 . S
C227 H204 0.951 . S
C227 C226 1.398 . S
C228 C229 1.384 . S
C228 H241 0.947 . S
C228 C263 1.382 . S
C229 C228 1.384 . S
C229 C230 1.378 . S
C230 C229 1.378 . S
C230 C231 1.378 . S
C230 H242 0.952 . S
C231 C230 1.378 . S
C231 H243 0.950 . S
C231 C262 1.383 . S
H232 C251 0.947 . S
H233 C252 0.946 . S
H234 C254 0.953 . S
H235 C255 0.945 . S
H236 C257 0.952 . S
H237 C258 0.949 . S
H238 C260 0.950 . S
H239 C261 0.948 . S
H240 C263 0.951 . S
H241 C228 0.947 . S
H242 C230 0.952 . S
H243 C231 0.950 . S
N244 C247 1.382 1_455 S
N244 C249 1.363 . S
N245 C247 1.371 . S
N245 C248 1.372 1_655 S
N246 C248 1.361 . S
N246 C249 1.377 . S
C247 N244 1.382 1_655 S
C247 N245 1.371 . S
C247 C250 1.480 . S
C248 N245 1.372 1_455 S
C248 N246 1.361 . S
C248 C256 1.457 . S
C249 N244 1.363 . S
C249 N246 1.377 . S
C249 C262 1.479 . S
C250 C247 1.480 . S
C250 C251 1.383 . S
C250 C255 1.385 . S
C251 H232 0.947 . S
C251 C250 1.383 . S
C251 C252 1.388 . S
C252 H233 0.946 . S
C252 C251 1.388 . S
C252 C253 1.384 . S
C253 C252 1.384 . S
C253 C254 1.377 . S
C254 H234 0.953 . S
C254 C253 1.377 . S
C254 C255 1.369 . S
C255 H235 0.945 . S
C255 C250 1.385 . S
C255 C254 1.369 . S
C256 C248 1.457 . S
C256 C257 1.372 1_455 S
C256 C261 1.364 . S
C257 H236 0.952 . S
C257 C256 1.372 1_655 S
C257 C258 1.389 . S
C258 H237 0.949 . S
C258 C257 1.389 . S
C258 C259 1.387 1_655 S
C259 C258 1.387 1_455 S
C259 C260 1.372 . S
C260 H238 0.950 . S
C260 C259 1.372 . S
C260 C261 1.379 . S
C261 H239 0.948 . S
C261 C256 1.364 . S
C261 C260 1.379 . S
C262 C231 1.383 . S
C262 C249 1.479 . S
C262 C263 1.398 . S
C263 C228 1.382 . S
C263 H240 0.951 . S
C263 C262 1.398 . S
C264 C265 1.384 . S
C264 H277 0.947 . S
C264 C299 1.382 . S
C265 C264 1.384 . S
C265 C266 1.378 . S
C266 C265 1.378 . S
C266 C267 1.378 . S
C266 H278 0.952 . S
C267 C266 1.378 . S
C267 H279 0.950 . S
C267 C298 1.383 . S
H268 C287 0.947 . S
H269 C288 0.946 . S
H270 C290 0.953 . S
H271 C291 0.945 . S
H272 C293 0.952 . S
H273 C294 0.949 . S
H274 C296 0.950 . S
H275 C297 0.948 . S
H276 C299 0.951 . S
H277 C264 0.947 . S
H278 C266 0.952 . S
H279 C267 0.950 . S
N280 C283 1.382 1_545 S
N280 C285 1.363 . S
N281 C283 1.371 . S
N281 C284 1.372 1_565 S
N282 C284 1.361 . S
N282 C285 1.377 . S
C283 N280 1.382 1_565 S
C283 N281 1.371 . S
C283 C286 1.480 . S
C284 N281 1.372 1_545 S
C284 N282 1.361 . S
C284 C292 1.457 . S
C285 N280 1.363 . S
C285 N282 1.377 . S
C285 C298 1.479 . S
C286 C283 1.480 . S
C286 C287 1.383 . S
C286 C291 1.385 . S
C287 H268 0.947 . S
C287 C286 1.383 . S
C287 C288 1.388 . S
C288 H269 0.946 . S
C288 C287 1.388 . S
C288 C289 1.384 . S
C289 C288 1.384 . S
C289 C290 1.377 . S
C290 H270 0.953 . S
C290 C289 1.377 . S
C290 C291 1.369 . S
C291 H271 0.945 . S
C291 C286 1.385 . S
C291 C290 1.369 . S
C292 C284 1.457 . S
C292 C293 1.372 1_545 S
C292 C297 1.364 . S
C293 H272 0.952 . S
C293 C292 1.372 1_565 S
C293 C294 1.389 . S
C294 H273 0.949 . S
C294 C293 1.389 . S
C294 C295 1.387 . S
C295 C294 1.387 . S
C295 C296 1.372 1_565 S
C296 H274 0.950 . S
C296 C295 1.372 1_545 S
C296 C297 1.379 . S
C297 H275 0.948 . S
C297 C292 1.364 . S
C297 C296 1.379 . S
C298 C267 1.383 . S
C298 C285 1.479 . S
C298 C299 1.398 . S
C299 C264 1.382 . S
C299 H276 0.951 . S
C299 C298 1.398 . S
C300 C301 1.384 . S
C300 H313 0.947 . S
C300 C335 1.382 . S
C301 C300 1.384 . S
C301 C302 1.378 . S
C302 C301 1.378 . S
C302 C303 1.378 . S
C302 H314 0.952 . S
C303 C302 1.378 . S
C303 H315 0.950 . S
C303 C334 1.383 . S
H304 C323 0.947 . S
H305 C324 0.946 . S
H306 C326 0.953 . S
H307 C327 0.945 . S
H308 C329 0.952 . S
H309 C330 0.949 1_556 S
H310 C332 0.950 1_556 S
H311 C333 0.948 . S
H312 C335 0.951 . S
H313 C300 0.947 . S
H314 C302 0.952 . S
H315 C303 0.950 . S
N316 C319 1.382 . S
N316 C321 1.363 . S
N317 C319 1.371 . S
N317 C320 1.372 . S
N318 C320 1.361 . S
N318 C321 1.377 . S
C319 N316 1.382 . S
C319 N317 1.371 . S
C319 C322 1.480 . S
C320 N317 1.372 . S
C320 N318 1.361 . S
C320 C328 1.457 . S
C321 N316 1.363 . S
C321 N318 1.377 . S
C321 C334 1.479 . S
C322 C319 1.480 . S
C322 C323 1.383 . S
C322 C327 1.385 . S
C323 H304 0.947 . S
C323 C322 1.383 . S
C323 C324 1.388 . S
C324 H305 0.946 . S
C324 C323 1.388 . S
C324 C325 1.384 . S
C325 C324 1.384 . S
C325 C326 1.377 . S
C326 H306 0.953 . S
C326 C325 1.377 . S
C326 C327 1.369 . S
C327 H307 0.945 . S
C327 C322 1.385 . S
C327 C326 1.369 . S
C328 C320 1.457 . S
C328 C329 1.372 . S
C328 C333 1.364 . S
C329 H308 0.952 . S
C329 C328 1.372 . S
C329 C330 1.389 . S
C330 H309 0.949 1_554 S
C330 C329 1.389 . S
C330 C331 1.387 1_554 S
C331 C330 1.387 1_556 S
C331 C332 1.372 1_556 S
C332 H310 0.950 1_554 S
C332 C331 1.372 1_554 S
C332 C333 1.379 . S
C333 H311 0.948 . S
C333 C328 1.364 . S
C333 C332 1.379 . S
C334 C303 1.383 . S
C334 C321 1.479 . S
C334 C335 1.398 . S
C335 C300 1.382 . S
C335 H312 0.951 . S
C335 C334 1.398 . S
H336 C342 0.930 . S
H337 C345 0.930 . S
H338 C346 0.930 . S
H339 C347 0.930 . S
H340 C350 0.930 . S
H341 C351 0.930 . S
C342 H336 0.930 . S
C342 C343 1.355 . S
C342 C344 1.415 . S
C343 C342 1.355 . S
C343 C345 1.419 . S
C344 C342 1.415 . S
C344 C349 1.425 . S
C344 C351 1.409 . S
C345 H337 0.930 . S
C345 C343 1.419 . S
C345 C346 1.362 . S
C346 H338 0.930 . S
C346 C345 1.362 . S
C346 C349 1.409 . S
C347 H339 0.930 . S
C347 C348 1.355 . S
C347 C349 1.415 . S
C348 C347 1.355 . S
C348 C350 1.419 . S
C349 C344 1.425 . S
C349 C346 1.409 . S
C349 C347 1.415 . S
C350 H340 0.930 . S
C350 C348 1.419 . S
C350 C351 1.362 . S
C351 H341 0.930 . S
C351 C344 1.409 . S
C351 C350 1.362 . S
H352 C358 0.930 . S
H353 C361 0.930 . S
H354 C362 0.930 . S
H355 C363 0.930 . S
H356 C366 0.930 . S
H357 C367 0.930 . S
C358 H352 0.930 . S
C358 C359 1.355 . S
C358 C360 1.415 . S
C359 C358 1.355 . S
C359 C361 1.419 . S
C360 C358 1.415 . S
C360 C365 1.425 . S
C360 C367 1.409 . S
C361 H353 0.930 . S
C361 C359 1.419 . S
C361 C362 1.362 . S
C362 H354 0.930 . S
C362 C361 1.362 . S
C362 C365 1.409 . S
C363 H355 0.930 . S
C363 C364 1.355 . S
C363 C365 1.415 . S
C364 C363 1.355 . S
C364 C366 1.419 . S
C365 C360 1.425 . S
C365 C362 1.409 . S
C365 C363 1.415 . S
C366 H356 0.930 . S
C366 C364 1.419 . S
C366 C367 1.362 . S
C367 H357 0.930 . S
C367 C360 1.409 . S
C367 C366 1.362 . S
H368 C374 0.930 . S
H369 C377 0.930 . S
H370 C378 0.930 . S
H371 C379 0.930 . S
H372 C382 0.930 . S
H373 C383 0.930 . S
C374 H368 0.930 . S
C374 C375 1.355 . S
C374 C376 1.415 . S
C375 C374 1.355 . S
C375 C377 1.419 . S
C376 C374 1.415 . S
C376 C381 1.425 . S
C376 C383 1.409 . S
C377 H369 0.930 . S
C377 C375 1.419 . S
C377 C378 1.362 . S
C378 H370 0.930 . S
C378 C377 1.362 . S
C378 C381 1.409 . S
C379 H371 0.930 . S
C379 C380 1.355 . S
C379 C381 1.415 . S
C380 C379 1.355 . S
C380 C382 1.419 . S
C381 C376 1.425 . S
C381 C378 1.409 . S
C381 C379 1.415 . S
C382 H372 0.930 . S
C382 C380 1.419 . S
C382 C383 1.362 . S
C383 H373 0.930 . S
C383 C376 1.409 . S
C383 C382 1.362 . S
H384 C390 0.930 . S
H385 C393 0.930 . S
H386 C394 0.930 . S
H387 C395 0.930 . S
H388 C398 0.930 . S
H389 C399 0.930 . S
C390 H384 0.930 . S
C390 C391 1.355 . S
C390 C392 1.415 . S
C391 C390 1.355 . S
C391 C393 1.419 . S
C392 C390 1.415 . S
C392 C397 1.425 . S
C392 C399 1.409 . S
C393 H385 0.930 . S
C393 C391 1.419 . S
C393 C394 1.362 . S
C394 H386 0.930 . S
C394 C393 1.362 . S
C394 C397 1.409 . S
C395 H387 0.930 . S
C395 C396 1.355 . S
C395 C397 1.415 . S
C396 C395 1.355 . S
C396 C398 1.419 . S
C397 C392 1.425 . S
C397 C394 1.409 . S
C397 C395 1.415 . S
C398 H388 0.930 . S
C398 C396 1.419 . S
C398 C399 1.362 . S
C399 H389 0.930 . S
C399 C392 1.409 . S
C399 C398 1.362 . S
H400 C406 0.930 . S
H401 C409 0.930 . S
H402 C410 0.930 . S
H403 C411 0.930 . S
H404 C414 0.930 . S
H405 C415 0.930 . S
C406 H400 0.930 . S
C406 C407 1.355 . S
C406 C408 1.415 . S
C407 C406 1.355 . S
C407 C409 1.419 . S
C408 C406 1.415 . S
C408 C413 1.425 . S
C408 C415 1.409 . S
C409 H401 0.930 . S
C409 C407 1.419 . S
C409 C410 1.362 . S
C410 H402 0.930 . S
C410 C409 1.362 . S
C410 C413 1.409 . S
C411 H403 0.930 . S
C411 C412 1.355 . S
C411 C413 1.415 . S
C412 C411 1.355 . S
C412 C414 1.419 . S
C413 C408 1.425 . S
C413 C410 1.409 . S
C413 C411 1.415 . S
C414 H404 0.930 . S
C414 C412 1.419 . S
C414 C415 1.362 . S
C415 H405 0.930 . S
C415 C408 1.409 . S
C415 C414 1.362 . S
H416 C422 0.930 . S
H417 C425 0.930 . S
H418 C426 0.930 . S
H419 C427 0.930 . S
H420 C430 0.930 . S
H421 C431 0.930 . S
C422 H416 0.930 . S
C422 C423 1.355 . S
C422 C424 1.415 . S
C423 C422 1.355 . S
C423 C425 1.419 . S
C424 C422 1.415 . S
C424 C429 1.425 . S
C424 C431 1.409 . S
C425 H417 0.930 . S
C425 C423 1.419 . S
C425 C426 1.362 . S
C426 H418 0.930 . S
C426 C425 1.362 . S
C426 C429 1.409 . S
C427 H419 0.930 . S
C427 C428 1.355 . S
C427 C429 1.415 . S
C428 C427 1.355 . S
C428 C430 1.419 . S
C429 C424 1.425 . S
C429 C426 1.409 . S
C429 C427 1.415 . S
C430 H420 0.930 . S
C430 C428 1.419 . S
C430 C431 1.362 . S
C431 H421 0.930 . S
C431 C424 1.409 . S
C431 C430 1.362 . S
H432 C438 0.930 . S
H433 C441 0.930 . S
H434 C442 0.930 . S
H435 C443 0.930 . S
H436 C446 0.930 . S
H437 C447 0.930 . S
C438 H432 0.930 . S
C438 C439 1.355 . S
C438 C440 1.415 . S
C439 C438 1.355 . S
C439 C441 1.419 . S
C440 C438 1.415 . S
C440 C445 1.425 . S
C440 C447 1.409 . S
C441 H433 0.930 . S
C441 C439 1.419 . S
C441 C442 1.362 . S
C442 H434 0.930 . S
C442 C441 1.362 . S
C442 C445 1.409 . S
C443 H435 0.930 . S
C443 C444 1.355 . S
C443 C445 1.415 . S
C444 C443 1.355 . S
C444 C446 1.419 . S
C445 C440 1.425 . S
C445 C442 1.409 . S
C445 C443 1.415 . S
C446 H436 0.930 . S
C446 C444 1.419 . S
C446 C447 1.362 . S
C447 H437 0.930 . S
C447 C440 1.409 . S
C447 C446 1.362 . S
H448 C454 0.930 . S
H449 C457 0.930 . S
H450 C458 0.930 . S
H451 C459 0.930 . S
H452 C462 0.930 . S
H453 C463 0.930 . S
C454 H448 0.930 . S
C454 C455 1.355 . S
C454 C456 1.415 . S
C455 C454 1.355 . S
C455 C457 1.419 . S
C456 C454 1.415 . S
C456 C461 1.425 . S
C456 C463 1.409 . S
C457 H449 0.930 . S
C457 C455 1.419 . S
C457 C458 1.362 . S
C458 H450 0.930 . S
C458 C457 1.362 . S
C458 C461 1.409 . S
C459 H451 0.930 . S
C459 C460 1.355 . S
C459 C461 1.415 . S
C460 C459 1.355 . S
C460 C462 1.419 . S
C461 C456 1.425 . S
C461 C458 1.409 . S
C461 C459 1.415 . S
C462 H452 0.930 . S
C462 C460 1.419 . S
C462 C463 1.362 . S
C463 H453 0.930 . S
C463 C456 1.409 . S
C463 C462 1.362 . S
H464 C470 0.930 . S
H465 C473 0.930 . S
H466 C474 0.930 . S
H467 C475 0.930 . S
H468 C478 0.930 . S
H469 C479 0.930 . S
C470 H464 0.930 . S
C470 C471 1.355 . S
C470 C472 1.415 . S
C471 C470 1.355 . S
C471 C473 1.419 . S
C472 C470 1.415 . S
C472 C477 1.425 . S
C472 C479 1.409 . S
C473 H465 0.930 . S
C473 C471 1.419 . S
C473 C474 1.362 . S
C474 H466 0.930 . S
C474 C473 1.362 . S
C474 C477 1.409 . S
C475 H467 0.930 . S
C475 C476 1.355 . S
C475 C477 1.415 . S
C476 C475 1.355 . S
C476 C478 1.419 . S
C477 C472 1.425 . S
C477 C474 1.409 . S
C477 C475 1.415 . S
C478 H468 0.930 . S
C478 C476 1.419 . S
C478 C479 1.362 . S
C479 H469 0.930 . S
C479 C472 1.409 . S
C479 C478 1.362 . S
H480 C486 0.930 . S
H481 C489 0.930 . S
H482 C490 0.930 . S
H483 C491 0.930 . S
H484 C494 0.930 . S
H485 C495 0.930 . S
C486 H480 0.930 . S
C486 C487 1.355 . S
C486 C488 1.415 . S
C487 C486 1.355 . S
C487 C489 1.419 . S
C488 C486 1.415 . S
C488 C493 1.425 . S
C488 C495 1.409 . S
C489 H481 0.930 . S
C489 C487 1.419 . S
C489 C490 1.362 . S
C490 H482 0.930 . S
C490 C489 1.362 . S
C490 C493 1.409 . S
C491 H483 0.930 . S
C491 C492 1.355 . S
C491 C493 1.415 . S
C492 C491 1.355 . S
C492 C494 1.419 . S
C493 C488 1.425 . S
C493 C490 1.409 . S
C493 C491 1.415 . S
C494 H484 0.930 . S
C494 C492 1.419 . S
C494 C495 1.362 . S
C495 H485 0.930 . S
C495 C488 1.409 . S
C495 C494 1.362 . S
H496 C502 0.930 . S
H497 C505 0.930 . S
H498 C506 0.930 . S
H499 C507 0.930 . S
H500 C510 0.930 . S
H501 C511 0.930 . S
C502 H496 0.930 . S
C502 C503 1.355 . S
C502 C504 1.415 . S
C503 C502 1.355 . S
C503 C505 1.419 . S
C504 C502 1.415 . S
C504 C509 1.425 . S
C504 C511 1.409 . S
C505 H497 0.930 . S
C505 C503 1.419 . S
C505 C506 1.362 . S
C506 H498 0.930 . S
C506 C505 1.362 . S
C506 C509 1.409 . S
C507 H499 0.930 . S
C507 C508 1.355 . S
C507 C509 1.415 . S
C508 C507 1.355 . S
C508 C510 1.419 . S
C509 C504 1.425 . S
C509 C506 1.409 . S
C509 C507 1.415 . S
C510 H500 0.930 . S
C510 C508 1.419 . S
C510 C511 1.362 . S
C511 H501 0.930 . S
C511 C504 1.409 . S
C511 C510 1.362 . S
H512 C518 0.930 . S
H513 C521 0.930 . S
H514 C522 0.930 . S
H515 C523 0.930 . S
H516 C526 0.930 . S
H517 C527 0.930 . S
C518 H512 0.930 . S
C518 C519 1.355 . S
C518 C520 1.415 . S
C519 C518 1.355 . S
C519 C521 1.419 . S
C520 C518 1.415 . S
C520 C525 1.425 . S
C520 C527 1.409 . S
C521 H513 0.930 . S
C521 C519 1.419 . S
C521 C522 1.362 . S
C522 H514 0.930 . S
C522 C521 1.362 . S
C522 C525 1.409 . S
C523 H515 0.930 . S
C523 C524 1.355 . S
C523 C525 1.415 . S
C524 C523 1.355 . S
C524 C526 1.419 . S
C525 C520 1.425 . S
C525 C522 1.409 . S
C525 C523 1.415 . S
C526 H516 0.930 . S
C526 C524 1.419 . S
C526 C527 1.362 . S
C527 H517 0.930 . S
C527 C520 1.409 . S
C527 C526 1.362 . S
H528 C534 0.930 . S
H529 C537 0.930 . S
H530 C538 0.930 . S
H531 C539 0.930 . S
H532 C542 0.930 . S
H533 C543 0.930 . S
C534 H528 0.930 . S
C534 C535 1.355 . S
C534 C536 1.415 . S
C535 C534 1.355 . S
C535 C537 1.419 . S
C536 C534 1.415 . S
C536 C541 1.425 . S
C536 C543 1.409 . S
C537 H529 0.930 . S
C537 C535 1.419 . S
C537 C538 1.362 . S
C538 H530 0.930 . S
C538 C537 1.362 . S
C538 C541 1.409 . S
C539 H531 0.930 . S
C539 C540 1.355 . S
C539 C541 1.415 . S
C540 C539 1.355 . S
C540 C542 1.419 . S
C541 C536 1.425 . S
C541 C538 1.409 . S
C541 C539 1.415 . S
C542 H532 0.930 . S
C542 C540 1.419 . S
C542 C543 1.362 . S
C543 H533 0.930 . S
C543 C536 1.409 . S
C543 C542 1.362 . S
H544 C550 0.930 . S
H545 C553 0.930 . S
H546 C554 0.930 . S
H547 C555 0.930 . S
H548 C558 0.930 . S
H549 C559 0.930 . S
C550 H544 0.930 . S
C550 C551 1.355 1_565 S
C550 C552 1.415 1_565 S
C551 C550 1.355 1_545 S
C551 C553 1.419 . S
C552 C550 1.415 1_545 S
C552 C557 1.425 . S
C552 C559 1.409 1_545 S
C553 H545 0.930 . S
C553 C551 1.419 . S
C553 C554 1.362 . S
C554 H546 0.930 . S
C554 C553 1.362 . S
C554 C557 1.409 . S
C555 H547 0.930 . S
C555 C556 1.355 . S
C555 C557 1.415 . S
C556 C555 1.355 . S
C556 C558 1.419 1_545 S
C557 C552 1.425 . S
C557 C554 1.409 . S
C557 C555 1.415 . S
C558 H548 0.930 . S
C558 C556 1.419 1_565 S
C558 C559 1.362 . S
C559 H549 0.930 . S
C559 C552 1.409 1_565 S
C559 C558 1.362 . S
H560 C566 0.930 . S
H561 C569 0.930 . S
H562 C570 0.930 . S
H563 C571 0.930 . S
H564 C574 0.930 . S
H565 C575 0.930 . S
C566 H560 0.930 . S
C566 C567 1.355 . S
C566 C568 1.415 . S
C567 C566 1.355 . S
C567 C569 1.419 . S
C568 C566 1.415 . S
C568 C573 1.425 . S
C568 C575 1.409 . S
C569 H561 0.930 . S
C569 C567 1.419 . S
C569 C570 1.362 . S
C570 H562 0.930 . S
C570 C569 1.362 . S
C570 C573 1.409 . S
C571 H563 0.930 . S
C571 C572 1.355 . S
C571 C573 1.415 . S
C572 C571 1.355 . S
C572 C574 1.419 . S
C573 C568 1.425 . S
C573 C570 1.409 . S
C573 C571 1.415 . S
C574 H564 0.930 . S
C574 C572 1.419 . S
C574 C575 1.362 . S
C575 H565 0.930 . S
C575 C568 1.409 . S
C575 C574 1.362 . S
H576 C582 0.930 . S
H577 C585 0.930 . S
H578 C586 0.930 . S
H579 C587 0.930 . S
H580 C590 0.930 . S
H581 C591 0.930 . S
C582 H576 0.930 . S
C582 C583 1.355 . S
C582 C584 1.415 . S
C583 C582 1.355 . S
C583 C585 1.419 1_545 S
C584 C582 1.415 . S
C584 C589 1.425 1_545 S
C584 C591 1.409 . S
C585 H577 0.930 . S
C585 C583 1.419 1_565 S
C585 C586 1.362 . S
C586 H578 0.930 . S
C586 C585 1.362 . S
C586 C589 1.409 . S
C587 H579 0.930 . S
C587 C588 1.355 . S
C587 C589 1.415 . S
C588 C587 1.355 . S
C588 C590 1.419 1_565 S
C589 C584 1.425 1_565 S
C589 C586 1.409 . S
C589 C587 1.415 . S
C590 H580 0.930 . S
C590 C588 1.419 1_545 S
C590 C591 1.362 . S
C591 H581 0.930 . S
C591 C584 1.409 . S
C591 C590 1.362 . S
H592 C598 0.930 . S
H593 C601 0.930 . S
H594 C602 0.930 . S
H595 C603 0.930 . S
H596 C606 0.930 . S
H597 C607 0.930 . S
C598 H592 0.930 . S
C598 C599 1.355 . S
C598 C600 1.415 . S
C599 C598 1.355 . S
C599 C601 1.419 . S
C600 C598 1.415 . S
C600 C605 1.425 . S
C600 C607 1.409 . S
C601 H593 0.930 . S
C601 C599 1.419 . S
C601 C602 1.362 . S
C602 H594 0.930 . S
C602 C601 1.362 . S
C602 C605 1.409 . S
C603 H595 0.930 . S
C603 C604 1.355 . S
C603 C605 1.415 . S
C604 C603 1.355 . S
C604 C606 1.419 . S
C605 C600 1.425 . S
C605 C602 1.409 . S
C605 C603 1.415 . S
C606 H596 0.930 . S
C606 C604 1.419 . S
C606 C607 1.362 . S
C607 H597 0.930 . S
C607 C600 1.409 . S
C607 C606 1.362 . S
H608 C614 0.930 . S
H609 C617 0.930 . S
H610 C618 0.930 . S
H611 C619 0.930 . S
H612 C622 0.930 . S
H613 C623 0.930 . S
C614 H608 0.930 . S
C614 C615 1.355 . S
C614 C616 1.415 . S
C615 C614 1.355 . S
C615 C617 1.419 1_455 S
C616 C614 1.415 . S
C616 C621 1.425 1_455 S
C616 C623 1.409 . S
C617 H609 0.930 . S
C617 C615 1.419 1_655 S
C617 C618 1.362 . S
C618 H610 0.930 . S
C618 C617 1.362 . S
C618 C621 1.409 . S
C619 H611 0.930 . S
C619 C620 1.355 1_655 S
C619 C621 1.415 . S
C620 C619 1.355 1_455 S
C620 C622 1.419 . S
C621 C616 1.425 1_655 S
C621 C618 1.409 . S
C621 C619 1.415 . S
C622 H612 0.930 . S
C622 C620 1.419 . S
C622 C623 1.362 . S
C623 H613 0.930 . S
C623 C616 1.409 . S
C623 C622 1.362 . S
C343 C7 0.650 . S
C348 C325 0.664 . S
C359 C51 1.975 . S
C364 C253 1.910 . S
C375 C87 1.303 . S
C380 C289 1.260 . S
C391 C16 0.606 . S
C396 C301 0.465 . S
C412 C229 2.005 . S
C407 C42 2.094 . S
C428 C265 1.359 . S
C423 C96 1.309 . S
C439 C47 1.258 . S
C444 C181 1.248 . S
C455 C91 3.132 . S
C460 C193 3.079 . S
C471 C2 2.109 . S
C476 C121 2.041 . S
C492 C157 1.326 . S
C487 C56 1.332 . S
C508 C217 2.962 . S
C503 C82 3.055 . S
C519 C11 1.943 . S
C524 C145 1.901 . S
C540 C223 1.759 1_554 S
C535 C19 1.702 . S
C551 C50 1.312 . S
C556 C151 1.364 . S
C567 C99 1.444 . S
C572 C187 1.490 . S
C588 C295 1.459 . S
C583 C59 1.435 . S
C604 C331 1.094 . S
C599 C90 1.054 . S
C615 C10 1.350 . S
C620 C259 1.335 . S
