# Generated by pormake.
# Topology pts, (4,4)-cn, num edge types: 1
# Building blocks:
#     Node 0, Type 0, BuildingBlock: MUDLON_clean_linker_0, # of connection points: 4
#     Node 1, Type 0, BuildingBlock: MUDLON_clean_linker_0, # of connection points: 4
#     Node 2, Type 1, BuildingBlock: UXUYUI_clean_sbu_0, # of connection points: 4
#     Node 3, Type 1, BuildingBlock: UXUYUI_clean_sbu_0, # of connection points: 4
#     Edge 4, Type (0, 1), BuildingBlock: XUDNAN_clean_linker_2, # of connection points: 2
#     Edge 5, Type (0, 1), BuildingBlock: XUDNAN_clean_linker_2, # of connection points: 2
#     Edge 6, Type (0, 1), BuildingBlock: XUDNAN_clean_linker_2, # of connection points: 2
#     Edge 7, Type (0, 1), BuildingBlock: XUDNAN_clean_linker_2, # of connection points: 2
#     Edge 8, Type (0, 1), BuildingBlock: XUDNAN_clean_linker_2, # of connection points: 2
#     Edge 9, Type (0, 1), BuildingBlock: XUDNAN_clean_linker_2, # of connection points: 2
#     Edge 10, Type (0, 1), BuildingBlock: XUDNAN_clean_linker_2, # of connection points: 2
#     Edge 11, Type (0, 1), BuildingBlock: XUDNAN_clean_linker_2, # of connection points: 2
# Relax obj value: 0.012
# Max RMSD: 0.056
# Mean RMSD: 0.052
data_MOF--net-pts--node1-UXUYUI_clean_sbu_0--node2-MUDLON_clean_linker_0--edge1-XUDNAN_clean_linker_2
_symmetry_space_group_name_H-M    P1
_symmetry_Int_Tables_number       1
_symmetry_cell_setting            triclinic
loop_
_symmetry_equiv_pos_as_xyz
'x, y, z'
_cell_length_a     40.272112
_cell_length_b     40.322085
_cell_length_c     51.801214
_cell_angle_alpha  90.109271
_cell_angle_beta   90.049834
_cell_angle_gamma 89.965678
loop_
_atom_site_label
_atom_site_type_symbol
_atom_site_fract_x
_atom_site_fract_y
_atom_site_fract_z
_atom_type_partial_charge
H0 H 0.6606 0.02018 0.02693 0.0
N1 N 0.62434 0.96915 0.00618 0.0
H2 H 0.6997 0.01594 0.06263 0.0
H3 H 0.62924 0.91942 0.03967 0.0
H4 H 0.66693 0.91543 0.07661 0.0
H5 H 0.66553 0.92916 0.98108 0.0
H6 H 0.70706 0.94439 0.949 0.0
H7 H 0.62977 0.02983 0.98284 0.0
H8 H 0.67012 0.04516 0.94972 0.0
H9 H 0.59627 0.01698 0.03772 0.0
H10 H 0.57598 0.95003 0.97462 0.0
H11 H 0.53853 0.03372 0.03843 0.0
H12 H 0.51843 0.96873 0.9737 0.0
H13 H 0.34709 0.08336 0.03665 0.0
H14 H 0.30634 0.06806 0.06958 0.0
H15 H 0.34048 0.96658 0.06596 0.0
H16 H 0.38043 0.98181 0.03294 0.0
H17 H 0.34506 0.99356 0.99129 0.0
H18 H 0.3068 0.9981 0.9553 0.0
H19 H 0.34938 0.09334 0.93572 0.0
H20 H 0.3855 0.08972 0.97347 0.0
H21 H 0.43847 0.07926 0.02162 0.0
H22 H 0.49688 0.06342 0.01941 0.0
H23 H 0.46793 0.96536 0.99369 0.0
N24 N 0.38583 0.04297 0.00957 0.0
H25 H 0.40996 0.9827 0.99387 0.0
C26 C 0.64246 0.96974 0.03028 0.0
C27 C 0.66159 0.99734 0.03781 0.0
C28 C 0.6838 0.99495 0.05849 0.0
C29 C 0.68703 0.9651 0.07231 0.0
C30 C 0.66584 0.9385 0.06598 0.0
C31 C 0.64398 0.94079 0.04507 0.0
C32 C 0.64451 0.97818 0.98426 0.0
C33 C 0.66607 0.95437 0.9739 0.0
C34 C 0.68972 0.96317 0.95546 0.0
C35 C 0.69217 0.99611 0.94674 0.0
C36 C 0.6694 0.0197 0.95628 0.0
C37 C 0.64597 0.0109 0.975 0.0
C38 C 0.59063 0.98165 0.00626 0.0
C39 C 0.57957 0.00602 0.02377 0.0
C40 C 0.54627 0.01597 0.02395 0.0
C41 C 0.5233 1.00258 0.00619 0.0
C42 C 0.53484 0.97906 0.98817 0.0
C43 C 0.56792 0.96856 0.98843 0.0
C44 C 0.3669 0.03398 0.0322 0.0
C45 C 0.34629 0.058 0.04346 0.0
C46 C 0.32306 0.0492 0.06229 0.0
C47 C 0.31994 0.01601 0.07019 0.0
C48 C 0.34192 0.99227 0.05999 0.0
C49 C 0.36513 1.00109 0.04117 0.0
C50 C 0.36752 0.04191 0.9856 0.0
C51 C 0.34621 0.01544 0.97931 0.0
C52 C 0.32445 0.01795 0.95834 0.0
C53 C 0.3242 0.0465 0.94269 0.0
C54 C 0.34776 0.07153 0.94779 0.0
C55 C 0.36884 0.06937 0.96917 0.0
C56 C 0.41991 0.0321 0.00839 0.0
C57 C 0.44493 0.0544 0.01546 0.0
C58 C 0.47834 0.04509 0.01439 0.0
C59 C 0.48755 0.01286 0.00663 0.0
C60 C 0.46218 0.99053 0.99943 0.0
C61 C 0.4288 1.0002 0.99992 0.0
H62 H 0.93293 0.66454 0.54016 0.0
N63 N 0.97248 0.62984 0.50932 0.0
H64 H 0.94896 0.70671 0.57158 0.0
H65 H 0.03588 0.64197 0.52624 0.0
H66 H 0.05235 0.68234 0.55883 0.0
H67 H 0.02964 0.63214 0.48081 0.0
H68 H 0.04001 0.66755 0.44336 0.0
H69 H 0.9288 0.66756 0.48448 0.0
H70 H 0.93858 0.70242 0.44661 0.0
H71 H 0.95607 0.58599 0.47244 0.0
H72 H 0.00536 0.59205 0.54657 0.0
H73 H 0.96758 0.52673 0.47092 0.0
H74 H 0.0168 0.53321 0.54476 0.0
H75 H 0.96661 0.39004 0.53924 0.0
H76 H 0.95501 0.35329 0.57541 0.0
H77 H 0.04781 0.30224 0.56175 0.0
H78 H 0.05976 0.34007 0.52625 0.0
H79 H 0.05709 0.3648 0.46655 0.0
H80 H 0.04386 0.32151 0.43485 0.0
H81 H 0.94383 0.3167 0.46457 0.0
H82 H 0.95732 0.35911 0.49631 0.0
H83 H 0.96079 0.41647 0.49256 0.0
H84 H 0.95049 0.47588 0.49363 0.0
H85 H 0.05085 0.49256 0.52006 0.0
N86 N 0.01926 0.38475 0.50574 0.0
H87 H 0.06107 0.43263 0.519 0.0
C88 C 0.98301 0.64981 0.53106 0.0
C89 C 0.959 0.66796 0.54458 0.0
C90 C 0.96832 0.69205 0.56263 0.0
C91 C 1.00208 0.69831 0.56782 0.0
C92 C 0.02614 0.67895 0.55501 0.0
C93 C 0.01678 0.65543 0.53653 0.0
C94 C 0.97838 0.64739 0.48547 0.0
C95 C 0.00963 0.64726 0.47334 0.0
C96 C 0.01544 0.66737 0.45183 0.0
C97 C 0.99018 0.68802 0.44211 0.0
C98 C 0.95872 0.68725 0.45386 0.0
C99 C 0.95296 0.66717 0.47532 0.0
C100 C 0.98124 0.59474 0.50883 0.0
C101 C 0.96996 0.57497 0.48815 0.0
C102 C 0.9762 0.54089 0.4874 0.0
C103 C 0.99351 0.52533 0.50756 0.0
C104 C 1.00416 0.54464 0.52859 0.0
C105 C 0.99773 0.57875 0.52946 0.0
C106 C 0.01428 0.3679 0.53001 0.0
C107 C 0.98495 0.37164 0.54447 0.0
C108 C 0.97813 0.35025 0.56502 0.0
C109 C 1.00024 0.32444 0.57135 0.0
C110 C 0.03034 0.32198 0.55771 0.0
C111 C 0.03724 0.34355 0.53735 0.0
C112 C 0.00839 0.36534 0.48382 0.0
C113 C 0.03205 0.3551 0.46563 0.0
C114 C 0.02443 0.33038 0.44756 0.0
C115 C 0.99291 0.31538 0.44747 0.0
C116 C 0.96848 0.32743 0.46443 0.0
C117 C 0.97611 0.35204 0.48246 0.0
C118 C 0.01204 0.41987 0.50548 0.0
C119 C 0.98078 0.43264 0.49839 0.0
C120 C 0.97487 0.46682 0.49897 0.0
C121 C 0.99988 0.48899 0.50685 0.0
C122 C 0.03098 0.47616 0.51409 0.0
C123 C 0.03693 0.44199 0.51335 0.0
Li124 Li 1.00426 0.03466 0.27282 0.0
Li125 Li 0.00624 0.97287 0.27253 0.0
Li126 Li 0.0341 0.00462 0.24035 0.0
Li127 Li 0.97475 1.00159 0.2386 0.0
C128 C 0.07516 0.01581 0.27797 0.0
N129 N 0.14023 0.03731 0.27537 0.0
C130 C 0.10125 0.99307 0.27992 0.0
C131 C 0.0822 0.04949 0.27468 0.0
C132 C 0.13397 1.00443 0.27855 0.0
C133 C 0.11524 0.05987 0.27345 0.0
C134 C 0.95457 0.005 0.30135 0.0
C135 C 0.91011 0.0169 0.33115 0.0
N136 N 0.93122 0.01173 0.35125 0.0
C137 C 0.97581 0.99981 0.32232 0.0
C138 C 0.92145 0.01364 0.30578 0.0
C139 C 0.96355 1.00332 0.34739 0.0
C140 C 0.98409 0.09985 0.28801 0.0
N141 N 1.00159 0.0724 0.29493 0.0
C142 C 0.01306 0.09554 0.33646 0.0
C143 C 0.01654 0.07011 0.3184 0.0
C144 C 0.99463 0.12387 0.33008 0.0
C145 C 0.98056 0.12628 0.30536 0.0
H146 H 0.97236 0.10091 0.26924 0.0
H147 H 0.03056 0.04813 0.32331 0.0
C148 C 0.03608 0.91554 0.29346 0.0
N149 N 0.00723 0.93299 0.29263 0.0
C150 C 0.03795 0.8858 0.30718 0.0
C151 C 0.9801 0.89208 0.31848 0.0
C152 C 0.97935 0.92165 0.30451 0.0
C153 C 0.00971 0.87375 0.32002 0.0
H154 H 0.05757 0.92455 0.2832 0.0
H155 H 0.95634 0.93527 0.30289 0.0
C156 C 0.0119 0.06046 0.21466 0.0
N157 N 0.03204 0.09773 0.17283 0.0
C158 C 0.01112 0.04684 0.18984 0.0
C159 C 0.02275 0.09307 0.21822 0.0
C160 C 0.02148 0.06607 0.16894 0.0
C161 C 0.03286 0.11151 0.19682 0.0
C162 C 0.99001 0.93569 0.22998 0.0
C163 C 1.00328 0.91204 0.21313 0.0
C164 C 0.95922 0.92985 0.24159 0.0
C165 C 0.98559 0.88291 0.20824 0.0
C166 C 0.9423 0.90042 0.2362 0.0
N167 N 0.95572 0.87774 0.21978 0.0
C168 C 0.08483 0.97291 0.21353 0.0
C169 C 0.08935 0.03131 0.21069 0.0
C170 C 0.11249 0.96882 0.19765 0.0
N171 N 0.0734 1.00374 0.21932 0.0
C172 C 0.11688 0.02839 0.19442 0.0
C173 C 0.12858 0.99677 0.18736 0.0
H174 H 0.07237 0.95141 0.22131 0.0
H175 H 0.08071 0.05562 0.21623 0.0
C176 C 0.90632 0.00893 0.22446 0.0
N177 N 0.93678 0.99845 0.21657 0.0
C178 C 0.87825 1.00275 0.20921 0.0
C179 C 0.91369 0.97602 0.17781 0.0
C180 C 0.94096 0.9829 0.1935 0.0
C181 C 0.88173 0.98538 0.18583 0.0
H182 H 0.9037 0.02124 0.2429 0.0
H183 H 0.96541 0.97478 0.18765 0.0
O184 O 0.0429 0.00515 0.27845 0.0
O185 O 0.96617 1.00227 0.27661 0.0
O186 O 1.00198 0.04209 0.23539 0.0
O187 O 0.00714 0.96438 0.23483 0.0
H188 H 0.09637 0.96692 0.28229 0.0
H189 H 0.06238 0.0674 0.2726 0.0
H190 H 0.15439 0.98708 0.27994 0.0
H191 H 0.12101 0.08583 0.27077 0.0
H192 H 0.88454 0.0236 0.33485 0.0
H193 H 1.00155 0.99322 0.3193 0.0
H194 H 0.90466 0.01785 0.28981 0.0
H195 H 0.97974 0.99941 0.36377 0.0
H196 H 0.02437 0.09298 0.35534 0.0
H197 H 0.96603 0.14778 0.29992 0.0
H198 H 0.06132 0.87254 0.30788 0.0
H199 H 0.95753 0.88337 0.32757 0.0
H200 H 1.00308 0.02157 0.18682 0.0
H201 H 0.02358 0.10392 0.23734 0.0
H202 H 0.02121 0.05579 0.14964 0.0
H203 H 0.04143 0.13674 0.19928 0.0
H204 H 0.02698 0.91619 0.20385 0.0
H205 H 0.94834 0.94785 0.25453 0.0
H206 H 0.99559 0.86441 0.19524 0.0
H207 H 0.91847 0.89563 0.24505 0.0
H208 H 0.12111 0.94395 0.1935 0.0
H209 H 0.12829 0.05072 0.18701 0.0
H210 H 0.854 0.01029 0.2161 0.0
H211 H 0.91753 0.96302 0.15974 0.0
Li212 Li 0.97644 0.00771 0.77525 0.0
Li213 Li 0.0408 0.01455 0.77199 0.0
Li214 Li 1.00169 0.03857 0.74024 0.0
Li215 Li 0.01022 0.98136 0.74103 0.0
C216 C 1.00024 0.08143 0.77991 0.0
N217 N 0.99119 0.14929 0.78243 0.0
C218 C 0.02619 0.10284 0.77345 0.0
C219 C 0.96973 0.09452 0.78779 0.0
C220 C 0.0211 0.13708 0.77478 0.0
C221 C 0.96564 0.1289 0.78893 0.0
C222 C 0.01319 0.94076 0.78098 0.0
C223 C 0.04199 0.88866 0.78546 0.0
N224 N 0.01271 0.87231 0.78238 0.0
C225 C 0.98335 0.92349 0.77801 0.0
C226 C 0.04275 0.92329 0.78484 0.0
C227 C 0.98364 0.88886 0.77871 0.0
C228 C 0.91072 0.99256 0.79197 0.0
N229 N 0.94058 0.00545 0.799 0.0
C230 C 0.91895 0.02171 0.84003 0.0
C231 C 0.94532 0.01919 0.82267 0.0
C232 C 0.88733 0.01001 0.83295 0.0
C233 C 0.88357 0.99466 0.80872 0.0
H234 H 0.90774 0.98154 0.77306 0.0
H235 H 0.96943 0.02907 0.82776 0.0
C236 C 0.10218 0.04438 0.78354 0.0
N237 N 0.08017 0.02108 0.79163 0.0
C238 C 0.13054 0.05127 0.7981 0.0
C239 C 0.11374 0.00915 0.82857 0.0
C240 C 0.08544 1.00336 0.81356 0.0
C241 C 0.13645 0.03373 0.82105 0.0
H242 H 0.09758 0.05776 0.76583 0.0
H243 H 0.0674 0.98509 0.8196 0.0
C244 C 0.94579 0.01641 0.71991 0.0
N245 N 0.90408 0.04324 0.68305 0.0
C246 C 0.95411 0.01455 0.69376 0.0
C247 C 0.91607 0.03162 0.72729 0.0
C248 C 0.93277 0.02836 0.67543 0.0
C249 C 0.89535 0.0451 0.70837 0.0
C250 C 0.06598 1.00216 0.7171 0.0
C251 C 0.05762 0.99992 0.69097 0.0
C252 C 0.09674 0.99025 0.72554 0.0
C253 C 0.0799 0.98517 0.67377 0.0
C254 C 0.11837 0.97573 0.70773 0.0
N255 N 0.10955 0.97346 0.68244 0.0
C256 C 0.01899 0.08544 0.70166 0.0
C257 C 0.96751 0.09627 0.72208 0.0
C258 C 0.01519 0.11339 0.68601 0.0
N259 N 0.99517 0.07727 0.71912 0.0
C260 C 0.96269 0.12437 0.70686 0.0
C261 C 0.98662 0.13319 0.68841 0.0
H262 H 0.04098 0.07027 0.69988 0.0
H263 H 0.94918 0.08975 0.73637 0.0
C264 C 0.98727 0.9312 0.70658 0.0
N265 N 0.01392 0.94146 0.72064 0.0
C266 C 0.98979 0.90355 0.69037 0.0
C267 C 0.04677 0.89685 0.70399 0.0
C268 C 0.04301 0.92431 0.72016 0.0
C269 C 0.02008 0.88645 0.68855 0.0
H270 H 0.96415 0.94473 0.70769 0.0
H271 H 0.06351 0.93213 0.73212 0.0
O272 O 1.00459 0.04784 0.77834 0.0
O273 O 0.01346 0.9746 0.77972 0.0
O274 O 0.96656 1.00327 0.73816 0.0
O275 O 0.04445 0.01642 0.73428 0.0
H276 H 0.04984 0.09315 0.76709 0.0
H277 H 0.94925 0.07834 0.7926 0.0
H278 H 0.0409 0.15394 0.76965 0.0
H279 H 0.94211 0.13937 0.79485 0.0
H280 H 0.06469 0.87478 0.78827 0.0
H281 H 0.9603 0.93671 0.77488 0.0
H282 H 0.06607 0.93634 0.78699 0.0
H283 H 0.96078 0.87513 0.77628 0.0
H284 H 0.92325 0.03305 0.8587 0.0
H285 H 0.85967 0.98542 0.80237 0.0
H286 H 0.14765 0.07015 0.79152 0.0
H287 H 0.1173 0.99532 0.84627 0.0
H288 H 0.97682 1.00259 0.68769 0.0
H289 H 0.90936 0.03366 0.74743 0.0
H290 H 0.939 0.02723 0.65514 0.0
H291 H 0.87242 0.05719 0.71383 0.0
H292 H 0.03418 0.00943 0.68403 0.0
H293 H 0.10365 0.99169 0.74569 0.0
H294 H 0.07364 0.98307 0.65352 0.0
H295 H 0.14212 0.96616 0.71403 0.0
H296 H 0.03418 0.1191 0.67192 0.0
H297 H 0.94057 0.13921 0.70971 0.0
H298 H 0.96861 0.89627 0.67877 0.0
H299 H 0.07036 0.88394 0.7035 0.0
H300 H 0.29581 0.04757 0.11364 0.0
H301 H 0.28012 0.96171 0.06443 0.0
H302 H 0.23118 0.94624 0.09024 0.0
H303 H 0.26959 0.00829 0.17403 0.0
H304 H 0.24958 0.0453 0.1859 0.0
H305 H 0.28473 0.04854 0.16456 0.0
H306 H 0.24983 0.0845 0.13323 0.0
H307 H 0.21454 0.08121 0.15438 0.0
H308 H 0.21097 0.06868 0.12108 0.0
H309 H 0.1817 0.94236 0.11899 0.0
H310 H 0.13605 0.94886 0.15008 0.0
H311 H 0.18444 0.03616 0.18196 0.0
C312 C 0.28221 0.02539 0.10843 0.0
C313 C 0.29201 0.00571 0.08711 0.0
C314 C 0.27354 0.97683 0.08095 0.0
C315 C 0.24555 0.96794 0.09539 0.0
C316 C 0.23637 0.98806 0.11606 0.0
C317 C 0.25424 0.01603 0.12274 0.0
C318 C 0.23848 0.03375 0.14549 0.0
C319 C 0.262 0.03397 0.16888 0.0
C320 C 0.22782 0.06913 0.13809 0.0
C321 C 0.20864 0.01168 0.1502 0.0
C322 C 0.20797 0.98547 0.13302 0.0
C323 C 0.18222 0.96247 0.13285 0.0
C324 C 0.15647 0.96629 0.15077 0.0
C325 C 0.15663 0.9928 0.16882 0.0
C326 C 0.18329 0.01569 0.16844 0.0
H327 H 0.04046 0.2921 0.60647 0.0
H328 H 0.93875 0.29688 0.57872 0.0
H329 H 0.9237 0.2507 0.60742 0.0
H330 H 0.04532 0.2047 0.608 0.0
H331 H 0.07048 0.20279 0.63676 0.0
H332 H 0.07278 0.2385 0.61603 0.0
H333 H 0.05841 0.27687 0.65463 0.0
H334 H 0.05627 0.24128 0.67553 0.0
H335 H 0.02136 0.26911 0.67316 0.0
H336 H 0.92036 0.20149 0.63672 0.0
H337 H 0.92892 0.15317 0.66511 0.0
H338 H 0.03291 0.17953 0.67335 0.0
C339 C 0.01496 0.28363 0.60652 0.0
C340 C 0.99077 0.29848 0.59042 0.0
C341 C 0.95764 0.28658 0.59124 0.0
C342 C 0.94886 0.26012 0.60736 0.0
C343 C 0.97344 0.24572 0.62257 0.0
C344 C 0.00578 0.25711 0.62239 0.0
C345 C 0.02776 0.23625 0.63973 0.0
C346 C 0.05573 0.21958 0.62419 0.0
C347 C 0.04177 0.25713 0.66209 0.0
C348 C 1.00281 0.21103 0.64932 0.0
C349 C 0.97158 0.21709 0.63933 0.0
C350 C 0.94463 0.19669 0.64489 0.0
C351 C 0.94971 0.16938 0.66113 0.0
C352 C 0.98154 0.1626 0.67159 0.0
C353 C 0.00834 0.18387 0.66555 0.0
H354 H 0.71268 0.011 0.10693 0.0
H355 H 0.72474 0.90948 0.08018 0.0
H356 H 0.77297 0.90286 0.10874 0.0
H357 H 0.79817 0.0301 0.10772 0.0
H358 H 0.79649 0.05577 0.13621 0.0
H359 H 0.76044 0.05179 0.11589 0.0
H360 H 0.72575 0.03221 0.15509 0.0
H361 H 0.76172 0.03623 0.17559 0.0
H362 H 0.73985 0.9973 0.17385 0.0
H363 H 0.82234 0.90809 0.13714 0.0
H364 H 0.86964 0.92481 0.16445 0.0
H365 H 0.82749 0.02341 0.17223 0.0
C366 C 0.72525 0.98727 0.1072 0.0
C367 C 0.71442 0.96065 0.09141 0.0
C368 C 0.73175 0.93003 0.09249 0.0
C369 C 0.75945 0.92606 0.10854 0.0
C370 C 0.7697 0.95289 0.12346 0.0
C371 C 0.75314 0.98289 0.12306 0.0
C372 C 0.77055 0.00828 0.13998 0.0
C373 C 0.7821 0.03825 0.12399 0.0
C374 C 0.74813 0.01914 0.16246 0.0
C375 C 0.79981 0.98798 0.14951 0.0
C376 C 0.79864 0.95605 0.13983 0.0
C377 C 0.82346 0.93295 0.14498 0.0
C378 C 0.85033 0.94276 0.16035 0.0
C379 C 0.85231 0.97543 0.17036 0.0
C380 C 0.82645 0.99819 0.16507 0.0
H381 H 0.96975 0.72218 0.61131 0.0
H382 H 0.05672 0.73892 0.56339 0.0
H383 H 0.07225 0.78629 0.59071 0.0
H384 H 0.94945 0.80769 0.61812 0.0
H385 H 0.93488 0.80389 0.65088 0.0
H386 H 0.93216 0.76903 0.62921 0.0
H387 H 0.96552 0.73306 0.66153 0.0
H388 H 0.96833 0.76782 0.68333 0.0
H389 H 0.00556 0.74716 0.6726 0.0
H390 H 0.07765 0.83316 0.62218 0.0
H391 H 0.07099 0.87772 0.65457 0.0
H392 H 0.97864 0.83328 0.68014 0.0
C393 C 0.99206 0.73571 0.60643 0.0
C394 C 0.01214 0.7262 0.58521 0.0
C395 C 0.04128 0.74477 0.57987 0.0
C396 C 0.05024 0.77204 0.59518 0.0
C397 C 0.02971 0.78081 0.61567 0.0
C398 C 1.00112 0.76336 0.62125 0.0
C399 C 0.9824 0.77916 0.64349 0.0
C400 C 0.94767 0.79062 0.6349 0.0
C401 C 0.98034 0.75538 0.66661 0.0
C402 C 1.00479 0.80841 0.64935 0.0
C403 C 0.03216 0.80864 0.63327 0.0
C404 C 0.05638 0.8332 0.63493 0.0
C405 C 0.05246 0.85831 0.65343 0.0
C406 C 0.02435 0.85888 0.66985 0.0
C407 C 1.00027 0.83353 0.66774 0.0
H408 H 0.2927 0.99887 0.91248 0.0
H409 H 0.29485 0.10501 0.92761 0.0
H410 H 0.24998 0.11312 0.89622 0.0
H411 H 0.27136 1.00258 0.84439 0.0
H412 H 0.24346 0.96771 0.84606 0.0
H413 H 0.27835 0.97026 0.86778 0.0
H414 H 0.23865 0.96478 0.90686 0.0
H415 H 0.20365 0.96228 0.88529 0.0
H416 H 0.20456 0.99347 0.91026 0.0
H417 H 0.20339 0.11006 0.86453 0.0
H418 H 0.15652 0.0954 0.83594 0.0
H419 H 0.18123 0.99115 0.84371 0.0
C420 C 0.28389 0.02388 0.9093 0.0
C421 C 0.29806 0.05129 0.92248 0.0
C422 C 0.28551 0.08355 0.91736 0.0
C423 C 0.25966 0.08848 0.89966 0.0
C424 C 0.24614 0.06093 0.88736 0.0
C425 C 0.25763 0.02923 0.89203 0.0
C426 C 0.23729 1.00371 0.87739 0.0
C427 C 0.25891 0.98497 0.85774 0.0
C428 C 0.22001 0.97965 0.89607 0.0
C429 C 0.21239 0.02606 0.864 0.0
C430 C 0.21826 0.05901 0.86978 0.0
C431 C 0.1986 0.08435 0.85978 0.0
C432 C 0.17214 0.07581 0.84351 0.0
C433 C 0.16532 0.04219 0.8376 0.0
C434 C 0.18579 0.01704 0.84802 0.0
H435 H 0.01009 0.30238 0.39675 0.0
H436 H 0.96285 0.2588 0.46392 0.0
H437 H 0.95568 0.2063 0.44025 0.0
H438 H 0.95828 0.2601 0.34835 0.0
H439 H 0.99223 0.25442 0.32612 0.0
H440 H 0.99198 0.28949 0.34775 0.0
H441 H 0.04971 0.27218 0.36525 0.0
H442 H 0.0501 0.23704 0.34376 0.0
H443 H 0.05542 0.23098 0.37798 0.0
H444 H 0.95779 0.15735 0.41117 0.0
H445 H 0.96628 0.11533 0.37699 0.0
H446 H 0.01029 0.19012 0.32771 0.0
C447 C 0.99796 0.28186 0.40634 0.0
C448 C 0.9867 0.28484 0.43211 0.0
C449 C 0.97104 0.25738 0.44403 0.0
C450 C 0.96703 0.22735 0.43081 0.0
C451 C 0.9786 0.22514 0.40557 0.0
C452 C 0.99346 0.25167 0.3933 0.0
C453 C 1.00431 0.24224 0.36621 0.0
C454 C 0.98557 0.26279 0.34591 0.0
C455 C 0.04213 0.24582 0.36314 0.0
C456 C 0.99379 0.20613 0.36543 0.0
C457 C 0.97906 0.19685 0.3884 0.0
C458 C 0.96886 0.16438 0.39297 0.0
C459 C 0.97387 0.14071 0.37354 0.0
C460 C 0.98866 0.14969 0.34981 0.0
C461 C 0.99847 0.18287 0.3456 0.0
H462 H 0.72029 0.96028 0.90679 0.0
H463 H 0.72779 0.0542 0.94765 0.0
H464 H 0.77632 0.06908 0.92126 0.0
H465 H 0.80667 0.94466 0.90499 0.0
H466 H 0.80625 0.92576 0.87343 0.0
H467 H 0.76989 0.9238 0.89356 0.0
H468 H 0.73477 0.95065 0.85723 0.0
H469 H 0.77103 0.95261 0.83693 0.0
H470 H 0.74764 0.98975 0.8437 0.0
H471 H 0.82602 0.07253 0.89237 0.0
H472 H 0.87322 0.06446 0.86277 0.0
H473 H 0.83559 0.96687 0.84254 0.0
C474 C 0.73198 0.98406 0.91018 0.0
C475 C 0.71984 0.00612 0.92928 0.0
C476 C 0.73593 0.0371 0.93282 0.0
C477 C 0.76376 0.04571 0.91804 0.0
C478 C 0.77537 0.0231 0.8998 0.0
C479 C 0.75998 0.99294 0.89578 0.0
C480 C 0.77848 0.97241 0.87589 0.0
C481 C 0.79107 0.93973 0.88768 0.0
C482 C 0.75668 0.96599 0.85202 0.0
C483 C 0.80695 0.99558 0.86965 0.0
C484 C 0.80452 0.02478 0.88352 0.0
C485 C 0.82819 0.04977 0.8814 0.0
C486 C 0.8551 0.04479 0.86469 0.0
C487 C 0.85836 0.01491 0.85041 0.0
C488 C 0.83373 0.99012 0.85293 0.0
H489 H 0.96965 0.75256 0.43751 0.0
H490 H 0.02612 0.6762 0.3979 0.0
H491 H 0.03779 0.71543 0.3624 0.0
H492 H 0.93198 0.78793 0.38083 0.0
H493 H 0.93425 0.82984 0.39287 0.0
H494 H 0.93067 0.79574 0.4151 0.0
H495 H 0.98399 0.81533 0.43866 0.0
H496 H 0.98777 0.84946 0.41649 0.0
H497 H 0.02176 0.82083 0.42051 0.0
H498 H 0.04298 0.76331 0.33111 0.0
H499 H 0.0411 0.81573 0.30651 0.0
H500 H 0.98116 0.86031 0.36694 0.0
C501 C 0.98415 0.7439 0.42124 0.0
C502 C 0.99688 0.71123 0.42046 0.0
C503 C 0.01635 0.70118 0.39904 0.0
C504 C 0.02297 0.72323 0.37874 0.0
C505 C 0.00999 0.75525 0.38017 0.0
C506 C 0.99098 0.76552 0.40088 0.0
C507 C 0.98005 0.80124 0.39789 0.0
C508 C 0.94198 0.80382 0.39659 0.0
C509 C 0.99425 0.82299 0.41968 0.0
C510 C 0.99578 0.80947 0.37218 0.0
C511 C 0.01299 0.78267 0.36226 0.0
C512 C 0.02964 0.78446 0.33873 0.0
C513 C 0.02859 0.81441 0.32498 0.0
C514 C 0.01099 0.84218 0.33478 0.0
C515 C 0.99447 0.83947 0.35874 0.0
loop_
_geom_bond_atom_site_label_1
_geom_bond_atom_site_label_2
_geom_bond_distance
_geom_bond_site_symmetry_2
_ccdc_geom_bond_type
H0 C27 0.929 . S
N1 C26 1.433 . S
N1 C32 1.435 1_554 S
N1 C38 1.423 1_554 S
H2 C28 0.930 . S
H3 C31 0.931 . S
H4 C30 0.929 . S
H5 C33 0.930 . S
H6 C34 0.932 . S
H7 C37 0.929 . S
H8 C36 0.931 . S
H9 C39 0.929 . S
H10 C43 0.932 1_565 S
H11 C40 0.931 . S
H12 C42 0.929 1_565 S
H13 C45 0.929 . S
H14 C46 0.930 . S
H15 C48 0.929 . S
H16 C49 0.931 . S
H17 C51 0.930 . S
H18 C52 0.932 . S
H19 C54 0.931 . S
H20 C55 0.929 . S
H21 C57 0.929 . S
H22 C58 0.931 . S
H23 C60 0.929 1_565 S
N24 C44 1.433 . S
N24 C50 1.435 1_554 S
N24 C56 1.423 1_554 S
H25 C61 0.932 1_565 S
C26 N1 1.433 . S
C26 C27 1.363 . S
C26 C31 1.370 1_545 S
C27 H0 0.929 . S
C27 C26 1.363 . S
C27 C28 1.385 . S
C28 H2 0.930 . S
C28 C27 1.385 . S
C28 C29 1.357 . S
C29 C28 1.357 . S
C29 C30 1.406 1_545 S
C30 H4 0.929 . S
C30 C29 1.406 1_565 S
C30 C31 1.391 . S
C31 H3 0.931 . S
C31 C26 1.370 1_565 S
C31 C30 1.391 . S
C32 N1 1.435 1_556 S
C32 C33 1.358 1_545 S
C32 C37 1.371 . S
C33 H5 0.930 . S
C33 C32 1.358 1_565 S
C33 C34 1.405 . S
C34 H6 0.932 . S
C34 C33 1.405 . S
C34 C35 1.383 1_565 S
C35 C34 1.383 1_545 S
C35 C36 1.393 . S
C36 H8 0.931 . S
C36 C35 1.393 . S
C36 C37 1.382 . S
C37 H7 0.929 . S
C37 C32 1.371 . S
C37 C36 1.382 . S
C38 N1 1.423 1_556 S
C38 C39 1.362 1_556 S
C38 C43 1.388 . S
C39 H9 0.929 . S
C39 C38 1.362 1_554 S
C39 C40 1.376 . S
C40 H11 0.931 . S
C40 C39 1.376 . S
C40 C41 1.396 1_554 S
C41 C40 1.396 1_556 S
C41 C42 1.348 . S
C41 C59 1.472 . S
C42 H12 0.929 1_545 S
C42 C41 1.348 . S
C42 C43 1.443 . S
C43 H10 0.932 1_545 S
C43 C38 1.388 . S
C43 C42 1.443 . S
C44 N24 1.433 . S
C44 C45 1.363 . S
C44 C49 1.370 1_545 S
C45 H13 0.929 . S
C45 C44 1.363 . S
C45 C46 1.385 . S
C46 H14 0.930 . S
C46 C45 1.385 . S
C46 C47 1.357 . S
C47 C46 1.357 . S
C47 C48 1.406 1_545 S
C48 H15 0.929 . S
C48 C47 1.406 1_565 S
C48 C49 1.391 . S
C49 H16 0.931 . S
C49 C44 1.370 1_565 S
C49 C48 1.391 . S
C50 N24 1.435 1_556 S
C50 C51 1.358 1_545 S
C50 C55 1.371 . S
C51 H17 0.930 . S
C51 C50 1.358 1_565 S
C51 C52 1.405 . S
C52 H18 0.932 . S
C52 C51 1.405 . S
C52 C53 1.383 1_565 S
C53 C52 1.383 1_545 S
C53 C54 1.393 . S
C54 H19 0.931 . S
C54 C53 1.393 . S
C54 C55 1.382 . S
C55 H20 0.929 . S
C55 C50 1.371 . S
C55 C54 1.382 . S
C56 N24 1.423 1_556 S
C56 C57 1.362 1_556 S
C56 C61 1.388 . S
C57 H21 0.929 . S
C57 C56 1.362 1_554 S
C57 C58 1.376 . S
C58 H22 0.931 . S
C58 C57 1.376 . S
C58 C59 1.396 1_554 S
C59 C41 1.472 . S
C59 C58 1.396 1_556 S
C59 C60 1.348 . S
C60 H23 0.929 1_545 S
C60 C59 1.348 . S
C60 C61 1.443 . S
C61 H25 0.932 1_545 S
C61 C56 1.388 . S
C61 C60 1.443 . S
H62 C89 0.929 . S
N63 C88 1.433 . S
N63 C94 1.435 . S
N63 C100 1.423 . S
H64 C90 0.930 . S
H65 C93 0.931 . S
H66 C92 0.929 . S
H67 C95 0.930 . S
H68 C96 0.932 . S
H69 C99 0.929 . S
H70 C98 0.931 . S
H71 C101 0.929 . S
H72 C105 0.932 1_455 S
H73 C102 0.931 . S
H74 C104 0.929 1_455 S
H75 C107 0.929 . S
H76 C108 0.930 . S
H77 C110 0.929 . S
H78 C111 0.931 . S
H79 C113 0.930 . S
H80 C114 0.932 . S
H81 C116 0.931 . S
H82 C117 0.929 . S
H83 C119 0.929 . S
H84 C120 0.931 . S
H85 C122 0.929 1_455 S
N86 C106 1.433 . S
N86 C112 1.435 . S
N86 C118 1.423 . S
H87 C123 0.932 1_455 S
C88 N63 1.433 . S
C88 C89 1.363 . S
C88 C93 1.370 1_655 S
C89 H62 0.929 . S
C89 C88 1.363 . S
C89 C90 1.385 . S
C90 H64 0.930 . S
C90 C89 1.385 . S
C90 C91 1.357 . S
C91 C90 1.357 . S
C91 C92 1.406 1_655 S
C92 H66 0.929 . S
C92 C91 1.406 1_455 S
C92 C93 1.391 . S
C93 H65 0.931 . S
C93 C88 1.370 1_455 S
C93 C92 1.391 . S
C94 N63 1.435 . S
C94 C95 1.358 1_655 S
C94 C99 1.371 . S
C95 H67 0.930 . S
C95 C94 1.358 1_455 S
C95 C96 1.405 . S
C96 H68 0.932 . S
C96 C95 1.405 . S
C96 C97 1.383 1_455 S
C97 C96 1.383 1_655 S
C97 C98 1.393 . S
C98 H70 0.931 . S
C98 C97 1.393 . S
C98 C99 1.382 . S
C99 H69 0.929 . S
C99 C94 1.371 . S
C99 C98 1.382 . S
C100 N63 1.423 . S
C100 C101 1.362 . S
C100 C105 1.388 . S
C101 H71 0.929 . S
C101 C100 1.362 . S
C101 C102 1.376 . S
C102 H73 0.931 . S
C102 C101 1.376 . S
C102 C103 1.396 . S
C103 C102 1.396 . S
C103 C104 1.348 . S
C103 C121 1.472 . S
C104 H74 0.929 1_655 S
C104 C103 1.348 . S
C104 C105 1.443 . S
C105 H72 0.932 1_655 S
C105 C100 1.388 . S
C105 C104 1.443 . S
C106 N86 1.433 . S
C106 C107 1.363 . S
C106 C111 1.370 1_655 S
C107 H75 0.929 . S
C107 C106 1.363 . S
C107 C108 1.385 . S
C108 H76 0.930 . S
C108 C107 1.385 . S
C108 C109 1.357 . S
C109 C108 1.357 . S
C109 C110 1.406 1_655 S
C110 H77 0.929 . S
C110 C109 1.406 1_455 S
C110 C111 1.391 . S
C111 H78 0.931 . S
C111 C106 1.370 1_455 S
C111 C110 1.391 . S
C112 N86 1.435 . S
C112 C113 1.358 1_655 S
C112 C117 1.371 . S
C113 H79 0.930 . S
C113 C112 1.358 1_455 S
C113 C114 1.405 . S
C114 H80 0.932 . S
C114 C113 1.405 . S
C114 C115 1.383 1_455 S
C115 C114 1.383 1_655 S
C115 C116 1.393 . S
C116 H81 0.931 . S
C116 C115 1.393 . S
C116 C117 1.382 . S
C117 H82 0.929 . S
C117 C112 1.371 . S
C117 C116 1.382 . S
C118 N86 1.423 . S
C118 C119 1.362 . S
C118 C123 1.388 . S
C119 H83 0.929 . S
C119 C118 1.362 . S
C119 C120 1.376 . S
C120 H84 0.931 . S
C120 C119 1.376 . S
C120 C121 1.396 . S
C121 C103 1.472 . S
C121 C120 1.396 . S
C121 C122 1.348 . S
C122 H85 0.929 1_655 S
C122 C121 1.348 . S
C122 C123 1.443 . S
C123 H87 0.932 1_655 S
C123 C118 1.388 . S
C123 C122 1.443 . S
Li124 N141 1.990 . S
Li124 O184 1.956 1_545 S
Li124 O185 1.970 1_455 S
Li124 O186 1.961 1_455 S
Li125 N149 1.990 . S
Li125 O184 1.970 1_655 S
Li125 O185 1.956 1_565 S
Li125 O187 1.961 1_655 S
Li126 N171 1.990 . S
Li126 O184 1.961 1_545 S
Li126 O186 1.956 1_455 S
Li126 O187 1.970 1_545 S
Li127 N177 1.990 . S
Li127 O185 1.961 1_565 S
Li127 O186 1.970 1_565 S
Li127 O187 1.956 1_655 S
C128 C130 1.348 1_545 S
C128 C131 1.356 . S
C128 O184 1.325 1_545 S
N129 C132 1.314 1_545 S
N129 C133 1.279 . S
C130 C128 1.348 1_565 S
C130 C132 1.353 . S
C130 H188 0.929 . S
C131 C128 1.356 . S
C131 C133 1.358 . S
C131 H189 0.930 . S
C132 N129 1.314 1_565 S
C132 C130 1.353 . S
C132 H190 0.930 . S
C133 N129 1.279 . S
C133 C131 1.358 . S
C133 H191 0.930 . S
C134 C137 1.348 . S
C134 C138 1.356 1_545 S
C134 O185 1.325 . S
C135 N136 1.279 . S
C135 C138 1.358 . S
C135 H192 0.930 . S
N136 C135 1.279 . S
N136 C139 1.314 1_565 S
C137 C134 1.348 . S
C137 C139 1.353 . S
C137 H193 0.929 . S
C138 C134 1.356 1_565 S
C138 C135 1.358 . S
C138 H194 0.930 . S
C139 N136 1.314 1_545 S
C139 C137 1.353 . S
C139 H195 0.930 . S
C140 N141 1.314 1_655 S
C140 C145 1.353 . S
C140 H146 0.930 . S
N141 Li124 1.990 . S
N141 C140 1.314 1_455 S
N141 C143 1.279 . S
C142 C143 1.358 . S
C142 C144 1.356 . S
C142 H196 0.930 . S
C143 N141 1.279 . S
C143 C142 1.358 . S
C143 H147 0.930 . S
C144 C142 1.356 . S
C144 C145 1.348 1_455 S
C145 C140 1.353 . S
C145 C144 1.348 1_655 S
C145 H197 0.929 . S
H146 C140 0.930 . S
H147 C143 0.930 . S
C148 N149 1.314 1_455 S
C148 C150 1.353 . S
C148 H154 0.930 . S
N149 Li125 1.990 . S
N149 C148 1.314 1_655 S
N149 C152 1.279 . S
C150 C148 1.353 . S
C150 C153 1.348 . S
C150 H198 0.929 . S
C151 C152 1.358 . S
C151 C153 1.356 1_655 S
C151 H199 0.930 . S
C152 N149 1.279 . S
C152 C151 1.358 . S
C152 H155 0.930 . S
C153 C150 1.348 . S
C153 C151 1.356 1_455 S
H154 C148 0.930 . S
H155 C152 0.930 . S
C156 C158 1.348 1_455 S
C156 C159 1.356 . S
C156 O186 1.325 1_455 S
N157 C160 1.314 1_455 S
N157 C161 1.279 . S
C158 C156 1.348 1_655 S
C158 C160 1.353 . S
C158 H200 0.929 . S
C159 C156 1.356 . S
C159 C161 1.358 . S
C159 H201 0.930 . S
C160 N157 1.314 1_655 S
C160 C158 1.353 . S
C160 H202 0.930 . S
C161 N157 1.279 . S
C161 C159 1.358 . S
C161 H203 0.930 . S
C162 C163 1.348 . S
C162 C164 1.356 1_455 S
C162 O187 1.325 . S
C163 C162 1.348 . S
C163 C165 1.353 . S
C163 H204 0.929 . S
C164 C162 1.356 1_655 S
C164 C166 1.358 . S
C164 H205 0.930 . S
C165 C163 1.353 . S
C165 N167 1.314 1_455 S
C165 H206 0.930 . S
C166 C164 1.358 . S
C166 N167 1.279 . S
C166 H207 0.930 . S
N167 C165 1.314 1_655 S
N167 C166 1.279 . S
C168 C170 1.353 . S
C168 N171 1.314 1_565 S
C168 H174 0.930 . S
C169 N171 1.279 . S
C169 C172 1.358 . S
C169 H175 0.930 . S
C170 C168 1.353 . S
C170 C173 1.348 1_565 S
C170 H208 0.929 . S
N171 Li126 1.990 . S
N171 C168 1.314 1_545 S
N171 C169 1.279 . S
C172 C169 1.358 . S
C172 C173 1.356 . S
C172 H209 0.930 . S
C173 C170 1.348 1_545 S
C173 C172 1.356 . S
H174 C168 0.930 . S
H175 C169 0.930 . S
C176 N177 1.314 1_545 S
C176 C178 1.353 . S
C176 H182 0.930 . S
N177 Li127 1.990 . S
N177 C176 1.314 1_565 S
N177 C180 1.279 . S
C178 C176 1.353 . S
C178 C181 1.348 . S
C178 H210 0.929 . S
C179 C180 1.358 . S
C179 C181 1.356 1_565 S
C179 H211 0.930 . S
C180 N177 1.279 . S
C180 C179 1.358 . S
C180 H183 0.930 . S
C181 C178 1.348 . S
C181 C179 1.356 1_545 S
H182 C176 0.930 . S
H183 C180 0.930 . S
O184 Li124 1.956 1_565 S
O184 Li125 1.970 1_455 S
O184 Li126 1.961 1_565 S
O184 C128 1.325 1_565 S
O185 Li124 1.970 1_655 S
O185 Li125 1.956 1_545 S
O185 Li127 1.961 1_545 S
O185 C134 1.325 . S
O186 Li124 1.961 1_655 S
O186 Li126 1.956 1_655 S
O186 Li127 1.970 1_545 S
O186 C156 1.325 1_655 S
O187 Li125 1.961 1_455 S
O187 Li126 1.970 1_565 S
O187 Li127 1.956 1_455 S
O187 C162 1.325 . S
H188 C130 0.929 . S
H189 C131 0.930 . S
H190 C132 0.930 . S
H191 C133 0.930 . S
H192 C135 0.930 . S
H193 C137 0.929 . S
H194 C138 0.930 . S
H195 C139 0.930 . S
H196 C142 0.930 . S
H197 C145 0.929 . S
H198 C150 0.929 . S
H199 C151 0.930 . S
H200 C158 0.929 . S
H201 C159 0.930 . S
H202 C160 0.930 . S
H203 C161 0.930 . S
H204 C163 0.929 . S
H205 C164 0.930 . S
H206 C165 0.930 . S
H207 C166 0.930 . S
H208 C170 0.929 . S
H209 C172 0.930 . S
H210 C178 0.929 . S
H211 C179 0.930 . S
Li212 N229 1.990 . S
Li212 O272 1.956 1_655 S
Li212 O273 1.970 1_545 S
Li212 O274 1.961 1_545 S
Li213 N237 1.990 . S
Li213 O272 1.970 1_565 S
Li213 O273 1.956 1_455 S
Li213 O275 1.961 1_565 S
Li214 N259 1.990 . S
Li214 O272 1.961 1_655 S
Li214 O274 1.956 1_545 S
Li214 O275 1.970 1_655 S
Li215 N265 1.990 . S
Li215 O273 1.961 1_455 S
Li215 O274 1.970 1_455 S
Li215 O275 1.956 1_565 S
C216 C218 1.348 . S
C216 C219 1.356 1_455 S
C216 O272 1.325 . S
N217 C220 1.314 1_655 S
N217 C221 1.279 . S
C218 C216 1.348 . S
C218 C220 1.353 . S
C218 H276 0.929 . S
C219 C216 1.356 1_655 S
C219 C221 1.358 . S
C219 H277 0.930 . S
C220 N217 1.314 1_455 S
C220 C218 1.353 . S
C220 H278 0.930 . S
C221 N217 1.279 . S
C221 C219 1.358 . S
C221 H279 0.930 . S
C222 C225 1.348 1_455 S
C222 C226 1.356 . S
C222 O273 1.325 1_455 S
C223 N224 1.279 . S
C223 C226 1.358 . S
C223 H280 0.930 . S
N224 C223 1.279 . S
N224 C227 1.314 1_455 S
C225 C222 1.348 1_655 S
C225 C227 1.353 . S
C225 H281 0.929 . S
C226 C222 1.356 . S
C226 C223 1.358 . S
C226 H282 0.930 . S
C227 N224 1.314 1_655 S
C227 C225 1.353 . S
C227 H283 0.930 . S
C228 N229 1.314 1_565 S
C228 C233 1.353 . S
C228 H234 0.930 . S
N229 Li212 1.990 . S
N229 C228 1.314 1_545 S
N229 C231 1.279 . S
C230 C231 1.358 . S
C230 C232 1.356 . S
C230 H284 0.930 . S
C231 N229 1.279 . S
C231 C230 1.358 . S
C231 H235 0.930 . S
C232 C230 1.356 . S
C232 C233 1.348 1_545 S
C233 C228 1.353 . S
C233 C232 1.348 1_565 S
C233 H285 0.929 . S
H234 C228 0.930 . S
H235 C231 0.930 . S
C236 N237 1.314 1_545 S
C236 C238 1.353 . S
C236 H242 0.930 . S
N237 Li213 1.990 . S
N237 C236 1.314 1_565 S
N237 C240 1.279 . S
C238 C236 1.353 . S
C238 C241 1.348 . S
C238 H286 0.929 . S
C239 C240 1.358 . S
C239 C241 1.356 1_565 S
C239 H287 0.930 . S
C240 N237 1.279 . S
C240 C239 1.358 . S
C240 H243 0.930 . S
C241 C238 1.348 . S
C241 C239 1.356 1_545 S
H242 C236 0.930 . S
H243 C240 0.930 . S
C244 C246 1.348 1_545 S
C244 C247 1.356 . S
C244 O274 1.325 1_545 S
N245 C248 1.314 1_545 S
N245 C249 1.279 . S
C246 C244 1.348 1_565 S
C246 C248 1.353 . S
C246 H288 0.929 . S
C247 C244 1.356 . S
C247 C249 1.358 . S
C247 H289 0.930 . S
C248 N245 1.314 1_565 S
C248 C246 1.353 . S
C248 H290 0.930 . S
C249 N245 1.279 . S
C249 C247 1.358 . S
C249 H291 0.930 . S
C250 C251 1.348 . S
C250 C252 1.356 1_545 S
C250 O275 1.325 . S
C251 C250 1.348 . S
C251 C253 1.353 . S
C251 H292 0.929 . S
C252 C250 1.356 1_565 S
C252 C254 1.358 . S
C252 H293 0.930 . S
C253 C251 1.353 . S
C253 N255 1.314 1_545 S
C253 H294 0.930 . S
C254 C252 1.358 . S
C254 N255 1.279 . S
C254 H295 0.930 . S
N255 C253 1.314 1_565 S
N255 C254 1.279 . S
C256 C258 1.353 . S
C256 N259 1.314 1_455 S
C256 H262 0.930 . S
C257 N259 1.279 . S
C257 C260 1.358 . S
C257 H263 0.930 . S
C258 C256 1.353 . S
C258 C261 1.348 . S
C258 H296 0.929 . S
N259 Li214 1.990 . S
N259 C256 1.314 1_655 S
N259 C257 1.279 . S
C260 C257 1.358 . S
C260 C261 1.356 1_655 S
C260 H297 0.930 . S
C261 C258 1.348 . S
C261 C260 1.356 1_455 S
H262 C256 0.930 . S
H263 C257 0.930 . S
C264 N265 1.314 1_655 S
C264 C266 1.353 . S
C264 H270 0.930 . S
N265 Li215 1.990 . S
N265 C264 1.314 1_455 S
N265 C268 1.279 . S
C266 C264 1.353 . S
C266 C269 1.348 1_655 S
C266 H298 0.929 . S
C267 C268 1.358 . S
C267 C269 1.356 . S
C267 H299 0.930 . S
C268 N265 1.279 . S
C268 C267 1.358 . S
C268 H271 0.930 . S
C269 C266 1.348 1_455 S
C269 C267 1.356 . S
H270 C264 0.930 . S
H271 C268 0.930 . S
O272 Li212 1.956 1_455 S
O272 Li213 1.970 1_545 S
O272 Li214 1.961 1_455 S
O272 C216 1.325 . S
O273 Li212 1.970 1_565 S
O273 Li213 1.956 1_655 S
O273 Li215 1.961 1_655 S
O273 C222 1.325 1_655 S
O274 Li212 1.961 1_565 S
O274 Li214 1.956 1_565 S
O274 Li215 1.970 1_655 S
O274 C244 1.325 1_565 S
O275 Li213 1.961 1_545 S
O275 Li214 1.970 1_455 S
O275 Li215 1.956 1_545 S
O275 C250 1.325 . S
H276 C218 0.929 . S
H277 C219 0.930 . S
H278 C220 0.930 . S
H279 C221 0.930 . S
H280 C223 0.930 . S
H281 C225 0.929 . S
H282 C226 0.930 . S
H283 C227 0.930 . S
H284 C230 0.930 . S
H285 C233 0.929 . S
H286 C238 0.929 . S
H287 C239 0.930 . S
H288 C246 0.929 . S
H289 C247 0.930 . S
H290 C248 0.930 . S
H291 C249 0.930 . S
H292 C251 0.929 . S
H293 C252 0.930 . S
H294 C253 0.930 . S
H295 C254 0.930 . S
H296 C258 0.929 . S
H297 C260 0.930 . S
H298 C266 0.929 . S
H299 C267 0.930 . S
H300 C312 0.930 . S
H301 C314 0.930 . S
H302 C315 0.930 . S
H303 C319 0.959 . S
H304 C319 0.959 . S
H305 C319 0.961 . S
H306 C320 0.960 . S
H307 C320 0.961 . S
H308 C320 0.959 . S
H309 C323 0.929 . S
H310 C324 0.931 . S
H311 C326 0.930 . S
C312 H300 0.930 . S
C312 C313 1.399 1_545 S
C312 C317 1.399 . S
C313 C312 1.399 1_565 S
C313 C314 1.376 . S
C314 H301 0.930 . S
C314 C313 1.376 . S
C314 C315 1.388 . S
C315 H302 0.930 . S
C315 C314 1.388 . S
C315 C316 1.390 . S
C316 C315 1.390 . S
C316 C317 1.394 1_565 S
C316 C322 1.465 . S
C317 C312 1.399 . S
C317 C316 1.394 1_545 S
C317 C318 1.516 . S
C318 C317 1.516 . S
C318 C319 1.502 . S
C318 C320 1.561 . S
C318 C321 1.526 . S
C319 H303 0.959 . S
C319 H304 0.959 . S
C319 H305 0.961 . S
C319 C318 1.502 . S
C320 H306 0.960 . S
C320 H307 0.961 . S
C320 H308 0.959 . S
C320 C318 1.561 . S
C321 C318 1.526 . S
C321 C322 1.396 1_545 S
C321 C326 1.390 . S
C322 C316 1.465 . S
C322 C321 1.396 1_565 S
C322 C323 1.399 . S
C323 H309 0.929 . S
C323 C322 1.399 . S
C323 C324 1.385 . S
C324 H310 0.931 . S
C324 C323 1.385 . S
C324 C325 1.389 . S
C325 C324 1.389 . S
C325 C326 1.387 1_565 S
C326 H311 0.930 . S
C326 C321 1.390 . S
C326 C325 1.387 1_545 S
H327 C339 0.930 . S
H328 C341 0.930 . S
H329 C342 0.930 . S
H330 C346 0.959 . S
H331 C346 0.959 . S
H332 C346 0.961 . S
H333 C347 0.960 1_455 S
H334 C347 0.961 1_455 S
H335 C347 0.959 . S
H336 C350 0.929 . S
H337 C351 0.931 . S
H338 C353 0.930 . S
C339 H327 0.930 . S
C339 C340 1.399 1_455 S
C339 C344 1.399 . S
C340 C339 1.399 1_655 S
C340 C341 1.376 . S
C341 H328 0.930 . S
C341 C340 1.376 . S
C341 C342 1.388 . S
C342 H329 0.930 . S
C342 C341 1.388 . S
C342 C343 1.390 . S
C343 C342 1.390 . S
C343 C344 1.394 1_655 S
C343 C349 1.465 . S
C344 C339 1.399 . S
C344 C343 1.394 1_455 S
C344 C345 1.516 . S
C345 C344 1.516 . S
C345 C346 1.502 . S
C345 C347 1.561 1_455 S
C345 C348 1.526 . S
C346 H330 0.959 . S
C346 H331 0.959 . S
C346 H332 0.961 . S
C346 C345 1.502 . S
C347 H333 0.960 1_655 S
C347 H334 0.961 1_655 S
C347 H335 0.959 . S
C347 C345 1.561 1_655 S
C348 C345 1.526 . S
C348 C349 1.396 1_455 S
C348 C353 1.390 . S
C349 C343 1.465 . S
C349 C348 1.396 1_655 S
C349 C350 1.399 . S
C350 H336 0.929 . S
C350 C349 1.399 . S
C350 C351 1.385 . S
C351 H337 0.931 . S
C351 C350 1.385 . S
C351 C352 1.389 . S
C352 C351 1.389 . S
C352 C353 1.387 1_655 S
C353 H338 0.930 . S
C353 C348 1.390 . S
C353 C352 1.387 1_455 S
H354 C366 0.930 . S
H355 C368 0.930 . S
H356 C369 0.930 . S
H357 C373 0.959 . S
H358 C373 0.959 . S
H359 C373 0.961 . S
H360 C374 0.960 . S
H361 C374 0.961 . S
H362 C374 0.959 . S
H363 C377 0.929 . S
H364 C378 0.931 . S
H365 C380 0.930 . S
C366 H354 0.930 . S
C366 C367 1.399 1_545 S
C366 C371 1.399 . S
C367 C366 1.399 1_565 S
C367 C368 1.376 . S
C368 H355 0.930 . S
C368 C367 1.376 . S
C368 C369 1.388 . S
C369 H356 0.930 . S
C369 C368 1.388 . S
C369 C370 1.390 . S
C370 C369 1.390 . S
C370 C371 1.394 1_565 S
C370 C376 1.465 . S
C371 C366 1.399 . S
C371 C370 1.394 1_545 S
C371 C372 1.516 . S
C372 C371 1.516 . S
C372 C373 1.502 . S
C372 C374 1.561 . S
C372 C375 1.526 . S
C373 H357 0.959 . S
C373 H358 0.959 . S
C373 H359 0.961 . S
C373 C372 1.502 . S
C374 H360 0.960 . S
C374 H361 0.961 . S
C374 H362 0.959 . S
C374 C372 1.561 . S
C375 C372 1.526 . S
C375 C376 1.396 1_545 S
C375 C380 1.390 . S
C376 C370 1.465 . S
C376 C375 1.396 1_565 S
C376 C377 1.399 . S
C377 H363 0.929 . S
C377 C376 1.399 . S
C377 C378 1.385 . S
C378 H364 0.931 . S
C378 C377 1.385 . S
C378 C379 1.389 . S
C379 C378 1.389 . S
C379 C380 1.387 1_565 S
C380 H365 0.930 . S
C380 C375 1.390 . S
C380 C379 1.387 1_545 S
H381 C393 0.930 . S
H382 C395 0.930 . S
H383 C396 0.930 . S
H384 C400 0.959 . S
H385 C400 0.959 . S
H386 C400 0.961 . S
H387 C401 0.960 . S
H388 C401 0.961 . S
H389 C401 0.959 . S
H390 C404 0.929 . S
H391 C405 0.931 . S
H392 C407 0.930 . S
C393 H381 0.930 . S
C393 C394 1.399 1_655 S
C393 C398 1.399 . S
C394 C393 1.399 1_455 S
C394 C395 1.376 . S
C395 H382 0.930 . S
C395 C394 1.376 . S
C395 C396 1.388 . S
C396 H383 0.930 . S
C396 C395 1.388 . S
C396 C397 1.390 . S
C397 C396 1.390 . S
C397 C398 1.394 1_455 S
C397 C403 1.465 . S
C398 C393 1.399 . S
C398 C397 1.394 1_655 S
C398 C399 1.516 . S
C399 C398 1.516 . S
C399 C400 1.502 . S
C399 C401 1.561 1_655 S
C399 C402 1.526 . S
C400 H384 0.959 . S
C400 H385 0.959 . S
C400 H386 0.961 . S
C400 C399 1.502 . S
C401 H387 0.960 . S
C401 H388 0.961 . S
C401 H389 0.959 . S
C401 C399 1.561 1_455 S
C402 C399 1.526 . S
C402 C403 1.396 1_655 S
C402 C407 1.390 . S
C403 C397 1.465 . S
C403 C402 1.396 1_455 S
C403 C404 1.399 . S
C404 H390 0.929 . S
C404 C403 1.399 . S
C404 C405 1.385 . S
C405 H391 0.931 . S
C405 C404 1.385 . S
C405 C406 1.399 . S
C406 C405 1.399 . S
C406 C407 1.381 1_455 S
C407 H392 0.930 . S
C407 C402 1.390 . S
C407 C406 1.381 1_655 S
H408 C420 0.930 . S
H409 C422 0.930 . S
H410 C423 0.930 . S
H411 C427 0.959 . S
H412 C427 0.959 . S
H413 C427 0.961 . S
H414 C428 0.960 . S
H415 C428 0.961 . S
H416 C428 0.959 . S
H417 C431 0.929 . S
H418 C432 0.931 . S
H419 C434 0.930 . S
C420 H408 0.930 . S
C420 C421 1.399 1_565 S
C420 C425 1.399 . S
C421 C420 1.399 1_545 S
C421 C422 1.376 . S
C422 H409 0.930 . S
C422 C421 1.376 . S
C422 C423 1.388 . S
C423 H410 0.930 . S
C423 C422 1.388 . S
C423 C424 1.390 . S
C424 C423 1.390 . S
C424 C425 1.394 1_545 S
C424 C430 1.465 . S
C425 C420 1.399 . S
C425 C424 1.394 1_565 S
C425 C426 1.516 . S
C426 C425 1.516 . S
C426 C427 1.502 . S
C426 C428 1.561 . S
C426 C429 1.526 . S
C427 H411 0.959 . S
C427 H412 0.959 . S
C427 H413 0.961 . S
C427 C426 1.502 . S
C428 H414 0.960 . S
C428 H415 0.961 . S
C428 H416 0.959 . S
C428 C426 1.561 . S
C429 C426 1.526 . S
C429 C430 1.396 1_565 S
C429 C434 1.390 . S
C430 C424 1.465 . S
C430 C429 1.396 1_545 S
C430 C431 1.399 . S
C431 H417 0.929 . S
C431 C430 1.399 . S
C431 C432 1.385 . S
C432 H418 0.931 . S
C432 C431 1.385 . S
C432 C433 1.389 . S
C433 C432 1.389 . S
C433 C434 1.387 1_545 S
C434 H419 0.930 . S
C434 C429 1.390 . S
C434 C433 1.387 1_565 S
H435 C447 0.930 . S
H436 C449 0.930 . S
H437 C450 0.930 . S
H438 C454 0.959 . S
H439 C454 0.959 . S
H440 C454 0.961 . S
H441 C455 0.960 . S
H442 C455 0.961 . S
H443 C455 0.959 1_455 S
H444 C458 0.929 . S
H445 C459 0.931 . S
H446 C461 0.930 . S
C447 H435 0.930 . S
C447 C448 1.399 1_655 S
C447 C452 1.399 . S
C448 C447 1.399 1_455 S
C448 C449 1.376 . S
C449 H436 0.930 . S
C449 C448 1.376 . S
C449 C450 1.388 . S
C450 H437 0.930 . S
C450 C449 1.388 . S
C450 C451 1.390 . S
C451 C450 1.390 . S
C451 C452 1.394 1_455 S
C451 C457 1.465 . S
C452 C447 1.399 . S
C452 C451 1.394 1_655 S
C452 C453 1.516 . S
C453 C452 1.516 . S
C453 C454 1.502 . S
C453 C455 1.561 . S
C453 C456 1.526 . S
C454 H438 0.959 . S
C454 H439 0.959 . S
C454 H440 0.961 . S
C454 C453 1.502 . S
C455 H441 0.960 . S
C455 H442 0.961 . S
C455 H443 0.959 1_655 S
C455 C453 1.561 . S
C456 C453 1.526 . S
C456 C457 1.396 1_655 S
C456 C461 1.390 . S
C457 C451 1.465 . S
C457 C456 1.396 1_455 S
C457 C458 1.399 . S
C458 H444 0.929 . S
C458 C457 1.399 . S
C458 C459 1.385 . S
C459 H445 0.931 . S
C459 C458 1.385 . S
C459 C460 1.389 . S
C460 C459 1.389 . S
C460 C461 1.387 1_455 S
C461 H446 0.930 . S
C461 C456 1.390 . S
C461 C460 1.387 1_655 S
H462 C474 0.930 . S
H463 C476 0.930 . S
H464 C477 0.930 . S
H465 C481 0.959 . S
H466 C481 0.959 . S
H467 C481 0.961 . S
H468 C482 0.960 . S
H469 C482 0.961 . S
H470 C482 0.959 . S
H471 C485 0.929 . S
H472 C486 0.931 . S
H473 C488 0.930 . S
C474 H462 0.930 . S
C474 C475 1.399 1_565 S
C474 C479 1.399 . S
C475 C474 1.399 1_545 S
C475 C476 1.376 . S
C476 H463 0.930 . S
C476 C475 1.376 . S
C476 C477 1.388 . S
C477 H464 0.930 . S
C477 C476 1.388 . S
C477 C478 1.390 . S
C478 C477 1.390 . S
C478 C479 1.394 1_545 S
C478 C484 1.465 . S
C479 C474 1.399 . S
C479 C478 1.394 1_565 S
C479 C480 1.516 . S
C480 C479 1.516 . S
C480 C481 1.502 . S
C480 C482 1.561 . S
C480 C483 1.526 . S
C481 H465 0.959 . S
C481 H466 0.959 . S
C481 H467 0.961 . S
C481 C480 1.502 . S
C482 H468 0.960 . S
C482 H469 0.961 . S
C482 H470 0.959 . S
C482 C480 1.561 . S
C483 C480 1.526 . S
C483 C484 1.396 1_565 S
C483 C488 1.390 . S
C484 C478 1.465 . S
C484 C483 1.396 1_545 S
C484 C485 1.399 . S
C485 H471 0.929 . S
C485 C484 1.399 . S
C485 C486 1.385 . S
C486 H472 0.931 . S
C486 C485 1.385 . S
C486 C487 1.389 . S
C487 C486 1.389 . S
C487 C488 1.387 1_545 S
C488 H473 0.930 . S
C488 C483 1.390 . S
C488 C487 1.387 1_565 S
H489 C501 0.930 . S
H490 C503 0.930 . S
H491 C504 0.930 . S
H492 C508 0.959 . S
H493 C508 0.959 . S
H494 C508 0.961 . S
H495 C509 0.960 1_655 S
H496 C509 0.961 1_655 S
H497 C509 0.959 . S
H498 C512 0.929 . S
H499 C513 0.931 . S
H500 C515 0.930 . S
C501 H489 0.930 . S
C501 C502 1.399 1_655 S
C501 C506 1.399 . S
C502 C501 1.399 1_455 S
C502 C503 1.376 . S
C503 H490 0.930 . S
C503 C502 1.376 . S
C503 C504 1.388 . S
C504 H491 0.930 . S
C504 C503 1.388 . S
C504 C505 1.390 . S
C505 C504 1.390 . S
C505 C506 1.394 1_455 S
C505 C511 1.465 . S
C506 C501 1.399 . S
C506 C505 1.394 1_655 S
C506 C507 1.516 . S
C507 C506 1.516 . S
C507 C508 1.502 . S
C507 C509 1.561 1_655 S
C507 C510 1.526 . S
C508 H492 0.959 . S
C508 H493 0.959 . S
C508 H494 0.961 . S
C508 C507 1.502 . S
C509 H495 0.960 1_455 S
C509 H496 0.961 1_455 S
C509 H497 0.959 . S
C509 C507 1.561 1_455 S
C510 C507 1.526 . S
C510 C511 1.396 1_655 S
C510 C515 1.390 . S
C511 C505 1.465 . S
C511 C510 1.396 1_455 S
C511 C512 1.399 . S
C512 H498 0.929 . S
C512 C511 1.399 . S
C512 C513 1.385 . S
C513 H499 0.931 . S
C513 C512 1.385 . S
C513 C514 1.389 . S
C514 C513 1.389 . S
C514 C515 1.387 1_455 S
C515 H500 0.930 . S
C515 C510 1.390 . S
C515 C514 1.387 1_655 S
C325 C173 1.760 1_565 S
C313 C47 1.594 1_565 S
C352 C261 1.758 1_655 S
C340 C109 1.590 . S
C379 C181 1.747 1_565 S
C367 C29 1.673 1_565 S
C406 C269 1.759 . S
C394 C91 1.603 1_455 S
C433 C241 1.374 . S
C421 C53 1.332 . S
C460 C144 1.367 . S
C448 C115 1.348 1_455 S
C487 C232 1.369 . S
C475 C35 1.373 . S
C502 C97 1.373 1_455 S
C514 C153 1.377 . S
