# Generated by pormake.
# Topology pto, (3,4)-cn, num edge types: 1
# Building blocks:
#     Node 0, Type 0, BuildingBlock: WUSLED_clean_sbu_0, # of connection points: 3
#     Node 1, Type 0, BuildingBlock: WUSLED_clean_sbu_0, # of connection points: 3
#     Node 2, Type 0, BuildingBlock: WUSLED_clean_sbu_0, # of connection points: 3
#     Node 3, Type 0, BuildingBlock: WUSLED_clean_sbu_0, # of connection points: 3
#     Node 4, Type 0, BuildingBlock: WUSLED_clean_sbu_0, # of connection points: 3
#     Node 5, Type 0, BuildingBlock: WUSLED_clean_sbu_0, # of connection points: 3
#     Node 6, Type 0, BuildingBlock: WUSLED_clean_sbu_0, # of connection points: 3
#     Node 7, Type 0, BuildingBlock: WUSLED_clean_sbu_0, # of connection points: 3
#     Node 8, Type 1, BuildingBlock: NAWXER_clean_linker_0, # of connection points: 4
#     Node 9, Type 1, BuildingBlock: NAWXER_clean_linker_0, # of connection points: 4
#     Node 10, Type 1, BuildingBlock: NAWXER_clean_linker_0, # of connection points: 4
#     Node 11, Type 1, BuildingBlock: NAWXER_clean_linker_0, # of connection points: 4
#     Node 12, Type 1, BuildingBlock: NAWXER_clean_linker_0, # of connection points: 4
#     Node 13, Type 1, BuildingBlock: NAWXER_clean_linker_0, # of connection points: 4
#     Edge 14, Type (0, 1), BuildingBlock: EZIPEK_clean_linker_0, # of connection points: 2
#     Edge 15, Type (0, 1), BuildingBlock: EZIPEK_clean_linker_0, # of connection points: 2
#     Edge 16, Type (0, 1), BuildingBlock: EZIPEK_clean_linker_0, # of connection points: 2
#     Edge 17, Type (0, 1), BuildingBlock: EZIPEK_clean_linker_0, # of connection points: 2
#     Edge 18, Type (0, 1), BuildingBlock: EZIPEK_clean_linker_0, # of connection points: 2
#     Edge 19, Type (0, 1), BuildingBlock: EZIPEK_clean_linker_0, # of connection points: 2
#     Edge 20, Type (0, 1), BuildingBlock: EZIPEK_clean_linker_0, # of connection points: 2
#     Edge 21, Type (0, 1), BuildingBlock: EZIPEK_clean_linker_0, # of connection points: 2
#     Edge 22, Type (0, 1), BuildingBlock: EZIPEK_clean_linker_0, # of connection points: 2
#     Edge 23, Type (0, 1), BuildingBlock: EZIPEK_clean_linker_0, # of connection points: 2
#     Edge 24, Type (0, 1), BuildingBlock: EZIPEK_clean_linker_0, # of connection points: 2
#     Edge 25, Type (0, 1), BuildingBlock: EZIPEK_clean_linker_0, # of connection points: 2
#     Edge 26, Type (0, 1), BuildingBlock: EZIPEK_clean_linker_0, # of connection points: 2
#     Edge 27, Type (0, 1), BuildingBlock: EZIPEK_clean_linker_0, # of connection points: 2
#     Edge 28, Type (0, 1), BuildingBlock: EZIPEK_clean_linker_0, # of connection points: 2
#     Edge 29, Type (0, 1), BuildingBlock: EZIPEK_clean_linker_0, # of connection points: 2
#     Edge 30, Type (0, 1), BuildingBlock: EZIPEK_clean_linker_0, # of connection points: 2
#     Edge 31, Type (0, 1), BuildingBlock: EZIPEK_clean_linker_0, # of connection points: 2
#     Edge 32, Type (0, 1), BuildingBlock: EZIPEK_clean_linker_0, # of connection points: 2
#     Edge 33, Type (0, 1), BuildingBlock: EZIPEK_clean_linker_0, # of connection points: 2
#     Edge 34, Type (0, 1), BuildingBlock: EZIPEK_clean_linker_0, # of connection points: 2
#     Edge 35, Type (0, 1), BuildingBlock: EZIPEK_clean_linker_0, # of connection points: 2
#     Edge 36, Type (0, 1), BuildingBlock: EZIPEK_clean_linker_0, # of connection points: 2
#     Edge 37, Type (0, 1), BuildingBlock: EZIPEK_clean_linker_0, # of connection points: 2
# Relax obj value: 0.000
# Max RMSD: 0.009
# Mean RMSD: 0.005
data_MOF--net-pto--node1-WUSLED_clean_sbu_0--node2-NAWXER_clean_linker_0--edge1-EZIPEK_clean_linker_0
_symmetry_space_group_name_H-M    P1
_symmetry_Int_Tables_number       1
_symmetry_cell_setting            triclinic
loop_
_symmetry_equiv_pos_as_xyz
'x, y, z'
_cell_length_a     42.074214
_cell_length_b     57.499415
_cell_length_c     49.789913
_cell_angle_alpha  89.500855
_cell_angle_beta   90.594152
_cell_angle_gamma 90.53648
loop_
_atom_site_label
_atom_site_type_symbol
_atom_site_fract_x
_atom_site_fract_y
_atom_site_fract_z
_atom_type_partial_charge
C0 C 0.24679 0.23329 0.36123 0.0
C1 C 0.27177 0.21791 0.35631 0.0
C2 C 0.2528 0.19218 0.39177 0.0
C3 C 0.2748 0.19748 0.37155 0.0
C4 C 0.22791 0.20758 0.3967 0.0
C5 C 0.22493 0.22803 0.38151 0.0
U6 U 0.26965 0.27148 0.30156 0.0
O7 O 0.23962 0.29178 0.27371 0.0
O8 O 0.276 0.30938 0.29829 0.0
C9 C 0.25195 0.31174 0.28145 0.0
C10 C 0.24302 0.25465 0.34513 0.0
C11 C 0.22895 0.32983 0.28812 0.0
C12 C 0.1933 0.34819 0.3195 0.0
C13 C 0.21468 0.3305 0.31349 0.0
C14 C 0.19993 0.36441 0.27476 0.0
C15 C 0.18593 0.36528 0.30016 0.0
C16 C 0.22132 0.3468 0.26879 0.0
C17 C 0.33379 0.25118 0.25369 0.0
C18 C 0.35764 0.27631 0.21978 0.0
C19 C 0.36676 0.23474 0.21904 0.0
C20 C 0.34791 0.23188 0.24181 0.0
C21 C 0.3718 0.25697 0.20792 0.0
C22 C 0.33862 0.27343 0.24249 0.0
C23 C 0.31403 0.24776 0.27762 0.0
O24 O 0.2674 0.26911 0.34561 0.0
O25 O 0.23108 0.25164 0.3209 0.0
O26 O 0.28353 0.24458 0.27285 0.0
O27 O 0.31987 0.26202 0.29761 0.0
H28 H 0.28878 0.22169 0.34064 0.0
H29 H 0.29411 0.18572 0.36751 0.0
H30 H 0.21075 0.2037 0.41223 0.0
H31 H 0.20549 0.23969 0.38551 0.0
H32 H 0.18264 0.34866 0.33919 0.0
H33 H 0.22023 0.31745 0.32861 0.0
H34 H 0.19446 0.37749 0.25965 0.0
H35 H 0.23207 0.34649 0.24911 0.0
H36 H 0.36129 0.29358 0.21142 0.0
H37 H 0.37749 0.21964 0.21011 0.0
H38 H 0.34434 0.2146 0.25015 0.0
H39 H 0.32774 0.28852 0.25132 0.0
C40 C 0.25009 0.81287 0.67063 0.0
C41 C 0.25053 0.83498 0.68252 0.0
C42 C 0.25598 0.85331 0.63862 0.0
C43 C 0.25327 0.85504 0.6666 0.0
C44 C 0.25624 0.83124 0.62678 0.0
C45 C 0.25317 0.81118 0.64268 0.0
U46 U 0.26942 0.77571 0.7325 0.0
O47 O 0.23765 0.7557 0.75908 0.0
O48 O 0.27525 0.73792 0.73719 0.0
C49 C 0.2502 0.7357 0.75263 0.0
C50 C 0.24595 0.79149 0.68693 0.0
C51 C 0.22736 0.71722 0.74536 0.0
C52 C 0.19611 0.69578 0.71231 0.0
C53 C 0.21747 0.7138 0.71862 0.0
C54 C 0.19387 0.68481 0.75939 0.0
C55 C 0.18427 0.68114 0.73268 0.0
C56 C 0.21527 0.70271 0.76566 0.0
C57 C 0.32985 0.79934 0.78433 0.0
C58 C 0.36774 0.78029 0.81443 0.0
C59 C 0.34502 0.81723 0.82668 0.0
C60 C 0.32754 0.81761 0.80269 0.0
C61 C 0.36536 0.79866 0.83263 0.0
C62 C 0.35003 0.78057 0.79044 0.0
C63 C 0.31169 0.80077 0.75878 0.0
O64 O 0.2706 0.77762 0.68825 0.0
O65 O 0.23183 0.794 0.71016 0.0
O66 O 0.28088 0.80367 0.76103 0.0
O67 O 0.31919 0.78602 0.73987 0.0
H68 H 0.24848 0.8368 0.70406 0.0
H69 H 0.2531 0.87193 0.67606 0.0
H70 H 0.25839 0.8296 0.60522 0.0
H71 H 0.25298 0.79432 0.63312 0.0
H72 H 0.18898 0.69313 0.69158 0.0
H73 H 0.22642 0.72494 0.70269 0.0
H74 H 0.18499 0.67365 0.77533 0.0
H75 H 0.22256 0.70516 0.7864 0.0
H76 H 0.38331 0.76581 0.81878 0.0
H77 H 0.34291 0.83154 0.84054 0.0
H78 H 0.31229 0.8323 0.7984 0.0
H79 H 0.3523 0.76621 0.77668 0.0
C80 C 0.71641 0.79046 0.25209 0.0
C81 C 0.72368 0.77236 0.23469 0.0
C82 C 0.67186 0.77617 0.21189 0.0
C83 C 0.70225 0.76582 0.21438 0.0
C84 C 0.66676 0.79608 0.22786 0.0
C85 C 0.68826 0.80271 0.24805 0.0
U86 U 0.78283 0.77475 0.30116 0.0
O87 O 0.82231 0.79588 0.31771 0.0
O88 O 0.78691 0.78024 0.34465 0.0
C89 C 0.81135 0.7945 0.34231 0.0
C90 C 0.73771 0.79658 0.27462 0.0
C91 C 0.80899 0.81667 0.35675 0.0
C92 C 0.77792 0.84873 0.37376 0.0
C93 C 0.77989 0.82831 0.35878 0.0
C94 C 0.83423 0.84649 0.38417 0.0
C95 C 0.80504 0.85786 0.38668 0.0
C96 C 0.83615 0.826 0.36936 0.0
C97 C 0.81947 0.7141 0.29685 0.0
C98 C 0.86513 0.70132 0.32316 0.0
C99 C 0.83229 0.67318 0.3001 0.0
C100 C 0.81332 0.69104 0.28987 0.0
C101 C 0.85727 0.67759 0.31877 0.0
C102 C 0.84595 0.71923 0.31303 0.0
C103 C 0.79787 0.73236 0.2871 0.0
O104 O 0.73269 0.78476 0.29689 0.0
O105 O 0.76804 0.79879 0.26885 0.0
O106 O 0.81125 0.75111 0.27673 0.0
O107 O 0.77421 0.737 0.30314 0.0
H108 H 0.74607 0.7633 0.23671 0.0
H109 H 0.71059 0.75298 0.20061 0.0
H110 H 0.64635 0.80708 0.22485 0.0
H111 H 0.68284 0.81747 0.26053 0.0
H112 H 0.75522 0.85731 0.37547 0.0
H113 H 0.75866 0.82148 0.34907 0.0
H114 H 0.85539 0.85333 0.39397 0.0
H115 H 0.85879 0.81729 0.36799 0.0
H116 H 0.88622 0.7068 0.33377 0.0
H117 H 0.82716 0.65587 0.29287 0.0
H118 H 0.79372 0.68678 0.27644 0.0
H119 H 0.85194 0.73712 0.31772 0.0
C120 C 0.76529 0.20868 0.69994 0.0
C121 C 0.74084 0.19383 0.691 0.0
C122 C 0.77737 0.17483 0.66099 0.0
C123 C 0.74682 0.17703 0.67162 0.0
C124 C 0.80183 0.18983 0.66966 0.0
C125 C 0.7958 0.20674 0.68897 0.0
U126 U 0.78007 0.26733 0.73367 0.0
O127 O 0.74584 0.29204 0.75019 0.0
O128 O 0.78215 0.27636 0.77645 0.0
C129 C 0.75656 0.28928 0.77488 0.0
C130 C 0.75846 0.22592 0.72075 0.0
C131 C 0.73231 0.28457 0.79532 0.0
C132 C 0.69965 0.25769 0.82131 0.0
C133 C 0.72198 0.26178 0.80111 0.0
C134 C 0.69729 0.29912 0.82967 0.0
C135 C 0.68737 0.27635 0.83581 0.0
C136 C 0.71964 0.30319 0.80956 0.0
C137 C 0.84279 0.30927 0.70637 0.0
C138 C 0.8604 0.34363 0.73064 0.0
C139 C 0.87624 0.3382 0.68444 0.0
C140 C 0.85925 0.3172 0.68368 0.0
C141 C 0.877 0.35147 0.70795 0.0
C142 C 0.84328 0.32266 0.72984 0.0
C143 C 0.8252 0.28708 0.70524 0.0
O144 O 0.78101 0.22935 0.73882 0.0
O145 O 0.74533 0.24528 0.71211 0.0
O146 O 0.79487 0.28871 0.69901 0.0
O147 O 0.83081 0.27248 0.72516 0.0
H148 H 0.71715 0.19514 0.69915 0.0
H149 H 0.72772 0.16557 0.6651 0.0
H150 H 0.82553 0.18833 0.66159 0.0
H151 H 0.81496 0.21816 0.69545 0.0
H152 H 0.69219 0.24002 0.82584 0.0
H153 H 0.73141 0.24719 0.79021 0.0
H154 H 0.68801 0.31369 0.84069 0.0
H155 H 0.72728 0.32088 0.8053 0.0
H156 H 0.86074 0.35373 0.74891 0.0
H157 H 0.88893 0.34407 0.66677 0.0
H158 H 0.85902 0.30712 0.66539 0.0
H159 H 0.83053 0.31686 0.7475 0.0
C160 C 0.81894 0.71427 0.74517 0.0
C161 C 0.84408 0.71925 0.72761 0.0
C162 C 0.86277 0.67955 0.7324 0.0
C163 C 0.86595 0.70197 0.72131 0.0
C164 C 0.83741 0.67453 0.74963 0.0
C165 C 0.81565 0.6918 0.756 0.0
U166 U 0.77973 0.77324 0.73371 0.0
O167 O 0.72983 0.78348 0.73791 0.0
O168 O 0.76673 0.79989 0.76303 0.0
C169 C 0.73614 0.7973 0.75823 0.0
C170 C 0.79616 0.73228 0.75262 0.0
C171 C 0.71627 0.79394 0.78214 0.0
C172 C 0.69012 0.76881 0.81485 0.0
C173 C 0.70913 0.77157 0.7921 0.0
C174 C 0.68568 0.81069 0.81816 0.0
C175 C 0.6783 0.78837 0.82802 0.0
C176 C 0.7045 0.81344 0.79535 0.0
C177 C 0.80501 0.81158 0.6743 0.0
C178 C 0.77542 0.84498 0.65775 0.0
C179 C 0.8296 0.83907 0.64335 0.0
C180 C 0.83123 0.81887 0.65912 0.0
C181 C 0.80167 0.85218 0.64251 0.0
C182 C 0.77711 0.82483 0.67365 0.0
C183 C 0.80728 0.79018 0.69061 0.0
O184 O 0.80873 0.75191 0.76118 0.0
O185 O 0.77224 0.73531 0.73581 0.0
O186 O 0.78235 0.77623 0.68976 0.0
O187 O 0.81906 0.79279 0.71495 0.0
H188 H 0.84688 0.7365 0.71897 0.0
H189 H 0.88539 0.70607 0.70792 0.0
H190 H 0.83465 0.6573 0.75831 0.0
H191 H 0.79635 0.68766 0.76952 0.0
H192 H 0.68467 0.75146 0.82222 0.0
H193 H 0.7182 0.75629 0.78228 0.0
H194 H 0.67679 0.82596 0.82811 0.0
H195 H 0.70988 0.83082 0.78801 0.0
H196 H 0.75374 0.855 0.65736 0.0
H197 H 0.85007 0.84446 0.63174 0.0
H198 H 0.85296 0.8089 0.65944 0.0
H199 H 0.75668 0.81956 0.68538 0.0
C200 C 0.71636 0.25051 0.25633 0.0
C201 C 0.71508 0.27242 0.24367 0.0
C202 C 0.67854 0.25698 0.21001 0.0
C203 C 0.69619 0.27565 0.22064 0.0
C204 C 0.67996 0.23509 0.2226 0.0
C205 C 0.69873 0.2319 0.24564 0.0
U206 U 0.78246 0.26872 0.3054 0.0
O207 O 0.78413 0.26663 0.34951 0.0
O208 O 0.81853 0.24726 0.32586 0.0
C209 C 0.80688 0.25113 0.34979 0.0
C210 C 0.73592 0.2467 0.28058 0.0
C211 C 0.80065 0.23038 0.36647 0.0
C212 C 0.77391 0.19335 0.374 0.0
C213 C 0.78089 0.21239 0.35731 0.0
C214 C 0.80768 0.20949 0.40858 0.0
C215 C 0.78483 0.19239 0.40106 0.0
C216 C 0.81476 0.22846 0.39186 0.0
C217 C 0.82903 0.32512 0.29458 0.0
C218 C 0.87288 0.33617 0.32408 0.0
C219 C 0.85566 0.36245 0.28857 0.0
C220 C 0.83225 0.34636 0.28078 0.0
C221 C 0.8761 0.35744 0.31025 0.0
C222 C 0.84942 0.32011 0.31633 0.0
C223 C 0.80428 0.3084 0.28624 0.0
O224 O 0.76608 0.24244 0.27636 0.0
O225 O 0.73141 0.26131 0.30031 0.0
O226 O 0.77963 0.30684 0.30217 0.0
O227 O 0.8146 0.28804 0.27851 0.0
H228 H 0.72867 0.28697 0.2516 0.0
H229 H 0.69539 0.29262 0.21107 0.0
H230 H 0.66652 0.22052 0.21458 0.0
H231 H 0.69951 0.21488 0.25512 0.0
H232 H 0.76052 0.17941 0.36488 0.0
H233 H 0.77098 0.21299 0.33713 0.0
H234 H 0.82087 0.20839 0.42724 0.0
H235 H 0.83141 0.24165 0.39881 0.0
H236 H 0.88852 0.33206 0.34084 0.0
H237 H 0.85791 0.37877 0.27769 0.0
H238 H 0.81666 0.35049 0.26399 0.0
H239 H 0.84719 0.3038 0.32724 0.0
C240 C 0.2476 0.22909 0.67177 0.0
C241 C 0.27696 0.21775 0.67013 0.0
C242 C 0.25297 0.18813 0.64165 0.0
C243 C 0.27965 0.19746 0.65504 0.0
C244 C 0.22357 0.1993 0.6436 0.0
C245 C 0.22094 0.21967 0.65851 0.0
U246 U 0.27163 0.26894 0.7297 0.0
O247 O 0.27766 0.30704 0.73046 0.0
O248 O 0.24233 0.28996 0.75632 0.0
C249 C 0.25379 0.30975 0.74695 0.0
C250 C 0.24429 0.25071 0.68709 0.0
C251 C 0.23047 0.32783 0.73933 0.0
C252 C 0.17597 0.34114 0.7338 0.0
C253 C 0.19754 0.32323 0.73902 0.0
C254 C 0.21978 0.36834 0.72827 0.0
C255 C 0.18696 0.36384 0.72867 0.0
C256 C 0.24134 0.3505 0.73366 0.0
C257 C 0.33673 0.25 0.77914 0.0
C258 C 0.36059 0.27569 0.81241 0.0
C259 C 0.36987 0.23416 0.81496 0.0
C260 C 0.35097 0.23093 0.79202 0.0
C261 C 0.37481 0.25655 0.8253 0.0
C262 C 0.34153 0.27242 0.7895 0.0
C263 C 0.31662 0.24609 0.75523 0.0
O264 O 0.23288 0.24822 0.71143 0.0
O265 O 0.2684 0.26539 0.68585 0.0
O266 O 0.32205 0.25992 0.73457 0.0
O267 O 0.28622 0.24291 0.75995 0.0
H268 H 0.29779 0.22464 0.68039 0.0
H269 H 0.3025 0.18902 0.65377 0.0
H270 H 0.20275 0.1923 0.63343 0.0
H271 H 0.19809 0.22813 0.65962 0.0
H272 H 0.15069 0.33739 0.73424 0.0
H273 H 0.18837 0.30595 0.74329 0.0
H274 H 0.22865 0.38578 0.7244 0.0
H275 H 0.26655 0.35452 0.73391 0.0
H276 H 0.36416 0.29307 0.82016 0.0
H277 H 0.38063 0.21922 0.82469 0.0
H278 H 0.34741 0.21351 0.78435 0.0
H279 H 0.33054 0.28734 0.77991 0.0
C280 C 0.20235 0.73469 0.3256 0.0
C281 C 0.21234 0.7163 0.30943 0.0
C282 C 0.16607 0.69346 0.32253 0.0
C283 C 0.19433 0.69577 0.30795 0.0
C284 C 0.15595 0.71192 0.33847 0.0
C285 C 0.17401 0.73242 0.34001 0.0
U286 U 0.26868 0.77459 0.30067 0.0
O287 O 0.2706 0.81264 0.29629 0.0
O288 O 0.30436 0.79497 0.32329 0.0
C289 C 0.29306 0.81494 0.31467 0.0
C290 C 0.22123 0.75626 0.32762 0.0
C291 C 0.28723 0.8323 0.33554 0.0
C292 C 0.25256 0.85059 0.36776 0.0
C293 C 0.25776 0.8335 0.34846 0.0
C294 C 0.30638 0.86504 0.3618 0.0
C295 C 0.27682 0.86651 0.37441 0.0
C296 C 0.31152 0.84805 0.34246 0.0
C297 C 0.31677 0.75668 0.23964 0.0
C298 C 0.3544 0.78261 0.21747 0.0
C299 C 0.34866 0.74264 0.2029 0.0
C300 C 0.32569 0.73869 0.22254 0.0
C301 C 0.36295 0.76466 0.20011 0.0
C302 C 0.33142 0.77864 0.23718 0.0
C303 C 0.2917 0.75237 0.25945 0.0
O304 O 0.25119 0.75356 0.33461 0.0
O305 O 0.21728 0.77119 0.30777 0.0
O306 O 0.26713 0.76626 0.25769 0.0
O307 O 0.30152 0.74883 0.28428 0.0
H308 H 0.23411 0.71782 0.29807 0.0
H309 H 0.20241 0.68166 0.29555 0.0
H310 H 0.13419 0.71038 0.34982 0.0
H311 H 0.16594 0.74647 0.35251 0.0
H312 H 0.22962 0.85152 0.37736 0.0
H313 H 0.23878 0.82138 0.34347 0.0
H314 H 0.32531 0.87722 0.36674 0.0
H315 H 0.33442 0.84732 0.33275 0.0
H316 H 0.36524 0.7997 0.21554 0.0
H317 H 0.35502 0.72863 0.18964 0.0
H318 H 0.31463 0.72165 0.2242 0.0
H319 H 0.32483 0.79271 0.25028 0.0
C320 C 0.98113 0.43967 0.30604 0.0
C321 C 0.96105 0.43385 0.32783 0.0
C322 C 0.99628 0.46134 0.30423 0.0
C323 C 0.99117 0.47835 0.32364 0.0
C324 C 0.95297 0.4524 0.34499 0.0
C325 C 0.96832 0.47404 0.3433 0.0
C326 C 1.00845 0.50098 0.32284 0.0
C327 C 0.08123 0.4455 0.33659 0.0
C328 C 0.10249 0.44336 0.31527 0.0
C329 C 0.06159 0.46492 0.33806 0.0
C330 C 0.06272 0.48233 0.31804 0.0
C331 C 0.10424 0.46097 0.29566 0.0
C332 C 0.0846 0.48038 0.29711 0.0
C333 C 0.04166 0.5028 0.31907 0.0
C334 C 0.06957 0.60363 0.34017 0.0
C335 C 0.09138 0.60836 0.31968 0.0
C336 C 0.05194 0.5829 0.34011 0.0
C337 C 0.05569 0.56669 0.31941 0.0
C338 C 0.09533 0.59219 0.29908 0.0
C339 C 0.07775 0.57143 0.29905 0.0
C340 C 0.03818 0.54421 0.31972 0.0
C341 C 0.96345 0.59917 0.3073 0.0
C342 C 0.94237 0.60072 0.32885 0.0
C343 C 0.98421 0.58036 0.30569 0.0
C344 C 0.98412 0.56287 0.32562 0.0
C345 C 0.94241 0.58334 0.34882 0.0
C346 C 0.9629 0.56445 0.34707 0.0
C347 C 1.00505 0.5424 0.32374 0.0
H348 H 0.98498 0.42785 0.28969 0.0
H349 H 1.01187 0.46484 0.28747 0.0
H350 H 0.93431 0.45097 0.35955 0.0
H351 H 0.96237 0.48742 0.35755 0.0
H352 H 0.07987 0.43215 0.35203 0.0
H353 H 0.04551 0.46634 0.3548 0.0
H354 H 0.12074 0.45962 0.27919 0.0
H355 H 0.08613 0.49371 0.28165 0.0
H356 H 0.06648 0.61588 0.35632 0.0
H357 H 0.0358 0.57938 0.35648 0.0
H358 H 0.11222 0.59557 0.28322 0.0
H359 H 0.08131 0.55907 0.28308 0.0
H360 H 0.96359 0.61238 0.29166 0.0
H361 H 0.99996 0.57928 0.28868 0.0
H362 H 0.92622 0.58426 0.36555 0.0
H363 H 0.96231 0.5511 0.36256 0.0
N364 N 0.99149 0.52086 0.32527 0.0
N365 N 0.05516 0.52434 0.31741 0.0
C366 C 0.9744 0.44074 0.69041 0.0
C367 C 0.95005 0.43733 0.7091 0.0
C368 C 0.99251 0.46125 0.69064 0.0
C369 C 0.98681 0.47849 0.70984 0.0
C370 C 0.94378 0.4547 0.72785 0.0
C371 C 0.96194 0.47518 0.72814 0.0
C372 C 1.00601 0.50022 0.71056 0.0
C373 C 0.07353 0.44272 0.7322 0.0
C374 C 0.09965 0.44064 0.71513 0.0
C375 C 0.05374 0.46205 0.73018 0.0
C376 C 0.05935 0.47941 0.71065 0.0
C377 C 0.10546 0.45796 0.69573 0.0
C378 C 0.08551 0.47722 0.69356 0.0
C379 C 0.03959 0.50064 0.70926 0.0
C380 C 0.07461 0.59919 0.73422 0.0
C381 C 0.09842 0.60323 0.71517 0.0
C382 C 0.05481 0.5796 0.73225 0.0
C383 C 0.05843 0.56384 0.7111 0.0
C384 C 0.10188 0.58765 0.69389 0.0
C385 C 0.0822 0.56799 0.692 0.0
C386 C 0.03917 0.54218 0.70984 0.0
C387 C 0.97109 0.60127 0.69639 0.0
C388 C 0.948 0.60281 0.71641 0.0
C389 C 0.99003 0.58146 0.69475 0.0
C390 C 0.9862 0.56302 0.71323 0.0
C391 C 0.94392 0.58435 0.73465 0.0
C392 C 0.96273 0.56454 0.73296 0.0
C393 C 1.00568 0.54175 0.71173 0.0
H394 H 0.97933 0.42754 0.67567 0.0
H395 H 1.01092 0.46365 0.6758 0.0
H396 H 0.92496 0.45232 0.74233 0.0
H397 H 0.95688 0.48832 0.74293 0.0
H398 H 0.06892 0.42962 0.74748 0.0
H399 H 0.03449 0.46365 0.74428 0.0
H400 H 0.12567 0.4567 0.68254 0.0
H401 H 0.09059 0.49051 0.6786 0.0
H402 H 0.07179 0.61096 0.75088 0.0
H403 H 0.03721 0.57648 0.74762 0.0
H404 H 0.12024 0.59048 0.67909 0.0
H405 H 0.08561 0.55594 0.6757 0.0
H406 H 0.97435 0.61535 0.68206 0.0
H407 H 1.00742 0.58047 0.67893 0.0
H408 H 0.92609 0.58528 0.75014 0.0
H409 H 0.95918 0.55048 0.74727 0.0
N410 N 0.99045 0.52079 0.71204 0.0
N411 N 0.05477 0.52162 0.70864 0.0
C412 C 0.23824 0.10304 0.4748 0.0
C413 C 0.26098 0.10732 0.45492 0.0
C414 C 0.23914 0.08249 0.48996 0.0
C415 C 0.26302 0.06601 0.48565 0.0
C416 C 0.28461 0.09082 0.45033 0.0
C417 C 0.28551 0.07024 0.46549 0.0
C418 C 0.26384 0.04394 0.50123 0.0
C419 C 0.28481 0.10117 0.5595 0.0
C420 C 0.26035 0.10436 0.57802 0.0
C421 C 0.28539 0.08115 0.54378 0.0
C422 C 0.2615 0.06405 0.54637 0.0
C423 C 0.2368 0.0871 0.58097 0.0
C424 C 0.23754 0.06698 0.56541 0.0
C425 C 0.26159 0.04298 0.5295 0.0
C426 C 0.28407 0.94129 0.55413 0.0
C427 C 0.26169 0.93799 0.57455 0.0
C428 C 0.28454 0.96197 0.53913 0.0
C429 C 0.26213 0.97944 0.5439 0.0
C430 C 0.23988 0.95564 0.57984 0.0
C431 C 0.24014 0.9762 0.56468 0.0
C432 C 0.26207 1.00147 0.52817 0.0
C433 C 0.24234 0.94426 0.46877 0.0
C434 C 0.26526 0.94268 0.44862 0.0
C435 C 0.2419 0.96366 0.48554 0.0
C436 C 0.26469 0.98155 0.4826 0.0
C437 C 0.28763 0.96067 0.44534 0.0
C438 C 0.28727 0.98 0.46214 0.0
C439 C 0.2644 1.00244 0.49983 0.0
H440 H 0.21968 0.11554 0.47839 0.0
H441 H 0.22095 0.07936 0.50483 0.0
H442 H 0.3022 0.09384 0.43492 0.0
H443 H 0.3039 0.05768 0.46161 0.0
H444 H 0.30329 0.11425 0.5571 0.0
H445 H 0.30448 0.07903 0.52961 0.0
H446 H 0.21782 0.08926 0.59524 0.0
H447 H 0.21905 0.05392 0.56786 0.0
H448 H 0.30123 0.92791 0.54993 0.0
H449 H 0.30249 0.96432 0.5239 0.0
H450 H 0.22255 0.9534 0.59562 0.0
H451 H 0.2229 0.98951 0.56898 0.0
H452 H 0.22472 0.93059 0.47134 0.0
H453 H 0.22363 0.96476 0.50062 0.0
H454 H 0.30534 0.95974 0.42975 0.0
H455 H 0.30482 0.99369 0.45928 0.0
N456 N 0.2654 0.02365 0.48753 0.0
N457 N 0.26055 0.02181 0.54185 0.0
C458 C 0.47492 0.80496 0.92932 0.0
C459 C 0.44515 0.79329 0.92732 0.0
C460 C 0.49615 0.80032 0.95047 0.0
C461 C 0.48965 0.78256 0.96911 0.0
C462 C 0.44116 0.77356 0.94423 0.0
C463 C 0.46245 0.76877 0.96525 0.0
C464 C 0.50935 0.77936 0.99375 0.0
C465 C 0.57505 0.76529 0.92534 0.0
C466 C 0.60007 0.78147 0.92305 0.0
C467 C 0.55636 0.76466 0.94841 0.0
C468 C 0.56238 0.78026 0.96949 0.0
C469 C 0.60639 0.79684 0.94423 0.0
C470 C 0.58784 0.79611 0.96736 0.0
C471 C 0.54299 0.77966 0.99415 0.0
C472 C 0.57243 0.75419 0.10953 0.0
C473 C 0.59631 0.77052 0.11567 0.0
C474 C 0.5554 0.75587 0.08538 0.0
C475 C 0.56172 0.7741 0.06716 0.0
C476 C 0.60341 0.78832 0.09719 0.0
C477 C 0.58633 0.79002 0.07299 0.0
C478 C 0.54277 0.77661 0.04206 0.0
C479 C 0.47585 0.78982 0.11034 0.0
C480 C 0.45031 0.774 0.11167 0.0
C481 C 0.49523 0.79056 0.08768 0.0
C482 C 0.48954 0.77529 0.06618 0.0
C483 C 0.44436 0.75896 0.09014 0.0
C484 C 0.46374 0.75967 0.06754 0.0
C485 C 0.50917 0.77621 0.04163 0.0
H486 H 0.48269 0.81769 0.91479 0.0
H487 H 0.5173 0.81106 0.95246 0.0
H488 H 0.42159 0.76149 0.94158 0.0
H489 H 0.45749 0.75427 0.97866 0.0
H490 H 0.57002 0.75319 0.90926 0.0
H491 H 0.53736 0.75188 0.94986 0.0
H492 H 0.62569 0.80938 0.94282 0.0
H493 H 0.59309 0.80815 0.98346 0.0
H494 H 0.56682 0.74028 0.12356 0.0
H495 H 0.53711 0.74302 0.08103 0.0
H496 H 0.62187 0.80101 0.10166 0.0
H497 H 0.5918 0.80407 0.05911 0.0
H498 H 0.48053 0.8017 0.12671 0.0
H499 H 0.51437 0.80326 0.08681 0.0
H500 H 0.42461 0.74675 0.09082 0.0
H501 H 0.45866 0.74792 0.05111 0.0
N502 N 0.49389 0.77749 0.01751 0.0
N503 N 0.55837 0.77845 0.01832 0.0
C504 C 0.76326 0.10075 0.48204 0.0
C505 C 0.78503 0.10709 0.46209 0.0
C506 C 0.7664 0.07966 0.49586 0.0
C507 C 0.79162 0.06467 0.49018 0.0
C508 C 0.80986 0.09199 0.4559 0.0
C509 C 0.81302 0.07082 0.46977 0.0
C510 C 0.79504 0.04235 0.50499 0.0
C511 C 0.81384 0.09894 0.56512 0.0
C512 C 0.79136 0.0997 0.5857 0.0
C513 C 0.81467 0.07985 0.54792 0.0
C514 C 0.79289 0.06132 0.55101 0.0
C515 C 0.76989 0.08111 0.58901 0.0
C516 C 0.77077 0.06202 0.5719 0.0
C517 C 0.79371 0.04075 0.53331 0.0
C518 C 0.81944 0.93944 0.55614 0.0
C519 C 0.79735 0.93569 0.57668 0.0
C520 C 0.81882 0.96002 0.54096 0.0
C521 C 0.7958 0.97701 0.5459 0.0
C522 C 0.77453 0.95266 0.58178 0.0
C523 C 0.77385 0.97319 0.56658 0.0
C524 C 0.79539 0.99934 0.53077 0.0
C525 C 0.77426 0.94339 0.47078 0.0
C526 C 0.79869 0.94068 0.45212 0.0
C527 C 0.77362 0.96304 0.4871 0.0
C528 C 0.79743 0.98025 0.48499 0.0
C529 C 0.82215 0.95806 0.44965 0.0
C530 C 0.82136 0.97781 0.46582 0.0
C531 C 0.79724 1.00093 0.50247 0.0
H532 H 0.74382 0.11215 0.48688 0.0
H533 H 0.74903 0.07503 0.51094 0.0
H534 H 0.82675 0.09663 0.44044 0.0
H535 H 0.8324 0.0594 0.46484 0.0
H536 H 0.83077 0.11307 0.56247 0.0
H537 H 0.83251 0.07945 0.53241 0.0
H538 H 0.75252 0.08139 0.60492 0.0
H539 H 0.75396 0.04786 0.57483 0.0
H540 H 0.83739 0.92656 0.55214 0.0
H541 H 0.83666 0.9628 0.52572 0.0
H542 H 0.75742 0.95005 0.59766 0.0
H543 H 0.75609 0.98612 0.57095 0.0
H544 H 0.75586 0.93021 0.47283 0.0
H545 H 0.75454 0.9648 0.50137 0.0
H546 H 0.84112 0.95626 0.43529 0.0
H547 H 0.83978 0.99098 0.46373 0.0
N548 N 0.7971 0.02238 0.49066 0.0
N549 N 0.79363 0.01932 0.54503 0.0
C550 C 0.47522 0.28145 0.92579 0.0
C551 C 0.45247 0.26379 0.92175 0.0
C552 C 0.49357 0.28186 0.94937 0.0
C553 C 0.48953 0.26452 0.96918 0.0
C554 C 0.44809 0.24667 0.94166 0.0
C555 C 0.46633 0.24713 0.96527 0.0
C556 C 0.50849 0.26483 0.99441 0.0
C557 C 0.57766 0.25076 0.92813 0.0
C558 C 0.60109 0.26809 0.92516 0.0
C559 C 0.55815 0.25047 0.95071 0.0
C560 C 0.56169 0.26761 0.97054 0.0
C561 C 0.60485 0.28507 0.94504 0.0
C562 C 0.58542 0.28475 0.96762 0.0
C563 C 0.54197 0.26718 0.99502 0.0
C564 C 0.57436 0.2486 0.11117 0.0
C565 C 0.59898 0.26492 0.11479 0.0
C566 C 0.55539 0.24926 0.08797 0.0
C567 C 0.56047 0.26648 0.06819 0.0
C568 C 0.60431 0.282 0.09502 0.0
C569 C 0.58529 0.2827 0.07183 0.0
C570 C 0.54135 0.26686 0.04299 0.0
C571 C 0.47322 0.2813 0.10952 0.0
C572 C 0.45026 0.26373 0.11312 0.0
C573 C 0.49203 0.28169 0.08653 0.0
C574 C 0.48819 0.26445 0.06687 0.0
C575 C 0.44605 0.24673 0.09332 0.0
C576 C 0.46472 0.24719 0.07027 0.0
C577 C 0.50785 0.26468 0.04236 0.0
H578 H 0.4787 0.2949 0.9107 0.0
H579 H 0.51072 0.2958 0.95222 0.0
H580 H 0.43053 0.23298 0.93889 0.0
H581 H 0.46259 0.23374 0.98038 0.0
H582 H 0.5747 0.2374 0.91308 0.0
H583 H 0.54063 0.23668 0.95286 0.0
H584 H 0.62297 0.29847 0.94311 0.0
H585 H 0.58881 0.29797 0.98278 0.0
H586 H 0.57015 0.23517 0.12615 0.0
H587 H 0.53713 0.23606 0.0853 0.0
H588 H 0.62336 0.29464 0.09748 0.0
H589 H 0.58992 0.29596 0.05674 0.0
H590 H 0.47658 0.29465 0.12453 0.0
H591 H 0.50943 0.29552 0.08404 0.0
H592 H 0.42832 0.23311 0.09576 0.0
H593 H 0.46116 0.23387 0.05525 0.0
N594 N 0.49277 0.26356 0.01811 0.0
N595 N 0.55704 0.26821 0.01928 0.0
C596 C 0.17632 0.40542 0.31761 0.0
C597 C 0.16398 0.38449 0.30648 0.0
C598 C 0.11108 0.40183 0.30243 0.0
C599 C 0.12331 0.42275 0.31346 0.0
N600 N 0.16561 0.44357 0.33599 0.0
N601 N 0.11859 0.36246 0.28955 0.0
C602 C 0.15543 0.42429 0.32235 0.0
C603 C 0.13126 0.38254 0.29952 0.0
N604 N 0.20823 0.4075 0.32271 0.0
N605 N 0.07996 0.40022 0.29444 0.0
H606 H 0.13142 0.34726 0.28677 0.0
H607 H 0.13142 0.34726 0.28677 0.0
H608 H 0.06404 0.41394 0.29591 0.0
H609 H 0.07019 0.38508 0.28622 0.0
H610 H 0.21951 0.42304 0.3278 0.0
H611 H 0.22404 0.39381 0.32036 0.0
H612 H 0.18766 0.44496 0.34552 0.0
H613 H 0.15099 0.45775 0.33957 0.0
C614 C 0.17429 0.63832 0.72794 0.0
C615 C 0.1626 0.66135 0.7262 0.0
C616 C 0.10988 0.64624 0.71341 0.0
C617 C 0.12071 0.62327 0.71827 0.0
N618 N 0.16184 0.59746 0.73425 0.0
N619 N 0.1185 0.68751 0.72056 0.0
C620 C 0.15259 0.61929 0.72657 0.0
C621 C 0.13017 0.66542 0.71971 0.0
N622 N 0.20626 0.63464 0.73028 0.0
N623 N 0.0805 0.64969 0.70216 0.0
H624 H 0.13266 0.70201 0.7249 0.0
H625 H 0.09439 0.69129 0.719 0.0
H626 H 0.06503 0.63604 0.6973 0.0
H627 H 0.07253 0.66586 0.69553 0.0
H628 H 0.2165 0.61829 0.72877 0.0
H629 H 0.22292 0.64818 0.73121 0.0
H630 H 0.18371 0.59399 0.74333 0.0
H631 H 0.14664 0.58303 0.73378 0.0
C632 C 0.86473 0.63418 0.3283 0.0
C633 C 0.8762 0.65735 0.33067 0.0
C634 C 0.92961 0.64234 0.33942 0.0
C635 C 0.91942 0.62013 0.33033 0.0
N636 N 0.87652 0.59463 0.31617 0.0
N637 N 0.91182 0.67703 0.36117 0.0
C638 C 0.88666 0.61584 0.32516 0.0
C639 C 0.90678 0.66015 0.34252 0.0
N640 N 0.83326 0.6295 0.33221 0.0
N641 N 0.96088 0.64647 0.34544 0.0
H642 H 0.89287 0.68626 0.36907 0.0
H643 H 0.93299 0.6788 0.37205 0.0
H644 H 0.97817 0.63361 0.34473 0.0
H645 H 0.96971 0.66309 0.34952 0.0
H646 H 0.82388 0.61268 0.33325 0.0
H647 H 0.81753 0.64251 0.33778 0.0
H648 H 0.85331 0.59152 0.30951 0.0
H649 H 0.89183 0.58073 0.31327 0.0
C650 C 0.92693 0.37368 0.71935 0.0
C651 C 0.89547 0.37359 0.70879 0.0
C652 C 0.90052 0.41494 0.69691 0.0
C653 C 0.93114 0.4154 0.70911 0.0
N654 N 0.97197 0.39649 0.73542 0.0
N655 N 0.8503 0.39439 0.69109 0.0
C656 C 0.94394 0.3951 0.72132 0.0
C657 C 0.88167 0.39432 0.69858 0.0
N658 N 0.94082 0.35317 0.72681 0.0
N659 N 0.8899 0.43401 0.683 0.0
H660 H 0.83592 0.37952 0.69162 0.0
H661 H 0.83783 0.40944 0.68631 0.0
H662 H 0.90289 0.44951 0.68162 0.0
H663 H 0.86938 0.43399 0.67114 0.0
H664 H 0.96481 0.35166 0.73176 0.0
H665 H 0.92886 0.3372 0.72621 0.0
H666 H 0.98086 0.38299 0.74728 0.0
H667 H 0.98531 0.41181 0.73699 0.0
C668 C 0.24172 0.14948 0.39761 0.0
C669 C 0.25554 0.17031 0.40771 0.0
C670 C 0.27368 0.14973 0.44845 0.0
C671 C 0.25961 0.12895 0.43845 0.0
N672 N 0.22765 0.10888 0.40542 0.0
N673 N 0.28772 0.19035 0.44059 0.0
C674 C 0.24308 0.12874 0.41343 0.0
C675 C 0.27228 0.17048 0.43262 0.0
N676 N 0.22798 0.14952 0.37256 0.0
N677 N 0.28752 0.14966 0.47345 0.0
H678 H 0.28673 0.20592 0.42971 0.0
H679 H 0.30298 0.19137 0.45709 0.0
H680 H 0.28998 0.13462 0.48514 0.0
H681 H 0.29529 0.1645 0.48343 0.0
H682 H 0.22041 0.13465 0.36254 0.0
H683 H 0.22555 0.16453 0.36085 0.0
H684 H 0.21237 0.10789 0.38892 0.0
H685 H 0.22866 0.09327 0.41622 0.0
C686 C 0.41048 0.81427 0.86069 0.0
C687 C 0.38415 0.79886 0.85805 0.0
C688 C 0.38955 0.78871 0.90576 0.0
C689 C 0.41983 0.79986 0.90641 0.0
N690 N 0.43926 0.8376 0.89265 0.0
N691 N 0.3473 0.77183 0.87869 0.0
C692 C 0.42536 0.81687 0.88615 0.0
C693 C 0.37319 0.78623 0.88081 0.0
N694 N 0.42155 0.8264 0.83897 0.0
N695 N 0.37428 0.78403 0.92927 0.0
H696 H 0.33386 0.77023 0.86107 0.0
H697 H 0.34057 0.76036 0.89398 0.0
H698 H 0.38362 0.78946 0.94771 0.0
H699 H 0.35092 0.77791 0.93018 0.0
H700 H 0.44246 0.83627 0.83975 0.0
H701 H 0.41135 0.82504 0.81984 0.0
H702 H 0.44142 0.8514 0.87904 0.0
H703 H 0.44357 0.84212 0.91264 0.0
C704 C 0.79817 0.90113 0.39101 0.0
C705 C 0.80283 0.87909 0.40342 0.0
C706 C 0.80744 0.89771 0.44745 0.0
C707 C 0.79991 0.91943 0.43533 0.0
N708 N 0.78235 0.94123 0.3964 0.0
N709 N 0.80582 0.85573 0.44385 0.0
C710 C 0.79364 0.92099 0.40731 0.0
C711 C 0.80573 0.87718 0.43179 0.0
N712 N 0.79915 0.90322 0.36365 0.0
N713 N 0.8173 0.89678 0.4737 0.0
H714 H 0.80433 0.84026 0.43309 0.0
H715 H 0.80442 0.85327 0.46455 0.0
H716 H 0.81915 0.91145 0.48582 0.0
H717 H 0.82637 0.88183 0.48278 0.0
H718 H 0.79938 0.91918 0.3536 0.0
H719 H 0.80253 0.8891 0.35103 0.0
H720 H 0.77413 0.94267 0.37666 0.0
H721 H 0.77848 0.9561 0.40772 0.0
C722 C 0.63185 0.27631 0.85383 0.0
C723 C 0.66472 0.27219 0.85807 0.0
C724 C 0.65456 0.26141 0.90498 0.0
C725 C 0.62245 0.26826 0.90158 0.0
N726 N 0.58078 0.28443 0.87372 0.0
N727 N 0.70836 0.26324 0.88811 0.0
C728 C 0.61106 0.27617 0.87619 0.0
C729 C 0.67636 0.26527 0.88375 0.0
N730 N 0.62049 0.27994 0.82833 0.0
N731 N 0.664 0.25069 0.92832 0.0
H732 H 0.72509 0.26555 0.87298 0.0
H733 H 0.71856 0.26097 0.90708 0.0
H734 H 0.64864 0.24753 0.94428 0.0
H735 H 0.68617 0.24308 0.93099 0.0
H736 H 0.59638 0.28062 0.82349 0.0
H737 H 0.63514 0.28032 0.81154 0.0
H738 H 0.57221 0.29285 0.85657 0.0
H739 H 0.56476 0.28444 0.88957 0.0
C740 C 0.23196 0.8808 0.60462 0.0
C741 C 0.2579 0.87472 0.62166 0.0
C742 C 0.28546 0.91096 0.60922 0.0
C743 C 0.26084 0.91594 0.59039 0.0
N744 N 0.21381 0.9034 0.56624 0.0
N745 N 0.3119 0.88169 0.63647 0.0
C746 C 0.23499 0.9002 0.58693 0.0
C747 C 0.28543 0.88914 0.6229 0.0
N748 N 0.20396 0.86862 0.60607 0.0
N749 N 0.30823 0.92739 0.61479 0.0
H750 H 0.31288 0.86572 0.64653 0.0
H751 H 0.33374 0.89033 0.63572 0.0
H752 H 0.30896 0.94364 0.60533 0.0
H753 H 0.32472 0.92572 0.63042 0.0
H754 H 0.18319 0.87382 0.59627 0.0
H755 H 0.20058 0.85447 0.61902 0.0
H756 H 0.19647 0.89117 0.56102 0.0
H757 H 0.21541 0.91729 0.55268 0.0
C758 C 0.65391 0.75181 0.171 0.0
C759 C 0.64714 0.76838 0.19104 0.0
C760 C 0.60089 0.78087 0.16446 0.0
C761 C 0.61321 0.76916 0.14192 0.0
N762 N 0.65121 0.74237 0.12385 0.0
N763 N 0.60048 0.7824 0.21295 0.0
C764 C 0.63961 0.75422 0.14521 0.0
C765 C 0.61647 0.77844 0.18977 0.0
N766 N 0.66861 0.73158 0.17792 0.0
N767 N 0.57472 0.7946 0.16171 0.0
H768 H 0.60976 0.77732 0.23162 0.0
H769 H 0.57686 0.78767 0.21339 0.0
H770 H 0.56206 0.7963 0.14368 0.0
H771 H 0.56694 0.80543 0.17693 0.0
H772 H 0.67175 0.71799 0.16451 0.0
H773 H 0.67276 0.72712 0.19802 0.0
H774 H 0.67229 0.73299 0.125 0.0
H775 H 0.64101 0.74328 0.10468 0.0
C776 C 0.79597 0.13467 0.65011 0.0
C777 C 0.7837 0.15633 0.64117 0.0
C778 C 0.777 0.14112 0.59557 0.0
C779 C 0.79044 0.11976 0.60428 0.0
N780 N 0.81868 0.09762 0.63806 0.0
N781 N 0.76814 0.18191 0.60489 0.0
C782 C 0.80174 0.11697 0.63106 0.0
C783 C 0.77598 0.16009 0.61368 0.0
N784 N 0.8011 0.13076 0.67693 0.0
N785 N 0.76401 0.14295 0.57035 0.0
H786 H 0.76677 0.19611 0.61772 0.0
H787 H 0.76556 0.1864 0.58469 0.0
H788 H 0.76452 0.12951 0.55642 0.0
H789 H 0.75071 0.15712 0.5638 0.0
H790 H 0.80638 0.11449 0.68507 0.0
H791 H 0.79792 0.14348 0.69145 0.0
H792 H 0.8304 0.09562 0.65644 0.0
H793 H 0.82341 0.08432 0.62459 0.0
C794 C 0.42546 0.25696 0.18626 0.0
C795 C 0.39209 0.25987 0.18382 0.0
C796 C 0.39771 0.26863 0.1358 0.0
C797 C 0.43045 0.26306 0.13767 0.0
N798 N 0.47485 0.24867 0.16378 0.0
N799 N 0.34557 0.26518 0.15576 0.0
C800 C 0.44421 0.25639 0.16269 0.0
C801 C 0.37794 0.26488 0.15845 0.0
N802 N 0.43932 0.25538 0.21115 0.0
N803 N 0.3857 0.27812 0.1126 0.0
H804 H 0.33025 0.2625 0.17185 0.0
H805 H 0.33386 0.26615 0.13726 0.0
H806 H 0.3995 0.28123 0.09564 0.0
H807 H 0.36285 0.28482 0.11093 0.0
H808 H 0.46382 0.25572 0.21433 0.0
H809 H 0.42635 0.25583 0.22888 0.0
H810 H 0.48504 0.24116 0.18088 0.0
H811 H 0.48938 0.24793 0.14697 0.0
C812 C 0.91487 0.65984 0.74151 0.0
C813 C 0.88618 0.66119 0.72634 0.0
C814 C 0.89863 0.62471 0.70373 0.0
C815 C 0.92771 0.6237 0.71837 0.0
N816 N 0.96657 0.64195 0.74737 0.0
N817 N 0.85318 0.64772 0.68974 0.0
C818 C 0.93679 0.64184 0.73607 0.0
C819 C 0.87882 0.64446 0.7064 0.0
N820 N 0.92055 0.67527 0.7618 0.0
N821 N 0.88952 0.60642 0.68795 0.0
H822 H 0.838 0.66187 0.69137 0.0
H823 H 0.8483 0.63753 0.67299 0.0
H824 H 0.90387 0.59201 0.68483 0.0
H825 H 0.86702 0.60476 0.67926 0.0
H826 H 0.9391 0.67364 0.77566 0.0
H827 H 0.90543 0.68902 0.76597 0.0
H828 H 0.97597 0.65586 0.75817 0.0
H829 H 0.983 0.62881 0.74417 0.0
C830 C 0.93073 0.37492 0.30485 0.0
C831 C 0.90118 0.37437 0.31837 0.0
C832 C 0.92103 0.4047 0.34847 0.0
C833 C 0.94583 0.4097 0.3302 0.0
N834 N 0.98555 0.38788 0.30721 0.0
N835 N 0.86857 0.38821 0.35449 0.0
C836 C 0.9543 0.39139 0.31282 0.0
C837 C 0.8965 0.38897 0.34078 0.0
N838 N 0.93613 0.36008 0.28416 0.0
N839 N 0.92386 0.41149 0.37455 0.0
H840 H 0.85006 0.37672 0.34974 0.0
H841 H 0.86321 0.4002 0.36934 0.0
H842 H 0.94494 0.41892 0.38188 0.0
H843 H 0.90772 0.40657 0.38934 0.0
H844 H 0.95592 0.36158 0.27181 0.0
H845 H 0.91993 0.34717 0.27839 0.0
H846 H 0.99363 0.37357 0.29665 0.0
H847 H 1.00354 0.3978 0.31629 0.0
C848 C 0.16125 0.39994 0.74583 0.0
C849 C 0.16412 0.38325 0.72517 0.0
C850 C 0.1223 0.4029 0.69908 0.0
C851 C 0.12185 0.42083 0.71848 0.0
N852 N 0.1449 0.4387 0.75789 0.0
N853 N 0.15105 0.37058 0.68032 0.0
C854 C 0.14245 0.41999 0.74121 0.0
C855 C 0.14562 0.38518 0.70126 0.0
N856 N 0.17563 0.39624 0.77023 0.0
N857 N 0.09985 0.40241 0.67904 0.0
H858 H 0.16792 0.35741 0.6812 0.0
H859 H 0.14077 0.37271 0.66136 0.0
H860 H 0.0824 0.41508 0.67683 0.0
H861 H 0.09682 0.38849 0.666 0.0
H862 H 0.17156 0.4065 0.78696 0.0
H863 H 0.18937 0.38165 0.77455 0.0
H864 H 0.16206 0.4401 0.77304 0.0
H865 H 0.13172 0.45382 0.75511 0.0
C866 C 0.12018 0.67003 0.30421 0.0
C867 C 0.1472 0.67152 0.32143 0.0
C868 C 0.13912 0.63097 0.33571 0.0
C869 C 0.11069 0.6301 0.32014 0.0
N870 N 0.07162 0.64929 0.29226 0.0
N871 N 0.18038 0.65486 0.35622 0.0
C872 C 0.10051 0.64978 0.3051 0.0
C873 C 0.15616 0.65236 0.33791 0.0
N874 N 0.11386 0.68776 0.28651 0.0
N875 N 0.15019 0.61117 0.34786 0.0
H876 H 0.19377 0.67013 0.3581 0.0
H877 H 0.18576 0.64249 0.37093 0.0
H878 H 0.13801 0.59529 0.34715 0.0
H879 H 0.17251 0.60996 0.35695 0.0
H880 H 0.09665 0.68673 0.27139 0.0
H881 H 0.12751 0.70298 0.28558 0.0
H882 H 0.06115 0.66385 0.28346 0.0
H883 H 0.05686 0.6346 0.29205 0.0
C884 C 0.78809 0.87239 0.599 0.0
C885 C 0.80009 0.87362 0.62571 0.0
C886 C 0.81266 0.91503 0.61942 0.0
C887 C 0.79856 0.91421 0.59342 0.0
N888 N 0.76911 0.89326 0.55946 0.0
N889 N 0.81978 0.8963 0.66291 0.0
C890 C 0.78525 0.89318 0.58345 0.0
C891 C 0.81123 0.89502 0.63638 0.0
N892 N 0.7801 0.85127 0.58833 0.0
N893 N 0.82832 0.93475 0.62755 0.0
H894 H 0.81971 0.8819 0.67579 0.0
H895 H 0.82466 0.91187 0.67271 0.0
H896 H 0.82966 0.94981 0.61577 0.0
H897 H 0.84211 0.93568 0.64499 0.0
H898 H 0.77465 0.84879 0.56812 0.0
H899 H 0.78104 0.83577 0.59936 0.0
H900 H 0.75585 0.87918 0.5524 0.0
H901 H 0.76699 0.90807 0.54734 0.0
C902 C 0.62743 0.26905 0.18753 0.0
C903 C 0.65866 0.26015 0.18544 0.0
C904 C 0.65026 0.25348 0.13728 0.0
C905 C 0.61977 0.26369 0.13905 0.0
N906 N 0.5809 0.28441 0.1645 0.0
N907 N 0.70197 0.24741 0.15807 0.0
C908 C 0.60879 0.27242 0.16382 0.0
C909 C 0.67072 0.25341 0.1602 0.0
N910 N 0.6153 0.27362 0.21229 0.0
N911 N 0.65919 0.24312 0.11395 0.0
H912 H 0.71754 0.24685 0.1745 0.0
H913 H 0.71317 0.2448 0.13981 0.0
H914 H 0.645 0.24301 0.09665 0.0
H915 H 0.67952 0.23307 0.11226 0.0
H916 H 0.59156 0.27759 0.21551 0.0
H917 H 0.62849 0.27186 0.23003 0.0
H918 H 0.57319 0.29338 0.18126 0.0
H919 H 0.56646 0.28695 0.14759 0.0
C920 C 0.25334 0.16822 0.59691 0.0
C921 C 0.25577 0.16671 0.62533 0.0
C922 C 0.26522 0.12479 0.62235 0.0
C923 C 0.25924 0.12591 0.59426 0.0
N924 N 0.24244 0.14801 0.55527 0.0
N925 N 0.25892 0.14312 0.66558 0.0
C926 C 0.2519 0.14746 0.58163 0.0
C927 C 0.26035 0.14486 0.63821 0.0
N928 N 0.25337 0.1895 0.58446 0.0
N929 N 0.27651 0.10475 0.63375 0.0
H930 H 0.25524 0.1574 0.67791 0.0
H931 H 0.25861 0.1273 0.67591 0.0
H932 H 0.28065 0.08974 0.62274 0.0
H933 H 0.2845 0.10363 0.65358 0.0
H934 H 0.25508 0.19168 0.56373 0.0
H935 H 0.25465 0.20511 0.59495 0.0
H936 H 0.23353 0.16283 0.5458 0.0
H937 H 0.2408 0.13317 0.54341 0.0
C938 C 0.41794 0.76103 0.18157 0.0
C939 C 0.38626 0.76892 0.17837 0.0
C940 C 0.39864 0.78374 0.1333 0.0
C941 C 0.42908 0.77343 0.13532 0.0
N942 N 0.46719 0.75041 0.16009 0.0
N943 N 0.34502 0.78561 0.15048 0.0
C944 C 0.43871 0.76168 0.15919 0.0
C945 C 0.37624 0.77982 0.15408 0.0
N946 N 0.42828 0.75334 0.20618 0.0
N947 N 0.39142 0.79768 0.11174 0.0
H948 H 0.32797 0.78337 0.16536 0.0
H949 H 0.33545 0.79107 0.13214 0.0
H950 H 0.40722 0.80085 0.09608 0.0
H951 H 0.37097 0.8077 0.11041 0.0
H952 H 0.45193 0.74962 0.21063 0.0
H953 H 0.41359 0.75248 0.22293 0.0
H954 H 0.47403 0.73933 0.1757 0.0
H955 H 0.48324 0.75082 0.14426 0.0
C956 C 0.75733 0.1531 0.41193 0.0
C957 C 0.77578 0.17257 0.42028 0.0
C958 C 0.79278 0.15042 0.4601 0.0
C959 C 0.78147 0.12971 0.44785 0.0
N960 N 0.75141 0.11126 0.4122 0.0
N961 N 0.78645 0.19205 0.46204 0.0
C962 C 0.76323 0.131 0.42378 0.0
C963 C 0.78671 0.17213 0.44736 0.0
N964 N 0.73048 0.15642 0.3969 0.0
N965 N 0.80979 0.14942 0.48359 0.0
H966 H 0.77701 0.20744 0.4542 0.0
H967 H 0.7913 0.19246 0.4826 0.0
H968 H 0.81437 0.13386 0.4938 0.0
H969 H 0.82124 0.16391 0.49178 0.0
H970 H 0.71455 0.14304 0.39216 0.0
H971 H 0.72181 0.17309 0.39304 0.0
H972 H 0.74058 0.11133 0.39326 0.0
H973 H 0.75437 0.09474 0.42066 0.0
C974 C 0.42834 0.25694 0.84814 0.0
C975 C 0.39494 0.25979 0.84974 0.0
C976 C 0.40018 0.26875 0.89766 0.0
C977 C 0.43295 0.2632 0.8967 0.0
N978 N 0.47764 0.24892 0.87195 0.0
N979 N 0.34821 0.26521 0.87659 0.0
C980 C 0.44694 0.25652 0.87215 0.0
C981 C 0.3806 0.26491 0.87466 0.0
N982 N 0.44237 0.25523 0.8236 0.0
N983 N 0.38798 0.27828 0.92036 0.0
H984 H 0.33301 0.26248 0.86022 0.0
H985 H 0.33635 0.26623 0.89479 0.0
H986 H 0.40164 0.28144 0.93757 0.0
H987 H 0.36511 0.28497 0.92135 0.0
H988 H 0.46688 0.25559 0.82095 0.0
H989 H 0.4295 0.25556 0.80558 0.0
H990 H 0.48801 0.24139 0.85528 0.0
H991 H 0.49207 0.24835 0.8891 0.0
C992 C 0.25691 0.90628 0.38549 0.0
C993 C 0.27126 0.88523 0.39414 0.0
C994 C 0.28107 0.90159 0.43884 0.0
C995 C 0.26571 0.92234 0.43046 0.0
N996 N 0.23384 0.94314 0.39792 0.0
N997 N 0.29193 0.86101 0.42983 0.0
C998 C 0.25202 0.92427 0.40439 0.0
C999 C 0.28178 0.88233 0.42111 0.0
N1000 N 0.249 0.90938 0.35899 0.0
N1001 N 0.29595 0.90065 0.46338 0.0
H1002 H 0.29312 0.84663 0.41726 0.0
H1003 H 0.29679 0.85702 0.44988 0.0
H1004 H 0.29533 0.91422 0.47713 0.0
H1005 H 0.31066 0.88711 0.4695 0.0
H1006 H 0.24199 0.92525 0.35076 0.0
H1007 H 0.25149 0.89641 0.34466 0.0
H1008 H 0.2204 0.94449 0.38032 0.0
H1009 H 0.23004 0.95676 0.4112 0.0
C1010 C 0.67167 0.77838 0.877 0.0
C1011 C 0.65799 0.7856 0.85215 0.0
C1012 C 0.60675 0.79134 0.8741 0.0
C1013 C 0.61979 0.78239 0.89844 0.0
N1014 N 0.66272 0.76318 0.92189 0.0
N1015 N 0.61127 0.79459 0.82572 0.0
C1016 C 0.65172 0.77466 0.89955 0.0
C1017 C 0.62512 0.7908 0.85031 0.0
N1018 N 0.70387 0.77592 0.87935 0.0
N1019 N 0.57727 0.80116 0.87391 0.0
H1020 H 0.62393 0.79419 0.80782 0.0
H1021 H 0.58682 0.79602 0.82282 0.0
H1022 H 0.56309 0.80199 0.89093 0.0
H1023 H 0.56797 0.81027 0.8575 0.0
H1024 H 0.71555 0.77322 0.89764 0.0
H1025 H 0.71932 0.77852 0.86333 0.0
H1026 H 0.68466 0.75497 0.92281 0.0
H1027 H 0.64875 0.76003 0.93875 0.0
loop_
_geom_bond_atom_site_label_1
_geom_bond_atom_site_label_2
_geom_bond_distance
_geom_bond_site_symmetry_2
_ccdc_geom_bond_type
C0 C1 1.264 . S
C0 C5 1.479 . S
C0 C10 1.465 . S
C1 C0 1.264 . S
C1 C3 1.339 . S
C1 H28 0.931 . S
C2 C3 1.395 . S
C2 C4 1.320 . S
C3 C1 1.339 . S
C3 C2 1.395 . S
C3 H29 0.929 . S
C4 C2 1.320 . S
C4 C5 1.405 . S
C4 H30 0.930 . S
C5 C0 1.479 . S
C5 C4 1.405 . S
C5 H31 0.931 . S
U6 O7 2.454 . S
U6 O8 2.458 . S
U6 C9 2.984 . S
U6 C10 2.847 . S
U6 C23 2.882 . S
U6 O24 2.441 . S
U6 O25 2.420 . S
U6 O26 2.455 . S
U6 O27 2.449 . S
O7 U6 2.454 . S
O7 C9 1.353 . S
O8 U6 2.458 . S
O8 C9 1.286 . S
C9 U6 2.984 . S
C9 O7 1.353 . S
C9 O8 1.286 . S
C9 C11 1.363 . S
C10 C0 1.465 . S
C10 U6 2.847 . S
C10 O24 1.249 . S
C10 O25 1.202 . S
C11 C9 1.363 . S
C11 C13 1.408 . S
C11 C16 1.342 . S
C12 C13 1.310 . S
C12 C15 1.461 . S
C12 H32 0.932 . S
C13 C11 1.408 . S
C13 C12 1.310 . S
C13 H33 0.930 . S
C14 C15 1.474 . S
C14 C16 1.285 . S
C14 H34 0.929 . S
C15 C12 1.461 . S
C15 C14 1.474 . S
C16 C11 1.342 . S
C16 C14 1.285 . S
C16 H35 0.930 . S
C17 C20 1.424 . S
C17 C22 1.245 . S
C17 C23 1.428 . S
C18 C21 1.260 . S
C18 C22 1.477 . S
C18 H36 0.932 . S
C19 C20 1.384 . S
C19 C21 1.479 . S
C19 H37 0.929 . S
C20 C17 1.424 . S
C20 C19 1.384 . S
C20 H38 0.928 . S
C21 C18 1.260 . S
C21 C19 1.479 . S
C22 C17 1.245 . S
C22 C18 1.477 . S
C22 H39 0.932 . S
C23 U6 2.882 . S
C23 C17 1.428 . S
C23 O26 1.301 . S
C23 O27 1.282 . S
O24 U6 2.441 . S
O24 C10 1.249 . S
O25 U6 2.420 . S
O25 C10 1.202 . S
O26 U6 2.455 . S
O26 C23 1.301 . S
O27 U6 2.449 . S
O27 C23 1.282 . S
H28 C1 0.931 . S
H29 C3 0.929 . S
H30 C4 0.930 . S
H31 C5 0.931 . S
H32 C12 0.932 . S
H33 C13 0.930 . S
H34 C14 0.929 . S
H35 C16 0.930 . S
H36 C18 0.932 . S
H37 C19 0.929 . S
H38 C20 0.928 . S
H39 C22 0.932 . S
C40 C41 1.264 . S
C40 C45 1.479 . S
C40 C50 1.465 . S
C41 C40 1.264 . S
C41 C43 1.339 . S
C41 H68 0.931 . S
C42 C43 1.395 . S
C42 C44 1.320 . S
C43 C41 1.339 . S
C43 C42 1.395 . S
C43 H69 0.929 . S
C44 C42 1.320 . S
C44 C45 1.405 . S
C44 H70 0.930 . S
C45 C40 1.479 . S
C45 C44 1.405 . S
C45 H71 0.931 . S
U46 O47 2.454 . S
U46 O48 2.458 . S
U46 C49 2.984 . S
U46 C50 2.847 . S
U46 C63 2.882 . S
U46 O64 2.441 . S
U46 O65 2.420 . S
U46 O66 2.455 . S
U46 O67 2.449 . S
O47 U46 2.454 . S
O47 C49 1.353 . S
O48 U46 2.458 . S
O48 C49 1.286 . S
C49 U46 2.984 . S
C49 O47 1.353 . S
C49 O48 1.286 . S
C49 C51 1.363 . S
C50 C40 1.465 . S
C50 U46 2.847 . S
C50 O64 1.249 . S
C50 O65 1.202 . S
C51 C49 1.363 . S
C51 C53 1.408 . S
C51 C56 1.342 . S
C52 C53 1.310 . S
C52 C55 1.461 . S
C52 H72 0.932 . S
C53 C51 1.408 . S
C53 C52 1.310 . S
C53 H73 0.930 . S
C54 C55 1.474 . S
C54 C56 1.285 . S
C54 H74 0.929 . S
C55 C52 1.461 . S
C55 C54 1.474 . S
C56 C51 1.342 . S
C56 C54 1.285 . S
C56 H75 0.930 . S
C57 C60 1.424 . S
C57 C62 1.245 . S
C57 C63 1.428 . S
C58 C61 1.260 . S
C58 C62 1.477 . S
C58 H76 0.932 . S
C59 C60 1.384 . S
C59 C61 1.479 . S
C59 H77 0.929 . S
C60 C57 1.424 . S
C60 C59 1.384 . S
C60 H78 0.928 . S
C61 C58 1.260 . S
C61 C59 1.479 . S
C62 C57 1.245 . S
C62 C58 1.477 . S
C62 H79 0.932 . S
C63 U46 2.882 . S
C63 C57 1.428 . S
C63 O66 1.301 . S
C63 O67 1.282 . S
O64 U46 2.441 . S
O64 C50 1.249 . S
O65 U46 2.420 . S
O65 C50 1.202 . S
O66 U46 2.455 . S
O66 C63 1.301 . S
O67 U46 2.449 . S
O67 C63 1.282 . S
H68 C41 0.931 . S
H69 C43 0.929 . S
H70 C44 0.930 . S
H71 C45 0.931 . S
H72 C52 0.932 . S
H73 C53 0.930 . S
H74 C54 0.929 . S
H75 C56 0.930 . S
H76 C58 0.932 . S
H77 C59 0.929 . S
H78 C60 0.928 . S
H79 C62 0.932 . S
C80 C81 1.264 . S
C80 C85 1.479 . S
C80 C90 1.465 . S
C81 C80 1.264 . S
C81 C83 1.339 . S
C81 H108 0.931 . S
C82 C83 1.395 . S
C82 C84 1.320 . S
C83 C81 1.339 . S
C83 C82 1.395 . S
C83 H109 0.929 . S
C84 C82 1.320 . S
C84 C85 1.405 . S
C84 H110 0.930 . S
C85 C80 1.479 . S
C85 C84 1.405 . S
C85 H111 0.931 . S
U86 O87 2.454 . S
U86 O88 2.458 . S
U86 C89 2.984 . S
U86 C90 2.847 . S
U86 C103 2.882 . S
U86 O104 2.441 . S
U86 O105 2.420 . S
U86 O106 2.455 . S
U86 O107 2.449 . S
O87 U86 2.454 . S
O87 C89 1.353 . S
O88 U86 2.458 . S
O88 C89 1.286 . S
C89 U86 2.984 . S
C89 O87 1.353 . S
C89 O88 1.286 . S
C89 C91 1.363 . S
C90 C80 1.465 . S
C90 U86 2.847 . S
C90 O104 1.249 . S
C90 O105 1.202 . S
C91 C89 1.363 . S
C91 C93 1.408 . S
C91 C96 1.342 . S
C92 C93 1.310 . S
C92 C95 1.461 . S
C92 H112 0.932 . S
C93 C91 1.408 . S
C93 C92 1.310 . S
C93 H113 0.930 . S
C94 C95 1.474 . S
C94 C96 1.285 . S
C94 H114 0.929 . S
C95 C92 1.461 . S
C95 C94 1.474 . S
C96 C91 1.342 . S
C96 C94 1.285 . S
C96 H115 0.930 . S
C97 C100 1.424 . S
C97 C102 1.245 . S
C97 C103 1.428 . S
C98 C101 1.260 . S
C98 C102 1.477 . S
C98 H116 0.932 . S
C99 C100 1.384 . S
C99 C101 1.479 . S
C99 H117 0.929 . S
C100 C97 1.424 . S
C100 C99 1.384 . S
C100 H118 0.928 . S
C101 C98 1.260 . S
C101 C99 1.479 . S
C102 C97 1.245 . S
C102 C98 1.477 . S
C102 H119 0.932 . S
C103 U86 2.882 . S
C103 C97 1.428 . S
C103 O106 1.301 . S
C103 O107 1.282 . S
O104 U86 2.441 . S
O104 C90 1.249 . S
O105 U86 2.420 . S
O105 C90 1.202 . S
O106 U86 2.455 . S
O106 C103 1.301 . S
O107 U86 2.449 . S
O107 C103 1.282 . S
H108 C81 0.931 . S
H109 C83 0.929 . S
H110 C84 0.930 . S
H111 C85 0.931 . S
H112 C92 0.932 . S
H113 C93 0.930 . S
H114 C94 0.929 . S
H115 C96 0.930 . S
H116 C98 0.932 . S
H117 C99 0.929 . S
H118 C100 0.928 . S
H119 C102 0.932 . S
C120 C121 1.264 . S
C120 C125 1.479 . S
C120 C130 1.465 . S
C121 C120 1.264 . S
C121 C123 1.339 . S
C121 H148 0.931 . S
C122 C123 1.395 . S
C122 C124 1.320 . S
C123 C121 1.339 . S
C123 C122 1.395 . S
C123 H149 0.929 . S
C124 C122 1.320 . S
C124 C125 1.405 . S
C124 H150 0.930 . S
C125 C120 1.479 . S
C125 C124 1.405 . S
C125 H151 0.931 . S
U126 O127 2.454 . S
U126 O128 2.458 . S
U126 C129 2.984 . S
U126 C130 2.847 . S
U126 C143 2.882 . S
U126 O144 2.441 . S
U126 O145 2.420 . S
U126 O146 2.455 . S
U126 O147 2.449 . S
O127 U126 2.454 . S
O127 C129 1.353 . S
O128 U126 2.458 . S
O128 C129 1.286 . S
C129 U126 2.984 . S
C129 O127 1.353 . S
C129 O128 1.286 . S
C129 C131 1.363 . S
C130 C120 1.465 . S
C130 U126 2.847 . S
C130 O144 1.249 . S
C130 O145 1.202 . S
C131 C129 1.363 . S
C131 C133 1.408 . S
C131 C136 1.342 . S
C132 C133 1.310 . S
C132 C135 1.461 . S
C132 H152 0.932 . S
C133 C131 1.408 . S
C133 C132 1.310 . S
C133 H153 0.930 . S
C134 C135 1.474 . S
C134 C136 1.285 . S
C134 H154 0.929 . S
C135 C132 1.461 . S
C135 C134 1.474 . S
C136 C131 1.342 . S
C136 C134 1.285 . S
C136 H155 0.930 . S
C137 C140 1.424 . S
C137 C142 1.245 . S
C137 C143 1.428 . S
C138 C141 1.260 . S
C138 C142 1.477 . S
C138 H156 0.932 . S
C139 C140 1.384 . S
C139 C141 1.479 . S
C139 H157 0.929 . S
C140 C137 1.424 . S
C140 C139 1.384 . S
C140 H158 0.928 . S
C141 C138 1.260 . S
C141 C139 1.479 . S
C142 C137 1.245 . S
C142 C138 1.477 . S
C142 H159 0.932 . S
C143 U126 2.882 . S
C143 C137 1.428 . S
C143 O146 1.301 . S
C143 O147 1.282 . S
O144 U126 2.441 . S
O144 C130 1.249 . S
O145 U126 2.420 . S
O145 C130 1.202 . S
O146 U126 2.455 . S
O146 C143 1.301 . S
O147 U126 2.449 . S
O147 C143 1.282 . S
H148 C121 0.931 . S
H149 C123 0.929 . S
H150 C124 0.930 . S
H151 C125 0.931 . S
H152 C132 0.932 . S
H153 C133 0.930 . S
H154 C134 0.929 . S
H155 C136 0.930 . S
H156 C138 0.932 . S
H157 C139 0.929 . S
H158 C140 0.928 . S
H159 C142 0.932 . S
C160 C161 1.264 . S
C160 C165 1.479 . S
C160 C170 1.465 . S
C161 C160 1.264 . S
C161 C163 1.339 . S
C161 H188 0.931 . S
C162 C163 1.395 . S
C162 C164 1.320 . S
C163 C161 1.339 . S
C163 C162 1.395 . S
C163 H189 0.929 . S
C164 C162 1.320 . S
C164 C165 1.405 . S
C164 H190 0.930 . S
C165 C160 1.479 . S
C165 C164 1.405 . S
C165 H191 0.931 . S
U166 O167 2.454 . S
U166 O168 2.458 . S
U166 C169 2.984 . S
U166 C170 2.847 . S
U166 C183 2.882 . S
U166 O184 2.441 . S
U166 O185 2.420 . S
U166 O186 2.455 . S
U166 O187 2.449 . S
O167 U166 2.454 . S
O167 C169 1.353 . S
O168 U166 2.458 . S
O168 C169 1.286 . S
C169 U166 2.984 . S
C169 O167 1.353 . S
C169 O168 1.286 . S
C169 C171 1.363 . S
C170 C160 1.465 . S
C170 U166 2.847 . S
C170 O184 1.249 . S
C170 O185 1.202 . S
C171 C169 1.363 . S
C171 C173 1.408 . S
C171 C176 1.342 . S
C172 C173 1.310 . S
C172 C175 1.461 . S
C172 H192 0.932 . S
C173 C171 1.408 . S
C173 C172 1.310 . S
C173 H193 0.930 . S
C174 C175 1.474 . S
C174 C176 1.285 . S
C174 H194 0.929 . S
C175 C172 1.461 . S
C175 C174 1.474 . S
C176 C171 1.342 . S
C176 C174 1.285 . S
C176 H195 0.930 . S
C177 C180 1.424 . S
C177 C182 1.245 . S
C177 C183 1.428 . S
C178 C181 1.260 . S
C178 C182 1.477 . S
C178 H196 0.932 . S
C179 C180 1.384 . S
C179 C181 1.479 . S
C179 H197 0.929 . S
C180 C177 1.424 . S
C180 C179 1.384 . S
C180 H198 0.928 . S
C181 C178 1.260 . S
C181 C179 1.479 . S
C182 C177 1.245 . S
C182 C178 1.477 . S
C182 H199 0.932 . S
C183 U166 2.882 . S
C183 C177 1.428 . S
C183 O186 1.301 . S
C183 O187 1.282 . S
O184 U166 2.441 . S
O184 C170 1.249 . S
O185 U166 2.420 . S
O185 C170 1.202 . S
O186 U166 2.455 . S
O186 C183 1.301 . S
O187 U166 2.449 . S
O187 C183 1.282 . S
H188 C161 0.931 . S
H189 C163 0.929 . S
H190 C164 0.930 . S
H191 C165 0.931 . S
H192 C172 0.932 . S
H193 C173 0.930 . S
H194 C174 0.929 . S
H195 C176 0.930 . S
H196 C178 0.932 . S
H197 C179 0.929 . S
H198 C180 0.928 . S
H199 C182 0.932 . S
C200 C201 1.264 . S
C200 C205 1.479 . S
C200 C210 1.465 . S
C201 C200 1.264 . S
C201 C203 1.339 . S
C201 H228 0.931 . S
C202 C203 1.395 . S
C202 C204 1.320 . S
C203 C201 1.339 . S
C203 C202 1.395 . S
C203 H229 0.929 . S
C204 C202 1.320 . S
C204 C205 1.405 . S
C204 H230 0.930 . S
C205 C200 1.479 . S
C205 C204 1.405 . S
C205 H231 0.931 . S
U206 O207 2.454 . S
U206 O208 2.458 . S
U206 C209 2.984 . S
U206 C210 2.847 . S
U206 C223 2.882 . S
U206 O224 2.441 . S
U206 O225 2.420 . S
U206 O226 2.455 . S
U206 O227 2.449 . S
O207 U206 2.454 . S
O207 C209 1.353 . S
O208 U206 2.458 . S
O208 C209 1.286 . S
C209 U206 2.984 . S
C209 O207 1.353 . S
C209 O208 1.286 . S
C209 C211 1.363 . S
C210 C200 1.465 . S
C210 U206 2.847 . S
C210 O224 1.249 . S
C210 O225 1.202 . S
C211 C209 1.363 . S
C211 C213 1.408 . S
C211 C216 1.342 . S
C212 C213 1.310 . S
C212 C215 1.461 . S
C212 H232 0.932 . S
C213 C211 1.408 . S
C213 C212 1.310 . S
C213 H233 0.930 . S
C214 C215 1.474 . S
C214 C216 1.285 . S
C214 H234 0.929 . S
C215 C212 1.461 . S
C215 C214 1.474 . S
C216 C211 1.342 . S
C216 C214 1.285 . S
C216 H235 0.930 . S
C217 C220 1.424 . S
C217 C222 1.245 . S
C217 C223 1.428 . S
C218 C221 1.260 . S
C218 C222 1.477 . S
C218 H236 0.932 . S
C219 C220 1.384 . S
C219 C221 1.479 . S
C219 H237 0.929 . S
C220 C217 1.424 . S
C220 C219 1.384 . S
C220 H238 0.928 . S
C221 C218 1.260 . S
C221 C219 1.479 . S
C222 C217 1.245 . S
C222 C218 1.477 . S
C222 H239 0.932 . S
C223 U206 2.882 . S
C223 C217 1.428 . S
C223 O226 1.301 . S
C223 O227 1.282 . S
O224 U206 2.441 . S
O224 C210 1.249 . S
O225 U206 2.420 . S
O225 C210 1.202 . S
O226 U206 2.455 . S
O226 C223 1.301 . S
O227 U206 2.449 . S
O227 C223 1.282 . S
H228 C201 0.931 . S
H229 C203 0.929 . S
H230 C204 0.930 . S
H231 C205 0.931 . S
H232 C212 0.932 . S
H233 C213 0.930 . S
H234 C214 0.929 . S
H235 C216 0.930 . S
H236 C218 0.932 . S
H237 C219 0.929 . S
H238 C220 0.928 . S
H239 C222 0.932 . S
C240 C241 1.264 . S
C240 C245 1.479 . S
C240 C250 1.465 . S
C241 C240 1.264 . S
C241 C243 1.339 . S
C241 H268 0.931 . S
C242 C243 1.395 . S
C242 C244 1.320 . S
C243 C241 1.339 . S
C243 C242 1.395 . S
C243 H269 0.929 . S
C244 C242 1.320 . S
C244 C245 1.405 . S
C244 H270 0.930 . S
C245 C240 1.479 . S
C245 C244 1.405 . S
C245 H271 0.931 . S
U246 O247 2.454 . S
U246 O248 2.458 . S
U246 C249 2.984 . S
U246 C250 2.847 . S
U246 C263 2.882 . S
U246 O264 2.441 . S
U246 O265 2.420 . S
U246 O266 2.455 . S
U246 O267 2.449 . S
O247 U246 2.454 . S
O247 C249 1.353 . S
O248 U246 2.458 . S
O248 C249 1.286 . S
C249 U246 2.984 . S
C249 O247 1.353 . S
C249 O248 1.286 . S
C249 C251 1.363 . S
C250 C240 1.465 . S
C250 U246 2.847 . S
C250 O264 1.249 . S
C250 O265 1.202 . S
C251 C249 1.363 . S
C251 C253 1.408 . S
C251 C256 1.342 . S
C252 C253 1.310 . S
C252 C255 1.461 . S
C252 H272 0.932 . S
C253 C251 1.408 . S
C253 C252 1.310 . S
C253 H273 0.930 . S
C254 C255 1.474 . S
C254 C256 1.285 . S
C254 H274 0.929 . S
C255 C252 1.461 . S
C255 C254 1.474 . S
C256 C251 1.342 . S
C256 C254 1.285 . S
C256 H275 0.930 . S
C257 C260 1.424 . S
C257 C262 1.245 . S
C257 C263 1.428 . S
C258 C261 1.260 . S
C258 C262 1.477 . S
C258 H276 0.932 . S
C259 C260 1.384 . S
C259 C261 1.479 . S
C259 H277 0.929 . S
C260 C257 1.424 . S
C260 C259 1.384 . S
C260 H278 0.928 . S
C261 C258 1.260 . S
C261 C259 1.479 . S
C262 C257 1.245 . S
C262 C258 1.477 . S
C262 H279 0.932 . S
C263 U246 2.882 . S
C263 C257 1.428 . S
C263 O266 1.301 . S
C263 O267 1.282 . S
O264 U246 2.441 . S
O264 C250 1.249 . S
O265 U246 2.420 . S
O265 C250 1.202 . S
O266 U246 2.455 . S
O266 C263 1.301 . S
O267 U246 2.449 . S
O267 C263 1.282 . S
H268 C241 0.931 . S
H269 C243 0.929 . S
H270 C244 0.930 . S
H271 C245 0.931 . S
H272 C252 0.932 . S
H273 C253 0.930 . S
H274 C254 0.929 . S
H275 C256 0.930 . S
H276 C258 0.932 . S
H277 C259 0.929 . S
H278 C260 0.928 . S
H279 C262 0.932 . S
C280 C281 1.264 . S
C280 C285 1.479 . S
C280 C290 1.465 . S
C281 C280 1.264 . S
C281 C283 1.339 . S
C281 H308 0.931 . S
C282 C283 1.395 . S
C282 C284 1.320 . S
C283 C281 1.339 . S
C283 C282 1.395 . S
C283 H309 0.929 . S
C284 C282 1.320 . S
C284 C285 1.405 . S
C284 H310 0.930 . S
C285 C280 1.479 . S
C285 C284 1.405 . S
C285 H311 0.931 . S
U286 O287 2.454 . S
U286 O288 2.458 . S
U286 C289 2.984 . S
U286 C290 2.847 . S
U286 C303 2.882 . S
U286 O304 2.441 . S
U286 O305 2.420 . S
U286 O306 2.455 . S
U286 O307 2.449 . S
O287 U286 2.454 . S
O287 C289 1.353 . S
O288 U286 2.458 . S
O288 C289 1.286 . S
C289 U286 2.984 . S
C289 O287 1.353 . S
C289 O288 1.286 . S
C289 C291 1.363 . S
C290 C280 1.465 . S
C290 U286 2.847 . S
C290 O304 1.249 . S
C290 O305 1.202 . S
C291 C289 1.363 . S
C291 C293 1.408 . S
C291 C296 1.342 . S
C292 C293 1.310 . S
C292 C295 1.461 . S
C292 H312 0.932 . S
C293 C291 1.408 . S
C293 C292 1.310 . S
C293 H313 0.930 . S
C294 C295 1.474 . S
C294 C296 1.285 . S
C294 H314 0.929 . S
C295 C292 1.461 . S
C295 C294 1.474 . S
C296 C291 1.342 . S
C296 C294 1.285 . S
C296 H315 0.930 . S
C297 C300 1.424 . S
C297 C302 1.245 . S
C297 C303 1.428 . S
C298 C301 1.260 . S
C298 C302 1.477 . S
C298 H316 0.932 . S
C299 C300 1.384 . S
C299 C301 1.479 . S
C299 H317 0.929 . S
C300 C297 1.424 . S
C300 C299 1.384 . S
C300 H318 0.928 . S
C301 C298 1.260 . S
C301 C299 1.479 . S
C302 C297 1.245 . S
C302 C298 1.477 . S
C302 H319 0.932 . S
C303 U286 2.882 . S
C303 C297 1.428 . S
C303 O306 1.301 . S
C303 O307 1.282 . S
O304 U286 2.441 . S
O304 C290 1.249 . S
O305 U286 2.420 . S
O305 C290 1.202 . S
O306 U286 2.455 . S
O306 C303 1.301 . S
O307 U286 2.449 . S
O307 C303 1.282 . S
H308 C281 0.931 . S
H309 C283 0.929 . S
H310 C284 0.930 . S
H311 C285 0.931 . S
H312 C292 0.932 . S
H313 C293 0.930 . S
H314 C294 0.929 . S
H315 C296 0.930 . S
H316 C298 0.932 . S
H317 C299 0.929 . S
H318 C300 0.928 . S
H319 C302 0.932 . S
C320 C321 1.384 . S
C320 C322 1.384 . S
C320 H348 0.931 . S
C321 C320 1.384 . S
C321 C324 1.382 . S
C322 C320 1.384 . S
C322 C323 1.381 . S
C322 H349 0.930 . S
C323 C322 1.381 . S
C323 C325 1.381 . S
C323 C326 1.487 . S
C324 C321 1.382 . S
C324 C325 1.387 . S
C324 H350 0.930 . S
C325 C323 1.381 . S
C325 C324 1.387 . S
C325 H351 0.931 . S
C326 C323 1.487 . S
C326 C333 1.399 1_655 S
C326 N364 1.343 . S
C327 C328 1.384 . S
C327 C329 1.384 . S
C327 H352 0.931 . S
C328 C327 1.384 . S
C328 C331 1.382 . S
C329 C327 1.384 . S
C329 C330 1.381 . S
C329 H353 0.930 . S
C330 C329 1.381 . S
C330 C332 1.381 . S
C330 C333 1.487 . S
C331 C328 1.382 . S
C331 C332 1.387 . S
C331 H354 0.930 . S
C332 C330 1.381 . S
C332 C331 1.387 . S
C332 H355 0.931 . S
C333 C326 1.399 1_455 S
C333 C330 1.487 . S
C333 N365 1.343 . S
C334 C335 1.384 . S
C334 C336 1.384 . S
C334 H356 0.931 . S
C335 C334 1.384 . S
C335 C338 1.382 . S
C336 C334 1.384 . S
C336 C337 1.381 . S
C336 H357 0.930 . S
C337 C336 1.381 . S
C337 C339 1.381 . S
C337 C340 1.487 . S
C338 C335 1.382 . S
C338 C339 1.387 . S
C338 H358 0.930 . S
C339 C337 1.381 . S
C339 C338 1.387 . S
C339 H359 0.931 . S
C340 C337 1.487 . S
C340 C347 1.399 1_455 S
C340 N365 1.343 . S
C341 C342 1.384 . S
C341 C343 1.384 . S
C341 H360 0.931 . S
C342 C341 1.384 . S
C342 C345 1.382 . S
C343 C341 1.384 . S
C343 C344 1.381 . S
C343 H361 0.930 . S
C344 C343 1.381 . S
C344 C346 1.381 . S
C344 C347 1.487 . S
C345 C342 1.382 . S
C345 C346 1.387 . S
C345 H362 0.930 . S
C346 C344 1.381 . S
C346 C345 1.387 . S
C346 H363 0.931 . S
C347 C340 1.399 1_655 S
C347 C344 1.487 . S
C347 N364 1.343 . S
H348 C320 0.931 . S
H349 C322 0.930 . S
H350 C324 0.930 . S
H351 C325 0.931 . S
H352 C327 0.931 . S
H353 C329 0.930 . S
H354 C331 0.930 . S
H355 C332 0.931 . S
H356 C334 0.931 . S
H357 C336 0.930 . S
H358 C338 0.930 . S
H359 C339 0.931 . S
H360 C341 0.931 . S
H361 C343 0.930 . S
H362 C345 0.930 . S
H363 C346 0.931 . S
N364 C326 1.343 . S
N364 C347 1.343 . S
N365 C333 1.343 . S
N365 C340 1.343 . S
C366 C367 1.384 . S
C366 C368 1.384 . S
C366 H394 0.931 . S
C367 C366 1.384 . S
C367 C370 1.382 . S
C368 C366 1.384 . S
C368 C369 1.381 . S
C368 H395 0.930 . S
C369 C368 1.381 . S
C369 C371 1.381 . S
C369 C372 1.487 . S
C370 C367 1.382 . S
C370 C371 1.387 . S
C370 H396 0.930 . S
C371 C369 1.381 . S
C371 C370 1.387 . S
C371 H397 0.931 . S
C372 C369 1.487 . S
C372 C379 1.399 1_655 S
C372 N410 1.343 . S
C373 C374 1.384 . S
C373 C375 1.384 . S
C373 H398 0.931 . S
C374 C373 1.384 . S
C374 C377 1.382 . S
C375 C373 1.384 . S
C375 C376 1.381 . S
C375 H399 0.930 . S
C376 C375 1.381 . S
C376 C378 1.381 . S
C376 C379 1.487 . S
C377 C374 1.382 . S
C377 C378 1.387 . S
C377 H400 0.930 . S
C378 C376 1.381 . S
C378 C377 1.387 . S
C378 H401 0.931 . S
C379 C372 1.399 1_455 S
C379 C376 1.487 . S
C379 N411 1.343 . S
C380 C381 1.384 . S
C380 C382 1.384 . S
C380 H402 0.931 . S
C381 C380 1.384 . S
C381 C384 1.382 . S
C382 C380 1.384 . S
C382 C383 1.381 . S
C382 H403 0.930 . S
C383 C382 1.381 . S
C383 C385 1.381 . S
C383 C386 1.487 . S
C384 C381 1.382 . S
C384 C385 1.387 . S
C384 H404 0.930 . S
C385 C383 1.381 . S
C385 C384 1.387 . S
C385 H405 0.931 . S
C386 C383 1.487 . S
C386 C393 1.399 1_455 S
C386 N411 1.343 . S
C387 C388 1.384 . S
C387 C389 1.384 . S
C387 H406 0.931 . S
C388 C387 1.384 . S
C388 C391 1.382 . S
C389 C387 1.384 . S
C389 C390 1.381 . S
C389 H407 0.930 . S
C390 C389 1.381 . S
C390 C392 1.381 . S
C390 C393 1.487 . S
C391 C388 1.382 . S
C391 C392 1.387 . S
C391 H408 0.930 . S
C392 C390 1.381 . S
C392 C391 1.387 . S
C392 H409 0.931 . S
C393 C386 1.399 1_655 S
C393 C390 1.487 . S
C393 N410 1.343 . S
H394 C366 0.931 . S
H395 C368 0.930 . S
H396 C370 0.930 . S
H397 C371 0.931 . S
H398 C373 0.931 . S
H399 C375 0.930 . S
H400 C377 0.930 . S
H401 C378 0.931 . S
H402 C380 0.931 . S
H403 C382 0.930 . S
H404 C384 0.930 . S
H405 C385 0.931 . S
H406 C387 0.931 . S
H407 C389 0.930 . S
H408 C391 0.930 . S
H409 C392 0.931 . S
N410 C372 1.343 . S
N410 C393 1.343 . S
N411 C379 1.343 . S
N411 C386 1.343 . S
C412 C413 1.384 . S
C412 C414 1.384 . S
C412 H440 0.931 . S
C413 C412 1.384 . S
C413 C416 1.382 . S
C414 C412 1.384 . S
C414 C415 1.381 . S
C414 H441 0.930 . S
C415 C414 1.381 . S
C415 C417 1.381 . S
C415 C418 1.487 . S
C416 C413 1.382 . S
C416 C417 1.387 . S
C416 H442 0.930 . S
C417 C415 1.381 . S
C417 C416 1.387 . S
C417 H443 0.931 . S
C418 C415 1.487 . S
C418 C425 1.399 . S
C418 N456 1.343 . S
C419 C420 1.384 . S
C419 C421 1.384 . S
C419 H444 0.931 . S
C420 C419 1.384 . S
C420 C423 1.382 . S
C421 C419 1.384 . S
C421 C422 1.381 . S
C421 H445 0.930 . S
C422 C421 1.381 . S
C422 C424 1.381 . S
C422 C425 1.487 . S
C423 C420 1.382 . S
C423 C424 1.387 . S
C423 H446 0.930 . S
C424 C422 1.381 . S
C424 C423 1.387 . S
C424 H447 0.931 . S
C425 C418 1.399 . S
C425 C422 1.487 . S
C425 N457 1.343 . S
C426 C427 1.384 . S
C426 C428 1.384 . S
C426 H448 0.931 . S
C427 C426 1.384 . S
C427 C430 1.382 . S
C428 C426 1.384 . S
C428 C429 1.381 . S
C428 H449 0.930 . S
C429 C428 1.381 . S
C429 C431 1.381 . S
C429 C432 1.487 . S
C430 C427 1.382 . S
C430 C431 1.387 . S
C430 H450 0.930 . S
C431 C429 1.381 . S
C431 C430 1.387 . S
C431 H451 0.931 . S
C432 C429 1.487 . S
C432 C439 1.399 . S
C432 N457 1.343 1_565 S
C433 C434 1.384 . S
C433 C435 1.384 . S
C433 H452 0.931 . S
C434 C433 1.384 . S
C434 C437 1.382 . S
C435 C433 1.384 . S
C435 C436 1.381 . S
C435 H453 0.930 . S
C436 C435 1.381 . S
C436 C438 1.381 . S
C436 C439 1.487 . S
C437 C434 1.382 . S
C437 C438 1.387 . S
C437 H454 0.930 . S
C438 C436 1.381 . S
C438 C437 1.387 . S
C438 H455 0.931 . S
C439 C432 1.399 . S
C439 C436 1.487 . S
C439 N456 1.343 1_565 S
H440 C412 0.931 . S
H441 C414 0.930 . S
H442 C416 0.930 . S
H443 C417 0.931 . S
H444 C419 0.931 . S
H445 C421 0.930 . S
H446 C423 0.930 . S
H447 C424 0.931 . S
H448 C426 0.931 . S
H449 C428 0.930 . S
H450 C430 0.930 . S
H451 C431 0.931 . S
H452 C433 0.931 . S
H453 C435 0.930 . S
H454 C437 0.930 . S
H455 C438 0.931 . S
N456 C418 1.343 . S
N456 C439 1.343 1_545 S
N457 C425 1.343 . S
N457 C432 1.343 1_545 S
C458 C459 1.384 . S
C458 C460 1.384 . S
C458 H486 0.931 . S
C459 C458 1.384 . S
C459 C462 1.382 . S
C460 C458 1.384 . S
C460 C461 1.381 . S
C460 H487 0.930 . S
C461 C460 1.381 . S
C461 C463 1.381 . S
C461 C464 1.487 . S
C462 C459 1.382 . S
C462 C463 1.387 . S
C462 H488 0.930 . S
C463 C461 1.381 . S
C463 C462 1.387 . S
C463 H489 0.931 . S
C464 C461 1.487 . S
C464 C471 1.399 . S
C464 N502 1.343 1_556 S
C465 C466 1.384 . S
C465 C467 1.384 . S
C465 H490 0.931 . S
C466 C465 1.384 . S
C466 C469 1.382 . S
C467 C465 1.384 . S
C467 C468 1.381 . S
C467 H491 0.930 . S
C468 C467 1.381 . S
C468 C470 1.381 . S
C468 C471 1.487 . S
C469 C466 1.382 . S
C469 C470 1.387 . S
C469 H492 0.930 . S
C470 C468 1.381 . S
C470 C469 1.387 . S
C470 H493 0.931 . S
C471 C464 1.399 . S
C471 C468 1.487 . S
C471 N503 1.343 1_556 S
C472 C473 1.384 . S
C472 C474 1.384 . S
C472 H494 0.931 . S
C473 C472 1.384 . S
C473 C476 1.382 . S
C474 C472 1.384 . S
C474 C475 1.381 . S
C474 H495 0.930 . S
C475 C474 1.381 . S
C475 C477 1.381 . S
C475 C478 1.487 . S
C476 C473 1.382 . S
C476 C477 1.387 . S
C476 H496 0.930 . S
C477 C475 1.381 . S
C477 C476 1.387 . S
C477 H497 0.931 . S
C478 C475 1.487 . S
C478 C485 1.399 . S
C478 N503 1.343 . S
C479 C480 1.384 . S
C479 C481 1.384 . S
C479 H498 0.931 . S
C480 C479 1.384 . S
C480 C483 1.382 . S
C481 C479 1.384 . S
C481 C482 1.381 . S
C481 H499 0.930 . S
C482 C481 1.381 . S
C482 C484 1.381 . S
C482 C485 1.487 . S
C483 C480 1.382 . S
C483 C484 1.387 . S
C483 H500 0.930 . S
C484 C482 1.381 . S
C484 C483 1.387 . S
C484 H501 0.931 . S
C485 C478 1.399 . S
C485 C482 1.487 . S
C485 N502 1.343 . S
H486 C458 0.931 . S
H487 C460 0.930 . S
H488 C462 0.930 . S
H489 C463 0.931 . S
H490 C465 0.931 . S
H491 C467 0.930 . S
H492 C469 0.930 . S
H493 C470 0.931 . S
H494 C472 0.931 . S
H495 C474 0.930 . S
H496 C476 0.930 . S
H497 C477 0.931 . S
H498 C479 0.931 . S
H499 C481 0.930 . S
H500 C483 0.930 . S
H501 C484 0.931 . S
N502 C464 1.343 1_554 S
N502 C485 1.343 . S
N503 C471 1.343 1_554 S
N503 C478 1.343 . S
C504 C505 1.384 . S
C504 C506 1.384 . S
C504 H532 0.931 . S
C505 C504 1.384 . S
C505 C508 1.382 . S
C506 C504 1.384 . S
C506 C507 1.381 . S
C506 H533 0.930 . S
C507 C506 1.381 . S
C507 C509 1.381 . S
C507 C510 1.487 . S
C508 C505 1.382 . S
C508 C509 1.387 . S
C508 H534 0.930 . S
C509 C507 1.381 . S
C509 C508 1.387 . S
C509 H535 0.931 . S
C510 C507 1.487 . S
C510 C517 1.399 . S
C510 N548 1.343 . S
C511 C512 1.384 . S
C511 C513 1.384 . S
C511 H536 0.931 . S
C512 C511 1.384 . S
C512 C515 1.382 . S
C513 C511 1.384 . S
C513 C514 1.381 . S
C513 H537 0.930 . S
C514 C513 1.381 . S
C514 C516 1.381 . S
C514 C517 1.487 . S
C515 C512 1.382 . S
C515 C516 1.387 . S
C515 H538 0.930 . S
C516 C514 1.381 . S
C516 C515 1.387 . S
C516 H539 0.931 . S
C517 C510 1.399 . S
C517 C514 1.487 . S
C517 N549 1.343 . S
C518 C519 1.384 . S
C518 C520 1.384 . S
C518 H540 0.931 . S
C519 C518 1.384 . S
C519 C522 1.382 . S
C520 C518 1.384 . S
C520 C521 1.381 . S
C520 H541 0.930 . S
C521 C520 1.381 . S
C521 C523 1.381 . S
C521 C524 1.487 . S
C522 C519 1.382 . S
C522 C523 1.387 . S
C522 H542 0.930 . S
C523 C521 1.381 . S
C523 C522 1.387 . S
C523 H543 0.931 . S
C524 C521 1.487 . S
C524 C531 1.399 . S
C524 N549 1.343 1_565 S
C525 C526 1.384 . S
C525 C527 1.384 . S
C525 H544 0.931 . S
C526 C525 1.384 . S
C526 C529 1.382 . S
C527 C525 1.384 . S
C527 C528 1.381 . S
C527 H545 0.930 . S
C528 C527 1.381 . S
C528 C530 1.381 . S
C528 C531 1.487 . S
C529 C526 1.382 . S
C529 C530 1.387 . S
C529 H546 0.930 . S
C530 C528 1.381 . S
C530 C529 1.387 . S
C530 H547 0.931 . S
C531 C524 1.399 . S
C531 C528 1.487 . S
C531 N548 1.343 1_565 S
H532 C504 0.931 . S
H533 C506 0.930 . S
H534 C508 0.930 . S
H535 C509 0.931 . S
H536 C511 0.931 . S
H537 C513 0.930 . S
H538 C515 0.930 . S
H539 C516 0.931 . S
H540 C518 0.931 . S
H541 C520 0.930 . S
H542 C522 0.930 . S
H543 C523 0.931 . S
H544 C525 0.931 . S
H545 C527 0.930 . S
H546 C529 0.930 . S
H547 C530 0.931 . S
N548 C510 1.343 . S
N548 C531 1.343 1_545 S
N549 C517 1.343 . S
N549 C524 1.343 1_545 S
C550 C551 1.384 . S
C550 C552 1.384 . S
C550 H578 0.931 . S
C551 C550 1.384 . S
C551 C554 1.382 . S
C552 C550 1.384 . S
C552 C553 1.381 . S
C552 H579 0.930 . S
C553 C552 1.381 . S
C553 C555 1.381 . S
C553 C556 1.487 . S
C554 C551 1.382 . S
C554 C555 1.387 . S
C554 H580 0.930 . S
C555 C553 1.381 . S
C555 C554 1.387 . S
C555 H581 0.931 . S
C556 C553 1.487 . S
C556 C563 1.399 . S
C556 N594 1.343 1_556 S
C557 C558 1.384 . S
C557 C559 1.384 . S
C557 H582 0.931 . S
C558 C557 1.384 . S
C558 C561 1.382 . S
C559 C557 1.384 . S
C559 C560 1.381 . S
C559 H583 0.930 . S
C560 C559 1.381 . S
C560 C562 1.381 . S
C560 C563 1.487 . S
C561 C558 1.382 . S
C561 C562 1.387 . S
C561 H584 0.930 . S
C562 C560 1.381 . S
C562 C561 1.387 . S
C562 H585 0.931 . S
C563 C556 1.399 . S
C563 C560 1.487 . S
C563 N595 1.343 1_556 S
C564 C565 1.384 . S
C564 C566 1.384 . S
C564 H586 0.931 . S
C565 C564 1.384 . S
C565 C568 1.382 . S
C566 C564 1.384 . S
C566 C567 1.381 . S
C566 H587 0.930 . S
C567 C566 1.381 . S
C567 C569 1.381 . S
C567 C570 1.487 . S
C568 C565 1.382 . S
C568 C569 1.387 . S
C568 H588 0.930 . S
C569 C567 1.381 . S
C569 C568 1.387 . S
C569 H589 0.931 . S
C570 C567 1.487 . S
C570 C577 1.399 . S
C570 N595 1.343 . S
C571 C572 1.384 . S
C571 C573 1.384 . S
C571 H590 0.931 . S
C572 C571 1.384 . S
C572 C575 1.382 . S
C573 C571 1.384 . S
C573 C574 1.381 . S
C573 H591 0.930 . S
C574 C573 1.381 . S
C574 C576 1.381 . S
C574 C577 1.487 . S
C575 C572 1.382 . S
C575 C576 1.387 . S
C575 H592 0.930 . S
C576 C574 1.381 . S
C576 C575 1.387 . S
C576 H593 0.931 . S
C577 C570 1.399 . S
C577 C574 1.487 . S
C577 N594 1.343 . S
H578 C550 0.931 . S
H579 C552 0.930 . S
H580 C554 0.930 . S
H581 C555 0.931 . S
H582 C557 0.931 . S
H583 C559 0.930 . S
H584 C561 0.930 . S
H585 C562 0.931 . S
H586 C564 0.931 . S
H587 C566 0.930 . S
H588 C568 0.930 . S
H589 C569 0.931 . S
H590 C571 0.931 . S
H591 C573 0.930 . S
H592 C575 0.930 . S
H593 C576 0.931 . S
N594 C556 1.343 1_554 S
N594 C577 1.343 . S
N595 C563 1.343 1_554 S
N595 C570 1.343 . S
C596 C597 1.363 . S
C596 C602 1.379 . S
C596 N604 1.356 . S
C597 C596 1.363 . S
C597 C603 1.363 . S
C598 C599 1.363 . S
C598 C603 1.379 . S
C598 N605 1.356 . S
C599 C598 1.363 . S
C599 C602 1.363 . S
N600 C602 1.356 . S
N600 H612 0.984 . S
N600 H613 0.985 . S
N601 C603 1.356 . S
N601 H606 0.984 . S
N601 H607 0.985 . S
C602 C596 1.379 . S
C602 C599 1.363 . S
C602 N600 1.356 . S
C603 C597 1.363 . S
C603 C598 1.379 . S
C603 N601 1.356 . S
N604 C596 1.356 . S
N604 H610 0.984 . S
N604 H611 0.984 . S
N605 C598 1.356 . S
N605 H608 0.984 . S
N605 H609 0.985 . S
H606 N601 0.984 . S
H607 N601 0.985 . S
H608 N605 0.984 . S
H609 N605 0.985 . S
H610 N604 0.984 . S
H611 N604 0.984 . S
H612 N600 0.984 . S
H613 N600 0.985 . S
C614 C615 1.363 . S
C614 C620 1.379 . S
C614 N622 1.356 . S
C615 C614 1.363 . S
C615 C621 1.363 . S
C616 C617 1.363 . S
C616 C621 1.379 . S
C616 N623 1.356 . S
C617 C616 1.363 . S
C617 C620 1.363 . S
N618 C620 1.356 . S
N618 H630 0.984 . S
N618 H631 0.985 . S
N619 C621 1.356 . S
N619 H624 0.984 . S
N619 H625 0.985 . S
C620 C614 1.379 . S
C620 C617 1.363 . S
C620 N618 1.356 . S
C621 C615 1.363 . S
C621 C616 1.379 . S
C621 N619 1.356 . S
N622 C614 1.356 . S
N622 H628 0.984 . S
N622 H629 0.984 . S
N623 C616 1.356 . S
N623 H626 0.984 . S
N623 H627 0.985 . S
H624 N619 0.984 . S
H625 N619 0.985 . S
H626 N623 0.984 . S
H627 N623 0.985 . S
H628 N622 0.984 . S
H629 N622 0.984 . S
H630 N618 0.984 . S
H631 N618 0.985 . S
C632 C633 1.363 . S
C632 C638 1.379 . S
C632 N640 1.356 . S
C633 C632 1.363 . S
C633 C639 1.363 . S
C634 C635 1.363 . S
C634 C639 1.379 . S
C634 N641 1.356 . S
C635 C634 1.363 . S
C635 C638 1.363 . S
N636 C638 1.356 . S
N636 H648 0.984 . S
N636 H649 0.985 . S
N637 C639 1.356 . S
N637 H642 0.984 . S
N637 H643 0.985 . S
C638 C632 1.379 . S
C638 C635 1.363 . S
C638 N636 1.356 . S
C639 C633 1.363 . S
C639 C634 1.379 . S
C639 N637 1.356 . S
N640 C632 1.356 . S
N640 H646 0.984 . S
N640 H647 0.984 . S
N641 C634 1.356 . S
N641 H644 0.984 . S
N641 H645 0.985 . S
H642 N637 0.984 . S
H643 N637 0.985 . S
H644 N641 0.984 . S
H645 N641 0.985 . S
H646 N640 0.984 . S
H647 N640 0.984 . S
H648 N636 0.984 . S
H649 N636 0.985 . S
C650 C651 1.363 . S
C650 C656 1.379 . S
C650 N658 1.356 . S
C651 C650 1.363 . S
C651 C657 1.363 . S
C652 C653 1.363 . S
C652 C657 1.379 . S
C652 N659 1.356 . S
C653 C652 1.363 . S
C653 C656 1.363 . S
N654 C656 1.356 . S
N654 H666 0.984 . S
N654 H667 0.985 . S
N655 C657 1.356 . S
N655 H660 0.984 . S
N655 H661 0.985 . S
C656 C650 1.379 . S
C656 C653 1.363 . S
C656 N654 1.356 . S
C657 C651 1.363 . S
C657 C652 1.379 . S
C657 N655 1.356 . S
N658 C650 1.356 . S
N658 H664 0.984 . S
N658 H665 0.984 . S
N659 C652 1.356 . S
N659 H662 0.984 . S
N659 H663 0.985 . S
H660 N655 0.984 . S
H661 N655 0.985 . S
H662 N659 0.984 . S
H663 N659 0.985 . S
H664 N658 0.984 . S
H665 N658 0.984 . S
H666 N654 0.984 . S
H667 N654 0.985 . S
C668 C669 1.363 . S
C668 C674 1.379 . S
C668 N676 1.356 . S
C669 C668 1.363 . S
C669 C675 1.363 . S
C670 C671 1.363 . S
C670 C675 1.379 . S
C670 N677 1.356 . S
C671 C670 1.363 . S
C671 C674 1.363 . S
N672 C674 1.356 . S
N672 H684 0.984 . S
N672 H685 0.985 . S
N673 C675 1.356 . S
N673 H678 0.984 . S
N673 H679 0.985 . S
C674 C668 1.379 . S
C674 C671 1.363 . S
C674 N672 1.356 . S
C675 C669 1.363 . S
C675 C670 1.379 . S
C675 N673 1.356 . S
N676 C668 1.356 . S
N676 H682 0.984 . S
N676 H683 0.984 . S
N677 C670 1.356 . S
N677 H680 0.984 . S
N677 H681 0.985 . S
H678 N673 0.984 . S
H679 N673 0.985 . S
H680 N677 0.984 . S
H681 N677 0.985 . S
H682 N676 0.984 . S
H683 N676 0.984 . S
H684 N672 0.984 . S
H685 N672 0.985 . S
C686 C687 1.363 . S
C686 C692 1.379 . S
C686 N694 1.356 . S
C687 C686 1.363 . S
C687 C693 1.363 . S
C688 C689 1.363 . S
C688 C693 1.379 . S
C688 N695 1.356 . S
C689 C688 1.363 . S
C689 C692 1.363 . S
N690 C692 1.356 . S
N690 H702 0.984 . S
N690 H703 0.985 . S
N691 C693 1.356 . S
N691 H696 0.984 . S
N691 H697 0.985 . S
C692 C686 1.379 . S
C692 C689 1.363 . S
C692 N690 1.356 . S
C693 C687 1.363 . S
C693 C688 1.379 . S
C693 N691 1.356 . S
N694 C686 1.356 . S
N694 H700 0.984 . S
N694 H701 0.984 . S
N695 C688 1.356 . S
N695 H698 0.984 . S
N695 H699 0.985 . S
H696 N691 0.984 . S
H697 N691 0.985 . S
H698 N695 0.984 . S
H699 N695 0.985 . S
H700 N694 0.984 . S
H701 N694 0.984 . S
H702 N690 0.984 . S
H703 N690 0.985 . S
C704 C705 1.363 . S
C704 C710 1.379 . S
C704 N712 1.356 . S
C705 C704 1.363 . S
C705 C711 1.363 . S
C706 C707 1.363 . S
C706 C711 1.379 . S
C706 N713 1.356 . S
C707 C706 1.363 . S
C707 C710 1.363 . S
N708 C710 1.356 . S
N708 H720 0.984 . S
N708 H721 0.985 . S
N709 C711 1.356 . S
N709 H714 0.984 . S
N709 H715 0.985 . S
C710 C704 1.379 . S
C710 C707 1.363 . S
C710 N708 1.356 . S
C711 C705 1.363 . S
C711 C706 1.379 . S
C711 N709 1.356 . S
N712 C704 1.356 . S
N712 H718 0.984 . S
N712 H719 0.984 . S
N713 C706 1.356 . S
N713 H716 0.984 . S
N713 H717 0.985 . S
H714 N709 0.984 . S
H715 N709 0.985 . S
H716 N713 0.984 . S
H717 N713 0.985 . S
H718 N712 0.984 . S
H719 N712 0.984 . S
H720 N708 0.984 . S
H721 N708 0.985 . S
C722 C723 1.363 . S
C722 C728 1.379 . S
C722 N730 1.356 . S
C723 C722 1.363 . S
C723 C729 1.363 . S
C724 C725 1.363 . S
C724 C729 1.379 . S
C724 N731 1.356 . S
C725 C724 1.363 . S
C725 C728 1.363 . S
N726 C728 1.356 . S
N726 H738 0.984 . S
N726 H739 0.985 . S
N727 C729 1.356 . S
N727 H732 0.984 . S
N727 H733 0.985 . S
C728 C722 1.379 . S
C728 C725 1.363 . S
C728 N726 1.356 . S
C729 C723 1.363 . S
C729 C724 1.379 . S
C729 N727 1.356 . S
N730 C722 1.356 . S
N730 H736 0.984 . S
N730 H737 0.984 . S
N731 C724 1.356 . S
N731 H734 0.984 . S
N731 H735 0.985 . S
H732 N727 0.984 . S
H733 N727 0.985 . S
H734 N731 0.984 . S
H735 N731 0.985 . S
H736 N730 0.984 . S
H737 N730 0.984 . S
H738 N726 0.984 . S
H739 N726 0.985 . S
C740 C741 1.363 . S
C740 C746 1.379 . S
C740 N748 1.356 . S
C741 C740 1.363 . S
C741 C747 1.363 . S
C742 C743 1.363 . S
C742 C747 1.379 . S
C742 N749 1.356 . S
C743 C742 1.363 . S
C743 C746 1.363 . S
N744 C746 1.356 . S
N744 H756 0.984 . S
N744 H757 0.985 . S
N745 C747 1.356 . S
N745 H750 0.984 . S
N745 H751 0.985 . S
C746 C740 1.379 . S
C746 C743 1.363 . S
C746 N744 1.356 . S
C747 C741 1.363 . S
C747 C742 1.379 . S
C747 N745 1.356 . S
N748 C740 1.356 . S
N748 H754 0.984 . S
N748 H755 0.984 . S
N749 C742 1.356 . S
N749 H752 0.984 . S
N749 H753 0.985 . S
H750 N745 0.984 . S
H751 N745 0.985 . S
H752 N749 0.984 . S
H753 N749 0.985 . S
H754 N748 0.984 . S
H755 N748 0.984 . S
H756 N744 0.984 . S
H757 N744 0.985 . S
C758 C759 1.363 . S
C758 C764 1.379 . S
C758 N766 1.356 . S
C759 C758 1.363 . S
C759 C765 1.363 . S
C760 C761 1.363 . S
C760 C765 1.379 . S
C760 N767 1.356 . S
C761 C760 1.363 . S
C761 C764 1.363 . S
N762 C764 1.356 . S
N762 H774 0.984 . S
N762 H775 0.985 . S
N763 C765 1.356 . S
N763 H768 0.984 . S
N763 H769 0.985 . S
C764 C758 1.379 . S
C764 C761 1.363 . S
C764 N762 1.356 . S
C765 C759 1.363 . S
C765 C760 1.379 . S
C765 N763 1.356 . S
N766 C758 1.356 . S
N766 H772 0.984 . S
N766 H773 0.984 . S
N767 C760 1.356 . S
N767 H770 0.984 . S
N767 H771 0.985 . S
H768 N763 0.984 . S
H769 N763 0.985 . S
H770 N767 0.984 . S
H771 N767 0.985 . S
H772 N766 0.984 . S
H773 N766 0.984 . S
H774 N762 0.984 . S
H775 N762 0.985 . S
C776 C777 1.363 . S
C776 C782 1.379 . S
C776 N784 1.356 . S
C777 C776 1.363 . S
C777 C783 1.363 . S
C778 C779 1.363 . S
C778 C783 1.379 . S
C778 N785 1.356 . S
C779 C778 1.363 . S
C779 C782 1.363 . S
N780 C782 1.356 . S
N780 H792 0.984 . S
N780 H793 0.985 . S
N781 C783 1.356 . S
N781 H786 0.984 . S
N781 H787 0.985 . S
C782 C776 1.379 . S
C782 C779 1.363 . S
C782 N780 1.356 . S
C783 C777 1.363 . S
C783 C778 1.379 . S
C783 N781 1.356 . S
N784 C776 1.356 . S
N784 H790 0.984 . S
N784 H791 0.984 . S
N785 C778 1.356 . S
N785 H788 0.984 . S
N785 H789 0.985 . S
H786 N781 0.984 . S
H787 N781 0.985 . S
H788 N785 0.984 . S
H789 N785 0.985 . S
H790 N784 0.984 . S
H791 N784 0.984 . S
H792 N780 0.984 . S
H793 N780 0.985 . S
C794 C795 1.363 . S
C794 C800 1.379 . S
C794 N802 1.356 . S
C795 C794 1.363 . S
C795 C801 1.363 . S
C796 C797 1.363 . S
C796 C801 1.379 . S
C796 N803 1.356 . S
C797 C796 1.363 . S
C797 C800 1.363 . S
N798 C800 1.356 . S
N798 H810 0.984 . S
N798 H811 0.985 . S
N799 C801 1.356 . S
N799 H804 0.984 . S
N799 H805 0.985 . S
C800 C794 1.379 . S
C800 C797 1.363 . S
C800 N798 1.356 . S
C801 C795 1.363 . S
C801 C796 1.379 . S
C801 N799 1.356 . S
N802 C794 1.356 . S
N802 H808 0.984 . S
N802 H809 0.984 . S
N803 C796 1.356 . S
N803 H806 0.984 . S
N803 H807 0.985 . S
H804 N799 0.984 . S
H805 N799 0.985 . S
H806 N803 0.984 . S
H807 N803 0.985 . S
H808 N802 0.984 . S
H809 N802 0.984 . S
H810 N798 0.984 . S
H811 N798 0.985 . S
C812 C813 1.363 . S
C812 C818 1.379 . S
C812 N820 1.356 . S
C813 C812 1.363 . S
C813 C819 1.363 . S
C814 C815 1.363 . S
C814 C819 1.379 . S
C814 N821 1.356 . S
C815 C814 1.363 . S
C815 C818 1.363 . S
N816 C818 1.356 . S
N816 H828 0.984 . S
N816 H829 0.985 . S
N817 C819 1.356 . S
N817 H822 0.984 . S
N817 H823 0.985 . S
C818 C812 1.379 . S
C818 C815 1.363 . S
C818 N816 1.356 . S
C819 C813 1.363 . S
C819 C814 1.379 . S
C819 N817 1.356 . S
N820 C812 1.356 . S
N820 H826 0.984 . S
N820 H827 0.984 . S
N821 C814 1.356 . S
N821 H824 0.984 . S
N821 H825 0.985 . S
H822 N817 0.984 . S
H823 N817 0.985 . S
H824 N821 0.984 . S
H825 N821 0.985 . S
H826 N820 0.984 . S
H827 N820 0.984 . S
H828 N816 0.984 . S
H829 N816 0.985 . S
C830 C831 1.363 . S
C830 C836 1.379 . S
C830 N838 1.356 . S
C831 C830 1.363 . S
C831 C837 1.363 . S
C832 C833 1.363 . S
C832 C837 1.379 . S
C832 N839 1.356 . S
C833 C832 1.363 . S
C833 C836 1.363 . S
N834 C836 1.356 . S
N834 H846 0.984 . S
N834 H847 0.985 . S
N835 C837 1.356 . S
N835 H840 0.984 . S
N835 H841 0.985 . S
C836 C830 1.379 . S
C836 C833 1.363 . S
C836 N834 1.356 . S
C837 C831 1.363 . S
C837 C832 1.379 . S
C837 N835 1.356 . S
N838 C830 1.356 . S
N838 H844 0.984 . S
N838 H845 0.984 . S
N839 C832 1.356 . S
N839 H842 0.984 . S
N839 H843 0.985 . S
H840 N835 0.984 . S
H841 N835 0.985 . S
H842 N839 0.984 . S
H843 N839 0.985 . S
H844 N838 0.984 . S
H845 N838 0.984 . S
H846 N834 0.984 . S
H847 N834 0.985 . S
C848 C849 1.363 . S
C848 C854 1.379 . S
C848 N856 1.356 . S
C849 C848 1.363 . S
C849 C855 1.363 . S
C850 C851 1.363 . S
C850 C855 1.379 . S
C850 N857 1.356 . S
C851 C850 1.363 . S
C851 C854 1.363 . S
N852 C854 1.356 . S
N852 H864 0.984 . S
N852 H865 0.985 . S
N853 C855 1.356 . S
N853 H858 0.984 . S
N853 H859 0.985 . S
C854 C848 1.379 . S
C854 C851 1.363 . S
C854 N852 1.356 . S
C855 C849 1.363 . S
C855 C850 1.379 . S
C855 N853 1.356 . S
N856 C848 1.356 . S
N856 H862 0.984 . S
N856 H863 0.984 . S
N857 C850 1.356 . S
N857 H860 0.984 . S
N857 H861 0.985 . S
H858 N853 0.984 . S
H859 N853 0.985 . S
H860 N857 0.984 . S
H861 N857 0.985 . S
H862 N856 0.984 . S
H863 N856 0.984 . S
H864 N852 0.984 . S
H865 N852 0.985 . S
C866 C867 1.363 . S
C866 C872 1.379 . S
C866 N874 1.356 . S
C867 C866 1.363 . S
C867 C873 1.363 . S
C868 C869 1.363 . S
C868 C873 1.379 . S
C868 N875 1.356 . S
C869 C868 1.363 . S
C869 C872 1.363 . S
N870 C872 1.356 . S
N870 H882 0.984 . S
N870 H883 0.985 . S
N871 C873 1.356 . S
N871 H876 0.984 . S
N871 H877 0.985 . S
C872 C866 1.379 . S
C872 C869 1.363 . S
C872 N870 1.356 . S
C873 C867 1.363 . S
C873 C868 1.379 . S
C873 N871 1.356 . S
N874 C866 1.356 . S
N874 H880 0.984 . S
N874 H881 0.984 . S
N875 C868 1.356 . S
N875 H878 0.984 . S
N875 H879 0.985 . S
H876 N871 0.984 . S
H877 N871 0.985 . S
H878 N875 0.984 . S
H879 N875 0.985 . S
H880 N874 0.984 . S
H881 N874 0.984 . S
H882 N870 0.984 . S
H883 N870 0.985 . S
C884 C885 1.363 . S
C884 C890 1.379 . S
C884 N892 1.356 . S
C885 C884 1.363 . S
C885 C891 1.363 . S
C886 C887 1.363 . S
C886 C891 1.379 . S
C886 N893 1.356 . S
C887 C886 1.363 . S
C887 C890 1.363 . S
N888 C890 1.356 . S
N888 H900 0.984 . S
N888 H901 0.985 . S
N889 C891 1.356 . S
N889 H894 0.984 . S
N889 H895 0.985 . S
C890 C884 1.379 . S
C890 C887 1.363 . S
C890 N888 1.356 . S
C891 C885 1.363 . S
C891 C886 1.379 . S
C891 N889 1.356 . S
N892 C884 1.356 . S
N892 H898 0.984 . S
N892 H899 0.984 . S
N893 C886 1.356 . S
N893 H896 0.984 . S
N893 H897 0.985 . S
H894 N889 0.984 . S
H895 N889 0.985 . S
H896 N893 0.984 . S
H897 N893 0.985 . S
H898 N892 0.984 . S
H899 N892 0.984 . S
H900 N888 0.984 . S
H901 N888 0.985 . S
C902 C903 1.363 . S
C902 C908 1.379 . S
C902 N910 1.356 . S
C903 C902 1.363 . S
C903 C909 1.363 . S
C904 C905 1.363 . S
C904 C909 1.379 . S
C904 N911 1.356 . S
C905 C904 1.363 . S
C905 C908 1.363 . S
N906 C908 1.356 . S
N906 H918 0.984 . S
N906 H919 0.985 . S
N907 C909 1.356 . S
N907 H912 0.984 . S
N907 H913 0.985 . S
C908 C902 1.379 . S
C908 C905 1.363 . S
C908 N906 1.356 . S
C909 C903 1.363 . S
C909 C904 1.379 . S
C909 N907 1.356 . S
N910 C902 1.356 . S
N910 H916 0.984 . S
N910 H917 0.984 . S
N911 C904 1.356 . S
N911 H914 0.984 . S
N911 H915 0.985 . S
H912 N907 0.984 . S
H913 N907 0.985 . S
H914 N911 0.984 . S
H915 N911 0.985 . S
H916 N910 0.984 . S
H917 N910 0.984 . S
H918 N906 0.984 . S
H919 N906 0.985 . S
C920 C921 1.363 . S
C920 C926 1.379 . S
C920 N928 1.356 . S
C921 C920 1.363 . S
C921 C927 1.363 . S
C922 C923 1.363 . S
C922 C927 1.379 . S
C922 N929 1.356 . S
C923 C922 1.363 . S
C923 C926 1.363 . S
N924 C926 1.356 . S
N924 H936 0.984 . S
N924 H937 0.985 . S
N925 C927 1.356 . S
N925 H930 0.984 . S
N925 H931 0.985 . S
C926 C920 1.379 . S
C926 C923 1.363 . S
C926 N924 1.356 . S
C927 C921 1.363 . S
C927 C922 1.379 . S
C927 N925 1.356 . S
N928 C920 1.356 . S
N928 H934 0.984 . S
N928 H935 0.984 . S
N929 C922 1.356 . S
N929 H932 0.984 . S
N929 H933 0.985 . S
H930 N925 0.984 . S
H931 N925 0.985 . S
H932 N929 0.984 . S
H933 N929 0.985 . S
H934 N928 0.984 . S
H935 N928 0.984 . S
H936 N924 0.984 . S
H937 N924 0.985 . S
C938 C939 1.363 . S
C938 C944 1.379 . S
C938 N946 1.356 . S
C939 C938 1.363 . S
C939 C945 1.363 . S
C940 C941 1.363 . S
C940 C945 1.379 . S
C940 N947 1.356 . S
C941 C940 1.363 . S
C941 C944 1.363 . S
N942 C944 1.356 . S
N942 H954 0.984 . S
N942 H955 0.985 . S
N943 C945 1.356 . S
N943 H948 0.984 . S
N943 H949 0.985 . S
C944 C938 1.379 . S
C944 C941 1.363 . S
C944 N942 1.356 . S
C945 C939 1.363 . S
C945 C940 1.379 . S
C945 N943 1.356 . S
N946 C938 1.356 . S
N946 H952 0.984 . S
N946 H953 0.984 . S
N947 C940 1.356 . S
N947 H950 0.984 . S
N947 H951 0.985 . S
H948 N943 0.984 . S
H949 N943 0.985 . S
H950 N947 0.984 . S
H951 N947 0.985 . S
H952 N946 0.984 . S
H953 N946 0.984 . S
H954 N942 0.984 . S
H955 N942 0.985 . S
C956 C957 1.363 . S
C956 C962 1.379 . S
C956 N964 1.356 . S
C957 C956 1.363 . S
C957 C963 1.363 . S
C958 C959 1.363 . S
C958 C963 1.379 . S
C958 N965 1.356 . S
C959 C958 1.363 . S
C959 C962 1.363 . S
N960 C962 1.356 . S
N960 H972 0.984 . S
N960 H973 0.985 . S
N961 C963 1.356 . S
N961 H966 0.984 . S
N961 H967 0.985 . S
C962 C956 1.379 . S
C962 C959 1.363 . S
C962 N960 1.356 . S
C963 C957 1.363 . S
C963 C958 1.379 . S
C963 N961 1.356 . S
N964 C956 1.356 . S
N964 H970 0.984 . S
N964 H971 0.984 . S
N965 C958 1.356 . S
N965 H968 0.984 . S
N965 H969 0.985 . S
H966 N961 0.984 . S
H967 N961 0.985 . S
H968 N965 0.984 . S
H969 N965 0.985 . S
H970 N964 0.984 . S
H971 N964 0.984 . S
H972 N960 0.984 . S
H973 N960 0.985 . S
C974 C975 1.363 . S
C974 C980 1.379 . S
C974 N982 1.356 . S
C975 C974 1.363 . S
C975 C981 1.363 . S
C976 C977 1.363 . S
C976 C981 1.379 . S
C976 N983 1.356 . S
C977 C976 1.363 . S
C977 C980 1.363 . S
N978 C980 1.356 . S
N978 H990 0.984 . S
N978 H991 0.985 . S
N979 C981 1.356 . S
N979 H984 0.984 . S
N979 H985 0.985 . S
C980 C974 1.379 . S
C980 C977 1.363 . S
C980 N978 1.356 . S
C981 C975 1.363 . S
C981 C976 1.379 . S
C981 N979 1.356 . S
N982 C974 1.356 . S
N982 H988 0.984 . S
N982 H989 0.984 . S
N983 C976 1.356 . S
N983 H986 0.984 . S
N983 H987 0.985 . S
H984 N979 0.984 . S
H985 N979 0.985 . S
H986 N983 0.984 . S
H987 N983 0.985 . S
H988 N982 0.984 . S
H989 N982 0.984 . S
H990 N978 0.984 . S
H991 N978 0.985 . S
C992 C993 1.363 . S
C992 C998 1.379 . S
C992 N1000 1.356 . S
C993 C992 1.363 . S
C993 C999 1.363 . S
C994 C995 1.363 . S
C994 C999 1.379 . S
C994 N1001 1.356 . S
C995 C994 1.363 . S
C995 C998 1.363 . S
N996 C998 1.356 . S
N996 H1008 0.984 . S
N996 H1009 0.985 . S
N997 C999 1.356 . S
N997 H1002 0.984 . S
N997 H1003 0.985 . S
C998 C992 1.379 . S
C998 C995 1.363 . S
C998 N996 1.356 . S
C999 C993 1.363 . S
C999 C994 1.379 . S
C999 N997 1.356 . S
N1000 C992 1.356 . S
N1000 H1006 0.984 . S
N1000 H1007 0.984 . S
N1001 C994 1.356 . S
N1001 H1004 0.984 . S
N1001 H1005 0.985 . S
H1002 N997 0.984 . S
H1003 N997 0.985 . S
H1004 N1001 0.984 . S
H1005 N1001 0.985 . S
H1006 N1000 0.984 . S
H1007 N1000 0.984 . S
H1008 N996 0.984 . S
H1009 N996 0.985 . S
C1010 C1011 1.363 . S
C1010 C1016 1.379 . S
C1010 N1018 1.356 . S
C1011 C1010 1.363 . S
C1011 C1017 1.363 . S
C1012 C1013 1.363 . S
C1012 C1017 1.379 . S
C1012 N1019 1.356 . S
C1013 C1012 1.363 . S
C1013 C1016 1.363 . S
N1014 C1016 1.356 . S
N1014 H1026 0.984 . S
N1014 H1027 0.985 . S
N1015 C1017 1.356 . S
N1015 H1020 0.984 . S
N1015 H1021 0.985 . S
C1016 C1010 1.379 . S
C1016 C1013 1.363 . S
C1016 N1014 1.356 . S
C1017 C1011 1.363 . S
C1017 C1012 1.379 . S
C1017 N1015 1.356 . S
N1018 C1010 1.356 . S
N1018 H1024 0.984 . S
N1018 H1025 0.984 . S
N1019 C1012 1.356 . S
N1019 H1022 0.984 . S
N1019 H1023 0.985 . S
H1020 N1015 0.984 . S
H1021 N1015 0.985 . S
H1022 N1019 0.984 . S
H1023 N1019 0.985 . S
H1024 N1018 0.984 . S
H1025 N1018 0.984 . S
H1026 N1014 0.984 . S
H1027 N1014 0.985 . S
C599 C328 1.538 . S
C597 C15 1.547 . S
C617 C381 1.561 . S
C615 C55 1.567 . S
C635 C342 1.580 . S
C633 C101 1.562 . S
C653 C367 1.589 . S
C651 C141 1.592 . S
C671 C413 1.521 . S
C669 C2 1.497 . S
C689 C459 1.520 . S
C687 C61 1.501 . S
C705 C95 1.637 . S
C707 C526 1.632 . S
C725 C558 1.516 . S
C723 C135 1.523 . S
C743 C427 1.522 . S
C741 C42 1.490 . S
C759 C82 1.510 . S
C761 C473 1.546 . S
C779 C512 1.610 . S
C777 C122 1.650 . S
C797 C572 1.535 . S
C795 C21 1.509 . S
C813 C162 1.594 . S
C815 C388 1.584 . S
C833 C321 1.575 . S
C831 C221 1.573 . S
C849 C255 1.567 . S
C851 C374 1.561 . S
C867 C282 1.526 . S
C869 C335 1.537 . S
C887 C519 1.625 . S
C885 C181 1.664 . S
C905 C565 1.533 . S
C903 C202 1.537 . S
C923 C420 1.526 . S
C921 C242 1.525 . S
C939 C301 1.511 . S
C941 C480 1.528 . S
C959 C505 1.632 . S
C957 C215 1.643 . S
C977 C551 1.529 . S
C975 C261 1.532 . S
C995 C434 1.517 . S
C993 C295 1.523 . S
C1011 C175 1.528 . S
C1013 C466 1.527 . S
