# Generated by pormake.
# Topology sqc, (4,8)-cn, num edge types: 1
# Building blocks:
#     Node 0, Type 0, BuildingBlock: GIZVER_clean_linker_0, # of connection points: 4
#     Node 1, Type 0, BuildingBlock: GIZVER_clean_linker_0, # of connection points: 4
#     Node 2, Type 0, BuildingBlock: GIZVER_clean_linker_0, # of connection points: 4
#     Node 3, Type 0, BuildingBlock: GIZVER_clean_linker_0, # of connection points: 4
#     Node 4, Type 0, BuildingBlock: GIZVER_clean_linker_0, # of connection points: 4
#     Node 5, Type 0, BuildingBlock: GIZVER_clean_linker_0, # of connection points: 4
#     Node 6, Type 0, BuildingBlock: GIZVER_clean_linker_0, # of connection points: 4
#     Node 7, Type 0, BuildingBlock: GIZVER_clean_linker_0, # of connection points: 4
#     Node 8, Type 1, BuildingBlock: VETTIZ_charged_sbu_0, # of connection points: 8
#     Node 9, Type 1, BuildingBlock: VETTIZ_charged_sbu_0, # of connection points: 8
#     Node 10, Type 1, BuildingBlock: VETTIZ_charged_sbu_0, # of connection points: 8
#     Node 11, Type 1, BuildingBlock: VETTIZ_charged_sbu_0, # of connection points: 8
#     Edge 12, Type (0, 1), BuildingBlock: CIFDUS_clean_linker_0, # of connection points: 2
#     Edge 13, Type (0, 1), BuildingBlock: CIFDUS_clean_linker_0, # of connection points: 2
#     Edge 14, Type (0, 1), BuildingBlock: CIFDUS_clean_linker_0, # of connection points: 2
#     Edge 15, Type (0, 1), BuildingBlock: CIFDUS_clean_linker_0, # of connection points: 2
#     Edge 16, Type (0, 1), BuildingBlock: CIFDUS_clean_linker_0, # of connection points: 2
#     Edge 17, Type (0, 1), BuildingBlock: CIFDUS_clean_linker_0, # of connection points: 2
#     Edge 18, Type (0, 1), BuildingBlock: CIFDUS_clean_linker_0, # of connection points: 2
#     Edge 19, Type (0, 1), BuildingBlock: CIFDUS_clean_linker_0, # of connection points: 2
#     Edge 20, Type (0, 1), BuildingBlock: CIFDUS_clean_linker_0, # of connection points: 2
#     Edge 21, Type (0, 1), BuildingBlock: CIFDUS_clean_linker_0, # of connection points: 2
#     Edge 22, Type (0, 1), BuildingBlock: CIFDUS_clean_linker_0, # of connection points: 2
#     Edge 23, Type (0, 1), BuildingBlock: CIFDUS_clean_linker_0, # of connection points: 2
#     Edge 24, Type (0, 1), BuildingBlock: CIFDUS_clean_linker_0, # of connection points: 2
#     Edge 25, Type (0, 1), BuildingBlock: CIFDUS_clean_linker_0, # of connection points: 2
#     Edge 26, Type (0, 1), BuildingBlock: CIFDUS_clean_linker_0, # of connection points: 2
#     Edge 27, Type (0, 1), BuildingBlock: CIFDUS_clean_linker_0, # of connection points: 2
#     Edge 28, Type (0, 1), BuildingBlock: CIFDUS_clean_linker_0, # of connection points: 2
#     Edge 29, Type (0, 1), BuildingBlock: CIFDUS_clean_linker_0, # of connection points: 2
#     Edge 30, Type (0, 1), BuildingBlock: CIFDUS_clean_linker_0, # of connection points: 2
#     Edge 31, Type (0, 1), BuildingBlock: CIFDUS_clean_linker_0, # of connection points: 2
#     Edge 32, Type (0, 1), BuildingBlock: CIFDUS_clean_linker_0, # of connection points: 2
#     Edge 33, Type (0, 1), BuildingBlock: CIFDUS_clean_linker_0, # of connection points: 2
#     Edge 34, Type (0, 1), BuildingBlock: CIFDUS_clean_linker_0, # of connection points: 2
#     Edge 35, Type (0, 1), BuildingBlock: CIFDUS_clean_linker_0, # of connection points: 2
#     Edge 36, Type (0, 1), BuildingBlock: CIFDUS_clean_linker_0, # of connection points: 2
#     Edge 37, Type (0, 1), BuildingBlock: CIFDUS_clean_linker_0, # of connection points: 2
#     Edge 38, Type (0, 1), BuildingBlock: CIFDUS_clean_linker_0, # of connection points: 2
#     Edge 39, Type (0, 1), BuildingBlock: CIFDUS_clean_linker_0, # of connection points: 2
#     Edge 40, Type (0, 1), BuildingBlock: CIFDUS_clean_linker_0, # of connection points: 2
#     Edge 41, Type (0, 1), BuildingBlock: CIFDUS_clean_linker_0, # of connection points: 2
#     Edge 42, Type (0, 1), BuildingBlock: CIFDUS_clean_linker_0, # of connection points: 2
#     Edge 43, Type (0, 1), BuildingBlock: CIFDUS_clean_linker_0, # of connection points: 2
# Relax obj value: 0.167
# Max RMSD: 0.279
# Mean RMSD: 0.219
data_MOF--net-sqc--node1-VETTIZ_charged_sbu_0--node2-GIZVER_clean_linker_0--edge1-CIFDUS_clean_linker_0
_symmetry_space_group_name_H-M    P1
_symmetry_Int_Tables_number       1
_symmetry_cell_setting            triclinic
loop_
_symmetry_equiv_pos_as_xyz
'x, y, z'
_cell_length_a     22.249643
_cell_length_b     22.155384
_cell_length_c     60.30092
_cell_angle_alpha  89.798951
_cell_angle_beta   89.361076
_cell_angle_gamma 90.406566
loop_
_atom_site_label
_atom_site_type_symbol
_atom_site_fract_x
_atom_site_fract_y
_atom_site_fract_z
_atom_type_partial_charge
H0 H 0.94869 0.06181 0.46106 0.0
H1 H 0.96967 0.13591 0.52649 0.0
H2 H 0.79693 0.07186 0.50553 0.0
H3 H 0.03967 0.11047 0.46926 0.0
H4 H 0.03897 0.16312 0.49139 0.0
H5 H 0.09917 0.01935 0.47209 0.0
H6 H 0.2181 0.0077 0.52725 0.0
H7 H 0.0712 0.13201 0.52923 0.0
C8 C 0.93003 0.07269 0.47723 0.0
C9 C 0.86829 0.06408 0.48132 0.0
C10 C 0.96737 0.09804 0.49345 0.0
C11 C 0.94211 0.1144 0.51412 0.0
C12 C 0.88079 0.10404 0.51876 0.0
C13 C 0.84443 0.07905 0.50221 0.0
C14 C 0.03172 0.11461 0.48744 0.0
C15 C 0.07809 0.07799 0.49974 0.0
C16 C 0.11073 0.0321 0.48885 0.0
C17 C 0.16041 1.00519 0.49915 0.0
C18 C 0.1768 0.02468 0.52033 0.0
C19 C 0.14512 0.07019 0.53148 0.0
C20 C 0.09494 0.09562 0.52118 0.0
H21 H 0.38693 0.84648 0.75154 0.0
H22 H 0.26319 0.78958 0.8034 0.0
H23 H 0.26074 0.97184 0.779 0.0
H24 H 0.39577 0.74763 0.76554 0.0
H25 H 0.38152 0.74868 0.79448 0.0
H26 H 0.32745 0.69014 0.74029 0.0
H27 H 0.2474 0.53485 0.77196 0.0
H28 H 0.30406 0.68388 0.81156 0.0
C29 C 0.34873 0.85535 0.76232 0.0
C30 C 0.32571 0.91419 0.76338 0.0
C31 C 0.32587 0.80932 0.77648 0.0
C32 C 0.27916 0.82324 0.79163 0.0
C33 C 0.25465 0.88151 0.79216 0.0
C34 C 0.2779 0.92619 0.77791 0.0
C35 C 0.3589 0.74979 0.77812 0.0
C36 C 0.31959 0.69383 0.77608 0.0
C37 C 0.31061 0.66726 0.75502 0.0
C38 C 0.28296 0.60998 0.7532 0.0
C39 C 0.26439 0.58074 0.77275 0.0
C40 C 0.2692 0.60755 0.79365 0.0
C41 C 0.29776 0.66395 0.79536 0.0
H42 H 0.57533 0.97188 0.05636 0.0
H43 H 0.58147 0.08894 0.9991 0.0
H44 H 0.72782 0.96866 0.01255 0.0
H45 H 0.51203 0.0603 0.05476 0.0
H46 H 0.51875 0.1125 0.03245 0.0
H47 H 0.43753 0.97792 0.05397 0.0
H48 H 0.29517 0.99754 0.0071 0.0
H49 H 0.45763 0.10196 0.99902 0.0
C50 C 0.59668 0.98635 0.04097 0.0
C51 C 0.65323 0.96348 0.03512 0.0
C52 C 0.56965 0.03096 0.02775 0.0
C53 C 0.60054 0.05241 0.00865 0.0
C54 C 0.65786 0.02994 0.00285 0.0
C55 C 0.68258 0.98434 0.01597 0.0
C56 C 0.51441 0.06352 0.03634 0.0
C57 C 0.45595 0.0401 0.02685 0.0
C58 C 0.42088 0.9972 0.0387 0.0
C59 C 0.36302 0.9816 0.03142 0.0
C60 C 0.34078 0.00797 0.0121 0.0
C61 C 0.37431 0.05157 1.00034 0.0
C62 C 0.43224 0.06696 0.00764 0.0
H63 H 0.16452 0.21826 0.24165 0.0
H64 H 0.23307 0.2072 0.30773 0.0
H65 H 0.26563 0.06304 0.26225 0.0
H66 H 0.11202 0.26691 0.27272 0.0
H67 H 0.13874 0.25973 0.30018 0.0
H68 H 0.13676 0.35301 0.25089 0.0
H69 H 0.22254 0.5013 0.28335 0.0
H70 H 0.22392 0.32558 0.31373 0.0
C71 C 0.1911 0.1944 0.25372 0.0
C72 C 0.217 0.13798 0.24843 0.0
C73 C 0.19545 0.21865 0.27527 0.0
C74 C 0.23 0.18881 0.29114 0.0
C75 C 0.25685 0.13341 0.28623 0.0
C76 C 0.24955 0.10835 0.26505 0.0
C77 C 0.15369 0.26829 0.28276 0.0
C78 C 0.18144 0.33068 0.28154 0.0
C79 C 0.16511 0.36949 0.2641 0.0
C80 C 0.17974 0.43092 0.26491 0.0
C81 C 0.21319 0.45319 0.28255 0.0
C82 C 0.22906 0.41593 0.3003 0.0
C83 C 0.21426 0.35411 0.2996 0.0
H84 H 0.6584 0.32964 0.28899 0.0
H85 H 0.7566 0.33952 0.2272 0.0
H86 H 0.75932 0.48916 0.27248 0.0
H87 H 0.62447 0.27289 0.2577 0.0
H88 H 0.66082 0.27982 0.23161 0.0
H89 H 0.66374 0.20027 0.28693 0.0
H90 H 0.75165 0.04576 0.25858 0.0
H91 H 0.7203 0.20078 0.21823 0.0
C92 C 0.69024 0.35293 0.27818 0.0
C93 C 0.70912 0.41177 0.28355 0.0
C94 C 0.70644 0.32654 0.2578 0.0
C95 C 0.74556 0.35873 0.24322 0.0
C96 C 0.76694 0.41714 0.24868 0.0
C97 C 0.74818 0.44252 0.26896 0.0
C98 C 0.66963 0.27304 0.24957 0.0
C99 C 0.69713 0.21112 0.25311 0.0
C100 C 0.68799 0.17907 0.2734 0.0
C101 C 0.7049 0.11774 0.2752 0.0
C102 C 0.73548 0.09172 0.25726 0.0
C103 C 0.73604 0.11897 0.23641 0.0
C104 C 0.71981 0.17967 0.23448 0.0
H105 H 0.67547 0.71207 0.74615 0.0
H106 H 0.76987 0.70751 0.8077 0.0
H107 H 0.78934 0.56224 0.76151 0.0
H108 H 0.63038 0.75519 0.78006 0.0
H109 H 0.66995 0.75402 0.80544 0.0
H110 H 0.65143 0.8333 0.75165 0.0
H111 H 0.73093 0.9968 0.77598 0.0
H112 H 0.74007 0.8342 0.81488 0.0
C113 C 0.70751 0.68992 0.75674 0.0
C114 C 0.73423 0.63504 0.7502 0.0
C115 C 0.71824 0.71464 0.77785 0.0
C116 C 0.76106 0.68771 0.79166 0.0
C117 C 0.78929 0.63365 0.78541 0.0
C118 C 0.77371 0.60725 0.76505 0.0
C119 C 0.67583 0.76144 0.78728 0.0
C120 C 0.69627 0.82573 0.7832 0.0
C121 C 0.67749 0.85674 0.76408 0.0
C122 C 0.69006 0.91854 0.76146 0.0
C123 C 0.72174 0.94896 0.778 0.0
C124 C 0.73907 0.91965 0.79752 0.0
C125 C 0.72763 0.85738 0.79977 0.0
H126 H 0.45384 0.52818 0.04904 0.0
H127 H 0.44366 0.4367 0.98657 0.0
H128 H 0.30054 0.55414 0.00802 0.0
H129 H 0.5051 0.4326 0.04325 0.0
H130 H 0.49918 0.39315 0.01776 0.0
H131 H 0.58644 0.50281 0.04946 0.0
H132 H 0.73286 0.49984 0.00251 0.0
H133 H 0.56276 0.42118 0.98538 0.0
C134 C 0.43178 0.52116 0.0333 0.0
C135 C 0.37688 0.5492 0.02924 0.0
C136 C 0.45539 0.47973 0.01806 0.0
C137 C 0.42485 0.46883 0.99816 0.0
C138 C 0.36817 0.49483 0.99418 0.0
C139 C 0.34529 0.53594 0.00984 0.0
C140 C 0.50592 0.43891 0.02493 0.0
C141 C 0.56664 0.4627 0.01771 0.0
C142 C 0.60339 0.4933 0.03293 0.0
C143 C 0.66371 0.50602 0.0276 0.0
C144 C 0.68582 0.49149 0.00642 0.0
C145 C 0.64995 0.4608 0.9911 0.0
C146 C 0.59004 0.44711 0.99675 0.0
H147 H 0.08879 0.49937 0.55972 0.0
H148 H 0.08014 0.61676 0.50252 0.0
H149 H 0.24761 0.5389 0.52078 0.0
H150 H 0.01272 0.57881 0.5573 0.0
H151 H 0.00953 0.62765 0.5341 0.0
H152 H 0.94094 0.50085 0.56108 0.0
H153 H 0.80286 0.48779 0.51243 0.0
H154 H 0.96502 0.58814 0.49777 0.0
C155 C 0.1103 0.51993 0.54534 0.0
C156 C 0.17244 0.51154 0.54152 0.0
C157 C 0.07627 0.55773 0.53129 0.0
C158 C 0.10485 0.5857 0.51286 0.0
C159 C 0.16671 0.57827 0.50913 0.0
C160 C 0.19943 0.54147 0.52339 0.0
C161 C 0.01476 0.5794 0.53885 0.0
C162 C 0.96122 0.54467 0.52978 0.0
C163 C 0.92575 0.50891 0.54432 0.0
C164 C 0.86816 0.48902 0.53816 0.0
C165 C 0.84762 0.50243 0.51682 0.0
C166 C 0.88096 0.53906 0.50207 0.0
C167 C 0.93889 0.55856 0.50853 0.0
Fe168 Fe 1.00382 0.81084 0.19245 0.0
O169 O 0.00949 0.80628 0.15987 0.0
Fe170 Fe 0.93765 0.76572 0.14324 0.0
Fe171 Fe 0.07814 0.77037 0.14295 0.0
O172 O 1.00375 0.80476 0.16014 0.0
O173 O 1.0054 0.72322 0.12787 0.0
O174 O 0.01259 0.72456 0.12766 0.0
Fe175 Fe 0.00992 0.71785 0.09523 0.0
C176 C 0.1228 0.86848 0.17587 0.0
O177 O 0.06664 0.74439 0.19799 0.0
O178 O 0.08488 0.70117 0.16518 0.0
O179 O 0.9386 0.6592 0.10101 0.0
O180 O 0.87715 0.71776 0.12315 0.0
O181 O 0.9303 0.69516 0.16587 0.0
O182 O 0.93743 0.74637 0.19737 0.0
O183 O 0.14086 0.72336 0.12316 0.0
O184 O 0.08152 0.66174 0.10129 0.0
C185 C 0.92494 0.69819 0.18688 0.0
O186 O 0.94312 0.78015 0.08982 0.0
O187 O 0.94122 0.83475 0.12046 0.0
O188 O 0.07321 0.87028 0.18727 0.0
O189 O 0.13703 0.82671 0.16147 0.0
C190 C 0.08592 0.70081 0.1862 0.0
C191 C 0.1325 0.67725 0.11008 0.0
C192 C 0.09253 0.82983 0.09992 0.0
O193 O 0.07619 0.83907 0.11989 0.0
O194 O 0.07587 0.78257 0.08967 0.0
C195 C 0.88629 0.67367 0.10924 0.0
O196 O 0.87647 0.82087 0.16098 0.0
O197 O 0.93733 0.87102 0.18583 0.0
C198 C 0.92514 0.82596 0.10061 0.0
C199 C 0.88972 0.8665 0.17376 0.0
Fe200 Fe 0.5534 0.79403 0.44445 0.0
O201 O 0.55211 0.77911 0.41223 0.0
Fe202 Fe 0.51053 0.84412 0.39204 0.0
Fe203 Fe 0.51551 0.70415 0.39959 0.0
O204 O 0.55184 0.78554 0.41195 0.0
O205 O 0.47275 0.7693 0.37977 0.0
O206 O 0.47218 0.7628 0.38028 0.0
Fe207 Fe 0.46536 0.75314 0.34815 0.0
C208 C 0.61461 0.67457 0.43416 0.0
O209 O 0.49472 0.72513 0.45241 0.0
O210 O 0.4439 0.70794 0.42178 0.0
O211 O 0.40653 0.82514 0.3498 0.0
O212 O 0.46163 0.89511 0.36954 0.0
O213 O 0.43887 0.85096 0.41313 0.0
O214 O 0.4816 0.85388 0.44634 0.0
O215 O 0.4687 0.63346 0.3837 0.0
O216 O 0.40904 0.68287 0.35825 0.0
C217 C 0.43726 0.86339 0.43359 0.0
O218 O 0.52856 0.81764 0.33926 0.0
O219 O 0.58052 0.84309 0.36936 0.0
O220 O 0.61775 0.72876 0.44223 0.0
O221 O 0.57073 0.6543 0.42178 0.0
C222 C 0.44628 0.71089 0.44277 0.0
C223 C 0.42394 0.63559 0.36987 0.0
C224 C 0.57643 0.67477 0.35734 0.0
O225 O 0.5852 0.69554 0.37674 0.0
O226 O 0.52962 0.68752 0.34641 0.0
C227 C 0.41971 0.87999 0.35575 0.0
O228 O 0.55718 0.91491 0.40801 0.0
O229 O 0.60741 0.86589 0.43609 0.0
C230 C 0.57258 0.84463 0.34845 0.0
C231 C 0.59923 0.91114 0.42285 0.0
Fe232 Fe 0.51408 0.30352 0.69577 0.0
O233 O 0.51834 0.30374 0.66317 0.0
Fe234 Fe 0.44548 0.26812 0.64566 0.0
Fe235 Fe 0.5862 0.26925 0.64532 0.0
O236 O 0.51234 0.30475 0.66301 0.0
O237 O 0.51273 0.22687 0.62958 0.0
O238 O 0.51973 0.22632 0.62966 0.0
Fe239 Fe 0.51683 0.22137 0.59724 0.0
C240 C 0.63178 0.36368 0.6794 0.0
O241 O 0.57785 0.2371 0.69966 0.0
O242 O 0.59368 0.19685 0.66621 0.0
O243 O 0.44514 0.16258 0.60304 0.0
O244 O 0.38493 0.22143 0.62575 0.0
O245 O 0.44081 0.19504 0.66678 0.0
O246 O 0.44834 0.23774 0.69983 0.0
O247 O 0.64862 0.22497 0.62421 0.0
O248 O 0.58827 0.16438 0.60257 0.0
C249 C 0.43542 0.1927 0.68772 0.0
O250 O 0.4517 0.28473 0.59236 0.0
O251 O 0.44408 0.33924 0.62324 0.0
O252 O 0.58294 0.3637 0.69128 0.0
O253 O 0.64573 0.32339 0.66439 0.0
C254 C 0.5959 0.19462 0.68718 0.0
C255 C 0.64022 0.18038 0.6104 0.0
C256 C 0.59504 0.33512 0.60305 0.0
O257 O 0.58277 0.34051 0.62357 0.0
O258 O 0.58186 0.28762 0.59223 0.0
C259 C 0.39381 0.17653 0.61226 0.0
O260 O 0.3851 0.32099 0.66491 0.0
O261 O 0.44697 0.36428 0.6911 0.0
C262 C 0.43408 0.33154 0.60263 0.0
C263 C 0.39903 0.36321 0.67912 0.0
Fe264 Fe 0.0171 0.27 0.94229 0.0
O265 O 0.00675 0.25776 0.91086 0.0
Fe266 Fe 0.02511 0.33054 0.88761 0.0
Fe267 Fe 0.0092 0.18076 0.89367 0.0
O268 O 0.03011 0.26499 0.91042 0.0
O269 O 0.00627 0.25582 0.87034 0.0
O270 O 0.02927 0.24339 0.8707 0.0
Fe271 Fe 0.0167 0.24046 0.8389 0.0
C272 C 0.11527 0.17982 0.92741 0.0
O273 O 0.95573 0.20003 0.94481 0.0
O274 O 0.9744 0.1278 0.91923 0.0
O275 O 0.97354 0.32342 0.83568 0.0
O276 O 1.00451 0.38897 0.86231 0.0
O277 O 0.93887 0.34531 0.9011 0.0
O278 O 0.94688 0.32936 0.93851 0.0
O279 O 0.92231 0.18269 0.88037 0.0
O280 O 0.93657 0.19409 0.84292 0.0
C281 C 0.91911 0.34884 0.92128 0.0
O282 O 0.09685 0.28824 0.83783 0.0
O283 O 0.11113 0.3228 0.87289 0.0
O284 O 0.08745 0.20952 0.94277 0.0
O285 O 0.09546 0.17149 0.90749 0.0
C286 C 0.94528 0.14828 0.93613 0.0
C287 C 0.90534 0.17732 0.86003 0.0
C288 C 0.05062 0.10958 0.85347 0.0
O289 O 0.02572 0.1085 0.87283 0.0
O290 O 0.05885 0.15761 0.8417 0.0
C291 C 0.97758 0.3767 0.84411 0.0
O292 O 0.05931 0.39695 0.90836 0.0
O293 O 0.07754 0.34023 0.93903 0.0
C294 C 0.1228 0.32388 0.85179 0.0
C295 C 0.08715 0.38655 0.9266 0.0
H296 H 0.20712 0.01631 0.45727 0.0
H297 H 0.20872 0.90099 0.51502 0.0
H298 H 0.29584 0.84743 0.5002 0.0
H299 H 0.37805 0.84032 0.47251 0.0
H300 H 0.37207 0.9502 0.4135 0.0
H301 H 0.28101 0.99947 0.42719 0.0
C302 C 0.22536 0.97829 0.46629 0.0
C303 C 0.20182 0.96322 0.48734 0.0
C304 C 0.27585 0.94783 0.45772 0.0
C305 C 0.22643 0.91396 0.49887 0.0
C306 C 0.27656 0.88359 0.4905 0.0
C307 C 0.35656 0.87485 0.46268 0.0
C308 C 0.38218 0.89235 0.44226 0.0
C309 C 0.30295 0.90152 0.4703 0.0
C310 C 0.35341 0.93645 0.42942 0.0
C311 C 0.30122 0.96447 0.43719 0.0
H312 H 0.33635 0.93553 0.71866 0.0
H313 H 0.38001 0.00949 0.78253 0.0
H314 H 0.41808 0.10181 0.76494 0.0
H315 H 0.43417 0.16383 0.73172 0.0
H316 H 0.39018 0.09153 0.6675 0.0
H317 H 0.35688 0.997 0.68481 0.0
C318 C 0.35508 0.97162 0.72859 0.0
C319 C 0.35544 0.96588 0.75183 0.0
C320 C 0.37599 0.02535 0.71835 0.0
C321 C 0.37928 0.01308 0.7646 0.0
C322 C 0.40079 0.06595 0.75457 0.0
C323 C 0.41704 0.1276 0.72147 0.0
C324 C 0.41415 0.13541 0.69833 0.0
C325 C 0.39832 0.07311 0.73151 0.0
C326 C 0.39266 0.08725 0.68536 0.0
C327 C 0.37371 0.03293 0.69525 0.0
H328 H 0.31427 0.00964 0.96434 0.0
H329 H 0.36334 0.1734 0.99827 0.0
H330 H 0.29135 0.23018 0.97629 0.0
H331 H 0.20333 0.22956 0.95197 0.0
H332 H 0.15448 0.06667 0.91749 0.0
H333 H 0.23782 0.0132 0.9349 0.0
C334 C 0.31025 0.05806 0.96643 0.0
C335 C 0.34363 0.08727 0.983 0.0
C336 C 0.26817 0.09027 0.9539 0.0
C337 C 0.33842 0.15002 0.98553 0.0
C338 C 0.29677 0.18238 0.97314 0.0
C339 C 0.21184 0.18268 0.94794 0.0
C340 C 0.17249 0.15166 0.9338 0.0
C341 C 0.2597 0.15245 0.95798 0.0
C342 C 0.18424 0.09129 0.92837 0.0
C343 C 0.2316 0.06069 0.93844 0.0
H344 H 0.28351 0.05005 0.22655 0.0
H345 H 0.1171 0.14949 0.22187 0.0
H346 H 0.08328 0.08197 0.19324 0.0
H347 H 0.08928 0.98327 0.176 0.0
H348 H 0.24355 0.87084 0.18642 0.0
H349 H 0.29339 0.95389 0.20624 0.0
C350 C 0.23954 0.05711 0.21951 0.0
C351 C 0.20261 0.10476 0.22732 0.0
C352 C 0.21768 0.0148 0.2041 0.0
C353 C 0.14738 0.11422 0.21667 0.0
C354 C 0.12728 0.07479 0.2003 0.0
C355 C 0.1347 0.97758 0.18204 0.0
C356 C 0.16261 0.92098 0.17994 0.0
C357 C 0.16053 0.02337 0.19482 0.0
C358 C 0.22137 0.91407 0.18768 0.0
C359 C 0.24928 0.9613 0.19934 0.0
H360 H 0.20656 0.01298 0.56444 0.0
H361 H 0.14433 0.18934 0.54451 0.0
H362 H 0.20817 0.23618 0.57194 0.0
H363 H 0.29635 0.22922 0.59571 0.0
H364 H 0.37366 0.05546 0.60938 0.0
H365 H 0.2912 1.0055 0.58977 0.0
C366 C 0.20682 0.06171 0.56602 0.0
C367 C 0.17145 0.09723 0.55185 0.0
C368 C 0.24777 0.08899 0.58041 0.0
C369 C 0.1705 0.1602 0.55505 0.0
C370 C 0.20793 0.1874 0.57056 0.0
C371 C 0.29409 0.18031 0.59481 0.0
C372 C 0.34034 0.14568 0.60387 0.0
C373 C 0.24889 0.1525 0.58244 0.0
C374 C 0.33821 0.0826 0.60239 0.0
C375 C 0.29124 0.05426 0.5912 0.0
H376 H 0.14396 0.9242 0.78451 0.0
H377 H 0.26678 0.88413 0.83709 0.0
H378 H 0.2069 0.94507 0.86294 0.0
H379 H 0.13061 0.02557 0.86821 0.0
H380 H 0.01237 0.06839 0.81436 0.0
H381 H 0.05821 0.99015 0.79153 0.0
C382 C 0.15617 0.92711 0.80186 0.0
C383 C 0.20945 0.90003 0.80896 0.0
C384 C 0.12273 0.96369 0.81629 0.0
C385 C 0.22549 0.90426 0.83137 0.0
C386 C 0.19166 0.93973 0.84605 0.0
C387 C 0.11383 0.01615 0.85175 0.0
C388 C 0.06868 0.0527 0.84281 0.0
C389 C 0.1418 0.97204 0.83841 0.0
C390 C 0.04745 0.04084 0.82142 0.0
C391 C 0.07375 0.99631 0.80835 0.0
H392 H 0.2971 0.01241 0.06768 0.0
H393 H 0.33446 0.86481 0.02346 0.0
H394 H 0.25308 0.80526 0.04062 0.0
H395 H 0.16811 0.79772 0.06651 0.0
H396 H 0.12968 0.94428 0.11133 0.0
H397 H 0.21414 1.00231 0.09543 0.0
C398 C 0.28808 0.96665 0.06224 0.0
C399 C 0.32211 0.94231 0.04464 0.0
C400 C 0.24027 0.93331 0.07189 0.0
C401 C 0.30937 0.88373 0.03724 0.0
C402 C 0.26252 0.85009 0.04689 0.0
C403 C 0.17772 0.84257 0.07276 0.0
C404 C 0.14172 0.86702 0.08986 0.0
C405 C 0.22691 0.87493 0.06388 0.0
C406 C 0.15607 0.92465 0.09802 0.0
C407 C 0.20458 0.95768 0.089 0.0
H408 H 0.35793 0.06737 0.28188 0.0
H409 H 0.22157 0.11728 0.3297 0.0
H410 H 0.26227 0.04554 0.3564 0.0
H411 H 0.33145 0.9612 0.36485 0.0
H412 H 0.46082 0.90664 0.31526 0.0
H413 H 0.42735 0.98642 0.29036 0.0
C414 C 0.33712 0.06264 0.29816 0.0
C415 C 0.28656 0.09724 0.30368 0.0
C416 C 0.35886 0.01952 0.31297 0.0
C417 C 0.26095 0.09162 0.32505 0.0
C418 C 0.2837 0.05002 0.34025 0.0
C419 C 0.35185 0.96713 0.34856 0.0
C420 C 0.39751 0.92814 0.34154 0.0
C421 C 0.33164 0.01255 0.33417 0.0
C422 C 0.42473 0.93597 0.32064 0.0
C423 C 0.40592 0.98162 0.30651 0.0
H424 H 0.80377 0.03823 0.5445 0.0
H425 H 0.89428 0.21077 0.54113 0.0
H426 H 0.83452 0.24648 0.57272 0.0
H427 H 0.74598 0.23334 0.59743 0.0
H428 H 0.65097 0.06311 0.59836 0.0
H429 H 0.72355 0.02137 0.57202 0.0
C430 C 0.81091 0.08343 0.55087 0.0
C431 C 0.85277 0.12206 0.54027 0.0
C432 C 0.77533 0.10409 0.56862 0.0
C433 C 0.8624 0.18008 0.54898 0.0
C434 C 0.8279 0.20066 0.56697 0.0
C435 C 0.74222 0.18668 0.59236 0.0
C436 C 0.6929 0.15152 0.59973 0.0
C437 C 0.78277 0.16375 0.57643 0.0
C438 C 0.68842 0.09112 0.59286 0.0
C439 C 0.72965 0.06737 0.57767 0.0
H440 H 0.66357 1.00383 0.26975 0.0
H441 H 0.69187 0.13619 0.32096 0.0
H442 H 0.65827 0.06154 0.34903 0.0
H443 H 0.61941 0.95721 0.35846 0.0
H444 H 0.60213 0.82712 0.30569 0.0
H445 H 0.63733 0.90167 0.27887 0.0
C446 C 0.66474 0.01659 0.28708 0.0
C447 C 0.68233 0.0756 0.29312 0.0
C448 C 0.6484 0.97315 0.30292 0.0
C449 C 0.67916 0.09125 0.3157 0.0
C450 C 0.66048 0.04828 0.33176 0.0
C451 C 0.62522 0.94486 0.34119 0.0
C452 C 0.6083 0.88633 0.3341 0.0
C453 C 0.64533 0.98871 0.32555 0.0
C454 C 0.61489 0.8715 0.3116 0.0
C455 C 0.63448 0.91432 0.2962 0.0
H456 H 0.71824 1.00039 0.06993 0.0
H457 H 0.67022 0.84288 0.03224 0.0
H458 H 0.75081 0.78567 0.04978 0.0
H459 H 0.84108 0.78443 0.07249 0.0
H460 H 0.89089 0.9417 0.11027 0.0
H461 H 0.80369 0.9958 0.09583 0.0
C462 C 0.72434 0.95292 0.06623 0.0
C463 C 0.68802 0.92517 0.05023 0.0
C464 C 0.77211 0.92125 0.07578 0.0
C465 C 0.69702 0.86435 0.04491 0.0
C466 C 0.74358 0.83212 0.05466 0.0
C467 C 0.83321 0.83074 0.07747 0.0
C468 C 0.87339 0.85978 0.09189 0.0
C469 C 0.78266 0.86083 0.06947 0.0
C470 C 0.86127 0.91894 0.09882 0.0
C471 C 0.81127 0.94964 0.09068 0.0
H472 H 0.70736 0.03176 0.81152 0.0
H473 H 0.83361 0.88894 0.82412 0.0
H474 H 0.88893 0.95506 0.84923 0.0
H475 H 0.91055 0.05775 0.86246 0.0
H476 H 0.79345 0.20382 0.84493 0.0
H477 H 0.7249 0.13241 0.82691 0.0
C478 C 0.747 0.01495 0.81975 0.0
C479 C 0.76715 0.95581 0.81549 0.0
C480 C 0.78005 0.05403 0.83328 0.0
C481 C 0.81721 0.93418 0.82699 0.0
C482 C 0.84907 0.97214 0.84124 0.0
C483 C 0.86879 0.07337 0.85538 0.0
C484 C 0.85591 0.1354 0.85535 0.0
C485 C 0.8321 0.03269 0.84386 0.0
C486 C 0.80313 0.15599 0.84551 0.0
C487 C 0.76456 0.11527 0.83501 0.0
H488 H 0.75606 0.10164 0.46987 0.0
H489 H 0.89104 0.9692 0.45387 0.0
H490 H 0.82109 0.91821 0.42922 0.0
H491 H 0.71745 0.90128 0.4176 0.0
H492 H 0.57945 0.02745 0.43587 0.0
H493 H 0.65473 0.09198 0.4538 0.0
C494 C 0.77025 0.06188 0.46084 0.0
C495 C 0.82839 0.03859 0.46403 0.0
C496 C 0.72924 0.03193 0.44705 0.0
C497 C 0.84666 0.98802 0.45176 0.0
C498 C 0.80657 0.95868 0.43772 0.0
C499 C 0.70445 0.94422 0.42475 0.0
C500 C 0.64343 0.96007 0.42541 0.0
C501 C 0.74726 0.97898 0.4359 0.0
C502 C 0.62643 0.0151 0.4349 0.0
C503 C 0.66932 0.05128 0.44547 0.0
H504 H 0.82144 0.12049 0.20337 0.0
H505 H 0.66369 0.02497 0.22673 0.0
H506 H 0.69057 0.93722 0.20458 0.0
H507 H 0.7721 0.88022 0.18623 0.0
H508 H 0.92826 0.97661 0.16194 0.0
H509 H 0.88826 0.07139 0.17596 0.0
C510 C 0.79183 0.08144 0.2028 0.0
C511 C 0.74185 0.07827 0.21707 0.0
C512 C 0.80774 0.03072 0.19006 0.0
C513 C 0.70327 0.02765 0.21612 0.0
C514 C 0.7187 0.97729 0.20355 0.0
C515 C 0.79568 0.92245 0.18306 0.0
C516 C 0.85326 0.92161 0.17349 0.0
C517 C 0.77281 0.97694 0.19154 0.0
C518 C 0.88383 0.97649 0.16951 0.0
C519 C 0.86132 0.03065 0.17772 0.0
H520 H 0.73681 0.97845 0.97324 0.0
H521 H 0.67134 0.15099 0.99583 0.0
H522 H 0.75347 0.20187 0.97627 0.0
H523 H 0.84918 0.19722 0.95656 0.0
H524 H 0.91888 0.0261 0.93448 0.0
H525 H 0.83002 0.97464 0.95038 0.0
C526 C 0.74 0.0273 0.97359 0.0
C527 C 0.6979 0.06067 0.98622 0.0
C528 C 0.78879 0.05637 0.96286 0.0
C529 C 0.70224 0.12399 0.98612 0.0
C530 C 0.74985 0.15318 0.97517 0.0
C531 C 0.84538 0.14852 0.95524 0.0
C532 C 0.8916 0.11531 0.94487 0.0
C533 C 0.79436 0.11969 0.9642 0.0
C534 C 0.88455 0.05258 0.94269 0.0
C535 C 0.83366 0.02328 0.95172 0.0
H536 H 0.74946 0.99683 0.73443 0.0
H537 H 0.57316 0.92345 0.7485 0.0
H538 H 0.52774 1.00165 0.7254 0.0
H539 H 0.53804 0.09817 0.70488 0.0
H540 H 0.71419 0.17261 0.69183 0.0
H541 H 0.76031 0.08708 0.71097 0.0
C542 C 0.70122 0.99727 0.73198 0.0
C543 C 0.66464 0.95474 0.74315 0.0
C544 C 0.67554 0.04327 0.71928 0.0
C545 C 0.60222 0.95539 0.73986 0.0
C546 C 0.57623 1.00057 0.72691 0.0
C547 C 0.58643 0.09516 0.70621 0.0
C548 C 0.62298 0.14145 0.69742 0.0
C549 C 0.61234 0.04592 0.71719 0.0
C550 C 0.68562 0.13734 0.69876 0.0
C551 C 0.71181 0.08855 0.70962 0.0
H552 H 0.72211 0.5155 0.96023 0.0
H553 H 0.64674 0.3428 0.97917 0.0
H554 H 0.71933 0.29161 0.9553 0.0
H555 H 0.81717 0.2956 0.93582 0.0
H556 H 0.89378 0.46756 0.91706 0.0
H557 H 0.80801 0.51967 0.93401 0.0
C558 C 0.72055 0.46678 0.95854 0.0
C559 C 0.6798 0.4329 0.97163 0.0
C560 C 0.76354 0.43755 0.94525 0.0
C561 C 0.67761 0.36986 0.96922 0.0
C562 C 0.71969 0.34048 0.95582 0.0
C563 C 0.81378 0.34437 0.93485 0.0
C564 C 0.86126 0.37809 0.92547 0.0
C565 C 0.76478 0.37373 0.94476 0.0
C566 C 0.85721 0.4411 0.9242 0.0
C567 C 0.80852 0.47076 0.93402 0.0
H568 H 0.85534 0.49894 0.25797 0.0
H569 H 0.75664 0.42548 0.20299 0.0
H570 H 0.80059 0.50255 0.17841 0.0
H571 H 0.85921 0.59834 0.17337 0.0
H572 H 0.94473 0.67707 0.23044 0.0
H573 H 0.91284 0.59187 0.25319 0.0
C574 C 0.84305 0.49958 0.24062 0.0
C575 C 0.80178 0.45644 0.2326 0.0
C576 C 0.8656 0.54609 0.22688 0.0
C577 C 0.78843 0.45742 0.20981 0.0
C578 C 0.81299 0.50222 0.19573 0.0
C579 C 0.87101 0.59663 0.19076 0.0
C580 C 0.90463 0.64443 0.20007 0.0
C581 C 0.85031 0.54799 0.20421 0.0
C582 C 0.91906 0.64134 0.22271 0.0
C583 C 0.90083 0.59242 0.23582 0.0
H584 H 0.79405 0.48735 0.47539 0.0
H585 H 0.89423 0.65328 0.48475 0.0
H586 H 0.82504 0.7061 0.46096 0.0
H587 H 0.72713 0.71052 0.44366 0.0
H588 H 0.61772 0.54986 0.43817 0.0
H589 H 0.6987 0.49014 0.45467 0.0
C590 C 0.80104 0.53509 0.47226 0.0
C591 C 0.84914 0.56612 0.48259 0.0
C592 C 0.75836 0.56665 0.45969 0.0
C593 C 0.85845 0.62741 0.47724 0.0
C594 C 0.81806 0.65822 0.46383 0.0
C595 C 0.72083 0.66227 0.44591 0.0
C596 C 0.66564 0.63495 0.44022 0.0
C597 C 0.76641 0.62903 0.45599 0.0
C598 C 0.65935 0.57215 0.44259 0.0
C599 C 0.70561 0.53815 0.45212 0.0
H600 H 0.79791 0.55096 0.72538 0.0
H601 H 0.62606 0.64175 0.72811 0.0
H602 H 0.58739 0.57352 0.70058 0.0
H603 H 0.59339 0.47645 0.68234 0.0
H604 H 0.7548 0.37086 0.68614 0.0
H605 H 0.80619 0.45555 0.70452 0.0
C606 C 0.75169 0.55584 0.72028 0.0
C607 C 0.71492 0.60132 0.72978 0.0
C608 C 0.72744 0.51281 0.70568 0.0
C609 C 0.65636 0.60822 0.72152 0.0
C610 C 0.63354 0.56836 0.70581 0.0
C611 C 0.64041 0.47246 0.68674 0.0
C612 C 0.67016 0.41734 0.68321 0.0
C613 C 0.66753 0.51888 0.69876 0.0
C614 C 0.73108 0.41285 0.68863 0.0
C615 C 0.75999 0.461 0.69943 0.0
H616 H 0.65378 0.60113 0.0564 0.0
H617 H 0.76947 0.45392 0.03768 0.0
H618 H 0.8457 0.48897 0.06333 0.0
H619 H 0.88332 0.56562 0.08851 0.0
H620 H 0.77057 0.7152 0.10711 0.0
H621 H 0.68911 0.67442 0.0846 0.0
C622 C 0.69544 0.57656 0.05819 0.0
C623 C 0.70659 0.52587 0.04482 0.0
C624 C 0.73961 0.59726 0.07298 0.0
C625 C 0.76053 0.49401 0.04738 0.0
C626 C 0.80403 0.51377 0.06214 0.0
C627 C 0.84065 0.58894 0.08793 0.0
C628 C 0.83332 0.64354 0.09937 0.0
C629 C 0.79465 0.56604 0.07462 0.0
C630 C 0.77742 0.67281 0.09858 0.0
C631 C 0.73094 0.64982 0.08553 0.0
H632 H 0.75857 0.49236 0.31304 0.0
H633 H 0.58984 0.41152 0.29369 0.0
H634 H 0.53539 0.48323 0.31648 0.0
H635 H 0.53446 0.57682 0.33714 0.0
H636 H 0.69998 0.65987 0.35795 0.0
H637 H 0.75726 0.58008 0.3389 0.0
C638 C 0.70994 0.48986 0.31416 0.0
C639 C 0.67849 0.44653 0.3015 0.0
C640 C 0.6784 0.53244 0.32705 0.0
C641 C 0.61549 0.44352 0.30336 0.0
C642 C 0.5841 0.48517 0.31617 0.0
C643 C 0.5831 0.57694 0.33792 0.0
C644 C 0.61306 0.62443 0.34867 0.0
C645 C 0.61499 0.53096 0.32735 0.0
C646 C 0.67603 0.62388 0.34965 0.0
C647 C 0.70859 0.57837 0.33873 0.0
H648 H 0.749 0.51205 0.54397 0.0
H649 H 0.89209 0.40199 0.5695 0.0
H650 H 0.82013 0.35016 0.59418 0.0
H651 H 0.71498 0.33066 0.60614 0.0
H652 H 0.5716 0.43188 0.57686 0.0
H653 H 0.64515 0.49306 0.55584 0.0
C654 C 0.76461 0.47615 0.55468 0.0
C655 C 0.8259 0.46006 0.55447 0.0
C656 C 0.72279 0.44518 0.56813 0.0
C657 C 0.84534 0.41522 0.56924 0.0
C658 C 0.80413 0.38536 0.58325 0.0
C659 C 0.70026 0.36633 0.59518 0.0
C660 C 0.6385 0.37722 0.5929 0.0
C661 C 0.74262 0.39916 0.58249 0.0
C662 C 0.61915 0.42346 0.57888 0.0
C663 C 0.66111 0.45797 0.56682 0.0
H664 H 0.88369 0.56223 0.774 0.0
H665 H 0.78743 0.62853 0.83148 0.0
H666 H 0.84408 0.56045 0.85517 0.0
H667 H 0.91187 0.47227 0.85897 0.0
H668 H 0.98564 0.39193 0.79963 0.0
H669 H 0.94541 0.4733 0.77727 0.0
C670 C 0.87401 0.56152 0.79167 0.0
C671 C 0.82996 0.59997 0.80066 0.0
C672 C 0.90247 0.51864 0.80491 0.0
C673 C 0.82099 0.60001 0.82384 0.0
C674 C 0.85284 0.56028 0.83746 0.0
C675 C 0.9194 0.47315 0.84116 0.0
C676 C 0.95289 0.42698 0.83102 0.0
C677 C 0.89223 0.51793 0.82808 0.0
C678 C 0.96113 0.42754 0.8079 0.0
C679 C 0.93792 0.47397 0.79506 0.0
H680 H 0.30131 0.50149 0.05918 0.0
H681 H 0.38278 0.6696 0.03859 0.0
H682 H 0.32011 0.7245 0.06554 0.0
H683 H 0.23324 0.72472 0.09148 0.0
H684 H 0.14657 0.5564 0.10905 0.0
H685 H 0.22109 0.5008 0.08731 0.0
C686 C 0.30588 0.55004 0.06099 0.0
C687 C 0.34601 0.58191 0.04716 0.0
C688 C 0.2689 0.58088 0.07599 0.0
C689 C 0.35191 0.64464 0.04926 0.0
C690 C 0.3161 0.6758 0.06457 0.0
C691 C 0.23206 0.67578 0.09103 0.0
C692 C 0.18513 0.64432 0.10186 0.0
C693 C 0.27329 0.64449 0.07761 0.0
C694 C 0.18278 0.58112 0.10089 0.0
C695 C 0.22498 0.5495 0.08835 0.0
H696 H 0.15955 0.56071 0.79624 0.0
H697 H 0.32282 0.57447 0.83344 0.0
H698 H 0.2887 0.49042 0.8576 0.0
H699 H 0.21754 0.40157 0.86388 0.0
H700 H 0.07709 0.37603 0.81587 0.0
H701 H 0.09694 0.47355 0.80005 0.0
C702 C 0.1874 0.54595 0.80989 0.0
C703 C 0.24371 0.57312 0.81286 0.0
C704 C 0.17166 0.49355 0.82146 0.0
C705 C 0.27903 0.55429 0.8308 0.0
C706 C 0.26003 0.50538 0.84429 0.0
C707 C 0.19173 0.41753 0.84993 0.0
C708 C 0.14425 0.38165 0.84164 0.0
C709 C 0.20758 0.47249 0.83905 0.0
C710 C 0.1123 0.40279 0.82319 0.0
C711 C 0.12372 0.45888 0.81396 0.0
H712 H 0.27023 0.44457 0.5305 0.0
H713 H 0.16474 0.49889 0.58741 0.0
H714 H 0.238 0.4515 0.61198 0.0
H715 H 0.33482 0.39579 0.61711 0.0
H716 H 0.44311 0.35621 0.55915 0.0
H717 H 0.36808 0.40084 0.53539 0.0
C718 C 0.26339 0.44764 0.54828 0.0
C719 C 0.21198 0.47648 0.55689 0.0
C720 C 0.3074 0.42423 0.56226 0.0
C721 C 0.20331 0.47673 0.58009 0.0
C722 C 0.24584 0.45045 0.59422 0.0
C723 C 0.34257 0.39859 0.59935 0.0
C724 C 0.39463 0.37248 0.58994 0.0
C725 C 0.29873 0.42479 0.5855 0.0
C726 C 0.40352 0.37571 0.56684 0.0
C727 C 0.36034 0.40074 0.55317 0.0
H728 H 0.33854 0.40364 0.32044 0.0
H729 H 0.17003 0.49791 0.32477 0.0
H730 H 0.21396 0.57176 0.34978 0.0
H731 H 0.30468 0.61983 0.36438 0.0
H732 H 0.47239 0.52411 0.36284 0.0
H733 H 0.42475 0.4404 0.34302 0.0
C734 C 0.31111 0.43904 0.32757 0.0
C735 C 0.25152 0.4461 0.32052 0.0
C736 C 0.33688 0.48185 0.342 0.0
C737 C 0.21621 0.49209 0.32986 0.0
C738 C 0.24138 0.53459 0.34402 0.0
C739 C 0.3303 0.57982 0.36026 0.0
C740 C 0.3922 0.57882 0.36437 0.0
C741 C 0.30236 0.5316 0.34929 0.0
C742 C 0.42482 0.52638 0.35939 0.0
C743 C 0.39759 0.47853 0.34802 0.0
H744 H 0.27986 0.55458 0.9708 0.0
H745 H 0.36446 0.38002 0.97733 0.0
H746 H 0.29075 0.336 0.95315 0.0
H747 H 0.19426 0.34174 0.93519 0.0
H748 H 0.09975 0.51037 0.93169 0.0
H749 H 0.18485 0.56184 0.94967 0.0
C750 C 0.28245 0.50694 0.96692 0.0
C751 C 0.32838 0.47118 0.97622 0.0
C752 C 0.23746 0.48048 0.95374 0.0
C753 C 0.33122 0.40974 0.97034 0.0
C754 C 0.28825 0.3839 0.95666 0.0
C755 C 0.19272 0.39008 0.93804 0.0
C756 C 0.14085 0.42228 0.93245 0.0
C757 C 0.2402 0.41824 0.949 0.0
C758 C 0.1394 0.48483 0.93587 0.0
C759 C 0.18779 0.51393 0.94632 0.0
H760 H 0.3616 0.61091 0.71751 0.0
H761 H 0.19426 0.53072 0.73997 0.0
H762 H 0.2091 0.44598 0.715 0.0
H763 H 0.28355 0.38371 0.69415 0.0
H764 H 0.44221 0.47141 0.66762 0.0
H765 H 0.41517 0.56514 0.68597 0.0
C766 C 0.32685 0.57658 0.71637 0.0
C767 C 0.27927 0.57521 0.73192 0.0
C768 C 0.33428 0.5287 0.70128 0.0
C769 C 0.23379 0.53097 0.72932 0.0
C770 C 0.24189 0.48239 0.7149 0.0
C771 C 0.31021 0.42425 0.69136 0.0
C772 C 0.36548 0.42035 0.68005 0.0
C773 C 0.29419 0.47873 0.70191 0.0
C774 C 0.3996 0.47337 0.67649 0.0
C775 C 0.38464 0.5269 0.68723 0.0
H776 H 0.2512 0.66134 0.51709 0.0
H777 H 0.16224 0.56999 0.4637 0.0
H778 H 0.23955 0.60715 0.4374 0.0
H779 H 0.34002 0.65509 0.4309 0.0
H780 H 0.43059 0.7378 0.4862 0.0
H781 H 0.34568 0.71442 0.51035 0.0
C782 C 0.24796 0.65101 0.49955 0.0
C783 C 0.20125 0.61336 0.49225 0.0
C784 C 0.29386 0.6698 0.48497 0.0
C785 C 0.1975 0.59962 0.4696 0.0
C786 C 0.2422 0.62013 0.45467 0.0
C787 C 0.34093 0.66822 0.4482 0.0
C788 C 0.39229 0.69743 0.45672 0.0
C789 C 0.29191 0.65341 0.46235 0.0
C790 C 0.39243 0.71433 0.47919 0.0
C791 C 0.3436 0.70136 0.49306 0.0
H792 H 0.2105 0.46569 0.22289 0.0
H793 H 0.08338 0.49627 0.27601 0.0
H794 H 0.04313 0.58359 0.25642 0.0
H795 H 0.04994 0.65573 0.22577 0.0
H796 H 0.17222 0.62345 0.17124 0.0
H797 H 0.20966 0.53301 0.18989 0.0
C798 C 0.17314 0.49088 0.22979 0.0
C799 C 0.14951 0.47504 0.25068 0.0
C800 C 0.15053 0.54135 0.21848 0.0
C801 C 0.10163 0.50794 0.2598 0.0
C802 C 0.07908 0.55801 0.24874 0.0
C803 C 0.08447 0.62868 0.21793 0.0
C804 C 0.10871 0.64641 0.19735 0.0
C805 C 0.10422 0.57599 0.22836 0.0
C806 C 0.15315 0.61073 0.18721 0.0
C807 C 0.17442 0.55899 0.19781 0.0
loop_
_geom_bond_atom_site_label_1
_geom_bond_atom_site_label_2
_geom_bond_distance
_geom_bond_site_symmetry_2
_ccdc_geom_bond_type
H0 C8 0.930 . S
H1 C11 0.930 . S
H2 C13 0.930 1_565 S
H3 C14 0.970 . S
H4 C14 0.970 . S
H5 C16 0.930 . S
H6 C18 0.930 1_565 S
H7 C20 0.930 . S
C8 H0 0.930 . S
C8 C9 1.381 1_545 S
C8 C10 1.426 . S
C9 C8 1.381 1_565 S
C9 C13 1.388 1_565 S
C10 C8 1.426 . S
C10 C11 1.375 . S
C10 C14 1.532 1_655 S
C11 H1 0.930 . S
C11 C10 1.375 . S
C11 C12 1.416 . S
C12 C11 1.416 . S
C12 C13 1.371 . S
C13 H2 0.930 1_545 S
C13 C9 1.388 1_545 S
C13 C12 1.371 . S
C14 H3 0.970 . S
C14 H4 0.970 . S
C14 C10 1.532 1_455 S
C14 C15 1.499 . S
C15 C14 1.499 . S
C15 C16 1.370 . S
C15 C20 1.415 . S
C16 H5 0.930 . S
C16 C15 1.370 . S
C16 C17 1.407 1_545 S
C17 C16 1.407 1_565 S
C17 C18 1.365 1_565 S
C18 H6 0.930 1_545 S
C18 C17 1.365 1_545 S
C18 C19 1.393 . S
C19 C18 1.393 . S
C19 C20 1.387 . S
C20 H7 0.930 . S
C20 C15 1.415 . S
C20 C19 1.387 . S
H21 C29 0.930 . S
H22 C32 0.930 . S
H23 C34 0.930 . S
H24 C35 0.970 . S
H25 C35 0.970 . S
H26 C37 0.930 . S
H27 C39 0.930 . S
H28 C41 0.930 . S
C29 H21 0.930 . S
C29 C30 1.382 . S
C29 C31 1.426 . S
C30 C29 1.382 . S
C30 C34 1.389 . S
C31 C29 1.426 . S
C31 C32 1.375 . S
C31 C35 1.532 . S
C32 H22 0.930 . S
C32 C31 1.375 . S
C32 C33 1.416 . S
C33 C32 1.416 . S
C33 C34 1.371 . S
C34 H23 0.930 . S
C34 C30 1.389 . S
C34 C33 1.371 . S
C35 H24 0.970 . S
C35 H25 0.970 . S
C35 C31 1.532 . S
C35 C36 1.499 . S
C36 C35 1.499 . S
C36 C37 1.370 . S
C36 C41 1.415 . S
C37 H26 0.930 . S
C37 C36 1.370 . S
C37 C38 1.407 . S
C38 C37 1.407 . S
C38 C39 1.365 . S
C39 H27 0.930 . S
C39 C38 1.365 . S
C39 C40 1.393 . S
C40 C39 1.393 . S
C40 C41 1.387 . S
C41 H28 0.930 . S
C41 C36 1.415 . S
C41 C40 1.387 . S
H42 C50 0.930 1_565 S
H43 C53 0.922 1_556 S
H44 C55 0.930 . S
H45 C56 0.970 . S
H46 C56 0.970 . S
H47 C58 0.930 1_565 S
H48 C60 0.930 . S
H49 C62 0.930 . S
C50 H42 0.930 1_545 S
C50 C51 1.382 1_545 S
C50 C52 1.426 . S
C51 C50 1.382 1_565 S
C51 C55 1.389 . S
C52 C50 1.426 . S
C52 C53 1.375 . S
C52 C56 1.532 . S
C53 H43 0.922 1_554 S
C53 C52 1.375 . S
C53 C54 1.416 . S
C54 C53 1.416 . S
C54 C55 1.371 1_545 S
C55 H44 0.930 . S
C55 C51 1.389 . S
C55 C54 1.371 1_565 S
C56 H45 0.970 . S
C56 H46 0.970 . S
C56 C52 1.532 . S
C56 C57 1.499 . S
C57 C56 1.499 . S
C57 C58 1.370 . S
C57 C62 1.415 . S
C58 H47 0.930 1_545 S
C58 C57 1.370 . S
C58 C59 1.407 1_545 S
C59 C58 1.407 1_565 S
C59 C60 1.365 . S
C60 H48 0.930 . S
C60 C59 1.365 . S
C60 C61 1.393 1_565 S
C61 C60 1.393 1_545 S
C61 C62 1.387 . S
C62 H49 0.930 . S
C62 C57 1.415 . S
C62 C61 1.387 . S
H63 C71 0.930 . S
H64 C74 0.930 . S
H65 C76 0.930 . S
H66 C77 0.970 . S
H67 C77 0.970 . S
H68 C79 0.930 . S
H69 C81 0.930 . S
H70 C83 0.930 . S
C71 H63 0.930 . S
C71 C72 1.382 . S
C71 C73 1.426 . S
C72 C71 1.382 . S
C72 C76 1.389 . S
C73 C71 1.426 . S
C73 C74 1.375 . S
C73 C77 1.532 . S
C74 H64 0.930 . S
C74 C73 1.375 . S
C74 C75 1.416 . S
C75 C74 1.416 . S
C75 C76 1.371 . S
C76 H65 0.930 . S
C76 C72 1.389 . S
C76 C75 1.371 . S
C77 H66 0.970 . S
C77 H67 0.970 . S
C77 C73 1.532 . S
C77 C78 1.499 . S
C78 C77 1.499 . S
C78 C79 1.370 . S
C78 C83 1.415 . S
C79 H68 0.930 . S
C79 C78 1.370 . S
C79 C80 1.407 . S
C80 C79 1.407 . S
C80 C81 1.365 . S
C81 H69 0.930 . S
C81 C80 1.365 . S
C81 C82 1.393 . S
C82 C81 1.393 . S
C82 C83 1.387 . S
C83 H70 0.930 . S
C83 C78 1.415 . S
C83 C82 1.387 . S
H84 C92 0.930 . S
H85 C95 0.930 . S
H86 C97 0.930 . S
H87 C98 0.970 . S
H88 C98 0.970 . S
H89 C100 0.930 . S
H90 C102 0.930 . S
H91 C104 0.930 . S
C92 H84 0.930 . S
C92 C93 1.382 . S
C92 C94 1.426 . S
C93 C92 1.382 . S
C93 C97 1.389 . S
C94 C92 1.426 . S
C94 C95 1.375 . S
C94 C98 1.532 . S
C95 H85 0.930 . S
C95 C94 1.375 . S
C95 C96 1.416 . S
C96 C95 1.416 . S
C96 C97 1.371 . S
C97 H86 0.930 . S
C97 C93 1.389 . S
C97 C96 1.371 . S
C98 H87 0.970 . S
C98 H88 0.970 . S
C98 C94 1.532 . S
C98 C99 1.499 . S
C99 C98 1.499 . S
C99 C100 1.370 . S
C99 C104 1.415 . S
C100 H89 0.930 . S
C100 C99 1.370 . S
C100 C101 1.407 . S
C101 C100 1.407 . S
C101 C102 1.365 . S
C102 H90 0.930 . S
C102 C101 1.365 . S
C102 C103 1.393 . S
C103 C102 1.393 . S
C103 C104 1.387 . S
C104 H91 0.930 . S
C104 C99 1.415 . S
C104 C103 1.387 . S
H105 C113 0.930 . S
H106 C116 0.930 . S
H107 C118 0.930 . S
H108 C119 0.970 . S
H109 C119 0.970 . S
H110 C121 0.930 . S
H111 C123 0.930 . S
H112 C125 0.930 . S
C113 H105 0.930 . S
C113 C114 1.382 . S
C113 C115 1.426 . S
C114 C113 1.382 . S
C114 C118 1.389 . S
C115 C113 1.426 . S
C115 C116 1.375 . S
C115 C119 1.532 . S
C116 H106 0.930 . S
C116 C115 1.375 . S
C116 C117 1.416 . S
C117 C116 1.416 . S
C117 C118 1.371 . S
C118 H107 0.930 . S
C118 C114 1.389 . S
C118 C117 1.371 . S
C119 H108 0.970 . S
C119 H109 0.970 . S
C119 C115 1.532 . S
C119 C120 1.499 . S
C120 C119 1.499 . S
C120 C121 1.370 . S
C120 C125 1.415 . S
C121 H110 0.930 . S
C121 C120 1.370 . S
C121 C122 1.407 . S
C122 C121 1.407 . S
C122 C123 1.365 . S
C123 H111 0.930 . S
C123 C122 1.365 . S
C123 C124 1.393 . S
C124 C123 1.393 . S
C124 C125 1.387 . S
C125 H112 0.930 . S
C125 C120 1.415 . S
C125 C124 1.387 . S
H126 C134 0.930 . S
H127 C137 0.940 . S
H128 C139 0.930 . S
H129 C140 0.970 . S
H130 C140 0.970 . S
H131 C142 0.930 . S
H132 C144 0.930 . S
H133 C146 0.930 . S
C134 H126 0.930 . S
C134 C135 1.382 . S
C134 C136 1.426 . S
C135 C134 1.382 . S
C135 C139 1.389 . S
C136 C134 1.426 . S
C136 C137 1.375 . S
C136 C140 1.532 . S
C137 H127 0.940 . S
C137 C136 1.375 . S
C137 C138 1.416 . S
C138 C137 1.416 . S
C138 C139 1.371 . S
C139 H128 0.930 . S
C139 C135 1.389 . S
C139 C138 1.371 . S
C140 H129 0.970 . S
C140 H130 0.970 . S
C140 C136 1.532 . S
C140 C141 1.499 . S
C141 C140 1.499 . S
C141 C142 1.370 . S
C141 C146 1.415 . S
C142 H131 0.930 . S
C142 C141 1.370 . S
C142 C143 1.407 . S
C143 C142 1.407 . S
C143 C144 1.365 . S
C144 H132 0.930 . S
C144 C143 1.365 . S
C144 C145 1.393 . S
C145 C144 1.393 . S
C145 C146 1.387 . S
C146 H133 0.930 . S
C146 C141 1.415 . S
C146 C145 1.387 . S
H147 C155 0.930 . S
H148 C158 0.930 . S
H149 C160 0.930 . S
H150 C161 0.970 . S
H151 C161 0.970 . S
H152 C163 0.930 . S
H153 C165 0.930 . S
H154 C167 0.930 . S
C155 H147 0.930 . S
C155 C156 1.382 . S
C155 C157 1.426 . S
C156 C155 1.382 . S
C156 C160 1.389 . S
C157 C155 1.426 . S
C157 C158 1.375 . S
C157 C161 1.532 . S
C158 H148 0.930 . S
C158 C157 1.375 . S
C158 C159 1.416 . S
C159 C158 1.416 . S
C159 C160 1.371 . S
C160 H149 0.930 . S
C160 C156 1.389 . S
C160 C159 1.371 . S
C161 H150 0.970 . S
C161 H151 0.970 . S
C161 C157 1.532 . S
C161 C162 1.499 1_455 S
C162 C161 1.499 1_655 S
C162 C163 1.370 . S
C162 C167 1.415 . S
C163 H152 0.930 . S
C163 C162 1.370 . S
C163 C164 1.407 . S
C164 C163 1.407 . S
C164 C165 1.365 . S
C165 H153 0.930 . S
C165 C164 1.365 . S
C165 C166 1.393 . S
C166 C165 1.393 . S
C166 C167 1.387 . S
C167 H154 0.930 . S
C167 C162 1.415 . S
C167 C166 1.387 . S
Fe168 O169 1.886 . S
Fe168 O172 1.715 1_455 S
Fe168 O177 2.077 . S
Fe168 O182 1.935 1_455 S
Fe168 O188 2.077 . S
Fe168 O197 1.935 1_455 S
O169 Fe168 1.886 . S
O169 Fe171 1.715 . S
Fe170 O172 1.886 . S
Fe170 O173 1.715 . S
Fe170 O180 1.935 . S
Fe170 O181 2.077 . S
Fe170 O187 1.935 . S
Fe170 O196 2.077 . S
Fe171 O169 1.715 . S
Fe171 O174 1.886 . S
Fe171 O178 1.935 . S
Fe171 O183 2.077 . S
Fe171 O189 1.935 . S
Fe171 O193 2.077 . S
O172 Fe168 1.715 1_655 S
O172 Fe170 1.886 . S
O173 Fe170 1.715 . S
O173 Fe175 1.871 1_655 S
O174 Fe171 1.886 . S
O174 Fe175 1.730 . S
Fe175 O173 1.871 1_455 S
Fe175 O174 1.730 . S
Fe175 O179 2.064 1_455 S
Fe175 O184 1.946 . S
Fe175 O186 2.064 1_455 S
Fe175 O194 1.946 . S
C176 O188 1.381 . S
C176 O189 1.421 . S
O177 Fe168 2.077 . S
O177 C190 1.381 . S
O178 Fe171 1.935 . S
O178 C190 1.421 . S
O179 Fe175 2.064 1_655 S
O179 C195 1.381 . S
O180 Fe170 1.935 . S
O180 C195 1.421 . S
O181 Fe170 2.077 . S
O181 C185 1.381 . S
O182 Fe168 1.935 1_655 S
O182 C185 1.421 . S
O183 Fe171 2.077 . S
O183 C191 1.381 . S
O184 Fe175 1.946 . S
O184 C191 1.421 . S
C185 O181 1.381 . S
C185 O182 1.421 . S
O186 Fe175 2.064 1_655 S
O186 C198 1.381 . S
O187 Fe170 1.935 . S
O187 C198 1.421 . S
O188 Fe168 2.077 . S
O188 C176 1.381 . S
O189 Fe171 1.935 . S
O189 C176 1.421 . S
C190 O177 1.381 . S
C190 O178 1.421 . S
C191 O183 1.381 . S
C191 O184 1.421 . S
C192 O193 1.381 . S
C192 O194 1.421 . S
O193 Fe171 2.077 . S
O193 C192 1.381 . S
O194 Fe175 1.946 . S
O194 C192 1.421 . S
C195 O179 1.381 . S
C195 O180 1.421 . S
O196 Fe170 2.077 . S
O196 C199 1.381 . S
O197 Fe168 1.935 1_655 S
O197 C199 1.421 . S
C198 O186 1.381 . S
C198 O187 1.421 . S
C199 O196 1.381 . S
C199 O197 1.421 . S
Fe200 O201 1.886 . S
Fe200 O204 1.715 . S
Fe200 O209 2.077 . S
Fe200 O214 1.935 . S
Fe200 O220 2.077 . S
Fe200 O229 1.935 . S
O201 Fe200 1.886 . S
O201 Fe203 1.715 . S
Fe202 O204 1.886 . S
Fe202 O205 1.715 . S
Fe202 O212 1.935 . S
Fe202 O213 2.077 . S
Fe202 O219 1.935 . S
Fe202 O228 2.077 . S
Fe203 O201 1.715 . S
Fe203 O206 1.886 . S
Fe203 O210 1.935 . S
Fe203 O215 2.077 . S
Fe203 O221 1.935 . S
Fe203 O225 2.077 . S
O204 Fe200 1.715 . S
O204 Fe202 1.886 . S
O205 Fe202 1.715 . S
O205 Fe207 1.886 . S
O206 Fe203 1.886 . S
O206 Fe207 1.715 . S
Fe207 O205 1.886 . S
Fe207 O206 1.715 . S
Fe207 O211 2.077 . S
Fe207 O216 1.935 . S
Fe207 O218 2.077 . S
Fe207 O226 1.935 . S
C208 O220 1.381 . S
C208 O221 1.421 . S
O209 Fe200 2.077 . S
O209 C222 1.381 . S
O210 Fe203 1.935 . S
O210 C222 1.421 . S
O211 Fe207 2.077 . S
O211 C227 1.381 . S
O212 Fe202 1.935 . S
O212 C227 1.421 . S
O213 Fe202 2.077 . S
O213 C217 1.381 . S
O214 Fe200 1.935 . S
O214 C217 1.421 . S
O215 Fe203 2.077 . S
O215 C223 1.381 . S
O216 Fe207 1.935 . S
O216 C223 1.421 . S
C217 O213 1.381 . S
C217 O214 1.421 . S
O218 Fe207 2.077 . S
O218 C230 1.381 . S
O219 Fe202 1.935 . S
O219 C230 1.421 . S
O220 Fe200 2.077 . S
O220 C208 1.381 . S
O221 Fe203 1.935 . S
O221 C208 1.421 . S
C222 O209 1.381 . S
C222 O210 1.421 . S
C223 O215 1.381 . S
C223 O216 1.421 . S
C224 O225 1.381 . S
C224 O226 1.421 . S
O225 Fe203 2.077 . S
O225 C224 1.381 . S
O226 Fe207 1.935 . S
O226 C224 1.421 . S
C227 O211 1.381 . S
C227 O212 1.421 . S
O228 Fe202 2.077 . S
O228 C231 1.381 . S
O229 Fe200 1.935 . S
O229 C231 1.421 . S
C230 O218 1.381 . S
C230 O219 1.421 . S
C231 O228 1.381 . S
C231 O229 1.421 . S
Fe232 O233 1.886 . S
Fe232 O236 1.715 . S
Fe232 O241 2.077 . S
Fe232 O246 1.935 . S
Fe232 O252 2.077 . S
Fe232 O261 1.935 . S
O233 Fe232 1.886 . S
O233 Fe235 1.715 . S
Fe234 O236 1.886 . S
Fe234 O237 1.715 . S
Fe234 O244 1.935 . S
Fe234 O245 2.077 . S
Fe234 O251 1.935 . S
Fe234 O260 2.077 . S
Fe235 O233 1.715 . S
Fe235 O238 1.886 . S
Fe235 O242 1.935 . S
Fe235 O247 2.077 . S
Fe235 O253 1.935 . S
Fe235 O257 2.077 . S
O236 Fe232 1.715 . S
O236 Fe234 1.886 . S
O237 Fe234 1.715 . S
O237 Fe239 1.886 . S
O238 Fe235 1.886 . S
O238 Fe239 1.715 . S
Fe239 O237 1.886 . S
Fe239 O238 1.715 . S
Fe239 O243 2.077 . S
Fe239 O248 1.935 . S
Fe239 O250 2.077 . S
Fe239 O258 1.935 . S
C240 O252 1.381 . S
C240 O253 1.421 . S
O241 Fe232 2.077 . S
O241 C254 1.381 . S
O242 Fe235 1.935 . S
O242 C254 1.421 . S
O243 Fe239 2.077 . S
O243 C259 1.381 . S
O244 Fe234 1.935 . S
O244 C259 1.421 . S
O245 Fe234 2.077 . S
O245 C249 1.381 . S
O246 Fe232 1.935 . S
O246 C249 1.421 . S
O247 Fe235 2.077 . S
O247 C255 1.381 . S
O248 Fe239 1.935 . S
O248 C255 1.421 . S
C249 O245 1.381 . S
C249 O246 1.421 . S
O250 Fe239 2.077 . S
O250 C262 1.381 . S
O251 Fe234 1.935 . S
O251 C262 1.421 . S
O252 Fe232 2.077 . S
O252 C240 1.381 . S
O253 Fe235 1.935 . S
O253 C240 1.421 . S
C254 O241 1.381 . S
C254 O242 1.421 . S
C255 O247 1.381 . S
C255 O248 1.421 . S
C256 O257 1.381 . S
C256 O258 1.421 . S
O257 Fe235 2.077 . S
O257 C256 1.381 . S
O258 Fe239 1.935 . S
O258 C256 1.421 . S
C259 O243 1.381 . S
C259 O244 1.421 . S
O260 Fe234 2.077 . S
O260 C263 1.381 . S
O261 Fe232 1.935 . S
O261 C263 1.421 . S
C262 O250 1.381 . S
C262 O251 1.421 . S
C263 O260 1.381 . S
C263 O261 1.421 . S
Fe264 O265 1.886 . S
Fe264 O268 1.715 . S
Fe264 O273 2.077 1_455 S
Fe264 O278 1.935 1_455 S
Fe264 O284 2.077 . S
Fe264 O293 1.935 . S
O265 Fe264 1.886 . S
O265 Fe267 1.715 . S
Fe266 O268 1.886 . S
Fe266 O269 1.715 . S
Fe266 O276 1.935 1_455 S
Fe266 O277 2.077 1_455 S
Fe266 O283 1.935 . S
Fe266 O292 2.077 . S
Fe267 O265 1.715 . S
Fe267 O270 1.886 . S
Fe267 O274 1.935 1_455 S
Fe267 O279 2.077 1_455 S
Fe267 O285 1.935 . S
Fe267 O289 2.077 . S
O268 Fe264 1.715 . S
O268 Fe266 1.886 . S
O269 Fe266 1.715 . S
O269 Fe271 1.886 . S
O270 Fe267 1.886 . S
O270 Fe271 1.715 . S
Fe271 O269 1.886 . S
Fe271 O270 1.715 . S
Fe271 O275 2.077 1_455 S
Fe271 O280 1.935 1_455 S
Fe271 O282 2.077 . S
Fe271 O290 1.935 . S
C272 O284 1.381 . S
C272 O285 1.421 . S
O273 Fe264 2.077 1_655 S
O273 C286 1.381 . S
O274 Fe267 1.935 1_655 S
O274 C286 1.421 . S
O275 Fe271 2.077 1_655 S
O275 C291 1.381 . S
O276 Fe266 1.935 1_655 S
O276 C291 1.421 . S
O277 Fe266 2.077 1_655 S
O277 C281 1.381 . S
O278 Fe264 1.935 1_655 S
O278 C281 1.421 . S
O279 Fe267 2.077 1_655 S
O279 C287 1.381 . S
O280 Fe271 1.935 1_655 S
O280 C287 1.421 . S
C281 O277 1.381 . S
C281 O278 1.421 . S
O282 Fe271 2.077 . S
O282 C294 1.381 . S
O283 Fe266 1.935 . S
O283 C294 1.421 . S
O284 Fe264 2.077 . S
O284 C272 1.381 . S
O285 Fe267 1.935 . S
O285 C272 1.421 . S
C286 O273 1.381 . S
C286 O274 1.421 . S
C287 O279 1.381 . S
C287 O280 1.421 . S
C288 O289 1.381 . S
C288 O290 1.421 . S
O289 Fe267 2.077 . S
O289 C288 1.381 . S
O290 Fe271 1.935 . S
O290 C288 1.421 . S
C291 O275 1.381 . S
C291 O276 1.421 . S
O292 Fe266 2.077 . S
O292 C295 1.381 . S
O293 Fe264 1.935 . S
O293 C295 1.421 . S
C294 O282 1.381 . S
C294 O283 1.421 . S
C295 O292 1.381 . S
C295 O293 1.421 . S
H296 C302 0.930 1_545 S
H297 C305 0.930 . S
H298 C306 0.930 . S
H299 C307 0.930 . S
H300 C310 0.930 . S
H301 C311 0.930 1_545 S
C302 H296 0.930 1_565 S
C302 C303 1.355 . S
C302 C304 1.415 . S
C303 C302 1.355 . S
C303 C305 1.419 . S
C304 C302 1.415 . S
C304 C309 1.425 . S
C304 C311 1.409 . S
C305 H297 0.930 . S
C305 C303 1.419 . S
C305 C306 1.362 . S
C306 H298 0.930 . S
C306 C305 1.362 . S
C306 C309 1.409 . S
C307 H299 0.930 . S
C307 C308 1.355 . S
C307 C309 1.415 . S
C308 C307 1.355 . S
C308 C310 1.419 . S
C309 C304 1.425 . S
C309 C306 1.409 . S
C309 C307 1.415 . S
C310 H300 0.930 . S
C310 C308 1.419 . S
C310 C311 1.362 . S
C311 H301 0.930 1_565 S
C311 C304 1.409 . S
C311 C310 1.362 . S
H312 C318 0.930 . S
H313 C321 0.930 . S
H314 C322 0.930 . S
H315 C323 0.930 . S
H316 C326 0.930 . S
H317 C327 0.930 . S
C318 H312 0.930 . S
C318 C319 1.355 . S
C318 C320 1.415 1_565 S
C319 C318 1.355 . S
C319 C321 1.419 . S
C320 C318 1.415 1_545 S
C320 C325 1.425 . S
C320 C327 1.409 . S
C321 H313 0.930 . S
C321 C319 1.419 . S
C321 C322 1.362 1_565 S
C322 H314 0.930 . S
C322 C321 1.362 1_545 S
C322 C325 1.409 . S
C323 H315 0.930 . S
C323 C324 1.355 . S
C323 C325 1.415 . S
C324 C323 1.355 . S
C324 C326 1.419 . S
C325 C320 1.425 . S
C325 C322 1.409 . S
C325 C323 1.415 . S
C326 H316 0.930 . S
C326 C324 1.419 . S
C326 C327 1.362 . S
C327 H317 0.930 . S
C327 C320 1.409 . S
C327 C326 1.362 . S
H328 C334 0.930 . S
H329 C337 0.899 1_554 S
H330 C338 0.933 1_554 S
H331 C339 0.930 . S
H332 C342 0.930 . S
H333 C343 0.930 . S
C334 H328 0.930 . S
C334 C335 1.355 . S
C334 C336 1.415 . S
C335 C334 1.355 . S
C335 C337 1.438 . S
C336 C334 1.415 . S
C336 C341 1.425 . S
C336 C343 1.409 . S
C337 H329 0.899 1_556 S
C337 C335 1.438 . S
C337 C338 1.375 . S
C338 H330 0.933 1_556 S
C338 C337 1.375 . S
C338 C341 1.409 . S
C339 H331 0.930 . S
C339 C340 1.355 . S
C339 C341 1.415 . S
C340 C339 1.355 . S
C340 C342 1.419 . S
C341 C336 1.425 . S
C341 C338 1.409 . S
C341 C339 1.415 . S
C342 H332 0.930 . S
C342 C340 1.419 . S
C342 C343 1.362 . S
C343 H333 0.930 . S
C343 C336 1.409 . S
C343 C342 1.362 . S
H344 C350 0.930 . S
H345 C353 0.930 . S
H346 C354 0.930 . S
H347 C355 0.930 . S
H348 C358 0.930 . S
H349 C359 0.930 . S
C350 H344 0.930 . S
C350 C351 1.355 . S
C350 C352 1.415 1_545 S
C351 C350 1.355 . S
C351 C353 1.419 . S
C352 C350 1.415 1_565 S
C352 C357 1.425 . S
C352 C359 1.409 . S
C353 H345 0.930 . S
C353 C351 1.419 . S
C353 C354 1.362 . S
C354 H346 0.930 . S
C354 C353 1.362 . S
C354 C357 1.409 1_545 S
C355 H347 0.930 . S
C355 C356 1.355 . S
C355 C357 1.415 . S
C356 C355 1.355 . S
C356 C358 1.419 . S
C357 C352 1.425 . S
C357 C354 1.409 1_565 S
C357 C355 1.415 . S
C358 H348 0.930 . S
C358 C356 1.419 . S
C358 C359 1.362 . S
C359 H349 0.930 . S
C359 C352 1.409 . S
C359 C358 1.362 . S
H360 C366 0.930 . S
H361 C369 0.930 . S
H362 C370 0.930 . S
H363 C371 0.930 . S
H364 C374 0.930 . S
H365 C375 0.930 . S
C366 H360 0.930 . S
C366 C367 1.355 . S
C366 C368 1.415 . S
C367 C366 1.355 . S
C367 C369 1.419 . S
C368 C366 1.415 . S
C368 C373 1.425 . S
C368 C375 1.409 . S
C369 H361 0.930 . S
C369 C367 1.419 . S
C369 C370 1.362 . S
C370 H362 0.930 . S
C370 C369 1.362 . S
C370 C373 1.409 . S
C371 H363 0.930 . S
C371 C372 1.355 . S
C371 C373 1.415 . S
C372 C371 1.355 . S
C372 C374 1.419 . S
C373 C368 1.425 . S
C373 C370 1.409 . S
C373 C371 1.415 . S
C374 H364 0.930 . S
C374 C372 1.419 . S
C374 C375 1.362 . S
C375 H365 0.930 . S
C375 C368 1.409 . S
C375 C374 1.362 . S
H376 C382 0.930 . S
H377 C385 0.930 . S
H378 C386 0.930 . S
H379 C387 0.930 . S
H380 C390 0.930 . S
H381 C391 0.930 . S
C382 H376 0.930 . S
C382 C383 1.355 . S
C382 C384 1.415 1_565 S
C383 C382 1.355 . S
C383 C385 1.419 . S
C384 C382 1.415 1_545 S
C384 C389 1.425 . S
C384 C391 1.409 . S
C385 H377 0.930 . S
C385 C383 1.419 . S
C385 C386 1.362 . S
C386 H378 0.930 . S
C386 C385 1.362 . S
C386 C389 1.409 1_565 S
C387 H379 0.930 . S
C387 C388 1.355 . S
C387 C389 1.415 . S
C388 C387 1.355 . S
C388 C390 1.419 . S
C389 C384 1.425 . S
C389 C386 1.409 1_545 S
C389 C387 1.415 . S
C390 H380 0.930 . S
C390 C388 1.419 . S
C390 C391 1.362 . S
C391 H381 0.930 . S
C391 C384 1.409 . S
C391 C390 1.362 . S
H392 C398 0.930 . S
H393 C401 0.930 . S
H394 C402 0.930 . S
H395 C403 0.930 . S
H396 C406 0.930 . S
H397 C407 0.930 . S
C398 H392 0.930 . S
C398 C399 1.355 . S
C398 C400 1.415 . S
C399 C398 1.355 . S
C399 C401 1.419 . S
C400 C398 1.415 . S
C400 C405 1.425 . S
C400 C407 1.409 . S
C401 H393 0.930 . S
C401 C399 1.419 . S
C401 C402 1.362 . S
C402 H394 0.930 . S
C402 C401 1.362 . S
C402 C405 1.409 . S
C403 H395 0.930 . S
C403 C404 1.355 . S
C403 C405 1.415 . S
C404 C403 1.355 . S
C404 C406 1.419 . S
C405 C400 1.425 . S
C405 C402 1.409 . S
C405 C403 1.415 . S
C406 H396 0.930 . S
C406 C404 1.419 . S
C406 C407 1.362 . S
C407 H397 0.930 . S
C407 C400 1.409 . S
C407 C406 1.362 . S
H408 C414 0.930 . S
H409 C417 0.930 . S
H410 C418 0.930 . S
H411 C419 0.930 . S
H412 C422 0.930 . S
H413 C423 0.930 . S
C414 H408 0.930 . S
C414 C415 1.355 . S
C414 C416 1.415 1_545 S
C415 C414 1.355 . S
C415 C417 1.419 . S
C416 C414 1.415 1_565 S
C416 C421 1.425 1_565 S
C416 C423 1.409 . S
C417 H409 0.930 . S
C417 C415 1.419 . S
C417 C418 1.362 . S
C418 H410 0.930 . S
C418 C417 1.362 . S
C418 C421 1.417 . S
C419 H411 0.930 . S
C419 C420 1.355 . S
C419 C421 1.407 1_565 S
C420 C419 1.355 . S
C420 C422 1.419 . S
C421 C416 1.425 1_545 S
C421 C418 1.417 . S
C421 C419 1.407 1_545 S
C422 H412 0.930 . S
C422 C420 1.419 . S
C422 C423 1.362 . S
C423 H413 0.930 . S
C423 C416 1.409 . S
C423 C422 1.362 . S
H424 C430 0.930 . S
H425 C433 0.930 . S
H426 C434 0.930 . S
H427 C435 0.930 . S
H428 C438 0.930 . S
H429 C439 0.930 . S
C430 H424 0.930 . S
C430 C431 1.355 . S
C430 C432 1.415 . S
C431 C430 1.355 . S
C431 C433 1.419 . S
C432 C430 1.415 . S
C432 C437 1.425 . S
C432 C439 1.409 . S
C433 H425 0.930 . S
C433 C431 1.419 . S
C433 C434 1.362 . S
C434 H426 0.930 . S
C434 C433 1.362 . S
C434 C437 1.409 . S
C435 H427 0.930 . S
C435 C436 1.355 . S
C435 C437 1.415 . S
C436 C435 1.355 . S
C436 C438 1.419 . S
C437 C432 1.425 . S
C437 C434 1.409 . S
C437 C435 1.415 . S
C438 H428 0.930 . S
C438 C436 1.419 . S
C438 C439 1.362 . S
C439 H429 0.930 . S
C439 C432 1.409 . S
C439 C438 1.362 . S
H440 C446 0.930 . S
H441 C449 0.930 . S
H442 C450 0.930 . S
H443 C451 0.930 . S
H444 C454 0.930 . S
H445 C455 0.930 . S
C446 H440 0.930 . S
C446 C447 1.355 . S
C446 C448 1.415 1_545 S
C447 C446 1.355 . S
C447 C449 1.419 . S
C448 C446 1.415 1_565 S
C448 C453 1.425 1_565 S
C448 C455 1.409 . S
C449 H441 0.930 . S
C449 C447 1.419 . S
C449 C450 1.362 . S
C450 H442 0.930 . S
C450 C449 1.362 . S
C450 C453 1.409 . S
C451 H443 0.930 . S
C451 C452 1.355 . S
C451 C453 1.415 1_565 S
C452 C451 1.355 . S
C452 C454 1.419 . S
C453 C448 1.425 1_545 S
C453 C450 1.409 . S
C453 C451 1.415 1_545 S
C454 H444 0.930 . S
C454 C452 1.419 . S
C454 C455 1.362 . S
C455 H445 0.930 . S
C455 C448 1.409 . S
C455 C454 1.362 . S
H456 C462 0.930 1_545 S
H457 C465 0.930 . S
H458 C466 0.930 . S
H459 C467 0.930 . S
H460 C470 0.930 . S
H461 C471 0.930 1_545 S
C462 H456 0.930 1_565 S
C462 C463 1.355 . S
C462 C464 1.415 . S
C463 C462 1.355 . S
C463 C465 1.419 . S
C464 C462 1.415 . S
C464 C469 1.425 . S
C464 C471 1.409 . S
C465 H457 0.930 . S
C465 C463 1.419 . S
C465 C466 1.362 . S
C466 H458 0.930 . S
C466 C465 1.362 . S
C466 C469 1.409 . S
C467 H459 0.930 . S
C467 C468 1.355 . S
C467 C469 1.415 . S
C468 C467 1.355 . S
C468 C470 1.419 . S
C469 C464 1.425 . S
C469 C466 1.409 . S
C469 C467 1.415 . S
C470 H460 0.930 . S
C470 C468 1.419 . S
C470 C471 1.362 . S
C471 H461 0.930 1_565 S
C471 C464 1.409 . S
C471 C470 1.362 . S
H472 C478 0.934 . S
H473 C481 0.930 . S
H474 C482 0.930 . S
H475 C483 0.930 . S
H476 C486 0.930 . S
H477 C487 0.930 . S
C478 H472 0.934 . S
C478 C479 1.355 . S
C478 C480 1.415 1_565 S
C479 C478 1.355 . S
C479 C481 1.419 . S
C480 C478 1.415 1_545 S
C480 C485 1.425 . S
C480 C487 1.409 . S
C481 H473 0.930 . S
C481 C479 1.419 . S
C481 C482 1.362 . S
C482 H474 0.930 . S
C482 C481 1.362 . S
C482 C485 1.409 1_565 S
C483 H475 0.930 . S
C483 C484 1.355 . S
C483 C485 1.415 . S
C484 C483 1.355 . S
C484 C486 1.419 . S
C485 C480 1.425 . S
C485 C482 1.409 1_545 S
C485 C483 1.415 . S
C486 H476 0.930 . S
C486 C484 1.419 . S
C486 C487 1.362 . S
C487 H477 0.930 . S
C487 C480 1.409 . S
C487 C486 1.362 . S
H488 C494 0.930 1_545 S
H489 C497 0.930 . S
H490 C498 0.930 . S
H491 C499 0.930 . S
H492 C502 0.930 . S
H493 C503 0.930 1_545 S
C494 H488 0.930 1_565 S
C494 C495 1.355 . S
C494 C496 1.415 . S
C495 C494 1.355 . S
C495 C497 1.419 . S
C496 C494 1.415 . S
C496 C501 1.425 . S
C496 C503 1.409 . S
C497 H489 0.930 . S
C497 C495 1.419 . S
C497 C498 1.362 . S
C498 H490 0.930 . S
C498 C497 1.362 . S
C498 C501 1.409 . S
C499 H491 0.930 . S
C499 C500 1.355 . S
C499 C501 1.415 . S
C500 C499 1.355 . S
C500 C502 1.419 . S
C501 C496 1.425 . S
C501 C498 1.409 . S
C501 C499 1.415 . S
C502 H492 0.930 . S
C502 C500 1.419 . S
C502 C503 1.362 . S
C503 H493 0.930 1_565 S
C503 C496 1.409 . S
C503 C502 1.362 . S
H504 C510 0.930 . S
H505 C513 0.930 . S
H506 C514 0.930 . S
H507 C515 0.930 . S
H508 C518 0.930 . S
H509 C519 0.930 1_545 S
C510 H504 0.930 . S
C510 C511 1.355 . S
C510 C512 1.415 . S
C511 C510 1.355 . S
C511 C513 1.419 . S
C512 C510 1.415 . S
C512 C517 1.425 1_545 S
C512 C519 1.409 1_545 S
C513 H505 0.930 . S
C513 C511 1.419 . S
C513 C514 1.362 1_545 S
C514 H506 0.930 . S
C514 C513 1.362 1_565 S
C514 C517 1.409 . S
C515 H507 0.930 . S
C515 C516 1.355 . S
C515 C517 1.415 . S
C516 C515 1.355 . S
C516 C518 1.419 . S
C517 C512 1.425 1_565 S
C517 C514 1.409 . S
C517 C515 1.415 . S
C518 H508 0.930 . S
C518 C516 1.419 . S
C518 C519 1.362 . S
C519 H509 0.930 1_565 S
C519 C512 1.409 1_565 S
C519 C518 1.362 . S
H520 C526 0.930 . S
H521 C529 0.930 1_554 S
H522 C530 0.921 1_554 S
H523 C531 0.930 . S
H524 C534 0.930 . S
H525 C535 0.930 . S
C526 H520 0.930 . S
C526 C527 1.355 . S
C526 C528 1.415 . S
C527 C526 1.355 . S
C527 C529 1.419 . S
C528 C526 1.415 . S
C528 C533 1.425 . S
C528 C535 1.409 . S
C529 H521 0.930 1_556 S
C529 C527 1.419 . S
C529 C530 1.362 . S
C530 H522 0.921 1_556 S
C530 C529 1.362 . S
C530 C533 1.409 . S
C531 H523 0.930 . S
C531 C532 1.355 . S
C531 C533 1.415 . S
C532 C531 1.355 . S
C532 C534 1.419 . S
C533 C528 1.425 . S
C533 C530 1.409 . S
C533 C531 1.415 . S
C534 H524 0.930 . S
C534 C532 1.419 . S
C534 C535 1.362 . S
C535 H525 0.930 . S
C535 C528 1.409 . S
C535 C534 1.362 . S
H536 C542 0.930 . S
H537 C545 0.930 . S
H538 C546 0.930 . S
H539 C547 0.930 . S
H540 C550 0.930 . S
H541 C551 0.930 . S
C542 H536 0.930 . S
C542 C543 1.355 . S
C542 C544 1.415 1_565 S
C543 C542 1.355 . S
C543 C545 1.419 . S
C544 C542 1.415 1_545 S
C544 C549 1.425 . S
C544 C551 1.409 . S
C545 H537 0.930 . S
C545 C543 1.419 . S
C545 C546 1.362 . S
C546 H538 0.930 . S
C546 C545 1.362 . S
C546 C549 1.409 1_565 S
C547 H539 0.930 . S
C547 C548 1.355 . S
C547 C549 1.415 . S
C548 C547 1.355 . S
C548 C550 1.419 . S
C549 C544 1.425 . S
C549 C546 1.409 1_545 S
C549 C547 1.415 . S
C550 H540 0.930 . S
C550 C548 1.419 . S
C550 C551 1.362 . S
C551 H541 0.930 . S
C551 C544 1.409 . S
C551 C550 1.362 . S
H552 C558 0.930 . S
H553 C561 0.930 . S
H554 C562 0.930 1_554 S
H555 C563 0.930 . S
H556 C566 0.930 . S
H557 C567 0.930 . S
C558 H552 0.930 . S
C558 C559 1.355 . S
C558 C560 1.415 . S
C559 C558 1.355 . S
C559 C561 1.419 1_556 S
C560 C558 1.415 . S
C560 C565 1.425 . S
C560 C567 1.409 . S
C561 H553 0.930 . S
C561 C559 1.419 1_554 S
C561 C562 1.362 1_554 S
C562 H554 0.930 1_556 S
C562 C561 1.362 1_556 S
C562 C565 1.409 . S
C563 H555 0.930 . S
C563 C564 1.355 . S
C563 C565 1.415 . S
C564 C563 1.355 . S
C564 C566 1.419 . S
C565 C560 1.425 . S
C565 C562 1.409 . S
C565 C563 1.415 . S
C566 H556 0.930 . S
C566 C564 1.419 . S
C566 C567 1.362 . S
C567 H557 0.930 . S
C567 C560 1.409 . S
C567 C566 1.362 . S
H568 C574 0.930 . S
H569 C577 0.930 . S
H570 C578 0.930 . S
H571 C579 0.930 . S
H572 C582 0.930 . S
H573 C583 0.930 . S
C574 H568 0.930 . S
C574 C575 1.355 . S
C574 C576 1.415 . S
C575 C574 1.355 . S
C575 C577 1.419 . S
C576 C574 1.415 . S
C576 C581 1.425 . S
C576 C583 1.409 . S
C577 H569 0.930 . S
C577 C575 1.419 . S
C577 C578 1.362 . S
C578 H570 0.930 . S
C578 C577 1.362 . S
C578 C581 1.409 . S
C579 H571 0.930 . S
C579 C580 1.355 . S
C579 C581 1.415 . S
C580 C579 1.355 . S
C580 C582 1.419 . S
C581 C576 1.425 . S
C581 C578 1.409 . S
C581 C579 1.415 . S
C582 H572 0.930 . S
C582 C580 1.419 . S
C582 C583 1.362 . S
C583 H573 0.930 . S
C583 C576 1.409 . S
C583 C582 1.362 . S
H584 C590 0.930 . S
H585 C593 0.930 . S
H586 C594 0.930 . S
H587 C595 0.930 . S
H588 C598 0.930 . S
H589 C599 0.930 . S
C590 H584 0.930 . S
C590 C591 1.355 . S
C590 C592 1.415 . S
C591 C590 1.355 . S
C591 C593 1.419 . S
C592 C590 1.415 . S
C592 C597 1.425 . S
C592 C599 1.409 . S
C593 H585 0.930 . S
C593 C591 1.419 . S
C593 C594 1.362 . S
C594 H586 0.930 . S
C594 C593 1.362 . S
C594 C597 1.409 . S
C595 H587 0.930 . S
C595 C596 1.355 . S
C595 C597 1.415 . S
C596 C595 1.355 . S
C596 C598 1.419 . S
C597 C592 1.425 . S
C597 C594 1.409 . S
C597 C595 1.415 . S
C598 H588 0.930 . S
C598 C596 1.419 . S
C598 C599 1.362 . S
C599 H589 0.930 . S
C599 C592 1.409 . S
C599 C598 1.362 . S
H600 C606 0.930 . S
H601 C609 0.930 . S
H602 C610 0.930 . S
H603 C611 0.930 . S
H604 C614 0.930 . S
H605 C615 0.930 . S
C606 H600 0.930 . S
C606 C607 1.355 . S
C606 C608 1.415 . S
C607 C606 1.355 . S
C607 C609 1.419 . S
C608 C606 1.415 . S
C608 C613 1.425 . S
C608 C615 1.409 . S
C609 H601 0.930 . S
C609 C607 1.419 . S
C609 C610 1.362 . S
C610 H602 0.930 . S
C610 C609 1.362 . S
C610 C613 1.409 . S
C611 H603 0.930 . S
C611 C612 1.355 . S
C611 C613 1.415 . S
C612 C611 1.355 . S
C612 C614 1.419 . S
C613 C608 1.425 . S
C613 C610 1.409 . S
C613 C611 1.415 . S
C614 H604 0.930 . S
C614 C612 1.419 . S
C614 C615 1.362 . S
C615 H605 0.930 . S
C615 C608 1.409 . S
C615 C614 1.362 . S
H616 C622 0.930 . S
H617 C625 0.930 . S
H618 C626 0.930 . S
H619 C627 0.930 . S
H620 C630 0.930 . S
H621 C631 0.930 . S
C622 H616 0.930 . S
C622 C623 1.355 . S
C622 C624 1.415 . S
C623 C622 1.355 . S
C623 C625 1.419 . S
C624 C622 1.415 . S
C624 C629 1.425 . S
C624 C631 1.409 . S
C625 H617 0.930 . S
C625 C623 1.419 . S
C625 C626 1.362 . S
C626 H618 0.930 . S
C626 C625 1.362 . S
C626 C629 1.409 . S
C627 H619 0.930 . S
C627 C628 1.355 . S
C627 C629 1.415 . S
C628 C627 1.355 . S
C628 C630 1.419 . S
C629 C624 1.425 . S
C629 C626 1.409 . S
C629 C627 1.415 . S
C630 H620 0.930 . S
C630 C628 1.419 . S
C630 C631 1.362 . S
C631 H621 0.930 . S
C631 C624 1.409 . S
C631 C630 1.362 . S
H632 C638 0.930 . S
H633 C641 0.930 . S
H634 C642 0.930 . S
H635 C643 0.930 . S
H636 C646 0.930 . S
H637 C647 0.930 . S
C638 H632 0.930 . S
C638 C639 1.355 . S
C638 C640 1.415 . S
C639 C638 1.355 . S
C639 C641 1.419 . S
C640 C638 1.415 . S
C640 C645 1.425 . S
C640 C647 1.409 . S
C641 H633 0.930 . S
C641 C639 1.419 . S
C641 C642 1.362 . S
C642 H634 0.930 . S
C642 C641 1.362 . S
C642 C645 1.409 . S
C643 H635 0.930 . S
C643 C644 1.355 . S
C643 C645 1.415 . S
C644 C643 1.355 . S
C644 C646 1.419 . S
C645 C640 1.425 . S
C645 C642 1.409 . S
C645 C643 1.415 . S
C646 H636 0.930 . S
C646 C644 1.419 . S
C646 C647 1.362 . S
C647 H637 0.930 . S
C647 C640 1.409 . S
C647 C646 1.362 . S
H648 C654 0.930 . S
H649 C657 0.930 . S
H650 C658 0.930 . S
H651 C659 0.930 . S
H652 C662 0.930 . S
H653 C663 0.930 . S
C654 H648 0.930 . S
C654 C655 1.355 . S
C654 C656 1.415 . S
C655 C654 1.355 . S
C655 C657 1.419 . S
C656 C654 1.415 . S
C656 C661 1.425 . S
C656 C663 1.409 . S
C657 H649 0.930 . S
C657 C655 1.419 . S
C657 C658 1.362 . S
C658 H650 0.930 . S
C658 C657 1.362 . S
C658 C661 1.409 . S
C659 H651 0.930 . S
C659 C660 1.355 . S
C659 C661 1.415 . S
C660 C659 1.355 . S
C660 C662 1.419 . S
C661 C656 1.425 . S
C661 C658 1.409 . S
C661 C659 1.415 . S
C662 H652 0.930 . S
C662 C660 1.419 . S
C662 C663 1.362 . S
C663 H653 0.930 . S
C663 C656 1.409 . S
C663 C662 1.362 . S
H664 C670 0.930 . S
H665 C673 0.930 . S
H666 C674 0.930 . S
H667 C675 0.930 . S
H668 C678 0.930 . S
H669 C679 0.930 . S
C670 H664 0.930 . S
C670 C671 1.355 . S
C670 C672 1.415 . S
C671 C670 1.355 . S
C671 C673 1.419 . S
C672 C670 1.415 . S
C672 C677 1.425 . S
C672 C679 1.409 . S
C673 H665 0.930 . S
C673 C671 1.419 . S
C673 C674 1.362 . S
C674 H666 0.930 . S
C674 C673 1.362 . S
C674 C677 1.409 . S
C675 H667 0.930 . S
C675 C676 1.355 . S
C675 C677 1.415 . S
C676 C675 1.355 . S
C676 C678 1.419 . S
C677 C672 1.425 . S
C677 C674 1.409 . S
C677 C675 1.415 . S
C678 H668 0.930 . S
C678 C676 1.419 . S
C678 C679 1.362 . S
C679 H669 0.930 . S
C679 C672 1.409 . S
C679 C678 1.362 . S
H680 C686 0.930 . S
H681 C689 0.930 . S
H682 C690 0.930 . S
H683 C691 0.930 . S
H684 C694 0.930 . S
H685 C695 0.930 . S
C686 H680 0.930 . S
C686 C687 1.355 . S
C686 C688 1.415 . S
C687 C686 1.355 . S
C687 C689 1.419 . S
C688 C686 1.415 . S
C688 C693 1.425 . S
C688 C695 1.409 . S
C689 H681 0.930 . S
C689 C687 1.419 . S
C689 C690 1.362 . S
C690 H682 0.930 . S
C690 C689 1.362 . S
C690 C693 1.409 . S
C691 H683 0.930 . S
C691 C692 1.355 . S
C691 C693 1.415 . S
C692 C691 1.355 . S
C692 C694 1.419 . S
C693 C688 1.425 . S
C693 C690 1.409 . S
C693 C691 1.415 . S
C694 H684 0.930 . S
C694 C692 1.419 . S
C694 C695 1.362 . S
C695 H685 0.930 . S
C695 C688 1.409 . S
C695 C694 1.362 . S
H696 C702 0.930 . S
H697 C705 0.930 . S
H698 C706 0.930 . S
H699 C707 0.930 . S
H700 C710 0.930 . S
H701 C711 0.930 . S
C702 H696 0.930 . S
C702 C703 1.355 . S
C702 C704 1.415 . S
C703 C702 1.355 . S
C703 C705 1.419 . S
C704 C702 1.415 . S
C704 C709 1.425 . S
C704 C711 1.409 . S
C705 H697 0.930 . S
C705 C703 1.419 . S
C705 C706 1.362 . S
C706 H698 0.930 . S
C706 C705 1.362 . S
C706 C709 1.409 . S
C707 H699 0.930 . S
C707 C708 1.355 . S
C707 C709 1.415 . S
C708 C707 1.355 . S
C708 C710 1.419 . S
C709 C704 1.425 . S
C709 C706 1.409 . S
C709 C707 1.415 . S
C710 H700 0.930 . S
C710 C708 1.419 . S
C710 C711 1.362 . S
C711 H701 0.930 . S
C711 C704 1.409 . S
C711 C710 1.362 . S
H712 C718 0.930 . S
H713 C721 0.930 . S
H714 C722 0.930 . S
H715 C723 0.930 . S
H716 C726 0.930 . S
H717 C727 0.930 . S
C718 H712 0.930 . S
C718 C719 1.355 . S
C718 C720 1.415 . S
C719 C718 1.355 . S
C719 C721 1.419 . S
C720 C718 1.415 . S
C720 C725 1.425 . S
C720 C727 1.409 . S
C721 H713 0.930 . S
C721 C719 1.419 . S
C721 C722 1.362 . S
C722 H714 0.930 . S
C722 C721 1.362 . S
C722 C725 1.409 . S
C723 H715 0.930 . S
C723 C724 1.355 . S
C723 C725 1.415 . S
C724 C723 1.355 . S
C724 C726 1.419 . S
C725 C720 1.425 . S
C725 C722 1.409 . S
C725 C723 1.415 . S
C726 H716 0.930 . S
C726 C724 1.419 . S
C726 C727 1.362 . S
C727 H717 0.930 . S
C727 C720 1.409 . S
C727 C726 1.362 . S
H728 C734 0.930 . S
H729 C737 0.930 . S
H730 C738 0.930 . S
H731 C739 0.930 . S
H732 C742 0.930 . S
H733 C743 0.930 . S
C734 H728 0.930 . S
C734 C735 1.355 . S
C734 C736 1.415 . S
C735 C734 1.355 . S
C735 C737 1.419 . S
C736 C734 1.415 . S
C736 C741 1.425 . S
C736 C743 1.409 . S
C737 H729 0.930 . S
C737 C735 1.419 . S
C737 C738 1.362 . S
C738 H730 0.930 . S
C738 C737 1.362 . S
C738 C741 1.409 . S
C739 H731 0.930 . S
C739 C740 1.355 . S
C739 C741 1.415 . S
C740 C739 1.355 . S
C740 C742 1.419 . S
C741 C736 1.425 . S
C741 C738 1.409 . S
C741 C739 1.415 . S
C742 H732 0.930 . S
C742 C740 1.419 . S
C742 C743 1.362 . S
C743 H733 0.930 . S
C743 C736 1.409 . S
C743 C742 1.362 . S
H744 C750 0.930 . S
H745 C753 0.930 1_554 S
H746 C754 0.930 . S
H747 C755 0.930 . S
H748 C758 0.930 . S
H749 C759 0.930 . S
C750 H744 0.930 . S
C750 C751 1.355 . S
C750 C752 1.415 . S
C751 C750 1.355 . S
C751 C753 1.419 . S
C752 C750 1.415 . S
C752 C757 1.425 . S
C752 C759 1.409 . S
C753 H745 0.930 1_556 S
C753 C751 1.419 . S
C753 C754 1.362 . S
C754 H746 0.930 . S
C754 C753 1.362 . S
C754 C757 1.409 . S
C755 H747 0.930 . S
C755 C756 1.355 . S
C755 C757 1.415 . S
C756 C755 1.355 . S
C756 C758 1.419 . S
C757 C752 1.425 . S
C757 C754 1.409 . S
C757 C755 1.415 . S
C758 H748 0.930 . S
C758 C756 1.419 . S
C758 C759 1.362 . S
C759 H749 0.930 . S
C759 C752 1.409 . S
C759 C758 1.362 . S
H760 C766 0.930 . S
H761 C769 0.930 . S
H762 C770 0.930 . S
H763 C771 0.930 . S
H764 C774 0.930 . S
H765 C775 0.930 . S
C766 H760 0.930 . S
C766 C767 1.355 . S
C766 C768 1.415 . S
C767 C766 1.355 . S
C767 C769 1.419 . S
C768 C766 1.415 . S
C768 C773 1.425 . S
C768 C775 1.409 . S
C769 H761 0.930 . S
C769 C767 1.419 . S
C769 C770 1.362 . S
C770 H762 0.930 . S
C770 C769 1.362 . S
C770 C773 1.409 . S
C771 H763 0.930 . S
C771 C772 1.355 . S
C771 C773 1.415 . S
C772 C771 1.355 . S
C772 C774 1.419 . S
C773 C768 1.425 . S
C773 C770 1.409 . S
C773 C771 1.415 . S
C774 H764 0.930 . S
C774 C772 1.419 . S
C774 C775 1.362 . S
C775 H765 0.930 . S
C775 C768 1.409 . S
C775 C774 1.362 . S
H776 C782 0.930 . S
H777 C785 0.930 . S
H778 C786 0.930 . S
H779 C787 0.930 . S
H780 C790 0.930 . S
H781 C791 0.930 . S
C782 H776 0.930 . S
C782 C783 1.355 . S
C782 C784 1.415 . S
C783 C782 1.355 . S
C783 C785 1.419 . S
C784 C782 1.415 . S
C784 C789 1.425 . S
C784 C791 1.409 . S
C785 H777 0.930 . S
C785 C783 1.419 . S
C785 C786 1.362 . S
C786 H778 0.930 . S
C786 C785 1.362 . S
C786 C789 1.409 . S
C787 H779 0.930 . S
C787 C788 1.355 . S
C787 C789 1.415 . S
C788 C787 1.355 . S
C788 C790 1.419 . S
C789 C784 1.425 . S
C789 C786 1.409 . S
C789 C787 1.415 . S
C790 H780 0.930 . S
C790 C788 1.419 . S
C790 C791 1.362 . S
C791 H781 0.930 . S
C791 C784 1.409 . S
C791 C790 1.362 . S
H792 C798 0.930 . S
H793 C801 0.930 . S
H794 C802 0.930 . S
H795 C803 0.930 . S
H796 C806 0.930 . S
H797 C807 0.930 . S
C798 H792 0.930 . S
C798 C799 1.355 . S
C798 C800 1.415 . S
C799 C798 1.355 . S
C799 C801 1.419 . S
C800 C798 1.415 . S
C800 C805 1.425 . S
C800 C807 1.409 . S
C801 H793 0.930 . S
C801 C799 1.419 . S
C801 C802 1.362 . S
C802 H794 0.930 . S
C802 C801 1.362 . S
C802 C805 1.409 . S
C803 H795 0.930 . S
C803 C804 1.355 . S
C803 C805 1.415 . S
C804 C803 1.355 . S
C804 C806 1.419 . S
C805 C800 1.425 . S
C805 C802 1.409 . S
C805 C803 1.415 . S
C806 H796 0.930 . S
C806 C804 1.419 . S
C806 C807 1.362 . S
C807 H797 0.930 . S
C807 C800 1.409 . S
C807 C806 1.362 . S
C308 C217 1.576 . S
C303 C17 1.534 . S
C319 C30 1.476 . S
C324 C249 1.548 . S
C335 C61 1.458 1_556 S
C340 C272 1.541 . S
C356 C176 1.566 . S
C351 C72 1.547 . S
C372 C259 1.440 . S
C367 C19 1.533 . S
C388 C288 1.424 . S
C383 C33 1.470 . S
C404 C192 1.459 . S
C399 C59 1.515 . S
C420 C227 1.367 . S
C415 C75 1.421 . S
C431 C12 1.433 . S
C436 C255 1.415 . S
C447 C101 1.517 . S
C452 C230 1.413 . S
C463 C51 1.467 . S
C468 C198 1.417 . S
C484 C287 1.399 . S
C479 C124 1.470 . S
C500 C231 1.557 . S
C495 C9 1.543 . S
C511 C103 1.476 . S
C516 C199 1.541 . S
C527 C54 1.484 1_556 S
C532 C286 1.605 . S
C548 C254 1.604 . S
C543 C122 1.517 . S
C559 C145 1.474 1_556 S
C564 C281 1.544 . S
C575 C96 1.440 . S
C580 C185 1.547 . S
C591 C166 1.497 . S
C596 C208 1.574 . S
C607 C114 1.487 . S
C612 C240 1.545 . S
C628 C195 1.406 . S
C623 C143 1.466 . S
C639 C93 1.466 . S
C644 C224 1.398 . S
C655 C164 1.489 . S
C660 C256 1.436 . S
C676 C291 1.426 . S
C671 C117 1.476 . S
C687 C135 1.481 . S
C692 C191 1.432 . S
C703 C40 1.412 . S
C708 C294 1.314 . S
C719 C156 1.489 . S
C724 C262 1.424 . S
C740 C223 1.386 . S
C735 C82 1.446 . S
C756 C295 1.608 . S
C751 C138 1.490 1_556 S
C772 C263 1.586 . S
C767 C38 1.529 . S
C788 C222 1.556 . S
C783 C159 1.533 . S
C804 C190 1.585 . S
C799 C80 1.473 . S
