# Generated by pormake.
# Topology sqc, (4,8)-cn, num edge types: 1
# Building blocks:
#     Node 0, Type 0, BuildingBlock: NAWXER_clean_linker_0, # of connection points: 4
#     Node 1, Type 0, BuildingBlock: NAWXER_clean_linker_0, # of connection points: 4
#     Node 2, Type 0, BuildingBlock: NAWXER_clean_linker_0, # of connection points: 4
#     Node 3, Type 0, BuildingBlock: NAWXER_clean_linker_0, # of connection points: 4
#     Node 4, Type 0, BuildingBlock: NAWXER_clean_linker_0, # of connection points: 4
#     Node 5, Type 0, BuildingBlock: NAWXER_clean_linker_0, # of connection points: 4
#     Node 6, Type 0, BuildingBlock: NAWXER_clean_linker_0, # of connection points: 4
#     Node 7, Type 0, BuildingBlock: NAWXER_clean_linker_0, # of connection points: 4
#     Node 8, Type 1, BuildingBlock: TAGTUT_clean_sbu_3, # of connection points: 8
#     Node 9, Type 1, BuildingBlock: TAGTUT_clean_sbu_3, # of connection points: 8
#     Node 10, Type 1, BuildingBlock: TAGTUT_clean_sbu_3, # of connection points: 8
#     Node 11, Type 1, BuildingBlock: TAGTUT_clean_sbu_3, # of connection points: 8
#     Edge 12, Type (0, 1), BuildingBlock: KIFKEQ_clean_linker_1, # of connection points: 2
#     Edge 13, Type (0, 1), BuildingBlock: KIFKEQ_clean_linker_1, # of connection points: 2
#     Edge 14, Type (0, 1), BuildingBlock: KIFKEQ_clean_linker_1, # of connection points: 2
#     Edge 15, Type (0, 1), BuildingBlock: KIFKEQ_clean_linker_1, # of connection points: 2
#     Edge 16, Type (0, 1), BuildingBlock: KIFKEQ_clean_linker_1, # of connection points: 2
#     Edge 17, Type (0, 1), BuildingBlock: KIFKEQ_clean_linker_1, # of connection points: 2
#     Edge 18, Type (0, 1), BuildingBlock: KIFKEQ_clean_linker_1, # of connection points: 2
#     Edge 19, Type (0, 1), BuildingBlock: KIFKEQ_clean_linker_1, # of connection points: 2
#     Edge 20, Type (0, 1), BuildingBlock: KIFKEQ_clean_linker_1, # of connection points: 2
#     Edge 21, Type (0, 1), BuildingBlock: KIFKEQ_clean_linker_1, # of connection points: 2
#     Edge 22, Type (0, 1), BuildingBlock: KIFKEQ_clean_linker_1, # of connection points: 2
#     Edge 23, Type (0, 1), BuildingBlock: KIFKEQ_clean_linker_1, # of connection points: 2
#     Edge 24, Type (0, 1), BuildingBlock: KIFKEQ_clean_linker_1, # of connection points: 2
#     Edge 25, Type (0, 1), BuildingBlock: KIFKEQ_clean_linker_1, # of connection points: 2
#     Edge 26, Type (0, 1), BuildingBlock: KIFKEQ_clean_linker_1, # of connection points: 2
#     Edge 27, Type (0, 1), BuildingBlock: KIFKEQ_clean_linker_1, # of connection points: 2
#     Edge 28, Type (0, 1), BuildingBlock: KIFKEQ_clean_linker_1, # of connection points: 2
#     Edge 29, Type (0, 1), BuildingBlock: KIFKEQ_clean_linker_1, # of connection points: 2
#     Edge 30, Type (0, 1), BuildingBlock: KIFKEQ_clean_linker_1, # of connection points: 2
#     Edge 31, Type (0, 1), BuildingBlock: KIFKEQ_clean_linker_1, # of connection points: 2
#     Edge 32, Type (0, 1), BuildingBlock: KIFKEQ_clean_linker_1, # of connection points: 2
#     Edge 33, Type (0, 1), BuildingBlock: KIFKEQ_clean_linker_1, # of connection points: 2
#     Edge 34, Type (0, 1), BuildingBlock: KIFKEQ_clean_linker_1, # of connection points: 2
#     Edge 35, Type (0, 1), BuildingBlock: KIFKEQ_clean_linker_1, # of connection points: 2
#     Edge 36, Type (0, 1), BuildingBlock: KIFKEQ_clean_linker_1, # of connection points: 2
#     Edge 37, Type (0, 1), BuildingBlock: KIFKEQ_clean_linker_1, # of connection points: 2
#     Edge 38, Type (0, 1), BuildingBlock: KIFKEQ_clean_linker_1, # of connection points: 2
#     Edge 39, Type (0, 1), BuildingBlock: KIFKEQ_clean_linker_1, # of connection points: 2
#     Edge 40, Type (0, 1), BuildingBlock: KIFKEQ_clean_linker_1, # of connection points: 2
#     Edge 41, Type (0, 1), BuildingBlock: KIFKEQ_clean_linker_1, # of connection points: 2
#     Edge 42, Type (0, 1), BuildingBlock: KIFKEQ_clean_linker_1, # of connection points: 2
#     Edge 43, Type (0, 1), BuildingBlock: KIFKEQ_clean_linker_1, # of connection points: 2
# Relax obj value: 0.135
# Max RMSD: 0.256
# Mean RMSD: 0.159
data_MOF--net-sqc--node1-TAGTUT_clean_sbu_3--node2-NAWXER_clean_linker_0--edge1-KIFKEQ_clean_linker_1
_symmetry_space_group_name_H-M    P1
_symmetry_Int_Tables_number       1
_symmetry_cell_setting            triclinic
loop_
_symmetry_equiv_pos_as_xyz
'x, y, z'
_cell_length_a     28.416217
_cell_length_b     28.418036
_cell_length_c     87.846705
_cell_angle_alpha  90.994134
_cell_angle_beta   90.042946
_cell_angle_gamma 90.026928
loop_
_atom_site_label
_atom_site_type_symbol
_atom_site_fract_x
_atom_site_fract_y
_atom_site_fract_z
_atom_type_partial_charge
C0 C 0.21258 0.9857 0.47067 0.0
C1 C 0.21843 0.9378 0.46675 0.0
C2 C 0.17089 0.00167 0.47741 0.0
C3 C 0.13466 0.96991 0.48081 0.0
C4 C 0.18125 0.90645 0.46966 0.0
C5 C 0.13985 0.92237 0.47661 0.0
C6 C 0.09122 0.98576 0.48867 0.0
C7 C 0.21354 0.01331 0.5196 0.0
C8 C 0.22022 0.0613 0.52323 0.0
C9 C 0.17129 -0.00243 0.51315 0.0
C10 C 0.13529 0.02963 0.5098 0.0
C11 C 0.18325 0.09296 0.52041 0.0
C12 C 0.14126 0.07725 0.51378 0.0
C13 C 0.09149 0.01407 0.50207 0.0
C14 C 0.8894 0.00704 0.52233 0.0
C15 C 0.88522 0.05289 0.5284 0.0
C16 C 0.92878 0.99431 0.51365 0.0
C17 C 0.96415 0.02751 0.51062 0.0
C18 C 0.92043 0.08609 0.52525 0.0
C19 C 0.95954 0.07348 0.51649 0.0
C20 C 0.00744 0.01405 0.50222 0.0
C21 C 0.88938 0.99483 0.46844 0.0
C22 C 0.88481 0.94904 0.46236 0.0
C23 C 0.92877 0.00716 0.4772 0.0
C24 C 0.96371 0.97357 0.48029 0.0
C25 C 0.91954 0.91544 0.4656 0.0
C26 C 0.95863 0.92764 0.47444 0.0
C27 C 0.0072 0.98661 0.48866 0.0
H28 H 0.24038 0.01092 0.46869 0.0
H29 H 0.16723 0.03881 0.48011 0.0
H30 H 0.18385 0.86959 0.46644 0.0
H31 H 0.11207 0.89734 0.47889 0.0
H32 H 0.24115 0.98787 0.52154 0.0
H33 H 0.16704 0.9604 0.51059 0.0
H34 H 0.18652 0.12991 0.52343 0.0
H35 H 0.11368 0.10251 0.51151 0.0
H36 H 0.86319 0.98057 0.5248 0.0
H37 H 0.93214 0.95819 0.50968 0.0
H38 H 0.91798 0.12176 0.52973 0.0
H39 H 0.98642 0.09962 0.51438 0.0
H40 H 0.8635 0.02156 0.46592 0.0
H41 H 0.93252 0.04324 0.48118 0.0
H42 H 0.91672 0.87978 0.46113 0.0
H43 H 0.98518 0.90121 0.47659 0.0
N44 N 0.0491 0.97308 0.48253 0.0
N45 N 0.04961 0.02718 0.50829 0.0
C46 C 0.38744 0.55909 0.7281 0.0
C47 C 0.37357 0.54885 0.71304 0.0
C48 C 0.3671 0.5968 0.73614 0.0
C49 C 0.33262 0.62464 0.72921 0.0
C50 C 0.33902 0.57682 0.7062 0.0
C51 C 0.31896 0.61446 0.71418 0.0
C52 C 0.31362 0.66712 0.73685 0.0
C53 C 0.25944 0.54409 0.76235 0.0
C54 C 0.27249 0.54283 0.77778 0.0
C55 C 0.26638 0.58472 0.75392 0.0
C56 C 0.28752 0.62475 0.76061 0.0
C57 C 0.29302 0.58324 0.78451 0.0
C58 C 0.30032 0.62378 0.77602 0.0
C59 C 0.29487 0.66803 0.75173 0.0
C60 C 0.2185 0.8665 0.75598 0.0
C61 C 0.23479 0.88073 0.77045 0.0
C62 C 0.23345 0.82396 0.74942 0.0
C63 C 0.2653 0.79499 0.75713 0.0
C64 C 0.26564 0.85097 0.77833 0.0
C65 C 0.28054 0.8084 0.77175 0.0
C66 C 0.28317 0.75106 0.74994 0.0
C67 C 0.34772 0.86609 0.72129 0.0
C68 C 0.33451 0.86403 0.70586 0.0
C69 C 0.33506 0.83001 0.73109 0.0
C70 C 0.30875 0.79149 0.72561 0.0
C71 C 0.3068 0.8262 0.70057 0.0
C72 C 0.29431 0.79015 0.71034 0.0
C73 C 0.30145 0.74963 0.73502 0.0
H74 H 0.41394 0.53798 0.73363 0.0
H75 H 0.37897 0.60481 0.74761 0.0
H76 H 0.3282 0.57024 0.69452 0.0
H77 H 0.29291 0.63594 0.70856 0.0
H78 H 0.2437 0.51369 0.75675 0.0
H79 H 0.25471 0.58491 0.74218 0.0
H80 H 0.30252 0.58398 0.79645 0.0
H81 H 0.31608 0.65441 0.7815 0.0
H82 H 0.19473 0.88857 0.74963 0.0
H83 H 0.2203 0.81382 0.73826 0.0
H84 H 0.27803 0.86043 0.78963 0.0
H85 H 0.30471 0.78636 0.77797 0.0
H86 H 0.36881 0.89503 0.7257 0.0
H87 H 0.34751 0.83127 0.74274 0.0
H88 H 0.29659 0.82332 0.68871 0.0
H89 H 0.27446 0.76042 0.70586 0.0
N90 N 0.31581 0.70779 0.72909 0.0
N91 N 0.2807 0.71018 0.7578 0.0
C92 C 0.48294 0.97794 0.95653 0.0
C93 C 0.47117 0.02546 0.95466 0.0
C94 C 0.51847 0.96542 0.9667 0.0
C95 C 0.54313 0.00037 0.97491 0.0
C96 C 0.49514 0.06026 0.96313 0.0
C97 C 0.53132 0.04783 0.97302 0.0
C98 C 0.58396 0.98809 0.98438 0.0
C99 C 0.4641 0.9483 0.01513 0.0
C100 C 0.465 0.90219 0.02063 0.0
C101 C 0.50057 0.96458 0.00599 0.0
C102 C 0.5382 0.93478 0.00203 0.0
C103 C 0.50103 0.87154 0.01586 0.0
C104 C 0.53737 0.88776 0.00666 0.0
C105 C 0.58228 0.95448 -0.00404 0.0
C106 C 0.76536 0.97071 0.02819 0.0
C107 C 0.77897 0.92325 0.0287 0.0
C108 C 0.7289 0.98453 0.01856 0.0
C109 C 0.7053 0.95089 0.00951 0.0
C110 C 0.75567 0.88981 0.01949 0.0
C111 C 0.71866 0.90347 0.01012 0.0
C112 C 0.66466 0.96416 0.00013 0.0
C113 C 0.79094 0.01874 0.97488 0.0
C114 C 0.78722 0.06423 0.9689 0.0
C115 C 0.75238 -0.00252 0.98177 0.0
C116 C 0.70987 0.02214 0.9836 0.0
C117 C 0.74514 0.08939 0.9712 0.0
C118 C 0.70715 0.06871 0.97857 0.0
C119 C 0.6663 -0.00152 0.98871 0.0
H120 H 0.46473 0.95061 0.95011 0.0
H121 H 0.52765 0.92865 0.96782 0.0
H122 H 0.48671 0.09713 0.96177 0.0
H123 H 0.55029 0.07528 0.97916 0.0
H124 H 0.43711 0.97289 0.01879 0.0
H125 H 0.501 0.00142 0.00307 0.0
H126 H 0.50224 0.83566 0.01981 0.0
H127 H 0.5662 0.86425 0.00384 0.0
H128 H 0.78298 0.99701 0.03522 0.0
H129 H 0.71853 0.02119 0.01839 0.0
H130 H 0.7654 0.85298 0.01982 0.0
H131 H 0.70047 0.87702 0.0033 0.0
H132 H 0.82302 -0.00149 0.97369 0.0
H133 H 0.75548 0.96096 0.98485 0.0
H134 H 0.74032 0.12414 0.9666 0.0
H135 H 0.67473 0.08853 0.97972 0.0
N136 N 0.62576 0.00888 0.98127 0.0
N137 N 0.6228 0.94363 0.0033 0.0
C138 C 0.34575 0.11686 0.21718 0.0
C139 C 0.29862 0.11454 0.21229 0.0
C140 C 0.36478 0.15916 0.22276 0.0
C141 C 0.33687 0.19991 0.22383 0.0
C142 C 0.27119 0.15575 0.21301 0.0
C143 C 0.29014 0.19792 0.21869 0.0
C144 C 0.35589 0.24475 0.23021 0.0
C145 C 0.35948 0.14658 0.27012 0.0
C146 C 0.40372 0.14147 0.27702 0.0
C147 C 0.35294 0.17977 0.25878 0.0
C148 C 0.39086 0.20748 0.25391 0.0
C149 C 0.44171 0.16867 0.27199 0.0
C150 C 0.43531 0.2014 0.26054 0.0
C151 C 0.38325 0.24736 0.24366 0.0
C152 C 0.37714 0.44524 0.26318 0.0
C153 C 0.42371 0.4533 0.26792 0.0
C154 C 0.36619 0.40647 0.25389 0.0
C155 C 0.40165 0.37511 0.24915 0.0
C156 C 0.45941 0.42273 0.26279 0.0
C157 C 0.44834 0.38361 0.2536 0.0
C158 C 0.3891 0.33051 0.24132 0.0
C159 C 0.36442 0.44712 0.20915 0.0
C160 C 0.31621 0.45538 0.20696 0.0
C161 C 0.37956 0.40519 0.21567 0.0
C162 C 0.34667 0.37088 0.21994 0.0
C163 C 0.2836 0.42039 0.21086 0.0
C164 C 0.29874 0.37838 0.21718 0.0
C165 C 0.36145 0.32823 0.22801 0.0
H166 H 0.36793 0.08588 0.21683 0.0
H167 H 0.40133 0.15993 0.22625 0.0
H168 H 0.23514 0.15567 0.20901 0.0
H169 H 0.268 0.22893 0.21923 0.0
H170 H 0.32955 0.12635 0.27395 0.0
H171 H 0.31787 0.18505 0.2543 0.0
H172 H 0.47626 0.16503 0.27706 0.0
H173 H 0.46487 0.22286 0.25711 0.0
H174 H 0.34903 0.46839 0.26695 0.0
H175 H 0.32974 0.39992 0.25092 0.0
H176 H 0.49551 0.42792 0.26642 0.0
H177 H 0.47603 0.35937 0.25026 0.0
H178 H 0.3902 0.47344 0.20612 0.0
H179 H 0.41683 0.39976 0.21754 0.0
H180 H 0.24627 0.42553 0.20899 0.0
H181 H 0.27286 0.35231 0.22035 0.0
N182 N 0.34571 0.28549 0.22296 0.0
N183 N 0.39904 0.29005 0.24857 0.0
C184 C 0.89726 0.06599 0.22853 0.0
C185 C 0.89054 0.05671 0.21292 0.0
C186 C 0.87015 0.10017 0.23604 0.0
C187 C 0.8354 0.12495 0.2281 0.0
C188 C 0.85552 0.08133 0.20506 0.0
C189 C 0.82836 0.11524 0.21257 0.0
C190 C 0.81013 0.16477 0.23532 0.0
C191 C 0.76291 0.03654 0.25962 0.0
C192 C 0.77478 0.03557 0.27515 0.0
C193 C 0.76756 0.078 0.25144 0.0
C194 C 0.78476 0.11925 0.25854 0.0
C195 C 0.79155 0.07706 0.28227 0.0
C196 C 0.79627 0.11851 0.27406 0.0
C197 C 0.78969 0.16341 0.24995 0.0
C198 C 0.70832 0.36015 0.25621 0.0
C199 C 0.7259 0.37312 0.27064 0.0
C200 C 0.72275 0.31813 0.24914 0.0
C201 C 0.75506 0.28849 0.25638 0.0
C202 C 0.75699 0.34256 0.27804 0.0
C203 C 0.77121 0.30052 0.27101 0.0
C204 C 0.77337 0.24571 0.24865 0.0
C205 C 0.83716 0.36488 0.22153 0.0
C206 C 0.82426 0.36432 0.20607 0.0
C207 C 0.8246 0.32769 0.23089 0.0
C208 C 0.79875 0.28949 0.22495 0.0
C209 C 0.79683 0.3269 0.20032 0.0
C210 C 0.78451 0.28965 0.20966 0.0
C211 C 0.79244 0.2464 0.23384 0.0
H212 H 0.92429 0.04776 0.23482 0.0
H213 H 0.87736 0.10819 0.24791 0.0
H214 H 0.84905 0.07431 0.19308 0.0
H215 H 0.80208 0.13428 0.20619 0.0
H216 H 0.74992 0.00526 0.25379 0.0
H217 H 0.75725 0.07788 0.23956 0.0
H218 H 0.80004 0.07786 0.29429 0.0
H219 H 0.80914 0.14998 0.27983 0.0
H220 H 0.68422 0.38293 0.25025 0.0
H221 H 0.70909 0.30905 0.23796 0.0
H222 H 0.77033 0.35115 0.28931 0.0
H223 H 0.79584 0.27797 0.27685 0.0
H224 H 0.85807 0.39346 0.22627 0.0
H225 H 0.83696 0.32779 0.24256 0.0
H226 H 0.78686 0.32524 0.18842 0.0
H227 H 0.76512 0.26015 0.20482 0.0
N228 N 0.8101 0.20599 0.2278 0.0
N229 N 0.77262 0.20418 0.25617 0.0
C230 C 0.77232 0.94396 0.72494 0.0
C231 C 0.79327 0.94629 0.71049 0.0
C232 C 0.77941 0.90491 0.73405 0.0
C233 C 0.80786 0.86749 0.72895 0.0
C234 C 0.82161 0.90858 0.70538 0.0
C235 C 0.82858 0.86936 0.71451 0.0
C236 C 0.81529 0.82631 0.73867 0.0
C237 C 0.89533 0.94499 0.76218 0.0
C238 C 0.87705 0.95739 0.77656 0.0
C239 C 0.8792 0.90462 0.75448 0.0
C240 C 0.84463 0.87615 0.76108 0.0
C241 C 0.84201 0.92909 0.783 0.0
C242 C 0.82619 0.88874 0.77537 0.0
C243 C 0.8302 0.83108 0.75392 0.0
C244 C 0.86298 0.63534 0.77441 0.0
C245 C 0.8486 0.64168 0.78961 0.0
C246 C 0.8523 0.66915 0.76358 0.0
C247 C 0.82642 0.70939 0.76778 0.0
C248 C 0.82177 0.68137 0.79368 0.0
C249 C 0.81087 0.71494 0.78286 0.0
C250 C 0.82045 0.74876 0.75723 0.0
C251 C 0.74017 0.62796 0.73682 0.0
C252 C 0.75706 0.61204 0.72261 0.0
C253 C 0.75568 0.67074 0.74311 0.0
C254 C 0.78881 0.69826 0.73539 0.0
C255 C 0.78969 0.64005 0.71481 0.0
C256 C 0.80518 0.68284 0.7211 0.0
C257 C 0.80542 0.74365 0.74196 0.0
H258 H 0.74931 0.97173 0.72907 0.0
H259 H 0.76212 0.90367 0.74502 0.0
H260 H 0.83844 0.90939 0.69433 0.0
H261 H 0.85053 0.84073 0.71037 0.0
H262 H 0.92233 0.96625 0.75696 0.0
H263 H 0.89462 0.89498 0.74359 0.0
H264 H 0.82784 0.93731 0.79417 0.0
H265 H 0.79986 0.86695 0.78072 0.0
H266 H 0.88422 0.60529 0.77103 0.0
H267 H 0.86592 0.66478 0.75214 0.0
H268 H 0.8098 0.68681 0.80528 0.0
H269 H 0.79112 0.74589 0.78636 0.0
H270 H 0.71509 0.60726 0.74314 0.0
H271 H 0.7415 0.68245 0.75397 0.0
H272 H 0.80267 0.62931 0.70369 0.0
H273 H 0.83028 0.70375 0.71486 0.0
N274 N 0.80366 0.78271 0.73319 0.0
N275 N 0.83204 0.79222 0.76258 0.0
C276 C 0.71192 0.48276 0.97469 0.0
C277 C 0.71849 0.43421 0.97196 0.0
C278 C 0.66991 0.49979 0.98093 0.0
C279 C 0.63395 0.46869 0.98513 0.0
C280 C 0.68191 0.40322 0.97587 0.0
C281 C 0.64021 0.42029 0.98238 0.0
C282 C 0.58904 0.48599 0.99183 0.0
C283 C 0.70005 0.53122 0.02637 0.0
C284 C 0.7131 0.57802 0.02326 0.0
C285 C 0.65891 0.51179 0.02023 0.0
C286 C 0.62934 0.53903 0.01119 0.0
C287 C 0.68301 0.60497 0.01409 0.0
C288 C 0.64114 0.58591 0.00837 0.0
C289 C 0.58689 0.51833 0.0042 0.0
C290 C 0.38448 0.49583 0.02344 0.0
C291 C 0.37384 0.54186 0.02845 0.0
C292 C 0.42658 0.48616 0.01581 0.0
C293 C 0.45868 0.52243 0.01271 0.0
C294 C 0.40647 0.57799 0.02558 0.0
C295 C 0.44849 0.56831 0.01784 0.0
C296 C 0.50324 0.51225 0.00446 0.0
C297 C 0.38817 0.4866 0.97064 0.0
C298 C 0.3843 0.44013 0.96512 0.0
C299 C 0.42723 0.50047 0.97926 0.0
C300 C 0.46265 0.46786 0.9828 0.0
C301 C 0.41969 0.40752 0.96868 0.0
C302 C 0.45857 0.42132 0.9774 0.0
C303 C 0.50516 0.48281 0.99134 0.0
H304 H 0.73917 0.50786 0.97196 0.0
H305 H 0.66542 0.53742 0.98221 0.0
H306 H 0.68495 0.36577 0.97363 0.0
H307 H 0.61273 0.39556 0.98527 0.0
H308 H 0.72115 0.50951 0.03372 0.0
H309 H 0.65001 0.47555 0.02258 0.0
H310 H 0.69187 0.64065 0.0111 0.0
H311 H 0.6187 0.60726 0.00129 0.0
H312 H 0.36024 0.46715 0.02539 0.0
H313 H 0.4341 0.45015 0.01239 0.0
H314 H 0.40001 0.61366 0.02957 0.0
H315 H 0.47293 0.59677 0.01578 0.0
H316 H 0.3619 0.51265 0.96782 0.0
H317 H 0.43025 0.537 0.98286 0.0
H318 H 0.41747 0.37139 0.96461 0.0
H319 H 0.48557 0.39566 0.97989 0.0
N320 N 0.54796 0.46985 0.98577 0.0
N321 N 0.54422 0.52982 0.01021 0.0
C322 C 0.97715 0.47948 0.52718 0.0
C323 C 0.97831 0.43443 0.53351 0.0
C324 C 0.01102 0.49284 0.51662 0.0
C325 C 0.04631 0.46111 0.51197 0.0
C326 C 0.01249 0.4021 0.52841 0.0
C327 C 0.04621 0.41539 0.51777 0.0
C328 C 0.08738 0.47753 0.5032 0.0
C329 C 0.97729 0.49545 0.46639 0.0
C330 C 0.96603 0.54263 0.46333 0.0
C331 C 0.01374 0.48472 0.47642 0.0
C332 C 0.03999 0.52088 0.48338 0.0
C333 C 0.99079 0.57865 0.4711 0.0
C334 C 0.02791 0.56785 0.48083 0.0
C335 C 0.08418 0.50996 0.49129 0.0
C336 C 0.2747 0.52842 0.46588 0.0
C337 C 0.27832 0.5776 0.46502 0.0
C338 C 0.24017 0.50813 0.47496 0.0
C339 C 0.20856 0.53683 0.4831 0.0
C340 C 0.24787 0.60624 0.47365 0.0
C341 C 0.21278 0.58594 0.48248 0.0
C342 C 0.16765 0.51615 0.49069 0.0
C343 C 0.28814 0.48386 0.52245 0.0
C344 C 0.29501 0.43568 0.52509 0.0
C345 C 0.24897 0.49907 0.5143 0.0
C346 C 0.21615 0.4663 0.5086 0.0
C347 C 0.26309 0.40288 0.51887 0.0
C348 C 0.22381 0.41812 0.51079 0.0
C349 C 0.17112 0.48195 0.50204 0.0
H350 H 0.95087 0.50499 0.53073 0.0
H351 H 0.01099 0.52885 0.5128 0.0
H352 H 0.01463 0.36727 0.53317 0.0
H353 H 0.07339 0.39046 0.51451 0.0
H354 H 0.95962 0.4667 0.46051 0.0
H355 H 0.02321 0.44821 0.47802 0.0
H356 H 0.98234 0.61533 0.4694 0.0
H357 H 0.04797 0.59621 0.48609 0.0
H358 H 0.29804 0.50579 0.45932 0.0
H359 H 0.23686 0.47016 0.4751 0.0
H360 H 0.25 0.64423 0.47306 0.0
H361 H 0.18827 0.60853 0.48859 0.0
H362 H 0.31237 0.50986 0.52707 0.0
H363 H 0.24326 0.53649 0.51308 0.0
H364 H 0.26722 0.3656 0.52087 0.0
H365 H 0.19863 0.39232 0.50661 0.0
N366 N 0.13082 0.46437 0.50799 0.0
N367 N 0.12438 0.52846 0.48562 0.0
C368 C 0.13525 0.66432 0.142 0.0
C369 C 0.96188 0.60612 0.13656 0.0
C370 C 0.96609 0.68167 0.09398 0.0
Mg371 Mg 0.18912 0.75416 0.12754 0.0
Mg372 Mg 0.13308 0.84876 0.11531 0.0
O373 O 0.13654 0.78328 0.11568 0.0
Mg374 Mg 0.08354 0.74229 0.12197 0.0
O375 O 0.0346 0.69619 0.12817 0.0
Mg376 Mg 0.05568 0.64041 0.11571 0.0
Mg377 Mg 0.97073 0.71042 0.12761 0.0
C378 C 0.0357 0.82271 0.09959 0.0
O379 O 0.05214 0.79442 0.13984 0.0
O380 O 0.23963 0.79932 0.11295 0.0
O381 O 0.97504 0.77496 0.14078 0.0
O382 O 0.18684 0.81401 0.14621 0.0
O383 O 0.19816 0.85989 0.10369 0.0
O384 O 0.14099 0.87264 0.13831 0.0
O385 O 0.11095 0.688 0.10433 0.0
O386 O 0.18791 0.69698 0.10923 0.0
C387 C 0.15413 0.6763 0.10216 0.0
C388 C 0.23617 0.83592 0.10462 0.0
O389 O 0.03651 0.7805 0.10464 0.0
O390 O -0.00025 0.59726 0.12903 0.0
O391 O 0.06709 0.85374 0.10295 0.0
O392 O 0.0008 0.65382 0.09632 0.0
O393 O 0.94462 0.64762 0.13771 0.0
O394 O 0.95118 0.70989 0.10431 0.0
O395 O 0.13247 0.70852 0.13929 0.0
O396 O 0.10928 0.63382 0.13502 0.0
C397 C 0.16698 0.8541 0.14842 0.0
C398 C 0.01001 0.8009 0.14484 0.0
C399 C 0.66141 0.80881 0.38956 0.0
C400 C 0.72067 0.63803 0.38682 0.0
C401 C 0.64713 0.63201 0.34332 0.0
Mg402 Mg 0.56878 0.85709 0.37623 0.0
Mg403 Mg 0.4751 0.79746 0.36448 0.0
O404 O 0.54049 0.80506 0.36343 0.0
Mg405 Mg 0.58299 0.75339 0.36967 0.0
O406 O 0.6297 0.70574 0.37612 0.0
Mg407 Mg 0.68561 0.72671 0.36416 0.0
Mg408 Mg 0.61674 0.64159 0.37661 0.0
C409 C 0.5028 0.70346 0.34687 0.0
O410 O 0.53114 0.7225 0.38708 0.0
O411 O 0.51925 0.90636 0.36289 0.0
O412 O 0.55184 0.64611 0.38929 0.0
O413 O 0.51181 0.85107 0.39526 0.0
O414 O 0.45727 0.86374 0.35457 0.0
O415 O 0.45609 0.80003 0.38797 0.0
O416 O 0.63657 0.78076 0.35239 0.0
O417 O 0.62471 0.85763 0.35756 0.0
C418 C 0.64652 0.82441 0.35042 0.0
C419 C 0.48027 0.90249 0.35553 0.0
O420 O 0.54553 0.70636 0.35168 0.0
O421 O 0.72963 0.6736 0.37843 0.0
O422 O 0.47045 0.73223 0.35124 0.0
O423 O 0.6732 0.66846 0.34541 0.0
O424 O 0.67933 0.62065 0.38802 0.0
O425 O 0.61931 0.61744 0.35361 0.0
O426 O 0.61713 0.8027 0.38735 0.0
O427 O 0.69246 0.78371 0.38261 0.0
C428 C 0.47426 0.82761 0.39795 0.0
C429 C 0.52509 0.68124 0.39249 0.0
C430 C 0.63689 0.16724 0.64288 0.0
C431 C 0.46815 0.10157 0.63418 0.0
C432 C 0.47549 0.17359 0.59138 0.0
Mg433 Mg 0.68767 0.25979 0.63101 0.0
Mg434 Mg 0.63091 0.35307 0.61888 0.0
O435 O 0.63759 0.2879 0.61778 0.0
Mg436 Mg 0.58469 0.24406 0.62213 0.0
O437 O 0.53665 0.19523 0.6267 0.0
Mg438 Mg 0.56373 0.14003 0.61522 0.0
Mg439 Mg 0.47243 0.20587 0.62451 0.0
C440 C 0.53978 0.32588 0.5997 0.0
O441 O 0.54621 0.29352 0.6394 0.0
O442 O 0.73998 0.30926 0.61879 0.0
O443 O 0.47017 0.27034 0.63777 0.0
O444 O 0.67764 0.31637 0.65045 0.0
O445 O 0.6986 0.37012 0.6097 0.0
O446 O 0.62992 0.37297 0.64231 0.0
O447 O 0.61833 0.19171 0.60503 0.0
O448 O 0.69341 0.20456 0.61192 0.0
C449 C 0.66249 0.18273 0.60383 0.0
C450 C 0.73728 0.34756 0.61127 0.0
O451 O 0.54148 0.28238 0.6036 0.0
O452 O 0.50806 0.09427 0.62765 0.0
O453 O 0.56806 0.3573 0.60508 0.0
O454 O 0.51124 0.14851 0.59493 0.0
O455 O 0.44831 0.14201 0.63444 0.0
O456 O 0.45722 0.20289 0.60081 0.0
O457 O 0.63044 0.21111 0.64051 0.0
O458 O 0.61511 0.13519 0.63522 0.0
C459 C 0.65442 0.35451 0.65279 0.0
C460 C 0.5025 0.29763 0.64307 0.0
C461 C 0.15925 0.30715 0.89093 0.0
C462 C 0.21908 0.13659 0.88378 0.0
C463 C 0.14269 0.13956 0.84091 0.0
Mg464 Mg 0.06342 0.35646 0.88002 0.0
Mg465 Mg 0.96991 0.29552 0.86977 0.0
O466 O 0.03434 0.30541 0.86705 0.0
Mg467 Mg 0.07888 0.25353 0.87151 0.0
O468 O 0.1272 0.20546 0.87605 0.0
Mg469 Mg 0.1809 0.22995 0.86369 0.0
Mg470 Mg 0.11404 0.1413 0.87451 0.0
C471 C 0.9949 0.20571 0.84979 0.0
O472 O 0.03137 0.219 0.88925 0.0
O473 O 0.00997 0.40664 0.86834 0.0
O474 O 0.04808 0.14149 0.8869 0.0
O475 O 0.00976 0.34701 0.90001 0.0
O476 O 0.9477 0.36211 0.86148 0.0
O477 O 0.95542 0.29361 0.89356 0.0
O478 O 0.1289 0.28503 0.85385 0.0
O479 O 0.11623 0.36083 0.86042 0.0
C480 C 0.13768 0.32916 0.85245 0.0
C481 C 0.96921 0.40169 0.8621 0.0
O482 O 0.0386 0.20784 0.85364 0.0
O483 O 0.227 0.1742 0.87621 0.0
O484 O 0.96354 0.2336 0.85532 0.0
O485 O 0.1682 0.17594 0.84368 0.0
O486 O 0.17796 0.11848 0.88491 0.0
O487 O 0.11611 0.1222 0.85105 0.0
O488 O 0.11477 0.30097 0.88931 0.0
O489 O 0.18939 0.28333 0.88314 0.0
C490 C 0.97386 0.32179 0.90331 0.0
C491 C 0.02358 0.17574 0.89237 0.0
H492 H 0.27289 0.98323 0.44582 0.0
H493 H 0.26419 0.85361 0.47077 0.0
H494 H 0.34261 0.95399 0.43275 0.0
H495 H 0.33321 0.82381 0.45714 0.0
H496 H 0.40172 0.77659 0.40964 0.0
H497 H 0.34609 0.80186 0.42916 0.0
H498 H 0.42752 0.92818 0.43715 0.0
H499 H 0.48386 0.90258 0.41772 0.0
C500 C 0.28619 0.94885 0.44874 0.0
C501 C 0.26256 0.92078 0.45934 0.0
C502 C 0.32624 0.93211 0.44123 0.0
C503 C 0.34339 0.8867 0.44397 0.0
C504 C 0.32055 0.85888 0.45476 0.0
C505 C 0.28079 0.87587 0.46245 0.0
C506 C 0.40868 0.80901 0.41587 0.0
C507 C 0.44707 0.83769 0.41201 0.0
C508 C 0.37675 0.82349 0.42707 0.0
C509 C 0.38218 0.86728 0.43451 0.0
C510 C 0.42227 0.89448 0.43144 0.0
C511 C 0.45466 0.87964 0.42038 0.0
H512 H 0.28599 0.90732 0.68312 0.0
H513 H 0.42348 0.89926 0.70394 0.0
H514 H 0.31699 0.96143 0.66428 0.0
H515 H 0.45407 0.95432 0.68542 0.0
H516 H 0.50536 0.01567 0.64122 0.0
H517 H 0.47144 0.95679 0.65788 0.0
H518 H 0.34705 0.04259 0.66355 0.0
H519 H 0.38035 0.10102 0.64678 0.0
C520 C 0.32276 0.91726 0.68369 0.0
C521 C 0.35228 0.89921 0.69503 0.0
C522 C 0.34043 0.94837 0.67297 0.0
C523 C 0.38802 0.96184 0.67333 0.0
C524 C 0.41742 0.94402 0.68473 0.0
C525 C 0.39972 0.91308 0.69547 0.0
C526 C 0.4705 0.02167 0.64584 0.0
C527 C 0.44575 0.06323 0.64275 0.0
C528 C 0.45127 0.98813 0.65547 0.0
C529 C 0.40682 0.99536 0.66213 0.0
C530 C 0.38126 0.03592 0.65853 0.0
C531 C 0.40051 0.06951 0.64896 0.0
H532 H 0.46806 0.00515 0.92427 0.0
H533 H 0.39252 0.07682 0.96041 0.0
H534 H 0.40816 0.03023 0.9059 0.0
H535 H 0.33221 0.10084 0.94216 0.0
H536 H 0.21064 0.07727 0.9076 0.0
H537 H 0.27269 0.04861 0.92415 0.0
H538 H 0.37684 0.11906 0.89706 0.0
H539 H 0.31446 0.149 0.88047 0.0
C540 C 0.43842 0.02593 0.92825 0.0
C541 C 0.43453 0.03906 0.94369 0.0
C542 C 0.40453 0.04044 0.91778 0.0
C543 C 0.36584 0.06731 0.9227 0.0
C544 C 0.36176 0.07996 0.93816 0.0
C545 C 0.39611 0.06636 0.94855 0.0
C546 C 0.24674 0.08634 0.905 0.0
C547 C 0.25762 0.11559 0.89273 0.0
C548 C 0.28214 0.07006 0.91454 0.0
C549 C 0.32923 0.0819 0.91186 0.0
C550 C 0.34062 0.10948 0.89927 0.0
C551 C 0.305 0.12663 0.88985 0.0
H552 H 0.34166 0.04836 0.19396 0.0
H553 H 0.2096 0.07929 0.21637 0.0
H554 H 0.3068 0.97857 0.18213 0.0
H555 H 0.1745 0.00981 0.20421 0.0
H556 H 0.12363 0.93406 0.15885 0.0
H557 H 0.154 0.99116 0.17724 0.0
H558 H 0.27112 0.89936 0.18666 0.0
H559 H 0.24046 0.84164 0.16823 0.0
C560 C 0.30547 0.03987 0.19661 0.0
C561 C 0.27838 0.06984 0.20603 0.0
C562 C 0.28549 -0.00027 0.18983 0.0
C563 C 0.23786 0.98871 0.19222 0.0
C564 C 0.21117 0.01767 0.20204 0.0
C565 C 0.23124 0.05764 0.20892 0.0
C566 C 0.15508 0.92526 0.16515 0.0
C567 C 0.17971 0.88331 0.16197 0.0
C568 C 0.1725 0.95809 0.17573 0.0
C569 C 0.21528 0.95002 0.18326 0.0
C570 C 0.23836 0.90676 0.18086 0.0
C571 C 0.22056 0.87355 0.17039 0.0
H572 H 0.27523 0.01658 0.54418 0.0
H573 H 0.26695 0.14439 0.51829 0.0
H574 H 0.34572 0.04605 0.55681 0.0
H575 H 0.33683 0.17443 0.53143 0.0
H576 H 0.40465 0.22477 0.57872 0.0
H577 H 0.34988 0.1985 0.55908 0.0
H578 H 0.43061 0.07115 0.55246 0.0
H579 H 0.48619 0.0977 0.57202 0.0
C580 C 0.28881 0.05057 0.54095 0.0
C581 C 0.26502 0.07816 0.53026 0.0
C582 C 0.32933 0.06744 0.5482 0.0
C583 C 0.34681 0.11249 0.54507 0.0
C584 C 0.32393 0.13967 0.53411 0.0
C585 C 0.28367 0.12257 0.5267 0.0
C586 C 0.41178 0.19192 0.57274 0.0
C587 C 0.44967 0.1632 0.57705 0.0
C588 C 0.38031 0.17687 0.56146 0.0
C589 C 0.38565 0.13249 0.55441 0.0
C590 C 0.42542 0.1053 0.55787 0.0
C591 C 0.45739 0.12069 0.56901 0.0
H592 H 0.14636 0.91917 0.77047 0.0
H593 H 0.28825 0.94502 0.78621 0.0
H594 H 0.12002 0.99079 0.78362 0.0
H595 H 0.26168 0.01549 0.79979 0.0
H596 H 0.20994 0.15105 0.81882 0.0
H597 H 0.22967 0.09512 0.79837 0.0
H598 H 0.1097 0.01001 0.81036 0.0
H599 H 0.09002 0.06546 0.83057 0.0
C600 C 0.17205 0.94045 0.77657 0.0
C601 C 0.21931 0.9261 0.77745 0.0
C602 C 0.15689 0.98133 0.78417 0.0
C603 C 0.18868 0.00878 0.79281 0.0
C604 C 0.23633 0.99552 0.79311 0.0
C605 C 0.25145 0.95467 0.78553 0.0
C606 C 0.18706 0.12109 0.81681 0.0
C607 C 0.14867 0.11253 0.82646 0.0
C608 C 0.19857 0.08887 0.80516 0.0
C609 C 0.17169 0.04773 0.80289 0.0
C610 C 0.13107 0.04139 0.81171 0.0
C611 C 0.11979 0.0733 0.82337 0.0
H612 H 0.37007 0.91726 0.0219 0.0
H613 H 0.48567 0.85701 0.04686 0.0
H614 H 0.31741 0.90156 0.04315 0.0
H615 H 0.43335 0.84187 0.06817 0.0
H616 H 0.3111 0.78067 0.09643 0.0
H617 H 0.36701 0.79466 0.07599 0.0
H618 H 0.30516 0.93142 0.06883 0.0
H619 H 0.24857 0.91705 0.08898 0.0
C620 C 0.3841 0.9005 0.03191 0.0
C621 C 0.43185 0.88824 0.03272 0.0
C622 C 0.35412 0.8918 0.04412 0.0
C623 C 0.37139 0.87098 0.05742 0.0
C624 C 0.41889 0.85757 0.05804 0.0
C625 C 0.44881 0.86608 0.04581 0.0
C626 C 0.30996 0.81407 0.09068 0.0
C627 C 0.27514 0.8476 0.09424 0.0
C628 C 0.34196 0.82203 0.07894 0.0
C629 C 0.33993 0.86379 0.07062 0.0
C630 C 0.30679 0.89835 0.07476 0.0
C631 C 0.27467 0.8903 0.08641 0.0
H632 H 0.44488 0.16088 0.30435 0.0
H633 H 0.37621 0.04981 0.27859 0.0
H634 H 0.45769 0.10728 0.32533 0.0
H635 H 0.39024 0.99555 0.29932 0.0
H636 H 0.39397 0.91419 0.34232 0.0
H637 H 0.37056 0.97551 0.32483 0.0
H638 H 0.50661 0.04176 0.33048 0.0
H639 H 0.52931 0.98162 0.34833 0.0
C640 C 0.43278 0.12483 0.30319 0.0
C641 C 0.40998 0.1092 0.28985 0.0
C642 C 0.44011 0.09415 0.31517 0.0
C643 C 0.42522 0.04705 0.31399 0.0
C644 C 0.40149 0.03178 0.30073 0.0
C645 C 0.3937 0.06267 0.2888 0.0
C646 C 0.41859 0.94228 0.34 0.0
C647 C 0.46365 0.94282 0.34661 0.0
C648 C 0.40528 0.97724 0.3299 0.0
C649 C 0.4369 0.01321 0.3261 0.0
C650 C 0.48114 0.01489 0.33327 0.0
C651 C 0.49427 0.98023 0.34348 0.0
H652 H 0.79052 0.03541 0.52499 0.0
H653 H 0.89244 0.09788 0.55573 0.0
H654 H 0.72716 0.05616 0.54298 0.0
H655 H 0.8299 0.11865 0.57343 0.0
H656 H 0.72596 0.11464 0.60905 0.0
H657 H 0.77404 0.07413 0.59008 0.0
H658 H 0.69025 0.13415 0.55429 0.0
H659 H 0.64099 0.17412 0.57353 0.0
C660 C 0.79931 0.0534 0.53558 0.0
C661 C 0.84632 0.06527 0.53896 0.0
C662 C 0.76316 0.06536 0.54581 0.0
C663 C 0.77372 0.08846 0.55966 0.0
C664 C 0.82075 0.10012 0.56296 0.0
C665 C 0.85654 0.08875 0.55274 0.0
C666 C 0.71666 0.11775 0.59716 0.0
C667 C 0.68015 0.14771 0.59272 0.0
C668 C 0.74437 0.09485 0.5863 0.0
C669 C 0.73659 0.10202 0.57073 0.0
C670 C 0.69702 0.12812 0.56623 0.0
C671 C 0.66878 0.15082 0.57721 0.0
H672 H 0.83183 -0.00104 0.29718 0.0
H673 H 0.70044 0.97441 0.27356 0.0
H674 H 0.81382 0.9346 0.3143 0.0
H675 H 0.68269 0.91017 0.29056 0.0
H676 H 0.65918 0.79087 0.32132 0.0
H677 H 0.70173 0.83165 0.30109 0.0
H678 H 0.75402 0.93265 0.33434 0.0
H679 H 0.71177 0.89227 0.35425 0.0
C680 C 0.79938 0.97952 0.29553 0.0
C681 C 0.76724 0.99234 0.28415 0.0
C682 C 0.78923 0.94248 0.30527 0.0
C683 C 0.74673 0.91742 0.30384 0.0
C684 C 0.71606 0.92825 0.29184 0.0
C685 C 0.72617 0.96531 0.28212 0.0
C686 C 0.68134 0.82068 0.3243 0.0
C687 C 0.68212 0.83873 0.33926 0.0
C688 C 0.70528 0.84427 0.31274 0.0
C689 C 0.7308 0.8857 0.31609 0.0
C690 C 0.73508 0.90073 0.33135 0.0
C691 C 0.71074 0.87767 0.34278 0.0
H692 H 0.85801 0.87404 0.02137 0.0
H693 H 0.78426 0.93827 0.05931 0.0
H694 H 0.92036 0.84823 0.03866 0.0
H695 H 0.84613 0.91156 0.07664 0.0
H696 H 0.94252 0.80112 0.10162 0.0
H697 H 0.87941 0.82449 0.08422 0.0
H698 H 0.98065 0.89829 0.05687 0.0
H699 H 0.04354 0.87533 0.0743 0.0
C700 C 0.85522 0.88243 0.03341 0.0
C701 C 0.81672 0.90823 0.03907 0.0
C702 C 0.89073 0.8678 0.04325 0.0
C703 C 0.88769 0.8779 0.05891 0.0
C704 C 0.84892 0.90321 0.0646 0.0
C705 C 0.81389 0.9187 0.05471 0.0
C706 C 0.95119 0.82182 0.09179 0.0
C707 C -0.00229 0.83612 0.08917 0.0
C708 C 0.9152 0.83551 0.08196 0.0
C709 C 0.92549 0.86298 0.06926 0.0
C710 C 0.97208 0.87685 0.06656 0.0
C711 C 0.00785 0.86396 0.07654 0.0
H712 H 0.96908 0.98258 0.78075 0.0
H713 H 0.82709 0.02387 0.79232 0.0
H714 H -0.00023 0.04542 0.79733 0.0
H715 H 0.85756 0.08548 0.80922 0.0
H716 H 0.92544 0.21636 0.82895 0.0
H717 H 0.89922 0.15982 0.80957 0.0
H718 H 0.00317 0.06042 0.82496 0.0
H719 H 0.02956 0.1175 0.8443 0.0
C720 C 0.94447 0.0055 0.78668 0.0
C721 C 0.89571 -0.00172 0.78531 0.0
C722 C 0.96201 0.04106 0.79629 0.0
C723 C 0.93108 0.07018 0.80465 0.0
C724 C 0.88232 0.06392 0.80284 0.0
C725 C 0.86485 0.02838 0.79328 0.0
C726 C 0.94275 0.18244 0.82816 0.0
C727 C 0.97988 0.17131 0.83802 0.0
C728 C 0.92774 0.1501 0.81707 0.0
C729 C 0.94926 0.10574 0.81571 0.0
C730 C 0.98664 0.09474 0.82552 0.0
C731 C 0.00183 0.12731 0.83657 0.0
H732 H 0.89197 0.90414 0.43503 0.0
H733 H 0.79027 0.96701 0.46569 0.0
H734 H 0.82928 0.88212 0.41753 0.0
H735 H 0.72672 0.94516 0.44788 0.0
H736 H 0.72388 0.87591 0.38255 0.0
H737 H 0.77221 0.92093 0.40049 0.0
H738 H 0.6901 0.86767 0.43781 0.0
H739 H 0.64059 0.82353 0.4196 0.0
C740 C 0.85608 0.91326 0.43801 0.0
C741 C 0.84593 0.93695 0.45176 0.0
C742 C 0.82018 0.90121 0.4279 0.0
C743 C 0.77311 0.91246 0.43125 0.0
C744 C 0.76271 0.93624 0.445 0.0
C745 C 0.79897 0.94881 0.45513 0.0
C746 C 0.71501 0.87543 0.39454 0.0
C747 C 0.67892 0.84626 0.39978 0.0
C748 C 0.74285 0.90082 0.40481 0.0
C749 C 0.73565 0.89678 0.42055 0.0
C750 C 0.69642 0.87138 0.42573 0.0
C751 C 0.66804 0.84626 0.41535 0.0
H752 H 0.91389 0.96867 0.22228 0.0
H753 H 0.93223 0.06468 0.18515 0.0
H754 H 0.95299 0.90677 0.20738 0.0
H755 H 0.97006 0.00252 0.17011 0.0
H756 H 0.05645 0.88463 0.14889 0.0
H757 H 0.0379 0.94751 0.16741 0.0
H758 H 0.92335 0.86384 0.18464 0.0
H759 H 0.94241 0.80132 0.16651 0.0
C760 C 0.92702 0.97674 0.21104 0.0
C761 C 0.9194 0.02115 0.20475 0.0
C762 C 0.94911 0.9413 0.20249 0.0
C763 C 0.96406 0.94976 0.18754 0.0
C764 C 0.95912 0.99506 0.18163 0.0
C765 C 0.93693 0.03043 0.19015 0.0
C766 C 0.02806 0.87952 0.15687 0.0
C767 C 0.00094 0.83827 0.15628 0.0
C768 C 0.01723 0.91547 0.16737 0.0
C769 C 0.9794 0.91037 0.17751 0.0
C770 C 0.95321 0.86849 0.17715 0.0
C771 C 0.96375 0.83293 0.16662 0.0
H772 H 0.81391 0.15681 0.96497 0.0
H773 H 0.84554 0.01466 0.94968 0.0
H774 H 0.86737 0.1871 0.94589 0.0
H775 H 0.90242 0.04457 0.93206 0.0
H776 H 0.96182 0.10373 0.89013 0.0
H777 H 0.90368 0.08029 0.90879 0.0
H778 H 0.9452 0.19734 0.93804 0.0
H779 H 0.00109 0.22241 0.91868 0.0
C780 C 0.83252 0.13191 0.95771 0.0
C781 C 0.82476 0.08314 0.95888 0.0
C782 C 0.86379 0.14935 0.94689 0.0
C783 C 0.88875 0.11837 0.93721 0.0
C784 C 0.88279 0.06967 0.93895 0.0
C785 C 0.85079 0.05235 0.94944 0.0
C786 C 0.95797 0.12462 0.90049 0.0
C787 C 0.9859 0.16452 0.9031 0.0
C788 C 0.92508 0.111 0.91128 0.0
C789 C 0.92049 0.13614 0.92516 0.0
C790 C 0.94754 0.17716 0.9275 0.0
C791 C 0.97966 0.1915 0.91646 0.0
H792 H 0.78675 0.03999 0.71839 0.0
H793 H 0.7754 0.94359 0.67997 0.0
H794 H 0.7599 0.10429 0.70242 0.0
H795 H 0.74918 0.00745 0.66411 0.0
H796 H 0.63455 0.17046 0.67375 0.0
H797 H 0.68376 0.1236 0.69063 0.0
H798 H 0.76962 0.08098 0.6522 0.0
H799 H 0.7194 0.12676 0.63545 0.0
C800 C 0.77894 0.0326 0.70652 0.0
C801 C 0.78289 0.98657 0.70048 0.0
C802 C 0.76372 0.06944 0.69739 0.0
C803 C 0.75245 0.06102 0.68201 0.0
C804 C 0.75843 0.01541 0.67584 0.0
C805 C 0.77345 0.97866 0.68495 0.0
C806 C 0.66503 0.15239 0.6691 0.0
C807 C 0.67346 0.15181 0.6534 0.0
C808 C 0.6932 0.12555 0.67872 0.0
C809 C 0.73009 0.0979 0.67269 0.0
C810 C 0.74089 0.10111 0.65713 0.0
C811 C 0.71252 0.12753 0.64756 0.0
H812 H 0.76537 0.35076 0.97688 0.0
H813 H 0.77133 0.47654 0.9499 0.0
H814 H 0.83415 0.31982 0.96334 0.0
H815 H 0.84086 0.44644 0.93703 0.0
H816 H 0.98275 0.39773 0.92267 0.0
H817 H 0.92628 0.4234 0.94202 0.0
H818 H 0.84829 0.29426 0.93549 0.0
H819 H 0.90424 0.26868 0.91602 0.0
C820 C 0.78126 0.37197 0.96815 0.0
C821 C 0.7624 0.41627 0.96452 0.0
C822 C 0.82092 0.35433 0.96051 0.0
C823 C 0.84312 0.3809 0.94925 0.0
C824 C 0.82512 0.42555 0.94589 0.0
C825 C 0.78515 0.44286 0.95333 0.0
C826 C 0.9544 0.37413 0.92566 0.0
C827 C 0.94773 0.33138 0.91764 0.0
C828 C 0.92187 0.38904 0.93667 0.0
C829 C 0.8825 0.36118 0.94006 0.0
C830 C 0.87828 0.31649 0.93311 0.0
C831 C 0.91039 0.30187 0.92194 0.0
H832 H 0.91368 0.39833 0.20452 0.0
H833 H 0.7763 0.41101 0.18391 0.0
H834 H 0.94517 0.45497 0.18665 0.0
H835 H 0.80812 0.46713 0.16578 0.0
H836 H 0.87528 0.60781 0.15002 0.0
H837 H 0.84075 0.54861 0.16632 0.0
H838 H 0.96153 0.45903 0.15881 0.0
H839 H 0.99653 0.51844 0.14257 0.0
C840 C 0.89014 0.41355 0.19625 0.0
C841 C 0.84247 0.4005 0.19566 0.0
C842 C 0.90832 0.44544 0.18588 0.0
C843 C 0.87917 0.46514 0.17476 0.0
C844 C 0.83134 0.45257 0.17427 0.0
C845 C 0.81321 0.42036 0.18459 0.0
C846 C 0.89437 0.57534 0.15172 0.0
C847 C 0.93885 0.568 0.14507 0.0
C848 C 0.87441 0.54135 0.161 0.0
C849 C 0.89863 0.49943 0.16392 0.0
C850 C 0.9424 0.49136 0.15691 0.0
C851 C 0.96224 0.52523 0.14752 0.0
H852 H 0.88465 0.49496 0.45593 0.0
H853 H 0.96733 0.61626 0.44354 0.0
H854 H 0.82887 0.51245 0.43592 0.0
H855 H 0.90914 0.63639 0.42462 0.0
H856 H 0.81636 0.64541 0.38341 0.0
H857 H 0.87696 0.6182 0.40089 0.0
H858 H 0.76878 0.56402 0.43049 0.0
H859 H 0.70911 0.58852 0.41269 0.0
C860 C 0.89096 0.52547 0.44901 0.0
C861 C 0.93056 0.55426 0.45149 0.0
C862 C 0.85847 0.53595 0.43763 0.0
C863 C 0.86414 0.57608 0.42864 0.0
C864 C 0.90378 0.60481 0.43112 0.0
C865 C 0.93676 0.59379 0.44227 0.0
C866 C 0.80579 0.6271 0.39357 0.0
C867 C 0.75804 0.61903 0.39665 0.0
C868 C 0.84043 0.61183 0.40367 0.0
C869 C 0.82792 0.58906 0.41721 0.0
C870 C 0.78006 0.58047 0.42009 0.0
C871 C 0.74566 0.59483 0.40988 0.0
H872 H 0.6669 0.5778 0.72223 0.0
H873 H 0.80804 0.54467 0.7073 0.0
H874 H 0.63761 0.50728 0.70914 0.0
H875 H 0.77855 0.47528 0.69373 0.0
H876 H 0.72072 0.34135 0.67507 0.0
H877 H 0.74277 0.39745 0.69522 0.0
H878 H 0.627 0.48715 0.68253 0.0
H879 H 0.60477 0.43132 0.66266 0.0
C880 C 0.69179 0.55514 0.71634 0.0
C881 C 0.73977 0.56714 0.71568 0.0
C882 C 0.67494 0.5149 0.70874 0.0
C883 C 0.70566 0.48571 0.70032 0.0
C884 C 0.75394 0.49663 0.70023 0.0
C885 C 0.77078 0.53685 0.70782 0.0
C886 C 0.6992 0.37239 0.67687 0.0
C887 C 0.6613 0.38206 0.66711 0.0
C888 C 0.71209 0.40474 0.68833 0.0
C889 C 0.68714 0.44716 0.69033 0.0
C890 C 0.64693 0.4548 0.68139 0.0
C891 C 0.63422 0.4227 0.66992 0.0
H892 H 0.73063 0.67066 0.0314 0.0
H893 H 0.7964 0.53332 0.03021 0.0
H894 H 0.79942 0.70322 0.04375 0.0
H895 H 0.86245 0.56472 0.04439 0.0
H896 H 0.98406 0.62666 0.06852 0.0
H897 H 0.92956 0.6085 0.04777 0.0
H898 H 0.82852 0.70549 0.06767 0.0
H899 H 0.88364 0.72566 0.08746 0.0
C900 C 0.75966 0.64719 0.03365 0.0
C901 C 0.75699 0.59885 0.02995 0.0
C902 C 0.7991 0.6659 0.04107 0.0
C903 C 0.83642 0.63663 0.04554 0.0
C904 C 0.83482 0.58876 0.04117 0.0
C905 C 0.79602 0.57034 0.03331 0.0
C906 C 0.95063 0.6449 0.06817 0.0
C907 C 0.93795 0.67692 0.07983 0.0
C908 C 0.91906 0.63414 0.05636 0.0
C909 C 0.87383 0.65454 0.05611 0.0
C910 C 0.86286 0.68911 0.06721 0.0
C911 C 0.89462 0.70048 0.07877 0.0
H912 H 0.63784 0.4119 0.27261 0.0
H913 H 0.78276 0.43634 0.28535 0.0
H914 H 0.61452 0.48279 0.28687 0.0
H915 H 0.75943 0.50619 0.2999 0.0
H916 H 0.71061 0.64244 0.32003 0.0
H917 H 0.72652 0.58636 0.29925 0.0
H918 H 0.61153 0.49937 0.31433 0.0
H919 H 0.59542 0.555 0.33488 0.0
C920 C 0.66476 0.43278 0.27827 0.0
C921 C 0.71203 0.41827 0.27805 0.0
C922 C 0.6514 0.47318 0.28649 0.0
C923 C 0.68511 0.49995 0.29456 0.0
C924 C 0.73266 0.48666 0.29368 0.0
C925 C 0.74595 0.44624 0.28554 0.0
C926 C 0.68817 0.61182 0.31872 0.0
C927 C 0.65217 0.60294 0.32926 0.0
C928 C 0.6974 0.57964 0.30686 0.0
C929 C 0.67058 0.53822 0.30525 0.0
C930 C 0.63267 0.53103 0.31517 0.0
C931 C 0.62371 0.56287 0.32706 0.0
H932 H 0.95156 0.49018 0.55762 0.0
H933 H 0.93246 0.35095 0.53796 0.0
H934 H 0.89816 0.47062 0.57826 0.0
H935 H 0.87958 0.33126 0.55878 0.0
H936 H 0.81757 0.2981 0.60476 0.0
H937 H 0.8798 0.31988 0.58709 0.0
H938 H 0.81231 0.45401 0.58025 0.0
H939 H 0.75035 0.43263 0.59795 0.0
C940 C 0.93569 0.45553 0.55763 0.0
C941 C 0.94585 0.42226 0.54606 0.0
C942 C 0.90539 0.44428 0.56951 0.0
C943 C 0.88488 0.39944 0.57013 0.0
C944 C 0.89552 0.36589 0.55871 0.0
C945 C 0.92566 0.37721 0.54677 0.0
C946 C 0.81649 0.33262 0.59973 0.0
C947 C 0.7788 0.3635 0.60266 0.0
C948 C 0.8519 0.34486 0.58952 0.0
C949 C 0.85052 0.38837 0.58219 0.0
C950 C 0.81435 0.4203 0.58578 0.0
C951 C 0.77877 0.40795 0.59588 0.0
H952 H 0.84617 0.54581 0.78803 0.0
H953 H 0.88509 0.66242 0.81763 0.0
H954 H 0.87306 0.49076 0.80721 0.0
H955 H 0.91122 0.60732 0.83695 0.0
H956 H 0.00832 0.48782 0.85618 0.0
H957 H 0.97649 0.54816 0.83959 0.0
H958 H 0.8499 0.46599 0.83327 0.0
H959 H 0.88139 0.40571 0.84968 0.0
C960 C 0.86035 0.55958 0.79866 0.0
C961 C 0.86346 0.60826 0.80138 0.0
C962 C 0.87532 0.52817 0.80968 0.0
C963 C 0.89398 0.54488 0.82358 0.0
C964 C 0.89711 0.59357 0.82631 0.0
C965 C 0.8818 0.62499 0.81533 0.0
C966 C 0.97339 0.483 0.85146 0.0
C967 C 0.94771 0.44164 0.85409 0.0
C968 C 0.95517 0.51757 0.84199 0.0
C969 C 0.91107 0.51128 0.83499 0.0
C970 C 0.88439 0.47122 0.83828 0.0
C971 C 0.90244 0.43683 0.84776 0.0
H972 H 0.33192 0.48736 0.05006 0.0
H973 H 0.3161 0.61903 0.02671 0.0
H974 H 0.26465 0.50702 0.06606 0.0
H975 H 0.25032 0.63973 0.04326 0.0
H976 H 0.12672 0.66844 0.07239 0.0
H977 H 0.17019 0.62576 0.05234 0.0
H978 H 0.25814 0.5631 0.08667 0.0
H979 H 0.21469 0.60512 0.10639 0.0
C980 C 0.31368 0.52017 0.04814 0.0
C981 C 0.32994 0.55189 0.0372 0.0
C982 C 0.27525 0.5316 0.05742 0.0
C983 C 0.25225 0.57513 0.05606 0.0
C984 C 0.26684 0.6057 0.04455 0.0
C985 C 0.30517 0.59419 0.03523 0.0
C986 C 0.15396 0.64383 0.07558 0.0
C987 C 0.16756 0.63996 0.09086 0.0
C988 C 0.17929 0.61993 0.06413 0.0
C989 C 0.21817 0.59156 0.06787 0.0
C990 C 0.22833 0.58427 0.08331 0.0
C991 C 0.20343 0.60838 0.09466 0.0
H992 H 0.19488 0.48564 0.77645 0.0
H993 H 0.32716 0.50423 0.80014 0.0
H994 H 0.17441 0.42195 0.79333 0.0
H995 H 0.30596 0.44084 0.81728 0.0
H996 H 0.20123 0.3985 0.85676 0.0
H997 H 0.2439 0.44044 0.83722 0.0
H998 H 0.19318 0.34122 0.80318 0.0
H999 H 0.1504 0.29874 0.823 0.0
C1000 C 0.22017 0.47546 0.78501 0.0
C1001 C 0.26248 0.50055 0.78702 0.0
C1002 C 0.20842 0.43874 0.79467 0.0
C1003 C 0.23853 0.42643 0.80665 0.0
C1004 C 0.28189 0.44985 0.80822 0.0
C1005 C 0.29381 0.4864 0.79848 0.0
C1006 C 0.20045 0.38477 0.84517 0.0
C1007 C 0.17237 0.34571 0.84132 0.0
C1008 C 0.22505 0.40867 0.83398 0.0
C1009 C 0.22152 0.39441 0.81864 0.0
C1010 C 0.19619 0.35316 0.81492 0.0
C1011 C 0.17207 0.32867 0.82623 0.0
H1012 H 0.31875 0.47354 0.55263 0.0
H1013 H 0.35565 0.36164 0.52098 0.0
H1014 H 0.37774 0.44588 0.5704 0.0
H1015 H 0.41578 0.33426 0.53868 0.0
H1016 H 0.48345 0.27085 0.58129 0.0
H1017 H 0.42477 0.29703 0.56294 0.0
H1018 H 0.4606 0.44172 0.57355 0.0
H1019 H 0.51718 0.41577 0.59224 0.0
C1020 C 0.34015 0.44349 0.54937 0.0
C1021 C 0.33293 0.41998 0.53538 0.0
C1022 C 0.37397 0.42758 0.55955 0.0
C1023 C 0.40169 0.38797 0.55594 0.0
C1024 C 0.39462 0.36452 0.54189 0.0
C1025 C 0.36043 0.38029 0.53172 0.0
C1026 C 0.47814 0.30816 0.57986 0.0
C1027 C 0.50439 0.34108 0.58844 0.0
C1028 C 0.44504 0.3232 0.5692 0.0
C1029 C 0.43771 0.37149 0.56687 0.0
C1030 C 0.4646 0.40429 0.57528 0.0
C1031 C 0.49737 0.38931 0.58594 0.0
H1032 H 0.49383 0.51894 0.26657 0.0
H1033 H 0.37813 0.47303 0.29443 0.0
H1034 H 0.51201 0.58088 0.28526 0.0
H1035 H 0.39714 0.53339 0.31343 0.0
H1036 H 0.41521 0.67249 0.33845 0.0
H1037 H 0.39549 0.6145 0.31877 0.0
H1038 H 0.54349 0.59358 0.30954 0.0
H1039 H 0.5628 0.65347 0.32863 0.0
C1040 C 0.47248 0.52207 0.27675 0.0
C1041 C 0.43443 0.49153 0.27903 0.0
C1042 C 0.48298 0.55732 0.28752 0.0
C1043 C 0.45606 0.56227 0.30091 0.0
C1044 C 0.41804 0.53143 0.30313 0.0
C1045 C 0.40719 0.49669 0.29228 0.0
C1046 C 0.44354 0.65543 0.33223 0.0
C1047 C 0.49073 0.66685 0.33534 0.0
C1048 C 0.43226 0.62188 0.321 0.0
C1049 C 0.46792 0.5988 0.31264 0.0
C1050 C 0.51507 0.61062 0.31569 0.0
C1051 C 0.52628 0.64436 0.32685 0.0
H1052 H 0.28995 0.45898 0.96822 0.0
H1053 H 0.39115 0.39119 0.93846 0.0
H1054 H 0.22659 0.43773 0.9503 0.0
H1055 H 0.32848 0.36973 0.92084 0.0
H1056 H 0.13763 0.3198 0.92103 0.0
H1057 H 0.18793 0.3604 0.93988 0.0
H1058 H 0.2742 0.41333 0.90351 0.0
H1059 H 0.22492 0.37213 0.8849 0.0
C1060 C 0.29857 0.43964 0.95787 0.0
C1061 C 0.34538 0.42654 0.95473 0.0
C1062 C 0.26241 0.42742 0.94768 0.0
C1063 C 0.27278 0.40271 0.93412 0.0
C1064 C 0.31956 0.38958 0.93108 0.0
C1065 C 0.35539 0.40129 0.94126 0.0
C1066 C 0.16626 0.3417 0.91714 0.0
C1067 C 0.178 0.34261 0.90163 0.0
C1068 C 0.19508 0.36475 0.92787 0.0
C1069 C 0.23556 0.38894 0.92312 0.0
C1070 C 0.24383 0.39402 0.90748 0.0
C1071 C 0.2155 0.37079 0.89684 0.0
H1072 H 0.3286 0.48383 0.6953 0.0
H1073 H 0.46696 0.52568 0.71081 0.0
H1074 H 0.36339 0.42296 0.67917 0.0
H1075 H 0.50205 0.46322 0.69492 0.0
H1076 H 0.54108 0.38462 0.64891 0.0
H1077 H 0.51305 0.44413 0.66732 0.0
H1078 H 0.40379 0.34872 0.68158 0.0
H1079 H 0.43129 0.2902 0.66322 0.0
C1080 C 0.3665 0.47975 0.69532 0.0
C1081 C 0.39508 0.50955 0.70425 0.0
C1082 C 0.38644 0.4446 0.68619 0.0
C1083 C 0.43547 0.43821 0.68583 0.0
C1084 C 0.46418 0.46758 0.69491 0.0
C1085 C 0.44411 0.50289 0.70411 0.0
C1086 C 0.51164 0.37636 0.65618 0.0
C1087 C 0.4882 0.3331 0.65458 0.0
C1088 C 0.49558 0.41027 0.6667 0.0
C1089 C 0.45591 0.4012 0.67577 0.0
C1090 C 0.43379 0.35715 0.67453 0.0
C1091 C 0.44956 0.32363 0.664 0.0
H1092 H 0.34586 0.64275 0.47171 0.0
H1093 H 0.28612 0.56057 0.43469 0.0
H1094 H 0.40415 0.67554 0.45418 0.0
H1095 H 0.34363 0.59401 0.41715 0.0
H1096 H 0.43189 0.70106 0.3893 0.0
H1097 H 0.36857 0.6818 0.40727 0.0
H1098 H 0.47144 0.62649 0.4384 0.0
H1099 H 0.53417 0.64426 0.42032 0.0
C1100 C 0.34502 0.63221 0.4598 0.0
C1101 C 0.31215 0.59891 0.4545 0.0
C1102 C 0.3781 0.65091 0.44983 0.0
C1103 C 0.37791 0.63731 0.43439 0.0
C1104 C 0.34399 0.60526 0.429 0.0
C1105 C 0.31158 0.58587 0.43902 0.0
C1106 C 0.4407 0.68527 0.40007 0.0
C1107 C 0.48744 0.67392 0.40354 0.0
C1108 C 0.40474 0.67422 0.41026 0.0
C1109 C 0.41551 0.65301 0.42416 0.0
C1110 C 0.46252 0.64333 0.42781 0.0
C1111 C 0.49817 0.65318 0.41748 0.0
H1112 H 0.34718 0.49854 0.18125 0.0
H1113 H 0.2468 0.51215 0.21792 0.0
H1114 H 0.30814 0.56269 0.16792 0.0
H1115 H 0.20823 0.57646 0.20475 0.0
H1116 H 0.11112 0.60085 0.16275 0.0
H1117 H 0.16152 0.56257 0.18103 0.0
H1118 H 0.27853 0.64894 0.16712 0.0
H1119 H 0.22692 0.6882 0.14864 0.0
C1120 C 0.31771 0.51627 0.18666 0.0
C1121 C 0.29922 0.49984 0.20041 0.0
C1122 C 0.29556 0.55312 0.17909 0.0
C1123 C 0.2548 0.57402 0.18522 0.0
C1124 C 0.23918 0.56044 0.19967 0.0
C1125 C 0.26107 0.52357 0.20716 0.0
C1126 C 0.14738 0.61233 0.16378 0.0
C1127 C 0.16536 0.64716 0.1543 0.0
C1128 C 0.17618 0.5907 0.17435 0.0
C1129 C 0.22391 0.60293 0.17555 0.0
C1130 C 0.24178 0.639 0.1664 0.0
C1131 C 0.2124 0.66149 0.15594 0.0
loop_
_geom_bond_atom_site_label_1
_geom_bond_atom_site_label_2
_geom_bond_distance
_geom_bond_site_symmetry_2
_ccdc_geom_bond_type
C0 C1 1.384 . S
C0 C2 1.384 . S
C0 H28 0.931 1_565 S
C1 C0 1.384 . S
C1 C4 1.382 . S
C2 C0 1.384 . S
C2 C3 1.381 . S
C2 H29 0.930 1_565 S
C3 C2 1.381 . S
C3 C5 1.381 . S
C3 C6 1.487 . S
C4 C1 1.382 . S
C4 C5 1.387 . S
C4 H30 0.930 . S
C5 C3 1.381 . S
C5 C4 1.387 . S
C5 H31 0.931 . S
C6 C3 1.487 . S
C6 C13 1.399 1_565 S
C6 N44 1.343 . S
C7 C8 1.384 . S
C7 C9 1.384 . S
C7 H32 0.931 1_545 S
C8 C7 1.384 . S
C8 C11 1.382 . S
C9 C7 1.384 . S
C9 C10 1.381 . S
C9 H33 0.930 1_545 S
C10 C9 1.381 . S
C10 C12 1.381 . S
C10 C13 1.487 . S
C11 C8 1.382 . S
C11 C12 1.387 . S
C11 H34 0.930 . S
C12 C10 1.381 . S
C12 C11 1.387 . S
C12 H35 0.931 . S
C13 C6 1.399 1_545 S
C13 C10 1.487 . S
C13 N45 1.343 . S
C14 C15 1.384 . S
C14 C16 1.384 . S
C14 H36 0.931 1_545 S
C15 C14 1.384 . S
C15 C18 1.382 . S
C16 C14 1.384 . S
C16 C17 1.381 . S
C16 H37 0.930 1_545 S
C17 C16 1.381 . S
C17 C19 1.381 . S
C17 C20 1.487 . S
C18 C15 1.382 . S
C18 C19 1.387 . S
C18 H38 0.930 . S
C19 C17 1.381 . S
C19 C18 1.387 . S
C19 H39 0.931 . S
C20 C17 1.487 . S
C20 C27 1.399 1_545 S
C20 N45 1.343 1_655 S
C21 C22 1.384 . S
C21 C23 1.384 . S
C21 H40 0.931 1_565 S
C22 C21 1.384 . S
C22 C25 1.382 . S
C23 C21 1.384 . S
C23 C24 1.381 . S
C23 H41 0.930 1_565 S
C24 C23 1.381 . S
C24 C26 1.381 . S
C24 C27 1.487 . S
C25 C22 1.382 . S
C25 C26 1.387 . S
C25 H42 0.930 . S
C26 C24 1.381 . S
C26 C25 1.387 . S
C26 H43 0.931 . S
C27 C20 1.399 1_565 S
C27 C24 1.487 . S
C27 N44 1.343 1_655 S
H28 C0 0.931 1_545 S
H29 C2 0.930 1_545 S
H30 C4 0.930 . S
H31 C5 0.931 . S
H32 C7 0.931 1_565 S
H33 C9 0.930 1_565 S
H34 C11 0.930 . S
H35 C12 0.931 . S
H36 C14 0.931 1_565 S
H37 C16 0.930 1_565 S
H38 C18 0.930 . S
H39 C19 0.931 . S
H40 C21 0.931 1_545 S
H41 C23 0.930 1_545 S
H42 C25 0.930 . S
H43 C26 0.931 . S
N44 C6 1.343 . S
N44 C27 1.343 1_455 S
N45 C13 1.343 . S
N45 C20 1.343 1_455 S
C46 C47 1.384 . S
C46 C48 1.384 . S
C46 H74 0.931 . S
C47 C46 1.384 . S
C47 C50 1.382 . S
C48 C46 1.384 . S
C48 C49 1.381 . S
C48 H75 0.930 . S
C49 C48 1.381 . S
C49 C51 1.381 . S
C49 C52 1.487 . S
C50 C47 1.382 . S
C50 C51 1.387 . S
C50 H76 0.930 . S
C51 C49 1.381 . S
C51 C50 1.387 . S
C51 H77 0.931 . S
C52 C49 1.487 . S
C52 C59 1.399 . S
C52 N90 1.343 . S
C53 C54 1.384 . S
C53 C55 1.384 . S
C53 H78 0.931 . S
C54 C53 1.384 . S
C54 C57 1.382 . S
C55 C53 1.384 . S
C55 C56 1.381 . S
C55 H79 0.930 . S
C56 C55 1.381 . S
C56 C58 1.381 . S
C56 C59 1.487 . S
C57 C54 1.382 . S
C57 C58 1.387 . S
C57 H80 0.930 . S
C58 C56 1.381 . S
C58 C57 1.387 . S
C58 H81 0.931 . S
C59 C52 1.399 . S
C59 C56 1.487 . S
C59 N91 1.343 . S
C60 C61 1.384 . S
C60 C62 1.384 . S
C60 H82 0.931 . S
C61 C60 1.384 . S
C61 C64 1.382 . S
C62 C60 1.384 . S
C62 C63 1.381 . S
C62 H83 0.930 . S
C63 C62 1.381 . S
C63 C65 1.381 . S
C63 C66 1.487 . S
C64 C61 1.382 . S
C64 C65 1.387 . S
C64 H84 0.930 . S
C65 C63 1.381 . S
C65 C64 1.387 . S
C65 H85 0.931 . S
C66 C63 1.487 . S
C66 C73 1.399 . S
C66 N91 1.343 . S
C67 C68 1.384 . S
C67 C69 1.384 . S
C67 H86 0.931 . S
C68 C67 1.384 . S
C68 C71 1.382 . S
C69 C67 1.384 . S
C69 C70 1.381 . S
C69 H87 0.930 . S
C70 C69 1.381 . S
C70 C72 1.381 . S
C70 C73 1.487 . S
C71 C68 1.382 . S
C71 C72 1.387 . S
C71 H88 0.930 . S
C72 C70 1.381 . S
C72 C71 1.387 . S
C72 H89 0.931 . S
C73 C66 1.399 . S
C73 C70 1.487 . S
C73 N90 1.343 . S
H74 C46 0.931 . S
H75 C48 0.930 . S
H76 C50 0.930 . S
H77 C51 0.931 . S
H78 C53 0.931 . S
H79 C55 0.930 . S
H80 C57 0.930 . S
H81 C58 0.931 . S
H82 C60 0.931 . S
H83 C62 0.930 . S
H84 C64 0.930 . S
H85 C65 0.931 . S
H86 C67 0.931 . S
H87 C69 0.930 . S
H88 C71 0.930 . S
H89 C72 0.931 . S
N90 C52 1.343 . S
N90 C73 1.343 . S
N91 C59 1.343 . S
N91 C66 1.343 . S
C92 C93 1.384 . S
C92 C94 1.384 . S
C92 H120 0.931 1_545 S
C93 C92 1.384 . S
C93 C96 1.382 . S
C94 C92 1.384 . S
C94 C95 1.381 . S
C94 H121 0.930 1_545 S
C95 C94 1.381 . S
C95 C97 1.381 . S
C95 C98 1.487 . S
C96 C93 1.382 . S
C96 C97 1.387 . S
C96 H122 0.930 . S
C97 C95 1.381 . S
C97 C96 1.387 . S
C97 H123 0.931 . S
C98 C95 1.487 . S
C98 C105 1.399 1_546 S
C98 N136 1.343 . S
C99 C100 1.384 . S
C99 C101 1.384 . S
C99 H124 0.931 1_565 S
C100 C99 1.384 . S
C100 C103 1.382 . S
C101 C99 1.384 . S
C101 C102 1.381 . S
C101 H125 0.930 1_565 S
C102 C101 1.381 . S
C102 C104 1.381 . S
C102 C105 1.487 . S
C103 C100 1.382 . S
C103 C104 1.387 . S
C103 H126 0.930 . S
C104 C102 1.381 . S
C104 C103 1.387 . S
C104 H127 0.931 . S
C105 C98 1.399 1_564 S
C105 C102 1.487 . S
C105 N137 1.343 . S
C106 C107 1.384 . S
C106 C108 1.384 . S
C106 H128 0.931 1_565 S
C107 C106 1.384 . S
C107 C110 1.382 . S
C108 C106 1.384 . S
C108 C109 1.381 . S
C108 H129 0.930 1_565 S
C109 C108 1.381 . S
C109 C111 1.381 . S
C109 C112 1.487 . S
C110 C107 1.382 . S
C110 C111 1.387 . S
C110 H130 0.930 . S
C111 C109 1.381 . S
C111 C110 1.387 . S
C111 H131 0.931 . S
C112 C109 1.487 . S
C112 C119 1.399 1_564 S
C112 N137 1.343 . S
C113 C114 1.384 . S
C113 C115 1.384 . S
C113 H132 0.931 1_545 S
C114 C113 1.384 . S
C114 C117 1.382 . S
C115 C113 1.384 . S
C115 C116 1.381 . S
C115 H133 0.930 1_545 S
C116 C115 1.381 . S
C116 C118 1.381 . S
C116 C119 1.487 . S
C117 C114 1.382 . S
C117 C118 1.387 . S
C117 H134 0.930 . S
C118 C116 1.381 . S
C118 C117 1.387 . S
C118 H135 0.931 . S
C119 C112 1.399 1_546 S
C119 C116 1.487 . S
C119 N136 1.343 . S
H120 C92 0.931 1_565 S
H121 C94 0.930 1_565 S
H122 C96 0.930 . S
H123 C97 0.931 . S
H124 C99 0.931 1_545 S
H125 C101 0.930 1_545 S
H126 C103 0.930 . S
H127 C104 0.931 . S
H128 C106 0.931 1_545 S
H129 C108 0.930 1_545 S
H130 C110 0.930 . S
H131 C111 0.931 . S
H132 C113 0.931 1_565 S
H133 C115 0.930 1_565 S
H134 C117 0.930 . S
H135 C118 0.931 . S
N136 C98 1.343 . S
N136 C119 1.343 . S
N137 C105 1.343 . S
N137 C112 1.343 . S
C138 C139 1.384 . S
C138 C140 1.384 . S
C138 H166 0.931 . S
C139 C138 1.384 . S
C139 C142 1.382 . S
C140 C138 1.384 . S
C140 C141 1.381 . S
C140 H167 0.930 . S
C141 C140 1.381 . S
C141 C143 1.381 . S
C141 C144 1.487 . S
C142 C139 1.382 . S
C142 C143 1.387 . S
C142 H168 0.930 . S
C143 C141 1.381 . S
C143 C142 1.387 . S
C143 H169 0.931 . S
C144 C141 1.487 . S
C144 C151 1.399 . S
C144 N182 1.343 . S
C145 C146 1.384 . S
C145 C147 1.384 . S
C145 H170 0.931 . S
C146 C145 1.384 . S
C146 C149 1.382 . S
C147 C145 1.384 . S
C147 C148 1.381 . S
C147 H171 0.930 . S
C148 C147 1.381 . S
C148 C150 1.381 . S
C148 C151 1.487 . S
C149 C146 1.382 . S
C149 C150 1.387 . S
C149 H172 0.930 . S
C150 C148 1.381 . S
C150 C149 1.387 . S
C150 H173 0.931 . S
C151 C144 1.399 . S
C151 C148 1.487 . S
C151 N183 1.343 . S
C152 C153 1.384 . S
C152 C154 1.384 . S
C152 H174 0.931 . S
C153 C152 1.384 . S
C153 C156 1.382 . S
C154 C152 1.384 . S
C154 C155 1.381 . S
C154 H175 0.930 . S
C155 C154 1.381 . S
C155 C157 1.381 . S
C155 C158 1.487 . S
C156 C153 1.382 . S
C156 C157 1.387 . S
C156 H176 0.930 . S
C157 C155 1.381 . S
C157 C156 1.387 . S
C157 H177 0.931 . S
C158 C155 1.487 . S
C158 C165 1.399 . S
C158 N183 1.343 . S
C159 C160 1.384 . S
C159 C161 1.384 . S
C159 H178 0.931 . S
C160 C159 1.384 . S
C160 C163 1.382 . S
C161 C159 1.384 . S
C161 C162 1.381 . S
C161 H179 0.930 . S
C162 C161 1.381 . S
C162 C164 1.381 . S
C162 C165 1.487 . S
C163 C160 1.382 . S
C163 C164 1.387 . S
C163 H180 0.930 . S
C164 C162 1.381 . S
C164 C163 1.387 . S
C164 H181 0.931 . S
C165 C158 1.399 . S
C165 C162 1.487 . S
C165 N182 1.343 . S
H166 C138 0.931 . S
H167 C140 0.930 . S
H168 C142 0.930 . S
H169 C143 0.931 . S
H170 C145 0.931 . S
H171 C147 0.930 . S
H172 C149 0.930 . S
H173 C150 0.931 . S
H174 C152 0.931 . S
H175 C154 0.930 . S
H176 C156 0.930 . S
H177 C157 0.931 . S
H178 C159 0.931 . S
H179 C161 0.930 . S
H180 C163 0.930 . S
H181 C164 0.931 . S
N182 C144 1.343 . S
N182 C165 1.343 . S
N183 C151 1.343 . S
N183 C158 1.343 . S
C184 C185 1.384 . S
C184 C186 1.384 . S
C184 H212 0.931 . S
C185 C184 1.384 . S
C185 C188 1.382 . S
C186 C184 1.384 . S
C186 C187 1.381 . S
C186 H213 0.930 . S
C187 C186 1.381 . S
C187 C189 1.381 . S
C187 C190 1.487 . S
C188 C185 1.382 . S
C188 C189 1.387 . S
C188 H214 0.930 . S
C189 C187 1.381 . S
C189 C188 1.387 . S
C189 H215 0.931 . S
C190 C187 1.487 . S
C190 C197 1.399 . S
C190 N228 1.343 . S
C191 C192 1.384 . S
C191 C193 1.384 . S
C191 H216 0.931 . S
C192 C191 1.384 . S
C192 C195 1.382 . S
C193 C191 1.384 . S
C193 C194 1.381 . S
C193 H217 0.930 . S
C194 C193 1.381 . S
C194 C196 1.381 . S
C194 C197 1.487 . S
C195 C192 1.382 . S
C195 C196 1.387 . S
C195 H218 0.930 . S
C196 C194 1.381 . S
C196 C195 1.387 . S
C196 H219 0.931 . S
C197 C190 1.399 . S
C197 C194 1.487 . S
C197 N229 1.343 . S
C198 C199 1.384 . S
C198 C200 1.384 . S
C198 H220 0.931 . S
C199 C198 1.384 . S
C199 C202 1.382 . S
C200 C198 1.384 . S
C200 C201 1.381 . S
C200 H221 0.930 . S
C201 C200 1.381 . S
C201 C203 1.381 . S
C201 C204 1.487 . S
C202 C199 1.382 . S
C202 C203 1.387 . S
C202 H222 0.930 . S
C203 C201 1.381 . S
C203 C202 1.387 . S
C203 H223 0.931 . S
C204 C201 1.487 . S
C204 C211 1.399 . S
C204 N229 1.343 . S
C205 C206 1.384 . S
C205 C207 1.384 . S
C205 H224 0.931 . S
C206 C205 1.384 . S
C206 C209 1.382 . S
C207 C205 1.384 . S
C207 C208 1.381 . S
C207 H225 0.930 . S
C208 C207 1.381 . S
C208 C210 1.381 . S
C208 C211 1.487 . S
C209 C206 1.382 . S
C209 C210 1.387 . S
C209 H226 0.930 . S
C210 C208 1.381 . S
C210 C209 1.387 . S
C210 H227 0.931 . S
C211 C204 1.399 . S
C211 C208 1.487 . S
C211 N228 1.343 . S
H212 C184 0.931 . S
H213 C186 0.930 . S
H214 C188 0.930 . S
H215 C189 0.931 . S
H216 C191 0.931 . S
H217 C193 0.930 . S
H218 C195 0.930 . S
H219 C196 0.931 . S
H220 C198 0.931 . S
H221 C200 0.930 . S
H222 C202 0.930 . S
H223 C203 0.931 . S
H224 C205 0.931 . S
H225 C207 0.930 . S
H226 C209 0.930 . S
H227 C210 0.931 . S
N228 C190 1.343 . S
N228 C211 1.343 . S
N229 C197 1.343 . S
N229 C204 1.343 . S
C230 C231 1.384 . S
C230 C232 1.384 . S
C230 H258 0.931 . S
C231 C230 1.384 . S
C231 C234 1.382 . S
C232 C230 1.384 . S
C232 C233 1.381 . S
C232 H259 0.930 . S
C233 C232 1.381 . S
C233 C235 1.381 . S
C233 C236 1.487 . S
C234 C231 1.382 . S
C234 C235 1.387 . S
C234 H260 0.930 . S
C235 C233 1.381 . S
C235 C234 1.387 . S
C235 H261 0.931 . S
C236 C233 1.487 . S
C236 C243 1.399 . S
C236 N274 1.343 . S
C237 C238 1.384 . S
C237 C239 1.384 . S
C237 H262 0.931 . S
C238 C237 1.384 . S
C238 C241 1.382 . S
C239 C237 1.384 . S
C239 C240 1.381 . S
C239 H263 0.930 . S
C240 C239 1.381 . S
C240 C242 1.381 . S
C240 C243 1.487 . S
C241 C238 1.382 . S
C241 C242 1.387 . S
C241 H264 0.930 . S
C242 C240 1.381 . S
C242 C241 1.387 . S
C242 H265 0.931 . S
C243 C236 1.399 . S
C243 C240 1.487 . S
C243 N275 1.343 . S
C244 C245 1.384 . S
C244 C246 1.384 . S
C244 H266 0.931 . S
C245 C244 1.384 . S
C245 C248 1.382 . S
C246 C244 1.384 . S
C246 C247 1.381 . S
C246 H267 0.930 . S
C247 C246 1.381 . S
C247 C249 1.381 . S
C247 C250 1.487 . S
C248 C245 1.382 . S
C248 C249 1.387 . S
C248 H268 0.930 . S
C249 C247 1.381 . S
C249 C248 1.387 . S
C249 H269 0.931 . S
C250 C247 1.487 . S
C250 C257 1.399 . S
C250 N275 1.343 . S
C251 C252 1.384 . S
C251 C253 1.384 . S
C251 H270 0.931 . S
C252 C251 1.384 . S
C252 C255 1.382 . S
C253 C251 1.384 . S
C253 C254 1.381 . S
C253 H271 0.930 . S
C254 C253 1.381 . S
C254 C256 1.381 . S
C254 C257 1.487 . S
C255 C252 1.382 . S
C255 C256 1.387 . S
C255 H272 0.930 . S
C256 C254 1.381 . S
C256 C255 1.387 . S
C256 H273 0.931 . S
C257 C250 1.399 . S
C257 C254 1.487 . S
C257 N274 1.343 . S
H258 C230 0.931 . S
H259 C232 0.930 . S
H260 C234 0.930 . S
H261 C235 0.931 . S
H262 C237 0.931 . S
H263 C239 0.930 . S
H264 C241 0.930 . S
H265 C242 0.931 . S
H266 C244 0.931 . S
H267 C246 0.930 . S
H268 C248 0.930 . S
H269 C249 0.931 . S
H270 C251 0.931 . S
H271 C253 0.930 . S
H272 C255 0.930 . S
H273 C256 0.931 . S
N274 C236 1.343 . S
N274 C257 1.343 . S
N275 C243 1.343 . S
N275 C250 1.343 . S
C276 C277 1.384 . S
C276 C278 1.384 . S
C276 H304 0.931 . S
C277 C276 1.384 . S
C277 C280 1.382 . S
C278 C276 1.384 . S
C278 C279 1.381 . S
C278 H305 0.930 . S
C279 C278 1.381 . S
C279 C281 1.381 . S
C279 C282 1.487 . S
C280 C277 1.382 . S
C280 C281 1.387 . S
C280 H306 0.930 . S
C281 C279 1.381 . S
C281 C280 1.387 . S
C281 H307 0.931 . S
C282 C279 1.487 . S
C282 C289 1.399 1_556 S
C282 N320 1.343 . S
C283 C284 1.384 . S
C283 C285 1.384 . S
C283 H308 0.931 . S
C284 C283 1.384 . S
C284 C287 1.382 . S
C285 C283 1.384 . S
C285 C286 1.381 . S
C285 H309 0.930 . S
C286 C285 1.381 . S
C286 C288 1.381 . S
C286 C289 1.487 . S
C287 C284 1.382 . S
C287 C288 1.387 . S
C287 H310 0.930 . S
C288 C286 1.381 . S
C288 C287 1.387 . S
C288 H311 0.931 . S
C289 C282 1.399 1_554 S
C289 C286 1.487 . S
C289 N321 1.343 . S
C290 C291 1.384 . S
C290 C292 1.384 . S
C290 H312 0.931 . S
C291 C290 1.384 . S
C291 C294 1.382 . S
C292 C290 1.384 . S
C292 C293 1.381 . S
C292 H313 0.930 . S
C293 C292 1.381 . S
C293 C295 1.381 . S
C293 C296 1.487 . S
C294 C291 1.382 . S
C294 C295 1.387 . S
C294 H314 0.930 . S
C295 C293 1.381 . S
C295 C294 1.387 . S
C295 H315 0.931 . S
C296 C293 1.487 . S
C296 C303 1.399 1_554 S
C296 N321 1.343 . S
C297 C298 1.384 . S
C297 C299 1.384 . S
C297 H316 0.931 . S
C298 C297 1.384 . S
C298 C301 1.382 . S
C299 C297 1.384 . S
C299 C300 1.381 . S
C299 H317 0.930 . S
C300 C299 1.381 . S
C300 C302 1.381 . S
C300 C303 1.487 . S
C301 C298 1.382 . S
C301 C302 1.387 . S
C301 H318 0.930 . S
C302 C300 1.381 . S
C302 C301 1.387 . S
C302 H319 0.931 . S
C303 C296 1.399 1_556 S
C303 C300 1.487 . S
C303 N320 1.343 . S
H304 C276 0.931 . S
H305 C278 0.930 . S
H306 C280 0.930 . S
H307 C281 0.931 . S
H308 C283 0.931 . S
H309 C285 0.930 . S
H310 C287 0.930 . S
H311 C288 0.931 . S
H312 C290 0.931 . S
H313 C292 0.930 . S
H314 C294 0.930 . S
H315 C295 0.931 . S
H316 C297 0.931 . S
H317 C299 0.930 . S
H318 C301 0.930 . S
H319 C302 0.931 . S
N320 C282 1.343 . S
N320 C303 1.343 . S
N321 C289 1.343 . S
N321 C296 1.343 . S
C322 C323 1.384 . S
C322 C324 1.384 1_655 S
C322 H350 0.931 . S
C323 C322 1.384 . S
C323 C326 1.382 1_655 S
C324 C322 1.384 1_455 S
C324 C325 1.381 . S
C324 H351 0.930 . S
C325 C324 1.381 . S
C325 C327 1.381 . S
C325 C328 1.487 . S
C326 C323 1.382 1_455 S
C326 C327 1.387 . S
C326 H352 0.930 . S
C327 C325 1.381 . S
C327 C326 1.387 . S
C327 H353 0.931 . S
C328 C325 1.487 . S
C328 C335 1.399 . S
C328 N366 1.343 . S
C329 C330 1.384 . S
C329 C331 1.384 1_655 S
C329 H354 0.931 . S
C330 C329 1.384 . S
C330 C333 1.382 1_655 S
C331 C329 1.384 1_455 S
C331 C332 1.381 . S
C331 H355 0.930 . S
C332 C331 1.381 . S
C332 C334 1.381 . S
C332 C335 1.487 . S
C333 C330 1.382 1_455 S
C333 C334 1.387 . S
C333 H356 0.930 . S
C334 C332 1.381 . S
C334 C333 1.387 . S
C334 H357 0.931 . S
C335 C328 1.399 . S
C335 C332 1.487 . S
C335 N367 1.343 . S
C336 C337 1.384 . S
C336 C338 1.384 . S
C336 H358 0.931 . S
C337 C336 1.384 . S
C337 C340 1.382 . S
C338 C336 1.384 . S
C338 C339 1.381 . S
C338 H359 0.930 . S
C339 C338 1.381 . S
C339 C341 1.381 . S
C339 C342 1.487 . S
C340 C337 1.382 . S
C340 C341 1.387 . S
C340 H360 0.930 . S
C341 C339 1.381 . S
C341 C340 1.387 . S
C341 H361 0.931 . S
C342 C339 1.487 . S
C342 C349 1.399 . S
C342 N367 1.343 . S
C343 C344 1.384 . S
C343 C345 1.384 . S
C343 H362 0.931 . S
C344 C343 1.384 . S
C344 C347 1.382 . S
C345 C343 1.384 . S
C345 C346 1.381 . S
C345 H363 0.930 . S
C346 C345 1.381 . S
C346 C348 1.381 . S
C346 C349 1.487 . S
C347 C344 1.382 . S
C347 C348 1.387 . S
C347 H364 0.930 . S
C348 C346 1.381 . S
C348 C347 1.387 . S
C348 H365 0.931 . S
C349 C342 1.399 . S
C349 C346 1.487 . S
C349 N366 1.343 . S
H350 C322 0.931 . S
H351 C324 0.930 . S
H352 C326 0.930 . S
H353 C327 0.931 . S
H354 C329 0.931 . S
H355 C331 0.930 . S
H356 C333 0.930 . S
H357 C334 0.931 . S
H358 C336 0.931 . S
H359 C338 0.930 . S
H360 C340 0.930 . S
H361 C341 0.931 . S
H362 C343 0.931 . S
H363 C345 0.930 . S
H364 C347 0.930 . S
H365 C348 0.931 . S
N366 C328 1.343 . S
N366 C349 1.343 . S
N367 C335 1.343 . S
N367 C342 1.343 . S
C368 O395 1.312 . S
C368 O396 1.208 . S
C369 O390 1.331 1_655 S
C369 O393 1.244 . S
C370 O392 1.264 1_655 S
C370 O394 1.273 . S
Mg371 O373 1.936 . S
Mg371 O380 2.081 . S
Mg371 O382 2.023 . S
Mg371 O386 2.031 . S
Mg371 O395 2.291 . S
Mg372 O373 1.963 . S
Mg372 O383 1.942 . S
Mg372 O384 1.955 . S
Mg372 O391 1.986 . S
O373 Mg371 1.936 . S
O373 Mg372 1.963 . S
O373 Mg374 1.915 . S
Mg374 O373 1.915 . S
Mg374 O375 1.915 . S
Mg374 O379 2.013 . S
Mg374 O385 2.114 . S
Mg374 O389 2.013 . S
Mg374 O395 2.114 . S
O375 Mg374 1.915 . S
O375 Mg376 1.936 . S
O375 Mg377 1.963 1_455 S
Mg376 O375 1.936 . S
Mg376 O385 2.291 . S
Mg376 O390 2.081 . S
Mg376 O392 2.023 . S
Mg376 O396 2.031 . S
Mg377 O375 1.963 1_655 S
Mg377 O381 1.986 . S
Mg377 O393 1.942 . S
Mg377 O394 1.955 . S
C378 O389 1.191 . S
C378 O391 1.307 . S
O379 Mg374 2.013 . S
O379 C398 1.191 . S
O380 Mg371 2.081 . S
O380 C388 1.331 . S
O381 Mg377 1.986 . S
O381 C398 1.307 1_655 S
O382 Mg371 2.023 . S
O382 C397 1.264 . S
O383 Mg372 1.942 . S
O383 C388 1.244 . S
O384 Mg372 1.955 . S
O384 C397 1.273 . S
O385 Mg374 2.114 . S
O385 Mg376 2.291 . S
O385 C387 1.312 . S
O386 Mg371 2.031 . S
O386 C387 1.208 . S
C387 O385 1.312 . S
C387 O386 1.208 . S
C388 O380 1.331 . S
C388 O383 1.244 . S
O389 Mg374 2.013 . S
O389 C378 1.191 . S
O390 C369 1.331 1_455 S
O390 Mg376 2.081 . S
O391 Mg372 1.986 . S
O391 C378 1.307 . S
O392 C370 1.264 1_455 S
O392 Mg376 2.023 . S
O393 C369 1.244 . S
O393 Mg377 1.942 . S
O394 C370 1.273 . S
O394 Mg377 1.955 . S
O395 C368 1.312 . S
O395 Mg371 2.291 . S
O395 Mg374 2.114 . S
O396 C368 1.208 . S
O396 Mg376 2.031 . S
C397 O382 1.264 . S
C397 O384 1.273 . S
C398 O379 1.191 . S
C398 O381 1.307 1_455 S
C399 O426 1.312 . S
C399 O427 1.208 . S
C400 O421 1.331 . S
C400 O424 1.244 . S
C401 O423 1.264 . S
C401 O425 1.273 . S
Mg402 O404 1.936 . S
Mg402 O411 2.081 . S
Mg402 O413 2.023 . S
Mg402 O417 2.031 . S
Mg402 O426 2.291 . S
Mg403 O404 1.963 . S
Mg403 O414 1.942 . S
Mg403 O415 1.955 . S
Mg403 O422 1.986 . S
O404 Mg402 1.936 . S
O404 Mg403 1.963 . S
O404 Mg405 1.915 . S
Mg405 O404 1.915 . S
Mg405 O406 1.915 . S
Mg405 O410 2.013 . S
Mg405 O416 2.114 . S
Mg405 O420 2.013 . S
Mg405 O426 2.114 . S
O406 Mg405 1.915 . S
O406 Mg407 1.936 . S
O406 Mg408 1.963 . S
Mg407 O406 1.936 . S
Mg407 O416 2.291 . S
Mg407 O421 2.081 . S
Mg407 O423 2.023 . S
Mg407 O427 2.031 . S
Mg408 O406 1.963 . S
Mg408 O412 1.986 . S
Mg408 O424 1.942 . S
Mg408 O425 1.955 . S
C409 O420 1.191 . S
C409 O422 1.307 . S
O410 Mg405 2.013 . S
O410 C429 1.191 . S
O411 Mg402 2.081 . S
O411 C419 1.331 . S
O412 Mg408 1.986 . S
O412 C429 1.307 . S
O413 Mg402 2.023 . S
O413 C428 1.264 . S
O414 Mg403 1.942 . S
O414 C419 1.244 . S
O415 Mg403 1.955 . S
O415 C428 1.273 . S
O416 Mg405 2.114 . S
O416 Mg407 2.291 . S
O416 C418 1.312 . S
O417 Mg402 2.031 . S
O417 C418 1.208 . S
C418 O416 1.312 . S
C418 O417 1.208 . S
C419 O411 1.331 . S
C419 O414 1.244 . S
O420 Mg405 2.013 . S
O420 C409 1.191 . S
O421 C400 1.331 . S
O421 Mg407 2.081 . S
O422 Mg403 1.986 . S
O422 C409 1.307 . S
O423 C401 1.264 . S
O423 Mg407 2.023 . S
O424 C400 1.244 . S
O424 Mg408 1.942 . S
O425 C401 1.273 . S
O425 Mg408 1.955 . S
O426 C399 1.312 . S
O426 Mg402 2.291 . S
O426 Mg405 2.114 . S
O427 C399 1.208 . S
O427 Mg407 2.031 . S
C428 O413 1.264 . S
C428 O415 1.273 . S
C429 O410 1.191 . S
C429 O412 1.307 . S
C430 O457 1.312 . S
C430 O458 1.208 . S
C431 O452 1.331 . S
C431 O455 1.244 . S
C432 O454 1.264 . S
C432 O456 1.273 . S
Mg433 O435 1.936 . S
Mg433 O442 2.081 . S
Mg433 O444 2.023 . S
Mg433 O448 2.031 . S
Mg433 O457 2.291 . S
Mg434 O435 1.963 . S
Mg434 O445 1.942 . S
Mg434 O446 1.955 . S
Mg434 O453 1.986 . S
O435 Mg433 1.936 . S
O435 Mg434 1.963 . S
O435 Mg436 1.915 . S
Mg436 O435 1.915 . S
Mg436 O437 1.915 . S
Mg436 O441 2.013 . S
Mg436 O447 2.114 . S
Mg436 O451 2.013 . S
Mg436 O457 2.114 . S
O437 Mg436 1.915 . S
O437 Mg438 1.936 . S
O437 Mg439 1.963 . S
Mg438 O437 1.936 . S
Mg438 O447 2.291 . S
Mg438 O452 2.081 . S
Mg438 O454 2.023 . S
Mg438 O458 2.031 . S
Mg439 O437 1.963 . S
Mg439 O443 1.986 . S
Mg439 O455 1.942 . S
Mg439 O456 1.955 . S
C440 O451 1.191 . S
C440 O453 1.307 . S
O441 Mg436 2.013 . S
O441 C460 1.191 . S
O442 Mg433 2.081 . S
O442 C450 1.331 . S
O443 Mg439 1.986 . S
O443 C460 1.307 . S
O444 Mg433 2.023 . S
O444 C459 1.264 . S
O445 Mg434 1.942 . S
O445 C450 1.244 . S
O446 Mg434 1.955 . S
O446 C459 1.273 . S
O447 Mg436 2.114 . S
O447 Mg438 2.291 . S
O447 C449 1.312 . S
O448 Mg433 2.031 . S
O448 C449 1.208 . S
C449 O447 1.312 . S
C449 O448 1.208 . S
C450 O442 1.331 . S
C450 O445 1.244 . S
O451 Mg436 2.013 . S
O451 C440 1.191 . S
O452 C431 1.331 . S
O452 Mg438 2.081 . S
O453 Mg434 1.986 . S
O453 C440 1.307 . S
O454 C432 1.264 . S
O454 Mg438 2.023 . S
O455 C431 1.244 . S
O455 Mg439 1.942 . S
O456 C432 1.273 . S
O456 Mg439 1.955 . S
O457 C430 1.312 . S
O457 Mg433 2.291 . S
O457 Mg436 2.114 . S
O458 C430 1.208 . S
O458 Mg438 2.031 . S
C459 O444 1.264 . S
C459 O446 1.273 . S
C460 O441 1.191 . S
C460 O443 1.307 . S
C461 O488 1.312 . S
C461 O489 1.208 . S
C462 O483 1.331 . S
C462 O486 1.244 . S
C463 O485 1.264 . S
C463 O487 1.273 . S
Mg464 O466 1.936 . S
Mg464 O473 2.081 . S
Mg464 O475 2.023 . S
Mg464 O479 2.031 . S
Mg464 O488 2.291 . S
Mg465 O466 1.963 1_655 S
Mg465 O476 1.942 . S
Mg465 O477 1.955 . S
Mg465 O484 1.986 . S
O466 Mg464 1.936 . S
O466 Mg465 1.963 1_455 S
O466 Mg467 1.915 . S
Mg467 O466 1.915 . S
Mg467 O468 1.915 . S
Mg467 O472 2.013 . S
Mg467 O478 2.114 . S
Mg467 O482 2.013 . S
Mg467 O488 2.114 . S
O468 Mg467 1.915 . S
O468 Mg469 1.936 . S
O468 Mg470 1.963 . S
Mg469 O468 1.936 . S
Mg469 O478 2.291 . S
Mg469 O483 2.081 . S
Mg469 O485 2.023 . S
Mg469 O489 2.031 . S
Mg470 O468 1.963 . S
Mg470 O474 1.986 . S
Mg470 O486 1.942 . S
Mg470 O487 1.955 . S
C471 O482 1.191 . S
C471 O484 1.307 1_455 S
O472 Mg467 2.013 . S
O472 C491 1.191 . S
O473 Mg464 2.081 . S
O473 C481 1.331 1_455 S
O474 Mg470 1.986 . S
O474 C491 1.307 . S
O475 Mg464 2.023 . S
O475 C490 1.264 1_455 S
O476 Mg465 1.942 . S
O476 C481 1.244 . S
O477 Mg465 1.955 . S
O477 C490 1.273 . S
O478 Mg467 2.114 . S
O478 Mg469 2.291 . S
O478 C480 1.312 . S
O479 Mg464 2.031 . S
O479 C480 1.208 . S
C480 O478 1.312 . S
C480 O479 1.208 . S
C481 O473 1.331 1_655 S
C481 O476 1.244 . S
O482 Mg467 2.013 . S
O482 C471 1.191 . S
O483 C462 1.331 . S
O483 Mg469 2.081 . S
O484 Mg465 1.986 . S
O484 C471 1.307 1_655 S
O485 C463 1.264 . S
O485 Mg469 2.023 . S
O486 C462 1.244 . S
O486 Mg470 1.942 . S
O487 C463 1.273 . S
O487 Mg470 1.955 . S
O488 C461 1.312 . S
O488 Mg464 2.291 . S
O488 Mg467 2.114 . S
O489 C461 1.208 . S
O489 Mg469 2.031 . S
C490 O475 1.264 1_655 S
C490 O477 1.273 . S
C491 O472 1.191 . S
C491 O474 1.307 . S
H492 C500 0.950 . S
H493 C505 0.950 . S
H494 C502 0.950 . S
H495 C504 0.950 . S
H496 C506 0.950 . S
H497 C508 0.950 . S
H498 C510 0.950 . S
H499 C511 0.950 . S
C500 H492 0.950 . S
C500 C501 1.386 . S
C500 C502 1.391 . S
C501 C500 1.386 . S
C501 C505 1.393 . S
C502 H494 0.950 . S
C502 C500 1.391 . S
C502 C503 1.400 . S
C503 C502 1.400 . S
C503 C504 1.398 . S
C503 C509 1.491 . S
C504 H495 0.950 . S
C504 C503 1.398 . S
C504 C505 1.391 . S
C505 H493 0.950 . S
C505 C501 1.393 . S
C505 C504 1.391 . S
C506 H496 0.950 . S
C506 C507 1.386 . S
C506 C508 1.391 . S
C507 C506 1.386 . S
C507 C511 1.393 . S
C508 H497 0.950 . S
C508 C506 1.391 . S
C508 C509 1.400 . S
C509 C503 1.491 . S
C509 C508 1.400 . S
C509 C510 1.398 . S
C510 H498 0.950 . S
C510 C509 1.398 . S
C510 C511 1.391 . S
C511 H499 0.950 . S
C511 C507 1.393 . S
C511 C510 1.391 . S
H512 C520 0.950 . S
H513 C525 0.950 . S
H514 C522 0.950 . S
H515 C524 0.950 . S
H516 C526 0.950 . S
H517 C528 0.950 . S
H518 C530 0.950 . S
H519 C531 0.950 . S
C520 H512 0.950 . S
C520 C521 1.386 . S
C520 C522 1.391 . S
C521 C520 1.386 . S
C521 C525 1.393 . S
C522 H514 0.950 . S
C522 C520 1.391 . S
C522 C523 1.400 . S
C523 C522 1.400 . S
C523 C524 1.398 . S
C523 C529 1.491 1_565 S
C524 H515 0.950 . S
C524 C523 1.398 . S
C524 C525 1.391 . S
C525 H513 0.950 . S
C525 C521 1.393 . S
C525 C524 1.391 . S
C526 H516 0.950 . S
C526 C527 1.386 . S
C526 C528 1.391 . S
C527 C526 1.386 . S
C527 C531 1.393 . S
C528 H517 0.950 . S
C528 C526 1.391 . S
C528 C529 1.400 . S
C529 C523 1.491 1_545 S
C529 C528 1.400 . S
C529 C530 1.398 . S
C530 H518 0.950 . S
C530 C529 1.398 . S
C530 C531 1.391 . S
C531 H519 0.950 . S
C531 C527 1.393 . S
C531 C530 1.391 . S
H532 C540 0.950 . S
H533 C545 0.950 . S
H534 C542 0.950 . S
H535 C544 0.950 . S
H536 C546 0.950 . S
H537 C548 0.950 . S
H538 C550 0.950 . S
H539 C551 0.950 . S
C540 H532 0.950 . S
C540 C541 1.386 . S
C540 C542 1.391 . S
C541 C540 1.386 . S
C541 C545 1.393 . S
C542 H534 0.950 . S
C542 C540 1.391 . S
C542 C543 1.400 . S
C543 C542 1.400 . S
C543 C544 1.398 . S
C543 C549 1.491 . S
C544 H535 0.950 . S
C544 C543 1.398 . S
C544 C545 1.391 . S
C545 H533 0.950 . S
C545 C541 1.393 . S
C545 C544 1.391 . S
C546 H536 0.950 . S
C546 C547 1.386 . S
C546 C548 1.391 . S
C547 C546 1.386 . S
C547 C551 1.393 . S
C548 H537 0.950 . S
C548 C546 1.391 . S
C548 C549 1.400 . S
C549 C543 1.491 . S
C549 C548 1.400 . S
C549 C550 1.398 . S
C550 H538 0.950 . S
C550 C549 1.398 . S
C550 C551 1.391 . S
C551 H539 0.950 . S
C551 C547 1.393 . S
C551 C550 1.391 . S
H552 C560 0.950 . S
H553 C565 0.950 . S
H554 C562 0.950 . S
H555 C564 0.950 1_565 S
H556 C566 0.950 . S
H557 C568 0.950 . S
H558 C570 0.950 1_545 S
H559 C571 0.950 . S
C560 H552 0.950 . S
C560 C561 1.386 . S
C560 C562 1.391 . S
C561 C560 1.386 . S
C561 C565 1.393 . S
C562 H554 0.950 . S
C562 C560 1.391 . S
C562 C563 1.400 . S
C563 C562 1.400 . S
C563 C564 1.398 . S
C563 C569 1.491 1_545 S
C564 H555 0.950 1_545 S
C564 C563 1.398 . S
C564 C565 1.391 . S
C565 H553 0.950 . S
C565 C561 1.393 . S
C565 C564 1.391 . S
C566 H556 0.950 . S
C566 C567 1.386 . S
C566 C568 1.391 . S
C567 C566 1.386 . S
C567 C571 1.393 . S
C568 H557 0.950 . S
C568 C566 1.391 . S
C568 C569 1.400 . S
C569 C563 1.491 1_565 S
C569 C568 1.400 . S
C569 C570 1.398 . S
C570 H558 0.950 1_565 S
C570 C569 1.398 . S
C570 C571 1.391 . S
C571 H559 0.950 . S
C571 C567 1.393 . S
C571 C570 1.391 . S
H572 C580 0.950 . S
H573 C585 0.950 . S
H574 C582 0.950 . S
H575 C584 0.950 . S
H576 C586 0.950 . S
H577 C588 0.950 . S
H578 C590 0.950 . S
H579 C591 0.950 . S
C580 H572 0.950 . S
C580 C581 1.386 . S
C580 C582 1.391 . S
C581 C580 1.386 . S
C581 C585 1.393 . S
C582 H574 0.950 . S
C582 C580 1.391 . S
C582 C583 1.400 . S
C583 C582 1.400 . S
C583 C584 1.398 . S
C583 C589 1.491 . S
C584 H575 0.950 . S
C584 C583 1.398 . S
C584 C585 1.391 . S
C585 H573 0.950 . S
C585 C581 1.393 . S
C585 C584 1.391 . S
C586 H576 0.950 . S
C586 C587 1.386 . S
C586 C588 1.391 . S
C587 C586 1.386 . S
C587 C591 1.393 . S
C588 H577 0.950 . S
C588 C586 1.391 . S
C588 C589 1.400 . S
C589 C583 1.491 . S
C589 C588 1.400 . S
C589 C590 1.398 . S
C590 H578 0.950 . S
C590 C589 1.398 . S
C590 C591 1.391 . S
C591 H579 0.950 . S
C591 C587 1.393 . S
C591 C590 1.391 . S
H592 C600 0.950 . S
H593 C605 0.950 . S
H594 C602 0.950 . S
H595 C604 0.950 . S
H596 C606 0.950 . S
H597 C608 0.950 . S
H598 C610 0.950 . S
H599 C611 0.950 . S
C600 H592 0.950 . S
C600 C601 1.386 . S
C600 C602 1.391 . S
C601 C600 1.386 . S
C601 C605 1.393 . S
C602 H594 0.950 . S
C602 C600 1.391 . S
C602 C603 1.400 . S
C603 C602 1.400 . S
C603 C604 1.398 . S
C603 C609 1.491 1_565 S
C604 H595 0.950 . S
C604 C603 1.398 . S
C604 C605 1.391 . S
C605 H593 0.950 . S
C605 C601 1.393 . S
C605 C604 1.391 . S
C606 H596 0.950 . S
C606 C607 1.386 . S
C606 C608 1.391 . S
C607 C606 1.386 . S
C607 C611 1.393 . S
C608 H597 0.950 . S
C608 C606 1.391 . S
C608 C609 1.400 . S
C609 C603 1.491 1_545 S
C609 C608 1.400 . S
C609 C610 1.398 . S
C610 H598 0.950 . S
C610 C609 1.398 . S
C610 C611 1.391 . S
C611 H599 0.950 . S
C611 C607 1.393 . S
C611 C610 1.391 . S
H612 C620 0.950 . S
H613 C625 0.950 . S
H614 C622 0.950 . S
H615 C624 0.950 . S
H616 C626 0.950 . S
H617 C628 0.950 . S
H618 C630 0.950 . S
H619 C631 0.950 . S
C620 H612 0.950 . S
C620 C621 1.386 . S
C620 C622 1.391 . S
C621 C620 1.386 . S
C621 C625 1.393 . S
C622 H614 0.950 . S
C622 C620 1.391 . S
C622 C623 1.400 . S
C623 C622 1.400 . S
C623 C624 1.398 . S
C623 C629 1.491 . S
C624 H615 0.950 . S
C624 C623 1.398 . S
C624 C625 1.391 . S
C625 H613 0.950 . S
C625 C621 1.393 . S
C625 C624 1.391 . S
C626 H616 0.950 . S
C626 C627 1.386 . S
C626 C628 1.391 . S
C627 C626 1.386 . S
C627 C631 1.393 . S
C628 H617 0.950 . S
C628 C626 1.391 . S
C628 C629 1.400 . S
C629 C623 1.491 . S
C629 C628 1.400 . S
C629 C630 1.398 . S
C630 H618 0.950 . S
C630 C629 1.398 . S
C630 C631 1.391 . S
C631 H619 0.950 . S
C631 C627 1.393 . S
C631 C630 1.391 . S
H632 C640 0.950 . S
H633 C645 0.950 . S
H634 C642 0.950 . S
H635 C644 0.950 1_565 S
H636 C646 0.950 . S
H637 C648 0.950 . S
H638 C650 0.950 1_545 S
H639 C651 0.950 . S
C640 H632 0.950 . S
C640 C641 1.386 . S
C640 C642 1.391 . S
C641 C640 1.386 . S
C641 C645 1.393 . S
C642 H634 0.950 . S
C642 C640 1.391 . S
C642 C643 1.400 . S
C643 C642 1.400 . S
C643 C644 1.398 . S
C643 C649 1.491 1_545 S
C644 H635 0.950 1_545 S
C644 C643 1.398 . S
C644 C645 1.391 . S
C645 H633 0.950 . S
C645 C641 1.393 . S
C645 C644 1.391 . S
C646 H636 0.950 . S
C646 C647 1.386 . S
C646 C648 1.391 . S
C647 C646 1.386 . S
C647 C651 1.393 . S
C648 H637 0.950 . S
C648 C646 1.391 . S
C648 C649 1.400 . S
C649 C643 1.491 1_565 S
C649 C648 1.400 . S
C649 C650 1.398 . S
C650 H638 0.950 1_565 S
C650 C649 1.398 . S
C650 C651 1.391 . S
C651 H639 0.950 . S
C651 C647 1.393 . S
C651 C650 1.391 . S
H652 C660 0.950 . S
H653 C665 0.950 . S
H654 C662 0.950 . S
H655 C664 0.950 . S
H656 C666 0.950 . S
H657 C668 0.950 . S
H658 C670 0.950 . S
H659 C671 0.950 . S
C660 H652 0.950 . S
C660 C661 1.386 . S
C660 C662 1.391 . S
C661 C660 1.386 . S
C661 C665 1.393 . S
C662 H654 0.950 . S
C662 C660 1.391 . S
C662 C663 1.400 . S
C663 C662 1.400 . S
C663 C664 1.398 . S
C663 C669 1.491 . S
C664 H655 0.950 . S
C664 C663 1.398 . S
C664 C665 1.391 . S
C665 H653 0.950 . S
C665 C661 1.393 . S
C665 C664 1.391 . S
C666 H656 0.950 . S
C666 C667 1.386 . S
C666 C668 1.391 . S
C667 C666 1.386 . S
C667 C671 1.393 . S
C668 H657 0.950 . S
C668 C666 1.391 . S
C668 C669 1.400 . S
C669 C663 1.491 . S
C669 C668 1.400 . S
C669 C670 1.398 . S
C670 H658 0.950 . S
C670 C669 1.398 . S
C670 C671 1.391 . S
C671 H659 0.950 . S
C671 C667 1.393 . S
C671 C670 1.391 . S
H672 C680 0.950 . S
H673 C685 0.950 . S
H674 C682 0.950 . S
H675 C684 0.950 . S
H676 C686 0.950 . S
H677 C688 0.950 . S
H678 C690 0.950 . S
H679 C691 0.950 . S
C680 H672 0.950 . S
C680 C681 1.386 . S
C680 C682 1.391 . S
C681 C680 1.386 . S
C681 C685 1.393 . S
C682 H674 0.950 . S
C682 C680 1.391 . S
C682 C683 1.400 . S
C683 C682 1.400 . S
C683 C684 1.398 . S
C683 C689 1.491 . S
C684 H675 0.950 . S
C684 C683 1.398 . S
C684 C685 1.391 . S
C685 H673 0.950 . S
C685 C681 1.393 . S
C685 C684 1.391 . S
C686 H676 0.950 . S
C686 C687 1.386 . S
C686 C688 1.391 . S
C687 C686 1.386 . S
C687 C691 1.393 . S
C688 H677 0.950 . S
C688 C686 1.391 . S
C688 C689 1.400 . S
C689 C683 1.491 . S
C689 C688 1.400 . S
C689 C690 1.398 . S
C690 H678 0.950 . S
C690 C689 1.398 . S
C690 C691 1.391 . S
C691 H679 0.950 . S
C691 C687 1.393 . S
C691 C690 1.391 . S
H692 C700 0.950 . S
H693 C705 0.950 . S
H694 C702 0.950 . S
H695 C704 0.950 . S
H696 C706 0.950 . S
H697 C708 0.950 . S
H698 C710 0.950 . S
H699 C711 0.950 . S
C700 H692 0.950 . S
C700 C701 1.386 . S
C700 C702 1.391 . S
C701 C700 1.386 . S
C701 C705 1.393 . S
C702 H694 0.950 . S
C702 C700 1.391 . S
C702 C703 1.400 . S
C703 C702 1.400 . S
C703 C704 1.398 . S
C703 C709 1.491 . S
C704 H695 0.950 . S
C704 C703 1.398 . S
C704 C705 1.391 . S
C705 H693 0.950 . S
C705 C701 1.393 . S
C705 C704 1.391 . S
C706 H696 0.950 . S
C706 C707 1.386 1_655 S
C706 C708 1.391 . S
C707 C706 1.386 1_455 S
C707 C711 1.393 . S
C708 H697 0.950 . S
C708 C706 1.391 . S
C708 C709 1.400 . S
C709 C703 1.491 . S
C709 C708 1.400 . S
C709 C710 1.398 . S
C710 H698 0.950 . S
C710 C709 1.398 . S
C710 C711 1.391 1_655 S
C711 H699 0.950 . S
C711 C707 1.393 . S
C711 C710 1.391 1_455 S
H712 C720 0.950 1_565 S
H713 C725 0.950 . S
H714 C722 0.950 1_455 S
H715 C724 0.950 . S
H716 C726 0.950 . S
H717 C728 0.950 . S
H718 C730 0.950 . S
H719 C731 0.950 . S
C720 H712 0.950 1_545 S
C720 C721 1.386 . S
C720 C722 1.391 . S
C721 C720 1.386 . S
C721 C725 1.393 . S
C722 H714 0.950 1_655 S
C722 C720 1.391 . S
C722 C723 1.400 . S
C723 C722 1.400 . S
C723 C724 1.398 . S
C723 C729 1.491 . S
C724 H715 0.950 . S
C724 C723 1.398 . S
C724 C725 1.391 . S
C725 H713 0.950 . S
C725 C721 1.393 . S
C725 C724 1.391 . S
C726 H716 0.950 . S
C726 C727 1.386 1_655 S
C726 C728 1.391 . S
C727 C726 1.386 1_455 S
C727 C731 1.393 . S
C728 H717 0.950 . S
C728 C726 1.391 . S
C728 C729 1.400 . S
C729 C723 1.491 . S
C729 C728 1.400 . S
C729 C730 1.398 1_655 S
C730 H718 0.950 . S
C730 C729 1.398 1_455 S
C730 C731 1.391 . S
C731 H719 0.950 . S
C731 C727 1.393 . S
C731 C730 1.391 . S
H732 C740 0.950 . S
H733 C745 0.950 . S
H734 C742 0.950 . S
H735 C744 0.950 . S
H736 C746 0.950 . S
H737 C748 0.950 . S
H738 C750 0.950 . S
H739 C751 0.950 . S
C740 H732 0.950 . S
C740 C741 1.386 . S
C740 C742 1.391 . S
C741 C740 1.386 . S
C741 C745 1.393 . S
C742 H734 0.950 . S
C742 C740 1.391 . S
C742 C743 1.400 . S
C743 C742 1.400 . S
C743 C744 1.398 . S
C743 C749 1.491 . S
C744 H735 0.950 . S
C744 C743 1.398 . S
C744 C745 1.391 . S
C745 H733 0.950 . S
C745 C741 1.393 . S
C745 C744 1.391 . S
C746 H736 0.950 . S
C746 C747 1.386 . S
C746 C748 1.391 . S
C747 C746 1.386 . S
C747 C751 1.393 . S
C748 H737 0.950 . S
C748 C746 1.391 . S
C748 C749 1.400 . S
C749 C743 1.491 . S
C749 C748 1.400 . S
C749 C750 1.398 . S
C750 H738 0.950 . S
C750 C749 1.398 . S
C750 C751 1.391 . S
C751 H739 0.950 . S
C751 C747 1.393 . S
C751 C750 1.391 . S
H752 C760 0.950 . S
H753 C765 0.950 . S
H754 C762 0.950 . S
H755 C764 0.950 . S
H756 C766 0.950 . S
H757 C768 0.950 . S
H758 C770 0.950 . S
H759 C771 0.950 . S
C760 H752 0.950 . S
C760 C761 1.386 . S
C760 C762 1.391 . S
C761 C760 1.386 . S
C761 C765 1.393 1_565 S
C762 H754 0.950 . S
C762 C760 1.391 . S
C762 C763 1.400 . S
C763 C762 1.400 . S
C763 C764 1.398 . S
C763 C769 1.491 . S
C764 H755 0.950 . S
C764 C763 1.398 . S
C764 C765 1.391 1_565 S
C765 H753 0.950 . S
C765 C761 1.393 1_545 S
C765 C764 1.391 1_545 S
C766 H756 0.950 . S
C766 C767 1.386 . S
C766 C768 1.391 1_455 S
C767 C766 1.386 . S
C767 C771 1.393 1_455 S
C768 H757 0.950 . S
C768 C766 1.391 1_655 S
C768 C769 1.400 . S
C769 C763 1.491 . S
C769 C768 1.400 . S
C769 C770 1.398 . S
C770 H758 0.950 . S
C770 C769 1.398 . S
C770 C771 1.391 . S
C771 H759 0.950 . S
C771 C767 1.393 1_655 S
C771 C770 1.391 . S
H772 C780 0.950 . S
H773 C785 0.950 . S
H774 C782 0.950 . S
H775 C784 0.950 . S
H776 C786 0.950 1_455 S
H777 C788 0.950 . S
H778 C790 0.950 . S
H779 C791 0.950 1_455 S
C780 H772 0.950 . S
C780 C781 1.386 . S
C780 C782 1.391 . S
C781 C780 1.386 . S
C781 C785 1.393 . S
C782 H774 0.950 . S
C782 C780 1.391 . S
C782 C783 1.400 . S
C783 C782 1.400 . S
C783 C784 1.398 . S
C783 C789 1.491 . S
C784 H775 0.950 . S
C784 C783 1.398 . S
C784 C785 1.391 . S
C785 H773 0.950 . S
C785 C781 1.393 . S
C785 C784 1.391 . S
C786 H776 0.950 1_655 S
C786 C787 1.386 1_655 S
C786 C788 1.391 . S
C787 C786 1.386 1_455 S
C787 C791 1.393 1_455 S
C788 H777 0.950 . S
C788 C786 1.391 . S
C788 C789 1.400 . S
C789 C783 1.491 . S
C789 C788 1.400 . S
C789 C790 1.398 . S
C790 H778 0.950 . S
C790 C789 1.398 . S
C790 C791 1.391 . S
C791 H779 0.950 1_655 S
C791 C787 1.393 1_655 S
C791 C790 1.391 . S
H792 C800 0.950 . S
H793 C805 0.950 . S
H794 C802 0.950 . S
H795 C804 0.950 . S
H796 C806 0.950 . S
H797 C808 0.950 . S
H798 C810 0.950 . S
H799 C811 0.950 . S
C800 H792 0.950 . S
C800 C801 1.386 . S
C800 C802 1.391 . S
C801 C800 1.386 . S
C801 C805 1.393 1_545 S
C802 H794 0.950 . S
C802 C800 1.391 . S
C802 C803 1.400 . S
C803 C802 1.400 . S
C803 C804 1.398 . S
C803 C809 1.491 . S
C804 H795 0.950 . S
C804 C803 1.398 . S
C804 C805 1.391 1_545 S
C805 H793 0.950 . S
C805 C801 1.393 1_565 S
C805 C804 1.391 1_565 S
C806 H796 0.950 . S
C806 C807 1.386 . S
C806 C808 1.391 . S
C807 C806 1.386 . S
C807 C811 1.393 . S
C808 H797 0.950 . S
C808 C806 1.391 . S
C808 C809 1.400 . S
C809 C803 1.491 . S
C809 C808 1.400 . S
C809 C810 1.398 . S
C810 H798 0.950 . S
C810 C809 1.398 . S
C810 C811 1.391 . S
C811 H799 0.950 . S
C811 C807 1.393 . S
C811 C810 1.391 . S
H812 C820 0.950 . S
H813 C825 0.950 . S
H814 C822 0.950 . S
H815 C824 0.950 . S
H816 C826 0.950 . S
H817 C828 0.950 . S
H818 C830 0.950 . S
H819 C831 0.950 . S
C820 H812 0.950 . S
C820 C821 1.386 . S
C820 C822 1.391 . S
C821 C820 1.386 . S
C821 C825 1.393 . S
C822 H814 0.950 . S
C822 C820 1.391 . S
C822 C823 1.400 . S
C823 C822 1.400 . S
C823 C824 1.398 . S
C823 C829 1.491 . S
C824 H815 0.950 . S
C824 C823 1.398 . S
C824 C825 1.391 . S
C825 H813 0.950 . S
C825 C821 1.393 . S
C825 C824 1.391 . S
C826 H816 0.950 . S
C826 C827 1.386 . S
C826 C828 1.391 . S
C827 C826 1.386 . S
C827 C831 1.393 . S
C828 H817 0.950 . S
C828 C826 1.391 . S
C828 C829 1.400 . S
C829 C823 1.491 . S
C829 C828 1.400 . S
C829 C830 1.398 . S
C830 H818 0.950 . S
C830 C829 1.398 . S
C830 C831 1.391 . S
C831 H819 0.950 . S
C831 C827 1.393 . S
C831 C830 1.391 . S
H832 C840 0.950 . S
H833 C845 0.950 . S
H834 C842 0.950 . S
H835 C844 0.950 . S
H836 C846 0.950 . S
H837 C848 0.950 . S
H838 C850 0.950 . S
H839 C851 0.950 . S
C840 H832 0.950 . S
C840 C841 1.386 . S
C840 C842 1.391 . S
C841 C840 1.386 . S
C841 C845 1.393 . S
C842 H834 0.950 . S
C842 C840 1.391 . S
C842 C843 1.400 . S
C843 C842 1.400 . S
C843 C844 1.398 . S
C843 C849 1.491 . S
C844 H835 0.950 . S
C844 C843 1.398 . S
C844 C845 1.391 . S
C845 H833 0.950 . S
C845 C841 1.393 . S
C845 C844 1.391 . S
C846 H836 0.950 . S
C846 C847 1.386 . S
C846 C848 1.391 . S
C847 C846 1.386 . S
C847 C851 1.393 . S
C848 H837 0.950 . S
C848 C846 1.391 . S
C848 C849 1.400 . S
C849 C843 1.491 . S
C849 C848 1.400 . S
C849 C850 1.398 . S
C850 H838 0.950 . S
C850 C849 1.398 . S
C850 C851 1.391 . S
C851 H839 0.950 . S
C851 C847 1.393 . S
C851 C850 1.391 . S
H852 C860 0.950 . S
H853 C865 0.950 . S
H854 C862 0.950 . S
H855 C864 0.950 . S
H856 C866 0.950 . S
H857 C868 0.950 . S
H858 C870 0.950 . S
H859 C871 0.950 . S
C860 H852 0.950 . S
C860 C861 1.386 . S
C860 C862 1.391 . S
C861 C860 1.386 . S
C861 C865 1.393 . S
C862 H854 0.950 . S
C862 C860 1.391 . S
C862 C863 1.400 . S
C863 C862 1.400 . S
C863 C864 1.398 . S
C863 C869 1.491 . S
C864 H855 0.950 . S
C864 C863 1.398 . S
C864 C865 1.391 . S
C865 H853 0.950 . S
C865 C861 1.393 . S
C865 C864 1.391 . S
C866 H856 0.950 . S
C866 C867 1.386 . S
C866 C868 1.391 . S
C867 C866 1.386 . S
C867 C871 1.393 . S
C868 H857 0.950 . S
C868 C866 1.391 . S
C868 C869 1.400 . S
C869 C863 1.491 . S
C869 C868 1.400 . S
C869 C870 1.398 . S
C870 H858 0.950 . S
C870 C869 1.398 . S
C870 C871 1.391 . S
C871 H859 0.950 . S
C871 C867 1.393 . S
C871 C870 1.391 . S
H872 C880 0.950 . S
H873 C885 0.950 . S
H874 C882 0.950 . S
H875 C884 0.950 . S
H876 C886 0.950 . S
H877 C888 0.950 . S
H878 C890 0.950 . S
H879 C891 0.950 . S
C880 H872 0.950 . S
C880 C881 1.386 . S
C880 C882 1.391 . S
C881 C880 1.386 . S
C881 C885 1.393 . S
C882 H874 0.950 . S
C882 C880 1.391 . S
C882 C883 1.400 . S
C883 C882 1.400 . S
C883 C884 1.398 . S
C883 C889 1.491 . S
C884 H875 0.950 . S
C884 C883 1.398 . S
C884 C885 1.391 . S
C885 H873 0.950 . S
C885 C881 1.393 . S
C885 C884 1.391 . S
C886 H876 0.950 . S
C886 C887 1.386 . S
C886 C888 1.391 . S
C887 C886 1.386 . S
C887 C891 1.393 . S
C888 H877 0.950 . S
C888 C886 1.391 . S
C888 C889 1.400 . S
C889 C883 1.491 . S
C889 C888 1.400 . S
C889 C890 1.398 . S
C890 H878 0.950 . S
C890 C889 1.398 . S
C890 C891 1.391 . S
C891 H879 0.950 . S
C891 C887 1.393 . S
C891 C890 1.391 . S
H892 C900 0.950 . S
H893 C905 0.950 . S
H894 C902 0.950 . S
H895 C904 0.950 . S
H896 C906 0.950 . S
H897 C908 0.950 . S
H898 C910 0.950 . S
H899 C911 0.950 . S
C900 H892 0.950 . S
C900 C901 1.386 . S
C900 C902 1.391 . S
C901 C900 1.386 . S
C901 C905 1.393 . S
C902 H894 0.950 . S
C902 C900 1.391 . S
C902 C903 1.400 . S
C903 C902 1.400 . S
C903 C904 1.398 . S
C903 C909 1.491 . S
C904 H895 0.950 . S
C904 C903 1.398 . S
C904 C905 1.391 . S
C905 H893 0.950 . S
C905 C901 1.393 . S
C905 C904 1.391 . S
C906 H896 0.950 . S
C906 C907 1.386 . S
C906 C908 1.391 . S
C907 C906 1.386 . S
C907 C911 1.393 . S
C908 H897 0.950 . S
C908 C906 1.391 . S
C908 C909 1.400 . S
C909 C903 1.491 . S
C909 C908 1.400 . S
C909 C910 1.398 . S
C910 H898 0.950 . S
C910 C909 1.398 . S
C910 C911 1.391 . S
C911 H899 0.950 . S
C911 C907 1.393 . S
C911 C910 1.391 . S
H912 C920 0.950 . S
H913 C925 0.950 . S
H914 C922 0.950 . S
H915 C924 0.950 . S
H916 C926 0.950 . S
H917 C928 0.950 . S
H918 C930 0.950 . S
H919 C931 0.950 . S
C920 H912 0.950 . S
C920 C921 1.386 . S
C920 C922 1.391 . S
C921 C920 1.386 . S
C921 C925 1.393 . S
C922 H914 0.950 . S
C922 C920 1.391 . S
C922 C923 1.400 . S
C923 C922 1.400 . S
C923 C924 1.398 . S
C923 C929 1.491 . S
C924 H915 0.950 . S
C924 C923 1.398 . S
C924 C925 1.391 . S
C925 H913 0.950 . S
C925 C921 1.393 . S
C925 C924 1.391 . S
C926 H916 0.950 . S
C926 C927 1.386 . S
C926 C928 1.391 . S
C927 C926 1.386 . S
C927 C931 1.393 . S
C928 H917 0.950 . S
C928 C926 1.391 . S
C928 C929 1.400 . S
C929 C923 1.491 . S
C929 C928 1.400 . S
C929 C930 1.398 . S
C930 H918 0.950 . S
C930 C929 1.398 . S
C930 C931 1.391 . S
C931 H919 0.950 . S
C931 C927 1.393 . S
C931 C930 1.391 . S
H932 C940 0.950 . S
H933 C945 0.950 . S
H934 C942 0.950 . S
H935 C944 0.950 . S
H936 C946 0.950 . S
H937 C948 0.950 . S
H938 C950 0.950 . S
H939 C951 0.950 . S
C940 H932 0.950 . S
C940 C941 1.386 . S
C940 C942 1.391 . S
C941 C940 1.386 . S
C941 C945 1.393 . S
C942 H934 0.950 . S
C942 C940 1.391 . S
C942 C943 1.400 . S
C943 C942 1.400 . S
C943 C944 1.398 . S
C943 C949 1.491 . S
C944 H935 0.950 . S
C944 C943 1.398 . S
C944 C945 1.391 . S
C945 H933 0.950 . S
C945 C941 1.393 . S
C945 C944 1.391 . S
C946 H936 0.950 . S
C946 C947 1.386 . S
C946 C948 1.391 . S
C947 C946 1.386 . S
C947 C951 1.393 . S
C948 H937 0.950 . S
C948 C946 1.391 . S
C948 C949 1.400 . S
C949 C943 1.491 . S
C949 C948 1.400 . S
C949 C950 1.398 . S
C950 H938 0.950 . S
C950 C949 1.398 . S
C950 C951 1.391 . S
C951 H939 0.950 . S
C951 C947 1.393 . S
C951 C950 1.391 . S
H952 C960 0.950 . S
H953 C965 0.950 . S
H954 C962 0.950 . S
H955 C964 0.950 . S
H956 C966 0.950 1_455 S
H957 C968 0.950 1_455 S
H958 C970 0.950 . S
H959 C971 0.950 . S
C960 H952 0.950 . S
C960 C961 1.386 . S
C960 C962 1.391 . S
C961 C960 1.386 . S
C961 C965 1.393 . S
C962 H954 0.950 . S
C962 C960 1.391 . S
C962 C963 1.400 . S
C963 C962 1.400 . S
C963 C964 1.398 . S
C963 C969 1.491 . S
C964 H955 0.950 . S
C964 C963 1.398 . S
C964 C965 1.391 . S
C965 H953 0.950 . S
C965 C961 1.393 . S
C965 C964 1.391 . S
C966 H956 0.950 1_655 S
C966 C967 1.386 . S
C966 C968 1.391 . S
C967 C966 1.386 . S
C967 C971 1.393 . S
C968 H957 0.950 1_655 S
C968 C966 1.391 . S
C968 C969 1.400 . S
C969 C963 1.491 . S
C969 C968 1.400 . S
C969 C970 1.398 . S
C970 H958 0.950 . S
C970 C969 1.398 . S
C970 C971 1.391 . S
C971 H959 0.950 . S
C971 C967 1.393 . S
C971 C970 1.391 . S
H972 C980 0.950 . S
H973 C985 0.950 . S
H974 C982 0.950 . S
H975 C984 0.950 . S
H976 C986 0.950 . S
H977 C988 0.950 . S
H978 C990 0.950 . S
H979 C991 0.950 . S
C980 H972 0.950 . S
C980 C981 1.386 . S
C980 C982 1.391 . S
C981 C980 1.386 . S
C981 C985 1.393 . S
C982 H974 0.950 . S
C982 C980 1.391 . S
C982 C983 1.400 . S
C983 C982 1.400 . S
C983 C984 1.398 . S
C983 C989 1.491 . S
C984 H975 0.950 . S
C984 C983 1.398 . S
C984 C985 1.391 . S
C985 H973 0.950 . S
C985 C981 1.393 . S
C985 C984 1.391 . S
C986 H976 0.950 . S
C986 C987 1.386 . S
C986 C988 1.391 . S
C987 C986 1.386 . S
C987 C991 1.393 . S
C988 H977 0.950 . S
C988 C986 1.391 . S
C988 C989 1.400 . S
C989 C983 1.491 . S
C989 C988 1.400 . S
C989 C990 1.398 . S
C990 H978 0.950 . S
C990 C989 1.398 . S
C990 C991 1.391 . S
C991 H979 0.950 . S
C991 C987 1.393 . S
C991 C990 1.391 . S
H992 C1000 0.950 . S
H993 C1005 0.950 . S
H994 C1002 0.950 . S
H995 C1004 0.950 . S
H996 C1006 0.950 . S
H997 C1008 0.950 . S
H998 C1010 0.950 . S
H999 C1011 0.950 . S
C1000 H992 0.950 . S
C1000 C1001 1.386 . S
C1000 C1002 1.391 . S
C1001 C1000 1.386 . S
C1001 C1005 1.393 . S
C1002 H994 0.950 . S
C1002 C1000 1.391 . S
C1002 C1003 1.400 . S
C1003 C1002 1.400 . S
C1003 C1004 1.398 . S
C1003 C1009 1.491 . S
C1004 H995 0.950 . S
C1004 C1003 1.398 . S
C1004 C1005 1.391 . S
C1005 H993 0.950 . S
C1005 C1001 1.393 . S
C1005 C1004 1.391 . S
C1006 H996 0.950 . S
C1006 C1007 1.386 . S
C1006 C1008 1.391 . S
C1007 C1006 1.386 . S
C1007 C1011 1.393 . S
C1008 H997 0.950 . S
C1008 C1006 1.391 . S
C1008 C1009 1.400 . S
C1009 C1003 1.491 . S
C1009 C1008 1.400 . S
C1009 C1010 1.398 . S
C1010 H998 0.950 . S
C1010 C1009 1.398 . S
C1010 C1011 1.391 . S
C1011 H999 0.950 . S
C1011 C1007 1.393 . S
C1011 C1010 1.391 . S
H1012 C1020 0.950 . S
H1013 C1025 0.950 . S
H1014 C1022 0.950 . S
H1015 C1024 0.950 . S
H1016 C1026 0.950 . S
H1017 C1028 0.950 . S
H1018 C1030 0.950 . S
H1019 C1031 0.950 . S
C1020 H1012 0.950 . S
C1020 C1021 1.386 . S
C1020 C1022 1.391 . S
C1021 C1020 1.386 . S
C1021 C1025 1.393 . S
C1022 H1014 0.950 . S
C1022 C1020 1.391 . S
C1022 C1023 1.400 . S
C1023 C1022 1.400 . S
C1023 C1024 1.398 . S
C1023 C1029 1.491 . S
C1024 H1015 0.950 . S
C1024 C1023 1.398 . S
C1024 C1025 1.391 . S
C1025 H1013 0.950 . S
C1025 C1021 1.393 . S
C1025 C1024 1.391 . S
C1026 H1016 0.950 . S
C1026 C1027 1.386 . S
C1026 C1028 1.391 . S
C1027 C1026 1.386 . S
C1027 C1031 1.393 . S
C1028 H1017 0.950 . S
C1028 C1026 1.391 . S
C1028 C1029 1.400 . S
C1029 C1023 1.491 . S
C1029 C1028 1.400 . S
C1029 C1030 1.398 . S
C1030 H1018 0.950 . S
C1030 C1029 1.398 . S
C1030 C1031 1.391 . S
C1031 H1019 0.950 . S
C1031 C1027 1.393 . S
C1031 C1030 1.391 . S
H1032 C1040 0.950 . S
H1033 C1045 0.950 . S
H1034 C1042 0.950 . S
H1035 C1044 0.950 . S
H1036 C1046 0.950 . S
H1037 C1048 0.950 . S
H1038 C1050 0.950 . S
H1039 C1051 0.950 . S
C1040 H1032 0.950 . S
C1040 C1041 1.386 . S
C1040 C1042 1.391 . S
C1041 C1040 1.386 . S
C1041 C1045 1.393 . S
C1042 H1034 0.950 . S
C1042 C1040 1.391 . S
C1042 C1043 1.400 . S
C1043 C1042 1.400 . S
C1043 C1044 1.398 . S
C1043 C1049 1.491 . S
C1044 H1035 0.950 . S
C1044 C1043 1.398 . S
C1044 C1045 1.391 . S
C1045 H1033 0.950 . S
C1045 C1041 1.393 . S
C1045 C1044 1.391 . S
C1046 H1036 0.950 . S
C1046 C1047 1.386 . S
C1046 C1048 1.391 . S
C1047 C1046 1.386 . S
C1047 C1051 1.393 . S
C1048 H1037 0.950 . S
C1048 C1046 1.391 . S
C1048 C1049 1.400 . S
C1049 C1043 1.491 . S
C1049 C1048 1.400 . S
C1049 C1050 1.398 . S
C1050 H1038 0.950 . S
C1050 C1049 1.398 . S
C1050 C1051 1.391 . S
C1051 H1039 0.950 . S
C1051 C1047 1.393 . S
C1051 C1050 1.391 . S
H1052 C1060 0.950 . S
H1053 C1065 0.950 . S
H1054 C1062 0.950 . S
H1055 C1064 0.950 . S
H1056 C1066 0.950 . S
H1057 C1068 0.950 . S
H1058 C1070 0.950 . S
H1059 C1071 0.950 . S
C1060 H1052 0.950 . S
C1060 C1061 1.386 . S
C1060 C1062 1.391 . S
C1061 C1060 1.386 . S
C1061 C1065 1.393 . S
C1062 H1054 0.950 . S
C1062 C1060 1.391 . S
C1062 C1063 1.400 . S
C1063 C1062 1.400 . S
C1063 C1064 1.398 . S
C1063 C1069 1.491 . S
C1064 H1055 0.950 . S
C1064 C1063 1.398 . S
C1064 C1065 1.391 . S
C1065 H1053 0.950 . S
C1065 C1061 1.393 . S
C1065 C1064 1.391 . S
C1066 H1056 0.950 . S
C1066 C1067 1.386 . S
C1066 C1068 1.391 . S
C1067 C1066 1.386 . S
C1067 C1071 1.393 . S
C1068 H1057 0.950 . S
C1068 C1066 1.391 . S
C1068 C1069 1.400 . S
C1069 C1063 1.491 . S
C1069 C1068 1.400 . S
C1069 C1070 1.398 . S
C1070 H1058 0.950 . S
C1070 C1069 1.398 . S
C1070 C1071 1.391 . S
C1071 H1059 0.950 . S
C1071 C1067 1.393 . S
C1071 C1070 1.391 . S
H1072 C1080 0.950 . S
H1073 C1085 0.950 . S
H1074 C1082 0.950 . S
H1075 C1084 0.950 . S
H1076 C1086 0.950 . S
H1077 C1088 0.950 . S
H1078 C1090 0.950 . S
H1079 C1091 0.950 . S
C1080 H1072 0.950 . S
C1080 C1081 1.386 . S
C1080 C1082 1.391 . S
C1081 C1080 1.386 . S
C1081 C1085 1.393 . S
C1082 H1074 0.950 . S
C1082 C1080 1.391 . S
C1082 C1083 1.400 . S
C1083 C1082 1.400 . S
C1083 C1084 1.398 . S
C1083 C1089 1.491 . S
C1084 H1075 0.950 . S
C1084 C1083 1.398 . S
C1084 C1085 1.391 . S
C1085 H1073 0.950 . S
C1085 C1081 1.393 . S
C1085 C1084 1.391 . S
C1086 H1076 0.950 . S
C1086 C1087 1.386 . S
C1086 C1088 1.391 . S
C1087 C1086 1.386 . S
C1087 C1091 1.393 . S
C1088 H1077 0.950 . S
C1088 C1086 1.391 . S
C1088 C1089 1.400 . S
C1089 C1083 1.491 . S
C1089 C1088 1.400 . S
C1089 C1090 1.398 . S
C1090 H1078 0.950 . S
C1090 C1089 1.398 . S
C1090 C1091 1.391 . S
C1091 H1079 0.950 . S
C1091 C1087 1.393 . S
C1091 C1090 1.391 . S
H1092 C1100 0.950 . S
H1093 C1105 0.950 . S
H1094 C1102 0.950 . S
H1095 C1104 0.950 . S
H1096 C1106 0.950 . S
H1097 C1108 0.950 . S
H1098 C1110 0.950 . S
H1099 C1111 0.950 . S
C1100 H1092 0.950 . S
C1100 C1101 1.386 . S
C1100 C1102 1.391 . S
C1101 C1100 1.386 . S
C1101 C1105 1.393 . S
C1102 H1094 0.950 . S
C1102 C1100 1.391 . S
C1102 C1103 1.400 . S
C1103 C1102 1.400 . S
C1103 C1104 1.398 . S
C1103 C1109 1.491 . S
C1104 H1095 0.950 . S
C1104 C1103 1.398 . S
C1104 C1105 1.391 . S
C1105 H1093 0.950 . S
C1105 C1101 1.393 . S
C1105 C1104 1.391 . S
C1106 H1096 0.950 . S
C1106 C1107 1.386 . S
C1106 C1108 1.391 . S
C1107 C1106 1.386 . S
C1107 C1111 1.393 . S
C1108 H1097 0.950 . S
C1108 C1106 1.391 . S
C1108 C1109 1.400 . S
C1109 C1103 1.491 . S
C1109 C1108 1.400 . S
C1109 C1110 1.398 . S
C1110 H1098 0.950 . S
C1110 C1109 1.398 . S
C1110 C1111 1.391 . S
C1111 H1099 0.950 . S
C1111 C1107 1.393 . S
C1111 C1110 1.391 . S
H1112 C1120 0.950 . S
H1113 C1125 0.950 . S
H1114 C1122 0.950 . S
H1115 C1124 0.950 . S
H1116 C1126 0.950 . S
H1117 C1128 0.950 . S
H1118 C1130 0.950 . S
H1119 C1131 0.950 . S
C1120 H1112 0.950 . S
C1120 C1121 1.386 . S
C1120 C1122 1.391 . S
C1121 C1120 1.386 . S
C1121 C1125 1.393 . S
C1122 H1114 0.950 . S
C1122 C1120 1.391 . S
C1122 C1123 1.400 . S
C1123 C1122 1.400 . S
C1123 C1124 1.398 . S
C1123 C1129 1.491 . S
C1124 H1115 0.950 . S
C1124 C1123 1.398 . S
C1124 C1125 1.391 . S
C1125 H1113 0.950 . S
C1125 C1121 1.393 . S
C1125 C1124 1.391 . S
C1126 H1116 0.950 . S
C1126 C1127 1.386 . S
C1126 C1128 1.391 . S
C1127 C1126 1.386 . S
C1127 C1131 1.393 . S
C1128 H1117 0.950 . S
C1128 C1126 1.391 . S
C1128 C1129 1.400 . S
C1129 C1123 1.491 . S
C1129 C1128 1.400 . S
C1129 C1130 1.398 . S
C1130 H1118 0.950 . S
C1130 C1129 1.398 . S
C1130 C1131 1.391 . S
C1131 H1119 0.950 . S
C1131 C1127 1.393 . S
C1131 C1130 1.391 . S
C507 C428 1.773 . S
C501 C1 1.838 . S
C521 C68 1.756 . S
C527 C431 1.713 . S
C541 C93 1.734 . S
C547 C462 1.691 . S
C567 C397 1.747 . S
C561 C139 1.812 . S
C587 C432 1.773 . S
C581 C8 1.837 . S
C607 C463 1.765 . S
C601 C61 1.810 . S
C627 C388 1.692 . S
C621 C100 1.737 . S
C647 C419 1.727 . S
C641 C146 1.759 . S
C661 C15 1.299 . S
C667 C449 1.208 . S
C681 C192 1.278 1_565 S
C687 C418 1.226 . S
C701 C107 1.214 . S
C707 C378 1.204 . S
C727 C471 1.208 . S
C721 C238 1.230 1_545 S
C747 C399 1.207 . S
C741 C22 1.299 . S
C761 C185 1.223 1_565 S
C767 C398 1.223 . S
C781 C114 1.215 . S
C787 C491 1.200 . S
C807 C430 1.218 . S
C801 C231 1.277 1_545 S
C821 C277 1.840 . S
C827 C490 1.793 . S
C841 C206 1.751 . S
C847 C369 1.719 . S
C861 C330 1.738 . S
C867 C400 1.700 . S
C881 C252 1.809 . S
C887 C459 1.765 . S
C907 C370 1.776 . S
C901 C284 1.836 . S
C921 C199 1.806 . S
C927 C401 1.750 . S
C941 C323 1.734 . S
C947 C450 1.688 . S
C967 C481 1.715 . S
C961 C245 1.757 . S
C981 C291 1.293 . S
C987 C387 1.236 . S
C1001 C54 1.282 . S
C1007 C480 1.193 . S
C1021 C344 1.206 . S
C1027 C440 1.203 . S
C1047 C409 1.210 . S
C1041 C153 1.229 . S
C1067 C461 1.228 . S
C1061 C298 1.297 . S
C1087 C460 1.222 . S
C1081 C47 1.220 . S
C1107 C429 1.208 . S
C1101 C337 1.213 . S
C1127 C368 1.225 . S
C1121 C160 1.278 . S
