# Generated by pormake.
# Topology pto, (3,4)-cn, num edge types: 1
# Building blocks:
#     Node 0, Type 0, BuildingBlock: BETDIP_clean_linker_0, # of connection points: 3
#     Node 1, Type 0, BuildingBlock: BETDIP_clean_linker_0, # of connection points: 3
#     Node 2, Type 0, BuildingBlock: BETDIP_clean_linker_0, # of connection points: 3
#     Node 3, Type 0, BuildingBlock: BETDIP_clean_linker_0, # of connection points: 3
#     Node 4, Type 0, BuildingBlock: BETDIP_clean_linker_0, # of connection points: 3
#     Node 5, Type 0, BuildingBlock: BETDIP_clean_linker_0, # of connection points: 3
#     Node 6, Type 0, BuildingBlock: BETDIP_clean_linker_0, # of connection points: 3
#     Node 7, Type 0, BuildingBlock: BETDIP_clean_linker_0, # of connection points: 3
#     Node 8, Type 1, BuildingBlock: KOZSID_clean_sbu_0, # of connection points: 4
#     Node 9, Type 1, BuildingBlock: KOZSID_clean_sbu_0, # of connection points: 4
#     Node 10, Type 1, BuildingBlock: KOZSID_clean_sbu_0, # of connection points: 4
#     Node 11, Type 1, BuildingBlock: KOZSID_clean_sbu_0, # of connection points: 4
#     Node 12, Type 1, BuildingBlock: KOZSID_clean_sbu_0, # of connection points: 4
#     Node 13, Type 1, BuildingBlock: KOZSID_clean_sbu_0, # of connection points: 4
#     Edge 14, Type (0, 1), BuildingBlock: XIVTED_clean_linker_0, # of connection points: 2
#     Edge 15, Type (0, 1), BuildingBlock: XIVTED_clean_linker_0, # of connection points: 2
#     Edge 16, Type (0, 1), BuildingBlock: XIVTED_clean_linker_0, # of connection points: 2
#     Edge 17, Type (0, 1), BuildingBlock: XIVTED_clean_linker_0, # of connection points: 2
#     Edge 18, Type (0, 1), BuildingBlock: XIVTED_clean_linker_0, # of connection points: 2
#     Edge 19, Type (0, 1), BuildingBlock: XIVTED_clean_linker_0, # of connection points: 2
#     Edge 20, Type (0, 1), BuildingBlock: XIVTED_clean_linker_0, # of connection points: 2
#     Edge 21, Type (0, 1), BuildingBlock: XIVTED_clean_linker_0, # of connection points: 2
#     Edge 22, Type (0, 1), BuildingBlock: XIVTED_clean_linker_0, # of connection points: 2
#     Edge 23, Type (0, 1), BuildingBlock: XIVTED_clean_linker_0, # of connection points: 2
#     Edge 24, Type (0, 1), BuildingBlock: XIVTED_clean_linker_0, # of connection points: 2
#     Edge 25, Type (0, 1), BuildingBlock: XIVTED_clean_linker_0, # of connection points: 2
#     Edge 26, Type (0, 1), BuildingBlock: XIVTED_clean_linker_0, # of connection points: 2
#     Edge 27, Type (0, 1), BuildingBlock: XIVTED_clean_linker_0, # of connection points: 2
#     Edge 28, Type (0, 1), BuildingBlock: XIVTED_clean_linker_0, # of connection points: 2
#     Edge 29, Type (0, 1), BuildingBlock: XIVTED_clean_linker_0, # of connection points: 2
#     Edge 30, Type (0, 1), BuildingBlock: XIVTED_clean_linker_0, # of connection points: 2
#     Edge 31, Type (0, 1), BuildingBlock: XIVTED_clean_linker_0, # of connection points: 2
#     Edge 32, Type (0, 1), BuildingBlock: XIVTED_clean_linker_0, # of connection points: 2
#     Edge 33, Type (0, 1), BuildingBlock: XIVTED_clean_linker_0, # of connection points: 2
#     Edge 34, Type (0, 1), BuildingBlock: XIVTED_clean_linker_0, # of connection points: 2
#     Edge 35, Type (0, 1), BuildingBlock: XIVTED_clean_linker_0, # of connection points: 2
#     Edge 36, Type (0, 1), BuildingBlock: XIVTED_clean_linker_0, # of connection points: 2
#     Edge 37, Type (0, 1), BuildingBlock: XIVTED_clean_linker_0, # of connection points: 2
# Relax obj value: 0.011
# Max RMSD: 0.132
# Mean RMSD: 0.060
data_MOF--net-pto--node1-KOZSID_clean_sbu_0--node2-BETDIP_clean_linker_0--edge1-XIVTED_clean_linker_0
_symmetry_space_group_name_H-M    P1
_symmetry_Int_Tables_number       1
_symmetry_cell_setting            triclinic
loop_
_symmetry_equiv_pos_as_xyz
'x, y, z'
_cell_length_a     36.873092
_cell_length_b     51.456486
_cell_length_c     45.062089
_cell_angle_alpha  95.743139
_cell_angle_beta   102.96301
_cell_angle_gamma 107.5861
loop_
_atom_site_label
_atom_site_type_symbol
_atom_site_fract_x
_atom_site_fract_y
_atom_site_fract_z
_atom_type_partial_charge
H0 H 0.15272 0.30846 0.32823 0.0
H1 H 0.20048 0.2629 0.27151 0.0
H2 H 0.23572 0.35142 0.28093 0.0
H3 H 0.14347 0.22782 0.26917 0.0
C4 C 0.1427 0.23114 0.29318 0.0
C5 C 0.17196 0.30831 0.31327 0.0
C6 C 0.19393 0.33322 0.30613 0.0
C7 C 0.17353 0.28288 0.30054 0.0
C8 C 0.1979 0.28232 0.28071 0.0
C9 C 0.2204 0.30701 0.2736 0.0
C10 C 0.2184 0.33236 0.28647 0.0
N11 N 0.15185 0.25843 0.30939 0.0
H12 H 0.18593 0.7945 0.65972 0.0
H13 H 0.29683 0.85508 0.71276 0.0
H14 H 0.2523 0.77782 0.74261 0.0
H15 H 0.2677 0.88469 0.69257 0.0
C16 C 0.25141 0.87412 0.66908 0.0
C17 C 0.21186 0.80076 0.67931 0.0
C18 C 0.21575 0.78313 0.70071 0.0
C19 C 0.24027 0.82709 0.6839 0.0
C20 C 0.27385 0.83525 0.70946 0.0
C21 C 0.27857 0.81736 0.73044 0.0
C22 C 0.24924 0.79147 0.72607 0.0
N23 N 0.23416 0.84476 0.66241 0.0
H24 H 0.83484 0.79958 0.31164 0.0
H25 H 0.87675 0.83996 0.40706 0.0
H26 H 0.80628 0.87149 0.34037 0.0
H27 H 0.92643 0.82147 0.40632 0.0
C28 C 0.91029 0.8013 0.39169 0.0
C29 C 0.8372 0.81627 0.32944 0.0
C30 C 0.81729 0.83513 0.32226 0.0
C31 C 0.85973 0.81839 0.35968 0.0
C32 C 0.86141 0.83917 0.38334 0.0
C33 C 0.84129 0.85803 0.37661 0.0
C34 C 0.82038 0.85626 0.3459 0.0
N35 N 0.87823 0.79822 0.36573 0.0
H36 H 0.7045 0.25905 0.84061 0.0
H37 H 0.73045 0.34736 0.85803 0.0
H38 H 0.77623 0.31087 0.79151 0.0
H39 H 0.73129 0.33619 0.90808 0.0
C40 C 0.70309 0.31943 0.90153 0.0
C41 C 0.71831 0.27928 0.83553 0.0
C42 C 0.74128 0.28204 0.81424 0.0
C43 C 0.71486 0.30274 0.85176 0.0
C44 C 0.73324 0.32917 0.84576 0.0
C45 C 0.75579 0.33223 0.82428 0.0
C46 C 0.75938 0.30857 0.80852 0.0
N47 N 0.69328 0.29934 0.87437 0.0
H48 H 0.83994 0.81894 0.85179 0.0
H49 H 0.85613 0.84792 0.76791 0.0
H50 H 0.80356 0.88742 0.8261 0.0
H51 H 0.86011 0.80652 0.7537 0.0
C52 C 0.86731 0.79748 0.77403 0.0
C53 C 0.83665 0.83314 0.836 0.0
C54 C 0.8207 0.85387 0.84286 0.0
C55 C 0.8482 0.83015 0.80864 0.0
C56 C 0.84562 0.84908 0.78838 0.0
C57 C 0.83057 0.87036 0.79518 0.0
C58 C 0.81736 0.87208 0.82197 0.0
N59 N 0.8624 0.80789 0.80275 0.0
H60 H 0.70414 0.28159 0.40324 0.0
H61 H 0.82179 0.3291 0.45831 0.0
H62 H 0.76153 0.36367 0.38845 0.0
H63 H 0.82499 0.28336 0.45295 0.0
C64 C 0.79767 0.27257 0.45836 0.0
C65 C 0.72929 0.30055 0.40899 0.0
C66 C 0.7283 0.32246 0.39288 0.0
C67 C 0.76312 0.3025 0.43201 0.0
C68 C 0.79589 0.32712 0.44002 0.0
C69 C 0.79475 0.34955 0.42495 0.0
C70 C 0.76119 0.34689 0.40126 0.0
N71 N 0.76322 0.27939 0.44678 0.0
H72 H 0.1185 0.29773 0.709 0.0
H73 H 0.18806 0.25802 0.76518 0.0
H74 H 0.17783 0.33403 0.80481 0.0
H75 H 0.13681 0.21885 0.73184 0.0
C76 C 0.13881 0.22625 0.71031 0.0
C77 C 0.13729 0.29745 0.73114 0.0
C78 C 0.14614 0.31865 0.75656 0.0
C79 C 0.15135 0.2752 0.73427 0.0
C80 C 0.17594 0.27467 0.76279 0.0
C81 C 0.18536 0.2958 0.78829 0.0
C82 C 0.17002 0.31752 0.78517 0.0
N83 N 0.14136 0.25406 0.70814 0.0
H84 H 0.32255 0.85305 0.26252 0.0
H85 H 0.32447 0.76964 0.26142 0.0
H86 H 0.2612 0.80089 0.31692 0.0
H87 H 0.38034 0.78728 0.24616 0.0
C88 C 0.37412 0.80189 0.23167 0.0
C89 C 0.31371 0.83342 0.27032 0.0
C90 C 0.29107 0.82988 0.29176 0.0
C91 C 0.3263 0.81202 0.25949 0.0
C92 C 0.31553 0.78651 0.26986 0.0
C93 C 0.29284 0.78274 0.29128 0.0
C94 C 0.28026 0.8043 0.30152 0.0
N95 N 0.34921 0.81689 0.23785 0.0
C96 C 0.14964 0.61459 0.39428 0.0
C97 C 0.18551 0.62894 0.4159 0.0
C98 C 0.18176 0.62192 0.4437 0.0
C99 C 0.14421 0.60349 0.43748 0.0
N100 N 0.12368 0.59824 0.40736 0.0
Co101 Co 0.06946 0.57079 0.38787 0.0
N102 N 0.06443 0.5601 0.42877 0.0
C103 C 0.0903 0.57168 0.45682 0.0
C104 C 0.07881 0.55993 0.48066 0.0
C105 C 0.04359 0.53945 0.46702 0.0
C106 C 0.03575 0.53987 0.43551 0.0
N107 N 0.01586 0.54246 0.36817 0.0
C108 C 0.99239 0.52339 0.38055 0.0
C109 C 0.95849 0.5064 0.35838 0.0
C110 C 0.96073 0.5149 0.33095 0.0
C111 C 0.99577 0.53639 0.33786 0.0
N112 N 0.07397 0.58206 0.34708 0.0
C113 C 0.04594 0.57272 0.31966 0.0
C114 C 0.05648 0.58531 0.29607 0.0
C115 C 0.09342 0.60389 0.30911 0.0
C116 C 0.10358 0.60133 0.34004 0.0
N117 N 0.09346 0.54201 0.38032 0.0
C118 C 0.12727 0.50108 0.36884 0.0
C119 C 0.10058 0.50652 0.34507 0.0
C120 C 0.08415 0.52682 0.35127 0.0
C121 C 0.13662 0.51636 0.39859 0.0
C122 C 0.11958 0.53668 0.40377 0.0
N123 N 0.0454 0.59982 0.39534 0.0
C124 C 0.99712 0.62173 0.37732 0.0
C125 C 0.01327 0.64254 0.4036 0.0
C126 C 0.04552 0.64135 0.42601 0.0
C127 C 0.06091 0.61992 0.4215 0.0
C128 C 0.01332 0.6008 0.37377 0.0
H129 H 0.08551 0.62022 0.43939 0.0
H130 H -0.00048 0.58591 0.35308 0.0
H131 H 0.06381 0.52975 0.33216 0.0
H132 H 0.12795 0.54781 0.42688 0.0
C133 C 0.12711 0.59122 0.45951 0.0
C134 C 0.1414 0.6179 0.36187 0.0
C135 C 0.00145 0.52005 0.41284 0.0
C136 C 0.01065 0.55126 0.31646 0.0
H137 H 0.21165 0.6432 0.41204 0.0
H138 H 0.20376 0.62941 0.46583 0.0
H139 H 0.09486 0.56496 0.50491 0.0
H140 H 0.02607 0.52535 0.47878 0.0
H141 H 0.9348 0.48938 0.36161 0.0
H142 H 0.93959 0.50622 0.30856 0.0
H143 H 0.03937 0.58139 0.27218 0.0
H144 H 0.11069 0.61777 0.29705 0.0
H145 H 0.09179 0.49483 0.32176 0.0
H146 H 0.1573 0.5129 0.41771 0.0
H147 H 0.97254 0.62185 0.35897 0.0
H148 H 0.05882 0.65679 0.447 0.0
C149 C 0.05631 0.59156 0.74159 0.0
C150 C 0.09402 0.6054 0.76067 0.0
C151 C 0.09671 0.59379 0.78689 0.0
C152 C 0.06063 0.57358 0.7822 0.0
N153 N 0.0357 0.57174 0.75466 0.0
Co154 Co 0.98066 0.54616 0.73822 0.0
N155 N 0.97697 0.53978 0.78035 0.0
C156 C 0.00759 0.54637 0.80588 0.0
C157 C 0.9961 0.54002 0.83192 0.0
C158 C 0.95588 0.52811 0.8221 0.0
C159 C 0.94504 0.52755 0.79038 0.0
N160 N 0.9254 0.52041 0.72152 0.0
C161 C 0.89803 0.50898 0.73647 0.0
C162 C 0.86357 0.49111 0.71551 0.0
C163 C 0.86998 0.49092 0.68674 0.0
C164 C 0.9078 0.50859 0.69154 0.0
N165 N 0.98495 0.5528 0.69632 0.0
C166 C 0.96156 0.53706 0.66915 0.0
C167 C 0.97065 0.54821 0.64417 0.0
C168 C 0.00155 0.57251 0.65653 0.0
C169 C 0.00966 0.57467 0.68843 0.0
N170 N 0.00028 0.51507 0.73344 0.0
C171 C 0.03278 0.47247 0.73336 0.0
C172 C 0.0497 0.49669 0.72258 0.0
C173 C 0.03291 0.51773 0.72275 0.0
C174 C 0.99815 0.46949 0.74253 0.0
C175 C 0.98248 0.49091 0.74235 0.0
N176 N 0.96151 0.5774 0.74308 0.0
C177 C 0.92155 0.60392 0.72188 0.0
C178 C 0.9383 0.62429 0.74873 0.0
C179 C 0.96648 0.62041 0.77284 0.0
C180 C 0.97757 0.59689 0.76959 0.0
C181 C 0.93347 0.58064 0.71955 0.0
H182 H -0.00021 0.5948 0.78835 0.0
H183 H 0.92038 0.56547 0.69852 0.0
H184 H 0.04698 0.53647 0.71505 0.0
H185 H 0.95642 0.48805 0.75012 0.0
C186 C 0.04612 0.56093 0.80517 0.0
C187 C 0.04089 0.59721 0.71104 0.0
C188 C 0.906 0.51036 0.77021 0.0
C189 C 0.92643 0.51633 0.66835 0.0
H190 H 0.11679 0.62235 0.75628 0.0
H191 H 0.12111 0.60053 0.80761 0.0
H192 H 0.01468 0.54366 0.85528 0.0
H193 H 0.93684 0.51942 0.8363 0.0
H194 H 0.83708 0.47854 0.72051 0.0
H195 H 0.84949 0.47923 0.66494 0.0
H196 H 0.95496 0.54064 0.61997 0.0
H197 H 0.01569 0.5871 0.64352 0.0
H198 H 0.07644 0.49982 0.71516 0.0
H199 H 0.98341 0.45083 0.75023 0.0
H200 H 0.89927 0.60584 0.7028 0.0
H201 H 0.98064 0.63575 0.79388 0.0
C202 C 0.22403 0.01436 0.50785 0.0
C203 C 0.26363 0.0199 0.52257 0.0
C204 C 0.28454 0.04203 0.51206 0.0
C205 C 0.25672 0.04861 0.49143 0.0
N206 N 0.21921 0.03205 0.48813 0.0
Co207 Co 0.17004 0.0333 0.45909 0.0
N208 N 0.20071 0.06712 0.44535 0.0
C209 C 0.24012 0.08077 0.45521 0.0
C210 C 0.25249 0.10374 0.4423 0.0
C211 C 0.21894 0.10512 0.42332 0.0
C212 C 0.18792 0.08278 0.4258 0.0
N213 N 0.12106 0.03404 0.42936 0.0
C214 C 0.11604 0.05237 0.41055 0.0
C215 C 0.07701 0.04519 0.39344 0.0
C216 C 0.05657 0.02151 0.40182 0.0
C217 C 0.08416 0.01561 0.42346 0.0
N218 N 0.13919 0.00012 0.47376 0.0
C219 C 0.09966 0.98691 0.46437 0.0
C220 C 0.08667 0.96561 0.4795 0.0
C221 C 0.11985 0.96515 0.49988 0.0
C222 C 0.15136 0.98616 0.49576 0.0
N223 N 0.16202 0.05775 0.49201 0.0
C224 C 0.15099 0.09339 0.53805 0.0
C225 C 0.11913 0.07132 0.51912 0.0
C226 C 0.12521 0.05398 0.49622 0.0
C227 C 0.18845 0.09716 0.53382 0.0
C228 C 0.19331 0.07912 0.51102 0.0
N229 N 0.17826 0.00875 0.42609 0.0
C230 C 0.15733 0.96459 0.39178 0.0
C231 C 0.19355 0.9714 0.38459 0.0
C232 C 0.22109 0.9977 0.39701 0.0
C233 C 0.21298 0.01586 0.41762 0.0
C234 C 0.15013 0.98359 0.41207 0.0
H235 H 0.23584 0.03517 0.42694 0.0
H236 H 0.12193 0.97715 0.41652 0.0
H237 H 0.09973 0.03777 0.48208 0.0
H238 H 0.22267 0.08289 0.50916 0.0
C239 C 0.2648 0.07105 0.47607 0.0
C240 C 0.19223 0.99198 0.51327 0.0
C241 C 0.14691 0.07737 0.4091 0.0
C242 C 0.0757 0.99451 0.44061 0.0
H243 H 0.27619 0.00908 0.53923 0.0
H244 H 0.31623 0.05226 0.51884 0.0
H245 H 0.28234 0.1178 0.44623 0.0
H246 H 0.21749 0.12081 0.40923 0.0
H247 H 0.06445 0.05625 0.37709 0.0
H248 H 0.02512 0.01039 0.3938 0.0
H249 H 0.05667 0.95198 0.47606 0.0
H250 H 0.12067 0.95091 0.51593 0.0
H251 H 0.08953 0.06777 0.52156 0.0
H252 H 0.21406 0.1138 0.54831 0.0
H253 H 0.13492 0.94447 0.38223 0.0
H254 H 0.24964 0.00379 0.3921 0.0
C255 C 0.53843 0.87128 0.06483 0.0
C256 C 0.53391 0.89497 0.07883 0.0
C257 C 0.55388 0.91657 0.0667 0.0
C258 C 0.56966 0.90496 0.04623 0.0
N259 N 0.56082 0.87745 0.04482 0.0
Co260 Co 0.57893 0.85261 0.01967 0.0
N261 N 0.62261 0.88417 0.01488 0.0
C262 C 0.62596 0.91114 0.02041 0.0
C263 C 0.66048 0.92843 0.01669 0.0
C264 C 0.67971 0.91126 0.00785 0.0
C265 C 0.65545 0.88426 0.00612 0.0
N266 N 0.59639 0.82754 0.99426 0.0
C267 C 0.63048 0.83236 0.9858 0.0
C268 C 0.62895 0.80936 0.9658 0.0
C269 C 0.59273 0.78974 0.96167 0.0
C270 C 0.57399 0.8017 0.97911 0.0
N271 N 0.53529 0.82117 0.02454 0.0
C272 C 0.51912 0.79604 0.00628 0.0
C273 C 0.48917 0.77858 0.01561 0.0
C274 C 0.48642 0.79382 0.04132 0.0
C275 C 0.51504 0.81973 0.0462 0.0
N276 N 0.54415 0.85668 0.98204 0.0
C277 C 0.49241 0.85741 0.92658 0.0
C278 C 0.47985 0.85532 0.95362 0.0
C279 C 0.50613 0.8549 0.98108 0.0
C280 C 0.5318 0.86032 0.92817 0.0
C281 C 0.55723 0.86013 0.95613 0.0
N282 N 0.61355 0.84848 0.05722 0.0
C283 C 0.63774 0.81938 0.08931 0.0
C284 C 0.65882 0.84232 0.11301 0.0
C285 C 0.65776 0.86848 0.10785 0.0
C286 C 0.63526 0.87114 0.07976 0.0
C287 C 0.61506 0.82288 0.06164 0.0
H288 H 0.63483 0.89151 0.07655 0.0
H289 H 0.59808 0.8048 0.04408 0.0
H290 H 0.49536 0.85238 0.00134 0.0
H291 H 0.58724 0.86208 0.95649 0.0
C292 C 0.59961 0.91957 0.03382 0.0
C293 C 0.52051 0.84311 0.07007 0.0
C294 C 0.66236 0.85937 0.99286 0.0
C295 C 0.53767 0.78827 0.98472 0.0
H296 H 0.51847 0.89667 0.0963 0.0
H297 H 0.55843 0.93834 0.07351 0.0
H298 H 0.67111 0.95087 0.02098 0.0
H299 H 0.70809 0.91793 0.00279 0.0
H300 H 0.65104 0.80712 0.95447 0.0
H301 H 0.58162 0.76911 0.9479 0.0
H302 H 0.4725 0.75703 0.00578 0.0
H303 H 0.46571 0.78674 0.05483 0.0
H304 H 0.44954 0.85289 0.95331 0.0
H305 H 0.5428 0.86237 0.90785 0.0
H306 H 0.63772 0.79879 0.09252 0.0
H307 H 0.67408 0.88678 0.12549 0.0
C308 C 0.84015 0.03332 0.66134 0.0
C309 C 0.87721 0.03485 0.67877 0.0
C310 C 0.90379 0.05747 0.67324 0.0
C311 C 0.88166 0.06827 0.65265 0.0
N312 N 0.84242 0.05415 0.64487 0.0
Co313 Co 0.80013 0.06139 0.61356 0.0
N314 N 0.83954 0.0943 0.6049 0.0
C315 C 0.87869 0.10492 0.6191 0.0
C316 C 0.89784 0.12878 0.61015 0.0
C317 C 0.86922 0.13394 0.5891 0.0
C318 C 0.83411 0.11261 0.58612 0.0
N319 N 0.75806 0.06797 0.58136 0.0
C320 C 0.76062 0.08786 0.56354 0.0
C321 C 0.72435 0.08415 0.54315 0.0
C322 C 0.69777 0.06151 0.54873 0.0
C323 C 0.71926 0.05253 0.57188 0.0
N324 N 0.7605 0.02911 0.62304 0.0
C325 C 0.72086 0.02001 0.61094 0.0
C326 C 0.70127 0.9977 0.6222 0.0
C327 C 0.73009 0.9921 0.64266 0.0
C328 C 0.76578 0.0113 0.64251 0.0
N329 N 0.79194 0.08647 0.64602 0.0
C330 C 0.78087 0.12497 0.68933 0.0
C331 C 0.74892 0.10656 0.66614 0.0
C332 C 0.75503 0.08757 0.64509 0.0
C333 C 0.81829 0.12303 0.69108 0.0
C334 C 0.82313 0.10386 0.66938 0.0
N335 N 0.80825 0.03635 0.58111 0.0
C336 C 0.78198 0.99601 0.54043 0.0
C337 C 0.81934 -0.00039 0.53594 0.0
C338 C 0.85114 0.02201 0.5545 0.0
C339 C 0.84498 0.04001 0.57675 0.0
C340 C 0.77713 0.01447 0.56278 0.0
H341 H 0.87036 0.05671 0.59015 0.0
H342 H 0.74787 0.01043 0.56488 0.0
H343 H 0.72942 0.07435 0.62793 0.0
H344 H 0.85247 0.10376 0.67179 0.0
C345 C 0.89676 0.09185 0.64054 0.0
C346 C 0.80387 0.01143 0.6608 0.0
C347 C 0.79633 0.11097 0.56564 0.0
C348 C 0.70338 0.03108 0.58684 0.0
H349 H 0.88442 0.02093 0.69373 0.0
H350 H 0.93552 0.065 0.68287 0.0
H351 H 0.92886 0.14111 0.6182 0.0
H352 H 0.87381 0.15165 0.57759 0.0
H353 H 0.71763 0.09676 0.52628 0.0
H354 H 0.66637 0.05299 0.5377 0.0
H355 H 0.66987 0.98636 0.61567 0.0
H356 H 0.72543 0.97547 0.65581 0.0
H357 H 0.71933 0.10726 0.66352 0.0
H358 H 0.84396 0.13633 0.70903 0.0
H359 H 0.75642 0.97873 0.52705 0.0
H360 H 0.88062 0.02589 0.55169 0.0
C361 C 0.40956 0.32982 0.11982 0.0
C362 C 0.40319 0.3545 0.12795 0.0
C363 C 0.43068 0.3748 0.11974 0.0
C364 C 0.45187 0.36136 0.10682 0.0
N365 N 0.43944 0.3337 0.1061 0.0
Co366 Co 0.46056 0.3062 0.08769 0.0
N367 N 0.50381 0.33639 0.07886 0.0
C368 C 0.51219 0.36401 0.08703 0.0
C369 C 0.5435 0.37973 0.07785 0.0
C370 C 0.55582 0.36108 0.06281 0.0
C371 C 0.53123 0.33488 0.06374 0.0
N372 N 0.48001 0.2786 0.06734 0.0
C373 C 0.50844 0.28246 0.05205 0.0
C374 C 0.51134 0.25745 0.0401 0.0
C375 C 0.48319 0.23703 0.0475 0.0
C376 C 0.46484 0.25068 0.06351 0.0
N377 N 0.41898 0.27613 0.09843 0.0
C378 C 0.41357 0.24869 0.0936 0.0
C379 C 0.38515 0.23326 0.10582 0.0
C380 C 0.37196 0.25199 0.11974 0.0
C381 C 0.39291 0.27787 0.11488 0.0
N382 N 0.42428 0.30383 0.04689 0.0
C383 C 0.37239 0.30061 0.98935 0.0
C384 C 0.3692 0.2773 0.00325 0.0
C385 C 0.39558 0.27926 0.03165 0.0
C386 C 0.40195 0.3255 0.0045 0.0
C387 C 0.42713 0.32673 0.03318 0.0
N388 N 0.49664 0.30856 0.12863 0.0
C389 C 0.5301 0.28689 0.16579 0.0
C390 C 0.5431 0.31074 0.18851 0.0
C391 C 0.53316 0.33372 0.18031 0.0
C392 C 0.51065 0.33233 0.15045 0.0
C393 C 0.50691 0.28618 0.1364 0.0
H394 H 0.50458 0.35071 0.14574 0.0
H395 H 0.49748 0.26716 0.1205 0.0
H396 H 0.3922 0.26058 0.04074 0.0
H397 H 0.44855 0.3465 0.0438 0.0
C398 C 0.48647 0.3744 0.09886 0.0
C399 C 0.38792 0.30355 0.12709 0.0
C400 C 0.53321 0.30927 0.04812 0.0
C401 C 0.43484 0.23799 0.07673 0.0
H402 H 0.38159 0.35763 0.13941 0.0
H403 H 0.43559 0.39683 0.12378 0.0
H404 H 0.55472 0.40208 0.08036 0.0
H405 H 0.5793 0.36632 0.05147 0.0
H406 H 0.53173 0.25427 0.02735 0.0
H407 H 0.47698 0.2149 0.04202 0.0
H408 H 0.37543 0.21106 0.10493 0.0
H409 H 0.34975 0.24707 0.13235 0.0
H410 H 0.34683 0.25753 0.99202 0.0
H411 H 0.40517 0.34411 0.99451 0.0
H412 H 0.53778 0.26871 0.17044 0.0
H413 H 0.54201 0.3527 0.19691 0.0
H414 H 0.18893 0.35141 0.36413 0.0
H415 H 0.1553 0.49057 0.31936 0.0
H416 H 0.18975 0.37588 0.27531 0.0
H417 H 0.13796 0.46169 0.40348 0.0
H418 H 0.17675 0.45157 0.30609 0.0
H419 H 0.17819 0.39433 0.38186 0.0
C420 C 0.18691 0.3658 0.34837 0.0
C421 C 0.19005 0.35993 0.3181 0.0
C422 C 0.16848 0.4538 0.32754 0.0
C423 C 0.17824 0.40918 0.33837 0.0
C424 C 0.15611 0.47602 0.33509 0.0
C425 C 0.14431 0.47916 0.36236 0.0
C426 C 0.16902 0.43445 0.34736 0.0
C427 C 0.14686 0.46007 0.38224 0.0
C428 C 0.181 0.39035 0.35857 0.0
C429 C 0.18797 0.37961 0.29892 0.0
N430 N 0.15861 0.43835 0.37421 0.0
N431 N 0.18201 0.40324 0.30933 0.0
H432 H 0.18527 0.73931 0.65223 0.0
H433 H 0.03888 0.64612 0.73716 0.0
H434 H 0.17521 0.7667 0.74266 0.0
H435 H 0.08534 0.61067 0.66989 0.0
H436 H 0.07647 0.69258 0.73107 0.0
H437 H 0.13653 0.69378 0.65034 0.0
C438 C 0.17237 0.73577 0.67144 0.0
C439 C 0.18425 0.75649 0.69773 0.0
C440 C 0.07791 0.67464 0.71724 0.0
C441 C 0.12872 0.70511 0.69565 0.0
C442 C 0.0564 0.64825 0.72061 0.0
C443 C 0.05871 0.62477 0.70362 0.0
C444 C 0.10194 0.67749 0.69678 0.0
C445 C 0.08214 0.62837 0.68278 0.0
C446 C 0.14482 0.70989 0.67043 0.0
C447 C 0.16695 0.75106 0.72213 0.0
N448 N 0.10304 0.65433 0.67998 0.0
N449 N 0.14004 0.72588 0.72051 0.0
H450 H 0.98031 0.80307 0.42941 0.0
H451 H 0.93572 0.63969 0.38733 0.0
H452 H 0.87344 0.74636 0.36556 0.0
H453 H 0.0536 0.69798 0.42693 0.0
H454 H 0.91008 0.67816 0.38704 0.0
H455 H 0.00537 0.76428 0.4362 0.0
C456 C 0.96213 0.78244 0.41695 0.0
C457 C 0.92499 0.77792 0.39671 0.0
C458 C 0.94155 0.68253 0.39592 0.0
C459 C 0.95306 0.7336 0.40455 0.0
C460 C 0.95627 0.66057 0.39601 0.0
C461 C 0.99702 0.66557 0.40672 0.0
C462 C 0.96762 0.70978 0.40683 0.0
C463 C 0.02199 0.69308 0.41854 0.0
C464 C 0.97641 0.76038 0.42078 0.0
C465 C 0.90243 0.75084 0.38116 0.0
N466 N 0.00692 0.71418 0.4181 0.0
N467 N 0.91682 0.72972 0.38543 0.0
H468 H 0.7287 0.37603 0.81545 0.0
H469 H 0.93217 0.46931 0.78934 0.0
H470 H 0.83205 0.35181 0.82167 0.0
H471 H 0.83 0.49546 0.77667 0.0
H472 H 0.89605 0.42758 0.80491 0.0
H473 H 0.76518 0.42115 0.80484 0.0
C474 C 0.7591 0.38029 0.81477 0.0
C475 C 0.77729 0.36007 0.8191 0.0
C476 C 0.88129 0.44234 0.79883 0.0
C477 C 0.81895 0.41135 0.80703 0.0
C478 C 0.90199 0.46623 0.7899 0.0
C479 C 0.8839 0.48574 0.78151 0.0
C480 C 0.84192 0.43763 0.79929 0.0
C481 C 0.84482 0.48078 0.78291 0.0
C482 C 0.77979 0.40594 0.80861 0.0
C483 C 0.81663 0.36657 0.8179 0.0
N484 N 0.82492 0.45705 0.7915 0.0
N485 N 0.83601 0.39155 0.81193 0.0
H486 H 0.13827 0.23067 0.35322 0.0
H487 H 0.1303 0.07306 0.34643 0.0
H488 H 0.1303 0.17752 0.26994 0.0
H489 H 0.14267 0.12747 0.42987 0.0
H490 H 0.12203 0.10923 0.31656 0.0
H491 H 0.13184 0.19145 0.38031 0.0
C492 C 0.13484 0.21067 0.34055 0.0
C493 C 0.13515 0.2073 0.30935 0.0
C494 C 0.12608 0.11319 0.34134 0.0
C495 C 0.12798 0.16236 0.34027 0.0
C496 C 0.13062 0.09256 0.35825 0.0
C497 C 0.13706 0.09756 0.39041 0.0
C498 C 0.12829 0.13895 0.35688 0.0
C499 C 0.13765 0.12305 0.405 0.0
C500 C 0.13117 0.18826 0.35605 0.0
C501 C 0.13038 0.18092 0.29406 0.0
N502 N 0.1336 0.14293 0.38813 0.0
N503 N 0.1273 0.15947 0.30974 0.0
H504 H 0.32782 0.78818 0.74782 0.0
H505 H 0.43692 0.88308 0.91325 0.0
H506 H 0.30864 0.86485 0.77407 0.0
H507 H 0.48295 0.82525 0.87166 0.0
H508 H 0.38742 0.87562 0.8638 0.0
H509 H 0.38286 0.80017 0.79445 0.0
C510 C 0.33544 0.80762 0.76341 0.0
C511 C 0.31375 0.82555 0.75728 0.0
C512 C 0.40864 0.86481 0.86547 0.0
C513 C 0.37625 0.83928 0.81071 0.0
C514 C 0.43668 0.86893 0.89366 0.0
C515 C 0.46399 0.85474 0.89649 0.0
C516 C 0.40752 0.84598 0.84017 0.0
C517 C 0.46264 0.83678 0.87038 0.0
C518 C 0.36688 0.81451 0.78991 0.0
C519 C 0.32485 0.85057 0.77801 0.0
N520 N 0.43462 0.8327 0.84341 0.0
N521 N 0.35511 0.85658 0.80407 0.0
H522 H 0.90133 0.89007 0.42752 0.0
H523 H 0.77017 0.97583 0.47809 0.0
H524 H 0.77803 0.8731 0.38262 0.0
H525 H 0.88059 0.97885 0.53896 0.0
H526 H 0.77659 0.94153 0.44024 0.0
H527 H 0.89781 0.92536 0.46674 0.0
C528 C 0.87354 0.89365 0.42596 0.0
C529 C 0.84007 0.87882 0.40147 0.0
C530 C 0.79945 0.94964 0.46188 0.0
C531 C 0.83604 0.91928 0.44586 0.0
C532 C 0.79573 0.96919 0.4836 0.0
C533 C 0.8246 0.98002 0.512 0.0
C534 C 0.83244 0.94084 0.46833 0.0
C535 C 0.85767 0.97117 0.51734 0.0
C536 C 0.87162 0.91385 0.44824 0.0
C537 C 0.80489 0.88444 0.40055 0.0
N538 N 0.86066 0.952 0.49573 0.0
N539 N 0.80389 0.90425 0.42226 0.0
H540 H 0.62613 0.28541 0.89097 0.0
H541 H 0.61387 0.32818 0.06288 0.0
H542 H 0.72195 0.34718 0.96022 0.0
H543 H 0.51062 0.29225 0.98558 0.0
H544 H 0.6557 0.33008 0.02715 0.0
H545 H 0.5847 0.28229 0.92699 0.0
C546 C 0.63848 0.29821 0.91381 0.0
C547 C 0.67748 0.31658 0.92277 0.0
C548 C 0.62389 0.32183 0.018 0.0
C549 C 0.63049 0.313 0.96396 0.0
C550 C 0.60017 0.32077 0.03832 0.0
C551 C 0.55898 0.31034 0.02692 0.0
C552 C 0.60619 0.31192 0.98618 0.0
C553 C 0.54237 0.30057 0.99507 0.0
C554 C 0.61481 0.2965 0.93427 0.0
C555 C 0.69197 0.33278 0.95251 0.0
N556 N 0.56605 0.30152 0.97574 0.0
N557 N 0.66853 0.33054 0.97214 0.0
H558 H 0.2147 0.85642 0.60682 0.0
H559 H 0.21935 0.00773 0.57594 0.0
H560 H 0.26981 0.92996 0.6774 0.0
H561 H 0.1864 0.93754 0.50281 0.0
H562 H 0.2348 0.97905 0.61401 0.0
H563 H 0.20083 0.88519 0.56867 0.0
C564 C 0.22388 0.87863 0.61428 0.0
C565 C 0.24331 0.89091 0.64531 0.0
C566 C 0.22426 0.96989 0.58965 0.0
C567 C 0.22746 0.92389 0.60186 0.0
C568 C 0.21545 0.98622 0.56805 0.0
C569 C 0.20162 0.9748 0.53645 0.0
C570 C 0.21889 0.94192 0.57949 0.0
C571 C 0.19691 0.94692 0.52711 0.0
C572 C 0.21603 0.89505 0.59249 0.0
C573 C 0.25471 0.91976 0.65368 0.0
N574 N 0.20541 0.93135 0.54857 0.0
N575 N 0.24647 0.93529 0.6321 0.0
H576 H 0.83164 0.8216 0.26618 0.0
H577 H 0.65481 0.86265 0.16977 0.0
H578 H 0.74571 0.8428 0.30576 0.0
H579 H 0.71194 0.81459 0.12542 0.0
H580 H 0.69184 0.85846 0.2202 0.0
H581 H 0.79143 0.8208 0.21448 0.0
C582 C 0.80423 0.82584 0.26404 0.0
C583 C 0.7924 0.83269 0.29047 0.0
C584 C 0.69622 0.8487 0.19948 0.0
C585 C 0.74672 0.83221 0.23155 0.0
C586 C 0.67529 0.85125 0.17073 0.0
C587 C 0.68056 0.83907 0.14349 0.0
C588 C 0.72308 0.83416 0.2011 0.0
C589 C 0.70703 0.8242 0.14596 0.0
C590 C 0.7814 0.82547 0.23455 0.0
C591 C 0.75666 0.83817 0.28622 0.0
N592 N 0.72766 0.82235 0.17433 0.0
N593 N 0.73536 0.83805 0.25742 0.0
H594 H 0.81018 0.27885 0.80386 0.0
H595 H 0.71851 0.12147 0.71485 0.0
H596 H 0.68793 0.22952 0.7896 0.0
H597 H 0.83059 0.17842 0.71216 0.0
H598 H 0.70893 0.15866 0.74716 0.0
H599 H 0.82036 0.23994 0.77564 0.0
C600 C 0.78536 0.25985 0.79466 0.0
C601 C 0.74794 0.25765 0.79869 0.0
C602 C 0.73566 0.16291 0.73957 0.0
C603 C 0.75965 0.21268 0.76665 0.0
C604 C 0.74112 0.14174 0.72099 0.0
C605 C 0.77542 0.14673 0.71059 0.0
C606 C 0.76479 0.18926 0.748 0.0
C607 C 0.80397 0.17333 0.7199 0.0
C608 C 0.79128 0.23757 0.77866 0.0
C609 C 0.71726 0.23216 0.78706 0.0
N610 N 0.79796 0.19353 0.73797 0.0
N611 N 0.72374 0.21069 0.77141 0.0
H612 H 0.29726 0.33918 0.28182 0.0
H613 H 0.30771 0.28045 0.11412 0.0
H614 H 0.2011 0.27339 0.21747 0.0
H615 H 0.41111 0.3267 0.18817 0.0
H616 H 0.26661 0.28078 0.15007 0.0
H617 H 0.33827 0.33825 0.24612 0.0
C618 C 0.28481 0.32459 0.26012 0.0
C619 C 0.2458 0.30634 0.25252 0.0
C620 C 0.2983 0.29077 0.15849 0.0
C621 C 0.29237 0.30517 0.21164 0.0
C622 C 0.3216 0.29056 0.13804 0.0
C623 C 0.36262 0.30336 0.14848 0.0
C624 C 0.31622 0.30425 0.1894 0.0
C625 C 0.37948 0.31653 0.17946 0.0
C626 C 0.30824 0.32396 0.23986 0.0
C627 C 0.23117 0.28765 0.22428 0.0
N628 N 0.35618 0.31672 0.19888 0.0
N629 N 0.2544 0.28765 0.20476 0.0
H630 H 0.88462 0.76709 0.81865 0.0
H631 H 0.92454 0.65568 0.70435 0.0
H632 H 0.87548 0.77051 0.72206 0.0
H633 H 0.92626 0.65071 0.79969 0.0
H634 H 0.90722 0.69786 0.71013 0.0
H635 H 0.9014 0.72495 0.8121 0.0
C636 C 0.88621 0.75901 0.79602 0.0
C637 C 0.8786 0.7723 0.77078 0.0
C638 C 0.91135 0.68751 0.72976 0.0
C639 C 0.8978 0.7239 0.76312 0.0
C640 C 0.92099 0.66332 0.72643 0.0
C641 C 0.92691 0.6496 0.75159 0.0
C642 C 0.90761 0.6981 0.75847 0.0
C643 C 0.92254 0.66076 0.77978 0.0
C644 C 0.89577 0.73487 0.79229 0.0
C645 C 0.88116 0.76085 0.74207 0.0
N646 N 0.9132 0.68432 0.78244 0.0
N647 N 0.89053 0.73727 0.73898 0.0
H648 H 0.79377 0.40227 0.43629 0.0
H649 H 0.01215 0.4708 0.42026 0.0
H650 H 0.87273 0.35614 0.4302 0.0
H651 H 0.93191 0.51564 0.42654 0.0
H652 H 0.96516 0.42976 0.43078 0.0
H653 H 0.84754 0.44517 0.44019 0.0
C654 C 0.82268 0.40128 0.43616 0.0
C655 C 0.82879 0.37567 0.43255 0.0
C656 C 0.95799 0.44865 0.43025 0.0
C657 C 0.89044 0.42464 0.43665 0.0
C658 C 0.98475 0.47196 0.4243 0.0
C659 C 0.97542 0.49626 0.42246 0.0
C660 C 0.92171 0.44982 0.4342 0.0
C661 C 0.9398 0.49707 0.42774 0.0
C662 C 0.85337 0.42575 0.43838 0.0
C663 C 0.86685 0.3755 0.43293 0.0
N664 N 0.91403 0.47407 0.43313 0.0
N665 N 0.89617 0.39962 0.43447 0.0
H666 H 0.11546 0.3426 0.79726 0.0
H667 H 0.06666 0.45119 0.6926 0.0
H668 H 0.14066 0.34752 0.70856 0.0
H669 H 0.04202 0.44451 0.78128 0.0
H670 H 0.09563 0.41425 0.69816 0.0
H671 H 0.08982 0.38083 0.79191 0.0
C672 C 0.11584 0.35185 0.77672 0.0
C673 C 0.13032 0.34186 0.75336 0.0
C674 C 0.08386 0.4209 0.71637 0.0
C675 C 0.10053 0.38557 0.74687 0.0
C676 C 0.06753 0.44206 0.71327 0.0
C677 C 0.05156 0.45076 0.73636 0.0
C678 C 0.08437 0.4085 0.74282 0.0
C679 C 0.05326 0.4381 0.7626 0.0
C680 C 0.10098 0.37361 0.77359 0.0
C681 C 0.12939 0.35436 0.72699 0.0
N682 N 0.06926 0.41764 0.76507 0.0
N683 N 0.11477 0.37559 0.72446 0.0
H684 H 0.29663 0.77684 0.35107 0.0
H685 H 0.18209 0.61424 0.31834 0.0
H686 H 0.26216 0.72907 0.25886 0.0
H687 H 0.16404 0.67311 0.38357 0.0
H688 H 0.22631 0.65305 0.30168 0.0
H689 H 0.26487 0.73507 0.36949 0.0
C690 C 0.2828 0.75743 0.33477 0.0
C691 C 0.28116 0.7565 0.30325 0.0
C692 C 0.21281 0.65731 0.31977 0.0
C693 C 0.24517 0.70867 0.32429 0.0
C694 C 0.1877 0.63534 0.32919 0.0
C695 C 0.16942 0.6407 0.35217 0.0
C696 C 0.22031 0.68459 0.33411 0.0
C697 C 0.17768 0.66823 0.36581 0.0
C698 C 0.2647 0.73367 0.3453 0.0
C699 C 0.26382 0.73068 0.2833 0.0
N700 N 0.20266 0.68916 0.35667 0.0
N701 N 0.24597 0.7077 0.2941 0.0
H702 H 0.84967 0.92618 0.81263 0.0
H703 H 0.79194 0.95689 0.64068 0.0
H704 H 0.80709 0.86205 0.7314 0.0
H705 H 0.82076 0.01697 0.7235 0.0
H706 H 0.79911 0.92183 0.67277 0.0
H707 H 0.84213 0.95995 0.7797 0.0
C708 C 0.83862 0.91918 0.78781 0.0
C709 C 0.82859 0.89116 0.77479 0.0
C710 C 0.80375 0.94264 0.68392 0.0
C711 C 0.82016 0.92993 0.73675 0.0
C712 C 0.79955 0.96252 0.66566 0.0
C713 C 0.80588 0.98964 0.67969 0.0
C714 C 0.81449 0.95012 0.71636 0.0
C715 C 0.81576 0.99619 0.71201 0.0
C716 C 0.8344 0.93852 0.76898 0.0
C717 C 0.81531 0.88345 0.74241 0.0
N718 N 0.81992 0.97659 0.72927 0.0
N719 N 0.81132 0.90273 0.72447 0.0
H720 H 0.6961 0.36214 0.37537 0.0
H721 H 0.53916 0.26816 0.22176 0.0
H722 H 0.68341 0.27618 0.34853 0.0
H723 H 0.60149 0.35541 0.22854 0.0
H724 H 0.5801 0.27001 0.27325 0.0
H725 H 0.64811 0.3589 0.32679 0.0
C726 C 0.68316 0.34254 0.35941 0.0
C727 C 0.69455 0.31954 0.36591 0.0
C728 C 0.5845 0.28869 0.26336 0.0
C729 C 0.63881 0.31564 0.31064 0.0
C730 C 0.56143 0.28769 0.23383 0.0
C731 C 0.56687 0.31164 0.22036 0.0
C732 C 0.61268 0.31391 0.27988 0.0
C733 C 0.59554 0.33646 0.23786 0.0
C734 C 0.65568 0.34074 0.33175 0.0
C735 C 0.67559 0.29444 0.34469 0.0
N736 N 0.61725 0.33694 0.26669 0.0
N737 N 0.64877 0.2932 0.31791 0.0
H738 H 0.15316 0.23799 0.65507 0.0
H739 H 0.11002 0.08024 0.58124 0.0
H740 H 0.1212 0.17049 0.7043 0.0
H741 H 0.17947 0.14992 0.54937 0.0
H742 H 0.10387 0.11248 0.62226 0.0
H743 H 0.15303 0.20526 0.61175 0.0
C744 C 0.14583 0.21623 0.65666 0.0
C745 C 0.13722 0.20683 0.68326 0.0
C746 C 0.12036 0.12067 0.60622 0.0
C747 C 0.13694 0.16938 0.63385 0.0
C748 C 0.12367 0.10233 0.58276 0.0
C749 C 0.14545 0.1125 0.56208 0.0
C750 C 0.1385 0.14932 0.60865 0.0
C751 C 0.16281 0.14127 0.56512 0.0
C752 C 0.14591 0.1976 0.63199 0.0
C753 C 0.12808 0.17848 0.68416 0.0
N754 N 0.1589 0.15869 0.58795 0.0
N755 N 0.12812 0.16069 0.65976 0.0
H756 H 0.36372 0.83464 0.18818 0.0
H757 H 0.53981 0.81891 0.11941 0.0
H758 H 0.43272 0.78371 0.22069 0.0
H759 H 0.45454 0.85458 0.07584 0.0
H760 H 0.50431 0.80863 0.15926 0.0
H761 H 0.40002 0.84513 0.1493 0.0
C762 C 0.38657 0.82568 0.18716 0.0
C763 C 0.39537 0.8083 0.20771 0.0
C764 C 0.49349 0.81886 0.1411 0.0
C765 C 0.43707 0.82028 0.16326 0.0
C766 C 0.51379 0.82479 0.11855 0.0
C767 C 0.50041 0.83813 0.09498 0.0
C768 C 0.45956 0.82629 0.13986 0.0
C769 C 0.46622 0.8449 0.09423 0.0
C770 C 0.40723 0.83163 0.16489 0.0
C771 C 0.42512 0.79719 0.20522 0.0
N772 N 0.44703 0.83902 0.11646 0.0
N773 N 0.44505 0.80344 0.18345 0.0
H774 H 0.7403 0.24509 0.4848 0.0
H775 H 0.83063 0.12509 0.51911 0.0
H776 H 0.85007 0.24483 0.46642 0.0
H777 H 0.75688 0.14753 0.5716 0.0
H778 H 0.82997 0.16416 0.49205 0.0
H779 H 0.7381 0.2046 0.50975 0.0
C780 C 0.76384 0.23643 0.48592 0.0
C781 C 0.79544 0.24821 0.47355 0.0
C782 C 0.81386 0.16048 0.50943 0.0
C783 C 0.79285 0.20192 0.50165 0.0
C784 C 0.81417 0.13824 0.52474 0.0
C785 C 0.79409 0.13343 0.54769 0.0
C786 C 0.79267 0.17763 0.51675 0.0
C787 C 0.7728 0.15075 0.55406 0.0
C788 C 0.76262 0.21343 0.50022 0.0
C789 C 0.82526 0.23631 0.47576 0.0
N790 N 0.77258 0.17212 0.53862 0.0
N791 N 0.82314 0.21369 0.48937 0.0
H792 H 0.17197 0.299 0.8455 0.0
H793 H 0.39091 0.31666 0.93722 0.0
H794 H 0.2593 0.29232 0.79838 0.0
H795 H 0.2918 0.28132 0.97348 0.0
H796 H 0.34483 0.31469 0.8877 0.0
H797 H 0.21739 0.29928 0.89474 0.0
C798 C 0.20074 0.29761 0.84562 0.0
C799 C 0.21204 0.29556 0.81802 0.0
C800 C 0.33323 0.30728 0.90649 0.0
C801 C 0.26398 0.29624 0.87389 0.0
C802 C 0.35942 0.30852 0.93467 0.0
C803 C 0.34496 0.29908 0.95927 0.0
C804 C 0.29241 0.2971 0.90319 0.0
C805 C 0.30397 0.28861 0.95491 0.0
C806 C 0.22646 0.29764 0.87357 0.0
C807 C 0.24951 0.29373 0.81923 0.0
N808 N 0.27903 0.28812 0.92744 0.0
N809 N 0.27435 0.29436 0.84678 0.0
H810 H 0.28801 0.84322 0.35115 0.0
H811 H 0.22634 0.97622 0.33548 0.0
H812 H 0.26676 0.86874 0.2622 0.0
H813 H 0.18648 0.91925 0.39473 0.0
H814 H 0.25056 0.94224 0.311 0.0
H815 H 0.26173 0.87716 0.37123 0.0
C816 C 0.27764 0.85585 0.33572 0.0
C817 C 0.27877 0.8526 0.30465 0.0
C818 C 0.23608 0.93719 0.32912 0.0
C819 C 0.24962 0.89214 0.32798 0.0
C820 C 0.22238 0.95647 0.34306 0.0
C821 C 0.20433 0.95038 0.36703 0.0
C822 C 0.23255 0.91213 0.33991 0.0
C823 C 0.19986 0.9246 0.37612 0.0
C824 C 0.26276 0.87528 0.34729 0.0
C825 C 0.2664 0.87048 0.28626 0.0
N826 N 0.21434 0.90656 0.36281 0.0
N827 N 0.25226 0.88956 0.29822 0.0
H828 H 0.78599 0.81187 0.87178 0.0
H829 H 0.67282 0.88833 0.94627 0.0
H830 H 0.82173 0.90091 0.87863 0.0
H831 H 0.72077 0.83596 0.00038 0.0
H832 H 0.71989 0.88963 0.91542 0.0
H833 H 0.75565 0.81589 0.91426 0.0
C834 C 0.78819 0.8323 0.88239 0.0
C835 C 0.80601 0.85605 0.87098 0.0
C836 C 0.72057 0.8783 0.93444 0.0
C837 C 0.77018 0.86041 0.91888 0.0
C838 C 0.694 0.87769 0.95213 0.0
C839 C 0.69376 0.86261 0.97639 0.0
C840 C 0.74582 0.86272 0.94011 0.0
C841 C 0.72062 0.84815 0.98214 0.0
C842 C 0.77071 0.83448 0.90659 0.0
C843 C 0.80718 0.88186 0.88568 0.0
N844 N 0.74521 0.84809 0.96368 0.0
N845 N 0.7887 0.88328 0.90836 0.0
loop_
_geom_bond_atom_site_label_1
_geom_bond_atom_site_label_2
_geom_bond_distance
_geom_bond_site_symmetry_2
_ccdc_geom_bond_type
H0 C5 0.930 . S
H1 C8 0.930 . S
H2 C10 0.930 . S
H3 C4 1.016 . S
C4 H3 1.016 . S
C4 N11 1.286 . S
C5 H0 0.930 . S
C5 C6 1.397 . S
C5 C7 1.361 . S
C6 C5 1.397 . S
C6 C10 1.390 . S
C7 C5 1.361 . S
C7 C8 1.393 . S
C7 N11 1.413 . S
C8 H1 0.930 . S
C8 C7 1.393 . S
C8 C9 1.399 . S
C9 C8 1.399 . S
C9 C10 1.381 . S
C10 H2 0.930 . S
C10 C6 1.390 . S
C10 C9 1.381 . S
N11 C4 1.286 . S
N11 C7 1.413 . S
H12 C17 0.930 . S
H13 C20 0.930 . S
H14 C22 0.930 . S
H15 C16 1.016 . S
C16 H15 1.016 . S
C16 N23 1.286 . S
C17 H12 0.930 . S
C17 C18 1.397 . S
C17 C19 1.361 . S
C18 C17 1.397 . S
C18 C22 1.390 . S
C19 C17 1.361 . S
C19 C20 1.393 . S
C19 N23 1.413 . S
C20 H13 0.930 . S
C20 C19 1.393 . S
C20 C21 1.399 . S
C21 C20 1.399 . S
C21 C22 1.381 . S
C22 H14 0.930 . S
C22 C18 1.390 . S
C22 C21 1.381 . S
N23 C16 1.286 . S
N23 C19 1.413 . S
H24 C29 0.930 . S
H25 C32 0.930 . S
H26 C34 0.930 . S
H27 C28 1.016 . S
C28 H27 1.016 . S
C28 N35 1.286 . S
C29 H24 0.930 . S
C29 C30 1.397 . S
C29 C31 1.361 . S
C30 C29 1.397 . S
C30 C34 1.390 . S
C31 C29 1.361 . S
C31 C32 1.393 . S
C31 N35 1.413 . S
C32 H25 0.930 . S
C32 C31 1.393 . S
C32 C33 1.399 . S
C33 C32 1.399 . S
C33 C34 1.381 . S
C34 H26 0.930 . S
C34 C30 1.390 . S
C34 C33 1.381 . S
N35 C28 1.286 . S
N35 C31 1.413 . S
H36 C41 0.930 . S
H37 C44 0.930 . S
H38 C46 0.930 . S
H39 C40 1.016 . S
C40 H39 1.016 . S
C40 N47 1.286 . S
C41 H36 0.930 . S
C41 C42 1.397 . S
C41 C43 1.361 . S
C42 C41 1.397 . S
C42 C46 1.390 . S
C43 C41 1.361 . S
C43 C44 1.393 . S
C43 N47 1.413 . S
C44 H37 0.930 . S
C44 C43 1.393 . S
C44 C45 1.399 . S
C45 C44 1.399 . S
C45 C46 1.381 . S
C46 H38 0.930 . S
C46 C42 1.390 . S
C46 C45 1.381 . S
N47 C40 1.286 . S
N47 C43 1.413 . S
H48 C53 0.930 . S
H49 C56 0.930 . S
H50 C58 0.930 . S
H51 C52 1.016 . S
C52 H51 1.016 . S
C52 N59 1.286 . S
C53 H48 0.930 . S
C53 C54 1.397 . S
C53 C55 1.361 . S
C54 C53 1.397 . S
C54 C58 1.390 . S
C55 C53 1.361 . S
C55 C56 1.393 . S
C55 N59 1.413 . S
C56 H49 0.930 . S
C56 C55 1.393 . S
C56 C57 1.399 . S
C57 C56 1.399 . S
C57 C58 1.381 . S
C58 H50 0.930 . S
C58 C54 1.390 . S
C58 C57 1.381 . S
N59 C52 1.286 . S
N59 C55 1.413 . S
H60 C65 0.930 . S
H61 C68 0.930 . S
H62 C70 0.930 . S
H63 C64 1.016 . S
C64 H63 1.016 . S
C64 N71 1.286 . S
C65 H60 0.930 . S
C65 C66 1.397 . S
C65 C67 1.361 . S
C66 C65 1.397 . S
C66 C70 1.390 . S
C67 C65 1.361 . S
C67 C68 1.393 . S
C67 N71 1.413 . S
C68 H61 0.930 . S
C68 C67 1.393 . S
C68 C69 1.399 . S
C69 C68 1.399 . S
C69 C70 1.381 . S
C70 H62 0.930 . S
C70 C66 1.390 . S
C70 C69 1.381 . S
N71 C64 1.286 . S
N71 C67 1.413 . S
H72 C77 0.930 . S
H73 C80 0.930 . S
H74 C82 0.930 . S
H75 C76 1.016 . S
C76 H75 1.016 . S
C76 N83 1.286 . S
C77 H72 0.930 . S
C77 C78 1.397 . S
C77 C79 1.361 . S
C78 C77 1.397 . S
C78 C82 1.390 . S
C79 C77 1.361 . S
C79 C80 1.393 . S
C79 N83 1.413 . S
C80 H73 0.930 . S
C80 C79 1.393 . S
C80 C81 1.399 . S
C81 C80 1.399 . S
C81 C82 1.381 . S
C82 H74 0.930 . S
C82 C78 1.390 . S
C82 C81 1.381 . S
N83 C76 1.286 . S
N83 C79 1.413 . S
H84 C89 0.930 . S
H85 C92 0.930 . S
H86 C94 0.930 . S
H87 C88 1.016 . S
C88 H87 1.016 . S
C88 N95 1.286 . S
C89 H84 0.930 . S
C89 C90 1.397 . S
C89 C91 1.361 . S
C90 C89 1.397 . S
C90 C94 1.390 . S
C91 C89 1.361 . S
C91 C92 1.393 . S
C91 N95 1.413 . S
C92 H85 0.930 . S
C92 C91 1.393 . S
C92 C93 1.399 . S
C93 C92 1.399 . S
C93 C94 1.381 . S
C94 H86 0.930 . S
C94 C90 1.390 . S
C94 C93 1.381 . S
N95 C88 1.286 . S
N95 C91 1.413 . S
C96 C97 1.443 . S
C96 N100 1.376 . S
C96 C134 1.389 . S
C97 C96 1.443 . S
C97 C98 1.340 . S
C97 H137 0.951 . S
C98 C97 1.340 . S
C98 C99 1.439 . S
C98 H138 0.950 . S
C99 C98 1.439 . S
C99 N100 1.374 . S
C99 C133 1.395 . S
N100 C96 1.376 . S
N100 C99 1.374 . S
N100 Co101 2.008 . S
Co101 N100 2.008 . S
Co101 N102 1.995 . S
Co101 N107 2.008 . S
Co101 N112 1.995 . S
Co101 N117 2.282 . S
Co101 N123 2.282 . S
N102 Co101 1.995 . S
N102 C103 1.376 . S
N102 C106 1.383 . S
C103 N102 1.376 . S
C103 C104 1.446 . S
C103 C133 1.391 . S
C104 C103 1.446 . S
C104 C105 1.339 . S
C104 H139 0.949 . S
C105 C104 1.339 . S
C105 C106 1.439 . S
C105 H140 0.950 . S
C106 N102 1.383 . S
C106 C105 1.439 . S
C106 C135 1.392 . S
N107 Co101 2.008 . S
N107 C108 1.376 . S
N107 C111 1.374 . S
C108 N107 1.376 . S
C108 C109 1.443 1_455 S
C108 C135 1.389 . S
C109 C108 1.443 1_655 S
C109 C110 1.340 1_655 S
C109 H141 0.951 . S
C110 C109 1.340 1_455 S
C110 C111 1.439 . S
C110 H142 0.950 1_455 S
C111 N107 1.374 . S
C111 C110 1.439 . S
C111 C136 1.395 . S
N112 Co101 1.995 . S
N112 C113 1.376 . S
N112 C116 1.383 . S
C113 N112 1.376 . S
C113 C114 1.446 . S
C113 C136 1.391 . S
C114 C113 1.446 . S
C114 C115 1.339 . S
C114 H143 0.949 . S
C115 C114 1.339 . S
C115 C116 1.439 . S
C115 H144 0.950 . S
C116 N112 1.383 . S
C116 C115 1.439 . S
C116 C134 1.392 . S
N117 Co101 2.282 . S
N117 C120 1.332 . S
N117 C122 1.332 . S
C118 C119 1.386 . S
C118 C121 1.388 . S
C119 C118 1.386 . S
C119 C120 1.382 . S
C119 H145 0.950 . S
C120 N117 1.332 . S
C120 C119 1.382 . S
C120 H131 0.952 . S
C121 C118 1.388 . S
C121 C122 1.382 . S
C121 H146 0.950 . S
C122 N117 1.332 . S
C122 C121 1.382 . S
C122 H132 0.948 . S
N123 Co101 2.282 . S
N123 C127 1.332 . S
N123 C128 1.332 . S
C124 C125 1.388 . S
C124 C128 1.382 . S
C124 H147 0.950 . S
C125 C124 1.388 . S
C125 C126 1.386 . S
C126 C125 1.386 . S
C126 C127 1.382 . S
C126 H148 0.950 . S
C127 N123 1.332 . S
C127 C126 1.382 . S
C127 H129 0.952 . S
C128 N123 1.332 . S
C128 C124 1.382 . S
C128 H130 0.948 . S
H129 C127 0.952 . S
H130 C128 0.948 . S
H131 C120 0.952 . S
H132 C122 0.948 . S
C133 C99 1.395 . S
C133 C103 1.391 . S
C134 C96 1.389 . S
C134 C116 1.392 . S
C135 C106 1.392 . S
C135 C108 1.389 . S
C136 C111 1.395 . S
C136 C113 1.391 . S
H137 C97 0.951 . S
H138 C98 0.950 . S
H139 C104 0.949 . S
H140 C105 0.950 . S
H141 C109 0.951 . S
H142 C110 0.950 1_655 S
H143 C114 0.949 . S
H144 C115 0.950 . S
H145 C119 0.950 . S
H146 C121 0.950 . S
H147 C124 0.950 . S
H148 C126 0.950 . S
C149 C150 1.443 . S
C149 N153 1.376 . S
C149 C187 1.389 . S
C150 C149 1.443 . S
C150 C151 1.340 . S
C150 H190 0.951 . S
C151 C150 1.340 . S
C151 C152 1.439 . S
C151 H191 0.950 . S
C152 C151 1.439 . S
C152 N153 1.374 . S
C152 C186 1.395 . S
N153 C149 1.376 . S
N153 C152 1.374 . S
N153 Co154 2.013 . S
Co154 N153 2.013 . S
Co154 N155 1.992 1_455 S
Co154 N160 2.004 1_455 S
Co154 N165 1.997 . S
Co154 N170 2.289 . S
Co154 N176 2.276 1_455 S
N155 Co154 1.992 1_655 S
N155 C156 1.376 1_655 S
N155 C159 1.383 . S
C156 N155 1.376 1_455 S
C156 C157 1.446 . S
C156 C186 1.391 . S
C157 C156 1.446 . S
C157 C158 1.339 1_455 S
C157 H192 0.949 . S
C158 C157 1.339 1_655 S
C158 C159 1.439 . S
C158 H193 0.950 . S
C159 N155 1.383 . S
C159 C158 1.439 . S
C159 C188 1.392 . S
N160 Co154 2.004 1_655 S
N160 C161 1.376 . S
N160 C164 1.374 . S
C161 N160 1.376 . S
C161 C162 1.443 . S
C161 C188 1.389 . S
C162 C161 1.443 . S
C162 C163 1.340 . S
C162 H194 0.951 . S
C163 C162 1.340 . S
C163 C164 1.439 . S
C163 H195 0.950 . S
C164 N160 1.374 . S
C164 C163 1.439 . S
C164 C189 1.395 . S
N165 Co154 1.997 . S
N165 C166 1.376 1_455 S
N165 C169 1.383 . S
C166 N165 1.376 1_655 S
C166 C167 1.455 . S
C166 C189 1.391 . S
C167 C166 1.455 . S
C167 C168 1.327 1_655 S
C167 H196 0.952 . S
C168 C167 1.327 1_455 S
C168 C169 1.439 . S
C168 H197 0.950 . S
C169 N165 1.383 . S
C169 C168 1.439 . S
C169 C187 1.392 . S
N170 Co154 2.289 . S
N170 C173 1.332 . S
N170 C175 1.332 . S
C171 C172 1.386 . S
C171 C174 1.388 . S
C172 C171 1.386 . S
C172 C173 1.382 . S
C172 H198 0.950 . S
C173 N170 1.332 . S
C173 C172 1.382 . S
C173 H184 0.952 . S
C174 C171 1.388 . S
C174 C175 1.382 . S
C174 H199 0.950 . S
C175 N170 1.332 . S
C175 C174 1.382 . S
C175 H185 0.948 . S
N176 Co154 2.276 1_655 S
N176 C180 1.332 . S
N176 C181 1.332 . S
C177 C178 1.388 . S
C177 C181 1.382 . S
C177 H200 0.950 . S
C178 C177 1.388 . S
C178 C179 1.386 . S
C179 C178 1.386 . S
C179 C180 1.382 . S
C179 H201 0.950 . S
C180 N176 1.332 . S
C180 C179 1.382 . S
C180 H182 0.952 . S
C181 N176 1.332 . S
C181 C177 1.382 . S
C181 H183 0.948 . S
H182 C180 0.952 . S
H183 C181 0.948 . S
H184 C173 0.952 . S
H185 C175 0.948 . S
C186 C152 1.395 . S
C186 C156 1.391 . S
C187 C149 1.389 . S
C187 C169 1.392 . S
C188 C159 1.392 . S
C188 C161 1.389 . S
C189 C164 1.395 . S
C189 C166 1.391 . S
H190 C150 0.951 . S
H191 C151 0.950 . S
H192 C157 0.949 . S
H193 C158 0.950 . S
H194 C162 0.951 . S
H195 C163 0.950 . S
H196 C167 0.952 . S
H197 C168 0.950 . S
H198 C172 0.950 . S
H199 C174 0.950 . S
H200 C177 0.950 . S
H201 C179 0.950 . S
C202 C203 1.443 . S
C202 N206 1.376 . S
C202 C240 1.389 . S
C203 C202 1.443 . S
C203 C204 1.340 . S
C203 H243 0.951 . S
C204 C203 1.340 . S
C204 C205 1.439 1_565 S
C204 H244 0.950 . S
C205 C204 1.439 1_545 S
C205 N206 1.374 1_545 S
C205 C239 1.395 . S
N206 C202 1.376 . S
N206 C205 1.374 1_565 S
N206 Co207 2.008 1_565 S
Co207 N206 2.008 1_545 S
Co207 N208 1.995 . S
Co207 N213 2.008 . S
Co207 N218 1.995 1_545 S
Co207 N223 2.282 . S
Co207 N229 2.282 1_545 S
N208 Co207 1.995 . S
N208 C209 1.376 . S
N208 C212 1.383 . S
C209 N208 1.376 . S
C209 C210 1.446 . S
C209 C239 1.391 . S
C210 C209 1.446 . S
C210 C211 1.339 . S
C210 H245 0.949 . S
C211 C210 1.339 . S
C211 C212 1.439 . S
C211 H246 0.950 . S
C212 N208 1.383 . S
C212 C211 1.439 . S
C212 C241 1.392 . S
N213 Co207 2.008 . S
N213 C214 1.376 . S
N213 C217 1.374 1_545 S
C214 N213 1.376 . S
C214 C215 1.443 . S
C214 C241 1.389 . S
C215 C214 1.443 . S
C215 C216 1.340 . S
C215 H247 0.951 . S
C216 C215 1.340 . S
C216 C217 1.439 1_545 S
C216 H248 0.950 . S
C217 N213 1.374 1_565 S
C217 C216 1.439 1_565 S
C217 C242 1.395 . S
N218 Co207 1.995 1_565 S
N218 C219 1.376 . S
N218 C222 1.383 . S
C219 N218 1.376 . S
C219 C220 1.446 . S
C219 C242 1.391 . S
C220 C219 1.446 . S
C220 C221 1.339 . S
C220 H249 0.949 . S
C221 C220 1.339 . S
C221 C222 1.439 . S
C221 H250 0.950 . S
C222 N218 1.383 . S
C222 C221 1.439 . S
C222 C240 1.392 . S
N223 Co207 2.282 . S
N223 C226 1.332 . S
N223 C228 1.332 . S
C224 C225 1.386 . S
C224 C227 1.388 . S
C225 C224 1.386 . S
C225 C226 1.382 . S
C225 H251 0.950 . S
C226 N223 1.332 . S
C226 C225 1.382 . S
C226 H237 0.952 . S
C227 C224 1.388 . S
C227 C228 1.382 . S
C227 H252 0.950 . S
C228 N223 1.332 . S
C228 C227 1.382 . S
C228 H238 0.948 . S
N229 Co207 2.282 1_565 S
N229 C233 1.332 . S
N229 C234 1.332 . S
C230 C231 1.388 . S
C230 C234 1.382 . S
C230 H253 0.950 . S
C231 C230 1.388 . S
C231 C232 1.386 . S
C232 C231 1.386 . S
C232 C233 1.382 . S
C232 H254 0.950 . S
C233 N229 1.332 . S
C233 C232 1.382 . S
C233 H235 0.952 . S
C234 N229 1.332 . S
C234 C230 1.382 . S
C234 H236 0.948 . S
H235 C233 0.952 . S
H236 C234 0.948 . S
H237 C226 0.952 . S
H238 C228 0.948 . S
C239 C205 1.395 . S
C239 C209 1.391 . S
C240 C202 1.389 . S
C240 C222 1.392 . S
C241 C212 1.392 . S
C241 C214 1.389 . S
C242 C217 1.395 . S
C242 C219 1.391 . S
H243 C203 0.951 . S
H244 C204 0.950 . S
H245 C210 0.949 . S
H246 C211 0.950 . S
H247 C215 0.951 . S
H248 C216 0.950 . S
H249 C220 0.949 . S
H250 C221 0.950 . S
H251 C225 0.950 . S
H252 C227 0.950 . S
H253 C230 0.950 . S
H254 C232 0.950 . S
C255 C256 1.443 . S
C255 N259 1.376 . S
C255 C293 1.389 . S
C256 C255 1.443 . S
C256 C257 1.340 . S
C256 H296 0.951 . S
C257 C256 1.340 . S
C257 C258 1.439 . S
C257 H297 0.950 . S
C258 C257 1.439 . S
C258 N259 1.374 . S
C258 C292 1.395 . S
N259 C255 1.376 . S
N259 C258 1.374 . S
N259 Co260 2.008 . S
Co260 N259 2.008 . S
Co260 N261 1.995 . S
Co260 N266 2.008 1_554 S
Co260 N271 1.995 . S
Co260 N276 2.282 1_554 S
Co260 N282 2.282 . S
N261 Co260 1.995 . S
N261 C262 1.376 . S
N261 C265 1.383 1_554 S
C262 N261 1.376 . S
C262 C263 1.446 . S
C262 C292 1.391 . S
C263 C262 1.446 . S
C263 C264 1.339 1_554 S
C263 H298 0.949 . S
C264 C263 1.339 1_556 S
C264 C265 1.439 . S
C264 H299 0.950 . S
C265 N261 1.383 1_556 S
C265 C264 1.439 . S
C265 C294 1.392 . S
N266 Co260 2.008 1_556 S
N266 C267 1.376 . S
N266 C270 1.374 . S
C267 N266 1.376 . S
C267 C268 1.443 . S
C267 C294 1.389 . S
C268 C267 1.443 . S
C268 C269 1.340 . S
C268 H300 0.951 . S
C269 C268 1.340 . S
C269 C270 1.439 . S
C269 H301 0.950 . S
C270 N266 1.374 . S
C270 C269 1.439 . S
C270 C295 1.395 1_556 S
N271 Co260 1.995 . S
N271 C272 1.376 . S
N271 C275 1.383 . S
C272 N271 1.376 . S
C272 C273 1.446 . S
C272 C295 1.391 . S
C273 C272 1.446 . S
C273 C274 1.339 . S
C273 H302 0.949 . S
C274 C273 1.339 . S
C274 C275 1.439 . S
C274 H303 0.950 . S
C275 N271 1.383 . S
C275 C274 1.439 . S
C275 C293 1.392 . S
N276 Co260 2.282 1_556 S
N276 C279 1.332 . S
N276 C281 1.332 . S
C277 C278 1.386 . S
C277 C280 1.388 . S
C278 C277 1.386 . S
C278 C279 1.382 . S
C278 H304 0.950 . S
C279 N276 1.332 . S
C279 C278 1.382 . S
C279 H290 0.952 . S
C280 C277 1.388 . S
C280 C281 1.382 . S
C280 H305 0.950 . S
C281 N276 1.332 . S
C281 C280 1.382 . S
C281 H291 0.948 . S
N282 Co260 2.282 . S
N282 C286 1.332 . S
N282 C287 1.332 . S
C283 C284 1.388 . S
C283 C287 1.382 . S
C283 H306 0.950 . S
C284 C283 1.388 . S
C284 C285 1.386 . S
C285 C284 1.386 . S
C285 C286 1.382 . S
C285 H307 0.950 . S
C286 N282 1.332 . S
C286 C285 1.382 . S
C286 H288 0.952 . S
C287 N282 1.332 . S
C287 C283 1.382 . S
C287 H289 0.948 . S
H288 C286 0.952 . S
H289 C287 0.948 . S
H290 C279 0.952 . S
H291 C281 0.948 . S
C292 C258 1.395 . S
C292 C262 1.391 . S
C293 C255 1.389 . S
C293 C275 1.392 . S
C294 C265 1.392 . S
C294 C267 1.389 . S
C295 C270 1.395 1_554 S
C295 C272 1.391 . S
H296 C256 0.951 . S
H297 C257 0.950 . S
H298 C263 0.949 . S
H299 C264 0.950 . S
H300 C268 0.951 . S
H301 C269 0.950 . S
H302 C273 0.949 . S
H303 C274 0.950 . S
H304 C278 0.950 . S
H305 C280 0.950 . S
H306 C283 0.950 . S
H307 C285 0.950 . S
C308 C309 1.443 . S
C308 N312 1.376 . S
C308 C346 1.389 . S
C309 C308 1.443 . S
C309 C310 1.340 . S
C309 H349 0.951 . S
C310 C309 1.340 . S
C310 C311 1.439 . S
C310 H350 0.950 . S
C311 C310 1.439 . S
C311 N312 1.374 . S
C311 C345 1.395 . S
N312 C308 1.376 . S
N312 C311 1.374 . S
N312 Co313 2.008 . S
Co313 N312 2.008 . S
Co313 N314 1.995 . S
Co313 N319 2.008 . S
Co313 N324 1.995 . S
Co313 N329 2.282 . S
Co313 N335 2.282 . S
N314 Co313 1.995 . S
N314 C315 1.376 . S
N314 C318 1.383 . S
C315 N314 1.376 . S
C315 C316 1.446 . S
C315 C345 1.391 . S
C316 C315 1.446 . S
C316 C317 1.339 . S
C316 H351 0.949 . S
C317 C316 1.339 . S
C317 C318 1.439 . S
C317 H352 0.950 . S
C318 N314 1.383 . S
C318 C317 1.439 . S
C318 C347 1.392 . S
N319 Co313 2.008 . S
N319 C320 1.376 . S
N319 C323 1.374 . S
C320 N319 1.376 . S
C320 C321 1.443 . S
C320 C347 1.389 . S
C321 C320 1.443 . S
C321 C322 1.340 . S
C321 H353 0.951 . S
C322 C321 1.340 . S
C322 C323 1.439 . S
C322 H354 0.950 . S
C323 N319 1.374 . S
C323 C322 1.439 . S
C323 C348 1.395 . S
N324 Co313 1.995 . S
N324 C325 1.376 . S
N324 C328 1.383 . S
C325 N324 1.376 . S
C325 C326 1.446 1_545 S
C325 C348 1.391 . S
C326 C325 1.446 1_565 S
C326 C327 1.339 . S
C326 H355 0.949 . S
C327 C326 1.339 . S
C327 C328 1.439 1_565 S
C327 H356 0.950 . S
C328 N324 1.383 . S
C328 C327 1.439 1_545 S
C328 C346 1.392 . S
N329 Co313 2.282 . S
N329 C332 1.332 . S
N329 C334 1.332 . S
C330 C331 1.386 . S
C330 C333 1.388 . S
C331 C330 1.386 . S
C331 C332 1.382 . S
C331 H357 0.950 . S
C332 N329 1.332 . S
C332 C331 1.382 . S
C332 H343 0.952 . S
C333 C330 1.388 . S
C333 C334 1.382 . S
C333 H358 0.950 . S
C334 N329 1.332 . S
C334 C333 1.382 . S
C334 H344 0.948 . S
N335 Co313 2.282 . S
N335 C339 1.332 . S
N335 C340 1.332 . S
C336 C337 1.388 . S
C336 C340 1.382 1_565 S
C336 H359 0.950 . S
C337 C336 1.388 . S
C337 C338 1.386 1_565 S
C338 C337 1.386 1_545 S
C338 C339 1.382 . S
C338 H360 0.950 . S
C339 N335 1.332 . S
C339 C338 1.382 . S
C339 H341 0.952 . S
C340 N335 1.332 . S
C340 C336 1.382 1_545 S
C340 H342 0.946 . S
H341 C339 0.952 . S
H342 C340 0.946 . S
H343 C332 0.952 . S
H344 C334 0.948 . S
C345 C311 1.395 . S
C345 C315 1.391 . S
C346 C308 1.389 . S
C346 C328 1.392 . S
C347 C318 1.392 . S
C347 C320 1.389 . S
C348 C323 1.395 . S
C348 C325 1.391 . S
H349 C309 0.951 . S
H350 C310 0.950 . S
H351 C316 0.949 . S
H352 C317 0.950 . S
H353 C321 0.951 . S
H354 C322 0.950 . S
H355 C326 0.949 . S
H356 C327 0.950 . S
H357 C331 0.950 . S
H358 C333 0.950 . S
H359 C336 0.950 . S
H360 C338 0.950 . S
C361 C362 1.443 . S
C361 N365 1.376 . S
C361 C399 1.389 . S
C362 C361 1.443 . S
C362 C363 1.340 . S
C362 H402 0.951 . S
C363 C362 1.340 . S
C363 C364 1.439 . S
C363 H403 0.950 . S
C364 C363 1.439 . S
C364 N365 1.374 . S
C364 C398 1.395 . S
N365 C361 1.376 . S
N365 C364 1.374 . S
N365 Co366 2.008 . S
Co366 N365 2.008 . S
Co366 N367 1.995 . S
Co366 N372 2.008 . S
Co366 N377 1.995 . S
Co366 N382 2.282 . S
Co366 N388 2.282 . S
N367 Co366 1.995 . S
N367 C368 1.376 . S
N367 C371 1.383 . S
C368 N367 1.376 . S
C368 C369 1.446 . S
C368 C398 1.391 . S
C369 C368 1.446 . S
C369 C370 1.339 . S
C369 H404 0.949 . S
C370 C369 1.339 . S
C370 C371 1.439 . S
C370 H405 0.950 . S
C371 N367 1.383 . S
C371 C370 1.439 . S
C371 C400 1.392 . S
N372 Co366 2.008 . S
N372 C373 1.376 . S
N372 C376 1.374 . S
C373 N372 1.376 . S
C373 C374 1.443 . S
C373 C400 1.389 . S
C374 C373 1.443 . S
C374 C375 1.340 . S
C374 H406 0.951 . S
C375 C374 1.340 . S
C375 C376 1.439 . S
C375 H407 0.950 . S
C376 N372 1.374 . S
C376 C375 1.439 . S
C376 C401 1.395 . S
N377 Co366 1.995 . S
N377 C378 1.376 . S
N377 C381 1.383 . S
C378 N377 1.376 . S
C378 C379 1.446 . S
C378 C401 1.391 . S
C379 C378 1.446 . S
C379 C380 1.339 . S
C379 H408 0.949 . S
C380 C379 1.339 . S
C380 C381 1.439 . S
C380 H409 0.950 . S
C381 N377 1.383 . S
C381 C380 1.439 . S
C381 C399 1.392 . S
N382 Co366 2.282 . S
N382 C385 1.332 . S
N382 C387 1.332 . S
C383 C384 1.386 1_556 S
C383 C386 1.388 1_556 S
C384 C383 1.386 1_554 S
C384 C385 1.382 . S
C384 H410 0.952 . S
C385 N382 1.332 . S
C385 C384 1.382 . S
C385 H396 0.952 . S
C386 C383 1.388 1_554 S
C386 C387 1.382 . S
C386 H411 0.950 . S
C387 N382 1.332 . S
C387 C386 1.382 . S
C387 H397 0.948 . S
N388 Co366 2.282 . S
N388 C392 1.332 . S
N388 C393 1.332 . S
C389 C390 1.388 . S
C389 C393 1.382 . S
C389 H412 0.950 . S
C390 C389 1.388 . S
C390 C391 1.386 . S
C391 C390 1.386 . S
C391 C392 1.382 . S
C391 H413 0.950 . S
C392 N388 1.332 . S
C392 C391 1.382 . S
C392 H394 0.952 . S
C393 N388 1.332 . S
C393 C389 1.382 . S
C393 H395 0.948 . S
H394 C392 0.952 . S
H395 C393 0.948 . S
H396 C385 0.952 . S
H397 C387 0.948 . S
C398 C364 1.395 . S
C398 C368 1.391 . S
C399 C361 1.389 . S
C399 C381 1.392 . S
C400 C371 1.392 . S
C400 C373 1.389 . S
C401 C376 1.395 . S
C401 C378 1.391 . S
H402 C362 0.951 . S
H403 C363 0.950 . S
H404 C369 0.949 . S
H405 C370 0.950 . S
H406 C374 0.951 . S
H407 C375 0.950 . S
H408 C379 0.949 . S
H409 C380 0.950 . S
H410 C384 0.952 . S
H411 C386 0.950 . S
H412 C389 0.950 . S
H413 C391 0.950 . S
H414 C420 0.930 . S
H415 C424 0.930 . S
H416 C429 0.929 . S
H417 C427 0.929 . S
H418 C422 0.929 . S
H419 C428 0.929 . S
C420 H414 0.930 . S
C420 C421 1.367 . S
C420 C428 1.378 . S
C421 C420 1.367 . S
C421 C429 1.433 . S
C422 H418 0.929 . S
C422 C424 1.378 . S
C422 C426 1.350 . S
C423 C426 1.463 . S
C423 C428 1.350 . S
C423 N431 1.427 . S
C424 H415 0.930 . S
C424 C422 1.378 . S
C424 C425 1.367 . S
C425 C424 1.367 . S
C425 C427 1.433 . S
C426 C422 1.350 . S
C426 C423 1.463 . S
C426 N430 1.427 . S
C427 H417 0.929 . S
C427 C425 1.433 . S
C427 N430 1.384 . S
C428 H419 0.929 . S
C428 C420 1.378 . S
C428 C423 1.350 . S
C429 H416 0.929 . S
C429 C421 1.433 . S
C429 N431 1.384 . S
N430 C426 1.427 . S
N430 C427 1.384 . S
N431 C423 1.427 . S
N431 C429 1.384 . S
H432 C438 0.930 . S
H433 C442 0.930 . S
H434 C447 0.929 . S
H435 C445 0.929 . S
H436 C440 0.929 . S
H437 C446 0.929 . S
C438 H432 0.930 . S
C438 C439 1.367 . S
C438 C446 1.378 . S
C439 C438 1.367 . S
C439 C447 1.433 . S
C440 H436 0.929 . S
C440 C442 1.378 . S
C440 C444 1.350 . S
C441 C444 1.463 . S
C441 C446 1.350 . S
C441 N449 1.427 . S
C442 H433 0.930 . S
C442 C440 1.378 . S
C442 C443 1.367 . S
C443 C442 1.367 . S
C443 C445 1.433 . S
C444 C440 1.350 . S
C444 C441 1.463 . S
C444 N448 1.427 . S
C445 H435 0.929 . S
C445 C443 1.433 . S
C445 N448 1.384 . S
C446 H437 0.929 . S
C446 C438 1.378 . S
C446 C441 1.350 . S
C447 H434 0.929 . S
C447 C439 1.433 . S
C447 N449 1.384 . S
N448 C444 1.427 . S
N448 C445 1.384 . S
N449 C441 1.427 . S
N449 C447 1.384 . S
H450 C456 0.930 . S
H451 C460 0.930 . S
H452 C465 0.929 . S
H453 C463 0.929 . S
H454 C458 0.929 . S
H455 C464 0.929 1_455 S
C456 H450 0.930 . S
C456 C457 1.367 . S
C456 C464 1.378 . S
C457 C456 1.367 . S
C457 C465 1.433 . S
C458 H454 0.929 . S
C458 C460 1.378 . S
C458 C462 1.350 . S
C459 C462 1.463 . S
C459 C464 1.350 . S
C459 N467 1.427 . S
C460 H451 0.930 . S
C460 C458 1.378 . S
C460 C461 1.367 1_655 S
C461 C460 1.367 1_455 S
C461 C463 1.433 . S
C462 C458 1.350 . S
C462 C459 1.463 . S
C462 N466 1.427 1_655 S
C463 H453 0.929 . S
C463 C461 1.433 . S
C463 N466 1.384 . S
C464 H455 0.929 1_655 S
C464 C456 1.378 . S
C464 C459 1.350 . S
C465 H452 0.929 . S
C465 C457 1.433 . S
C465 N467 1.384 . S
N466 C462 1.427 1_455 S
N466 C463 1.384 . S
N467 C459 1.427 . S
N467 C465 1.384 . S
H468 C474 0.930 . S
H469 C478 0.930 . S
H470 C483 0.929 . S
H471 C481 0.929 . S
H472 C476 0.929 . S
H473 C482 0.929 . S
C474 H468 0.930 . S
C474 C475 1.367 . S
C474 C482 1.378 . S
C475 C474 1.367 . S
C475 C483 1.433 . S
C476 H472 0.929 . S
C476 C478 1.378 . S
C476 C480 1.350 . S
C477 C480 1.463 . S
C477 C482 1.350 . S
C477 N485 1.427 . S
C478 H469 0.930 . S
C478 C476 1.378 . S
C478 C479 1.367 . S
C479 C478 1.367 . S
C479 C481 1.433 . S
C480 C476 1.350 . S
C480 C477 1.463 . S
C480 N484 1.427 . S
C481 H471 0.929 . S
C481 C479 1.433 . S
C481 N484 1.384 . S
C482 H473 0.929 . S
C482 C474 1.378 . S
C482 C477 1.350 . S
C483 H470 0.929 . S
C483 C475 1.433 . S
C483 N485 1.384 . S
N484 C480 1.427 . S
N484 C481 1.384 . S
N485 C477 1.427 . S
N485 C483 1.384 . S
H486 C492 0.930 . S
H487 C496 0.930 . S
H488 C501 0.929 . S
H489 C499 0.929 . S
H490 C494 0.929 . S
H491 C500 0.929 . S
C492 H486 0.930 . S
C492 C493 1.367 . S
C492 C500 1.378 . S
C493 C492 1.367 . S
C493 C501 1.433 . S
C494 H490 0.929 . S
C494 C496 1.378 . S
C494 C498 1.350 . S
C495 C498 1.463 . S
C495 C500 1.350 . S
C495 N503 1.427 . S
C496 H487 0.930 . S
C496 C494 1.378 . S
C496 C497 1.367 . S
C497 C496 1.367 . S
C497 C499 1.433 . S
C498 C494 1.350 . S
C498 C495 1.463 . S
C498 N502 1.427 . S
C499 H489 0.929 . S
C499 C497 1.433 . S
C499 N502 1.384 . S
C500 H491 0.929 . S
C500 C492 1.378 . S
C500 C495 1.350 . S
C501 H488 0.929 . S
C501 C493 1.433 . S
C501 N503 1.384 . S
N502 C498 1.427 . S
N502 C499 1.384 . S
N503 C495 1.427 . S
N503 C501 1.384 . S
H504 C510 0.930 . S
H505 C514 0.930 . S
H506 C519 0.929 . S
H507 C517 0.929 . S
H508 C512 0.929 . S
H509 C518 0.929 . S
C510 H504 0.930 . S
C510 C511 1.367 . S
C510 C518 1.378 . S
C511 C510 1.367 . S
C511 C519 1.433 . S
C512 H508 0.929 . S
C512 C514 1.378 . S
C512 C516 1.350 . S
C513 C516 1.463 . S
C513 C518 1.350 . S
C513 N521 1.427 . S
C514 H505 0.930 . S
C514 C512 1.378 . S
C514 C515 1.367 . S
C515 C514 1.367 . S
C515 C517 1.433 . S
C516 C512 1.350 . S
C516 C513 1.463 . S
C516 N520 1.427 . S
C517 H507 0.929 . S
C517 C515 1.433 . S
C517 N520 1.384 . S
C518 H509 0.929 . S
C518 C510 1.378 . S
C518 C513 1.350 . S
C519 H506 0.929 . S
C519 C511 1.433 . S
C519 N521 1.384 . S
N520 C516 1.427 . S
N520 C517 1.384 . S
N521 C513 1.427 . S
N521 C519 1.384 . S
H522 C528 0.930 . S
H523 C532 0.930 . S
H524 C537 0.929 . S
H525 C535 0.929 . S
H526 C530 0.929 . S
H527 C536 0.929 . S
C528 H522 0.930 . S
C528 C529 1.367 . S
C528 C536 1.378 . S
C529 C528 1.367 . S
C529 C537 1.433 . S
C530 H526 0.929 . S
C530 C532 1.378 . S
C530 C534 1.350 . S
C531 C534 1.463 . S
C531 C536 1.350 . S
C531 N539 1.427 . S
C532 H523 0.930 . S
C532 C530 1.378 . S
C532 C533 1.367 . S
C533 C532 1.367 . S
C533 C535 1.433 . S
C534 C530 1.350 . S
C534 C531 1.463 . S
C534 N538 1.427 . S
C535 H525 0.929 . S
C535 C533 1.433 . S
C535 N538 1.384 . S
C536 H527 0.929 . S
C536 C528 1.378 . S
C536 C531 1.350 . S
C537 H524 0.929 . S
C537 C529 1.433 . S
C537 N539 1.384 . S
N538 C534 1.427 . S
N538 C535 1.384 . S
N539 C531 1.427 . S
N539 C537 1.384 . S
H540 C546 0.930 . S
H541 C550 0.930 . S
H542 C555 0.929 . S
H543 C553 0.929 . S
H544 C548 0.929 . S
H545 C554 0.929 . S
C546 H540 0.930 . S
C546 C547 1.367 . S
C546 C554 1.378 . S
C547 C546 1.367 . S
C547 C555 1.433 . S
C548 H544 0.929 . S
C548 C550 1.378 . S
C548 C552 1.350 1_554 S
C549 C552 1.463 . S
C549 C554 1.350 . S
C549 N557 1.427 . S
C550 H541 0.930 . S
C550 C548 1.378 . S
C550 C551 1.367 . S
C551 C550 1.367 . S
C551 C553 1.433 1_554 S
C552 C548 1.350 1_556 S
C552 C549 1.463 . S
C552 N556 1.427 . S
C553 H543 0.929 . S
C553 C551 1.433 1_556 S
C553 N556 1.384 . S
C554 H545 0.929 . S
C554 C546 1.378 . S
C554 C549 1.350 . S
C555 H542 0.929 . S
C555 C547 1.433 . S
C555 N557 1.384 . S
N556 C552 1.427 . S
N556 C553 1.384 . S
N557 C549 1.427 . S
N557 C555 1.384 . S
H558 C564 0.930 . S
H559 C568 0.930 . S
H560 C573 0.929 . S
H561 C571 0.929 . S
H562 C566 0.929 . S
H563 C572 0.929 . S
C564 H558 0.930 . S
C564 C565 1.367 . S
C564 C572 1.378 . S
C565 C564 1.367 . S
C565 C573 1.433 . S
C566 H562 0.929 . S
C566 C568 1.378 . S
C566 C570 1.350 . S
C567 C570 1.463 . S
C567 C572 1.350 . S
C567 N575 1.427 . S
C568 H559 0.930 . S
C568 C566 1.378 . S
C568 C569 1.367 . S
C569 C568 1.367 . S
C569 C571 1.433 . S
C570 C566 1.350 . S
C570 C567 1.463 . S
C570 N574 1.427 . S
C571 H561 0.929 . S
C571 C569 1.433 . S
C571 N574 1.384 . S
C572 H563 0.929 . S
C572 C564 1.378 . S
C572 C567 1.350 . S
C573 H560 0.929 . S
C573 C565 1.433 . S
C573 N575 1.384 . S
N574 C570 1.427 . S
N574 C571 1.384 . S
N575 C567 1.427 . S
N575 C573 1.384 . S
H576 C582 0.930 . S
H577 C586 0.930 . S
H578 C591 0.929 . S
H579 C589 0.929 . S
H580 C584 0.929 . S
H581 C590 0.929 . S
C582 H576 0.930 . S
C582 C583 1.367 . S
C582 C590 1.378 . S
C583 C582 1.367 . S
C583 C591 1.433 . S
C584 H580 0.929 . S
C584 C586 1.378 . S
C584 C588 1.350 . S
C585 C588 1.463 . S
C585 C590 1.350 . S
C585 N593 1.427 . S
C586 H577 0.930 . S
C586 C584 1.378 . S
C586 C587 1.367 . S
C587 C586 1.367 . S
C587 C589 1.433 . S
C588 C584 1.350 . S
C588 C585 1.463 . S
C588 N592 1.427 . S
C589 H579 0.929 . S
C589 C587 1.433 . S
C589 N592 1.384 . S
C590 H581 0.929 . S
C590 C582 1.378 . S
C590 C585 1.350 . S
C591 H578 0.929 . S
C591 C583 1.433 . S
C591 N593 1.384 . S
N592 C588 1.427 . S
N592 C589 1.384 . S
N593 C585 1.427 . S
N593 C591 1.384 . S
H594 C600 0.930 . S
H595 C604 0.930 . S
H596 C609 0.929 . S
H597 C607 0.929 . S
H598 C602 0.929 . S
H599 C608 0.929 . S
C600 H594 0.930 . S
C600 C601 1.367 . S
C600 C608 1.378 . S
C601 C600 1.367 . S
C601 C609 1.433 . S
C602 H598 0.929 . S
C602 C604 1.378 . S
C602 C606 1.350 . S
C603 C606 1.463 . S
C603 C608 1.350 . S
C603 N611 1.427 . S
C604 H595 0.930 . S
C604 C602 1.378 . S
C604 C605 1.367 . S
C605 C604 1.367 . S
C605 C607 1.433 . S
C606 C602 1.350 . S
C606 C603 1.463 . S
C606 N610 1.427 . S
C607 H597 0.929 . S
C607 C605 1.433 . S
C607 N610 1.384 . S
C608 H599 0.929 . S
C608 C600 1.378 . S
C608 C603 1.350 . S
C609 H596 0.929 . S
C609 C601 1.433 . S
C609 N611 1.384 . S
N610 C606 1.427 . S
N610 C607 1.384 . S
N611 C603 1.427 . S
N611 C609 1.384 . S
H612 C618 0.930 . S
H613 C622 0.930 . S
H614 C627 0.929 . S
H615 C625 0.929 . S
H616 C620 0.929 . S
H617 C626 0.929 . S
C618 H612 0.930 . S
C618 C619 1.367 . S
C618 C626 1.378 . S
C619 C618 1.367 . S
C619 C627 1.433 . S
C620 H616 0.929 . S
C620 C622 1.378 . S
C620 C624 1.350 . S
C621 C624 1.463 . S
C621 C626 1.350 . S
C621 N629 1.427 . S
C622 H613 0.930 . S
C622 C620 1.378 . S
C622 C623 1.367 . S
C623 C622 1.367 . S
C623 C625 1.433 . S
C624 C620 1.350 . S
C624 C621 1.463 . S
C624 N628 1.427 . S
C625 H615 0.929 . S
C625 C623 1.433 . S
C625 N628 1.384 . S
C626 H617 0.929 . S
C626 C618 1.378 . S
C626 C621 1.350 . S
C627 H614 0.929 . S
C627 C619 1.433 . S
C627 N629 1.384 . S
N628 C624 1.427 . S
N628 C625 1.384 . S
N629 C621 1.427 . S
N629 C627 1.384 . S
H630 C636 0.930 . S
H631 C640 0.930 . S
H632 C645 0.929 . S
H633 C643 0.929 . S
H634 C638 0.929 . S
H635 C644 0.929 . S
C636 H630 0.930 . S
C636 C637 1.367 . S
C636 C644 1.378 . S
C637 C636 1.367 . S
C637 C645 1.433 . S
C638 H634 0.929 . S
C638 C640 1.378 . S
C638 C642 1.350 . S
C639 C642 1.463 . S
C639 C644 1.350 . S
C639 N647 1.427 . S
C640 H631 0.930 . S
C640 C638 1.378 . S
C640 C641 1.367 . S
C641 C640 1.367 . S
C641 C643 1.433 . S
C642 C638 1.350 . S
C642 C639 1.463 . S
C642 N646 1.427 . S
C643 H633 0.929 . S
C643 C641 1.433 . S
C643 N646 1.384 . S
C644 H635 0.929 . S
C644 C636 1.378 . S
C644 C639 1.350 . S
C645 H632 0.929 . S
C645 C637 1.433 . S
C645 N647 1.384 . S
N646 C642 1.427 . S
N646 C643 1.384 . S
N647 C639 1.427 . S
N647 C645 1.384 . S
H648 C654 0.930 . S
H649 C658 0.930 . S
H650 C663 0.929 . S
H651 C661 0.929 1_455 S
H652 C656 0.929 . S
H653 C662 0.929 . S
C654 H648 0.930 . S
C654 C655 1.367 . S
C654 C662 1.378 . S
C655 C654 1.367 . S
C655 C663 1.433 . S
C656 H652 0.929 . S
C656 C658 1.378 . S
C656 C660 1.350 . S
C657 C660 1.463 . S
C657 C662 1.350 . S
C657 N665 1.427 . S
C658 H649 0.930 . S
C658 C656 1.378 . S
C658 C659 1.367 . S
C659 C658 1.367 . S
C659 C661 1.433 . S
C660 C656 1.350 . S
C660 C657 1.463 . S
C660 N664 1.427 . S
C661 H651 0.929 1_655 S
C661 C659 1.433 . S
C661 N664 1.384 . S
C662 H653 0.929 . S
C662 C654 1.378 . S
C662 C657 1.350 . S
C663 H650 0.929 . S
C663 C655 1.433 . S
C663 N665 1.384 . S
N664 C660 1.427 . S
N664 C661 1.384 . S
N665 C657 1.427 . S
N665 C663 1.384 . S
H666 C672 0.930 . S
H667 C676 0.930 . S
H668 C681 0.929 . S
H669 C679 0.929 . S
H670 C674 0.929 . S
H671 C680 0.929 . S
C672 H666 0.930 . S
C672 C673 1.367 . S
C672 C680 1.378 . S
C673 C672 1.367 . S
C673 C681 1.433 . S
C674 H670 0.929 . S
C674 C676 1.378 . S
C674 C678 1.350 . S
C675 C678 1.463 . S
C675 C680 1.350 . S
C675 N683 1.427 . S
C676 H667 0.930 . S
C676 C674 1.378 . S
C676 C677 1.367 . S
C677 C676 1.367 . S
C677 C679 1.433 . S
C678 C674 1.350 . S
C678 C675 1.463 . S
C678 N682 1.427 . S
C679 H669 0.929 . S
C679 C677 1.433 . S
C679 N682 1.384 . S
C680 H671 0.929 . S
C680 C672 1.378 . S
C680 C675 1.350 . S
C681 H668 0.929 . S
C681 C673 1.433 . S
C681 N683 1.384 . S
N682 C678 1.427 . S
N682 C679 1.384 . S
N683 C675 1.427 . S
N683 C681 1.384 . S
H684 C690 0.930 . S
H685 C694 0.930 . S
H686 C699 0.929 . S
H687 C697 0.929 . S
H688 C692 0.929 . S
H689 C698 0.929 . S
C690 H684 0.930 . S
C690 C691 1.367 . S
C690 C698 1.378 . S
C691 C690 1.367 . S
C691 C699 1.433 . S
C692 H688 0.929 . S
C692 C694 1.378 . S
C692 C696 1.350 . S
C693 C696 1.463 . S
C693 C698 1.350 . S
C693 N701 1.427 . S
C694 H685 0.930 . S
C694 C692 1.378 . S
C694 C695 1.367 . S
C695 C694 1.367 . S
C695 C697 1.433 . S
C696 C692 1.350 . S
C696 C693 1.463 . S
C696 N700 1.427 . S
C697 H687 0.929 . S
C697 C695 1.433 . S
C697 N700 1.384 . S
C698 H689 0.929 . S
C698 C690 1.378 . S
C698 C693 1.350 . S
C699 H686 0.929 . S
C699 C691 1.433 . S
C699 N701 1.384 . S
N700 C696 1.427 . S
N700 C697 1.384 . S
N701 C693 1.427 . S
N701 C699 1.384 . S
H702 C708 0.930 . S
H703 C712 0.930 . S
H704 C717 0.929 . S
H705 C715 0.929 . S
H706 C710 0.929 . S
H707 C716 0.929 . S
C708 H702 0.930 . S
C708 C709 1.367 . S
C708 C716 1.378 . S
C709 C708 1.367 . S
C709 C717 1.433 . S
C710 H706 0.929 . S
C710 C712 1.378 . S
C710 C714 1.350 . S
C711 C714 1.463 . S
C711 C716 1.350 . S
C711 N719 1.427 . S
C712 H703 0.930 . S
C712 C710 1.378 . S
C712 C713 1.367 . S
C713 C712 1.367 . S
C713 C715 1.433 . S
C714 C710 1.350 . S
C714 C711 1.463 . S
C714 N718 1.427 . S
C715 H705 0.929 . S
C715 C713 1.433 . S
C715 N718 1.384 . S
C716 H707 0.929 . S
C716 C708 1.378 . S
C716 C711 1.350 . S
C717 H704 0.929 . S
C717 C709 1.433 . S
C717 N719 1.384 . S
N718 C714 1.427 . S
N718 C715 1.384 . S
N719 C711 1.427 . S
N719 C717 1.384 . S
H720 C726 0.930 . S
H721 C730 0.930 . S
H722 C735 0.929 . S
H723 C733 0.929 . S
H724 C728 0.929 . S
H725 C734 0.929 . S
C726 H720 0.930 . S
C726 C727 1.367 . S
C726 C734 1.378 . S
C727 C726 1.367 . S
C727 C735 1.433 . S
C728 H724 0.929 . S
C728 C730 1.378 . S
C728 C732 1.350 . S
C729 C732 1.463 . S
C729 C734 1.350 . S
C729 N737 1.427 . S
C730 H721 0.930 . S
C730 C728 1.378 . S
C730 C731 1.367 . S
C731 C730 1.367 . S
C731 C733 1.433 . S
C732 C728 1.350 . S
C732 C729 1.463 . S
C732 N736 1.427 . S
C733 H723 0.929 . S
C733 C731 1.433 . S
C733 N736 1.384 . S
C734 H725 0.929 . S
C734 C726 1.378 . S
C734 C729 1.350 . S
C735 H722 0.929 . S
C735 C727 1.433 . S
C735 N737 1.384 . S
N736 C732 1.427 . S
N736 C733 1.384 . S
N737 C729 1.427 . S
N737 C735 1.384 . S
H738 C744 0.930 . S
H739 C748 0.930 . S
H740 C753 0.929 . S
H741 C751 0.929 . S
H742 C746 0.929 . S
H743 C752 0.929 . S
C744 H738 0.930 . S
C744 C745 1.367 . S
C744 C752 1.378 . S
C745 C744 1.367 . S
C745 C753 1.433 . S
C746 H742 0.929 . S
C746 C748 1.378 . S
C746 C750 1.350 . S
C747 C750 1.463 . S
C747 C752 1.350 . S
C747 N755 1.427 . S
C748 H739 0.930 . S
C748 C746 1.378 . S
C748 C749 1.367 . S
C749 C748 1.367 . S
C749 C751 1.433 . S
C750 C746 1.350 . S
C750 C747 1.463 . S
C750 N754 1.427 . S
C751 H741 0.929 . S
C751 C749 1.433 . S
C751 N754 1.384 . S
C752 H743 0.929 . S
C752 C744 1.378 . S
C752 C747 1.350 . S
C753 H740 0.929 . S
C753 C745 1.433 . S
C753 N755 1.384 . S
N754 C750 1.427 . S
N754 C751 1.384 . S
N755 C747 1.427 . S
N755 C753 1.384 . S
H756 C762 0.930 . S
H757 C766 0.930 . S
H758 C771 0.929 . S
H759 C769 0.929 . S
H760 C764 0.929 . S
H761 C770 0.929 . S
C762 H756 0.930 . S
C762 C763 1.367 . S
C762 C770 1.378 . S
C763 C762 1.367 . S
C763 C771 1.433 . S
C764 H760 0.929 . S
C764 C766 1.378 . S
C764 C768 1.350 . S
C765 C768 1.463 . S
C765 C770 1.350 . S
C765 N773 1.427 . S
C766 H757 0.930 . S
C766 C764 1.378 . S
C766 C767 1.367 . S
C767 C766 1.367 . S
C767 C769 1.433 . S
C768 C764 1.350 . S
C768 C765 1.463 . S
C768 N772 1.427 . S
C769 H759 0.929 . S
C769 C767 1.433 . S
C769 N772 1.384 . S
C770 H761 0.929 . S
C770 C762 1.378 . S
C770 C765 1.350 . S
C771 H758 0.929 . S
C771 C763 1.433 . S
C771 N773 1.384 . S
N772 C768 1.427 . S
N772 C769 1.384 . S
N773 C765 1.427 . S
N773 C771 1.384 . S
H774 C780 0.930 . S
H775 C784 0.930 . S
H776 C789 0.929 . S
H777 C787 0.929 . S
H778 C782 0.929 . S
H779 C788 0.929 . S
C780 H774 0.930 . S
C780 C781 1.367 . S
C780 C788 1.378 . S
C781 C780 1.367 . S
C781 C789 1.433 . S
C782 H778 0.929 . S
C782 C784 1.378 . S
C782 C786 1.350 . S
C783 C786 1.463 . S
C783 C788 1.350 . S
C783 N791 1.427 . S
C784 H775 0.930 . S
C784 C782 1.378 . S
C784 C785 1.367 . S
C785 C784 1.367 . S
C785 C787 1.433 . S
C786 C782 1.350 . S
C786 C783 1.463 . S
C786 N790 1.427 . S
C787 H777 0.929 . S
C787 C785 1.433 . S
C787 N790 1.384 . S
C788 H779 0.929 . S
C788 C780 1.378 . S
C788 C783 1.350 . S
C789 H776 0.929 . S
C789 C781 1.433 . S
C789 N791 1.384 . S
N790 C786 1.427 . S
N790 C787 1.384 . S
N791 C783 1.427 . S
N791 C789 1.384 . S
H792 C798 0.930 . S
H793 C802 0.930 . S
H794 C807 0.929 . S
H795 C805 0.929 . S
H796 C800 0.929 . S
H797 C806 0.929 . S
C798 H792 0.930 . S
C798 C799 1.367 . S
C798 C806 1.378 . S
C799 C798 1.367 . S
C799 C807 1.433 . S
C800 H796 0.929 . S
C800 C802 1.378 . S
C800 C804 1.350 . S
C801 C804 1.463 . S
C801 C806 1.350 . S
C801 N809 1.427 . S
C802 H793 0.930 . S
C802 C800 1.378 . S
C802 C803 1.367 . S
C803 C802 1.367 . S
C803 C805 1.433 . S
C804 C800 1.350 . S
C804 C801 1.463 . S
C804 N808 1.427 . S
C805 H795 0.929 . S
C805 C803 1.433 . S
C805 N808 1.384 . S
C806 H797 0.929 . S
C806 C798 1.378 . S
C806 C801 1.350 . S
C807 H794 0.929 . S
C807 C799 1.433 . S
C807 N809 1.384 . S
N808 C804 1.427 . S
N808 C805 1.384 . S
N809 C801 1.427 . S
N809 C807 1.384 . S
H810 C816 0.930 . S
H811 C820 0.930 . S
H812 C825 0.929 . S
H813 C823 0.929 . S
H814 C818 0.929 . S
H815 C824 0.929 . S
C816 H810 0.930 . S
C816 C817 1.367 . S
C816 C824 1.378 . S
C817 C816 1.367 . S
C817 C825 1.433 . S
C818 H814 0.929 . S
C818 C820 1.378 . S
C818 C822 1.350 . S
C819 C822 1.463 . S
C819 C824 1.350 . S
C819 N827 1.427 . S
C820 H811 0.930 . S
C820 C818 1.378 . S
C820 C821 1.367 . S
C821 C820 1.367 . S
C821 C823 1.433 . S
C822 C818 1.350 . S
C822 C819 1.463 . S
C822 N826 1.427 . S
C823 H813 0.929 . S
C823 C821 1.433 . S
C823 N826 1.384 . S
C824 H815 0.929 . S
C824 C816 1.378 . S
C824 C819 1.350 . S
C825 H812 0.929 . S
C825 C817 1.433 . S
C825 N827 1.384 . S
N826 C822 1.427 . S
N826 C823 1.384 . S
N827 C819 1.427 . S
N827 C825 1.384 . S
H828 C834 0.930 . S
H829 C838 0.930 . S
H830 C843 0.929 . S
H831 C841 0.929 . S
H832 C836 0.929 . S
H833 C842 0.929 . S
C834 H828 0.930 . S
C834 C835 1.367 . S
C834 C842 1.378 . S
C835 C834 1.367 . S
C835 C843 1.433 . S
C836 H832 0.929 . S
C836 C838 1.378 . S
C836 C840 1.350 . S
C837 C840 1.463 . S
C837 C842 1.350 . S
C837 N845 1.427 . S
C838 H829 0.930 . S
C838 C836 1.378 . S
C838 C839 1.367 . S
C839 C838 1.367 . S
C839 C841 1.433 . S
C840 C836 1.350 . S
C840 C837 1.463 . S
C840 N844 1.427 . S
C841 H831 0.929 . S
C841 C839 1.433 . S
C841 N844 1.384 . S
C842 H833 0.929 . S
C842 C834 1.378 . S
C842 C837 1.350 . S
C843 H830 0.929 . S
C843 C835 1.433 . S
C843 N845 1.384 . S
N844 C840 1.427 . S
N844 C841 1.384 . S
N845 C837 1.427 . S
N845 C843 1.384 . S
C425 C118 1.611 . S
C421 C6 1.616 . S
C443 C187 1.435 . S
C439 C18 1.425 . S
C461 C125 1.602 . S
C457 C28 1.608 . S
C479 C188 1.537 . S
C475 C45 1.529 . S
C497 C241 1.483 . S
C493 C4 1.495 . S
C515 C277 1.717 . S
C511 C21 1.717 . S
C529 C33 1.660 . S
C533 C337 1.675 . S
C551 C400 1.697 . S
C547 C40 1.689 . S
C569 C240 1.604 . S
C565 C16 1.603 . S
C583 C30 1.721 . S
C587 C284 1.703 . S
C605 C330 1.624 . S
C601 C42 1.615 . S
C623 C399 1.657 . S
C619 C9 1.652 . S
C637 C52 1.565 . S
C641 C178 1.565 . S
C659 C135 1.697 1_655 S
C655 C69 1.697 . S
C673 C78 1.427 . S
C677 C171 1.432 . S
C691 C93 1.451 . S
C695 C134 1.486 . S
C713 C346 1.693 1_565 S
C709 C57 1.670 . S
C731 C390 1.681 . S
C727 C66 1.688 . S
C749 C224 1.480 . S
C745 C76 1.494 . S
C763 C88 1.558 . S
C767 C293 1.535 . S
C785 C347 1.642 . S
C781 C64 1.628 . S
C803 C383 1.636 . S
C799 C81 1.628 . S
C821 C231 1.460 . S
C817 C90 1.463 . S
C835 C54 1.686 . S
C839 C294 1.673 . S
