# Generated by pormake.
# Topology pyr, (3,6)-cn, num edge types: 1
# Building blocks:
#     Node 0, Type 0, BuildingBlock: BELTOD_clean_linker_0, # of connection points: 3
#     Node 1, Type 0, BuildingBlock: BELTOD_clean_linker_0, # of connection points: 3
#     Node 2, Type 0, BuildingBlock: BELTOD_clean_linker_0, # of connection points: 3
#     Node 3, Type 0, BuildingBlock: BELTOD_clean_linker_0, # of connection points: 3
#     Node 4, Type 0, BuildingBlock: BELTOD_clean_linker_0, # of connection points: 3
#     Node 5, Type 0, BuildingBlock: BELTOD_clean_linker_0, # of connection points: 3
#     Node 6, Type 0, BuildingBlock: BELTOD_clean_linker_0, # of connection points: 3
#     Node 7, Type 0, BuildingBlock: BELTOD_clean_linker_0, # of connection points: 3
#     Node 8, Type 1, BuildingBlock: BETDEL_clean_sbu_0, # of connection points: 6
#     Node 9, Type 1, BuildingBlock: BETDEL_clean_sbu_0, # of connection points: 6
#     Node 10, Type 1, BuildingBlock: BETDEL_clean_sbu_0, # of connection points: 6
#     Node 11, Type 1, BuildingBlock: BETDEL_clean_sbu_0, # of connection points: 6
#     Edge 12, Type (0, 1), BuildingBlock: XUDNAN_clean_linker_2, # of connection points: 2
#     Edge 13, Type (0, 1), BuildingBlock: XUDNAN_clean_linker_2, # of connection points: 2
#     Edge 14, Type (0, 1), BuildingBlock: XUDNAN_clean_linker_2, # of connection points: 2
#     Edge 15, Type (0, 1), BuildingBlock: XUDNAN_clean_linker_2, # of connection points: 2
#     Edge 16, Type (0, 1), BuildingBlock: XUDNAN_clean_linker_2, # of connection points: 2
#     Edge 17, Type (0, 1), BuildingBlock: XUDNAN_clean_linker_2, # of connection points: 2
#     Edge 18, Type (0, 1), BuildingBlock: XUDNAN_clean_linker_2, # of connection points: 2
#     Edge 19, Type (0, 1), BuildingBlock: XUDNAN_clean_linker_2, # of connection points: 2
#     Edge 20, Type (0, 1), BuildingBlock: XUDNAN_clean_linker_2, # of connection points: 2
#     Edge 21, Type (0, 1), BuildingBlock: XUDNAN_clean_linker_2, # of connection points: 2
#     Edge 22, Type (0, 1), BuildingBlock: XUDNAN_clean_linker_2, # of connection points: 2
#     Edge 23, Type (0, 1), BuildingBlock: XUDNAN_clean_linker_2, # of connection points: 2
#     Edge 24, Type (0, 1), BuildingBlock: XUDNAN_clean_linker_2, # of connection points: 2
#     Edge 25, Type (0, 1), BuildingBlock: XUDNAN_clean_linker_2, # of connection points: 2
#     Edge 26, Type (0, 1), BuildingBlock: XUDNAN_clean_linker_2, # of connection points: 2
#     Edge 27, Type (0, 1), BuildingBlock: XUDNAN_clean_linker_2, # of connection points: 2
#     Edge 28, Type (0, 1), BuildingBlock: XUDNAN_clean_linker_2, # of connection points: 2
#     Edge 29, Type (0, 1), BuildingBlock: XUDNAN_clean_linker_2, # of connection points: 2
#     Edge 30, Type (0, 1), BuildingBlock: XUDNAN_clean_linker_2, # of connection points: 2
#     Edge 31, Type (0, 1), BuildingBlock: XUDNAN_clean_linker_2, # of connection points: 2
#     Edge 32, Type (0, 1), BuildingBlock: XUDNAN_clean_linker_2, # of connection points: 2
#     Edge 33, Type (0, 1), BuildingBlock: XUDNAN_clean_linker_2, # of connection points: 2
#     Edge 34, Type (0, 1), BuildingBlock: XUDNAN_clean_linker_2, # of connection points: 2
#     Edge 35, Type (0, 1), BuildingBlock: XUDNAN_clean_linker_2, # of connection points: 2
# Relax obj value: 0.028
# Max RMSD: 0.092
# Mean RMSD: 0.040
data_MOF--net-pyr--node1-BETDEL_clean_sbu_0--node2-BELTOD_clean_linker_0--edge1-XUDNAN_clean_linker_2
_symmetry_space_group_name_H-M    P1
_symmetry_Int_Tables_number       1
_symmetry_cell_setting            triclinic
loop_
_symmetry_equiv_pos_as_xyz
'x, y, z'
_cell_length_a     41.757816
_cell_length_b     43.887098
_cell_length_c     39.926956
_cell_angle_alpha  91.836298
_cell_angle_beta   89.372225
_cell_angle_gamma 94.847366
loop_
_atom_site_label
_atom_site_type_symbol
_atom_site_fract_x
_atom_site_fract_y
_atom_site_fract_z
_atom_type_partial_charge
P0 P 0.22739 0.23623 0.2127 0.0
H1 H 0.29523 0.25477 0.19969 0.0
H2 H 0.3385 0.22759 0.17412 0.0
H3 H 0.27061 0.15001 0.15112 0.0
H4 H 0.22747 0.17763 0.17595 0.0
H5 H 0.21576 0.29933 0.19886 0.0
H6 H 0.17902 0.32128 0.16108 0.0
H7 H 0.14602 0.23051 0.1241 0.0
H8 H 0.18335 0.20873 0.16167 0.0
H9 H 0.24635 0.18534 0.25085 0.0
H10 H 0.15872 0.22666 0.23044 0.0
O11 O 0.24393 0.26356 0.23865 0.0
H12 H 0.21576 0.14537 0.28176 0.0
H13 H 0.12791 0.18645 0.26096 0.0
C14 C 0.25836 0.21795 0.19024 0.0
C15 C 0.28965 0.23206 0.18881 0.0
C16 C 0.31435 0.21643 0.17432 0.0
C17 C 0.30806 0.18646 0.16103 0.0
C18 C 0.27625 0.17311 0.16093 0.0
C19 C 0.25158 0.18882 0.17529 0.0
C20 C 0.20203 0.25242 0.18321 0.0
C21 C 0.20078 0.28415 0.18251 0.0
C22 C 0.17962 0.29665 0.16103 0.0
C23 C 0.15935 0.27757 0.1399 0.0
C24 C 0.16145 0.24579 0.13993 0.0
C25 C 0.1827 0.23332 0.16143 0.0
C26 C 0.20468 0.20831 0.23736 0.0
C27 C 0.22049 0.18569 0.25282 0.0
C28 C 0.20298 0.1628 0.27037 0.0
C29 C 0.16938 0.16246 0.2732 0.0
C30 C 0.15377 0.18606 0.25905 0.0
C31 C 0.17134 0.20891 0.24138 0.0
P32 P 0.32574 0.85392 0.63478 0.0
H33 H 0.35675 0.91348 0.65592 0.0
H34 H 0.36247 0.94016 0.71048 0.0
H35 H 0.30919 0.86404 0.75712 0.0
H36 H 0.30266 0.83764 0.70206 0.0
H37 H 0.31948 0.8035 0.58502 0.0
H38 H 0.3449 0.75528 0.58008 0.0
H39 H 0.38168 0.77065 0.68056 0.0
H40 H 0.35855 0.81931 0.68417 0.0
H41 H 0.29946 0.90057 0.59609 0.0
H42 H 0.26328 0.81944 0.64696 0.0
O43 O 0.3512 0.87181 0.6079 0.0
H44 H 0.24481 0.91187 0.58383 0.0
H45 H 0.20796 0.83093 0.63526 0.0
C46 C 0.33012 0.87319 0.67515 0.0
C47 C 0.34635 0.90243 0.67782 0.0
C48 C 0.34942 0.91776 0.70894 0.0
C49 C 0.33644 0.904 0.73791 0.0
C50 C 0.31968 0.87492 0.73514 0.0
C51 C 0.31603 0.85987 0.70382 0.0
C52 C 0.33641 0.81489 0.63519 0.0
C53 C 0.33239 0.79605 0.60624 0.0
C54 C 0.34696 0.7684 0.60349 0.0
C55 C 0.3658 0.75908 0.62977 0.0
C56 C 0.36805 0.77727 0.65946 0.0
C57 C 0.35409 0.80507 0.66187 0.0
C58 C 0.28544 0.85871 0.62164 0.0
C59 C 0.27969 0.88486 0.60416 0.0
C60 C 0.24834 0.89158 0.59762 0.0
C61 C 0.22194 0.87247 0.60882 0.0
C62 C 0.22777 0.84599 0.62605 0.0
C63 C 0.25932 0.8393 0.63264 0.0
P64 P 0.6702 0.30981 0.80664 0.0
H65 H 0.73958 0.32134 0.79535 0.0
H66 H 0.78122 0.35479 0.82354 0.0
H67 H 0.70944 0.38984 0.88961 0.0
H68 H 0.66766 0.356 0.86126 0.0
H69 H 0.68878 0.29171 0.87306 0.0
H70 H 0.66658 0.2525 0.9103 0.0
H71 H 0.58566 0.23304 0.84419 0.0
H72 H 0.60732 0.27351 0.8078 0.0
H73 H 0.65718 0.37494 0.799 0.0
H74 H 0.62791 0.28708 0.75248 0.0
O75 O 0.6893 0.28564 0.78203 0.0
H76 H 0.63152 0.40039 0.75399 0.0
H77 H 0.60161 0.31231 0.70816 0.0
C78 C 0.70047 0.33615 0.82624 0.0
C79 C 0.73267 0.3362 0.81585 0.0
C80 C 0.75656 0.35521 0.83214 0.0
C81 C 0.74866 0.3748 0.85893 0.0
C82 C 0.71624 0.37511 0.86892 0.0
C83 C 0.69238 0.35582 0.85279 0.0
C84 C 0.64948 0.28623 0.83779 0.0
C85 C 0.66568 0.27986 0.86704 0.0
C86 C 0.65318 0.25691 0.88816 0.0
C87 C 0.62448 0.23917 0.88016 0.0
C88 C 0.60764 0.24636 0.85145 0.0
C89 C 0.62008 0.26959 0.83046 0.0
C90 C 0.64463 0.32895 0.77919 0.0
C91 C 0.64449 0.361 0.77977 0.0
C92 C 0.62968 0.37562 0.75402 0.0
C93 C 0.61493 0.3584 0.72723 0.0
C94 C 0.6132 0.32628 0.72815 0.0
C95 C 0.628 0.31178 0.75372 0.0
P96 P 0.81111 0.69393 0.29198 0.0
H97 H 0.81313 0.76078 0.2983 0.0
H98 H 0.8431 0.79855 0.33446 0.0
H99 H 0.8916 0.72646 0.37828 0.0
H100 H 0.86068 0.6886 0.34245 0.0
H101 H 0.83059 0.70031 0.22153 0.0
H102 H 0.85812 0.66705 0.18225 0.0
H103 H 0.87608 0.608 0.26312 0.0
H104 H 0.84895 0.64154 0.30242 0.0
H105 H 0.7754 0.70373 0.35465 0.0
H106 H 0.78628 0.6295 0.28322 0.0
O107 O 0.78722 0.71233 0.2678 0.0
H108 H 0.73356 0.67222 0.38399 0.0
H109 H 0.74653 0.59732 0.31347 0.0
C110 C 0.83467 0.72182 0.31767 0.0
C111 C 0.8303 0.75304 0.31555 0.0
C112 C 0.8477 0.77473 0.33614 0.0
C113 C 0.86987 0.76566 0.35934 0.0
C114 C 0.87447 0.73429 0.36102 0.0
C115 C 0.85697 0.71259 0.34041 0.0
C116 C 0.83687 0.67287 0.26473 0.0
C117 C 0.84096 0.68052 0.23097 0.0
C118 C 0.8569 0.66164 0.20854 0.0
C119 C 0.86885 0.63476 0.21956 0.0
C120 C 0.86679 0.62844 0.2539 0.0
C121 C 0.85128 0.64756 0.27637 0.0
C122 C 0.78474 0.66883 0.31718 0.0
C123 C 0.76957 0.68033 0.34589 0.0
C124 C 0.74564 0.66218 0.36275 0.0
C125 C 0.7363 0.6321 0.35114 0.0
C126 C 0.75243 0.62048 0.32294 0.0
C127 C 0.77583 0.63879 0.30584 0.0
P128 P 0.83575 0.87024 0.92423 0.0
H129 H 0.79541 0.9043 0.96925 0.0
H130 H 0.73773 0.90809 0.97202 0.0
H131 H 0.72386 0.83757 0.89418 0.0
H132 H 0.78224 0.83423 0.89126 0.0
H133 H 0.85777 0.83896 0.98202 0.0
H134 H 0.88258 0.79061 0.98704 0.0
H135 H 0.86806 0.771 0.88141 0.0
H136 H 0.84238 0.81879 0.87666 0.0
H137 H 0.80186 0.90641 0.87749 0.0
H138 H 0.89289 0.86694 0.88166 0.0
O139 O 0.85412 0.89422 0.9526 0.0
H140 H 0.81448 0.9232 0.82102 0.0
H141 H 0.9053 0.8829 0.82456 0.0
C142 C 0.793 0.86878 0.93031 0.0
C143 C 0.78 0.88916 0.95328 0.0
C144 C 0.74691 0.89121 0.95489 0.0
C145 C 0.72616 0.87296 0.93344 0.0
C146 C 0.73924 0.85195 0.91095 0.0
C147 C 0.77249 0.84983 0.90948 0.0
C148 C 0.84932 0.83285 0.92876 0.0
C149 C 0.85951 0.82403 0.96006 0.0
C150 C 0.8735 0.79642 0.96296 0.0
C151 C 0.87757 0.7775 0.93449 0.0
C152 C 0.86552 0.78551 0.90359 0.0
C153 C 0.851 0.81281 0.90086 0.0
C154 C 0.84593 0.88437 0.88332 0.0
C155 C 0.82443 0.90101 0.86616 0.0
C156 C 0.83164 0.91057 0.83376 0.0
C157 C 0.86061 0.90387 0.81801 0.0
C158 C 0.88277 0.88843 0.83594 0.0
C159 C 0.87559 0.87905 0.86847 0.0
P160 P 0.76354 0.23007 0.31797 0.0
H161 H 0.75843 0.26954 0.37846 0.0
H162 H 0.71435 0.29803 0.4011 0.0
H163 H 0.65219 0.25748 0.32299 0.0
H164 H 0.6955 0.22934 0.30105 0.0
H165 H 0.83152 0.22269 0.31143 0.0
H166 H 0.867 0.19068 0.33966 0.0
H167 H 0.79081 0.16429 0.40962 0.0
H168 H 0.75534 0.19712 0.38135 0.0
H169 H 0.75943 0.22713 0.24451 0.0
H170 H 0.73214 0.16898 0.3269 0.0
O171 O 0.78416 0.25788 0.29728 0.0
H172 H 0.73423 0.18864 0.20522 0.0
H173 H 0.70661 0.13066 0.28798 0.0
C174 C 0.73018 0.24665 0.3386 0.0
C175 C 0.73504 0.26629 0.36681 0.0
C176 C 0.70993 0.28278 0.37948 0.0
C177 C 0.67962 0.27991 0.36398 0.0
C178 C 0.67489 0.25978 0.33607 0.0
C179 C 0.69988 0.24353 0.32344 0.0
C180 C 0.79094 0.21266 0.34457 0.0
C181 C 0.82266 0.21078 0.33345 0.0
C182 C 0.84284 0.19215 0.34939 0.0
C183 C 0.83161 0.17462 0.37662 0.0
C184 C 0.80024 0.17766 0.38884 0.0
C185 C 0.77996 0.19643 0.37276 0.0
C186 C 0.74815 0.20065 0.28855 0.0
C187 C 0.74842 0.20592 0.25411 0.0
C188 C 0.73377 0.18401 0.23171 0.0
C189 C 0.71851 0.15655 0.24347 0.0
C190 C 0.71867 0.15129 0.27802 0.0
C191 C 0.73327 0.1732 0.30034 0.0
P192 P 0.36308 0.66298 0.13772 0.0
H193 H 0.32173 0.66232 0.07936 0.0
H194 H 0.26809 0.63745 0.06762 0.0
H195 H 0.25872 0.61133 0.17087 0.0
H196 H 0.31209 0.63613 0.18243 0.0
H197 H 0.41964 0.69648 0.10974 0.0
H198 H 0.432 0.74964 0.09527 0.0
H199 H 0.33958 0.7715 0.13484 0.0
H200 H 0.32699 0.71758 0.14817 0.0
H201 H 0.37662 0.60482 0.16444 0.0
H202 H 0.37714 0.69831 0.20101 0.0
O203 O 0.38335 0.64314 0.10949 0.0
H204 H 0.39201 0.58917 0.21962 0.0
H205 H 0.39362 0.68306 0.2563 0.0
C206 C 0.32112 0.6508 0.13161 0.0
C207 C 0.30781 0.6518 0.09962 0.0
C208 C 0.27713 0.63763 0.09296 0.0
C209 C 0.25935 0.62204 0.11822 0.0
C210 C 0.27207 0.62268 0.15074 0.0
C211 C 0.30263 0.63699 0.15739 0.0
C212 C 0.37221 0.70299 0.12951 0.0
C213 C 0.40199 0.71268 0.11529 0.0
C214 C 0.40915 0.74327 0.10728 0.0
C215 C 0.38681 0.76507 0.11379 0.0
C216 C 0.35717 0.75534 0.12891 0.0
C217 C 0.34998 0.72455 0.13676 0.0
C218 C 0.37624 0.65277 0.17847 0.0
C219 C 0.38057 0.62208 0.1843 0.0
C220 C 0.38953 0.61318 0.21591 0.0
C221 C 0.39438 0.63484 0.24251 0.0
C222 C 0.38987 0.66569 0.23654 0.0
C223 C 0.38071 0.67453 0.20483 0.0
P224 P 0.19805 0.32459 0.69152 0.0
H225 H 0.21193 0.26594 0.66029 0.0
H226 H 0.17774 0.22448 0.63299 0.0
H227 H 0.09773 0.28072 0.63826 0.0
H228 H 0.1321 0.32214 0.66532 0.0
H229 H 0.26719 0.32681 0.67837 0.0
H230 H 0.30364 0.35882 0.64377 0.0
H231 H 0.22423 0.40861 0.61365 0.0
H232 H 0.18757 0.37549 0.64772 0.0
H233 H 0.14384 0.30407 0.73359 0.0
H234 H 0.19845 0.38969 0.71455 0.0
O235 O 0.22071 0.30504 0.71586 0.0
H236 H 0.11367 0.32913 0.77767 0.0
H237 H 0.16819 0.41496 0.75878 0.0
C238 C 0.17432 0.29679 0.66571 0.0
C239 C 0.18715 0.26953 0.65508 0.0
C240 C 0.16763 0.24589 0.63929 0.0
C241 C 0.13488 0.24912 0.63394 0.0
C242 C 0.12272 0.27733 0.64258 0.0
C243 C 0.14235 0.30104 0.65805 0.0
C244 C 0.22467 0.34902 0.66602 0.0
C245 C 0.25756 0.3447 0.6645 0.0
C246 C 0.27853 0.36327 0.64481 0.0
C247 C 0.26711 0.38664 0.62607 0.0
C248 C 0.23396 0.39075 0.62751 0.0
C249 C 0.21293 0.37195 0.64711 0.0
C250 C 0.17289 0.34505 0.72007 0.0
C251 C 0.14886 0.32843 0.73834 0.0
C252 C 0.1318 0.34274 0.76378 0.0
C253 C 0.13856 0.37404 0.77178 0.0
C254 C 0.16213 0.39091 0.75291 0.0
C255 C 0.17942 0.37645 0.72752 0.0
Dy256 Dy 0.01549 0.0068 0.48325 0.0
C257 C 0.94417 0.97243 0.6 0.0
C258 C 0.04339 0.03023 0.42656 0.0
Dy259 Dy 0.97647 0.99521 0.54537 0.0
O260 O 0.04837 0.00398 0.43859 0.0
O261 O 0.02301 0.04374 0.44539 0.0
O262 O 0.04358 0.96688 0.4915 0.0
O263 O 0.02749 0.99193 0.53345 0.0
C264 C 0.04075 0.96825 0.52383 0.0
C265 C 0.95152 0.03277 0.50275 0.0
O266 O 0.00539 0.03646 0.56518 0.0
O267 O 0.03046 0.04949 0.51484 0.0
O268 O 0.93127 0.9772 0.57147 0.0
O269 O 0.97488 0.98014 0.59884 0.0
O270 O 0.94875 0.03568 0.53507 0.0
O271 O 0.96506 0.00893 0.495 0.0
O272 O 0.98073 0.96835 0.46438 0.0
O273 O 0.97088 0.95005 0.51728 0.0
C274 C 0.02383 0.05557 0.54688 0.0
C275 C 0.96991 0.9461 0.4843 0.0
Dy276 Dy 0.52421 0.01866 0.04389 0.0
C277 C 0.42528 0.98952 0.94769 0.0
C278 C 0.57211 0.04092 0.0863 0.0
Dy279 Dy 0.47182 0.00921 0.99297 0.0
O280 O 0.56009 0.01272 0.0842 0.0
O281 O 0.55794 0.05714 0.06523 0.0
O282 O 0.51556 0.97035 0.05973 0.0
O283 O 0.47638 0.99296 0.04358 0.0
C284 C 0.48533 0.96755 0.05217 0.0
C285 C 0.51211 0.05958 0.98409 0.0
O286 O 0.44444 0.03106 0.03465 0.0
O287 O 0.48954 0.05093 0.06363 0.0
O288 O 0.43342 0.01777 0.95635 0.0
O289 O 0.44236 0.97171 0.96411 0.0
O290 O 0.48186 0.05756 0.97693 0.0
O291 O 0.51995 0.0339 0.99282 0.0
O292 O 0.55109 0.99539 0.00407 0.0
O293 O 0.50648 0.97547 0.9741 0.0
C294 C 0.45834 0.0498 0.05793 0.0
C295 C 0.53739 0.97595 0.98154 0.0
Dy296 Dy 0.50776 0.4818 0.46719 0.0
C297 C 0.47364 0.57694 0.55833 0.0
C298 C 0.53532 0.43761 0.42971 0.0
Dy299 Dy 0.49886 0.53261 0.51878 0.0
O300 O 0.50496 0.43723 0.43732 0.0
O301 O 0.55034 0.46269 0.44152 0.0
O302 O 0.45513 0.46901 0.46673 0.0
O303 O 0.47686 0.48566 0.51204 0.0
C304 C 0.45042 0.47747 0.49775 0.0
C305 C 0.55446 0.53888 0.48324 0.0
O306 O 0.5151 0.49802 0.55395 0.0
O307 O 0.53559 0.46832 0.51136 0.0
O308 O 0.50365 0.57121 0.55747 0.0
O309 O 0.45727 0.55801 0.53808 0.0
O310 O 0.55175 0.54929 0.51385 0.0
O311 O 0.5272 0.52877 0.47311 0.0
O312 O 0.49064 0.51543 0.432 0.0
O313 O 0.47082 0.54655 0.47416 0.0
C314 C 0.53252 0.47558 0.54361 0.0
C315 C 0.47334 0.53815 0.44195 0.0
Dy316 Dy 1.00065 0.46586 0.01389 0.0
C317 C 0.98074 0.59024 0.97602 0.0
C318 C 0.01939 0.4115 0.03389 0.0
Dy319 Dy 0.9962 0.53228 0.98525 0.0
O320 O 0.01576 0.4352 0.05343 0.0
O321 O 0.0122 0.41724 0.00324 0.0
O322 O 0.95683 0.47142 0.04459 0.0
O323 O 0.98747 0.51058 0.03399 0.0
C324 C 0.96082 0.5011 0.04714 0.0
C325 C 0.0267 0.49499 0.94208 0.0
O326 O 0.03857 0.54135 0.0189 0.0
O327 O 0.04853 0.49056 0.02706 0.0
O328 O 0.008 0.57984 0.96751 0.0
O329 O 0.96192 0.56903 0.9899 0.0
O330 O 0.02132 0.52276 0.93486 0.0
O331 O 0.01483 0.49028 0.97048 0.0
O332 O 0.96083 0.45637 0.97674 0.0
O333 O 0.94943 0.50708 0.97011 0.0
C334 C 0.05678 0.52047 0.02988 0.0
C335 C 0.94213 0.47712 0.96611 0.0
H336 H 0.1199 0.16704 0.31838 0.0
H337 H 0.17717 0.10132 0.26757 0.0
H338 H 0.14797 0.05957 0.29839 0.0
H339 H 0.11819 0.13375 0.39722 0.0
H340 H 0.07743 0.1415 0.40732 0.0
H341 H 0.10109 0.16589 0.37941 0.0
H342 H 0.05728 0.1562 0.3339 0.0
H343 H 0.03345 0.13173 0.36172 0.0
H344 H 0.04436 0.11748 0.32068 0.0
H345 H 0.11553 0.02572 0.33732 0.0
H346 H 0.08203 1.00191 0.3824 0.0
H347 H 0.04484 0.08932 0.40687 0.0
C348 C 0.12586 0.1438 0.31329 0.0
C349 C 0.1508 0.13738 0.29063 0.0
C350 C 0.15837 0.10675 0.28512 0.0
C351 C 0.14176 0.08288 0.30228 0.0
C352 C 0.11754 0.09002 0.32469 0.0
C353 C 0.10952 0.1197 0.3302 0.0
C354 C 0.08369 0.12137 0.35695 0.0
C355 C 0.09584 0.14183 0.38699 0.0
C356 C 0.05287 0.13234 0.34243 0.0
C357 C 0.07892 0.08809 0.36607 0.0
C358 C 0.09853 0.07037 0.347 0.0
C359 C 0.09976 0.03925 0.35212 0.0
C360 C 0.08072 0.02595 0.37776 0.0
C361 C 0.06081 0.04381 0.39778 0.0
C362 C 0.05954 0.07512 0.39152 0.0
H363 H 0.36229 0.88233 0.79408 0.0
H364 H 0.32234 0.96193 0.75522 0.0
H365 H 0.33485 0.99052 0.80851 0.0
H366 H 0.33801 0.89409 0.88343 0.0
H367 H 0.37511 0.88171 0.89865 0.0
H368 H 0.35869 0.86608 0.85958 0.0
H369 H 0.41224 0.88274 0.82931 0.0
H370 H 0.42877 0.89842 0.86818 0.0
H371 H 0.42804 0.92224 0.83229 0.0
H372 H 0.35636 0.01187 0.86297 0.0
H373 H 0.38751 0.02549 0.91424 0.0
H374 H 0.41474 0.93244 0.91783 0.0
C375 C 0.3554 0.9055 0.79728 0.0
C376 C 0.34104 0.91994 0.77088 0.0
C377 C 0.33322 0.95055 0.77534 0.0
C378 C 0.34008 0.96685 0.80552 0.0
C379 C 0.35482 0.95218 0.8309 0.0
C380 C 0.36243 0.9222 0.82714 0.0
C381 C 0.38116 0.91287 0.85691 0.0
C382 C 0.3621 0.88716 0.87576 0.0
C383 C 0.41452 0.90353 0.84601 0.0
C384 C 0.38367 0.94254 0.87755 0.0
C385 C 0.36783 0.96474 0.86231 0.0
C386 C 0.36844 0.99458 0.87541 0.0
C387 C 0.38621 1.0021 0.90449 0.0
C388 C 0.40328 0.97995 0.92 0.0
C389 C 0.40146 0.94966 0.90673 0.0
H390 H 0.57942 0.40904 0.7216 0.0
H391 H 0.62879 0.34198 0.66301 0.0
H392 H 0.61376 0.36556 0.61112 0.0
H393 H 0.51297 0.41209 0.66453 0.0
H394 H 0.51017 0.45269 0.67032 0.0
H395 H 0.52509 0.43113 0.7036 0.0
H396 H 0.57722 0.46751 0.70559 0.0
H397 H 0.56248 0.48915 0.67226 0.0
H398 H 0.60081 0.47333 0.66789 0.0
H399 H 0.59446 0.39534 0.5659 0.0
H400 H 0.56979 0.42916 0.52818 0.0
H401 H 0.53097 0.47814 0.61378 0.0
C402 C 0.58707 0.39944 0.69781 0.0
C403 C 0.60502 0.37337 0.69642 0.0
C404 C 0.61453 0.36148 0.66478 0.0
C405 C 0.60632 0.37487 0.63512 0.0
C406 C 0.58851 0.40025 0.63726 0.0
C407 C 0.57879 0.41248 0.66762 0.0
C408 C 0.5592 0.43966 0.66221 0.0
C409 C 0.52482 0.43351 0.67599 0.0
C410 C 0.57593 0.46916 0.67792 0.0
C411 C 0.55949 0.44057 0.62411 0.0
C412 C 0.57679 0.41764 0.61052 0.0
C413 C 0.58079 0.41339 0.57617 0.0
C414 C 0.56656 0.43288 0.5549 0.0
C415 C 0.54821 0.45648 0.56779 0.0
C416 C 0.54482 0.46043 0.60304 0.0
H417 H 0.91407 0.64161 0.16816 0.0
H418 H 0.84647 0.57521 0.21522 0.0
H419 H 0.86071 0.53567 0.17385 0.0
H420 H 0.90184 0.61314 0.0817 0.0
H421 H 0.94364 0.61903 0.06998 0.0
H422 H 0.92734 0.64318 0.10212 0.0
H423 H 0.9707 0.62908 0.14352 0.0
H424 H 0.9872 0.60507 0.11142 0.0
H425 H 0.975 0.58937 0.15119 0.0
H426 H 0.88056 0.50374 0.12803 0.0
H427 H 0.90999 0.47828 0.08329 0.0
H428 H 0.96841 0.56311 0.06603 0.0
C429 C 0.90233 0.61872 0.16958 0.0
C430 C 0.87922 0.61137 0.19498 0.0
C431 C 0.86446 0.58119 0.19625 0.0
C432 C 0.87219 0.55867 0.17269 0.0
C433 C 0.89494 0.56653 0.14803 0.0
C434 C 0.91021 0.59562 0.14639 0.0
C435 C 0.93507 0.5971 0.11814 0.0
C436 C 0.92645 0.61944 0.09141 0.0
C437 C 0.969 0.60566 0.1319 0.0
C438 C 0.93148 0.5642 0.10455 0.0
C439 C 0.90769 0.54734 0.12194 0.0
C440 C 0.89938 0.5166 0.11433 0.0
C441 C 0.91631 0.50236 0.08877 0.0
C442 C 0.94172 0.51858 0.07131 0.0
C443 C 0.94914 0.55012 0.07899 0.0
H444 H 0.30989 0.14692 0.10606 0.0
H445 H 0.36641 0.18454 0.1907 0.0
H446 H 0.4102 0.15301 0.1737 0.0
H447 H 0.3333 0.07011 0.11061 0.0
H448 H 0.33472 0.06362 0.06583 0.0
H449 H 0.30781 0.08975 0.08391 0.0
H450 H 0.33309 0.13283 0.04661 0.0
H451 H 0.35994 0.10678 0.02827 0.0
H452 H 0.37592 0.14246 0.0476 0.0
H453 H 0.44734 0.11754 0.14856 0.0
H454 H 0.47707 0.08099 0.1154 0.0
H455 H 0.3965 0.06485 0.04729 0.0
C456 C 0.33146 0.14848 0.12104 0.0
C457 C 0.33481 0.1684 0.14959 0.0
C458 C 0.36352 0.16994 0.16837 0.0
C459 C 0.38843 0.15191 0.15911 0.0
C460 C 0.38423 0.13239 0.13107 0.0
C461 C 0.35659 0.13057 0.11219 0.0
C462 C 0.3584 0.10764 0.08315 0.0
C463 C 0.33199 0.08121 0.08607 0.0
C464 C 0.35675 0.12338 0.04941 0.0
C465 C 0.39142 0.09689 0.08873 0.0
C466 C 0.40577 0.11151 0.11656 0.0
C467 C 0.4364 0.10591 0.1267 0.0
C468 C 0.45308 0.08508 0.10763 0.0
C469 C 0.43911 0.07002 0.07872 0.0
C470 C 0.4077 0.07581 0.06939 0.0
H471 H 0.19853 0.92917 0.61352 0.0
H472 H 0.17023 0.83383 0.58844 0.0
H473 H 0.11654 0.84774 0.57236 0.0
H474 H 0.11838 0.94989 0.64458 0.0
H475 H 0.12363 0.98712 0.62652 0.0
H476 H 0.15806 0.96916 0.64081 0.0
H477 H 0.18461 0.97477 0.58211 0.0
H478 H 0.15043 0.99283 0.56777 0.0
H479 H 0.16298 0.95933 0.5457 0.0
H480 H 0.06969 0.87271 0.55064 0.0
H481 H 0.03291 0.90686 0.52568 0.0
H482 H 0.09022 0.98597 0.5663 0.0
C483 C 0.18089 0.91113 0.60507 0.0
C484 C 0.18862 0.88035 0.60226 0.0
C485 C 0.16479 0.85747 0.59124 0.0
C486 C 0.13421 0.86518 0.58201 0.0
C487 C 0.12766 0.89583 0.58438 0.0
C488 C 0.15025 0.91843 0.59591 0.0
C489 C 0.13814 0.94991 0.59346 0.0
C490 C 0.13432 0.9649 0.62843 0.0
C491 C 0.16035 0.9704 0.57091 0.0
C492 C 0.10573 0.94163 0.57737 0.0
C493 C 0.10001 0.91024 0.57272 0.0
C494 C 0.07343 0.89721 0.55502 0.0
C495 C 0.05266 0.91671 0.541 0.0
C496 C 0.05834 0.9488 0.54512 0.0
C497 C 0.08473 0.96142 0.56416 0.0
H498 H 0.80769 0.35979 0.87984 0.0
H499 H 0.74733 0.43542 0.87663 0.0
H500 H 0.79025 0.46951 0.90376 0.0
H501 H 0.84289 0.38054 0.9607 0.0
H502 H 0.88193 0.36883 0.94902 0.0
H503 H 0.8464 0.35031 0.92957 0.0
H504 H 0.87005 0.36347 0.87101 0.0
H505 H 0.9056 0.38208 0.89029 0.0
H506 H 0.88258 0.40271 0.86207 0.0
H507 H 0.84007 0.49565 0.92924 0.0
H508 H 0.89253 0.51197 0.95427 0.0
H509 H 0.92073 0.41915 0.94227 0.0
C510 C 0.80357 0.38356 0.88477 0.0
C511 C 0.77418 0.39501 0.87608 0.0
C512 C 0.76952 0.42612 0.88334 0.0
C513 C 0.79381 0.44567 0.89857 0.0
C514 C 0.82254 0.4337 0.90661 0.0
C515 C 0.82747 0.40334 0.90021 0.0
C516 C 0.86048 0.39625 0.91171 0.0
C517 C 0.85775 0.37258 0.9394 0.0
C518 C 0.88088 0.3855 0.88199 0.0
C519 C 0.87345 0.42746 0.92531 0.0
C520 C 0.85117 0.44871 0.92196 0.0
C521 C 0.85767 0.4792 0.93211 0.0
C522 C 0.88767 0.48824 0.94622 0.0
C523 C 0.9109 0.46687 0.9503 0.0
C524 C 0.90353 0.43604 0.93966 0.0
H525 H 0.71707 0.63015 0.4182 0.0
H526 H 0.69129 0.59275 0.31905 0.0
H527 H 0.64524 0.56242 0.34324 0.0
H528 H 0.69245 0.56176 0.46475 0.0
H529 H 0.67609 0.5827 0.49959 0.0
H530 H 0.70887 0.60016 0.47522 0.0
H531 H 0.6755 0.64578 0.46366 0.0
H532 H 0.6427 0.62853 0.48809 0.0
H533 H 0.63618 0.63856 0.44542 0.0
H534 H 0.60076 0.53764 0.37677 0.0
H535 H 0.55884 0.52146 0.41777 0.0
H536 H 0.61087 0.57534 0.49586 0.0
C537 C 0.7018 0.61558 0.40152 0.0
C538 C 0.70851 0.61358 0.36661 0.0
C539 C 0.68763 0.59415 0.34591 0.0
C540 C 0.66111 0.5769 0.35939 0.0
C541 C 0.65535 0.57933 0.39371 0.0
C542 C 0.6749 0.59825 0.41457 0.0
C543 C 0.66215 0.59757 0.45041 0.0
C544 C 0.68634 0.58478 0.47387 0.0
C545 C 0.65363 0.62951 0.4626 0.0
C546 C 0.6322 0.5756 0.44621 0.0
C547 C 0.62904 0.56523 0.41327 0.0
C548 C 0.60305 0.54545 0.40269 0.0
C549 C 0.57936 0.53633 0.42623 0.0
C550 C 0.58163 0.54695 0.46006 0.0
C551 C 0.60866 0.5666 0.47024 0.0
H552 H 0.12114 0.32288 0.15792 0.0
H553 H 0.14369 0.26251 0.07437 0.0
H554 H 0.10521 0.28668 0.03904 0.0
H555 H 0.03596 0.32628 0.13956 0.0
H556 H 0.03664 0.36615 0.15209 0.0
H557 H 0.06345 0.34196 0.1714 0.0
H558 H 0.11229 0.37902 0.15469 0.0
H559 H 0.08567 0.40335 0.13554 0.0
H560 H 0.11806 0.38874 0.11138 0.0
H561 H 0.0678 0.32093 0.01166 0.0
H562 H 0.03564 0.36272 0.99461 0.0
H563 H 0.03834 0.39995 0.09655 0.0
C564 C 0.11795 0.31465 0.13222 0.0
C565 C 0.13544 0.2909 0.11883 0.0
C566 C 0.13028 0.28051 0.0852 0.0
C567 C 0.10852 0.29411 0.06497 0.0
C568 C 0.09198 0.31781 0.07891 0.0
C569 C 0.09643 0.32788 0.11182 0.0
C570 C 0.07736 0.35486 0.1204 0.0
C571 C 0.05184 0.34682 0.14746 0.0
C572 C 0.09968 0.38315 0.13111 0.0
C573 C 0.06208 0.35899 0.08693 0.0
C574 C 0.07046 0.33725 0.06333 0.0
C575 C 0.06071 0.33778 0.03005 0.0
C576 C 0.04245 0.3615 0.0206 0.0
C577 C 0.0344 0.38427 0.04437 0.0
C578 C 0.04382 0.38256 0.07798 0.0
H579 H 0.5623 0.21757 0.89668 0.0
H580 H 0.66184 0.19843 0.90843 0.0
H581 H 0.64423 0.1524 0.93963 0.0
H582 H 0.5332 0.19026 0.97778 0.0
H583 H 0.49544 0.17375 0.9612 0.0
H584 H 0.51595 0.20658 0.94198 0.0
H585 H 0.51518 0.17705 0.88469 0.0
H586 H 0.49465 0.14418 0.90371 0.0
H587 H 0.53193 0.14052 0.88134 0.0
H588 H 0.61562 0.10653 0.96718 0.0
H589 H 0.57795 0.06443 0.98784 0.0
H590 H 0.49742 0.1129 0.95704 0.0
C591 C 0.58045 0.2038 0.90586 0.0
C592 C 0.61354 0.21202 0.90028 0.0
C593 C 0.63639 0.19322 0.91295 0.0
C594 C 0.62662 0.16683 0.93057 0.0
C595 C 0.59387 0.15934 0.93542 0.0
C596 C 0.57112 0.17729 0.92345 0.0
C597 C 0.53739 0.16349 0.93082 0.0
C598 C 0.51944 0.18479 0.95435 0.0
C599 C 0.5187 0.15585 0.8982 0.0
C600 C 0.54472 0.13474 0.94825 0.0
C601 C 0.57744 0.13284 0.95093 0.0
C602 C 0.58995 0.10786 0.96537 0.0
C603 C 0.56842 0.08407 0.97702 0.0
C604 C 0.53485 0.08541 0.97399 0.0
C605 C 0.52299 0.11128 0.95977 0.0
H606 H 0.89527 0.82436 0.3459 0.0
H607 H 0.88263 0.75946 0.42584 0.0
H608 H 0.90879 0.79787 0.46524 0.0
H609 H 0.97292 0.86044 0.37284 0.0
H610 H 0.96383 0.89822 0.36169 0.0
H611 H 0.94563 0.86513 0.33906 0.0
H612 H 0.88914 0.88278 0.35252 0.0
H613 H 0.90714 0.9159 0.3752 0.0
H614 H 0.87775 0.89009 0.39553 0.0
H615 H 0.93369 0.84358 0.49667 0.0
H616 H 0.95669 0.89365 0.51833 0.0
H617 H 0.95319 0.93006 0.41864 0.0
C618 C 0.89801 0.81819 0.37169 0.0
C619 C 0.88699 0.78867 0.38263 0.0
C620 C 0.89134 0.78159 0.41658 0.0
C621 C 0.90601 0.80336 0.43926 0.0
C622 C 0.91631 0.83219 0.4277 0.0
C623 C 0.91263 0.83969 0.39473 0.0
C624 C 0.9252 0.87265 0.38911 0.0
C625 C 0.95359 0.87419 0.3642 0.0
C626 C 0.89819 0.89146 0.3774 0.0
C627 C 0.93613 0.8826 0.42421 0.0
C628 C 0.9308 0.85879 0.44598 0.0
C629 C 0.9381 0.86236 0.47985 0.0
C630 C 0.9511 0.89102 0.49192 0.0
C631 C 0.95676 0.91593 0.47024 0.0
C632 C 0.94932 0.91149 0.43583 0.0
H633 H 0.35035 0.70388 0.59527 0.0
H634 H 0.42649 0.75372 0.65315 0.0
H635 H 0.45995 0.71068 0.6451 0.0
H636 H 0.36387 0.62734 0.62259 0.0
H637 H 0.35634 0.60962 0.58176 0.0
H638 H 0.33679 0.64328 0.59436 0.0
H639 H 0.35964 0.67078 0.54169 0.0
H640 H 0.37915 0.63721 0.5289 0.0
H641 H 0.40237 0.67357 0.53387 0.0
H642 H 0.48683 0.66394 0.62837 0.0
H643 H 0.50574 0.61682 0.60233 0.0
H644 H 0.41347 0.59726 0.5539 0.0
C645 C 0.37399 0.70575 0.60639 0.0
C646 C 0.38534 0.7322 0.62543 0.0
C647 C 0.41659 0.73351 0.63938 0.0
C648 C 0.43601 0.7092 0.63475 0.0
C649 C 0.4241 0.68361 0.61592 0.0
C650 C 0.39388 0.68168 0.60184 0.0
C651 C 0.38769 0.65218 0.58116 0.0
C652 C 0.3595 0.63191 0.59586 0.0
C653 C 0.38188 0.65884 0.54422 0.0
C654 C 0.41933 0.63814 0.58547 0.0
C655 C 0.43986 0.65659 0.60585 0.0
C656 C 0.47089 0.64916 0.61259 0.0
C657 C 0.48142 0.62237 0.59772 0.0
C658 C 0.46101 0.60336 0.57634 0.0
C659 C 0.42943 0.6112 0.5705 0.0
H660 H 0.91806 0.92668 0.79048 0.0
H661 H 0.81834 0.90009 0.76582 0.0
H662 H 0.82907 0.9146 0.70737 0.0
H663 H 0.92858 0.99133 0.73833 0.0
H664 H 0.96909 0.98463 0.72594 0.0
H665 H 0.95362 0.97218 0.76596 0.0
H666 H 0.96729 0.91685 0.75081 0.0
H667 H 0.98285 0.92915 0.71075 0.0
H668 H 0.95167 0.89824 0.71278 0.0
H669 H 0.85025 0.93249 0.652 0.0
H670 H 0.88089 0.95222 0.60286 0.0
H671 H 0.96717 0.9656 0.66298 0.0
C672 C 0.89853 0.92363 0.77275 0.0
C673 C 0.8673 0.91242 0.78281 0.0
C674 C 0.84233 0.90915 0.75886 0.0
C675 C 0.84823 0.91711 0.72554 0.0
C676 C 0.87925 0.92814 0.71653 0.0
C677 C 0.90402 0.93132 0.73935 0.0
C678 C 0.93516 0.94377 0.72313 0.0
C679 C 0.94731 0.97482 0.73931 0.0
C680 C 0.96075 0.92062 0.72445 0.0
C681 C 0.92394 0.94725 0.68765 0.0
C682 C 0.8916 0.9381 0.68441 0.0
C683 C 0.87561 0.93962 0.65416 0.0
C684 C 0.89317 0.95086 0.62646 0.0
C685 C 0.9263 0.96031 0.62927 0.0
C686 C 0.94187 0.95838 0.6602 0.0
H687 H 0.67946 0.16799 0.19127 0.0
H688 H 0.71812 0.09404 0.24329 0.0
H689 H 0.6864 0.05639 0.20706 0.0
H690 H 0.60084 0.13335 0.18196 0.0
H691 H 0.59495 0.14746 0.14076 0.0
H692 H 0.62213 0.16865 0.16937 0.0
H693 H 0.66813 0.16705 0.1254 0.0
H694 H 0.64102 0.14596 0.09655 0.0
H695 H 0.67807 0.1307 0.10767 0.0
H696 H 0.64821 0.02692 0.16759 0.0
H697 H 0.60686 0.00756 0.12659 0.0
H698 H 0.5941 0.10062 0.09927 0.0
C699 C 0.6818 0.14389 0.19459 0.0
C700 C 0.70131 0.13395 0.22011 0.0
C701 C 0.7031 0.10218 0.22413 0.0
C702 C 0.68532 0.08063 0.20355 0.0
C703 C 0.66601 0.09122 0.17897 0.0
C704 C 0.66427 0.12209 0.17425 0.0
C705 C 0.64078 0.12742 0.14682 0.0
C706 C 0.61304 0.14527 0.16056 0.0
C707 C 0.65804 0.14375 0.11736 0.0
C708 C 0.62926 0.09473 0.13716 0.0
C709 C 0.64418 0.0742 0.15596 0.0
C710 C 0.6366 0.04275 0.15249 0.0
C711 C 0.61307 0.03198 0.12923 0.0
C712 C 0.59751 0.05263 0.10978 0.0
C713 C 0.60588 0.08436 0.11365 0.0
H714 H 0.43554 0.59141 0.25781 0.0
H715 H 0.37354 0.65567 0.30406 0.0
H716 H 0.38739 0.63839 0.35991 0.0
H717 H 0.41494 0.5304 0.31386 0.0
H718 H 0.45495 0.51789 0.31432 0.0
H719 H 0.44116 0.53616 0.27804 0.0
H720 H 0.48998 0.57666 0.28203 0.0
H721 H 0.50395 0.55848 0.3183 0.0
H722 H 0.49718 0.59852 0.32061 0.0
H723 H 0.40734 0.61337 0.41089 0.0
H724 H 0.43212 0.58294 0.45294 0.0
H725 H 0.47977 0.53389 0.37324 0.0
C726 C 0.42467 0.60179 0.27961 0.0
C727 C 0.40344 0.62503 0.27636 0.0
C728 C 0.39024 0.63822 0.30574 0.0
C729 C 0.39778 0.62839 0.33763 0.0
C730 C 0.41854 0.60528 0.33982 0.0
C731 C 0.43182 0.59216 0.31159 0.0
C732 C 0.45316 0.56747 0.32078 0.0
C733 C 0.44027 0.53612 0.30586 0.0
C734 C 0.48814 0.57579 0.30978 0.0
C735 C 0.44973 0.56864 0.3586 0.0
C736 C 0.42973 0.59066 0.3691 0.0
C737 C 0.42304 0.59607 0.40293 0.0
C738 C 0.43726 0.57863 0.42665 0.0
C739 C 0.4579 0.55592 0.4165 0.0
C740 C 0.46402 0.55092 0.38192 0.0
H741 H 0.11163 0.42957 0.77645 0.0
H742 H 0.1298 0.35064 0.83393 0.0
H743 H 0.10351 0.37318 0.88329 0.0
H744 H 0.12482 0.48625 0.84391 0.0
H745 H 0.09297 0.50863 0.83144 0.0
H746 H 0.11355 0.48657 0.80047 0.0
H747 H 0.05916 0.45896 0.78159 0.0
H748 H 0.03842 0.48092 0.81251 0.0
H749 H 0.03325 0.43972 0.8121 0.0
H750 H 0.07661 0.40442 0.92683 0.0
H751 H 0.04869 0.44184 0.96123 0.0
H752 H 0.04536 0.49992 0.87592 0.0
C753 C 0.11018 0.41715 0.7995 0.0
C754 C 0.12266 0.38823 0.80127 0.0
C755 C 0.12006 0.37259 0.83182 0.0
C756 C 0.10532 0.38529 0.86006 0.0
C757 C 0.09311 0.41367 0.85746 0.0
C758 C 0.0952 0.42941 0.82798 0.0
C759 C 0.07951 0.45933 0.83196 0.0
C760 C 0.10419 0.48682 0.82663 0.0
C761 C 0.05088 0.45974 0.80812 0.0
C762 C 0.06838 0.45791 0.86827 0.0
C763 C 0.07666 0.43139 0.88247 0.0
C764 C 0.06959 0.42505 0.91583 0.0
C765 C 0.0534 0.44623 0.93514 0.0
C766 C 0.04403 0.47322 0.92107 0.0
C767 C 0.05192 0.47925 0.88724 0.0
H768 H 0.6874 0.88131 0.98767 0.0
H769 H 0.68709 0.87697 0.87907 0.0
H770 H 0.63255 0.89502 0.8795 0.0
H771 H 0.59841 0.86342 0.00172 0.0
H772 H 0.5987 0.89069 0.03646 0.0
H773 H 0.63359 0.87016 0.02756 0.0
H774 H 0.66866 0.92168 0.02433 0.0
H775 H 0.63401 0.9423 0.0329 0.0
H776 H 0.65775 0.94992 0.99566 0.0
H777 H 0.58185 0.92201 0.89202 0.0
H778 H 0.5417 0.95586 0.91556 0.0
H779 H 0.57825 0.94471 0.0151 0.0
C780 C 0.67551 0.88335 0.96398 0.0
C781 C 0.69141 0.87771 0.93339 0.0
C782 C 0.67512 0.8807 0.90287 0.0
C783 C 0.64416 0.89102 0.90287 0.0
C784 C 0.6298 0.89793 0.93359 0.0
C785 C 0.64495 0.8939 0.9636 0.0
C786 C 0.62692 0.90681 0.99302 0.0
C787 C 0.61361 0.88124 0.01604 0.0
C788 C 0.64809 0.93165 0.01259 0.0
C789 C 0.60022 0.92026 0.97484 0.0
C790 C 0.60152 0.91426 0.94067 0.0
C791 C 0.5803 0.92638 0.91879 0.0
C792 C 0.55767 0.94555 0.93225 0.0
C793 C 0.55729 0.95283 0.96696 0.0
C794 C 0.57826 0.93945 0.9884 0.0
H795 H 0.84228 0.16195 0.44281 0.0
H796 H 0.8662 0.1347 0.34072 0.0
H797 H 0.89997 0.09626 0.36192 0.0
H798 H 0.92053 0.15366 0.47772 0.0
H799 H 0.90477 0.13886 0.51671 0.0
H800 H 0.88241 0.16448 0.49367 0.0
H801 H 0.83303 0.12453 0.49279 0.0
H802 H 0.85523 0.09881 0.51588 0.0
H803 H 0.83742 0.08636 0.47631 0.0
H804 H 0.93027 0.06004 0.39374 0.0
H805 H 0.95574 0.02874 0.4346 0.0
H806 H 0.91333 0.07962 0.51625 0.0
C807 C 0.85457 0.14782 0.42497 0.0
C808 C 0.8518 0.15154 0.39009 0.0
C809 C 0.86839 0.13267 0.36754 0.0
C810 C 0.8875 0.11063 0.37933 0.0
C811 C 0.88991 0.10767 0.41378 0.0
C812 C 0.874 0.12574 0.43633 0.0
C813 C 0.88086 0.11784 0.47212 0.0
C814 C 0.89817 0.14535 0.49117 0.0
C815 C 0.84978 0.10619 0.49034 0.0
C816 C 0.90291 0.09243 0.46608 0.0
C817 C 0.90776 0.08692 0.43222 0.0
C818 C 0.92676 0.06421 0.42034 0.0
C819 C 0.94115 0.04657 0.4437 0.0
C820 C 0.93659 0.05186 0.4785 0.0
C821 C 0.91732 0.07518 0.48976 0.0
H822 H 0.20865 0.63659 0.07955 0.0
H823 H 0.24215 0.56394 0.13783 0.0
H824 H 0.19374 0.53061 0.12233 0.0
H825 H 0.12361 0.62105 0.09994 0.0
H826 H 0.11043 0.62976 0.05875 0.0
H827 H 0.14736 0.64833 0.07516 0.0
H828 H 0.17816 0.62931 0.02292 0.0
H829 H 0.14137 0.6106 0.00642 0.0
H830 H 0.17563 0.58898 0.0121 0.0
H831 H 0.14344 0.50413 0.0982 0.0
H832 H 0.09265 0.48717 0.06972 0.0
H833 H 0.09051 0.57718 0.02804 0.0
C834 C 0.20569 0.6137 0.08913 0.0
C835 C 0.22912 0.60294 0.1101 0.0
C836 C 0.22431 0.57288 0.12221 0.0
C837 C 0.19699 0.55368 0.11337 0.0
C838 C 0.17449 0.5649 0.09253 0.0
C839 C 0.17833 0.59428 0.08078 0.0
C840 C 0.15045 0.60056 0.05869 0.0
C841 C 0.13186 0.62646 0.07407 0.0
C842 C 0.16211 0.60778 0.02291 0.0
C843 C 0.13059 0.57001 0.05957 0.0
C844 C 0.145 0.54976 0.07913 0.0
C845 C 0.13178 0.51985 0.08301 0.0
C846 C 0.10295 0.5104 0.0666 0.0
C847 C 0.08746 0.53084 0.04671 0.0
C848 C 0.10156 0.56107 0.04328 0.0
H849 H 0.33026 0.40846 0.63823 0.0
H850 H 0.25523 0.40721 0.56356 0.0
H851 H 0.2929 0.43561 0.52562 0.0
H852 H 0.37018 0.48435 0.61929 0.0
H853 H 0.40987 0.47236 0.62547 0.0
H854 H 0.37615 0.45495 0.64856 0.0
H855 H 0.38958 0.40138 0.62626 0.0
H856 H 0.42332 0.41862 0.60325 0.0
H857 H 0.3928 0.39417 0.58169 0.0
H858 H 0.33946 0.45908 0.49349 0.0
H859 H 0.3922 0.4762 0.46908 0.0
H860 H 0.43801 0.46284 0.56381 0.0
C861 C 0.32162 0.41431 0.614 0.0
C862 C 0.28951 0.40565 0.60412 0.0
C863 C 0.27935 0.41401 0.57216 0.0
C864 C 0.30067 0.43006 0.5503 0.0
C865 C 0.33215 0.43781 0.56067 0.0
C866 C 0.34265 0.43034 0.59179 0.0
C867 C 0.3783 0.43975 0.59586 0.0
C868 C 0.38395 0.46432 0.62397 0.0
C869 C 0.3971 0.41182 0.60213 0.0
C870 C 0.38639 0.45288 0.56178 0.0
C871 C 0.35925 0.45174 0.54205 0.0
C872 C 0.36077 0.46052 0.50884 0.0
C873 C 0.39082 0.47016 0.49519 0.0
C874 C 0.41902 0.47112 0.51466 0.0
C875 C 0.4167 0.46295 0.54862 0.0
H876 H 0.86866 0.72893 0.9762 0.0
H877 H 0.93021 0.76697 0.89708 0.0
H878 H 0.96477 0.72425 0.90117 0.0
H879 H 0.93071 0.70011 0.02583 0.0
H880 H 0.90691 0.66553 0.03645 0.0
H881 H 0.88753 0.69966 0.02831 0.0
H882 H 0.85281 0.67008 0.98247 0.0
H883 H 0.87199 0.63588 0.9907 0.0
H884 H 0.87228 0.65014 0.94884 0.0
H885 H 0.99328 0.67875 0.91474 0.0
H886 H 0.01102 0.62957 0.9326 0.0
H887 H 0.92934 0.61899 1.00059 0.0
C888 C 0.88946 0.72814 0.95984 0.0
C889 C 0.89697 0.75107 0.93634 0.0
C890 C 0.9241 0.74938 0.91504 0.0
C891 C 0.94392 0.72539 0.91735 0.0
C892 C 0.93602 0.70317 0.94086 0.0
C893 C 0.90923 0.70402 0.96142 0.0
C894 C 0.90542 0.67639 0.98338 0.0
C895 C 0.90779 0.68601 0.0207 0.0
C896 C 0.87375 0.65697 0.97588 0.0
C897 C 0.93425 0.65996 0.9719 0.0
C898 C 0.95181 0.67608 0.94772 0.0
C899 C 0.97969 0.66581 0.93353 0.0
C900 C 0.98963 0.63796 0.9439 0.0
C901 C 0.97142 0.62062 0.96779 0.0
C902 C 0.94356 0.63186 0.98216 0.0
H903 H 0.44514 0.79924 0.11754 0.0
H904 H 0.34606 0.80466 0.08807 0.0
H905 H 0.35969 0.85758 0.07 0.0
H906 H 0.46065 0.87712 0.14769 0.0
H907 H 0.50124 0.88058 0.13156 0.0
H908 H 0.48306 0.84382 0.14357 0.0
H909 H 0.49497 0.82129 0.08435 0.0
H910 H 0.5131 0.85799 0.07215 0.0
H911 H 0.48056 0.83911 0.04802 0.0
H912 H 0.38527 0.91024 0.05341 0.0
H913 H 0.42029 0.95716 0.04081 0.0
H914 H 0.50222 0.91535 0.07937 0.0
C915 C 0.42622 0.81138 0.10714 0.0
C916 C 0.39446 0.79757 0.10429 0.0
C917 C 0.37047 0.81473 0.09104 0.0
C918 C 0.37804 0.84479 0.08045 0.0
C919 C 0.40972 0.85744 0.0832 0.0
C920 C 0.43338 0.84119 0.09628 0.0
C921 C 0.46573 0.85953 0.09601 0.0
C922 C 0.4784 0.86562 0.13184 0.0
C923 C 0.49001 0.84352 0.07381 0.0
C924 C 0.4567 0.88863 0.08062 0.0
C925 C 0.4243 0.88718 0.07344 0.0
C926 C 0.41065 0.91159 0.05902 0.0
C927 C 0.43066 0.93812 0.05193 0.0
C928 C 0.46388 0.93988 0.05919 0.0
C929 C 0.47689 0.91471 0.07359 0.0
H930 H 0.14338 0.20673 0.58218 0.0
H931 H 0.0769 0.23034 0.6613 0.0
H932 H 0.0414 0.18427 0.64656 0.0
H933 H 0.0814 0.17626 0.52243 0.0
H934 H 0.10468 0.14611 0.50652 0.0
H935 H 0.12469 0.18156 0.5224 0.0
H936 H 0.15659 0.1516 0.56372 0.0
H937 H 0.13658 0.11611 0.54809 0.0
H938 H 0.1351 0.126 0.59221 0.0
H939 H 0.01509 0.13433 0.6266 0.0
H940 H 0.99672 0.08498 0.59935 0.0
H941 H 0.07809 0.09348 0.53065 0.0
C942 C 0.12122 0.20226 0.59619 0.0
C943 C 0.11283 0.22231 0.6228 0.0
C944 C 0.08361 0.21567 0.6405 0.0
C945 C 0.06337 0.18942 0.63246 0.0
C946 C 0.07241 0.17006 0.60636 0.0
C947 C 0.10038 0.17625 0.58813 0.0
C948 C 0.10417 0.15142 0.56124 0.0
C949 C 0.1037 0.16463 0.52606 0.0
C950 C 0.13494 0.13533 0.56665 0.0
C951 C 0.07426 0.13013 0.56768 0.0
C952 C 0.05647 0.14137 0.59399 0.0
C953 C 0.02862 0.12542 0.60576 0.0
C954 C 0.01848 0.09727 0.59019 0.0
C955 C 0.0359 0.08531 0.56282 0.0
C956 C 0.06412 0.10214 0.55132 0.0
H957 H 0.68421 0.34081 0.38406 0.0
H958 H 0.61532 0.26187 0.3691 0.0
H959 H 0.57094 0.29419 0.38182 0.0
H960 H 0.64143 0.37506 0.45409 0.0
H961 H 0.65217 0.41359 0.44119 0.0
H962 H 0.67846 0.38398 0.43145 0.0
H963 H 0.67647 0.39659 0.36857 0.0
H964 H 0.64975 0.42589 0.37807 0.0
H965 H 0.63814 0.39554 0.34803 0.0
H966 H 0.53385 0.33529 0.39428 0.0
H967 H 0.50689 0.3816 0.41069 0.0
H968 H 0.5997 0.43361 0.4188 0.0
C969 C 0.65985 0.33018 0.38404 0.0
C970 C 0.6533 0.29878 0.37534 0.0
C971 C 0.62096 0.28594 0.37518 0.0
C972 C 0.59557 0.3041 0.38243 0.0
C973 C 0.60282 0.33507 0.39004 0.0
C974 C 0.63416 0.34797 0.39134 0.0
C975 C 0.63533 0.38186 0.40041 0.0
C976 C 0.65288 0.38903 0.43377 0.0
C977 C 0.65084 0.4011 0.37207 0.0
C978 C 0.59976 0.38599 0.40383 0.0
C979 C 0.58142 0.35873 0.39758 0.0
C980 C 0.54795 0.35675 0.39931 0.0
C981 C 0.53284 0.38319 0.40846 0.0
C982 C 0.55121 0.41113 0.41583 0.0
C983 C 0.58506 0.41257 0.41303 0.0
loop_
_geom_bond_atom_site_label_1
_geom_bond_atom_site_label_2
_geom_bond_distance
_geom_bond_site_symmetry_2
_ccdc_geom_bond_type
P0 O11 1.490 . S
P0 C14 1.812 . S
P0 C20 1.803 . S
P0 C26 1.819 . S
H1 C15 0.941 . S
H2 C16 0.939 . S
H3 C18 0.940 . S
H4 C19 0.940 . S
H5 C21 0.939 . S
H6 C22 0.942 . S
H7 C24 0.940 . S
H8 C25 0.939 . S
H9 C27 0.941 . S
H10 C31 0.939 . S
O11 P0 1.490 . S
H12 C28 0.939 . S
H13 C30 0.940 . S
C14 P0 1.812 . S
C14 C15 1.389 . S
C14 C19 1.391 . S
C15 H1 0.941 . S
C15 C14 1.389 . S
C15 C16 1.397 . S
C16 H2 0.939 . S
C16 C15 1.397 . S
C16 C17 1.378 . S
C17 C16 1.378 . S
C17 C18 1.378 . S
C18 H3 0.940 . S
C18 C17 1.378 . S
C18 C19 1.396 . S
C19 H4 0.940 . S
C19 C14 1.391 . S
C19 C18 1.396 . S
C20 P0 1.803 . S
C20 C21 1.378 . S
C20 C25 1.400 . S
C21 H5 0.939 . S
C21 C20 1.378 . S
C21 C22 1.361 . S
C22 H6 0.942 . S
C22 C21 1.361 . S
C22 C23 1.369 . S
C23 C22 1.369 . S
C23 C24 1.404 . S
C24 H7 0.940 . S
C24 C23 1.404 . S
C24 C25 1.389 . S
C25 H8 0.939 . S
C25 C20 1.400 . S
C25 C24 1.389 . S
C26 P0 1.819 . S
C26 C27 1.391 . S
C26 C31 1.391 . S
C27 H9 0.941 . S
C27 C26 1.391 . S
C27 C28 1.396 . S
C28 H12 0.939 . S
C28 C27 1.396 . S
C28 C29 1.397 . S
C29 C28 1.397 . S
C29 C30 1.385 . S
C30 H13 0.940 . S
C30 C29 1.385 . S
C30 C31 1.388 . S
C31 H10 0.939 . S
C31 C26 1.391 . S
C31 C30 1.388 . S
P32 O43 1.490 . S
P32 C46 1.812 . S
P32 C52 1.803 . S
P32 C58 1.819 . S
H33 C47 0.941 . S
H34 C48 0.939 . S
H35 C50 0.940 . S
H36 C51 0.940 . S
H37 C53 0.939 . S
H38 C54 0.942 . S
H39 C56 0.940 . S
H40 C57 0.939 . S
H41 C59 0.941 . S
H42 C63 0.939 . S
O43 P32 1.490 . S
H44 C60 0.939 . S
H45 C62 0.940 . S
C46 P32 1.812 . S
C46 C47 1.389 . S
C46 C51 1.391 . S
C47 H33 0.941 . S
C47 C46 1.389 . S
C47 C48 1.397 . S
C48 H34 0.939 . S
C48 C47 1.397 . S
C48 C49 1.378 . S
C49 C48 1.378 . S
C49 C50 1.378 . S
C50 H35 0.940 . S
C50 C49 1.378 . S
C50 C51 1.396 . S
C51 H36 0.940 . S
C51 C46 1.391 . S
C51 C50 1.396 . S
C52 P32 1.803 . S
C52 C53 1.378 . S
C52 C57 1.400 . S
C53 H37 0.939 . S
C53 C52 1.378 . S
C53 C54 1.361 . S
C54 H38 0.942 . S
C54 C53 1.361 . S
C54 C55 1.369 . S
C55 C54 1.369 . S
C55 C56 1.404 . S
C56 H39 0.940 . S
C56 C55 1.404 . S
C56 C57 1.389 . S
C57 H40 0.939 . S
C57 C52 1.400 . S
C57 C56 1.389 . S
C58 P32 1.819 . S
C58 C59 1.391 . S
C58 C63 1.391 . S
C59 H41 0.941 . S
C59 C58 1.391 . S
C59 C60 1.396 . S
C60 H44 0.939 . S
C60 C59 1.396 . S
C60 C61 1.397 . S
C61 C60 1.397 . S
C61 C62 1.385 . S
C62 H45 0.940 . S
C62 C61 1.385 . S
C62 C63 1.388 . S
C63 H42 0.939 . S
C63 C58 1.391 . S
C63 C62 1.388 . S
P64 O75 1.490 . S
P64 C78 1.812 . S
P64 C84 1.803 . S
P64 C90 1.819 . S
H65 C79 0.941 . S
H66 C80 0.939 . S
H67 C82 0.940 . S
H68 C83 0.940 . S
H69 C85 0.939 . S
H70 C86 0.942 . S
H71 C88 0.940 . S
H72 C89 0.939 . S
H73 C91 0.941 . S
H74 C95 0.939 . S
O75 P64 1.490 . S
H76 C92 0.939 . S
H77 C94 0.940 . S
C78 P64 1.812 . S
C78 C79 1.389 . S
C78 C83 1.391 . S
C79 H65 0.941 . S
C79 C78 1.389 . S
C79 C80 1.397 . S
C80 H66 0.939 . S
C80 C79 1.397 . S
C80 C81 1.378 . S
C81 C80 1.378 . S
C81 C82 1.378 . S
C82 H67 0.940 . S
C82 C81 1.378 . S
C82 C83 1.396 . S
C83 H68 0.940 . S
C83 C78 1.391 . S
C83 C82 1.396 . S
C84 P64 1.803 . S
C84 C85 1.378 . S
C84 C89 1.400 . S
C85 H69 0.939 . S
C85 C84 1.378 . S
C85 C86 1.361 . S
C86 H70 0.942 . S
C86 C85 1.361 . S
C86 C87 1.369 . S
C87 C86 1.369 . S
C87 C88 1.404 . S
C88 H71 0.940 . S
C88 C87 1.404 . S
C88 C89 1.389 . S
C89 H72 0.939 . S
C89 C84 1.400 . S
C89 C88 1.389 . S
C90 P64 1.819 . S
C90 C91 1.391 . S
C90 C95 1.391 . S
C91 H73 0.941 . S
C91 C90 1.391 . S
C91 C92 1.396 . S
C92 H76 0.939 . S
C92 C91 1.396 . S
C92 C93 1.397 . S
C93 C92 1.397 . S
C93 C94 1.385 . S
C94 H77 0.940 . S
C94 C93 1.385 . S
C94 C95 1.388 . S
C95 H74 0.939 . S
C95 C90 1.391 . S
C95 C94 1.388 . S
P96 O107 1.490 . S
P96 C110 1.812 . S
P96 C116 1.803 . S
P96 C122 1.819 . S
H97 C111 0.941 . S
H98 C112 0.939 . S
H99 C114 0.940 . S
H100 C115 0.940 . S
H101 C117 0.939 . S
H102 C118 0.942 . S
H103 C120 0.940 . S
H104 C121 0.939 . S
H105 C123 0.941 . S
H106 C127 0.939 . S
O107 P96 1.490 . S
H108 C124 0.939 . S
H109 C126 0.940 . S
C110 P96 1.812 . S
C110 C111 1.389 . S
C110 C115 1.391 . S
C111 H97 0.941 . S
C111 C110 1.389 . S
C111 C112 1.397 . S
C112 H98 0.939 . S
C112 C111 1.397 . S
C112 C113 1.378 . S
C113 C112 1.378 . S
C113 C114 1.378 . S
C114 H99 0.940 . S
C114 C113 1.378 . S
C114 C115 1.396 . S
C115 H100 0.940 . S
C115 C110 1.391 . S
C115 C114 1.396 . S
C116 P96 1.803 . S
C116 C117 1.378 . S
C116 C121 1.400 . S
C117 H101 0.939 . S
C117 C116 1.378 . S
C117 C118 1.361 . S
C118 H102 0.942 . S
C118 C117 1.361 . S
C118 C119 1.369 . S
C119 C118 1.369 . S
C119 C120 1.404 . S
C120 H103 0.940 . S
C120 C119 1.404 . S
C120 C121 1.389 . S
C121 H104 0.939 . S
C121 C116 1.400 . S
C121 C120 1.389 . S
C122 P96 1.819 . S
C122 C123 1.391 . S
C122 C127 1.391 . S
C123 H105 0.941 . S
C123 C122 1.391 . S
C123 C124 1.396 . S
C124 H108 0.939 . S
C124 C123 1.396 . S
C124 C125 1.397 . S
C125 C124 1.397 . S
C125 C126 1.385 . S
C126 H109 0.940 . S
C126 C125 1.385 . S
C126 C127 1.388 . S
C127 H106 0.939 . S
C127 C122 1.391 . S
C127 C126 1.388 . S
P128 O139 1.490 . S
P128 C142 1.812 . S
P128 C148 1.803 . S
P128 C154 1.819 . S
H129 C143 0.941 . S
H130 C144 0.939 . S
H131 C146 0.940 . S
H132 C147 0.940 . S
H133 C149 0.939 . S
H134 C150 0.942 . S
H135 C152 0.940 . S
H136 C153 0.939 . S
H137 C155 0.941 . S
H138 C159 0.939 . S
O139 P128 1.490 . S
H140 C156 0.939 . S
H141 C158 0.940 . S
C142 P128 1.812 . S
C142 C143 1.389 . S
C142 C147 1.391 . S
C143 H129 0.941 . S
C143 C142 1.389 . S
C143 C144 1.397 . S
C144 H130 0.939 . S
C144 C143 1.397 . S
C144 C145 1.378 . S
C145 C144 1.378 . S
C145 C146 1.378 . S
C146 H131 0.940 . S
C146 C145 1.378 . S
C146 C147 1.396 . S
C147 H132 0.940 . S
C147 C142 1.391 . S
C147 C146 1.396 . S
C148 P128 1.803 . S
C148 C149 1.378 . S
C148 C153 1.400 . S
C149 H133 0.939 . S
C149 C148 1.378 . S
C149 C150 1.361 . S
C150 H134 0.942 . S
C150 C149 1.361 . S
C150 C151 1.369 . S
C151 C150 1.369 . S
C151 C152 1.404 . S
C152 H135 0.940 . S
C152 C151 1.404 . S
C152 C153 1.389 . S
C153 H136 0.939 . S
C153 C148 1.400 . S
C153 C152 1.389 . S
C154 P128 1.819 . S
C154 C155 1.391 . S
C154 C159 1.391 . S
C155 H137 0.941 . S
C155 C154 1.391 . S
C155 C156 1.396 . S
C156 H140 0.939 . S
C156 C155 1.396 . S
C156 C157 1.397 . S
C157 C156 1.397 . S
C157 C158 1.385 . S
C158 H141 0.940 . S
C158 C157 1.385 . S
C158 C159 1.388 . S
C159 H138 0.939 . S
C159 C154 1.391 . S
C159 C158 1.388 . S
P160 O171 1.490 . S
P160 C174 1.812 . S
P160 C180 1.803 . S
P160 C186 1.819 . S
H161 C175 0.941 . S
H162 C176 0.939 . S
H163 C178 0.940 . S
H164 C179 0.940 . S
H165 C181 0.939 . S
H166 C182 0.942 . S
H167 C184 0.940 . S
H168 C185 0.939 . S
H169 C187 0.941 . S
H170 C191 0.939 . S
O171 P160 1.490 . S
H172 C188 0.939 . S
H173 C190 0.940 . S
C174 P160 1.812 . S
C174 C175 1.389 . S
C174 C179 1.391 . S
C175 H161 0.941 . S
C175 C174 1.389 . S
C175 C176 1.397 . S
C176 H162 0.939 . S
C176 C175 1.397 . S
C176 C177 1.378 . S
C177 C176 1.378 . S
C177 C178 1.378 . S
C178 H163 0.940 . S
C178 C177 1.378 . S
C178 C179 1.396 . S
C179 H164 0.940 . S
C179 C174 1.391 . S
C179 C178 1.396 . S
C180 P160 1.803 . S
C180 C181 1.378 . S
C180 C185 1.400 . S
C181 H165 0.939 . S
C181 C180 1.378 . S
C181 C182 1.361 . S
C182 H166 0.942 . S
C182 C181 1.361 . S
C182 C183 1.369 . S
C183 C182 1.369 . S
C183 C184 1.404 . S
C184 H167 0.940 . S
C184 C183 1.404 . S
C184 C185 1.389 . S
C185 H168 0.939 . S
C185 C180 1.400 . S
C185 C184 1.389 . S
C186 P160 1.819 . S
C186 C187 1.391 . S
C186 C191 1.391 . S
C187 H169 0.941 . S
C187 C186 1.391 . S
C187 C188 1.396 . S
C188 H172 0.939 . S
C188 C187 1.396 . S
C188 C189 1.397 . S
C189 C188 1.397 . S
C189 C190 1.385 . S
C190 H173 0.940 . S
C190 C189 1.385 . S
C190 C191 1.388 . S
C191 H170 0.939 . S
C191 C186 1.391 . S
C191 C190 1.388 . S
P192 O203 1.490 . S
P192 C206 1.812 . S
P192 C212 1.803 . S
P192 C218 1.819 . S
H193 C207 0.941 . S
H194 C208 0.939 . S
H195 C210 0.940 . S
H196 C211 0.940 . S
H197 C213 0.939 . S
H198 C214 0.942 . S
H199 C216 0.940 . S
H200 C217 0.939 . S
H201 C219 0.941 . S
H202 C223 0.939 . S
O203 P192 1.490 . S
H204 C220 0.939 . S
H205 C222 0.940 . S
C206 P192 1.812 . S
C206 C207 1.389 . S
C206 C211 1.391 . S
C207 H193 0.941 . S
C207 C206 1.389 . S
C207 C208 1.397 . S
C208 H194 0.939 . S
C208 C207 1.397 . S
C208 C209 1.378 . S
C209 C208 1.378 . S
C209 C210 1.378 . S
C210 H195 0.940 . S
C210 C209 1.378 . S
C210 C211 1.396 . S
C211 H196 0.940 . S
C211 C206 1.391 . S
C211 C210 1.396 . S
C212 P192 1.803 . S
C212 C213 1.378 . S
C212 C217 1.400 . S
C213 H197 0.939 . S
C213 C212 1.378 . S
C213 C214 1.361 . S
C214 H198 0.942 . S
C214 C213 1.361 . S
C214 C215 1.369 . S
C215 C214 1.369 . S
C215 C216 1.404 . S
C216 H199 0.940 . S
C216 C215 1.404 . S
C216 C217 1.389 . S
C217 H200 0.939 . S
C217 C212 1.400 . S
C217 C216 1.389 . S
C218 P192 1.819 . S
C218 C219 1.391 . S
C218 C223 1.391 . S
C219 H201 0.941 . S
C219 C218 1.391 . S
C219 C220 1.396 . S
C220 H204 0.939 . S
C220 C219 1.396 . S
C220 C221 1.397 . S
C221 C220 1.397 . S
C221 C222 1.385 . S
C222 H205 0.940 . S
C222 C221 1.385 . S
C222 C223 1.388 . S
C223 H202 0.939 . S
C223 C218 1.391 . S
C223 C222 1.388 . S
P224 O235 1.490 . S
P224 C238 1.812 . S
P224 C244 1.803 . S
P224 C250 1.819 . S
H225 C239 0.941 . S
H226 C240 0.939 . S
H227 C242 0.940 . S
H228 C243 0.940 . S
H229 C245 0.939 . S
H230 C246 0.942 . S
H231 C248 0.940 . S
H232 C249 0.939 . S
H233 C251 0.941 . S
H234 C255 0.939 . S
O235 P224 1.490 . S
H236 C252 0.939 . S
H237 C254 0.940 . S
C238 P224 1.812 . S
C238 C239 1.389 . S
C238 C243 1.391 . S
C239 H225 0.941 . S
C239 C238 1.389 . S
C239 C240 1.397 . S
C240 H226 0.939 . S
C240 C239 1.397 . S
C240 C241 1.378 . S
C241 C240 1.378 . S
C241 C242 1.378 . S
C242 H227 0.940 . S
C242 C241 1.378 . S
C242 C243 1.396 . S
C243 H228 0.940 . S
C243 C238 1.391 . S
C243 C242 1.396 . S
C244 P224 1.803 . S
C244 C245 1.378 . S
C244 C249 1.400 . S
C245 H229 0.939 . S
C245 C244 1.378 . S
C245 C246 1.361 . S
C246 H230 0.942 . S
C246 C245 1.361 . S
C246 C247 1.369 . S
C247 C246 1.369 . S
C247 C248 1.404 . S
C248 H231 0.940 . S
C248 C247 1.404 . S
C248 C249 1.389 . S
C249 H232 0.939 . S
C249 C244 1.400 . S
C249 C248 1.389 . S
C250 P224 1.819 . S
C250 C251 1.391 . S
C250 C255 1.391 . S
C251 H233 0.941 . S
C251 C250 1.391 . S
C251 C252 1.396 . S
C252 H236 0.939 . S
C252 C251 1.396 . S
C252 C253 1.397 . S
C253 C252 1.397 . S
C253 C254 1.385 . S
C254 H237 0.940 . S
C254 C253 1.385 . S
C254 C255 1.388 . S
C255 H234 0.939 . S
C255 C250 1.391 . S
C255 C254 1.388 . S
Dy256 O260 2.398 . S
Dy256 O261 2.491 . S
Dy256 O262 2.403 1_545 S
Dy256 O263 2.664 1_545 S
Dy256 O267 2.326 . S
Dy256 O271 2.310 1_455 S
Dy256 O272 2.351 1_445 S
C257 O268 1.185 . S
C257 O269 1.355 . S
C258 O260 1.185 . S
C258 O261 1.355 . S
Dy259 O263 2.309 1_645 S
Dy259 O266 2.354 1_655 S
Dy259 O268 2.397 1_545 S
Dy259 O269 2.489 1_545 S
Dy259 O270 2.404 . S
Dy259 O271 2.665 . S
Dy259 O273 2.324 1_545 S
O260 Dy256 2.398 . S
O260 C258 1.185 . S
O261 Dy256 2.491 . S
O261 C258 1.355 . S
O262 Dy256 2.403 1_565 S
O262 C264 1.254 . S
O263 Dy256 2.664 1_565 S
O263 Dy259 2.309 1_465 S
O263 C264 1.268 . S
C264 O262 1.254 . S
C264 O263 1.268 . S
C265 O270 1.254 . S
C265 O271 1.268 . S
O266 Dy259 2.354 1_455 S
O266 C274 1.249 . S
O267 Dy256 2.326 . S
O267 C274 1.267 . S
O268 C257 1.185 . S
O268 Dy259 2.397 1_565 S
O269 C257 1.355 . S
O269 Dy259 2.489 1_565 S
O270 Dy259 2.404 . S
O270 C265 1.254 . S
O271 Dy256 2.310 1_655 S
O271 Dy259 2.665 . S
O271 C265 1.268 . S
O272 Dy256 2.351 1_665 S
O272 C275 1.249 . S
O273 Dy259 2.324 1_565 S
O273 C275 1.267 . S
C274 O266 1.249 . S
C274 O267 1.267 . S
C275 O272 1.249 . S
C275 O273 1.267 . S
Dy276 O280 2.398 . S
Dy276 O281 2.491 . S
Dy276 O282 2.403 1_545 S
Dy276 O283 2.664 1_545 S
Dy276 O287 2.326 . S
Dy276 O291 2.310 . S
Dy276 O292 2.351 1_544 S
C277 O288 1.214 . S
C277 O289 1.355 . S
C278 O280 1.185 . S
C278 O281 1.355 . S
Dy279 O283 2.310 1_546 S
Dy279 O286 2.351 1_556 S
Dy279 O288 2.395 1_545 S
Dy279 O289 2.491 1_545 S
Dy279 O290 2.403 . S
Dy279 O291 2.664 1_556 S
Dy279 O293 2.326 1_545 S
O280 Dy276 2.398 . S
O280 C278 1.185 . S
O281 Dy276 2.491 . S
O281 C278 1.355 . S
O282 Dy276 2.403 1_565 S
O282 C284 1.254 . S
O283 Dy276 2.664 1_565 S
O283 Dy279 2.310 1_564 S
O283 C284 1.268 . S
C284 O282 1.254 . S
C284 O283 1.268 . S
C285 O290 1.254 . S
C285 O291 1.268 1_556 S
O286 Dy279 2.351 1_554 S
O286 C294 1.249 . S
O287 Dy276 2.326 . S
O287 C294 1.267 . S
O288 C277 1.214 . S
O288 Dy279 2.395 1_565 S
O289 C277 1.355 . S
O289 Dy279 2.491 1_565 S
O290 Dy279 2.403 . S
O290 C285 1.254 . S
O291 Dy276 2.310 . S
O291 Dy279 2.664 1_554 S
O291 C285 1.268 1_554 S
O292 Dy276 2.351 1_566 S
O292 C295 1.249 . S
O293 Dy279 2.326 1_565 S
O293 C295 1.267 . S
C294 O286 1.249 . S
C294 O287 1.267 . S
C295 O292 1.249 . S
C295 O293 1.267 . S
Dy296 O300 2.398 . S
Dy296 O301 2.491 . S
Dy296 O302 2.403 . S
Dy296 O303 2.664 . S
Dy296 O307 2.326 . S
Dy296 O311 2.310 . S
Dy296 O312 2.351 . S
C297 O308 1.185 . S
C297 O309 1.355 . S
C298 O300 1.185 . S
C298 O301 1.355 . S
Dy299 O303 2.310 . S
Dy299 O306 2.351 . S
Dy299 O308 2.398 . S
Dy299 O309 2.491 . S
Dy299 O310 2.403 . S
Dy299 O311 2.664 . S
Dy299 O313 2.326 . S
O300 Dy296 2.398 . S
O300 C298 1.185 . S
O301 Dy296 2.491 . S
O301 C298 1.355 . S
O302 Dy296 2.403 . S
O302 C304 1.254 . S
O303 Dy296 2.664 . S
O303 Dy299 2.310 . S
O303 C304 1.268 . S
C304 O302 1.254 . S
C304 O303 1.268 . S
C305 O310 1.254 . S
C305 O311 1.268 . S
O306 Dy299 2.351 . S
O306 C314 1.249 . S
O307 Dy296 2.326 . S
O307 C314 1.267 . S
O308 C297 1.185 . S
O308 Dy299 2.398 . S
O309 C297 1.355 . S
O309 Dy299 2.491 . S
O310 Dy299 2.403 . S
O310 C305 1.254 . S
O311 Dy296 2.310 . S
O311 Dy299 2.664 . S
O311 C305 1.268 . S
O312 Dy296 2.351 . S
O312 C315 1.249 . S
O313 Dy299 2.326 . S
O313 C315 1.267 . S
C314 O306 1.249 . S
C314 O307 1.267 . S
C315 O312 1.249 . S
C315 O313 1.267 . S
Dy316 O320 2.398 . S
Dy316 O321 2.491 . S
Dy316 O322 2.403 1_455 S
Dy316 O323 2.664 1_455 S
Dy316 O327 2.326 . S
Dy316 O331 2.310 1_554 S
Dy316 O332 2.350 1_454 S
C317 O328 1.185 . S
C317 O329 1.355 . S
C318 O320 1.185 . S
C318 O321 1.355 . S
Dy319 O323 2.310 1_556 S
Dy319 O326 2.351 1_656 S
Dy319 O328 2.398 . S
Dy319 O329 2.491 . S
Dy319 O330 2.403 1_655 S
Dy319 O331 2.664 1_655 S
Dy319 O333 2.326 . S
O320 Dy316 2.398 . S
O320 C318 1.185 . S
O321 Dy316 2.491 . S
O321 C318 1.355 . S
O322 Dy316 2.403 1_655 S
O322 C324 1.254 . S
O323 Dy316 2.664 1_655 S
O323 Dy319 2.310 1_554 S
O323 C324 1.268 . S
C324 O322 1.254 . S
C324 O323 1.268 . S
C325 O330 1.254 . S
C325 O331 1.268 . S
O326 Dy319 2.351 1_454 S
O326 C334 1.249 . S
O327 Dy316 2.326 . S
O327 C334 1.267 . S
O328 C317 1.185 . S
O328 Dy319 2.398 . S
O329 C317 1.355 . S
O329 Dy319 2.491 . S
O330 Dy319 2.403 1_455 S
O330 C325 1.254 . S
O331 Dy316 2.310 1_556 S
O331 Dy319 2.664 1_455 S
O331 C325 1.268 . S
O332 Dy316 2.350 1_656 S
O332 C335 1.251 . S
O333 Dy319 2.326 . S
O333 C335 1.267 . S
C334 O326 1.249 . S
C334 O327 1.267 . S
C335 O332 1.251 . S
C335 O333 1.267 . S
H336 C348 0.930 . S
H337 C350 0.930 . S
H338 C351 0.930 . S
H339 C355 0.959 . S
H340 C355 0.959 . S
H341 C355 0.961 . S
H342 C356 0.960 . S
H343 C356 0.961 . S
H344 C356 0.959 . S
H345 C359 0.929 . S
H346 C360 0.931 . S
H347 C362 0.930 . S
C348 H336 0.930 . S
C348 C349 1.399 . S
C348 C353 1.399 . S
C349 C348 1.399 . S
C349 C350 1.376 . S
C350 H337 0.930 . S
C350 C349 1.376 . S
C350 C351 1.388 . S
C351 H338 0.930 . S
C351 C350 1.388 . S
C351 C352 1.390 . S
C352 C351 1.390 . S
C352 C353 1.394 . S
C352 C358 1.465 . S
C353 C348 1.399 . S
C353 C352 1.394 . S
C353 C354 1.516 . S
C354 C353 1.516 . S
C354 C355 1.502 . S
C354 C356 1.561 . S
C354 C357 1.526 . S
C355 H339 0.959 . S
C355 H340 0.959 . S
C355 H341 0.961 . S
C355 C354 1.502 . S
C356 H342 0.960 . S
C356 H343 0.961 . S
C356 H344 0.959 . S
C356 C354 1.561 . S
C357 C354 1.526 . S
C357 C358 1.396 . S
C357 C362 1.390 . S
C358 C352 1.465 . S
C358 C357 1.396 . S
C358 C359 1.399 . S
C359 H345 0.929 . S
C359 C358 1.399 . S
C359 C360 1.385 . S
C360 H346 0.931 . S
C360 C359 1.385 . S
C360 C361 1.389 . S
C361 C360 1.389 . S
C361 C362 1.387 . S
C362 H347 0.930 . S
C362 C357 1.390 . S
C362 C361 1.387 . S
H363 C375 0.930 . S
H364 C377 0.930 . S
H365 C378 0.930 . S
H366 C382 0.959 . S
H367 C382 0.959 . S
H368 C382 0.961 . S
H369 C383 0.960 . S
H370 C383 0.961 . S
H371 C383 0.959 . S
H372 C386 0.929 . S
H373 C387 0.931 . S
H374 C389 0.930 . S
C375 H363 0.930 . S
C375 C376 1.399 . S
C375 C380 1.399 . S
C376 C375 1.399 . S
C376 C377 1.376 . S
C377 H364 0.930 . S
C377 C376 1.376 . S
C377 C378 1.388 . S
C378 H365 0.930 . S
C378 C377 1.388 . S
C378 C379 1.390 . S
C379 C378 1.390 . S
C379 C380 1.394 . S
C379 C385 1.465 . S
C380 C375 1.399 . S
C380 C379 1.394 . S
C380 C381 1.516 . S
C381 C380 1.516 . S
C381 C382 1.502 . S
C381 C383 1.561 . S
C381 C384 1.526 . S
C382 H366 0.959 . S
C382 H367 0.959 . S
C382 H368 0.961 . S
C382 C381 1.502 . S
C383 H369 0.960 . S
C383 H370 0.961 . S
C383 H371 0.959 . S
C383 C381 1.561 . S
C384 C381 1.526 . S
C384 C385 1.396 . S
C384 C389 1.390 . S
C385 C379 1.465 . S
C385 C384 1.396 . S
C385 C386 1.399 . S
C386 H372 0.929 . S
C386 C385 1.399 . S
C386 C387 1.385 . S
C387 H373 0.931 . S
C387 C386 1.385 . S
C387 C388 1.389 . S
C388 C387 1.389 . S
C388 C389 1.387 . S
C389 H374 0.930 . S
C389 C384 1.390 . S
C389 C388 1.387 . S
H390 C402 0.930 . S
H391 C404 0.930 . S
H392 C405 0.930 . S
H393 C409 0.959 . S
H394 C409 0.959 . S
H395 C409 0.961 . S
H396 C410 0.960 . S
H397 C410 0.961 . S
H398 C410 0.959 . S
H399 C413 0.929 . S
H400 C414 0.931 . S
H401 C416 0.930 . S
C402 H390 0.930 . S
C402 C403 1.399 . S
C402 C407 1.399 . S
C403 C402 1.399 . S
C403 C404 1.376 . S
C404 H391 0.930 . S
C404 C403 1.376 . S
C404 C405 1.388 . S
C405 H392 0.930 . S
C405 C404 1.388 . S
C405 C406 1.390 . S
C406 C405 1.390 . S
C406 C407 1.394 . S
C406 C412 1.465 . S
C407 C402 1.399 . S
C407 C406 1.394 . S
C407 C408 1.516 . S
C408 C407 1.516 . S
C408 C409 1.502 . S
C408 C410 1.561 . S
C408 C411 1.526 . S
C409 H393 0.959 . S
C409 H394 0.959 . S
C409 H395 0.961 . S
C409 C408 1.502 . S
C410 H396 0.960 . S
C410 H397 0.961 . S
C410 H398 0.959 . S
C410 C408 1.561 . S
C411 C408 1.526 . S
C411 C412 1.396 . S
C411 C416 1.390 . S
C412 C406 1.465 . S
C412 C411 1.396 . S
C412 C413 1.399 . S
C413 H399 0.929 . S
C413 C412 1.399 . S
C413 C414 1.385 . S
C414 H400 0.931 . S
C414 C413 1.385 . S
C414 C415 1.389 . S
C415 C414 1.389 . S
C415 C416 1.387 . S
C416 H401 0.930 . S
C416 C411 1.390 . S
C416 C415 1.387 . S
H417 C429 0.930 . S
H418 C431 0.930 . S
H419 C432 0.930 . S
H420 C436 0.959 . S
H421 C436 0.959 . S
H422 C436 0.961 . S
H423 C437 0.960 . S
H424 C437 0.961 . S
H425 C437 0.959 . S
H426 C440 0.929 . S
H427 C441 0.931 . S
H428 C443 0.930 . S
C429 H417 0.930 . S
C429 C430 1.399 . S
C429 C434 1.399 . S
C430 C429 1.399 . S
C430 C431 1.376 . S
C431 H418 0.930 . S
C431 C430 1.376 . S
C431 C432 1.388 . S
C432 H419 0.930 . S
C432 C431 1.388 . S
C432 C433 1.390 . S
C433 C432 1.390 . S
C433 C434 1.394 . S
C433 C439 1.465 . S
C434 C429 1.399 . S
C434 C433 1.394 . S
C434 C435 1.516 . S
C435 C434 1.516 . S
C435 C436 1.502 . S
C435 C437 1.561 . S
C435 C438 1.526 . S
C436 H420 0.959 . S
C436 H421 0.959 . S
C436 H422 0.961 . S
C436 C435 1.502 . S
C437 H423 0.960 . S
C437 H424 0.961 . S
C437 H425 0.959 . S
C437 C435 1.561 . S
C438 C435 1.526 . S
C438 C439 1.396 . S
C438 C443 1.390 . S
C439 C433 1.465 . S
C439 C438 1.396 . S
C439 C440 1.399 . S
C440 H426 0.929 . S
C440 C439 1.399 . S
C440 C441 1.385 . S
C441 H427 0.931 . S
C441 C440 1.385 . S
C441 C442 1.389 . S
C442 C441 1.389 . S
C442 C443 1.387 . S
C443 H428 0.930 . S
C443 C438 1.390 . S
C443 C442 1.387 . S
H444 C456 0.930 . S
H445 C458 0.930 . S
H446 C459 0.930 . S
H447 C463 0.959 . S
H448 C463 0.959 . S
H449 C463 0.961 . S
H450 C464 0.960 . S
H451 C464 0.961 . S
H452 C464 0.959 . S
H453 C467 0.929 . S
H454 C468 0.931 . S
H455 C470 0.930 . S
C456 H444 0.930 . S
C456 C457 1.399 . S
C456 C461 1.399 . S
C457 C456 1.399 . S
C457 C458 1.376 . S
C458 H445 0.930 . S
C458 C457 1.376 . S
C458 C459 1.388 . S
C459 H446 0.930 . S
C459 C458 1.388 . S
C459 C460 1.390 . S
C460 C459 1.390 . S
C460 C461 1.394 . S
C460 C466 1.465 . S
C461 C456 1.399 . S
C461 C460 1.394 . S
C461 C462 1.516 . S
C462 C461 1.516 . S
C462 C463 1.502 . S
C462 C464 1.561 . S
C462 C465 1.526 . S
C463 H447 0.959 . S
C463 H448 0.959 . S
C463 H449 0.961 . S
C463 C462 1.502 . S
C464 H450 0.960 . S
C464 H451 0.961 . S
C464 H452 0.959 . S
C464 C462 1.561 . S
C465 C462 1.526 . S
C465 C466 1.396 . S
C465 C470 1.390 . S
C466 C460 1.465 . S
C466 C465 1.396 . S
C466 C467 1.399 . S
C467 H453 0.929 . S
C467 C466 1.399 . S
C467 C468 1.385 . S
C468 H454 0.931 . S
C468 C467 1.385 . S
C468 C469 1.389 . S
C469 C468 1.389 . S
C469 C470 1.387 . S
C470 H455 0.930 . S
C470 C465 1.390 . S
C470 C469 1.387 . S
H471 C483 0.930 . S
H472 C485 0.930 . S
H473 C486 0.930 . S
H474 C490 0.959 . S
H475 C490 0.959 . S
H476 C490 0.961 . S
H477 C491 0.960 . S
H478 C491 0.961 1_545 S
H479 C491 0.959 . S
H480 C494 0.929 . S
H481 C495 0.931 . S
H482 C497 0.930 . S
C483 H471 0.930 . S
C483 C484 1.399 . S
C483 C488 1.399 . S
C484 C483 1.399 . S
C484 C485 1.376 . S
C485 H472 0.930 . S
C485 C484 1.376 . S
C485 C486 1.388 . S
C486 H473 0.930 . S
C486 C485 1.388 . S
C486 C487 1.390 . S
C487 C486 1.390 . S
C487 C488 1.394 . S
C487 C493 1.465 . S
C488 C483 1.399 . S
C488 C487 1.394 . S
C488 C489 1.516 . S
C489 C488 1.516 . S
C489 C490 1.502 . S
C489 C491 1.561 . S
C489 C492 1.526 . S
C490 H474 0.959 . S
C490 H475 0.959 . S
C490 H476 0.961 . S
C490 C489 1.502 . S
C491 H477 0.960 . S
C491 H478 0.961 1_565 S
C491 H479 0.959 . S
C491 C489 1.561 . S
C492 C489 1.526 . S
C492 C493 1.396 . S
C492 C497 1.390 . S
C493 C487 1.465 . S
C493 C492 1.396 . S
C493 C494 1.399 . S
C494 H480 0.929 . S
C494 C493 1.399 . S
C494 C495 1.385 . S
C495 H481 0.931 . S
C495 C494 1.385 . S
C495 C496 1.389 . S
C496 C495 1.389 . S
C496 C497 1.387 . S
C497 H482 0.930 . S
C497 C492 1.390 . S
C497 C496 1.387 . S
H498 C510 0.930 . S
H499 C512 0.930 . S
H500 C513 0.930 . S
H501 C517 0.959 . S
H502 C517 0.959 1_554 S
H503 C517 0.961 . S
H504 C518 0.960 . S
H505 C518 0.961 . S
H506 C518 0.959 . S
H507 C521 0.929 . S
H508 C522 0.931 . S
H509 C524 0.898 1_554 S
C510 H498 0.930 . S
C510 C511 1.399 . S
C510 C515 1.399 . S
C511 C510 1.399 . S
C511 C512 1.376 . S
C512 H499 0.930 . S
C512 C511 1.376 . S
C512 C513 1.388 . S
C513 H500 0.930 . S
C513 C512 1.388 . S
C513 C514 1.390 . S
C514 C513 1.390 . S
C514 C515 1.394 . S
C514 C520 1.465 . S
C515 C510 1.399 . S
C515 C514 1.394 . S
C515 C516 1.516 . S
C516 C515 1.516 . S
C516 C517 1.502 . S
C516 C518 1.561 . S
C516 C519 1.526 . S
C517 H501 0.959 . S
C517 H502 0.959 1_556 S
C517 H503 0.961 . S
C517 C516 1.502 . S
C518 H504 0.960 . S
C518 H505 0.961 . S
C518 H506 0.959 . S
C518 C516 1.561 . S
C519 C516 1.526 . S
C519 C520 1.396 . S
C519 C524 1.390 . S
C520 C514 1.465 . S
C520 C519 1.396 . S
C520 C521 1.399 . S
C521 H507 0.929 . S
C521 C520 1.399 . S
C521 C522 1.385 . S
C522 H508 0.931 . S
C522 C521 1.385 . S
C522 C523 1.389 . S
C523 C522 1.389 . S
C523 C524 1.387 . S
C524 H509 0.898 1_556 S
C524 C519 1.390 . S
C524 C523 1.387 . S
H525 C537 0.930 . S
H526 C539 0.930 . S
H527 C540 0.930 . S
H528 C544 0.959 . S
H529 C544 0.959 . S
H530 C544 0.961 . S
H531 C545 0.960 . S
H532 C545 0.961 . S
H533 C545 0.959 . S
H534 C548 0.929 . S
H535 C549 0.931 . S
H536 C551 0.930 . S
C537 H525 0.930 . S
C537 C538 1.399 . S
C537 C542 1.399 . S
C538 C537 1.399 . S
C538 C539 1.376 . S
C539 H526 0.930 . S
C539 C538 1.376 . S
C539 C540 1.388 . S
C540 H527 0.930 . S
C540 C539 1.388 . S
C540 C541 1.390 . S
C541 C540 1.390 . S
C541 C542 1.394 . S
C541 C547 1.465 . S
C542 C537 1.399 . S
C542 C541 1.394 . S
C542 C543 1.516 . S
C543 C542 1.516 . S
C543 C544 1.502 . S
C543 C545 1.561 . S
C543 C546 1.526 . S
C544 H528 0.959 . S
C544 H529 0.959 . S
C544 H530 0.961 . S
C544 C543 1.502 . S
C545 H531 0.960 . S
C545 H532 0.961 . S
C545 H533 0.959 . S
C545 C543 1.561 . S
C546 C543 1.526 . S
C546 C547 1.396 . S
C546 C551 1.390 . S
C547 C541 1.465 . S
C547 C546 1.396 . S
C547 C548 1.399 . S
C548 H534 0.929 . S
C548 C547 1.399 . S
C548 C549 1.385 . S
C549 H535 0.931 . S
C549 C548 1.385 . S
C549 C550 1.389 . S
C550 C549 1.389 . S
C550 C551 1.387 . S
C551 H536 0.930 . S
C551 C546 1.390 . S
C551 C550 1.387 . S
H552 C564 0.930 . S
H553 C566 0.930 . S
H554 C567 0.930 . S
H555 C571 0.959 . S
H556 C571 0.959 . S
H557 C571 0.961 . S
H558 C572 0.960 . S
H559 C572 0.961 . S
H560 C572 0.959 . S
H561 C575 0.929 . S
H562 C576 0.931 . S
H563 C578 0.930 . S
C564 H552 0.930 . S
C564 C565 1.399 . S
C564 C569 1.399 . S
C565 C564 1.399 . S
C565 C566 1.376 . S
C566 H553 0.930 . S
C566 C565 1.376 . S
C566 C567 1.388 . S
C567 H554 0.930 . S
C567 C566 1.388 . S
C567 C568 1.390 . S
C568 C567 1.390 . S
C568 C569 1.394 . S
C568 C574 1.465 . S
C569 C564 1.399 . S
C569 C568 1.394 . S
C569 C570 1.516 . S
C570 C569 1.516 . S
C570 C571 1.502 . S
C570 C572 1.561 . S
C570 C573 1.526 . S
C571 H555 0.959 . S
C571 H556 0.959 . S
C571 H557 0.961 . S
C571 C570 1.502 . S
C572 H558 0.960 . S
C572 H559 0.961 . S
C572 H560 0.959 . S
C572 C570 1.561 . S
C573 C570 1.526 . S
C573 C574 1.396 . S
C573 C578 1.390 . S
C574 C568 1.465 . S
C574 C573 1.396 . S
C574 C575 1.399 . S
C575 H561 0.929 . S
C575 C574 1.399 . S
C575 C576 1.385 . S
C576 H562 0.931 . S
C576 C575 1.385 . S
C576 C577 1.389 . S
C577 C576 1.389 . S
C577 C578 1.387 . S
C578 H563 0.930 . S
C578 C573 1.390 . S
C578 C577 1.387 . S
H579 C591 0.930 . S
H580 C593 0.930 . S
H581 C594 0.930 . S
H582 C598 0.959 . S
H583 C598 0.951 1_554 S
H584 C598 0.961 . S
H585 C599 0.960 . S
H586 C599 0.961 1_554 S
H587 C599 0.959 . S
H588 C602 0.929 . S
H589 C603 0.931 . S
H590 C605 0.930 . S
C591 H579 0.930 . S
C591 C592 1.399 . S
C591 C596 1.399 . S
C592 C591 1.399 . S
C592 C593 1.376 . S
C593 H580 0.930 . S
C593 C592 1.376 . S
C593 C594 1.388 . S
C594 H581 0.930 . S
C594 C593 1.388 . S
C594 C595 1.390 . S
C595 C594 1.390 . S
C595 C596 1.394 . S
C595 C601 1.465 . S
C596 C591 1.399 . S
C596 C595 1.394 . S
C596 C597 1.516 . S
C597 C596 1.516 . S
C597 C598 1.502 . S
C597 C599 1.561 . S
C597 C600 1.526 . S
C598 H582 0.959 . S
C598 H583 0.951 1_556 S
C598 H584 0.961 . S
C598 C597 1.502 . S
C599 H585 0.960 . S
C599 H586 0.961 1_556 S
C599 H587 0.959 . S
C599 C597 1.561 . S
C600 C597 1.526 . S
C600 C601 1.396 . S
C600 C605 1.390 . S
C601 C595 1.465 . S
C601 C600 1.396 . S
C601 C602 1.399 . S
C602 H588 0.929 . S
C602 C601 1.399 . S
C602 C603 1.385 . S
C603 H589 0.931 . S
C603 C602 1.385 . S
C603 C604 1.389 . S
C604 C603 1.389 . S
C604 C605 1.387 . S
C605 H590 0.930 . S
C605 C600 1.390 . S
C605 C604 1.387 . S
H606 C618 0.930 . S
H607 C620 0.930 . S
H608 C621 0.930 . S
H609 C625 0.959 . S
H610 C625 0.959 . S
H611 C625 0.961 . S
H612 C626 0.960 . S
H613 C626 0.961 . S
H614 C626 0.959 . S
H615 C629 0.929 . S
H616 C630 0.931 . S
H617 C632 0.930 . S
C618 H606 0.930 . S
C618 C619 1.399 . S
C618 C623 1.399 . S
C619 C618 1.399 . S
C619 C620 1.376 . S
C620 H607 0.930 . S
C620 C619 1.376 . S
C620 C621 1.388 . S
C621 H608 0.930 . S
C621 C620 1.388 . S
C621 C622 1.390 . S
C622 C621 1.390 . S
C622 C623 1.394 . S
C622 C628 1.465 . S
C623 C618 1.399 . S
C623 C622 1.394 . S
C623 C624 1.516 . S
C624 C623 1.516 . S
C624 C625 1.502 . S
C624 C626 1.561 . S
C624 C627 1.526 . S
C625 H609 0.959 . S
C625 H610 0.959 . S
C625 H611 0.961 . S
C625 C624 1.502 . S
C626 H612 0.960 . S
C626 H613 0.961 . S
C626 H614 0.959 . S
C626 C624 1.561 . S
C627 C624 1.526 . S
C627 C628 1.396 . S
C627 C632 1.390 . S
C628 C622 1.465 . S
C628 C627 1.396 . S
C628 C629 1.399 . S
C629 H615 0.929 . S
C629 C628 1.399 . S
C629 C630 1.385 . S
C630 H616 0.931 . S
C630 C629 1.385 . S
C630 C631 1.389 . S
C631 C630 1.389 . S
C631 C632 1.387 . S
C632 H617 0.930 . S
C632 C627 1.390 . S
C632 C631 1.387 . S
H633 C645 0.930 . S
H634 C647 0.930 . S
H635 C648 0.930 . S
H636 C652 0.959 . S
H637 C652 0.959 . S
H638 C652 0.961 . S
H639 C653 0.960 . S
H640 C653 0.961 . S
H641 C653 0.959 . S
H642 C656 0.929 . S
H643 C657 0.931 . S
H644 C659 0.930 . S
C645 H633 0.930 . S
C645 C646 1.399 . S
C645 C650 1.399 . S
C646 C645 1.399 . S
C646 C647 1.376 . S
C647 H634 0.930 . S
C647 C646 1.376 . S
C647 C648 1.388 . S
C648 H635 0.930 . S
C648 C647 1.388 . S
C648 C649 1.390 . S
C649 C648 1.390 . S
C649 C650 1.394 . S
C649 C655 1.465 . S
C650 C645 1.399 . S
C650 C649 1.394 . S
C650 C651 1.516 . S
C651 C650 1.516 . S
C651 C652 1.502 . S
C651 C653 1.561 . S
C651 C654 1.526 . S
C652 H636 0.959 . S
C652 H637 0.959 . S
C652 H638 0.961 . S
C652 C651 1.502 . S
C653 H639 0.960 . S
C653 H640 0.961 . S
C653 H641 0.959 . S
C653 C651 1.561 . S
C654 C651 1.526 . S
C654 C655 1.396 . S
C654 C659 1.390 . S
C655 C649 1.465 . S
C655 C654 1.396 . S
C655 C656 1.399 . S
C656 H642 0.929 . S
C656 C655 1.399 . S
C656 C657 1.385 . S
C657 H643 0.931 . S
C657 C656 1.385 . S
C657 C658 1.389 . S
C658 C657 1.389 . S
C658 C659 1.387 . S
C659 H644 0.930 . S
C659 C654 1.390 . S
C659 C658 1.387 . S
H660 C672 0.930 . S
H661 C674 0.930 . S
H662 C675 0.930 . S
H663 C679 0.959 . S
H664 C679 0.959 . S
H665 C679 0.961 . S
H666 C680 0.960 . S
H667 C680 0.961 . S
H668 C680 0.959 . S
H669 C683 0.929 . S
H670 C684 0.931 . S
H671 C686 0.930 . S
C672 H660 0.930 . S
C672 C673 1.399 . S
C672 C677 1.399 . S
C673 C672 1.399 . S
C673 C674 1.376 . S
C674 H661 0.930 . S
C674 C673 1.376 . S
C674 C675 1.388 . S
C675 H662 0.930 . S
C675 C674 1.388 . S
C675 C676 1.390 . S
C676 C675 1.390 . S
C676 C677 1.394 . S
C676 C682 1.465 . S
C677 C672 1.399 . S
C677 C676 1.394 . S
C677 C678 1.516 . S
C678 C677 1.516 . S
C678 C679 1.502 . S
C678 C680 1.561 . S
C678 C681 1.526 . S
C679 H663 0.959 . S
C679 H664 0.959 . S
C679 H665 0.961 . S
C679 C678 1.502 . S
C680 H666 0.960 . S
C680 H667 0.961 . S
C680 H668 0.959 . S
C680 C678 1.561 . S
C681 C678 1.526 . S
C681 C682 1.396 . S
C681 C686 1.390 . S
C682 C676 1.465 . S
C682 C681 1.396 . S
C682 C683 1.399 . S
C683 H669 0.929 . S
C683 C682 1.399 . S
C683 C684 1.385 . S
C684 H670 0.931 . S
C684 C683 1.385 . S
C684 C685 1.389 . S
C685 C684 1.389 . S
C685 C686 1.387 . S
C686 H671 0.930 . S
C686 C681 1.390 . S
C686 C685 1.387 . S
H687 C699 0.930 . S
H688 C701 0.930 . S
H689 C702 0.930 . S
H690 C706 0.959 . S
H691 C706 0.959 . S
H692 C706 0.961 . S
H693 C707 0.960 . S
H694 C707 0.961 . S
H695 C707 0.959 . S
H696 C710 0.929 . S
H697 C711 0.931 . S
H698 C713 0.930 . S
C699 H687 0.930 . S
C699 C700 1.399 . S
C699 C704 1.399 . S
C700 C699 1.399 . S
C700 C701 1.376 . S
C701 H688 0.930 . S
C701 C700 1.376 . S
C701 C702 1.388 . S
C702 H689 0.930 . S
C702 C701 1.388 . S
C702 C703 1.390 . S
C703 C702 1.390 . S
C703 C704 1.394 . S
C703 C709 1.465 . S
C704 C699 1.399 . S
C704 C703 1.394 . S
C704 C705 1.516 . S
C705 C704 1.516 . S
C705 C706 1.502 . S
C705 C707 1.561 . S
C705 C708 1.526 . S
C706 H690 0.959 . S
C706 H691 0.959 . S
C706 H692 0.961 . S
C706 C705 1.502 . S
C707 H693 0.960 . S
C707 H694 0.961 . S
C707 H695 0.959 . S
C707 C705 1.561 . S
C708 C705 1.526 . S
C708 C709 1.396 . S
C708 C713 1.390 . S
C709 C703 1.465 . S
C709 C708 1.396 . S
C709 C710 1.399 . S
C710 H696 0.929 . S
C710 C709 1.399 . S
C710 C711 1.385 . S
C711 H697 0.931 . S
C711 C710 1.385 . S
C711 C712 1.389 . S
C712 C711 1.389 . S
C712 C713 1.387 . S
C713 H698 0.930 . S
C713 C708 1.390 . S
C713 C712 1.387 . S
H714 C726 0.930 . S
H715 C728 0.930 . S
H716 C729 0.930 . S
H717 C733 0.959 . S
H718 C733 0.959 . S
H719 C733 0.961 . S
H720 C734 0.960 . S
H721 C734 0.961 . S
H722 C734 0.959 . S
H723 C737 0.929 . S
H724 C738 0.931 . S
H725 C740 0.930 . S
C726 H714 0.930 . S
C726 C727 1.399 . S
C726 C731 1.399 . S
C727 C726 1.399 . S
C727 C728 1.376 . S
C728 H715 0.930 . S
C728 C727 1.376 . S
C728 C729 1.388 . S
C729 H716 0.930 . S
C729 C728 1.388 . S
C729 C730 1.390 . S
C730 C729 1.390 . S
C730 C731 1.394 . S
C730 C736 1.465 . S
C731 C726 1.399 . S
C731 C730 1.394 . S
C731 C732 1.516 . S
C732 C731 1.516 . S
C732 C733 1.502 . S
C732 C734 1.561 . S
C732 C735 1.526 . S
C733 H717 0.959 . S
C733 H718 0.959 . S
C733 H719 0.961 . S
C733 C732 1.502 . S
C734 H720 0.960 . S
C734 H721 0.961 . S
C734 H722 0.959 . S
C734 C732 1.561 . S
C735 C732 1.526 . S
C735 C736 1.396 . S
C735 C740 1.390 . S
C736 C730 1.465 . S
C736 C735 1.396 . S
C736 C737 1.399 . S
C737 H723 0.929 . S
C737 C736 1.399 . S
C737 C738 1.385 . S
C738 H724 0.931 . S
C738 C737 1.385 . S
C738 C739 1.389 . S
C739 C738 1.389 . S
C739 C740 1.387 . S
C740 H725 0.930 . S
C740 C735 1.390 . S
C740 C739 1.387 . S
H741 C753 0.930 . S
H742 C755 0.930 . S
H743 C756 0.930 . S
H744 C760 0.959 . S
H745 C760 0.959 . S
H746 C760 0.961 . S
H747 C761 0.960 . S
H748 C761 0.961 1_655 S
H749 C761 0.959 . S
H750 C764 0.929 . S
H751 C765 0.931 . S
H752 C767 0.930 . S
C753 H741 0.930 . S
C753 C754 1.399 . S
C753 C758 1.399 . S
C754 C753 1.399 . S
C754 C755 1.376 . S
C755 H742 0.930 . S
C755 C754 1.376 . S
C755 C756 1.388 . S
C756 H743 0.930 . S
C756 C755 1.388 . S
C756 C757 1.390 . S
C757 C756 1.390 . S
C757 C758 1.394 . S
C757 C763 1.465 . S
C758 C753 1.399 . S
C758 C757 1.394 . S
C758 C759 1.516 . S
C759 C758 1.516 . S
C759 C760 1.502 . S
C759 C761 1.561 . S
C759 C762 1.526 . S
C760 H744 0.959 . S
C760 H745 0.959 . S
C760 H746 0.961 . S
C760 C759 1.502 . S
C761 H747 0.960 . S
C761 H748 0.961 1_455 S
C761 H749 0.959 . S
C761 C759 1.561 . S
C762 C759 1.526 . S
C762 C763 1.396 . S
C762 C767 1.390 . S
C763 C757 1.465 . S
C763 C762 1.396 . S
C763 C764 1.399 . S
C764 H750 0.929 . S
C764 C763 1.399 . S
C764 C765 1.385 . S
C765 H751 0.931 . S
C765 C764 1.385 . S
C765 C766 1.389 . S
C766 C765 1.389 . S
C766 C767 1.387 . S
C767 H752 0.930 . S
C767 C762 1.390 . S
C767 C766 1.387 . S
H768 C780 0.930 . S
H769 C782 0.930 . S
H770 C783 0.930 . S
H771 C787 0.959 . S
H772 C787 0.959 . S
H773 C787 0.961 . S
H774 C788 0.960 . S
H775 C788 0.961 . S
H776 C788 0.959 . S
H777 C791 0.929 . S
H778 C792 0.931 . S
H779 C794 0.930 . S
C780 H768 0.930 . S
C780 C781 1.399 . S
C780 C785 1.399 . S
C781 C780 1.399 . S
C781 C782 1.376 . S
C782 H769 0.930 . S
C782 C781 1.376 . S
C782 C783 1.388 . S
C783 H770 0.930 . S
C783 C782 1.388 . S
C783 C784 1.390 . S
C784 C783 1.390 . S
C784 C785 1.394 . S
C784 C790 1.465 . S
C785 C780 1.399 . S
C785 C784 1.394 . S
C785 C786 1.516 . S
C786 C785 1.516 . S
C786 C787 1.502 . S
C786 C788 1.561 . S
C786 C789 1.526 . S
C787 H771 0.959 . S
C787 H772 0.959 . S
C787 H773 0.961 . S
C787 C786 1.502 . S
C788 H774 0.960 . S
C788 H775 0.961 . S
C788 H776 0.959 . S
C788 C786 1.561 . S
C789 C786 1.526 . S
C789 C790 1.396 . S
C789 C794 1.390 . S
C790 C784 1.465 . S
C790 C789 1.396 . S
C790 C791 1.399 . S
C791 H777 0.929 . S
C791 C790 1.399 . S
C791 C792 1.385 . S
C792 H778 0.931 . S
C792 C791 1.385 . S
C792 C793 1.389 . S
C793 C792 1.389 . S
C793 C794 1.387 . S
C794 H779 0.930 . S
C794 C789 1.390 . S
C794 C793 1.387 . S
H795 C807 0.930 . S
H796 C809 0.930 . S
H797 C810 0.930 . S
H798 C814 0.959 . S
H799 C814 0.959 . S
H800 C814 0.961 . S
H801 C815 0.960 . S
H802 C815 0.961 . S
H803 C815 0.959 . S
H804 C818 0.929 . S
H805 C819 0.931 . S
H806 C821 0.930 . S
C807 H795 0.930 . S
C807 C808 1.399 . S
C807 C812 1.399 . S
C808 C807 1.399 . S
C808 C809 1.376 . S
C809 H796 0.930 . S
C809 C808 1.376 . S
C809 C810 1.388 . S
C810 H797 0.930 . S
C810 C809 1.388 . S
C810 C811 1.390 . S
C811 C810 1.390 . S
C811 C812 1.394 . S
C811 C817 1.465 . S
C812 C807 1.399 . S
C812 C811 1.394 . S
C812 C813 1.516 . S
C813 C812 1.516 . S
C813 C814 1.502 . S
C813 C815 1.561 . S
C813 C816 1.526 . S
C814 H798 0.959 . S
C814 H799 0.959 . S
C814 H800 0.961 . S
C814 C813 1.502 . S
C815 H801 0.960 . S
C815 H802 0.961 . S
C815 H803 0.959 . S
C815 C813 1.561 . S
C816 C813 1.526 . S
C816 C817 1.396 . S
C816 C821 1.390 . S
C817 C811 1.465 . S
C817 C816 1.396 . S
C817 C818 1.399 . S
C818 H804 0.929 . S
C818 C817 1.399 . S
C818 C819 1.385 . S
C819 H805 0.931 . S
C819 C818 1.385 . S
C819 C820 1.389 . S
C820 C819 1.389 . S
C820 C821 1.387 . S
C821 H806 0.930 . S
C821 C816 1.390 . S
C821 C820 1.387 . S
H822 C834 0.930 . S
H823 C836 0.930 . S
H824 C837 0.930 . S
H825 C841 0.959 . S
H826 C841 0.959 . S
H827 C841 0.961 . S
H828 C842 0.960 . S
H829 C842 0.961 1_556 S
H830 C842 0.959 . S
H831 C845 0.929 . S
H832 C846 0.931 . S
H833 C848 0.930 . S
C834 H822 0.930 . S
C834 C835 1.399 . S
C834 C839 1.399 . S
C835 C834 1.399 . S
C835 C836 1.376 . S
C836 H823 0.930 . S
C836 C835 1.376 . S
C836 C837 1.388 . S
C837 H824 0.930 . S
C837 C836 1.388 . S
C837 C838 1.390 . S
C838 C837 1.390 . S
C838 C839 1.394 . S
C838 C844 1.465 . S
C839 C834 1.399 . S
C839 C838 1.394 . S
C839 C840 1.516 . S
C840 C839 1.516 . S
C840 C841 1.502 . S
C840 C842 1.561 . S
C840 C843 1.526 . S
C841 H825 0.959 . S
C841 H826 0.959 . S
C841 H827 0.961 . S
C841 C840 1.502 . S
C842 H828 0.960 . S
C842 H829 0.961 1_554 S
C842 H830 0.959 . S
C842 C840 1.561 . S
C843 C840 1.526 . S
C843 C844 1.396 . S
C843 C848 1.390 . S
C844 C838 1.465 . S
C844 C843 1.396 . S
C844 C845 1.399 . S
C845 H831 0.929 . S
C845 C844 1.399 . S
C845 C846 1.385 . S
C846 H832 0.931 . S
C846 C845 1.385 . S
C846 C847 1.389 . S
C847 C846 1.389 . S
C847 C848 1.387 . S
C848 H833 0.930 . S
C848 C843 1.390 . S
C848 C847 1.387 . S
H849 C861 0.930 . S
H850 C863 0.930 . S
H851 C864 0.930 . S
H852 C868 0.959 . S
H853 C868 0.959 . S
H854 C868 0.961 . S
H855 C869 0.960 . S
H856 C869 0.961 . S
H857 C869 0.959 . S
H858 C872 0.929 . S
H859 C873 0.931 . S
H860 C875 0.930 . S
C861 H849 0.930 . S
C861 C862 1.399 . S
C861 C866 1.399 . S
C862 C861 1.399 . S
C862 C863 1.376 . S
C863 H850 0.930 . S
C863 C862 1.376 . S
C863 C864 1.388 . S
C864 H851 0.930 . S
C864 C863 1.388 . S
C864 C865 1.390 . S
C865 C864 1.390 . S
C865 C866 1.394 . S
C865 C871 1.465 . S
C866 C861 1.399 . S
C866 C865 1.394 . S
C866 C867 1.516 . S
C867 C866 1.516 . S
C867 C868 1.502 . S
C867 C869 1.561 . S
C867 C870 1.526 . S
C868 H852 0.959 . S
C868 H853 0.959 . S
C868 H854 0.961 . S
C868 C867 1.502 . S
C869 H855 0.960 . S
C869 H856 0.961 . S
C869 H857 0.959 . S
C869 C867 1.561 . S
C870 C867 1.526 . S
C870 C871 1.396 . S
C870 C875 1.390 . S
C871 C865 1.465 . S
C871 C870 1.396 . S
C871 C872 1.399 . S
C872 H858 0.929 . S
C872 C871 1.399 . S
C872 C873 1.385 . S
C873 H859 0.931 . S
C873 C872 1.385 . S
C873 C874 1.389 . S
C874 C873 1.389 . S
C874 C875 1.387 . S
C875 H860 0.930 . S
C875 C870 1.390 . S
C875 C874 1.387 . S
H876 C888 0.930 . S
H877 C890 0.930 . S
H878 C891 0.930 . S
H879 C895 0.959 . S
H880 C895 0.959 . S
H881 C895 0.961 . S
H882 C896 0.960 . S
H883 C896 0.961 . S
H884 C896 0.959 . S
H885 C899 0.929 . S
H886 C900 0.931 . S
H887 C902 0.930 . S
C888 H876 0.930 . S
C888 C889 1.399 . S
C888 C893 1.399 . S
C889 C888 1.399 . S
C889 C890 1.376 . S
C890 H877 0.930 . S
C890 C889 1.376 . S
C890 C891 1.388 . S
C891 H878 0.930 . S
C891 C890 1.388 . S
C891 C892 1.390 . S
C892 C891 1.390 . S
C892 C893 1.394 . S
C892 C898 1.465 . S
C893 C888 1.399 . S
C893 C892 1.394 . S
C893 C894 1.516 . S
C894 C893 1.516 . S
C894 C895 1.502 . S
C894 C896 1.561 . S
C894 C897 1.526 . S
C895 H879 0.959 . S
C895 H880 0.959 . S
C895 H881 0.961 . S
C895 C894 1.502 . S
C896 H882 0.960 . S
C896 H883 0.961 . S
C896 H884 0.959 . S
C896 C894 1.561 . S
C897 C894 1.526 . S
C897 C898 1.396 . S
C897 C902 1.390 . S
C898 C892 1.465 . S
C898 C897 1.396 . S
C898 C899 1.399 . S
C899 H885 0.929 . S
C899 C898 1.399 . S
C899 C900 1.385 . S
C900 H886 0.931 . S
C900 C899 1.385 . S
C900 C901 1.389 . S
C901 C900 1.389 . S
C901 C902 1.387 . S
C902 H887 0.930 . S
C902 C897 1.390 . S
C902 C901 1.387 . S
H903 C915 0.930 . S
H904 C917 0.930 . S
H905 C918 0.930 . S
H906 C922 0.959 . S
H907 C922 0.959 . S
H908 C922 0.961 . S
H909 C923 0.960 . S
H910 C923 0.961 . S
H911 C923 0.959 . S
H912 C926 0.929 . S
H913 C927 0.931 . S
H914 C929 0.930 . S
C915 H903 0.930 . S
C915 C916 1.399 . S
C915 C920 1.399 . S
C916 C915 1.399 . S
C916 C917 1.376 . S
C917 H904 0.930 . S
C917 C916 1.376 . S
C917 C918 1.388 . S
C918 H905 0.930 . S
C918 C917 1.388 . S
C918 C919 1.390 . S
C919 C918 1.390 . S
C919 C920 1.394 . S
C919 C925 1.465 . S
C920 C915 1.399 . S
C920 C919 1.394 . S
C920 C921 1.516 . S
C921 C920 1.516 . S
C921 C922 1.502 . S
C921 C923 1.561 . S
C921 C924 1.526 . S
C922 H906 0.959 . S
C922 H907 0.959 . S
C922 H908 0.961 . S
C922 C921 1.502 . S
C923 H909 0.960 . S
C923 H910 0.961 . S
C923 H911 0.959 . S
C923 C921 1.561 . S
C924 C921 1.526 . S
C924 C925 1.396 . S
C924 C929 1.390 . S
C925 C919 1.465 . S
C925 C924 1.396 . S
C925 C926 1.399 . S
C926 H912 0.929 . S
C926 C925 1.399 . S
C926 C927 1.385 . S
C927 H913 0.931 . S
C927 C926 1.385 . S
C927 C928 1.389 . S
C928 C927 1.389 . S
C928 C929 1.387 . S
C929 H914 0.930 . S
C929 C924 1.390 . S
C929 C928 1.387 . S
H930 C942 0.930 . S
H931 C944 0.930 . S
H932 C945 0.930 . S
H933 C949 0.959 . S
H934 C949 0.959 . S
H935 C949 0.961 . S
H936 C950 0.960 . S
H937 C950 0.961 . S
H938 C950 0.959 . S
H939 C953 0.929 . S
H940 C954 0.931 . S
H941 C956 0.930 . S
C942 H930 0.930 . S
C942 C943 1.399 . S
C942 C947 1.399 . S
C943 C942 1.399 . S
C943 C944 1.376 . S
C944 H931 0.930 . S
C944 C943 1.376 . S
C944 C945 1.388 . S
C945 H932 0.930 . S
C945 C944 1.388 . S
C945 C946 1.390 . S
C946 C945 1.390 . S
C946 C947 1.394 . S
C946 C952 1.465 . S
C947 C942 1.399 . S
C947 C946 1.394 . S
C947 C948 1.516 . S
C948 C947 1.516 . S
C948 C949 1.502 . S
C948 C950 1.561 . S
C948 C951 1.526 . S
C949 H933 0.959 . S
C949 H934 0.959 . S
C949 H935 0.961 . S
C949 C948 1.502 . S
C950 H936 0.960 . S
C950 H937 0.961 . S
C950 H938 0.959 . S
C950 C948 1.561 . S
C951 C948 1.526 . S
C951 C952 1.396 . S
C951 C956 1.390 . S
C952 C946 1.465 . S
C952 C951 1.396 . S
C952 C953 1.399 . S
C953 H939 0.929 . S
C953 C952 1.399 . S
C953 C954 1.385 . S
C954 H940 0.931 . S
C954 C953 1.385 . S
C954 C955 1.389 . S
C955 C954 1.389 . S
C955 C956 1.387 . S
C956 H941 0.930 . S
C956 C951 1.390 . S
C956 C955 1.387 . S
H957 C969 0.930 . S
H958 C971 0.930 . S
H959 C972 0.930 . S
H960 C976 0.959 . S
H961 C976 0.959 . S
H962 C976 0.961 . S
H963 C977 0.960 . S
H964 C977 0.961 . S
H965 C977 0.959 . S
H966 C980 0.929 . S
H967 C981 0.931 . S
H968 C983 0.930 . S
C969 H957 0.930 . S
C969 C970 1.399 . S
C969 C974 1.399 . S
C970 C969 1.399 . S
C970 C971 1.376 . S
C971 H958 0.930 . S
C971 C970 1.376 . S
C971 C972 1.388 . S
C972 H959 0.930 . S
C972 C971 1.388 . S
C972 C973 1.390 . S
C973 C972 1.390 . S
C973 C974 1.394 . S
C973 C979 1.465 . S
C974 C969 1.399 . S
C974 C973 1.394 . S
C974 C975 1.516 . S
C975 C974 1.516 . S
C975 C976 1.502 . S
C975 C977 1.561 . S
C975 C978 1.526 . S
C976 H960 0.959 . S
C976 H961 0.959 . S
C976 H962 0.961 . S
C976 C975 1.502 . S
C977 H963 0.960 . S
C977 H964 0.961 . S
C977 H965 0.959 . S
C977 C975 1.561 . S
C978 C975 1.526 . S
C978 C979 1.396 . S
C978 C983 1.390 . S
C979 C973 1.465 . S
C979 C978 1.396 . S
C979 C980 1.399 . S
C980 H966 0.929 . S
C980 C979 1.399 . S
C980 C981 1.385 . S
C981 H967 0.931 . S
C981 C980 1.385 . S
C981 C982 1.389 . S
C982 C981 1.389 . S
C982 C983 1.387 . S
C983 H968 0.930 . S
C983 C978 1.390 . S
C983 C982 1.387 . S
C349 C29 1.540 . S
C361 C258 1.498 . S
C376 C49 1.278 . S
C388 C277 1.301 . S
C415 C314 1.775 . S
C403 C93 1.717 . S
C430 C119 1.637 . S
C442 C324 1.579 . S
C469 C294 1.894 . S
C457 C17 1.897 . S
C496 C264 1.398 . S
C484 C61 1.495 . S
C523 C335 1.472 . S
C511 C81 1.475 . S
C550 C305 1.446 . S
C538 C125 1.377 . S
C565 C23 1.681 . S
C577 C318 1.671 . S
C604 C285 1.638 . S
C592 C87 1.697 . S
C619 C113 1.715 . S
C631 C275 1.758 . S
C646 C55 1.185 . S
C658 C297 1.204 . S
C685 C257 1.472 . S
C673 C157 1.424 . S
C700 C189 1.306 . S
C712 C278 1.293 . S
C727 C221 1.752 . S
C739 C315 1.754 . S
C754 C253 1.635 . S
C766 C325 1.711 . S
C781 C145 1.827 . S
C793 C295 1.954 . S
C820 C265 1.395 . S
C808 C183 1.387 . S
C847 C334 1.519 . S
C835 C209 1.535 . S
C874 C304 1.369 . S
C862 C247 1.340 . S
C889 C151 1.620 . S
C901 C317 1.682 . S
C928 C284 1.690 . S
C916 C215 1.701 . S
C955 C274 1.713 . S
C943 C241 1.642 . S
C970 C177 1.242 . S
C982 C298 1.234 . S
