# Generated by pormake.
# Topology pyr, (3,6)-cn, num edge types: 1
# Building blocks:
#     Node 0, Type 0, BuildingBlock: ESEHIV_clean_linker_0, # of connection points: 3
#     Node 1, Type 0, BuildingBlock: ESEHIV_clean_linker_0, # of connection points: 3
#     Node 2, Type 0, BuildingBlock: ESEHIV_clean_linker_0, # of connection points: 3
#     Node 3, Type 0, BuildingBlock: ESEHIV_clean_linker_0, # of connection points: 3
#     Node 4, Type 0, BuildingBlock: ESEHIV_clean_linker_0, # of connection points: 3
#     Node 5, Type 0, BuildingBlock: ESEHIV_clean_linker_0, # of connection points: 3
#     Node 6, Type 0, BuildingBlock: ESEHIV_clean_linker_0, # of connection points: 3
#     Node 7, Type 0, BuildingBlock: ESEHIV_clean_linker_0, # of connection points: 3
#     Node 8, Type 1, BuildingBlock: BETDAH_clean_sbu_0, # of connection points: 6
#     Node 9, Type 1, BuildingBlock: BETDAH_clean_sbu_0, # of connection points: 6
#     Node 10, Type 1, BuildingBlock: BETDAH_clean_sbu_0, # of connection points: 6
#     Node 11, Type 1, BuildingBlock: BETDAH_clean_sbu_0, # of connection points: 6
#     Edge 12, Type (0, 1), BuildingBlock: ZUJKAS_clean_linker_0, # of connection points: 2
#     Edge 13, Type (0, 1), BuildingBlock: ZUJKAS_clean_linker_0, # of connection points: 2
#     Edge 14, Type (0, 1), BuildingBlock: ZUJKAS_clean_linker_0, # of connection points: 2
#     Edge 15, Type (0, 1), BuildingBlock: ZUJKAS_clean_linker_0, # of connection points: 2
#     Edge 16, Type (0, 1), BuildingBlock: ZUJKAS_clean_linker_0, # of connection points: 2
#     Edge 17, Type (0, 1), BuildingBlock: ZUJKAS_clean_linker_0, # of connection points: 2
#     Edge 18, Type (0, 1), BuildingBlock: ZUJKAS_clean_linker_0, # of connection points: 2
#     Edge 19, Type (0, 1), BuildingBlock: ZUJKAS_clean_linker_0, # of connection points: 2
#     Edge 20, Type (0, 1), BuildingBlock: ZUJKAS_clean_linker_0, # of connection points: 2
#     Edge 21, Type (0, 1), BuildingBlock: ZUJKAS_clean_linker_0, # of connection points: 2
#     Edge 22, Type (0, 1), BuildingBlock: ZUJKAS_clean_linker_0, # of connection points: 2
#     Edge 23, Type (0, 1), BuildingBlock: ZUJKAS_clean_linker_0, # of connection points: 2
#     Edge 24, Type (0, 1), BuildingBlock: ZUJKAS_clean_linker_0, # of connection points: 2
#     Edge 25, Type (0, 1), BuildingBlock: ZUJKAS_clean_linker_0, # of connection points: 2
#     Edge 26, Type (0, 1), BuildingBlock: ZUJKAS_clean_linker_0, # of connection points: 2
#     Edge 27, Type (0, 1), BuildingBlock: ZUJKAS_clean_linker_0, # of connection points: 2
#     Edge 28, Type (0, 1), BuildingBlock: ZUJKAS_clean_linker_0, # of connection points: 2
#     Edge 29, Type (0, 1), BuildingBlock: ZUJKAS_clean_linker_0, # of connection points: 2
#     Edge 30, Type (0, 1), BuildingBlock: ZUJKAS_clean_linker_0, # of connection points: 2
#     Edge 31, Type (0, 1), BuildingBlock: ZUJKAS_clean_linker_0, # of connection points: 2
#     Edge 32, Type (0, 1), BuildingBlock: ZUJKAS_clean_linker_0, # of connection points: 2
#     Edge 33, Type (0, 1), BuildingBlock: ZUJKAS_clean_linker_0, # of connection points: 2
#     Edge 34, Type (0, 1), BuildingBlock: ZUJKAS_clean_linker_0, # of connection points: 2
#     Edge 35, Type (0, 1), BuildingBlock: ZUJKAS_clean_linker_0, # of connection points: 2
# Relax obj value: 0.093
# Max RMSD: 0.124
# Mean RMSD: 0.058
data_MOF--net-pyr--node1-BETDAH_clean_sbu_0--node2-ESEHIV_clean_linker_0--edge1-ZUJKAS_clean_linker_0
_symmetry_space_group_name_H-M    P1
_symmetry_Int_Tables_number       1
_symmetry_cell_setting            triclinic
loop_
_symmetry_equiv_pos_as_xyz
'x, y, z'
_cell_length_a     46.654847
_cell_length_b     49.621771
_cell_length_c     45.021469
_cell_angle_alpha  90.996457
_cell_angle_beta   88.92597
_cell_angle_gamma 101.03277
loop_
_atom_site_label
_atom_site_type_symbol
_atom_site_fract_x
_atom_site_fract_y
_atom_site_fract_z
_atom_type_partial_charge
H0 H 0.30211 0.30146 0.23814 0.0
H1 H 0.35983 0.24406 0.24334 0.0
H2 H 0.36023 0.29267 0.16497 0.0
C3 C 0.32004 0.29281 0.22891 0.0
C4 C 0.33074 0.30033 0.20027 0.0
C5 C 0.33025 0.27243 0.24455 0.0
C6 C 0.35223 0.26015 0.23158 0.0
C7 C 0.36312 0.26715 0.20283 0.0
C8 C 0.35225 0.28733 0.18727 0.0
H9 H 0.26259 0.88293 0.63967 0.0
H10 H 0.3413 0.85693 0.6108 0.0
H11 H 0.26849 0.84856 0.55179 0.0
C12 C 0.27477 0.87389 0.62273 0.0
C13 C 0.26204 0.86605 0.59515 0.0
C14 C 0.30329 0.87068 0.62854 0.0
C15 C 0.31921 0.85951 0.60643 0.0
C16 C 0.30678 0.85158 0.57871 0.0
C17 C 0.27812 0.85471 0.57318 0.0
H18 H 0.68793 0.33708 0.8979 0.0
H19 H 0.6889 0.4041 0.83848 0.0
H20 H 0.62082 0.33205 0.83253 0.0
C21 C 0.67798 0.34629 0.88013 0.0
C22 C 0.65245 0.33133 0.86696 0.0
C23 C 0.69142 0.37255 0.87019 0.0
C24 C 0.67885 0.3839 0.84624 0.0
C25 C 0.65343 0.36954 0.83219 0.0
C26 C 0.6406 0.34308 0.84265 0.0
H27 H 0.83211 0.71475 0.39615 0.0
H28 H 0.90158 0.71887 0.33117 0.0
H29 H 0.83153 0.64806 0.3342 0.0
C30 C 0.84253 0.70548 0.37799 0.0
C31 C 0.82915 0.67938 0.36727 0.0
C32 C 0.86855 0.72014 0.36518 0.0
C33 C 0.88119 0.70812 0.34068 0.0
C34 C 0.86824 0.68187 0.3292 0.0
C35 C 0.84201 0.66798 0.3427 0.0
H36 H 0.68307 0.79974 0.80519 0.0
H37 H 0.72405 0.73039 0.81733 0.0
H38 H 0.67399 0.75777 0.88883 0.0
C39 C 0.68691 0.78304 0.81883 0.0
C40 C 0.67542 0.78044 0.848 0.0
C41 C 0.70478 0.76527 0.80775 0.0
C42 C 0.70987 0.74388 0.8256 0.0
C43 C 0.69886 0.74101 0.85481 0.0
C44 C 0.68159 0.75932 0.86591 0.0
H45 H 0.71233 0.23728 0.4166 0.0
H46 H 0.79634 0.22702 0.38268 0.0
H47 H 0.78329 0.23954 0.47652 0.0
C48 C 0.73501 0.2363 0.42029 0.0
C49 C 0.74597 0.23937 0.44918 0.0
C50 C 0.75316 0.23222 0.39614 0.0
C51 C 0.78246 0.23103 0.40117 0.0
C52 C 0.79353 0.23334 0.43009 0.0
C53 C 0.77527 0.23819 0.45399 0.0
H54 H 0.34865 0.71919 0.17102 0.0
H55 H 0.34558 0.6535 0.23266 0.0
H56 H 0.41595 0.72382 0.23613 0.0
C57 C 0.35832 0.71009 0.18908 0.0
C58 C 0.38432 0.72464 0.20172 0.0
C59 C 0.34405 0.68442 0.19992 0.0
C60 C 0.35627 0.67326 0.22421 0.0
C61 C 0.38215 0.68723 0.23775 0.0
C62 C 0.39582 0.71311 0.22639 0.0
H63 H 0.12306 0.34519 0.74241 0.0
H64 H 0.19117 0.34759 0.67635 0.0
H65 H 0.19651 0.41284 0.74116 0.0
C66 C 0.14381 0.35526 0.73303 0.0
C67 C 0.15798 0.38089 0.74491 0.0
C68 C 0.15563 0.34299 0.70826 0.0
C69 C 0.18209 0.35676 0.69545 0.0
C70 C 0.19699 0.38212 0.70685 0.0
C71 C 0.18474 0.39382 0.73168 0.0
Ho72 Ho 0.01693 0.0472 0.50538 0.0
Ho73 Ho 0.98679 1.0252 0.56339 0.0
C74 C 0.03261 0.08183 0.56635 0.0
C75 C 0.03369 0.0692 0.45507 0.0
C76 C 0.06017 0.08824 0.44516 0.0
C77 C 0.05767 0.11026 0.42694 0.0
C78 C 0.08259 0.12887 0.41793 0.0
C79 C 0.11042 0.12563 0.42689 0.0
C80 C 0.11284 0.10364 0.4453 0.0
C81 C 0.08793 0.08521 0.45453 0.0
C82 C 0.04927 1.02215 0.54099 0.0
C83 C 0.97318 0.98802 0.50272 0.0
C84 C 0.9613 0.99738 0.60754 0.0
C85 C 0.94269 0.96999 0.61178 0.0
C86 C 0.95456 0.94623 0.61521 0.0
C87 C 0.93615 0.92076 0.6199 0.0
C88 C 0.90565 0.91867 0.62095 0.0
C89 C 0.89395 0.94241 0.61731 0.0
C90 C 0.91221 0.96772 0.61299 0.0
C91 C 0.96595 0.06592 0.53775 0.0
O92 O 0.02923 0.08311 0.53723 0.0
O93 O 0.02236 0.05892 0.58111 0.0
O94 O 0.03708 0.04452 0.46222 0.0
O95 O 0.01672 0.07954 0.4738 0.0
O96 O 0.06003 0.04309 0.52472 0.0
O97 O 0.02248 1.01484 0.53618 0.0
O98 O 0.96886 0.99027 0.53178 0.0
O99 O 0.98964 1.00796 0.48742 0.0
O100 O 0.94946 1.01442 0.59223 0.0
O101 O 0.98912 0.99888 0.60105 0.0
O102 O 0.9688 0.06399 0.5661 0.0
O103 O 0.97344 0.04579 0.52447 0.0
H104 H 0.03642 0.11305 0.41968 0.0
H105 H 0.08014 0.14552 0.40352 0.0
H106 H 0.13401 0.10084 0.45277 0.0
H107 H 0.09042 0.06863 0.46902 0.0
H108 H 0.97798 0.94733 0.61455 0.0
H109 H 0.9457 0.90276 0.62285 0.0
H110 H 0.8706 0.94161 0.6188 0.0
H111 H 0.90234 0.98566 0.61093 0.0
Ho112 Ho 0.55084 0.03088 0.04651 0.0
Ho113 Ho 0.49611 1.01978 1.01532 0.0
C114 C 0.50239 0.06077 0.07188 0.0
C115 C 0.60421 0.0451 0.06391 0.0
C116 C 0.61978 0.06699 0.08304 0.0
C117 C 0.60708 0.08948 0.09141 0.0
C118 C 0.62054 0.10855 0.11244 0.0
C119 C 0.64678 0.10526 0.12547 0.0
C120 C 0.65994 0.08325 0.1161 0.0
C121 C 0.64649 0.06424 0.09506 0.0
C122 C 0.51153 0.98883 0.07073 0.0
C123 C 0.54479 0.98982 0.98908 0.0
C124 C 0.4434 1.00621 0.99599 0.0
C125 C 0.43215 0.9927 0.96829 0.0
C126 C 0.40219 0.98273 0.96504 0.0
C127 C 0.39166 0.97013 0.93833 0.0
C128 C 0.41102 0.96752 0.91458 0.0
C129 C 0.44108 0.97722 0.91821 0.0
C130 C 0.45156 0.98964 0.94487 0.0
C131 C 0.53567 0.06185 0.99127 0.0
O132 O 0.53082 0.06366 0.06805 0.0
O133 O 0.48454 0.04131 0.05733 0.0
O134 O 0.58455 1.02705 0.07749 0.0
O135 O 0.59504 0.05273 0.03873 0.0
O136 O 0.52815 1.00794 0.08584 0.0
O137 O 0.51665 0.99293 0.0433 0.0
O138 O 0.5165 0.9893 0.98974 0.0
O139 O 0.56247 1.00634 1.00693 0.0
O140 O 0.45944 0.03064 0.99299 0.0
O141 O 0.45494 0.99098 1.01389 0.0
O142 O 0.51933 0.04259 0.97605 0.0
O143 O 0.53026 0.05773 1.01862 0.0
H144 H 0.58633 0.09179 0.0824 0.0
H145 H 0.60978 0.12515 0.11944 0.0
H146 H 0.68034 0.08042 0.12551 0.0
H147 H 0.6565 0.04694 0.08881 0.0
H148 H 0.38699 0.98487 0.98301 0.0
H149 H 0.36836 0.96297 0.93602 0.0
H150 H 0.45652 0.97512 0.90043 0.0
H151 H 0.47483 0.99703 0.94716 0.0
Ho152 Ho 0.51431 0.50319 0.51732 0.0
Ho153 Ho 0.51408 0.55111 0.55504 0.0
C154 C 0.53819 0.50339 0.58592 0.0
C155 C 0.52901 0.46145 0.49046 0.0
C156 C 0.54158 0.43864 0.50163 0.0
C157 C 0.56415 0.44348 0.52243 0.0
C158 C 0.57515 0.42167 0.53386 0.0
C159 C 0.56394 0.39458 0.52464 0.0
C160 C 0.54112 0.38975 0.50407 0.0
C161 C 0.53002 0.41163 0.49269 0.0
C162 C 0.46262 0.5018 0.54634 0.0
C163 C 0.49062 0.55112 0.48632 0.0
C164 C 0.49906 0.59282 0.58155 0.0
C165 C 0.48621 0.61522 0.56972 0.0
C166 C 0.46258 0.60958 0.55018 0.0
C167 C 0.45189 0.63095 0.53733 0.0
C168 C 0.46462 0.65837 0.5437 0.0
C169 C 0.48826 0.664 0.56325 0.0
C170 C 0.49895 0.64257 0.57616 0.0
C171 C 0.56574 0.55247 0.52587 0.0
O172 O 0.53765 0.49276 0.55865 0.0
O173 O 0.52751 0.52581 0.59134 0.0
O174 O 0.50231 0.46186 0.49938 0.0
O175 O 0.54585 0.48575 0.49143 0.0
O176 O 0.46523 0.4944 0.5188 0.0
O177 O 0.48771 0.50939 0.55727 0.0
O178 O 0.49095 0.5617 0.51361 0.0
O179 O 0.50128 0.52869 0.48099 0.0
O180 O 0.52583 0.59254 0.57276 0.0
O181 O 0.48249 0.56837 0.58105 0.0
O182 O 0.56319 0.55974 0.55347 0.0
O183 O 0.5406 0.545 0.51502 0.0
H184 H 0.57332 0.46412 0.52995 0.0
H185 H 0.59253 0.42602 0.54988 0.0
H186 H 0.53236 0.36913 0.49615 0.0
H187 H 0.51248 0.40747 0.47684 0.0
H188 H 0.45253 0.58866 0.54445 0.0
H189 H 0.43383 0.626 0.52215 0.0
H190 H 0.49819 0.68496 0.56894 0.0
H191 H 0.51731 0.64734 0.59099 0.0
Ho192 Ho 0.01642 0.50456 0.05282 0.0
Ho193 Ho 1.01393 0.55741 1.02427 0.0
C194 C 0.07118 0.55619 0.06069 0.0
C195 C 0.03104 0.45977 0.07061 0.0
C196 C 0.05809 0.45127 0.07951 0.0
C197 C 0.08556 0.46585 0.07035 0.0
C198 C 0.11103 0.4571 0.07854 0.0
C199 C 0.10944 0.43361 0.09603 0.0
C200 C 0.08181 0.41922 0.10524 0.0
C201 C 0.0564 0.428 0.09706 0.0
C202 C 0.98683 0.53726 0.08555 0.0
C203 C 0.9593 0.50544 1.01581 0.0
C204 C 0.99906 0.60221 1.00693 0.0
C205 C 0.97248 0.60968 0.99526 0.0
C206 C 0.96664 0.63586 1.00148 0.0
C207 C 0.94083 0.64298 0.99182 0.0
C208 C 0.92033 0.62394 0.97587 0.0
C209 C 0.9263 0.59766 0.96966 0.0
C210 C 0.95221 0.59062 0.97922 0.0
C211 C 0.0436 0.52475 0.99157 0.0
O212 O 0.06228 0.52916 0.06024 0.0
O213 O 0.05449 0.57248 0.05037 0.0
O214 O 0.02115 0.477 0.08847 0.0
O215 O 0.02964 0.46602 0.04268 0.0
O216 O 0.97912 0.51075 0.08322 0.0
O217 O 1.01036 0.54496 0.07102 0.0
O218 O 0.96844 0.53245 1.01532 0.0
O219 O 0.97557 0.48932 1.02726 0.0
O220 O 1.01244 0.58689 0.98976 0.0
O221 O 0.99722 0.5943 0.03452 0.0
O222 O 0.05122 0.55127 0.99385 0.0
O223 O 0.02003 0.51706 1.00604 0.0
H224 H 0.08731 0.48388 0.05672 0.0
H225 H 0.13195 0.46881 0.07135 0.0
H226 H 0.07977 0.40082 0.11833 0.0
H227 H 0.03537 0.41645 0.10423 0.0
H228 H 0.98193 0.65073 1.01407 0.0
H229 H 0.93671 0.66326 0.99726 0.0
H230 H 0.9111 0.58266 0.95714 0.0
H231 H 0.95639 0.57031 0.97414 0.0
H232 H 0.31464 0.21878 0.26094 0.0
H233 H 0.28309 0.20039 0.30245 0.0
H234 H 0.27831 0.28251 0.33204 0.0
H235 H 0.31074 0.30134 0.29085 0.0
H236 H 0.28488 0.21282 0.36941 0.0
H237 H 0.19286 0.24156 0.30763 0.0
H238 H 0.22703 0.23889 0.28944 0.0
H239 H 0.22502 0.2674 0.31388 0.0
C240 C 0.30779 0.23305 0.27677 0.0
C241 C 0.31512 0.26158 0.27244 0.0
C242 C 0.28961 0.22246 0.30043 0.0
C243 C 0.27827 0.24012 0.32004 0.0
C244 C 0.28679 0.2686 0.31693 0.0
H245 H 0.12007 0.18172 0.42582 0.0
H246 H 0.16292 0.2128 0.40557 0.0
C247 C 0.30515 0.27927 0.29333 0.0
C248 C 0.25507 0.22842 0.34144 0.0
H249 H 0.18098 0.21465 0.3498 0.0
C250 C 0.26216 0.21352 0.3655 0.0
C251 C 0.22556 0.22956 0.33623 0.0
C252 C 0.21691 0.24508 0.31037 0.0
C253 C 0.24029 0.199 0.38412 0.0
C254 C 0.21061 0.1988 0.37785 0.0
C255 C 0.2037 0.21477 0.35457 0.0
C256 C 0.18628 0.18044 0.39329 0.0
C257 C 0.24921 0.18388 0.41012 0.0
C258 C 0.18518 0.15196 0.39311 0.0
C259 C 0.16086 0.13425 0.40477 0.0
C260 C 0.13693 0.14465 0.41636 0.0
C261 C 0.13814 0.17317 0.41682 0.0
C262 C 0.16264 0.19091 0.40542 0.0
H263 H 0.27107 0.19394 0.41823 0.0
H264 H 0.23319 0.18276 0.42882 0.0
H265 H 0.25066 0.16266 0.40295 0.0
H266 H 0.20266 0.14329 0.38297 0.0
H267 H 0.1603 0.11233 0.40372 0.0
H268 H 0.30342 0.91899 0.65808 0.0
H269 H 0.32288 0.93253 0.7073 0.0
H270 H 0.3513 0.85511 0.71426 0.0
H271 H 0.33216 0.8416 0.66472 0.0
H272 H 0.30651 0.9072 0.76001 0.0
H273 H 0.42438 0.91029 0.73618 0.0
H274 H 0.39791 0.90869 0.70716 0.0
H275 H 0.40092 0.87825 0.72698 0.0
C276 C 0.31391 0.90491 0.6701 0.0
C277 C 0.31633 0.87927 0.65769 0.0
C278 C 0.32503 0.91266 0.69813 0.0
C279 C 0.33874 0.89492 0.71427 0.0
C280 C 0.34131 0.86932 0.7019 0.0
H281 H 0.37075 0.92049 0.90487 0.0
H282 H 0.35286 0.90066 0.85687 0.0
C283 C 0.33037 0.86162 0.67369 0.0
C284 C 0.3494 0.90309 0.74443 0.0
H285 H 0.41084 0.91727 0.78622 0.0
C286 C 0.32931 0.90935 0.76581 0.0
C287 C 0.37918 0.90602 0.75175 0.0
C288 C 0.40194 0.90071 0.72928 0.0
C289 C 0.33824 0.91887 0.79428 0.0
C290 C 0.36797 0.92156 0.80171 0.0
C291 C 0.38802 0.91496 0.78045 0.0
C292 C 0.37907 0.93283 0.83079 0.0
C293 C 0.31596 0.92689 0.81575 0.0
C294 C 0.4002 0.95707 0.8319 0.0
C295 C 0.41056 0.96825 0.85914 0.0
C296 C 0.39998 0.95539 0.88579 0.0
C297 C 0.37896 0.931 0.88466 0.0
C298 C 0.36873 0.91969 0.85732 0.0
H299 H 0.29591 0.9298 0.80429 0.0
H300 H 0.30956 0.91038 0.83225 0.0
H301 H 0.32516 0.94616 0.82793 0.0
H302 H 0.4084 0.96753 0.81165 0.0
H303 H 0.42655 0.98722 0.85938 0.0
H304 H 0.63076 0.34577 0.77942 0.0
H305 H 0.61178 0.36785 0.73764 0.0
H306 H 0.62648 0.44479 0.78612 0.0
H307 H 0.64596 0.42304 0.82747 0.0
H308 H 0.56702 0.39237 0.72993 0.0
H309 H 0.66649 0.4709 0.71045 0.0
H310 H 0.66594 0.44267 0.73526 0.0
H311 H 0.65268 0.47285 0.74767 0.0
C312 C 0.62993 0.36739 0.78124 0.0
C313 C 0.64038 0.38257 0.8069 0.0
C314 C 0.61909 0.3801 0.75719 0.0
C315 C 0.61828 0.40837 0.75801 0.0
C316 C 0.62776 0.42328 0.78407 0.0
H317 H 0.55172 0.5228 0.64277 0.0
H318 H 0.57072 0.49947 0.68354 0.0
C319 C 0.63883 0.41069 0.80795 0.0
C320 C 0.60714 0.42212 0.73202 0.0
H321 H 0.62358 0.47753 0.68582 0.0
C322 C 0.57959 0.41086 0.72022 0.0
C323 C 0.6233 0.44633 0.71887 0.0
C324 C 0.65385 0.45873 0.7285 0.0
C325 C 0.56764 0.42333 0.69656 0.0
C326 C 0.58357 0.44778 0.6839 0.0
C327 C 0.61114 0.45896 0.69551 0.0
C328 C 0.57203 0.46203 0.65868 0.0
C329 C 0.53763 0.41054 0.68574 0.0
C330 C 0.56666 0.44912 0.6307 0.0
C331 C 0.55596 0.46255 0.60719 0.0
C332 C 0.55021 0.48931 0.61091 0.0
C333 C 0.55574 0.50224 0.63892 0.0
C334 C 0.5667 0.48888 0.66235 0.0
H335 H 0.52555 0.39565 0.70187 0.0
H336 H 0.52455 0.42655 0.68161 0.0
H337 H 0.53978 0.39941 0.66447 0.0
H338 H 0.57093 0.42863 0.62692 0.0
H339 H 0.55188 0.45176 0.58615 0.0
H340 H 0.89897 0.70644 0.28017 0.0
H341 H 0.92006 0.68434 0.23817 0.0
H342 H 0.88941 0.60514 0.27693 0.0
H343 H 0.86938 0.62688 0.31948 0.0
H344 H 0.96259 0.64372 0.24028 0.0
H345 H 0.85569 0.60139 0.18894 0.0
H346 H 0.86074 0.63061 0.21413 0.0
H347 H 0.85834 0.59666 0.22827 0.0
C348 C 0.89698 0.68435 0.28012 0.0
C349 C 0.88201 0.66863 0.30349 0.0
C350 C 0.90896 0.6717 0.25586 0.0
C351 C 0.90606 0.64298 0.25408 0.0
C352 C 0.8916 0.62728 0.27746 0.0
H353 H 0.94361 0.51999 0.12665 0.0
H354 H 0.92536 0.54662 0.1665 0.0
C355 C 0.8799 0.63986 0.30181 0.0
C356 C 0.91798 0.62925 0.2279 0.0
H357 H 0.89713 0.58712 0.16794 0.0
C358 C 0.94832 0.63151 0.22431 0.0
C359 C 0.89943 0.61311 0.20713 0.0
C360 C 0.86671 0.61031 0.2095 0.0
C361 C 0.96053 0.61746 0.20115 0.0
C362 C 0.94196 0.60127 0.18022 0.0
C363 C 0.91158 0.59941 0.18371 0.0
C364 C 0.95333 0.58528 0.15529 0.0
C365 C 0.99318 0.61926 0.20022 0.0
C366 C 0.97495 0.59789 0.13497 0.0
C367 C 0.98573 0.58249 0.11223 0.0
C368 C 0.9748 0.55414 0.10882 0.0
C369 C 0.95262 0.54173 0.12857 0.0
C370 C 0.9421 0.55704 0.15145 0.0
H371 H 1.00304 0.62527 0.22221 0.0
H372 H 0.99894 0.59938 0.19321 0.0
H373 H 1.00313 0.63513 0.18409 0.0
H374 H 0.9835 0.61972 0.13657 0.0
H375 H 1.0027 0.59277 0.09735 0.0
H376 H 0.41061 0.25132 0.22701 0.0
H377 H 0.43896 0.21869 0.20593 0.0
H378 H 0.38973 0.21359 0.12526 0.0
H379 H 0.36102 0.24589 0.14628 0.0
H380 H 0.41304 0.16472 0.18816 0.0
H381 H 0.4753 0.22245 0.0955 0.0
H382 H 0.45922 0.23915 0.12575 0.0
H383 H 0.43685 0.2228 0.09604 0.0
C384 C 0.40607 0.24351 0.20463 0.0
C385 C 0.38349 0.25112 0.18835 0.0
C386 C 0.42232 0.22494 0.19262 0.0
C387 C 0.41652 0.21385 0.16401 0.0
C388 C 0.39487 0.22227 0.14719 0.0
H389 H 0.44499 0.06182 0.08469 0.0
H390 H 0.42531 0.0988 0.10941 0.0
C391 C 0.37854 0.24081 0.15922 0.0
C392 C 0.43127 0.19172 0.1528 0.0
H393 H 0.47417 0.17423 0.0962 0.0
C394 C 0.42661 0.16685 0.16819 0.0
C395 C 0.44908 0.19466 0.12687 0.0
C396 C 0.45569 0.22127 0.11017 0.0
C397 C 0.43869 0.14454 0.15788 0.0
C398 C 0.45563 0.14716 0.13138 0.0
C399 C 0.46097 0.17227 0.11642 0.0
C400 C 0.46759 0.12392 0.11844 0.0
C401 C 0.43327 0.11837 0.1754 0.0
C402 C 0.49786 0.1258 0.11545 0.0
C403 C 0.50919 0.10469 0.10142 0.0
C404 C 0.4904 0.08144 0.08982 0.0
C405 C 0.46006 0.07937 0.09346 0.0
C406 C 0.44877 0.10045 0.10764 0.0
H407 H 0.42596 0.1218 0.19855 0.0
H408 H 0.41593 0.10317 0.16454 0.0
H409 H 0.4533 0.10939 0.17604 0.0
H410 H 0.51272 0.1438 0.1236 0.0
H411 H 0.53267 0.10701 0.09891 0.0
H412 H 0.24551 0.8904 0.54628 0.0
H413 H 0.20119 0.90933 0.54124 0.0
H414 H 0.16884 0.87482 0.62544 0.0
H415 H 0.21313 0.85567 0.6306 0.0
H416 H 0.13845 0.88778 0.54492 0.0
H417 H 0.18131 0.95995 0.63704 0.0
H418 H 0.20364 0.93916 0.61767 0.0
H419 H 0.17661 0.92385 0.64438 0.0
C420 C 0.22855 0.88609 0.56325 0.0
C421 C 0.23287 0.87195 0.58903 0.0
C422 C 0.20332 0.89698 0.5604 0.0
C423 C 0.18215 0.89384 0.58326 0.0
C424 C 0.18524 0.87776 0.60783 0.0
H425 H 0.02977 0.97227 0.56586 0.0
H426 H 0.05938 0.93909 0.5806 0.0
C427 C 0.21048 0.8669 0.61073 0.0
C428 C 0.15884 0.91009 0.58276 0.0
H429 H 0.13907 0.96727 0.61357 0.0
C430 C 0.13818 0.9049 0.56017 0.0
C431 C 0.15898 0.93254 0.60261 0.0
C432 C 0.18139 0.93946 0.62671 0.0
C433 C 0.11805 0.92216 0.55633 0.0
C434 C 0.11863 0.94495 0.57577 0.0
C435 C 0.13869 0.94962 0.59892 0.0
C436 C 0.10067 0.96574 0.57047 0.0
C437 C 0.09729 0.91674 0.53064 0.0
C438 C 0.11427 0.992 0.56119 0.0
C439 C 0.09749 1.01098 0.5529 0.0
C440 C 0.06692 1.0039 0.55386 0.0
C441 C 0.05335 0.97814 0.56477 0.0
C442 C 0.07016 0.95915 0.57303 0.0
H443 H 0.10269 0.90074 0.51509 0.0
H444 H 0.07473 0.90966 0.5393 0.0
H445 H 0.09763 0.93586 0.51808 0.0
H446 H 0.13785 0.99741 0.55926 0.0
H447 H 0.10842 0.03076 0.5447 0.0
H448 H 0.74016 0.40489 0.84446 0.0
H449 H 0.78458 0.42886 0.86869 0.0
H450 H 0.74948 0.39863 0.95359 0.0
H451 H 0.70461 0.37548 0.92975 0.0
H452 H 0.77583 0.4523 0.95784 0.0
H453 H 0.85031 0.39434 0.89838 0.0
H454 H 0.82964 0.41139 0.87413 0.0
H455 H 0.8111 0.38406 0.89723 0.0
C456 C 0.74168 0.4035 0.86833 0.0
C457 C 0.7186 0.38791 0.88497 0.0
C458 C 0.76738 0.417 0.88217 0.0
C459 C 0.77087 0.41522 0.91302 0.0
C460 C 0.74763 0.40023 0.92976 0.0
H461 H 0.93491 0.45068 1.00944 0.0
H462 H 0.8893 0.42994 0.9853 0.0
C463 C 0.72195 0.38675 0.91598 0.0
C464 C 0.79852 0.42897 0.92797 0.0
H465 H 0.8725 0.43187 0.92861 0.0
C466 C 0.79695 0.44781 0.9514 0.0
C467 C 0.82622 0.42297 0.92003 0.0
C468 C 0.82952 0.4019 0.89628 0.0
C469 C 0.82206 0.46087 0.96678 0.0
C470 C 0.84986 0.45539 0.95832 0.0
C471 C 0.85139 0.43638 0.93506 0.0
C472 C 0.87749 0.46849 0.97376 0.0
C473 C 0.81839 0.47986 0.9925 0.0
C474 C 0.88648 0.49722 0.97545 0.0
C475 C 0.91262 0.50922 0.9895 0.0
C476 C 0.93072 0.49283 1.00201 0.0
C477 C 0.92166 0.46408 1.00025 0.0
C478 C 0.89551 0.45212 0.98628 0.0
H479 H 0.79561 0.47593 1.00137 0.0
H480 H 0.83332 0.47765 1.01084 0.0
H481 H 0.82359 0.50141 0.98486 0.0
H482 H 0.87349 0.51046 0.96551 0.0
H483 H 0.91872 0.53137 0.99031 0.0
H484 H 0.7797 0.64905 0.34153 0.0
H485 H 0.73467 0.62579 0.36639 0.0
H486 H 0.77188 0.65152 0.45155 0.0
H487 H 0.81673 0.67475 0.42699 0.0
H488 H 0.72323 0.58413 0.40741 0.0
H489 H 0.6957 0.67904 0.45694 0.0
H490 H 0.72346 0.6797 0.42838 0.0
H491 H 0.73152 0.67426 0.46651 0.0
C492 C 0.77838 0.64963 0.36556 0.0
C493 C 0.80187 0.66415 0.38216 0.0
C494 C 0.75253 0.63637 0.37978 0.0
C495 C 0.74947 0.63733 0.4109 0.0
C496 C 0.77321 0.65108 0.42751 0.0
H497 H 0.61949 0.57653 0.54601 0.0
H498 H 0.66331 0.5954 0.51689 0.0
C499 C 0.79895 0.66438 0.41337 0.0
C500 C 0.72162 0.62402 0.42614 0.0
H501 H 0.6687 0.63679 0.47521 0.0
C502 C 0.71118 0.59569 0.42203 0.0
C503 C 0.70566 0.63902 0.4452 0.0
C504 C 0.71446 0.66973 0.44933 0.0
C505 C 0.68597 0.5819 0.43718 0.0
C506 C 0.67044 0.59683 0.45674 0.0
C507 C 0.68062 0.62522 0.46043 0.0
C508 C 0.64398 0.58352 0.47418 0.0
C509 C 0.6767 0.55129 0.43285 0.0
C510 C 0.61833 0.57029 0.46003 0.0
C511 C 0.5931 0.55942 0.47674 0.0
C512 C 0.59295 0.56165 0.50795 0.0
C513 C 0.6188 0.57442 0.52203 0.0
C514 C 0.64391 0.5853 0.50537 0.0
H515 H 0.69452 0.54193 0.42288 0.0
H516 H 0.66976 0.54115 0.4543 0.0
H517 H 0.65785 0.54706 0.41767 0.0
H518 H 0.61754 0.56902 0.43602 0.0
H519 H 0.57352 0.54985 0.46519 0.0
H520 H 0.31764 0.34917 0.21924 0.0
H521 H 0.28526 0.37534 0.19534 0.0
H522 H 0.27936 0.3209 0.11908 0.0
H523 H 0.31127 0.29422 0.14315 0.0
H524 H 0.28427 0.40192 0.13876 0.0
H525 H 0.19492 0.31103 0.15391 0.0
H526 H 0.22958 0.31436 0.17209 0.0
H527 H 0.22657 0.305 0.13341 0.0
C528 C 0.30985 0.34307 0.19715 0.0
C529 C 0.31667 0.31945 0.18322 0.0
C530 C 0.29148 0.3581 0.18349 0.0
C531 C 0.27957 0.34975 0.1557 0.0
C532 C 0.28809 0.32744 0.14072 0.0
H533 H 0.15772 0.43103 0.06115 0.0
H534 H 0.20069 0.41233 0.07419 0.0
C535 C 0.30652 0.31238 0.15437 0.0
C536 C 0.25596 0.36258 0.14412 0.0
H537 H 0.1825 0.34991 0.13232 0.0
C538 C 0.26205 0.39056 0.13705 0.0
C539 C 0.22693 0.34773 0.14245 0.0
C540 C 0.21889 0.31793 0.15106 0.0
C541 C 0.23976 0.40413 0.12842 0.0
C542 C 0.21079 0.38922 0.12673 0.0
C543 C 0.20479 0.36122 0.13355 0.0
C544 C 0.18597 0.40238 0.11923 0.0
C545 C 0.24715 0.43445 0.12214 0.0
C546 C 0.16345 0.40289 0.1402 0.0
C547 C 0.13895 0.41357 0.13286 0.0
C548 C 0.13636 0.42379 0.1043 0.0
C549 C 0.15922 0.42366 0.08346 0.0
C550 C 0.18378 0.41298 0.09085 0.0
H551 H 0.26926 0.44397 0.13001 0.0
H552 H 0.24655 0.43754 0.09783 0.0
H553 H 0.23087 0.44527 0.13291 0.0
H554 H 0.16476 0.39481 0.16223 0.0
H555 H 0.12197 0.41373 0.14956 0.0
H556 H 0.62721 0.28385 0.83652 0.0
H557 H 0.60678 0.23849 0.85699 0.0
H558 H 0.6266 0.27022 0.94546 0.0
H559 H 0.64607 0.3155 0.92541 0.0
H560 H 0.63297 0.2036 0.88952 0.0
H561 H 0.54276 0.23225 0.95698 0.0
H562 H 0.56253 0.25459 0.92921 0.0
H563 H 0.57764 0.25292 0.96547 0.0
C564 C 0.6268 0.28133 0.86038 0.0
C565 C 0.63846 0.30363 0.87916 0.0
C566 C 0.61527 0.25523 0.87209 0.0
C567 C 0.61468 0.25071 0.90295 0.0
C568 C 0.62614 0.27298 0.92168 0.0
H569 H 0.56106 0.10949 1.02052 0.0
H570 H 0.58094 0.15454 0.99896 0.0
C571 C 0.63768 0.29897 0.91004 0.0
C572 C 0.60305 0.2227 0.91556 0.0
H573 H 0.55402 0.18834 0.96616 0.0
C574 C 0.61554 0.20028 0.9061 0.0
C575 C 0.58036 0.21807 0.93741 0.0
C576 C 0.56483 0.24065 0.94768 0.0
C577 C 0.60657 0.17383 0.91822 0.0
C578 C 0.58397 0.16923 0.94016 0.0
C579 C 0.57141 0.19163 0.94953 0.0
C580 C 0.57273 0.14136 0.95331 0.0
C581 C 0.62208 0.15122 0.90795 0.0
C582 C 0.56126 0.11865 0.9351 0.0
C583 C 0.54994 0.09286 0.94741 0.0
C584 C 0.54954 0.08898 0.97835 0.0
C585 C 0.56112 0.11163 0.99662 0.0
C586 C 0.57242 0.13749 0.98427 0.0
H587 H 0.64398 0.15959 0.89823 0.0
H588 H 0.62475 0.13755 0.92654 0.0
H589 H 0.60901 0.13869 0.89051 0.0
H590 H 0.56048 0.12096 0.91128 0.0
H591 H 0.54104 0.076 0.93263 0.0
H592 H 0.87272 0.73662 0.42388 0.0
H593 H 0.89065 0.78236 0.44456 0.0
H594 H 0.91468 0.81261 0.35665 0.0
H595 H 0.89552 0.76694 0.33554 0.0
H596 H 0.94317 0.81516 0.44513 0.0
H597 H 0.86764 0.86824 0.38537 0.0
H598 H 0.86317 0.83133 0.38578 0.0
H599 H 0.88972 0.85113 0.36128 0.0
C600 C 0.88148 0.75299 0.40876 0.0
C601 C 0.8821 0.74791 0.37784 0.0
C602 C 0.89199 0.77925 0.42074 0.0
C603 C 0.9035 0.80138 0.40227 0.0
C604 C 0.90521 0.79623 0.37146 0.0
H605 H 0.97612 0.9749 0.44308 0.0
H606 H 0.95959 0.93024 0.41867 0.0
C607 C 0.89459 0.76989 0.3594 0.0
C608 C 0.91382 0.82954 0.41555 0.0
H609 H 0.90398 0.89628 0.4142 0.0
C610 C 0.9345 0.83284 0.43833 0.0
C611 C 0.90266 0.85286 0.40688 0.0
C612 C 0.87937 0.85077 0.3837 0.0
C613 C 0.9444 0.8585 0.45238 0.0
C614 C 0.93308 0.88173 0.44386 0.0
C615 C 0.91269 0.87858 0.42084 0.0
C616 C 0.94205 0.90935 0.4587 0.0
C617 C 0.96732 0.8606 0.47595 0.0
C618 C 0.93712 0.91294 0.48932 0.0
C619 C 0.94644 0.93855 0.50338 0.0
C620 C 0.96092 0.9614 0.48721 0.0
C621 C 0.9651 0.95791 0.45638 0.0
C622 C 0.95566 0.93229 0.44232 0.0
H623 H 0.97922 0.84324 0.47439 0.0
H624 H 0.98339 0.88016 0.4742 0.0
H625 H 0.9566 0.86008 0.4982 0.0
H626 H 0.92615 0.89582 0.50246 0.0
H627 H 0.94271 0.94026 0.5271 0.0
H628 H 0.36037 0.87297 0.55559 0.0
H629 H 0.39268 0.84792 0.5276 0.0
H630 H 0.32398 0.77597 0.52589 0.0
H631 H 0.29146 0.80136 0.55267 0.0
H632 H 0.40886 0.80802 0.55397 0.0
H633 H 0.36225 0.76573 0.44795 0.0
H634 H 0.3498 0.7938 0.46704 0.0
H635 H 0.33478 0.75868 0.47653 0.0
C636 C 0.35196 0.85212 0.54816 0.0
C637 C 0.32366 0.83889 0.55634 0.0
C638 C 0.37033 0.83787 0.53211 0.0
C639 C 0.36078 0.81009 0.52444 0.0
C640 C 0.33169 0.79756 0.53075 0.0
H641 H 0.40722 0.66149 0.5396 0.0
H642 H 0.38692 0.70107 0.5254 0.0
C643 C 0.31316 0.81197 0.54634 0.0
C644 C 0.38235 0.79273 0.51635 0.0
H645 H 0.39051 0.73656 0.47463 0.0
C646 C 0.40548 0.79302 0.53594 0.0
C647 C 0.37799 0.77315 0.49287 0.0
C648 C 0.355 0.77307 0.46977 0.0
C649 C 0.42248 0.77267 0.53455 0.0
C650 C 0.41645 0.75169 0.51264 0.0
C651 C 0.39494 0.75263 0.4915 0.0
C652 C 0.42878 0.72654 0.51476 0.0
C653 C 0.44502 0.77245 0.55818 0.0
C654 C 0.45898 0.72751 0.51246 0.0
C655 C 0.4707 0.70493 0.52082 0.0
C656 C 0.45231 0.68104 0.53127 0.0
C657 C 0.42193 0.67955 0.53152 0.0
C658 C 0.41029 0.70213 0.52334 0.0
H659 H 0.44423 0.78825 0.57581 0.0
H660 H 0.44176 0.75202 0.56878 0.0
H661 H 0.46717 0.77658 0.54784 0.0
H662 H 0.47353 0.74611 0.50552 0.0
H663 H 0.49416 0.7064 0.51987 0.0
H664 H 0.68523 0.78029 0.75437 0.0
H665 H 0.71494 0.79588 0.71013 0.0
H666 H 0.79168 0.78076 0.75391 0.0
H667 H 0.76242 0.76524 0.79771 0.0
H668 H 0.75762 0.83989 0.71027 0.0
H669 H 0.80511 0.75148 0.67227 0.0
H670 H 0.774 0.7478 0.69739 0.0
H671 H 0.81057 0.7575 0.71129 0.0
C672 C 0.70835 0.77983 0.75425 0.0
C673 C 0.72143 0.77137 0.77945 0.0
C674 C 0.72525 0.78857 0.72895 0.0
C675 C 0.75545 0.78894 0.72845 0.0
C676 C 0.7683 0.77975 0.75329 0.0
H677 H 0.91126 0.88325 0.6652 0.0
H678 H 0.87295 0.84688 0.68481 0.0
C679 C 0.75149 0.77096 0.77844 0.0
C680 C 0.7744 0.80262 0.70418 0.0
H681 H 0.83365 0.79675 0.66052 0.0
C682 C 0.77372 0.83024 0.69875 0.0
C683 C 0.79547 0.79003 0.68924 0.0
C684 C 0.79611 0.75997 0.69264 0.0
C685 C 0.79478 0.84614 0.68047 0.0
C686 C 0.81688 0.83397 0.66694 0.0
C687 C 0.81672 0.806 0.67105 0.0
C688 C 0.84174 0.85089 0.651 0.0
C689 C 0.79431 0.87631 0.67724 0.0
C690 C 0.83728 0.86406 0.62468 0.0
C691 C 0.85909 0.88482 0.61346 0.0
C692 C 0.88569 0.89261 0.62839 0.0
C693 C 0.89105 0.87761 0.65319 0.0
C694 C 0.86917 0.85689 0.66444 0.0
H695 H 0.77838 0.88335 0.69276 0.0
H696 H 0.8163 0.88889 0.68134 0.0
H697 H 0.78819 0.88018 0.65422 0.0
H698 H 0.81634 0.85944 0.61384 0.0
H699 H 0.85459 0.89579 0.59403 0.0
H700 H 0.7027 0.1979 0.3808 0.0
H701 H 0.68554 0.18457 0.33077 0.0
H702 H 0.75894 0.24076 0.29347 0.0
H703 H 0.77647 0.25399 0.34364 0.0
H704 H 0.67078 0.21257 0.28212 0.0
H705 H 0.76878 0.16646 0.2588 0.0
H706 H 0.75968 0.17754 0.29554 0.0
H707 H 0.77613 0.20233 0.2686 0.0
C708 C 0.71489 0.2078 0.36196 0.0
C709 C 0.74105 0.2268 0.36603 0.0
C710 C 0.7051 0.20014 0.33341 0.0
C711 C 0.72125 0.21137 0.30849 0.0
C712 C 0.74651 0.23148 0.31246 0.0
H713 H 0.6538 0.16135 0.12992 0.0
H714 H 0.67299 0.19069 0.17229 0.0
C715 C 0.75646 0.23901 0.34105 0.0
C716 C 0.71259 0.20037 0.27859 0.0
H717 H 0.73371 0.16214 0.22148 0.0
C718 C 0.68461 0.20181 0.26862 0.0
C719 C 0.73066 0.1861 0.26132 0.0
C720 C 0.76039 0.18274 0.27161 0.0
C721 C 0.67384 0.18862 0.24216 0.0
C722 C 0.69181 0.17411 0.2251 0.0
C723 C 0.72013 0.17347 0.23459 0.0
C724 C 0.68075 0.15704 0.19903 0.0
C725 C 0.64286 0.18913 0.23349 0.0
C726 C 0.67943 0.1286 0.19986 0.0
C727 C 0.66877 0.11194 0.17577 0.0
C728 C 0.65924 0.12341 0.15032 0.0
C729 C 0.66079 0.15197 0.14938 0.0
C730 C 0.67164 0.16871 0.17353 0.0
H731 H 0.63021 0.19674 0.25191 0.0
H732 H 0.64314 0.20293 0.21432 0.0
H733 H 0.63135 0.1683 0.22666 0.0
H734 H 0.68628 0.11922 0.2194 0.0
H735 H 0.66738 0.08997 0.17736 0.0
H736 H 0.38751 0.6333 0.24428 0.0
H737 H 0.40618 0.61192 0.28658 0.0
H738 H 0.42462 0.69026 0.33202 0.0
H739 H 0.40575 0.71184 0.28975 0.0
H740 H 0.46304 0.6245 0.31338 0.0
H741 H 0.37535 0.63886 0.39389 0.0
H742 H 0.37151 0.64155 0.35426 0.0
H743 H 0.39337 0.66911 0.37479 0.0
C744 C 0.39534 0.64605 0.26331 0.0
C745 C 0.3948 0.6744 0.26345 0.0
C746 C 0.40619 0.63375 0.28753 0.0
C747 C 0.41653 0.64925 0.31291 0.0
C748 C 0.41642 0.67763 0.31303 0.0
H749 H 0.47801 0.6032 0.48559 0.0
H750 H 0.46107 0.62697 0.44408 0.0
C751 C 0.40583 0.69004 0.28863 0.0
C752 C 0.42761 0.63568 0.33892 0.0
H753 H 0.41379 0.61951 0.41223 0.0
C754 C 0.45222 0.6234 0.33498 0.0
C755 C 0.41379 0.63428 0.36733 0.0
C756 C 0.38691 0.64644 0.37297 0.0
C757 C 0.46354 0.61022 0.35848 0.0
C758 C 0.44933 0.60822 0.3868 0.0
C759 C 0.42481 0.62074 0.39074 0.0
C760 C 0.45948 0.59332 0.41249 0.0
C761 C 0.49123 0.59934 0.35276 0.0
C762 C 0.46388 0.56608 0.40933 0.0
C763 C 0.47386 0.55247 0.43313 0.0
C764 C 0.47921 0.56541 0.46113 0.0
C765 C 0.47405 0.5924 0.46454 0.0
C766 C 0.46435 0.60611 0.44064 0.0
H767 H 0.50433 0.61028 0.33422 0.0
H768 H 0.50502 0.60139 0.37281 0.0
H769 H 0.48553 0.5773 0.34634 0.0
H770 H 0.45944 0.55514 0.38841 0.0
H771 H 0.47722 0.53165 0.42957 0.0
H772 H 0.12605 0.35674 0.79342 0.0
H773 H 0.10481 0.37914 0.83494 0.0
H774 H 0.14052 0.45832 0.7982 0.0
H775 H 0.16013 0.43623 0.75585 0.0
H776 H 0.12766 0.41286 0.87807 0.0
H777 H 0.0591 0.46844 0.81271 0.0
H778 H 0.07685 0.44245 0.79626 0.0
H779 H 0.09667 0.47712 0.80125 0.0
C780 C 0.12897 0.37891 0.79375 0.0
C781 C 0.1449 0.39446 0.77081 0.0
C782 C 0.11697 0.39177 0.81782 0.0
C783 C 0.12042 0.42057 0.81973 0.0
C784 C 0.13668 0.43612 0.79714 0.0
H785 H 0.0864 0.54234 0.95019 0.0
H786 H 0.10421 0.51591 0.90973 0.0
C787 C 0.14843 0.42332 0.77299 0.0
C788 C 0.10772 0.43439 0.84553 0.0
H789 H 0.06689 0.48319 0.86333 0.0
C790 C 0.11412 0.42801 0.87475 0.0
C791 C 0.08979 0.45417 0.84159 0.0
C792 C 0.07994 0.46073 0.81127 0.0
C793 C 0.104 0.44133 0.89974 0.0
C794 C 0.08694 0.46166 0.89565 0.0
C795 C 0.08016 0.46779 0.86656 0.0
C796 C 0.07648 0.47729 0.92117 0.0
C797 C 0.11228 0.43415 0.93042 0.0
C798 C 0.05483 0.46451 0.94128 0.0
C799 C 0.04435 0.47971 0.96439 0.0
C800 C 0.05543 0.50801 0.96805 0.0
C801 C 0.07738 0.52061 0.94814 0.0
C802 C 0.08759 0.50551 0.9249 0.0
H803 H 0.12911 0.42105 0.92976 0.0
H804 H 0.12065 0.45311 0.94351 0.0
H805 H 0.0926 0.42288 0.94218 0.0
H806 H 0.04564 0.44285 0.93877 0.0
H807 H 0.02735 0.46936 0.97918 0.0
H808 H 0.68822 0.83612 0.84091 0.0
H809 H 0.6626 0.8705 0.86239 0.0
H810 H 0.60089 0.80671 0.90549 0.0
H811 H 0.62626 0.77195 0.8837 0.0
H812 H 0.6031 0.87605 0.85764 0.0
H813 H 0.63409 0.85985 0.97377 0.0
H814 H 0.65177 0.847 0.942 0.0
H815 H 0.6162 0.82966 0.95406 0.0
C816 C 0.66894 0.82928 0.85457 0.0
C817 C 0.65923 0.80123 0.86051 0.0
C818 C 0.65441 0.84901 0.86694 0.0
C819 C 0.63003 0.84117 0.8857 0.0
C820 C 0.61994 0.8132 0.89138 0.0
H821 H 0.51499 0.94954 0.95262 0.0
H822 H 0.53454 0.9135 0.92581 0.0
C823 C 0.63447 0.79339 0.87897 0.0
C824 C 0.61575 0.86249 0.89976 0.0
H825 H 0.60374 0.89204 0.96671 0.0
C826 C 0.60307 0.8795 0.88149 0.0
C827 C 0.6161 0.86709 0.93084 0.0
C828 C 0.63045 0.85013 0.95139 0.0
C829 C 0.59076 0.90109 0.89353 0.0
C830 C 0.59097 0.90556 0.92463 0.0
C831 C 0.60353 0.88846 0.94287 0.0
C832 C 0.57925 0.92845 0.9388 0.0
C833 C 0.57838 0.91941 0.87287 0.0
C834 C 0.5979 0.9488 0.95493 0.0
C835 C 0.58684 0.96934 0.97033 0.0
C836 C 0.5568 0.96984 0.97007 0.0
C837 C 0.53824 0.94982 0.95322 0.0
C838 C 0.54937 0.92925 0.93779 0.0
H839 H 0.5855 0.91694 0.84946 0.0
H840 H 0.55417 0.91409 0.8739 0.0
H841 H 0.58505 0.94131 0.87966 0.0
H842 H 0.62103 0.94853 0.95598 0.0
H843 H 0.60179 0.98441 0.98303 0.0
H844 H 0.81701 0.19184 0.40566 0.0
H845 H 0.86045 0.17594 0.42134 0.0
H846 H 0.87927 0.24378 0.48363 0.0
H847 H 0.83548 0.26001 0.46794 0.0
H848 H 0.92171 0.19772 0.42823 0.0
H849 H 0.86052 0.17465 0.53534 0.0
H850 H 0.84334 0.18434 0.5027 0.0
H851 H 0.8677 0.20977 0.52366 0.0
C852 C 0.83085 0.20397 0.42198 0.0
C853 C 0.82268 0.22704 0.43581 0.0
C854 C 0.85569 0.19482 0.43093 0.0
C855 C 0.87277 0.2085 0.45386 0.0
C856 C 0.86607 0.23279 0.46611 0.0
H857 H 0.97116 0.11667 0.56236 0.0
H858 H 0.95699 0.15695 0.54087 0.0
C859 C 0.84106 0.24194 0.45724 0.0
C860 C 0.89443 0.19472 0.46763 0.0
H861 H 0.90247 0.15649 0.5279 0.0
C862 C 0.91797 0.18913 0.45027 0.0
C863 C 0.88932 0.18352 0.49634 0.0
C864 C 0.86379 0.18813 0.51563 0.0
C865 C 0.93594 0.17169 0.46051 0.0
C866 C 0.92973 0.15923 0.48849 0.0
C867 C 0.90721 0.1661 0.50644 0.0
C868 C 0.94403 0.137 0.49877 0.0
C869 C 0.96099 0.16637 0.44104 0.0
C870 C 0.9421 0.1126 0.48194 0.0
C871 C 0.95042 0.08961 0.49412 0.0
C872 C 0.96014 0.09062 0.52346 0.0
C873 C 0.96327 0.11532 0.53979 0.0
C874 C 0.95541 0.13837 0.52749 0.0
H875 H 0.96926 0.18416 0.42653 0.0
H876 H 0.9793 0.16209 0.45445 0.0
H877 H 0.95326 0.14831 0.42641 0.0
H878 H 0.93267 0.11082 0.46004 0.0
H879 H 0.94793 0.07072 0.48117 0.0
H880 H 0.29458 0.65456 0.22689 0.0
H881 H 0.24942 0.63105 0.20358 0.0
H882 H 0.28472 0.65779 0.11758 0.0
H883 H 0.33024 0.68041 0.1405 0.0
H884 H 0.20969 0.65108 0.17172 0.0
H885 H 0.25584 0.57713 0.10093 0.0
H886 H 0.27627 0.59684 0.13028 0.0
H887 H 0.27338 0.61206 0.09474 0.0
C888 C 0.29301 0.65509 0.20296 0.0
C889 C 0.31638 0.66945 0.18571 0.0
C890 C 0.26697 0.64176 0.18962 0.0
C891 C 0.26357 0.64217 0.15865 0.0
C892 C 0.2868 0.65655 0.1414 0.0
H893 H 0.09733 0.6107 0.06494 0.0
H894 H 0.14342 0.63089 0.0885 0.0
C895 C 0.31281 0.66986 0.15468 0.0
C896 C 0.23549 0.6284 0.14451 0.0
H897 H 0.20702 0.58167 0.09072 0.0
C898 C 0.20916 0.63582 0.1541 0.0
C899 C 0.23444 0.60812 0.12174 0.0
C900 C 0.26144 0.59783 0.1115 0.0
C901 C 0.18218 0.62411 0.14124 0.0
C902 C 0.1813 0.60468 0.11761 0.0
C903 C 0.20753 0.59677 0.1085 0.0
C904 C 0.15342 0.5922 0.10229 0.0
C905 C 0.15476 0.63235 0.15355 0.0
C906 C 0.14386 0.56353 0.101 0.0
C907 C 0.11749 0.55183 0.08721 0.0
C908 C 0.09999 0.56848 0.07415 0.0
C909 C 0.10997 0.59714 0.07487 0.0
C910 C 0.13634 0.6088 0.08862 0.0
H911 H 0.15784 0.64076 0.17655 0.0
H912 H 0.14899 0.6486 0.13947 0.0
H913 H 0.13615 0.61466 0.15366 0.0
H914 H 0.15659 0.55015 0.11114 0.0
H915 H 0.11068 0.52971 0.08714 0.0
H916 H 0.2169 0.43771 0.69878 0.0
H917 H 0.26216 0.4605 0.6745 0.0
H918 H 0.28591 0.38192 0.65683 0.0
H919 H 0.24162 0.35909 0.68254 0.0
H920 H 0.3324 0.41775 0.67391 0.0
H921 H 0.27779 0.46634 0.58696 0.0
H922 H 0.26843 0.47609 0.6239 0.0
H923 H 0.25791 0.44091 0.61165 0.0
C924 C 0.23186 0.4252 0.69009 0.0
C925 C 0.22516 0.39637 0.69255 0.0
C926 C 0.25765 0.43832 0.67573 0.0
C927 C 0.27735 0.42301 0.66304 0.0
C928 C 0.27108 0.39432 0.66607 0.0
H929 H 0.40988 0.47426 0.52685 0.0
H930 H 0.36597 0.45645 0.55623 0.0
C931 C 0.24544 0.38121 0.68061 0.0
C932 C 0.30452 0.43667 0.64677 0.0
H933 H 0.32931 0.47928 0.58893 0.0
C934 C 0.33167 0.43122 0.65534 0.0
C935 C 0.30379 0.45402 0.62219 0.0
C936 C 0.27541 0.4595 0.6104 0.0
C937 C 0.35785 0.44248 0.64017 0.0
C938 C 0.35721 0.4604 0.61608 0.0
C939 C 0.33006 0.46587 0.60755 0.0
C940 C 0.38407 0.47238 0.59834 0.0
C941 C 0.3858 0.43419 0.64952 0.0
C942 C 0.40899 0.48793 0.61189 0.0
C943 C 0.43438 0.49799 0.59504 0.0
C944 C 0.43528 0.49305 0.5642 0.0
C945 C 0.41001 0.47838 0.55056 0.0
C946 C 0.3848 0.46818 0.56739 0.0
H947 H 0.38146 0.41489 0.66239 0.0
H948 H 0.39977 0.43124 0.62995 0.0
H949 H 0.39814 0.45058 0.66394 0.0
H950 H 0.4089 0.49224 0.63553 0.0
H951 H 0.45338 0.50939 0.60621 0.0
H952 H 0.69888 0.68673 0.84413 0.0
H953 H 0.72782 0.65833 0.86984 0.0
H954 H 0.75357 0.72365 0.93403 0.0
H955 H 0.72432 0.75184 0.90869 0.0
H956 H 0.78572 0.67456 0.87132 0.0
H957 H 0.74398 0.65722 0.98653 0.0
H958 H 0.7225 0.66793 0.95756 0.0
H959 H 0.74927 0.69275 0.9768 0.0
C960 C 0.7099 0.69458 0.86435 0.0
C961 C 0.70944 0.72146 0.87442 0.0
C962 C 0.72643 0.67838 0.879 0.0
C963 C 0.74281 0.6888 0.90393 0.0
C964 C 0.74065 0.7149 0.91526 0.0
H965 H 0.91403 0.67209 0.95074 0.0
H966 H 0.86911 0.68494 0.93378 0.0
C967 C 0.72393 0.73104 0.90073 0.0
C968 C 0.76569 0.67458 0.91488 0.0
H969 H 0.79447 0.65363 0.97772 0.0
C970 C 0.78729 0.66953 0.89451 0.0
C971 C 0.76774 0.6679 0.94509 0.0
C972 C 0.74444 0.67147 0.96768 0.0
C973 C 0.81152 0.65917 0.90373 0.0
C974 C 0.81449 0.65414 0.93419 0.0
C975 C 0.79227 0.65787 0.95441 0.0
C976 C 0.84131 0.64637 0.94547 0.0
C977 C 0.83403 0.65414 0.88084 0.0
C978 C 0.8404 0.62062 0.95819 0.0
C979 C 0.86607 0.61323 0.96802 0.0
C980 C 0.89298 0.63163 0.96556 0.0
C981 C 0.89364 0.65755 0.95318 0.0
C982 C 0.86805 0.66485 0.94327 0.0
H983 H 0.82492 0.65196 0.8581 0.0
H984 H 0.85262 0.67183 0.88096 0.0
H985 H 0.84256 0.63536 0.88595 0.0
H986 H 0.81991 0.60616 0.96018 0.0
H987 H 0.86482 0.59324 0.97781 0.0
H988 H 0.41154 0.77233 0.23056 0.0
H989 H 0.43271 0.81687 0.20863 0.0
H990 H 0.41212 0.78294 0.12116 0.0
H991 H 0.39113 0.73862 0.14275 0.0
H992 H 0.47786 0.83344 0.16871 0.0
H993 H 0.37501 0.85006 0.11921 0.0
H994 H 0.37582 0.82359 0.14598 0.0
H995 H 0.38489 0.81826 0.10757 0.0
C996 C 0.41168 0.77425 0.20664 0.0
C997 C 0.3991 0.75171 0.18861 0.0
C998 C 0.42371 0.79987 0.19408 0.0
C999 C 0.42344 0.80375 0.16315 0.0
C1000 C 0.41184 0.78101 0.14509 0.0
H1001 H 0.48473 0.94123 0.04209 0.0
H1002 H 0.46374 0.89673 0.0644 0.0
C1003 C 0.39982 0.7555 0.15758 0.0
C1004 C 0.43554 0.83128 0.14966 0.0
H1005 H 0.41837 0.88071 0.10445 0.0
C1006 C 0.46473 0.84381 0.15484 0.0
C1007 C 0.41865 0.84506 0.13134 0.0
C1008 C 0.38678 0.83372 0.12588 0.0
C1009 C 0.47756 0.86911 0.14186 0.0
C1010 C 0.46069 0.88286 0.1235 0.0
C1011 C 0.43148 0.87035 0.11835 0.0
C1012 C 0.47282 0.91029 0.10981 0.0
C1013 C 0.50942 0.88048 0.14732 0.0
C1014 C 0.48436 0.9332 0.12769 0.0
C1015 C 0.49632 0.95864 0.11495 0.0
C1016 C 0.49698 0.96205 0.08394 0.0
C1017 C 0.48469 0.93938 0.06603 0.0
C1018 C 0.47268 0.91386 0.07882 0.0
H1019 H 0.52118 0.86421 0.15423 0.0
H1020 H 0.52041 0.89044 0.12715 0.0
H1021 H 0.51128 0.89611 0.16547 0.0
H1022 H 0.48412 0.93146 0.15163 0.0
H1023 H 0.50534 0.97564 0.1295 0.0
H1024 H 0.14843 0.32781 0.6494 0.0
H1025 H 0.12723 0.28289 0.62829 0.0
H1026 H 0.10785 0.25117 0.71642 0.0
H1027 H 0.12904 0.29624 0.73776 0.0
H1028 H 0.14423 0.23416 0.63402 0.0
H1029 H 0.0305 0.22408 0.67683 0.0
H1030 H 0.05633 0.25617 0.6782 0.0
H1031 H 0.05757 0.23017 0.70523 0.0
C1032 C 0.13965 0.31134 0.6644 0.0
C1033 C 0.14063 0.31583 0.69541 0.0
C1034 C 0.1274 0.28557 0.65222 0.0
C1035 C 0.11555 0.26345 0.6706 0.0
C1036 C 0.11617 0.26789 0.70158 0.0
H1037 H 0.0388 0.09065 0.62692 0.0
H1038 H 0.05963 0.13362 0.65305 0.0
C1039 C 0.12838 0.29377 0.71382 0.0
C1040 C 0.10375 0.23569 0.65714 0.0
H1041 H 0.04261 0.18504 0.65222 0.0
C1042 C 0.12197 0.22351 0.63803 0.0
C1043 C 0.07473 0.22146 0.66233 0.0
C1044 C 0.05352 0.23369 0.68154 0.0
C1045 C 0.11216 0.19777 0.62414 0.0
C1046 C 0.08304 0.18374 0.62898 0.0
C1047 C 0.06492 0.19565 0.64846 0.0
C1048 C 0.07076 0.15728 0.61315 0.0
C1049 C 0.13328 0.18568 0.60466 0.0
C1050 C 0.06976 0.15607 0.58196 0.0
C1051 C 0.05791 0.13156 0.56698 0.0
C1052 C 0.04655 0.10743 0.5827 0.0
C1053 C 0.04751 0.10865 0.61398 0.0
C1054 C 0.05933 0.1333 0.629 0.0
H1055 H 0.15633 0.1946 0.61005 0.0
H1056 H 0.12982 0.16304 0.60699 0.0
H1057 H 0.12984 0.19025 0.5811 0.0
H1058 H 0.07781 0.17429 0.56911 0.0
H1059 H 0.05741 0.13168 0.54294 0.0
H1060 H 0.75279 0.28263 0.48766 0.0
H1061 H 0.71553 0.29516 0.52104 0.0
H1062 H 0.65807 0.21825 0.50056 0.0
H1063 H 0.69501 0.20639 0.46595 0.0
H1064 H 0.63361 0.25769 0.48737 0.0
H1065 H 0.67589 0.28224 0.59938 0.0
H1066 H 0.7025 0.29929 0.57342 0.0
H1067 H 0.69336 0.26223 0.57326 0.0
C1068 C 0.73256 0.26808 0.4911 0.0
C1069 C 0.72645 0.2438 0.47413 0.0
C1070 C 0.71135 0.27505 0.51048 0.0
C1071 C 0.68399 0.25752 0.51365 0.0
C1072 C 0.67901 0.23205 0.49859 0.0
H1073 H 0.53696 0.34282 0.5414 0.0
H1074 H 0.56047 0.30337 0.54943 0.0
C1075 C 0.69999 0.22535 0.47876 0.0
C1076 C 0.65911 0.26852 0.52674 0.0
H1077 H 0.64352 0.31278 0.58079 0.0
C1078 C 0.63517 0.26883 0.50839 0.0
C1079 C 0.6609 0.28289 0.55426 0.0
C1080 C 0.68446 0.28133 0.57626 0.0
C1081 C 0.61505 0.28576 0.51497 0.0
C1082 C 0.61883 0.30256 0.54083 0.0
C1083 C 0.64088 0.30005 0.56082 0.0
C1084 C 0.60443 0.32652 0.54375 0.0
C1085 C 0.59178 0.28761 0.4926 0.0
C1086 C 0.62146 0.35271 0.53947 0.0
C1087 C 0.60821 0.37511 0.53485 0.0
C1088 C 0.57762 0.37173 0.53445 0.0
C1089 C 0.56058 0.34587 0.541 0.0
C1090 C 0.57393 0.3234 0.54578 0.0
H1091 H 0.59368 0.27496 0.47232 0.0
H1092 H 0.56989 0.28034 0.50279 0.0
H1093 H 0.59312 0.30924 0.48585 0.0
H1094 H 0.64504 0.35549 0.53764 0.0
H1095 H 0.62196 0.39469 0.52968 0.0
loop_
_geom_bond_atom_site_label_1
_geom_bond_atom_site_label_2
_geom_bond_distance
_geom_bond_site_symmetry_2
_ccdc_geom_bond_type
H0 C3 0.931 . S
H1 C6 0.928 . S
H2 C8 0.930 . S
C3 H0 0.931 . S
C3 C4 1.413 . S
C3 C5 1.360 . S
C4 C3 1.413 . S
C4 C8 1.429 . S
C5 C3 1.360 . S
C5 C6 1.372 . S
C6 H1 0.928 . S
C6 C5 1.372 . S
C6 C7 1.404 . S
C7 C6 1.404 . S
C7 C8 1.391 . S
C8 H2 0.930 . S
C8 C4 1.429 . S
C8 C7 1.391 . S
H9 C12 0.931 . S
H10 C15 0.928 . S
H11 C17 0.930 . S
C12 H9 0.931 . S
C12 C13 1.413 . S
C12 C14 1.360 . S
C13 C12 1.413 . S
C13 C17 1.429 . S
C14 C12 1.360 . S
C14 C15 1.372 . S
C15 H10 0.928 . S
C15 C14 1.372 . S
C15 C16 1.404 . S
C16 C15 1.404 . S
C16 C17 1.391 . S
C17 H11 0.930 . S
C17 C13 1.429 . S
C17 C16 1.391 . S
H18 C21 0.931 . S
H19 C24 0.928 . S
H20 C26 0.930 . S
C21 H18 0.931 . S
C21 C22 1.413 . S
C21 C23 1.360 . S
C22 C21 1.413 . S
C22 C26 1.429 . S
C23 C21 1.360 . S
C23 C24 1.372 . S
C24 H19 0.928 . S
C24 C23 1.372 . S
C24 C25 1.404 . S
C25 C24 1.404 . S
C25 C26 1.391 . S
C26 H20 0.930 . S
C26 C22 1.429 . S
C26 C25 1.391 . S
H27 C30 0.931 . S
H28 C33 0.928 . S
H29 C35 0.930 . S
C30 H27 0.931 . S
C30 C31 1.413 . S
C30 C32 1.360 . S
C31 C30 1.413 . S
C31 C35 1.429 . S
C32 C30 1.360 . S
C32 C33 1.372 . S
C33 H28 0.928 . S
C33 C32 1.372 . S
C33 C34 1.404 . S
C34 C33 1.404 . S
C34 C35 1.391 . S
C35 H29 0.930 . S
C35 C31 1.429 . S
C35 C34 1.391 . S
H36 C39 0.931 . S
H37 C42 0.928 . S
H38 C44 0.930 . S
C39 H36 0.931 . S
C39 C40 1.413 . S
C39 C41 1.360 . S
C40 C39 1.413 . S
C40 C44 1.429 . S
C41 C39 1.360 . S
C41 C42 1.372 . S
C42 H37 0.928 . S
C42 C41 1.372 . S
C42 C43 1.404 . S
C43 C42 1.404 . S
C43 C44 1.391 . S
C44 H38 0.930 . S
C44 C40 1.429 . S
C44 C43 1.391 . S
H45 C48 0.931 . S
H46 C51 0.928 . S
H47 C53 0.930 . S
C48 H45 0.931 . S
C48 C49 1.413 . S
C48 C50 1.360 . S
C49 C48 1.413 . S
C49 C53 1.429 . S
C50 C48 1.360 . S
C50 C51 1.372 . S
C51 H46 0.928 . S
C51 C50 1.372 . S
C51 C52 1.404 . S
C52 C51 1.404 . S
C52 C53 1.391 . S
C53 H47 0.930 . S
C53 C49 1.429 . S
C53 C52 1.391 . S
H54 C57 0.931 . S
H55 C60 0.928 . S
H56 C62 0.930 . S
C57 H54 0.931 . S
C57 C58 1.413 . S
C57 C59 1.360 . S
C58 C57 1.413 . S
C58 C62 1.429 . S
C59 C57 1.360 . S
C59 C60 1.372 . S
C60 H55 0.928 . S
C60 C59 1.372 . S
C60 C61 1.404 . S
C61 C60 1.404 . S
C61 C62 1.391 . S
C62 H56 0.930 . S
C62 C58 1.429 . S
C62 C61 1.391 . S
H63 C66 0.931 . S
H64 C69 0.928 . S
H65 C71 0.930 . S
C66 H63 0.931 . S
C66 C67 1.413 . S
C66 C68 1.360 . S
C67 C66 1.413 . S
C67 C71 1.429 . S
C68 C66 1.360 . S
C68 C69 1.372 . S
C69 H64 0.928 . S
C69 C68 1.372 . S
C69 C70 1.404 . S
C70 C69 1.404 . S
C70 C71 1.391 . S
C71 H65 0.930 . S
C71 C67 1.429 . S
C71 C70 1.391 . S
Ho72 C75 2.811 . S
Ho72 O92 2.322 . S
Ho72 O94 2.378 . S
Ho72 O95 2.524 . S
Ho72 O96 2.381 1_545 S
Ho72 O97 2.669 1_545 S
Ho72 O99 2.346 1_445 S
Ho72 O103 2.305 1_455 S
Ho73 C84 2.811 . S
Ho73 O93 2.346 1_665 S
Ho73 O97 2.305 1_655 S
Ho73 O98 2.322 . S
Ho73 O100 2.378 . S
Ho73 O101 2.524 . S
Ho73 O102 2.381 1_565 S
Ho73 O103 2.669 1_565 S
C74 O92 1.259 . S
C74 O93 1.268 . S
C75 Ho72 2.811 . S
C75 C76 1.488 . S
C75 O94 1.215 . S
C75 O95 1.289 . S
C76 C75 1.488 . S
C76 C77 1.348 . S
C76 C81 1.413 . S
C77 C76 1.348 . S
C77 C78 1.442 . S
C77 H104 0.930 . S
C78 C77 1.442 . S
C78 C79 1.381 . S
C78 H105 0.931 . S
C79 C78 1.381 . S
C79 C80 1.321 . S
C80 C79 1.321 . S
C80 C81 1.403 . S
C80 H106 0.934 . S
C81 C76 1.413 . S
C81 C80 1.403 . S
C81 H107 0.930 . S
C82 O96 1.275 . S
C82 O97 1.256 . S
C83 O98 1.259 . S
C83 O99 1.268 . S
C84 Ho73 2.811 . S
C84 C85 1.488 . S
C84 O100 1.215 . S
C84 O101 1.289 . S
C85 C84 1.488 . S
C85 C86 1.348 . S
C85 C90 1.413 . S
C86 C85 1.348 . S
C86 C87 1.442 . S
C86 H108 0.930 . S
C87 C86 1.442 . S
C87 C88 1.381 . S
C87 H109 0.931 . S
C88 C87 1.381 . S
C88 C89 1.321 . S
C89 C88 1.321 . S
C89 C90 1.403 . S
C89 H110 0.934 . S
C90 C85 1.413 . S
C90 C89 1.403 . S
C90 H111 0.930 . S
C91 O102 1.275 . S
C91 O103 1.256 . S
O92 Ho72 2.322 . S
O92 C74 1.259 . S
O93 Ho73 2.346 1_445 S
O93 C74 1.268 . S
O94 Ho72 2.378 . S
O94 C75 1.215 . S
O95 Ho72 2.524 . S
O95 C75 1.289 . S
O96 Ho72 2.381 1_565 S
O96 C82 1.275 . S
O97 Ho72 2.669 1_565 S
O97 Ho73 2.305 1_455 S
O97 C82 1.256 . S
O98 Ho73 2.322 . S
O98 C83 1.259 . S
O99 Ho72 2.346 1_665 S
O99 C83 1.268 . S
O100 Ho73 2.378 . S
O100 C84 1.215 . S
O101 Ho73 2.524 . S
O101 C84 1.289 . S
O102 Ho73 2.381 1_545 S
O102 C91 1.275 . S
O103 Ho72 2.305 1_655 S
O103 Ho73 2.669 1_545 S
O103 C91 1.256 . S
H104 C77 0.930 . S
H105 C78 0.931 . S
H106 C80 0.934 . S
H107 C81 0.930 . S
H108 C86 0.930 . S
H109 C87 0.931 . S
H110 C89 0.934 . S
H111 C90 0.930 . S
Ho112 C115 2.813 1_565 S
Ho112 O132 2.324 1_565 S
Ho112 O134 2.378 1_565 S
Ho112 O135 2.527 1_565 S
Ho112 O136 2.378 . S
Ho112 O137 2.668 . S
Ho112 O139 2.343 1_554 S
Ho112 O143 2.307 1_564 S
Ho113 C124 2.811 1_545 S
Ho113 O133 2.346 1_556 S
Ho113 O137 2.305 1_546 S
Ho113 O138 2.322 1_545 S
Ho113 O140 2.378 1_545 S
Ho113 O141 2.524 1_545 S
Ho113 O142 2.381 . S
Ho113 O143 2.669 . S
C114 O132 1.259 . S
C114 O133 1.268 . S
C115 Ho112 2.813 1_545 S
C115 C116 1.488 . S
C115 O134 1.215 . S
C115 O135 1.289 . S
C116 C115 1.488 . S
C116 C117 1.348 . S
C116 C121 1.413 . S
C117 C116 1.348 . S
C117 C118 1.442 . S
C117 H144 0.930 . S
C118 C117 1.442 . S
C118 C119 1.381 . S
C118 H145 0.931 . S
C119 C118 1.381 . S
C119 C120 1.321 . S
C120 C119 1.321 . S
C120 C121 1.403 . S
C120 H146 0.934 . S
C121 C116 1.413 . S
C121 C120 1.403 . S
C121 H147 0.930 . S
C122 O136 1.275 . S
C122 O137 1.256 . S
C123 O138 1.259 . S
C123 O139 1.268 . S
C124 Ho113 2.811 1_565 S
C124 C125 1.488 . S
C124 O140 1.215 . S
C124 O141 1.289 . S
C125 C124 1.488 . S
C125 C126 1.348 . S
C125 C130 1.413 . S
C126 C125 1.348 . S
C126 C127 1.442 . S
C126 H148 0.930 . S
C127 C126 1.442 . S
C127 C128 1.381 . S
C127 H149 0.931 . S
C128 C127 1.381 . S
C128 C129 1.321 . S
C129 C128 1.321 . S
C129 C130 1.403 . S
C129 H150 0.934 . S
C130 C125 1.413 . S
C130 C129 1.403 . S
C130 H151 0.930 . S
C131 O142 1.275 . S
C131 O143 1.256 . S
O132 Ho112 2.324 1_545 S
O132 C114 1.259 . S
O133 Ho113 2.346 1_554 S
O133 C114 1.268 . S
O134 Ho112 2.378 1_545 S
O134 C115 1.215 . S
O135 Ho112 2.527 1_545 S
O135 C115 1.289 . S
O136 Ho112 2.378 . S
O136 C122 1.275 . S
O137 Ho112 2.668 . S
O137 Ho113 2.305 1_564 S
O137 C122 1.256 . S
O138 Ho113 2.322 1_565 S
O138 C123 1.259 . S
O139 Ho112 2.343 1_556 S
O139 C123 1.268 . S
O140 Ho113 2.378 1_565 S
O140 C124 1.215 . S
O141 Ho113 2.524 1_565 S
O141 C124 1.289 . S
O142 Ho113 2.381 . S
O142 C131 1.275 . S
O143 Ho112 2.307 1_546 S
O143 Ho113 2.669 . S
O143 C131 1.256 . S
H144 C117 0.930 . S
H145 C118 0.931 . S
H146 C120 0.934 . S
H147 C121 0.930 . S
H148 C126 0.930 . S
H149 C127 0.931 . S
H150 C129 0.934 . S
H151 C130 0.930 . S
Ho152 C155 2.811 . S
Ho152 O172 2.322 . S
Ho152 O174 2.378 . S
Ho152 O175 2.524 . S
Ho152 O176 2.381 . S
Ho152 O177 2.669 . S
Ho152 O179 2.346 . S
Ho152 O183 2.305 . S
Ho153 C164 2.811 . S
Ho153 O173 2.346 . S
Ho153 O177 2.305 . S
Ho153 O178 2.322 . S
Ho153 O180 2.378 . S
Ho153 O181 2.524 . S
Ho153 O182 2.381 . S
Ho153 O183 2.669 . S
C154 O172 1.259 . S
C154 O173 1.268 . S
C155 Ho152 2.811 . S
C155 C156 1.488 . S
C155 O174 1.215 . S
C155 O175 1.289 . S
C156 C155 1.488 . S
C156 C157 1.348 . S
C156 C161 1.413 . S
C157 C156 1.348 . S
C157 C158 1.442 . S
C157 H184 0.930 . S
C158 C157 1.442 . S
C158 C159 1.381 . S
C158 H185 0.931 . S
C159 C158 1.381 . S
C159 C160 1.321 . S
C160 C159 1.321 . S
C160 C161 1.403 . S
C160 H186 0.934 . S
C161 C156 1.413 . S
C161 C160 1.403 . S
C161 H187 0.930 . S
C162 O176 1.275 . S
C162 O177 1.256 . S
C163 O178 1.259 . S
C163 O179 1.268 . S
C164 Ho153 2.811 . S
C164 C165 1.488 . S
C164 O180 1.215 . S
C164 O181 1.289 . S
C165 C164 1.488 . S
C165 C166 1.348 . S
C165 C170 1.413 . S
C166 C165 1.348 . S
C166 C167 1.442 . S
C166 H188 0.930 . S
C167 C166 1.442 . S
C167 C168 1.381 . S
C167 H189 0.931 . S
C168 C167 1.381 . S
C168 C169 1.321 . S
C169 C168 1.321 . S
C169 C170 1.403 . S
C169 H190 0.934 . S
C170 C165 1.413 . S
C170 C169 1.403 . S
C170 H191 0.930 . S
C171 O182 1.275 . S
C171 O183 1.256 . S
O172 Ho152 2.322 . S
O172 C154 1.259 . S
O173 Ho153 2.346 . S
O173 C154 1.268 . S
O174 Ho152 2.378 . S
O174 C155 1.215 . S
O175 Ho152 2.524 . S
O175 C155 1.289 . S
O176 Ho152 2.381 . S
O176 C162 1.275 . S
O177 Ho152 2.669 . S
O177 Ho153 2.305 . S
O177 C162 1.256 . S
O178 Ho153 2.322 . S
O178 C163 1.259 . S
O179 Ho152 2.346 . S
O179 C163 1.268 . S
O180 Ho153 2.378 . S
O180 C164 1.215 . S
O181 Ho153 2.524 . S
O181 C164 1.289 . S
O182 Ho153 2.381 . S
O182 C171 1.275 . S
O183 Ho152 2.305 . S
O183 Ho153 2.669 . S
O183 C171 1.256 . S
H184 C157 0.930 . S
H185 C158 0.931 . S
H186 C160 0.934 . S
H187 C161 0.930 . S
H188 C166 0.930 . S
H189 C167 0.931 . S
H190 C169 0.934 . S
H191 C170 0.930 . S
Ho192 C195 2.811 . S
Ho192 O212 2.322 . S
Ho192 O214 2.378 . S
Ho192 O215 2.524 . S
Ho192 O216 2.381 1_455 S
Ho192 O217 2.669 1_455 S
Ho192 O219 2.346 1_454 S
Ho192 O223 2.305 1_554 S
Ho193 C204 2.811 . S
Ho193 O213 2.346 1_656 S
Ho193 O217 2.305 1_556 S
Ho193 O218 2.322 . S
Ho193 O220 2.378 . S
Ho193 O221 2.524 . S
Ho193 O222 2.381 1_655 S
Ho193 O223 2.669 1_655 S
C194 O212 1.259 . S
C194 O213 1.268 . S
C195 Ho192 2.811 . S
C195 C196 1.488 . S
C195 O214 1.215 . S
C195 O215 1.289 . S
C196 C195 1.488 . S
C196 C197 1.348 . S
C196 C201 1.413 . S
C197 C196 1.348 . S
C197 C198 1.442 . S
C197 H224 0.930 . S
C198 C197 1.442 . S
C198 C199 1.381 . S
C198 H225 0.931 . S
C199 C198 1.381 . S
C199 C200 1.321 . S
C200 C199 1.321 . S
C200 C201 1.403 . S
C200 H226 0.934 . S
C201 C196 1.413 . S
C201 C200 1.403 . S
C201 H227 0.930 . S
C202 O216 1.275 . S
C202 O217 1.256 . S
C203 O218 1.259 . S
C203 O219 1.268 . S
C204 Ho193 2.811 . S
C204 C205 1.488 . S
C204 O220 1.215 . S
C204 O221 1.289 . S
C205 C204 1.488 . S
C205 C206 1.348 . S
C205 C210 1.413 . S
C206 C205 1.348 . S
C206 C207 1.442 . S
C206 H228 0.930 . S
C207 C206 1.442 . S
C207 C208 1.381 . S
C207 H229 0.931 . S
C208 C207 1.381 . S
C208 C209 1.321 . S
C209 C208 1.321 . S
C209 C210 1.403 . S
C209 H230 0.934 . S
C210 C205 1.413 . S
C210 C209 1.403 . S
C210 H231 0.930 . S
C211 O222 1.275 . S
C211 O223 1.256 . S
O212 Ho192 2.322 . S
O212 C194 1.259 . S
O213 Ho193 2.346 1_454 S
O213 C194 1.268 . S
O214 Ho192 2.378 . S
O214 C195 1.215 . S
O215 Ho192 2.524 . S
O215 C195 1.289 . S
O216 Ho192 2.381 1_655 S
O216 C202 1.275 . S
O217 Ho192 2.669 1_655 S
O217 Ho193 2.305 1_554 S
O217 C202 1.256 . S
O218 Ho193 2.322 . S
O218 C203 1.259 . S
O219 Ho192 2.346 1_656 S
O219 C203 1.268 . S
O220 Ho193 2.378 . S
O220 C204 1.215 . S
O221 Ho193 2.524 . S
O221 C204 1.289 . S
O222 Ho193 2.381 1_455 S
O222 C211 1.275 . S
O223 Ho192 2.305 1_556 S
O223 Ho193 2.669 1_455 S
O223 C211 1.256 . S
H224 C197 0.930 . S
H225 C198 0.931 . S
H226 C200 0.934 . S
H227 C201 0.930 . S
H228 C206 0.930 . S
H229 C207 0.931 . S
H230 C209 0.934 . S
H231 C210 0.930 . S
H232 C240 0.929 . S
H233 C242 0.930 . S
H234 C244 0.930 . S
H235 C247 0.929 . S
H236 C250 0.930 . S
H237 C252 0.960 . S
H238 C252 0.960 . S
H239 C252 0.960 . S
C240 H232 0.929 . S
C240 C241 1.377 . S
C240 C242 1.384 . S
C241 C240 1.377 . S
C241 C247 1.390 . S
C242 H233 0.930 . S
C242 C240 1.384 . S
C242 C243 1.372 . S
C243 C242 1.372 . S
C243 C244 1.400 . S
C243 C248 1.490 . S
C244 H234 0.930 . S
C244 C243 1.400 . S
C244 C247 1.386 . S
H245 C261 0.930 . S
H246 C262 0.931 . S
C247 H235 0.929 . S
C247 C241 1.390 . S
C247 C244 1.386 . S
C248 C243 1.490 . S
C248 C250 1.395 . S
C248 C251 1.403 . S
H249 C255 0.930 . S
C250 H236 0.930 . S
C250 C248 1.395 . S
C250 C253 1.403 . S
C251 C248 1.403 . S
C251 C252 1.524 . S
C251 C255 1.400 . S
C252 H237 0.960 . S
C252 H238 0.960 . S
C252 H239 0.960 . S
C252 C251 1.524 . S
C253 C250 1.403 . S
C253 C254 1.392 . S
C253 C257 1.495 . S
C254 C253 1.392 . S
C254 C255 1.385 . S
C254 C256 1.478 . S
C255 H249 0.930 . S
C255 C251 1.400 . S
C255 C254 1.385 . S
C256 C254 1.478 . S
C256 C258 1.381 . S
C256 C262 1.383 . S
C257 C253 1.495 . S
C257 H263 0.959 . S
C257 H264 0.961 . S
C257 H265 0.960 . S
C258 C256 1.381 . S
C258 C259 1.394 . S
C258 H266 0.930 . S
C259 C258 1.394 . S
C259 C260 1.383 . S
C259 H267 0.929 . S
C260 C259 1.383 . S
C260 C261 1.377 . S
C261 H245 0.930 . S
C261 C260 1.377 . S
C261 C262 1.379 . S
C262 H246 0.931 . S
C262 C256 1.383 . S
C262 C261 1.379 . S
H263 C257 0.959 . S
H264 C257 0.961 . S
H265 C257 0.960 . S
H266 C258 0.930 . S
H267 C259 0.929 . S
H268 C276 0.929 . S
H269 C278 0.930 . S
H270 C280 0.930 . S
H271 C283 0.929 . S
H272 C286 0.930 . S
H273 C288 0.960 . S
H274 C288 0.960 . S
H275 C288 0.960 . S
C276 H268 0.929 . S
C276 C277 1.377 . S
C276 C278 1.384 . S
C277 C276 1.377 . S
C277 C283 1.390 . S
C278 H269 0.930 . S
C278 C276 1.384 . S
C278 C279 1.372 . S
C279 C278 1.372 . S
C279 C280 1.400 . S
C279 C284 1.490 . S
C280 H270 0.930 . S
C280 C279 1.400 . S
C280 C283 1.386 . S
H281 C297 0.930 . S
H282 C298 0.931 . S
C283 H271 0.929 . S
C283 C277 1.390 . S
C283 C280 1.386 . S
C284 C279 1.490 . S
C284 C286 1.395 . S
C284 C287 1.403 . S
H285 C291 0.930 . S
C286 H272 0.930 . S
C286 C284 1.395 . S
C286 C289 1.403 . S
C287 C284 1.403 . S
C287 C288 1.524 . S
C287 C291 1.400 . S
C288 H273 0.960 . S
C288 H274 0.960 . S
C288 H275 0.960 . S
C288 C287 1.524 . S
C289 C286 1.403 . S
C289 C290 1.392 . S
C289 C293 1.495 . S
C290 C289 1.392 . S
C290 C291 1.385 . S
C290 C292 1.478 . S
C291 H285 0.930 . S
C291 C287 1.400 . S
C291 C290 1.385 . S
C292 C290 1.478 . S
C292 C294 1.381 . S
C292 C298 1.383 . S
C293 C289 1.495 . S
C293 H299 0.959 . S
C293 H300 0.961 . S
C293 H301 0.960 . S
C294 C292 1.381 . S
C294 C295 1.394 . S
C294 H302 0.930 . S
C295 C294 1.394 . S
C295 C296 1.383 . S
C295 H303 0.929 . S
C296 C295 1.383 . S
C296 C297 1.377 . S
C297 H281 0.930 . S
C297 C296 1.377 . S
C297 C298 1.379 . S
C298 H282 0.931 . S
C298 C292 1.383 . S
C298 C297 1.379 . S
H299 C293 0.959 . S
H300 C293 0.961 . S
H301 C293 0.960 . S
H302 C294 0.930 . S
H303 C295 0.929 . S
H304 C312 0.929 . S
H305 C314 0.930 . S
H306 C316 0.930 . S
H307 C319 0.929 . S
H308 C322 0.930 . S
H309 C324 0.960 . S
H310 C324 0.960 . S
H311 C324 0.960 . S
C312 H304 0.929 . S
C312 C313 1.377 . S
C312 C314 1.384 . S
C313 C312 1.377 . S
C313 C319 1.390 . S
C314 H305 0.930 . S
C314 C312 1.384 . S
C314 C315 1.372 . S
C315 C314 1.372 . S
C315 C316 1.400 . S
C315 C320 1.490 . S
C316 H306 0.930 . S
C316 C315 1.400 . S
C316 C319 1.386 . S
H317 C333 0.930 . S
H318 C334 0.931 . S
C319 H307 0.929 . S
C319 C313 1.390 . S
C319 C316 1.386 . S
C320 C315 1.490 . S
C320 C322 1.395 . S
C320 C323 1.403 . S
H321 C327 0.930 . S
C322 H308 0.930 . S
C322 C320 1.395 . S
C322 C325 1.403 . S
C323 C320 1.403 . S
C323 C324 1.524 . S
C323 C327 1.400 . S
C324 H309 0.960 . S
C324 H310 0.960 . S
C324 H311 0.960 . S
C324 C323 1.524 . S
C325 C322 1.403 . S
C325 C326 1.392 . S
C325 C329 1.495 . S
C326 C325 1.392 . S
C326 C327 1.385 . S
C326 C328 1.478 . S
C327 H321 0.930 . S
C327 C323 1.400 . S
C327 C326 1.385 . S
C328 C326 1.478 . S
C328 C330 1.381 . S
C328 C334 1.383 . S
C329 C325 1.495 . S
C329 H335 0.959 . S
C329 H336 0.961 . S
C329 H337 0.960 . S
C330 C328 1.381 . S
C330 C331 1.394 . S
C330 H338 0.930 . S
C331 C330 1.394 . S
C331 C332 1.383 . S
C331 H339 0.929 . S
C332 C331 1.383 . S
C332 C333 1.377 . S
C333 H317 0.930 . S
C333 C332 1.377 . S
C333 C334 1.379 . S
C334 H318 0.931 . S
C334 C328 1.383 . S
C334 C333 1.379 . S
H335 C329 0.959 . S
H336 C329 0.961 . S
H337 C329 0.960 . S
H338 C330 0.930 . S
H339 C331 0.929 . S
H340 C348 0.929 . S
H341 C350 0.930 . S
H342 C352 0.930 . S
H343 C355 0.929 . S
H344 C358 0.930 . S
H345 C360 0.960 . S
H346 C360 0.960 . S
H347 C360 0.960 . S
C348 H340 0.929 . S
C348 C349 1.377 . S
C348 C350 1.384 . S
C349 C348 1.377 . S
C349 C355 1.390 . S
C350 H341 0.930 . S
C350 C348 1.384 . S
C350 C351 1.372 . S
C351 C350 1.372 . S
C351 C352 1.400 . S
C351 C356 1.490 . S
C352 H342 0.930 . S
C352 C351 1.400 . S
C352 C355 1.386 . S
H353 C369 0.930 . S
H354 C370 0.931 . S
C355 H343 0.929 . S
C355 C349 1.390 . S
C355 C352 1.386 . S
C356 C351 1.490 . S
C356 C358 1.395 . S
C356 C359 1.403 . S
H357 C363 0.930 . S
C358 H344 0.930 . S
C358 C356 1.395 . S
C358 C361 1.403 . S
C359 C356 1.403 . S
C359 C360 1.524 . S
C359 C363 1.400 . S
C360 H345 0.960 . S
C360 H346 0.960 . S
C360 H347 0.960 . S
C360 C359 1.524 . S
C361 C358 1.403 . S
C361 C362 1.392 . S
C361 C365 1.495 . S
C362 C361 1.392 . S
C362 C363 1.385 . S
C362 C364 1.478 . S
C363 H357 0.930 . S
C363 C359 1.400 . S
C363 C362 1.385 . S
C364 C362 1.478 . S
C364 C366 1.381 . S
C364 C370 1.383 . S
C365 C361 1.495 . S
C365 H371 0.959 . S
C365 H372 0.961 . S
C365 H373 0.960 . S
C366 C364 1.381 . S
C366 C367 1.394 . S
C366 H374 0.930 . S
C367 C366 1.394 . S
C367 C368 1.383 . S
C367 H375 0.929 . S
C368 C367 1.383 . S
C368 C369 1.377 . S
C369 H353 0.930 . S
C369 C368 1.377 . S
C369 C370 1.379 . S
C370 H354 0.931 . S
C370 C364 1.383 . S
C370 C369 1.379 . S
H371 C365 0.959 . S
H372 C365 0.961 . S
H373 C365 0.960 . S
H374 C366 0.930 . S
H375 C367 0.929 . S
H376 C384 0.929 . S
H377 C386 0.930 . S
H378 C388 0.930 . S
H379 C391 0.929 . S
H380 C394 0.930 . S
H381 C396 0.960 . S
H382 C396 0.960 . S
H383 C396 0.960 . S
C384 H376 0.929 . S
C384 C385 1.377 . S
C384 C386 1.384 . S
C385 C384 1.377 . S
C385 C391 1.390 . S
C386 H377 0.930 . S
C386 C384 1.384 . S
C386 C387 1.372 . S
C387 C386 1.372 . S
C387 C388 1.400 . S
C387 C392 1.490 . S
C388 H378 0.930 . S
C388 C387 1.400 . S
C388 C391 1.386 . S
H389 C405 0.930 . S
H390 C406 0.931 . S
C391 H379 0.929 . S
C391 C385 1.390 . S
C391 C388 1.386 . S
C392 C387 1.490 . S
C392 C394 1.395 . S
C392 C395 1.403 . S
H393 C399 0.930 . S
C394 H380 0.930 . S
C394 C392 1.395 . S
C394 C397 1.403 . S
C395 C392 1.403 . S
C395 C396 1.524 . S
C395 C399 1.400 . S
C396 H381 0.960 . S
C396 H382 0.960 . S
C396 H383 0.960 . S
C396 C395 1.524 . S
C397 C394 1.403 . S
C397 C398 1.392 . S
C397 C401 1.495 . S
C398 C397 1.392 . S
C398 C399 1.385 . S
C398 C400 1.478 . S
C399 H393 0.930 . S
C399 C395 1.400 . S
C399 C398 1.385 . S
C400 C398 1.478 . S
C400 C402 1.381 . S
C400 C406 1.383 . S
C401 C397 1.495 . S
C401 H407 0.959 . S
C401 H408 0.961 . S
C401 H409 0.960 . S
C402 C400 1.381 . S
C402 C403 1.394 . S
C402 H410 0.930 . S
C403 C402 1.394 . S
C403 C404 1.383 . S
C403 H411 0.929 . S
C404 C403 1.383 . S
C404 C405 1.377 . S
C405 H389 0.930 . S
C405 C404 1.377 . S
C405 C406 1.379 . S
C406 H390 0.931 . S
C406 C400 1.383 . S
C406 C405 1.379 . S
H407 C401 0.959 . S
H408 C401 0.961 . S
H409 C401 0.960 . S
H410 C402 0.930 . S
H411 C403 0.929 . S
H412 C420 0.929 . S
H413 C422 0.930 . S
H414 C424 0.930 . S
H415 C427 0.929 . S
H416 C430 0.930 . S
H417 C432 0.960 . S
H418 C432 0.960 . S
H419 C432 0.960 . S
C420 H412 0.929 . S
C420 C421 1.377 . S
C420 C422 1.384 . S
C421 C420 1.377 . S
C421 C427 1.390 . S
C422 H413 0.930 . S
C422 C420 1.384 . S
C422 C423 1.372 . S
C423 C422 1.372 . S
C423 C424 1.400 . S
C423 C428 1.490 . S
C424 H414 0.930 . S
C424 C423 1.400 . S
C424 C427 1.386 . S
H425 C441 0.930 . S
H426 C442 0.931 . S
C427 H415 0.929 . S
C427 C421 1.390 . S
C427 C424 1.386 . S
C428 C423 1.490 . S
C428 C430 1.395 . S
C428 C431 1.403 . S
H429 C435 0.930 . S
C430 H416 0.930 . S
C430 C428 1.395 . S
C430 C433 1.403 . S
C431 C428 1.403 . S
C431 C432 1.524 . S
C431 C435 1.400 . S
C432 H417 0.960 . S
C432 H418 0.960 . S
C432 H419 0.960 . S
C432 C431 1.524 . S
C433 C430 1.403 . S
C433 C434 1.392 . S
C433 C437 1.495 . S
C434 C433 1.392 . S
C434 C435 1.385 . S
C434 C436 1.478 . S
C435 H429 0.930 . S
C435 C431 1.400 . S
C435 C434 1.385 . S
C436 C434 1.478 . S
C436 C438 1.381 . S
C436 C442 1.383 . S
C437 C433 1.495 . S
C437 H443 0.959 . S
C437 H444 0.961 . S
C437 H445 0.960 . S
C438 C436 1.381 . S
C438 C439 1.394 . S
C438 H446 0.930 . S
C439 C438 1.394 . S
C439 C440 1.383 . S
C439 H447 0.929 . S
C440 C439 1.383 . S
C440 C441 1.377 . S
C441 H425 0.930 . S
C441 C440 1.377 . S
C441 C442 1.379 . S
C442 H426 0.931 . S
C442 C436 1.383 . S
C442 C441 1.379 . S
H443 C437 0.959 . S
H444 C437 0.961 . S
H445 C437 0.960 . S
H446 C438 0.930 . S
H447 C439 0.929 . S
H448 C456 0.929 . S
H449 C458 0.930 . S
H450 C460 0.930 . S
H451 C463 0.929 . S
H452 C466 0.930 . S
H453 C468 0.960 . S
H454 C468 0.960 . S
H455 C468 0.960 . S
C456 H448 0.929 . S
C456 C457 1.377 . S
C456 C458 1.384 . S
C457 C456 1.377 . S
C457 C463 1.390 . S
C458 H449 0.930 . S
C458 C456 1.384 . S
C458 C459 1.372 . S
C459 C458 1.372 . S
C459 C460 1.400 . S
C459 C464 1.490 . S
C460 H450 0.930 . S
C460 C459 1.400 . S
C460 C463 1.386 . S
H461 C477 0.930 . S
H462 C478 0.931 . S
C463 H451 0.929 . S
C463 C457 1.390 . S
C463 C460 1.386 . S
C464 C459 1.490 . S
C464 C466 1.395 . S
C464 C467 1.403 . S
H465 C471 0.930 . S
C466 H452 0.930 . S
C466 C464 1.395 . S
C466 C469 1.403 . S
C467 C464 1.403 . S
C467 C468 1.524 . S
C467 C471 1.400 . S
C468 H453 0.960 . S
C468 H454 0.960 . S
C468 H455 0.960 . S
C468 C467 1.524 . S
C469 C466 1.403 . S
C469 C470 1.392 . S
C469 C473 1.495 . S
C470 C469 1.392 . S
C470 C471 1.385 . S
C470 C472 1.478 . S
C471 H465 0.930 . S
C471 C467 1.400 . S
C471 C470 1.385 . S
C472 C470 1.478 . S
C472 C474 1.381 . S
C472 C478 1.383 . S
C473 C469 1.495 . S
C473 H479 0.959 . S
C473 H480 0.961 . S
C473 H481 0.960 . S
C474 C472 1.381 . S
C474 C475 1.394 . S
C474 H482 0.930 . S
C475 C474 1.394 . S
C475 C476 1.383 . S
C475 H483 0.929 . S
C476 C475 1.383 . S
C476 C477 1.377 . S
C477 H461 0.930 . S
C477 C476 1.377 . S
C477 C478 1.379 . S
C478 H462 0.931 . S
C478 C472 1.383 . S
C478 C477 1.379 . S
H479 C473 0.959 . S
H480 C473 0.961 . S
H481 C473 0.960 . S
H482 C474 0.930 . S
H483 C475 0.929 . S
H484 C492 0.929 . S
H485 C494 0.930 . S
H486 C496 0.930 . S
H487 C499 0.929 . S
H488 C502 0.930 . S
H489 C504 0.960 . S
H490 C504 0.960 . S
H491 C504 0.960 . S
C492 H484 0.929 . S
C492 C493 1.377 . S
C492 C494 1.384 . S
C493 C492 1.377 . S
C493 C499 1.390 . S
C494 H485 0.930 . S
C494 C492 1.384 . S
C494 C495 1.372 . S
C495 C494 1.372 . S
C495 C496 1.400 . S
C495 C500 1.490 . S
C496 H486 0.930 . S
C496 C495 1.400 . S
C496 C499 1.386 . S
H497 C513 0.930 . S
H498 C514 0.931 . S
C499 H487 0.929 . S
C499 C493 1.390 . S
C499 C496 1.386 . S
C500 C495 1.490 . S
C500 C502 1.395 . S
C500 C503 1.403 . S
H501 C507 0.930 . S
C502 H488 0.930 . S
C502 C500 1.395 . S
C502 C505 1.403 . S
C503 C500 1.403 . S
C503 C504 1.524 . S
C503 C507 1.400 . S
C504 H489 0.960 . S
C504 H490 0.960 . S
C504 H491 0.960 . S
C504 C503 1.524 . S
C505 C502 1.403 . S
C505 C506 1.392 . S
C505 C509 1.495 . S
C506 C505 1.392 . S
C506 C507 1.385 . S
C506 C508 1.478 . S
C507 H501 0.930 . S
C507 C503 1.400 . S
C507 C506 1.385 . S
C508 C506 1.478 . S
C508 C510 1.381 . S
C508 C514 1.383 . S
C509 C505 1.495 . S
C509 H515 0.959 . S
C509 H516 0.961 . S
C509 H517 0.960 . S
C510 C508 1.381 . S
C510 C511 1.394 . S
C510 H518 0.930 . S
C511 C510 1.394 . S
C511 C512 1.383 . S
C511 H519 0.929 . S
C512 C511 1.383 . S
C512 C513 1.377 . S
C513 H497 0.930 . S
C513 C512 1.377 . S
C513 C514 1.379 . S
C514 H498 0.931 . S
C514 C508 1.383 . S
C514 C513 1.379 . S
H515 C509 0.959 . S
H516 C509 0.961 . S
H517 C509 0.960 . S
H518 C510 0.930 . S
H519 C511 0.929 . S
H520 C528 0.929 . S
H521 C530 0.930 . S
H522 C532 0.930 . S
H523 C535 0.929 . S
H524 C538 0.930 . S
H525 C540 0.960 . S
H526 C540 0.960 . S
H527 C540 0.960 . S
C528 H520 0.929 . S
C528 C529 1.377 . S
C528 C530 1.384 . S
C529 C528 1.377 . S
C529 C535 1.390 . S
C530 H521 0.930 . S
C530 C528 1.384 . S
C530 C531 1.372 . S
C531 C530 1.372 . S
C531 C532 1.400 . S
C531 C536 1.490 . S
C532 H522 0.930 . S
C532 C531 1.400 . S
C532 C535 1.386 . S
H533 C549 0.930 . S
H534 C550 0.931 . S
C535 H523 0.929 . S
C535 C529 1.390 . S
C535 C532 1.386 . S
C536 C531 1.490 . S
C536 C538 1.395 . S
C536 C539 1.403 . S
H537 C543 0.930 . S
C538 H524 0.930 . S
C538 C536 1.395 . S
C538 C541 1.403 . S
C539 C536 1.403 . S
C539 C540 1.524 . S
C539 C543 1.400 . S
C540 H525 0.960 . S
C540 H526 0.960 . S
C540 H527 0.960 . S
C540 C539 1.524 . S
C541 C538 1.403 . S
C541 C542 1.392 . S
C541 C545 1.495 . S
C542 C541 1.392 . S
C542 C543 1.385 . S
C542 C544 1.478 . S
C543 H537 0.930 . S
C543 C539 1.400 . S
C543 C542 1.385 . S
C544 C542 1.478 . S
C544 C546 1.381 . S
C544 C550 1.383 . S
C545 C541 1.495 . S
C545 H551 0.959 . S
C545 H552 0.961 . S
C545 H553 0.960 . S
C546 C544 1.381 . S
C546 C547 1.394 . S
C546 H554 0.930 . S
C547 C546 1.394 . S
C547 C548 1.383 . S
C547 H555 0.929 . S
C548 C547 1.383 . S
C548 C549 1.377 . S
C549 H533 0.930 . S
C549 C548 1.377 . S
C549 C550 1.379 . S
C550 H534 0.931 . S
C550 C544 1.383 . S
C550 C549 1.379 . S
H551 C545 0.959 . S
H552 C545 0.961 . S
H553 C545 0.960 . S
H554 C546 0.930 . S
H555 C547 0.929 . S
H556 C564 0.929 . S
H557 C566 0.930 . S
H558 C568 0.930 . S
H559 C571 0.929 . S
H560 C574 0.930 . S
H561 C576 0.960 . S
H562 C576 0.960 . S
H563 C576 0.960 . S
C564 H556 0.929 . S
C564 C565 1.377 . S
C564 C566 1.384 . S
C565 C564 1.377 . S
C565 C571 1.390 . S
C566 H557 0.930 . S
C566 C564 1.384 . S
C566 C567 1.372 . S
C567 C566 1.372 . S
C567 C568 1.400 . S
C567 C572 1.490 . S
C568 H558 0.930 . S
C568 C567 1.400 . S
C568 C571 1.386 . S
H569 C585 0.930 . S
H570 C586 0.931 . S
C571 H559 0.929 . S
C571 C565 1.390 . S
C571 C568 1.386 . S
C572 C567 1.490 . S
C572 C574 1.395 . S
C572 C575 1.403 . S
H573 C579 0.930 . S
C574 H560 0.930 . S
C574 C572 1.395 . S
C574 C577 1.403 . S
C575 C572 1.403 . S
C575 C576 1.524 . S
C575 C579 1.400 . S
C576 H561 0.960 . S
C576 H562 0.960 . S
C576 H563 0.960 . S
C576 C575 1.524 . S
C577 C574 1.403 . S
C577 C578 1.392 . S
C577 C581 1.495 . S
C578 C577 1.392 . S
C578 C579 1.385 . S
C578 C580 1.478 . S
C579 H573 0.930 . S
C579 C575 1.400 . S
C579 C578 1.385 . S
C580 C578 1.478 . S
C580 C582 1.381 . S
C580 C586 1.383 . S
C581 C577 1.495 . S
C581 H587 0.959 . S
C581 H588 0.961 . S
C581 H589 0.960 . S
C582 C580 1.381 . S
C582 C583 1.394 . S
C582 H590 0.930 . S
C583 C582 1.394 . S
C583 C584 1.383 . S
C583 H591 0.929 . S
C584 C583 1.383 . S
C584 C585 1.377 . S
C585 H569 0.930 . S
C585 C584 1.377 . S
C585 C586 1.379 . S
C586 H570 0.931 . S
C586 C580 1.383 . S
C586 C585 1.379 . S
H587 C581 0.959 . S
H588 C581 0.961 . S
H589 C581 0.960 . S
H590 C582 0.930 . S
H591 C583 0.929 . S
H592 C600 0.929 . S
H593 C602 0.930 . S
H594 C604 0.930 . S
H595 C607 0.929 . S
H596 C610 0.930 . S
H597 C612 0.960 . S
H598 C612 0.960 . S
H599 C612 0.960 . S
C600 H592 0.929 . S
C600 C601 1.377 . S
C600 C602 1.384 . S
C601 C600 1.377 . S
C601 C607 1.390 . S
C602 H593 0.930 . S
C602 C600 1.384 . S
C602 C603 1.372 . S
C603 C602 1.372 . S
C603 C604 1.400 . S
C603 C608 1.490 . S
C604 H594 0.930 . S
C604 C603 1.400 . S
C604 C607 1.386 . S
H605 C621 0.930 . S
H606 C622 0.931 . S
C607 H595 0.929 . S
C607 C601 1.390 . S
C607 C604 1.386 . S
C608 C603 1.490 . S
C608 C610 1.395 . S
C608 C611 1.403 . S
H609 C615 0.930 . S
C610 H596 0.930 . S
C610 C608 1.395 . S
C610 C613 1.403 . S
C611 C608 1.403 . S
C611 C612 1.524 . S
C611 C615 1.400 . S
C612 H597 0.960 . S
C612 H598 0.960 . S
C612 H599 0.960 . S
C612 C611 1.524 . S
C613 C610 1.403 . S
C613 C614 1.392 . S
C613 C617 1.495 . S
C614 C613 1.392 . S
C614 C615 1.385 . S
C614 C616 1.478 . S
C615 H609 0.930 . S
C615 C611 1.400 . S
C615 C614 1.385 . S
C616 C614 1.478 . S
C616 C618 1.381 . S
C616 C622 1.383 . S
C617 C613 1.495 . S
C617 H623 0.959 . S
C617 H624 0.961 . S
C617 H625 0.960 . S
C618 C616 1.381 . S
C618 C619 1.394 . S
C618 H626 0.930 . S
C619 C618 1.394 . S
C619 C620 1.383 . S
C619 H627 0.929 . S
C620 C619 1.383 . S
C620 C621 1.377 . S
C621 H605 0.930 . S
C621 C620 1.377 . S
C621 C622 1.379 . S
C622 H606 0.931 . S
C622 C616 1.383 . S
C622 C621 1.379 . S
H623 C617 0.959 . S
H624 C617 0.961 . S
H625 C617 0.960 . S
H626 C618 0.930 . S
H627 C619 0.929 . S
H628 C636 0.929 . S
H629 C638 0.930 . S
H630 C640 0.930 . S
H631 C643 0.929 . S
H632 C646 0.930 . S
H633 C648 0.960 . S
H634 C648 0.960 . S
H635 C648 0.960 . S
C636 H628 0.929 . S
C636 C637 1.377 . S
C636 C638 1.384 . S
C637 C636 1.377 . S
C637 C643 1.390 . S
C638 H629 0.930 . S
C638 C636 1.384 . S
C638 C639 1.372 . S
C639 C638 1.372 . S
C639 C640 1.400 . S
C639 C644 1.490 . S
C640 H630 0.930 . S
C640 C639 1.400 . S
C640 C643 1.386 . S
H641 C657 0.930 . S
H642 C658 0.931 . S
C643 H631 0.929 . S
C643 C637 1.390 . S
C643 C640 1.386 . S
C644 C639 1.490 . S
C644 C646 1.395 . S
C644 C647 1.403 . S
H645 C651 0.930 . S
C646 H632 0.930 . S
C646 C644 1.395 . S
C646 C649 1.403 . S
C647 C644 1.403 . S
C647 C648 1.524 . S
C647 C651 1.400 . S
C648 H633 0.960 . S
C648 H634 0.960 . S
C648 H635 0.960 . S
C648 C647 1.524 . S
C649 C646 1.403 . S
C649 C650 1.392 . S
C649 C653 1.495 . S
C650 C649 1.392 . S
C650 C651 1.385 . S
C650 C652 1.478 . S
C651 H645 0.930 . S
C651 C647 1.400 . S
C651 C650 1.385 . S
C652 C650 1.478 . S
C652 C654 1.381 . S
C652 C658 1.383 . S
C653 C649 1.495 . S
C653 H659 0.959 . S
C653 H660 0.961 . S
C653 H661 0.960 . S
C654 C652 1.381 . S
C654 C655 1.394 . S
C654 H662 0.930 . S
C655 C654 1.394 . S
C655 C656 1.383 . S
C655 H663 0.929 . S
C656 C655 1.383 . S
C656 C657 1.377 . S
C657 H641 0.930 . S
C657 C656 1.377 . S
C657 C658 1.379 . S
C658 H642 0.931 . S
C658 C652 1.383 . S
C658 C657 1.379 . S
H659 C653 0.959 . S
H660 C653 0.961 . S
H661 C653 0.960 . S
H662 C654 0.930 . S
H663 C655 0.929 . S
H664 C672 0.929 . S
H665 C674 0.930 . S
H666 C676 0.930 . S
H667 C679 0.929 . S
H668 C682 0.930 . S
H669 C684 0.960 . S
H670 C684 0.960 . S
H671 C684 0.960 . S
C672 H664 0.929 . S
C672 C673 1.377 . S
C672 C674 1.384 . S
C673 C672 1.377 . S
C673 C679 1.390 . S
C674 H665 0.930 . S
C674 C672 1.384 . S
C674 C675 1.372 . S
C675 C674 1.372 . S
C675 C676 1.400 . S
C675 C680 1.490 . S
C676 H666 0.930 . S
C676 C675 1.400 . S
C676 C679 1.386 . S
H677 C693 0.930 . S
H678 C694 0.931 . S
C679 H667 0.929 . S
C679 C673 1.390 . S
C679 C676 1.386 . S
C680 C675 1.490 . S
C680 C682 1.395 . S
C680 C683 1.403 . S
H681 C687 0.930 . S
C682 H668 0.930 . S
C682 C680 1.395 . S
C682 C685 1.403 . S
C683 C680 1.403 . S
C683 C684 1.524 . S
C683 C687 1.400 . S
C684 H669 0.960 . S
C684 H670 0.960 . S
C684 H671 0.960 . S
C684 C683 1.524 . S
C685 C682 1.403 . S
C685 C686 1.392 . S
C685 C689 1.495 . S
C686 C685 1.392 . S
C686 C687 1.385 . S
C686 C688 1.478 . S
C687 H681 0.930 . S
C687 C683 1.400 . S
C687 C686 1.385 . S
C688 C686 1.478 . S
C688 C690 1.381 . S
C688 C694 1.383 . S
C689 C685 1.495 . S
C689 H695 0.959 . S
C689 H696 0.961 . S
C689 H697 0.960 . S
C690 C688 1.381 . S
C690 C691 1.394 . S
C690 H698 0.930 . S
C691 C690 1.394 . S
C691 C692 1.383 . S
C691 H699 0.929 . S
C692 C691 1.383 . S
C692 C693 1.377 . S
C693 H677 0.930 . S
C693 C692 1.377 . S
C693 C694 1.379 . S
C694 H678 0.931 . S
C694 C688 1.383 . S
C694 C693 1.379 . S
H695 C689 0.959 . S
H696 C689 0.961 . S
H697 C689 0.960 . S
H698 C690 0.930 . S
H699 C691 0.929 . S
H700 C708 0.929 . S
H701 C710 0.930 . S
H702 C712 0.930 . S
H703 C715 0.929 . S
H704 C718 0.930 . S
H705 C720 0.960 . S
H706 C720 0.960 . S
H707 C720 0.960 . S
C708 H700 0.929 . S
C708 C709 1.377 . S
C708 C710 1.384 . S
C709 C708 1.377 . S
C709 C715 1.390 . S
C710 H701 0.930 . S
C710 C708 1.384 . S
C710 C711 1.372 . S
C711 C710 1.372 . S
C711 C712 1.400 . S
C711 C716 1.490 . S
C712 H702 0.930 . S
C712 C711 1.400 . S
C712 C715 1.386 . S
H713 C729 0.930 . S
H714 C730 0.931 . S
C715 H703 0.929 . S
C715 C709 1.390 . S
C715 C712 1.386 . S
C716 C711 1.490 . S
C716 C718 1.395 . S
C716 C719 1.403 . S
H717 C723 0.930 . S
C718 H704 0.930 . S
C718 C716 1.395 . S
C718 C721 1.403 . S
C719 C716 1.403 . S
C719 C720 1.524 . S
C719 C723 1.400 . S
C720 H705 0.960 . S
C720 H706 0.960 . S
C720 H707 0.960 . S
C720 C719 1.524 . S
C721 C718 1.403 . S
C721 C722 1.392 . S
C721 C725 1.495 . S
C722 C721 1.392 . S
C722 C723 1.385 . S
C722 C724 1.478 . S
C723 H717 0.930 . S
C723 C719 1.400 . S
C723 C722 1.385 . S
C724 C722 1.478 . S
C724 C726 1.381 . S
C724 C730 1.383 . S
C725 C721 1.495 . S
C725 H731 0.959 . S
C725 H732 0.961 . S
C725 H733 0.960 . S
C726 C724 1.381 . S
C726 C727 1.394 . S
C726 H734 0.930 . S
C727 C726 1.394 . S
C727 C728 1.383 . S
C727 H735 0.929 . S
C728 C727 1.383 . S
C728 C729 1.377 . S
C729 H713 0.930 . S
C729 C728 1.377 . S
C729 C730 1.379 . S
C730 H714 0.931 . S
C730 C724 1.383 . S
C730 C729 1.379 . S
H731 C725 0.959 . S
H732 C725 0.961 . S
H733 C725 0.960 . S
H734 C726 0.930 . S
H735 C727 0.929 . S
H736 C744 0.929 . S
H737 C746 0.930 . S
H738 C748 0.930 . S
H739 C751 0.929 . S
H740 C754 0.930 . S
H741 C756 0.960 . S
H742 C756 0.960 . S
H743 C756 0.960 . S
C744 H736 0.929 . S
C744 C745 1.377 . S
C744 C746 1.384 . S
C745 C744 1.377 . S
C745 C751 1.390 . S
C746 H737 0.930 . S
C746 C744 1.384 . S
C746 C747 1.372 . S
C747 C746 1.372 . S
C747 C748 1.400 . S
C747 C752 1.490 . S
C748 H738 0.930 . S
C748 C747 1.400 . S
C748 C751 1.386 . S
H749 C765 0.930 . S
H750 C766 0.931 . S
C751 H739 0.929 . S
C751 C745 1.390 . S
C751 C748 1.386 . S
C752 C747 1.490 . S
C752 C754 1.395 . S
C752 C755 1.403 . S
H753 C759 0.930 . S
C754 H740 0.930 . S
C754 C752 1.395 . S
C754 C757 1.403 . S
C755 C752 1.403 . S
C755 C756 1.524 . S
C755 C759 1.400 . S
C756 H741 0.960 . S
C756 H742 0.960 . S
C756 H743 0.960 . S
C756 C755 1.524 . S
C757 C754 1.403 . S
C757 C758 1.392 . S
C757 C761 1.495 . S
C758 C757 1.392 . S
C758 C759 1.385 . S
C758 C760 1.478 . S
C759 H753 0.930 . S
C759 C755 1.400 . S
C759 C758 1.385 . S
C760 C758 1.478 . S
C760 C762 1.381 . S
C760 C766 1.383 . S
C761 C757 1.495 . S
C761 H767 0.959 . S
C761 H768 0.961 . S
C761 H769 0.960 . S
C762 C760 1.381 . S
C762 C763 1.394 . S
C762 H770 0.930 . S
C763 C762 1.394 . S
C763 C764 1.383 . S
C763 H771 0.929 . S
C764 C763 1.383 . S
C764 C765 1.377 . S
C765 H749 0.930 . S
C765 C764 1.377 . S
C765 C766 1.379 . S
C766 H750 0.931 . S
C766 C760 1.383 . S
C766 C765 1.379 . S
H767 C761 0.959 . S
H768 C761 0.961 . S
H769 C761 0.960 . S
H770 C762 0.930 . S
H771 C763 0.929 . S
H772 C780 0.929 . S
H773 C782 0.930 . S
H774 C784 0.930 . S
H775 C787 0.929 . S
H776 C790 0.930 . S
H777 C792 0.960 . S
H778 C792 0.960 . S
H779 C792 0.960 . S
C780 H772 0.929 . S
C780 C781 1.377 . S
C780 C782 1.384 . S
C781 C780 1.377 . S
C781 C787 1.390 . S
C782 H773 0.930 . S
C782 C780 1.384 . S
C782 C783 1.372 . S
C783 C782 1.372 . S
C783 C784 1.400 . S
C783 C788 1.490 . S
C784 H774 0.930 . S
C784 C783 1.400 . S
C784 C787 1.386 . S
H785 C801 0.930 . S
H786 C802 0.931 . S
C787 H775 0.929 . S
C787 C781 1.390 . S
C787 C784 1.386 . S
C788 C783 1.490 . S
C788 C790 1.395 . S
C788 C791 1.403 . S
H789 C795 0.930 . S
C790 H776 0.930 . S
C790 C788 1.395 . S
C790 C793 1.403 . S
C791 C788 1.403 . S
C791 C792 1.524 . S
C791 C795 1.400 . S
C792 H777 0.960 . S
C792 H778 0.960 . S
C792 H779 0.960 . S
C792 C791 1.524 . S
C793 C790 1.403 . S
C793 C794 1.392 . S
C793 C797 1.495 . S
C794 C793 1.392 . S
C794 C795 1.385 . S
C794 C796 1.478 . S
C795 H789 0.930 . S
C795 C791 1.400 . S
C795 C794 1.385 . S
C796 C794 1.478 . S
C796 C798 1.381 . S
C796 C802 1.383 . S
C797 C793 1.495 . S
C797 H803 0.959 . S
C797 H804 0.961 . S
C797 H805 0.960 . S
C798 C796 1.381 . S
C798 C799 1.394 . S
C798 H806 0.930 . S
C799 C798 1.394 . S
C799 C800 1.383 . S
C799 H807 0.929 . S
C800 C799 1.383 . S
C800 C801 1.377 . S
C801 H785 0.930 . S
C801 C800 1.377 . S
C801 C802 1.379 . S
C802 H786 0.931 . S
C802 C796 1.383 . S
C802 C801 1.379 . S
H803 C797 0.959 . S
H804 C797 0.961 . S
H805 C797 0.960 . S
H806 C798 0.930 . S
H807 C799 0.929 . S
H808 C816 0.929 . S
H809 C818 0.930 . S
H810 C820 0.930 . S
H811 C823 0.929 . S
H812 C826 0.930 . S
H813 C828 0.960 . S
H814 C828 0.960 . S
H815 C828 0.960 . S
C816 H808 0.929 . S
C816 C817 1.377 . S
C816 C818 1.384 . S
C817 C816 1.377 . S
C817 C823 1.390 . S
C818 H809 0.930 . S
C818 C816 1.384 . S
C818 C819 1.372 . S
C819 C818 1.372 . S
C819 C820 1.400 . S
C819 C824 1.490 . S
C820 H810 0.930 . S
C820 C819 1.400 . S
C820 C823 1.386 . S
H821 C837 0.930 . S
H822 C838 0.931 . S
C823 H811 0.929 . S
C823 C817 1.390 . S
C823 C820 1.386 . S
C824 C819 1.490 . S
C824 C826 1.395 . S
C824 C827 1.403 . S
H825 C831 0.930 . S
C826 H812 0.930 . S
C826 C824 1.395 . S
C826 C829 1.403 . S
C827 C824 1.403 . S
C827 C828 1.524 . S
C827 C831 1.400 . S
C828 H813 0.960 . S
C828 H814 0.960 . S
C828 H815 0.960 . S
C828 C827 1.524 . S
C829 C826 1.403 . S
C829 C830 1.392 . S
C829 C833 1.495 . S
C830 C829 1.392 . S
C830 C831 1.385 . S
C830 C832 1.478 . S
C831 H825 0.930 . S
C831 C827 1.400 . S
C831 C830 1.385 . S
C832 C830 1.478 . S
C832 C834 1.381 . S
C832 C838 1.383 . S
C833 C829 1.495 . S
C833 H839 0.959 . S
C833 H840 0.961 . S
C833 H841 0.960 . S
C834 C832 1.381 . S
C834 C835 1.394 . S
C834 H842 0.930 . S
C835 C834 1.394 . S
C835 C836 1.383 . S
C835 H843 0.929 . S
C836 C835 1.383 . S
C836 C837 1.377 . S
C837 H821 0.930 . S
C837 C836 1.377 . S
C837 C838 1.379 . S
C838 H822 0.931 . S
C838 C832 1.383 . S
C838 C837 1.379 . S
H839 C833 0.959 . S
H840 C833 0.961 . S
H841 C833 0.960 . S
H842 C834 0.930 . S
H843 C835 0.929 . S
H844 C852 0.929 . S
H845 C854 0.930 . S
H846 C856 0.930 . S
H847 C859 0.929 . S
H848 C862 0.930 . S
H849 C864 0.960 . S
H850 C864 0.960 . S
H851 C864 0.960 . S
C852 H844 0.929 . S
C852 C853 1.377 . S
C852 C854 1.384 . S
C853 C852 1.377 . S
C853 C859 1.390 . S
C854 H845 0.930 . S
C854 C852 1.384 . S
C854 C855 1.372 . S
C855 C854 1.372 . S
C855 C856 1.400 . S
C855 C860 1.490 . S
C856 H846 0.930 . S
C856 C855 1.400 . S
C856 C859 1.386 . S
H857 C873 0.930 . S
H858 C874 0.931 . S
C859 H847 0.929 . S
C859 C853 1.390 . S
C859 C856 1.386 . S
C860 C855 1.490 . S
C860 C862 1.395 . S
C860 C863 1.403 . S
H861 C867 0.930 . S
C862 H848 0.930 . S
C862 C860 1.395 . S
C862 C865 1.403 . S
C863 C860 1.403 . S
C863 C864 1.524 . S
C863 C867 1.400 . S
C864 H849 0.960 . S
C864 H850 0.960 . S
C864 H851 0.960 . S
C864 C863 1.524 . S
C865 C862 1.403 . S
C865 C866 1.392 . S
C865 C869 1.495 . S
C866 C865 1.392 . S
C866 C867 1.385 . S
C866 C868 1.478 . S
C867 H861 0.930 . S
C867 C863 1.400 . S
C867 C866 1.385 . S
C868 C866 1.478 . S
C868 C870 1.381 . S
C868 C874 1.383 . S
C869 C865 1.495 . S
C869 H875 0.959 . S
C869 H876 0.961 . S
C869 H877 0.960 . S
C870 C868 1.381 . S
C870 C871 1.394 . S
C870 H878 0.930 . S
C871 C870 1.394 . S
C871 C872 1.383 . S
C871 H879 0.913 1_545 S
C872 C871 1.383 . S
C872 C873 1.377 . S
C873 H857 0.930 . S
C873 C872 1.377 . S
C873 C874 1.379 . S
C874 H858 0.931 . S
C874 C868 1.383 . S
C874 C873 1.379 . S
H875 C869 0.959 . S
H876 C869 0.961 . S
H877 C869 0.960 . S
H878 C870 0.930 . S
H879 C871 0.913 1_565 S
H880 C888 0.929 . S
H881 C890 0.930 . S
H882 C892 0.930 . S
H883 C895 0.929 . S
H884 C898 0.930 . S
H885 C900 0.960 . S
H886 C900 0.960 . S
H887 C900 0.960 . S
C888 H880 0.929 . S
C888 C889 1.377 . S
C888 C890 1.384 . S
C889 C888 1.377 . S
C889 C895 1.390 . S
C890 H881 0.930 . S
C890 C888 1.384 . S
C890 C891 1.372 . S
C891 C890 1.372 . S
C891 C892 1.400 . S
C891 C896 1.490 . S
C892 H882 0.930 . S
C892 C891 1.400 . S
C892 C895 1.386 . S
H893 C909 0.930 . S
H894 C910 0.931 . S
C895 H883 0.929 . S
C895 C889 1.390 . S
C895 C892 1.386 . S
C896 C891 1.490 . S
C896 C898 1.395 . S
C896 C899 1.403 . S
H897 C903 0.930 . S
C898 H884 0.930 . S
C898 C896 1.395 . S
C898 C901 1.403 . S
C899 C896 1.403 . S
C899 C900 1.524 . S
C899 C903 1.400 . S
C900 H885 0.960 . S
C900 H886 0.960 . S
C900 H887 0.960 . S
C900 C899 1.524 . S
C901 C898 1.403 . S
C901 C902 1.392 . S
C901 C905 1.495 . S
C902 C901 1.392 . S
C902 C903 1.385 . S
C902 C904 1.478 . S
C903 H897 0.930 . S
C903 C899 1.400 . S
C903 C902 1.385 . S
C904 C902 1.478 . S
C904 C906 1.381 . S
C904 C910 1.383 . S
C905 C901 1.495 . S
C905 H911 0.959 . S
C905 H912 0.961 . S
C905 H913 0.960 . S
C906 C904 1.381 . S
C906 C907 1.394 . S
C906 H914 0.930 . S
C907 C906 1.394 . S
C907 C908 1.383 . S
C907 H915 0.929 . S
C908 C907 1.383 . S
C908 C909 1.377 . S
C909 H893 0.930 . S
C909 C908 1.377 . S
C909 C910 1.379 . S
C910 H894 0.931 . S
C910 C904 1.383 . S
C910 C909 1.379 . S
H911 C905 0.959 . S
H912 C905 0.961 . S
H913 C905 0.960 . S
H914 C906 0.930 . S
H915 C907 0.929 . S
H916 C924 0.929 . S
H917 C926 0.930 . S
H918 C928 0.930 . S
H919 C931 0.929 . S
H920 C934 0.930 . S
H921 C936 0.960 . S
H922 C936 0.960 . S
H923 C936 0.960 . S
C924 H916 0.929 . S
C924 C925 1.377 . S
C924 C926 1.384 . S
C925 C924 1.377 . S
C925 C931 1.390 . S
C926 H917 0.930 . S
C926 C924 1.384 . S
C926 C927 1.372 . S
C927 C926 1.372 . S
C927 C928 1.400 . S
C927 C932 1.490 . S
C928 H918 0.930 . S
C928 C927 1.400 . S
C928 C931 1.386 . S
H929 C945 0.930 . S
H930 C946 0.931 . S
C931 H919 0.929 . S
C931 C925 1.390 . S
C931 C928 1.386 . S
C932 C927 1.490 . S
C932 C934 1.395 . S
C932 C935 1.403 . S
H933 C939 0.930 . S
C934 H920 0.930 . S
C934 C932 1.395 . S
C934 C937 1.403 . S
C935 C932 1.403 . S
C935 C936 1.524 . S
C935 C939 1.400 . S
C936 H921 0.960 . S
C936 H922 0.960 . S
C936 H923 0.960 . S
C936 C935 1.524 . S
C937 C934 1.403 . S
C937 C938 1.392 . S
C937 C941 1.495 . S
C938 C937 1.392 . S
C938 C939 1.385 . S
C938 C940 1.478 . S
C939 H933 0.930 . S
C939 C935 1.400 . S
C939 C938 1.385 . S
C940 C938 1.478 . S
C940 C942 1.381 . S
C940 C946 1.383 . S
C941 C937 1.495 . S
C941 H947 0.959 . S
C941 H948 0.961 . S
C941 H949 0.960 . S
C942 C940 1.381 . S
C942 C943 1.394 . S
C942 H950 0.930 . S
C943 C942 1.394 . S
C943 C944 1.383 . S
C943 H951 0.929 . S
C944 C943 1.383 . S
C944 C945 1.377 . S
C945 H929 0.930 . S
C945 C944 1.377 . S
C945 C946 1.379 . S
C946 H930 0.931 . S
C946 C940 1.383 . S
C946 C945 1.379 . S
H947 C941 0.959 . S
H948 C941 0.961 . S
H949 C941 0.960 . S
H950 C942 0.930 . S
H951 C943 0.929 . S
H952 C960 0.929 . S
H953 C962 0.930 . S
H954 C964 0.930 . S
H955 C967 0.929 . S
H956 C970 0.930 . S
H957 C972 0.960 . S
H958 C972 0.960 . S
H959 C972 0.960 . S
C960 H952 0.929 . S
C960 C961 1.377 . S
C960 C962 1.384 . S
C961 C960 1.377 . S
C961 C967 1.390 . S
C962 H953 0.930 . S
C962 C960 1.384 . S
C962 C963 1.372 . S
C963 C962 1.372 . S
C963 C964 1.400 . S
C963 C968 1.490 . S
C964 H954 0.930 . S
C964 C963 1.400 . S
C964 C967 1.386 . S
H965 C981 0.930 . S
H966 C982 0.931 . S
C967 H955 0.929 . S
C967 C961 1.390 . S
C967 C964 1.386 . S
C968 C963 1.490 . S
C968 C970 1.395 . S
C968 C971 1.403 . S
H969 C975 0.930 . S
C970 H956 0.930 . S
C970 C968 1.395 . S
C970 C973 1.403 . S
C971 C968 1.403 . S
C971 C972 1.524 . S
C971 C975 1.400 . S
C972 H957 0.960 . S
C972 H958 0.960 . S
C972 H959 0.960 . S
C972 C971 1.524 . S
C973 C970 1.403 . S
C973 C974 1.392 . S
C973 C977 1.495 . S
C974 C973 1.392 . S
C974 C975 1.385 . S
C974 C976 1.478 . S
C975 H969 0.930 . S
C975 C971 1.400 . S
C975 C974 1.385 . S
C976 C974 1.478 . S
C976 C978 1.381 . S
C976 C982 1.383 . S
C977 C973 1.495 . S
C977 H983 0.959 . S
C977 H984 0.961 . S
C977 H985 0.960 . S
C978 C976 1.381 . S
C978 C979 1.394 . S
C978 H986 0.930 . S
C979 C978 1.394 . S
C979 C980 1.383 . S
C979 H987 0.929 . S
C980 C979 1.383 . S
C980 C981 1.377 . S
C981 H965 0.930 . S
C981 C980 1.377 . S
C981 C982 1.379 . S
C982 H966 0.931 . S
C982 C976 1.383 . S
C982 C981 1.379 . S
H983 C977 0.959 . S
H984 C977 0.961 . S
H985 C977 0.960 . S
H986 C978 0.930 . S
H987 C979 0.929 . S
H988 C996 0.929 . S
H989 C998 0.930 . S
H990 C1000 0.930 . S
H991 C1003 0.929 . S
H992 C1006 0.930 . S
H993 C1008 0.960 . S
H994 C1008 0.960 . S
H995 C1008 0.960 . S
C996 H988 0.929 . S
C996 C997 1.377 . S
C996 C998 1.384 . S
C997 C996 1.377 . S
C997 C1003 1.390 . S
C998 H989 0.930 . S
C998 C996 1.384 . S
C998 C999 1.372 . S
C999 C998 1.372 . S
C999 C1000 1.400 . S
C999 C1004 1.490 . S
C1000 H990 0.930 . S
C1000 C999 1.400 . S
C1000 C1003 1.386 . S
H1001 C1017 0.930 . S
H1002 C1018 0.931 . S
C1003 H991 0.929 . S
C1003 C997 1.390 . S
C1003 C1000 1.386 . S
C1004 C999 1.490 . S
C1004 C1006 1.395 . S
C1004 C1007 1.403 . S
H1005 C1011 0.930 . S
C1006 H992 0.930 . S
C1006 C1004 1.395 . S
C1006 C1009 1.403 . S
C1007 C1004 1.403 . S
C1007 C1008 1.524 . S
C1007 C1011 1.400 . S
C1008 H993 0.960 . S
C1008 H994 0.960 . S
C1008 H995 0.960 . S
C1008 C1007 1.524 . S
C1009 C1006 1.403 . S
C1009 C1010 1.392 . S
C1009 C1013 1.495 . S
C1010 C1009 1.392 . S
C1010 C1011 1.385 . S
C1010 C1012 1.478 . S
C1011 H1005 0.930 . S
C1011 C1007 1.400 . S
C1011 C1010 1.385 . S
C1012 C1010 1.478 . S
C1012 C1014 1.381 . S
C1012 C1018 1.383 . S
C1013 C1009 1.495 . S
C1013 H1019 0.959 . S
C1013 H1020 0.961 . S
C1013 H1021 0.960 . S
C1014 C1012 1.381 . S
C1014 C1015 1.394 . S
C1014 H1022 0.930 . S
C1015 C1014 1.394 . S
C1015 C1016 1.383 . S
C1015 H1023 0.929 . S
C1016 C1015 1.383 . S
C1016 C1017 1.377 . S
C1017 H1001 0.930 . S
C1017 C1016 1.377 . S
C1017 C1018 1.379 . S
C1018 H1002 0.931 . S
C1018 C1012 1.383 . S
C1018 C1017 1.379 . S
H1019 C1013 0.959 . S
H1020 C1013 0.961 . S
H1021 C1013 0.960 . S
H1022 C1014 0.930 . S
H1023 C1015 0.929 . S
H1024 C1032 0.929 . S
H1025 C1034 0.930 . S
H1026 C1036 0.930 . S
H1027 C1039 0.929 . S
H1028 C1042 0.930 . S
H1029 C1044 0.960 . S
H1030 C1044 0.960 . S
H1031 C1044 0.960 . S
C1032 H1024 0.929 . S
C1032 C1033 1.377 . S
C1032 C1034 1.384 . S
C1033 C1032 1.377 . S
C1033 C1039 1.390 . S
C1034 H1025 0.930 . S
C1034 C1032 1.384 . S
C1034 C1035 1.372 . S
C1035 C1034 1.372 . S
C1035 C1036 1.400 . S
C1035 C1040 1.490 . S
C1036 H1026 0.930 . S
C1036 C1035 1.400 . S
C1036 C1039 1.386 . S
H1037 C1053 0.930 . S
H1038 C1054 0.931 . S
C1039 H1027 0.929 . S
C1039 C1033 1.390 . S
C1039 C1036 1.386 . S
C1040 C1035 1.490 . S
C1040 C1042 1.395 . S
C1040 C1043 1.403 . S
H1041 C1047 0.930 . S
C1042 H1028 0.930 . S
C1042 C1040 1.395 . S
C1042 C1045 1.403 . S
C1043 C1040 1.403 . S
C1043 C1044 1.524 . S
C1043 C1047 1.400 . S
C1044 H1029 0.960 . S
C1044 H1030 0.960 . S
C1044 H1031 0.960 . S
C1044 C1043 1.524 . S
C1045 C1042 1.403 . S
C1045 C1046 1.392 . S
C1045 C1049 1.495 . S
C1046 C1045 1.392 . S
C1046 C1047 1.385 . S
C1046 C1048 1.478 . S
C1047 H1041 0.930 . S
C1047 C1043 1.400 . S
C1047 C1046 1.385 . S
C1048 C1046 1.478 . S
C1048 C1050 1.381 . S
C1048 C1054 1.383 . S
C1049 C1045 1.495 . S
C1049 H1055 0.959 . S
C1049 H1056 0.961 . S
C1049 H1057 0.960 . S
C1050 C1048 1.381 . S
C1050 C1051 1.394 . S
C1050 H1058 0.930 . S
C1051 C1050 1.394 . S
C1051 C1052 1.383 . S
C1051 H1059 0.929 . S
C1052 C1051 1.383 . S
C1052 C1053 1.377 . S
C1053 H1037 0.930 . S
C1053 C1052 1.377 . S
C1053 C1054 1.379 . S
C1054 H1038 0.931 . S
C1054 C1048 1.383 . S
C1054 C1053 1.379 . S
H1055 C1049 0.959 . S
H1056 C1049 0.961 . S
H1057 C1049 0.960 . S
H1058 C1050 0.930 . S
H1059 C1051 0.929 . S
H1060 C1068 0.929 . S
H1061 C1070 0.930 . S
H1062 C1072 0.930 . S
H1063 C1075 0.929 . S
H1064 C1078 0.930 . S
H1065 C1080 0.960 . S
H1066 C1080 0.960 . S
H1067 C1080 0.960 . S
C1068 H1060 0.929 . S
C1068 C1069 1.377 . S
C1068 C1070 1.384 . S
C1069 C1068 1.377 . S
C1069 C1075 1.390 . S
C1070 H1061 0.930 . S
C1070 C1068 1.384 . S
C1070 C1071 1.372 . S
C1071 C1070 1.372 . S
C1071 C1072 1.400 . S
C1071 C1076 1.490 . S
C1072 H1062 0.930 . S
C1072 C1071 1.400 . S
C1072 C1075 1.386 . S
H1073 C1089 0.930 . S
H1074 C1090 0.931 . S
C1075 H1063 0.929 . S
C1075 C1069 1.390 . S
C1075 C1072 1.386 . S
C1076 C1071 1.490 . S
C1076 C1078 1.395 . S
C1076 C1079 1.403 . S
H1077 C1083 0.930 . S
C1078 H1064 0.930 . S
C1078 C1076 1.395 . S
C1078 C1081 1.403 . S
C1079 C1076 1.403 . S
C1079 C1080 1.524 . S
C1079 C1083 1.400 . S
C1080 H1065 0.960 . S
C1080 H1066 0.960 . S
C1080 H1067 0.960 . S
C1080 C1079 1.524 . S
C1081 C1078 1.403 . S
C1081 C1082 1.392 . S
C1081 C1085 1.495 . S
C1082 C1081 1.392 . S
C1082 C1083 1.385 . S
C1082 C1084 1.478 . S
C1083 H1077 0.930 . S
C1083 C1079 1.400 . S
C1083 C1082 1.385 . S
C1084 C1082 1.478 . S
C1084 C1086 1.381 . S
C1084 C1090 1.383 . S
C1085 C1081 1.495 . S
C1085 H1091 0.959 . S
C1085 H1092 0.961 . S
C1085 H1093 0.960 . S
C1086 C1084 1.381 . S
C1086 C1087 1.394 . S
C1086 H1094 0.930 . S
C1087 C1086 1.394 . S
C1087 C1088 1.383 . S
C1087 H1095 0.929 . S
C1088 C1087 1.383 . S
C1088 C1089 1.377 . S
C1089 H1073 0.930 . S
C1089 C1088 1.377 . S
C1089 C1090 1.379 . S
C1090 H1074 0.931 . S
C1090 C1084 1.383 . S
C1090 C1089 1.379 . S
H1091 C1085 0.959 . S
H1092 C1085 0.961 . S
H1093 C1085 0.960 . S
H1094 C1086 0.930 . S
H1095 C1087 0.929 . S
C241 C5 1.022 . S
C260 C79 1.019 . S
C277 C14 0.904 . S
C296 C128 0.886 . S
C332 C154 2.442 . S
C313 C25 2.497 . S
C349 C34 2.369 . S
C368 C202 2.309 . S
C404 C114 2.118 . S
C385 C7 2.076 . S
C440 C82 0.829 . S
C421 C13 0.831 . S
C476 C203 1.889 . S
C457 C23 1.923 . S
C512 C171 1.591 . S
C493 C31 1.605 . S
C529 C4 1.482 . S
C548 C199 1.511 . S
C584 C131 2.325 . S
C565 C22 2.387 . S
C601 C32 2.348 . S
C620 C83 2.339 . S
C637 C16 0.723 . S
C656 C168 0.724 . S
C692 C88 1.005 . S
C673 C41 1.016 . S
C709 C50 0.915 . S
C728 C119 0.932 . S
C745 C61 2.488 . S
C764 C163 2.436 . S
C781 C67 2.382 . S
C800 C211 2.341 . S
C817 C40 2.094 . S
C836 C123 2.146 . S
C872 C91 0.835 . S
C853 C52 0.796 . S
C908 C194 1.877 . S
C889 C59 1.934 . S
C944 C162 1.585 . S
C925 C70 1.602 . S
C961 C43 1.483 . S
C980 C208 1.507 . S
C1016 C122 2.320 . S
C997 C58 2.400 . S
C1052 C74 2.311 . S
C1033 C68 2.325 . S
C1069 C49 0.727 . S
C1088 C159 0.724 . S
