# Generated by pormake.
# Topology nom, (4,4)-cn, num edge types: 1
# Building blocks:
#     Node 0, Type 0, BuildingBlock: GIZVER_clean_linker_0, # of connection points: 4
#     Node 1, Type 0, BuildingBlock: GIZVER_clean_linker_0, # of connection points: 4
#     Node 2, Type 0, BuildingBlock: GIZVER_clean_linker_0, # of connection points: 4
#     Node 3, Type 0, BuildingBlock: GIZVER_clean_linker_0, # of connection points: 4
#     Node 4, Type 0, BuildingBlock: GIZVER_clean_linker_0, # of connection points: 4
#     Node 5, Type 0, BuildingBlock: GIZVER_clean_linker_0, # of connection points: 4
#     Node 6, Type 1, BuildingBlock: NAHDIM_clean_sbu_0, # of connection points: 4
#     Node 7, Type 1, BuildingBlock: NAHDIM_clean_sbu_0, # of connection points: 4
#     Node 8, Type 1, BuildingBlock: NAHDIM_clean_sbu_0, # of connection points: 4
#     Node 9, Type 1, BuildingBlock: NAHDIM_clean_sbu_0, # of connection points: 4
#     Node 10, Type 1, BuildingBlock: NAHDIM_clean_sbu_0, # of connection points: 4
#     Node 11, Type 1, BuildingBlock: NAHDIM_clean_sbu_0, # of connection points: 4
#     Edge 12, Type (0, 1), BuildingBlock: OJICUG_clean_linker_0, # of connection points: 2
#     Edge 13, Type (0, 1), BuildingBlock: OJICUG_clean_linker_0, # of connection points: 2
#     Edge 14, Type (0, 1), BuildingBlock: OJICUG_clean_linker_0, # of connection points: 2
#     Edge 15, Type (0, 1), BuildingBlock: OJICUG_clean_linker_0, # of connection points: 2
#     Edge 16, Type (0, 1), BuildingBlock: OJICUG_clean_linker_0, # of connection points: 2
#     Edge 17, Type (0, 1), BuildingBlock: OJICUG_clean_linker_0, # of connection points: 2
#     Edge 18, Type (0, 1), BuildingBlock: OJICUG_clean_linker_0, # of connection points: 2
#     Edge 19, Type (0, 1), BuildingBlock: OJICUG_clean_linker_0, # of connection points: 2
#     Edge 20, Type (0, 1), BuildingBlock: OJICUG_clean_linker_0, # of connection points: 2
#     Edge 21, Type (0, 1), BuildingBlock: OJICUG_clean_linker_0, # of connection points: 2
#     Edge 22, Type (0, 1), BuildingBlock: OJICUG_clean_linker_0, # of connection points: 2
#     Edge 23, Type (0, 1), BuildingBlock: OJICUG_clean_linker_0, # of connection points: 2
#     Edge 24, Type (0, 1), BuildingBlock: OJICUG_clean_linker_0, # of connection points: 2
#     Edge 25, Type (0, 1), BuildingBlock: OJICUG_clean_linker_0, # of connection points: 2
#     Edge 26, Type (0, 1), BuildingBlock: OJICUG_clean_linker_0, # of connection points: 2
#     Edge 27, Type (0, 1), BuildingBlock: OJICUG_clean_linker_0, # of connection points: 2
#     Edge 28, Type (0, 1), BuildingBlock: OJICUG_clean_linker_0, # of connection points: 2
#     Edge 29, Type (0, 1), BuildingBlock: OJICUG_clean_linker_0, # of connection points: 2
#     Edge 30, Type (0, 1), BuildingBlock: OJICUG_clean_linker_0, # of connection points: 2
#     Edge 31, Type (0, 1), BuildingBlock: OJICUG_clean_linker_0, # of connection points: 2
#     Edge 32, Type (0, 1), BuildingBlock: OJICUG_clean_linker_0, # of connection points: 2
#     Edge 33, Type (0, 1), BuildingBlock: OJICUG_clean_linker_0, # of connection points: 2
#     Edge 34, Type (0, 1), BuildingBlock: OJICUG_clean_linker_0, # of connection points: 2
#     Edge 35, Type (0, 1), BuildingBlock: OJICUG_clean_linker_0, # of connection points: 2
# Relax obj value: 0.022
# Max RMSD: 0.126
# Mean RMSD: 0.094
data_MOF--net-nom--node1-NAHDIM_clean_sbu_0--node2-GIZVER_clean_linker_0--edge1-OJICUG_clean_linker_0
_symmetry_space_group_name_H-M    P1
_symmetry_Int_Tables_number       1
_symmetry_cell_setting            triclinic
loop_
_symmetry_equiv_pos_as_xyz
'x, y, z'
_cell_length_a     33.391311
_cell_length_b     34.391511
_cell_length_c     35.17449
_cell_angle_alpha  90.604791
_cell_angle_beta   90.364906
_cell_angle_gamma 120.86656
loop_
_atom_site_label
_atom_site_type_symbol
_atom_site_fract_x
_atom_site_fract_y
_atom_site_fract_z
_atom_type_partial_charge
H0 H 0.97353 0.59738 0.34131 0.0
H1 H 1.00387 0.58776 0.22405 0.0
H2 H 0.87584 0.48371 0.27224 0.0
H3 H 0.03979 0.66072 0.31203 0.0
H4 H 0.04522 0.66115 0.26144 0.0
H5 H 0.06529 0.61438 0.35051 0.0
H6 H 0.1852 0.61475 0.30567 0.0
H7 H 0.10733 0.65466 0.23544 0.0
C8 C 0.96409 0.57889 0.31444 0.0
C9 C 0.92106 0.5382 0.31051 0.0
C10 C 0.99458 0.59621 0.28347 0.0
C11 C 0.98126 0.5731 0.24823 0.0
C12 C 0.93805 0.5327 0.24376 0.0
C13 C 0.90918 0.5149 0.27544 0.0
C14 C 0.04013 0.64062 0.28717 0.0
C15 C 0.08017 0.63247 0.29182 0.0
C16 C 0.08787 0.61834 0.32704 0.0
C17 C 0.12626 0.61263 0.33267 0.0
C18 C 0.15543 0.61898 0.30182 0.0
C19 C 0.14962 0.63522 0.26712 0.0
C20 C 0.11156 0.64143 0.26204 0.0
H21 H 0.39151 0.95065 0.51396 0.0
H22 H 0.43433 0.99729 0.39999 0.0
H23 H 0.42355 0.87337 0.43669 0.0
H24 H 0.38511 0.01281 0.49108 0.0
H25 H 0.38638 0.02087 0.44085 0.0
H26 H 0.46483 0.04568 0.52641 0.0
H27 H 0.56802 0.1766 0.48612 0.0
H28 H 0.44881 0.08895 0.41575 0.0
C29 C 0.40364 0.94688 0.48643 0.0
C30 C 0.40831 0.90925 0.47898 0.0
C31 C 0.41355 0.97905 0.45806 0.0
C32 C 0.42766 0.97297 0.42203 0.0
C33 C 0.43172 0.93503 0.41407 0.0
C34 C 0.42275 0.9039 0.44298 0.0
C35 C 0.40626 0.01828 0.46521 0.0
C36 C 0.45243 0.06188 0.47007 0.0
C37 C 0.47819 0.07053 0.50405 0.0
C38 C 0.52028 0.11167 0.50973 0.0
C39 C 0.53681 0.14387 0.48091 0.0
C40 C 0.51118 0.13625 0.44708 0.0
C41 C 0.46908 0.09493 0.44163 0.0
H42 H 0.39299 0.46529 0.57177 0.0
H43 H 0.43671 0.4575 0.68537 0.0
H44 H 0.4112 0.56393 0.65681 0.0
H45 H 0.3935 0.39926 0.58927 0.0
H46 H 0.38837 0.38733 0.63874 0.0
H47 H 0.47244 0.43853 0.55943 0.0
H48 H 0.57228 0.41204 0.6124 0.0
H49 H 0.45039 0.38722 0.67308 0.0
C50 C 0.40348 0.47948 0.60025 0.0
C51 C 0.40195 0.5183 0.61061 0.0
C52 C 0.41627 0.45753 0.62705 0.0
C53 C 0.42838 0.47516 0.66433 0.0
C54 C 0.42766 0.51426 0.67495 0.0
C55 C 0.41487 0.53568 0.64785 0.0
C56 C 0.41125 0.41239 0.61734 0.0
C57 C 0.4578 0.41509 0.61703 0.0
C58 C 0.48502 0.42911 0.58409 0.0
C59 C 0.52607 0.42734 0.58191 0.0
C60 C 0.54083 0.41375 0.61396 0.0
C61 C 0.51343 0.39826 0.64663 0.0
C62 C 0.47221 0.39973 0.64822 0.0
H63 H 0.94328 0.37806 0.74227 0.0
H64 H 0.99755 0.42291 0.85599 0.0
H65 H 0.86587 0.40731 0.82274 0.0
H66 H 1.01016 0.37433 0.76393 0.0
H67 H 0.02517 0.38172 0.81346 0.0
H68 H 0.03935 0.4428 0.72261 0.0
H69 H 0.16913 0.55931 0.7591 0.0
H70 H 0.0899 0.45254 0.83743 0.0
C71 C 0.94062 0.39008 0.77022 0.0
C72 C 0.90135 0.39304 0.77905 0.0
C73 C 0.97592 0.40166 0.79777 0.0
C74 C 0.97108 0.4153 0.83442 0.0
C75 C 0.93157 0.41773 0.84362 0.0
C76 C 0.8975 0.40751 0.81548 0.0
C77 C 1.01749 0.39719 0.78896 0.0
C78 C 0.05945 0.44301 0.78109 0.0
C79 C 0.06511 0.46164 0.74476 0.0
C80 C 0.10452 0.50378 0.73664 0.0
C81 C 0.13755 0.52772 0.76556 0.0
C82 C 0.13268 0.50949 0.80182 0.0
C83 C 0.09348 0.46708 0.80957 0.0
H84 H 0.64691 0.09433 0.01697 0.0
H85 H 0.59305 0.04021 0.90502 0.0
H86 H 0.61381 0.16978 0.93993 0.0
H87 H 0.64662 0.02802 -0.0045 0.0
H88 H 0.64671 0.02076 0.94516 0.0
H89 H 0.56525 0.99439 0.0272 0.0
H90 H 0.46865 0.86047 -0.01563 0.0
H91 H 0.58694 0.95137 0.9178 0.0
C92 C 0.63246 0.09647 -0.01007 0.0
C93 C 0.62942 0.13481 -0.01789 0.0
C94 C 0.61862 0.06185 0.96228 0.0
C95 C 0.60235 0.06629 0.92662 0.0
C96 C 0.60046 0.10517 0.9181 0.0
C97 C 0.61295 0.13863 0.94648 0.0
C98 C 0.62597 0.02266 0.96898 0.0
C99 C 0.58015 0.97844 0.97157 0.0
C100 C 0.55339 0.96917 0.0045 0.0
C101 C 0.51283 0.92677 0.00908 0.0
C102 C 0.49847 0.89406 -0.0201 0.0
C103 C 0.52497 0.90234 0.94695 0.0
C104 C 0.56573 0.94489 0.94279 0.0
H105 H 0.63953 0.56637 0.07833 0.0
H106 H 0.61419 0.57873 0.19643 0.0
H107 H 0.62402 0.46513 0.15705 0.0
H108 H 0.65153 0.63762 0.10341 0.0
H109 H 0.65066 0.64574 0.15356 0.0
H110 H 0.57734 0.60032 0.06578 0.0
H111 H 0.4661 0.61395 0.11213 0.0
H112 H 0.5829 0.6405 0.18287 0.0
C113 C 0.63196 0.55264 0.10673 0.0
C114 C 0.63044 0.51182 0.11399 0.0
C115 C 0.62545 0.5766 0.13638 0.0
C116 C 0.61785 0.5596 0.17342 0.0
C117 C 0.61714 0.51928 0.18117 0.0
C118 C 0.62232 0.49514 0.1511 0.0
C119 C 0.63087 0.62225 0.12946 0.0
C120 C 0.58392 0.61827 0.12526 0.0
C121 C 0.56087 0.60632 0.08975 0.0
C122 C 0.51877 0.60563 0.08449 0.0
C123 C 0.49854 0.61429 0.11584 0.0
C124 C 0.52167 0.62754 0.15114 0.0
C125 C 0.56433 0.62926 0.15587 0.0
C126 C 0.57838 0.30801 0.37801 0.0
O127 O 0.5503 0.32396 0.37407 0.0
O128 O 0.71981 0.43169 0.37712 0.0
Zn129 Zn 0.64997 0.40321 0.38048 0.0
O130 O 0.6309 0.418 0.43018 0.0
C131 C 0.64512 0.46381 0.32786 0.0
O132 O 0.6782 0.49401 0.35045 0.0
O133 O 0.62216 0.33562 0.37966 0.0
C134 C 0.61113 0.44076 0.43595 0.0
O135 O 0.60346 0.46047 0.4074 0.0
C136 C 0.75123 0.46972 0.39089 0.0
O137 O 0.73919 0.49469 0.4106 0.0
O138 O 0.62662 0.42203 0.3354 0.0
C139 C 0.33274 0.73836 0.5508 0.0
O140 O 0.35847 0.71995 0.55555 0.0
O141 O 0.30242 0.62408 0.55401 0.0
Zn142 Zn 0.25597 0.64453 0.54692 0.0
O143 O 0.22559 0.62533 0.49528 0.0
C144 C 0.18288 0.57562 0.59168 0.0
O145 O 0.18519 0.54901 0.56584 0.0
O146 O 0.28864 0.71285 0.54835 0.0
C147 C 0.18245 0.6079 0.48742 0.0
O148 O 0.1526 0.59842 0.51497 0.0
C149 C 0.29769 0.58827 0.53869 0.0
O150 O 0.26175 0.56353 0.51603 0.0
O151 O 0.20912 0.61829 0.58881 0.0
C152 C 0.56193 0.28166 0.7216 0.0
O153 O 0.52983 0.23957 0.72873 0.0
O154 O 0.69232 0.27367 0.72019 0.0
Zn155 Zn 0.62208 0.24412 0.7197 0.0
O156 O 0.59301 0.20262 0.6744 0.0
C157 C 0.60457 0.17386 0.76937 0.0
O158 O 0.62414 0.16486 0.74101 0.0
O159 O 0.604 0.29169 0.71797 0.0
C160 C 0.61533 0.19332 0.65046 0.0
O161 O 0.66061 0.21147 0.65479 0.0
C162 C 0.71982 0.31506 0.71232 0.0
O163 O 0.70233 0.33987 0.70164 0.0
O164 O 0.59846 0.20728 0.76683 0.0
C165 C 0.47186 0.73141 0.87647 0.0
O166 O 0.50296 0.71894 0.87407 0.0
O167 O 0.33734 0.59658 0.8719 0.0
Zn168 Zn 0.40764 0.63446 0.87605 0.0
O169 O 0.42914 0.62307 0.92594 0.0
C170 C 0.4154 0.57515 0.82422 0.0
O171 O 0.38322 0.54564 0.84686 0.0
O172 O 0.42878 0.70107 0.87588 0.0
C173 C 0.44966 0.60118 0.93228 0.0
O174 O 0.45837 0.58156 0.90396 0.0
C175 C 0.31045 0.61231 0.87574 0.0
O176 O 0.32846 0.65539 0.88454 0.0
O177 O 0.43329 0.61719 0.83155 0.0
C178 C 0.70475 0.41875 0.03339 0.0
O179 O 0.67998 0.37615 0.02224 0.0
O180 O 0.75141 0.33932 0.03554 0.0
Zn181 Zn 0.78816 0.40781 0.04004 0.0
O182 O 0.82342 0.42771 0.08977 0.0
C183 C 0.85668 0.412 -0.00926 0.0
O184 O 0.85365 0.38175 0.01491 0.0
O185 O 0.7482 0.4365 0.04008 0.0
C186 C 0.86732 0.45227 0.09491 0.0
O187 O 0.89523 0.46483 0.06564 0.0
C188 C 0.71485 0.31035 0.0526 0.0
O189 O 0.69512 0.32391 0.07737 0.0
O190 O 0.83217 0.43011 -0.00387 0.0
C191 C 0.4409 0.71736 0.22681 0.0
O192 O 0.40113 0.6971 0.24493 0.0
O193 O 0.35572 0.75791 0.21564 0.0
Zn194 Zn 0.42622 0.79513 0.21629 0.0
O195 O 0.44962 0.83686 0.17188 0.0
C196 C 0.43237 0.86217 0.2665 0.0
O197 O 0.40876 0.86573 0.23809 0.0
O198 O 0.45633 0.75694 0.21398 0.0
C199 C 0.42425 0.84241 0.14809 0.0
O200 O 0.37872 0.81973 0.15183 0.0
C201 C 0.32867 0.71962 0.19983 0.0
O202 O 0.34624 0.69913 0.18044 0.0
O203 O 0.44548 0.83347 0.26385 0.0
C204 C 0.20816 0.62789 0.2283 0.0
C205 C 0.18874 0.65382 0.24009 0.0
H206 H 0.26782 0.62851 0.2053 0.0
C207 C 0.21284 0.70044 0.23287 0.0
H208 H 0.1903 0.59192 0.23386 0.0
C209 C 0.25746 0.72148 0.21745 0.0
C210 C 0.27838 0.69613 0.20829 0.0
H211 H 0.19892 0.72127 0.24215 0.0
H212 H 0.27659 0.75797 0.21454 0.0
C213 C 0.25248 0.64884 0.21207 0.0
C214 C 0.57347 0.20166 0.41135 0.0
C215 C 0.52614 0.17439 0.42055 0.0
H216 H 0.62709 0.26513 0.39017 0.0
C217 C 0.49492 0.18837 0.40979 0.0
H218 H 0.5982 0.19143 0.41897 0.0
C219 C 0.51146 0.23075 0.39337 0.0
C220 C 0.55949 0.25982 0.38741 0.0
H221 H 0.45829 0.16816 0.41672 0.0
H222 H 0.48696 0.2418 0.3876 0.0
C223 C 0.58998 0.24391 0.39491 0.0
C224 C 0.33957 0.5084 0.56436 0.0
C225 C 0.38074 0.53735 0.58508 0.0
H226 H 0.28116 0.50193 0.53309 0.0
C227 C 0.39751 0.58417 0.58559 0.0
H228 H 0.32534 0.47214 0.56359 0.0
C229 C 0.37159 0.60108 0.56886 0.0
C230 C 0.32876 0.57165 0.55061 0.0
H231 H 0.42962 0.60756 0.60058 0.0
H232 H 0.38427 0.63699 0.57145 0.0
C233 C 0.31399 0.52544 0.54709 0.0
C234 C 0.84223 0.40283 0.74369 0.0
C235 C 0.86077 0.37552 0.75288 0.0
H236 H 0.78322 0.40516 0.72276 0.0
C237 C 0.83522 0.32917 0.74347 0.0
H238 H 0.8613 0.43864 0.75099 0.0
C239 C 0.79014 0.30974 0.72806 0.0
C240 C 0.77019 0.33652 0.72138 0.0
H241 H 0.84865 0.3074 0.75074 0.0
H242 H 0.77006 0.27342 0.72319 0.0
C243 C 0.7975 0.38358 0.72768 0.0
C244 C 0.46609 0.83316 0.91032 0.0
C245 C 0.51294 0.86382 0.92041 0.0
H246 H 0.41633 0.76741 0.88811 0.0
C247 C 0.54697 0.85325 0.91036 0.0
H248 H 0.43917 0.84063 0.91734 0.0
C249 C 0.53391 0.8112 0.89362 0.0
C250 C 0.48658 0.77894 0.88661 0.0
H251 H 0.5833 0.87601 0.91797 0.0
H252 H 0.56071 0.80304 0.8883 0.0
C253 C 0.45304 0.79118 0.89359 0.0
C254 C 0.61713 0.44263 0.07844 0.0
C255 C 0.64438 0.48964 0.08499 0.0
H256 H 0.61454 0.38325 0.0559 0.0
C257 C 0.68894 0.5139 0.06907 0.0
H258 H 0.58271 0.42323 0.09058 0.0
C259 C 0.70752 0.49102 0.04987 0.0
C260 C 0.68156 0.44356 0.04572 0.0
H261 H 0.7108 0.55008 0.07404 0.0
H262 H 0.74313 0.51022 0.04006 0.0
C263 C 0.63537 0.41982 0.05859 0.0
C264 C 0.42096 0.8537 0.5142 0.0
C265 C 0.39262 0.87188 0.50628 0.0
H266 H 0.42445 0.79744 0.53531 0.0
C267 C 0.34633 0.8491 0.5188 0.0
H268 H 0.45682 0.87078 0.50484 0.0
C269 C 0.3275 0.80677 0.5358 0.0
C270 C 0.35481 0.78676 0.54084 0.0
H271 H 0.3237 0.86229 0.51276 0.0
H272 H 0.29086 0.78862 0.54297 0.0
C273 C 0.40233 0.81167 0.53158 0.0
C274 C 0.48946 0.32992 0.68631 0.0
C275 C 0.52436 0.37344 0.67527 0.0
H276 H 0.47397 0.26669 0.70999 0.0
C277 C 0.57092 0.389 0.68589 0.0
H278 H 0.4533 0.31675 0.67838 0.0
C279 C 0.58288 0.36005 0.70347 0.0
C280 C 0.54845 0.31504 0.71109 0.0
H281 H 0.5985 0.42264 0.67832 0.0
H282 H 0.6194 0.37217 0.70909 0.0
C283 C 0.5014 0.30103 0.70415 0.0
C284 C 0.19099 0.57927 0.83748 0.0
C285 C 0.1721 0.53301 0.82917 0.0
H286 H 0.24937 0.64059 0.8595 0.0
C287 C 0.19615 0.51171 0.84125 0.0
H288 H 0.17303 0.59638 0.82828 0.0
C289 C 0.24024 0.53709 0.8585 0.0
C290 C 0.26069 0.58409 0.86435 0.0
H291 H 0.18247 0.47617 0.83479 0.0
H292 H 0.25923 0.5203 0.86552 0.0
C293 C 0.23472 0.60452 0.85524 0.0
C294 C 0.69903 0.20146 0.0113 0.0
C295 C 0.65031 0.17476 0.00792 0.0
H296 H 0.75772 0.26581 0.02794 0.0
C297 C 0.62274 0.19097 0.02318 0.0
H298 H 0.7209 0.18988 -0.00088 0.0
C299 C 0.64373 0.23411 0.04026 0.0
C300 C 0.69255 0.26211 0.04119 0.0
H301 H 0.58508 0.1711 0.02027 0.0
H302 H 0.62179 0.24662 0.05043 0.0
C303 C 0.71999 0.24494 0.02746 0.0
C304 C 0.53186 0.69352 0.18902 0.0
C305 C 0.50459 0.64719 0.17985 0.0
H306 H 0.53277 0.75228 0.21103 0.0
C307 C 0.45793 0.62281 0.19155 0.0
H308 H 0.56772 0.71315 0.17982 0.0
C309 C 0.438 0.64508 0.20981 0.0
C310 C 0.46417 0.69224 0.21578 0.0
H311 H 0.43615 0.58712 0.18442 0.0
H312 H 0.40126 0.62595 0.21658 0.0
C313 C 0.51172 0.71595 0.20652 0.0
C314 C 0.87289 0.55203 0.35699 0.0
C315 C 0.88506 0.52215 0.34046 0.0
H316 H 0.82065 0.55872 0.38643 0.0
C317 C 0.85673 0.4755 0.34709 0.0
H318 H 0.89388 0.58813 0.35224 0.0
C319 C 0.81448 0.45866 0.36593 0.0
C320 C 0.80008 0.48817 0.37914 0.0
H321 H 0.86565 0.45172 0.33531 0.0
H322 H 0.79192 0.42231 0.36831 0.0
C323 C 0.83076 0.53515 0.37636 0.0
C324 C 0.18744 0.62956 0.38233 0.0
C325 C 0.13995 0.60669 0.37161 0.0
H326 H 0.23784 0.64708 0.4267 0.0
C327 C 0.10636 0.58148 0.39916 0.0
H328 H 0.21448 0.6505 0.36251 0.0
C329 C 0.11999 0.58065 0.43675 0.0
C330 C 0.16746 0.60446 0.44732 0.0
H331 H 0.06953 0.56303 0.39188 0.0
H332 H 0.09338 0.56199 0.45761 0.0
C333 C 0.20098 0.62801 0.41949 0.0
C334 C 0.59297 0.1461 0.55 0.0
C335 C 0.54411 0.12445 0.54732 0.0
H336 H 0.65396 0.18451 0.58501 0.0
C337 C 0.5187 0.12111 0.57999 0.0
H338 H 0.61329 0.14894 0.52517 0.0
C339 C 0.54189 0.14184 0.61407 0.0
C340 C 0.59091 0.16595 0.61617 0.0
H341 H 0.48105 0.10498 0.57863 0.0
H342 H 0.52143 0.14046 0.63835 0.0
C343 C 0.61618 0.16644 0.58421 0.0
C344 C 0.45776 0.57595 0.72467 0.0
C345 C 0.43319 0.52947 0.71525 0.0
H346 H 0.4718 0.62698 0.76671 0.0
C347 C 0.408 0.49809 0.74365 0.0
H348 H 0.47783 0.60085 0.70339 0.0
C349 C 0.40443 0.513 0.77986 0.0
C350 C 0.42603 0.55958 0.78839 0.0
H351 H 0.3884 0.46209 0.73718 0.0
H352 H 0.38277 0.48799 0.80053 0.0
C353 C 0.45429 0.59087 0.76092 0.0
C354 C 0.90128 0.45042 0.89158 0.0
C355 C 0.92186 0.42448 0.88344 0.0
H356 H 0.86474 0.46713 0.9321 0.0
C357 C 0.92648 0.39943 0.91263 0.0
H358 H 0.89778 0.47047 0.86971 0.0
C359 C 0.90757 0.39748 0.94834 0.0
C360 C 0.88369 0.42053 0.95552 0.0
H361 H 0.94184 0.37882 0.90716 0.0
H362 H 0.90958 0.37598 0.96961 0.0
C363 C 0.88238 0.44849 0.9273 0.0
C364 C 0.44057 0.8874 0.04831 0.0
C365 C 0.48949 0.91329 0.04632 0.0
H366 H 0.38132 0.84492 0.08239 0.0
C367 C 0.51625 0.92025 0.07939 0.0
H368 H 0.41917 0.88174 0.02321 0.0
C369 C 0.49473 0.89896 0.11307 0.0
C370 C 0.446 0.87052 0.1144 0.0
H371 H 0.55402 0.93965 0.07864 0.0
H372 H 0.51648 0.90324 0.13761 0.0
C373 C 0.41896 0.86637 0.08215 0.0
C374 C 0.59347 0.45946 0.23066 0.0
C375 C 0.61787 0.50546 0.22089 0.0
H376 H 0.58266 0.41012 0.27226 0.0
C377 C 0.64763 0.53784 0.24813 0.0
H378 H 0.56994 0.43379 0.21038 0.0
C379 C 0.65491 0.52434 0.28352 0.0
C380 C 0.63262 0.47817 0.29245 0.0
H381 H 0.66739 0.57349 0.24138 0.0
H382 H 0.67948 0.55007 0.30326 0.0
C383 C 0.60074 0.44594 0.26611 0.0
C384 C 0.41529 0.92907 0.34397 0.0
C385 C 0.43931 0.92418 0.37475 0.0
H386 H 0.3945 0.91352 0.28555 0.0
C387 C 0.46566 0.9034 0.36832 0.0
H388 H 0.39428 0.94446 0.34795 0.0
C389 C 0.46511 0.8849 0.33264 0.0
C390 C 0.43858 0.88722 0.30257 0.0
H391 H 0.48523 0.89983 0.3913 0.0
H392 H 0.48416 0.86743 0.32902 0.0
C393 C 0.41508 0.91093 0.30821 0.0
C394 C 0.56699 0.40457 0.5353 0.0
C395 C 0.5502 0.43341 0.54506 0.0
H396 H 0.59982 0.38487 0.49396 0.0
C397 C 0.55488 0.46596 0.51872 0.0
H398 H 0.56272 0.378 0.55409 0.0
C399 C 0.57544 0.46915 0.48336 0.0
C400 C 0.59206 0.44013 0.47391 0.0
H401 H 0.54253 0.48882 0.52535 0.0
H402 H 0.57807 0.49409 0.4634 0.0
C403 C 0.58805 0.40822 0.50048 0.0
C404 C 0.11181 0.49168 0.6674 0.0
C405 C 0.11508 0.5207 0.69723 0.0
H406 H 0.1306 0.48633 0.61041 0.0
C407 C 0.13506 0.56715 0.69021 0.0
H408 H 0.09692 0.45578 0.67202 0.0
C409 C 0.15479 0.58476 0.65504 0.0
C410 C 0.15486 0.55622 0.62618 0.0
H411 H 0.13747 0.5902 0.71257 0.0
H412 H 0.17193 0.62101 0.65115 0.0
C413 C 0.1315 0.50928 0.63218 0.0
C414 C 0.61371 0.10502 0.84807 0.0
C415 C 0.59283 0.11471 0.87843 0.0
H416 H 0.63337 0.11576 0.78973 0.0
C417 C 0.57038 0.13912 0.87113 0.0
H418 H 0.63181 0.08681 0.85261 0.0
C419 C 0.5722 0.15664 0.8351 0.0
C420 C 0.59595 0.14955 0.80555 0.0
H421 H 0.55316 0.14641 0.8937 0.0
H422 H 0.55652 0.17714 0.83082 0.0
C423 C 0.615 0.12203 0.81197 0.0
C424 C 0.48187 0.63044 0.03591 0.0
C425 C 0.49911 0.60212 0.0457 0.0
H426 H 0.45261 0.65203 -0.00705 0.0
C427 C 0.49943 0.57273 0.01774 0.0
H428 H 0.48237 0.65457 0.05623 0.0
C429 C 0.48303 0.57195 -0.0192 0.0
C430 C 0.46581 0.60036 0.9713 0.0
H431 H 0.51234 0.55039 0.02438 0.0
H432 H 0.4839 0.5492 0.95975 0.0
C433 C 0.46513 0.62931 -0.00064 0.0
C434 C 0.87318 0.49234 0.19595 0.0
C435 C 0.9206 0.51105 0.20565 0.0
H436 H 0.81934 0.45855 0.15406 0.0
C437 C 0.95059 0.50964 0.17846 0.0
H438 H 0.84919 0.49407 0.21548 0.0
C439 C 0.93341 0.49009 0.14242 0.0
C440 C 0.88588 0.47108 0.13321 0.0
H441 H 0.98722 0.52347 0.18501 0.0
H442 H 0.95725 0.48977 0.12186 0.0
C443 C 0.85598 0.47215 0.16047 0.0
loop_
_geom_bond_atom_site_label_1
_geom_bond_atom_site_label_2
_geom_bond_distance
_geom_bond_site_symmetry_2
_ccdc_geom_bond_type
H0 C8 0.930 . S
H1 C11 0.930 . S
H2 C13 0.930 . S
H3 C14 0.970 1_655 S
H4 C14 0.970 . S
H5 C16 0.930 . S
H6 C18 0.930 . S
H7 C20 0.930 . S
C8 H0 0.930 . S
C8 C9 1.382 . S
C8 C10 1.426 . S
C9 C8 1.382 . S
C9 C13 1.389 . S
C10 C8 1.426 . S
C10 C11 1.375 . S
C10 C14 1.532 1_655 S
C11 H1 0.930 . S
C11 C10 1.375 . S
C11 C12 1.416 . S
C12 C11 1.416 . S
C12 C13 1.371 . S
C13 H2 0.930 . S
C13 C9 1.389 . S
C13 C12 1.371 . S
C14 H3 0.970 1_455 S
C14 H4 0.970 . S
C14 C10 1.532 1_455 S
C14 C15 1.499 . S
C15 C14 1.499 . S
C15 C16 1.370 . S
C15 C20 1.415 . S
C16 H5 0.930 . S
C16 C15 1.370 . S
C16 C17 1.407 . S
C17 C16 1.407 . S
C17 C18 1.365 . S
C18 H6 0.930 . S
C18 C17 1.365 . S
C18 C19 1.393 . S
C19 C18 1.393 . S
C19 C20 1.387 . S
C20 H7 0.930 . S
C20 C15 1.415 . S
C20 C19 1.387 . S
H21 C29 0.930 . S
H22 C32 0.930 . S
H23 C34 0.930 . S
H24 C35 0.971 1_565 S
H25 C35 0.970 . S
H26 C37 0.930 . S
H27 C39 0.930 . S
H28 C41 0.930 . S
C29 H21 0.930 . S
C29 C30 1.382 . S
C29 C31 1.426 . S
C30 C29 1.382 . S
C30 C34 1.389 . S
C31 C29 1.426 . S
C31 C32 1.375 . S
C31 C35 1.532 1_565 S
C32 H22 0.930 . S
C32 C31 1.375 . S
C32 C33 1.416 . S
C33 C32 1.416 . S
C33 C34 1.371 . S
C34 H23 0.930 . S
C34 C30 1.389 . S
C34 C33 1.371 . S
C35 H24 0.971 1_545 S
C35 H25 0.970 . S
C35 C31 1.532 1_545 S
C35 C36 1.499 . S
C36 C35 1.499 . S
C36 C37 1.370 . S
C36 C41 1.415 . S
C37 H26 0.930 . S
C37 C36 1.370 . S
C37 C38 1.407 . S
C38 C37 1.407 . S
C38 C39 1.365 . S
C39 H27 0.930 . S
C39 C38 1.365 . S
C39 C40 1.393 . S
C40 C39 1.393 . S
C40 C41 1.387 . S
C41 H28 0.930 . S
C41 C36 1.415 . S
C41 C40 1.387 . S
H42 C50 0.930 . S
H43 C53 0.930 . S
H44 C55 0.930 . S
H45 C56 0.970 . S
H46 C56 0.970 . S
H47 C58 0.930 . S
H48 C60 0.930 . S
H49 C62 0.930 . S
C50 H42 0.930 . S
C50 C51 1.382 . S
C50 C52 1.426 . S
C51 C50 1.382 . S
C51 C55 1.389 . S
C52 C50 1.426 . S
C52 C53 1.375 . S
C52 C56 1.532 . S
C53 H43 0.930 . S
C53 C52 1.375 . S
C53 C54 1.416 . S
C54 C53 1.416 . S
C54 C55 1.371 . S
C55 H44 0.930 . S
C55 C51 1.389 . S
C55 C54 1.371 . S
C56 H45 0.970 . S
C56 H46 0.970 . S
C56 C52 1.532 . S
C56 C57 1.499 . S
C57 C56 1.499 . S
C57 C58 1.370 . S
C57 C62 1.415 . S
C58 H47 0.930 . S
C58 C57 1.370 . S
C58 C59 1.407 . S
C59 C58 1.407 . S
C59 C60 1.365 . S
C60 H48 0.930 . S
C60 C59 1.365 . S
C60 C61 1.393 . S
C61 C60 1.393 . S
C61 C62 1.387 . S
C62 H49 0.930 . S
C62 C57 1.415 . S
C62 C61 1.387 . S
H63 C71 0.930 . S
H64 C74 0.930 . S
H65 C76 0.930 . S
H66 C77 0.970 1_655 S
H67 C77 0.970 . S
H68 C79 0.930 . S
H69 C81 0.930 . S
H70 C83 0.930 . S
C71 H63 0.930 . S
C71 C72 1.382 . S
C71 C73 1.426 . S
C72 C71 1.382 . S
C72 C76 1.389 . S
C73 C71 1.426 . S
C73 C74 1.375 . S
C73 C77 1.532 1_655 S
C74 H64 0.930 . S
C74 C73 1.375 . S
C74 C75 1.416 . S
C75 C74 1.416 . S
C75 C76 1.371 . S
C76 H65 0.930 . S
C76 C72 1.389 . S
C76 C75 1.371 . S
C77 H66 0.970 1_455 S
C77 H67 0.970 . S
C77 C73 1.532 1_455 S
C77 C78 1.499 . S
C78 C77 1.499 . S
C78 C79 1.370 . S
C78 C83 1.415 . S
C79 H68 0.930 . S
C79 C78 1.370 . S
C79 C80 1.407 . S
C80 C79 1.407 . S
C80 C81 1.365 . S
C81 H69 0.930 . S
C81 C80 1.365 . S
C81 C82 1.393 . S
C82 C81 1.393 . S
C82 C83 1.387 . S
C83 H70 0.930 . S
C83 C78 1.415 . S
C83 C82 1.387 . S
H84 C92 0.930 . S
H85 C95 0.930 . S
H86 C97 0.930 . S
H87 C98 0.970 1_554 S
H88 C98 0.970 . S
H89 C100 0.930 . S
H90 C102 0.930 . S
H91 C104 0.930 . S
C92 H84 0.930 . S
C92 C93 1.382 . S
C92 C94 1.426 1_554 S
C93 C92 1.382 . S
C93 C97 1.389 1_554 S
C94 C92 1.426 1_556 S
C94 C95 1.375 . S
C94 C98 1.532 . S
C95 H85 0.930 . S
C95 C94 1.375 . S
C95 C96 1.416 . S
C96 C95 1.416 . S
C96 C97 1.371 . S
C97 H86 0.930 . S
C97 C93 1.389 1_556 S
C97 C96 1.371 . S
C98 H87 0.970 1_556 S
C98 H88 0.970 . S
C98 C94 1.532 . S
C98 C99 1.499 1_546 S
C99 C98 1.499 1_564 S
C99 C100 1.370 . S
C99 C104 1.415 1_554 S
C100 H89 0.930 . S
C100 C99 1.370 . S
C100 C101 1.407 . S
C101 C100 1.407 . S
C101 C102 1.365 . S
C102 H90 0.930 . S
C102 C101 1.365 . S
C102 C103 1.393 1_554 S
C103 C102 1.393 1_556 S
C103 C104 1.387 . S
C104 H91 0.930 . S
C104 C99 1.415 1_556 S
C104 C103 1.387 . S
H105 C113 0.930 . S
H106 C116 0.930 . S
H107 C118 0.930 . S
H108 C119 0.970 . S
H109 C119 0.970 . S
H110 C121 0.930 . S
H111 C123 0.930 . S
H112 C125 0.930 . S
C113 H105 0.930 . S
C113 C114 1.382 . S
C113 C115 1.426 . S
C114 C113 1.382 . S
C114 C118 1.389 . S
C115 C113 1.426 . S
C115 C116 1.375 . S
C115 C119 1.532 . S
C116 H106 0.930 . S
C116 C115 1.375 . S
C116 C117 1.416 . S
C117 C116 1.416 . S
C117 C118 1.371 . S
C118 H107 0.930 . S
C118 C114 1.389 . S
C118 C117 1.371 . S
C119 H108 0.970 . S
C119 H109 0.970 . S
C119 C115 1.532 . S
C119 C120 1.499 . S
C120 C119 1.499 . S
C120 C121 1.370 . S
C120 C125 1.415 . S
C121 H110 0.930 . S
C121 C120 1.370 . S
C121 C122 1.407 . S
C122 C121 1.407 . S
C122 C123 1.365 . S
C123 H111 0.930 . S
C123 C122 1.365 . S
C123 C124 1.393 . S
C124 C123 1.393 . S
C124 C125 1.387 . S
C125 H112 0.930 . S
C125 C120 1.415 . S
C125 C124 1.387 . S
C126 O127 1.160 . S
C126 O133 1.185 . S
O127 C126 1.160 . S
O128 Zn129 1.899 . S
O128 C136 1.284 . S
Zn129 O128 1.899 . S
Zn129 O130 2.032 . S
Zn129 O133 2.086 . S
Zn129 O138 1.977 . S
O130 Zn129 2.032 . S
O130 C134 1.278 . S
C131 O132 1.203 . S
C131 O138 1.267 . S
O132 C131 1.203 . S
O133 C126 1.185 . S
O133 Zn129 2.086 . S
C134 O130 1.278 . S
C134 O135 1.211 . S
O135 C134 1.211 . S
C136 O128 1.284 . S
C136 O137 1.273 . S
O137 C136 1.273 . S
O138 Zn129 1.977 . S
O138 C131 1.267 . S
C139 O140 1.160 . S
C139 O146 1.185 . S
O140 C139 1.160 . S
O141 Zn142 1.899 . S
O141 C149 1.284 . S
Zn142 O141 1.899 . S
Zn142 O143 2.032 . S
Zn142 O146 2.086 . S
Zn142 O151 1.977 . S
O143 Zn142 2.032 . S
O143 C147 1.278 . S
C144 O145 1.203 . S
C144 O151 1.267 . S
O145 C144 1.203 . S
O146 C139 1.185 . S
O146 Zn142 2.086 . S
C147 O143 1.278 . S
C147 O148 1.211 . S
O148 C147 1.211 . S
C149 O141 1.284 . S
C149 O150 1.273 . S
O150 C149 1.273 . S
O151 Zn142 1.977 . S
O151 C144 1.267 . S
C152 O153 1.160 . S
C152 O159 1.185 . S
O153 C152 1.160 . S
O154 Zn155 1.899 . S
O154 C162 1.284 . S
Zn155 O154 1.899 . S
Zn155 O156 2.032 . S
Zn155 O159 2.086 . S
Zn155 O164 1.977 . S
O156 Zn155 2.032 . S
O156 C160 1.278 . S
C157 O158 1.203 . S
C157 O164 1.267 . S
O158 C157 1.203 . S
O159 C152 1.185 . S
O159 Zn155 2.086 . S
C160 O156 1.278 . S
C160 O161 1.211 . S
O161 C160 1.211 . S
C162 O154 1.284 . S
C162 O163 1.273 . S
O163 C162 1.273 . S
O164 Zn155 1.977 . S
O164 C157 1.267 . S
C165 O166 1.160 . S
C165 O172 1.185 . S
O166 C165 1.160 . S
O167 Zn168 1.899 . S
O167 C175 1.284 . S
Zn168 O167 1.899 . S
Zn168 O169 2.032 . S
Zn168 O172 2.086 . S
Zn168 O177 1.977 . S
O169 Zn168 2.032 . S
O169 C173 1.278 . S
C170 O171 1.203 . S
C170 O177 1.267 . S
O171 C170 1.203 . S
O172 C165 1.185 . S
O172 Zn168 2.086 . S
C173 O169 1.278 . S
C173 O174 1.211 . S
O174 C173 1.211 . S
C175 O167 1.284 . S
C175 O176 1.273 . S
O176 C175 1.273 . S
O177 Zn168 1.977 . S
O177 C170 1.267 . S
C178 O179 1.160 . S
C178 O185 1.185 . S
O179 C178 1.160 . S
O180 Zn181 1.899 . S
O180 C188 1.284 . S
Zn181 O180 1.899 . S
Zn181 O182 2.032 . S
Zn181 O185 2.086 . S
Zn181 O190 1.977 . S
O182 Zn181 2.032 . S
O182 C186 1.278 . S
C183 O184 1.202 . S
C183 O190 1.266 . S
O184 C183 1.202 . S
O185 C178 1.185 . S
O185 Zn181 2.086 . S
C186 O182 1.278 . S
C186 O187 1.211 . S
O187 C186 1.211 . S
C188 O180 1.284 . S
C188 O189 1.273 . S
O189 C188 1.273 . S
O190 Zn181 1.977 . S
O190 C183 1.266 . S
C191 O192 1.160 . S
C191 O198 1.185 . S
O192 C191 1.160 . S
O193 Zn194 1.899 . S
O193 C201 1.284 . S
Zn194 O193 1.899 . S
Zn194 O195 2.032 . S
Zn194 O198 2.086 . S
Zn194 O203 1.977 . S
O195 Zn194 2.032 . S
O195 C199 1.278 . S
C196 O197 1.203 . S
C196 O203 1.267 . S
O197 C196 1.203 . S
O198 C191 1.185 . S
O198 Zn194 2.086 . S
C199 O195 1.278 . S
C199 O200 1.211 . S
O200 C199 1.211 . S
C201 O193 1.284 . S
C201 O202 1.273 . S
O202 C201 1.273 . S
O203 Zn194 1.977 . S
O203 C196 1.267 . S
C204 C205 1.387 . S
C204 H208 0.950 . S
C204 C213 1.390 . S
C205 C204 1.387 . S
C205 C207 1.387 . S
H206 C213 0.950 . S
C207 C205 1.387 . S
C207 C209 1.390 . S
C207 H211 0.950 . S
H208 C204 0.950 . S
C209 C207 1.390 . S
C209 C210 1.387 . S
C209 H212 0.950 . S
C210 C209 1.387 . S
C210 C213 1.387 . S
H211 C207 0.950 . S
H212 C209 0.950 . S
C213 C204 1.390 . S
C213 H206 0.950 . S
C213 C210 1.387 . S
C214 C215 1.387 . S
C214 H218 0.950 . S
C214 C223 1.390 . S
C215 C214 1.387 . S
C215 C217 1.387 . S
H216 C223 0.950 . S
C217 C215 1.387 . S
C217 C219 1.390 . S
C217 H221 0.950 . S
H218 C214 0.950 . S
C219 C217 1.390 . S
C219 C220 1.387 . S
C219 H222 0.950 . S
C220 C219 1.387 . S
C220 C223 1.387 . S
H221 C217 0.950 . S
H222 C219 0.950 . S
C223 C214 1.390 . S
C223 H216 0.950 . S
C223 C220 1.387 . S
C224 C225 1.387 . S
C224 H228 0.950 . S
C224 C233 1.390 . S
C225 C224 1.387 . S
C225 C227 1.387 . S
H226 C233 0.950 . S
C227 C225 1.387 . S
C227 C229 1.390 . S
C227 H231 0.950 . S
H228 C224 0.950 . S
C229 C227 1.390 . S
C229 C230 1.387 . S
C229 H232 0.950 . S
C230 C229 1.387 . S
C230 C233 1.387 . S
H231 C227 0.950 . S
H232 C229 0.950 . S
C233 C224 1.390 . S
C233 H226 0.950 . S
C233 C230 1.387 . S
C234 C235 1.387 . S
C234 H238 0.950 . S
C234 C243 1.390 . S
C235 C234 1.387 . S
C235 C237 1.387 . S
H236 C243 0.950 . S
C237 C235 1.387 . S
C237 C239 1.390 . S
C237 H241 0.950 . S
H238 C234 0.950 . S
C239 C237 1.390 . S
C239 C240 1.387 . S
C239 H242 0.950 . S
C240 C239 1.387 . S
C240 C243 1.387 . S
H241 C237 0.950 . S
H242 C239 0.950 . S
C243 C234 1.390 . S
C243 H236 0.950 . S
C243 C240 1.387 . S
C244 C245 1.387 . S
C244 H248 0.950 . S
C244 C253 1.390 . S
C245 C244 1.387 . S
C245 C247 1.387 . S
H246 C253 0.950 . S
C247 C245 1.387 . S
C247 C249 1.390 . S
C247 H251 0.950 1_556 S
H248 C244 0.950 . S
C249 C247 1.390 . S
C249 C250 1.387 . S
C249 H252 0.950 . S
C250 C249 1.387 . S
C250 C253 1.387 . S
H251 C247 0.950 1_554 S
H252 C249 0.950 . S
C253 C244 1.390 . S
C253 H246 0.950 . S
C253 C250 1.387 . S
C254 C255 1.387 . S
C254 H258 0.950 . S
C254 C263 1.390 . S
C255 C254 1.387 . S
C255 C257 1.387 . S
H256 C263 0.950 . S
C257 C255 1.387 . S
C257 C259 1.390 . S
C257 H261 0.950 . S
H258 C254 0.950 . S
C259 C257 1.390 . S
C259 C260 1.387 . S
C259 H262 0.950 . S
C260 C259 1.387 . S
C260 C263 1.387 . S
H261 C257 0.950 . S
H262 C259 0.950 . S
C263 C254 1.390 . S
C263 H256 0.950 . S
C263 C260 1.387 . S
C264 C265 1.387 . S
C264 H268 0.950 . S
C264 C273 1.390 . S
C265 C264 1.387 . S
C265 C267 1.387 . S
H266 C273 0.950 . S
C267 C265 1.387 . S
C267 C269 1.390 . S
C267 H271 0.950 . S
H268 C264 0.950 . S
C269 C267 1.390 . S
C269 C270 1.387 . S
C269 H272 0.950 . S
C270 C269 1.387 . S
C270 C273 1.387 . S
H271 C267 0.950 . S
H272 C269 0.950 . S
C273 C264 1.390 . S
C273 H266 0.950 . S
C273 C270 1.387 . S
C274 C275 1.387 . S
C274 H278 0.950 . S
C274 C283 1.390 . S
C275 C274 1.387 . S
C275 C277 1.387 . S
H276 C283 0.950 . S
C277 C275 1.387 . S
C277 C279 1.390 . S
C277 H281 0.950 . S
H278 C274 0.950 . S
C279 C277 1.390 . S
C279 C280 1.387 . S
C279 H282 0.950 . S
C280 C279 1.387 . S
C280 C283 1.387 . S
H281 C277 0.950 . S
H282 C279 0.950 . S
C283 C274 1.390 . S
C283 H276 0.950 . S
C283 C280 1.387 . S
C284 C285 1.387 . S
C284 H288 0.950 . S
C284 C293 1.390 . S
C285 C284 1.387 . S
C285 C287 1.387 . S
H286 C293 0.950 . S
C287 C285 1.387 . S
C287 C289 1.390 . S
C287 H291 0.950 . S
H288 C284 0.950 . S
C289 C287 1.390 . S
C289 C290 1.387 . S
C289 H292 0.950 . S
C290 C289 1.387 . S
C290 C293 1.387 . S
H291 C287 0.950 . S
H292 C289 0.950 . S
C293 C284 1.390 . S
C293 H286 0.950 . S
C293 C290 1.387 . S
C294 C295 1.387 . S
C294 H298 0.950 1_554 S
C294 C303 1.390 . S
C295 C294 1.387 . S
C295 C297 1.387 . S
H296 C303 0.948 1_556 S
C297 C295 1.387 . S
C297 C299 1.390 . S
C297 H301 0.950 . S
H298 C294 0.950 1_556 S
C299 C297 1.390 . S
C299 C300 1.387 . S
C299 H302 0.950 . S
C300 C299 1.387 . S
C300 C303 1.387 . S
H301 C297 0.950 . S
H302 C299 0.950 . S
C303 C294 1.390 . S
C303 H296 0.948 1_554 S
C303 C300 1.387 . S
C304 C305 1.387 . S
C304 H308 0.950 . S
C304 C313 1.390 . S
C305 C304 1.387 . S
C305 C307 1.387 . S
H306 C313 0.950 . S
C307 C305 1.387 . S
C307 C309 1.390 . S
C307 H311 0.950 . S
H308 C304 0.950 . S
C309 C307 1.390 . S
C309 C310 1.387 . S
C309 H312 0.950 . S
C310 C309 1.387 . S
C310 C313 1.387 . S
H311 C307 0.950 . S
H312 C309 0.950 . S
C313 C304 1.390 . S
C313 H306 0.950 . S
C313 C310 1.387 . S
C314 C315 1.387 . S
C314 H318 0.950 . S
C314 C323 1.390 . S
C315 C314 1.387 . S
C315 C317 1.387 . S
H316 C323 0.950 . S
C317 C315 1.387 . S
C317 C319 1.390 . S
C317 H321 0.950 . S
H318 C314 0.950 . S
C319 C317 1.390 . S
C319 C320 1.387 . S
C319 H322 0.950 . S
C320 C319 1.387 . S
C320 C323 1.387 . S
H321 C317 0.950 . S
H322 C319 0.950 . S
C323 C314 1.390 . S
C323 H316 0.950 . S
C323 C320 1.387 . S
C324 C325 1.387 . S
C324 H328 0.950 . S
C324 C333 1.390 . S
C325 C324 1.387 . S
C325 C327 1.387 . S
H326 C333 0.950 . S
C327 C325 1.387 . S
C327 C329 1.390 . S
C327 H331 0.950 . S
H328 C324 0.950 . S
C329 C327 1.390 . S
C329 C330 1.387 . S
C329 H332 0.950 . S
C330 C329 1.387 . S
C330 C333 1.387 . S
H331 C327 0.950 . S
H332 C329 0.950 . S
C333 C324 1.390 . S
C333 H326 0.950 . S
C333 C330 1.387 . S
C334 C335 1.387 . S
C334 H338 0.950 . S
C334 C343 1.390 . S
C335 C334 1.387 . S
C335 C337 1.387 . S
H336 C343 0.950 . S
C337 C335 1.387 . S
C337 C339 1.390 . S
C337 H341 0.950 . S
H338 C334 0.950 . S
C339 C337 1.390 . S
C339 C340 1.387 . S
C339 H342 0.950 . S
C340 C339 1.387 . S
C340 C343 1.387 . S
H341 C337 0.950 . S
H342 C339 0.950 . S
C343 C334 1.390 . S
C343 H336 0.950 . S
C343 C340 1.387 . S
C344 C345 1.387 . S
C344 H348 0.950 . S
C344 C353 1.390 . S
C345 C344 1.387 . S
C345 C347 1.387 . S
H346 C353 0.950 . S
C347 C345 1.387 . S
C347 C349 1.390 . S
C347 H351 0.950 . S
H348 C344 0.950 . S
C349 C347 1.390 . S
C349 C350 1.387 . S
C349 H352 0.950 . S
C350 C349 1.387 . S
C350 C353 1.387 . S
H351 C347 0.950 . S
H352 C349 0.950 . S
C353 C344 1.390 . S
C353 H346 0.950 . S
C353 C350 1.387 . S
C354 C355 1.387 . S
C354 H358 0.950 . S
C354 C363 1.390 . S
C355 C354 1.387 . S
C355 C357 1.387 . S
H356 C363 0.950 . S
C357 C355 1.387 . S
C357 C359 1.390 . S
C357 H361 0.950 . S
H358 C354 0.950 . S
C359 C357 1.390 . S
C359 C360 1.387 . S
C359 H362 0.950 . S
C360 C359 1.387 . S
C360 C363 1.387 . S
H361 C357 0.950 . S
H362 C359 0.950 . S
C363 C354 1.390 . S
C363 H356 0.950 . S
C363 C360 1.387 . S
C364 C365 1.387 . S
C364 H368 0.950 . S
C364 C373 1.390 . S
C365 C364 1.387 . S
C365 C367 1.387 . S
H366 C373 0.950 . S
C367 C365 1.387 . S
C367 C369 1.390 . S
C367 H371 0.950 . S
H368 C364 0.950 . S
C369 C367 1.390 . S
C369 C370 1.387 . S
C369 H372 0.950 . S
C370 C369 1.387 . S
C370 C373 1.387 . S
H371 C367 0.950 . S
H372 C369 0.950 . S
C373 C364 1.390 . S
C373 H366 0.950 . S
C373 C370 1.387 . S
C374 C375 1.387 . S
C374 H378 0.950 . S
C374 C383 1.390 . S
C375 C374 1.387 . S
C375 C377 1.387 . S
H376 C383 0.950 . S
C377 C375 1.387 . S
C377 C379 1.390 . S
C377 H381 0.950 . S
H378 C374 0.950 . S
C379 C377 1.390 . S
C379 C380 1.387 . S
C379 H382 0.950 . S
C380 C379 1.387 . S
C380 C383 1.387 . S
H381 C377 0.950 . S
H382 C379 0.950 . S
C383 C374 1.390 . S
C383 H376 0.950 . S
C383 C380 1.387 . S
C384 C385 1.387 . S
C384 H388 0.950 . S
C384 C393 1.390 . S
C385 C384 1.387 . S
C385 C387 1.387 . S
H386 C393 0.950 . S
C387 C385 1.387 . S
C387 C389 1.390 . S
C387 H391 0.950 . S
H388 C384 0.950 . S
C389 C387 1.390 . S
C389 C390 1.387 . S
C389 H392 0.950 . S
C390 C389 1.387 . S
C390 C393 1.387 . S
H391 C387 0.950 . S
H392 C389 0.950 . S
C393 C384 1.390 . S
C393 H386 0.950 . S
C393 C390 1.387 . S
C394 C395 1.387 . S
C394 H398 0.950 . S
C394 C403 1.390 . S
C395 C394 1.387 . S
C395 C397 1.387 . S
H396 C403 0.950 . S
C397 C395 1.387 . S
C397 C399 1.390 . S
C397 H401 0.950 . S
H398 C394 0.950 . S
C399 C397 1.390 . S
C399 C400 1.387 . S
C399 H402 0.950 . S
C400 C399 1.387 . S
C400 C403 1.387 . S
H401 C397 0.950 . S
H402 C399 0.950 . S
C403 C394 1.390 . S
C403 H396 0.950 . S
C403 C400 1.387 . S
C404 C405 1.387 . S
C404 H408 0.950 . S
C404 C413 1.390 . S
C405 C404 1.387 . S
C405 C407 1.387 . S
H406 C413 0.950 . S
C407 C405 1.387 . S
C407 C409 1.390 . S
C407 H411 0.950 . S
H408 C404 0.950 . S
C409 C407 1.390 . S
C409 C410 1.387 . S
C409 H412 0.950 . S
C410 C409 1.387 . S
C410 C413 1.387 . S
H411 C407 0.950 . S
H412 C409 0.950 . S
C413 C404 1.390 . S
C413 H406 0.950 . S
C413 C410 1.387 . S
C414 C415 1.387 . S
C414 H418 0.950 . S
C414 C423 1.390 . S
C415 C414 1.387 . S
C415 C417 1.387 . S
H416 C423 0.950 . S
C417 C415 1.387 . S
C417 C419 1.390 . S
C417 H421 0.950 . S
H418 C414 0.950 . S
C419 C417 1.390 . S
C419 C420 1.387 . S
C419 H422 0.950 . S
C420 C419 1.387 . S
C420 C423 1.387 . S
H421 C417 0.950 . S
H422 C419 0.950 . S
C423 C414 1.390 . S
C423 H416 0.950 . S
C423 C420 1.387 . S
C424 C425 1.387 . S
C424 H428 0.950 . S
C424 C433 1.390 . S
C425 C424 1.387 . S
C425 C427 1.387 . S
H426 C433 0.950 . S
C427 C425 1.387 . S
C427 C429 1.390 1_554 S
C427 H431 0.950 . S
H428 C424 0.950 . S
C429 C427 1.390 1_556 S
C429 C430 1.387 . S
C429 H432 0.950 . S
C430 C429 1.387 . S
C430 C433 1.387 1_556 S
H431 C427 0.950 . S
H432 C429 0.950 . S
C433 C424 1.390 . S
C433 H426 0.950 . S
C433 C430 1.387 1_554 S
C434 C435 1.387 . S
C434 H438 0.950 . S
C434 C443 1.390 . S
C435 C434 1.387 . S
C435 C437 1.387 . S
H436 C443 0.950 . S
C437 C435 1.387 . S
C437 C439 1.390 . S
C437 H441 0.950 . S
H438 C434 0.950 . S
C439 C437 1.390 . S
C439 C440 1.387 . S
C439 H442 0.950 . S
C440 C439 1.387 . S
C440 C443 1.387 . S
H441 C437 0.950 . S
H442 C439 0.950 . S
C443 C434 1.390 . S
C443 H436 0.950 . S
C443 C440 1.387 . S
C210 C201 1.585 . S
C205 C19 1.489 . S
C215 C40 1.462 . S
C220 C126 1.486 . S
C225 C51 1.478 . S
C230 C149 1.607 . S
C235 C72 1.405 . S
C240 C162 1.497 . S
C250 C165 1.510 . S
C245 C103 1.484 . S
C255 C114 1.397 . S
C260 C178 1.454 . S
C265 C30 1.403 . S
C270 C139 1.460 . S
C275 C61 1.482 . S
C280 C152 1.508 . S
C285 C82 1.420 . S
C290 C175 1.493 . S
C300 C188 1.599 . S
C295 C93 1.467 . S
C310 C191 1.481 . S
C305 C124 1.458 . S
C320 C136 1.589 . S
C315 C9 1.475 . S
C325 C17 1.453 . S
C330 C147 1.480 . S
C335 C38 1.411 . S
C340 C160 1.453 . S
C350 C170 1.468 . S
C345 C54 1.422 . S
C355 C75 1.430 . S
C360 C183 1.462 1_556 S
C370 C199 1.478 . S
C365 C101 1.439 . S
C380 C131 1.447 . S
C375 C117 1.394 . S
C390 C196 1.444 . S
C385 C33 1.391 . S
C395 C59 1.437 . S
C400 C134 1.476 . S
C410 C144 1.460 . S
C405 C80 1.431 . S
C415 C96 1.419 . S
C420 C157 1.471 . S
C425 C122 1.409 . S
C430 C173 1.450 . S
C435 C12 1.449 . S
C440 C186 1.479 . S
