# Generated by pormake.
# Topology ctn, (3,4)-cn, num edge types: 1
# Building blocks:
#     Node 0, Type 0, BuildingBlock: BELTOD_clean_linker_0, # of connection points: 3
#     Node 1, Type 0, BuildingBlock: BELTOD_clean_linker_0, # of connection points: 3
#     Node 2, Type 0, BuildingBlock: BELTOD_clean_linker_0, # of connection points: 3
#     Node 3, Type 0, BuildingBlock: BELTOD_clean_linker_0, # of connection points: 3
#     Node 4, Type 0, BuildingBlock: BELTOD_clean_linker_0, # of connection points: 3
#     Node 5, Type 0, BuildingBlock: BELTOD_clean_linker_0, # of connection points: 3
#     Node 6, Type 0, BuildingBlock: BELTOD_clean_linker_0, # of connection points: 3
#     Node 7, Type 0, BuildingBlock: BELTOD_clean_linker_0, # of connection points: 3
#     Node 8, Type 0, BuildingBlock: BELTOD_clean_linker_0, # of connection points: 3
#     Node 9, Type 0, BuildingBlock: BELTOD_clean_linker_0, # of connection points: 3
#     Node 10, Type 0, BuildingBlock: BELTOD_clean_linker_0, # of connection points: 3
#     Node 11, Type 0, BuildingBlock: BELTOD_clean_linker_0, # of connection points: 3
#     Node 12, Type 0, BuildingBlock: BELTOD_clean_linker_0, # of connection points: 3
#     Node 13, Type 0, BuildingBlock: BELTOD_clean_linker_0, # of connection points: 3
#     Node 14, Type 0, BuildingBlock: BELTOD_clean_linker_0, # of connection points: 3
#     Node 15, Type 0, BuildingBlock: BELTOD_clean_linker_0, # of connection points: 3
#     Node 16, Type 1, BuildingBlock: KUFVIS_clean_sbu_0, # of connection points: 4
#     Node 17, Type 1, BuildingBlock: KUFVIS_clean_sbu_0, # of connection points: 4
#     Node 18, Type 1, BuildingBlock: KUFVIS_clean_sbu_0, # of connection points: 4
#     Node 19, Type 1, BuildingBlock: KUFVIS_clean_sbu_0, # of connection points: 4
#     Node 20, Type 1, BuildingBlock: KUFVIS_clean_sbu_0, # of connection points: 4
#     Node 21, Type 1, BuildingBlock: KUFVIS_clean_sbu_0, # of connection points: 4
#     Node 22, Type 1, BuildingBlock: KUFVIS_clean_sbu_0, # of connection points: 4
#     Node 23, Type 1, BuildingBlock: KUFVIS_clean_sbu_0, # of connection points: 4
#     Node 24, Type 1, BuildingBlock: KUFVIS_clean_sbu_0, # of connection points: 4
#     Node 25, Type 1, BuildingBlock: KUFVIS_clean_sbu_0, # of connection points: 4
#     Node 26, Type 1, BuildingBlock: KUFVIS_clean_sbu_0, # of connection points: 4
#     Node 27, Type 1, BuildingBlock: KUFVIS_clean_sbu_0, # of connection points: 4
#     Edge 28, Type (0, 1), BuildingBlock: AJUNOK_clean_linker_0, # of connection points: 2
#     Edge 29, Type (0, 1), BuildingBlock: AJUNOK_clean_linker_0, # of connection points: 2
#     Edge 30, Type (0, 1), BuildingBlock: AJUNOK_clean_linker_0, # of connection points: 2
#     Edge 31, Type (0, 1), BuildingBlock: AJUNOK_clean_linker_0, # of connection points: 2
#     Edge 32, Type (0, 1), BuildingBlock: AJUNOK_clean_linker_0, # of connection points: 2
#     Edge 33, Type (0, 1), BuildingBlock: AJUNOK_clean_linker_0, # of connection points: 2
#     Edge 34, Type (0, 1), BuildingBlock: AJUNOK_clean_linker_0, # of connection points: 2
#     Edge 35, Type (0, 1), BuildingBlock: AJUNOK_clean_linker_0, # of connection points: 2
#     Edge 36, Type (0, 1), BuildingBlock: AJUNOK_clean_linker_0, # of connection points: 2
#     Edge 37, Type (0, 1), BuildingBlock: AJUNOK_clean_linker_0, # of connection points: 2
#     Edge 38, Type (0, 1), BuildingBlock: AJUNOK_clean_linker_0, # of connection points: 2
#     Edge 39, Type (0, 1), BuildingBlock: AJUNOK_clean_linker_0, # of connection points: 2
#     Edge 40, Type (0, 1), BuildingBlock: AJUNOK_clean_linker_0, # of connection points: 2
#     Edge 41, Type (0, 1), BuildingBlock: AJUNOK_clean_linker_0, # of connection points: 2
#     Edge 42, Type (0, 1), BuildingBlock: AJUNOK_clean_linker_0, # of connection points: 2
#     Edge 43, Type (0, 1), BuildingBlock: AJUNOK_clean_linker_0, # of connection points: 2
#     Edge 44, Type (0, 1), BuildingBlock: AJUNOK_clean_linker_0, # of connection points: 2
#     Edge 45, Type (0, 1), BuildingBlock: AJUNOK_clean_linker_0, # of connection points: 2
#     Edge 46, Type (0, 1), BuildingBlock: AJUNOK_clean_linker_0, # of connection points: 2
#     Edge 47, Type (0, 1), BuildingBlock: AJUNOK_clean_linker_0, # of connection points: 2
#     Edge 48, Type (0, 1), BuildingBlock: AJUNOK_clean_linker_0, # of connection points: 2
#     Edge 49, Type (0, 1), BuildingBlock: AJUNOK_clean_linker_0, # of connection points: 2
#     Edge 50, Type (0, 1), BuildingBlock: AJUNOK_clean_linker_0, # of connection points: 2
#     Edge 51, Type (0, 1), BuildingBlock: AJUNOK_clean_linker_0, # of connection points: 2
#     Edge 52, Type (0, 1), BuildingBlock: AJUNOK_clean_linker_0, # of connection points: 2
#     Edge 53, Type (0, 1), BuildingBlock: AJUNOK_clean_linker_0, # of connection points: 2
#     Edge 54, Type (0, 1), BuildingBlock: AJUNOK_clean_linker_0, # of connection points: 2
#     Edge 55, Type (0, 1), BuildingBlock: AJUNOK_clean_linker_0, # of connection points: 2
#     Edge 56, Type (0, 1), BuildingBlock: AJUNOK_clean_linker_0, # of connection points: 2
#     Edge 57, Type (0, 1), BuildingBlock: AJUNOK_clean_linker_0, # of connection points: 2
#     Edge 58, Type (0, 1), BuildingBlock: AJUNOK_clean_linker_0, # of connection points: 2
#     Edge 59, Type (0, 1), BuildingBlock: AJUNOK_clean_linker_0, # of connection points: 2
#     Edge 60, Type (0, 1), BuildingBlock: AJUNOK_clean_linker_0, # of connection points: 2
#     Edge 61, Type (0, 1), BuildingBlock: AJUNOK_clean_linker_0, # of connection points: 2
#     Edge 62, Type (0, 1), BuildingBlock: AJUNOK_clean_linker_0, # of connection points: 2
#     Edge 63, Type (0, 1), BuildingBlock: AJUNOK_clean_linker_0, # of connection points: 2
#     Edge 64, Type (0, 1), BuildingBlock: AJUNOK_clean_linker_0, # of connection points: 2
#     Edge 65, Type (0, 1), BuildingBlock: AJUNOK_clean_linker_0, # of connection points: 2
#     Edge 66, Type (0, 1), BuildingBlock: AJUNOK_clean_linker_0, # of connection points: 2
#     Edge 67, Type (0, 1), BuildingBlock: AJUNOK_clean_linker_0, # of connection points: 2
#     Edge 68, Type (0, 1), BuildingBlock: AJUNOK_clean_linker_0, # of connection points: 2
#     Edge 69, Type (0, 1), BuildingBlock: AJUNOK_clean_linker_0, # of connection points: 2
#     Edge 70, Type (0, 1), BuildingBlock: AJUNOK_clean_linker_0, # of connection points: 2
#     Edge 71, Type (0, 1), BuildingBlock: AJUNOK_clean_linker_0, # of connection points: 2
#     Edge 72, Type (0, 1), BuildingBlock: AJUNOK_clean_linker_0, # of connection points: 2
#     Edge 73, Type (0, 1), BuildingBlock: AJUNOK_clean_linker_0, # of connection points: 2
#     Edge 74, Type (0, 1), BuildingBlock: AJUNOK_clean_linker_0, # of connection points: 2
#     Edge 75, Type (0, 1), BuildingBlock: AJUNOK_clean_linker_0, # of connection points: 2
# Relax obj value: 0.013
# Max RMSD: 0.066
# Mean RMSD: 0.034
data_MOF--net-ctn--node1-KUFVIS_clean_sbu_0--node2-BELTOD_clean_linker_0--edge1-AJUNOK_clean_linker_0
_symmetry_space_group_name_H-M    P1
_symmetry_Int_Tables_number       1
_symmetry_cell_setting            triclinic
loop_
_symmetry_equiv_pos_as_xyz
'x, y, z'
_cell_length_a     46.810322
_cell_length_b     47.0579
_cell_length_c     46.874827
_cell_angle_alpha  90.335293
_cell_angle_beta   90.36038
_cell_angle_gamma 92.45965
loop_
_atom_site_label
_atom_site_type_symbol
_atom_site_fract_x
_atom_site_fract_y
_atom_site_fract_z
_atom_type_partial_charge
P0 P 0.06876 0.07275 0.072 0.0
H1 H 0.07118 0.05845 0.13236 0.0
H2 H 0.03586 0.03841 0.16571 0.0
H3 H 0.97189 0.03621 0.09898 0.0
H4 H 0.00758 0.05586 0.06531 0.0
H5 H 0.09812 0.06469 0.01695 0.0
H6 H 0.12943 0.02815 0.99977 0.0
H7 H 0.11976 0.98421 0.08005 0.0
H8 H 0.08677 0.01921 0.09592 0.0
H9 H 0.0562 0.13263 0.07438 0.0
H10 H 0.04445 0.06378 0.01378 0.0
O11 O 0.09228 0.09284 0.09098 0.0
H12 H 0.03611 0.1654 0.04008 0.0
H13 H 0.02485 0.09683 0.979 0.0
C14 C 0.04197 0.0589 0.0964 0.0
C15 C 0.04957 0.05373 0.12483 0.0
C16 C 0.02945 0.04213 0.14385 0.0
C17 C 1.00125 0.03566 0.13483 0.0
C18 C 0.99352 0.04108 0.10641 0.0
C19 C 0.01386 0.05232 0.08722 0.0
C20 C 0.0888 0.04413 0.05723 0.0
C21 C 0.10168 0.04652 0.03035 0.0
C22 C 0.12007 0.0258 0.02074 0.0
C23 C 0.1268 1.00272 0.03823 0.0
C24 C 0.11423 1.0008 0.06537 0.0
C25 C 0.09536 0.0211 0.07462 0.0
C26 C 0.05284 0.09596 0.04629 0.0
C27 C 0.04951 0.12458 0.0536 0.0
C28 C 0.03789 0.14329 0.03406 0.0
C29 C 0.0294 0.13376 0.00674 0.0
C30 C 0.0318 0.10484 0.99973 0.0
C31 C 0.04307 0.08598 0.01953 0.0
P32 P 0.33747 0.68477 0.18758 0.0
H33 H 0.3689 0.71905 0.14607 0.0
H34 H 0.35757 0.7613 0.11894 0.0
H35 H 0.27696 0.76474 0.16299 0.0
H36 H 0.28923 0.72327 0.19117 0.0
H37 H 0.3968 0.67244 0.20118 0.0
H38 H 0.42688 0.68199 0.24314 0.0
H39 H 0.35733 0.7234 0.28405 0.0
H40 H 0.3273 0.71415 0.24154 0.0
H41 H 0.27989 0.67602 0.16242 0.0
H42 H 0.32755 0.64406 0.23354 0.0
O43 O 0.35546 0.66516 0.16463 0.0
H44 H 0.23945 0.64361 0.17417 0.0
H45 H 0.28798 0.61066 0.24439 0.0
C46 C 0.32947 0.71746 0.16991 0.0
C47 C 0.3489 0.72905 0.15008 0.0
C48 C 0.34237 0.7532 0.13455 0.0
C49 C 0.31625 0.76632 0.13857 0.0
C50 C 0.29741 0.75543 0.15955 0.0
C51 C 0.30419 0.73142 0.17539 0.0
C52 C 0.3598 0.69257 0.2183 0.0
C53 C 0.38793 0.68353 0.21915 0.0
C54 C 0.40504 0.68871 0.2433 0.0
C55 C 0.39428 0.70293 0.26711 0.0
C56 C 0.36613 0.71225 0.26607 0.0
C57 C 0.34901 0.70706 0.24183 0.0
C58 C 0.30638 0.66329 0.19774 0.0
C59 C 0.28152 0.66239 0.18083 0.0
C60 C 0.25861 0.64344 0.18723 0.0
C61 C 0.2606 0.62434 0.21006 0.0
C62 C 0.2856 0.62531 0.22688 0.0
C63 C 0.30827 0.64449 0.22071 0.0
P64 P 0.9866 0.49663 0.02648 0.0
H65 H 0.98367 0.47706 0.96744 0.0
H66 H 0.98261 0.42975 0.94529 0.0
H67 H 0.98134 0.39146 0.02878 0.0
H68 H 0.98185 0.43885 0.05081 0.0
H69 H 0.97509 0.55672 0.02903 0.0
H70 H 0.93123 0.58305 0.02754 0.0
H71 H 0.88128 0.50388 0.02217 0.0
H72 H 0.92552 0.47754 0.02321 0.0
H73 H 0.04117 0.47757 0.04701 0.0
H74 H 0.96672 0.51408 0.08361 0.0
O75 O 0.00982 0.5154 0.00643 0.0
H76 H 0.06529 0.48045 0.09345 0.0
H77 H 0.99066 0.51672 0.13023 0.0
C78 C 0.98311 0.4615 0.01075 0.0
C79 C 0.98295 0.45847 0.98098 0.0
C80 C 0.98254 0.43144 0.96834 0.0
C81 C 0.98198 0.40685 0.98526 0.0
C82 C 0.98146 0.40996 0.01515 0.0
C83 C 0.98188 0.43706 0.02777 0.0
C84 C 0.9536 0.51521 0.02593 0.0
C85 C 0.95471 0.54499 0.02751 0.0
C86 C 0.92959 0.56003 0.0269 0.0
C87 C 0.90274 0.54556 0.025 0.0
C88 C 0.90166 0.51563 0.02354 0.0
C89 C 0.9269 0.50055 0.02419 0.0
C90 C 1.0022 0.49564 0.06178 0.0
C91 C 0.02984 0.48575 0.06517 0.0
C92 C 0.04353 0.48723 0.09178 0.0
C93 C 0.02979 0.4986 0.11559 0.0
C94 C 1.00179 0.5079 0.11226 0.0
C95 C 0.98807 0.50634 0.0856 0.0
P96 P 0.67281 0.83954 0.1838 0.0
H97 H 0.73091 0.84724 0.15989 0.0
H98 H 0.77235 0.87776 0.17396 0.0
H99 H 0.72386 0.91087 0.24388 0.0
H100 H 0.68382 0.87885 0.23134 0.0
H101 H 0.63809 0.80884 0.14148 0.0
H102 H 0.64665 0.7687 0.10997 0.0
H103 H 0.72956 0.75986 0.14906 0.0
H104 H 0.7201 0.79929 0.1818 0.0
H105 H 0.6288 0.8711 0.21206 0.0
H106 H 0.66796 0.79055 0.22265 0.0
O107 O 0.65526 0.86125 0.16255 0.0
H108 H 0.59873 0.86137 0.25349 0.0
H109 H 0.63689 0.78004 0.26361 0.0
C110 C 0.70465 0.85948 0.19543 0.0
C111 C 0.72963 0.86015 0.17898 0.0
C112 C 0.75316 0.87802 0.18674 0.0
C113 C 0.75175 0.89628 0.21052 0.0
C114 C 0.7263 0.8962 0.22628 0.0
C115 C 0.70316 0.87788 0.21895 0.0
C116 C 0.67898 0.80788 0.16311 0.0
C117 C 0.65811 0.79825 0.14337 0.0
C118 C 0.66311 0.7754 0.12522 0.0
C119 C 0.68926 0.7618 0.12623 0.0
C120 C 0.70939 0.77021 0.14743 0.0
C121 C 0.70414 0.79292 0.16595 0.0
C122 C 0.65013 0.83125 0.21386 0.0
C123 C 0.63058 0.85107 0.22304 0.0
C124 C 0.61331 0.84544 0.2467 0.0
C125 C 0.61494 0.81965 0.26149 0.0
C126 C 0.63506 0.80007 0.25262 0.0
C127 C 0.65264 0.80591 0.22907 0.0
P128 P 0.06318 0.94486 0.46233 0.0
H129 H 0.12496 0.94285 0.47009 0.0
H130 H 0.16154 0.97787 0.48634 0.0
H131 H 0.09634 0.03788 0.50271 0.0
H132 H 0.05952 1.00255 0.48625 0.0
H133 H 0.00795 0.91258 0.46516 0.0
H134 H 0.98774 0.87976 0.5005 0.0
H135 H 0.06172 0.89666 0.5546 0.0
H136 H 0.08042 0.93123 0.5204 0.0
H137 H 0.07241 0.96277 0.40415 0.0
H138 H 1.00383 0.96524 0.46493 0.0
O139 O 0.08042 0.92058 0.44383 0.0
H140 H 0.0405 0.97855 0.36663 0.0
H141 H 0.97125 0.97984 0.427 0.0
C142 C 0.08959 0.9704 0.47624 0.0
C143 C 0.11844 0.96355 0.47706 0.0
C144 C 0.13937 0.98358 0.48634 0.0
C145 C 0.13185 0.01085 0.49509 0.0
C146 C 0.10275 0.01715 0.49574 0.0
C147 C 0.08175 0.99707 0.48627 0.0
C148 C 0.04522 0.92531 0.49051 0.0
C149 C 0.01921 0.91021 0.48519 0.0
C150 C 0.00799 0.89081 0.50517 0.0
C151 C 0.0233 0.88505 0.53028 0.0
C152 C 0.04908 0.90072 0.53574 0.0
C153 C 0.05987 0.9206 0.5161 0.0
C154 C 0.04019 0.9617 0.43702 0.0
C155 C 0.05049 0.96691 0.40947 0.0
C156 C 0.03223 0.97593 0.38803 0.0
C157 C 1.00323 0.97998 0.3937 0.0
C158 C 0.99348 0.97698 0.42193 0.0
C159 C 0.01198 0.96821 0.44355 0.0
P160 P 0.22172 0.72155 0.81052 0.0
H161 H 0.24869 0.71045 0.86619 0.0
H162 H 0.24759 0.7357 0.91159 0.0
H163 H 0.18415 0.79047 0.87749 0.0
H164 H 0.18364 0.76369 0.83298 0.0
H165 H 0.26557 0.70287 0.77204 0.0
H166 H 0.29484 0.6614 0.77073 0.0
H167 H 0.24931 0.62624 0.84308 0.0
H168 H 0.21923 0.66797 0.84387 0.0
H169 H 0.19201 0.7637 0.77825 0.0
H170 H 0.17854 0.67497 0.79891 0.0
O171 O 0.2427 0.74663 0.79528 0.0
H172 H 0.14822 0.76196 0.74988 0.0
H173 H 0.13471 0.67288 0.76949 0.0
C174 C 0.21581 0.73465 0.84615 0.0
C175 C 0.23361 0.72703 0.86877 0.0
C176 C 0.23344 0.74201 0.89462 0.0
C177 C 0.21654 0.76583 0.89785 0.0
C178 C 0.19752 0.77233 0.87576 0.0
C179 C 0.19722 0.75693 0.85017 0.0
C180 C 0.24087 0.68903 0.80869 0.0
C181 C 0.26181 0.68637 0.78774 0.0
C182 C 0.27873 0.66269 0.78712 0.0
C183 C 0.27512 0.64106 0.80748 0.0
C184 C 0.25293 0.64285 0.82746 0.0
C185 C 0.23581 0.66666 0.82797 0.0
C186 C 0.18888 0.71932 0.79019 0.0
C187 C 0.17974 0.74372 0.77647 0.0
C188 C 0.15473 0.74269 0.76014 0.0
C189 C 0.13842 0.71711 0.75687 0.0
C190 C 0.14701 0.69282 0.77148 0.0
C191 C 0.17209 0.69395 0.78811 0.0
P192 P 1.0044 0.51525 0.49984 0.0
H193 H 0.06224 0.5184 0.47798 0.0
H194 H 0.08207 0.51753 0.42982 0.0
H195 H 0.99659 0.51189 0.39448 0.0
H196 H 0.97683 0.51314 0.44283 0.0
H197 H 0.02542 0.53383 0.55597 0.0
H198 H 0.02926 0.58009 0.57958 0.0
H199 H 0.99598 0.61952 0.50416 0.0
H200 H 0.99299 0.57295 0.48009 0.0
H201 H 0.97852 0.45793 0.50175 0.0
H202 H 0.94912 0.54355 0.50096 0.0
O203 O 0.02393 0.49282 0.51835 0.0
H204 H 0.92907 0.43933 0.50515 0.0
H205 H 0.89966 0.52503 0.50471 0.0
C206 C 0.01811 0.51564 0.46398 0.0
C207 C 0.04776 0.51701 0.45987 0.0
C208 C 0.05906 0.51633 0.43236 0.0
C209 C 0.04091 0.51456 0.40837 0.0
C210 C 0.01112 0.51351 0.41254 0.0
C211 C 0.9998 0.51412 0.44016 0.0
C212 C 0.00888 0.54993 0.51626 0.0
C213 C 0.01917 0.5524 0.54433 0.0
C214 C 0.02122 0.57889 0.55793 0.0
C215 C 0.01224 0.60336 0.54406 0.0
C216 C 1.00247 0.60094 0.51565 0.0
C217 C 1.00092 0.57442 0.50182 0.0
C218 C 0.96764 0.50214 0.50162 0.0
C219 C 0.96147 0.47276 0.50259 0.0
C220 C 0.93322 0.46215 0.50479 0.0
C221 C 0.91055 0.48077 0.50591 0.0
C222 C 0.91674 0.51021 0.5042 0.0
C223 C 0.94505 0.52081 0.50207 0.0
P224 P 0.83598 0.83505 0.84053 0.0
H225 H 0.85677 0.86103 0.78739 0.0
H226 H 0.88523 0.84311 0.74792 0.0
H227 H 0.88616 0.76105 0.78869 0.0
H228 H 0.85696 0.7786 0.82713 0.0
H229 H 0.80386 0.87358 0.87497 0.0
H230 H 0.76414 0.90412 0.86484 0.0
H231 H 0.76232 0.87466 0.77739 0.0
H232 H 0.80134 0.84311 0.78806 0.0
H233 H 0.86106 0.80903 0.89107 0.0
H234 H 0.78424 0.79798 0.84027 0.0
O235 O 0.85995 0.85563 0.85839 0.0
H236 H 0.84346 0.77147 0.92345 0.0
H237 H 0.7667 0.76032 0.87236 0.0
C238 C 0.85407 0.82103 0.80991 0.0
C239 C 0.86265 0.83902 0.78749 0.0
C240 C 0.8793 0.82887 0.76516 0.0
C241 C 0.8882 0.80068 0.76524 0.0
C242 C 0.87943 0.78277 0.78775 0.0
C243 C 0.86263 0.79284 0.80984 0.0
C244 C 0.80619 0.85676 0.83207 0.0
C245 C 0.79496 0.87373 0.85358 0.0
C246 C 0.77233 0.89129 0.84773 0.0
C247 C 0.76056 0.89243 0.8201 0.0
C248 C 0.77107 0.87445 0.79883 0.0
C249 C 0.7936 0.85663 0.80482 0.0
C250 C 0.82354 0.80681 0.86377 0.0
C251 C 0.84039 0.79857 0.88693 0.0
C252 C 0.83046 0.777 0.90527 0.0
C253 C 0.80352 0.76338 0.90069 0.0
C254 C 0.78726 0.77093 0.87676 0.0
C255 C 0.79724 0.79241 0.85842 0.0
P256 P 0.33844 0.3388 0.34364 0.0
H257 H 0.37628 0.3657 0.30162 0.0
H258 H 0.40237 0.34733 0.26081 0.0
H259 H 0.36655 0.26296 0.27787 0.0
H260 H 0.33874 0.28192 0.31665 0.0
H261 H 0.33112 0.40002 0.3385 0.0
H262 H 0.291 0.42809 0.32383 0.0
H263 H 0.23983 0.35071 0.30898 0.0
H264 H 0.28081 0.32275 0.32205 0.0
H265 H 0.36711 0.28903 0.36551 0.0
H266 H 0.28692 0.32885 0.37873 0.0
O267 O 0.3619 0.3604 0.361 0.0
H268 H 0.3517 0.25023 0.39743 0.0
H269 H 0.2716 0.2904 0.41048 0.0
C270 C 0.35613 0.32508 0.31266 0.0
C271 C 0.37381 0.3433 0.29626 0.0
C272 C 0.38884 0.33273 0.27303 0.0
C273 C 0.38658 0.30363 0.26582 0.0
C274 C 0.36834 0.2856 0.28212 0.0
C275 C 0.35279 0.29634 0.30485 0.0
C276 C 0.30877 0.35928 0.33195 0.0
C277 C 0.31133 0.38906 0.33197 0.0
C278 C 0.28825 0.40512 0.32371 0.0
C279 C 0.26204 0.39176 0.31528 0.0
C280 C 0.25976 0.3618 0.31483 0.0
C281 C 0.28309 0.34574 0.32261 0.0
C282 C 0.32755 0.31106 0.36838 0.0
C283 C 0.34614 0.28936 0.37509 0.0
C284 C 0.33749 0.2674 0.3936 0.0
C285 C 0.31031 0.26714 0.40615 0.0
C286 C 0.29245 0.28977 0.40064 0.0
C287 C 0.30112 0.31167 0.38222 0.0
P288 P 0.49106 0.9963 0.53206 0.0
H289 H 0.53088 0.9504 0.53307 0.0
H290 H 0.53001 0.90286 0.5113 0.0
H291 H 0.4456 0.91593 0.47766 0.0
H292 H 0.44662 0.96337 0.49917 0.0
H293 H 0.47833 0.05318 0.51233 0.0
H294 H 0.4346 0.07966 0.5106 0.0
H295 H 0.38753 0.00819 0.54735 0.0
H296 H 0.43173 0.98169 0.54949 0.0
H297 H 0.49494 0.95518 0.57963 0.0
H298 H 0.51749 0.04349 0.56386 0.0
O299 O 0.51482 0.0132 0.51106 0.0
H300 H 0.51687 0.95943 0.62734 0.0
H301 H 0.53903 0.04787 0.6114 0.0
C302 C 0.48835 0.96009 0.51882 0.0
C303 C 0.51192 0.9428 0.52154 0.0
C304 C 0.51154 0.91575 0.50889 0.0
C305 C 0.48756 0.90552 0.49318 0.0
C306 C 0.46407 0.92297 0.49027 0.0
C307 C 0.46458 0.95011 0.50274 0.0
C308 C 0.45819 0.01513 0.53036 0.0
C309 C 0.45865 0.04303 0.5199 0.0
C310 C 0.43367 0.05828 0.5191 0.0
C311 C 0.4077 0.04597 0.52882 0.0
C312 C 0.40726 0.01808 0.53952 0.0
C313 C 0.43243 1.00294 0.5407 0.0
C314 C 0.50509 0.99892 0.56798 0.0
C315 C 0.50457 0.97545 0.58637 0.0
C316 C 0.51705 0.97789 0.61363 0.0
C317 C 0.52954 1.004 0.6231 0.0
C318 C 0.52925 0.02758 0.60484 0.0
C319 C 0.51709 0.02505 0.5776 0.0
P320 P 0.16774 0.34156 0.6794 0.0
H321 H 0.22536 0.35222 0.65531 0.0
H322 H 0.26535 0.38469 0.66915 0.0
H323 H 0.21481 0.41685 0.73803 0.0
H324 H 0.17624 0.38289 0.72577 0.0
H325 H 0.1355 0.30683 0.63816 0.0
H326 H 0.14694 0.26584 0.60896 0.0
H327 H 0.23042 0.26504 0.64878 0.0
H328 H 0.21797 0.30497 0.67935 0.0
H329 H 0.12236 0.37183 0.70693 0.0
H330 H 0.16456 0.29313 0.71909 0.0
O331 O 0.14896 0.36115 0.65709 0.0
H332 H 0.09217 0.36146 0.74815 0.0
H333 H 0.13334 0.28188 0.75973 0.0
C334 C 0.19828 0.36381 0.69046 0.0
C335 C 0.22332 0.36542 0.6741 0.0
C336 C 0.246 0.38442 0.6817 0.0
C337 C 0.24365 0.40288 0.70522 0.0
C338 C 0.21798 0.40207 0.72066 0.0
C339 C 0.1957 0.38263 0.71351 0.0
C340 C 0.17626 0.30964 0.66017 0.0
C341 C 0.15619 0.29769 0.64081 0.0
C342 C 0.16281 0.27428 0.62403 0.0
C343 C 0.18975 0.26228 0.62618 0.0
C344 C 0.20938 0.27349 0.64666 0.0
C345 C 0.20247 0.29669 0.66386 0.0
C346 C 0.14526 0.33295 0.70954 0.0
C347 C 0.12482 0.35207 0.71823 0.0
C348 C 0.10746 0.34605 0.74175 0.0
C349 C 0.10986 0.32052 0.75685 0.0
C350 C 0.1309 0.30169 0.7485 0.0
C351 C 0.14858 0.30795 0.72513 0.0
P352 P 0.83582 0.18449 0.67857 0.0
H353 H 0.79369 0.19046 0.63377 0.0
H354 H 0.78104 0.23043 0.60375 0.0
H355 H 0.83857 0.28629 0.65239 0.0
H356 H 0.85165 0.24602 0.68228 0.0
H357 H 0.89311 0.16925 0.69619 0.0
H358 H 0.92155 0.17888 0.7391 0.0
H359 H 0.85271 0.22563 0.77481 0.0
H360 H 0.82466 0.21693 0.73101 0.0
H361 H 0.82285 0.12413 0.66644 0.0
H362 H 0.78333 0.19258 0.71083 0.0
O363 O 0.8563 0.16803 0.6552 0.0
H364 H 0.78298 0.09167 0.67954 0.0
H365 H 0.74377 0.1599 0.72463 0.0
C366 C 0.82322 0.21532 0.66057 0.0
C367 C 0.8032 0.21138 0.63839 0.0
C368 C 0.79612 0.23415 0.62113 0.0
C369 C 0.80898 0.2613 0.62574 0.0
C370 C 0.82832 0.26553 0.64856 0.0
C371 C 0.83568 0.24257 0.66568 0.0
C372 C 0.85674 0.19244 0.7103 0.0
C373 C 0.88405 0.18163 0.71315 0.0
C374 C 0.90019 0.18679 0.73794 0.0
C375 C 0.88916 0.20251 0.76063 0.0
C376 C 0.86173 0.21334 0.75773 0.0
C377 C 0.84566 0.20832 0.73276 0.0
C378 C 0.80605 0.16081 0.68764 0.0
C379 C 0.80555 0.13226 0.67887 0.0
C380 C 0.78268 0.11372 0.68622 0.0
C381 C 0.76007 0.1234 0.70272 0.0
C382 C 0.76077 0.15197 0.71169 0.0
C383 C 0.78346 0.1706 0.70397 0.0
P384 P 0.57206 0.57014 0.57692 0.0
H385 H 0.55979 0.5783 0.63739 0.0
H386 H 0.52234 0.55925 0.66867 0.0
H387 H 0.48393 0.5123 0.59781 0.0
H388 H 0.52206 0.53116 0.56646 0.0
H389 H 0.61224 0.57265 0.52993 0.0
H390 H 0.64457 0.5383 0.51034 0.0
H391 H 0.60769 0.47351 0.5655 0.0
H392 H 0.57629 0.50841 0.58596 0.0
H393 H 0.57551 0.63228 0.57458 0.0
H394 H 0.53708 0.56329 0.52471 0.0
O395 O 0.59626 0.58758 0.59752 0.0
H396 H 0.55757 0.66654 0.54064 0.0
H397 H 0.51878 0.59779 0.4906 0.0
C398 C 0.54391 0.55595 0.5996 0.0
C399 C 0.54346 0.56382 0.62848 0.0
C400 C 0.52193 0.55301 0.64638 0.0
C401 C 0.50031 0.53409 0.63578 0.0
C402 C 0.50059 0.52643 0.60671 0.0
C403 C 0.52222 0.53735 0.58874 0.0
C404 C 0.59124 0.54297 0.55883 0.0
C405 C 0.61061 0.55087 0.53731 0.0
C406 C 0.62905 0.53113 0.52605 0.0
C407 C 0.62843 0.50295 0.53598 0.0
C408 C 0.60868 0.495 0.55732 0.0
C409 C 0.59043 0.51489 0.5688 0.0
C410 C 0.55794 0.59517 0.552 0.0
C411 C 0.56329 0.62445 0.55628 0.0
C412 C 0.5531 0.64406 0.53682 0.0
C413 C 0.53714 0.6348 0.51279 0.0
C414 C 0.53111 0.60547 0.50891 0.0
C415 C 0.54156 0.58579 0.52834 0.0
P416 P 0.55758 0.44564 0.95846 0.0
H417 H 0.61964 0.44561 0.96224 0.0
H418 H 0.65599 0.48051 0.9793 0.0
H419 H 0.58981 0.53647 1.00443 0.0
H420 H 0.55326 0.50147 0.98676 0.0
H421 H 0.54577 0.38432 0.95959 0.0
H422 H 0.53002 0.35154 0.99699 0.0
H423 H 0.52237 0.42228 0.05516 0.0
H424 H 0.53889 0.4551 0.01762 0.0
H425 H 0.55714 0.49257 0.91787 0.0
H426 H 0.49589 0.43231 0.95435 0.0
O427 O 0.57427 0.42591 0.93457 0.0
H428 H 0.52161 0.50524 0.88184 0.0
H429 H 0.46056 0.44502 0.91863 0.0
C430 C 0.58377 0.47122 0.97269 0.0
C431 C 0.61285 0.46538 0.97136 0.0
C432 C 0.63364 0.48529 0.9812 0.0
C433 C 0.62573 0.51122 0.9931 0.0
C434 C 0.5965 0.51659 0.99549 0.0
C435 C 0.57564 0.49672 0.98527 0.0
C436 C 0.54428 0.42209 0.98605 0.0
C437 C 0.54083 0.39285 0.9804 0.0
C438 C 0.53155 0.37411 1.00174 0.0
C439 C 0.52533 0.38424 0.02917 0.0
C440 C 0.52764 0.41375 0.03444 0.0
C441 C 0.53701 0.43254 0.013 0.0
C442 C 0.52915 0.46168 0.939 0.0
C443 C 0.53575 0.48292 0.91888 0.0
C444 C 0.51548 0.49016 0.8983 0.0
C445 C 0.48849 0.47595 0.89742 0.0
C446 C 0.48128 0.45623 0.91887 0.0
C447 C 0.50148 0.44903 0.93938 0.0
P448 P 0.72335 0.2127 0.30179 0.0
H449 H 0.74867 0.26974 0.31061 0.0
H450 H 0.7505 0.30205 0.35116 0.0
H451 H 0.69754 0.24286 0.39947 0.0
H452 H 0.69686 0.20939 0.35889 0.0
H453 H 0.71526 0.15514 0.27826 0.0
H454 H 0.7449 0.11371 0.28202 0.0
H455 H 0.79479 0.15594 0.34875 0.0
H456 H 0.7653 0.19742 0.34474 0.0
H457 H 0.70551 0.22271 0.24315 0.0
H458 H 0.66515 0.19545 0.32144 0.0
O459 O 0.74662 0.22654 0.27828 0.0
H460 H 0.65912 0.22268 0.21961 0.0
H461 H 0.61816 0.19618 0.29792 0.0
C462 C 0.72257 0.23707 0.33161 0.0
C463 C 0.73733 0.26353 0.32978 0.0
C464 C 0.73826 0.28218 0.35298 0.0
C465 C 0.72401 0.27509 0.37836 0.0
C466 C 0.7085 0.24892 0.38001 0.0
C467 C 0.70805 0.22986 0.35685 0.0
C468 C 0.7377 0.17921 0.31156 0.0
C469 C 0.73182 0.15507 0.29449 0.0
C470 C 0.74886 0.13142 0.29658 0.0
C471 C 0.77235 0.13177 0.31545 0.0
C472 C 0.777 0.15523 0.33383 0.0
C473 C 0.75992 0.17881 0.33176 0.0
C474 C 0.68888 0.20954 0.28427 0.0
C475 C 0.68671 0.21665 0.25537 0.0
C476 C 0.66009 0.21673 0.24188 0.0
C477 C 0.63496 0.20969 0.25696 0.0
C478 C 0.63717 0.20155 0.2857 0.0
C479 C 0.664 0.20137 0.29923 0.0
P480 P 0.50193 0.0161 0.00503 0.0
H481 H 0.55857 1.00292 0.98428 0.0
H482 H 0.58046 1.00455 0.93703 0.0
H483 H 0.50121 0.03203 0.90093 0.0
H484 H 0.47972 0.03123 0.94846 0.0
H485 H 0.53045 0.03665 0.05742 0.0
H486 H 0.53493 0.08314 0.08028 0.0
H487 H 0.48775 0.11928 0.01081 0.0
H488 H 0.48289 0.07217 0.98816 0.0
H489 H 0.46849 0.97625 0.96851 0.0
H490 H 0.45403 0.02819 0.04273 0.0
O491 O 0.51927 0.99289 0.02477 0.0
H492 H 0.41898 0.95758 0.97028 0.0
H493 H 0.40442 0.00927 0.04471 0.0
C494 C 0.51737 0.01654 0.96983 0.0
C495 C 0.54584 0.00916 0.96618 0.0
C496 C 0.55831 0.00998 0.93914 0.0
C497 C 0.54262 0.01848 0.91523 0.0
C498 C 0.51402 0.02579 0.91897 0.0
C499 C 0.50162 0.02513 0.94609 0.0
C500 C 0.5065 0.05097 0.02097 0.0
C501 C 0.52126 0.05456 0.04691 0.0
C502 C 0.52397 0.08132 0.05993 0.0
C503 C 0.51197 0.10513 0.04728 0.0
C504 C 0.49724 0.10142 0.02115 0.0
C505 C 0.49455 0.07456 0.00811 0.0
C506 C 0.46473 1.00437 0.00487 0.0
C507 C 0.45455 0.98406 0.98486 0.0
C508 C 0.4263 0.97327 0.98599 0.0
C509 C 0.40789 0.98203 0.00761 0.0
C510 C 0.41821 1.00208 0.02791 0.0
C511 C 0.44645 0.0131 0.02658 0.0
Mn512 Mn 0.2545 0.87767 0.02389 0.0
Mn513 Mn 0.25155 0.90441 0.95738 0.0
C514 C 0.23285 0.85113 0.98729 0.0
C515 C 0.27757 0.85149 0.0588 0.0
C516 C 0.21439 0.92401 0.00593 0.0
O517 O 0.28551 0.90976 0.02456 0.0
O518 O 0.28412 0.92322 0.97849 0.0
C519 C 0.30573 0.88501 0.93323 0.0
N520 N 0.27663 0.885 0.93262 0.0
C521 C 0.27465 0.85623 0.88997 0.0
C522 C 0.30459 0.85603 0.8901 0.0
C523 C 0.32019 0.87045 0.91186 0.0
C524 C 0.26142 0.87127 0.91172 0.0
H525 H 0.31784 0.89611 0.94985 0.0
C526 C 0.29526 0.92447 1.00358 0.0
O527 O 0.25909 0.87017 0.06556 0.0
O528 O 0.28345 0.849 0.03193 0.0
N529 N 0.22118 0.88701 0.93495 0.0
C530 C 0.19241 0.88893 0.9381 0.0
C531 C 0.17375 0.87519 0.91835 0.0
C532 C 0.18484 0.85978 0.8955 0.0
C533 C 0.21453 0.85821 0.89262 0.0
C534 C 0.23208 0.87231 0.91296 0.0
H535 H 0.18376 0.90077 0.9556 0.0
O536 O 0.22625 0.84585 0.01364 0.0
O537 O 0.25133 0.87206 0.9834 0.0
O538 O 0.22272 0.90632 0.02439 0.0
O539 O 0.22453 0.92581 0.98075 0.0
C540 C 0.22738 0.84302 0.87048 0.0
C541 C 0.25741 0.84198 0.86919 0.0
H542 H 0.31582 0.8447 0.87373 0.0
H543 H 0.3433 0.8703 0.91217 0.0
H544 H 0.15086 0.87645 0.92075 0.0
H545 H 0.17037 0.84912 0.88038 0.0
H546 H 0.21437 0.83198 0.85438 0.0
H547 H 0.26703 0.83009 0.85217 0.0
Mn548 Mn 0.14561 0.50248 0.25966 0.0
Mn549 Mn 0.12046 0.5687 0.25754 0.0
C550 C 0.17182 0.53905 0.2379 0.0
C551 C 0.17254 0.46742 0.2809 0.0
C552 C 0.09827 0.52067 0.21875 0.0
O553 O 0.11516 0.50122 0.29081 0.0
O554 O 0.10126 0.54647 0.2885 0.0
C555 C 0.14272 0.59022 0.31322 0.0
N556 N 0.14109 0.59265 0.28432 0.0
C557 C 0.17172 0.63507 0.28521 0.0
C558 C 0.17358 0.6331 0.31499 0.0
C559 C 0.15904 0.61057 0.32904 0.0
C560 C 0.15495 0.61429 0.27058 0.0
H561 H 0.1317 0.57287 0.32411 0.0
C562 C 0.10008 0.52158 0.29954 0.0
O563 O 0.15219 0.46098 0.26275 0.0
O564 O 0.17611 0.49405 0.28793 0.0
N565 N 0.13767 0.59252 0.22885 0.0
C566 C 0.13492 0.59052 0.19994 0.0
C567 C 0.14888 0.61098 0.18267 0.0
C568 C 0.16539 0.63336 0.19527 0.0
C569 C 0.16763 0.63518 0.22507 0.0
C570 C 0.15303 0.6143 0.24121 0.0
H571 H 0.12241 0.57328 0.1901 0.0
O572 O 0.17586 0.51277 0.23113 0.0
O573 O 0.15248 0.54316 0.25707 0.0
O574 O 0.11477 0.50199 0.22828 0.0
O575 O 0.09838 0.54603 0.22863 0.0
C576 C 0.18427 0.65654 0.23937 0.0
C577 C 0.18632 0.65648 0.26942 0.0
H578 H 0.18631 0.64864 0.32726 0.0
H579 H 0.16049 0.60883 0.35201 0.0
H580 H 0.14711 0.60939 0.15968 0.0
H581 H 0.17643 0.6489 0.18187 0.0
H582 H 0.19592 0.67288 0.22745 0.0
H583 H 0.19949 0.6728 0.28014 0.0
Mn584 Mn 0.7532 0.63005 0.01901 0.0
Mn585 Mn 0.6933 0.64904 0.98452 0.0
C586 C 0.7125 0.5999 0.0184 0.0
C587 C 0.79761 0.60853 0.01952 0.0
C588 C 0.71268 0.67439 0.04149 0.0
O589 O 0.76784 0.66254 0.99315 0.0
O590 O 0.72689 0.67096 0.96952 0.0
C591 C 0.70618 0.62617 0.92731 0.0
N592 N 0.6885 0.62721 0.95021 0.0
C593 C 0.65413 0.59461 0.92784 0.0
C594 C 0.67191 0.59329 0.90393 0.0
C595 C 0.69809 0.60906 0.90372 0.0
C596 C 0.66339 0.61195 0.95074 0.0
H597 H 0.7263 0.6383 0.9271 0.0
C598 C 0.75357 0.67592 0.97452 0.0
O599 O 0.79124 0.62771 0.03816 0.0
O600 O 0.77845 0.60247 1.00003 0.0
N601 N 0.65891 0.62956 0.99691 0.0
C602 C 0.64463 0.63268 0.02189 0.0
C603 C 0.61808 0.6182 0.02566 0.0
C604 C 0.60638 0.60089 1.00364 0.0
C605 C 0.62132 0.59828 0.97799 0.0
C606 C 0.64757 0.61342 0.97537 0.0
H607 H 0.65343 0.64613 0.0388 0.0
O608 O 0.73189 0.59737 0.03802 0.0
O609 O 0.71756 0.61982 0.99987 0.0
O610 O 0.73424 0.65904 0.04506 0.0
O611 O 0.6962 0.67234 0.01967 0.0
C612 C 0.6113 0.58112 0.95497 0.0
C613 C 0.62777 0.57916 0.92999 0.0
H614 H 0.66575 0.5801 0.8857 0.0
H615 H 0.71197 0.60806 0.8854 0.0
H616 H 0.60665 0.62035 0.0455 0.0
H617 H 0.58594 0.5897 0.00668 0.0
H618 H 0.5911 0.56912 0.95638 0.0
H619 H 0.62003 0.56559 0.9126 0.0
Mn620 Mn 0.87517 0.00928 0.26377 0.0
Mn621 Mn 0.89681 0.9424 0.25381 0.0
C622 C 0.84614 0.9758 0.2398 0.0
C623 C 0.85151 0.04411 0.28902 0.0
C624 C 0.92002 0.99275 0.2198 0.0
O625 O 0.90689 0.0064 0.2938 0.0
O626 O 0.91869 0.96105 0.28575 0.0
C627 C 0.87741 0.9163 0.30806 0.0
N628 N 0.87656 0.91701 0.27902 0.0
C629 C 0.84459 0.87559 0.27705 0.0
C630 C 0.84527 0.87431 0.30693 0.0
C631 C 0.86168 0.89481 0.32249 0.0
C632 C 0.86083 0.89739 0.26384 0.0
H633 H 0.89005 0.93196 0.32011 0.0
C634 C 0.92155 0.98474 0.2994 0.0
O635 O 0.87166 0.05061 0.27103 0.0
O636 O 0.84605 0.01722 0.29349 0.0
N637 N 0.87682 0.9221 0.22374 0.0
C638 C 0.87839 0.92638 0.19506 0.0
C639 C 0.86267 0.90806 0.17647 0.0
C640 C 0.84567 0.88544 0.18754 0.0
C641 C 0.8447 0.88125 0.21711 0.0
C642 C 0.86094 0.9001 0.23458 0.0
H643 H 0.89139 0.94374 0.18644 0.0
O644 O 0.84326 1.00273 0.23544 0.0
O645 O 0.86621 0.96934 0.25756 0.0
O646 O 0.90478 0.01114 0.23174 0.0
O647 O 0.91873 0.96647 0.22646 0.0
C648 C 0.82808 0.85923 0.22995 0.0
C649 C 0.82808 0.85636 0.2599 0.0
H650 H 0.83304 0.85787 0.31815 0.0
H651 H 0.8622 0.89405 0.34556 0.0
H652 H 0.86356 0.91142 0.15367 0.0
H653 H 0.83341 0.87149 0.17315 0.0
H654 H 0.81514 0.84444 0.217 0.0
H655 H 0.81513 0.83941 0.26953 0.0
Mn656 Mn 0.25872 0.13045 0.52094 0.0
Mn657 Mn 0.19943 0.14963 0.48567 0.0
C658 C 0.21786 0.10048 0.52002 0.0
C659 C 0.30297 0.10881 0.52177 0.0
C660 C 0.21815 0.17489 0.54297 0.0
O661 O 0.27382 0.16265 0.49498 0.0
O662 O 0.23344 0.17085 0.47053 0.0
C663 C 0.21195 0.12686 0.4283 0.0
N664 N 0.19457 0.12761 0.45147 0.0
C665 C 0.15983 0.09545 0.42902 0.0
C666 C 0.17727 0.09446 0.40485 0.0
C667 C 0.2035 0.11013 0.40455 0.0
C668 C 0.16942 0.11242 0.45208 0.0
H669 H 0.23206 0.13898 0.42794 0.0
C670 C 0.2602 0.17544 0.47544 0.0
O671 O 0.29667 0.12811 0.54031 0.0
O672 O 0.28384 0.10258 0.50231 0.0
N673 N 0.16486 0.13048 0.49807 0.0
C674 C 0.15045 0.13395 0.52293 0.0
C675 C 0.1238 0.11964 0.52671 0.0
C676 C 0.11211 0.10221 0.50478 0.0
C677 C 0.12719 0.09922 0.47926 0.0
C678 C 0.1536 0.11407 0.47669 0.0
H679 H 0.15919 0.14756 0.53974 0.0
O680 O 0.23703 0.09793 0.53986 0.0
O681 O 0.22325 0.12033 0.50149 0.0
O682 O 0.23966 0.15952 0.54669 0.0
O683 O 0.20223 0.17322 0.52072 0.0
C684 C 0.11703 0.08214 0.45625 0.0
C685 C 0.1334 0.08015 0.4312 0.0
H686 H 0.17083 0.08159 0.38649 0.0
H687 H 0.21714 0.10938 0.38603 0.0
H688 H 0.11226 0.12211 0.54643 0.0
H689 H 0.09154 0.09126 0.50777 0.0
H690 H 0.09668 0.0704 0.4576 0.0
H691 H 0.12545 0.06681 0.41374 0.0
Mn692 Mn 0.3701 0.51092 0.76166 0.0
Mn693 Mn 0.38753 0.443 0.74958 0.0
C694 C 0.33956 0.47991 0.7361 0.0
C695 C 0.3481 0.5469 0.78691 0.0
C696 C 0.41448 0.49296 0.71767 0.0
O697 O 0.4006 0.50497 0.79248 0.0
O698 O 0.40984 0.45943 0.78234 0.0
C699 C 0.36581 0.41655 0.80286 0.0
N700 N 0.36552 0.41806 0.77384 0.0
C701 C 0.33168 0.37819 0.77033 0.0
C702 C 0.33184 0.37605 0.80015 0.0
C703 C 0.34891 0.39539 0.81648 0.0
C704 C 0.34911 0.39961 0.75793 0.0
H705 H 0.37887 0.43134 0.81553 0.0
C706 C 0.41374 0.48213 0.79737 0.0
O707 O 0.3693 0.55231 0.76984 0.0
O708 O 0.34062 0.52029 0.79066 0.0
N709 N 0.36682 0.42469 0.71875 0.0
C710 C 0.36895 0.42972 0.69022 0.0
C711 C 0.35277 0.41256 0.67094 0.0
C712 C 0.3347 0.39035 0.68116 0.0
C713 C 0.33303 0.38543 0.71059 0.0
C714 C 0.34978 0.40312 0.72877 0.0
H715 H 0.38274 0.4468 0.68224 0.0
O716 O 0.33865 0.50715 0.73232 0.0
O717 O 0.35873 0.47171 0.75398 0.0
O718 O 0.40067 0.5118 0.73064 0.0
O719 O 0.41116 0.46648 0.72303 0.0
C720 C 0.31527 0.36379 0.7226 0.0
C721 C 0.31463 0.36015 0.75244 0.0
H722 H 0.31872 0.35986 0.81075 0.0
H723 H 0.349 0.394 0.83952 0.0
H724 H 0.35415 0.41651 0.64826 0.0
H725 H 0.32213 0.37727 0.66624 0.0
H726 H 0.30193 0.34991 0.70908 0.0
H727 H 0.30079 0.34352 0.76143 0.0
Mn728 Mn 0.75544 0.37826 0.51264 0.0
Mn729 Mn 0.75517 0.41099 0.44887 0.0
C730 C 0.73542 0.3553 0.47284 0.0
C731 C 0.77668 0.34878 0.54598 0.0
C732 C 0.71571 0.42612 0.49736 0.0
O733 O 0.78672 0.40956 0.51739 0.0
O734 O 0.78631 0.42834 0.4732 0.0
C735 C 0.81109 0.39482 0.42605 0.0
N736 N 0.78206 0.39463 0.42375 0.0
C737 C 0.78314 0.37138 0.37795 0.0
C738 C 0.81305 0.37139 0.37979 0.0
C739 C 0.82707 0.38307 0.404 0.0
C740 C 0.76835 0.38334 0.4006 0.0
H741 H 0.82201 0.40394 0.44451 0.0
C742 C 0.79683 0.42664 0.49846 0.0
O743 O 0.75812 0.36705 0.55359 0.0
O744 O 0.78363 0.3485 0.51925 0.0
N745 N 0.72646 0.39528 0.42338 0.0
C746 C 0.69746 0.39563 0.42554 0.0
C747 C 0.68022 0.38389 0.40347 0.0
C748 C 0.69296 0.37198 0.3794 0.0
C749 C 0.72284 0.37175 0.37771 0.0
C750 C 0.73892 0.38365 0.40041 0.0
H751 H 0.68756 0.40453 0.44409 0.0
O752 O 0.72735 0.34785 0.49827 0.0
O753 O 0.75416 0.37635 0.47168 0.0
O754 O 0.72418 0.40749 0.51479 0.0
O755 O 0.72631 0.4294 0.47253 0.0
C756 C 0.73729 0.36001 0.35448 0.0
C757 C 0.76743 0.35988 0.35457 0.0
H758 H 0.82545 0.36233 0.36283 0.0
H759 H 0.85014 0.38307 0.40563 0.0
H760 H 0.65717 0.38397 0.40504 0.0
H761 H 0.67959 0.3629 0.36243 0.0
H762 H 0.72543 0.35076 0.33655 0.0
H763 H 0.77829 0.35057 0.33669 0.0
Mn764 Mn 0.64653 0.00679 0.76529 0.0
Mn765 Mn 0.62221 0.0732 0.76179 0.0
C766 C 0.67191 0.04197 0.74046 0.0
C767 C 0.67462 0.97305 0.7875 0.0
C768 C 0.5972 0.02374 0.72642 0.0
O769 O 0.61752 0.00727 0.79786 0.0
O770 O 0.60499 0.05282 0.79489 0.0
C771 C 0.64836 0.09721 0.81483 0.0
N772 N 0.64475 0.09823 0.78601 0.0
C773 C 0.67474 0.14092 0.78294 0.0
C774 C 0.67868 0.14041 0.81261 0.0
C775 C 0.66548 0.11842 0.82861 0.0
C776 C 0.65741 0.11924 0.7704 0.0
H777 H 0.63827 0.08035 0.82721 0.0
C778 C 0.60368 0.0284 0.80688 0.0
O779 O 0.65349 0.9654 0.77064 0.0
O780 O 0.67827 1.00007 0.79252 0.0
N781 N 0.63754 0.09537 0.73092 0.0
C782 C 0.63272 0.09201 0.70237 0.0
C783 C 0.64512 0.11177 0.68329 0.0
C784 C 0.66207 0.13493 0.69377 0.0
C785 C 0.66639 0.13816 0.72325 0.0
C786 C 0.65347 0.11781 0.74124 0.0
H787 H 0.61968 0.07428 0.69418 0.0
O788 O 0.67544 0.01534 0.73488 0.0
O789 O 0.65368 0.04721 0.76038 0.0
O790 O 0.61417 1.00508 0.73525 0.0
O791 O 0.59817 0.04937 0.73557 0.0
C792 C 0.68332 0.16056 0.73547 0.0
C793 C 0.68762 0.16187 0.76528 0.0
H794 H 0.69193 0.15668 0.82331 0.0
H795 H 0.6685 0.11782 0.8515 0.0
H796 H 0.64169 0.10912 0.66057 0.0
H797 H 0.67176 0.15003 0.67897 0.0
H798 H 0.69344 0.17672 0.7221 0.0
H799 H 0.70107 0.17895 0.77437 0.0
Mn800 Mn 1.00107 0.25993 0.87853 0.0
Mn801 Mn 0.93578 0.24871 0.90733 0.0
C802 C 0.96616 0.23278 0.85447 0.0
C803 C 0.03285 0.28539 0.84886 0.0
C804 C 0.98811 0.2182 0.92728 0.0
O805 O 0.99974 0.2916 0.9086 0.0
O806 O 0.95494 0.28322 0.92493 0.0
C807 C 0.90813 0.29972 0.88543 0.0
N808 N 0.90892 0.27089 0.88733 0.0
C809 C 0.86737 0.26446 0.85709 0.0
C810 C 0.86602 0.29408 0.85495 0.0
C811 C 0.88649 0.31177 0.86919 0.0
C812 C 0.88925 0.25366 0.87382 0.0
H813 H 0.92394 0.31342 0.89612 0.0
C814 C 0.97876 0.29779 0.92459 0.0
O815 O 0.042 0.26928 0.86909 0.0
O816 O 0.00546 0.28811 0.84731 0.0
N817 N 0.91508 0.21632 0.89142 0.0
C818 C 0.92017 0.18821 0.89454 0.0
C819 C 0.90198 0.16769 0.88108 0.0
C820 C 0.87879 0.17625 0.86454 0.0
C821 C 0.87384 0.20529 0.86182 0.0
C822 C 0.89246 0.22477 0.87606 0.0
H823 H 0.93812 0.18149 0.90699 0.0
O824 O 0.99298 0.22957 0.84914 0.0
O825 O 0.96076 0.25133 0.87409 0.0
O826 O 0.00545 0.22978 0.90949 0.0
O827 O 0.96182 0.22432 0.92884 0.0
C828 C 0.85149 0.21568 0.84512 0.0
C829 C 0.84826 0.24524 0.84276 0.0
H830 H 0.84953 0.30347 0.84223 0.0
H831 H 0.88568 0.33465 0.86752 0.0
H832 H 0.90598 0.14532 0.88322 0.0
H833 H 0.86505 0.16037 0.85386 0.0
H834 H 0.83687 0.20113 0.83372 0.0
H835 H 0.83121 0.25297 0.82956 0.0
Mn836 Mn 0.50701 0.76059 0.38425 0.0
Mn837 Mn 0.44185 0.74787 0.41284 0.0
C838 C 0.47254 0.73291 0.36006 0.0
C839 C 0.53854 0.78622 0.35448 0.0
C840 C 0.49477 0.71856 0.43302 0.0
O841 O 0.50504 0.79229 0.41414 0.0
O842 O 0.46077 0.78221 0.43102 0.0
C843 C 0.41365 0.79905 0.39211 0.0
N844 N 0.41472 0.77021 0.39342 0.0
C845 C 0.37282 0.76402 0.36362 0.0
C846 C 0.3712 0.79366 0.36209 0.0
C847 C 0.39171 0.81124 0.3764 0.0
C848 C 0.395 0.75309 0.37984 0.0
H849 H 0.42947 0.81269 0.40289 0.0
C850 C 0.4841 0.79759 0.43054 0.0
O851 O 0.54783 0.77047 0.37492 0.0
O852 O 0.51109 0.78857 0.35279 0.0
N853 N 0.42137 0.71564 0.39633 0.0
C854 C 0.4269 0.68754 0.39857 0.0
C855 C 0.40878 0.66714 0.38482 0.0
C856 C 0.38523 0.67583 0.36888 0.0
C857 C 0.37989 0.70485 0.36699 0.0
C858 C 0.39848 0.72419 0.38145 0.0
H859 H 0.44517 0.68075 0.41046 0.0
O860 O 0.49946 0.72994 0.35498 0.0
O861 O 0.4668 0.75133 0.37967 0.0
O862 O 0.51192 0.731 0.41561 0.0
O863 O 0.46809 0.72327 0.43379 0.0
C864 C 0.3572 0.71536 0.35086 0.0
C865 C 0.35366 0.74493 0.34918 0.0
H866 H 0.35446 0.80314 0.34979 0.0
H867 H 0.39069 0.83413 0.3752 0.0
H868 H 0.41313 0.6448 0.38626 0.0
H869 H 0.37154 0.66005 0.35798 0.0
H870 H 0.34257 0.70092 0.33935 0.0
H871 H 0.33636 0.75277 0.33639 0.0
Mn872 Mn 0.00742 0.75002 0.63565 0.0
Mn873 Mn 0.98106 0.68932 0.66576 0.0
C874 C 0.01201 0.70685 0.6124 0.0
C875 C 1.0032 0.79064 0.60789 0.0
C876 C 0.03681 0.71906 0.68436 0.0
O877 O 0.98045 0.76446 0.66611 0.0
O878 O 0.96233 0.72262 0.68251 0.0
C879 C 0.92195 0.6905 0.64301 0.0
N880 N 0.94684 0.67684 0.6461 0.0
C881 C 0.92747 0.63576 0.62066 0.0
C882 C 0.90152 0.64926 0.61747 0.0
C883 C 0.89882 0.67682 0.62854 0.0
C884 C 0.94985 0.65055 0.63506 0.0
H885 H 0.91978 0.71167 0.65149 0.0
C886 C 0.96352 0.74987 0.68216 0.0
O887 O 0.02227 0.78936 0.62795 0.0
O888 O 0.98577 0.76861 0.60448 0.0
N889 N 0.99677 0.65511 0.65171 0.0
C890 C 0.02306 0.64485 0.65704 0.0
C891 C 0.02913 0.61736 0.64773 0.0
C892 C 0.00803 0.60059 0.63336 0.0
C893 C 0.98112 0.61153 0.62819 0.0
C894 C 0.97619 0.63893 0.63828 0.0
H895 H 0.03924 0.65744 0.66849 0.0
O896 O 0.02878 0.72859 0.60622 0.0
O897 O 0.99273 0.71108 0.63166 0.0
O898 O 0.03597 0.73898 0.66618 0.0
O899 O 0.01684 0.6999 0.68703 0.0
C900 C 0.95889 0.59618 0.61373 0.0
C901 C 0.93212 0.60835 0.60984 0.0
H902 H 0.88362 0.63876 0.60636 0.0
H903 H 0.87893 0.68746 0.62599 0.0
H904 H 0.04993 0.60903 0.65186 0.0
H905 H 0.01263 0.57922 0.62669 0.0
H906 H 0.96217 0.57503 0.60546 0.0
H907 H 0.91525 0.59643 0.59851 0.0
Mn908 Mn 0.5071 0.25212 0.13866 0.0
Mn909 Mn 0.47677 0.19116 0.16449 0.0
C910 C 0.51194 0.20967 0.11406 0.0
C911 C 0.50597 0.29411 0.11221 0.0
C912 C 0.53124 0.21934 0.18891 0.0
O913 O 0.4788 0.26604 0.16819 0.0
O914 O 0.45657 0.2243 0.18007 0.0
C915 C 0.42133 0.19391 0.13409 0.0
N916 N 0.44466 0.1792 0.14137 0.0
C917 C 0.42728 0.13825 0.11444 0.0
C918 C 0.40252 0.15258 0.10759 0.0
C919 C 0.39967 0.18065 0.11722 0.0
C920 C 0.44806 0.15255 0.13143 0.0
H921 H 0.41959 0.21573 0.14071 0.0
C922 C 0.45944 0.25151 0.18147 0.0
O923 O 0.52369 0.29122 0.13322 0.0
O924 O 0.48799 0.27282 0.10712 0.0
N925 N 0.49361 0.15709 0.15148 0.0
C926 C 0.51997 0.14739 0.15753 0.0
C927 C 0.52688 0.12006 0.14844 0.0
C928 C 0.50661 0.10295 0.13331 0.0
C929 C 0.47972 0.11347 0.12707 0.0
C930 C 0.47389 0.14069 0.1371 0.0
H931 H 0.53568 0.16043 0.16908 0.0
O932 O 0.52962 0.23118 0.10971 0.0
O933 O 0.49165 0.21378 0.13225 0.0
O934 O 0.53311 0.2391 0.1705 0.0
O935 O 0.51036 0.20093 0.18946 0.0
C936 C 0.4587 0.09824 0.11083 0.0
C937 C 0.43256 0.11069 0.10437 0.0
H938 H 0.38587 0.1425 0.0944 0.0
H939 H 0.38095 0.19211 0.11145 0.0
H940 H 0.54779 0.11221 0.15308 0.0
H941 H 0.51199 0.08187 0.12639 0.0
H942 H 0.46268 0.0772 0.10264 0.0
H943 H 0.41685 0.09907 0.09125 0.0
C944 C 0.19714 0.79782 0.93584 0.0
C945 C 0.22076 0.78571 0.92256 0.0
C946 C 0.20093 0.81871 0.95727 0.0
C947 C 0.22845 0.8286 0.96559 0.0
H948 H 0.17556 0.79132 0.92942 0.0
H949 H 0.18231 0.82775 0.96677 0.0
S950 S 0.29725 0.80199 0.94028 0.0
N951 N 0.27272 0.78434 0.92099 0.0
N952 N 0.27951 0.82281 0.96165 0.0
C953 C 0.25213 0.81584 0.9536 0.0
C954 C 0.24838 0.79465 0.93192 0.0
C955 C 0.07531 0.49599 0.37254 0.0
C956 C 0.05337 0.51445 0.37921 0.0
C957 C 0.08926 0.4973 0.34609 0.0
C958 C 0.08207 0.5174 0.32539 0.0
H959 H 0.08212 0.48074 0.38813 0.0
H960 H 0.10663 0.48328 0.34239 0.0
S961 S 0.02488 0.56945 0.33175 0.0
N962 N 0.02425 0.55254 0.36251 0.0
N963 N 0.05019 0.55502 0.31286 0.0
C964 C 0.05939 0.53525 0.33144 0.0
C965 C 0.04511 0.53376 0.35829 0.0
C966 C 0.80744 0.71855 0.92945 0.0
C967 C 0.79173 0.74212 0.92129 0.0
C968 C 0.79555 0.69748 0.94761 0.0
C969 C 0.76759 0.69936 0.95807 0.0
H970 H 0.82869 0.71597 0.92107 0.0
H971 H 0.8079 0.67919 0.95263 0.0
S972 S 0.71957 0.75915 0.94674 0.0
N973 N 0.74821 0.76764 0.92774 0.0
N974 N 0.72587 0.72828 0.96151 0.0
C975 C 0.75235 0.72358 0.95117 0.0
C976 C 0.7644 0.74488 0.93287 0.0
C977 C 0.98409 0.96494 0.34597 0.0
C978 C 0.98291 0.9835 0.3695 0.0
C979 C 0.96463 0.96617 0.32334 0.0
C980 C 0.94301 0.98608 0.32302 0.0
H981 H 0.99981 0.9487 0.34532 0.0
H982 H 0.96646 0.95101 0.30602 0.0
S983 S 0.9314 0.0405 0.37897 0.0
N984 N 0.95903 0.0232 0.39079 0.0
N985 N 0.92215 0.02553 0.34811 0.0
C986 C 0.94192 0.00532 0.34611 0.0
C987 C 0.96182 1.00393 0.36941 0.0
C988 C 0.19029 0.24179 0.57671 0.0
C989 C 0.19757 0.2394 0.60577 0.0
C990 C 0.19694 0.2208 0.55682 0.0
C991 C 0.2115 0.19655 0.56494 0.0
H992 H 0.17957 0.26026 0.5691 0.0
H993 H 0.1909 0.22388 0.53473 0.0
S994 S 0.23443 0.17925 0.63854 0.0
N995 N 0.21925 0.21012 0.64187 0.0
N996 N 0.23248 0.17099 0.60427 0.0
C997 C 0.21906 0.19382 0.5939 0.0
C998 C 0.21196 0.21514 0.61431 0.0
C999 C 0.46345 0.54174 0.67325 0.0
C1000 C 0.47752 0.52291 0.65527 0.0
C1001 C 0.44296 0.53186 0.69292 0.0
C1002 C 0.43571 0.5026 0.69571 0.0
H1003 H 0.46838 0.56442 0.67214 0.0
H1004 H 0.43304 0.5474 0.70632 0.0
S1005 S 0.46641 0.4444 0.65328 0.0
N1006 N 0.48279 0.47366 0.64125 0.0
N1007 N 0.44425 0.45488 0.6781 0.0
C1008 C 0.44946 0.48351 0.67755 0.0
C1009 C 0.47028 0.49369 0.65736 0.0
C1010 C 0.79039 0.30941 0.6152 0.0
C1011 C 0.80315 0.28462 0.60567 0.0
C1012 C 0.78254 0.33047 0.59585 0.0
C1013 C 0.7876 0.32766 0.56637 0.0
H1014 H 0.78561 0.31209 0.63762 0.0
H1015 H 0.772 0.34884 0.60403 0.0
S1016 S 0.8227 0.26749 0.53122 0.0
N1017 N 0.82195 0.25901 0.56534 0.0
N1018 N 0.80772 0.29853 0.52901 0.0
C1019 C 0.80145 0.30339 0.55684 0.0
C1020 C 0.80906 0.28188 0.57648 0.0
C1021 C 0.56558 0.98854 0.65917 0.0
C1022 C 0.54379 0.00679 0.6515 0.0
C1023 C 0.58187 0.99325 0.6842 0.0
C1024 C 0.57695 0.01638 0.70254 0.0
H1025 H 0.57095 0.97128 0.64506 0.0
H1026 H 0.59926 0.9794 0.68848 0.0
S1027 S 0.51919 0.06758 0.6941 0.0
N1028 N 0.51597 0.04679 0.66568 0.0
N1029 N 0.54628 0.05573 0.71262 0.0
C1030 C 0.55397 0.03368 0.69587 0.0
C1031 C 0.53751 0.02889 0.67041 0.0
C1032 C 0.90979 0.23709 0.79682 0.0
C1033 C 0.90698 0.20898 0.78646 0.0
C1034 C 0.92841 0.24434 0.81947 0.0
C1035 C 0.94463 0.22373 0.83285 0.0
H1036 H 0.89826 0.25383 0.78674 0.0
H1037 H 0.93067 0.26643 0.82612 0.0
S1038 S 0.94411 0.14699 0.81516 0.0
N1039 N 0.92102 0.16013 0.79249 0.0
N1040 N 0.95666 0.17419 0.83459 0.0
C1041 C 0.94192 0.19558 0.82301 0.0
C1042 C 0.92279 0.18807 0.80007 0.0
C1043 C 0.50978 0.86983 0.46097 0.0
C1044 C 0.48733 0.87708 0.47908 0.0
C1045 C 0.509 0.84382 0.44601 0.0
C1046 C 0.4858 0.82388 0.44868 0.0
H1047 H 0.52772 0.88474 0.45769 0.0
H1048 H 0.52646 0.83968 0.43173 0.0
S1049 S 0.42307 0.83176 0.49613 0.0
N1050 N 0.44238 0.86163 0.50063 0.0
N1051 N 0.4407 0.81281 0.47291 0.0
C1052 C 0.46373 0.83058 0.46773 0.0
C1053 C 0.46453 0.85712 0.48277 0.0
C1054 C 0.10059 0.3025 0.80658 0.0
C1055 C 0.09006 0.31329 0.78079 0.0
C1056 C 0.08209 0.29455 0.82894 0.0
C1057 C 0.05231 0.29714 0.82643 0.0
H1058 H 0.12332 0.30003 0.80947 0.0
H1059 H 0.0912 0.28584 0.84812 0.0
S1060 S 0.01382 0.3237 0.76301 0.0
N1061 N 0.04783 0.3256 0.75388 0.0
N1062 N 0.01322 0.31141 0.7959 0.0
C1063 C 0.04157 0.3084 0.80092 0.0
C1064 C 0.06037 0.31627 0.77812 0.0
C1065 C 0.49773 0.65634 0.48471 0.0
C1066 C 0.5269 0.65582 0.49188 0.0
C1067 C 0.48753 0.67679 0.4659 0.0
C1068 C 0.50618 0.69727 0.45311 0.0
H1069 H 0.48258 0.64112 0.49411 0.0
H1070 H 0.46483 0.67638 0.46126 0.0
S1071 S 0.58485 0.70422 0.46441 0.0
N1072 N 0.57444 0.67704 0.48448 0.0
N1073 N 0.55555 0.71529 0.44903 0.0
C1074 C 0.53554 0.69665 0.45991 0.0
C1075 C 0.54581 0.67602 0.4793 0.0
C1076 C 0.90053 0.76236 0.73068 0.0
C1077 C 0.90672 0.78959 0.74226 0.0
C1078 C 0.91871 0.75013 0.71092 0.0
C1079 C 0.94386 0.76465 0.70157 0.0
H1080 H 0.88153 0.75017 0.73719 0.0
H1081 H 0.91303 0.72892 0.70308 0.0
S1082 S 0.96991 0.83667 0.72509 0.0
N1083 N 0.93992 0.83082 0.74289 0.0
N1084 N 0.97378 0.80807 0.70512 0.0
C1085 C 0.94996 0.79226 0.7123 0.0
C1086 C 0.9315 0.80466 0.73274 0.0
C1087 C 0.01723 0.86513 0.57966 0.0
C1088 C 0.01386 0.86159 0.54993 0.0
C1089 C 0.01248 0.84232 0.59842 0.0
C1090 C 1.0035 0.81519 0.58831 0.0
H1091 H 0.02442 0.88553 0.58852 0.0
H1092 H 0.01651 0.84581 0.62098 0.0
S1093 S 0.99074 0.79436 0.51279 0.0
N1094 N 1.00077 0.82838 0.51146 0.0
N1095 N 0.99051 0.78606 0.54696 0.0
C1096 C 0.99862 0.81156 0.55891 0.0
C1097 C 1.00407 0.83462 0.53966 0.0
C1098 C 0.08638 0.70455 0.74706 0.0
C1099 C 0.11294 0.71604 0.73769 0.0
C1100 C 0.06181 0.70523 0.72965 0.0
C1101 C 0.06294 0.7176 0.70236 0.0
H1102 H 0.08442 0.69559 0.76823 0.0
H1103 H 0.04171 0.69659 0.73787 0.0
S1104 S 0.12823 0.74697 0.66649 0.0
N1105 N 0.13946 0.73741 0.69831 0.0
N1106 N 0.09353 0.73915 0.66589 0.0
C1107 C 0.08965 0.7282 0.69244 0.0
C1108 C 0.11456 0.72729 0.71001 0.0
C1109 C 0.03675 0.64043 0.57553 0.0
C1110 C 0.01237 0.63094 0.5598 0.0
C1111 C 0.03668 0.66532 0.5922 0.0
C1112 C 0.01196 0.68101 0.59447 0.0
H1113 H 0.05598 0.62843 0.57506 0.0
H1114 H 0.05581 0.67187 0.60407 0.0
S1115 S 0.94374 0.66738 0.55529 0.0
N1116 N 0.96357 0.64068 0.546 0.0
N1117 N 0.96361 0.68735 0.57744 0.0
C1118 C 0.98789 0.67253 0.57804 0.0
C1119 C 0.98803 0.64746 0.56075 0.0
C1120 C 0.79074 0.9321 0.19703 0.0
C1121 C 0.77627 0.91613 0.2183 0.0
C1122 C 0.81329 0.95163 0.20401 0.0
C1123 C 0.82256 0.9553 0.23236 0.0
H1124 H 0.7843 0.92985 0.17488 0.0
H1125 H 0.82382 0.9636 0.18711 0.0
S1126 S 0.79045 0.92108 0.29626 0.0
N1127 N 0.77235 0.90656 0.26916 0.0
N1128 N 0.81408 0.94378 0.28206 0.0
C1129 C 0.80786 0.94023 0.25386 0.0
C1130 C 0.78497 0.92041 0.24687 0.0
C1131 C 0.78511 0.08044 0.3137 0.0
C1132 C 0.79377 0.10943 0.31321 0.0
C1133 C 0.8045 0.05921 0.30781 0.0
C1134 C 0.83311 0.06626 0.30064 0.0
H1135 H 0.763 0.07417 0.31789 0.0
H1136 H 0.79659 0.03724 0.30735 0.0
S1137 S 0.86685 0.13899 0.29803 0.0
N1138 N 0.83323 0.14398 0.30644 0.0
N1139 N 0.8695 0.10422 0.29519 0.0
C1140 C 0.84228 0.0951 0.30125 0.0
C1141 C 0.82266 0.11665 0.30757 0.0
C1142 C 0.36081 0.9706 0.98407 0.0
C1143 C 0.37805 0.97 0.00863 0.0
C1144 C 0.33358 0.95711 0.98331 0.0
C1145 C 0.32242 0.94205 0.00702 0.0
H1146 H 0.36867 0.98119 0.96502 0.0
H1147 H 0.32165 0.9578 0.96348 0.0
S1148 S 0.3589 0.93539 0.07718 0.0
N1149 N 0.3819 0.95438 0.05774 0.0
N1150 N 0.33071 0.92873 0.05646 0.0
C1151 C 0.33913 0.94223 0.03219 0.0
C1152 C 0.36691 0.95625 0.03295 0.0
C1153 C 0.23147 0.43371 0.3234 0.0
C1154 C 0.23737 0.40931 0.30724 0.0
C1155 C 0.20981 0.4518 0.31529 0.0
C1156 C 0.19282 0.4461 0.2909 0.0
H1157 H 0.24392 0.43911 0.34236 0.0
H1158 H 0.20664 0.47066 0.32805 0.0
S1159 S 0.19933 0.3851 0.2411 0.0
N1160 N 0.22439 0.38065 0.2654 0.0
N1161 N 0.18312 0.41407 0.25077 0.0
C1162 C 0.19783 0.42134 0.275 0.0
C1163 C 0.2202 0.4031 0.28302 0.0
C1164 C 0.15387 0.04861 0.52769 0.0
C1165 C 0.15446 0.03303 0.50195 0.0
C1166 C 0.17491 0.07005 0.53399 0.0
C1167 C 0.1965 0.07717 0.51429 0.0
H1168 H 0.13709 0.04417 0.54303 0.0
H1169 H 0.17377 0.08168 0.55393 0.0
S1170 S 0.2091 0.04129 0.44524 0.0
N1171 N 0.17969 0.02524 0.45757 0.0
N1172 N 0.21885 0.06551 0.46941 0.0
C1173 C 0.19786 0.0612 0.48902 0.0
C1174 C 0.17683 0.03922 0.48277 0.0
C1175 C 0.72948 0.10085 0.7406 0.0
C1176 C 0.73644 0.10341 0.71156 0.0
C1177 C 0.70825 0.0811 0.74969 0.0
C1178 C 0.69282 0.06369 0.73003 0.0
H1179 H 0.74096 0.11376 0.75647 0.0
H1180 H 0.70409 0.0792 0.77233 0.0
S1181 S 0.70224 0.06248 0.6517 0.0
N1182 N 0.72585 0.08713 0.66315 0.0
N1183 N 0.68595 0.04992 0.68044 0.0
C1184 C 0.69958 0.06589 0.70102 0.0
C1185 C 0.72125 0.08594 0.69171 0.0
C1186 C 0.35693 0.05114 0.51274 0.0
C1187 C 0.38115 0.06225 0.52757 0.0
C1188 C 0.33198 0.06659 0.51051 0.0
C1189 C 0.3301 0.09354 0.52349 0.0
H1190 H 0.35741 0.03049 0.50245 0.0
H1191 H 0.31388 0.05713 0.49885 0.0
S1192 S 0.3876 0.13181 0.56517 0.0
N1193 N 0.40177 0.10172 0.5555 0.0
N1194 N 0.35484 0.13056 0.55179 0.0
C1195 C 0.35416 0.10476 0.53856 0.0
C1196 C 0.37968 0.0892 0.54046 0.0
C1197 C 0.66436 0.46564 0.54474 0.0
C1198 C 0.64947 0.48244 0.52535 0.0
C1199 C 0.68538 0.44733 0.53549 0.0
C1200 C 0.69261 0.44511 0.50644 0.0
H1201 H 0.66022 0.46713 0.56739 0.0
H1202 H 0.69641 0.43522 0.5514 0.0
S1203 S 0.65816 0.48284 0.4467 0.0
N1204 N 0.64197 0.49416 0.47553 0.0
N1205 N 0.68192 0.46056 0.45814 0.0
C1206 C 0.67746 0.46146 0.48675 0.0
C1207 C 0.65585 0.47988 0.49618 0.0
C1208 C 0.7024 0.30494 0.41673 0.0
C1209 C 0.72675 0.29461 0.4033 0.0
C1210 C 0.70508 0.3246 0.43946 0.0
C1211 C 0.73217 0.33473 0.44904 0.0
H1212 H 0.68122 0.2982 0.40927 0.0
H1213 H 0.68595 0.33235 0.44916 0.0
S1214 S 0.80222 0.31051 0.42437 0.0
N1215 N 0.77857 0.29352 0.40349 0.0
N1216 N 0.78355 0.33024 0.44601 0.0
C1217 C 0.75653 0.32352 0.43668 0.0
C1218 C 0.75384 0.3036 0.41375 0.0
C1219 C 0.57291 0.99843 0.87637 0.0
C1220 C 0.55654 0.02064 0.88675 0.0
C1221 C 0.58739 1.0007 0.85023 0.0
C1222 C 0.58626 0.02538 0.83342 0.0
H1223 H 0.57467 0.97914 0.88864 0.0
H1224 H 0.60001 0.98314 0.84348 0.0
S1225 S 0.54615 0.08975 0.85131 0.0
N1226 N 0.54012 0.06813 0.87838 0.0
N1227 N 0.56663 0.07244 0.82926 0.0
C1228 C 0.56947 0.0476 0.84348 0.0
C1229 C 0.55481 0.04522 0.87007 0.0
C1230 C 0.27261 0.22987 0.41683 0.0
C1231 C 0.29947 0.24265 0.42349 0.0
C1232 C 0.26077 0.20773 0.43328 0.0
C1233 C 0.27516 0.19735 0.45737 0.0
H1234 H 0.26047 0.23714 0.39872 0.0
H1235 H 0.23985 0.19898 0.42709 0.0
S1236 S 0.34682 0.22318 0.48338 0.0
N1237 N 0.34074 0.24304 0.45522 0.0
N1238 N 0.31848 0.20127 0.48643 0.0
C1239 C 0.30252 0.20945 0.46385 0.0
C1240 C 0.31467 0.2321 0.44687 0.0
C1241 C 0.45846 0.50378 0.86344 0.0
C1242 C 0.46981 0.47792 0.87185 0.0
C1243 C 0.44049 0.50516 0.83926 0.0
C1244 C 0.43367 0.48081 0.82239 0.0
H1245 H 0.46314 0.52292 0.87585 0.0
H1246 H 0.43186 0.52544 0.83386 0.0
S1247 S 0.46031 0.40834 0.83482 0.0
N1248 N 0.47437 0.42791 0.86105 0.0
N1249 N 0.44127 0.43012 0.8158 0.0
C1250 C 0.44573 0.45497 0.83046 0.0
C1251 C 0.46362 0.45363 0.8551 0.0
C1252 C 0.70748 0.71389 0.11248 0.0
C1253 C 0.69574 0.73977 0.10446 0.0
C1254 C 0.71311 0.69281 0.09208 0.0
C1255 C 0.70698 0.69676 0.06295 0.0
H1256 H 0.71196 0.70973 0.13473 0.0
H1257 H 0.72189 0.67313 0.09922 0.0
S1258 S 0.67955 0.76205 0.03041 0.0
N1259 N 0.68082 0.76908 0.06494 0.0
N1260 N 0.69067 0.72942 0.02693 0.0
C1261 C 0.6959 0.72279 0.05462 0.0
C1262 C 0.69048 0.74428 0.07526 0.0
C1263 C 0.95495 0.03774 0.16119 0.0
C1264 C 0.98003 0.02348 0.15529 0.0
C1265 C 0.93562 0.0276 0.18196 0.0
C1266 C 0.9404 1.00252 0.19728 0.0
H1267 H 0.95059 0.05727 0.15016 0.0
H1268 H 0.91679 0.03954 0.18604 0.0
S1269 S 1.00251 0.95671 0.18862 0.0
N1270 N 0.00836 0.98274 0.16564 0.0
N1271 N 0.97202 0.96335 0.20435 0.0
C1272 C 0.96515 0.98771 0.19097 0.0
C1273 C 0.98497 0.99828 0.17011 0.0
C1274 C 0.31221 0.78697 0.08967 0.0
C1275 C 0.30793 0.78969 0.11925 0.0
C1276 C 0.30324 0.80759 0.07056 0.0
C1277 C 0.28936 0.8318 0.08011 0.0
H1278 H 0.32186 0.76828 0.08104 0.0
H1279 H 0.30646 0.80398 0.04799 0.0
S1280 S 0.27536 0.85052 0.15564 0.0
N1281 N 0.29085 0.81968 0.15739 0.0
N1282 N 0.27337 0.85822 0.12138 0.0
C1283 C 0.28565 0.83529 0.10969 0.0
C1284 C 0.295 0.81429 0.12925 0.0
C1285 C 0.04606 0.52934 0.15693 0.0
C1286 C 0.04542 0.50267 0.14321 0.0
C1287 C 0.06255 0.53461 0.18164 0.0
C1288 C 0.07913 0.51341 0.19386 0.0
H1289 H 0.03444 0.54663 0.14797 0.0
H1290 H 0.06272 0.5558 0.1908 0.0
S1291 S 0.08247 0.43893 0.1675 0.0
N1292 N 0.06103 0.45415 0.14464 0.0
N1293 N 0.09215 0.46388 0.19097 0.0
C1294 C 0.07782 0.48625 0.18084 0.0
C1295 C 0.06101 0.48096 0.15558 0.0
C1296 C 0.41534 0.73725 0.30322 0.0
C1297 C 0.41294 0.70935 0.2923 0.0
C1298 C 0.43431 0.74444 0.32559 0.0
C1299 C 0.45121 0.72391 0.33822 0.0
H1300 H 0.40308 0.75388 0.29385 0.0
H1301 H 0.43615 0.76639 0.33273 0.0
S1302 S 0.45229 0.64772 0.31849 0.0
N1303 N 0.42846 0.66084 0.2966 0.0
N1304 N 0.46451 0.67469 0.33844 0.0
C1305 C 0.44905 0.69598 0.32768 0.0
C1306 C 0.42966 0.68857 0.30492 0.0
C1307 C 1.00182 0.37253 0.94995 0.0
C1308 C 0.98201 0.37817 0.97154 0.0
C1309 C 1.00141 0.34614 0.9357 0.0
C1310 C 0.98095 0.32434 0.94224 0.0
H1311 H 0.0177 0.38876 0.94385 0.0
H1312 H 0.01673 0.34319 0.91884 0.0
S1313 S 0.92482 0.32816 0.99782 0.0
N1314 N 0.94177 0.35963 0.9992 0.0
N1315 N 0.94098 0.31008 0.97282 0.0
C1316 C 0.96143 0.32955 0.96433 0.0
C1317 C 0.96197 0.35639 0.97887 0.0
C1318 C 0.60595 0.80181 0.3113 0.0
C1319 C 0.59534 0.81299 0.28573 0.0
C1320 C 0.58762 0.79435 0.33392 0.0
C1321 C 0.55792 0.79778 0.33191 0.0
H1322 H 0.62861 0.79861 0.31378 0.0
H1323 H 0.59677 0.78525 0.3529 0.0
S1324 S 0.51933 0.82598 0.26932 0.0
N1325 N 0.55317 0.82685 0.25962 0.0
N1326 N 0.51887 0.8135 0.30214 0.0
C1327 C 0.54714 0.80953 0.30665 0.0
C1328 C 0.56578 0.81695 0.28359 0.0
C1329 C 0.99561 0.17136 0.99275 0.0
C1330 C 0.01851 0.15428 0.98568 0.0
C1331 C 0.98574 0.19171 0.97366 0.0
C1332 C 0.9988 0.19625 0.94697 0.0
H1333 H 0.98519 0.1689 0.01321 0.0
H1334 H 0.96804 0.20432 0.98009 0.0
S1335 S 0.05956 0.15686 0.9183 0.0
N1336 N 0.05383 0.14298 0.95013 0.0
N1337 N 0.03568 0.1814 0.91437 0.0
C1338 C 0.02174 0.17922 0.93966 0.0
C1339 C 0.03145 0.1582 0.95894 0.0
C1340 C 0.43296 0.30105 0.23899 0.0
C1341 C 0.40406 0.29192 0.24224 0.0
C1342 C 0.45044 0.28875 0.21844 0.0
C1343 C 0.43987 0.26647 0.20068 0.0
H1344 H 0.4425 0.3172 0.25306 0.0
H1345 H 0.47271 0.29592 0.2173 0.0
S1346 S 0.365 0.23721 0.19778 0.0
N1347 N 0.36497 0.2615 0.22332 0.0
N1348 N 0.39819 0.23732 0.18611 0.0
C1349 C 0.41086 0.25778 0.20303 0.0
C1350 C 0.39289 0.27074 0.22342 0.0
C1351 C 0.49778 0.34101 0.04712 0.0
C1352 C 0.51785 0.36365 0.05225 0.0
C1353 C 0.49298 0.31935 0.06724 0.0
C1354 C 0.50821 0.31935 0.09323 0.0
H1355 H 0.48615 0.33967 0.02707 0.0
H1356 H 0.47798 0.30195 0.06184 0.0
S1357 S 0.56201 0.37473 0.11771 0.0
N1358 N 0.55222 0.38534 0.08574 0.0
N1359 N 0.54303 0.34501 0.12367 0.0
C1360 C 0.52745 0.34255 0.09914 0.0
C1361 C 0.53229 0.36459 0.07865 0.0
C1362 C 0.60162 0.23705 0.22704 0.0
C1363 C 0.60677 0.21232 0.24258 0.0
C1364 C 0.57666 0.23942 0.21085 0.0
C1365 C 0.55557 0.21715 0.2094 0.0
H1366 H 0.61733 0.25465 0.22698 0.0
H1367 H 0.57429 0.25878 0.19884 0.0
S1368 S 0.55792 0.14844 0.24791 0.0
N1369 N 0.58828 0.16552 0.25673 0.0
N1370 N 0.54089 0.17004 0.2267 0.0
C1371 C 0.55981 0.19274 0.226 0.0
C1372 C 0.58547 0.19031 0.24247 0.0
C1373 C 0.48865 0.14921 0.06426 0.0
C1374 C 0.51337 0.13326 0.06221 0.0
C1375 C 0.48851 0.17419 0.08075 0.0
C1376 C 0.51293 0.18394 0.09603 0.0
H1377 H 0.4689 0.14179 0.05399 0.0
H1378 H 0.46896 0.18562 0.08206 0.0
S1379 S 0.58422 0.15287 0.09447 0.0
N1380 N 0.56392 0.13127 0.07425 0.0
N1381 N 0.56327 0.17796 0.1056 0.0
C1382 C 0.53823 0.16942 0.09273 0.0
C1383 C 0.53848 0.14401 0.07594 0.0
C1384 C 0.28271 0.439 0.69245 0.0
C1385 C 0.26772 0.4231 0.71344 0.0
C1386 C 0.30566 0.45794 0.69979 0.0
C1387 C 0.31476 0.46107 0.72826 0.0
H1388 H 0.2766 0.43688 0.67019 0.0
H1389 H 0.31681 0.46961 0.68308 0.0
S1390 S 0.28104 0.42729 0.79159 0.0
N1391 N 0.26287 0.41343 0.76421 0.0
N1392 N 0.30537 0.4495 0.77778 0.0
C1393 C 0.29932 0.44635 0.7495 0.0
C1394 C 0.27603 0.42716 0.74215 0.0
C1395 C 0.28342 0.58851 0.80702 0.0
C1396 C 0.29455 0.61679 0.80727 0.0
C1397 C 0.30127 0.56562 0.80246 0.0
C1398 C 0.33082 0.57025 0.79788 0.0
H1399 H 0.2606 0.58414 0.80884 0.0
H1400 H 0.29156 0.54436 0.80081 0.0
S1401 S 0.37116 0.63977 0.80182 0.0
N1402 N 0.33751 0.6477 0.8067 0.0
N1403 N 0.37082 0.6049 0.79755 0.0
C1404 C 0.34242 0.59822 0.80014 0.0
C1405 C 0.32435 0.62142 0.80497 0.0
C1406 C 0.86027 0.47831 0.48727 0.0
C1407 C 0.88046 0.46933 0.50722 0.0
C1408 C 0.83271 0.46549 0.48578 0.0
C1409 C 0.82408 0.44325 0.50429 0.0
H1410 H 0.8662 0.4945 0.47181 0.0
H1411 H 0.8184 0.47245 0.46922 0.0
S1412 S 0.86808 0.4144 0.56276 0.0
N1413 N 0.8893 0.43882 0.54768 0.0
N1414 N 0.83757 0.41453 0.54489 0.0
C1415 C 0.8436 0.43525 0.5255 0.0
C1416 C 0.87177 0.44826 0.52688 0.0
C1417 C 0.71342 0.90413 0.79765 0.0
C1418 C 0.73803 0.91293 0.81333 0.0
C1419 C 0.69251 0.92344 0.79027 0.0
C1420 C 0.6954 0.95237 0.79817 0.0
H1421 H 0.71033 0.88214 0.79093 0.0
H1422 H 0.67422 0.91569 0.77778 0.0
S1423 S 0.75614 0.9863 0.8391 0.0
N1424 N 0.76424 0.95263 0.83619 0.0
N1425 N 0.72496 0.98869 0.82288 0.0
C1426 C 0.71974 0.96131 0.81425 0.0
C1427 C 0.74101 0.94169 0.82167 0.0
C1428 C 0.66918 0.54118 0.98084 0.0
C1429 C 0.64816 0.53322 1.00094 0.0
C1430 C 0.69002 0.56262 0.98693 0.0
C1431 C 0.69062 0.57693 0.01332 0.0
H1432 H 0.66909 0.53124 0.95993 0.0
H1433 H 0.70556 0.56835 0.97069 0.0
S1434 S 0.6425 0.5622 0.07433 0.0
N1435 N 0.6305 0.54005 0.04905 0.0
N1436 N 0.67021 0.58015 0.06061 0.0
C1437 C 0.67073 0.56832 0.03414 0.0
C1438 C 0.64919 0.54669 0.02782 0.0
C1439 C 0.22854 0.59835 0.24469 0.0
C1440 C 0.23709 0.60302 0.21629 0.0
C1441 C 0.20719 0.57774 0.25138 0.0
C1442 C 0.19324 0.56138 0.22992 0.0
H1443 H 0.23833 0.6108 0.26193 0.0
H1444 H 0.2016 0.57454 0.27356 0.0
S1445 S 0.20883 0.56344 0.15264 0.0
N1446 N 0.23091 0.58809 0.16672 0.0
N1447 N 0.19038 0.54968 0.17953 0.0
C1448 C 0.20192 0.56519 0.2016 0.0
C1449 C 0.22372 0.58615 0.19469 0.0
C1450 C 0.85511 0.55585 1.00301 0.0
C1451 C 0.87601 0.56176 0.02419 0.0
C1452 C 0.83012 0.57132 1.00144 0.0
C1453 C 0.82487 0.59326 0.02109 0.0
H1454 H 0.85826 0.53934 0.98728 0.0
H1455 H 0.81475 0.5659 0.98471 0.0
S1456 S 0.87239 0.61623 0.08149 0.0
N1457 N 0.88939 0.59044 0.06582 0.0
N1458 N 0.8427 0.6196 0.06285 0.0
C1459 C 0.84557 0.59924 0.04251 0.0
C1460 C 0.87102 0.58351 0.04405 0.0
C1461 C 0.17331 0.99134 0.0148 0.0
C1462 C 0.14823 0.98183 0.02903 0.0
C1463 C 0.19442 0.97245 0.00711 0.0
C1464 C 0.19165 0.94342 0.01388 0.0
H1465 H 0.17701 0.01367 0.01004 0.0
H1466 H 0.2134 0.98077 0.99636 0.0
S1467 S 0.12927 0.90683 0.04811 0.0
N1468 N 0.12094 0.94056 0.04705 0.0
N1469 N 0.16138 0.90556 0.0339 0.0
C1470 C 0.16667 0.93344 0.02764 0.0
C1471 C 0.14481 0.9525 0.0349 0.0
loop_
_geom_bond_atom_site_label_1
_geom_bond_atom_site_label_2
_geom_bond_distance
_geom_bond_site_symmetry_2
_ccdc_geom_bond_type
P0 O11 1.490 . S
P0 C14 1.812 . S
P0 C20 1.803 . S
P0 C26 1.819 . S
H1 C15 0.941 . S
H2 C16 0.939 . S
H3 C18 0.940 . S
H4 C19 0.940 . S
H5 C21 0.939 . S
H6 C22 0.942 . S
H7 C24 0.940 . S
H8 C25 0.940 . S
H9 C27 0.941 . S
H10 C31 0.939 . S
O11 P0 1.490 . S
H12 C28 0.939 . S
H13 C30 0.940 . S
C14 P0 1.812 . S
C14 C15 1.389 . S
C14 C19 1.391 . S
C15 H1 0.941 . S
C15 C14 1.389 . S
C15 C16 1.397 . S
C16 H2 0.939 . S
C16 C15 1.397 . S
C16 C17 1.378 1_455 S
C17 C16 1.378 1_655 S
C17 C18 1.378 . S
C18 H3 0.940 . S
C18 C17 1.378 . S
C18 C19 1.396 1_655 S
C19 H4 0.940 . S
C19 C14 1.391 . S
C19 C18 1.396 1_455 S
C20 P0 1.803 . S
C20 C21 1.378 . S
C20 C25 1.386 1_545 S
C21 H5 0.939 . S
C21 C20 1.378 . S
C21 C22 1.361 . S
C22 H6 0.942 . S
C22 C21 1.361 . S
C22 C23 1.369 1_545 S
C23 C22 1.369 1_565 S
C23 C24 1.404 . S
C24 H7 0.940 . S
C24 C23 1.404 . S
C24 C25 1.402 . S
C25 H8 0.940 . S
C25 C20 1.386 1_565 S
C25 C24 1.402 . S
C26 P0 1.819 . S
C26 C27 1.391 . S
C26 C31 1.391 . S
C27 H9 0.941 . S
C27 C26 1.391 . S
C27 C28 1.396 . S
C28 H12 0.939 . S
C28 C27 1.396 . S
C28 C29 1.397 1_554 S
C29 C28 1.397 1_556 S
C29 C30 1.385 . S
C30 H13 0.940 . S
C30 C29 1.385 . S
C30 C31 1.388 1_556 S
C31 H10 0.939 . S
C31 C26 1.391 . S
C31 C30 1.388 1_554 S
P32 O43 1.490 . S
P32 C46 1.812 . S
P32 C52 1.803 . S
P32 C58 1.819 . S
H33 C47 0.941 . S
H34 C48 0.939 . S
H35 C50 0.940 . S
H36 C51 0.940 . S
H37 C53 0.939 . S
H38 C54 0.942 . S
H39 C56 0.940 . S
H40 C57 0.939 . S
H41 C59 0.941 . S
H42 C63 0.939 . S
O43 P32 1.490 . S
H44 C60 0.939 . S
H45 C62 0.940 . S
C46 P32 1.812 . S
C46 C47 1.389 . S
C46 C51 1.391 . S
C47 H33 0.941 . S
C47 C46 1.389 . S
C47 C48 1.397 . S
C48 H34 0.939 . S
C48 C47 1.397 . S
C48 C49 1.378 . S
C49 C48 1.378 . S
C49 C50 1.378 . S
C50 H35 0.940 . S
C50 C49 1.378 . S
C50 C51 1.396 . S
C51 H36 0.940 . S
C51 C46 1.391 . S
C51 C50 1.396 . S
C52 P32 1.803 . S
C52 C53 1.378 . S
C52 C57 1.400 . S
C53 H37 0.939 . S
C53 C52 1.378 . S
C53 C54 1.361 . S
C54 H38 0.942 . S
C54 C53 1.361 . S
C54 C55 1.369 . S
C55 C54 1.369 . S
C55 C56 1.404 . S
C56 H39 0.940 . S
C56 C55 1.404 . S
C56 C57 1.389 . S
C57 H40 0.939 . S
C57 C52 1.400 . S
C57 C56 1.389 . S
C58 P32 1.819 . S
C58 C59 1.391 . S
C58 C63 1.391 . S
C59 H41 0.941 . S
C59 C58 1.391 . S
C59 C60 1.396 . S
C60 H44 0.939 . S
C60 C59 1.396 . S
C60 C61 1.397 . S
C61 C60 1.397 . S
C61 C62 1.385 . S
C62 H45 0.940 . S
C62 C61 1.385 . S
C62 C63 1.388 . S
C63 H42 0.939 . S
C63 C58 1.391 . S
C63 C62 1.388 . S
P64 O75 1.490 1_654 S
P64 C78 1.811 . S
P64 C84 1.803 . S
P64 C90 1.819 1_655 S
H65 C79 0.941 . S
H66 C80 0.939 . S
H67 C82 0.940 . S
H68 C83 0.940 . S
H69 C85 0.939 . S
H70 C86 0.942 . S
H71 C88 0.940 . S
H72 C89 0.939 . S
H73 C91 0.941 . S
H74 C95 0.939 . S
O75 P64 1.490 1_456 S
H76 C92 0.939 . S
H77 C94 0.940 . S
C78 P64 1.811 . S
C78 C79 1.391 1_554 S
C78 C83 1.390 . S
C79 H65 0.941 . S
C79 C78 1.391 1_556 S
C79 C80 1.397 . S
C80 H66 0.939 . S
C80 C79 1.397 . S
C80 C81 1.378 . S
C81 C80 1.378 . S
C81 C82 1.378 1_556 S
C82 H67 0.940 . S
C82 C81 1.378 1_554 S
C82 C83 1.396 . S
C83 H68 0.940 . S
C83 C78 1.390 . S
C83 C82 1.396 . S
C84 P64 1.803 . S
C84 C85 1.378 . S
C84 C89 1.400 . S
C85 H69 0.939 . S
C85 C84 1.378 . S
C85 C86 1.361 . S
C86 H70 0.942 . S
C86 C85 1.361 . S
C86 C87 1.369 . S
C87 C86 1.369 . S
C87 C88 1.404 . S
C88 H71 0.940 . S
C88 C87 1.404 . S
C88 C89 1.389 . S
C89 H72 0.939 . S
C89 C84 1.400 . S
C89 C88 1.389 . S
C90 P64 1.819 1_455 S
C90 C91 1.391 . S
C90 C95 1.391 1_455 S
C91 H73 0.941 . S
C91 C90 1.391 . S
C91 C92 1.396 . S
C92 H76 0.939 . S
C92 C91 1.396 . S
C92 C93 1.397 . S
C93 C92 1.397 . S
C93 C94 1.385 1_455 S
C94 H77 0.940 . S
C94 C93 1.385 1_655 S
C94 C95 1.388 . S
C95 H74 0.939 . S
C95 C90 1.391 1_655 S
C95 C94 1.388 . S
P96 O107 1.490 . S
P96 C110 1.812 . S
P96 C116 1.803 . S
P96 C122 1.819 . S
H97 C111 0.941 . S
H98 C112 0.939 . S
H99 C114 0.940 . S
H100 C115 0.940 . S
H101 C117 0.939 . S
H102 C118 0.942 . S
H103 C120 0.940 . S
H104 C121 0.939 . S
H105 C123 0.941 . S
H106 C127 0.939 . S
O107 P96 1.490 . S
H108 C124 0.939 . S
H109 C126 0.940 . S
C110 P96 1.812 . S
C110 C111 1.389 . S
C110 C115 1.391 . S
C111 H97 0.941 . S
C111 C110 1.389 . S
C111 C112 1.397 . S
C112 H98 0.939 . S
C112 C111 1.397 . S
C112 C113 1.378 . S
C113 C112 1.378 . S
C113 C114 1.378 . S
C114 H99 0.940 . S
C114 C113 1.378 . S
C114 C115 1.396 . S
C115 H100 0.940 . S
C115 C110 1.391 . S
C115 C114 1.396 . S
C116 P96 1.803 . S
C116 C117 1.378 . S
C116 C121 1.400 . S
C117 H101 0.939 . S
C117 C116 1.378 . S
C117 C118 1.361 . S
C118 H102 0.942 . S
C118 C117 1.361 . S
C118 C119 1.369 . S
C119 C118 1.369 . S
C119 C120 1.404 . S
C120 H103 0.940 . S
C120 C119 1.404 . S
C120 C121 1.389 . S
C121 H104 0.939 . S
C121 C116 1.400 . S
C121 C120 1.389 . S
C122 P96 1.819 . S
C122 C123 1.391 . S
C122 C127 1.391 . S
C123 H105 0.941 . S
C123 C122 1.391 . S
C123 C124 1.396 . S
C124 H108 0.939 . S
C124 C123 1.396 . S
C124 C125 1.397 . S
C125 C124 1.397 . S
C125 C126 1.385 . S
C126 H109 0.940 . S
C126 C125 1.385 . S
C126 C127 1.388 . S
C127 H106 0.939 . S
C127 C122 1.391 . S
C127 C126 1.388 . S
P128 O139 1.490 . S
P128 C142 1.812 . S
P128 C148 1.803 . S
P128 C154 1.819 . S
H129 C143 0.941 . S
H130 C144 0.939 . S
H131 C146 0.940 . S
H132 C147 0.940 . S
H133 C149 0.939 . S
H134 C150 0.942 . S
H135 C152 0.940 . S
H136 C153 0.939 . S
H137 C155 0.941 . S
H138 C159 0.935 1_655 S
O139 P128 1.490 . S
H140 C156 0.939 . S
H141 C158 0.940 . S
C142 P128 1.812 . S
C142 C143 1.389 . S
C142 C147 1.391 1_565 S
C143 H129 0.941 . S
C143 C142 1.389 . S
C143 C144 1.397 1_565 S
C144 H130 0.939 . S
C144 C143 1.397 1_545 S
C144 C145 1.378 . S
C145 C144 1.378 . S
C145 C146 1.378 . S
C146 H131 0.940 . S
C146 C145 1.378 . S
C146 C147 1.396 . S
C147 H132 0.940 . S
C147 C142 1.391 1_545 S
C147 C146 1.396 . S
C148 P128 1.803 . S
C148 C149 1.378 . S
C148 C153 1.400 . S
C149 H133 0.939 . S
C149 C148 1.378 . S
C149 C150 1.361 . S
C150 H134 0.942 . S
C150 C149 1.361 . S
C150 C151 1.369 . S
C151 C150 1.369 . S
C151 C152 1.404 . S
C152 H135 0.940 . S
C152 C151 1.404 . S
C152 C153 1.389 . S
C153 H136 0.939 . S
C153 C148 1.400 . S
C153 C152 1.389 . S
C154 P128 1.819 . S
C154 C155 1.391 . S
C154 C159 1.420 . S
C155 H137 0.941 . S
C155 C154 1.391 . S
C155 C156 1.396 . S
C156 H140 0.939 . S
C156 C155 1.396 . S
C156 C157 1.397 1_455 S
C157 C156 1.397 1_655 S
C157 C158 1.385 . S
C158 H141 0.940 . S
C158 C157 1.385 . S
C158 C159 1.364 1_655 S
C159 H138 0.935 1_455 S
C159 C154 1.420 . S
C159 C158 1.364 1_455 S
P160 O171 1.490 . S
P160 C174 1.812 . S
P160 C180 1.803 . S
P160 C186 1.819 . S
H161 C175 0.941 . S
H162 C176 0.939 . S
H163 C178 0.940 . S
H164 C179 0.940 . S
H165 C181 0.939 . S
H166 C182 0.942 . S
H167 C184 0.940 . S
H168 C185 0.939 . S
H169 C187 0.941 . S
H170 C191 0.939 . S
O171 P160 1.490 . S
H172 C188 0.939 . S
H173 C190 0.940 . S
C174 P160 1.812 . S
C174 C175 1.389 . S
C174 C179 1.391 . S
C175 H161 0.941 . S
C175 C174 1.389 . S
C175 C176 1.397 . S
C176 H162 0.939 . S
C176 C175 1.397 . S
C176 C177 1.378 . S
C177 C176 1.378 . S
C177 C178 1.378 . S
C178 H163 0.940 . S
C178 C177 1.378 . S
C178 C179 1.396 . S
C179 H164 0.940 . S
C179 C174 1.391 . S
C179 C178 1.396 . S
C180 P160 1.803 . S
C180 C181 1.378 . S
C180 C185 1.400 . S
C181 H165 0.939 . S
C181 C180 1.378 . S
C181 C182 1.361 . S
C182 H166 0.942 . S
C182 C181 1.361 . S
C182 C183 1.369 . S
C183 C182 1.369 . S
C183 C184 1.404 . S
C184 H167 0.940 . S
C184 C183 1.404 . S
C184 C185 1.389 . S
C185 H168 0.939 . S
C185 C180 1.400 . S
C185 C184 1.389 . S
C186 P160 1.819 . S
C186 C187 1.391 . S
C186 C191 1.391 . S
C187 H169 0.941 . S
C187 C186 1.391 . S
C187 C188 1.396 . S
C188 H172 0.939 . S
C188 C187 1.396 . S
C188 C189 1.397 . S
C189 C188 1.397 . S
C189 C190 1.385 . S
C190 H173 0.940 . S
C190 C189 1.385 . S
C190 C191 1.388 . S
C191 H170 0.939 . S
C191 C186 1.391 . S
C191 C190 1.388 . S
P192 O203 1.490 1_655 S
P192 C206 1.812 1_655 S
P192 C212 1.803 . S
P192 C218 1.819 . S
H193 C207 0.941 . S
H194 C208 0.939 . S
H195 C210 0.927 1_655 S
H196 C211 0.940 . S
H197 C213 0.935 1_455 S
H198 C214 0.942 . S
H199 C216 0.940 . S
H200 C217 0.939 . S
H201 C219 0.941 . S
H202 C223 0.939 . S
O203 P192 1.490 1_455 S
H204 C220 0.939 . S
H205 C222 0.940 . S
C206 P192 1.812 1_455 S
C206 C207 1.389 . S
C206 C211 1.391 1_455 S
C207 H193 0.941 . S
C207 C206 1.389 . S
C207 C208 1.397 . S
C208 H194 0.939 . S
C208 C207 1.397 . S
C208 C209 1.378 . S
C209 C208 1.378 . S
C209 C210 1.398 . S
C210 H195 0.927 1_455 S
C210 C209 1.398 . S
C210 C211 1.389 1_455 S
C211 H196 0.940 . S
C211 C206 1.391 1_655 S
C211 C210 1.389 1_655 S
C212 P192 1.803 . S
C212 C213 1.378 . S
C212 C217 1.400 . S
C213 H197 0.935 1_655 S
C213 C212 1.378 . S
C213 C214 1.361 . S
C214 H198 0.942 . S
C214 C213 1.361 . S
C214 C215 1.369 . S
C215 C214 1.369 . S
C215 C216 1.404 . S
C216 H199 0.940 . S
C216 C215 1.404 . S
C216 C217 1.389 . S
C217 H200 0.939 . S
C217 C212 1.400 . S
C217 C216 1.389 . S
C218 P192 1.819 . S
C218 C219 1.391 . S
C218 C223 1.391 . S
C219 H201 0.941 . S
C219 C218 1.391 . S
C219 C220 1.396 . S
C220 H204 0.939 . S
C220 C219 1.396 . S
C220 C221 1.397 . S
C221 C220 1.397 . S
C221 C222 1.385 . S
C222 H205 0.940 . S
C222 C221 1.385 . S
C222 C223 1.388 . S
C223 H202 0.939 . S
C223 C218 1.391 . S
C223 C222 1.388 . S
P224 O235 1.490 . S
P224 C238 1.812 . S
P224 C244 1.803 . S
P224 C250 1.819 . S
H225 C239 0.941 . S
H226 C240 0.939 . S
H227 C242 0.940 . S
H228 C243 0.940 . S
H229 C245 0.939 . S
H230 C246 0.942 . S
H231 C248 0.940 . S
H232 C249 0.939 . S
H233 C251 0.941 . S
H234 C255 0.939 . S
O235 P224 1.490 . S
H236 C252 0.939 . S
H237 C254 0.940 . S
C238 P224 1.812 . S
C238 C239 1.389 . S
C238 C243 1.391 . S
C239 H225 0.941 . S
C239 C238 1.389 . S
C239 C240 1.397 . S
C240 H226 0.939 . S
C240 C239 1.397 . S
C240 C241 1.378 . S
C241 C240 1.378 . S
C241 C242 1.378 . S
C242 H227 0.940 . S
C242 C241 1.378 . S
C242 C243 1.396 . S
C243 H228 0.940 . S
C243 C238 1.391 . S
C243 C242 1.396 . S
C244 P224 1.803 . S
C244 C245 1.378 . S
C244 C249 1.400 . S
C245 H229 0.939 . S
C245 C244 1.378 . S
C245 C246 1.361 . S
C246 H230 0.942 . S
C246 C245 1.361 . S
C246 C247 1.369 . S
C247 C246 1.369 . S
C247 C248 1.404 . S
C248 H231 0.940 . S
C248 C247 1.404 . S
C248 C249 1.389 . S
C249 H232 0.939 . S
C249 C244 1.400 . S
C249 C248 1.389 . S
C250 P224 1.819 . S
C250 C251 1.391 . S
C250 C255 1.391 . S
C251 H233 0.941 . S
C251 C250 1.391 . S
C251 C252 1.396 . S
C252 H236 0.939 . S
C252 C251 1.396 . S
C252 C253 1.397 . S
C253 C252 1.397 . S
C253 C254 1.385 . S
C254 H237 0.940 . S
C254 C253 1.385 . S
C254 C255 1.388 . S
C255 H234 0.939 . S
C255 C250 1.391 . S
C255 C254 1.388 . S
P256 O267 1.490 . S
P256 C270 1.812 . S
P256 C276 1.803 . S
P256 C282 1.819 . S
H257 C271 0.941 . S
H258 C272 0.939 . S
H259 C274 0.940 . S
H260 C275 0.940 . S
H261 C277 0.939 . S
H262 C278 0.942 . S
H263 C280 0.940 . S
H264 C281 0.939 . S
H265 C283 0.941 . S
H266 C287 0.939 . S
O267 P256 1.490 . S
H268 C284 0.939 . S
H269 C286 0.940 . S
C270 P256 1.812 . S
C270 C271 1.389 . S
C270 C275 1.391 . S
C271 H257 0.941 . S
C271 C270 1.389 . S
C271 C272 1.397 . S
C272 H258 0.939 . S
C272 C271 1.397 . S
C272 C273 1.378 . S
C273 C272 1.378 . S
C273 C274 1.378 . S
C274 H259 0.940 . S
C274 C273 1.378 . S
C274 C275 1.396 . S
C275 H260 0.940 . S
C275 C270 1.391 . S
C275 C274 1.396 . S
C276 P256 1.803 . S
C276 C277 1.378 . S
C276 C281 1.400 . S
C277 H261 0.939 . S
C277 C276 1.378 . S
C277 C278 1.361 . S
C278 H262 0.942 . S
C278 C277 1.361 . S
C278 C279 1.369 . S
C279 C278 1.369 . S
C279 C280 1.404 . S
C280 H263 0.940 . S
C280 C279 1.404 . S
C280 C281 1.389 . S
C281 H264 0.939 . S
C281 C276 1.400 . S
C281 C280 1.389 . S
C282 P256 1.819 . S
C282 C283 1.391 . S
C282 C287 1.391 . S
C283 H265 0.941 . S
C283 C282 1.391 . S
C283 C284 1.396 . S
C284 H268 0.939 . S
C284 C283 1.396 . S
C284 C285 1.397 . S
C285 C284 1.397 . S
C285 C286 1.385 . S
C286 H269 0.940 . S
C286 C285 1.385 . S
C286 C287 1.388 . S
C287 H266 0.939 . S
C287 C282 1.391 . S
C287 C286 1.388 . S
P288 O299 1.490 1_565 S
P288 C302 1.812 . S
P288 C308 1.803 1_565 S
P288 C314 1.819 . S
H289 C303 0.941 . S
H290 C304 0.939 . S
H291 C306 0.940 . S
H292 C307 0.940 . S
H293 C309 0.939 . S
H294 C310 0.942 . S
H295 C312 0.942 . S
H296 C313 0.939 . S
H297 C315 0.941 . S
H298 C319 0.942 . S
O299 P288 1.490 1_545 S
H300 C316 0.939 . S
H301 C318 0.940 . S
C302 P288 1.812 . S
C302 C303 1.389 . S
C302 C307 1.391 . S
C303 H289 0.941 . S
C303 C302 1.389 . S
C303 C304 1.397 . S
C304 H290 0.939 . S
C304 C303 1.397 . S
C304 C305 1.378 . S
C305 C304 1.378 . S
C305 C306 1.378 . S
C306 H291 0.940 . S
C306 C305 1.378 . S
C306 C307 1.396 . S
C307 H292 0.940 . S
C307 C302 1.391 . S
C307 C306 1.396 . S
C308 P288 1.803 1_545 S
C308 C309 1.378 . S
C308 C313 1.400 1_545 S
C309 H293 0.939 . S
C309 C308 1.378 . S
C309 C310 1.361 . S
C310 H294 0.942 . S
C310 C309 1.361 . S
C310 C311 1.369 . S
C311 C310 1.369 . S
C311 C312 1.401 1_545 S
C312 H295 0.942 . S
C312 C311 1.401 1_565 S
C312 C313 1.390 . S
C313 H296 0.939 . S
C313 C308 1.400 1_565 S
C313 C312 1.390 . S
C314 P288 1.819 . S
C314 C315 1.391 . S
C314 C319 1.391 . S
C315 H297 0.941 . S
C315 C314 1.391 . S
C315 C316 1.396 . S
C316 H300 0.939 . S
C316 C315 1.396 . S
C316 C317 1.397 . S
C317 C316 1.397 . S
C317 C318 1.385 . S
C318 H301 0.940 . S
C318 C317 1.385 . S
C318 C319 1.388 . S
C319 H298 0.942 . S
C319 C314 1.391 . S
C319 C318 1.388 . S
P320 O331 1.490 . S
P320 C334 1.812 . S
P320 C340 1.803 . S
P320 C346 1.819 . S
H321 C335 0.941 . S
H322 C336 0.939 . S
H323 C338 0.940 . S
H324 C339 0.940 . S
H325 C341 0.939 . S
H326 C342 0.942 . S
H327 C344 0.940 . S
H328 C345 0.939 . S
H329 C347 0.941 . S
H330 C351 0.939 . S
O331 P320 1.490 . S
H332 C348 0.939 . S
H333 C350 0.940 . S
C334 P320 1.812 . S
C334 C335 1.389 . S
C334 C339 1.391 . S
C335 H321 0.941 . S
C335 C334 1.389 . S
C335 C336 1.397 . S
C336 H322 0.939 . S
C336 C335 1.397 . S
C336 C337 1.378 . S
C337 C336 1.378 . S
C337 C338 1.378 . S
C338 H323 0.940 . S
C338 C337 1.378 . S
C338 C339 1.396 . S
C339 H324 0.940 . S
C339 C334 1.391 . S
C339 C338 1.396 . S
C340 P320 1.803 . S
C340 C341 1.378 . S
C340 C345 1.400 . S
C341 H325 0.939 . S
C341 C340 1.378 . S
C341 C342 1.361 . S
C342 H326 0.942 . S
C342 C341 1.361 . S
C342 C343 1.369 . S
C343 C342 1.369 . S
C343 C344 1.404 . S
C344 H327 0.940 . S
C344 C343 1.404 . S
C344 C345 1.389 . S
C345 H328 0.939 . S
C345 C340 1.400 . S
C345 C344 1.389 . S
C346 P320 1.819 . S
C346 C347 1.391 . S
C346 C351 1.391 . S
C347 H329 0.941 . S
C347 C346 1.391 . S
C347 C348 1.396 . S
C348 H332 0.939 . S
C348 C347 1.396 . S
C348 C349 1.397 . S
C349 C348 1.397 . S
C349 C350 1.385 . S
C350 H333 0.940 . S
C350 C349 1.385 . S
C350 C351 1.388 . S
C351 H330 0.939 . S
C351 C346 1.391 . S
C351 C350 1.388 . S
P352 O363 1.490 . S
P352 C366 1.812 . S
P352 C372 1.803 . S
P352 C378 1.819 . S
H353 C367 0.941 . S
H354 C368 0.939 . S
H355 C370 0.940 . S
H356 C371 0.940 . S
H357 C373 0.939 . S
H358 C374 0.942 . S
H359 C376 0.940 . S
H360 C377 0.939 . S
H361 C379 0.941 . S
H362 C383 0.939 . S
O363 P352 1.490 . S
H364 C380 0.939 . S
H365 C382 0.940 . S
C366 P352 1.812 . S
C366 C367 1.389 . S
C366 C371 1.391 . S
C367 H353 0.941 . S
C367 C366 1.389 . S
C367 C368 1.397 . S
C368 H354 0.939 . S
C368 C367 1.397 . S
C368 C369 1.378 . S
C369 C368 1.378 . S
C369 C370 1.378 . S
C370 H355 0.940 . S
C370 C369 1.378 . S
C370 C371 1.396 . S
C371 H356 0.940 . S
C371 C366 1.391 . S
C371 C370 1.396 . S
C372 P352 1.803 . S
C372 C373 1.378 . S
C372 C377 1.400 . S
C373 H357 0.939 . S
C373 C372 1.378 . S
C373 C374 1.361 . S
C374 H358 0.942 . S
C374 C373 1.361 . S
C374 C375 1.369 . S
C375 C374 1.369 . S
C375 C376 1.404 . S
C376 H359 0.940 . S
C376 C375 1.404 . S
C376 C377 1.389 . S
C377 H360 0.939 . S
C377 C372 1.400 . S
C377 C376 1.389 . S
C378 P352 1.819 . S
C378 C379 1.391 . S
C378 C383 1.391 . S
C379 H361 0.941 . S
C379 C378 1.391 . S
C379 C380 1.396 . S
C380 H364 0.939 . S
C380 C379 1.396 . S
C380 C381 1.397 . S
C381 C380 1.397 . S
C381 C382 1.385 . S
C382 H365 0.940 . S
C382 C381 1.385 . S
C382 C383 1.388 . S
C383 H362 0.939 . S
C383 C378 1.391 . S
C383 C382 1.388 . S
P384 O395 1.490 . S
P384 C398 1.812 . S
P384 C404 1.803 . S
P384 C410 1.819 . S
H385 C399 0.941 . S
H386 C400 0.939 . S
H387 C402 0.940 . S
H388 C403 0.940 . S
H389 C405 0.939 . S
H390 C406 0.942 . S
H391 C408 0.940 . S
H392 C409 0.939 . S
H393 C411 0.941 . S
H394 C415 0.939 . S
O395 P384 1.490 . S
H396 C412 0.939 . S
H397 C414 0.940 . S
C398 P384 1.812 . S
C398 C399 1.389 . S
C398 C403 1.391 . S
C399 H385 0.941 . S
C399 C398 1.389 . S
C399 C400 1.397 . S
C400 H386 0.939 . S
C400 C399 1.397 . S
C400 C401 1.378 . S
C401 C400 1.378 . S
C401 C402 1.378 . S
C402 H387 0.940 . S
C402 C401 1.378 . S
C402 C403 1.396 . S
C403 H388 0.940 . S
C403 C398 1.391 . S
C403 C402 1.396 . S
C404 P384 1.803 . S
C404 C405 1.378 . S
C404 C409 1.400 . S
C405 H389 0.939 . S
C405 C404 1.378 . S
C405 C406 1.361 . S
C406 H390 0.942 . S
C406 C405 1.361 . S
C406 C407 1.369 . S
C407 C406 1.369 . S
C407 C408 1.404 . S
C408 H391 0.940 . S
C408 C407 1.404 . S
C408 C409 1.389 . S
C409 H392 0.939 . S
C409 C404 1.400 . S
C409 C408 1.389 . S
C410 P384 1.819 . S
C410 C411 1.391 . S
C410 C415 1.391 . S
C411 H393 0.941 . S
C411 C410 1.391 . S
C411 C412 1.396 . S
C412 H396 0.939 . S
C412 C411 1.396 . S
C412 C413 1.397 . S
C413 C412 1.397 . S
C413 C414 1.385 . S
C414 H397 0.940 . S
C414 C413 1.385 . S
C414 C415 1.388 . S
C415 H394 0.939 . S
C415 C410 1.391 . S
C415 C414 1.388 . S
P416 O427 1.490 . S
P416 C430 1.812 . S
P416 C436 1.803 . S
P416 C442 1.819 . S
H417 C431 0.941 . S
H418 C432 0.939 . S
H419 C434 0.940 . S
H420 C435 0.940 . S
H421 C437 0.939 . S
H422 C438 0.942 . S
H423 C440 0.940 . S
H424 C441 0.939 . S
H425 C443 0.941 . S
H426 C447 0.939 . S
O427 P416 1.490 . S
H428 C444 0.939 . S
H429 C446 0.940 . S
C430 P416 1.812 . S
C430 C431 1.389 . S
C430 C435 1.391 . S
C431 H417 0.941 . S
C431 C430 1.389 . S
C431 C432 1.397 . S
C432 H418 0.939 . S
C432 C431 1.397 . S
C432 C433 1.378 . S
C433 C432 1.378 . S
C433 C434 1.378 . S
C434 H419 0.940 . S
C434 C433 1.378 . S
C434 C435 1.396 . S
C435 H420 0.940 . S
C435 C430 1.391 . S
C435 C434 1.396 . S
C436 P416 1.803 . S
C436 C437 1.378 . S
C436 C441 1.400 1_556 S
C437 H421 0.939 . S
C437 C436 1.378 . S
C437 C438 1.361 1_556 S
C438 H422 0.942 . S
C438 C437 1.361 1_554 S
C438 C439 1.369 . S
C439 C438 1.369 . S
C439 C440 1.404 . S
C440 H423 0.940 . S
C440 C439 1.404 . S
C440 C441 1.389 . S
C441 H424 0.939 . S
C441 C436 1.400 1_554 S
C441 C440 1.389 . S
C442 P416 1.819 . S
C442 C443 1.391 . S
C442 C447 1.391 . S
C443 H425 0.941 . S
C443 C442 1.391 . S
C443 C444 1.396 . S
C444 H428 0.939 . S
C444 C443 1.396 . S
C444 C445 1.397 . S
C445 C444 1.397 . S
C445 C446 1.385 . S
C446 H429 0.940 . S
C446 C445 1.385 . S
C446 C447 1.388 . S
C447 H426 0.939 . S
C447 C442 1.391 . S
C447 C446 1.388 . S
P448 O459 1.490 . S
P448 C462 1.812 . S
P448 C468 1.803 . S
P448 C474 1.819 . S
H449 C463 0.941 . S
H450 C464 0.939 . S
H451 C466 0.940 . S
H452 C467 0.940 . S
H453 C469 0.939 . S
H454 C470 0.942 . S
H455 C472 0.940 . S
H456 C473 0.939 . S
H457 C475 0.941 . S
H458 C479 0.939 . S
O459 P448 1.490 . S
H460 C476 0.939 . S
H461 C478 0.940 . S
C462 P448 1.812 . S
C462 C463 1.389 . S
C462 C467 1.391 . S
C463 H449 0.941 . S
C463 C462 1.389 . S
C463 C464 1.397 . S
C464 H450 0.939 . S
C464 C463 1.397 . S
C464 C465 1.378 . S
C465 C464 1.378 . S
C465 C466 1.378 . S
C466 H451 0.940 . S
C466 C465 1.378 . S
C466 C467 1.396 . S
C467 H452 0.940 . S
C467 C462 1.391 . S
C467 C466 1.396 . S
C468 P448 1.803 . S
C468 C469 1.378 . S
C468 C473 1.400 . S
C469 H453 0.939 . S
C469 C468 1.378 . S
C469 C470 1.361 . S
C470 H454 0.942 . S
C470 C469 1.361 . S
C470 C471 1.369 . S
C471 C470 1.369 . S
C471 C472 1.404 . S
C472 H455 0.940 . S
C472 C471 1.404 . S
C472 C473 1.389 . S
C473 H456 0.939 . S
C473 C468 1.400 . S
C473 C472 1.389 . S
C474 P448 1.819 . S
C474 C475 1.391 . S
C474 C479 1.391 . S
C475 H457 0.941 . S
C475 C474 1.391 . S
C475 C476 1.396 . S
C476 H460 0.939 . S
C476 C475 1.396 . S
C476 C477 1.397 . S
C477 C476 1.397 . S
C477 C478 1.385 . S
C478 H461 0.940 . S
C478 C477 1.385 . S
C478 C479 1.388 . S
C479 H458 0.939 . S
C479 C474 1.391 . S
C479 C478 1.388 . S
P480 O491 1.487 1_545 S
P480 C494 1.812 1_554 S
P480 C500 1.803 . S
P480 C506 1.817 1_554 S
H481 C495 0.941 . S
H482 C496 0.939 . S
H483 C498 0.940 . S
H484 C499 0.940 . S
H485 C501 0.939 . S
H486 C502 0.942 . S
H487 C504 0.940 1_556 S
H488 C505 0.939 . S
H489 C507 0.941 . S
H490 C511 0.939 . S
O491 P480 1.487 1_565 S
H492 C508 0.939 . S
H493 C510 0.940 . S
C494 P480 1.812 1_556 S
C494 C495 1.389 . S
C494 C499 1.391 . S
C495 H481 0.941 . S
C495 C494 1.389 . S
C495 C496 1.397 . S
C496 H482 0.939 . S
C496 C495 1.397 . S
C496 C497 1.378 . S
C497 C496 1.378 . S
C497 C498 1.378 . S
C498 H483 0.940 . S
C498 C497 1.378 . S
C498 C499 1.396 . S
C499 H484 0.940 . S
C499 C494 1.391 . S
C499 C498 1.396 . S
C500 P480 1.803 . S
C500 C501 1.378 . S
C500 C505 1.400 1_554 S
C501 H485 0.939 . S
C501 C500 1.378 . S
C501 C502 1.361 . S
C502 H486 0.942 . S
C502 C501 1.361 . S
C502 C503 1.369 . S
C503 C502 1.369 . S
C503 C504 1.404 . S
C504 H487 0.940 1_554 S
C504 C503 1.404 . S
C504 C505 1.389 1_554 S
C505 H488 0.939 . S
C505 C500 1.400 1_556 S
C505 C504 1.389 1_556 S
C506 P480 1.817 1_556 S
C506 C507 1.398 1_545 S
C506 C511 1.387 1_556 S
C507 H489 0.941 . S
C507 C506 1.398 1_565 S
C507 C508 1.396 . S
C508 H492 0.939 . S
C508 C507 1.396 . S
C508 C509 1.397 . S
C509 C508 1.397 . S
C509 C510 1.385 1_566 S
C510 H493 0.940 . S
C510 C509 1.385 1_544 S
C510 C511 1.388 . S
C511 H490 0.939 . S
C511 C506 1.387 1_554 S
C511 C510 1.388 . S
Mn512 O517 2.095 . S
Mn512 O527 2.162 . S
Mn512 O528 2.297 . S
Mn512 O536 2.371 1_554 S
Mn512 O537 2.209 1_554 S
Mn512 O538 2.094 . S
Mn513 O518 2.121 . S
Mn513 N520 2.257 . S
Mn513 N529 2.282 . S
Mn513 O537 2.215 . S
Mn513 O539 2.117 . S
C514 O536 1.260 . S
C514 O537 1.283 . S
C515 O527 1.281 . S
C515 O528 1.236 . S
C516 O538 1.240 . S
C516 O539 1.264 1_554 S
O517 Mn512 2.095 . S
O517 C526 1.250 . S
O518 Mn513 2.121 . S
O518 C526 1.258 1_556 S
C519 N520 1.326 . S
C519 C523 1.460 . S
C519 H525 0.929 . S
N520 Mn513 2.257 . S
N520 C519 1.326 . S
N520 C524 1.362 . S
C521 C522 1.258 . S
C521 C524 1.431 . S
C521 C541 1.449 . S
C522 C521 1.258 . S
C522 C523 1.477 . S
C522 H542 0.931 . S
C523 C519 1.460 . S
C523 C522 1.477 . S
C523 H543 0.930 . S
C524 N520 1.362 . S
C524 C521 1.431 . S
C524 C534 1.476 . S
H525 C519 0.929 . S
C526 O517 1.250 . S
C526 O518 1.258 1_554 S
O527 Mn512 2.162 . S
O527 C515 1.281 . S
O528 Mn512 2.297 . S
O528 C515 1.236 . S
N529 Mn513 2.282 . S
N529 C530 1.328 . S
N529 C534 1.318 . S
C530 N529 1.328 . S
C530 C531 1.457 . S
C530 H535 0.929 . S
C531 C530 1.457 . S
C531 C532 1.291 . S
C531 H544 0.931 . S
C532 C531 1.291 . S
C532 C533 1.373 . S
C532 H545 0.929 . S
C533 C532 1.373 . S
C533 C534 1.396 . S
C533 C540 1.403 . S
C534 C524 1.476 . S
C534 N529 1.318 . S
C534 C533 1.396 . S
H535 C530 0.929 . S
O536 Mn512 2.371 1_556 S
O536 C514 1.260 . S
O537 Mn512 2.209 1_556 S
O537 Mn513 2.215 . S
O537 C514 1.283 . S
O538 Mn512 2.094 . S
O538 C516 1.240 . S
O539 Mn513 2.117 . S
O539 C516 1.264 1_556 S
C540 C533 1.403 . S
C540 C541 1.399 . S
C540 H546 0.929 . S
C541 C521 1.449 . S
C541 C540 1.399 . S
C541 H547 0.930 . S
H542 C522 0.931 . S
H543 C523 0.930 . S
H544 C531 0.931 . S
H545 C532 0.929 . S
H546 C540 0.929 . S
H547 C541 0.930 . S
Mn548 O553 2.095 . S
Mn548 O563 2.162 . S
Mn548 O564 2.297 . S
Mn548 O572 2.385 . S
Mn548 O573 2.209 . S
Mn548 O574 2.094 . S
Mn549 O554 2.121 . S
Mn549 N556 2.257 . S
Mn549 N565 2.282 . S
Mn549 O573 2.215 . S
Mn549 O575 2.117 . S
C550 O572 1.234 . S
C550 O573 1.283 . S
C551 O563 1.281 . S
C551 O564 1.236 . S
C552 O574 1.240 . S
C552 O575 1.264 . S
O553 Mn548 2.095 . S
O553 C562 1.250 . S
O554 Mn549 2.121 . S
O554 C562 1.258 . S
C555 N556 1.326 . S
C555 C559 1.460 . S
C555 H561 0.929 . S
N556 Mn549 2.257 . S
N556 C555 1.326 . S
N556 C560 1.362 . S
C557 C558 1.258 . S
C557 C560 1.431 . S
C557 C577 1.449 . S
C558 C557 1.258 . S
C558 C559 1.477 . S
C558 H578 0.931 . S
C559 C555 1.460 . S
C559 C558 1.477 . S
C559 H579 0.930 . S
C560 N556 1.362 . S
C560 C557 1.431 . S
C560 C570 1.476 . S
H561 C555 0.929 . S
C562 O553 1.250 . S
C562 O554 1.258 . S
O563 Mn548 2.162 . S
O563 C551 1.281 . S
O564 Mn548 2.297 . S
O564 C551 1.236 . S
N565 Mn549 2.282 . S
N565 C566 1.328 . S
N565 C570 1.318 . S
C566 N565 1.328 . S
C566 C567 1.457 . S
C566 H571 0.929 . S
C567 C566 1.457 . S
C567 C568 1.291 . S
C567 H580 0.931 . S
C568 C567 1.291 . S
C568 C569 1.373 . S
C568 H581 0.929 . S
C569 C568 1.373 . S
C569 C570 1.396 . S
C569 C576 1.403 . S
C570 C560 1.476 . S
C570 N565 1.318 . S
C570 C569 1.396 . S
H571 C566 0.929 . S
O572 Mn548 2.385 . S
O572 C550 1.234 . S
O573 Mn548 2.209 . S
O573 Mn549 2.215 . S
O573 C550 1.283 . S
O574 Mn548 2.094 . S
O574 C552 1.240 . S
O575 Mn549 2.117 . S
O575 C552 1.264 . S
C576 C569 1.403 . S
C576 C577 1.399 . S
C576 H582 0.929 . S
C577 C557 1.449 . S
C577 C576 1.399 . S
C577 H583 0.930 . S
H578 C558 0.931 . S
H579 C559 0.930 . S
H580 C567 0.931 . S
H581 C568 0.929 . S
H582 C576 0.929 . S
H583 C577 0.930 . S
Mn584 O589 2.095 1_554 S
Mn584 O599 2.162 . S
Mn584 O600 2.297 1_554 S
Mn584 O608 2.385 . S
Mn584 O609 2.209 1_554 S
Mn584 O610 2.094 . S
Mn585 O590 2.121 . S
Mn585 N592 2.257 . S
Mn585 N601 2.288 . S
Mn585 O609 2.215 . S
Mn585 O611 2.117 1_556 S
C586 O608 1.234 . S
C586 O609 1.283 1_554 S
C587 O599 1.281 . S
C587 O600 1.236 1_554 S
C588 O610 1.240 . S
C588 O611 1.264 . S
O589 Mn584 2.095 1_556 S
O589 C598 1.250 . S
O590 Mn585 2.121 . S
O590 C598 1.258 . S
C591 N592 1.326 . S
C591 C595 1.460 . S
C591 H597 0.929 . S
N592 Mn585 2.257 . S
N592 C591 1.326 . S
N592 C596 1.362 . S
C593 C594 1.258 . S
C593 C596 1.431 . S
C593 C613 1.449 . S
C594 C593 1.258 . S
C594 C595 1.477 . S
C594 H614 0.931 . S
C595 C591 1.460 . S
C595 C594 1.477 . S
C595 H615 0.930 . S
C596 N592 1.362 . S
C596 C593 1.431 . S
C596 C606 1.476 . S
H597 C591 0.929 . S
C598 O589 1.250 . S
C598 O590 1.258 . S
O599 Mn584 2.162 . S
O599 C587 1.281 . S
O600 Mn584 2.297 1_556 S
O600 C587 1.236 1_556 S
N601 Mn585 2.288 . S
N601 C602 1.312 1_556 S
N601 C606 1.328 . S
C602 N601 1.312 1_554 S
C602 C603 1.457 . S
C602 H607 0.929 . S
C603 C602 1.457 . S
C603 C604 1.291 . S
C603 H616 0.931 . S
C604 C603 1.291 . S
C604 C605 1.373 1_554 S
C604 H617 0.929 . S
C605 C604 1.373 1_556 S
C605 C606 1.396 . S
C605 C612 1.403 . S
C606 C596 1.476 . S
C606 N601 1.328 . S
C606 C605 1.396 . S
H607 C602 0.929 . S
O608 Mn584 2.385 . S
O608 C586 1.234 . S
O609 Mn584 2.209 1_556 S
O609 Mn585 2.215 . S
O609 C586 1.283 1_556 S
O610 Mn584 2.094 . S
O610 C588 1.240 . S
O611 Mn585 2.117 1_554 S
O611 C588 1.264 . S
C612 C605 1.403 . S
C612 C613 1.399 . S
C612 H618 0.929 . S
C613 C593 1.449 . S
C613 C612 1.399 . S
C613 H619 0.930 . S
H614 C594 0.931 . S
H615 C595 0.930 . S
H616 C603 0.931 . S
H617 C604 0.929 . S
H618 C612 0.929 . S
H619 C613 0.930 . S
Mn620 O625 2.095 . S
Mn620 O635 2.162 . S
Mn620 O636 2.297 . S
Mn620 O644 2.385 1_545 S
Mn620 O645 2.209 1_545 S
Mn620 O646 2.094 . S
Mn621 O626 2.121 . S
Mn621 N628 2.257 . S
Mn621 N637 2.282 . S
Mn621 O645 2.215 . S
Mn621 O647 2.117 . S
C622 O644 1.234 . S
C622 O645 1.283 . S
C623 O635 1.281 . S
C623 O636 1.236 . S
C624 O646 1.240 . S
C624 O647 1.264 1_545 S
O625 Mn620 2.095 . S
O625 C634 1.250 1_545 S
O626 Mn621 2.121 . S
O626 C634 1.258 . S
C627 N628 1.326 . S
C627 C631 1.460 . S
C627 H633 0.929 . S
N628 Mn621 2.257 . S
N628 C627 1.326 . S
N628 C632 1.362 . S
C629 C630 1.258 . S
C629 C632 1.431 . S
C629 C649 1.449 . S
C630 C629 1.258 . S
C630 C631 1.477 . S
C630 H650 0.931 . S
C631 C627 1.460 . S
C631 C630 1.477 . S
C631 H651 0.930 . S
C632 N628 1.362 . S
C632 C629 1.431 . S
C632 C642 1.476 . S
H633 C627 0.929 . S
C634 O625 1.250 1_565 S
C634 O626 1.258 . S
O635 Mn620 2.162 . S
O635 C623 1.281 . S
O636 Mn620 2.297 . S
O636 C623 1.236 . S
N637 Mn621 2.282 . S
N637 C638 1.328 . S
N637 C642 1.318 . S
C638 N637 1.328 . S
C638 C639 1.457 . S
C638 H643 0.929 . S
C639 C638 1.457 . S
C639 C640 1.291 . S
C639 H652 0.931 . S
C640 C639 1.291 . S
C640 C641 1.373 . S
C640 H653 0.929 . S
C641 C640 1.373 . S
C641 C642 1.396 . S
C641 C648 1.403 . S
C642 C632 1.476 . S
C642 N637 1.318 . S
C642 C641 1.396 . S
H643 C638 0.929 . S
O644 Mn620 2.385 1_565 S
O644 C622 1.234 . S
O645 Mn620 2.209 1_565 S
O645 Mn621 2.215 . S
O645 C622 1.283 . S
O646 Mn620 2.094 . S
O646 C624 1.240 . S
O647 Mn621 2.117 . S
O647 C624 1.264 1_565 S
C648 C641 1.403 . S
C648 C649 1.399 . S
C648 H654 0.929 . S
C649 C629 1.449 . S
C649 C648 1.399 . S
C649 H655 0.930 . S
H650 C630 0.931 . S
H651 C631 0.930 . S
H652 C639 0.931 . S
H653 C640 0.929 . S
H654 C648 0.929 . S
H655 C649 0.930 . S
Mn656 O661 2.095 . S
Mn656 O671 2.162 . S
Mn656 O672 2.297 . S
Mn656 O680 2.385 . S
Mn656 O681 2.209 . S
Mn656 O682 2.094 . S
Mn657 O662 2.121 . S
Mn657 N664 2.257 . S
Mn657 N673 2.282 . S
Mn657 O681 2.215 . S
Mn657 O683 2.117 . S
C658 O680 1.234 . S
C658 O681 1.283 . S
C659 O671 1.281 . S
C659 O672 1.236 . S
C660 O682 1.240 . S
C660 O683 1.264 . S
O661 Mn656 2.095 . S
O661 C670 1.250 . S
O662 Mn657 2.121 . S
O662 C670 1.258 . S
C663 N664 1.326 . S
C663 C667 1.460 . S
C663 H669 0.929 . S
N664 Mn657 2.257 . S
N664 C663 1.326 . S
N664 C668 1.362 . S
C665 C666 1.258 . S
C665 C668 1.431 . S
C665 C685 1.449 . S
C666 C665 1.258 . S
C666 C667 1.477 . S
C666 H686 0.931 . S
C667 C663 1.460 . S
C667 C666 1.477 . S
C667 H687 0.930 . S
C668 N664 1.362 . S
C668 C665 1.431 . S
C668 C678 1.476 . S
H669 C663 0.929 . S
C670 O661 1.250 . S
C670 O662 1.258 . S
O671 Mn656 2.162 . S
O671 C659 1.281 . S
O672 Mn656 2.297 . S
O672 C659 1.236 . S
N673 Mn657 2.282 . S
N673 C674 1.328 . S
N673 C678 1.318 . S
C674 N673 1.328 . S
C674 C675 1.457 . S
C674 H679 0.929 . S
C675 C674 1.457 . S
C675 C676 1.291 . S
C675 H688 0.931 . S
C676 C675 1.291 . S
C676 C677 1.373 . S
C676 H689 0.929 . S
C677 C676 1.373 . S
C677 C678 1.396 . S
C677 C684 1.403 . S
C678 C668 1.476 . S
C678 N673 1.318 . S
C678 C677 1.396 . S
H679 C674 0.929 . S
O680 Mn656 2.385 . S
O680 C658 1.234 . S
O681 Mn656 2.209 . S
O681 Mn657 2.215 . S
O681 C658 1.283 . S
O682 Mn656 2.094 . S
O682 C660 1.240 . S
O683 Mn657 2.117 . S
O683 C660 1.264 . S
C684 C677 1.403 . S
C684 C685 1.399 . S
C684 H690 0.929 . S
C685 C665 1.449 . S
C685 C684 1.399 . S
C685 H691 0.930 . S
H686 C666 0.931 . S
H687 C667 0.930 . S
H688 C675 0.931 . S
H689 C676 0.929 . S
H690 C684 0.929 . S
H691 C685 0.930 . S
Mn692 O697 2.095 . S
Mn692 O707 2.162 . S
Mn692 O708 2.297 . S
Mn692 O716 2.385 . S
Mn692 O717 2.209 . S
Mn692 O718 2.094 . S
Mn693 O698 2.121 . S
Mn693 N700 2.257 . S
Mn693 N709 2.282 . S
Mn693 O717 2.215 . S
Mn693 O719 2.117 . S
C694 O716 1.234 . S
C694 O717 1.283 . S
C695 O707 1.281 . S
C695 O708 1.236 . S
C696 O718 1.240 . S
C696 O719 1.264 . S
O697 Mn692 2.095 . S
O697 C706 1.250 . S
O698 Mn693 2.121 . S
O698 C706 1.258 . S
C699 N700 1.326 . S
C699 C703 1.460 . S
C699 H705 0.929 . S
N700 Mn693 2.257 . S
N700 C699 1.326 . S
N700 C704 1.362 . S
C701 C702 1.258 . S
C701 C704 1.431 . S
C701 C721 1.449 . S
C702 C701 1.258 . S
C702 C703 1.477 . S
C702 H722 0.931 . S
C703 C699 1.460 . S
C703 C702 1.477 . S
C703 H723 0.930 . S
C704 N700 1.362 . S
C704 C701 1.431 . S
C704 C714 1.476 . S
H705 C699 0.929 . S
C706 O697 1.250 . S
C706 O698 1.258 . S
O707 Mn692 2.162 . S
O707 C695 1.281 . S
O708 Mn692 2.297 . S
O708 C695 1.236 . S
N709 Mn693 2.282 . S
N709 C710 1.328 . S
N709 C714 1.318 . S
C710 N709 1.328 . S
C710 C711 1.457 . S
C710 H715 0.929 . S
C711 C710 1.457 . S
C711 C712 1.291 . S
C711 H724 0.931 . S
C712 C711 1.291 . S
C712 C713 1.373 . S
C712 H725 0.929 . S
C713 C712 1.373 . S
C713 C714 1.396 . S
C713 C720 1.403 . S
C714 C704 1.476 . S
C714 N709 1.318 . S
C714 C713 1.396 . S
H715 C710 0.929 . S
O716 Mn692 2.385 . S
O716 C694 1.234 . S
O717 Mn692 2.209 . S
O717 Mn693 2.215 . S
O717 C694 1.283 . S
O718 Mn692 2.094 . S
O718 C696 1.240 . S
O719 Mn693 2.117 . S
O719 C696 1.264 . S
C720 C713 1.403 . S
C720 C721 1.399 . S
C720 H726 0.929 . S
C721 C701 1.449 . S
C721 C720 1.399 . S
C721 H727 0.930 . S
H722 C702 0.931 . S
H723 C703 0.930 . S
H724 C711 0.931 . S
H725 C712 0.929 . S
H726 C720 0.929 . S
H727 C721 0.930 . S
Mn728 O733 2.095 . S
Mn728 O743 2.162 . S
Mn728 O744 2.297 . S
Mn728 O752 2.385 . S
Mn728 O753 2.209 . S
Mn728 O754 2.094 . S
Mn729 O734 2.121 . S
Mn729 N736 2.257 . S
Mn729 N745 2.282 . S
Mn729 O753 2.215 . S
Mn729 O755 2.117 . S
C730 O752 1.234 . S
C730 O753 1.283 . S
C731 O743 1.281 . S
C731 O744 1.236 . S
C732 O754 1.240 . S
C732 O755 1.264 . S
O733 Mn728 2.095 . S
O733 C742 1.250 . S
O734 Mn729 2.121 . S
O734 C742 1.258 . S
C735 N736 1.326 . S
C735 C739 1.460 . S
C735 H741 0.929 . S
N736 Mn729 2.257 . S
N736 C735 1.326 . S
N736 C740 1.362 . S
C737 C738 1.258 . S
C737 C740 1.431 . S
C737 C757 1.449 . S
C738 C737 1.258 . S
C738 C739 1.477 . S
C738 H758 0.931 . S
C739 C735 1.460 . S
C739 C738 1.477 . S
C739 H759 0.930 . S
C740 N736 1.362 . S
C740 C737 1.431 . S
C740 C750 1.476 . S
H741 C735 0.929 . S
C742 O733 1.250 . S
C742 O734 1.258 . S
O743 Mn728 2.162 . S
O743 C731 1.281 . S
O744 Mn728 2.297 . S
O744 C731 1.236 . S
N745 Mn729 2.282 . S
N745 C746 1.328 . S
N745 C750 1.318 . S
C746 N745 1.328 . S
C746 C747 1.457 . S
C746 H751 0.929 . S
C747 C746 1.457 . S
C747 C748 1.291 . S
C747 H760 0.931 . S
C748 C747 1.291 . S
C748 C749 1.373 . S
C748 H761 0.929 . S
C749 C748 1.373 . S
C749 C750 1.396 . S
C749 C756 1.403 . S
C750 C740 1.476 . S
C750 N745 1.318 . S
C750 C749 1.396 . S
H751 C746 0.929 . S
O752 Mn728 2.385 . S
O752 C730 1.234 . S
O753 Mn728 2.209 . S
O753 Mn729 2.215 . S
O753 C730 1.283 . S
O754 Mn728 2.094 . S
O754 C732 1.240 . S
O755 Mn729 2.117 . S
O755 C732 1.264 . S
C756 C749 1.403 . S
C756 C757 1.399 . S
C756 H762 0.929 . S
C757 C737 1.449 . S
C757 C756 1.399 . S
C757 H763 0.930 . S
H758 C738 0.931 . S
H759 C739 0.930 . S
H760 C747 0.931 . S
H761 C748 0.929 . S
H762 C756 0.929 . S
H763 C757 0.930 . S
Mn764 O769 2.095 . S
Mn764 O779 2.162 . S
Mn764 O780 2.297 . S
Mn764 O788 2.385 1_565 S
Mn764 O789 2.209 1_565 S
Mn764 O790 2.094 . S
Mn765 O770 2.121 . S
Mn765 N772 2.257 . S
Mn765 N781 2.282 . S
Mn765 O789 2.215 . S
Mn765 O791 2.117 . S
C766 O788 1.234 . S
C766 O789 1.283 . S
C767 O779 1.281 . S
C767 O780 1.236 . S
C768 O790 1.240 1_545 S
C768 O791 1.264 . S
O769 Mn764 2.095 . S
O769 C778 1.250 1_565 S
O770 Mn765 2.121 . S
O770 C778 1.258 . S
C771 N772 1.326 . S
C771 C775 1.460 . S
C771 H777 0.929 . S
N772 Mn765 2.257 . S
N772 C771 1.326 . S
N772 C776 1.362 . S
C773 C774 1.258 . S
C773 C776 1.431 . S
C773 C793 1.449 . S
C774 C773 1.258 . S
C774 C775 1.477 . S
C774 H794 0.931 . S
C775 C771 1.460 . S
C775 C774 1.477 . S
C775 H795 0.930 . S
C776 N772 1.362 . S
C776 C773 1.431 . S
C776 C786 1.476 . S
H777 C771 0.929 . S
C778 O769 1.250 1_545 S
C778 O770 1.258 . S
O779 Mn764 2.162 . S
O779 C767 1.281 . S
O780 Mn764 2.297 . S
O780 C767 1.236 . S
N781 Mn765 2.282 . S
N781 C782 1.328 . S
N781 C786 1.318 . S
C782 N781 1.328 . S
C782 C783 1.457 . S
C782 H787 0.929 . S
C783 C782 1.457 . S
C783 C784 1.291 . S
C783 H796 0.931 . S
C784 C783 1.291 . S
C784 C785 1.373 . S
C784 H797 0.929 . S
C785 C784 1.373 . S
C785 C786 1.396 . S
C785 C792 1.403 . S
C786 C776 1.476 . S
C786 N781 1.318 . S
C786 C785 1.396 . S
H787 C782 0.929 . S
O788 Mn764 2.385 1_545 S
O788 C766 1.234 . S
O789 Mn764 2.209 1_545 S
O789 Mn765 2.215 . S
O789 C766 1.283 . S
O790 Mn764 2.094 . S
O790 C768 1.240 1_565 S
O791 Mn765 2.117 . S
O791 C768 1.264 . S
C792 C785 1.403 . S
C792 C793 1.399 . S
C792 H798 0.929 . S
C793 C773 1.449 . S
C793 C792 1.399 . S
C793 H799 0.930 . S
H794 C774 0.931 . S
H795 C775 0.930 . S
H796 C783 0.931 . S
H797 C784 0.929 . S
H798 C792 0.929 . S
H799 C793 0.930 . S
Mn800 O805 2.095 . S
Mn800 O815 2.162 . S
Mn800 O816 2.297 . S
Mn800 O824 2.385 1_455 S
Mn800 O825 2.209 1_455 S
Mn800 O826 2.094 . S
Mn801 O806 2.121 . S
Mn801 N808 2.257 . S
Mn801 N817 2.282 . S
Mn801 O825 2.215 . S
Mn801 O827 2.117 . S
C802 O824 1.234 . S
C802 O825 1.283 . S
C803 O815 1.281 . S
C803 O816 1.236 . S
C804 O826 1.240 . S
C804 O827 1.264 1_455 S
O805 Mn800 2.095 . S
O805 C814 1.250 1_455 S
O806 Mn801 2.121 . S
O806 C814 1.258 . S
C807 N808 1.326 . S
C807 C811 1.460 . S
C807 H813 0.929 . S
N808 Mn801 2.257 . S
N808 C807 1.326 . S
N808 C812 1.362 . S
C809 C810 1.258 . S
C809 C812 1.431 . S
C809 C829 1.449 . S
C810 C809 1.258 . S
C810 C811 1.477 . S
C810 H830 0.931 . S
C811 C807 1.460 . S
C811 C810 1.477 . S
C811 H831 0.930 . S
C812 N808 1.362 . S
C812 C809 1.431 . S
C812 C822 1.476 . S
H813 C807 0.929 . S
C814 O805 1.250 1_655 S
C814 O806 1.258 . S
O815 Mn800 2.162 . S
O815 C803 1.281 . S
O816 Mn800 2.297 . S
O816 C803 1.236 . S
N817 Mn801 2.282 . S
N817 C818 1.328 . S
N817 C822 1.318 . S
C818 N817 1.328 . S
C818 C819 1.457 . S
C818 H823 0.929 . S
C819 C818 1.457 . S
C819 C820 1.291 . S
C819 H832 0.931 . S
C820 C819 1.291 . S
C820 C821 1.373 . S
C820 H833 0.929 . S
C821 C820 1.373 . S
C821 C822 1.396 . S
C821 C828 1.403 . S
C822 C812 1.476 . S
C822 N817 1.318 . S
C822 C821 1.396 . S
H823 C818 0.929 . S
O824 Mn800 2.385 1_655 S
O824 C802 1.234 . S
O825 Mn800 2.209 1_655 S
O825 Mn801 2.215 . S
O825 C802 1.283 . S
O826 Mn800 2.094 . S
O826 C804 1.240 . S
O827 Mn801 2.117 . S
O827 C804 1.264 1_655 S
C828 C821 1.403 . S
C828 C829 1.399 . S
C828 H834 0.929 . S
C829 C809 1.449 . S
C829 C828 1.399 . S
C829 H835 0.930 . S
H830 C810 0.931 . S
H831 C811 0.930 . S
H832 C819 0.931 . S
H833 C820 0.929 . S
H834 C828 0.929 . S
H835 C829 0.930 . S
Mn836 O841 2.095 . S
Mn836 O851 2.162 . S
Mn836 O852 2.297 . S
Mn836 O860 2.385 . S
Mn836 O861 2.209 . S
Mn836 O862 2.094 . S
Mn837 O842 2.121 . S
Mn837 N844 2.257 . S
Mn837 N853 2.282 . S
Mn837 O861 2.215 . S
Mn837 O863 2.117 . S
C838 O860 1.234 . S
C838 O861 1.283 . S
C839 O851 1.281 . S
C839 O852 1.236 . S
C840 O862 1.240 . S
C840 O863 1.264 . S
O841 Mn836 2.095 . S
O841 C850 1.250 . S
O842 Mn837 2.121 . S
O842 C850 1.258 . S
C843 N844 1.326 . S
C843 C847 1.460 . S
C843 H849 0.929 . S
N844 Mn837 2.257 . S
N844 C843 1.326 . S
N844 C848 1.362 . S
C845 C846 1.258 . S
C845 C848 1.431 . S
C845 C865 1.449 . S
C846 C845 1.258 . S
C846 C847 1.477 . S
C846 H866 0.931 . S
C847 C843 1.460 . S
C847 C846 1.477 . S
C847 H867 0.930 . S
C848 N844 1.362 . S
C848 C845 1.431 . S
C848 C858 1.476 . S
H849 C843 0.929 . S
C850 O841 1.250 . S
C850 O842 1.258 . S
O851 Mn836 2.162 . S
O851 C839 1.281 . S
O852 Mn836 2.297 . S
O852 C839 1.236 . S
N853 Mn837 2.282 . S
N853 C854 1.328 . S
N853 C858 1.318 . S
C854 N853 1.328 . S
C854 C855 1.457 . S
C854 H859 0.929 . S
C855 C854 1.457 . S
C855 C856 1.291 . S
C855 H868 0.931 . S
C856 C855 1.291 . S
C856 C857 1.373 . S
C856 H869 0.929 . S
C857 C856 1.373 . S
C857 C858 1.396 . S
C857 C864 1.403 . S
C858 C848 1.476 . S
C858 N853 1.318 . S
C858 C857 1.396 . S
H859 C854 0.929 . S
O860 Mn836 2.385 . S
O860 C838 1.234 . S
O861 Mn836 2.209 . S
O861 Mn837 2.215 . S
O861 C838 1.283 . S
O862 Mn836 2.094 . S
O862 C840 1.240 . S
O863 Mn837 2.117 . S
O863 C840 1.264 . S
C864 C857 1.403 . S
C864 C865 1.399 . S
C864 H870 0.929 . S
C865 C845 1.449 . S
C865 C864 1.399 . S
C865 H871 0.930 . S
H866 C846 0.931 . S
H867 C847 0.930 . S
H868 C855 0.931 . S
H869 C856 0.929 . S
H870 C864 0.929 . S
H871 C865 0.930 . S
Mn872 O877 2.095 1_455 S
Mn872 O887 2.162 . S
Mn872 O888 2.297 1_455 S
Mn872 O896 2.385 . S
Mn872 O897 2.209 1_455 S
Mn872 O898 2.094 . S
Mn873 O878 2.121 . S
Mn873 N880 2.257 . S
Mn873 N889 2.282 . S
Mn873 O897 2.215 . S
Mn873 O899 2.117 1_655 S
C874 O896 1.234 . S
C874 O897 1.283 1_455 S
C875 O887 1.281 . S
C875 O888 1.236 1_455 S
C876 O898 1.240 . S
C876 O899 1.264 . S
O877 Mn872 2.095 1_655 S
O877 C886 1.250 . S
O878 Mn873 2.121 . S
O878 C886 1.258 . S
C879 N880 1.326 . S
C879 C883 1.460 . S
C879 H885 0.929 . S
N880 Mn873 2.257 . S
N880 C879 1.326 . S
N880 C884 1.362 . S
C881 C882 1.258 . S
C881 C884 1.431 . S
C881 C901 1.449 . S
C882 C881 1.258 . S
C882 C883 1.477 . S
C882 H902 0.931 . S
C883 C879 1.460 . S
C883 C882 1.477 . S
C883 H903 0.930 . S
C884 N880 1.362 . S
C884 C881 1.431 . S
C884 C894 1.476 . S
H885 C879 0.929 . S
C886 O877 1.250 . S
C886 O878 1.258 . S
O887 Mn872 2.162 . S
O887 C875 1.281 . S
O888 Mn872 2.297 1_655 S
O888 C875 1.236 1_655 S
N889 Mn873 2.282 . S
N889 C890 1.328 1_655 S
N889 C894 1.318 . S
C890 N889 1.328 1_455 S
C890 C891 1.457 . S
C890 H895 0.929 . S
C891 C890 1.457 . S
C891 C892 1.291 . S
C891 H904 0.931 . S
C892 C891 1.291 . S
C892 C893 1.373 1_455 S
C892 H905 0.929 . S
C893 C892 1.373 1_655 S
C893 C894 1.396 . S
C893 C900 1.403 . S
C894 C884 1.476 . S
C894 N889 1.318 . S
C894 C893 1.396 . S
H895 C890 0.929 . S
O896 Mn872 2.385 . S
O896 C874 1.234 . S
O897 Mn872 2.209 1_655 S
O897 Mn873 2.215 . S
O897 C874 1.283 1_655 S
O898 Mn872 2.094 . S
O898 C876 1.240 . S
O899 Mn873 2.117 1_455 S
O899 C876 1.264 . S
C900 C893 1.403 . S
C900 C901 1.399 . S
C900 H906 0.929 . S
C901 C881 1.449 . S
C901 C900 1.399 . S
C901 H907 0.930 . S
H902 C882 0.931 . S
H903 C883 0.930 . S
H904 C891 0.931 . S
H905 C892 0.929 . S
H906 C900 0.929 . S
H907 C901 0.930 . S
Mn908 O913 2.095 . S
Mn908 O923 2.162 . S
Mn908 O924 2.297 . S
Mn908 O932 2.385 . S
Mn908 O933 2.209 . S
Mn908 O934 2.094 . S
Mn909 O914 2.121 . S
Mn909 N916 2.257 . S
Mn909 N925 2.282 . S
Mn909 O933 2.215 . S
Mn909 O935 2.117 . S
C910 O932 1.234 . S
C910 O933 1.283 . S
C911 O923 1.281 . S
C911 O924 1.236 . S
C912 O934 1.240 . S
C912 O935 1.264 . S
O913 Mn908 2.095 . S
O913 C922 1.250 . S
O914 Mn909 2.121 . S
O914 C922 1.258 . S
C915 N916 1.326 . S
C915 C919 1.460 . S
C915 H921 0.929 . S
N916 Mn909 2.257 . S
N916 C915 1.326 . S
N916 C920 1.362 . S
C917 C918 1.258 . S
C917 C920 1.431 . S
C917 C937 1.449 . S
C918 C917 1.258 . S
C918 C919 1.477 . S
C918 H938 0.931 . S
C919 C915 1.460 . S
C919 C918 1.477 . S
C919 H939 0.930 . S
C920 N916 1.362 . S
C920 C917 1.431 . S
C920 C930 1.476 . S
H921 C915 0.929 . S
C922 O913 1.250 . S
C922 O914 1.258 . S
O923 Mn908 2.162 . S
O923 C911 1.281 . S
O924 Mn908 2.297 . S
O924 C911 1.236 . S
N925 Mn909 2.282 . S
N925 C926 1.328 . S
N925 C930 1.318 . S
C926 N925 1.328 . S
C926 C927 1.457 . S
C926 H931 0.929 . S
C927 C926 1.457 . S
C927 C928 1.291 . S
C927 H940 0.931 . S
C928 C927 1.291 . S
C928 C929 1.373 . S
C928 H941 0.929 . S
C929 C928 1.373 . S
C929 C930 1.396 . S
C929 C936 1.403 . S
C930 C920 1.476 . S
C930 N925 1.318 . S
C930 C929 1.396 . S
H931 C926 0.929 . S
O932 Mn908 2.385 . S
O932 C910 1.234 . S
O933 Mn908 2.209 . S
O933 Mn909 2.215 . S
O933 C910 1.283 . S
O934 Mn908 2.094 . S
O934 C912 1.240 . S
O935 Mn909 2.117 . S
O935 C912 1.264 . S
C936 C929 1.403 . S
C936 C937 1.399 . S
C936 H942 0.929 . S
C937 C917 1.449 . S
C937 C936 1.399 . S
C937 H943 0.930 . S
H938 C918 0.931 . S
H939 C919 0.930 . S
H940 C927 0.931 . S
H941 C928 0.929 . S
H942 C936 0.929 . S
H943 C937 0.930 . S
C944 C945 1.369 . S
C944 C946 1.419 . S
C944 H948 0.930 . S
C945 C944 1.369 . S
C945 C954 1.429 . S
C946 C944 1.419 . S
C946 C947 1.363 . S
C946 H949 0.929 . S
C947 C946 1.363 . S
C947 C953 1.428 . S
H948 C944 0.930 . S
H949 C946 0.929 . S
S950 N951 1.613 . S
S950 N952 1.610 . S
N951 S950 1.613 . S
N951 C954 1.350 . S
N952 S950 1.610 . S
N952 C953 1.351 . S
C953 C947 1.428 . S
C953 N952 1.351 . S
C953 C954 1.434 . S
C954 C945 1.429 . S
C954 N951 1.350 . S
C954 C953 1.434 . S
C955 C956 1.369 . S
C955 C957 1.419 . S
C955 H959 0.930 . S
C956 C955 1.369 . S
C956 C965 1.429 . S
C957 C955 1.419 . S
C957 C958 1.363 . S
C957 H960 0.929 . S
C958 C957 1.363 . S
C958 C964 1.428 . S
H959 C955 0.930 . S
H960 C957 0.929 . S
S961 N962 1.615 . S
S961 N963 1.632 . S
N962 S961 1.615 . S
N962 C965 1.350 . S
N963 S961 1.632 . S
N963 C964 1.351 . S
C964 C958 1.428 . S
C964 N963 1.351 . S
C964 C965 1.434 . S
C965 C956 1.429 . S
C965 N962 1.350 . S
C965 C964 1.434 . S
C966 C967 1.369 . S
C966 C968 1.419 . S
C966 H970 0.930 . S
C967 C966 1.369 . S
C967 C976 1.429 . S
C968 C966 1.419 . S
C968 C969 1.363 . S
C968 H971 0.929 . S
C969 C968 1.363 . S
C969 C975 1.428 . S
H970 C966 0.930 . S
H971 C968 0.929 . S
S972 N973 1.613 . S
S972 N974 1.610 . S
N973 S972 1.613 . S
N973 C976 1.350 . S
N974 S972 1.610 . S
N974 C975 1.351 . S
C975 C969 1.428 . S
C975 N974 1.351 . S
C975 C976 1.434 . S
C976 C967 1.429 . S
C976 N973 1.350 . S
C976 C975 1.434 . S
C977 C978 1.369 . S
C977 C979 1.419 . S
C977 H981 0.930 . S
C978 C977 1.369 . S
C978 C987 1.429 1_565 S
C979 C977 1.419 . S
C979 C980 1.363 . S
C979 H982 0.929 . S
C980 C979 1.363 . S
C980 C986 1.428 1_565 S
H981 C977 0.930 . S
H982 C979 0.929 . S
S983 N984 1.613 . S
S983 N985 1.610 . S
N984 S983 1.613 . S
N984 C987 1.350 . S
N985 S983 1.610 . S
N985 C986 1.351 . S
C986 C980 1.428 1_545 S
C986 N985 1.351 . S
C986 C987 1.434 . S
C987 C978 1.429 1_545 S
C987 N984 1.350 . S
C987 C986 1.434 . S
C988 C989 1.369 . S
C988 C990 1.419 . S
C988 H992 0.930 . S
C989 C988 1.369 . S
C989 C998 1.429 . S
C990 C988 1.419 . S
C990 C991 1.363 . S
C990 H993 0.929 . S
C991 C990 1.363 . S
C991 C997 1.428 . S
H992 C988 0.930 . S
H993 C990 0.929 . S
S994 N995 1.613 . S
S994 N996 1.610 . S
N995 S994 1.613 . S
N995 C998 1.350 . S
N996 S994 1.610 . S
N996 C997 1.351 . S
C997 C991 1.428 . S
C997 N996 1.351 . S
C997 C998 1.434 . S
C998 C989 1.429 . S
C998 N995 1.350 . S
C998 C997 1.434 . S
C999 C1000 1.369 . S
C999 C1001 1.419 . S
C999 H1003 0.930 . S
C1000 C999 1.369 . S
C1000 C1009 1.429 . S
C1001 C999 1.419 . S
C1001 C1002 1.363 . S
C1001 H1004 0.929 . S
C1002 C1001 1.363 . S
C1002 C1008 1.428 . S
H1003 C999 0.930 . S
H1004 C1001 0.929 . S
S1005 N1006 1.613 . S
S1005 N1007 1.610 . S
N1006 S1005 1.613 . S
N1006 C1009 1.350 . S
N1007 S1005 1.610 . S
N1007 C1008 1.351 . S
C1008 C1002 1.428 . S
C1008 N1007 1.351 . S
C1008 C1009 1.434 . S
C1009 C1000 1.429 . S
C1009 N1006 1.350 . S
C1009 C1008 1.434 . S
C1010 C1011 1.369 . S
C1010 C1012 1.419 . S
C1010 H1014 0.930 . S
C1011 C1010 1.369 . S
C1011 C1020 1.429 . S
C1012 C1010 1.419 . S
C1012 C1013 1.363 . S
C1012 H1015 0.929 . S
C1013 C1012 1.363 . S
C1013 C1019 1.428 . S
H1014 C1010 0.930 . S
H1015 C1012 0.929 . S
S1016 N1017 1.613 . S
S1016 N1018 1.610 . S
N1017 S1016 1.613 . S
N1017 C1020 1.350 . S
N1018 S1016 1.610 . S
N1018 C1019 1.351 . S
C1019 C1013 1.428 . S
C1019 N1018 1.351 . S
C1019 C1020 1.434 . S
C1020 C1011 1.429 . S
C1020 N1017 1.350 . S
C1020 C1019 1.434 . S
C1021 C1022 1.369 . S
C1021 C1023 1.419 . S
C1021 H1025 0.930 . S
C1022 C1021 1.369 . S
C1022 C1031 1.429 . S
C1023 C1021 1.419 . S
C1023 C1024 1.363 . S
C1023 H1026 0.929 1_565 S
C1024 C1023 1.363 . S
C1024 C1030 1.428 . S
H1025 C1021 0.930 . S
H1026 C1023 0.929 1_545 S
S1027 N1028 1.613 . S
S1027 N1029 1.610 . S
N1028 S1027 1.613 . S
N1028 C1031 1.350 . S
N1029 S1027 1.610 . S
N1029 C1030 1.351 . S
C1030 C1024 1.428 . S
C1030 N1029 1.351 . S
C1030 C1031 1.434 . S
C1031 C1022 1.429 . S
C1031 N1028 1.350 . S
C1031 C1030 1.434 . S
C1032 C1033 1.369 . S
C1032 C1034 1.419 . S
C1032 H1036 0.930 . S
C1033 C1032 1.369 . S
C1033 C1042 1.429 . S
C1034 C1032 1.419 . S
C1034 C1035 1.363 . S
C1034 H1037 0.929 . S
C1035 C1034 1.363 . S
C1035 C1041 1.428 . S
H1036 C1032 0.930 . S
H1037 C1034 0.929 . S
S1038 N1039 1.613 . S
S1038 N1040 1.610 . S
N1039 S1038 1.613 . S
N1039 C1042 1.350 . S
N1040 S1038 1.610 . S
N1040 C1041 1.351 . S
C1041 C1035 1.428 . S
C1041 N1040 1.351 . S
C1041 C1042 1.434 . S
C1042 C1033 1.429 . S
C1042 N1039 1.350 . S
C1042 C1041 1.434 . S
C1043 C1044 1.369 . S
C1043 C1045 1.419 . S
C1043 H1047 0.930 . S
C1044 C1043 1.369 . S
C1044 C1053 1.429 . S
C1045 C1043 1.419 . S
C1045 C1046 1.363 . S
C1045 H1048 0.929 . S
C1046 C1045 1.363 . S
C1046 C1052 1.428 . S
H1047 C1043 0.930 . S
H1048 C1045 0.929 . S
S1049 N1050 1.613 . S
S1049 N1051 1.610 . S
N1050 S1049 1.613 . S
N1050 C1053 1.350 . S
N1051 S1049 1.610 . S
N1051 C1052 1.351 . S
C1052 C1046 1.428 . S
C1052 N1051 1.351 . S
C1052 C1053 1.434 . S
C1053 C1044 1.429 . S
C1053 N1050 1.350 . S
C1053 C1052 1.434 . S
C1054 C1055 1.369 . S
C1054 C1056 1.419 . S
C1054 H1058 0.930 . S
C1055 C1054 1.369 . S
C1055 C1064 1.429 . S
C1056 C1054 1.419 . S
C1056 C1057 1.363 . S
C1056 H1059 0.929 . S
C1057 C1056 1.363 . S
C1057 C1063 1.428 . S
H1058 C1054 0.930 . S
H1059 C1056 0.929 . S
S1060 N1061 1.613 . S
S1060 N1062 1.610 . S
N1061 S1060 1.613 . S
N1061 C1064 1.350 . S
N1062 S1060 1.610 . S
N1062 C1063 1.351 . S
C1063 C1057 1.428 . S
C1063 N1062 1.351 . S
C1063 C1064 1.434 . S
C1064 C1055 1.429 . S
C1064 N1061 1.350 . S
C1064 C1063 1.434 . S
C1065 C1066 1.369 . S
C1065 C1067 1.419 . S
C1065 H1069 0.930 . S
C1066 C1065 1.369 . S
C1066 C1075 1.429 . S
C1067 C1065 1.419 . S
C1067 C1068 1.363 . S
C1067 H1070 0.929 . S
C1068 C1067 1.363 . S
C1068 C1074 1.428 . S
H1069 C1065 0.930 . S
H1070 C1067 0.929 . S
S1071 N1072 1.613 . S
S1071 N1073 1.610 . S
N1072 S1071 1.613 . S
N1072 C1075 1.350 . S
N1073 S1071 1.610 . S
N1073 C1074 1.351 . S
C1074 C1068 1.428 . S
C1074 N1073 1.351 . S
C1074 C1075 1.434 . S
C1075 C1066 1.429 . S
C1075 N1072 1.350 . S
C1075 C1074 1.434 . S
C1076 C1077 1.369 . S
C1076 C1078 1.419 . S
C1076 H1080 0.930 . S
C1077 C1076 1.369 . S
C1077 C1086 1.429 . S
C1078 C1076 1.419 . S
C1078 C1079 1.363 . S
C1078 H1081 0.929 . S
C1079 C1078 1.363 . S
C1079 C1085 1.428 . S
H1080 C1076 0.930 . S
H1081 C1078 0.929 . S
S1082 N1083 1.613 . S
S1082 N1084 1.610 . S
N1083 S1082 1.613 . S
N1083 C1086 1.350 . S
N1084 S1082 1.610 . S
N1084 C1085 1.351 . S
C1085 C1079 1.428 . S
C1085 N1084 1.351 . S
C1085 C1086 1.434 . S
C1086 C1077 1.429 . S
C1086 N1083 1.350 . S
C1086 C1085 1.434 . S
C1087 C1088 1.369 . S
C1087 C1089 1.419 . S
C1087 H1091 0.934 . S
C1088 C1087 1.369 . S
C1088 C1097 1.429 . S
C1089 C1087 1.419 . S
C1089 C1090 1.363 . S
C1089 H1092 0.929 1_455 S
C1090 C1089 1.363 . S
C1090 C1096 1.428 . S
H1091 C1087 0.934 . S
H1092 C1089 0.929 1_655 S
S1093 N1094 1.613 . S
S1093 N1095 1.610 . S
N1094 S1093 1.613 . S
N1094 C1097 1.350 . S
N1095 S1093 1.610 . S
N1095 C1096 1.351 . S
C1096 C1090 1.428 . S
C1096 N1095 1.351 . S
C1096 C1097 1.434 . S
C1097 C1088 1.429 . S
C1097 N1094 1.350 . S
C1097 C1096 1.434 . S
C1098 C1099 1.369 . S
C1098 C1100 1.419 . S
C1098 H1102 0.930 . S
C1099 C1098 1.369 . S
C1099 C1108 1.429 . S
C1100 C1098 1.419 . S
C1100 C1101 1.363 . S
C1100 H1103 0.929 . S
C1101 C1100 1.363 . S
C1101 C1107 1.428 . S
H1102 C1098 0.930 . S
H1103 C1100 0.929 . S
S1104 N1105 1.613 . S
S1104 N1106 1.610 . S
N1105 S1104 1.613 . S
N1105 C1108 1.350 . S
N1106 S1104 1.610 . S
N1106 C1107 1.351 . S
C1107 C1101 1.428 . S
C1107 N1106 1.351 . S
C1107 C1108 1.434 . S
C1108 C1099 1.429 . S
C1108 N1105 1.350 . S
C1108 C1107 1.434 . S
C1109 C1110 1.369 1_455 S
C1109 C1111 1.419 . S
C1109 H1113 0.930 . S
C1110 C1109 1.369 1_655 S
C1110 C1119 1.429 . S
C1111 C1109 1.419 . S
C1111 C1112 1.363 1_455 S
C1111 H1114 0.929 . S
C1112 C1111 1.363 1_655 S
C1112 C1118 1.428 . S
H1113 C1109 0.930 . S
H1114 C1111 0.929 . S
S1115 N1116 1.613 . S
S1115 N1117 1.610 . S
N1116 S1115 1.613 . S
N1116 C1119 1.350 . S
N1117 S1115 1.610 . S
N1117 C1118 1.351 . S
C1118 C1112 1.428 . S
C1118 N1117 1.351 . S
C1118 C1119 1.434 . S
C1119 C1110 1.429 . S
C1119 N1116 1.350 . S
C1119 C1118 1.434 . S
C1120 C1121 1.369 . S
C1120 C1122 1.419 . S
C1120 H1124 0.930 . S
C1121 C1120 1.369 . S
C1121 C1130 1.429 . S
C1122 C1120 1.419 . S
C1122 C1123 1.363 . S
C1122 H1125 0.929 . S
C1123 C1122 1.363 . S
C1123 C1129 1.428 . S
H1124 C1120 0.930 . S
H1125 C1122 0.929 . S
S1126 N1127 1.613 . S
S1126 N1128 1.610 . S
N1127 S1126 1.613 . S
N1127 C1130 1.350 . S
N1128 S1126 1.610 . S
N1128 C1129 1.351 . S
C1129 C1123 1.428 . S
C1129 N1128 1.351 . S
C1129 C1130 1.434 . S
C1130 C1121 1.429 . S
C1130 N1127 1.350 . S
C1130 C1129 1.434 . S
C1131 C1132 1.369 . S
C1131 C1133 1.419 . S
C1131 H1135 0.930 . S
C1132 C1131 1.369 . S
C1132 C1141 1.429 . S
C1133 C1131 1.419 . S
C1133 C1134 1.363 . S
C1133 H1136 0.929 . S
C1134 C1133 1.363 . S
C1134 C1140 1.428 . S
H1135 C1131 0.930 . S
H1136 C1133 0.929 . S
S1137 N1138 1.613 . S
S1137 N1139 1.610 . S
N1138 S1137 1.613 . S
N1138 C1141 1.350 . S
N1139 S1137 1.610 . S
N1139 C1140 1.351 . S
C1140 C1134 1.428 . S
C1140 N1139 1.351 . S
C1140 C1141 1.434 . S
C1141 C1132 1.429 . S
C1141 N1138 1.350 . S
C1141 C1140 1.434 . S
C1142 C1143 1.369 . S
C1142 C1144 1.419 . S
C1142 H1146 0.930 . S
C1143 C1142 1.369 . S
C1143 C1152 1.429 1_556 S
C1144 C1142 1.419 . S
C1144 C1145 1.363 1_556 S
C1144 H1147 0.929 . S
C1145 C1144 1.363 1_554 S
C1145 C1151 1.428 . S
H1146 C1142 0.930 . S
H1147 C1144 0.929 . S
S1148 N1149 1.613 . S
S1148 N1150 1.610 . S
N1149 S1148 1.613 . S
N1149 C1152 1.350 . S
N1150 S1148 1.610 . S
N1150 C1151 1.351 . S
C1151 C1145 1.428 . S
C1151 N1150 1.351 . S
C1151 C1152 1.434 . S
C1152 C1143 1.429 1_554 S
C1152 N1149 1.350 . S
C1152 C1151 1.434 . S
C1153 C1154 1.369 . S
C1153 C1155 1.419 . S
C1153 H1157 0.930 . S
C1154 C1153 1.369 . S
C1154 C1163 1.429 . S
C1155 C1153 1.419 . S
C1155 C1156 1.363 . S
C1155 H1158 0.929 . S
C1156 C1155 1.363 . S
C1156 C1162 1.428 . S
H1157 C1153 0.930 . S
H1158 C1155 0.929 . S
S1159 N1160 1.613 . S
S1159 N1161 1.610 . S
N1160 S1159 1.613 . S
N1160 C1163 1.350 . S
N1161 S1159 1.610 . S
N1161 C1162 1.351 . S
C1162 C1156 1.428 . S
C1162 N1161 1.351 . S
C1162 C1163 1.434 . S
C1163 C1154 1.429 . S
C1163 N1160 1.350 . S
C1163 C1162 1.434 . S
C1164 C1165 1.369 . S
C1164 C1166 1.419 . S
C1164 H1168 0.930 . S
C1165 C1164 1.369 . S
C1165 C1174 1.429 . S
C1166 C1164 1.419 . S
C1166 C1167 1.363 . S
C1166 H1169 0.929 . S
C1167 C1166 1.363 . S
C1167 C1173 1.428 . S
H1168 C1164 0.930 . S
H1169 C1166 0.929 . S
S1170 N1171 1.613 . S
S1170 N1172 1.610 . S
N1171 S1170 1.613 . S
N1171 C1174 1.350 . S
N1172 S1170 1.610 . S
N1172 C1173 1.351 . S
C1173 C1167 1.428 . S
C1173 N1172 1.351 . S
C1173 C1174 1.434 . S
C1174 C1165 1.429 . S
C1174 N1171 1.350 . S
C1174 C1173 1.434 . S
C1175 C1176 1.369 . S
C1175 C1177 1.419 . S
C1175 H1179 0.930 . S
C1176 C1175 1.369 . S
C1176 C1185 1.429 . S
C1177 C1175 1.419 . S
C1177 C1178 1.363 . S
C1177 H1180 0.929 . S
C1178 C1177 1.363 . S
C1178 C1184 1.428 . S
H1179 C1175 0.930 . S
H1180 C1177 0.929 . S
S1181 N1182 1.613 . S
S1181 N1183 1.610 . S
N1182 S1181 1.613 . S
N1182 C1185 1.350 . S
N1183 S1181 1.610 . S
N1183 C1184 1.351 . S
C1184 C1178 1.428 . S
C1184 N1183 1.351 . S
C1184 C1185 1.434 . S
C1185 C1176 1.429 . S
C1185 N1182 1.350 . S
C1185 C1184 1.434 . S
C1186 C1187 1.369 . S
C1186 C1188 1.419 . S
C1186 H1190 0.930 . S
C1187 C1186 1.369 . S
C1187 C1196 1.429 . S
C1188 C1186 1.419 . S
C1188 C1189 1.363 . S
C1188 H1191 0.929 . S
C1189 C1188 1.363 . S
C1189 C1195 1.428 . S
H1190 C1186 0.930 . S
H1191 C1188 0.929 . S
S1192 N1193 1.613 . S
S1192 N1194 1.610 . S
N1193 S1192 1.613 . S
N1193 C1196 1.350 . S
N1194 S1192 1.610 . S
N1194 C1195 1.351 . S
C1195 C1189 1.428 . S
C1195 N1194 1.351 . S
C1195 C1196 1.434 . S
C1196 C1187 1.429 . S
C1196 N1193 1.350 . S
C1196 C1195 1.434 . S
C1197 C1198 1.369 . S
C1197 C1199 1.419 . S
C1197 H1201 0.930 . S
C1198 C1197 1.369 . S
C1198 C1207 1.429 . S
C1199 C1197 1.419 . S
C1199 C1200 1.363 . S
C1199 H1202 0.929 . S
C1200 C1199 1.363 . S
C1200 C1206 1.428 . S
H1201 C1197 0.930 . S
H1202 C1199 0.929 . S
S1203 N1204 1.613 . S
S1203 N1205 1.610 . S
N1204 S1203 1.613 . S
N1204 C1207 1.350 . S
N1205 S1203 1.610 . S
N1205 C1206 1.351 . S
C1206 C1200 1.428 . S
C1206 N1205 1.351 . S
C1206 C1207 1.434 . S
C1207 C1198 1.429 . S
C1207 N1204 1.350 . S
C1207 C1206 1.434 . S
C1208 C1209 1.369 . S
C1208 C1210 1.419 . S
C1208 H1212 0.930 . S
C1209 C1208 1.369 . S
C1209 C1218 1.429 . S
C1210 C1208 1.419 . S
C1210 C1211 1.363 . S
C1210 H1213 0.929 . S
C1211 C1210 1.363 . S
C1211 C1217 1.428 . S
H1212 C1208 0.930 . S
H1213 C1210 0.929 . S
S1214 N1215 1.613 . S
S1214 N1216 1.610 . S
N1215 S1214 1.613 . S
N1215 C1218 1.350 . S
N1216 S1214 1.610 . S
N1216 C1217 1.351 . S
C1217 C1211 1.428 . S
C1217 N1216 1.351 . S
C1217 C1218 1.434 . S
C1218 C1209 1.429 . S
C1218 N1215 1.350 . S
C1218 C1217 1.434 . S
C1219 C1220 1.369 1_565 S
C1219 C1221 1.419 . S
C1219 H1223 0.930 . S
C1220 C1219 1.369 1_545 S
C1220 C1229 1.429 . S
C1221 C1219 1.419 . S
C1221 C1222 1.363 1_565 S
C1221 H1224 0.929 . S
C1222 C1221 1.363 1_545 S
C1222 C1228 1.428 . S
H1223 C1219 0.930 . S
H1224 C1221 0.929 . S
S1225 N1226 1.613 . S
S1225 N1227 1.610 . S
N1226 S1225 1.613 . S
N1226 C1229 1.350 . S
N1227 S1225 1.610 . S
N1227 C1228 1.351 . S
C1228 C1222 1.428 . S
C1228 N1227 1.351 . S
C1228 C1229 1.434 . S
C1229 C1220 1.429 . S
C1229 N1226 1.350 . S
C1229 C1228 1.434 . S
C1230 C1231 1.369 . S
C1230 C1232 1.419 . S
C1230 H1234 0.930 . S
C1231 C1230 1.369 . S
C1231 C1240 1.429 . S
C1232 C1230 1.419 . S
C1232 C1233 1.363 . S
C1232 H1235 0.929 . S
C1233 C1232 1.363 . S
C1233 C1239 1.428 . S
H1234 C1230 0.930 . S
H1235 C1232 0.929 . S
S1236 N1237 1.613 . S
S1236 N1238 1.610 . S
N1237 S1236 1.613 . S
N1237 C1240 1.350 . S
N1238 S1236 1.610 . S
N1238 C1239 1.351 . S
C1239 C1233 1.428 . S
C1239 N1238 1.351 . S
C1239 C1240 1.434 . S
C1240 C1231 1.429 . S
C1240 N1237 1.350 . S
C1240 C1239 1.434 . S
C1241 C1242 1.369 . S
C1241 C1243 1.419 . S
C1241 H1245 0.930 . S
C1242 C1241 1.369 . S
C1242 C1251 1.429 . S
C1243 C1241 1.419 . S
C1243 C1244 1.363 . S
C1243 H1246 0.929 . S
C1244 C1243 1.363 . S
C1244 C1250 1.428 . S
H1245 C1241 0.930 . S
H1246 C1243 0.929 . S
S1247 N1248 1.613 . S
S1247 N1249 1.610 . S
N1248 S1247 1.613 . S
N1248 C1251 1.350 . S
N1249 S1247 1.610 . S
N1249 C1250 1.351 . S
C1250 C1244 1.428 . S
C1250 N1249 1.351 . S
C1250 C1251 1.434 . S
C1251 C1242 1.429 . S
C1251 N1248 1.350 . S
C1251 C1250 1.434 . S
C1252 C1253 1.369 . S
C1252 C1254 1.419 . S
C1252 H1256 0.930 . S
C1253 C1252 1.369 . S
C1253 C1262 1.429 . S
C1254 C1252 1.419 . S
C1254 C1255 1.363 . S
C1254 H1257 0.929 . S
C1255 C1254 1.363 . S
C1255 C1261 1.428 . S
H1256 C1252 0.930 . S
H1257 C1254 0.929 . S
S1258 N1259 1.613 . S
S1258 N1260 1.610 . S
N1259 S1258 1.613 . S
N1259 C1262 1.350 . S
N1260 S1258 1.610 . S
N1260 C1261 1.351 . S
C1261 C1255 1.428 . S
C1261 N1260 1.351 . S
C1261 C1262 1.434 . S
C1262 C1253 1.429 . S
C1262 N1259 1.350 . S
C1262 C1261 1.434 . S
C1263 C1264 1.369 . S
C1263 C1265 1.419 . S
C1263 H1267 0.930 . S
C1264 C1263 1.369 . S
C1264 C1273 1.429 1_545 S
C1265 C1263 1.419 . S
C1265 C1266 1.363 . S
C1265 H1268 0.929 . S
C1266 C1265 1.363 . S
C1266 C1272 1.428 1_545 S
H1267 C1263 0.930 . S
H1268 C1265 0.929 . S
S1269 N1270 1.613 . S
S1269 N1271 1.610 . S
N1270 S1269 1.613 . S
N1270 C1273 1.350 . S
N1271 S1269 1.610 . S
N1271 C1272 1.351 . S
C1272 C1266 1.428 1_565 S
C1272 N1271 1.351 . S
C1272 C1273 1.434 . S
C1273 C1264 1.429 1_565 S
C1273 N1270 1.350 . S
C1273 C1272 1.434 . S
C1274 C1275 1.369 . S
C1274 C1276 1.419 . S
C1274 H1278 0.930 . S
C1275 C1274 1.369 . S
C1275 C1284 1.429 . S
C1276 C1274 1.419 . S
C1276 C1277 1.363 . S
C1276 H1279 0.929 . S
C1277 C1276 1.363 . S
C1277 C1283 1.428 . S
H1278 C1274 0.930 . S
H1279 C1276 0.929 . S
S1280 N1281 1.613 . S
S1280 N1282 1.610 . S
N1281 S1280 1.613 . S
N1281 C1284 1.350 . S
N1282 S1280 1.610 . S
N1282 C1283 1.351 . S
C1283 C1277 1.428 . S
C1283 N1282 1.351 . S
C1283 C1284 1.434 . S
C1284 C1275 1.429 . S
C1284 N1281 1.350 . S
C1284 C1283 1.434 . S
C1285 C1286 1.369 . S
C1285 C1287 1.419 . S
C1285 H1289 0.930 . S
C1286 C1285 1.369 . S
C1286 C1295 1.429 . S
C1287 C1285 1.419 . S
C1287 C1288 1.363 . S
C1287 H1290 0.929 . S
C1288 C1287 1.363 . S
C1288 C1294 1.428 . S
H1289 C1285 0.930 . S
H1290 C1287 0.929 . S
S1291 N1292 1.613 . S
S1291 N1293 1.610 . S
N1292 S1291 1.613 . S
N1292 C1295 1.350 . S
N1293 S1291 1.610 . S
N1293 C1294 1.351 . S
C1294 C1288 1.428 . S
C1294 N1293 1.351 . S
C1294 C1295 1.434 . S
C1295 C1286 1.429 . S
C1295 N1292 1.350 . S
C1295 C1294 1.434 . S
C1296 C1297 1.369 . S
C1296 C1298 1.419 . S
C1296 H1300 0.930 . S
C1297 C1296 1.369 . S
C1297 C1306 1.429 . S
C1298 C1296 1.419 . S
C1298 C1299 1.363 . S
C1298 H1301 0.929 . S
C1299 C1298 1.363 . S
C1299 C1305 1.428 . S
H1300 C1296 0.930 . S
H1301 C1298 0.929 . S
S1302 N1303 1.613 . S
S1302 N1304 1.610 . S
N1303 S1302 1.613 . S
N1303 C1306 1.350 . S
N1304 S1302 1.610 . S
N1304 C1305 1.351 . S
C1305 C1299 1.428 . S
C1305 N1304 1.351 . S
C1305 C1306 1.434 . S
C1306 C1297 1.429 . S
C1306 N1303 1.350 . S
C1306 C1305 1.434 . S
C1307 C1308 1.369 1_455 S
C1307 C1309 1.419 . S
C1307 H1311 0.930 . S
C1308 C1307 1.369 1_655 S
C1308 C1317 1.429 . S
C1309 C1307 1.419 . S
C1309 C1310 1.363 1_455 S
C1309 H1312 0.929 . S
C1310 C1309 1.363 1_655 S
C1310 C1316 1.428 . S
H1311 C1307 0.930 . S
H1312 C1309 0.929 . S
S1313 N1314 1.613 . S
S1313 N1315 1.610 . S
N1314 S1313 1.613 . S
N1314 C1317 1.350 . S
N1315 S1313 1.610 . S
N1315 C1316 1.351 . S
C1316 C1310 1.428 . S
C1316 N1315 1.351 . S
C1316 C1317 1.434 . S
C1317 C1308 1.429 . S
C1317 N1314 1.350 . S
C1317 C1316 1.434 . S
C1318 C1319 1.369 . S
C1318 C1320 1.419 . S
C1318 H1322 0.930 . S
C1319 C1318 1.369 . S
C1319 C1328 1.429 . S
C1320 C1318 1.419 . S
C1320 C1321 1.363 . S
C1320 H1323 0.929 . S
C1321 C1320 1.363 . S
C1321 C1327 1.428 . S
H1322 C1318 0.930 . S
H1323 C1320 0.929 . S
S1324 N1325 1.613 . S
S1324 N1326 1.610 . S
N1325 S1324 1.613 . S
N1325 C1328 1.350 . S
N1326 S1324 1.610 . S
N1326 C1327 1.351 . S
C1327 C1321 1.428 . S
C1327 N1326 1.351 . S
C1327 C1328 1.434 . S
C1328 C1319 1.429 . S
C1328 N1325 1.350 . S
C1328 C1327 1.434 . S
C1329 C1330 1.369 . S
C1329 C1331 1.419 . S
C1329 H1333 0.956 . S
C1330 C1329 1.369 . S
C1330 C1339 1.429 . S
C1331 C1329 1.419 . S
C1331 C1332 1.363 . S
C1331 H1334 0.922 1_455 S
C1332 C1331 1.363 . S
C1332 C1338 1.428 . S
H1333 C1329 0.956 . S
H1334 C1331 0.922 1_655 S
S1335 N1336 1.613 . S
S1335 N1337 1.610 . S
N1336 S1335 1.613 . S
N1336 C1339 1.350 . S
N1337 S1335 1.610 . S
N1337 C1338 1.351 . S
C1338 C1332 1.428 . S
C1338 N1337 1.351 . S
C1338 C1339 1.434 . S
C1339 C1330 1.429 . S
C1339 N1336 1.350 . S
C1339 C1338 1.434 . S
C1340 C1341 1.369 . S
C1340 C1342 1.419 . S
C1340 H1344 0.930 . S
C1341 C1340 1.369 . S
C1341 C1350 1.429 . S
C1342 C1340 1.419 . S
C1342 C1343 1.363 . S
C1342 H1345 0.929 . S
C1343 C1342 1.363 . S
C1343 C1349 1.428 . S
H1344 C1340 0.930 . S
H1345 C1342 0.929 . S
S1346 N1347 1.613 . S
S1346 N1348 1.610 . S
N1347 S1346 1.613 . S
N1347 C1350 1.350 . S
N1348 S1346 1.610 . S
N1348 C1349 1.351 . S
C1349 C1343 1.428 . S
C1349 N1348 1.351 . S
C1349 C1350 1.434 . S
C1350 C1341 1.429 . S
C1350 N1347 1.350 . S
C1350 C1349 1.434 . S
C1351 C1352 1.369 . S
C1351 C1353 1.419 . S
C1351 H1355 0.930 . S
C1352 C1351 1.369 . S
C1352 C1361 1.429 . S
C1353 C1351 1.419 . S
C1353 C1354 1.363 . S
C1353 H1356 0.929 . S
C1354 C1353 1.363 . S
C1354 C1360 1.428 . S
H1355 C1351 0.930 . S
H1356 C1353 0.929 . S
S1357 N1358 1.613 . S
S1357 N1359 1.610 . S
N1358 S1357 1.613 . S
N1358 C1361 1.350 . S
N1359 S1357 1.610 . S
N1359 C1360 1.351 . S
C1360 C1354 1.428 . S
C1360 N1359 1.351 . S
C1360 C1361 1.434 . S
C1361 C1352 1.429 . S
C1361 N1358 1.350 . S
C1361 C1360 1.434 . S
C1362 C1363 1.369 . S
C1362 C1364 1.419 . S
C1362 H1366 0.930 . S
C1363 C1362 1.369 . S
C1363 C1372 1.429 . S
C1364 C1362 1.419 . S
C1364 C1365 1.363 . S
C1364 H1367 0.929 . S
C1365 C1364 1.363 . S
C1365 C1371 1.428 . S
H1366 C1362 0.930 . S
H1367 C1364 0.929 . S
S1368 N1369 1.613 . S
S1368 N1370 1.610 . S
N1369 S1368 1.613 . S
N1369 C1372 1.350 . S
N1370 S1368 1.610 . S
N1370 C1371 1.351 . S
C1371 C1365 1.428 . S
C1371 N1370 1.351 . S
C1371 C1372 1.434 . S
C1372 C1363 1.429 . S
C1372 N1369 1.350 . S
C1372 C1371 1.434 . S
C1373 C1374 1.369 . S
C1373 C1375 1.419 . S
C1373 H1377 0.930 . S
C1374 C1373 1.369 . S
C1374 C1383 1.429 . S
C1375 C1373 1.419 . S
C1375 C1376 1.363 . S
C1375 H1378 0.929 . S
C1376 C1375 1.363 . S
C1376 C1382 1.428 . S
H1377 C1373 0.930 . S
H1378 C1375 0.929 . S
S1379 N1380 1.613 . S
S1379 N1381 1.610 . S
N1380 S1379 1.613 . S
N1380 C1383 1.350 . S
N1381 S1379 1.610 . S
N1381 C1382 1.351 . S
C1382 C1376 1.428 . S
C1382 N1381 1.351 . S
C1382 C1383 1.434 . S
C1383 C1374 1.429 . S
C1383 N1380 1.350 . S
C1383 C1382 1.434 . S
C1384 C1385 1.369 . S
C1384 C1386 1.419 . S
C1384 H1388 0.930 . S
C1385 C1384 1.369 . S
C1385 C1394 1.429 . S
C1386 C1384 1.419 . S
C1386 C1387 1.363 . S
C1386 H1389 0.929 . S
C1387 C1386 1.363 . S
C1387 C1393 1.428 . S
H1388 C1384 0.930 . S
H1389 C1386 0.929 . S
S1390 N1391 1.613 . S
S1390 N1392 1.610 . S
N1391 S1390 1.613 . S
N1391 C1394 1.350 . S
N1392 S1390 1.610 . S
N1392 C1393 1.351 . S
C1393 C1387 1.428 . S
C1393 N1392 1.351 . S
C1393 C1394 1.434 . S
C1394 C1385 1.429 . S
C1394 N1391 1.350 . S
C1394 C1393 1.434 . S
C1395 C1396 1.369 . S
C1395 C1397 1.419 . S
C1395 H1399 0.930 . S
C1396 C1395 1.369 . S
C1396 C1405 1.429 . S
C1397 C1395 1.419 . S
C1397 C1398 1.363 . S
C1397 H1400 0.929 . S
C1398 C1397 1.363 . S
C1398 C1404 1.428 . S
H1399 C1395 0.930 . S
H1400 C1397 0.929 . S
S1401 N1402 1.613 . S
S1401 N1403 1.610 . S
N1402 S1401 1.613 . S
N1402 C1405 1.350 . S
N1403 S1401 1.610 . S
N1403 C1404 1.351 . S
C1404 C1398 1.428 . S
C1404 N1403 1.351 . S
C1404 C1405 1.434 . S
C1405 C1396 1.429 . S
C1405 N1402 1.350 . S
C1405 C1404 1.434 . S
C1406 C1407 1.369 . S
C1406 C1408 1.419 . S
C1406 H1410 0.930 . S
C1407 C1406 1.369 . S
C1407 C1416 1.429 . S
C1408 C1406 1.419 . S
C1408 C1409 1.363 . S
C1408 H1411 0.929 . S
C1409 C1408 1.363 . S
C1409 C1415 1.428 . S
H1410 C1406 0.930 . S
H1411 C1408 0.929 . S
S1412 N1413 1.613 . S
S1412 N1414 1.610 . S
N1413 S1412 1.613 . S
N1413 C1416 1.350 . S
N1414 S1412 1.610 . S
N1414 C1415 1.351 . S
C1415 C1409 1.428 . S
C1415 N1414 1.351 . S
C1415 C1416 1.434 . S
C1416 C1407 1.429 . S
C1416 N1413 1.350 . S
C1416 C1415 1.434 . S
C1417 C1418 1.369 . S
C1417 C1419 1.419 . S
C1417 H1421 0.930 . S
C1418 C1417 1.369 . S
C1418 C1427 1.429 . S
C1419 C1417 1.419 . S
C1419 C1420 1.363 . S
C1419 H1422 0.929 . S
C1420 C1419 1.363 . S
C1420 C1426 1.428 . S
H1421 C1417 0.930 . S
H1422 C1419 0.929 . S
S1423 N1424 1.613 . S
S1423 N1425 1.610 . S
N1424 S1423 1.613 . S
N1424 C1427 1.350 . S
N1425 S1423 1.610 . S
N1425 C1426 1.351 . S
C1426 C1420 1.428 . S
C1426 N1425 1.351 . S
C1426 C1427 1.434 . S
C1427 C1418 1.429 . S
C1427 N1424 1.350 . S
C1427 C1426 1.434 . S
C1428 C1429 1.369 . S
C1428 C1430 1.419 . S
C1428 H1432 0.930 . S
C1429 C1428 1.369 . S
C1429 C1438 1.428 . S
C1430 C1428 1.419 . S
C1430 C1431 1.363 . S
C1430 H1433 0.929 . S
C1431 C1430 1.363 . S
C1431 C1437 1.428 1_556 S
H1432 C1428 0.930 . S
H1433 C1430 0.929 . S
S1434 N1435 1.613 . S
S1434 N1436 1.610 . S
N1435 S1434 1.613 . S
N1435 C1438 1.350 1_554 S
N1436 S1434 1.610 . S
N1436 C1437 1.351 . S
C1437 C1431 1.428 1_554 S
C1437 N1436 1.351 . S
C1437 C1438 1.434 1_554 S
C1438 C1429 1.428 . S
C1438 N1435 1.350 1_556 S
C1438 C1437 1.434 1_556 S
C1439 C1440 1.369 . S
C1439 C1441 1.419 . S
C1439 H1443 0.930 . S
C1440 C1439 1.369 . S
C1440 C1449 1.429 . S
C1441 C1439 1.419 . S
C1441 C1442 1.363 . S
C1441 H1444 0.929 . S
C1442 C1441 1.363 . S
C1442 C1448 1.428 . S
H1443 C1439 0.930 . S
H1444 C1441 0.929 . S
S1445 N1446 1.613 . S
S1445 N1447 1.610 . S
N1446 S1445 1.613 . S
N1446 C1449 1.350 . S
N1447 S1445 1.610 . S
N1447 C1448 1.351 . S
C1448 C1442 1.428 . S
C1448 N1447 1.351 . S
C1448 C1449 1.434 . S
C1449 C1440 1.429 . S
C1449 N1446 1.350 . S
C1449 C1448 1.434 . S
C1450 C1451 1.369 . S
C1450 C1452 1.415 1_554 S
C1450 H1454 0.930 1_554 S
C1451 C1450 1.369 . S
C1451 C1460 1.429 . S
C1452 C1450 1.415 1_556 S
C1452 C1453 1.354 1_556 S
C1452 H1455 0.943 . S
C1453 C1452 1.354 1_554 S
C1453 C1459 1.428 . S
H1454 C1450 0.930 1_556 S
H1455 C1452 0.943 . S
S1456 N1457 1.613 . S
S1456 N1458 1.610 . S
N1457 S1456 1.613 . S
N1457 C1460 1.350 . S
N1458 S1456 1.610 . S
N1458 C1459 1.351 . S
C1459 C1453 1.428 . S
C1459 N1458 1.351 . S
C1459 C1460 1.434 . S
C1460 C1451 1.429 . S
C1460 N1457 1.350 . S
C1460 C1459 1.434 . S
C1461 C1462 1.369 . S
C1461 C1463 1.419 . S
C1461 H1465 0.930 . S
C1462 C1461 1.369 . S
C1462 C1471 1.429 . S
C1463 C1461 1.419 . S
C1463 C1464 1.363 . S
C1463 H1466 0.929 . S
C1464 C1463 1.363 . S
C1464 C1470 1.428 . S
H1465 C1461 0.930 . S
H1466 C1463 0.929 . S
S1467 N1468 1.613 1_556 S
S1467 N1469 1.610 . S
N1468 S1467 1.613 1_554 S
N1468 C1471 1.350 . S
N1469 S1467 1.610 . S
N1469 C1470 1.351 1_556 S
C1470 C1464 1.428 . S
C1470 N1469 1.351 1_554 S
C1470 C1471 1.434 . S
C1471 C1462 1.429 . S
C1471 N1468 1.350 . S
C1471 C1470 1.434 . S
C947 C514 1.448 . S
C945 C177 1.381 . S
C958 C562 1.608 . S
C956 C209 1.644 . S
C967 C253 1.431 . S
C969 C598 1.360 . S
C980 C634 1.553 . S
C978 C157 1.562 . S
C991 C660 1.501 . S
C989 C343 1.519 . S
C1002 C696 1.549 . S
C1000 C401 1.511 . S
C1011 C369 1.535 . S
C1013 C731 1.542 . S
C1024 C768 1.587 1_565 S
C1022 C317 1.565 . S
C1033 C375 1.497 . S
C1035 C802 1.470 . S
C1046 C850 1.562 . S
C1044 C305 1.599 . S
C1055 C349 1.505 . S
C1057 C803 1.502 . S
C1068 C840 1.588 . S
C1066 C413 1.533 . S
C1077 C241 1.476 . S
C1079 C886 1.414 . S
C1088 C151 1.529 . S
C1090 C875 1.567 . S
C1099 C189 1.426 . S
C1101 C876 1.518 . S
C1110 C215 1.597 . S
C1112 C874 1.604 1_655 S
C1121 C113 1.496 . S
C1123 C622 1.466 . S
C1132 C471 1.388 . S
C1134 C623 1.478 . S
C1145 C526 1.578 . S
C1143 C509 1.595 . S
C1156 C551 1.492 . S
C1154 C279 1.490 . S
C1165 C145 1.525 . S
C1167 C658 1.566 . S
C1178 C766 1.528 . S
C1176 C381 1.556 . S
C1189 C659 1.576 . S
C1187 C311 1.568 . S
C1200 C732 1.574 . S
C1198 C407 1.536 . S
C1211 C730 1.443 . S
C1209 C465 1.391 . S
C1220 C497 1.644 . S
C1222 C778 1.606 . S
C1231 C285 1.430 . S
C1233 C670 1.363 . S
C1244 C706 1.548 . S
C1242 C445 1.556 . S
C1253 C119 1.519 . S
C1255 C588 1.498 . S
C1266 C624 1.549 . S
C1264 C17 1.507 . S
C1277 C515 1.542 . S
C1275 C49 1.536 . S
C1288 C552 1.586 . S
C1286 C93 1.566 . S
C1297 C55 1.498 . S
C1299 C838 1.473 . S
C1308 C81 1.600 . S
C1310 C814 1.560 . S
C1319 C125 1.505 . S
C1321 C839 1.502 . S
C1330 C29 1.538 . S
C1332 C804 1.586 . S
C1343 C922 1.415 . S
C1341 C273 1.478 . S
C1354 C911 1.566 . S
C1352 C439 1.530 . S
C1365 C912 1.516 . S
C1363 C477 1.431 . S
C1374 C503 1.593 . S
C1376 C910 1.603 . S
C1385 C337 1.496 . S
C1387 C694 1.466 . S
C1398 C695 1.478 . S
C1396 C183 1.385 . S
C1409 C742 1.579 . S
C1407 C221 1.594 . S
C1420 C767 1.493 . S
C1418 C247 1.489 . S
C1429 C433 1.533 . S
C1431 C586 1.565 1_556 S
C1442 C550 1.525 . S
C1440 C61 1.555 . S
C1451 C87 1.567 . S
C1453 C587 1.576 . S
C1464 C516 1.574 . S
C1462 C23 1.536 . S
