# Generated by pormake.
# Topology pyr, (3,6)-cn, num edge types: 1
# Building blocks:
#     Node 0, Type 0, BuildingBlock: QEWDON_clean_linker_0, # of connection points: 3
#     Node 1, Type 0, BuildingBlock: QEWDON_clean_linker_0, # of connection points: 3
#     Node 2, Type 0, BuildingBlock: QEWDON_clean_linker_0, # of connection points: 3
#     Node 3, Type 0, BuildingBlock: QEWDON_clean_linker_0, # of connection points: 3
#     Node 4, Type 0, BuildingBlock: QEWDON_clean_linker_0, # of connection points: 3
#     Node 5, Type 0, BuildingBlock: QEWDON_clean_linker_0, # of connection points: 3
#     Node 6, Type 0, BuildingBlock: QEWDON_clean_linker_0, # of connection points: 3
#     Node 7, Type 0, BuildingBlock: QEWDON_clean_linker_0, # of connection points: 3
#     Node 8, Type 1, BuildingBlock: BETDAH_clean_sbu_0, # of connection points: 6
#     Node 9, Type 1, BuildingBlock: BETDAH_clean_sbu_0, # of connection points: 6
#     Node 10, Type 1, BuildingBlock: BETDAH_clean_sbu_0, # of connection points: 6
#     Node 11, Type 1, BuildingBlock: BETDAH_clean_sbu_0, # of connection points: 6
#     Edge 12, Type (0, 1), BuildingBlock: OJICUG_clean_linker_0, # of connection points: 2
#     Edge 13, Type (0, 1), BuildingBlock: OJICUG_clean_linker_0, # of connection points: 2
#     Edge 14, Type (0, 1), BuildingBlock: OJICUG_clean_linker_0, # of connection points: 2
#     Edge 15, Type (0, 1), BuildingBlock: OJICUG_clean_linker_0, # of connection points: 2
#     Edge 16, Type (0, 1), BuildingBlock: OJICUG_clean_linker_0, # of connection points: 2
#     Edge 17, Type (0, 1), BuildingBlock: OJICUG_clean_linker_0, # of connection points: 2
#     Edge 18, Type (0, 1), BuildingBlock: OJICUG_clean_linker_0, # of connection points: 2
#     Edge 19, Type (0, 1), BuildingBlock: OJICUG_clean_linker_0, # of connection points: 2
#     Edge 20, Type (0, 1), BuildingBlock: OJICUG_clean_linker_0, # of connection points: 2
#     Edge 21, Type (0, 1), BuildingBlock: OJICUG_clean_linker_0, # of connection points: 2
#     Edge 22, Type (0, 1), BuildingBlock: OJICUG_clean_linker_0, # of connection points: 2
#     Edge 23, Type (0, 1), BuildingBlock: OJICUG_clean_linker_0, # of connection points: 2
#     Edge 24, Type (0, 1), BuildingBlock: OJICUG_clean_linker_0, # of connection points: 2
#     Edge 25, Type (0, 1), BuildingBlock: OJICUG_clean_linker_0, # of connection points: 2
#     Edge 26, Type (0, 1), BuildingBlock: OJICUG_clean_linker_0, # of connection points: 2
#     Edge 27, Type (0, 1), BuildingBlock: OJICUG_clean_linker_0, # of connection points: 2
#     Edge 28, Type (0, 1), BuildingBlock: OJICUG_clean_linker_0, # of connection points: 2
#     Edge 29, Type (0, 1), BuildingBlock: OJICUG_clean_linker_0, # of connection points: 2
#     Edge 30, Type (0, 1), BuildingBlock: OJICUG_clean_linker_0, # of connection points: 2
#     Edge 31, Type (0, 1), BuildingBlock: OJICUG_clean_linker_0, # of connection points: 2
#     Edge 32, Type (0, 1), BuildingBlock: OJICUG_clean_linker_0, # of connection points: 2
#     Edge 33, Type (0, 1), BuildingBlock: OJICUG_clean_linker_0, # of connection points: 2
#     Edge 34, Type (0, 1), BuildingBlock: OJICUG_clean_linker_0, # of connection points: 2
#     Edge 35, Type (0, 1), BuildingBlock: OJICUG_clean_linker_0, # of connection points: 2
# Relax obj value: 0.226
# Max RMSD: 0.265
# Mean RMSD: 0.197
data_MOF--net-pyr--node1-BETDAH_clean_sbu_0--node2-QEWDON_clean_linker_0--edge1-OJICUG_clean_linker_0
_symmetry_space_group_name_H-M    P1
_symmetry_Int_Tables_number       1
_symmetry_cell_setting            triclinic
loop_
_symmetry_equiv_pos_as_xyz
'x, y, z'
_cell_length_a     28.567686
_cell_length_b     30.882459
_cell_length_c     28.764233
_cell_angle_alpha  92.18717
_cell_angle_beta   89.642737
_cell_angle_gamma 112.84773
loop_
_atom_site_label
_atom_site_type_symbol
_atom_site_fract_x
_atom_site_fract_y
_atom_site_fract_z
_atom_type_partial_charge
H0 H 0.48983 0.37634 0.22234 0.0
C1 C 0.46301 0.36735 0.25072 0.0
C2 C 0.45069 0.32416 0.2723 0.0
C3 C 0.43715 0.39676 0.26268 0.0
H4 H 0.40321 0.278 0.32326 0.0
C5 C 0.41337 0.3114 0.30679 0.0
C6 C 0.38654 0.33972 0.31815 0.0
C7 C 0.39992 0.38307 0.29741 0.0
C8 C 0.44386 0.43865 0.23539 0.0
H9 H 0.37891 0.40484 0.30621 0.0
C10 C 0.40095 0.44724 0.22239 0.0
C11 C 0.40574 0.48735 0.19822 0.0
C12 C 0.49218 0.47019 0.22237 0.0
H13 H 0.52593 0.46449 0.23181 0.0
C14 C 0.49731 0.51007 0.19789 0.0
H15 H 0.36343 0.4228 0.23169 0.0
C16 C 0.45444 0.51893 0.18619 0.0
H17 H 0.45931 0.55014 0.16747 0.0
H18 H 0.5347 0.53444 0.18828 0.0
H19 H 0.15992 0.90864 0.77288 0.0
C20 C 0.18736 0.89461 0.76067 0.0
C21 C 0.22522 0.89349 0.79099 0.0
C22 C 0.18555 0.87892 0.71397 0.0
H23 H 0.29231 0.87758 0.79572 0.0
C24 C 0.26119 0.87652 0.7737 0.0
C25 C 0.25952 0.86057 0.72732 0.0
C26 C 0.22101 0.86086 0.69763 0.0
C27 C 0.15047 0.8866 0.68105 0.0
H28 H 0.22062 0.84992 0.66131 0.0
C29 C 0.15432 0.9326 0.67385 0.0
C30 C 0.12348 0.9411 0.64055 0.0
C31 C 0.11503 0.84879 0.65526 0.0
H32 H 0.11186 0.81317 0.66025 0.0
C33 C 0.08323 0.85683 0.62303 0.0
H34 H 0.18286 0.96186 0.69285 0.0
C35 C 0.0874 0.90263 0.61557 0.0
H36 H 0.06241 0.90795 0.59026 0.0
H37 H 0.05556 0.82752 0.60347 0.0
H38 H 0.75045 0.52751 0.95409 0.0
C39 C 0.73241 0.49118 0.96364 0.0
C40 C 0.75783 0.47201 0.99395 0.0
C41 C 0.68233 0.46445 0.94784 0.0
H42 H 0.74976 0.41066 1.03252 0.0
C43 C 0.73224 0.42509 1.00742 0.0
C44 C 0.68244 0.39766 0.99225 0.0
C45 C 0.65822 0.41766 0.96209 0.0
C46 C 0.65035 0.4876 0.92675 0.0
H47 H 0.61924 0.39746 0.95132 0.0
C48 C 0.65857 0.50796 0.88211 0.0
C49 C 0.62552 0.52881 0.86531 0.0
C50 C 0.60936 0.48864 0.95338 0.0
H51 H 0.6022 0.47371 0.98748 0.0
C52 C 0.57728 0.50898 0.93696 0.0
H53 H 0.68989 0.50755 0.86096 0.0
C54 C 0.5852 0.52881 0.89355 0.0
H55 H 0.55929 0.54414 0.88174 0.0
H56 H 0.54594 0.50936 0.95809 0.0
H57 H 0.94214 0.87208 0.42534 0.0
C58 C 0.91138 0.8475 0.44493 0.0
C59 C 0.90043 0.86131 0.48971 0.0
C60 C 0.8819 0.80277 0.42441 0.0
H61 H 0.84904 0.84082 0.5472 0.0
C62 C 0.85894 0.82955 0.51376 0.0
C63 C 0.82787 0.78506 0.49405 0.0
C64 C 0.84 0.77198 0.4492 0.0
C65 C 0.88791 0.79361 0.37352 0.0
H66 H 0.81585 0.73864 0.43282 0.0
C67 C 0.91093 0.76298 0.35536 0.0
C68 C 0.91789 0.75895 0.30638 0.0
C69 C 0.87108 0.81842 0.34231 0.0
H70 H 0.85338 0.84184 0.35508 0.0
C71 C 0.87692 0.81374 0.29454 0.0
H72 H 0.92454 0.74382 0.37891 0.0
C73 C 0.90023 0.78463 0.27678 0.0
H74 H 0.90445 0.78208 0.23942 0.0
H75 H 0.86363 0.83318 0.27106 0.0
H76 H 0.66519 0.78848 1.02257 0.0
C77 C 0.68256 0.80513 0.99086 0.0
C78 C 0.72489 0.79783 0.97299 0.0
C79 C 0.66385 0.83519 0.96847 0.0
H80 H 0.78316 0.8175 0.92126 0.0
C81 C 0.7486 0.82092 0.93319 0.0
C82 C 0.73169 0.85198 0.9115 0.0
C83 C 0.68882 0.85844 0.92878 0.0
C84 C 0.61944 0.84379 0.98705 0.0
H85 H 0.67539 0.8821 0.91154 0.0
C86 C 0.61948 0.88952 0.98867 0.0
C87 C 0.57696 0.89777 1.00482 0.0
C88 C 0.57637 0.8063 1.00229 0.0
H89 H 0.57506 0.77075 1.00105 0.0
C90 C 0.53408 0.81421 1.01837 0.0
H91 H 0.65268 0.91876 0.97739 0.0
C92 C 0.53422 0.8595 1.01961 0.0
H93 H 0.5012 0.86467 1.03309 0.0
H94 H 0.50102 0.78509 1.03 0.0
H95 H 0.77767 0.20194 0.65071 0.0
C96 C 0.76888 0.19629 0.61386 0.0
C97 C 0.80139 0.18469 0.5835 0.0
C98 C 0.72583 0.20219 0.59687 0.0
H99 H 0.8138 0.16883 0.51182 0.0
C100 C 0.79045 0.17963 0.53558 0.0
C101 C 0.74903 0.18747 0.51771 0.0
C102 C 0.71636 0.19798 0.54863 0.0
C103 C 0.69155 0.21401 0.62942 0.0
H104 H 0.68377 0.20327 0.53507 0.0
C105 C 0.67182 0.24736 0.61767 0.0
C106 C 0.63962 0.25913 0.64816 0.0
C107 C 0.67869 0.19249 0.6725 0.0
H108 H 0.69276 0.16621 0.68237 0.0
C109 C 0.64697 0.20433 0.70311 0.0
H110 H 0.68263 0.26527 0.58524 0.0
C111 C 0.62759 0.23758 0.69115 0.0
H112 H 0.6028 0.24607 0.71522 0.0
H113 H 0.63726 0.18755 0.73615 0.0
H114 H 0.48177 0.89047 0.28894 0.0
C115 C 0.44345 0.86814 0.27798 0.0
C116 C 0.41712 0.88592 0.24774 0.0
C117 C 0.42272 0.82075 0.29145 0.0
H118 H 0.34837 0.86894 0.20831 0.0
C119 C 0.36838 0.85569 0.23212 0.0
C120 C 0.34568 0.80851 0.24554 0.0
C121 C 0.37344 0.79139 0.27543 0.0
C122 C 0.45723 0.80082 0.31369 0.0
H123 H 0.3577 0.75491 0.28482 0.0
C124 C 0.44649 0.77559 0.35572 0.0
C125 C 0.48208 0.75829 0.37392 0.0
C126 C 0.50317 0.80781 0.2909 0.0
H127 H 0.51234 0.82624 0.25865 0.0
C128 C 0.53775 0.79103 0.30872 0.0
H129 H 0.41131 0.76957 0.37384 0.0
C130 C 0.52744 0.76667 0.34966 0.0
H131 H 0.5554 0.75429 0.36264 0.0
H132 H 0.57288 0.79692 0.29058 0.0
H133 H 0.29103 0.54049 0.80785 0.0
C134 C 0.26692 0.50654 0.79263 0.0
C135 C 0.27794 0.49245 0.74774 0.0
C136 C 0.22609 0.47607 0.81889 0.0
H137 H 0.25599 0.43516 0.6962 0.0
C138 C 0.24697 0.44721 0.72964 0.0
C139 C 0.20664 0.41579 0.75518 0.0
C140 C 0.19673 0.43064 0.79987 0.0
C141 C 0.22129 0.48653 0.86972 0.0
H142 H 0.16684 0.40635 0.82053 0.0
C143 C 0.19607 0.51543 0.8877 0.0
C144 C 0.19011 0.52035 0.93675 0.0
C145 C 0.24114 0.46428 0.90117 0.0
H146 H 0.26045 0.44214 0.88855 0.0
C147 C 0.23611 0.46974 0.94897 0.0
H148 H 0.18012 0.53259 0.86399 0.0
C149 C 0.21071 0.49715 0.96656 0.0
H150 H 0.20724 0.50038 1.00397 0.0
H151 H 0.25167 0.45222 0.97262 0.0
Ho152 Ho 0.06093 0.16111 0.57803 0.0
Ho153 Ho 0.04431 0.11589 0.67223 0.0
C154 C 0.10153 0.2259 0.67206 0.0
C155 C 0.07 0.21295 0.50749 0.0
C156 C 0.11001 0.22888 0.47256 0.0
C157 C 0.12658 0.27491 0.4572 0.0
C158 C 0.17029 0.29302 0.43023 0.0
C159 C 0.19804 0.26529 0.41846 0.0
C160 C 0.18024 0.21866 0.43273 0.0
C161 C 0.13666 0.20064 0.45954 0.0
C162 C 0.13008 0.12461 0.60005 0.0
C163 C 1.00246 0.04958 0.57752 0.0
C164 C 0.03299 0.06427 0.74306 0.0
C165 C 0.98606 1.03409 0.76553 0.0
C166 C 0.98255 0.99176 0.78418 0.0
C167 C 0.93663 0.96143 0.80253 0.0
C168 C 0.89365 0.97311 0.8024 0.0
C169 C 0.89736 1.01553 0.78357 0.0
C170 C 0.94309 1.04564 0.76507 0.0
C171 C 0.97271 0.14795 0.64734 0.0
O172 O 0.07824 0.22146 0.63144 0.0
O173 O 0.10217 0.18823 0.69212 0.0
O174 O 0.04193 0.16794 0.50666 0.0
O175 O 0.08488 0.23 0.54947 0.0
O176 O 0.11922 0.1316 0.55816 0.0
O177 O 0.11029 0.14522 0.6275 0.0
O178 O 1.01842 0.05279 0.62122 0.0
O179 O 1.00757 0.08778 0.55492 0.0
O180 O 0.04362 0.10941 0.74676 0.0
O181 O 0.03909 0.05039 0.70088 0.0
O182 O 0.98446 0.14479 0.68993 0.0
O183 O 0.99425 0.12844 0.62103 0.0
H184 H 0.10674 0.29732 0.46743 0.0
H185 H 0.18277 0.32887 0.41918 0.0
H186 H 0.20109 0.19659 0.42477 0.0
H187 H 0.12497 0.1652 0.47156 0.0
H188 H 1.01515 0.98204 0.78422 0.0
H189 H 0.93495 0.92918 0.81743 0.0
H190 H 0.86476 1.0252 0.78272 0.0
H191 H 0.94465 0.07775 0.75003 0.0
Ho192 Ho 0.59401 0.14805 0.13747 0.0
Ho193 Ho 0.49867 0.12921 0.09242 0.0
C194 C 0.51995 0.18939 0.18469 0.0
C195 C 0.68358 0.1711 0.17259 0.0
C196 C 0.6987 0.17152 0.22157 0.0
C197 C 0.73531 0.21231 0.24236 0.0
C198 C 0.74501 0.21495 0.29022 0.0
C199 C 0.71819 0.17675 0.31806 0.0
C200 C 0.68278 0.13542 0.29678 0.0
C201 C 0.67297 0.13287 0.24915 0.0
C202 C 0.51637 0.07527 0.17681 0.0
C203 C 0.56756 0.07697 1.04974 0.0
C204 C 0.41245 0.10484 1.04966 0.0
C205 C 0.37543 0.0693 1.01856 0.0
C206 C 0.34815 1.02277 1.03131 0.0
C207 C 0.31279 0.99074 1.00026 0.0
C208 C 0.30436 1.00485 0.95614 0.0
C209 C 0.33145 0.0517 0.94417 0.0
C210 C 0.36617 0.0835 0.97512 0.0
C211 C 0.56877 0.21734 0.07636 0.0
O212 O 0.56795 0.20007 0.17422 0.0
O213 O 0.48443 0.15333 0.16322 0.0
O214 O 0.65772 0.12976 0.15316 0.0
O215 O 0.66463 0.20208 0.16296 0.0
O216 O 0.55227 0.1083 0.19963 0.0
O217 O 0.52306 0.08282 0.13404 0.0
O218 O 0.5215 0.07707 0.05199 0.0
O219 O 0.605 0.10736 0.07511 0.0
O220 O 0.4562 0.12945 1.03115 0.0
O221 O 0.41648 0.09476 0.09292 0.0
O222 O 0.52219 0.20708 0.08788 0.0
O223 O 0.57752 0.18007 0.07514 0.0
H224 H 0.75519 0.24266 0.22184 0.0
H225 H 0.77225 0.24744 0.30562 0.0
H226 H 0.6622 0.10507 0.31704 0.0
H227 H 0.64422 0.10095 0.23425 0.0
H228 H 0.35424 1.0111 0.06493 0.0
H229 H 0.29238 0.95498 1.01066 0.0
H230 H 0.32719 0.06373 0.91019 0.0
H231 H 0.38642 0.11936 0.96475 0.0
Ho232 Ho 0.545 0.59744 0.5892 0.0
Ho233 Ho 0.55596 0.68045 0.6447 0.0
C234 C 0.59199 0.60819 0.6951 0.0
C235 C 0.55873 0.52878 0.54537 0.0
C236 C 0.56326 0.48568 0.55995 0.0
C237 C 0.58617 0.46286 0.53035 0.0
C238 C 0.59413 0.42373 0.54516 0.0
C239 C 0.57924 0.40681 0.58991 0.0
C240 C 0.55551 0.42951 0.61922 0.0
C241 C 0.54768 0.46872 0.60438 0.0
C242 C 0.45849 0.58795 0.63641 0.0
C243 C 0.5104 0.66936 0.53938 0.0
C244 C 0.54064 0.74769 0.69024 0.0
C245 C 0.50278 0.76872 0.68772 0.0
C246 C 0.46301 0.75169 0.65493 0.0
C247 C 0.42473 0.76922 0.65526 0.0
C248 C 0.42527 0.80374 0.68879 0.0
C249 C 0.46581 0.82123 0.7211 0.0
C250 C 0.50427 0.8039 0.72045 0.0
C251 C 0.64281 0.68943 0.59912 0.0
O252 O 0.5818 0.58418 0.65468 0.0
O253 O 0.58345 0.64711 0.70078 0.0
O254 O 0.51416 0.53077 0.55072 0.0
O255 O 0.59589 0.56775 0.55907 0.0
O256 O 0.45973 0.57313 0.59384 0.0
O257 O 0.50347 0.60666 0.65203 0.0
O258 O 0.50914 0.68575 0.58239 0.0
O259 O 0.53013 0.63764 0.53172 0.0
O260 O 0.57184 0.75471 0.65534 0.0
O261 O 0.52293 0.70417 0.7029 0.0
O262 O 0.64091 0.7039 0.64174 0.0
O263 O 0.59817 0.67124 0.58236 0.0
H264 H 0.59886 0.4759 0.49614 0.0
H265 H 0.61331 0.40761 0.52203 0.0
H266 H 0.54318 0.4171 0.65368 0.0
H267 H 0.53011 0.48619 0.62777 0.0
H268 H 0.46078 0.72407 0.62978 0.0
H269 H 0.39441 0.75532 0.62964 0.0
H270 H 0.46699 0.84715 0.74799 0.0
H271 H 0.53443 0.81704 0.74633 0.0
Ho272 Ho 0.05042 0.59644 0.14632 0.0
Ho273 Ho 0.05286 0.67942 0.09618 0.0
C274 C 0.15024 0.69441 0.15648 0.0
C275 C 0.0744 0.53041 0.17756 0.0
C276 C 0.12328 0.5242 0.17897 0.0
C277 C 0.13523 0.49768 0.14349 0.0
C278 C 0.18226 0.49361 0.14319 0.0
C279 C 0.21836 0.51566 0.17856 0.0
C280 C 0.20626 0.54189 0.21423 0.0
C281 C 0.15927 0.54609 0.21448 0.0
C282 C 1.00245 0.64606 0.19282 0.0
C283 C 0.95292 0.58173 0.08587 0.0
C284 C 0.02801 0.74418 0.06334 0.0
C285 C 0.97791 0.74639 0.05559 0.0
C286 C 0.94249 0.739 0.09181 0.0
C287 C 0.89449 0.7394 0.08323 0.0
C288 C 0.88075 0.7464 1.03821 0.0
C289 C 0.91615 0.75358 1.00212 0.0
C290 C 0.96425 0.75373 1.01078 0.0
C291 C 0.10152 0.63009 1.05016 0.0
O292 O 0.13282 0.64787 0.15486 0.0
O293 O 0.12314 0.71638 0.13925 0.0
O294 O 0.07056 0.56408 0.20427 0.0
O295 O 0.05484 0.52846 0.13624 0.0
O296 O 0.9874 0.60058 0.19262 0.0
O297 O 0.04331 0.6626 0.17022 0.0
O298 O 0.97082 0.6282 0.08685 0.0
O299 O 0.97955 0.55962 0.10368 0.0
O300 O 0.03813 0.71364 1.03686 0.0
O301 O 0.04195 0.74453 0.10657 0.0
O302 O 0.11661 0.6756 1.05077 0.0
O303 O 0.0603 0.61335 0.07227 0.0
H304 H 0.10841 0.48042 0.11558 0.0
H305 H 0.19049 0.47351 0.11494 0.0
H306 H 0.23281 0.55863 0.24246 0.0
H307 H 0.15131 0.56666 0.24244 0.0
H308 H 0.95167 0.73267 0.12672 0.0
H309 H 0.86797 0.73383 0.11164 0.0
H310 H 0.90699 0.75998 0.96722 0.0
H311 H 0.99076 0.75937 0.98233 0.0
C312 C 0.30378 0.27514 0.33474 0.0
C313 C 0.33949 0.32069 0.3456 0.0
H314 H 0.23067 0.22254 0.34824 0.0
C315 C 0.32814 0.34844 0.38008 0.0
H316 H 0.31093 0.25343 0.3074 0.0
C317 C 0.28195 0.33067 0.40356 0.0
C318 C 0.24629 0.285 0.39269 0.0
H319 H 0.35504 0.3837 0.38898 0.0
H320 H 0.2745 0.35241 0.43067 0.0
C321 C 0.25769 0.25753 0.35795 0.0
C322 C 0.22605 0.9582 0.84676 0.0
C323 C 0.23225 0.91559 0.83863 0.0
H324 H 0.24182 1.01892 0.89169 0.0
C325 C 0.25264 0.89821 0.87446 0.0
H326 H 0.21031 0.97272 0.82025 0.0
C327 C 0.27262 0.92569 0.91477 0.0
C328 C 0.27153 0.97065 0.92049 0.0
H329 H 0.25641 0.86473 0.86998 0.0
H330 H 0.29235 0.9131 0.93953 0.0
C331 C 0.24495 0.98514 0.88754 0.0
C332 C 0.61801 0.52429 0.77715 0.0
C333 C 0.63047 0.55139 0.81916 0.0
H334 H 0.59627 0.52063 0.70503 0.0
C335 C 0.63539 0.59854 0.8183 0.0
H336 H 0.61269 0.48759 0.77673 0.0
C337 C 0.62527 0.61729 0.77764 0.0
C338 C 0.60977 0.58958 0.7362 0.0
H339 H 0.64414 0.62023 0.85011 0.0
H340 H 0.62759 0.65316 0.77935 0.0
C341 C 0.608 0.5432 0.73612 0.0
C342 C 0.92337 0.68034 0.28491 0.0
C343 C 0.94412 0.72975 0.28388 0.0
H344 H 0.92475 0.61516 0.25666 0.0
C345 C 0.9854 0.75106 0.25401 0.0
H346 H 0.89095 0.66267 0.30664 0.0
C347 C 1.00463 0.72403 0.22532 0.0
C348 C 0.98284 0.67461 0.22498 0.0
H349 H 1.00194 0.78898 0.25181 0.0
H350 H 0.03602 0.74196 0.20261 0.0
C351 C 0.94239 0.65313 0.25574 0.0
C352 C 0.52202 0.30215 0.2427 0.0
C353 C 0.47066 0.28905 0.2544 0.0
H354 H 0.57844 0.28037 0.21229 0.0
C355 C 0.43709 0.24194 0.24679 0.0
H356 H 0.54875 0.33813 0.24843 0.0
C357 C 0.45398 0.20902 0.22661 0.0
C358 C 0.50481 0.22236 0.2133 0.0
H359 H 0.39707 0.23076 0.25464 0.0
H360 H 0.42665 0.17344 0.21987 0.0
C361 C 0.53905 0.26898 0.2225 0.0
C362 C 0.12944 1.00283 0.58439 0.0
C363 C 0.13012 0.98997 0.63058 0.0
H364 H 0.13041 0.05588 0.5386 0.0
C365 C 0.1369 1.02397 0.66674 0.0
H366 H 0.12557 0.97788 0.5557 0.0
C367 C 0.14022 0.06915 0.65687 0.0
C368 C 0.13668 0.08093 0.61077 0.0
H369 H 0.1377 1.01513 0.70273 0.0
H370 H 0.14333 0.09415 0.68533 0.0
C371 C 0.13293 1.04782 0.57459 0.0
C372 C 0.84377 0.48063 1.02585 0.0
C373 C 0.80913 0.50133 1.01517 0.0
H374 H 0.91497 0.48897 0.05682 0.0
C375 C 0.82292 0.54933 1.02773 0.0
H376 H 0.83553 0.4442 1.01604 0.0
C377 C 0.86932 0.57539 1.05067 0.0
C378 C 0.90307 0.55412 0.06231 0.0
H379 H 0.79737 0.56669 1.02096 0.0
H380 H 0.87841 0.61213 0.05983 0.0
C381 C 0.88965 0.50643 1.04934 0.0
C382 C 0.78223 0.75251 0.56858 0.0
C383 C 0.78108 0.75466 0.51974 0.0
H384 H 0.74018 0.73036 0.63134 0.0
C385 C 0.73396 0.73098 0.49675 0.0
H386 H 0.81766 0.76934 0.58768 0.0
C387 C 0.68919 0.70802 0.52208 0.0
C388 C 0.69034 0.70823 0.57105 0.0
H389 H 0.7312 0.73198 0.45932 0.0
H390 H 0.65341 0.69168 0.50342 0.0
C391 C 0.73767 0.72989 0.59375 0.0
C392 C 0.35834 0.54089 0.19719 0.0
C393 C 0.35957 0.49638 0.1877 0.0
H394 H 0.31285 0.58207 0.20137 0.0
C395 C 0.31493 0.4593 0.17195 0.0
H396 H 0.39204 0.57008 0.20961 0.0
C397 C 0.26953 0.46592 0.16787 0.0
C398 C 0.26767 0.50988 0.17926 0.0
H399 H 0.31482 0.42471 0.16382 0.0
H400 H 0.2355 0.43605 0.15741 0.0
C401 C 0.31282 0.54756 0.19307 0.0
C402 C 0.60407 0.33899 1.02854 0.0
C403 C 0.65381 0.3504 1.01238 0.0
H404 H 0.53944 0.28927 0.06164 0.0
C405 C 0.67621 0.31734 1.01793 0.0
H406 H 0.58582 0.3637 1.02597 0.0
C407 C 0.64921 0.27391 1.03854 0.0
C408 C 0.59946 0.2629 0.05467 0.0
H409 H 0.71454 0.32494 1.00603 0.0
H410 H 0.66726 0.24916 1.04199 0.0
C411 C 0.57756 0.29622 1.04949 0.0
C412 C 0.94434 0.91573 0.55819 0.0
C413 C 0.92977 0.90974 0.51092 0.0
H414 H 0.97861 0.96353 0.61579 0.0
C415 C 0.94074 0.95047 0.48523 0.0
H416 H 0.93704 0.88536 0.57907 0.0
C417 C 0.96424 0.99572 0.50654 0.0
C418 C 0.97798 1.00162 0.55408 0.0
H419 H 0.92978 0.94738 0.4489 0.0
H420 H 0.97133 1.0261 0.48575 0.0
C421 C 0.96827 0.96081 0.57931 0.0
C422 C 0.29142 0.80116 0.69468 0.0
C423 C 0.30101 0.84744 0.70999 0.0
H424 H 0.3234 0.75064 0.67676 0.0
C425 C 0.3513 0.88033 0.71375 0.0
H426 H 0.2528 0.77526 0.69192 0.0
C427 C 0.39163 0.86666 0.70457 0.0
C428 C 0.38246 0.81962 0.69204 0.0
H429 H 0.35935 0.91637 0.72525 0.0
H430 H 0.43004 0.8927 0.70851 0.0
C431 C 0.33187 0.78725 0.68595 0.0
C432 C 0.77934 0.93135 0.88061 0.0
C433 C 0.76405 0.88235 0.87566 0.0
H434 H 0.83305 0.9986 0.86151 0.0
C435 C 0.78712 0.8635 0.84167 0.0
H436 H 0.76263 0.94685 0.90688 0.0
C437 C 0.82781 0.89311 0.81609 0.0
C438 C 0.84581 0.94204 0.82381 0.0
H439 H 0.77556 0.8258 0.83681 0.0
H440 H 0.84643 0.8777 0.79155 0.0
C441 C 0.8199 0.96097 0.85485 0.0
C442 C 0.69174 0.16359 0.44731 0.0
C443 C 0.74076 0.18532 0.46662 0.0
H444 H 0.64612 0.14444 0.38539 0.0
C445 C 0.78225 0.20491 0.43674 0.0
H446 H 0.65905 0.14792 0.46934 0.0
C447 C 0.77499 0.20229 0.38861 0.0
C448 C 0.72604 0.18015 0.36925 0.0
H449 H 0.82045 0.22252 0.45058 0.0
H450 H 0.80783 0.21704 0.36656 0.0
C451 C 0.68445 0.16109 0.39916 0.0
C452 C 0.47819 0.68668 0.41468 0.0
C453 C 0.47486 0.73102 0.41745 0.0
H454 H 0.4917 0.63281 0.45012 0.0
C455 C 0.47737 0.75262 0.46193 0.0
H456 H 0.47709 0.66927 0.38103 0.0
C457 C 0.48604 0.73159 0.5021 0.0
C458 C 0.49299 0.68871 0.49865 0.0
H459 H 0.4761 0.7872 0.46533 0.0
H460 H 0.49019 0.75026 0.53545 0.0
C461 C 0.48718 0.66596 0.45444 0.0
C462 C 0.1221 0.52626 0.9899 0.0
C463 C 0.16236 0.54825 0.95918 0.0
H464 H 0.07139 0.53423 1.04192 0.0
C465 C 0.18112 0.59756 0.95734 0.0
H466 H 0.1072 0.48843 0.99283 0.0
C467 C 0.16125 0.62407 0.98651 0.0
C468 C 0.12179 0.60199 1.01804 0.0
H469 H 0.21278 0.61578 0.93499 0.0
H470 H 0.17745 0.66203 0.98493 0.0
C471 C 0.1019 0.5526 1.01853 0.0
C472 C 0.62093 0.98416 1.02536 0.0
C473 C 0.57769 0.94628 1.00823 0.0
H474 H 0.6522 0.05575 1.05084 0.0
C475 C 0.53398 0.95454 0.99753 0.0
H476 H 0.65523 0.97909 1.03408 0.0
C477 C 0.5322 0.9986 1.00712 0.0
C478 C 0.5741 1.03544 1.02776 0.0
H479 H 0.50042 0.92643 0.98324 0.0
H480 H 0.49691 1.00286 1.00085 0.0
C481 C 0.61919 1.02827 1.03493 0.0
C482 C 0.84589 0.15856 0.64525 0.0
C483 C 0.84667 0.17774 0.60145 0.0
H484 H 0.886 0.13499 0.69454 0.0
C485 C 0.89077 0.18911 0.57427 0.0
H486 H 0.81254 0.14857 0.66694 0.0
C487 C 0.93182 0.17946 0.58943 0.0
C488 C 0.93044 0.15995 0.63275 0.0
H489 H 0.89375 0.20534 0.5411 0.0
H490 H 0.96483 0.18752 0.56741 0.0
C491 C 0.88777 0.15042 0.66104 0.0
C492 C 0.2576 0.79644 0.217 0.0
C493 C 0.29427 0.7775 0.22561 0.0
H494 H 0.18493 0.78596 0.18815 0.0
C495 C 0.28218 0.72991 0.2122 0.0
H496 H 0.26433 0.83235 0.2278 0.0
C497 C 0.23554 0.70273 0.18999 0.0
C498 C 0.20001 0.72255 0.17997 0.0
H499 H 0.30923 0.71388 0.21768 0.0
H500 H 0.22774 0.66641 0.17993 0.0
C501 C 0.21166 0.76966 0.19419 0.0
C502 C 0.37111 0.54803 0.74165 0.0
C503 C 0.32343 0.52266 0.72025 0.0
H504 H 0.451 0.58862 0.73235 0.0
C505 C 0.32054 0.52299 0.67132 0.0
H506 H 0.37527 0.54851 0.77907 0.0
C507 C 0.36398 0.54552 0.64462 0.0
C508 C 0.41191 0.56891 0.66581 0.0
H509 H 0.28461 0.50485 0.65334 0.0
H510 H 0.36015 0.54364 0.60708 0.0
C511 C 0.41473 0.57089 0.7148 0.0
C512 C 0.77408 0.79001 1.04101 0.0
C513 C 0.75046 0.772 0.99787 0.0
H514 H 0.83463 0.79596 0.08777 0.0
C515 C 0.76343 0.73828 0.97299 0.0
H516 H 0.76518 0.81654 0.06046 0.0
C517 C 0.80339 0.72694 0.98822 0.0
C518 C 0.83096 0.74901 1.02867 0.0
H519 H 0.74578 0.72405 0.93955 0.0
H520 H 0.81496 0.70334 0.96669 0.0
C521 C 0.8141 0.77852 0.05639 0.0
C522 C 0.43533 0.94411 0.18322 0.0
C523 C 0.44141 0.93504 0.23007 0.0
H524 H 0.45358 0.99491 0.12993 0.0
C525 C 0.47118 0.97328 0.25948 0.0
H526 H 0.41353 0.91574 0.15909 0.0
C527 C 0.49427 1.01888 0.24256 0.0
C528 C 0.48854 1.02762 0.19565 0.0
H529 H 0.47649 0.96804 0.29577 0.0
H530 H 0.51728 1.04724 0.26616 0.0
C531 C 0.4585 0.98963 0.16631 0.0
C532 C 0.16033 0.35984 0.68868 0.0
C533 C 0.17706 0.36686 0.73534 0.0
H534 H 0.12359 0.31085 0.63265 0.0
C535 C 0.16776 0.32673 0.7616 0.0
H536 H 0.16652 0.38972 0.66738 0.0
C537 C 0.14352 0.28102 0.74137 0.0
C538 C 0.12716 0.27416 0.69453 0.0
H539 H 0.18049 0.33065 0.79747 0.0
H540 H 0.13764 0.25107 0.76246 0.0
C541 C 0.13554 0.31438 0.66874 0.0
C542 C 0.60015 0.293 0.58994 0.0
C543 C 0.61973 0.29464 0.63493 0.0
H544 H 0.57076 0.32647 0.54084 0.0
C545 C 0.62277 0.33174 0.66612 0.0
H546 H 0.59668 0.26435 0.56546 0.0
C547 C 0.60838 0.3676 0.65191 0.0
C548 C 0.59038 0.36682 0.60634 0.0
H549 H 0.63815 0.33402 0.70087 0.0
H550 H 0.61319 0.39679 0.6761 0.0
C551 C 0.58547 0.32862 0.57584 0.0
loop_
_geom_bond_atom_site_label_1
_geom_bond_atom_site_label_2
_geom_bond_distance
_geom_bond_site_symmetry_2
_ccdc_geom_bond_type
H0 C1 0.949 . S
C1 H0 0.949 . S
C1 C2 1.395 . S
C1 C3 1.391 . S
C2 C1 1.395 . S
C2 C5 1.390 . S
C3 C1 1.391 . S
C3 C7 1.387 . S
C3 C8 1.491 . S
H4 C5 0.950 . S
C5 C2 1.390 . S
C5 H4 0.950 . S
C5 C6 1.378 . S
C6 C5 1.378 . S
C6 C7 1.409 . S
C7 C3 1.387 . S
C7 C6 1.409 . S
C7 H9 0.951 . S
C8 C3 1.491 . S
C8 C10 1.382 . S
C8 C12 1.404 . S
H9 C7 0.951 . S
C10 C8 1.382 . S
C10 C11 1.390 . S
C10 H15 0.949 . S
C11 C10 1.390 . S
C11 C16 1.399 . S
C12 C8 1.404 . S
C12 H13 0.950 . S
C12 C14 1.375 . S
H13 C12 0.950 . S
C14 C12 1.375 . S
C14 C16 1.382 . S
C14 H18 0.950 . S
H15 C10 0.949 . S
C16 C11 1.399 . S
C16 C14 1.382 . S
C16 H17 0.952 . S
H17 C16 0.952 . S
H18 C14 0.950 . S
H19 C20 0.949 . S
C20 H19 0.949 . S
C20 C21 1.395 . S
C20 C22 1.391 . S
C21 C20 1.395 . S
C21 C24 1.390 . S
C22 C20 1.391 . S
C22 C26 1.387 . S
C22 C27 1.491 . S
H23 C24 0.950 . S
C24 C21 1.390 . S
C24 H23 0.950 . S
C24 C25 1.378 . S
C25 C24 1.378 . S
C25 C26 1.409 . S
C26 C22 1.387 . S
C26 C25 1.409 . S
C26 H28 0.951 . S
C27 C22 1.491 . S
C27 C29 1.382 . S
C27 C31 1.404 . S
H28 C26 0.951 . S
C29 C27 1.382 . S
C29 C30 1.390 . S
C29 H34 0.949 . S
C30 C29 1.390 . S
C30 C35 1.399 . S
C31 C27 1.404 . S
C31 H32 0.950 . S
C31 C33 1.375 . S
H32 C31 0.950 . S
C33 C31 1.375 . S
C33 C35 1.382 . S
C33 H37 0.950 . S
H34 C29 0.949 . S
C35 C30 1.399 . S
C35 C33 1.382 . S
C35 H36 0.952 . S
H36 C35 0.952 . S
H37 C33 0.950 . S
H38 C39 0.949 . S
C39 H38 0.949 . S
C39 C40 1.395 . S
C39 C41 1.391 . S
C40 C39 1.395 . S
C40 C43 1.390 . S
C41 C39 1.391 . S
C41 C45 1.387 . S
C41 C46 1.491 . S
H42 C43 0.950 . S
C43 C40 1.390 . S
C43 H42 0.950 . S
C43 C44 1.378 . S
C44 C43 1.378 . S
C44 C45 1.409 . S
C45 C41 1.387 . S
C45 C44 1.409 . S
C45 H47 0.951 . S
C46 C41 1.491 . S
C46 C48 1.382 . S
C46 C50 1.404 . S
H47 C45 0.951 . S
C48 C46 1.382 . S
C48 C49 1.390 . S
C48 H53 0.949 . S
C49 C48 1.390 . S
C49 C54 1.399 . S
C50 C46 1.404 . S
C50 H51 0.950 . S
C50 C52 1.375 . S
H51 C50 0.950 . S
C52 C50 1.375 . S
C52 C54 1.382 . S
C52 H56 0.950 . S
H53 C48 0.949 . S
C54 C49 1.399 . S
C54 C52 1.382 . S
C54 H55 0.952 . S
H55 C54 0.952 . S
H56 C52 0.950 . S
H57 C58 0.949 . S
C58 H57 0.949 . S
C58 C59 1.395 . S
C58 C60 1.391 . S
C59 C58 1.395 . S
C59 C62 1.390 . S
C60 C58 1.391 . S
C60 C64 1.387 . S
C60 C65 1.491 . S
H61 C62 0.950 . S
C62 C59 1.390 . S
C62 H61 0.950 . S
C62 C63 1.378 . S
C63 C62 1.378 . S
C63 C64 1.409 . S
C64 C60 1.387 . S
C64 C63 1.409 . S
C64 H66 0.951 . S
C65 C60 1.491 . S
C65 C67 1.382 . S
C65 C69 1.404 . S
H66 C64 0.951 . S
C67 C65 1.382 . S
C67 C68 1.390 . S
C67 H72 0.949 . S
C68 C67 1.390 . S
C68 C73 1.399 . S
C69 C65 1.404 . S
C69 H70 0.950 . S
C69 C71 1.375 . S
H70 C69 0.950 . S
C71 C69 1.375 . S
C71 C73 1.382 . S
C71 H75 0.950 . S
H72 C67 0.949 . S
C73 C68 1.399 . S
C73 C71 1.382 . S
C73 H74 0.952 . S
H74 C73 0.952 . S
H75 C71 0.950 . S
H76 C77 0.949 . S
C77 H76 0.949 . S
C77 C78 1.395 . S
C77 C79 1.391 . S
C78 C77 1.395 . S
C78 C81 1.390 . S
C79 C77 1.391 . S
C79 C83 1.387 . S
C79 C84 1.491 . S
H80 C81 0.950 . S
C81 C78 1.390 . S
C81 H80 0.950 . S
C81 C82 1.378 . S
C82 C81 1.378 . S
C82 C83 1.409 . S
C83 C79 1.387 . S
C83 C82 1.409 . S
C83 H85 0.951 . S
C84 C79 1.491 . S
C84 C86 1.382 . S
C84 C88 1.404 . S
H85 C83 0.951 . S
C86 C84 1.382 . S
C86 C87 1.390 . S
C86 H91 0.949 . S
C87 C86 1.390 . S
C87 C92 1.399 . S
C88 C84 1.404 . S
C88 H89 0.950 . S
C88 C90 1.375 . S
H89 C88 0.950 . S
C90 C88 1.375 . S
C90 C92 1.382 . S
C90 H94 0.950 . S
H91 C86 0.949 . S
C92 C87 1.399 . S
C92 C90 1.382 . S
C92 H93 0.952 . S
H93 C92 0.952 . S
H94 C90 0.950 . S
H95 C96 0.949 . S
C96 H95 0.949 . S
C96 C97 1.395 . S
C96 C98 1.391 . S
C97 C96 1.395 . S
C97 C100 1.390 . S
C98 C96 1.391 . S
C98 C102 1.387 . S
C98 C103 1.491 . S
H99 C100 0.950 . S
C100 C97 1.390 . S
C100 H99 0.950 . S
C100 C101 1.378 . S
C101 C100 1.378 . S
C101 C102 1.409 . S
C102 C98 1.387 . S
C102 C101 1.409 . S
C102 H104 0.951 . S
C103 C98 1.491 . S
C103 C105 1.382 . S
C103 C107 1.404 . S
H104 C102 0.951 . S
C105 C103 1.382 . S
C105 C106 1.390 . S
C105 H110 0.949 . S
C106 C105 1.390 . S
C106 C111 1.399 . S
C107 C103 1.404 . S
C107 H108 0.950 . S
C107 C109 1.375 . S
H108 C107 0.950 . S
C109 C107 1.375 . S
C109 C111 1.382 . S
C109 H113 0.950 . S
H110 C105 0.949 . S
C111 C106 1.399 . S
C111 C109 1.382 . S
C111 H112 0.952 . S
H112 C111 0.952 . S
H113 C109 0.950 . S
H114 C115 0.949 . S
C115 H114 0.949 . S
C115 C116 1.395 . S
C115 C117 1.391 . S
C116 C115 1.395 . S
C116 C119 1.390 . S
C117 C115 1.391 . S
C117 C121 1.387 . S
C117 C122 1.491 . S
H118 C119 0.950 . S
C119 C116 1.390 . S
C119 H118 0.950 . S
C119 C120 1.378 . S
C120 C119 1.378 . S
C120 C121 1.409 . S
C121 C117 1.387 . S
C121 C120 1.409 . S
C121 H123 0.951 . S
C122 C117 1.491 . S
C122 C124 1.382 . S
C122 C126 1.404 . S
H123 C121 0.951 . S
C124 C122 1.382 . S
C124 C125 1.390 . S
C124 H129 0.949 . S
C125 C124 1.390 . S
C125 C130 1.399 . S
C126 C122 1.404 . S
C126 H127 0.950 . S
C126 C128 1.375 . S
H127 C126 0.950 . S
C128 C126 1.375 . S
C128 C130 1.382 . S
C128 H132 0.950 . S
H129 C124 0.949 . S
C130 C125 1.399 . S
C130 C128 1.382 . S
C130 H131 0.952 . S
H131 C130 0.952 . S
H132 C128 0.950 . S
H133 C134 0.949 . S
C134 H133 0.949 . S
C134 C135 1.395 . S
C134 C136 1.391 . S
C135 C134 1.395 . S
C135 C138 1.390 . S
C136 C134 1.391 . S
C136 C140 1.387 . S
C136 C141 1.491 . S
H137 C138 0.950 . S
C138 C135 1.390 . S
C138 H137 0.950 . S
C138 C139 1.378 . S
C139 C138 1.378 . S
C139 C140 1.409 . S
C140 C136 1.387 . S
C140 C139 1.409 . S
C140 H142 0.951 . S
C141 C136 1.491 . S
C141 C143 1.382 . S
C141 C145 1.404 . S
H142 C140 0.951 . S
C143 C141 1.382 . S
C143 C144 1.390 . S
C143 H148 0.949 . S
C144 C143 1.390 . S
C144 C149 1.399 . S
C145 C141 1.404 . S
C145 H146 0.950 . S
C145 C147 1.375 . S
H146 C145 0.950 . S
C147 C145 1.375 . S
C147 C149 1.382 . S
C147 H151 0.950 . S
H148 C143 0.949 . S
C149 C144 1.399 . S
C149 C147 1.382 . S
C149 H150 0.952 . S
H150 C149 0.952 . S
H151 C147 0.950 . S
Ho152 C155 2.811 . S
Ho152 O172 2.322 . S
Ho152 O174 2.378 . S
Ho152 O175 2.524 . S
Ho152 O176 2.381 . S
Ho152 O177 2.669 . S
Ho152 O179 2.346 1_445 S
Ho152 O183 2.305 1_455 S
Ho153 C164 2.811 1_545 S
Ho153 O173 2.346 1_655 S
Ho153 O177 2.305 1_655 S
Ho153 O178 2.322 1_545 S
Ho153 O180 2.378 1_545 S
Ho153 O181 2.524 1_545 S
Ho153 O182 2.381 . S
Ho153 O183 2.669 . S
C154 O172 1.259 . S
C154 O173 1.268 . S
C155 Ho152 2.811 . S
C155 C156 1.488 . S
C155 O174 1.215 . S
C155 O175 1.289 . S
C156 C155 1.488 . S
C156 C157 1.348 . S
C156 C161 1.413 . S
C157 C156 1.348 . S
C157 C158 1.442 . S
C157 H184 0.930 . S
C158 C157 1.442 . S
C158 C159 1.381 . S
C158 H185 0.931 . S
C159 C158 1.381 . S
C159 C160 1.321 . S
C160 C159 1.321 . S
C160 C161 1.403 . S
C160 H186 0.934 . S
C161 C156 1.413 . S
C161 C160 1.403 . S
C161 H187 0.930 . S
C162 O176 1.275 . S
C162 O177 1.256 . S
C163 O178 1.259 . S
C163 O179 1.268 . S
C164 Ho153 2.811 1_565 S
C164 C165 1.488 . S
C164 O180 1.215 . S
C164 O181 1.289 . S
C165 C164 1.488 . S
C165 C166 1.348 . S
C165 C170 1.413 . S
C166 C165 1.348 . S
C166 C167 1.442 . S
C166 H188 0.930 . S
C167 C166 1.442 . S
C167 C168 1.381 . S
C167 H189 0.931 . S
C168 C167 1.381 . S
C168 C169 1.321 . S
C169 C168 1.321 . S
C169 C170 1.403 . S
C169 H190 0.934 . S
C170 C165 1.413 . S
C170 C169 1.403 . S
C170 H191 0.930 . S
C171 O182 1.275 . S
C171 O183 1.256 . S
O172 Ho152 2.322 . S
O172 C154 1.259 . S
O173 Ho153 2.346 1_455 S
O173 C154 1.268 . S
O174 Ho152 2.378 . S
O174 C155 1.215 . S
O175 Ho152 2.524 . S
O175 C155 1.289 . S
O176 Ho152 2.381 . S
O176 C162 1.275 . S
O177 Ho152 2.669 . S
O177 Ho153 2.305 1_455 S
O177 C162 1.256 . S
O178 Ho153 2.322 1_565 S
O178 C163 1.259 . S
O179 Ho152 2.346 1_665 S
O179 C163 1.268 . S
O180 Ho153 2.378 1_565 S
O180 C164 1.215 . S
O181 Ho153 2.524 1_565 S
O181 C164 1.289 . S
O182 Ho153 2.381 . S
O182 C171 1.275 . S
O183 Ho152 2.305 1_655 S
O183 Ho153 2.669 . S
O183 C171 1.256 . S
H184 C157 0.930 . S
H185 C158 0.931 . S
H186 C160 0.934 . S
H187 C161 0.930 . S
H188 C166 0.930 . S
H189 C167 0.931 . S
H190 C169 0.934 . S
H191 C170 0.930 . S
Ho192 C195 2.811 . S
Ho192 O212 2.322 . S
Ho192 O214 2.378 . S
Ho192 O215 2.524 . S
Ho192 O216 2.381 1_545 S
Ho192 O217 2.670 . S
Ho192 O219 2.346 . S
Ho192 O223 2.305 . S
Ho193 C204 2.811 1_544 S
Ho193 O213 2.346 . S
Ho193 O217 2.308 . S
Ho193 O218 2.322 . S
Ho193 O220 2.378 1_554 S
Ho193 O221 2.524 1_545 S
Ho193 O222 2.381 . S
Ho193 O223 2.669 . S
C194 O212 1.259 . S
C194 O213 1.268 . S
C195 Ho192 2.811 . S
C195 C196 1.488 . S
C195 O214 1.215 . S
C195 O215 1.289 . S
C196 C195 1.488 . S
C196 C197 1.348 . S
C196 C201 1.413 . S
C197 C196 1.348 . S
C197 C198 1.442 . S
C197 H224 0.930 . S
C198 C197 1.442 . S
C198 C199 1.381 . S
C198 H225 0.931 . S
C199 C198 1.381 . S
C199 C200 1.321 . S
C200 C199 1.321 . S
C200 C201 1.403 . S
C200 H226 0.934 . S
C201 C196 1.413 . S
C201 C200 1.403 . S
C201 H227 0.930 . S
C202 O216 1.275 . S
C202 O217 1.253 1_565 S
C203 O218 1.259 1_565 S
C203 O219 1.268 1_565 S
C204 Ho193 2.811 1_566 S
C204 C205 1.488 . S
C204 O220 1.215 1_565 S
C204 O221 1.289 1_556 S
C205 C204 1.488 . S
C205 C206 1.348 . S
C205 C210 1.413 . S
C206 C205 1.348 . S
C206 C207 1.442 . S
C206 H228 0.930 . S
C207 C206 1.442 . S
C207 C208 1.381 . S
C207 H229 0.931 . S
C208 C207 1.381 . S
C208 C209 1.321 . S
C209 C208 1.321 . S
C209 C210 1.403 . S
C209 H230 0.934 . S
C210 C205 1.413 . S
C210 C209 1.403 . S
C210 H231 0.930 1_565 S
C211 O222 1.275 . S
C211 O223 1.256 . S
O212 Ho192 2.322 . S
O212 C194 1.259 . S
O213 Ho193 2.346 . S
O213 C194 1.268 . S
O214 Ho192 2.378 . S
O214 C195 1.215 . S
O215 Ho192 2.524 . S
O215 C195 1.289 . S
O216 Ho192 2.381 1_565 S
O216 C202 1.275 . S
O217 Ho192 2.670 . S
O217 Ho193 2.308 . S
O217 C202 1.253 1_545 S
O218 Ho193 2.322 . S
O218 C203 1.259 1_545 S
O219 Ho192 2.346 . S
O219 C203 1.268 1_545 S
O220 Ho193 2.378 1_556 S
O220 C204 1.215 1_545 S
O221 Ho193 2.524 1_565 S
O221 C204 1.289 1_554 S
O222 Ho193 2.381 . S
O222 C211 1.275 . S
O223 Ho192 2.305 . S
O223 Ho193 2.669 . S
O223 C211 1.256 . S
H224 C197 0.930 . S
H225 C198 0.931 . S
H226 C200 0.934 . S
H227 C201 0.930 . S
H228 C206 0.930 . S
H229 C207 0.931 . S
H230 C209 0.934 . S
H231 C210 0.930 1_545 S
Ho232 C235 2.811 . S
Ho232 O252 2.322 . S
Ho232 O254 2.378 . S
Ho232 O255 2.524 . S
Ho232 O256 2.381 . S
Ho232 O257 2.669 . S
Ho232 O259 2.346 . S
Ho232 O263 2.305 . S
Ho233 C244 2.811 . S
Ho233 O253 2.346 . S
Ho233 O257 2.305 . S
Ho233 O258 2.322 . S
Ho233 O260 2.378 . S
Ho233 O261 2.524 . S
Ho233 O262 2.381 . S
Ho233 O263 2.669 . S
C234 O252 1.259 . S
C234 O253 1.268 . S
C235 Ho232 2.811 . S
C235 C236 1.488 . S
C235 O254 1.215 . S
C235 O255 1.289 . S
C236 C235 1.488 . S
C236 C237 1.348 . S
C236 C241 1.413 . S
C237 C236 1.348 . S
C237 C238 1.442 . S
C237 H264 0.930 . S
C238 C237 1.442 . S
C238 C239 1.381 . S
C238 H265 0.931 . S
C239 C238 1.381 . S
C239 C240 1.321 . S
C240 C239 1.321 . S
C240 C241 1.403 . S
C240 H266 0.934 . S
C241 C236 1.413 . S
C241 C240 1.403 . S
C241 H267 0.930 . S
C242 O256 1.275 . S
C242 O257 1.256 . S
C243 O258 1.259 . S
C243 O259 1.268 . S
C244 Ho233 2.811 . S
C244 C245 1.488 . S
C244 O260 1.215 . S
C244 O261 1.289 . S
C245 C244 1.488 . S
C245 C246 1.348 . S
C245 C250 1.413 . S
C246 C245 1.348 . S
C246 C247 1.442 . S
C246 H268 0.930 . S
C247 C246 1.442 . S
C247 C248 1.381 . S
C247 H269 0.931 . S
C248 C247 1.381 . S
C248 C249 1.321 . S
C249 C248 1.321 . S
C249 C250 1.403 . S
C249 H270 0.934 . S
C250 C245 1.413 . S
C250 C249 1.403 . S
C250 H271 0.930 . S
C251 O262 1.275 . S
C251 O263 1.256 . S
O252 Ho232 2.322 . S
O252 C234 1.259 . S
O253 Ho233 2.346 . S
O253 C234 1.268 . S
O254 Ho232 2.378 . S
O254 C235 1.215 . S
O255 Ho232 2.524 . S
O255 C235 1.289 . S
O256 Ho232 2.381 . S
O256 C242 1.275 . S
O257 Ho232 2.669 . S
O257 Ho233 2.305 . S
O257 C242 1.256 . S
O258 Ho233 2.322 . S
O258 C243 1.259 . S
O259 Ho232 2.346 . S
O259 C243 1.268 . S
O260 Ho233 2.378 . S
O260 C244 1.215 . S
O261 Ho233 2.524 . S
O261 C244 1.289 . S
O262 Ho233 2.381 . S
O262 C251 1.275 . S
O263 Ho232 2.305 . S
O263 Ho233 2.669 . S
O263 C251 1.256 . S
H264 C237 0.930 . S
H265 C238 0.931 . S
H266 C240 0.934 . S
H267 C241 0.930 . S
H268 C246 0.930 . S
H269 C247 0.931 . S
H270 C249 0.934 . S
H271 C250 0.930 . S
Ho272 C275 2.811 . S
Ho272 O292 2.322 . S
Ho272 O294 2.378 . S
Ho272 O295 2.524 . S
Ho272 O296 2.381 . S
Ho272 O297 2.669 . S
Ho272 O299 2.346 1_455 S
Ho272 O303 2.305 . S
Ho273 C284 2.811 1_454 S
Ho273 O293 2.346 . S
Ho273 O297 2.305 . S
Ho273 O298 2.322 1_454 S
Ho273 O300 2.378 1_554 S
Ho273 O301 2.524 1_455 S
Ho273 O302 2.381 1_554 S
Ho273 O303 2.669 . S
C274 O292 1.259 . S
C274 O293 1.268 . S
C275 Ho272 2.811 . S
C275 C276 1.488 . S
C275 O294 1.215 . S
C275 O295 1.289 . S
C276 C275 1.488 . S
C276 C277 1.348 . S
C276 C281 1.413 . S
C277 C276 1.348 . S
C277 C278 1.442 . S
C277 H304 0.930 . S
C278 C277 1.442 . S
C278 C279 1.381 . S
C278 H305 0.931 . S
C279 C278 1.381 . S
C279 C280 1.321 . S
C280 C279 1.321 . S
C280 C281 1.403 . S
C280 H306 0.934 . S
C281 C276 1.413 . S
C281 C280 1.403 . S
C281 H307 0.930 . S
C282 O296 1.275 1_655 S
C282 O297 1.256 1_655 S
C283 O298 1.259 . S
C283 O299 1.268 1_556 S
C284 Ho273 2.811 1_656 S
C284 C285 1.488 . S
C284 O300 1.215 1_655 S
C284 O301 1.289 1_556 S
C285 C284 1.488 . S
C285 C286 1.348 . S
C285 C290 1.413 . S
C286 C285 1.348 . S
C286 C287 1.442 . S
C286 H308 0.930 . S
C287 C286 1.442 . S
C287 C288 1.381 . S
C287 H309 0.931 . S
C288 C287 1.381 . S
C288 C289 1.321 . S
C289 C288 1.321 . S
C289 C290 1.403 . S
C289 H310 0.934 . S
C290 C285 1.413 . S
C290 C289 1.403 . S
C290 H311 0.930 . S
C291 O302 1.275 . S
C291 O303 1.255 1_556 S
O292 Ho272 2.322 . S
O292 C274 1.259 . S
O293 Ho273 2.346 . S
O293 C274 1.268 . S
O294 Ho272 2.378 . S
O294 C275 1.215 . S
O295 Ho272 2.524 . S
O295 C275 1.289 . S
O296 Ho272 2.381 . S
O296 C282 1.275 1_455 S
O297 Ho272 2.669 . S
O297 Ho273 2.305 . S
O297 C282 1.256 1_455 S
O298 Ho273 2.322 1_656 S
O298 C283 1.259 . S
O299 Ho272 2.346 1_655 S
O299 C283 1.268 1_554 S
O300 Ho273 2.378 1_556 S
O300 C284 1.215 1_455 S
O301 Ho273 2.524 1_655 S
O301 C284 1.289 1_554 S
O302 Ho273 2.381 1_556 S
O302 C291 1.275 . S
O303 Ho272 2.305 . S
O303 Ho273 2.669 . S
O303 C291 1.255 1_554 S
H304 C277 0.930 . S
H305 C278 0.931 . S
H306 C280 0.934 . S
H307 C281 0.930 . S
H308 C286 0.930 . S
H309 C287 0.931 . S
H310 C289 0.934 . S
H311 C290 0.930 . S
C312 C313 1.387 . S
C312 H316 0.950 . S
C312 C321 1.390 . S
C313 C312 1.387 . S
C313 C315 1.387 . S
H314 C321 0.950 . S
C315 C313 1.387 . S
C315 C317 1.390 . S
C315 H319 0.950 . S
H316 C312 0.950 . S
C317 C315 1.390 . S
C317 C318 1.387 . S
C317 H320 0.950 . S
C318 C317 1.387 . S
C318 C321 1.387 . S
H319 C315 0.950 . S
H320 C317 0.950 . S
C321 C312 1.390 . S
C321 H314 0.950 . S
C321 C318 1.387 . S
C322 C323 1.387 . S
C322 H326 0.950 . S
C322 C331 1.390 . S
C323 C322 1.387 . S
C323 C325 1.387 . S
H324 C331 0.950 . S
C325 C323 1.387 . S
C325 C327 1.390 . S
C325 H329 0.950 . S
H326 C322 0.950 . S
C327 C325 1.390 . S
C327 C328 1.387 . S
C327 H330 0.950 . S
C328 C327 1.387 . S
C328 C331 1.387 . S
H329 C325 0.950 . S
H330 C327 0.950 . S
C331 C322 1.390 . S
C331 H324 0.950 . S
C331 C328 1.387 . S
C332 C333 1.387 . S
C332 H336 0.950 . S
C332 C341 1.390 . S
C333 C332 1.387 . S
C333 C335 1.387 . S
H334 C341 0.950 . S
C335 C333 1.387 . S
C335 C337 1.390 . S
C335 H339 0.950 . S
H336 C332 0.950 . S
C337 C335 1.390 . S
C337 C338 1.387 . S
C337 H340 0.950 . S
C338 C337 1.387 . S
C338 C341 1.387 . S
H339 C335 0.950 . S
H340 C337 0.950 . S
C341 C332 1.390 . S
C341 H334 0.950 . S
C341 C338 1.387 . S
C342 C343 1.387 . S
C342 H346 0.950 . S
C342 C351 1.390 . S
C343 C342 1.387 . S
C343 C345 1.387 . S
H344 C351 0.950 . S
C345 C343 1.387 . S
C345 C347 1.390 . S
C345 H349 0.950 . S
H346 C342 0.950 . S
C347 C345 1.390 . S
C347 C348 1.387 . S
C347 H350 0.950 1_655 S
C348 C347 1.387 . S
C348 C351 1.387 . S
H349 C345 0.950 . S
H350 C347 0.950 1_455 S
C351 C342 1.390 . S
C351 H344 0.950 . S
C351 C348 1.387 . S
C352 C353 1.387 . S
C352 H356 0.950 . S
C352 C361 1.390 . S
C353 C352 1.387 . S
C353 C355 1.387 . S
H354 C361 0.950 . S
C355 C353 1.387 . S
C355 C357 1.390 . S
C355 H359 0.950 . S
H356 C352 0.950 . S
C357 C355 1.390 . S
C357 C358 1.387 . S
C357 H360 0.950 . S
C358 C357 1.387 . S
C358 C361 1.387 . S
H359 C355 0.950 . S
H360 C357 0.950 . S
C361 C352 1.390 . S
C361 H354 0.950 . S
C361 C358 1.387 . S
C362 C363 1.387 . S
C362 H366 0.950 . S
C362 C371 1.390 . S
C363 C362 1.387 . S
C363 C365 1.387 . S
H364 C371 0.950 . S
C365 C363 1.387 . S
C365 C367 1.390 1_565 S
C365 H369 0.950 . S
H366 C362 0.950 . S
C367 C365 1.390 1_545 S
C367 C368 1.387 . S
C367 H370 0.950 . S
C368 C367 1.387 . S
C368 C371 1.387 1_545 S
H369 C365 0.950 . S
H370 C367 0.950 . S
C371 C362 1.390 . S
C371 H364 0.950 . S
C371 C368 1.387 1_565 S
C372 C373 1.387 . S
C372 H376 0.950 1_556 S
C372 C381 1.390 1_556 S
C373 C372 1.387 . S
C373 C375 1.387 . S
H374 C381 0.950 . S
C375 C373 1.387 . S
C375 C377 1.390 . S
C375 H379 0.950 . S
H376 C372 0.950 1_554 S
C377 C375 1.390 . S
C377 C378 1.387 . S
C377 H380 0.950 . S
C378 C377 1.387 . S
C378 C381 1.387 1_556 S
H379 C375 0.950 . S
H380 C377 0.950 . S
C381 C372 1.390 1_554 S
C381 H374 0.950 . S
C381 C378 1.387 1_554 S
C382 C383 1.387 . S
C382 H386 0.950 . S
C382 C391 1.390 . S
C383 C382 1.387 . S
C383 C385 1.387 . S
H384 C391 0.950 . S
C385 C383 1.387 . S
C385 C387 1.390 . S
C385 H389 0.950 . S
H386 C382 0.950 . S
C387 C385 1.390 . S
C387 C388 1.387 . S
C387 H390 0.950 . S
C388 C387 1.387 . S
C388 C391 1.387 . S
H389 C385 0.950 . S
H390 C387 0.950 . S
C391 C382 1.390 . S
C391 H384 0.950 . S
C391 C388 1.387 . S
C392 C393 1.387 . S
C392 H396 0.950 . S
C392 C401 1.390 . S
C393 C392 1.387 . S
C393 C395 1.387 . S
H394 C401 0.950 . S
C395 C393 1.387 . S
C395 C397 1.390 . S
C395 H399 0.950 . S
H396 C392 0.950 . S
C397 C395 1.390 . S
C397 C398 1.387 . S
C397 H400 0.950 . S
C398 C397 1.387 . S
C398 C401 1.387 . S
H399 C395 0.950 . S
H400 C397 0.950 . S
C401 C392 1.390 . S
C401 H394 0.950 . S
C401 C398 1.387 . S
C402 C403 1.390 . S
C402 H406 0.950 1_556 S
C402 C411 1.388 1_556 S
C403 C402 1.390 . S
C403 C405 1.387 . S
H404 C411 0.950 . S
C405 C403 1.387 . S
C405 C407 1.402 . S
C405 H409 0.950 . S
H406 C402 0.950 1_554 S
C407 C405 1.402 . S
C407 C408 1.376 1_556 S
C407 H410 0.949 . S
C408 C407 1.376 1_554 S
C408 C411 1.387 . S
H409 C405 0.950 . S
H410 C407 0.949 . S
C411 C402 1.388 1_554 S
C411 H404 0.950 . S
C411 C408 1.387 . S
C412 C413 1.387 . S
C412 H416 0.950 . S
C412 C421 1.390 . S
C413 C412 1.387 . S
C413 C415 1.387 . S
H414 C421 0.950 . S
C415 C413 1.387 . S
C415 C417 1.390 . S
C415 H419 0.950 . S
H416 C412 0.950 . S
C417 C415 1.390 . S
C417 C418 1.387 . S
C417 H420 0.950 . S
C418 C417 1.387 . S
C418 C421 1.387 . S
H419 C415 0.950 . S
H420 C417 0.950 . S
C421 C412 1.390 . S
C421 H414 0.950 . S
C421 C418 1.387 . S
C422 C423 1.387 . S
C422 H426 0.950 . S
C422 C431 1.390 . S
C423 C422 1.387 . S
C423 C425 1.387 . S
H424 C431 0.950 . S
C425 C423 1.387 . S
C425 C427 1.390 . S
C425 H429 0.950 . S
H426 C422 0.950 . S
C427 C425 1.390 . S
C427 C428 1.387 . S
C427 H430 0.950 . S
C428 C427 1.387 . S
C428 C431 1.387 . S
H429 C425 0.950 . S
H430 C427 0.950 . S
C431 C422 1.390 . S
C431 H424 0.950 . S
C431 C428 1.387 . S
C432 C433 1.387 . S
C432 H436 0.950 . S
C432 C441 1.390 . S
C433 C432 1.387 . S
C433 C435 1.387 . S
H434 C441 0.950 . S
C435 C433 1.387 . S
C435 C437 1.390 . S
C435 H439 0.950 . S
H436 C432 0.950 . S
C437 C435 1.390 . S
C437 C438 1.387 . S
C437 H440 0.950 . S
C438 C437 1.387 . S
C438 C441 1.387 . S
H439 C435 0.950 . S
H440 C437 0.950 . S
C441 C432 1.390 . S
C441 H434 0.950 . S
C441 C438 1.387 . S
C442 C443 1.387 . S
C442 H446 0.950 . S
C442 C451 1.390 . S
C443 C442 1.387 . S
C443 C445 1.387 . S
H444 C451 0.950 . S
C445 C443 1.387 . S
C445 C447 1.390 . S
C445 H449 0.950 . S
H446 C442 0.950 . S
C447 C445 1.390 . S
C447 C448 1.387 . S
C447 H450 0.950 . S
C448 C447 1.387 . S
C448 C451 1.387 . S
H449 C445 0.950 . S
H450 C447 0.950 . S
C451 C442 1.390 . S
C451 H444 0.950 . S
C451 C448 1.387 . S
C452 C453 1.387 . S
C452 H456 0.950 . S
C452 C461 1.390 . S
C453 C452 1.387 . S
C453 C455 1.387 . S
H454 C461 0.950 . S
C455 C453 1.387 . S
C455 C457 1.390 . S
C455 H459 0.950 . S
H456 C452 0.950 . S
C457 C455 1.390 . S
C457 C458 1.387 . S
C457 H460 0.950 . S
C458 C457 1.387 . S
C458 C461 1.387 . S
H459 C455 0.950 . S
H460 C457 0.950 . S
C461 C452 1.390 . S
C461 H454 0.950 . S
C461 C458 1.387 . S
C462 C463 1.387 . S
C462 H466 0.950 . S
C462 C471 1.390 . S
C463 C462 1.387 . S
C463 C465 1.387 . S
H464 C471 0.950 . S
C465 C463 1.387 . S
C465 C467 1.390 . S
C465 H469 0.950 . S
H466 C462 0.950 . S
C467 C465 1.390 . S
C467 C468 1.387 . S
C467 H470 0.950 . S
C468 C467 1.387 . S
C468 C471 1.387 . S
H469 C465 0.950 . S
H470 C467 0.950 . S
C471 C462 1.390 . S
C471 H464 0.950 . S
C471 C468 1.387 . S
C472 C473 1.387 1_554 S
C472 H476 0.950 . S
C472 C481 1.390 . S
C473 C472 1.387 1_556 S
C473 C475 1.387 . S
H474 C481 0.950 . S
C475 C473 1.387 . S
C475 C477 1.390 . S
C475 H479 0.950 . S
H476 C472 0.950 . S
C477 C475 1.390 . S
C477 C478 1.384 1_556 S
C477 H480 0.950 . S
C478 C477 1.384 1_554 S
C478 C481 1.390 . S
H479 C475 0.950 . S
H480 C477 0.950 . S
C481 C472 1.390 . S
C481 H474 0.950 . S
C481 C478 1.390 . S
C482 C483 1.387 . S
C482 H486 0.950 . S
C482 C491 1.390 . S
C483 C482 1.387 . S
C483 C485 1.387 . S
H484 C491 0.950 . S
C485 C483 1.387 . S
C485 C487 1.390 . S
C485 H489 0.950 . S
H486 C482 0.950 . S
C487 C485 1.390 . S
C487 C488 1.387 . S
C487 H490 0.950 . S
C488 C487 1.387 . S
C488 C491 1.387 . S
H489 C485 0.950 . S
H490 C487 0.950 . S
C491 C482 1.390 . S
C491 H484 0.950 . S
C491 C488 1.387 . S
C492 C493 1.387 . S
C492 H496 0.950 . S
C492 C501 1.390 . S
C493 C492 1.387 . S
C493 C495 1.387 . S
H494 C501 0.950 . S
C495 C493 1.387 . S
C495 C497 1.390 . S
C495 H499 0.950 . S
H496 C492 0.950 . S
C497 C495 1.390 . S
C497 C498 1.387 . S
C497 H500 0.950 . S
C498 C497 1.387 . S
C498 C501 1.387 . S
H499 C495 0.950 . S
H500 C497 0.950 . S
C501 C492 1.390 . S
C501 H494 0.950 . S
C501 C498 1.387 . S
C502 C503 1.387 . S
C502 H506 0.950 . S
C502 C511 1.390 . S
C503 C502 1.387 . S
C503 C505 1.387 . S
H504 C511 0.950 . S
C505 C503 1.387 . S
C505 C507 1.390 . S
C505 H509 0.950 . S
H506 C502 0.950 . S
C507 C505 1.390 . S
C507 C508 1.387 . S
C507 H510 0.950 . S
C508 C507 1.387 . S
C508 C511 1.387 . S
H509 C505 0.950 . S
H510 C507 0.950 . S
C511 C502 1.390 . S
C511 H504 0.950 . S
C511 C508 1.387 . S
C512 C513 1.387 . S
C512 H516 0.950 . S
C512 C521 1.390 . S
C513 C512 1.387 . S
C513 C515 1.387 . S
H514 C521 0.950 . S
C515 C513 1.387 . S
C515 C517 1.390 . S
C515 H519 0.950 . S
H516 C512 0.950 . S
C517 C515 1.390 . S
C517 C518 1.387 . S
C517 H520 0.950 . S
C518 C517 1.387 . S
C518 C521 1.387 . S
H519 C515 0.950 . S
H520 C517 0.950 . S
C521 C512 1.390 . S
C521 H514 0.950 . S
C521 C518 1.387 . S
C522 C523 1.387 . S
C522 H526 0.950 . S
C522 C531 1.390 . S
C523 C522 1.387 . S
C523 C525 1.387 . S
H524 C531 0.950 . S
C525 C523 1.387 . S
C525 C527 1.390 . S
C525 H529 0.950 . S
H526 C522 0.950 . S
C527 C525 1.390 . S
C527 C528 1.387 . S
C527 H530 0.950 . S
C528 C527 1.387 . S
C528 C531 1.387 . S
H529 C525 0.950 . S
H530 C527 0.950 . S
C531 C522 1.390 . S
C531 H524 0.950 . S
C531 C528 1.387 . S
C532 C533 1.387 . S
C532 H536 0.950 . S
C532 C541 1.390 . S
C533 C532 1.387 . S
C533 C535 1.387 . S
H534 C541 0.950 . S
C535 C533 1.387 . S
C535 C537 1.390 . S
C535 H539 0.950 . S
H536 C532 0.950 . S
C537 C535 1.390 . S
C537 C538 1.387 . S
C537 H540 0.950 . S
C538 C537 1.387 . S
C538 C541 1.387 . S
H539 C535 0.950 . S
H540 C537 0.950 . S
C541 C532 1.390 . S
C541 H534 0.950 . S
C541 C538 1.387 . S
C542 C543 1.387 . S
C542 H546 0.950 . S
C542 C551 1.390 . S
C543 C542 1.387 . S
C543 C545 1.387 . S
H544 C551 0.950 . S
C545 C543 1.387 . S
C545 C547 1.390 . S
C545 H549 0.950 . S
H546 C542 0.950 . S
C547 C545 1.390 . S
C547 C548 1.387 . S
C547 H550 0.950 . S
C548 C547 1.387 . S
C548 C551 1.387 . S
H549 C545 0.950 . S
H550 C547 0.950 . S
C551 C542 1.390 . S
C551 H544 0.950 . S
C551 C548 1.387 . S
C313 C6 1.240 . S
C318 C159 1.272 . S
C323 C21 1.444 . S
C328 C208 1.472 . S
C338 C234 2.021 . S
C333 C49 2.056 . S
C343 C68 2.185 . S
C348 C282 2.243 . S
C358 C194 2.840 . S
C353 C2 2.677 . S
C368 C162 0.539 . S
C363 C30 0.495 . S
C378 C283 2.019 . S
C373 C40 2.084 . S
C388 C251 1.734 . S
C383 C63 1.728 . S
C393 C11 1.360 . S
C398 C279 1.582 . S
C408 C211 2.618 . S
C403 C44 2.688 . S
C413 C59 2.037 . S
C418 C163 2.044 . S
C423 C25 1.613 . S
C428 C248 1.583 . S
C438 C168 1.364 . S
C433 C82 1.366 . S
C443 C101 1.374 . S
C448 C199 1.387 . S
C453 C125 2.302 . S
C458 C243 2.407 . S
C463 C144 2.004 . S
C468 C291 2.075 . S
C473 C87 1.983 . S
C478 C203 2.162 . S
C488 C171 1.620 . S
C483 C97 1.640 . S
C498 C274 1.778 . S
C493 C120 1.867 . S
C508 C242 1.760 . S
C503 C135 1.868 . S
C513 C78 1.888 . S
C518 C288 2.052 . S
C528 C202 1.975 . S
C523 C116 2.024 . S
C538 C154 2.640 . S
C533 C139 2.635 . S
C543 C106 0.888 . S
C548 C239 1.158 . S
