# Generated by pormake.
# Topology dag, (6,3)-cn, num edge types: 1
# Building blocks:
#     Node 0, Type 0, BuildingBlock: IZENUY_clean_sbu_0, # of connection points: 6
#     Node 1, Type 0, BuildingBlock: IZENUY_clean_sbu_0, # of connection points: 6
#     Node 2, Type 0, BuildingBlock: IZENUY_clean_sbu_0, # of connection points: 6
#     Node 3, Type 0, BuildingBlock: IZENUY_clean_sbu_0, # of connection points: 6
#     Node 4, Type 1, BuildingBlock: BETDIP_clean_linker_0, # of connection points: 3
#     Node 5, Type 1, BuildingBlock: BETDIP_clean_linker_0, # of connection points: 3
#     Node 6, Type 1, BuildingBlock: BETDIP_clean_linker_0, # of connection points: 3
#     Node 7, Type 1, BuildingBlock: BETDIP_clean_linker_0, # of connection points: 3
#     Node 8, Type 1, BuildingBlock: BETDIP_clean_linker_0, # of connection points: 3
#     Node 9, Type 1, BuildingBlock: BETDIP_clean_linker_0, # of connection points: 3
#     Node 10, Type 1, BuildingBlock: BETDIP_clean_linker_0, # of connection points: 3
#     Node 11, Type 1, BuildingBlock: BETDIP_clean_linker_0, # of connection points: 3
#     Edge 12, Type (0, 1), BuildingBlock: TEMPAE_clean_linker_10, # of connection points: 2
#     Edge 13, Type (0, 1), BuildingBlock: TEMPAE_clean_linker_10, # of connection points: 2
#     Edge 14, Type (0, 1), BuildingBlock: TEMPAE_clean_linker_10, # of connection points: 2
#     Edge 15, Type (0, 1), BuildingBlock: TEMPAE_clean_linker_10, # of connection points: 2
#     Edge 16, Type (0, 1), BuildingBlock: TEMPAE_clean_linker_10, # of connection points: 2
#     Edge 17, Type (0, 1), BuildingBlock: TEMPAE_clean_linker_10, # of connection points: 2
#     Edge 18, Type (0, 1), BuildingBlock: TEMPAE_clean_linker_10, # of connection points: 2
#     Edge 19, Type (0, 1), BuildingBlock: TEMPAE_clean_linker_10, # of connection points: 2
#     Edge 20, Type (0, 1), BuildingBlock: TEMPAE_clean_linker_10, # of connection points: 2
#     Edge 21, Type (0, 1), BuildingBlock: TEMPAE_clean_linker_10, # of connection points: 2
#     Edge 22, Type (0, 1), BuildingBlock: TEMPAE_clean_linker_10, # of connection points: 2
#     Edge 23, Type (0, 1), BuildingBlock: TEMPAE_clean_linker_10, # of connection points: 2
#     Edge 24, Type (0, 1), BuildingBlock: TEMPAE_clean_linker_10, # of connection points: 2
#     Edge 25, Type (0, 1), BuildingBlock: TEMPAE_clean_linker_10, # of connection points: 2
#     Edge 26, Type (0, 1), BuildingBlock: TEMPAE_clean_linker_10, # of connection points: 2
#     Edge 27, Type (0, 1), BuildingBlock: TEMPAE_clean_linker_10, # of connection points: 2
#     Edge 28, Type (0, 1), BuildingBlock: TEMPAE_clean_linker_10, # of connection points: 2
#     Edge 29, Type (0, 1), BuildingBlock: TEMPAE_clean_linker_10, # of connection points: 2
#     Edge 30, Type (0, 1), BuildingBlock: TEMPAE_clean_linker_10, # of connection points: 2
#     Edge 31, Type (0, 1), BuildingBlock: TEMPAE_clean_linker_10, # of connection points: 2
#     Edge 32, Type (0, 1), BuildingBlock: TEMPAE_clean_linker_10, # of connection points: 2
#     Edge 33, Type (0, 1), BuildingBlock: TEMPAE_clean_linker_10, # of connection points: 2
#     Edge 34, Type (0, 1), BuildingBlock: TEMPAE_clean_linker_10, # of connection points: 2
#     Edge 35, Type (0, 1), BuildingBlock: TEMPAE_clean_linker_10, # of connection points: 2
# Relax obj value: 0.090
# Max RMSD: 0.102
# Mean RMSD: 0.085
data_MOF--net-dag--node1-IZENUY_clean_sbu_0--node2-BETDIP_clean_linker_0--edge1-TEMPAE_clean_linker_10
_symmetry_space_group_name_H-M    P1
_symmetry_Int_Tables_number       1
_symmetry_cell_setting            triclinic
loop_
_symmetry_equiv_pos_as_xyz
'x, y, z'
_cell_length_a     40.830623
_cell_length_b     40.015153
_cell_length_c     36.284406
_cell_angle_alpha  85.968129
_cell_angle_beta   89.901301
_cell_angle_gamma 90.085177
loop_
_atom_site_label
_atom_site_type_symbol
_atom_site_fract_x
_atom_site_fract_y
_atom_site_fract_z
_atom_type_partial_charge
Fe0 Fe 0.20114 0.8731 0.9829 0.0
Fe1 Fe 0.1309 0.88997 0.00387 0.0
O2 O 0.16078 0.85979 0.99485 0.0
Fe3 Fe 0.15012 0.81666 0.99766 0.0
O4 O 0.19034 0.80243 0.0147 0.0
O5 O 0.21826 0.84873 0.02216 0.0
O6 O 0.20076 0.9094 0.01173 0.0
C7 C 0.18282 0.91581 0.03896 0.0
C8 C 0.18934 0.82054 0.93622 0.0
O9 O 0.15433 0.90378 0.04209 0.0
C10 C 0.09464 0.84857 0.96351 0.0
O11 O 0.18669 0.89811 0.94238 0.0
O12 O 0.14792 0.923 0.97196 0.0
O13 O 0.16181 0.81255 0.94999 0.0
O14 O 0.20872 0.83951 0.95224 0.0
C15 C 0.11674 0.83718 0.05728 0.0
O16 O 0.10567 0.87776 0.96616 0.0
O17 O 0.10786 0.82361 0.98113 0.0
C18 C 0.16579 0.92111 0.94373 0.0
O19 O 0.10815 0.86291 0.03752 0.0
O20 O 0.13767 0.8173 0.04574 0.0
C21 C 0.21352 0.81779 0.02943 0.0
Fe22 Fe 0.69644 0.62912 0.55725 0.0
Fe23 Fe 0.64877 0.68773 0.53909 0.0
O24 O 0.65705 0.6441 0.54376 0.0
Fe25 Fe 0.62577 0.61532 0.53501 0.0
O26 O 0.62772 0.59673 0.5818 0.0
O27 O 0.6812 0.591 0.5831 0.0
O28 O 0.69386 0.64933 0.60014 0.0
C29 C 0.68878 0.68009 0.60284 0.0
C30 C 0.68169 0.58599 0.50469 0.0
O31 O 0.67679 0.69821 0.57619 0.0
C32 C 0.61519 0.66249 0.47852 0.0
O33 O 0.71864 0.66478 0.53407 0.0
O34 O 0.68034 0.69433 0.5043 0.0
O35 O 0.65314 0.58386 0.51809 0.0
O36 O 0.70176 0.60735 0.51521 0.0
C37 C 0.59209 0.66459 0.57197 0.0
O38 O 0.61943 0.68498 0.50099 0.0
O39 O 0.62202 0.63234 0.48774 0.0
C40 C 0.70998 0.68619 0.50851 0.0
O41 O 0.61622 0.68417 0.57365 0.0
O42 O 0.59239 0.64123 0.55032 0.0
C43 C 0.65316 0.58415 0.59668 0.0
Fe44 Fe 0.8468 0.18662 0.03482 0.0
Fe45 Fe 0.87095 0.11426 0.03809 0.0
O46 O 0.83986 0.14342 0.04593 0.0
Fe47 Fe 0.80191 0.1293 0.0649 0.0
O48 O 0.7776 0.16233 0.04008 0.0
O49 O 0.81299 0.18858 0.00255 0.0
O50 O 0.87386 0.18034 0.99512 0.0
C51 C 0.87735 0.15546 0.97561 0.0
C52 C 0.81225 0.1851 0.10253 0.0
O53 O 0.87113 0.1262 0.98905 0.0
C54 C 0.84845 0.08812 0.10463 0.0
O55 O 0.88121 0.18725 0.06654 0.0
O56 O 0.90483 0.14276 0.04635 0.0
O57 O 0.80742 0.1539 0.10437 0.0
O58 O 0.82107 0.20058 0.07246 0.0
C59 C 0.81339 0.0808 0.01769 0.0
O60 O 0.87259 0.10053 0.0867 0.0
O61 O 0.81948 0.09372 0.09324 0.0
C62 C 0.90596 0.16872 0.06427 0.0
O63 O 0.84287 0.08037 0.02836 0.0
O64 O 0.79414 0.10356 0.02644 0.0
C65 C 0.78394 0.18023 0.01071 0.0
Fe66 Fe 0.37304 0.38233 0.50823 0.0
Fe67 Fe 0.30347 0.36646 0.48333 0.0
O68 O 0.34245 0.35265 0.49977 0.0
Fe69 Fe 0.35098 0.30922 0.50749 0.0
O70 O 0.37868 0.31407 0.54664 0.0
O71 O 0.37554 0.36751 0.55641 0.0
O72 O 0.34456 0.41408 0.52221 0.0
C73 C 0.31548 0.41216 0.5341 0.0
C74 C 0.40854 0.33156 0.47585 0.0
O75 O 0.29604 0.39018 0.52361 0.0
C76 C 0.31441 0.31339 0.44124 0.0
O77 O 0.37253 0.39902 0.46053 0.0
O78 O 0.31909 0.40377 0.45643 0.0
O79 O 0.38481 0.31146 0.47459 0.0
O80 O 0.40725 0.35614 0.4958 0.0
C81 C 0.28846 0.31147 0.53438 0.0
O82 O 0.30836 0.34422 0.44194 0.0
O83 O 0.32481 0.29663 0.46974 0.0
C84 C 0.34748 0.41078 0.44402 0.0
O85 O 0.28082 0.33149 0.50713 0.0
O86 O 0.31799 0.30394 0.54082 0.0
C87 C 0.38224 0.33778 0.56769 0.0
H88 H 0.14002 0.20918 0.19631 0.0
H89 H 0.22175 0.1437 0.17991 0.0
H90 H 0.12816 0.12427 0.13174 0.0
H91 H 0.25168 0.18512 0.2025 0.0
C92 C 0.2354 0.19726 0.22108 0.0
C93 C 0.15031 0.18759 0.18403 0.0
C94 C 0.13041 0.16774 0.16311 0.0
C95 C 0.18321 0.17921 0.19036 0.0
C96 C 0.19652 0.1508 0.17492 0.0
C97 C 0.17688 0.13116 0.15307 0.0
C98 C 0.14379 0.1397 0.14775 0.0
N99 N 0.2012 0.19889 0.21429 0.0
H100 H 0.26813 0.64137 0.66739 0.0
H101 H 0.35085 0.70509 0.68427 0.0
H102 H 0.35839 0.62743 0.6089 0.0
H103 H 0.32843 0.69465 0.74562 0.0
C104 C 0.30338 0.70172 0.73858 0.0
C105 C 0.29311 0.6488 0.66073 0.0
C106 C 0.3113 0.63141 0.63537 0.0
C107 C 0.30744 0.67483 0.67895 0.0
C108 C 0.33991 0.68454 0.67073 0.0
C109 C 0.3582 0.66802 0.64479 0.0
C110 C 0.34372 0.64146 0.62736 0.0
N111 N 0.289 0.69038 0.70612 0.0
H112 H 0.94268 0.78944 0.2857 0.0
H113 H 0.87261 0.86908 0.29481 0.0
H114 H 0.94106 0.873 0.2047 0.0
H115 H 0.87422 0.84953 0.35654 0.0
C116 C 0.8735 0.82276 0.35323 0.0
C117 C 0.9325 0.81332 0.27549 0.0
C118 C 0.94469 0.82957 0.24286 0.0
C119 C 0.90671 0.82748 0.29469 0.0
C120 C 0.89321 0.85836 0.28103 0.0
C121 C 0.90529 0.87473 0.24827 0.0
C122 C 0.93109 0.86018 0.22959 0.0
N123 N 0.89338 0.80892 0.32601 0.0
H124 H 0.55771 0.29677 0.79372 0.0
H125 H 0.63363 0.37127 0.80019 0.0
H126 H 0.56584 0.37728 0.70964 0.0
H127 H 0.59591 0.26418 0.8242 0.0
C128 C 0.60923 0.28017 0.84197 0.0
C129 C 0.57018 0.3191 0.78248 0.0
C130 C 0.559 0.33528 0.74932 0.0
C131 C 0.59753 0.33188 0.80065 0.0
C132 C 0.6126 0.36152 0.78621 0.0
C133 C 0.60176 0.37752 0.75288 0.0
C134 C 0.57487 0.36438 0.7349 0.0
N135 N 0.61124 0.31521 0.8328 0.0
H136 H 0.64726 0.2912 0.35647 0.0
H137 H 0.72755 0.36014 0.36438 0.0
H138 H 0.64085 0.3707 0.42972 0.0
H139 H 0.75656 0.31959 0.33882 0.0
C140 C 0.73932 0.3079 0.32094 0.0
C141 C 0.65815 0.31244 0.36886 0.0
C142 C 0.64058 0.32918 0.39515 0.0
C143 C 0.68971 0.32288 0.35816 0.0
C144 C 0.7037 0.35101 0.37338 0.0
C145 C 0.68635 0.36815 0.39969 0.0
C146 C 0.65496 0.3568 0.41061 0.0
N147 N 0.70559 0.3056 0.33037 0.0
H148 H 0.04915 0.19081 0.74723 0.0
H149 H 0.12489 0.11945 0.7267 0.0
H150 H 0.05559 0.09794 0.81408 0.0
H151 H 0.11705 0.14407 0.66619 0.0
C152 C 0.11852 0.16988 0.67363 0.0
C153 C 0.06056 0.16664 0.75346 0.0
C154 C 0.049 0.14534 0.78309 0.0
C155 C 0.08748 0.15721 0.7324 0.0
C156 C 0.1032 0.12639 0.74156 0.0
C157 C 0.09154 0.10482 0.77076 0.0
C158 C 0.0643 0.11434 0.79104 0.0
N159 N 0.09979 0.18004 0.70393 0.0
H160 H 0.43517 0.70643 0.25878 0.0
H161 H 0.36375 0.62854 0.2463 0.0
H162 H 0.43099 0.62093 0.33722 0.0
H163 H 0.37176 0.6496 0.18213 0.0
C164 C 0.36842 0.6756 0.18815 0.0
C165 C 0.4245 0.68251 0.26819 0.0
C166 C 0.43614 0.66524 0.30043 0.0
C167 C 0.39874 0.66928 0.24823 0.0
C168 C 0.38438 0.63846 0.26078 0.0
C169 C 0.39556 0.62137 0.29342 0.0
C170 C 0.42165 0.6347 0.31263 0.0
N171 N 0.38607 0.68884 0.21745 0.0
H172 H 0.76995 0.8659 0.85267 0.0
H173 H 0.85561 0.80286 0.85417 0.0
H174 H 0.85901 0.89739 0.9028 0.0
H175 H 0.83372 0.78404 0.80439 0.0
C176 C 0.80729 0.78613 0.80626 0.0
C177 C 0.79528 0.86121 0.86027 0.0
C178 C 0.81275 0.88493 0.87895 0.0
C179 C 0.81082 0.83208 0.84992 0.0
C180 C 0.84366 0.82593 0.86026 0.0
C181 C 0.86115 0.8493 0.8796 0.0
C182 C 0.84556 0.87887 0.88842 0.0
N183 N 0.79289 0.80997 0.82855 0.0
C184 C 0.1698 0.95291 0.08947 0.0
C185 C 0.1919 0.94316 0.06258 0.0
C186 C 0.17431 0.98272 0.10685 0.0
C187 C 0.20192 0.00307 0.09765 0.0
C188 C 0.22599 0.99177 0.07331 0.0
C189 C 0.22058 0.96201 0.05579 0.0
C190 C 0.14799 0.99375 0.13267 0.0
C191 C 0.25629 0.01222 0.06377 0.0
C192 C 0.1808 0.09457 0.10041 0.0
C193 C 0.18975 0.1009 0.13655 0.0
C194 C 0.18667 0.06339 0.08651 0.0
C195 C 0.2025 0.03803 0.10908 0.0
C196 C 0.21445 0.04531 0.14426 0.0
C197 C 0.2077 0.07668 0.15777 0.0
C198 C 0.17353 0.05681 0.04878 0.0
C199 C 0.23231 0.01929 0.16867 0.0
H200 H 0.14783 0.93826 0.09547 0.0
H201 H 0.23808 0.95445 0.03548 0.0
H202 H 0.15896 0.00122 0.15879 0.0
H203 H 0.13514 0.01597 0.11964 0.0
H204 H 0.12957 0.97378 0.13942 0.0
H205 H 0.2756 0.99696 0.0514 0.0
H206 H 0.24993 0.03323 0.04348 0.0
H207 H 0.26637 0.02317 0.08862 0.0
H208 H 0.16765 0.11357 0.08358 0.0
H209 H 0.21481 0.08146 0.18568 0.0
H210 H 0.15329 0.03825 0.05178 0.0
H211 H 0.19289 0.04601 0.03177 0.0
H212 H 0.16406 0.0799 0.03368 0.0
H213 H 0.21435 0.00137 0.18187 0.0
H214 H 0.24619 0.0308 0.19085 0.0
H215 H 0.24951 0.00481 0.15226 0.0
C216 C 0.54925 0.70282 0.59544 0.0
C217 C 0.56118 0.67043 0.59162 0.0
C218 C 0.51697 0.70771 0.60772 0.0
C219 C 0.4966 0.67953 0.61658 0.0
C220 C 0.50954 0.64685 0.61524 0.0
C221 C 0.54156 0.64274 0.60263 0.0
C222 C 0.50407 0.74292 0.60896 0.0
C223 C 0.48893 0.61606 0.62493 0.0
C224 C 0.41498 0.68021 0.66663 0.0
C225 C 0.3931 0.67671 0.63737 0.0
C226 C 0.44881 0.6836 0.66015 0.0
C227 C 0.46093 0.6835 0.62357 0.0
C228 C 0.43868 0.68227 0.59377 0.0
C229 C 0.40506 0.67881 0.60105 0.0
C230 C 0.47169 0.68492 0.69264 0.0
C231 C 0.45052 0.68238 0.55429 0.0
H232 H 0.56437 0.72425 0.58678 0.0
H233 H 0.55095 0.61766 0.60007 0.0
H234 H 0.48705 0.74837 0.58551 0.0
H235 H 0.49006 0.74567 0.6348 0.0
H236 H 0.52408 0.7618 0.60701 0.0
H237 H 0.50357 0.59263 0.62571 0.0
H238 H 0.47702 0.61779 0.65222 0.0
H239 H 0.46921 0.6143 0.60413 0.0
H240 H 0.40588 0.67848 0.69479 0.0
H241 H 0.38815 0.67668 0.57833 0.0
H242 H 0.49089 0.70424 0.68694 0.0
H243 H 0.48421 0.66041 0.69747 0.0
H244 H 0.45845 0.69037 0.71831 0.0
H245 H 0.46831 0.703 0.54819 0.0
H246 H 0.43007 0.6852 0.53415 0.0
H247 H 0.46333 0.65848 0.55016 0.0
C248 C 0.88644 0.05217 0.14433 0.0
C249 C 0.85435 0.06155 0.13451 0.0
C250 C 0.89255 0.02353 0.16785 0.0
C251 C 0.86593 0.00384 0.18203 0.0
C252 C 0.83346 0.01455 0.17451 0.0
C253 C 0.82804 0.04328 0.15081 0.0
C254 C 0.92757 0.01309 0.17538 0.0
C255 C 0.80442 0.99447 0.18945 0.0
C256 C 0.88456 0.91113 0.19476 0.0
C257 C 0.89119 0.90684 0.23269 0.0
C258 C 0.8752 0.94233 0.17829 0.0
C259 C 0.87223 0.97001 0.20031 0.0
C260 C 0.87728 0.96551 0.23896 0.0
C261 C 0.88671 0.93387 0.25476 0.0
C262 C 0.8698 0.94594 0.13701 0.0
C263 C 0.87409 0.99437 0.26334 0.0
H264 H 0.90696 0.06631 0.1323 0.0
H265 H 0.80312 0.05049 0.14376 0.0
H266 H 0.9313 0.00675 0.20532 0.0
H267 H 0.93308 0.99028 0.16079 0.0
H268 H 0.94531 0.03298 0.16594 0.0
H269 H 0.78116 0.00869 0.18594 0.0
H270 H 0.80222 0.97125 0.17462 0.0
H271 H 0.80779 0.98686 0.21919 0.0
H272 H 0.88745 0.89011 0.17774 0.0
H273 H 0.89192 0.93064 0.28408 0.0
H274 H 0.88838 0.96324 0.12391 0.0
H275 H 0.84536 0.95697 0.13072 0.0
H276 H 0.8715 0.92159 0.12418 0.0
H277 H 0.89437 0.01242 0.25725 0.0
H278 H 0.87495 0.98596 0.29316 0.0
H279 H 0.85081 0.00799 0.2576 0.0
C280 C 0.41258 0.35869 0.6212 0.0
C281 C 0.40042 0.33163 0.6028 0.0
C282 C 0.43496 0.35362 0.65026 0.0
C283 C 0.44502 0.32064 0.66162 0.0
C284 C 0.43046 0.29305 0.64558 0.0
C285 C 0.40848 0.29887 0.6161 0.0
C286 C 0.44988 0.3838 0.66665 0.0
C287 C 0.43978 0.25749 0.6577 0.0
C288 C 0.53349 0.32015 0.69076 0.0
C289 C 0.53067 0.32283 0.72892 0.0
C290 C 0.50572 0.3169 0.66881 0.0
C291 C 0.47436 0.31587 0.68556 0.0
C292 C 0.47161 0.3151 0.72455 0.0
C293 C 0.49994 0.31878 0.74589 0.0
C294 C 0.50988 0.31764 0.62736 0.0
C295 C 0.43868 0.31304 0.74347 0.0
H296 H 0.4062 0.38409 0.61149 0.0
H297 H 0.39872 0.27774 0.6025 0.0
H298 H 0.44898 0.38087 0.69725 0.0
H299 H 0.47603 0.38605 0.65841 0.0
H300 H 0.43721 0.40745 0.6573 0.0
H301 H 0.4215 0.23921 0.64863 0.0
H302 H 0.46384 0.25158 0.64549 0.0
H303 H 0.44226 0.25423 0.68819 0.0
H304 H 0.55739 0.32279 0.67778 0.0
H305 H 0.49778 0.32078 0.77544 0.0
H306 H 0.49995 0.34149 0.6145 0.0
H307 H 0.49599 0.29688 0.616 0.0
H308 H 0.53597 0.31561 0.61906 0.0
H309 H 0.42688 0.33805 0.74101 0.0
H310 H 0.44101 0.30507 0.77331 0.0
H311 H 0.42225 0.29529 0.73028 0.0
C312 C 0.66816 0.54416 0.46012 0.0
C313 C 0.69204 0.55941 0.48098 0.0
C314 C 0.67459 0.51428 0.44371 0.0
C315 C 0.70582 0.49922 0.44817 0.0
C316 C 0.73099 0.51601 0.46645 0.0
C317 C 0.72378 0.54607 0.48278 0.0
C318 C 0.64705 0.49755 0.42413 0.0
C319 C 0.76476 0.50113 0.47108 0.0
C320 C 0.69515 0.40558 0.45108 0.0
C321 C 0.6992 0.39959 0.41375 0.0
C322 C 0.70031 0.43755 0.46347 0.0
C323 C 0.70998 0.46414 0.4379 0.0
C324 C 0.71739 0.45744 0.40102 0.0
C325 C 0.71174 0.4252 0.38928 0.0
C326 C 0.69237 0.44346 0.50316 0.0
C327 C 0.72851 0.48489 0.37316 0.0
H328 H 0.64374 0.55477 0.4582 0.0
H329 H 0.74233 0.55785 0.49886 0.0
H330 H 0.65521 0.49057 0.39655 0.0
H331 H 0.63974 0.47415 0.44033 0.0
H332 H 0.62514 0.51388 0.42049 0.0
H333 H 0.78311 0.52028 0.47789 0.0
H334 H 0.76439 0.4812 0.49393 0.0
H335 H 0.77269 0.48951 0.44566 0.0
H336 H 0.68618 0.38563 0.47026 0.0
H337 H 0.71501 0.42075 0.36037 0.0
H338 H 0.6693 0.45801 0.50422 0.0
H339 H 0.71198 0.45835 0.51537 0.0
H340 H 0.6892 0.41964 0.52044 0.0
H341 H 0.70703 0.50003 0.3635 0.0
H342 H 0.74019 0.47457 0.34873 0.0
H343 H 0.74607 0.50195 0.38572 0.0
C344 C 0.90134 0.13175 0.91958 0.0
C345 C 0.89534 0.15963 0.93999 0.0
C346 C 0.92332 0.13371 0.88976 0.0
C347 C 0.93962 0.16432 0.87997 0.0
C348 C 0.93159 0.19324 0.8984 0.0
C349 C 0.90955 0.19056 0.92825 0.0
C350 C 0.93099 0.10229 0.87067 0.0
C351 C 0.94806 0.22645 0.88844 0.0
C352 C 0.02593 0.15175 0.8457 0.0
C353 C 0.02194 0.15532 0.80728 0.0
C354 C -0.00041 0.15618 0.86958 0.0
C355 C 0.96838 0.16449 0.85469 0.0
C356 C 0.96458 0.1701 0.81592 0.0
C357 C 0.99152 0.16545 0.79257 0.0
C358 C 0.00486 0.15025 0.91074 0.0
C359 C 0.93178 0.17931 0.79907 0.0
H360 H 0.89013 0.10785 0.92801 0.0
H361 H 0.90482 0.21237 0.94354 0.0
H362 H 0.93052 0.1074 0.84024 0.0
H363 H 0.95603 0.09362 0.87835 0.0
H364 H 0.91347 0.0817 0.8784 0.0
H365 H 0.93509 0.24749 0.90053 0.0
H366 H 0.97354 0.22568 0.89903 0.0
H367 H 0.94935 0.23153 0.85802 0.0
H368 H 0.04961 0.14445 0.85709 0.0
H369 H 0.98843 0.16819 0.76284 0.0
H370 H 0.9906 0.12799 0.92143 0.0
H371 H 0.99595 0.17199 0.92523 0.0
H372 H 0.03104 0.146 0.91788 0.0
H373 H 0.91528 0.15722 0.80179 0.0
H374 H 0.93393 0.18765 0.7693 0.0
H375 H 0.92008 0.19951 0.81385 0.0
C376 C 0.32398 0.45218 0.39618 0.0
C377 C 0.3515 0.4372 0.41361 0.0
C378 C 0.32728 0.48021 0.37092 0.0
C379 C 0.3588 0.49367 0.36315 0.0
C380 C 0.38678 0.47733 0.37874 0.0
C381 C 0.38281 0.44922 0.40365 0.0
C382 C 0.29691 0.49661 0.35439 0.0
C383 C 0.42087 0.49085 0.3711 0.0
C384 C 0.37775 0.56193 0.2879 0.0
C385 C 0.38016 0.58992 0.30885 0.0
C386 C 0.36892 0.53044 0.30472 0.0
C387 C 0.3625 0.52719 0.3432 0.0
C388 C 0.36272 0.55596 0.36378 0.0
C389 C 0.37148 0.58695 0.34631 0.0
C390 C 0.36843 0.50041 0.28181 0.0
C391 C 0.3558 0.55372 0.40482 0.0
H392 H 0.29969 0.44279 0.40326 0.0
H393 H 0.40426 0.4376 0.41657 0.0
H394 H 0.29196 0.5201 0.36795 0.0
H395 H 0.30043 0.50342 0.32447 0.0
H396 H 0.27506 0.48012 0.35808 0.0
H397 H 0.44014 0.47341 0.38231 0.0
H398 H 0.42485 0.49569 0.34095 0.0
H399 H 0.42377 0.51508 0.38388 0.0
H400 H 0.38451 0.56426 0.25892 0.0
H401 H 0.37294 0.60878 0.36235 0.0
H402 H 0.34655 0.48464 0.28845 0.0
H403 H 0.39036 0.48477 0.28831 0.0
H404 H 0.36855 0.50784 0.25172 0.0
H405 H 0.33227 0.54055 0.41084 0.0
H406 H 0.35464 0.57878 0.41614 0.0
H407 H 0.37536 0.53897 0.4196 0.0
C408 C 0.04572 0.81393 0.94905 0.0
C409 C 0.06275 0.84447 0.9449 0.0
C410 C 0.01361 0.81113 0.93582 0.0
C411 C 0.99825 0.83952 0.91796 0.0
C412 C 0.01598 0.86983 0.91179 0.0
C413 C 0.04799 0.87194 0.92532 0.0
C414 C 0.99555 0.77833 0.94271 0.0
C415 C 0.00054 0.90062 0.89263 0.0
C416 C 0.91869 0.8329 0.86468 0.0
C417 C 0.89584 0.84348 0.8903 0.0
C418 C 0.95212 0.83042 0.87361 0.0
C419 C 0.96278 0.83869 0.90895 0.0
C420 C 0.9396 0.84812 0.93535 0.0
C421 C 0.90644 0.85037 0.9257 0.0
C422 C 0.97612 0.82018 0.84481 0.0
C423 C 0.94994 0.8569 0.97346 0.0
H424 H 0.05695 0.7925 0.96396 0.0
H425 H 0.06107 0.89554 0.92158 0.0
H426 H 0.97608 0.78114 0.96364 0.0
H427 H 0.98342 0.77121 0.91707 0.0
H428 H 0.01206 0.75767 0.95289 0.0
H429 H 0.01854 0.92119 0.88691 0.0
H430 H 0.98927 0.89444 0.86615 0.0
H431 H 0.98071 0.90983 0.91023 0.0
H432 H 0.91061 0.82775 0.8372 0.0
H433 H 0.88874 0.85802 0.94577 0.0
H434 H 0.99213 0.79973 0.85648 0.0
H435 H 0.9922 0.84172 0.83618 0.0
H436 H 0.96364 0.81168 0.81994 0.0
H437 H 0.96433 0.83611 0.9872 0.0
H438 H 0.92869 0.86215 0.99131 0.0
H439 H 0.96598 0.87937 0.9712 0.0
C440 C 0.77533 0.05573 0.97271 0.0
C441 C 0.80152 0.05235 0.99765 0.0
C442 C 0.76738 0.02963 0.95022 0.0
C443 C 0.7861 -0.00023 0.95299 0.0
C444 C 0.81105 0.99558 0.97998 0.0
C445 C 0.81842 0.0219 0.00186 0.0
C446 C 0.74032 0.03487 0.92219 0.0
C447 C 0.83146 0.96402 0.98435 0.0
C448 C 0.77277 0.9155 0.91607 0.0
C449 C 0.7975 0.91631 0.88927 0.0
C450 C 0.76526 0.94436 0.93432 0.0
C451 C 0.78313 0.97422 0.92543 0.0
C452 C 0.80494 0.97602 0.89497 0.0
C453 C 0.81202 0.94687 0.87736 0.0
C454 C 0.74115 0.94174 0.96592 0.0
C455 C 0.82409 0.00749 0.88409 0.0
H456 H 0.76212 0.07924 0.96954 0.0
H457 H 0.83823 0.01891 0.02168 0.0
H458 H 0.7511 0.04315 0.89498 0.0
H459 H 0.72663 0.01129 0.91887 0.0
H460 H 0.72286 0.05444 0.93002 0.0
H461 H 0.84844 0.96403 0.00825 0.0
H462 H 0.81542 0.94166 0.98818 0.0
H463 H 0.84622 0.96146 0.95899 0.0
H464 H 0.76145 0.89177 0.92506 0.0
H465 H 0.83089 0.94737 0.85625 0.0
H466 H 0.72695 0.96525 0.96717 0.0
H467 H 0.75468 0.9375 0.99233 0.0
H468 H 0.72389 0.92051 0.96354 0.0
H469 H 0.80812 0.02988 0.88407 0.0
H470 H 0.83544 0.00659 0.85632 0.0
H471 H 0.84391 0.01051 0.9045 0.0
C472 C 0.45169 0.29305 0.45354 0.0
C473 C 0.43981 0.32551 0.45704 0.0
C474 C 0.48378 0.28802 0.44077 0.0
C475 C 0.50397 0.31613 0.431 0.0
C476 C 0.49116 0.34886 0.43235 0.0
C477 C 0.45935 0.3531 0.44552 0.0
C478 C 0.49663 0.25278 0.43965 0.0
C479 C 0.51158 0.37957 0.42163 0.0
C480 C 0.59596 0.31781 0.44164 0.0
C481 C 0.6063 0.31968 0.40471 0.0
C482 C 0.56274 0.31389 0.4508 0.0
C483 C 0.53928 0.31209 0.42228 0.0
C484 C 0.54982 0.31169 0.38512 0.0
C485 C 0.58328 0.31544 0.37676 0.0
C486 C 0.55257 0.31406 0.49082 0.0
C487 C 0.52561 0.30986 0.35394 0.0
H488 H 0.4366 0.27169 0.46253 0.0
H489 H 0.44999 0.37824 0.44774 0.0
H490 H 0.50948 0.24959 0.41317 0.0
H491 H 0.51469 0.24783 0.46218 0.0
H492 H 0.47676 0.23381 0.44315 0.0
H493 H 0.49708 0.40306 0.42145 0.0
H494 H 0.53209 0.38131 0.44145 0.0
H495 H 0.52244 0.37771 0.39381 0.0
H496 H 0.6138 0.32057 0.46332 0.0
H497 H 0.59116 0.31702 0.34814 0.0
H498 H 0.53484 0.2936 0.49801 0.0
H499 H 0.54021 0.33809 0.49546 0.0
H500 H 0.57383 0.3112 0.50985 0.0
H501 H 0.5067 0.29049 0.3609 0.0
H502 H 0.53777 0.3042 0.32769 0.0
H503 H 0.51284 0.33427 0.34946 0.0
C504 C 0.17242 0.94163 0.8771 0.0
C505 C 0.16272 0.94739 0.91322 0.0
C506 C 0.16581 0.96536 0.84756 0.0
C507 C 0.14935 0.9954 0.85457 0.0
C508 C 0.14109 0.00195 0.89128 0.0
C509 C 0.14777 0.97785 0.92004 0.0
C510 C 0.17503 0.95757 0.80881 0.0
C511 C 0.12385 0.03384 0.90012 0.0
C512 C 0.14227 0.07489 0.79265 0.0
C513 C 0.10909 0.07367 0.78301 0.0
C514 C 0.15704 0.04788 0.81309 0.0
C515 C 0.13807 0.01918 0.82391 0.0
C516 C 0.10559 0.01655 0.8108 0.0
C517 C 0.09144 0.04393 0.7906 0.0
C518 C 0.19182 0.05153 0.82621 0.0
C519 C 0.08463 0.98622 0.82128 0.0
H520 H 0.18395 0.91807 0.87171 0.0
H521 H 0.14062 0.98266 0.94797 0.0
H522 H 0.1526 0.95144 0.79343 0.0
H523 H 0.18659 0.97964 0.79377 0.0
H524 H 0.19208 0.93596 0.8086 0.0
H525 H 0.12106 0.03596 0.93033 0.0
H526 H 0.13763 0.05601 0.88834 0.0
H527 H 0.09913 0.03466 0.88743 0.0
H528 H 0.15594 0.09792 0.78683 0.0
H529 H 0.06587 0.04289 0.78269 0.0
H530 H 0.20545 0.02768 0.82494 0.0
H531 H 0.19159 0.05799 0.85546 0.0
H532 H 0.20513 0.07163 0.80961 0.0
H533 H 0.09857 0.9628 0.81828 0.0
H534 H 0.06211 0.9857 0.80417 0.0
H535 H 0.07719 0.98657 0.85069 0.0
C536 C 0.58538 0.70308 0.43482 0.0
C537 C 0.59605 0.67028 0.4444 0.0
C538 C 0.56247 0.70962 0.40642 0.0
C539 C 0.54974 0.68265 0.38768 0.0
C540 C 0.56247 0.64999 0.39516 0.0
C541 C 0.58566 0.64425 0.42324 0.0
C542 C 0.55025 0.74495 0.3984 0.0
C543 C 0.54962 0.62048 0.37571 0.0
C544 C 0.46119 0.67745 0.36035 0.0
C545 C 0.46366 0.67808 0.32181 0.0
C546 C 0.48888 0.68163 0.38215 0.0
C547 C 0.51974 0.68698 0.36485 0.0
C548 C 0.5218 0.69117 0.32583 0.0
C549 C 0.49361 0.68648 0.30463 0.0
C550 C 0.48548 0.67723 0.42369 0.0
C551 C 0.5541 0.6979 0.30646 0.0
H552 H 0.59374 0.72349 0.45057 0.0
H553 H 0.59416 0.61891 0.42998 0.0
H554 H 0.54648 0.75055 0.36832 0.0
H555 H 0.5263 0.74783 0.4123 0.0
H556 H 0.56751 0.76366 0.40866 0.0
H557 H 0.56415 0.59739 0.3823 0.0
H558 H 0.52384 0.61543 0.38414 0.0
H559 H 0.54986 0.62613 0.34535 0.0
H560 H 0.43781 0.67164 0.37355 0.0
H561 H 0.4955 0.68714 0.27478 0.0
H562 H 0.49787 0.69798 0.43687 0.0
H563 H 0.49748 0.65352 0.43401 0.0
H564 H 0.45946 0.67634 0.43271 0.0
H565 H 0.56915 0.71578 0.32125 0.0
H566 H 0.55057 0.70809 0.27746 0.0
H567 H 0.56806 0.67417 0.30603 0.0
C568 C 0.32675 0.45407 0.57914 0.0
C569 C 0.3041 0.43945 0.55618 0.0
C570 C 0.32023 0.48464 0.594 0.0
C571 C 0.29018 0.50109 0.58575 0.0
C572 C 0.26599 0.48508 0.56518 0.0
C573 C 0.27327 0.45426 0.55051 0.0
C574 C 0.34667 0.50051 0.61614 0.0
C575 C 0.23343 0.50148 0.55644 0.0
C576 C 0.28248 0.57592 0.64302 0.0
C577 C 0.29817 0.60065 0.61993 0.0
C578 C 0.27635 0.54393 0.6309 0.0
C579 C 0.28651 0.5365 0.59508 0.0
C580 C 0.29939 0.56235 0.57053 0.0
C581 C 0.30495 0.59414 0.58323 0.0
C582 C 0.26179 0.51731 0.65759 0.0
C583 C 0.31029 0.55564 0.53194 0.0
H584 H 0.35046 0.44236 0.58391 0.0
H585 H 0.25574 0.443 0.53268 0.0
H586 H 0.35612 0.52332 0.60043 0.0
H587 H 0.33657 0.5083 0.64259 0.0
H588 H 0.36756 0.48328 0.62237 0.0
H589 H 0.21496 0.48303 0.54817 0.0
H590 H 0.22392 0.51417 0.58048 0.0
H591 H 0.23655 0.52079 0.53323 0.0
H592 H 0.27709 0.5807 0.67143 0.0
H593 H 0.31633 0.61344 0.56499 0.0
H594 H 0.28167 0.50112 0.66959 0.0
H595 H 0.24458 0.5011 0.64329 0.0
H596 H 0.24866 0.52845 0.68059 0.0
H597 H 0.3328 0.54008 0.53349 0.0
H598 H 0.3157 0.57914 0.51485 0.0
H599 H 0.29124 0.54147 0.51783 0.0
C600 C 0.09371 0.7956 0.10574 0.0
C601 C 0.09852 0.82887 0.09192 0.0
C602 C 0.07184 0.78794 0.13518 0.0
C603 C 0.0547 0.81421 0.15094 0.0
C604 C 0.06152 0.84792 0.13883 0.0
C605 C 0.08327 0.85478 0.10948 0.0
C606 C 0.06555 0.75175 0.14765 0.0
C607 C 0.04417 0.87682 0.15512 0.0
C608 C 0.96763 0.81105 0.18438 0.0
C609 C 0.97188 0.81557 0.22197 0.0
C610 C 0.99461 0.80672 0.16139 0.0
C611 C 0.02658 0.80724 0.17642 0.0
C612 C 0.03072 0.80816 0.2151 0.0
C613 C 0.00315 0.81236 0.23757 0.0
C614 C 0.98899 0.80535 0.12039 0.0
C615 C 0.06434 0.80816 0.23226 0.0
H616 H 0.1056 0.77549 0.09234 0.0
H617 H 0.08745 0.88058 0.09933 0.0
H618 H 0.06275 0.74848 0.17811 0.0
H619 H 0.04239 0.74345 0.13518 0.0
H620 H 0.0856 0.73523 0.13902 0.0
H621 H 0.05434 0.9015 0.14477 0.0
H622 H 0.01777 0.87625 0.14797 0.0
H623 H 0.04606 0.87464 0.18568 0.0
H624 H 0.94329 0.81327 0.17252 0.0
H625 H 0.00635 0.81585 0.26671 0.0
H626 H 0.00456 0.78584 0.10901 0.0
H627 H 0.99581 0.8298 0.10606 0.0
H628 H 0.96297 0.80006 0.11396 0.0
H629 H 0.08089 0.79054 0.21907 0.0
H630 H 0.06333 0.80128 0.26244 0.0
H631 H 0.07514 0.83361 0.228 0.0
C632 C 0.61842 0.54661 0.63854 0.0
C633 C 0.64967 0.55745 0.62684 0.0
C634 C 0.61449 0.51879 0.66379 0.0
C635 C 0.6425 0.50153 0.67799 0.0
C636 C 0.67414 0.51365 0.66827 0.0
C637 C 0.67737 0.54144 0.64264 0.0
C638 C 0.58027 0.50666 0.67348 0.0
C639 C 0.70455 0.49623 0.68333 0.0
C640 C 0.62309 0.43606 0.75577 0.0
C641 C 0.61819 0.40776 0.73579 0.0
C642 C 0.63317 0.4666 0.73774 0.0
C643 C 0.63828 0.46861 0.69901 0.0
C644 C 0.63565 0.43942 0.67934 0.0
C645 C 0.62573 0.40934 0.69803 0.0
C646 C 0.63626 0.49711 0.75968 0.0
C647 C 0.64106 0.44038 0.63806 0.0
H648 H 0.59685 0.55906 0.62688 0.0
H649 H 0.70164 0.54992 0.63417 0.0
H650 H 0.57598 0.48216 0.66173 0.0
H651 H 0.57735 0.50278 0.70387 0.0
H652 H 0.56118 0.52449 0.66264 0.0
H653 H 0.72688 0.51173 0.67799 0.0
H654 H 0.70221 0.49009 0.71352 0.0
H655 H 0.70778 0.47229 0.67009 0.0
H656 H 0.61728 0.4348 0.785 0.0
H657 H 0.62248 0.38724 0.68273 0.0
H658 H 0.61494 0.51378 0.75385 0.0
H659 H 0.65864 0.51157 0.75151 0.0
H660 H 0.63708 0.49033 0.78988 0.0
H661 H 0.62155 0.45559 0.62377 0.0
H662 H 0.64072 0.41498 0.62753 0.0
H663 H 0.66485 0.45245 0.63057 0.0
C664 C 0.96657 0.16872 0.06256 0.0
C665 C 0.93766 0.17822 0.0798 0.0
C666 C 0.99709 0.17319 0.07887 0.0
C667 C 0.99873 0.18709 0.11363 0.0
C668 C 0.96978 0.1985 0.13027 0.0
C669 C 0.93942 0.1941 0.11295 0.0
C670 C 0.02739 0.16119 0.05982 0.0
C671 C 0.97061 0.2134 0.1673 0.0
C672 C 0.07178 0.151 0.16545 0.0
C673 C 0.09545 0.17571 0.15707 0.0
C674 C 0.03923 0.15576 0.1543 0.0
C675 C 0.03035 0.18579 0.13381 0.0
C676 C 0.05366 0.21186 0.1277 0.0
C677 C 0.08608 0.20653 0.1396 0.0
C678 C 0.01503 0.1275 0.16186 0.0
C679 C 0.04512 0.2442 0.106 0.0
H680 H 0.96526 0.15692 0.03658 0.0
H681 H 0.91702 0.20144 0.12627 0.0
H682 H 0.04651 0.18095 0.05833 0.0
H683 H 0.03759 0.13903 0.07596 0.0
H684 H 0.02221 0.15405 0.03136 0.0
H685 H 0.9472 0.22602 0.17348 0.0
H686 H 0.97503 0.19321 0.18927 0.0
H687 H 0.99093 0.23173 0.16846 0.0
H688 H 0.0791 0.12734 0.17943 0.0
H689 H 0.10449 0.22561 0.13318 0.0
H690 H 0.00979 0.11559 0.13579 0.0
H691 H 0.99154 0.13716 0.17221 0.0
H692 H 0.02449 0.10797 0.18238 0.0
H693 H 0.04368 0.23973 0.0762 0.0
H694 H 0.06376 0.26397 0.10953 0.0
H695 H 0.02084 0.25349 0.11444 0.0
C696 C 0.2259 0.77024 0.07504 0.0
C697 C 0.23685 0.7983 0.05319 0.0
C698 C 0.24772 0.75085 0.0973 0.0
C699 C 0.28142 0.75923 0.09679 0.0
C700 C 0.29265 0.78745 0.07456 0.0
C701 C 0.2701 0.80699 0.05338 0.0
C702 C 0.23467 0.72151 0.12144 0.0
C703 C 0.32852 0.79665 0.07268 0.0
C704 C 0.33384 0.72673 0.17767 0.0
C705 C 0.34712 0.69762 0.16439 0.0
C706 C 0.31242 0.74707 0.15591 0.0
C707 C 0.30482 0.73845 0.11973 0.0
C708 C 0.31878 0.70943 0.10593 0.0
C709 C 0.33941 0.68903 0.12872 0.0
C710 C 0.29731 0.77729 0.17194 0.0
C711 C 0.3118 0.69988 0.06718 0.0
H712 H 0.20012 0.76369 0.07508 0.0
H713 H 0.27859 0.82854 0.03619 0.0
H714 H 0.24584 0.69791 0.1132 0.0
H715 H 0.24147 0.72424 0.15068 0.0
H716 H 0.20761 0.71919 0.11968 0.0
H717 H 0.33332 0.81896 0.05345 0.0
H718 H 0.33753 0.80188 0.10052 0.0
H719 H 0.34296 0.77528 0.06347 0.0
H720 H 0.33948 0.73318 0.20548 0.0
H721 H 0.34978 0.66649 0.11855 0.0
H722 H 0.27023 0.77482 0.17226 0.0
H723 H 0.30337 0.80031 0.15444 0.0
H724 H 0.30582 0.78053 0.20054 0.0
H725 H 0.28537 0.69419 0.06429 0.0
H726 H 0.32614 0.67769 0.05993 0.0
H727 H 0.31762 0.72118 0.04697 0.0
C728 C 0.70739 0.67607 0.66847 0.0
C729 C 0.70125 0.69575 0.63569 0.0
C730 C 0.72193 0.68996 0.69885 0.0
C731 C 0.731 0.72418 0.69608 0.0
C732 C 0.72385 0.74443 0.66352 0.0
C733 C 0.70879 0.73001 0.63378 0.0
C734 C 0.72862 0.66777 0.7334 0.0
C735 C 0.73347 0.78097 0.65945 0.0
C736 C 0.75294 0.76962 0.78103 0.0
C737 C 0.78724 0.76851 0.77993 0.0
C738 C 0.73416 0.75449 0.75442 0.0
C739 C 0.75017 0.73828 0.72603 0.0
C740 C 0.78479 0.73649 0.72536 0.0
C741 C 0.8029 0.75149 0.75251 0.0
C742 C 0.69727 0.7564 0.75626 0.0
C743 C 0.80275 0.71953 0.6954 0.0
H744 H 0.70124 0.64963 0.67019 0.0
H745 H 0.70415 0.74531 0.60848 0.0
H746 H 0.75543 0.66443 0.73694 0.0
H747 H 0.71935 0.67964 0.75809 0.0
H748 H 0.71715 0.64265 0.73246 0.0
H749 H 0.72451 0.79367 0.63318 0.0
H750 H 0.72362 0.79433 0.68283 0.0
H751 H 0.76055 0.78323 0.66019 0.0
H752 H 0.74073 0.78255 0.80242 0.0
H753 H 0.82944 0.75062 0.75175 0.0
H754 H 0.68649 0.73095 0.75591 0.0
H755 H 0.68786 0.77134 0.73163 0.0
H756 H 0.68859 0.76803 0.78142 0.0
H757 H 0.7945 0.69315 0.69479 0.0
H758 H 0.82972 0.71976 0.69932 0.0
H759 H 0.79702 0.73233 0.66805 0.0
C760 C 0.79872 0.18717 0.16953 0.0
C761 C 0.80454 0.20412 0.13497 0.0
C762 C 0.79022 0.20469 0.20027 0.0
C763 C 0.78723 0.23999 0.19628 0.0
C764 C 0.79381 0.25734 0.16172 0.0
C765 C 0.80253 0.2392 0.13148 0.0
C766 C 0.78366 0.18535 0.2368 0.0
C767 C 0.79067 0.29497 0.1564 0.0
C768 C 0.7297 0.27893 0.26308 0.0
C769 C 0.75162 0.29134 0.28853 0.0
C770 C 0.74108 0.26262 0.23264 0.0
C771 C 0.77517 0.25844 0.22768 0.0
C772 C 0.79745 0.27122 0.25307 0.0
C773 C 0.78536 0.28771 0.28318 0.0
C774 C 0.71656 0.2496 0.20596 0.0
C775 C 0.83396 0.26702 0.24872 0.0
H776 H 0.80058 0.16009 0.17258 0.0
H777 H 0.80708 0.25251 0.10491 0.0
H778 H 0.79865 0.19556 0.25888 0.0
H779 H 0.75757 0.18813 0.24459 0.0
H780 H 0.78913 0.15823 0.23588 0.0
H781 H 0.79842 0.30484 0.12834 0.0
H782 H 0.76483 0.30232 0.16074 0.0
H783 H 0.80568 0.30712 0.17713 0.0
H784 H 0.70357 0.28194 0.26685 0.0
H785 H 0.80227 0.29738 0.30285 0.0
H786 H 0.71875 0.22198 0.20571 0.0
H787 H 0.72175 0.26033 0.17752 0.0
H788 H 0.69093 0.25578 0.21318 0.0
H789 H 0.84018 0.23998 0.25 0.0
H790 H 0.84801 0.27902 0.27043 0.0
H791 H 0.84198 0.27806 0.22127 0.0
C792 C 0.2294 0.2967 0.54542 0.0
C793 C 0.26229 0.29369 0.55638 0.0
C794 C 0.20462 0.27839 0.56466 0.0
C795 C 0.21288 0.25671 0.59575 0.0
C796 C 0.24586 0.2543 0.60761 0.0
C797 C 0.27016 0.27275 0.58775 0.0
C798 C 0.16974 0.28154 0.55111 0.0
C799 C 0.2556 0.23163 0.6408 0.0
C800 C 0.14663 0.2257 0.66366 0.0
C801 C 0.14108 0.19322 0.65281 0.0
C802 C 0.16965 0.24689 0.64502 0.0
C803 C 0.18734 0.2353 0.61484 0.0
C804 C 0.18127 0.20276 0.60338 0.0
C805 C 0.15827 0.1821 0.62261 0.0
C806 C 0.17554 0.28139 0.65808 0.0
C807 C 0.19949 0.18955 0.57119 0.0
H808 H 0.22302 0.31284 0.52126 0.0
H809 H 0.29545 0.27043 0.59662 0.0
H810 H 0.16122 0.25709 0.54204 0.0
H811 H 0.15335 0.28824 0.57386 0.0
H812 H 0.16712 0.30073 0.52766 0.0
H813 H 0.28199 0.23394 0.6476 0.0
H814 H 0.24091 0.23754 0.66526 0.0
H815 H 0.25042 0.20517 0.63547 0.0
H816 H 0.13346 0.2344 0.6871 0.0
H817 H 0.15398 0.15697 0.61425 0.0
H818 H 0.17194 0.30067 0.63496 0.0
H819 H 0.20126 0.28351 0.66748 0.0
H820 H 0.15899 0.28705 0.68116 0.0
H821 H 0.19624 0.20674 0.54613 0.0
H822 H 0.19106 0.16414 0.56498 0.0
H823 H 0.2261 0.18842 0.5773 0.0
C824 C 0.72613 0.72365 0.45339 0.0
C825 C 0.73519 0.70444 0.48559 0.0
C826 C 0.74949 0.742 0.43198 0.0
C827 C 0.78267 0.74142 0.44322 0.0
C828 C 0.79206 0.72191 0.47552 0.0
C829 C 0.76823 0.70347 0.49621 0.0
C830 C 0.73859 0.76219 0.39745 0.0
C831 C 0.82717 0.72093 0.48853 0.0
C832 C 0.84664 0.76747 0.37063 0.0
C833 C 0.85176 0.80118 0.37733 0.0
C834 C 0.82454 0.74756 0.39222 0.0
C835 C 0.80742 0.76165 0.42133 0.0
C836 C 0.81309 0.79547 0.4287 0.0
C837 C 0.83508 0.81488 0.40642 0.0
C838 C 0.81892 0.7117 0.38332 0.0
C839 C 0.79554 0.81128 0.45972 0.0
H840 H 0.7007 0.72435 0.44485 0.0
H841 H 0.77542 0.68881 0.52113 0.0
H842 H 0.74377 0.78915 0.40005 0.0
H843 H 0.75257 0.75446 0.37322 0.0
H844 H 0.71203 0.75919 0.39195 0.0
H845 H 0.83052 0.70421 0.514 0.0
H846 H 0.84334 0.71216 0.4666 0.0
H847 H 0.83536 0.74653 0.49415 0.0
H848 H 0.85937 0.75676 0.34804 0.0
H849 H 0.83906 0.84094 0.41158 0.0
H850 H 0.79299 0.70827 0.37526 0.0
H851 H 0.82352 0.69453 0.40811 0.0
H852 H 0.8349 0.70424 0.3605 0.0
H853 H 0.76879 0.81166 0.4544 0.0
H854 H 0.8039 0.83734 0.46296 0.0
H855 H 0.79951 0.7962 0.48618 0.0
C856 C 0.72436 0.19214 0.00014 0.0
C857 C 0.75678 0.19371 0.98718 0.0
C858 C 0.6985 0.20533 0.97825 0.0
C859 C 0.7052 0.22004 0.94242 0.0
C860 C 0.73778 0.22124 0.92898 0.0
C861 C 0.7632 0.20822 0.95159 0.0
C862 C 0.6641 0.20392 0.99362 0.0
C863 C 0.74584 0.23642 0.89074 0.0
C864 C 0.63783 0.22998 0.87055 0.0
C865 C 0.6314 0.26436 0.8702 0.0
C866 C 0.66129 0.21496 0.89458 0.0
C867 C 0.67832 0.23483 0.91908 0.0
C868 C 0.67085 0.2693 0.91991 0.0
C869 C 0.64757 0.28372 0.89529 0.0
C870 C 0.66875 0.17817 0.89276 0.0
C871 C 0.68817 0.29118 0.94602 0.0
H872 H 0.7192 0.18102 0.02764 0.0
H873 H 0.78813 0.20926 0.94126 0.0
H874 H 0.65427 0.22968 0.99462 0.0
H875 H 0.64781 0.19039 0.97526 0.0
H876 H 0.66296 0.19127 0.02184 0.0
H877 H 0.7723 0.23451 0.88405 0.0
H878 H 0.73157 0.22369 0.86979 0.0
H879 H 0.73878 0.26324 0.88835 0.0
H880 H 0.62529 0.21504 0.85113 0.0
H881 H 0.64241 0.31027 0.89536 0.0
H882 H 0.66669 0.16501 0.92061 0.0
H883 H 0.69434 0.17506 0.88325 0.0
H884 H 0.65209 0.16587 0.87365 0.0
H885 H 0.68639 0.27992 0.97478 0.0
H886 H 0.67789 0.31692 0.94504 0.0
H887 H 0.71456 0.29293 0.93883 0.0
C888 C 0.29988 0.31458 0.37426 0.0
C889 C 0.30647 0.29606 0.40769 0.0
C890 C 0.29103 0.29855 0.3426 0.0
C891 C 0.28839 0.2632 0.34455 0.0
C892 C 0.29588 0.24431 0.37791 0.0
C893 C 0.305 0.26097 0.40904 0.0
C894 C 0.28355 0.31949 0.30738 0.0
C895 C 0.29305 0.20658 0.38111 0.0
C896 C 0.22826 0.22605 0.27943 0.0
C897 C 0.24911 0.21413 0.25256 0.0
C898 C 0.24084 0.24192 0.30954 0.0
C899 C 0.2751 0.24621 0.31271 0.0
C900 C 0.29631 0.23429 0.28565 0.0
C901 C 0.28301 0.21815 0.25592 0.0
C902 C 0.21744 0.25401 0.33803 0.0
C903 C 0.33295 0.23871 0.28807 0.0
H904 H 0.30138 0.34169 0.37286 0.0
H905 H 0.31015 0.24647 0.43474 0.0
H906 H 0.29757 0.31019 0.28397 0.0
H907 H 0.25716 0.31733 0.3007 0.0
H908 H 0.2895 0.34639 0.30953 0.0
H909 H 0.30188 0.19547 0.4082 0.0
H910 H 0.26709 0.1992 0.3777 0.0
H911 H 0.30728 0.19567 0.35883 0.0
H912 H 0.20201 0.22278 0.27722 0.0
H913 H 0.2991 0.20889 0.23514 0.0
H914 H 0.22004 0.28147 0.3396 0.0
H915 H 0.22341 0.24207 0.36572 0.0
H916 H 0.19149 0.24835 0.33169 0.0
H917 H 0.33905 0.26571 0.28837 0.0
H918 H 0.34603 0.22823 0.26462 0.0
H919 H 0.34219 0.22622 0.31426 0.0
C920 C 0.22428 0.8209 0.87998 0.0
C921 C 0.20111 0.80447 0.90335 0.0
C922 C 0.23829 0.8049 0.85066 0.0
C923 C 0.22946 0.77139 0.84519 0.0
C924 C 0.20522 0.75507 0.86794 0.0
C925 C 0.19103 0.77199 0.89656 0.0
C926 C 0.26345 0.82344 0.82644 0.0
C927 C 0.19556 0.71917 0.86331 0.0
C928 C 0.25403 0.73461 0.75543 0.0
C929 C 0.2837 0.719 0.76556 0.0
C930 C 0.23594 0.75176 0.7811 0.0
C931 C 0.24759 0.75266 0.81775 0.0
C932 C 0.27728 0.73638 0.82814 0.0
C933 C 0.29517 0.72008 0.80175 0.0
C934 C 0.20475 0.76944 0.76886 0.0
C935 C 0.29026 0.73633 0.86711 0.0
H936 H 0.2318 0.8462 0.88495 0.0
H937 H 0.17321 0.7592 0.91472 0.0
H938 H 0.28793 0.81204 0.83153 0.0
H939 H 0.25758 0.82133 0.79685 0.0
H940 H 0.26492 0.8504 0.83178 0.0
H941 H 0.17464 0.71095 0.88137 0.0
H942 H 0.18886 0.71585 0.83418 0.0
H943 H 0.21673 0.70252 0.87016 0.0
H944 H 0.24528 0.73401 0.7273 0.0
H945 H 0.3181 0.7079 0.8095 0.0
H946 H 0.20713 0.79667 0.77232 0.0
H947 H 0.18395 0.76009 0.78641 0.0
H948 H 0.19878 0.7659 0.73953 0.0
H949 H 0.29582 0.76234 0.87389 0.0
H950 H 0.31285 0.72107 0.87112 0.0
H951 H 0.27142 0.72632 0.88704 0.0
loop_
_geom_bond_atom_site_label_1
_geom_bond_atom_site_label_2
_geom_bond_distance
_geom_bond_site_symmetry_2
_ccdc_geom_bond_type
Fe0 O2 1.918 . S
Fe0 O5 1.997 1_556 S
Fe0 O6 2.002 1_556 S
Fe0 O11 1.976 . S
Fe0 O14 1.996 . S
Fe1 O2 1.918 1_554 S
Fe1 O9 1.997 . S
Fe1 O12 1.996 1_554 S
Fe1 O16 1.976 1_554 S
Fe1 O19 2.002 . S
O2 Fe0 1.918 . S
O2 Fe1 1.918 1_556 S
O2 Fe3 1.918 1_556 S
Fe3 O2 1.918 1_554 S
Fe3 O4 2.002 . S
Fe3 O13 1.976 1_554 S
Fe3 O17 1.996 1_554 S
Fe3 O20 1.997 . S
O4 Fe3 2.002 . S
O4 C21 1.295 . S
O5 Fe0 1.997 1_554 S
O5 C21 1.235 . S
O6 Fe0 2.002 1_554 S
O6 C7 1.295 . S
C7 O6 1.295 . S
C7 O9 1.235 . S
C8 O13 1.287 . S
C8 O14 1.255 . S
O9 Fe1 1.997 . S
O9 C7 1.235 . S
C10 O16 1.287 . S
C10 O17 1.255 . S
O11 Fe0 1.976 . S
O11 C18 1.287 . S
O12 Fe1 1.996 1_556 S
O12 C18 1.255 . S
O13 Fe3 1.976 1_556 S
O13 C8 1.287 . S
O14 Fe0 1.996 . S
O14 C8 1.255 . S
C15 O19 1.295 . S
C15 O20 1.235 . S
O16 Fe1 1.976 1_556 S
O16 C10 1.287 . S
O17 Fe3 1.996 1_556 S
O17 C10 1.255 . S
C18 O11 1.287 . S
C18 O12 1.255 . S
O19 Fe1 2.002 . S
O19 C15 1.295 . S
O20 Fe3 1.997 . S
O20 C15 1.235 . S
C21 O4 1.295 . S
C21 O5 1.235 . S
Fe22 O24 1.918 . S
Fe22 O27 1.997 . S
Fe22 O28 2.002 . S
Fe22 O33 1.976 . S
Fe22 O36 1.996 . S
Fe23 O24 1.918 . S
Fe23 O31 1.997 . S
Fe23 O34 1.996 . S
Fe23 O38 1.976 . S
Fe23 O41 2.002 . S
O24 Fe22 1.918 . S
O24 Fe23 1.918 . S
O24 Fe25 1.918 . S
Fe25 O24 1.918 . S
Fe25 O26 2.002 . S
Fe25 O35 1.976 . S
Fe25 O39 1.996 . S
Fe25 O42 1.997 . S
O26 Fe25 2.002 . S
O26 C43 1.295 . S
O27 Fe22 1.997 . S
O27 C43 1.235 . S
O28 Fe22 2.002 . S
O28 C29 1.295 . S
C29 O28 1.295 . S
C29 O31 1.235 . S
C30 O35 1.287 . S
C30 O36 1.255 . S
O31 Fe23 1.997 . S
O31 C29 1.235 . S
C32 O38 1.287 . S
C32 O39 1.255 . S
O33 Fe22 1.976 . S
O33 C40 1.287 . S
O34 Fe23 1.996 . S
O34 C40 1.255 . S
O35 Fe25 1.976 . S
O35 C30 1.287 . S
O36 Fe22 1.996 . S
O36 C30 1.255 . S
C37 O41 1.295 . S
C37 O42 1.235 . S
O38 Fe23 1.976 . S
O38 C32 1.287 . S
O39 Fe25 1.996 . S
O39 C32 1.255 . S
C40 O33 1.287 . S
C40 O34 1.255 . S
O41 Fe23 2.002 . S
O41 C37 1.295 . S
O42 Fe25 1.997 . S
O42 C37 1.235 . S
C43 O26 1.295 . S
C43 O27 1.235 . S
Fe44 O46 1.918 . S
Fe44 O49 1.997 . S
Fe44 O50 2.002 1_554 S
Fe44 O55 1.976 . S
Fe44 O58 1.996 . S
Fe45 O46 1.918 . S
Fe45 O53 1.997 1_554 S
Fe45 O56 1.996 . S
Fe45 O60 1.976 . S
Fe45 O63 2.002 . S
O46 Fe44 1.918 . S
O46 Fe45 1.918 . S
O46 Fe47 1.918 . S
Fe47 O46 1.918 . S
Fe47 O48 2.002 . S
Fe47 O57 1.976 . S
Fe47 O61 1.996 . S
Fe47 O64 1.997 . S
O48 Fe47 2.002 . S
O48 C65 1.284 1_554 S
O49 Fe44 1.997 . S
O49 C65 1.230 1_554 S
O50 Fe44 2.002 1_556 S
O50 C51 1.295 . S
C51 O50 1.295 . S
C51 O53 1.235 . S
C52 O57 1.287 . S
C52 O58 1.255 . S
O53 Fe45 1.997 1_556 S
O53 C51 1.235 . S
C54 O60 1.287 . S
C54 O61 1.255 . S
O55 Fe44 1.976 . S
O55 C62 1.287 . S
O56 Fe45 1.996 . S
O56 C62 1.255 . S
O57 Fe47 1.976 . S
O57 C52 1.287 . S
O58 Fe44 1.996 . S
O58 C52 1.255 . S
C59 O63 1.295 . S
C59 O64 1.235 . S
O60 Fe45 1.976 . S
O60 C54 1.287 . S
O61 Fe47 1.996 . S
O61 C54 1.255 . S
C62 O55 1.287 . S
C62 O56 1.255 . S
O63 Fe45 2.002 . S
O63 C59 1.295 . S
O64 Fe47 1.997 . S
O64 C59 1.235 . S
C65 O48 1.284 1_556 S
C65 O49 1.230 1_556 S
Fe66 O68 1.918 . S
Fe66 O71 1.997 . S
Fe66 O72 2.002 . S
Fe66 O77 1.976 . S
Fe66 O80 1.996 . S
Fe67 O68 1.918 . S
Fe67 O75 1.997 . S
Fe67 O78 1.996 . S
Fe67 O82 1.976 . S
Fe67 O85 2.002 . S
O68 Fe66 1.918 . S
O68 Fe67 1.918 . S
O68 Fe69 1.918 . S
Fe69 O68 1.918 . S
Fe69 O70 2.002 . S
Fe69 O79 1.976 . S
Fe69 O83 1.996 . S
Fe69 O86 1.997 . S
O70 Fe69 2.002 . S
O70 C87 1.295 . S
O71 Fe66 1.997 . S
O71 C87 1.235 . S
O72 Fe66 2.002 . S
O72 C73 1.295 . S
C73 O72 1.295 . S
C73 O75 1.235 . S
C74 O79 1.287 . S
C74 O80 1.255 . S
O75 Fe67 1.997 . S
O75 C73 1.235 . S
C76 O82 1.287 . S
C76 O83 1.255 . S
O77 Fe66 1.976 . S
O77 C84 1.287 . S
O78 Fe67 1.996 . S
O78 C84 1.255 . S
O79 Fe69 1.976 . S
O79 C74 1.287 . S
O80 Fe66 1.996 . S
O80 C74 1.255 . S
C81 O85 1.295 . S
C81 O86 1.235 . S
O82 Fe67 1.976 . S
O82 C76 1.287 . S
O83 Fe69 1.996 . S
O83 C76 1.255 . S
C84 O77 1.287 . S
C84 O78 1.255 . S
O85 Fe67 2.002 . S
O85 C81 1.295 . S
O86 Fe69 1.997 . S
O86 C81 1.235 . S
C87 O70 1.295 . S
C87 O71 1.235 . S
H88 C93 0.930 . S
H89 C96 0.930 . S
H90 C98 0.930 . S
H91 C92 1.016 . S
C92 H91 1.016 . S
C92 N99 1.286 . S
C93 H88 0.930 . S
C93 C94 1.397 . S
C93 C95 1.361 . S
C94 C93 1.397 . S
C94 C98 1.390 . S
C95 C93 1.361 . S
C95 C96 1.393 . S
C95 N99 1.413 . S
C96 H89 0.930 . S
C96 C95 1.393 . S
C96 C97 1.399 . S
C97 C96 1.399 . S
C97 C98 1.381 . S
C98 H90 0.930 . S
C98 C94 1.390 . S
C98 C97 1.381 . S
N99 C92 1.286 . S
N99 C95 1.413 . S
H100 C105 0.930 . S
H101 C108 0.930 . S
H102 C110 0.930 . S
H103 C104 1.016 . S
C104 H103 1.016 . S
C104 N111 1.286 . S
C105 H100 0.930 . S
C105 C106 1.397 . S
C105 C107 1.361 . S
C106 C105 1.397 . S
C106 C110 1.390 . S
C107 C105 1.361 . S
C107 C108 1.393 . S
C107 N111 1.413 . S
C108 H101 0.930 . S
C108 C107 1.393 . S
C108 C109 1.399 . S
C109 C108 1.399 . S
C109 C110 1.381 . S
C110 H102 0.930 . S
C110 C106 1.390 . S
C110 C109 1.381 . S
N111 C104 1.286 . S
N111 C107 1.413 . S
H112 C117 0.930 . S
H113 C120 0.930 . S
H114 C122 0.930 . S
H115 C116 1.016 . S
C116 H115 1.016 . S
C116 N123 1.286 . S
C117 H112 0.930 . S
C117 C118 1.397 . S
C117 C119 1.361 . S
C118 C117 1.397 . S
C118 C122 1.390 . S
C119 C117 1.361 . S
C119 C120 1.393 . S
C119 N123 1.413 . S
C120 H113 0.930 . S
C120 C119 1.393 . S
C120 C121 1.399 . S
C121 C120 1.399 . S
C121 C122 1.381 . S
C122 H114 0.930 . S
C122 C118 1.390 . S
C122 C121 1.381 . S
N123 C116 1.286 . S
N123 C119 1.413 . S
H124 C129 0.930 . S
H125 C132 0.930 . S
H126 C134 0.930 . S
H127 C128 1.016 . S
C128 H127 1.016 . S
C128 N135 1.286 . S
C129 H124 0.930 . S
C129 C130 1.397 . S
C129 C131 1.361 . S
C130 C129 1.397 . S
C130 C134 1.390 . S
C131 C129 1.361 . S
C131 C132 1.393 . S
C131 N135 1.413 . S
C132 H125 0.930 . S
C132 C131 1.393 . S
C132 C133 1.399 . S
C133 C132 1.399 . S
C133 C134 1.381 . S
C134 H126 0.930 . S
C134 C130 1.390 . S
C134 C133 1.381 . S
N135 C128 1.286 . S
N135 C131 1.413 . S
H136 C141 0.930 . S
H137 C144 0.930 . S
H138 C146 0.930 . S
H139 C140 1.016 . S
C140 H139 1.016 . S
C140 N147 1.286 . S
C141 H136 0.930 . S
C141 C142 1.397 . S
C141 C143 1.361 . S
C142 C141 1.397 . S
C142 C146 1.390 . S
C143 C141 1.361 . S
C143 C144 1.393 . S
C143 N147 1.413 . S
C144 H137 0.930 . S
C144 C143 1.393 . S
C144 C145 1.399 . S
C145 C144 1.399 . S
C145 C146 1.381 . S
C146 H138 0.930 . S
C146 C142 1.390 . S
C146 C145 1.381 . S
N147 C140 1.286 . S
N147 C143 1.413 . S
H148 C153 0.930 . S
H149 C156 0.930 . S
H150 C158 0.930 . S
H151 C152 1.016 . S
C152 H151 1.016 . S
C152 N159 1.286 . S
C153 H148 0.930 . S
C153 C154 1.397 . S
C153 C155 1.361 . S
C154 C153 1.397 . S
C154 C158 1.390 . S
C155 C153 1.361 . S
C155 C156 1.393 . S
C155 N159 1.413 . S
C156 H149 0.930 . S
C156 C155 1.393 . S
C156 C157 1.399 . S
C157 C156 1.399 . S
C157 C158 1.381 . S
C158 H150 0.930 . S
C158 C154 1.390 . S
C158 C157 1.381 . S
N159 C152 1.286 . S
N159 C155 1.413 . S
H160 C165 0.930 . S
H161 C168 0.930 . S
H162 C170 0.930 . S
H163 C164 1.016 . S
C164 H163 1.016 . S
C164 N171 1.286 . S
C165 H160 0.930 . S
C165 C166 1.397 . S
C165 C167 1.361 . S
C166 C165 1.397 . S
C166 C170 1.390 . S
C167 C165 1.361 . S
C167 C168 1.393 . S
C167 N171 1.413 . S
C168 H161 0.930 . S
C168 C167 1.393 . S
C168 C169 1.399 . S
C169 C168 1.399 . S
C169 C170 1.381 . S
C170 H162 0.930 . S
C170 C166 1.390 . S
C170 C169 1.381 . S
N171 C164 1.286 . S
N171 C167 1.413 . S
H172 C177 0.930 . S
H173 C180 0.930 . S
H174 C182 0.930 . S
H175 C176 1.016 . S
C176 H175 1.016 . S
C176 N183 1.286 . S
C177 H172 0.930 . S
C177 C178 1.397 . S
C177 C179 1.361 . S
C178 C177 1.397 . S
C178 C182 1.390 . S
C179 C177 1.361 . S
C179 C180 1.393 . S
C179 N183 1.413 . S
C180 H173 0.930 . S
C180 C179 1.393 . S
C180 C181 1.399 . S
C181 C180 1.399 . S
C181 C182 1.381 . S
C182 H174 0.930 . S
C182 C178 1.390 . S
C182 C181 1.381 . S
N183 C176 1.286 . S
N183 C179 1.413 . S
C184 C185 1.391 . S
C184 C186 1.394 . S
C184 H200 0.931 . S
C185 C184 1.391 . S
C185 C189 1.376 . S
C186 C184 1.394 . S
C186 C187 1.369 1_565 S
C186 C190 1.531 1_565 S
C187 C186 1.369 1_545 S
C187 C188 1.410 . S
C187 C195 1.503 . S
C188 C187 1.410 . S
C188 C189 1.392 1_545 S
C188 C191 1.511 . S
C189 C185 1.376 . S
C189 C188 1.392 1_565 S
C189 H201 0.929 . S
C190 C186 1.531 1_545 S
C190 H202 0.960 . S
C190 H203 0.962 . S
C190 H204 0.960 1_545 S
C191 C188 1.511 . S
C191 H205 0.961 . S
C191 H206 0.961 . S
C191 H207 0.961 . S
C192 C193 1.370 . S
C192 C194 1.363 . S
C192 H208 0.931 . S
C193 C192 1.370 . S
C193 C197 1.408 . S
C194 C192 1.363 . S
C194 C195 1.370 . S
C194 C198 1.524 . S
C195 C187 1.503 . S
C195 C194 1.370 . S
C195 C196 1.403 . S
C196 C195 1.403 . S
C196 C197 1.404 . S
C196 C199 1.539 . S
C197 C193 1.408 . S
C197 C196 1.404 . S
C197 H209 0.930 . S
C198 C194 1.524 . S
C198 H210 0.956 . S
C198 H211 0.961 . S
C198 H212 0.961 . S
C199 C196 1.539 . S
C199 H213 0.958 . S
C199 H214 0.961 . S
C199 H215 0.960 . S
H200 C184 0.931 . S
H201 C189 0.929 . S
H202 C190 0.960 . S
H203 C190 0.962 . S
H204 C190 0.960 1_565 S
H205 C191 0.961 . S
H206 C191 0.961 . S
H207 C191 0.961 . S
H208 C192 0.931 . S
H209 C197 0.930 . S
H210 C198 0.956 . S
H211 C198 0.961 . S
H212 C198 0.961 . S
H213 C199 0.958 . S
H214 C199 0.961 . S
H215 C199 0.960 . S
C216 C217 1.391 . S
C216 C218 1.394 . S
C216 H232 0.931 . S
C217 C216 1.391 . S
C217 C221 1.376 . S
C218 C216 1.394 . S
C218 C219 1.369 . S
C218 C222 1.531 . S
C219 C218 1.369 . S
C219 C220 1.410 . S
C219 C227 1.503 . S
C220 C219 1.410 . S
C220 C221 1.392 . S
C220 C223 1.511 . S
C221 C217 1.376 . S
C221 C220 1.392 . S
C221 H233 0.929 . S
C222 C218 1.531 . S
C222 H234 0.960 . S
C222 H235 0.962 . S
C222 H236 0.960 . S
C223 C220 1.511 . S
C223 H237 0.961 . S
C223 H238 0.961 . S
C223 H239 0.961 . S
C224 C225 1.370 . S
C224 C226 1.363 . S
C224 H240 0.931 . S
C225 C224 1.370 . S
C225 C229 1.408 . S
C226 C224 1.363 . S
C226 C227 1.370 . S
C226 C230 1.524 . S
C227 C219 1.503 . S
C227 C226 1.370 . S
C227 C228 1.403 . S
C228 C227 1.403 . S
C228 C229 1.404 . S
C228 C231 1.539 . S
C229 C225 1.408 . S
C229 C228 1.404 . S
C229 H241 0.930 . S
C230 C226 1.524 . S
C230 H242 0.956 . S
C230 H243 0.961 . S
C230 H244 0.961 . S
C231 C228 1.539 . S
C231 H245 0.958 . S
C231 H246 0.961 . S
C231 H247 0.960 . S
H232 C216 0.931 . S
H233 C221 0.929 . S
H234 C222 0.960 . S
H235 C222 0.962 . S
H236 C222 0.960 . S
H237 C223 0.961 . S
H238 C223 0.961 . S
H239 C223 0.961 . S
H240 C224 0.931 . S
H241 C229 0.930 . S
H242 C230 0.956 . S
H243 C230 0.961 . S
H244 C230 0.961 . S
H245 C231 0.958 . S
H246 C231 0.961 . S
H247 C231 0.960 . S
C248 C249 1.391 . S
C248 C250 1.394 . S
C248 H264 0.931 . S
C249 C248 1.391 . S
C249 C253 1.376 . S
C250 C248 1.394 . S
C250 C251 1.369 1_545 S
C250 C254 1.527 1_545 S
C251 C250 1.369 1_565 S
C251 C252 1.402 1_565 S
C251 C259 1.503 . S
C252 C251 1.402 1_545 S
C252 C253 1.415 . S
C252 C255 1.497 1_545 S
C253 C249 1.376 . S
C253 C252 1.415 . S
C253 H265 0.929 . S
C254 C250 1.527 1_565 S
C254 H266 0.965 . S
C254 H267 0.975 . S
C254 H268 0.947 1_565 S
C255 C252 1.497 1_565 S
C255 H269 0.961 . S
C255 H270 0.961 . S
C255 H271 0.961 . S
C256 C257 1.370 . S
C256 C258 1.363 . S
C256 H272 0.931 . S
C257 C256 1.370 . S
C257 C261 1.408 . S
C258 C256 1.363 . S
C258 C259 1.370 . S
C258 C262 1.524 . S
C259 C251 1.503 . S
C259 C258 1.370 . S
C259 C260 1.403 . S
C260 C259 1.403 . S
C260 C261 1.404 . S
C260 C263 1.565 . S
C261 C257 1.408 . S
C261 C260 1.404 . S
C261 H273 0.930 . S
C262 C258 1.524 . S
C262 H274 0.956 . S
C262 H275 0.961 . S
C262 H276 0.961 . S
C263 C260 1.565 . S
C263 H277 0.946 1_565 S
C263 H278 0.964 . S
C263 H279 0.944 1_565 S
H264 C248 0.931 . S
H265 C253 0.929 . S
H266 C254 0.965 . S
H267 C254 0.975 . S
H268 C254 0.947 1_545 S
H269 C255 0.961 . S
H270 C255 0.961 . S
H271 C255 0.961 . S
H272 C256 0.931 . S
H273 C261 0.930 . S
H274 C262 0.956 . S
H275 C262 0.961 . S
H276 C262 0.961 . S
H277 C263 0.946 1_545 S
H278 C263 0.964 . S
H279 C263 0.944 1_545 S
C280 C281 1.391 . S
C280 C282 1.394 . S
C280 H296 0.931 . S
C281 C280 1.391 . S
C281 C285 1.376 . S
C282 C280 1.394 . S
C282 C283 1.369 . S
C282 C286 1.531 . S
C283 C282 1.369 . S
C283 C284 1.410 . S
C283 C291 1.503 . S
C284 C283 1.410 . S
C284 C285 1.392 . S
C284 C287 1.511 . S
C285 C281 1.376 . S
C285 C284 1.392 . S
C285 H297 0.929 . S
C286 C282 1.531 . S
C286 H298 0.960 . S
C286 H299 0.962 . S
C286 H300 0.960 . S
C287 C284 1.511 . S
C287 H301 0.961 . S
C287 H302 0.961 . S
C287 H303 0.961 . S
C288 C289 1.370 . S
C288 C290 1.363 . S
C288 H304 0.931 . S
C289 C288 1.370 . S
C289 C293 1.408 . S
C290 C288 1.363 . S
C290 C291 1.370 . S
C290 C294 1.524 . S
C291 C283 1.503 . S
C291 C290 1.370 . S
C291 C292 1.403 . S
C292 C291 1.403 . S
C292 C293 1.404 . S
C292 C295 1.539 . S
C293 C289 1.408 . S
C293 C292 1.404 . S
C293 H305 0.930 . S
C294 C290 1.524 . S
C294 H306 0.956 . S
C294 H307 0.961 . S
C294 H308 0.961 . S
C295 C292 1.539 . S
C295 H309 0.958 . S
C295 H310 0.961 . S
C295 H311 0.960 . S
H296 C280 0.931 . S
H297 C285 0.929 . S
H298 C286 0.960 . S
H299 C286 0.962 . S
H300 C286 0.960 . S
H301 C287 0.961 . S
H302 C287 0.961 . S
H303 C287 0.961 . S
H304 C288 0.931 . S
H305 C293 0.930 . S
H306 C294 0.956 . S
H307 C294 0.961 . S
H308 C294 0.961 . S
H309 C295 0.958 . S
H310 C295 0.961 . S
H311 C295 0.960 . S
C312 C313 1.391 . S
C312 C314 1.394 . S
C312 H328 0.931 . S
C313 C312 1.391 . S
C313 C317 1.376 . S
C314 C312 1.394 . S
C314 C315 1.369 . S
C314 C318 1.531 . S
C315 C314 1.369 . S
C315 C316 1.410 . S
C315 C323 1.503 . S
C316 C315 1.410 . S
C316 C317 1.392 . S
C316 C319 1.511 . S
C317 C313 1.376 . S
C317 C316 1.392 . S
C317 H329 0.929 . S
C318 C314 1.531 . S
C318 H330 0.960 . S
C318 H331 0.962 . S
C318 H332 0.960 . S
C319 C316 1.511 . S
C319 H333 0.961 . S
C319 H334 0.961 . S
C319 H335 0.961 . S
C320 C321 1.370 . S
C320 C322 1.363 . S
C320 H336 0.931 . S
C321 C320 1.370 . S
C321 C325 1.408 . S
C322 C320 1.363 . S
C322 C323 1.370 . S
C322 C326 1.524 . S
C323 C315 1.503 . S
C323 C322 1.370 . S
C323 C324 1.403 . S
C324 C323 1.403 . S
C324 C325 1.404 . S
C324 C327 1.539 . S
C325 C321 1.408 . S
C325 C324 1.404 . S
C325 H337 0.930 . S
C326 C322 1.524 . S
C326 H338 0.956 . S
C326 H339 0.961 . S
C326 H340 0.961 . S
C327 C324 1.539 . S
C327 H341 0.958 . S
C327 H342 0.961 . S
C327 H343 0.960 . S
H328 C312 0.931 . S
H329 C317 0.929 . S
H330 C318 0.960 . S
H331 C318 0.962 . S
H332 C318 0.960 . S
H333 C319 0.961 . S
H334 C319 0.961 . S
H335 C319 0.961 . S
H336 C320 0.931 . S
H337 C325 0.930 . S
H338 C326 0.956 . S
H339 C326 0.961 . S
H340 C326 0.961 . S
H341 C327 0.958 . S
H342 C327 0.961 . S
H343 C327 0.960 . S
C344 C345 1.391 . S
C344 C346 1.394 . S
C344 H360 0.931 . S
C345 C344 1.391 . S
C345 C349 1.376 . S
C346 C344 1.394 . S
C346 C347 1.369 . S
C346 C350 1.531 1_655 S
C347 C346 1.369 . S
C347 C348 1.410 . S
C347 C355 1.503 . S
C348 C347 1.410 . S
C348 C349 1.392 . S
C348 C351 1.511 . S
C349 C345 1.376 . S
C349 C348 1.392 . S
C349 H361 0.929 . S
C350 C346 1.531 1_455 S
C350 H362 0.960 . S
C350 H363 0.962 . S
C350 H364 0.960 . S
C351 C348 1.511 . S
C351 H365 0.961 . S
C351 H366 0.961 . S
C351 H367 0.961 . S
C352 C353 1.370 . S
C352 C354 1.363 . S
C352 H368 0.931 . S
C353 C352 1.370 . S
C353 C357 1.408 . S
C354 C352 1.363 . S
C354 C355 1.370 1_455 S
C354 C358 1.524 . S
C355 C347 1.503 . S
C355 C354 1.370 1_655 S
C355 C356 1.402 1_655 S
C356 C355 1.402 1_455 S
C356 C357 1.407 . S
C356 C359 1.537 1_455 S
C357 C353 1.408 . S
C357 C356 1.407 . S
C357 H369 0.930 . S
C358 C354 1.524 . S
C358 H370 0.956 . S
C358 H371 0.961 1_455 S
C358 H372 0.961 . S
C359 C356 1.537 1_655 S
C359 H373 0.958 . S
C359 H374 0.961 . S
C359 H375 0.960 . S
H360 C344 0.931 . S
H361 C349 0.929 . S
H362 C350 0.960 . S
H363 C350 0.962 . S
H364 C350 0.960 . S
H365 C351 0.961 . S
H366 C351 0.961 . S
H367 C351 0.961 . S
H368 C352 0.931 . S
H369 C357 0.930 . S
H370 C358 0.956 . S
H371 C358 0.961 1_655 S
H372 C358 0.961 . S
H373 C359 0.958 . S
H374 C359 0.961 . S
H375 C359 0.960 . S
C376 C377 1.391 . S
C376 C378 1.394 . S
C376 H392 0.931 . S
C377 C376 1.391 . S
C377 C381 1.376 . S
C378 C376 1.394 . S
C378 C379 1.369 . S
C378 C382 1.531 . S
C379 C378 1.369 . S
C379 C380 1.410 . S
C379 C387 1.503 . S
C380 C379 1.410 . S
C380 C381 1.392 . S
C380 C383 1.511 . S
C381 C377 1.376 . S
C381 C380 1.392 . S
C381 H393 0.929 . S
C382 C378 1.531 . S
C382 H394 0.960 . S
C382 H395 0.962 . S
C382 H396 0.960 . S
C383 C380 1.511 . S
C383 H397 0.961 . S
C383 H398 0.961 . S
C383 H399 0.961 . S
C384 C385 1.370 . S
C384 C386 1.363 . S
C384 H400 0.931 . S
C385 C384 1.370 . S
C385 C389 1.408 . S
C386 C384 1.363 . S
C386 C387 1.370 . S
C386 C390 1.524 . S
C387 C379 1.503 . S
C387 C386 1.370 . S
C387 C388 1.403 . S
C388 C387 1.403 . S
C388 C389 1.404 . S
C388 C391 1.539 . S
C389 C385 1.408 . S
C389 C388 1.404 . S
C389 H401 0.930 . S
C390 C386 1.524 . S
C390 H402 0.956 . S
C390 H403 0.961 . S
C390 H404 0.961 . S
C391 C388 1.539 . S
C391 H405 0.958 . S
C391 H406 0.961 . S
C391 H407 0.960 . S
H392 C376 0.931 . S
H393 C381 0.929 . S
H394 C382 0.960 . S
H395 C382 0.962 . S
H396 C382 0.960 . S
H397 C383 0.961 . S
H398 C383 0.961 . S
H399 C383 0.961 . S
H400 C384 0.931 . S
H401 C389 0.930 . S
H402 C390 0.956 . S
H403 C390 0.961 . S
H404 C390 0.961 . S
H405 C391 0.958 . S
H406 C391 0.961 . S
H407 C391 0.960 . S
C408 C409 1.391 . S
C408 C410 1.394 1_455 S
C408 H424 0.931 . S
C409 C408 1.391 . S
C409 C413 1.376 . S
C410 C408 1.394 1_655 S
C410 C411 1.369 . S
C410 C414 1.531 . S
C411 C410 1.369 . S
C411 C412 1.410 . S
C411 C419 1.503 . S
C412 C411 1.410 . S
C412 C413 1.392 1_655 S
C412 C415 1.511 . S
C413 C409 1.376 . S
C413 C412 1.392 1_455 S
C413 H425 0.929 . S
C414 C410 1.531 . S
C414 H426 0.960 . S
C414 H427 0.962 . S
C414 H428 0.960 1_655 S
C415 C412 1.511 . S
C415 H429 0.961 1_556 S
C415 H430 0.961 . S
C415 H431 0.961 1_556 S
C416 C417 1.370 . S
C416 C418 1.363 . S
C416 H432 0.931 . S
C417 C416 1.370 . S
C417 C421 1.408 . S
C418 C416 1.363 . S
C418 C419 1.370 . S
C418 C422 1.524 . S
C419 C411 1.503 . S
C419 C418 1.370 . S
C419 C420 1.403 . S
C420 C419 1.403 . S
C420 C421 1.404 . S
C420 C423 1.539 . S
C421 C417 1.408 . S
C421 C420 1.404 . S
C421 H433 0.930 . S
C422 C418 1.524 . S
C422 H434 0.956 . S
C422 H435 0.961 . S
C422 H436 0.961 . S
C423 C420 1.539 . S
C423 H437 0.958 . S
C423 H438 0.961 . S
C423 H439 0.960 . S
H424 C408 0.931 . S
H425 C413 0.929 . S
H426 C414 0.960 . S
H427 C414 0.962 . S
H428 C414 0.960 1_455 S
H429 C415 0.961 1_554 S
H430 C415 0.961 . S
H431 C415 0.961 1_554 S
H432 C416 0.931 . S
H433 C421 0.930 . S
H434 C422 0.956 . S
H435 C422 0.961 . S
H436 C422 0.961 . S
H437 C423 0.958 . S
H438 C423 0.961 . S
H439 C423 0.960 . S
C440 C441 1.391 . S
C440 C442 1.394 . S
C440 H456 0.931 . S
C441 C440 1.391 . S
C441 C445 1.376 . S
C442 C440 1.394 . S
C442 C443 1.369 1_545 S
C442 C446 1.531 . S
C443 C442 1.369 1_565 S
C443 C444 1.410 . S
C443 C451 1.503 . S
C444 C443 1.410 . S
C444 C445 1.392 1_565 S
C444 C447 1.511 . S
C445 C441 1.376 . S
C445 C444 1.392 1_545 S
C445 H457 0.929 . S
C446 C442 1.531 . S
C446 H458 0.960 1_545 S
C446 H459 0.962 1_545 S
C446 H460 0.960 . S
C447 C444 1.511 . S
C447 H461 0.961 . S
C447 H462 0.961 . S
C447 H463 0.961 . S
C448 C449 1.370 . S
C448 C450 1.363 . S
C448 H464 0.931 . S
C449 C448 1.370 . S
C449 C453 1.408 . S
C450 C448 1.363 . S
C450 C451 1.370 . S
C450 C454 1.524 . S
C451 C443 1.503 . S
C451 C450 1.370 . S
C451 C452 1.403 . S
C452 C451 1.403 . S
C452 C453 1.404 . S
C452 C455 1.539 . S
C453 C449 1.408 . S
C453 C452 1.404 . S
C453 H465 0.930 . S
C454 C450 1.524 . S
C454 H466 0.956 . S
C454 H467 0.961 1_556 S
C454 H468 0.950 1_556 S
C455 C452 1.539 . S
C455 H469 0.958 . S
C455 H470 0.961 . S
C455 H471 0.960 . S
H456 C440 0.931 . S
H457 C445 0.929 . S
H458 C446 0.960 1_565 S
H459 C446 0.962 1_565 S
H460 C446 0.960 . S
H461 C447 0.961 . S
H462 C447 0.961 . S
H463 C447 0.961 . S
H464 C448 0.931 . S
H465 C453 0.930 . S
H466 C454 0.956 . S
H467 C454 0.961 1_554 S
H468 C454 0.950 1_554 S
H469 C455 0.958 . S
H470 C455 0.961 . S
H471 C455 0.960 . S
C472 C473 1.391 . S
C472 C474 1.394 . S
C472 H488 0.931 . S
C473 C472 1.391 . S
C473 C477 1.376 . S
C474 C472 1.394 . S
C474 C475 1.369 . S
C474 C478 1.531 . S
C475 C474 1.369 . S
C475 C476 1.410 . S
C475 C483 1.503 . S
C476 C475 1.410 . S
C476 C477 1.392 . S
C476 C479 1.511 . S
C477 C473 1.376 . S
C477 C476 1.392 . S
C477 H489 0.929 . S
C478 C474 1.531 . S
C478 H490 0.960 . S
C478 H491 0.962 . S
C478 H492 0.960 . S
C479 C476 1.511 . S
C479 H493 0.961 . S
C479 H494 0.961 . S
C479 H495 0.961 . S
C480 C481 1.370 . S
C480 C482 1.363 . S
C480 H496 0.931 . S
C481 C480 1.370 . S
C481 C485 1.408 . S
C482 C480 1.363 . S
C482 C483 1.370 . S
C482 C486 1.524 . S
C483 C475 1.503 . S
C483 C482 1.370 . S
C483 C484 1.403 . S
C484 C483 1.403 . S
C484 C485 1.404 . S
C484 C487 1.539 . S
C485 C481 1.408 . S
C485 C484 1.404 . S
C485 H497 0.930 . S
C486 C482 1.524 . S
C486 H498 0.956 . S
C486 H499 0.961 . S
C486 H500 0.961 . S
C487 C484 1.539 . S
C487 H501 0.958 . S
C487 H502 0.961 . S
C487 H503 0.960 . S
H488 C472 0.931 . S
H489 C477 0.929 . S
H490 C478 0.960 . S
H491 C478 0.962 . S
H492 C478 0.960 . S
H493 C479 0.961 . S
H494 C479 0.961 . S
H495 C479 0.961 . S
H496 C480 0.931 . S
H497 C485 0.930 . S
H498 C486 0.956 . S
H499 C486 0.961 . S
H500 C486 0.961 . S
H501 C487 0.958 . S
H502 C487 0.961 . S
H503 C487 0.960 . S
C504 C505 1.391 . S
C504 C506 1.394 . S
C504 H520 0.931 . S
C505 C504 1.391 . S
C505 C509 1.376 . S
C506 C504 1.394 . S
C506 C507 1.369 1_565 S
C506 C510 1.531 . S
C507 C506 1.369 1_545 S
C507 C508 1.410 . S
C507 C515 1.503 . S
C508 C507 1.410 . S
C508 C509 1.392 1_545 S
C508 C511 1.511 . S
C509 C505 1.376 . S
C509 C508 1.392 1_565 S
C509 H521 0.929 . S
C510 C506 1.531 . S
C510 H522 0.960 . S
C510 H523 0.962 . S
C510 H524 0.960 . S
C511 C508 1.511 . S
C511 H525 0.961 . S
C511 H526 0.961 . S
C511 H527 0.961 . S
C512 C513 1.370 . S
C512 C514 1.363 . S
C512 H528 0.931 . S
C513 C512 1.370 . S
C513 C517 1.408 . S
C514 C512 1.363 . S
C514 C515 1.370 . S
C514 C518 1.524 . S
C515 C507 1.503 . S
C515 C514 1.370 . S
C515 C516 1.403 . S
C516 C515 1.403 . S
C516 C517 1.404 . S
C516 C519 1.539 . S
C517 C513 1.408 . S
C517 C516 1.404 . S
C517 H529 0.930 . S
C518 C514 1.524 . S
C518 H530 0.956 . S
C518 H531 0.961 . S
C518 H532 0.961 . S
C519 C516 1.539 . S
C519 H533 0.958 . S
C519 H534 0.961 . S
C519 H535 0.960 . S
H520 C504 0.931 . S
H521 C509 0.929 . S
H522 C510 0.960 . S
H523 C510 0.962 . S
H524 C510 0.960 . S
H525 C511 0.961 . S
H526 C511 0.961 . S
H527 C511 0.961 . S
H528 C512 0.931 . S
H529 C517 0.930 . S
H530 C518 0.956 . S
H531 C518 0.961 . S
H532 C518 0.961 . S
H533 C519 0.958 . S
H534 C519 0.961 . S
H535 C519 0.960 . S
C536 C537 1.391 . S
C536 C538 1.394 . S
C536 H552 0.931 . S
C537 C536 1.391 . S
C537 C541 1.376 . S
C538 C536 1.394 . S
C538 C539 1.369 . S
C538 C542 1.531 . S
C539 C538 1.369 . S
C539 C540 1.410 . S
C539 C547 1.503 . S
C540 C539 1.410 . S
C540 C541 1.392 . S
C540 C543 1.511 . S
C541 C537 1.376 . S
C541 C540 1.392 . S
C541 H553 0.929 . S
C542 C538 1.531 . S
C542 H554 0.960 . S
C542 H555 0.962 . S
C542 H556 0.960 . S
C543 C540 1.511 . S
C543 H557 0.961 . S
C543 H558 0.961 . S
C543 H559 0.961 . S
C544 C545 1.370 . S
C544 C546 1.363 . S
C544 H560 0.931 . S
C545 C544 1.370 . S
C545 C549 1.408 . S
C546 C544 1.363 . S
C546 C547 1.370 . S
C546 C550 1.524 . S
C547 C539 1.503 . S
C547 C546 1.370 . S
C547 C548 1.403 . S
C548 C547 1.403 . S
C548 C549 1.404 . S
C548 C551 1.539 . S
C549 C545 1.408 . S
C549 C548 1.404 . S
C549 H561 0.930 . S
C550 C546 1.524 . S
C550 H562 0.956 . S
C550 H563 0.961 . S
C550 H564 0.961 . S
C551 C548 1.539 . S
C551 H565 0.958 . S
C551 H566 0.961 . S
C551 H567 0.960 . S
H552 C536 0.931 . S
H553 C541 0.929 . S
H554 C542 0.960 . S
H555 C542 0.962 . S
H556 C542 0.960 . S
H557 C543 0.961 . S
H558 C543 0.961 . S
H559 C543 0.961 . S
H560 C544 0.931 . S
H561 C549 0.930 . S
H562 C550 0.956 . S
H563 C550 0.961 . S
H564 C550 0.961 . S
H565 C551 0.958 . S
H566 C551 0.961 . S
H567 C551 0.960 . S
C568 C569 1.391 . S
C568 C570 1.394 . S
C568 H584 0.931 . S
C569 C568 1.391 . S
C569 C573 1.376 . S
C570 C568 1.394 . S
C570 C571 1.369 . S
C570 C574 1.531 . S
C571 C570 1.369 . S
C571 C572 1.410 . S
C571 C579 1.503 . S
C572 C571 1.410 . S
C572 C573 1.392 . S
C572 C575 1.511 . S
C573 C569 1.376 . S
C573 C572 1.392 . S
C573 H585 0.929 . S
C574 C570 1.531 . S
C574 H586 0.960 . S
C574 H587 0.962 . S
C574 H588 0.960 . S
C575 C572 1.511 . S
C575 H589 0.961 . S
C575 H590 0.961 . S
C575 H591 0.961 . S
C576 C577 1.370 . S
C576 C578 1.363 . S
C576 H592 0.931 . S
C577 C576 1.370 . S
C577 C581 1.408 . S
C578 C576 1.363 . S
C578 C579 1.370 . S
C578 C582 1.524 . S
C579 C571 1.503 . S
C579 C578 1.370 . S
C579 C580 1.403 . S
C580 C579 1.403 . S
C580 C581 1.404 . S
C580 C583 1.539 . S
C581 C577 1.408 . S
C581 C580 1.404 . S
C581 H593 0.930 . S
C582 C578 1.524 . S
C582 H594 0.956 . S
C582 H595 0.961 . S
C582 H596 0.961 . S
C583 C580 1.539 . S
C583 H597 0.958 . S
C583 H598 0.961 . S
C583 H599 0.960 . S
H584 C568 0.931 . S
H585 C573 0.929 . S
H586 C574 0.960 . S
H587 C574 0.962 . S
H588 C574 0.960 . S
H589 C575 0.961 . S
H590 C575 0.961 . S
H591 C575 0.961 . S
H592 C576 0.931 . S
H593 C581 0.930 . S
H594 C582 0.956 . S
H595 C582 0.961 . S
H596 C582 0.961 . S
H597 C583 0.958 . S
H598 C583 0.961 . S
H599 C583 0.960 . S
C600 C601 1.391 . S
C600 C602 1.394 . S
C600 H616 0.931 . S
C601 C600 1.391 . S
C601 C605 1.376 . S
C602 C600 1.394 . S
C602 C603 1.369 . S
C602 C606 1.531 1_455 S
C603 C602 1.369 . S
C603 C604 1.410 . S
C603 C611 1.503 . S
C604 C603 1.410 . S
C604 C605 1.392 . S
C604 C607 1.511 . S
C605 C601 1.376 . S
C605 C604 1.392 . S
C605 H617 0.929 . S
C606 C602 1.531 1_655 S
C606 H618 0.960 . S
C606 H619 0.962 . S
C606 H620 0.960 . S
C607 C604 1.511 . S
C607 H621 0.961 . S
C607 H622 0.961 . S
C607 H623 0.961 . S
C608 C609 1.370 . S
C608 C610 1.363 . S
C608 H624 0.931 . S
C609 C608 1.370 . S
C609 C613 1.408 . S
C610 C608 1.363 . S
C610 C611 1.370 1_655 S
C610 C614 1.524 . S
C611 C603 1.503 . S
C611 C610 1.370 1_455 S
C611 C612 1.403 1_455 S
C612 C611 1.403 1_655 S
C612 C613 1.404 . S
C612 C615 1.539 1_655 S
C613 C609 1.408 . S
C613 C612 1.404 . S
C613 H625 0.930 . S
C614 C610 1.524 . S
C614 H626 0.956 . S
C614 H627 0.961 1_655 S
C614 H628 0.961 . S
C615 C612 1.539 1_455 S
C615 H629 0.958 . S
C615 H630 0.961 . S
C615 H631 0.960 . S
H616 C600 0.931 . S
H617 C605 0.929 . S
H618 C606 0.960 . S
H619 C606 0.962 . S
H620 C606 0.960 . S
H621 C607 0.961 . S
H622 C607 0.961 . S
H623 C607 0.961 . S
H624 C608 0.931 . S
H625 C613 0.930 . S
H626 C614 0.956 . S
H627 C614 0.961 1_455 S
H628 C614 0.961 . S
H629 C615 0.958 . S
H630 C615 0.961 . S
H631 C615 0.960 . S
C632 C633 1.391 . S
C632 C634 1.394 . S
C632 H648 0.931 . S
C633 C632 1.391 . S
C633 C637 1.376 . S
C634 C632 1.394 . S
C634 C635 1.369 . S
C634 C638 1.531 . S
C635 C634 1.369 . S
C635 C636 1.410 . S
C635 C643 1.503 . S
C636 C635 1.410 . S
C636 C637 1.392 . S
C636 C639 1.511 . S
C637 C633 1.376 . S
C637 C636 1.392 . S
C637 H649 0.929 . S
C638 C634 1.531 . S
C638 H650 0.960 . S
C638 H651 0.962 . S
C638 H652 0.960 . S
C639 C636 1.511 . S
C639 H653 0.961 . S
C639 H654 0.961 . S
C639 H655 0.961 . S
C640 C641 1.370 . S
C640 C642 1.363 . S
C640 H656 0.931 . S
C641 C640 1.370 . S
C641 C645 1.408 . S
C642 C640 1.363 . S
C642 C643 1.370 . S
C642 C646 1.524 . S
C643 C635 1.503 . S
C643 C642 1.370 . S
C643 C644 1.403 . S
C644 C643 1.403 . S
C644 C645 1.404 . S
C644 C647 1.539 . S
C645 C641 1.408 . S
C645 C644 1.404 . S
C645 H657 0.930 . S
C646 C642 1.524 . S
C646 H658 0.956 . S
C646 H659 0.961 . S
C646 H660 0.961 . S
C647 C644 1.539 . S
C647 H661 0.958 . S
C647 H662 0.961 . S
C647 H663 0.960 . S
H648 C632 0.931 . S
H649 C637 0.929 . S
H650 C638 0.960 . S
H651 C638 0.962 . S
H652 C638 0.960 . S
H653 C639 0.961 . S
H654 C639 0.961 . S
H655 C639 0.961 . S
H656 C640 0.931 . S
H657 C645 0.930 . S
H658 C646 0.956 . S
H659 C646 0.961 . S
H660 C646 0.961 . S
H661 C647 0.958 . S
H662 C647 0.961 . S
H663 C647 0.960 . S
C664 C665 1.391 . S
C664 C666 1.394 1_655 S
C664 H680 0.931 . S
C665 C664 1.391 . S
C665 C669 1.376 . S
C666 C664 1.394 1_455 S
C666 C667 1.369 . S
C666 C670 1.531 . S
C667 C666 1.369 . S
C667 C668 1.390 1_455 S
C667 C675 1.503 . S
C668 C667 1.390 1_655 S
C668 C669 1.416 . S
C668 C671 1.508 1_655 S
C669 C665 1.376 . S
C669 C668 1.416 . S
C669 H681 0.929 . S
C670 C666 1.531 . S
C670 H682 0.960 . S
C670 H683 0.962 . S
C670 H684 0.960 . S
C671 C668 1.508 1_455 S
C671 H685 0.961 1_455 S
C671 H686 0.961 . S
C671 H687 0.961 . S
C672 C673 1.370 . S
C672 C674 1.363 . S
C672 H688 0.931 . S
C673 C672 1.370 . S
C673 C677 1.408 . S
C674 C672 1.363 . S
C674 C675 1.370 . S
C674 C678 1.524 . S
C675 C667 1.503 . S
C675 C674 1.370 . S
C675 C676 1.403 . S
C676 C675 1.403 . S
C676 C677 1.404 . S
C676 C679 1.539 . S
C677 C673 1.408 . S
C677 C676 1.404 . S
C677 H689 0.930 . S
C678 C674 1.524 . S
C678 H690 0.956 . S
C678 H691 0.961 . S
C678 H692 0.961 . S
C679 C676 1.539 . S
C679 H693 0.958 . S
C679 H694 0.961 . S
C679 H695 0.960 . S
H680 C664 0.931 . S
H681 C669 0.929 . S
H682 C670 0.960 . S
H683 C670 0.962 . S
H684 C670 0.960 . S
H685 C671 0.961 1_655 S
H686 C671 0.961 . S
H687 C671 0.961 . S
H688 C672 0.931 . S
H689 C677 0.930 . S
H690 C678 0.956 . S
H691 C678 0.961 . S
H692 C678 0.961 . S
H693 C679 0.958 . S
H694 C679 0.961 . S
H695 C679 0.960 . S
C696 C697 1.391 . S
C696 C698 1.394 . S
C696 H712 0.931 . S
C697 C696 1.391 . S
C697 C701 1.376 . S
C698 C696 1.394 . S
C698 C699 1.369 . S
C698 C702 1.531 . S
C699 C698 1.369 . S
C699 C700 1.410 . S
C699 C707 1.503 . S
C700 C699 1.410 . S
C700 C701 1.392 . S
C700 C703 1.511 . S
C701 C697 1.376 . S
C701 C700 1.392 . S
C701 H713 0.929 . S
C702 C698 1.531 . S
C702 H714 0.960 . S
C702 H715 0.962 . S
C702 H716 0.960 . S
C703 C700 1.511 . S
C703 H717 0.961 . S
C703 H718 0.961 . S
C703 H719 0.961 . S
C704 C705 1.370 . S
C704 C706 1.363 . S
C704 H720 0.931 . S
C705 C704 1.370 . S
C705 C709 1.408 . S
C706 C704 1.363 . S
C706 C707 1.370 . S
C706 C710 1.524 . S
C707 C699 1.503 . S
C707 C706 1.370 . S
C707 C708 1.403 . S
C708 C707 1.403 . S
C708 C709 1.404 . S
C708 C711 1.539 . S
C709 C705 1.408 . S
C709 C708 1.404 . S
C709 H721 0.930 . S
C710 C706 1.524 . S
C710 H722 0.956 . S
C710 H723 0.961 . S
C710 H724 0.961 . S
C711 C708 1.539 . S
C711 H725 0.958 . S
C711 H726 0.961 . S
C711 H727 0.960 . S
H712 C696 0.931 . S
H713 C701 0.929 . S
H714 C702 0.960 . S
H715 C702 0.962 . S
H716 C702 0.960 . S
H717 C703 0.961 . S
H718 C703 0.961 . S
H719 C703 0.961 . S
H720 C704 0.931 . S
H721 C709 0.930 . S
H722 C710 0.956 . S
H723 C710 0.961 . S
H724 C710 0.961 . S
H725 C711 0.958 . S
H726 C711 0.961 . S
H727 C711 0.960 . S
C728 C729 1.391 . S
C728 C730 1.394 . S
C728 H744 0.931 . S
C729 C728 1.391 . S
C729 C733 1.376 . S
C730 C728 1.394 . S
C730 C731 1.369 . S
C730 C734 1.531 . S
C731 C730 1.369 . S
C731 C732 1.410 . S
C731 C739 1.503 . S
C732 C731 1.410 . S
C732 C733 1.392 . S
C732 C735 1.511 . S
C733 C729 1.376 . S
C733 C732 1.392 . S
C733 H745 0.929 . S
C734 C730 1.531 . S
C734 H746 0.960 . S
C734 H747 0.962 . S
C734 H748 0.960 . S
C735 C732 1.511 . S
C735 H749 0.961 . S
C735 H750 0.961 . S
C735 H751 0.961 . S
C736 C737 1.370 . S
C736 C738 1.363 . S
C736 H752 0.931 . S
C737 C736 1.370 . S
C737 C741 1.408 . S
C738 C736 1.363 . S
C738 C739 1.370 . S
C738 C742 1.524 . S
C739 C731 1.503 . S
C739 C738 1.370 . S
C739 C740 1.403 . S
C740 C739 1.403 . S
C740 C741 1.404 . S
C740 C743 1.539 . S
C741 C737 1.408 . S
C741 C740 1.404 . S
C741 H753 0.930 . S
C742 C738 1.524 . S
C742 H754 0.956 . S
C742 H755 0.961 . S
C742 H756 0.961 . S
C743 C740 1.539 . S
C743 H757 0.958 . S
C743 H758 0.961 . S
C743 H759 0.960 . S
H744 C728 0.931 . S
H745 C733 0.929 . S
H746 C734 0.960 . S
H747 C734 0.962 . S
H748 C734 0.960 . S
H749 C735 0.961 . S
H750 C735 0.961 . S
H751 C735 0.961 . S
H752 C736 0.931 . S
H753 C741 0.930 . S
H754 C742 0.956 . S
H755 C742 0.961 . S
H756 C742 0.961 . S
H757 C743 0.958 . S
H758 C743 0.961 . S
H759 C743 0.960 . S
C760 C761 1.391 . S
C760 C762 1.394 . S
C760 H776 0.931 . S
C761 C760 1.391 . S
C761 C765 1.376 . S
C762 C760 1.394 . S
C762 C763 1.369 . S
C762 C766 1.531 . S
C763 C762 1.369 . S
C763 C764 1.410 . S
C763 C771 1.503 . S
C764 C763 1.410 . S
C764 C765 1.392 . S
C764 C767 1.511 . S
C765 C761 1.376 . S
C765 C764 1.392 . S
C765 H777 0.929 . S
C766 C762 1.531 . S
C766 H778 0.960 . S
C766 H779 0.962 . S
C766 H780 0.960 . S
C767 C764 1.511 . S
C767 H781 0.961 . S
C767 H782 0.961 . S
C767 H783 0.961 . S
C768 C769 1.370 . S
C768 C770 1.363 . S
C768 H784 0.931 . S
C769 C768 1.370 . S
C769 C773 1.408 . S
C770 C768 1.363 . S
C770 C771 1.370 . S
C770 C774 1.524 . S
C771 C763 1.503 . S
C771 C770 1.370 . S
C771 C772 1.403 . S
C772 C771 1.403 . S
C772 C773 1.404 . S
C772 C775 1.539 . S
C773 C769 1.408 . S
C773 C772 1.404 . S
C773 H785 0.930 . S
C774 C770 1.524 . S
C774 H786 0.956 . S
C774 H787 0.961 . S
C774 H788 0.961 . S
C775 C772 1.539 . S
C775 H789 0.958 . S
C775 H790 0.961 . S
C775 H791 0.960 . S
H776 C760 0.931 . S
H777 C765 0.929 . S
H778 C766 0.960 . S
H779 C766 0.962 . S
H780 C766 0.960 . S
H781 C767 0.961 . S
H782 C767 0.961 . S
H783 C767 0.961 . S
H784 C768 0.931 . S
H785 C773 0.930 . S
H786 C774 0.956 . S
H787 C774 0.961 . S
H788 C774 0.961 . S
H789 C775 0.958 . S
H790 C775 0.961 . S
H791 C775 0.960 . S
C792 C793 1.391 . S
C792 C794 1.394 . S
C792 H808 0.931 . S
C793 C792 1.391 . S
C793 C797 1.376 . S
C794 C792 1.394 . S
C794 C795 1.369 . S
C794 C798 1.531 . S
C795 C794 1.369 . S
C795 C796 1.410 . S
C795 C803 1.503 . S
C796 C795 1.410 . S
C796 C797 1.392 . S
C796 C799 1.511 . S
C797 C793 1.376 . S
C797 C796 1.392 . S
C797 H809 0.929 . S
C798 C794 1.531 . S
C798 H810 0.960 . S
C798 H811 0.962 . S
C798 H812 0.960 . S
C799 C796 1.511 . S
C799 H813 0.961 . S
C799 H814 0.961 . S
C799 H815 0.961 . S
C800 C801 1.370 . S
C800 C802 1.363 . S
C800 H816 0.931 . S
C801 C800 1.370 . S
C801 C805 1.408 . S
C802 C800 1.363 . S
C802 C803 1.370 . S
C802 C806 1.524 . S
C803 C795 1.503 . S
C803 C802 1.370 . S
C803 C804 1.403 . S
C804 C803 1.403 . S
C804 C805 1.404 . S
C804 C807 1.539 . S
C805 C801 1.408 . S
C805 C804 1.404 . S
C805 H817 0.930 . S
C806 C802 1.524 . S
C806 H818 0.956 . S
C806 H819 0.961 . S
C806 H820 0.961 . S
C807 C804 1.539 . S
C807 H821 0.958 . S
C807 H822 0.961 . S
C807 H823 0.960 . S
H808 C792 0.931 . S
H809 C797 0.929 . S
H810 C798 0.960 . S
H811 C798 0.962 . S
H812 C798 0.960 . S
H813 C799 0.961 . S
H814 C799 0.961 . S
H815 C799 0.961 . S
H816 C800 0.931 . S
H817 C805 0.930 . S
H818 C806 0.956 . S
H819 C806 0.961 . S
H820 C806 0.961 . S
H821 C807 0.958 . S
H822 C807 0.961 . S
H823 C807 0.960 . S
C824 C825 1.391 . S
C824 C826 1.394 . S
C824 H840 0.931 . S
C825 C824 1.391 . S
C825 C829 1.376 . S
C826 C824 1.394 . S
C826 C827 1.369 . S
C826 C830 1.531 . S
C827 C826 1.369 . S
C827 C828 1.410 . S
C827 C835 1.503 . S
C828 C827 1.410 . S
C828 C829 1.392 . S
C828 C831 1.511 . S
C829 C825 1.376 . S
C829 C828 1.392 . S
C829 H841 0.929 . S
C830 C826 1.531 . S
C830 H842 0.960 . S
C830 H843 0.962 . S
C830 H844 0.960 . S
C831 C828 1.511 . S
C831 H845 0.961 . S
C831 H846 0.961 . S
C831 H847 0.961 . S
C832 C833 1.370 . S
C832 C834 1.363 . S
C832 H848 0.931 . S
C833 C832 1.370 . S
C833 C837 1.408 . S
C834 C832 1.363 . S
C834 C835 1.370 . S
C834 C838 1.524 . S
C835 C827 1.503 . S
C835 C834 1.370 . S
C835 C836 1.403 . S
C836 C835 1.403 . S
C836 C837 1.404 . S
C836 C839 1.539 . S
C837 C833 1.408 . S
C837 C836 1.404 . S
C837 H849 0.930 . S
C838 C834 1.524 . S
C838 H850 0.956 . S
C838 H851 0.961 . S
C838 H852 0.961 . S
C839 C836 1.539 . S
C839 H853 0.958 . S
C839 H854 0.961 . S
C839 H855 0.960 . S
H840 C824 0.931 . S
H841 C829 0.929 . S
H842 C830 0.960 . S
H843 C830 0.962 . S
H844 C830 0.960 . S
H845 C831 0.961 . S
H846 C831 0.961 . S
H847 C831 0.961 . S
H848 C832 0.931 . S
H849 C837 0.930 . S
H850 C838 0.956 . S
H851 C838 0.961 . S
H852 C838 0.961 . S
H853 C839 0.958 . S
H854 C839 0.961 . S
H855 C839 0.960 . S
C856 C857 1.391 . S
C856 C858 1.394 . S
C856 H872 0.931 . S
C857 C856 1.391 . S
C857 C861 1.376 . S
C858 C856 1.394 . S
C858 C859 1.369 . S
C858 C862 1.531 . S
C859 C858 1.369 . S
C859 C860 1.410 . S
C859 C867 1.503 . S
C860 C859 1.410 . S
C860 C861 1.392 . S
C860 C863 1.511 . S
C861 C857 1.376 . S
C861 C860 1.392 . S
C861 H873 0.929 . S
C862 C858 1.531 . S
C862 H874 0.960 . S
C862 H875 0.962 . S
C862 H876 0.960 . S
C863 C860 1.511 . S
C863 H877 0.961 . S
C863 H878 0.961 . S
C863 H879 0.961 . S
C864 C865 1.370 . S
C864 C866 1.363 . S
C864 H880 0.931 . S
C865 C864 1.370 . S
C865 C869 1.408 . S
C866 C864 1.363 . S
C866 C867 1.370 . S
C866 C870 1.524 . S
C867 C859 1.503 . S
C867 C866 1.370 . S
C867 C868 1.403 . S
C868 C867 1.403 . S
C868 C869 1.404 . S
C868 C871 1.539 . S
C869 C865 1.408 . S
C869 C868 1.404 . S
C869 H881 0.930 . S
C870 C866 1.524 . S
C870 H882 0.956 . S
C870 H883 0.961 . S
C870 H884 0.961 . S
C871 C868 1.539 . S
C871 H885 0.958 . S
C871 H886 0.961 . S
C871 H887 0.960 . S
H872 C856 0.931 . S
H873 C861 0.929 . S
H874 C862 0.960 . S
H875 C862 0.962 . S
H876 C862 0.960 . S
H877 C863 0.961 . S
H878 C863 0.961 . S
H879 C863 0.961 . S
H880 C864 0.931 . S
H881 C869 0.930 . S
H882 C870 0.956 . S
H883 C870 0.961 . S
H884 C870 0.961 . S
H885 C871 0.958 . S
H886 C871 0.961 . S
H887 C871 0.960 . S
C888 C889 1.391 . S
C888 C890 1.394 . S
C888 H904 0.931 . S
C889 C888 1.391 . S
C889 C893 1.376 . S
C890 C888 1.394 . S
C890 C891 1.369 . S
C890 C894 1.531 . S
C891 C890 1.369 . S
C891 C892 1.410 . S
C891 C899 1.503 . S
C892 C891 1.410 . S
C892 C893 1.392 . S
C892 C895 1.511 . S
C893 C889 1.376 . S
C893 C892 1.392 . S
C893 H905 0.929 . S
C894 C890 1.531 . S
C894 H906 0.960 . S
C894 H907 0.962 . S
C894 H908 0.960 . S
C895 C892 1.511 . S
C895 H909 0.961 . S
C895 H910 0.961 . S
C895 H911 0.961 . S
C896 C897 1.370 . S
C896 C898 1.363 . S
C896 H912 0.931 . S
C897 C896 1.370 . S
C897 C901 1.408 . S
C898 C896 1.363 . S
C898 C899 1.370 . S
C898 C902 1.524 . S
C899 C891 1.503 . S
C899 C898 1.370 . S
C899 C900 1.403 . S
C900 C899 1.403 . S
C900 C901 1.404 . S
C900 C903 1.539 . S
C901 C897 1.408 . S
C901 C900 1.404 . S
C901 H913 0.930 . S
C902 C898 1.524 . S
C902 H914 0.956 . S
C902 H915 0.961 . S
C902 H916 0.961 . S
C903 C900 1.539 . S
C903 H917 0.958 . S
C903 H918 0.961 . S
C903 H919 0.960 . S
H904 C888 0.931 . S
H905 C893 0.929 . S
H906 C894 0.960 . S
H907 C894 0.962 . S
H908 C894 0.960 . S
H909 C895 0.961 . S
H910 C895 0.961 . S
H911 C895 0.961 . S
H912 C896 0.931 . S
H913 C901 0.930 . S
H914 C902 0.956 . S
H915 C902 0.961 . S
H916 C902 0.961 . S
H917 C903 0.958 . S
H918 C903 0.961 . S
H919 C903 0.960 . S
C920 C921 1.391 . S
C920 C922 1.394 . S
C920 H936 0.931 . S
C921 C920 1.391 . S
C921 C925 1.376 . S
C922 C920 1.394 . S
C922 C923 1.369 . S
C922 C926 1.531 . S
C923 C922 1.369 . S
C923 C924 1.410 . S
C923 C931 1.503 . S
C924 C923 1.410 . S
C924 C925 1.392 . S
C924 C927 1.511 . S
C925 C921 1.376 . S
C925 C924 1.392 . S
C925 H937 0.929 . S
C926 C922 1.531 . S
C926 H938 0.960 . S
C926 H939 0.962 . S
C926 H940 0.960 . S
C927 C924 1.511 . S
C927 H941 0.961 . S
C927 H942 0.961 . S
C927 H943 0.961 . S
C928 C929 1.370 . S
C928 C930 1.363 . S
C928 H944 0.931 . S
C929 C928 1.370 . S
C929 C933 1.408 . S
C930 C928 1.363 . S
C930 C931 1.370 . S
C930 C934 1.524 . S
C931 C923 1.503 . S
C931 C930 1.370 . S
C931 C932 1.403 . S
C932 C931 1.403 . S
C932 C933 1.404 . S
C932 C935 1.539 . S
C933 C929 1.408 . S
C933 C932 1.404 . S
C933 H945 0.930 . S
C934 C930 1.524 . S
C934 H946 0.956 . S
C934 H947 0.961 . S
C934 H948 0.961 . S
C935 C932 1.539 . S
C935 H949 0.958 . S
C935 H950 0.961 . S
C935 H951 0.960 . S
H936 C920 0.931 . S
H937 C925 0.929 . S
H938 C926 0.960 . S
H939 C926 0.962 . S
H940 C926 0.960 . S
H941 C927 0.961 . S
H942 C927 0.961 . S
H943 C927 0.961 . S
H944 C928 0.931 . S
H945 C933 0.930 . S
H946 C934 0.956 . S
H947 C934 0.961 . S
H948 C934 0.961 . S
H949 C935 0.958 . S
H950 C935 0.961 . S
H951 C935 0.960 . S
C185 C7 1.405 . S
C193 C97 1.351 . S
C217 C37 1.410 . S
C225 C109 1.402 . S
C249 C54 1.363 . S
C257 C121 1.327 . S
C289 C130 1.284 . S
C281 C87 1.312 . S
C321 C145 1.306 . S
C313 C30 1.373 . S
C345 C51 1.310 . S
C353 C154 1.270 . S
C377 C84 1.356 . S
C385 C169 1.313 . S
C409 C10 1.428 . S
C417 C181 1.399 . S
C441 C59 1.317 1_556 S
C449 C178 1.282 . S
C481 C142 1.273 . S
C473 C74 1.286 . S
C513 C157 1.322 . S
C505 C18 1.350 . S
C537 C32 1.290 . S
C545 C166 1.246 . S
C577 C106 1.247 . S
C569 C73 1.237 . S
C601 C15 1.325 . S
C609 C118 1.286 . S
C641 C133 1.356 . S
C633 C43 1.367 . S
C673 C94 1.265 . S
C665 C62 1.264 . S
C705 C164 1.369 . S
C697 C21 1.356 . S
C737 C176 1.403 . S
C729 C29 1.420 . S
C761 C52 1.374 . S
C769 C140 1.374 . S
C801 C152 1.367 . S
C793 C81 1.373 . S
C833 C116 1.379 . S
C825 C40 1.383 . S
C857 C65 1.384 . S
C865 C128 1.371 . S
C897 C92 1.381 . S
C889 C76 1.384 . S
C929 C104 1.372 . S
C921 C8 1.395 . S
