# Generated by pormake.
# Topology sit, (3,6)-cn, num edge types: 1
# Building blocks:
#     Node 0, Type 0, BuildingBlock: VETTIZ_charged_linker_0, # of connection points: 3
#     Node 1, Type 0, BuildingBlock: VETTIZ_charged_linker_0, # of connection points: 3
#     Node 2, Type 0, BuildingBlock: VETTIZ_charged_linker_0, # of connection points: 3
#     Node 3, Type 0, BuildingBlock: VETTIZ_charged_linker_0, # of connection points: 3
#     Node 4, Type 1, BuildingBlock: MIDCAF_clean_sbu_0, # of connection points: 6
#     Node 5, Type 1, BuildingBlock: MIDCAF_clean_sbu_0, # of connection points: 6
#     Edge 6, Type (0, 1), BuildingBlock: XUDNAN_clean_linker_2, # of connection points: 2
#     Edge 7, Type (0, 1), BuildingBlock: XUDNAN_clean_linker_2, # of connection points: 2
#     Edge 8, Type (0, 1), BuildingBlock: XUDNAN_clean_linker_2, # of connection points: 2
#     Edge 9, Type (0, 1), BuildingBlock: XUDNAN_clean_linker_2, # of connection points: 2
#     Edge 10, Type (0, 1), BuildingBlock: XUDNAN_clean_linker_2, # of connection points: 2
#     Edge 11, Type (0, 1), BuildingBlock: XUDNAN_clean_linker_2, # of connection points: 2
#     Edge 12, Type (0, 1), BuildingBlock: XUDNAN_clean_linker_2, # of connection points: 2
#     Edge 13, Type (0, 1), BuildingBlock: XUDNAN_clean_linker_2, # of connection points: 2
#     Edge 14, Type (0, 1), BuildingBlock: XUDNAN_clean_linker_2, # of connection points: 2
#     Edge 15, Type (0, 1), BuildingBlock: XUDNAN_clean_linker_2, # of connection points: 2
#     Edge 16, Type (0, 1), BuildingBlock: XUDNAN_clean_linker_2, # of connection points: 2
#     Edge 17, Type (0, 1), BuildingBlock: XUDNAN_clean_linker_2, # of connection points: 2
# Relax obj value: 0.113
# Max RMSD: 0.194
# Mean RMSD: 0.109
data_MOF--net-sit--node1-MIDCAF_clean_sbu_0--node2-VETTIZ_charged_linker_0--edge1-XUDNAN_clean_linker_2
_symmetry_space_group_name_H-M    P1
_symmetry_Int_Tables_number       1
_symmetry_cell_setting            triclinic
loop_
_symmetry_equiv_pos_as_xyz
'x, y, z'
_cell_length_a     28.458276
_cell_length_b     38.31481
_cell_length_c     42.502556
_cell_angle_alpha  90.38896
_cell_angle_beta   89.406468
_cell_angle_gamma 84.564361
loop_
_atom_site_label
_atom_site_type_symbol
_atom_site_fract_x
_atom_site_fract_y
_atom_site_fract_z
_atom_type_partial_charge
C0 C 0.02114 0.21692 0.07494 0.0
C1 C 0.05227 0.19906 0.09617 0.0
C2 C 0.10078 0.20422 0.09397 0.0
C3 C 0.08501 0.24619 0.05174 0.0
C4 C 0.03773 0.24084 0.05392 0.0
C5 C 0.00714 0.26548 0.03386 0.0
H6 H 0.98779 0.39972 0.93164 0.0
C7 C 0.0898 0.27387 0.02795 0.0
C8 C 0.04391 0.28536 0.01784 0.0
H9 H 0.87488 0.35004 0.97663 0.0
H10 H 0.93197 0.31003 0.00312 0.0
H11 H 0.05666 0.40039 0.99141 0.0
H12 H 0.0438 0.33326 0.91182 0.0
H13 H 0.10327 0.32454 0.92222 0.0
H14 H 0.08124 0.36818 0.9101 0.0
H15 H 0.06748 0.41145 0.95114 0.0
H16 H 0.11342 0.39064 0.97498 0.0
C17 C 0.97393 0.28949 0.05583 0.0
C18 C 0.98114 0.24362 0.01004 0.0
C19 C 0.24996 0.31577 0.99626 0.0
C20 C 0.26139 0.34002 0.97314 0.0
C21 C 0.22631 0.35348 0.95226 0.0
C22 C 0.17997 0.34571 0.95573 0.0
C23 C 0.16798 0.324 0.98026 0.0
C24 C 0.20261 0.3079 0.9992 0.0
C25 C 0.18201 0.2832 0.02217 0.0
C26 C 0.12946 0.28871 0.01445 0.0
C27 C 0.12205 0.3135 0.99042 0.0
C28 C 0.19197 0.29532 0.05599 0.0
C29 C 0.20333 0.24553 0.01438 0.0
C30 C 0.97525 0.38028 0.94723 0.0
C31 C 0.92683 0.37827 0.95223 0.0
C32 C 0.91209 0.35261 0.97284 0.0
C33 C 0.94529 0.32926 0.98804 0.0
C34 C -0.00628 0.33168 0.98268 0.0
C35 C 0.00775 0.35681 0.96244 0.0
C36 C 0.06026 0.35527 0.95872 0.0
C37 C 0.07581 0.32611 0.98142 0.0
C38 C 0.03688 0.31224 0.99517 0.0
C39 C 0.07565 0.39124 0.9694 0.0
C40 C 0.07305 0.345 0.92398 0.0
H41 H 0.15431 0.23084 0.07161 0.0
H42 H 0.98384 0.21346 0.07522 0.0
H43 H 0.00568 0.22206 -0.00017 0.0
H44 H 0.96721 0.25915 0.98982 0.0
H45 H 0.95149 0.23161 0.02162 0.0
H46 H 0.9888 0.29152 0.07982 0.0
H47 H 0.93886 0.27929 0.05848 0.0
H48 H 0.96902 0.31691 0.04761 0.0
H49 H 0.27661 0.30426 0.01207 0.0
H50 H 0.23457 0.37097 0.93346 0.0
H51 H 0.15514 0.35789 0.9396 0.0
H52 H 0.1856 0.32434 0.0581 0.0
H53 H 0.22925 0.28762 0.0624 0.0
H54 H 0.1686 0.28478 0.07369 0.0
H55 H 0.20338 0.24073 0.98853 0.0
H56 H 0.18302 0.22531 0.02479 0.0
H57 H 0.2404 0.24127 0.02251 0.0
H58 H 0.1258 0.19136 0.11016 0.0
C59 C 0.11732 0.22746 0.07173 0.0
C60 C 0.19708 0.6554 0.05583 0.0
C61 C 0.20834 0.62131 0.04384 0.0
C62 C 0.17229 0.599 0.04 0.0
C63 C 0.11391 0.64665 0.05428 0.0
C64 C 0.14959 0.66734 0.06135 0.0
C65 C 0.13057 0.70293 0.07364 0.0
H66 H 0.94539 0.82568 0.09364 0.0
C67 C 0.06854 0.66846 0.05747 0.0
C68 C 0.07772 0.70122 0.06947 0.0
H69 H 0.08823 0.82598 0.12828 0.0
H70 H 0.10857 0.7696 0.10544 0.0
H71 H 0.97397 0.78512 0.02526 0.0
H72 H 0.93419 0.74572 0.11587 0.0
H73 H 0.90329 0.72589 0.0859 0.0
H74 H 0.89341 0.77255 0.09219 0.0
H75 H 0.91541 0.7941 0.04131 0.0
H76 H 0.93288 0.75407 0.02001 0.0
C77 C 0.14973 0.73126 0.05251 0.0
C78 C 0.1442 0.70558 0.10881 0.0
C79 C 0.92519 0.62425 0.00721 0.0
C80 C 0.87981 0.63968 0.00053 0.0
C81 C 0.86584 0.67366 0.01238 0.0
C82 C 0.89747 0.69236 0.02954 0.0
C83 C 0.94355 0.67694 0.03484 0.0
C84 C 0.9563 0.64324 0.02398 0.0
C85 C 0.00682 0.63106 0.03038 0.0
C86 C 0.02272 0.66299 0.0469 0.0
C87 C 0.98573 0.68999 0.04951 0.0
C88 C 0.03205 0.62383 0.99811 0.0
C89 C 0.00822 0.59885 0.05243 0.0
C90 C 0.98108 0.81371 0.0964 0.0
C91 C 0.01529 0.83145 0.11236 0.0
C92 C 0.06125 0.81427 0.11521 0.0
C93 C 0.07308 0.78089 0.10241 0.0
C94 C 0.03872 0.76367 0.08686 0.0
C95 C -0.00659 0.77974 0.08427 0.0
C96 C 0.96116 0.75597 0.06847 0.0
C97 C -0.00554 0.72286 0.06308 0.0
C98 C 0.0401 0.72808 0.07333 0.0
C99 C 0.94453 0.77309 0.03716 0.0
C100 C 0.92055 0.74971 0.09159 0.0
H101 H 0.099 0.59376 0.04058 0.0
H102 H 0.2245 0.67271 0.05953 0.0
H103 H 0.15587 0.67952 0.11895 0.0
H104 H 0.1138 0.71596 0.12376 0.0
H105 H 0.17357 0.72238 0.11199 0.0
H106 H 0.14523 0.72479 0.02723 0.0
H107 H 0.18792 0.73301 0.05663 0.0
H108 H 0.13118 0.75757 0.05635 0.0
H109 H 0.93677 0.59798 0.99899 0.0
H110 H 0.83098 0.68622 0.00754 0.0
H111 H 0.88515 0.71829 0.03751 0.0
H112 H 0.02061 0.64473 0.98102 0.0
H113 H 0.02351 0.59841 0.98797 0.0
H114 H 0.07068 0.62364 0.99901 0.0
H115 H 0.97515 0.59879 0.06662 0.0
H116 H 0.03657 0.59889 0.07009 0.0
H117 H 0.0127 0.57389 0.03882 0.0
H118 H 0.18036 0.57263 0.03084 0.0
C119 C 0.12509 0.61148 0.04527 0.0
C120 C 0.5412 0.72529 0.58213 0.0
C121 C 0.57921 0.70471 0.5956 0.0
C122 C 0.62557 0.71346 0.58997 0.0
C123 C 0.59532 0.76513 0.5615 0.0
C124 C 0.55 0.7555 0.56543 0.0
C125 C 0.5135 0.7822 0.55201 0.0
H126 H 0.46164 0.94285 0.48824 0.0
C127 C 0.5921 0.80017 0.54705 0.0
C128 C 0.54419 0.81052 0.54172 0.0
H129 H 0.36881 0.86111 0.50051 0.0
H130 H 0.43201 0.82376 0.52436 0.0
H131 H 0.51697 0.93433 0.55299 0.0
H132 H 0.54536 0.89103 0.46048 0.0
H133 H 0.59831 0.90493 0.4746 0.0
H134 H 0.54802 0.93648 0.47016 0.0
H135 H 0.54275 0.95884 0.5226 0.0
H136 H 0.57866 0.93052 0.54857 0.0
C137 C 0.47846 0.79531 0.57859 0.0
C138 C 0.49015 0.7652 0.52366 0.0
C139 C 0.74034 0.86065 0.52408 0.0
C140 C 0.74686 0.89475 0.5141 0.0
C141 C 0.70766 0.91967 0.51118 0.0
C142 C 0.662 0.9103 0.51654 0.0
C143 C 0.65558 0.87565 0.5249 0.0
C144 C 0.69435 0.85185 0.52987 0.0
C145 C 0.68033 0.81726 0.54167 0.0
C146 C 0.62677 0.82358 0.54058 0.0
C147 C 0.61277 0.85761 0.5302 0.0
C148 C 0.69866 0.81202 0.57576 0.0
C149 C 0.69947 0.78803 0.51833 0.0
C150 C 0.45489 0.91717 0.49674 0.0
C151 C 0.41049 0.90485 0.49304 0.0
C152 C 0.40296 0.87098 0.5034 0.0
C153 C 0.43965 0.84937 0.51702 0.0
C154 C 0.48445 0.86162 0.51976 0.0
C155 C 0.49146 0.89498 0.50959 0.0
C156 C 0.5422 0.90241 0.51146 0.0
C157 C 0.56455 0.86798 0.52433 0.0
C158 C 0.53053 0.84438 0.52958 0.0
C159 C 0.54564 0.93325 0.5349 0.0
C160 C 0.55971 0.90932 0.47757 0.0
H161 H 0.66977 0.74914 0.56997 0.0
H162 H 0.50522 0.71929 0.58625 0.0
H163 H 0.51383 0.74337 0.51307 0.0
H164 H 0.48276 0.78381 0.50412 0.0
H165 H 0.4569 0.75428 0.53083 0.0
H166 H 0.49786 0.80099 0.60035 0.0
H167 H 0.45407 0.77523 0.58434 0.0
H168 H 0.45711 0.81989 0.57275 0.0
H169 H 0.77029 0.84131 0.52689 0.0
H170 H 0.71232 0.94606 0.5035 0.0
H171 H 0.63342 0.93019 0.51318 0.0
H172 H 0.70601 0.83724 0.58695 0.0
H173 H 0.73192 0.79434 0.57624 0.0
H174 H 0.67231 0.80149 0.59156 0.0
H175 H 0.69219 0.79628 0.49367 0.0
H176 H 0.68271 0.76345 0.52152 0.0
H177 H 0.73826 0.7822 0.52065 0.0
H178 H 0.65541 0.69771 0.59982 0.0
C179 C 0.63382 0.74345 0.5729 0.0
C180 C 0.69767 0.11419 0.55908 0.0
C181 C 0.70376 0.08292 0.54108 0.0
C182 C 0.66345 0.06647 0.53254 0.0
C183 C 0.61308 0.11627 0.55231 0.0
C184 C 0.65187 0.1302 0.56474 0.0
C185 C 0.63802 0.16392 0.58261 0.0
H186 H 0.4773 0.30343 0.60533 0.0
C187 C 0.57186 0.1422 0.55649 0.0
C188 C 0.58569 0.16994 0.57485 0.0
H189 H 0.60488 0.27593 0.65849 0.0
H190 H 0.6198 0.22321 0.62791 0.0
H191 H 0.51369 0.27273 0.5369 0.0
H192 H 0.44208 0.22757 0.61437 0.0
H193 H 0.41593 0.21498 0.57931 0.0
H194 H 0.41329 0.2608 0.58977 0.0
H195 H 0.45312 0.28593 0.54685 0.0
H196 H 0.4694 0.24881 0.5214 0.0
C197 C 0.666 0.19328 0.5693 0.0
C198 C 0.64621 0.15724 0.61822 0.0
C199 C 0.42855 0.12929 0.48927 0.0
C200 C 0.38852 0.15192 0.48191 0.0
C201 C 0.38185 0.185 0.497 0.0
C202 C 0.41485 0.19539 0.51868 0.0
C203 C 0.45518 0.17259 0.52523 0.0
C204 C 0.46141 0.14023 0.51049 0.0
C205 C 0.5075 0.12017 0.51847 0.0
C206 C 0.52755 0.14541 0.54127 0.0
C207 C 0.49687 0.17611 0.54514 0.0
C208 C 0.5368 0.11539 0.48749 0.0
C209 C 0.49737 0.08537 0.53453 0.0
C210 C 0.50834 0.28631 0.61106 0.0
C211 C 0.54 0.29521 0.63459 0.0
C212 C 0.58022 0.27133 0.6401 0.0
C213 C 0.58875 0.24011 0.62265 0.0
C214 C 0.55646 0.23182 0.59978 0.0
C215 C 0.51648 0.25429 0.59482 0.0
C216 C 0.48335 0.23911 0.57215 0.0
C217 C 0.50985 0.20362 0.56488 0.0
C218 C 0.55345 0.20008 0.58031 0.0
C219 C 0.47917 0.26283 0.54277 0.0
C220 C 0.43593 0.23553 0.58951 0.0
H221 H 0.58899 0.06986 0.52986 0.0
H222 H 0.72775 0.12708 0.56688 0.0
H223 H 0.65346 0.12886 0.62356 0.0
H224 H 0.61459 0.16633 0.63261 0.0
H225 H 0.67679 0.1704 0.62689 0.0
H226 H 0.66216 0.1949 0.54332 0.0
H227 H 0.70416 0.1882 0.57461 0.0
H228 H 0.65368 0.21932 0.57915 0.0
H229 H 0.43453 0.10347 0.47863 0.0
H230 H 0.35158 0.20319 0.49161 0.0
H231 H 0.40801 0.22095 0.52916 0.0
H232 H 0.53501 0.1404 0.47419 0.0
H233 H 0.52295 0.09528 0.47208 0.0
H234 H 0.5746 0.10793 0.49096 0.0
H235 H 0.46166 0.08737 0.5457 0.0
H236 H 0.52191 0.07837 0.55405 0.0
H237 H 0.49916 0.06334 0.5173 0.0
H238 H 0.66691 0.04158 0.5201 0.0
C239 C 0.6182 0.08295 0.53814 0.0
Zn240 Zn 0.01811 0.09779 0.35402 0.0
Zn241 Zn 0.07003 0.95969 0.33587 0.0
Zn242 Zn 0.04584 0.02881 0.34483 0.0
C243 C 0.03963 0.98592 0.27827 0.0
C244 C -0.00066 0.96724 0.38233 0.0
O245 O 0.10864 0.05453 0.35777 0.0
O246 O 0.08246 0.11049 0.36438 0.0
C247 C 0.003 0.08066 0.29058 0.0
O248 O 0.03074 0.0138 0.29529 0.0
O249 O 0.0598 0.95834 0.28997 0.0
O250 O 0.0211 0.94362 0.36539 0.0
O251 O 0.00486 0.99981 0.37778 0.0
O252 O -0.0055 0.10512 0.31051 0.0
O253 O 0.02259 0.05054 0.29902 0.0
O254 O 0.99043 0.03589 0.38215 0.0
O255 O 0.97342 0.09308 0.38931 0.0
C256 C 0.96749 0.06196 0.39661 0.0
O257 O 0.11946 0.01772 0.36003 0.0
O258 O 0.13469 0.96053 0.35256 0.0
C259 C 0.11606 0.08645 0.36414 0.0
C260 C 0.14733 0.98936 0.36239 0.0
Zn261 Zn 0.53515 0.58876 0.85628 0.0
Zn262 Zn 0.56715 0.41593 0.83706 0.0
Zn263 Zn 0.54065 0.52471 0.84685 0.0
C264 C 0.53038 0.47978 0.79531 0.0
C265 C 0.4957 0.4696 0.87447 0.0
O266 O 0.61039 0.53169 0.86488 0.0
O267 O 0.59421 0.5864 0.88109 0.0
C268 C 0.533 0.5804 0.79123 0.0
O269 O 0.52298 0.51296 0.79813 0.0
O270 O 0.54346 0.46352 0.81993 0.0
O271 O 0.52712 0.45838 0.85469 0.0
O272 O 0.48815 0.50284 0.87663 0.0
O273 O 0.53837 0.6036 0.81179 0.0
O274 O 0.52873 0.54866 0.79968 0.0
O275 O 0.48585 0.53882 0.88366 0.0
O276 O 0.47576 0.59661 0.88106 0.0
C277 C 0.46478 0.56839 0.89304 0.0
O278 O 0.61051 0.49264 0.85658 0.0
O279 O 0.62875 0.43332 0.85127 0.0
C280 C 0.62224 0.55884 0.87957 0.0
C281 C 0.63945 0.46425 0.85813 0.0
H282 H 0.09441 0.13957 0.12606 0.0
H283 H 0.96691 0.21182 0.12667 0.0
H284 H 0.93415 0.17887 0.16909 0.0
H285 H 0.03799 0.05901 0.15156 0.0
H286 H 0.08614 0.04513 0.17716 0.0
H287 H 0.09703 0.06899 0.14179 0.0
H288 H 0.13582 0.11565 0.17456 0.0
H289 H 0.12578 0.09152 0.20972 0.0
H290 H 0.10347 0.13704 0.20714 0.0
H291 H 0.91833 0.14511 0.21547 0.0
H292 H 0.92507 0.11643 0.26711 0.0
H293 H 0.06259 0.06617 0.2403 0.0
C294 C 0.05931 0.14817 0.13474 0.0
C295 C 0.03289 0.17784 0.12185 0.0
C296 C 0.98738 0.18837 0.13464 0.0
C297 C 0.96827 0.16983 0.15905 0.0
C298 C -0.00499 0.14083 0.17104 0.0
C299 C 0.03976 0.13013 0.15965 0.0
C300 C 0.06341 0.10121 0.18001 0.0
C301 C 0.07162 0.06654 0.1615 0.0
C302 C 0.10984 0.11202 0.19367 0.0
C303 C 0.02592 0.09895 0.20544 0.0
C304 C 0.98621 0.12134 0.19911 0.0
C305 C 0.94872 0.12689 0.22044 0.0
C306 C 0.95276 0.11047 0.24967 0.0
C307 C -0.00609 0.08876 0.2573 0.0
C308 C 0.03013 0.08176 0.23449 0.0
H309 H 0.07372 0.88387 0.12271 0.0
H310 H 0.93017 0.85817 0.13918 0.0
H311 H 0.91563 0.91017 0.17329 0.0
H312 H 0.09529 0.89596 0.19856 0.0
H313 H 0.13362 0.93047 0.1938 0.0
H314 H 0.12779 0.89993 0.16231 0.0
H315 H 0.10267 0.95153 0.12476 0.0
H316 H 0.10899 0.982 0.1566 0.0
H317 H 0.05404 0.98299 0.13577 0.0
H318 H 0.9209 0.95679 0.21402 0.0
H319 H 0.94831 0.98575 0.26166 0.0
H320 H 0.09085 0.97572 0.22441 0.0
C321 C 0.03886 0.88928 0.13299 0.0
C322 C 0.00329 0.86639 0.12807 0.0
C323 C 0.95803 0.87529 0.14177 0.0
C324 C 0.94937 0.90498 0.16135 0.0
C325 C 0.98622 0.92564 0.16722 0.0
C326 C 0.03024 0.91799 0.15345 0.0
C327 C 0.06666 0.93908 0.16844 0.0
C328 C 0.10821 0.91492 0.18157 0.0
C329 C 0.08409 0.96547 0.14499 0.0
C330 C 0.03717 0.95774 0.19445 0.0
C331 C 0.99027 0.95119 0.19229 0.0
C332 C 0.95723 0.96274 0.21551 0.0
C333 C 0.97298 0.97942 0.24241 0.0
C334 C 0.02143 0.9834 0.24619 0.0
C335 C 0.05343 0.97387 0.2214 0.0
H336 H 0.61615 0.69836 0.65383 0.0
H337 H 0.52038 0.65153 0.5911 0.0
H338 H 0.50169 0.61019 0.63326 0.0
H339 H 0.65951 0.61883 0.69606 0.0
H340 H 0.66084 0.64223 0.73292 0.0
H341 H 0.6703 0.66444 0.6965 0.0
H342 H 0.60201 0.71168 0.71109 0.0
H343 H 0.59214 0.68955 0.74738 0.0
H344 H 0.54437 0.69832 0.72018 0.0
H345 H 0.49218 0.5751 0.68459 0.0
H346 H 0.48813 0.5542 0.73985 0.0
H347 H 0.58662 0.62818 0.76736 0.0
C348 C 0.59226 0.67875 0.64861 0.0
C349 C 0.57043 0.67758 0.61908 0.0
C350 C 0.53784 0.65252 0.61356 0.0
C351 C 0.52719 0.62893 0.63731 0.0
C352 C 0.54912 0.6311 0.66641 0.0
C353 C 0.58083 0.65561 0.67201 0.0
C354 C 0.59663 0.65519 0.70577 0.0
C355 C 0.64998 0.64453 0.70792 0.0
C356 C 0.58294 0.69079 0.72205 0.0
C357 C 0.56837 0.62703 0.71863 0.0
C358 C 0.54178 0.61275 0.69568 0.0
C359 C 0.51286 0.58621 0.70268 0.0
C360 C 0.51073 0.57448 0.73401 0.0
C361 C 0.53648 0.59002 0.75779 0.0
C362 C 0.56595 0.61621 0.74972 0.0
H363 H 0.60347 0.33201 0.66826 0.0
H364 H 0.45378 0.33389 0.64707 0.0
H365 H 0.43813 0.38672 0.67947 0.0
H366 H 0.58266 0.34967 0.74892 0.0
H367 H 0.63265 0.37481 0.75333 0.0
H368 H 0.63382 0.34099 0.7237 0.0
H369 H 0.65123 0.38618 0.68101 0.0
H370 H 0.64964 0.42026 0.71055 0.0
H371 H 0.61178 0.42551 0.67685 0.0
H372 H 0.43755 0.43893 0.71629 0.0
H373 H 0.4507 0.47921 0.76066 0.0
H374 H 0.59698 0.43665 0.76445 0.0
C375 C 0.56717 0.34298 0.67023 0.0
C376 C 0.53031 0.32822 0.65402 0.0
C377 C 0.48357 0.34469 0.65772 0.0
C378 C 0.47398 0.37488 0.67647 0.0
C379 C 0.51111 0.38819 0.6922 0.0
C380 C 0.55661 0.37229 0.68979 0.0
C381 C 0.58921 0.38895 0.7122 0.0
C382 C 0.61083 0.362 0.73594 0.0
C383 C 0.62774 0.40625 0.69406 0.0
C384 C 0.55468 0.41622 0.72804 0.0
C385 C 0.5101 0.41619 0.71544 0.0
C386 C 0.47231 0.43917 0.72632 0.0
C387 C 0.48006 0.46203 0.75134 0.0
C388 C 0.52477 0.46088 0.76561 0.0
C389 C 0.56257 0.43803 0.75361 0.0
H390 H 0.27879 0.40775 0.96986 0.0
H391 H 0.34863 0.30232 0.96711 0.0
H392 H 0.4218 0.32573 0.94733 0.0
H393 H 0.31963 0.42849 0.89747 0.0
H394 H 0.32411 0.47422 0.90583 0.0
H395 H 0.28219 0.45095 0.92715 0.0
H396 H 0.31906 0.46579 0.98152 0.0
H397 H 0.3553 0.49218 0.95872 0.0
H398 H 0.38241 0.4598 0.9853 0.0
H399 H 0.48156 0.35985 0.91892 0.0
H400 H 0.52398 0.40109 0.88737 0.0
H401 H 0.41147 0.4833 0.90589 0.0
C402 C 0.3101 0.38972 0.96623 0.0
C403 C 0.3084 0.35331 0.97017 0.0
C404 C 0.34961 0.33037 0.96473 0.0
C405 C 0.39108 0.34347 0.95327 0.0
C406 C 0.39037 0.37944 0.94751 0.0
C407 C 0.35086 0.40219 0.95409 0.0
C408 C 0.35574 0.43852 0.9416 0.0
C409 C 0.31821 0.4486 0.91654 0.0
C410 C 0.35311 0.46563 0.96846 0.0
C411 C 0.40455 0.43307 0.92703 0.0
C412 C 0.42402 0.39882 0.93062 0.0
C413 C 0.46703 0.38683 0.91655 0.0
C414 C 0.49068 0.41039 0.89847 0.0
C415 C 0.47125 0.44551 0.89456 0.0
C416 C 0.42779 0.45692 0.90922 0.0
H417 H 0.7846 0.63414 0.00783 0.0
H418 H 0.90427 0.60279 0.94653 0.0
H419 H 0.85285 0.57158 0.91195 0.0
H420 H 0.72529 0.55334 0.99828 0.0
H421 H 0.66722 0.57664 0.99852 0.0
H422 H 0.71414 0.5937 0.02029 0.0
H423 H 0.70102 0.65263 0.99058 0.0
H424 H 0.65366 0.63605 0.96911 0.0
H425 H 0.70231 0.65243 0.94816 0.0
H426 H 0.7868 0.54874 0.88109 0.0
H427 H 0.71078 0.53859 0.85615 0.0
H428 H 0.63532 0.58315 0.93812 0.0
C429 C 0.8 0.62057 0.98723 0.0
C430 C 0.8485 0.62072 0.98005 0.0
C431 C 0.86733 0.60256 0.95284 0.0
C432 C 0.83842 0.58474 0.93301 0.0
C433 C 0.79075 0.5851 0.94075 0.0
C434 C 0.7717 0.6025 0.96725 0.0
C435 C 0.71893 0.60068 0.96929 0.0
C436 C 0.70562 0.57984 0.99832 0.0
C437 C 0.69244 0.63763 0.96926 0.0
C438 C 0.71104 0.58082 0.93921 0.0
C439 C 0.75292 0.57153 0.92323 0.0
C440 C 0.75387 0.55523 0.89369 0.0
C441 C 0.71073 0.54914 0.87983 0.0
C442 C 0.66765 0.55907 0.89571 0.0
C443 C 0.66802 0.57458 0.92588 0.0
H444 H 0.84266 0.41152 0.97373 0.0
H445 H 0.93212 0.39669 0.89048 0.0
H446 H 0.87223 0.4313 0.8596 0.0
H447 H 0.74137 0.39642 0.93931 0.0
H448 H 0.70293 0.42883 0.96044 0.0
H449 H 0.75711 0.41112 0.97786 0.0
H450 H 0.78157 0.47396 0.98492 0.0
H451 H 0.7281 0.49231 0.96643 0.0
H452 H 0.78474 0.50194 0.95123 0.0
H453 H 0.79877 0.45511 0.83548 0.0
H454 H 0.71524 0.46511 0.81983 0.0
H455 H 0.67164 0.46562 0.91764 0.0
C456 C 0.84996 0.41628 0.94916 0.0
C457 C 0.8922 0.40168 0.9346 0.0
C458 C 0.90048 0.40823 0.90235 0.0
C459 C 0.8667 0.42799 0.88459 0.0
C460 C 0.82496 0.44136 0.89942 0.0
C461 C 0.81651 0.43605 0.93106 0.0
C462 C 0.76623 0.44895 0.94019 0.0
C463 C 0.74042 0.41957 0.9553 0.0
C464 C 0.7651 0.4812 0.96199 0.0
C465 C 0.74664 0.45902 0.9082 0.0
C466 C 0.78161 0.45573 0.8852 0.0
C467 C 0.77131 0.45899 0.8533 0.0
C468 C 0.72397 0.46456 0.84459 0.0
C469 C 0.68793 0.46696 0.86772 0.0
C470 C 0.69922 0.46511 0.89984 0.0
H471 H 0.25161 0.65457 0.99778 0.0
H472 H 0.26803 0.56295 0.05719 0.0
H473 H 0.34002 0.5409 0.02698 0.0
H474 H 0.27713 0.60952 0.92855 0.0
H475 H 0.30734 0.64311 0.90966 0.0
H476 H 0.26304 0.65494 0.9393 0.0
H477 H 0.32295 0.6869 0.97167 0.0
H478 H 0.36732 0.6758 0.94177 0.0
H479 H 0.37865 0.66374 0.9821 0.0
H480 H 0.40767 0.52786 0.98806 0.0
H481 H 0.46037 0.52179 0.94127 0.0
H482 H 0.39503 0.62039 0.90574 0.0
C483 C 0.27155 0.63058 0.00517 0.0
C484 C 0.25544 0.61084 0.03024 0.0
C485 C 0.28076 0.57868 0.03841 0.0
C486 C 0.3215 0.56604 0.02141 0.0
C487 C 0.33582 0.58577 0.99618 0.0
C488 C 0.31147 0.61733 0.98808 0.0
C489 C 0.33038 0.63147 0.95783 0.0
C490 C 0.2922 0.63494 0.93235 0.0
C491 C 0.35107 0.66655 0.96371 0.0
C492 C 0.3686 0.60263 0.94979 0.0
C493 C 0.37191 0.57684 0.97243 0.0
C494 C 0.4048 0.54759 0.96991 0.0
C495 C 0.43423 0.54419 0.94315 0.0
C496 C 0.4309 0.57019 0.91958 0.0
C497 C 0.3979 0.59986 0.9232 0.0
H498 H 0.79417 0.8707 0.46183 0.0
H499 H 0.80093 0.94164 0.541 0.0
H500 H 0.87299 0.96352 0.5181 0.0
H501 H 0.92362 0.85266 0.44582 0.0
H502 H 0.91505 0.85359 0.40386 0.0
H503 H 0.87007 0.83896 0.42944 0.0
H504 H 0.80879 0.88527 0.40537 0.0
H505 H 0.85352 0.90048 0.38012 0.0
H506 H 0.81975 0.93083 0.40614 0.0
H507 H 0.94007 0.98051 0.48462 0.0
H508 H -0.00585 0.99445 0.44146 0.0
H509 H 0.93858 0.91614 0.38212 0.0
C510 C 0.81213 0.88981 0.47484 0.0
C511 C 0.79344 0.90383 0.50352 0.0
C512 C 0.81591 0.93009 0.51937 0.0
C513 C 0.85673 0.94252 0.50658 0.0
C514 C 0.87398 0.92859 0.47784 0.0
C515 C 0.85223 0.90293 0.46208 0.0
C516 C 0.87369 0.89579 0.42967 0.0
C517 C 0.897 0.85801 0.42706 0.0
C518 C 0.83674 0.90358 0.40382 0.0
C519 C 0.91016 0.92202 0.4293 0.0
C520 C 0.91031 0.94024 0.45749 0.0
C521 C 0.94009 0.96652 0.46242 0.0
C522 C 0.97003 0.97465 0.43771 0.0
C523 C 0.96904 0.95724 0.40835 0.0
C524 C 0.93956 0.93004 0.40434 0.0
H525 H 0.29178 0.16454 0.48327 0.0
H526 H 0.40787 0.11425 0.42725 0.0
H527 H 0.35105 0.09284 0.39004 0.0
H528 H 0.21333 0.09895 0.47339 0.0
H529 H 0.16134 0.12951 0.47084 0.0
H530 H 0.21134 0.14102 0.4929 0.0
H531 H 0.21444 0.19721 0.45946 0.0
H532 H 0.16442 0.1858 0.4373 0.0
H533 H 0.21853 0.19346 0.41719 0.0
H534 H 0.2809 0.074 0.36046 0.0
H535 H 0.20263 0.06221 0.33972 0.0
H536 H 0.134 0.12842 0.41301 0.0
C537 C 0.30542 0.14957 0.46292 0.0
C538 C 0.35437 0.1409 0.45843 0.0
C539 C 0.37051 0.12068 0.43165 0.0
C540 C 0.33853 0.10859 0.4102 0.0
C541 C 0.29054 0.11731 0.41557 0.0
C542 C 0.27409 0.13762 0.44111 0.0
C543 C 0.2208 0.14313 0.4417 0.0
C544 C 0.20053 0.1272 0.47147 0.0
C545 C 0.20355 0.18222 0.43872 0.0
C546 C 0.20986 0.12274 0.41254 0.0
C547 C 0.25046 0.10774 0.39787 0.0
C548 C 0.24887 0.08606 0.37145 0.0
C549 C 0.20449 0.07951 0.35984 0.0
C550 C 0.16273 0.09483 0.3746 0.0
C551 C 0.16557 0.11699 0.40098 0.0
H552 H 0.37044 0.88733 0.43841 0.0
H553 H 0.36893 0.97007 0.50844 0.0
H554 H 0.30643 1.00518 0.47884 0.0
H555 H 0.35134 0.94596 0.37031 0.0
H556 H 0.3154 0.91653 0.35052 0.0
H557 H 0.36173 0.89934 0.37631 0.0
H558 H 0.30133 0.86739 0.40879 0.0
H559 H 0.25508 0.88418 0.38296 0.0
H560 H 0.24942 0.89223 0.42472 0.0
H561 H 0.23707 0.02691 0.4451 0.0
H562 H 0.16883 0.03407 0.40965 0.0
H563 H 0.22271 0.94038 0.35831 0.0
C564 C 0.35692 0.91291 0.44736 0.0
C565 C 0.3736 0.92604 0.47572 0.0
C566 C 0.356 0.95971 0.48674 0.0
C567 C 0.32084 0.97978 0.47004 0.0
C568 C 0.30483 0.96599 0.44208 0.0
C569 C 0.32276 0.93348 0.43067 0.0
C570 C 0.29883 0.92404 0.40065 0.0
C571 C 0.33393 0.92132 0.3728 0.0
C572 C 0.27473 0.88996 0.40454 0.0
C573 C 0.26315 0.9556 0.3976 0.0
C574 C 0.26724 0.97967 0.42157 0.0
C575 C 0.23457 0.00889 0.42559 0.0
C576 C 0.19624 0.0131 0.40501 0.0
C577 C 0.19161 0.98876 0.38027 0.0
C578 C 0.22611 0.96007 0.37634 0.0
H579 H 0.72275 0.05596 0.48213 0.0
H580 H 0.79137 0.08267 0.56862 0.0
H581 H 0.86896 0.07139 0.54205 0.0
H582 H 0.81662 0.98648 0.45433 0.0
H583 H 0.80938 0.99946 0.41391 0.0
H584 H 0.75949 1.00358 0.44068 0.0
H585 H 0.74372 0.06934 0.42792 0.0
H586 H 0.79289 0.06596 0.4009 0.0
H587 H 0.79039 0.09762 0.43258 0.0
H588 H 0.93617 0.0691 0.5038 0.0
H589 H 0.98908 0.07149 0.45743 0.0
H590 H 0.87787 0.04235 0.39669 0.0
C591 C 0.75403 0.0579 0.49606 0.0
C592 C 0.75078 0.07008 0.52761 0.0
C593 C 0.79281 0.07363 0.54441 0.0
C594 C 0.83708 0.06697 0.52958 0.0
C595 C 0.83876 0.05626 0.49811 0.0
C596 C 0.79833 0.05113 0.4817 0.0
C597 C 0.80911 0.04328 0.44723 0.0
C598 C 0.798 1.00598 0.43852 0.0
C599 C 0.78246 0.07069 0.42594 0.0
C600 C 0.86168 0.04642 0.44646 0.0
C601 C 0.87816 0.05368 0.47612 0.0
C602 C 0.9241 0.06229 0.48069 0.0
C603 C 0.95375 0.06378 0.45432 0.0
C604 C 0.93751 0.05625 0.42395 0.0
C605 C 0.89125 0.04701 0.41995 0.0
loop_
_geom_bond_atom_site_label_1
_geom_bond_atom_site_label_2
_geom_bond_distance
_geom_bond_site_symmetry_2
_ccdc_geom_bond_type
C0 C1 1.391 . S
C0 C4 1.391 . S
C0 H42 0.948 . S
C1 C0 1.391 . S
C1 C2 1.391 . S
C2 C1 1.391 . S
C2 H58 0.947 . S
C2 C59 1.392 . S
C3 C4 1.391 . S
C3 C7 1.397 . S
C3 C59 1.419 . S
C4 C0 1.391 . S
C4 C3 1.391 . S
C4 C5 1.399 . S
C5 C4 1.399 . S
C5 C8 1.396 . S
C5 C17 1.453 . S
C5 C18 1.684 . S
H6 C30 0.948 . S
C7 C3 1.397 . S
C7 C8 1.394 . S
C7 C26 1.723 . S
C8 C5 1.396 . S
C8 C7 1.394 . S
C8 C38 1.723 . S
H9 C32 0.947 1_554 S
H10 C33 0.948 . S
H11 C39 0.982 . S
H12 C40 0.979 . S
H13 C40 0.980 . S
H14 C40 0.983 . S
H15 C39 0.979 . S
H16 C39 0.977 . S
C17 C5 1.453 . S
C17 H46 0.982 . S
C17 H47 0.979 . S
C17 H48 0.977 . S
C18 C5 1.684 . S
C18 H43 0.979 . S
C18 H44 0.980 1_455 S
C18 H45 0.983 . S
C19 C20 1.391 . S
C19 C24 1.391 1_556 S
C19 H49 0.948 1_556 S
C20 C19 1.391 . S
C20 C21 1.391 . S
C21 C20 1.391 . S
C21 C22 1.392 . S
C21 H50 0.947 . S
C22 C21 1.392 . S
C22 C23 1.419 . S
C22 H51 0.948 . S
C23 C22 1.419 . S
C23 C24 1.391 1_556 S
C23 C27 1.397 1_556 S
C24 C19 1.391 1_554 S
C24 C23 1.391 1_554 S
C24 C25 1.399 . S
C25 C24 1.399 . S
C25 C26 1.396 . S
C25 C28 1.453 . S
C25 C29 1.684 . S
C26 C7 1.723 . S
C26 C25 1.396 . S
C26 C27 1.394 . S
C27 C23 1.397 1_554 S
C27 C26 1.394 . S
C27 C37 1.723 1_554 S
C28 C25 1.453 . S
C28 H52 0.982 . S
C28 H53 0.979 . S
C28 H54 0.977 . S
C29 C25 1.684 . S
C29 H55 0.979 . S
C29 H56 0.980 . S
C29 H57 0.983 . S
C30 H6 0.948 . S
C30 C31 1.391 . S
C30 C35 1.391 1_655 S
C31 C30 1.391 . S
C31 C32 1.391 . S
C32 H9 0.947 1_556 S
C32 C31 1.391 . S
C32 C33 1.392 1_556 S
C33 H10 0.948 . S
C33 C32 1.392 1_554 S
C33 C34 1.419 1_655 S
C34 C33 1.419 1_455 S
C34 C35 1.391 1_554 S
C34 C38 1.397 . S
C35 C30 1.391 1_455 S
C35 C34 1.391 1_556 S
C35 C36 1.399 . S
C36 C35 1.399 . S
C36 C37 1.396 . S
C36 C39 1.453 . S
C36 C40 1.684 . S
C37 C27 1.723 1_556 S
C37 C36 1.396 . S
C37 C38 1.394 1_556 S
C38 C8 1.723 . S
C38 C34 1.397 . S
C38 C37 1.394 1_554 S
C39 H11 0.982 . S
C39 H15 0.979 . S
C39 H16 0.977 . S
C39 C36 1.453 . S
C40 H12 0.979 . S
C40 H13 0.980 . S
C40 H14 0.983 . S
C40 C36 1.684 . S
H41 C59 0.948 . S
H42 C0 0.948 . S
H43 C18 0.979 . S
H44 C18 0.980 1_655 S
H45 C18 0.983 . S
H46 C17 0.982 . S
H47 C17 0.979 . S
H48 C17 0.977 . S
H49 C19 0.948 1_554 S
H50 C21 0.947 . S
H51 C22 0.948 . S
H52 C28 0.982 . S
H53 C28 0.979 . S
H54 C28 0.977 . S
H55 C29 0.979 . S
H56 C29 0.980 . S
H57 C29 0.983 . S
H58 C2 0.947 . S
C59 C2 1.392 . S
C59 C3 1.419 . S
C59 H41 0.948 . S
C60 C61 1.391 . S
C60 C64 1.391 1_556 S
C60 H102 0.948 1_556 S
C61 C60 1.391 . S
C61 C62 1.391 . S
C62 C61 1.391 . S
C62 H118 0.947 . S
C62 C119 1.392 . S
C63 C64 1.391 1_556 S
C63 C67 1.397 1_556 S
C63 C119 1.419 . S
C64 C60 1.391 1_554 S
C64 C63 1.391 1_554 S
C64 C65 1.399 . S
C65 C64 1.399 . S
C65 C68 1.396 . S
C65 C77 1.453 . S
C65 C78 1.684 . S
H66 C90 0.948 . S
C67 C63 1.397 1_554 S
C67 C68 1.394 . S
C67 C86 1.723 1_454 S
C68 C65 1.396 . S
C68 C67 1.394 . S
C68 C98 1.723 . S
H69 C92 0.947 . S
H70 C93 0.948 . S
H71 C99 0.982 . S
H72 C100 0.979 . S
H73 C100 0.980 . S
H74 C100 0.983 . S
H75 C99 0.979 . S
H76 C99 0.977 . S
C77 C65 1.453 . S
C77 H106 0.982 . S
C77 H107 0.979 . S
C77 H108 0.977 . S
C78 C65 1.684 . S
C78 H103 0.979 . S
C78 H104 0.980 . S
C78 H105 0.983 . S
C79 C80 1.391 . S
C79 C84 1.391 . S
C79 H109 0.948 . S
C80 C79 1.391 . S
C80 C81 1.391 1_556 S
C81 C80 1.391 1_554 S
C81 C82 1.392 . S
C81 H110 0.947 . S
C82 C81 1.392 . S
C82 C83 1.419 . S
C82 H111 0.948 . S
C83 C82 1.419 . S
C83 C84 1.391 1_554 S
C83 C87 1.397 . S
C84 C79 1.391 . S
C84 C83 1.391 1_556 S
C84 C85 1.399 . S
C85 C84 1.399 . S
C85 C86 1.396 . S
C85 C88 1.453 . S
C85 C89 1.684 . S
C86 C67 1.723 1_656 S
C86 C85 1.396 . S
C86 C87 1.394 1_556 S
C87 C83 1.397 . S
C87 C86 1.394 1_554 S
C87 C97 1.723 . S
C88 C85 1.453 . S
C88 H112 0.982 . S
C88 H113 0.979 . S
C88 H114 0.977 1_655 S
C89 C85 1.684 . S
C89 H115 0.979 . S
C89 H116 0.980 1_655 S
C89 H117 0.983 . S
C90 H66 0.948 . S
C90 C91 1.391 1_655 S
C90 C95 1.391 . S
C91 C90 1.391 1_455 S
C91 C92 1.391 . S
C92 H69 0.947 . S
C92 C91 1.391 . S
C92 C93 1.392 . S
C93 H70 0.948 . S
C93 C92 1.392 . S
C93 C94 1.419 . S
C94 C93 1.419 . S
C94 C95 1.391 1_455 S
C94 C98 1.397 . S
C95 C90 1.391 . S
C95 C94 1.391 1_655 S
C95 C96 1.399 . S
C96 C95 1.399 . S
C96 C97 1.396 . S
C96 C99 1.453 . S
C96 C100 1.684 . S
C97 C87 1.723 . S
C97 C96 1.396 . S
C97 C98 1.394 1_655 S
C98 C68 1.723 . S
C98 C94 1.397 . S
C98 C97 1.394 1_455 S
C99 H71 0.982 . S
C99 H75 0.979 . S
C99 H76 0.977 . S
C99 C96 1.453 . S
C100 H72 0.979 . S
C100 H73 0.980 . S
C100 H74 0.983 . S
C100 C96 1.684 . S
H101 C119 0.948 . S
H102 C60 0.948 1_554 S
H103 C78 0.979 . S
H104 C78 0.980 . S
H105 C78 0.983 . S
H106 C77 0.982 . S
H107 C77 0.979 . S
H108 C77 0.977 . S
H109 C79 0.948 . S
H110 C81 0.947 . S
H111 C82 0.948 . S
H112 C88 0.982 . S
H113 C88 0.979 . S
H114 C88 0.977 1_455 S
H115 C89 0.979 . S
H116 C89 0.980 1_455 S
H117 C89 0.983 . S
H118 C62 0.947 . S
C119 C62 1.392 . S
C119 C63 1.419 . S
C119 H101 0.948 . S
C120 C121 1.391 . S
C120 C124 1.391 . S
C120 H162 0.948 . S
C121 C120 1.391 . S
C121 C122 1.391 . S
C122 C121 1.391 . S
C122 H178 0.947 . S
C122 C179 1.392 . S
C123 C124 1.391 . S
C123 C127 1.397 . S
C123 C179 1.419 . S
C124 C120 1.391 . S
C124 C123 1.391 . S
C124 C125 1.399 . S
C125 C124 1.399 . S
C125 C128 1.396 . S
C125 C137 1.453 . S
C125 C138 1.684 . S
H126 C150 0.948 . S
C127 C123 1.397 . S
C127 C128 1.394 . S
C127 C146 1.723 . S
C128 C125 1.396 . S
C128 C127 1.394 . S
C128 C158 1.723 . S
H129 C152 0.947 . S
H130 C153 0.948 . S
H131 C159 0.982 . S
H132 C160 0.979 . S
H133 C160 0.980 . S
H134 C160 0.983 . S
H135 C159 0.979 . S
H136 C159 0.977 . S
C137 C125 1.453 . S
C137 H166 0.982 . S
C137 H167 0.979 . S
C137 H168 0.977 . S
C138 C125 1.684 . S
C138 H163 0.979 . S
C138 H164 0.980 . S
C138 H165 0.983 . S
C139 C140 1.391 . S
C139 C144 1.391 . S
C139 H169 0.948 . S
C140 C139 1.391 . S
C140 C141 1.391 . S
C141 C140 1.391 . S
C141 C142 1.392 . S
C141 H170 0.947 . S
C142 C141 1.392 . S
C142 C143 1.419 . S
C142 H171 0.948 . S
C143 C142 1.419 . S
C143 C144 1.391 . S
C143 C147 1.397 . S
C144 C139 1.391 . S
C144 C143 1.391 . S
C144 C145 1.399 . S
C145 C144 1.399 . S
C145 C146 1.396 . S
C145 C148 1.453 . S
C145 C149 1.684 . S
C146 C127 1.723 . S
C146 C145 1.396 . S
C146 C147 1.394 . S
C147 C143 1.397 . S
C147 C146 1.394 . S
C147 C157 1.723 . S
C148 C145 1.453 . S
C148 H172 0.982 . S
C148 H173 0.979 . S
C148 H174 0.977 . S
C149 C145 1.684 . S
C149 H175 0.979 . S
C149 H176 0.980 . S
C149 H177 0.983 . S
C150 H126 0.948 . S
C150 C151 1.391 . S
C150 C155 1.391 . S
C151 C150 1.391 . S
C151 C152 1.391 . S
C152 H129 0.947 . S
C152 C151 1.391 . S
C152 C153 1.392 . S
C153 H130 0.948 . S
C153 C152 1.392 . S
C153 C154 1.419 . S
C154 C153 1.419 . S
C154 C155 1.391 . S
C154 C158 1.397 . S
C155 C150 1.391 . S
C155 C154 1.391 . S
C155 C156 1.399 . S
C156 C155 1.399 . S
C156 C157 1.396 . S
C156 C159 1.453 . S
C156 C160 1.684 . S
C157 C147 1.723 . S
C157 C156 1.396 . S
C157 C158 1.394 . S
C158 C128 1.723 . S
C158 C154 1.397 . S
C158 C157 1.394 . S
C159 H131 0.982 . S
C159 H135 0.979 . S
C159 H136 0.977 . S
C159 C156 1.453 . S
C160 H132 0.979 . S
C160 H133 0.980 . S
C160 H134 0.983 . S
C160 C156 1.684 . S
H161 C179 0.948 . S
H162 C120 0.948 . S
H163 C138 0.979 . S
H164 C138 0.980 . S
H165 C138 0.983 . S
H166 C137 0.982 . S
H167 C137 0.979 . S
H168 C137 0.977 . S
H169 C139 0.948 . S
H170 C141 0.947 . S
H171 C142 0.948 . S
H172 C148 0.982 . S
H173 C148 0.979 . S
H174 C148 0.977 . S
H175 C149 0.979 . S
H176 C149 0.980 . S
H177 C149 0.983 . S
H178 C122 0.947 . S
C179 C122 1.392 . S
C179 C123 1.419 . S
C179 H161 0.948 . S
C180 C181 1.391 . S
C180 C184 1.391 . S
C180 H222 0.948 . S
C181 C180 1.391 . S
C181 C182 1.391 . S
C182 C181 1.391 . S
C182 H238 0.947 . S
C182 C239 1.392 . S
C183 C184 1.391 . S
C183 C187 1.397 . S
C183 C239 1.419 . S
C184 C180 1.391 . S
C184 C183 1.391 . S
C184 C185 1.399 . S
C185 C184 1.399 . S
C185 C188 1.396 . S
C185 C197 1.453 . S
C185 C198 1.684 . S
H186 C210 0.948 . S
C187 C183 1.397 . S
C187 C188 1.394 . S
C187 C206 1.723 . S
C188 C185 1.396 . S
C188 C187 1.394 . S
C188 C218 1.723 . S
H189 C212 0.947 . S
H190 C213 0.948 . S
H191 C219 0.982 . S
H192 C220 0.979 . S
H193 C220 0.980 . S
H194 C220 0.983 . S
H195 C219 0.979 . S
H196 C219 0.977 . S
C197 C185 1.453 . S
C197 H226 0.982 . S
C197 H227 0.979 . S
C197 H228 0.977 . S
C198 C185 1.684 . S
C198 H223 0.979 . S
C198 H224 0.980 . S
C198 H225 0.983 . S
C199 C200 1.391 . S
C199 C204 1.391 . S
C199 H229 0.948 . S
C200 C199 1.391 . S
C200 C201 1.391 . S
C201 C200 1.391 . S
C201 C202 1.392 . S
C201 H230 0.947 . S
C202 C201 1.392 . S
C202 C203 1.419 . S
C202 H231 0.948 . S
C203 C202 1.419 . S
C203 C204 1.391 . S
C203 C207 1.397 . S
C204 C199 1.391 . S
C204 C203 1.391 . S
C204 C205 1.399 . S
C205 C204 1.399 . S
C205 C206 1.396 . S
C205 C208 1.453 . S
C205 C209 1.684 . S
C206 C187 1.723 . S
C206 C205 1.396 . S
C206 C207 1.394 . S
C207 C203 1.397 . S
C207 C206 1.394 . S
C207 C217 1.723 . S
C208 C205 1.453 . S
C208 H232 0.982 . S
C208 H233 0.979 . S
C208 H234 0.977 . S
C209 C205 1.684 . S
C209 H235 0.979 . S
C209 H236 0.980 . S
C209 H237 0.983 . S
C210 H186 0.948 . S
C210 C211 1.391 . S
C210 C215 1.391 . S
C211 C210 1.391 . S
C211 C212 1.391 . S
C212 H189 0.947 . S
C212 C211 1.391 . S
C212 C213 1.392 . S
C213 H190 0.948 . S
C213 C212 1.392 . S
C213 C214 1.419 . S
C214 C213 1.419 . S
C214 C215 1.391 . S
C214 C218 1.397 . S
C215 C210 1.391 . S
C215 C214 1.391 . S
C215 C216 1.399 . S
C216 C215 1.399 . S
C216 C217 1.396 . S
C216 C219 1.453 . S
C216 C220 1.684 . S
C217 C207 1.723 . S
C217 C216 1.396 . S
C217 C218 1.394 . S
C218 C188 1.723 . S
C218 C214 1.397 . S
C218 C217 1.394 . S
C219 H191 0.982 . S
C219 H195 0.979 . S
C219 H196 0.977 . S
C219 C216 1.453 . S
C220 H192 0.979 . S
C220 H193 0.980 . S
C220 H194 0.983 . S
C220 C216 1.684 . S
H221 C239 0.948 . S
H222 C180 0.948 . S
H223 C198 0.979 . S
H224 C198 0.980 . S
H225 C198 0.983 . S
H226 C197 0.982 . S
H227 C197 0.979 . S
H228 C197 0.977 . S
H229 C199 0.948 . S
H230 C201 0.947 . S
H231 C202 0.948 . S
H232 C208 0.982 . S
H233 C208 0.979 . S
H234 C208 0.977 . S
H235 C209 0.979 . S
H236 C209 0.980 . S
H237 C209 0.983 . S
H238 C182 0.947 . S
C239 C182 1.392 . S
C239 C183 1.419 . S
C239 H221 0.948 . S
Zn240 O246 1.920 . S
Zn240 O252 1.898 . S
Zn240 O255 1.905 1_455 S
Zn241 O249 1.905 . S
Zn241 O250 1.898 . S
Zn241 O258 1.920 . S
Zn242 O245 2.080 . S
Zn242 O248 2.114 1_545 S
Zn242 O251 2.120 1_545 S
Zn242 O253 2.120 . S
Zn242 O254 2.114 . S
Zn242 O257 2.080 1_545 S
C243 O248 1.166 . S
C243 O249 1.182 . S
C244 O250 1.167 . S
C244 O251 1.299 . S
O245 Zn242 2.080 . S
O245 C259 1.305 . S
O246 Zn240 1.920 . S
O246 C259 1.234 . S
C247 O252 1.167 . S
C247 O253 1.299 . S
O248 Zn242 2.114 1_565 S
O248 C243 1.166 . S
O249 Zn241 1.905 . S
O249 C243 1.182 . S
O250 Zn241 1.898 . S
O250 C244 1.167 . S
O251 Zn242 2.120 1_565 S
O251 C244 1.299 . S
O252 Zn240 1.898 . S
O252 C247 1.167 . S
O253 Zn242 2.120 . S
O253 C247 1.299 . S
O254 Zn242 2.114 . S
O254 C256 1.166 1_455 S
O255 Zn240 1.905 1_655 S
O255 C256 1.182 . S
C256 O254 1.166 1_655 S
C256 O255 1.182 . S
O257 Zn242 2.080 1_565 S
O257 C260 1.305 . S
O258 Zn241 1.920 . S
O258 C260 1.234 . S
C259 O245 1.305 . S
C259 O246 1.234 . S
C260 O257 1.305 . S
C260 O258 1.234 . S
Zn261 O267 1.920 . S
Zn261 O273 1.898 . S
Zn261 O276 1.905 . S
Zn262 O270 1.905 . S
Zn262 O271 1.898 . S
Zn262 O279 1.920 . S
Zn263 O266 2.080 . S
Zn263 O269 2.114 . S
Zn263 O272 2.120 . S
Zn263 O274 2.120 . S
Zn263 O275 2.114 . S
Zn263 O278 2.080 . S
C264 O269 1.166 . S
C264 O270 1.182 . S
C265 O271 1.167 . S
C265 O272 1.299 . S
O266 Zn263 2.080 . S
O266 C280 1.305 . S
O267 Zn261 1.920 . S
O267 C280 1.234 . S
C268 O273 1.167 . S
C268 O274 1.299 . S
O269 Zn263 2.114 . S
O269 C264 1.166 . S
O270 Zn262 1.905 . S
O270 C264 1.182 . S
O271 Zn262 1.898 . S
O271 C265 1.167 . S
O272 Zn263 2.120 . S
O272 C265 1.299 . S
O273 Zn261 1.898 . S
O273 C268 1.167 . S
O274 Zn263 2.120 . S
O274 C268 1.299 . S
O275 Zn263 2.114 . S
O275 C277 1.166 . S
O276 Zn261 1.905 . S
O276 C277 1.182 . S
C277 O275 1.166 . S
C277 O276 1.182 . S
O278 Zn263 2.080 . S
O278 C281 1.305 . S
O279 Zn262 1.920 . S
O279 C281 1.234 . S
C280 O266 1.305 . S
C280 O267 1.234 . S
C281 O278 1.305 . S
C281 O279 1.234 . S
H282 C294 0.930 . S
H283 C296 0.930 . S
H284 C297 0.930 . S
H285 C301 0.959 . S
H286 C301 0.959 . S
H287 C301 0.961 . S
H288 C302 0.960 . S
H289 C302 0.961 . S
H290 C302 0.959 . S
H291 C305 0.929 . S
H292 C306 0.931 . S
H293 C308 0.930 . S
C294 H282 0.930 . S
C294 C295 1.399 . S
C294 C299 1.399 . S
C295 C294 1.399 . S
C295 C296 1.376 . S
C296 H283 0.930 . S
C296 C295 1.376 . S
C296 C297 1.388 . S
C297 H284 0.930 . S
C297 C296 1.388 . S
C297 C298 1.390 . S
C298 C297 1.390 . S
C298 C299 1.394 . S
C298 C304 1.465 . S
C299 C294 1.399 . S
C299 C298 1.394 . S
C299 C300 1.516 . S
C300 C299 1.516 . S
C300 C301 1.502 . S
C300 C302 1.561 . S
C300 C303 1.526 . S
C301 H285 0.959 . S
C301 H286 0.959 . S
C301 H287 0.961 . S
C301 C300 1.502 . S
C302 H288 0.960 . S
C302 H289 0.961 . S
C302 H290 0.959 . S
C302 C300 1.561 . S
C303 C300 1.526 . S
C303 C304 1.396 . S
C303 C308 1.390 . S
C304 C298 1.465 . S
C304 C303 1.396 . S
C304 C305 1.399 . S
C305 H291 0.929 . S
C305 C304 1.399 . S
C305 C306 1.385 . S
C306 H292 0.931 . S
C306 C305 1.385 . S
C306 C307 1.389 . S
C307 C306 1.389 . S
C307 C308 1.387 . S
C308 H293 0.930 . S
C308 C303 1.390 . S
C308 C307 1.387 . S
H309 C321 0.930 . S
H310 C323 0.930 . S
H311 C324 0.930 . S
H312 C328 0.959 . S
H313 C328 0.959 . S
H314 C328 0.961 . S
H315 C329 0.960 . S
H316 C329 0.961 . S
H317 C329 0.959 . S
H318 C332 0.929 1_655 S
H319 C333 0.931 . S
H320 C335 0.930 . S
C321 H309 0.930 . S
C321 C322 1.397 1_455 S
C321 C326 1.399 . S
C322 C321 1.397 1_655 S
C322 C323 1.378 . S
C323 H310 0.930 . S
C323 C322 1.378 . S
C323 C324 1.388 . S
C324 H311 0.930 . S
C324 C323 1.388 . S
C324 C325 1.390 1_655 S
C325 C324 1.390 1_455 S
C325 C326 1.394 . S
C325 C331 1.465 . S
C326 C321 1.399 . S
C326 C325 1.394 . S
C326 C327 1.516 . S
C327 C326 1.516 . S
C327 C328 1.502 . S
C327 C329 1.561 1_455 S
C327 C330 1.526 . S
C328 H312 0.959 . S
C328 H313 0.959 . S
C328 H314 0.961 . S
C328 C327 1.502 . S
C329 H315 0.960 . S
C329 H316 0.961 . S
C329 H317 0.959 . S
C329 C327 1.561 1_655 S
C330 C327 1.526 . S
C330 C331 1.396 . S
C330 C335 1.390 . S
C331 C325 1.465 . S
C331 C330 1.396 . S
C331 C332 1.399 . S
C332 H318 0.929 1_455 S
C332 C331 1.399 . S
C332 C333 1.385 . S
C333 H319 0.931 . S
C333 C332 1.385 . S
C333 C334 1.389 . S
C334 C333 1.389 . S
C334 C335 1.387 . S
C335 H320 0.930 . S
C335 C330 1.390 . S
C335 C334 1.387 . S
H336 C348 0.930 . S
H337 C350 0.930 . S
H338 C351 0.930 . S
H339 C355 0.959 . S
H340 C355 0.959 . S
H341 C355 0.961 . S
H342 C356 0.960 . S
H343 C356 0.961 . S
H344 C356 0.959 . S
H345 C359 0.929 . S
H346 C360 0.931 . S
H347 C362 0.930 . S
C348 H336 0.930 . S
C348 C349 1.399 . S
C348 C353 1.399 . S
C349 C348 1.399 . S
C349 C350 1.376 . S
C350 H337 0.930 . S
C350 C349 1.376 . S
C350 C351 1.388 . S
C351 H338 0.930 . S
C351 C350 1.388 . S
C351 C352 1.390 . S
C352 C351 1.390 . S
C352 C353 1.394 . S
C352 C358 1.465 . S
C353 C348 1.399 . S
C353 C352 1.394 . S
C353 C354 1.516 . S
C354 C353 1.516 . S
C354 C355 1.502 . S
C354 C356 1.561 . S
C354 C357 1.526 . S
C355 H339 0.959 . S
C355 H340 0.959 . S
C355 H341 0.961 . S
C355 C354 1.502 . S
C356 H342 0.960 . S
C356 H343 0.961 . S
C356 H344 0.959 . S
C356 C354 1.561 . S
C357 C354 1.526 . S
C357 C358 1.396 . S
C357 C362 1.390 . S
C358 C352 1.465 . S
C358 C357 1.396 . S
C358 C359 1.399 . S
C359 H345 0.929 . S
C359 C358 1.399 . S
C359 C360 1.385 . S
C360 H346 0.931 . S
C360 C359 1.385 . S
C360 C361 1.389 . S
C361 C360 1.389 . S
C361 C362 1.387 . S
C362 H347 0.930 . S
C362 C357 1.390 . S
C362 C361 1.387 . S
H363 C375 0.930 . S
H364 C377 0.930 . S
H365 C378 0.930 . S
H366 C382 0.959 . S
H367 C382 0.959 . S
H368 C382 0.961 . S
H369 C383 0.960 . S
H370 C383 0.961 . S
H371 C383 0.959 . S
H372 C386 0.929 . S
H373 C387 0.931 . S
H374 C389 0.930 . S
C375 H363 0.930 . S
C375 C376 1.399 . S
C375 C380 1.399 . S
C376 C375 1.399 . S
C376 C377 1.376 . S
C377 H364 0.930 . S
C377 C376 1.376 . S
C377 C378 1.388 . S
C378 H365 0.930 . S
C378 C377 1.388 . S
C378 C379 1.390 . S
C379 C378 1.390 . S
C379 C380 1.394 . S
C379 C385 1.465 . S
C380 C375 1.399 . S
C380 C379 1.394 . S
C380 C381 1.516 . S
C381 C380 1.516 . S
C381 C382 1.502 . S
C381 C383 1.561 . S
C381 C384 1.526 . S
C382 H366 0.959 . S
C382 H367 0.959 . S
C382 H368 0.961 . S
C382 C381 1.502 . S
C383 H369 0.960 . S
C383 H370 0.961 . S
C383 H371 0.959 . S
C383 C381 1.561 . S
C384 C381 1.526 . S
C384 C385 1.396 . S
C384 C389 1.390 . S
C385 C379 1.465 . S
C385 C384 1.396 . S
C385 C386 1.399 . S
C386 H372 0.929 . S
C386 C385 1.399 . S
C386 C387 1.385 . S
C387 H373 0.931 . S
C387 C386 1.385 . S
C387 C388 1.389 . S
C388 C387 1.389 . S
C388 C389 1.387 . S
C389 H374 0.930 . S
C389 C384 1.390 . S
C389 C388 1.387 . S
H390 C402 0.930 . S
H391 C404 0.930 . S
H392 C405 0.930 . S
H393 C409 0.959 . S
H394 C409 0.959 . S
H395 C409 0.961 . S
H396 C410 0.960 . S
H397 C410 0.961 . S
H398 C410 0.959 . S
H399 C413 0.929 . S
H400 C414 0.931 . S
H401 C416 0.930 . S
C402 H390 0.930 . S
C402 C403 1.399 . S
C402 C407 1.399 . S
C403 C402 1.399 . S
C403 C404 1.376 . S
C404 H391 0.930 . S
C404 C403 1.376 . S
C404 C405 1.388 . S
C405 H392 0.930 . S
C405 C404 1.388 . S
C405 C406 1.390 . S
C406 C405 1.390 . S
C406 C407 1.394 . S
C406 C412 1.465 . S
C407 C402 1.399 . S
C407 C406 1.394 . S
C407 C408 1.516 . S
C408 C407 1.516 . S
C408 C409 1.502 . S
C408 C410 1.561 1_556 S
C408 C411 1.526 . S
C409 H393 0.959 . S
C409 H394 0.959 . S
C409 H395 0.961 . S
C409 C408 1.502 . S
C410 H396 0.960 . S
C410 H397 0.961 . S
C410 H398 0.959 . S
C410 C408 1.561 1_554 S
C411 C408 1.526 . S
C411 C412 1.396 . S
C411 C416 1.390 . S
C412 C406 1.465 . S
C412 C411 1.396 . S
C412 C413 1.399 . S
C413 H399 0.929 . S
C413 C412 1.399 . S
C413 C414 1.385 . S
C414 H400 0.931 . S
C414 C413 1.385 . S
C414 C415 1.389 . S
C415 C414 1.389 . S
C415 C416 1.387 . S
C416 H401 0.930 . S
C416 C411 1.390 . S
C416 C415 1.387 . S
H417 C429 0.930 1_554 S
H418 C431 0.930 . S
H419 C432 0.930 . S
H420 C436 0.959 1_556 S
H421 C436 0.959 . S
H422 C436 0.961 . S
H423 C437 0.960 . S
H424 C437 0.961 . S
H425 C437 0.968 . S
H426 C440 0.929 . S
H427 C441 0.931 . S
H428 C443 0.930 . S
C429 H417 0.930 1_556 S
C429 C430 1.399 . S
C429 C434 1.399 . S
C430 C429 1.399 . S
C430 C431 1.376 . S
C431 H418 0.930 . S
C431 C430 1.376 . S
C431 C432 1.388 . S
C432 H419 0.930 . S
C432 C431 1.388 . S
C432 C433 1.390 . S
C433 C432 1.390 . S
C433 C434 1.394 . S
C433 C439 1.465 . S
C434 C429 1.399 . S
C434 C433 1.394 . S
C434 C435 1.516 . S
C435 C434 1.516 . S
C435 C436 1.502 1_556 S
C435 C437 1.561 1_556 S
C435 C438 1.526 . S
C436 H420 0.959 1_554 S
C436 H421 0.959 . S
C436 H422 0.961 . S
C436 C435 1.502 1_554 S
C437 H423 0.960 . S
C437 H424 0.961 . S
C437 H425 0.968 . S
C437 C435 1.561 1_554 S
C438 C435 1.526 . S
C438 C439 1.396 . S
C438 C443 1.390 . S
C439 C433 1.465 . S
C439 C438 1.396 . S
C439 C440 1.399 . S
C440 H426 0.929 . S
C440 C439 1.399 . S
C440 C441 1.385 . S
C441 H427 0.931 . S
C441 C440 1.385 . S
C441 C442 1.389 . S
C442 C441 1.389 . S
C442 C443 1.387 . S
C443 H428 0.930 . S
C443 C438 1.390 . S
C443 C442 1.387 . S
H444 C456 0.930 . S
H445 C458 0.930 . S
H446 C459 0.930 . S
H447 C463 0.959 . S
H448 C463 0.959 . S
H449 C463 0.961 1_554 S
H450 C464 0.960 . S
H451 C464 0.961 . S
H452 C464 0.959 . S
H453 C467 0.929 . S
H454 C468 0.931 . S
H455 C470 0.930 . S
C456 H444 0.930 . S
C456 C457 1.399 . S
C456 C461 1.399 . S
C457 C456 1.399 . S
C457 C458 1.376 . S
C458 H445 0.930 . S
C458 C457 1.376 . S
C458 C459 1.388 . S
C459 H446 0.930 . S
C459 C458 1.388 . S
C459 C460 1.390 . S
C460 C459 1.390 . S
C460 C461 1.394 . S
C460 C466 1.465 . S
C461 C456 1.399 . S
C461 C460 1.394 . S
C461 C462 1.516 . S
C462 C461 1.516 . S
C462 C463 1.502 . S
C462 C464 1.561 . S
C462 C465 1.526 . S
C463 H447 0.959 . S
C463 H448 0.959 . S
C463 H449 0.961 1_556 S
C463 C462 1.502 . S
C464 H450 0.960 . S
C464 H451 0.961 . S
C464 H452 0.959 . S
C464 C462 1.561 . S
C465 C462 1.526 . S
C465 C466 1.396 . S
C465 C470 1.390 . S
C466 C460 1.465 . S
C466 C465 1.396 . S
C466 C467 1.399 . S
C467 H453 0.929 . S
C467 C466 1.399 . S
C467 C468 1.385 . S
C468 H454 0.931 . S
C468 C467 1.385 . S
C468 C469 1.389 . S
C469 C468 1.389 . S
C469 C470 1.387 . S
C470 H455 0.930 . S
C470 C465 1.390 . S
C470 C469 1.387 . S
H471 C483 0.930 . S
H472 C485 0.930 1_554 S
H473 C486 0.930 . S
H474 C490 0.959 . S
H475 C490 0.959 . S
H476 C490 0.961 . S
H477 C491 0.960 . S
H478 C491 0.961 . S
H479 C491 0.959 . S
H480 C494 0.929 . S
H481 C495 0.931 . S
H482 C497 0.930 . S
C483 H471 0.930 . S
C483 C484 1.399 . S
C483 C488 1.399 . S
C484 C483 1.399 . S
C484 C485 1.376 . S
C485 H472 0.930 1_556 S
C485 C484 1.376 . S
C485 C486 1.388 . S
C486 H473 0.930 . S
C486 C485 1.388 . S
C486 C487 1.390 . S
C487 C486 1.390 . S
C487 C488 1.394 . S
C487 C493 1.465 . S
C488 C483 1.399 . S
C488 C487 1.394 . S
C488 C489 1.516 . S
C489 C488 1.516 . S
C489 C490 1.502 . S
C489 C491 1.561 . S
C489 C492 1.526 . S
C490 H474 0.959 . S
C490 H475 0.959 . S
C490 H476 0.961 . S
C490 C489 1.502 . S
C491 H477 0.960 . S
C491 H478 0.961 . S
C491 H479 0.959 . S
C491 C489 1.561 . S
C492 C489 1.526 . S
C492 C493 1.396 . S
C492 C497 1.390 . S
C493 C487 1.465 . S
C493 C492 1.396 . S
C493 C494 1.399 . S
C494 H480 0.929 . S
C494 C493 1.399 . S
C494 C495 1.385 . S
C495 H481 0.931 . S
C495 C494 1.385 . S
C495 C496 1.389 . S
C496 C495 1.389 . S
C496 C497 1.387 . S
C497 H482 0.930 . S
C497 C492 1.390 . S
C497 C496 1.387 . S
H498 C510 0.930 . S
H499 C512 0.930 . S
H500 C513 0.930 . S
H501 C517 0.959 . S
H502 C517 0.959 1_455 S
H503 C517 0.961 . S
H504 C518 0.960 . S
H505 C518 0.961 . S
H506 C518 0.959 . S
H507 C521 0.929 . S
H508 C522 0.931 . S
H509 C524 0.930 1_455 S
C510 H498 0.930 . S
C510 C511 1.399 . S
C510 C515 1.399 . S
C511 C510 1.399 . S
C511 C512 1.376 . S
C512 H499 0.930 . S
C512 C511 1.376 . S
C512 C513 1.388 . S
C513 H500 0.930 . S
C513 C512 1.388 . S
C513 C514 1.390 . S
C514 C513 1.390 . S
C514 C515 1.394 . S
C514 C520 1.465 . S
C515 C510 1.399 . S
C515 C514 1.394 . S
C515 C516 1.516 . S
C516 C515 1.516 . S
C516 C517 1.502 . S
C516 C518 1.561 . S
C516 C519 1.526 . S
C517 H501 0.959 . S
C517 H502 0.959 1_655 S
C517 H503 0.961 . S
C517 C516 1.502 . S
C518 H504 0.960 . S
C518 H505 0.961 . S
C518 H506 0.959 . S
C518 C516 1.561 . S
C519 C516 1.526 . S
C519 C520 1.396 . S
C519 C524 1.390 . S
C520 C514 1.465 . S
C520 C519 1.396 . S
C520 C521 1.399 . S
C521 H507 0.929 . S
C521 C520 1.399 . S
C521 C522 1.385 . S
C522 H508 0.931 . S
C522 C521 1.385 . S
C522 C523 1.389 . S
C523 C522 1.389 . S
C523 C524 1.387 . S
C524 H509 0.930 1_655 S
C524 C519 1.390 . S
C524 C523 1.387 . S
H525 C537 0.930 . S
H526 C539 0.930 . S
H527 C540 0.930 . S
H528 C544 0.959 . S
H529 C544 0.959 . S
H530 C544 0.961 . S
H531 C545 0.960 . S
H532 C545 0.961 . S
H533 C545 0.959 . S
H534 C548 0.929 . S
H535 C549 0.931 . S
H536 C551 0.930 . S
C537 H525 0.930 . S
C537 C538 1.399 . S
C537 C542 1.399 . S
C538 C537 1.399 . S
C538 C539 1.376 . S
C539 H526 0.930 . S
C539 C538 1.376 . S
C539 C540 1.388 . S
C540 H527 0.930 . S
C540 C539 1.388 . S
C540 C541 1.390 . S
C541 C540 1.390 . S
C541 C542 1.394 . S
C541 C547 1.465 . S
C542 C537 1.399 . S
C542 C541 1.394 . S
C542 C543 1.516 . S
C543 C542 1.516 . S
C543 C544 1.502 . S
C543 C545 1.561 . S
C543 C546 1.526 . S
C544 H528 0.959 . S
C544 H529 0.959 . S
C544 H530 0.961 . S
C544 C543 1.502 . S
C545 H531 0.960 . S
C545 H532 0.961 . S
C545 H533 0.959 . S
C545 C543 1.561 . S
C546 C543 1.526 . S
C546 C547 1.396 . S
C546 C551 1.390 . S
C547 C541 1.465 . S
C547 C546 1.396 . S
C547 C548 1.399 . S
C548 H534 0.929 . S
C548 C547 1.399 . S
C548 C549 1.385 . S
C549 H535 0.931 . S
C549 C548 1.385 . S
C549 C550 1.389 . S
C550 C549 1.389 . S
C550 C551 1.387 . S
C551 H536 0.930 . S
C551 C546 1.390 . S
C551 C550 1.387 . S
H552 C564 0.930 . S
H553 C566 0.930 . S
H554 C567 0.930 . S
H555 C571 0.959 . S
H556 C571 0.959 . S
H557 C571 0.961 . S
H558 C572 0.960 . S
H559 C572 0.961 . S
H560 C572 0.959 . S
H561 C575 0.929 . S
H562 C576 0.931 . S
H563 C578 0.930 . S
C564 H552 0.930 . S
C564 C565 1.399 . S
C564 C569 1.399 . S
C565 C564 1.399 . S
C565 C566 1.376 . S
C566 H553 0.930 . S
C566 C565 1.376 . S
C566 C567 1.388 . S
C567 H554 0.930 . S
C567 C566 1.388 . S
C567 C568 1.390 . S
C568 C567 1.390 . S
C568 C569 1.394 . S
C568 C574 1.465 . S
C569 C564 1.399 . S
C569 C568 1.394 . S
C569 C570 1.516 . S
C570 C569 1.516 . S
C570 C571 1.502 . S
C570 C572 1.561 . S
C570 C573 1.526 . S
C571 H555 0.959 . S
C571 H556 0.959 . S
C571 H557 0.961 . S
C571 C570 1.502 . S
C572 H558 0.960 . S
C572 H559 0.961 . S
C572 H560 0.959 . S
C572 C570 1.561 . S
C573 C570 1.526 . S
C573 C574 1.396 . S
C573 C578 1.390 . S
C574 C568 1.465 . S
C574 C573 1.396 . S
C574 C575 1.399 . S
C575 H561 0.929 . S
C575 C574 1.399 . S
C575 C576 1.385 . S
C576 H562 0.931 . S
C576 C575 1.385 . S
C576 C577 1.389 . S
C577 C576 1.389 . S
C577 C578 1.387 . S
C578 H563 0.930 . S
C578 C573 1.390 . S
C578 C577 1.387 . S
H579 C591 0.930 . S
H580 C593 0.930 . S
H581 C594 0.930 . S
H582 C598 0.959 . S
H583 C598 0.959 . S
H584 C598 0.961 . S
H585 C599 0.960 . S
H586 C599 0.961 . S
H587 C599 0.959 . S
H588 C602 0.929 . S
H589 C603 0.931 . S
H590 C605 0.930 . S
C591 H579 0.930 . S
C591 C592 1.399 . S
C591 C596 1.399 . S
C592 C591 1.399 . S
C592 C593 1.376 . S
C593 H580 0.930 . S
C593 C592 1.376 . S
C593 C594 1.388 . S
C594 H581 0.930 . S
C594 C593 1.388 . S
C594 C595 1.390 . S
C595 C594 1.390 . S
C595 C596 1.394 . S
C595 C601 1.465 . S
C596 C591 1.399 . S
C596 C595 1.394 . S
C596 C597 1.516 . S
C597 C596 1.516 . S
C597 C598 1.502 . S
C597 C599 1.561 . S
C597 C600 1.526 . S
C598 H582 0.959 . S
C598 H583 0.959 . S
C598 H584 0.961 . S
C598 C597 1.502 . S
C599 H585 0.960 . S
C599 H586 0.961 . S
C599 H587 0.959 . S
C599 C597 1.561 . S
C600 C597 1.526 . S
C600 C601 1.396 . S
C600 C605 1.390 . S
C601 C595 1.465 . S
C601 C600 1.396 . S
C601 C602 1.399 . S
C602 H588 0.929 . S
C602 C601 1.399 . S
C602 C603 1.385 . S
C603 H589 0.931 . S
C603 C602 1.385 . S
C603 C604 1.389 . S
C604 C603 1.389 . S
C604 C605 1.387 . S
C605 H590 0.930 . S
C605 C600 1.390 . S
C605 C604 1.387 . S
C307 C247 1.389 . S
C295 C1 1.518 . S
C334 C243 1.397 . S
C322 C91 1.460 1_655 S
C361 C268 1.468 . S
C349 C121 1.541 . S
C376 C211 1.432 . S
C388 C264 1.387 . S
C403 C20 1.234 . S
C415 C265 0.985 . S
C442 C280 1.017 . S
C430 C80 1.264 . S
C457 C31 1.706 . S
C469 C281 1.538 . S
C496 C277 1.570 . S
C484 C61 1.656 . S
C523 C244 1.159 1_655 S
C511 C140 1.154 . S
C538 C200 1.262 . S
C550 C259 1.012 . S
C577 C260 1.598 . S
C565 C151 1.701 . S
C604 C256 1.543 . S
C592 C181 1.672 . S
