# Generated by pormake.
# Topology ctn, (3,4)-cn, num edge types: 1
# Building blocks:
#     Node 0, Type 0, BuildingBlock: BELTOD_clean_linker_0, # of connection points: 3
#     Node 1, Type 0, BuildingBlock: BELTOD_clean_linker_0, # of connection points: 3
#     Node 2, Type 0, BuildingBlock: BELTOD_clean_linker_0, # of connection points: 3
#     Node 3, Type 0, BuildingBlock: BELTOD_clean_linker_0, # of connection points: 3
#     Node 4, Type 0, BuildingBlock: BELTOD_clean_linker_0, # of connection points: 3
#     Node 5, Type 0, BuildingBlock: BELTOD_clean_linker_0, # of connection points: 3
#     Node 6, Type 0, BuildingBlock: BELTOD_clean_linker_0, # of connection points: 3
#     Node 7, Type 0, BuildingBlock: BELTOD_clean_linker_0, # of connection points: 3
#     Node 8, Type 0, BuildingBlock: BELTOD_clean_linker_0, # of connection points: 3
#     Node 9, Type 0, BuildingBlock: BELTOD_clean_linker_0, # of connection points: 3
#     Node 10, Type 0, BuildingBlock: BELTOD_clean_linker_0, # of connection points: 3
#     Node 11, Type 0, BuildingBlock: BELTOD_clean_linker_0, # of connection points: 3
#     Node 12, Type 0, BuildingBlock: BELTOD_clean_linker_0, # of connection points: 3
#     Node 13, Type 0, BuildingBlock: BELTOD_clean_linker_0, # of connection points: 3
#     Node 14, Type 0, BuildingBlock: BELTOD_clean_linker_0, # of connection points: 3
#     Node 15, Type 0, BuildingBlock: BELTOD_clean_linker_0, # of connection points: 3
#     Node 16, Type 1, BuildingBlock: KUFVIS_clean_sbu_0, # of connection points: 4
#     Node 17, Type 1, BuildingBlock: KUFVIS_clean_sbu_0, # of connection points: 4
#     Node 18, Type 1, BuildingBlock: KUFVIS_clean_sbu_0, # of connection points: 4
#     Node 19, Type 1, BuildingBlock: KUFVIS_clean_sbu_0, # of connection points: 4
#     Node 20, Type 1, BuildingBlock: KUFVIS_clean_sbu_0, # of connection points: 4
#     Node 21, Type 1, BuildingBlock: KUFVIS_clean_sbu_0, # of connection points: 4
#     Node 22, Type 1, BuildingBlock: KUFVIS_clean_sbu_0, # of connection points: 4
#     Node 23, Type 1, BuildingBlock: KUFVIS_clean_sbu_0, # of connection points: 4
#     Node 24, Type 1, BuildingBlock: KUFVIS_clean_sbu_0, # of connection points: 4
#     Node 25, Type 1, BuildingBlock: KUFVIS_clean_sbu_0, # of connection points: 4
#     Node 26, Type 1, BuildingBlock: KUFVIS_clean_sbu_0, # of connection points: 4
#     Node 27, Type 1, BuildingBlock: KUFVIS_clean_sbu_0, # of connection points: 4
#     Edge 28, Type (0, 1), BuildingBlock: UVAHIK_clean_linker_0, # of connection points: 2
#     Edge 29, Type (0, 1), BuildingBlock: UVAHIK_clean_linker_0, # of connection points: 2
#     Edge 30, Type (0, 1), BuildingBlock: UVAHIK_clean_linker_0, # of connection points: 2
#     Edge 31, Type (0, 1), BuildingBlock: UVAHIK_clean_linker_0, # of connection points: 2
#     Edge 32, Type (0, 1), BuildingBlock: UVAHIK_clean_linker_0, # of connection points: 2
#     Edge 33, Type (0, 1), BuildingBlock: UVAHIK_clean_linker_0, # of connection points: 2
#     Edge 34, Type (0, 1), BuildingBlock: UVAHIK_clean_linker_0, # of connection points: 2
#     Edge 35, Type (0, 1), BuildingBlock: UVAHIK_clean_linker_0, # of connection points: 2
#     Edge 36, Type (0, 1), BuildingBlock: UVAHIK_clean_linker_0, # of connection points: 2
#     Edge 37, Type (0, 1), BuildingBlock: UVAHIK_clean_linker_0, # of connection points: 2
#     Edge 38, Type (0, 1), BuildingBlock: UVAHIK_clean_linker_0, # of connection points: 2
#     Edge 39, Type (0, 1), BuildingBlock: UVAHIK_clean_linker_0, # of connection points: 2
#     Edge 40, Type (0, 1), BuildingBlock: UVAHIK_clean_linker_0, # of connection points: 2
#     Edge 41, Type (0, 1), BuildingBlock: UVAHIK_clean_linker_0, # of connection points: 2
#     Edge 42, Type (0, 1), BuildingBlock: UVAHIK_clean_linker_0, # of connection points: 2
#     Edge 43, Type (0, 1), BuildingBlock: UVAHIK_clean_linker_0, # of connection points: 2
#     Edge 44, Type (0, 1), BuildingBlock: UVAHIK_clean_linker_0, # of connection points: 2
#     Edge 45, Type (0, 1), BuildingBlock: UVAHIK_clean_linker_0, # of connection points: 2
#     Edge 46, Type (0, 1), BuildingBlock: UVAHIK_clean_linker_0, # of connection points: 2
#     Edge 47, Type (0, 1), BuildingBlock: UVAHIK_clean_linker_0, # of connection points: 2
#     Edge 48, Type (0, 1), BuildingBlock: UVAHIK_clean_linker_0, # of connection points: 2
#     Edge 49, Type (0, 1), BuildingBlock: UVAHIK_clean_linker_0, # of connection points: 2
#     Edge 50, Type (0, 1), BuildingBlock: UVAHIK_clean_linker_0, # of connection points: 2
#     Edge 51, Type (0, 1), BuildingBlock: UVAHIK_clean_linker_0, # of connection points: 2
#     Edge 52, Type (0, 1), BuildingBlock: UVAHIK_clean_linker_0, # of connection points: 2
#     Edge 53, Type (0, 1), BuildingBlock: UVAHIK_clean_linker_0, # of connection points: 2
#     Edge 54, Type (0, 1), BuildingBlock: UVAHIK_clean_linker_0, # of connection points: 2
#     Edge 55, Type (0, 1), BuildingBlock: UVAHIK_clean_linker_0, # of connection points: 2
#     Edge 56, Type (0, 1), BuildingBlock: UVAHIK_clean_linker_0, # of connection points: 2
#     Edge 57, Type (0, 1), BuildingBlock: UVAHIK_clean_linker_0, # of connection points: 2
#     Edge 58, Type (0, 1), BuildingBlock: UVAHIK_clean_linker_0, # of connection points: 2
#     Edge 59, Type (0, 1), BuildingBlock: UVAHIK_clean_linker_0, # of connection points: 2
#     Edge 60, Type (0, 1), BuildingBlock: UVAHIK_clean_linker_0, # of connection points: 2
#     Edge 61, Type (0, 1), BuildingBlock: UVAHIK_clean_linker_0, # of connection points: 2
#     Edge 62, Type (0, 1), BuildingBlock: UVAHIK_clean_linker_0, # of connection points: 2
#     Edge 63, Type (0, 1), BuildingBlock: UVAHIK_clean_linker_0, # of connection points: 2
#     Edge 64, Type (0, 1), BuildingBlock: UVAHIK_clean_linker_0, # of connection points: 2
#     Edge 65, Type (0, 1), BuildingBlock: UVAHIK_clean_linker_0, # of connection points: 2
#     Edge 66, Type (0, 1), BuildingBlock: UVAHIK_clean_linker_0, # of connection points: 2
#     Edge 67, Type (0, 1), BuildingBlock: UVAHIK_clean_linker_0, # of connection points: 2
#     Edge 68, Type (0, 1), BuildingBlock: UVAHIK_clean_linker_0, # of connection points: 2
#     Edge 69, Type (0, 1), BuildingBlock: UVAHIK_clean_linker_0, # of connection points: 2
#     Edge 70, Type (0, 1), BuildingBlock: UVAHIK_clean_linker_0, # of connection points: 2
#     Edge 71, Type (0, 1), BuildingBlock: UVAHIK_clean_linker_0, # of connection points: 2
#     Edge 72, Type (0, 1), BuildingBlock: UVAHIK_clean_linker_0, # of connection points: 2
#     Edge 73, Type (0, 1), BuildingBlock: UVAHIK_clean_linker_0, # of connection points: 2
#     Edge 74, Type (0, 1), BuildingBlock: UVAHIK_clean_linker_0, # of connection points: 2
#     Edge 75, Type (0, 1), BuildingBlock: UVAHIK_clean_linker_0, # of connection points: 2
# Relax obj value: 0.013
# Max RMSD: 0.066
# Mean RMSD: 0.034
data_MOF--net-ctn--node1-KUFVIS_clean_sbu_0--node2-BELTOD_clean_linker_0--edge1-UVAHIK_clean_linker_0
_symmetry_space_group_name_H-M    P1
_symmetry_Int_Tables_number       1
_symmetry_cell_setting            triclinic
loop_
_symmetry_equiv_pos_as_xyz
'x, y, z'
_cell_length_a     77.784457
_cell_length_b     78.15436
_cell_length_c     77.853577
_cell_angle_alpha  90.28401
_cell_angle_beta   90.344419
_cell_angle_gamma 92.21367
loop_
_atom_site_label
_atom_site_type_symbol
_atom_site_fract_x
_atom_site_fract_y
_atom_site_fract_z
_atom_type_partial_charge
P0 P 0.06392 0.06267 0.06706 0.0
H1 H 0.06322 0.05705 0.10391 0.0
H2 H 0.04161 0.04453 0.12326 0.0
H3 H 0.0076 0.03421 0.08011 0.0
H4 H 0.02959 0.04635 0.06063 0.0
H5 H 0.09523 0.04921 0.08142 0.0
H6 H 0.11392 0.02655 0.07234 0.0
H7 H 0.08067 0.0158 0.02862 0.0
H8 H 0.06207 0.03877 0.03776 0.0
H9 H 0.03093 0.07914 0.06095 0.0
H10 H 0.07923 0.07405 0.03484 0.0
O11 O 0.0759 0.0767 0.07866 0.0
H12 H 0.02117 0.09793 0.03814 0.0
H13 H 0.06971 0.09339 0.01233 0.0
C14 C 0.04774 0.05322 0.08092 0.0
C15 C 0.05111 0.05215 0.09858 0.0
C16 C 0.03881 0.04488 0.10962 0.0
C17 C 0.02288 0.03857 0.10319 0.0
C18 C 0.01969 0.03922 0.0854 0.0
C19 C 0.03219 0.04621 0.07431 0.0
C20 C 0.07752 0.04593 0.06003 0.0
C21 C 0.09201 0.04206 0.06982 0.0
C22 C 0.10261 0.02898 0.06469 0.0
C23 C 0.09883 0.01938 0.04972 0.0
C24 C 0.08408 0.02312 0.04007 0.0
C25 C 0.07343 0.03621 0.04528 0.0
C26 C 0.05556 0.07456 0.04926 0.0
C27 C 0.03925 0.0816 0.05009 0.0
C28 C 0.03371 0.09247 0.03712 0.0
C29 C 0.04465 0.09698 0.02344 0.0
C30 C 0.06101 0.09003 0.0227 0.0
C31 C 0.06639 0.07889 0.03548 0.0
P32 P 0.3335 0.6753 0.1736 0.0
H33 H 0.35177 0.69496 0.14734 0.0
H34 H 0.34547 0.72115 0.13196 0.0
H35 H 0.29806 0.72459 0.16029 0.0
H36 H 0.30487 0.69872 0.17608 0.0
H37 H 0.36691 0.66383 0.18555 0.0
H38 H 0.38468 0.67131 0.21063 0.0
H39 H 0.34634 0.70607 0.22775 0.0
H40 H 0.32875 0.6987 0.20239 0.0
H41 H 0.30043 0.66808 0.15646 0.0
H42 H 0.32506 0.65482 0.20409 0.0
O43 O 0.34447 0.66297 0.16034 0.0
H44 H 0.27502 0.65052 0.16431 0.0
H45 H 0.30003 0.63686 0.21177 0.0
C46 C 0.32854 0.69464 0.16245 0.0
C47 C 0.33999 0.70133 0.15018 0.0
C48 C 0.33633 0.71629 0.14135 0.0
C49 C 0.32112 0.72489 0.14468 0.0
C50 C 0.30992 0.71838 0.15742 0.0
C51 C 0.31368 0.70346 0.16633 0.0
C52 C 0.34663 0.6809 0.19203 0.0
C53 C 0.36235 0.67311 0.19465 0.0
C54 C 0.37244 0.6773 0.20909 0.0
C55 C 0.36694 0.68931 0.2212 0.0
C56 C 0.35107 0.69696 0.21855 0.0
C57 C 0.34098 0.69275 0.2041 0.0
C58 C 0.31442 0.66319 0.17992 0.0
C59 C 0.30029 0.66154 0.16869 0.0
C60 C 0.28585 0.65133 0.17312 0.0
C61 C 0.2854 0.64233 0.18874 0.0
C62 C 0.29973 0.64389 0.19983 0.0
C63 C 0.31412 0.65417 0.19543 0.0
P64 P 0.9885 0.4892 0.01748 0.0
H65 H 0.99378 0.47822 0.98214 0.0
H66 H 0.99399 0.45005 0.96838 0.0
H67 H 0.98065 0.42626 0.01675 0.0
H68 H 0.98025 0.45458 0.03036 0.0
H69 H 0.98028 0.5247 0.02251 0.0
H70 H 0.95351 0.53995 0.02118 0.0
H71 H 0.92551 0.49234 0.00987 0.0
H72 H 0.9525 0.4772 0.01098 0.0
H73 H 0.02169 0.48051 0.03146 0.0
H74 H 0.97231 0.49379 0.05135 0.0
O75 O 0.00296 0.50136 0.00689 0.0
H76 H 0.03339 0.48004 0.06066 0.0
H77 H 0.98386 0.49321 0.08061 0.0
C78 C 0.98732 0.46844 0.00732 0.0
C79 C 0.99087 0.46694 0.98977 0.0
C80 C 0.99108 0.45082 0.98195 0.0
C81 C 0.98757 0.43588 0.99152 0.0
C82 C 0.98338 0.4375 0.00901 0.0
C83 C 0.98323 0.45367 0.01683 0.0
C84 C 0.96841 0.49989 0.01661 0.0
C85 C 0.96838 0.51756 0.0197 0.0
C86 C 0.95303 0.52624 0.01907 0.0
C87 C 0.93733 0.51738 0.0154 0.0
C88 C 0.9374 0.49958 0.01249 0.0
C89 C 0.95281 0.49089 0.01318 0.0
C90 C 0.99625 0.48747 0.03922 0.0
C91 C 0.01334 0.48319 0.04215 0.0
C92 C 0.01997 0.48281 0.05886 0.0
C93 C 0.00959 0.4867 0.07298 0.0
C94 C 0.99226 0.49042 0.07 0.0
C95 C 0.98563 0.49073 0.05326 0.0
P96 P 0.66802 0.82973 0.17347 0.0
H97 H 0.67817 0.86423 0.16169 0.0
H98 H 0.70213 0.88398 0.16945 0.0
H99 H 0.7204 0.84708 0.20576 0.0
H100 H 0.6963 0.82747 0.19803 0.0
H101 H 0.65746 0.79316 0.17021 0.0
H102 H 0.66806 0.77002 0.15221 0.0
H103 H 0.70694 0.80489 0.13154 0.0
H104 H 0.69661 0.82781 0.14972 0.0
H105 H 0.63899 0.84453 0.19056 0.0
H106 H 0.67242 0.80265 0.19924 0.0
O107 O 0.65456 0.83943 0.16026 0.0
H108 H 0.62373 0.83772 0.21711 0.0
H109 H 0.65708 0.79567 0.2259 0.0
C110 C 0.68534 0.8445 0.17948 0.0
C111 C 0.68726 0.86044 0.17139 0.0
C112 C 0.70104 0.87166 0.17574 0.0
C113 C 0.71314 0.86712 0.18825 0.0
C114 C 0.71116 0.85107 0.19627 0.0
C115 C 0.69741 0.83984 0.19185 0.0
C116 C 0.67661 0.81208 0.16176 0.0
C117 C 0.66855 0.79571 0.16217 0.0
C118 C 0.67456 0.78252 0.15183 0.0
C119 C 0.68835 0.78568 0.14055 0.0
C120 C 0.69629 0.80211 0.14011 0.0
C121 C 0.69046 0.81518 0.15061 0.0
C122 C 0.65648 0.82377 0.19265 0.0
C123 C 0.64293 0.83373 0.19809 0.0
C124 C 0.63432 0.82994 0.21337 0.0
C125 C 0.63916 0.81612 0.22357 0.0
C126 C 0.6529 0.80624 0.21818 0.0
C127 C 0.66164 0.81018 0.20294 0.0
P128 P 0.05276 0.94832 0.45641 0.0
H129 H 0.07772 0.94939 0.4847 0.0
H130 H 0.09962 0.97103 0.49383 0.0
H131 H 0.0812 0.00566 0.45549 0.0
H132 H 0.0591 0.98438 0.44677 0.0
H133 H 0.04085 0.91268 0.45564 0.0
H134 H 0.02901 0.89329 0.47743 0.0
H135 H 0.03142 0.93454 0.51464 0.0
H136 H 0.04329 0.95394 0.49264 0.0
H137 H 0.05353 0.96089 0.42132 0.0
H138 H 0.01576 0.95379 0.46125 0.0
O139 O 0.06526 0.93634 0.44429 0.0
H140 H 0.03137 0.97132 0.402 0.0
H141 H 0.99344 0.96389 0.44181 0.0
C142 C 0.06652 0.96531 0.46524 0.0
C143 C 0.07804 0.96183 0.47862 0.0
C144 C 0.09058 0.97415 0.4838 0.0
C145 C 0.09207 0.98994 0.47531 0.0
C146 C 0.08032 0.99353 0.46219 0.0
C147 C 0.06762 0.98135 0.45724 0.0
C148 C 0.0434 0.93459 0.47266 0.0
C149 C 0.03885 0.91756 0.46849 0.0
C150 C 0.03194 0.90652 0.48093 0.0
C151 C 0.02938 0.91235 0.4978 0.0
C152 C 0.0335 0.92961 0.50182 0.0
C153 C 0.04029 0.9407 0.48928 0.0
C154 C 0.03626 0.95639 0.44264 0.0
C155 C 0.04046 0.96158 0.42592 0.0
C156 C 0.02783 0.96764 0.41494 0.0
C157 C 0.0107 0.96839 0.42042 0.0
C158 C 0.00654 0.96333 0.43724 0.0
C159 C 0.01927 0.95755 0.44834 0.0
P160 P 0.21081 0.70991 0.7982 0.0
H161 H 0.23345 0.73648 0.81331 0.0
H162 H 0.23402 0.75103 0.84104 0.0
H163 H 0.19011 0.7197 0.85723 0.0
H164 H 0.18949 0.70528 0.82914 0.0
H165 H 0.23073 0.69249 0.77239 0.0
H166 H 0.24745 0.6667 0.77296 0.0
H167 H 0.23292 0.65826 0.8258 0.0
H168 H 0.21614 0.68413 0.82514 0.0
H169 H 0.17838 0.72692 0.80447 0.0
H170 H 0.19631 0.68649 0.772 0.0
O171 O 0.22098 0.72318 0.78458 0.0
H172 H 0.15059 0.72535 0.78962 0.0
H173 H 0.16871 0.68531 0.75678 0.0
C174 C 0.21119 0.72008 0.81904 0.0
C175 C 0.22389 0.73276 0.82278 0.0
C176 C 0.2243 0.74097 0.83873 0.0
C177 C 0.21208 0.73656 0.85136 0.0
C178 C 0.19954 0.72357 0.84769 0.0
C179 C 0.19919 0.7153 0.83168 0.0
C180 C 0.22239 0.69038 0.79878 0.0
C181 C 0.2311 0.68508 0.7841 0.0
C182 C 0.24057 0.67027 0.7844 0.0
C183 C 0.24155 0.66047 0.79945 0.0
C184 C 0.23257 0.66566 0.81409 0.0
C185 C 0.22294 0.68044 0.8137 0.0
C186 C 0.18932 0.70644 0.78975 0.0
C187 C 0.1762 0.71731 0.79456 0.0
C188 C 0.16033 0.71649 0.786 0.0
C189 C 0.15752 0.70516 0.77212 0.0
C190 C 0.17055 0.69411 0.76749 0.0
C191 C 0.1863 0.69473 0.77626 0.0
P192 P 0.99421 0.51168 0.49482 0.0
H193 H 0.02882 0.50683 0.48214 0.0
H194 H 0.04106 0.50626 0.45334 0.0
H195 H 0.99123 0.51639 0.43166 0.0
H196 H 0.97907 0.51704 0.46064 0.0
H197 H 0.00448 0.52436 0.52882 0.0
H198 H 0.0065 0.55296 0.54158 0.0
H199 H 0.98853 0.57442 0.49403 0.0
H200 H 0.9867 0.54564 0.48119 0.0
H201 H 0.98046 0.47666 0.49345 0.0
H202 H 0.96011 0.52716 0.49556 0.0
O203 O 0.00599 0.49893 0.50692 0.0
H204 H 0.95131 0.46398 0.49406 0.0
H205 H 0.93086 0.51461 0.49572 0.0
C206 C 0.00299 0.51165 0.47348 0.0
C207 C 0.0205 0.50884 0.47119 0.0
C208 C 0.02747 0.50845 0.45471 0.0
C209 C 0.01708 0.51108 0.4402 0.0
C210 C 0.99958 0.51434 0.44258 0.0
C211 C 0.99259 0.51463 0.45912 0.0
C212 C 0.99566 0.5329 0.50398 0.0
C213 C 0.0011 0.5352 0.52106 0.0
C214 C 0.00229 0.55156 0.52834 0.0
C215 C 0.99779 0.56593 0.51876 0.0
C216 C 0.99205 0.56357 0.50172 0.0
C217 C 0.99108 0.54717 0.49436 0.0
C218 C 0.97248 0.50282 0.49475 0.0
C219 C 0.9697 0.48502 0.49401 0.0
C220 C 0.95299 0.4778 0.49422 0.0
C221 C 0.9387 0.48827 0.495 0.0
C222 C 0.94157 0.50616 0.49542 0.0
C223 C 0.95832 0.51338 0.49524 0.0
P224 P 0.83183 0.83911 0.83182 0.0
H225 H 0.84994 0.85762 0.80458 0.0
H226 H 0.86546 0.8483 0.77915 0.0
H227 H 0.85262 0.79554 0.79183 0.0
H228 H 0.83668 0.80499 0.81671 0.0
H229 H 0.8112 0.86189 0.85197 0.0
H230 H 0.78508 0.87718 0.84575 0.0
H231 H 0.78365 0.8555 0.79454 0.0
H232 H 0.80951 0.83988 0.80107 0.0
H233 H 0.85386 0.81998 0.85445 0.0
H234 H 0.80026 0.81884 0.83993 0.0
O235 O 0.8453 0.85298 0.84192 0.0
H236 H 0.84854 0.79524 0.87303 0.0
H237 H 0.79467 0.79451 0.85888 0.0
C238 C 0.84237 0.83202 0.81266 0.0
C239 C 0.85041 0.84406 0.80178 0.0
C240 C 0.85937 0.83869 0.78731 0.0
C241 C 0.86044 0.82114 0.78347 0.0
C242 C 0.85194 0.80916 0.79424 0.0
C243 C 0.84292 0.81455 0.80863 0.0
C244 C 0.81247 0.85005 0.82688 0.0
C245 C 0.80525 0.86047 0.8394 0.0
C246 C 0.79036 0.86925 0.83579 0.0
C247 C 0.78234 0.86773 0.81957 0.0
C248 C 0.78941 0.8569 0.80719 0.0
C249 C 0.80431 0.84807 0.81085 0.0
C250 C 0.82742 0.82142 0.84607 0.0
C251 C 0.84089 0.81453 0.85547 0.0
C252 C 0.83781 0.80042 0.86614 0.0
C253 C 0.82115 0.79289 0.86755 0.0
C254 C 0.80769 0.79984 0.85799 0.0
C255 C 0.81083 0.8139 0.84725 0.0
P256 P 0.33091 0.34075 0.33197 0.0
H257 H 0.34824 0.35863 0.30386 0.0
H258 H 0.3636 0.34874 0.27856 0.0
H259 H 0.3519 0.29627 0.29313 0.0
H260 H 0.33609 0.30625 0.31786 0.0
H261 H 0.31147 0.36501 0.35161 0.0
H262 H 0.28575 0.38088 0.34529 0.0
H263 H 0.28263 0.35736 0.29493 0.0
H264 H 0.3081 0.34117 0.30159 0.0
H265 H 0.35236 0.32114 0.35474 0.0
H266 H 0.29878 0.32149 0.3403 0.0
O267 O 0.34478 0.35432 0.34194 0.0
H268 H 0.34636 0.29661 0.37341 0.0
H269 H 0.29252 0.2974 0.35937 0.0
C270 C 0.3412 0.33321 0.31285 0.0
C271 C 0.3489 0.345 0.30149 0.0
C272 C 0.35778 0.33932 0.2871 0.0
C273 C 0.35913 0.32169 0.28382 0.0
C274 C 0.35098 0.30993 0.29508 0.0
C275 C 0.34204 0.31564 0.30939 0.0
C276 C 0.31188 0.35221 0.32695 0.0
C277 C 0.30526 0.36332 0.33919 0.0
C278 C 0.29058 0.37243 0.33553 0.0
C279 C 0.2822 0.37056 0.31952 0.0
C280 C 0.28869 0.35905 0.30742 0.0
C281 C 0.30336 0.3499 0.31114 0.0
C282 C 0.32598 0.32331 0.34638 0.0
C283 C 0.33925 0.31608 0.35581 0.0
C284 C 0.33578 0.30209 0.36653 0.0
C285 C 0.31893 0.29503 0.36799 0.0
C286 C 0.30567 0.30235 0.35844 0.0
C287 C 0.3092 0.31628 0.34764 0.0
P288 P 0.48662 0.99086 0.51966 0.0
H289 H 0.493 0.98017 0.48441 0.0
H290 H 0.49344 0.95213 0.47045 0.0
H291 H 0.47789 0.928 0.518 0.0
H292 H 0.47734 0.95621 0.53187 0.0
H293 H 0.4785 0.02642 0.52449 0.0
H294 H 0.45177 0.04174 0.52307 0.0
H295 H 0.42362 0.99412 0.51219 0.0
H296 H 0.45056 0.9789 0.51341 0.0
H297 H 0.51902 0.97971 0.53344 0.0
H298 H 0.4714 0.99761 0.55364 0.0
O299 O 0.50113 0.00313 0.50923 0.0
H300 H 0.53116 0.9793 0.56245 0.0
H301 H 0.48339 0.99708 0.58272 0.0
C302 C 0.48546 0.97021 0.50924 0.0
C303 C 0.48965 0.96885 0.49183 0.0
C304 C 0.48998 0.9528 0.48388 0.0
C305 C 0.48594 0.93781 0.49317 0.0
C306 C 0.48105 0.9393 0.51049 0.0
C307 C 0.48081 0.95539 0.51845 0.0
C308 C 0.46654 0.00159 0.51881 0.0
C309 C 0.46657 0.01929 0.52176 0.0
C310 C 0.45125 0.028 0.52108 0.0
C311 C 0.43553 0.01917 0.51749 0.0
C312 C 0.43553 0.00134 0.51475 0.0
C313 C 0.45092 0.99261 0.5155 0.0
C314 C 0.49442 0.98888 0.54136 0.0
C315 C 0.51112 0.98336 0.54416 0.0
C316 C 0.518 0.98304 0.56077 0.0
C317 C 0.50828 0.98826 0.57491 0.0
C318 C 0.4913 0.99323 0.57208 0.0
C319 C 0.48441 0.99349 0.55544 0.0
P320 P 0.16722 0.3308 0.67285 0.0
H321 H 0.18016 0.36297 0.65777 0.0
H322 H 0.20445 0.38249 0.665 0.0
H323 H 0.21786 0.34973 0.70719 0.0
H324 H 0.19358 0.33015 0.69973 0.0
H325 H 0.14894 0.29987 0.66071 0.0
H326 H 0.15771 0.27536 0.64362 0.0
H327 H 0.20988 0.29645 0.64299 0.0
H328 H 0.2011 0.32071 0.66021 0.0
H329 H 0.14202 0.34926 0.69219 0.0
H330 H 0.16706 0.30118 0.69617 0.0
O331 O 0.15402 0.34066 0.6595 0.0
H332 H 0.1258 0.34273 0.71825 0.0
H333 H 0.1505 0.29426 0.72202 0.0
C334 C 0.18495 0.34527 0.67839 0.0
C335 C 0.18826 0.36004 0.66864 0.0
C336 C 0.20213 0.37121 0.67281 0.0
C337 C 0.21303 0.36771 0.68672 0.0
C338 C 0.20977 0.35273 0.69633 0.0
C339 C 0.19584 0.34161 0.69217 0.0
C340 C 0.17436 0.31203 0.66187 0.0
C341 C 0.16231 0.29907 0.65707 0.0
C342 C 0.16732 0.28515 0.6472 0.0
C343 C 0.18449 0.28397 0.64189 0.0
C344 C 0.1966 0.29684 0.64705 0.0
C345 C 0.19156 0.31078 0.65688 0.0
C346 C 0.1554 0.32552 0.69203 0.0
C347 C 0.14388 0.33719 0.6986 0.0
C348 C 0.13457 0.3334 0.71348 0.0
C349 C 0.13667 0.31786 0.72215 0.0
C350 C 0.14861 0.30637 0.71573 0.0
C351 C 0.15796 0.31022 0.70084 0.0
P352 P 0.83374 0.17708 0.67271 0.0
H353 H 0.8526 0.2025 0.65248 0.0
H354 H 0.84429 0.22858 0.63794 0.0
H355 H 0.79255 0.22109 0.65722 0.0
H356 H 0.80087 0.19482 0.67131 0.0
H357 H 0.86353 0.16085 0.68747 0.0
H358 H 0.8813 0.16716 0.71281 0.0
H359 H 0.8494 0.20957 0.72523 0.0
H360 H 0.83214 0.20353 0.69942 0.0
H361 H 0.81784 0.14637 0.65675 0.0
H362 H 0.80943 0.17782 0.70134 0.0
O363 O 0.84567 0.16671 0.6586 0.0
H364 H 0.79382 0.12723 0.66499 0.0
H365 H 0.78497 0.15911 0.70938 0.0
C366 C 0.82731 0.19657 0.66272 0.0
C367 C 0.83946 0.20648 0.65354 0.0
C368 C 0.83472 0.22148 0.64536 0.0
C369 C 0.81772 0.22692 0.64634 0.0
C370 C 0.80567 0.21712 0.65595 0.0
C371 C 0.81044 0.2021 0.6641 0.0
C372 C 0.84674 0.18192 0.69142 0.0
C373 C 0.86046 0.17159 0.69558 0.0
C374 C 0.87051 0.17512 0.71021 0.0
C375 C 0.86684 0.18892 0.72111 0.0
C376 C 0.85282 0.19905 0.71699 0.0
C377 C 0.84288 0.19558 0.70227 0.0
C378 C 0.8156 0.16336 0.67858 0.0
C379 C 0.81078 0.1492 0.66829 0.0
C380 C 0.79691 0.13834 0.67295 0.0
C381 C 0.78745 0.14156 0.6879 0.0
C382 C 0.79215 0.15603 0.69797 0.0
C383 C 0.80611 0.1668 0.69336 0.0
P384 P 0.56133 0.56227 0.56437 0.0
H385 H 0.56466 0.54816 0.59857 0.0
H386 H 0.54381 0.53734 0.61959 0.0
H387 H 0.50247 0.54686 0.58393 0.0
H388 H 0.52351 0.55705 0.56276 0.0
H389 H 0.5938 0.56328 0.54611 0.0
H390 H 0.61245 0.541 0.53577 0.0
H391 H 0.57541 0.5022 0.55282 0.0
H392 H 0.5568 0.52457 0.5631 0.0
H393 H 0.54146 0.59288 0.56621 0.0
H394 H 0.56007 0.5599 0.52642 0.0
O395 O 0.57471 0.57538 0.57551 0.0
H396 H 0.53043 0.61208 0.54439 0.0
H397 H 0.5491 0.57905 0.50454 0.0
C398 C 0.54561 0.55372 0.57927 0.0
C399 C 0.5511 0.54788 0.59529 0.0
C400 C 0.53914 0.54179 0.60733 0.0
C401 C 0.5214 0.54144 0.60358 0.0
C402 C 0.51601 0.54685 0.58725 0.0
C403 C 0.52803 0.55285 0.57516 0.0
C404 C 0.57404 0.54559 0.55556 0.0
C405 C 0.58965 0.54998 0.54751 0.0
C406 C 0.60024 0.53723 0.54152 0.0
C407 C 0.59544 0.51983 0.54357 0.0
C408 C 0.57956 0.51549 0.55127 0.0
C409 C 0.56889 0.52828 0.55712 0.0
C410 C 0.55165 0.57503 0.54797 0.0
C411 C 0.54299 0.58968 0.55277 0.0
C412 C 0.53664 0.6006 0.54028 0.0
C413 C 0.53896 0.59713 0.52272 0.0
C414 C 0.5473 0.58218 0.51796 0.0
C415 C 0.55354 0.57118 0.53048 0.0
P416 P 0.55364 0.44961 0.95851 0.0
H417 H 0.57903 0.45062 0.98635 0.0
H418 H 0.60029 0.47275 0.99582 0.0
H419 H 0.57908 0.5082 0.95987 0.0
H420 H 0.5576 0.48643 0.95085 0.0
H421 H 0.54284 0.4138 0.95586 0.0
H422 H 0.53192 0.39285 0.97661 0.0
H423 H 0.53404 0.43183 0.01626 0.0
H424 H 0.54441 0.45289 0.99514 0.0
H425 H 0.5543 0.46414 0.92422 0.0
H426 H 0.5161 0.45207 0.96269 0.0
O427 O 0.56687 0.43879 0.94606 0.0
H428 H 0.53177 0.47338 0.90468 0.0
H429 H 0.49343 0.46099 0.943 0.0
C430 C 0.56652 0.46687 0.96805 0.0
C431 C 0.57858 0.46333 0.98092 0.0
C432 C 0.59074 0.47593 0.98629 0.0
C433 C 0.5913 0.49211 0.97851 0.0
C434 C 0.57891 0.49579 0.96602 0.0
C435 C 0.56659 0.48331 0.96088 0.0
C436 C 0.54492 0.43474 0.97409 0.0
C437 C 0.54096 0.41783 0.96903 0.0
C438 C 0.53479 0.40584 0.98094 0.0
C439 C 0.53241 0.41054 0.99821 0.0
C440 C 0.53573 0.42775 0.00308 0.0
C441 C 0.54182 0.43978 0.99107 0.0
C442 C 0.53686 0.45726 0.94481 0.0
C443 C 0.54106 0.46355 0.92848 0.0
C444 C 0.5282 0.46894 0.91738 0.0
C445 C 0.51086 0.46789 0.92234 0.0
C446 C 0.5067 0.46184 0.93884 0.0
C447 C 0.51963 0.45673 0.95007 0.0
P448 P 0.71321 0.21149 0.2976 0.0
H449 H 0.73574 0.23819 0.3129 0.0
H450 H 0.73539 0.25338 0.34027 0.0
H451 H 0.68958 0.22397 0.35476 0.0
H452 H 0.68985 0.20901 0.32697 0.0
H453 H 0.71382 0.18144 0.27503 0.0
H454 H 0.73015 0.15528 0.27622 0.0
H455 H 0.75061 0.17069 0.32581 0.0
H456 H 0.73402 0.19655 0.32481 0.0
H457 H 0.69381 0.23876 0.28342 0.0
H458 H 0.68574 0.18454 0.29155 0.0
O459 O 0.72634 0.22254 0.28448 0.0
H460 H 0.66597 0.23977 0.26913 0.0
H461 H 0.65813 0.18519 0.27632 0.0
C462 C 0.71268 0.22267 0.31784 0.0
C463 C 0.72555 0.23507 0.32189 0.0
C464 C 0.72542 0.24364 0.33765 0.0
C465 C 0.71247 0.23987 0.34975 0.0
C466 C 0.69961 0.22732 0.34565 0.0
C467 C 0.69977 0.21873 0.32983 0.0
C468 C 0.72224 0.19074 0.30005 0.0
C469 C 0.7213 0.17889 0.28645 0.0
C470 C 0.7307 0.16399 0.28709 0.0
C471 C 0.7416 0.16098 0.30113 0.0
C472 C 0.74229 0.17271 0.31485 0.0
C473 C 0.73269 0.18745 0.31432 0.0
C474 C 0.69208 0.21151 0.28804 0.0
C475 C 0.68608 0.22701 0.28196 0.0
C476 C 0.67017 0.22753 0.27367 0.0
C477 C 0.65993 0.21248 0.27114 0.0
C478 C 0.66568 0.19702 0.27797 0.0
C479 C 0.68158 0.19658 0.2865 0.0
P480 P 0.49178 0.01398 0.99059 0.0
H481 H 0.51538 0.03742 0.97212 0.0
H482 H 0.52724 0.03675 0.94316 0.0
H483 H 0.49607 0.99108 0.93186 0.0
H484 H 0.48436 0.99176 0.96095 0.0
H485 H 0.50727 0.02623 0.02291 0.0
H486 H 0.50893 0.05421 0.03695 0.0
H487 H 0.48051 0.07554 0.99482 0.0
H488 H 0.47878 0.04733 0.98086 0.0
H489 H 0.47612 0.98749 0.0125 0.0
H490 H 0.45968 0.02158 0.97281 0.0
O491 O 0.50504 0.00107 0.00075 0.0
H492 H 0.44689 0.97539 0.01484 0.0
H493 H 0.43014 0.00997 0.97547 0.0
C494 C 0.49862 0.01491 0.96854 0.0
C495 C 0.51079 0.02749 0.9633 0.0
C496 C 0.51758 0.02708 0.94672 0.0
C497 C 0.51255 0.01389 0.93517 0.0
C498 C 0.50028 0.00135 0.94047 0.0
C499 C 0.49344 0.00183 0.95704 0.0
C500 C 0.49306 0.03475 0.00076 0.0
C501 C 0.50146 0.03692 0.01663 0.0
C502 C 0.50246 0.05296 0.02462 0.0
C503 C 0.49496 0.06715 0.01695 0.0
C504 C 0.48633 0.06485 0.00112 0.0
C505 C 0.48538 0.04877 0.9931 0.0
C506 C 0.4701 0.00528 0.99233 0.0
C507 C 0.46619 0.99242 0.00431 0.0
C508 C 0.44939 0.98562 0.00576 0.0
C509 C 0.4361 0.99169 0.99535 0.0
C510 C 0.44008 0.0048 0.98351 0.0
C511 C 0.45693 0.01154 0.98204 0.0
Mn512 Mn 0.24977 0.8707 0.01131 0.0
Mn513 Mn 0.24596 0.88446 0.97052 0.0
C514 C 0.2354 0.85374 0.99098 0.0
C515 C 0.26496 0.85638 0.0324 0.0
C516 C 0.22482 0.89785 1.00002 0.0
O517 O 0.26812 0.88998 0.00991 0.0
O518 O 0.2658 0.89683 0.9819 0.0
C519 C 0.27821 0.87137 0.95642 0.0
N520 N 0.26074 0.87194 0.95596 0.0
C521 C 0.25899 0.85267 0.93175 0.0
C522 C 0.27698 0.85197 0.93189 0.0
C523 C 0.28662 0.86134 0.9443 0.0
C524 C 0.25133 0.86295 0.9441 0.0
H525 H 0.28568 0.87848 0.96598 0.0
C526 C 0.27305 0.89845 0.9967 0.0
O527 O 0.25388 0.86773 0.03642 0.0
O528 O 0.26755 0.85378 0.01617 0.0
N529 N 0.22742 0.87324 0.95804 0.0
C530 C 0.21015 0.87463 0.96019 0.0
C531 C 0.19867 0.86573 0.94903 0.0
C532 C 0.20505 0.85557 0.93575 0.0
C533 C 0.22287 0.85444 0.93372 0.0
C534 C 0.23369 0.86372 0.94513 0.0
H535 H 0.20517 0.8824 0.97037 0.0
O536 O 0.23246 0.8514 0.00721 0.0
O537 O 0.24654 0.86592 0.98726 0.0
O538 O 0.2308 0.88811 0.01153 0.0
O539 O 0.2299 0.89779 0.98444 0.0
C540 C 0.23031 0.84424 0.921 0.0
C541 C 0.24835 0.84333 0.92004 0.0
H542 H 0.28351 0.84417 0.92263 0.0
H543 H 0.3005 0.86079 0.94455 0.0
H544 H 0.18494 0.86665 0.9507 0.0
H545 H 0.19615 0.8486 0.92727 0.0
H546 H 0.22226 0.83687 0.91204 0.0
H547 H 0.25391 0.83525 0.91037 0.0
Mn548 Mn 0.13327 0.50305 0.25478 0.0
Mn549 Mn 0.11886 0.5432 0.2525 0.0
C550 C 0.14918 0.52412 0.24055 0.0
C551 C 0.14874 0.48223 0.26886 0.0
C552 C 0.1046 0.51379 0.23042 0.0
O553 O 0.11507 0.50329 0.27352 0.0
O554 O 0.10753 0.5308 0.27187 0.0
C555 C 0.13352 0.55698 0.28515 0.0
N556 N 0.13196 0.55791 0.26775 0.0
C557 C 0.15024 0.58344 0.2669 0.0
C558 C 0.15196 0.58281 0.28482 0.0
C559 C 0.14361 0.56949 0.29397 0.0
C560 C 0.14 0.57062 0.25881 0.0
H561 H 0.12714 0.54675 0.29222 0.0
C562 C 0.1065 0.51592 0.27874 0.0
O563 O 0.13659 0.47808 0.25793 0.0
O564 O 0.15148 0.49843 0.272 0.0
N565 N 0.12888 0.55671 0.23444 0.0
C566 C 0.12662 0.55497 0.21714 0.0
C567 C 0.13454 0.56699 0.20609 0.0
C568 C 0.14455 0.58076 0.21294 0.0
C569 C 0.14651 0.5824 0.2308 0.0
C570 C 0.13827 0.57006 0.24117 0.0
H571 H 0.11892 0.54444 0.2118 0.0
O572 O 0.15141 0.50807 0.23724 0.0
O573 O 0.13781 0.52735 0.25218 0.0
O574 O 0.1146 0.50249 0.23603 0.0
O575 O 0.10489 0.52918 0.23603 0.0
C576 C 0.15653 0.59566 0.23869 0.0
C577 C 0.15846 0.59613 0.25672 0.0
H578 H 0.15977 0.59242 0.29167 0.0
H579 H 0.14494 0.56888 0.3078 0.0
H580 H 0.13297 0.56564 0.19233 0.0
H581 H 0.15074 0.58994 0.20438 0.0
H582 H 0.16302 0.60542 0.231 0.0
H583 H 0.16643 0.60623 0.26262 0.0
Mn584 Mn 0.75858 0.63026 0.00388 0.0
Mn585 Mn 0.7237 0.64408 0.98292 0.0
C586 C 0.73316 0.61379 0.00396 0.0
C587 C 0.78445 0.61602 0.00372 0.0
C588 C 0.7365 0.65875 0.01709 0.0
O589 O 0.7684 0.64924 0.98834 0.0
O590 O 0.74479 0.65465 0.97261 0.0
C591 C 0.72876 0.6283 0.94877 0.0
N592 N 0.71879 0.63058 0.96285 0.0
C593 C 0.69539 0.61369 0.95032 0.0
C594 C 0.70536 0.61125 0.93562 0.0
C595 C 0.72215 0.61851 0.93489 0.0
C596 C 0.70271 0.62348 0.96378 0.0
H597 H 0.74165 0.63392 0.94815 0.0
C598 C 0.76089 0.65667 0.97593 0.0
O599 O 0.78137 0.62763 0.01516 0.0
O600 O 0.77261 0.61291 0.99217 0.0
N601 N 0.70236 0.63473 0.9915 0.0
C602 C 0.69491 0.63733 0.00704 0.0
C603 C 0.67834 0.63029 0.01016 0.0
C604 C 0.66952 0.62089 0.9972 0.0
C605 C 0.6774 0.61855 0.98125 0.0
C606 C 0.69397 0.62575 0.97893 0.0
H607 H 0.70155 0.64468 0.01699 0.0
O608 O 0.7449 0.61147 0.01554 0.0
O609 O 0.73679 0.62541 0.99254 0.0
O610 O 0.74826 0.64813 0.01968 0.0
O611 O 0.72727 0.65879 0.00347 0.0
C612 C 0.66953 0.6092 0.96763 0.0
C613 C 0.67856 0.60666 0.95222 0.0
H614 H 0.7003 0.60373 0.92488 0.0
H615 H 0.72995 0.61661 0.92362 0.0
H616 H 0.67236 0.63215 0.02251 0.0
H617 H 0.65675 0.61547 0.99966 0.0
H618 H 0.65664 0.60364 0.96899 0.0
H619 H 0.67251 0.59913 0.94198 0.0
Mn620 Mn 0.8695 0.00263 0.25535 0.0
Mn621 Mn 0.88129 0.96162 0.25266 0.0
C622 C 0.85268 0.98275 0.24004 0.0
C623 C 0.85517 0.02431 0.26928 0.0
C624 C 0.89841 0.99063 0.23241 0.0
O625 O 0.88721 0.00088 0.2747 0.0
O626 O 0.89198 0.97259 0.27341 0.0
C627 C 0.86359 0.9477 0.28344 0.0
N628 N 0.86634 0.94722 0.26619 0.0
C629 C 0.84671 0.92286 0.26278 0.0
C630 C 0.84384 0.92297 0.28054 0.0
C631 C 0.85226 0.93549 0.2909 0.0
C632 C 0.85818 0.93533 0.25608 0.0
H633 H 0.86994 0.95738 0.29143 0.0
C634 C 0.89404 0.98741 0.28044 0.0
O635 O 0.86795 0.02775 0.25904 0.0
O636 O 0.85114 0.00828 0.27191 0.0
N637 N 0.87155 0.94951 0.23327 0.0
C638 C 0.87481 0.95191 0.21626 0.0
C639 C 0.86681 0.94089 0.20407 0.0
C640 C 0.85566 0.92745 0.20951 0.0
C641 C 0.85261 0.92516 0.22709 0.0
C642 C 0.86099 0.93651 0.23865 0.0
H643 H 0.88339 0.96219 0.21199 0.0
O644 O 0.85152 0.99898 0.23701 0.0
O645 O 0.86355 0.97873 0.25193 0.0
O646 O 0.88851 0.00227 0.23739 0.0
O647 O 0.89729 0.97524 0.23789 0.0
C648 C 0.84137 0.91222 0.23359 0.0
C649 C 0.8384 0.9111 0.25142 0.0
H650 H 0.83505 0.91362 0.28633 0.0
H651 H 0.85 0.93575 0.3046 0.0
H652 H 0.86922 0.94276 0.19052 0.0
H653 H 0.84942 0.91905 0.20007 0.0
H654 H 0.83472 0.90325 0.22497 0.0
H655 H 0.82948 0.90129 0.25623 0.0
Mn656 Mn 0.25648 0.13119 0.5032 0.0
Mn657 Mn 0.22105 0.14367 0.48212 0.0
C658 C 0.23161 0.11382 0.50307 0.0
C659 C 0.28275 0.11765 0.50333 0.0
C660 C 0.23269 0.15837 0.51667 0.0
O661 O 0.26585 0.15036 0.48771 0.0
O662 O 0.2418 0.15576 0.47269 0.0
C663 C 0.22808 0.12924 0.44775 0.0
N664 N 0.21753 0.13056 0.46155 0.0
C665 C 0.19549 0.11277 0.44786 0.0
C666 C 0.20606 0.11132 0.43343 0.0
C667 C 0.22247 0.11951 0.43343 0.0
C668 C 0.20183 0.12253 0.46179 0.0
H669 H 0.24066 0.13558 0.44769 0.0
C670 C 0.25793 0.15806 0.47576 0.0
O671 O 0.27929 0.12923 0.51469 0.0
O672 O 0.2711 0.11424 0.49168 0.0
N673 N 0.19996 0.13292 0.48975 0.0
C674 C 0.1918 0.13475 0.50506 0.0
C675 C 0.17549 0.1268 0.50742 0.0
C676 C 0.16763 0.11731 0.49395 0.0
C677 C 0.17619 0.11579 0.47826 0.0
C678 C 0.19247 0.12388 0.47669 0.0
H679 H 0.1977 0.14217 0.51539 0.0
O680 O 0.2433 0.11203 0.51482 0.0
O681 O 0.23492 0.12554 0.49165 0.0
O682 O 0.24549 0.14885 0.51881 0.0
O683 O 0.22317 0.15773 0.50324 0.0
C684 C 0.16928 0.10645 0.46415 0.0
C685 C 0.17898 0.1048 0.44901 0.0
H686 H 0.20177 0.10386 0.42234 0.0
H687 H 0.23073 0.11839 0.42238 0.0
H688 H 0.16896 0.12804 0.51958 0.0
H689 H 0.15505 0.11119 0.49583 0.0
H690 H 0.15662 0.10022 0.46491 0.0
H691 H 0.17367 0.09727 0.43839 0.0
Mn692 Mn 0.3688 0.50254 0.75727 0.0
Mn693 Mn 0.37981 0.4615 0.7521 0.0
C694 C 0.35139 0.48365 0.74129 0.0
C695 C 0.35498 0.5238 0.77243 0.0
C696 C 0.39704 0.49127 0.73304 0.0
O697 O 0.38677 0.49956 0.7762 0.0
O698 O 0.39118 0.47134 0.77302 0.0
C699 C 0.36264 0.44648 0.78266 0.0
N700 N 0.36498 0.44672 0.76534 0.0
C701 C 0.34493 0.42278 0.76134 0.0
C702 C 0.34248 0.42214 0.77916 0.0
C703 C 0.35131 0.43409 0.78985 0.0
C704 C 0.35639 0.43541 0.75492 0.0
H705 H 0.36932 0.45571 0.79091 0.0
C706 C 0.39357 0.48568 0.78092 0.0
O707 O 0.36764 0.5275 0.76213 0.0
O708 O 0.35083 0.5077 0.77446 0.0
N709 N 0.36943 0.4504 0.73244 0.0
C710 C 0.37246 0.45339 0.71547 0.0
C711 C 0.36411 0.44294 0.70302 0.0
C712 C 0.35288 0.42944 0.70813 0.0
C713 C 0.3501 0.4265 0.72566 0.0
C714 C 0.35881 0.4373 0.73749 0.0
H715 H 0.38113 0.46371 0.71146 0.0
O716 O 0.35046 0.50004 0.7391 0.0
O717 O 0.36239 0.47889 0.75273 0.0
O718 O 0.38757 0.5028 0.73903 0.0
O719 O 0.39561 0.47557 0.73753 0.0
C720 C 0.33886 0.41342 0.73186 0.0
C721 C 0.33624 0.41159 0.74969 0.0
H722 H 0.33371 0.41264 0.78475 0.0
H723 H 0.34938 0.43377 0.8036 0.0
H724 H 0.36632 0.4453 0.68951 0.0
H725 H 0.34638 0.42147 0.69849 0.0
H726 H 0.33194 0.40487 0.72302 0.0
H727 H 0.32733 0.40166 0.75428 0.0
Mn728 Mn 0.749 0.37243 0.51116 0.0
Mn729 Mn 0.74622 0.38608 0.47022 0.0
C730 C 0.73495 0.35552 0.49062 0.0
C731 C 0.76346 0.35816 0.5328 0.0
C732 C 0.72445 0.39967 0.4991 0.0
O733 O 0.76762 0.3915 0.51009 0.0
O734 O 0.76576 0.39846 0.48206 0.0
C735 C 0.7788 0.37279 0.45709 0.0
N736 N 0.76135 0.37345 0.45614 0.0
C737 C 0.76019 0.35415 0.43193 0.0
C738 C 0.77816 0.35336 0.43259 0.0
C739 C 0.78749 0.36269 0.44525 0.0
C740 C 0.75223 0.36448 0.44404 0.0
H741 H 0.78602 0.37989 0.46684 0.0
C742 C 0.77275 0.40002 0.49698 0.0
O743 O 0.75238 0.36964 0.53638 0.0
O744 O 0.76649 0.35537 0.51668 0.0
N745 N 0.72799 0.3749 0.45728 0.0
C746 C 0.71068 0.37644 0.45889 0.0
C747 C 0.69948 0.36765 0.44739 0.0
C748 C 0.70617 0.35744 0.43432 0.0
C749 C 0.72403 0.35615 0.43284 0.0
C750 C 0.73458 0.36534 0.44458 0.0
H751 H 0.70546 0.38427 0.4689 0.0
O752 O 0.73161 0.35329 0.50678 0.0
O753 O 0.74631 0.36756 0.48706 0.0
O754 O 0.73016 0.38999 0.5108 0.0
O755 O 0.72987 0.39951 0.48363 0.0
C756 C 0.73178 0.34591 0.42035 0.0
C757 C 0.74984 0.34487 0.41993 0.0
H758 H 0.78491 0.34552 0.42353 0.0
H759 H 0.80136 0.36208 0.44589 0.0
H760 H 0.68571 0.36869 0.44862 0.0
H761 H 0.69748 0.35058 0.42556 0.0
H762 H 0.72395 0.33861 0.41115 0.0
H763 H 0.75562 0.33676 0.41043 0.0
Mn764 Mn 0.63567 0.00144 0.75436 0.0
Mn765 Mn 0.62358 0.04239 0.75214 0.0
C766 C 0.65277 0.02168 0.74027 0.0
C767 C 0.64996 0.97992 0.76867 0.0
C768 C 0.60771 0.0137 0.73005 0.0
O769 O 0.6173 0.00262 0.77288 0.0
O770 O 0.61174 0.03069 0.77165 0.0
C771 C 0.63928 0.05541 0.78463 0.0
N772 N 0.63766 0.05637 0.76723 0.0
C773 C 0.65786 0.08045 0.76611 0.0
C774 C 0.65966 0.07978 0.78403 0.0
C775 C 0.65036 0.06719 0.79331 0.0
C776 C 0.64658 0.06842 0.75817 0.0
H777 H 0.63221 0.0457 0.7918 0.0
C778 C 0.60968 0.01578 0.77832 0.0
O779 O 0.63777 0.97627 0.75762 0.0
O780 O 0.65338 0.99601 0.77179 0.0
N781 N 0.63422 0.05527 0.73396 0.0
C782 C 0.63153 0.05376 0.71669 0.0
C783 C 0.64011 0.06524 0.70554 0.0
C784 C 0.65126 0.0782 0.71224 0.0
C785 C 0.65369 0.07961 0.73006 0.0
C786 C 0.64465 0.06792 0.74055 0.0
H787 H 0.62296 0.04384 0.71145 0.0
O788 O 0.65423 0.00551 0.73699 0.0
O789 O 0.64149 0.02547 0.75178 0.0
O790 O 0.61721 0.00189 0.73548 0.0
O791 O 0.60873 0.02906 0.73581 0.0
C792 C 0.66491 0.092 0.73779 0.0
C793 C 0.66702 0.09239 0.75581 0.0
H794 H 0.66825 0.08879 0.79077 0.0
H795 H 0.65175 0.06654 0.80713 0.0
H796 H 0.63817 0.06406 0.6918 0.0
H797 H 0.65797 0.08693 0.70358 0.0
H798 H 0.67216 0.10114 0.72999 0.0
H799 H 0.67586 0.10184 0.76159 0.0
Mn800 Mn 0.00343 0.25052 0.87536 0.0
Mn801 Mn 0.96315 0.24557 0.89093 0.0
C802 C 0.98257 0.23508 0.85992 0.0
C803 C 0.02415 0.26576 0.85941 0.0
C804 C 0.99326 0.22591 0.90434 0.0
O805 O 0.00262 0.26926 0.89371 0.0
O806 O 0.9749 0.26592 0.90183 0.0
C807 C 0.9483 0.2768 0.87659 0.0
N808 N 0.94799 0.25944 0.87813 0.0
C809 C 0.92292 0.25639 0.85994 0.0
C810 C 0.92291 0.27424 0.85825 0.0
C811 C 0.93568 0.28448 0.86659 0.0
C812 C 0.93578 0.24946 0.87014 0.0
H813 H 0.95813 0.28472 0.88293 0.0
C814 C 0.98969 0.27375 0.9025 0.0
O815 O 0.02846 0.25522 0.87139 0.0
O816 O 0.00783 0.26789 0.85715 0.0
N817 N 0.95034 0.22646 0.88118 0.0
C818 C 0.9527 0.20942 0.88338 0.0
C819 C 0.94128 0.1974 0.87548 0.0
C820 C 0.92751 0.20302 0.8655 0.0
C821 C 0.92526 0.22062 0.86355 0.0
C822 C 0.93697 0.23199 0.87183 0.0
H823 H 0.96327 0.20502 0.89101 0.0
O824 O 0.99874 0.23271 0.85718 0.0
O825 O 0.97916 0.24636 0.87159 0.0
O826 O 0.00435 0.23199 0.89379 0.0
O827 O 0.97767 0.23048 0.90471 0.0
C828 C 0.91202 0.22731 0.85348 0.0
C829 C 0.91087 0.24518 0.85165 0.0
H830 H 0.91325 0.28022 0.85047 0.0
H831 H 0.93581 0.29827 0.86528 0.0
H832 H 0.94312 0.18384 0.87703 0.0
H833 H 0.91882 0.19371 0.8593 0.0
H834 H 0.9028 0.21883 0.84688 0.0
H835 H 0.90078 0.25017 0.84367 0.0
Mn836 Mn 0.50303 0.7537 0.37549 0.0
Mn837 Mn 0.46223 0.74901 0.38973 0.0
C838 C 0.48256 0.73852 0.35936 0.0
C839 C 0.52438 0.76867 0.36013 0.0
C840 C 0.49165 0.72883 0.4039 0.0
O841 O 0.50183 0.7724 0.39376 0.0
O842 O 0.47397 0.76901 0.40138 0.0
C843 C 0.44837 0.78077 0.37553 0.0
N844 N 0.44772 0.76338 0.37672 0.0
C845 C 0.42337 0.76108 0.35752 0.0
C846 C 0.4237 0.77898 0.35618 0.0
C847 C 0.43627 0.78885 0.36521 0.0
C848 C 0.43567 0.75375 0.3681 0.0
H849 H 0.45806 0.78841 0.38236 0.0
C850 C 0.48877 0.77681 0.40239 0.0
O851 O 0.52822 0.75815 0.37231 0.0
O852 O 0.50817 0.77098 0.35738 0.0
N853 N 0.44942 0.73028 0.37924 0.0
C854 C 0.45143 0.71315 0.38119 0.0
C855 C 0.44016 0.70147 0.3726 0.0
C856 C 0.42692 0.70751 0.36218 0.0
C857 C 0.42501 0.72519 0.36051 0.0
C858 C 0.43652 0.73622 0.3695 0.0
H859 H 0.46162 0.70842 0.38912 0.0
O860 O 0.49878 0.73593 0.35721 0.0
O861 O 0.47885 0.74982 0.37092 0.0
O862 O 0.50319 0.73521 0.394 0.0
O863 O 0.47603 0.73335 0.40361 0.0
C864 C 0.41235 0.73229 0.34999 0.0
C865 C 0.41154 0.75023 0.34849 0.0
H866 H 0.41447 0.78526 0.34813 0.0
H867 H 0.43667 0.80267 0.36416 0.0
H868 H 0.44174 0.68784 0.37394 0.0
H869 H 0.41838 0.69846 0.35542 0.0
H870 H 0.40334 0.72408 0.3428 0.0
H871 H 0.4019 0.75554 0.34018 0.0
Mn872 Mn 0.99852 0.74866 0.6303 0.0
Mn873 Mn 0.97947 0.71206 0.64501 0.0
C874 C 0.00106 0.72349 0.61495 0.0
C875 C 0.99742 0.77423 0.61505 0.0
C876 C 0.01255 0.72787 0.65999 0.0
O877 O 0.98175 0.75698 0.6483 0.0
O878 O 0.96783 0.73206 0.65481 0.0
C879 C 0.94556 0.71461 0.62794 0.0
N880 N 0.96 0.70575 0.63096 0.0
C881 C 0.94946 0.68224 0.61327 0.0
C882 C 0.93441 0.69106 0.61007 0.0
C883 C 0.93249 0.70734 0.61739 0.0
C884 C 0.96205 0.69015 0.62386 0.0
H885 H 0.94406 0.72714 0.63353 0.0
C886 C 0.96989 0.74836 0.65604 0.0
O887 O 0.00852 0.77225 0.62733 0.0
O888 O 0.98669 0.76144 0.61186 0.0
N889 N 0.98922 0.69156 0.63658 0.0
C890 C 0.00473 0.68499 0.6405 0.0
C891 C 0.00874 0.6688 0.63409 0.0
C892 C 0.99671 0.65947 0.62389 0.0
C893 C 0.98078 0.66642 0.62013 0.0
C894 C 0.97744 0.68254 0.62702 0.0
H895 H 0.01398 0.69203 0.64846 0.0
O896 O 0.01183 0.73634 0.61253 0.0
O897 O 0.98887 0.72589 0.62598 0.0
O898 O 0.01424 0.73998 0.64916 0.0
O899 O 0.99965 0.71722 0.66013 0.0
C900 C 0.96817 0.65809 0.60967 0.0
C901 C 0.95255 0.66603 0.60618 0.0
H902 H 0.92431 0.68551 0.60191 0.0
H903 H 0.92095 0.71426 0.61491 0.0
H904 H 0.02106 0.66352 0.63705 0.0
H905 H 0.99985 0.64699 0.61898 0.0
H906 H 0.97045 0.64567 0.60407 0.0
H907 H 0.94305 0.6596 0.59793 0.0
Mn908 Mn 0.49744 0.24809 0.13162 0.0
Mn909 Mn 0.47881 0.21122 0.14625 0.0
C910 C 0.50019 0.22296 0.11624 0.0
C911 C 0.49636 0.27361 0.11629 0.0
C912 C 0.51176 0.22726 0.16126 0.0
O913 O 0.48046 0.25627 0.14944 0.0
O914 O 0.46726 0.23112 0.15645 0.0
C915 C 0.44463 0.21386 0.12974 0.0
N916 N 0.45914 0.20502 0.13243 0.0
C917 C 0.44839 0.18168 0.11462 0.0
C918 C 0.43328 0.19049 0.11176 0.0
C919 C 0.43142 0.20667 0.11931 0.0
C920 C 0.46111 0.18949 0.12513 0.0
H921 H 0.44318 0.22632 0.1355 0.0
C922 C 0.46896 0.24747 0.15749 0.0
O923 O 0.50732 0.27172 0.1287 0.0
O924 O 0.48571 0.26078 0.11303 0.0
N925 N 0.48847 0.19083 0.13744 0.0
C926 C 0.50411 0.18432 0.14095 0.0
C927 C 0.50811 0.16827 0.13418 0.0
C928 C 0.49595 0.15902 0.12404 0.0
C929 C 0.4799 0.16591 0.12074 0.0
C930 C 0.47658 0.18189 0.12795 0.0
H931 H 0.51347 0.19131 0.14883 0.0
O932 O 0.51096 0.23583 0.11397 0.0
O933 O 0.48794 0.22526 0.12723 0.0
O934 O 0.51305 0.23964 0.15069 0.0
O935 O 0.49919 0.21623 0.16111 0.0
C936 C 0.46716 0.15766 0.11036 0.0
C937 C 0.45144 0.16557 0.10725 0.0
H938 H 0.42308 0.185 0.10369 0.0
H939 H 0.41983 0.21359 0.11709 0.0
H940 H 0.52053 0.16304 0.13679 0.0
H941 H 0.49911 0.14668 0.11881 0.0
H942 H 0.46941 0.14535 0.10452 0.0
H943 H 0.44184 0.15922 0.09907 0.0
C944 C 0.2282 0.74986 0.87635 0.0
C945 C 0.21243 0.74573 0.86814 0.0
C946 C 0.22876 0.75958 0.89144 0.0
C947 C 0.20414 0.79104 0.91546 0.0
H948 H 0.23835 0.78308 0.95067 0.0
C949 C 0.24394 0.83202 0.96983 0.0
C950 C 0.23079 0.84005 0.97862 0.0
C951 C 0.24003 0.81888 0.95811 0.0
C952 C 0.22872 0.78545 0.94094 0.0
H953 H 0.18481 0.74824 0.86963 0.0
H954 H 0.18576 0.76499 0.89625 0.0
H955 H 0.23435 0.76269 0.92705 0.0
H956 H 0.20338 0.84012 0.98309 0.0
H957 H 0.19635 0.81721 0.96208 0.0
H958 H 0.19872 0.81395 0.92936 0.0
C959 C 0.19772 0.76088 0.89083 0.0
C960 C 0.22646 0.77381 0.92738 0.0
C961 C 0.19716 0.75113 0.87569 0.0
C962 C 0.21366 0.83427 0.97612 0.0
C963 C 0.20968 0.82124 0.96415 0.0
C964 C 0.20633 0.80264 0.92912 0.0
C965 C 0.21355 0.76538 0.89878 0.0
C966 C 0.21445 0.77667 0.91424 0.0
C967 C 0.22286 0.81347 0.95499 0.0
C968 C 0.21894 0.80016 0.94176 0.0
H969 H 0.24018 0.74572 0.871 0.0
H970 H 0.2412 0.76296 0.89707 0.0
H971 H 0.1949 0.79374 0.90547 0.0
H972 H 0.25729 0.83603 0.97191 0.0
H973 H 0.25045 0.81327 0.95115 0.0
C974 C 0.03608 0.49771 0.41831 0.0
C975 C 0.02458 0.51046 0.42269 0.0
C976 C 0.04366 0.49746 0.40209 0.0
C977 C 0.05539 0.52581 0.36619 0.0
H978 H 0.06094 0.48348 0.34096 0.0
C979 C 0.08346 0.52625 0.29812 0.0
C980 C 0.09529 0.51371 0.294 0.0
C981 C 0.07379 0.52506 0.31314 0.0
C982 C 0.05966 0.49539 0.34792 0.0
H983 H 0.01191 0.53286 0.41336 0.0
H984 H 0.0251 0.53238 0.38497 0.0
H985 H 0.04594 0.48293 0.36845 0.0
H986 H 0.10586 0.48983 0.30233 0.0
H987 H 0.08917 0.48792 0.32876 0.0
H988 H 0.06935 0.53827 0.34595 0.0
C989 C 0.02831 0.52262 0.39415 0.0
C990 C 0.05103 0.49508 0.36365 0.0
C991 C 0.02063 0.52281 0.41036 0.0
C992 C 0.09683 0.49969 0.30507 0.0
C993 C 0.08721 0.49856 0.32021 0.0
C994 C 0.06408 0.52611 0.35054 0.0
C995 C 0.04001 0.51002 0.38988 0.0
C996 C 0.0488 0.51029 0.37296 0.0
C997 C 0.07576 0.51139 0.32456 0.0
C998 C 0.06632 0.51092 0.34117 0.0
H999 H 0.03923 0.4879 0.42746 0.0
H1000 H 0.05271 0.48766 0.39925 0.0
H1001 H 0.05418 0.53771 0.37318 0.0
H1002 H 0.08176 0.53714 0.28981 0.0
H1003 H 0.06481 0.53497 0.31584 0.0
C1004 C 0.80633 0.76442 0.87361 0.0
C1005 C 0.81785 0.77778 0.87882 0.0
C1006 C 0.80299 0.75035 0.88425 0.0
C1007 C 0.80524 0.73682 0.92967 0.0
H1008 H 0.79611 0.6918 0.90971 0.0
C1009 C 0.78611 0.67712 0.9706 0.0
C1010 C 0.771 0.66848 0.9647 0.0
C1011 C 0.79454 0.68944 0.96028 0.0
C1012 C 0.79867 0.7043 0.91547 0.0
H1013 H 0.83491 0.78672 0.8994 0.0
H1014 H 0.82943 0.76195 0.91776 0.0
H1015 H 0.8058 0.71543 0.89139 0.0
H1016 H 0.75335 0.66544 0.94309 0.0
H1017 H 0.76814 0.6866 0.92516 0.0
H1018 H 0.79791 0.7256 0.95374 0.0
C1019 C 0.8228 0.76247 0.90551 0.0
C1020 C 0.80412 0.71787 0.90497 0.0
C1021 C 0.82609 0.7766 0.89488 0.0
C1022 C 0.76491 0.67192 0.94807 0.0
C1023 C 0.77345 0.68397 0.93773 0.0
C1024 C 0.7999 0.72319 0.9402 0.0
C1025 C 0.81115 0.74919 0.90036 0.0
C1026 C 0.80706 0.73441 0.91185 0.0
C1027 C 0.7882 0.69306 0.94379 0.0
C1028 C 0.79617 0.70689 0.93313 0.0
H1029 H 0.79993 0.76475 0.86123 0.0
H1030 H 0.79374 0.74052 0.87993 0.0
H1031 H 0.80722 0.7494 0.9354 0.0
H1032 H 0.79108 0.67478 0.98336 0.0
H1033 H 0.80594 0.69622 0.96524 0.0
C1034 C 0.9821 0.96355 0.40596 0.0
C1035 C 0.99718 0.97375 0.40829 0.0
C1036 C 0.96997 0.96776 0.39351 0.0
C1037 C 0.96592 0.99312 0.35347 0.0
H1038 H 0.91767 0.97992 0.35865 0.0
C1039 C 0.9133 0.004 0.30125 0.0
C1040 C 0.90465 0.9886 0.2963 0.0
C1041 C 0.92385 0.00461 0.31593 0.0
C1042 C 0.9311 0.98376 0.3571 0.0
H1043 H 0.0111 0.99674 0.4 0.0
H1044 H 0.98966 0.00451 0.37868 0.0
H1045 H 0.93733 0.97704 0.3829 0.0
H1046 H 0.89992 0.96195 0.30316 0.0
H1047 H 0.91783 0.96322 0.3289 0.0
H1048 H 0.95946 0.99995 0.32762 0.0
C1049 C 0.98739 0.99293 0.38604 0.0
C1050 C 0.94242 0.98198 0.37092 0.0
C1051 C 0.99964 0.98856 0.39833 0.0
C1052 C 0.90642 0.97401 0.30656 0.0
C1053 C 0.9166 0.97473 0.32136 0.0
C1054 C 0.9545 0.99518 0.33974 0.0
C1055 C 0.9725 0.98243 0.38325 0.0
C1056 C 0.96009 0.98619 0.36917 0.0
C1057 C 0.92554 0.98997 0.32611 0.0
C1058 C 0.93709 0.99011 0.34131 0.0
H1059 H 0.97998 0.95195 0.41333 0.0
H1060 H 0.95891 0.95912 0.39157 0.0
H1061 H 0.97942 0.99631 0.35148 0.0
H1062 H 0.91223 0.01544 0.29357 0.0
H1063 H 0.93065 0.01651 0.31936 0.0
C1064 C 0.20527 0.26177 0.63281 0.0
C1065 C 0.18959 0.26982 0.63038 0.0
C1066 C 0.21024 0.24885 0.62158 0.0
C1067 C 0.19287 0.21821 0.58862 0.0
H1068 H 0.24021 0.21783 0.57331 0.0
C1069 C 0.21304 0.1796 0.5295 0.0
C1070 C 0.22833 0.1706 0.5305 0.0
C1071 C 0.20867 0.19097 0.5425 0.0
C1072 C 0.22699 0.21763 0.57763 0.0
H1073 H 0.16695 0.27074 0.61407 0.0
H1074 H 0.1756 0.24834 0.59449 0.0
H1075 H 0.23185 0.23893 0.59461 0.0
H1076 H 0.25106 0.16664 0.54606 0.0
H1077 H 0.2434 0.18658 0.5688 0.0
H1078 H 0.18795 0.19711 0.57143 0.0
C1079 C 0.18393 0.25172 0.60527 0.0
C1080 C 0.22219 0.22971 0.58986 0.0
C1081 C 0.17896 0.26459 0.61651 0.0
C1082 C 0.23919 0.17334 0.54485 0.0
C1083 C 0.23485 0.18483 0.55785 0.0
C1084 C 0.19765 0.2062 0.57637 0.0
C1085 C 0.19965 0.24371 0.60763 0.0
C1086 C 0.20502 0.23028 0.59535 0.0
C1087 C 0.2195 0.19371 0.55685 0.0
C1088 C 0.21471 0.20589 0.57059 0.0
H1089 H 0.21367 0.26537 0.64349 0.0
H1090 H 0.22232 0.24279 0.62391 0.0
H1091 H 0.17961 0.21804 0.59281 0.0
H1092 H 0.20432 0.17785 0.51867 0.0
H1093 H 0.19688 0.19779 0.54122 0.0
C1094 C 0.49373 0.52607 0.61229 0.0
C1095 C 0.50864 0.53585 0.61682 0.0
C1096 C 0.48171 0.52105 0.62479 0.0
C1097 C 0.46756 0.53187 0.66884 0.0
H1098 H 0.4448 0.48689 0.66675 0.0
C1099 C 0.41099 0.51303 0.71339 0.0
C1100 C 0.41008 0.49627 0.71993 0.0
C1101 C 0.42298 0.51769 0.70079 0.0
C1102 C 0.45115 0.49945 0.66763 0.0
H1103 H 0.52245 0.54816 0.63812 0.0
H1104 H 0.50186 0.53899 0.65989 0.0
H1105 H 0.46595 0.49511 0.64503 0.0
H1106 H 0.42127 0.4713 0.7183 0.0
H1107 H 0.4424 0.47954 0.69659 0.0
H1108 H 0.45315 0.53606 0.69168 0.0
C1109 C 0.49929 0.53538 0.64665 0.0
C1110 C 0.46312 0.50425 0.65502 0.0
C1111 C 0.51124 0.54044 0.63417 0.0
C1112 C 0.42155 0.48431 0.71357 0.0
C1113 C 0.43361 0.48901 0.70101 0.0
C1114 C 0.45565 0.52706 0.68146 0.0
C1115 C 0.48432 0.52567 0.64213 0.0
C1116 C 0.47149 0.52053 0.65547 0.0
C1117 C 0.43446 0.50575 0.69443 0.0
C1118 C 0.44726 0.51079 0.68102 0.0
H1119 H 0.49137 0.52216 0.5991 0.0
H1120 H 0.47026 0.51373 0.62081 0.0
H1121 H 0.47357 0.54459 0.66949 0.0
H1122 H 0.40231 0.52258 0.71786 0.0
H1123 H 0.42306 0.53062 0.69585 0.0
C1124 C 0.82355 0.25707 0.63605 0.0
C1125 C 0.81248 0.24244 0.63694 0.0
C1126 C 0.81894 0.27132 0.6265 0.0
C1127 C 0.78162 0.29184 0.60665 0.0
H1128 H 0.81583 0.31273 0.57649 0.0
C1129 C 0.78326 0.33541 0.54201 0.0
C1130 C 0.77135 0.34776 0.54636 0.0
C1131 C 0.78943 0.32436 0.55447 0.0
C1132 C 0.80614 0.30704 0.58485 0.0
H1133 H 0.78784 0.23139 0.62846 0.0
H1134 H 0.77977 0.25623 0.61193 0.0
H1135 H 0.82387 0.28973 0.59568 0.0
H1136 H 0.75705 0.35863 0.56732 0.0
H1137 H 0.76791 0.33935 0.58912 0.0
H1138 H 0.76375 0.30874 0.59543 0.0
C1139 C 0.79193 0.25678 0.61881 0.0
C1140 C 0.81078 0.29398 0.59597 0.0
C1141 C 0.79656 0.24253 0.6283 0.0
C1142 C 0.76619 0.34922 0.56356 0.0
C1143 C 0.77232 0.33811 0.57602 0.0
C1144 C 0.777 0.30494 0.59558 0.0
C1145 C 0.80312 0.27129 0.61767 0.0
C1146 C 0.79851 0.28604 0.60681 0.0
C1147 C 0.7838 0.32537 0.57156 0.0
C1148 C 0.78914 0.31252 0.58437 0.0
H1149 H 0.83579 0.25755 0.64277 0.0
H1150 H 0.82774 0.28238 0.62607 0.0
H1151 H 0.77191 0.28612 0.61499 0.0
H1152 H 0.78749 0.33396 0.52887 0.0
H1153 H 0.79812 0.31459 0.55055 0.0
C1154 C 0.51361 0.00371 0.6029 0.0
C1155 C 0.5162 0.9894 0.59235 0.0
C1156 C 0.52211 0.00554 0.61871 0.0
C1157 C 0.54564 0.98206 0.65206 0.0
H1158 H 0.56668 0.02682 0.66203 0.0
C1159 C 0.59572 0.99411 0.70677 0.0
C1160 C 0.59541 0.00975 0.71577 0.0
C1161 C 0.58498 0.99102 0.6925 0.0
C1162 C 0.56068 0.0143 0.65962 0.0
H1163 H 0.52924 0.96544 0.59049 0.0
H1164 H 0.54422 0.96871 0.61805 0.0
H1165 H 0.54972 0.02248 0.63592 0.0
H1166 H 0.583 0.03414 0.71712 0.0
H1167 H 0.56414 0.02861 0.69257 0.0
H1168 H 0.55668 0.97388 0.67579 0.0
C1169 C 0.53556 0.9785 0.61409 0.0
C1170 C 0.55095 0.01181 0.64461 0.0
C1171 C 0.52711 0.9767 0.59823 0.0
C1172 C 0.58373 0.02199 0.71045 0.0
C1173 C 0.57296 0.01887 0.69627 0.0
C1174 C 0.55533 0.98457 0.66715 0.0
C1175 C 0.53337 0.99308 0.62439 0.0
C1176 C 0.54333 0.99567 0.64063 0.0
C1177 C 0.57363 0.00347 0.68693 0.0
C1178 C 0.563 0.00072 0.6711 0.0
H1179 H 0.50543 0.01381 0.5987 0.0
H1180 H 0.51998 0.01682 0.62643 0.0
H1181 H 0.53979 0.96951 0.64944 0.0
H1182 H 0.60458 0.9844 0.71045 0.0
H1183 H 0.58598 0.97908 0.68553 0.0
C1184 C 0.88438 0.1795 0.74644 0.0
C1185 C 0.8777 0.19279 0.73658 0.0
C1186 C 0.89498 0.18318 0.76066 0.0
C1187 C 0.90652 0.21697 0.79219 0.0
H1188 H 0.94933 0.19353 0.79675 0.0
C1189 C 0.95996 0.24114 0.83851 0.0
C1190 C 0.96969 0.22911 0.84714 0.0
C1191 C 0.94819 0.23589 0.82577 0.0
C1192 C 0.9373 0.19999 0.79588 0.0
H1193 H 0.87709 0.22041 0.73403 0.0
H1194 H 0.89528 0.22676 0.75901 0.0
H1195 H 0.92951 0.18579 0.77335 0.0
H1196 H 0.97559 0.20238 0.84882 0.0
H1197 H 0.95452 0.19294 0.82687 0.0
H1198 H 0.91418 0.23116 0.81465 0.0
C1199 C 0.89219 0.2135 0.75577 0.0
C1200 C 0.92596 0.19558 0.78242 0.0
C1201 C 0.88172 0.20984 0.74147 0.0
C1202 C 0.96794 0.2118 0.84249 0.0
C1203 C 0.95598 0.20647 0.82985 0.0
C1204 C 0.91777 0.22129 0.80571 0.0
C1205 C 0.89901 0.20021 0.76545 0.0
C1206 C 0.91057 0.20419 0.78031 0.0
C1207 C 0.94593 0.21847 0.82134 0.0
C1208 C 0.93343 0.21303 0.80761 0.0
H1209 H 0.88131 0.16622 0.74327 0.0
H1210 H 0.89989 0.17267 0.76801 0.0
H1211 H 0.89462 0.22364 0.79104 0.0
H1212 H 0.96157 0.25466 0.84152 0.0
H1213 H 0.94106 0.24557 0.81923 0.0
C1214 C 0.50126 0.9173 0.47426 0.0
C1215 C 0.48722 0.92072 0.48488 0.0
C1216 C 0.50249 0.90134 0.46629 0.0
C1217 C 0.48569 0.85622 0.46807 0.0
H1218 H 0.50178 0.85467 0.42106 0.0
C1219 C 0.47688 0.79634 0.42467 0.0
C1220 C 0.49037 0.79226 0.41358 0.0
C1221 C 0.47768 0.81148 0.43431 0.0
C1222 C 0.4975 0.85485 0.43426 0.0
H1223 H 0.46345 0.91001 0.49541 0.0
H1224 H 0.46546 0.88219 0.48131 0.0
H1225 H 0.50058 0.88212 0.43586 0.0
H1226 H 0.51548 0.80086 0.40429 0.0
H1227 H 0.51684 0.82732 0.42117 0.0
H1228 H 0.4823 0.82894 0.4663 0.0
C1229 C 0.4757 0.89176 0.47939 0.0
C1230 C 0.4968 0.87061 0.44277 0.0
C1231 C 0.47451 0.90773 0.48744 0.0
C1232 C 0.50486 0.80356 0.41269 0.0
C1233 C 0.5056 0.81879 0.42227 0.0
C1234 C 0.48632 0.84047 0.45953 0.0
C1235 C 0.48968 0.88838 0.46866 0.0
C1236 C 0.4908 0.87152 0.45976 0.0
C1237 C 0.49193 0.823 0.43306 0.0
C1238 C 0.49214 0.83961 0.44249 0.0
H1239 H 0.51143 0.92693 0.47227 0.0
H1240 H 0.51361 0.89911 0.45839 0.0
H1241 H 0.4813 0.85639 0.48124 0.0
H1242 H 0.46552 0.78798 0.42573 0.0
H1243 H 0.46685 0.81441 0.44235 0.0
C1244 C 0.10882 0.31775 0.73835 0.0
C1245 C 0.12625 0.31363 0.73766 0.0
C1246 C 0.09895 0.31381 0.75284 0.0
C1247 C 0.0967 0.28509 0.79016 0.0
H1248 H 0.06373 0.31718 0.80677 0.0
C1249 C 0.05462 0.27031 0.84955 0.0
C1250 C 0.03711 0.27386 0.84787 0.0
C1251 C 0.06657 0.27651 0.8375 0.0
C1252 C 0.0728 0.30803 0.80223 0.0
H1253 H 0.14698 0.30227 0.75184 0.0
H1254 H 0.12967 0.29527 0.77711 0.0
H1255 H 0.08255 0.32518 0.78294 0.0
H1256 H 0.01852 0.28718 0.83256 0.0
H1257 H 0.03928 0.29784 0.81153 0.0
H1258 H 0.08674 0.26781 0.80922 0.0
C1259 C 0.12364 0.30144 0.76633 0.0
C1260 C 0.08358 0.31262 0.78857 0.0
C1261 C 0.13354 0.30542 0.75184 0.0
C1262 C 0.03192 0.28423 0.83425 0.0
C1263 C 0.04386 0.29042 0.82222 0.0
C1264 C 0.08589 0.28049 0.80381 0.0
C1265 C 0.10622 0.3056 0.767 0.0
C1266 C 0.09551 0.30112 0.78222 0.0
C1267 C 0.06129 0.2864 0.82352 0.0
C1268 C 0.07366 0.29182 0.80988 0.0
H1269 H 0.10268 0.32377 0.72755 0.0
H1270 H 0.0855 0.3169 0.75279 0.0
H1271 H 0.1056 0.27586 0.78546 0.0
H1272 H 0.05904 0.26239 0.85993 0.0
H1273 H 0.07994 0.27339 0.83905 0.0
C1274 C 0.54433 0.61414 0.49588 0.0
C1275 C 0.53339 0.60948 0.50953 0.0
C1276 C 0.5396 0.62657 0.48408 0.0
C1277 C 0.50236 0.64873 0.46656 0.0
H1278 H 0.53648 0.68411 0.45465 0.0
C1279 C 0.51282 0.70816 0.41536 0.0
C1280 C 0.49647 0.71521 0.41608 0.0
C1281 C 0.51721 0.69504 0.42653 0.0
C1282 C 0.52685 0.67421 0.45763 0.0
H1283 H 0.50868 0.61384 0.52117 0.0
H1284 H 0.50043 0.63557 0.50054 0.0
H1285 H 0.5442 0.66127 0.47408 0.0
H1286 H 0.47197 0.714 0.42932 0.0
H1287 H 0.47977 0.69145 0.44902 0.0
H1288 H 0.48503 0.66156 0.45 0.0
C1289 C 0.51266 0.62959 0.49898 0.0
C1290 C 0.53128 0.66112 0.4688 0.0
C1291 C 0.51744 0.61725 0.51087 0.0
C1292 C 0.48467 0.70887 0.42834 0.0
C1293 C 0.4891 0.69582 0.43958 0.0
C1294 C 0.49795 0.66177 0.45529 0.0
C1295 C 0.52378 0.63453 0.48557 0.0
C1296 C 0.51908 0.64825 0.47343 0.0
C1297 C 0.50542 0.68869 0.43879 0.0
C1298 C 0.51012 0.67472 0.45071 0.0
H1299 H 0.55676 0.60851 0.49458 0.0
H1300 H 0.54837 0.62997 0.47378 0.0
H1301 H 0.49273 0.63888 0.46972 0.0
H1302 H 0.52221 0.71261 0.40602 0.0
H1303 H 0.52979 0.6897 0.42535 0.0
C1304 C 0.88661 0.82356 0.7646 0.0
C1305 C 0.87076 0.81528 0.76865 0.0
C1306 C 0.89679 0.8174 0.75134 0.0
C1307 C 0.90519 0.77771 0.72825 0.0
H1308 H 0.92817 0.80729 0.69499 0.0
C1309 C 0.94218 0.74936 0.67207 0.0
C1310 C 0.95789 0.75743 0.66732 0.0
C1311 C 0.9312 0.75726 0.68349 0.0
C1312 C 0.92202 0.79887 0.7043 0.0
H1313 H 0.85291 0.79445 0.76132 0.0
H1314 H 0.87082 0.78356 0.73845 0.0
H1315 H 0.90963 0.81964 0.71667 0.0
H1316 H 0.97417 0.78038 0.67058 0.0
H1317 H 0.95516 0.79404 0.69093 0.0
H1318 H 0.91777 0.75701 0.71633 0.0
C1319 C 0.87543 0.79471 0.74568 0.0
C1320 C 0.91136 0.80595 0.71668 0.0
C1321 C 0.86519 0.80093 0.75883 0.0
C1322 C 0.96215 0.77383 0.67395 0.0
C1323 C 0.9512 0.78168 0.68557 0.0
C1324 C 0.91593 0.77067 0.71602 0.0
C1325 C 0.89143 0.80275 0.74193 0.0
C1326 C 0.90275 0.79541 0.72871 0.0
C1327 C 0.93568 0.77337 0.69067 0.0
C1328 C 0.92441 0.78111 0.70379 0.0
H1329 H 0.89144 0.83449 0.77202 0.0
H1330 H 0.90914 0.82376 0.74885 0.0
H1331 H 0.89902 0.7693 0.73757 0.0
H1332 H 0.93836 0.73684 0.66702 0.0
H1333 H 0.91917 0.75065 0.68673 0.0
C1334 C 0.00964 0.88813 0.50744 0.0
C1335 C 0.023 0.90022 0.51118 0.0
C1336 C 0.00466 0.87573 0.51948 0.0
C1337 C 0.00839 0.86392 0.56559 0.0
H1338 H 1.00051 0.81779 0.54794 0.0
C1339 C 0.00945 0.8036 0.60831 0.0
C1340 C 0.99765 0.79 0.60458 0.0
C1341 C 0.01064 0.81795 0.59766 0.0
C1342 C 0.0024 0.83063 0.55308 0.0
H1343 H 0.04135 0.909 0.53067 0.0
H1344 H 0.03279 0.88727 0.55165 0.0
H1345 H 0.00602 0.84124 0.52806 0.0
H1346 H 0.97746 0.78102 0.58704 0.0
H1347 H 0.97949 0.8061 0.56848 0.0
H1348 H 0.00515 0.85313 0.59068 0.0
C1349 C 0.02596 0.88751 0.5395 0.0
C1350 C 0.00555 0.84411 0.54167 0.0
C1351 C 0.03089 0.89998 0.52746 0.0
C1352 C 0.98673 0.79126 0.59024 0.0
C1353 C 0.98796 0.80558 0.57955 0.0
C1354 C 0.00529 0.8504 0.57703 0.0
C1355 C 0.01297 0.87505 0.53555 0.0
C1356 C 0.00871 0.86092 0.54777 0.0
C1357 C 1.0001 0.81899 0.58299 0.0
C1358 C 0.00239 0.83357 0.5709 0.0
H1359 H 0.00312 0.88817 0.4951 0.0
H1360 H 0.99436 0.86657 0.51614 0.0
H1361 H 0.01052 0.87674 0.57073 0.0
H1362 H 0.01805 0.80303 0.61927 0.0
H1363 H 0.02024 0.82796 0.6006 0.0
C1364 C 0.14312 0.70861 0.7437 0.0
C1365 C 0.14174 0.70608 0.76149 0.0
C1366 C 0.12843 0.71082 0.73367 0.0
C1367 C 0.08299 0.7011 0.72961 0.0
H1368 H 0.08162 0.74289 0.70308 0.0
C1369 C 0.02356 0.71697 0.68815 0.0
C1370 C 0.02657 0.72569 0.67265 0.0
C1371 C 0.03697 0.71483 0.69993 0.0
C1372 C 0.08184 0.731 0.71014 0.0
H1373 H 0.124 0.70342 0.78273 0.0
H1374 H 0.09809 0.70674 0.76496 0.0
H1375 H 0.10631 0.73794 0.72151 0.0
H1376 H 0.04611 0.73863 0.65716 0.0
H1377 H 0.06953 0.73428 0.67717 0.0
H1378 H 0.05897 0.69368 0.71772 0.0
C1379 C 0.1106 0.7072 0.75891 0.0
C1380 C 0.09595 0.72827 0.72081 0.0
C1381 C 0.12536 0.70535 0.76903 0.0
C1382 C 0.0433 0.73207 0.66911 0.0
C1383 C 0.05674 0.72966 0.68069 0.0
C1384 C 0.06898 0.70366 0.71865 0.0
C1385 C 0.11207 0.71021 0.74119 0.0
C1386 C 0.0967 0.71327 0.73054 0.0
C1387 C 0.05379 0.72109 0.69633 0.0
C1388 C 0.06828 0.7186 0.70864 0.0
H1389 H 0.15561 0.70939 0.73761 0.0
H1390 H 0.12985 0.71306 0.72002 0.0
H1391 H 0.08336 0.68939 0.73696 0.0
H1392 H 0.01078 0.71197 0.69127 0.0
H1393 H 0.03408 0.70841 0.71191 0.0
C1394 C 0.98538 0.59442 0.52533 0.0
C1395 C 0.99904 0.58325 0.52669 0.0
C1396 C 0.98621 0.61031 0.53373 0.0
C1397 C 0.00925 0.63317 0.56952 0.0
H1398 H 0.98876 0.67317 0.54998 0.0
C1399 C 0.01666 0.69935 0.60214 0.0
C1400 C 0.00151 0.70835 0.60372 0.0
C1401 C 0.01702 0.68484 0.5916 0.0
C1402 C 0.99446 0.66208 0.55564 0.0
H1403 H 0.02458 0.58025 0.53721 0.0
H1404 H 0.02628 0.60809 0.55146 0.0
H1405 H 0.98821 0.64639 0.53369 0.0
H1406 H 0.97548 0.71059 0.59432 0.0
H1407 H 0.97595 0.68511 0.57594 0.0
H1408 H 0.01572 0.6489 0.59132 0.0
C1409 C 0.01466 0.60443 0.5444 0.0
C1410 C 0.9941 0.64669 0.54633 0.0
C1411 C 0.01374 0.58849 0.53617 0.0
C1412 C 0.98711 0.70343 0.59369 0.0
C1413 C 0.98749 0.68901 0.58302 0.0
C1414 C 0.00976 0.64856 0.57872 0.0
C1415 C 1.00081 0.61546 0.54352 0.0
C1416 C 0.00144 0.632 0.55318 0.0
C1417 C 0.00234 0.67933 0.58213 0.0
C1418 C 0.00229 0.66318 0.57195 0.0
H1419 H 0.97383 0.59064 0.51822 0.0
H1420 H 0.9752 0.61834 0.53292 0.0
H1421 H 0.01472 0.62208 0.5754 0.0
H1422 H 0.02806 0.70328 0.60943 0.0
H1423 H 0.02876 0.67787 0.59093 0.0
C1424 C 0.73698 0.88811 0.18017 0.0
C1425 C 0.72778 0.87904 0.19292 0.0
C1426 C 0.75085 0.89921 0.1846 0.0
C1427 C 0.78209 0.90871 0.21975 0.0
H1428 H 0.7883 0.95256 0.19708 0.0
C1429 C 0.82935 0.96106 0.24566 0.0
C1430 C 0.83916 0.97059 0.23379 0.0
C1431 C 0.8161 0.94982 0.24008 0.0
C1432 C 0.78689 0.94026 0.20337 0.0
H1433 H 0.72568 0.8748 0.22034 0.0
H1434 H 0.74975 0.89423 0.22809 0.0
H1435 H 0.76451 0.93306 0.18848 0.0
H1436 H 0.84235 0.9768 0.20694 0.0
H1437 H 0.81931 0.95676 0.19696 0.0
H1438 H 0.80419 0.91597 0.23485 0.0
C1439 C 0.7465 0.89251 0.21463 0.0
C1440 C 0.77324 0.92908 0.19845 0.0
C1441 C 0.73268 0.88139 0.2102 0.0
C1442 C 0.8351 0.96928 0.21626 0.0
C1443 C 0.82187 0.95791 0.21062 0.0
C1444 C 0.79566 0.91989 0.2247 0.0
C1445 C 0.7558 0.90152 0.20189 0.0
C1446 C 0.7706 0.91322 0.20668 0.0
C1447 C 0.81227 0.94798 0.22248 0.0
C1448 C 0.79819 0.93585 0.21666 0.0
H1449 H 0.73365 0.88641 0.16673 0.0
H1450 H 0.75787 0.90577 0.17445 0.0
H1451 H 0.78064 0.89646 0.22613 0.0
H1452 H 0.83191 0.96237 0.25931 0.0
H1453 H 0.80872 0.94271 0.24961 0.0
C1454 C 0.77102 0.14945 0.30368 0.0
C1455 C 0.75331 0.14647 0.30076 0.0
C1456 C 0.78238 0.13612 0.30218 0.0
C1457 C 0.78617 0.08994 0.30403 0.0
H1458 H 0.82376 0.09696 0.27205 0.0
C1459 C 0.82764 0.03441 0.28138 0.0
C1460 C 0.84469 0.03804 0.27634 0.0
C1461 C 0.81699 0.04763 0.28608 0.0
C1462 C 0.81361 0.09483 0.28133 0.0
H1463 H 0.7335 0.12718 0.29447 0.0
H1464 H 0.75342 0.10365 0.29225 0.0
H1465 H 0.80421 0.11992 0.27735 0.0
H1466 H 0.86429 0.05819 0.2732 0.0
H1467 H 0.84607 0.08119 0.28229 0.0
H1468 H 0.79572 0.06505 0.30845 0.0
C1469 C 0.75846 0.11637 0.29557 0.0
C1470 C 0.80232 0.10799 0.28424 0.0
C1471 C 0.74711 0.1298 0.29675 0.0
C1472 C 0.85114 0.05505 0.27688 0.0
C1473 C 0.8406 0.06824 0.28193 0.0
C1474 C 0.79767 0.07685 0.30139 0.0
C1475 C 0.77622 0.11948 0.29802 0.0
C1476 C 0.78842 0.10562 0.29549 0.0
C1477 C 0.82323 0.06479 0.28618 0.0
C1478 C 0.81148 0.07904 0.28986 0.0
H1479 H 0.77615 0.16222 0.30663 0.0
H1480 H 0.79601 0.13882 0.30417 0.0
H1481 H 0.77561 0.08787 0.31288 0.0
H1482 H 0.82228 0.02141 0.28095 0.0
H1483 H 0.80368 0.04438 0.28899 0.0
C1484 C 0.40811 0.9812 0.98188 0.0
C1485 C 0.41827 0.98413 0.99669 0.0
C1486 C 0.39164 0.9735 0.98307 0.0
C1487 C 0.36529 0.94503 0.01061 0.0
H1488 H 0.32743 0.96095 0.98314 0.0
C1489 C 0.29706 0.9129 0.01396 0.0
C1490 C 0.28846 0.91023 0.99816 0.0
C1491 C 0.31214 0.92326 0.01494 0.0
C1492 C 0.3379 0.95625 0.9908 0.0
H1493 H 0.41874 0.9817 0.02445 0.0
H1494 H 0.3901 0.96804 0.02646 0.0
H1495 H 0.35523 0.97647 0.9825 0.0
H1496 H 0.28901 0.91663 0.97103 0.0
H1497 H 0.31526 0.93432 0.97272 0.0
H1498 H 0.34813 0.92457 0.01859 0.0
C1499 C 0.39499 0.97156 0.01391 0.0
C1500 C 0.35382 0.96516 0.99044 0.0
C1501 C 0.41142 0.97936 0.01274 0.0
C1502 C 0.29517 0.91842 0.98346 0.0
C1503 C 0.31023 0.9287 0.98443 0.0
C1504 C 0.34939 0.93605 0.0109 0.0
C1505 C 0.38495 0.96845 0.99908 0.0
C1506 C 0.36775 0.95955 1.0002 0.0
C1507 C 0.319 0.93116 1.00014 0.0
C1508 C 0.33554 0.94143 0.00083 0.0
H1509 H 0.41304 0.98445 0.96929 0.0
H1510 H 0.38432 0.97107 0.97138 0.0
H1511 H 0.37583 0.94026 0.01813 0.0
H1512 H 0.29226 0.90685 0.02556 0.0
H1513 H 0.31845 0.92505 0.02729 0.0
C1514 C 0.26649 0.39804 0.32061 0.0
C1515 C 0.26696 0.3808 0.31541 0.0
C1516 C 0.25231 0.40778 0.31668 0.0
C1517 C 0.21589 0.41015 0.28644 0.0
H1518 H 0.19908 0.44235 0.31985 0.0
C1519 C 0.15787 0.45191 0.27175 0.0
C1520 C 0.15988 0.46926 0.27645 0.0
C1521 C 0.16948 0.43999 0.27766 0.0
C1522 C 0.20368 0.4335 0.31033 0.0
H1523 H 0.25268 0.36026 0.30218 0.0
H1524 H 0.22795 0.37733 0.29522 0.0
H1525 H 0.22222 0.42369 0.32777 0.0
H1526 H 0.17535 0.48761 0.29147 0.0
H1527 H 0.19561 0.46693 0.30164 0.0
H1528 H 0.19758 0.42018 0.2689 0.0
C1529 C 0.23867 0.38333 0.30221 0.0
C1530 C 0.21695 0.42281 0.31487 0.0
C1531 C 0.25286 0.37356 0.30618 0.0
C1532 C 0.17341 0.47433 0.28762 0.0
C1533 C 0.18499 0.46244 0.29354 0.0
C1534 C 0.20262 0.42088 0.28189 0.0
C1535 C 0.23823 0.40057 0.30741 0.0
C1536 C 0.22338 0.41116 0.30291 0.0
C1537 C 0.18334 0.44516 0.28843 0.0
C1538 C 0.19651 0.43284 0.29371 0.0
H1539 H 0.27724 0.40415 0.32745 0.0
H1540 H 0.25255 0.4211 0.32061 0.0
H1541 H 0.22066 0.40147 0.27685 0.0
H1542 H 0.14755 0.44759 0.26318 0.0
H1543 H 0.16769 0.42674 0.27367 0.0
C1544 C 0.11005 0.00799 0.49591 0.0
C1545 C 0.10664 0.00214 0.47911 0.0
C1546 C 0.12371 0.0198 0.49918 0.0
C1547 C 0.15314 0.05089 0.47638 0.0
H1548 H 0.17925 0.05028 0.51891 0.0
C1549 C 0.2153 0.09218 0.48533 0.0
C1550 C 0.21754 0.10084 0.50103 0.0
C1551 C 0.20213 0.0797 0.48323 0.0
C1552 C 0.17199 0.0507 0.50702 0.0
H1553 H 0.11516 0.00332 0.45272 0.0
H1554 H 0.13933 0.0232 0.4584 0.0
H1555 H 0.15563 0.0293 0.5142 0.0
H1556 H 0.20876 0.10253 0.52726 0.0
H1557 H 0.18534 0.08087 0.52359 0.0
H1558 H 0.16992 0.07165 0.46885 0.0
C1559 C 0.13115 0.0194 0.46902 0.0
C1560 C 0.15838 0.0387 0.50433 0.0
C1561 C 0.11734 0.0079 0.46574 0.0
C1562 C 0.20699 0.09621 0.51493 0.0
C1563 C 0.19371 0.08374 0.51283 0.0
C1564 C 0.16689 0.06261 0.47894 0.0
C1565 C 0.13441 0.02574 0.48574 0.0
C1566 C 0.14877 0.03861 0.48893 0.0
C1567 C 0.191 0.07547 0.49688 0.0
C1568 C 0.17646 0.06276 0.4943 0.0
H1569 H 0.10193 0.00371 0.50642 0.0
H1570 H 0.12565 0.0245 0.51217 0.0
H1571 H 0.14586 0.05159 0.46452 0.0
H1572 H 0.22375 0.09512 0.47463 0.0
H1573 H 0.20069 0.07332 0.47089 0.0
C1574 C 0.76187 0.12201 0.68076 0.0
C1575 C 0.77298 0.1297 0.69313 0.0
C1576 C 0.74865 0.11044 0.68566 0.0
C1577 C 0.7353 0.08205 0.72161 0.0
H1578 H 0.69099 0.08106 0.69843 0.0
C1579 C 0.67603 0.0434 0.74664 0.0
C1580 C 0.66614 0.03406 0.73446 0.0
C1581 C 0.68913 0.05488 0.74138 0.0
C1582 C 0.70336 0.08111 0.70491 0.0
H1583 H 0.77876 0.13122 0.72041 0.0
H1584 H 0.75539 0.11161 0.72897 0.0
H1585 H 0.7134 0.10198 0.68984 0.0
H1586 H 0.6627 0.02834 0.70743 0.0
H1587 H 0.68551 0.04877 0.69807 0.0
H1588 H 0.72511 0.06135 0.73685 0.0
C1589 C 0.75708 0.11425 0.71544 0.0
C1590 C 0.71622 0.09306 0.69998 0.0
C1591 C 0.77036 0.12572 0.71053 0.0
C1592 C 0.66996 0.03577 0.71697 0.0
C1593 C 0.68293 0.04745 0.71166 0.0
C1594 C 0.7224 0.07021 0.72662 0.0
C1595 C 0.74614 0.10634 0.70306 0.0
C1596 C 0.73236 0.09369 0.70828 0.0
C1597 C 0.6926 0.05715 0.72383 0.0
C1598 C 0.70631 0.06961 0.71832 0.0
H1599 H 0.76334 0.12494 0.66726 0.0
H1600 H 0.74059 0.1045 0.67575 0.0
H1601 H 0.74766 0.0819 0.72807 0.0
H1602 H 0.67358 0.04186 0.76024 0.0
H1603 H 0.69633 0.06221 0.75104 0.0
C1604 C 0.41614 0.0419 0.52811 0.0
C1605 C 0.41932 0.02866 0.5164 0.0
C1606 C 0.40134 0.0514 0.52662 0.0
C1607 C 0.35776 0.05072 0.50707 0.0
H1608 H 0.36192 0.09984 0.51435 0.0
C1609 C 0.30195 0.09518 0.49208 0.0
C1610 C 0.2989 0.10821 0.50406 0.0
C1611 C 0.31676 0.08564 0.49329 0.0
C1612 C 0.36049 0.08612 0.51245 0.0
H1613 H 0.40931 0.01497 0.49397 0.0
H1614 H 0.38347 0.03154 0.49135 0.0
H1615 H 0.38724 0.08263 0.51726 0.0
H1616 H 0.30913 0.1216 0.52658 0.0
H1617 H 0.33491 0.10491 0.52874 0.0
H1618 H 0.33099 0.05422 0.50226 0.0
C1619 C 0.39235 0.03446 0.50183 0.0
C1620 C 0.37501 0.07624 0.51413 0.0
C1621 C 0.40716 0.02494 0.50333 0.0
C1622 C 0.31112 0.11168 0.51711 0.0
C1623 C 0.32594 0.10216 0.5183 0.0
C1624 C 0.34323 0.06061 0.50538 0.0
C1625 C 0.38932 0.04791 0.51337 0.0
C1626 C 0.37383 0.0584 0.51151 0.0
C1627 C 0.32888 0.08892 0.50649 0.0
C1628 C 0.3444 0.07843 0.50807 0.0
H1629 H 0.42507 0.04491 0.53851 0.0
H1630 H 0.39926 0.06143 0.53594 0.0
H1631 H 0.35632 0.037 0.5052 0.0
H1632 H 0.29281 0.0922 0.48185 0.0
H1633 H 0.31873 0.07572 0.48382 0.0
C1634 C 0.61043 0.49253 0.54925 0.0
C1635 C 0.60732 0.50633 0.5383 0.0
C1636 C 0.62242 0.4804 0.54482 0.0
C1637 C 0.64575 0.46245 0.50821 0.0
H1638 H 0.67871 0.44972 0.54299 0.0
C1639 C 0.70538 0.42384 0.49171 0.0
C1640 C 0.7107 0.41156 0.50357 0.0
C1641 C 0.69241 0.43501 0.49589 0.0
C1642 C 0.66946 0.45291 0.53318 0.0
H1643 H 0.61394 0.51792 0.51386 0.0
H1644 H 0.63489 0.49673 0.50611 0.0
H1645 H 0.6564 0.46951 0.55025 0.0
H1646 H 0.70626 0.40131 0.52909 0.0
H1647 H 0.68346 0.42052 0.53622 0.0
H1648 H 0.65869 0.44577 0.49115 0.0
C1649 C 0.62805 0.4953 0.51813 0.0
C1650 C 0.65668 0.46429 0.53735 0.0
C1651 C 0.61617 0.50751 0.52263 0.0
C1652 C 0.70262 0.41068 0.51968 0.0
C1653 C 0.68957 0.42178 0.52381 0.0
C1654 C 0.65846 0.45097 0.50406 0.0
C1655 C 0.63146 0.48172 0.52927 0.0
C1656 C 0.64473 0.46925 0.5249 0.0
C1657 C 0.68431 0.43413 0.51199 0.0
C1658 C 0.67055 0.44611 0.51647 0.0
H1659 H 0.60393 0.49135 0.56148 0.0
H1660 H 0.62464 0.46999 0.5536 0.0
H1661 H 0.63659 0.46586 0.49839 0.0
H1662 H 0.71133 0.42495 0.4792 0.0
H1663 H 0.68891 0.44452 0.48656 0.0
C1664 C 0.69722 0.2549 0.37359 0.0
C1665 C 0.71254 0.24907 0.36651 0.0
C1666 C 0.69757 0.26447 0.38885 0.0
C1667 C 0.72553 0.27607 0.42644 0.0
H1668 H 0.69877 0.31689 0.42822 0.0
C1669 C 0.74344 0.33363 0.46962 0.0
C1670 C 0.7303 0.3419 0.47819 0.0
C1671 C 0.73948 0.32059 0.4578 0.0
C1672 C 0.7061 0.30539 0.42802 0.0
H1673 H 0.74013 0.24812 0.37033 0.0
H1674 H 0.74082 0.2651 0.39654 0.0
H1675 H 0.6951 0.2971 0.40398 0.0
H1676 H 0.70285 0.3425 0.48219 0.0
H1677 H 0.69573 0.31979 0.46099 0.0
H1678 H 0.73704 0.28478 0.45011 0.0
C1679 C 0.72848 0.26218 0.39047 0.0
C1680 C 0.704 0.29403 0.41416 0.0
C1681 C 0.72812 0.25263 0.37528 0.0
C1682 C 0.71312 0.33646 0.4754 0.0
C1683 C 0.7091 0.32354 0.46332 0.0
C1684 C 0.72773 0.28749 0.44019 0.0
C1685 C 0.71324 0.26837 0.39738 0.0
C1686 C 0.71397 0.27942 0.41301 0.0
C1687 C 0.72227 0.31555 0.45435 0.0
C1688 C 0.71831 0.30245 0.44093 0.0
H1689 H 0.68501 0.25247 0.3671 0.0
H1690 H 0.68558 0.26889 0.39391 0.0
H1691 H 0.73313 0.26476 0.42618 0.0
H1692 H 0.75682 0.33738 0.47194 0.0
H1693 H 0.74989 0.3148 0.451 0.0
C1694 C 0.52594 0.99709 0.91147 0.0
C1695 C 0.52065 0.01286 0.91795 0.0
C1696 C 0.53432 0.99622 0.89565 0.0
C1697 C 0.5418 0.01991 0.85519 0.0
H1698 H 0.58268 0.9932 0.85214 0.0
C1699 C 0.59023 0.02854 0.80009 0.0
C1700 C 0.59815 0.01406 0.79342 0.0
C1701 C 0.57978 0.02726 0.81457 0.0
C1702 C 0.57113 1.0005 0.85267 0.0
H1703 H 0.51963 0.04001 0.91268 0.0
H1704 H 0.53438 0.03854 0.88517 0.0
H1705 H 0.56613 0.99308 0.87867 0.0
H1706 H 0.60104 0.98677 0.79682 0.0
H1707 H 0.5826 0.98452 0.82207 0.0
H1708 H 0.54684 0.02744 0.82926 0.0
C1709 C 0.53197 0.02681 0.89227 0.0
C1710 C 0.56166 1.00045 0.86789 0.0
C1711 C 0.52367 0.02769 0.90811 0.0
C1712 C 0.59519 0.9982 0.80158 0.0
C1713 C 0.58469 0.99692 0.81612 0.0
C1714 C 0.55123 0.01992 0.83996 0.0
C1715 C 0.53752 0.01109 0.88591 0.0
C1716 C 0.547 0.01033 0.8694 0.0
C1717 C 0.5769 0.01146 0.82282 0.0
C1718 C 0.56616 0.01041 0.83859 0.0
H1719 H 0.52397 0.98544 0.9188 0.0
H1720 H 0.53829 0.98389 0.89105 0.0
H1721 H 0.5304 0.02741 0.85582 0.0
H1722 H 0.59224 0.04101 0.79426 0.0
H1723 H 0.57425 0.03878 0.81953 0.0
C1724 C 0.3033 0.26697 0.37408 0.0
C1725 C 0.31523 0.27999 0.37925 0.0
C1726 C 0.29964 0.25295 0.38468 0.0
C1727 C 0.3021 0.23894 0.42998 0.0
H1728 H 0.29154 0.19432 0.4097 0.0
C1729 C 0.28296 0.17873 0.47035 0.0
C1730 C 0.2676 0.17038 0.4647 0.0
C1731 C 0.29121 0.19124 0.46012 0.0
C1732 C 0.29449 0.2067 0.41554 0.0
H1733 H 0.33268 0.28835 0.39974 0.0
H1734 H 0.32667 0.26362 0.418 0.0
H1735 H 0.30149 0.21791 0.39146 0.0
H1736 H 0.24923 0.16818 0.44361 0.0
H1737 H 0.26369 0.18966 0.42582 0.0
H1738 H 0.29497 0.22761 0.45407 0.0
C1739 C 0.31994 0.2644 0.40583 0.0
C1740 C 0.30009 0.22026 0.40509 0.0
C1741 C 0.32354 0.2785 0.39525 0.0
C1742 C 0.26099 0.17441 0.44842 0.0
C1743 C 0.26934 0.18664 0.43814 0.0
C1744 C 0.29663 0.22531 0.44046 0.0
C1745 C 0.3079 0.25146 0.4007 0.0
C1746 C 0.30357 0.23667 0.4121 0.0
C1747 C 0.28442 0.19535 0.44394 0.0
C1748 C 0.29239 0.20916 0.43328 0.0
H1749 H 0.29682 0.26754 0.36176 0.0
H1750 H 0.29009 0.24339 0.38038 0.0
H1751 H 0.30449 0.25141 0.43582 0.0
H1752 H 0.28834 0.17594 0.48284 0.0
H1753 H 0.30286 0.19773 0.46486 0.0
C1754 C 0.4985 0.4871 0.90003 0.0
C1755 C 0.4972 0.47205 0.90985 0.0
C1756 C 0.48645 0.49014 0.88709 0.0
C1757 C 0.4593 0.4668 0.85657 0.0
H1758 H 0.43446 0.50849 0.85085 0.0
C1759 C 0.40661 0.47035 0.80548 0.0
C1760 C 0.40457 0.48571 0.79653 0.0
C1761 C 0.41736 0.46981 0.81981 0.0
C1762 C 0.44148 0.49687 0.8521 0.0
H1763 H 0.48213 0.44857 0.91406 0.0
H1764 H 0.46125 0.45373 0.89124 0.0
H1765 H 0.4542 0.50576 0.87525 0.0
H1766 H 0.41207 0.51268 0.79582 0.0
H1767 H 0.43154 0.51164 0.82061 0.0
H1768 H 0.44734 0.45799 0.8333 0.0
C1769 C 0.47151 0.46322 0.89368 0.0
C1770 C 0.4527 0.49529 0.86613 0.0
C1771 C 0.48337 0.46033 0.90679 0.0
C1772 C 0.41337 0.50065 0.80247 0.0
C1773 C 0.42446 0.50005 0.81673 0.0
C1774 C 0.44838 0.46846 0.84246 0.0
C1775 C 0.47308 0.47802 0.88354 0.0
C1776 C 0.46149 0.48013 0.8686 0.0
C1777 C 0.42675 0.48454 0.82546 0.0
C1778 C 0.43907 0.48338 0.84015 0.0
H1779 H 0.50901 0.49638 0.9022 0.0
H1780 H 0.48797 0.50161 0.8794 0.0
H1781 H 0.46621 0.45511 0.85799 0.0
H1782 H 0.39983 0.45863 0.80144 0.0
H1783 H 0.4183 0.45774 0.82646 0.0
C1784 C 0.69589 0.77568 0.11112 0.0
C1785 C 0.69402 0.77216 0.12868 0.0
C1786 C 0.70134 0.76311 0.0998 0.0
C1787 C 0.70657 0.71605 0.09573 0.0
H1788 H 0.73412 0.73005 0.0565 0.0
C1789 C 0.73722 0.66863 0.04786 0.0
C1790 C 0.73312 0.67163 0.03054 0.0
C1791 C 0.73334 0.68061 0.06056 0.0
C1792 C 0.72642 0.72598 0.0674 0.0
H1793 H 0.69645 0.75282 0.14825 0.0
H1794 H 0.70658 0.73094 0.12861 0.0
H1795 H 0.72598 0.75138 0.07755 0.0
H1796 H 0.72207 0.68969 0.01293 0.0
H1797 H 0.71574 0.71074 0.03504 0.0
H1798 H 0.70746 0.69052 0.08557 0.0
C1799 C 0.70342 0.74327 0.12343 0.0
C1800 C 0.72162 0.7382 0.07943 0.0
C1801 C 0.69769 0.7558 0.13473 0.0
C1802 C 0.72534 0.68697 0.02616 0.0
C1803 C 0.72179 0.69906 0.03878 0.0
C1804 C 0.71163 0.70378 0.08382 0.0
C1805 C 0.70534 0.74676 0.10579 0.0
C1806 C 0.71136 0.73348 0.0936 0.0
C1807 C 0.72564 0.69595 0.0561 0.0
C1808 C 0.72137 0.70869 0.06942 0.0
H1809 H 0.69289 0.78812 0.10608 0.0
H1810 H 0.70218 0.76621 0.08629 0.0
H1811 H 0.69849 0.71191 0.10631 0.0
H1812 H 0.74312 0.65689 0.05164 0.0
H1813 H 0.73647 0.67797 0.07383 0.0
C1814 C 0.01374 0.01972 0.12769 0.0
C1815 C 0.00958 0.03177 0.11516 0.0
C1816 C 0.00154 0.01418 0.13975 0.0
C1817 C 0.95451 0.01442 0.14969 0.0
H1818 H 0.97055 0.00573 0.19598 0.0
C1819 C 0.90951 0.00936 0.20855 0.0
C1820 C 0.91143 0.99502 0.21915 0.0
C1821 C 0.92139 0.01316 0.19558 0.0
C1822 C 0.96591 0.008 0.18307 0.0
H1823 H 0.98942 0.04742 0.10535 0.0
H1824 H 0.96826 0.03828 0.12672 0.0
H1825 H 0.99127 0.0136 0.17376 0.0
H1826 H 0.9275 0.97359 0.22457 0.0
H1827 H 0.9485 0.98055 0.20214 0.0
H1828 H 0.92905 0.00943 0.15936 0.0
C1829 C 0.98075 0.03266 0.12701 0.0
C1830 C 0.97778 0.01241 0.17026 0.0
C1831 C 0.99289 0.03798 0.11476 0.0
C1832 C 0.92564 0.98472 0.21662 0.0
C1833 C 0.93769 0.98871 0.20384 0.0
C1834 C 0.94263 0.01028 0.16258 0.0
C1835 C 0.98494 0.02078 0.13979 0.0
C1836 C 0.97226 0.0157 0.15336 0.0
C1837 C 0.9356 0.0029 0.19311 0.0
C1838 C 0.94822 0.00704 0.17939 0.0
H1839 H 0.02649 0.01461 0.12816 0.0
H1840 H 0.00518 0.00472 0.14908 0.0
H1841 H 0.94972 0.0165 0.13681 0.0
H1842 H 0.89867 0.01751 0.21007 0.0
H1843 H 0.91956 0.02425 0.18757 0.0
C1844 C 0.32048 0.74119 0.11696 0.0
C1845 C 0.31684 0.74034 0.13462 0.0
C1846 C 0.31632 0.75552 0.10737 0.0
C1847 C 0.2871 0.7912 0.10647 0.0
H1848 H 0.3186 0.80928 0.07203 0.0
C1849 C 0.2696 0.84788 0.06309 0.0
C1850 C 0.27338 0.84592 0.04557 0.0
C1851 C 0.27634 0.83681 0.07528 0.0
C1852 C 0.30961 0.80433 0.08152 0.0
H1853 H 0.30614 0.75415 0.15605 0.0
H1854 H 0.29862 0.77909 0.13919 0.0
H1855 H 0.32746 0.78631 0.09083 0.0
H1856 H 0.2876 0.83117 0.02718 0.0
H1857 H 0.29912 0.81182 0.04829 0.0
H1858 H 0.26904 0.80884 0.09686 0.0
C1859 C 0.30464 0.76856 0.1328 0.0
C1860 C 0.3147 0.79118 0.09229 0.0
C1861 C 0.30891 0.75424 0.14244 0.0
C1862 C 0.28446 0.83305 0.04058 0.0
C1863 C 0.29116 0.822 0.05273 0.0
C1864 C 0.28196 0.8043 0.09563 0.0
C1865 C 0.30831 0.76935 0.11516 0.0
C1866 C 0.3034 0.78427 0.1047 0.0
C1867 C 0.28699 0.82356 0.0702 0.0
C1868 C 0.29305 0.81083 0.08282 0.0
H1869 H 0.32624 0.7306 0.1104 0.0
H1870 H 0.31902 0.75559 0.09374 0.0
H1871 H 0.27804 0.78604 0.1158 0.0
H1872 H 0.26114 0.85771 0.06735 0.0
H1873 H 0.27306 0.83853 0.08866 0.0
C1874 C 0.01322 0.50132 0.10162 0.0
C1875 C 0.01709 0.48772 0.09059 0.0
C1876 C 0.02127 0.50312 0.11766 0.0
C1877 C 0.04592 0.48022 0.1506 0.0
H1878 H 0.06351 0.52586 0.16252 0.0
C1879 C 0.09417 0.49396 0.20665 0.0
C1880 C 0.09262 0.50924 0.21604 0.0
C1881 C 0.08384 0.49052 0.19215 0.0
C1882 C 0.05846 0.51307 0.15956 0.0
H1883 H 0.03197 0.46495 0.0881 0.0
H1884 H 0.04616 0.46819 0.11607 0.0
H1885 H 0.04736 0.5213 0.13596 0.0
H1886 H 0.07838 0.53253 0.21791 0.0
H1887 H 0.06022 0.52637 0.19298 0.0
H1888 H 0.0571 0.47201 0.17424 0.0
C1889 C 0.03684 0.47743 0.11231 0.0
C1890 C 0.0492 0.51046 0.1443 0.0
C1891 C 0.02884 0.47567 0.09622 0.0
C1892 C 0.08007 0.5207 0.21093 0.0
C1893 C 0.06971 0.51722 0.19653 0.0
C1894 C 0.05514 0.48286 0.16595 0.0
C1895 C 0.03336 0.49134 0.12309 0.0
C1896 C 0.04283 0.49401 0.1396 0.0
C1897 C 0.07167 0.50226 0.18675 0.0
C1898 C 0.06154 0.49933 0.17062 0.0
H1899 H 0.00436 0.51092 0.09764 0.0
H1900 H 0.01814 0.51386 0.12575 0.0
H1901 H 0.04104 0.46742 0.14742 0.0
H1902 H 0.10373 0.48486 0.21017 0.0
H1903 H 0.08581 0.47894 0.18485 0.0
C1904 C 0.37991 0.71116 0.24173 0.0
C1905 C 0.37788 0.694 0.23636 0.0
C1906 C 0.39071 0.71568 0.25556 0.0
C1907 C 0.41268 0.69817 0.29357 0.0
H1908 H 0.44262 0.73867 0.2887 0.0
C1909 C 0.46851 0.7156 0.34102 0.0
C1910 C 0.47011 0.73283 0.34605 0.0
C1911 C 0.45694 0.71054 0.32794 0.0
C1912 C 0.43422 0.72743 0.29035 0.0
H1913 H 0.38526 0.66806 0.24167 0.0
H1914 H 0.40436 0.67599 0.26563 0.0
H1915 H 0.42266 0.73049 0.26563 0.0
H1916 H 0.46211 0.75849 0.34073 0.0
H1917 H 0.44183 0.74974 0.31802 0.0
H1918 H 0.42435 0.69515 0.31834 0.0
C1919 C 0.39749 0.68594 0.2592 0.0
C1920 C 0.42275 0.72275 0.27713 0.0
C1921 C 0.3867 0.68142 0.24535 0.0
C1922 C 0.46066 0.74504 0.33736 0.0
C1923 C 0.44922 0.74005 0.32424 0.0
C1924 C 0.42417 0.70287 0.30683 0.0
C1925 C 0.39975 0.70314 0.26437 0.0
C1926 C 0.41182 0.70809 0.27858 0.0
C1927 C 0.44717 0.72273 0.31942 0.0
C1928 C 0.43505 0.71756 0.30535 0.0
H1929 H 0.37342 0.72118 0.23501 0.0
H1930 H 0.39199 0.72902 0.25934 0.0
H1931 H 0.40429 0.68692 0.29517 0.0
H1932 H 0.47603 0.70607 0.34734 0.0
H1933 H 0.45584 0.69715 0.32432 0.0
C1934 C 0.00198 0.41527 0.97192 0.0
C1935 C 0.98855 0.41872 0.9833 0.0
C1936 C 0.00286 0.39922 0.96402 0.0
C1937 C 0.97578 0.36138 0.95175 0.0
H1938 H 0.01928 0.33925 0.9468 0.0
C1939 C 0.97836 0.29285 0.92537 0.0
C1940 C 0.99133 0.28933 0.91349 0.0
C1941 C 0.97885 0.30817 0.93467 0.0
C1942 C 0.00706 0.34534 0.94792 0.0
H1943 H 0.96553 0.40796 0.9953 0.0
H1944 H 0.96713 0.37989 0.98163 0.0
H1945 H 0.01842 0.3669 0.9615 0.0
H1946 H 0.01531 0.29906 0.9025 0.0
H1947 H 0.01603 0.326 0.91862 0.0
H1948 H 0.96441 0.34003 0.93803 0.0
C1949 C 0.97692 0.38966 0.97873 0.0
C1950 C 0.00657 0.36118 0.95636 0.0
C1951 C 0.97609 0.40569 0.98669 0.0
C1952 C 0.00513 0.30132 0.91157 0.0
C1953 C 0.00556 0.31675 0.92085 0.0
C1954 C 0.97628 0.34561 0.94328 0.0
C1955 C 0.99029 0.38625 0.96725 0.0
C1956 C 0.9909 0.36936 0.95841 0.0
C1957 C 0.99225 0.32049 0.93229 0.0
C1958 C 0.99191 0.33734 0.9413 0.0
H1959 H 0.01191 0.42495 0.96919 0.0
H1960 H 0.01323 0.39707 0.95514 0.0
H1961 H 0.96356 0.36748 0.9528 0.0
H1962 H 0.96763 0.28384 0.92736 0.0
H1963 H 0.96859 0.31041 0.94366 0.0
C1964 C 0.62546 0.82518 0.25108 0.0
C1965 C 0.62975 0.81205 0.23968 0.0
C1966 C 0.61575 0.82152 0.26575 0.0
C1967 C 0.60016 0.78573 0.29379 0.0
H1968 H 0.56469 0.81724 0.30546 0.0
C1969 C 0.55524 0.77351 0.35162 0.0
C1970 C 0.53774 0.77643 0.34882 0.0
C1971 C 0.56764 0.77927 0.33981 0.0
C1972 C 0.57447 0.80826 0.30235 0.0
H1973 H 0.62741 0.78474 0.23481 0.0
H1974 H 0.61019 0.77833 0.26022 0.0
H1975 H 0.58403 0.82387 0.2818 0.0
H1976 H 0.51957 0.78816 0.33169 0.0
H1977 H 0.54104 0.79792 0.31102 0.0
H1978 H 0.59005 0.76973 0.31382 0.0
C1979 C 0.61461 0.79145 0.25806 0.0
C1980 C 0.58575 0.81217 0.28889 0.0
C1981 C 0.62444 0.79511 0.24345 0.0
C1982 C 0.53296 0.78575 0.33428 0.0
C1983 C 0.54532 0.79143 0.32244 0.0
C1984 C 0.58881 0.78177 0.30719 0.0
C1985 C 0.60998 0.80463 0.26931 0.0
C1986 C 0.59863 0.80088 0.2843 0.0
C1987 C 0.56279 0.78803 0.3249 0.0
C1988 C 0.57569 0.79288 0.31152 0.0
H1989 H 0.62962 0.83833 0.24865 0.0
H1990 H 0.61276 0.83195 0.27429 0.0
H1991 H 0.61006 0.77684 0.29079 0.0
H1992 H 0.55934 0.76642 0.36274 0.0
H1993 H 0.581 0.77669 0.34228 0.0
C1994 C 0.02369 0.10762 0.00171 0.0
C1995 C 0.03942 0.10972 0.01058 0.0
C1996 C 0.01868 0.1199 0.98984 0.0
C1997 C 0.02297 0.16511 0.98025 0.0
H1998 H 0.01103 0.15278 0.93321 0.0
C1999 C 0.98995 0.21027 0.93225 0.0
C2000 C 0.99859 0.21263 0.91657 0.0
C2001 C 0.99493 0.19767 0.94375 0.0
C2002 C 0.01432 0.15636 0.94631 0.0
H2003 H 0.06212 0.1263 0.01424 0.0
H2004 H 0.05312 0.14802 0.99382 0.0
H2005 H 0.01961 0.13055 0.95336 0.0
H2006 H 0.01901 0.2034 0.90054 0.0
H2007 H 0.02737 0.18103 0.9205 0.0
H2008 H 0.01735 0.19085 0.97332 0.0
C2009 C 0.04482 0.13677 0.99588 0.0
C2010 C 0.01914 0.14367 0.95782 0.0
C2011 C 0.04999 0.12433 0.00746 0.0
C2012 C 0.01218 0.20198 0.91257 0.0
C2013 C 0.0169 0.18912 0.92391 0.0
C2014 C 0.01779 0.17772 0.96885 0.0
C2015 C 0.02913 0.13466 0.98696 0.0
C2016 C 0.02363 0.14797 0.97485 0.0
C2017 C 0.00837 0.18692 0.93963 0.0
C2018 C 0.01355 0.17348 0.95176 0.0
H2019 H 0.01534 0.09644 0.0039 0.0
H2020 H 0.00649 0.11803 0.98315 0.0
H2021 H 0.0263 0.16871 0.99334 0.0
H2022 H 0.97944 0.21829 0.93571 0.0
H2023 H 0.98812 0.19616 0.95578 0.0
C2024 C 0.36405 0.30072 0.25986 0.0
C2025 C 0.36942 0.31551 0.26911 0.0
C2026 C 0.37429 0.29424 0.24685 0.0
C2027 C 0.40962 0.30521 0.21707 0.0
H2028 H 0.41731 0.25652 0.21843 0.0
C2029 C 0.46079 0.2731 0.17492 0.0
C2030 C 0.45692 0.25641 0.16884 0.0
C2031 C 0.44977 0.28097 0.18645 0.0
C2032 C 0.41511 0.27009 0.21764 0.0
H2033 H 0.38974 0.33523 0.27158 0.0
H2034 H 0.40742 0.32406 0.24864 0.0
H2035 H 0.39844 0.2691 0.2394 0.0
H2036 H 0.43804 0.23524 0.16952 0.0
H2037 H 0.41872 0.24908 0.1891 0.0
H2038 H 0.42617 0.30618 0.19517 0.0
C2039 C 0.39523 0.31754 0.25148 0.0
C2040 C 0.4043 0.2773 0.22972 0.0
C2041 C 0.38506 0.32395 0.26461 0.0
C2042 C 0.44156 0.24801 0.17413 0.0
C2043 C 0.4305 0.25593 0.18547 0.0
C2044 C 0.42033 0.29796 0.20485 0.0
C2045 C 0.39008 0.30246 0.24265 0.0
C2046 C 0.40142 0.29493 0.22958 0.0
C2047 C 0.43458 0.27239 0.19203 0.0
C2048 C 0.4232 0.28029 0.20496 0.0
H2049 H 0.35193 0.29408 0.26271 0.0
H2050 H 0.36985 0.28275 0.24007 0.0
H2051 H 0.40754 0.31882 0.21658 0.0
H2052 H 0.47254 0.27991 0.17114 0.0
H2053 H 0.45343 0.2936 0.19134 0.0
C2054 C 0.51522 0.40107 0.02413 0.0
C2055 C 0.52694 0.39738 0.01105 0.0
C2056 C 0.51007 0.38849 0.036 0.0
C2057 C 0.50744 0.34155 0.04171 0.0
H2058 H 0.50565 0.35213 0.09036 0.0
C2059 C 0.50861 0.30286 0.1094 0.0
C2060 C 0.49679 0.28928 0.10566 0.0
C2061 C 0.51017 0.31699 0.0985 0.0
C2062 C 0.50609 0.34898 0.07681 0.0
H2063 H 0.54286 0.37766 1.00062 0.0
H2064 H 0.53378 0.35582 0.02111 0.0
H2065 H 0.51285 0.37488 0.06988 0.0
H2066 H 0.47687 0.28018 0.08788 0.0
H2067 H 0.47955 0.30489 0.06888 0.0
H2068 H 0.50119 0.31561 0.04858 0.0
C2069 C 0.52831 0.36832 0.02202 0.0
C2070 C 0.51006 0.36204 0.06507 0.0
C2071 C 0.5335 0.38087 0.01025 0.0
C2072 C 0.48615 0.2904 0.09109 0.0
C2073 C 0.48775 0.30452 0.08015 0.0
C2074 C 0.5034 0.32853 0.0534 0.0
C2075 C 0.51648 0.37194 0.03499 0.0
C2076 C 0.51105 0.35841 0.04741 0.0
C2077 C 0.49999 0.31784 0.08357 0.0
C2078 C 0.5029 0.33203 0.07112 0.0
H2079 H 0.50979 0.41359 0.02503 0.0
H2080 H 0.50085 0.39164 0.04578 0.0
H2081 H 0.50788 0.33837 0.02816 0.0
H2082 H 0.51699 0.3024 0.12053 0.0
H2083 H 0.51984 0.32694 0.10143 0.0
C2084 C 0.62895 0.20298 0.26546 0.0
C2085 C 0.64365 0.21303 0.26099 0.0
C2086 C 0.61366 0.20395 0.25595 0.0
C2087 C 0.59092 0.23291 0.22744 0.0
H2088 H 0.5661 0.19217 0.21061 0.0
C2089 C 0.54055 0.23636 0.17359 0.0
C2090 C 0.52577 0.22544 0.1741 0.0
C2091 C 0.55394 0.23455 0.18538 0.0
C2092 C 0.5727 0.20368 0.21544 0.0
H2093 H 0.65388 0.23139 0.24246 0.0
H2094 H 0.62725 0.23334 0.22628 0.0
H2095 H 0.59123 0.18936 0.22927 0.0
H2096 H 0.51352 0.20404 0.18758 0.0
H2097 H 0.53681 0.2011 0.20838 0.0
H2098 H 0.57252 0.24729 0.21377 0.0
C2099 C 0.62747 0.22491 0.23728 0.0
C2100 C 0.58711 0.20205 0.2261 0.0
C2101 C 0.64273 0.22382 0.24663 0.0
C2102 C 0.52471 0.21268 0.18679 0.0
C2103 C 0.53812 0.21092 0.19867 0.0
C2104 C 0.57648 0.23455 0.21694 0.0
C2105 C 0.61274 0.21509 0.24189 0.0
C2106 C 0.59656 0.21666 0.23191 0.0
C2107 C 0.55291 0.22184 0.1981 0.0
C2108 C 0.56738 0.21997 0.21049 0.0
H2109 H 0.62914 0.19462 0.27651 0.0
H2110 H 0.60247 0.19627 0.25981 0.0
H2111 H 0.59777 0.2444 0.232 0.0
H2112 H 0.54193 0.24625 0.16395 0.0
H2113 H 0.56527 0.24297 0.18431 0.0
C2114 C 0.51155 0.09003 0.03351 0.0
C2115 C 0.49614 0.0842 0.02555 0.0
C2116 C 0.51254 0.10573 0.04219 0.0
C2117 C 0.49091 0.14695 0.04691 0.0
H2118 H 0.5153 0.14904 0.09049 0.0
C2119 C 0.48581 0.20325 0.09495 0.0
C2120 C 0.50045 0.20806 0.10467 0.0
C2121 C 0.48591 0.18898 0.08407 0.0
C2122 C 0.50861 0.14877 0.07825 0.0
H2123 H 0.46968 0.09039 0.02037 0.0
H2124 H 0.47136 0.11779 0.0356 0.0
H2125 H 0.51402 0.12246 0.07409 0.0
H2126 H 0.52717 0.20301 0.10953 0.0
H2127 H 0.52746 0.17793 0.09056 0.0
H2128 H 0.48536 0.17324 0.05122 0.0
C2129 C 0.48277 0.11031 0.03493 0.0
C2130 C 0.50789 0.1335 0.06882 0.0
C2131 C 0.4818 0.0946 0.02621 0.0
C2132 C 0.51558 0.19916 0.1025 0.0
C2133 C 0.51569 0.18481 0.09171 0.0
C2134 C 0.4916 0.16223 0.05638 0.0
C2135 C 0.49812 0.116 0.04316 0.0
C2136 C 0.49902 0.13238 0.05304 0.0
C2137 C 0.50075 0.17934 0.08261 0.0
C2138 C 0.50043 0.16331 0.07219 0.0
H2139 H 0.52293 0.08248 0.03297 0.0
H2140 H 0.52466 0.10987 0.04808 0.0
H2141 H 0.48418 0.14661 0.03469 0.0
H2142 H 0.47418 0.21037 0.09602 0.0
H2143 H 0.47417 0.18515 0.07731 0.0
C2144 C 0.2438 0.37341 0.69568 0.0
C2145 C 0.22768 0.37968 0.69124 0.0
C2146 C 0.25751 0.38467 0.70014 0.0
C2147 C 0.27277 0.43017 0.69737 0.0
H2148 H 0.30175 0.41793 0.73568 0.0
C2149 C 0.33352 0.4711 0.71722 0.0
C2150 C 0.33758 0.47197 0.73476 0.0
C2151 C 0.3203 0.45987 0.7113 0.0
C2152 C 0.29379 0.42164 0.72499 0.0
H2153 H 0.21331 0.40269 0.68809 0.0
H2154 H 0.23717 0.42234 0.69603 0.0
H2155 H 0.27852 0.39838 0.72645 0.0
H2156 H 0.33026 0.4632 0.76008 0.0
H2157 H 0.30689 0.44404 0.74997 0.0
H2158 H 0.28772 0.4537 0.6963 0.0
C2159 C 0.23932 0.40873 0.69575 0.0
C2160 C 0.28055 0.41029 0.71956 0.0
C2161 C 0.22563 0.39747 0.69123 0.0
C2162 C 0.32768 0.46226 0.74641 0.0
C2163 C 0.31433 0.45125 0.74058 0.0
C2164 C 0.28605 0.44156 0.70282 0.0
C2165 C 0.25542 0.40247 0.70034 0.0
C2166 C 0.26982 0.41443 0.70573 0.0
C2167 C 0.31061 0.44969 0.72292 0.0
C2168 C 0.2967 0.43747 0.71676 0.0
H2169 H 0.24587 0.35978 0.69554 0.0
H2170 H 0.26981 0.37942 0.70332 0.0
H2171 H 0.26485 0.4337 0.68657 0.0
H2172 H 0.34087 0.47875 0.70807 0.0
H2173 H 0.31791 0.45894 0.69761 0.0
C2174 C 0.2518 0.6335 0.78598 0.0
C2175 C 0.25222 0.64511 0.79984 0.0
C2176 C 0.26257 0.6196 0.78582 0.0
C2177 C 0.28066 0.58652 0.7927 0.0
H2178 H 0.3288 0.59534 0.80413 0.0
C2179 C 0.32949 0.53307 0.7891 0.0
C2180 C 0.34465 0.53736 0.78011 0.0
C2181 C 0.31849 0.54582 0.79434 0.0
C2182 C 0.31539 0.59267 0.80093 0.0
H2183 H 0.26414 0.65111 0.82449 0.0
H2184 H 0.28297 0.62675 0.82422 0.0
H2185 H 0.30842 0.61811 0.80757 0.0
H2186 H 0.3606 0.55846 0.77033 0.0
H2187 H 0.34143 0.58067 0.77944 0.0
H2188 H 0.28768 0.56128 0.78554 0.0
C2189 C 0.27432 0.62847 0.81346 0.0
C2190 C 0.30369 0.60566 0.80305 0.0
C2191 C 0.26344 0.64232 0.81369 0.0
C2192 C 0.34901 0.55472 0.77722 0.0
C2193 C 0.33805 0.56747 0.78252 0.0
C2194 C 0.29233 0.57352 0.79067 0.0
C2195 C 0.2741 0.61703 0.79946 0.0
C2196 C 0.28624 0.60282 0.79867 0.0
C2197 C 0.32246 0.56314 0.79077 0.0
C2198 C 0.30988 0.57652 0.79451 0.0
H2199 H 0.24319 0.63522 0.7752 0.0
H2200 H 0.26219 0.61113 0.77476 0.0
H2201 H 0.26727 0.58388 0.78938 0.0
H2202 H 0.32578 0.51982 0.79159 0.0
H2203 H 0.30669 0.54208 0.80089 0.0
C2204 C 0.90834 0.4873 0.50615 0.0
C2205 C 0.92093 0.48049 0.49546 0.0
C2206 C 0.89177 0.47971 0.50683 0.0
C2207 C 0.86177 0.45047 0.48251 0.0
H2208 H 0.83825 0.44595 0.52613 0.0
C2209 C 0.79221 0.42351 0.48557 0.0
C2210 C 0.78823 0.41163 0.49861 0.0
C2211 C 0.80764 0.43324 0.48599 0.0
C2212 C 0.84468 0.44703 0.51386 0.0
H2213 H 0.92578 0.4605 0.47688 0.0
H2214 H 0.89712 0.44704 0.47839 0.0
H2215 H 0.86686 0.45987 0.52509 0.0
H2216 H 0.79717 0.40114 0.52265 0.0
H2217 H 0.82429 0.41792 0.52323 0.0
H2218 H 0.83995 0.43715 0.47134 0.0
C2219 C 0.89996 0.45838 0.48612 0.0
C2220 C 0.861 0.45519 0.51323 0.0
C2221 C 0.91649 0.46597 0.48541 0.0
C2222 C 0.79979 0.4102 0.51244 0.0
C2223 C 0.81534 0.41988 0.51279 0.0
C2224 C 0.84551 0.44229 0.48315 0.0
C2225 C 0.88738 0.46513 0.49684 0.0
C2226 C 0.86979 0.45692 0.49755 0.0
C2227 C 0.8196 0.43126 0.49938 0.0
C2228 C 0.83675 0.44042 0.49883 0.0
H2229 H 0.91136 0.49836 0.5142 0.0
H2230 H 0.88235 0.48535 0.5151 0.0
H2231 H 0.86803 0.45176 0.47018 0.0
H2232 H 0.78352 0.42511 0.47483 0.0
H2233 H 0.81028 0.44217 0.47567 0.0
C2234 C 0.75318 0.87048 0.80572 0.0
C2235 C 0.76691 0.87772 0.81552 0.0
C2236 C 0.73884 0.88005 0.80177 0.0
C2237 C 0.71595 0.9186 0.81521 0.0
H2238 H 0.698 0.91743 0.76864 0.0
C2239 C 0.67366 0.97111 0.78815 0.0
C2240 C 0.66049 0.96653 0.77638 0.0
C2241 C 0.68486 0.95889 0.79414 0.0
C2242 C 0.70264 0.9177 0.78179 0.0
H2243 H 0.77634 0.90084 0.82859 0.0
H2244 H 0.75139 0.91742 0.82178 0.0
H2245 H 0.72104 0.89867 0.77663 0.0
H2246 H 0.64836 0.9454 0.76212 0.0
H2247 H 0.66786 0.92397 0.77273 0.0
H2248 H 0.69775 0.93782 0.82032 0.0
C2249 C 0.75156 0.90425 0.8174 0.0
C2250 C 0.71588 0.90695 0.78636 0.0
C2251 C 0.76589 0.89473 0.8213 0.0
C2252 C 0.6584 0.94933 0.77117 0.0
C2253 C 0.66964 0.93709 0.77715 0.0
C2254 C 0.70271 0.92933 0.81066 0.0
C2255 C 0.73787 0.89706 0.80756 0.0
C2256 C 0.72289 0.90749 0.80305 0.0
C2257 C 0.68318 0.94178 0.78851 0.0
C2258 C 0.69608 0.92922 0.79381 0.0
H2259 H 0.75343 0.85735 0.80125 0.0
H2260 H 0.72843 0.87407 0.79432 0.0
H2261 H 0.72084 0.9191 0.82827 0.0
H2262 H 0.67565 0.98426 0.7924 0.0
H2263 H 0.69524 0.96303 0.80271 0.0
C2264 C 0.61584 0.51078 0.96853 0.0
C2265 C 0.60569 0.50455 0.98212 0.0
C2266 C 0.62964 0.52233 0.97163 0.0
C2267 C 0.65799 0.54077 0.00653 0.0
H2268 H 0.66891 0.57414 0.97125 0.0
C2269 C 0.708 0.59729 0.01623 0.0
C2270 C 0.7185 0.60144 0.00215 0.0
C2271 C 0.69426 0.5853 0.01442 0.0
C2272 C 0.66604 0.56499 0.98128 0.0
H2273 H 0.6019 0.50539 0.00961 0.0
H2274 H 0.62557 0.52631 0.01507 0.0
H2275 H 0.64441 0.55451 0.96737 0.0
H2276 H 0.72405 0.59534 0.97569 0.0
H2277 H 0.70008 0.57444 0.9724 0.0
H2278 H 0.67946 0.55186 0.02063 0.0
C2279 C 0.62323 0.52193 0.00203 0.0
C2280 C 0.65203 0.55351 0.97898 0.0
C2281 C 0.60959 0.51005 0.99893 0.0
C2282 C 0.71567 0.5928 0.98652 0.0
C2283 C 0.70199 0.58082 0.98468 0.0
C2284 C 0.67182 0.55256 0.00899 0.0
C2285 C 0.63343 0.52827 0.98839 0.0
C2286 C 0.64792 0.54105 0.99143 0.0
C2287 C 0.69099 0.57705 0.99855 0.0
C2288 C 0.67608 0.56473 0.99631 0.0
H2289 H 0.61327 0.50646 0.95548 0.0
H2290 H 0.63744 0.52642 0.96083 0.0
H2291 H 0.65545 0.53123 0.01631 0.0
H2292 H 0.71023 0.60359 0.02852 0.0
H2293 H 0.686 0.58273 0.02533 0.0
C2294 C 0.26446 0.63016 0.21036 0.0
C2295 C 0.27027 0.63106 0.19331 0.0
C2296 C 0.25063 0.61916 0.21479 0.0
C2297 C 0.22615 0.58031 0.19972 0.0
H2298 H 0.19357 0.59389 0.23421 0.0
C2299 C 0.16599 0.53812 0.21695 0.0
C2300 C 0.1618 0.53713 0.23441 0.0
C2301 C 0.17859 0.55003 0.21133 0.0
C2302 C 0.20257 0.58987 0.22459 0.0
H2303 H 0.26595 0.62106 0.16753 0.0
H2304 H 0.24151 0.60227 0.17516 0.0
H2305 H 0.21633 0.61409 0.22528 0.0
H2306 H 0.16826 0.54659 0.25989 0.0
H2307 H 0.19031 0.56738 0.25018 0.0
H2308 H 0.21234 0.55609 0.19906 0.0
C2309 C 0.24784 0.60988 0.18517 0.0
C2310 C 0.21569 0.60144 0.21952 0.0
C2311 C 0.26172 0.62085 0.18075 0.0
C2312 C 0.17086 0.54765 0.24627 0.0
C2313 C 0.18348 0.5595 0.2407 0.0
C2314 C 0.21295 0.56878 0.20472 0.0
C2315 C 0.24218 0.60882 0.20227 0.0
C2316 C 0.22775 0.59676 0.20713 0.0
C2317 C 0.18746 0.56089 0.22315 0.0
C2318 C 0.20107 0.57338 0.21731 0.0
H2319 H 0.27058 0.638 0.22033 0.0
H2320 H 0.24677 0.61854 0.22812 0.0
H2321 H 0.23537 0.57616 0.19036 0.0
H2322 H 0.15936 0.52984 0.20766 0.0
H2323 H 0.1813 0.55082 0.19772 0.0
C2324 C 0.90887 0.52315 0.00141 0.0
C2325 C 0.92108 0.52682 0.01444 0.0
C2326 C 0.89401 0.53262 1.00006 0.0
C2327 C 0.87664 0.57425 0.01275 0.0
H2328 H 0.83252 0.55222 0.00127 0.0
C2329 C 0.81289 0.60963 0.01706 0.0
C2330 C 0.80045 0.60634 0.00418 0.0
C2331 C 0.82768 0.60003 0.01792 0.0
C2332 C 0.84478 0.55861 0.00428 0.0
H2333 H 0.92686 0.54291 0.03667 0.0
H2334 H 0.90098 0.55935 0.03435 0.0
H2335 H 0.85794 0.53504 0.00374 0.0
H2336 H 0.79389 0.5905 0.98196 0.0
H2337 H 0.81977 0.57386 0.98336 0.0
H2338 H 0.86351 0.59781 0.01332 0.0
C2339 C 0.90305 0.5494 0.02494 0.0
C2340 C 0.85936 0.54875 0.0057 0.0
C2341 C 0.9179 0.53995 0.02628 0.0
C2342 C 0.80321 0.59335 0.99207 0.0
C2343 C 0.818 0.58372 0.99294 0.0
C2344 C 0.86208 0.58411 0.01132 0.0
C2345 C 0.89099 0.54597 0.01172 0.0
C2346 C 0.87546 0.55644 0.01002 0.0
C2347 C 0.83038 0.58689 0.00594 0.0
C2348 C 0.84595 0.57641 0.00712 0.0
H2349 H 0.91101 0.51326 0.99195 0.0
H2350 H 0.88509 0.52975 0.98961 0.0
H2351 H 0.88889 0.58065 0.01578 0.0
H2352 H 0.81113 0.61951 0.02662 0.0
H2353 H 0.83683 0.60268 0.02822 0.0
C2354 C 0.11747 0.99469 0.05637 0.0
C2355 C 0.11041 0.00568 0.0442 0.0
C2356 C 0.12913 0.98246 0.05141 0.0
C2357 C 0.14531 0.95893 0.01371 0.0
H2358 H 0.18522 0.95324 0.04292 0.0
C2359 C 0.20363 0.92021 0.99256 0.0
C2360 C 0.21125 0.90979 0.00494 0.0
C2361 C 0.19092 0.93152 0.99721 0.0
C2362 C 0.17405 0.9545 0.03472 0.0
H2363 H 0.1099 0.01225 0.01718 0.0
H2364 H 0.13029 0.99091 0.0085 0.0
H2365 H 0.16365 0.97343 0.05119 0.0
H2366 H 0.21122 0.90306 0.03197 0.0
H2367 H 0.18902 0.92265 0.04001 0.0
H2368 H 0.15581 0.94004 0.99718 0.0
C2369 C 0.12666 0.99163 0.02188 0.0
C2370 C 0.16166 0.96609 0.03947 0.0
C2371 C 0.11497 0.00386 0.02686 0.0
C2372 C 0.20573 0.91091 0.02208 0.0
C2373 C 0.19305 0.92223 0.02672 0.0
C2374 C 0.15772 0.94734 0.00895 0.0
C2375 C 0.13404 0.98091 0.03413 0.0
C2376 C 0.14712 0.96845 0.02904 0.0
C2377 C 0.18552 0.93271 0.01437 0.0
C2378 C 0.17224 0.94498 0.0194 0.0
H2379 H 0.11398 0.99552 0.06979 0.0
H2380 H 0.13428 0.97418 0.06113 0.0
H2381 H 0.13417 0.96027 0.00549 0.0
H2382 H 0.20751 0.91971 0.97923 0.0
H2383 H 0.18554 0.93953 0.9874 0.0
loop_
_geom_bond_atom_site_label_1
_geom_bond_atom_site_label_2
_geom_bond_distance
_geom_bond_site_symmetry_2
_ccdc_geom_bond_type
P0 O11 1.490 . S
P0 C14 1.812 . S
P0 C20 1.803 . S
P0 C26 1.819 . S
H1 C15 0.941 . S
H2 C16 0.939 . S
H3 C18 0.940 1_655 S
H4 C19 0.940 . S
H5 C21 0.939 . S
H6 C22 0.942 . S
H7 C24 0.980 . S
H8 C25 0.939 . S
H9 C27 0.941 . S
H10 C31 0.939 . S
O11 P0 1.490 . S
H12 C28 0.939 . S
H13 C30 0.940 1_556 S
C14 P0 1.812 . S
C14 C15 1.389 . S
C14 C19 1.391 . S
C15 H1 0.941 . S
C15 C14 1.389 . S
C15 C16 1.397 . S
C16 H2 0.939 . S
C16 C15 1.397 . S
C16 C17 1.378 . S
C17 C16 1.378 . S
C17 C18 1.378 . S
C18 H3 0.940 1_455 S
C18 C17 1.378 . S
C18 C19 1.396 . S
C19 H4 0.940 . S
C19 C14 1.391 . S
C19 C18 1.396 . S
C20 P0 1.803 . S
C20 C21 1.378 . S
C20 C25 1.400 . S
C21 H5 0.939 . S
C21 C20 1.378 . S
C21 C22 1.361 . S
C22 H6 0.942 . S
C22 C21 1.361 . S
C22 C23 1.409 . S
C23 C22 1.409 . S
C23 C24 1.403 1_545 S
C24 H7 0.980 . S
C24 C23 1.403 1_565 S
C24 C25 1.352 1_565 S
C25 H8 0.939 . S
C25 C20 1.400 . S
C25 C24 1.352 1_545 S
C26 P0 1.819 . S
C26 C27 1.391 . S
C26 C31 1.391 . S
C27 H9 0.941 . S
C27 C26 1.391 . S
C27 C28 1.396 . S
C28 H12 0.939 . S
C28 C27 1.396 . S
C28 C29 1.397 . S
C29 C28 1.397 . S
C29 C30 1.385 . S
C30 H13 0.940 1_554 S
C30 C29 1.385 . S
C30 C31 1.388 . S
C31 H10 0.939 . S
C31 C26 1.391 . S
C31 C30 1.388 . S
P32 O43 1.490 . S
P32 C46 1.812 . S
P32 C52 1.803 . S
P32 C58 1.819 . S
H33 C47 0.941 . S
H34 C48 0.939 . S
H35 C50 0.940 . S
H36 C51 0.940 . S
H37 C53 0.939 . S
H38 C54 0.942 . S
H39 C56 0.940 . S
H40 C57 0.939 . S
H41 C59 0.941 . S
H42 C63 0.939 . S
O43 P32 1.490 . S
H44 C60 0.939 . S
H45 C62 0.940 . S
C46 P32 1.812 . S
C46 C47 1.389 . S
C46 C51 1.391 . S
C47 H33 0.941 . S
C47 C46 1.389 . S
C47 C48 1.397 . S
C48 H34 0.939 . S
C48 C47 1.397 . S
C48 C49 1.378 . S
C49 C48 1.378 . S
C49 C50 1.378 . S
C50 H35 0.940 . S
C50 C49 1.378 . S
C50 C51 1.396 . S
C51 H36 0.940 . S
C51 C46 1.391 . S
C51 C50 1.396 . S
C52 P32 1.803 . S
C52 C53 1.378 . S
C52 C57 1.400 . S
C53 H37 0.939 . S
C53 C52 1.378 . S
C53 C54 1.361 . S
C54 H38 0.942 . S
C54 C53 1.361 . S
C54 C55 1.369 . S
C55 C54 1.369 . S
C55 C56 1.404 . S
C56 H39 0.940 . S
C56 C55 1.404 . S
C56 C57 1.389 . S
C57 H40 0.939 . S
C57 C52 1.400 . S
C57 C56 1.389 . S
C58 P32 1.819 . S
C58 C59 1.391 . S
C58 C63 1.391 . S
C59 H41 0.941 . S
C59 C58 1.391 . S
C59 C60 1.396 . S
C60 H44 0.939 . S
C60 C59 1.396 . S
C60 C61 1.397 . S
C61 C60 1.397 . S
C61 C62 1.385 . S
C62 H45 0.940 . S
C62 C61 1.385 . S
C62 C63 1.388 . S
C63 H42 0.939 . S
C63 C58 1.391 . S
C63 C62 1.388 . S
P64 O75 1.490 . S
P64 C78 1.812 . S
P64 C84 1.803 . S
P64 C90 1.819 . S
H65 C79 0.941 . S
H66 C80 0.939 . S
H67 C82 0.940 . S
H68 C83 0.940 . S
H69 C85 0.939 . S
H70 C86 0.942 . S
H71 C88 0.940 . S
H72 C89 0.939 . S
H73 C91 0.941 . S
H74 C95 0.939 . S
O75 P64 1.490 . S
H76 C92 0.939 . S
H77 C94 0.940 . S
C78 P64 1.812 . S
C78 C79 1.389 1_554 S
C78 C83 1.391 . S
C79 H65 0.941 . S
C79 C78 1.389 1_556 S
C79 C80 1.397 . S
C80 H66 0.939 . S
C80 C79 1.397 . S
C80 C81 1.378 . S
C81 C80 1.378 . S
C81 C82 1.378 1_556 S
C82 H67 0.940 . S
C82 C81 1.378 1_554 S
C82 C83 1.396 . S
C83 H68 0.940 . S
C83 C78 1.391 . S
C83 C82 1.396 . S
C84 P64 1.803 . S
C84 C85 1.378 . S
C84 C89 1.400 . S
C85 H69 0.939 . S
C85 C84 1.378 . S
C85 C86 1.361 . S
C86 H70 0.942 . S
C86 C85 1.361 . S
C86 C87 1.369 . S
C87 C86 1.369 . S
C87 C88 1.404 . S
C88 H71 0.940 . S
C88 C87 1.404 . S
C88 C89 1.389 . S
C89 H72 0.939 . S
C89 C84 1.400 . S
C89 C88 1.389 . S
C90 P64 1.819 . S
C90 C91 1.391 1_655 S
C90 C95 1.391 . S
C91 H73 0.941 . S
C91 C90 1.391 1_455 S
C91 C92 1.396 . S
C92 H76 0.939 . S
C92 C91 1.396 . S
C92 C93 1.397 . S
C93 C92 1.397 . S
C93 C94 1.385 1_455 S
C94 H77 0.940 . S
C94 C93 1.385 1_655 S
C94 C95 1.388 . S
C95 H74 0.939 . S
C95 C90 1.391 . S
C95 C94 1.388 . S
P96 O107 1.490 . S
P96 C110 1.812 . S
P96 C116 1.803 . S
P96 C122 1.819 . S
H97 C111 0.941 . S
H98 C112 0.939 . S
H99 C114 0.940 . S
H100 C115 0.940 . S
H101 C117 0.939 . S
H102 C118 0.942 . S
H103 C120 0.940 . S
H104 C121 0.939 . S
H105 C123 0.941 . S
H106 C127 0.939 . S
O107 P96 1.490 . S
H108 C124 0.939 . S
H109 C126 0.940 . S
C110 P96 1.812 . S
C110 C111 1.389 . S
C110 C115 1.391 . S
C111 H97 0.941 . S
C111 C110 1.389 . S
C111 C112 1.397 . S
C112 H98 0.939 . S
C112 C111 1.397 . S
C112 C113 1.378 . S
C113 C112 1.378 . S
C113 C114 1.378 . S
C114 H99 0.940 . S
C114 C113 1.378 . S
C114 C115 1.396 . S
C115 H100 0.940 . S
C115 C110 1.391 . S
C115 C114 1.396 . S
C116 P96 1.803 . S
C116 C117 1.378 . S
C116 C121 1.400 . S
C117 H101 0.939 . S
C117 C116 1.378 . S
C117 C118 1.361 . S
C118 H102 0.942 . S
C118 C117 1.361 . S
C118 C119 1.369 . S
C119 C118 1.369 . S
C119 C120 1.404 . S
C120 H103 0.940 . S
C120 C119 1.404 . S
C120 C121 1.389 . S
C121 H104 0.939 . S
C121 C116 1.400 . S
C121 C120 1.389 . S
C122 P96 1.819 . S
C122 C123 1.391 . S
C122 C127 1.391 . S
C123 H105 0.941 . S
C123 C122 1.391 . S
C123 C124 1.396 . S
C124 H108 0.939 . S
C124 C123 1.396 . S
C124 C125 1.397 . S
C125 C124 1.397 . S
C125 C126 1.385 . S
C126 H109 0.940 . S
C126 C125 1.385 . S
C126 C127 1.388 . S
C127 H106 0.939 . S
C127 C122 1.391 . S
C127 C126 1.388 . S
P128 O139 1.490 . S
P128 C142 1.812 . S
P128 C148 1.803 . S
P128 C154 1.819 . S
H129 C143 0.941 . S
H130 C144 0.939 . S
H131 C146 0.940 . S
H132 C147 0.940 . S
H133 C149 0.939 . S
H134 C150 0.942 . S
H135 C152 0.940 . S
H136 C153 0.939 . S
H137 C155 0.941 . S
H138 C159 0.939 . S
O139 P128 1.490 . S
H140 C156 0.939 . S
H141 C158 0.940 1_655 S
C142 P128 1.812 . S
C142 C143 1.389 . S
C142 C147 1.391 . S
C143 H129 0.941 . S
C143 C142 1.389 . S
C143 C144 1.397 . S
C144 H130 0.939 . S
C144 C143 1.397 . S
C144 C145 1.378 1_565 S
C145 C144 1.378 1_545 S
C145 C146 1.378 . S
C146 H131 0.940 . S
C146 C145 1.378 . S
C146 C147 1.396 1_545 S
C147 H132 0.940 . S
C147 C142 1.391 . S
C147 C146 1.396 1_565 S
C148 P128 1.803 . S
C148 C149 1.378 . S
C148 C153 1.400 . S
C149 H133 0.939 . S
C149 C148 1.378 . S
C149 C150 1.361 . S
C150 H134 0.942 . S
C150 C149 1.361 . S
C150 C151 1.369 . S
C151 C150 1.369 . S
C151 C152 1.404 . S
C152 H135 0.940 . S
C152 C151 1.404 . S
C152 C153 1.389 . S
C153 H136 0.939 . S
C153 C148 1.400 . S
C153 C152 1.389 . S
C154 P128 1.819 . S
C154 C155 1.391 . S
C154 C159 1.391 . S
C155 H137 0.941 . S
C155 C154 1.391 . S
C155 C156 1.396 . S
C156 H140 0.939 . S
C156 C155 1.396 . S
C156 C157 1.397 . S
C157 C156 1.397 . S
C157 C158 1.385 . S
C158 H141 0.940 1_455 S
C158 C157 1.385 . S
C158 C159 1.388 . S
C159 H138 0.939 . S
C159 C154 1.391 . S
C159 C158 1.388 . S
P160 O171 1.490 . S
P160 C174 1.812 . S
P160 C180 1.803 . S
P160 C186 1.819 . S
H161 C175 0.941 . S
H162 C176 0.939 . S
H163 C178 0.940 . S
H164 C179 0.940 . S
H165 C181 0.939 . S
H166 C182 0.942 . S
H167 C184 0.940 . S
H168 C185 0.939 . S
H169 C187 0.941 . S
H170 C191 0.939 . S
O171 P160 1.490 . S
H172 C188 0.939 . S
H173 C190 0.940 . S
C174 P160 1.812 . S
C174 C175 1.389 . S
C174 C179 1.391 . S
C175 H161 0.941 . S
C175 C174 1.389 . S
C175 C176 1.397 . S
C176 H162 0.939 . S
C176 C175 1.397 . S
C176 C177 1.378 . S
C177 C176 1.378 . S
C177 C178 1.378 . S
C178 H163 0.940 . S
C178 C177 1.378 . S
C178 C179 1.396 . S
C179 H164 0.940 . S
C179 C174 1.391 . S
C179 C178 1.396 . S
C180 P160 1.803 . S
C180 C181 1.378 . S
C180 C185 1.400 . S
C181 H165 0.939 . S
C181 C180 1.378 . S
C181 C182 1.361 . S
C182 H166 0.942 . S
C182 C181 1.361 . S
C182 C183 1.369 . S
C183 C182 1.369 . S
C183 C184 1.404 . S
C184 H167 0.940 . S
C184 C183 1.404 . S
C184 C185 1.389 . S
C185 H168 0.939 . S
C185 C180 1.400 . S
C185 C184 1.389 . S
C186 P160 1.819 . S
C186 C187 1.391 . S
C186 C191 1.391 . S
C187 H169 0.941 . S
C187 C186 1.391 . S
C187 C188 1.396 . S
C188 H172 0.939 . S
C188 C187 1.396 . S
C188 C189 1.397 . S
C189 C188 1.397 . S
C189 C190 1.385 . S
C190 H173 0.940 . S
C190 C189 1.385 . S
C190 C191 1.388 . S
C191 H170 0.939 . S
C191 C186 1.391 . S
C191 C190 1.388 . S
P192 O203 1.490 . S
P192 C206 1.812 . S
P192 C212 1.803 . S
P192 C218 1.819 . S
H193 C207 0.941 . S
H194 C208 0.939 . S
H195 C210 0.940 . S
H196 C211 0.940 . S
H197 C213 0.939 . S
H198 C214 0.942 . S
H199 C216 0.940 . S
H200 C217 0.939 . S
H201 C219 0.941 . S
H202 C223 0.939 . S
O203 P192 1.490 . S
H204 C220 0.939 . S
H205 C222 0.940 . S
C206 P192 1.812 . S
C206 C207 1.389 1_655 S
C206 C211 1.391 . S
C207 H193 0.941 . S
C207 C206 1.389 1_455 S
C207 C208 1.397 . S
C208 H194 0.939 . S
C208 C207 1.397 . S
C208 C209 1.378 . S
C209 C208 1.378 . S
C209 C210 1.378 1_455 S
C210 H195 0.940 . S
C210 C209 1.378 1_655 S
C210 C211 1.396 . S
C211 H196 0.940 . S
C211 C206 1.391 . S
C211 C210 1.396 . S
C212 P192 1.803 . S
C212 C213 1.378 . S
C212 C217 1.400 . S
C213 H197 0.939 . S
C213 C212 1.378 . S
C213 C214 1.361 . S
C214 H198 0.942 . S
C214 C213 1.361 . S
C214 C215 1.369 . S
C215 C214 1.369 . S
C215 C216 1.404 . S
C216 H199 0.940 . S
C216 C215 1.404 . S
C216 C217 1.389 . S
C217 H200 0.939 . S
C217 C212 1.400 . S
C217 C216 1.389 . S
C218 P192 1.819 . S
C218 C219 1.391 . S
C218 C223 1.391 . S
C219 H201 0.941 . S
C219 C218 1.391 . S
C219 C220 1.396 . S
C220 H204 0.939 . S
C220 C219 1.396 . S
C220 C221 1.397 . S
C221 C220 1.397 . S
C221 C222 1.385 . S
C222 H205 0.940 . S
C222 C221 1.385 . S
C222 C223 1.388 . S
C223 H202 0.939 . S
C223 C218 1.391 . S
C223 C222 1.388 . S
P224 O235 1.490 . S
P224 C238 1.812 . S
P224 C244 1.803 . S
P224 C250 1.819 . S
H225 C239 0.941 . S
H226 C240 0.939 . S
H227 C242 0.940 . S
H228 C243 0.940 . S
H229 C245 0.939 . S
H230 C246 0.942 . S
H231 C248 0.940 . S
H232 C249 0.939 . S
H233 C251 0.941 . S
H234 C255 0.939 . S
O235 P224 1.490 . S
H236 C252 0.939 . S
H237 C254 0.940 . S
C238 P224 1.812 . S
C238 C239 1.389 . S
C238 C243 1.391 . S
C239 H225 0.941 . S
C239 C238 1.389 . S
C239 C240 1.397 . S
C240 H226 0.939 . S
C240 C239 1.397 . S
C240 C241 1.378 . S
C241 C240 1.378 . S
C241 C242 1.378 . S
C242 H227 0.940 . S
C242 C241 1.378 . S
C242 C243 1.396 . S
C243 H228 0.940 . S
C243 C238 1.391 . S
C243 C242 1.396 . S
C244 P224 1.803 . S
C244 C245 1.378 . S
C244 C249 1.400 . S
C245 H229 0.939 . S
C245 C244 1.378 . S
C245 C246 1.361 . S
C246 H230 0.942 . S
C246 C245 1.361 . S
C246 C247 1.369 . S
C247 C246 1.369 . S
C247 C248 1.404 . S
C248 H231 0.940 . S
C248 C247 1.404 . S
C248 C249 1.389 . S
C249 H232 0.939 . S
C249 C244 1.400 . S
C249 C248 1.389 . S
C250 P224 1.819 . S
C250 C251 1.391 . S
C250 C255 1.391 . S
C251 H233 0.941 . S
C251 C250 1.391 . S
C251 C252 1.396 . S
C252 H236 0.939 . S
C252 C251 1.396 . S
C252 C253 1.397 . S
C253 C252 1.397 . S
C253 C254 1.385 . S
C254 H237 0.940 . S
C254 C253 1.385 . S
C254 C255 1.388 . S
C255 H234 0.939 . S
C255 C250 1.391 . S
C255 C254 1.388 . S
P256 O267 1.490 . S
P256 C270 1.812 . S
P256 C276 1.803 . S
P256 C282 1.819 . S
H257 C271 0.941 . S
H258 C272 0.939 . S
H259 C274 0.940 . S
H260 C275 0.940 . S
H261 C277 0.939 . S
H262 C278 0.942 . S
H263 C280 0.940 . S
H264 C281 0.939 . S
H265 C283 0.941 . S
H266 C287 0.939 . S
O267 P256 1.490 . S
H268 C284 0.939 . S
H269 C286 0.940 . S
C270 P256 1.812 . S
C270 C271 1.389 . S
C270 C275 1.391 . S
C271 H257 0.941 . S
C271 C270 1.389 . S
C271 C272 1.397 . S
C272 H258 0.939 . S
C272 C271 1.397 . S
C272 C273 1.378 . S
C273 C272 1.378 . S
C273 C274 1.378 . S
C274 H259 0.940 . S
C274 C273 1.378 . S
C274 C275 1.396 . S
C275 H260 0.940 . S
C275 C270 1.391 . S
C275 C274 1.396 . S
C276 P256 1.803 . S
C276 C277 1.378 . S
C276 C281 1.400 . S
C277 H261 0.939 . S
C277 C276 1.378 . S
C277 C278 1.361 . S
C278 H262 0.942 . S
C278 C277 1.361 . S
C278 C279 1.369 . S
C279 C278 1.369 . S
C279 C280 1.404 . S
C280 H263 0.940 . S
C280 C279 1.404 . S
C280 C281 1.389 . S
C281 H264 0.939 . S
C281 C276 1.400 . S
C281 C280 1.389 . S
C282 P256 1.819 . S
C282 C283 1.391 . S
C282 C287 1.391 . S
C283 H265 0.941 . S
C283 C282 1.391 . S
C283 C284 1.396 . S
C284 H268 0.939 . S
C284 C283 1.396 . S
C284 C285 1.397 . S
C285 C284 1.397 . S
C285 C286 1.385 . S
C286 H269 0.940 . S
C286 C285 1.385 . S
C286 C287 1.388 . S
C287 H266 0.939 . S
C287 C282 1.391 . S
C287 C286 1.388 . S
P288 O299 1.490 . S
P288 C302 1.812 . S
P288 C308 1.803 . S
P288 C314 1.819 . S
H289 C303 0.941 . S
H290 C304 0.939 . S
H291 C306 0.940 . S
H292 C307 0.940 . S
H293 C309 0.939 . S
H294 C310 0.942 . S
H295 C312 0.940 . S
H296 C313 0.939 . S
H297 C315 0.941 . S
H298 C319 0.939 . S
O299 P288 1.490 . S
H300 C316 0.939 . S
H301 C318 0.940 . S
C302 P288 1.812 . S
C302 C303 1.389 . S
C302 C307 1.391 . S
C303 H289 0.941 . S
C303 C302 1.389 . S
C303 C304 1.397 . S
C304 H290 0.939 . S
C304 C303 1.397 . S
C304 C305 1.378 . S
C305 C304 1.378 . S
C305 C306 1.378 . S
C306 H291 0.940 . S
C306 C305 1.378 . S
C306 C307 1.396 . S
C307 H292 0.940 . S
C307 C302 1.391 . S
C307 C306 1.396 . S
C308 P288 1.803 . S
C308 C309 1.378 1_565 S
C308 C313 1.400 . S
C309 H293 0.939 . S
C309 C308 1.378 1_545 S
C309 C310 1.361 . S
C310 H294 0.942 . S
C310 C309 1.361 . S
C310 C311 1.369 . S
C311 C310 1.369 . S
C311 C312 1.404 1_545 S
C312 H295 0.940 . S
C312 C311 1.404 1_565 S
C312 C313 1.389 . S
C313 H296 0.939 . S
C313 C308 1.400 . S
C313 C312 1.389 . S
C314 P288 1.819 . S
C314 C315 1.391 . S
C314 C319 1.391 . S
C315 H297 0.941 . S
C315 C314 1.391 . S
C315 C316 1.396 . S
C316 H300 0.939 . S
C316 C315 1.396 . S
C316 C317 1.397 . S
C317 C316 1.397 . S
C317 C318 1.385 . S
C318 H301 0.940 . S
C318 C317 1.385 . S
C318 C319 1.388 . S
C319 H298 0.939 . S
C319 C314 1.391 . S
C319 C318 1.388 . S
P320 O331 1.490 . S
P320 C334 1.812 . S
P320 C340 1.803 . S
P320 C346 1.819 . S
H321 C335 0.941 . S
H322 C336 0.939 . S
H323 C338 0.940 . S
H324 C339 0.940 . S
H325 C341 0.939 . S
H326 C342 0.942 . S
H327 C344 0.940 . S
H328 C345 0.939 . S
H329 C347 0.941 . S
H330 C351 0.939 . S
O331 P320 1.490 . S
H332 C348 0.939 . S
H333 C350 0.940 . S
C334 P320 1.812 . S
C334 C335 1.389 . S
C334 C339 1.391 . S
C335 H321 0.941 . S
C335 C334 1.389 . S
C335 C336 1.397 . S
C336 H322 0.939 . S
C336 C335 1.397 . S
C336 C337 1.378 . S
C337 C336 1.378 . S
C337 C338 1.378 . S
C338 H323 0.940 . S
C338 C337 1.378 . S
C338 C339 1.396 . S
C339 H324 0.940 . S
C339 C334 1.391 . S
C339 C338 1.396 . S
C340 P320 1.803 . S
C340 C341 1.378 . S
C340 C345 1.400 . S
C341 H325 0.939 . S
C341 C340 1.378 . S
C341 C342 1.361 . S
C342 H326 0.942 . S
C342 C341 1.361 . S
C342 C343 1.369 . S
C343 C342 1.369 . S
C343 C344 1.404 . S
C344 H327 0.940 . S
C344 C343 1.404 . S
C344 C345 1.389 . S
C345 H328 0.939 . S
C345 C340 1.400 . S
C345 C344 1.389 . S
C346 P320 1.819 . S
C346 C347 1.391 . S
C346 C351 1.391 . S
C347 H329 0.941 . S
C347 C346 1.391 . S
C347 C348 1.396 . S
C348 H332 0.939 . S
C348 C347 1.396 . S
C348 C349 1.397 . S
C349 C348 1.397 . S
C349 C350 1.385 . S
C350 H333 0.940 . S
C350 C349 1.385 . S
C350 C351 1.388 . S
C351 H330 0.939 . S
C351 C346 1.391 . S
C351 C350 1.388 . S
P352 O363 1.490 . S
P352 C366 1.812 . S
P352 C372 1.803 . S
P352 C378 1.819 . S
H353 C367 0.941 . S
H354 C368 0.939 . S
H355 C370 0.940 . S
H356 C371 0.940 . S
H357 C373 0.939 . S
H358 C374 0.942 . S
H359 C376 0.940 . S
H360 C377 0.939 . S
H361 C379 0.941 . S
H362 C383 0.939 . S
O363 P352 1.490 . S
H364 C380 0.939 . S
H365 C382 0.940 . S
C366 P352 1.812 . S
C366 C367 1.389 . S
C366 C371 1.391 . S
C367 H353 0.941 . S
C367 C366 1.389 . S
C367 C368 1.397 . S
C368 H354 0.939 . S
C368 C367 1.397 . S
C368 C369 1.378 . S
C369 C368 1.378 . S
C369 C370 1.378 . S
C370 H355 0.940 . S
C370 C369 1.378 . S
C370 C371 1.396 . S
C371 H356 0.940 . S
C371 C366 1.391 . S
C371 C370 1.396 . S
C372 P352 1.803 . S
C372 C373 1.378 . S
C372 C377 1.400 . S
C373 H357 0.939 . S
C373 C372 1.378 . S
C373 C374 1.361 . S
C374 H358 0.942 . S
C374 C373 1.361 . S
C374 C375 1.369 . S
C375 C374 1.369 . S
C375 C376 1.404 . S
C376 H359 0.940 . S
C376 C375 1.404 . S
C376 C377 1.389 . S
C377 H360 0.939 . S
C377 C372 1.400 . S
C377 C376 1.389 . S
C378 P352 1.819 . S
C378 C379 1.391 . S
C378 C383 1.391 . S
C379 H361 0.941 . S
C379 C378 1.391 . S
C379 C380 1.396 . S
C380 H364 0.939 . S
C380 C379 1.396 . S
C380 C381 1.397 . S
C381 C380 1.397 . S
C381 C382 1.385 . S
C382 H365 0.940 . S
C382 C381 1.385 . S
C382 C383 1.388 . S
C383 H362 0.939 . S
C383 C378 1.391 . S
C383 C382 1.388 . S
P384 O395 1.490 . S
P384 C398 1.812 . S
P384 C404 1.803 . S
P384 C410 1.819 . S
H385 C399 0.941 . S
H386 C400 0.939 . S
H387 C402 0.940 . S
H388 C403 0.940 . S
H389 C405 0.939 . S
H390 C406 0.942 . S
H391 C408 0.940 . S
H392 C409 0.939 . S
H393 C411 0.941 . S
H394 C415 0.939 . S
O395 P384 1.490 . S
H396 C412 0.939 . S
H397 C414 0.940 . S
C398 P384 1.812 . S
C398 C399 1.389 . S
C398 C403 1.391 . S
C399 H385 0.941 . S
C399 C398 1.389 . S
C399 C400 1.397 . S
C400 H386 0.939 . S
C400 C399 1.397 . S
C400 C401 1.378 . S
C401 C400 1.378 . S
C401 C402 1.378 . S
C402 H387 0.940 . S
C402 C401 1.378 . S
C402 C403 1.396 . S
C403 H388 0.940 . S
C403 C398 1.391 . S
C403 C402 1.396 . S
C404 P384 1.803 . S
C404 C405 1.378 . S
C404 C409 1.400 . S
C405 H389 0.939 . S
C405 C404 1.378 . S
C405 C406 1.361 . S
C406 H390 0.942 . S
C406 C405 1.361 . S
C406 C407 1.369 . S
C407 C406 1.369 . S
C407 C408 1.404 . S
C408 H391 0.940 . S
C408 C407 1.404 . S
C408 C409 1.389 . S
C409 H392 0.939 . S
C409 C404 1.400 . S
C409 C408 1.389 . S
C410 P384 1.819 . S
C410 C411 1.391 . S
C410 C415 1.391 . S
C411 H393 0.941 . S
C411 C410 1.391 . S
C411 C412 1.396 . S
C412 H396 0.939 . S
C412 C411 1.396 . S
C412 C413 1.397 . S
C413 C412 1.397 . S
C413 C414 1.385 . S
C414 H397 0.940 . S
C414 C413 1.385 . S
C414 C415 1.388 . S
C415 H394 0.939 . S
C415 C410 1.391 . S
C415 C414 1.388 . S
P416 O427 1.490 . S
P416 C430 1.812 . S
P416 C436 1.803 . S
P416 C442 1.819 . S
H417 C431 0.941 . S
H418 C432 0.939 . S
H419 C434 0.940 . S
H420 C435 0.940 . S
H421 C437 0.939 . S
H422 C438 0.942 . S
H423 C440 0.940 . S
H424 C441 0.939 . S
H425 C443 0.941 . S
H426 C447 0.939 . S
O427 P416 1.490 . S
H428 C444 0.939 . S
H429 C446 0.940 . S
C430 P416 1.812 . S
C430 C431 1.389 . S
C430 C435 1.391 . S
C431 H417 0.941 . S
C431 C430 1.389 . S
C431 C432 1.397 . S
C432 H418 0.939 . S
C432 C431 1.397 . S
C432 C433 1.378 . S
C433 C432 1.378 . S
C433 C434 1.378 . S
C434 H419 0.940 . S
C434 C433 1.378 . S
C434 C435 1.396 . S
C435 H420 0.940 . S
C435 C430 1.391 . S
C435 C434 1.396 . S
C436 P416 1.803 . S
C436 C437 1.378 . S
C436 C441 1.400 . S
C437 H421 0.939 . S
C437 C436 1.378 . S
C437 C438 1.361 . S
C438 H422 0.942 . S
C438 C437 1.361 . S
C438 C439 1.369 1_556 S
C439 C438 1.369 1_554 S
C439 C440 1.404 . S
C440 H423 0.940 . S
C440 C439 1.404 . S
C440 C441 1.389 1_554 S
C441 H424 0.939 . S
C441 C436 1.400 . S
C441 C440 1.389 1_556 S
C442 P416 1.819 . S
C442 C443 1.391 . S
C442 C447 1.391 . S
C443 H425 0.941 . S
C443 C442 1.391 . S
C443 C444 1.396 . S
C444 H428 0.939 . S
C444 C443 1.396 . S
C444 C445 1.397 . S
C445 C444 1.397 . S
C445 C446 1.385 . S
C446 H429 0.940 . S
C446 C445 1.385 . S
C446 C447 1.388 . S
C447 H426 0.939 . S
C447 C442 1.391 . S
C447 C446 1.388 . S
P448 O459 1.490 . S
P448 C462 1.812 . S
P448 C468 1.803 . S
P448 C474 1.819 . S
H449 C463 0.941 . S
H450 C464 0.939 . S
H451 C466 0.940 . S
H452 C467 0.940 . S
H453 C469 0.939 . S
H454 C470 0.942 . S
H455 C472 0.940 . S
H456 C473 0.939 . S
H457 C475 0.941 . S
H458 C479 0.939 . S
O459 P448 1.490 . S
H460 C476 0.939 . S
H461 C478 0.940 . S
C462 P448 1.812 . S
C462 C463 1.389 . S
C462 C467 1.391 . S
C463 H449 0.941 . S
C463 C462 1.389 . S
C463 C464 1.397 . S
C464 H450 0.939 . S
C464 C463 1.397 . S
C464 C465 1.378 . S
C465 C464 1.378 . S
C465 C466 1.378 . S
C466 H451 0.940 . S
C466 C465 1.378 . S
C466 C467 1.396 . S
C467 H452 0.940 . S
C467 C462 1.391 . S
C467 C466 1.396 . S
C468 P448 1.803 . S
C468 C469 1.378 . S
C468 C473 1.400 . S
C469 H453 0.939 . S
C469 C468 1.378 . S
C469 C470 1.361 . S
C470 H454 0.942 . S
C470 C469 1.361 . S
C470 C471 1.369 . S
C471 C470 1.369 . S
C471 C472 1.404 . S
C472 H455 0.940 . S
C472 C471 1.404 . S
C472 C473 1.389 . S
C473 H456 0.939 . S
C473 C468 1.400 . S
C473 C472 1.389 . S
C474 P448 1.819 . S
C474 C475 1.391 . S
C474 C479 1.391 . S
C475 H457 0.941 . S
C475 C474 1.391 . S
C475 C476 1.396 . S
C476 H460 0.939 . S
C476 C475 1.396 . S
C476 C477 1.397 . S
C477 C476 1.397 . S
C477 C478 1.385 . S
C478 H461 0.940 . S
C478 C477 1.385 . S
C478 C479 1.388 . S
C479 H458 0.939 . S
C479 C474 1.391 . S
C479 C478 1.388 . S
P480 O491 1.490 . S
P480 C494 1.812 . S
P480 C500 1.803 . S
P480 C506 1.819 . S
H481 C495 0.941 . S
H482 C496 0.939 . S
H483 C498 0.940 . S
H484 C499 0.940 . S
H485 C501 0.939 . S
H486 C502 0.942 . S
H487 C504 0.940 . S
H488 C505 0.939 . S
H489 C507 0.972 . S
H490 C511 0.939 . S
O491 P480 1.490 . S
H492 C508 0.939 . S
H493 C510 0.940 . S
C494 P480 1.812 . S
C494 C495 1.389 . S
C494 C499 1.391 . S
C495 H481 0.941 . S
C495 C494 1.389 . S
C495 C496 1.397 . S
C496 H482 0.939 . S
C496 C495 1.397 . S
C496 C497 1.378 . S
C497 C496 1.378 . S
C497 C498 1.378 . S
C498 H483 0.940 . S
C498 C497 1.378 . S
C498 C499 1.396 . S
C499 H484 0.940 . S
C499 C494 1.391 . S
C499 C498 1.396 . S
C500 P480 1.803 . S
C500 C501 1.378 1_556 S
C500 C505 1.400 . S
C501 H485 0.939 . S
C501 C500 1.378 1_554 S
C501 C502 1.361 . S
C502 H486 0.942 . S
C502 C501 1.361 . S
C502 C503 1.369 . S
C503 C502 1.369 . S
C503 C504 1.404 1_554 S
C504 H487 0.940 . S
C504 C503 1.404 1_556 S
C504 C505 1.389 . S
C505 H488 0.939 . S
C505 C500 1.400 . S
C505 C504 1.389 . S
C506 P480 1.819 . S
C506 C507 1.342 1_545 S
C506 C511 1.391 . S
C507 H489 0.972 . S
C507 C506 1.342 1_565 S
C507 C508 1.417 . S
C508 H492 0.939 . S
C508 C507 1.417 . S
C508 C509 1.397 1_565 S
C509 C508 1.397 1_545 S
C509 C510 1.385 . S
C510 H493 0.940 . S
C510 C509 1.385 . S
C510 C511 1.388 . S
C511 H490 0.939 . S
C511 C506 1.391 . S
C511 C510 1.388 . S
Mn512 O517 2.095 . S
Mn512 O527 2.162 . S
Mn512 O528 2.297 . S
Mn512 O536 2.393 . S
Mn512 O537 2.209 1_554 S
Mn512 O538 2.094 . S
Mn513 O518 2.121 . S
Mn513 N520 2.257 . S
Mn513 N529 2.282 . S
Mn513 O537 2.215 . S
Mn513 O539 2.117 . S
C514 O536 1.219 1_556 S
C514 O537 1.283 . S
C515 O527 1.281 . S
C515 O528 1.236 . S
C516 O538 1.240 . S
C516 O539 1.264 1_554 S
O517 Mn512 2.095 . S
O517 C526 1.250 . S
O518 Mn513 2.121 . S
O518 C526 1.258 1_556 S
C519 N520 1.326 . S
C519 C523 1.460 . S
C519 H525 0.929 . S
N520 Mn513 2.257 . S
N520 C519 1.326 . S
N520 C524 1.362 . S
C521 C522 1.258 . S
C521 C524 1.431 . S
C521 C541 1.449 . S
C522 C521 1.258 . S
C522 C523 1.477 . S
C522 H542 0.931 . S
C523 C519 1.460 . S
C523 C522 1.477 . S
C523 H543 0.930 . S
C524 N520 1.362 . S
C524 C521 1.431 . S
C524 C534 1.476 . S
H525 C519 0.929 . S
C526 O517 1.250 . S
C526 O518 1.258 1_554 S
O527 Mn512 2.162 . S
O527 C515 1.281 . S
O528 Mn512 2.297 . S
O528 C515 1.236 . S
N529 Mn513 2.282 . S
N529 C530 1.328 . S
N529 C534 1.318 . S
C530 N529 1.328 . S
C530 C531 1.457 . S
C530 H535 0.929 . S
C531 C530 1.457 . S
C531 C532 1.291 . S
C531 H544 0.931 . S
C532 C531 1.291 . S
C532 C533 1.373 . S
C532 H545 0.929 . S
C533 C532 1.373 . S
C533 C534 1.396 . S
C533 C540 1.403 . S
C534 C524 1.476 . S
C534 N529 1.318 . S
C534 C533 1.396 . S
H535 C530 0.929 . S
O536 Mn512 2.393 . S
O536 C514 1.219 1_554 S
O537 Mn512 2.209 1_556 S
O537 Mn513 2.215 . S
O537 C514 1.283 . S
O538 Mn512 2.094 . S
O538 C516 1.240 . S
O539 Mn513 2.117 . S
O539 C516 1.264 1_556 S
C540 C533 1.403 . S
C540 C541 1.399 . S
C540 H546 0.929 . S
C541 C521 1.449 . S
C541 C540 1.399 . S
C541 H547 0.930 . S
H542 C522 0.931 . S
H543 C523 0.930 . S
H544 C531 0.931 . S
H545 C532 0.929 . S
H546 C540 0.929 . S
H547 C541 0.930 . S
Mn548 O553 2.095 . S
Mn548 O563 2.162 . S
Mn548 O564 2.297 . S
Mn548 O572 2.385 . S
Mn548 O573 2.209 . S
Mn548 O574 2.094 . S
Mn549 O554 2.121 . S
Mn549 N556 2.257 . S
Mn549 N565 2.282 . S
Mn549 O573 2.215 . S
Mn549 O575 2.117 . S
C550 O572 1.234 . S
C550 O573 1.283 . S
C551 O563 1.281 . S
C551 O564 1.236 . S
C552 O574 1.240 . S
C552 O575 1.264 . S
O553 Mn548 2.095 . S
O553 C562 1.250 . S
O554 Mn549 2.121 . S
O554 C562 1.258 . S
C555 N556 1.326 . S
C555 C559 1.460 . S
C555 H561 0.929 . S
N556 Mn549 2.257 . S
N556 C555 1.326 . S
N556 C560 1.362 . S
C557 C558 1.258 . S
C557 C560 1.431 . S
C557 C577 1.449 . S
C558 C557 1.258 . S
C558 C559 1.477 . S
C558 H578 0.931 . S
C559 C555 1.460 . S
C559 C558 1.477 . S
C559 H579 0.930 . S
C560 N556 1.362 . S
C560 C557 1.431 . S
C560 C570 1.476 . S
H561 C555 0.929 . S
C562 O553 1.250 . S
C562 O554 1.258 . S
O563 Mn548 2.162 . S
O563 C551 1.281 . S
O564 Mn548 2.297 . S
O564 C551 1.236 . S
N565 Mn549 2.282 . S
N565 C566 1.328 . S
N565 C570 1.318 . S
C566 N565 1.328 . S
C566 C567 1.457 . S
C566 H571 0.929 . S
C567 C566 1.457 . S
C567 C568 1.291 . S
C567 H580 0.931 . S
C568 C567 1.291 . S
C568 C569 1.373 . S
C568 H581 0.929 . S
C569 C568 1.373 . S
C569 C570 1.396 . S
C569 C576 1.403 . S
C570 C560 1.476 . S
C570 N565 1.318 . S
C570 C569 1.396 . S
H571 C566 0.929 . S
O572 Mn548 2.385 . S
O572 C550 1.234 . S
O573 Mn548 2.209 . S
O573 Mn549 2.215 . S
O573 C550 1.283 . S
O574 Mn548 2.094 . S
O574 C552 1.240 . S
O575 Mn549 2.117 . S
O575 C552 1.264 . S
C576 C569 1.403 . S
C576 C577 1.399 . S
C576 H582 0.929 . S
C577 C557 1.449 . S
C577 C576 1.399 . S
C577 H583 0.930 . S
H578 C558 0.931 . S
H579 C559 0.930 . S
H580 C567 0.931 . S
H581 C568 0.929 . S
H582 C576 0.929 . S
H583 C577 0.930 . S
Mn584 O589 2.095 1_554 S
Mn584 O599 2.162 . S
Mn584 O600 2.297 1_554 S
Mn584 O608 2.385 . S
Mn584 O609 2.209 1_554 S
Mn584 O610 2.094 . S
Mn585 O590 2.121 . S
Mn585 N592 2.257 . S
Mn585 N601 2.282 . S
Mn585 O609 2.215 . S
Mn585 O611 2.117 1_556 S
C586 O608 1.223 1_556 S
C586 O609 1.291 . S
C587 O599 1.281 . S
C587 O600 1.236 1_554 S
C588 O610 1.240 . S
C588 O611 1.264 . S
O589 Mn584 2.095 1_556 S
O589 C598 1.250 . S
O590 Mn585 2.121 . S
O590 C598 1.258 . S
C591 N592 1.326 . S
C591 C595 1.460 . S
C591 H597 0.929 . S
N592 Mn585 2.257 . S
N592 C591 1.326 . S
N592 C596 1.362 . S
C593 C594 1.258 . S
C593 C596 1.431 . S
C593 C613 1.449 . S
C594 C593 1.258 . S
C594 C595 1.477 . S
C594 H614 0.931 . S
C595 C591 1.460 . S
C595 C594 1.477 . S
C595 H615 0.930 . S
C596 N592 1.362 . S
C596 C593 1.431 . S
C596 C606 1.476 . S
H597 C591 0.929 . S
C598 O589 1.250 . S
C598 O590 1.258 . S
O599 Mn584 2.162 . S
O599 C587 1.281 . S
O600 Mn584 2.297 1_556 S
O600 C587 1.236 1_556 S
N601 Mn585 2.282 . S
N601 C602 1.328 1_556 S
N601 C606 1.318 . S
C602 N601 1.328 1_554 S
C602 C603 1.457 . S
C602 H607 0.929 . S
C603 C602 1.457 . S
C603 C604 1.291 . S
C603 H616 0.931 . S
C604 C603 1.291 . S
C604 C605 1.373 1_554 S
C604 H617 0.929 . S
C605 C604 1.373 1_556 S
C605 C606 1.396 . S
C605 C612 1.403 . S
C606 C596 1.476 . S
C606 N601 1.318 . S
C606 C605 1.396 . S
H607 C602 0.929 . S
O608 Mn584 2.385 . S
O608 C586 1.223 1_554 S
O609 Mn584 2.209 1_556 S
O609 Mn585 2.215 . S
O609 C586 1.291 . S
O610 Mn584 2.094 . S
O610 C588 1.240 . S
O611 Mn585 2.117 1_554 S
O611 C588 1.264 . S
C612 C605 1.403 . S
C612 C613 1.399 . S
C612 H618 0.929 . S
C613 C593 1.449 . S
C613 C612 1.399 . S
C613 H619 0.930 . S
H614 C594 0.931 . S
H615 C595 0.930 . S
H616 C603 0.931 . S
H617 C604 0.929 . S
H618 C612 0.929 . S
H619 C613 0.930 . S
Mn620 O625 2.095 . S
Mn620 O635 2.162 . S
Mn620 O636 2.297 . S
Mn620 O644 2.403 . S
Mn620 O645 2.209 1_545 S
Mn620 O646 2.094 . S
Mn621 O626 2.121 . S
Mn621 N628 2.257 . S
Mn621 N637 2.282 . S
Mn621 O645 2.215 . S
Mn621 O647 2.117 . S
C622 O644 1.198 1_565 S
C622 O645 1.283 . S
C623 O635 1.281 . S
C623 O636 1.236 . S
C624 O646 1.240 . S
C624 O647 1.264 1_545 S
O625 Mn620 2.095 . S
O625 C634 1.250 . S
O626 Mn621 2.121 . S
O626 C634 1.258 1_565 S
C627 N628 1.326 . S
C627 C631 1.460 . S
C627 H633 0.929 . S
N628 Mn621 2.257 . S
N628 C627 1.326 . S
N628 C632 1.362 . S
C629 C630 1.258 . S
C629 C632 1.431 . S
C629 C649 1.449 . S
C630 C629 1.258 . S
C630 C631 1.477 . S
C630 H650 0.931 . S
C631 C627 1.460 . S
C631 C630 1.477 . S
C631 H651 0.930 . S
C632 N628 1.362 . S
C632 C629 1.431 . S
C632 C642 1.476 . S
H633 C627 0.929 . S
C634 O625 1.250 . S
C634 O626 1.258 1_545 S
O635 Mn620 2.162 . S
O635 C623 1.281 . S
O636 Mn620 2.297 . S
O636 C623 1.236 . S
N637 Mn621 2.282 . S
N637 C638 1.328 . S
N637 C642 1.318 . S
C638 N637 1.328 . S
C638 C639 1.457 . S
C638 H643 0.929 . S
C639 C638 1.457 . S
C639 C640 1.291 . S
C639 H652 0.931 . S
C640 C639 1.291 . S
C640 C641 1.373 . S
C640 H653 0.929 . S
C641 C640 1.373 . S
C641 C642 1.396 . S
C641 C648 1.403 . S
C642 C632 1.476 . S
C642 N637 1.318 . S
C642 C641 1.396 . S
H643 C638 0.929 . S
O644 Mn620 2.403 . S
O644 C622 1.198 1_545 S
O645 Mn620 2.209 1_565 S
O645 Mn621 2.215 . S
O645 C622 1.283 . S
O646 Mn620 2.094 . S
O646 C624 1.240 . S
O647 Mn621 2.117 . S
O647 C624 1.264 1_565 S
C648 C641 1.403 . S
C648 C649 1.399 . S
C648 H654 0.929 . S
C649 C629 1.449 . S
C649 C648 1.399 . S
C649 H655 0.930 . S
H650 C630 0.931 . S
H651 C631 0.930 . S
H652 C639 0.931 . S
H653 C640 0.929 . S
H654 C648 0.929 . S
H655 C649 0.930 . S
Mn656 O661 2.095 . S
Mn656 O671 2.162 . S
Mn656 O672 2.297 . S
Mn656 O680 2.385 . S
Mn656 O681 2.209 . S
Mn656 O682 2.094 . S
Mn657 O662 2.121 . S
Mn657 N664 2.257 . S
Mn657 N673 2.282 . S
Mn657 O681 2.215 . S
Mn657 O683 2.117 . S
C658 O680 1.234 . S
C658 O681 1.283 . S
C659 O671 1.281 . S
C659 O672 1.236 . S
C660 O682 1.240 . S
C660 O683 1.264 . S
O661 Mn656 2.095 . S
O661 C670 1.250 . S
O662 Mn657 2.121 . S
O662 C670 1.258 . S
C663 N664 1.326 . S
C663 C667 1.460 . S
C663 H669 0.929 . S
N664 Mn657 2.257 . S
N664 C663 1.326 . S
N664 C668 1.362 . S
C665 C666 1.258 . S
C665 C668 1.431 . S
C665 C685 1.449 . S
C666 C665 1.258 . S
C666 C667 1.477 . S
C666 H686 0.931 . S
C667 C663 1.460 . S
C667 C666 1.477 . S
C667 H687 0.930 . S
C668 N664 1.362 . S
C668 C665 1.431 . S
C668 C678 1.476 . S
H669 C663 0.929 . S
C670 O661 1.250 . S
C670 O662 1.258 . S
O671 Mn656 2.162 . S
O671 C659 1.281 . S
O672 Mn656 2.297 . S
O672 C659 1.236 . S
N673 Mn657 2.282 . S
N673 C674 1.328 . S
N673 C678 1.318 . S
C674 N673 1.328 . S
C674 C675 1.457 . S
C674 H679 0.929 . S
C675 C674 1.457 . S
C675 C676 1.291 . S
C675 H688 0.931 . S
C676 C675 1.291 . S
C676 C677 1.373 . S
C676 H689 0.929 . S
C677 C676 1.373 . S
C677 C678 1.396 . S
C677 C684 1.403 . S
C678 C668 1.476 . S
C678 N673 1.318 . S
C678 C677 1.396 . S
H679 C674 0.929 . S
O680 Mn656 2.385 . S
O680 C658 1.234 . S
O681 Mn656 2.209 . S
O681 Mn657 2.215 . S
O681 C658 1.283 . S
O682 Mn656 2.094 . S
O682 C660 1.240 . S
O683 Mn657 2.117 . S
O683 C660 1.264 . S
C684 C677 1.403 . S
C684 C685 1.399 . S
C684 H690 0.929 . S
C685 C665 1.449 . S
C685 C684 1.399 . S
C685 H691 0.930 . S
H686 C666 0.931 . S
H687 C667 0.930 . S
H688 C675 0.931 . S
H689 C676 0.929 . S
H690 C684 0.929 . S
H691 C685 0.930 . S
Mn692 O697 2.095 . S
Mn692 O707 2.162 . S
Mn692 O708 2.297 . S
Mn692 O716 2.385 . S
Mn692 O717 2.209 . S
Mn692 O718 2.094 . S
Mn693 O698 2.121 . S
Mn693 N700 2.257 . S
Mn693 N709 2.282 . S
Mn693 O717 2.215 . S
Mn693 O719 2.117 . S
C694 O716 1.234 . S
C694 O717 1.283 . S
C695 O707 1.281 . S
C695 O708 1.236 . S
C696 O718 1.240 . S
C696 O719 1.264 . S
O697 Mn692 2.095 . S
O697 C706 1.250 . S
O698 Mn693 2.121 . S
O698 C706 1.258 . S
C699 N700 1.326 . S
C699 C703 1.460 . S
C699 H705 0.929 . S
N700 Mn693 2.257 . S
N700 C699 1.326 . S
N700 C704 1.362 . S
C701 C702 1.258 . S
C701 C704 1.431 . S
C701 C721 1.449 . S
C702 C701 1.258 . S
C702 C703 1.477 . S
C702 H722 0.931 . S
C703 C699 1.460 . S
C703 C702 1.477 . S
C703 H723 0.930 . S
C704 N700 1.362 . S
C704 C701 1.431 . S
C704 C714 1.476 . S
H705 C699 0.929 . S
C706 O697 1.250 . S
C706 O698 1.258 . S
O707 Mn692 2.162 . S
O707 C695 1.281 . S
O708 Mn692 2.297 . S
O708 C695 1.236 . S
N709 Mn693 2.282 . S
N709 C710 1.328 . S
N709 C714 1.318 . S
C710 N709 1.328 . S
C710 C711 1.457 . S
C710 H715 0.929 . S
C711 C710 1.457 . S
C711 C712 1.291 . S
C711 H724 0.931 . S
C712 C711 1.291 . S
C712 C713 1.373 . S
C712 H725 0.929 . S
C713 C712 1.373 . S
C713 C714 1.396 . S
C713 C720 1.403 . S
C714 C704 1.476 . S
C714 N709 1.318 . S
C714 C713 1.396 . S
H715 C710 0.929 . S
O716 Mn692 2.385 . S
O716 C694 1.234 . S
O717 Mn692 2.209 . S
O717 Mn693 2.215 . S
O717 C694 1.283 . S
O718 Mn692 2.094 . S
O718 C696 1.240 . S
O719 Mn693 2.117 . S
O719 C696 1.264 . S
C720 C713 1.403 . S
C720 C721 1.399 . S
C720 H726 0.929 . S
C721 C701 1.449 . S
C721 C720 1.399 . S
C721 H727 0.930 . S
H722 C702 0.931 . S
H723 C703 0.930 . S
H724 C711 0.931 . S
H725 C712 0.929 . S
H726 C720 0.929 . S
H727 C721 0.930 . S
Mn728 O733 2.095 . S
Mn728 O743 2.162 . S
Mn728 O744 2.297 . S
Mn728 O752 2.385 . S
Mn728 O753 2.209 . S
Mn728 O754 2.094 . S
Mn729 O734 2.121 . S
Mn729 N736 2.257 . S
Mn729 N745 2.282 . S
Mn729 O753 2.215 . S
Mn729 O755 2.117 . S
C730 O752 1.234 . S
C730 O753 1.283 . S
C731 O743 1.281 . S
C731 O744 1.236 . S
C732 O754 1.240 . S
C732 O755 1.264 . S
O733 Mn728 2.095 . S
O733 C742 1.250 . S
O734 Mn729 2.121 . S
O734 C742 1.258 . S
C735 N736 1.326 . S
C735 C739 1.460 . S
C735 H741 0.929 . S
N736 Mn729 2.257 . S
N736 C735 1.326 . S
N736 C740 1.362 . S
C737 C738 1.258 . S
C737 C740 1.431 . S
C737 C757 1.449 . S
C738 C737 1.258 . S
C738 C739 1.477 . S
C738 H758 0.931 . S
C739 C735 1.460 . S
C739 C738 1.477 . S
C739 H759 0.930 . S
C740 N736 1.362 . S
C740 C737 1.431 . S
C740 C750 1.476 . S
H741 C735 0.929 . S
C742 O733 1.250 . S
C742 O734 1.258 . S
O743 Mn728 2.162 . S
O743 C731 1.281 . S
O744 Mn728 2.297 . S
O744 C731 1.236 . S
N745 Mn729 2.282 . S
N745 C746 1.328 . S
N745 C750 1.318 . S
C746 N745 1.328 . S
C746 C747 1.457 . S
C746 H751 0.929 . S
C747 C746 1.457 . S
C747 C748 1.291 . S
C747 H760 0.931 . S
C748 C747 1.291 . S
C748 C749 1.373 . S
C748 H761 0.929 . S
C749 C748 1.373 . S
C749 C750 1.396 . S
C749 C756 1.403 . S
C750 C740 1.476 . S
C750 N745 1.318 . S
C750 C749 1.396 . S
H751 C746 0.929 . S
O752 Mn728 2.385 . S
O752 C730 1.234 . S
O753 Mn728 2.209 . S
O753 Mn729 2.215 . S
O753 C730 1.283 . S
O754 Mn728 2.094 . S
O754 C732 1.240 . S
O755 Mn729 2.117 . S
O755 C732 1.264 . S
C756 C749 1.403 . S
C756 C757 1.399 . S
C756 H762 0.929 . S
C757 C737 1.449 . S
C757 C756 1.399 . S
C757 H763 0.930 . S
H758 C738 0.931 . S
H759 C739 0.930 . S
H760 C747 0.931 . S
H761 C748 0.929 . S
H762 C756 0.929 . S
H763 C757 0.930 . S
Mn764 O769 2.095 . S
Mn764 O779 2.162 . S
Mn764 O780 2.297 . S
Mn764 O788 2.385 1_565 S
Mn764 O789 2.209 1_565 S
Mn764 O790 2.094 . S
Mn765 O770 2.121 . S
Mn765 N772 2.257 . S
Mn765 N781 2.282 . S
Mn765 O789 2.215 . S
Mn765 O791 2.117 . S
C766 O788 1.234 . S
C766 O789 1.283 . S
C767 O779 1.281 . S
C767 O780 1.236 . S
C768 O790 1.206 1_545 S
C768 O791 1.309 . S
O769 Mn764 2.095 . S
O769 C778 1.250 1_565 S
O770 Mn765 2.121 . S
O770 C778 1.258 . S
C771 N772 1.326 . S
C771 C775 1.460 . S
C771 H777 0.929 . S
N772 Mn765 2.257 . S
N772 C771 1.326 . S
N772 C776 1.362 . S
C773 C774 1.258 . S
C773 C776 1.431 . S
C773 C793 1.449 . S
C774 C773 1.258 . S
C774 C775 1.477 . S
C774 H794 0.931 . S
C775 C771 1.460 . S
C775 C774 1.477 . S
C775 H795 0.930 . S
C776 N772 1.362 . S
C776 C773 1.431 . S
C776 C786 1.476 . S
H777 C771 0.929 . S
C778 O769 1.250 1_545 S
C778 O770 1.258 . S
O779 Mn764 2.162 . S
O779 C767 1.281 . S
O780 Mn764 2.297 . S
O780 C767 1.236 . S
N781 Mn765 2.282 . S
N781 C782 1.328 . S
N781 C786 1.318 . S
C782 N781 1.328 . S
C782 C783 1.457 . S
C782 H787 0.929 . S
C783 C782 1.457 . S
C783 C784 1.291 . S
C783 H796 0.931 . S
C784 C783 1.291 . S
C784 C785 1.373 . S
C784 H797 0.929 . S
C785 C784 1.373 . S
C785 C786 1.396 . S
C785 C792 1.403 . S
C786 C776 1.476 . S
C786 N781 1.318 . S
C786 C785 1.396 . S
H787 C782 0.929 . S
O788 Mn764 2.385 1_545 S
O788 C766 1.234 . S
O789 Mn764 2.209 1_545 S
O789 Mn765 2.215 . S
O789 C766 1.283 . S
O790 Mn764 2.094 . S
O790 C768 1.206 1_565 S
O791 Mn765 2.117 . S
O791 C768 1.309 . S
C792 C785 1.403 . S
C792 C793 1.399 . S
C792 H798 0.929 . S
C793 C773 1.449 . S
C793 C792 1.399 . S
C793 H799 0.930 . S
H794 C774 0.931 . S
H795 C775 0.930 . S
H796 C783 0.931 . S
H797 C784 0.929 . S
H798 C792 0.929 . S
H799 C793 0.930 . S
Mn800 O805 2.095 . S
Mn800 O815 2.162 . S
Mn800 O816 2.297 . S
Mn800 O824 2.393 . S
Mn800 O825 2.209 1_455 S
Mn800 O826 2.094 . S
Mn801 O806 2.121 . S
Mn801 N808 2.257 . S
Mn801 N817 2.282 . S
Mn801 O825 2.215 . S
Mn801 O827 2.117 . S
C802 O824 1.218 1_655 S
C802 O825 1.283 . S
C803 O815 1.281 . S
C803 O816 1.236 . S
C804 O826 1.240 . S
C804 O827 1.264 1_455 S
O805 Mn800 2.095 . S
O805 C814 1.250 . S
O806 Mn801 2.121 . S
O806 C814 1.258 1_655 S
C807 N808 1.326 . S
C807 C811 1.460 . S
C807 H813 0.929 . S
N808 Mn801 2.257 . S
N808 C807 1.326 . S
N808 C812 1.362 . S
C809 C810 1.258 . S
C809 C812 1.431 . S
C809 C829 1.449 . S
C810 C809 1.258 . S
C810 C811 1.477 . S
C810 H830 0.931 . S
C811 C807 1.460 . S
C811 C810 1.477 . S
C811 H831 0.930 . S
C812 N808 1.362 . S
C812 C809 1.431 . S
C812 C822 1.476 . S
H813 C807 0.929 . S
C814 O805 1.250 . S
C814 O806 1.258 1_455 S
O815 Mn800 2.162 . S
O815 C803 1.281 . S
O816 Mn800 2.297 . S
O816 C803 1.236 . S
N817 Mn801 2.282 . S
N817 C818 1.328 . S
N817 C822 1.318 . S
C818 N817 1.328 . S
C818 C819 1.457 . S
C818 H823 0.929 . S
C819 C818 1.457 . S
C819 C820 1.291 . S
C819 H832 0.931 . S
C820 C819 1.291 . S
C820 C821 1.373 . S
C820 H833 0.929 . S
C821 C820 1.373 . S
C821 C822 1.396 . S
C821 C828 1.403 . S
C822 C812 1.476 . S
C822 N817 1.318 . S
C822 C821 1.396 . S
H823 C818 0.929 . S
O824 Mn800 2.393 . S
O824 C802 1.218 1_455 S
O825 Mn800 2.209 1_655 S
O825 Mn801 2.215 . S
O825 C802 1.283 . S
O826 Mn800 2.094 . S
O826 C804 1.240 . S
O827 Mn801 2.117 . S
O827 C804 1.264 1_655 S
C828 C821 1.403 . S
C828 C829 1.399 . S
C828 H834 0.929 . S
C829 C809 1.449 . S
C829 C828 1.399 . S
C829 H835 0.930 . S
H830 C810 0.931 . S
H831 C811 0.930 . S
H832 C819 0.931 . S
H833 C820 0.929 . S
H834 C828 0.929 . S
H835 C829 0.930 . S
Mn836 O841 2.095 . S
Mn836 O851 2.162 . S
Mn836 O852 2.297 . S
Mn836 O860 2.385 . S
Mn836 O861 2.209 . S
Mn836 O862 2.094 . S
Mn837 O842 2.121 . S
Mn837 N844 2.257 . S
Mn837 N853 2.282 . S
Mn837 O861 2.215 . S
Mn837 O863 2.117 . S
C838 O860 1.234 . S
C838 O861 1.283 . S
C839 O851 1.281 . S
C839 O852 1.236 . S
C840 O862 1.240 . S
C840 O863 1.264 . S
O841 Mn836 2.095 . S
O841 C850 1.250 . S
O842 Mn837 2.121 . S
O842 C850 1.258 . S
C843 N844 1.326 . S
C843 C847 1.460 . S
C843 H849 0.929 . S
N844 Mn837 2.257 . S
N844 C843 1.326 . S
N844 C848 1.362 . S
C845 C846 1.258 . S
C845 C848 1.431 . S
C845 C865 1.449 . S
C846 C845 1.258 . S
C846 C847 1.477 . S
C846 H866 0.931 . S
C847 C843 1.460 . S
C847 C846 1.477 . S
C847 H867 0.930 . S
C848 N844 1.362 . S
C848 C845 1.431 . S
C848 C858 1.476 . S
H849 C843 0.929 . S
C850 O841 1.250 . S
C850 O842 1.258 . S
O851 Mn836 2.162 . S
O851 C839 1.281 . S
O852 Mn836 2.297 . S
O852 C839 1.236 . S
N853 Mn837 2.282 . S
N853 C854 1.328 . S
N853 C858 1.318 . S
C854 N853 1.328 . S
C854 C855 1.457 . S
C854 H859 0.929 . S
C855 C854 1.457 . S
C855 C856 1.291 . S
C855 H868 0.931 . S
C856 C855 1.291 . S
C856 C857 1.373 . S
C856 H869 0.929 . S
C857 C856 1.373 . S
C857 C858 1.396 . S
C857 C864 1.403 . S
C858 C848 1.476 . S
C858 N853 1.318 . S
C858 C857 1.396 . S
H859 C854 0.929 . S
O860 Mn836 2.385 . S
O860 C838 1.234 . S
O861 Mn836 2.209 . S
O861 Mn837 2.215 . S
O861 C838 1.283 . S
O862 Mn836 2.094 . S
O862 C840 1.240 . S
O863 Mn837 2.117 . S
O863 C840 1.264 . S
C864 C857 1.403 . S
C864 C865 1.399 . S
C864 H870 0.929 . S
C865 C845 1.449 . S
C865 C864 1.399 . S
C865 H871 0.930 . S
H866 C846 0.931 . S
H867 C847 0.930 . S
H868 C855 0.931 . S
H869 C856 0.929 . S
H870 C864 0.929 . S
H871 C865 0.930 . S
Mn872 O877 2.095 1_455 S
Mn872 O887 2.162 . S
Mn872 O888 2.297 1_455 S
Mn872 O896 2.385 . S
Mn872 O897 2.209 1_455 S
Mn872 O898 2.094 . S
Mn873 O878 2.121 . S
Mn873 N880 2.257 . S
Mn873 N889 2.282 1_655 S
Mn873 O897 2.215 . S
Mn873 O899 2.117 1_655 S
C874 O896 1.234 . S
C874 O897 1.283 1_455 S
C875 O887 1.281 . S
C875 O888 1.236 1_455 S
C876 O898 1.240 . S
C876 O899 1.264 . S
O877 Mn872 2.095 1_655 S
O877 C886 1.250 . S
O878 Mn873 2.121 . S
O878 C886 1.258 . S
C879 N880 1.326 . S
C879 C883 1.460 . S
C879 H885 0.929 . S
N880 Mn873 2.257 . S
N880 C879 1.326 . S
N880 C884 1.362 . S
C881 C882 1.258 . S
C881 C884 1.431 . S
C881 C901 1.449 . S
C882 C881 1.258 . S
C882 C883 1.477 . S
C882 H902 0.931 . S
C883 C879 1.460 . S
C883 C882 1.477 . S
C883 H903 0.930 . S
C884 N880 1.362 . S
C884 C881 1.431 . S
C884 C894 1.476 . S
H885 C879 0.929 . S
C886 O877 1.250 . S
C886 O878 1.258 . S
O887 Mn872 2.162 . S
O887 C875 1.281 . S
O888 Mn872 2.297 1_655 S
O888 C875 1.236 1_655 S
N889 Mn873 2.282 1_455 S
N889 C890 1.328 . S
N889 C894 1.318 1_455 S
C890 N889 1.328 . S
C890 C891 1.457 . S
C890 H895 0.929 . S
C891 C890 1.457 . S
C891 C892 1.291 . S
C891 H904 0.931 . S
C892 C891 1.291 . S
C892 C893 1.373 1_455 S
C892 H905 0.929 . S
C893 C892 1.373 1_655 S
C893 C894 1.396 . S
C893 C900 1.403 . S
C894 C884 1.476 . S
C894 N889 1.318 1_655 S
C894 C893 1.396 . S
H895 C890 0.929 . S
O896 Mn872 2.385 . S
O896 C874 1.234 . S
O897 Mn872 2.209 1_655 S
O897 Mn873 2.215 . S
O897 C874 1.283 1_655 S
O898 Mn872 2.094 . S
O898 C876 1.240 . S
O899 Mn873 2.117 1_455 S
O899 C876 1.264 . S
C900 C893 1.403 . S
C900 C901 1.399 . S
C900 H906 0.929 . S
C901 C881 1.449 . S
C901 C900 1.399 . S
C901 H907 0.930 . S
H902 C882 0.931 . S
H903 C883 0.930 . S
H904 C891 0.931 . S
H905 C892 0.929 . S
H906 C900 0.929 . S
H907 C901 0.930 . S
Mn908 O913 2.095 . S
Mn908 O923 2.162 . S
Mn908 O924 2.297 . S
Mn908 O932 2.385 . S
Mn908 O933 2.209 . S
Mn908 O934 2.094 . S
Mn909 O914 2.121 . S
Mn909 N916 2.257 . S
Mn909 N925 2.282 . S
Mn909 O933 2.215 . S
Mn909 O935 2.117 . S
C910 O932 1.234 . S
C910 O933 1.283 . S
C911 O923 1.281 . S
C911 O924 1.236 . S
C912 O934 1.240 . S
C912 O935 1.264 . S
O913 Mn908 2.095 . S
O913 C922 1.250 . S
O914 Mn909 2.121 . S
O914 C922 1.258 . S
C915 N916 1.326 . S
C915 C919 1.460 . S
C915 H921 0.929 . S
N916 Mn909 2.257 . S
N916 C915 1.326 . S
N916 C920 1.362 . S
C917 C918 1.258 . S
C917 C920 1.431 . S
C917 C937 1.449 . S
C918 C917 1.258 . S
C918 C919 1.477 . S
C918 H938 0.931 . S
C919 C915 1.460 . S
C919 C918 1.477 . S
C919 H939 0.930 . S
C920 N916 1.362 . S
C920 C917 1.431 . S
C920 C930 1.476 . S
H921 C915 0.929 . S
C922 O913 1.250 . S
C922 O914 1.258 . S
O923 Mn908 2.162 . S
O923 C911 1.281 . S
O924 Mn908 2.297 . S
O924 C911 1.236 . S
N925 Mn909 2.282 . S
N925 C926 1.328 . S
N925 C930 1.318 . S
C926 N925 1.328 . S
C926 C927 1.457 . S
C926 H931 0.929 . S
C927 C926 1.457 . S
C927 C928 1.291 . S
C927 H940 0.931 . S
C928 C927 1.291 . S
C928 C929 1.373 . S
C928 H941 0.929 . S
C929 C928 1.373 . S
C929 C930 1.396 . S
C929 C936 1.403 . S
C930 C920 1.476 . S
C930 N925 1.318 . S
C930 C929 1.396 . S
H931 C926 0.929 . S
O932 Mn908 2.385 . S
O932 C910 1.234 . S
O933 Mn908 2.209 . S
O933 Mn909 2.215 . S
O933 C910 1.283 . S
O934 Mn908 2.094 . S
O934 C912 1.240 . S
O935 Mn909 2.117 . S
O935 C912 1.264 . S
C936 C929 1.403 . S
C936 C937 1.399 . S
C936 H942 0.929 . S
C937 C917 1.449 . S
C937 C936 1.399 . S
C937 H943 0.930 . S
H938 C918 0.931 . S
H939 C919 0.930 . S
H940 C927 0.931 . S
H941 C928 0.929 . S
H942 C936 0.929 . S
H943 C937 0.930 . S
C944 C945 1.349 . S
C944 C946 1.327 . S
C944 H969 0.950 . S
C945 C944 1.349 . S
C945 C961 1.349 . S
C946 C944 1.327 . S
C946 C965 1.429 . S
C946 H970 0.950 . S
C947 C964 1.574 . S
C947 C966 1.368 . S
C947 H971 0.949 . S
H948 C952 0.949 . S
C949 C950 1.349 . S
C949 C951 1.327 . S
C949 H972 0.950 . S
C950 C949 1.349 . S
C950 C962 1.349 . S
C951 C949 1.327 . S
C951 C967 1.429 . S
C951 H973 0.950 . S
C952 H948 0.949 . S
C952 C960 1.574 . S
C952 C968 1.368 . S
H953 C961 0.950 . S
H954 C959 0.950 . S
H955 C960 0.949 . S
H956 C962 0.950 . S
H957 C963 0.950 . S
H958 C964 0.949 . S
C959 H954 0.950 . S
C959 C961 1.327 . S
C959 C965 1.429 . S
C960 C952 1.574 . S
C960 H955 0.949 . S
C960 C966 1.368 . S
C961 C945 1.349 . S
C961 H953 0.950 . S
C961 C959 1.327 . S
C962 C950 1.349 . S
C962 H956 0.950 . S
C962 C963 1.327 . S
C963 H957 0.950 . S
C963 C962 1.327 . S
C963 C967 1.429 . S
C964 C947 1.574 . S
C964 H958 0.949 . S
C964 C968 1.368 . S
C965 C946 1.429 . S
C965 C959 1.429 . S
C965 C966 1.523 . S
C966 C947 1.368 . S
C966 C960 1.368 . S
C966 C965 1.523 . S
C967 C951 1.429 . S
C967 C963 1.429 . S
C967 C968 1.523 . S
C968 C952 1.368 . S
C968 C964 1.368 . S
C968 C967 1.523 . S
H969 C944 0.950 . S
H970 C946 0.950 . S
H971 C947 0.949 . S
H972 C949 0.950 . S
H973 C951 0.950 . S
C974 C975 1.349 . S
C974 C976 1.327 . S
C974 H999 0.950 . S
C975 C974 1.349 . S
C975 C991 1.349 . S
C976 C974 1.327 . S
C976 C995 1.429 . S
C976 H1000 0.950 . S
C977 C994 1.574 . S
C977 C996 1.368 . S
C977 H1001 0.949 . S
H978 C982 0.949 . S
C979 C980 1.349 . S
C979 C981 1.327 . S
C979 H1002 0.950 . S
C980 C979 1.349 . S
C980 C992 1.349 . S
C981 C979 1.327 . S
C981 C997 1.429 . S
C981 H1003 0.950 . S
C982 H978 0.949 . S
C982 C990 1.574 . S
C982 C998 1.368 . S
H983 C991 0.950 . S
H984 C989 0.950 . S
H985 C990 0.949 . S
H986 C992 0.950 . S
H987 C993 0.950 . S
H988 C994 0.949 . S
C989 H984 0.950 . S
C989 C991 1.327 . S
C989 C995 1.429 . S
C990 C982 1.574 . S
C990 H985 0.949 . S
C990 C996 1.368 . S
C991 C975 1.349 . S
C991 H983 0.950 . S
C991 C989 1.327 . S
C992 C980 1.349 . S
C992 H986 0.950 . S
C992 C993 1.327 . S
C993 H987 0.950 . S
C993 C992 1.327 . S
C993 C997 1.429 . S
C994 C977 1.574 . S
C994 H988 0.949 . S
C994 C998 1.368 . S
C995 C976 1.429 . S
C995 C989 1.429 . S
C995 C996 1.523 . S
C996 C977 1.368 . S
C996 C990 1.368 . S
C996 C995 1.523 . S
C997 C981 1.429 . S
C997 C993 1.429 . S
C997 C998 1.523 . S
C998 C982 1.368 . S
C998 C994 1.368 . S
C998 C997 1.523 . S
H999 C974 0.950 . S
H1000 C976 0.950 . S
H1001 C977 0.949 . S
H1002 C979 0.950 . S
H1003 C981 0.950 . S
C1004 C1005 1.349 . S
C1004 C1006 1.327 . S
C1004 H1029 0.950 . S
C1005 C1004 1.349 . S
C1005 C1021 1.349 . S
C1006 C1004 1.327 . S
C1006 C1025 1.429 . S
C1006 H1030 0.950 . S
C1007 C1024 1.574 . S
C1007 C1026 1.368 . S
C1007 H1031 0.949 . S
H1008 C1012 0.949 . S
C1009 C1010 1.349 . S
C1009 C1011 1.327 . S
C1009 H1032 0.950 . S
C1010 C1009 1.349 . S
C1010 C1022 1.349 . S
C1011 C1009 1.327 . S
C1011 C1027 1.429 . S
C1011 H1033 0.950 . S
C1012 H1008 0.949 . S
C1012 C1020 1.574 . S
C1012 C1028 1.368 . S
H1013 C1021 0.950 . S
H1014 C1019 0.950 . S
H1015 C1020 0.949 . S
H1016 C1022 0.950 . S
H1017 C1023 0.950 . S
H1018 C1024 0.949 . S
C1019 H1014 0.950 . S
C1019 C1021 1.327 . S
C1019 C1025 1.429 . S
C1020 C1012 1.574 . S
C1020 H1015 0.949 . S
C1020 C1026 1.368 . S
C1021 C1005 1.349 . S
C1021 H1013 0.950 . S
C1021 C1019 1.327 . S
C1022 C1010 1.349 . S
C1022 H1016 0.950 . S
C1022 C1023 1.327 . S
C1023 H1017 0.950 . S
C1023 C1022 1.327 . S
C1023 C1027 1.429 . S
C1024 C1007 1.574 . S
C1024 H1018 0.949 . S
C1024 C1028 1.368 . S
C1025 C1006 1.429 . S
C1025 C1019 1.429 . S
C1025 C1026 1.523 . S
C1026 C1007 1.368 . S
C1026 C1020 1.368 . S
C1026 C1025 1.523 . S
C1027 C1011 1.429 . S
C1027 C1023 1.429 . S
C1027 C1028 1.523 . S
C1028 C1012 1.368 . S
C1028 C1024 1.368 . S
C1028 C1027 1.523 . S
H1029 C1004 0.950 . S
H1030 C1006 0.950 . S
H1031 C1007 0.949 . S
H1032 C1009 0.950 . S
H1033 C1011 0.950 . S
C1034 C1035 1.349 . S
C1034 C1036 1.327 . S
C1034 H1059 0.950 . S
C1035 C1034 1.349 . S
C1035 C1051 1.349 . S
C1036 C1034 1.327 . S
C1036 C1055 1.429 . S
C1036 H1060 0.950 . S
C1037 C1054 1.574 1_565 S
C1037 C1056 1.368 . S
C1037 H1061 0.949 1_565 S
H1038 C1042 0.949 . S
C1039 C1040 1.349 . S
C1039 C1041 1.327 . S
C1039 H1062 0.950 . S
C1040 C1039 1.349 . S
C1040 C1052 1.349 1_545 S
C1041 C1039 1.327 . S
C1041 C1057 1.429 1_545 S
C1041 H1063 0.950 . S
C1042 H1038 0.949 . S
C1042 C1050 1.574 . S
C1042 C1058 1.368 . S
H1043 C1051 0.950 1_455 S
H1044 C1049 0.950 . S
H1045 C1050 0.949 . S
H1046 C1052 0.950 . S
H1047 C1053 0.950 . S
H1048 C1054 0.949 . S
C1049 H1044 0.950 . S
C1049 C1051 1.327 . S
C1049 C1055 1.429 . S
C1050 C1042 1.574 . S
C1050 H1045 0.949 . S
C1050 C1056 1.368 . S
C1051 C1035 1.349 . S
C1051 H1043 0.950 1_655 S
C1051 C1049 1.327 . S
C1052 C1040 1.349 1_565 S
C1052 H1046 0.950 . S
C1052 C1053 1.327 . S
C1053 H1047 0.950 . S
C1053 C1052 1.327 . S
C1053 C1057 1.429 . S
C1054 C1037 1.574 1_545 S
C1054 H1048 0.949 . S
C1054 C1058 1.368 1_545 S
C1055 C1036 1.429 . S
C1055 C1049 1.429 . S
C1055 C1056 1.523 . S
C1056 C1037 1.368 . S
C1056 C1050 1.368 . S
C1056 C1055 1.523 . S
C1057 C1041 1.429 1_565 S
C1057 C1053 1.429 . S
C1057 C1058 1.523 . S
C1058 C1042 1.368 . S
C1058 C1054 1.368 1_565 S
C1058 C1057 1.523 . S
H1059 C1034 0.950 . S
H1060 C1036 0.950 . S
H1061 C1037 0.949 1_545 S
H1062 C1039 0.950 . S
H1063 C1041 0.950 . S
C1064 C1065 1.349 . S
C1064 C1066 1.327 . S
C1064 H1089 0.950 . S
C1065 C1064 1.349 . S
C1065 C1081 1.349 . S
C1066 C1064 1.327 . S
C1066 C1085 1.429 . S
C1066 H1090 0.950 . S
C1067 C1084 1.574 . S
C1067 C1086 1.368 . S
C1067 H1091 0.949 . S
H1068 C1072 0.949 . S
C1069 C1070 1.349 . S
C1069 C1071 1.327 . S
C1069 H1092 0.950 . S
C1070 C1069 1.349 . S
C1070 C1082 1.349 . S
C1071 C1069 1.327 . S
C1071 C1087 1.429 . S
C1071 H1093 0.950 . S
C1072 H1068 0.949 . S
C1072 C1080 1.574 . S
C1072 C1088 1.368 . S
H1073 C1081 0.950 . S
H1074 C1079 0.950 . S
H1075 C1080 0.949 . S
H1076 C1082 0.950 . S
H1077 C1083 0.950 . S
H1078 C1084 0.949 . S
C1079 H1074 0.950 . S
C1079 C1081 1.327 . S
C1079 C1085 1.429 . S
C1080 C1072 1.574 . S
C1080 H1075 0.949 . S
C1080 C1086 1.368 . S
C1081 C1065 1.349 . S
C1081 H1073 0.950 . S
C1081 C1079 1.327 . S
C1082 C1070 1.349 . S
C1082 H1076 0.950 . S
C1082 C1083 1.327 . S
C1083 H1077 0.950 . S
C1083 C1082 1.327 . S
C1083 C1087 1.429 . S
C1084 C1067 1.574 . S
C1084 H1078 0.949 . S
C1084 C1088 1.368 . S
C1085 C1066 1.429 . S
C1085 C1079 1.429 . S
C1085 C1086 1.523 . S
C1086 C1067 1.368 . S
C1086 C1080 1.368 . S
C1086 C1085 1.523 . S
C1087 C1071 1.429 . S
C1087 C1083 1.429 . S
C1087 C1088 1.523 . S
C1088 C1072 1.368 . S
C1088 C1084 1.368 . S
C1088 C1087 1.523 . S
H1089 C1064 0.950 . S
H1090 C1066 0.950 . S
H1091 C1067 0.949 . S
H1092 C1069 0.950 . S
H1093 C1071 0.950 . S
C1094 C1095 1.349 . S
C1094 C1096 1.327 . S
C1094 H1119 0.950 . S
C1095 C1094 1.349 . S
C1095 C1111 1.349 . S
C1096 C1094 1.327 . S
C1096 C1115 1.429 . S
C1096 H1120 0.950 . S
C1097 C1114 1.574 . S
C1097 C1116 1.368 . S
C1097 H1121 0.949 . S
H1098 C1102 0.949 . S
C1099 C1100 1.349 . S
C1099 C1101 1.327 . S
C1099 H1122 0.950 . S
C1100 C1099 1.349 . S
C1100 C1112 1.349 . S
C1101 C1099 1.327 . S
C1101 C1117 1.429 . S
C1101 H1123 0.950 . S
C1102 H1098 0.949 . S
C1102 C1110 1.574 . S
C1102 C1118 1.368 . S
H1103 C1111 0.950 . S
H1104 C1109 0.950 . S
H1105 C1110 0.949 . S
H1106 C1112 0.950 . S
H1107 C1113 0.950 . S
H1108 C1114 0.949 . S
C1109 H1104 0.950 . S
C1109 C1111 1.327 . S
C1109 C1115 1.429 . S
C1110 C1102 1.574 . S
C1110 H1105 0.949 . S
C1110 C1116 1.368 . S
C1111 C1095 1.349 . S
C1111 H1103 0.950 . S
C1111 C1109 1.327 . S
C1112 C1100 1.349 . S
C1112 H1106 0.950 . S
C1112 C1113 1.327 . S
C1113 H1107 0.950 . S
C1113 C1112 1.327 . S
C1113 C1117 1.429 . S
C1114 C1097 1.574 . S
C1114 H1108 0.949 . S
C1114 C1118 1.368 . S
C1115 C1096 1.429 . S
C1115 C1109 1.429 . S
C1115 C1116 1.523 . S
C1116 C1097 1.368 . S
C1116 C1110 1.368 . S
C1116 C1115 1.523 . S
C1117 C1101 1.429 . S
C1117 C1113 1.429 . S
C1117 C1118 1.523 . S
C1118 C1102 1.368 . S
C1118 C1114 1.368 . S
C1118 C1117 1.523 . S
H1119 C1094 0.950 . S
H1120 C1096 0.950 . S
H1121 C1097 0.949 . S
H1122 C1099 0.950 . S
H1123 C1101 0.950 . S
C1124 C1125 1.349 . S
C1124 C1126 1.327 . S
C1124 H1149 0.950 . S
C1125 C1124 1.349 . S
C1125 C1141 1.349 . S
C1126 C1124 1.327 . S
C1126 C1145 1.429 . S
C1126 H1150 0.950 . S
C1127 C1144 1.574 . S
C1127 C1146 1.368 . S
C1127 H1151 0.949 . S
H1128 C1132 0.949 . S
C1129 C1130 1.349 . S
C1129 C1131 1.327 . S
C1129 H1152 0.950 . S
C1130 C1129 1.349 . S
C1130 C1142 1.349 . S
C1131 C1129 1.327 . S
C1131 C1147 1.429 . S
C1131 H1153 0.950 . S
C1132 H1128 0.949 . S
C1132 C1140 1.574 . S
C1132 C1148 1.368 . S
H1133 C1141 0.950 . S
H1134 C1139 0.950 . S
H1135 C1140 0.949 . S
H1136 C1142 0.950 . S
H1137 C1143 0.950 . S
H1138 C1144 0.949 . S
C1139 H1134 0.950 . S
C1139 C1141 1.327 . S
C1139 C1145 1.429 . S
C1140 C1132 1.574 . S
C1140 H1135 0.949 . S
C1140 C1146 1.368 . S
C1141 C1125 1.349 . S
C1141 H1133 0.950 . S
C1141 C1139 1.327 . S
C1142 C1130 1.349 . S
C1142 H1136 0.950 . S
C1142 C1143 1.327 . S
C1143 H1137 0.950 . S
C1143 C1142 1.327 . S
C1143 C1147 1.429 . S
C1144 C1127 1.574 . S
C1144 H1138 0.949 . S
C1144 C1148 1.368 . S
C1145 C1126 1.429 . S
C1145 C1139 1.429 . S
C1145 C1146 1.523 . S
C1146 C1127 1.368 . S
C1146 C1140 1.368 . S
C1146 C1145 1.523 . S
C1147 C1131 1.429 . S
C1147 C1143 1.429 . S
C1147 C1148 1.523 . S
C1148 C1132 1.368 . S
C1148 C1144 1.368 . S
C1148 C1147 1.523 . S
H1149 C1124 0.950 . S
H1150 C1126 0.950 . S
H1151 C1127 0.949 . S
H1152 C1129 0.950 . S
H1153 C1131 0.950 . S
C1154 C1155 1.349 . S
C1154 C1156 1.327 . S
C1154 H1179 0.950 1_565 S
C1155 C1154 1.349 . S
C1155 C1171 1.349 . S
C1156 C1154 1.327 . S
C1156 C1175 1.429 . S
C1156 H1180 0.950 1_565 S
C1157 C1174 1.574 . S
C1157 C1176 1.368 . S
C1157 H1181 0.949 . S
H1158 C1162 0.949 . S
C1159 C1160 1.349 . S
C1159 C1161 1.327 . S
C1159 H1182 0.950 . S
C1160 C1159 1.349 . S
C1160 C1172 1.349 1_565 S
C1161 C1159 1.327 . S
C1161 C1177 1.429 . S
C1161 H1183 0.950 . S
C1162 H1158 0.949 . S
C1162 C1170 1.578 . S
C1162 C1178 1.368 1_545 S
H1163 C1171 0.950 . S
H1164 C1169 0.950 . S
H1165 C1170 0.977 . S
H1166 C1172 0.950 . S
H1167 C1173 0.950 . S
H1168 C1174 0.949 . S
C1169 H1164 0.950 . S
C1169 C1171 1.327 . S
C1169 C1175 1.429 . S
C1170 C1162 1.578 . S
C1170 H1165 0.977 . S
C1170 C1176 1.335 1_545 S
C1171 C1155 1.349 . S
C1171 H1163 0.950 . S
C1171 C1169 1.327 . S
C1172 C1160 1.349 1_545 S
C1172 H1166 0.950 . S
C1172 C1173 1.327 . S
C1173 H1167 0.950 . S
C1173 C1172 1.327 . S
C1173 C1177 1.429 1_545 S
C1174 C1157 1.574 . S
C1174 H1168 0.949 . S
C1174 C1178 1.368 . S
C1175 C1156 1.429 . S
C1175 C1169 1.429 . S
C1175 C1176 1.523 . S
C1176 C1157 1.368 . S
C1176 C1170 1.335 1_565 S
C1176 C1175 1.523 . S
C1177 C1161 1.429 . S
C1177 C1173 1.429 1_565 S
C1177 C1178 1.523 . S
C1178 C1162 1.368 1_565 S
C1178 C1174 1.368 . S
C1178 C1177 1.523 . S
H1179 C1154 0.950 1_545 S
H1180 C1156 0.950 1_545 S
H1181 C1157 0.949 . S
H1182 C1159 0.950 . S
H1183 C1161 0.950 . S
C1184 C1185 1.349 . S
C1184 C1186 1.327 . S
C1184 H1209 0.950 . S
C1185 C1184 1.349 . S
C1185 C1201 1.349 . S
C1186 C1184 1.327 . S
C1186 C1205 1.429 . S
C1186 H1210 0.950 . S
C1187 C1204 1.574 . S
C1187 C1206 1.368 . S
C1187 H1211 0.949 . S
H1188 C1192 0.949 . S
C1189 C1190 1.349 . S
C1189 C1191 1.327 . S
C1189 H1212 0.950 . S
C1190 C1189 1.349 . S
C1190 C1202 1.349 . S
C1191 C1189 1.327 . S
C1191 C1207 1.429 . S
C1191 H1213 0.950 . S
C1192 H1188 0.949 . S
C1192 C1200 1.574 . S
C1192 C1208 1.368 . S
H1193 C1201 0.950 . S
H1194 C1199 0.950 . S
H1195 C1200 0.949 . S
H1196 C1202 0.950 . S
H1197 C1203 0.950 . S
H1198 C1204 0.949 . S
C1199 H1194 0.950 . S
C1199 C1201 1.327 . S
C1199 C1205 1.429 . S
C1200 C1192 1.574 . S
C1200 H1195 0.949 . S
C1200 C1206 1.368 . S
C1201 C1185 1.349 . S
C1201 H1193 0.950 . S
C1201 C1199 1.327 . S
C1202 C1190 1.349 . S
C1202 H1196 0.950 . S
C1202 C1203 1.327 . S
C1203 H1197 0.950 . S
C1203 C1202 1.327 . S
C1203 C1207 1.429 . S
C1204 C1187 1.574 . S
C1204 H1198 0.949 . S
C1204 C1208 1.368 . S
C1205 C1186 1.429 . S
C1205 C1199 1.429 . S
C1205 C1206 1.523 . S
C1206 C1187 1.368 . S
C1206 C1200 1.368 . S
C1206 C1205 1.523 . S
C1207 C1191 1.429 . S
C1207 C1203 1.429 . S
C1207 C1208 1.523 . S
C1208 C1192 1.368 . S
C1208 C1204 1.368 . S
C1208 C1207 1.523 . S
H1209 C1184 0.950 . S
H1210 C1186 0.950 . S
H1211 C1187 0.949 . S
H1212 C1189 0.950 . S
H1213 C1191 0.950 . S
C1214 C1215 1.349 . S
C1214 C1216 1.327 . S
C1214 H1239 0.950 . S
C1215 C1214 1.349 . S
C1215 C1231 1.349 . S
C1216 C1214 1.327 . S
C1216 C1235 1.429 . S
C1216 H1240 0.950 . S
C1217 C1234 1.574 . S
C1217 C1236 1.368 . S
C1217 H1241 0.949 . S
H1218 C1222 0.949 . S
C1219 C1220 1.349 . S
C1219 C1221 1.327 . S
C1219 H1242 0.950 . S
C1220 C1219 1.349 . S
C1220 C1232 1.349 . S
C1221 C1219 1.327 . S
C1221 C1237 1.429 . S
C1221 H1243 0.950 . S
C1222 H1218 0.949 . S
C1222 C1230 1.574 . S
C1222 C1238 1.368 . S
H1223 C1231 0.950 . S
H1224 C1229 0.950 . S
H1225 C1230 0.949 . S
H1226 C1232 0.950 . S
H1227 C1233 0.950 . S
H1228 C1234 0.949 . S
C1229 H1224 0.950 . S
C1229 C1231 1.327 . S
C1229 C1235 1.429 . S
C1230 C1222 1.574 . S
C1230 H1225 0.949 . S
C1230 C1236 1.368 . S
C1231 C1215 1.349 . S
C1231 H1223 0.950 . S
C1231 C1229 1.327 . S
C1232 C1220 1.349 . S
C1232 H1226 0.950 . S
C1232 C1233 1.327 . S
C1233 H1227 0.950 . S
C1233 C1232 1.327 . S
C1233 C1237 1.429 . S
C1234 C1217 1.574 . S
C1234 H1228 0.949 . S
C1234 C1238 1.368 . S
C1235 C1216 1.429 . S
C1235 C1229 1.429 . S
C1235 C1236 1.523 . S
C1236 C1217 1.368 . S
C1236 C1230 1.368 . S
C1236 C1235 1.523 . S
C1237 C1221 1.429 . S
C1237 C1233 1.429 . S
C1237 C1238 1.523 . S
C1238 C1222 1.368 . S
C1238 C1234 1.368 . S
C1238 C1237 1.523 . S
H1239 C1214 0.950 . S
H1240 C1216 0.950 . S
H1241 C1217 0.949 . S
H1242 C1219 0.950 . S
H1243 C1221 0.950 . S
C1244 C1245 1.349 . S
C1244 C1246 1.327 . S
C1244 H1269 0.950 . S
C1245 C1244 1.349 . S
C1245 C1261 1.349 . S
C1246 C1244 1.327 . S
C1246 C1265 1.429 . S
C1246 H1270 0.950 . S
C1247 C1264 1.574 . S
C1247 C1266 1.368 . S
C1247 H1271 0.949 . S
H1248 C1252 0.949 . S
C1249 C1250 1.349 . S
C1249 C1251 1.327 . S
C1249 H1272 0.950 . S
C1250 C1249 1.349 . S
C1250 C1262 1.349 . S
C1251 C1249 1.327 . S
C1251 C1267 1.429 . S
C1251 H1273 0.950 . S
C1252 H1248 0.949 . S
C1252 C1260 1.574 . S
C1252 C1268 1.368 . S
H1253 C1261 0.950 . S
H1254 C1259 0.950 . S
H1255 C1260 0.949 . S
H1256 C1262 0.950 . S
H1257 C1263 0.950 . S
H1258 C1264 0.949 . S
C1259 H1254 0.950 . S
C1259 C1261 1.327 . S
C1259 C1265 1.429 . S
C1260 C1252 1.574 . S
C1260 H1255 0.949 . S
C1260 C1266 1.368 . S
C1261 C1245 1.349 . S
C1261 H1253 0.950 . S
C1261 C1259 1.327 . S
C1262 C1250 1.349 . S
C1262 H1256 0.950 . S
C1262 C1263 1.327 . S
C1263 H1257 0.950 . S
C1263 C1262 1.327 . S
C1263 C1267 1.429 . S
C1264 C1247 1.574 . S
C1264 H1258 0.949 . S
C1264 C1268 1.368 . S
C1265 C1246 1.429 . S
C1265 C1259 1.429 . S
C1265 C1266 1.523 . S
C1266 C1247 1.368 . S
C1266 C1260 1.368 . S
C1266 C1265 1.523 . S
C1267 C1251 1.429 . S
C1267 C1263 1.429 . S
C1267 C1268 1.523 . S
C1268 C1252 1.368 . S
C1268 C1264 1.368 . S
C1268 C1267 1.523 . S
H1269 C1244 0.950 . S
H1270 C1246 0.950 . S
H1271 C1247 0.949 . S
H1272 C1249 0.950 . S
H1273 C1251 0.950 . S
C1274 C1275 1.349 . S
C1274 C1276 1.327 . S
C1274 H1299 0.950 . S
C1275 C1274 1.349 . S
C1275 C1291 1.349 . S
C1276 C1274 1.327 . S
C1276 C1295 1.429 . S
C1276 H1300 0.950 . S
C1277 C1294 1.574 . S
C1277 C1296 1.368 . S
C1277 H1301 0.949 . S
H1278 C1282 0.949 . S
C1279 C1280 1.349 . S
C1279 C1281 1.327 . S
C1279 H1302 0.950 . S
C1280 C1279 1.349 . S
C1280 C1292 1.349 . S
C1281 C1279 1.327 . S
C1281 C1297 1.429 . S
C1281 H1303 0.950 . S
C1282 H1278 0.949 . S
C1282 C1290 1.574 . S
C1282 C1298 1.368 . S
H1283 C1291 0.950 . S
H1284 C1289 0.950 . S
H1285 C1290 0.949 . S
H1286 C1292 0.950 . S
H1287 C1293 0.950 . S
H1288 C1294 0.949 . S
C1289 H1284 0.950 . S
C1289 C1291 1.327 . S
C1289 C1295 1.429 . S
C1290 C1282 1.574 . S
C1290 H1285 0.949 . S
C1290 C1296 1.368 . S
C1291 C1275 1.349 . S
C1291 H1283 0.950 . S
C1291 C1289 1.327 . S
C1292 C1280 1.349 . S
C1292 H1286 0.950 . S
C1292 C1293 1.327 . S
C1293 H1287 0.950 . S
C1293 C1292 1.327 . S
C1293 C1297 1.429 . S
C1294 C1277 1.574 . S
C1294 H1288 0.949 . S
C1294 C1298 1.368 . S
C1295 C1276 1.429 . S
C1295 C1289 1.429 . S
C1295 C1296 1.523 . S
C1296 C1277 1.368 . S
C1296 C1290 1.368 . S
C1296 C1295 1.523 . S
C1297 C1281 1.429 . S
C1297 C1293 1.429 . S
C1297 C1298 1.523 . S
C1298 C1282 1.368 . S
C1298 C1294 1.368 . S
C1298 C1297 1.523 . S
H1299 C1274 0.950 . S
H1300 C1276 0.950 . S
H1301 C1277 0.949 . S
H1302 C1279 0.950 . S
H1303 C1281 0.950 . S
C1304 C1305 1.349 . S
C1304 C1306 1.327 . S
C1304 H1329 0.950 . S
C1305 C1304 1.349 . S
C1305 C1321 1.349 . S
C1306 C1304 1.327 . S
C1306 C1325 1.429 . S
C1306 H1330 0.950 . S
C1307 C1324 1.574 . S
C1307 C1326 1.368 . S
C1307 H1331 0.949 . S
H1308 C1312 0.949 . S
C1309 C1310 1.349 . S
C1309 C1311 1.327 . S
C1309 H1332 0.950 . S
C1310 C1309 1.349 . S
C1310 C1322 1.349 . S
C1311 C1309 1.327 . S
C1311 C1327 1.429 . S
C1311 H1333 0.950 . S
C1312 H1308 0.949 . S
C1312 C1320 1.574 . S
C1312 C1328 1.368 . S
H1313 C1321 0.950 . S
H1314 C1319 0.950 . S
H1315 C1320 0.949 . S
H1316 C1322 0.950 . S
H1317 C1323 0.950 . S
H1318 C1324 0.949 . S
C1319 H1314 0.950 . S
C1319 C1321 1.327 . S
C1319 C1325 1.429 . S
C1320 C1312 1.574 . S
C1320 H1315 0.949 . S
C1320 C1326 1.368 . S
C1321 C1305 1.349 . S
C1321 H1313 0.950 . S
C1321 C1319 1.327 . S
C1322 C1310 1.349 . S
C1322 H1316 0.950 . S
C1322 C1323 1.327 . S
C1323 H1317 0.950 . S
C1323 C1322 1.327 . S
C1323 C1327 1.429 . S
C1324 C1307 1.574 . S
C1324 H1318 0.949 . S
C1324 C1328 1.368 . S
C1325 C1306 1.429 . S
C1325 C1319 1.429 . S
C1325 C1326 1.523 . S
C1326 C1307 1.368 . S
C1326 C1320 1.368 . S
C1326 C1325 1.523 . S
C1327 C1311 1.429 . S
C1327 C1323 1.429 . S
C1327 C1328 1.523 . S
C1328 C1312 1.368 . S
C1328 C1324 1.368 . S
C1328 C1327 1.523 . S
H1329 C1304 0.950 . S
H1330 C1306 0.950 . S
H1331 C1307 0.949 . S
H1332 C1309 0.950 . S
H1333 C1311 0.950 . S
C1334 C1335 1.349 . S
C1334 C1336 1.327 . S
C1334 H1359 0.950 . S
C1335 C1334 1.349 . S
C1335 C1351 1.349 . S
C1336 C1334 1.327 . S
C1336 C1355 1.429 . S
C1336 H1360 0.950 . S
C1337 C1354 1.574 . S
C1337 C1356 1.368 . S
C1337 H1361 0.949 . S
H1338 C1342 0.949 . S
C1339 C1340 1.349 . S
C1339 C1341 1.327 . S
C1339 H1362 0.950 . S
C1340 C1339 1.349 . S
C1340 C1352 1.349 . S
C1341 C1339 1.327 . S
C1341 C1357 1.429 . S
C1341 H1363 0.950 . S
C1342 H1338 0.949 . S
C1342 C1350 1.574 . S
C1342 C1358 1.368 . S
H1343 C1351 0.950 . S
H1344 C1349 0.950 . S
H1345 C1350 0.949 . S
H1346 C1352 0.950 . S
H1347 C1353 0.950 . S
H1348 C1354 0.949 . S
C1349 H1344 0.950 . S
C1349 C1351 1.327 . S
C1349 C1355 1.429 . S
C1350 C1342 1.574 . S
C1350 H1345 0.949 . S
C1350 C1356 1.368 . S
C1351 C1335 1.349 . S
C1351 H1343 0.950 . S
C1351 C1349 1.327 . S
C1352 C1340 1.349 . S
C1352 H1346 0.950 . S
C1352 C1353 1.327 . S
C1353 H1347 0.950 . S
C1353 C1352 1.327 . S
C1353 C1357 1.429 . S
C1354 C1337 1.574 . S
C1354 H1348 0.949 . S
C1354 C1358 1.368 . S
C1355 C1336 1.429 . S
C1355 C1349 1.429 . S
C1355 C1356 1.523 . S
C1356 C1337 1.368 . S
C1356 C1350 1.368 . S
C1356 C1355 1.523 . S
C1357 C1341 1.429 . S
C1357 C1353 1.429 . S
C1357 C1358 1.523 . S
C1358 C1342 1.368 . S
C1358 C1354 1.368 . S
C1358 C1357 1.523 . S
H1359 C1334 0.950 . S
H1360 C1336 0.950 . S
H1361 C1337 0.949 . S
H1362 C1339 0.950 . S
H1363 C1341 0.950 . S
C1364 C1365 1.349 . S
C1364 C1366 1.327 . S
C1364 H1389 0.950 . S
C1365 C1364 1.349 . S
C1365 C1381 1.349 . S
C1366 C1364 1.327 . S
C1366 C1385 1.429 . S
C1366 H1390 0.950 . S
C1367 C1384 1.574 . S
C1367 C1386 1.368 . S
C1367 H1391 0.949 . S
H1368 C1372 0.949 . S
C1369 C1370 1.349 . S
C1369 C1371 1.327 . S
C1369 H1392 0.950 . S
C1370 C1369 1.349 . S
C1370 C1382 1.349 . S
C1371 C1369 1.327 . S
C1371 C1387 1.429 . S
C1371 H1393 0.950 . S
C1372 H1368 0.949 . S
C1372 C1380 1.574 . S
C1372 C1388 1.368 . S
H1373 C1381 0.950 . S
H1374 C1379 0.950 . S
H1375 C1380 0.949 . S
H1376 C1382 0.950 . S
H1377 C1383 0.950 . S
H1378 C1384 0.949 . S
C1379 H1374 0.950 . S
C1379 C1381 1.327 . S
C1379 C1385 1.429 . S
C1380 C1372 1.574 . S
C1380 H1375 0.949 . S
C1380 C1386 1.368 . S
C1381 C1365 1.349 . S
C1381 H1373 0.950 . S
C1381 C1379 1.327 . S
C1382 C1370 1.349 . S
C1382 H1376 0.950 . S
C1382 C1383 1.327 . S
C1383 H1377 0.950 . S
C1383 C1382 1.327 . S
C1383 C1387 1.429 . S
C1384 C1367 1.574 . S
C1384 H1378 0.949 . S
C1384 C1388 1.368 . S
C1385 C1366 1.429 . S
C1385 C1379 1.429 . S
C1385 C1386 1.523 . S
C1386 C1367 1.368 . S
C1386 C1380 1.368 . S
C1386 C1385 1.523 . S
C1387 C1371 1.429 . S
C1387 C1383 1.429 . S
C1387 C1388 1.523 . S
C1388 C1372 1.368 . S
C1388 C1384 1.368 . S
C1388 C1387 1.523 . S
H1389 C1364 0.950 . S
H1390 C1366 0.950 . S
H1391 C1367 0.949 . S
H1392 C1369 0.950 . S
H1393 C1371 0.950 . S
C1394 C1395 1.349 . S
C1394 C1396 1.327 . S
C1394 H1419 0.950 . S
C1395 C1394 1.349 . S
C1395 C1411 1.349 . S
C1396 C1394 1.327 . S
C1396 C1415 1.429 . S
C1396 H1420 0.950 . S
C1397 C1414 1.577 . S
C1397 C1416 1.368 . S
C1397 H1421 0.937 1_655 S
H1398 C1402 0.949 . S
C1399 C1400 1.350 1_455 S
C1399 C1401 1.327 . S
C1399 H1422 0.950 . S
C1400 C1399 1.350 1_655 S
C1400 C1412 1.347 . S
C1401 C1399 1.327 . S
C1401 C1417 1.429 1_455 S
C1401 H1423 0.950 . S
C1402 H1398 0.949 . S
C1402 C1410 1.574 . S
C1402 C1418 1.368 . S
H1403 C1411 0.950 . S
H1404 C1409 0.950 . S
H1405 C1410 0.949 . S
H1406 C1412 0.950 . S
H1407 C1413 0.950 . S
H1408 C1414 0.937 1_455 S
C1409 H1404 0.950 . S
C1409 C1411 1.327 . S
C1409 C1415 1.429 . S
C1410 C1402 1.574 . S
C1410 H1405 0.949 . S
C1410 C1416 1.368 . S
C1411 C1395 1.349 . S
C1411 H1403 0.950 . S
C1411 C1409 1.327 . S
C1412 C1400 1.347 . S
C1412 H1406 0.950 . S
C1412 C1413 1.327 . S
C1413 H1407 0.950 . S
C1413 C1412 1.327 . S
C1413 C1417 1.429 . S
C1414 C1397 1.577 . S
C1414 H1408 0.937 1_655 S
C1414 C1418 1.380 . S
C1415 C1396 1.429 . S
C1415 C1409 1.429 . S
C1415 C1416 1.523 . S
C1416 C1397 1.368 . S
C1416 C1410 1.368 . S
C1416 C1415 1.523 . S
C1417 C1401 1.429 1_655 S
C1417 C1413 1.429 . S
C1417 C1418 1.523 . S
C1418 C1402 1.368 . S
C1418 C1414 1.380 . S
C1418 C1417 1.523 . S
H1419 C1394 0.950 . S
H1420 C1396 0.950 . S
H1421 C1397 0.937 1_455 S
H1422 C1399 0.950 . S
H1423 C1401 0.950 . S
C1424 C1425 1.349 . S
C1424 C1426 1.327 . S
C1424 H1449 0.950 . S
C1425 C1424 1.349 . S
C1425 C1441 1.349 . S
C1426 C1424 1.327 . S
C1426 C1445 1.429 . S
C1426 H1450 0.950 . S
C1427 C1444 1.574 . S
C1427 C1446 1.368 . S
C1427 H1451 0.949 . S
H1428 C1432 0.949 . S
C1429 C1430 1.349 . S
C1429 C1431 1.327 . S
C1429 H1452 0.950 . S
C1430 C1429 1.349 . S
C1430 C1442 1.349 . S
C1431 C1429 1.327 . S
C1431 C1447 1.429 . S
C1431 H1453 0.950 . S
C1432 H1428 0.949 . S
C1432 C1440 1.574 . S
C1432 C1448 1.368 . S
H1433 C1441 0.950 . S
H1434 C1439 0.950 . S
H1435 C1440 0.949 . S
H1436 C1442 0.950 . S
H1437 C1443 0.950 . S
H1438 C1444 0.949 . S
C1439 H1434 0.950 . S
C1439 C1441 1.327 . S
C1439 C1445 1.429 . S
C1440 C1432 1.574 . S
C1440 H1435 0.949 . S
C1440 C1446 1.368 . S
C1441 C1425 1.349 . S
C1441 H1433 0.950 . S
C1441 C1439 1.327 . S
C1442 C1430 1.349 . S
C1442 H1436 0.950 . S
C1442 C1443 1.327 . S
C1443 H1437 0.950 . S
C1443 C1442 1.327 . S
C1443 C1447 1.429 . S
C1444 C1427 1.574 . S
C1444 H1438 0.949 . S
C1444 C1448 1.368 . S
C1445 C1426 1.429 . S
C1445 C1439 1.429 . S
C1445 C1446 1.523 . S
C1446 C1427 1.368 . S
C1446 C1440 1.368 . S
C1446 C1445 1.523 . S
C1447 C1431 1.429 . S
C1447 C1443 1.429 . S
C1447 C1448 1.523 . S
C1448 C1432 1.368 . S
C1448 C1444 1.368 . S
C1448 C1447 1.523 . S
H1449 C1424 0.950 . S
H1450 C1426 0.950 . S
H1451 C1427 0.949 . S
H1452 C1429 0.950 . S
H1453 C1431 0.950 . S
C1454 C1455 1.349 . S
C1454 C1456 1.327 . S
C1454 H1479 0.950 . S
C1455 C1454 1.349 . S
C1455 C1471 1.349 . S
C1456 C1454 1.327 . S
C1456 C1475 1.429 . S
C1456 H1480 0.950 . S
C1457 C1474 1.574 . S
C1457 C1476 1.368 . S
C1457 H1481 0.949 . S
H1458 C1462 0.949 . S
C1459 C1460 1.349 . S
C1459 C1461 1.327 . S
C1459 H1482 0.950 . S
C1460 C1459 1.349 . S
C1460 C1472 1.349 . S
C1461 C1459 1.327 . S
C1461 C1477 1.429 . S
C1461 H1483 0.950 . S
C1462 H1458 0.949 . S
C1462 C1470 1.574 . S
C1462 C1478 1.368 . S
H1463 C1471 0.950 . S
H1464 C1469 0.950 . S
H1465 C1470 0.949 . S
H1466 C1472 0.950 . S
H1467 C1473 0.950 . S
H1468 C1474 0.949 . S
C1469 H1464 0.950 . S
C1469 C1471 1.327 . S
C1469 C1475 1.429 . S
C1470 C1462 1.574 . S
C1470 H1465 0.949 . S
C1470 C1476 1.368 . S
C1471 C1455 1.349 . S
C1471 H1463 0.950 . S
C1471 C1469 1.327 . S
C1472 C1460 1.349 . S
C1472 H1466 0.950 . S
C1472 C1473 1.327 . S
C1473 H1467 0.950 . S
C1473 C1472 1.327 . S
C1473 C1477 1.429 . S
C1474 C1457 1.574 . S
C1474 H1468 0.949 . S
C1474 C1478 1.368 . S
C1475 C1456 1.429 . S
C1475 C1469 1.429 . S
C1475 C1476 1.523 . S
C1476 C1457 1.368 . S
C1476 C1470 1.368 . S
C1476 C1475 1.523 . S
C1477 C1461 1.429 . S
C1477 C1473 1.429 . S
C1477 C1478 1.523 . S
C1478 C1462 1.368 . S
C1478 C1474 1.368 . S
C1478 C1477 1.523 . S
H1479 C1454 0.950 . S
H1480 C1456 0.950 . S
H1481 C1457 0.949 . S
H1482 C1459 0.950 . S
H1483 C1461 0.950 . S
C1484 C1485 1.349 . S
C1484 C1486 1.327 . S
C1484 H1509 0.950 1_565 S
C1485 C1484 1.349 . S
C1485 C1501 1.349 . S
C1486 C1484 1.327 . S
C1486 C1505 1.429 . S
C1486 H1510 0.950 . S
C1487 C1504 1.574 . S
C1487 C1506 1.368 . S
C1487 H1511 0.949 . S
H1488 C1492 0.949 . S
C1489 C1490 1.349 . S
C1489 C1491 1.327 . S
C1489 H1512 0.950 . S
C1490 C1489 1.349 . S
C1490 C1502 1.349 1_554 S
C1491 C1489 1.327 . S
C1491 C1507 1.429 1_554 S
C1491 H1513 0.950 . S
C1492 H1488 0.949 . S
C1492 C1500 1.574 . S
C1492 C1508 1.368 . S
H1493 C1501 0.950 . S
H1494 C1499 0.950 . S
H1495 C1500 0.949 . S
H1496 C1502 0.950 . S
H1497 C1503 0.950 . S
H1498 C1504 0.949 1_554 S
C1499 H1494 0.950 . S
C1499 C1501 1.327 . S
C1499 C1505 1.429 . S
C1500 C1492 1.574 . S
C1500 H1495 0.949 . S
C1500 C1506 1.368 . S
C1501 C1485 1.349 . S
C1501 H1493 0.950 . S
C1501 C1499 1.327 . S
C1502 C1490 1.349 1_556 S
C1502 H1496 0.950 . S
C1502 C1503 1.327 . S
C1503 H1497 0.950 . S
C1503 C1502 1.327 . S
C1503 C1507 1.429 . S
C1504 C1487 1.574 . S
C1504 H1498 0.949 1_556 S
C1504 C1508 1.368 . S
C1505 C1486 1.429 . S
C1505 C1499 1.429 . S
C1505 C1506 1.523 . S
C1506 C1487 1.368 . S
C1506 C1500 1.368 . S
C1506 C1505 1.523 . S
C1507 C1491 1.429 1_556 S
C1507 C1503 1.429 . S
C1507 C1508 1.523 . S
C1508 C1492 1.368 . S
C1508 C1504 1.368 . S
C1508 C1507 1.523 . S
H1509 C1484 0.950 1_545 S
H1510 C1486 0.950 . S
H1511 C1487 0.949 . S
H1512 C1489 0.950 . S
H1513 C1491 0.950 . S
C1514 C1515 1.349 . S
C1514 C1516 1.327 . S
C1514 H1539 0.950 . S
C1515 C1514 1.349 . S
C1515 C1531 1.349 . S
C1516 C1514 1.327 . S
C1516 C1535 1.429 . S
C1516 H1540 0.950 . S
C1517 C1534 1.574 . S
C1517 C1536 1.368 . S
C1517 H1541 0.949 . S
H1518 C1522 0.949 . S
C1519 C1520 1.349 . S
C1519 C1521 1.327 . S
C1519 H1542 0.950 . S
C1520 C1519 1.349 . S
C1520 C1532 1.349 . S
C1521 C1519 1.327 . S
C1521 C1537 1.429 . S
C1521 H1543 0.950 . S
C1522 H1518 0.949 . S
C1522 C1530 1.574 . S
C1522 C1538 1.368 . S
H1523 C1531 0.950 . S
H1524 C1529 0.950 . S
H1525 C1530 0.949 . S
H1526 C1532 0.950 . S
H1527 C1533 0.950 . S
H1528 C1534 0.949 . S
C1529 H1524 0.950 . S
C1529 C1531 1.327 . S
C1529 C1535 1.429 . S
C1530 C1522 1.574 . S
C1530 H1525 0.949 . S
C1530 C1536 1.368 . S
C1531 C1515 1.349 . S
C1531 H1523 0.950 . S
C1531 C1529 1.327 . S
C1532 C1520 1.349 . S
C1532 H1526 0.950 . S
C1532 C1533 1.327 . S
C1533 H1527 0.950 . S
C1533 C1532 1.327 . S
C1533 C1537 1.429 . S
C1534 C1517 1.574 . S
C1534 H1528 0.949 . S
C1534 C1538 1.368 . S
C1535 C1516 1.429 . S
C1535 C1529 1.429 . S
C1535 C1536 1.523 . S
C1536 C1517 1.368 . S
C1536 C1530 1.368 . S
C1536 C1535 1.523 . S
C1537 C1521 1.429 . S
C1537 C1533 1.429 . S
C1537 C1538 1.523 . S
C1538 C1522 1.368 . S
C1538 C1534 1.368 . S
C1538 C1537 1.523 . S
H1539 C1514 0.950 . S
H1540 C1516 0.950 . S
H1541 C1517 0.949 . S
H1542 C1519 0.950 . S
H1543 C1521 0.950 . S
C1544 C1545 1.349 . S
C1544 C1546 1.327 . S
C1544 H1569 0.950 . S
C1545 C1544 1.349 . S
C1545 C1561 1.349 . S
C1546 C1544 1.327 . S
C1546 C1565 1.429 . S
C1546 H1570 0.950 . S
C1547 C1564 1.574 . S
C1547 C1566 1.368 . S
C1547 H1571 0.949 . S
H1548 C1552 0.949 . S
C1549 C1550 1.349 . S
C1549 C1551 1.327 . S
C1549 H1572 0.950 . S
C1550 C1549 1.349 . S
C1550 C1562 1.349 . S
C1551 C1549 1.327 . S
C1551 C1567 1.429 . S
C1551 H1573 0.950 . S
C1552 H1548 0.949 . S
C1552 C1560 1.574 . S
C1552 C1568 1.368 . S
H1553 C1561 0.950 . S
H1554 C1559 0.950 . S
H1555 C1560 0.949 . S
H1556 C1562 0.950 . S
H1557 C1563 0.950 . S
H1558 C1564 0.949 . S
C1559 H1554 0.950 . S
C1559 C1561 1.327 . S
C1559 C1565 1.429 . S
C1560 C1552 1.574 . S
C1560 H1555 0.949 . S
C1560 C1566 1.368 . S
C1561 C1545 1.349 . S
C1561 H1553 0.950 . S
C1561 C1559 1.327 . S
C1562 C1550 1.349 . S
C1562 H1556 0.950 . S
C1562 C1563 1.327 . S
C1563 H1557 0.950 . S
C1563 C1562 1.327 . S
C1563 C1567 1.429 . S
C1564 C1547 1.574 . S
C1564 H1558 0.949 . S
C1564 C1568 1.368 . S
C1565 C1546 1.429 . S
C1565 C1559 1.429 . S
C1565 C1566 1.523 . S
C1566 C1547 1.368 . S
C1566 C1560 1.368 . S
C1566 C1565 1.523 . S
C1567 C1551 1.429 . S
C1567 C1563 1.429 . S
C1567 C1568 1.523 . S
C1568 C1552 1.368 . S
C1568 C1564 1.368 . S
C1568 C1567 1.523 . S
H1569 C1544 0.950 . S
H1570 C1546 0.950 . S
H1571 C1547 0.949 . S
H1572 C1549 0.950 . S
H1573 C1551 0.950 . S
C1574 C1575 1.349 . S
C1574 C1576 1.327 . S
C1574 H1599 0.950 . S
C1575 C1574 1.349 . S
C1575 C1591 1.349 . S
C1576 C1574 1.327 . S
C1576 C1595 1.429 . S
C1576 H1600 0.950 . S
C1577 C1594 1.574 . S
C1577 C1596 1.368 . S
C1577 H1601 0.949 . S
H1578 C1582 0.949 . S
C1579 C1580 1.349 . S
C1579 C1581 1.327 . S
C1579 H1602 0.950 . S
C1580 C1579 1.349 . S
C1580 C1592 1.349 . S
C1581 C1579 1.327 . S
C1581 C1597 1.429 . S
C1581 H1603 0.950 . S
C1582 H1578 0.949 . S
C1582 C1590 1.574 . S
C1582 C1598 1.368 . S
H1583 C1591 0.950 . S
H1584 C1589 0.950 . S
H1585 C1590 0.949 . S
H1586 C1592 0.950 . S
H1587 C1593 0.950 . S
H1588 C1594 0.949 . S
C1589 H1584 0.950 . S
C1589 C1591 1.327 . S
C1589 C1595 1.429 . S
C1590 C1582 1.574 . S
C1590 H1585 0.949 . S
C1590 C1596 1.368 . S
C1591 C1575 1.349 . S
C1591 H1583 0.950 . S
C1591 C1589 1.327 . S
C1592 C1580 1.349 . S
C1592 H1586 0.950 . S
C1592 C1593 1.327 . S
C1593 H1587 0.950 . S
C1593 C1592 1.327 . S
C1593 C1597 1.429 . S
C1594 C1577 1.574 . S
C1594 H1588 0.949 . S
C1594 C1598 1.368 . S
C1595 C1576 1.429 . S
C1595 C1589 1.429 . S
C1595 C1596 1.523 . S
C1596 C1577 1.368 . S
C1596 C1590 1.368 . S
C1596 C1595 1.523 . S
C1597 C1581 1.429 . S
C1597 C1593 1.429 . S
C1597 C1598 1.523 . S
C1598 C1582 1.368 . S
C1598 C1594 1.368 . S
C1598 C1597 1.523 . S
H1599 C1574 0.950 . S
H1600 C1576 0.950 . S
H1601 C1577 0.949 . S
H1602 C1579 0.950 . S
H1603 C1581 0.950 . S
C1604 C1605 1.349 . S
C1604 C1606 1.327 . S
C1604 H1629 0.950 . S
C1605 C1604 1.349 . S
C1605 C1621 1.349 . S
C1606 C1604 1.327 . S
C1606 C1625 1.429 . S
C1606 H1630 0.950 . S
C1607 C1624 1.574 . S
C1607 C1626 1.368 . S
C1607 H1631 0.949 . S
H1608 C1612 0.949 . S
C1609 C1610 1.349 . S
C1609 C1611 1.327 . S
C1609 H1632 0.950 . S
C1610 C1609 1.349 . S
C1610 C1622 1.349 . S
C1611 C1609 1.327 . S
C1611 C1627 1.429 . S
C1611 H1633 0.950 . S
C1612 H1608 0.949 . S
C1612 C1620 1.574 . S
C1612 C1628 1.368 . S
H1613 C1621 0.950 1_565 S
H1614 C1619 0.950 . S
H1615 C1620 0.949 . S
H1616 C1622 0.950 . S
H1617 C1623 0.950 . S
H1618 C1624 0.949 . S
C1619 H1614 0.950 . S
C1619 C1621 1.327 . S
C1619 C1625 1.429 . S
C1620 C1612 1.574 . S
C1620 H1615 0.949 . S
C1620 C1626 1.368 . S
C1621 C1605 1.349 . S
C1621 H1613 0.950 1_545 S
C1621 C1619 1.327 . S
C1622 C1610 1.349 . S
C1622 H1616 0.950 . S
C1622 C1623 1.327 . S
C1623 H1617 0.950 . S
C1623 C1622 1.327 . S
C1623 C1627 1.429 . S
C1624 C1607 1.574 . S
C1624 H1618 0.949 . S
C1624 C1628 1.368 . S
C1625 C1606 1.429 . S
C1625 C1619 1.429 . S
C1625 C1626 1.523 . S
C1626 C1607 1.368 . S
C1626 C1620 1.368 . S
C1626 C1625 1.523 . S
C1627 C1611 1.429 . S
C1627 C1623 1.429 . S
C1627 C1628 1.523 . S
C1628 C1612 1.368 . S
C1628 C1624 1.368 . S
C1628 C1627 1.523 . S
H1629 C1604 0.950 . S
H1630 C1606 0.950 . S
H1631 C1607 0.949 . S
H1632 C1609 0.950 . S
H1633 C1611 0.950 . S
C1634 C1635 1.349 . S
C1634 C1636 1.327 . S
C1634 H1659 0.950 . S
C1635 C1634 1.349 . S
C1635 C1651 1.349 . S
C1636 C1634 1.327 . S
C1636 C1655 1.429 . S
C1636 H1660 0.950 . S
C1637 C1654 1.574 . S
C1637 C1656 1.368 . S
C1637 H1661 0.949 . S
H1638 C1642 0.949 . S
C1639 C1640 1.349 . S
C1639 C1641 1.327 . S
C1639 H1662 0.950 . S
C1640 C1639 1.349 . S
C1640 C1652 1.349 . S
C1641 C1639 1.327 . S
C1641 C1657 1.429 . S
C1641 H1663 0.950 . S
C1642 H1638 0.949 . S
C1642 C1650 1.574 . S
C1642 C1658 1.368 . S
H1643 C1651 0.950 . S
H1644 C1649 0.950 . S
H1645 C1650 0.949 . S
H1646 C1652 0.950 . S
H1647 C1653 0.950 . S
H1648 C1654 0.949 . S
C1649 H1644 0.950 . S
C1649 C1651 1.327 . S
C1649 C1655 1.429 . S
C1650 C1642 1.574 . S
C1650 H1645 0.949 . S
C1650 C1656 1.368 . S
C1651 C1635 1.349 . S
C1651 H1643 0.950 . S
C1651 C1649 1.327 . S
C1652 C1640 1.349 . S
C1652 H1646 0.950 . S
C1652 C1653 1.327 . S
C1653 H1647 0.950 . S
C1653 C1652 1.327 . S
C1653 C1657 1.429 . S
C1654 C1637 1.574 . S
C1654 H1648 0.949 . S
C1654 C1658 1.368 . S
C1655 C1636 1.429 . S
C1655 C1649 1.429 . S
C1655 C1656 1.523 . S
C1656 C1637 1.368 . S
C1656 C1650 1.368 . S
C1656 C1655 1.523 . S
C1657 C1641 1.429 . S
C1657 C1653 1.429 . S
C1657 C1658 1.523 . S
C1658 C1642 1.368 . S
C1658 C1654 1.368 . S
C1658 C1657 1.523 . S
H1659 C1634 0.950 . S
H1660 C1636 0.950 . S
H1661 C1637 0.949 . S
H1662 C1639 0.950 . S
H1663 C1641 0.950 . S
C1664 C1665 1.349 . S
C1664 C1666 1.327 . S
C1664 H1689 0.950 . S
C1665 C1664 1.349 . S
C1665 C1681 1.349 . S
C1666 C1664 1.327 . S
C1666 C1685 1.429 . S
C1666 H1690 0.950 . S
C1667 C1684 1.574 . S
C1667 C1686 1.368 . S
C1667 H1691 0.949 . S
H1668 C1672 0.949 . S
C1669 C1670 1.349 . S
C1669 C1671 1.327 . S
C1669 H1692 0.950 . S
C1670 C1669 1.349 . S
C1670 C1682 1.349 . S
C1671 C1669 1.327 . S
C1671 C1687 1.429 . S
C1671 H1693 0.950 . S
C1672 H1668 0.949 . S
C1672 C1680 1.574 . S
C1672 C1688 1.368 . S
H1673 C1681 0.950 . S
H1674 C1679 0.950 . S
H1675 C1680 0.949 . S
H1676 C1682 0.950 . S
H1677 C1683 0.950 . S
H1678 C1684 0.949 . S
C1679 H1674 0.950 . S
C1679 C1681 1.327 . S
C1679 C1685 1.429 . S
C1680 C1672 1.574 . S
C1680 H1675 0.949 . S
C1680 C1686 1.368 . S
C1681 C1665 1.349 . S
C1681 H1673 0.950 . S
C1681 C1679 1.327 . S
C1682 C1670 1.349 . S
C1682 H1676 0.950 . S
C1682 C1683 1.327 . S
C1683 H1677 0.950 . S
C1683 C1682 1.327 . S
C1683 C1687 1.429 . S
C1684 C1667 1.574 . S
C1684 H1678 0.949 . S
C1684 C1688 1.368 . S
C1685 C1666 1.429 . S
C1685 C1679 1.429 . S
C1685 C1686 1.523 . S
C1686 C1667 1.368 . S
C1686 C1680 1.368 . S
C1686 C1685 1.523 . S
C1687 C1671 1.429 . S
C1687 C1683 1.429 . S
C1687 C1688 1.523 . S
C1688 C1672 1.368 . S
C1688 C1684 1.368 . S
C1688 C1687 1.523 . S
H1689 C1664 0.950 . S
H1690 C1666 0.950 . S
H1691 C1667 0.949 . S
H1692 C1669 0.950 . S
H1693 C1671 0.950 . S
C1694 C1695 1.349 . S
C1694 C1696 1.327 . S
C1694 H1719 0.950 . S
C1695 C1694 1.349 . S
C1695 C1711 1.349 . S
C1696 C1694 1.327 . S
C1696 C1715 1.429 . S
C1696 H1720 0.950 1_545 S
C1697 C1714 1.574 . S
C1697 C1716 1.368 . S
C1697 H1721 0.949 . S
H1698 C1702 1.001 . S
C1699 C1700 1.349 . S
C1699 C1701 1.327 . S
C1699 H1722 0.950 . S
C1700 C1699 1.349 . S
C1700 C1712 1.349 1_545 S
C1701 C1699 1.327 . S
C1701 C1717 1.429 . S
C1701 H1723 0.950 . S
C1702 H1698 1.001 . S
C1702 C1710 1.565 1_565 S
C1702 C1718 1.322 1_565 S
H1703 C1711 0.950 . S
H1704 C1709 0.950 . S
H1705 C1710 0.949 1_565 S
H1706 C1712 0.950 . S
H1707 C1713 0.950 . S
H1708 C1714 0.949 . S
C1709 H1704 0.950 . S
C1709 C1711 1.327 . S
C1709 C1715 1.429 . S
C1710 C1702 1.565 1_545 S
C1710 H1705 0.949 1_545 S
C1710 C1716 1.368 . S
C1711 C1695 1.349 . S
C1711 H1703 0.950 . S
C1711 C1709 1.327 . S
C1712 C1700 1.349 1_565 S
C1712 H1706 0.950 . S
C1712 C1713 1.327 . S
C1713 H1707 0.950 . S
C1713 C1712 1.327 . S
C1713 C1717 1.429 1_565 S
C1714 C1697 1.574 . S
C1714 H1708 0.949 . S
C1714 C1718 1.368 . S
C1715 C1696 1.429 . S
C1715 C1709 1.429 . S
C1715 C1716 1.523 . S
C1716 C1697 1.368 . S
C1716 C1710 1.368 . S
C1716 C1715 1.523 . S
C1717 C1701 1.429 . S
C1717 C1713 1.429 1_545 S
C1717 C1718 1.523 . S
C1718 C1702 1.322 1_545 S
C1718 C1714 1.368 . S
C1718 C1717 1.523 . S
H1719 C1694 0.950 . S
H1720 C1696 0.950 1_565 S
H1721 C1697 0.949 . S
H1722 C1699 0.950 . S
H1723 C1701 0.950 . S
C1724 C1725 1.349 . S
C1724 C1726 1.327 . S
C1724 H1749 0.950 . S
C1725 C1724 1.349 . S
C1725 C1741 1.349 . S
C1726 C1724 1.327 . S
C1726 C1745 1.429 . S
C1726 H1750 0.950 . S
C1727 C1744 1.574 . S
C1727 C1746 1.368 . S
C1727 H1751 0.949 . S
H1728 C1732 0.949 . S
C1729 C1730 1.349 . S
C1729 C1731 1.327 . S
C1729 H1752 0.950 . S
C1730 C1729 1.349 . S
C1730 C1742 1.349 . S
C1731 C1729 1.327 . S
C1731 C1747 1.429 . S
C1731 H1753 0.950 . S
C1732 H1728 0.949 . S
C1732 C1740 1.574 . S
C1732 C1748 1.368 . S
H1733 C1741 0.950 . S
H1734 C1739 0.950 . S
H1735 C1740 0.949 . S
H1736 C1742 0.950 . S
H1737 C1743 0.950 . S
H1738 C1744 0.949 . S
C1739 H1734 0.950 . S
C1739 C1741 1.327 . S
C1739 C1745 1.429 . S
C1740 C1732 1.574 . S
C1740 H1735 0.949 . S
C1740 C1746 1.368 . S
C1741 C1725 1.349 . S
C1741 H1733 0.950 . S
C1741 C1739 1.327 . S
C1742 C1730 1.349 . S
C1742 H1736 0.950 . S
C1742 C1743 1.327 . S
C1743 H1737 0.950 . S
C1743 C1742 1.327 . S
C1743 C1747 1.429 . S
C1744 C1727 1.574 . S
C1744 H1738 0.949 . S
C1744 C1748 1.368 . S
C1745 C1726 1.429 . S
C1745 C1739 1.429 . S
C1745 C1746 1.523 . S
C1746 C1727 1.368 . S
C1746 C1740 1.368 . S
C1746 C1745 1.523 . S
C1747 C1731 1.429 . S
C1747 C1743 1.429 . S
C1747 C1748 1.523 . S
C1748 C1732 1.368 . S
C1748 C1744 1.368 . S
C1748 C1747 1.523 . S
H1749 C1724 0.950 . S
H1750 C1726 0.950 . S
H1751 C1727 0.949 . S
H1752 C1729 0.950 . S
H1753 C1731 0.950 . S
C1754 C1755 1.349 . S
C1754 C1756 1.327 . S
C1754 H1779 0.950 . S
C1755 C1754 1.349 . S
C1755 C1771 1.349 . S
C1756 C1754 1.327 . S
C1756 C1775 1.429 . S
C1756 H1780 0.950 . S
C1757 C1774 1.574 . S
C1757 C1776 1.368 . S
C1757 H1781 0.949 . S
H1758 C1762 0.949 . S
C1759 C1760 1.349 . S
C1759 C1761 1.327 . S
C1759 H1782 0.950 . S
C1760 C1759 1.349 . S
C1760 C1772 1.349 . S
C1761 C1759 1.327 . S
C1761 C1777 1.429 . S
C1761 H1783 0.950 . S
C1762 H1758 0.949 . S
C1762 C1770 1.574 . S
C1762 C1778 1.368 . S
H1763 C1771 0.950 . S
H1764 C1769 0.950 . S
H1765 C1770 0.949 . S
H1766 C1772 0.950 . S
H1767 C1773 0.950 . S
H1768 C1774 0.949 . S
C1769 H1764 0.950 . S
C1769 C1771 1.327 . S
C1769 C1775 1.429 . S
C1770 C1762 1.574 . S
C1770 H1765 0.949 . S
C1770 C1776 1.368 . S
C1771 C1755 1.349 . S
C1771 H1763 0.950 . S
C1771 C1769 1.327 . S
C1772 C1760 1.349 . S
C1772 H1766 0.950 . S
C1772 C1773 1.327 . S
C1773 H1767 0.950 . S
C1773 C1772 1.327 . S
C1773 C1777 1.429 . S
C1774 C1757 1.574 . S
C1774 H1768 0.949 . S
C1774 C1778 1.368 . S
C1775 C1756 1.429 . S
C1775 C1769 1.429 . S
C1775 C1776 1.523 . S
C1776 C1757 1.368 . S
C1776 C1770 1.368 . S
C1776 C1775 1.523 . S
C1777 C1761 1.429 . S
C1777 C1773 1.429 . S
C1777 C1778 1.523 . S
C1778 C1762 1.368 . S
C1778 C1774 1.368 . S
C1778 C1777 1.523 . S
H1779 C1754 0.950 . S
H1780 C1756 0.950 . S
H1781 C1757 0.949 . S
H1782 C1759 0.950 . S
H1783 C1761 0.950 . S
C1784 C1785 1.349 . S
C1784 C1786 1.327 . S
C1784 H1809 0.950 . S
C1785 C1784 1.349 . S
C1785 C1801 1.349 . S
C1786 C1784 1.327 . S
C1786 C1805 1.429 . S
C1786 H1810 0.950 . S
C1787 C1804 1.574 . S
C1787 C1806 1.368 . S
C1787 H1811 0.949 . S
H1788 C1792 0.949 . S
C1789 C1790 1.349 . S
C1789 C1791 1.327 . S
C1789 H1812 0.950 . S
C1790 C1789 1.349 . S
C1790 C1802 1.349 . S
C1791 C1789 1.327 . S
C1791 C1807 1.429 . S
C1791 H1813 0.950 . S
C1792 H1788 0.949 . S
C1792 C1800 1.574 . S
C1792 C1808 1.368 . S
H1793 C1801 0.950 . S
H1794 C1799 0.950 . S
H1795 C1800 0.949 . S
H1796 C1802 0.950 . S
H1797 C1803 0.950 . S
H1798 C1804 0.949 . S
C1799 H1794 0.950 . S
C1799 C1801 1.327 . S
C1799 C1805 1.429 . S
C1800 C1792 1.574 . S
C1800 H1795 0.949 . S
C1800 C1806 1.368 . S
C1801 C1785 1.349 . S
C1801 H1793 0.950 . S
C1801 C1799 1.327 . S
C1802 C1790 1.349 . S
C1802 H1796 0.950 . S
C1802 C1803 1.327 . S
C1803 H1797 0.950 . S
C1803 C1802 1.327 . S
C1803 C1807 1.429 . S
C1804 C1787 1.574 . S
C1804 H1798 0.949 . S
C1804 C1808 1.368 . S
C1805 C1786 1.429 . S
C1805 C1799 1.429 . S
C1805 C1806 1.523 . S
C1806 C1787 1.368 . S
C1806 C1800 1.368 . S
C1806 C1805 1.523 . S
C1807 C1791 1.429 . S
C1807 C1803 1.429 . S
C1807 C1808 1.523 . S
C1808 C1792 1.368 . S
C1808 C1804 1.368 . S
C1808 C1807 1.523 . S
H1809 C1784 0.950 . S
H1810 C1786 0.950 . S
H1811 C1787 0.949 . S
H1812 C1789 0.950 . S
H1813 C1791 0.950 . S
C1814 C1815 1.349 . S
C1814 C1816 1.327 . S
C1814 H1839 0.932 1_655 S
C1815 C1814 1.349 . S
C1815 C1831 1.349 . S
C1816 C1814 1.327 . S
C1816 C1835 1.429 . S
C1816 H1840 0.950 . S
C1817 C1834 1.574 . S
C1817 C1836 1.368 . S
C1817 H1841 0.949 . S
H1818 C1822 0.949 1_565 S
C1819 C1820 1.349 . S
C1819 C1821 1.327 . S
C1819 H1842 0.950 . S
C1820 C1819 1.349 . S
C1820 C1832 1.349 . S
C1821 C1819 1.327 . S
C1821 C1837 1.429 . S
C1821 H1843 0.950 . S
C1822 H1818 0.949 1_545 S
C1822 C1830 1.574 . S
C1822 C1838 1.368 . S
H1823 C1831 0.950 . S
H1824 C1829 0.950 . S
H1825 C1830 0.931 1_565 S
H1826 C1832 0.950 1_565 S
H1827 C1833 0.950 1_565 S
H1828 C1834 0.949 . S
C1829 H1824 0.950 . S
C1829 C1831 1.327 . S
C1829 C1835 1.429 . S
C1830 C1822 1.574 . S
C1830 H1825 0.931 1_545 S
C1830 C1836 1.368 . S
C1831 C1815 1.349 . S
C1831 H1823 0.950 . S
C1831 C1829 1.327 . S
C1832 C1820 1.349 . S
C1832 H1826 0.950 1_545 S
C1832 C1833 1.327 . S
C1833 H1827 0.950 1_545 S
C1833 C1832 1.327 . S
C1833 C1837 1.429 . S
C1834 C1817 1.574 . S
C1834 H1828 0.949 . S
C1834 C1838 1.368 . S
C1835 C1816 1.429 . S
C1835 C1829 1.429 . S
C1835 C1836 1.523 . S
C1836 C1817 1.368 . S
C1836 C1830 1.368 . S
C1836 C1835 1.523 . S
C1837 C1821 1.429 . S
C1837 C1833 1.429 . S
C1837 C1838 1.523 . S
C1838 C1822 1.368 . S
C1838 C1834 1.368 . S
C1838 C1837 1.523 . S
H1839 C1814 0.932 1_455 S
H1840 C1816 0.950 . S
H1841 C1817 0.949 . S
H1842 C1819 0.950 . S
H1843 C1821 0.950 . S
C1844 C1845 1.349 . S
C1844 C1846 1.327 . S
C1844 H1869 0.950 . S
C1845 C1844 1.349 . S
C1845 C1861 1.349 . S
C1846 C1844 1.327 . S
C1846 C1865 1.429 . S
C1846 H1870 0.950 . S
C1847 C1864 1.574 . S
C1847 C1866 1.368 . S
C1847 H1871 0.949 . S
H1848 C1852 0.949 . S
C1849 C1850 1.349 . S
C1849 C1851 1.327 . S
C1849 H1872 0.950 . S
C1850 C1849 1.349 . S
C1850 C1862 1.349 . S
C1851 C1849 1.327 . S
C1851 C1867 1.429 . S
C1851 H1873 0.950 . S
C1852 H1848 0.949 . S
C1852 C1860 1.574 . S
C1852 C1868 1.368 . S
H1853 C1861 0.950 . S
H1854 C1859 0.950 . S
H1855 C1860 0.949 . S
H1856 C1862 0.950 . S
H1857 C1863 0.950 . S
H1858 C1864 0.949 . S
C1859 H1854 0.950 . S
C1859 C1861 1.327 . S
C1859 C1865 1.429 . S
C1860 C1852 1.574 . S
C1860 H1855 0.949 . S
C1860 C1866 1.368 . S
C1861 C1845 1.349 . S
C1861 H1853 0.950 . S
C1861 C1859 1.327 . S
C1862 C1850 1.349 . S
C1862 H1856 0.950 . S
C1862 C1863 1.327 . S
C1863 H1857 0.950 . S
C1863 C1862 1.327 . S
C1863 C1867 1.429 . S
C1864 C1847 1.574 . S
C1864 H1858 0.949 . S
C1864 C1868 1.368 . S
C1865 C1846 1.429 . S
C1865 C1859 1.429 . S
C1865 C1866 1.523 . S
C1866 C1847 1.368 . S
C1866 C1860 1.368 . S
C1866 C1865 1.523 . S
C1867 C1851 1.429 . S
C1867 C1863 1.429 . S
C1867 C1868 1.523 . S
C1868 C1852 1.368 . S
C1868 C1864 1.368 . S
C1868 C1867 1.523 . S
H1869 C1844 0.950 . S
H1870 C1846 0.950 . S
H1871 C1847 0.949 . S
H1872 C1849 0.950 . S
H1873 C1851 0.950 . S
C1874 C1875 1.349 . S
C1874 C1876 1.327 . S
C1874 H1899 0.950 . S
C1875 C1874 1.349 . S
C1875 C1891 1.349 . S
C1876 C1874 1.327 . S
C1876 C1895 1.429 . S
C1876 H1900 0.950 . S
C1877 C1894 1.574 . S
C1877 C1896 1.368 . S
C1877 H1901 0.949 . S
H1878 C1882 0.949 . S
C1879 C1880 1.349 . S
C1879 C1881 1.327 . S
C1879 H1902 0.950 . S
C1880 C1879 1.349 . S
C1880 C1892 1.349 . S
C1881 C1879 1.327 . S
C1881 C1897 1.429 . S
C1881 H1903 0.950 . S
C1882 H1878 0.949 . S
C1882 C1890 1.574 . S
C1882 C1898 1.368 . S
H1883 C1891 0.950 . S
H1884 C1889 0.950 . S
H1885 C1890 0.949 . S
H1886 C1892 0.950 . S
H1887 C1893 0.950 . S
H1888 C1894 0.949 . S
C1889 H1884 0.950 . S
C1889 C1891 1.327 . S
C1889 C1895 1.429 . S
C1890 C1882 1.574 . S
C1890 H1885 0.949 . S
C1890 C1896 1.368 . S
C1891 C1875 1.349 . S
C1891 H1883 0.950 . S
C1891 C1889 1.327 . S
C1892 C1880 1.349 . S
C1892 H1886 0.950 . S
C1892 C1893 1.327 . S
C1893 H1887 0.950 . S
C1893 C1892 1.327 . S
C1893 C1897 1.429 . S
C1894 C1877 1.574 . S
C1894 H1888 0.949 . S
C1894 C1898 1.368 . S
C1895 C1876 1.429 . S
C1895 C1889 1.429 . S
C1895 C1896 1.523 . S
C1896 C1877 1.368 . S
C1896 C1890 1.368 . S
C1896 C1895 1.523 . S
C1897 C1881 1.429 . S
C1897 C1893 1.429 . S
C1897 C1898 1.523 . S
C1898 C1882 1.368 . S
C1898 C1894 1.368 . S
C1898 C1897 1.523 . S
H1899 C1874 0.950 . S
H1900 C1876 0.950 . S
H1901 C1877 0.949 . S
H1902 C1879 0.950 . S
H1903 C1881 0.950 . S
C1904 C1905 1.349 . S
C1904 C1906 1.327 . S
C1904 H1929 0.950 . S
C1905 C1904 1.349 . S
C1905 C1921 1.349 . S
C1906 C1904 1.327 . S
C1906 C1925 1.429 . S
C1906 H1930 0.950 . S
C1907 C1924 1.574 . S
C1907 C1926 1.368 . S
C1907 H1931 0.949 . S
H1908 C1912 0.949 . S
C1909 C1910 1.349 . S
C1909 C1911 1.327 . S
C1909 H1932 0.950 . S
C1910 C1909 1.349 . S
C1910 C1922 1.349 . S
C1911 C1909 1.327 . S
C1911 C1927 1.429 . S
C1911 H1933 0.950 . S
C1912 H1908 0.949 . S
C1912 C1920 1.574 . S
C1912 C1928 1.368 . S
H1913 C1921 0.950 . S
H1914 C1919 0.950 . S
H1915 C1920 0.949 . S
H1916 C1922 0.950 . S
H1917 C1923 0.950 . S
H1918 C1924 0.949 . S
C1919 H1914 0.950 . S
C1919 C1921 1.327 . S
C1919 C1925 1.429 . S
C1920 C1912 1.574 . S
C1920 H1915 0.949 . S
C1920 C1926 1.368 . S
C1921 C1905 1.349 . S
C1921 H1913 0.950 . S
C1921 C1919 1.327 . S
C1922 C1910 1.349 . S
C1922 H1916 0.950 . S
C1922 C1923 1.327 . S
C1923 H1917 0.950 . S
C1923 C1922 1.327 . S
C1923 C1927 1.429 . S
C1924 C1907 1.574 . S
C1924 H1918 0.949 . S
C1924 C1928 1.368 . S
C1925 C1906 1.429 . S
C1925 C1919 1.429 . S
C1925 C1926 1.523 . S
C1926 C1907 1.368 . S
C1926 C1920 1.368 . S
C1926 C1925 1.523 . S
C1927 C1911 1.429 . S
C1927 C1923 1.429 . S
C1927 C1928 1.523 . S
C1928 C1912 1.368 . S
C1928 C1924 1.368 . S
C1928 C1927 1.523 . S
H1929 C1904 0.950 . S
H1930 C1906 0.950 . S
H1931 C1907 0.949 . S
H1932 C1909 0.950 . S
H1933 C1911 0.950 . S
C1934 C1935 1.349 . S
C1934 C1936 1.327 . S
C1934 H1959 0.952 1_655 S
C1935 C1934 1.349 . S
C1935 C1951 1.349 . S
C1936 C1934 1.327 . S
C1936 C1955 1.429 . S
C1936 H1960 0.950 1_655 S
C1937 C1954 1.574 . S
C1937 C1956 1.368 . S
C1937 H1961 0.949 . S
H1938 C1942 0.949 . S
C1939 C1940 1.349 1_655 S
C1939 C1941 1.327 . S
C1939 H1962 0.950 . S
C1940 C1939 1.349 1_455 S
C1940 C1952 1.349 . S
C1941 C1939 1.327 . S
C1941 C1957 1.429 . S
C1941 H1963 0.950 . S
C1942 H1938 0.949 . S
C1942 C1950 1.574 . S
C1942 C1958 1.368 1_455 S
H1943 C1951 0.950 . S
H1944 C1949 0.950 . S
H1945 C1950 0.949 . S
H1946 C1952 0.950 . S
H1947 C1953 0.950 . S
H1948 C1954 0.949 . S
C1949 H1944 0.950 . S
C1949 C1951 1.327 . S
C1949 C1955 1.429 . S
C1950 C1942 1.574 . S
C1950 H1945 0.949 . S
C1950 C1956 1.368 1_455 S
C1951 C1935 1.349 . S
C1951 H1943 0.950 . S
C1951 C1949 1.327 . S
C1952 C1940 1.349 . S
C1952 H1946 0.950 . S
C1952 C1953 1.327 . S
C1953 H1947 0.950 . S
C1953 C1952 1.327 . S
C1953 C1957 1.429 1_455 S
C1954 C1937 1.574 . S
C1954 H1948 0.949 . S
C1954 C1958 1.368 . S
C1955 C1936 1.429 . S
C1955 C1949 1.429 . S
C1955 C1956 1.523 . S
C1956 C1937 1.368 . S
C1956 C1950 1.368 1_655 S
C1956 C1955 1.523 . S
C1957 C1941 1.429 . S
C1957 C1953 1.429 1_655 S
C1957 C1958 1.523 . S
C1958 C1942 1.368 1_655 S
C1958 C1954 1.368 . S
C1958 C1957 1.523 . S
H1959 C1934 0.952 1_455 S
H1960 C1936 0.950 1_455 S
H1961 C1937 0.949 . S
H1962 C1939 0.950 . S
H1963 C1941 0.950 . S
C1964 C1965 1.349 . S
C1964 C1966 1.327 . S
C1964 H1989 0.950 . S
C1965 C1964 1.349 . S
C1965 C1981 1.349 . S
C1966 C1964 1.327 . S
C1966 C1985 1.429 . S
C1966 H1990 0.950 . S
C1967 C1984 1.574 . S
C1967 C1986 1.368 . S
C1967 H1991 0.949 . S
H1968 C1972 0.949 . S
C1969 C1970 1.349 . S
C1969 C1971 1.327 . S
C1969 H1992 0.950 . S
C1970 C1969 1.349 . S
C1970 C1982 1.349 . S
C1971 C1969 1.327 . S
C1971 C1987 1.429 . S
C1971 H1993 0.950 . S
C1972 H1968 0.949 . S
C1972 C1980 1.574 . S
C1972 C1988 1.368 . S
H1973 C1981 0.950 . S
H1974 C1979 0.950 . S
H1975 C1980 0.949 . S
H1976 C1982 0.950 . S
H1977 C1983 0.950 . S
H1978 C1984 0.949 . S
C1979 H1974 0.950 . S
C1979 C1981 1.327 . S
C1979 C1985 1.429 . S
C1980 C1972 1.574 . S
C1980 H1975 0.949 . S
C1980 C1986 1.368 . S
C1981 C1965 1.349 . S
C1981 H1973 0.950 . S
C1981 C1979 1.327 . S
C1982 C1970 1.349 . S
C1982 H1976 0.950 . S
C1982 C1983 1.327 . S
C1983 H1977 0.950 . S
C1983 C1982 1.327 . S
C1983 C1987 1.429 . S
C1984 C1967 1.574 . S
C1984 H1978 0.949 . S
C1984 C1988 1.368 . S
C1985 C1966 1.429 . S
C1985 C1979 1.429 . S
C1985 C1986 1.523 . S
C1986 C1967 1.368 . S
C1986 C1980 1.368 . S
C1986 C1985 1.523 . S
C1987 C1971 1.429 . S
C1987 C1983 1.429 . S
C1987 C1988 1.523 . S
C1988 C1972 1.368 . S
C1988 C1984 1.368 . S
C1988 C1987 1.523 . S
H1989 C1964 0.950 . S
H1990 C1966 0.950 . S
H1991 C1967 0.949 . S
H1992 C1969 0.950 . S
H1993 C1971 0.950 . S
C1994 C1995 1.349 . S
C1994 C1996 1.327 . S
C1994 H2019 0.950 . S
C1995 C1994 1.349 . S
C1995 C2011 1.349 . S
C1996 C1994 1.327 . S
C1996 C2015 1.429 . S
C1996 H2020 0.950 . S
C1997 C2014 1.574 . S
C1997 C2016 1.368 . S
C1997 H2021 0.949 . S
H1998 C2002 0.986 . S
C1999 C2000 1.349 . S
C1999 C2001 1.327 . S
C1999 H2022 0.950 . S
C2000 C1999 1.349 . S
C2000 C2012 1.349 . S
C2001 C1999 1.327 . S
C2001 C2017 1.429 . S
C2001 H2023 0.950 . S
C2002 H1998 0.986 . S
C2002 C2010 1.574 . S
C2002 C2018 1.368 . S
H2003 C2011 0.950 1_554 S
H2004 C2009 0.950 . S
H2005 C2010 0.949 . S
H2006 C2012 0.950 1_655 S
H2007 C2013 0.950 1_655 S
H2008 C2014 0.949 . S
C2009 H2004 0.950 . S
C2009 C2011 1.327 . S
C2009 C2015 1.429 . S
C2010 C2002 1.574 . S
C2010 H2005 0.949 . S
C2010 C2016 1.368 . S
C2011 C1995 1.349 . S
C2011 H2003 0.950 1_556 S
C2011 C2009 1.327 . S
C2012 C2000 1.349 . S
C2012 H2006 0.950 1_455 S
C2012 C2013 1.327 . S
C2013 H2007 0.950 1_455 S
C2013 C2012 1.327 . S
C2013 C2017 1.429 . S
C2014 C1997 1.574 . S
C2014 H2008 0.949 . S
C2014 C2018 1.368 . S
C2015 C1996 1.429 . S
C2015 C2009 1.429 . S
C2015 C2016 1.523 . S
C2016 C1997 1.368 . S
C2016 C2010 1.368 . S
C2016 C2015 1.523 . S
C2017 C2001 1.429 . S
C2017 C2013 1.429 . S
C2017 C2018 1.523 . S
C2018 C2002 1.368 . S
C2018 C2014 1.368 . S
C2018 C2017 1.523 . S
H2019 C1994 0.950 . S
H2020 C1996 0.950 . S
H2021 C1997 0.949 . S
H2022 C1999 0.950 . S
H2023 C2001 0.950 . S
C2024 C2025 1.349 . S
C2024 C2026 1.327 . S
C2024 H2049 0.950 . S
C2025 C2024 1.349 . S
C2025 C2041 1.349 . S
C2026 C2024 1.327 . S
C2026 C2045 1.429 . S
C2026 H2050 0.950 . S
C2027 C2044 1.574 . S
C2027 C2046 1.368 . S
C2027 H2051 0.949 . S
H2028 C2032 0.949 . S
C2029 C2030 1.349 . S
C2029 C2031 1.327 . S
C2029 H2052 0.950 . S
C2030 C2029 1.349 . S
C2030 C2042 1.349 . S
C2031 C2029 1.327 . S
C2031 C2047 1.429 . S
C2031 H2053 0.950 . S
C2032 H2028 0.949 . S
C2032 C2040 1.574 . S
C2032 C2048 1.368 . S
H2033 C2041 0.950 . S
H2034 C2039 0.950 . S
H2035 C2040 0.949 . S
H2036 C2042 0.950 . S
H2037 C2043 0.950 . S
H2038 C2044 0.949 . S
C2039 H2034 0.950 . S
C2039 C2041 1.327 . S
C2039 C2045 1.429 . S
C2040 C2032 1.574 . S
C2040 H2035 0.949 . S
C2040 C2046 1.368 . S
C2041 C2025 1.349 . S
C2041 H2033 0.950 . S
C2041 C2039 1.327 . S
C2042 C2030 1.349 . S
C2042 H2036 0.950 . S
C2042 C2043 1.327 . S
C2043 H2037 0.950 . S
C2043 C2042 1.327 . S
C2043 C2047 1.429 . S
C2044 C2027 1.574 . S
C2044 H2038 0.949 . S
C2044 C2048 1.368 . S
C2045 C2026 1.429 . S
C2045 C2039 1.429 . S
C2045 C2046 1.523 . S
C2046 C2027 1.368 . S
C2046 C2040 1.368 . S
C2046 C2045 1.523 . S
C2047 C2031 1.429 . S
C2047 C2043 1.429 . S
C2047 C2048 1.523 . S
C2048 C2032 1.368 . S
C2048 C2044 1.368 . S
C2048 C2047 1.523 . S
H2049 C2024 0.950 . S
H2050 C2026 0.950 . S
H2051 C2027 0.949 . S
H2052 C2029 0.950 . S
H2053 C2031 0.950 . S
C2054 C2055 1.349 . S
C2054 C2056 1.327 . S
C2054 H2079 0.950 . S
C2055 C2054 1.349 . S
C2055 C2071 1.349 . S
C2056 C2054 1.327 . S
C2056 C2075 1.429 . S
C2056 H2080 0.950 . S
C2057 C2074 1.574 . S
C2057 C2076 1.368 . S
C2057 H2081 0.949 . S
H2058 C2062 0.949 . S
C2059 C2060 1.349 . S
C2059 C2061 1.327 . S
C2059 H2082 0.950 . S
C2060 C2059 1.349 . S
C2060 C2072 1.349 . S
C2061 C2059 1.327 . S
C2061 C2077 1.429 . S
C2061 H2083 0.950 . S
C2062 H2058 0.949 . S
C2062 C2070 1.574 . S
C2062 C2078 1.368 . S
H2063 C2071 0.950 . S
H2064 C2069 0.950 . S
H2065 C2070 0.949 . S
H2066 C2072 0.950 . S
H2067 C2073 0.950 . S
H2068 C2074 0.949 . S
C2069 H2064 0.950 . S
C2069 C2071 1.327 . S
C2069 C2075 1.429 . S
C2070 C2062 1.574 . S
C2070 H2065 0.949 . S
C2070 C2076 1.368 . S
C2071 C2055 1.349 . S
C2071 H2063 0.950 . S
C2071 C2069 1.327 . S
C2072 C2060 1.349 . S
C2072 H2066 0.950 . S
C2072 C2073 1.327 . S
C2073 H2067 0.950 . S
C2073 C2072 1.327 . S
C2073 C2077 1.429 . S
C2074 C2057 1.574 . S
C2074 H2068 0.949 . S
C2074 C2078 1.368 . S
C2075 C2056 1.429 . S
C2075 C2069 1.429 . S
C2075 C2076 1.523 . S
C2076 C2057 1.368 . S
C2076 C2070 1.368 . S
C2076 C2075 1.523 . S
C2077 C2061 1.429 . S
C2077 C2073 1.429 . S
C2077 C2078 1.523 . S
C2078 C2062 1.368 . S
C2078 C2074 1.368 . S
C2078 C2077 1.523 . S
H2079 C2054 0.950 . S
H2080 C2056 0.950 . S
H2081 C2057 0.949 . S
H2082 C2059 0.950 . S
H2083 C2061 0.950 . S
C2084 C2085 1.349 . S
C2084 C2086 1.327 . S
C2084 H2109 0.950 . S
C2085 C2084 1.349 . S
C2085 C2101 1.349 . S
C2086 C2084 1.327 . S
C2086 C2105 1.429 . S
C2086 H2110 0.950 . S
C2087 C2104 1.574 . S
C2087 C2106 1.368 . S
C2087 H2111 0.949 . S
H2088 C2092 0.949 . S
C2089 C2090 1.349 . S
C2089 C2091 1.327 . S
C2089 H2112 0.950 . S
C2090 C2089 1.349 . S
C2090 C2102 1.349 . S
C2091 C2089 1.327 . S
C2091 C2107 1.429 . S
C2091 H2113 0.950 . S
C2092 H2088 0.949 . S
C2092 C2100 1.574 . S
C2092 C2108 1.368 . S
H2093 C2101 0.950 . S
H2094 C2099 0.950 . S
H2095 C2100 0.949 . S
H2096 C2102 0.950 . S
H2097 C2103 0.950 . S
H2098 C2104 0.949 . S
C2099 H2094 0.950 . S
C2099 C2101 1.327 . S
C2099 C2105 1.429 . S
C2100 C2092 1.574 . S
C2100 H2095 0.949 . S
C2100 C2106 1.368 . S
C2101 C2085 1.349 . S
C2101 H2093 0.950 . S
C2101 C2099 1.327 . S
C2102 C2090 1.349 . S
C2102 H2096 0.950 . S
C2102 C2103 1.327 . S
C2103 H2097 0.950 . S
C2103 C2102 1.327 . S
C2103 C2107 1.429 . S
C2104 C2087 1.574 . S
C2104 H2098 0.949 . S
C2104 C2108 1.368 . S
C2105 C2086 1.429 . S
C2105 C2099 1.429 . S
C2105 C2106 1.523 . S
C2106 C2087 1.368 . S
C2106 C2100 1.368 . S
C2106 C2105 1.523 . S
C2107 C2091 1.429 . S
C2107 C2103 1.429 . S
C2107 C2108 1.523 . S
C2108 C2092 1.368 . S
C2108 C2104 1.368 . S
C2108 C2107 1.523 . S
H2109 C2084 0.950 . S
H2110 C2086 0.950 . S
H2111 C2087 0.949 . S
H2112 C2089 0.950 . S
H2113 C2091 0.950 . S
C2114 C2115 1.349 . S
C2114 C2116 1.327 . S
C2114 H2139 0.950 . S
C2115 C2114 1.349 . S
C2115 C2131 1.349 . S
C2116 C2114 1.327 . S
C2116 C2135 1.429 . S
C2116 H2140 0.950 . S
C2117 C2134 1.574 . S
C2117 C2136 1.368 . S
C2117 H2141 0.949 . S
H2118 C2122 0.949 . S
C2119 C2120 1.349 . S
C2119 C2121 1.327 . S
C2119 H2142 0.950 . S
C2120 C2119 1.349 . S
C2120 C2132 1.349 . S
C2121 C2119 1.327 . S
C2121 C2137 1.429 . S
C2121 H2143 0.950 . S
C2122 H2118 0.949 . S
C2122 C2130 1.574 . S
C2122 C2138 1.368 . S
H2123 C2131 0.950 . S
H2124 C2129 0.950 . S
H2125 C2130 0.949 . S
H2126 C2132 0.950 . S
H2127 C2133 0.950 . S
H2128 C2134 0.949 . S
C2129 H2124 0.950 . S
C2129 C2131 1.327 . S
C2129 C2135 1.429 . S
C2130 C2122 1.574 . S
C2130 H2125 0.949 . S
C2130 C2136 1.368 . S
C2131 C2115 1.349 . S
C2131 H2123 0.950 . S
C2131 C2129 1.327 . S
C2132 C2120 1.349 . S
C2132 H2126 0.950 . S
C2132 C2133 1.327 . S
C2133 H2127 0.950 . S
C2133 C2132 1.327 . S
C2133 C2137 1.429 . S
C2134 C2117 1.574 . S
C2134 H2128 0.949 . S
C2134 C2138 1.368 . S
C2135 C2116 1.429 . S
C2135 C2129 1.429 . S
C2135 C2136 1.523 . S
C2136 C2117 1.368 . S
C2136 C2130 1.368 . S
C2136 C2135 1.523 . S
C2137 C2121 1.429 . S
C2137 C2133 1.429 . S
C2137 C2138 1.523 . S
C2138 C2122 1.368 . S
C2138 C2134 1.368 . S
C2138 C2137 1.523 . S
H2139 C2114 0.950 . S
H2140 C2116 0.950 . S
H2141 C2117 0.949 . S
H2142 C2119 0.950 . S
H2143 C2121 0.950 . S
C2144 C2145 1.349 . S
C2144 C2146 1.327 . S
C2144 H2169 0.950 . S
C2145 C2144 1.349 . S
C2145 C2161 1.349 . S
C2146 C2144 1.327 . S
C2146 C2165 1.429 . S
C2146 H2170 0.950 . S
C2147 C2164 1.574 . S
C2147 C2166 1.368 . S
C2147 H2171 0.949 . S
H2148 C2152 0.949 . S
C2149 C2150 1.349 . S
C2149 C2151 1.327 . S
C2149 H2172 0.950 . S
C2150 C2149 1.349 . S
C2150 C2162 1.349 . S
C2151 C2149 1.327 . S
C2151 C2167 1.429 . S
C2151 H2173 0.950 . S
C2152 H2148 0.949 . S
C2152 C2160 1.574 . S
C2152 C2168 1.368 . S
H2153 C2161 0.950 . S
H2154 C2159 0.950 . S
H2155 C2160 0.949 . S
H2156 C2162 0.950 . S
H2157 C2163 0.950 . S
H2158 C2164 0.949 . S
C2159 H2154 0.950 . S
C2159 C2161 1.327 . S
C2159 C2165 1.429 . S
C2160 C2152 1.574 . S
C2160 H2155 0.949 . S
C2160 C2166 1.368 . S
C2161 C2145 1.349 . S
C2161 H2153 0.950 . S
C2161 C2159 1.327 . S
C2162 C2150 1.349 . S
C2162 H2156 0.950 . S
C2162 C2163 1.327 . S
C2163 H2157 0.950 . S
C2163 C2162 1.327 . S
C2163 C2167 1.429 . S
C2164 C2147 1.574 . S
C2164 H2158 0.949 . S
C2164 C2168 1.368 . S
C2165 C2146 1.429 . S
C2165 C2159 1.429 . S
C2165 C2166 1.523 . S
C2166 C2147 1.368 . S
C2166 C2160 1.368 . S
C2166 C2165 1.523 . S
C2167 C2151 1.429 . S
C2167 C2163 1.429 . S
C2167 C2168 1.523 . S
C2168 C2152 1.368 . S
C2168 C2164 1.368 . S
C2168 C2167 1.523 . S
H2169 C2144 0.950 . S
H2170 C2146 0.950 . S
H2171 C2147 0.949 . S
H2172 C2149 0.950 . S
H2173 C2151 0.950 . S
C2174 C2175 1.349 . S
C2174 C2176 1.327 . S
C2174 H2199 0.950 . S
C2175 C2174 1.349 . S
C2175 C2191 1.349 . S
C2176 C2174 1.327 . S
C2176 C2195 1.429 . S
C2176 H2200 0.950 . S
C2177 C2194 1.574 . S
C2177 C2196 1.368 . S
C2177 H2201 0.949 . S
H2178 C2182 0.949 . S
C2179 C2180 1.349 . S
C2179 C2181 1.327 . S
C2179 H2202 0.950 . S
C2180 C2179 1.349 . S
C2180 C2192 1.349 . S
C2181 C2179 1.327 . S
C2181 C2197 1.429 . S
C2181 H2203 0.950 . S
C2182 H2178 0.949 . S
C2182 C2190 1.574 . S
C2182 C2198 1.368 . S
H2183 C2191 0.950 . S
H2184 C2189 0.950 . S
H2185 C2190 0.949 . S
H2186 C2192 0.950 . S
H2187 C2193 0.950 . S
H2188 C2194 0.949 . S
C2189 H2184 0.950 . S
C2189 C2191 1.327 . S
C2189 C2195 1.429 . S
C2190 C2182 1.574 . S
C2190 H2185 0.949 . S
C2190 C2196 1.368 . S
C2191 C2175 1.349 . S
C2191 H2183 0.950 . S
C2191 C2189 1.327 . S
C2192 C2180 1.349 . S
C2192 H2186 0.950 . S
C2192 C2193 1.327 . S
C2193 H2187 0.950 . S
C2193 C2192 1.327 . S
C2193 C2197 1.429 . S
C2194 C2177 1.574 . S
C2194 H2188 0.949 . S
C2194 C2198 1.368 . S
C2195 C2176 1.429 . S
C2195 C2189 1.429 . S
C2195 C2196 1.523 . S
C2196 C2177 1.368 . S
C2196 C2190 1.368 . S
C2196 C2195 1.523 . S
C2197 C2181 1.429 . S
C2197 C2193 1.429 . S
C2197 C2198 1.523 . S
C2198 C2182 1.368 . S
C2198 C2194 1.368 . S
C2198 C2197 1.523 . S
H2199 C2174 0.950 . S
H2200 C2176 0.950 . S
H2201 C2177 0.949 . S
H2202 C2179 0.950 . S
H2203 C2181 0.950 . S
C2204 C2205 1.349 . S
C2204 C2206 1.327 . S
C2204 H2229 0.950 . S
C2205 C2204 1.349 . S
C2205 C2221 1.349 . S
C2206 C2204 1.327 . S
C2206 C2225 1.429 . S
C2206 H2230 0.950 . S
C2207 C2224 1.574 . S
C2207 C2226 1.368 . S
C2207 H2231 0.949 . S
H2208 C2212 0.949 . S
C2209 C2210 1.349 . S
C2209 C2211 1.327 . S
C2209 H2232 0.950 . S
C2210 C2209 1.349 . S
C2210 C2222 1.349 . S
C2211 C2209 1.327 . S
C2211 C2227 1.429 . S
C2211 H2233 0.950 . S
C2212 H2208 0.949 . S
C2212 C2220 1.574 . S
C2212 C2228 1.368 . S
H2213 C2221 0.950 . S
H2214 C2219 0.950 . S
H2215 C2220 0.949 . S
H2216 C2222 0.950 . S
H2217 C2223 0.950 . S
H2218 C2224 0.949 . S
C2219 H2214 0.950 . S
C2219 C2221 1.327 . S
C2219 C2225 1.429 . S
C2220 C2212 1.574 . S
C2220 H2215 0.949 . S
C2220 C2226 1.368 . S
C2221 C2205 1.349 . S
C2221 H2213 0.950 . S
C2221 C2219 1.327 . S
C2222 C2210 1.349 . S
C2222 H2216 0.950 . S
C2222 C2223 1.327 . S
C2223 H2217 0.950 . S
C2223 C2222 1.327 . S
C2223 C2227 1.429 . S
C2224 C2207 1.574 . S
C2224 H2218 0.949 . S
C2224 C2228 1.368 . S
C2225 C2206 1.429 . S
C2225 C2219 1.429 . S
C2225 C2226 1.523 . S
C2226 C2207 1.368 . S
C2226 C2220 1.368 . S
C2226 C2225 1.523 . S
C2227 C2211 1.429 . S
C2227 C2223 1.429 . S
C2227 C2228 1.523 . S
C2228 C2212 1.368 . S
C2228 C2224 1.368 . S
C2228 C2227 1.523 . S
H2229 C2204 0.950 . S
H2230 C2206 0.950 . S
H2231 C2207 0.949 . S
H2232 C2209 0.950 . S
H2233 C2211 0.950 . S
C2234 C2235 1.349 . S
C2234 C2236 1.327 . S
C2234 H2259 0.950 . S
C2235 C2234 1.349 . S
C2235 C2251 1.349 . S
C2236 C2234 1.327 . S
C2236 C2255 1.429 . S
C2236 H2260 0.950 . S
C2237 C2254 1.574 . S
C2237 C2256 1.368 . S
C2237 H2261 0.949 . S
H2238 C2242 0.949 . S
C2239 C2240 1.349 . S
C2239 C2241 1.327 . S
C2239 H2262 0.950 . S
C2240 C2239 1.349 . S
C2240 C2252 1.349 . S
C2241 C2239 1.327 . S
C2241 C2257 1.429 . S
C2241 H2263 0.950 . S
C2242 H2238 0.949 . S
C2242 C2250 1.574 . S
C2242 C2258 1.368 . S
H2243 C2251 0.950 . S
H2244 C2249 0.950 . S
H2245 C2250 0.949 . S
H2246 C2252 0.950 . S
H2247 C2253 0.950 . S
H2248 C2254 0.949 . S
C2249 H2244 0.950 . S
C2249 C2251 1.327 . S
C2249 C2255 1.429 . S
C2250 C2242 1.574 . S
C2250 H2245 0.949 . S
C2250 C2256 1.368 . S
C2251 C2235 1.349 . S
C2251 H2243 0.950 . S
C2251 C2249 1.327 . S
C2252 C2240 1.349 . S
C2252 H2246 0.950 . S
C2252 C2253 1.327 . S
C2253 H2247 0.950 . S
C2253 C2252 1.327 . S
C2253 C2257 1.429 . S
C2254 C2237 1.574 . S
C2254 H2248 0.949 . S
C2254 C2258 1.368 . S
C2255 C2236 1.429 . S
C2255 C2249 1.429 . S
C2255 C2256 1.523 . S
C2256 C2237 1.368 . S
C2256 C2250 1.368 . S
C2256 C2255 1.523 . S
C2257 C2241 1.429 . S
C2257 C2253 1.429 . S
C2257 C2258 1.523 . S
C2258 C2242 1.368 . S
C2258 C2254 1.368 . S
C2258 C2257 1.523 . S
H2259 C2234 0.950 . S
H2260 C2236 0.950 . S
H2261 C2237 0.949 . S
H2262 C2239 0.950 . S
H2263 C2241 0.950 . S
C2264 C2265 1.349 . S
C2264 C2266 1.327 . S
C2264 H2289 0.950 . S
C2265 C2264 1.349 . S
C2265 C2281 1.349 . S
C2266 C2264 1.327 . S
C2266 C2285 1.429 . S
C2266 H2290 0.950 . S
C2267 C2284 1.578 . S
C2267 C2286 1.368 . S
C2267 H2291 0.949 1_556 S
H2268 C2272 0.949 . S
C2269 C2270 1.349 1_554 S
C2269 C2271 1.327 . S
C2269 H2292 0.950 . S
C2270 C2269 1.349 1_556 S
C2270 C2282 1.349 . S
C2271 C2269 1.327 . S
C2271 C2287 1.429 1_554 S
C2271 H2293 0.950 . S
C2272 H2268 0.949 . S
C2272 C2280 1.574 . S
C2272 C2288 1.368 . S
H2273 C2281 0.950 . S
H2274 C2279 0.937 1_554 S
H2275 C2280 0.949 . S
H2276 C2282 0.950 . S
H2277 C2283 0.950 . S
H2278 C2284 0.928 1_554 S
C2279 H2274 0.937 1_556 S
C2279 C2281 1.327 . S
C2279 C2285 1.429 . S
C2280 C2272 1.574 . S
C2280 H2275 0.949 . S
C2280 C2286 1.368 . S
C2281 C2265 1.349 . S
C2281 H2273 0.950 . S
C2281 C2279 1.327 . S
C2282 C2270 1.349 . S
C2282 H2276 0.950 . S
C2282 C2283 1.327 . S
C2283 H2277 0.950 . S
C2283 C2282 1.327 . S
C2283 C2287 1.429 . S
C2284 C2267 1.578 . S
C2284 H2278 0.928 1_556 S
C2284 C2288 1.388 . S
C2285 C2266 1.429 . S
C2285 C2279 1.429 . S
C2285 C2286 1.523 . S
C2286 C2267 1.368 . S
C2286 C2280 1.368 . S
C2286 C2285 1.523 . S
C2287 C2271 1.429 1_556 S
C2287 C2283 1.429 . S
C2287 C2288 1.523 . S
C2288 C2272 1.368 . S
C2288 C2284 1.388 . S
C2288 C2287 1.523 . S
H2289 C2264 0.950 . S
H2290 C2266 0.950 . S
H2291 C2267 0.949 1_554 S
H2292 C2269 0.950 . S
H2293 C2271 0.950 . S
C2294 C2295 1.349 . S
C2294 C2296 1.327 . S
C2294 H2319 0.950 . S
C2295 C2294 1.349 . S
C2295 C2311 1.349 . S
C2296 C2294 1.327 . S
C2296 C2315 1.429 . S
C2296 H2320 0.950 . S
C2297 C2314 1.574 . S
C2297 C2316 1.368 . S
C2297 H2321 0.949 . S
H2298 C2302 0.949 . S
C2299 C2300 1.349 . S
C2299 C2301 1.327 . S
C2299 H2322 0.950 . S
C2300 C2299 1.349 . S
C2300 C2312 1.349 . S
C2301 C2299 1.327 . S
C2301 C2317 1.429 . S
C2301 H2323 0.950 . S
C2302 H2298 0.949 . S
C2302 C2310 1.574 . S
C2302 C2318 1.368 . S
H2303 C2311 0.950 . S
H2304 C2309 0.950 . S
H2305 C2310 0.949 . S
H2306 C2312 0.950 . S
H2307 C2313 0.950 . S
H2308 C2314 0.949 . S
C2309 H2304 0.950 . S
C2309 C2311 1.327 . S
C2309 C2315 1.429 . S
C2310 C2302 1.574 . S
C2310 H2305 0.949 . S
C2310 C2316 1.368 . S
C2311 C2295 1.349 . S
C2311 H2303 0.950 . S
C2311 C2309 1.327 . S
C2312 C2300 1.349 . S
C2312 H2306 0.950 . S
C2312 C2313 1.327 . S
C2313 H2307 0.950 . S
C2313 C2312 1.327 . S
C2313 C2317 1.429 . S
C2314 C2297 1.574 . S
C2314 H2308 0.949 . S
C2314 C2318 1.368 . S
C2315 C2296 1.429 . S
C2315 C2309 1.429 . S
C2315 C2316 1.523 . S
C2316 C2297 1.368 . S
C2316 C2310 1.368 . S
C2316 C2315 1.523 . S
C2317 C2301 1.429 . S
C2317 C2313 1.429 . S
C2317 C2318 1.523 . S
C2318 C2302 1.368 . S
C2318 C2314 1.368 . S
C2318 C2317 1.523 . S
H2319 C2294 0.950 . S
H2320 C2296 0.950 . S
H2321 C2297 0.949 . S
H2322 C2299 0.950 . S
H2323 C2301 0.950 . S
C2324 C2325 1.349 . S
C2324 C2326 1.327 . S
C2324 H2349 0.950 . S
C2325 C2324 1.349 . S
C2325 C2341 1.349 . S
C2326 C2324 1.327 . S
C2326 C2345 1.429 . S
C2326 H2350 0.950 . S
C2327 C2344 1.574 . S
C2327 C2346 1.368 . S
C2327 H2351 0.949 . S
H2328 C2332 0.949 . S
C2329 C2330 1.349 . S
C2329 C2331 1.327 . S
C2329 H2352 0.950 . S
C2330 C2329 1.349 . S
C2330 C2342 1.349 . S
C2331 C2329 1.327 . S
C2331 C2347 1.429 . S
C2331 H2353 0.950 . S
C2332 H2328 0.949 . S
C2332 C2340 1.574 . S
C2332 C2348 1.368 . S
H2333 C2341 0.950 . S
H2334 C2339 0.950 . S
H2335 C2340 0.949 . S
H2336 C2342 0.957 . S
H2337 C2343 0.950 . S
H2338 C2344 0.949 . S
C2339 H2334 0.950 . S
C2339 C2341 1.327 . S
C2339 C2345 1.429 . S
C2340 C2332 1.574 . S
C2340 H2335 0.949 . S
C2340 C2346 1.368 . S
C2341 C2325 1.349 . S
C2341 H2333 0.950 . S
C2341 C2339 1.327 . S
C2342 C2330 1.349 . S
C2342 H2336 0.957 . S
C2342 C2343 1.327 . S
C2343 H2337 0.950 . S
C2343 C2342 1.327 . S
C2343 C2347 1.429 . S
C2344 C2327 1.574 . S
C2344 H2338 0.949 . S
C2344 C2348 1.368 . S
C2345 C2326 1.429 . S
C2345 C2339 1.429 . S
C2345 C2346 1.523 . S
C2346 C2327 1.368 . S
C2346 C2340 1.368 . S
C2346 C2345 1.523 . S
C2347 C2331 1.429 . S
C2347 C2343 1.429 . S
C2347 C2348 1.523 . S
C2348 C2332 1.368 . S
C2348 C2344 1.368 . S
C2348 C2347 1.523 . S
H2349 C2324 0.950 . S
H2350 C2326 0.950 . S
H2351 C2327 0.949 . S
H2352 C2329 0.950 . S
H2353 C2331 0.950 . S
C2354 C2355 1.349 . S
C2354 C2356 1.327 . S
C2354 H2379 0.950 . S
C2355 C2354 1.349 . S
C2355 C2371 1.349 . S
C2356 C2354 1.327 . S
C2356 C2375 1.429 . S
C2356 H2380 0.950 . S
C2357 C2374 1.574 . S
C2357 C2376 1.368 . S
C2357 H2381 0.949 1_554 S
H2358 C2362 0.949 . S
C2359 C2360 1.316 1_556 S
C2359 C2361 1.322 1_556 S
C2359 H2382 0.989 . S
C2360 C2359 1.316 1_554 S
C2360 C2372 1.349 . S
C2361 C2359 1.322 1_554 S
C2361 C2377 1.463 . S
C2361 H2383 0.919 1_554 S
C2362 H2358 0.949 . S
C2362 C2370 1.574 . S
C2362 C2378 1.368 . S
H2363 C2371 0.950 . S
H2364 C2369 0.976 . S
H2365 C2370 0.949 . S
H2366 C2372 0.950 . S
H2367 C2373 0.950 . S
H2368 C2374 0.949 1_556 S
C2369 H2364 0.976 . S
C2369 C2371 1.327 . S
C2369 C2375 1.429 . S
C2370 C2362 1.574 . S
C2370 H2365 0.949 . S
C2370 C2376 1.368 . S
C2371 C2355 1.349 . S
C2371 H2363 0.950 . S
C2371 C2369 1.327 . S
C2372 C2360 1.349 . S
C2372 H2366 0.950 . S
C2372 C2373 1.327 . S
C2373 H2367 0.950 . S
C2373 C2372 1.327 . S
C2373 C2377 1.429 . S
C2374 C2357 1.574 . S
C2374 H2368 0.949 1_554 S
C2374 C2378 1.368 . S
C2375 C2356 1.429 . S
C2375 C2369 1.429 . S
C2375 C2376 1.523 . S
C2376 C2357 1.368 . S
C2376 C2370 1.368 . S
C2376 C2375 1.523 . S
C2377 C2361 1.463 . S
C2377 C2373 1.429 . S
C2377 C2378 1.523 . S
C2378 C2362 1.368 . S
C2378 C2374 1.368 . S
C2378 C2377 1.523 . S
H2379 C2354 0.950 . S
H2380 C2356 0.950 . S
H2381 C2357 0.949 1_556 S
H2382 C2359 0.989 . S
H2383 C2361 0.919 1_556 S
C950 C514 1.383 . S
C945 C177 1.340 . S
C980 C562 1.672 . S
C975 C209 1.706 . S
C1005 C253 1.341 . S
C1010 C598 1.292 . S
C1040 C634 1.608 . S
C1035 C157 1.621 1_655 S
C1070 C660 1.455 . S
C1065 C343 1.458 . S
C1100 C696 1.587 . S
C1095 C401 1.553 . S
C1125 C369 1.492 . S
C1130 C731 1.499 . S
C1160 C768 1.619 1_565 S
C1155 C317 1.601 . S
C1185 C375 1.433 . S
C1190 C802 1.426 . S
C1220 C850 1.615 . S
C1215 C305 1.650 . S
C1245 C349 1.438 . S
C1250 C803 1.445 . S
C1280 C840 1.636 . S
C1275 C413 1.591 . S
C1305 C241 1.406 . S
C1310 C886 1.356 . S
C1335 C151 1.580 . S
C1340 C875 1.612 . S
C1365 C189 1.414 . S
C1370 C876 1.479 . S
C1395 C215 1.643 . S
C1400 C874 1.658 1_655 S
C1425 C113 1.412 . S
C1430 C622 1.401 . S
C1455 C471 1.345 . S
C1460 C623 1.406 . S
C1490 C526 1.630 . S
C1485 C509 1.652 1_565 S
C1520 C551 1.443 . S
C1515 C279 1.435 . S
C1545 C145 1.569 . S
C1550 C658 1.597 . S
C1580 C766 1.500 . S
C1575 C381 1.503 . S
C1610 C659 1.630 . S
C1605 C311 1.614 . S
C1640 C732 1.623 . S
C1635 C407 1.585 . S
C1670 C730 1.384 . S
C1665 C465 1.341 . S
C1695 C497 1.706 . S
C1700 C778 1.672 . S
C1725 C285 1.341 . S
C1730 C670 1.292 . S
C1760 C706 1.608 . S
C1755 C445 1.621 . S
C1785 C119 1.458 . S
C1790 C588 1.455 . S
C1820 C624 1.587 . S
C1815 C17 1.552 1_655 S
C1850 C515 1.499 . S
C1845 C49 1.491 . S
C1880 C552 1.625 . S
C1875 C93 1.601 . S
C1905 C55 1.434 . S
C1910 C838 1.426 . S
C1935 C81 1.650 . S
C1940 C814 1.615 . S
C1965 C125 1.438 . S
C1970 C839 1.445 . S
C1995 C29 1.591 1_556 S
C2000 C804 1.636 . S
C2030 C922 1.356 . S
C2025 C273 1.406 . S
C2060 C911 1.612 . S
C2055 C439 1.580 . S
C2090 C912 1.479 . S
C2085 C477 1.414 . S
C2115 C503 1.643 . S
C2120 C910 1.657 . S
C2145 C337 1.412 . S
C2150 C694 1.401 . S
C2180 C695 1.406 . S
C2175 C183 1.345 . S
C2210 C742 1.630 . S
C2205 C221 1.653 . S
C2240 C767 1.443 . S
C2235 C247 1.438 . S
C2265 C433 1.569 . S
C2270 C586 1.600 . S
C2300 C550 1.500 . S
C2295 C61 1.506 . S
C2325 C87 1.614 . S
C2330 C587 1.629 . S
C2360 C516 1.623 . S
C2355 C23 1.553 1_565 S
