# Generated by pormake.
# Topology rtl, (3,6)-cn, num edge types: 1
# Building blocks:
#     Node 0, Type 0, BuildingBlock: KAKCAD_clean_linker_0, # of connection points: 3
#     Node 1, Type 0, BuildingBlock: KAKCAD_clean_linker_0, # of connection points: 3
#     Node 2, Type 0, BuildingBlock: KAKCAD_clean_linker_0, # of connection points: 3
#     Node 3, Type 0, BuildingBlock: KAKCAD_clean_linker_0, # of connection points: 3
#     Node 4, Type 1, BuildingBlock: VOLQOD_clean_sbu_1, # of connection points: 6
#     Node 5, Type 1, BuildingBlock: VOLQOD_clean_sbu_1, # of connection points: 6
#     Edge 6, Type (0, 1), BuildingBlock: XUDNAN_clean_linker_2, # of connection points: 2
#     Edge 7, Type (0, 1), BuildingBlock: XUDNAN_clean_linker_2, # of connection points: 2
#     Edge 8, Type (0, 1), BuildingBlock: XUDNAN_clean_linker_2, # of connection points: 2
#     Edge 9, Type (0, 1), BuildingBlock: XUDNAN_clean_linker_2, # of connection points: 2
#     Edge 10, Type (0, 1), BuildingBlock: XUDNAN_clean_linker_2, # of connection points: 2
#     Edge 11, Type (0, 1), BuildingBlock: XUDNAN_clean_linker_2, # of connection points: 2
#     Edge 12, Type (0, 1), BuildingBlock: XUDNAN_clean_linker_2, # of connection points: 2
#     Edge 13, Type (0, 1), BuildingBlock: XUDNAN_clean_linker_2, # of connection points: 2
#     Edge 14, Type (0, 1), BuildingBlock: XUDNAN_clean_linker_2, # of connection points: 2
#     Edge 15, Type (0, 1), BuildingBlock: XUDNAN_clean_linker_2, # of connection points: 2
#     Edge 16, Type (0, 1), BuildingBlock: XUDNAN_clean_linker_2, # of connection points: 2
#     Edge 17, Type (0, 1), BuildingBlock: XUDNAN_clean_linker_2, # of connection points: 2
# Relax obj value: 0.078
# Max RMSD: 0.156
# Mean RMSD: 0.088
data_MOF--net-rtl--node1-VOLQOD_clean_sbu_1--node2-KAKCAD_clean_linker_0--edge1-XUDNAN_clean_linker_2
_symmetry_space_group_name_H-M    P1
_symmetry_Int_Tables_number       1
_symmetry_cell_setting            triclinic
loop_
_symmetry_equiv_pos_as_xyz
'x, y, z'
_cell_length_a     44.960428
_cell_length_b     38.969239
_cell_length_c     29.139825
_cell_angle_alpha  89.8525
_cell_angle_beta   90.194844
_cell_angle_gamma 89.840424
loop_
_atom_site_label
_atom_site_type_symbol
_atom_site_fract_x
_atom_site_fract_y
_atom_site_fract_z
_atom_type_partial_charge
C0 C 0.10227 0.78349 0.83982 0.0
C1 C 0.10217 0.81926 0.84634 0.0
C2 C 0.10588 0.76124 0.87733 0.0
C3 C 0.10899 0.77447 0.92189 0.0
C4 C 0.10909 0.81019 0.92815 0.0
C5 C 0.10568 0.83228 0.89091 0.0
C6 C 0.11184 0.75165 0.96242 0.0
C7 C 0.13313 0.72519 0.96372 0.0
C8 C 0.13863 0.70699 0.00474 0.0
C9 C 0.12166 0.71474 0.04398 0.0
C10 C 0.10074 0.74141 0.04311 0.0
C11 C 0.09551 0.75915 0.00206 0.0
C12 C 0.08783 0.75456 0.08623 0.0
C13 C 0.07265 0.73305 0.1169 0.0
C14 C 0.0916 0.78927 0.09728 0.0
C15 C 0.08027 0.80243 0.13797 0.0
C16 C 0.06438 0.78137 0.16847 0.0
C17 C 0.16446 0.68319 0.00844 0.0
C18 C 0.17188 0.66057 0.97266 0.0
C19 C 0.18276 0.68416 0.04763 0.0
C20 C 0.20752 0.66281 0.05135 0.0
C21 C 0.21485 0.64 0.0159 0.0
C22 C 0.19693 0.63921 0.97631 0.0
C23 C 0.0608 0.74641 0.15759 0.0
H24 H 0.09976 0.77279 0.80576 0.0
H25 H 0.10574 0.73378 0.87166 0.0
H26 H 0.11188 0.82116 0.96202 0.0
H27 H 0.10532 0.85966 0.89719 0.0
H28 H 0.14686 0.72059 0.93385 0.0
H29 H 0.07942 0.77995 0.00156 0.0
H30 H 0.12596 0.70144 0.07606 0.0
H31 H 0.06962 0.70612 0.10908 0.0
H32 H 0.10387 0.8062 0.07469 0.0
H33 H 0.08446 0.82915 0.14573 0.0
H34 H 0.15823 0.65921 0.94203 0.0
H35 H 0.17837 0.70202 0.07522 0.0
H36 H 0.04859 0.72947 0.18018 0.0
H37 H 0.20206 0.62181 0.94849 0.0
H38 H 0.22132 0.66464 0.0818 0.0
C39 C 0.60338 0.71011 0.65168 0.0
C40 C 0.59528 0.67567 0.6456 0.0
C41 C 0.61803 0.72791 0.61664 0.0
C42 C 0.62522 0.71138 0.57518 0.0
C43 C 0.61824 0.67638 0.57033 0.0
C44 C 0.60318 0.65886 0.60493 0.0
C45 C 0.63866 0.73067 0.53622 0.0
C46 C 0.65984 0.75659 0.54375 0.0
C47 C 0.67199 0.77499 0.50669 0.0
C48 C 0.66302 0.76694 0.46173 0.0
C49 C 0.64213 0.74104 0.4536 0.0
C50 C 0.62987 0.72334 0.49094 0.0
C51 C 0.633 0.73222 0.40616 0.0
C52 C 0.62521 0.75802 0.37451 0.0
C53 C 0.63112 0.6977 0.39273 0.0
C54 C 0.6209 0.68907 0.34901 0.0
C55 C 0.61218 0.71478 0.31781 0.0
C56 C 0.69444 0.80227 0.51446 0.0
C57 C 0.69321 0.83295 0.48905 0.0
C58 C 0.71784 0.7974 0.54594 0.0
C59 C 0.73994 0.82229 0.55097 0.0
C60 C 0.7391 0.85258 0.52465 0.0
C61 C 0.71528 0.85777 0.49402 0.0
C62 C 0.61474 0.74937 0.3308 0.0
H63 H 0.59738 0.72359 0.68278 0.0
H64 H 0.62277 0.75489 0.62149 0.0
H65 H 0.62413 0.66249 0.53952 0.0
H66 H 0.59751 0.63213 0.5998 0.0
H67 H 0.66687 0.76252 0.57842 0.0
H68 H 0.61286 0.70428 0.48457 0.0
H69 H 0.6729 0.78022 0.43284 0.0
H70 H 0.62636 0.78483 0.38404 0.0
H71 H 0.63728 0.67731 0.41628 0.0
H72 H 0.61885 0.66219 0.34024 0.0
H73 H 0.67526 0.83767 0.46493 0.0
H74 H 0.71953 0.77394 0.56581 0.0
H75 H 0.60829 0.7697 0.30735 0.0
H76 H 0.7141 0.88062 0.47284 0.0
H77 H 0.75782 0.81768 0.57523 0.0
C78 C 0.90022 0.23064 0.13901 0.0
C79 C 0.93042 0.22115 0.13782 0.0
C80 C 0.88695 0.2474 0.10177 0.0
C81 C 0.90365 0.25606 0.06264 0.0
C82 C 0.93413 0.24783 0.06224 0.0
C83 C 0.94722 0.23023 0.09896 0.0
C84 C 0.88898 0.27178 0.02158 0.0
C85 C 0.86419 0.29352 0.02647 0.0
C86 C 0.84783 0.30476 0.98804 0.0
C87 C 0.85787 0.29609 0.94391 0.0
C88 C 0.88321 0.27535 0.93813 0.0
C89 C 0.89831 0.26301 0.97711 0.0
C90 C 0.89283 0.2643 0.89167 0.0
C91 C 0.87179 0.25383 0.85882 0.0
C92 C 0.92323 0.2625 0.88064 0.0
C93 C 0.9324 0.24977 0.83817 0.0
C94 C 0.91138 0.23866 0.80571 0.0
C95 C 0.81858 0.32209 0.99429 0.0
C96 C 0.79915 0.31053 0.02868 0.0
C97 C 0.80888 0.34832 0.96442 0.0
C98 C 0.78001 0.36169 0.96789 0.0
C99 C 0.7603 0.34895 0.00114 0.0
C100 C 0.77048 0.32388 0.03217 0.0
C101 C 0.88096 0.24118 0.81632 0.0
H102 H 0.88658 0.22492 0.16857 0.0
H103 H 0.86333 0.25268 0.1034 0.0
H104 H 0.94797 0.25457 0.03327 0.0
H105 H 0.97041 0.22308 0.0961 0.0
H106 H 0.8571 0.30121 0.0604 0.0
H107 H 0.9165 0.24508 0.9726 0.0
H108 H 0.84541 0.3045 0.91404 0.0
H109 H 0.84824 0.25429 0.86648 0.0
H110 H 0.93997 0.27079 0.905 0.0
H111 H 0.95597 0.24856 0.83077 0.0
H112 H 0.80561 0.29008 0.05193 0.0
H113 H 0.8234 0.35806 0.93786 0.0
H114 H 0.86421 0.23233 0.79236 0.0
H115 H 0.75599 0.31393 0.05866 0.0
H116 H 0.77275 0.38099 0.94346 0.0
C117 C 0.38528 0.30942 0.39087 0.0
C118 C 0.41533 0.31626 0.38192 0.0
C119 C 0.3774 0.28475 0.42338 0.0
C120 C 0.39946 0.26695 0.44805 0.0
C121 C 0.42955 0.27326 0.43843 0.0
C122 C 0.43744 0.2975 0.40518 0.0
C123 C 0.3909 0.24416 0.48638 0.0
C124 C 0.36935 0.21868 0.48 0.0
C125 C 0.35841 0.20012 0.5176 0.0
C126 C 0.36955 0.2068 0.56172 0.0
C127 C 0.39097 0.23249 0.56883 0.0
C128 C 0.40176 0.25074 0.53065 0.0
C129 C 0.39982 0.24283 0.61611 0.0
C130 C 0.37877 0.24305 0.65183 0.0
C131 C 0.42864 0.2552 0.62515 0.0
C132 C 0.43567 0.26921 0.66787 0.0
C133 C 0.41427 0.27041 0.70274 0.0
C134 C 0.333 0.17659 0.5114 0.0
C135 C 0.33361 0.15097 0.4777 0.0
C136 C 0.30716 0.18125 0.53749 0.0
C137 C 0.28199 0.16136 0.52912 0.0
C138 C 0.28223 0.13592 0.4949 0.0
C139 C 0.30857 0.13058 0.46984 0.0
C140 C 0.38604 0.25643 0.69483 0.0
H141 H 0.36789 0.32354 0.37312 0.0
H142 H 0.35406 0.28058 0.43058 0.0
H143 H 0.4469 0.25984 0.45717 0.0
H144 H 0.46076 0.3025 0.39884 0.0
H145 H 0.36015 0.21437 0.44606 0.0
H146 H 0.41714 0.27179 0.53553 0.0
H147 H 0.36098 0.19234 0.59058 0.0
H148 H 0.3562 0.2344 0.64615 0.0
H149 H 0.44562 0.25479 0.59889 0.0
H150 H 0.45769 0.27965 0.67349 0.0
H151 H 0.35341 0.14686 0.45732 0.0
H152 H 0.30602 0.20124 0.56321 0.0
H153 H 0.36912 0.25742 0.72119 0.0
H154 H 0.30983 0.11084 0.44384 0.0
H155 H 0.26204 0.16687 0.54847 0.0
O156 O 0.93046 0.01053 0.49121 0.0
Zn157 Zn 0.96702 0.03934 0.48193 0.0
O158 O 0.00296 0.01216 0.49232 0.0
Zn159 Zn 0.02731 0.03324 0.5401 0.0
Zn160 Zn 0.99259 0.96506 0.50982 0.0
Zn161 Zn 0.02548 0.01133 0.43581 0.0
O162 O 0.06736 0.04779 0.51549 0.0
O163 O 0.06805 0.02382 0.44646 0.0
O164 O 0.96484 0.07737 0.528 0.0
O165 O 0.00617 0.07352 0.56974 0.0
O166 O 0.03689 0.99853 0.58865 0.0
O167 O 0.0137 0.95063 0.56838 0.0
O168 O 0.0041 0.93152 0.46008 0.0
O169 O 0.96641 0.06231 0.41938 0.0
O170 O 0.02348 0.96502 0.40612 0.0
O171 O 0.01025 0.04648 0.39158 0.0
C172 C 0.92634 0.98042 0.50712 0.0
C173 C 0.08099 0.04004 0.47864 0.0
C174 C 0.0307 0.96709 0.59558 0.0
C175 C 0.98138 0.08798 0.5605 0.0
C176 C 0.01522 0.93563 0.4203 0.0
C177 C 0.98639 0.06391 0.38856 0.0
O178 O 0.94811 0.9608 0.51749 0.0
O179 O 0.56358 0.48994 0.00433 0.0
Zn180 Zn 0.53065 0.52606 0.0023 0.0
O181 O 0.49149 0.5056 0.01458 0.0
Zn182 Zn 0.46519 0.51041 0.96128 0.0
Zn183 Zn 0.49575 0.45719 0.02983 0.0
Zn184 Zn 0.47344 0.52851 0.06636 0.0
O185 O 0.42484 0.5305 0.97833 0.0
O186 O 0.43155 0.54155 0.05233 0.0
O187 O 0.53044 0.54853 0.93935 0.0
O188 O 0.48455 0.53967 0.91324 0.0
O189 O 0.4576 0.4642 0.93273 0.0
O190 O 0.47332 0.42726 0.98578 0.0
O191 O 0.48277 0.44631 0.09425 0.0
O192 O 0.53982 0.56353 0.04853 0.0
O193 O 0.47064 0.49754 0.12135 0.0
O194 O 0.49652 0.57025 0.08426 0.0
C195 C 0.56262 0.45797 0.01378 0.0
C196 C 0.41505 0.54099 0.01683 0.0
C197 C 0.46079 0.4336 0.94746 0.0
C198 C 0.51048 0.55228 0.90849 0.0
C199 C 0.47401 0.46538 0.12694 0.0
C200 C 0.52313 0.57963 0.07652 0.0
O201 O 0.53826 0.4434 0.0242 0.0
H202 H 0.23856 0.11429 0.55457 0.0
H203 H 0.26268 0.11433 0.41024 0.0
H204 H 0.21539 0.08589 0.3915 0.0
H205 H 0.19768 0.03354 0.55588 0.0
H206 H 0.16957 0.04978 0.59413 0.0
H207 H 0.20691 0.06632 0.59704 0.0
H208 H 0.18662 0.12807 0.58542 0.0
H209 H 0.14927 0.11174 0.58233 0.0
H210 H 0.16369 0.13755 0.5361 0.0
H211 H 0.16433 0.06064 0.38761 0.0
H212 H 0.11254 0.04173 0.39862 0.0
H213 H 0.12028 0.062 0.54468 0.0
C214 C 0.23405 0.10832 0.51897 0.0
C215 C 0.25465 0.11646 0.484 0.0
C216 C 0.24775 0.10773 0.43794 0.0
C217 C 0.22079 0.09176 0.42683 0.0
C218 C 0.20083 0.08483 0.46206 0.0
C219 C 0.20709 0.09288 0.50718 0.0
C220 C 0.18101 0.08487 0.53814 0.0
C221 C 0.1893 0.05696 0.57337 0.0
C222 C 0.16947 0.1175 0.56188 0.0
C223 C 0.15891 0.07163 0.5032 0.0
C224 C 0.17094 0.07137 0.45963 0.0
C225 C 0.15469 0.06059 0.42159 0.0
C226 C 0.12529 0.04989 0.42823 0.0
C227 C 0.11232 0.05047 0.4725 0.0
C228 C 0.1295 0.06139 0.5104 0.0
H229 H 0.25875 0.62742 0.95228 0.0
H230 H 0.2312 0.60278 0.0911 0.0
H231 H 0.27825 0.57162 0.10388 0.0
H232 H 0.2988 0.54482 0.93093 0.0
H233 H 0.32767 0.5656 0.89842 0.0
H234 H 0.29048 0.58303 0.89828 0.0
H235 H 0.31115 0.64157 0.92543 0.0
H236 H 0.3483 0.62427 0.92614 0.0
H237 H 0.33315 0.64348 0.97721 0.0
H238 H 0.32961 0.54966 0.10533 0.0
H239 H 0.38198 0.53366 0.09363 0.0
H240 H 0.37683 0.56956 0.95263 0.0
C241 C 0.26233 0.61465 0.98488 0.0
C242 C 0.24141 0.61763 0.02081 0.0
C243 C 0.24709 0.60114 0.06333 0.0
C244 C 0.27366 0.58324 0.07083 0.0
C245 C 0.29422 0.5817 0.03531 0.0
C246 C 0.28882 0.59648 0.99294 0.0
C247 C 0.3155 0.59238 0.96159 0.0
C248 C 0.30764 0.57013 0.91983 0.0
C249 C 0.32774 0.62752 0.94674 0.0
C250 C 0.33697 0.57391 0.99352 0.0
C251 C 0.32406 0.56801 0.0358 0.0
C252 C 0.33984 0.55357 0.07217 0.0
C253 C 0.36964 0.54482 0.06525 0.0
C254 C 0.38339 0.55027 0.02219 0.0
C255 C 0.36672 0.56468 0.98568 0.0
H256 H 0.79903 0.83977 0.53059 0.0
H257 H 0.73465 0.92289 0.52398 0.0
H258 H 0.77565 0.96489 0.52184 0.0
H259 H 0.85315 0.88449 0.60374 0.0
H260 H 0.88453 0.86583 0.57454 0.0
H261 H 0.85004 0.84256 0.5782 0.0
H262 H 0.84893 0.83689 0.48961 0.0
H263 H 0.88325 0.86032 0.48563 0.0
H264 H 0.85088 0.87502 0.45459 0.0
H265 H 0.82355 0.99743 0.51491 0.0
H266 H 0.87501 0.01843 0.50676 0.0
H267 H 0.908 0.91406 0.52066 0.0
C268 C 0.79349 0.86682 0.52977 0.0
C269 C 0.76359 0.87802 0.52742 0.0
C270 C 0.75738 0.91367 0.52527 0.0
C271 C 0.7805 0.93773 0.52432 0.0
C272 C 0.8097 0.92574 0.52591 0.0
C273 C 0.81626 0.89116 0.529 0.0
C274 C 0.84952 0.88492 0.52865 0.0
C275 C 0.85992 0.86848 0.57399 0.0
C276 C 0.85867 0.863 0.48715 0.0
C277 C 0.86063 0.92138 0.52412 0.0
C278 C 0.83732 0.94455 0.52266 0.0
C279 C 0.84201 0.97958 0.51652 0.0
C280 C 0.87131 0.99123 0.51174 0.0
C281 C 0.89556 0.96792 0.51328 0.0
C282 C 0.89001 0.93258 0.51986 0.0
H283 H 0.7369 0.41448 0.99318 0.0
H284 H 0.71206 0.3076 0.01035 0.0
H285 H 0.65937 0.32436 0.01463 0.0
H286 H 0.68288 0.4494 0.07018 0.0
H287 H 0.67493 0.48684 0.03578 0.0
H288 H 0.71102 0.46678 0.03288 0.0
H289 H 0.70529 0.46022 0.94486 0.0
H290 H 0.66921 0.48037 0.94746 0.0
H291 H 0.67316 0.43853 0.92194 0.0
H292 H 0.61019 0.35173 0.01923 0.0
H293 H 0.56589 0.38846 0.02228 0.0
H294 H 0.62105 0.47856 0.00085 0.0
C295 C 0.72031 0.39465 0.99742 0.0
C296 C 0.72862 0.35974 0.00196 0.0
C297 C 0.70628 0.33454 0.00772 0.0
C298 C 0.67627 0.34376 0.00989 0.0
C299 C 0.66885 0.37831 0.006 0.0
C300 C 0.69006 0.40343 -0.00031 0.0
C301 C 0.67573 0.43873 0.99711 0.0
C302 C 0.6868 0.46179 0.03633 0.0
C303 C 0.68117 0.45544 0.95004 0.0
C304 C 0.64323 0.42937 0.00326 0.0
C305 C 0.63995 0.39433 0.00828 0.0
C306 C 0.61238 0.37921 0.01518 0.0
C307 C 0.58732 0.40043 0.01697 0.0
C308 C 0.58987 0.43652 0.01182 0.0
C309 C 0.61831 0.45111 0.00477 0.0
H310 H 0.04041 0.84543 0.18044 0.0
H311 H 0.06133 0.75147 0.25436 0.0
H312 H 0.04585 0.77904 0.32678 0.0
H313 H 0.07222 0.89995 0.26075 0.0
H314 H 0.04534 0.93392 0.25319 0.0
H315 H 0.0531 0.90507 0.20667 0.0
H316 H 0.99715 0.8896 0.201 0.0
H317 H 0.98917 0.91858 0.24747 0.0
H318 H 0.97796 0.87429 0.25123 0.0
H319 H 0.03175 0.819 0.39225 0.0
H320 H 0.02261 0.86801 0.44444 0.0
H321 H 0.0157 0.93616 0.32694 0.0
C322 C 0.04167 0.83043 0.21171 0.0
C323 C 0.0522 0.79623 0.21154 0.0
C324 C 0.05294 0.77752 0.25334 0.0
C325 C 0.04431 0.79304 0.29473 0.0
C326 C 0.03505 0.82722 0.2937 0.0
C327 C 0.03372 0.84562 0.25316 0.0
C328 C 0.02575 0.8828 0.26135 0.0
C329 C 0.05059 0.90683 0.24451 0.0
C330 C 0.99572 0.89183 0.23894 0.0
C331 C 0.02356 0.88278 0.31304 0.0
C332 C 0.02833 0.8504 0.33116 0.0
C333 C 0.02784 0.84441 0.37837 0.0
C334 C 0.02265 0.87234 0.40771 0.0
C335 C 0.01867 0.90582 0.38964 0.0
C336 C 0.01889 0.91087 0.34171 0.0
H337 H 0.60785 0.66684 0.73712 0.0
H338 H 0.54263 0.64333 0.63196 0.0
H339 H 0.51279 0.61136 0.68881 0.0
H340 H 0.60536 0.58491 0.79187 0.0
H341 H 0.60987 0.60141 0.8492 0.0
H342 H 0.62509 0.62452 0.80117 0.0
H343 H 0.59576 0.6789 0.82515 0.0
H344 H 0.58048 0.65595 0.87334 0.0
H345 H 0.55602 0.67644 0.83243 0.0
H346 H 0.49054 0.58155 0.75606 0.0
H347 H 0.47821 0.55284 0.82889 0.0
H348 H 0.55896 0.59328 0.89042 0.0
C349 C 0.58711 0.65524 0.7264 0.0
C350 C 0.57734 0.65754 0.6804 0.0
C351 C 0.55039 0.64167 0.66713 0.0
C352 C 0.5333 0.62363 0.69915 0.0
C353 C 0.54362 0.62151 0.74418 0.0
C354 C 0.56995 0.63667 0.75785 0.0
C355 C 0.57668 0.6289 0.80783 0.0
C356 C 0.60599 0.60873 0.81279 0.0
C357 C 0.57726 0.66202 0.83637 0.0
C358 C 0.5501 0.60686 0.81996 0.0
C359 C 0.53118 0.60329 0.78284 0.0
C360 C 0.50516 0.58414 0.78542 0.0
C361 C 0.49834 0.56797 0.82702 0.0
C362 C 0.51763 0.57072 0.86543 0.0
C363 C 0.54381 0.59057 0.8617 0.0
H364 H 0.90367 0.17318 0.19435 0.0
H365 H 0.98838 0.22344 0.16922 0.0
H366 H 0.01165 0.1875 0.22884 0.0
H367 H 0.91285 0.17039 0.31861 0.0
H368 H 0.89419 0.1297 0.32402 0.0
H369 H 0.88427 0.15863 0.27809 0.0
H370 H 0.89475 0.11061 0.21891 0.0
H371 H 0.90497 0.08163 0.26458 0.0
H372 H 0.93065 0.08989 0.21851 0.0
H373 H 0.02646 0.14397 0.28773 0.0
H374 H 0.0307 0.10043 0.34906 0.0
H375 H 0.93545 0.08334 0.34265 0.0
C376 C 0.92698 0.1773 0.20171 0.0
C377 C 0.94413 0.20106 0.17617 0.0
C378 C 0.97476 0.20485 0.18699 0.0
C379 C 0.98821 0.18472 0.22118 0.0
C380 C 0.97069 0.1614 0.24507 0.0
C381 C 0.94064 0.15805 0.23648 0.0
C382 C 0.92666 0.13181 0.26823 0.0
C383 C 0.9031 0.14865 0.29907 0.0
C384 C 0.91349 0.10171 0.24091 0.0
C385 C 0.95367 0.12068 0.2957 0.0
C386 C 0.97889 0.13776 0.28126 0.0
C387 C 0.00683 0.13073 0.29975 0.0
C388 C 0.00903 0.10585 0.33433 0.0
C389 C 0.98337 0.08876 0.35061 0.0
C390 C 0.95533 0.09634 0.3311 0.0
H391 H 0.43236 0.33642 0.71164 0.0
H392 H 0.4092 0.24597 0.79046 0.0
H393 H 0.4182 0.27802 0.86266 0.0
H394 H 0.4903 0.36788 0.78569 0.0
H395 H 0.48012 0.41227 0.7777 0.0
H396 H 0.47287 0.38163 0.73293 0.0
H397 H 0.41715 0.39895 0.73311 0.0
H398 H 0.4242 0.42949 0.77811 0.0
H399 H 0.39644 0.39672 0.7859 0.0
H400 H 0.43136 0.31989 0.92577 0.0
H401 H 0.44504 0.369 0.97514 0.0
H402 H 0.45604 0.43275 0.8541 0.0
C403 C 0.42953 0.32334 0.74418 0.0
C404 C 0.42053 0.28874 0.74589 0.0
C405 C 0.41629 0.27249 0.78882 0.0
C406 C 0.42134 0.29045 0.82979 0.0
C407 C 0.43012 0.3247 0.82695 0.0
C408 C 0.43393 0.34102 0.78521 0.0
C409 C 0.44246 0.37823 0.79138 0.0
C410 C 0.47327 0.38541 0.77071 0.0
C411 C 0.41864 0.40226 0.77092 0.0
C412 C 0.44312 0.3803 0.84316 0.0
C413 C 0.43619 0.34912 0.86311 0.0
C414 C 0.43655 0.3445 0.91054 0.0
C415 C 0.44436 0.37248 0.93826 0.0
C416 C 0.45125 0.40469 0.9184 0.0
C417 C 0.45036 0.40859 0.87026 0.0
H418 H 0.63075 0.66528 0.25745 0.0
H419 H 0.5618 0.74157 0.27913 0.0
H420 H 0.53467 0.71998 0.21142 0.0
H421 H 0.62609 0.66467 0.12841 0.0
H422 H 0.63242 0.61901 0.12633 0.0
H423 H 0.64889 0.64418 0.17155 0.0
H424 H 0.62433 0.60473 0.2322 0.0
H425 H 0.6077 0.57962 0.18733 0.0
H426 H 0.58459 0.59864 0.23089 0.0
H427 H 0.51086 0.68387 0.15154 0.0
H428 H 0.49353 0.63788 0.09981 0.0
H429 H 0.57859 0.58624 0.11395 0.0
C430 C 0.61028 0.67792 0.24723 0.0
C431 C 0.59842 0.70518 0.27337 0.0
C432 C 0.57153 0.72102 0.25916 0.0
C433 C 0.55593 0.70887 0.22082 0.0
C434 C 0.56776 0.68123 0.19666 0.0
C435 C 0.59457 0.66628 0.20883 0.0
C436 C 0.60115 0.63512 0.17952 0.0
C437 C 0.62878 0.64112 0.14967 0.0
C438 C 0.60463 0.60262 0.20927 0.0
C439 C 0.57316 0.63388 0.15054 0.0
C440 C 0.55431 0.66091 0.16071 0.0
C441 C 0.52573 0.66315 0.14229 0.0
C442 C 0.51603 0.63688 0.11317 0.0
C443 C 0.53495 0.60898 0.10247 0.0
C444 C 0.56407 0.60788 0.12058 0.0
H445 H 0.95661 0.19241 0.79185 0.0
H446 H 0.8875 0.24939 0.72019 0.0
H447 H 0.90081 0.2201 0.64807 0.0
H448 H 0.01074 0.1916 0.69641 0.0
H449 H 0.02316 0.14869 0.70978 0.0
H450 H 0.00997 0.17636 0.75486 0.0
H451 H 0.9714 0.13034 0.77847 0.0
H452 H 0.98437 0.10263 0.73344 0.0
H453 H 0.9456 0.11434 0.73619 0.0
H454 H 0.9184 0.18124 0.58586 0.0
H455 H 0.93957 0.13581 0.53703 0.0
H456 H 0.99839 0.105 0.64829 0.0
C457 C 0.94476 0.19936 0.76076 0.0
C458 C 0.92102 0.22324 0.76163 0.0
C459 C 0.90558 0.23097 0.72041 0.0
C460 C 0.91312 0.21466 0.67923 0.0
C461 C 0.93629 0.19085 0.67976 0.0
C462 C 0.95203 0.18335 0.71935 0.0
C463 C 0.97481 0.15529 0.71114 0.0
C464 C 0.00655 0.16881 0.71848 0.0
C465 C 0.96866 0.1238 0.74161 0.0
C466 C 0.96891 0.14762 0.661 0.0
C467 C 0.94673 0.16859 0.64354 0.0
C468 C 0.93607 0.16498 0.59892 0.0
C469 C 0.94817 0.13901 0.57152 0.0
C470 C 0.97075 0.11699 0.58876 0.0
C471 C 0.98152 0.12179 0.6339 0.0
H472 H 0.45081 0.31222 0.30591 0.0
H473 H 0.39764 0.38283 0.38618 0.0
H474 H 0.41001 0.42984 0.33238 0.0
H475 H 0.50883 0.37283 0.27196 0.0
H476 H 0.51192 0.3556 0.21483 0.0
H477 H 0.50095 0.32817 0.26166 0.0
H478 H 0.45309 0.31144 0.21731 0.0
H479 H 0.46393 0.33874 0.17038 0.0
H480 H 0.42826 0.34471 0.19729 0.0
H481 H 0.42694 0.46848 0.26934 0.0
H482 H 0.44427 0.49571 0.1979 0.0
H483 H 0.48478 0.39937 0.15634 0.0
C484 C 0.44216 0.33773 0.3123 0.0
C485 C 0.42345 0.34419 0.35009 0.0
C486 C 0.41198 0.37758 0.35722 0.0
C487 C 0.41901 0.40438 0.32707 0.0
C488 C 0.43734 0.3972 0.28986 0.0
C489 C 0.44859 0.36468 0.28211 0.0
C490 C 0.46609 0.36339 0.23781 0.0
C491 C 0.4989 0.35447 0.24714 0.0
C492 C 0.45199 0.33807 0.20369 0.0
C493 C 0.46261 0.40016 0.22167 0.0
C494 C 0.44633 0.41932 0.25256 0.0
C495 C 0.43979 0.4538 0.24491 0.0
C496 C 0.44979 0.46904 0.20423 0.0
C497 C 0.46586 0.44969 0.17143 0.0
C498 C 0.47256 0.41487 0.18068 0.0
H499 H 0.06155 0.81533 0.77565 0.0
H500 H 0.13315 0.87804 0.82972 0.0
H501 H 0.12282 0.92195 0.77075 0.0
H502 H 0.07395 0.83716 0.6538 0.0
H503 H 0.03476 0.83742 0.64054 0.0
H504 H 0.04894 0.80984 0.68532 0.0
H505 H 0.01179 0.83696 0.7426 0.0
H506 H 0.99775 0.8649 0.6982 0.0
H507 H 0.0118 0.88279 0.75095 0.0
H508 H 0.10268 0.96072 0.71079 0.0
H509 H 0.0764 0.99078 0.64839 0.0
H510 H 0.01843 0.9027 0.63052 0.0
C511 C 0.07545 0.83796 0.77438 0.0
C512 C 0.09805 0.8434 0.80742 0.0
C513 C 0.11548 0.87358 0.80512 0.0
C514 C 0.10986 0.8986 0.77168 0.0
C515 C 0.0869 0.89294 0.74051 0.0
C516 C 0.07019 0.86324 0.74104 0.0
C517 C 0.04633 0.86414 0.70412 0.0
C518 C 0.0513 0.83544 0.66885 0.0
C519 C 0.01507 0.86208 0.72525 0.0
C520 C 0.05202 0.89921 0.68333 0.0
C521 C 0.07551 0.9153 0.70499 0.0
C522 C 0.08444 0.94829 0.69318 0.0
C523 C 0.0692 0.96522 0.65781 0.0
C524 C 0.04534 0.94912 0.6344 0.0
C525 C 0.03666 0.91564 0.64753 0.0
loop_
_geom_bond_atom_site_label_1
_geom_bond_atom_site_label_2
_geom_bond_distance
_geom_bond_site_symmetry_2
_ccdc_geom_bond_type
C0 C1 1.386 . S
C0 C2 1.397 . S
C0 H24 0.931 . S
C1 C0 1.386 . S
C1 C5 1.397 . S
C2 C0 1.397 . S
C2 C3 1.384 . S
C2 H25 0.930 . S
C3 C2 1.384 . S
C3 C4 1.377 . S
C3 C6 1.481 . S
C4 C3 1.377 . S
C4 C5 1.389 . S
C4 H26 0.929 . S
C5 C1 1.397 . S
C5 C4 1.389 . S
C5 H27 0.931 . S
C6 C3 1.481 . S
C6 C7 1.387 . S
C6 C11 1.390 1_556 S
C7 C6 1.387 . S
C7 C8 1.401 1_556 S
C7 H28 0.930 . S
C8 C7 1.401 1_554 S
C8 C9 1.376 . S
C8 C17 1.511 . S
C9 C8 1.376 . S
C9 C10 1.392 . S
C9 H30 0.931 . S
C10 C9 1.392 . S
C10 C11 1.361 . S
C10 C12 1.500 . S
C11 C6 1.390 1_554 S
C11 C10 1.361 . S
C11 H29 0.931 . S
C12 C10 1.500 . S
C12 C13 1.371 . S
C12 C14 1.365 . S
C13 C12 1.371 . S
C13 C23 1.386 . S
C13 H31 0.931 . S
C14 C12 1.365 . S
C14 C15 1.409 . S
C14 H32 0.929 . S
C15 C14 1.409 . S
C15 C16 1.380 . S
C15 H33 0.930 . S
C16 C15 1.380 . S
C16 C23 1.357 . S
C17 C8 1.511 . S
C17 C18 1.341 1_554 S
C17 C19 1.371 . S
C18 C17 1.341 1_556 S
C18 C22 1.394 . S
C18 H34 0.930 . S
C19 C17 1.371 . S
C19 C20 1.392 . S
C19 H35 0.931 . S
C20 C19 1.392 . S
C20 C21 1.331 . S
C20 H38 0.932 . S
C21 C20 1.331 . S
C21 C22 1.336 1_554 S
C22 C18 1.394 . S
C22 C21 1.336 1_556 S
C22 H37 0.929 . S
C23 C13 1.386 . S
C23 C16 1.357 . S
C23 H36 0.928 . S
H24 C0 0.931 . S
H25 C2 0.930 . S
H26 C4 0.929 . S
H27 C5 0.931 . S
H28 C7 0.930 . S
H29 C11 0.931 . S
H30 C9 0.931 . S
H31 C13 0.931 . S
H32 C14 0.929 . S
H33 C15 0.930 . S
H34 C18 0.930 . S
H35 C19 0.931 . S
H36 C23 0.928 . S
H37 C22 0.929 . S
H38 C20 0.932 . S
C39 C40 1.386 . S
C39 C41 1.397 . S
C39 H63 0.931 . S
C40 C39 1.386 . S
C40 C44 1.397 . S
C41 C39 1.397 . S
C41 C42 1.384 . S
C41 H64 0.930 . S
C42 C41 1.384 . S
C42 C43 1.377 . S
C42 C45 1.481 . S
C43 C42 1.377 . S
C43 C44 1.389 . S
C43 H65 0.929 . S
C44 C40 1.397 . S
C44 C43 1.389 . S
C44 H66 0.931 . S
C45 C42 1.481 . S
C45 C46 1.387 . S
C45 C50 1.390 . S
C46 C45 1.387 . S
C46 C47 1.401 . S
C46 H67 0.930 . S
C47 C46 1.401 . S
C47 C48 1.376 . S
C47 C56 1.511 . S
C48 C47 1.376 . S
C48 C49 1.392 . S
C48 H69 0.931 . S
C49 C48 1.392 . S
C49 C50 1.361 . S
C49 C51 1.500 . S
C50 C45 1.390 . S
C50 C49 1.361 . S
C50 H68 0.931 . S
C51 C49 1.500 . S
C51 C52 1.371 . S
C51 C53 1.365 . S
C52 C51 1.371 . S
C52 C62 1.386 . S
C52 H70 0.931 . S
C53 C51 1.365 . S
C53 C54 1.409 . S
C53 H71 0.929 . S
C54 C53 1.409 . S
C54 C55 1.380 . S
C54 H72 0.930 . S
C55 C54 1.380 . S
C55 C62 1.357 . S
C56 C47 1.511 . S
C56 C57 1.341 . S
C56 C58 1.371 . S
C57 C56 1.341 . S
C57 C61 1.394 . S
C57 H73 0.930 . S
C58 C56 1.371 . S
C58 C59 1.392 . S
C58 H74 0.931 . S
C59 C58 1.392 . S
C59 C60 1.331 . S
C59 H77 0.932 . S
C60 C59 1.331 . S
C60 C61 1.336 . S
C61 C57 1.394 . S
C61 C60 1.336 . S
C61 H76 0.929 . S
C62 C52 1.386 . S
C62 C55 1.357 . S
C62 H75 0.928 . S
H63 C39 0.931 . S
H64 C41 0.930 . S
H65 C43 0.929 . S
H66 C44 0.931 . S
H67 C46 0.930 . S
H68 C50 0.931 . S
H69 C48 0.931 . S
H70 C52 0.931 . S
H71 C53 0.929 . S
H72 C54 0.930 . S
H73 C57 0.930 . S
H74 C58 0.931 . S
H75 C62 0.928 . S
H76 C61 0.929 . S
H77 C59 0.932 . S
C78 C79 1.386 . S
C78 C80 1.397 . S
C78 H102 0.931 . S
C79 C78 1.386 . S
C79 C83 1.397 . S
C80 C78 1.397 . S
C80 C81 1.384 . S
C80 H103 0.930 . S
C81 C80 1.384 . S
C81 C82 1.377 . S
C81 C84 1.481 . S
C82 C81 1.377 . S
C82 C83 1.389 . S
C82 H104 0.929 . S
C83 C79 1.397 . S
C83 C82 1.389 . S
C83 H105 0.931 . S
C84 C81 1.481 . S
C84 C85 1.387 . S
C84 C89 1.390 . S
C85 C84 1.387 . S
C85 C86 1.401 . S
C85 H106 0.930 . S
C86 C85 1.401 . S
C86 C87 1.376 1_554 S
C86 C95 1.511 . S
C87 C86 1.376 1_556 S
C87 C88 1.392 . S
C87 H108 0.931 . S
C88 C87 1.392 . S
C88 C89 1.361 1_556 S
C88 C90 1.500 . S
C89 C84 1.390 . S
C89 C88 1.361 1_554 S
C89 H107 0.931 . S
C90 C88 1.500 . S
C90 C91 1.371 . S
C90 C92 1.365 . S
C91 C90 1.371 . S
C91 C101 1.386 . S
C91 H109 0.931 . S
C92 C90 1.365 . S
C92 C93 1.409 . S
C92 H110 0.929 . S
C93 C92 1.409 . S
C93 C94 1.380 . S
C93 H111 0.930 . S
C94 C93 1.380 . S
C94 C101 1.357 . S
C95 C86 1.511 . S
C95 C96 1.341 . S
C95 C97 1.371 1_554 S
C96 C95 1.341 . S
C96 C100 1.394 . S
C96 H112 0.930 . S
C97 C95 1.371 1_556 S
C97 C98 1.392 . S
C97 H113 0.931 . S
C98 C97 1.392 . S
C98 C99 1.331 1_556 S
C98 H116 0.932 . S
C99 C98 1.331 1_554 S
C99 C100 1.336 . S
C100 C96 1.394 . S
C100 C99 1.336 . S
C100 H115 0.929 . S
C101 C91 1.386 . S
C101 C94 1.357 . S
C101 H114 0.928 . S
H102 C78 0.931 . S
H103 C80 0.930 . S
H104 C82 0.929 . S
H105 C83 0.931 . S
H106 C85 0.930 . S
H107 C89 0.931 . S
H108 C87 0.931 . S
H109 C91 0.931 . S
H110 C92 0.929 . S
H111 C93 0.930 . S
H112 C96 0.930 . S
H113 C97 0.931 . S
H114 C101 0.928 . S
H115 C100 0.929 . S
H116 C98 0.932 . S
C117 C118 1.386 . S
C117 C119 1.397 . S
C117 H141 0.931 . S
C118 C117 1.386 . S
C118 C122 1.397 . S
C119 C117 1.397 . S
C119 C120 1.384 . S
C119 H142 0.930 . S
C120 C119 1.384 . S
C120 C121 1.377 . S
C120 C123 1.481 . S
C121 C120 1.377 . S
C121 C122 1.389 . S
C121 H143 0.929 . S
C122 C118 1.397 . S
C122 C121 1.389 . S
C122 H144 0.931 . S
C123 C120 1.481 . S
C123 C124 1.387 . S
C123 C128 1.390 . S
C124 C123 1.387 . S
C124 C125 1.401 . S
C124 H145 0.930 . S
C125 C124 1.401 . S
C125 C126 1.376 . S
C125 C134 1.511 . S
C126 C125 1.376 . S
C126 C127 1.392 . S
C126 H147 0.931 . S
C127 C126 1.392 . S
C127 C128 1.361 . S
C127 C129 1.500 . S
C128 C123 1.390 . S
C128 C127 1.361 . S
C128 H146 0.931 . S
C129 C127 1.500 . S
C129 C130 1.371 . S
C129 C131 1.365 . S
C130 C129 1.371 . S
C130 C140 1.386 . S
C130 H148 0.931 . S
C131 C129 1.365 . S
C131 C132 1.409 . S
C131 H149 0.929 . S
C132 C131 1.409 . S
C132 C133 1.380 . S
C132 H150 0.930 . S
C133 C132 1.380 . S
C133 C140 1.357 . S
C134 C125 1.511 . S
C134 C135 1.341 . S
C134 C136 1.371 . S
C135 C134 1.341 . S
C135 C139 1.394 . S
C135 H151 0.930 . S
C136 C134 1.371 . S
C136 C137 1.392 . S
C136 H152 0.931 . S
C137 C136 1.392 . S
C137 C138 1.331 . S
C137 H155 0.932 . S
C138 C137 1.331 . S
C138 C139 1.336 . S
C139 C135 1.394 . S
C139 C138 1.336 . S
C139 H154 0.929 . S
C140 C130 1.386 . S
C140 C133 1.357 . S
C140 H153 0.928 . S
H141 C117 0.931 . S
H142 C119 0.930 . S
H143 C121 0.929 . S
H144 C122 0.931 . S
H145 C124 0.930 . S
H146 C128 0.931 . S
H147 C126 0.931 . S
H148 C130 0.931 . S
H149 C131 0.929 . S
H150 C132 0.930 . S
H151 C135 0.930 . S
H152 C136 0.931 . S
H153 C140 0.928 . S
H154 C139 0.929 . S
H155 C137 0.932 . S
O156 Zn157 1.953 1_565 S
O156 C172 1.225 . S
Zn157 O156 1.953 1_545 S
Zn157 O158 1.949 1_655 S
Zn157 O164 1.919 . S
Zn157 O169 1.924 . S
O158 Zn157 1.949 1_455 S
O158 Zn159 1.923 . S
O158 Zn160 1.950 1_445 S
O158 Zn161 1.945 . S
Zn159 O158 1.923 . S
Zn159 O162 1.933 . S
Zn159 O165 1.941 . S
Zn159 O166 1.965 1_545 S
Zn160 O158 1.950 1_665 S
Zn160 O167 1.938 1_655 S
Zn160 O168 1.906 1_655 S
Zn160 O178 1.953 . S
Zn161 O158 1.945 . S
Zn161 O163 1.932 . S
Zn161 O170 1.977 1_545 S
Zn161 O171 1.910 1_455 S
O162 Zn159 1.933 . S
O162 C173 1.226 . S
O163 Zn161 1.932 . S
O163 C173 1.307 . S
O164 Zn157 1.919 . S
O164 C175 1.253 . S
O165 Zn159 1.941 . S
O165 C175 1.283 1_455 S
O166 Zn159 1.965 1_565 S
O166 C174 1.303 . S
O167 Zn160 1.938 1_455 S
O167 C174 1.247 . S
O168 Zn160 1.906 1_455 S
O168 C176 1.304 . S
O169 Zn157 1.924 . S
O169 C177 1.311 . S
O170 Zn161 1.977 1_565 S
O170 C176 1.272 . S
O171 Zn161 1.910 1_655 S
O171 C177 1.231 . S
C172 O156 1.225 . S
C172 O178 1.298 . S
C173 O162 1.226 . S
C173 O163 1.307 . S
C174 O166 1.303 . S
C174 O167 1.247 . S
C175 O164 1.253 . S
C175 O165 1.283 1_655 S
C176 O168 1.304 . S
C176 O170 1.272 . S
C177 O169 1.311 . S
C177 O171 1.231 . S
O178 Zn160 1.953 . S
O178 C172 1.298 . S
O179 Zn180 1.953 . S
O179 C195 1.225 1_556 S
Zn180 O179 1.953 . S
Zn180 O181 1.949 1_556 S
Zn180 O187 1.919 . S
Zn180 O192 1.924 1_556 S
O181 Zn180 1.949 1_554 S
O181 Zn182 1.923 1_554 S
O181 Zn183 1.950 . S
O181 Zn184 1.945 . S
Zn182 O181 1.923 1_556 S
Zn182 O185 1.933 . S
Zn182 O188 1.941 . S
Zn182 O189 1.965 . S
Zn183 O181 1.950 . S
Zn183 O190 1.938 1_554 S
Zn183 O191 1.906 . S
Zn183 O201 1.953 . S
Zn184 O181 1.945 . S
Zn184 O186 1.932 . S
Zn184 O193 1.977 . S
Zn184 O194 1.910 . S
O185 Zn182 1.933 . S
O185 C196 1.226 1_556 S
O186 Zn184 1.932 . S
O186 C196 1.307 . S
O187 Zn180 1.919 . S
O187 C198 1.253 . S
O188 Zn182 1.941 . S
O188 C198 1.283 . S
O189 Zn182 1.965 . S
O189 C197 1.303 . S
O190 Zn183 1.938 1_556 S
O190 C197 1.247 . S
O191 Zn183 1.906 . S
O191 C199 1.304 . S
O192 Zn180 1.924 1_554 S
O192 C200 1.311 . S
O193 Zn184 1.977 . S
O193 C199 1.272 . S
O194 Zn184 1.910 . S
O194 C200 1.231 . S
C195 O179 1.225 1_554 S
C195 O201 1.298 . S
C196 O185 1.226 1_554 S
C196 O186 1.307 . S
C197 O189 1.303 . S
C197 O190 1.247 . S
C198 O187 1.253 . S
C198 O188 1.283 . S
C199 O191 1.304 . S
C199 O193 1.272 . S
C200 O192 1.311 . S
C200 O194 1.231 . S
O201 Zn183 1.953 . S
O201 C195 1.298 . S
H202 C214 0.930 . S
H203 C216 0.930 . S
H204 C217 0.930 . S
H205 C221 0.959 . S
H206 C221 0.959 . S
H207 C221 0.961 . S
H208 C222 0.960 . S
H209 C222 0.961 . S
H210 C222 0.959 . S
H211 C225 0.929 . S
H212 C226 0.931 . S
H213 C228 0.930 . S
C214 H202 0.930 . S
C214 C215 1.399 . S
C214 C219 1.399 . S
C215 C214 1.399 . S
C215 C216 1.376 . S
C216 H203 0.930 . S
C216 C215 1.376 . S
C216 C217 1.388 . S
C217 H204 0.930 . S
C217 C216 1.388 . S
C217 C218 1.390 . S
C218 C217 1.390 . S
C218 C219 1.394 . S
C218 C224 1.465 . S
C219 C214 1.399 . S
C219 C218 1.394 . S
C219 C220 1.516 . S
C220 C219 1.516 . S
C220 C221 1.502 . S
C220 C222 1.561 . S
C220 C223 1.526 . S
C221 H205 0.959 . S
C221 H206 0.959 . S
C221 H207 0.961 . S
C221 C220 1.502 . S
C222 H208 0.960 . S
C222 H209 0.961 . S
C222 H210 0.959 . S
C222 C220 1.561 . S
C223 C220 1.526 . S
C223 C224 1.396 . S
C223 C228 1.390 . S
C224 C218 1.465 . S
C224 C223 1.396 . S
C224 C225 1.399 . S
C225 H211 0.929 . S
C225 C224 1.399 . S
C225 C226 1.385 . S
C226 H212 0.931 . S
C226 C225 1.385 . S
C226 C227 1.389 . S
C227 C226 1.389 . S
C227 C228 1.387 . S
C228 H213 0.930 . S
C228 C223 1.390 . S
C228 C227 1.387 . S
H229 C241 0.930 . S
H230 C243 0.930 . S
H231 C244 0.930 . S
H232 C248 0.959 . S
H233 C248 0.959 . S
H234 C248 0.961 . S
H235 C249 0.960 . S
H236 C249 0.961 . S
H237 C249 0.959 . S
H238 C252 0.929 . S
H239 C253 0.931 . S
H240 C255 0.930 . S
C241 H229 0.930 . S
C241 C242 1.399 1_556 S
C241 C246 1.399 . S
C242 C241 1.399 1_554 S
C242 C243 1.376 . S
C243 H230 0.930 . S
C243 C242 1.376 . S
C243 C244 1.388 . S
C244 H231 0.930 . S
C244 C243 1.388 . S
C244 C245 1.390 . S
C245 C244 1.390 . S
C245 C246 1.394 1_554 S
C245 C251 1.465 . S
C246 C241 1.399 . S
C246 C245 1.394 1_556 S
C246 C247 1.516 . S
C247 C246 1.516 . S
C247 C248 1.502 . S
C247 C249 1.561 . S
C247 C250 1.526 . S
C248 H232 0.959 . S
C248 H233 0.959 . S
C248 H234 0.961 . S
C248 C247 1.502 . S
C249 H235 0.960 . S
C249 H236 0.961 . S
C249 H237 0.959 . S
C249 C247 1.561 . S
C250 C247 1.526 . S
C250 C251 1.396 1_556 S
C250 C255 1.390 . S
C251 C245 1.465 . S
C251 C250 1.396 1_554 S
C251 C252 1.399 . S
C252 H238 0.929 . S
C252 C251 1.399 . S
C252 C253 1.385 . S
C253 H239 0.931 . S
C253 C252 1.385 . S
C253 C254 1.389 . S
C254 C253 1.389 . S
C254 C255 1.387 1_554 S
C255 H240 0.930 . S
C255 C250 1.390 . S
C255 C254 1.387 1_556 S
H256 C268 0.930 . S
H257 C270 0.930 . S
H258 C271 0.930 . S
H259 C275 0.959 . S
H260 C275 0.959 . S
H261 C275 0.961 . S
H262 C276 0.960 . S
H263 C276 0.961 . S
H264 C276 0.959 . S
H265 C279 0.929 . S
H266 C280 0.931 . S
H267 C282 0.930 . S
C268 H256 0.930 . S
C268 C269 1.399 . S
C268 C273 1.399 . S
C269 C268 1.399 . S
C269 C270 1.376 . S
C270 H257 0.930 . S
C270 C269 1.376 . S
C270 C271 1.388 . S
C271 H258 0.930 . S
C271 C270 1.388 . S
C271 C272 1.390 . S
C272 C271 1.390 . S
C272 C273 1.394 . S
C272 C278 1.465 . S
C273 C268 1.399 . S
C273 C272 1.394 . S
C273 C274 1.516 . S
C274 C273 1.516 . S
C274 C275 1.502 . S
C274 C276 1.561 . S
C274 C277 1.526 . S
C275 H259 0.959 . S
C275 H260 0.959 . S
C275 H261 0.961 . S
C275 C274 1.502 . S
C276 H262 0.960 . S
C276 H263 0.961 . S
C276 H264 0.959 . S
C276 C274 1.561 . S
C277 C274 1.526 . S
C277 C278 1.396 . S
C277 C282 1.390 . S
C278 C272 1.465 . S
C278 C277 1.396 . S
C278 C279 1.399 . S
C279 H265 0.929 . S
C279 C278 1.399 . S
C279 C280 1.385 . S
C280 H266 0.931 . S
C280 C279 1.385 . S
C280 C281 1.389 . S
C281 C280 1.389 . S
C281 C282 1.387 . S
C282 H267 0.930 . S
C282 C277 1.390 . S
C282 C281 1.387 . S
H283 C295 0.930 . S
H284 C297 0.930 1_556 S
H285 C298 0.930 . S
H286 C302 0.959 . S
H287 C302 0.959 . S
H288 C302 0.961 . S
H289 C303 0.960 . S
H290 C303 0.961 . S
H291 C303 0.959 . S
H292 C306 0.930 . S
H293 C307 0.931 . S
H294 C309 0.930 . S
C295 H283 0.930 . S
C295 C296 1.399 . S
C295 C300 1.399 1_554 S
C296 C295 1.399 . S
C296 C297 1.377 . S
C297 H284 0.930 1_554 S
C297 C296 1.377 . S
C297 C298 1.388 1_554 S
C298 H285 0.930 . S
C298 C297 1.388 1_556 S
C298 C299 1.390 . S
C299 C298 1.390 . S
C299 C300 1.394 . S
C299 C305 1.465 1_556 S
C300 C295 1.399 1_556 S
C300 C299 1.394 . S
C300 C301 1.517 . S
C301 C300 1.517 . S
C301 C302 1.502 1_556 S
C301 C303 1.561 . S
C301 C304 1.526 . S
C302 H286 0.959 . S
C302 H287 0.959 . S
C302 H288 0.961 . S
C302 C301 1.502 1_554 S
C303 H289 0.960 . S
C303 H290 0.961 . S
C303 H291 0.959 . S
C303 C301 1.561 . S
C304 C301 1.526 . S
C304 C305 1.396 1_556 S
C304 C309 1.389 1_556 S
C305 C299 1.465 1_554 S
C305 C304 1.396 1_554 S
C305 C306 1.399 . S
C306 H292 0.930 . S
C306 C305 1.399 . S
C306 C307 1.385 . S
C307 H293 0.931 . S
C307 C306 1.385 . S
C307 C308 1.389 . S
C308 C307 1.389 . S
C308 C309 1.387 . S
C309 H294 0.930 . S
C309 C304 1.389 1_554 S
C309 C308 1.387 . S
H310 C322 0.930 . S
H311 C324 0.930 . S
H312 C325 0.930 . S
H313 C329 0.959 1_455 S
H314 C329 0.959 . S
H315 C329 0.961 . S
H316 C330 0.957 1_655 S
H317 C330 0.961 1_655 S
H318 C330 0.959 . S
H319 C333 0.929 . S
H320 C334 0.931 . S
H321 C336 0.930 . S
C322 H310 0.930 . S
C322 C323 1.399 . S
C322 C327 1.399 . S
C323 C322 1.399 . S
C323 C324 1.376 . S
C324 H311 0.930 . S
C324 C323 1.376 . S
C324 C325 1.388 . S
C325 H312 0.930 . S
C325 C324 1.388 . S
C325 C326 1.390 . S
C326 C325 1.390 . S
C326 C327 1.394 . S
C326 C332 1.465 . S
C327 C322 1.399 . S
C327 C326 1.394 . S
C327 C328 1.516 . S
C328 C327 1.516 . S
C328 C329 1.502 1_455 S
C328 C330 1.561 . S
C328 C331 1.526 . S
C329 H313 0.959 1_655 S
C329 H314 0.959 . S
C329 H315 0.961 . S
C329 C328 1.502 1_655 S
C330 H316 0.957 1_455 S
C330 H317 0.961 1_455 S
C330 H318 0.959 . S
C330 C328 1.561 . S
C331 C328 1.526 . S
C331 C332 1.396 . S
C331 C336 1.390 . S
C332 C326 1.465 . S
C332 C331 1.396 . S
C332 C333 1.399 . S
C333 H319 0.929 . S
C333 C332 1.399 . S
C333 C334 1.385 . S
C334 H320 0.931 . S
C334 C333 1.385 . S
C334 C335 1.389 . S
C335 C334 1.389 . S
C335 C336 1.387 . S
C336 H321 0.930 . S
C336 C331 1.390 . S
C336 C335 1.387 . S
H337 C349 0.930 . S
H338 C351 0.930 . S
H339 C352 0.930 . S
H340 C356 0.959 . S
H341 C356 0.959 . S
H342 C356 0.961 . S
H343 C357 0.960 . S
H344 C357 0.961 . S
H345 C357 0.959 . S
H346 C360 0.929 . S
H347 C361 0.931 . S
H348 C363 0.930 . S
C349 H337 0.930 . S
C349 C350 1.399 . S
C349 C354 1.399 . S
C350 C349 1.399 . S
C350 C351 1.376 . S
C351 H338 0.930 . S
C351 C350 1.376 . S
C351 C352 1.388 . S
C352 H339 0.930 . S
C352 C351 1.388 . S
C352 C353 1.390 . S
C353 C352 1.390 . S
C353 C354 1.394 . S
C353 C359 1.465 . S
C354 C349 1.399 . S
C354 C353 1.394 . S
C354 C355 1.516 . S
C355 C354 1.516 . S
C355 C356 1.502 . S
C355 C357 1.561 . S
C355 C358 1.526 . S
C356 H340 0.959 . S
C356 H341 0.959 . S
C356 H342 0.961 . S
C356 C355 1.502 . S
C357 H343 0.960 . S
C357 H344 0.961 . S
C357 H345 0.959 . S
C357 C355 1.561 . S
C358 C355 1.526 . S
C358 C359 1.396 . S
C358 C363 1.390 . S
C359 C353 1.465 . S
C359 C358 1.396 . S
C359 C360 1.399 . S
C360 H346 0.929 . S
C360 C359 1.399 . S
C360 C361 1.385 . S
C361 H347 0.931 . S
C361 C360 1.385 . S
C361 C362 1.389 . S
C362 C361 1.389 . S
C362 C363 1.387 . S
C363 H348 0.930 . S
C363 C358 1.390 . S
C363 C362 1.387 . S
H364 C376 0.930 . S
H365 C378 0.930 . S
H366 C379 0.930 . S
H367 C383 0.959 . S
H368 C383 0.959 . S
H369 C383 0.961 . S
H370 C384 0.960 . S
H371 C384 0.961 . S
H372 C384 0.959 . S
H373 C387 0.929 . S
H374 C388 0.931 . S
H375 C390 0.930 . S
C376 H364 0.930 . S
C376 C377 1.399 . S
C376 C381 1.399 . S
C377 C376 1.399 . S
C377 C378 1.376 . S
C378 H365 0.930 . S
C378 C377 1.376 . S
C378 C379 1.388 . S
C379 H366 0.930 . S
C379 C378 1.388 . S
C379 C380 1.390 . S
C380 C379 1.390 . S
C380 C381 1.394 . S
C380 C386 1.465 . S
C381 C376 1.399 . S
C381 C380 1.394 . S
C381 C382 1.516 . S
C382 C381 1.516 . S
C382 C383 1.502 . S
C382 C384 1.561 . S
C382 C385 1.526 . S
C383 H367 0.959 . S
C383 H368 0.959 . S
C383 H369 0.961 . S
C383 C382 1.502 . S
C384 H370 0.960 . S
C384 H371 0.961 . S
C384 H372 0.959 . S
C384 C382 1.561 . S
C385 C382 1.526 . S
C385 C386 1.396 . S
C385 C390 1.390 . S
C386 C380 1.465 . S
C386 C385 1.396 . S
C386 C387 1.399 . S
C387 H373 0.929 . S
C387 C386 1.399 . S
C387 C388 1.385 . S
C388 H374 0.931 . S
C388 C387 1.385 . S
C388 C389 1.389 . S
C389 C388 1.389 . S
C389 C390 1.387 . S
C390 H375 0.930 . S
C390 C385 1.390 . S
C390 C389 1.387 . S
H391 C403 0.930 . S
H392 C405 0.930 . S
H393 C406 0.930 . S
H394 C410 0.959 . S
H395 C410 0.959 . S
H396 C410 0.961 . S
H397 C411 0.960 . S
H398 C411 0.961 . S
H399 C411 0.959 . S
H400 C414 0.929 . S
H401 C415 0.931 . S
H402 C417 0.930 . S
C403 H391 0.930 . S
C403 C404 1.399 . S
C403 C408 1.399 . S
C404 C403 1.399 . S
C404 C405 1.376 . S
C405 H392 0.930 . S
C405 C404 1.376 . S
C405 C406 1.388 . S
C406 H393 0.930 . S
C406 C405 1.388 . S
C406 C407 1.390 . S
C407 C406 1.390 . S
C407 C408 1.394 . S
C407 C413 1.465 . S
C408 C403 1.399 . S
C408 C407 1.394 . S
C408 C409 1.516 . S
C409 C408 1.516 . S
C409 C410 1.502 . S
C409 C411 1.561 . S
C409 C412 1.526 . S
C410 H394 0.959 . S
C410 H395 0.959 . S
C410 H396 0.961 . S
C410 C409 1.502 . S
C411 H397 0.960 . S
C411 H398 0.961 . S
C411 H399 0.959 . S
C411 C409 1.561 . S
C412 C409 1.526 . S
C412 C413 1.396 . S
C412 C417 1.390 . S
C413 C407 1.465 . S
C413 C412 1.396 . S
C413 C414 1.399 . S
C414 H400 0.929 . S
C414 C413 1.399 . S
C414 C415 1.385 . S
C415 H401 0.931 . S
C415 C414 1.385 . S
C415 C416 1.389 . S
C416 C415 1.389 . S
C416 C417 1.387 . S
C417 H402 0.930 . S
C417 C412 1.390 . S
C417 C416 1.387 . S
H418 C430 0.930 . S
H419 C432 0.930 . S
H420 C433 0.930 . S
H421 C437 0.959 . S
H422 C437 0.959 . S
H423 C437 0.961 . S
H424 C438 0.960 . S
H425 C438 0.961 . S
H426 C438 0.959 . S
H427 C441 0.929 . S
H428 C442 0.931 . S
H429 C444 0.930 . S
C430 H418 0.930 . S
C430 C431 1.399 . S
C430 C435 1.399 . S
C431 C430 1.399 . S
C431 C432 1.376 . S
C432 H419 0.930 . S
C432 C431 1.376 . S
C432 C433 1.388 . S
C433 H420 0.930 . S
C433 C432 1.388 . S
C433 C434 1.390 . S
C434 C433 1.390 . S
C434 C435 1.394 . S
C434 C440 1.465 . S
C435 C430 1.399 . S
C435 C434 1.394 . S
C435 C436 1.516 . S
C436 C435 1.516 . S
C436 C437 1.502 . S
C436 C438 1.561 . S
C436 C439 1.526 . S
C437 H421 0.959 . S
C437 H422 0.959 . S
C437 H423 0.961 . S
C437 C436 1.502 . S
C438 H424 0.960 . S
C438 H425 0.961 . S
C438 H426 0.959 . S
C438 C436 1.561 . S
C439 C436 1.526 . S
C439 C440 1.396 . S
C439 C444 1.390 . S
C440 C434 1.465 . S
C440 C439 1.396 . S
C440 C441 1.399 . S
C441 H427 0.929 . S
C441 C440 1.399 . S
C441 C442 1.385 . S
C442 H428 0.931 . S
C442 C441 1.385 . S
C442 C443 1.389 . S
C443 C442 1.389 . S
C443 C444 1.387 . S
C444 H429 0.930 . S
C444 C439 1.390 . S
C444 C443 1.387 . S
H445 C457 0.930 . S
H446 C459 0.930 . S
H447 C460 0.930 . S
H448 C464 0.959 . S
H449 C464 0.959 . S
H450 C464 0.961 . S
H451 C465 0.960 . S
H452 C465 0.961 . S
H453 C465 0.959 . S
H454 C468 0.929 . S
H455 C469 0.931 . S
H456 C471 0.930 1_455 S
C457 H445 0.930 . S
C457 C458 1.399 . S
C457 C462 1.399 . S
C458 C457 1.399 . S
C458 C459 1.376 . S
C459 H446 0.930 . S
C459 C458 1.376 . S
C459 C460 1.388 . S
C460 H447 0.930 . S
C460 C459 1.388 . S
C460 C461 1.390 . S
C461 C460 1.390 . S
C461 C462 1.394 . S
C461 C467 1.465 . S
C462 C457 1.399 . S
C462 C461 1.394 . S
C462 C463 1.516 . S
C463 C462 1.516 . S
C463 C464 1.502 1_655 S
C463 C465 1.561 . S
C463 C466 1.526 . S
C464 H448 0.959 . S
C464 H449 0.959 . S
C464 H450 0.961 . S
C464 C463 1.502 1_455 S
C465 H451 0.960 . S
C465 H452 0.961 . S
C465 H453 0.959 . S
C465 C463 1.561 . S
C466 C463 1.526 . S
C466 C467 1.396 . S
C466 C471 1.390 . S
C467 C461 1.465 . S
C467 C466 1.396 . S
C467 C468 1.399 . S
C468 H454 0.929 . S
C468 C467 1.399 . S
C468 C469 1.385 . S
C469 H455 0.931 . S
C469 C468 1.385 . S
C469 C470 1.389 . S
C470 C469 1.389 . S
C470 C471 1.387 . S
C471 H456 0.930 1_655 S
C471 C466 1.390 . S
C471 C470 1.387 . S
H472 C484 0.930 . S
H473 C486 0.930 . S
H474 C487 0.930 . S
H475 C491 0.959 . S
H476 C491 0.959 . S
H477 C491 0.961 . S
H478 C492 0.960 . S
H479 C492 0.961 . S
H480 C492 0.959 . S
H481 C495 0.929 . S
H482 C496 0.931 . S
H483 C498 0.930 . S
C484 H472 0.930 . S
C484 C485 1.399 . S
C484 C489 1.399 . S
C485 C484 1.399 . S
C485 C486 1.376 . S
C486 H473 0.930 . S
C486 C485 1.376 . S
C486 C487 1.388 . S
C487 H474 0.930 . S
C487 C486 1.388 . S
C487 C488 1.390 . S
C488 C487 1.390 . S
C488 C489 1.394 . S
C488 C494 1.465 . S
C489 C484 1.399 . S
C489 C488 1.394 . S
C489 C490 1.516 . S
C490 C489 1.516 . S
C490 C491 1.502 . S
C490 C492 1.561 . S
C490 C493 1.526 . S
C491 H475 0.959 . S
C491 H476 0.959 . S
C491 H477 0.961 . S
C491 C490 1.502 . S
C492 H478 0.960 . S
C492 H479 0.961 . S
C492 H480 0.959 . S
C492 C490 1.561 . S
C493 C490 1.526 . S
C493 C494 1.396 . S
C493 C498 1.390 . S
C494 C488 1.465 . S
C494 C493 1.396 . S
C494 C495 1.399 . S
C495 H481 0.929 . S
C495 C494 1.399 . S
C495 C496 1.385 . S
C496 H482 0.931 . S
C496 C495 1.385 . S
C496 C497 1.389 . S
C497 C496 1.389 . S
C497 C498 1.387 . S
C498 H483 0.930 . S
C498 C493 1.390 . S
C498 C497 1.387 . S
H499 C511 0.930 . S
H500 C513 0.930 . S
H501 C514 0.930 . S
H502 C518 0.959 . S
H503 C518 0.959 . S
H504 C518 0.961 . S
H505 C519 0.960 . S
H506 C519 0.961 . S
H507 C519 0.959 . S
H508 C522 0.929 . S
H509 C523 0.931 . S
H510 C525 0.918 1_655 S
C511 H499 0.930 . S
C511 C512 1.399 . S
C511 C516 1.399 . S
C512 C511 1.399 . S
C512 C513 1.376 . S
C513 H500 0.930 . S
C513 C512 1.376 . S
C513 C514 1.388 . S
C514 H501 0.930 . S
C514 C513 1.388 . S
C514 C515 1.390 . S
C515 C514 1.390 . S
C515 C516 1.394 . S
C515 C521 1.465 . S
C516 C511 1.399 . S
C516 C515 1.394 . S
C516 C517 1.516 . S
C517 C516 1.516 . S
C517 C518 1.502 . S
C517 C519 1.561 1_455 S
C517 C520 1.526 . S
C518 H502 0.959 . S
C518 H503 0.959 . S
C518 H504 0.961 . S
C518 C517 1.502 . S
C519 H505 0.960 . S
C519 H506 0.961 . S
C519 H507 0.959 . S
C519 C517 1.561 1_655 S
C520 C517 1.526 . S
C520 C521 1.396 . S
C520 C525 1.390 . S
C521 C515 1.465 . S
C521 C520 1.396 . S
C521 C522 1.399 . S
C522 H508 0.929 . S
C522 C521 1.399 . S
C522 C523 1.385 . S
C523 H509 0.931 . S
C523 C522 1.385 . S
C523 C524 1.389 . S
C524 C523 1.389 . S
C524 C525 1.387 . S
C525 H510 0.918 1_455 S
C525 C520 1.390 . S
C525 C524 1.387 . S
C227 C173 1.652 . S
C215 C138 1.589 . S
C242 C21 1.607 . S
C254 C196 1.649 . S
C269 C60 1.658 . S
C281 C172 1.651 . S
C296 C99 1.597 . S
C308 C195 1.673 . S
C335 C176 1.660 . S
C323 C16 1.635 . S
C362 C198 1.626 . S
C350 C40 1.626 . S
C377 C79 1.685 . S
C389 C177 1.579 . S
C404 C133 1.621 . S
C416 C197 1.573 . S
C443 C200 1.580 . S
C431 C55 1.688 . S
C470 C175 1.617 . S
C458 C94 1.627 . S
C497 C199 1.641 . S
C485 C118 1.609 . S
C512 C1 1.589 . S
C524 C174 1.595 . S
