# Generated by pormake.
# Topology zzz, (3,6)-cn, num edge types: 1
# Building blocks:
#     Node 0, Type 0, BuildingBlock: BETDAH_clean_linker_0, # of connection points: 3
#     Node 1, Type 0, BuildingBlock: BETDAH_clean_linker_0, # of connection points: 3
#     Node 2, Type 0, BuildingBlock: BETDAH_clean_linker_0, # of connection points: 3
#     Node 3, Type 0, BuildingBlock: BETDAH_clean_linker_0, # of connection points: 3
#     Node 4, Type 0, BuildingBlock: BETDAH_clean_linker_0, # of connection points: 3
#     Node 5, Type 0, BuildingBlock: BETDAH_clean_linker_0, # of connection points: 3
#     Node 6, Type 0, BuildingBlock: BETDAH_clean_linker_0, # of connection points: 3
#     Node 7, Type 0, BuildingBlock: BETDAH_clean_linker_0, # of connection points: 3
#     Node 8, Type 1, BuildingBlock: GEDQOX_clean_sbu_0, # of connection points: 6
#     Node 9, Type 1, BuildingBlock: GEDQOX_clean_sbu_0, # of connection points: 6
#     Node 10, Type 1, BuildingBlock: GEDQOX_clean_sbu_0, # of connection points: 6
#     Node 11, Type 1, BuildingBlock: GEDQOX_clean_sbu_0, # of connection points: 6
#     Edge 12, Type (0, 1), BuildingBlock: CIFDUS_clean_linker_0, # of connection points: 2
#     Edge 13, Type (0, 1), BuildingBlock: CIFDUS_clean_linker_0, # of connection points: 2
#     Edge 14, Type (0, 1), BuildingBlock: CIFDUS_clean_linker_0, # of connection points: 2
#     Edge 15, Type (0, 1), BuildingBlock: CIFDUS_clean_linker_0, # of connection points: 2
#     Edge 16, Type (0, 1), BuildingBlock: CIFDUS_clean_linker_0, # of connection points: 2
#     Edge 17, Type (0, 1), BuildingBlock: CIFDUS_clean_linker_0, # of connection points: 2
#     Edge 18, Type (0, 1), BuildingBlock: CIFDUS_clean_linker_0, # of connection points: 2
#     Edge 19, Type (0, 1), BuildingBlock: CIFDUS_clean_linker_0, # of connection points: 2
#     Edge 20, Type (0, 1), BuildingBlock: CIFDUS_clean_linker_0, # of connection points: 2
#     Edge 21, Type (0, 1), BuildingBlock: CIFDUS_clean_linker_0, # of connection points: 2
#     Edge 22, Type (0, 1), BuildingBlock: CIFDUS_clean_linker_0, # of connection points: 2
#     Edge 23, Type (0, 1), BuildingBlock: CIFDUS_clean_linker_0, # of connection points: 2
#     Edge 24, Type (0, 1), BuildingBlock: CIFDUS_clean_linker_0, # of connection points: 2
#     Edge 25, Type (0, 1), BuildingBlock: CIFDUS_clean_linker_0, # of connection points: 2
#     Edge 26, Type (0, 1), BuildingBlock: CIFDUS_clean_linker_0, # of connection points: 2
#     Edge 27, Type (0, 1), BuildingBlock: CIFDUS_clean_linker_0, # of connection points: 2
#     Edge 28, Type (0, 1), BuildingBlock: CIFDUS_clean_linker_0, # of connection points: 2
#     Edge 29, Type (0, 1), BuildingBlock: CIFDUS_clean_linker_0, # of connection points: 2
#     Edge 30, Type (0, 1), BuildingBlock: CIFDUS_clean_linker_0, # of connection points: 2
#     Edge 31, Type (0, 1), BuildingBlock: CIFDUS_clean_linker_0, # of connection points: 2
#     Edge 32, Type (0, 1), BuildingBlock: CIFDUS_clean_linker_0, # of connection points: 2
#     Edge 33, Type (0, 1), BuildingBlock: CIFDUS_clean_linker_0, # of connection points: 2
#     Edge 34, Type (0, 1), BuildingBlock: CIFDUS_clean_linker_0, # of connection points: 2
#     Edge 35, Type (0, 1), BuildingBlock: CIFDUS_clean_linker_0, # of connection points: 2
# Relax obj value: 0.135
# Max RMSD: 0.207
# Mean RMSD: 0.083
data_MOF--net-zzz--node1-GEDQOX_clean_sbu_0--node2-BETDAH_clean_linker_0--edge1-CIFDUS_clean_linker_0
_symmetry_space_group_name_H-M    P1
_symmetry_Int_Tables_number       1
_symmetry_cell_setting            triclinic
loop_
_symmetry_equiv_pos_as_xyz
'x, y, z'
_cell_length_a     47.926974
_cell_length_b     46.627248
_cell_length_c     15.69414
_cell_angle_alpha  79.110859
_cell_angle_beta   89.237221
_cell_angle_gamma 100.66194
loop_
_atom_site_label
_atom_site_type_symbol
_atom_site_fract_x
_atom_site_fract_y
_atom_site_fract_z
_atom_type_partial_charge
H0 H 0.85509 0.53203 0.29014 0.0
H1 H 0.79998 0.50036 0.10118 0.0
H2 H 0.77037 0.55055 0.27693 0.0
C3 C 0.83444 0.52939 0.26187 0.0
C4 C 0.81343 0.54284 0.29177 0.0
C5 C 0.82997 0.51415 0.19334 0.0
C6 C 0.80359 0.51184 0.15516 0.0
C7 C 0.78179 0.52446 0.1851 0.0
C8 C 0.7867 0.5402 0.25407 0.0
N9 N 0.75583 0.52098 0.14174 0.0
C10 C 0.73135 0.53175 0.15683 0.0
H11 H 0.02535 0.85389 0.26688 0.0
H12 H 0.02519 0.78601 0.11527 0.0
H13 H 0.99888 0.76239 0.38853 0.0
C14 C 0.02235 0.83051 0.26297 0.0
C15 C 0.0124 0.80934 0.3372 0.0
C16 C 0.02712 0.82258 0.1831 0.0
C17 C 0.0219 0.79225 0.17715 0.0
C18 C 0.01209 0.77021 0.25197 0.0
C19 C 1.0069 0.77908 0.3314 0.0
N20 N 1.00648 0.73912 0.25056 0.0
C21 C 0.01349 0.72517 0.18375 0.0
H22 H 0.71766 0.04701 0.22567 0.0
H23 H 0.77213 0.04573 0.00642 0.0
H24 H 0.77348 0.98445 0.24795 0.0
C25 C 0.73507 0.03923 0.19809 0.0
C26 C 0.74549 0.01574 0.24813 0.0
C27 C 0.74389 0.04998 0.11039 0.0
C28 C 0.7655 0.03832 0.07452 0.0
C29 C 0.77688 0.01526 0.1251 0.0
C30 C 0.76611 1.00345 0.21089 0.0
N31 N 0.79566 1.00052 0.08688 0.0
C32 C 0.82297 1.01407 0.05334 0.0
H33 H 0.51783 0.72998 0.46328 0.0
H34 H 0.51641 0.82085 0.351 0.0
H35 H 0.5388 0.79724 0.61775 0.0
C36 C 0.52076 0.75309 0.46994 0.0
C37 C 0.52915 0.76092 0.54882 0.0
C38 C 0.51604 0.77454 0.39926 0.0
C39 C 0.51985 0.80443 0.4066 0.0
C40 C 0.52798 0.8128 0.48586 0.0
C41 C 0.53238 0.79087 0.55695 0.0
N42 N 0.53213 0.84297 0.49582 0.0
C43 C 0.52759 0.86634 0.43112 0.0
H44 H 0.22118 0.5505 0.59897 0.0
H45 H 0.27498 0.53801 0.81559 0.0
H46 H 0.28902 0.50308 0.58747 0.0
C47 C 0.24004 0.54379 0.62736 0.0
C48 C 0.25529 0.52818 0.5819 0.0
C49 C 0.24642 0.54732 0.71226 0.0
C50 C 0.27006 0.53643 0.74928 0.0
C51 C 0.28613 0.52133 0.70331 0.0
C52 C 0.27822 0.51671 0.62022 0.0
N53 N 0.3055 0.50489 0.74776 0.0
C54 C 0.33422 0.51626 0.75454 0.0
H55 H 0.01387 0.23834 0.51222 0.0
H56 H 0.02159 0.30159 0.68207 0.0
H57 H 0.06036 0.32694 0.42254 0.0
C58 C 0.02019 0.26102 0.52231 0.0
C59 C 0.0368 0.28194 0.45738 0.0
C60 C 0.01511 0.26745 0.60398 0.0
C61 C 0.02458 0.29664 0.61824 0.0
C62 C 0.03992 0.31873 0.55106 0.0
C63 C 0.04684 0.31078 0.47196 0.0
N64 N 0.05184 0.3479 0.56388 0.0
C65 C 0.03959 0.36491 0.61294 0.0
H66 H 0.36019 0.04674 0.59703 0.0
H67 H 0.3068 0.04379 0.8217 0.0
H68 H 0.29463 0.09883 0.5778 0.0
C69 C 0.34158 0.05213 0.62582 0.0
C70 C 0.32759 0.07287 0.57608 0.0
C71 C 0.33465 0.04166 0.71463 0.0
C72 C 0.31194 0.05087 0.75255 0.0
C73 C 0.29661 0.07041 0.70277 0.0
C74 C 0.30479 0.08185 0.61453 0.0
N75 N 0.27675 0.08235 0.74643 0.0
C76 C 0.24818 0.07985 0.72816 0.0
H77 H 0.54458 0.35894 0.38102 0.0
H78 H 0.52869 0.26957 0.52851 0.0
H79 H 0.47745 0.29406 0.31187 0.0
C80 C 0.53289 0.33618 0.39113 0.0
C81 C 0.51056 0.329 0.33801 0.0
C82 C 0.53942 0.31504 0.45994 0.0
C83 C 0.52384 0.28581 0.4745 0.0
C84 C 0.50169 0.27794 0.41987 0.0
C85 C 0.49473 0.29987 0.35304 0.0
N86 N 0.48581 0.24844 0.43099 0.0
C87 C 0.49446 0.22352 0.47874 0.0
Nd88 Nd 0.02261 0.04003 0.82614 0.0
Nd89 Nd 0.05058 0.06001 0.99485 0.0
C90 C 0.99397 1.00937 0.71867 0.0
C91 C 0.99775 0.98299 0.68162 0.0
C92 C 0.98138 0.95457 0.71489 0.0
C93 C 0.98563 0.92956 0.68207 0.0
C94 C 1.0064 0.93233 0.61523 0.0
C95 C 0.02227 0.96089 0.58087 0.0
C96 C 0.01801 0.9858 0.61342 0.0
C97 C 0.08097 0.05774 0.81664 0.0
C98 C 0.04364 0.99003 0.98212 0.0
C99 C 0.08534 0.08845 0.09338 0.0
C100 C 0.08476 0.11517 0.13126 0.0
C101 C 0.094 0.11618 0.21517 0.0
C102 C 0.09298 0.14114 0.25206 0.0
C103 C 0.08282 0.16581 0.20561 0.0
C104 C 0.07363 0.16466 0.12126 0.0
C105 C 0.07445 0.13961 0.08479 0.0
C106 C 0.9919 0.05315 0.0134 0.0
C107 C 0.02939 0.10855 0.84206 0.0
O108 O 0.98729 1.00464 0.80203 0.0
O109 O 0.01233 0.03422 0.69224 0.0
O110 O 0.06544 0.06217 0.74993 0.0
O111 O 0.06576 0.04294 0.88177 0.0
O112 O 0.0293 0.99574 0.9112 0.0
O113 O 0.0554 1.0111 0.02387 0.0
O114 O 0.08892 0.09305 0.0085 0.0
O115 O 0.06624 0.06463 0.12533 0.0
O116 O 0.00925 0.06012 0.07201 0.0
O117 O 1.00602 0.04931 0.94959 0.0
O118 O 0.04922 0.10267 0.89668 0.0
O119 O 0.01222 0.08711 0.81302 0.0
H120 H 0.96546 0.9516 0.76707 0.0
H121 H 0.97305 0.90797 0.71029 0.0
H122 H 0.03801 0.9641 0.52809 0.0
H123 H 0.03084 1.00726 0.58526 0.0
H124 H 0.10179 0.09752 0.2526 0.0
H125 H 0.09969 0.14079 0.31779 0.0
H126 H 0.06595 0.1832 0.08293 0.0
H127 H 0.06691 0.13936 0.02019 0.0
Nd128 Nd 0.5414 0.02494 0.86253 0.0
Nd129 Nd 0.5359 0.06976 0.99421 0.0
C130 C 0.55699 0.98262 0.79367 0.0
C131 C 0.58167 0.98497 0.73398 0.0
C132 C 0.59491 0.96059 0.73277 0.0
C133 C 0.62023 0.96414 0.68251 0.0
C134 C 0.63278 0.99222 0.63343 0.0
C135 C 0.61899 0.01635 0.63389 0.0
C136 C 0.59389 1.0128 0.68389 0.0
C137 C 0.53757 0.0814 0.77299 0.0
C138 C 0.59956 0.06646 0.91836 0.0
C139 C 0.52634 0.11163 0.076 0.0
C140 C 0.49921 0.11476 0.11625 0.0
C141 C 0.47369 0.10849 0.07416 0.0
C142 C 0.44749 0.10616 0.11744 0.0
C143 C 0.44616 0.11025 0.20364 0.0
C144 C 0.47168 0.11837 0.24407 0.0
C145 C 0.49801 0.12043 0.20083 0.0
C146 C 0.5286 1.01012 0.06725 0.0
C147 C 0.47891 0.03207 0.92489 0.0
O148 O 0.56346 0.98673 0.87173 0.0
O149 O 0.53698 0.99677 0.7624 0.0
O150 O 0.53874 0.05928 0.73453 0.0
O151 O 0.5387 0.07224 0.853 0.0
O152 O 0.5875 0.04746 0.87077 0.0
O153 O 0.58479 0.07823 0.97053 0.0
O154 O 0.5275 0.11504 0.99109 0.0
O155 O 0.5372 0.08892 0.11396 0.0
O156 O 0.51484 0.02845 0.09433 0.0
O157 O 0.54633 0.02393 0.00635 0.0
O158 O 0.49115 0.0573 0.94714 0.0
O159 O 0.49366 1.01295 0.90259 0.0
H160 H 0.58603 0.93902 0.7721 0.0
H161 H 0.63035 0.94514 0.68386 0.0
H162 H 0.62763 0.03815 0.59555 0.0
H163 H 0.5843 0.03205 0.68466 0.0
H164 H 0.47385 0.10407 0.00889 0.0
H165 H 0.42819 0.10009 0.08451 0.0
H166 H 0.47127 0.12141 0.31081 0.0
H167 H 0.51735 0.12512 0.23481 0.0
Nd168 Nd 0.51929 0.55179 0.99738 0.0
Nd169 Nd 0.55764 0.5367 0.8478 0.0
C170 C 0.48141 0.56942 0.08965 0.0
C171 C 0.47428 0.59769 0.10161 0.0
C172 C 0.45975 0.59881 0.17837 0.0
C173 C 0.45604 0.6261 0.19621 0.0
C174 C 0.46688 0.6528 0.13746 0.0
C175 C 0.48019 0.65138 0.05833 0.0
C176 C 0.48388 0.62399 0.04068 0.0
C177 C 0.57603 0.55375 0.02688 0.0
C178 C 0.54721 0.60481 0.82635 0.0
C179 C 0.59975 0.51995 0.77309 0.0
C180 C 0.60304 0.49057 0.75601 0.0
C181 C 0.60446 0.48606 0.67033 0.0
C182 C 0.60244 0.45732 0.6538 0.0
C183 C 0.59883 0.43258 0.72274 0.0
C184 C 0.59938 0.43732 0.8084 0.0
C185 C 0.6017 0.46605 0.82486 0.0
C186 C 0.50016 0.52342 0.81606 0.0
C187 C 0.5277 0.48388 0.01189 0.0
O188 O 0.47647 0.56205 0.01415 0.0
O189 O 0.50583 0.56428 0.11864 0.0
O190 O 0.55603 0.54461 0.088 0.0
O191 O 0.56578 0.56266 0.95512 0.0
O192 O 0.52961 0.59646 0.89672 0.0
O193 O 0.56184 0.5866 0.79849 0.0
O194 O 0.59906 0.52237 0.85494 0.0
O195 O 0.58079 0.53263 0.72836 0.0
O196 O 0.52013 0.51932 0.76544 0.0
O197 O 0.51164 0.53334 0.87866 0.0
O198 O 0.54912 0.49454 0.95375 0.0
O199 O 0.50988 0.50052 0.03162 0.0
H200 H 0.45231 0.57869 0.22625 0.0
H201 H 0.44615 0.62634 0.25845 0.0
H202 H 0.48859 0.67148 0.01148 0.0
H203 H 0.49506 0.6234 0.98101 0.0
H204 H 0.60565 0.50456 0.61614 0.0
H205 H 0.60182 0.45434 0.58701 0.0
H206 H 0.5969 0.4187 0.8627 0.0
H207 H 0.60116 0.4688 0.89172 0.0
Nd208 Nd 0.02808 0.56818 0.82112 0.0
Nd209 Nd 0.0447 0.52491 0.99997 0.0
C210 C 1.0071 0.60964 0.71758 0.0
C211 C 0.98083 0.6085 0.66928 0.0
C212 C 0.9737 0.63458 0.62214 0.0
C213 C 0.94885 0.63329 0.57565 0.0
C214 C 0.93063 0.60584 0.57547 0.0
C215 C 0.93769 0.57983 0.62455 0.0
C216 C 0.96249 0.58117 0.67094 0.0
C217 C 0.02721 0.51004 0.79846 0.0
C218 C 0.97763 0.52449 0.95895 0.0
C219 C 0.06356 0.4831 0.10876 0.0
C220 C 0.08863 0.48218 0.16272 0.0
C221 C 0.08487 0.47055 0.25216 0.0
C222 C 0.10832 0.47051 0.30441 0.0
C223 C 0.13613 0.48203 0.26825 0.0
C224 C 0.13985 0.49325 0.1783 0.0
C225 C 0.1164 0.49334 0.12619 0.0
C226 C 0.04611 0.58298 0.02329 0.0
C227 C 0.09521 0.56682 0.85844 0.0
O228 O 1.00333 0.60435 0.8024 0.0
O229 O 0.02628 0.59609 0.69087 0.0
O230 O 0.02166 0.53106 0.73771 0.0
O231 O 0.03233 0.52091 0.86559 0.0
O232 O 0.98535 0.54727 0.89352 0.0
O233 O 0.99594 0.51066 0.00531 0.0
O234 O 0.06852 0.48818 0.02444 0.0
O235 O 0.04439 0.49726 0.13228 0.0
O236 O 0.05235 0.56193 0.08236 0.0
O237 O 0.04009 0.5724 0.95609 0.0
O238 O 0.08725 0.54395 0.92369 0.0
O239 O 0.07705 0.58169 0.81455 0.0
H240 H 0.98744 0.65593 0.62077 0.0
H241 H 0.944 0.65381 0.53944 0.0
H242 H 0.92456 0.55824 0.62497 0.0
H243 H 0.96758 0.56076 0.7073 0.0
H244 H 0.06371 0.46186 0.28191 0.0
H245 H 0.10456 0.46211 0.37359 0.0
H246 H 0.16091 0.50196 0.148 0.0
H247 H 0.12007 0.50236 0.05735 0.0
H248 H 0.21229 0.06382 0.86666 0.0
H249 H 0.21609 0.09074 0.58824 0.0
H250 H 0.16423 0.08751 0.59054 0.0
H251 H 0.11765 0.07643 0.67319 0.0
H252 H 0.11483 0.04874 0.95204 0.0
H253 H 0.16635 0.05314 0.94858 0.0
C254 C 0.20164 0.06888 0.80659 0.0
C255 C 0.21764 0.07732 0.7274 0.0
C256 C 0.17204 0.06701 0.80877 0.0
C257 C 0.20395 0.08403 0.64981 0.0
C258 C 0.17438 0.08225 0.65129 0.0
C259 C 0.1284 0.07159 0.7331 0.0
C260 C 0.11243 0.06239 0.81284 0.0
C261 C 0.15817 0.07376 0.73052 0.0
C262 C 0.12661 0.05597 0.88991 0.0
C263 C 0.15608 0.05838 0.888 0.0
H264 H 0.51572 0.21193 0.63756 0.0
H265 H 0.48974 0.17355 0.41538 0.0
H266 H 0.50128 0.12602 0.48647 0.0
H267 H 0.51815 0.09522 0.61264 0.0
H268 H 0.54477 0.1332 0.83479 0.0
H269 H 0.5335 0.18093 0.76397 0.0
C270 C 0.5127 0.19308 0.60511 0.0
C271 C 0.50199 0.19594 0.52172 0.0
C272 C 0.51932 0.16578 0.64669 0.0
C273 C 0.49805 0.17162 0.47971 0.0
C274 C 0.50461 0.1445 0.52032 0.0
C275 C 0.52152 0.11398 0.64547 0.0
C276 C 0.53171 0.11059 0.72967 0.0
C277 C 0.51519 0.1413 0.60387 0.0
C278 C 0.53612 0.13507 0.77122 0.0
C279 C 0.52994 0.16242 0.73026 0.0
H280 H 0.37488 0.49227 0.692 0.0
H281 H 0.36071 0.55424 0.85194 0.0
H282 H 0.41104 0.56183 0.88712 0.0
H283 H 0.4591 0.5501 0.87316 0.0
H284 H 0.47284 0.48807 0.71286 0.0
H285 H 0.42291 0.48128 0.6764 0.0
C286 C 0.38299 0.50767 0.73376 0.0
C287 C 0.3644 0.52294 0.7688 0.0
C288 C 0.41182 0.51166 0.7541 0.0
C289 C 0.37485 0.54255 0.82362 0.0
C290 C 0.40354 0.54673 0.84404 0.0
C291 C 0.451 0.53474 0.83171 0.0
C292 C 0.46954 0.51916 0.79732 0.0
C293 C 0.42221 0.53119 0.8103 0.0
C294 C 0.45897 0.50015 0.74074 0.0
C295 C 0.43042 0.49629 0.71973 0.0
H296 H 0.05804 0.38642 0.756 0.0
H297 H 1.00196 0.39777 0.54521 0.0
H298 H 0.99197 0.44303 0.58688 0.0
H299 H 1.00201 0.48156 0.67626 0.0
H300 H 0.05795 0.47074 0.88715 0.0
H301 H 0.06497 0.42324 0.85386 0.0
C302 C 0.04316 0.39851 0.72062 0.0
C303 C 0.03047 0.38866 0.64814 0.0
C304 C 0.03767 0.42478 0.74478 0.0
C305 C 0.01164 0.40474 0.60182 0.0
C306 C 1.00609 0.43074 0.62531 0.0
C307 C 0.01547 0.46861 0.71566 0.0
C308 C 0.02932 0.47968 0.78481 0.0
C309 C 0.01941 0.44132 0.69558 0.0
C310 C 0.04666 0.46259 0.83496 0.0
C311 C 0.05085 0.43548 0.8152 0.0
H312 H 0.86402 0.04122 0.14017 0.0
H313 H 0.84843 1.00659 0.90629 0.0
H314 H 0.89976 0.01664 0.86899 0.0
H315 H 0.94969 0.03278 0.90865 0.0
H316 H 0.96383 0.06622 0.14595 0.0
H317 H 0.91293 0.05936 0.17577 0.0
C318 C 0.87195 0.03639 0.08036 0.0
C319 C 0.85274 0.02353 0.02552 0.0
C320 C 0.90137 0.04178 0.06036 0.0
C321 C 0.86303 0.01686 0.94885 0.0
C322 C 0.89235 0.02244 0.92787 0.0
C323 C 0.94153 0.03869 0.96642 0.0
C324 C 0.96061 0.04978 0.02525 0.0
C325 C 0.91185 0.03448 0.98391 0.0
C326 C 0.9497 0.05742 0.09982 0.0
C327 C 0.92051 0.05355 0.11709 0.0
H328 H 0.55728 0.89048 0.27948 0.0
H329 H 0.48684 0.89811 0.44155 0.0
H330 H 0.47949 0.94241 0.33904 0.0
H331 H 0.49473 0.98038 0.20747 0.0
H332 H 0.56604 0.97386 0.0466 0.0
H333 H 0.57123 0.92757 0.14318 0.0
C334 C 0.54024 0.90184 0.29156 0.0
C335 C 0.52261 0.89138 0.36744 0.0
C336 C 0.53631 0.9274 0.23251 0.0
C337 C 0.5006 0.906 0.38323 0.0
C338 C 0.49643 0.93127 0.32476 0.0
C339 C 0.51123 0.96867 0.19307 0.0
C340 C 0.52995 0.98052 0.11989 0.0
C341 C 0.51437 0.94238 0.24974 0.0
C342 C 0.55121 0.96509 0.10207 0.0
C343 C 0.55431 0.93871 0.15767 0.0
H344 H 0.7091 0.55993 0.01763 0.0
H345 H 0.68989 0.51688 0.28513 0.0
H346 H 0.6397 0.52072 0.26946 0.0
H347 H 0.60076 0.53329 0.17601 0.0
H348 H 0.62035 0.57602 0.9078 0.0
H349 H 0.67077 0.57527 0.92687 0.0
C350 C 0.69395 0.55202 0.07286 0.0
C351 C 0.70303 0.53856 0.15276 0.0
C352 C 0.66514 0.55382 0.06263 0.0
C353 C 0.68331 0.52777 0.22351 0.0
C354 C 0.65462 0.52974 0.21423 0.0
C355 C 0.61611 0.54258 0.12192 0.0
C356 C 0.60674 0.55433 0.0402 0.0
C357 C 0.64518 0.54221 0.13358 0.0
C358 C 0.62692 0.56649 0.97098 0.0
C359 C 0.65579 0.56617 0.98194 0.0
H360 H 0.05808 0.6976 0.18708 0.0
H361 H 0.97953 0.70461 0.06267 0.0
H362 H 0.98414 0.66313 0.99062 0.0
H363 H 1.00823 0.62089 0.9762 0.0
H364 H 0.08543 0.61332 0.10908 0.0
H365 H 0.08403 0.65882 0.16273 0.0
C366 C 0.04236 0.69048 0.14248 0.0
C367 C 0.01868 0.70431 0.12937 0.0
C368 C 0.04489 0.6662 0.10293 0.0
C369 C 0.99815 0.69452 0.07286 0.0
C370 C 1.00071 0.67065 0.03209 0.0
C371 C 0.02511 0.62976 0.01474 0.0
C372 C 0.04708 0.6138 0.03795 0.0
C373 C 0.02369 0.65576 0.04815 0.0
C374 C 0.06839 0.6252 0.08991 0.0
C375 C 0.06754 0.65119 0.12112 0.0
H376 H 0.04801 0.24796 0.72946 0.0
H377 H 0.96529 0.22674 0.62881 0.0
H378 H 0.96146 0.17429 0.69745 0.0
H379 H 0.98548 0.1333 0.76561 0.0
H380 H 0.06998 0.15601 0.85606 0.0
H381 H 0.06937 0.20846 0.81142 0.0
C382 C 0.02856 0.23209 0.72636 0.0
C383 C 1.00685 0.24123 0.67517 0.0
C384 C 0.02734 0.20181 0.76122 0.0
C385 C 0.98205 0.22027 0.66945 0.0
C386 C 0.98018 0.19016 0.70697 0.0
C387 C 1.00368 0.14976 0.77556 0.0
C388 C 0.02782 0.14046 0.81333 0.0
C389 C 1.00336 0.18041 0.74917 0.0
C390 C 0.05106 0.16223 0.82702 0.0
C391 C 0.05078 0.19244 0.80171 0.0
H392 H 0.35583 0.05332 0.86656 0.0
H393 H 0.36027 0.99675 0.6808 0.0
H394 H 0.4045 0.98461 0.73989 0.0
H395 H 0.44633 0.99828 0.82454 0.0
H396 H 0.44128 0.05519 0.00907 0.0
H397 H 0.39273 0.05846 0.97158 0.0
C398 C 0.36577 0.03737 0.8412 0.0
C399 C 0.35507 0.02649 0.76812 0.0
C400 C 0.39152 0.03104 0.87413 0.0
C401 C 0.3684 1.0059 0.73606 0.0
C402 C 0.39379 0.99907 0.76952 0.0
C403 C 0.43431 1.01068 0.85822 0.0
C404 C 0.44771 0.02727 0.91739 0.0
C405 C 0.40634 1.01281 0.83542 0.0
C406 C 0.43175 0.043 0.96118 0.0
C407 C 0.40391 0.04482 0.93999 0.0
H408 H 0.52926 0.31768 0.62699 0.0
H409 H 0.59544 0.33854 0.42444 0.0
H410 H 0.62334 0.37468 0.49952 0.0
H411 H 0.62317 0.40802 0.60359 0.0
H412 H 0.55525 0.38913 0.80088 0.0
H413 H 0.53406 0.34437 0.7486 0.0
C414 C 0.55041 0.32911 0.60182 0.0
C415 C 0.56033 0.32574 0.52047 0.0
C416 C 0.56565 0.35085 0.64328 0.0
C417 C 0.58755 0.34086 0.48734 0.0
C418 C 0.60328 0.36181 0.52958 0.0
C419 C 0.60412 0.39366 0.63627 0.0
C420 C 0.59052 0.40213 0.7048 0.0
C421 C 0.59166 0.36831 0.60455 0.0
C422 C 0.56612 0.38312 0.74781 0.0
C423 C 0.55385 0.3576 0.71756 0.0
H424 H 0.21472 0.59037 0.66067 0.0
H425 H 0.22847 0.52496 0.88264 0.0
H426 H 0.18452 0.52955 0.95362 0.0
H427 H 0.13838 0.54466 0.94124 0.0
H428 H 0.12146 0.60518 0.71215 0.0
H429 H 0.17016 0.60964 0.65516 0.0
C430 C 0.2083 0.57732 0.72505 0.0
C431 C 0.2248 0.55682 0.76502 0.0
C432 C 0.18198 0.57862 0.76339 0.0
C433 C 0.21651 0.54096 0.8498 0.0
C434 C 0.19102 0.54322 0.8901 0.0
C435 C 0.14529 0.5591 0.87915 0.0
C436 C 0.12591 0.57402 0.83024 0.0
C437 C 0.17296 0.56077 0.84557 0.0
C438 C 0.13568 0.59316 0.75092 0.0
C439 C 0.16356 0.59565 0.71815 0.0
H440 H 0.07182 0.8678 0.16792 0.0
H441 H 0.99856 0.83439 0.0347 0.0
H442 H 0.99919 0.88459 0.951 0.0
H443 H 0.01452 0.93891 0.93934 0.0
H444 H 0.08366 0.97188 0.09035 0.0
H445 H 0.09016 0.9212 0.14556 0.0
C446 C 0.0567 0.87141 0.11796 0.0
C447 C 0.03506 0.84756 0.10783 0.0
C448 C 0.05564 0.90054 0.0765 0.0
C449 C 0.01554 0.85234 0.04322 0.0
C450 C 0.01551 0.88119 0.99695 0.0
C451 C 0.03118 0.93502 0.98372 0.0
C452 C 0.04821 0.9592 0.01201 0.0
C453 C 0.03438 0.90564 0.01706 0.0
C454 C 0.06983 0.95373 0.06897 0.0
C455 C 0.07375 0.92474 0.10001 0.0
H456 H 0.72224 0.04169 0.95583 0.0
H457 H 0.72348 0.0981 0.14452 0.0
H458 H 0.67922 0.11221 0.09231 0.0
H459 H 0.63521 0.09926 0.01588 0.0
H460 H 0.63545 0.04384 0.8241 0.0
H461 H 0.68408 0.03928 0.85357 0.0
C462 C 0.71362 0.05816 0.98292 0.0
C463 C 0.72569 0.06805 0.05584 0.0
C464 C 0.68786 0.06578 0.95361 0.0
C465 C 0.71421 0.08957 0.08956 0.0
C466 C 0.68873 0.09746 0.06026 0.0
C467 C 0.64612 0.08686 0.97886 0.0
C468 C 0.63112 0.07106 0.92029 0.0
C469 C 0.67443 0.08418 0.99607 0.0
C470 C 0.64597 0.05565 0.87153 0.0
C471 C 0.67397 0.05296 0.88821 0.0
H472 H 0.464 0.74814 0.36422 0.0
H473 H 0.55018 0.77653 0.25877 0.0
H474 H 0.54052 0.74408 0.15252 0.0
H475 H 0.51078 0.70009 0.11426 0.0
H476 H 0.42491 0.67024 0.22409 0.0
H477 H 0.431 0.71105 0.30349 0.0
C478 C 0.48018 0.74809 0.31523 0.0
C479 C 0.50765 0.76454 0.31836 0.0
C480 C 0.4747 0.72861 0.25689 0.0
C481 C 0.5288 0.76419 0.25623 0.0
C482 C 0.52335 0.74537 0.19644 0.0
C483 C 0.493 0.70312 0.15287 0.0
C484 C 0.46766 0.68171 0.16495 0.0
C485 C 0.49684 0.7263 0.19954 0.0
C486 C 0.4449 0.68598 0.21557 0.0
C487 C 0.44835 0.70932 0.26092 0.0
H488 H 0.84869 0.52446 0.02474 0.0
H489 H 0.86656 0.48218 0.28153 0.0
H490 H 0.91339 0.4776 0.22829 0.0
H491 H 0.95193 0.49329 0.11411 0.0
H492 H 0.93397 0.53712 0.85857 0.0
H493 H 0.88458 0.53291 0.90547 0.0
C494 C 0.86245 0.51332 0.06833 0.0
C495 C 0.85437 0.50402 0.15701 0.0
C496 C 0.88962 0.5115 0.03778 0.0
C497 C 0.87252 0.48985 0.21303 0.0
C498 C 0.89934 0.48734 0.18273 0.0
C499 C 0.93705 0.50126 0.06819 0.0
C500 C 0.94684 0.51606 0.9836 0.0
C501 C 0.90861 0.49931 0.09604 0.0
C502 C 0.9272 0.52615 0.92473 0.0
C503 C 0.89886 0.52376 0.95139 0.0
H504 H 0.08617 0.26381 0.4367 0.0
H505 H 1.00712 0.27187 0.31636 0.0
H506 H 0.01548 0.23785 0.22149 0.0
H507 H 0.0417 0.20018 0.18942 0.0
H508 H 0.12044 0.19121 0.31301 0.0
H509 H 0.11556 0.23072 0.39088 0.0
C510 C 0.07146 0.25907 0.38696 0.0
C511 C 0.04641 0.27083 0.38183 0.0
C512 C 0.07586 0.23848 0.33546 0.0
C513 C 0.02689 0.26369 0.31964 0.0
C514 C 0.03147 0.24384 0.26654 0.0
C515 C 0.05819 0.20725 0.23172 0.0
C516 C 0.08119 0.19216 0.24604 0.0
C517 C 0.05534 0.2302 0.27629 0.0
C518 C 0.10209 0.20169 0.30219 0.0
C519 C 0.09947 0.22454 0.34631 0.0
H520 H 0.33562 0.049 0.43579 0.0
H521 H 0.35288 0.13101 0.53053 0.0
H522 H 0.39073 0.15151 0.41718 0.0
H523 H 0.42396 0.14259 0.30694 0.0
H524 H 0.40636 0.06001 0.21415 0.0
H525 H 0.36371 0.04328 0.31024 0.0
C526 C 0.3469 0.07181 0.42901 0.0
C527 C 0.34146 0.08855 0.49084 0.0
C528 C 0.36913 0.08303 0.36545 0.0
C529 C 0.35642 0.11792 0.48266 0.0
C530 C 0.37841 0.12942 0.41883 0.0
C531 C 0.4105 0.12115 0.30704 0.0
C532 C 0.41845 0.10246 0.25417 0.0
C533 C 0.38582 0.11164 0.36251 0.0
C534 C 0.40068 0.07485 0.25406 0.0
C535 C 0.37631 0.0652 0.3092 0.0
H536 H 0.54494 0.35706 0.20007 0.0
H537 H 0.46401 0.35558 0.32433 0.0
H538 H 0.46091 0.40343 0.23059 0.0
H539 H 0.48439 0.44849 0.12407 0.0
H540 H 0.56618 0.4484 0.00494 0.0
H541 H 0.56574 0.39874 0.0853 0.0
C542 C 0.52626 0.36687 0.20468 0.0
C543 C 0.50466 0.35292 0.2681 0.0
C544 C 0.52506 0.3945 0.15254 0.0
C545 C 0.48068 0.36584 0.27478 0.0
C546 C 0.47913 0.39336 0.22204 0.0
C547 C 0.50197 0.43748 0.11529 0.0
C548 C 0.52539 0.45255 0.05861 0.0
C549 C 0.50169 0.40842 0.1625 0.0
C550 C 0.54784 0.43768 0.04769 0.0
C551 C 0.54769 0.4091 0.09387 0.0
H552 H 0.22304 0.4759 0.5668 0.0
H553 H 0.25785 0.56362 0.42243 0.0
H554 H 0.22528 0.55583 0.30632 0.0
H555 H 0.1822 0.52708 0.25805 0.0
H556 H 0.14584 0.44004 0.40641 0.0
H557 H 0.1834 0.44461 0.5093 0.0
C558 C 0.22419 0.49274 0.50809 0.0
C559 C 0.2431 0.52003 0.50185 0.0
C560 C 0.20451 0.48857 0.44381 0.0
C561 C 0.24386 0.54221 0.42726 0.0
C562 C 0.22496 0.5379 0.36168 0.0
C563 C 0.18283 0.50878 0.31164 0.0
C564 C 0.16091 0.48341 0.3249 0.0
C565 C 0.20444 0.51162 0.37096 0.0
C566 C 0.16201 0.46011 0.39554 0.0
C567 C 0.18362 0.4626 0.45417 0.0
H568 H 0.05099 0.84086 0.42397 0.0
H569 H 0.96139 0.80604 0.42261 0.0
H570 H 0.95132 0.83971 0.517 0.0
H571 H 0.96785 0.88474 0.57972 0.0
H572 H 0.05786 0.92002 0.57479 0.0
H573 H 0.06786 0.8809 0.50267 0.0
C574 C 0.02934 0.83987 0.44722 0.0
C575 C 1.00699 0.82079 0.41707 0.0
C576 C 0.02373 0.86016 0.49811 0.0
C577 C 0.97899 0.82009 0.44623 0.0
C578 C 0.97323 0.83976 0.49895 0.0
C579 C 0.98967 0.88352 0.56442 0.0
C580 C 0.01201 0.90588 0.58112 0.0
C581 C 0.99537 0.86081 0.52221 0.0
C582 C 0.04016 0.90377 0.56067 0.0
C583 C 0.04595 0.88121 0.51992 0.0
H584 H 0.74179 0.04227 0.38528 0.0
H585 H 0.7151 0.95947 0.29957 0.0
H586 H 0.679 0.94285 0.41964 0.0
H587 H 0.64999 0.95586 0.53301 0.0
H588 H 0.67721 0.03914 0.61723 0.0
H589 H 0.71799 0.05161 0.51384 0.0
C590 C 0.7287 0.02016 0.395 0.0
C591 C 0.73101 1.00208 0.3341 0.0
C592 C 0.70756 1.01121 0.46246 0.0
C593 C 0.71387 0.97359 0.34644 0.0
C594 C 0.69297 0.96429 0.41432 0.0
C595 C 0.66521 0.97639 0.53027 0.0
C596 C 0.66002 0.99691 0.58116 0.0
C597 C 0.6888 0.98348 0.47041 0.0
C598 C 0.68011 0.02337 0.57684 0.0
C599 C 0.70359 0.03047 0.51811 0.0
H600 H 0.56461 0.72278 0.54262 0.0
H601 H 0.50462 0.74506 0.71405 0.0
H602 H 0.5063 0.6993 0.81982 0.0
H603 H 0.5211 0.65037 0.85492 0.0
H604 H 0.58069 0.62884 0.67911 0.0
H605 H 0.58285 0.67678 0.584 0.0
C606 C 0.5523 0.71783 0.60393 0.0
C607 C 0.53441 0.73707 0.62053 0.0
C608 C 0.55297 0.69136 0.66303 0.0
C609 C 0.51867 0.73062 0.70022 0.0
C610 C 0.51943 0.70432 0.76015 0.0
C611 C 0.53476 0.65621 0.79639 0.0
C612 C 0.55034 0.63555 0.77419 0.0
C613 C 0.53589 0.68407 0.74101 0.0
C614 C 0.56816 0.64391 0.69806 0.0
C615 C 0.56948 0.67144 0.64326 0.0
H616 H 0.84788 0.59621 0.27079 0.0
H617 H 0.80053 0.52598 0.46556 0.0
H618 H 0.83162 0.54225 0.57702 0.0
H619 H 0.8778 0.57005 0.6117 0.0
H620 H 0.92733 0.63703 0.41103 0.0
H621 H 0.88995 0.62881 0.31005 0.0
C622 C 0.84354 0.5855 0.33854 0.0
C623 C 0.82178 0.56018 0.3603 0.0
C624 C 0.86259 0.59384 0.40079 0.0
C625 C 0.81675 0.54589 0.4477 0.0
C626 C 0.83496 0.55483 0.51099 0.0
C627 C 0.8803 0.58307 0.54614 0.0
C628 C 0.90568 0.60386 0.51908 0.0
C629 C 0.8589 0.57768 0.4872 0.0
C630 C 0.90814 0.62098 0.43429 0.0
C631 C 0.88677 0.61617 0.37604 0.0
loop_
_geom_bond_atom_site_label_1
_geom_bond_atom_site_label_2
_geom_bond_distance
_geom_bond_site_symmetry_2
_ccdc_geom_bond_type
H0 C3 0.929 . S
H1 C6 0.929 . S
H2 C8 0.930 . S
C3 H0 0.929 . S
C3 C4 1.398 . S
C3 C5 1.396 1_554 S
C4 C3 1.398 . S
C4 C8 1.407 . S
C5 C3 1.396 1_556 S
C5 C6 1.394 . S
C6 H1 0.929 . S
C6 C5 1.394 . S
C6 C7 1.382 1_556 S
C7 C6 1.382 1_554 S
C7 C8 1.392 . S
C7 N9 1.420 . S
C8 H2 0.930 . S
C8 C4 1.407 . S
C8 C7 1.392 . S
N9 C7 1.420 . S
N9 C10 1.244 1_554 S
C10 N9 1.244 1_556 S
H11 C14 0.929 . S
H12 C17 0.929 1_556 S
H13 C19 0.930 . S
C14 H11 0.929 . S
C14 C15 1.398 . S
C14 C16 1.396 . S
C15 C14 1.398 . S
C15 C19 1.407 . S
C16 C14 1.396 . S
C16 C17 1.394 . S
C17 H12 0.929 1_554 S
C17 C16 1.394 . S
C17 C18 1.382 . S
C18 C17 1.382 . S
C18 C19 1.392 . S
C18 N20 1.420 . S
C19 H13 0.930 . S
C19 C15 1.407 . S
C19 C18 1.392 . S
N20 C18 1.420 . S
N20 C21 1.244 . S
C21 N20 1.244 . S
H22 C25 0.929 . S
H23 C28 0.929 1_556 S
H24 C30 0.930 . S
C25 H22 0.929 . S
C25 C26 1.398 . S
C25 C27 1.396 . S
C26 C25 1.398 . S
C26 C30 1.407 . S
C27 C25 1.396 . S
C27 C28 1.394 . S
C28 H23 0.929 1_554 S
C28 C27 1.394 . S
C28 C29 1.382 . S
C29 C28 1.382 . S
C29 C30 1.392 . S
C29 N31 1.420 . S
C30 H24 0.930 . S
C30 C26 1.407 . S
C30 C29 1.392 . S
N31 C29 1.420 . S
N31 C32 1.244 . S
C32 N31 1.244 . S
H33 C36 0.929 . S
H34 C39 0.929 . S
H35 C41 0.930 . S
C36 H33 0.929 . S
C36 C37 1.398 . S
C36 C38 1.396 . S
C37 C36 1.398 . S
C37 C41 1.407 . S
C38 C36 1.396 . S
C38 C39 1.394 . S
C39 H34 0.929 . S
C39 C38 1.394 . S
C39 C40 1.382 . S
C40 C39 1.382 . S
C40 C41 1.392 . S
C40 N42 1.420 . S
C41 H35 0.930 . S
C41 C37 1.407 . S
C41 C40 1.392 . S
N42 C40 1.420 . S
N42 C43 1.244 . S
C43 N42 1.244 . S
H44 C47 0.929 . S
H45 C50 0.929 . S
H46 C52 0.930 . S
C47 H44 0.929 . S
C47 C48 1.398 . S
C47 C49 1.396 . S
C48 C47 1.398 . S
C48 C52 1.407 . S
C49 C47 1.396 . S
C49 C50 1.394 . S
C50 H45 0.929 . S
C50 C49 1.394 . S
C50 C51 1.382 . S
C51 C50 1.382 . S
C51 C52 1.392 . S
C51 N53 1.420 . S
C52 H46 0.930 . S
C52 C48 1.407 . S
C52 C51 1.392 . S
N53 C51 1.420 . S
N53 C54 1.244 . S
C54 N53 1.244 . S
H55 C58 0.929 . S
H56 C61 0.929 . S
H57 C63 0.930 . S
C58 H55 0.929 . S
C58 C59 1.398 . S
C58 C60 1.396 . S
C59 C58 1.398 . S
C59 C63 1.407 . S
C60 C58 1.396 . S
C60 C61 1.394 . S
C61 H56 0.929 . S
C61 C60 1.394 . S
C61 C62 1.382 . S
C62 C61 1.382 . S
C62 C63 1.392 . S
C62 N64 1.420 . S
C63 H57 0.930 . S
C63 C59 1.407 . S
C63 C62 1.392 . S
N64 C62 1.420 . S
N64 C65 1.244 . S
C65 N64 1.244 . S
H66 C69 0.929 . S
H67 C72 0.929 . S
H68 C74 0.930 . S
C69 H66 0.929 . S
C69 C70 1.398 . S
C69 C71 1.396 . S
C70 C69 1.398 . S
C70 C74 1.407 . S
C71 C69 1.396 . S
C71 C72 1.394 . S
C72 H67 0.929 . S
C72 C71 1.394 . S
C72 C73 1.382 . S
C73 C72 1.382 . S
C73 C74 1.392 . S
C73 N75 1.420 . S
C74 H68 0.930 . S
C74 C70 1.407 . S
C74 C73 1.392 . S
N75 C73 1.420 . S
N75 C76 1.244 . S
C76 N75 1.244 . S
H77 C80 0.929 . S
H78 C83 0.929 . S
H79 C85 0.930 . S
C80 H77 0.929 . S
C80 C81 1.398 . S
C80 C82 1.396 . S
C81 C80 1.398 . S
C81 C85 1.407 . S
C82 C80 1.396 . S
C82 C83 1.394 . S
C83 H78 0.929 . S
C83 C82 1.394 . S
C83 C84 1.382 . S
C84 C83 1.382 . S
C84 C85 1.392 . S
C84 N86 1.420 . S
C85 H79 0.930 . S
C85 C81 1.407 . S
C85 C84 1.392 . S
N86 C84 1.420 . S
N86 C87 1.244 . S
C87 N86 1.244 . S
Nd88 C90 2.836 1_545 S
Nd88 O108 2.500 1_445 S
Nd88 O109 2.492 1_545 S
Nd88 O110 2.487 . S
Nd88 O111 2.682 . S
Nd88 O112 2.410 1_545 S
Nd88 O117 2.414 1_455 S
Nd88 O119 2.424 . S
Nd89 C99 2.836 . S
Nd89 O111 2.414 1_554 S
Nd89 O113 2.424 1_545 S
Nd89 O114 2.500 . S
Nd89 O115 2.492 . S
Nd89 O116 2.487 1_455 S
Nd89 O117 2.682 1_454 S
Nd89 O118 2.410 1_554 S
C90 Nd88 2.836 1_565 S
C90 C91 1.498 . S
C90 O108 1.258 1_455 S
C90 O109 1.239 . S
C91 C90 1.498 . S
C91 C92 1.366 1_455 S
C91 C96 1.407 . S
C92 C91 1.366 1_655 S
C92 C93 1.392 . S
C92 H120 0.930 . S
C93 C92 1.392 . S
C93 C94 1.398 . S
C93 H121 0.929 . S
C94 C93 1.398 . S
C94 C95 1.352 1_655 S
C95 C94 1.352 1_455 S
C95 C96 1.384 . S
C95 H122 0.930 . S
C96 C91 1.407 . S
C96 C95 1.384 . S
C96 H123 0.929 . S
C97 O110 1.241 . S
C97 O111 1.273 . S
C98 O112 1.251 . S
C98 O113 1.268 1_556 S
C99 Nd89 2.836 . S
C99 C100 1.498 . S
C99 O114 1.258 . S
C99 O115 1.239 . S
C100 C99 1.498 . S
C100 C101 1.366 . S
C100 C105 1.407 . S
C101 C100 1.366 . S
C101 C102 1.392 . S
C101 H124 0.930 . S
C102 C101 1.392 . S
C102 C103 1.398 . S
C102 H125 0.929 . S
C103 C102 1.398 . S
C103 C104 1.352 . S
C104 C103 1.352 . S
C104 C105 1.384 . S
C104 H126 0.930 . S
C105 C100 1.407 . S
C105 C104 1.384 . S
C105 H127 0.929 . S
C106 O116 1.241 1_556 S
C106 O117 1.273 . S
C107 O118 1.251 . S
C107 O119 1.268 . S
O108 Nd88 2.500 1_665 S
O108 C90 1.258 1_655 S
O109 Nd88 2.492 1_565 S
O109 C90 1.239 . S
O110 Nd88 2.487 . S
O110 C97 1.241 . S
O111 Nd88 2.682 . S
O111 Nd89 2.414 1_556 S
O111 C97 1.273 . S
O112 Nd88 2.410 1_565 S
O112 C98 1.251 . S
O113 Nd89 2.424 1_565 S
O113 C98 1.268 1_554 S
O114 Nd89 2.500 . S
O114 C99 1.258 . S
O115 Nd89 2.492 . S
O115 C99 1.239 . S
O116 Nd89 2.487 1_655 S
O116 C106 1.241 1_554 S
O117 Nd88 2.414 1_655 S
O117 Nd89 2.682 1_656 S
O117 C106 1.273 . S
O118 Nd89 2.410 1_556 S
O118 C107 1.251 . S
O119 Nd88 2.424 . S
O119 C107 1.268 . S
H120 C92 0.930 . S
H121 C93 0.929 . S
H122 C95 0.930 . S
H123 C96 0.929 . S
H124 C101 0.930 . S
H125 C102 0.929 . S
H126 C104 0.930 . S
H127 C105 0.929 . S
Nd128 C130 2.836 1_545 S
Nd128 O148 2.500 1_545 S
Nd128 O149 2.492 . S
Nd128 O150 2.487 . S
Nd128 O151 2.682 . S
Nd128 O152 2.410 . S
Nd128 O157 2.414 1_545 S
Nd128 O159 2.424 . S
Nd129 C139 2.836 . S
Nd129 O151 2.414 1_554 S
Nd129 O153 2.424 1_554 S
Nd129 O154 2.500 . S
Nd129 O155 2.492 . S
Nd129 O156 2.487 1_545 S
Nd129 O157 2.682 1_544 S
Nd129 O158 2.410 1_554 S
C130 Nd128 2.836 1_565 S
C130 C131 1.498 . S
C130 O148 1.258 . S
C130 O149 1.239 1_565 S
C131 C130 1.498 . S
C131 C132 1.366 . S
C131 C136 1.407 . S
C132 C131 1.366 . S
C132 C133 1.392 . S
C132 H160 0.930 . S
C133 C132 1.392 . S
C133 C134 1.398 . S
C133 H161 0.929 . S
C134 C133 1.398 . S
C134 C135 1.352 . S
C135 C134 1.352 . S
C135 C136 1.384 . S
C135 H162 0.930 . S
C136 C131 1.407 . S
C136 C135 1.384 . S
C136 H163 0.929 1_565 S
C137 O150 1.241 . S
C137 O151 1.273 . S
C138 O152 1.251 . S
C138 O153 1.268 . S
C139 Nd129 2.836 . S
C139 C140 1.498 . S
C139 O154 1.258 . S
C139 O155 1.239 . S
C140 C139 1.498 . S
C140 C141 1.366 . S
C140 C145 1.407 . S
C141 C140 1.366 . S
C141 C142 1.392 . S
C141 H164 0.930 . S
C142 C141 1.392 . S
C142 C143 1.398 . S
C142 H165 0.929 . S
C143 C142 1.398 . S
C143 C144 1.352 . S
C144 C143 1.352 . S
C144 C145 1.384 . S
C144 H166 0.930 . S
C145 C140 1.407 . S
C145 C144 1.384 . S
C145 H167 0.929 . S
C146 O156 1.241 . S
C146 O157 1.273 1_554 S
C147 O158 1.251 . S
C147 O159 1.268 . S
O148 Nd128 2.500 1_565 S
O148 C130 1.258 . S
O149 Nd128 2.492 . S
O149 C130 1.239 1_545 S
O150 Nd128 2.487 . S
O150 C137 1.241 . S
O151 Nd128 2.682 . S
O151 Nd129 2.414 1_556 S
O151 C137 1.273 . S
O152 Nd128 2.410 . S
O152 C138 1.251 . S
O153 Nd129 2.424 1_556 S
O153 C138 1.268 . S
O154 Nd129 2.500 . S
O154 C139 1.258 . S
O155 Nd129 2.492 . S
O155 C139 1.239 . S
O156 Nd129 2.487 1_565 S
O156 C146 1.241 . S
O157 Nd128 2.414 1_565 S
O157 Nd129 2.682 1_566 S
O157 C146 1.273 1_556 S
O158 Nd129 2.410 1_556 S
O158 C147 1.251 . S
O159 Nd128 2.424 . S
O159 C147 1.268 . S
H160 C132 0.930 . S
H161 C133 0.929 . S
H162 C135 0.930 . S
H163 C136 0.929 1_545 S
H164 C141 0.930 . S
H165 C142 0.929 . S
H166 C144 0.930 . S
H167 C145 0.929 . S
Nd168 C170 2.836 . S
Nd168 O188 2.500 . S
Nd168 O189 2.492 . S
Nd168 O190 2.487 . S
Nd168 O191 2.682 1_554 S
Nd168 O192 2.410 1_554 S
Nd168 O197 2.414 1_554 S
Nd168 O199 2.424 . S
Nd169 C179 2.836 . S
Nd169 O191 2.414 . S
Nd169 O193 2.424 . S
Nd169 O194 2.500 . S
Nd169 O195 2.492 . S
Nd169 O196 2.487 . S
Nd169 O197 2.682 . S
Nd169 O198 2.410 . S
C170 Nd168 2.836 . S
C170 C171 1.498 . S
C170 O188 1.258 . S
C170 O189 1.239 . S
C171 C170 1.498 . S
C171 C172 1.366 . S
C171 C176 1.407 . S
C172 C171 1.366 . S
C172 C173 1.392 . S
C172 H200 0.930 . S
C173 C172 1.392 . S
C173 C174 1.398 . S
C173 H201 0.929 . S
C174 C173 1.398 . S
C174 C175 1.352 . S
C175 C174 1.352 . S
C175 C176 1.384 . S
C175 H202 0.930 . S
C176 C171 1.407 . S
C176 C175 1.384 . S
C176 H203 0.929 . S
C177 O190 1.241 1_556 S
C177 O191 1.273 . S
C178 O192 1.251 . S
C178 O193 1.268 . S
C179 Nd169 2.836 . S
C179 C180 1.498 . S
C179 O194 1.258 . S
C179 O195 1.239 . S
C180 C179 1.498 . S
C180 C181 1.366 . S
C180 C185 1.407 . S
C181 C180 1.366 . S
C181 C182 1.392 . S
C181 H204 0.930 . S
C182 C181 1.392 . S
C182 C183 1.398 . S
C182 H205 0.929 . S
C183 C182 1.398 . S
C183 C184 1.352 . S
C184 C183 1.352 . S
C184 C185 1.384 . S
C184 H206 0.930 . S
C185 C180 1.407 . S
C185 C184 1.384 . S
C185 H207 0.929 . S
C186 O196 1.241 . S
C186 O197 1.273 . S
C187 O198 1.251 1_554 S
C187 O199 1.268 . S
O188 Nd168 2.500 . S
O188 C170 1.258 . S
O189 Nd168 2.492 . S
O189 C170 1.239 . S
O190 Nd168 2.487 . S
O190 C177 1.241 1_554 S
O191 Nd168 2.682 1_556 S
O191 Nd169 2.414 . S
O191 C177 1.273 . S
O192 Nd168 2.410 1_556 S
O192 C178 1.251 . S
O193 Nd169 2.424 . S
O193 C178 1.268 . S
O194 Nd169 2.500 . S
O194 C179 1.258 . S
O195 Nd169 2.492 . S
O195 C179 1.239 . S
O196 Nd169 2.487 . S
O196 C186 1.241 . S
O197 Nd168 2.414 1_556 S
O197 Nd169 2.682 . S
O197 C186 1.273 . S
O198 Nd169 2.410 . S
O198 C187 1.251 1_556 S
O199 Nd168 2.424 . S
O199 C187 1.268 . S
H200 C172 0.930 . S
H201 C173 0.929 . S
H202 C175 0.930 . S
H203 C176 0.929 . S
H204 C181 0.930 . S
H205 C182 0.929 . S
H206 C184 0.930 . S
H207 C185 0.929 . S
Nd208 C210 2.836 1_455 S
Nd208 O228 2.500 1_455 S
Nd208 O229 2.492 1_455 S
Nd208 O230 2.487 . S
Nd208 O231 2.682 . S
Nd208 O232 2.410 1_455 S
Nd208 O237 2.414 . S
Nd208 O239 2.424 . S
Nd209 C219 2.836 . S
Nd209 O231 2.414 1_554 S
Nd209 O233 2.424 1_455 S
Nd209 O234 2.500 . S
Nd209 O235 2.492 . S
Nd209 O236 2.487 . S
Nd209 O237 2.682 1_554 S
Nd209 O238 2.410 1_554 S
C210 Nd208 2.836 1_655 S
C210 C211 1.498 . S
C210 O228 1.258 . S
C210 O229 1.239 . S
C211 C210 1.498 . S
C211 C212 1.366 . S
C211 C216 1.407 . S
C212 C211 1.366 . S
C212 C213 1.392 . S
C212 H240 0.930 . S
C213 C212 1.392 . S
C213 C214 1.398 . S
C213 H241 0.929 . S
C214 C213 1.398 . S
C214 C215 1.352 . S
C215 C214 1.352 . S
C215 C216 1.384 . S
C215 H242 0.930 . S
C216 C211 1.407 . S
C216 C215 1.384 . S
C216 H243 0.929 . S
C217 O230 1.241 . S
C217 O231 1.273 . S
C218 O232 1.251 . S
C218 O233 1.268 1_556 S
C219 Nd209 2.836 . S
C219 C220 1.498 . S
C219 O234 1.258 . S
C219 O235 1.239 . S
C220 C219 1.498 . S
C220 C221 1.366 . S
C220 C225 1.407 . S
C221 C220 1.366 . S
C221 C222 1.392 . S
C221 H244 0.930 . S
C222 C221 1.392 . S
C222 C223 1.398 . S
C222 H245 0.929 . S
C223 C222 1.398 . S
C223 C224 1.352 . S
C224 C223 1.352 . S
C224 C225 1.384 . S
C224 H246 0.930 . S
C225 C220 1.407 . S
C225 C224 1.384 . S
C225 H247 0.929 . S
C226 O236 1.241 1_556 S
C226 O237 1.273 . S
C227 O238 1.251 . S
C227 O239 1.268 . S
O228 Nd208 2.500 1_655 S
O228 C210 1.258 . S
O229 Nd208 2.492 1_655 S
O229 C210 1.239 . S
O230 Nd208 2.487 . S
O230 C217 1.241 . S
O231 Nd208 2.682 . S
O231 Nd209 2.414 1_556 S
O231 C217 1.273 . S
O232 Nd208 2.410 1_655 S
O232 C218 1.251 . S
O233 Nd209 2.424 1_655 S
O233 C218 1.268 1_554 S
O234 Nd209 2.500 . S
O234 C219 1.258 . S
O235 Nd209 2.492 . S
O235 C219 1.239 . S
O236 Nd209 2.487 . S
O236 C226 1.241 1_554 S
O237 Nd208 2.414 . S
O237 Nd209 2.682 1_556 S
O237 C226 1.273 . S
O238 Nd209 2.410 1_556 S
O238 C227 1.251 . S
O239 Nd208 2.424 . S
O239 C227 1.268 . S
H240 C212 0.930 . S
H241 C213 0.929 . S
H242 C215 0.930 . S
H243 C216 0.929 . S
H244 C221 0.930 . S
H245 C222 0.929 . S
H246 C224 0.930 . S
H247 C225 0.929 . S
H248 C254 0.930 . S
H249 C257 0.930 . S
H250 C258 0.930 . S
H251 C259 0.930 . S
H252 C262 0.930 . S
H253 C263 0.930 . S
C254 H248 0.930 . S
C254 C255 1.355 . S
C254 C256 1.415 . S
C255 C254 1.355 . S
C255 C257 1.419 . S
C256 C254 1.415 . S
C256 C261 1.425 . S
C256 C263 1.409 . S
C257 H249 0.930 . S
C257 C255 1.419 . S
C257 C258 1.362 . S
C258 H250 0.930 . S
C258 C257 1.362 . S
C258 C261 1.409 . S
C259 H251 0.930 . S
C259 C260 1.355 . S
C259 C261 1.415 . S
C260 C259 1.355 . S
C260 C262 1.419 . S
C261 C256 1.425 . S
C261 C258 1.409 . S
C261 C259 1.415 . S
C262 H252 0.930 . S
C262 C260 1.419 . S
C262 C263 1.362 . S
C263 H253 0.930 . S
C263 C256 1.409 . S
C263 C262 1.362 . S
H264 C270 0.930 . S
H265 C273 0.930 . S
H266 C274 0.930 . S
H267 C275 0.930 . S
H268 C278 0.930 . S
H269 C279 0.930 . S
C270 H264 0.930 . S
C270 C271 1.355 . S
C270 C272 1.415 . S
C271 C270 1.355 . S
C271 C273 1.419 . S
C272 C270 1.415 . S
C272 C277 1.425 . S
C272 C279 1.409 . S
C273 H265 0.930 . S
C273 C271 1.419 . S
C273 C274 1.362 . S
C274 H266 0.930 . S
C274 C273 1.362 . S
C274 C277 1.409 . S
C275 H267 0.930 . S
C275 C276 1.355 . S
C275 C277 1.415 . S
C276 C275 1.355 . S
C276 C278 1.419 . S
C277 C272 1.425 . S
C277 C274 1.409 . S
C277 C275 1.415 . S
C278 H268 0.930 . S
C278 C276 1.419 . S
C278 C279 1.362 . S
C279 H269 0.930 . S
C279 C272 1.409 . S
C279 C278 1.362 . S
H280 C286 0.930 . S
H281 C289 0.930 . S
H282 C290 0.930 1_554 S
H283 C291 0.930 . S
H284 C294 0.930 . S
H285 C295 0.930 . S
C286 H280 0.930 . S
C286 C287 1.355 . S
C286 C288 1.415 . S
C287 C286 1.355 . S
C287 C289 1.419 . S
C288 C286 1.415 . S
C288 C293 1.425 . S
C288 C295 1.409 . S
C289 H281 0.930 . S
C289 C287 1.419 . S
C289 C290 1.362 . S
C290 H282 0.930 1_556 S
C290 C289 1.362 . S
C290 C293 1.409 . S
C291 H283 0.930 . S
C291 C292 1.355 . S
C291 C293 1.415 . S
C292 C291 1.355 . S
C292 C294 1.419 . S
C293 C288 1.425 . S
C293 C290 1.409 . S
C293 C291 1.415 . S
C294 H284 0.930 . S
C294 C292 1.419 . S
C294 C295 1.362 . S
C295 H285 0.930 . S
C295 C288 1.409 . S
C295 C294 1.362 . S
H296 C302 0.930 . S
H297 C305 0.930 . S
H298 C306 0.930 1_655 S
H299 C307 0.930 . S
H300 C310 0.930 . S
H301 C311 0.930 . S
C302 H296 0.930 . S
C302 C303 1.355 . S
C302 C304 1.415 . S
C303 C302 1.355 . S
C303 C305 1.419 . S
C304 C302 1.415 . S
C304 C309 1.425 . S
C304 C311 1.409 . S
C305 H297 0.930 . S
C305 C303 1.419 . S
C305 C306 1.362 . S
C306 H298 0.930 1_455 S
C306 C305 1.362 . S
C306 C309 1.409 . S
C307 H299 0.930 . S
C307 C308 1.355 . S
C307 C309 1.415 . S
C308 C307 1.355 . S
C308 C310 1.419 . S
C309 C304 1.425 . S
C309 C306 1.409 . S
C309 C307 1.415 . S
C310 H300 0.930 . S
C310 C308 1.419 . S
C310 C311 1.362 . S
C311 H301 0.930 . S
C311 C304 1.409 . S
C311 C310 1.362 . S
H312 C318 0.930 . S
H313 C321 0.930 . S
H314 C322 0.930 . S
H315 C323 0.930 . S
H316 C326 0.930 . S
H317 C327 0.930 . S
C318 H312 0.930 . S
C318 C319 1.355 1_554 S
C318 C320 1.415 . S
C319 C318 1.355 1_556 S
C319 C321 1.419 . S
C320 C318 1.415 . S
C320 C325 1.425 1_554 S
C320 C327 1.409 1_565 S
C321 H313 0.930 . S
C321 C319 1.419 . S
C321 C322 1.362 . S
C322 H314 0.930 . S
C322 C321 1.362 . S
C322 C325 1.409 . S
C323 H315 0.930 . S
C323 C324 1.355 1_565 S
C323 C325 1.415 . S
C324 C323 1.355 1_545 S
C324 C326 1.419 1_556 S
C325 C320 1.425 1_556 S
C325 C322 1.409 . S
C325 C323 1.415 . S
C326 H316 0.930 . S
C326 C324 1.419 1_554 S
C326 C327 1.362 . S
C327 H317 0.930 . S
C327 C320 1.409 1_545 S
C327 C326 1.362 . S
H328 C334 0.930 . S
H329 C337 0.930 . S
H330 C338 0.930 . S
H331 C339 0.930 . S
H332 C342 0.930 . S
H333 C343 0.930 . S
C334 H328 0.930 . S
C334 C335 1.355 . S
C334 C336 1.415 . S
C335 C334 1.355 . S
C335 C337 1.419 . S
C336 C334 1.415 . S
C336 C341 1.425 . S
C336 C343 1.409 . S
C337 H329 0.930 . S
C337 C335 1.419 . S
C337 C338 1.362 . S
C338 H330 0.930 . S
C338 C337 1.362 . S
C338 C341 1.409 . S
C339 H331 0.930 . S
C339 C340 1.355 . S
C339 C341 1.415 . S
C340 C339 1.355 . S
C340 C342 1.419 . S
C341 C336 1.425 . S
C341 C338 1.409 . S
C341 C339 1.415 . S
C342 H332 0.930 . S
C342 C340 1.419 . S
C342 C343 1.362 . S
C343 H333 0.930 . S
C343 C336 1.409 . S
C343 C342 1.362 . S
H344 C350 0.930 . S
H345 C353 0.930 . S
H346 C354 0.930 . S
H347 C355 0.930 1_554 S
H348 C358 0.930 . S
H349 C359 0.930 . S
C350 H344 0.930 . S
C350 C351 1.355 . S
C350 C352 1.415 . S
C351 C350 1.355 . S
C351 C353 1.419 1_556 S
C352 C350 1.415 . S
C352 C357 1.425 . S
C352 C359 1.409 . S
C353 H345 0.930 . S
C353 C351 1.419 1_554 S
C353 C354 1.362 . S
C354 H346 0.930 . S
C354 C353 1.362 . S
C354 C357 1.409 1_554 S
C355 H347 0.930 1_556 S
C355 C356 1.355 . S
C355 C357 1.415 . S
C356 C355 1.355 . S
C356 C358 1.419 . S
C357 C352 1.425 . S
C357 C354 1.409 1_556 S
C357 C355 1.415 . S
C358 H348 0.930 . S
C358 C356 1.419 . S
C358 C359 1.362 . S
C359 H349 0.930 . S
C359 C352 1.409 . S
C359 C358 1.362 . S
H360 C366 0.930 . S
H361 C369 0.930 . S
H362 C370 0.930 . S
H363 C371 0.930 . S
H364 C374 0.930 . S
H365 C375 0.930 . S
C366 H360 0.930 . S
C366 C367 1.355 1_455 S
C366 C368 1.415 . S
C367 C366 1.355 1_655 S
C367 C369 1.419 1_554 S
C368 C366 1.415 . S
C368 C373 1.425 1_554 S
C368 C375 1.409 . S
C369 H361 0.930 . S
C369 C367 1.419 1_556 S
C369 C370 1.362 . S
C370 H362 0.930 . S
C370 C369 1.362 . S
C370 C373 1.409 1_655 S
C371 H363 0.930 . S
C371 C372 1.355 . S
C371 C373 1.415 . S
C372 C371 1.355 . S
C372 C374 1.419 1_556 S
C373 C368 1.425 1_556 S
C373 C370 1.409 1_455 S
C373 C371 1.415 . S
C374 H364 0.930 . S
C374 C372 1.419 1_554 S
C374 C375 1.362 . S
C375 H365 0.930 . S
C375 C368 1.409 . S
C375 C374 1.362 . S
H376 C382 0.930 . S
H377 C385 0.930 . S
H378 C386 0.930 . S
H379 C387 0.930 . S
H380 C390 0.930 . S
H381 C391 0.930 . S
C382 H376 0.930 . S
C382 C383 1.355 . S
C382 C384 1.415 . S
C383 C382 1.355 . S
C383 C385 1.419 . S
C384 C382 1.415 . S
C384 C389 1.425 . S
C384 C391 1.409 . S
C385 H377 0.930 . S
C385 C383 1.419 . S
C385 C386 1.362 . S
C386 H378 0.930 . S
C386 C385 1.362 . S
C386 C389 1.409 . S
C387 H379 0.930 . S
C387 C388 1.355 . S
C387 C389 1.415 . S
C388 C387 1.355 . S
C388 C390 1.419 . S
C389 C384 1.425 . S
C389 C386 1.409 . S
C389 C387 1.415 . S
C390 H380 0.930 . S
C390 C388 1.419 . S
C390 C391 1.362 . S
C391 H381 0.930 . S
C391 C384 1.409 . S
C391 C390 1.362 . S
H392 C398 0.930 . S
H393 C401 0.930 . S
H394 C402 0.930 . S
H395 C403 0.930 . S
H396 C406 0.930 1_554 S
H397 C407 0.930 1_554 S
C398 H392 0.930 . S
C398 C399 1.355 . S
C398 C400 1.415 . S
C399 C398 1.355 . S
C399 C401 1.419 . S
C400 C398 1.415 . S
C400 C405 1.425 . S
C400 C407 1.409 . S
C401 H393 0.930 . S
C401 C399 1.419 . S
C401 C402 1.362 . S
C402 H394 0.930 . S
C402 C401 1.362 . S
C402 C405 1.409 . S
C403 H395 0.930 . S
C403 C404 1.355 . S
C403 C405 1.415 . S
C404 C403 1.355 . S
C404 C406 1.419 . S
C405 C400 1.425 . S
C405 C402 1.409 . S
C405 C403 1.415 . S
C406 H396 0.930 1_556 S
C406 C404 1.419 . S
C406 C407 1.362 . S
C407 H397 0.930 1_556 S
C407 C400 1.409 . S
C407 C406 1.362 . S
H408 C414 0.930 . S
H409 C417 0.930 . S
H410 C418 0.930 . S
H411 C419 0.930 . S
H412 C422 0.930 . S
H413 C423 0.930 . S
C414 H408 0.930 . S
C414 C415 1.355 . S
C414 C416 1.415 . S
C415 C414 1.355 . S
C415 C417 1.419 . S
C416 C414 1.415 . S
C416 C421 1.425 . S
C416 C423 1.409 . S
C417 H409 0.930 . S
C417 C415 1.419 . S
C417 C418 1.362 . S
C418 H410 0.930 . S
C418 C417 1.362 . S
C418 C421 1.409 . S
C419 H411 0.930 . S
C419 C420 1.355 . S
C419 C421 1.415 . S
C420 C419 1.355 . S
C420 C422 1.419 . S
C421 C416 1.425 . S
C421 C418 1.409 . S
C421 C419 1.415 . S
C422 H412 0.930 . S
C422 C420 1.419 . S
C422 C423 1.362 . S
C423 H413 0.930 . S
C423 C416 1.409 . S
C423 C422 1.362 . S
H424 C430 0.930 . S
H425 C433 0.930 1_554 S
H426 C434 0.930 1_554 S
H427 C435 0.930 . S
H428 C438 0.930 . S
H429 C439 0.930 . S
C430 H424 0.930 . S
C430 C431 1.355 . S
C430 C432 1.415 . S
C431 C430 1.355 . S
C431 C433 1.419 . S
C432 C430 1.415 . S
C432 C437 1.425 . S
C432 C439 1.409 . S
C433 H425 0.930 1_556 S
C433 C431 1.419 . S
C433 C434 1.362 . S
C434 H426 0.930 1_556 S
C434 C433 1.362 . S
C434 C437 1.409 . S
C435 H427 0.930 . S
C435 C436 1.355 . S
C435 C437 1.415 . S
C436 C435 1.355 . S
C436 C438 1.419 . S
C437 C432 1.425 . S
C437 C434 1.409 . S
C437 C435 1.415 . S
C438 H428 0.930 . S
C438 C436 1.419 . S
C438 C439 1.362 . S
C439 H429 0.930 . S
C439 C432 1.409 . S
C439 C438 1.362 . S
H440 C446 0.930 . S
H441 C449 0.930 . S
H442 C450 0.930 . S
H443 C451 0.930 . S
H444 C454 0.930 . S
H445 C455 0.930 . S
C446 H440 0.930 . S
C446 C447 1.355 1_456 S
C446 C448 1.415 . S
C447 C446 1.355 1_654 S
C447 C449 1.419 . S
C448 C446 1.415 . S
C448 C453 1.425 1_456 S
C448 C455 1.409 . S
C449 H441 0.930 . S
C449 C447 1.419 . S
C449 C450 1.362 . S
C450 H442 0.930 . S
C450 C449 1.362 . S
C450 C453 1.409 . S
C451 H443 0.930 . S
C451 C452 1.355 1_654 S
C451 C453 1.415 . S
C452 C451 1.355 1_456 S
C452 C454 1.419 . S
C453 C448 1.425 1_654 S
C453 C450 1.409 . S
C453 C451 1.415 . S
C454 H444 0.930 . S
C454 C452 1.419 . S
C454 C455 1.362 . S
C455 H445 0.930 . S
C455 C448 1.409 . S
C455 C454 1.362 . S
H456 C462 0.930 . S
H457 C465 0.930 . S
H458 C466 0.906 1_545 S
H459 C467 0.930 1_554 S
H460 C470 0.930 . S
H461 C471 0.930 . S
C462 H456 0.930 . S
C462 C463 1.355 . S
C462 C464 1.415 . S
C463 C462 1.355 . S
C463 C465 1.419 1_556 S
C464 C462 1.415 . S
C464 C469 1.449 . S
C464 C471 1.409 . S
C465 H457 0.930 . S
C465 C463 1.419 1_554 S
C465 C466 1.386 . S
C466 H458 0.906 1_565 S
C466 C465 1.386 . S
C466 C469 1.409 1_554 S
C467 H459 0.930 1_556 S
C467 C468 1.355 . S
C467 C469 1.392 1_545 S
C468 C467 1.355 . S
C468 C470 1.419 1_545 S
C469 C464 1.449 . S
C469 C466 1.409 1_556 S
C469 C467 1.392 1_565 S
C470 H460 0.930 . S
C470 C468 1.419 1_565 S
C470 C471 1.362 . S
C471 H461 0.930 . S
C471 C464 1.409 . S
C471 C470 1.362 . S
H472 C478 0.930 . S
H473 C481 0.930 . S
H474 C482 0.930 . S
H475 C483 0.930 . S
H476 C486 0.930 . S
H477 C487 0.930 . S
C478 H472 0.930 . S
C478 C479 1.355 . S
C478 C480 1.415 . S
C479 C478 1.355 . S
C479 C481 1.419 . S
C480 C478 1.415 . S
C480 C485 1.425 . S
C480 C487 1.409 . S
C481 H473 0.930 . S
C481 C479 1.419 . S
C481 C482 1.362 . S
C482 H474 0.930 . S
C482 C481 1.362 . S
C482 C485 1.409 . S
C483 H475 0.930 . S
C483 C484 1.355 . S
C483 C485 1.415 . S
C484 C483 1.355 . S
C484 C486 1.419 . S
C485 C480 1.425 . S
C485 C482 1.409 . S
C485 C483 1.415 . S
C486 H476 0.930 . S
C486 C484 1.419 . S
C486 C487 1.362 . S
C487 H477 0.930 . S
C487 C480 1.409 . S
C487 C486 1.362 . S
H488 C494 0.930 1_554 S
H489 C497 0.930 . S
H490 C498 0.930 . S
H491 C499 0.930 . S
H492 C502 0.930 . S
H493 C503 0.930 . S
C494 H488 0.930 1_556 S
C494 C495 1.355 . S
C494 C496 1.415 . S
C495 C494 1.355 . S
C495 C497 1.419 . S
C496 C494 1.415 . S
C496 C501 1.425 . S
C496 C503 1.409 1_556 S
C497 H489 0.930 . S
C497 C495 1.419 . S
C497 C498 1.362 . S
C498 H490 0.930 . S
C498 C497 1.362 . S
C498 C501 1.409 . S
C499 H491 0.930 . S
C499 C500 1.355 . S
C499 C501 1.415 . S
C500 C499 1.355 . S
C500 C502 1.419 1_556 S
C501 C496 1.425 . S
C501 C498 1.409 . S
C501 C499 1.415 . S
C502 H492 0.930 . S
C502 C500 1.419 1_554 S
C502 C503 1.362 . S
C503 H493 0.930 . S
C503 C496 1.409 1_554 S
C503 C502 1.362 . S
H504 C510 0.930 . S
H505 C513 0.930 . S
H506 C514 0.930 . S
H507 C515 0.930 . S
H508 C518 0.930 . S
H509 C519 0.930 . S
C510 H504 0.930 . S
C510 C511 1.355 . S
C510 C512 1.415 . S
C511 C510 1.355 . S
C511 C513 1.419 . S
C512 C510 1.415 . S
C512 C517 1.425 . S
C512 C519 1.409 . S
C513 H505 0.930 . S
C513 C511 1.419 . S
C513 C514 1.362 . S
C514 H506 0.930 . S
C514 C513 1.362 . S
C514 C517 1.409 . S
C515 H507 0.930 . S
C515 C516 1.355 . S
C515 C517 1.415 . S
C516 C515 1.355 . S
C516 C518 1.419 . S
C517 C512 1.425 . S
C517 C514 1.409 . S
C517 C515 1.415 . S
C518 H508 0.930 . S
C518 C516 1.419 . S
C518 C519 1.362 . S
C519 H509 0.930 . S
C519 C512 1.409 . S
C519 C518 1.362 . S
H520 C526 0.930 . S
H521 C529 0.930 . S
H522 C530 0.930 . S
H523 C531 0.930 . S
H524 C534 0.930 . S
H525 C535 0.930 . S
C526 H520 0.930 . S
C526 C527 1.355 . S
C526 C528 1.415 . S
C527 C526 1.355 . S
C527 C529 1.419 . S
C528 C526 1.415 . S
C528 C533 1.425 . S
C528 C535 1.409 . S
C529 H521 0.930 . S
C529 C527 1.419 . S
C529 C530 1.362 . S
C530 H522 0.930 . S
C530 C529 1.362 . S
C530 C533 1.409 . S
C531 H523 0.930 . S
C531 C532 1.355 . S
C531 C533 1.415 . S
C532 C531 1.355 . S
C532 C534 1.419 . S
C533 C528 1.425 . S
C533 C530 1.409 . S
C533 C531 1.415 . S
C534 H524 0.930 . S
C534 C532 1.419 . S
C534 C535 1.362 . S
C535 H525 0.930 . S
C535 C528 1.409 . S
C535 C534 1.362 . S
H536 C542 0.930 . S
H537 C545 0.930 . S
H538 C546 0.930 . S
H539 C547 0.930 . S
H540 C550 0.930 1_556 S
H541 C551 0.930 . S
C542 H536 0.930 . S
C542 C543 1.355 . S
C542 C544 1.415 . S
C543 C542 1.355 . S
C543 C545 1.419 . S
C544 C542 1.415 . S
C544 C549 1.425 . S
C544 C551 1.409 . S
C545 H537 0.930 . S
C545 C543 1.419 . S
C545 C546 1.362 . S
C546 H538 0.930 . S
C546 C545 1.362 . S
C546 C549 1.409 . S
C547 H539 0.930 . S
C547 C548 1.355 . S
C547 C549 1.415 . S
C548 C547 1.355 . S
C548 C550 1.419 . S
C549 C544 1.425 . S
C549 C546 1.409 . S
C549 C547 1.415 . S
C550 H540 0.930 1_554 S
C550 C548 1.419 . S
C550 C551 1.362 . S
C551 H541 0.930 . S
C551 C544 1.409 . S
C551 C550 1.362 . S
H552 C558 0.930 . S
H553 C561 0.930 . S
H554 C562 0.930 . S
H555 C563 0.930 . S
H556 C566 0.930 . S
H557 C567 0.930 . S
C558 H552 0.930 . S
C558 C559 1.355 . S
C558 C560 1.415 . S
C559 C558 1.355 . S
C559 C561 1.419 . S
C560 C558 1.415 . S
C560 C565 1.425 . S
C560 C567 1.409 . S
C561 H553 0.930 . S
C561 C559 1.419 . S
C561 C562 1.362 . S
C562 H554 0.930 . S
C562 C561 1.362 . S
C562 C565 1.409 . S
C563 H555 0.930 . S
C563 C564 1.355 . S
C563 C565 1.415 . S
C564 C563 1.355 . S
C564 C566 1.419 . S
C565 C560 1.425 . S
C565 C562 1.409 . S
C565 C563 1.415 . S
C566 H556 0.930 . S
C566 C564 1.419 . S
C566 C567 1.362 . S
C567 H557 0.930 . S
C567 C560 1.409 . S
C567 C566 1.362 . S
H568 C574 0.930 . S
H569 C577 0.930 . S
H570 C578 0.930 . S
H571 C579 0.930 . S
H572 C582 0.930 . S
H573 C583 0.930 . S
C574 H568 0.930 . S
C574 C575 1.355 . S
C574 C576 1.415 . S
C575 C574 1.355 . S
C575 C577 1.419 . S
C576 C574 1.415 . S
C576 C581 1.425 . S
C576 C583 1.409 1_655 S
C577 H569 0.930 . S
C577 C575 1.419 . S
C577 C578 1.362 . S
C578 H570 0.930 . S
C578 C577 1.362 . S
C578 C581 1.409 . S
C579 H571 0.930 . S
C579 C580 1.355 . S
C579 C581 1.415 . S
C580 C579 1.355 . S
C580 C582 1.419 1_655 S
C581 C576 1.425 . S
C581 C578 1.409 . S
C581 C579 1.415 . S
C582 H572 0.930 . S
C582 C580 1.419 1_455 S
C582 C583 1.362 . S
C583 H573 0.930 . S
C583 C576 1.409 1_455 S
C583 C582 1.362 . S
H584 C590 0.930 . S
H585 C593 0.930 . S
H586 C594 0.930 . S
H587 C595 0.930 . S
H588 C598 0.930 1_545 S
H589 C599 0.930 1_545 S
C590 H584 0.930 . S
C590 C591 1.355 . S
C590 C592 1.415 . S
C591 C590 1.355 . S
C591 C593 1.419 . S
C592 C590 1.415 . S
C592 C597 1.425 . S
C592 C599 1.409 . S
C593 H585 0.930 . S
C593 C591 1.419 . S
C593 C594 1.362 . S
C594 H586 0.930 . S
C594 C593 1.362 . S
C594 C597 1.409 . S
C595 H587 0.930 . S
C595 C596 1.355 . S
C595 C597 1.415 . S
C596 C595 1.355 . S
C596 C598 1.419 . S
C597 C592 1.425 . S
C597 C594 1.409 . S
C597 C595 1.415 . S
C598 H588 0.930 1_565 S
C598 C596 1.419 . S
C598 C599 1.362 . S
C599 H589 0.930 1_565 S
C599 C592 1.409 . S
C599 C598 1.362 . S
H600 C606 0.930 . S
H601 C609 0.930 . S
H602 C610 0.930 . S
H603 C611 0.930 . S
H604 C614 0.930 . S
H605 C615 0.930 . S
C606 H600 0.930 . S
C606 C607 1.355 . S
C606 C608 1.415 . S
C607 C606 1.355 . S
C607 C609 1.419 . S
C608 C606 1.415 . S
C608 C613 1.425 . S
C608 C615 1.409 . S
C609 H601 0.930 . S
C609 C607 1.419 . S
C609 C610 1.362 . S
C610 H602 0.930 . S
C610 C609 1.362 . S
C610 C613 1.409 . S
C611 H603 0.930 . S
C611 C612 1.355 . S
C611 C613 1.415 . S
C612 C611 1.355 . S
C612 C614 1.419 . S
C613 C608 1.425 . S
C613 C610 1.409 . S
C613 C611 1.415 . S
C614 H604 0.930 . S
C614 C612 1.419 . S
C614 C615 1.362 . S
C615 H605 0.930 . S
C615 C608 1.409 . S
C615 C614 1.362 . S
H616 C622 0.930 . S
H617 C625 0.930 . S
H618 C626 0.930 . S
H619 C627 0.930 . S
H620 C630 0.930 . S
H621 C631 0.930 . S
C622 H616 0.930 . S
C622 C623 1.355 . S
C622 C624 1.415 . S
C623 C622 1.355 . S
C623 C625 1.419 . S
C624 C622 1.415 . S
C624 C629 1.425 . S
C624 C631 1.409 . S
C625 H617 0.930 . S
C625 C623 1.419 . S
C625 C626 1.362 . S
C626 H618 0.930 . S
C626 C625 1.362 . S
C626 C629 1.409 . S
C627 H619 0.930 . S
C627 C628 1.355 . S
C627 C629 1.415 . S
C628 C627 1.355 . S
C628 C630 1.419 . S
C629 C624 1.425 . S
C629 C626 1.409 . S
C629 C627 1.415 . S
C630 H620 0.930 . S
C630 C628 1.419 . S
C630 C631 1.362 . S
C631 H621 0.930 . S
C631 C624 1.409 . S
C631 C630 1.362 . S
C255 C76 1.625 . S
C260 C97 1.651 . S
C276 C137 1.350 . S
C271 C87 1.382 . S
C292 C186 1.310 . S
C287 C54 1.383 . S
C308 C217 1.713 . S
C303 C65 1.777 . S
C324 C106 1.606 . S
C319 C32 1.664 1_556 S
C335 C43 1.347 . S
C340 C146 1.302 . S
C351 C10 1.378 . S
C356 C177 1.374 . S
C367 C21 1.787 . S
C372 C226 1.679 . S
C388 C107 1.076 . S
C383 C60 0.908 . S
C404 C147 1.562 . S
C399 C71 1.330 . S
C420 C183 0.815 . S
C415 C82 0.879 . S
C431 C49 1.188 . S
C436 C227 1.268 . S
C447 C16 0.936 . S
C452 C98 1.074 . S
C468 C138 1.550 . S
C463 C27 1.313 1_556 S
C484 C174 0.889 . S
C479 C38 0.832 . S
C495 C5 1.194 . S
C500 C218 1.262 . S
C511 C59 1.613 . S
C516 C103 1.665 . S
C527 C70 1.441 . S
C532 C143 1.457 . S
C548 C187 1.968 . S
C543 C81 1.763 . S
C564 C223 1.454 . S
C559 C48 1.443 . S
C575 C15 1.605 . S
C580 C94 1.655 . S
C596 C134 1.415 . S
C591 C26 1.467 . S
C612 C178 1.960 . S
C607 C37 1.766 . S
C623 C4 1.433 . S
C628 C214 1.452 . S
