# Generated by pormake.
# Topology tsx, (6,3)-cn, num edge types: 1
# Building blocks:
#     Node 0, Type 0, BuildingBlock: VOLQOD_clean_sbu_1, # of connection points: 6
#     Node 1, Type 0, BuildingBlock: VOLQOD_clean_sbu_1, # of connection points: 6
#     Node 2, Type 1, BuildingBlock: MIDCAF_clean_linker_0, # of connection points: 3
#     Node 3, Type 1, BuildingBlock: MIDCAF_clean_linker_0, # of connection points: 3
#     Node 4, Type 1, BuildingBlock: MIDCAF_clean_linker_0, # of connection points: 3
#     Node 5, Type 1, BuildingBlock: MIDCAF_clean_linker_0, # of connection points: 3
#     Edge 6, Type (0, 1), BuildingBlock: OJICUG_clean_linker_0, # of connection points: 2
#     Edge 7, Type (0, 1), BuildingBlock: OJICUG_clean_linker_0, # of connection points: 2
#     Edge 8, Type (0, 1), BuildingBlock: OJICUG_clean_linker_0, # of connection points: 2
#     Edge 9, Type (0, 1), BuildingBlock: OJICUG_clean_linker_0, # of connection points: 2
#     Edge 10, Type (0, 1), BuildingBlock: OJICUG_clean_linker_0, # of connection points: 2
#     Edge 11, Type (0, 1), BuildingBlock: OJICUG_clean_linker_0, # of connection points: 2
#     Edge 12, Type (0, 1), BuildingBlock: OJICUG_clean_linker_0, # of connection points: 2
#     Edge 13, Type (0, 1), BuildingBlock: OJICUG_clean_linker_0, # of connection points: 2
#     Edge 14, Type (0, 1), BuildingBlock: OJICUG_clean_linker_0, # of connection points: 2
#     Edge 15, Type (0, 1), BuildingBlock: OJICUG_clean_linker_0, # of connection points: 2
#     Edge 16, Type (0, 1), BuildingBlock: OJICUG_clean_linker_0, # of connection points: 2
#     Edge 17, Type (0, 1), BuildingBlock: OJICUG_clean_linker_0, # of connection points: 2
# Relax obj value: 0.076
# Max RMSD: 0.108
# Mean RMSD: 0.083
data_MOF--net-tsx--node1-VOLQOD_clean_sbu_1--node2-MIDCAF_clean_linker_0--edge1-OJICUG_clean_linker_0
_symmetry_space_group_name_H-M    P1
_symmetry_Int_Tables_number       1
_symmetry_cell_setting            triclinic
loop_
_symmetry_equiv_pos_as_xyz
'x, y, z'
_cell_length_a     19.485031
_cell_length_b     20.151223
_cell_length_c     38.538547
_cell_angle_alpha  90.303455
_cell_angle_beta   89.96399
_cell_angle_gamma 90.411251
loop_
_atom_site_label
_atom_site_type_symbol
_atom_site_fract_x
_atom_site_fract_y
_atom_site_fract_z
_atom_type_partial_charge
O0 O 0.06458 0.99418 0.08084 0.0
Zn1 Zn 0.08973 0.98526 0.03026 0.0
O2 O 0.00988 0.00209 0.00088 0.0
Zn3 Zn 0.98949 0.92315 0.97304 0.0
Zn4 Zn 0.93011 0.02435 0.0296 0.0
Zn5 Zn 0.03048 0.0758 0.96995 0.0
O6 O -0.00219 0.94122 0.92185 0.0
O7 O 0.03248 0.04627 0.9202 0.0
O8 O 0.12859 0.89385 0.02187 0.0
O9 O 0.0559 0.85071 0.98347 0.0
O10 O 0.89542 0.8872 0.98313 0.0
O11 O 0.85497 0.9559 0.02331 0.0
O12 O 0.89012 0.1132 0.01652 0.0
O13 O 0.16482 0.05202 0.02109 0.0
O14 O 0.95785 0.14508 0.97327 0.0
O15 O 0.12126 0.11878 0.98125 0.0
C16 C 0.01014 0.01133 0.09679 0.0
C17 C 0.01694 0.99214 0.90488 0.0
C18 C 0.84808 0.9049 0.0039 0.0
C19 C 0.10854 0.84573 0.00277 0.0
C20 C 0.90622 0.15442 0.99287 0.0
C21 C 0.16974 0.10266 0.00159 0.0
O22 O 0.95539 0.02536 0.08038 0.0
O23 O 0.55284 0.48425 0.58098 0.0
Zn24 Zn 0.57906 0.47981 0.53037 0.0
O25 O 0.5004 0.49935 0.50079 0.0
Zn26 Zn 0.47891 0.42248 0.47167 0.0
Zn27 Zn 0.42101 0.52176 0.52975 0.0
Zn28 Zn 0.52309 0.57359 0.47066 0.0
O29 O 0.4837 0.4439 0.42065 0.0
O30 O 0.52728 0.5459 0.42056 0.0
O31 O 0.61739 0.38934 0.52012 0.0
O32 O 0.54632 0.34954 0.47999 0.0
O33 O 0.38585 0.38575 0.48251 0.0
O34 O 0.3459 0.45284 0.52358 0.0
O35 O 0.38156 0.61057 0.51658 0.0
O36 O 0.65496 0.54678 0.52297 0.0
O37 O 0.45087 0.64337 0.47411 0.0
O38 O 0.61355 0.61516 0.48328 0.0
C39 C 0.49975 0.50468 0.59701 0.0
C40 C 0.50713 0.49407 0.40443 0.0
C41 C 0.339 0.40232 0.50379 0.0
C42 C 0.59836 0.34305 0.49959 0.0
C43 C 0.39867 0.65239 0.4934 0.0
C44 C 0.66102 0.59804 0.50397 0.0
O45 O 0.4465 0.52342 0.58064 0.0
C46 C 0.77737 0.1185 0.42707 0.0
C47 C 0.78021 0.13202 0.46284 0.0
C48 C 0.83505 0.10674 0.48231 0.0
C49 C 0.8875 0.07118 0.46599 0.0
H50 H 0.03781 0.89027 0.46616 0.0
H51 H 0.12671 0.81985 0.49042 0.0
H52 H 0.27862 0.91998 0.42708 0.0
H53 H 0.18855 0.98632 0.40116 0.0
H54 H 0.09199 0.94502 0.31536 0.0
H55 H 0.09355 0.94683 0.25229 0.0
H56 H 0.9278 0.08827 0.25276 0.0
H57 H 0.92458 0.08466 0.31581 0.0
H58 H 0.82655 0.07579 0.38299 0.0
H59 H 0.73644 0.13797 0.41117 0.0
H60 H 0.83828 0.11589 0.50999 0.0
H61 H 0.93016 0.05412 0.48151 0.0
N62 N -0.00378 0.0008 0.42945 0.0
N63 N 0.05573 0.98166 0.37734 0.0
N64 N 0.94981 0.03547 0.37644 0.0
C65 C 0.05172 0.97651 0.41241 0.0
C66 C 0.00471 0.01085 0.35911 0.0
C67 C 0.94515 0.03079 0.41154 0.0
C68 C 0.10647 0.9425 0.43138 0.0
C69 C 0.09047 0.89749 0.45786 0.0
C70 C 0.14167 0.85745 0.47189 0.0
C71 C 0.21003 0.86294 0.4602 0.0
C72 C 0.22635 0.91238 0.4358 0.0
C73 C 0.17494 0.95087 0.42111 0.0
C74 C 0.00797 0.01447 0.32073 0.0
C75 C 0.05602 0.97674 0.30205 0.0
C76 C 0.05715 0.97805 0.2658 0.0
C77 C 0.0107 0.01761 0.24731 0.0
C78 C 0.96349 0.05627 0.26605 0.0
C79 C 0.96193 0.05449 0.30229 0.0
C80 C 0.88622 0.06082 0.42986 0.0
C81 C 0.82965 0.08337 0.4108 0.0
C82 C 0.90305 0.77049 0.57297 0.0
C83 C 0.88189 0.77689 0.53833 0.0
C84 C 0.90322 0.83311 0.51953 0.0
C85 C 0.94194 0.88331 0.53567 0.0
H86 H 0.06019 0.06139 0.52066 0.0
H87 H 0.1147 0.15713 0.49291 0.0
H88 H 0.14292 0.24926 0.5935 0.0
H89 H 0.0876 0.15583 0.62085 0.0
H90 H 0.10187 0.06155 0.68648 0.0
H91 H 0.10382 0.06084 0.74954 0.0
H92 H 0.95629 0.89955 0.74982 0.0
H93 H 0.95634 0.89859 0.6867 0.0
H94 H 0.95497 0.81404 0.61604 0.0
H95 H 0.88688 0.72852 0.58847 0.0
H96 H 0.88852 0.83913 0.49264 0.0
H97 H 0.95564 0.92701 0.52087 0.0
N98 N 0.0162 0.9887 0.57278 0.0
N99 N 0.04854 0.03674 0.62598 0.0
N100 N -0.00228 0.93152 0.62494 0.0
C101 C 0.04404 0.04045 0.59088 0.0
C102 C 0.02551 0.9826 0.6432 0.0
C103 C 0.99308 0.93387 0.58979 0.0
C104 C 0.07047 0.10034 0.57306 0.0
C105 C 0.07711 0.10262 0.53673 0.0
C106 C 0.10846 0.15738 0.52084 0.0
C107 C 0.13336 0.21085 0.54097 0.0
C108 C 0.12348 0.20965 0.57706 0.0
C109 C 0.09241 0.1553 0.59285 0.0
C110 C 0.0287 0.98034 0.68153 0.0
C111 C 0.07006 0.02572 0.69997 0.0
C112 C 0.07088 0.02555 0.73618 0.0
C113 C 0.02976 0.98052 0.75484 0.0
C114 C 0.98928 0.93438 0.73634 0.0
C115 C 0.98903 0.93406 0.7001 0.0
C116 C 0.9598 0.87816 0.57091 0.0
C117 C 0.9416 0.82025 0.58898 0.0
C118 C 0.27752 0.61274 0.93177 0.0
C119 C 0.28506 0.63006 0.96695 0.0
C120 C 0.34229 0.60659 0.98525 0.0
C121 C 0.39251 0.56923 0.96824 0.0
H122 H 0.54226 0.3891 0.96737 0.0
H123 H 0.63295 0.32026 0.99103 0.0
H124 H 0.77977 0.4163 0.92308 0.0
H125 H 0.68766 0.48094 0.8978 0.0
H126 H 0.6104 0.49829 0.81624 0.0
H127 H 0.61105 0.5019 0.75315 0.0
H128 H 0.38968 0.5163 0.75306 0.0
H129 H 0.3896 0.51599 0.81615 0.0
H130 H 0.32108 0.56551 0.88737 0.0
H131 H 0.23458 0.63065 0.91674 0.0
H132 H 0.34916 0.61863 0.01246 0.0
H133 H 0.43719 0.55386 0.98276 0.0
N134 N 0.497 0.49616 0.93017 0.0
N135 N 0.55292 0.47694 0.87706 0.0
N136 N 0.44519 0.52759 0.87788 0.0
C137 C 0.55165 0.47245 0.91222 0.0
C138 C 0.49951 0.50399 0.85967 0.0
C139 C 0.44377 0.52441 0.91311 0.0
C140 C 0.60804 0.43923 0.9304 0.0
C141 C 0.59421 0.39577 0.95789 0.0
C142 C 0.64648 0.35663 0.97158 0.0
C143 C 0.71394 0.36143 0.95856 0.0
C144 C 0.72822 0.40918 0.93292 0.0
C145 C 0.67564 0.44675 0.91858 0.0
C146 C 0.49997 0.50683 0.82125 0.0
C147 C 0.5619 0.50241 0.80272 0.0
C148 C 0.56216 0.50406 0.76646 0.0
C149 C 0.50037 0.50904 0.74774 0.0
C150 C 0.43844 0.5136 0.76641 0.0
C151 C 0.43831 0.51303 0.80269 0.0
C152 C 0.38665 0.55528 0.93253 0.0
C153 C 0.32765 0.57585 0.91479 0.0
C154 C 0.4068 0.27963 0.07082 0.0
C155 C 0.38656 0.28559 0.036 0.0
C156 C 0.40692 0.3424 0.01743 0.0
C157 C 0.44348 0.39361 0.03395 0.0
H158 H 0.55952 0.57176 0.02001 0.0
H159 H 0.61929 0.66453 0.99241 0.0
H160 H 0.63869 0.76192 0.09218 0.0
H161 H 0.57793 0.67128 0.11936 0.0
H162 H 0.52376 0.60268 0.18713 0.0
H163 H 0.52203 0.60057 0.25014 0.0
H164 H 0.51011 0.38622 0.24752 0.0
H165 H 0.50878 0.38864 0.18439 0.0
H166 H 0.4557 0.32469 0.11443 0.0
H167 H 0.39137 0.23717 0.08614 0.0
H168 H 0.39293 0.34811 0.99042 0.0
H169 H 0.45626 0.43775 0.01931 0.0
N170 N 0.51265 0.50108 0.07173 0.0
N171 N 0.53762 0.5521 0.12518 0.0
N172 N 0.49193 0.44462 0.12387 0.0
C173 C 0.53674 0.55436 0.08995 0.0
C174 C 0.51547 0.49746 0.14232 0.0
C175 C 0.49005 0.44598 0.08863 0.0
C176 C 0.5649 0.61344 0.07203 0.0
C177 C 0.5755 0.61357 0.03591 0.0
C178 C 0.60996 0.66661 0.0201 0.0
C179 C 0.63424 0.72052 0.04009 0.0
C180 C 0.62005 0.72181 0.07583 0.0
C181 C 0.58575 0.66913 0.09155 0.0
C182 C 0.51625 0.49585 0.18071 0.0
C183 C 0.52089 0.55507 0.19998 0.0
C184 C 0.52032 0.55379 0.2362 0.0
C185 C 0.51609 0.49319 0.25409 0.0
C186 C 0.51219 0.43389 0.23472 0.0
C187 C 0.51182 0.43523 0.19847 0.0
C188 C 0.46007 0.38898 0.06938 0.0
C189 C 0.44317 0.33049 0.08724 0.0
C190 C 0.28958 0.12439 0.02215 0.0
C191 C 0.23066 0.14642 0.00482 0.0
H192 H 0.38675 0.1505 0.04425 0.0
C193 C 0.2284 0.21239 0.99323 0.0
H194 H 0.29345 0.07352 0.03085 0.0
C195 C 0.28147 0.25681 0.00135 0.0
C196 C 0.33818 0.23594 0.02092 0.0
H197 H 0.18381 0.23084 0.97967 0.0
H198 H 0.27578 0.30838 0.99421 0.0
C199 C 0.34299 0.16856 0.02989 0.0
C200 C 0.21918 0.78511 0.011 0.0
C201 C 0.15039 0.78499 7e-05 0.0
H202 H 0.31608 0.73596 0.00893 0.0
C203 C 0.12394 0.72847 0.98308 0.0
H204 H 0.24103 0.8278 0.02428 0.0
C205 C 0.16668 0.67553 0.97469 0.0
C206 C 0.23691 0.67818 0.98285 0.0
H207 H 0.0708 0.72629 0.97486 0.0
H208 H 0.14541 0.63386 0.96033 0.0
C209 C 0.26214 0.73224 0.00237 0.0
C210 C 0.78585 0.79746 0.99368 0.0
C211 C 0.78677 0.86185 0.00793 0.0
H212 H 0.73714 0.70216 0.99282 0.0
C213 C 0.73133 0.88225 0.02862 0.0
H214 H 0.82757 0.7802 0.97747 0.0
C215 C 0.67869 0.8377 0.03694 0.0
C216 C 0.68077 0.77159 0.02508 0.0
H217 H 0.72986 0.93188 0.03953 0.0
H218 H 0.63786 0.85426 0.05392 0.0
C219 C 0.73356 0.75273 0.00227 0.0
C220 C 0.86251 0.24125 0.95302 0.0
C221 C 0.86115 0.21147 0.98585 0.0
H222 H 0.81639 0.30933 0.91834 0.0
C223 C 0.81394 0.23424 0.01069 0.0
H224 H 0.8978 0.22445 0.93314 0.0
C225 C 0.76799 0.28492 0.0025 0.0
C226 C 0.76742 0.31292 0.96907 0.0
H227 H 0.8121 0.21251 0.03632 0.0
H228 H 0.73242 0.30145 0.02227 0.0
C229 C 0.81589 0.29068 0.94462 0.0
C230 C 0.78085 0.61776 0.5251 0.0
C231 C 0.72243 0.64094 0.50778 0.0
H232 H 0.87877 0.64187 0.54692 0.0
C233 C 0.72142 0.70701 0.49628 0.0
H234 H 0.78373 0.56677 0.53372 0.0
C235 C 0.77545 0.75036 0.50429 0.0
C236 C 0.83191 0.7283 0.52367 0.0
H237 H 0.67723 0.72633 0.48272 0.0
H238 H 0.77083 0.80202 0.49714 0.0
C239 C 0.83525 0.66085 0.53271 0.0
C240 C 0.7081 0.28181 0.50912 0.0
C241 C 0.64086 0.28293 0.49595 0.0
H242 H 0.8052 0.23303 0.50882 0.0
C243 C 0.61691 0.22852 0.47636 0.0
H244 H 0.72801 0.32281 0.52446 0.0
C245 C 0.66088 0.17661 0.46781 0.0
C246 C 0.72986 0.1783 0.47843 0.0
H247 H 0.56497 0.22727 0.46635 0.0
H248 H 0.64172 0.13662 0.45153 0.0
C249 C 0.75228 0.23005 0.50034 0.0
C250 C 0.27793 0.29474 0.49243 0.0
C251 C 0.27868 0.35804 0.508 0.0
H252 H 0.23152 0.19843 0.49075 0.0
C253 C 0.22449 0.37578 0.53015 0.0
H254 H 0.31861 0.27956 0.47501 0.0
C255 C 0.17368 0.32943 0.53869 0.0
C256 C 0.17648 0.26419 0.52558 0.0
H257 H 0.22285 0.42452 0.5421 0.0
H258 H 0.13402 0.34377 0.5569 0.0
C259 C 0.22752 0.24822 0.50123 0.0
C260 C 0.35764 0.74188 0.45444 0.0
C261 C 0.35439 0.71012 0.48672 0.0
H262 H 0.31387 0.81256 0.42041 0.0
C263 C 0.30618 0.73178 0.51135 0.0
H264 H 0.39375 0.72601 0.43473 0.0
C265 C 0.26107 0.78332 0.50347 0.0
C266 C 0.26248 0.81337 0.47056 0.0
H267 H 0.3029 0.70853 0.53658 0.0
H268 H 0.22462 0.79891 0.52303 0.0
C269 C 0.31192 0.79224 0.44633 0.0
C270 C 0.07245 0.01173 0.15372 0.0
C271 C 0.01039 0.01435 0.13522 0.0
H272 H 0.12148 0.01253 0.20335 0.0
C273 C 0.94853 0.0192 0.15381 0.0
H274 H 0.12109 0.00855 0.14021 0.0
C275 C 0.94868 0.02047 0.19007 0.0
C276 C 0.01072 0.01759 0.20865 0.0
H277 H 0.89976 0.02093 0.14038 0.0
H278 H 0.89991 0.02241 0.20351 0.0
C279 C 0.07264 0.01365 0.18998 0.0
C280 C 0.0186 0.92733 0.84916 0.0
C281 C 0.02086 0.98874 0.86659 0.0
H282 H 0.02156 0.87633 0.80037 0.0
C283 C 0.02676 0.04719 0.84707 0.0
H284 H 0.01458 0.88134 0.86348 0.0
C285 C 0.02971 0.0444 0.81093 0.0
C286 C 0.02761 0.98304 0.79339 0.0
H287 H 0.02812 0.09536 0.85968 0.0
H288 H 0.03241 0.09057 0.79673 0.0
C289 C 0.02228 0.92449 0.81296 0.0
C290 C 0.45209 0.54459 0.65388 0.0
C291 C 0.49997 0.50625 0.63546 0.0
H292 H 0.416 0.57747 0.70341 0.0
C293 C 0.54814 0.46919 0.65415 0.0
H294 H 0.41463 0.57415 0.64024 0.0
C295 C 0.54805 0.46991 0.69042 0.0
C296 C 0.50046 0.50855 0.70899 0.0
H297 H 0.58538 0.43867 0.64077 0.0
H298 H 0.58475 0.43919 0.70383 0.0
C299 C 0.45266 0.54613 0.69017 0.0
C300 C 0.55162 0.53874 0.34821 0.0
C301 C 0.51063 0.49255 0.36608 0.0
H302 H 0.58736 0.57381 0.29918 0.0
C303 C 0.47254 0.44558 0.34695 0.0
H304 H 0.58218 0.57514 0.36221 0.0
C305 C 0.4744 0.44563 0.31069 0.0
C306 C 0.51514 0.49209 0.29272 0.0
H307 H 0.44015 0.40956 0.35996 0.0
H308 H 0.44275 0.41003 0.29679 0.0
C309 C 0.55424 0.53821 0.31201 0.0
loop_
_geom_bond_atom_site_label_1
_geom_bond_atom_site_label_2
_geom_bond_distance
_geom_bond_site_symmetry_2
_ccdc_geom_bond_type
O0 Zn1 1.953 . S
O0 C16 1.225 1_565 S
Zn1 O0 1.953 . S
Zn1 O2 1.949 1_565 S
Zn1 O8 1.919 . S
Zn1 O13 1.924 1_565 S
O2 Zn1 1.949 1_545 S
O2 Zn3 1.923 1_444 S
O2 Zn4 1.950 1_455 S
O2 Zn5 1.945 1_554 S
Zn3 O2 1.923 1_666 S
Zn3 O6 1.933 . S
Zn3 O9 1.941 1_655 S
Zn3 O10 1.965 . S
Zn4 O2 1.950 1_655 S
Zn4 O11 1.938 1_545 S
Zn4 O12 1.906 . S
Zn4 O22 1.953 . S
Zn5 O2 1.945 1_556 S
Zn5 O7 1.932 . S
Zn5 O14 1.977 1_455 S
Zn5 O15 1.910 . S
O6 Zn3 1.933 . S
O6 C17 1.226 1_665 S
O7 Zn5 1.932 . S
O7 C17 1.307 . S
O8 Zn1 1.919 . S
O8 C19 1.253 1_554 S
O9 Zn3 1.941 1_455 S
O9 C19 1.283 . S
O10 Zn3 1.965 . S
O10 C18 1.303 1_556 S
O11 Zn4 1.938 1_565 S
O11 C18 1.247 . S
O12 Zn4 1.906 . S
O12 C20 1.304 1_554 S
O13 Zn1 1.924 1_545 S
O13 C21 1.311 . S
O14 Zn5 1.977 1_655 S
O14 C20 1.272 . S
O15 Zn5 1.910 . S
O15 C21 1.231 1_556 S
C16 O0 1.225 1_545 S
C16 O22 1.298 1_455 S
C17 O6 1.226 1_445 S
C17 O7 1.307 . S
C18 O10 1.303 1_554 S
C18 O11 1.247 . S
C19 O8 1.253 1_556 S
C19 O9 1.283 . S
C20 O12 1.304 1_556 S
C20 O14 1.272 . S
C21 O13 1.311 . S
C21 O15 1.231 1_554 S
O22 Zn4 1.953 . S
O22 C16 1.298 1_655 S
O23 Zn24 1.953 . S
O23 C39 1.225 . S
Zn24 O23 1.953 . S
Zn24 O25 1.949 . S
Zn24 O31 1.919 . S
Zn24 O36 1.924 . S
O25 Zn24 1.949 . S
O25 Zn26 1.923 . S
O25 Zn27 1.950 . S
O25 Zn28 1.945 . S
Zn26 O25 1.923 . S
Zn26 O29 1.933 . S
Zn26 O32 1.941 . S
Zn26 O33 1.965 . S
Zn27 O25 1.950 . S
Zn27 O34 1.938 . S
Zn27 O35 1.906 . S
Zn27 O45 1.953 . S
Zn28 O25 1.945 . S
Zn28 O30 1.932 . S
Zn28 O37 1.977 . S
Zn28 O38 1.910 . S
O29 Zn26 1.933 . S
O29 C40 1.226 . S
O30 Zn28 1.932 . S
O30 C40 1.307 . S
O31 Zn24 1.919 . S
O31 C42 1.253 . S
O32 Zn26 1.941 . S
O32 C42 1.283 . S
O33 Zn26 1.965 . S
O33 C41 1.303 . S
O34 Zn27 1.938 . S
O34 C41 1.247 . S
O35 Zn27 1.906 . S
O35 C43 1.304 . S
O36 Zn24 1.924 . S
O36 C44 1.311 . S
O37 Zn28 1.977 . S
O37 C43 1.272 . S
O38 Zn28 1.910 . S
O38 C44 1.231 . S
C39 O23 1.225 . S
C39 O45 1.298 . S
C40 O29 1.226 . S
C40 O30 1.307 . S
C41 O33 1.303 . S
C41 O34 1.247 . S
C42 O31 1.253 . S
C42 O32 1.283 . S
C43 O35 1.304 . S
C43 O37 1.272 . S
C44 O36 1.311 . S
C44 O38 1.231 . S
O45 Zn27 1.953 . S
O45 C39 1.298 . S
C46 C47 1.384 . S
C46 H59 0.947 . S
C46 C81 1.382 . S
C47 C46 1.384 . S
C47 C48 1.378 . S
C48 C47 1.378 . S
C48 C49 1.378 . S
C48 H60 0.952 . S
C49 C48 1.378 . S
C49 H61 0.950 . S
C49 C80 1.383 . S
H50 C69 0.947 . S
H51 C70 0.946 . S
H52 C72 0.953 . S
H53 C73 0.945 . S
H54 C75 0.952 . S
H55 C76 0.949 . S
H56 C78 0.950 . S
H57 C79 0.948 . S
H58 C81 0.951 . S
H59 C46 0.947 . S
H60 C48 0.952 . S
H61 C49 0.950 . S
N62 C65 1.382 1_545 S
N62 C67 1.363 1_455 S
N63 C65 1.371 . S
N63 C66 1.372 1_565 S
N64 C66 1.361 1_655 S
N64 C67 1.377 . S
C65 N62 1.382 1_565 S
C65 N63 1.371 . S
C65 C68 1.480 . S
C66 N63 1.372 1_545 S
C66 N64 1.361 1_455 S
C66 C74 1.457 . S
C67 N62 1.363 1_655 S
C67 N64 1.377 . S
C67 C80 1.479 . S
C68 C65 1.480 . S
C68 C69 1.383 . S
C68 C73 1.385 . S
C69 H50 0.947 . S
C69 C68 1.383 . S
C69 C70 1.388 . S
C70 H51 0.946 . S
C70 C69 1.388 . S
C70 C71 1.384 . S
C71 C70 1.384 . S
C71 C72 1.377 . S
C72 H52 0.953 . S
C72 C71 1.377 . S
C72 C73 1.369 . S
C73 H53 0.945 . S
C73 C68 1.385 . S
C73 C72 1.369 . S
C74 C66 1.457 . S
C74 C75 1.372 1_545 S
C74 C79 1.364 1_455 S
C75 H54 0.952 . S
C75 C74 1.372 1_565 S
C75 C76 1.389 . S
C76 H55 0.949 . S
C76 C75 1.389 . S
C76 C77 1.387 1_565 S
C77 C76 1.387 1_545 S
C77 C78 1.372 1_455 S
C78 H56 0.950 . S
C78 C77 1.372 1_655 S
C78 C79 1.379 . S
C79 H57 0.948 . S
C79 C74 1.364 1_655 S
C79 C78 1.379 . S
C80 C49 1.383 . S
C80 C67 1.479 . S
C80 C81 1.398 . S
C81 C46 1.382 . S
C81 H58 0.951 . S
C81 C80 1.398 . S
C82 C83 1.384 . S
C82 H95 0.947 . S
C82 C117 1.382 . S
C83 C82 1.384 . S
C83 C84 1.378 . S
C84 C83 1.378 . S
C84 C85 1.378 . S
C84 H96 0.952 . S
C85 C84 1.378 . S
C85 H97 0.950 . S
C85 C116 1.383 . S
H86 C105 0.947 . S
H87 C106 0.946 . S
H88 C108 0.953 . S
H89 C109 0.945 . S
H90 C111 0.952 . S
H91 C112 0.949 . S
H92 C114 0.950 . S
H93 C115 0.948 . S
H94 C117 0.951 . S
H95 C82 0.947 . S
H96 C84 0.952 . S
H97 C85 0.950 . S
N98 C101 1.382 1_565 S
N98 C103 1.363 1_455 S
N99 C101 1.371 . S
N99 C102 1.372 1_545 S
N100 C102 1.361 1_655 S
N100 C103 1.377 . S
C101 N98 1.382 1_545 S
C101 N99 1.371 . S
C101 C104 1.480 . S
C102 N99 1.372 1_565 S
C102 N100 1.361 1_455 S
C102 C110 1.457 . S
C103 N98 1.363 1_655 S
C103 N100 1.377 . S
C103 C116 1.479 . S
C104 C101 1.480 . S
C104 C105 1.383 . S
C104 C109 1.385 . S
C105 H86 0.947 . S
C105 C104 1.383 . S
C105 C106 1.388 . S
C106 H87 0.946 . S
C106 C105 1.388 . S
C106 C107 1.384 . S
C107 C106 1.384 . S
C107 C108 1.377 . S
C108 H88 0.953 . S
C108 C107 1.377 . S
C108 C109 1.369 . S
C109 H89 0.945 . S
C109 C104 1.385 . S
C109 C108 1.369 . S
C110 C102 1.457 . S
C110 C111 1.372 1_565 S
C110 C115 1.364 1_455 S
C111 H90 0.952 . S
C111 C110 1.372 1_545 S
C111 C112 1.389 . S
C112 H91 0.949 . S
C112 C111 1.389 . S
C112 C113 1.387 1_545 S
C113 C112 1.387 1_565 S
C113 C114 1.372 1_455 S
C114 H92 0.950 . S
C114 C113 1.372 1_655 S
C114 C115 1.379 . S
C115 H93 0.948 . S
C115 C110 1.364 1_655 S
C115 C114 1.379 . S
C116 C85 1.383 . S
C116 C103 1.479 . S
C116 C117 1.398 . S
C117 C82 1.382 . S
C117 H94 0.951 . S
C117 C116 1.398 . S
C118 C119 1.384 . S
C118 H131 0.947 . S
C118 C153 1.382 . S
C119 C118 1.384 . S
C119 C120 1.378 . S
C120 C119 1.378 . S
C120 C121 1.378 . S
C120 H132 0.952 1_556 S
C121 C120 1.378 . S
C121 H133 0.950 . S
C121 C152 1.383 . S
H122 C141 0.947 . S
H123 C142 0.964 . S
H124 C144 0.953 . S
H125 C145 0.945 . S
H126 C147 0.952 . S
H127 C148 0.949 . S
H128 C150 0.950 . S
H129 C151 0.948 . S
H130 C153 0.951 . S
H131 C118 0.947 . S
H132 C120 0.952 1_554 S
H133 C121 0.950 . S
N134 C137 1.382 . S
N134 C139 1.363 . S
N135 C137 1.371 . S
N135 C138 1.372 . S
N136 C138 1.361 . S
N136 C139 1.377 . S
C137 N134 1.382 . S
C137 N135 1.371 . S
C137 C140 1.480 . S
C138 N135 1.372 . S
C138 N136 1.361 . S
C138 C146 1.457 . S
C139 N134 1.363 . S
C139 N136 1.377 . S
C139 C152 1.479 . S
C140 C137 1.480 . S
C140 C141 1.383 . S
C140 C145 1.385 . S
C141 H122 0.947 . S
C141 C140 1.383 . S
C141 C142 1.388 . S
C142 H123 0.964 . S
C142 C141 1.388 . S
C142 C143 1.384 . S
C143 C142 1.384 . S
C143 C144 1.377 . S
C144 H124 0.953 . S
C144 C143 1.377 . S
C144 C145 1.369 . S
C145 H125 0.945 . S
C145 C140 1.385 . S
C145 C144 1.369 . S
C146 C138 1.457 . S
C146 C147 1.372 . S
C146 C151 1.364 . S
C147 H126 0.952 . S
C147 C146 1.372 . S
C147 C148 1.389 . S
C148 H127 0.949 . S
C148 C147 1.389 . S
C148 C149 1.387 . S
C149 C148 1.387 . S
C149 C150 1.372 . S
C150 H128 0.950 . S
C150 C149 1.372 . S
C150 C151 1.379 . S
C151 H129 0.948 . S
C151 C146 1.364 . S
C151 C150 1.379 . S
C152 C121 1.383 . S
C152 C139 1.479 . S
C152 C153 1.398 . S
C153 C118 1.382 . S
C153 H130 0.951 . S
C153 C152 1.398 . S
C154 C155 1.384 . S
C154 H167 0.947 . S
C154 C189 1.382 . S
C155 C154 1.384 . S
C155 C156 1.378 . S
C156 C155 1.378 . S
C156 C157 1.378 . S
C156 H168 0.969 . S
C157 C156 1.378 . S
C157 H169 0.950 . S
C157 C188 1.383 . S
H158 C177 0.947 . S
H159 C178 0.946 . S
H160 C180 0.953 . S
H161 C181 0.945 . S
H162 C183 0.952 . S
H163 C184 0.949 . S
H164 C186 0.950 . S
H165 C187 0.948 . S
H166 C189 0.951 . S
H167 C154 0.947 . S
H168 C156 0.969 . S
H169 C157 0.950 . S
N170 C173 1.382 . S
N170 C175 1.363 . S
N171 C173 1.371 . S
N171 C174 1.372 . S
N172 C174 1.361 . S
N172 C175 1.377 . S
C173 N170 1.382 . S
C173 N171 1.371 . S
C173 C176 1.480 . S
C174 N171 1.372 . S
C174 N172 1.361 . S
C174 C182 1.457 . S
C175 N170 1.363 . S
C175 N172 1.377 . S
C175 C188 1.479 . S
C176 C173 1.480 . S
C176 C177 1.383 . S
C176 C181 1.385 . S
C177 H158 0.947 . S
C177 C176 1.383 . S
C177 C178 1.388 . S
C178 H159 0.946 . S
C178 C177 1.388 . S
C178 C179 1.384 . S
C179 C178 1.384 . S
C179 C180 1.377 . S
C180 H160 0.953 . S
C180 C179 1.377 . S
C180 C181 1.369 . S
C181 H161 0.945 . S
C181 C176 1.385 . S
C181 C180 1.369 . S
C182 C174 1.457 . S
C182 C183 1.372 . S
C182 C187 1.364 . S
C183 H162 0.952 . S
C183 C182 1.372 . S
C183 C184 1.389 . S
C184 H163 0.949 . S
C184 C183 1.389 . S
C184 C185 1.387 . S
C185 C184 1.387 . S
C185 C186 1.372 . S
C186 H164 0.950 . S
C186 C185 1.372 . S
C186 C187 1.379 . S
C187 H165 0.948 . S
C187 C182 1.364 . S
C187 C186 1.379 . S
C188 C157 1.383 . S
C188 C175 1.479 . S
C188 C189 1.398 . S
C189 C154 1.382 . S
C189 H166 0.951 . S
C189 C188 1.398 . S
C190 C191 1.387 . S
C190 H194 0.950 . S
C190 C199 1.390 . S
C191 C190 1.387 . S
C191 C193 1.387 1_554 S
H192 C199 0.950 . S
C193 C191 1.387 1_556 S
C193 C195 1.394 . S
C193 H197 0.950 . S
H194 C190 0.950 . S
C195 C193 1.394 . S
C195 C196 1.363 1_556 S
C195 H198 0.971 . S
C196 C195 1.363 1_554 S
C196 C199 1.387 . S
H197 C193 0.950 . S
H198 C195 0.971 . S
C199 C190 1.390 . S
C199 H192 0.950 . S
C199 C196 1.387 . S
C200 C201 1.387 . S
C200 H204 0.950 . S
C200 C209 1.390 . S
C201 C200 1.387 . S
C201 C203 1.387 1_556 S
H202 C209 0.950 . S
C203 C201 1.387 1_554 S
C203 C205 1.393 . S
C203 H207 0.950 . S
H204 C200 0.950 . S
C205 C203 1.393 . S
C205 C206 1.366 1_554 S
C205 H208 0.968 . S
C206 C205 1.366 1_556 S
C206 C209 1.387 . S
H207 C203 0.950 . S
H208 C205 0.968 . S
C209 C200 1.390 . S
C209 H202 0.950 . S
C209 C206 1.387 . S
C210 C211 1.387 1_556 S
C210 H214 0.950 . S
C210 C219 1.390 . S
C211 C210 1.387 1_554 S
C211 C213 1.387 . S
H212 C219 0.950 . S
C213 C211 1.387 . S
C213 C215 1.390 . S
C213 H217 0.950 . S
H214 C210 0.950 . S
C215 C213 1.390 . S
C215 C216 1.387 . S
C215 H218 0.950 . S
C216 C215 1.387 . S
C216 C219 1.387 1_554 S
H217 C213 0.950 . S
H218 C215 0.950 . S
C219 C210 1.390 . S
C219 H212 0.950 . S
C219 C216 1.387 1_556 S
C220 C221 1.387 . S
C220 H224 0.950 . S
C220 C229 1.390 . S
C221 C220 1.387 . S
C221 C223 1.387 1_556 S
H222 C229 0.950 . S
C223 C221 1.387 1_554 S
C223 C225 1.390 . S
C223 H227 0.950 . S
H224 C220 0.950 . S
C225 C223 1.390 . S
C225 C226 1.387 1_554 S
C225 H228 0.950 . S
C226 C225 1.387 1_556 S
C226 C229 1.387 . S
H227 C223 0.950 . S
H228 C225 0.950 . S
C229 C220 1.390 . S
C229 H222 0.950 . S
C229 C226 1.387 . S
C230 C231 1.387 . S
C230 H234 0.950 . S
C230 C239 1.390 . S
C231 C230 1.387 . S
C231 C233 1.387 . S
H232 C239 0.950 . S
C233 C231 1.387 . S
C233 C235 1.390 . S
C233 H237 0.950 . S
H234 C230 0.950 . S
C235 C233 1.390 . S
C235 C236 1.387 . S
C235 H238 0.950 . S
C236 C235 1.387 . S
C236 C239 1.387 . S
H237 C233 0.950 . S
H238 C235 0.950 . S
C239 C230 1.390 . S
C239 H232 0.950 . S
C239 C236 1.387 . S
C240 C241 1.387 . S
C240 H244 0.950 . S
C240 C249 1.390 . S
C241 C240 1.387 . S
C241 C243 1.387 . S
H242 C249 0.950 . S
C243 C241 1.387 . S
C243 C245 1.390 . S
C243 H247 0.950 . S
H244 C240 0.950 . S
C245 C243 1.390 . S
C245 C246 1.387 . S
C245 H248 0.950 . S
C246 C245 1.387 . S
C246 C249 1.387 . S
H247 C243 0.950 . S
H248 C245 0.950 . S
C249 C240 1.390 . S
C249 H242 0.950 . S
C249 C246 1.387 . S
C250 C251 1.387 . S
C250 H254 0.950 . S
C250 C259 1.390 . S
C251 C250 1.387 . S
C251 C253 1.387 . S
H252 C259 0.950 . S
C253 C251 1.387 . S
C253 C255 1.390 . S
C253 H257 0.950 . S
H254 C250 0.950 . S
C255 C253 1.390 . S
C255 C256 1.387 . S
C255 H258 0.950 . S
C256 C255 1.387 . S
C256 C259 1.387 . S
H257 C253 0.950 . S
H258 C255 0.950 . S
C259 C250 1.390 . S
C259 H252 0.950 . S
C259 C256 1.387 . S
C260 C261 1.387 . S
C260 H264 0.950 . S
C260 C269 1.390 . S
C261 C260 1.387 . S
C261 C263 1.387 . S
H262 C269 0.950 . S
C263 C261 1.387 . S
C263 C265 1.390 . S
C263 H267 0.950 . S
H264 C260 0.950 . S
C265 C263 1.390 . S
C265 C266 1.387 . S
C265 H268 0.950 . S
C266 C265 1.387 . S
C266 C269 1.387 . S
H267 C263 0.950 . S
H268 C265 0.950 . S
C269 C260 1.390 . S
C269 H262 0.950 . S
C269 C266 1.387 . S
C270 C271 1.387 1_565 S
C270 H274 0.950 . S
C270 C279 1.390 . S
C271 C270 1.387 1_545 S
C271 C273 1.387 1_455 S
H272 C279 0.950 . S
C273 C271 1.387 1_655 S
C273 C275 1.390 . S
C273 H277 0.950 . S
H274 C270 0.950 . S
C275 C273 1.390 . S
C275 C276 1.394 1_655 S
C275 H278 0.950 . S
C276 C275 1.394 1_455 S
C276 C279 1.381 1_545 S
H277 C273 0.950 . S
H278 C275 0.950 . S
C279 C270 1.390 . S
C279 H272 0.950 . S
C279 C276 1.381 1_565 S
C280 C281 1.387 1_565 S
C280 H284 0.950 . S
C280 C289 1.390 . S
C281 C280 1.387 1_545 S
C281 C283 1.387 1_455 S
H282 C289 0.950 . S
C283 C281 1.387 1_655 S
C283 C285 1.390 . S
C283 H287 0.950 . S
H284 C280 0.950 . S
C285 C283 1.390 . S
C285 C286 1.387 1_655 S
C285 H288 0.950 . S
C286 C285 1.387 1_455 S
C286 C289 1.387 1_545 S
H287 C283 0.950 . S
H288 C285 0.950 . S
C289 C280 1.390 . S
C289 H282 0.950 . S
C289 C286 1.387 1_565 S
C290 C291 1.387 . S
C290 H294 0.950 . S
C290 C299 1.390 . S
C291 C290 1.387 . S
C291 C293 1.387 . S
H292 C299 0.950 . S
C293 C291 1.387 . S
C293 C295 1.390 . S
C293 H297 0.950 . S
H294 C290 0.950 . S
C295 C293 1.390 . S
C295 C296 1.387 . S
C295 H298 0.950 . S
C296 C295 1.387 . S
C296 C299 1.387 . S
H297 C293 0.950 . S
H298 C295 0.950 . S
C299 C290 1.390 . S
C299 H292 0.950 . S
C299 C296 1.387 . S
C300 C301 1.387 . S
C300 H304 0.950 . S
C300 C309 1.390 . S
C301 C300 1.387 . S
C301 C303 1.387 . S
H302 C309 0.950 . S
C303 C301 1.387 . S
C303 C305 1.390 . S
C303 H307 0.950 . S
H304 C300 0.950 . S
C305 C303 1.390 . S
C305 C306 1.387 . S
C305 H308 0.950 . S
C306 C305 1.387 . S
C306 C309 1.387 . S
H307 C303 0.950 . S
H308 C305 0.950 . S
C309 C300 1.390 . S
C309 H302 0.950 . S
C309 C306 1.387 . S
C196 C155 1.490 . S
C191 C21 1.490 . S
C201 C19 1.480 . S
C206 C119 1.484 . S
C211 C18 1.460 . S
C216 C179 1.445 . S
C221 C20 1.480 . S
C226 C143 1.452 . S
C231 C44 1.490 . S
C236 C83 1.490 . S
C241 C42 1.480 . S
C246 C47 1.484 . S
C256 C107 1.444 . S
C251 C41 1.460 . S
C266 C71 1.453 . S
C261 C43 1.480 . S
C271 C16 1.496 . S
C276 C77 1.490 . S
C281 C17 1.465 . S
C286 C113 1.463 1_545 S
C296 C149 1.491 . S
C291 C39 1.496 . S
C301 C40 1.465 . S
C306 C185 1.463 . S
