# Generated by pormake.
# Topology zzz, (3,6)-cn, num edge types: 1
# Building blocks:
#     Node 0, Type 0, BuildingBlock: QEWDON_clean_linker_0, # of connection points: 3
#     Node 1, Type 0, BuildingBlock: QEWDON_clean_linker_0, # of connection points: 3
#     Node 2, Type 0, BuildingBlock: QEWDON_clean_linker_0, # of connection points: 3
#     Node 3, Type 0, BuildingBlock: QEWDON_clean_linker_0, # of connection points: 3
#     Node 4, Type 0, BuildingBlock: QEWDON_clean_linker_0, # of connection points: 3
#     Node 5, Type 0, BuildingBlock: QEWDON_clean_linker_0, # of connection points: 3
#     Node 6, Type 0, BuildingBlock: QEWDON_clean_linker_0, # of connection points: 3
#     Node 7, Type 0, BuildingBlock: QEWDON_clean_linker_0, # of connection points: 3
#     Node 8, Type 1, BuildingBlock: KUMBOL_clean_sbu_0, # of connection points: 6
#     Node 9, Type 1, BuildingBlock: KUMBOL_clean_sbu_0, # of connection points: 6
#     Node 10, Type 1, BuildingBlock: KUMBOL_clean_sbu_0, # of connection points: 6
#     Node 11, Type 1, BuildingBlock: KUMBOL_clean_sbu_0, # of connection points: 6
#     Edge 12, Type (0, 1), BuildingBlock: KIFKEQ_clean_linker_1, # of connection points: 2
#     Edge 13, Type (0, 1), BuildingBlock: KIFKEQ_clean_linker_1, # of connection points: 2
#     Edge 14, Type (0, 1), BuildingBlock: KIFKEQ_clean_linker_1, # of connection points: 2
#     Edge 15, Type (0, 1), BuildingBlock: KIFKEQ_clean_linker_1, # of connection points: 2
#     Edge 16, Type (0, 1), BuildingBlock: KIFKEQ_clean_linker_1, # of connection points: 2
#     Edge 17, Type (0, 1), BuildingBlock: KIFKEQ_clean_linker_1, # of connection points: 2
#     Edge 18, Type (0, 1), BuildingBlock: KIFKEQ_clean_linker_1, # of connection points: 2
#     Edge 19, Type (0, 1), BuildingBlock: KIFKEQ_clean_linker_1, # of connection points: 2
#     Edge 20, Type (0, 1), BuildingBlock: KIFKEQ_clean_linker_1, # of connection points: 2
#     Edge 21, Type (0, 1), BuildingBlock: KIFKEQ_clean_linker_1, # of connection points: 2
#     Edge 22, Type (0, 1), BuildingBlock: KIFKEQ_clean_linker_1, # of connection points: 2
#     Edge 23, Type (0, 1), BuildingBlock: KIFKEQ_clean_linker_1, # of connection points: 2
#     Edge 24, Type (0, 1), BuildingBlock: KIFKEQ_clean_linker_1, # of connection points: 2
#     Edge 25, Type (0, 1), BuildingBlock: KIFKEQ_clean_linker_1, # of connection points: 2
#     Edge 26, Type (0, 1), BuildingBlock: KIFKEQ_clean_linker_1, # of connection points: 2
#     Edge 27, Type (0, 1), BuildingBlock: KIFKEQ_clean_linker_1, # of connection points: 2
#     Edge 28, Type (0, 1), BuildingBlock: KIFKEQ_clean_linker_1, # of connection points: 2
#     Edge 29, Type (0, 1), BuildingBlock: KIFKEQ_clean_linker_1, # of connection points: 2
#     Edge 30, Type (0, 1), BuildingBlock: KIFKEQ_clean_linker_1, # of connection points: 2
#     Edge 31, Type (0, 1), BuildingBlock: KIFKEQ_clean_linker_1, # of connection points: 2
#     Edge 32, Type (0, 1), BuildingBlock: KIFKEQ_clean_linker_1, # of connection points: 2
#     Edge 33, Type (0, 1), BuildingBlock: KIFKEQ_clean_linker_1, # of connection points: 2
#     Edge 34, Type (0, 1), BuildingBlock: KIFKEQ_clean_linker_1, # of connection points: 2
#     Edge 35, Type (0, 1), BuildingBlock: KIFKEQ_clean_linker_1, # of connection points: 2
# Relax obj value: 0.112
# Max RMSD: 0.150
# Mean RMSD: 0.075
data_MOF--net-zzz--node1-KUMBOL_clean_sbu_0--node2-QEWDON_clean_linker_0--edge1-KIFKEQ_clean_linker_1
_symmetry_space_group_name_H-M    P1
_symmetry_Int_Tables_number       1
_symmetry_cell_setting            triclinic
loop_
_symmetry_equiv_pos_as_xyz
'x, y, z'
_cell_length_a     54.403669
_cell_length_b     54.273669
_cell_length_c     14.532025
_cell_angle_alpha  91.587097
_cell_angle_beta   90.054013
_cell_angle_gamma 90.031591
loop_
_atom_site_label
_atom_site_type_symbol
_atom_site_fract_x
_atom_site_fract_y
_atom_site_fract_z
_atom_type_partial_charge
H0 H 0.76261 0.57009 0.11188 0.0
C1 C 0.77611 0.56497 0.16269 0.0
C2 C 0.80093 0.56756 0.14131 0.0
C3 C 0.76883 0.55643 0.24924 0.0
H4 H 0.83813 0.56409 0.18715 0.0
C5 C 0.81896 0.56178 0.20571 0.0
C6 C 0.81292 0.55283 0.29227 0.0
C7 C 0.78759 0.55043 0.31448 0.0
C8 C 0.74171 0.55526 0.27121 0.0
H9 H 0.78264 0.54341 0.38094 0.0
C10 C 0.72348 0.5505 0.20191 0.0
C11 C 0.69794 0.55185 0.22233 0.0
C12 C 0.73371 0.56083 0.3613 0.0
H13 H 0.74674 0.56513 0.41576 0.0
C14 C 0.70873 0.56208 0.38203 0.0
H15 H 0.72908 0.54548 0.13248 0.0
C16 C 0.69109 0.55793 0.31365 0.0
H17 H 0.67195 0.55996 0.33268 0.0
H18 H 0.70294 0.56681 0.45157 0.0
H19 H 0.9941 0.777 0.10789 0.0
C20 C 0.99793 0.79103 0.16036 0.0
C21 C 0.99314 0.81555 0.13996 0.0
C22 C 1.00689 0.78459 0.24724 0.0
H23 H 0.99387 0.85322 0.18851 0.0
C24 C 0.99694 0.83424 0.20691 0.0
C25 C 1.006 0.82912 0.29476 0.0
C26 C 1.01133 0.80408 0.31423 0.0
C27 C 1.00966 0.75748 0.26782 0.0
H28 H 1.01862 0.79989 0.38131 0.0
C29 C 1.01449 0.73897 0.19766 0.0
C30 C 1.01426 0.71338 0.21715 0.0
C31 C 1.0052 0.74962 0.35761 0.0
H32 H 1.00081 0.76268 0.41274 0.0
C33 C 1.00507 0.72464 0.37735 0.0
H34 H 1.01868 0.74434 0.12829 0.0
C35 C 1.00924 0.70679 0.30833 0.0
H36 H 1.00806 0.68764 0.3268 0.0
H37 H 1.00115 0.719 0.44672 0.0
H38 H 0.78678 0.98826 0.12866 0.0
C39 C 0.77323 0.99299 0.18048 0.0
C40 C 0.7486 0.98799 0.1595 0.0
C41 C 0.78016 1.00385 0.2659 0.0
H42 H 0.71132 0.98935 0.20763 0.0
C43 C 0.73041 0.99263 0.22582 0.0
C44 C 0.73603 1.00325 0.31224 0.0
C45 C 0.76099 1.00942 0.3312 0.0
C46 C 0.80727 1.00852 0.28615 0.0
H47 H 0.76519 1.01845 0.39656 0.0
C48 C 0.82548 1.01025 0.2151 0.0
C49 C 0.85098 1.0124 0.23597 0.0
C50 C 0.81551 1.00989 0.37803 0.0
H51 H 0.80296 1.00794 0.43498 0.0
C52 C 0.84034 1.0131 0.39893 0.0
H53 H 0.82013 1.00959 0.14353 0.0
C54 C 0.85783 1.01432 0.32925 0.0
H55 H 0.87687 1.01686 0.34901 0.0
H56 H 0.84616 1.01428 0.47019 0.0
H57 H 0.58075 0.79975 0.15303 0.0
C58 C 0.57499 0.78686 0.20419 0.0
C59 C 0.57866 0.76174 0.18516 0.0
C60 C 0.5642 0.79504 0.28815 0.0
H61 H 0.57462 0.72497 0.23326 0.0
C62 C 0.57198 0.74443 0.24985 0.0
C63 C 0.56058 0.75141 0.3325 0.0
C64 C 0.5568 0.77682 0.35206 0.0
C65 C 0.56091 0.82235 0.30846 0.0
H66 H 0.54741 0.78208 0.41514 0.0
C67 C 0.55909 0.8399 0.23732 0.0
C68 C 0.55753 0.86558 0.25788 0.0
C69 C 0.56061 0.83131 0.40034 0.0
H70 H 0.56274 0.81906 0.45721 0.0
C71 C 0.55813 0.85643 0.42098 0.0
H72 H 0.55913 0.83381 0.16592 0.0
C73 C 0.55654 0.87335 0.35089 0.0
H74 H 0.55441 0.89265 0.36989 0.0
H75 H 0.5577 0.86288 0.49213 0.0
H76 H 0.29156 0.50735 0.19521 0.0
C77 C 0.28008 0.50717 0.1343 0.0
C78 C 0.25692 0.49598 0.13888 0.0
C79 C 0.28761 0.51943 0.05485 0.0
H80 H 0.22244 0.48932 0.06998 0.0
C81 C 0.2408 0.49694 0.06383 0.0
C82 C 0.24679 0.51001 0.9854 0.0
C83 C 0.2704 0.52097 0.98043 0.0
C84 C 0.31239 0.53228 0.05427 0.0
H85 H 0.27506 0.53063 0.91875 0.0
C86 C 0.33271 0.52462 0.10949 0.0
C87 C 0.35537 0.5377 0.11013 0.0
C88 C 0.31556 0.55334 1.00105 0.0
H89 H 0.30067 0.56066 0.9608 0.0
C90 C 0.33782 0.56603 1.00086 0.0
H91 H 0.33123 0.50839 0.15067 0.0
C92 C 0.35744 0.55837 0.05453 0.0
H93 H 0.37425 0.56908 0.05386 0.0
H94 H 0.33976 0.58223 0.95966 0.0
H95 H 0.07069 0.29537 0.19467 0.0
C96 C 0.06576 0.28137 0.14361 0.0
C97 C 0.07354 0.25726 0.15841 0.0
C98 C 0.05182 0.28726 0.06549 0.0
H99 H 0.07395 0.21989 0.10649 0.0
C100 C 0.0686 0.23865 0.0923 0.0
C101 C 0.05527 0.24325 0.01198 0.0
C102 C 0.04635 0.26765 0.99992 0.0
C103 C 0.04373 0.31384 0.05349 0.0
H104 H 0.03527 0.27112 0.93987 0.0
C105 C 0.04178 0.33134 0.1292 0.0
C106 C 0.03539 0.35633 0.11529 0.0
C107 C 0.03892 0.32242 0.96466 0.0
H108 H 0.04084 0.31047 0.90435 0.0
C109 C 0.03219 0.34688 0.95117 0.0
H110 H 0.0447 0.32578 0.19919 0.0
C111 C 0.0304 0.36363 0.02539 0.0
H112 H 0.02544 0.38255 0.01231 0.0
H113 H 0.02863 0.35302 0.88216 0.0
H114 H 0.27693 0.0795 0.17737 0.0
C115 C 0.29043 0.07483 0.12531 0.0
C116 C 0.31505 0.08027 0.14528 0.0
C117 C 0.28347 0.06364 0.04044 0.0
H118 H 0.35223 0.0793 0.09583 0.0
C119 C 0.33314 0.07568 0.07853 0.0
C120 C 0.32747 0.06471 0.99281 0.0
C121 C 0.30259 0.05811 0.97488 0.0
C122 C 0.25638 0.05854 0.02081 0.0
H123 H 0.29842 0.04879 0.91006 0.0
C124 C 0.23823 0.05687 0.09209 0.0
C125 C 0.21275 0.05408 0.07146 0.0
C126 C 0.24812 0.05662 0.92903 0.0
H127 H 0.26058 0.05856 0.87182 0.0
C128 C 0.22337 0.0528 0.90843 0.0
H129 H 0.24359 0.05803 0.16359 0.0
C130 C 0.20593 0.05152 0.97826 0.0
H131 H 0.18696 0.04842 0.95856 0.0
H132 H 0.21755 0.05117 0.83725 0.0
H133 H 0.47932 0.27002 0.14033 0.0
C134 C 0.48531 0.28289 0.08954 0.0
C135 C 0.48067 0.30793 0.10691 0.0
C136 C 0.49748 0.27482 0.00812 0.0
H137 H 0.48425 0.34467 0.05801 0.0
C138 C 0.4876 0.32526 0.04264 0.0
C139 C 0.50035 0.31844 0.96263 0.0
C140 C 0.50519 0.29313 0.94501 0.0
C141 C 0.50217 0.24757 0.9901 0.0
H142 H 0.51571 0.28806 0.88427 0.0
C143 C 0.50325 0.23028 0.06236 0.0
C144 C 0.50673 0.20465 0.04385 0.0
C145 C 0.50487 0.23842 0.89907 0.0
H146 H 0.50334 0.25037 0.84105 0.0
C147 C 0.50918 0.21346 0.88053 0.0
H148 H 0.50125 0.23655 0.13303 0.0
C149 C 0.51026 0.19681 0.95167 0.0
H150 H 0.51407 0.17771 0.93379 0.0
H151 H 0.51155 0.2069 0.81004 0.0
Gd152 Gd 1.01025 0.04046 0.566 0.0
Gd153 Gd 0.05436 0.03054 0.74956 0.0
C154 C 0.07766 0.09658 0.93565 0.0
C155 C 0.12113 0.09993 0.90113 0.0
C156 C 0.09633 0.06766 0.82696 0.0
C157 C 0.07573 0.07611 0.87352 0.0
C158 C 0.11942 0.07901 0.84257 0.0
C159 C 0.10025 0.10877 0.94723 0.0
C160 C 0.05702 0.10388 0.98635 0.0
C161 C 0.0354 0.09039 0.97718 0.0
N162 N 0.05413 0.06374 0.86148 0.0
C163 C 0.03431 0.07023 0.91539 0.0
H164 H 1.017 0.06091 0.91025 0.0
C165 C 0.1148 0.03631 0.73479 0.0
N166 N 0.09418 0.04739 0.77103 0.0
C167 C 0.13802 0.0468 0.74863 0.0
C168 C 0.1403 0.06849 0.8015 0.0
H169 H 0.11314 1.0195 0.69343 0.0
H170 H 0.10192 0.12463 0.9938 0.0
H171 H 0.04477 1.00515 0.40996 0.0
H172 H 0.05774 0.11954 0.0342 0.0
H173 H 1.01937 0.09564 0.01723 0.0
H174 H 0.13863 0.10901 0.91307 0.0
H175 H 0.9533 0.05696 0.62721 0.0
H176 H 0.99757 0.95272 0.27969 0.0
H177 H 0.03864 0.97121 0.30142 0.0
H178 H 0.91799 0.97276 0.39765 0.0
H179 H 0.15412 0.03817 0.7182 0.0
H180 H 0.15833 0.07657 0.81235 0.0
H181 H 0.95282 0.9533 0.31644 0.0
H182 H 0.91054 0.04308 0.60206 0.0
N183 N 1.00715 1.00737 0.45426 0.0
C184 C 0.99997 0.96808 0.32809 0.0
C185 C 1.02313 0.97854 0.33991 0.0
C186 C 0.9801 0.97789 0.37744 0.0
C187 C 0.98424 0.99781 0.44046 0.0
C188 C 0.02637 0.99833 0.40229 0.0
N189 N 0.96899 0.02805 0.54447 0.0
C190 C 0.96463 1.00849 0.48688 0.0
C191 C 0.92555 0.03309 0.56959 0.0
C192 C 0.92085 1.01231 0.51382 0.0
C193 C 0.94979 0.04086 0.58366 0.0
C194 C 0.94042 0.99991 0.47073 0.0
H195 H 0.90205 1.0063 0.50293 0.0
O196 O 0.98672 0.06502 0.48964 0.0
O197 O 0.03402 0.059 0.67336 0.0
O198 O 1.01553 0.02877 0.8093 0.0
O199 O 0.98839 1.02518 0.68541 0.0
O200 O 0.99806 0.07056 0.66747 0.0
O201 O 0.02596 0.06737 0.47478 0.0
O202 O 0.08055 1.00822 0.82309 0.0
O203 O 0.03026 1.01202 0.64367 0.0
O204 O 0.04869 0.03882 0.50303 0.0
O205 O 0.07591 0.04408 0.62585 0.0
O206 O 0.06575 0.99921 0.65154 0.0
O207 O 0.04185 1.00377 0.84789 0.0
C208 C 1.01904 0.07487 0.70575 0.0
C209 C 0.93641 0.97969 0.41035 0.0
C210 C 0.95622 0.96865 0.36405 0.0
C211 C 1.00506 0.07864 0.46519 0.0
C212 C 1.00436 0.10486 0.49592 0.0
C213 C 0.98287 0.11523 0.5343 0.0
C214 C 0.02586 0.11917 0.49403 0.0
C215 C 0.02598 0.14378 0.5274 0.0
C216 C 0.98301 0.13929 0.57048 0.0
C217 C 1.00431 0.15354 0.56684 0.0
C218 C 0.99319 1.02473 0.77487 0.0
C219 C 0.04468 0.99541 0.61295 0.0
C220 C 0.0636 0.99396 0.85455 0.0
C221 C 0.06598 0.96754 0.82846 0.0
C222 C 0.08934 0.95714 0.81375 0.0
C223 C 0.045 0.95299 0.81155 0.0
C224 C 0.04714 0.92803 0.78398 0.0
C225 C 0.09164 0.93275 0.78239 0.0
C226 C 0.07076 0.9182 0.76804 0.0
C227 C 0.07108 0.04318 0.5363 0.0
H228 H 0.96604 0.10463 0.53797 0.0
H229 H 0.04257 0.11103 0.46643 0.0
H230 H 0.96643 0.14706 0.60034 0.0
H231 H 1.00341 0.17249 0.59179 0.0
H232 H 0.10584 0.96798 0.82526 0.0
H233 H 0.02693 0.96104 0.82082 0.0
H234 H 0.10971 0.92491 0.77104 0.0
H235 H 0.0733 0.89898 0.74866 0.0
Gd236 Gd 0.52688 1.01164 0.56478 0.0
Gd237 Gd 0.53723 0.05985 0.7431 0.0
C238 C 0.47085 0.08338 0.92253 0.0
C239 C 0.46485 0.12581 0.87953 0.0
C240 C 0.49813 0.1014 0.81158 0.0
C241 C 0.49106 0.08136 0.86144 0.0
C242 C 0.48548 0.12408 0.82193 0.0
C243 C 0.45753 0.10548 0.92972 0.0
C244 C 0.46482 0.0633 0.97599 0.0
C245 C 0.47913 0.04213 0.96981 0.0
N246 N 0.50434 0.06019 0.85275 0.0
C247 C 0.49893 0.04092 0.90861 0.0
H248 H 0.50888 1.02392 0.9056 0.0
C249 C 0.52806 0.11984 0.71851 0.0
N250 N 0.51828 0.09925 0.75731 0.0
C251 C 0.51609 0.14257 0.72592 0.0
C252 C 0.49443 0.14461 0.77659 0.0
H253 H 0.54512 0.1186 0.68054 0.0
H254 H 0.44188 0.10721 0.97551 0.0
H255 H 0.55148 0.05243 0.40888 0.0
H256 H 0.44942 0.0641 0.02322 0.0
H257 H 0.4748 0.02651 0.01166 0.0
H258 H 0.45483 0.14298 0.88765 0.0
H259 H 0.52454 0.95199 0.62034 0.0
H260 H 0.61042 1.01736 0.26778 0.0
H261 H 0.58385 0.05355 0.2961 0.0
H262 H 0.61123 0.93592 0.38293 0.0
H263 H 0.52368 0.15853 0.69309 0.0
H264 H 0.48525 0.16229 0.78291 0.0
H265 H 0.62069 0.97382 0.30152 0.0
H266 H 0.54764 0.91352 0.59178 0.0
N267 N 0.55801 1.01521 0.44895 0.0
C268 C 0.59575 1.01648 0.31797 0.0
C269 C 0.58077 0.03688 0.33364 0.0
C270 C 0.59142 0.99508 0.36637 0.0
C271 C 0.57211 0.9949 0.43162 0.0
C272 C 0.56194 0.03593 0.39878 0.0
N273 N 0.54805 0.97386 0.53826 0.0
C274 C 0.56706 0.97367 0.47808 0.0
C275 C 0.55348 0.93034 0.55989 0.0
C276 C 0.57402 0.9303 0.50287 0.0
C277 C 0.54047 0.95224 0.57583 0.0
C278 C 0.58079 0.95196 0.45972 0.0
H279 H 0.58411 0.91331 0.49061 0.0
O280 O 0.50277 0.98211 0.51808 0.0
O281 O 0.50889 0.03794 0.66599 0.0
O282 O 0.54099 1.02227 0.80776 0.0
O283 O 0.542 0.99225 0.68966 0.0
O284 O 0.49731 1.00169 0.66672 0.0
O285 O 0.50098 1.01729 0.45304 0.0
O286 O 0.5605 0.08803 0.80682 0.0
O287 O 0.555 0.03353 0.64232 0.0
O288 O 0.51831 0.04875 0.50218 0.0
O289 O 0.52708 0.0794 0.61333 0.0
O290 O 0.56815 0.06916 0.6454 0.0
O291 O 0.56315 0.05057 0.8507 0.0
C292 C 0.4931 1.02357 0.69972 0.0
C293 C 0.60039 0.95233 0.39717 0.0
C294 C 0.60572 0.97387 0.35065 0.0
C295 C 0.48995 0.99633 0.46634 0.0
C296 C 0.46337 0.99692 0.48703 0.0
C297 C 0.4512 0.97491 0.50728 0.0
C298 C 0.45042 1.01932 0.49372 0.0
C299 C 0.42532 1.01974 0.51738 0.0
C300 C 0.42663 0.97525 0.53426 0.0
C301 C 0.4137 0.99743 0.53897 0.0
C302 C 0.54397 0.99915 0.77764 0.0
C303 C 0.5715 0.04735 0.61028 0.0
C304 C 0.57383 0.07203 0.84872 0.0
C305 C 0.60035 0.07236 0.82648 0.0
C306 C 0.61206 0.09476 0.8081 0.0
C307 C 0.61372 0.05028 0.81692 0.0
C308 C 0.63876 0.05046 0.79273 0.0
C309 C 0.63658 0.09504 0.78035 0.0
C310 C 0.64992 0.07313 0.77309 0.0
C311 C 0.52023 0.07218 0.52974 0.0
H312 H 0.46083 0.95744 0.50357 0.0
H313 H 0.4598 0.03643 0.48002 0.0
H314 H 0.41742 0.95819 0.54998 0.0
H315 H 0.39433 0.99684 0.55563 0.0
H316 H 0.60214 0.11204 0.81397 0.0
H317 H 0.60468 0.03288 0.82902 0.0
H318 H 0.64544 0.11239 0.76612 0.0
H319 H 0.66925 0.07417 0.75602 0.0
Gd320 Gd 0.50537 0.54346 0.72064 0.0
Gd321 Gd 0.55638 0.52553 0.56616 0.0
C322 C 0.63332 0.52177 0.69728 0.0
C323 C 0.65466 0.55525 0.62416 0.0
C324 C 0.61217 0.54572 0.58399 0.0
C325 C 0.61188 0.52715 0.64656 0.0
C326 C 0.63387 0.55939 0.56946 0.0
C327 C 0.65437 0.53647 0.68816 0.0
C328 C 0.63328 0.50125 0.75317 0.0
C329 C 0.61263 0.48612 0.75457 0.0
N330 N 0.59122 0.51325 0.65327 0.0
C331 C 0.59182 0.49222 0.70345 0.0
H332 H 0.57632 0.48005 0.70704 0.0
C333 C 0.59331 0.56335 0.4555 0.0
N334 N 0.59196 0.54887 0.53118 0.0
C335 C 0.61424 0.5775 0.43885 0.0
C336 C 0.63446 0.57591 0.49734 0.0
H337 H 0.57788 0.5644 0.40888 0.0
H338 H 0.6708 0.53286 0.72776 0.0
H339 H 0.49017 0.58895 0.57047 0.0
H340 H 0.64933 0.49654 0.79325 0.0
H341 H 0.61261 0.46981 0.79576 0.0
H342 H 0.67136 0.5658 0.61492 0.0
H343 H 0.48137 0.50376 0.86886 0.0
H344 H 0.41556 0.57982 0.49075 0.0
H345 H 0.45488 0.60236 0.48315 0.0
H346 H 0.38779 0.51234 0.66751 0.0
H347 H 0.6148 0.58946 0.3805 0.0
H348 H 0.65079 0.58666 0.48378 0.0
H349 H 0.3909 0.54597 0.55826 0.0
H350 H 0.44281 0.48103 0.89353 0.0
N351 N 0.47201 0.5583 0.63088 0.0
C352 C 0.43113 0.57379 0.53087 0.0
C353 C 0.45326 0.58655 0.52655 0.0
C354 C 0.42923 0.55366 0.58818 0.0
C355 C 0.45013 0.54643 0.63869 0.0
C356 C 0.47347 0.5787 0.57747 0.0
N357 N 0.4684 0.52192 0.7503 0.0
C358 C 0.44839 0.52743 0.69935 0.0
C359 C 0.44418 0.49374 0.83768 0.0
C360 C 0.424 0.49781 0.78096 0.0
C361 C 0.46609 0.50647 0.82278 0.0
C362 C 0.42572 0.51529 0.71233 0.0
H363 H 0.40693 0.48814 0.7931 0.0
O364 O 0.49745 0.54793 0.8663 0.0
O365 O 0.54645 0.54081 0.7056 0.0
O366 O 0.54105 0.49121 0.63328 0.0
O367 O 0.50571 0.50167 0.71674 0.0
O368 O 0.53112 0.52766 0.82518 0.0
O369 O 0.49882 0.57991 0.78096 0.0
O370 O 0.56551 0.51898 0.42238 0.0
O371 O 0.5154 0.52797 0.58188 0.0
O372 O 0.52227 0.57828 0.6629 0.0
O373 O 0.55453 0.5672 0.56434 0.0
O374 O 0.53015 0.53975 0.45964 0.0
O375 O 0.56164 0.48818 0.51219 0.0
C376 C 0.55147 0.53178 0.78309 0.0
C377 C 0.40525 0.52165 0.65922 0.0
C378 C 0.40699 0.54083 0.59728 0.0
C379 C 0.49788 0.57183 0.86457 0.0
C380 C 0.51343 0.58417 0.93505 0.0
C381 C 0.51082 0.57775 0.02738 0.0
C382 C 0.53067 0.6023 0.91185 0.0
C383 C 0.54449 0.61474 0.98057 0.0
C384 C 0.52501 0.58937 0.09563 0.0
C385 C 0.54154 0.60788 0.07282 0.0
C386 C 0.52196 0.48537 0.68502 0.0
C387 C 0.50997 0.53603 0.50328 0.0
C388 C 0.56376 0.49522 0.42756 0.0
C389 C 0.54818 0.48294 0.357 0.0
C390 C 0.55152 0.48867 0.26429 0.0
C391 C 0.53018 0.46558 0.38048 0.0
C392 C 0.51625 0.45327 0.31173 0.0
C393 C 0.53729 0.47716 0.19596 0.0
C394 C 0.51996 0.45945 0.21911 0.0
C395 C 0.53995 0.58381 0.60418 0.0
H396 H 0.49771 0.56377 0.04675 0.0
H397 H 0.53315 0.6069 0.8406 0.0
H398 H 0.52278 0.58441 0.1668 0.0
H399 H 0.55133 0.61735 0.12819 0.0
H400 H 0.56524 0.50203 0.24468 0.0
H401 H 0.52716 0.46147 0.45196 0.0
H402 H 0.54008 0.48159 0.12453 0.0
H403 H 0.51012 0.45001 0.16376 0.0
Gd404 Gd 1.02217 0.5139 0.73101 0.0
Gd405 Gd 0.03772 0.56192 0.56915 0.0
C406 C 0.03622 0.64269 0.67391 0.0
C407 C 1.00247 0.65958 0.58635 0.0
C408 C 1.01465 0.61671 0.56302 0.0
C409 C 0.03244 0.61949 0.62966 0.0
C410 C 1.00007 0.63697 0.53784 0.0
C411 C 1.02053 0.66243 0.65453 0.0
C412 C 0.05635 0.64571 0.73287 0.0
C413 C 0.07276 0.62626 0.74276 0.0
N414 N 0.04747 0.6001 0.6452 0.0
C415 C 0.06823 0.60364 0.69732 0.0
H416 H 0.08123 0.58908 0.70706 0.0
C417 C 0.99986 0.59291 0.43675 0.0
N418 N 1.01339 0.59486 0.51614 0.0
C419 C 0.9848 0.61228 0.40957 0.0
C420 C 0.98451 0.63428 0.46154 0.0
H421 H 1.00031 0.57604 0.39545 0.0
H422 H 1.02291 0.68024 0.68894 0.0
H423 H 0.98017 0.48554 0.58841 0.0
H424 H 0.05989 0.66319 0.76826 0.0
H425 H 0.08884 0.62858 0.78603 0.0
H426 H 0.99122 0.67525 0.56891 0.0
H427 H 0.06432 0.50535 0.8944 0.0
H428 H 0.99754 0.40916 0.56693 0.0
H429 H 0.97151 0.44441 0.52522 0.0
H430 H 0.06426 0.40021 0.77789 0.0
H431 H 0.97359 0.61027 0.34827 0.0
H432 H 0.97308 0.6494 0.4398 0.0
H433 H 0.0323 0.39291 0.66051 0.0
H434 H 0.08916 0.47156 0.95659 0.0
N435 N 1.0117 0.47472 0.66566 0.0
C436 C 1.00156 0.42737 0.59555 0.0
C437 C 0.98681 0.4472 0.57206 0.0
C438 C 1.02094 0.43116 0.65746 0.0
C439 C 0.02552 0.4553 0.69227 0.0
C440 C 0.9919 0.47073 0.60882 0.0
N441 N 0.04684 0.48258 0.79214 0.0
C442 C 0.04364 0.45938 0.75752 0.0
C443 C 0.07652 0.46787 0.9003 0.0
C444 C 0.07435 0.4441 0.86207 0.0
C445 C 0.06238 0.48693 0.86505 0.0
C446 C 0.05753 0.43952 0.79072 0.0
H447 H 0.0853 0.42934 0.88954 0.0
O448 O 1.01604 0.51237 0.87782 0.0
O449 O 1.02355 0.55489 0.71002 0.0
O450 O 0.07155 0.54988 0.65194 0.0
O451 O 0.06318 0.51056 0.70303 0.0
O452 O 0.03896 0.54209 0.82951 0.0
O453 O 0.9853 0.50826 0.78357 0.0
O454 O 0.04624 0.56797 0.42594 0.0
O455 O 0.03525 0.52142 0.59032 0.0
O456 O 0.98738 0.52425 0.65166 0.0
O457 O 0.99593 0.55942 0.56819 0.0
O458 O 1.02378 0.53339 0.46439 0.0
O459 O 0.07567 0.56534 0.52481 0.0
C460 C 0.03345 0.56161 0.78581 0.0
C461 C 0.05366 0.41566 0.7538 0.0
C462 C 0.03544 0.4115 0.68709 0.0
C463 C 0.99227 0.51192 0.86892 0.0
C464 C 0.97892 0.53052 0.92527 0.0
C465 C 0.98519 0.53394 0.0184 0.0
C466 C 0.96009 0.54488 0.8877 0.0
C467 C 0.94651 0.56149 0.9437 0.0
C468 C 0.97267 0.55115 0.07351 0.0
C469 C 0.9533 0.56459 0.03711 0.0
C470 C 0.07884 0.52864 0.68647 0.0
C471 C 0.02711 0.5141 0.5125 0.0
C472 C 0.06971 0.5653 0.43798 0.0
C473 C 0.08173 0.54701 0.37613 0.0
C474 C 0.07492 0.54564 0.28296 0.0
C475 C 0.09972 0.53078 0.4088 0.0
C476 C 0.11157 0.51393 0.3483 0.0
C477 C 0.08592 0.52849 0.22319 0.0
C478 C 0.10423 0.51294 0.25503 0.0
C479 C 0.98052 0.5424 0.59774 0.0
H480 H 0.99975 0.52321 0.04867 0.0
H481 H 0.95576 0.5428 0.81536 0.0
H482 H 0.97751 0.55356 0.14548 0.0
H483 H 0.94307 0.57659 0.08379 0.0
H484 H 0.06107 0.5579 0.25629 0.0
H485 H 0.1047 0.53151 0.48097 0.0
H486 H 0.08065 0.52765 0.15131 0.0
H487 H 0.11325 0.50088 0.20509 0.0
H488 H 0.21387 0.0354 0.24842 0.0
H489 H 0.16588 0.07334 0.06239 0.0
H490 H 0.18033 0.03375 0.36065 0.0
H491 H 0.13254 0.07092 0.17259 0.0
H492 H 0.07069 0.03721 0.34669 0.0
H493 H 0.10491 0.04032 0.23924 0.0
H494 H 0.15353 0.05972 0.46434 0.0
H495 H 0.11917 0.05732 0.57129 0.0
C496 C 0.19636 0.04356 0.23124 0.0
C497 C 0.19285 0.05416 0.14464 0.0
C498 C 0.17699 0.04252 0.2958 0.0
C499 C 0.15342 0.05188 0.27573 0.0
C500 C 0.15012 0.06296 0.19023 0.0
C501 C 0.16944 0.06426 0.12646 0.0
C502 C 0.08862 0.0421 0.37387 0.0
C503 C 0.09201 0.04624 0.46929 0.0
C504 C 0.10836 0.044 0.31173 0.0
C505 C 0.13228 0.05 0.34261 0.0
C506 C 0.13562 0.05451 0.4377 0.0
C507 C 0.11579 0.05295 0.49961 0.0
H508 H 0.49134 0.15603 0.03368 0.0
H509 H 0.52158 0.21002 0.22656 0.0
H510 H 0.49441 0.12481 0.14805 0.0
H511 H 0.52215 0.17931 0.34453 0.0
H512 H 0.54615 0.11469 0.51396 0.0
H513 H 0.54196 0.14632 0.40058 0.0
H514 H 0.48111 0.10613 0.27652 0.0
H515 H 0.48655 0.07371 0.38816 0.0
C516 C 0.49865 0.16144 0.1005 0.0
C517 C 0.50667 0.18585 0.11888 0.0
C518 C 0.49992 0.14338 0.16763 0.0
C519 C 0.50871 0.14905 0.257 0.0
C520 C 0.51585 0.17369 0.27652 0.0
C521 C 0.51507 0.19167 0.20862 0.0
C522 C 0.53168 0.11275 0.4631 0.0
C523 C 0.51651 0.09177 0.46097 0.0
C524 C 0.52915 0.13107 0.3976 0.0
C525 C 0.51101 0.12934 0.32827 0.0
C526 C 0.49564 0.10828 0.32697 0.0
C527 C 0.49857 0.08963 0.39163 0.0
H528 H 0.35704 0.52663 0.29551 0.0
H529 H 0.40346 0.5339 0.05739 0.0
H530 H 0.39384 0.52346 0.39333 0.0
H531 H 0.43983 0.53082 0.15398 0.0
H532 H 0.49573 0.56266 0.35904 0.0
H533 H 0.45855 0.55923 0.26656 0.0
H534 H 0.43322 0.49973 0.43328 0.0
H535 H 0.47115 0.50314 0.5263 0.0
C536 C 0.37502 0.52698 0.26364 0.0
C537 C 0.37715 0.53086 0.16841 0.0
C538 C 0.39616 0.52525 0.31984 0.0
C539 C 0.41996 0.52742 0.28222 0.0
C540 C 0.42193 0.5297 0.18621 0.0
C541 C 0.40097 0.53136 0.13049 0.0
C542 C 0.48224 0.54884 0.37635 0.0
C543 C 0.48615 0.53369 0.45191 0.0
C544 C 0.46089 0.54675 0.32277 0.0
C545 C 0.44266 0.52917 0.34183 0.0
C546 C 0.44666 0.51365 0.41687 0.0
C547 C 0.46833 0.51565 0.47047 0.0
H548 H 0.99476 0.3813 0.17595 0.0
H549 H 0.07257 0.37572 0.22442 0.0
H550 H 0.9925 0.41685 0.28168 0.0
H551 H 0.07085 0.41232 0.32724 0.0
H552 H 0.05846 0.47468 0.54635 0.0
H553 H 0.0601 0.43461 0.46325 0.0
H554 H 1.00114 0.45811 0.2865 0.0
H555 H 0.99894 0.49703 0.37203 0.0
C556 C 1.0114 0.38756 0.21028 0.0
C557 C 0.03378 0.37545 0.19212 0.0
C558 C 1.01025 0.40833 0.27021 0.0
C559 C 0.03158 0.41827 0.31269 0.0
C560 C 0.0539 0.40546 0.29714 0.0
C561 C 0.05495 0.38434 0.23799 0.0
C562 C 0.04552 0.47092 0.49106 0.0
C563 C 0.02801 0.48883 0.46799 0.0
C564 C 0.04665 0.44801 0.44216 0.0
C565 C 0.03051 0.44248 0.36786 0.0
C566 C 1.01342 0.46084 0.34448 0.0
C567 C 1.01225 0.48348 0.39335 0.0
H568 H 0.897 0.99128 0.24244 0.0
H569 H 0.85059 0.03278 0.06197 0.0
H570 H 0.93045 0.99339 0.13255 0.0
H571 H 0.88424 0.0344 0.95026 0.0
H572 H 0.94462 1.01322 0.736 0.0
H573 H 0.91014 1.01001 0.84211 0.0
H574 H 0.95945 1.02256 0.07131 0.0
H575 H 0.99382 0.02616 0.96517 0.0
C576 C 0.89384 1.00106 0.1796 0.0
C577 C 0.87086 1.01223 0.16285 0.0
C578 C 0.91322 1.00222 0.11602 0.0
C579 C 0.91041 1.01432 0.03224 0.0
C580 C 0.88721 1.02478 0.01361 0.0
C581 C 0.86778 1.02381 0.07789 0.0
C582 C 0.94816 1.01576 0.80871 0.0
C583 C 0.97219 1.02075 0.84072 0.0
C584 C 0.92825 1.0138 0.87004 0.0
C585 C 0.9317 1.01626 0.96597 0.0
C586 C 0.95586 1.02046 0.9982 0.0
C587 C 0.97571 1.02268 0.93681 0.0
H588 H 0.57952 0.9113 0.26097 0.0
H589 H 0.53509 0.86336 0.08647 0.0
H590 H 0.5774 0.94321 0.14711 0.0
H591 H 0.53337 0.89531 0.97136 0.0
H592 H 0.55446 0.94974 0.74869 0.0
H593 H 0.55815 0.91767 0.86101 0.0
H594 H 0.54883 0.97209 0.0803 0.0
H595 H 0.54495 1.00423 0.96737 0.0
C596 C 0.56912 0.90752 0.19861 0.0
C597 C 0.55725 0.88459 0.18411 0.0
C598 C 0.56795 0.92595 0.13291 0.0
C599 C 0.5551 0.92206 0.04973 0.0
C600 C 0.54368 0.89897 0.03405 0.0
C601 C 0.5447 0.88054 0.10023 0.0
C602 C 0.55279 0.95498 0.82033 0.0
C603 C 0.54854 0.97972 0.84751 0.0
C604 C 0.555 0.93645 0.88534 0.0
C605 C 0.55343 0.94205 0.98025 0.0
C606 C 0.55016 0.96693 0.00796 0.0
C607 C 0.54777 0.98545 0.94272 0.0
H608 H 0.69749 0.56338 0.0364 0.0
H609 H 0.6527 0.53006 0.24429 0.0
H610 H 0.66381 0.55806 0.92535 0.0
H611 H 0.61895 0.52655 0.13718 0.0
H612 H 0.56695 0.50184 0.91596 0.0
H613 H 0.60311 0.50526 0.01335 0.0
H614 H 0.62424 0.57181 0.87698 0.0
H615 H 0.58811 0.56744 0.77593 0.0
C616 C 0.6806 0.55486 0.05875 0.0
C617 C 0.67809 0.54737 0.15054 0.0
C618 C 0.66103 0.55215 0.99511 0.0
C619 C 0.63829 0.54186 0.02114 0.0
C620 C 0.63604 0.53416 0.11262 0.0
C621 C 0.65553 0.5366 0.17539 0.0
C622 C 0.57946 0.51708 0.90608 0.0
C623 C 0.57492 0.53398 0.83658 0.0
C624 C 0.60021 0.51927 0.96291 0.0
C625 C 0.61689 0.539 0.9548 0.0
C626 C 0.61222 0.55614 0.88524 0.0
C627 C 0.59146 0.5537 0.8271 0.0
H628 H 1.00053 0.71067 0.03157 0.0
H629 H 0.03832 0.66932 0.23793 0.0
H630 H 1.00552 0.67589 0.92144 0.0
H631 H 0.0416 0.63452 0.13226 0.0
H632 H 0.99709 0.59772 0.77597 0.0
H633 H 0.99304 0.63527 0.87377 0.0
H634 H 0.06133 0.61749 0.00887 0.0
H635 H 0.06441 0.57995 0.91523 0.0
C636 C 1.00998 0.69432 0.05374 0.0
C637 C 1.01879 0.6931 0.14497 0.0
C638 C 1.01253 0.67409 0.99066 0.0
C639 C 1.024 0.65194 0.0166 0.0
C640 C 0.03306 0.65106 0.10744 0.0
C641 C 0.03077 0.67118 0.16953 0.0
C642 C 1.01126 0.60208 0.82621 0.0
C643 C 0.03128 0.58595 0.83675 0.0
C644 C 1.00901 0.62369 0.88254 0.0
C645 C 0.02668 0.62973 0.95118 0.0
C646 C 0.04683 0.61357 0.95958 0.0
C647 C 0.04882 0.59198 0.90479 0.0
H648 H 0.05383 0.2686 0.32547 0.0
H649 H 0.114 0.22921 0.19626 0.0
H650 H 0.05665 0.24256 0.45734 0.0
H651 H 0.1174 0.20331 0.33031 0.0
H652 H 0.04333 0.18313 0.63432 0.0
H653 H 0.07 0.21606 0.58126 0.0
H654 H 0.08457 0.17338 0.33177 0.0
H655 H 0.05765 0.14164 0.38142 0.0
C656 C 0.06867 0.25532 0.32772 0.0
C657 C 0.08303 0.25016 0.24937 0.0
C658 C 0.07042 0.24036 0.40395 0.0
C659 C 0.08651 0.22007 0.40229 0.0
C660 C 0.10425 0.2183 0.332 0.0
C661 C 0.10231 0.23308 0.2552 0.0
C662 C 0.05261 0.18063 0.56885 0.0
C663 C 0.0475 0.16004 0.51079 0.0
C664 C 0.06816 0.19938 0.53915 0.0
C665 C 0.07905 0.19764 0.45148 0.0
C666 C 0.07668 0.17547 0.39994 0.0
C667 C 0.06095 0.15703 0.42872 0.0
H668 H 0.3457 0.11776 0.20231 0.0
H669 H 0.30304 0.057 0.30154 0.0
H670 H 0.3715 0.11671 0.33964 0.0
H671 H 0.32898 0.05533 0.43646 0.0
H672 H 0.38549 0.03603 0.62029 0.0
H673 H 0.35424 0.0649 0.56937 0.0
H674 H 0.40069 0.08393 0.34081 0.0
H675 H 0.43115 0.05524 0.38956 0.0
C676 C 0.34119 0.10492 0.25553 0.0
C677 C 0.32298 0.08691 0.24022 0.0
C678 C 0.35597 0.10426 0.33408 0.0
C679 C 0.35304 0.08523 0.39697 0.0
C680 C 0.33205 0.07011 0.38924 0.0
C681 C 0.31711 0.07097 0.31131 0.0
C682 C 0.38922 0.04685 0.5604 0.0
C683 C 0.41044 0.0425 0.50695 0.0
C684 C 0.37138 0.06356 0.53175 0.0
C685 C 0.37456 0.07622 0.44945 0.0
C686 C 0.39742 0.07458 0.4045 0.0
C687 C 0.41508 0.05785 0.43262 0.0
H688 H 0.43689 0.32924 0.15516 0.0
H689 H 0.50822 0.3103 0.26013 0.0
H690 H 0.43479 0.3642 0.26369 0.0
H691 H 0.50747 0.34592 0.36243 0.0
H692 H 0.52225 0.41883 0.44595 0.0
H693 H 0.50151 0.37949 0.45494 0.0
H694 H 0.45361 0.40008 0.23169 0.0
H695 H 0.47249 0.44013 0.2304 0.0
C696 C 0.45154 0.33185 0.20504 0.0
C697 C 0.473 0.31761 0.1981 0.0
C698 C 0.45067 0.35223 0.26597 0.0
C699 C 0.4717 0.35915 0.31734 0.0
C700 C 0.49102 0.34191 0.32293 0.0
C701 C 0.49151 0.32115 0.26413 0.0
C702 C 0.50654 0.41543 0.40166 0.0
C703 C 0.49978 0.43232 0.33433 0.0
C704 C 0.4948 0.39256 0.40591 0.0
C705 C 0.47666 0.38573 0.3408 0.0
C706 C 0.46769 0.40405 0.28251 0.0
C707 C 0.47896 0.42711 0.28011 0.0
H708 H 0.23976 0.45043 0.18387 0.0
H709 H 0.25021 0.52445 0.29117 0.0
H710 H 0.20807 0.4436 0.2987 0.0
H711 H 0.21752 0.51895 0.39943 0.0
H712 H 0.14587 0.5263 0.48309 0.0
H713 H 0.18701 0.51014 0.4938 0.0
H714 H 0.16893 0.45419 0.28642 0.0
H715 H 0.12716 0.4682 0.28583 0.0
C716 C 0.2358 0.46493 0.23444 0.0
C717 C 0.24678 0.48817 0.2275 0.0
C718 C 0.2173 0.46127 0.29939 0.0
C719 C 0.20861 0.48124 0.35442 0.0
C720 C 0.22281 0.50306 0.35761 0.0
C721 C 0.24181 0.50639 0.29489 0.0
C722 C 0.15025 0.50985 0.44271 0.0
C723 C 0.1335 0.49965 0.3782 0.0
C724 C 0.17423 0.50075 0.44772 0.0
C725 C 0.18229 0.48221 0.385 0.0
C726 C 0.16423 0.4692 0.33355 0.0
C727 C 0.14005 0.47764 0.33138 0.0
H728 H 0.95374 0.84218 0.08197 0.0
H729 H 1.01925 0.80507 0.98563 0.0
H730 H 0.95273 0.86602 0.94202 0.0
H731 H 1.01925 0.82956 0.84901 0.0
H732 H 0.03685 0.88675 0.67425 0.0
H733 H 1.00982 0.85304 0.71712 0.0
H734 H 0.98085 0.89875 0.94008 0.0
H735 H 1.00766 0.93141 0.89978 0.0
C736 C 0.96736 0.8385 0.02901 0.0
C737 C 0.98703 0.82249 0.04523 0.0
C738 C 0.96684 0.85213 0.94894 0.0
C739 C 0.98659 0.85066 0.88644 0.0
C740 C 1.00386 0.83155 0.8958 0.0
C741 C 1.00404 0.81754 0.9748 0.0
C742 C 0.02423 0.88971 0.73104 0.0
C743 C 0.02536 0.91143 0.78616 0.0
C744 C 1.00857 0.87046 0.75503 0.0
C745 C 0.99382 0.87273 0.83433 0.0
C746 C 0.99198 0.89599 0.87897 0.0
C747 C 1.00768 0.91502 0.85566 0.0
H748 H 0.76106 1.01204 1.00559 0.0
H749 H 0.71809 0.95078 0.0988 0.0
H750 H 0.73556 1.01437 0.86976 0.0
H751 H 0.69286 0.95235 0.96009 0.0
H752 H 0.67891 0.03542 0.68871 0.0
H753 H 0.71028 1.00619 0.73628 0.0
H754 H 0.66375 0.98493 0.9617 0.0
H755 H 0.63333 1.01396 0.91675 0.0
C756 C 0.74702 0.99811 0.99423 0.0
C757 C 0.74089 0.98184 0.06396 0.0
C758 C 0.73235 0.99933 0.9157 0.0
C759 C 0.71141 0.98423 0.90603 0.0
C760 C 0.70834 0.96483 0.9673 0.0
C761 C 0.72278 0.96387 0.04664 0.0
C762 C 0.67523 1.02406 0.74724 0.0
C763 C 0.65396 0.02783 0.80095 0.0
C764 C 0.69312 1.00714 0.77389 0.0
C765 C 0.68992 0.99367 0.85438 0.0
C766 C 0.66705 0.99486 0.8993 0.0
C767 C 0.64939 1.01181 0.87334 0.0
H768 H 0.54948 0.75855 0.03647 0.0
H769 H 0.62226 0.74116 0.13103 0.0
H770 H 0.54985 0.72277 0.93487 0.0
H771 H 0.62386 0.70601 0.02321 0.0
H772 H 0.58815 0.62917 0.05988 0.0
H773 H 0.60584 0.6698 0.05846 0.0
H774 H 0.55595 0.68954 0.84019 0.0
H775 H 0.53639 0.64962 0.84967 0.0
C776 C 0.56635 0.74802 0.03014 0.0
C777 C 0.58551 0.75206 0.0931 0.0
C778 C 0.56662 0.72717 0.97177 0.0
C779 C 0.58635 0.71034 0.97472 0.0
C780 C 0.60775 0.7177 0.02297 0.0
C781 C 0.60714 0.7382 0.0834 0.0
C782 C 0.58098 0.64213 0.01127 0.0
C783 C 0.56002 0.63642 0.9584 0.0
C784 C 0.59155 0.66552 0.00874 0.0
C785 C 0.58176 0.68369 0.95162 0.0
C786 C 0.56335 0.67654 0.88812 0.0
C787 C 0.55229 0.65333 0.89259 0.0
H788 H 0.8108 0.53694 0.99822 0.0
H789 H 0.81126 0.61361 0.08197 0.0
H790 H 0.8429 0.54418 0.8889 0.0
H791 H 0.84253 0.62186 0.96668 0.0
H792 H 0.91442 0.54357 0.80995 0.0
H793 H 0.8721 0.5553 0.791 0.0
H794 H 0.88274 0.61555 0.98847 0.0
H795 H 0.92579 0.60609 0.99597 0.0
C796 C 0.81678 0.55575 0.98849 0.0
C797 C 0.8092 0.57459 0.0495 0.0
C798 C 0.83541 0.5601 0.92529 0.0
C799 C 0.84676 0.58349 0.92235 0.0
C800 C 0.8354 0.60331 0.97068 0.0
C801 C 0.81712 0.59877 0.03569 0.0
C802 C 0.90822 0.56015 0.84567 0.0
C803 C 0.92341 0.57296 0.90934 0.0
C804 C 0.88354 0.56665 0.83607 0.0
C805 C 0.87317 0.58506 0.89408 0.0
C806 C 0.88938 0.60055 0.94479 0.0
C807 C 0.91429 0.59474 0.95109 0.0
H808 H 0.08765 0.20741 0.95378 0.0
H809 H 1.01193 0.22897 0.92263 0.0
H810 H 0.07917 0.16813 0.8769 0.0
H811 H 1.00353 0.1899 0.83966 0.0
H812 H 0.98888 0.10657 0.79986 0.0
H813 H 0.99734 0.14807 0.86015 0.0
H814 H 0.07095 0.14333 0.74953 0.0
H815 H 0.06246 0.10133 0.69243 0.0
C816 C 0.06916 0.20399 0.92884 0.0
C817 C 0.05045 0.22155 0.94624 0.0
C818 C 0.06429 0.18128 0.88347 0.0
C819 C 0.04049 0.17514 0.85201 0.0
C820 C 1.02201 0.19334 0.86441 0.0
C821 C 0.02689 0.21612 0.91081 0.0
C822 C 1.00695 0.11436 0.78903 0.0
C823 C 0.02518 0.10022 0.74359 0.0
C824 C 1.01179 0.13845 0.82283 0.0
C825 C 0.03497 0.1496 0.81101 0.0
C826 C 0.05302 0.13557 0.76276 0.0
C827 C 0.0482 0.11133 0.72964 0.0
H828 H 0.36424 0.09621 0.94403 0.0
H829 H 0.33934 1.02156 0.89571 0.0
H830 H 0.40281 0.08661 0.86657 0.0
H831 H 0.37786 1.01198 0.81448 0.0
H832 H 0.46122 0.99511 0.79384 0.0
H833 H 0.41995 1.00497 0.84895 0.0
H834 H 0.42558 0.07697 0.73133 0.0
H835 H 0.46719 0.06697 0.67732 0.0
C836 C 0.36677 0.07779 0.91496 0.0
C837 C 0.34853 0.05965 0.92712 0.0
C838 C 0.38901 0.07227 0.86979 0.0
C839 C 0.39397 0.04836 0.83458 0.0
C840 C 0.37514 0.03051 0.8421 0.0
C841 C 0.35276 0.03607 0.88752 0.0
C842 C 0.45366 1.0131 0.77999 0.0
C843 C 0.46791 0.03051 0.73376 0.0
C844 C 0.42977 1.01872 0.81088 0.0
C845 C 0.41907 0.0419 0.79564 0.0
C846 C 0.43313 0.05909 0.7465 0.0
C847 C 0.4571 0.05341 0.71552 0.0
H848 H 0.4904 0.32775 0.77965 0.0
H849 H 0.52988 0.35634 0.01684 0.0
H850 H 0.49703 0.36714 0.70215 0.0
H851 H 0.53597 0.3954 0.94116 0.0
H852 H 0.50396 0.46901 0.84757 0.0
H853 H 0.50146 0.42709 0.90141 0.0
H854 H 0.53319 0.39983 0.64662 0.0
H855 H 0.53611 0.44236 0.59289 0.0
C856 C 0.50116 0.34208 0.81395 0.0
C857 C 0.50959 0.33888 0.90449 0.0
C858 C 0.5048 0.3647 0.76994 0.0
C859 C 0.51666 0.38458 0.8162 0.0
C860 C 0.52646 0.38065 0.90406 0.0
C861 C 0.52313 0.35816 0.94717 0.0
C862 C 0.50987 0.45421 0.80173 0.0
C863 C 0.51957 0.45924 0.7146 0.0
C864 C 0.50876 0.43007 0.83326 0.0
C865 C 0.51708 0.41002 0.77838 0.0
C866 C 0.52645 0.41482 0.69038 0.0
C867 C 0.52808 0.4392 0.65955 0.0
H868 H 0.22315 0.55293 0.94457 0.0
H869 H 0.22349 0.47528 0.87643 0.0
H870 H 0.18408 0.55737 0.8638 0.0
H871 H 0.18523 0.47961 0.7908 0.0
H872 H 0.10257 0.48707 0.74619 0.0
H873 H 0.14387 0.48338 0.80703 0.0
H874 H 0.1586 0.5589 0.73777 0.0
H875 H 0.11651 0.56294 0.68336 0.0
C876 C 0.21534 0.53696 0.90899 0.0
C877 C 0.22672 0.51382 0.916 0.0
C878 C 0.19271 0.53942 0.86252 0.0
C879 C 0.18075 0.51882 0.82067 0.0
C880 C 0.19307 0.49593 0.82362 0.0
C881 C 0.21543 0.49344 0.87139 0.0
C882 C 0.11438 0.50308 0.74549 0.0
C883 C 0.10549 0.5256 0.71299 0.0
C884 C 0.13856 0.50084 0.77897 0.0
C885 C 0.15515 0.5209 0.77918 0.0
C886 C 0.14657 0.54309 0.74199 0.0
C887 C 0.12223 0.5454 0.70977 0.0
H888 H 0.04638 0.84019 0.4064 0.0
H889 H 0.97504 0.86799 0.33266 0.0
H890 H 0.05495 0.8789 0.49193 0.0
H891 H 0.98381 0.90673 0.41404 0.0
H892 H 0.99943 0.97159 0.61272 0.0
H893 H 0.98953 0.93023 0.55121 0.0
H894 H 0.0651 0.92059 0.46698 0.0
H895 H 0.07479 0.96162 0.52948 0.0
C896 C 0.03234 0.85432 0.40954 0.0
C897 C 1.01005 0.85075 0.36156 0.0
C898 C 0.03738 0.87683 0.45757 0.0
C899 C 1.02028 0.89652 0.45963 0.0
C900 C 0.99753 0.89231 0.41549 0.0
C901 C 0.99253 0.86994 0.36781 0.0
C902 C 1.01384 0.96069 0.58028 0.0
C903 C 0.03779 0.97033 0.57396 0.0
C904 C 1.00822 0.93682 0.54489 0.0
C905 C 0.02641 0.92164 0.50285 0.0
C906 C 0.05049 0.93123 0.4992 0.0
C907 C 0.05605 0.95502 0.5344 0.0
H908 H 0.72502 0.0461 0.41275 0.0
H909 H 0.69828 0.97241 0.35717 0.0
H910 H 0.68666 0.05613 0.49422 0.0
H911 H 0.65986 0.9825 0.43498 0.0
H912 H 0.59592 1.00281 0.6269 0.0
H913 H 0.63714 0.99186 0.57092 0.0
H914 H 0.64482 0.06446 0.45991 0.0
H915 H 0.60397 0.07523 0.51685 0.0
C916 C 0.71121 0.03188 0.41929 0.0
C917 C 0.71491 1.00846 0.37757 0.0
C918 C 0.68893 0.03772 0.46489 0.0
C919 C 0.66963 1.02031 0.47053 0.0
C920 C 0.67402 0.9965 0.43315 0.0
C921 C 0.69617 0.99072 0.38776 0.0
C922 C 0.60635 1.01629 0.58961 0.0
C923 C 0.59625 0.03966 0.57388 0.0
C924 C 0.63012 1.01007 0.55756 0.0
C925 C 0.64467 0.02717 0.50991 0.0
C926 C 0.63463 0.05076 0.49686 0.0
C927 C 0.61096 0.0569 0.52876 0.0
H928 H 0.52914 0.71461 0.28393 0.0
H929 H 0.57337 0.74119 0.51212 0.0
H930 H 0.52353 0.67534 0.35873 0.0
H931 H 0.56721 0.70162 0.5889 0.0
H932 H 0.52763 0.62664 0.70139 0.0
H933 H 0.53059 0.66938 0.6502 0.0
H934 H 0.55885 0.64289 0.38868 0.0
H935 H 0.55644 0.60072 0.44006 0.0
C936 C 0.53703 0.71233 0.35167 0.0
C937 C 0.55174 0.73108 0.39191 0.0
C938 C 0.53397 0.68972 0.3942 0.0
C939 C 0.54522 0.68517 0.4791 0.0
C940 C 0.55831 0.70456 0.52342 0.0
C941 C 0.56168 0.72729 0.47989 0.0
C942 C 0.53497 0.62999 0.63383 0.0
C943 C 0.54249 0.61007 0.57612 0.0
C944 C 0.53659 0.6545 0.60441 0.0
C945 C 0.54497 0.65958 0.5153 0.0
C946 C 0.55234 0.63967 0.45776 0.0
C947 C 0.55125 0.61539 0.48782 0.0
H948 H 0.82193 0.56663 0.47568 0.0
H949 H 0.85259 0.5243 0.24804 0.0
H950 H 0.86121 0.56275 0.55977 0.0
H951 H 0.89153 0.52125 0.32976 0.0
H952 H 0.96331 0.55903 0.4334 0.0
H953 H 0.9216 0.55939 0.3739 0.0
H954 H 0.89559 0.52597 0.62105 0.0
H955 H 0.93806 0.52501 0.6802 0.0
C956 C 0.8367 0.55597 0.44452 0.0
C957 C 0.834 0.54598 0.35441 0.0
C958 C 0.8593 0.55389 0.49245 0.0
C959 C 0.87972 0.54202 0.45087 0.0
C960 C 0.87639 0.53079 0.36348 0.0
C961 C 0.85394 0.53251 0.31667 0.0
C962 C 0.94886 0.55232 0.47663 0.0
C963 C 0.95433 0.54286 0.56349 0.0
C964 C 0.92479 0.55224 0.44175 0.0
C965 C 0.90506 0.54295 0.49281 0.0
C966 C 0.91025 0.53359 0.58024 0.0
C967 C 0.93464 0.53311 0.61428 0.0
loop_
_geom_bond_atom_site_label_1
_geom_bond_atom_site_label_2
_geom_bond_distance
_geom_bond_site_symmetry_2
_ccdc_geom_bond_type
H0 C1 0.949 . S
C1 H0 0.949 . S
C1 C2 1.395 . S
C1 C3 1.391 . S
C2 C1 1.395 . S
C2 C5 1.390 . S
C3 C1 1.391 . S
C3 C7 1.387 . S
C3 C8 1.491 . S
H4 C5 0.950 . S
C5 C2 1.390 . S
C5 H4 0.950 . S
C5 C6 1.378 . S
C6 C5 1.378 . S
C6 C7 1.409 . S
C7 C3 1.387 . S
C7 C6 1.409 . S
C7 H9 0.951 . S
C8 C3 1.491 . S
C8 C10 1.382 . S
C8 C12 1.404 . S
H9 C7 0.951 . S
C10 C8 1.382 . S
C10 C11 1.390 . S
C10 H15 0.949 . S
C11 C10 1.390 . S
C11 C16 1.399 . S
C12 C8 1.404 . S
C12 H13 0.950 . S
C12 C14 1.375 . S
H13 C12 0.950 . S
C14 C12 1.375 . S
C14 C16 1.382 . S
C14 H18 0.950 . S
H15 C10 0.949 . S
C16 C11 1.399 . S
C16 C14 1.382 . S
C16 H17 0.952 . S
H17 C16 0.952 . S
H18 C14 0.950 . S
H19 C20 0.949 . S
C20 H19 0.949 . S
C20 C21 1.395 . S
C20 C22 1.391 . S
C21 C20 1.395 . S
C21 C24 1.390 . S
C22 C20 1.391 . S
C22 C26 1.387 . S
C22 C27 1.491 . S
H23 C24 0.950 . S
C24 C21 1.390 . S
C24 H23 0.950 . S
C24 C25 1.378 . S
C25 C24 1.378 . S
C25 C26 1.409 . S
C26 C22 1.387 . S
C26 C25 1.409 . S
C26 H28 0.951 . S
C27 C22 1.491 . S
C27 C29 1.382 . S
C27 C31 1.404 . S
H28 C26 0.951 . S
C29 C27 1.382 . S
C29 C30 1.390 . S
C29 H34 0.949 . S
C30 C29 1.390 . S
C30 C35 1.399 . S
C31 C27 1.404 . S
C31 H32 0.950 . S
C31 C33 1.375 . S
H32 C31 0.950 . S
C33 C31 1.375 . S
C33 C35 1.382 . S
C33 H37 0.950 . S
H34 C29 0.949 . S
C35 C30 1.399 . S
C35 C33 1.382 . S
C35 H36 0.952 . S
H36 C35 0.952 . S
H37 C33 0.950 . S
H38 C39 0.949 . S
C39 H38 0.949 . S
C39 C40 1.395 . S
C39 C41 1.391 . S
C40 C39 1.395 . S
C40 C43 1.390 . S
C41 C39 1.391 . S
C41 C45 1.387 . S
C41 C46 1.491 . S
H42 C43 0.950 . S
C43 C40 1.390 . S
C43 H42 0.950 . S
C43 C44 1.378 . S
C44 C43 1.378 . S
C44 C45 1.409 . S
C45 C41 1.387 . S
C45 C44 1.409 . S
C45 H47 0.951 . S
C46 C41 1.491 . S
C46 C48 1.382 . S
C46 C50 1.404 . S
H47 C45 0.951 . S
C48 C46 1.382 . S
C48 C49 1.390 . S
C48 H53 0.949 . S
C49 C48 1.390 . S
C49 C54 1.399 . S
C50 C46 1.404 . S
C50 H51 0.950 . S
C50 C52 1.375 . S
H51 C50 0.950 . S
C52 C50 1.375 . S
C52 C54 1.382 . S
C52 H56 0.950 . S
H53 C48 0.949 . S
C54 C49 1.399 . S
C54 C52 1.382 . S
C54 H55 0.952 . S
H55 C54 0.952 . S
H56 C52 0.950 . S
H57 C58 0.949 . S
C58 H57 0.949 . S
C58 C59 1.395 . S
C58 C60 1.391 . S
C59 C58 1.395 . S
C59 C62 1.390 . S
C60 C58 1.391 . S
C60 C64 1.387 . S
C60 C65 1.491 . S
H61 C62 0.950 . S
C62 C59 1.390 . S
C62 H61 0.950 . S
C62 C63 1.378 . S
C63 C62 1.378 . S
C63 C64 1.409 . S
C64 C60 1.387 . S
C64 C63 1.409 . S
C64 H66 0.951 . S
C65 C60 1.491 . S
C65 C67 1.382 . S
C65 C69 1.404 . S
H66 C64 0.951 . S
C67 C65 1.382 . S
C67 C68 1.390 . S
C67 H72 0.949 . S
C68 C67 1.390 . S
C68 C73 1.399 . S
C69 C65 1.404 . S
C69 H70 0.950 . S
C69 C71 1.375 . S
H70 C69 0.950 . S
C71 C69 1.375 . S
C71 C73 1.382 . S
C71 H75 0.950 . S
H72 C67 0.949 . S
C73 C68 1.399 . S
C73 C71 1.382 . S
C73 H74 0.952 . S
H74 C73 0.952 . S
H75 C71 0.950 . S
H76 C77 0.949 . S
C77 H76 0.949 . S
C77 C78 1.395 . S
C77 C79 1.391 1_554 S
C78 C77 1.395 . S
C78 C81 1.390 1_554 S
C79 C77 1.391 1_556 S
C79 C83 1.387 . S
C79 C84 1.491 . S
H80 C81 0.950 . S
C81 C78 1.390 1_556 S
C81 H80 0.950 . S
C81 C82 1.378 . S
C82 C81 1.378 . S
C82 C83 1.409 . S
C83 C79 1.387 . S
C83 C82 1.409 . S
C83 H85 0.951 . S
C84 C79 1.491 . S
C84 C86 1.382 1_556 S
C84 C88 1.404 . S
H85 C83 0.951 . S
C86 C84 1.382 1_554 S
C86 C87 1.390 . S
C86 H91 0.949 . S
C87 C86 1.390 . S
C87 C92 1.399 1_554 S
C88 C84 1.404 . S
C88 H89 0.950 . S
C88 C90 1.375 . S
H89 C88 0.950 . S
C90 C88 1.375 . S
C90 C92 1.382 . S
C90 H94 0.950 . S
H91 C86 0.949 . S
C92 C87 1.399 1_556 S
C92 C90 1.382 . S
C92 H93 0.952 . S
H93 C92 0.952 . S
H94 C90 0.950 . S
H95 C96 0.949 . S
C96 H95 0.949 . S
C96 C97 1.395 . S
C96 C98 1.391 1_554 S
C97 C96 1.395 . S
C97 C100 1.390 1_554 S
C98 C96 1.391 1_556 S
C98 C102 1.387 . S
C98 C103 1.491 . S
H99 C100 0.950 . S
C100 C97 1.390 1_556 S
C100 H99 0.950 . S
C100 C101 1.378 . S
C101 C100 1.378 . S
C101 C102 1.409 . S
C102 C98 1.387 . S
C102 C101 1.409 . S
C102 H104 0.951 . S
C103 C98 1.491 . S
C103 C105 1.382 1_556 S
C103 C107 1.404 . S
H104 C102 0.951 . S
C105 C103 1.382 1_554 S
C105 C106 1.390 . S
C105 H110 0.949 . S
C106 C105 1.390 . S
C106 C111 1.399 1_554 S
C107 C103 1.404 . S
C107 H108 0.950 . S
C107 C109 1.375 . S
H108 C107 0.950 . S
C109 C107 1.375 . S
C109 C111 1.382 . S
C109 H113 0.950 . S
H110 C105 0.949 . S
C111 C106 1.399 1_556 S
C111 C109 1.382 . S
C111 H112 0.952 . S
H112 C111 0.952 . S
H113 C109 0.950 . S
H114 C115 0.949 . S
C115 H114 0.949 . S
C115 C116 1.395 . S
C115 C117 1.391 1_554 S
C116 C115 1.395 . S
C116 C119 1.390 1_554 S
C117 C115 1.391 1_556 S
C117 C121 1.387 . S
C117 C122 1.491 . S
H118 C119 0.950 . S
C119 C116 1.390 1_556 S
C119 H118 0.950 . S
C119 C120 1.378 . S
C120 C119 1.378 . S
C120 C121 1.409 . S
C121 C117 1.387 . S
C121 C120 1.409 . S
C121 H123 0.951 . S
C122 C117 1.491 . S
C122 C124 1.382 1_556 S
C122 C126 1.404 . S
H123 C121 0.951 . S
C124 C122 1.382 1_554 S
C124 C125 1.390 . S
C124 H129 0.949 . S
C125 C124 1.390 . S
C125 C130 1.399 1_554 S
C126 C122 1.404 . S
C126 H127 0.950 . S
C126 C128 1.375 . S
H127 C126 0.950 . S
C128 C126 1.375 . S
C128 C130 1.382 . S
C128 H132 0.950 . S
H129 C124 0.949 . S
C130 C125 1.399 1_556 S
C130 C128 1.382 . S
C130 H131 0.952 . S
H131 C130 0.952 . S
H132 C128 0.950 . S
H133 C134 0.949 . S
C134 H133 0.949 . S
C134 C135 1.395 . S
C134 C136 1.391 1_554 S
C135 C134 1.395 . S
C135 C138 1.390 1_554 S
C136 C134 1.391 1_556 S
C136 C140 1.387 . S
C136 C141 1.491 . S
H137 C138 0.950 . S
C138 C135 1.390 1_556 S
C138 H137 0.950 . S
C138 C139 1.378 . S
C139 C138 1.378 . S
C139 C140 1.409 . S
C140 C136 1.387 . S
C140 C139 1.409 . S
C140 H142 0.951 . S
C141 C136 1.491 . S
C141 C143 1.382 1_556 S
C141 C145 1.404 . S
H142 C140 0.951 . S
C143 C141 1.382 1_554 S
C143 C144 1.390 . S
C143 H148 0.949 . S
C144 C143 1.390 . S
C144 C149 1.399 1_554 S
C145 C141 1.404 . S
C145 H146 0.950 . S
C145 C147 1.375 . S
H146 C145 0.950 . S
C147 C145 1.375 . S
C147 C149 1.382 . S
C147 H151 0.950 . S
H148 C143 0.949 . S
C149 C144 1.399 1_556 S
C149 C147 1.382 . S
C149 H150 0.952 . S
H150 C149 0.952 . S
H151 C147 0.950 . S
Gd152 N183 2.661 . S
Gd152 N189 2.601 . S
Gd152 O196 2.545 . S
Gd152 O197 2.606 1_655 S
Gd152 O199 2.429 . S
Gd152 O200 2.545 1_655 S
Gd152 O201 2.413 . S
Gd152 O203 2.362 1_545 S
Gd152 O204 2.324 1_655 S
Gd152 C211 2.828 . S
Gd153 N162 2.661 1_565 S
Gd153 N166 2.601 1_565 S
Gd153 O197 2.362 1_565 S
Gd153 O198 2.324 1_455 S
Gd153 O202 2.545 . S
Gd153 O203 2.606 1_455 S
Gd153 O205 2.436 . S
Gd153 O206 2.545 . S
Gd153 O207 2.412 . S
Gd153 C220 2.828 . S
C154 C157 1.417 1_554 S
C154 C159 1.431 . S
C154 C160 1.412 . S
C155 C158 1.437 1_554 S
C155 C159 1.317 . S
C155 H174 0.929 . S
C156 C157 1.426 . S
C156 C158 1.413 . S
C156 N166 1.359 . S
C157 C154 1.417 1_556 S
C157 C156 1.426 . S
C157 N162 1.350 . S
C158 C155 1.437 1_556 S
C158 C156 1.413 . S
C158 C168 1.391 . S
C159 C154 1.431 . S
C159 C155 1.317 . S
C159 H170 0.930 . S
C160 C154 1.412 . S
C160 C161 1.349 1_554 S
C160 H172 0.930 . S
C161 C160 1.349 1_556 S
C161 C163 1.413 . S
C161 H173 0.926 1_456 S
N162 Gd153 2.661 1_545 S
N162 C157 1.350 . S
N162 C163 1.307 . S
C163 C161 1.413 . S
C163 N162 1.307 . S
C163 H164 0.930 1_455 S
H164 C163 0.930 1_655 S
C165 N166 1.334 1_565 S
C165 C167 1.394 . S
C165 H169 0.930 . S
N166 Gd153 2.601 1_545 S
N166 C156 1.359 . S
N166 C165 1.334 1_545 S
C167 C165 1.394 . S
C167 C168 1.359 1_565 S
C167 H179 0.930 . S
C168 C158 1.391 . S
C168 C167 1.359 1_545 S
C168 H180 0.929 . S
H169 C165 0.930 . S
H170 C159 0.930 . S
H171 C188 0.930 . S
H172 C160 0.930 . S
H173 C161 0.926 1_654 S
H174 C155 0.929 . S
H175 C193 0.930 . S
H176 C184 0.930 . S
H177 C185 0.930 . S
H178 C209 0.929 . S
H179 C167 0.930 . S
H180 C168 0.929 . S
H181 C210 0.930 . S
H182 C191 0.930 . S
N183 Gd152 2.661 . S
N183 C187 1.350 1_545 S
N183 C188 1.307 1_645 S
C184 H176 0.930 . S
C184 C185 1.355 1_655 S
C184 C186 1.412 . S
C185 H177 0.930 . S
C185 C184 1.355 1_455 S
C185 C188 1.402 . S
C186 C184 1.412 . S
C186 C187 1.417 . S
C186 C210 1.431 . S
C187 N183 1.350 1_565 S
C187 C186 1.417 . S
C187 C190 1.426 1_565 S
C188 H171 0.930 . S
C188 N183 1.307 1_465 S
C188 C185 1.402 . S
N189 Gd152 2.601 . S
N189 C190 1.359 . S
N189 C193 1.334 . S
C190 C187 1.426 1_545 S
C190 N189 1.359 . S
C190 C194 1.413 . S
C191 H182 0.930 . S
C191 C192 1.359 . S
C191 C193 1.394 . S
C192 C191 1.359 . S
C192 C194 1.391 . S
C192 H195 0.929 . S
C193 H175 0.930 . S
C193 N189 1.334 . S
C193 C191 1.394 . S
C194 C190 1.413 . S
C194 C192 1.391 . S
C194 C209 1.437 1_545 S
H195 C192 0.929 . S
O196 Gd152 2.545 . S
O196 C211 1.258 . S
O197 Gd152 2.606 1_455 S
O197 Gd153 2.362 1_545 S
O197 C208 1.284 . S
O198 Gd153 2.324 1_655 S
O198 C218 1.253 1_565 S
O199 Gd152 2.429 . S
O199 C218 1.268 . S
O200 Gd152 2.545 1_455 S
O200 C208 1.250 . S
O201 Gd152 2.413 . S
O201 C211 1.254 . S
O202 Gd153 2.545 . S
O202 C220 1.258 . S
O203 Gd152 2.362 1_565 S
O203 Gd153 2.606 1_655 S
O203 C219 1.284 . S
O204 Gd152 2.324 1_455 S
O204 C227 1.254 . S
O205 Gd153 2.436 . S
O205 C227 1.241 1_565 S
O206 Gd153 2.545 . S
O206 C219 1.250 1_455 S
O207 Gd153 2.412 . S
O207 C220 1.252 . S
C208 O197 1.284 . S
C208 O200 1.250 . S
C209 H178 0.929 . S
C209 C194 1.437 1_565 S
C209 C210 1.317 . S
C210 H181 0.930 . S
C210 C186 1.431 . S
C210 C209 1.317 . S
C211 Gd152 2.828 . S
C211 O196 1.258 . S
C211 O201 1.254 . S
C211 C212 1.497 . S
C212 C211 1.497 . S
C212 C213 1.395 . S
C212 C214 1.373 1_655 S
C213 C212 1.395 . S
C213 C216 1.398 . S
C213 H228 0.930 . S
C214 C212 1.373 1_455 S
C214 C215 1.390 1_455 S
C214 H229 0.938 . S
C215 C214 1.390 1_655 S
C215 C217 1.387 . S
C216 C213 1.398 . S
C216 C217 1.380 . S
C216 H230 0.930 . S
C217 C215 1.387 . S
C217 C216 1.380 . S
C217 H231 0.930 . S
C218 O198 1.253 1_545 S
C218 O199 1.268 . S
C219 O203 1.284 . S
C219 O206 1.250 1_655 S
C220 Gd153 2.828 . S
C220 O202 1.258 . S
C220 O207 1.252 . S
C220 C221 1.497 . S
C221 C220 1.497 . S
C221 C222 1.395 . S
C221 C223 1.380 . S
C222 C221 1.395 . S
C222 C225 1.398 . S
C222 H232 0.930 . S
C223 C221 1.380 . S
C223 C224 1.391 . S
C223 H233 0.930 1_455 S
C224 C223 1.391 . S
C224 C226 1.387 1_556 S
C225 C222 1.398 . S
C225 C226 1.380 1_556 S
C225 H234 0.930 . S
C226 C224 1.387 1_554 S
C226 C225 1.380 1_554 S
C226 H235 0.930 . S
C227 O204 1.254 . S
C227 O205 1.241 1_545 S
H228 C213 0.930 . S
H229 C214 0.938 . S
H230 C216 0.930 . S
H231 C217 0.930 . S
H232 C222 0.930 . S
H233 C223 0.930 1_655 S
H234 C225 0.930 . S
H235 C226 0.930 . S
Gd236 N267 2.661 . S
Gd236 N273 2.601 . S
Gd236 O280 2.545 . S
Gd236 O281 2.606 1_565 S
Gd236 O283 2.429 . S
Gd236 O284 2.545 1_565 S
Gd236 O285 2.412 1_565 S
Gd236 O287 2.357 1_565 S
Gd236 O288 2.324 1_565 S
Gd236 C295 2.828 . S
Gd237 N246 2.661 . S
Gd237 N250 2.601 . S
Gd237 O281 2.362 . S
Gd237 O282 2.324 1_545 S
Gd237 O286 2.545 . S
Gd237 O287 2.625 . S
Gd237 O289 2.429 . S
Gd237 O290 2.545 . S
Gd237 O291 2.412 . S
Gd237 C304 2.828 . S
C238 C241 1.417 1_554 S
C238 C243 1.431 . S
C238 C244 1.412 . S
C239 C242 1.437 1_554 S
C239 C243 1.317 . S
C239 H258 0.929 . S
C240 C241 1.426 . S
C240 C242 1.413 . S
C240 N250 1.359 . S
C241 C238 1.417 1_556 S
C241 C240 1.426 . S
C241 N246 1.350 . S
C242 C239 1.437 1_556 S
C242 C240 1.413 . S
C242 C252 1.391 . S
C243 C238 1.431 . S
C243 C239 1.317 . S
C243 H254 0.930 . S
C244 C238 1.412 . S
C244 C245 1.355 1_554 S
C244 H256 0.930 . S
C245 C244 1.355 1_556 S
C245 C247 1.402 . S
C245 H257 0.930 1_546 S
N246 Gd237 2.661 . S
N246 C241 1.350 . S
N246 C247 1.307 . S
C247 C245 1.402 . S
C247 N246 1.307 . S
C247 H248 0.930 1_545 S
H248 C247 0.930 1_565 S
C249 N250 1.334 . S
C249 C251 1.394 . S
C249 H253 0.930 . S
N250 Gd237 2.601 . S
N250 C240 1.359 . S
N250 C249 1.334 . S
C251 C249 1.394 . S
C251 C252 1.359 . S
C251 H263 0.930 . S
C252 C242 1.391 . S
C252 C251 1.359 . S
C252 H264 0.929 . S
H253 C249 0.930 . S
H254 C243 0.930 . S
H255 C272 0.930 . S
H256 C244 0.930 . S
H257 C245 0.930 1_564 S
H258 C239 0.929 . S
H259 C277 0.930 . S
H260 C268 0.930 . S
H261 C269 0.930 . S
H262 C293 0.929 . S
H263 C251 0.930 . S
H264 C252 0.929 . S
H265 C294 0.930 . S
H266 C275 0.930 . S
N267 Gd236 2.661 . S
N267 C271 1.350 . S
N267 C272 1.307 1_565 S
C268 H260 0.930 . S
C268 C269 1.355 1_565 S
C268 C270 1.412 . S
C269 H261 0.930 . S
C269 C268 1.355 1_545 S
C269 C272 1.402 . S
C270 C268 1.412 . S
C270 C271 1.417 . S
C270 C294 1.431 . S
C271 N267 1.350 . S
C271 C270 1.417 . S
C271 C274 1.426 . S
C272 H255 0.930 . S
C272 N267 1.307 1_545 S
C272 C269 1.402 . S
N273 Gd236 2.601 . S
N273 C274 1.359 . S
N273 C277 1.334 . S
C274 C271 1.426 . S
C274 N273 1.359 . S
C274 C278 1.413 . S
C275 H266 0.930 . S
C275 C276 1.359 . S
C275 C277 1.394 . S
C276 C275 1.359 . S
C276 C278 1.391 . S
C276 H279 0.929 . S
C277 H259 0.930 . S
C277 N273 1.334 . S
C277 C275 1.394 . S
C278 C274 1.413 . S
C278 C276 1.391 . S
C278 C293 1.437 . S
H279 C276 0.929 . S
O280 Gd236 2.545 . S
O280 C295 1.258 . S
O281 Gd236 2.606 1_545 S
O281 Gd237 2.362 . S
O281 C292 1.284 . S
O282 Gd237 2.324 1_565 S
O282 C302 1.254 . S
O283 Gd236 2.429 . S
O283 C302 1.268 . S
O284 Gd236 2.545 1_545 S
O284 C292 1.250 . S
O285 Gd236 2.412 1_545 S
O285 C295 1.252 1_545 S
O286 Gd237 2.545 . S
O286 C304 1.258 . S
O287 Gd236 2.357 1_545 S
O287 Gd237 2.625 . S
O287 C303 1.286 . S
O288 Gd236 2.324 1_545 S
O288 C311 1.254 . S
O289 Gd237 2.429 . S
O289 C311 1.268 . S
O290 Gd237 2.545 . S
O290 C303 1.250 . S
O291 Gd237 2.412 . S
O291 C304 1.252 . S
C292 O281 1.284 . S
C292 O284 1.250 . S
C293 H262 0.929 . S
C293 C278 1.437 . S
C293 C294 1.317 . S
C294 H265 0.930 . S
C294 C270 1.431 . S
C294 C293 1.317 . S
C295 Gd236 2.828 . S
C295 O280 1.258 . S
C295 O285 1.252 1_565 S
C295 C296 1.497 . S
C296 C295 1.497 . S
C296 C297 1.395 . S
C296 C298 1.380 1_565 S
C297 C296 1.395 . S
C297 C300 1.398 . S
C297 H312 0.930 . S
C298 C296 1.380 1_545 S
C298 C299 1.391 . S
C298 H313 0.930 . S
C299 C298 1.391 . S
C299 C301 1.387 1_545 S
C300 C297 1.398 . S
C300 C301 1.380 . S
C300 H314 0.930 . S
C301 C299 1.387 1_565 S
C301 C300 1.380 . S
C301 H315 0.930 . S
C302 O282 1.254 . S
C302 O283 1.268 . S
C303 O287 1.286 . S
C303 O290 1.250 . S
C304 Gd237 2.828 . S
C304 O286 1.258 . S
C304 O291 1.252 . S
C304 C305 1.497 . S
C305 C304 1.497 . S
C305 C306 1.395 . S
C305 C307 1.380 . S
C306 C305 1.395 . S
C306 C309 1.398 . S
C306 H316 0.930 . S
C307 C305 1.380 . S
C307 C308 1.391 . S
C307 H317 0.930 . S
C308 C307 1.391 . S
C308 C310 1.387 1_556 S
C309 C306 1.398 . S
C309 C310 1.380 1_556 S
C309 H318 0.930 . S
C310 C308 1.387 1_554 S
C310 C309 1.380 1_554 S
C310 H319 0.930 . S
C311 O288 1.254 . S
C311 O289 1.268 . S
H312 C297 0.930 . S
H313 C298 0.930 . S
H314 C300 0.930 . S
H315 C301 0.930 . S
H316 C306 0.930 . S
H317 C307 0.930 . S
H318 C309 0.930 . S
H319 C310 0.930 . S
Gd320 N351 2.661 . S
Gd320 N357 2.601 . S
Gd320 O364 2.545 . S
Gd320 O365 2.606 . S
Gd320 O367 2.429 . S
Gd320 O368 2.545 . S
Gd320 O369 2.412 . S
Gd320 O371 2.362 . S
Gd320 O372 2.324 . S
Gd320 C379 2.828 . S
Gd321 N330 2.661 . S
Gd321 N334 2.601 . S
Gd321 O365 2.362 . S
Gd321 O366 2.324 . S
Gd321 O370 2.545 . S
Gd321 O371 2.606 . S
Gd321 O373 2.429 . S
Gd321 O374 2.545 . S
Gd321 O375 2.412 . S
Gd321 C388 2.828 . S
C322 C325 1.417 . S
C322 C327 1.431 . S
C322 C328 1.412 . S
C323 C326 1.437 . S
C323 C327 1.317 . S
C323 H342 0.929 . S
C324 C325 1.426 . S
C324 C326 1.413 . S
C324 N334 1.359 . S
C325 C322 1.417 . S
C325 C324 1.426 . S
C325 N330 1.350 . S
C326 C323 1.437 . S
C326 C324 1.413 . S
C326 C336 1.391 . S
C327 C322 1.431 . S
C327 C323 1.317 . S
C327 H338 0.930 . S
C328 C322 1.412 . S
C328 C329 1.355 . S
C328 H340 0.930 . S
C329 C328 1.355 . S
C329 C331 1.402 . S
C329 H341 0.930 . S
N330 Gd321 2.661 . S
N330 C325 1.350 . S
N330 C331 1.307 . S
C331 C329 1.402 . S
C331 N330 1.307 . S
C331 H332 0.930 . S
H332 C331 0.930 . S
C333 N334 1.334 . S
C333 C335 1.394 . S
C333 H337 0.930 . S
N334 Gd321 2.601 . S
N334 C324 1.359 . S
N334 C333 1.334 . S
C335 C333 1.394 . S
C335 C336 1.359 . S
C335 H347 0.930 . S
C336 C326 1.391 . S
C336 C335 1.359 . S
C336 H348 0.929 . S
H337 C333 0.930 . S
H338 C327 0.930 . S
H339 C356 0.930 . S
H340 C328 0.930 . S
H341 C329 0.930 . S
H342 C323 0.929 . S
H343 C361 0.930 . S
H344 C352 0.930 . S
H345 C353 0.930 . S
H346 C377 0.929 . S
H347 C335 0.930 . S
H348 C336 0.929 . S
H349 C378 0.930 . S
H350 C359 0.930 . S
N351 Gd320 2.661 . S
N351 C355 1.350 . S
N351 C356 1.307 . S
C352 H344 0.930 . S
C352 C353 1.355 . S
C352 C354 1.412 . S
C353 H345 0.930 . S
C353 C352 1.355 . S
C353 C356 1.402 . S
C354 C352 1.412 . S
C354 C355 1.417 . S
C354 C378 1.431 . S
C355 N351 1.350 . S
C355 C354 1.417 . S
C355 C358 1.426 . S
C356 H339 0.930 . S
C356 N351 1.307 . S
C356 C353 1.402 . S
N357 Gd320 2.601 . S
N357 C358 1.359 . S
N357 C361 1.334 . S
C358 C355 1.426 . S
C358 N357 1.359 . S
C358 C362 1.413 . S
C359 H350 0.930 . S
C359 C360 1.359 . S
C359 C361 1.394 . S
C360 C359 1.359 . S
C360 C362 1.391 . S
C360 H363 0.929 . S
C361 H343 0.930 . S
C361 N357 1.334 . S
C361 C359 1.394 . S
C362 C358 1.413 . S
C362 C360 1.391 . S
C362 C377 1.437 . S
H363 C360 0.929 . S
O364 Gd320 2.545 . S
O364 C379 1.258 . S
O365 Gd320 2.606 . S
O365 Gd321 2.362 . S
O365 C376 1.284 . S
O366 Gd321 2.324 . S
O366 C386 1.254 . S
O367 Gd320 2.429 . S
O367 C386 1.268 . S
O368 Gd320 2.545 . S
O368 C376 1.250 . S
O369 Gd320 2.412 . S
O369 C379 1.252 . S
O370 Gd321 2.545 . S
O370 C388 1.258 . S
O371 Gd320 2.362 . S
O371 Gd321 2.606 . S
O371 C387 1.284 . S
O372 Gd320 2.324 . S
O372 C395 1.254 . S
O373 Gd321 2.429 . S
O373 C395 1.268 . S
O374 Gd321 2.545 . S
O374 C387 1.250 . S
O375 Gd321 2.412 . S
O375 C388 1.252 . S
C376 O365 1.284 . S
C376 O368 1.250 . S
C377 H346 0.929 . S
C377 C362 1.437 . S
C377 C378 1.317 . S
C378 H349 0.930 . S
C378 C354 1.431 . S
C378 C377 1.317 . S
C379 Gd320 2.828 . S
C379 O364 1.258 . S
C379 O369 1.252 . S
C379 C380 1.497 . S
C380 C379 1.497 . S
C380 C381 1.395 1_556 S
C380 C382 1.380 . S
C381 C380 1.395 1_554 S
C381 C384 1.398 . S
C381 H396 0.930 . S
C382 C380 1.380 . S
C382 C383 1.391 1_556 S
C382 H397 0.930 . S
C383 C382 1.391 1_554 S
C383 C385 1.387 . S
C384 C381 1.398 . S
C384 C385 1.380 . S
C384 H398 0.930 . S
C385 C383 1.387 . S
C385 C384 1.380 . S
C385 H399 0.930 . S
C386 O366 1.254 . S
C386 O367 1.268 . S
C387 O371 1.284 . S
C387 O374 1.250 . S
C388 Gd321 2.828 . S
C388 O370 1.258 . S
C388 O375 1.252 . S
C388 C389 1.497 . S
C389 C388 1.497 . S
C389 C390 1.395 . S
C389 C391 1.380 . S
C390 C389 1.395 . S
C390 C393 1.398 . S
C390 H400 0.930 . S
C391 C389 1.380 . S
C391 C392 1.391 . S
C391 H401 0.930 . S
C392 C391 1.391 . S
C392 C394 1.387 . S
C393 C390 1.398 . S
C393 C394 1.380 . S
C393 H402 0.930 . S
C394 C392 1.387 . S
C394 C393 1.380 . S
C394 H403 0.930 . S
C395 O372 1.254 . S
C395 O373 1.268 . S
H396 C381 0.930 . S
H397 C382 0.930 . S
H398 C384 0.930 . S
H399 C385 0.930 . S
H400 C390 0.930 . S
H401 C391 0.930 . S
H402 C393 0.930 . S
H403 C394 0.930 . S
Gd404 N435 2.661 . S
Gd404 N441 2.601 . S
Gd404 O448 2.545 . S
Gd404 O449 2.606 1_655 S
Gd404 O451 2.429 1_655 S
Gd404 O452 2.545 . S
Gd404 O453 2.412 . S
Gd404 O455 2.362 1_655 S
Gd404 O456 2.324 . S
Gd404 C463 2.828 . S
Gd405 N414 2.661 . S
Gd405 N418 2.601 . S
Gd405 O449 2.362 . S
Gd405 O450 2.324 . S
Gd405 O454 2.545 . S
Gd405 O455 2.606 . S
Gd405 O457 2.429 1_455 S
Gd405 O458 2.545 . S
Gd405 O459 2.412 . S
Gd405 C472 2.828 . S
C406 C409 1.417 . S
C406 C411 1.431 . S
C406 C412 1.412 . S
C407 C410 1.437 . S
C407 C411 1.317 . S
C407 H426 0.929 . S
C408 C409 1.426 . S
C408 C410 1.413 . S
C408 N418 1.359 . S
C409 C406 1.417 . S
C409 C408 1.426 . S
C409 N414 1.350 . S
C410 C407 1.437 . S
C410 C408 1.413 . S
C410 C420 1.391 . S
C411 C406 1.431 . S
C411 C407 1.317 . S
C411 H422 0.930 . S
C412 C406 1.412 . S
C412 C413 1.355 . S
C412 H424 0.930 . S
C413 C412 1.355 . S
C413 C415 1.402 . S
C413 H425 0.930 . S
N414 Gd405 2.661 . S
N414 C409 1.350 . S
N414 C415 1.307 . S
C415 C413 1.402 . S
C415 N414 1.307 . S
C415 H416 0.930 . S
H416 C415 0.930 . S
C417 N418 1.334 . S
C417 C419 1.389 1_455 S
C417 H421 0.930 1_455 S
N418 Gd405 2.601 . S
N418 C408 1.359 . S
N418 C417 1.334 . S
C419 C417 1.389 1_655 S
C419 C420 1.339 1_655 S
C419 H431 0.957 . S
C420 C410 1.391 . S
C420 C419 1.339 1_455 S
C420 H432 0.929 . S
H421 C417 0.930 1_655 S
H422 C411 0.930 . S
H423 C440 0.930 . S
H424 C412 0.930 . S
H425 C413 0.930 . S
H426 C407 0.929 . S
H427 C445 0.930 . S
H428 C436 0.930 . S
H429 C437 0.930 . S
H430 C461 0.929 . S
H431 C419 0.957 . S
H432 C420 0.929 . S
H433 C462 0.930 . S
H434 C443 0.930 . S
N435 Gd404 2.661 . S
N435 C439 1.350 . S
N435 C440 1.307 . S
C436 H428 0.930 . S
C436 C437 1.355 . S
C436 C438 1.412 . S
C437 H429 0.930 . S
C437 C436 1.355 . S
C437 C440 1.402 . S
C438 C436 1.412 . S
C438 C439 1.417 . S
C438 C462 1.431 . S
C439 N435 1.350 . S
C439 C438 1.417 . S
C439 C442 1.426 . S
C440 H423 0.930 . S
C440 N435 1.307 . S
C440 C437 1.402 . S
N441 Gd404 2.601 . S
N441 C442 1.359 . S
N441 C445 1.334 1_655 S
C442 C439 1.426 . S
C442 N441 1.359 . S
C442 C446 1.413 . S
C443 H434 0.930 . S
C443 C444 1.359 . S
C443 C445 1.394 . S
C444 C443 1.359 . S
C444 C446 1.391 1_455 S
C444 H447 0.929 . S
C445 H427 0.930 . S
C445 N441 1.334 1_455 S
C445 C443 1.394 . S
C446 C442 1.413 . S
C446 C444 1.391 1_655 S
C446 C461 1.437 . S
H447 C444 0.929 . S
O448 Gd404 2.545 . S
O448 C463 1.258 . S
O449 Gd404 2.606 1_455 S
O449 Gd405 2.362 . S
O449 C460 1.284 1_455 S
O450 Gd405 2.324 . S
O450 C470 1.254 . S
O451 Gd404 2.429 1_455 S
O451 C470 1.268 . S
O452 Gd404 2.545 . S
O452 C460 1.250 . S
O453 Gd404 2.412 . S
O453 C463 1.252 . S
O454 Gd405 2.545 . S
O454 C472 1.258 . S
O455 Gd404 2.362 1_455 S
O455 Gd405 2.606 . S
O455 C471 1.284 . S
O456 Gd404 2.324 . S
O456 C479 1.254 . S
O457 Gd405 2.429 1_655 S
O457 C479 1.268 . S
O458 Gd405 2.545 . S
O458 C471 1.250 . S
O459 Gd405 2.412 . S
O459 C472 1.252 . S
C460 O449 1.284 1_655 S
C460 O452 1.250 . S
C461 H430 0.929 . S
C461 C446 1.437 . S
C461 C462 1.317 . S
C462 H433 0.930 . S
C462 C438 1.431 . S
C462 C461 1.317 . S
C463 Gd404 2.828 . S
C463 O448 1.258 . S
C463 O453 1.252 . S
C463 C464 1.497 . S
C464 C463 1.497 . S
C464 C465 1.395 1_556 S
C464 C466 1.380 . S
C465 C464 1.395 1_554 S
C465 C468 1.398 . S
C465 H480 0.930 . S
C466 C464 1.380 . S
C466 C467 1.391 1_556 S
C466 H481 0.930 . S
C467 C466 1.391 1_554 S
C467 C469 1.387 . S
C468 C465 1.398 . S
C468 C469 1.380 . S
C468 H482 0.930 . S
C469 C467 1.387 . S
C469 C468 1.380 . S
C469 H483 0.930 . S
C470 O450 1.254 . S
C470 O451 1.268 . S
C471 O455 1.284 . S
C471 O458 1.250 . S
C472 Gd405 2.828 . S
C472 O454 1.258 . S
C472 O459 1.252 . S
C472 C473 1.497 . S
C473 C472 1.497 . S
C473 C474 1.395 . S
C473 C475 1.380 . S
C474 C473 1.395 . S
C474 C477 1.398 . S
C474 H484 0.930 . S
C475 C473 1.380 . S
C475 C476 1.391 . S
C475 H485 0.930 . S
C476 C475 1.391 . S
C476 C478 1.387 . S
C477 C474 1.398 . S
C477 C478 1.380 . S
C477 H486 0.930 . S
C478 C476 1.387 . S
C478 C477 1.380 . S
C478 H487 0.930 . S
C479 O456 1.254 . S
C479 O457 1.268 . S
H480 C465 0.930 . S
H481 C466 0.930 . S
H482 C468 0.930 . S
H483 C469 0.930 . S
H484 C474 0.930 . S
H485 C475 0.930 . S
H486 C477 0.930 . S
H487 C478 0.930 . S
H488 C496 0.950 . S
H489 C501 0.950 . S
H490 C498 0.950 . S
H491 C500 0.950 . S
H492 C502 0.950 . S
H493 C504 0.950 . S
H494 C506 0.950 . S
H495 C507 0.950 1_565 S
C496 H488 0.950 . S
C496 C497 1.386 . S
C496 C498 1.391 . S
C497 C496 1.386 . S
C497 C501 1.393 . S
C498 H490 0.950 . S
C498 C496 1.391 . S
C498 C499 1.400 . S
C499 C498 1.400 . S
C499 C500 1.398 . S
C499 C505 1.491 . S
C500 H491 0.950 . S
C500 C499 1.398 . S
C500 C501 1.391 . S
C501 H489 0.950 . S
C501 C497 1.393 . S
C501 C500 1.391 . S
C502 H492 0.950 . S
C502 C503 1.386 . S
C502 C504 1.391 . S
C503 C502 1.386 . S
C503 C507 1.393 . S
C504 H493 0.950 . S
C504 C502 1.391 . S
C504 C505 1.400 . S
C505 C499 1.491 . S
C505 C504 1.400 . S
C505 C506 1.398 . S
C506 H494 0.950 . S
C506 C505 1.398 . S
C506 C507 1.391 . S
C507 H495 0.950 1_545 S
C507 C503 1.393 . S
C507 C506 1.391 . S
H508 C516 0.950 . S
H509 C521 0.950 . S
H510 C518 0.950 . S
H511 C520 0.950 . S
H512 C522 0.950 . S
H513 C524 0.950 . S
H514 C526 0.950 . S
H515 C527 0.950 . S
C516 H508 0.950 . S
C516 C517 1.386 . S
C516 C518 1.391 . S
C517 C516 1.386 . S
C517 C521 1.393 . S
C518 H510 0.950 . S
C518 C516 1.391 . S
C518 C519 1.400 . S
C519 C518 1.400 . S
C519 C520 1.398 . S
C519 C525 1.491 . S
C520 H511 0.950 . S
C520 C519 1.398 . S
C520 C521 1.391 . S
C521 H509 0.950 . S
C521 C517 1.393 . S
C521 C520 1.391 . S
C522 H512 0.950 . S
C522 C523 1.386 . S
C522 C524 1.391 . S
C523 C522 1.386 . S
C523 C527 1.393 . S
C524 H513 0.950 . S
C524 C522 1.391 . S
C524 C525 1.400 . S
C525 C519 1.491 . S
C525 C524 1.400 . S
C525 C526 1.398 . S
C526 H514 0.950 . S
C526 C525 1.398 . S
C526 C527 1.391 . S
C527 H515 0.950 . S
C527 C523 1.393 . S
C527 C526 1.391 . S
H528 C536 0.950 . S
H529 C541 0.950 . S
H530 C538 0.950 . S
H531 C540 0.950 . S
H532 C542 0.950 . S
H533 C544 0.950 . S
H534 C546 0.950 . S
H535 C547 0.950 . S
C536 H528 0.950 . S
C536 C537 1.386 . S
C536 C538 1.391 . S
C537 C536 1.386 . S
C537 C541 1.393 . S
C538 H530 0.950 . S
C538 C536 1.391 . S
C538 C539 1.400 . S
C539 C538 1.400 . S
C539 C540 1.398 . S
C539 C545 1.491 . S
C540 H531 0.950 . S
C540 C539 1.398 . S
C540 C541 1.391 . S
C541 H529 0.950 . S
C541 C537 1.393 . S
C541 C540 1.391 . S
C542 H532 0.950 . S
C542 C543 1.386 . S
C542 C544 1.391 . S
C543 C542 1.386 . S
C543 C547 1.393 . S
C544 H533 0.950 . S
C544 C542 1.391 . S
C544 C545 1.400 . S
C545 C539 1.491 . S
C545 C544 1.400 . S
C545 C546 1.398 . S
C546 H534 0.950 . S
C546 C545 1.398 . S
C546 C547 1.391 . S
C547 H535 0.950 . S
C547 C543 1.393 . S
C547 C546 1.391 . S
H548 C556 0.950 . S
H549 C561 0.950 . S
H550 C558 0.950 . S
H551 C560 0.950 . S
H552 C562 0.950 . S
H553 C564 0.950 . S
H554 C566 0.950 . S
H555 C567 0.950 1_655 S
C556 H548 0.950 . S
C556 C557 1.386 . S
C556 C558 1.391 . S
C557 C556 1.386 . S
C557 C561 1.393 . S
C558 H550 0.950 . S
C558 C556 1.391 . S
C558 C559 1.400 . S
C559 C558 1.400 . S
C559 C560 1.398 . S
C559 C565 1.491 . S
C560 H551 0.950 . S
C560 C559 1.398 . S
C560 C561 1.391 . S
C561 H549 0.950 . S
C561 C557 1.393 . S
C561 C560 1.391 . S
C562 H552 0.950 . S
C562 C563 1.386 . S
C562 C564 1.391 . S
C563 C562 1.386 . S
C563 C567 1.393 . S
C564 H553 0.950 . S
C564 C562 1.391 . S
C564 C565 1.400 . S
C565 C559 1.491 . S
C565 C564 1.400 . S
C565 C566 1.398 . S
C566 H554 0.950 . S
C566 C565 1.398 . S
C566 C567 1.391 . S
C567 H555 0.950 1_455 S
C567 C563 1.393 . S
C567 C566 1.391 . S
H568 C576 0.950 . S
H569 C581 0.950 . S
H570 C578 0.950 . S
H571 C580 0.950 1_546 S
H572 C582 0.950 . S
H573 C584 0.950 . S
H574 C586 0.950 . S
H575 C587 0.950 . S
C576 H568 0.950 . S
C576 C577 1.386 . S
C576 C578 1.391 . S
C577 C576 1.386 . S
C577 C581 1.393 . S
C578 H570 0.950 . S
C578 C576 1.391 . S
C578 C579 1.400 . S
C579 C578 1.400 . S
C579 C580 1.398 . S
C579 C585 1.491 1_554 S
C580 H571 0.950 1_564 S
C580 C579 1.398 . S
C580 C581 1.391 . S
C581 H569 0.950 . S
C581 C577 1.393 . S
C581 C580 1.391 . S
C582 H572 0.950 . S
C582 C583 1.386 1_545 S
C582 C584 1.391 . S
C583 C582 1.386 1_565 S
C583 C587 1.393 . S
C584 H573 0.950 . S
C584 C582 1.391 . S
C584 C585 1.400 1_545 S
C585 C579 1.491 1_556 S
C585 C584 1.400 1_565 S
C585 C586 1.398 . S
C586 H574 0.950 . S
C586 C585 1.398 . S
C586 C587 1.391 . S
C587 H575 0.950 . S
C587 C583 1.393 . S
C587 C586 1.391 . S
H588 C596 0.950 . S
H589 C601 0.950 . S
H590 C598 0.950 1_556 S
H591 C600 0.950 . S
H592 C602 0.950 . S
H593 C604 0.950 . S
H594 C606 0.950 . S
H595 C607 0.950 . S
C596 H588 0.950 . S
C596 C597 1.386 . S
C596 C598 1.391 . S
C597 C596 1.386 . S
C597 C601 1.393 . S
C598 H590 0.950 1_554 S
C598 C596 1.391 . S
C598 C599 1.400 . S
C599 C598 1.400 . S
C599 C600 1.398 . S
C599 C605 1.491 1_554 S
C600 H591 0.950 . S
C600 C599 1.398 . S
C600 C601 1.391 . S
C601 H589 0.950 . S
C601 C597 1.393 . S
C601 C600 1.391 . S
C602 H592 0.950 . S
C602 C603 1.386 . S
C602 C604 1.391 . S
C603 C602 1.386 . S
C603 C607 1.393 . S
C604 H593 0.950 . S
C604 C602 1.391 . S
C604 C605 1.400 . S
C605 C599 1.491 1_556 S
C605 C604 1.400 . S
C605 C606 1.398 . S
C606 H594 0.950 . S
C606 C605 1.398 . S
C606 C607 1.391 . S
C607 H595 0.950 . S
C607 C603 1.393 . S
C607 C606 1.391 . S
H608 C616 0.950 . S
H609 C621 0.950 . S
H610 C618 0.950 . S
H611 C620 0.950 . S
H612 C622 0.950 . S
H613 C624 0.950 1_554 S
H614 C626 0.950 . S
H615 C627 0.950 . S
C616 H608 0.950 . S
C616 C617 1.386 . S
C616 C618 1.391 1_554 S
C617 C616 1.386 . S
C617 C621 1.393 . S
C618 H610 0.950 . S
C618 C616 1.391 1_556 S
C618 C619 1.400 1_556 S
C619 C618 1.400 1_554 S
C619 C620 1.398 . S
C619 C625 1.491 1_554 S
C620 H611 0.950 . S
C620 C619 1.398 . S
C620 C621 1.391 . S
C621 H609 0.950 . S
C621 C617 1.393 . S
C621 C620 1.391 . S
C622 H612 0.950 . S
C622 C623 1.386 . S
C622 C624 1.391 . S
C623 C622 1.386 . S
C623 C627 1.393 . S
C624 H613 0.950 1_556 S
C624 C622 1.391 . S
C624 C625 1.400 . S
C625 C619 1.491 1_556 S
C625 C624 1.400 . S
C625 C626 1.398 . S
C626 H614 0.950 . S
C626 C625 1.398 . S
C626 C627 1.391 . S
C627 H615 0.950 . S
C627 C623 1.393 . S
C627 C626 1.391 . S
H628 C636 0.950 . S
H629 C641 0.950 . S
H630 C638 0.950 1_556 S
H631 C640 0.950 . S
H632 C642 0.950 . S
H633 C644 0.950 . S
H634 C646 0.962 . S
H635 C647 0.950 1_455 S
C636 H628 0.950 . S
C636 C637 1.386 . S
C636 C638 1.391 . S
C637 C636 1.386 . S
C637 C641 1.393 . S
C638 H630 0.950 1_554 S
C638 C636 1.391 . S
C638 C639 1.400 . S
C639 C638 1.400 . S
C639 C640 1.398 . S
C639 C645 1.491 1_554 S
C640 H631 0.950 . S
C640 C639 1.398 . S
C640 C641 1.391 . S
C641 H629 0.950 . S
C641 C637 1.393 . S
C641 C640 1.391 . S
C642 H632 0.950 . S
C642 C643 1.386 . S
C642 C644 1.391 . S
C643 C642 1.386 . S
C643 C647 1.393 . S
C644 H633 0.950 . S
C644 C642 1.391 . S
C644 C645 1.400 . S
C645 C639 1.491 1_556 S
C645 C644 1.400 . S
C645 C646 1.398 . S
C646 H634 0.962 . S
C646 C645 1.398 . S
C646 C647 1.391 . S
C647 H635 0.950 1_655 S
C647 C643 1.393 . S
C647 C646 1.391 . S
H648 C656 0.950 . S
H649 C661 0.950 . S
H650 C658 0.950 . S
H651 C660 0.950 . S
H652 C662 0.950 . S
H653 C664 0.950 . S
H654 C666 0.950 1_655 S
H655 C667 0.950 . S
C656 H648 0.950 . S
C656 C657 1.386 . S
C656 C658 1.391 . S
C657 C656 1.386 . S
C657 C661 1.393 . S
C658 H650 0.950 . S
C658 C656 1.391 . S
C658 C659 1.400 . S
C659 C658 1.400 . S
C659 C660 1.398 . S
C659 C665 1.491 . S
C660 H651 0.950 . S
C660 C659 1.398 . S
C660 C661 1.391 . S
C661 H649 0.950 . S
C661 C657 1.393 . S
C661 C660 1.391 . S
C662 H652 0.950 . S
C662 C663 1.386 . S
C662 C664 1.391 . S
C663 C662 1.386 . S
C663 C667 1.393 1_455 S
C664 H653 0.950 . S
C664 C662 1.391 . S
C664 C665 1.400 . S
C665 C659 1.491 . S
C665 C664 1.400 . S
C665 C666 1.398 . S
C666 H654 0.950 1_455 S
C666 C665 1.398 . S
C666 C667 1.391 1_455 S
C667 H655 0.950 . S
C667 C663 1.393 1_655 S
C667 C666 1.391 1_655 S
H668 C676 0.950 . S
H669 C681 0.950 . S
H670 C678 0.950 . S
H671 C680 0.950 . S
H672 C682 0.950 1_565 S
H673 C684 0.950 . S
H674 C686 0.950 . S
H675 C687 0.950 . S
C676 H668 0.950 . S
C676 C677 1.386 . S
C676 C678 1.391 . S
C677 C676 1.386 . S
C677 C681 1.393 . S
C678 H670 0.950 . S
C678 C676 1.391 . S
C678 C679 1.400 . S
C679 C678 1.400 . S
C679 C680 1.398 . S
C679 C685 1.491 . S
C680 H671 0.950 . S
C680 C679 1.398 . S
C680 C681 1.391 . S
C681 H669 0.950 . S
C681 C677 1.393 . S
C681 C680 1.391 . S
C682 H672 0.950 1_545 S
C682 C683 1.386 . S
C682 C684 1.391 . S
C683 C682 1.386 . S
C683 C687 1.393 . S
C684 H673 0.950 . S
C684 C682 1.391 . S
C684 C685 1.400 . S
C685 C679 1.491 . S
C685 C684 1.400 . S
C685 C686 1.398 . S
C686 H674 0.950 . S
C686 C685 1.398 . S
C686 C687 1.391 . S
C687 H675 0.950 . S
C687 C683 1.393 . S
C687 C686 1.391 . S
H688 C696 0.950 1_556 S
H689 C701 0.950 . S
H690 C698 0.950 . S
H691 C700 0.950 . S
H692 C702 0.950 . S
H693 C704 0.950 . S
H694 C706 0.950 . S
H695 C707 0.950 . S
C696 H688 0.950 1_554 S
C696 C697 1.386 . S
C696 C698 1.391 . S
C697 C696 1.386 . S
C697 C701 1.393 . S
C698 H690 0.950 . S
C698 C696 1.391 . S
C698 C699 1.400 . S
C699 C698 1.400 . S
C699 C700 1.398 . S
C699 C705 1.491 . S
C700 H691 0.950 . S
C700 C699 1.398 . S
C700 C701 1.391 . S
C701 H689 0.950 . S
C701 C697 1.393 . S
C701 C700 1.391 . S
C702 H692 0.950 . S
C702 C703 1.386 . S
C702 C704 1.391 . S
C703 C702 1.386 . S
C703 C707 1.393 . S
C704 H693 0.950 . S
C704 C702 1.391 . S
C704 C705 1.400 . S
C705 C699 1.491 . S
C705 C704 1.400 . S
C705 C706 1.398 . S
C706 H694 0.950 . S
C706 C705 1.398 . S
C706 C707 1.391 . S
C707 H695 0.950 . S
C707 C703 1.393 . S
C707 C706 1.391 . S
H708 C716 0.950 . S
H709 C721 0.950 . S
H710 C718 0.950 . S
H711 C720 0.950 . S
H712 C722 0.950 . S
H713 C724 0.950 . S
H714 C726 0.950 . S
H715 C727 0.950 . S
C716 H708 0.950 . S
C716 C717 1.386 . S
C716 C718 1.391 . S
C717 C716 1.386 . S
C717 C721 1.393 . S
C718 H710 0.950 . S
C718 C716 1.391 . S
C718 C719 1.400 . S
C719 C718 1.400 . S
C719 C720 1.398 . S
C719 C725 1.491 . S
C720 H711 0.950 . S
C720 C719 1.398 . S
C720 C721 1.391 . S
C721 H709 0.950 . S
C721 C717 1.393 . S
C721 C720 1.391 . S
C722 H712 0.950 . S
C722 C723 1.386 . S
C722 C724 1.391 . S
C723 C722 1.386 . S
C723 C727 1.393 . S
C724 H713 0.950 . S
C724 C722 1.391 . S
C724 C725 1.400 . S
C725 C719 1.491 . S
C725 C724 1.400 . S
C725 C726 1.398 . S
C726 H714 0.950 . S
C726 C725 1.398 . S
C726 C727 1.391 . S
C727 H715 0.950 . S
C727 C723 1.393 . S
C727 C726 1.391 . S
H728 C736 0.950 . S
H729 C741 0.950 . S
H730 C738 0.950 . S
H731 C740 0.950 1_455 S
H732 C742 0.953 . S
H733 C744 0.950 . S
H734 C746 0.950 . S
H735 C747 0.951 . S
C736 H728 0.950 . S
C736 C737 1.386 . S
C736 C738 1.391 . S
C737 C736 1.386 . S
C737 C741 1.393 . S
C738 H730 0.950 . S
C738 C736 1.391 . S
C738 C739 1.400 . S
C739 C738 1.400 . S
C739 C740 1.398 . S
C739 C745 1.491 . S
C740 H731 0.950 1_655 S
C740 C739 1.398 . S
C740 C741 1.391 . S
C741 H729 0.950 . S
C741 C737 1.393 . S
C741 C740 1.391 . S
C742 H732 0.953 . S
C742 C743 1.388 . S
C742 C744 1.386 1_556 S
C743 C742 1.388 . S
C743 C747 1.393 1_456 S
C744 H733 0.950 . S
C744 C742 1.386 1_554 S
C744 C745 1.400 1_455 S
C745 C739 1.491 . S
C745 C744 1.400 1_655 S
C745 C746 1.398 . S
C746 H734 0.950 . S
C746 C745 1.398 . S
C746 C747 1.391 . S
C747 H735 0.951 . S
C747 C743 1.393 1_654 S
C747 C746 1.391 . S
H748 C756 0.950 . S
H749 C761 0.950 . S
H750 C758 0.950 1_545 S
H751 C760 0.950 . S
H752 C762 0.950 . S
H753 C764 0.950 . S
H754 C766 0.950 . S
H755 C767 0.950 . S
C756 H748 0.950 . S
C756 C757 1.386 . S
C756 C758 1.391 . S
C757 C756 1.386 . S
C757 C761 1.393 . S
C758 H750 0.950 1_565 S
C758 C756 1.391 . S
C758 C759 1.400 . S
C759 C758 1.400 . S
C759 C760 1.398 . S
C759 C765 1.491 . S
C760 H751 0.950 . S
C760 C759 1.398 . S
C760 C761 1.391 . S
C761 H749 0.950 . S
C761 C757 1.393 . S
C761 C760 1.391 . S
C762 H752 0.950 . S
C762 C763 1.386 1_565 S
C762 C764 1.391 . S
C763 C762 1.386 1_545 S
C763 C767 1.393 1_556 S
C764 H753 0.950 . S
C764 C762 1.391 . S
C764 C765 1.400 1_556 S
C765 C759 1.491 . S
C765 C764 1.400 1_554 S
C765 C766 1.398 1_565 S
C766 H754 0.950 . S
C766 C765 1.398 1_545 S
C766 C767 1.391 . S
C767 H755 0.950 . S
C767 C763 1.393 1_554 S
C767 C766 1.391 . S
H768 C776 0.950 . S
H769 C781 0.950 . S
H770 C778 0.950 . S
H771 C780 0.950 . S
H772 C782 0.950 . S
H773 C784 0.950 . S
H774 C786 0.950 . S
H775 C787 0.950 . S
C776 H768 0.950 . S
C776 C777 1.386 . S
C776 C778 1.391 . S
C777 C776 1.386 . S
C777 C781 1.393 . S
C778 H770 0.950 . S
C778 C776 1.391 . S
C778 C779 1.400 . S
C779 C778 1.400 . S
C779 C780 1.398 . S
C779 C785 1.491 . S
C780 H771 0.950 . S
C780 C779 1.398 . S
C780 C781 1.391 . S
C781 H769 0.950 . S
C781 C777 1.393 . S
C781 C780 1.391 . S
C782 H772 0.950 . S
C782 C783 1.386 1_556 S
C782 C784 1.391 1_556 S
C783 C782 1.386 1_554 S
C783 C787 1.393 . S
C784 H773 0.950 . S
C784 C782 1.391 1_554 S
C784 C785 1.400 . S
C785 C779 1.491 . S
C785 C784 1.400 . S
C785 C786 1.398 . S
C786 H774 0.950 . S
C786 C785 1.398 . S
C786 C787 1.391 . S
C787 H775 0.950 . S
C787 C783 1.393 . S
C787 C786 1.391 . S
H788 C796 0.950 . S
H789 C801 0.950 . S
H790 C798 0.950 . S
H791 C800 0.950 1_556 S
H792 C802 0.950 . S
H793 C804 0.950 . S
H794 C806 0.950 . S
H795 C807 0.950 . S
C796 H788 0.950 . S
C796 C797 1.386 . S
C796 C798 1.391 . S
C797 C796 1.386 . S
C797 C801 1.393 . S
C798 H790 0.950 . S
C798 C796 1.391 . S
C798 C799 1.400 . S
C799 C798 1.400 . S
C799 C800 1.398 . S
C799 C805 1.491 . S
C800 H791 0.950 1_554 S
C800 C799 1.398 . S
C800 C801 1.391 . S
C801 H789 0.950 . S
C801 C797 1.393 . S
C801 C800 1.391 . S
C802 H792 0.950 . S
C802 C803 1.386 1_556 S
C802 C804 1.391 . S
C803 C802 1.386 1_554 S
C803 C807 1.393 . S
C804 H793 0.950 . S
C804 C802 1.391 . S
C804 C805 1.400 1_556 S
C805 C799 1.491 . S
C805 C804 1.400 1_554 S
C805 C806 1.398 . S
C806 H794 0.950 . S
C806 C805 1.398 . S
C806 C807 1.391 . S
C807 H795 0.950 . S
C807 C803 1.393 . S
C807 C806 1.391 . S
H808 C816 0.950 . S
H809 C821 0.950 . S
H810 C818 0.950 . S
H811 C820 0.950 . S
H812 C822 0.950 1_655 S
H813 C824 0.950 . S
H814 C826 0.950 . S
H815 C827 0.950 . S
C816 H808 0.950 . S
C816 C817 1.386 . S
C816 C818 1.391 . S
C817 C816 1.386 . S
C817 C821 1.393 . S
C818 H810 0.950 . S
C818 C816 1.391 . S
C818 C819 1.400 . S
C819 C818 1.400 . S
C819 C820 1.398 . S
C819 C825 1.491 . S
C820 H811 0.950 . S
C820 C819 1.398 . S
C820 C821 1.391 . S
C821 H809 0.950 . S
C821 C817 1.393 . S
C821 C820 1.391 . S
C822 H812 0.950 1_455 S
C822 C823 1.386 . S
C822 C824 1.391 . S
C823 C822 1.386 . S
C823 C827 1.393 . S
C824 H813 0.950 . S
C824 C822 1.391 . S
C824 C825 1.400 . S
C825 C819 1.491 . S
C825 C824 1.400 . S
C825 C826 1.398 . S
C826 H814 0.950 . S
C826 C825 1.398 . S
C826 C827 1.391 . S
C827 H815 0.950 . S
C827 C823 1.393 . S
C827 C826 1.391 . S
H828 C836 0.950 . S
H829 C841 0.950 . S
H830 C838 0.950 . S
H831 C840 0.950 . S
H832 C842 0.950 . S
H833 C844 0.950 . S
H834 C846 0.950 . S
H835 C847 0.950 . S
C836 H828 0.950 . S
C836 C837 1.386 . S
C836 C838 1.391 . S
C837 C836 1.386 . S
C837 C841 1.393 . S
C838 H830 0.950 . S
C838 C836 1.391 . S
C838 C839 1.400 . S
C839 C838 1.400 . S
C839 C840 1.398 . S
C839 C845 1.491 . S
C840 H831 0.950 . S
C840 C839 1.398 . S
C840 C841 1.391 . S
C841 H829 0.950 . S
C841 C837 1.393 . S
C841 C840 1.391 . S
C842 H832 0.950 . S
C842 C843 1.386 . S
C842 C844 1.391 . S
C843 C842 1.386 . S
C843 C847 1.393 . S
C844 H833 0.950 . S
C844 C842 1.391 . S
C844 C845 1.400 . S
C845 C839 1.491 . S
C845 C844 1.400 . S
C845 C846 1.398 . S
C846 H834 0.950 . S
C846 C845 1.398 . S
C846 C847 1.391 . S
C847 H835 0.950 . S
C847 C843 1.393 . S
C847 C846 1.391 . S
H848 C856 0.950 . S
H849 C861 0.950 . S
H850 C858 0.950 . S
H851 C860 0.950 . S
H852 C862 0.950 . S
H853 C864 0.950 . S
H854 C866 0.950 . S
H855 C867 0.950 . S
C856 H848 0.950 . S
C856 C857 1.386 . S
C856 C858 1.391 . S
C857 C856 1.386 . S
C857 C861 1.393 . S
C858 H850 0.950 . S
C858 C856 1.391 . S
C858 C859 1.400 . S
C859 C858 1.400 . S
C859 C860 1.398 . S
C859 C865 1.491 . S
C860 H851 0.950 . S
C860 C859 1.398 . S
C860 C861 1.391 . S
C861 H849 0.950 . S
C861 C857 1.393 . S
C861 C860 1.391 . S
C862 H852 0.950 . S
C862 C863 1.386 . S
C862 C864 1.391 . S
C863 C862 1.386 . S
C863 C867 1.393 . S
C864 H853 0.950 . S
C864 C862 1.391 . S
C864 C865 1.400 . S
C865 C859 1.491 . S
C865 C864 1.400 . S
C865 C866 1.398 . S
C866 H854 0.950 . S
C866 C865 1.398 . S
C866 C867 1.391 . S
C867 H855 0.950 . S
C867 C863 1.393 . S
C867 C866 1.391 . S
H868 C876 0.950 . S
H869 C881 0.950 . S
H870 C878 0.950 . S
H871 C880 0.950 . S
H872 C882 0.950 . S
H873 C884 0.950 . S
H874 C886 0.950 . S
H875 C887 0.950 . S
C876 H868 0.950 . S
C876 C877 1.386 . S
C876 C878 1.391 . S
C877 C876 1.386 . S
C877 C881 1.393 . S
C878 H870 0.950 . S
C878 C876 1.391 . S
C878 C879 1.400 . S
C879 C878 1.400 . S
C879 C880 1.398 . S
C879 C885 1.491 . S
C880 H871 0.950 . S
C880 C879 1.398 . S
C880 C881 1.391 . S
C881 H869 0.950 . S
C881 C877 1.393 . S
C881 C880 1.391 . S
C882 H872 0.950 . S
C882 C883 1.386 . S
C882 C884 1.391 . S
C883 C882 1.386 . S
C883 C887 1.393 . S
C884 H873 0.950 . S
C884 C882 1.391 . S
C884 C885 1.400 . S
C885 C879 1.491 . S
C885 C884 1.400 . S
C885 C886 1.398 . S
C886 H874 0.950 . S
C886 C885 1.398 . S
C886 C887 1.391 . S
C887 H875 0.950 . S
C887 C883 1.393 . S
C887 C886 1.391 . S
H888 C896 0.950 . S
H889 C901 0.950 . S
H890 C898 0.950 1_455 S
H891 C900 0.950 . S
H892 C902 0.950 . S
H893 C904 0.950 . S
H894 C906 0.950 1_455 S
H895 C907 0.950 . S
C896 H888 0.950 . S
C896 C897 1.386 . S
C896 C898 1.391 . S
C897 C896 1.386 . S
C897 C901 1.393 . S
C898 H890 0.950 1_655 S
C898 C896 1.391 . S
C898 C899 1.400 . S
C899 C898 1.400 . S
C899 C900 1.398 . S
C899 C905 1.491 . S
C900 H891 0.950 . S
C900 C899 1.398 . S
C900 C901 1.391 . S
C901 H889 0.950 . S
C901 C897 1.393 . S
C901 C900 1.391 . S
C902 H892 0.950 . S
C902 C903 1.386 . S
C902 C904 1.391 . S
C903 C902 1.386 . S
C903 C907 1.393 1_655 S
C904 H893 0.950 . S
C904 C902 1.391 . S
C904 C905 1.400 . S
C905 C899 1.491 . S
C905 C904 1.400 . S
C905 C906 1.398 . S
C906 H894 0.950 1_655 S
C906 C905 1.398 . S
C906 C907 1.391 1_655 S
C907 H895 0.950 . S
C907 C903 1.393 1_455 S
C907 C906 1.391 1_455 S
H908 C916 0.945 1_545 S
H909 C921 0.950 . S
H910 C918 0.950 1_545 S
H911 C920 0.950 . S
H912 C922 0.950 . S
H913 C924 0.950 . S
H914 C926 0.950 . S
H915 C927 0.950 . S
C916 H908 0.945 1_565 S
C916 C917 1.386 . S
C916 C918 1.391 . S
C917 C916 1.386 . S
C917 C921 1.393 . S
C918 H910 0.950 1_565 S
C918 C916 1.391 . S
C918 C919 1.400 . S
C919 C918 1.400 . S
C919 C920 1.398 . S
C919 C925 1.491 . S
C920 H911 0.950 . S
C920 C919 1.398 . S
C920 C921 1.391 . S
C921 H909 0.950 . S
C921 C917 1.393 . S
C921 C920 1.391 . S
C922 H912 0.950 . S
C922 C923 1.386 . S
C922 C924 1.391 . S
C923 C922 1.386 . S
C923 C927 1.393 1_565 S
C924 H913 0.950 . S
C924 C922 1.391 . S
C924 C925 1.400 . S
C925 C919 1.491 . S
C925 C924 1.400 . S
C925 C926 1.398 1_565 S
C926 H914 0.950 . S
C926 C925 1.398 1_545 S
C926 C927 1.391 . S
C927 H915 0.950 . S
C927 C923 1.393 1_545 S
C927 C926 1.391 . S
H928 C936 0.950 . S
H929 C941 0.950 . S
H930 C938 0.950 . S
H931 C940 0.950 . S
H932 C942 0.950 . S
H933 C944 0.950 . S
H934 C946 0.950 . S
H935 C947 0.950 . S
C936 H928 0.950 . S
C936 C937 1.386 . S
C936 C938 1.391 . S
C937 C936 1.386 . S
C937 C941 1.393 . S
C938 H930 0.950 . S
C938 C936 1.391 . S
C938 C939 1.400 . S
C939 C938 1.400 . S
C939 C940 1.398 . S
C939 C945 1.491 . S
C940 H931 0.950 . S
C940 C939 1.398 . S
C940 C941 1.391 . S
C941 H929 0.950 . S
C941 C937 1.393 . S
C941 C940 1.391 . S
C942 H932 0.950 . S
C942 C943 1.386 . S
C942 C944 1.391 . S
C943 C942 1.386 . S
C943 C947 1.393 . S
C944 H933 0.950 . S
C944 C942 1.391 . S
C944 C945 1.400 . S
C945 C939 1.491 . S
C945 C944 1.400 . S
C945 C946 1.398 . S
C946 H934 0.950 . S
C946 C945 1.398 . S
C946 C947 1.391 . S
C947 H935 0.950 . S
C947 C943 1.393 . S
C947 C946 1.391 . S
H948 C956 0.950 . S
H949 C961 0.950 . S
H950 C958 0.950 . S
H951 C960 0.950 . S
H952 C962 0.950 . S
H953 C964 0.950 . S
H954 C966 0.950 . S
H955 C967 0.950 . S
C956 H948 0.950 . S
C956 C957 1.386 . S
C956 C958 1.391 . S
C957 C956 1.386 . S
C957 C961 1.393 . S
C958 H950 0.950 . S
C958 C956 1.391 . S
C958 C959 1.400 . S
C959 C958 1.400 . S
C959 C960 1.398 . S
C959 C965 1.491 . S
C960 H951 0.950 . S
C960 C959 1.398 . S
C960 C961 1.391 . S
C961 H949 0.950 . S
C961 C957 1.393 . S
C961 C960 1.391 . S
C962 H952 0.950 . S
C962 C963 1.386 . S
C962 C964 1.391 . S
C963 C962 1.386 . S
C963 C967 1.393 . S
C964 H953 0.950 . S
C964 C962 1.391 . S
C964 C965 1.400 . S
C965 C959 1.491 . S
C965 C964 1.400 . S
C965 C966 1.398 . S
C966 H954 0.950 . S
C966 C965 1.398 . S
C966 C967 1.391 . S
C967 H955 0.950 . S
C967 C963 1.393 . S
C967 C966 1.391 . S
C497 C125 1.901 . S
C503 C227 1.926 . S
C523 C311 1.966 . S
C517 C144 1.895 . S
C543 C387 1.946 . S
C537 C87 2.005 . S
C563 C471 1.910 . S
C557 C106 1.995 . S
C583 C218 1.925 1_565 S
C577 C49 1.990 . S
C597 C68 2.015 . S
C603 C302 1.954 . S
C617 C11 2.112 . S
C623 C376 1.936 . S
C637 C30 2.093 . S
C643 C460 1.927 . S
C663 C215 0.679 1_455 S
C657 C97 0.674 . S
C683 C299 0.636 . S
C677 C116 0.695 . S
C703 C392 0.613 . S
C697 C135 0.676 . S
C717 C78 0.709 . S
C723 C476 0.636 . S
C737 C21 0.659 . S
C743 C224 0.702 . S
C763 C308 0.673 . S
C757 C40 0.676 . S
C783 C383 0.615 . S
C777 C59 0.674 . S
C797 C2 0.671 . S
C803 C467 0.670 . S
C817 C101 2.009 . S
C823 C208 2.056 . S
C837 C120 1.988 . S
C843 C292 2.020 . S
C863 C386 2.073 . S
C857 C139 1.904 . S
C883 C470 2.104 . S
C877 C82 1.952 . S
C897 C25 2.015 . S
C903 C219 2.054 . S
C923 C303 2.020 1_565 S
C917 C44 1.986 . S
C943 C395 2.072 . S
C937 C63 1.915 . S
C957 C6 1.934 . S
C963 C479 2.114 . S
