# Generated by pormake.
# Topology pyr, (3,6)-cn, num edge types: 1
# Building blocks:
#     Node 0, Type 0, BuildingBlock: BETDAH_clean_linker_0, # of connection points: 3
#     Node 1, Type 0, BuildingBlock: BETDAH_clean_linker_0, # of connection points: 3
#     Node 2, Type 0, BuildingBlock: BETDAH_clean_linker_0, # of connection points: 3
#     Node 3, Type 0, BuildingBlock: BETDAH_clean_linker_0, # of connection points: 3
#     Node 4, Type 0, BuildingBlock: BETDAH_clean_linker_0, # of connection points: 3
#     Node 5, Type 0, BuildingBlock: BETDAH_clean_linker_0, # of connection points: 3
#     Node 6, Type 0, BuildingBlock: BETDAH_clean_linker_0, # of connection points: 3
#     Node 7, Type 0, BuildingBlock: BETDAH_clean_linker_0, # of connection points: 3
#     Node 8, Type 1, BuildingBlock: BETDAH_clean_sbu_0, # of connection points: 6
#     Node 9, Type 1, BuildingBlock: BETDAH_clean_sbu_0, # of connection points: 6
#     Node 10, Type 1, BuildingBlock: BETDAH_clean_sbu_0, # of connection points: 6
#     Node 11, Type 1, BuildingBlock: BETDAH_clean_sbu_0, # of connection points: 6
#     Edge 12, Type (0, 1), BuildingBlock: XUDNAN_clean_linker_2, # of connection points: 2
#     Edge 13, Type (0, 1), BuildingBlock: XUDNAN_clean_linker_2, # of connection points: 2
#     Edge 14, Type (0, 1), BuildingBlock: XUDNAN_clean_linker_2, # of connection points: 2
#     Edge 15, Type (0, 1), BuildingBlock: XUDNAN_clean_linker_2, # of connection points: 2
#     Edge 16, Type (0, 1), BuildingBlock: XUDNAN_clean_linker_2, # of connection points: 2
#     Edge 17, Type (0, 1), BuildingBlock: XUDNAN_clean_linker_2, # of connection points: 2
#     Edge 18, Type (0, 1), BuildingBlock: XUDNAN_clean_linker_2, # of connection points: 2
#     Edge 19, Type (0, 1), BuildingBlock: XUDNAN_clean_linker_2, # of connection points: 2
#     Edge 20, Type (0, 1), BuildingBlock: XUDNAN_clean_linker_2, # of connection points: 2
#     Edge 21, Type (0, 1), BuildingBlock: XUDNAN_clean_linker_2, # of connection points: 2
#     Edge 22, Type (0, 1), BuildingBlock: XUDNAN_clean_linker_2, # of connection points: 2
#     Edge 23, Type (0, 1), BuildingBlock: XUDNAN_clean_linker_2, # of connection points: 2
#     Edge 24, Type (0, 1), BuildingBlock: XUDNAN_clean_linker_2, # of connection points: 2
#     Edge 25, Type (0, 1), BuildingBlock: XUDNAN_clean_linker_2, # of connection points: 2
#     Edge 26, Type (0, 1), BuildingBlock: XUDNAN_clean_linker_2, # of connection points: 2
#     Edge 27, Type (0, 1), BuildingBlock: XUDNAN_clean_linker_2, # of connection points: 2
#     Edge 28, Type (0, 1), BuildingBlock: XUDNAN_clean_linker_2, # of connection points: 2
#     Edge 29, Type (0, 1), BuildingBlock: XUDNAN_clean_linker_2, # of connection points: 2
#     Edge 30, Type (0, 1), BuildingBlock: XUDNAN_clean_linker_2, # of connection points: 2
#     Edge 31, Type (0, 1), BuildingBlock: XUDNAN_clean_linker_2, # of connection points: 2
#     Edge 32, Type (0, 1), BuildingBlock: XUDNAN_clean_linker_2, # of connection points: 2
#     Edge 33, Type (0, 1), BuildingBlock: XUDNAN_clean_linker_2, # of connection points: 2
#     Edge 34, Type (0, 1), BuildingBlock: XUDNAN_clean_linker_2, # of connection points: 2
#     Edge 35, Type (0, 1), BuildingBlock: XUDNAN_clean_linker_2, # of connection points: 2
# Relax obj value: 0.145
# Max RMSD: 0.192
# Mean RMSD: 0.141
data_MOF--net-pyr--node1-BETDAH_clean_sbu_0--node2-BETDAH_clean_linker_0--edge1-XUDNAN_clean_linker_2
_symmetry_space_group_name_H-M    P1
_symmetry_Int_Tables_number       1
_symmetry_cell_setting            triclinic
loop_
_symmetry_equiv_pos_as_xyz
'x, y, z'
_cell_length_a     36.97255
_cell_length_b     40.937924
_cell_length_c     38.30586
_cell_angle_alpha  91.892459
_cell_angle_beta   89.810259
_cell_angle_gamma 106.40781
loop_
_atom_site_label
_atom_site_type_symbol
_atom_site_fract_x
_atom_site_fract_y
_atom_site_fract_z
_atom_type_partial_charge
H0 H 0.34466 0.23418 0.24436 0.0
H1 H 0.42719 0.32685 0.21631 0.0
H2 H 0.32058 0.33004 0.25975 0.0
C3 C 0.35329 0.26167 0.24237 0.0
C4 C 0.32877 0.28034 0.25362 0.0
C5 C 0.38898 0.27813 0.22909 0.0
C6 C 0.40008 0.31384 0.22726 0.0
C7 C 0.37534 0.33275 0.23753 0.0
C8 C 0.33988 0.31583 0.25133 0.0
N9 N 0.38596 0.36841 0.23236 0.0
C10 C 0.35926 0.38632 0.23023 0.0
H11 H 0.29768 0.83701 0.72311 0.0
H12 H 0.18707 0.8517 0.726 0.0
H13 H 0.22006 0.79974 0.63763 0.0
C14 C 0.27014 0.83321 0.71128 0.0
C15 C 0.26222 0.81648 0.67843 0.0
C16 C 0.24322 0.84573 0.72882 0.0
C17 C 0.20784 0.84135 0.71325 0.0
C18 C 0.19969 0.82483 0.68039 0.0
C19 C 0.22667 0.81223 0.66315 0.0
N20 N 0.16567 0.82361 0.66317 0.0
C21 C 0.16233 0.85275 0.64776 0.0
H22 H 0.72037 0.36628 0.94283 0.0
H23 H 0.71139 0.4493 0.87973 0.0
H24 H 0.62505 0.35261 0.8747 0.0
C25 C 0.70563 0.37614 0.92314 0.0
C26 C 0.67136 0.35472 0.90975 0.0
C27 C 0.72041 0.41047 0.91348 0.0
C28 C 0.7012 0.42292 0.88688 0.0
C29 C 0.66673 0.40188 0.87202 0.0
C30 C 0.65195 0.36831 0.88468 0.0
N31 N 0.64233 0.41479 0.85001 0.0
C32 C 0.64932 0.43503 0.8199 0.0
H33 H 0.84387 0.74939 0.45673 0.0
H34 H 0.93915 0.77159 0.38852 0.0
H35 H 0.84876 0.67954 0.37037 0.0
C36 C 0.85829 0.7421 0.43444 0.0
C37 C 0.84115 0.71139 0.41518 0.0
C38 C 0.89345 0.76425 0.4251 0.0
C39 C 0.91173 0.75523 0.39553 0.0
C40 C 0.89624 0.72485 0.37545 0.0
C41 C 0.8606 0.70307 0.38523 0.0
N42 N 0.91945 0.71741 0.34757 0.0
C43 C 0.91273 0.69326 0.31938 0.0
H44 H 0.79173 0.82069 0.87088 0.0
H45 H 0.7022 0.77478 0.94075 0.0
H46 H 0.70477 0.86922 0.89279 0.0
C47 C 0.7654 0.82069 0.88343 0.0
C48 C 0.74998 0.84788 0.87869 0.0
C49 C 0.74843 0.7943 0.90563 0.0
C50 C 0.71543 0.79502 0.92336 0.0
C51 C 0.69933 0.82178 0.91879 0.0
C52 C 0.71685 0.84836 0.89651 0.0
N53 N 0.6657 0.82124 0.93707 0.0
C54 C 0.64878 0.84752 0.93678 0.0
H55 H 0.76746 0.14173 0.44814 0.0
H56 H 0.83353 0.21981 0.51875 0.0
H57 H 0.74145 0.23712 0.46124 0.0
C58 C 0.77319 0.16683 0.46065 0.0
C59 C 0.75123 0.18821 0.45186 0.0
C60 C 0.80308 0.17797 0.48461 0.0
C61 C 0.81032 0.21058 0.50044 0.0
C62 C 0.78774 0.23161 0.49301 0.0
C63 C 0.75844 0.22061 0.46814 0.0
N64 N 0.79493 0.26352 0.51116 0.0
C65 C 0.76715 0.27991 0.51529 0.0
H66 H 0.34569 0.7787 0.1754 0.0
H67 H 0.35726 0.71064 0.25624 0.0
H68 H 0.43646 0.81016 0.24988 0.0
C69 C 0.36002 0.77344 0.19821 0.0
C70 C 0.39236 0.79885 0.21069 0.0
C71 C 0.34668 0.7412 0.21376 0.0
C72 C 0.367 0.7346 0.24326 0.0
C73 C 0.39964 0.75929 0.25652 0.0
C74 C 0.41187 0.79102 0.23966 0.0
N75 N 0.42088 0.75453 0.28684 0.0
C76 C 0.41805 0.72633 0.30845 0.0
H77 H 0.23633 0.37994 0.67195 0.0
H78 H 0.22477 0.45059 0.75495 0.0
H79 H 0.14135 0.35328 0.74062 0.0
C80 C 0.22072 0.38657 0.69372 0.0
C81 C 0.187 0.36253 0.70371 0.0
C82 C 0.23509 0.41858 0.71148 0.0
C83 C 0.21485 0.4262 0.74113 0.0
C84 C 0.18082 0.40256 0.75194 0.0
C85 C 0.16769 0.37102 0.73296 0.0
N86 N 0.157 0.40916 0.77977 0.0
C87 C 0.16237 0.43431 0.80704 0.0
Ho88 Ho 0.05166 0.07139 0.52733 0.0
Ho89 Ho 0.04102 0.04929 0.604 0.0
C90 C 0.0806 0.12919 0.59157 0.0
C91 C 0.04512 0.098 0.46828 0.0
C92 C 0.06811 0.12344 0.44525 0.0
C93 C 0.05264 0.12935 0.41359 0.0
C94 C 0.07547 0.14955 0.38884 0.0
C95 C 0.11418 0.16407 0.3954 0.0
C96 C 0.12915 0.15953 0.42803 0.0
C97 C 0.10624 0.13926 0.4528 0.0
C98 C 0.10889 0.05016 0.55235 0.0
C99 C 0.01748 0.99189 0.53999 0.0
C100 C 0.03606 1.0208 0.66387 0.0
C101 C 1.00692 1.01243 0.69083 0.0
C102 C 1.00234 0.98268 0.70942 0.0
C103 C 0.97171 0.9716 0.73173 0.0
C104 C 0.94515 0.99016 0.73583 0.0
C105 C 0.95059 1.0207 0.71818 0.0
C106 C 0.98114 0.03165 0.69561 0.0
C107 C 0.98358 0.06768 0.5752 0.0
O108 O 0.07154 0.12226 0.55794 0.0
O109 O 0.07531 0.10441 0.61424 0.0
O110 O 0.05627 0.07062 0.47133 0.0
O111 O 0.03498 0.10924 0.49808 0.0
O112 O 0.10116 0.05038 0.51937 0.0
O113 O 0.08966 0.06595 0.56961 0.0
O114 O 0.03223 0.99924 0.57198 0.0
O115 O 1.016 1.01673 0.51919 0.0
O116 O 0.05294 0.05302 0.65963 0.0
O117 O 0.02672 1.00398 0.63426 0.0
O118 O 0.99171 0.07217 0.60814 0.0
O119 O 1.00367 0.05138 0.56097 0.0
H120 H 0.0232 0.11727 0.40746 0.0
H121 H 0.06307 0.15298 0.36413 0.0
H122 H 0.15892 0.17012 0.43372 0.0
H123 H 0.11857 0.13477 0.47716 0.0
H124 H 0.02182 0.96743 0.70582 0.0
H125 H 0.96845 0.94819 0.74537 0.0
H126 H 0.93042 0.03534 0.72071 0.0
H127 H 0.98395 0.0545 0.68111 0.0
Ho128 Ho 0.56349 0.08061 0.07628 0.0
Ho129 Ho 0.49532 0.07369 0.04117 0.0
C130 C 0.50416 0.11723 0.11048 0.0
C131 C 0.62565 0.1024 0.11161 0.0
C132 C 0.63181 0.10965 0.14917 0.0
C133 C 0.66784 0.12618 0.1623 0.0
C134 C 0.67329 0.13332 0.19817 0.0
C135 C 0.64271 0.12398 0.22133 0.0
C136 C 0.60659 0.10764 0.20788 0.0
C137 C 0.60119 0.10056 0.1721 0.0
C138 C 0.5116 1.02074 0.09407 0.0
C139 C 0.55302 0.03589 1.00901 0.0
C140 C 0.4322 0.05594 1.00658 0.0
C141 C 0.41054 0.02986 0.9813 0.0
C142 C 0.39378 0.99603 0.99068 0.0
C143 C 0.37113 0.97262 0.9667 0.0
C144 C 0.36505 0.98265 0.93299 0.0
C145 C 0.38209 1.01639 0.92367 0.0
C146 C 0.40445 0.03975 0.94762 0.0
C147 C 0.54817 0.1337 0.02544 0.0
O148 O 0.53928 0.11593 0.10928 0.0
O149 O 0.47903 0.09918 0.08815 0.0
O150 O 0.61063 0.07044 0.10262 0.0
O151 O 0.60974 0.12247 0.09572 0.0
O152 O 0.5471 0.02486 0.08884 0.0
O153 O 0.50485 0.0494 0.09048 0.0
O154 O 0.51715 0.03304 1.01482 0.0
O155 O 0.57905 0.05948 0.02608 0.0
O156 O 0.46306 0.07689 0.99513 0.0
O157 O 0.43583 0.04684 0.03841 0.0
O158 O 0.51336 0.1306 0.03336 0.0
O159 O 0.55395 0.10452 0.02715 0.0
H160 H 0.6917 0.13343 0.14486 0.0
H161 H 0.70153 0.14558 0.20782 0.0
H162 H 0.58244 0.10051 0.22499 0.0
H163 H 0.57308 0.08796 0.16229 0.0
H164 H 0.39777 0.98771 1.01657 0.0
H165 H 0.35852 0.94668 0.97444 0.0
H166 H 0.37744 0.02498 0.89806 0.0
H167 H 0.41656 0.06581 0.93994 0.0
Ho168 Ho 0.52474 0.54087 0.53764 0.0
Ho169 Ho 0.53967 0.60228 0.5785 0.0
C170 C 0.56854 0.54369 0.61291 0.0
C171 C 0.52765 0.48671 0.50229 0.0
C172 C 0.54704 0.4606 0.50695 0.0
C173 C 0.58038 0.46801 0.52671 0.0
C174 C 0.5989 0.44316 0.53097 0.0
C175 C 0.58456 0.41057 0.51523 0.0
C176 C 0.55081 0.40306 0.49585 0.0
C177 C 0.53214 0.42798 0.49179 0.0
C178 C 0.46493 0.54181 0.57975 0.0
C179 C 0.49762 0.599 0.50118 0.0
C180 C 0.53426 0.65551 0.6144 0.0
C181 C 0.51682 0.68311 0.60973 0.0
C182 C 0.49165 0.68164 0.58201 0.0
C183 C 0.47004 0.70456 0.58121 0.0
C184 C 0.47311 0.72916 0.60832 0.0
C185 C 0.5003 0.73206 0.63474 0.0
C186 C 0.52195 0.70911 0.63545 0.0
C187 C 0.60024 0.60078 0.5381 0.0
O188 O 0.56247 0.52994 0.58079 0.0
O189 O 0.55881 0.57191 0.62021 0.0
O190 O 0.50139 0.48708 0.52494 0.0
O191 O 0.54936 0.51718 0.49639 0.0
O192 O 0.46227 0.53194 0.54712 0.0
O193 O 0.49963 0.55179 0.58806 0.0
O194 O 0.50643 0.6154 0.53196 0.0
O195 O 0.50404 0.56911 0.49623 0.0
O196 O 0.56308 0.65541 0.59472 0.0
O197 O 0.51057 0.62525 0.61661 0.0
O198 O 0.6022 0.61112 0.57063 0.0
O199 O 0.56575 0.59115 0.52869 0.0
H200 H 0.59234 0.49311 0.53854 0.0
H201 H 0.62455 0.44952 0.54647 0.0
H202 H 0.53935 0.37826 0.48316 0.0
H203 H 0.50634 0.42192 0.47652 0.0
H204 H 0.487 0.66167 0.56204 0.0
H205 H 0.44912 0.70144 0.5607 0.0
H206 H 0.50357 0.75107 0.65574 0.0
H207 H 0.54132 0.71064 0.65702 0.0
Ho208 Ho 0.03653 0.53105 0.08196 0.0
Ho209 Ho 0.03867 0.6005 0.04205 0.0
C210 C 0.10935 0.59918 0.09384 0.0
C211 C 0.04871 0.47403 0.09707 0.0
C212 C 0.08044 0.46534 0.11371 0.0
C213 C 0.11778 0.48509 0.10872 0.0
C214 C 0.14742 0.47783 0.12646 0.0
C215 C 0.1402 0.45092 0.14973 0.0
C216 C 0.1028 0.43109 0.15445 0.0
C217 C 0.07319 0.43823 0.13654 0.0
C218 C 1.00596 0.57345 0.12274 0.0
C219 C 0.96491 0.53283 0.03189 0.0
C220 C 0.02598 0.65724 0.02673 0.0
C221 C 0.99359 0.66642 1.01166 0.0
C222 C 0.95775 0.65678 0.02719 0.0
C223 C 0.92726 0.66479 1.01176 0.0
C224 C 0.93191 0.68216 0.98032 0.0
C225 C 0.96774 0.69187 0.9649 0.0
C226 C 0.99831 0.68421 0.98052 0.0
C227 C 0.07019 0.55822 1.00172 0.0
O228 O 0.09439 0.5657 0.09708 0.0
O229 O 0.0925 0.61802 0.07547 0.0
O230 O 0.03019 0.48978 0.11745 0.0
O231 O 0.05486 0.48714 0.06617 0.0
O232 O 1.00997 0.54457 0.13243 0.0
O233 O 0.01876 0.57712 0.0918 0.0
O234 O 0.98033 0.56591 0.02651 0.0
O235 O 0.9816 0.51451 0.05102 0.0
O236 O 0.04306 0.64075 1.00564 0.0
O237 O 0.02194 0.64516 0.05815 0.0
O238 O 0.06705 0.58747 0.99225 0.0
O239 O 0.05651 0.55436 0.0323 0.0
H240 H 0.124 0.50642 0.09152 0.0
H241 H 0.1759 0.49376 0.12258 0.0
H242 H 0.09643 0.40995 0.17191 0.0
H243 H 0.04455 0.42285 0.14086 0.0
H244 H 0.95307 0.64276 0.05102 0.0
H245 H 0.89988 0.65686 0.02407 0.0
H246 H 0.97221 0.70568 0.94089 0.0
H247 H 0.02565 0.69195 0.9681 0.0
H248 H 0.29859 0.29126 0.31662 0.0
H249 H 0.2754 0.22845 0.22147 0.0
H250 H 0.21433 0.1955 0.24557 0.0
H251 H 0.26426 0.22472 0.37356 0.0
H252 H 0.24441 0.24876 0.40463 0.0
H253 H 0.28377 0.27028 0.3783 0.0
H254 H 0.24575 0.30969 0.35558 0.0
H255 H 0.20622 0.28832 0.38198 0.0
H256 H 0.20017 0.29112 0.3356 0.0
H257 H 0.15871 0.167 0.28122 0.0
H258 H 0.11331 0.14254 0.32719 0.0
H259 H 0.17299 0.22293 0.40018 0.0
C260 C 0.28016 0.27104 0.30069 0.0
C261 C 0.29125 0.26242 0.26717 0.0
C262 C 0.26711 0.23532 0.24721 0.0
C263 C 0.2324 0.21666 0.26059 0.0
C264 C 0.22245 0.22541 0.29398 0.0
C265 C 0.24561 0.25187 0.31385 0.0
C266 C 0.22978 0.25402 0.3501 0.0
C267 C 0.25718 0.24914 0.3783 0.0
C268 C 0.21989 0.2878 0.35616 0.0
C269 C 0.1946 0.2241 0.34778 0.0
C270 C 0.19061 0.20836 0.31498 0.0
C271 C 0.16121 0.17935 0.30687 0.0
C272 C 0.13546 0.16576 0.33312 0.0
C273 C 0.13944 0.18099 0.36718 0.0
C274 C 0.16921 0.21078 0.37437 0.0
H275 H 0.30733 0.89599 0.74507 0.0
H276 H 0.20155 0.83733 0.78897 0.0
H277 H 0.22095 0.86592 0.84678 0.0
H278 H 0.36528 0.89275 0.81767 0.0
H279 H 0.3954 0.9355 0.81324 0.0
H280 H 0.37227 0.91151 0.77536 0.0
H281 H 0.34213 0.95972 0.76173 0.0
H282 H 0.36537 0.98399 0.79943 0.0
H283 H 0.3149 0.97416 0.79484 0.0
H284 H 0.25397 0.89932 0.90037 0.0
H285 H 0.29572 0.9376 0.94423 0.0
H286 H 0.37952 0.97315 0.86412 0.0
C287 C 0.28822 0.88917 0.76685 0.0
C288 C 0.25308 0.86436 0.76278 0.0
C289 C 0.22854 0.85646 0.79166 0.0
C290 C 0.23941 0.87239 0.82453 0.0
C291 C 0.27472 0.89624 0.8278 0.0
C292 C 0.29855 0.90479 0.7996 0.0
C293 C 0.33504 0.931 0.80977 0.0
C294 C 0.36899 0.91683 0.80365 0.0
C295 C 0.3396 0.96418 0.79029 0.0
C296 C 0.32824 0.93577 0.84823 0.0
C297 C 0.29339 0.91549 0.85827 0.0
C298 C 0.28125 0.9154 0.89277 0.0
C299 C 0.30521 0.93698 0.91751 0.0
C300 C 0.34072 0.95836 0.90747 0.0
C301 C 0.35232 0.9574 0.87244 0.0
H302 H 0.61432 0.48575 0.80743 0.0
H303 H 0.67258 0.42008 0.75526 0.0
H304 H 0.65971 0.44134 0.69808 0.0
H305 H 0.54115 0.47603 0.74301 0.0
H306 H 0.53942 0.51959 0.74625 0.0
H307 H 0.55447 0.50057 0.78324 0.0
H308 H 0.61686 0.54909 0.78633 0.0
H309 H 0.60191 0.56836 0.74943 0.0
H310 H 0.64618 0.55804 0.74814 0.0
H311 H 0.63673 0.46752 0.64509 0.0
H312 H 0.60951 0.49777 0.60232 0.0
H313 H 0.5671 0.54922 0.68701 0.0
C314 C 0.62505 0.47635 0.784 0.0
C315 C 0.64529 0.45142 0.78631 0.0
C316 C 0.65777 0.43942 0.75467 0.0
C317 C 0.65032 0.45133 0.72186 0.0
C318 C 0.63016 0.47559 0.72041 0.0
C319 C 0.61797 0.48826 0.75075 0.0
C320 C 0.59643 0.51395 0.74169 0.0
C321 C 0.55544 0.50181 0.75431 0.0
C322 C 0.61654 0.54947 0.75733 0.0
C323 C 0.59812 0.51365 0.70164 0.0
C324 C 0.6176 0.49111 0.69001 0.0
C325 C 0.6218 0.48538 0.65421 0.0
C326 C 0.60601 0.50283 0.62984 0.0
C327 C 0.58611 0.52649 0.64056 0.0
C328 C 0.58245 0.53187 0.67739 0.0
H329 H 0.94582 0.64091 0.30926 0.0
H330 H 0.89584 0.70788 0.25372 0.0
H331 H 0.91444 0.68591 0.19733 0.0
H332 H 0.02533 0.64912 0.25387 0.0
H333 H 0.02567 0.60528 0.2559 0.0
H334 H 1.00676 0.62488 0.29163 0.0
H335 H 0.94352 0.5774 0.28649 0.0
H336 H 0.96243 0.55741 0.25104 0.0
H337 H 0.91916 0.56863 0.24504 0.0
H338 H 0.94259 0.65772 0.1455 0.0
H339 H 0.97196 0.62363 0.1055 0.0
H340 H 1.00279 0.57453 0.19443 0.0
C341 C 0.93794 0.65032 0.28518 0.0
C342 C 0.91844 0.67573 0.28613 0.0
C343 C 0.90988 0.68797 0.25388 0.0
C344 C 0.92069 0.67576 0.22159 0.0
C345 C 0.94032 0.65107 0.22148 0.0
C346 C 0.94841 0.63819 0.25257 0.0
C347 C 0.97007 0.612 0.2454 0.0
C348 C 1.00928 0.62352 0.26274 0.0
C349 C 0.94744 0.57677 0.25773 0.0
C350 C 0.97316 0.61223 0.20564 0.0
C351 C 0.95607 0.63508 0.19219 0.0
C352 C 0.956 0.63984 0.15605 0.0
C353 C 0.97324 0.62062 0.13332 0.0
C354 C 0.99046 0.59665 0.1464 0.0
C355 C 0.99017 0.59269 0.18325 0.0
H356 H 0.36831 0.22102 0.18682 0.0
H357 H 0.46486 0.28892 0.24082 0.0
H358 H 0.50475 0.25306 0.21919 0.0
H359 H 0.39073 0.14244 0.20256 0.0
H360 H 0.3743 0.12393 0.16014 0.0
H361 H 0.35358 0.15451 0.18069 0.0
H362 H 0.36937 0.19209 0.12641 0.0
H363 H 0.38986 0.16154 0.10562 0.0
H364 H 0.41728 0.20545 0.11103 0.0
H365 H 0.53375 0.20931 0.19104 0.0
H366 H 0.55047 0.1643 0.15542 0.0
H367 H 0.43414 0.12589 0.12032 0.0
C368 C 0.39777 0.22817 0.19443 0.0
C369 C 0.41351 0.25754 0.21573 0.0
C370 C 0.45235 0.26654 0.22442 0.0
C371 C 0.47508 0.24621 0.21248 0.0
C372 C 0.45847 0.21715 0.19182 0.0
C373 C 0.42074 0.20834 0.1827 0.0
C374 C 0.40984 0.1767 0.15917 0.0
C375 C 0.38037 0.14768 0.1767 0.0
C376 C 0.39578 0.18442 0.12345 0.0
C377 C 0.44742 0.16909 0.15617 0.0
C378 C 0.4751 0.19246 0.1754 0.0
C379 C 0.51226 0.19086 0.17595 0.0
C380 C 0.52145 0.16513 0.1557 0.0
C381 C 0.49362 0.14158 0.13503 0.0
C382 C 0.45607 0.1434 0.13587 0.0
H383 H 0.12433 0.89759 0.66818 0.0
H384 H 0.20125 0.87727 0.59049 0.0
H385 H 0.20183 0.93047 0.56112 0.0
H386 H 0.06934 0.92856 0.60902 0.0
H387 H 0.06081 0.95942 0.64008 0.0
H388 H 0.06975 0.92151 0.65524 0.0
H389 H 0.12454 0.95958 0.69367 0.0
H390 H 0.11607 0.99749 0.67714 0.0
H391 H 0.16218 0.991 0.67324 0.0
H392 H 0.18926 0.98215 0.53749 0.0
H393 H 0.16357 0.02876 0.52013 0.0
H394 H 0.09731 1.01784 0.61472 0.0
C395 C 0.14156 0.90475 0.6452 0.0
C396 C 0.16272 0.88382 0.63126 0.0
C397 C 0.18484 0.89332 0.60121 0.0
C398 C 0.18549 0.92347 0.58459 0.0
C399 C 0.1641 0.94371 0.59875 0.0
C400 C 0.14261 0.93484 0.62842 0.0
C401 C 0.11996 0.95964 0.63669 0.0
C402 C 0.07748 0.94119 0.63511 0.0
C403 C 0.13139 0.97802 0.67231 0.0
C404 C 0.13192 0.98383 0.60696 0.0
C405 C 0.1574 0.9741 0.5854 0.0
C406 C 0.16991 0.99046 0.55449 0.0
C407 C 0.15526 1.0169 0.54489 0.0
C408 C 0.12881 0.02696 0.56632 0.0
C409 C 0.11793 1.01094 0.59825 0.0
H410 H 0.79086 0.45581 0.89353 0.0
H411 H 0.72445 0.41553 0.98416 0.0
H412 H 0.77826 0.44283 0.02252 0.0
H413 H 0.87891 0.44719 0.92394 0.0
H414 H 0.90804 0.48689 0.90795 0.0
H415 H 0.86394 0.46572 0.88651 0.0
H416 H 0.84197 0.52004 0.89505 0.0
H417 H 0.88615 0.54146 0.91629 0.0
H418 H 0.84231 0.539 0.93825 0.0
H419 H 0.84059 0.4686 0.05159 0.0
H420 H 0.90583 0.49799 0.07025 0.0
H421 H 0.93421 0.5279 0.96383 0.0
C422 C 0.78744 0.45337 0.92148 0.0
C423 C 0.75291 0.4328 0.93546 0.0
C424 C 0.75028 0.43042 0.97238 0.0
C425 C 0.78088 0.44596 0.9946 0.0
C426 C 0.81462 0.46482 0.98015 0.0
C427 C 0.8181 0.46936 0.94454 0.0
C428 C 0.85814 0.49128 0.93651 0.0
C429 C 0.87845 0.47159 0.91228 0.0
C430 C 0.85707 0.52495 0.92057 0.0
C431 C 0.87647 0.49756 0.97294 0.0
C432 C 0.85062 0.48166 0.99754 0.0
C433 C 0.86084 0.48165 0.03261 0.0
C434 C 0.89816 0.49838 0.04302 0.0
C435 C 0.92533 0.51575 1.01887 0.0
C436 C 0.91407 0.51544 0.98319 0.0
H437 H 0.81327 0.69915 0.48297 0.0
H438 H 0.78115 0.67233 0.37465 0.0
H439 H 0.7176 0.63947 0.39374 0.0
H440 H 0.76012 0.61919 0.51978 0.0
H441 H 0.74738 0.63948 0.55851 0.0
H442 H 0.7907 0.65918 0.5363 0.0
H443 H 0.77027 0.71427 0.5308 0.0
H444 H 0.72691 0.69476 0.55299 0.0
H445 H 0.72568 0.71201 0.51046 0.0
H446 H 0.65457 0.61121 0.42575 0.0
H447 H 0.60123 0.59058 0.46645 0.0
H448 H 0.67441 0.63654 0.5536 0.0
C449 C 0.79304 0.68656 0.463 0.0
C450 C 0.80298 0.68888 0.42693 0.0
C451 C 0.77511 0.67103 0.40232 0.0
C452 C 0.73857 0.65236 0.413 0.0
C453 C 0.72972 0.6513 0.44861 0.0
C454 C 0.75642 0.66788 0.47321 0.0
C455 C 0.73987 0.66348 0.50986 0.0
C456 C 0.76076 0.64418 0.53244 0.0
C457 C 0.74074 0.69819 0.52703 0.0
C458 C 0.69954 0.64212 0.50223 0.0
C459 C 0.69415 0.63522 0.46673 0.0
C460 C 0.65884 0.61645 0.45354 0.0
C461 C 0.62853 0.60473 0.47694 0.0
C462 C 0.63323 0.61163 0.51345 0.0
C463 C 0.66958 0.63048 0.52598 0.0
H464 H 0.33817 0.41147 0.17191 0.0
H465 H 0.30941 0.39098 0.28024 0.0
H466 H 0.25109 0.40857 0.27242 0.0
H467 H 0.30074 0.48599 0.16576 0.0
H468 H 0.28367 0.47427 0.12178 0.0
H469 H 0.32462 0.46323 0.13701 0.0
H470 H 0.29248 0.3998 0.12026 0.0
H471 H 0.25137 0.41058 0.10525 0.0
H472 H 0.24683 0.37906 0.13798 0.0
H473 H 0.19371 0.42365 0.25127 0.0
H474 H 0.14224 0.43722 0.21906 0.0
H475 H 0.20867 0.44792 0.12434 0.0
C476 C 0.31994 0.41158 0.19409 0.0
C477 C 0.3281 0.40056 0.22679 0.0
C478 C 0.30354 0.39999 0.25518 0.0
C479 C 0.27045 0.40982 0.25093 0.0
C480 C 0.2627 0.42017 0.21813 0.0
C481 C 0.2869 0.4214 0.19026 0.0
C482 C 0.27109 0.43177 0.15733 0.0
C483 C 0.29655 0.46584 0.14474 0.0
C484 C 0.26509 0.40362 0.12852 0.0
C485 C 0.23391 0.43553 0.17082 0.0
C486 C 0.22965 0.42885 0.20597 0.0
C487 C 0.19688 0.42925 0.22383 0.0
C488 C 0.16772 0.43673 0.20528 0.0
C489 C 0.17152 0.44369 0.16925 0.0
C490 C 0.2052 0.44324 0.15198 0.0
H491 H 0.60028 0.32003 0.93724 0.0
H492 H 0.71021 0.30708 0.91365 0.0
H493 H 0.69124 0.25032 0.93951 0.0
H494 H 0.59047 0.28009 0.02066 0.0
H495 H 0.54059 0.25972 1.01629 0.0
H496 H 0.5617 0.29865 0.9942 0.0
H497 H 0.5353 0.26924 0.93516 0.0
H498 H 0.51393 0.23027 0.95712 0.0
H499 H 0.54569 0.23036 0.92131 0.0
H500 H 0.6605 0.19394 0.96977 0.0
H501 H 0.62095 0.14439 1.00099 0.0
H502 H 0.53104 0.19307 1.00717 0.0
C503 C 0.62014 0.30501 0.93696 0.0
C504 C 0.65695 0.31849 0.92285 0.0
C505 C 0.68199 0.29781 0.924 0.0
C506 C 0.6714 0.26531 0.93876 0.0
C507 C 0.63539 0.25306 0.95289 0.0
C508 C 0.61006 0.2723 0.95211 0.0
C509 C 0.57348 0.25343 0.97019 0.0
C510 C 0.56613 0.27421 1.00223 0.0
C511 C 0.54012 0.24535 0.94441 0.0
C512 C 0.58217 0.22078 0.98117 0.0
C513 C 0.61805 0.22104 0.9708 0.0
C514 C 0.63236 0.19365 0.97792 0.0
C515 C 0.60963 0.16543 0.9958 0.0
C516 C 0.57267 0.16433 1.00685 0.0
C517 C 0.5591 0.19277 0.99931 0.0
H518 H 0.92535 0.83178 0.40574 0.0
H519 H 0.90356 0.76813 0.49603 0.0
H520 H 0.93393 0.81821 0.53415 0.0
H521 H 1.01601 0.88814 0.43427 0.0
H522 H 1.00744 0.92604 0.41782 0.0
H523 H 0.9852 0.8851 0.39718 0.0
H524 H 0.91974 0.89515 0.40621 0.0
H525 H 0.9418 0.93614 0.42679 0.0
H526 H 0.90576 0.90516 0.44947 0.0
H527 H 0.96876 0.87548 0.56294 0.0
H528 H 0.99961 0.93545 0.58047 0.0
H529 H 0.9958 0.96429 0.47285 0.0
C530 C 0.92713 0.82838 0.43352 0.0
C531 C 0.91197 0.7956 0.4477 0.0
C532 C 0.91462 0.79268 0.48436 0.0
C533 C 0.93206 0.82109 0.50629 0.0
C534 C 0.94658 0.8529 0.4916 0.0
C535 C 0.94391 0.85684 0.45607 0.0
C536 C 0.96048 0.89426 0.44732 0.0
C537 C 0.99429 0.89864 0.42268 0.0
C538 C 0.93013 0.90851 0.43151 0.0
C539 C 0.97302 0.91065 0.48333 0.0
C540 C 0.9651 0.88616 0.50842 0.0
C541 C 0.97478 0.8948 0.54344 0.0
C542 C 0.9925 0.92914 0.5532 0.0
C543 C 1.00021 0.95511 0.52831 0.0
C544 C 0.99025 0.94537 0.49276 0.0
H545 H 0.31025 0.78463 0.70673 0.0
H546 H 0.28141 0.82202 0.60896 0.0
H547 H 0.33404 0.80571 0.58 0.0
H548 H 0.4103 0.8151 0.6969 0.0
H549 H 0.41905 0.77883 0.71696 0.0
H550 H 0.37841 0.79242 0.7294 0.0
H551 H 0.3346 0.73204 0.71394 0.0
H552 H 0.37512 0.71817 0.70192 0.0
H553 H 0.33709 0.71326 0.67107 0.0
H554 H 0.39068 0.78525 0.56221 0.0
H555 H 0.44432 0.76031 0.55681 0.0
H556 H 0.4358 0.73887 0.66719 0.0
C557 C 0.31503 0.78956 0.67925 0.0
C558 C 0.29182 0.80466 0.66011 0.0
C559 C 0.29862 0.8101 0.62403 0.0
C560 C 0.32862 0.80122 0.60746 0.0
C561 C 0.35149 0.78708 0.62741 0.0
C562 C 0.34485 0.78119 0.66249 0.0
C563 C 0.37327 0.76572 0.6783 0.0
C564 C 0.39664 0.78944 0.70708 0.0
C565 C 0.35385 0.73019 0.6921 0.0
C566 C 0.39694 0.76359 0.6466 0.0
C567 C 0.38411 0.77605 0.61745 0.0
C568 C 0.40105 0.77558 0.58492 0.0
C569 C 0.43143 0.7614 0.58209 0.0
C570 C 0.44449 0.74807 0.61168 0.0
C571 C 0.42717 0.74966 0.6443 0.0
H572 H 0.7822 0.84277 0.81534 0.0
H573 H 0.76454 0.91675 0.89231 0.0
H574 H 0.80755 0.96308 0.85972 0.0
H575 H 0.87737 0.87724 0.80897 0.0
H576 H 0.88053 0.86825 0.76286 0.0
H577 H 0.84282 0.84203 0.78789 0.0
H578 H 0.79355 0.85419 0.74606 0.0
H579 H 0.83118 0.88018 0.72052 0.0
H580 H 0.79494 0.89764 0.73782 0.0
H581 H 0.85943 1.00019 0.82298 0.0
H582 H 0.91445 0.02443 0.78525 0.0
H583 H 0.89906 0.92519 0.73442 0.0
C584 C 0.78674 0.8688 0.82497 0.0
C585 C 0.77006 0.87619 0.85634 0.0
C586 C 0.77662 0.91056 0.86806 0.0
C587 C 0.80113 0.93701 0.84979 0.0
C588 C 0.81852 0.9286 0.81978 0.0
C589 C 0.81126 0.89528 0.8073 0.0
C590 C 0.83616 0.89228 0.7767 0.0
C591 C 0.86067 0.86856 0.78461 0.0
C592 C 0.81254 0.88038 0.74329 0.0
C593 C 0.85968 0.92889 0.7747 0.0
C594 C 0.84875 0.94966 0.79926 0.0
C595 C 0.86784 0.98423 0.80333 0.0
C596 C 0.89902 0.99777 0.78186 0.0
C597 C 0.91103 0.9766 0.75714 0.0
C598 C 0.89068 0.9419 0.75332 0.0
H599 H 0.74793 0.22044 0.3916 0.0
H600 H 0.69284 0.13003 0.44804 0.0
H601 H 0.65282 0.1066 0.39636 0.0
H602 H 0.66421 0.22319 0.33688 0.0
H603 H 0.6936 0.23665 0.29941 0.0
H604 H 0.71222 0.24911 0.34281 0.0
H605 H 0.76712 0.22302 0.32921 0.0
H606 H 0.74847 0.21003 0.28608 0.0
H607 H 0.75662 0.1789 0.31494 0.0
H608 H 0.62562 0.08978 0.33679 0.0
H609 H 0.61285 0.08058 0.27351 0.0
H610 H 0.6866 0.1816 0.25523 0.0
C611 C 0.72634 0.19636 0.3934 0.0
C612 C 0.72282 0.17717 0.42375 0.0
C613 C 0.69545 0.14514 0.42499 0.0
C614 C 0.67264 0.13173 0.39585 0.0
C615 C 0.67769 0.15072 0.36577 0.0
C616 C 0.70369 0.18247 0.36439 0.0
C617 C 0.70674 0.19585 0.32779 0.0
C618 C 0.69338 0.22811 0.32667 0.0
C619 C 0.74713 0.20231 0.3137 0.0
C620 C 0.67957 0.16612 0.30856 0.0
C621 C 0.66257 0.14064 0.33104 0.0
C622 C 0.63816 0.10982 0.31902 0.0
C623 C 0.63105 0.10484 0.28305 0.0
C624 C 0.64861 0.13043 0.25949 0.0
C625 C 0.67284 0.16156 0.2726 0.0
H626 H 0.44904 0.74034 0.37525 0.0
H627 H 0.40187 0.65696 0.30125 0.0
H628 H 0.41531 0.61651 0.34272 0.0
H629 H 0.52462 0.70906 0.40681 0.0
H630 H 0.52175 0.72283 0.45166 0.0
H631 H 0.50733 0.74525 0.41703 0.0
H632 H 0.44194 0.73581 0.44562 0.0
H633 H 0.45619 0.71337 0.48035 0.0
H634 H 0.41437 0.69317 0.45505 0.0
H635 H 0.43638 0.58477 0.39175 0.0
H636 H 0.46156 0.56416 0.4433 0.0
H637 H 0.49523 0.66691 0.48863 0.0
C638 C 0.44109 0.71347 0.36796 0.0
C639 C 0.42384 0.70196 0.33468 0.0
C640 C 0.41461 0.6666 0.32633 0.0
C641 C 0.4223 0.64337 0.34989 0.0
C642 C 0.4394 0.65546 0.38225 0.0
C643 C 0.44855 0.68974 0.39146 0.0
C644 C 0.4673 0.69593 0.4278 0.0
C645 C 0.50765 0.71969 0.42569 0.0
C646 C 0.44353 0.71044 0.45374 0.0
C647 C 0.46757 0.65993 0.43754 0.0
C648 C 0.45129 0.6371 0.41069 0.0
C649 C 0.44894 0.60258 0.41283 0.0
C650 C 0.46355 0.59103 0.44257 0.0
C651 C 0.4806 0.61345 0.47087 0.0
C652 C 0.48221 0.64864 0.46807 0.0
H653 H 0.12852 0.48657 0.81601 0.0
H654 H 0.17975 0.4215 0.87311 0.0
H655 H 0.16169 0.44476 0.92901 0.0
H656 H 0.15578 0.56045 0.87829 0.0
H657 H 0.11235 0.57143 0.87235 0.0
H658 H 0.13074 0.55057 0.83723 0.0
H659 H 0.06754 0.50291 0.83378 0.0
H660 H 0.04915 0.52342 0.86916 0.0
H661 H 0.04964 0.47971 0.87232 0.0
H662 H 0.13417 0.4741 0.98031 0.0
H663 H 0.10526 0.50895 1.01978 0.0
H664 H 0.0728 0.55576 0.92986 0.0
C665 C 0.13673 0.47781 0.8403 0.0
C666 C 0.15645 0.45253 0.83989 0.0
C667 C 0.16549 0.44124 0.87247 0.0
C668 C 0.155 0.4542 0.90451 0.0
C669 C 0.13522 0.47876 0.90411 0.0
C670 C 0.12661 0.49075 0.87272 0.0
C671 C 0.10497 0.51707 0.87942 0.0
C672 C 0.12729 0.55195 0.86603 0.0
C673 C 0.06548 0.50505 0.86267 0.0
C674 C 0.1025 0.51792 0.91927 0.0
C675 C 0.11987 0.49548 0.93315 0.0
C676 C 0.12051 0.49165 0.96943 0.0
C677 C 0.10349 0.51131 0.99187 0.0
C678 C 0.08589 0.53485 0.97835 0.0
C679 C 0.08572 0.53796 0.94137 0.0
H680 H 0.67671 0.90984 0.96725 0.0
H681 H 0.58074 0.84536 0.90999 0.0
H682 H 0.54796 0.89039 0.91619 0.0
H683 H 0.62539 0.94169 0.02937 0.0
H684 H 0.65735 0.98408 0.03231 0.0
H685 H 0.67467 0.94861 1.01957 0.0
H686 H 0.70162 0.97868 0.96271 0.0
H687 H 0.68426 1.01429 0.9753 0.0
H688 H 0.67085 0.99235 0.93371 0.0
H689 H 0.52336 0.93963 0.93433 0.0
H690 H 0.50837 0.98902 0.96324 0.0
H691 H 0.62115 1.02194 1.00779 0.0
C692 C 0.6491 0.90567 0.95547 0.0
C693 C 0.63106 0.87461 0.93795 0.0
C694 C 0.59483 0.86934 0.92326 0.0
C695 C 0.57616 0.89474 0.9266 0.0
C696 C 0.59442 0.92516 0.94448 0.0
C697 C 0.63018 0.93078 0.95853 0.0
C698 C 0.64245 0.96455 0.9787 0.0
C699 C 0.65041 0.9594 1.01727 0.0
C700 C 0.67683 0.98891 0.96157 0.0
C701 C 0.60759 0.97659 0.97476 0.0
C702 C 0.58035 0.95369 0.95464 0.0
C703 C 0.5447 0.95804 0.94962 0.0
C704 C 0.53643 0.98615 0.96617 0.0
C705 C 0.56371 1.0095 0.98747 0.0
C706 C 0.59997 1.00496 0.99108 0.0
H707 H 0.83184 0.1688 0.54823 0.0
H708 H 0.82999 0.13822 0.4384 0.0
H709 H 0.87262 0.10338 0.45095 0.0
H710 H 0.92918 0.17937 0.56107 0.0
H711 H 0.92421 0.16384 0.60482 0.0
H712 H 0.89058 0.18375 0.58795 0.0
H713 H 0.83609 0.13007 0.60147 0.0
H714 H 0.86958 0.10997 0.61841 0.0
H715 H 0.83748 0.08904 0.58392 0.0
H716 H 0.91776 0.07493 0.47427 0.0
H717 H 0.96396 0.05472 0.50705 0.0
H718 H 0.93875 0.10551 0.60146 0.0
C719 C 0.84033 0.15473 0.52682 0.0
C720 C 0.82741 0.15601 0.49238 0.0
C721 C 0.83895 0.13706 0.4651 0.0
C722 C 0.86329 0.11735 0.47192 0.0
C723 C 0.87579 0.11699 0.50608 0.0
C724 C 0.86481 0.13516 0.53309 0.0
C725 C 0.88402 0.13186 0.56708 0.0
C726 C 0.90845 0.16678 0.58104 0.0
C727 C 0.85506 0.11417 0.59432 0.0
C728 C 0.90799 0.10938 0.55478 0.0
C729 C 0.9025 0.1009 0.51956 0.0
C730 C 0.92216 0.08117 0.50189 0.0
C731 C 0.94836 0.06992 0.52071 0.0
C732 C 0.95474 0.07868 0.55668 0.0
C733 C 0.93414 0.09841 0.57399 0.0
H734 H 0.28287 0.75017 0.17926 0.0
H735 H 0.33096 0.67071 0.21216 0.0
H736 H 0.27666 0.62739 0.18599 0.0
H737 H 0.1848 0.70442 0.19244 0.0
H738 H 0.16814 0.72041 0.15422 0.0
H739 H 0.21016 0.74548 0.17653 0.0
H740 H 0.2476 0.74881 0.11898 0.0
H741 H 0.2057 0.72371 0.09649 0.0
H742 H 0.24795 0.71002 0.09547 0.0
H743 H 0.21668 0.59171 0.15524 0.0
H744 H 0.15706 0.56712 0.12335 0.0
H745 H 0.14728 0.66877 0.10722 0.0
C746 C 0.28246 0.72374 0.18087 0.0
C747 C 0.31212 0.7145 0.19838 0.0
C748 C 0.30902 0.67916 0.19989 0.0
C749 C 0.27815 0.65411 0.18466 0.0
C750 C 0.24994 0.66421 0.16753 0.0
C751 C 0.25179 0.69823 0.16553 0.0
C752 C 0.21776 0.70218 0.14521 0.0
C753 C 0.1938 0.71913 0.16849 0.0
C754 C 0.23052 0.72238 0.11207 0.0
C755 C 0.19649 0.66509 0.13602 0.0
C756 C 0.21565 0.64368 0.14933 0.0
C757 C 0.20164 0.60839 0.14474 0.0
C758 C 0.16741 0.59457 0.12641 0.0
C759 C 0.14678 0.61564 0.11228 0.0
C760 C 0.16203 0.65163 0.11723 0.0
H761 H 0.2594 0.43089 0.64278 0.0
H762 H 0.29394 0.46244 0.74966 0.0
H763 H 0.35482 0.49886 0.72815 0.0
H764 H 0.34881 0.4249 0.6125 0.0
H765 H 0.344 0.44057 0.56984 0.0
H766 H 0.30264 0.41871 0.59365 0.0
H767 H 0.27608 0.47043 0.58824 0.0
H768 H 0.31737 0.49247 0.56438 0.0
H769 H 0.30405 0.51206 0.60331 0.0
H770 H 0.41517 0.53002 0.69382 0.0
H771 H 0.46592 0.55311 0.65122 0.0
H772 H 0.39184 0.50122 0.56685 0.0
C773 C 0.27963 0.44533 0.6619 0.0
C774 C 0.27125 0.44325 0.6983 0.0
C775 C 0.29889 0.46346 0.7218 0.0
C776 C 0.33389 0.48418 0.70972 0.0
C777 C 0.34133 0.48497 0.67381 0.0
C778 C 0.31468 0.46617 0.65027 0.0
C779 C 0.32954 0.4709 0.61304 0.0
C780 C 0.33135 0.43674 0.59628 0.0
C781 C 0.30532 0.48745 0.59094 0.0
C782 C 0.36892 0.49501 0.61911 0.0
C783 C 0.37528 0.50291 0.65436 0.0
C784 C 0.41011 0.52405 0.66622 0.0
C785 C 0.43893 0.53715 0.64173 0.0
C786 C 0.43321 0.52939 0.60543 0.0
C787 C 0.39736 0.5081 0.59426 0.0
H788 H 0.77094 0.7752 0.96767 0.0
H789 H 0.76995 0.75469 0.85593 0.0
H790 H 0.81137 0.71752 0.86399 0.0
H791 H 0.86481 0.78462 0.97995 0.0
H792 H 0.86113 0.7649 0.02169 0.0
H793 H 0.82574 0.78439 1.00834 0.0
H794 H 0.77359 0.72783 1.01692 0.0
H795 H 0.80884 0.70818 0.03076 0.0
H796 H 0.77738 0.68923 0.99512 0.0
H797 H 0.85987 0.69021 0.88285 0.0
H798 H 0.91079 0.67266 0.91163 0.0
H799 H 0.88099 0.71106 1.01128 0.0
C800 C 0.77828 0.76173 0.94516 0.0
C801 C 0.76699 0.7673 0.91125 0.0
C802 C 0.77816 0.75038 0.88212 0.0
C803 C 0.80158 0.72923 0.88647 0.0
C804 C 0.81344 0.72521 0.92014 0.0
C805 C 0.8019 0.74069 0.94906 0.0
C806 C 0.82191 0.73515 0.98186 0.0
C807 C 0.84475 0.76929 0.99894 0.0
C808 C 0.79374 0.71382 1.00769 0.0
C809 C 0.84749 0.7153 0.96664 0.0
C810 C 0.84181 0.70948 0.93107 0.0
C811 C 0.86412 0.69403 0.91079 0.0
C812 C 0.89313 0.68442 0.92728 0.0
C813 C 0.89962 0.69039 0.96364 0.0
C814 C 0.87611 0.70559 0.98356 0.0
H815 H 0.46462 0.83926 0.19112 0.0
H816 H 0.34713 0.83843 0.19163 0.0
H817 H 0.36402 0.89404 0.16339 0.0
H818 H 0.50488 0.93082 0.20731 0.0
H819 H 0.54407 0.93419 0.17818 0.0
H820 H 0.52307 0.89477 0.19948 0.0
H821 H 0.51175 0.86268 0.13942 0.0
H822 H 0.53269 0.90202 0.11797 0.0
H823 H 0.48576 0.87672 0.10611 0.0
H824 H 0.39441 0.95202 0.13474 0.0
H825 H 0.43462 1.00358 0.10682 0.0
H826 H 0.53211 0.96655 0.12182 0.0
C827 C 0.44243 0.85085 0.18557 0.0
C828 C 0.40423 0.83378 0.19399 0.0
C829 C 0.37643 0.85025 0.18552 0.0
C830 C 0.38585 0.88218 0.16946 0.0
C831 C 0.42347 0.89808 0.16129 0.0
C832 C 0.45134 0.88279 0.16888 0.0
C833 C 0.48948 0.90485 0.15628 0.0
C834 C 0.51701 0.91686 0.18715 0.0
C835 C 0.50589 0.8854 0.12829 0.0
C836 C 0.47882 0.93485 0.14064 0.0
C837 C 0.44059 0.93061 0.14402 0.0
C838 C 0.42436 0.95531 0.13196 0.0
C839 C 0.44749 0.98476 0.11609 0.0
C840 C 0.48675 0.98964 0.1118 0.0
C841 C 0.50227 0.96395 0.1244 0.0
H842 H 0.15367 0.29516 0.72493 0.0
H843 H 0.18422 0.35497 0.63234 0.0
H844 H 0.16107 0.30299 0.59527 0.0
H845 H 0.18019 0.22115 0.6911 0.0
H846 H 0.14159 0.19032 0.711 0.0
H847 H 0.15979 0.23224 0.73099 0.0
H848 H 0.09314 0.24078 0.72949 0.0
H849 H 0.07473 0.19885 0.70957 0.0
H850 H 0.06781 0.23541 0.6886 0.0
H851 H 0.13428 0.24457 0.56719 0.0
H852 H 0.10691 0.18414 0.55025 0.0
H853 H 0.09363 0.15901 0.65967 0.0
C854 C 0.15529 0.29737 0.69685 0.0
C855 C 0.17132 0.32976 0.68188 0.0
C856 C 0.17287 0.33091 0.64486 0.0
C857 C 0.15951 0.30133 0.6234 0.0
C858 C 0.14443 0.27003 0.63886 0.0
C859 C 0.14225 0.26769 0.67475 0.0
C860 C 0.12515 0.23044 0.68429 0.0
C861 C 0.15336 0.2178 0.70561 0.0
C862 C 0.088 0.22612 0.70417 0.0
C863 C 0.1181 0.21238 0.64824 0.0
C864 C 0.12936 0.23595 0.62251 0.0
C865 C 0.12547 0.22597 0.5872 0.0
C866 C 0.10972 0.19128 0.5778 0.0
C867 C 0.09791 0.16612 0.60334 0.0
C868 C 0.10243 0.17718 0.63924 0.0
H869 H 0.76805 0.34563 0.51019 0.0
H870 H 0.69571 0.244 0.52701 0.0
H871 H 0.64006 0.26644 0.53043 0.0
H872 H 0.71892 0.39072 0.56803 0.0
H873 H 0.72567 0.4263 0.53982 0.0
H874 H 0.75963 0.40225 0.54014 0.0
H875 H 0.75112 0.39105 0.47321 0.0
H876 H 0.71714 0.41502 0.4727 0.0
H877 H 0.7046 0.37177 0.45542 0.0
H878 H 0.59262 0.29995 0.53024 0.0
H879 H 0.5565 0.34226 0.5269 0.0
H880 H 0.66046 0.42148 0.50904 0.0
C881 C 0.74045 0.32834 0.51492 0.0
C882 C 0.73556 0.29338 0.51866 0.0
C883 C 0.69945 0.27103 0.52441 0.0
C884 C 0.66788 0.28351 0.52635 0.0
C885 C 0.67338 0.31828 0.52244 0.0
C886 C 0.70875 0.34039 0.5169 0.0
C887 C 0.7069 0.37642 0.51267 0.0
C888 C 0.72909 0.40032 0.54191 0.0
C889 C 0.72075 0.3893 0.47634 0.0
C890 C 0.66497 0.37109 0.51642 0.0
C891 C 0.64609 0.33745 0.52214 0.0
C892 C 0.60707 0.32641 0.52587 0.0
C893 C 0.58681 0.35051 0.52373 0.0
C894 C 0.60575 0.3851 0.5179 0.0
C895 C 0.64529 0.39534 0.51417 0.0
loop_
_geom_bond_atom_site_label_1
_geom_bond_atom_site_label_2
_geom_bond_distance
_geom_bond_site_symmetry_2
_ccdc_geom_bond_type
H0 C3 0.929 . S
H1 C6 0.929 . S
H2 C8 0.930 . S
C3 H0 0.929 . S
C3 C4 1.398 . S
C3 C5 1.396 . S
C4 C3 1.398 . S
C4 C8 1.407 . S
C5 C3 1.396 . S
C5 C6 1.394 . S
C6 H1 0.929 . S
C6 C5 1.394 . S
C6 C7 1.382 . S
C7 C6 1.382 . S
C7 C8 1.392 . S
C7 N9 1.420 . S
C8 H2 0.930 . S
C8 C4 1.407 . S
C8 C7 1.392 . S
N9 C7 1.420 . S
N9 C10 1.244 . S
C10 N9 1.244 . S
H11 C14 0.929 . S
H12 C17 0.929 . S
H13 C19 0.930 . S
C14 H11 0.929 . S
C14 C15 1.398 . S
C14 C16 1.396 . S
C15 C14 1.398 . S
C15 C19 1.407 . S
C16 C14 1.396 . S
C16 C17 1.394 . S
C17 H12 0.929 . S
C17 C16 1.394 . S
C17 C18 1.382 . S
C18 C17 1.382 . S
C18 C19 1.392 . S
C18 N20 1.420 . S
C19 H13 0.930 . S
C19 C15 1.407 . S
C19 C18 1.392 . S
N20 C18 1.420 . S
N20 C21 1.244 . S
C21 N20 1.244 . S
H22 C25 0.929 . S
H23 C28 0.929 . S
H24 C30 0.930 . S
C25 H22 0.929 . S
C25 C26 1.398 . S
C25 C27 1.396 . S
C26 C25 1.398 . S
C26 C30 1.407 . S
C27 C25 1.396 . S
C27 C28 1.394 . S
C28 H23 0.929 . S
C28 C27 1.394 . S
C28 C29 1.382 . S
C29 C28 1.382 . S
C29 C30 1.392 . S
C29 N31 1.420 . S
C30 H24 0.930 . S
C30 C26 1.407 . S
C30 C29 1.392 . S
N31 C29 1.420 . S
N31 C32 1.244 . S
C32 N31 1.244 . S
H33 C36 0.929 . S
H34 C39 0.929 . S
H35 C41 0.930 . S
C36 H33 0.929 . S
C36 C37 1.398 . S
C36 C38 1.396 . S
C37 C36 1.398 . S
C37 C41 1.407 . S
C38 C36 1.396 . S
C38 C39 1.394 . S
C39 H34 0.929 . S
C39 C38 1.394 . S
C39 C40 1.382 . S
C40 C39 1.382 . S
C40 C41 1.392 . S
C40 N42 1.420 . S
C41 H35 0.930 . S
C41 C37 1.407 . S
C41 C40 1.392 . S
N42 C40 1.420 . S
N42 C43 1.244 . S
C43 N42 1.244 . S
H44 C47 0.929 . S
H45 C50 0.929 . S
H46 C52 0.930 . S
C47 H44 0.929 . S
C47 C48 1.398 . S
C47 C49 1.396 . S
C48 C47 1.398 . S
C48 C52 1.407 . S
C49 C47 1.396 . S
C49 C50 1.394 . S
C50 H45 0.929 . S
C50 C49 1.394 . S
C50 C51 1.382 . S
C51 C50 1.382 . S
C51 C52 1.392 . S
C51 N53 1.420 . S
C52 H46 0.930 . S
C52 C48 1.407 . S
C52 C51 1.392 . S
N53 C51 1.420 . S
N53 C54 1.244 . S
C54 N53 1.244 . S
H55 C58 0.929 . S
H56 C61 0.929 . S
H57 C63 0.930 . S
C58 H55 0.929 . S
C58 C59 1.398 . S
C58 C60 1.396 . S
C59 C58 1.398 . S
C59 C63 1.407 . S
C60 C58 1.396 . S
C60 C61 1.394 . S
C61 H56 0.929 . S
C61 C60 1.394 . S
C61 C62 1.382 . S
C62 C61 1.382 . S
C62 C63 1.392 . S
C62 N64 1.420 . S
C63 H57 0.930 . S
C63 C59 1.407 . S
C63 C62 1.392 . S
N64 C62 1.420 . S
N64 C65 1.244 . S
C65 N64 1.244 . S
H66 C69 0.929 . S
H67 C72 0.929 . S
H68 C74 0.930 . S
C69 H66 0.929 . S
C69 C70 1.398 . S
C69 C71 1.396 . S
C70 C69 1.398 . S
C70 C74 1.407 . S
C71 C69 1.396 . S
C71 C72 1.394 . S
C72 H67 0.929 . S
C72 C71 1.394 . S
C72 C73 1.382 . S
C73 C72 1.382 . S
C73 C74 1.392 . S
C73 N75 1.420 . S
C74 H68 0.930 . S
C74 C70 1.407 . S
C74 C73 1.392 . S
N75 C73 1.420 . S
N75 C76 1.244 . S
C76 N75 1.244 . S
H77 C80 0.929 . S
H78 C83 0.929 . S
H79 C85 0.930 . S
C80 H77 0.929 . S
C80 C81 1.398 . S
C80 C82 1.396 . S
C81 C80 1.398 . S
C81 C85 1.407 . S
C82 C80 1.396 . S
C82 C83 1.394 . S
C83 H78 0.929 . S
C83 C82 1.394 . S
C83 C84 1.382 . S
C84 C83 1.382 . S
C84 C85 1.392 . S
C84 N86 1.420 . S
C85 H79 0.930 . S
C85 C81 1.407 . S
C85 C84 1.392 . S
N86 C84 1.420 . S
N86 C87 1.244 . S
C87 N86 1.244 . S
Ho88 C91 2.811 . S
Ho88 O108 2.322 . S
Ho88 O110 2.378 . S
Ho88 O111 2.524 . S
Ho88 O112 2.381 . S
Ho88 O113 2.669 . S
Ho88 O115 2.346 1_445 S
Ho88 O119 2.305 1_455 S
Ho89 C100 2.811 1_545 S
Ho89 O109 2.346 1_655 S
Ho89 O113 2.305 1_655 S
Ho89 O114 2.322 1_545 S
Ho89 O116 2.378 1_545 S
Ho89 O117 2.524 1_545 S
Ho89 O118 2.381 . S
Ho89 O119 2.669 . S
C90 O108 1.259 . S
C90 O109 1.268 . S
C91 Ho88 2.811 . S
C91 C92 1.488 . S
C91 O110 1.215 . S
C91 O111 1.289 . S
C92 C91 1.488 . S
C92 C93 1.348 . S
C92 C97 1.413 . S
C93 C92 1.348 . S
C93 C94 1.442 . S
C93 H120 0.930 . S
C94 C93 1.442 . S
C94 C95 1.381 . S
C94 H121 0.931 . S
C95 C94 1.381 . S
C95 C96 1.321 . S
C96 C95 1.321 . S
C96 C97 1.403 . S
C96 H122 0.934 . S
C97 C92 1.413 . S
C97 C96 1.403 . S
C97 H123 0.930 . S
C98 O112 1.275 1_565 S
C98 O113 1.256 1_565 S
C99 O114 1.259 . S
C99 O115 1.268 . S
C100 Ho89 2.811 1_565 S
C100 C101 1.488 . S
C100 O116 1.215 . S
C100 O117 1.289 . S
C101 C100 1.488 . S
C101 C102 1.348 . S
C101 C106 1.413 . S
C102 C101 1.348 . S
C102 C103 1.442 . S
C102 H124 0.930 . S
C103 C102 1.442 . S
C103 C104 1.381 . S
C103 H125 0.931 . S
C104 C103 1.381 . S
C104 C105 1.321 . S
C105 C104 1.321 . S
C105 C106 1.403 . S
C105 H126 0.934 . S
C106 C101 1.413 . S
C106 C105 1.403 . S
C106 H127 0.930 . S
C107 O118 1.275 . S
C107 O119 1.256 . S
O108 Ho88 2.322 . S
O108 C90 1.259 . S
O109 Ho89 2.346 1_455 S
O109 C90 1.268 . S
O110 Ho88 2.378 . S
O110 C91 1.215 . S
O111 Ho88 2.524 . S
O111 C91 1.289 . S
O112 Ho88 2.381 . S
O112 C98 1.275 1_545 S
O113 Ho88 2.669 . S
O113 Ho89 2.305 1_455 S
O113 C98 1.256 1_545 S
O114 Ho89 2.322 1_565 S
O114 C99 1.259 . S
O115 Ho88 2.346 1_665 S
O115 C99 1.268 . S
O116 Ho89 2.378 1_565 S
O116 C100 1.215 . S
O117 Ho89 2.524 1_565 S
O117 C100 1.289 . S
O118 Ho89 2.381 . S
O118 C107 1.275 . S
O119 Ho88 2.305 1_655 S
O119 Ho89 2.669 . S
O119 C107 1.256 . S
H120 C93 0.930 . S
H121 C94 0.931 . S
H122 C96 0.934 . S
H123 C97 0.930 . S
H124 C102 0.930 . S
H125 C103 0.931 . S
H126 C105 0.934 . S
H127 C106 0.930 . S
Ho128 C131 2.811 . S
Ho128 O148 2.322 . S
Ho128 O150 2.378 . S
Ho128 O151 2.524 . S
Ho128 O152 2.381 1_545 S
Ho128 O153 2.669 1_545 S
Ho128 O155 2.346 1_545 S
Ho128 O159 2.305 . S
Ho129 C140 2.811 1_544 S
Ho129 O149 2.346 . S
Ho129 O153 2.305 1_545 S
Ho129 O154 2.322 . S
Ho129 O156 2.378 1_554 S
Ho129 O157 2.524 1_544 S
Ho129 O158 2.381 . S
Ho129 O159 2.669 . S
C130 O148 1.259 . S
C130 O149 1.268 . S
C131 Ho128 2.811 . S
C131 C132 1.488 . S
C131 O150 1.215 . S
C131 O151 1.289 . S
C132 C131 1.488 . S
C132 C133 1.348 . S
C132 C137 1.413 . S
C133 C132 1.348 . S
C133 C134 1.442 . S
C133 H160 0.930 . S
C134 C133 1.442 . S
C134 C135 1.381 . S
C134 H161 0.931 . S
C135 C134 1.381 . S
C135 C136 1.321 . S
C136 C135 1.321 . S
C136 C137 1.403 . S
C136 H162 0.934 . S
C137 C132 1.413 . S
C137 C136 1.403 . S
C137 H163 0.930 . S
C138 O152 1.275 . S
C138 O153 1.256 . S
C139 O154 1.259 1_565 S
C139 O155 1.268 . S
C140 Ho129 2.811 1_566 S
C140 C141 1.488 . S
C140 O156 1.215 1_565 S
C140 O157 1.289 . S
C141 C140 1.488 . S
C141 C142 1.348 . S
C141 C146 1.413 . S
C142 C141 1.348 . S
C142 C143 1.442 . S
C142 H164 0.930 . S
C143 C142 1.442 . S
C143 C144 1.381 . S
C143 H165 0.931 . S
C144 C143 1.381 . S
C144 C145 1.321 . S
C145 C144 1.321 . S
C145 C146 1.403 . S
C145 H166 0.934 . S
C146 C141 1.413 . S
C146 C145 1.403 . S
C146 H167 0.959 . S
C147 O158 1.275 . S
C147 O159 1.256 . S
O148 Ho128 2.322 . S
O148 C130 1.259 . S
O149 Ho129 2.346 . S
O149 C130 1.268 . S
O150 Ho128 2.378 . S
O150 C131 1.215 . S
O151 Ho128 2.524 . S
O151 C131 1.289 . S
O152 Ho128 2.381 1_565 S
O152 C138 1.275 . S
O153 Ho128 2.669 1_565 S
O153 Ho129 2.305 1_565 S
O153 C138 1.256 . S
O154 Ho129 2.322 . S
O154 C139 1.259 1_545 S
O155 Ho128 2.346 1_565 S
O155 C139 1.268 . S
O156 Ho129 2.378 1_556 S
O156 C140 1.215 1_545 S
O157 Ho129 2.524 1_566 S
O157 C140 1.289 . S
O158 Ho129 2.381 . S
O158 C147 1.275 . S
O159 Ho128 2.305 . S
O159 Ho129 2.669 . S
O159 C147 1.256 . S
H160 C133 0.930 . S
H161 C134 0.931 . S
H162 C136 0.934 . S
H163 C137 0.930 . S
H164 C142 0.930 . S
H165 C143 0.931 . S
H166 C145 0.934 . S
H167 C146 0.959 . S
Ho168 C171 2.811 . S
Ho168 O188 2.322 . S
Ho168 O190 2.378 . S
Ho168 O191 2.524 . S
Ho168 O192 2.381 . S
Ho168 O193 2.669 . S
Ho168 O195 2.346 . S
Ho168 O199 2.305 . S
Ho169 C180 2.811 . S
Ho169 O189 2.346 . S
Ho169 O193 2.305 . S
Ho169 O194 2.322 . S
Ho169 O196 2.378 . S
Ho169 O197 2.524 . S
Ho169 O198 2.381 . S
Ho169 O199 2.669 . S
C170 O188 1.259 . S
C170 O189 1.268 . S
C171 Ho168 2.811 . S
C171 C172 1.488 . S
C171 O190 1.215 . S
C171 O191 1.289 . S
C172 C171 1.488 . S
C172 C173 1.348 . S
C172 C177 1.413 . S
C173 C172 1.348 . S
C173 C174 1.442 . S
C173 H200 0.930 . S
C174 C173 1.442 . S
C174 C175 1.381 . S
C174 H201 0.931 . S
C175 C174 1.381 . S
C175 C176 1.321 . S
C176 C175 1.321 . S
C176 C177 1.403 . S
C176 H202 0.934 . S
C177 C172 1.413 . S
C177 C176 1.403 . S
C177 H203 0.930 . S
C178 O192 1.275 . S
C178 O193 1.256 . S
C179 O194 1.259 . S
C179 O195 1.268 . S
C180 Ho169 2.811 . S
C180 C181 1.488 . S
C180 O196 1.215 . S
C180 O197 1.289 . S
C181 C180 1.488 . S
C181 C182 1.348 . S
C181 C186 1.413 . S
C182 C181 1.348 . S
C182 C183 1.442 . S
C182 H204 0.930 . S
C183 C182 1.442 . S
C183 C184 1.381 . S
C183 H205 0.931 . S
C184 C183 1.381 . S
C184 C185 1.321 . S
C185 C184 1.321 . S
C185 C186 1.403 . S
C185 H206 0.934 . S
C186 C181 1.413 . S
C186 C185 1.403 . S
C186 H207 0.930 . S
C187 O198 1.275 . S
C187 O199 1.256 . S
O188 Ho168 2.322 . S
O188 C170 1.259 . S
O189 Ho169 2.346 . S
O189 C170 1.268 . S
O190 Ho168 2.378 . S
O190 C171 1.215 . S
O191 Ho168 2.524 . S
O191 C171 1.289 . S
O192 Ho168 2.381 . S
O192 C178 1.275 . S
O193 Ho168 2.669 . S
O193 Ho169 2.305 . S
O193 C178 1.256 . S
O194 Ho169 2.322 . S
O194 C179 1.259 . S
O195 Ho168 2.346 . S
O195 C179 1.268 . S
O196 Ho169 2.378 . S
O196 C180 1.215 . S
O197 Ho169 2.524 . S
O197 C180 1.289 . S
O198 Ho169 2.381 . S
O198 C187 1.275 . S
O199 Ho168 2.305 . S
O199 Ho169 2.669 . S
O199 C187 1.256 . S
H200 C173 0.930 . S
H201 C174 0.931 . S
H202 C176 0.934 . S
H203 C177 0.930 . S
H204 C182 0.930 . S
H205 C183 0.931 . S
H206 C185 0.934 . S
H207 C186 0.930 . S
Ho208 C211 2.811 . S
Ho208 O228 2.322 . S
Ho208 O230 2.378 . S
Ho208 O231 2.524 . S
Ho208 O232 2.381 . S
Ho208 O233 2.669 . S
Ho208 O235 2.346 1_455 S
Ho208 O239 2.305 1_554 S
Ho209 C220 2.809 1_455 S
Ho209 O229 2.347 1_556 S
Ho209 O233 2.308 1_556 S
Ho209 O234 2.321 1_455 S
Ho209 O236 2.358 1_455 S
Ho209 O237 2.524 1_456 S
Ho209 O238 2.378 . S
Ho209 O239 2.669 . S
C210 O228 1.259 . S
C210 O229 1.268 . S
C211 Ho208 2.811 . S
C211 C212 1.488 . S
C211 O230 1.215 . S
C211 O231 1.289 . S
C212 C211 1.488 . S
C212 C213 1.348 . S
C212 C217 1.413 . S
C213 C212 1.348 . S
C213 C214 1.442 . S
C213 H240 0.930 . S
C214 C213 1.442 . S
C214 C215 1.381 . S
C214 H241 0.931 . S
C215 C214 1.381 . S
C215 C216 1.321 . S
C216 C215 1.321 . S
C216 C217 1.403 . S
C216 H242 0.934 . S
C217 C212 1.413 . S
C217 C216 1.403 . S
C217 H243 0.930 . S
C218 O232 1.275 1_655 S
C218 O233 1.256 1_655 S
C219 O234 1.259 . S
C219 O235 1.268 1_556 S
C220 Ho209 2.809 1_655 S
C220 C221 1.488 . S
C220 O236 1.244 . S
C220 O237 1.289 1_556 S
C221 C220 1.488 . S
C221 C222 1.348 . S
C221 C226 1.413 . S
C222 C221 1.348 . S
C222 C223 1.442 . S
C222 H244 0.930 . S
C223 C222 1.442 . S
C223 C224 1.381 . S
C223 H245 0.931 . S
C224 C223 1.381 . S
C224 C225 1.321 . S
C225 C224 1.321 . S
C225 C226 1.403 . S
C225 H246 0.934 . S
C226 C221 1.413 . S
C226 C225 1.403 . S
C226 H247 0.930 . S
C227 O238 1.275 . S
C227 O239 1.256 . S
O228 Ho208 2.322 . S
O228 C210 1.259 . S
O229 Ho209 2.347 1_554 S
O229 C210 1.268 . S
O230 Ho208 2.378 . S
O230 C211 1.215 . S
O231 Ho208 2.524 . S
O231 C211 1.289 . S
O232 Ho208 2.381 . S
O232 C218 1.275 1_455 S
O233 Ho208 2.669 . S
O233 Ho209 2.308 1_554 S
O233 C218 1.256 1_455 S
O234 Ho209 2.321 1_655 S
O234 C219 1.259 . S
O235 Ho208 2.346 1_655 S
O235 C219 1.268 1_554 S
O236 Ho209 2.358 1_655 S
O236 C220 1.244 . S
O237 Ho209 2.524 1_654 S
O237 C220 1.289 1_554 S
O238 Ho209 2.378 . S
O238 C227 1.275 . S
O239 Ho208 2.305 1_556 S
O239 Ho209 2.669 . S
O239 C227 1.256 . S
H240 C213 0.930 . S
H241 C214 0.931 . S
H242 C216 0.934 . S
H243 C217 0.930 . S
H244 C222 0.930 . S
H245 C223 0.931 . S
H246 C225 0.934 . S
H247 C226 0.930 . S
H248 C260 0.930 . S
H249 C262 0.930 . S
H250 C263 0.930 . S
H251 C267 0.959 . S
H252 C267 0.959 . S
H253 C267 0.961 . S
H254 C268 0.960 . S
H255 C268 0.961 . S
H256 C268 0.959 . S
H257 C271 0.929 . S
H258 C272 0.931 . S
H259 C274 0.930 . S
C260 H248 0.930 . S
C260 C261 1.399 . S
C260 C265 1.399 . S
C261 C260 1.399 . S
C261 C262 1.376 . S
C262 H249 0.930 . S
C262 C261 1.376 . S
C262 C263 1.388 . S
C263 H250 0.930 . S
C263 C262 1.388 . S
C263 C264 1.390 . S
C264 C263 1.390 . S
C264 C265 1.394 . S
C264 C270 1.465 . S
C265 C260 1.399 . S
C265 C264 1.394 . S
C265 C266 1.516 . S
C266 C265 1.516 . S
C266 C267 1.502 . S
C266 C268 1.561 . S
C266 C269 1.526 . S
C267 H251 0.959 . S
C267 H252 0.959 . S
C267 H253 0.961 . S
C267 C266 1.502 . S
C268 H254 0.960 . S
C268 H255 0.961 . S
C268 H256 0.959 . S
C268 C266 1.561 . S
C269 C266 1.526 . S
C269 C270 1.396 . S
C269 C274 1.390 . S
C270 C264 1.465 . S
C270 C269 1.396 . S
C270 C271 1.399 . S
C271 H257 0.929 . S
C271 C270 1.399 . S
C271 C272 1.385 . S
C272 H258 0.931 . S
C272 C271 1.385 . S
C272 C273 1.389 . S
C273 C272 1.389 . S
C273 C274 1.387 . S
C274 H259 0.930 . S
C274 C269 1.390 . S
C274 C273 1.387 . S
H275 C287 0.930 . S
H276 C289 0.930 . S
H277 C290 0.930 . S
H278 C294 0.959 . S
H279 C294 0.959 . S
H280 C294 0.961 . S
H281 C295 0.960 . S
H282 C295 0.961 . S
H283 C295 0.959 . S
H284 C298 0.929 . S
H285 C299 0.931 . S
H286 C301 0.930 . S
C287 H275 0.930 . S
C287 C288 1.399 . S
C287 C292 1.399 . S
C288 C287 1.399 . S
C288 C289 1.376 . S
C289 H276 0.930 . S
C289 C288 1.376 . S
C289 C290 1.388 . S
C290 H277 0.930 . S
C290 C289 1.388 . S
C290 C291 1.390 . S
C291 C290 1.390 . S
C291 C292 1.394 . S
C291 C297 1.465 . S
C292 C287 1.399 . S
C292 C291 1.394 . S
C292 C293 1.516 . S
C293 C292 1.516 . S
C293 C294 1.502 . S
C293 C295 1.561 . S
C293 C296 1.526 . S
C294 H278 0.959 . S
C294 H279 0.959 . S
C294 H280 0.961 . S
C294 C293 1.502 . S
C295 H281 0.960 . S
C295 H282 0.961 . S
C295 H283 0.959 . S
C295 C293 1.561 . S
C296 C293 1.526 . S
C296 C297 1.396 . S
C296 C301 1.390 . S
C297 C291 1.465 . S
C297 C296 1.396 . S
C297 C298 1.399 . S
C298 H284 0.929 . S
C298 C297 1.399 . S
C298 C299 1.385 . S
C299 H285 0.931 . S
C299 C298 1.385 . S
C299 C300 1.389 . S
C300 C299 1.389 . S
C300 C301 1.387 . S
C301 H286 0.930 . S
C301 C296 1.390 . S
C301 C300 1.387 . S
H302 C314 0.930 . S
H303 C316 0.930 . S
H304 C317 0.930 . S
H305 C321 0.959 . S
H306 C321 0.959 . S
H307 C321 0.961 . S
H308 C322 0.960 . S
H309 C322 0.961 . S
H310 C322 0.959 . S
H311 C325 0.929 . S
H312 C326 0.931 . S
H313 C328 0.930 . S
C314 H302 0.930 . S
C314 C315 1.399 . S
C314 C319 1.399 . S
C315 C314 1.399 . S
C315 C316 1.376 . S
C316 H303 0.930 . S
C316 C315 1.376 . S
C316 C317 1.388 . S
C317 H304 0.930 . S
C317 C316 1.388 . S
C317 C318 1.390 . S
C318 C317 1.390 . S
C318 C319 1.394 . S
C318 C324 1.465 . S
C319 C314 1.399 . S
C319 C318 1.394 . S
C319 C320 1.516 . S
C320 C319 1.516 . S
C320 C321 1.502 . S
C320 C322 1.561 . S
C320 C323 1.526 . S
C321 H305 0.959 . S
C321 H306 0.959 . S
C321 H307 0.961 . S
C321 C320 1.502 . S
C322 H308 0.960 . S
C322 H309 0.961 . S
C322 H310 0.959 . S
C322 C320 1.561 . S
C323 C320 1.526 . S
C323 C324 1.396 . S
C323 C328 1.390 . S
C324 C318 1.465 . S
C324 C323 1.396 . S
C324 C325 1.399 . S
C325 H311 0.929 . S
C325 C324 1.399 . S
C325 C326 1.385 . S
C326 H312 0.931 . S
C326 C325 1.385 . S
C326 C327 1.389 . S
C327 C326 1.389 . S
C327 C328 1.387 . S
C328 H313 0.930 . S
C328 C323 1.390 . S
C328 C327 1.387 . S
H329 C341 0.930 . S
H330 C343 0.930 . S
H331 C344 0.930 . S
H332 C348 0.959 . S
H333 C348 0.959 . S
H334 C348 0.961 . S
H335 C349 0.960 . S
H336 C349 0.961 . S
H337 C349 0.959 . S
H338 C352 0.929 . S
H339 C353 0.931 . S
H340 C355 0.930 . S
C341 H329 0.930 . S
C341 C342 1.399 . S
C341 C346 1.399 . S
C342 C341 1.399 . S
C342 C343 1.376 . S
C343 H330 0.930 . S
C343 C342 1.376 . S
C343 C344 1.388 . S
C344 H331 0.930 . S
C344 C343 1.388 . S
C344 C345 1.390 . S
C345 C344 1.390 . S
C345 C346 1.394 . S
C345 C351 1.465 . S
C346 C341 1.399 . S
C346 C345 1.394 . S
C346 C347 1.516 . S
C347 C346 1.516 . S
C347 C348 1.502 . S
C347 C349 1.561 . S
C347 C350 1.526 . S
C348 H332 0.959 . S
C348 H333 0.959 . S
C348 H334 0.961 . S
C348 C347 1.502 . S
C349 H335 0.960 . S
C349 H336 0.961 . S
C349 H337 0.959 . S
C349 C347 1.561 . S
C350 C347 1.526 . S
C350 C351 1.396 . S
C350 C355 1.390 . S
C351 C345 1.465 . S
C351 C350 1.396 . S
C351 C352 1.399 . S
C352 H338 0.929 . S
C352 C351 1.399 . S
C352 C353 1.385 . S
C353 H339 0.931 . S
C353 C352 1.385 . S
C353 C354 1.389 . S
C354 C353 1.389 . S
C354 C355 1.387 . S
C355 H340 0.930 . S
C355 C350 1.390 . S
C355 C354 1.387 . S
H356 C368 0.930 . S
H357 C370 0.930 . S
H358 C371 0.930 . S
H359 C375 0.959 . S
H360 C375 0.959 . S
H361 C375 0.961 . S
H362 C376 0.960 . S
H363 C376 0.961 . S
H364 C376 0.959 . S
H365 C379 0.929 . S
H366 C380 0.931 . S
H367 C382 0.930 . S
C368 H356 0.930 . S
C368 C369 1.399 . S
C368 C373 1.399 . S
C369 C368 1.399 . S
C369 C370 1.376 . S
C370 H357 0.930 . S
C370 C369 1.376 . S
C370 C371 1.388 . S
C371 H358 0.930 . S
C371 C370 1.388 . S
C371 C372 1.390 . S
C372 C371 1.390 . S
C372 C373 1.394 . S
C372 C378 1.465 . S
C373 C368 1.399 . S
C373 C372 1.394 . S
C373 C374 1.516 . S
C374 C373 1.516 . S
C374 C375 1.502 . S
C374 C376 1.561 . S
C374 C377 1.526 . S
C375 H359 0.959 . S
C375 H360 0.959 . S
C375 H361 0.961 . S
C375 C374 1.502 . S
C376 H362 0.960 . S
C376 H363 0.961 . S
C376 H364 0.959 . S
C376 C374 1.561 . S
C377 C374 1.526 . S
C377 C378 1.396 . S
C377 C382 1.390 . S
C378 C372 1.465 . S
C378 C377 1.396 . S
C378 C379 1.399 . S
C379 H365 0.929 . S
C379 C378 1.399 . S
C379 C380 1.385 . S
C380 H366 0.931 . S
C380 C379 1.385 . S
C380 C381 1.389 . S
C381 C380 1.389 . S
C381 C382 1.387 . S
C382 H367 0.930 . S
C382 C377 1.390 . S
C382 C381 1.387 . S
H383 C395 0.930 . S
H384 C397 0.930 . S
H385 C398 0.930 . S
H386 C402 0.959 . S
H387 C402 0.959 . S
H388 C402 0.961 . S
H389 C403 0.960 . S
H390 C403 0.961 . S
H391 C403 0.959 . S
H392 C406 0.929 . S
H393 C407 0.931 1_545 S
H394 C409 0.930 . S
C395 H383 0.930 . S
C395 C396 1.399 . S
C395 C400 1.399 . S
C396 C395 1.399 . S
C396 C397 1.376 . S
C397 H384 0.930 . S
C397 C396 1.376 . S
C397 C398 1.388 . S
C398 H385 0.930 . S
C398 C397 1.388 . S
C398 C399 1.390 . S
C399 C398 1.390 . S
C399 C400 1.394 . S
C399 C405 1.465 . S
C400 C395 1.399 . S
C400 C399 1.394 . S
C400 C401 1.516 . S
C401 C400 1.516 . S
C401 C402 1.502 . S
C401 C403 1.561 . S
C401 C404 1.526 . S
C402 H386 0.959 . S
C402 H387 0.959 . S
C402 H388 0.961 . S
C402 C401 1.502 . S
C403 H389 0.960 . S
C403 H390 0.961 . S
C403 H391 0.959 . S
C403 C401 1.561 . S
C404 C401 1.526 . S
C404 C405 1.396 . S
C404 C409 1.390 . S
C405 C399 1.465 . S
C405 C404 1.396 . S
C405 C406 1.399 . S
C406 H392 0.929 . S
C406 C405 1.399 . S
C406 C407 1.385 . S
C407 H393 0.931 1_565 S
C407 C406 1.385 . S
C407 C408 1.389 . S
C408 C407 1.389 . S
C408 C409 1.387 . S
C409 H394 0.930 . S
C409 C404 1.390 . S
C409 C408 1.387 . S
H410 C422 0.930 . S
H411 C424 0.930 . S
H412 C425 0.930 . S
H413 C429 0.959 . S
H414 C429 0.959 . S
H415 C429 0.961 . S
H416 C430 0.960 . S
H417 C430 0.961 . S
H418 C430 0.959 . S
H419 C433 0.929 1_554 S
H420 C434 0.931 . S
H421 C436 0.930 . S
C422 H410 0.930 . S
C422 C423 1.399 . S
C422 C427 1.399 . S
C423 C422 1.399 . S
C423 C424 1.376 . S
C424 H411 0.930 . S
C424 C423 1.376 . S
C424 C425 1.388 . S
C425 H412 0.930 . S
C425 C424 1.388 . S
C425 C426 1.390 . S
C426 C425 1.390 . S
C426 C427 1.394 . S
C426 C432 1.465 . S
C427 C422 1.399 . S
C427 C426 1.394 . S
C427 C428 1.516 . S
C428 C427 1.516 . S
C428 C429 1.502 . S
C428 C430 1.561 . S
C428 C431 1.526 . S
C429 H413 0.959 . S
C429 H414 0.959 . S
C429 H415 0.961 . S
C429 C428 1.502 . S
C430 H416 0.960 . S
C430 H417 0.961 . S
C430 H418 0.959 . S
C430 C428 1.561 . S
C431 C428 1.526 . S
C431 C432 1.396 . S
C431 C436 1.390 . S
C432 C426 1.465 . S
C432 C431 1.396 . S
C432 C433 1.399 . S
C433 H419 0.929 1_556 S
C433 C432 1.399 . S
C433 C434 1.385 1_556 S
C434 H420 0.931 . S
C434 C433 1.385 1_554 S
C434 C435 1.389 1_554 S
C435 C434 1.389 1_556 S
C435 C436 1.387 . S
C436 H421 0.930 . S
C436 C431 1.390 . S
C436 C435 1.387 . S
H437 C449 0.930 . S
H438 C451 0.930 . S
H439 C452 0.930 . S
H440 C456 0.959 . S
H441 C456 0.959 . S
H442 C456 0.961 . S
H443 C457 0.960 . S
H444 C457 0.961 . S
H445 C457 0.959 . S
H446 C460 0.929 . S
H447 C461 0.931 . S
H448 C463 0.930 . S
C449 H437 0.930 . S
C449 C450 1.399 . S
C449 C454 1.399 . S
C450 C449 1.399 . S
C450 C451 1.376 . S
C451 H438 0.930 . S
C451 C450 1.376 . S
C451 C452 1.388 . S
C452 H439 0.930 . S
C452 C451 1.388 . S
C452 C453 1.390 . S
C453 C452 1.390 . S
C453 C454 1.394 . S
C453 C459 1.465 . S
C454 C449 1.399 . S
C454 C453 1.394 . S
C454 C455 1.516 . S
C455 C454 1.516 . S
C455 C456 1.502 . S
C455 C457 1.561 . S
C455 C458 1.526 . S
C456 H440 0.959 . S
C456 H441 0.959 . S
C456 H442 0.961 . S
C456 C455 1.502 . S
C457 H443 0.960 . S
C457 H444 0.961 . S
C457 H445 0.959 . S
C457 C455 1.561 . S
C458 C455 1.526 . S
C458 C459 1.396 . S
C458 C463 1.390 . S
C459 C453 1.465 . S
C459 C458 1.396 . S
C459 C460 1.399 . S
C460 H446 0.929 . S
C460 C459 1.399 . S
C460 C461 1.385 . S
C461 H447 0.931 . S
C461 C460 1.385 . S
C461 C462 1.389 . S
C462 C461 1.389 . S
C462 C463 1.387 . S
C463 H448 0.930 . S
C463 C458 1.390 . S
C463 C462 1.387 . S
H464 C476 0.930 . S
H465 C478 0.930 . S
H466 C479 0.930 . S
H467 C483 0.959 . S
H468 C483 0.959 . S
H469 C483 0.961 . S
H470 C484 0.960 . S
H471 C484 0.961 . S
H472 C484 0.959 . S
H473 C487 0.929 . S
H474 C488 0.931 . S
H475 C490 0.930 . S
C476 H464 0.930 . S
C476 C477 1.399 . S
C476 C481 1.399 . S
C477 C476 1.399 . S
C477 C478 1.376 . S
C478 H465 0.930 . S
C478 C477 1.376 . S
C478 C479 1.388 . S
C479 H466 0.930 . S
C479 C478 1.388 . S
C479 C480 1.390 . S
C480 C479 1.390 . S
C480 C481 1.394 . S
C480 C486 1.465 . S
C481 C476 1.399 . S
C481 C480 1.394 . S
C481 C482 1.516 . S
C482 C481 1.516 . S
C482 C483 1.502 . S
C482 C484 1.561 . S
C482 C485 1.526 . S
C483 H467 0.959 . S
C483 H468 0.959 . S
C483 H469 0.961 . S
C483 C482 1.502 . S
C484 H470 0.960 . S
C484 H471 0.961 . S
C484 H472 0.959 . S
C484 C482 1.561 . S
C485 C482 1.526 . S
C485 C486 1.396 . S
C485 C490 1.390 . S
C486 C480 1.465 . S
C486 C485 1.396 . S
C486 C487 1.399 . S
C487 H473 0.929 . S
C487 C486 1.399 . S
C487 C488 1.385 . S
C488 H474 0.931 . S
C488 C487 1.385 . S
C488 C489 1.389 . S
C489 C488 1.389 . S
C489 C490 1.387 . S
C490 H475 0.930 . S
C490 C485 1.390 . S
C490 C489 1.387 . S
H491 C503 0.930 . S
H492 C505 0.930 . S
H493 C506 0.930 . S
H494 C510 0.959 . S
H495 C510 0.959 . S
H496 C510 0.961 . S
H497 C511 0.960 . S
H498 C511 0.961 . S
H499 C511 0.959 . S
H500 C514 0.929 . S
H501 C515 0.931 . S
H502 C517 0.930 . S
C503 H491 0.930 . S
C503 C504 1.399 . S
C503 C508 1.399 . S
C504 C503 1.399 . S
C504 C505 1.376 . S
C505 H492 0.930 . S
C505 C504 1.376 . S
C505 C506 1.388 . S
C506 H493 0.930 . S
C506 C505 1.388 . S
C506 C507 1.390 . S
C507 C506 1.390 . S
C507 C508 1.394 . S
C507 C513 1.465 . S
C508 C503 1.399 . S
C508 C507 1.394 . S
C508 C509 1.516 . S
C509 C508 1.516 . S
C509 C510 1.502 1_556 S
C509 C511 1.561 . S
C509 C512 1.526 . S
C510 H494 0.959 . S
C510 H495 0.959 . S
C510 H496 0.961 . S
C510 C509 1.502 1_554 S
C511 H497 0.960 . S
C511 H498 0.961 . S
C511 H499 0.959 . S
C511 C509 1.561 . S
C512 C509 1.526 . S
C512 C513 1.396 . S
C512 C517 1.390 1_556 S
C513 C507 1.465 . S
C513 C512 1.396 . S
C513 C514 1.399 . S
C514 H500 0.929 . S
C514 C513 1.399 . S
C514 C515 1.385 . S
C515 H501 0.931 . S
C515 C514 1.385 . S
C515 C516 1.389 . S
C516 C515 1.389 . S
C516 C517 1.387 1_556 S
C517 H502 0.930 . S
C517 C512 1.390 1_554 S
C517 C516 1.387 1_554 S
H518 C530 0.930 . S
H519 C532 0.930 . S
H520 C533 0.930 . S
H521 C537 0.959 . S
H522 C537 0.959 . S
H523 C537 0.961 . S
H524 C538 0.960 . S
H525 C538 0.961 . S
H526 C538 0.959 . S
H527 C541 0.929 . S
H528 C542 0.931 . S
H529 C544 0.930 . S
C530 H518 0.930 . S
C530 C531 1.399 . S
C530 C535 1.399 . S
C531 C530 1.399 . S
C531 C532 1.376 . S
C532 H519 0.930 . S
C532 C531 1.376 . S
C532 C533 1.388 . S
C533 H520 0.930 . S
C533 C532 1.388 . S
C533 C534 1.390 . S
C534 C533 1.390 . S
C534 C535 1.394 . S
C534 C540 1.465 . S
C535 C530 1.399 . S
C535 C534 1.394 . S
C535 C536 1.516 . S
C536 C535 1.516 . S
C536 C537 1.502 . S
C536 C538 1.561 . S
C536 C539 1.526 . S
C537 H521 0.959 . S
C537 H522 0.959 . S
C537 H523 0.961 . S
C537 C536 1.502 . S
C538 H524 0.960 . S
C538 H525 0.961 . S
C538 H526 0.959 . S
C538 C536 1.561 . S
C539 C536 1.526 . S
C539 C540 1.396 . S
C539 C544 1.390 . S
C540 C534 1.465 . S
C540 C539 1.396 . S
C540 C541 1.399 . S
C541 H527 0.929 . S
C541 C540 1.399 . S
C541 C542 1.385 . S
C542 H528 0.931 . S
C542 C541 1.385 . S
C542 C543 1.389 . S
C543 C542 1.389 . S
C543 C544 1.387 . S
C544 H529 0.930 . S
C544 C539 1.390 . S
C544 C543 1.387 . S
H545 C557 0.930 . S
H546 C559 0.930 . S
H547 C560 0.930 . S
H548 C564 0.959 . S
H549 C564 0.959 . S
H550 C564 0.961 . S
H551 C565 0.960 . S
H552 C565 0.961 . S
H553 C565 0.959 . S
H554 C568 0.929 . S
H555 C569 0.931 . S
H556 C571 0.930 . S
C557 H545 0.930 . S
C557 C558 1.399 . S
C557 C562 1.399 . S
C558 C557 1.399 . S
C558 C559 1.376 . S
C559 H546 0.930 . S
C559 C558 1.376 . S
C559 C560 1.388 . S
C560 H547 0.930 . S
C560 C559 1.388 . S
C560 C561 1.390 . S
C561 C560 1.390 . S
C561 C562 1.394 . S
C561 C567 1.465 . S
C562 C557 1.399 . S
C562 C561 1.394 . S
C562 C563 1.516 . S
C563 C562 1.516 . S
C563 C564 1.502 . S
C563 C565 1.561 . S
C563 C566 1.526 . S
C564 H548 0.959 . S
C564 H549 0.959 . S
C564 H550 0.961 . S
C564 C563 1.502 . S
C565 H551 0.960 . S
C565 H552 0.961 . S
C565 H553 0.959 . S
C565 C563 1.561 . S
C566 C563 1.526 . S
C566 C567 1.396 . S
C566 C571 1.390 . S
C567 C561 1.465 . S
C567 C566 1.396 . S
C567 C568 1.399 . S
C568 H554 0.929 . S
C568 C567 1.399 . S
C568 C569 1.385 . S
C569 H555 0.931 . S
C569 C568 1.385 . S
C569 C570 1.389 . S
C570 C569 1.389 . S
C570 C571 1.387 . S
C571 H556 0.930 . S
C571 C566 1.390 . S
C571 C570 1.387 . S
H572 C584 0.930 . S
H573 C586 0.930 . S
H574 C587 0.930 . S
H575 C591 0.959 . S
H576 C591 0.959 . S
H577 C591 0.961 . S
H578 C592 0.960 . S
H579 C592 0.961 . S
H580 C592 0.959 . S
H581 C595 0.929 . S
H582 C596 0.931 . S
H583 C598 0.930 . S
C584 H572 0.930 . S
C584 C585 1.399 . S
C584 C589 1.399 . S
C585 C584 1.399 . S
C585 C586 1.376 . S
C586 H573 0.930 . S
C586 C585 1.376 . S
C586 C587 1.388 . S
C587 H574 0.930 . S
C587 C586 1.388 . S
C587 C588 1.390 . S
C588 C587 1.390 . S
C588 C589 1.394 . S
C588 C594 1.465 . S
C589 C584 1.399 . S
C589 C588 1.394 . S
C589 C590 1.516 . S
C590 C589 1.516 . S
C590 C591 1.502 . S
C590 C592 1.561 . S
C590 C593 1.526 . S
C591 H575 0.959 . S
C591 H576 0.959 . S
C591 H577 0.961 . S
C591 C590 1.502 . S
C592 H578 0.960 . S
C592 H579 0.961 . S
C592 H580 0.959 . S
C592 C590 1.561 . S
C593 C590 1.526 . S
C593 C594 1.396 . S
C593 C598 1.390 . S
C594 C588 1.465 . S
C594 C593 1.396 . S
C594 C595 1.399 . S
C595 H581 0.929 . S
C595 C594 1.399 . S
C595 C596 1.385 . S
C596 H582 0.931 . S
C596 C595 1.385 . S
C596 C597 1.389 . S
C597 C596 1.389 . S
C597 C598 1.387 . S
C598 H583 0.930 . S
C598 C593 1.390 . S
C598 C597 1.387 . S
H599 C611 0.930 . S
H600 C613 0.930 . S
H601 C614 0.930 . S
H602 C618 0.959 . S
H603 C618 0.959 . S
H604 C618 0.961 . S
H605 C619 0.960 . S
H606 C619 0.961 . S
H607 C619 0.959 . S
H608 C622 0.929 . S
H609 C623 0.931 . S
H610 C625 0.930 . S
C611 H599 0.930 . S
C611 C612 1.399 . S
C611 C616 1.399 . S
C612 C611 1.399 . S
C612 C613 1.376 . S
C613 H600 0.930 . S
C613 C612 1.376 . S
C613 C614 1.388 . S
C614 H601 0.930 . S
C614 C613 1.388 . S
C614 C615 1.390 . S
C615 C614 1.390 . S
C615 C616 1.394 . S
C615 C621 1.465 . S
C616 C611 1.399 . S
C616 C615 1.394 . S
C616 C617 1.516 . S
C617 C616 1.516 . S
C617 C618 1.502 . S
C617 C619 1.561 . S
C617 C620 1.526 . S
C618 H602 0.959 . S
C618 H603 0.959 . S
C618 H604 0.961 . S
C618 C617 1.502 . S
C619 H605 0.960 . S
C619 H606 0.961 . S
C619 H607 0.959 . S
C619 C617 1.561 . S
C620 C617 1.526 . S
C620 C621 1.396 . S
C620 C625 1.390 . S
C621 C615 1.465 . S
C621 C620 1.396 . S
C621 C622 1.399 . S
C622 H608 0.929 . S
C622 C621 1.399 . S
C622 C623 1.385 . S
C623 H609 0.931 . S
C623 C622 1.385 . S
C623 C624 1.389 . S
C624 C623 1.389 . S
C624 C625 1.387 . S
C625 H610 0.930 . S
C625 C620 1.390 . S
C625 C624 1.387 . S
H626 C638 0.930 . S
H627 C640 0.930 . S
H628 C641 0.930 . S
H629 C645 0.959 . S
H630 C645 0.959 . S
H631 C645 0.961 . S
H632 C646 0.960 . S
H633 C646 0.961 . S
H634 C646 0.959 . S
H635 C649 0.929 . S
H636 C650 0.931 . S
H637 C652 0.930 . S
C638 H626 0.930 . S
C638 C639 1.399 . S
C638 C643 1.399 . S
C639 C638 1.399 . S
C639 C640 1.376 . S
C640 H627 0.930 . S
C640 C639 1.376 . S
C640 C641 1.388 . S
C641 H628 0.930 . S
C641 C640 1.388 . S
C641 C642 1.390 . S
C642 C641 1.390 . S
C642 C643 1.394 . S
C642 C648 1.465 . S
C643 C638 1.399 . S
C643 C642 1.394 . S
C643 C644 1.516 . S
C644 C643 1.516 . S
C644 C645 1.502 . S
C644 C646 1.561 . S
C644 C647 1.526 . S
C645 H629 0.959 . S
C645 H630 0.959 . S
C645 H631 0.961 . S
C645 C644 1.502 . S
C646 H632 0.960 . S
C646 H633 0.961 . S
C646 H634 0.959 . S
C646 C644 1.561 . S
C647 C644 1.526 . S
C647 C648 1.396 . S
C647 C652 1.390 . S
C648 C642 1.465 . S
C648 C647 1.396 . S
C648 C649 1.399 . S
C649 H635 0.929 . S
C649 C648 1.399 . S
C649 C650 1.385 . S
C650 H636 0.931 . S
C650 C649 1.385 . S
C650 C651 1.389 . S
C651 C650 1.389 . S
C651 C652 1.387 . S
C652 H637 0.930 . S
C652 C647 1.390 . S
C652 C651 1.387 . S
H653 C665 0.930 . S
H654 C667 0.930 . S
H655 C668 0.930 . S
H656 C672 0.959 . S
H657 C672 0.959 . S
H658 C672 0.961 . S
H659 C673 0.960 . S
H660 C673 0.961 . S
H661 C673 0.959 . S
H662 C676 0.929 . S
H663 C677 0.931 . S
H664 C679 0.930 . S
C665 H653 0.930 . S
C665 C666 1.399 . S
C665 C670 1.399 . S
C666 C665 1.399 . S
C666 C667 1.376 . S
C667 H654 0.930 . S
C667 C666 1.376 . S
C667 C668 1.388 . S
C668 H655 0.930 . S
C668 C667 1.388 . S
C668 C669 1.390 . S
C669 C668 1.390 . S
C669 C670 1.394 . S
C669 C675 1.465 . S
C670 C665 1.399 . S
C670 C669 1.394 . S
C670 C671 1.516 . S
C671 C670 1.516 . S
C671 C672 1.502 . S
C671 C673 1.561 . S
C671 C674 1.526 . S
C672 H656 0.959 . S
C672 H657 0.959 . S
C672 H658 0.961 . S
C672 C671 1.502 . S
C673 H659 0.960 . S
C673 H660 0.961 . S
C673 H661 0.959 . S
C673 C671 1.561 . S
C674 C671 1.526 . S
C674 C675 1.396 . S
C674 C679 1.390 . S
C675 C669 1.465 . S
C675 C674 1.396 . S
C675 C676 1.399 . S
C676 H662 0.929 . S
C676 C675 1.399 . S
C676 C677 1.385 . S
C677 H663 0.931 . S
C677 C676 1.385 . S
C677 C678 1.389 . S
C678 C677 1.389 . S
C678 C679 1.387 . S
C679 H664 0.930 . S
C679 C674 1.390 . S
C679 C678 1.387 . S
H680 C692 0.930 . S
H681 C694 0.930 . S
H682 C695 0.930 . S
H683 C699 0.959 . S
H684 C699 0.959 . S
H685 C699 0.961 . S
H686 C700 0.960 . S
H687 C700 0.961 . S
H688 C700 0.959 . S
H689 C703 0.929 . S
H690 C704 0.942 . S
H691 C706 0.930 . S
C692 H680 0.930 . S
C692 C693 1.399 . S
C692 C697 1.399 . S
C693 C692 1.399 . S
C693 C694 1.376 . S
C694 H681 0.930 . S
C694 C693 1.376 . S
C694 C695 1.388 . S
C695 H682 0.930 . S
C695 C694 1.388 . S
C695 C696 1.390 . S
C696 C695 1.390 . S
C696 C697 1.394 . S
C696 C702 1.465 . S
C697 C692 1.399 . S
C697 C696 1.394 . S
C697 C698 1.516 . S
C698 C697 1.516 . S
C698 C699 1.502 . S
C698 C700 1.561 . S
C698 C701 1.526 . S
C699 H683 0.959 . S
C699 H684 0.959 . S
C699 H685 0.961 . S
C699 C698 1.502 . S
C700 H686 0.960 . S
C700 H687 0.961 . S
C700 H688 0.959 . S
C700 C698 1.561 . S
C701 C698 1.526 . S
C701 C702 1.396 . S
C701 C706 1.390 . S
C702 C696 1.465 . S
C702 C701 1.396 . S
C702 C703 1.399 . S
C703 H689 0.929 . S
C703 C702 1.399 . S
C703 C704 1.380 1_556 S
C704 H690 0.942 . S
C704 C703 1.380 1_554 S
C704 C705 1.384 1_554 S
C705 C704 1.384 1_556 S
C705 C706 1.387 . S
C706 H691 0.930 . S
C706 C701 1.390 . S
C706 C705 1.387 . S
H707 C719 0.930 . S
H708 C721 0.930 . S
H709 C722 0.930 . S
H710 C726 0.959 . S
H711 C726 0.959 . S
H712 C726 0.961 . S
H713 C727 0.960 . S
H714 C727 0.961 . S
H715 C727 0.959 . S
H716 C730 0.929 . S
H717 C731 0.931 . S
H718 C733 0.930 . S
C719 H707 0.930 . S
C719 C720 1.399 . S
C719 C724 1.399 . S
C720 C719 1.399 . S
C720 C721 1.376 . S
C721 H708 0.930 . S
C721 C720 1.376 . S
C721 C722 1.388 . S
C722 H709 0.930 . S
C722 C721 1.388 . S
C722 C723 1.390 . S
C723 C722 1.390 . S
C723 C724 1.394 . S
C723 C729 1.465 . S
C724 C719 1.399 . S
C724 C723 1.394 . S
C724 C725 1.516 . S
C725 C724 1.516 . S
C725 C726 1.502 . S
C725 C727 1.561 . S
C725 C728 1.526 . S
C726 H710 0.959 . S
C726 H711 0.959 . S
C726 H712 0.961 . S
C726 C725 1.502 . S
C727 H713 0.960 . S
C727 H714 0.961 . S
C727 H715 0.959 . S
C727 C725 1.561 . S
C728 C725 1.526 . S
C728 C729 1.396 . S
C728 C733 1.390 . S
C729 C723 1.465 . S
C729 C728 1.396 . S
C729 C730 1.399 . S
C730 H716 0.929 . S
C730 C729 1.399 . S
C730 C731 1.385 . S
C731 H717 0.931 . S
C731 C730 1.385 . S
C731 C732 1.389 . S
C732 C731 1.389 . S
C732 C733 1.387 . S
C733 H718 0.930 . S
C733 C728 1.390 . S
C733 C732 1.387 . S
H734 C746 0.930 . S
H735 C748 0.930 . S
H736 C749 0.930 . S
H737 C753 0.959 . S
H738 C753 0.959 . S
H739 C753 0.961 . S
H740 C754 0.960 . S
H741 C754 0.961 . S
H742 C754 0.959 . S
H743 C757 0.929 . S
H744 C758 0.931 . S
H745 C760 0.930 . S
C746 H734 0.930 . S
C746 C747 1.399 . S
C746 C751 1.399 . S
C747 C746 1.399 . S
C747 C748 1.376 . S
C748 H735 0.930 . S
C748 C747 1.376 . S
C748 C749 1.388 . S
C749 H736 0.930 . S
C749 C748 1.388 . S
C749 C750 1.390 . S
C750 C749 1.390 . S
C750 C751 1.394 . S
C750 C756 1.465 . S
C751 C746 1.399 . S
C751 C750 1.394 . S
C751 C752 1.516 . S
C752 C751 1.516 . S
C752 C753 1.502 . S
C752 C754 1.561 . S
C752 C755 1.526 . S
C753 H737 0.959 . S
C753 H738 0.959 . S
C753 H739 0.961 . S
C753 C752 1.502 . S
C754 H740 0.960 . S
C754 H741 0.961 . S
C754 H742 0.959 . S
C754 C752 1.561 . S
C755 C752 1.526 . S
C755 C756 1.396 . S
C755 C760 1.390 . S
C756 C750 1.465 . S
C756 C755 1.396 . S
C756 C757 1.399 . S
C757 H743 0.929 . S
C757 C756 1.399 . S
C757 C758 1.385 . S
C758 H744 0.931 . S
C758 C757 1.385 . S
C758 C759 1.389 . S
C759 C758 1.389 . S
C759 C760 1.387 . S
C760 H745 0.930 . S
C760 C755 1.390 . S
C760 C759 1.387 . S
H761 C773 0.930 . S
H762 C775 0.930 . S
H763 C776 0.930 . S
H764 C780 0.959 . S
H765 C780 0.959 . S
H766 C780 0.961 . S
H767 C781 0.960 . S
H768 C781 0.961 . S
H769 C781 0.959 . S
H770 C784 0.929 . S
H771 C785 0.931 . S
H772 C787 0.930 . S
C773 H761 0.930 . S
C773 C774 1.399 . S
C773 C778 1.399 . S
C774 C773 1.399 . S
C774 C775 1.376 . S
C775 H762 0.930 . S
C775 C774 1.376 . S
C775 C776 1.388 . S
C776 H763 0.930 . S
C776 C775 1.388 . S
C776 C777 1.390 . S
C777 C776 1.390 . S
C777 C778 1.394 . S
C777 C783 1.465 . S
C778 C773 1.399 . S
C778 C777 1.394 . S
C778 C779 1.516 . S
C779 C778 1.516 . S
C779 C780 1.502 . S
C779 C781 1.561 . S
C779 C782 1.526 . S
C780 H764 0.959 . S
C780 H765 0.959 . S
C780 H766 0.961 . S
C780 C779 1.502 . S
C781 H767 0.960 . S
C781 H768 0.961 . S
C781 H769 0.959 . S
C781 C779 1.561 . S
C782 C779 1.526 . S
C782 C783 1.396 . S
C782 C787 1.390 . S
C783 C777 1.465 . S
C783 C782 1.396 . S
C783 C784 1.399 . S
C784 H770 0.929 . S
C784 C783 1.399 . S
C784 C785 1.385 . S
C785 H771 0.931 . S
C785 C784 1.385 . S
C785 C786 1.389 . S
C786 C785 1.389 . S
C786 C787 1.387 . S
C787 H772 0.930 . S
C787 C782 1.390 . S
C787 C786 1.387 . S
H788 C800 0.930 . S
H789 C802 0.930 . S
H790 C803 0.930 . S
H791 C807 0.959 . S
H792 C807 0.959 . S
H793 C807 0.961 . S
H794 C808 0.960 . S
H795 C808 0.961 . S
H796 C808 0.959 . S
H797 C811 0.929 . S
H798 C812 0.931 . S
H799 C814 0.930 . S
C800 H788 0.930 . S
C800 C801 1.399 . S
C800 C805 1.399 . S
C801 C800 1.399 . S
C801 C802 1.376 . S
C802 H789 0.930 . S
C802 C801 1.376 . S
C802 C803 1.388 . S
C803 H790 0.930 . S
C803 C802 1.388 . S
C803 C804 1.390 . S
C804 C803 1.390 . S
C804 C805 1.394 . S
C804 C810 1.465 . S
C805 C800 1.399 . S
C805 C804 1.394 . S
C805 C806 1.516 . S
C806 C805 1.516 . S
C806 C807 1.502 . S
C806 C808 1.561 . S
C806 C809 1.526 . S
C807 H791 0.959 . S
C807 H792 0.959 . S
C807 H793 0.961 . S
C807 C806 1.502 . S
C808 H794 0.960 . S
C808 H795 0.961 . S
C808 H796 0.959 . S
C808 C806 1.561 . S
C809 C806 1.526 . S
C809 C810 1.396 . S
C809 C814 1.390 . S
C810 C804 1.465 . S
C810 C809 1.396 . S
C810 C811 1.399 . S
C811 H797 0.929 . S
C811 C810 1.399 . S
C811 C812 1.385 . S
C812 H798 0.931 . S
C812 C811 1.385 . S
C812 C813 1.389 . S
C813 C812 1.389 . S
C813 C814 1.387 . S
C814 H799 0.930 . S
C814 C809 1.390 . S
C814 C813 1.387 . S
H815 C827 0.930 . S
H816 C829 0.930 . S
H817 C830 0.930 . S
H818 C834 0.959 . S
H819 C834 0.959 . S
H820 C834 0.961 . S
H821 C835 0.960 . S
H822 C835 0.961 . S
H823 C835 0.959 . S
H824 C838 0.929 . S
H825 C839 0.931 . S
H826 C841 0.930 . S
C827 H815 0.930 . S
C827 C828 1.399 . S
C827 C832 1.399 . S
C828 C827 1.399 . S
C828 C829 1.376 . S
C829 H816 0.930 . S
C829 C828 1.376 . S
C829 C830 1.388 . S
C830 H817 0.930 . S
C830 C829 1.388 . S
C830 C831 1.390 . S
C831 C830 1.390 . S
C831 C832 1.394 . S
C831 C837 1.465 . S
C832 C827 1.399 . S
C832 C831 1.394 . S
C832 C833 1.516 . S
C833 C832 1.516 . S
C833 C834 1.502 . S
C833 C835 1.561 . S
C833 C836 1.526 . S
C834 H818 0.959 . S
C834 H819 0.959 . S
C834 H820 0.961 . S
C834 C833 1.502 . S
C835 H821 0.960 . S
C835 H822 0.961 . S
C835 H823 0.959 . S
C835 C833 1.561 . S
C836 C833 1.526 . S
C836 C837 1.396 . S
C836 C841 1.390 . S
C837 C831 1.465 . S
C837 C836 1.396 . S
C837 C838 1.399 . S
C838 H824 0.929 . S
C838 C837 1.399 . S
C838 C839 1.385 . S
C839 H825 0.931 . S
C839 C838 1.385 . S
C839 C840 1.389 . S
C840 C839 1.389 . S
C840 C841 1.387 . S
C841 H826 0.930 . S
C841 C836 1.390 . S
C841 C840 1.387 . S
H842 C854 0.930 . S
H843 C856 0.930 . S
H844 C857 0.930 . S
H845 C861 0.959 . S
H846 C861 0.959 . S
H847 C861 0.961 . S
H848 C862 0.960 . S
H849 C862 0.961 . S
H850 C862 0.959 . S
H851 C865 0.929 . S
H852 C866 0.931 . S
H853 C868 0.930 . S
C854 H842 0.930 . S
C854 C855 1.399 . S
C854 C859 1.399 . S
C855 C854 1.399 . S
C855 C856 1.376 . S
C856 H843 0.930 . S
C856 C855 1.376 . S
C856 C857 1.388 . S
C857 H844 0.930 . S
C857 C856 1.388 . S
C857 C858 1.390 . S
C858 C857 1.390 . S
C858 C859 1.394 . S
C858 C864 1.465 . S
C859 C854 1.399 . S
C859 C858 1.394 . S
C859 C860 1.516 . S
C860 C859 1.516 . S
C860 C861 1.502 . S
C860 C862 1.561 . S
C860 C863 1.526 . S
C861 H845 0.959 . S
C861 H846 0.959 . S
C861 H847 0.961 . S
C861 C860 1.502 . S
C862 H848 0.960 . S
C862 H849 0.961 . S
C862 H850 0.959 . S
C862 C860 1.561 . S
C863 C860 1.526 . S
C863 C864 1.396 . S
C863 C868 1.390 . S
C864 C858 1.465 . S
C864 C863 1.396 . S
C864 C865 1.399 . S
C865 H851 0.929 . S
C865 C864 1.399 . S
C865 C866 1.385 . S
C866 H852 0.931 . S
C866 C865 1.385 . S
C866 C867 1.389 . S
C867 C866 1.389 . S
C867 C868 1.387 . S
C868 H853 0.930 . S
C868 C863 1.390 . S
C868 C867 1.387 . S
H869 C881 0.930 . S
H870 C883 0.930 . S
H871 C884 0.930 . S
H872 C888 0.959 . S
H873 C888 0.959 . S
H874 C888 0.961 . S
H875 C889 0.960 . S
H876 C889 0.961 . S
H877 C889 0.959 . S
H878 C892 0.929 . S
H879 C893 0.931 . S
H880 C895 0.930 . S
C881 H869 0.930 . S
C881 C882 1.399 . S
C881 C886 1.399 . S
C882 C881 1.399 . S
C882 C883 1.376 . S
C883 H870 0.930 . S
C883 C882 1.376 . S
C883 C884 1.388 . S
C884 H871 0.930 . S
C884 C883 1.388 . S
C884 C885 1.390 . S
C885 C884 1.390 . S
C885 C886 1.394 . S
C885 C891 1.465 . S
C886 C881 1.399 . S
C886 C885 1.394 . S
C886 C887 1.516 . S
C887 C886 1.516 . S
C887 C888 1.502 . S
C887 C889 1.561 . S
C887 C890 1.526 . S
C888 H872 0.959 . S
C888 H873 0.959 . S
C888 H874 0.961 . S
C888 C887 1.502 . S
C889 H875 0.960 . S
C889 H876 0.961 . S
C889 H877 0.959 . S
C889 C887 1.561 . S
C890 C887 1.526 . S
C890 C891 1.396 . S
C890 C895 1.390 . S
C891 C885 1.465 . S
C891 C890 1.396 . S
C891 C892 1.399 . S
C892 H878 0.929 . S
C892 C891 1.399 . S
C892 C893 1.385 . S
C893 H879 0.931 . S
C893 C892 1.385 . S
C893 C894 1.389 . S
C894 C893 1.389 . S
C894 C895 1.387 . S
C895 H880 0.930 . S
C895 C890 1.390 . S
C895 C894 1.387 . S
C261 C4 1.051 . S
C273 C95 1.101 . S
C288 C16 1.237 . S
C300 C144 1.277 . S
C327 C170 2.052 . S
C315 C32 2.074 . S
C342 C43 2.260 . S
C354 C218 2.244 . S
C381 C130 2.645 . S
C369 C5 2.542 . S
C408 C98 0.399 . S
C396 C21 0.469 . S
C435 C219 1.894 . S
C423 C27 1.912 . S
C462 C187 1.584 . S
C450 C37 1.593 . S
C477 C10 1.434 . S
C489 C215 1.489 . S
C516 C147 2.514 1_556 S
C504 C26 2.582 . S
C531 C38 2.069 . S
C543 C99 2.088 . S
C558 C15 1.086 . S
C570 C184 1.044 . S
C597 C104 1.247 . S
C585 C48 1.270 . S
C612 C59 1.088 . S
C624 C135 1.021 . S
C639 C76 2.452 . S
C651 C179 2.428 . S
C666 C87 2.089 . S
C678 C227 2.095 . S
C693 C54 1.945 . S
C705 C139 2.002 1_556 S
C732 C107 1.433 . S
C720 C60 1.406 . S
C759 C210 1.770 . S
C747 C71 1.786 . S
C786 C178 1.529 . S
C774 C82 1.589 . S
C801 C49 1.725 . S
C813 C224 1.804 . S
C840 C138 1.975 . S
C828 C70 2.047 . S
C867 C90 2.530 . S
C855 C81 2.533 . S
C882 C65 0.853 . S
C894 C175 0.913 . S
