# Generated by pormake.
# Topology zzz, (3,6)-cn, num edge types: 1
# Building blocks:
#     Node 0, Type 0, BuildingBlock: VETTIZ_charged_linker_0, # of connection points: 3
#     Node 1, Type 0, BuildingBlock: VETTIZ_charged_linker_0, # of connection points: 3
#     Node 2, Type 0, BuildingBlock: VETTIZ_charged_linker_0, # of connection points: 3
#     Node 3, Type 0, BuildingBlock: VETTIZ_charged_linker_0, # of connection points: 3
#     Node 4, Type 0, BuildingBlock: VETTIZ_charged_linker_0, # of connection points: 3
#     Node 5, Type 0, BuildingBlock: VETTIZ_charged_linker_0, # of connection points: 3
#     Node 6, Type 0, BuildingBlock: VETTIZ_charged_linker_0, # of connection points: 3
#     Node 7, Type 0, BuildingBlock: VETTIZ_charged_linker_0, # of connection points: 3
#     Node 8, Type 1, BuildingBlock: VOLQOD_clean_sbu_1, # of connection points: 6
#     Node 9, Type 1, BuildingBlock: VOLQOD_clean_sbu_1, # of connection points: 6
#     Node 10, Type 1, BuildingBlock: VOLQOD_clean_sbu_1, # of connection points: 6
#     Node 11, Type 1, BuildingBlock: VOLQOD_clean_sbu_1, # of connection points: 6
#     Edge 12, Type (0, 1), BuildingBlock: EZIPEK_clean_linker_0, # of connection points: 2
#     Edge 13, Type (0, 1), BuildingBlock: EZIPEK_clean_linker_0, # of connection points: 2
#     Edge 14, Type (0, 1), BuildingBlock: EZIPEK_clean_linker_0, # of connection points: 2
#     Edge 15, Type (0, 1), BuildingBlock: EZIPEK_clean_linker_0, # of connection points: 2
#     Edge 16, Type (0, 1), BuildingBlock: EZIPEK_clean_linker_0, # of connection points: 2
#     Edge 17, Type (0, 1), BuildingBlock: EZIPEK_clean_linker_0, # of connection points: 2
#     Edge 18, Type (0, 1), BuildingBlock: EZIPEK_clean_linker_0, # of connection points: 2
#     Edge 19, Type (0, 1), BuildingBlock: EZIPEK_clean_linker_0, # of connection points: 2
#     Edge 20, Type (0, 1), BuildingBlock: EZIPEK_clean_linker_0, # of connection points: 2
#     Edge 21, Type (0, 1), BuildingBlock: EZIPEK_clean_linker_0, # of connection points: 2
#     Edge 22, Type (0, 1), BuildingBlock: EZIPEK_clean_linker_0, # of connection points: 2
#     Edge 23, Type (0, 1), BuildingBlock: EZIPEK_clean_linker_0, # of connection points: 2
#     Edge 24, Type (0, 1), BuildingBlock: EZIPEK_clean_linker_0, # of connection points: 2
#     Edge 25, Type (0, 1), BuildingBlock: EZIPEK_clean_linker_0, # of connection points: 2
#     Edge 26, Type (0, 1), BuildingBlock: EZIPEK_clean_linker_0, # of connection points: 2
#     Edge 27, Type (0, 1), BuildingBlock: EZIPEK_clean_linker_0, # of connection points: 2
#     Edge 28, Type (0, 1), BuildingBlock: EZIPEK_clean_linker_0, # of connection points: 2
#     Edge 29, Type (0, 1), BuildingBlock: EZIPEK_clean_linker_0, # of connection points: 2
#     Edge 30, Type (0, 1), BuildingBlock: EZIPEK_clean_linker_0, # of connection points: 2
#     Edge 31, Type (0, 1), BuildingBlock: EZIPEK_clean_linker_0, # of connection points: 2
#     Edge 32, Type (0, 1), BuildingBlock: EZIPEK_clean_linker_0, # of connection points: 2
#     Edge 33, Type (0, 1), BuildingBlock: EZIPEK_clean_linker_0, # of connection points: 2
#     Edge 34, Type (0, 1), BuildingBlock: EZIPEK_clean_linker_0, # of connection points: 2
#     Edge 35, Type (0, 1), BuildingBlock: EZIPEK_clean_linker_0, # of connection points: 2
# Relax obj value: 0.367
# Max RMSD: 0.260
# Mean RMSD: 0.211
data_MOF--net-zzz--node1-VOLQOD_clean_sbu_1--node2-VETTIZ_charged_linker_0--edge1-EZIPEK_clean_linker_0
_symmetry_space_group_name_H-M    P1
_symmetry_Int_Tables_number       1
_symmetry_cell_setting            triclinic
loop_
_symmetry_equiv_pos_as_xyz
'x, y, z'
_cell_length_a     44.900892
_cell_length_b     44.303351
_cell_length_c     17.783725
_cell_angle_alpha  90.091497
_cell_angle_beta   90.294721
_cell_angle_gamma 92.337943
loop_
_atom_site_label
_atom_site_type_symbol
_atom_site_fract_x
_atom_site_fract_y
_atom_site_fract_z
_atom_type_partial_charge
C0 C 0.82167 0.50699 0.36839 0.0
C1 C 0.84932 0.49788 0.3976 0.0
C2 C 0.8615 0.47135 0.37029 0.0
C3 C 0.82274 0.46654 0.27625 0.0
C4 C 0.80852 0.49056 0.30747 0.0
C5 C 0.77899 0.4951 0.26761 0.0
H6 H 0.70708 0.48386 0.9281 0.0
C7 C 0.80745 0.4576 0.20592 0.0
C8 C 0.78143 0.47409 0.19942 0.0
H9 H 0.66667 0.51086 0.13603 0.0
H10 H 0.7132 0.50216 0.2031 0.0
H11 H 0.77568 0.50742 0.95643 0.0
H12 H 0.72505 0.42484 0.99779 0.0
H13 H 0.76035 0.414 0.9693 0.0
H14 H 0.73786 0.43533 0.90571 0.0
H15 H 0.76483 0.4814 0.88294 0.0
H16 H 0.79923 0.4781 0.93455 0.0
C17 C 0.7766 0.52844 0.24472 0.0
C18 C 0.75389 0.48411 0.32123 0.0
C19 C 0.87218 0.40941 0.01199 0.0
C20 C 0.87118 0.41137 0.93351 0.0
C21 C 0.84393 0.41647 0.89734 0.0
C22 C 0.81897 0.42389 0.93942 0.0
C23 C 0.82171 0.42688 0.01801 0.0
C24 C 0.84763 0.41852 0.05323 0.0
C25 C 0.84795 0.42603 0.13562 0.0
C26 C 0.81847 0.44158 0.1434 0.0
C27 C 0.80319 0.4418 0.07465 0.0
C28 C 0.87559 0.44755 0.15324 0.0
C29 C 0.84742 0.3958 0.1793 0.0
C30 C 0.70822 0.48837 0.98799 0.0
C31 C 0.68322 0.4985 0.02623 0.0
C32 C 0.68568 0.50346 0.10472 0.0
C33 C 0.71247 0.49798 0.14376 0.0
C34 C 0.73659 0.48612 0.10472 0.0
C35 C 0.73361 0.48077 0.02835 0.0
C36 C 0.75843 0.46299 0.99741 0.0
C37 C 0.77671 0.45798 0.06766 0.0
C38 C 0.76493 0.47293 0.13023 0.0
C39 C 0.77546 0.48322 0.93938 0.0
C40 C 0.74495 0.43278 0.96521 0.0
H41 H 0.85874 0.43565 0.29199 0.0
H42 H 0.81122 0.52659 0.39108 0.0
H43 H 0.75979 0.46283 0.34984 0.0
H44 H 0.73274 0.47872 0.29165 0.0
H45 H 0.75005 0.50128 0.36538 0.0
H46 H 0.79567 0.53565 0.20841 0.0
H47 H 0.77677 0.5433 0.29509 0.0
H48 H 0.75581 0.53224 0.21331 0.0
H49 H 0.89315 0.40579 0.0404 0.0
H50 H 0.84292 0.41803 0.83659 0.0
H51 H 0.79941 0.42956 0.90849 0.0
H52 H 0.88841 0.45437 0.10234 0.0
H53 H 0.89158 0.43685 0.19177 0.0
H54 H 0.86924 0.46937 0.17765 0.0
H55 H 0.83267 0.37846 0.15085 0.0
H56 H 0.83821 0.39783 0.23656 0.0
H57 H 0.8701 0.38674 0.18288 0.0
H58 H 0.88211 0.46345 0.39374 0.0
C59 C 0.84816 0.45546 0.3107 0.0
C60 C 0.08902 0.83868 0.98952 0.0
C61 C 0.08002 0.86785 0.97133 0.0
C62 C 0.0506 0.87597 0.98681 0.0
C63 C 0.04116 0.82844 0.04785 0.0
C64 C 0.06836 0.81872 0.02435 0.0
C65 C 0.07003 0.78511 0.0348 0.0
H66 H 0.99836 0.65377 0.13285 0.0
C67 C 0.02496 0.80371 0.08492 0.0
C68 C 0.03844 0.77736 0.06348 0.0
H69 H 0.0266 0.67695 0.90715 0.0
H70 H 0.03415 0.72946 0.94538 0.0
H71 H 0.05127 0.70772 0.23038 0.0
H72 H 0.95909 0.71751 0.15931 0.0
H73 H 0.96714 0.72391 0.25697 0.0
H74 H 0.96872 0.68652 0.219 0.0
H75 H 0.02248 0.68147 0.26259 0.0
H76 H 0.02626 0.71879 0.30154 0.0
C77 C 0.09349 0.77851 0.0955 0.0
C78 C 0.07793 0.76998 0.96004 0.0
C79 C 0.98967 0.83523 0.3386 0.0
C80 C 0.98948 0.82071 0.40808 0.0
C81 C 0.99026 0.78883 0.40994 0.0
C82 C 0.99343 0.77214 0.34264 0.0
C83 C 0.99618 0.78757 0.27368 0.0
C84 C 0.99432 0.81876 0.27302 0.0
C85 C 1.00054 0.83236 0.19743 0.0
C86 C 0.00928 0.80453 0.15393 0.0
C87 C 0.00539 0.77792 0.19737 0.0
C88 C 0.02606 0.85703 0.20393 0.0
C89 C 0.9713 0.845 0.16726 0.0
C90 C 0.00766 0.66992 0.09291 0.0
C91 C 0.01349 0.66109 0.01777 0.0
C92 C 0.02365 0.68295 0.96569 0.0
C93 C 0.02938 0.71276 0.98786 0.0
C94 C 0.02674 0.72043 0.06355 0.0
C95 C 0.01399 0.70033 0.11434 0.0
C96 C 0.00659 0.7166 0.18738 0.0
C97 C 0.01373 0.74968 0.16589 0.0
C98 C 0.02874 0.75022 0.09727 0.0
C99 C 0.0277 0.70561 0.24923 0.0
C100 C 0.97351 0.71083 0.20699 0.0
H101 H 0.00836 0.86238 0.03247 0.0
H102 H 0.11102 0.83147 0.97507 0.0
H103 H 0.09925 0.77978 0.93761 0.0
H104 H 0.06033 0.77338 0.91709 0.0
H105 H 0.0814 0.74557 0.96827 0.0
H106 H 0.09393 0.75383 0.10634 0.0
H107 H 0.08833 0.78999 0.14929 0.0
H108 H 0.11608 0.78653 0.07722 0.0
H109 H 0.98826 0.85957 0.3363 0.0
H110 H 0.98978 0.77714 0.46336 0.0
H111 H 0.99455 0.74806 0.34636 0.0
H112 H 0.02445 0.87109 0.25518 0.0
H113 H 0.02538 0.87353 0.15763 0.0
H114 H 0.04823 0.84675 0.20545 0.0
H115 H 0.95256 0.8279 0.17209 0.0
H116 H 0.97282 0.85122 0.10739 0.0
H117 H 0.96541 0.86537 0.19966 0.0
H118 H 0.04279 0.89772 0.9694 0.0
C119 C 0.03094 0.85608 0.02388 0.0
C120 C 0.84766 0.99962 0.03544 0.0
C121 C 0.85132 0.99293 0.95807 0.0
C122 C 0.82571 0.98546 0.91436 0.0
C123 C 0.79426 0.99975 0.01661 0.0
C124 C 0.81855 1.00148 0.0643 0.0
C125 C 0.80876 0.00711 0.14442 0.0
H126 H 0.68369 0.03328 0.35547 0.0
C127 C 0.76803 0.00942 0.05726 0.0
C128 C 0.77494 0.00906 0.13429 0.0
H129 H 0.7331 0.95255 0.3803 0.0
H130 H 0.76504 0.96826 0.27335 0.0
H131 H 0.70668 0.08778 0.30503 0.0
H132 H 0.67664 0.03062 0.15743 0.0
H133 H 0.6735 0.07083 0.17008 0.0
H134 H 0.66534 0.04672 0.24472 0.0
H135 H 0.72194 0.10177 0.21826 0.0
H136 H 0.74529 0.08297 0.28272 0.0
C137 C 0.82291 0.03719 0.17366 0.0
C138 C 0.81729 0.98078 0.1952 0.0
C139 C 0.68705 0.06453 0.91999 0.0
C140 C 0.66852 0.08749 0.94392 0.0
C141 C 0.67609 0.10406 0.00945 0.0
C142 C 0.69861 0.09413 0.05725 0.0
C143 C 0.71279 0.06756 0.03886 0.0
C144 C 0.70979 0.0555 0.96781 0.0
C145 C 0.73232 0.03196 0.95287 0.0
C146 C 0.74638 0.02941 0.03082 0.0
C147 C 0.73337 0.04935 0.0814 0.0
C148 C 0.75419 0.04477 0.89292 0.0
C149 C 0.71607 0.0022 0.92815 0.0
C150 C 0.70192 0.01946 0.33909 0.0
C151 C 0.70608 0.99198 0.37581 0.0
C152 C 0.72988 0.9741 0.35345 0.0
C153 C 0.74859 0.98335 0.29336 0.0
C154 C 0.74376 0.01088 0.25708 0.0
C155 C 0.71996 0.02784 0.27801 0.0
C156 C 0.71391 0.0523 0.22184 0.0
C157 C 0.73572 0.04433 0.15982 0.0
C158 C 0.75544 0.02277 0.18525 0.0
C159 C 0.72235 0.08298 0.25874 0.0
C160 C 0.68074 0.04992 0.19667 0.0
H161 H 0.77816 0.98314 0.90852 0.0
H162 H 0.86685 0.00409 0.07148 0.0
H163 H 0.80493 0.95956 0.17836 0.0
H164 H 0.81248 0.98588 0.25492 0.0
H165 H 0.84155 0.977 0.19125 0.0
H166 H 0.81727 0.05616 0.13596 0.0
H167 H 0.84757 0.03615 0.17673 0.0
H168 H 0.81463 0.04223 0.23092 0.0
H169 H 0.68283 0.05283 0.86723 0.0
H170 H 0.66307 0.12295 0.02635 0.0
H171 H 0.70359 0.10637 0.10823 0.0
H172 H 0.76968 0.06238 0.91763 0.0
H173 H 0.74191 0.05525 0.8459 0.0
H174 H 0.76738 0.02731 0.86639 0.0
H175 H 0.69692 0.99669 0.96584 0.0
H176 H 0.73081 0.98287 0.93079 0.0
H177 H 0.70748 0.00399 0.8697 0.0
H178 H 0.82789 0.97856 0.85623 0.0
C179 C 0.79716 0.98893 0.94339 0.0
C180 C 0.56245 0.69717 0.38661 0.0
C181 C 0.56795 0.66586 0.39075 0.0
C182 C 0.57653 0.65066 0.32527 0.0
C183 C 0.56436 0.69381 0.25126 0.0
C184 C 0.56174 0.71107 0.31506 0.0
C185 C 0.55412 0.74311 0.29392 0.0
H186 H 0.51175 0.8311 0.99491 0.0
C187 C 0.55238 0.7101 0.18731 0.0
C188 C 0.55105 0.74061 0.20792 0.0
H189 H 0.59217 0.85101 0.1218 0.0
H190 H 0.58435 0.80333 0.19246 0.0
H191 H 0.52446 0.76023 0.96023 0.0
H192 H 0.47146 0.79293 0.14654 0.0
H193 H 0.45389 0.76312 0.09482 0.0
H194 H 0.46045 0.79924 0.05065 0.0
H195 H 0.49526 0.78613 0.94361 0.0
H196 H 0.48606 0.74778 0.96037 0.0
C197 C 0.57946 0.76538 0.31831 0.0
C198 C 0.52444 0.75138 0.33036 0.0
C199 C 0.48606 0.64523 0.01544 0.0
C200 C 0.4589 0.65037 0.97946 0.0
C201 C 0.44597 0.67861 0.98732 0.0
C202 C 0.4614 0.70219 0.02584 0.0
C203 C 0.4897 0.69721 0.05647 0.0
C204 C 0.50046 0.66852 0.05584 0.0
C205 C 0.52729 0.66553 0.10558 0.0
C206 C 0.53174 0.69797 0.13332 0.0
C207 C 0.51043 0.71652 0.10127 0.0
C208 C 0.55371 0.6561 0.05679 0.0
C209 C 0.51932 0.64247 0.169 0.0
C210 C 0.52702 0.8257 0.03978 0.0
C211 C 0.55216 0.84471 0.05388 0.0
C212 C 0.57226 0.83697 0.11155 0.0
C213 C 0.56752 0.81007 0.15318 0.0
C214 C 0.54212 0.79146 0.13822 0.0
C215 C 0.52285 0.79885 0.08067 0.0
C216 C 0.50082 0.77325 0.06254 0.0
C217 C 0.51325 0.74825 0.11081 0.0
C218 C 0.53484 0.76009 0.16115 0.0
C219 C 0.50168 0.76633 0.97725 0.0
C220 C 0.46989 0.78249 0.08962 0.0
H221 H 0.58109 0.65245 0.20589 0.0
H222 H 0.55684 0.70962 0.43663 0.0
H223 H 0.5063 0.73472 0.31439 0.0
H224 H 0.51792 0.77411 0.31166 0.0
H225 H 0.52646 0.75176 0.39265 0.0
H226 H 0.60001 0.76165 0.28555 0.0
H227 H 0.58469 0.76246 0.37897 0.0
H228 H 0.57285 0.78903 0.31065 0.0
H229 H 0.49574 0.62323 0.01286 0.0
H230 H 0.42444 0.68253 0.96224 0.0
H231 H 0.45098 0.72341 0.03053 0.0
H232 H 0.55091 0.63198 0.03989 0.0
H233 H 0.57526 0.65937 0.08658 0.0
H234 H 0.55534 0.67002 0.00485 0.0
H235 H 0.51255 0.65404 0.22134 0.0
H236 H 0.53795 0.62764 0.18159 0.0
H237 H 0.5005 0.62661 0.15337 0.0
H238 H 0.58212 0.62712 0.32765 0.0
C239 C 0.57516 0.66478 0.2553 0.0
C240 C 0.32873 0.50807 0.31834 0.0
C241 C 0.33967 0.51844 0.38914 0.0
C242 C 0.3233 0.53929 0.42973 0.0
C243 C 0.28618 0.53994 0.33089 0.0
C244 C 0.30175 0.51927 0.29011 0.0
C245 C 0.28593 0.51175 0.21609 0.0
H246 H 0.16737 0.54161 0.98396 0.0
C247 C 0.26058 0.54925 0.28588 0.0
C248 C 0.26051 0.5338 0.21671 0.0
H249 H 0.22793 0.46963 0.95557 0.0
H250 H 0.25732 0.48831 0.06393 0.0
H251 H 0.16202 0.55203 0.2019 0.0
H252 H 0.21968 0.59366 0.03119 0.0
H253 H 0.20373 0.61478 0.10355 0.0
H254 H 0.1801 0.59833 0.03047 0.0
H255 H 0.14957 0.54217 0.11046 0.0
H256 H 0.14917 0.5803 0.1374 0.0
C257 C 0.27418 0.47856 0.22007 0.0
C258 C 0.30752 0.51797 0.15032 0.0
C259 C 0.17371 0.59909 0.40286 0.0
C260 C 0.14782 0.61013 0.36968 0.0
C261 C 0.1489 0.62053 0.29493 0.0
C262 C 0.17313 0.6137 0.24949 0.0
C263 C 0.19595 0.59679 0.28016 0.0
C264 C 0.19797 0.59316 0.35678 0.0
C265 C 0.22703 0.57982 0.37923 0.0
C266 C 0.23833 0.57001 0.3024 0.0
C267 C 0.21913 0.57902 0.2452 0.0
C268 C 0.22087 0.5526 0.43216 0.0
C269 C 0.24713 0.6054 0.41524 0.0
C270 C 0.18683 0.52968 1.00151 0.0
C271 C 0.19496 0.50388 0.96277 0.0
C272 C 0.2209 0.48931 0.98583 0.0
C273 C 0.23765 0.49996 0.04902 0.0
C274 C 0.22802 0.52505 0.08998 0.0
C275 C 0.20297 0.53939 0.06503 0.0
C276 C 0.19497 0.56532 0.1138 0.0
C277 C 0.2183 0.56337 0.17554 0.0
C278 C 0.23818 0.54011 0.16149 0.0
C279 C 0.16242 0.55986 0.14262 0.0
C280 C 0.19963 0.59468 0.06752 0.0
H281 H 0.28566 0.56612 0.43429 0.0
H282 H 0.34103 0.49211 0.28588 0.0
H283 H 0.3183 0.54092 0.15576 0.0
H284 H 0.29599 0.51712 0.09534 0.0
H285 H 0.32533 0.50128 0.14967 0.0
H286 H 0.2636 0.47378 0.27546 0.0
H287 H 0.29268 0.46288 0.21309 0.0
H288 H 0.25687 0.47305 0.1776 0.0
H289 H 0.1739 0.59278 0.46164 0.0
H290 H 0.12967 0.63058 0.2697 0.0
H291 H 0.1726 0.62026 0.19154 0.0
H292 H 0.20388 0.53659 0.40696 0.0
H293 H 0.21253 0.56019 0.48745 0.0
H294 H 0.24099 0.53976 0.44314 0.0
H295 H 0.23679 0.6278 0.41343 0.0
H296 H 0.26864 0.60856 0.38511 0.0
H297 H 0.2518 0.60078 0.47546 0.0
H298 H 0.33134 0.54757 0.48383 0.0
C299 C 0.29689 0.55018 0.40084 0.0
C300 C 0.05971 0.18103 0.40176 0.0
C301 C 0.061 0.14987 0.38772 0.0
C302 C 0.08157 0.13954 0.33461 0.0
C303 C 0.09274 0.19038 0.2966 0.0
C304 C 0.07598 0.20106 0.35487 0.0
C305 C 0.07625 0.23497 0.35474 0.0
H306 H 0.04732 0.35501 0.19286 0.0
C307 C 0.09936 0.21493 0.24403 0.0
C308 C 0.09257 0.24161 0.2804 0.0
H309 H 0.09572 0.34888 0.40382 0.0
H310 H 0.11362 0.29969 0.36476 0.0
H311 H 0.11016 0.31702 0.09335 0.0
H312 H 0.02342 0.28089 0.16664 0.0
H313 H 0.03246 0.27514 0.07013 0.0
H314 H 0.02577 0.31256 0.10321 0.0
H315 H 0.07667 0.3345 0.0628 0.0
H316 H 0.08685 0.2991 0.0231 0.0
C317 C 0.09329 0.24676 0.42514 0.0
C318 C 0.04396 0.2458 0.35343 0.0
C319 C 0.09456 0.1808 0.97476 0.0
C320 C 0.07764 0.18982 0.91372 0.0
C321 C 0.06603 0.21911 0.91467 0.0
C322 C 0.07029 0.23825 0.97851 0.0
C323 C 0.08501 0.22728 0.04256 0.0
C324 C 0.096 0.19849 0.03961 0.0
C325 C 0.10278 0.18603 0.11529 0.0
C326 C 0.09803 0.21341 0.16428 0.0
C327 C 0.08805 0.23814 0.122 0.0
C328 C 0.13567 0.17701 0.11717 0.0
C329 C 0.07992 0.15915 0.13075 0.0
C330 C 0.06144 0.34296 0.23095 0.0
C331 C 0.06876 0.35485 0.30367 0.0
C332 C 0.08862 0.33947 0.35003 0.0
C333 C 0.09787 0.31104 0.32988 0.0
C334 C 0.0865 0.29789 0.26427 0.0
C335 C 0.0719 0.31422 0.21116 0.0
C336 C 0.06903 0.29588 0.13793 0.0
C337 C 0.08334 0.26611 0.16045 0.0
C338 C 0.09039 0.26781 0.23705 0.0
C339 C 0.08662 0.31251 0.07551 0.0
C340 C 0.03581 0.29082 0.11802 0.0
H341 H 0.11469 0.15135 0.25368 0.0
H342 H 0.04566 0.18935 0.44585 0.0
H343 H 0.03168 0.23667 0.30334 0.0
H344 H 0.04363 0.27081 0.35176 0.0
H345 H 0.03173 0.23834 0.40471 0.0
H346 H 0.0875 0.23276 0.47522 0.0
H347 H 0.08711 0.26995 0.44009 0.0
H348 H 0.11779 0.24624 0.41686 0.0
H349 H 0.1026 0.15804 0.97652 0.0
H350 H 0.05239 0.22639 0.86827 0.0
H351 H 0.06036 0.2599 0.97822 0.0
H352 H 0.15034 0.19478 0.09066 0.0
H353 H 0.13846 0.15551 0.0862 0.0
H354 H 0.14409 0.17439 0.17524 0.0
H355 H 0.06661 0.15186 0.08065 0.0
H356 H 0.06293 0.16522 0.17268 0.0
H357 H 0.09109 0.1385 0.14885 0.0
H358 H 0.08431 0.1156 0.32585 0.0
C359 C 0.09855 0.15987 0.29166 0.0
C360 C 0.33941 0.01539 0.99301 0.0
C361 C 0.36944 0.02672 0.99195 0.0
C362 C 0.38228 0.03856 0.05887 0.0
C363 C 0.34069 0.01778 0.1285 0.0
C364 C 0.32484 0.01243 0.06314 0.0
C365 C 0.2939 0.99946 0.08146 0.0
H366 H 0.21001 0.94924 0.38616 0.0
C367 C 0.32513 0.00261 0.19054 0.0
C368 C 0.29548 0.99697 0.1676 0.0
H369 H 0.18805 0.02826 0.25954 0.0
H370 H 0.23376 0.02372 0.18406 0.0
H371 H 0.24704 0.91093 0.22481 0.0
H372 H 0.28193 0.9657 0.41293 0.0
H373 H 0.29164 0.92681 0.40926 0.0
H374 H 0.25487 0.93551 0.43123 0.0
H375 H 0.23705 0.90076 0.3196 0.0
H376 H 0.27348 0.8941 0.28461 0.0
C377 C 0.28877 0.96818 0.04439 0.0
C378 C 0.27016 0.02118 0.05539 0.0
C379 C 0.39162 0.94077 0.3568 0.0
C380 C 0.38726 0.91238 0.39061 0.0
C381 C 0.36031 0.89569 0.37866 0.0
C382 C 0.33698 0.9086 0.33867 0.0
C383 C 0.34072 0.93837 0.31238 0.0
C384 C 0.36837 0.95299 0.31626 0.0
C385 C 0.37001 0.9817 0.27132 0.0
C386 C 0.33805 0.98229 0.2419 0.0
C387 C 0.32085 0.95761 0.26992 0.0
C388 C 0.39369 0.97851 0.20895 0.0
C389 C 0.37731 0.00846 0.32475 0.0
C390 C 0.21458 0.96494 0.34068 0.0
C391 C 0.19551 0.98877 0.32802 0.0
C392 C 0.20217 0.00939 0.26914 0.0
C393 C 0.22797 0.00657 0.22502 0.0
C394 C 0.24662 0.98253 0.23882 0.0
C395 C 0.24031 0.96261 0.29699 0.0
C396 C 0.26559 0.94195 0.31116 0.0
C397 C 0.28948 0.95655 0.26053 0.0
C398 C 0.27695 0.97747 0.21182 0.0
C399 C 0.2554 0.91013 0.28375 0.0
C400 C 0.2741 0.94258 0.39557 0.0
H401 H 0.37857 0.04214 0.1785 0.0
H402 H 0.32867 0.00701 0.94206 0.0
H403 H 0.27238 0.04294 0.08657 0.0
H404 H 0.24745 0.01101 0.06419 0.0
H405 H 0.27256 0.02601 0.99436 0.0
H406 H 0.30638 0.95268 0.06197 0.0
H407 H 0.28907 0.97005 0.98211 0.0
H408 H 0.26679 0.9579 0.06098 0.0
H409 H 0.41261 0.95349 0.36343 0.0
H410 H 0.35698 0.87338 0.40277 0.0
H411 H 0.31673 0.89543 0.33014 0.0
H412 H 0.38367 0.96757 0.1581 0.0
H413 H 0.41234 0.96449 0.2273 0.0
H414 H 0.40468 1.0004 0.19383 0.0
H415 H 0.3622 0.0077 0.37416 0.0
H416 H 0.3745 0.03042 0.29681 0.0
H417 H 0.40061 0.00775 0.34557 0.0
H418 H 0.40478 0.04838 0.05886 0.0
C419 C 0.36779 0.03424 0.12757 0.0
C420 C 0.466 0.29061 0.98175 0.0
C421 C 0.45373 0.31962 0.9713 0.0
C422 C 0.43179 0.32905 0.02153 0.0
C423 C 0.44281 0.28813 0.10304 0.0
C424 C 0.45911 0.27448 0.04891 0.0
C425 C 0.46801 0.24343 0.0777 0.0
H426 H 0.48437 0.15993 0.40588 0.0
C427 C 0.44693 0.2732 0.17405 0.0
C428 C 0.45915 0.24502 0.16143 0.0
H429 H 0.49499 0.12466 0.18229 0.0
H430 H 0.48249 0.17405 0.12881 0.0
H431 H 0.52012 0.21058 0.38803 0.0
H432 H 0.42694 0.19958 0.38416 0.0
H433 H 0.43624 0.23329 0.4341 0.0
H434 H 0.45225 0.19846 0.46273 0.0
H435 H 0.49986 0.2264 0.46242 0.0
H436 H 0.51169 0.24889 0.38224 0.0
C437 C 0.50164 0.23962 0.06808 0.0
C438 C 0.4492 0.21916 0.03479 0.0
C439 C 0.48409 0.34378 0.3768 0.0
C440 C 0.49431 0.33856 0.44977 0.0
C441 C 0.48868 0.3104 0.4841 0.0
C442 C 0.47468 0.28681 0.44321 0.0
C443 C 0.46729 0.2915 0.3674 0.0
C444 C 0.47028 0.32001 0.3368 0.0
C445 C 0.45884 0.32125 0.25762 0.0
C446 C 0.45085 0.2877 0.24414 0.0
C447 C 0.45781 0.27056 0.30711 0.0
C448 C 0.48435 0.33332 0.20606 0.0
C449 C 0.43169 0.34169 0.25546 0.0
C450 C 0.48331 0.16247 0.34529 0.0
C451 C 0.48989 0.13846 0.29848 0.0
C452 C 0.48936 0.14289 0.21956 0.0
C453 C 0.48195 0.17125 0.18873 0.0
C454 C 0.47522 0.19513 0.23746 0.0
C455 C 0.47654 0.19023 0.31438 0.0
C456 C 0.4722 0.21797 0.35967 0.0
C457 C 0.46441 0.23984 0.29824 0.0
C458 C 0.46631 0.22694 0.22572 0.0
C459 C 0.50228 0.22655 0.40033 0.0
C460 C 0.44559 0.21211 0.41352 0.0
H461 H 0.40912 0.32019 0.12569 0.0
H462 H 0.48155 0.28193 0.94161 0.0
H463 H 0.42505 0.22349 0.03949 0.0
H464 H 0.45239 0.19628 0.05672 0.0
H465 H 0.45511 0.21934 0.97417 0.0
H466 H 0.5145 0.25831 0.09679 0.0
H467 H 0.50771 0.23982 0.00759 0.0
H468 H 0.50852 0.218 0.09258 0.0
H469 H 0.48691 0.36599 0.3518 0.0
H470 H 0.4951 0.30682 0.54211 0.0
H471 H 0.47022 0.26582 0.47155 0.0
H472 H 0.50349 0.31817 0.20801 0.0
H473 H 0.4924 0.35632 0.22345 0.0
H474 H 0.4771 0.33528 0.14687 0.0
H475 H 0.4334 0.35977 0.29888 0.0
H476 H 0.41056 0.3284 0.26549 0.0
H477 H 0.43019 0.35391 0.20135 0.0
H478 H 0.42077 0.35006 0.01243 0.0
C479 C 0.42585 0.31291 0.08718 0.0
O480 O 0.10194 0.01103 0.60941 0.0
Zn481 Zn 0.07318 0.01546 0.69753 0.0
O482 O 0.0319 1.00143 0.66964 0.0
Zn483 Zn 0.00594 0.03478 0.68736 0.0
Zn484 Zn 0.03078 0.98942 0.56365 0.0
Zn485 Zn 0.01655 0.96677 0.72692 0.0
O486 O 0.96931 0.02254 0.74885 0.0
O487 O 0.97885 0.97594 0.78497 0.0
O488 O 0.07494 0.05927 0.74024 0.0
O489 O 0.02679 0.06875 0.74347 0.0
O490 O 0.99897 0.05463 0.58837 0.0
O491 O 0.0093 0.02015 0.50284 0.0
O492 O 0.01367 0.94691 0.54574 0.0
O493 O 0.08879 0.98677 0.77445 0.0
O494 O 0.00686 0.9297 0.66173 0.0
O495 O 0.0498 0.95477 0.79388 0.0
C496 C 0.09843 0.99952 0.54394 0.0
C497 C 0.96236 0.99876 0.78651 0.0
C498 C 1.00279 0.04696 0.52023 0.0
C499 C 0.05383 0.07666 0.7568 0.0
C500 C 0.00619 0.92566 0.59083 0.0
C501 C 0.07675 0.96367 0.80628 0.0
O502 O 0.07276 0.98977 0.52177 0.0
O503 O 0.50984 0.05376 0.58232 0.0
Zn504 Zn 0.51737 0.03275 0.68358 0.0
O505 O 0.53285 0.99162 0.66928 0.0
Zn506 Zn 0.50595 0.96184 0.71736 0.0
Zn507 Zn 0.5358 0.98387 0.56078 0.0
Zn508 Zn 0.57193 0.98647 0.71623 0.0
O509 O 0.52512 0.93727 0.79843 0.0
O510 O 0.57236 0.95393 0.79863 0.0
O511 O 0.47935 0.03151 0.74829 0.0
O512 O 0.47215 0.98225 0.76744 0.0
O513 O 0.48737 0.93407 0.64122 0.0
O514 O 0.50444 0.95167 0.53163 0.0
O515 O 0.57863 0.97575 0.53007 0.0
O516 O 0.54844 0.05849 0.73991 0.0
O517 O 0.60352 0.97868 0.63845 0.0
O518 O 0.58393 0.02586 0.76376 0.0
C519 C 0.51475 0.04588 0.51449 0.0
C520 C 0.55148 0.93661 0.8246 0.0
C521 C 0.48688 0.93432 0.56976 0.0
C522 C 0.46431 0.00929 0.77681 0.0
C523 C 0.6031 0.97574 0.56712 0.0
C524 C 0.57352 0.05209 0.76828 0.0
O525 O 0.52516 0.02033 0.49918 0.0
O526 O 0.44055 0.4907 0.63908 0.0
Zn527 Zn 0.46883 0.48965 0.73063 0.0
O528 O 0.51083 0.5001 0.70148 0.0
Zn529 Zn 0.53472 0.46668 0.73344 0.0
Zn530 Zn 0.51249 0.50607 0.59245 0.0
Zn531 Zn 0.52885 0.53685 0.74736 0.0
O532 O 0.56629 0.47926 0.80916 0.0
O533 O 0.56558 0.52905 0.81371 0.0
O534 O 0.46402 0.44803 0.78545 0.0
O535 O 0.5104 0.43279 0.78165 0.0
O536 O 0.55309 0.44793 0.64371 0.0
O537 O 0.53103 0.47025 0.54753 0.0
O538 O 0.53217 0.54608 0.56085 0.0
O539 O 0.45547 0.52345 0.79751 0.0
O540 O 0.54098 0.56917 0.67009 0.0
O541 O 0.49609 0.55435 0.80668 0.0
C542 C 0.44486 0.4986 0.57077 0.0
C543 C 0.57698 0.50439 0.83406 0.0
C544 C 0.54427 0.44798 0.57561 0.0
C545 C 0.48319 0.42811 0.79934 0.0
C546 C 0.54132 0.56918 0.59844 0.0
C547 C 0.46885 0.54759 0.82136 0.0
O548 O 0.47097 0.50556 0.54706 0.0
O549 O 0.96441 0.54294 0.6073 0.0
Zn550 Zn 0.00631 0.54393 0.65531 0.0
O551 O 0.02193 0.50283 0.66777 0.0
Zn552 Zn 0.02809 0.49513 0.77533 0.0
Zn553 Zn 0.99304 0.47376 0.62308 0.0
Zn554 Zn 0.05996 0.49727 0.61708 0.0
O555 O 0.07124 0.48694 0.80123 0.0
O556 O 0.09415 0.49101 0.69115 0.0
O557 O 0.00515 0.56629 0.75577 0.0
O558 O 0.01941 0.53194 0.83791 0.0
O559 O 0.99869 0.46252 0.80931 0.0
O560 O 0.97484 0.44806 0.70422 0.0
O561 O 0.01009 0.44844 0.54006 0.0
O562 O 0.03401 0.56809 0.58668 0.0
O563 O 0.05791 0.46307 0.53892 0.0
O564 O 0.06951 0.5356 0.56204 0.0
C565 C 0.94899 0.52108 0.57794 0.0
C566 C 0.09506 0.48758 0.76237 0.0
C567 C 0.97854 0.44661 0.77507 0.0
C568 C 0.01106 0.5584 0.82302 0.0
C569 C 0.03622 0.44648 0.51339 0.0
C570 C 0.05826 0.56138 0.55495 0.0
O571 O 0.95805 0.49428 0.57874 0.0
C572 C 0.17075 0.01732 0.43276 0.0
C573 C 0.17005 0.99287 0.38089 0.0
C574 C 0.1266 0.97043 0.44666 0.0
C575 C 0.12445 0.99695 0.49143 0.0
N576 N 0.143 0.04815 0.51733 0.0
N577 N 0.14375 0.94886 0.33018 0.0
C578 C 0.14615 0.0211 0.48197 0.0
C579 C 0.14681 0.97031 0.38528 0.0
N580 N 0.19546 0.0363 0.43762 0.0
N581 N 0.1107 0.94458 0.46544 0.0
H582 H 0.15791 0.94827 0.2839 0.0
H583 H 0.12547 0.93365 0.32665 0.0
H584 H 0.09767 0.94273 0.5137 0.0
H585 H 0.11344 0.92395 0.43867 0.0
H586 H 0.19863 0.05229 0.48025 0.0
H587 H 0.21411 0.03425 0.40359 0.0
H588 H 0.15611 0.06742 0.50483 0.0
H589 H 0.12573 0.05242 0.55398 0.0
C590 C 0.52699 0.11028 0.3733 0.0
C591 C 0.49887 0.11003 0.33638 0.0
C592 C 0.48337 0.06419 0.40664 0.0
C593 C 0.50961 0.06736 0.45151 0.0
N594 N 0.55657 0.09344 0.47896 0.0
N595 N 0.44982 0.08731 0.31779 0.0
C596 C 0.53161 0.09029 0.43477 0.0
C597 C 0.47709 0.0868 0.35216 0.0
N598 N 0.54924 0.12981 0.34901 0.0
N599 N 0.46447 0.03954 0.41612 0.0
H600 H 0.44506 0.10275 0.27561 0.0
H601 H 0.43159 0.07344 0.33308 0.0
H602 H 0.46775 0.02321 0.45723 0.0
H603 H 0.44679 0.03409 0.37994 0.0
H604 H 0.57112 0.12973 0.36858 0.0
H605 H 0.54634 0.14444 0.30384 0.0
H606 H 0.57188 0.11165 0.47551 0.0
H607 H 0.5612 0.07864 0.52266 0.0
C608 C 0.37103 0.48273 0.46412 0.0
C609 C 0.3689 0.50974 0.42193 0.0
C610 C 0.41569 0.52957 0.47885 0.0
C611 C 0.41884 0.50195 0.51846 0.0
N612 N 0.40256 0.44983 0.53541 0.0
N613 N 0.39282 0.5553 0.37443 0.0
C614 C 0.39738 0.47778 0.50711 0.0
C615 C 0.39259 0.53186 0.42428 0.0
N616 N 0.3474 0.46233 0.46548 0.0
N617 N 0.43334 0.55443 0.49705 0.0
H618 H 0.37618 0.55751 0.33382 0.0
H619 H 0.41088 0.57062 0.36836 0.0
H620 H 0.44923 0.55457 0.53998 0.0
H621 H 0.43002 0.57587 0.47537 0.0
H622 H 0.34601 0.44404 0.5022 0.0
H623 H 0.3283 0.46473 0.43274 0.0
H624 H 0.38936 0.43061 0.52264 0.0
H625 H 0.42163 0.44529 0.56625 0.0
C626 C 0.06637 0.4105 0.33388 0.0
C627 C 0.05385 0.38073 0.33942 0.0
C628 C 0.0296 0.39394 0.45762 0.0
C629 C 0.04135 0.42418 0.45163 0.0
N630 N 0.06386 0.46294 0.37216 0.0
N631 N 0.01671 0.34683 0.39334 0.0
C632 C 0.05762 0.43303 0.38603 0.0
C633 C 0.03285 0.37363 0.3965 0.0
N634 N 0.08741 0.41695 0.28052 0.0
N635 N 0.01751 0.38372 0.52372 0.0
H636 H 0.01892 0.33148 0.3493 0.0
H637 H 0.99918 0.3414 0.42967 0.0
H638 H 0.01668 0.39688 0.5722 0.0
H639 H 0.01138 0.36112 0.53321 0.0
H640 H 0.10008 0.43718 0.27915 0.0
H641 H 0.09316 0.40126 0.23979 0.0
H642 H 0.07335 0.47083 0.32222 0.0
H643 H 0.05676 0.48013 0.40707 0.0
C644 C 0.90562 0.9789 0.94219 0.0
C645 C 0.88099 0.99587 0.91944 0.0
C646 C 0.90832 0.01133 0.80578 0.0
C647 C 0.9344 0.99765 0.83281 0.0
N648 N 0.95924 0.97574 0.93984 0.0
N649 N 0.86363 0.03617 0.84108 0.0
C650 C 0.93351 0.98349 0.90487 0.0
C651 C 0.88388 0.01464 0.85493 0.0
N652 N 0.90234 0.95761 0.99727 0.0
N653 N 0.90587 0.01962 0.73212 0.0
H654 H 0.84628 0.04053 0.87784 0.0
H655 H 0.86628 0.05194 0.7979 0.0
H656 H 0.92183 0.01503 0.6918 0.0
H657 H 0.88618 0.02742 0.70927 0.0
H658 H 0.91894 0.9427 0.01061 0.0
H659 H 0.88214 0.95283 0.02421 0.0
H660 H 0.95974 0.9677 0.99487 0.0
H661 H 0.98033 0.98083 0.91796 0.0
C662 C 0.57466 0.86743 0.93624 0.0
C663 C 0.55788 0.87119 0.00295 0.0
C664 C 0.54412 0.92149 0.95958 0.0
C665 C 0.55719 0.91581 0.88863 0.0
N666 N 0.58434 0.88331 0.80748 0.0
N667 N 0.52624 0.9013 0.07887 0.0
C668 C 0.57278 0.88897 0.87684 0.0
C669 C 0.54276 0.89828 0.01515 0.0
N670 N 0.59221 0.84308 0.9296 0.0
N671 N 0.53351 0.9494 0.97404 0.0
H672 H 0.52605 0.88547 0.12228 0.0
H673 H 0.51164 0.91862 0.08739 0.0
H674 H 0.53463 0.96691 0.93484 0.0
H675 H 0.52606 0.95614 0.02653 0.0
H676 H 0.6073 0.84038 0.88614 0.0
H677 H 0.59345 0.82653 0.97099 0.0
H678 H 0.59281 0.86272 0.79189 0.0
H679 H 0.58394 0.89879 0.7634 0.0
C680 C 0.63715 0.52663 0.98314 0.0
C681 C 0.65419 0.50025 0.98373 0.0
C682 C 0.62414 0.48041 0.87839 0.0
C683 C 0.60397 0.50423 0.88503 0.0
N684 N 0.58824 0.54604 0.9618 0.0
N685 N 0.65532 0.44753 0.94852 0.0
C686 C 0.60951 0.52631 0.94263 0.0
C687 C 0.64483 0.47565 0.93694 0.0
N688 N 0.64758 0.55235 0.01839 0.0
N689 N 0.62523 0.46337 0.81446 0.0
H690 H 0.66896 0.44255 0.99416 0.0
H691 H 0.64744 0.42867 0.91806 0.0
H692 H 0.61364 0.46846 0.76546 0.0
H693 H 0.64107 0.44706 0.80681 0.0
H694 H 0.6371 0.57283 0.01352 0.0
H695 H 0.66816 0.55399 0.04575 0.0
H696 H 0.59072 0.56079 0.00735 0.0
H697 H 0.56683 0.54515 0.93895 0.0
C698 C 0.98288 0.62113 0.94828 0.0
C699 C 0.00914 0.62952 0.98921 0.0
C700 C 0.03586 0.58922 0.92734 0.0
C701 C 0.00973 0.58107 0.88502 0.0
N702 N 0.95656 0.58378 0.86959 0.0
N703 N 0.05751 0.61673 0.03408 0.0
C704 C 0.98261 0.59532 0.90015 0.0
C705 C 0.03449 0.61166 0.98454 0.0
N706 N 0.95867 0.63872 0.95307 0.0
N707 N 0.06251 0.57726 0.9093 0.0
H708 H 0.05697 0.63324 0.07593 0.0
H709 H 0.07556 0.6028 0.03857 0.0
H710 H 0.06494 0.56154 0.86635 0.0
H711 H 0.08282 0.58481 0.93247 0.0
H712 H 0.94012 0.63627 0.91788 0.0
H713 H 0.95779 0.65675 0.99075 0.0
H714 H 0.93567 0.59137 0.88368 0.0
H715 H 0.95561 0.5647 0.83505 0.0
C716 C 0.05919 0.1036 0.46256 0.0
C717 C 0.04318 0.12693 0.43053 0.0
C718 C 0.99698 0.09689 0.45383 0.0
C719 C 0.01427 0.07169 0.47109 0.0
N720 N 0.06259 0.05023 0.45439 0.0
N721 N 0.99577 0.14438 0.38617 0.0
C722 C 0.04566 0.07466 0.46466 0.0
C723 C 0.01158 0.12344 0.42367 0.0
N724 N 0.08784 0.10868 0.48654 0.0
N725 N 0.96697 0.09533 0.46533 0.0
H726 H 0.00568 0.16384 0.36282 0.0
H727 H 0.97313 0.14127 0.37395 0.0
H728 H 0.95583 0.0755 0.48335 0.0
H729 H 0.9537 0.11399 0.46032 0.0
H730 H 0.09955 0.09209 0.5139 0.0
H731 H 0.09825 0.1302 0.48632 0.0
H732 H 0.08555 0.05238 0.44589 0.0
H733 H 0.0532 0.02921 0.43956 0.0
C734 C 0.43873 0.8963 0.41854 0.0
C735 C 0.41009 0.90311 0.44508 0.0
C736 C 0.43147 0.92607 0.5577 0.0
C737 C 0.4606 0.91986 0.53163 0.0
N738 N 0.49136 0.89211 0.44752 0.0
N739 N 0.3789 0.91236 0.55141 0.0
C740 C 0.46405 0.90244 0.46545 0.0
C741 C 0.4065 0.91309 0.51952 0.0
N742 N 0.4416 0.8856 0.34707 0.0
N743 N 0.42721 0.9471 0.61269 0.0
H744 H 0.36005 0.90335 0.52372 0.0
H745 H 0.37552 0.91748 0.6079 0.0
H746 H 0.44424 0.96063 0.63651 0.0
H747 H 0.40618 0.95412 0.62776 0.0
H748 H 0.46204 0.88343 0.32062 0.0
H749 H 0.42302 0.87991 0.31359 0.0
H750 H 0.49484 0.87749 0.40279 0.0
H751 H 0.51008 0.89613 0.48169 0.0
C752 C 0.53948 0.37001 0.48603 0.0
C753 C 0.50827 0.36397 0.49162 0.0
C754 C 0.50229 0.41066 0.56083 0.0
C755 C 0.53293 0.41848 0.54788 0.0
N756 N 0.58086 0.40699 0.49842 0.0
N757 N 0.4593 0.37827 0.52915 0.0
C758 C 0.55174 0.39841 0.51112 0.0
C759 C 0.4895 0.38414 0.52804 0.0
N760 N 0.55713 0.34852 0.45683 0.0
N761 N 0.48561 0.42836 0.60605 0.0
H762 H 0.4492 0.35809 0.50977 0.0
H763 H 0.44386 0.39389 0.54517 0.0
H764 H 0.49392 0.4477 0.63349 0.0
H765 H 0.46382 0.42292 0.62137 0.0
H766 H 0.5803 0.35032 0.45622 0.0
H767 H 0.54858 0.32766 0.43745 0.0
H768 H 0.5953 0.39472 0.46593 0.0
H769 H 0.59027 0.42753 0.51763 0.0
C770 C 0.11463 0.61885 0.47979 0.0
C771 C 0.11895 0.60507 0.40882 0.0
C772 C 0.07303 0.5743 0.42608 0.0
C773 C 0.07313 0.58265 0.50249 0.0
N774 N 0.09248 0.61381 0.60375 0.0
N775 N 0.10336 0.56658 0.31738 0.0
C776 C 0.09307 0.60576 0.52965 0.0
C777 C 0.09804 0.58249 0.38157 0.0
N778 N 0.13148 0.644 0.49944 0.0
N779 N 0.04949 0.55744 0.39726 0.0
H780 H 0.12213 0.57009 0.28413 0.0
H781 H 0.09045 0.54765 0.30071 0.0
H782 H 0.03101 0.55103 0.42984 0.0
H783 H 0.04695 0.55273 0.3401 0.0
H784 H 0.12799 0.65645 0.54809 0.0
H785 H 0.14729 0.6539 0.46325 0.0
H786 H 0.10865 0.62794 0.62924 0.0
H787 H 0.07622 0.60518 0.64052 0.0
C788 C 0.10139 0.88794 0.85252 0.0
C789 C 0.0994 0.89029 0.93161 0.0
C790 C 0.1006 0.94531 0.92313 0.0
C791 C 0.09554 0.9423 0.84524 0.0
N792 N 0.10055 0.91213 0.7327 0.0
N793 N 0.10728 0.92141 0.04218 0.0
C794 C 0.09996 0.91437 0.80903 0.0
C795 C 0.10358 0.91897 0.96647 0.0
N796 N 0.10211 0.86044 0.81819 0.0
N797 N 0.10054 0.973 0.95655 0.0
H798 H 0.10915 0.90265 0.07716 0.0
H799 H 0.10915 0.90265 0.07716 0.0
H800 H 0.09836 0.99276 0.92542 0.0
H801 H 0.10331 0.97586 0.0145 0.0
H802 H 0.10234 0.85806 0.75977 0.0
H803 H 0.10336 0.84034 0.84807 0.0
H804 H 0.09958 0.93075 0.69692 0.0
H805 H 0.09958 0.93075 0.69692 0.0
C806 C 0.61281 0.07981 0.93708 0.0
C807 C 0.63984 0.0911 0.90392 0.0
C808 C 0.61684 0.08854 0.77914 0.0
C809 C 0.59111 0.07474 0.81188 0.0
N810 N 0.55994 0.06781 0.91993 0.0
N811 N 0.66453 0.11536 0.79934 0.0
C812 C 0.58744 0.07453 0.89048 0.0
C813 C 0.64061 0.09893 0.82671 0.0
N814 N 0.61202 0.07124 0.0109 0.0
N815 N 0.61908 0.08986 0.70266 0.0
H816 H 0.68205 0.12307 0.83416 0.0
H817 H 0.66578 0.12348 0.7445 0.0
H818 H 0.60128 0.08337 0.66736 0.0
H819 H 0.63857 0.09637 0.67451 0.0
H820 H 0.59399 0.05933 0.03484 0.0
H821 H 0.62997 0.07409 0.04774 0.0
H822 H 0.55514 0.06962 0.97697 0.0
H823 H 0.54127 0.06342 0.88578 0.0
C824 C 0.44871 0.62627 0.85437 0.0
C825 C 0.44534 0.62547 0.93358 0.0
C826 C 0.4441 0.57027 0.93269 0.0
C827 C 0.45163 0.57148 0.85574 0.0
N828 N 0.44907 0.59763 0.73784 0.0
N829 N 0.42867 0.59813 0.0429 0.0
C830 C 0.44939 0.59859 0.81465 0.0
C831 C 0.43863 0.59772 0.97056 0.0
N832 N 0.45406 0.65313 0.8183 0.0
N833 N 0.44436 0.5434 0.97008 0.0
H834 H 0.42496 0.61842 0.0707 0.0
H835 H 0.42179 0.57884 0.07244 0.0
H836 H 0.44764 0.52301 0.94243 0.0
H837 H 0.44223 0.5414 0.02813 0.0
H838 H 0.4607 0.65477 0.76239 0.0
H839 H 0.453 0.67396 0.84507 0.0
H840 H 0.44533 0.61632 0.70414 0.0
H841 H 0.44968 0.57728 0.70825 0.0
C842 C 0.90821 0.45033 0.88872 0.0
C843 C 0.89926 0.41928 0.89371 0.0
C844 C 0.94486 0.40532 0.82902 0.0
C845 C 0.95232 0.43644 0.81892 0.0
N846 N 0.93805 0.48856 0.82456 0.0
N847 N 0.9071 0.36711 0.86532 0.0
C848 C 0.93323 0.45894 0.84497 0.0
C849 C 0.91707 0.39664 0.86301 0.0
N850 N 0.89316 0.47173 0.92711 0.0
N851 N 0.96454 0.38433 0.80713 0.0
H852 H 0.88711 0.36029 0.89111 0.0
H853 H 0.91756 0.34962 0.8383 0.0
H854 H 0.9848 0.39032 0.78157 0.0
H855 H 0.96183 0.36134 0.8183 0.0
H856 H 0.90126 0.49394 0.93387 0.0
H857 H 0.8738 0.46709 0.95769 0.0
H858 H 0.92267 0.50514 0.83372 0.0
H859 H 0.95601 0.49642 0.7921 0.0
C860 C 0.08462 0.1576 0.7976 0.0
C861 C 0.06731 0.16507 0.861 0.0
C862 C 0.04394 0.11393 0.85975 0.0
C863 C 0.05993 0.10678 0.79369 0.0
N864 N 0.09058 0.12442 0.69022 0.0
N865 N 0.0254 0.1529 0.94083 0.0
C866 C 0.07892 0.12938 0.75975 0.0
C867 C 0.04511 0.14408 0.8876 0.0
N868 N 0.10708 0.17714 0.77491 0.0
N869 N 0.02905 0.0915 0.89885 0.0
H870 H 0.02582 0.17476 0.96286 0.0
H871 H 0.00695 0.13959 0.95745 0.0
H872 H 0.02892 0.06882 0.88296 0.0
H873 H 0.01957 0.09479 0.95142 0.0
H874 H 0.12285 0.17163 0.73494 0.0
H875 H 0.11072 0.19844 0.79925 0.0
H876 H 0.10205 0.1411 0.65941 0.0
H877 H 0.0866 0.10438 0.66037 0.0
C878 C 0.41163 0.99813 0.94191 0.0
C879 C 0.39021 0.02018 0.92898 0.0
C880 C 0.4151 0.03324 0.80965 0.0
C881 C 0.43897 0.01443 0.82919 0.0
N882 N 0.46289 0.98553 0.92611 0.0
N883 N 0.37279 0.06096 0.85369 0.0
C884 C 0.43801 0.9986 0.89865 0.0
C885 C 0.39222 0.03839 0.86354 0.0
N886 N 0.40672 0.97655 0.99571 0.0
N887 N 0.41359 0.0452 0.73909 0.0
H888 H 0.35539 0.06452 0.89096 0.0
H889 H 0.37507 0.07714 0.81144 0.0
H890 H 0.42937 0.04129 0.69778 0.0
H891 H 0.39533 0.05669 0.71951 0.0
H892 H 0.42052 0.95842 0.00321 0.0
H893 H 0.38704 0.97488 0.0266 0.0
H894 H 0.46392 0.97611 0.97969 0.0
H895 H 0.48357 0.98744 0.89976 0.0
C896 C 0.44663 0.3507 0.85404 0.0
C897 C 0.46498 0.3428 0.91568 0.0
C898 C 0.49223 0.39198 0.90569 0.0
C899 C 0.47502 0.39946 0.84138 0.0
N900 N 0.43775 0.3842 0.74907 0.0
N901 N 0.50901 0.3533 0.9906 0.0
C902 C 0.45273 0.3783 0.81403 0.0
C903 C 0.48914 0.36254 0.93777 0.0
N904 N 0.42264 0.33215 0.83551 0.0
N905 N 0.51013 0.41378 0.93959 0.0
H906 H 0.50719 0.33222 0.01644 0.0
H907 H 0.52883 0.36525 0.00353 0.0
H908 H 0.51175 0.43609 0.92089 0.0
H909 H 0.52081 0.4108 0.99099 0.0
H910 H 0.40596 0.33806 0.79811 0.0
H911 H 0.41883 0.31104 0.86048 0.0
H912 H 0.42428 0.36824 0.72057 0.0
H913 H 0.43978 0.40482 0.72148 0.0
C914 C 0.17319 0.51167 0.83497 0.0
C915 C 0.17509 0.49311 0.89941 0.0
C916 C 0.12952 0.46496 0.85796 0.0
C917 C 0.12449 0.48737 0.80268 0.0
N918 N 0.14059 0.53496 0.74569 0.0
N919 N 0.15426 0.45241 0.9748 0.0
C920 C 0.14634 0.51122 0.79189 0.0
C921 C 0.15328 0.46948 0.91102 0.0
N922 N 0.19696 0.53032 0.81624 0.0
N923 N 0.11178 0.43917 0.85912 0.0
H924 H 0.17166 0.45449 0.01376 0.0
H925 H 0.13701 0.43746 0.99119 0.0
H926 H 0.09468 0.43495 0.82006 0.0
H927 H 0.1159 0.4208 0.89359 0.0
H928 H 0.19812 0.54247 0.76616 0.0
H929 H 0.21676 0.53105 0.84738 0.0
H930 H 0.15438 0.5544 0.74256 0.0
H931 H 0.12073 0.53692 0.716 0.0
C932 C 0.96701 0.85703 0.49843 0.0
C933 C 0.99198 0.84052 0.47624 0.0
C934 C 0.0256 0.87709 0.54206 0.0
C935 C 1.0008 0.89462 0.55997 0.0
N936 N 0.94777 0.89849 0.57142 0.0
N937 N 0.04392 0.83037 0.49145 0.0
C938 C 0.97138 0.88352 0.54376 0.0
C939 C 0.0209 0.84902 0.50356 0.0
N940 N 0.93932 0.84797 0.47281 0.0
N941 N 0.05378 0.88801 0.55914 0.0
H942 H 0.0413 0.80999 0.46244 0.0
H943 H 0.06504 0.83364 0.51515 0.0
H944 H 0.05798 0.90767 0.5905 0.0
H945 H 0.07314 0.87857 0.53975 0.0
H946 H 0.92041 0.86055 0.47878 0.0
H947 H 0.93551 0.82782 0.44312 0.0
H948 H 0.92571 0.89054 0.56717 0.0
H949 H 0.95048 0.91812 0.6037 0.0
C950 C 0.66097 0.9598 0.41667 0.0
C951 C 0.68368 0.98211 0.43381 0.0
C952 C 0.65419 0.99955 0.53987 0.0
C953 C 0.632 0.97626 0.52536 0.0
N954 N 0.61841 0.9296 0.46172 0.0
N955 N 0.70564 0.01704 0.52373 0.0
C956 C 0.63674 0.95488 0.46746 0.0
C957 C 0.68155 0.9997 0.49993 0.0
N958 N 0.66153 0.94446 0.35003 0.0
N959 N 0.64839 0.02307 0.58678 0.0
H960 H 0.72595 0.01752 0.49534 0.0
H961 H 0.70637 0.02825 0.57532 0.0
H962 H 0.62798 0.02562 0.61311 0.0
H963 H 0.66271 0.04202 0.59296 0.0
H964 H 0.64378 0.93066 0.33059 0.0
H965 H 0.67883 0.94716 0.31149 0.0
H966 H 0.6224 0.91185 0.42513 0.0
H967 H 0.60092 0.925 0.49894 0.0
C968 C 0.58449 0.63403 0.49932 0.0
C969 C 0.56092 0.647 0.45862 0.0
C970 C 0.52472 0.61405 0.52631 0.0
C971 C 0.54846 0.59786 0.5573 0.0
N972 N 0.60107 0.59196 0.57458 0.0
N973 N 0.50839 0.64781 0.42887 0.0
C974 C 0.57844 0.60799 0.54505 0.0
C975 C 0.53091 0.63694 0.47183 0.0
N976 N 0.61262 0.64676 0.49379 0.0
N977 N 0.49618 0.60772 0.54971 0.0
H978 H 0.51162 0.66494 0.38929 0.0
H979 H 0.48673 0.63847 0.42878 0.0
H980 H 0.49088 0.59115 0.58965 0.0
H981 H 0.47822 0.6207 0.53518 0.0
H982 H 0.6306 0.64018 0.52616 0.0
H983 H 0.61736 0.66584 0.4609 0.0
H984 H 0.62344 0.596 0.56145 0.0
H985 H 0.59728 0.57335 0.60965 0.0
C986 C 0.89061 0.53534 0.42781 0.0
C987 C 0.8675 0.51542 0.4544 0.0
C988 C 0.8937 0.51164 0.57528 0.0
C989 C 0.91939 0.52586 0.54258 0.0
N990 N 0.94231 0.55333 0.43993 0.0
N991 N 0.84482 0.48704 0.55515 0.0
C992 C 0.9176 0.53911 0.47016 0.0
C993 C 0.86809 0.50493 0.52957 0.0
N994 N 0.88687 0.54976 0.36081 0.0
N995 N 0.89418 0.50432 0.64988 0.0
H996 H 0.82541 0.48313 0.52342 0.0
H997 H 0.84494 0.47554 0.60611 0.0
H998 H 0.91269 0.50942 0.68404 0.0
H999 H 0.87576 0.49568 0.67923 0.0
H1000 H 0.90173 0.56628 0.33992 0.0
H1001 H 0.86731 0.54697 0.32919 0.0
H1002 H 0.94376 0.56038 0.38424 0.0
H1003 H 0.96209 0.55705 0.47014 0.0
loop_
_geom_bond_atom_site_label_1
_geom_bond_atom_site_label_2
_geom_bond_distance
_geom_bond_site_symmetry_2
_ccdc_geom_bond_type
C0 C1 1.391 . S
C0 C4 1.391 . S
C0 H42 0.948 . S
C1 C0 1.391 . S
C1 C2 1.391 . S
C2 C1 1.391 . S
C2 H58 0.947 . S
C2 C59 1.392 . S
C3 C4 1.391 . S
C3 C7 1.397 . S
C3 C59 1.419 . S
C4 C0 1.391 . S
C4 C3 1.391 . S
C4 C5 1.399 . S
C5 C4 1.399 . S
C5 C8 1.396 . S
C5 C17 1.453 . S
C5 C18 1.684 . S
H6 C30 0.948 . S
C7 C3 1.397 . S
C7 C8 1.394 . S
C7 C26 1.723 . S
C8 C5 1.396 . S
C8 C7 1.394 . S
C8 C38 1.723 . S
H9 C32 0.947 . S
H10 C33 0.948 . S
H11 C39 0.982 . S
H12 C40 0.979 . S
H13 C40 0.980 . S
H14 C40 0.983 . S
H15 C39 0.979 . S
H16 C39 0.977 . S
C17 C5 1.453 . S
C17 H46 0.982 . S
C17 H47 0.979 . S
C17 H48 0.977 . S
C18 C5 1.684 . S
C18 H43 0.979 . S
C18 H44 0.980 . S
C18 H45 0.983 . S
C19 C20 1.391 . S
C19 C24 1.391 . S
C19 H49 0.948 . S
C20 C19 1.391 . S
C20 C21 1.391 . S
C21 C20 1.391 . S
C21 C22 1.392 . S
C21 H50 0.947 . S
C22 C21 1.392 . S
C22 C23 1.419 . S
C22 H51 0.948 . S
C23 C22 1.419 . S
C23 C24 1.391 . S
C23 C27 1.397 . S
C24 C19 1.391 . S
C24 C23 1.391 . S
C24 C25 1.399 1_556 S
C25 C24 1.399 1_554 S
C25 C26 1.396 . S
C25 C28 1.453 . S
C25 C29 1.684 . S
C26 C7 1.723 . S
C26 C25 1.396 . S
C26 C27 1.394 1_554 S
C27 C23 1.397 . S
C27 C26 1.394 1_556 S
C27 C37 1.723 . S
C28 C25 1.453 . S
C28 H52 0.982 . S
C28 H53 0.979 . S
C28 H54 0.977 . S
C29 C25 1.684 . S
C29 H55 0.979 . S
C29 H56 0.980 . S
C29 H57 0.983 . S
C30 H6 0.948 . S
C30 C31 1.391 . S
C30 C35 1.391 . S
C31 C30 1.391 . S
C31 C32 1.391 1_556 S
C32 H9 0.947 . S
C32 C31 1.391 1_554 S
C32 C33 1.392 . S
C33 H10 0.948 . S
C33 C32 1.392 . S
C33 C34 1.419 . S
C34 C33 1.419 . S
C34 C35 1.391 1_554 S
C34 C38 1.397 . S
C35 C30 1.391 . S
C35 C34 1.391 1_556 S
C35 C36 1.399 . S
C36 C35 1.399 . S
C36 C37 1.396 . S
C36 C39 1.453 . S
C36 C40 1.684 . S
C37 C27 1.723 . S
C37 C36 1.396 . S
C37 C38 1.394 1_556 S
C38 C8 1.723 . S
C38 C34 1.397 . S
C38 C37 1.394 1_554 S
C39 H11 0.982 . S
C39 H15 0.979 . S
C39 H16 0.977 . S
C39 C36 1.453 . S
C40 H12 0.979 . S
C40 H13 0.980 . S
C40 H14 0.983 . S
C40 C36 1.684 . S
H41 C59 0.948 . S
H42 C0 0.948 . S
H43 C18 0.979 . S
H44 C18 0.980 . S
H45 C18 0.983 . S
H46 C17 0.982 . S
H47 C17 0.979 . S
H48 C17 0.977 . S
H49 C19 0.948 . S
H50 C21 0.947 . S
H51 C22 0.948 . S
H52 C28 0.982 . S
H53 C28 0.979 . S
H54 C28 0.977 . S
H55 C29 0.979 . S
H56 C29 0.980 . S
H57 C29 0.983 . S
H58 C2 0.947 . S
C59 C2 1.392 . S
C59 C3 1.419 . S
C59 H41 0.948 . S
C60 C61 1.391 . S
C60 C64 1.391 . S
C60 H102 0.948 . S
C61 C60 1.391 . S
C61 C62 1.391 . S
C62 C61 1.391 . S
C62 H118 0.947 . S
C62 C119 1.392 1_556 S
C63 C64 1.391 1_554 S
C63 C67 1.397 . S
C63 C119 1.419 . S
C64 C60 1.391 . S
C64 C63 1.391 1_556 S
C64 C65 1.399 . S
C65 C64 1.399 . S
C65 C68 1.396 1_556 S
C65 C77 1.453 1_655 S
C65 C78 1.684 . S
H66 C90 0.948 . S
C67 C63 1.397 . S
C67 C68 1.394 . S
C67 C86 1.723 . S
C68 C65 1.396 1_554 S
C68 C67 1.394 . S
C68 C98 1.723 . S
H69 C92 0.947 . S
H70 C93 0.948 . S
H71 C99 0.982 . S
H72 C100 0.979 . S
H73 C100 0.980 . S
H74 C100 0.983 . S
H75 C99 0.979 . S
H76 C99 0.977 . S
C77 C65 1.453 1_455 S
C77 H106 0.982 . S
C77 H107 0.979 . S
C77 H108 0.977 . S
C78 C65 1.684 . S
C78 H103 0.979 . S
C78 H104 0.980 . S
C78 H105 0.983 . S
C79 C80 1.391 . S
C79 C84 1.391 . S
C79 H109 0.948 . S
C80 C79 1.391 . S
C80 C81 1.391 . S
C81 C80 1.391 . S
C81 C82 1.392 . S
C81 H110 0.947 . S
C82 C81 1.392 . S
C82 C83 1.419 . S
C82 H111 0.948 . S
C83 C82 1.419 . S
C83 C84 1.391 . S
C83 C87 1.397 . S
C84 C79 1.391 . S
C84 C83 1.391 . S
C84 C85 1.399 . S
C85 C84 1.399 . S
C85 C86 1.396 . S
C85 C88 1.453 1_655 S
C85 C89 1.684 . S
C86 C67 1.723 . S
C86 C85 1.396 . S
C86 C87 1.394 . S
C87 C83 1.397 . S
C87 C86 1.394 . S
C87 C97 1.723 . S
C88 C85 1.453 1_455 S
C88 H112 0.982 . S
C88 H113 0.979 . S
C88 H114 0.977 . S
C89 C85 1.684 . S
C89 H115 0.979 . S
C89 H116 0.980 . S
C89 H117 0.983 . S
C90 H66 0.948 . S
C90 C91 1.391 . S
C90 C95 1.391 . S
C91 C90 1.391 . S
C91 C92 1.391 1_554 S
C92 H69 0.947 . S
C92 C91 1.391 1_556 S
C92 C93 1.392 . S
C93 H70 0.948 . S
C93 C92 1.392 . S
C93 C94 1.419 1_556 S
C94 C93 1.419 1_554 S
C94 C95 1.391 . S
C94 C98 1.397 . S
C95 C90 1.391 . S
C95 C94 1.391 . S
C95 C96 1.399 . S
C96 C95 1.399 . S
C96 C97 1.396 . S
C96 C99 1.453 1_655 S
C96 C100 1.684 . S
C97 C87 1.723 . S
C97 C96 1.396 . S
C97 C98 1.394 . S
C98 C68 1.723 . S
C98 C94 1.397 . S
C98 C97 1.394 . S
C99 H71 0.982 . S
C99 H75 0.979 . S
C99 H76 0.977 . S
C99 C96 1.453 1_455 S
C100 H72 0.979 . S
C100 H73 0.980 . S
C100 H74 0.983 . S
C100 C96 1.684 . S
H101 C119 0.948 . S
H102 C60 0.948 . S
H103 C78 0.979 . S
H104 C78 0.980 . S
H105 C78 0.983 . S
H106 C77 0.982 . S
H107 C77 0.979 . S
H108 C77 0.977 . S
H109 C79 0.948 . S
H110 C81 0.947 . S
H111 C82 0.948 . S
H112 C88 0.982 . S
H113 C88 0.979 . S
H114 C88 0.977 . S
H115 C89 0.979 . S
H116 C89 0.980 . S
H117 C89 0.983 . S
H118 C62 0.947 . S
C119 C62 1.392 1_554 S
C119 C63 1.419 . S
C119 H101 0.948 . S
C120 C121 1.391 1_554 S
C120 C124 1.391 . S
C120 H162 0.948 . S
C121 C120 1.391 1_556 S
C121 C122 1.391 . S
C122 C121 1.391 . S
C122 H178 0.947 . S
C122 C179 1.392 . S
C123 C124 1.391 . S
C123 C127 1.396 . S
C123 C179 1.419 1_554 S
C124 C120 1.391 . S
C124 C123 1.391 . S
C124 C125 1.399 . S
C125 C124 1.399 . S
C125 C128 1.396 1_565 S
C125 C137 1.453 1_565 S
C125 C138 1.684 . S
H126 C150 0.948 . S
C127 C123 1.396 . S
C127 C128 1.394 1_565 S
C127 C146 1.723 1_564 S
C128 C125 1.396 1_545 S
C128 C127 1.394 1_545 S
C128 C158 1.723 . S
H129 C152 0.947 . S
H130 C153 0.948 . S
H131 C159 0.982 . S
H132 C160 0.979 . S
H133 C160 0.980 . S
H134 C160 0.983 . S
H135 C159 0.979 . S
H136 C159 0.977 . S
C137 C125 1.453 1_545 S
C137 H166 0.982 . S
C137 H167 0.979 . S
C137 H168 0.977 . S
C138 C125 1.684 . S
C138 H163 0.979 . S
C138 H164 0.980 . S
C138 H165 0.983 . S
C139 C140 1.391 . S
C139 C144 1.391 . S
C139 H169 0.948 . S
C140 C139 1.391 . S
C140 C141 1.391 . S
C141 C140 1.391 . S
C141 C142 1.392 . S
C141 H170 0.947 . S
C142 C141 1.392 . S
C142 C143 1.419 . S
C142 H171 0.948 1_556 S
C143 C142 1.419 . S
C143 C144 1.391 . S
C143 C147 1.397 1_566 S
C144 C139 1.391 . S
C144 C143 1.391 . S
C144 C145 1.399 . S
C145 C144 1.399 . S
C145 C146 1.396 1_565 S
C145 C148 1.453 1_565 S
C145 C149 1.684 . S
C146 C127 1.723 1_546 S
C146 C145 1.396 1_545 S
C146 C147 1.394 1_556 S
C147 C143 1.397 1_544 S
C147 C146 1.394 1_554 S
C147 C157 1.723 . S
C148 C145 1.453 1_545 S
C148 H172 0.982 . S
C148 H173 0.979 . S
C148 H174 0.977 . S
C149 C145 1.684 . S
C149 H175 0.979 . S
C149 H176 0.980 . S
C149 H177 0.983 . S
C150 H126 0.948 . S
C150 C151 1.391 . S
C150 C155 1.391 . S
C151 C150 1.391 . S
C151 C152 1.391 . S
C152 H129 0.947 . S
C152 C151 1.391 . S
C152 C153 1.392 . S
C153 H130 0.948 . S
C153 C152 1.392 . S
C153 C154 1.419 . S
C154 C153 1.419 . S
C154 C155 1.391 . S
C154 C158 1.397 1_565 S
C155 C150 1.391 . S
C155 C154 1.391 . S
C155 C156 1.399 . S
C156 C155 1.399 . S
C156 C157 1.396 1_565 S
C156 C159 1.453 1_565 S
C156 C160 1.684 . S
C157 C147 1.723 . S
C157 C156 1.396 1_545 S
C157 C158 1.394 . S
C158 C128 1.723 . S
C158 C154 1.397 1_545 S
C158 C157 1.394 . S
C159 H131 0.982 . S
C159 H135 0.979 . S
C159 H136 0.977 . S
C159 C156 1.453 1_545 S
C160 H132 0.979 . S
C160 H133 0.980 . S
C160 H134 0.983 . S
C160 C156 1.684 . S
H161 C179 0.948 . S
H162 C120 0.948 . S
H163 C138 0.979 . S
H164 C138 0.980 . S
H165 C138 0.983 . S
H166 C137 0.982 . S
H167 C137 0.979 . S
H168 C137 0.977 . S
H169 C139 0.948 . S
H170 C141 0.947 . S
H171 C142 0.948 1_554 S
H172 C148 0.982 . S
H173 C148 0.979 . S
H174 C148 0.977 . S
H175 C149 0.979 . S
H176 C149 0.980 . S
H177 C149 0.983 . S
H178 C122 0.947 . S
C179 C122 1.392 . S
C179 C123 1.419 1_556 S
C179 H161 0.948 . S
C180 C181 1.391 . S
C180 C184 1.391 . S
C180 H222 0.948 . S
C181 C180 1.391 . S
C181 C182 1.391 . S
C182 C181 1.391 . S
C182 H238 0.947 . S
C182 C239 1.392 . S
C183 C184 1.391 . S
C183 C187 1.397 . S
C183 C239 1.419 . S
C184 C180 1.391 . S
C184 C183 1.391 . S
C184 C185 1.399 . S
C185 C184 1.399 . S
C185 C188 1.396 . S
C185 C197 1.453 . S
C185 C198 1.684 . S
H186 C210 0.948 . S
C187 C183 1.397 . S
C187 C188 1.394 . S
C187 C206 1.723 . S
C188 C185 1.396 . S
C188 C187 1.394 . S
C188 C218 1.723 . S
H189 C212 0.947 . S
H190 C213 0.948 . S
H191 C219 0.982 . S
H192 C220 0.979 . S
H193 C220 0.980 . S
H194 C220 0.983 . S
H195 C219 0.979 . S
H196 C219 0.977 . S
C197 C185 1.453 . S
C197 H226 0.982 . S
C197 H227 0.979 . S
C197 H228 0.977 . S
C198 C185 1.684 . S
C198 H223 0.979 . S
C198 H224 0.980 . S
C198 H225 0.983 . S
C199 C200 1.391 . S
C199 C204 1.391 . S
C199 H229 0.948 . S
C200 C199 1.391 . S
C200 C201 1.391 . S
C201 C200 1.391 . S
C201 C202 1.392 . S
C201 H230 0.947 . S
C202 C201 1.392 . S
C202 C203 1.419 . S
C202 H231 0.948 . S
C203 C202 1.419 . S
C203 C204 1.391 . S
C203 C207 1.397 . S
C204 C199 1.391 . S
C204 C203 1.391 . S
C204 C205 1.399 1_556 S
C205 C204 1.399 1_554 S
C205 C206 1.396 . S
C205 C208 1.453 . S
C205 C209 1.684 . S
C206 C187 1.723 . S
C206 C205 1.396 . S
C206 C207 1.394 1_554 S
C207 C203 1.397 . S
C207 C206 1.394 1_556 S
C207 C217 1.723 . S
C208 C205 1.453 . S
C208 H232 0.982 . S
C208 H233 0.979 . S
C208 H234 0.977 . S
C209 C205 1.684 . S
C209 H235 0.979 . S
C209 H236 0.980 . S
C209 H237 0.983 . S
C210 H186 0.948 . S
C210 C211 1.391 . S
C210 C215 1.391 . S
C211 C210 1.391 . S
C211 C212 1.391 1_556 S
C212 H189 0.947 . S
C212 C211 1.391 1_554 S
C212 C213 1.392 . S
C213 H190 0.948 . S
C213 C212 1.392 . S
C213 C214 1.419 . S
C214 C213 1.419 . S
C214 C215 1.391 1_554 S
C214 C218 1.397 . S
C215 C210 1.391 . S
C215 C214 1.391 1_556 S
C215 C216 1.399 . S
C216 C215 1.399 . S
C216 C217 1.396 . S
C216 C219 1.453 . S
C216 C220 1.684 . S
C217 C207 1.723 . S
C217 C216 1.396 . S
C217 C218 1.394 1_556 S
C218 C188 1.723 . S
C218 C214 1.397 . S
C218 C217 1.394 1_554 S
C219 H191 0.982 . S
C219 H195 0.979 . S
C219 H196 0.977 . S
C219 C216 1.453 . S
C220 H192 0.979 . S
C220 H193 0.980 . S
C220 H194 0.983 . S
C220 C216 1.684 . S
H221 C239 0.948 . S
H222 C180 0.948 . S
H223 C198 0.979 . S
H224 C198 0.980 . S
H225 C198 0.983 . S
H226 C197 0.982 . S
H227 C197 0.979 . S
H228 C197 0.977 . S
H229 C199 0.948 . S
H230 C201 0.947 . S
H231 C202 0.948 . S
H232 C208 0.982 . S
H233 C208 0.979 . S
H234 C208 0.977 . S
H235 C209 0.979 . S
H236 C209 0.980 . S
H237 C209 0.983 . S
H238 C182 0.947 . S
C239 C182 1.392 . S
C239 C183 1.419 . S
C239 H221 0.948 . S
C240 C241 1.391 . S
C240 C244 1.391 . S
C240 H282 0.948 . S
C241 C240 1.391 . S
C241 C242 1.391 . S
C242 C241 1.391 . S
C242 H298 0.947 . S
C242 C299 1.392 . S
C243 C244 1.391 . S
C243 C247 1.397 . S
C243 C299 1.419 . S
C244 C240 1.391 . S
C244 C243 1.391 . S
C244 C245 1.399 . S
C245 C244 1.399 . S
C245 C248 1.396 . S
C245 C257 1.453 . S
C245 C258 1.684 . S
H246 C270 0.948 . S
C247 C243 1.397 . S
C247 C248 1.394 . S
C247 C266 1.723 . S
C248 C245 1.396 . S
C248 C247 1.394 . S
C248 C278 1.723 . S
H249 C272 0.947 . S
H250 C273 0.948 . S
H251 C279 0.982 . S
H252 C280 0.979 . S
H253 C280 0.980 . S
H254 C280 0.983 . S
H255 C279 0.979 . S
H256 C279 0.977 . S
C257 C245 1.453 . S
C257 H286 0.982 . S
C257 H287 0.979 . S
C257 H288 0.977 . S
C258 C245 1.684 . S
C258 H283 0.979 . S
C258 H284 0.980 . S
C258 H285 0.983 . S
C259 C260 1.391 . S
C259 C264 1.391 . S
C259 H289 0.948 . S
C260 C259 1.391 . S
C260 C261 1.391 . S
C261 C260 1.391 . S
C261 C262 1.392 . S
C261 H290 0.947 . S
C262 C261 1.392 . S
C262 C263 1.419 . S
C262 H291 0.948 . S
C263 C262 1.419 . S
C263 C264 1.391 . S
C263 C267 1.397 . S
C264 C259 1.391 . S
C264 C263 1.391 . S
C264 C265 1.399 . S
C265 C264 1.399 . S
C265 C266 1.396 . S
C265 C268 1.453 . S
C265 C269 1.684 . S
C266 C247 1.723 . S
C266 C265 1.396 . S
C266 C267 1.394 . S
C267 C263 1.397 . S
C267 C266 1.394 . S
C267 C277 1.723 . S
C268 C265 1.453 . S
C268 H292 0.982 . S
C268 H293 0.979 . S
C268 H294 0.977 . S
C269 C265 1.684 . S
C269 H295 0.979 . S
C269 H296 0.980 . S
C269 H297 0.983 . S
C270 H246 0.948 . S
C270 C271 1.391 1_554 S
C270 C275 1.391 . S
C271 C270 1.391 1_556 S
C271 C272 1.391 . S
C272 H249 0.947 . S
C272 C271 1.391 . S
C272 C273 1.392 1_556 S
C273 H250 0.948 . S
C273 C272 1.392 1_554 S
C273 C274 1.419 . S
C274 C273 1.419 . S
C274 C275 1.391 . S
C274 C278 1.397 . S
C275 C270 1.391 . S
C275 C274 1.391 . S
C275 C276 1.399 . S
C276 C275 1.399 . S
C276 C277 1.396 . S
C276 C279 1.453 . S
C276 C280 1.684 . S
C277 C267 1.723 . S
C277 C276 1.396 . S
C277 C278 1.394 . S
C278 C248 1.723 . S
C278 C274 1.397 . S
C278 C277 1.394 . S
C279 H251 0.982 . S
C279 H255 0.979 . S
C279 H256 0.977 . S
C279 C276 1.453 . S
C280 H252 0.979 . S
C280 H253 0.980 . S
C280 H254 0.983 . S
C280 C276 1.684 . S
H281 C299 0.948 . S
H282 C240 0.948 . S
H283 C258 0.979 . S
H284 C258 0.980 . S
H285 C258 0.983 . S
H286 C257 0.982 . S
H287 C257 0.979 . S
H288 C257 0.977 . S
H289 C259 0.948 . S
H290 C261 0.947 . S
H291 C262 0.948 . S
H292 C268 0.982 . S
H293 C268 0.979 . S
H294 C268 0.977 . S
H295 C269 0.979 . S
H296 C269 0.980 . S
H297 C269 0.983 . S
H298 C242 0.947 . S
C299 C242 1.392 . S
C299 C243 1.419 . S
C299 H281 0.948 . S
C300 C301 1.391 . S
C300 C304 1.391 . S
C300 H342 0.948 . S
C301 C300 1.391 . S
C301 C302 1.391 . S
C302 C301 1.391 . S
C302 H358 0.947 . S
C302 C359 1.392 . S
C303 C304 1.391 . S
C303 C307 1.397 . S
C303 C359 1.419 . S
C304 C300 1.391 . S
C304 C303 1.391 . S
C304 C305 1.399 . S
C305 C304 1.399 . S
C305 C308 1.396 . S
C305 C317 1.453 . S
C305 C318 1.684 . S
H306 C330 0.948 . S
C307 C303 1.397 . S
C307 C308 1.394 . S
C307 C326 1.723 . S
C308 C305 1.396 . S
C308 C307 1.394 . S
C308 C338 1.723 . S
H309 C332 0.947 . S
H310 C333 0.948 . S
H311 C339 0.982 . S
H312 C340 0.979 . S
H313 C340 0.980 . S
H314 C340 0.983 . S
H315 C339 0.979 . S
H316 C339 0.977 . S
C317 C305 1.453 . S
C317 H346 0.982 . S
C317 H347 0.979 . S
C317 H348 0.977 . S
C318 C305 1.684 . S
C318 H343 0.979 . S
C318 H344 0.980 . S
C318 H345 0.983 . S
C319 C320 1.391 . S
C319 C324 1.391 . S
C319 H349 0.948 . S
C320 C319 1.391 . S
C320 C321 1.391 . S
C321 C320 1.391 . S
C321 C322 1.392 . S
C321 H350 0.947 . S
C322 C321 1.392 . S
C322 C323 1.419 . S
C322 H351 0.948 . S
C323 C322 1.419 . S
C323 C324 1.391 . S
C323 C327 1.397 . S
C324 C319 1.391 . S
C324 C323 1.391 . S
C324 C325 1.399 . S
C325 C324 1.399 . S
C325 C326 1.396 . S
C325 C328 1.453 . S
C325 C329 1.684 . S
C326 C307 1.723 . S
C326 C325 1.396 . S
C326 C327 1.394 . S
C327 C323 1.397 . S
C327 C326 1.394 . S
C327 C337 1.723 . S
C328 C325 1.453 . S
C328 H352 0.982 . S
C328 H353 0.979 . S
C328 H354 0.977 . S
C329 C325 1.684 . S
C329 H355 0.979 . S
C329 H356 0.980 . S
C329 H357 0.983 . S
C330 H306 0.948 . S
C330 C331 1.391 . S
C330 C335 1.391 . S
C331 C330 1.391 . S
C331 C332 1.391 . S
C332 H309 0.947 . S
C332 C331 1.391 . S
C332 C333 1.392 . S
C333 H310 0.948 . S
C333 C332 1.392 . S
C333 C334 1.419 . S
C334 C333 1.419 . S
C334 C335 1.391 . S
C334 C338 1.397 . S
C335 C330 1.391 . S
C335 C334 1.391 . S
C335 C336 1.399 . S
C336 C335 1.399 . S
C336 C337 1.396 . S
C336 C339 1.453 . S
C336 C340 1.684 . S
C337 C327 1.723 . S
C337 C336 1.396 . S
C337 C338 1.394 . S
C338 C308 1.723 . S
C338 C334 1.397 . S
C338 C337 1.394 . S
C339 H311 0.982 . S
C339 H315 0.979 . S
C339 H316 0.977 . S
C339 C336 1.453 . S
C340 H312 0.979 . S
C340 H313 0.980 . S
C340 H314 0.983 . S
C340 C336 1.684 . S
H341 C359 0.948 . S
H342 C300 0.948 . S
H343 C318 0.979 . S
H344 C318 0.980 . S
H345 C318 0.983 . S
H346 C317 0.982 . S
H347 C317 0.979 . S
H348 C317 0.977 . S
H349 C319 0.948 . S
H350 C321 0.947 . S
H351 C322 0.948 . S
H352 C328 0.982 . S
H353 C328 0.979 . S
H354 C328 0.977 . S
H355 C329 0.979 . S
H356 C329 0.980 . S
H357 C329 0.983 . S
H358 C302 0.947 . S
C359 C302 1.392 . S
C359 C303 1.419 . S
C359 H341 0.948 . S
C360 C361 1.391 1_554 S
C360 C364 1.391 . S
C360 H402 0.948 1_554 S
C361 C360 1.391 1_556 S
C361 C362 1.391 1_556 S
C362 C361 1.391 1_554 S
C362 H418 0.947 . S
C362 C419 1.392 . S
C363 C364 1.391 . S
C363 C367 1.397 1_545 S
C363 C419 1.419 . S
C364 C360 1.391 . S
C364 C363 1.391 . S
C364 C365 1.399 . S
C365 C364 1.399 . S
C365 C368 1.396 1_545 S
C365 C377 1.453 1_545 S
C365 C378 1.684 . S
H366 C390 0.948 . S
C367 C363 1.397 1_565 S
C367 C368 1.394 . S
C367 C386 1.723 . S
C368 C365 1.396 1_565 S
C368 C367 1.394 . S
C368 C398 1.723 . S
H369 C392 0.947 . S
H370 C393 0.948 . S
H371 C399 0.982 . S
H372 C400 0.979 . S
H373 C400 0.980 . S
H374 C400 0.983 . S
H375 C399 0.979 . S
H376 C399 0.977 . S
C377 C365 1.453 1_565 S
C377 H406 0.982 . S
C377 H407 0.979 . S
C377 H408 0.977 . S
C378 C365 1.684 . S
C378 H403 0.979 . S
C378 H404 0.980 . S
C378 H405 0.983 . S
C379 C380 1.391 . S
C379 C384 1.391 . S
C379 H409 0.948 . S
C380 C379 1.391 . S
C380 C381 1.391 . S
C381 C380 1.391 . S
C381 C382 1.392 . S
C381 H410 0.947 . S
C382 C381 1.392 . S
C382 C383 1.419 . S
C382 H411 0.948 . S
C383 C382 1.419 . S
C383 C384 1.391 . S
C383 C387 1.397 1_545 S
C384 C379 1.391 . S
C384 C383 1.391 . S
C384 C385 1.399 . S
C385 C384 1.399 . S
C385 C386 1.396 1_545 S
C385 C388 1.453 1_545 S
C385 C389 1.684 . S
C386 C367 1.723 . S
C386 C385 1.396 1_565 S
C386 C387 1.394 . S
C387 C383 1.397 1_565 S
C387 C386 1.394 . S
C387 C397 1.723 . S
C388 C385 1.453 1_565 S
C388 H412 0.982 . S
C388 H413 0.979 . S
C388 H414 0.977 . S
C389 C385 1.684 . S
C389 H415 0.979 . S
C389 H416 0.980 . S
C389 H417 0.983 . S
C390 H366 0.948 . S
C390 C391 1.391 . S
C390 C395 1.391 . S
C391 C390 1.391 . S
C391 C392 1.391 . S
C392 H369 0.947 . S
C392 C391 1.391 . S
C392 C393 1.392 . S
C393 H370 0.948 . S
C393 C392 1.392 . S
C393 C394 1.419 . S
C394 C393 1.419 . S
C394 C395 1.391 . S
C394 C398 1.396 1_545 S
C395 C390 1.391 . S
C395 C394 1.391 . S
C395 C396 1.399 . S
C396 C395 1.399 . S
C396 C397 1.396 1_545 S
C396 C399 1.453 1_545 S
C396 C400 1.684 . S
C397 C387 1.723 . S
C397 C396 1.396 1_565 S
C397 C398 1.395 . S
C398 C368 1.723 . S
C398 C394 1.396 1_565 S
C398 C397 1.395 . S
C399 H371 0.982 . S
C399 H375 0.979 . S
C399 H376 0.977 . S
C399 C396 1.453 1_565 S
C400 H372 0.979 . S
C400 H373 0.980 . S
C400 H374 0.983 . S
C400 C396 1.684 . S
H401 C419 0.948 . S
H402 C360 0.948 1_556 S
H403 C378 0.979 . S
H404 C378 0.980 . S
H405 C378 0.983 . S
H406 C377 0.982 . S
H407 C377 0.979 . S
H408 C377 0.977 . S
H409 C379 0.948 . S
H410 C381 0.947 . S
H411 C382 0.948 . S
H412 C388 0.982 . S
H413 C388 0.979 . S
H414 C388 0.977 . S
H415 C389 0.979 . S
H416 C389 0.980 . S
H417 C389 0.983 . S
H418 C362 0.947 . S
C419 C362 1.392 . S
C419 C363 1.419 . S
C419 H401 0.948 . S
C420 C421 1.391 . S
C420 C424 1.391 1_556 S
C420 H462 0.948 . S
C421 C420 1.391 . S
C421 C422 1.391 1_556 S
C422 C421 1.391 1_554 S
C422 H478 0.947 1_554 S
C422 C479 1.392 . S
C423 C424 1.391 . S
C423 C427 1.397 . S
C423 C479 1.419 . S
C424 C420 1.391 1_554 S
C424 C423 1.391 . S
C424 C425 1.399 . S
C425 C424 1.399 . S
C425 C428 1.396 . S
C425 C437 1.453 . S
C425 C438 1.684 . S
H426 C450 0.948 . S
C427 C423 1.397 . S
C427 C428 1.394 . S
C427 C446 1.723 . S
C428 C425 1.396 . S
C428 C427 1.394 . S
C428 C458 1.723 . S
H429 C452 0.947 . S
H430 C453 0.948 . S
H431 C459 0.982 . S
H432 C460 0.979 . S
H433 C460 0.980 . S
H434 C460 0.983 . S
H435 C459 0.979 . S
H436 C459 0.977 . S
C437 C425 1.453 . S
C437 H466 0.982 . S
C437 H467 0.979 . S
C437 H468 0.977 . S
C438 C425 1.684 . S
C438 H463 0.979 . S
C438 H464 0.980 . S
C438 H465 0.983 . S
C439 C440 1.391 . S
C439 C444 1.391 . S
C439 H469 0.948 . S
C440 C439 1.391 . S
C440 C441 1.391 . S
C441 C440 1.391 . S
C441 C442 1.392 . S
C441 H470 0.947 . S
C442 C441 1.392 . S
C442 C443 1.419 . S
C442 H471 0.948 . S
C443 C442 1.419 . S
C443 C444 1.391 . S
C443 C447 1.397 . S
C444 C439 1.391 . S
C444 C443 1.391 . S
C444 C445 1.399 . S
C445 C444 1.399 . S
C445 C446 1.396 . S
C445 C448 1.453 . S
C445 C449 1.684 . S
C446 C427 1.723 . S
C446 C445 1.396 . S
C446 C447 1.394 . S
C447 C443 1.397 . S
C447 C446 1.394 . S
C447 C457 1.723 . S
C448 C445 1.453 . S
C448 H472 0.982 . S
C448 H473 0.979 . S
C448 H474 0.977 . S
C449 C445 1.684 . S
C449 H475 0.979 . S
C449 H476 0.980 . S
C449 H477 0.983 . S
C450 H426 0.948 . S
C450 C451 1.391 . S
C450 C455 1.391 . S
C451 C450 1.391 . S
C451 C452 1.391 . S
C452 H429 0.947 . S
C452 C451 1.391 . S
C452 C453 1.392 . S
C453 H430 0.948 . S
C453 C452 1.392 . S
C453 C454 1.419 . S
C454 C453 1.419 . S
C454 C455 1.391 . S
C454 C458 1.397 . S
C455 C450 1.391 . S
C455 C454 1.391 . S
C455 C456 1.399 . S
C456 C455 1.399 . S
C456 C457 1.396 . S
C456 C459 1.453 . S
C456 C460 1.684 . S
C457 C447 1.723 . S
C457 C456 1.396 . S
C457 C458 1.394 . S
C458 C428 1.723 . S
C458 C454 1.397 . S
C458 C457 1.394 . S
C459 H431 0.982 . S
C459 H435 0.979 . S
C459 H436 0.977 . S
C459 C456 1.453 . S
C460 H432 0.979 . S
C460 H433 0.980 . S
C460 H434 0.983 . S
C460 C456 1.684 . S
H461 C479 0.948 . S
H462 C420 0.948 . S
H463 C438 0.979 . S
H464 C438 0.980 . S
H465 C438 0.983 . S
H466 C437 0.982 . S
H467 C437 0.979 . S
H468 C437 0.977 . S
H469 C439 0.948 . S
H470 C441 0.947 . S
H471 C442 0.948 . S
H472 C448 0.982 . S
H473 C448 0.979 . S
H474 C448 0.977 . S
H475 C449 0.979 . S
H476 C449 0.980 . S
H477 C449 0.983 . S
H478 C422 0.947 1_556 S
C479 C422 1.392 . S
C479 C423 1.419 . S
C479 H461 0.948 . S
O480 Zn481 1.953 . S
O480 C496 1.225 . S
Zn481 O480 1.953 . S
Zn481 O482 1.950 . S
Zn481 O488 1.919 1_565 S
Zn481 O493 1.924 . S
O482 Zn481 1.950 . S
O482 Zn483 1.900 1_565 S
O482 Zn484 1.953 . S
O482 Zn485 1.964 . S
Zn483 O482 1.900 1_545 S
Zn483 O486 1.933 1_455 S
Zn483 O489 1.941 . S
Zn483 O490 1.965 . S
Zn484 O482 1.953 . S
Zn484 O491 1.938 1_565 S
Zn484 O492 1.906 . S
Zn484 O502 1.953 . S
Zn485 O482 1.964 . S
Zn485 O487 1.932 1_455 S
Zn485 O494 1.977 1_455 S
Zn485 O495 1.910 . S
O486 Zn483 1.933 1_655 S
O486 C497 1.226 . S
O487 Zn485 1.932 1_655 S
O487 C497 1.307 1_565 S
O488 Zn481 1.919 1_545 S
O488 C499 1.253 . S
O489 Zn483 1.941 . S
O489 C499 1.283 . S
O490 Zn483 1.965 . S
O490 C498 1.303 . S
O491 Zn484 1.938 1_545 S
O491 C498 1.247 . S
O492 Zn484 1.906 . S
O492 C500 1.282 1_455 S
O493 Zn481 1.924 . S
O493 C501 1.311 . S
O494 Zn485 1.977 1_655 S
O494 C500 1.276 . S
O495 Zn485 1.910 . S
O495 C501 1.231 . S
C496 O480 1.225 . S
C496 O502 1.298 . S
C497 O486 1.226 . S
C497 O487 1.307 1_545 S
C498 O490 1.303 . S
C498 O491 1.247 . S
C499 O488 1.253 . S
C499 O489 1.283 . S
C500 O492 1.282 1_655 S
C500 O494 1.276 . S
C501 O493 1.311 . S
C501 O495 1.231 . S
O502 Zn484 1.953 . S
O502 C496 1.298 . S
O503 Zn504 1.953 . S
O503 C519 1.225 . S
Zn504 O503 1.953 . S
Zn504 O505 1.949 . S
Zn504 O511 1.919 . S
Zn504 O516 1.924 . S
O505 Zn504 1.949 . S
O505 Zn506 1.923 1_545 S
O505 Zn507 1.950 . S
O505 Zn508 1.945 1_545 S
Zn506 O505 1.923 1_565 S
Zn506 O509 1.933 . S
Zn506 O512 1.941 . S
Zn506 O513 1.965 . S
Zn507 O505 1.950 . S
Zn507 O514 1.938 . S
Zn507 O515 1.906 1_545 S
Zn507 O525 1.953 . S
Zn508 O505 1.945 1_565 S
Zn508 O510 1.932 . S
Zn508 O517 1.977 . S
Zn508 O518 1.910 1_565 S
O509 Zn506 1.933 . S
O509 C520 1.226 . S
O510 Zn508 1.932 . S
O510 C520 1.307 . S
O511 Zn504 1.919 . S
O511 C522 1.253 . S
O512 Zn506 1.941 . S
O512 C522 1.283 1_565 S
O513 Zn506 1.965 . S
O513 C521 1.303 . S
O514 Zn507 1.938 . S
O514 C521 1.247 1_545 S
O515 Zn507 1.906 1_565 S
O515 C523 1.304 . S
O516 Zn504 1.924 . S
O516 C524 1.311 . S
O517 Zn508 1.977 . S
O517 C523 1.272 . S
O518 Zn508 1.910 1_545 S
O518 C524 1.231 . S
C519 O503 1.225 . S
C519 O525 1.298 . S
C520 O509 1.226 . S
C520 O510 1.307 . S
C521 O513 1.303 . S
C521 O514 1.247 1_565 S
C522 O511 1.253 . S
C522 O512 1.283 1_545 S
C523 O515 1.304 . S
C523 O517 1.272 . S
C524 O516 1.311 . S
C524 O518 1.231 . S
O525 Zn507 1.953 . S
O525 C519 1.298 . S
O526 Zn527 1.953 . S
O526 C542 1.225 . S
Zn527 O526 1.953 . S
Zn527 O528 1.949 . S
Zn527 O534 1.919 . S
Zn527 O539 1.924 . S
O528 Zn527 1.949 . S
O528 Zn529 1.923 . S
O528 Zn530 1.950 . S
O528 Zn531 1.945 . S
Zn529 O528 1.923 . S
Zn529 O532 1.933 . S
Zn529 O535 1.941 . S
Zn529 O536 1.965 . S
Zn530 O528 1.950 . S
Zn530 O537 1.938 . S
Zn530 O538 1.906 . S
Zn530 O548 1.953 . S
Zn531 O528 1.945 . S
Zn531 O533 1.932 . S
Zn531 O540 1.977 . S
Zn531 O541 1.910 . S
O532 Zn529 1.933 . S
O532 C543 1.226 . S
O533 Zn531 1.932 . S
O533 C543 1.307 . S
O534 Zn527 1.919 . S
O534 C545 1.253 . S
O535 Zn529 1.941 . S
O535 C545 1.283 . S
O536 Zn529 1.965 . S
O536 C544 1.303 . S
O537 Zn530 1.938 . S
O537 C544 1.247 . S
O538 Zn530 1.906 . S
O538 C546 1.304 . S
O539 Zn527 1.924 . S
O539 C547 1.311 . S
O540 Zn531 1.977 . S
O540 C546 1.272 . S
O541 Zn531 1.910 . S
O541 C547 1.231 . S
C542 O526 1.225 . S
C542 O548 1.298 . S
C543 O532 1.226 . S
C543 O533 1.307 . S
C544 O536 1.303 . S
C544 O537 1.247 . S
C545 O534 1.253 . S
C545 O535 1.283 . S
C546 O538 1.304 . S
C546 O540 1.272 . S
C547 O539 1.311 . S
C547 O541 1.231 . S
O548 Zn530 1.953 . S
O548 C542 1.298 . S
O549 Zn550 1.953 1_655 S
O549 C565 1.225 . S
Zn550 O549 1.953 1_455 S
Zn550 O551 1.949 . S
Zn550 O557 1.919 . S
Zn550 O562 1.924 . S
O551 Zn550 1.949 . S
O551 Zn552 1.923 . S
O551 Zn553 1.950 1_455 S
O551 Zn554 1.945 . S
Zn552 O551 1.923 . S
Zn552 O555 1.933 . S
Zn552 O558 1.941 1_455 S
Zn552 O559 1.965 1_455 S
Zn553 O551 1.950 1_655 S
Zn553 O560 1.938 . S
Zn553 O561 1.906 1_655 S
Zn553 O571 1.953 . S
Zn554 O551 1.945 . S
Zn554 O556 1.932 . S
Zn554 O563 1.977 . S
Zn554 O564 1.910 . S
O555 Zn552 1.933 . S
O555 C566 1.226 . S
O556 Zn554 1.932 . S
O556 C566 1.307 . S
O557 Zn550 1.919 . S
O557 C568 1.253 . S
O558 Zn552 1.941 1_655 S
O558 C568 1.283 1_655 S
O559 Zn552 1.965 1_655 S
O559 C567 1.303 . S
O560 Zn553 1.938 . S
O560 C567 1.247 . S
O561 Zn553 1.906 1_455 S
O561 C569 1.304 . S
O562 Zn550 1.924 . S
O562 C570 1.311 . S
O563 Zn554 1.977 . S
O563 C569 1.272 . S
O564 Zn554 1.910 . S
O564 C570 1.231 . S
C565 O549 1.225 . S
C565 O571 1.298 . S
C566 O555 1.226 . S
C566 O556 1.307 . S
C567 O559 1.303 . S
C567 O560 1.247 . S
C568 O557 1.253 . S
C568 O558 1.283 1_455 S
C569 O561 1.304 . S
C569 O563 1.272 . S
C570 O562 1.311 . S
C570 O564 1.231 . S
O571 Zn553 1.953 . S
O571 C565 1.298 . S
C572 C573 1.363 1_545 S
C572 C578 1.379 . S
C572 N580 1.356 . S
C573 C572 1.363 1_565 S
C573 C579 1.363 . S
C574 C575 1.363 . S
C574 C579 1.379 . S
C574 N581 1.356 . S
C575 C574 1.363 . S
C575 C578 1.363 1_565 S
N576 C578 1.356 . S
N576 H588 0.984 . S
N576 H589 0.985 . S
N577 C579 1.356 . S
N577 H582 0.984 . S
N577 H583 0.985 . S
C578 C572 1.379 . S
C578 C575 1.363 1_545 S
C578 N576 1.356 . S
C579 C573 1.363 . S
C579 C574 1.379 . S
C579 N577 1.356 . S
N580 C572 1.356 . S
N580 H586 0.984 . S
N580 H587 0.984 . S
N581 C574 1.356 . S
N581 H584 0.984 . S
N581 H585 0.985 . S
H582 N577 0.984 . S
H583 N577 0.985 . S
H584 N581 0.984 . S
H585 N581 0.985 . S
H586 N580 0.984 . S
H587 N580 0.984 . S
H588 N576 0.984 . S
H589 N576 0.985 . S
C590 C591 1.363 . S
C590 C596 1.379 . S
C590 N598 1.356 . S
C591 C590 1.363 . S
C591 C597 1.363 . S
C592 C593 1.363 . S
C592 C597 1.379 . S
C592 N599 1.356 . S
C593 C592 1.363 . S
C593 C596 1.363 . S
N594 C596 1.356 . S
N594 H606 0.984 . S
N594 H607 0.985 . S
N595 C597 1.356 . S
N595 H600 0.984 . S
N595 H601 0.985 . S
C596 C590 1.379 . S
C596 C593 1.363 . S
C596 N594 1.356 . S
C597 C591 1.363 . S
C597 C592 1.379 . S
C597 N595 1.356 . S
N598 C590 1.356 . S
N598 H604 0.984 . S
N598 H605 0.984 . S
N599 C592 1.356 . S
N599 H602 0.984 . S
N599 H603 0.985 . S
H600 N595 0.984 . S
H601 N595 0.985 . S
H602 N599 0.984 . S
H603 N599 0.985 . S
H604 N598 0.984 . S
H605 N598 0.984 . S
H606 N594 0.984 . S
H607 N594 0.985 . S
C608 C609 1.363 . S
C608 C614 1.379 . S
C608 N616 1.356 . S
C609 C608 1.363 . S
C609 C615 1.363 . S
C610 C611 1.363 . S
C610 C615 1.379 . S
C610 N617 1.356 . S
C611 C610 1.363 . S
C611 C614 1.363 . S
N612 C614 1.356 . S
N612 H624 0.984 . S
N612 H625 0.985 . S
N613 C615 1.356 . S
N613 H618 0.984 . S
N613 H619 0.985 . S
C614 C608 1.379 . S
C614 C611 1.363 . S
C614 N612 1.356 . S
C615 C609 1.363 . S
C615 C610 1.379 . S
C615 N613 1.356 . S
N616 C608 1.356 . S
N616 H622 0.984 . S
N616 H623 0.984 . S
N617 C610 1.356 . S
N617 H620 0.984 . S
N617 H621 0.985 . S
H618 N613 0.984 . S
H619 N613 0.985 . S
H620 N617 0.984 . S
H621 N617 0.985 . S
H622 N616 0.984 . S
H623 N616 0.984 . S
H624 N612 0.984 . S
H625 N612 0.985 . S
C626 C627 1.363 . S
C626 C632 1.379 . S
C626 N634 1.356 . S
C627 C626 1.363 . S
C627 C633 1.363 . S
C628 C629 1.363 . S
C628 C633 1.379 . S
C628 N635 1.356 . S
C629 C628 1.363 . S
C629 C632 1.363 . S
N630 C632 1.356 . S
N630 H642 0.984 . S
N630 H643 0.985 . S
N631 C633 1.356 . S
N631 H636 0.984 . S
N631 H637 0.985 . S
C632 C626 1.379 . S
C632 C629 1.363 . S
C632 N630 1.356 . S
C633 C627 1.363 . S
C633 C628 1.379 . S
C633 N631 1.356 . S
N634 C626 1.356 . S
N634 H640 0.984 . S
N634 H641 0.984 . S
N635 C628 1.356 . S
N635 H638 0.984 . S
N635 H639 0.975 1_455 S
H636 N631 0.984 . S
H637 N631 0.985 . S
H638 N635 0.984 . S
H639 N635 0.975 1_655 S
H640 N634 0.984 . S
H641 N634 0.984 . S
H642 N630 0.984 . S
H643 N630 0.985 . S
C644 C645 1.363 1_565 S
C644 C650 1.379 . S
C644 N652 1.356 . S
C645 C644 1.363 1_545 S
C645 C651 1.363 . S
C646 C647 1.363 . S
C646 C651 1.379 . S
C646 N653 1.356 . S
C647 C646 1.363 . S
C647 C650 1.363 1_545 S
N648 C650 1.356 . S
N648 H660 0.984 . S
N648 H661 0.985 . S
N649 C651 1.356 . S
N649 H654 0.984 . S
N649 H655 0.985 . S
C650 C644 1.379 . S
C650 C647 1.363 1_565 S
C650 N648 1.356 . S
C651 C645 1.363 . S
C651 C646 1.379 . S
C651 N649 1.356 . S
N652 C644 1.356 . S
N652 H658 0.984 . S
N652 H659 0.984 1_556 S
N653 C646 1.356 . S
N653 H656 0.984 . S
N653 H657 0.985 . S
H654 N649 0.984 . S
H655 N649 0.985 . S
H656 N653 0.984 . S
H657 N653 0.985 . S
H658 N652 0.984 . S
H659 N652 0.984 1_554 S
H660 N648 0.984 . S
H661 N648 0.985 . S
C662 C663 1.363 . S
C662 C668 1.379 . S
C662 N670 1.356 . S
C663 C662 1.363 . S
C663 C669 1.363 . S
C664 C665 1.363 . S
C664 C669 1.379 . S
C664 N671 1.356 . S
C665 C664 1.363 . S
C665 C668 1.363 . S
N666 C668 1.356 . S
N666 H678 0.984 . S
N666 H679 0.985 . S
N667 C669 1.356 1_554 S
N667 H672 0.984 . S
N667 H673 0.985 . S
C668 C662 1.379 . S
C668 C665 1.363 . S
C668 N666 1.356 . S
C669 C663 1.363 . S
C669 C664 1.379 . S
C669 N667 1.356 1_556 S
N670 C662 1.356 . S
N670 H676 0.984 . S
N670 H677 0.984 . S
N671 C664 1.356 . S
N671 H674 0.984 . S
N671 H675 0.985 . S
H672 N667 0.984 . S
H673 N667 0.985 . S
H674 N671 0.984 . S
H675 N671 0.985 . S
H676 N670 0.984 . S
H677 N670 0.984 . S
H678 N666 0.984 . S
H679 N666 0.985 . S
C680 C681 1.363 . S
C680 C686 1.379 . S
C680 N688 1.356 . S
C681 C680 1.363 . S
C681 C687 1.363 . S
C682 C683 1.363 . S
C682 C687 1.379 . S
C682 N689 1.356 . S
C683 C682 1.363 . S
C683 C686 1.363 . S
N684 C686 1.356 . S
N684 H696 0.984 . S
N684 H697 0.985 . S
N685 C687 1.356 . S
N685 H690 0.984 . S
N685 H691 0.985 . S
C686 C680 1.379 . S
C686 C683 1.363 . S
C686 N684 1.356 . S
C687 C681 1.363 . S
C687 C682 1.379 . S
C687 N685 1.356 . S
N688 C680 1.356 . S
N688 H694 0.984 . S
N688 H695 0.984 1_556 S
N689 C682 1.356 . S
N689 H692 0.984 . S
N689 H693 0.985 . S
H690 N685 0.984 . S
H691 N685 0.985 . S
H692 N689 0.984 . S
H693 N689 0.985 . S
H694 N688 0.984 . S
H695 N688 0.984 1_554 S
H696 N684 0.984 . S
H697 N684 0.985 . S
C698 C699 1.363 . S
C698 C704 1.379 . S
C698 N706 1.356 . S
C699 C698 1.363 . S
C699 C705 1.363 1_655 S
C700 C701 1.363 . S
C700 C705 1.379 . S
C700 N707 1.356 . S
C701 C700 1.363 . S
C701 C704 1.363 1_455 S
N702 C704 1.356 . S
N702 H714 0.984 . S
N702 H715 0.985 . S
N703 C705 1.356 1_554 S
N703 H708 0.979 1_455 S
N703 H709 0.985 . S
C704 C698 1.379 . S
C704 C701 1.363 1_655 S
C704 N702 1.356 . S
C705 C699 1.363 1_455 S
C705 C700 1.379 . S
C705 N703 1.356 1_556 S
N706 C698 1.356 . S
N706 H712 0.984 . S
N706 H713 0.984 . S
N707 C700 1.356 . S
N707 H710 0.984 . S
N707 H711 0.985 . S
H708 N703 0.979 1_655 S
H709 N703 0.985 . S
H710 N707 0.984 . S
H711 N707 0.985 . S
H712 N706 0.984 . S
H713 N706 0.984 . S
H714 N702 0.984 . S
H715 N702 0.985 . S
C716 C717 1.363 . S
C716 C722 1.379 . S
C716 N724 1.356 . S
C717 C716 1.363 . S
C717 C723 1.363 . S
C718 C719 1.363 . S
C718 C723 1.379 . S
C718 N725 1.356 . S
C719 C718 1.363 . S
C719 C722 1.363 . S
N720 C722 1.356 . S
N720 H732 0.984 . S
N720 H733 0.985 . S
N721 C723 1.356 . S
N721 H726 0.984 . S
N721 H727 0.985 . S
C722 C716 1.379 . S
C722 C719 1.363 . S
C722 N720 1.356 . S
C723 C717 1.363 . S
C723 C718 1.379 . S
C723 N721 1.356 . S
N724 C716 1.356 . S
N724 H730 0.984 . S
N724 H731 0.984 . S
N725 C718 1.356 . S
N725 H728 0.984 . S
N725 H729 0.985 . S
H726 N721 0.984 . S
H727 N721 0.985 . S
H728 N725 0.984 . S
H729 N725 0.985 . S
H730 N724 0.984 . S
H731 N724 0.984 . S
H732 N720 0.984 . S
H733 N720 0.985 . S
C734 C735 1.363 1_565 S
C734 C740 1.379 . S
C734 N742 1.356 . S
C735 C734 1.363 1_545 S
C735 C741 1.363 . S
C736 C737 1.363 1_545 S
C736 C741 1.379 . S
C736 N743 1.356 . S
C737 C736 1.363 1_565 S
C737 C740 1.363 . S
N738 C740 1.356 . S
N738 H750 0.984 . S
N738 H751 0.985 . S
N739 C741 1.356 . S
N739 H744 0.984 . S
N739 H745 0.985 . S
C740 C734 1.379 . S
C740 C737 1.363 . S
C740 N738 1.356 . S
C741 C735 1.363 . S
C741 C736 1.379 . S
C741 N739 1.356 . S
N742 C734 1.356 . S
N742 H748 0.984 . S
N742 H749 0.984 . S
N743 C736 1.356 . S
N743 H746 0.984 . S
N743 H747 0.985 . S
H744 N739 0.984 . S
H745 N739 0.985 . S
H746 N743 0.984 . S
H747 N743 0.985 . S
H748 N742 0.984 . S
H749 N742 0.984 . S
H750 N738 0.984 . S
H751 N738 0.985 . S
C752 C753 1.363 . S
C752 C758 1.379 . S
C752 N760 1.356 . S
C753 C752 1.363 . S
C753 C759 1.363 . S
C754 C755 1.363 . S
C754 C759 1.379 . S
C754 N761 1.356 . S
C755 C754 1.363 . S
C755 C758 1.363 . S
N756 C758 1.356 . S
N756 H768 0.984 . S
N756 H769 0.985 . S
N757 C759 1.356 . S
N757 H762 0.984 . S
N757 H763 0.985 . S
C758 C752 1.379 . S
C758 C755 1.363 . S
C758 N756 1.356 . S
C759 C753 1.363 . S
C759 C754 1.379 . S
C759 N757 1.356 . S
N760 C752 1.356 . S
N760 H766 0.984 . S
N760 H767 0.984 . S
N761 C754 1.356 . S
N761 H764 0.984 . S
N761 H765 0.985 . S
H762 N757 0.984 . S
H763 N757 0.985 . S
H764 N761 0.984 . S
H765 N761 0.985 . S
H766 N760 0.984 . S
H767 N760 0.984 . S
H768 N756 0.984 . S
H769 N756 0.985 . S
C770 C771 1.363 . S
C770 C776 1.379 . S
C770 N778 1.356 . S
C771 C770 1.363 . S
C771 C777 1.363 . S
C772 C773 1.363 . S
C772 C777 1.379 . S
C772 N779 1.356 . S
C773 C772 1.363 . S
C773 C776 1.363 . S
N774 C776 1.356 . S
N774 H786 0.984 . S
N774 H787 0.985 . S
N775 C777 1.356 . S
N775 H780 0.984 . S
N775 H781 0.985 . S
C776 C770 1.379 . S
C776 C773 1.363 . S
C776 N774 1.356 . S
C777 C771 1.363 . S
C777 C772 1.379 . S
C777 N775 1.356 . S
N778 C770 1.356 . S
N778 H784 0.984 . S
N778 H785 0.984 . S
N779 C772 1.356 . S
N779 H782 0.984 . S
N779 H783 0.985 . S
H780 N775 0.984 . S
H781 N775 0.985 . S
H782 N779 0.984 . S
H783 N779 0.985 . S
H784 N778 0.984 . S
H785 N778 0.984 . S
H786 N774 0.984 . S
H787 N774 0.985 . S
C788 C789 1.363 . S
C788 C794 1.379 1_655 S
C788 N796 1.356 . S
C789 C788 1.363 . S
C789 C795 1.363 1_655 S
C790 C791 1.363 . S
C790 C795 1.379 . S
C790 N797 1.356 . S
C791 C790 1.363 . S
C791 C794 1.363 . S
N792 C794 1.356 . S
N792 H804 0.984 . S
N792 H805 0.985 . S
N793 C795 1.356 . S
N793 H798 0.984 1_455 S
N793 H799 0.985 . S
C794 C788 1.379 1_455 S
C794 C791 1.363 . S
C794 N792 1.356 . S
C795 C789 1.363 1_455 S
C795 C790 1.379 . S
C795 N793 1.356 . S
N796 C788 1.356 . S
N796 H802 0.984 . S
N796 H803 0.984 . S
N797 C790 1.356 . S
N797 H800 0.984 . S
N797 H801 0.985 . S
H798 N793 0.984 1_655 S
H799 N793 0.985 . S
H800 N797 0.984 . S
H801 N797 0.985 . S
H802 N796 0.984 . S
H803 N796 0.984 . S
H804 N792 0.984 . S
H805 N792 0.985 . S
C806 C807 1.363 . S
C806 C812 1.394 . S
C806 N814 1.339 1_545 S
C807 C806 1.363 . S
C807 C813 1.363 . S
C808 C809 1.363 . S
C808 C813 1.379 . S
C808 N815 1.356 . S
C809 C808 1.363 . S
C809 C812 1.363 . S
N810 C812 1.356 . S
N810 H822 0.984 . S
N810 H823 0.985 . S
N811 C813 1.356 . S
N811 H816 0.986 1_545 S
N811 H817 0.985 . S
C812 C806 1.394 . S
C812 C809 1.363 . S
C812 N810 1.356 . S
C813 C807 1.363 . S
C813 C808 1.379 . S
C813 N811 1.356 . S
N814 C806 1.339 1_565 S
N814 H820 0.984 . S
N814 H821 0.984 . S
N815 C808 1.356 . S
N815 H818 0.984 . S
N815 H819 0.985 . S
H816 N811 0.986 1_565 S
H817 N811 0.985 . S
H818 N815 0.984 . S
H819 N815 0.985 . S
H820 N814 0.984 . S
H821 N814 0.984 . S
H822 N810 0.984 . S
H823 N810 0.985 . S
C824 C825 1.363 . S
C824 C830 1.379 . S
C824 N832 1.356 . S
C825 C824 1.363 . S
C825 C831 1.363 . S
C826 C827 1.363 . S
C826 C831 1.379 . S
C826 N833 1.356 . S
C827 C826 1.363 . S
C827 C830 1.363 . S
N828 C830 1.356 . S
N828 H840 0.984 . S
N828 H841 0.985 . S
N829 C831 1.356 . S
N829 H834 0.984 . S
N829 H835 0.985 . S
C830 C824 1.379 . S
C830 C827 1.363 . S
C830 N828 1.356 . S
C831 C825 1.363 . S
C831 C826 1.379 . S
C831 N829 1.356 . S
N832 C824 1.356 . S
N832 H838 0.984 . S
N832 H839 0.984 . S
N833 C826 1.356 . S
N833 H836 0.984 . S
N833 H837 0.985 . S
H834 N829 0.984 . S
H835 N829 0.985 . S
H836 N833 0.984 . S
H837 N833 0.985 . S
H838 N832 0.984 . S
H839 N832 0.984 . S
H840 N828 0.984 . S
H841 N828 0.985 . S
C842 C843 1.363 . S
C842 C848 1.379 . S
C842 N850 1.356 . S
C843 C842 1.363 . S
C843 C849 1.363 . S
C844 C845 1.363 . S
C844 C849 1.379 . S
C844 N851 1.356 . S
C845 C844 1.363 . S
C845 C848 1.363 . S
N846 C848 1.356 . S
N846 H858 0.984 . S
N846 H859 0.985 . S
N847 C849 1.356 . S
N847 H852 0.984 . S
N847 H853 0.985 . S
C848 C842 1.379 . S
C848 C845 1.363 . S
C848 N846 1.356 . S
C849 C843 1.363 . S
C849 C844 1.379 . S
C849 N847 1.356 . S
N850 C842 1.356 . S
N850 H856 0.984 . S
N850 H857 0.984 . S
N851 C844 1.356 . S
N851 H854 0.984 . S
N851 H855 0.985 . S
H852 N847 0.984 . S
H853 N847 0.985 . S
H854 N851 0.984 . S
H855 N851 0.985 . S
H856 N850 0.984 . S
H857 N850 0.984 . S
H858 N846 0.984 . S
H859 N846 0.985 . S
C860 C861 1.363 1_554 S
C860 C866 1.379 1_554 S
C860 N868 1.356 . S
C861 C860 1.363 1_556 S
C861 C867 1.363 . S
C862 C863 1.363 . S
C862 C867 1.379 . S
C862 N869 1.356 . S
C863 C862 1.363 . S
C863 C866 1.363 . S
N864 C866 1.356 . S
N864 H876 0.984 1_556 S
N864 H877 0.985 . S
N865 C867 1.356 . S
N865 H870 0.984 . S
N865 H871 0.985 . S
C866 C860 1.379 1_556 S
C866 C863 1.363 . S
C866 N864 1.356 . S
C867 C861 1.363 . S
C867 C862 1.379 . S
C867 N865 1.356 . S
N868 C860 1.356 . S
N868 H874 0.984 . S
N868 H875 0.984 . S
N869 C862 1.356 . S
N869 H872 0.984 . S
N869 H873 0.985 . S
H870 N865 0.984 . S
H871 N865 0.985 . S
H872 N869 0.984 . S
H873 N869 0.985 . S
H874 N868 0.984 . S
H875 N868 0.984 . S
H876 N864 0.984 1_554 S
H877 N864 0.985 . S
C878 C879 1.362 . S
C878 C884 1.379 . S
C878 N886 1.356 . S
C879 C878 1.362 . S
C879 C885 1.364 1_565 S
C880 C881 1.345 1_545 S
C880 C885 1.379 . S
C880 N887 1.356 . S
C881 C880 1.345 1_565 S
C881 C884 1.380 . S
N882 C884 1.356 . S
N882 H894 0.984 . S
N882 H895 0.985 . S
N883 C885 1.356 . S
N883 H888 0.984 . S
N883 H889 0.985 . S
C884 C878 1.379 . S
C884 C881 1.380 . S
C884 N882 1.356 . S
C885 C879 1.364 1_545 S
C885 C880 1.379 . S
C885 N883 1.356 . S
N886 C878 1.356 . S
N886 H892 0.984 1_556 S
N886 H893 0.984 . S
N887 C880 1.356 . S
N887 H890 0.984 . S
N887 H891 0.985 . S
H888 N883 0.984 . S
H889 N883 0.985 . S
H890 N887 0.984 . S
H891 N887 0.985 . S
H892 N886 0.984 1_554 S
H893 N886 0.984 . S
H894 N882 0.984 . S
H895 N882 0.985 . S
C896 C897 1.363 . S
C896 C902 1.379 . S
C896 N904 1.356 . S
C897 C896 1.363 . S
C897 C903 1.363 . S
C898 C899 1.363 . S
C898 C903 1.379 . S
C898 N905 1.356 . S
C899 C898 1.363 . S
C899 C902 1.363 . S
N900 C902 1.356 . S
N900 H912 0.984 . S
N900 H913 0.985 . S
N901 C903 1.356 . S
N901 H906 0.984 . S
N901 H907 0.985 . S
C902 C896 1.379 . S
C902 C899 1.363 . S
C902 N900 1.356 . S
C903 C897 1.363 . S
C903 C898 1.379 . S
C903 N901 1.356 . S
N904 C896 1.356 . S
N904 H910 0.984 1_556 S
N904 H911 0.984 . S
N905 C898 1.356 . S
N905 H908 0.984 . S
N905 H909 0.985 . S
H906 N901 0.984 . S
H907 N901 0.985 . S
H908 N905 0.984 . S
H909 N905 0.985 . S
H910 N904 0.984 1_554 S
H911 N904 0.984 . S
H912 N900 0.984 . S
H913 N900 0.985 . S
C914 C915 1.363 . S
C914 C920 1.379 . S
C914 N922 1.356 . S
C915 C914 1.363 . S
C915 C921 1.363 . S
C916 C917 1.363 . S
C916 C921 1.379 . S
C916 N923 1.356 . S
C917 C916 1.363 . S
C917 C920 1.363 . S
N918 C920 1.356 . S
N918 H930 0.984 . S
N918 H931 0.985 . S
N919 C921 1.356 . S
N919 H924 0.984 . S
N919 H925 0.985 . S
C920 C914 1.379 . S
C920 C917 1.363 . S
C920 N918 1.356 . S
C921 C915 1.363 . S
C921 C916 1.379 . S
C921 N919 1.356 . S
N922 C914 1.356 . S
N922 H928 0.984 . S
N922 H929 0.984 . S
N923 C916 1.356 . S
N923 H926 0.984 . S
N923 H927 0.985 . S
H924 N919 0.984 . S
H925 N919 0.985 . S
H926 N923 0.984 . S
H927 N923 0.985 . S
H928 N922 0.984 . S
H929 N922 0.984 . S
H930 N918 0.984 . S
H931 N918 0.985 . S
C932 C933 1.363 . S
C932 C938 1.379 . S
C932 N940 1.356 . S
C933 C932 1.363 . S
C933 C939 1.363 1_655 S
C934 C935 1.363 1_455 S
C934 C939 1.379 . S
C934 N941 1.356 . S
C935 C934 1.363 1_655 S
C935 C938 1.363 . S
N936 C938 1.356 . S
N936 H948 0.984 . S
N936 H949 0.985 . S
N937 C939 1.356 . S
N937 H942 0.984 . S
N937 H943 0.985 . S
C938 C932 1.379 . S
C938 C935 1.363 . S
C938 N936 1.356 . S
C939 C933 1.363 1_455 S
C939 C934 1.379 . S
C939 N937 1.356 . S
N940 C932 1.356 . S
N940 H946 0.984 . S
N940 H947 0.984 . S
N941 C934 1.356 . S
N941 H944 0.984 . S
N941 H945 0.985 . S
H942 N937 0.984 . S
H943 N937 0.985 . S
H944 N941 0.984 . S
H945 N941 0.985 . S
H946 N940 0.984 . S
H947 N940 0.984 . S
H948 N936 0.984 . S
H949 N936 0.985 . S
C950 C951 1.363 . S
C950 C956 1.379 . S
C950 N958 1.356 . S
C951 C950 1.363 . S
C951 C957 1.363 . S
C952 C953 1.363 . S
C952 C957 1.379 . S
C952 N959 1.356 . S
C953 C952 1.363 . S
C953 C956 1.363 . S
N954 C956 1.356 . S
N954 H966 0.984 . S
N954 H967 0.985 . S
N955 C957 1.356 1_545 S
N955 H960 0.984 . S
N955 H961 0.985 . S
C956 C950 1.379 . S
C956 C953 1.363 . S
C956 N954 1.356 . S
C957 C951 1.363 . S
C957 C952 1.379 . S
C957 N955 1.356 1_565 S
N958 C950 1.356 . S
N958 H964 0.984 . S
N958 H965 0.984 . S
N959 C952 1.356 . S
N959 H962 0.984 . S
N959 H963 0.985 1_565 S
H960 N955 0.984 . S
H961 N955 0.985 . S
H962 N959 0.984 . S
H963 N959 0.985 1_545 S
H964 N958 0.984 . S
H965 N958 0.984 . S
H966 N954 0.984 . S
H967 N954 0.985 . S
C968 C969 1.363 . S
C968 C974 1.379 . S
C968 N976 1.356 . S
C969 C968 1.363 . S
C969 C975 1.363 . S
C970 C971 1.363 . S
C970 C975 1.379 . S
C970 N977 1.356 . S
C971 C970 1.363 . S
C971 C974 1.363 . S
N972 C974 1.356 . S
N972 H984 0.984 . S
N972 H985 0.985 . S
N973 C975 1.356 . S
N973 H978 0.984 . S
N973 H979 0.985 . S
C974 C968 1.379 . S
C974 C971 1.363 . S
C974 N972 1.356 . S
C975 C969 1.363 . S
C975 C970 1.379 . S
C975 N973 1.356 . S
N976 C968 1.356 . S
N976 H982 0.984 . S
N976 H983 0.984 . S
N977 C970 1.356 . S
N977 H980 0.984 . S
N977 H981 0.985 . S
H978 N973 0.984 . S
H979 N973 0.985 . S
H980 N977 0.984 . S
H981 N977 0.985 . S
H982 N976 0.984 . S
H983 N976 0.984 . S
H984 N972 0.984 . S
H985 N972 0.985 . S
C986 C987 1.363 . S
C986 C992 1.379 . S
C986 N994 1.356 . S
C987 C986 1.363 . S
C987 C993 1.363 . S
C988 C989 1.363 . S
C988 C993 1.379 . S
C988 N995 1.356 . S
C989 C988 1.363 . S
C989 C992 1.363 . S
N990 C992 1.356 . S
N990 H1002 0.984 . S
N990 H1003 0.985 . S
N991 C993 1.356 . S
N991 H996 0.984 . S
N991 H997 0.985 . S
C992 C986 1.379 . S
C992 C989 1.363 . S
C992 N990 1.356 . S
C993 C987 1.363 . S
C993 C988 1.379 . S
C993 N991 1.356 . S
N994 C986 1.356 . S
N994 H1000 0.984 . S
N994 H1001 0.984 . S
N995 C988 1.356 . S
N995 H998 0.984 . S
N995 H999 0.985 . S
H996 N991 0.984 . S
H997 N991 0.985 . S
H998 N995 0.984 . S
H999 N995 0.985 . S
H1000 N994 0.984 . S
H1001 N994 0.984 . S
H1002 N990 0.984 . S
H1003 N990 0.985 . S
C573 C391 1.938 1_565 S
C575 C496 1.849 . S
C593 C519 2.027 . S
C591 C451 2.129 . S
C611 C542 1.875 . S
C609 C241 1.722 . S
C629 C569 1.742 . S
C627 C331 1.683 . S
C647 C497 1.717 . S
C645 C121 1.582 1_545 S
C663 C211 1.813 . S
C665 C520 1.816 . S
C681 C31 1.713 . S
C683 C543 1.661 . S
C699 C91 1.699 1_556 S
C701 C568 1.856 . S
C719 C498 0.854 . S
C717 C301 0.752 . S
C737 C521 0.431 . S
C735 C380 0.461 . S
C755 C544 0.646 . S
C753 C440 0.662 . S
C771 C260 0.730 . S
C773 C570 0.730 . S
C789 C61 0.860 . S
C791 C501 0.814 . S
C809 C524 0.765 . S
C807 C140 0.778 1_545 S
C827 C547 0.866 . S
C825 C200 0.917 . S
C843 C20 0.410 . S
C845 C567 0.378 . S
C861 C320 2.059 1_556 S
C863 C499 2.034 . S
C879 C361 1.780 1_565 S
C881 C522 2.007 1_565 S
C899 C545 2.054 . S
C897 C421 1.848 . S
C917 C566 1.901 . S
C915 C271 1.880 . S
C933 C80 2.198 . S
C935 C500 2.082 . S
C953 C523 1.924 . S
C951 C151 2.023 . S
C971 C546 1.941 . S
C969 C181 1.773 . S
C987 C1 1.903 . S
C989 C565 2.180 . S
