# Generated by pormake.
# Topology anh, (6,3)-cn, num edge types: 1
# Building blocks:
#     Node 0, Type 0, BuildingBlock: HISSIN_clean_sbu_0, # of connection points: 6
#     Node 1, Type 0, BuildingBlock: HISSIN_clean_sbu_0, # of connection points: 6
#     Node 2, Type 0, BuildingBlock: HISSIN_clean_sbu_0, # of connection points: 6
#     Node 3, Type 1, BuildingBlock: BETDIP_clean_linker_0, # of connection points: 3
#     Node 4, Type 1, BuildingBlock: BETDIP_clean_linker_0, # of connection points: 3
#     Node 5, Type 1, BuildingBlock: BETDIP_clean_linker_0, # of connection points: 3
#     Node 6, Type 1, BuildingBlock: BETDIP_clean_linker_0, # of connection points: 3
#     Node 7, Type 1, BuildingBlock: BETDIP_clean_linker_0, # of connection points: 3
#     Node 8, Type 1, BuildingBlock: BETDIP_clean_linker_0, # of connection points: 3
#     Edge 9, Type (0, 1), BuildingBlock: MIFKUJ_clean_linker_0, # of connection points: 2
#     Edge 10, Type (0, 1), BuildingBlock: MIFKUJ_clean_linker_0, # of connection points: 2
#     Edge 11, Type (0, 1), BuildingBlock: MIFKUJ_clean_linker_0, # of connection points: 2
#     Edge 12, Type (0, 1), BuildingBlock: MIFKUJ_clean_linker_0, # of connection points: 2
#     Edge 13, Type (0, 1), BuildingBlock: MIFKUJ_clean_linker_0, # of connection points: 2
#     Edge 14, Type (0, 1), BuildingBlock: MIFKUJ_clean_linker_0, # of connection points: 2
#     Edge 15, Type (0, 1), BuildingBlock: MIFKUJ_clean_linker_0, # of connection points: 2
#     Edge 16, Type (0, 1), BuildingBlock: MIFKUJ_clean_linker_0, # of connection points: 2
#     Edge 17, Type (0, 1), BuildingBlock: MIFKUJ_clean_linker_0, # of connection points: 2
#     Edge 18, Type (0, 1), BuildingBlock: MIFKUJ_clean_linker_0, # of connection points: 2
#     Edge 19, Type (0, 1), BuildingBlock: MIFKUJ_clean_linker_0, # of connection points: 2
#     Edge 20, Type (0, 1), BuildingBlock: MIFKUJ_clean_linker_0, # of connection points: 2
#     Edge 21, Type (0, 1), BuildingBlock: MIFKUJ_clean_linker_0, # of connection points: 2
#     Edge 22, Type (0, 1), BuildingBlock: MIFKUJ_clean_linker_0, # of connection points: 2
#     Edge 23, Type (0, 1), BuildingBlock: MIFKUJ_clean_linker_0, # of connection points: 2
#     Edge 24, Type (0, 1), BuildingBlock: MIFKUJ_clean_linker_0, # of connection points: 2
#     Edge 25, Type (0, 1), BuildingBlock: MIFKUJ_clean_linker_0, # of connection points: 2
#     Edge 26, Type (0, 1), BuildingBlock: MIFKUJ_clean_linker_0, # of connection points: 2
# Relax obj value: 0.185
# Max RMSD: 0.186
# Mean RMSD: 0.121
data_MOF--net-anh--node1-HISSIN_clean_sbu_0--node2-BETDIP_clean_linker_0--edge1-MIFKUJ_clean_linker_0
_symmetry_space_group_name_H-M    P1
_symmetry_Int_Tables_number       1
_symmetry_cell_setting            triclinic
loop_
_symmetry_equiv_pos_as_xyz
'x, y, z'
_cell_length_a     39.410884
_cell_length_b     39.28603
_cell_length_c     64.92312
_cell_angle_alpha  96.34673
_cell_angle_beta   89.031905
_cell_angle_gamma 120.15634
loop_
_atom_site_label
_atom_site_type_symbol
_atom_site_fract_x
_atom_site_fract_y
_atom_site_fract_z
_atom_type_partial_charge
Eu0 Eu 1.07557 0.58041 0.16214 0.0
Eu1 Eu 0.12424 0.67695 0.17077 0.0
C2 C 0.09779 0.62449 0.20878 0.0
C3 C 0.9983 0.47227 0.1436 0.0
C4 C 0.96372 0.46199 0.1542 0.0
C5 C 0.96082 0.41654 0.11724 0.0
C6 C 0.92844 0.42837 0.14687 0.0
C7 C 0.9963 0.45002 0.12473 0.0
C8 C 0.9268 0.4043 0.1287 0.0
C9 C 1.03685 0.50364 0.15291 0.0
O10 O 0.17261 0.66146 0.17255 0.0
O11 O 0.13932 0.59679 0.15749 0.0
C12 C 0.1724 0.62905 0.1644 0.0
O13 O 1.07049 0.60532 0.13366 0.0
O14 O 0.1678 0.7337 0.18741 0.0
O15 O 0.13411 0.73224 0.16088 0.0
O16 O 0.13182 0.65836 0.13774 0.0
C17 C 0.10188 0.63208 0.12561 0.0
O18 O 1.0262 0.594 0.16747 0.0
O19 O 1.06046 0.6614 0.16615 0.0
O20 O 0.1025 0.65682 0.202 0.0
O21 O 1.06163 0.52781 0.14061 0.0
O22 O 1.0373 0.52164 0.17116 0.0
O23 O 1.0948 0.59471 0.19599 0.0
C24 C 0.20064 0.78214 0.16487 0.0
C25 C 0.21082 0.77198 0.14525 0.0
C26 C 0.26357 0.84309 0.16888 0.0
C27 C 0.24731 0.79707 0.13758 0.0
C28 C 0.22692 0.81811 0.17646 0.0
C29 C 0.27446 0.83252 0.1495 0.0
C30 C 0.16409 0.75408 0.17393 0.0
C31 C 1.02699 0.62779 0.16671 0.0
H32 H 0.96416 0.47867 0.16874 0.0
H33 H 0.96054 0.39912 0.10304 0.0
H34 H 0.90322 0.41984 0.15638 0.0
H35 H 1.02255 0.45749 0.11621 0.0
H36 H 0.19102 0.74414 0.13608 0.0
H37 H 0.28403 0.86972 0.17868 0.0
H38 H 0.25464 0.7882 0.12256 0.0
H39 H 0.21965 0.82621 0.1917 0.0
Eu40 Eu 0.58764 1.06238 0.49866 0.0
Eu41 Eu 0.53689 0.10814 0.50403 0.0
C42 C 0.56267 0.08212 0.5441 0.0
C43 C 0.62773 0.98906 0.49438 0.0
C44 C 0.60327 0.96213 0.50788 0.0
C45 C 0.65859 0.94959 0.48603 0.0
C46 C 0.60685 0.92914 0.5106 0.0
C47 C 0.65494 0.9823 0.48332 0.0
C48 C 0.63489 0.92275 0.49984 0.0
C49 C 0.62694 1.02528 0.49195 0.0
O50 O 0.59922 0.15771 0.49945 0.0
O51 O 0.63479 0.12753 0.50524 0.0
C52 C 0.6331 0.15941 0.50241 0.0
O53 O 0.59606 0.09293 0.47034 0.0
O54 O 0.52515 0.15341 0.51898 0.0
O55 O 0.48826 0.11379 0.49271 0.0
O56 O 0.53689 0.08967 0.46985 0.0
C57 C 0.56807 0.09377 0.4604 0.0
O58 O 0.52331 1.01474 0.49121 0.0
O59 O 0.49304 1.04474 0.50928 0.0
O60 O 0.55404 0.1069 0.53678 0.0
O61 O 0.60073 1.0223 0.47875 0.0
O62 O 0.63181 1.04918 0.50872 0.0
O63 O 0.57065 1.05826 0.53193 0.0
C64 C 0.50484 0.18043 0.4949 0.0
C65 C 0.5396 0.20129 0.48452 0.0
C66 C 0.4859 0.22812 0.48783 0.0
C67 C 0.54806 0.23599 0.4764 0.0
C68 C 0.47763 0.19347 0.49614 0.0
C69 C 0.5217 0.25035 0.47831 0.0
C70 C 0.49817 0.14615 0.50505 0.0
C71 C 0.49177 1.01273 0.49972 0.0
H72 H 0.58199 0.96697 0.5165 0.0
H73 H 0.6811 0.94625 0.47784 0.0
H74 H 0.58802 0.90893 0.52127 0.0
H75 H 0.67414 1.00294 0.4729 0.0
H76 H 0.56086 0.19147 0.48331 0.0
H77 H 0.46473 0.23802 0.48934 0.0
H78 H 0.57622 0.25251 0.46957 0.0
H79 H 0.45048 0.17744 0.50395 0.0
Eu80 Eu 0.58363 0.58545 0.82421 0.0
Eu81 Eu 0.6769 0.63658 0.83807 0.0
C82 C 0.61221 0.60713 0.87238 0.0
C83 C 0.48726 0.56029 0.79856 0.0
C84 C 0.48384 0.59323 0.80621 0.0
C85 C 0.44318 0.54767 0.76932 0.0
C86 C 0.45904 0.60226 0.796 0.0
C87 C 0.46774 0.53838 0.7797 0.0
C88 C 0.4371 0.57867 0.77782 0.0
C89 C 0.51094 0.54853 0.81007 0.0
O90 O 0.66233 0.57271 0.83903 0.0
O91 O 0.60098 0.53826 0.82254 0.0
C92 C 0.63193 0.53921 0.83062 0.0
O93 O 0.61772 0.61363 0.79664 0.0
O94 O 0.72851 0.65112 0.85726 0.0
O95 O 0.73417 0.68607 0.83247 0.0
O96 O 0.67201 0.61126 0.80498 0.0
C97 C 0.64965 0.61324 0.79114 0.0
O98 O 0.59417 0.64765 0.83224 0.0
O99 O 0.66115 0.68249 0.83049 0.0
O100 O 0.6453 0.6369 0.86715 0.0
O101 O 0.53892 0.54655 0.79998 0.0
O102 O 0.52187 0.5648 0.82923 0.0
O103 O 0.58714 0.57937 0.85828 0.0
C104 C 0.78618 0.67395 0.83782 0.0
C105 C 0.80372 0.68939 0.81941 0.0
C106 C 0.83053 0.64841 0.84032 0.0
C107 C 0.83403 0.68395 0.81142 0.0
C108 C 0.80036 0.65393 0.84833 0.0
C109 C 0.84737 0.66294 0.82166 0.0
C110 C 0.75265 0.67775 0.84572 0.0
C111 C 0.62712 0.68126 0.83124 0.0
H112 H 0.49923 0.6113 0.8205 0.0
H113 H 0.42776 0.52948 0.75508 0.0
H114 H 0.45532 0.62626 0.80324 0.0
H115 H 0.47069 0.51339 0.77326 0.0
H116 H 0.79374 0.70531 0.81101 0.0
H117 H 0.84093 0.63298 0.84885 0.0
H118 H 0.84656 0.69558 0.79706 0.0
H119 H 0.78791 0.64218 0.86268 0.0
H120 H 0.69571 1.0311 0.19928 0.0
H121 H 0.71445 0.06647 0.26488 0.0
H122 H 0.61099 1.04992 0.23334 0.0
H123 H 0.79415 1.05703 0.21277 0.0
C124 C 0.77318 0.06721 0.21496 0.0
C125 C 0.68609 1.03922 0.21377 0.0
C126 C 0.65041 1.039 0.21416 0.0
C127 C 0.7097 1.05045 0.232 0.0
C128 C 0.69651 1.05932 0.25086 0.0
C129 C 0.66094 1.05957 0.25158 0.0
C130 C 0.63846 1.04991 0.23304 0.0
N131 N 0.74739 1.05408 0.23162 0.0
H132 H 0.8007 0.66717 0.52347 0.0
H133 H 0.83287 0.70314 0.58823 0.0
H134 H 0.72117 0.60018 0.56887 0.0
H135 H 0.88559 0.75726 0.52605 0.0
C136 C 0.8598 0.74526 0.53532 0.0
C137 C 0.79346 0.6622 0.53943 0.0
C138 C 0.75764 0.6296 0.54402 0.0
C139 C 0.82056 0.68842 0.55539 0.0
C140 C 0.81163 0.68268 0.57609 0.0
C141 C 0.77516 0.65156 0.58111 0.0
C142 C 0.74874 0.62485 0.56499 0.0
N143 N 0.85694 0.721 0.55071 0.0
H144 H 1.07214 0.49655 0.84787 0.0
H145 H 0.09757 0.47748 0.90832 0.0
H146 H 1.08846 0.57994 0.901 0.0
H147 H 1.07898 0.40966 0.8411 0.0
C148 C 1.094 0.44037 0.848 0.0
C149 C 1.07924 0.50649 0.86427 0.0
C150 C 1.08014 0.54137 0.87277 0.0
C151 C 1.08626 0.48376 0.87704 0.0
C152 C 1.0931 0.4955 0.89843 0.0
C153 C 1.09363 0.53005 0.90707 0.0
C154 C 1.08763 0.55303 0.8942 0.0
N155 N 1.08578 0.4485 0.8688 0.0
H156 H 1.09215 0.61491 0.49029 0.0
H157 H 1.02744 0.55587 0.43197 0.0
H158 H 0.14101 0.66057 0.43295 0.0
H159 H 1.01493 0.50088 0.45027 0.0
C160 C 1.00286 0.5098 0.46358 0.0
C161 C 1.08974 0.6131 0.47356 0.0
C162 C 0.12101 0.6419 0.46288 0.0
C163 C 1.05613 0.5808 0.4624 0.0
C164 C 1.05354 0.57923 0.44061 0.0
C165 C 1.0837 0.60822 0.42991 0.0
C166 C 0.11721 0.63879 0.44119 0.0
N167 N 1.02505 0.55027 0.47291 0.0
H168 H 0.62534 0.1392 0.82672 0.0
H169 H 0.60831 1.06389 0.76962 0.0
H170 H 0.60892 0.17329 0.7685 0.0
H171 H 0.56516 1.01759 0.79627 0.0
C172 C 0.59232 1.02696 0.80503 0.0
C173 C 0.62071 0.13336 0.81001 0.0
C174 C 0.61725 0.16066 0.79882 0.0
C175 C 0.61624 0.09748 0.79954 0.0
C176 C 0.61031 0.09045 0.77781 0.0
C177 C 0.60848 0.11799 0.76649 0.0
C178 C 0.6114 0.15249 0.77716 0.0
N179 N 0.61813 0.06868 0.81058 0.0
H180 H 0.56647 0.62784 0.15377 0.0
H181 H 0.62024 0.61555 0.09709 0.0
H182 H 0.50937 0.61057 0.09424 0.0
H183 H 0.67545 0.66004 0.11649 0.0
C184 C 0.67009 0.64392 0.12987 0.0
C185 C 0.56612 0.62374 0.13699 0.0
C186 C 0.53328 0.6185 0.12519 0.0
C187 C 0.59846 0.62348 0.12695 0.0
C188 C 0.59694 0.61766 0.10511 0.0
C189 C 0.56539 0.61354 0.09325 0.0
C190 C 0.53364 0.61348 0.10339 0.0
N191 N 0.63189 0.62817 0.1385 0.0
H192 H 0.24847 0.69092 0.17407 0.0
H193 H 0.31025 0.69052 0.17006 0.0
H194 H 0.24559 0.56689 0.14579 0.0
H195 H 0.18387 0.567 0.14996 0.0
H196 H 0.30209 0.57744 0.17084 0.0
H197 H 0.29556 0.64489 0.11589 0.0
H198 H 0.29131 0.69568 0.09881 0.0
H199 H 0.40064 0.7859 0.12923 0.0
H200 H 0.40498 0.73586 0.14698 0.0
H201 H 0.45657 0.55928 0.12046 0.0
H202 H 0.39768 0.56243 0.12989 0.0
H203 H 0.47039 0.68206 0.15905 0.0
H204 H 0.52966 0.67871 0.14971 0.0
H205 H 0.41186 0.67573 0.13312 0.0
H206 H 0.4168 0.60652 0.18825 0.0
H207 H 0.42117 0.55414 0.20364 0.0
H208 H 0.31498 0.46532 0.1699 0.0
H209 H 0.31025 0.51715 0.15407 0.0
C210 C 0.24725 0.66354 0.16792 0.0
C211 C 0.21067 0.62899 0.16235 0.0
C212 C 0.28287 0.66339 0.16551 0.0
C213 C 0.28323 0.62874 0.15737 0.0
C214 C 0.24668 0.59414 0.1521 0.0
C215 C 0.21112 0.59428 0.15445 0.0
C216 C 0.32128 0.62827 0.15433 0.0
C217 C 0.32581 0.59884 0.1624 0.0
C218 C 0.35314 0.65641 0.14363 0.0
C219 C 0.35013 0.68667 0.13319 0.0
C220 C 0.31835 0.67566 0.11926 0.0
C221 C 0.31595 0.70433 0.10942 0.0
C222 C 0.34549 0.74408 0.11309 0.0
C223 C 0.37752 0.75521 0.12659 0.0
C224 C 0.37991 0.72671 0.13659 0.0
C225 C 0.46007 0.58593 0.12937 0.0
C226 C 0.49804 0.61848 0.13463 0.0
C227 C 0.42622 0.58779 0.13471 0.0
C228 C 0.42906 0.62245 0.14531 0.0
C229 C 0.46702 0.65486 0.15092 0.0
C230 C 0.50102 0.6528 0.1458 0.0
C231 C 0.3925 0.62509 0.14968 0.0
C232 C 0.38819 0.65471 0.14175 0.0
C233 C 0.36068 0.59695 0.1603 0.0
C234 C 0.36336 0.56572 0.16984 0.0
C235 C 0.39454 0.5758 0.18398 0.0
C236 C 0.39705 0.54621 0.19281 0.0
C237 C 0.36842 0.50642 0.18771 0.0
C238 C 0.33716 0.49615 0.17382 0.0
C239 C 0.33452 0.52563 0.16493 0.0
H240 H 0.37041 0.48356 0.19456 0.0
H241 H 0.34374 0.76619 0.10533 0.0
H242 H 0.64807 0.23599 0.51257 0.0
H243 H 0.70952 0.29821 0.51006 0.0
H244 H 0.76418 0.23219 0.48468 0.0
H245 H 0.70379 0.17023 0.48886 0.0
H246 H 0.81606 0.28866 0.50653 0.0
H247 H 0.72796 0.29026 0.45503 0.0
H248 H 0.66662 0.28721 0.4442 0.0
H249 H 0.69249 0.3868 0.4892 0.0
H250 H 0.75408 0.39074 0.50004 0.0
H251 H 0.97013 0.43113 0.45266 0.0
H252 H 0.90814 0.37666 0.46247 0.0
H253 H 0.88664 0.45978 0.50109 0.0
H254 H 0.94976 0.51506 0.49135 0.0
H255 H 0.81865 0.40053 0.47643 0.0
H256 H 0.91153 0.40351 0.52394 0.0
H257 H 0.97236 0.40571 0.5347 0.0
H258 H 0.93667 0.29544 0.49681 0.0
H259 H 0.87585 0.29285 0.48558 0.0
C260 C 0.67328 0.23477 0.50654 0.0
C261 C 0.67076 0.19785 0.50099 0.0
C262 C 0.70859 0.27063 0.50481 0.0
C263 C 0.74213 0.27085 0.49658 0.0
C264 C 0.73938 0.23372 0.4911 0.0
C265 C 0.70454 0.19796 0.49347 0.0
C266 C 0.78014 0.30909 0.4939 0.0
C267 C 0.81625 0.31265 0.49963 0.0
C268 C 0.78153 0.34189 0.48564 0.0
C269 C 0.74543 0.34062 0.47843 0.0
C270 C 0.72058 0.31159 0.46252 0.0
C271 C 0.68582 0.30977 0.45635 0.0
C272 C 0.67569 0.33689 0.46594 0.0
C273 C 0.70045 0.36604 0.48163 0.0
C274 C 0.73537 0.36818 0.48774 0.0
C275 C 0.95251 0.43801 0.46343 0.0
C276 C 0.96538 0.47765 0.47134 0.0
C277 C 0.91684 0.40662 0.46904 0.0
C278 C 0.89234 0.4136 0.48268 0.0
C279 C 0.90482 0.4533 0.49057 0.0
C280 C 0.94112 0.48497 0.48512 0.0
C281 C 0.85406 0.37906 0.4884 0.0
C282 C 0.81814 0.37633 0.48329 0.0
C283 C 0.85276 0.34679 0.49703 0.0
C284 C 0.88925 0.34816 0.5038 0.0
C285 C 0.91678 0.37988 0.51778 0.0
C286 C 0.95124 0.38117 0.52398 0.0
C287 C 0.95841 0.35077 0.51641 0.0
C288 C 0.93109 0.31898 0.50265 0.0
C289 C 0.89659 0.31756 0.49638 0.0
H290 H 0.98511 0.35182 0.52123 0.0
H291 H 0.64865 0.33526 0.46126 0.0
H292 H 0.56209 0.69014 0.83123 0.0
H293 H 0.55913 0.75011 0.82841 0.0
H294 H 0.68517 0.81734 0.82575 0.0
H295 H 0.68846 0.7574 0.82887 0.0
H296 H 0.65868 0.85976 0.84997 0.0
H297 H 0.62414 0.78659 0.78142 0.0
H298 H 0.5858 0.7262 0.75693 0.0
H299 H 0.47924 0.72454 0.77391 0.0
H300 H 0.51692 0.78464 0.79872 0.0
H301 H 0.66232 1.03032 0.81574 0.0
H302 H 0.67136 0.97422 0.82095 0.0
H303 H 0.54611 0.89488 0.81278 0.0
H304 H 0.5376 0.95024 0.8065 0.0
H305 H 0.57542 0.85914 0.79339 0.0
H306 H 0.60515 0.92765 0.86238 0.0
H307 H 0.63938 0.98411 0.88968 0.0
H308 H 0.74939 0.99168 0.87483 0.0
H309 H 0.71585 0.93554 0.84728 0.0
C310 C 0.58932 0.71762 0.83013 0.0
C311 C 0.62554 0.71853 0.8302 0.0
C312 C 0.58754 0.75208 0.82842 0.0
C313 C 0.62187 0.78856 0.82654 0.0
C314 C 0.65816 0.78978 0.82711 0.0
C315 C 0.65998 0.75528 0.82883 0.0
C316 C 0.61974 0.82501 0.82356 0.0
C317 C 0.64089 0.85979 0.83742 0.0
C318 C 0.59581 0.82518 0.80753 0.0
C319 C 0.57334 0.78999 0.79201 0.0
C320 C 0.59253 0.77331 0.77995 0.0
C321 C 0.57091 0.73912 0.76602 0.0
C322 C 0.5301 0.72152 0.76388 0.0
C323 C 0.51085 0.73821 0.77559 0.0
C324 C 0.53233 0.77237 0.78955 0.0
C325 C 0.63676 1.00097 0.81535 0.0
C326 C 0.59918 0.99489 0.81085 0.0
C327 C 0.64186 0.96869 0.81839 0.0
C328 C 0.60941 0.92965 0.8175 0.0
C329 C 0.57189 0.92415 0.81346 0.0
C330 C 0.56695 0.95608 0.81002 0.0
C331 C 0.61395 0.8942 0.82005 0.0
C332 C 0.59333 0.85946 0.80599 0.0
C333 C 0.63782 0.8939 0.83613 0.0
C334 C 0.65806 0.92772 0.85262 0.0
C335 C 0.63669 0.94157 0.86484 0.0
C336 C 0.65595 0.97347 0.88037 0.0
C337 C 0.69655 0.99155 0.88394 0.0
C338 C 0.71795 0.9777 0.87202 0.0
C339 C 0.69883 0.94583 0.85645 0.0
H340 H 0.71141 1.01623 0.89598 0.0
H341 H 0.5134 0.69496 0.75316 0.0
H342 H 1.01485 0.69132 0.17366 0.0
H343 H 0.9535 0.69202 0.17052 0.0
H344 H 0.89079 0.56555 0.15304 0.0
H345 H 0.95195 0.56453 0.15715 0.0
H346 H 0.84403 0.58038 0.17426 0.0
H347 H 0.91392 0.73815 0.1491 0.0
H348 H 0.97176 0.78413 0.13095 0.0
H349 H 0.97809 0.68585 0.09906 0.0
H350 H 0.92003 0.63929 0.11682 0.0
H351 H 0.68913 0.62884 0.16815 0.0
H352 H 0.74767 0.62487 0.1769 0.0
H353 H 0.78184 0.6376 0.11345 0.0
H354 H 0.72537 0.64375 0.10524 0.0
H355 H 0.84293 0.6796 0.13378 0.0
H356 H 0.74173 0.54561 0.13946 0.0
H357 H 0.68147 0.49221 0.15256 0.0
H358 H 0.73286 0.53034 0.21456 0.0
H359 H 0.79328 0.58427 0.20184 0.0
C360 C 0.98803 0.66355 0.16924 0.0
C361 C 0.98882 0.62791 0.16556 0.0
C362 C 0.95269 0.66399 0.16729 0.0
C363 C 0.91692 0.62897 0.16101 0.0
C364 C 0.91753 0.59318 0.15784 0.0
C365 C 0.95281 0.59263 0.16015 0.0
C366 C 0.87941 0.62983 0.15724 0.0
C367 C 0.84395 0.60219 0.16541 0.0
C368 C 0.87823 0.65757 0.14538 0.0
C369 C 0.91292 0.68531 0.13447 0.0
C370 C 0.9276 0.72637 0.13817 0.0
C371 C 0.96043 0.75253 0.12795 0.0
C372 C 0.97867 0.73793 0.11392 0.0
C373 C 0.96403 0.69713 0.10999 0.0
C374 C 0.93118 0.67085 0.12014 0.0
C375 C 0.70901 0.63037 0.1561 0.0
C376 C 0.70238 0.63659 0.13596 0.0
C377 C 0.74263 0.62798 0.16106 0.0
C378 C 0.76995 0.63079 0.14589 0.0
C379 C 0.76222 0.63582 0.1257 0.0
C380 C 0.72945 0.63904 0.12093 0.0
C381 C 0.8072 0.62995 0.15065 0.0
C382 C 0.84282 0.65779 0.1427 0.0
C383 C 0.80809 0.60148 0.16205 0.0
C384 C 0.77181 0.56923 0.16974 0.0
C385 C 0.74005 0.54278 0.15591 0.0
C386 C 0.7059 0.51239 0.16326 0.0
C387 C 0.70329 0.50797 0.18439 0.0
C388 C 0.73489 0.53386 0.1982 0.0
C389 C 0.7691 0.56432 0.19093 0.0
H390 H 0.67683 0.48442 0.19005 0.0
H391 H 1.0041 0.75823 0.10604 0.0
H392 H 0.42261 0.99485 0.51885 0.0
H393 H 0.3602 0.93195 0.51568 0.0
H394 H 0.41099 0.87878 0.47368 0.0
H395 H 0.47359 0.94164 0.47679 0.0
H396 H 0.33844 0.85895 0.45915 0.0
H397 H 0.39358 0.85786 0.52447 0.0
H398 H 0.42218 0.88445 0.56009 0.0
H399 H 0.31781 0.88589 0.57873 0.0
H400 H 0.28878 0.85981 0.54313 0.0
H401 H 0.19536 0.65835 0.45477 0.0
H402 H 0.25691 0.72029 0.46413 0.0
H403 H 0.19483 0.76553 0.5026 0.0
H404 H 0.13256 0.70301 0.49306 0.0
H405 H 0.27084 0.79077 0.51988 0.0
H406 H 0.2145 0.79119 0.45611 0.0
H407 H 0.18413 0.76538 0.42082 0.0
H408 H 0.28904 0.76827 0.39928 0.0
H409 H 0.31969 0.793 0.43462 0.0
C410 C 0.42071 0.96981 0.50897 0.0
C411 C 0.4536 0.97372 0.49812 0.0
C412 C 0.38481 0.93358 0.50724 0.0
C413 C 0.38047 0.90002 0.49455 0.0
C414 C 0.4132 0.90392 0.48361 0.0
C415 C 0.44922 0.94005 0.48547 0.0
C416 C 0.34185 0.86122 0.49236 0.0
C417 C 0.3241 0.84389 0.47246 0.0
C418 C 0.32186 0.84176 0.50967 0.0
C419 C 0.33918 0.85727 0.53108 0.0
C420 C 0.37685 0.86415 0.53613 0.0
C421 C 0.39312 0.87907 0.55632 0.0
C422 C 0.37187 0.88696 0.57165 0.0
C423 C 0.33426 0.87982 0.56683 0.0
C424 C 0.31787 0.86494 0.54665 0.0
C425 C 0.19484 0.68104 0.46567 0.0
C426 C 0.15881 0.67547 0.47317 0.0
C427 C 0.23017 0.71672 0.47091 0.0
C428 C 0.23083 0.74826 0.48382 0.0
C429 C 0.19536 0.74188 0.49257 0.0
C430 C 0.1597 0.70595 0.48723 0.0
C431 C 0.26794 0.78833 0.48665 0.0
C432 C 0.28528 0.80589 0.5066 0.0
C433 C 0.28743 0.80833 0.46942 0.0
C434 C 0.26925 0.79355 0.44809 0.0
C435 C 0.23097 0.7859 0.44391 0.0
C436 C 0.21368 0.77145 0.4239 0.0
C437 C 0.23458 0.76506 0.40784 0.0
C438 C 0.27282 0.77307 0.41176 0.0
C439 C 0.29016 0.78727 0.43179 0.0
H440 H 0.22116 0.75409 0.39236 0.0
H441 H 0.38452 0.89851 0.58728 0.0
H442 H 0.57222 0.46354 0.81764 0.0
H443 H 0.57235 0.40126 0.81612 0.0
H444 H 0.69221 0.4645 0.84041 0.0
H445 H 0.69242 0.52735 0.84187 0.0
H446 H 0.6827 0.40859 0.80914 0.0
H447 H 0.61531 0.40911 0.87082 0.0
H448 H 0.56583 0.41488 0.8923 0.0
H449 H 0.47328 0.31604 0.85425 0.0
H450 H 0.52221 0.31003 0.83235 0.0
H451 H 0.67869 0.22705 0.82069 0.0
H452 H 0.68393 0.29212 0.83 0.0
H453 H 0.5645 0.24355 0.8071 0.0
H454 H 0.55933 0.17894 0.79798 0.0
H455 H 0.57792 0.29421 0.84085 0.0
H456 H 0.64462 0.29699 0.77775 0.0
H457 H 0.69351 0.29097 0.75587 0.0
H458 H 0.78691 0.38347 0.79636 0.0
H459 H 0.73848 0.38962 0.81868 0.0
C460 C 0.59872 0.46446 0.82274 0.0
C461 C 0.63228 0.50092 0.82998 0.0
C462 C 0.59867 0.42852 0.82194 0.0
C463 C 0.63212 0.42763 0.82839 0.0
C464 C 0.66589 0.46401 0.83539 0.0
C465 C 0.66592 0.50008 0.83629 0.0
C466 C 0.63169 0.38883 0.82757 0.0
C467 C 0.66017 0.38388 0.81643 0.0
C468 C 0.60199 0.3559 0.83669 0.0
C469 C 0.57245 0.35935 0.84983 0.0
C470 C 0.5844 0.3888 0.86693 0.0
C471 C 0.55645 0.39208 0.8792 0.0
C472 C 0.51644 0.3659 0.87461 0.0
C473 C 0.50429 0.33632 0.85777 0.0
C474 C 0.53212 0.33294 0.84544 0.0
C475 C 0.65326 0.23007 0.81823 0.0
C476 C 0.61845 0.19763 0.80879 0.0
C477 C 0.65639 0.26747 0.82329 0.0
C478 C 0.62479 0.27333 0.81901 0.0
C479 C 0.58941 0.24027 0.81061 0.0
C480 C 0.5864 0.20315 0.80546 0.0
C481 C 0.62866 0.31384 0.82223 0.0
C482 C 0.60073 0.31907 0.83377 0.0
C483 C 0.65879 0.34697 0.81344 0.0
C484 C 0.68793 0.34343 0.80002 0.0
C485 C 0.67557 0.31583 0.78208 0.0
C486 C 0.7032 0.31242 0.76958 0.0
C487 C 0.74329 0.33674 0.77475 0.0
C488 C 0.75584 0.36459 0.7924 0.0
C489 C 0.72832 0.36806 0.80498 0.0
H490 H 0.76464 0.33407 0.76505 0.0
H491 H 0.49484 0.36848 0.88413 0.0
H492 H 0.63542 0.8967 0.53725 0.0
H493 H 0.6605 0.85366 0.54487 0.0
H494 H 0.67842 0.83471 0.47984 0.0
H495 H 0.65129 0.87584 0.47195 0.0
H496 H 0.66089 0.77011 0.498 0.0
H497 H 0.75094 0.9115 0.512 0.0
H498 H 0.77195 0.9792 0.52841 0.0
H499 H 0.76242 0.94079 0.58873 0.0
H500 H 0.74081 0.8727 0.57265 0.0
H501 H 0.83667 0.75918 0.4996 0.0
H502 H 0.78697 0.77835 0.495 0.0
H503 H 0.76669 0.77686 0.56048 0.0
H504 H 0.8161 0.7578 0.56511 0.0
H505 H 0.78009 0.84624 0.54492 0.0
H506 H 0.69924 0.70604 0.52993 0.0
H507 H 0.68127 0.63975 0.51268 0.0
H508 H 0.67627 0.67649 0.45348 0.0
H509 H 0.69482 0.74331 0.47035 0.0
C510 C 0.64333 0.88226 0.52447 0.0
C511 C 0.6422 0.89047 0.50403 0.0
C512 C 0.658 0.85791 0.52888 0.0
C513 C 0.67239 0.84193 0.51299 0.0
C514 C 0.66789 0.84707 0.49238 0.0
C515 C 0.65279 0.87099 0.48793 0.0
C516 C 0.6966 0.82446 0.51794 0.0
C517 C 0.68699 0.78675 0.50821 0.0
C518 C 0.73045 0.84598 0.53147 0.0
C519 C 0.74386 0.88697 0.54114 0.0
C520 C 0.75311 0.91747 0.52876 0.0
C521 C 0.76513 0.95589 0.538 0.0
C522 C 0.76841 0.96426 0.5596 0.0
C523 C 0.75979 0.93424 0.57201 0.0
C524 C 0.74766 0.89573 0.56284 0.0
C525 C 0.82133 0.76274 0.51292 0.0
C526 C 0.82961 0.75641 0.53259 0.0
C527 C 0.7929 0.77341 0.51029 0.0
C528 C 0.77289 0.77849 0.52738 0.0
C529 C 0.78155 0.77267 0.54709 0.0
C530 C 0.80956 0.76154 0.54967 0.0
C531 C 0.74456 0.79211 0.52488 0.0
C532 C 0.7536 0.82926 0.53499 0.0
C533 C 0.7105 0.77017 0.51161 0.0
C534 C 0.69877 0.72984 0.5014 0.0
C535 C 0.69462 0.70012 0.51321 0.0
C536 C 0.6843 0.66241 0.5035 0.0
C537 C 0.67775 0.65392 0.48199 0.0
C538 C 0.68139 0.68312 0.47015 0.0
C539 C 0.69176 0.72092 0.47978 0.0
H540 H 0.66979 0.6247 0.47452 0.0
H541 H 0.77772 0.99403 0.56673 0.0
H542 H 0.85027 0.59487 0.81864 0.0
H543 H 0.90757 0.58787 0.81225 0.0
H544 H 0.97374 0.70911 0.79872 0.0
H545 H 0.9165 0.71674 0.80591 0.0
H546 H 0.96251 0.59598 0.78453 0.0
H547 H 1.0609 0.74916 0.82399 0.0
H548 H 1.0585 0.80484 0.84436 0.0
H549 H 0.95361 0.72253 0.87232 0.0
H550 H 0.9557 0.66649 0.85223 0.0
H551 H 0.10545 0.5624 0.83388 0.0
H552 H 1.08667 0.59872 0.81241 0.0
H553 H 1.01404 0.60712 0.86093 0.0
H554 H 1.03226 0.57122 0.88209 0.0
H555 H 1.05495 0.67643 0.84449 0.0
H556 H 0.97645 0.53076 0.81886 0.0
H557 H 0.97493 0.47043 0.80202 0.0
H558 H 1.03458 0.53195 0.75033 0.0
H559 H 1.03681 0.5927 0.76702 0.0
C560 C 0.87683 0.61988 0.81399 0.0
C561 C 0.87932 0.65667 0.81339 0.0
C562 C 0.90943 0.61567 0.80999 0.0
C563 C 0.94515 0.64815 0.8053 0.0
C564 C 0.94654 0.68377 0.80249 0.0
C565 C 0.91383 0.68808 0.80662 0.0
C566 C 0.98146 0.64631 0.80784 0.0
C567 C 0.98361 0.61435 0.7972 0.0
C568 C 1.00943 0.67052 0.82415 0.0
C569 C 1.00826 0.70386 0.83649 0.0
C570 C 1.03742 0.74306 0.83453 0.0
C571 C 1.03611 0.77463 0.84601 0.0
C572 C 1.00586 0.76723 0.85958 0.0
C573 C 0.97697 0.72823 0.86178 0.0
C574 C 0.97823 0.69658 0.85037 0.0
C575 C 1.08561 0.57225 0.8399 0.0
C576 C 1.07048 0.56424 0.85972 0.0
C577 C 1.07516 0.59316 0.82771 0.0
C578 C 1.04928 0.60596 0.83517 0.0
C579 C 1.03468 0.59825 0.85501 0.0
C580 C 1.04507 0.57763 0.86711 0.0
C581 C 1.03381 0.62434 0.82227 0.0
C582 C 1.03581 0.65968 0.83087 0.0
C583 C 1.00931 0.60287 0.80437 0.0
C584 C 1.00702 0.56617 0.7942 0.0
C585 C 0.98925 0.53133 0.80391 0.0
C586 C 0.98834 0.49713 0.79442 0.0
C587 C 1.00478 0.4974 0.77515 0.0
C588 C 1.022 0.53181 0.76528 0.0
C589 C 1.02309 0.56612 0.77474 0.0
H590 H 1.00411 0.47092 0.76784 0.0
H591 H 1.00485 0.79171 0.86842 0.0
H592 H 0.32023 0.805 0.13096 0.0
H593 H 0.39108 0.84247 0.12753 0.0
H594 H 0.39306 0.9504 0.15114 0.0
H595 H 0.32172 0.9135 0.15363 0.0
H596 H 0.45359 0.96364 0.12408 0.0
H597 H 0.39479 0.8945 0.18337 0.0
H598 H 0.35223 0.8364 0.20138 0.0
H599 H 0.41795 0.781 0.17886 0.0
H600 H 0.45984 0.83804 0.15986 0.0
H601 H 0.60836 0.0704 0.19987 0.0
H602 H 0.55251 1.03686 0.1749 0.0
H603 H 0.57676 0.94142 0.16074 0.0
H604 H 0.63172 0.9741 0.18634 0.0
H605 H 0.50679 0.91615 0.1756 0.0
H606 H 0.57542 0.99551 0.12251 0.0
H607 H 0.61841 1.05701 0.10709 0.0
H608 H 0.5375 0.09822 0.12169 0.0
H609 H 0.49429 1.03727 0.1375 0.0
C610 C 0.33535 0.83693 0.13456 0.0
C611 C 0.31542 0.85618 0.14301 0.0
C612 C 0.37593 0.85824 0.13266 0.0
C613 C 0.39728 0.89892 0.13955 0.0
C614 C 0.37708 0.91893 0.14586 0.0
C615 C 0.33639 0.8977 0.14757 0.0
C616 C 0.44006 0.91872 0.14413 0.0
C617 C 0.46547 0.95335 0.13526 0.0
C618 C 0.45537 0.90477 0.15855 0.0
C619 C 0.4299 0.87019 0.16978 0.0
C620 C 0.39972 0.86962 0.18191 0.0
C621 C 0.37568 0.83684 0.19228 0.0
C622 C 0.3821 0.8048 0.19106 0.0
C623 C 0.41269 0.80559 0.17954 0.0
C624 C 0.43649 0.83807 0.1689 0.0
C625 C 0.60229 1.04268 0.1911 0.0
C626 C 0.62379 1.0244 0.19541 0.0
C627 C 0.5707 1.0238 0.17658 0.0
C628 C 0.56038 0.98655 0.16598 0.0
C629 C 0.58426 0.97018 0.16876 0.0
C630 C 0.61574 0.98895 0.18336 0.0
C631 C 0.5208 0.96154 0.15572 0.0
C632 C 0.49558 0.92593 0.16378 0.0
C633 C 0.50584 0.97506 0.14089 0.0
C634 C 0.53164 1.01178 0.13129 0.0
C635 C 0.56689 1.01778 0.12257 0.0
C636 C 0.5913 1.05255 0.11373 0.0
C637 C 0.58071 0.08151 0.11342 0.0
C638 C 0.54566 0.07574 0.12192 0.0
C639 C 0.52115 1.04104 0.1308 0.0
H640 H 0.59966 0.10841 0.10658 0.0
H641 H 0.36356 0.7795 0.19916 0.0
H642 H 0.50821 0.30656 0.49911 0.0
H643 H 0.54149 0.37664 0.4951 0.0
H644 H 0.59844 0.35672 0.44165 0.0
H645 H 0.56408 0.28585 0.44511 0.0
H646 H 0.64928 0.40447 0.47324 0.0
H647 H 0.54644 0.40182 0.43624 0.0
H648 H 0.47849 0.38371 0.42716 0.0
H649 H 0.47295 0.44392 0.48536 0.0
H650 H 0.54065 0.4619 0.49497 0.0
H651 H 0.77631 0.60456 0.50639 0.0
H652 H 0.73263 0.54901 0.48133 0.0
H653 H 0.6342 0.52796 0.51902 0.0
H654 H 0.67677 0.58604 0.5429 0.0
H655 H 0.60785 0.50503 0.48188 0.0
H656 H 0.69645 0.4835 0.52329 0.0
H657 H 0.76016 0.49388 0.53573 0.0
H658 H 0.78779 0.47224 0.47314 0.0
H659 H 0.72441 0.46225 0.46032 0.0
C660 C 0.52631 0.31653 0.48589 0.0
C661 C 0.53398 0.29054 0.47267 0.0
C662 C 0.54537 0.35683 0.48359 0.0
C663 C 0.57252 0.37196 0.46809 0.0
C664 C 0.57755 0.34562 0.4537 0.0
C665 C 0.5582 0.30519 0.45587 0.0
C666 C 0.60126 0.41503 0.47005 0.0
C667 C 0.64052 0.42671 0.47451 0.0
C668 C 0.58953 0.44378 0.47201 0.0
C669 C 0.54873 0.43317 0.46634 0.0
C670 C 0.53068 0.411 0.44718 0.0
C671 C 0.49219 0.40079 0.44193 0.0
C672 C 0.47141 0.41265 0.45568 0.0
C673 C 0.4891 0.4348 0.47471 0.0
C674 C 0.52759 0.44509 0.48005 0.0
C675 C 0.7452 0.58914 0.50907 0.0
C676 C 0.73045 0.59937 0.52716 0.0
C677 C 0.72024 0.55686 0.49478 0.0
C678 C 0.68031 0.53322 0.49864 0.0
C679 C 0.66499 0.54525 0.51576 0.0
C680 C 0.68966 0.57816 0.52972 0.0
C681 C 0.65524 0.49381 0.48649 0.0
C682 C 0.61688 0.48299 0.48001 0.0
C683 C 0.66739 0.4653 0.48321 0.0
C684 C 0.7061 0.47289 0.49083 0.0
C685 C 0.71635 0.48146 0.51217 0.0
C686 C 0.75234 0.48717 0.51929 0.0
C687 C 0.7781 0.48395 0.50522 0.0
C688 C 0.76793 0.47502 0.484 0.0
C689 C 0.73203 0.46941 0.4768 0.0
H690 H 0.80585 0.48817 0.51077 0.0
H691 H 0.44161 0.4047 0.45158 0.0
H692 H 0.43074 0.64582 0.77813 0.0
H693 H 0.36874 0.64555 0.78071 0.0
H694 H 0.30516 0.51968 0.76196 0.0
H695 H 0.36593 0.51882 0.76068 0.0
H696 H 0.26412 0.57272 0.75662 0.0
H697 H 0.32283 0.52261 0.81023 0.0
H698 H 0.38333 0.5369 0.82915 0.0
H699 H 0.41346 0.65829 0.84449 0.0
H700 H 0.35317 0.64459 0.82557 0.0
H701 H 0.10704 0.43274 0.80731 0.0
H702 H 0.16323 0.47756 0.78859 0.0
H703 H 0.20914 0.56116 0.84404 0.0
H704 H 0.15624 0.51458 0.86325 0.0
H705 H 0.26278 0.55385 0.83102 0.0
H706 H 0.17664 0.57983 0.79642 0.0
H707 H 0.11635 0.5667 0.77798 0.0
H708 H 0.13847 0.50305 0.72649 0.0
H709 H 0.19845 0.515 0.74475 0.0
C710 C 0.40365 0.6182 0.77393 0.0
C711 C 0.40344 0.58203 0.77031 0.0
C712 C 0.36825 0.61833 0.77498 0.0
C713 C 0.33247 0.58245 0.77191 0.0
C714 C 0.33255 0.54769 0.76437 0.0
C715 C 0.36773 0.54733 0.76376 0.0
C716 C 0.29818 0.5778 0.7835 0.0
C717 C 0.26352 0.56927 0.77299 0.0
C718 C 0.29801 0.57446 0.80492 0.0
C719 C 0.33367 0.58259 0.81663 0.0
C720 C 0.34233 0.55225 0.81777 0.0
C721 C 0.37654 0.56025 0.82845 0.0
C722 C 0.40208 0.59842 0.83813 0.0
C723 C 0.39355 0.62871 0.83708 0.0
C724 C 0.35939 0.62085 0.82639 0.0
C725 C 0.12898 0.46091 0.81541 0.0
C726 C 0.12637 0.4703 0.83664 0.0
C727 C 0.16081 0.48692 0.8046 0.0
C728 C 0.19021 0.52343 0.8147 0.0
C729 C 0.18678 0.53344 0.83577 0.0
C730 C 0.15585 0.5068 0.84674 0.0
C731 C 0.2273 0.54788 0.80431 0.0
C732 C 0.26276 0.55933 0.81501 0.0
C733 C 0.228 0.55524 0.78333 0.0
C734 C 0.19215 0.54828 0.77203 0.0
C735 C 0.16859 0.56284 0.78121 0.0
C736 C 0.13443 0.55559 0.77078 0.0
C737 C 0.12361 0.53407 0.75108 0.0
C738 C 0.14693 0.51977 0.74175 0.0
C739 C 0.18107 0.52683 0.75212 0.0
H740 H 0.09717 0.52848 0.74302 0.0
H741 H 0.42862 0.60459 0.84633 0.0
H742 H 0.92656 0.33618 0.11377 0.0
H743 H 0.87586 0.26945 0.11851 0.0
H744 H 0.79839 0.31235 0.1397 0.0
H745 H 0.84847 0.37956 0.1339 0.0
H746 H 0.82984 0.28825 0.17025 0.0
H747 H 0.76082 0.23654 0.10504 0.0
H748 H 0.7524 0.22229 0.06695 0.0
H749 H 0.80877 0.15302 0.06734 0.0
H750 H 0.81809 0.16732 0.10541 0.0
H751 H 0.74828 0.12215 0.22303 0.0
H752 H 0.75105 0.16837 0.20048 0.0
H753 H 0.81423 0.133 0.1565 0.0
H754 H 0.80624 0.08205 0.17783 0.0
H755 H 0.77256 0.15068 0.13568 0.0
H756 H 0.85945 0.21731 0.19661 0.0
H757 H 0.87723 0.2359 0.23407 0.0
H758 H 0.79887 0.28214 0.24067 0.0
H759 H 0.78033 0.26343 0.20328 0.0
C760 C 0.89809 0.33149 0.11825 0.0
C761 C 0.8922 0.36366 0.12418 0.0
C762 C 0.86893 0.293 0.12095 0.0
C763 C 0.83367 0.28613 0.12978 0.0
C764 C 0.82558 0.31718 0.13296 0.0
C765 C 0.85449 0.35566 0.12991 0.0
C766 C 0.8121 0.25103 0.14102 0.0
C767 C 0.81608 0.25799 0.16271 0.0
C768 C 0.79579 0.21192 0.13108 0.0
C769 C 0.79029 0.20317 0.10814 0.0
C770 C 0.77171 0.21852 0.09701 0.0
C771 C 0.76672 0.21038 0.07541 0.0
C772 C 0.78007 0.18679 0.06473 0.0
C773 C 0.79841 0.17126 0.07564 0.0
C774 C 0.80349 0.17932 0.09724 0.0
C775 C 0.76097 0.12248 0.20813 0.0
C776 C 0.7756 0.09702 0.20184 0.0
C777 C 0.76348 0.14992 0.19541 0.0
C778 C 0.78349 0.15486 0.17689 0.0
C779 C 0.79839 0.12969 0.17063 0.0
C780 C 0.79426 0.10091 0.18294 0.0
C781 C 0.7916 0.18813 0.16492 0.0
C782 C 0.78526 0.18081 0.14322 0.0
C783 C 0.80714 0.22741 0.17475 0.0
C784 C 0.81812 0.23849 0.19724 0.0
C785 C 0.84581 0.23118 0.2061 0.0
C786 C 0.85606 0.24178 0.2273 0.0
C787 C 0.83908 0.26005 0.23976 0.0
C788 C 0.81191 0.26788 0.23102 0.0
C789 C 0.80153 0.2573 0.20983 0.0
H790 H 0.84706 0.26825 0.25617 0.0
H791 H 0.77617 0.18052 0.04801 0.0
H792 H 1.0422 0.59856 0.09635 0.0
H793 H 1.04642 0.58504 0.05908 0.0
H794 H 0.17263 0.64215 0.06659 0.0
H795 H 0.16862 0.65738 0.10387 0.0
H796 H 0.1546 0.65762 0.03174 0.0
H797 H 0.11309 0.53985 0.06298 0.0
H798 H 1.07347 0.48633 0.08447 0.0
H799 H 0.97043 0.45065 0.04636 0.0
H800 H 1.00927 0.50437 0.02483 0.0
H801 H 0.15576 0.54795 0.93292 0.0
H802 H 0.16329 0.56923 0.97056 0.0
H803 H 1.04858 0.55775 0.96929 0.0
H804 H 1.04148 0.53766 0.93178 0.0
H805 H 1.06812 0.51814 0.00117 0.0
H806 H 0.11367 0.64256 0.97179 0.0
H807 H 0.15704 0.69426 0.95016 0.0
H808 H 0.25816 0.7142 0.98519 0.0
H809 H 0.21535 0.66211 0.00682 0.0
C810 C 1.07087 0.60871 0.08999 0.0
C811 C 0.10504 0.62864 0.10295 0.0
C812 C 1.07326 0.60075 0.06873 0.0
C813 C 0.10975 0.6115 0.06014 0.0
C814 C 0.14414 0.63328 0.07291 0.0
C815 C 0.14182 0.64199 0.09418 0.0
C816 C 0.11156 0.59858 0.03801 0.0
C817 C 0.13612 0.627 0.02516 0.0
C818 C 1.08764 0.55856 0.02937 0.0
C819 C 1.06408 0.52633 0.04237 0.0
C820 C 1.08192 0.52079 0.05928 0.0
C821 C 1.0596 0.4904 0.07146 0.0
C822 C 1.01947 0.46513 0.06677 0.0
C823 C 1.00153 0.47025 0.04995 0.0
C824 C 1.02368 0.50065 0.03775 0.0
C825 C 0.13228 0.54997 0.9408 0.0
C826 C 0.09808 0.54129 0.92968 0.0
C827 C 0.13663 0.56221 0.96214 0.0
C828 C 0.1065 0.5651 0.97252 0.0
C829 C 1.0721 0.55572 0.96145 0.0
C830 C 1.0681 0.54432 0.94013 0.0
C831 C 0.11017 0.57731 -0.00497 0.0
C832 C 1.08679 0.54864 0.00792 0.0
C833 C 0.13571 0.61679 0.00371 0.0
C834 C 0.16136 0.64808 0.99072 0.0
C835 C 0.14517 0.65764 0.97472 0.0
C836 C 0.16965 0.68709 0.9625 0.0
C837 C 0.21034 0.7074 0.96624 0.0
C838 C 0.22664 0.69838 0.98227 0.0
C839 C 0.20228 0.66891 -0.00548 0.0
H840 H 0.22924 0.73021 0.95678 0.0
H841 H 1.00229 0.44146 0.07611 0.0
H842 H 0.63566 0.1294 0.44012 0.0
H843 H 0.64294 0.13109 0.40281 0.0
H844 H 0.51698 0.06992 0.39298 0.0
H845 H 0.50941 0.06855 0.43059 0.0
H846 H 0.55557 1.03357 0.37064 0.0
H847 H 0.56514 0.16021 0.38208 0.0
H848 H 0.58947 0.2274 0.40017 0.0
H849 H 0.70703 0.26065 0.38334 0.0
H850 H 0.68354 0.19345 0.36542 0.0
H851 H 0.58494 1.02671 0.264 0.0
H852 H 0.56195 1.04066 0.29706 0.0
H853 H 0.68142 0.12497 0.31853 0.0
H854 H 0.70452 0.11388 0.28475 0.0
H855 H 0.63601 0.15104 0.33359 0.0
H856 H 0.63213 1.02594 0.32946 0.0
H857 H 0.61329 0.95811 0.31425 0.0
H858 H 0.49139 0.92186 0.32014 0.0
H859 H 0.50953 0.98967 0.33516 0.0
C860 C 0.60949 0.11679 0.43005 0.0
C861 C 0.57195 0.0985 0.43816 0.0
C862 C 0.61373 0.11806 0.40877 0.0
C863 C 0.5805 0.10081 0.39521 0.0
C864 C 0.54292 0.08358 0.40328 0.0
C865 C 0.53866 0.08286 0.42469 0.0
C866 C 0.58549 0.09721 0.37264 0.0
C867 C 0.5722 1.05917 0.36232 0.0
C868 C 0.6084 0.13079 0.36217 0.0
C869 C 0.62255 0.17164 0.37246 0.0
C870 C 0.59622 0.18176 0.38231 0.0
C871 C 0.60986 0.21988 0.39254 0.0
C872 C 0.64978 0.24826 0.39293 0.0
C873 C 0.67611 0.23863 0.38302 0.0
C874 C 0.66263 0.20054 0.37279 0.0
C875 C 0.6064 1.04904 0.27547 0.0
C876 C 0.64676 0.06892 0.27164 0.0
C877 C 0.59315 1.0566 0.29453 0.0
C878 C 0.61999 0.0832 0.31047 0.0
C879 C 0.66013 0.10412 0.30652 0.0
C880 C 0.67337 0.09723 0.28727 0.0
C881 C 0.60661 0.08728 0.33163 0.0
C882 C 0.61852 0.12537 0.34171 0.0
C883 C 0.58312 1.05375 0.34213 0.0
C884 C 0.57216 1.01295 0.33319 0.0
C885 C 0.6013 1.00356 0.32738 0.0
C886 C 0.59076 0.96512 0.31881 0.0
C887 C 0.55116 0.93573 0.31616 0.0
C888 C 0.52204 0.94469 0.32215 0.0
C889 C 0.53243 0.9831 0.3307 0.0
H890 H 0.54305 0.90598 0.30953 0.0
H891 H 0.6603 0.27773 0.40089 0.0
H892 H 0.72247 0.63534 0.77721 0.0
H893 H 0.74346 0.64249 0.74167 0.0
H894 H 0.62527 0.6049 0.72039 0.0
H895 H 0.60439 0.59924 0.75621 0.0
H896 H 0.72636 0.59349 0.70899 0.0
H897 H 0.62683 0.64656 0.67705 0.0
H898 H 0.59354 0.68329 0.68979 0.0
H899 H 0.67972 0.74428 0.74015 0.0
H900 H 0.71385 0.70835 0.72755 0.0
H901 H 0.73534 0.58336 0.59983 0.0
H902 H 0.71313 0.577 0.63523 0.0
H903 H 0.76874 0.70426 0.64791 0.0
H904 H 0.78901 0.71076 0.61214 0.0
H905 H 0.69991 0.67211 0.66373 0.0
H906 H 0.80958 0.65144 0.66556 0.0
H907 H 0.84931 0.62085 0.6544 0.0
H908 H 0.7553 0.50724 0.66718 0.0
H909 H 0.7148 0.53708 0.67817 0.0
C910 C 0.7009 0.62863 0.76498 0.0
C911 C 0.66178 0.61683 0.76949 0.0
C912 C 0.71295 0.63265 0.74464 0.0
C913 C 0.68609 0.6246 0.72833 0.0
C914 C 0.64675 0.61208 0.73275 0.0
C915 C 0.63479 0.60869 0.7532 0.0
C916 C 0.69954 0.62921 0.70677 0.0
C917 C 0.72051 0.61066 0.6991 0.0
C918 C 0.6925 0.65211 0.69393 0.0
C919 C 0.67264 0.67445 0.70145 0.0
C920 C 0.63877 0.66794 0.69079 0.0
C921 C 0.61975 0.6886 0.69799 0.0
C922 C 0.63445 0.71602 0.7158 0.0
C923 C 0.6683 0.72295 0.7264 0.0
C924 C 0.68748 0.70242 0.71923 0.0
C925 C 0.74259 0.61002 0.61007 0.0
C926 C 0.764 0.6476 0.6031 0.0
C927 C 0.73021 0.60634 0.6304 0.0
C928 C 0.7396 0.64017 0.64433 0.0
C929 C 0.76116 0.67772 0.63746 0.0
C930 C 0.77319 0.68142 0.61707 0.0
C931 C 0.72675 0.63643 0.666 0.0
C932 C 0.70572 0.65495 0.67364 0.0
C933 C 0.73472 0.61447 0.67905 0.0
C934 C 0.75903 0.59644 0.6725 0.0
C935 C 0.79728 0.61989 0.66585 0.0
C936 C 0.81995 0.60269 0.65957 0.0
C937 C 0.8048 0.56211 0.66003 0.0
C938 C 0.76698 0.53866 0.66681 0.0
C939 C 0.74416 0.5557 0.67308 0.0
H940 H 0.82241 0.54885 0.65516 0.0
H941 H 0.61967 0.73197 0.72134 0.0
H942 H 0.5435 0.12319 0.57438 0.0
H943 H 0.54971 0.12529 0.61194 0.0
H944 H 0.59158 1.04244 0.6032 0.0
H945 H 0.58575 1.04029 0.56559 0.0
H946 H 0.51682 0.0693 0.63861 0.0
H947 H 0.66325 0.06985 0.64127 0.0
H948 H 0.72201 0.08922 0.62061 0.0
H949 H 0.70475 0.17665 0.59589 0.0
H950 H 0.64624 0.15817 0.61661 0.0
H951 H 0.55855 1.04921 0.74184 0.0
H952 H 0.54976 1.03924 0.70392 0.0
H953 H 0.63852 0.16145 0.70128 0.0
H954 H 0.64802 0.17136 0.73902 0.0
H955 H 0.64738 0.1134 0.67149 0.0
H956 H 0.54219 0.13271 0.69734 0.0
H957 H 0.4846 0.11835 0.7182 0.0
H958 H 0.42136 1.00041 0.6862 0.0
H959 H 0.47881 1.01392 0.66534 0.0
C960 C 0.55389 0.10525 0.58039 0.0
C961 C 0.56437 0.08177 0.5669 0.0
C962 C 0.55725 0.10637 0.6019 0.0
C963 C 0.57143 0.08431 0.61038 0.0
C964 C 0.58098 1.06006 0.59699 0.0
C965 C 0.57752 1.05881 0.57547 0.0
C966 C 0.57742 0.08779 0.63322 0.0
C967 C 0.54531 0.07871 0.64579 0.0
C968 C 0.61469 0.10053 0.64263 0.0
C969 C 0.65013 0.11229 0.63032 0.0
C970 C 0.67209 0.09329 0.63148 0.0
C971 C 0.70533 0.1041 0.61975 0.0
C972 C 0.71702 0.13405 0.60689 0.0
C973 C 0.69558 0.15335 0.60579 0.0
C974 C 0.66235 0.14268 0.61751 0.0
C975 C 0.57647 0.07381 0.73314 0.0
C976 C 0.60379 0.11116 0.74345 0.0
C977 C 0.57123 0.06815 0.7115 0.0
C978 C 0.59322 0.09971 0.69977 0.0
C979 C 0.62117 0.1367 0.71 0.0
C980 C 0.62632 0.14241 0.73159 0.0
C981 C 0.58673 0.09469 0.67689 0.0
C982 C 0.61877 0.10351 0.6643 0.0
C983 C 0.54953 0.08227 0.66749 0.0
C984 C 0.51492 0.07419 0.67994 0.0
C985 C 0.5161 0.10362 0.69487 0.0
C986 C 0.48347 0.09565 0.70667 0.0
C987 C 0.44938 1.05846 0.70357 0.0
C988 C 0.44781 1.02919 0.68861 0.0
C989 C 0.48038 1.03699 0.67679 0.0
H990 H 0.42414 1.05235 0.71272 0.0
H991 H 0.74274 0.14235 0.59781 0.0
H992 H 0.54463 0.55424 0.89002 0.0
H993 H 0.53204 0.55067 0.92708 0.0
H994 H 0.64803 0.65094 0.94233 0.0
H995 H 0.6609 0.65469 0.90556 0.0
H996 H 0.63136 0.59137 0.96566 0.0
H997 H 0.56792 0.66143 0.94533 0.0
H998 H 0.52139 0.66981 0.92454 0.0
H999 H 0.42494 0.56515 0.94494 0.0
H1000 H 0.471 0.55586 0.96565 0.0
H1001 H 0.62701 0.65756 0.06982 0.0
H1002 H 0.63009 0.65156 0.03213 0.0
H1003 H 0.50943 0.55648 0.02654 0.0
H1004 H 0.50607 0.56266 0.06447 0.0
H1005 H 0.52316 0.60525 -0.00219 0.0
H1006 H 0.58504 0.53723 0.02006 0.0
H1007 H 0.63082 0.52793 0.04093 0.0
H1008 H 0.72895 0.62598 0.01669 0.0
H1009 H 0.68374 0.63626 -0.0041 0.0
C1010 C 0.56743 0.57558 0.90126 0.0
C1011 C 0.60376 0.60481 0.89475 0.0
C1012 C 0.56013 0.57356 0.92245 0.0
C1013 C 0.58904 0.60067 0.93751 0.0
C1014 C 0.62531 0.62967 0.93102 0.0
C1015 C 0.63253 0.63185 0.90993 0.0
C1016 C 0.58202 0.59898 0.96007 0.0
C1017 C 0.60789 0.59473 0.97271 0.0
C1018 C 0.55062 0.60203 0.96921 0.0
C1019 C 0.52293 0.6077 0.95684 0.0
C1020 C 0.53682 0.64002 0.94524 0.0
C1021 C 0.51053 0.64497 0.9335 0.0
C1022 C 0.47024 0.61796 0.93337 0.0
C1023 C 0.45616 0.58601 0.94503 0.0
C1024 C 0.48234 0.5809 0.95678 0.0
C1025 C 0.60117 0.63517 0.0606 0.0
C1026 C 0.56642 0.61027 0.07018 0.0
C1027 C 0.60296 0.63176 0.03902 0.0
C1028 C 0.57023 0.60303 0.02644 0.0
C1029 C 0.53513 0.57875 0.0359 0.0
C1030 C 0.53323 0.58234 0.05757 0.0
C1031 C 0.57307 0.59853 0.00348 0.0
C1032 C 0.5464 0.6015 0.99076 0.0
C1033 C 0.60361 0.59402 -0.00579 0.0
C1034 C 0.63096 0.5877 0.00653 0.0
C1035 C 0.61638 0.55698 0.01927 0.0
C1036 C 0.64223 0.55151 0.03108 0.0
C1037 C 0.68276 0.5764 0.03017 0.0
C1038 C 0.69754 0.60674 0.01739 0.0
C1039 C 0.67181 0.61237 0.00557 0.0
H1040 H 0.70273 0.57213 0.03933 0.0
H1041 H 0.44994 0.62184 0.92427 0.0
H1042 H 1.07355 0.55789 0.22808 0.0
H1043 H 1.06914 0.5524 0.26532 0.0
H1044 H 0.11248 0.67788 0.27804 0.0
H1045 H 0.11679 0.68367 0.24079 0.0
H1046 H 0.14963 0.6504 0.3028 0.0
H1047 H 1.01791 0.61542 0.28167 0.0
H1048 H 0.95596 0.577 0.26051 0.0
H1049 H 0.93809 0.46948 0.28146 0.0
H1050 H 1.00027 0.50722 0.30253 0.0
H1051 H 0.10592 0.67044 0.40726 0.0
H1052 H 0.10724 0.6696 0.36966 0.0
H1053 H 1.05593 0.54257 0.36243 0.0
H1054 H 1.05535 0.54319 0.40026 0.0
H1055 H 1.02299 0.56658 0.33451 0.0
H1056 H 0.15016 0.59821 0.35656 0.0
H1057 H 0.21344 0.63265 0.37657 0.0
H1058 H 0.24222 0.74134 0.35281 0.0
H1059 H 0.17856 0.70783 0.33308 0.0
C1060 C 1.08221 0.58439 0.23877 0.0
C1061 C 1.09551 0.62126 0.23141 0.0
C1062 C 1.0795 0.58113 0.26006 0.0
C1063 C 1.09023 0.61467 0.27446 0.0
C1064 C 0.10399 0.65159 0.2672 0.0
C1065 C 0.10631 0.65482 0.24589 0.0
C1066 C 1.08743 0.61139 0.2971 0.0
C1067 C 0.12189 0.63256 0.3098 0.0
C1068 C 1.05144 0.58676 0.30607 0.0
C1069 C 1.01394 0.5641 0.29351 0.0
C1070 C 1.00094 0.58354 0.28163 0.0
C1071 C 0.96575 0.5619 0.26968 0.0
C1072 C 0.94315 0.52082 0.26959 0.0
C1073 C 0.95565 0.5013 0.28151 0.0
C1074 C 0.99084 0.52281 0.29348 0.0
C1075 C 1.09511 0.64226 0.39774 0.0
C1076 C 1.08101 0.60691 0.40688 0.0
C1077 C 1.09578 0.64185 0.3762 0.0
C1078 C 1.08225 0.60611 0.36321 0.0
C1079 C 1.06664 0.57052 0.37216 0.0
C1080 C 1.06617 0.57091 0.3938 0.0
C1081 C 1.08514 0.60634 0.34033 0.0
C1082 C 1.05078 0.58448 0.32756 0.0
C1083 C 0.12136 0.6299 0.33122 0.0
C1084 C 0.1593 0.65055 0.34351 0.0
C1085 C 0.16969 0.62959 0.35582 0.0
C1086 C 0.20568 0.64894 0.36709 0.0
C1087 C 0.2318 0.68916 0.36597 0.0
C1088 C 0.22193 0.71016 0.35365 0.0
C1089 C 0.18584 0.69103 0.34247 0.0
H1090 H 0.25974 0.704 0.37461 0.0
H1091 H 0.91592 0.50411 0.26033 0.0
loop_
_geom_bond_atom_site_label_1
_geom_bond_atom_site_label_2
_geom_bond_distance
_geom_bond_site_symmetry_2
_ccdc_geom_bond_type
Eu0 C9 2.816 1_455 S
Eu0 O11 2.410 . S
Eu0 O13 2.416 . S
Eu0 O18 2.355 1_455 S
Eu0 O21 2.478 1_455 S
Eu0 O22 2.460 1_455 S
Eu0 O23 2.347 . S
Eu1 O10 2.373 . S
Eu1 O14 2.488 . S
Eu1 O15 2.471 . S
Eu1 O16 2.349 . S
Eu1 O19 2.392 1_455 S
Eu1 O20 2.418 . S
Eu1 C30 2.828 . S
C2 O20 1.244 . S
C2 O23 1.265 . S
C3 C4 1.379 . S
C3 C7 1.373 . S
C3 C9 1.505 . S
C4 C3 1.379 . S
C4 C6 1.369 . S
C4 H32 0.930 . S
C5 C7 1.383 . S
C5 C8 1.382 . S
C5 H33 0.930 . S
C6 C4 1.369 . S
C6 C8 1.392 . S
C6 H34 0.930 . S
C7 C3 1.373 . S
C7 C5 1.383 . S
C7 H35 0.931 . S
C8 C5 1.382 . S
C8 C6 1.392 . S
C9 Eu0 2.816 1_655 S
C9 C3 1.505 . S
C9 O21 1.249 . S
C9 O22 1.244 . S
O10 Eu1 2.373 . S
O10 C12 1.258 . S
O11 Eu0 2.410 . S
O11 C12 1.242 . S
C12 O10 1.258 . S
C12 O11 1.242 . S
O13 Eu0 2.416 . S
O13 C17 1.244 . S
O14 Eu1 2.488 . S
O14 C30 1.249 . S
O15 Eu1 2.471 . S
O15 C30 1.244 . S
O16 Eu1 2.349 . S
O16 C17 1.265 . S
C17 O13 1.244 . S
C17 O16 1.265 . S
O18 Eu0 2.355 1_655 S
O18 C31 1.258 . S
O19 Eu1 2.392 1_655 S
O19 C31 1.242 . S
O20 Eu1 2.418 . S
O20 C2 1.244 . S
O21 Eu0 2.478 1_655 S
O21 C9 1.249 . S
O22 Eu0 2.460 1_655 S
O22 C9 1.244 . S
O23 Eu0 2.347 . S
O23 C2 1.265 . S
C24 C25 1.379 . S
C24 C28 1.373 . S
C24 C30 1.505 . S
C25 C24 1.379 . S
C25 C27 1.369 . S
C25 H36 0.930 . S
C26 C28 1.383 . S
C26 C29 1.382 . S
C26 H37 0.930 . S
C27 C25 1.369 . S
C27 C29 1.392 . S
C27 H38 0.930 . S
C28 C24 1.373 . S
C28 C26 1.383 . S
C28 H39 0.931 . S
C29 C26 1.382 . S
C29 C27 1.392 . S
C30 Eu1 2.828 . S
C30 O14 1.249 . S
C30 O15 1.244 . S
C30 C24 1.505 . S
C31 O18 1.258 . S
C31 O19 1.242 . S
H32 C4 0.930 . S
H33 C5 0.930 . S
H34 C6 0.930 . S
H35 C7 0.931 . S
H36 C25 0.930 . S
H37 C26 0.930 . S
H38 C27 0.930 . S
H39 C28 0.931 . S
Eu40 C49 2.828 1_545 S
Eu40 O51 2.392 . S
Eu40 O53 2.418 . S
Eu40 O58 2.373 1_545 S
Eu40 O61 2.488 1_545 S
Eu40 O62 2.471 1_545 S
Eu40 O63 2.349 . S
Eu41 O50 2.373 . S
Eu41 O54 2.488 . S
Eu41 O55 2.471 . S
Eu41 O56 2.349 . S
Eu41 O59 2.392 1_545 S
Eu41 O60 2.418 . S
Eu41 C70 2.828 . S
C42 O60 1.244 . S
C42 O63 1.265 . S
C43 C44 1.379 . S
C43 C47 1.373 . S
C43 C49 1.505 . S
C44 C43 1.379 . S
C44 C46 1.369 . S
C44 H72 0.930 . S
C45 C47 1.383 . S
C45 C48 1.382 . S
C45 H73 0.930 . S
C46 C44 1.369 . S
C46 C48 1.392 . S
C46 H74 0.930 . S
C47 C43 1.373 . S
C47 C45 1.383 . S
C47 H75 0.931 . S
C48 C45 1.382 . S
C48 C46 1.392 . S
C49 Eu40 2.828 1_565 S
C49 C43 1.505 . S
C49 O61 1.249 . S
C49 O62 1.244 . S
O50 Eu41 2.373 . S
O50 C52 1.258 . S
O51 Eu40 2.392 . S
O51 C52 1.242 . S
C52 O50 1.258 . S
C52 O51 1.242 . S
O53 Eu40 2.418 . S
O53 C57 1.244 . S
O54 Eu41 2.488 . S
O54 C70 1.249 . S
O55 Eu41 2.471 . S
O55 C70 1.244 . S
O56 Eu41 2.349 . S
O56 C57 1.265 . S
C57 O53 1.244 . S
C57 O56 1.265 . S
O58 Eu40 2.373 1_565 S
O58 C71 1.258 . S
O59 Eu41 2.392 1_565 S
O59 C71 1.242 . S
O60 Eu41 2.418 . S
O60 C42 1.244 . S
O61 Eu40 2.488 1_565 S
O61 C49 1.249 . S
O62 Eu40 2.471 1_565 S
O62 C49 1.244 . S
O63 Eu40 2.349 . S
O63 C42 1.265 . S
C64 C65 1.379 . S
C64 C68 1.373 . S
C64 C70 1.505 . S
C65 C64 1.379 . S
C65 C67 1.369 . S
C65 H76 0.930 . S
C66 C68 1.383 . S
C66 C69 1.382 . S
C66 H77 0.930 . S
C67 C65 1.369 . S
C67 C69 1.392 . S
C67 H78 0.930 . S
C68 C64 1.373 . S
C68 C66 1.383 . S
C68 H79 0.931 . S
C69 C66 1.382 . S
C69 C67 1.392 . S
C70 Eu41 2.828 . S
C70 O54 1.249 . S
C70 O55 1.244 . S
C70 C64 1.505 . S
C71 O58 1.258 . S
C71 O59 1.242 . S
H72 C44 0.930 . S
H73 C45 0.930 . S
H74 C46 0.930 . S
H75 C47 0.931 . S
H76 C65 0.930 . S
H77 C66 0.930 . S
H78 C67 0.930 . S
H79 C68 0.931 . S
Eu80 C89 2.828 . S
Eu80 O91 2.392 . S
Eu80 O93 2.418 . S
Eu80 O98 2.373 . S
Eu80 O101 2.488 . S
Eu80 O102 2.471 . S
Eu80 O103 2.349 . S
Eu81 O90 2.373 . S
Eu81 O94 2.488 . S
Eu81 O95 2.471 . S
Eu81 O96 2.349 . S
Eu81 O99 2.392 . S
Eu81 O100 2.418 . S
Eu81 C110 2.828 . S
C82 O100 1.244 . S
C82 O103 1.265 . S
C83 C84 1.379 . S
C83 C87 1.373 . S
C83 C89 1.505 . S
C84 C83 1.379 . S
C84 C86 1.369 . S
C84 H112 0.930 . S
C85 C87 1.383 . S
C85 C88 1.382 . S
C85 H113 0.930 . S
C86 C84 1.369 . S
C86 C88 1.392 . S
C86 H114 0.930 . S
C87 C83 1.373 . S
C87 C85 1.383 . S
C87 H115 0.931 . S
C88 C85 1.382 . S
C88 C86 1.392 . S
C89 Eu80 2.828 . S
C89 C83 1.505 . S
C89 O101 1.249 . S
C89 O102 1.244 . S
O90 Eu81 2.373 . S
O90 C92 1.258 . S
O91 Eu80 2.392 . S
O91 C92 1.242 . S
C92 O90 1.258 . S
C92 O91 1.242 . S
O93 Eu80 2.418 . S
O93 C97 1.244 . S
O94 Eu81 2.488 . S
O94 C110 1.249 . S
O95 Eu81 2.471 . S
O95 C110 1.244 . S
O96 Eu81 2.349 . S
O96 C97 1.265 . S
C97 O93 1.244 . S
C97 O96 1.265 . S
O98 Eu80 2.373 . S
O98 C111 1.258 . S
O99 Eu81 2.392 . S
O99 C111 1.242 . S
O100 Eu81 2.418 . S
O100 C82 1.244 . S
O101 Eu80 2.488 . S
O101 C89 1.249 . S
O102 Eu80 2.471 . S
O102 C89 1.244 . S
O103 Eu80 2.349 . S
O103 C82 1.265 . S
C104 C105 1.379 . S
C104 C108 1.373 . S
C104 C110 1.505 . S
C105 C104 1.379 . S
C105 C107 1.369 . S
C105 H116 0.930 . S
C106 C108 1.383 . S
C106 C109 1.382 . S
C106 H117 0.930 . S
C107 C105 1.369 . S
C107 C109 1.392 . S
C107 H118 0.930 . S
C108 C104 1.373 . S
C108 C106 1.383 . S
C108 H119 0.931 . S
C109 C106 1.382 . S
C109 C107 1.392 . S
C110 Eu81 2.828 . S
C110 O94 1.249 . S
C110 O95 1.244 . S
C110 C104 1.505 . S
C111 O98 1.258 . S
C111 O99 1.242 . S
H112 C84 0.930 . S
H113 C85 0.930 . S
H114 C86 0.930 . S
H115 C87 0.931 . S
H116 C105 0.930 . S
H117 C106 0.930 . S
H118 C107 0.930 . S
H119 C108 0.931 . S
H120 C125 0.930 . S
H121 C128 0.930 . S
H122 C130 0.930 . S
H123 C124 1.016 . S
C124 H123 1.016 . S
C124 N131 1.286 . S
C125 H120 0.930 . S
C125 C126 1.397 . S
C125 C127 1.361 . S
C126 C125 1.397 . S
C126 C130 1.390 . S
C127 C125 1.361 . S
C127 C128 1.393 . S
C127 N131 1.413 . S
C128 H121 0.930 . S
C128 C127 1.393 . S
C128 C129 1.399 . S
C129 C128 1.399 . S
C129 C130 1.381 . S
C130 H122 0.930 . S
C130 C126 1.390 . S
C130 C129 1.381 . S
N131 C124 1.286 . S
N131 C127 1.413 . S
H132 C137 0.930 . S
H133 C140 0.930 . S
H134 C142 0.930 . S
H135 C136 1.016 . S
C136 H135 1.016 . S
C136 N143 1.286 . S
C137 H132 0.930 . S
C137 C138 1.397 . S
C137 C139 1.361 . S
C138 C137 1.397 . S
C138 C142 1.390 . S
C139 C137 1.361 . S
C139 C140 1.393 . S
C139 N143 1.413 . S
C140 H133 0.930 . S
C140 C139 1.393 . S
C140 C141 1.399 . S
C141 C140 1.399 . S
C141 C142 1.381 . S
C142 H134 0.930 . S
C142 C138 1.390 . S
C142 C141 1.381 . S
N143 C136 1.286 . S
N143 C139 1.413 . S
H144 C149 0.930 . S
H145 C152 0.930 . S
H146 C154 0.930 1_655 S
H147 C148 1.016 . S
C148 H147 1.016 . S
C148 N155 1.286 . S
C149 H144 0.930 . S
C149 C150 1.397 . S
C149 C151 1.361 . S
C150 C149 1.397 . S
C150 C154 1.390 . S
C151 C149 1.361 . S
C151 C152 1.393 . S
C151 N155 1.413 . S
C152 H145 0.930 . S
C152 C151 1.393 . S
C152 C153 1.399 . S
C153 C152 1.399 . S
C153 C154 1.381 . S
C154 H146 0.930 1_455 S
C154 C150 1.390 . S
C154 C153 1.381 . S
N155 C148 1.286 . S
N155 C151 1.413 . S
H156 C161 0.930 . S
H157 C164 0.930 . S
H158 C166 0.930 . S
H159 C160 1.016 . S
C160 H159 1.016 . S
C160 N167 1.286 . S
C161 H156 0.930 . S
C161 C162 1.397 . S
C161 C163 1.367 . S
C162 C161 1.397 . S
C162 C166 1.390 . S
C163 C161 1.367 . S
C163 C164 1.391 1_455 S
C163 N167 1.409 1_455 S
C164 H157 0.930 . S
C164 C163 1.391 1_655 S
C164 C165 1.399 1_655 S
C165 C164 1.399 1_455 S
C165 C166 1.381 . S
C166 H158 0.930 . S
C166 C162 1.390 . S
C166 C165 1.381 . S
N167 C160 1.286 . S
N167 C163 1.409 1_655 S
H168 C173 0.930 . S
H169 C176 0.930 1_565 S
H170 C178 0.930 . S
H171 C172 1.016 . S
C172 H171 1.016 . S
C172 N179 1.286 . S
C173 H168 0.930 . S
C173 C174 1.397 . S
C173 C175 1.361 . S
C174 C173 1.397 . S
C174 C178 1.390 . S
C175 C173 1.361 . S
C175 C176 1.393 . S
C175 N179 1.413 1_545 S
C176 H169 0.930 1_545 S
C176 C175 1.393 . S
C176 C177 1.399 . S
C177 C176 1.399 . S
C177 C178 1.381 . S
C178 H170 0.930 . S
C178 C174 1.390 . S
C178 C177 1.381 . S
N179 C172 1.286 . S
N179 C175 1.413 1_565 S
H180 C185 0.930 . S
H181 C188 0.930 . S
H182 C190 0.930 . S
H183 C184 1.016 . S
C184 H183 1.016 . S
C184 N191 1.286 . S
C185 H180 0.930 . S
C185 C186 1.397 . S
C185 C187 1.361 . S
C186 C185 1.397 . S
C186 C190 1.390 . S
C187 C185 1.361 . S
C187 C188 1.393 . S
C187 N191 1.413 . S
C188 H181 0.930 . S
C188 C187 1.393 . S
C188 C189 1.399 . S
C189 C188 1.399 . S
C189 C190 1.381 . S
C190 H182 0.930 . S
C190 C186 1.390 . S
C190 C189 1.381 . S
N191 C184 1.286 . S
N191 C187 1.413 . S
H192 C210 0.951 . S
H193 C212 0.951 . S
H194 C214 0.950 . S
H195 C215 0.950 . S
H196 C217 0.950 . S
H197 C220 0.950 . S
H198 C221 0.950 . S
H199 C223 0.950 . S
H200 C224 0.950 . S
H201 C225 0.951 . S
H202 C227 0.951 . S
H203 C229 0.950 . S
H204 C230 0.950 . S
H205 C232 0.950 . S
H206 C235 0.950 . S
H207 C236 0.950 . S
H208 C238 0.950 . S
H209 C239 0.950 . S
C210 H192 0.951 . S
C210 C211 1.366 . S
C210 C212 1.388 . S
C211 C210 1.366 . S
C211 C215 1.385 . S
C212 H193 0.951 . S
C212 C210 1.388 . S
C212 C213 1.366 . S
C213 C212 1.366 . S
C213 C214 1.414 . S
C213 C216 1.499 . S
C214 H194 0.950 . S
C214 C213 1.414 . S
C214 C215 1.374 . S
C215 H195 0.950 . S
C215 C211 1.385 . S
C215 C214 1.374 . S
C216 C213 1.499 . S
C216 C217 1.373 . S
C216 C218 1.389 . S
C217 H196 0.950 . S
C217 C216 1.373 . S
C217 C233 1.377 . S
C218 C216 1.389 . S
C218 C219 1.524 . S
C218 C232 1.377 . S
C219 C218 1.524 . S
C219 C220 1.397 . S
C219 C224 1.363 . S
C220 H197 0.950 . S
C220 C219 1.397 . S
C220 C221 1.334 . S
C221 H198 0.950 . S
C221 C220 1.334 . S
C221 C222 1.287 . S
C222 C221 1.287 . S
C222 C223 1.524 . S
C222 H241 0.913 . S
C223 H199 0.950 . S
C223 C222 1.524 . S
C223 C224 1.415 . S
C224 H200 0.950 . S
C224 C219 1.363 . S
C224 C223 1.415 . S
C225 H201 0.951 . S
C225 C226 1.366 . S
C225 C227 1.388 . S
C226 C225 1.366 . S
C226 C230 1.385 . S
C227 H202 0.951 . S
C227 C225 1.388 . S
C227 C228 1.366 . S
C228 C227 1.366 . S
C228 C229 1.414 . S
C228 C231 1.499 . S
C229 H203 0.950 . S
C229 C228 1.414 . S
C229 C230 1.374 . S
C230 H204 0.950 . S
C230 C226 1.385 . S
C230 C229 1.374 . S
C231 C228 1.499 . S
C231 C232 1.373 . S
C231 C233 1.389 . S
C232 H205 0.950 . S
C232 C218 1.377 . S
C232 C231 1.373 . S
C233 C217 1.377 . S
C233 C231 1.389 . S
C233 C234 1.524 . S
C234 C233 1.524 . S
C234 C235 1.397 . S
C234 C239 1.363 . S
C235 H206 0.950 . S
C235 C234 1.397 . S
C235 C236 1.334 . S
C236 H207 0.950 . S
C236 C235 1.334 . S
C236 C237 1.287 . S
C237 C236 1.287 . S
C237 C238 1.524 . S
C237 H240 0.999 . S
C238 H208 0.950 . S
C238 C237 1.524 . S
C238 C239 1.415 . S
C239 H209 0.950 . S
C239 C234 1.363 . S
C239 C238 1.415 . S
H240 C237 0.999 . S
H241 C222 0.913 . S
H242 C260 0.951 . S
H243 C262 0.951 . S
H244 C264 0.950 . S
H245 C265 0.950 . S
H246 C267 0.950 . S
H247 C270 0.950 . S
H248 C271 0.950 . S
H249 C273 0.950 . S
H250 C274 0.950 . S
H251 C275 0.951 . S
H252 C277 0.951 . S
H253 C279 0.950 . S
H254 C280 0.950 . S
H255 C282 0.950 . S
H256 C285 0.950 . S
H257 C286 0.950 . S
H258 C288 0.950 . S
H259 C289 0.950 . S
C260 H242 0.951 . S
C260 C261 1.366 . S
C260 C262 1.388 . S
C261 C260 1.366 . S
C261 C265 1.385 . S
C262 H243 0.951 . S
C262 C260 1.388 . S
C262 C263 1.366 . S
C263 C262 1.366 . S
C263 C264 1.414 . S
C263 C266 1.499 . S
C264 H244 0.950 . S
C264 C263 1.414 . S
C264 C265 1.374 . S
C265 H245 0.950 . S
C265 C261 1.385 . S
C265 C264 1.374 . S
C266 C263 1.499 . S
C266 C267 1.373 . S
C266 C268 1.389 . S
C267 H246 0.950 . S
C267 C266 1.373 . S
C267 C283 1.377 . S
C268 C266 1.389 . S
C268 C269 1.524 . S
C268 C282 1.377 . S
C269 C268 1.524 . S
C269 C270 1.397 . S
C269 C274 1.363 . S
C270 H247 0.950 . S
C270 C269 1.397 . S
C270 C271 1.334 . S
C271 H248 0.950 . S
C271 C270 1.334 . S
C271 C272 1.287 . S
C272 C271 1.287 . S
C272 C273 1.524 . S
C272 H291 0.913 . S
C273 H249 0.950 . S
C273 C272 1.524 . S
C273 C274 1.415 . S
C274 H250 0.950 . S
C274 C269 1.363 . S
C274 C273 1.415 . S
C275 H251 0.951 . S
C275 C276 1.366 . S
C275 C277 1.388 . S
C276 C275 1.366 . S
C276 C280 1.385 . S
C277 H252 0.951 . S
C277 C275 1.388 . S
C277 C278 1.366 . S
C278 C277 1.366 . S
C278 C279 1.414 . S
C278 C281 1.499 . S
C279 H253 0.950 . S
C279 C278 1.414 . S
C279 C280 1.374 . S
C280 H254 0.950 . S
C280 C276 1.385 . S
C280 C279 1.374 . S
C281 C278 1.499 . S
C281 C282 1.373 . S
C281 C283 1.389 . S
C282 H255 0.950 . S
C282 C268 1.377 . S
C282 C281 1.373 . S
C283 C267 1.377 . S
C283 C281 1.389 . S
C283 C284 1.524 . S
C284 C283 1.524 . S
C284 C285 1.397 . S
C284 C289 1.363 . S
C285 H256 0.950 . S
C285 C284 1.397 . S
C285 C286 1.334 . S
C286 H257 0.950 . S
C286 C285 1.334 . S
C286 C287 1.287 . S
C287 C286 1.287 . S
C287 C288 1.524 . S
C287 H290 0.999 . S
C288 H258 0.950 . S
C288 C287 1.524 . S
C288 C289 1.415 . S
C289 H259 0.950 . S
C289 C284 1.363 . S
C289 C288 1.415 . S
H290 C287 0.999 . S
H291 C272 0.913 . S
H292 C310 0.951 . S
H293 C312 0.951 . S
H294 C314 0.950 . S
H295 C315 0.950 . S
H296 C317 0.950 . S
H297 C320 0.950 . S
H298 C321 0.950 . S
H299 C323 0.950 . S
H300 C324 0.950 . S
H301 C325 0.951 . S
H302 C327 0.951 . S
H303 C329 0.950 . S
H304 C330 0.950 . S
H305 C332 0.950 . S
H306 C335 0.950 . S
H307 C336 0.950 . S
H308 C338 0.950 . S
H309 C339 0.950 . S
C310 H292 0.951 . S
C310 C311 1.366 . S
C310 C312 1.388 . S
C311 C310 1.366 . S
C311 C315 1.385 . S
C312 H293 0.951 . S
C312 C310 1.388 . S
C312 C313 1.366 . S
C313 C312 1.366 . S
C313 C314 1.414 . S
C313 C316 1.499 . S
C314 H294 0.950 . S
C314 C313 1.414 . S
C314 C315 1.374 . S
C315 H295 0.950 . S
C315 C311 1.385 . S
C315 C314 1.374 . S
C316 C313 1.499 . S
C316 C317 1.373 . S
C316 C318 1.389 . S
C317 H296 0.950 . S
C317 C316 1.373 . S
C317 C333 1.377 . S
C318 C316 1.389 . S
C318 C319 1.524 . S
C318 C332 1.377 . S
C319 C318 1.524 . S
C319 C320 1.397 . S
C319 C324 1.363 . S
C320 H297 0.950 . S
C320 C319 1.397 . S
C320 C321 1.334 . S
C321 H298 0.950 . S
C321 C320 1.334 . S
C321 C322 1.287 . S
C322 C321 1.287 . S
C322 C323 1.524 . S
C322 H341 0.913 . S
C323 H299 0.950 . S
C323 C322 1.524 . S
C323 C324 1.415 . S
C324 H300 0.950 . S
C324 C319 1.363 . S
C324 C323 1.415 . S
C325 H301 0.951 . S
C325 C326 1.366 . S
C325 C327 1.388 . S
C326 C325 1.366 . S
C326 C330 1.385 . S
C327 H302 0.951 . S
C327 C325 1.388 . S
C327 C328 1.366 . S
C328 C327 1.366 . S
C328 C329 1.414 . S
C328 C331 1.499 . S
C329 H303 0.950 . S
C329 C328 1.414 . S
C329 C330 1.374 . S
C330 H304 0.950 . S
C330 C326 1.385 . S
C330 C329 1.374 . S
C331 C328 1.499 . S
C331 C332 1.373 . S
C331 C333 1.389 . S
C332 H305 0.950 . S
C332 C318 1.377 . S
C332 C331 1.373 . S
C333 C317 1.377 . S
C333 C331 1.389 . S
C333 C334 1.524 . S
C334 C333 1.524 . S
C334 C335 1.397 . S
C334 C339 1.363 . S
C335 H306 0.950 . S
C335 C334 1.397 . S
C335 C336 1.334 . S
C336 H307 0.950 . S
C336 C335 1.334 . S
C336 C337 1.287 . S
C337 C336 1.287 . S
C337 C338 1.524 . S
C337 H340 0.999 . S
C338 H308 0.950 . S
C338 C337 1.524 . S
C338 C339 1.415 . S
C339 H309 0.950 . S
C339 C334 1.363 . S
C339 C338 1.415 . S
H340 C337 0.999 . S
H341 C322 0.913 . S
H342 C360 0.951 . S
H343 C362 0.951 . S
H344 C364 0.950 . S
H345 C365 0.950 . S
H346 C367 0.950 . S
H347 C370 0.950 . S
H348 C371 0.950 . S
H349 C373 0.950 . S
H350 C374 0.950 . S
H351 C375 0.951 . S
H352 C377 0.951 . S
H353 C379 0.950 . S
H354 C380 0.950 . S
H355 C382 0.950 . S
H356 C385 0.950 . S
H357 C386 0.950 . S
H358 C388 0.950 . S
H359 C389 0.950 . S
C360 H342 0.951 . S
C360 C361 1.366 . S
C360 C362 1.388 . S
C361 C360 1.366 . S
C361 C365 1.385 . S
C362 H343 0.951 . S
C362 C360 1.388 . S
C362 C363 1.366 . S
C363 C362 1.366 . S
C363 C364 1.414 . S
C363 C366 1.499 . S
C364 H344 0.950 . S
C364 C363 1.414 . S
C364 C365 1.374 . S
C365 H345 0.950 . S
C365 C361 1.385 . S
C365 C364 1.374 . S
C366 C363 1.499 . S
C366 C367 1.373 . S
C366 C368 1.389 . S
C367 H346 0.950 . S
C367 C366 1.373 . S
C367 C383 1.377 . S
C368 C366 1.389 . S
C368 C369 1.524 . S
C368 C382 1.377 . S
C369 C368 1.524 . S
C369 C370 1.397 . S
C369 C374 1.363 . S
C370 H347 0.950 . S
C370 C369 1.397 . S
C370 C371 1.334 . S
C371 H348 0.950 . S
C371 C370 1.334 . S
C371 C372 1.287 . S
C372 C371 1.287 . S
C372 C373 1.524 . S
C372 H391 0.913 . S
C373 H349 0.950 . S
C373 C372 1.524 . S
C373 C374 1.415 . S
C374 H350 0.950 . S
C374 C369 1.363 . S
C374 C373 1.415 . S
C375 H351 0.951 . S
C375 C376 1.366 . S
C375 C377 1.388 . S
C376 C375 1.366 . S
C376 C380 1.385 . S
C377 H352 0.951 . S
C377 C375 1.388 . S
C377 C378 1.366 . S
C378 C377 1.366 . S
C378 C379 1.414 . S
C378 C381 1.499 . S
C379 H353 0.950 . S
C379 C378 1.414 . S
C379 C380 1.374 . S
C380 H354 0.950 . S
C380 C376 1.385 . S
C380 C379 1.374 . S
C381 C378 1.499 . S
C381 C382 1.373 . S
C381 C383 1.389 . S
C382 H355 0.950 . S
C382 C368 1.377 . S
C382 C381 1.373 . S
C383 C367 1.377 . S
C383 C381 1.389 . S
C383 C384 1.524 . S
C384 C383 1.524 . S
C384 C385 1.397 . S
C384 C389 1.363 . S
C385 H356 0.950 . S
C385 C384 1.397 . S
C385 C386 1.334 . S
C386 H357 0.950 . S
C386 C385 1.334 . S
C386 C387 1.287 . S
C387 C386 1.287 . S
C387 C388 1.524 . S
C387 H390 0.999 . S
C388 H358 0.950 . S
C388 C387 1.524 . S
C388 C389 1.415 . S
C389 H359 0.950 . S
C389 C384 1.363 . S
C389 C388 1.415 . S
H390 C387 0.999 . S
H391 C372 0.913 . S
H392 C410 0.951 . S
H393 C412 0.951 . S
H394 C414 0.950 . S
H395 C415 0.950 . S
H396 C417 0.950 . S
H397 C420 0.950 . S
H398 C421 0.950 . S
H399 C423 0.950 . S
H400 C424 0.950 . S
H401 C425 0.951 . S
H402 C427 0.951 . S
H403 C429 0.950 . S
H404 C430 0.950 . S
H405 C432 0.950 . S
H406 C435 0.950 . S
H407 C436 0.950 . S
H408 C438 0.950 . S
H409 C439 0.950 . S
C410 H392 0.951 . S
C410 C411 1.366 . S
C410 C412 1.388 . S
C411 C410 1.366 . S
C411 C415 1.385 . S
C412 H393 0.951 . S
C412 C410 1.388 . S
C412 C413 1.366 . S
C413 C412 1.366 . S
C413 C414 1.414 . S
C413 C416 1.499 . S
C414 H394 0.950 . S
C414 C413 1.414 . S
C414 C415 1.374 . S
C415 H395 0.950 . S
C415 C411 1.385 . S
C415 C414 1.374 . S
C416 C413 1.499 . S
C416 C417 1.373 . S
C416 C418 1.389 . S
C417 H396 0.950 . S
C417 C416 1.373 . S
C417 C433 1.377 . S
C418 C416 1.389 . S
C418 C419 1.524 . S
C418 C432 1.377 . S
C419 C418 1.524 . S
C419 C420 1.397 . S
C419 C424 1.363 . S
C420 H397 0.950 . S
C420 C419 1.397 . S
C420 C421 1.334 . S
C421 H398 0.950 . S
C421 C420 1.334 . S
C421 C422 1.287 . S
C422 C421 1.287 . S
C422 C423 1.524 . S
C422 H441 0.913 . S
C423 H399 0.950 . S
C423 C422 1.524 . S
C423 C424 1.415 . S
C424 H400 0.950 . S
C424 C419 1.363 . S
C424 C423 1.415 . S
C425 H401 0.951 . S
C425 C426 1.366 . S
C425 C427 1.388 . S
C426 C425 1.366 . S
C426 C430 1.385 . S
C427 H402 0.951 . S
C427 C425 1.388 . S
C427 C428 1.366 . S
C428 C427 1.366 . S
C428 C429 1.414 . S
C428 C431 1.499 . S
C429 H403 0.950 . S
C429 C428 1.414 . S
C429 C430 1.374 . S
C430 H404 0.950 . S
C430 C426 1.385 . S
C430 C429 1.374 . S
C431 C428 1.499 . S
C431 C432 1.373 . S
C431 C433 1.389 . S
C432 H405 0.950 . S
C432 C418 1.377 . S
C432 C431 1.373 . S
C433 C417 1.377 . S
C433 C431 1.389 . S
C433 C434 1.524 . S
C434 C433 1.524 . S
C434 C435 1.397 . S
C434 C439 1.363 . S
C435 H406 0.950 . S
C435 C434 1.397 . S
C435 C436 1.334 . S
C436 H407 0.950 . S
C436 C435 1.334 . S
C436 C437 1.287 . S
C437 C436 1.287 . S
C437 C438 1.524 . S
C437 H440 0.999 . S
C438 H408 0.950 . S
C438 C437 1.524 . S
C438 C439 1.415 . S
C439 H409 0.950 . S
C439 C434 1.363 . S
C439 C438 1.415 . S
H440 C437 0.999 . S
H441 C422 0.913 . S
H442 C460 0.951 . S
H443 C462 0.951 . S
H444 C464 0.950 . S
H445 C465 0.950 . S
H446 C467 0.950 . S
H447 C470 0.950 . S
H448 C471 0.950 . S
H449 C473 0.950 . S
H450 C474 0.950 . S
H451 C475 0.951 . S
H452 C477 0.951 . S
H453 C479 0.950 . S
H454 C480 0.950 . S
H455 C482 0.950 . S
H456 C485 0.950 . S
H457 C486 0.950 . S
H458 C488 0.950 . S
H459 C489 0.950 . S
C460 H442 0.951 . S
C460 C461 1.366 . S
C460 C462 1.388 . S
C461 C460 1.366 . S
C461 C465 1.385 . S
C462 H443 0.951 . S
C462 C460 1.388 . S
C462 C463 1.366 . S
C463 C462 1.366 . S
C463 C464 1.414 . S
C463 C466 1.499 . S
C464 H444 0.950 . S
C464 C463 1.414 . S
C464 C465 1.374 . S
C465 H445 0.950 . S
C465 C461 1.385 . S
C465 C464 1.374 . S
C466 C463 1.499 . S
C466 C467 1.373 . S
C466 C468 1.389 . S
C467 H446 0.950 . S
C467 C466 1.373 . S
C467 C483 1.377 . S
C468 C466 1.389 . S
C468 C469 1.524 . S
C468 C482 1.377 . S
C469 C468 1.524 . S
C469 C470 1.397 . S
C469 C474 1.363 . S
C470 H447 0.950 . S
C470 C469 1.397 . S
C470 C471 1.334 . S
C471 H448 0.950 . S
C471 C470 1.334 . S
C471 C472 1.287 . S
C472 C471 1.287 . S
C472 C473 1.524 . S
C472 H491 0.913 . S
C473 H449 0.950 . S
C473 C472 1.524 . S
C473 C474 1.415 . S
C474 H450 0.950 . S
C474 C469 1.363 . S
C474 C473 1.415 . S
C475 H451 0.951 . S
C475 C476 1.366 . S
C475 C477 1.388 . S
C476 C475 1.366 . S
C476 C480 1.385 . S
C477 H452 0.951 . S
C477 C475 1.388 . S
C477 C478 1.366 . S
C478 C477 1.366 . S
C478 C479 1.414 . S
C478 C481 1.499 . S
C479 H453 0.950 . S
C479 C478 1.414 . S
C479 C480 1.374 . S
C480 H454 0.950 . S
C480 C476 1.385 . S
C480 C479 1.374 . S
C481 C478 1.499 . S
C481 C482 1.373 . S
C481 C483 1.389 . S
C482 H455 0.950 . S
C482 C468 1.377 . S
C482 C481 1.373 . S
C483 C467 1.377 . S
C483 C481 1.389 . S
C483 C484 1.524 . S
C484 C483 1.524 . S
C484 C485 1.397 . S
C484 C489 1.363 . S
C485 H456 0.950 . S
C485 C484 1.397 . S
C485 C486 1.334 . S
C486 H457 0.950 . S
C486 C485 1.334 . S
C486 C487 1.287 . S
C487 C486 1.287 . S
C487 C488 1.524 . S
C487 H490 0.999 . S
C488 H458 0.950 . S
C488 C487 1.524 . S
C488 C489 1.415 . S
C489 H459 0.950 . S
C489 C484 1.363 . S
C489 C488 1.415 . S
H490 C487 0.999 . S
H491 C472 0.913 . S
H492 C510 0.951 . S
H493 C512 0.951 . S
H494 C514 0.950 . S
H495 C515 0.950 . S
H496 C517 0.950 . S
H497 C520 0.950 . S
H498 C521 0.950 . S
H499 C523 0.950 . S
H500 C524 0.950 . S
H501 C525 0.951 . S
H502 C527 0.951 . S
H503 C529 0.950 . S
H504 C530 0.950 . S
H505 C532 0.950 . S
H506 C535 0.950 . S
H507 C536 0.950 . S
H508 C538 0.950 . S
H509 C539 0.950 . S
C510 H492 0.951 . S
C510 C511 1.366 . S
C510 C512 1.388 . S
C511 C510 1.366 . S
C511 C515 1.385 . S
C512 H493 0.951 . S
C512 C510 1.388 . S
C512 C513 1.366 . S
C513 C512 1.366 . S
C513 C514 1.414 . S
C513 C516 1.499 . S
C514 H494 0.950 . S
C514 C513 1.414 . S
C514 C515 1.374 . S
C515 H495 0.950 . S
C515 C511 1.385 . S
C515 C514 1.374 . S
C516 C513 1.499 . S
C516 C517 1.373 . S
C516 C518 1.389 . S
C517 H496 0.950 . S
C517 C516 1.373 . S
C517 C533 1.377 . S
C518 C516 1.389 . S
C518 C519 1.524 . S
C518 C532 1.377 . S
C519 C518 1.524 . S
C519 C520 1.397 . S
C519 C524 1.363 . S
C520 H497 0.950 . S
C520 C519 1.397 . S
C520 C521 1.334 . S
C521 H498 0.950 . S
C521 C520 1.334 . S
C521 C522 1.287 . S
C522 C521 1.287 . S
C522 C523 1.524 . S
C522 H541 0.913 . S
C523 H499 0.950 . S
C523 C522 1.524 . S
C523 C524 1.415 . S
C524 H500 0.950 . S
C524 C519 1.363 . S
C524 C523 1.415 . S
C525 H501 0.951 . S
C525 C526 1.366 . S
C525 C527 1.388 . S
C526 C525 1.366 . S
C526 C530 1.385 . S
C527 H502 0.951 . S
C527 C525 1.388 . S
C527 C528 1.366 . S
C528 C527 1.366 . S
C528 C529 1.414 . S
C528 C531 1.499 . S
C529 H503 0.950 . S
C529 C528 1.414 . S
C529 C530 1.374 . S
C530 H504 0.950 . S
C530 C526 1.385 . S
C530 C529 1.374 . S
C531 C528 1.499 . S
C531 C532 1.373 . S
C531 C533 1.389 . S
C532 H505 0.950 . S
C532 C518 1.377 . S
C532 C531 1.373 . S
C533 C517 1.377 . S
C533 C531 1.389 . S
C533 C534 1.524 . S
C534 C533 1.524 . S
C534 C535 1.397 . S
C534 C539 1.363 . S
C535 H506 0.950 . S
C535 C534 1.397 . S
C535 C536 1.334 . S
C536 H507 0.950 . S
C536 C535 1.334 . S
C536 C537 1.287 . S
C537 C536 1.287 . S
C537 C538 1.524 . S
C537 H540 0.999 . S
C538 H508 0.950 . S
C538 C537 1.524 . S
C538 C539 1.415 . S
C539 H509 0.950 . S
C539 C534 1.363 . S
C539 C538 1.415 . S
H540 C537 0.999 . S
H541 C522 0.913 . S
H542 C560 0.951 . S
H543 C562 0.951 . S
H544 C564 0.950 . S
H545 C565 0.950 . S
H546 C567 0.950 . S
H547 C570 0.950 . S
H548 C571 0.950 . S
H549 C573 0.950 . S
H550 C574 0.950 . S
H551 C575 0.951 1_455 S
H552 C577 0.951 . S
H553 C579 0.950 . S
H554 C580 0.950 . S
H555 C582 0.950 . S
H556 C585 0.950 . S
H557 C586 0.950 . S
H558 C588 0.950 . S
H559 C589 0.950 . S
C560 H542 0.951 . S
C560 C561 1.366 . S
C560 C562 1.388 . S
C561 C560 1.366 . S
C561 C565 1.385 . S
C562 H543 0.951 . S
C562 C560 1.388 . S
C562 C563 1.366 . S
C563 C562 1.366 . S
C563 C564 1.414 . S
C563 C566 1.499 . S
C564 H544 0.950 . S
C564 C563 1.414 . S
C564 C565 1.374 . S
C565 H545 0.950 . S
C565 C561 1.385 . S
C565 C564 1.374 . S
C566 C563 1.499 . S
C566 C567 1.373 . S
C566 C568 1.389 . S
C567 H546 0.950 . S
C567 C566 1.373 . S
C567 C583 1.377 . S
C568 C566 1.389 . S
C568 C569 1.524 . S
C568 C582 1.377 . S
C569 C568 1.524 . S
C569 C570 1.397 . S
C569 C574 1.363 . S
C570 H547 0.950 . S
C570 C569 1.397 . S
C570 C571 1.334 . S
C571 H548 0.950 . S
C571 C570 1.334 . S
C571 C572 1.287 . S
C572 C571 1.287 . S
C572 C573 1.524 . S
C572 H591 0.913 . S
C573 H549 0.950 . S
C573 C572 1.524 . S
C573 C574 1.415 . S
C574 H550 0.950 . S
C574 C569 1.363 . S
C574 C573 1.415 . S
C575 H551 0.951 1_655 S
C575 C576 1.366 . S
C575 C577 1.388 . S
C576 C575 1.366 . S
C576 C580 1.385 . S
C577 H552 0.951 . S
C577 C575 1.388 . S
C577 C578 1.366 . S
C578 C577 1.366 . S
C578 C579 1.414 . S
C578 C581 1.499 . S
C579 H553 0.950 . S
C579 C578 1.414 . S
C579 C580 1.374 . S
C580 H554 0.950 . S
C580 C576 1.385 . S
C580 C579 1.374 . S
C581 C578 1.499 . S
C581 C582 1.373 . S
C581 C583 1.389 . S
C582 H555 0.950 . S
C582 C568 1.377 . S
C582 C581 1.373 . S
C583 C567 1.377 . S
C583 C581 1.389 . S
C583 C584 1.524 . S
C584 C583 1.524 . S
C584 C585 1.397 . S
C584 C589 1.363 . S
C585 H556 0.950 . S
C585 C584 1.397 . S
C585 C586 1.334 . S
C586 H557 0.950 . S
C586 C585 1.334 . S
C586 C587 1.287 . S
C587 C586 1.287 . S
C587 C588 1.524 . S
C587 H590 0.999 . S
C588 H558 0.950 . S
C588 C587 1.524 . S
C588 C589 1.415 . S
C589 H559 0.950 . S
C589 C584 1.363 . S
C589 C588 1.415 . S
H590 C587 0.999 . S
H591 C572 0.913 . S
H592 C610 0.951 . S
H593 C612 0.951 . S
H594 C614 0.950 . S
H595 C615 0.950 . S
H596 C617 0.950 . S
H597 C620 0.950 . S
H598 C621 0.950 . S
H599 C623 0.950 . S
H600 C624 0.950 . S
H601 C625 0.951 . S
H602 C627 0.951 . S
H603 C629 0.950 . S
H604 C630 0.950 . S
H605 C632 0.950 . S
H606 C635 0.950 . S
H607 C636 0.950 . S
H608 C638 0.950 . S
H609 C639 0.950 . S
C610 H592 0.951 . S
C610 C611 1.366 . S
C610 C612 1.388 . S
C611 C610 1.366 . S
C611 C615 1.385 . S
C612 H593 0.951 . S
C612 C610 1.388 . S
C612 C613 1.366 . S
C613 C612 1.366 . S
C613 C614 1.414 . S
C613 C616 1.499 . S
C614 H594 0.950 . S
C614 C613 1.414 . S
C614 C615 1.374 . S
C615 H595 0.950 . S
C615 C611 1.385 . S
C615 C614 1.374 . S
C616 C613 1.499 . S
C616 C617 1.373 . S
C616 C618 1.389 . S
C617 H596 0.950 . S
C617 C616 1.373 . S
C617 C633 1.377 . S
C618 C616 1.389 . S
C618 C619 1.524 . S
C618 C632 1.377 . S
C619 C618 1.524 . S
C619 C620 1.397 . S
C619 C624 1.363 . S
C620 H597 0.950 . S
C620 C619 1.397 . S
C620 C621 1.334 . S
C621 H598 0.950 . S
C621 C620 1.334 . S
C621 C622 1.287 . S
C622 C621 1.287 . S
C622 C623 1.524 . S
C622 H641 0.913 . S
C623 H599 0.950 . S
C623 C622 1.524 . S
C623 C624 1.415 . S
C624 H600 0.950 . S
C624 C619 1.363 . S
C624 C623 1.415 . S
C625 H601 0.951 . S
C625 C626 1.366 . S
C625 C627 1.388 1_545 S
C626 C625 1.366 . S
C626 C630 1.385 1_545 S
C627 H602 0.951 . S
C627 C625 1.388 1_565 S
C627 C628 1.366 . S
C628 C627 1.366 . S
C628 C629 1.414 . S
C628 C631 1.499 . S
C629 H603 0.950 . S
C629 C628 1.414 . S
C629 C630 1.374 . S
C630 H604 0.950 . S
C630 C626 1.385 1_565 S
C630 C629 1.374 . S
C631 C628 1.499 . S
C631 C632 1.373 . S
C631 C633 1.389 . S
C632 H605 0.950 . S
C632 C618 1.377 . S
C632 C631 1.373 . S
C633 C617 1.377 . S
C633 C631 1.389 . S
C633 C634 1.524 . S
C634 C633 1.524 . S
C634 C635 1.397 . S
C634 C639 1.363 . S
C635 H606 0.950 . S
C635 C634 1.397 . S
C635 C636 1.334 . S
C636 H607 0.950 . S
C636 C635 1.334 . S
C636 C637 1.287 . S
C637 C636 1.287 . S
C637 C638 1.524 . S
C637 H640 0.999 . S
C638 H608 0.950 . S
C638 C637 1.524 . S
C638 C639 1.415 . S
C639 H609 0.950 . S
C639 C634 1.363 . S
C639 C638 1.415 . S
H640 C637 0.999 . S
H641 C622 0.913 . S
H642 C660 0.951 . S
H643 C662 0.951 . S
H644 C664 0.950 . S
H645 C665 0.950 . S
H646 C667 0.950 . S
H647 C670 0.950 . S
H648 C671 0.950 . S
H649 C673 0.950 . S
H650 C674 0.950 . S
H651 C675 0.951 . S
H652 C677 0.951 . S
H653 C679 0.950 . S
H654 C680 0.950 . S
H655 C682 0.950 . S
H656 C685 0.950 . S
H657 C686 0.950 . S
H658 C688 0.950 . S
H659 C689 0.950 . S
C660 H642 0.951 . S
C660 C661 1.366 . S
C660 C662 1.388 . S
C661 C660 1.366 . S
C661 C665 1.385 . S
C662 H643 0.951 . S
C662 C660 1.388 . S
C662 C663 1.366 . S
C663 C662 1.366 . S
C663 C664 1.414 . S
C663 C666 1.499 . S
C664 H644 0.950 . S
C664 C663 1.414 . S
C664 C665 1.374 . S
C665 H645 0.950 . S
C665 C661 1.385 . S
C665 C664 1.374 . S
C666 C663 1.499 . S
C666 C667 1.373 . S
C666 C668 1.389 . S
C667 H646 0.950 . S
C667 C666 1.373 . S
C667 C683 1.377 . S
C668 C666 1.389 . S
C668 C669 1.524 . S
C668 C682 1.377 . S
C669 C668 1.524 . S
C669 C670 1.397 . S
C669 C674 1.363 . S
C670 H647 0.950 . S
C670 C669 1.397 . S
C670 C671 1.334 . S
C671 H648 0.950 . S
C671 C670 1.334 . S
C671 C672 1.287 . S
C672 C671 1.287 . S
C672 C673 1.524 . S
C672 H691 0.913 . S
C673 H649 0.950 . S
C673 C672 1.524 . S
C673 C674 1.415 . S
C674 H650 0.950 . S
C674 C669 1.363 . S
C674 C673 1.415 . S
C675 H651 0.951 . S
C675 C676 1.366 . S
C675 C677 1.388 . S
C676 C675 1.366 . S
C676 C680 1.385 . S
C677 H652 0.951 . S
C677 C675 1.388 . S
C677 C678 1.366 . S
C678 C677 1.366 . S
C678 C679 1.414 . S
C678 C681 1.499 . S
C679 H653 0.950 . S
C679 C678 1.414 . S
C679 C680 1.374 . S
C680 H654 0.950 . S
C680 C676 1.385 . S
C680 C679 1.374 . S
C681 C678 1.499 . S
C681 C682 1.373 . S
C681 C683 1.389 . S
C682 H655 0.950 . S
C682 C668 1.377 . S
C682 C681 1.373 . S
C683 C667 1.377 . S
C683 C681 1.389 . S
C683 C684 1.524 . S
C684 C683 1.524 . S
C684 C685 1.397 . S
C684 C689 1.363 . S
C685 H656 0.950 . S
C685 C684 1.397 . S
C685 C686 1.334 . S
C686 H657 0.950 . S
C686 C685 1.334 . S
C686 C687 1.287 . S
C687 C686 1.287 . S
C687 C688 1.524 . S
C687 H690 0.999 . S
C688 H658 0.950 . S
C688 C687 1.524 . S
C688 C689 1.415 . S
C689 H659 0.950 . S
C689 C684 1.363 . S
C689 C688 1.415 . S
H690 C687 0.999 . S
H691 C672 0.913 . S
H692 C710 0.951 . S
H693 C712 0.951 . S
H694 C714 0.950 . S
H695 C715 0.950 . S
H696 C717 0.950 . S
H697 C720 0.950 . S
H698 C721 0.950 . S
H699 C723 0.950 . S
H700 C724 0.950 . S
H701 C725 0.951 . S
H702 C727 0.951 . S
H703 C729 0.950 . S
H704 C730 0.950 . S
H705 C732 0.950 . S
H706 C735 0.950 . S
H707 C736 0.950 . S
H708 C738 0.950 . S
H709 C739 0.950 . S
C710 H692 0.951 . S
C710 C711 1.366 . S
C710 C712 1.388 . S
C711 C710 1.366 . S
C711 C715 1.385 . S
C712 H693 0.951 . S
C712 C710 1.388 . S
C712 C713 1.366 . S
C713 C712 1.366 . S
C713 C714 1.414 . S
C713 C716 1.499 . S
C714 H694 0.950 . S
C714 C713 1.414 . S
C714 C715 1.374 . S
C715 H695 0.950 . S
C715 C711 1.385 . S
C715 C714 1.374 . S
C716 C713 1.499 . S
C716 C717 1.373 . S
C716 C718 1.389 . S
C717 H696 0.950 . S
C717 C716 1.373 . S
C717 C733 1.377 . S
C718 C716 1.389 . S
C718 C719 1.524 . S
C718 C732 1.377 . S
C719 C718 1.524 . S
C719 C720 1.397 . S
C719 C724 1.363 . S
C720 H697 0.950 . S
C720 C719 1.397 . S
C720 C721 1.334 . S
C721 H698 0.950 . S
C721 C720 1.334 . S
C721 C722 1.287 . S
C722 C721 1.287 . S
C722 C723 1.524 . S
C722 H741 0.913 . S
C723 H699 0.950 . S
C723 C722 1.524 . S
C723 C724 1.415 . S
C724 H700 0.950 . S
C724 C719 1.363 . S
C724 C723 1.415 . S
C725 H701 0.951 . S
C725 C726 1.366 . S
C725 C727 1.388 . S
C726 C725 1.366 . S
C726 C730 1.385 . S
C727 H702 0.951 . S
C727 C725 1.388 . S
C727 C728 1.366 . S
C728 C727 1.366 . S
C728 C729 1.414 . S
C728 C731 1.499 . S
C729 H703 0.950 . S
C729 C728 1.414 . S
C729 C730 1.374 . S
C730 H704 0.950 . S
C730 C726 1.385 . S
C730 C729 1.374 . S
C731 C728 1.499 . S
C731 C732 1.373 . S
C731 C733 1.389 . S
C732 H705 0.950 . S
C732 C718 1.377 . S
C732 C731 1.373 . S
C733 C717 1.377 . S
C733 C731 1.389 . S
C733 C734 1.524 . S
C734 C733 1.524 . S
C734 C735 1.397 . S
C734 C739 1.363 . S
C735 H706 0.950 . S
C735 C734 1.397 . S
C735 C736 1.334 . S
C736 H707 0.950 . S
C736 C735 1.334 . S
C736 C737 1.287 . S
C737 C736 1.287 . S
C737 C738 1.524 . S
C737 H740 0.999 . S
C738 H708 0.950 . S
C738 C737 1.524 . S
C738 C739 1.415 . S
C739 H709 0.950 . S
C739 C734 1.363 . S
C739 C738 1.415 . S
H740 C737 0.999 . S
H741 C722 0.913 . S
H742 C760 0.951 . S
H743 C762 0.951 . S
H744 C764 0.950 . S
H745 C765 0.950 . S
H746 C767 0.950 . S
H747 C770 0.950 . S
H748 C771 0.950 . S
H749 C773 0.950 . S
H750 C774 0.950 . S
H751 C775 0.951 . S
H752 C777 0.951 . S
H753 C779 0.950 . S
H754 C780 0.950 . S
H755 C782 0.950 . S
H756 C785 0.950 . S
H757 C786 0.950 . S
H758 C788 0.950 . S
H759 C789 0.950 . S
C760 H742 0.951 . S
C760 C761 1.366 . S
C760 C762 1.388 . S
C761 C760 1.366 . S
C761 C765 1.385 . S
C762 H743 0.951 . S
C762 C760 1.388 . S
C762 C763 1.366 . S
C763 C762 1.366 . S
C763 C764 1.414 . S
C763 C766 1.499 . S
C764 H744 0.950 . S
C764 C763 1.414 . S
C764 C765 1.374 . S
C765 H745 0.950 . S
C765 C761 1.385 . S
C765 C764 1.374 . S
C766 C763 1.499 . S
C766 C767 1.373 . S
C766 C768 1.389 . S
C767 H746 0.950 . S
C767 C766 1.373 . S
C767 C783 1.377 . S
C768 C766 1.389 . S
C768 C769 1.524 . S
C768 C782 1.377 . S
C769 C768 1.524 . S
C769 C770 1.397 . S
C769 C774 1.363 . S
C770 H747 0.950 . S
C770 C769 1.397 . S
C770 C771 1.334 . S
C771 H748 0.950 . S
C771 C770 1.334 . S
C771 C772 1.287 . S
C772 C771 1.287 . S
C772 C773 1.524 . S
C772 H791 0.913 . S
C773 H749 0.950 . S
C773 C772 1.524 . S
C773 C774 1.415 . S
C774 H750 0.950 . S
C774 C769 1.363 . S
C774 C773 1.415 . S
C775 H751 0.951 . S
C775 C776 1.366 . S
C775 C777 1.388 . S
C776 C775 1.366 . S
C776 C780 1.385 . S
C777 H752 0.951 . S
C777 C775 1.388 . S
C777 C778 1.366 . S
C778 C777 1.366 . S
C778 C779 1.414 . S
C778 C781 1.499 . S
C779 H753 0.950 . S
C779 C778 1.414 . S
C779 C780 1.374 . S
C780 H754 0.950 . S
C780 C776 1.385 . S
C780 C779 1.374 . S
C781 C778 1.499 . S
C781 C782 1.373 . S
C781 C783 1.389 . S
C782 H755 0.950 . S
C782 C768 1.377 . S
C782 C781 1.373 . S
C783 C767 1.377 . S
C783 C781 1.389 . S
C783 C784 1.524 . S
C784 C783 1.524 . S
C784 C785 1.397 . S
C784 C789 1.363 . S
C785 H756 0.950 . S
C785 C784 1.397 . S
C785 C786 1.334 . S
C786 H757 0.950 . S
C786 C785 1.334 . S
C786 C787 1.287 . S
C787 C786 1.287 . S
C787 C788 1.524 . S
C787 H790 0.999 . S
C788 H758 0.950 . S
C788 C787 1.524 . S
C788 C789 1.415 . S
C789 H759 0.950 . S
C789 C784 1.363 . S
C789 C788 1.415 . S
H790 C787 0.999 . S
H791 C772 0.913 . S
H792 C810 0.951 . S
H793 C812 0.951 . S
H794 C814 0.950 . S
H795 C815 0.950 . S
H796 C817 0.950 . S
H797 C820 0.950 . S
H798 C821 0.950 1_455 S
H799 C823 0.950 . S
H800 C824 0.950 . S
H801 C825 0.951 . S
H802 C827 0.951 . S
H803 C829 0.950 1_655 S
H804 C830 0.950 1_655 S
H805 C832 0.950 1_656 S
H806 C835 0.950 . S
H807 C836 0.950 . S
H808 C838 0.950 . S
H809 C839 0.950 . S
C810 H792 0.951 . S
C810 C811 1.366 1_655 S
C810 C812 1.388 . S
C811 C810 1.366 1_455 S
C811 C815 1.385 . S
C812 H793 0.951 . S
C812 C810 1.388 . S
C812 C813 1.366 1_655 S
C813 C812 1.366 1_455 S
C813 C814 1.414 . S
C813 C816 1.499 . S
C814 H794 0.950 . S
C814 C813 1.414 . S
C814 C815 1.374 . S
C815 H795 0.950 . S
C815 C811 1.385 . S
C815 C814 1.374 . S
C816 C813 1.499 . S
C816 C817 1.373 . S
C816 C818 1.389 . S
C817 H796 0.950 . S
C817 C816 1.373 . S
C817 C833 1.377 . S
C818 C816 1.389 . S
C818 C819 1.524 1_455 S
C818 C832 1.377 . S
C819 C818 1.524 1_655 S
C819 C820 1.397 1_655 S
C819 C824 1.363 . S
C820 H797 0.950 . S
C820 C819 1.397 1_455 S
C820 C821 1.334 1_455 S
C821 H798 0.950 1_655 S
C821 C820 1.334 1_655 S
C821 C822 1.287 . S
C822 C821 1.287 . S
C822 C823 1.524 . S
C822 H841 0.913 . S
C823 H799 0.950 . S
C823 C822 1.524 . S
C823 C824 1.415 . S
C824 H800 0.950 . S
C824 C819 1.363 . S
C824 C823 1.415 . S
C825 H801 0.951 . S
C825 C826 1.366 . S
C825 C827 1.388 . S
C826 C825 1.366 . S
C826 C830 1.385 . S
C827 H802 0.951 . S
C827 C825 1.388 . S
C827 C828 1.366 . S
C828 C827 1.366 . S
C828 C829 1.414 . S
C828 C831 1.499 . S
C829 H803 0.950 1_455 S
C829 C828 1.414 . S
C829 C830 1.374 . S
C830 H804 0.950 1_455 S
C830 C826 1.385 . S
C830 C829 1.374 . S
C831 C828 1.499 . S
C831 C832 1.373 1_556 S
C831 C833 1.389 1_556 S
C832 H805 0.950 1_454 S
C832 C818 1.377 . S
C832 C831 1.373 1_554 S
C833 C817 1.377 . S
C833 C831 1.389 1_554 S
C833 C834 1.524 . S
C834 C833 1.524 . S
C834 C835 1.397 1_554 S
C834 C839 1.363 . S
C835 H806 0.950 . S
C835 C834 1.397 1_556 S
C835 C836 1.334 . S
C836 H807 0.950 . S
C836 C835 1.334 . S
C836 C837 1.287 . S
C837 C836 1.287 . S
C837 C838 1.524 1_556 S
C837 H840 0.999 . S
C838 H808 0.950 . S
C838 C837 1.524 1_554 S
C838 C839 1.415 . S
C839 H809 0.950 . S
C839 C834 1.363 . S
C839 C838 1.415 . S
H840 C837 0.999 . S
H841 C822 0.913 . S
H842 C860 0.951 . S
H843 C862 0.951 . S
H844 C864 0.950 1_565 S
H845 C865 0.950 1_565 S
H846 C867 0.950 1_565 S
H847 C870 0.950 . S
H848 C871 0.950 . S
H849 C873 0.950 . S
H850 C874 0.950 . S
H851 C875 0.951 . S
H852 C877 0.951 . S
H853 C879 0.950 . S
H854 C880 0.950 . S
H855 C882 0.950 . S
H856 C885 0.948 1_545 S
H857 C886 0.950 . S
H858 C888 0.950 . S
H859 C889 0.950 . S
C860 H842 0.951 . S
C860 C861 1.366 . S
C860 C862 1.388 . S
C861 C860 1.366 . S
C861 C865 1.385 . S
C862 H843 0.951 . S
C862 C860 1.388 . S
C862 C863 1.366 . S
C863 C862 1.366 . S
C863 C864 1.414 . S
C863 C866 1.499 . S
C864 H844 0.950 1_545 S
C864 C863 1.414 . S
C864 C865 1.374 . S
C865 H845 0.950 1_545 S
C865 C861 1.385 . S
C865 C864 1.374 . S
C866 C863 1.499 . S
C866 C867 1.373 . S
C866 C868 1.389 . S
C867 H846 0.950 1_545 S
C867 C866 1.373 . S
C867 C883 1.377 . S
C868 C866 1.389 . S
C868 C869 1.524 . S
C868 C882 1.377 . S
C869 C868 1.524 . S
C869 C870 1.397 . S
C869 C874 1.363 . S
C870 H847 0.950 . S
C870 C869 1.397 . S
C870 C871 1.334 . S
C871 H848 0.950 . S
C871 C870 1.334 . S
C871 C872 1.287 . S
C872 C871 1.287 . S
C872 C873 1.524 . S
C872 H891 0.913 . S
C873 H849 0.950 . S
C873 C872 1.524 . S
C873 C874 1.415 . S
C874 H850 0.950 . S
C874 C869 1.363 . S
C874 C873 1.415 . S
C875 H851 0.951 . S
C875 C876 1.366 . S
C875 C877 1.388 . S
C876 C875 1.366 . S
C876 C880 1.385 . S
C877 H852 0.951 . S
C877 C875 1.388 . S
C877 C878 1.366 . S
C878 C877 1.366 . S
C878 C879 1.414 . S
C878 C881 1.499 . S
C879 H853 0.950 . S
C879 C878 1.414 . S
C879 C880 1.374 . S
C880 H854 0.950 . S
C880 C876 1.385 . S
C880 C879 1.374 . S
C881 C878 1.499 . S
C881 C882 1.373 . S
C881 C883 1.389 . S
C882 H855 0.950 . S
C882 C868 1.377 . S
C882 C881 1.373 . S
C883 C867 1.377 . S
C883 C881 1.389 . S
C883 C884 1.524 1_545 S
C884 C883 1.524 1_565 S
C884 C885 1.397 . S
C884 C889 1.363 . S
C885 H856 0.948 1_565 S
C885 C884 1.397 . S
C885 C886 1.334 . S
C886 H857 0.950 . S
C886 C885 1.334 . S
C886 C887 1.287 . S
C887 C886 1.287 . S
C887 C888 1.524 . S
C887 H890 0.999 . S
C888 H858 0.950 . S
C888 C887 1.524 . S
C888 C889 1.415 . S
C889 H859 0.950 . S
C889 C884 1.363 . S
C889 C888 1.415 . S
H890 C887 0.999 . S
H891 C872 0.913 . S
H892 C910 0.951 . S
H893 C912 0.951 . S
H894 C914 0.950 . S
H895 C915 0.950 . S
H896 C917 0.950 . S
H897 C920 0.950 . S
H898 C921 0.950 . S
H899 C923 0.950 . S
H900 C924 0.950 . S
H901 C925 0.951 . S
H902 C927 0.951 . S
H903 C929 0.950 . S
H904 C930 0.950 . S
H905 C932 0.950 . S
H906 C935 0.950 . S
H907 C936 0.950 . S
H908 C938 0.950 . S
H909 C939 0.950 . S
C910 H892 0.951 . S
C910 C911 1.366 . S
C910 C912 1.388 . S
C911 C910 1.366 . S
C911 C915 1.385 . S
C912 H893 0.951 . S
C912 C910 1.388 . S
C912 C913 1.366 . S
C913 C912 1.366 . S
C913 C914 1.414 . S
C913 C916 1.499 . S
C914 H894 0.950 . S
C914 C913 1.414 . S
C914 C915 1.374 . S
C915 H895 0.950 . S
C915 C911 1.385 . S
C915 C914 1.374 . S
C916 C913 1.499 . S
C916 C917 1.373 . S
C916 C918 1.389 . S
C917 H896 0.950 . S
C917 C916 1.373 . S
C917 C933 1.377 . S
C918 C916 1.389 . S
C918 C919 1.524 . S
C918 C932 1.377 . S
C919 C918 1.524 . S
C919 C920 1.397 . S
C919 C924 1.363 . S
C920 H897 0.950 . S
C920 C919 1.397 . S
C920 C921 1.334 . S
C921 H898 0.950 . S
C921 C920 1.334 . S
C921 C922 1.287 . S
C922 C921 1.287 . S
C922 C923 1.524 . S
C922 H941 0.913 . S
C923 H899 0.950 . S
C923 C922 1.524 . S
C923 C924 1.415 . S
C924 H900 0.950 . S
C924 C919 1.363 . S
C924 C923 1.415 . S
C925 H901 0.951 . S
C925 C926 1.366 . S
C925 C927 1.388 . S
C926 C925 1.366 . S
C926 C930 1.385 . S
C927 H902 0.951 . S
C927 C925 1.388 . S
C927 C928 1.366 . S
C928 C927 1.366 . S
C928 C929 1.414 . S
C928 C931 1.499 . S
C929 H903 0.950 . S
C929 C928 1.414 . S
C929 C930 1.374 . S
C930 H904 0.950 . S
C930 C926 1.385 . S
C930 C929 1.374 . S
C931 C928 1.499 . S
C931 C932 1.373 . S
C931 C933 1.389 . S
C932 H905 0.950 . S
C932 C918 1.377 . S
C932 C931 1.373 . S
C933 C917 1.377 . S
C933 C931 1.389 . S
C933 C934 1.524 . S
C934 C933 1.524 . S
C934 C935 1.397 . S
C934 C939 1.363 . S
C935 H906 0.950 . S
C935 C934 1.397 . S
C935 C936 1.334 . S
C936 H907 0.950 . S
C936 C935 1.334 . S
C936 C937 1.287 . S
C937 C936 1.287 . S
C937 C938 1.524 . S
C937 H940 0.999 . S
C938 H908 0.950 . S
C938 C937 1.524 . S
C938 C939 1.415 . S
C939 H909 0.950 . S
C939 C934 1.363 . S
C939 C938 1.415 . S
H940 C937 0.999 . S
H941 C922 0.913 . S
H942 C960 0.951 . S
H943 C962 0.951 . S
H944 C964 0.950 . S
H945 C965 0.950 . S
H946 C967 0.950 . S
H947 C970 0.950 . S
H948 C971 0.950 . S
H949 C973 0.950 . S
H950 C974 0.950 . S
H951 C975 0.951 . S
H952 C977 0.951 . S
H953 C979 0.950 . S
H954 C980 0.950 . S
H955 C982 0.950 . S
H956 C985 0.950 . S
H957 C986 0.950 . S
H958 C988 0.950 . S
H959 C989 0.950 . S
C960 H942 0.951 . S
C960 C961 1.366 . S
C960 C962 1.388 . S
C961 C960 1.366 . S
C961 C965 1.385 1_545 S
C962 H943 0.951 . S
C962 C960 1.388 . S
C962 C963 1.366 . S
C963 C962 1.366 . S
C963 C964 1.414 1_545 S
C963 C966 1.499 . S
C964 H944 0.950 . S
C964 C963 1.414 1_565 S
C964 C965 1.374 . S
C965 H945 0.950 . S
C965 C961 1.385 1_565 S
C965 C964 1.374 . S
C966 C963 1.499 . S
C966 C967 1.373 . S
C966 C968 1.389 . S
C967 H946 0.950 . S
C967 C966 1.373 . S
C967 C983 1.377 . S
C968 C966 1.389 . S
C968 C969 1.524 . S
C968 C982 1.377 . S
C969 C968 1.524 . S
C969 C970 1.397 . S
C969 C974 1.363 . S
C970 H947 0.950 . S
C970 C969 1.397 . S
C970 C971 1.334 . S
C971 H948 0.950 . S
C971 C970 1.334 . S
C971 C972 1.287 . S
C972 C971 1.287 . S
C972 C973 1.524 . S
C972 H991 0.913 . S
C973 H949 0.950 . S
C973 C972 1.524 . S
C973 C974 1.415 . S
C974 H950 0.950 . S
C974 C969 1.363 . S
C974 C973 1.415 . S
C975 H951 0.951 . S
C975 C976 1.366 1_565 S
C975 C977 1.388 . S
C976 C975 1.366 1_545 S
C976 C980 1.385 . S
C977 H952 0.951 . S
C977 C975 1.388 . S
C977 C978 1.366 1_565 S
C978 C977 1.366 1_545 S
C978 C979 1.414 . S
C978 C981 1.499 . S
C979 H953 0.950 . S
C979 C978 1.414 . S
C979 C980 1.374 . S
C980 H954 0.950 . S
C980 C976 1.385 . S
C980 C979 1.374 . S
C981 C978 1.499 . S
C981 C982 1.373 . S
C981 C983 1.389 . S
C982 H955 0.950 . S
C982 C968 1.377 . S
C982 C981 1.373 . S
C983 C967 1.377 . S
C983 C981 1.389 . S
C983 C984 1.524 . S
C984 C983 1.524 . S
C984 C985 1.397 . S
C984 C989 1.363 1_545 S
C985 H956 0.950 . S
C985 C984 1.397 . S
C985 C986 1.334 . S
C986 H957 0.950 . S
C986 C985 1.334 . S
C986 C987 1.287 1_545 S
C987 C986 1.287 1_565 S
C987 C988 1.524 . S
C987 H990 0.999 . S
C988 H958 0.950 . S
C988 C987 1.524 . S
C988 C989 1.415 . S
C989 H959 0.950 . S
C989 C984 1.363 1_565 S
C989 C988 1.415 . S
H990 C987 0.999 . S
H991 C972 0.913 . S
H992 C1010 0.951 . S
H993 C1012 0.951 . S
H994 C1014 0.950 . S
H995 C1015 0.950 . S
H996 C1017 0.950 . S
H997 C1020 0.950 . S
H998 C1021 0.950 . S
H999 C1023 0.950 . S
H1000 C1024 0.950 . S
H1001 C1025 0.951 . S
H1002 C1027 0.951 . S
H1003 C1029 0.950 . S
H1004 C1030 0.950 . S
H1005 C1032 0.962 . S
H1006 C1035 0.950 . S
H1007 C1036 0.950 . S
H1008 C1038 0.950 . S
H1009 C1039 0.958 . S
C1010 H992 0.951 . S
C1010 C1011 1.366 . S
C1010 C1012 1.388 . S
C1011 C1010 1.366 . S
C1011 C1015 1.385 . S
C1012 H993 0.951 . S
C1012 C1010 1.388 . S
C1012 C1013 1.366 . S
C1013 C1012 1.366 . S
C1013 C1014 1.414 . S
C1013 C1016 1.499 . S
C1014 H994 0.950 . S
C1014 C1013 1.414 . S
C1014 C1015 1.374 . S
C1015 H995 0.950 . S
C1015 C1011 1.385 . S
C1015 C1014 1.374 . S
C1016 C1013 1.499 . S
C1016 C1017 1.373 . S
C1016 C1018 1.389 . S
C1017 H996 0.950 . S
C1017 C1016 1.373 . S
C1017 C1033 1.377 . S
C1018 C1016 1.389 . S
C1018 C1019 1.524 . S
C1018 C1032 1.377 . S
C1019 C1018 1.524 . S
C1019 C1020 1.397 . S
C1019 C1024 1.363 . S
C1020 H997 0.950 . S
C1020 C1019 1.397 . S
C1020 C1021 1.334 . S
C1021 H998 0.950 . S
C1021 C1020 1.334 . S
C1021 C1022 1.287 . S
C1022 C1021 1.287 . S
C1022 C1023 1.524 . S
C1022 H1041 0.913 . S
C1023 H999 0.950 . S
C1023 C1022 1.524 . S
C1023 C1024 1.415 . S
C1024 H1000 0.950 . S
C1024 C1019 1.363 . S
C1024 C1023 1.415 . S
C1025 H1001 0.951 . S
C1025 C1026 1.366 . S
C1025 C1027 1.388 . S
C1026 C1025 1.366 . S
C1026 C1030 1.385 . S
C1027 H1002 0.951 . S
C1027 C1025 1.388 . S
C1027 C1028 1.366 . S
C1028 C1027 1.366 . S
C1028 C1029 1.414 . S
C1028 C1031 1.499 . S
C1029 H1003 0.950 . S
C1029 C1028 1.414 . S
C1029 C1030 1.374 . S
C1030 H1004 0.950 . S
C1030 C1026 1.385 . S
C1030 C1029 1.374 . S
C1031 C1028 1.499 . S
C1031 C1032 1.373 1_554 S
C1031 C1033 1.389 1_554 S
C1032 H1005 0.962 . S
C1032 C1018 1.377 . S
C1032 C1031 1.373 1_556 S
C1033 C1017 1.377 . S
C1033 C1031 1.389 1_556 S
C1033 C1034 1.524 1_556 S
C1034 C1033 1.524 1_554 S
C1034 C1035 1.397 . S
C1034 C1039 1.361 1_554 S
C1035 H1006 0.950 . S
C1035 C1034 1.397 . S
C1035 C1036 1.334 . S
C1036 H1007 0.950 . S
C1036 C1035 1.334 . S
C1036 C1037 1.287 . S
C1037 C1036 1.287 . S
C1037 C1038 1.524 . S
C1037 H1040 0.999 . S
C1038 H1008 0.950 . S
C1038 C1037 1.524 . S
C1038 C1039 1.409 1_554 S
C1039 H1009 0.958 . S
C1039 C1034 1.361 1_556 S
C1039 C1038 1.409 1_556 S
H1040 C1037 0.999 . S
H1041 C1022 0.913 . S
H1042 C1060 0.951 . S
H1043 C1062 0.951 . S
H1044 C1064 0.950 . S
H1045 C1065 0.950 . S
H1046 C1067 0.950 . S
H1047 C1070 0.950 . S
H1048 C1071 0.950 . S
H1049 C1073 0.950 . S
H1050 C1074 0.950 . S
H1051 C1075 0.951 . S
H1052 C1077 0.951 . S
H1053 C1079 0.950 . S
H1054 C1080 0.950 . S
H1055 C1082 0.950 . S
H1056 C1085 0.950 . S
H1057 C1086 0.950 . S
H1058 C1088 0.950 . S
H1059 C1089 0.950 . S
C1060 H1042 0.951 . S
C1060 C1061 1.366 . S
C1060 C1062 1.388 . S
C1061 C1060 1.366 . S
C1061 C1065 1.385 . S
C1062 H1043 0.951 . S
C1062 C1060 1.388 . S
C1062 C1063 1.366 . S
C1063 C1062 1.366 . S
C1063 C1064 1.414 . S
C1063 C1066 1.499 . S
C1064 H1044 0.950 . S
C1064 C1063 1.414 . S
C1064 C1065 1.374 . S
C1065 H1045 0.950 . S
C1065 C1061 1.385 . S
C1065 C1064 1.374 . S
C1066 C1063 1.499 . S
C1066 C1067 1.373 . S
C1066 C1068 1.389 1_455 S
C1067 H1046 0.950 . S
C1067 C1066 1.373 . S
C1067 C1083 1.377 . S
C1068 C1066 1.389 1_655 S
C1068 C1069 1.524 . S
C1068 C1082 1.377 . S
C1069 C1068 1.524 . S
C1069 C1070 1.397 . S
C1069 C1074 1.363 . S
C1070 H1047 0.950 . S
C1070 C1069 1.397 . S
C1070 C1071 1.334 . S
C1071 H1048 0.950 . S
C1071 C1070 1.334 . S
C1071 C1072 1.287 . S
C1072 C1071 1.287 . S
C1072 C1073 1.524 . S
C1072 H1091 0.913 . S
C1073 H1049 0.950 . S
C1073 C1072 1.524 . S
C1073 C1074 1.415 . S
C1074 H1050 0.950 . S
C1074 C1069 1.363 . S
C1074 C1073 1.415 . S
C1075 H1051 0.951 . S
C1075 C1076 1.366 . S
C1075 C1077 1.388 . S
C1076 C1075 1.366 . S
C1076 C1080 1.385 . S
C1077 H1052 0.951 . S
C1077 C1075 1.388 . S
C1077 C1078 1.366 . S
C1078 C1077 1.366 . S
C1078 C1079 1.414 . S
C1078 C1081 1.499 . S
C1079 H1053 0.950 . S
C1079 C1078 1.414 . S
C1079 C1080 1.374 . S
C1080 H1054 0.950 . S
C1080 C1076 1.385 . S
C1080 C1079 1.374 . S
C1081 C1078 1.499 . S
C1081 C1082 1.373 1_455 S
C1081 C1083 1.389 . S
C1082 H1055 0.950 . S
C1082 C1068 1.377 . S
C1082 C1081 1.373 1_655 S
C1083 C1067 1.377 . S
C1083 C1081 1.389 . S
C1083 C1084 1.524 . S
C1084 C1083 1.524 . S
C1084 C1085 1.397 . S
C1084 C1089 1.363 . S
C1085 H1056 0.950 . S
C1085 C1084 1.397 . S
C1085 C1086 1.334 . S
C1086 H1057 0.950 . S
C1086 C1085 1.334 . S
C1086 C1087 1.287 . S
C1087 C1086 1.287 . S
C1087 C1088 1.524 . S
C1087 H1090 0.999 . S
C1088 H1058 0.950 . S
C1088 C1087 1.524 . S
C1088 C1089 1.415 . S
C1089 H1059 0.950 . S
C1089 C1084 1.363 . S
C1089 C1088 1.415 . S
H1090 C1087 0.999 . S
H1091 C1072 0.913 . S
C211 C12 3.230 . S
C226 C186 3.214 . S
C261 C52 2.991 . S
C276 C160 2.922 . S
C311 C111 3.033 . S
C326 C172 2.955 . S
C361 C31 2.792 . S
C376 C184 2.676 . S
C426 C162 2.934 . S
C411 C71 2.983 . S
C476 C174 2.885 . S
C461 C92 2.928 . S
C511 C48 0.525 . S
C526 C136 0.528 . S
C561 C109 0.628 . S
C576 C150 0.605 1_655 S
C611 C29 0.286 . S
C626 C126 0.206 . S
C676 C138 0.195 . S
C661 C69 0.257 . S
C726 C148 0.384 . S
C711 C88 0.123 . S
C761 C8 0.332 . S
C776 C124 0.370 . S
C826 C153 1.257 . S
C811 C17 1.227 . S
C861 C57 1.221 . S
C876 C129 1.251 . S
C911 C97 1.254 . S
C926 C141 1.273 . S
C976 C177 1.718 . S
C961 C42 1.689 . S
C1026 C189 1.779 . S
C1011 C82 1.730 . S
C1061 C2 1.704 . S
C1076 C165 1.726 . S
