# Generated by pormake.
# Topology eea, (3,6)-cn, num edge types: 1
# Building blocks:
#     Node 0, Type 0, BuildingBlock: KAKCAD_clean_linker_0, # of connection points: 3
#     Node 1, Type 0, BuildingBlock: KAKCAD_clean_linker_0, # of connection points: 3
#     Node 2, Type 0, BuildingBlock: KAKCAD_clean_linker_0, # of connection points: 3
#     Node 3, Type 0, BuildingBlock: KAKCAD_clean_linker_0, # of connection points: 3
#     Node 4, Type 0, BuildingBlock: KAKCAD_clean_linker_0, # of connection points: 3
#     Node 5, Type 0, BuildingBlock: KAKCAD_clean_linker_0, # of connection points: 3
#     Node 6, Type 0, BuildingBlock: KAKCAD_clean_linker_0, # of connection points: 3
#     Node 7, Type 0, BuildingBlock: KAKCAD_clean_linker_0, # of connection points: 3
#     Node 8, Type 0, BuildingBlock: KAKCAD_clean_linker_0, # of connection points: 3
#     Node 9, Type 0, BuildingBlock: KAKCAD_clean_linker_0, # of connection points: 3
#     Node 10, Type 0, BuildingBlock: KAKCAD_clean_linker_0, # of connection points: 3
#     Node 11, Type 0, BuildingBlock: KAKCAD_clean_linker_0, # of connection points: 3
#     Node 12, Type 0, BuildingBlock: KAKCAD_clean_linker_0, # of connection points: 3
#     Node 13, Type 0, BuildingBlock: KAKCAD_clean_linker_0, # of connection points: 3
#     Node 14, Type 0, BuildingBlock: KAKCAD_clean_linker_0, # of connection points: 3
#     Node 15, Type 0, BuildingBlock: KAKCAD_clean_linker_0, # of connection points: 3
#     Node 16, Type 0, BuildingBlock: KAKCAD_clean_linker_0, # of connection points: 3
#     Node 17, Type 0, BuildingBlock: KAKCAD_clean_linker_0, # of connection points: 3
#     Node 18, Type 1, BuildingBlock: NUHQIS_clean_sbu_0, # of connection points: 6
#     Node 19, Type 1, BuildingBlock: NUHQIS_clean_sbu_0, # of connection points: 6
#     Node 20, Type 1, BuildingBlock: NUHQIS_clean_sbu_0, # of connection points: 6
#     Node 21, Type 1, BuildingBlock: NUHQIS_clean_sbu_0, # of connection points: 6
#     Node 22, Type 1, BuildingBlock: NUHQIS_clean_sbu_0, # of connection points: 6
#     Node 23, Type 1, BuildingBlock: NUHQIS_clean_sbu_0, # of connection points: 6
#     Node 24, Type 1, BuildingBlock: NUHQIS_clean_sbu_0, # of connection points: 6
#     Node 25, Type 1, BuildingBlock: NUHQIS_clean_sbu_0, # of connection points: 6
#     Node 26, Type 1, BuildingBlock: NUHQIS_clean_sbu_0, # of connection points: 6
#     Edge 27, Type (0, 1), BuildingBlock: KIFKEQ_clean_linker_1, # of connection points: 2
#     Edge 28, Type (0, 1), BuildingBlock: KIFKEQ_clean_linker_1, # of connection points: 2
#     Edge 29, Type (0, 1), BuildingBlock: KIFKEQ_clean_linker_1, # of connection points: 2
#     Edge 30, Type (0, 1), BuildingBlock: KIFKEQ_clean_linker_1, # of connection points: 2
#     Edge 31, Type (0, 1), BuildingBlock: KIFKEQ_clean_linker_1, # of connection points: 2
#     Edge 32, Type (0, 1), BuildingBlock: KIFKEQ_clean_linker_1, # of connection points: 2
#     Edge 33, Type (0, 1), BuildingBlock: KIFKEQ_clean_linker_1, # of connection points: 2
#     Edge 34, Type (0, 1), BuildingBlock: KIFKEQ_clean_linker_1, # of connection points: 2
#     Edge 35, Type (0, 1), BuildingBlock: KIFKEQ_clean_linker_1, # of connection points: 2
#     Edge 36, Type (0, 1), BuildingBlock: KIFKEQ_clean_linker_1, # of connection points: 2
#     Edge 37, Type (0, 1), BuildingBlock: KIFKEQ_clean_linker_1, # of connection points: 2
#     Edge 38, Type (0, 1), BuildingBlock: KIFKEQ_clean_linker_1, # of connection points: 2
#     Edge 39, Type (0, 1), BuildingBlock: KIFKEQ_clean_linker_1, # of connection points: 2
#     Edge 40, Type (0, 1), BuildingBlock: KIFKEQ_clean_linker_1, # of connection points: 2
#     Edge 41, Type (0, 1), BuildingBlock: KIFKEQ_clean_linker_1, # of connection points: 2
#     Edge 42, Type (0, 1), BuildingBlock: KIFKEQ_clean_linker_1, # of connection points: 2
#     Edge 43, Type (0, 1), BuildingBlock: KIFKEQ_clean_linker_1, # of connection points: 2
#     Edge 44, Type (0, 1), BuildingBlock: KIFKEQ_clean_linker_1, # of connection points: 2
#     Edge 45, Type (0, 1), BuildingBlock: KIFKEQ_clean_linker_1, # of connection points: 2
#     Edge 46, Type (0, 1), BuildingBlock: KIFKEQ_clean_linker_1, # of connection points: 2
#     Edge 47, Type (0, 1), BuildingBlock: KIFKEQ_clean_linker_1, # of connection points: 2
#     Edge 48, Type (0, 1), BuildingBlock: KIFKEQ_clean_linker_1, # of connection points: 2
#     Edge 49, Type (0, 1), BuildingBlock: KIFKEQ_clean_linker_1, # of connection points: 2
#     Edge 50, Type (0, 1), BuildingBlock: KIFKEQ_clean_linker_1, # of connection points: 2
#     Edge 51, Type (0, 1), BuildingBlock: KIFKEQ_clean_linker_1, # of connection points: 2
#     Edge 52, Type (0, 1), BuildingBlock: KIFKEQ_clean_linker_1, # of connection points: 2
#     Edge 53, Type (0, 1), BuildingBlock: KIFKEQ_clean_linker_1, # of connection points: 2
#     Edge 54, Type (0, 1), BuildingBlock: KIFKEQ_clean_linker_1, # of connection points: 2
#     Edge 55, Type (0, 1), BuildingBlock: KIFKEQ_clean_linker_1, # of connection points: 2
#     Edge 56, Type (0, 1), BuildingBlock: KIFKEQ_clean_linker_1, # of connection points: 2
#     Edge 57, Type (0, 1), BuildingBlock: KIFKEQ_clean_linker_1, # of connection points: 2
#     Edge 58, Type (0, 1), BuildingBlock: KIFKEQ_clean_linker_1, # of connection points: 2
#     Edge 59, Type (0, 1), BuildingBlock: KIFKEQ_clean_linker_1, # of connection points: 2
#     Edge 60, Type (0, 1), BuildingBlock: KIFKEQ_clean_linker_1, # of connection points: 2
#     Edge 61, Type (0, 1), BuildingBlock: KIFKEQ_clean_linker_1, # of connection points: 2
#     Edge 62, Type (0, 1), BuildingBlock: KIFKEQ_clean_linker_1, # of connection points: 2
#     Edge 63, Type (0, 1), BuildingBlock: KIFKEQ_clean_linker_1, # of connection points: 2
#     Edge 64, Type (0, 1), BuildingBlock: KIFKEQ_clean_linker_1, # of connection points: 2
#     Edge 65, Type (0, 1), BuildingBlock: KIFKEQ_clean_linker_1, # of connection points: 2
#     Edge 66, Type (0, 1), BuildingBlock: KIFKEQ_clean_linker_1, # of connection points: 2
#     Edge 67, Type (0, 1), BuildingBlock: KIFKEQ_clean_linker_1, # of connection points: 2
#     Edge 68, Type (0, 1), BuildingBlock: KIFKEQ_clean_linker_1, # of connection points: 2
#     Edge 69, Type (0, 1), BuildingBlock: KIFKEQ_clean_linker_1, # of connection points: 2
#     Edge 70, Type (0, 1), BuildingBlock: KIFKEQ_clean_linker_1, # of connection points: 2
#     Edge 71, Type (0, 1), BuildingBlock: KIFKEQ_clean_linker_1, # of connection points: 2
#     Edge 72, Type (0, 1), BuildingBlock: KIFKEQ_clean_linker_1, # of connection points: 2
#     Edge 73, Type (0, 1), BuildingBlock: KIFKEQ_clean_linker_1, # of connection points: 2
#     Edge 74, Type (0, 1), BuildingBlock: KIFKEQ_clean_linker_1, # of connection points: 2
#     Edge 75, Type (0, 1), BuildingBlock: KIFKEQ_clean_linker_1, # of connection points: 2
#     Edge 76, Type (0, 1), BuildingBlock: KIFKEQ_clean_linker_1, # of connection points: 2
#     Edge 77, Type (0, 1), BuildingBlock: KIFKEQ_clean_linker_1, # of connection points: 2
#     Edge 78, Type (0, 1), BuildingBlock: KIFKEQ_clean_linker_1, # of connection points: 2
#     Edge 79, Type (0, 1), BuildingBlock: KIFKEQ_clean_linker_1, # of connection points: 2
#     Edge 80, Type (0, 1), BuildingBlock: KIFKEQ_clean_linker_1, # of connection points: 2
# Relax obj value: 0.034
# Max RMSD: 0.133
# Mean RMSD: 0.074
data_MOF--net-eea--node1-NUHQIS_clean_sbu_0--node2-KAKCAD_clean_linker_0--edge1-KIFKEQ_clean_linker_1
_symmetry_space_group_name_H-M    P1
_symmetry_Int_Tables_number       1
_symmetry_cell_setting            triclinic
loop_
_symmetry_equiv_pos_as_xyz
'x, y, z'
_cell_length_a     63.367381
_cell_length_b     63.792443
_cell_length_c     91.689348
_cell_angle_alpha  93.512218
_cell_angle_beta   93.239555
_cell_angle_gamma 119.87861
loop_
_atom_site_label
_atom_site_type_symbol
_atom_site_fract_x
_atom_site_fract_y
_atom_site_fract_z
_atom_type_partial_charge
C0 C 0.30537 0.17679 0.47573 0.0
C1 C 0.32284 0.1708 0.48085 0.0
C2 C 0.29822 0.17402 0.46073 0.0
C3 C 0.30833 0.16513 0.45051 0.0
C4 C 0.32613 0.15957 0.45558 0.0
C5 C 0.33335 0.16242 0.47059 0.0
C6 C 0.29944 0.1606 0.43469 0.0
C7 C 0.29521 0.17743 0.42782 0.0
C8 C 0.28511 0.17239 0.41313 0.0
C9 C 0.27956 0.1504 0.40525 0.0
C10 C 0.28351 0.13328 0.41197 0.0
C11 C 0.29367 0.13863 0.42665 0.0
C12 C 0.27535 0.10913 0.40399 0.0
C13 C 0.25268 0.09662 0.39538 0.0
C14 C 0.28966 0.09803 0.40531 0.0
C15 C 0.2813 0.07479 0.39832 0.0
C16 C 0.25846 0.06216 0.38989 0.0
C17 C 0.27851 0.1891 0.40628 0.0
C18 C 0.26688 0.19933 0.41417 0.0
C19 C 0.28223 0.1936 0.39156 0.0
C20 C 0.2738 0.20741 0.38474 0.0
C21 C 0.26154 0.21704 0.39252 0.0
C22 C 0.2585 0.21316 0.40736 0.0
C23 C 0.24438 0.07345 0.38838 0.0
H24 H 0.29664 0.18293 0.48334 0.0
H25 H 0.28419 0.17809 0.45716 0.0
H26 H 0.33443 0.15295 0.44793 0.0
H27 H 0.34715 0.15804 0.47415 0.0
H28 H 0.2997 0.19445 0.43395 0.0
H29 H 0.29591 0.12514 0.43208 0.0
H30 H 0.27141 0.14623 0.39399 0.0
H31 H 0.24105 0.1045 0.3943 0.0
H32 H 0.30728 0.10729 0.41178 0.0
H33 H 0.29249 0.06649 0.39981 0.0
H34 H 0.26336 0.19586 0.42545 0.0
H35 H 0.29144 0.18623 0.38526 0.0
H36 H 0.22684 0.06434 0.38181 0.0
H37 H 0.24883 0.22005 0.41359 0.0
H38 H 0.27672 0.21041 0.37334 0.0
C39 C 0.89112 0.17914 0.47761 0.0
C40 C 0.88335 0.16216 0.48804 0.0
C41 C 0.89468 0.17279 0.46344 0.0
C42 C 0.89036 0.14926 0.4594 0.0
C43 C 0.88304 0.13247 0.46992 0.0
C44 C 0.87957 0.13882 0.48405 0.0
C45 C 0.89254 0.14176 0.44414 0.0
C46 C 0.91254 0.15692 0.43661 0.0
C47 C 0.91473 0.14934 0.4223 0.0
C48 C 0.89648 0.12646 0.41555 0.0
C49 C 0.87635 0.11114 0.42289 0.0
C50 C 0.87451 0.11902 0.43714 0.0
C51 C 0.85743 0.08676 0.41579 0.0
C52 C 0.84907 0.08343 0.40084 0.0
C53 C 0.84772 0.06656 0.42394 0.0
C54 C 0.83009 0.04359 0.41729 0.0
C55 C 0.82181 0.04021 0.40232 0.0
C56 C 0.93613 0.16505 0.41438 0.0
C57 C 0.94536 0.19024 0.41501 0.0
C58 C 0.94718 0.15483 0.40585 0.0
C59 C 0.96671 0.16936 0.39798 0.0
C60 C 0.9758 0.1945 0.39852 0.0
C61 C 0.965 0.20481 0.40719 0.0
C62 C 0.83148 0.06042 0.39417 0.0
H63 H 0.89441 0.19735 0.48039 0.0
H64 H 0.90022 0.18608 0.45555 0.0
H65 H 0.87985 0.11428 0.4672 0.0
H66 H 0.87335 0.12521 0.49174 0.0
H67 H 0.92676 0.17426 0.44206 0.0
H68 H 0.85871 0.10757 0.44274 0.0
H69 H 0.898 0.12047 0.40454 0.0
H70 H 0.85598 0.09865 0.39429 0.0
H71 H 0.85395 0.06842 0.43544 0.0
H72 H 0.82282 0.02849 0.42394 0.0
H73 H 0.93709 0.19866 0.42132 0.0
H74 H 0.94087 0.13557 0.40534 0.0
H75 H 0.82571 0.05843 0.38258 0.0
H76 H 0.97142 0.22409 0.4077 0.0
H77 H 0.97491 0.16094 0.39161 0.0
C78 C 0.89864 0.74377 0.48632 0.0
C79 C 0.87511 0.725 0.48851 0.0
C80 C 0.90357 0.75298 0.47264 0.0
C81 C 0.88503 0.74382 0.46089 0.0
C82 C 0.86158 0.72493 0.46307 0.0
C83 C 0.8567 0.71562 0.47668 0.0
C84 C 0.8898 0.7542 0.4465 0.0
C85 C 0.91118 0.75925 0.43992 0.0
C86 C 0.91535 0.76855 0.42616 0.0
C87 C 0.89785 0.773 0.4191 0.0
C88 C 0.87646 0.76829 0.42552 0.0
C89 C 0.87269 0.75893 0.43923 0.0
C90 C 0.85804 0.77309 0.41791 0.0
C91 C 0.86549 0.79358 0.4101 0.0
C92 C 0.83282 0.75719 0.41837 0.0
C93 C 0.81556 0.76171 0.41128 0.0
C94 C 0.82304 0.78212 0.40343 0.0
C95 C 0.93782 0.77357 0.41904 0.0
C96 C 0.96078 0.78427 0.42732 0.0
C97 C 0.93657 0.76819 0.40379 0.0
C98 C 0.95769 0.77375 0.39696 0.0
C99 C 0.98071 0.78476 0.40519 0.0
C100 C 0.98193 0.78979 0.42048 0.0
C101 C 0.84821 0.79797 0.4029 0.0
H102 H 0.91329 0.75126 0.49515 0.0
H103 H 0.92179 0.76762 0.47136 0.0
H104 H 0.84694 0.71728 0.45422 0.0
H105 H 0.83833 0.70133 0.478 0.0
H106 H 0.92422 0.75523 0.44533 0.0
H107 H 0.8566 0.75581 0.44447 0.0
H108 H 0.90089 0.78016 0.40853 0.0
H109 H 0.88471 0.80649 0.40971 0.0
H110 H 0.82634 0.74101 0.42404 0.0
H111 H 0.7963 0.74898 0.41173 0.0
H112 H 0.96249 0.78882 0.43906 0.0
H113 H 0.9192 0.75962 0.39707 0.0
H114 H 0.85458 0.81404 0.39712 0.0
H115 H 0.99926 0.79796 0.42722 0.0
H116 H 0.95598 0.76981 0.38516 0.0
C117 C 0.13245 0.24893 0.5245 0.0
C118 C 0.12765 0.26753 0.5213 0.0
C119 C 0.12862 0.23991 0.53824 0.0
C120 C 0.11981 0.24918 0.54914 0.0
C121 C 0.11456 0.26746 0.54585 0.0
C122 C 0.11848 0.27655 0.53212 0.0
C123 C 0.11693 0.24045 0.56404 0.0
C124 C 0.13488 0.23657 0.571 0.0
C125 C 0.13296 0.22929 0.58524 0.0
C126 C 0.11281 0.22592 0.5926 0.0
C127 C 0.09413 0.22893 0.58576 0.0
C128 C 0.0965 0.2363 0.57145 0.0
C129 C 0.07216 0.22409 0.59354 0.0
C130 C 0.06296 0.20608 0.60334 0.0
C131 C 0.06017 0.23739 0.59133 0.0
C132 C 0.03966 0.23276 0.59862 0.0
C133 C 0.03071 0.21501 0.6086 0.0
C134 C 0.1518 0.22476 0.59238 0.0
C135 C 0.15957 0.21046 0.58472 0.0
C136 C 0.16166 0.23414 0.60698 0.0
C137 C 0.17881 0.2292 0.61381 0.0
C138 C 0.18623 0.2145 0.60624 0.0
C139 C 0.17647 0.20525 0.5916 0.0
C140 C 0.04282 0.20184 0.61087 0.0
H141 H 0.13971 0.24168 0.5165 0.0
H142 H 0.13262 0.22565 0.54033 0.0
H143 H 0.10794 0.27516 0.554 0.0
H144 H 0.1143 0.29067 0.52999 0.0
H145 H 0.15079 0.23988 0.5655 0.0
H146 H 0.08216 0.23826 0.56585 0.0
H147 H 0.11167 0.2207 0.60367 0.0
H148 H 0.07116 0.19499 0.60519 0.0
H149 H 0.06672 0.25162 0.58406 0.0
H150 H 0.03074 0.24306 0.59628 0.0
H151 H 0.15217 0.20285 0.57349 0.0
H152 H 0.15614 0.24535 0.61313 0.0
H153 H 0.03696 0.1883 0.61859 0.0
H154 H 0.18197 0.19404 0.58545 0.0
H155 H 0.18589 0.23646 0.62512 0.0
C156 C 0.68243 0.81066 0.54139 0.0
C157 C 0.69206 0.82837 0.53147 0.0
C158 C 0.68996 0.817 0.55645 0.0
C159 C 0.70701 0.8412 0.56182 0.0
C160 C 0.71632 0.85886 0.55187 0.0
C161 C 0.70892 0.85254 0.53691 0.0
C162 C 0.71616 0.84825 0.57761 0.0
C163 C 0.72358 0.83439 0.58542 0.0
C164 C 0.73597 0.84319 0.59956 0.0
C165 C 0.74074 0.86588 0.60593 0.0
C166 C 0.73282 0.87969 0.59845 0.0
C167 C 0.72004 0.87037 0.58442 0.0
C168 C 0.7395 0.90453 0.60477 0.0
C169 C 0.74093 0.91008 0.62001 0.0
C170 C 0.74553 0.92322 0.59561 0.0
C171 C 0.75296 0.9468 0.6015 0.0
C172 C 0.75518 0.95255 0.61677 0.0
C173 C 0.74563 0.82958 0.60723 0.0
C174 C 0.73015 0.8051 0.60933 0.0
C175 C 0.77057 0.841 0.61229 0.0
C176 C 0.77996 0.82804 0.61917 0.0
C177 C 0.76449 0.80358 0.62131 0.0
C178 C 0.73947 0.79225 0.61645 0.0
C179 C 0.74888 0.93382 0.62594 0.0
H180 H 0.66944 0.79188 0.53748 0.0
H181 H 0.68246 0.80303 0.56388 0.0
H182 H 0.72978 0.87758 0.55561 0.0
H183 H 0.71638 0.86666 0.52957 0.0
H184 H 0.72111 0.8175 0.58019 0.0
H185 H 0.71352 0.88062 0.57855 0.0
H186 H 0.75122 0.87296 0.61659 0.0
H187 H 0.7361 0.89613 0.62741 0.0
H188 H 0.74511 0.91988 0.58385 0.0
H189 H 0.7571 0.96055 0.59403 0.0
H190 H 0.71085 0.79599 0.60551 0.0
H191 H 0.78287 0.85983 0.61069 0.0
H192 H 0.75058 0.93752 0.63776 0.0
H193 H 0.72726 0.77333 0.6179 0.0
H194 H 0.7993 0.83712 0.62286 0.0
C195 C 0.10377 0.82292 0.52772 0.0
C196 C 0.12626 0.82596 0.52394 0.0
C197 C 0.10077 0.82783 0.5423 0.0
C198 C 0.12032 0.83622 0.55333 0.0
C199 C 0.14259 0.83868 0.5496 0.0
C200 C 0.14549 0.83347 0.53508 0.0
C201 C 0.11805 0.84391 0.56848 0.0
C202 C 0.09759 0.82914 0.57581 0.0
C203 C 0.09525 0.83689 0.59002 0.0
C204 C 0.11335 0.85986 0.5967 0.0
C205 C 0.13371 0.87491 0.58946 0.0
C206 C 0.1361 0.86668 0.57545 0.0
C207 C 0.15197 0.89963 0.5963 0.0
C208 C 0.14425 0.91496 0.60266 0.0
C209 C 0.17715 0.90817 0.59639 0.0
C210 C 0.19427 0.93156 0.6028 0.0
C211 C 0.18652 0.94692 0.60907 0.0
C212 C 0.07368 0.82149 0.59784 0.0
C213 C 0.04998 0.80971 0.5905 0.0
C214 C 0.07657 0.81932 0.6129 0.0
C215 C 0.0562 0.80614 0.62052 0.0
C216 C 0.03246 0.7949 0.61326 0.0
C217 C 0.0296 0.7966 0.59813 0.0
C218 C 0.16134 0.93839 0.60892 0.0
H219 H 0.08861 0.81703 0.51937 0.0
H220 H 0.08346 0.82593 0.54486 0.0
H221 H 0.15791 0.84499 0.55791 0.0
H222 H 0.16309 0.83618 0.53247 0.0
H223 H 0.08374 0.81146 0.57053 0.0
H224 H 0.15154 0.87846 0.56968 0.0
H225 H 0.11145 0.86621 0.60751 0.0
H226 H 0.12496 0.90894 0.60261 0.0
H227 H 0.18359 0.89668 0.59162 0.0
H228 H 0.21357 0.93773 0.60268 0.0
H229 H 0.04713 0.81116 0.57893 0.0
H230 H 0.09463 0.82798 0.61883 0.0
H231 H 0.15485 0.94976 0.6138 0.0
H232 H 0.01155 0.78785 0.59217 0.0
H233 H 0.05904 0.80528 0.63218 0.0
C234 C 0.97239 0.51353 0.81058 0.0
C235 C 0.98881 0.5066 0.81628 0.0
C236 C 0.96453 0.509 0.7956 0.0
C237 C 0.97306 0.49759 0.78591 0.0
C238 C 0.99023 0.49153 0.79152 0.0
C239 C 0.99794 0.4959 0.80653 0.0
C240 C 0.96287 0.49064 0.77022 0.0
C241 C 0.95723 0.50583 0.76244 0.0
C242 C 0.94554 0.49829 0.74806 0.0
C243 C 0.93992 0.47549 0.74137 0.0
C244 C 0.94548 0.46013 0.74894 0.0
C245 C 0.95708 0.46787 0.7633 0.0
C246 C 0.93761 0.43529 0.74225 0.0
C247 C 0.91373 0.42046 0.73539 0.0
C248 C 0.95357 0.42601 0.74305 0.0
C249 C 0.94578 0.4023 0.73709 0.0
C250 C 0.9218 0.3874 0.73037 0.0
C251 C 0.93735 0.51322 0.74043 0.0
C252 C 0.92552 0.5236 0.74795 0.0
C253 C 0.93982 0.51589 0.72541 0.0
C254 C 0.93013 0.52819 0.71798 0.0
C255 C 0.91763 0.5379 0.72543 0.0
C256 C 0.91575 0.53578 0.74053 0.0
C257 C 0.90589 0.39674 0.72954 0.0
H258 H 0.96529 0.52218 0.81773 0.0
H259 H 0.95112 0.5137 0.79171 0.0
H260 H 0.99742 0.48302 0.78434 0.0
H261 H 0.01045 0.49013 0.81053 0.0
H262 H 0.96178 0.52352 0.7676 0.0
H263 H 0.96036 0.45554 0.76936 0.0
H264 H 0.93049 0.46934 0.73038 0.0
H265 H 0.90095 0.42705 0.73477 0.0
H266 H 0.9721 0.43711 0.74824 0.0
H267 H 0.95837 0.3955 0.73795 0.0
H268 H 0.9231 0.52164 0.75949 0.0
H269 H 0.94902 0.50822 0.71936 0.0
H270 H 0.88739 0.38572 0.7243 0.0
H271 H 0.90653 0.54339 0.7466 0.0
H272 H 0.93181 0.5295 0.70634 0.0
C273 C 0.55602 0.50634 0.81023 0.0
C274 C 0.54942 0.48871 0.82023 0.0
C275 C 0.56062 0.50162 0.79597 0.0
C276 C 0.5586 0.47918 0.79149 0.0
C277 C 0.55322 0.46213 0.80172 0.0
C278 C 0.54875 0.46685 0.81592 0.0
C279 C 0.56004 0.47253 0.77594 0.0
C280 C 0.57932 0.48824 0.76811 0.0
C281 C 0.58059 0.48124 0.75344 0.0
C282 C 0.56191 0.4586 0.74661 0.0
C283 C 0.54266 0.44278 0.75432 0.0
C284 C 0.54186 0.4499 0.76893 0.0
C285 C 0.5237 0.41846 0.74731 0.0
C286 C 0.51246 0.41566 0.73311 0.0
C287 C 0.51678 0.39781 0.75484 0.0
C288 C 0.4991 0.37481 0.74829 0.0
C289 C 0.48783 0.37197 0.7341 0.0
C290 C 0.60172 0.49699 0.74533 0.0
C291 C 0.61181 0.52234 0.74658 0.0
C292 C 0.61187 0.48661 0.73614 0.0
C293 C 0.63134 0.50111 0.72824 0.0
C294 C 0.64138 0.52645 0.7294 0.0
C295 C 0.63142 0.5369 0.73871 0.0
C296 C 0.49459 0.39263 0.72659 0.0
H297 H 0.55663 0.52334 0.8132 0.0
H298 H 0.56465 0.51505 0.78828 0.0
H299 H 0.552 0.44485 0.79864 0.0
H300 H 0.54436 0.45315 0.82346 0.0
H301 H 0.59371 0.50544 0.77362 0.0
H302 H 0.52674 0.43788 0.77484 0.0
H303 H 0.56251 0.45305 0.7353 0.0
H304 H 0.51735 0.4313 0.7271 0.0
H305 H 0.52529 0.39941 0.76575 0.0
H306 H 0.49411 0.35923 0.75437 0.0
H307 H 0.60436 0.53092 0.75349 0.0
H308 H 0.60486 0.46719 0.73509 0.0
H309 H 0.48632 0.39094 0.71559 0.0
H310 H 0.6389 0.55639 0.74004 0.0
H311 H 0.63832 0.49236 0.72107 0.0
C312 C 0.56654 0.07601 0.81958 0.0
C313 C 0.5427 0.05829 0.8221 0.0
C314 C 0.57141 0.08517 0.80588 0.0
C315 C 0.55256 0.0768 0.79435 0.0
C316 C 0.52889 0.05862 0.79679 0.0
C317 C 0.52403 0.04954 0.81046 0.0
C318 C 0.55718 0.08735 0.77997 0.0
C319 C 0.57864 0.09282 0.77331 0.0
C320 C 0.58247 0.10217 0.75956 0.0
C321 C 0.56477 0.10642 0.75262 0.0
C322 C 0.54343 0.10139 0.75914 0.0
C323 C 0.53983 0.09188 0.77279 0.0
C324 C 0.52487 0.10605 0.75168 0.0
C325 C 0.53211 0.12744 0.74486 0.0
C326 C 0.49975 0.08909 0.75129 0.0
C327 C 0.48232 0.0934 0.74423 0.0
C328 C 0.48954 0.11481 0.73741 0.0
C329 C 0.60475 0.1074 0.75222 0.0
C330 C 0.62812 0.12025 0.76002 0.0
C331 C 0.60279 0.10026 0.73716 0.0
C332 C 0.62368 0.10616 0.73 0.0
C333 C 0.64717 0.11954 0.73767 0.0
C334 C 0.64908 0.12634 0.75282 0.0
C335 C 0.51468 0.13178 0.73784 0.0
H336 H 0.58133 0.0833 0.82833 0.0
H337 H 0.5898 0.09929 0.80445 0.0
H338 H 0.51402 0.05132 0.7881 0.0
H339 H 0.50558 0.03554 0.81188 0.0
H340 H 0.59198 0.08909 0.77858 0.0
H341 H 0.52366 0.08852 0.77801 0.0
H342 H 0.56762 0.11363 0.74205 0.0
H343 H 0.55128 0.14105 0.74515 0.0
H344 H 0.49356 0.07227 0.75625 0.0
H345 H 0.46317 0.07973 0.74393 0.0
H346 H 0.63025 0.12619 0.7716 0.0
H347 H 0.58502 0.08999 0.73089 0.0
H348 H 0.52092 0.14865 0.73293 0.0
H349 H 0.66682 0.13688 0.75909 0.0
H350 H 0.62133 0.10005 0.71844 0.0
C351 C 0.80342 0.58474 0.85964 0.0
C352 C 0.79865 0.60332 0.85636 0.0
C353 C 0.79879 0.57527 0.87321 0.0
C354 C 0.78938 0.58419 0.88393 0.0
C355 C 0.78421 0.6025 0.88056 0.0
C356 C 0.78875 0.61191 0.86693 0.0
C357 C 0.7855 0.5747 0.89863 0.0
C358 C 0.80252 0.56945 0.90555 0.0
C359 C 0.79912 0.56027 0.91929 0.0
C360 C 0.77829 0.55609 0.92613 0.0
C361 C 0.76105 0.56117 0.91946 0.0
C362 C 0.76488 0.57069 0.90579 0.0
C363 C 0.73886 0.55603 0.92676 0.0
C364 C 0.72413 0.53309 0.9316 0.0
C365 C 0.73256 0.57409 0.92925 0.0
C366 C 0.71216 0.5694 0.93668 0.0
C367 C 0.69739 0.54641 0.94147 0.0
C368 C 0.81737 0.55506 0.92651 0.0
C369 C 0.82609 0.54185 0.91861 0.0
C370 C 0.82617 0.56326 0.94137 0.0
C371 C 0.84341 0.55844 0.94816 0.0
C372 C 0.85196 0.54502 0.9403 0.0
C373 C 0.84308 0.53672 0.92546 0.0
C374 C 0.70348 0.52826 0.93875 0.0
H375 H 0.81059 0.57736 0.85166 0.0
H376 H 0.80249 0.56081 0.87526 0.0
H377 H 0.7772 0.61 0.88858 0.0
H378 H 0.78507 0.62637 0.86481 0.0
H379 H 0.81883 0.57309 0.9004 0.0
H380 H 0.75137 0.57422 0.90053 0.0
H381 H 0.77542 0.54878 0.93667 0.0
H382 H 0.72853 0.51882 0.92976 0.0
H383 H 0.74369 0.59196 0.92569 0.0
H384 H 0.70777 0.58367 0.93856 0.0
H385 H 0.81952 0.53519 0.90717 0.0
H386 H 0.81989 0.57363 0.9477 0.0
H387 H 0.69248 0.51042 0.94238 0.0
H388 H 0.84945 0.52647 0.91911 0.0
H389 H 0.8498 0.5649 0.95964 0.0
C390 C 0.34976 0.15561 0.87435 0.0
C391 C 0.36002 0.17485 0.86547 0.0
C392 C 0.35699 0.15962 0.88944 0.0
C393 C 0.37456 0.18295 0.89593 0.0
C394 C 0.3851 0.20204 0.88699 0.0
C395 C 0.37793 0.19804 0.87195 0.0
C396 C 0.38189 0.18759 0.91198 0.0
C397 C 0.38711 0.17178 0.91934 0.0
C398 C 0.39547 0.17695 0.93441 0.0
C399 C 0.39824 0.19813 0.94204 0.0
C400 C 0.39379 0.21444 0.93474 0.0
C401 C 0.38509 0.20874 0.91981 0.0
C402 C 0.40097 0.23863 0.94227 0.0
C403 C 0.39657 0.24131 0.95695 0.0
C404 C 0.4141 0.25953 0.93505 0.0
C405 C 0.42326 0.28256 0.94242 0.0
C406 C 0.41962 0.28531 0.95722 0.0
C407 C 0.40312 0.16137 0.9419 0.0
C408 C 0.39087 0.13608 0.93812 0.0
C409 C 0.42332 0.17184 0.95264 0.0
C410 C 0.431 0.1575 0.95944 0.0
C411 C 0.41918 0.13231 0.95541 0.0
C412 C 0.39893 0.12177 0.94469 0.0
C413 C 0.40576 0.26447 0.96435 0.0
H414 H 0.33578 0.13756 0.86969 0.0
H415 H 0.34846 0.14459 0.89607 0.0
H416 H 0.3991 0.22011 0.89162 0.0
H417 H 0.38658 0.21312 0.86537 0.0
H418 H 0.38582 0.15611 0.91313 0.0
H419 H 0.38115 0.22106 0.91419 0.0
H420 H 0.40486 0.20251 0.95359 0.0
H421 H 0.38635 0.22552 0.96276 0.0
H422 H 0.4181 0.25815 0.92382 0.0
H423 H 0.4335 0.29829 0.93656 0.0
H424 H 0.37507 0.12728 0.93003 0.0
H425 H 0.43364 0.19128 0.95568 0.0
H426 H 0.40268 0.26607 0.97576 0.0
H427 H 0.3895 0.10251 0.94112 0.0
H428 H 0.44634 0.1663 0.96784 0.0
C429 C 0.7728 0.16249 0.86021 0.0
C430 C 0.79644 0.168 0.85716 0.0
C431 C 0.76825 0.167 0.87451 0.0
C432 C 0.78728 0.17715 0.88598 0.0
C433 C 0.81059 0.18157 0.88303 0.0
C434 C 0.81511 0.17704 0.86881 0.0
C435 C 0.78355 0.18477 0.90078 0.0
C436 C 0.76307 0.16948 0.90791 0.0
C437 C 0.75998 0.17696 0.92202 0.0
C438 C 0.77775 0.2 0.92888 0.0
C439 C 0.79823 0.21559 0.92186 0.0
C440 C 0.80078 0.20782 0.90776 0.0
C441 C 0.81692 0.24 0.92919 0.0
C442 C 0.81007 0.25374 0.93829 0.0
C443 C 0.84186 0.24981 0.92712 0.0
C444 C 0.85935 0.2728 0.93382 0.0
C445 C 0.85237 0.28618 0.94298 0.0
C446 C 0.73811 0.16112 0.92959 0.0
C447 C 0.71488 0.1472 0.92168 0.0
C448 C 0.74011 0.16062 0.94493 0.0
C449 C 0.71937 0.14729 0.95221 0.0
C450 C 0.69619 0.13377 0.9443 0.0
C451 C 0.69417 0.13355 0.92895 0.0
C452 C 0.82767 0.27648 0.94525 0.0
H453 H 0.75805 0.1556 0.85146 0.0
H454 H 0.75014 0.16352 0.87646 0.0
H455 H 0.8255 0.18895 0.89171 0.0
H456 H 0.83337 0.18091 0.8669 0.0
H457 H 0.7499 0.15158 0.90259 0.0
H458 H 0.81598 0.21996 0.90198 0.0
H459 H 0.77556 0.20588 0.93972 0.0
H460 H 0.79107 0.24712 0.93993 0.0
H461 H 0.84798 0.23965 0.92046 0.0
H462 H 0.87841 0.27999 0.93205 0.0
H463 H 0.71254 0.14737 0.9099 0.0
H464 H 0.75773 0.17058 0.95138 0.0
H465 H 0.82198 0.28669 0.95224 0.0
H466 H 0.67646 0.12335 0.92261 0.0
H467 H 0.72145 0.14743 0.96403 0.0
C468 C 0.6261 0.83276 0.14343 0.0
C469 C 0.64553 0.82934 0.14828 0.0
C470 C 0.61872 0.83001 0.12846 0.0
C471 C 0.63057 0.82375 0.11801 0.0
C472 C 0.65035 0.82089 0.12283 0.0
C473 C 0.65776 0.82368 0.1378 0.0
C474 C 0.62155 0.81899 0.1022 0.0
C475 C 0.61452 0.83417 0.09557 0.0
C476 C 0.60473 0.8288 0.0808 0.0
C477 C 0.6024 0.80832 0.07263 0.0
C478 C 0.60895 0.79278 0.07911 0.0
C479 C 0.61871 0.79834 0.09388 0.0
C480 C 0.60416 0.77 0.07067 0.0
C481 C 0.58222 0.75594 0.06152 0.0
C482 C 0.62102 0.76183 0.07193 0.0
C483 C 0.61589 0.7399 0.0643 0.0
C484 C 0.59385 0.72582 0.05524 0.0
C485 C 0.59604 0.8439 0.0739 0.0
C486 C 0.5737 0.83273 0.06496 0.0
C487 C 0.61004 0.86938 0.07595 0.0
C488 C 0.60201 0.8834 0.06898 0.0
C489 C 0.57982 0.87218 0.05987 0.0
C490 C 0.5657 0.84671 0.05801 0.0
C491 C 0.57716 0.73415 0.05386 0.0
H492 H 0.61609 0.83682 0.15123 0.0
H493 H 0.60319 0.83199 0.12509 0.0
H494 H 0.66004 0.81639 0.11501 0.0
H495 H 0.67307 0.82136 0.14116 0.0
H496 H 0.61628 0.84992 0.10197 0.0
H497 H 0.62305 0.78597 0.0991 0.0
H498 H 0.59539 0.80444 0.06113 0.0
H499 H 0.56861 0.76146 0.06054 0.0
H500 H 0.6382 0.7724 0.07878 0.0
H501 H 0.62915 0.73396 0.06547 0.0
H502 H 0.56228 0.81312 0.06341 0.0
H503 H 0.62743 0.87846 0.08267 0.0
H504 H 0.55982 0.72345 0.04719 0.0
H505 H 0.5483 0.83756 0.05129 0.0
H506 H 0.61339 0.90301 0.07051 0.0
C507 C 0.22423 0.84354 0.1454 0.0
C508 C 0.21708 0.8254 0.15508 0.0
C509 C 0.22861 0.83917 0.13103 0.0
C510 C 0.22578 0.81654 0.12609 0.0
C511 C 0.21987 0.79892 0.13599 0.0
C512 C 0.21566 0.80332 0.15032 0.0
C513 C 0.22675 0.81032 0.11039 0.0
C514 C 0.24638 0.82572 0.1027 0.0
C515 C 0.24701 0.81936 0.08777 0.0
C516 C 0.22733 0.79754 0.08064 0.0
C517 C 0.20788 0.78184 0.08829 0.0
C518 C 0.20769 0.78847 0.1031 0.0
C519 C 0.18818 0.75804 0.08101 0.0
C520 C 0.17761 0.75603 0.06673 0.0
C521 C 0.18011 0.73701 0.08832 0.0
C522 C 0.16194 0.71446 0.08149 0.0
C523 C 0.15137 0.71237 0.0672 0.0
C524 C 0.26841 0.83488 0.07969 0.0
C525 C 0.28133 0.86035 0.08262 0.0
C526 C 0.27614 0.82422 0.06891 0.0
C527 C 0.29582 0.83856 0.06111 0.0
C528 C 0.30888 0.86402 0.06409 0.0
C529 C 0.30141 0.87469 0.07503 0.0
C530 C 0.15936 0.73342 0.0599 0.0
H531 H 0.2254 0.86072 0.1487 0.0
H532 H 0.23304 0.85301 0.12358 0.0
H533 H 0.21797 0.78147 0.13253 0.0
H534 H 0.21084 0.7892 0.1576 0.0
H535 H 0.26146 0.84216 0.10852 0.0
H536 H 0.19239 0.77668 0.10896 0.0
H537 H 0.22726 0.79244 0.06915 0.0
H538 H 0.18328 0.77197 0.0609 0.0
H539 H 0.18821 0.73791 0.09923 0.0
H540 H 0.15657 0.69855 0.08731 0.0
H541 H 0.27587 0.86932 0.09071 0.0
H542 H 0.26715 0.80469 0.06651 0.0
H543 H 0.15138 0.73246 0.04894 0.0
H544 H 0.31117 0.89417 0.07789 0.0
H545 H 0.30061 0.82954 0.05265 0.0
C546 C 0.23246 0.40509 0.15232 0.0
C547 C 0.20865 0.38693 0.15454 0.0
C548 C 0.2375 0.41488 0.13882 0.0
C549 C 0.21881 0.40689 0.12725 0.0
C550 C 0.19513 0.38839 0.12938 0.0
C551 C 0.19013 0.37852 0.14283 0.0
C552 C 0.22364 0.41864 0.1133 0.0
C553 C 0.24486 0.42404 0.10641 0.0
C554 C 0.24984 0.43595 0.09347 0.0
C555 C 0.23311 0.44255 0.08765 0.0
C556 C 0.21149 0.43659 0.09411 0.0
C557 C 0.20699 0.42477 0.10694 0.0
C558 C 0.1933 0.44225 0.08724 0.0
C559 C 0.20077 0.46506 0.08218 0.0
C560 C 0.16828 0.42459 0.08543 0.0
C561 C 0.15118 0.42951 0.07855 0.0
C562 C 0.15864 0.45227 0.07344 0.0
C563 C 0.27212 0.44123 0.08586 0.0
C564 C 0.29394 0.44569 0.09375 0.0
C565 C 0.27183 0.44198 0.07053 0.0
C566 C 0.2927 0.4477 0.06341 0.0
C567 C 0.3145 0.45203 0.07124 0.0
C568 C 0.31465 0.45068 0.08654 0.0
C569 C 0.18362 0.47005 0.07542 0.0
H570 H 0.24723 0.4118 0.16104 0.0
H571 H 0.2559 0.4292 0.13758 0.0
H572 H 0.18035 0.38164 0.12066 0.0
H573 H 0.17155 0.36471 0.14417 0.0
H574 H 0.25708 0.41833 0.11098 0.0
H575 H 0.19071 0.42088 0.1122 0.0
H576 H 0.23666 0.45215 0.07794 0.0
H577 H 0.21989 0.47909 0.08352 0.0
H578 H 0.16198 0.40678 0.0891 0.0
H579 H 0.13205 0.4155 0.07731 0.0
H580 H 0.29528 0.44564 0.10556 0.0
H581 H 0.2554 0.43804 0.06384 0.0
H582 H 0.18997 0.48771 0.07151 0.0
H583 H 0.3307 0.45333 0.09308 0.0
H584 H 0.2916 0.44897 0.05171 0.0
C585 C 0.47086 0.92037 0.19171 0.0
C586 C 0.4673 0.93975 0.18851 0.0
C587 C 0.46575 0.9108 0.20523 0.0
C588 C 0.45688 0.92028 0.21597 0.0
C589 C 0.45289 0.93937 0.21271 0.0
C590 C 0.45806 0.94901 0.19917 0.0
C591 C 0.45225 0.91045 0.23055 0.0
C592 C 0.46885 0.90488 0.23768 0.0
C593 C 0.46463 0.89501 0.25124 0.0
C594 C 0.4433 0.89056 0.25762 0.0
C595 C 0.42662 0.89626 0.25082 0.0
C596 C 0.43131 0.90639 0.23734 0.0
C597 C 0.40429 0.89145 0.25791 0.0
C598 C 0.38949 0.86882 0.26308 0.0
C599 C 0.39813 0.90965 0.26006 0.0
C600 C 0.37791 0.90549 0.26753 0.0
C601 C 0.36311 0.88287 0.27285 0.0
C602 C 0.48254 0.88952 0.2588 0.0
C603 C 0.49414 0.87936 0.25077 0.0
C604 C 0.48821 0.89442 0.27413 0.0
C605 C 0.50494 0.88924 0.28125 0.0
C606 C 0.51655 0.87908 0.27323 0.0
C607 C 0.51093 0.87423 0.25789 0.0
C608 C 0.36908 0.86452 0.27035 0.0
H609 H 0.47743 0.91239 0.18369 0.0
H610 H 0.46858 0.89578 0.20724 0.0
H611 H 0.4463 0.94727 0.22077 0.0
H612 H 0.45534 0.96409 0.19718 0.0
H613 H 0.48546 0.90881 0.23281 0.0
H614 H 0.41824 0.91037 0.23194 0.0
H615 H 0.43965 0.88268 0.26797 0.0
H616 H 0.39364 0.85435 0.26142 0.0
H617 H 0.40937 0.92735 0.25632 0.0
H618 H 0.37426 0.92025 0.26941 0.0
H619 H 0.49006 0.87511 0.23898 0.0
H620 H 0.47988 0.90252 0.28066 0.0
H621 H 0.35791 0.84668 0.27391 0.0
H622 H 0.5197 0.86667 0.25132 0.0
H623 H 0.50855 0.89296 0.29308 0.0
C624 C 0.01319 0.48942 0.20987 0.0
C625 C 0.02125 0.50846 0.20082 0.0
C626 C 0.02192 0.4941 0.22476 0.0
C627 C 0.03891 0.5179 0.23087 0.0
C628 C 0.047 0.53686 0.22177 0.0
C629 C 0.03825 0.53221 0.20695 0.0
C630 C 0.0488 0.52316 0.24658 0.0
C631 C 0.0558 0.50797 0.25319 0.0
C632 C 0.06761 0.51447 0.26751 0.0
C633 C 0.07218 0.53616 0.27533 0.0
C634 C 0.06486 0.55131 0.26902 0.0
C635 C 0.05285 0.54444 0.25472 0.0
C636 C 0.07103 0.57498 0.27694 0.0
C637 C 0.06948 0.5773 0.29215 0.0
C638 C 0.07918 0.59568 0.2693 0.0
C639 C 0.08552 0.61811 0.27665 0.0
C640 C 0.08406 0.62046 0.29183 0.0
C641 C 0.07646 0.49932 0.27404 0.0
C642 C 0.06043 0.47448 0.2748 0.0
C643 C 0.10109 0.50969 0.27951 0.0
C644 C 0.10964 0.49542 0.28554 0.0
C645 C 0.09363 0.47051 0.28646 0.0
C646 C 0.06886 0.46026 0.28108 0.0
C647 C 0.07603 0.59987 0.29954 0.0
H648 H 0.99995 0.47095 0.20547 0.0
H649 H 0.01522 0.47913 0.23151 0.0
H650 H 0.06053 0.55531 0.22602 0.0
H651 H 0.04522 0.54719 0.20021 0.0
H652 H 0.05323 0.49172 0.24696 0.0
H653 H 0.0468 0.55584 0.24984 0.0
H654 H 0.08192 0.54144 0.28623 0.0
H655 H 0.06305 0.56165 0.29832 0.0
H656 H 0.08118 0.59471 0.25767 0.0
H657 H 0.09214 0.63377 0.27047 0.0
H658 H 0.04129 0.46617 0.27074 0.0
H659 H 0.11384 0.52879 0.27887 0.0
H660 H 0.07462 0.60119 0.31124 0.0
H661 H 0.05586 0.44128 0.28184 0.0
H662 H 0.12891 0.5039 0.28924 0.0
C663 C 0.43594 0.48847 0.1941 0.0
C664 C 0.45924 0.49342 0.19064 0.0
C665 C 0.43237 0.49448 0.20833 0.0
C666 C 0.45203 0.5056 0.21943 0.0
C667 C 0.47514 0.50991 0.21606 0.0
C668 C 0.47871 0.50396 0.20185 0.0
C669 C 0.44884 0.51372 0.23428 0.0
C670 C 0.42781 0.49925 0.24129 0.0
C671 C 0.42504 0.50718 0.25531 0.0
C672 C 0.44308 0.52991 0.26221 0.0
C673 C 0.4639 0.54469 0.25527 0.0
C674 C 0.46682 0.53643 0.24143 0.0
C675 C 0.48217 0.56918 0.26225 0.0
C676 C 0.47485 0.58587 0.26651 0.0
C677 C 0.50696 0.5761 0.26451 0.0
C678 C 0.52415 0.59928 0.27117 0.0
C679 C 0.51693 0.61618 0.27544 0.0
C680 C 0.40323 0.49197 0.26283 0.0
C681 C 0.3799 0.48592 0.2567 0.0
C682 C 0.4058 0.48431 0.2765 0.0
C683 C 0.38529 0.47063 0.2839 0.0
C684 C 0.36178 0.46478 0.27795 0.0
C685 C 0.35943 0.47271 0.26424 0.0
C686 C 0.49204 0.60919 0.27289 0.0
H687 H 0.42047 0.48011 0.18578 0.0
H688 H 0.41437 0.49105 0.21053 0.0
H689 H 0.49061 0.51815 0.22439 0.0
H690 H 0.49697 0.5083 0.19959 0.0
H691 H 0.41385 0.48162 0.23602 0.0
H692 H 0.48274 0.54816 0.23601 0.0
H693 H 0.44081 0.5362 0.27295 0.0
H694 H 0.45583 0.581 0.26467 0.0
H695 H 0.51296 0.56341 0.26134 0.0
H696 H 0.543 0.60375 0.27316 0.0
H697 H 0.37761 0.49195 0.24624 0.0
H698 H 0.4237 0.48877 0.28139 0.0
H699 H 0.48578 0.62178 0.27566 0.0
H700 H 0.34184 0.46914 0.25938 0.0
H701 H 0.38793 0.46447 0.29423 0.0
Tb702 Tb 0.49241 0.98626 0.98876 0.0
Eu703 Eu 0.51258 0.01879 0.02182 0.0
C704 C 0.52028 0.97424 0.01277 0.0
C705 C 0.46033 0.96996 0.01542 0.0
C706 C 0.48704 0.97481 0.94858 0.0
C707 C 0.48893 0.96826 0.92238 0.0
C708 C 0.48236 0.95905 0.93593 0.0
C709 C 0.49845 -8e-05 0.94752 0.0
C710 C 0.50498 0.00914 0.93399 0.0
C711 C 0.50029 0.99343 0.92123 0.0
C712 C 0.48058 0.96521 0.96291 0.0
O713 O 0.49039 0.01881 0.98634 0.0
O714 O 0.48891 0.03086 0.01026 0.0
O715 O 0.53852 0.04335 0.00664 0.0
O716 O 0.53076 0.01328 0.98823 0.0
C717 C 0.48517 0.03106 0.99607 0.0
O718 O 0.50603 0.03601 0.04098 0.0
O719 O 0.53931 0.03444 0.04122 0.0
O720 O 0.53103 0.99695 0.01841 0.0
O721 O 0.50088 0.96496 1.00316 0.0
O722 O 0.46049 0.97132 1.00116 0.0
O723 O 0.48009 0.9827 0.0246 0.0
C724 C 0.54389 0.03573 0.9945 0.0
O725 O 0.49863 0.9672 0.9716 0.0
O726 O 0.46707 0.97166 0.96996 0.0
C727 C 0.5205 0.02914 0.06331 0.0
C728 C 0.5094 0.00992 0.09068 0.0
C729 C 0.5214 0.0352 0.08983 0.0
C730 C 0.52688 0.0447 0.07627 0.0
C731 C 0.50865 0.00394 0.06406 0.0
C732 C 0.50319 0.99442 0.0776 0.0
C733 C 0.52522 0.0391 0.04898 0.0
H734 H 0.4848 0.95561 0.91277 0.0
H735 H 0.47363 0.93963 0.93654 0.0
H736 H 0.50242 0.01244 0.95718 0.0
H737 H 0.51401 0.02862 0.93358 0.0
H738 H 0.52672 0.04769 0.09968 0.0
H739 H 0.53597 0.0642 0.07591 0.0
H740 H 0.50338 0.99159 0.05414 0.0
H741 H 0.49365 0.97487 0.07777 0.0
Tb742 Tb 0.01975 0.50376 0.99378 0.0
Eu743 Eu 0.98659 0.49009 0.02194 0.0
C744 C 0.03292 0.54253 0.02033 0.0
C745 C 0.0351 0.48672 0.02209 0.0
C746 C 0.0391 0.51405 0.95593 0.0
C747 C 0.04222 0.53562 0.93445 0.0
C748 C 0.04722 0.53588 0.94951 0.0
C749 C 0.02619 0.4919 0.94693 0.0
C750 C 0.02132 0.49164 0.93184 0.0
C751 C 0.02916 0.51349 0.92543 0.0
C752 C 0.04437 0.51477 0.97193 0.0
O753 O 0.98656 0.47 0.98588 0.0
O754 O 0.97521 0.45522 0.00806 0.0
O755 O 0.96308 0.49156 1.00326 0.0
O756 O 0.99406 0.51687 0.99009 0.0
C757 C 0.97389 0.45203 0.9937 0.0
O758 O 0.96799 0.46496 0.038 0.0
O759 O 0.96659 0.49818 0.03787 0.0
O760 O 0.01023 0.53081 0.02358 0.0
O761 O 0.04138 0.53216 0.01148 0.0
O762 O 0.03247 0.4848 0.00765 0.0
O763 O 0.02242 0.49345 0.02997 0.0
C764 C 0.97114 0.50658 0.9931 0.0
O765 O 0.0414 0.53023 0.98025 0.0
O766 O 0.03601 0.494 0.97741 0.0
C767 C 0.96689 0.48313 0.06068 0.0
C768 C 0.97708 0.48814 0.09139 0.0
C769 C 0.95277 0.47636 0.08491 0.0
C770 C 0.94774 0.47385 0.06966 0.0
C771 C 0.99118 0.49522 0.06705 0.0
C772 C 0.99625 0.49771 0.08229 0.0
C773 C 0.96137 0.47906 0.04468 0.0
H774 H 0.04827 0.55278 0.92992 0.0
H775 H 0.05732 0.55321 0.95619 0.0
H776 H 0.01982 0.47472 0.95149 0.0
H777 H 0.01159 0.47428 0.92519 0.0
H778 H 0.93761 0.46855 0.09159 0.0
H779 H 0.92888 0.46433 0.06487 0.0
H780 H 0.00619 0.50246 0.06022 0.0
H781 H 0.01516 0.50717 0.08695 0.0
Tb782 Tb 0.51886 0.50387 0.02077 0.0
Eu783 Eu 0.49466 0.50897 0.98934 0.0
C784 C 0.49016 0.45973 0.99702 0.0
C785 C 0.54852 0.5141 0.99277 0.0
C786 C 0.52384 0.49422 0.05998 0.0
C787 C 0.52593 0.48345 0.08474 0.0
C788 C 0.53484 0.48745 0.07096 0.0
C789 C 0.50334 0.49625 0.06278 0.0
C790 C 0.49452 0.49241 0.07657 0.0
C791 C 0.50591 0.4863 0.08781 0.0
C792 C 0.53458 0.50041 0.04596 0.0
O793 O 0.53841 0.54158 0.01624 0.0
O794 O 0.50603 0.54227 0.0048 0.0
O795 O 0.46369 0.49142 0.00358 0.0
O796 O 0.48708 0.50677 0.02576 0.0
C797 C 0.52739 0.55352 0.01256 0.0
O798 O 0.49523 0.53182 0.97245 0.0
O799 O 0.46737 0.49369 0.97029 0.0
O800 O 0.49634 0.47482 0.98693 0.0
O801 O 0.49187 0.46741 0.01089 0.0
O802 O 0.54463 0.50498 0.00554 0.0
O803 O 0.53355 0.5198 0.98592 0.0
C804 C 0.46576 0.49639 0.01788 0.0
O805 O 0.52567 0.48298 0.03525 0.0
O806 O 0.53732 0.52055 0.04153 0.0
C807 C 0.48455 0.51085 0.94893 0.0
C808 C 0.49897 0.50732 0.92077 0.0
C809 C 0.48341 0.5168 0.92306 0.0
C810 C 0.47626 0.51854 0.93705 0.0
C811 C 0.50009 0.50144 0.94672 0.0
C812 C 0.50723 0.49968 0.93279 0.0
C813 C 0.47802 0.51356 0.96377 0.0
H814 H 0.53489 0.47833 0.09303 0.0
H815 H 0.5506 0.48569 0.06896 0.0
H816 H 0.49456 0.50147 0.05445 0.0
H817 H 0.47928 0.49507 0.07855 0.0
H818 H 0.47654 0.52261 0.91401 0.0
H819 H 0.46436 0.52598 0.9386 0.0
H820 H 0.50687 0.49564 0.95583 0.0
H821 H 0.51952 0.49266 0.93147 0.0
Tb822 Tb 0.15771 0.31693 0.32155 0.0
Eu823 Eu 0.17505 0.34837 0.35474 0.0
C824 C 0.18012 0.30224 0.34753 0.0
C825 C 0.12166 0.30243 0.34582 0.0
C826 C 0.15168 0.30498 0.28124 0.0
C827 C 0.14871 0.29759 0.25466 0.0
C828 C 0.14286 0.28885 0.26838 0.0
C829 C 0.16622 0.33001 0.28019 0.0
C830 C 0.17219 0.33876 0.2665 0.0
C831 C 0.16364 0.32265 0.25355 0.0
C832 C 0.14661 0.29567 0.29572 0.0
O833 O 0.14507 0.34304 0.32123 0.0
O834 O 0.16982 0.37255 0.34008 0.0
O835 O 0.20902 0.36308 0.34266 0.0
O836 O 0.19039 0.35074 0.31895 0.0
C837 C 0.15456 0.36504 0.3281 0.0
O838 O 0.16853 0.36662 0.37345 0.0
O839 O 0.19991 0.3616 0.37489 0.0
O840 O 0.17158 0.31202 0.35666 0.0
O841 O 0.1808 0.30619 0.33364 0.0
O842 O 0.13027 0.29417 0.33564 0.0
O843 O 0.13413 0.32501 0.35181 0.0
C844 C 0.20985 0.36344 0.32836 0.0
O845 O 0.16577 0.29986 0.30421 0.0
O846 O 0.13199 0.30031 0.30292 0.0
C847 C 0.17963 0.35756 0.39621 0.0
C848 C 0.16728 0.33805 0.42343 0.0
C849 C 0.17949 0.36337 0.42266 0.0
C850 C 0.1856 0.37301 0.40918 0.0
C851 C 0.16731 0.33232 0.39686 0.0
C852 C 0.16124 0.32266 0.41031 0.0
C853 C 0.18627 0.36776 0.38205 0.0
H854 H 0.142 0.28466 0.24494 0.0
H855 H 0.13171 0.26946 0.26897 0.0
H856 H 0.17316 0.34279 0.28998 0.0
H857 H 0.18342 0.35817 0.26606 0.0
H858 H 0.18411 0.37578 0.43246 0.0
H859 H 0.19499 0.39253 0.4089 0.0
H860 H 0.16252 0.32007 0.38694 0.0
H861 H 0.15216 0.30313 0.41045 0.0
Tb862 Tb 0.68338 0.83621 0.32549 0.0
Eu863 Eu 0.65119 0.82136 0.354 0.0
C864 C 0.69803 0.87306 0.35368 0.0
C865 C 0.69926 0.81694 0.35235 0.0
C866 C 0.70103 0.8438 0.28756 0.0
C867 C 0.71329 0.85107 0.26296 0.0
C868 C 0.71942 0.85396 0.27811 0.0
C869 C 0.67644 0.83036 0.28175 0.0
C870 C 0.67028 0.82752 0.2666 0.0
C871 C 0.68864 0.83805 0.25705 0.0
C872 C 0.70754 0.84837 0.30347 0.0
O873 O 0.65894 0.79698 0.32147 0.0
O874 O 0.62852 0.79212 0.33584 0.0
O875 O 0.63818 0.84156 0.34012 0.0
O876 O 0.64873 0.83319 0.31793 0.0
C877 C 0.63674 0.78399 0.32543 0.0
O878 O 0.62804 0.79436 0.36804 0.0
O879 O 0.63628 0.83163 0.37218 0.0
O880 O 0.68688 0.85504 0.36169 0.0
O881 O 0.69399 0.86967 0.33929 0.0
O882 O 0.70647 0.83285 0.34262 0.0
O883 O 0.67689 0.80666 0.35624 0.0
C884 C 0.63611 0.84016 0.3257 0.0
O885 O 0.70008 0.86155 0.31037 0.0
O886 O 0.7035 0.82956 0.31028 0.0
C887 C 0.63194 0.80984 0.39291 0.0
C888 C 0.64277 0.81015 0.42322 0.0
C889 C 0.64079 0.79157 0.41318 0.0
C890 C 0.63544 0.79142 0.39817 0.0
C891 C 0.63331 0.82805 0.40301 0.0
C892 C 0.63879 0.82827 0.418 0.0
C893 C 0.62677 0.81027 0.37704 0.0
H894 H 0.72781 0.85963 0.25591 0.0
H895 H 0.73848 0.86449 0.28247 0.0
H896 H 0.66202 0.82239 0.28894 0.0
H897 H 0.65116 0.81713 0.26237 0.0
H898 H 0.64392 0.77747 0.4169 0.0
H899 H 0.63432 0.777 0.3907 0.0
H900 H 0.63034 0.84226 0.3993 0.0
H901 H 0.63985 0.84262 0.42552 0.0
Tb902 Tb 0.18685 0.83983 0.3549 0.0
Eu903 Eu 0.1613 0.84476 0.32392 0.0
C904 C 0.15691 0.79535 0.33148 0.0
C905 C 0.21554 0.85118 0.32662 0.0
C906 C 0.19555 0.83235 0.39423 0.0
C907 C 0.16233 0.81115 0.40941 0.0
C908 C 0.17135 0.81425 0.39563 0.0
C909 C 0.21059 0.84704 0.40677 0.0
C910 C 0.2015 0.84417 0.42048 0.0
C911 C 0.17722 0.82639 0.42191 0.0
C912 C 0.20482 0.83787 0.37975 0.0
O913 O 0.20414 0.87781 0.35075 0.0
O914 O 0.17071 0.87702 0.33975 0.0
O915 O 0.13069 0.82782 0.33844 0.0
O916 O 0.15393 0.83975 0.3608 0.0
C917 C 0.1919 0.88881 0.34763 0.0
O918 O 0.16131 0.86741 0.30705 0.0
O919 O 0.13389 0.82912 0.30494 0.0
O920 O 0.16279 0.81047 0.32141 0.0
O921 O 0.15985 0.80313 0.34545 0.0
O922 O 0.21157 0.84077 0.33895 0.0
O923 O 0.20068 0.85772 0.32057 0.0
C924 C 0.13272 0.83088 0.35288 0.0
O925 O 0.19567 0.82011 0.36921 0.0
O926 O 0.20657 0.85757 0.37526 0.0
C927 C 0.15098 0.84633 0.28358 0.0
C928 C 0.16578 0.84295 0.25552 0.0
C929 C 0.15012 0.85234 0.25771 0.0
C930 C 0.14278 0.854 0.27165 0.0
C931 C 0.16664 0.83702 0.28147 0.0
C932 C 0.17395 0.83532 0.26758 0.0
C933 C 0.14429 0.84897 0.29838 0.0
H934 H 0.14349 0.79745 0.41022 0.0
H935 H 0.15927 0.80295 0.38605 0.0
H936 H 0.22923 0.86122 0.4059 0.0
H937 H 0.2134 0.85603 0.42996 0.0
H938 H 0.14335 0.85815 0.24862 0.0
H939 H 0.13081 0.86137 0.27313 0.0
H940 H 0.17338 0.83126 0.29062 0.0
H941 H 0.18631 0.82836 0.26633 0.0
Tb942 Tb 0.82669 0.65016 0.65518 0.0
Eu943 Eu 0.84477 0.68022 0.68863 0.0
C944 C 0.84706 0.63268 0.68073 0.0
C945 C 0.79053 0.6351 0.67956 0.0
C946 C 0.82028 0.64016 0.6147 0.0
C947 C 0.81826 0.63385 0.58811 0.0
C948 C 0.81282 0.62447 0.6017 0.0
C949 C 0.833 0.66538 0.61393 0.0
C950 C 0.83859 0.67478 0.60037 0.0
C951 C 0.83142 0.65913 0.58729 0.0
C952 C 0.81592 0.63023 0.62904 0.0
O953 O 0.81366 0.67595 0.65572 0.0
O954 O 0.83924 0.70493 0.67456 0.0
O955 O 0.87837 0.69357 0.67628 0.0
O956 O 0.85874 0.68484 0.65308 0.0
C957 C 0.82347 0.6978 0.66284 0.0
O958 O 0.84048 0.70001 0.70745 0.0
O959 O 0.86985 0.69188 0.70865 0.0
O960 O 0.83948 0.6431 0.69012 0.0
O961 O 0.84836 0.63742 0.66697 0.0
O962 O 0.79852 0.62716 0.66881 0.0
O963 O 0.80379 0.65709 0.68638 0.0
C964 C 0.87875 0.69616 0.66216 0.0
O965 O 0.83552 0.63495 0.63726 0.0
O966 O 0.80087 0.63366 0.63659 0.0
C967 C 0.85102 0.69042 0.73056 0.0
C968 C 0.83918 0.67256 0.75833 0.0
C969 C 0.82257 0.67593 0.74934 0.0
C970 C 0.8284 0.68474 0.73564 0.0
C971 C 0.86772 0.68731 0.73959 0.0
C972 C 0.86185 0.67841 0.75325 0.0
C973 C 0.8574 0.69945 0.71596 0.0
H974 H 0.81267 0.62128 0.57828 0.0
H975 H 0.80312 0.60496 0.60208 0.0
H976 H 0.83885 0.6778 0.62385 0.0
H977 H 0.84846 0.69432 0.60013 0.0
H978 H 0.8051 0.67201 0.75294 0.0
H979 H 0.81512 0.68706 0.72903 0.0
H980 H 0.88532 0.69159 0.73603 0.0
H981 H 0.875 0.67577 0.75974 0.0
Tb982 Tb 0.34921 0.16627 0.65877 0.0
Eu983 Eu 0.31675 0.15279 0.68701 0.0
C984 C 0.36449 0.20464 0.68591 0.0
C985 C 0.36469 0.14861 0.68679 0.0
C986 C 0.3679 0.17626 0.62068 0.0
C987 C 0.3595 0.19416 0.60005 0.0
C988 C 0.3639 0.19421 0.61516 0.0
C989 C 0.36751 0.15835 0.61078 0.0
C990 C 0.363 0.15823 0.59568 0.0
C991 C 0.359 0.17617 0.59013 0.0
C992 C 0.37308 0.17627 0.6366 0.0
O993 O 0.31489 0.13342 0.65114 0.0
O994 O 0.30619 0.11795 0.67324 0.0
O995 O 0.29356 0.15558 0.66862 0.0
O996 O 0.32493 0.18118 0.65583 0.0
C997 C 0.30358 0.11495 0.65885 0.0
O998 O 0.29818 0.12755 0.70305 0.0
O999 O 0.29694 0.16085 0.70306 0.0
O1000 O 0.34193 0.19342 0.68945 0.0
O1001 O 0.37202 0.1942 0.67643 0.0
O1002 O 0.36181 0.14685 0.67234 0.0
O1003 O 0.35232 0.15549 0.69484 0.0
C1004 C 0.30203 0.17126 0.65883 0.0
O1005 O 0.37177 0.19237 0.64539 0.0
O1006 O 0.36328 0.1551 0.64168 0.0
C1007 C 0.29857 0.14636 0.72585 0.0
C1008 C 0.3113 0.15279 0.75637 0.0
C1009 C 0.28666 0.1388 0.75051 0.0
C1010 C 0.28037 0.13562 0.73536 0.0
C1011 C 0.32315 0.16049 0.7316 0.0
C1012 C 0.32947 0.16372 0.74675 0.0
C1013 C 0.292 0.14185 0.70994 0.0
H1014 H 0.35687 0.20845 0.59614 0.0
H1015 H 0.3643 0.20842 0.62248 0.0
H1016 H 0.37067 0.14439 0.61472 0.0
H1017 H 0.36241 0.14393 0.58837 0.0
H1018 H 0.27224 0.13041 0.75765 0.0
H1019 H 0.26132 0.12459 0.73105 0.0
H1020 H 0.33744 0.16874 0.72436 0.0
H1021 H 0.34861 0.17434 0.7509 0.0
Tb1022 Tb 0.84855 0.16429 0.68646 0.0
Eu1023 Eu 0.82856 0.1784 0.65655 0.0
C1024 C 0.82182 0.12549 0.65942 0.0
C1025 C 0.88023 0.18026 0.65929 0.0
C1026 C 0.8545 0.15501 0.7253 0.0
C1027 C 0.85707 0.14769 0.75082 0.0
C1028 C 0.86406 0.14747 0.73664 0.0
C1029 C 0.83779 0.1627 0.72824 0.0
C1030 C 0.83078 0.16293 0.7424 0.0
C1031 C 0.84037 0.15546 0.75387 0.0
C1032 C 0.86152 0.15436 0.71038 0.0
O1033 O 0.8492 0.19813 0.69236 0.0
O1034 O 0.85613 0.21296 0.67007 0.0
O1035 O 0.80341 0.17613 0.67364 0.0
O1036 O 0.80956 0.15048 0.68746 0.0
C1037 C 0.85745 0.21646 0.68438 0.0
O1038 O 0.83383 0.20492 0.64111 0.0
O1039 O 0.80179 0.16909 0.63762 0.0
O1040 O 0.81188 0.13781 0.65451 0.0
O1041 O 0.84004 0.13485 0.66984 0.0
O1042 O 0.88014 0.18047 0.67368 0.0
O1043 O 0.86081 0.17534 0.65059 0.0
C1044 C 0.79685 0.16087 0.68375 0.0
O1045 O 0.84413 0.13827 0.70077 0.0
O1046 O 0.87365 0.17537 0.70524 0.0
C1047 C 0.82114 0.18686 0.61689 0.0
C1048 C 0.83556 0.18472 0.58855 0.0
C1049 C 0.82209 0.19631 0.59159 0.0
C1050 C 0.81502 0.19745 0.60569 0.0
C1051 C 0.83419 0.17493 0.61385 0.0
C1052 C 0.84133 0.17387 0.59982 0.0
C1053 C 0.81528 0.18934 0.63196 0.0
H1054 H 0.86455 0.14152 0.75935 0.0
H1055 H 0.87685 0.14132 0.73451 0.0
H1056 H 0.83018 0.16854 0.71957 0.0
H1057 H 0.81814 0.16931 0.7444 0.0
H1058 H 0.81752 0.20499 0.58317 0.0
H1059 H 0.80511 0.20688 0.60789 0.0
H1060 H 0.83907 0.16664 0.62237 0.0
H1061 H 0.85133 0.16447 0.5978 0.0
H1062 H 0.3244 0.91006 0.05607 0.0
H1063 H 0.34227 0.85275 0.05347 0.0
H1064 H 0.36044 0.93542 0.04369 0.0
H1065 H 0.37718 0.87771 0.0402 0.0
H1066 H 0.42016 0.92819 1.00226 0.0
H1067 H 0.38235 0.9018 0.01327 0.0
H1068 H 0.41055 0.95012 0.05338 0.0
H1069 H 0.44843 0.976 0.04269 0.0
C1070 C 0.33585 0.90277 0.0529 0.0
C1071 C 0.33028 0.87925 0.05592 0.0
C1072 C 0.35631 0.91724 0.04565 0.0
C1073 C 0.37129 0.90833 0.04095 0.0
C1074 C 0.3656 0.88477 0.04358 0.0
C1075 C 0.34548 0.87047 0.05113 0.0
C1076 C 0.41822 0.93313 0.01341 0.0
C1077 C 0.43724 0.95406 0.02164 0.0
C1078 C 0.3967 0.91807 0.01968 0.0
C1079 C 0.3937 0.92413 0.0341 0.0
C1080 C 0.41249 0.94522 0.04221 0.0
C1081 C 0.43415 0.9599 0.03611 0.0
H1082 H 0.12125 0.42282 0.05236 0.0
H1083 H 0.15491 0.49315 0.07753 0.0
H1084 H 0.09123 0.43095 0.04009 0.0
H1085 H 0.12508 0.50144 0.06509 0.0
H1086 H 0.05052 0.49481 0.05147 0.0
H1087 H 0.08027 0.48648 0.06385 0.0
H1088 H 0.09013 0.45848 0.02231 0.0
H1089 H 0.06033 0.4667 0.00988 0.0
C1090 C 0.12218 0.43998 0.0553 0.0
C1091 C 0.14044 0.45733 0.06593 0.0
C1092 C 0.10512 0.44473 0.04818 0.0
C1093 C 0.10578 0.46684 0.05162 0.0
C1094 C 0.12397 0.48415 0.06229 0.0
C1095 C 0.14118 0.4795 0.06932 0.0
C1096 C 0.05898 0.48684 0.04496 0.0
C1097 C 0.053 0.48142 0.02966 0.0
C1098 C 0.07615 0.48221 0.05206 0.0
C1099 C 0.08757 0.47184 0.04406 0.0
C1100 C 0.08148 0.46627 0.02879 0.0
C1101 C 0.06448 0.4711 0.02167 0.0
H1102 H 0.5992 0.69011 0.06669 0.0
H1103 H 0.57398 0.70754 0.02698 0.0
H1104 H 0.58495 0.64921 0.05525 0.0
H1105 H 0.55989 0.66665 0.01544 0.0
H1106 H 0.5085 0.58336 0.00904 0.0
H1107 H 0.52695 0.62599 0.01838 0.0
H1108 H 0.59144 0.62566 0.03609 0.0
H1109 H 0.57279 0.58289 0.02706 0.0
C1110 C 0.59106 0.68533 0.05541 0.0
C1111 C 0.58757 0.70193 0.04775 0.0
C1112 C 0.5829 0.66191 0.04884 0.0
C1113 C 0.57115 0.65466 0.03447 0.0
C1114 C 0.56847 0.67157 0.02662 0.0
C1115 C 0.57658 0.69497 0.03321 0.0
C1116 C 0.52668 0.59242 0.01484 0.0
C1117 C 0.53911 0.57971 0.0174 0.0
C1118 C 0.53732 0.6169 0.02011 0.0
C1119 C 0.56064 0.62918 0.028 0.0
C1120 C 0.57331 0.6166 0.03023 0.0
C1121 C 0.56265 0.59212 0.025 0.0
H1122 H 0.86569 0.29896 0.97217 0.0
H1123 H 0.8804 0.3271 0.93008 0.0
H1124 H 0.8963 0.33865 0.9844 0.0
H1125 H 0.9099 0.3674 0.94219 0.0
H1126 H 0.9766 0.43243 0.96704 0.0
H1127 H 0.94827 0.39192 0.95484 0.0
H1128 H 0.90322 0.37714 0.9909 0.0
H1129 H 0.93235 0.41688 1.00337 0.0
C1130 C 0.87542 0.31385 0.9656 0.0
C1131 C 0.87085 0.31021 0.95027 0.0
C1132 C 0.89281 0.33666 0.97256 0.0
C1133 C 0.90557 0.35647 0.96434 0.0
C1134 C 0.90085 0.35261 0.94892 0.0
C1135 C 0.88383 0.32962 0.94195 0.0
C1136 C 0.96066 0.42038 0.97233 0.0
C1137 C 0.95673 0.42768 0.98617 0.0
C1138 C 0.94429 0.39721 0.96531 0.0
C1139 C 0.92335 0.38106 0.97185 0.0
C1140 C 0.91938 0.38868 0.98564 0.0
C1141 C 0.93601 0.41159 0.99278 0.0
H1142 H 0.65078 0.50829 0.93532 0.0
H1143 H 0.69504 0.57294 0.96525 0.0
H1144 H 0.61483 0.49987 0.94808 0.0
H1145 H 0.65911 0.56429 0.97816 0.0
H1146 H 0.59225 0.52163 0.00566 0.0
H1147 H 0.62865 0.52935 0.99351 0.0
H1148 H 0.59032 0.52267 0.95151 0.0
H1149 H 0.55427 0.51547 0.96357 0.0
C1150 C 0.65282 0.5206 0.94468 0.0
C1151 C 0.67566 0.5413 0.94928 0.0
C1152 C 0.63227 0.51584 0.95193 0.0
C1153 C 0.63423 0.5314 0.96412 0.0
C1154 C 0.65714 0.55191 0.96886 0.0
C1155 C 0.67761 0.55695 0.96142 0.0
C1156 C 0.59161 0.52175 0.99384 0.0
C1157 C 0.57041 0.518 0.98559 0.0
C1158 C 0.61245 0.52629 0.98691 0.0
C1159 C 0.61226 0.52659 0.97157 0.0
C1160 C 0.59093 0.52241 0.96333 0.0
C1161 C 0.57034 0.5184 0.97026 0.0
H1162 H 0.39259 0.08496 0.96196 0.0
H1163 H 0.46677 0.14545 0.96405 0.0
H1164 H 0.40817 0.06017 0.97207 0.0
H1165 H 0.48179 0.12097 0.97504 0.0
H1166 H 0.48864 0.07187 0.01007 0.0
H1167 H 0.47207 0.09654 1.00073 0.0
H1168 H 0.44153 0.04761 0.9609 0.0
H1169 H 0.45858 0.02331 0.96996 0.0
C1170 C 0.41214 0.09304 0.96454 0.0
C1171 C 0.42836 0.11731 0.96213 0.0
C1172 C 0.42096 0.07887 0.97044 0.0
C1173 C 0.44607 0.08884 0.97436 0.0
C1174 C 0.46229 0.11308 0.97225 0.0
C1175 C 0.45358 0.12709 0.96604 0.0
C1176 C 0.47836 0.06639 0.99934 0.0
C1177 C 0.47494 0.04577 0.99071 0.0
C1178 C 0.46897 0.08048 0.99402 0.0
C1179 C 0.45553 0.07377 0.98017 0.0
C1180 C 0.45174 0.05296 0.97165 0.0
C1181 C 0.4616 0.03921 0.97681 0.0
H1182 H 0.66036 0.08644 0.93811 0.0
H1183 H 0.68245 0.15037 0.96799 0.0
H1184 H 0.62397 0.06388 0.95071 0.0
H1185 H 0.64542 0.12825 0.98029 0.0
H1186 H 0.58752 0.07358 0.00765 0.0
H1187 H 0.6248 0.09774 0.99586 0.0
H1188 H 0.58604 0.0599 0.95364 0.0
H1189 H 0.54959 0.03514 0.96553 0.0
C1190 C 0.65723 0.0957 0.9473 0.0
C1191 C 0.67414 0.12011 0.95206 0.0
C1192 C 0.63629 0.08286 0.9545 0.0
C1193 C 0.63148 0.09425 0.96648 0.0
C1194 C 0.64857 0.11873 0.97126 0.0
C1195 C 0.66975 0.13146 0.96418 0.0
C1196 C 0.58707 0.07064 0.99585 0.0
C1197 C 0.5658 0.05235 0.98752 0.0
C1198 C 0.60838 0.0845 0.98906 0.0
C1199 C 0.60865 0.08058 0.97378 0.0
C1200 C 0.58689 0.06297 0.96546 0.0
C1201 C 0.56586 0.04889 0.97226 0.0
H1202 H 0.85028 0.50132 0.93944 0.0
H1203 H 0.89415 0.57627 0.95768 0.0
H1204 H 0.87945 0.49205 0.95181 0.0
H1205 H 0.92332 0.56699 0.97007 0.0
H1206 H 0.98215 0.54413 0.97628 0.0
H1207 H 0.95364 0.55352 0.96318 0.0
H1208 H 0.89284 0.49105 0.97831 0.0
H1209 H 0.92121 0.48169 0.99146 0.0
C1210 C 0.86624 0.51583 0.94602 0.0
C1211 C 0.86993 0.53951 0.94761 0.0
C1212 C 0.88283 0.51049 0.95317 0.0
C1213 C 0.90365 0.52879 0.96191 0.0
C1214 C 0.90753 0.55256 0.96333 0.0
C1215 C 0.89075 0.55782 0.95634 0.0
C1216 C 0.9627 0.53237 0.97679 0.0
C1217 C 0.95397 0.51219 0.98495 0.0
C1218 C 0.9464 0.53783 0.96935 0.0
C1219 C 0.92102 0.52301 0.96972 0.0
C1220 C 0.91229 0.50269 0.97773 0.0
C1221 C 0.92857 0.49742 0.98533 0.0
H1222 H 0.39904 0.30348 0.97602 0.0
H1223 H 0.46597 0.32273 0.95642 0.0
H1224 H 0.41706 0.34545 0.98718 0.0
H1225 H 0.48381 0.36444 0.96746 0.0
H1226 H 0.49067 0.43944 0.97021 0.0
H1227 H 0.47425 0.39673 0.96222 0.0
H1228 H 0.45143 0.37811 0.00535 0.0
H1229 H 0.46785 0.42122 0.01346 0.0
C1230 C 0.41768 0.31657 0.97428 0.0
C1231 C 0.43096 0.30998 0.96514 0.0
C1232 C 0.42799 0.34053 0.98067 0.0
C1233 C 0.45169 0.35821 0.978 0.0
C1234 C 0.46531 0.35128 0.96945 0.0
C1235 C 0.45508 0.32744 0.9631 0.0
C1236 C 0.48221 0.42632 0.97805 0.0
C1237 C 0.48056 0.43372 0.99248 0.0
C1238 C 0.47295 0.40185 0.97348 0.0
C1239 C 0.46172 0.38414 0.9832 0.0
C1240 C 0.45994 0.39142 0.99764 0.0
C1241 C 0.46943 0.41606 1.00228 0.0
H1242 H 0.14691 0.69427 0.03864 0.0
H1243 H 0.11332 0.67568 0.07918 0.0
H1244 H 0.11719 0.65386 0.02693 0.0
H1245 H 0.0843 0.63493 0.06766 0.0
H1246 H 0.02206 0.57081 0.03851 0.0
H1247 H 0.04959 0.61249 0.04927 0.0
H1248 H 0.10899 0.61274 0.02818 0.0
H1249 H 0.08145 0.5714 0.01717 0.0
C1250 C 0.13307 0.68163 0.04502 0.0
C1251 C 0.13255 0.68817 0.05986 0.0
C1252 C 0.11623 0.65837 0.03837 0.0
C1253 C 0.09849 0.64111 0.0464 0.0
C1254 C 0.09761 0.64784 0.06113 0.0
C1255 C 0.11443 0.6711 0.06778 0.0
C1256 C 0.04098 0.57977 0.03615 0.0
C1257 C 0.04954 0.56775 0.02698 0.0
C1258 C 0.05678 0.60363 0.04237 0.0
C1259 C 0.08147 0.61596 0.03956 0.0
C1260 C 0.08999 0.60392 0.03038 0.0
C1261 C 0.07421 0.58012 0.02415 0.0
H1262 H 0.36332 0.47962 0.08217 0.0
H1263 H 0.31705 0.43822 0.04247 0.0
H1264 H 0.39904 0.48874 0.06976 0.0
H1265 H 0.35273 0.45015 0.02957 0.0
H1266 H 0.4201 0.45709 0.01121 0.0
H1267 H 0.38427 0.44542 0.02439 0.0
H1268 H 0.42547 0.51124 0.05418 0.0
H1269 H 0.46168 0.52142 0.04167 0.0
C1270 C 0.36056 0.47244 0.0708 0.0
C1271 C 0.33685 0.45807 0.06348 0.0
C1272 C 0.38133 0.47823 0.06349 0.0
C1273 C 0.37923 0.47051 0.04847 0.0
C1274 C 0.35551 0.45625 0.04115 0.0
C1275 C 0.33476 0.44981 0.04857 0.0
C1276 C 0.42136 0.469 0.02059 0.0
C1277 C 0.44362 0.49016 0.0254 0.0
C1278 C 0.40071 0.46244 0.02815 0.0
C1279 C 0.40152 0.47732 0.04048 0.0
C1280 C 0.4239 0.49881 0.04505 0.0
C1281 C 0.44474 0.50491 0.03777 0.0
H1282 H 0.55952 0.86433 0.03152 0.0
H1283 H 0.58083 0.91326 0.07122 0.0
H1284 H 0.54539 0.8886 0.01917 0.0
H1285 H 0.56667 0.93742 0.05893 0.0
H1286 H 0.56347 0.98924 0.02904 0.0
H1287 H 0.57813 0.96434 0.03963 0.0
H1288 H 0.51322 0.89948 0.0196 0.0
H1289 H 0.49863 0.92455 0.00868 0.0
C1290 C 0.56102 0.88018 0.03763 0.0
C1291 C 0.57134 0.88695 0.05233 0.0
C1292 C 0.55292 0.89404 0.03056 0.0
C1293 C 0.55501 0.91497 0.03805 0.0
C1294 C 0.56523 0.92165 0.05277 0.0
C1295 C 0.57334 0.90782 0.05982 0.0
C1296 C 0.55232 0.96967 0.0268 0.0
C1297 C 0.52977 0.95885 0.01811 0.0
C1298 C 0.56069 0.9554 0.03295 0.0
C1299 C 0.54668 0.92995 0.03062 0.0
C1300 C 0.52448 0.91907 0.02153 0.0
C1301 C 0.5161 0.93341 0.01531 0.0
H1302 H 0.98285 0.18486 0.37024 0.0
H1303 H 0.01566 0.23888 0.40779 0.0
H1304 H 0.01685 0.21039 0.35641 0.0
H1305 H 0.04972 0.26421 0.39411 0.0
H1306 H 0.09463 0.31513 0.36229 0.0
H1307 H 0.05865 0.28874 0.37413 0.0
H1308 H 0.06019 0.22592 0.35506 0.0
H1309 H 0.09606 0.25249 0.34281 0.0
C1310 C 0.99743 0.20211 0.37558 0.0
C1311 C 0.99652 0.20991 0.39009 0.0
C1312 C 0.01692 0.21672 0.36766 0.0
C1313 C 0.03597 0.23943 0.3741 0.0
C1314 C 0.03511 0.24707 0.38867 0.0
C1315 C 0.0156 0.23254 0.39655 0.0
C1316 C 0.08722 0.29568 0.3605 0.0
C1317 C 0.09833 0.28592 0.35168 0.0
C1318 C 0.06665 0.28054 0.36739 0.0
C1319 C 0.05672 0.25522 0.36576 0.0
C1320 C 0.06728 0.24534 0.3565 0.0
C1321 C 0.08786 0.26056 0.34949 0.0
H1322 H 0.82243 0.79576 0.37577 0.0
H1323 H 0.78213 0.77916 0.41389 0.0
H1324 H 0.79236 0.80345 0.36325 0.0
H1325 H 0.75232 0.78741 0.40156 0.0
H1326 H 0.69049 0.78139 0.37046 0.0
H1327 H 0.71998 0.77244 0.38244 0.0
H1328 H 0.7783 0.83155 0.36313 0.0
H1329 H 0.74872 0.83992 0.35077 0.0
C1330 C 0.80725 0.79398 0.38152 0.0
C1331 C 0.80468 0.78685 0.39582 0.0
C1332 C 0.79 0.79845 0.37437 0.0
C1333 C 0.76983 0.79612 0.38137 0.0
C1334 C 0.76732 0.78899 0.3957 0.0
C1335 C 0.78446 0.78432 0.4028 0.0
C1336 C 0.7096 0.79244 0.36873 0.0
C1337 C 0.71718 0.81135 0.35961 0.0
C1338 C 0.72658 0.7874 0.37569 0.0
C1339 C 0.75163 0.80126 0.37381 0.0
C1340 C 0.75916 0.82019 0.36468 0.0
C1341 C 0.74217 0.8251 0.35763 0.0
H1342 H 0.28361 0.04379 0.37573 0.0
H1343 H 0.21191 0.02369 0.38863 0.0
H1344 H 0.26791 0.00221 0.36478 0.0
H1345 H 0.19625 0.9823 0.37762 0.0
H1346 H 0.17121 0.91707 0.34386 0.0
H1347 H 0.18778 0.95943 0.35332 0.0
H1348 H 0.25234 0.96134 0.37306 0.0
H1349 H 0.23599 0.9191 0.36345 0.0
C1350 C 0.26455 0.03049 0.37628 0.0
C1351 C 0.24899 0.03705 0.38302 0.0
C1352 C 0.25556 0.00671 0.37001 0.0
C1353 C 0.23084 0.98904 0.37031 0.0
C1354 C 0.21529 0.99563 0.37699 0.0
C1355 C 0.22427 0.01935 0.38329 0.0
C1356 C 0.18899 0.92655 0.35015 0.0
C1357 C 0.20226 0.9147 0.35293 0.0
C1358 C 0.19842 0.95077 0.35563 0.0
C1359 C 0.22132 0.96367 0.36397 0.0
C1360 C 0.23476 0.95195 0.36654 0.0
C1361 C 0.22531 0.9277 0.3611 0.0
H1362 H 0.51016 0.64346 0.29698 0.0
H1363 H 0.5651 0.64511 0.27038 0.0
H1364 H 0.53909 0.68397 0.30821 0.0
H1365 H 0.59483 0.68485 0.2827 0.0
H1366 H 0.63601 0.76654 0.29729 0.0
H1367 H 0.60726 0.72617 0.28495 0.0
H1368 H 0.57288 0.70525 0.32515 0.0
H1369 H 0.60057 0.74585 0.33704 0.0
C1370 C 0.52842 0.65239 0.2935 0.0
C1371 C 0.53512 0.64087 0.28266 0.0
C1372 C 0.54526 0.67558 0.30019 0.0
C1373 C 0.5695 0.68778 0.29651 0.0
C1374 C 0.57629 0.67623 0.28573 0.0
C1375 C 0.55928 0.65317 0.27882 0.0
C1376 C 0.62226 0.75321 0.30342 0.0
C1377 C 0.62034 0.75933 0.31806 0.0
C1378 C 0.60585 0.73002 0.2964 0.0
C1379 C 0.5875 0.71235 0.30398 0.0
C1380 C 0.58621 0.71846 0.31878 0.0
C1381 C 0.60223 0.74172 0.32567 0.0
H1382 H 0.3318 0.90067 0.26856 0.0
H1383 H 0.34557 0.85503 0.29586 0.0
H1384 H 0.29749 0.89397 0.28204 0.0
H1385 H 0.31 0.8467 0.30853 0.0
H1386 H 0.25786 0.85376 0.33811 0.0
H1387 H 0.29379 0.86212 0.32554 0.0
H1388 H 0.25742 0.86543 0.28511 0.0
H1389 H 0.22227 0.85833 0.29785 0.0
C1390 C 0.32758 0.88918 0.27742 0.0
C1391 C 0.34167 0.87843 0.28103 0.0
C1392 C 0.30752 0.88497 0.28504 0.0
C1393 C 0.30064 0.86959 0.29638 0.0
C1394 C 0.31475 0.85887 0.30001 0.0
C1395 C 0.33502 0.86334 0.29252 0.0
C1396 C 0.25762 0.85631 0.32654 0.0
C1397 C 0.23725 0.85553 0.31903 0.0
C1398 C 0.27819 0.86097 0.31927 0.0
C1399 C 0.27875 0.8646 0.30424 0.0
C1400 C 0.2581 0.86338 0.29674 0.0
C1401 C 0.23776 0.85911 0.30404 0.0
H1402 H 0.12901 0.48354 0.30946 0.0
H1403 H 0.07917 0.42288 0.27798 0.0
H1404 H 0.1452 0.45923 0.31911 0.0
H1405 H 0.09377 0.39796 0.28851 0.0
H1406 H 0.14038 0.36535 0.29966 0.0
H1407 H 0.12678 0.39154 0.28967 0.0
H1408 H 0.13698 0.42731 0.33327 0.0
H1409 H 0.15192 0.40189 0.34306 0.0
C1410 C 0.12143 0.46501 0.30459 0.0
C1411 C 0.10282 0.4553 0.29285 0.0
C1412 C 0.13047 0.4509 0.31032 0.0
C1413 C 0.12088 0.42657 0.30461 0.0
C1414 C 0.10199 0.41675 0.29303 0.0
C1415 C 0.09325 0.43097 0.28715 0.0
C1416 C 0.13979 0.3789 0.30708 0.0
C1417 C 0.1471 0.38156 0.32213 0.0
C1418 C 0.13181 0.39382 0.30138 0.0
C1419 C 0.13046 0.41144 0.31065 0.0
C1420 C 0.13807 0.41422 0.32573 0.0
C1421 C 0.14653 0.39958 0.33138 0.0
H1422 H 0.3586 0.46488 0.30786 0.0
H1423 H 0.31486 0.43179 0.26621 0.0
H1424 H 0.32323 0.44004 0.32065 0.0
H1425 H 0.27915 0.40903 0.27894 0.0
H1426 H 0.22365 0.35198 0.30325 0.0
H1427 H 0.26084 0.37603 0.29191 0.0
H1428 H 0.28567 0.43315 0.32765 0.0
H1429 H 0.24873 0.40793 0.33951 0.0
C1430 C 0.34149 0.45239 0.30138 0.0
C1431 C 0.33984 0.45035 0.28592 0.0
C1432 C 0.321 0.4384 0.30877 0.0
C1433 C 0.29817 0.42228 0.30091 0.0
C1434 C 0.29644 0.42072 0.28546 0.0
C1435 C 0.31698 0.43427 0.27809 0.0
C1436 C 0.23714 0.36964 0.30873 0.0
C1437 C 0.23328 0.37819 0.32221 0.0
C1438 C 0.25844 0.38361 0.30215 0.0
C1439 C 0.27624 0.4069 0.30864 0.0
C1440 C 0.27255 0.41527 0.32234 0.0
C1441 C 0.25137 0.40091 0.32914 0.0
H1442 H 0.55118 0.90592 0.29639 0.0
H1443 H 0.52239 0.83963 0.26738 0.0
H1444 H 0.57994 0.8966 0.30901 0.0
H1445 H 0.5514 0.83052 0.27991 0.0
H1446 H 0.62412 0.83589 0.29606 0.0
H1447 H 0.59561 0.84551 0.28339 0.0
H1448 H 0.58009 0.8672 0.32511 0.0
H1449 H 0.60879 0.85784 0.33782 0.0
C1450 C 0.55083 0.88927 0.29276 0.0
C1451 C 0.53438 0.87353 0.28085 0.0
C1452 C 0.56737 0.88395 0.3 0.0
C1453 C 0.56799 0.86281 0.29548 0.0
C1454 C 0.55165 0.84713 0.28354 0.0
C1455 C 0.53503 0.85239 0.27633 0.0
C1456 C 0.61466 0.84273 0.30256 0.0
C1457 C 0.61878 0.84607 0.31798 0.0
C1458 C 0.5982 0.84812 0.29528 0.0
C1459 C 0.58554 0.85711 0.30323 0.0
C1460 C 0.58974 0.86056 0.31865 0.0
C1461 C 0.6061 0.85505 0.32594 0.0
H1462 H 0.11342 0.64203 0.3176 0.0
H1463 H 0.07179 0.65342 0.28326 0.0
H1464 H 0.12997 0.68395 0.32836 0.0
H1465 H 0.08812 0.69509 0.29402 0.0
H1466 H 0.14843 0.7739 0.30356 0.0
H1467 H 0.12903 0.73094 0.29539 0.0
H1468 H 0.12025 0.714 0.34033 0.0
H1469 H 0.14015 0.75743 0.34866 0.0
C1470 C 0.10745 0.65335 0.31254 0.0
C1471 C 0.09161 0.64463 0.29948 0.0
C1472 C 0.11691 0.67731 0.31869 0.0
C1473 C 0.11064 0.69289 0.31189 0.0
C1474 C 0.09373 0.68368 0.29931 0.0
C1475 C 0.08436 0.65983 0.29316 0.0
C1476 C 0.14242 0.76112 0.31176 0.0
C1477 C 0.14577 0.76912 0.32678 0.0
C1478 C 0.13111 0.73643 0.30705 0.0
C1479 C 0.12282 0.71908 0.31721 0.0
C1480 C 0.1265 0.727 0.33226 0.0
C1481 C 0.13783 0.75183 0.33701 0.0
H1482 H 0.78307 0.02821 0.38202 0.0
H1483 H 0.81858 0.99662 0.40654 0.0
H1484 H 0.75281 0.98792 0.37032 0.0
H1485 H 0.78812 0.95636 0.395 0.0
H1486 H 0.71432 0.88639 0.38287 0.0
H1487 H 0.74378 0.92685 0.39469 0.0
H1488 H 0.75103 0.95581 0.35272 0.0
H1489 H 0.72143 0.91545 0.34088 0.0
C1490 C 0.78453 0.01272 0.38484 0.0
C1491 C 0.80326 0.01567 0.39523 0.0
C1492 C 0.76716 0.98964 0.37816 0.0
C1493 C 0.76806 0.96899 0.38177 0.0
C1494 C 0.78673 0.9719 0.39216 0.0
C1495 C 0.80416 0.99498 0.39879 0.0
C1496 C 0.72212 0.90138 0.37616 0.0
C1497 C 0.71552 0.89767 0.36093 0.0
C1498 C 0.7391 0.92453 0.38293 0.0
C1499 C 0.74973 0.94448 0.37463 0.0
C1500 C 0.74295 0.94082 0.35943 0.0
C1501 C 0.72609 0.91766 0.35264 0.0
H1502 H 0.98651 0.75886 0.38224 0.0
H1503 H 0.02624 0.82548 0.41124 0.0
H1504 H 0.023 0.77007 0.36967 0.0
H1505 H 0.06279 0.8365 0.39876 0.0
H1506 H 0.12973 0.83564 0.38251 0.0
H1507 H 0.09334 0.82428 0.39518 0.0
H1508 H 0.04887 0.79986 0.35351 0.0
H1509 H 0.08523 0.81097 0.34079 0.0
C1510 C 1.00295 0.77597 0.3859 0.0
C1511 C 1.0033 0.79126 0.39778 0.0
C1512 C 0.02391 0.78239 0.37868 0.0
C1513 C 0.04586 0.80422 0.38317 0.0
C1514 C 0.04631 0.8194 0.39513 0.0
C1515 C 0.02532 0.81303 0.40231 0.0
C1516 C 0.11223 0.82792 0.37601 0.0
C1517 C 0.1105 0.82431 0.36058 0.0
C1518 C 0.09134 0.82149 0.3833 0.0
C1519 C 0.06814 0.81116 0.37538 0.0
C1520 C 0.0664 0.80752 0.35997 0.0
C1521 C 0.08731 0.81404 0.35266 0.0
H1522 H 0.26263 0.2586 0.40301 0.0
H1523 H 0.23635 0.20501 0.36527 0.0
H1524 H 0.24264 0.27852 0.39155 0.0
H1525 H 0.2163 0.22494 0.35379 0.0
H1526 H 0.20408 0.28292 0.3329 0.0
H1527 H 0.22463 0.26263 0.34327 0.0
H1528 H 0.20061 0.26917 0.38561 0.0
H1529 H 0.1805 0.28973 0.3754 0.0
C1530 C 0.25256 0.25108 0.39227 0.0
C1531 C 0.25096 0.23019 0.38507 0.0
C1532 C 0.24107 0.26244 0.38572 0.0
C1533 C 0.22769 0.25314 0.37183 0.0
C1534 C 0.22664 0.23264 0.36445 0.0
C1535 C 0.23815 0.22126 0.37101 0.0
C1536 C 0.20304 0.27986 0.34439 0.0
C1537 C 0.19077 0.28807 0.35334 0.0
C1538 C 0.21477 0.2682 0.35032 0.0
C1539 C 0.21446 0.26456 0.36529 0.0
C1540 C 0.20161 0.27217 0.37411 0.0
C1541 C 0.18992 0.28379 0.36821 0.0
H1542 H 0.64909 0.56631 0.7156 0.0
H1543 H 0.68086 0.52142 0.72401 0.0
H1544 H 0.68358 0.59183 0.70214 0.0
H1545 H 0.71502 0.54668 0.71033 0.0
H1546 H 0.76247 0.58543 0.67406 0.0
H1547 H 0.72508 0.55845 0.68498 0.0
H1548 H 0.72791 0.62071 0.70847 0.0
H1549 H 0.76494 0.64757 0.69758 0.0
C1550 C 0.66344 0.56192 0.71464 0.0
C1551 C 0.66219 0.54182 0.72096 0.0
C1552 C 0.68314 0.57648 0.70687 0.0
C1553 C 0.70197 0.57122 0.70514 0.0
C1554 C 0.70058 0.55096 0.71126 0.0
C1555 C 0.68098 0.5365 0.71911 0.0
C1556 C 0.75492 0.59335 0.68141 0.0
C1557 C 0.76675 0.61864 0.68499 0.0
C1558 C 0.73363 0.57789 0.68774 0.0
C1559 C 0.72361 0.58746 0.69762 0.0
C1560 C 0.73502 0.61278 0.7008 0.0
C1561 C 0.75636 0.62817 0.69461 0.0
H1562 H 0.44512 0.10503 0.7462 0.0
H1563 H 0.4918 0.13506 0.71157 0.0
H1564 H 0.41461 0.1122 0.73381 0.0
H1565 H 0.46179 0.14327 0.69954 0.0
H1566 H 0.39225 0.13178 0.67402 0.0
H1567 H 0.42183 0.12307 0.68615 0.0
H1568 H 0.40775 0.14481 0.72836 0.0
H1569 H 0.37774 0.15294 0.71628 0.0
C1570 C 0.44888 0.11312 0.73593 0.0
C1571 C 0.47096 0.11942 0.7299 0.0
C1572 C 0.43149 0.11752 0.72891 0.0
C1573 C 0.43571 0.12837 0.71567 0.0
C1574 C 0.45777 0.13464 0.70962 0.0
C1575 C 0.47515 0.13021 0.71664 0.0
C1576 C 0.3954 0.13465 0.68589 0.0
C1577 C 0.38255 0.14305 0.69415 0.0
C1578 C 0.41251 0.1298 0.69285 0.0
C1579 C 0.41726 0.13327 0.70825 0.0
C1580 C 0.40434 0.14159 0.7165 0.0
C1581 C 0.38719 0.14639 0.70955 0.0
H1582 H 0.87876 0.34664 0.73385 0.0
H1583 H 0.9456 0.37118 0.71315 0.0
H1584 H 0.86393 0.30515 0.72306 0.0
H1585 H 0.93092 0.32957 0.70254 0.0
H1586 H 0.88116 0.25897 0.67184 0.0
H1587 H 0.89754 0.30015 0.6835 0.0
H1588 H 0.87367 0.27177 0.72478 0.0
H1589 H 0.85711 0.23045 0.71313 0.0
C1590 C 0.89027 0.34312 0.727 0.0
C1591 C 0.91327 0.36212 0.72427 0.0
C1592 C 0.88189 0.31937 0.72095 0.0
C1593 C 0.89627 0.31417 0.71196 0.0
C1594 C 0.91938 0.33312 0.70934 0.0
C1595 C 0.92785 0.35686 0.7155 0.0
C1596 C 0.87942 0.26147 0.68341 0.0
C1597 C 0.86777 0.24143 0.69155 0.0
C1598 C 0.88895 0.28508 0.6901 0.0
C1599 C 0.88688 0.28914 0.70504 0.0
C1600 C 0.87533 0.26913 0.71321 0.0
C1601 C 0.86596 0.24551 0.70655 0.0
H1602 H 0.18652 0.98909 0.60549 0.0
H1603 H 0.22721 0.96075 0.62794 0.0
H1604 H 0.21549 0.02983 0.61728 0.0
H1605 H 0.25637 0.00158 0.6396 0.0
H1606 H 0.28273 0.07173 0.67084 0.0
H1607 H 0.25517 0.03124 0.65838 0.0
H1608 H 0.2597 0.06193 0.61719 0.0
H1609 H 0.28727 0.10253 0.62962 0.0
C1610 C 0.20167 0.9916 0.61294 0.0
C1611 C 0.20459 0.97176 0.61584 0.0
C1612 C 0.21835 0.01493 0.61958 0.0
C1613 C 0.23816 0.01885 0.62936 0.0
C1614 C 0.24116 0.99904 0.63219 0.0
C1615 C 0.22461 0.97574 0.62543 0.0
C1616 C 0.27789 0.06988 0.65912 0.0
C1617 C 0.28716 0.09037 0.65123 0.0
C1618 C 0.26223 0.04666 0.65198 0.0
C1619 C 0.25532 0.04345 0.63682 0.0
C1620 C 0.26458 0.06391 0.62891 0.0
C1621 C 0.28045 0.08712 0.63602 0.0
H1622 H 0.0159 0.24733 0.61775 0.0
H1623 H 0.99564 0.17171 0.61774 0.0
H1624 H 0.97984 0.2391 0.63009 0.0
H1625 H 0.96067 0.16425 0.63099 0.0
H1626 H 0.91812 0.17431 0.66983 0.0
H1627 H 0.95494 0.18277 0.6579 0.0
H1628 H 0.93058 0.20808 0.62164 0.0
H1629 H 0.89356 0.19901 0.63325 0.0
C1630 C 0.00388 0.22896 0.62028 0.0
C1631 C 0.00894 0.21023 0.61658 0.0
C1632 C 0.98333 0.22436 0.6275 0.0
C1633 C 0.96762 0.20109 0.63154 0.0
C1634 C 0.97271 0.18243 0.62814 0.0
C1635 C 0.99292 0.18685 0.62061 0.0
C1636 C 0.92067 0.18171 0.65934 0.0
C1637 C 0.90293 0.18595 0.65248 0.0
C1638 C 0.94165 0.18645 0.6525 0.0
C1639 C 0.94555 0.19612 0.63889 0.0
C1640 C 0.92804 0.20075 0.63217 0.0
C1641 C 0.90683 0.19546 0.6388 0.0
H1642 H 0.80279 0.79901 0.61341 0.0
H1643 H 0.74879 0.77688 0.64456 0.0
H1644 H 0.81855 0.77459 0.62404 0.0
H1645 H 0.76487 0.75275 0.65536 0.0
H1646 H 0.82174 0.73476 0.67839 0.0
H1647 H 0.80835 0.76184 0.66887 0.0
H1648 H 0.79649 0.72639 0.62511 0.0
H1649 H 0.8093 0.69907 0.63458 0.0
C1650 C 0.79451 0.78912 0.62263 0.0
C1651 C 0.77459 0.7897 0.62818 0.0
C1652 C 0.80345 0.77515 0.62866 0.0
C1653 C 0.79289 0.76192 0.64049 0.0
C1654 C 0.77337 0.76297 0.64629 0.0
C1655 C 0.76411 0.77658 0.64008 0.0
C1656 C 0.81635 0.73287 0.66674 0.0
C1657 C 0.81642 0.7148 0.65722 0.0
C1658 C 0.80863 0.74823 0.66134 0.0
C1659 C 0.80147 0.74611 0.6463 0.0
C1660 C 0.80206 0.72841 0.63675 0.0
C1661 C 0.80924 0.71273 0.64218 0.0
H1662 H 0.02553 0.76386 0.6343 0.0
H1663 H 0.99036 0.79684 0.61096 0.0
H1664 H 0.98916 0.74166 0.64718 0.0
H1665 H 0.95416 0.77481 0.62384 0.0
H1666 H 0.88449 0.70813 0.6341 0.0
H1667 H 0.92206 0.73286 0.62332 0.0
H1668 H 0.9636 0.74602 0.66523 0.0
H1669 H 0.9256 0.7206 0.67614 0.0
C1670 C 0.01014 0.76656 0.63203 0.0
C1671 C 0.01072 0.78189 0.62148 0.0
C1672 C 0.98934 0.75391 0.63945 0.0
C1673 C 0.9687 0.75634 0.63647 0.0
C1674 C 0.96957 0.77217 0.62619 0.0
C1675 C 0.9903 0.78475 0.61877 0.0
C1676 C 0.90155 0.7163 0.64111 0.0
C1677 C 0.90197 0.71233 0.65603 0.0
C1678 C 0.92315 0.73068 0.63491 0.0
C1679 C 0.94585 0.74154 0.64342 0.0
C1680 C 0.94639 0.73774 0.65837 0.0
C1681 C 0.92463 0.72332 0.66463 0.0
H1682 H 0.18258 0.16998 0.60619 0.0
H1683 H 0.22925 0.24526 0.62314 0.0
H1684 H 0.21086 0.15974 0.61869 0.0
H1685 H 0.25753 0.23498 0.6357 0.0
H1686 H 0.31403 0.20902 0.64201 0.0
H1687 H 0.28635 0.21969 0.62916 0.0
H1688 H 0.22461 0.15899 0.64495 0.0
H1689 H 0.25216 0.14833 0.65784 0.0
C1690 C 0.19896 0.18435 0.61252 0.0
C1691 C 0.20369 0.20843 0.61367 0.0
C1692 C 0.21504 0.17846 0.61977 0.0
C1693 C 0.2364 0.19655 0.62819 0.0
C1694 C 0.24131 0.22068 0.62921 0.0
C1695 C 0.22504 0.22653 0.62211 0.0
C1696 C 0.29455 0.19794 0.64275 0.0
C1697 C 0.28533 0.17783 0.65098 0.0
C1698 C 0.27873 0.20414 0.63545 0.0
C1699 C 0.25331 0.19016 0.63604 0.0
C1700 C 0.24409 0.16998 0.64418 0.0
C1701 C 0.25991 0.16397 0.65164 0.0
H1702 H 0.79018 0.99446 0.60674 0.0
H1703 H 0.74188 0.96875 0.64117 0.0
H1704 H 0.80535 0.03624 0.61685 0.0
H1705 H 0.75842 0.01069 0.65169 0.0
H1706 H 0.82241 0.08879 0.67273 0.0
H1707 H 0.80543 0.04655 0.66242 0.0
H1708 H 0.78272 0.06315 0.62156 0.0
H1709 H 0.79914 0.10529 0.63194 0.0
C1710 C 0.7826 0.9976 0.61636 0.0
C1711 C 0.76462 0.97808 0.62305 0.0
C1712 C 0.79148 0.02155 0.62218 0.0
C1713 C 0.783 0.02649 0.63499 0.0
C1714 C 0.7653 0.00718 0.64183 0.0
C1715 C 0.756 0.9832 0.63584 0.0
C1716 C 0.81381 0.08341 0.66155 0.0
C1717 C 0.81207 0.10024 0.65311 0.0
C1718 C 0.80401 0.05929 0.65572 0.0
C1719 C 0.79282 0.0518 0.64126 0.0
C1720 C 0.79133 0.06864 0.63274 0.0
C1721 C 0.80063 0.09263 0.63869 0.0
H1722 H 0.4435 0.35805 0.71916 0.0
H1723 H 0.4905 0.33059 0.73329 0.0
H1724 H 0.4132 0.31748 0.70757 0.0
H1725 H 0.46015 0.29009 0.72191 0.0
H1726 H 0.41385 0.22997 0.68465 0.0
H1727 H 0.44318 0.27044 0.69632 0.0
H1728 H 0.38479 0.27566 0.7151 0.0
H1729 H 0.35521 0.23502 0.70335 0.0
C1730 C 0.44735 0.34335 0.71976 0.0
C1731 C 0.46935 0.34745 0.72711 0.0
C1732 C 0.42994 0.32013 0.71325 0.0
C1733 C 0.43434 0.30067 0.71384 0.0
C1734 C 0.45635 0.3048 0.72119 0.0
C1735 C 0.47363 0.32792 0.72779 0.0
C1736 C 0.40719 0.23969 0.69125 0.0
C1737 C 0.38217 0.22924 0.69308 0.0
C1738 C 0.42404 0.26284 0.698 0.0
C1739 C 0.41627 0.27616 0.70664 0.0
C1740 C 0.39125 0.26584 0.7084 0.0
C1741 C 0.37436 0.24254 0.70174 0.0
H1742 H 0.68999 0.12168 0.74781 0.0
H1743 H 0.65514 0.13317 0.70972 0.0
H1744 H 0.72616 0.13282 0.73502 0.0
H1745 H 0.69071 0.14285 0.69662 0.0
H1746 H 0.7677 0.18142 0.68167 0.0
H1747 H 0.73225 0.17247 0.6949 0.0
H1748 H 0.74015 0.11768 0.71601 0.0
H1749 H 0.77588 0.12716 0.70322 0.0
C1750 C 0.68999 0.12661 0.73672 0.0
C1751 C 0.66947 0.12641 0.72984 0.0
C1752 C 0.71068 0.13269 0.72928 0.0
C1753 C 0.71143 0.13862 0.7147 0.0
C1754 C 0.691 0.13864 0.70786 0.0
C1755 C 0.67037 0.1327 0.71533 0.0
C1756 C 0.76184 0.16744 0.68912 0.0
C1757 C 0.7747 0.15503 0.69134 0.0
C1758 C 0.7414 0.16221 0.69668 0.0
C1759 C 0.73324 0.14435 0.70661 0.0
C1760 C 0.74607 0.13185 0.7087 0.0
C1761 C 0.76652 0.13717 0.70123 0.0
H1762 H 0.87216 0.53149 0.72767 0.0
H1763 H 0.9367 0.57065 0.70512 0.0
H1764 H 0.85354 0.55217 0.71564 0.0
H1765 H 0.91811 0.59156 0.69312 0.0
H1766 H 0.86875 0.61112 0.6657 0.0
H1767 H 0.88457 0.58617 0.67537 0.0
H1768 H 0.86075 0.59332 0.71768 0.0
H1769 H 0.84465 0.61767 0.70806 0.0
C1770 C 0.88241 0.54462 0.72018 0.0
C1771 C 0.90601 0.54969 0.71748 0.0
C1772 C 0.87173 0.55643 0.71327 0.0
C1773 C 0.88443 0.57365 0.70353 0.0
C1774 C 0.90776 0.5782 0.70046 0.0
C1775 C 0.91844 0.5663 0.70736 0.0
C1776 C 0.8667 0.60715 0.67702 0.0
C1777 C 0.85546 0.61641 0.68611 0.0
C1778 C 0.8759 0.593 0.68257 0.0
C1779 C 0.87389 0.58776 0.69728 0.0
C1780 C 0.86227 0.5967 0.70624 0.0
C1781 C 0.85317 0.61083 0.70073 0.0
H1782 H 0.50644 0.94809 0.17337 0.0
H1783 H 0.44224 0.95554 0.17116 0.0
H1784 H 0.51638 0.96488 0.14992 0.0
H1785 H 0.4523 0.97248 0.14769 0.0
H1786 H 0.49196 0.02482 0.11343 0.0
H1787 H 0.4821 0.00833 0.13702 0.0
H1788 H 0.50204 0.9548 0.12398 0.0
H1789 H 0.5127 0.97182 0.10061 0.0
C1790 C 0.49429 0.95309 0.16783 0.0
C1791 C 0.47346 0.95033 0.17419 0.0
C1792 C 0.50002 0.96276 0.15436 0.0
C1793 C 0.48513 0.97001 0.14686 0.0
C1794 C 0.46437 0.96741 0.15324 0.0
C1795 C 0.45861 0.95769 0.16672 0.0
C1796 C 0.49449 0.00969 0.11564 0.0
C1797 C 0.50321 -0.00027 0.10509 0.0
C1798 C 0.48854 4e-05 0.12912 0.0
C1799 C 0.49125 0.9802 0.13244 0.0
C1800 C 0.49997 0.97024 0.12188 0.0
C1801 C 0.50584 0.97984 0.10839 0.0
H1802 H 0.0153 0.47143 0.18114 0.0
H1803 H 0.00745 0.53499 0.18468 0.0
H1804 H 1.00303 0.46517 0.15478 0.0
H1805 H 0.996 0.52923 0.15831 0.0
H1806 H 0.95476 0.49915 0.11282 0.0
H1807 H 0.96339 0.50211 0.13937 0.0
H1808 H 0.02057 0.48526 0.13302 0.0
H1809 H 0.01136 0.48144 0.10649 0.0
C1810 C 0.01075 0.48393 0.17631 0.0
C1811 C 0.01243 0.50375 0.18497 0.0
C1812 C 0.004 0.48051 0.16119 0.0
C1813 C 0.99867 0.49678 0.15444 0.0
C1814 C 0.99979 0.51626 0.16318 0.0
C1815 C 0.0066 0.5197 0.17827 0.0
C1816 C 0.969 0.49583 0.11709 0.0
C1817 C 0.98242 0.49012 0.10755 0.0
C1818 C 0.97409 0.49774 0.1323 0.0
C1819 C 0.99267 0.49394 0.1383 0.0
C1820 C 0.00596 0.48803 0.12875 0.0
C1821 C 1.0009 0.48617 0.11355 0.0
H1822 H 0.4402 0.5006 0.16509 0.0
H1823 H 0.48837 0.47573 0.18145 0.0
H1824 H 0.45 0.49604 0.14018 0.0
H1825 H 0.49841 0.47156 0.15655 0.0
H1826 H 0.53436 0.50166 0.11415 0.0
H1827 H 0.52137 0.50035 0.13871 0.0
H1828 H 0.44605 0.46559 0.12026 0.0
H1829 H 0.45895 0.46643 0.09561 0.0
C1830 C 0.45255 0.49376 0.16336 0.0
C1831 C 0.46361 0.48868 0.17532 0.0
C1832 C 0.45819 0.49119 0.14908 0.0
C1833 C 0.4751 0.48359 0.14641 0.0
C1834 C 0.48561 0.47783 0.15828 0.0
C1835 C 0.47988 0.48027 0.17255 0.0
C1836 C 0.51497 0.49326 0.11529 0.0
C1837 C 0.49772 0.48414 0.10285 0.0
C1838 C 0.50753 0.49257 0.1294 0.0
C1839 C 0.48268 0.48288 0.13143 0.0
C1840 C 0.46536 0.47343 0.11904 0.0
C1841 C 0.47278 0.47397 0.10491 0.0
H1842 H 0.03339 0.51982 0.83088 0.0
H1843 H 0.95905 0.49935 0.83822 0.0
H1844 H 0.04321 0.52155 0.85716 0.0
H1845 H 0.96925 0.50249 0.8645 0.0
H1846 H 0.98694 0.48188 0.90812 0.0
H1847 H 0.97794 0.48087 0.88188 0.0
H1848 H 0.04911 0.54425 0.88032 0.0
H1849 H 0.05867 0.5444 0.90645 0.0
C1850 C 0.01918 0.51582 0.83809 0.0
C1851 C 0.99541 0.50937 0.8324 0.0
C1852 C 0.02489 0.5171 0.85319 0.0
C1853 C 0.007 0.51208 0.86296 0.0
C1854 C 0.98338 0.50612 0.85728 0.0
C1855 C 0.97763 0.50468 0.8422 0.0
C1856 C 1.00082 0.49541 0.90216 0.0
C1857 C 0.02357 0.51317 0.90941 0.0
C1858 C 0.99551 0.49506 0.88713 0.0
C1859 C 0.01275 0.51255 0.87897 0.0
C1860 C 0.03549 0.53035 0.88622 0.0
C1861 C 0.04086 0.53063 0.90126 0.0
H1862 H 0.57048 0.53014 0.83964 0.0
H1863 H 0.51129 0.45558 0.83382 0.0
H1864 H 0.55838 0.5353 0.86388 0.0
H1865 H 0.49932 0.4607 0.8579 0.0
H1866 H 0.50211 0.46952 0.90761 0.0
H1867 H 0.51497 0.46607 0.8835 0.0
H1868 H 0.52504 0.53652 0.87595 0.0
H1869 H 0.51291 0.54035 0.90037 0.0
C1870 C 0.55482 0.51492 0.84348 0.0
C1871 C 0.54205 0.49237 0.83486 0.0
C1872 C 0.54788 0.51788 0.85735 0.0
C1873 C 0.52802 0.49834 0.86287 0.0
C1874 C 0.51502 0.47596 0.85412 0.0
C1875 C 0.52192 0.47303 0.84031 0.0
C1876 C 0.50728 0.48439 0.90088 0.0
C1877 C 0.50649 0.50521 0.90593 0.0
C1878 C 0.51441 0.4823 0.88699 0.0
C1879 C 0.52093 0.50098 0.87777 0.0
C1880 C 0.5203 0.5219 0.88283 0.0
C1881 C 0.51308 0.52396 0.89675 0.0
H1882 H 0.56971 0.04664 0.84097 0.0
H1883 H 0.50297 0.04943 0.83665 0.0
H1884 H 0.56017 0.03161 0.86501 0.0
H1885 H 0.49311 0.03379 0.86042 0.0
H1886 H 0.49539 0.02978 0.90995 0.0
H1887 H 0.50657 0.04604 0.88643 0.0
H1888 H 0.53115 0.99526 0.87599 0.0
H1889 H 0.52063 0.97947 0.89975 0.0
C1890 C 0.55304 0.04411 0.84515 0.0
C1891 C 0.5371 0.0492 0.83683 0.0
C1892 C 0.54744 0.03525 0.85888 0.0
C1893 C 0.52584 0.03144 0.86468 0.0
C1894 C 0.51001 0.03671 0.85638 0.0
C1895 C 0.51554 0.04543 0.84266 0.0
C1896 C 0.5034 0.02223 0.90272 0.0
C1897 C 0.50709 0.00329 0.90678 0.0
C1898 C 0.50958 0.03139 0.88914 0.0
C1899 C 0.51971 0.02194 0.87927 0.0
C1900 C 0.52359 0.00313 0.88337 0.0
C1901 C 0.51729 0.99388 0.89693 0.0
H1902 H 0.11862 0.2431 0.49388 0.0
H1903 H 0.14818 0.3153 0.51595 0.0
H1904 H 0.12812 0.26009 0.4704 0.0
H1905 H 0.15696 0.33221 0.49243 0.0
H1906 H 0.19474 0.3556 0.4502 0.0
H1907 H 0.18468 0.3387 0.47363 0.0
H1908 H 0.11568 0.28005 0.45279 0.0
H1909 H 0.12562 0.29705 0.42936 0.0
C1910 C 0.12713 0.2626 0.49374 0.0
C1911 C 0.13266 0.27781 0.50685 0.0
C1912 C 0.13234 0.27233 0.48024 0.0
C1913 C 0.14333 0.29755 0.47949 0.0
C1914 C 0.14874 0.31274 0.49259 0.0
C1915 C 0.14343 0.303 0.50608 0.0
C1916 C 0.17728 0.33926 0.45062 0.0
C1917 C 0.16101 0.32775 0.43782 0.0
C1918 C 0.17151 0.32954 0.46408 0.0
C1919 C 0.14935 0.30799 0.46514 0.0
C1920 C 0.13307 0.29647 0.45236 0.0
C1921 C 0.1388 0.30623 0.4389 0.0
H1922 H 0.72169 0.84313 0.50939 0.0
H1923 H 0.64596 0.79944 0.51741 0.0
H1924 H 0.70961 0.83687 0.48309 0.0
H1925 H 0.63383 0.7931 0.49096 0.0
H1926 H 0.62512 0.77277 0.44067 0.0
H1927 H 0.63713 0.77466 0.4668 0.0
H1928 H 0.68774 0.85167 0.46751 0.0
H1929 H 0.67618 0.84969 0.44147 0.0
C1930 C 0.70245 0.83213 0.50551 0.0
C1931 C 0.68473 0.82207 0.51546 0.0
C1932 C 0.69554 0.82855 0.49046 0.0
C1933 C 0.67076 0.8148 0.485 0.0
C1934 C 0.65308 0.80371 0.49487 0.0
C1935 C 0.66001 0.80732 0.50999 0.0
C1936 C 0.63892 0.79004 0.44643 0.0
C1937 C 0.64969 0.8111 0.43906 0.0
C1938 C 0.64564 0.79114 0.46138 0.0
C1939 C 0.66344 0.81328 0.46916 0.0
C1940 C 0.6742 0.83428 0.46176 0.0
C1941 C 0.66738 0.83321 0.44689 0.0
H1942 H 0.11431 0.84381 0.50058 0.0
H1943 H 0.14768 0.80155 0.51219 0.0
H1944 H 0.12426 0.84205 0.47532 0.0
H1945 H 0.15769 0.79986 0.48689 0.0
H1946 H 0.15206 0.78568 0.43609 0.0
H1947 H 0.13709 0.78335 0.4604 0.0
H1948 H 0.16512 0.86076 0.46437 0.0
H1949 H 0.18009 0.86307 0.44022 0.0
C1950 C 0.12342 0.83381 0.49767 0.0
C1951 C 0.13027 0.82286 0.50835 0.0
C1952 C 0.12927 0.83298 0.48326 0.0
C1953 C 0.14183 0.82091 0.47918 0.0
C1954 C 0.14787 0.80916 0.48972 0.0
C1955 C 0.1423 0.81027 0.50419 0.0
C1956 C 0.15483 0.80211 0.44216 0.0
C1957 C 0.16733 0.82457 0.43635 0.0
C1958 C 0.14641 0.80081 0.45606 0.0
C1959 C 0.14992 0.82187 0.46424 0.0
C1960 C 0.16196 0.84421 0.45826 0.0
C1961 C 0.1707 0.84556 0.44451 0.0
H1962 H 0.65741 0.7996 0.16246 0.0
H1963 H 0.64919 0.86255 0.17015 0.0
H1964 H 0.66788 0.80152 0.18868 0.0
H1965 H 0.65955 0.86438 0.19641 0.0
H1966 H 0.65222 0.84312 0.24342 0.0
H1967 H 0.6419 0.8408 0.21712 0.0
H1968 H 0.70058 0.82735 0.20821 0.0
H1969 H 0.71042 0.82891 0.23453 0.0
C1970 C 0.65812 0.81402 0.16972 0.0
C1971 C 0.6525 0.83094 0.16421 0.0
C1972 C 0.66408 0.81509 0.18475 0.0
C1973 C 0.6645 0.83307 0.19461 0.0
C1974 C 0.65901 0.85008 0.18911 0.0
C1975 C 0.65309 0.84904 0.17407 0.0
C1976 C 0.66273 0.83938 0.23584 0.0
C1977 C 0.6821 0.83615 0.24104 0.0
C1978 C 0.657 0.83834 0.22079 0.0
C1979 C 0.67049 0.83399 0.2106 0.0
C1980 C 0.68974 0.83055 0.21579 0.0
C1981 C 0.69551 0.83167 0.23086 0.0
H1982 H 0.23869 0.86632 0.17493 0.0
H1983 H 0.17866 0.79217 0.16847 0.0
H1984 H 0.22647 0.87118 0.19918 0.0
H1985 H 0.16666 0.79698 0.1926 0.0
H1986 H 0.1689 0.80514 0.24236 0.0
H1987 H 0.18211 0.80185 0.21832 0.0
H1988 H 0.19282 0.87259 0.21096 0.0
H1989 H 0.18026 0.87622 0.23528 0.0
C1990 C 0.22284 0.85112 0.17864 0.0
C1991 C 0.20983 0.82877 0.16982 0.0
C1992 C 0.21584 0.85391 0.19252 0.0
C1993 C 0.19571 0.8344 0.19786 0.0
C1994 C 0.18256 0.8122 0.18895 0.0
C1995 C 0.18949 0.80944 0.17511 0.0
C1996 C 0.17428 0.8201 0.23568 0.0
C1997 C 0.17353 0.84094 0.24074 0.0
C1998 C 0.18162 0.81811 0.22184 0.0
C1999 C 0.18843 0.83693 0.2127 0.0
C2000 C 0.18785 0.85787 0.21778 0.0
C2001 C 0.1804 0.85982 0.23164 0.0
H2002 H 0.17945 0.33966 0.1602 0.0
H2003 H 0.22472 0.41231 0.18188 0.0
H2004 H 0.16898 0.32406 0.18395 0.0
H2005 H 0.21407 0.39681 0.20563 0.0
H2006 H 0.20839 0.35786 0.24668 0.0
H2007 H 0.21975 0.37302 0.22292 0.0
H2008 H 0.14575 0.32381 0.2037 0.0
H2009 H 0.13451 0.30848 0.22745 0.0
C2010 C 0.18707 0.35234 0.17003 0.0
C2011 C 0.20293 0.37725 0.1691 0.0
C2012 C 0.18102 0.3434 0.18368 0.0
C2013 C 0.19058 0.35914 0.19678 0.0
C2014 C 0.20663 0.38405 0.19583 0.0
C2015 C 0.21275 0.39297 0.18219 0.0
C2016 C 0.19449 0.3504 0.23741 0.0
C2017 C 0.17051 0.33195 0.239 0.0
C2018 C 0.20101 0.35911 0.22376 0.0
C2019 C 0.1837 0.34969 0.21132 0.0
C2020 C 0.1597 0.33124 0.21294 0.0
C2021 C 0.15322 0.32245 0.22658 0.0
H2022 H 0.83931 0.6153 0.84205 0.0
H2023 H 0.77107 0.61531 0.83829 0.0
H2024 H 0.84864 0.632 0.8185 0.0
H2025 H 0.78071 0.63261 0.81484 0.0
H2026 H 0.79477 0.63705 0.76573 0.0
H2027 H 0.78481 0.62095 0.78941 0.0
H2028 H 0.85942 0.66981 0.8076 0.0
H2029 H 0.86935 0.68619 0.78402 0.0
C2030 C 0.82625 0.61881 0.83618 0.0
C2031 C 0.80439 0.61387 0.84205 0.0
C2032 C 0.83174 0.62864 0.82274 0.0
C2033 C 0.81545 0.6337 0.81478 0.0
C2034 C 0.79356 0.62875 0.82063 0.0
C2035 C 0.78815 0.61905 0.83414 0.0
C2036 C 0.809 0.64462 0.77481 0.0
C2037 C 0.83291 0.66293 0.77288 0.0
C2038 C 0.80328 0.63533 0.7884 0.0
C2039 C 0.82133 0.64401 0.80041 0.0
C2040 C 0.84517 0.66242 0.79852 0.0
C2041 C 0.85087 0.67179 0.78497 0.0
H2042 H 0.35097 0.13654 0.84576 0.0
H2043 H 0.35089 0.20435 0.84913 0.0
H2044 H 0.33886 0.13091 0.8194 0.0
H2045 H 0.33887 0.19876 0.82286 0.0
H2046 H 0.34485 0.19418 0.77348 0.0
H2047 H 0.35647 0.19894 0.79979 0.0
H2048 H 0.30418 0.12306 0.80199 0.0
H2049 H 0.29314 0.1181 0.77555 0.0
C2050 C 0.34814 0.15012 0.8409 0.0
C2051 C 0.35202 0.17095 0.84952 0.0
C2052 C 0.34122 0.1469 0.82581 0.0
C2053 C 0.33803 0.16446 0.81904 0.0
C2054 C 0.34162 0.18513 0.8277 0.0
C2055 C 0.34851 0.18833 0.84276 0.0
C2056 C 0.33598 0.17847 0.77955 0.0
C2057 C 0.31807 0.15577 0.77243 0.0
C2058 C 0.34245 0.18126 0.79465 0.0
C2059 C 0.33118 0.16139 0.80298 0.0
C2060 C 0.31333 0.13866 0.79586 0.0
C2061 C 0.30681 0.13589 0.78075 0.0
H2062 H 0.76918 0.13082 0.83535 0.0
H2063 H 0.83638 0.19979 0.84429 0.0
H2064 H 0.77925 0.12692 0.81032 0.0
H2065 H 0.84636 0.19595 0.81942 0.0
H2066 H 0.86981 0.17012 0.77976 0.0
H2067 H 0.85849 0.17185 0.80454 0.0
H2068 H 0.78373 0.14508 0.78708 0.0
H2069 H 0.79488 0.1424 0.76226 0.0
C2070 C 0.78601 0.14519 0.83195 0.0
C2071 C 0.8021 0.16548 0.84185 0.0
C2072 C 0.79177 0.14298 0.81762 0.0
C2073 C 0.81372 0.16103 0.81291 0.0
C2074 C 0.82958 0.18145 0.82278 0.0
C2075 C 0.82385 0.18365 0.83705 0.0
C2076 C 0.85089 0.16428 0.7812 0.0
C2077 C 0.83327 0.15614 0.76901 0.0
C2078 C 0.84445 0.16554 0.79541 0.0
C2079 C 0.82023 0.15874 0.7978 0.0
C2080 C 0.80251 0.15028 0.78563 0.0
C2081 C 0.80897 0.14903 0.7714 0.0
H2082 H 0.33021 0.13883 0.49582 0.0
H2083 H 0.33017 0.20652 0.50213 0.0
H2084 H 0.33973 0.14089 0.52216 0.0
H2085 H 0.33941 0.20837 0.52854 0.0
H2086 H 0.32636 0.18598 0.5757 0.0
H2087 H 0.31868 0.18562 0.54929 0.0
H2088 H 0.37336 0.16568 0.54178 0.0
H2089 H 0.38133 0.16636 0.56818 0.0
C2090 C 0.33254 0.15431 0.5028 0.0
C2091 C 0.32945 0.17253 0.49686 0.0
C2092 C 0.33794 0.15545 0.5179 0.0
C2093 C 0.34028 0.17477 0.52741 0.0
C2094 C 0.33738 0.19308 0.52149 0.0
C2095 C 0.33207 0.192 0.50637 0.0
C2096 C 0.33696 0.18181 0.56843 0.0
C2097 C 0.35443 0.17615 0.57406 0.0
C2098 C 0.33254 0.18158 0.55331 0.0
C2099 C 0.3454 0.17559 0.54348 0.0
C2100 C 0.36293 0.17003 0.54909 0.0
C2101 C 0.36744 0.17037 0.56421 0.0
H2102 H 0.8952 0.15062 0.51433 0.0
H2103 H 0.86029 0.18743 0.49541 0.0
H2104 H 0.8843 0.15765 0.53844 0.0
H2105 H 0.85018 0.19532 0.51969 0.0
H2106 H 0.80964 0.1757 0.56171 0.0
H2107 H 0.82259 0.17248 0.53751 0.0
H2108 H 0.89317 0.18913 0.55777 0.0
H2109 H 0.88015 0.19218 0.58193 0.0
C2110 C 0.88532 0.16035 0.51534 0.0
C2111 C 0.87849 0.16832 0.50292 0.0
C2112 C 0.8793 0.16463 0.5292 0.0
C2113 C 0.86631 0.17702 0.53101 0.0
C2114 C 0.85994 0.18547 0.51865 0.0
C2115 C 0.866 0.18121 0.50477 0.0
C2116 C 0.82801 0.17896 0.56097 0.0
C2117 C 0.84378 0.18399 0.57375 0.0
C2118 C 0.83546 0.17715 0.5471 0.0
C2119 C 0.85889 0.18042 0.54569 0.0
C2120 C 0.87485 0.18605 0.55847 0.0
C2121 C 0.86738 0.1878 0.57232 0.0
H2122 H 0.88952 0.75072 0.51578 0.0
H2123 H 0.84804 0.67757 0.4943 0.0
H2124 H 0.87909 0.73514 0.53956 0.0
H2125 H 0.83789 0.6619 0.51804 0.0
H2126 H 0.80272 0.64386 0.561 0.0
H2127 H 0.81358 0.65986 0.53739 0.0
H2128 H 0.8861 0.71278 0.55726 0.0
H2129 H 0.87504 0.69696 0.5809 0.0
C2130 C 0.87842 0.73127 0.51615 0.0
C2131 C 0.86957 0.71542 0.50311 0.0
C2132 C 0.87244 0.72231 0.5298 0.0
C2133 C 0.85753 0.69722 0.53079 0.0
C2134 C 0.84898 0.68136 0.51774 0.0
C2135 C 0.85486 0.69034 0.50409 0.0
C2136 C 0.82102 0.65883 0.56031 0.0
C2137 C 0.83799 0.66911 0.57287 0.0
C2138 C 0.8273 0.668 0.54674 0.0
C2139 C 0.85078 0.68762 0.54533 0.0
C2140 C 0.86773 0.69792 0.55792 0.0
C2141 C 0.8614 0.68883 0.57151 0.0
loop_
_geom_bond_atom_site_label_1
_geom_bond_atom_site_label_2
_geom_bond_distance
_geom_bond_site_symmetry_2
_ccdc_geom_bond_type
C0 C1 1.386 . S
C0 C2 1.397 . S
C0 H24 0.931 . S
C1 C0 1.386 . S
C1 C5 1.397 . S
C2 C0 1.397 . S
C2 C3 1.384 . S
C2 H25 0.930 . S
C3 C2 1.384 . S
C3 C4 1.377 . S
C3 C6 1.481 . S
C4 C3 1.377 . S
C4 C5 1.389 . S
C4 H26 0.929 . S
C5 C1 1.397 . S
C5 C4 1.389 . S
C5 H27 0.931 . S
C6 C3 1.481 . S
C6 C7 1.387 . S
C6 C11 1.390 . S
C7 C6 1.387 . S
C7 C8 1.401 . S
C7 H28 0.930 . S
C8 C7 1.401 . S
C8 C9 1.376 . S
C8 C17 1.511 . S
C9 C8 1.376 . S
C9 C10 1.392 . S
C9 H30 0.931 . S
C10 C9 1.392 . S
C10 C11 1.361 . S
C10 C12 1.500 . S
C11 C6 1.390 . S
C11 C10 1.361 . S
C11 H29 0.931 . S
C12 C10 1.500 . S
C12 C13 1.371 . S
C12 C14 1.365 . S
C13 C12 1.371 . S
C13 C23 1.386 . S
C13 H31 0.931 . S
C14 C12 1.365 . S
C14 C15 1.409 . S
C14 H32 0.929 . S
C15 C14 1.409 . S
C15 C16 1.380 . S
C15 H33 0.930 . S
C16 C15 1.380 . S
C16 C23 1.357 . S
C17 C8 1.511 . S
C17 C18 1.341 . S
C17 C19 1.371 . S
C18 C17 1.341 . S
C18 C22 1.394 . S
C18 H34 0.930 . S
C19 C17 1.371 . S
C19 C20 1.392 . S
C19 H35 0.931 . S
C20 C19 1.392 . S
C20 C21 1.331 . S
C20 H38 0.932 . S
C21 C20 1.331 . S
C21 C22 1.336 . S
C22 C18 1.394 . S
C22 C21 1.336 . S
C22 H37 0.929 . S
C23 C13 1.386 . S
C23 C16 1.357 . S
C23 H36 0.928 . S
H24 C0 0.931 . S
H25 C2 0.930 . S
H26 C4 0.929 . S
H27 C5 0.931 . S
H28 C7 0.930 . S
H29 C11 0.931 . S
H30 C9 0.931 . S
H31 C13 0.931 . S
H32 C14 0.929 . S
H33 C15 0.930 . S
H34 C18 0.930 . S
H35 C19 0.931 . S
H36 C23 0.928 . S
H37 C22 0.929 . S
H38 C20 0.932 . S
C39 C40 1.386 . S
C39 C41 1.397 . S
C39 H63 0.931 . S
C40 C39 1.386 . S
C40 C44 1.397 . S
C41 C39 1.397 . S
C41 C42 1.384 . S
C41 H64 0.930 . S
C42 C41 1.384 . S
C42 C43 1.377 . S
C42 C45 1.481 . S
C43 C42 1.377 . S
C43 C44 1.389 . S
C43 H65 0.929 . S
C44 C40 1.397 . S
C44 C43 1.389 . S
C44 H66 0.931 . S
C45 C42 1.481 . S
C45 C46 1.387 . S
C45 C50 1.390 . S
C46 C45 1.387 . S
C46 C47 1.401 . S
C46 H67 0.930 . S
C47 C46 1.401 . S
C47 C48 1.376 . S
C47 C56 1.511 . S
C48 C47 1.376 . S
C48 C49 1.392 . S
C48 H69 0.931 . S
C49 C48 1.392 . S
C49 C50 1.361 . S
C49 C51 1.500 . S
C50 C45 1.390 . S
C50 C49 1.361 . S
C50 H68 0.931 . S
C51 C49 1.500 . S
C51 C52 1.371 . S
C51 C53 1.365 . S
C52 C51 1.371 . S
C52 C62 1.386 . S
C52 H70 0.931 . S
C53 C51 1.365 . S
C53 C54 1.409 . S
C53 H71 0.929 . S
C54 C53 1.409 . S
C54 C55 1.380 . S
C54 H72 0.930 . S
C55 C54 1.380 . S
C55 C62 1.357 . S
C56 C47 1.511 . S
C56 C57 1.341 . S
C56 C58 1.371 . S
C57 C56 1.341 . S
C57 C61 1.394 . S
C57 H73 0.930 . S
C58 C56 1.371 . S
C58 C59 1.392 . S
C58 H74 0.931 . S
C59 C58 1.392 . S
C59 C60 1.331 . S
C59 H77 0.932 . S
C60 C59 1.331 . S
C60 C61 1.336 . S
C61 C57 1.394 . S
C61 C60 1.336 . S
C61 H76 0.929 . S
C62 C52 1.386 . S
C62 C55 1.357 . S
C62 H75 0.928 . S
H63 C39 0.931 . S
H64 C41 0.930 . S
H65 C43 0.929 . S
H66 C44 0.931 . S
H67 C46 0.930 . S
H68 C50 0.931 . S
H69 C48 0.931 . S
H70 C52 0.931 . S
H71 C53 0.929 . S
H72 C54 0.930 . S
H73 C57 0.930 . S
H74 C58 0.931 . S
H75 C62 0.928 . S
H76 C61 0.929 . S
H77 C59 0.932 . S
C78 C79 1.386 . S
C78 C80 1.397 . S
C78 H102 0.931 . S
C79 C78 1.386 . S
C79 C83 1.397 . S
C80 C78 1.397 . S
C80 C81 1.384 . S
C80 H103 0.930 . S
C81 C80 1.384 . S
C81 C82 1.377 . S
C81 C84 1.481 . S
C82 C81 1.377 . S
C82 C83 1.389 . S
C82 H104 0.929 . S
C83 C79 1.397 . S
C83 C82 1.389 . S
C83 H105 0.931 . S
C84 C81 1.481 . S
C84 C85 1.387 . S
C84 C89 1.390 . S
C85 C84 1.387 . S
C85 C86 1.401 . S
C85 H106 0.930 . S
C86 C85 1.401 . S
C86 C87 1.376 . S
C86 C95 1.511 . S
C87 C86 1.376 . S
C87 C88 1.392 . S
C87 H108 0.931 . S
C88 C87 1.392 . S
C88 C89 1.361 . S
C88 C90 1.500 . S
C89 C84 1.390 . S
C89 C88 1.361 . S
C89 H107 0.931 . S
C90 C88 1.500 . S
C90 C91 1.371 . S
C90 C92 1.365 . S
C91 C90 1.371 . S
C91 C101 1.386 . S
C91 H109 0.931 . S
C92 C90 1.365 . S
C92 C93 1.409 . S
C92 H110 0.929 . S
C93 C92 1.409 . S
C93 C94 1.380 . S
C93 H111 0.930 . S
C94 C93 1.380 . S
C94 C101 1.357 . S
C95 C86 1.511 . S
C95 C96 1.341 . S
C95 C97 1.371 . S
C96 C95 1.341 . S
C96 C100 1.394 . S
C96 H112 0.930 . S
C97 C95 1.371 . S
C97 C98 1.392 . S
C97 H113 0.931 . S
C98 C97 1.392 . S
C98 C99 1.331 . S
C98 H116 0.932 . S
C99 C98 1.331 . S
C99 C100 1.336 . S
C100 C96 1.394 . S
C100 C99 1.336 . S
C100 H115 0.929 . S
C101 C91 1.386 . S
C101 C94 1.357 . S
C101 H114 0.928 . S
H102 C78 0.931 . S
H103 C80 0.930 . S
H104 C82 0.929 . S
H105 C83 0.931 . S
H106 C85 0.930 . S
H107 C89 0.931 . S
H108 C87 0.931 . S
H109 C91 0.931 . S
H110 C92 0.929 . S
H111 C93 0.930 . S
H112 C96 0.930 . S
H113 C97 0.931 . S
H114 C101 0.928 . S
H115 C100 0.929 . S
H116 C98 0.932 . S
C117 C118 1.386 . S
C117 C119 1.397 . S
C117 H141 0.931 . S
C118 C117 1.386 . S
C118 C122 1.397 . S
C119 C117 1.397 . S
C119 C120 1.384 . S
C119 H142 0.930 . S
C120 C119 1.384 . S
C120 C121 1.377 . S
C120 C123 1.481 . S
C121 C120 1.377 . S
C121 C122 1.389 . S
C121 H143 0.929 . S
C122 C118 1.397 . S
C122 C121 1.389 . S
C122 H144 0.931 . S
C123 C120 1.481 . S
C123 C124 1.387 . S
C123 C128 1.390 . S
C124 C123 1.387 . S
C124 C125 1.401 . S
C124 H145 0.930 . S
C125 C124 1.401 . S
C125 C126 1.376 . S
C125 C134 1.511 . S
C126 C125 1.376 . S
C126 C127 1.392 . S
C126 H147 0.931 . S
C127 C126 1.392 . S
C127 C128 1.361 . S
C127 C129 1.500 . S
C128 C123 1.390 . S
C128 C127 1.361 . S
C128 H146 0.931 . S
C129 C127 1.500 . S
C129 C130 1.371 . S
C129 C131 1.365 . S
C130 C129 1.371 . S
C130 C140 1.386 . S
C130 H148 0.931 . S
C131 C129 1.365 . S
C131 C132 1.409 . S
C131 H149 0.929 . S
C132 C131 1.409 . S
C132 C133 1.380 . S
C132 H150 0.930 . S
C133 C132 1.380 . S
C133 C140 1.357 . S
C134 C125 1.511 . S
C134 C135 1.341 . S
C134 C136 1.371 . S
C135 C134 1.341 . S
C135 C139 1.394 . S
C135 H151 0.930 . S
C136 C134 1.371 . S
C136 C137 1.392 . S
C136 H152 0.931 . S
C137 C136 1.392 . S
C137 C138 1.331 . S
C137 H155 0.932 . S
C138 C137 1.331 . S
C138 C139 1.336 . S
C139 C135 1.394 . S
C139 C138 1.336 . S
C139 H154 0.929 . S
C140 C130 1.386 . S
C140 C133 1.357 . S
C140 H153 0.928 . S
H141 C117 0.931 . S
H142 C119 0.930 . S
H143 C121 0.929 . S
H144 C122 0.931 . S
H145 C124 0.930 . S
H146 C128 0.931 . S
H147 C126 0.931 . S
H148 C130 0.931 . S
H149 C131 0.929 . S
H150 C132 0.930 . S
H151 C135 0.930 . S
H152 C136 0.931 . S
H153 C140 0.928 . S
H154 C139 0.929 . S
H155 C137 0.932 . S
C156 C157 1.386 . S
C156 C158 1.397 . S
C156 H180 0.931 . S
C157 C156 1.386 . S
C157 C161 1.397 . S
C158 C156 1.397 . S
C158 C159 1.384 . S
C158 H181 0.930 . S
C159 C158 1.384 . S
C159 C160 1.377 . S
C159 C162 1.481 . S
C160 C159 1.377 . S
C160 C161 1.389 . S
C160 H182 0.929 . S
C161 C157 1.397 . S
C161 C160 1.389 . S
C161 H183 0.931 . S
C162 C159 1.481 . S
C162 C163 1.387 . S
C162 C167 1.390 . S
C163 C162 1.387 . S
C163 C164 1.401 . S
C163 H184 0.930 . S
C164 C163 1.401 . S
C164 C165 1.376 . S
C164 C173 1.511 . S
C165 C164 1.376 . S
C165 C166 1.392 . S
C165 H186 0.931 . S
C166 C165 1.392 . S
C166 C167 1.361 . S
C166 C168 1.500 . S
C167 C162 1.390 . S
C167 C166 1.361 . S
C167 H185 0.931 . S
C168 C166 1.500 . S
C168 C169 1.371 . S
C168 C170 1.365 . S
C169 C168 1.371 . S
C169 C179 1.386 . S
C169 H187 0.931 . S
C170 C168 1.365 . S
C170 C171 1.409 . S
C170 H188 0.929 . S
C171 C170 1.409 . S
C171 C172 1.380 . S
C171 H189 0.930 . S
C172 C171 1.380 . S
C172 C179 1.357 . S
C173 C164 1.511 . S
C173 C174 1.341 . S
C173 C175 1.371 . S
C174 C173 1.341 . S
C174 C178 1.394 . S
C174 H190 0.930 . S
C175 C173 1.371 . S
C175 C176 1.392 . S
C175 H191 0.931 . S
C176 C175 1.392 . S
C176 C177 1.331 . S
C176 H194 0.932 . S
C177 C176 1.331 . S
C177 C178 1.336 . S
C178 C174 1.394 . S
C178 C177 1.336 . S
C178 H193 0.929 . S
C179 C169 1.386 . S
C179 C172 1.357 . S
C179 H192 0.928 . S
H180 C156 0.931 . S
H181 C158 0.930 . S
H182 C160 0.929 . S
H183 C161 0.931 . S
H184 C163 0.930 . S
H185 C167 0.931 . S
H186 C165 0.931 . S
H187 C169 0.931 . S
H188 C170 0.929 . S
H189 C171 0.930 . S
H190 C174 0.930 . S
H191 C175 0.931 . S
H192 C179 0.928 . S
H193 C178 0.929 . S
H194 C176 0.932 . S
C195 C196 1.386 . S
C195 C197 1.397 . S
C195 H219 0.931 . S
C196 C195 1.386 . S
C196 C200 1.397 . S
C197 C195 1.397 . S
C197 C198 1.384 . S
C197 H220 0.930 . S
C198 C197 1.384 . S
C198 C199 1.377 . S
C198 C201 1.481 . S
C199 C198 1.377 . S
C199 C200 1.389 . S
C199 H221 0.929 . S
C200 C196 1.397 . S
C200 C199 1.389 . S
C200 H222 0.931 . S
C201 C198 1.481 . S
C201 C202 1.387 . S
C201 C206 1.390 . S
C202 C201 1.387 . S
C202 C203 1.401 . S
C202 H223 0.930 . S
C203 C202 1.401 . S
C203 C204 1.376 . S
C203 C212 1.511 . S
C204 C203 1.376 . S
C204 C205 1.392 . S
C204 H225 0.931 . S
C205 C204 1.392 . S
C205 C206 1.361 . S
C205 C207 1.500 . S
C206 C201 1.390 . S
C206 C205 1.361 . S
C206 H224 0.931 . S
C207 C205 1.500 . S
C207 C208 1.371 . S
C207 C209 1.365 . S
C208 C207 1.371 . S
C208 C218 1.386 . S
C208 H226 0.931 . S
C209 C207 1.365 . S
C209 C210 1.409 . S
C209 H227 0.929 . S
C210 C209 1.409 . S
C210 C211 1.380 . S
C210 H228 0.930 . S
C211 C210 1.380 . S
C211 C218 1.357 . S
C212 C203 1.511 . S
C212 C213 1.341 . S
C212 C214 1.371 . S
C213 C212 1.341 . S
C213 C217 1.394 . S
C213 H229 0.930 . S
C214 C212 1.371 . S
C214 C215 1.392 . S
C214 H230 0.931 . S
C215 C214 1.392 . S
C215 C216 1.331 . S
C215 H233 0.932 . S
C216 C215 1.331 . S
C216 C217 1.336 . S
C217 C213 1.394 . S
C217 C216 1.336 . S
C217 H232 0.929 . S
C218 C208 1.386 . S
C218 C211 1.357 . S
C218 H231 0.928 . S
H219 C195 0.931 . S
H220 C197 0.930 . S
H221 C199 0.929 . S
H222 C200 0.931 . S
H223 C202 0.930 . S
H224 C206 0.931 . S
H225 C204 0.931 . S
H226 C208 0.931 . S
H227 C209 0.929 . S
H228 C210 0.930 . S
H229 C213 0.930 . S
H230 C214 0.931 . S
H231 C218 0.928 . S
H232 C217 0.929 . S
H233 C215 0.932 . S
C234 C235 1.386 . S
C234 C236 1.397 . S
C234 H258 0.931 . S
C235 C234 1.386 . S
C235 C239 1.397 1_655 S
C236 C234 1.397 . S
C236 C237 1.384 . S
C236 H259 0.930 . S
C237 C236 1.384 . S
C237 C238 1.377 . S
C237 C240 1.481 . S
C238 C237 1.377 . S
C238 C239 1.389 1_655 S
C238 H260 0.889 1_655 S
C239 C235 1.397 1_455 S
C239 C238 1.389 1_455 S
C239 H261 0.931 . S
C240 C237 1.481 . S
C240 C241 1.387 . S
C240 C245 1.390 . S
C241 C240 1.387 . S
C241 C242 1.401 . S
C241 H262 0.930 . S
C242 C241 1.401 . S
C242 C243 1.376 . S
C242 C251 1.511 . S
C243 C242 1.376 . S
C243 C244 1.392 . S
C243 H264 0.931 . S
C244 C243 1.392 . S
C244 C245 1.361 . S
C244 C246 1.500 . S
C245 C240 1.390 . S
C245 C244 1.361 . S
C245 H263 0.931 . S
C246 C244 1.500 . S
C246 C247 1.371 . S
C246 C248 1.365 . S
C247 C246 1.371 . S
C247 C257 1.386 . S
C247 H265 0.931 . S
C248 C246 1.365 . S
C248 C249 1.409 . S
C248 H266 0.929 . S
C249 C248 1.409 . S
C249 C250 1.380 . S
C249 H267 0.930 . S
C250 C249 1.380 . S
C250 C257 1.357 . S
C251 C242 1.511 . S
C251 C252 1.341 . S
C251 C253 1.371 . S
C252 C251 1.341 . S
C252 C256 1.394 . S
C252 H268 0.930 . S
C253 C251 1.371 . S
C253 C254 1.392 . S
C253 H269 0.931 . S
C254 C253 1.392 . S
C254 C255 1.331 . S
C254 H272 0.932 . S
C255 C254 1.331 . S
C255 C256 1.336 . S
C256 C252 1.394 . S
C256 C255 1.336 . S
C256 H271 0.929 . S
C257 C247 1.386 . S
C257 C250 1.357 . S
C257 H270 0.928 . S
H258 C234 0.931 . S
H259 C236 0.930 . S
H260 C238 0.889 1_455 S
H261 C239 0.931 . S
H262 C241 0.930 . S
H263 C245 0.931 . S
H264 C243 0.931 . S
H265 C247 0.931 . S
H266 C248 0.929 . S
H267 C249 0.930 . S
H268 C252 0.930 . S
H269 C253 0.931 . S
H270 C257 0.928 . S
H271 C256 0.929 . S
H272 C254 0.932 . S
C273 C274 1.386 . S
C273 C275 1.397 . S
C273 H297 0.931 . S
C274 C273 1.386 . S
C274 C278 1.397 . S
C275 C273 1.397 . S
C275 C276 1.384 . S
C275 H298 0.930 . S
C276 C275 1.384 . S
C276 C277 1.377 . S
C276 C279 1.481 . S
C277 C276 1.377 . S
C277 C278 1.389 . S
C277 H299 0.929 . S
C278 C274 1.397 . S
C278 C277 1.389 . S
C278 H300 0.931 . S
C279 C276 1.481 . S
C279 C280 1.387 . S
C279 C284 1.390 . S
C280 C279 1.387 . S
C280 C281 1.401 . S
C280 H301 0.930 . S
C281 C280 1.401 . S
C281 C282 1.376 . S
C281 C290 1.511 . S
C282 C281 1.376 . S
C282 C283 1.392 . S
C282 H303 0.931 . S
C283 C282 1.392 . S
C283 C284 1.361 . S
C283 C285 1.500 . S
C284 C279 1.390 . S
C284 C283 1.361 . S
C284 H302 0.931 . S
C285 C283 1.500 . S
C285 C286 1.371 . S
C285 C287 1.365 . S
C286 C285 1.371 . S
C286 C296 1.386 . S
C286 H304 0.931 . S
C287 C285 1.365 . S
C287 C288 1.409 . S
C287 H305 0.929 . S
C288 C287 1.409 . S
C288 C289 1.380 . S
C288 H306 0.930 . S
C289 C288 1.380 . S
C289 C296 1.357 . S
C290 C281 1.511 . S
C290 C291 1.341 . S
C290 C292 1.371 . S
C291 C290 1.341 . S
C291 C295 1.394 . S
C291 H307 0.930 . S
C292 C290 1.371 . S
C292 C293 1.392 . S
C292 H308 0.931 . S
C293 C292 1.392 . S
C293 C294 1.331 . S
C293 H311 0.932 . S
C294 C293 1.331 . S
C294 C295 1.336 . S
C295 C291 1.394 . S
C295 C294 1.336 . S
C295 H310 0.929 . S
C296 C286 1.386 . S
C296 C289 1.357 . S
C296 H309 0.928 . S
H297 C273 0.931 . S
H298 C275 0.930 . S
H299 C277 0.929 . S
H300 C278 0.931 . S
H301 C280 0.930 . S
H302 C284 0.931 . S
H303 C282 0.931 . S
H304 C286 0.931 . S
H305 C287 0.929 . S
H306 C288 0.930 . S
H307 C291 0.930 . S
H308 C292 0.931 . S
H309 C296 0.928 . S
H310 C295 0.929 . S
H311 C293 0.932 . S
C312 C313 1.386 . S
C312 C314 1.397 . S
C312 H336 0.931 . S
C313 C312 1.386 . S
C313 C317 1.397 . S
C314 C312 1.397 . S
C314 C315 1.384 . S
C314 H337 0.930 . S
C315 C314 1.384 . S
C315 C316 1.377 . S
C315 C318 1.481 . S
C316 C315 1.377 . S
C316 C317 1.389 . S
C316 H338 0.929 . S
C317 C313 1.397 . S
C317 C316 1.389 . S
C317 H339 0.931 . S
C318 C315 1.481 . S
C318 C319 1.387 . S
C318 C323 1.390 . S
C319 C318 1.387 . S
C319 C320 1.401 . S
C319 H340 0.930 . S
C320 C319 1.401 . S
C320 C321 1.376 . S
C320 C329 1.511 . S
C321 C320 1.376 . S
C321 C322 1.392 . S
C321 H342 0.931 . S
C322 C321 1.392 . S
C322 C323 1.361 . S
C322 C324 1.500 . S
C323 C318 1.390 . S
C323 C322 1.361 . S
C323 H341 0.931 . S
C324 C322 1.500 . S
C324 C325 1.371 . S
C324 C326 1.365 . S
C325 C324 1.371 . S
C325 C335 1.386 . S
C325 H343 0.931 . S
C326 C324 1.365 . S
C326 C327 1.409 . S
C326 H344 0.929 . S
C327 C326 1.409 . S
C327 C328 1.380 . S
C327 H345 0.930 . S
C328 C327 1.380 . S
C328 C335 1.357 . S
C329 C320 1.511 . S
C329 C330 1.341 . S
C329 C331 1.371 . S
C330 C329 1.341 . S
C330 C334 1.394 . S
C330 H346 0.930 . S
C331 C329 1.371 . S
C331 C332 1.392 . S
C331 H347 0.931 . S
C332 C331 1.392 . S
C332 C333 1.331 . S
C332 H350 0.932 . S
C333 C332 1.331 . S
C333 C334 1.336 . S
C334 C330 1.394 . S
C334 C333 1.336 . S
C334 H349 0.929 . S
C335 C325 1.386 . S
C335 C328 1.357 . S
C335 H348 0.928 . S
H336 C312 0.931 . S
H337 C314 0.930 . S
H338 C316 0.929 . S
H339 C317 0.931 . S
H340 C319 0.930 . S
H341 C323 0.931 . S
H342 C321 0.931 . S
H343 C325 0.931 . S
H344 C326 0.929 . S
H345 C327 0.930 . S
H346 C330 0.930 . S
H347 C331 0.931 . S
H348 C335 0.928 . S
H349 C334 0.929 . S
H350 C332 0.932 . S
C351 C352 1.386 . S
C351 C353 1.397 . S
C351 H375 0.931 . S
C352 C351 1.386 . S
C352 C356 1.397 . S
C353 C351 1.397 . S
C353 C354 1.384 . S
C353 H376 0.930 . S
C354 C353 1.384 . S
C354 C355 1.377 . S
C354 C357 1.481 . S
C355 C354 1.377 . S
C355 C356 1.389 . S
C355 H377 0.929 . S
C356 C352 1.397 . S
C356 C355 1.389 . S
C356 H378 0.931 . S
C357 C354 1.481 . S
C357 C358 1.387 . S
C357 C362 1.390 . S
C358 C357 1.387 . S
C358 C359 1.401 . S
C358 H379 0.930 . S
C359 C358 1.401 . S
C359 C360 1.376 . S
C359 C368 1.511 . S
C360 C359 1.376 . S
C360 C361 1.392 . S
C360 H381 0.931 . S
C361 C360 1.392 . S
C361 C362 1.361 . S
C361 C363 1.500 . S
C362 C357 1.390 . S
C362 C361 1.361 . S
C362 H380 0.931 . S
C363 C361 1.500 . S
C363 C364 1.371 . S
C363 C365 1.365 . S
C364 C363 1.371 . S
C364 C374 1.386 . S
C364 H382 0.931 . S
C365 C363 1.365 . S
C365 C366 1.409 . S
C365 H383 0.929 . S
C366 C365 1.409 . S
C366 C367 1.380 . S
C366 H384 0.930 . S
C367 C366 1.380 . S
C367 C374 1.357 . S
C368 C359 1.511 . S
C368 C369 1.341 . S
C368 C370 1.371 . S
C369 C368 1.341 . S
C369 C373 1.394 . S
C369 H385 0.930 . S
C370 C368 1.371 . S
C370 C371 1.392 . S
C370 H386 0.931 . S
C371 C370 1.392 . S
C371 C372 1.331 . S
C371 H389 0.932 . S
C372 C371 1.331 . S
C372 C373 1.336 . S
C373 C369 1.394 . S
C373 C372 1.336 . S
C373 H388 0.929 . S
C374 C364 1.386 . S
C374 C367 1.357 . S
C374 H387 0.928 . S
H375 C351 0.931 . S
H376 C353 0.930 . S
H377 C355 0.929 . S
H378 C356 0.931 . S
H379 C358 0.930 . S
H380 C362 0.931 . S
H381 C360 0.931 . S
H382 C364 0.931 . S
H383 C365 0.929 . S
H384 C366 0.930 . S
H385 C369 0.930 . S
H386 C370 0.931 . S
H387 C374 0.928 . S
H388 C373 0.929 . S
H389 C371 0.932 . S
C390 C391 1.386 . S
C390 C392 1.397 . S
C390 H414 0.931 . S
C391 C390 1.386 . S
C391 C395 1.397 . S
C392 C390 1.397 . S
C392 C393 1.384 . S
C392 H415 0.930 . S
C393 C392 1.384 . S
C393 C394 1.377 . S
C393 C396 1.481 . S
C394 C393 1.377 . S
C394 C395 1.389 . S
C394 H416 0.929 . S
C395 C391 1.397 . S
C395 C394 1.389 . S
C395 H417 0.931 . S
C396 C393 1.481 . S
C396 C397 1.387 . S
C396 C401 1.390 . S
C397 C396 1.387 . S
C397 C398 1.401 . S
C397 H418 0.930 . S
C398 C397 1.401 . S
C398 C399 1.376 . S
C398 C407 1.511 . S
C399 C398 1.376 . S
C399 C400 1.392 . S
C399 H420 0.931 . S
C400 C399 1.392 . S
C400 C401 1.361 . S
C400 C402 1.500 . S
C401 C396 1.390 . S
C401 C400 1.361 . S
C401 H419 0.931 . S
C402 C400 1.500 . S
C402 C403 1.371 . S
C402 C404 1.365 . S
C403 C402 1.371 . S
C403 C413 1.386 . S
C403 H421 0.931 . S
C404 C402 1.365 . S
C404 C405 1.409 . S
C404 H422 0.929 . S
C405 C404 1.409 . S
C405 C406 1.380 . S
C405 H423 0.930 . S
C406 C405 1.380 . S
C406 C413 1.357 . S
C407 C398 1.511 . S
C407 C408 1.341 . S
C407 C409 1.371 . S
C408 C407 1.341 . S
C408 C412 1.394 . S
C408 H424 0.930 . S
C409 C407 1.371 . S
C409 C410 1.392 . S
C409 H425 0.931 . S
C410 C409 1.392 . S
C410 C411 1.331 . S
C410 H428 0.932 . S
C411 C410 1.331 . S
C411 C412 1.336 . S
C412 C408 1.394 . S
C412 C411 1.336 . S
C412 H427 0.929 . S
C413 C403 1.386 . S
C413 C406 1.357 . S
C413 H426 0.928 . S
H414 C390 0.931 . S
H415 C392 0.930 . S
H416 C394 0.929 . S
H417 C395 0.931 . S
H418 C397 0.930 . S
H419 C401 0.931 . S
H420 C399 0.931 . S
H421 C403 0.931 . S
H422 C404 0.929 . S
H423 C405 0.930 . S
H424 C408 0.930 . S
H425 C409 0.931 . S
H426 C413 0.928 . S
H427 C412 0.929 . S
H428 C410 0.932 . S
C429 C430 1.386 . S
C429 C431 1.397 . S
C429 H453 0.931 . S
C430 C429 1.386 . S
C430 C434 1.397 . S
C431 C429 1.397 . S
C431 C432 1.384 . S
C431 H454 0.930 . S
C432 C431 1.384 . S
C432 C433 1.377 . S
C432 C435 1.481 . S
C433 C432 1.377 . S
C433 C434 1.389 . S
C433 H455 0.929 . S
C434 C430 1.397 . S
C434 C433 1.389 . S
C434 H456 0.931 . S
C435 C432 1.481 . S
C435 C436 1.387 . S
C435 C440 1.390 . S
C436 C435 1.387 . S
C436 C437 1.401 . S
C436 H457 0.930 . S
C437 C436 1.401 . S
C437 C438 1.376 . S
C437 C446 1.511 . S
C438 C437 1.376 . S
C438 C439 1.392 . S
C438 H459 0.931 . S
C439 C438 1.392 . S
C439 C440 1.361 . S
C439 C441 1.500 . S
C440 C435 1.390 . S
C440 C439 1.361 . S
C440 H458 0.931 . S
C441 C439 1.500 . S
C441 C442 1.371 . S
C441 C443 1.365 . S
C442 C441 1.371 . S
C442 C452 1.386 . S
C442 H460 0.931 . S
C443 C441 1.365 . S
C443 C444 1.409 . S
C443 H461 0.929 . S
C444 C443 1.409 . S
C444 C445 1.380 . S
C444 H462 0.930 . S
C445 C444 1.380 . S
C445 C452 1.357 . S
C446 C437 1.511 . S
C446 C447 1.341 . S
C446 C448 1.371 . S
C447 C446 1.341 . S
C447 C451 1.394 . S
C447 H463 0.930 . S
C448 C446 1.371 . S
C448 C449 1.392 . S
C448 H464 0.931 . S
C449 C448 1.392 . S
C449 C450 1.331 . S
C449 H467 0.932 . S
C450 C449 1.331 . S
C450 C451 1.336 . S
C451 C447 1.394 . S
C451 C450 1.336 . S
C451 H466 0.929 . S
C452 C442 1.386 . S
C452 C445 1.357 . S
C452 H465 0.928 . S
H453 C429 0.931 . S
H454 C431 0.930 . S
H455 C433 0.929 . S
H456 C434 0.931 . S
H457 C436 0.930 . S
H458 C440 0.931 . S
H459 C438 0.931 . S
H460 C442 0.931 . S
H461 C443 0.929 . S
H462 C444 0.930 . S
H463 C447 0.930 . S
H464 C448 0.931 . S
H465 C452 0.928 . S
H466 C451 0.929 . S
H467 C449 0.932 . S
C468 C469 1.386 . S
C468 C470 1.397 . S
C468 H492 0.931 . S
C469 C468 1.386 . S
C469 C473 1.397 . S
C470 C468 1.397 . S
C470 C471 1.384 . S
C470 H493 0.930 . S
C471 C470 1.384 . S
C471 C472 1.377 . S
C471 C474 1.481 . S
C472 C471 1.377 . S
C472 C473 1.389 . S
C472 H494 0.929 . S
C473 C469 1.397 . S
C473 C472 1.389 . S
C473 H495 0.931 . S
C474 C471 1.481 . S
C474 C475 1.387 . S
C474 C479 1.390 . S
C475 C474 1.387 . S
C475 C476 1.401 . S
C475 H496 0.930 . S
C476 C475 1.401 . S
C476 C477 1.376 . S
C476 C485 1.511 . S
C477 C476 1.376 . S
C477 C478 1.392 . S
C477 H498 0.931 . S
C478 C477 1.392 . S
C478 C479 1.361 . S
C478 C480 1.500 . S
C479 C474 1.390 . S
C479 C478 1.361 . S
C479 H497 0.931 . S
C480 C478 1.500 . S
C480 C481 1.371 . S
C480 C482 1.365 . S
C481 C480 1.371 . S
C481 C491 1.386 . S
C481 H499 0.931 . S
C482 C480 1.365 . S
C482 C483 1.409 . S
C482 H500 0.929 . S
C483 C482 1.409 . S
C483 C484 1.380 . S
C483 H501 0.930 . S
C484 C483 1.380 . S
C484 C491 1.357 . S
C485 C476 1.511 . S
C485 C486 1.341 . S
C485 C487 1.371 . S
C486 C485 1.341 . S
C486 C490 1.394 . S
C486 H502 0.930 . S
C487 C485 1.371 . S
C487 C488 1.392 . S
C487 H503 0.931 . S
C488 C487 1.392 . S
C488 C489 1.331 . S
C488 H506 0.932 . S
C489 C488 1.331 . S
C489 C490 1.336 . S
C490 C486 1.394 . S
C490 C489 1.336 . S
C490 H505 0.929 . S
C491 C481 1.386 . S
C491 C484 1.357 . S
C491 H504 0.928 . S
H492 C468 0.931 . S
H493 C470 0.930 . S
H494 C472 0.929 . S
H495 C473 0.931 . S
H496 C475 0.930 . S
H497 C479 0.931 . S
H498 C477 0.931 . S
H499 C481 0.931 . S
H500 C482 0.929 . S
H501 C483 0.930 . S
H502 C486 0.930 . S
H503 C487 0.931 . S
H504 C491 0.928 . S
H505 C490 0.929 . S
H506 C488 0.932 . S
C507 C508 1.386 . S
C507 C509 1.397 . S
C507 H531 0.931 . S
C508 C507 1.386 . S
C508 C512 1.397 . S
C509 C507 1.397 . S
C509 C510 1.384 . S
C509 H532 0.930 . S
C510 C509 1.384 . S
C510 C511 1.377 . S
C510 C513 1.481 . S
C511 C510 1.377 . S
C511 C512 1.389 . S
C511 H533 0.929 . S
C512 C508 1.397 . S
C512 C511 1.389 . S
C512 H534 0.931 . S
C513 C510 1.481 . S
C513 C514 1.387 . S
C513 C518 1.390 . S
C514 C513 1.387 . S
C514 C515 1.401 . S
C514 H535 0.930 . S
C515 C514 1.401 . S
C515 C516 1.376 . S
C515 C524 1.511 . S
C516 C515 1.376 . S
C516 C517 1.392 . S
C516 H537 0.931 . S
C517 C516 1.392 . S
C517 C518 1.361 . S
C517 C519 1.500 . S
C518 C513 1.390 . S
C518 C517 1.361 . S
C518 H536 0.931 . S
C519 C517 1.500 . S
C519 C520 1.371 . S
C519 C521 1.365 . S
C520 C519 1.371 . S
C520 C530 1.386 . S
C520 H538 0.931 . S
C521 C519 1.365 . S
C521 C522 1.409 . S
C521 H539 0.929 . S
C522 C521 1.409 . S
C522 C523 1.380 . S
C522 H540 0.930 . S
C523 C522 1.380 . S
C523 C530 1.357 . S
C524 C515 1.511 . S
C524 C525 1.341 . S
C524 C526 1.371 . S
C525 C524 1.341 . S
C525 C529 1.394 . S
C525 H541 0.930 . S
C526 C524 1.371 . S
C526 C527 1.392 . S
C526 H542 0.931 . S
C527 C526 1.392 . S
C527 C528 1.331 . S
C527 H545 0.932 . S
C528 C527 1.331 . S
C528 C529 1.336 . S
C529 C525 1.394 . S
C529 C528 1.336 . S
C529 H544 0.929 . S
C530 C520 1.386 . S
C530 C523 1.357 . S
C530 H543 0.928 . S
H531 C507 0.931 . S
H532 C509 0.930 . S
H533 C511 0.929 . S
H534 C512 0.931 . S
H535 C514 0.930 . S
H536 C518 0.931 . S
H537 C516 0.931 . S
H538 C520 0.931 . S
H539 C521 0.929 . S
H540 C522 0.930 . S
H541 C525 0.930 . S
H542 C526 0.931 . S
H543 C530 0.928 . S
H544 C529 0.929 . S
H545 C527 0.932 . S
C546 C547 1.386 . S
C546 C548 1.397 . S
C546 H570 0.931 . S
C547 C546 1.386 . S
C547 C551 1.397 . S
C548 C546 1.397 . S
C548 C549 1.384 . S
C548 H571 0.930 . S
C549 C548 1.384 . S
C549 C550 1.377 . S
C549 C552 1.481 . S
C550 C549 1.377 . S
C550 C551 1.389 . S
C550 H572 0.929 . S
C551 C547 1.397 . S
C551 C550 1.389 . S
C551 H573 0.931 . S
C552 C549 1.481 . S
C552 C553 1.387 . S
C552 C557 1.390 . S
C553 C552 1.387 . S
C553 C554 1.401 . S
C553 H574 0.930 . S
C554 C553 1.401 . S
C554 C555 1.376 . S
C554 C563 1.511 . S
C555 C554 1.376 . S
C555 C556 1.392 . S
C555 H576 0.931 . S
C556 C555 1.392 . S
C556 C557 1.361 . S
C556 C558 1.500 . S
C557 C552 1.390 . S
C557 C556 1.361 . S
C557 H575 0.931 . S
C558 C556 1.500 . S
C558 C559 1.371 . S
C558 C560 1.365 . S
C559 C558 1.371 . S
C559 C569 1.386 . S
C559 H577 0.931 . S
C560 C558 1.365 . S
C560 C561 1.409 . S
C560 H578 0.929 . S
C561 C560 1.409 . S
C561 C562 1.380 . S
C561 H579 0.930 . S
C562 C561 1.380 . S
C562 C569 1.357 . S
C563 C554 1.511 . S
C563 C564 1.341 . S
C563 C565 1.371 . S
C564 C563 1.341 . S
C564 C568 1.394 . S
C564 H580 0.930 . S
C565 C563 1.371 . S
C565 C566 1.392 . S
C565 H581 0.931 . S
C566 C565 1.392 . S
C566 C567 1.331 . S
C566 H584 0.932 . S
C567 C566 1.331 . S
C567 C568 1.336 . S
C568 C564 1.394 . S
C568 C567 1.336 . S
C568 H583 0.929 . S
C569 C559 1.386 . S
C569 C562 1.357 . S
C569 H582 0.928 . S
H570 C546 0.931 . S
H571 C548 0.930 . S
H572 C550 0.929 . S
H573 C551 0.931 . S
H574 C553 0.930 . S
H575 C557 0.931 . S
H576 C555 0.931 . S
H577 C559 0.931 . S
H578 C560 0.929 . S
H579 C561 0.930 . S
H580 C564 0.930 . S
H581 C565 0.931 . S
H582 C569 0.928 . S
H583 C568 0.929 . S
H584 C566 0.932 . S
C585 C586 1.386 . S
C585 C587 1.397 . S
C585 H609 0.931 . S
C586 C585 1.386 . S
C586 C590 1.397 . S
C587 C585 1.397 . S
C587 C588 1.384 . S
C587 H610 0.930 . S
C588 C587 1.384 . S
C588 C589 1.377 . S
C588 C591 1.481 . S
C589 C588 1.377 . S
C589 C590 1.389 . S
C589 H611 0.929 . S
C590 C586 1.397 . S
C590 C589 1.389 . S
C590 H612 0.931 . S
C591 C588 1.481 . S
C591 C592 1.387 . S
C591 C596 1.390 . S
C592 C591 1.387 . S
C592 C593 1.401 . S
C592 H613 0.930 . S
C593 C592 1.401 . S
C593 C594 1.376 . S
C593 C602 1.511 . S
C594 C593 1.376 . S
C594 C595 1.392 . S
C594 H615 0.931 . S
C595 C594 1.392 . S
C595 C596 1.361 . S
C595 C597 1.500 . S
C596 C591 1.390 . S
C596 C595 1.361 . S
C596 H614 0.931 . S
C597 C595 1.500 . S
C597 C598 1.371 . S
C597 C599 1.365 . S
C598 C597 1.371 . S
C598 C608 1.386 . S
C598 H616 0.931 . S
C599 C597 1.365 . S
C599 C600 1.409 . S
C599 H617 0.929 . S
C600 C599 1.409 . S
C600 C601 1.380 . S
C600 H618 0.930 . S
C601 C600 1.380 . S
C601 C608 1.357 . S
C602 C593 1.511 . S
C602 C603 1.341 . S
C602 C604 1.371 . S
C603 C602 1.341 . S
C603 C607 1.394 . S
C603 H619 0.930 . S
C604 C602 1.371 . S
C604 C605 1.392 . S
C604 H620 0.931 . S
C605 C604 1.392 . S
C605 C606 1.331 . S
C605 H623 0.932 . S
C606 C605 1.331 . S
C606 C607 1.336 . S
C607 C603 1.394 . S
C607 C606 1.336 . S
C607 H622 0.929 . S
C608 C598 1.386 . S
C608 C601 1.357 . S
C608 H621 0.928 . S
H609 C585 0.931 . S
H610 C587 0.930 . S
H611 C589 0.929 . S
H612 C590 0.931 . S
H613 C592 0.930 . S
H614 C596 0.931 . S
H615 C594 0.931 . S
H616 C598 0.931 . S
H617 C599 0.929 . S
H618 C600 0.930 . S
H619 C603 0.930 . S
H620 C604 0.931 . S
H621 C608 0.928 . S
H622 C607 0.929 . S
H623 C605 0.932 . S
C624 C625 1.386 1_655 S
C624 C626 1.397 1_655 S
C624 H648 0.931 . S
C625 C624 1.386 1_455 S
C625 C629 1.397 . S
C626 C624 1.397 1_455 S
C626 C627 1.384 . S
C626 H649 0.930 1_455 S
C627 C626 1.384 . S
C627 C628 1.377 . S
C627 C630 1.481 . S
C628 C627 1.377 . S
C628 C629 1.389 . S
C628 H650 0.929 . S
C629 C625 1.397 . S
C629 C628 1.389 . S
C629 H651 0.931 . S
C630 C627 1.481 . S
C630 C631 1.387 . S
C630 C635 1.390 . S
C631 C630 1.387 . S
C631 C632 1.401 . S
C631 H652 0.930 . S
C632 C631 1.401 . S
C632 C633 1.376 . S
C632 C641 1.511 . S
C633 C632 1.376 . S
C633 C634 1.392 . S
C633 H654 0.931 . S
C634 C633 1.392 . S
C634 C635 1.361 . S
C634 C636 1.500 . S
C635 C630 1.390 . S
C635 C634 1.361 . S
C635 H653 0.931 . S
C636 C634 1.500 . S
C636 C637 1.371 . S
C636 C638 1.365 . S
C637 C636 1.371 . S
C637 C647 1.386 . S
C637 H655 0.931 . S
C638 C636 1.365 . S
C638 C639 1.409 . S
C638 H656 0.929 . S
C639 C638 1.409 . S
C639 C640 1.380 . S
C639 H657 0.930 . S
C640 C639 1.380 . S
C640 C647 1.357 . S
C641 C632 1.511 . S
C641 C642 1.341 . S
C641 C643 1.371 . S
C642 C641 1.341 . S
C642 C646 1.394 . S
C642 H658 0.930 . S
C643 C641 1.371 . S
C643 C644 1.392 . S
C643 H659 0.931 . S
C644 C643 1.392 . S
C644 C645 1.331 . S
C644 H662 0.932 . S
C645 C644 1.331 . S
C645 C646 1.336 . S
C646 C642 1.394 . S
C646 C645 1.336 . S
C646 H661 0.929 . S
C647 C637 1.386 . S
C647 C640 1.357 . S
C647 H660 0.928 . S
H648 C624 0.931 . S
H649 C626 0.930 1_655 S
H650 C628 0.929 . S
H651 C629 0.931 . S
H652 C631 0.930 . S
H653 C635 0.931 . S
H654 C633 0.931 . S
H655 C637 0.931 . S
H656 C638 0.929 . S
H657 C639 0.930 . S
H658 C642 0.930 . S
H659 C643 0.931 . S
H660 C647 0.928 . S
H661 C646 0.929 . S
H662 C644 0.932 . S
C663 C664 1.386 . S
C663 C665 1.397 . S
C663 H687 0.931 . S
C664 C663 1.386 . S
C664 C668 1.397 . S
C665 C663 1.397 . S
C665 C666 1.384 . S
C665 H688 0.930 . S
C666 C665 1.384 . S
C666 C667 1.377 . S
C666 C669 1.481 . S
C667 C666 1.377 . S
C667 C668 1.389 . S
C667 H689 0.929 . S
C668 C664 1.397 . S
C668 C667 1.389 . S
C668 H690 0.931 . S
C669 C666 1.481 . S
C669 C670 1.387 . S
C669 C674 1.390 . S
C670 C669 1.387 . S
C670 C671 1.401 . S
C670 H691 0.930 . S
C671 C670 1.401 . S
C671 C672 1.376 . S
C671 C680 1.511 . S
C672 C671 1.376 . S
C672 C673 1.392 . S
C672 H693 0.931 . S
C673 C672 1.392 . S
C673 C674 1.361 . S
C673 C675 1.500 . S
C674 C669 1.390 . S
C674 C673 1.361 . S
C674 H692 0.931 . S
C675 C673 1.500 . S
C675 C676 1.371 . S
C675 C677 1.365 . S
C676 C675 1.371 . S
C676 C686 1.386 . S
C676 H694 0.931 . S
C677 C675 1.365 . S
C677 C678 1.409 . S
C677 H695 0.929 . S
C678 C677 1.409 . S
C678 C679 1.380 . S
C678 H696 0.930 . S
C679 C678 1.380 . S
C679 C686 1.357 . S
C680 C671 1.511 . S
C680 C681 1.341 . S
C680 C682 1.371 . S
C681 C680 1.341 . S
C681 C685 1.394 . S
C681 H697 0.930 . S
C682 C680 1.371 . S
C682 C683 1.392 . S
C682 H698 0.931 . S
C683 C682 1.392 . S
C683 C684 1.331 . S
C683 H701 0.932 . S
C684 C683 1.331 . S
C684 C685 1.336 . S
C685 C681 1.394 . S
C685 C684 1.336 . S
C685 H700 0.929 . S
C686 C676 1.386 . S
C686 C679 1.357 . S
C686 H699 0.928 . S
H687 C663 0.931 . S
H688 C665 0.930 . S
H689 C667 0.929 . S
H690 C668 0.931 . S
H691 C670 0.930 . S
H692 C674 0.931 . S
H693 C672 0.931 . S
H694 C676 0.931 . S
H695 C677 0.929 . S
H696 C678 0.930 . S
H697 C681 0.930 . S
H698 C682 0.931 . S
H699 C686 0.928 . S
H700 C685 0.929 . S
H701 C683 0.932 . S
Tb702 C712 2.825 . S
Tb702 O713 2.347 1_565 S
Tb702 O716 2.366 1_565 S
Tb702 O721 2.418 . S
Tb702 O722 2.384 1_556 S
Tb702 O725 2.479 . S
Tb702 O726 2.444 1_565 S
Eu703 O714 2.418 . S
Eu703 O715 2.384 . S
Eu703 O718 2.479 . S
Eu703 O719 2.460 1_545 S
Eu703 O720 2.347 1_545 S
Eu703 O723 2.366 1_545 S
Eu703 C733 2.825 . S
C704 O720 1.259 . S
C704 O721 1.265 1_554 S
C705 O722 1.255 . S
C705 O723 1.265 . S
C706 C708 1.380 . S
C706 C709 1.374 1_565 S
C706 C712 1.507 . S
C707 C708 1.384 . S
C707 C711 1.387 1_565 S
C707 H734 0.930 . S
C708 C706 1.380 . S
C708 C707 1.384 . S
C708 H735 0.931 . S
C709 C706 1.374 1_545 S
C709 C710 1.390 . S
C709 H736 0.930 . S
C710 C709 1.390 . S
C710 C711 1.391 . S
C710 H737 0.930 . S
C711 C707 1.387 1_545 S
C711 C710 1.391 . S
C712 Tb702 2.825 . S
C712 C706 1.507 . S
C712 O725 1.238 . S
C712 O726 1.207 1_565 S
O713 Tb702 2.347 1_545 S
O713 C717 1.268 . S
O714 Eu703 2.418 . S
O714 C717 1.240 1_554 S
O715 Eu703 2.384 . S
O715 C724 1.255 1_554 S
O716 Tb702 2.366 1_545 S
O716 C724 1.265 . S
C717 O713 1.268 . S
C717 O714 1.240 1_556 S
O718 Eu703 2.479 . S
O718 C733 1.238 . S
O719 Eu703 2.460 1_565 S
O719 C733 1.230 1_565 S
O720 Eu703 2.347 1_565 S
O720 C704 1.259 . S
O721 Tb702 2.418 . S
O721 C704 1.265 1_556 S
O722 Tb702 2.384 1_554 S
O722 C705 1.255 . S
O723 Eu703 2.366 1_565 S
O723 C705 1.265 . S
C724 O715 1.255 1_556 S
C724 O716 1.265 . S
O725 Tb702 2.479 . S
O725 C712 1.238 . S
O726 Tb702 2.444 1_545 S
O726 C712 1.207 1_545 S
C727 C730 1.380 . S
C727 C731 1.374 1_545 S
C727 C733 1.507 . S
C728 C729 1.387 1_565 S
C728 C732 1.391 . S
C729 C728 1.387 1_545 S
C729 C730 1.384 . S
C729 H738 0.930 . S
C730 C727 1.380 . S
C730 C729 1.384 . S
C730 H739 0.931 . S
C731 C727 1.374 1_565 S
C731 C732 1.390 . S
C731 H740 0.930 . S
C732 C728 1.391 . S
C732 C731 1.390 . S
C732 H741 0.930 . S
C733 Eu703 2.825 . S
C733 O718 1.238 . S
C733 O719 1.230 1_545 S
C733 C727 1.507 . S
H734 C707 0.930 . S
H735 C708 0.931 . S
H736 C709 0.930 . S
H737 C710 0.930 . S
H738 C729 0.930 . S
H739 C730 0.931 . S
H740 C731 0.930 . S
H741 C732 0.930 . S
Tb742 C752 2.825 . S
Tb742 O753 2.347 1_455 S
Tb742 O756 2.366 1_455 S
Tb742 O761 2.418 . S
Tb742 O762 2.384 1_556 S
Tb742 O765 2.479 . S
Tb742 O766 2.471 1_455 S
Eu743 O754 2.418 . S
Eu743 O755 2.420 . S
Eu743 O758 2.479 . S
Eu743 O759 2.471 1_655 S
Eu743 O760 2.347 1_655 S
Eu743 O763 2.366 1_655 S
Eu743 C773 2.825 . S
C744 O760 1.259 . S
C744 O761 1.265 1_554 S
C745 O762 1.255 . S
C745 O763 1.265 . S
C746 C748 1.380 . S
C746 C749 1.374 1_455 S
C746 C752 1.507 . S
C747 C748 1.384 . S
C747 C751 1.387 1_455 S
C747 H774 0.930 . S
C748 C746 1.380 . S
C748 C747 1.384 . S
C748 H775 0.931 . S
C749 C746 1.374 1_655 S
C749 C750 1.390 . S
C749 H776 0.930 . S
C750 C749 1.390 . S
C750 C751 1.391 . S
C750 H777 0.930 . S
C751 C747 1.387 1_655 S
C751 C750 1.391 . S
C752 Tb742 2.825 . S
C752 C746 1.507 . S
C752 O765 1.238 . S
C752 O766 1.247 1_455 S
O753 Tb742 2.347 1_655 S
O753 C757 1.259 . S
O754 Eu743 2.418 . S
O754 C757 1.265 1_554 S
O755 Eu743 2.420 . S
O755 C764 1.211 1_554 S
O756 Tb742 2.366 1_655 S
O756 C764 1.265 . S
C757 O753 1.259 . S
C757 O754 1.265 1_556 S
O758 Eu743 2.479 . S
O758 C773 1.238 . S
O759 Eu743 2.471 1_455 S
O759 C773 1.247 1_455 S
O760 Eu743 2.347 1_455 S
O760 C744 1.259 . S
O761 Tb742 2.418 . S
O761 C744 1.265 1_556 S
O762 Tb742 2.384 1_554 S
O762 C745 1.255 . S
O763 Eu743 2.366 1_455 S
O763 C745 1.265 . S
C764 O755 1.211 1_556 S
C764 O756 1.265 . S
O765 Tb742 2.479 . S
O765 C752 1.238 . S
O766 Tb742 2.471 1_655 S
O766 C752 1.247 1_655 S
C767 C770 1.397 . S
C767 C771 1.344 1_655 S
C767 C773 1.521 . S
C768 C769 1.387 1_455 S
C768 C772 1.391 . S
C769 C768 1.387 1_655 S
C769 C770 1.384 . S
C769 H778 0.930 . S
C770 C767 1.397 . S
C770 C769 1.384 . S
C770 H779 0.931 . S
C771 C767 1.344 1_455 S
C771 C772 1.390 . S
C771 H780 0.930 . S
C772 C768 1.391 . S
C772 C771 1.390 . S
C772 H781 0.930 . S
C773 Eu743 2.825 . S
C773 O758 1.238 . S
C773 O759 1.247 1_655 S
C773 C767 1.521 . S
H774 C747 0.930 . S
H775 C748 0.931 . S
H776 C749 0.930 . S
H777 C750 0.930 . S
H778 C769 0.930 . S
H779 C770 0.931 . S
H780 C771 0.930 . S
H781 C772 0.930 . S
Tb782 C792 2.825 . S
Tb782 O793 2.347 . S
Tb782 O796 2.366 . S
Tb782 O801 2.418 . S
Tb782 O802 2.384 . S
Tb782 O805 2.479 . S
Tb782 O806 2.471 . S
Eu783 O794 2.418 . S
Eu783 O795 2.384 1_556 S
Eu783 O798 2.479 . S
Eu783 O799 2.471 . S
Eu783 O800 2.347 . S
Eu783 O803 2.366 . S
Eu783 C813 2.825 . S
C784 O800 1.259 . S
C784 O801 1.265 1_556 S
C785 O802 1.255 1_556 S
C785 O803 1.265 . S
C786 C788 1.380 . S
C786 C789 1.374 . S
C786 C792 1.507 . S
C787 C788 1.384 . S
C787 C791 1.387 . S
C787 H814 0.930 . S
C788 C786 1.380 . S
C788 C787 1.384 . S
C788 H815 0.931 . S
C789 C786 1.374 . S
C789 C790 1.390 . S
C789 H816 0.930 . S
C790 C789 1.390 . S
C790 C791 1.391 . S
C790 H817 0.930 . S
C791 C787 1.387 . S
C791 C790 1.391 . S
C792 Tb782 2.825 . S
C792 C786 1.507 . S
C792 O805 1.238 . S
C792 O806 1.247 . S
O793 Tb782 2.347 . S
O793 C797 1.259 . S
O794 Eu783 2.418 . S
O794 C797 1.265 1_556 S
O795 Eu783 2.384 1_554 S
O795 C804 1.255 . S
O796 Tb782 2.366 . S
O796 C804 1.265 . S
C797 O793 1.259 . S
C797 O794 1.265 1_554 S
O798 Eu783 2.479 . S
O798 C813 1.238 . S
O799 Eu783 2.471 . S
O799 C813 1.247 . S
O800 Eu783 2.347 . S
O800 C784 1.259 . S
O801 Tb782 2.418 . S
O801 C784 1.265 1_554 S
O802 Tb782 2.384 . S
O802 C785 1.255 1_554 S
O803 Eu783 2.366 . S
O803 C785 1.265 . S
C804 O795 1.255 . S
C804 O796 1.265 . S
O805 Tb782 2.479 . S
O805 C792 1.238 . S
O806 Tb782 2.471 . S
O806 C792 1.247 . S
C807 C810 1.380 . S
C807 C811 1.374 . S
C807 C813 1.507 . S
C808 C809 1.387 . S
C808 C812 1.391 . S
C809 C808 1.387 . S
C809 C810 1.384 . S
C809 H818 0.930 . S
C810 C807 1.380 . S
C810 C809 1.384 . S
C810 H819 0.931 . S
C811 C807 1.374 . S
C811 C812 1.390 . S
C811 H820 0.930 . S
C812 C808 1.391 . S
C812 C811 1.390 . S
C812 H821 0.930 . S
C813 Eu783 2.825 . S
C813 O798 1.238 . S
C813 O799 1.247 . S
C813 C807 1.507 . S
H814 C787 0.930 . S
H815 C788 0.931 . S
H816 C789 0.930 . S
H817 C790 0.930 . S
H818 C809 0.930 . S
H819 C810 0.931 . S
H820 C811 0.930 . S
H821 C812 0.930 . S
Tb822 C832 2.825 . S
Tb822 O833 2.347 . S
Tb822 O836 2.366 . S
Tb822 O841 2.418 . S
Tb822 O842 2.384 . S
Tb822 O845 2.479 . S
Tb822 O846 2.471 . S
Eu823 O834 2.418 . S
Eu823 O835 2.384 . S
Eu823 O838 2.479 . S
Eu823 O839 2.471 . S
Eu823 O840 2.347 . S
Eu823 O843 2.366 . S
Eu823 C853 2.825 . S
C824 O840 1.259 . S
C824 O841 1.265 . S
C825 O842 1.255 . S
C825 O843 1.265 . S
C826 C828 1.380 . S
C826 C829 1.374 . S
C826 C832 1.507 . S
C827 C828 1.384 . S
C827 C831 1.387 . S
C827 H854 0.930 . S
C828 C826 1.380 . S
C828 C827 1.384 . S
C828 H855 0.931 . S
C829 C826 1.374 . S
C829 C830 1.390 . S
C829 H856 0.930 . S
C830 C829 1.390 . S
C830 C831 1.391 . S
C830 H857 0.930 . S
C831 C827 1.387 . S
C831 C830 1.391 . S
C832 Tb822 2.825 . S
C832 C826 1.507 . S
C832 O845 1.238 . S
C832 O846 1.247 . S
O833 Tb822 2.347 . S
O833 C837 1.259 . S
O834 Eu823 2.418 . S
O834 C837 1.265 . S
O835 Eu823 2.384 . S
O835 C844 1.255 . S
O836 Tb822 2.366 . S
O836 C844 1.265 . S
C837 O833 1.259 . S
C837 O834 1.265 . S
O838 Eu823 2.479 . S
O838 C853 1.238 . S
O839 Eu823 2.471 . S
O839 C853 1.247 . S
O840 Eu823 2.347 . S
O840 C824 1.259 . S
O841 Tb822 2.418 . S
O841 C824 1.265 . S
O842 Tb822 2.384 . S
O842 C825 1.255 . S
O843 Eu823 2.366 . S
O843 C825 1.265 . S
C844 O835 1.255 . S
C844 O836 1.265 . S
O845 Tb822 2.479 . S
O845 C832 1.238 . S
O846 Tb822 2.471 . S
O846 C832 1.247 . S
C847 C850 1.380 . S
C847 C851 1.374 . S
C847 C853 1.507 . S
C848 C849 1.387 . S
C848 C852 1.391 . S
C849 C848 1.387 . S
C849 C850 1.384 . S
C849 H858 0.930 . S
C850 C847 1.380 . S
C850 C849 1.384 . S
C850 H859 0.931 . S
C851 C847 1.374 . S
C851 C852 1.390 . S
C851 H860 0.930 . S
C852 C848 1.391 . S
C852 C851 1.390 . S
C852 H861 0.930 . S
C853 Eu823 2.825 . S
C853 O838 1.238 . S
C853 O839 1.247 . S
C853 C847 1.507 . S
H854 C827 0.930 . S
H855 C828 0.931 . S
H856 C829 0.930 . S
H857 C830 0.930 . S
H858 C849 0.930 . S
H859 C850 0.931 . S
H860 C851 0.930 . S
H861 C852 0.930 . S
Tb862 C872 2.825 . S
Tb862 O873 2.347 . S
Tb862 O876 2.366 . S
Tb862 O881 2.418 . S
Tb862 O882 2.384 . S
Tb862 O885 2.479 . S
Tb862 O886 2.471 . S
Eu863 O874 2.418 . S
Eu863 O875 2.384 . S
Eu863 O878 2.479 . S
Eu863 O879 2.471 . S
Eu863 O880 2.347 . S
Eu863 O883 2.366 . S
Eu863 C893 2.825 . S
C864 O880 1.259 . S
C864 O881 1.265 . S
C865 O882 1.255 . S
C865 O883 1.265 . S
C866 C868 1.380 . S
C866 C869 1.374 . S
C866 C872 1.507 . S
C867 C868 1.384 . S
C867 C871 1.387 . S
C867 H894 0.930 . S
C868 C866 1.380 . S
C868 C867 1.384 . S
C868 H895 0.931 . S
C869 C866 1.374 . S
C869 C870 1.390 . S
C869 H896 0.930 . S
C870 C869 1.390 . S
C870 C871 1.391 . S
C870 H897 0.930 . S
C871 C867 1.387 . S
C871 C870 1.391 . S
C872 Tb862 2.825 . S
C872 C866 1.507 . S
C872 O885 1.238 . S
C872 O886 1.247 . S
O873 Tb862 2.347 . S
O873 C877 1.259 . S
O874 Eu863 2.418 . S
O874 C877 1.265 . S
O875 Eu863 2.384 . S
O875 C884 1.255 . S
O876 Tb862 2.366 . S
O876 C884 1.265 . S
C877 O873 1.259 . S
C877 O874 1.265 . S
O878 Eu863 2.479 . S
O878 C893 1.238 . S
O879 Eu863 2.471 . S
O879 C893 1.247 . S
O880 Eu863 2.347 . S
O880 C864 1.259 . S
O881 Tb862 2.418 . S
O881 C864 1.265 . S
O882 Tb862 2.384 . S
O882 C865 1.255 . S
O883 Eu863 2.366 . S
O883 C865 1.265 . S
C884 O875 1.255 . S
C884 O876 1.265 . S
O885 Tb862 2.479 . S
O885 C872 1.238 . S
O886 Tb862 2.471 . S
O886 C872 1.247 . S
C887 C890 1.380 . S
C887 C891 1.374 . S
C887 C893 1.507 . S
C888 C889 1.387 . S
C888 C892 1.391 . S
C889 C888 1.387 . S
C889 C890 1.384 . S
C889 H898 0.930 . S
C890 C887 1.380 . S
C890 C889 1.384 . S
C890 H899 0.931 . S
C891 C887 1.374 . S
C891 C892 1.390 . S
C891 H900 0.930 . S
C892 C888 1.391 . S
C892 C891 1.390 . S
C892 H901 0.930 . S
C893 Eu863 2.825 . S
C893 O878 1.238 . S
C893 O879 1.247 . S
C893 C887 1.507 . S
H894 C867 0.930 . S
H895 C868 0.931 . S
H896 C869 0.930 . S
H897 C870 0.930 . S
H898 C889 0.930 . S
H899 C890 0.931 . S
H900 C891 0.930 . S
H901 C892 0.930 . S
Tb902 C912 2.825 . S
Tb902 O913 2.347 . S
Tb902 O916 2.366 . S
Tb902 O921 2.418 . S
Tb902 O922 2.384 . S
Tb902 O925 2.479 . S
Tb902 O926 2.471 . S
Eu903 O914 2.418 . S
Eu903 O915 2.384 . S
Eu903 O918 2.479 . S
Eu903 O919 2.471 . S
Eu903 O920 2.347 . S
Eu903 O923 2.366 . S
Eu903 C933 2.825 . S
C904 O920 1.259 . S
C904 O921 1.265 . S
C905 O922 1.255 . S
C905 O923 1.265 . S
C906 C908 1.380 . S
C906 C909 1.374 . S
C906 C912 1.507 . S
C907 C908 1.384 . S
C907 C911 1.387 . S
C907 H934 0.930 . S
C908 C906 1.380 . S
C908 C907 1.384 . S
C908 H935 0.931 . S
C909 C906 1.374 . S
C909 C910 1.390 . S
C909 H936 0.930 . S
C910 C909 1.390 . S
C910 C911 1.391 . S
C910 H937 0.930 . S
C911 C907 1.387 . S
C911 C910 1.391 . S
C912 Tb902 2.825 . S
C912 C906 1.507 . S
C912 O925 1.238 . S
C912 O926 1.247 . S
O913 Tb902 2.347 . S
O913 C917 1.259 . S
O914 Eu903 2.418 . S
O914 C917 1.265 . S
O915 Eu903 2.384 . S
O915 C924 1.255 . S
O916 Tb902 2.366 . S
O916 C924 1.265 . S
C917 O913 1.259 . S
C917 O914 1.265 . S
O918 Eu903 2.479 . S
O918 C933 1.238 . S
O919 Eu903 2.471 . S
O919 C933 1.247 . S
O920 Eu903 2.347 . S
O920 C904 1.259 . S
O921 Tb902 2.418 . S
O921 C904 1.265 . S
O922 Tb902 2.384 . S
O922 C905 1.255 . S
O923 Eu903 2.366 . S
O923 C905 1.265 . S
C924 O915 1.255 . S
C924 O916 1.265 . S
O925 Tb902 2.479 . S
O925 C912 1.238 . S
O926 Tb902 2.471 . S
O926 C912 1.247 . S
C927 C930 1.380 . S
C927 C931 1.374 . S
C927 C933 1.507 . S
C928 C929 1.387 . S
C928 C932 1.391 . S
C929 C928 1.387 . S
C929 C930 1.384 . S
C929 H938 0.930 . S
C930 C927 1.380 . S
C930 C929 1.384 . S
C930 H939 0.931 . S
C931 C927 1.374 . S
C931 C932 1.390 . S
C931 H940 0.930 . S
C932 C928 1.391 . S
C932 C931 1.390 . S
C932 H941 0.930 . S
C933 Eu903 2.825 . S
C933 O918 1.238 . S
C933 O919 1.247 . S
C933 C927 1.507 . S
H934 C907 0.930 . S
H935 C908 0.931 . S
H936 C909 0.930 . S
H937 C910 0.930 . S
H938 C929 0.930 . S
H939 C930 0.931 . S
H940 C931 0.930 . S
H941 C932 0.930 . S
Tb942 C952 2.825 . S
Tb942 O953 2.347 . S
Tb942 O956 2.366 . S
Tb942 O961 2.418 . S
Tb942 O962 2.384 . S
Tb942 O965 2.479 . S
Tb942 O966 2.471 . S
Eu943 O954 2.418 . S
Eu943 O955 2.384 . S
Eu943 O958 2.479 . S
Eu943 O959 2.471 . S
Eu943 O960 2.347 . S
Eu943 O963 2.366 . S
Eu943 C973 2.825 . S
C944 O960 1.259 . S
C944 O961 1.265 . S
C945 O962 1.255 . S
C945 O963 1.265 . S
C946 C948 1.380 . S
C946 C949 1.374 . S
C946 C952 1.507 . S
C947 C948 1.384 . S
C947 C951 1.387 . S
C947 H974 0.930 . S
C948 C946 1.380 . S
C948 C947 1.384 . S
C948 H975 0.931 . S
C949 C946 1.374 . S
C949 C950 1.390 . S
C949 H976 0.930 . S
C950 C949 1.390 . S
C950 C951 1.391 . S
C950 H977 0.930 . S
C951 C947 1.387 . S
C951 C950 1.391 . S
C952 Tb942 2.825 . S
C952 C946 1.507 . S
C952 O965 1.238 . S
C952 O966 1.247 . S
O953 Tb942 2.347 . S
O953 C957 1.259 . S
O954 Eu943 2.418 . S
O954 C957 1.265 . S
O955 Eu943 2.384 . S
O955 C964 1.255 . S
O956 Tb942 2.366 . S
O956 C964 1.265 . S
C957 O953 1.259 . S
C957 O954 1.265 . S
O958 Eu943 2.479 . S
O958 C973 1.238 . S
O959 Eu943 2.471 . S
O959 C973 1.247 . S
O960 Eu943 2.347 . S
O960 C944 1.259 . S
O961 Tb942 2.418 . S
O961 C944 1.265 . S
O962 Tb942 2.384 . S
O962 C945 1.255 . S
O963 Eu943 2.366 . S
O963 C945 1.265 . S
C964 O955 1.255 . S
C964 O956 1.265 . S
O965 Tb942 2.479 . S
O965 C952 1.238 . S
O966 Tb942 2.471 . S
O966 C952 1.247 . S
C967 C970 1.380 . S
C967 C971 1.374 . S
C967 C973 1.507 . S
C968 C969 1.387 . S
C968 C972 1.391 . S
C969 C968 1.387 . S
C969 C970 1.384 . S
C969 H978 0.930 . S
C970 C967 1.380 . S
C970 C969 1.384 . S
C970 H979 0.931 . S
C971 C967 1.374 . S
C971 C972 1.390 . S
C971 H980 0.930 . S
C972 C968 1.391 . S
C972 C971 1.390 . S
C972 H981 0.930 . S
C973 Eu943 2.825 . S
C973 O958 1.238 . S
C973 O959 1.247 . S
C973 C967 1.507 . S
H974 C947 0.930 . S
H975 C948 0.931 . S
H976 C949 0.930 . S
H977 C950 0.930 . S
H978 C969 0.930 . S
H979 C970 0.931 . S
H980 C971 0.930 . S
H981 C972 0.930 . S
Tb982 C992 2.825 . S
Tb982 O993 2.347 . S
Tb982 O996 2.366 . S
Tb982 O1001 2.418 . S
Tb982 O1002 2.384 . S
Tb982 O1005 2.479 . S
Tb982 O1006 2.471 . S
Eu983 O994 2.418 . S
Eu983 O995 2.384 . S
Eu983 O998 2.479 . S
Eu983 O999 2.471 . S
Eu983 O1000 2.347 . S
Eu983 O1003 2.366 . S
Eu983 C1013 2.825 . S
C984 O1000 1.259 . S
C984 O1001 1.265 . S
C985 O1002 1.255 . S
C985 O1003 1.265 . S
C986 C988 1.380 . S
C986 C989 1.374 . S
C986 C992 1.507 . S
C987 C988 1.384 . S
C987 C991 1.387 . S
C987 H1014 0.930 . S
C988 C986 1.380 . S
C988 C987 1.384 . S
C988 H1015 0.931 . S
C989 C986 1.374 . S
C989 C990 1.390 . S
C989 H1016 0.930 . S
C990 C989 1.390 . S
C990 C991 1.391 . S
C990 H1017 0.930 . S
C991 C987 1.387 . S
C991 C990 1.391 . S
C992 Tb982 2.825 . S
C992 C986 1.507 . S
C992 O1005 1.238 . S
C992 O1006 1.247 . S
O993 Tb982 2.347 . S
O993 C997 1.259 . S
O994 Eu983 2.418 . S
O994 C997 1.265 . S
O995 Eu983 2.384 . S
O995 C1004 1.255 . S
O996 Tb982 2.366 . S
O996 C1004 1.265 . S
C997 O993 1.259 . S
C997 O994 1.265 . S
O998 Eu983 2.479 . S
O998 C1013 1.238 . S
O999 Eu983 2.471 . S
O999 C1013 1.247 . S
O1000 Eu983 2.347 . S
O1000 C984 1.259 . S
O1001 Tb982 2.418 . S
O1001 C984 1.265 . S
O1002 Tb982 2.384 . S
O1002 C985 1.255 . S
O1003 Eu983 2.366 . S
O1003 C985 1.265 . S
C1004 O995 1.255 . S
C1004 O996 1.265 . S
O1005 Tb982 2.479 . S
O1005 C992 1.238 . S
O1006 Tb982 2.471 . S
O1006 C992 1.247 . S
C1007 C1010 1.380 . S
C1007 C1011 1.374 . S
C1007 C1013 1.507 . S
C1008 C1009 1.387 . S
C1008 C1012 1.391 . S
C1009 C1008 1.387 . S
C1009 C1010 1.384 . S
C1009 H1018 0.930 . S
C1010 C1007 1.380 . S
C1010 C1009 1.384 . S
C1010 H1019 0.931 . S
C1011 C1007 1.374 . S
C1011 C1012 1.390 . S
C1011 H1020 0.930 . S
C1012 C1008 1.391 . S
C1012 C1011 1.390 . S
C1012 H1021 0.930 . S
C1013 Eu983 2.825 . S
C1013 O998 1.238 . S
C1013 O999 1.247 . S
C1013 C1007 1.507 . S
H1014 C987 0.930 . S
H1015 C988 0.931 . S
H1016 C989 0.930 . S
H1017 C990 0.930 . S
H1018 C1009 0.930 . S
H1019 C1010 0.931 . S
H1020 C1011 0.930 . S
H1021 C1012 0.930 . S
Tb1022 C1032 2.825 . S
Tb1022 O1033 2.347 . S
Tb1022 O1036 2.366 . S
Tb1022 O1041 2.418 . S
Tb1022 O1042 2.384 . S
Tb1022 O1045 2.479 . S
Tb1022 O1046 2.471 . S
Eu1023 O1034 2.418 . S
Eu1023 O1035 2.384 . S
Eu1023 O1038 2.479 . S
Eu1023 O1039 2.471 . S
Eu1023 O1040 2.347 . S
Eu1023 O1043 2.366 . S
Eu1023 C1053 2.825 . S
C1024 O1040 1.259 . S
C1024 O1041 1.265 . S
C1025 O1042 1.255 . S
C1025 O1043 1.265 . S
C1026 C1028 1.380 . S
C1026 C1029 1.374 . S
C1026 C1032 1.507 . S
C1027 C1028 1.384 . S
C1027 C1031 1.387 . S
C1027 H1054 0.930 . S
C1028 C1026 1.380 . S
C1028 C1027 1.384 . S
C1028 H1055 0.931 . S
C1029 C1026 1.374 . S
C1029 C1030 1.390 . S
C1029 H1056 0.930 . S
C1030 C1029 1.390 . S
C1030 C1031 1.391 . S
C1030 H1057 0.930 . S
C1031 C1027 1.387 . S
C1031 C1030 1.391 . S
C1032 Tb1022 2.825 . S
C1032 C1026 1.507 . S
C1032 O1045 1.238 . S
C1032 O1046 1.247 . S
O1033 Tb1022 2.347 . S
O1033 C1037 1.259 . S
O1034 Eu1023 2.418 . S
O1034 C1037 1.265 . S
O1035 Eu1023 2.384 . S
O1035 C1044 1.255 . S
O1036 Tb1022 2.366 . S
O1036 C1044 1.265 . S
C1037 O1033 1.259 . S
C1037 O1034 1.265 . S
O1038 Eu1023 2.479 . S
O1038 C1053 1.238 . S
O1039 Eu1023 2.471 . S
O1039 C1053 1.247 . S
O1040 Eu1023 2.347 . S
O1040 C1024 1.259 . S
O1041 Tb1022 2.418 . S
O1041 C1024 1.265 . S
O1042 Tb1022 2.384 . S
O1042 C1025 1.255 . S
O1043 Eu1023 2.366 . S
O1043 C1025 1.265 . S
C1044 O1035 1.255 . S
C1044 O1036 1.265 . S
O1045 Tb1022 2.479 . S
O1045 C1032 1.238 . S
O1046 Tb1022 2.471 . S
O1046 C1032 1.247 . S
C1047 C1050 1.380 . S
C1047 C1051 1.374 . S
C1047 C1053 1.507 . S
C1048 C1049 1.387 . S
C1048 C1052 1.391 . S
C1049 C1048 1.387 . S
C1049 C1050 1.384 . S
C1049 H1058 0.930 . S
C1050 C1047 1.380 . S
C1050 C1049 1.384 . S
C1050 H1059 0.931 . S
C1051 C1047 1.374 . S
C1051 C1052 1.390 . S
C1051 H1060 0.930 . S
C1052 C1048 1.391 . S
C1052 C1051 1.390 . S
C1052 H1061 0.930 . S
C1053 Eu1023 2.825 . S
C1053 O1038 1.238 . S
C1053 O1039 1.247 . S
C1053 C1047 1.507 . S
H1054 C1027 0.930 . S
H1055 C1028 0.931 . S
H1056 C1029 0.930 . S
H1057 C1030 0.930 . S
H1058 C1049 0.930 . S
H1059 C1050 0.931 . S
H1060 C1051 0.930 . S
H1061 C1052 0.930 . S
H1062 C1070 0.950 . S
H1063 C1075 0.950 . S
H1064 C1072 0.950 . S
H1065 C1074 0.950 . S
H1066 C1076 0.950 . S
H1067 C1078 0.950 . S
H1068 C1080 0.950 . S
H1069 C1081 0.950 . S
C1070 H1062 0.950 . S
C1070 C1071 1.386 . S
C1070 C1072 1.391 . S
C1071 C1070 1.386 . S
C1071 C1075 1.393 . S
C1072 H1064 0.950 . S
C1072 C1070 1.391 . S
C1072 C1073 1.400 . S
C1073 C1072 1.400 . S
C1073 C1074 1.398 . S
C1073 C1079 1.491 . S
C1074 H1065 0.950 . S
C1074 C1073 1.398 . S
C1074 C1075 1.391 . S
C1075 H1063 0.950 . S
C1075 C1071 1.393 . S
C1075 C1074 1.391 . S
C1076 H1066 0.950 . S
C1076 C1077 1.386 . S
C1076 C1078 1.391 . S
C1077 C1076 1.386 . S
C1077 C1081 1.393 . S
C1078 H1067 0.950 . S
C1078 C1076 1.391 . S
C1078 C1079 1.400 . S
C1079 C1073 1.491 . S
C1079 C1078 1.400 . S
C1079 C1080 1.398 . S
C1080 H1068 0.950 . S
C1080 C1079 1.398 . S
C1080 C1081 1.391 . S
C1081 H1069 0.950 . S
C1081 C1077 1.393 . S
C1081 C1080 1.391 . S
H1082 C1090 0.950 . S
H1083 C1095 0.950 . S
H1084 C1092 0.950 . S
H1085 C1094 0.950 . S
H1086 C1096 0.950 . S
H1087 C1098 0.950 . S
H1088 C1100 0.950 . S
H1089 C1101 0.950 . S
C1090 H1082 0.950 . S
C1090 C1091 1.386 . S
C1090 C1092 1.391 . S
C1091 C1090 1.386 . S
C1091 C1095 1.393 . S
C1092 H1084 0.950 . S
C1092 C1090 1.391 . S
C1092 C1093 1.400 . S
C1093 C1092 1.400 . S
C1093 C1094 1.398 . S
C1093 C1099 1.491 . S
C1094 H1085 0.950 . S
C1094 C1093 1.398 . S
C1094 C1095 1.391 . S
C1095 H1083 0.950 . S
C1095 C1091 1.393 . S
C1095 C1094 1.391 . S
C1096 H1086 0.950 . S
C1096 C1097 1.386 . S
C1096 C1098 1.391 . S
C1097 C1096 1.386 . S
C1097 C1101 1.393 . S
C1098 H1087 0.950 . S
C1098 C1096 1.391 . S
C1098 C1099 1.400 . S
C1099 C1093 1.491 . S
C1099 C1098 1.400 . S
C1099 C1100 1.398 . S
C1100 H1088 0.950 . S
C1100 C1099 1.398 . S
C1100 C1101 1.391 . S
C1101 H1089 0.950 . S
C1101 C1097 1.393 . S
C1101 C1100 1.391 . S
H1102 C1110 0.950 . S
H1103 C1115 0.950 . S
H1104 C1112 0.950 . S
H1105 C1114 0.950 . S
H1106 C1116 0.950 1_556 S
H1107 C1118 0.950 . S
H1108 C1120 0.950 . S
H1109 C1121 0.950 . S
C1110 H1102 0.950 . S
C1110 C1111 1.386 . S
C1110 C1112 1.391 . S
C1111 C1110 1.386 . S
C1111 C1115 1.393 . S
C1112 H1104 0.950 . S
C1112 C1110 1.391 . S
C1112 C1113 1.400 . S
C1113 C1112 1.400 . S
C1113 C1114 1.398 . S
C1113 C1119 1.491 . S
C1114 H1105 0.950 . S
C1114 C1113 1.398 . S
C1114 C1115 1.391 . S
C1115 H1103 0.950 . S
C1115 C1111 1.393 . S
C1115 C1114 1.391 . S
C1116 H1106 0.950 1_554 S
C1116 C1117 1.386 . S
C1116 C1118 1.391 . S
C1117 C1116 1.386 . S
C1117 C1121 1.393 . S
C1118 H1107 0.950 . S
C1118 C1116 1.391 . S
C1118 C1119 1.400 . S
C1119 C1113 1.491 . S
C1119 C1118 1.400 . S
C1119 C1120 1.398 . S
C1120 H1108 0.950 . S
C1120 C1119 1.398 . S
C1120 C1121 1.391 . S
C1121 H1109 0.950 . S
C1121 C1117 1.393 . S
C1121 C1120 1.391 . S
H1122 C1130 0.950 . S
H1123 C1135 0.950 . S
H1124 C1132 0.950 . S
H1125 C1134 0.950 . S
H1126 C1136 0.950 . S
H1127 C1138 0.950 . S
H1128 C1140 0.950 . S
H1129 C1141 0.912 1_554 S
C1130 H1122 0.950 . S
C1130 C1131 1.386 . S
C1130 C1132 1.391 . S
C1131 C1130 1.386 . S
C1131 C1135 1.393 . S
C1132 H1124 0.950 . S
C1132 C1130 1.391 . S
C1132 C1133 1.400 . S
C1133 C1132 1.400 . S
C1133 C1134 1.398 . S
C1133 C1139 1.491 . S
C1134 H1125 0.950 . S
C1134 C1133 1.398 . S
C1134 C1135 1.391 . S
C1135 H1123 0.950 . S
C1135 C1131 1.393 . S
C1135 C1134 1.391 . S
C1136 H1126 0.950 . S
C1136 C1137 1.386 . S
C1136 C1138 1.391 . S
C1137 C1136 1.386 . S
C1137 C1141 1.393 . S
C1138 H1127 0.950 . S
C1138 C1136 1.391 . S
C1138 C1139 1.400 . S
C1139 C1133 1.491 . S
C1139 C1138 1.400 . S
C1139 C1140 1.398 . S
C1140 H1128 0.950 . S
C1140 C1139 1.398 . S
C1140 C1141 1.391 . S
C1141 H1129 0.912 1_556 S
C1141 C1137 1.393 . S
C1141 C1140 1.391 . S
H1142 C1150 0.950 . S
H1143 C1155 0.950 . S
H1144 C1152 0.950 . S
H1145 C1154 0.950 . S
H1146 C1156 0.950 . S
H1147 C1158 0.950 . S
H1148 C1160 0.950 . S
H1149 C1161 0.950 . S
C1150 H1142 0.950 . S
C1150 C1151 1.386 . S
C1150 C1152 1.391 . S
C1151 C1150 1.386 . S
C1151 C1155 1.393 . S
C1152 H1144 0.950 . S
C1152 C1150 1.391 . S
C1152 C1153 1.400 . S
C1153 C1152 1.400 . S
C1153 C1154 1.398 . S
C1153 C1159 1.491 . S
C1154 H1145 0.950 . S
C1154 C1153 1.398 . S
C1154 C1155 1.391 . S
C1155 H1143 0.950 . S
C1155 C1151 1.393 . S
C1155 C1154 1.391 . S
C1156 H1146 0.950 . S
C1156 C1157 1.386 . S
C1156 C1158 1.391 . S
C1157 C1156 1.386 . S
C1157 C1161 1.393 . S
C1158 H1147 0.950 . S
C1158 C1156 1.391 . S
C1158 C1159 1.400 . S
C1159 C1153 1.491 . S
C1159 C1158 1.400 . S
C1159 C1160 1.398 . S
C1160 H1148 0.950 . S
C1160 C1159 1.398 . S
C1160 C1161 1.391 . S
C1161 H1149 0.950 . S
C1161 C1157 1.393 . S
C1161 C1160 1.391 . S
H1162 C1170 0.950 . S
H1163 C1175 0.950 . S
H1164 C1172 0.950 . S
H1165 C1174 0.950 . S
H1166 C1176 0.950 1_554 S
H1167 C1178 0.950 . S
H1168 C1180 0.950 . S
H1169 C1181 0.950 . S
C1170 H1162 0.950 . S
C1170 C1171 1.386 . S
C1170 C1172 1.391 . S
C1171 C1170 1.386 . S
C1171 C1175 1.393 . S
C1172 H1164 0.950 . S
C1172 C1170 1.391 . S
C1172 C1173 1.400 . S
C1173 C1172 1.400 . S
C1173 C1174 1.398 . S
C1173 C1179 1.491 . S
C1174 H1165 0.950 . S
C1174 C1173 1.398 . S
C1174 C1175 1.391 . S
C1175 H1163 0.950 . S
C1175 C1171 1.393 . S
C1175 C1174 1.391 . S
C1176 H1166 0.950 1_556 S
C1176 C1177 1.386 . S
C1176 C1178 1.391 . S
C1177 C1176 1.386 . S
C1177 C1181 1.393 . S
C1178 H1167 0.950 . S
C1178 C1176 1.391 . S
C1178 C1179 1.400 . S
C1179 C1173 1.491 . S
C1179 C1178 1.400 . S
C1179 C1180 1.398 . S
C1180 H1168 0.950 . S
C1180 C1179 1.398 . S
C1180 C1181 1.391 . S
C1181 H1169 0.950 . S
C1181 C1177 1.393 . S
C1181 C1180 1.391 . S
H1182 C1190 0.950 . S
H1183 C1195 0.950 . S
H1184 C1192 0.950 . S
H1185 C1194 0.950 . S
H1186 C1196 0.950 1_554 S
H1187 C1198 0.950 . S
H1188 C1200 0.950 . S
H1189 C1201 0.950 . S
C1190 H1182 0.950 . S
C1190 C1191 1.386 . S
C1190 C1192 1.391 . S
C1191 C1190 1.386 . S
C1191 C1195 1.393 . S
C1192 H1184 0.950 . S
C1192 C1190 1.391 . S
C1192 C1193 1.400 . S
C1193 C1192 1.400 . S
C1193 C1194 1.398 . S
C1193 C1199 1.491 . S
C1194 H1185 0.950 . S
C1194 C1193 1.398 . S
C1194 C1195 1.391 . S
C1195 H1183 0.950 . S
C1195 C1191 1.393 . S
C1195 C1194 1.391 . S
C1196 H1186 0.950 1_556 S
C1196 C1197 1.386 . S
C1196 C1198 1.391 . S
C1197 C1196 1.386 . S
C1197 C1201 1.393 . S
C1198 H1187 0.950 . S
C1198 C1196 1.391 . S
C1198 C1199 1.400 . S
C1199 C1193 1.491 . S
C1199 C1198 1.400 . S
C1199 C1200 1.398 . S
C1200 H1188 0.950 . S
C1200 C1199 1.398 . S
C1200 C1201 1.391 . S
C1201 H1189 0.950 . S
C1201 C1197 1.393 . S
C1201 C1200 1.391 . S
H1202 C1210 0.950 . S
H1203 C1215 0.950 . S
H1204 C1212 0.950 . S
H1205 C1214 0.950 . S
H1206 C1216 0.950 . S
H1207 C1218 0.950 . S
H1208 C1220 0.950 . S
H1209 C1221 0.950 . S
C1210 H1202 0.950 . S
C1210 C1211 1.386 . S
C1210 C1212 1.391 . S
C1211 C1210 1.386 . S
C1211 C1215 1.393 . S
C1212 H1204 0.950 . S
C1212 C1210 1.391 . S
C1212 C1213 1.400 . S
C1213 C1212 1.400 . S
C1213 C1214 1.398 . S
C1213 C1219 1.491 . S
C1214 H1205 0.950 . S
C1214 C1213 1.398 . S
C1214 C1215 1.391 . S
C1215 H1203 0.950 . S
C1215 C1211 1.393 . S
C1215 C1214 1.391 . S
C1216 H1206 0.950 . S
C1216 C1217 1.386 . S
C1216 C1218 1.391 . S
C1217 C1216 1.386 . S
C1217 C1221 1.393 . S
C1218 H1207 0.950 . S
C1218 C1216 1.391 . S
C1218 C1219 1.400 . S
C1219 C1213 1.491 . S
C1219 C1218 1.400 . S
C1219 C1220 1.398 . S
C1220 H1208 0.950 . S
C1220 C1219 1.398 . S
C1220 C1221 1.391 . S
C1221 H1209 0.950 . S
C1221 C1217 1.393 . S
C1221 C1220 1.391 . S
H1222 C1230 0.950 . S
H1223 C1235 0.950 . S
H1224 C1232 0.912 1_554 S
H1225 C1234 0.950 . S
H1226 C1236 0.950 . S
H1227 C1238 0.950 . S
H1228 C1240 0.950 1_554 S
H1229 C1241 0.949 . S
C1230 H1222 0.950 . S
C1230 C1231 1.386 . S
C1230 C1232 1.391 . S
C1231 C1230 1.386 . S
C1231 C1235 1.393 . S
C1232 H1224 0.912 1_556 S
C1232 C1230 1.391 . S
C1232 C1233 1.400 . S
C1233 C1232 1.400 . S
C1233 C1234 1.398 . S
C1233 C1239 1.491 . S
C1234 H1225 0.950 . S
C1234 C1233 1.398 . S
C1234 C1235 1.391 . S
C1235 H1223 0.950 . S
C1235 C1231 1.393 . S
C1235 C1234 1.391 . S
C1236 H1226 0.950 . S
C1236 C1237 1.386 . S
C1236 C1238 1.391 . S
C1237 C1236 1.386 . S
C1237 C1241 1.394 1_556 S
C1238 H1227 0.950 . S
C1238 C1236 1.391 . S
C1238 C1239 1.400 . S
C1239 C1233 1.491 . S
C1239 C1238 1.400 . S
C1239 C1240 1.398 . S
C1240 H1228 0.950 1_556 S
C1240 C1239 1.398 . S
C1240 C1241 1.391 1_556 S
C1241 H1229 0.949 . S
C1241 C1237 1.394 1_554 S
C1241 C1240 1.391 1_554 S
H1242 C1250 0.950 . S
H1243 C1255 0.950 . S
H1244 C1252 0.950 . S
H1245 C1254 0.950 . S
H1246 C1256 0.950 . S
H1247 C1258 0.950 . S
H1248 C1260 0.950 . S
H1249 C1261 0.950 . S
C1250 H1242 0.950 . S
C1250 C1251 1.386 . S
C1250 C1252 1.391 . S
C1251 C1250 1.386 . S
C1251 C1255 1.393 . S
C1252 H1244 0.950 . S
C1252 C1250 1.391 . S
C1252 C1253 1.400 . S
C1253 C1252 1.400 . S
C1253 C1254 1.398 . S
C1253 C1259 1.491 . S
C1254 H1245 0.950 . S
C1254 C1253 1.398 . S
C1254 C1255 1.391 . S
C1255 H1243 0.950 . S
C1255 C1251 1.393 . S
C1255 C1254 1.391 . S
C1256 H1246 0.950 . S
C1256 C1257 1.386 . S
C1256 C1258 1.391 . S
C1257 C1256 1.386 . S
C1257 C1261 1.393 . S
C1258 H1247 0.950 . S
C1258 C1256 1.391 . S
C1258 C1259 1.400 . S
C1259 C1253 1.491 . S
C1259 C1258 1.400 . S
C1259 C1260 1.398 . S
C1260 H1248 0.950 . S
C1260 C1259 1.398 . S
C1260 C1261 1.391 . S
C1261 H1249 0.950 . S
C1261 C1257 1.393 . S
C1261 C1260 1.391 . S
H1262 C1270 0.950 . S
H1263 C1275 0.950 . S
H1264 C1272 0.950 . S
H1265 C1274 0.950 . S
H1266 C1276 0.950 . S
H1267 C1278 0.950 . S
H1268 C1280 0.950 . S
H1269 C1281 0.950 . S
C1270 H1262 0.950 . S
C1270 C1271 1.386 . S
C1270 C1272 1.391 . S
C1271 C1270 1.386 . S
C1271 C1275 1.393 . S
C1272 H1264 0.950 . S
C1272 C1270 1.391 . S
C1272 C1273 1.400 . S
C1273 C1272 1.400 . S
C1273 C1274 1.398 . S
C1273 C1279 1.491 . S
C1274 H1265 0.950 . S
C1274 C1273 1.398 . S
C1274 C1275 1.391 . S
C1275 H1263 0.950 . S
C1275 C1271 1.393 . S
C1275 C1274 1.391 . S
C1276 H1266 0.950 . S
C1276 C1277 1.386 . S
C1276 C1278 1.391 . S
C1277 C1276 1.386 . S
C1277 C1281 1.393 . S
C1278 H1267 0.950 . S
C1278 C1276 1.391 . S
C1278 C1279 1.400 . S
C1279 C1273 1.491 . S
C1279 C1278 1.400 . S
C1279 C1280 1.398 . S
C1280 H1268 0.950 . S
C1280 C1279 1.398 . S
C1280 C1281 1.391 . S
C1281 H1269 0.950 . S
C1281 C1277 1.393 . S
C1281 C1280 1.391 . S
H1282 C1290 0.950 . S
H1283 C1295 0.950 . S
H1284 C1292 0.950 . S
H1285 C1294 0.950 . S
H1286 C1296 0.950 . S
H1287 C1298 0.950 . S
H1288 C1300 0.950 . S
H1289 C1301 0.950 . S
C1290 H1282 0.950 . S
C1290 C1291 1.386 . S
C1290 C1292 1.391 . S
C1291 C1290 1.386 . S
C1291 C1295 1.393 . S
C1292 H1284 0.950 . S
C1292 C1290 1.391 . S
C1292 C1293 1.400 . S
C1293 C1292 1.400 . S
C1293 C1294 1.398 . S
C1293 C1299 1.491 . S
C1294 H1285 0.950 . S
C1294 C1293 1.398 . S
C1294 C1295 1.391 . S
C1295 H1283 0.950 . S
C1295 C1291 1.393 . S
C1295 C1294 1.391 . S
C1296 H1286 0.950 . S
C1296 C1297 1.386 . S
C1296 C1298 1.391 . S
C1297 C1296 1.386 . S
C1297 C1301 1.393 . S
C1298 H1287 0.950 . S
C1298 C1296 1.391 . S
C1298 C1299 1.400 . S
C1299 C1293 1.491 . S
C1299 C1298 1.400 . S
C1299 C1300 1.398 . S
C1300 H1288 0.950 . S
C1300 C1299 1.398 . S
C1300 C1301 1.391 . S
C1301 H1289 0.950 . S
C1301 C1297 1.393 . S
C1301 C1300 1.391 . S
H1302 C1310 0.950 . S
H1303 C1315 0.950 . S
H1304 C1312 0.950 . S
H1305 C1314 0.950 . S
H1306 C1316 0.950 . S
H1307 C1318 0.950 . S
H1308 C1320 0.950 . S
H1309 C1321 0.950 . S
C1310 H1302 0.950 . S
C1310 C1311 1.386 . S
C1310 C1312 1.391 1_655 S
C1311 C1310 1.386 . S
C1311 C1315 1.393 . S
C1312 H1304 0.950 . S
C1312 C1310 1.391 1_455 S
C1312 C1313 1.400 . S
C1313 C1312 1.400 . S
C1313 C1314 1.398 . S
C1313 C1319 1.491 . S
C1314 H1305 0.950 . S
C1314 C1313 1.398 . S
C1314 C1315 1.391 1_455 S
C1315 H1303 0.950 . S
C1315 C1311 1.393 . S
C1315 C1314 1.391 1_655 S
C1316 H1306 0.950 . S
C1316 C1317 1.386 . S
C1316 C1318 1.391 . S
C1317 C1316 1.386 . S
C1317 C1321 1.393 . S
C1318 H1307 0.950 . S
C1318 C1316 1.391 . S
C1318 C1319 1.400 . S
C1319 C1313 1.491 . S
C1319 C1318 1.400 . S
C1319 C1320 1.398 . S
C1320 H1308 0.950 . S
C1320 C1319 1.398 . S
C1320 C1321 1.391 . S
C1321 H1309 0.950 . S
C1321 C1317 1.393 . S
C1321 C1320 1.391 . S
H1322 C1330 0.950 . S
H1323 C1335 0.950 . S
H1324 C1332 0.950 . S
H1325 C1334 0.950 . S
H1326 C1336 0.950 . S
H1327 C1338 0.950 . S
H1328 C1340 0.950 . S
H1329 C1341 0.950 . S
C1330 H1322 0.950 . S
C1330 C1331 1.386 . S
C1330 C1332 1.391 . S
C1331 C1330 1.386 . S
C1331 C1335 1.393 . S
C1332 H1324 0.950 . S
C1332 C1330 1.391 . S
C1332 C1333 1.400 . S
C1333 C1332 1.400 . S
C1333 C1334 1.398 . S
C1333 C1339 1.491 . S
C1334 H1325 0.950 . S
C1334 C1333 1.398 . S
C1334 C1335 1.391 . S
C1335 H1323 0.950 . S
C1335 C1331 1.393 . S
C1335 C1334 1.391 . S
C1336 H1326 0.950 . S
C1336 C1337 1.386 . S
C1336 C1338 1.391 . S
C1337 C1336 1.386 . S
C1337 C1341 1.393 . S
C1338 H1327 0.950 . S
C1338 C1336 1.391 . S
C1338 C1339 1.400 . S
C1339 C1333 1.491 . S
C1339 C1338 1.400 . S
C1339 C1340 1.398 . S
C1340 H1328 0.950 . S
C1340 C1339 1.398 . S
C1340 C1341 1.391 . S
C1341 H1329 0.950 . S
C1341 C1337 1.393 . S
C1341 C1340 1.391 . S
H1342 C1350 0.950 . S
H1343 C1355 0.950 . S
H1344 C1352 0.950 1_565 S
H1345 C1354 0.950 1_565 S
H1346 C1356 0.950 . S
H1347 C1358 0.950 . S
H1348 C1360 0.950 . S
H1349 C1361 0.950 . S
C1350 H1342 0.950 . S
C1350 C1351 1.386 . S
C1350 C1352 1.391 . S
C1351 C1350 1.386 . S
C1351 C1355 1.393 . S
C1352 H1344 0.950 1_545 S
C1352 C1350 1.391 . S
C1352 C1353 1.400 1_545 S
C1353 C1352 1.400 1_565 S
C1353 C1354 1.398 1_565 S
C1353 C1359 1.491 . S
C1354 H1345 0.950 1_545 S
C1354 C1353 1.398 1_545 S
C1354 C1355 1.391 . S
C1355 H1343 0.950 . S
C1355 C1351 1.393 . S
C1355 C1354 1.391 . S
C1356 H1346 0.950 . S
C1356 C1357 1.386 . S
C1356 C1358 1.391 . S
C1357 C1356 1.386 . S
C1357 C1361 1.393 . S
C1358 H1347 0.950 . S
C1358 C1356 1.391 . S
C1358 C1359 1.400 . S
C1359 C1353 1.491 . S
C1359 C1358 1.400 . S
C1359 C1360 1.398 . S
C1360 H1348 0.950 . S
C1360 C1359 1.398 . S
C1360 C1361 1.391 . S
C1361 H1349 0.950 . S
C1361 C1357 1.393 . S
C1361 C1360 1.391 . S
H1362 C1370 0.950 . S
H1363 C1375 0.950 . S
H1364 C1372 0.950 . S
H1365 C1374 0.950 . S
H1366 C1376 0.950 . S
H1367 C1378 0.950 . S
H1368 C1380 0.950 . S
H1369 C1381 0.950 . S
C1370 H1362 0.950 . S
C1370 C1371 1.386 . S
C1370 C1372 1.391 . S
C1371 C1370 1.386 . S
C1371 C1375 1.393 . S
C1372 H1364 0.950 . S
C1372 C1370 1.391 . S
C1372 C1373 1.400 . S
C1373 C1372 1.400 . S
C1373 C1374 1.398 . S
C1373 C1379 1.491 . S
C1374 H1365 0.950 . S
C1374 C1373 1.398 . S
C1374 C1375 1.391 . S
C1375 H1363 0.950 . S
C1375 C1371 1.393 . S
C1375 C1374 1.391 . S
C1376 H1366 0.950 . S
C1376 C1377 1.386 . S
C1376 C1378 1.391 . S
C1377 C1376 1.386 . S
C1377 C1381 1.393 . S
C1378 H1367 0.950 . S
C1378 C1376 1.391 . S
C1378 C1379 1.400 . S
C1379 C1373 1.491 . S
C1379 C1378 1.400 . S
C1379 C1380 1.398 . S
C1380 H1368 0.950 . S
C1380 C1379 1.398 . S
C1380 C1381 1.391 . S
C1381 H1369 0.950 . S
C1381 C1377 1.393 . S
C1381 C1380 1.391 . S
H1382 C1390 0.950 . S
H1383 C1395 0.950 . S
H1384 C1392 0.950 . S
H1385 C1394 0.950 . S
H1386 C1396 0.950 . S
H1387 C1398 0.950 . S
H1388 C1400 0.950 . S
H1389 C1401 0.950 . S
C1390 H1382 0.950 . S
C1390 C1391 1.386 . S
C1390 C1392 1.391 . S
C1391 C1390 1.386 . S
C1391 C1395 1.393 . S
C1392 H1384 0.950 . S
C1392 C1390 1.391 . S
C1392 C1393 1.400 . S
C1393 C1392 1.400 . S
C1393 C1394 1.398 . S
C1393 C1399 1.491 . S
C1394 H1385 0.950 . S
C1394 C1393 1.398 . S
C1394 C1395 1.391 . S
C1395 H1383 0.950 . S
C1395 C1391 1.393 . S
C1395 C1394 1.391 . S
C1396 H1386 0.950 . S
C1396 C1397 1.386 . S
C1396 C1398 1.391 . S
C1397 C1396 1.386 . S
C1397 C1401 1.393 . S
C1398 H1387 0.950 . S
C1398 C1396 1.391 . S
C1398 C1399 1.400 . S
C1399 C1393 1.491 . S
C1399 C1398 1.400 . S
C1399 C1400 1.398 . S
C1400 H1388 0.950 . S
C1400 C1399 1.398 . S
C1400 C1401 1.391 . S
C1401 H1389 0.950 . S
C1401 C1397 1.393 . S
C1401 C1400 1.391 . S
H1402 C1410 0.950 . S
H1403 C1415 0.950 . S
H1404 C1412 0.950 . S
H1405 C1414 0.950 . S
H1406 C1416 0.950 . S
H1407 C1418 0.950 . S
H1408 C1420 0.950 . S
H1409 C1421 0.950 . S
C1410 H1402 0.950 . S
C1410 C1411 1.386 . S
C1410 C1412 1.391 . S
C1411 C1410 1.386 . S
C1411 C1415 1.393 . S
C1412 H1404 0.950 . S
C1412 C1410 1.391 . S
C1412 C1413 1.400 . S
C1413 C1412 1.400 . S
C1413 C1414 1.398 . S
C1413 C1419 1.491 . S
C1414 H1405 0.950 . S
C1414 C1413 1.398 . S
C1414 C1415 1.391 . S
C1415 H1403 0.950 . S
C1415 C1411 1.393 . S
C1415 C1414 1.391 . S
C1416 H1406 0.950 . S
C1416 C1417 1.386 . S
C1416 C1418 1.391 . S
C1417 C1416 1.386 . S
C1417 C1421 1.393 . S
C1418 H1407 0.950 . S
C1418 C1416 1.391 . S
C1418 C1419 1.400 . S
C1419 C1413 1.491 . S
C1419 C1418 1.400 . S
C1419 C1420 1.398 . S
C1420 H1408 0.950 . S
C1420 C1419 1.398 . S
C1420 C1421 1.391 . S
C1421 H1409 0.950 . S
C1421 C1417 1.393 . S
C1421 C1420 1.391 . S
H1422 C1430 0.950 . S
H1423 C1435 0.950 . S
H1424 C1432 0.950 . S
H1425 C1434 0.950 . S
H1426 C1436 0.950 . S
H1427 C1438 0.950 . S
H1428 C1440 0.950 . S
H1429 C1441 0.950 . S
C1430 H1422 0.950 . S
C1430 C1431 1.386 . S
C1430 C1432 1.391 . S
C1431 C1430 1.386 . S
C1431 C1435 1.393 . S
C1432 H1424 0.950 . S
C1432 C1430 1.391 . S
C1432 C1433 1.400 . S
C1433 C1432 1.400 . S
C1433 C1434 1.398 . S
C1433 C1439 1.491 . S
C1434 H1425 0.950 . S
C1434 C1433 1.398 . S
C1434 C1435 1.391 . S
C1435 H1423 0.950 . S
C1435 C1431 1.393 . S
C1435 C1434 1.391 . S
C1436 H1426 0.950 . S
C1436 C1437 1.386 . S
C1436 C1438 1.391 . S
C1437 C1436 1.386 . S
C1437 C1441 1.393 . S
C1438 H1427 0.950 . S
C1438 C1436 1.391 . S
C1438 C1439 1.400 . S
C1439 C1433 1.491 . S
C1439 C1438 1.400 . S
C1439 C1440 1.398 . S
C1440 H1428 0.950 . S
C1440 C1439 1.398 . S
C1440 C1441 1.391 . S
C1441 H1429 0.950 . S
C1441 C1437 1.393 . S
C1441 C1440 1.391 . S
H1442 C1450 0.950 . S
H1443 C1455 0.950 . S
H1444 C1452 0.950 . S
H1445 C1454 0.950 . S
H1446 C1456 0.950 . S
H1447 C1458 0.950 . S
H1448 C1460 0.950 . S
H1449 C1461 0.950 . S
C1450 H1442 0.950 . S
C1450 C1451 1.386 . S
C1450 C1452 1.391 . S
C1451 C1450 1.386 . S
C1451 C1455 1.393 . S
C1452 H1444 0.950 . S
C1452 C1450 1.391 . S
C1452 C1453 1.400 . S
C1453 C1452 1.400 . S
C1453 C1454 1.398 . S
C1453 C1459 1.491 . S
C1454 H1445 0.950 . S
C1454 C1453 1.398 . S
C1454 C1455 1.391 . S
C1455 H1443 0.950 . S
C1455 C1451 1.393 . S
C1455 C1454 1.391 . S
C1456 H1446 0.950 . S
C1456 C1457 1.386 . S
C1456 C1458 1.391 . S
C1457 C1456 1.386 . S
C1457 C1461 1.393 . S
C1458 H1447 0.950 . S
C1458 C1456 1.391 . S
C1458 C1459 1.400 . S
C1459 C1453 1.491 . S
C1459 C1458 1.400 . S
C1459 C1460 1.398 . S
C1460 H1448 0.950 . S
C1460 C1459 1.398 . S
C1460 C1461 1.391 . S
C1461 H1449 0.950 . S
C1461 C1457 1.393 . S
C1461 C1460 1.391 . S
H1462 C1470 0.950 . S
H1463 C1475 0.950 . S
H1464 C1472 0.950 . S
H1465 C1474 0.950 . S
H1466 C1476 0.950 . S
H1467 C1478 0.950 . S
H1468 C1480 0.950 . S
H1469 C1481 0.950 . S
C1470 H1462 0.950 . S
C1470 C1471 1.386 . S
C1470 C1472 1.391 . S
C1471 C1470 1.386 . S
C1471 C1475 1.393 . S
C1472 H1464 0.950 . S
C1472 C1470 1.391 . S
C1472 C1473 1.400 . S
C1473 C1472 1.400 . S
C1473 C1474 1.398 . S
C1473 C1479 1.491 . S
C1474 H1465 0.950 . S
C1474 C1473 1.398 . S
C1474 C1475 1.391 . S
C1475 H1463 0.950 . S
C1475 C1471 1.393 . S
C1475 C1474 1.391 . S
C1476 H1466 0.950 . S
C1476 C1477 1.386 . S
C1476 C1478 1.391 . S
C1477 C1476 1.386 . S
C1477 C1481 1.393 . S
C1478 H1467 0.950 . S
C1478 C1476 1.391 . S
C1478 C1479 1.400 . S
C1479 C1473 1.491 . S
C1479 C1478 1.400 . S
C1479 C1480 1.398 . S
C1480 H1468 0.950 . S
C1480 C1479 1.398 . S
C1480 C1481 1.391 . S
C1481 H1469 0.950 . S
C1481 C1477 1.393 . S
C1481 C1480 1.391 . S
H1482 C1490 0.950 . S
H1483 C1495 0.950 . S
H1484 C1492 0.943 1_565 S
H1485 C1494 0.950 . S
H1486 C1496 0.950 . S
H1487 C1498 0.950 . S
H1488 C1500 0.950 . S
H1489 C1501 0.950 . S
C1490 H1482 0.950 . S
C1490 C1491 1.386 . S
C1490 C1492 1.436 . S
C1491 C1490 1.386 . S
C1491 C1495 1.393 . S
C1492 H1484 0.943 1_545 S
C1492 C1490 1.436 . S
C1492 C1493 1.365 1_545 S
C1493 C1492 1.365 1_565 S
C1493 C1494 1.398 . S
C1493 C1499 1.491 . S
C1494 H1485 0.950 . S
C1494 C1493 1.398 . S
C1494 C1495 1.391 1_565 S
C1495 H1483 0.950 . S
C1495 C1491 1.393 . S
C1495 C1494 1.391 1_545 S
C1496 H1486 0.950 . S
C1496 C1497 1.386 . S
C1496 C1498 1.391 . S
C1497 C1496 1.386 . S
C1497 C1501 1.393 . S
C1498 H1487 0.950 . S
C1498 C1496 1.391 . S
C1498 C1499 1.400 . S
C1499 C1493 1.491 . S
C1499 C1498 1.400 . S
C1499 C1500 1.398 . S
C1500 H1488 0.950 . S
C1500 C1499 1.398 . S
C1500 C1501 1.391 . S
C1501 H1489 0.950 . S
C1501 C1497 1.393 . S
C1501 C1500 1.391 . S
H1502 C1510 0.949 . S
H1503 C1515 0.950 1_655 S
H1504 C1512 0.950 . S
H1505 C1514 0.950 . S
H1506 C1516 0.950 . S
H1507 C1518 0.950 . S
H1508 C1520 0.950 . S
H1509 C1521 0.950 . S
C1510 H1502 0.949 . S
C1510 C1511 1.384 . S
C1510 C1512 1.393 1_655 S
C1511 C1510 1.384 . S
C1511 C1515 1.393 1_655 S
C1512 H1504 0.950 . S
C1512 C1510 1.393 1_455 S
C1512 C1513 1.400 . S
C1513 C1512 1.400 . S
C1513 C1514 1.398 . S
C1513 C1519 1.491 . S
C1514 H1505 0.950 . S
C1514 C1513 1.398 . S
C1514 C1515 1.391 . S
C1515 H1503 0.950 1_455 S
C1515 C1511 1.393 1_455 S
C1515 C1514 1.391 . S
C1516 H1506 0.950 . S
C1516 C1517 1.386 . S
C1516 C1518 1.391 . S
C1517 C1516 1.386 . S
C1517 C1521 1.393 . S
C1518 H1507 0.950 . S
C1518 C1516 1.391 . S
C1518 C1519 1.400 . S
C1519 C1513 1.491 . S
C1519 C1518 1.400 . S
C1519 C1520 1.398 . S
C1520 H1508 0.950 . S
C1520 C1519 1.398 . S
C1520 C1521 1.391 . S
C1521 H1509 0.950 . S
C1521 C1517 1.393 . S
C1521 C1520 1.391 . S
H1522 C1530 0.950 . S
H1523 C1535 0.950 . S
H1524 C1532 0.950 . S
H1525 C1534 0.950 . S
H1526 C1536 0.950 . S
H1527 C1538 0.950 . S
H1528 C1540 0.950 . S
H1529 C1541 0.950 . S
C1530 H1522 0.950 . S
C1530 C1531 1.386 . S
C1530 C1532 1.391 . S
C1531 C1530 1.386 . S
C1531 C1535 1.393 . S
C1532 H1524 0.950 . S
C1532 C1530 1.391 . S
C1532 C1533 1.400 . S
C1533 C1532 1.400 . S
C1533 C1534 1.398 . S
C1533 C1539 1.491 . S
C1534 H1525 0.950 . S
C1534 C1533 1.398 . S
C1534 C1535 1.391 . S
C1535 H1523 0.950 . S
C1535 C1531 1.393 . S
C1535 C1534 1.391 . S
C1536 H1526 0.950 . S
C1536 C1537 1.386 . S
C1536 C1538 1.391 . S
C1537 C1536 1.386 . S
C1537 C1541 1.393 . S
C1538 H1527 0.950 . S
C1538 C1536 1.391 . S
C1538 C1539 1.400 . S
C1539 C1533 1.491 . S
C1539 C1538 1.400 . S
C1539 C1540 1.398 . S
C1540 H1528 0.950 . S
C1540 C1539 1.398 . S
C1540 C1541 1.391 . S
C1541 H1529 0.950 . S
C1541 C1537 1.393 . S
C1541 C1540 1.391 . S
H1542 C1550 0.950 . S
H1543 C1555 0.950 . S
H1544 C1552 0.950 . S
H1545 C1554 0.950 . S
H1546 C1556 0.950 . S
H1547 C1558 0.950 . S
H1548 C1560 0.950 . S
H1549 C1561 0.950 . S
C1550 H1542 0.950 . S
C1550 C1551 1.386 . S
C1550 C1552 1.391 . S
C1551 C1550 1.386 . S
C1551 C1555 1.393 . S
C1552 H1544 0.950 . S
C1552 C1550 1.391 . S
C1552 C1553 1.400 . S
C1553 C1552 1.400 . S
C1553 C1554 1.398 . S
C1553 C1559 1.491 . S
C1554 H1545 0.950 . S
C1554 C1553 1.398 . S
C1554 C1555 1.391 . S
C1555 H1543 0.950 . S
C1555 C1551 1.393 . S
C1555 C1554 1.391 . S
C1556 H1546 0.950 . S
C1556 C1557 1.386 . S
C1556 C1558 1.391 . S
C1557 C1556 1.386 . S
C1557 C1561 1.393 . S
C1558 H1547 0.950 . S
C1558 C1556 1.391 . S
C1558 C1559 1.400 . S
C1559 C1553 1.491 . S
C1559 C1558 1.400 . S
C1559 C1560 1.398 . S
C1560 H1548 0.950 . S
C1560 C1559 1.398 . S
C1560 C1561 1.391 . S
C1561 H1549 0.950 . S
C1561 C1557 1.393 . S
C1561 C1560 1.391 . S
H1562 C1570 0.950 . S
H1563 C1575 0.950 . S
H1564 C1572 0.950 . S
H1565 C1574 0.950 . S
H1566 C1576 0.950 . S
H1567 C1578 0.950 . S
H1568 C1580 0.950 . S
H1569 C1581 0.950 . S
C1570 H1562 0.950 . S
C1570 C1571 1.386 . S
C1570 C1572 1.391 . S
C1571 C1570 1.386 . S
C1571 C1575 1.393 . S
C1572 H1564 0.950 . S
C1572 C1570 1.391 . S
C1572 C1573 1.400 . S
C1573 C1572 1.400 . S
C1573 C1574 1.398 . S
C1573 C1579 1.491 . S
C1574 H1565 0.950 . S
C1574 C1573 1.398 . S
C1574 C1575 1.391 . S
C1575 H1563 0.950 . S
C1575 C1571 1.393 . S
C1575 C1574 1.391 . S
C1576 H1566 0.950 . S
C1576 C1577 1.386 . S
C1576 C1578 1.391 . S
C1577 C1576 1.386 . S
C1577 C1581 1.393 . S
C1578 H1567 0.950 . S
C1578 C1576 1.391 . S
C1578 C1579 1.400 . S
C1579 C1573 1.491 . S
C1579 C1578 1.400 . S
C1579 C1580 1.398 . S
C1580 H1568 0.950 . S
C1580 C1579 1.398 . S
C1580 C1581 1.391 . S
C1581 H1569 0.950 . S
C1581 C1577 1.393 . S
C1581 C1580 1.391 . S
H1582 C1590 0.950 . S
H1583 C1595 0.950 . S
H1584 C1592 0.950 . S
H1585 C1594 0.950 . S
H1586 C1596 0.950 . S
H1587 C1598 0.950 . S
H1588 C1600 0.950 . S
H1589 C1601 0.950 . S
C1590 H1582 0.950 . S
C1590 C1591 1.386 . S
C1590 C1592 1.391 . S
C1591 C1590 1.386 . S
C1591 C1595 1.393 . S
C1592 H1584 0.950 . S
C1592 C1590 1.391 . S
C1592 C1593 1.400 . S
C1593 C1592 1.400 . S
C1593 C1594 1.398 . S
C1593 C1599 1.491 . S
C1594 H1585 0.950 . S
C1594 C1593 1.398 . S
C1594 C1595 1.391 . S
C1595 H1583 0.950 . S
C1595 C1591 1.393 . S
C1595 C1594 1.391 . S
C1596 H1586 0.950 . S
C1596 C1597 1.386 . S
C1596 C1598 1.391 . S
C1597 C1596 1.386 . S
C1597 C1601 1.393 . S
C1598 H1587 0.950 . S
C1598 C1596 1.391 . S
C1598 C1599 1.400 . S
C1599 C1593 1.491 . S
C1599 C1598 1.400 . S
C1599 C1600 1.398 . S
C1600 H1588 0.950 . S
C1600 C1599 1.398 . S
C1600 C1601 1.391 . S
C1601 H1589 0.950 . S
C1601 C1597 1.393 . S
C1601 C1600 1.391 . S
H1602 C1610 0.950 . S
H1603 C1615 0.950 . S
H1604 C1612 0.950 . S
H1605 C1614 0.950 1_545 S
H1606 C1616 0.950 . S
H1607 C1618 0.950 . S
H1608 C1620 0.950 . S
H1609 C1621 0.950 . S
C1610 H1602 0.950 . S
C1610 C1611 1.386 . S
C1610 C1612 1.391 1_565 S
C1611 C1610 1.386 . S
C1611 C1615 1.393 . S
C1612 H1604 0.950 . S
C1612 C1610 1.391 1_545 S
C1612 C1613 1.400 . S
C1613 C1612 1.400 . S
C1613 C1614 1.401 1_545 S
C1613 C1619 1.491 . S
C1614 H1605 0.950 1_565 S
C1614 C1613 1.401 1_565 S
C1614 C1615 1.388 . S
C1615 H1603 0.950 . S
C1615 C1611 1.393 . S
C1615 C1614 1.388 . S
C1616 H1606 0.950 . S
C1616 C1617 1.386 . S
C1616 C1618 1.391 . S
C1617 C1616 1.386 . S
C1617 C1621 1.393 . S
C1618 H1607 0.950 . S
C1618 C1616 1.391 . S
C1618 C1619 1.400 . S
C1619 C1613 1.491 . S
C1619 C1618 1.400 . S
C1619 C1620 1.398 . S
C1620 H1608 0.950 . S
C1620 C1619 1.398 . S
C1620 C1621 1.391 . S
C1621 H1609 0.950 . S
C1621 C1617 1.393 . S
C1621 C1620 1.391 . S
H1622 C1630 0.950 . S
H1623 C1635 0.950 1_455 S
H1624 C1632 0.950 . S
H1625 C1634 0.950 . S
H1626 C1636 0.950 . S
H1627 C1638 0.950 . S
H1628 C1640 0.950 . S
H1629 C1641 0.950 . S
C1630 H1622 0.950 . S
C1630 C1631 1.386 . S
C1630 C1632 1.391 1_455 S
C1631 C1630 1.386 . S
C1631 C1635 1.393 1_455 S
C1632 H1624 0.950 . S
C1632 C1630 1.391 1_655 S
C1632 C1633 1.400 . S
C1633 C1632 1.400 . S
C1633 C1634 1.398 . S
C1633 C1639 1.491 . S
C1634 H1625 0.950 . S
C1634 C1633 1.398 . S
C1634 C1635 1.391 . S
C1635 H1623 0.950 1_655 S
C1635 C1631 1.393 1_655 S
C1635 C1634 1.391 . S
C1636 H1626 0.950 . S
C1636 C1637 1.386 . S
C1636 C1638 1.391 . S
C1637 C1636 1.386 . S
C1637 C1641 1.393 . S
C1638 H1627 0.950 . S
C1638 C1636 1.391 . S
C1638 C1639 1.400 . S
C1639 C1633 1.491 . S
C1639 C1638 1.400 . S
C1639 C1640 1.398 . S
C1640 H1628 0.950 . S
C1640 C1639 1.398 . S
C1640 C1641 1.391 . S
C1641 H1629 0.950 . S
C1641 C1637 1.393 . S
C1641 C1640 1.391 . S
H1642 C1650 0.950 . S
H1643 C1655 0.950 . S
H1644 C1652 0.950 . S
H1645 C1654 0.950 . S
H1646 C1656 0.950 . S
H1647 C1658 0.950 . S
H1648 C1660 0.950 . S
H1649 C1661 0.950 . S
C1650 H1642 0.950 . S
C1650 C1651 1.386 . S
C1650 C1652 1.391 . S
C1651 C1650 1.386 . S
C1651 C1655 1.393 . S
C1652 H1644 0.950 . S
C1652 C1650 1.391 . S
C1652 C1653 1.400 . S
C1653 C1652 1.400 . S
C1653 C1654 1.398 . S
C1653 C1659 1.491 . S
C1654 H1645 0.950 . S
C1654 C1653 1.398 . S
C1654 C1655 1.391 . S
C1655 H1643 0.950 . S
C1655 C1651 1.393 . S
C1655 C1654 1.391 . S
C1656 H1646 0.950 . S
C1656 C1657 1.386 . S
C1656 C1658 1.391 . S
C1657 C1656 1.386 . S
C1657 C1661 1.393 . S
C1658 H1647 0.950 . S
C1658 C1656 1.391 . S
C1658 C1659 1.400 . S
C1659 C1653 1.491 . S
C1659 C1658 1.400 . S
C1659 C1660 1.398 . S
C1660 H1648 0.950 . S
C1660 C1659 1.398 . S
C1660 C1661 1.391 . S
C1661 H1649 0.950 . S
C1661 C1657 1.393 . S
C1661 C1660 1.391 . S
H1662 C1670 0.950 . S
H1663 C1675 0.950 . S
H1664 C1672 0.950 . S
H1665 C1674 0.950 . S
H1666 C1676 0.950 . S
H1667 C1678 0.950 . S
H1668 C1680 0.950 . S
H1669 C1681 0.950 . S
C1670 H1662 0.950 . S
C1670 C1671 1.386 . S
C1670 C1672 1.391 1_455 S
C1671 C1670 1.386 . S
C1671 C1675 1.393 . S
C1672 H1664 0.950 . S
C1672 C1670 1.391 1_655 S
C1672 C1673 1.400 . S
C1673 C1672 1.400 . S
C1673 C1674 1.398 . S
C1673 C1679 1.491 . S
C1674 H1665 0.950 . S
C1674 C1673 1.398 . S
C1674 C1675 1.391 1_655 S
C1675 H1663 0.950 . S
C1675 C1671 1.393 . S
C1675 C1674 1.391 1_455 S
C1676 H1666 0.950 . S
C1676 C1677 1.386 . S
C1676 C1678 1.391 . S
C1677 C1676 1.386 . S
C1677 C1681 1.393 . S
C1678 H1667 0.950 . S
C1678 C1676 1.391 . S
C1678 C1679 1.400 . S
C1679 C1673 1.491 . S
C1679 C1678 1.400 . S
C1679 C1680 1.398 . S
C1680 H1668 0.950 . S
C1680 C1679 1.398 . S
C1680 C1681 1.391 . S
C1681 H1669 0.950 . S
C1681 C1677 1.393 . S
C1681 C1680 1.391 . S
H1682 C1690 0.950 . S
H1683 C1695 0.950 . S
H1684 C1692 0.950 . S
H1685 C1694 0.950 . S
H1686 C1696 0.950 . S
H1687 C1698 0.950 . S
H1688 C1700 0.950 . S
H1689 C1701 0.950 . S
C1690 H1682 0.950 . S
C1690 C1691 1.386 . S
C1690 C1692 1.391 . S
C1691 C1690 1.386 . S
C1691 C1695 1.393 . S
C1692 H1684 0.950 . S
C1692 C1690 1.391 . S
C1692 C1693 1.400 . S
C1693 C1692 1.400 . S
C1693 C1694 1.398 . S
C1693 C1699 1.491 . S
C1694 H1685 0.950 . S
C1694 C1693 1.398 . S
C1694 C1695 1.391 . S
C1695 H1683 0.950 . S
C1695 C1691 1.393 . S
C1695 C1694 1.391 . S
C1696 H1686 0.950 . S
C1696 C1697 1.386 . S
C1696 C1698 1.391 . S
C1697 C1696 1.386 . S
C1697 C1701 1.393 . S
C1698 H1687 0.950 . S
C1698 C1696 1.391 . S
C1698 C1699 1.400 . S
C1699 C1693 1.491 . S
C1699 C1698 1.400 . S
C1699 C1700 1.398 . S
C1700 H1688 0.950 . S
C1700 C1699 1.398 . S
C1700 C1701 1.391 . S
C1701 H1689 0.950 . S
C1701 C1697 1.393 . S
C1701 C1700 1.391 . S
H1702 C1710 0.950 . S
H1703 C1715 0.950 . S
H1704 C1712 0.950 1_545 S
H1705 C1714 0.950 1_545 S
H1706 C1716 0.950 . S
H1707 C1718 0.950 . S
H1708 C1720 0.950 . S
H1709 C1721 0.950 . S
C1710 H1702 0.950 . S
C1710 C1711 1.386 . S
C1710 C1712 1.391 . S
C1711 C1710 1.386 . S
C1711 C1715 1.393 . S
C1712 H1704 0.950 1_565 S
C1712 C1710 1.391 . S
C1712 C1713 1.400 1_565 S
C1713 C1712 1.400 1_545 S
C1713 C1714 1.398 1_545 S
C1713 C1719 1.491 . S
C1714 H1705 0.950 1_565 S
C1714 C1713 1.398 1_565 S
C1714 C1715 1.391 . S
C1715 H1703 0.950 . S
C1715 C1711 1.393 . S
C1715 C1714 1.391 . S
C1716 H1706 0.950 . S
C1716 C1717 1.386 . S
C1716 C1718 1.391 . S
C1717 C1716 1.386 . S
C1717 C1721 1.393 . S
C1718 H1707 0.950 . S
C1718 C1716 1.391 . S
C1718 C1719 1.400 . S
C1719 C1713 1.491 . S
C1719 C1718 1.400 . S
C1719 C1720 1.398 . S
C1720 H1708 0.950 . S
C1720 C1719 1.398 . S
C1720 C1721 1.391 . S
C1721 H1709 0.950 . S
C1721 C1717 1.393 . S
C1721 C1720 1.391 . S
H1722 C1730 0.950 . S
H1723 C1735 0.950 . S
H1724 C1732 0.950 . S
H1725 C1734 0.950 . S
H1726 C1736 0.950 . S
H1727 C1738 0.950 . S
H1728 C1740 0.950 . S
H1729 C1741 0.950 . S
C1730 H1722 0.950 . S
C1730 C1731 1.386 . S
C1730 C1732 1.391 . S
C1731 C1730 1.386 . S
C1731 C1735 1.393 . S
C1732 H1724 0.950 . S
C1732 C1730 1.391 . S
C1732 C1733 1.400 . S
C1733 C1732 1.400 . S
C1733 C1734 1.398 . S
C1733 C1739 1.491 . S
C1734 H1725 0.950 . S
C1734 C1733 1.398 . S
C1734 C1735 1.391 . S
C1735 H1723 0.950 . S
C1735 C1731 1.393 . S
C1735 C1734 1.391 . S
C1736 H1726 0.950 . S
C1736 C1737 1.386 . S
C1736 C1738 1.391 . S
C1737 C1736 1.386 . S
C1737 C1741 1.393 . S
C1738 H1727 0.950 . S
C1738 C1736 1.391 . S
C1738 C1739 1.400 . S
C1739 C1733 1.491 . S
C1739 C1738 1.400 . S
C1739 C1740 1.398 . S
C1740 H1728 0.950 . S
C1740 C1739 1.398 . S
C1740 C1741 1.391 . S
C1741 H1729 0.950 . S
C1741 C1737 1.393 . S
C1741 C1740 1.391 . S
H1742 C1750 0.950 . S
H1743 C1755 0.950 . S
H1744 C1752 0.950 . S
H1745 C1754 0.950 . S
H1746 C1756 0.950 . S
H1747 C1758 0.950 . S
H1748 C1760 0.950 . S
H1749 C1761 0.950 . S
C1750 H1742 0.950 . S
C1750 C1751 1.386 . S
C1750 C1752 1.391 . S
C1751 C1750 1.386 . S
C1751 C1755 1.393 . S
C1752 H1744 0.950 . S
C1752 C1750 1.391 . S
C1752 C1753 1.400 . S
C1753 C1752 1.400 . S
C1753 C1754 1.398 . S
C1753 C1759 1.491 . S
C1754 H1745 0.950 . S
C1754 C1753 1.398 . S
C1754 C1755 1.391 . S
C1755 H1743 0.950 . S
C1755 C1751 1.393 . S
C1755 C1754 1.391 . S
C1756 H1746 0.950 . S
C1756 C1757 1.386 . S
C1756 C1758 1.391 . S
C1757 C1756 1.386 . S
C1757 C1761 1.393 . S
C1758 H1747 0.950 . S
C1758 C1756 1.391 . S
C1758 C1759 1.400 . S
C1759 C1753 1.491 . S
C1759 C1758 1.400 . S
C1759 C1760 1.398 . S
C1760 H1748 0.950 . S
C1760 C1759 1.398 . S
C1760 C1761 1.391 . S
C1761 H1749 0.950 . S
C1761 C1757 1.393 . S
C1761 C1760 1.391 . S
H1762 C1770 0.950 . S
H1763 C1775 0.950 . S
H1764 C1772 0.950 . S
H1765 C1774 0.950 . S
H1766 C1776 0.950 . S
H1767 C1778 0.950 . S
H1768 C1780 0.950 . S
H1769 C1781 0.950 . S
C1770 H1762 0.950 . S
C1770 C1771 1.386 . S
C1770 C1772 1.391 . S
C1771 C1770 1.386 . S
C1771 C1775 1.393 . S
C1772 H1764 0.950 . S
C1772 C1770 1.391 . S
C1772 C1773 1.400 . S
C1773 C1772 1.400 . S
C1773 C1774 1.398 . S
C1773 C1779 1.491 . S
C1774 H1765 0.950 . S
C1774 C1773 1.398 . S
C1774 C1775 1.391 . S
C1775 H1763 0.950 . S
C1775 C1771 1.393 . S
C1775 C1774 1.391 . S
C1776 H1766 0.950 . S
C1776 C1777 1.386 . S
C1776 C1778 1.391 . S
C1777 C1776 1.386 . S
C1777 C1781 1.393 . S
C1778 H1767 0.950 . S
C1778 C1776 1.391 . S
C1778 C1779 1.400 . S
C1779 C1773 1.491 . S
C1779 C1778 1.400 . S
C1779 C1780 1.398 . S
C1780 H1768 0.950 . S
C1780 C1779 1.398 . S
C1780 C1781 1.391 . S
C1781 H1769 0.950 . S
C1781 C1777 1.393 . S
C1781 C1780 1.391 . S
H1782 C1790 0.950 . S
H1783 C1795 0.950 . S
H1784 C1792 0.950 . S
H1785 C1794 0.950 . S
H1786 C1796 0.950 . S
H1787 C1798 0.950 . S
H1788 C1800 0.950 . S
H1789 C1801 0.950 . S
C1790 H1782 0.950 . S
C1790 C1791 1.386 . S
C1790 C1792 1.391 . S
C1791 C1790 1.386 . S
C1791 C1795 1.393 . S
C1792 H1784 0.950 . S
C1792 C1790 1.391 . S
C1792 C1793 1.400 . S
C1793 C1792 1.400 . S
C1793 C1794 1.398 . S
C1793 C1799 1.491 . S
C1794 H1785 0.950 . S
C1794 C1793 1.398 . S
C1794 C1795 1.391 . S
C1795 H1783 0.950 . S
C1795 C1791 1.393 . S
C1795 C1794 1.391 . S
C1796 H1786 0.950 . S
C1796 C1797 1.386 . S
C1796 C1798 1.391 . S
C1797 C1796 1.386 . S
C1797 C1801 1.393 . S
C1798 H1787 0.950 . S
C1798 C1796 1.391 . S
C1798 C1799 1.400 . S
C1799 C1793 1.491 . S
C1799 C1798 1.400 . S
C1799 C1800 1.398 . S
C1800 H1788 0.950 . S
C1800 C1799 1.398 . S
C1800 C1801 1.391 . S
C1801 H1789 0.950 . S
C1801 C1797 1.393 . S
C1801 C1800 1.391 . S
H1802 C1810 0.950 . S
H1803 C1815 0.950 . S
H1804 C1812 0.950 . S
H1805 C1814 0.950 . S
H1806 C1816 0.950 1_655 S
H1807 C1818 0.910 1_655 S
H1808 C1820 0.950 . S
H1809 C1821 0.950 . S
C1810 H1802 0.950 . S
C1810 C1811 1.386 . S
C1810 C1812 1.391 . S
C1811 C1810 1.386 . S
C1811 C1815 1.393 1_455 S
C1812 H1804 0.950 . S
C1812 C1810 1.391 . S
C1812 C1813 1.400 . S
C1813 C1812 1.400 . S
C1813 C1814 1.398 1_455 S
C1813 C1819 1.491 . S
C1814 H1805 0.950 . S
C1814 C1813 1.398 1_655 S
C1814 C1815 1.391 . S
C1815 H1803 0.950 . S
C1815 C1811 1.393 1_655 S
C1815 C1814 1.391 . S
C1816 H1806 0.950 1_455 S
C1816 C1817 1.386 . S
C1816 C1818 1.399 . S
C1817 C1816 1.386 . S
C1817 C1821 1.393 . S
C1818 H1807 0.910 1_455 S
C1818 C1816 1.399 . S
C1818 C1819 1.433 . S
C1819 C1813 1.491 . S
C1819 C1818 1.433 . S
C1819 C1820 1.398 . S
C1820 H1808 0.950 . S
C1820 C1819 1.398 . S
C1820 C1821 1.391 . S
C1821 H1809 0.950 . S
C1821 C1817 1.393 . S
C1821 C1820 1.391 . S
H1822 C1830 0.950 . S
H1823 C1835 0.950 . S
H1824 C1832 0.950 . S
H1825 C1834 0.950 . S
H1826 C1836 0.950 . S
H1827 C1838 0.950 . S
H1828 C1840 0.950 . S
H1829 C1841 0.950 . S
C1830 H1822 0.950 . S
C1830 C1831 1.386 . S
C1830 C1832 1.391 . S
C1831 C1830 1.386 . S
C1831 C1835 1.393 . S
C1832 H1824 0.950 . S
C1832 C1830 1.391 . S
C1832 C1833 1.400 . S
C1833 C1832 1.400 . S
C1833 C1834 1.398 . S
C1833 C1839 1.491 . S
C1834 H1825 0.950 . S
C1834 C1833 1.398 . S
C1834 C1835 1.391 . S
C1835 H1823 0.950 . S
C1835 C1831 1.393 . S
C1835 C1834 1.391 . S
C1836 H1826 0.950 . S
C1836 C1837 1.386 . S
C1836 C1838 1.391 . S
C1837 C1836 1.386 . S
C1837 C1841 1.393 . S
C1838 H1827 0.950 . S
C1838 C1836 1.391 . S
C1838 C1839 1.400 . S
C1839 C1833 1.491 . S
C1839 C1838 1.400 . S
C1839 C1840 1.398 . S
C1840 H1828 0.950 . S
C1840 C1839 1.398 . S
C1840 C1841 1.391 . S
C1841 H1829 0.950 . S
C1841 C1837 1.393 . S
C1841 C1840 1.391 . S
H1842 C1850 0.950 . S
H1843 C1855 0.950 . S
H1844 C1852 0.950 . S
H1845 C1854 0.950 . S
H1846 C1856 0.950 . S
H1847 C1858 0.950 . S
H1848 C1860 0.950 . S
H1849 C1861 0.950 . S
C1850 H1842 0.950 . S
C1850 C1851 1.386 1_455 S
C1850 C1852 1.391 . S
C1851 C1850 1.386 1_655 S
C1851 C1855 1.393 . S
C1852 H1844 0.950 . S
C1852 C1850 1.391 . S
C1852 C1853 1.400 1_455 S
C1853 C1852 1.400 1_655 S
C1853 C1854 1.398 . S
C1853 C1859 1.491 . S
C1854 H1845 0.950 . S
C1854 C1853 1.398 . S
C1854 C1855 1.391 . S
C1855 H1843 0.950 . S
C1855 C1851 1.393 . S
C1855 C1854 1.391 . S
C1856 H1846 0.950 . S
C1856 C1857 1.386 . S
C1856 C1858 1.391 . S
C1857 C1856 1.386 . S
C1857 C1861 1.393 1_655 S
C1858 H1847 0.950 . S
C1858 C1856 1.391 . S
C1858 C1859 1.400 . S
C1859 C1853 1.491 . S
C1859 C1858 1.400 . S
C1859 C1860 1.398 1_655 S
C1860 H1848 0.950 . S
C1860 C1859 1.398 1_455 S
C1860 C1861 1.391 . S
C1861 H1849 0.950 . S
C1861 C1857 1.393 1_455 S
C1861 C1860 1.391 . S
H1862 C1870 0.950 . S
H1863 C1875 0.950 . S
H1864 C1872 0.950 . S
H1865 C1874 0.950 . S
H1866 C1876 0.950 . S
H1867 C1878 0.950 . S
H1868 C1880 0.950 . S
H1869 C1881 0.950 . S
C1870 H1862 0.950 . S
C1870 C1871 1.386 . S
C1870 C1872 1.391 . S
C1871 C1870 1.386 . S
C1871 C1875 1.393 . S
C1872 H1864 0.950 . S
C1872 C1870 1.391 . S
C1872 C1873 1.400 . S
C1873 C1872 1.400 . S
C1873 C1874 1.398 . S
C1873 C1879 1.491 . S
C1874 H1865 0.950 . S
C1874 C1873 1.398 . S
C1874 C1875 1.391 . S
C1875 H1863 0.950 . S
C1875 C1871 1.393 . S
C1875 C1874 1.391 . S
C1876 H1866 0.950 . S
C1876 C1877 1.386 . S
C1876 C1878 1.391 . S
C1877 C1876 1.386 . S
C1877 C1881 1.393 . S
C1878 H1867 0.950 . S
C1878 C1876 1.391 . S
C1878 C1879 1.400 . S
C1879 C1873 1.491 . S
C1879 C1878 1.400 . S
C1879 C1880 1.398 . S
C1880 H1868 0.950 . S
C1880 C1879 1.398 . S
C1880 C1881 1.391 . S
C1881 H1869 0.950 . S
C1881 C1877 1.393 . S
C1881 C1880 1.391 . S
H1882 C1890 0.950 . S
H1883 C1895 0.950 . S
H1884 C1892 0.950 . S
H1885 C1894 0.950 . S
H1886 C1896 0.950 . S
H1887 C1898 0.950 . S
H1888 C1900 0.950 . S
H1889 C1901 0.950 . S
C1890 H1882 0.950 . S
C1890 C1891 1.386 . S
C1890 C1892 1.391 . S
C1891 C1890 1.386 . S
C1891 C1895 1.393 . S
C1892 H1884 0.950 . S
C1892 C1890 1.391 . S
C1892 C1893 1.400 . S
C1893 C1892 1.400 . S
C1893 C1894 1.398 . S
C1893 C1899 1.491 . S
C1894 H1885 0.950 . S
C1894 C1893 1.398 . S
C1894 C1895 1.391 . S
C1895 H1883 0.950 . S
C1895 C1891 1.393 . S
C1895 C1894 1.391 . S
C1896 H1886 0.950 . S
C1896 C1897 1.386 . S
C1896 C1898 1.391 . S
C1897 C1896 1.386 . S
C1897 C1901 1.393 . S
C1898 H1887 0.950 . S
C1898 C1896 1.391 . S
C1898 C1899 1.400 . S
C1899 C1893 1.491 . S
C1899 C1898 1.400 . S
C1899 C1900 1.398 . S
C1900 H1888 0.950 . S
C1900 C1899 1.398 . S
C1900 C1901 1.391 . S
C1901 H1889 0.950 . S
C1901 C1897 1.393 . S
C1901 C1900 1.391 . S
H1902 C1910 0.950 . S
H1903 C1915 0.950 . S
H1904 C1912 0.950 . S
H1905 C1914 0.950 . S
H1906 C1916 0.950 . S
H1907 C1918 0.950 . S
H1908 C1920 0.950 . S
H1909 C1921 0.950 . S
C1910 H1902 0.950 . S
C1910 C1911 1.386 . S
C1910 C1912 1.391 . S
C1911 C1910 1.386 . S
C1911 C1915 1.393 . S
C1912 H1904 0.950 . S
C1912 C1910 1.391 . S
C1912 C1913 1.400 . S
C1913 C1912 1.400 . S
C1913 C1914 1.398 . S
C1913 C1919 1.491 . S
C1914 H1905 0.950 . S
C1914 C1913 1.398 . S
C1914 C1915 1.391 . S
C1915 H1903 0.950 . S
C1915 C1911 1.393 . S
C1915 C1914 1.391 . S
C1916 H1906 0.950 . S
C1916 C1917 1.386 . S
C1916 C1918 1.391 . S
C1917 C1916 1.386 . S
C1917 C1921 1.393 . S
C1918 H1907 0.950 . S
C1918 C1916 1.391 . S
C1918 C1919 1.400 . S
C1919 C1913 1.491 . S
C1919 C1918 1.400 . S
C1919 C1920 1.398 . S
C1920 H1908 0.950 . S
C1920 C1919 1.398 . S
C1920 C1921 1.391 . S
C1921 H1909 0.950 . S
C1921 C1917 1.393 . S
C1921 C1920 1.391 . S
H1922 C1930 0.950 . S
H1923 C1935 0.950 . S
H1924 C1932 0.950 . S
H1925 C1934 0.950 . S
H1926 C1936 0.950 . S
H1927 C1938 0.950 . S
H1928 C1940 0.950 . S
H1929 C1941 0.950 . S
C1930 H1922 0.950 . S
C1930 C1931 1.386 . S
C1930 C1932 1.391 . S
C1931 C1930 1.386 . S
C1931 C1935 1.393 . S
C1932 H1924 0.950 . S
C1932 C1930 1.391 . S
C1932 C1933 1.400 . S
C1933 C1932 1.400 . S
C1933 C1934 1.398 . S
C1933 C1939 1.491 . S
C1934 H1925 0.950 . S
C1934 C1933 1.398 . S
C1934 C1935 1.391 . S
C1935 H1923 0.950 . S
C1935 C1931 1.393 . S
C1935 C1934 1.391 . S
C1936 H1926 0.950 . S
C1936 C1937 1.386 . S
C1936 C1938 1.391 . S
C1937 C1936 1.386 . S
C1937 C1941 1.393 . S
C1938 H1927 0.950 . S
C1938 C1936 1.391 . S
C1938 C1939 1.400 . S
C1939 C1933 1.491 . S
C1939 C1938 1.400 . S
C1939 C1940 1.398 . S
C1940 H1928 0.950 . S
C1940 C1939 1.398 . S
C1940 C1941 1.391 . S
C1941 H1929 0.950 . S
C1941 C1937 1.393 . S
C1941 C1940 1.391 . S
H1942 C1950 0.950 . S
H1943 C1955 0.950 . S
H1944 C1952 0.950 . S
H1945 C1954 0.950 . S
H1946 C1956 0.950 . S
H1947 C1958 0.950 . S
H1948 C1960 0.950 . S
H1949 C1961 0.950 . S
C1950 H1942 0.950 . S
C1950 C1951 1.386 . S
C1950 C1952 1.391 . S
C1951 C1950 1.386 . S
C1951 C1955 1.393 . S
C1952 H1944 0.950 . S
C1952 C1950 1.391 . S
C1952 C1953 1.400 . S
C1953 C1952 1.400 . S
C1953 C1954 1.398 . S
C1953 C1959 1.491 . S
C1954 H1945 0.950 . S
C1954 C1953 1.398 . S
C1954 C1955 1.391 . S
C1955 H1943 0.950 . S
C1955 C1951 1.393 . S
C1955 C1954 1.391 . S
C1956 H1946 0.950 . S
C1956 C1957 1.386 . S
C1956 C1958 1.391 . S
C1957 C1956 1.386 . S
C1957 C1961 1.393 . S
C1958 H1947 0.950 . S
C1958 C1956 1.391 . S
C1958 C1959 1.400 . S
C1959 C1953 1.491 . S
C1959 C1958 1.400 . S
C1959 C1960 1.398 . S
C1960 H1948 0.950 . S
C1960 C1959 1.398 . S
C1960 C1961 1.391 . S
C1961 H1949 0.950 . S
C1961 C1957 1.393 . S
C1961 C1960 1.391 . S
H1962 C1970 0.950 . S
H1963 C1975 0.950 . S
H1964 C1972 0.950 . S
H1965 C1974 0.950 . S
H1966 C1976 0.950 . S
H1967 C1978 0.950 . S
H1968 C1980 0.950 . S
H1969 C1981 0.950 . S
C1970 H1962 0.950 . S
C1970 C1971 1.386 . S
C1970 C1972 1.391 . S
C1971 C1970 1.386 . S
C1971 C1975 1.393 . S
C1972 H1964 0.950 . S
C1972 C1970 1.391 . S
C1972 C1973 1.400 . S
C1973 C1972 1.400 . S
C1973 C1974 1.398 . S
C1973 C1979 1.491 . S
C1974 H1965 0.950 . S
C1974 C1973 1.398 . S
C1974 C1975 1.391 . S
C1975 H1963 0.950 . S
C1975 C1971 1.393 . S
C1975 C1974 1.391 . S
C1976 H1966 0.950 . S
C1976 C1977 1.386 . S
C1976 C1978 1.391 . S
C1977 C1976 1.386 . S
C1977 C1981 1.393 . S
C1978 H1967 0.950 . S
C1978 C1976 1.391 . S
C1978 C1979 1.400 . S
C1979 C1973 1.491 . S
C1979 C1978 1.400 . S
C1979 C1980 1.398 . S
C1980 H1968 0.950 . S
C1980 C1979 1.398 . S
C1980 C1981 1.391 . S
C1981 H1969 0.950 . S
C1981 C1977 1.393 . S
C1981 C1980 1.391 . S
H1982 C1990 0.950 . S
H1983 C1995 0.950 . S
H1984 C1992 0.950 . S
H1985 C1994 0.950 . S
H1986 C1996 0.950 . S
H1987 C1998 0.950 . S
H1988 C2000 0.950 . S
H1989 C2001 0.950 . S
C1990 H1982 0.950 . S
C1990 C1991 1.386 . S
C1990 C1992 1.391 . S
C1991 C1990 1.386 . S
C1991 C1995 1.393 . S
C1992 H1984 0.950 . S
C1992 C1990 1.391 . S
C1992 C1993 1.400 . S
C1993 C1992 1.400 . S
C1993 C1994 1.398 . S
C1993 C1999 1.491 . S
C1994 H1985 0.950 . S
C1994 C1993 1.398 . S
C1994 C1995 1.391 . S
C1995 H1983 0.950 . S
C1995 C1991 1.393 . S
C1995 C1994 1.391 . S
C1996 H1986 0.950 . S
C1996 C1997 1.386 . S
C1996 C1998 1.391 . S
C1997 C1996 1.386 . S
C1997 C2001 1.393 . S
C1998 H1987 0.950 . S
C1998 C1996 1.391 . S
C1998 C1999 1.400 . S
C1999 C1993 1.491 . S
C1999 C1998 1.400 . S
C1999 C2000 1.398 . S
C2000 H1988 0.950 . S
C2000 C1999 1.398 . S
C2000 C2001 1.391 . S
C2001 H1989 0.950 . S
C2001 C1997 1.393 . S
C2001 C2000 1.391 . S
H2002 C2010 0.950 . S
H2003 C2015 0.950 . S
H2004 C2012 0.950 . S
H2005 C2014 0.950 . S
H2006 C2016 0.950 . S
H2007 C2018 0.950 . S
H2008 C2020 0.950 . S
H2009 C2021 0.950 . S
C2010 H2002 0.950 . S
C2010 C2011 1.386 . S
C2010 C2012 1.391 . S
C2011 C2010 1.386 . S
C2011 C2015 1.393 . S
C2012 H2004 0.950 . S
C2012 C2010 1.391 . S
C2012 C2013 1.400 . S
C2013 C2012 1.400 . S
C2013 C2014 1.398 . S
C2013 C2019 1.491 . S
C2014 H2005 0.950 . S
C2014 C2013 1.398 . S
C2014 C2015 1.391 . S
C2015 H2003 0.950 . S
C2015 C2011 1.393 . S
C2015 C2014 1.391 . S
C2016 H2006 0.950 . S
C2016 C2017 1.386 . S
C2016 C2018 1.391 . S
C2017 C2016 1.386 . S
C2017 C2021 1.393 . S
C2018 H2007 0.950 . S
C2018 C2016 1.391 . S
C2018 C2019 1.400 . S
C2019 C2013 1.491 . S
C2019 C2018 1.400 . S
C2019 C2020 1.398 . S
C2020 H2008 0.950 . S
C2020 C2019 1.398 . S
C2020 C2021 1.391 . S
C2021 H2009 0.950 . S
C2021 C2017 1.393 . S
C2021 C2020 1.391 . S
H2022 C2030 0.950 . S
H2023 C2035 0.950 . S
H2024 C2032 0.950 . S
H2025 C2034 0.950 . S
H2026 C2036 0.950 . S
H2027 C2038 0.950 . S
H2028 C2040 0.950 . S
H2029 C2041 0.950 . S
C2030 H2022 0.950 . S
C2030 C2031 1.386 . S
C2030 C2032 1.391 . S
C2031 C2030 1.386 . S
C2031 C2035 1.393 . S
C2032 H2024 0.950 . S
C2032 C2030 1.391 . S
C2032 C2033 1.400 . S
C2033 C2032 1.400 . S
C2033 C2034 1.398 . S
C2033 C2039 1.491 . S
C2034 H2025 0.950 . S
C2034 C2033 1.398 . S
C2034 C2035 1.391 . S
C2035 H2023 0.950 . S
C2035 C2031 1.393 . S
C2035 C2034 1.391 . S
C2036 H2026 0.950 . S
C2036 C2037 1.386 . S
C2036 C2038 1.391 . S
C2037 C2036 1.386 . S
C2037 C2041 1.393 . S
C2038 H2027 0.950 . S
C2038 C2036 1.391 . S
C2038 C2039 1.400 . S
C2039 C2033 1.491 . S
C2039 C2038 1.400 . S
C2039 C2040 1.398 . S
C2040 H2028 0.950 . S
C2040 C2039 1.398 . S
C2040 C2041 1.391 . S
C2041 H2029 0.950 . S
C2041 C2037 1.393 . S
C2041 C2040 1.391 . S
H2042 C2050 0.950 . S
H2043 C2055 0.950 . S
H2044 C2052 0.950 . S
H2045 C2054 0.950 . S
H2046 C2056 0.950 . S
H2047 C2058 0.950 . S
H2048 C2060 0.950 . S
H2049 C2061 0.950 . S
C2050 H2042 0.950 . S
C2050 C2051 1.386 . S
C2050 C2052 1.391 . S
C2051 C2050 1.386 . S
C2051 C2055 1.393 . S
C2052 H2044 0.950 . S
C2052 C2050 1.391 . S
C2052 C2053 1.400 . S
C2053 C2052 1.400 . S
C2053 C2054 1.398 . S
C2053 C2059 1.491 . S
C2054 H2045 0.950 . S
C2054 C2053 1.398 . S
C2054 C2055 1.391 . S
C2055 H2043 0.950 . S
C2055 C2051 1.393 . S
C2055 C2054 1.391 . S
C2056 H2046 0.950 . S
C2056 C2057 1.386 . S
C2056 C2058 1.391 . S
C2057 C2056 1.386 . S
C2057 C2061 1.393 . S
C2058 H2047 0.950 . S
C2058 C2056 1.391 . S
C2058 C2059 1.400 . S
C2059 C2053 1.491 . S
C2059 C2058 1.400 . S
C2059 C2060 1.398 . S
C2060 H2048 0.950 . S
C2060 C2059 1.398 . S
C2060 C2061 1.391 . S
C2061 H2049 0.950 . S
C2061 C2057 1.393 . S
C2061 C2060 1.391 . S
H2062 C2070 0.950 . S
H2063 C2075 0.950 . S
H2064 C2072 0.950 . S
H2065 C2074 0.950 . S
H2066 C2076 0.950 . S
H2067 C2078 0.950 . S
H2068 C2080 0.950 . S
H2069 C2081 0.950 . S
C2070 H2062 0.950 . S
C2070 C2071 1.386 . S
C2070 C2072 1.391 . S
C2071 C2070 1.386 . S
C2071 C2075 1.393 . S
C2072 H2064 0.950 . S
C2072 C2070 1.391 . S
C2072 C2073 1.400 . S
C2073 C2072 1.400 . S
C2073 C2074 1.398 . S
C2073 C2079 1.491 . S
C2074 H2065 0.950 . S
C2074 C2073 1.398 . S
C2074 C2075 1.391 . S
C2075 H2063 0.950 . S
C2075 C2071 1.393 . S
C2075 C2074 1.391 . S
C2076 H2066 0.950 . S
C2076 C2077 1.386 . S
C2076 C2078 1.391 . S
C2077 C2076 1.386 . S
C2077 C2081 1.393 . S
C2078 H2067 0.950 . S
C2078 C2076 1.391 . S
C2078 C2079 1.400 . S
C2079 C2073 1.491 . S
C2079 C2078 1.400 . S
C2079 C2080 1.398 . S
C2080 H2068 0.950 . S
C2080 C2079 1.398 . S
C2080 C2081 1.391 . S
C2081 H2069 0.950 . S
C2081 C2077 1.393 . S
C2081 C2080 1.391 . S
H2082 C2090 0.950 . S
H2083 C2095 0.950 . S
H2084 C2092 0.950 . S
H2085 C2094 0.950 . S
H2086 C2096 0.950 . S
H2087 C2098 0.950 . S
H2088 C2100 0.950 . S
H2089 C2101 0.950 . S
C2090 H2082 0.950 . S
C2090 C2091 1.386 . S
C2090 C2092 1.391 . S
C2091 C2090 1.386 . S
C2091 C2095 1.393 . S
C2092 H2084 0.950 . S
C2092 C2090 1.391 . S
C2092 C2093 1.400 . S
C2093 C2092 1.400 . S
C2093 C2094 1.398 . S
C2093 C2099 1.491 . S
C2094 H2085 0.950 . S
C2094 C2093 1.398 . S
C2094 C2095 1.391 . S
C2095 H2083 0.950 . S
C2095 C2091 1.393 . S
C2095 C2094 1.391 . S
C2096 H2086 0.950 . S
C2096 C2097 1.386 . S
C2096 C2098 1.391 . S
C2097 C2096 1.386 . S
C2097 C2101 1.393 . S
C2098 H2087 0.950 . S
C2098 C2096 1.391 . S
C2098 C2099 1.400 . S
C2099 C2093 1.491 . S
C2099 C2098 1.400 . S
C2099 C2100 1.398 . S
C2100 H2088 0.950 . S
C2100 C2099 1.398 . S
C2100 C2101 1.391 . S
C2101 H2089 0.950 . S
C2101 C2097 1.393 . S
C2101 C2100 1.391 . S
H2102 C2110 0.950 . S
H2103 C2115 0.950 . S
H2104 C2112 0.950 . S
H2105 C2114 0.950 . S
H2106 C2116 0.950 . S
H2107 C2118 0.950 . S
H2108 C2120 0.950 . S
H2109 C2121 0.950 . S
C2110 H2102 0.950 . S
C2110 C2111 1.386 . S
C2110 C2112 1.391 . S
C2111 C2110 1.386 . S
C2111 C2115 1.393 . S
C2112 H2104 0.950 . S
C2112 C2110 1.391 . S
C2112 C2113 1.400 . S
C2113 C2112 1.400 . S
C2113 C2114 1.398 . S
C2113 C2119 1.491 . S
C2114 H2105 0.950 . S
C2114 C2113 1.398 . S
C2114 C2115 1.391 . S
C2115 H2103 0.950 . S
C2115 C2111 1.393 . S
C2115 C2114 1.391 . S
C2116 H2106 0.950 . S
C2116 C2117 1.386 . S
C2116 C2118 1.391 . S
C2117 C2116 1.386 . S
C2117 C2121 1.393 . S
C2118 H2107 0.950 . S
C2118 C2116 1.391 . S
C2118 C2119 1.400 . S
C2119 C2113 1.491 . S
C2119 C2118 1.400 . S
C2119 C2120 1.398 . S
C2120 H2108 0.950 . S
C2120 C2119 1.398 . S
C2120 C2121 1.391 . S
C2121 H2109 0.950 . S
C2121 C2117 1.393 . S
C2121 C2120 1.391 . S
H2122 C2130 0.950 . S
H2123 C2135 0.950 . S
H2124 C2132 0.950 . S
H2125 C2134 0.950 . S
H2126 C2136 0.950 . S
H2127 C2138 0.950 . S
H2128 C2140 0.950 . S
H2129 C2141 0.950 . S
C2130 H2122 0.950 . S
C2130 C2131 1.386 . S
C2130 C2132 1.391 . S
C2131 C2130 1.386 . S
C2131 C2135 1.393 . S
C2132 H2124 0.950 . S
C2132 C2130 1.391 . S
C2132 C2133 1.400 . S
C2133 C2132 1.400 . S
C2133 C2134 1.398 . S
C2133 C2139 1.491 . S
C2134 H2125 0.950 . S
C2134 C2133 1.398 . S
C2134 C2135 1.391 . S
C2135 H2123 0.950 . S
C2135 C2131 1.393 . S
C2135 C2134 1.391 . S
C2136 H2126 0.950 . S
C2136 C2137 1.386 . S
C2136 C2138 1.391 . S
C2137 C2136 1.386 . S
C2137 C2141 1.393 . S
C2138 H2127 0.950 . S
C2138 C2136 1.391 . S
C2138 C2139 1.400 . S
C2139 C2133 1.491 . S
C2139 C2138 1.400 . S
C2139 C2140 1.398 . S
C2140 H2128 0.950 . S
C2140 C2139 1.398 . S
C2140 C2141 1.391 . S
C2141 H2129 0.950 . S
C2141 C2137 1.393 . S
C2141 C2140 1.391 . S
C1071 C528 1.658 . S
C1077 C705 1.674 . S
C1091 C562 1.820 . S
C1097 C745 1.821 . S
C1111 C484 1.734 . S
C1117 C797 1.752 . S
C1131 C445 1.579 . S
C1137 C757 1.575 . S
C1157 C785 1.495 . S
C1151 C367 1.484 . S
C1171 C411 1.396 . S
C1177 C717 1.427 . S
C1197 C724 1.704 . S
C1191 C450 1.679 . S
C1217 C764 1.800 . S
C1211 C372 1.792 . S
C1231 C406 1.737 . S
C1237 C784 1.763 . S
C1251 C523 1.558 . S
C1257 C744 1.560 . S
C1271 C567 1.464 . S
C1277 C804 1.477 . S
C1297 C704 1.440 . S
C1291 C489 1.413 . S
C1317 C825 1.685 . S
C1311 C60 1.672 . S
C1331 C94 1.824 . S
C1337 C865 1.825 . S
C1351 C16 1.735 . S
C1357 C917 1.749 . S
C1371 C679 1.574 . S
C1377 C877 1.565 . S
C1391 C601 1.481 . S
C1397 C905 1.493 . S
C1411 C645 1.412 . S
C1417 C837 1.422 . S
C1431 C684 1.665 . S
C1437 C844 1.694 . S
C1451 C606 1.791 . S
C1457 C884 1.803 . S
C1477 C904 1.759 . S
C1471 C640 1.733 . S
C1491 C55 1.559 . S
C1497 C864 1.570 . S
C1517 C924 1.478 . S
C1511 C99 1.461 . S
C1531 C21 1.423 . S
C1537 C824 1.454 . S
C1557 C945 1.675 . S
C1551 C294 1.659 . S
C1571 C328 1.817 . S
C1577 C985 1.822 . S
C1597 C1037 1.766 . S
C1591 C250 1.747 . S
C1617 C997 1.577 . S
C1611 C211 1.572 . S
C1637 C1025 1.496 . S
C1631 C133 1.488 . S
C1651 C177 1.412 . S
C1657 C957 1.434 . S
C1671 C216 1.660 . S
C1677 C964 1.691 . S
C1691 C138 1.795 . S
C1697 C1004 1.801 . S
C1717 C1024 1.753 . S
C1711 C172 1.741 . S
C1731 C289 1.573 . S
C1737 C984 1.579 . S
C1751 C333 1.464 . S
C1757 C1044 1.479 . S
C1771 C255 1.421 . S
C1777 C944 1.445 . S
C1791 C586 1.328 . S
C1797 C728 1.320 . S
C1817 C768 1.858 . S
C1811 C625 1.869 . S
C1831 C664 1.570 . S
C1837 C791 1.580 . S
C1851 C235 1.868 . S
C1857 C751 1.862 . S
C1871 C274 1.566 . S
C1877 C808 1.570 . S
C1897 C711 1.321 . S
C1891 C313 1.326 . S
C1911 C118 1.331 . S
C1917 C848 1.315 . S
C1931 C157 1.867 . S
C1937 C888 1.855 . S
C1951 C196 1.576 . S
C1957 C911 1.584 . S
C1971 C469 1.874 . S
C1977 C871 1.868 . S
C1997 C928 1.570 . S
C1991 C508 1.567 . S
C2011 C547 1.327 . S
C2017 C831 1.312 . S
C2031 C352 1.328 . S
C2037 C968 1.323 . S
C2051 C391 1.869 . S
C2057 C1008 1.860 . S
C2077 C1031 1.578 . S
C2071 C430 1.568 . S
C2091 C1 1.875 . S
C2097 C991 1.874 . S
C2111 C40 1.566 . S
C2117 C1048 1.564 . S
C2131 C79 1.328 . S
C2137 C951 1.326 . S
