# Generated by pormake.
# Topology ssa, (4,4)-cn, num edge types: 1
# Building blocks:
#     Node 0, Type 0, BuildingBlock: KUFVIS_clean_linker_0, # of connection points: 4
#     Node 1, Type 0, BuildingBlock: KUFVIS_clean_linker_0, # of connection points: 4
#     Node 2, Type 0, BuildingBlock: KUFVIS_clean_linker_0, # of connection points: 4
#     Node 3, Type 0, BuildingBlock: KUFVIS_clean_linker_0, # of connection points: 4
#     Node 4, Type 0, BuildingBlock: KUFVIS_clean_linker_0, # of connection points: 4
#     Node 5, Type 0, BuildingBlock: KUFVIS_clean_linker_0, # of connection points: 4
#     Node 6, Type 1, BuildingBlock: MUDLON_clean_sbu_0, # of connection points: 4
#     Node 7, Type 1, BuildingBlock: MUDLON_clean_sbu_0, # of connection points: 4
#     Node 8, Type 1, BuildingBlock: MUDLON_clean_sbu_0, # of connection points: 4
#     Node 9, Type 1, BuildingBlock: MUDLON_clean_sbu_0, # of connection points: 4
#     Node 10, Type 1, BuildingBlock: MUDLON_clean_sbu_0, # of connection points: 4
#     Node 11, Type 1, BuildingBlock: MUDLON_clean_sbu_0, # of connection points: 4
#     Edge 12, Type (0, 1), BuildingBlock: UVAHIK_clean_linker_0, # of connection points: 2
#     Edge 13, Type (0, 1), BuildingBlock: UVAHIK_clean_linker_0, # of connection points: 2
#     Edge 14, Type (0, 1), BuildingBlock: UVAHIK_clean_linker_0, # of connection points: 2
#     Edge 15, Type (0, 1), BuildingBlock: UVAHIK_clean_linker_0, # of connection points: 2
#     Edge 16, Type (0, 1), BuildingBlock: UVAHIK_clean_linker_0, # of connection points: 2
#     Edge 17, Type (0, 1), BuildingBlock: UVAHIK_clean_linker_0, # of connection points: 2
#     Edge 18, Type (0, 1), BuildingBlock: UVAHIK_clean_linker_0, # of connection points: 2
#     Edge 19, Type (0, 1), BuildingBlock: UVAHIK_clean_linker_0, # of connection points: 2
#     Edge 20, Type (0, 1), BuildingBlock: UVAHIK_clean_linker_0, # of connection points: 2
#     Edge 21, Type (0, 1), BuildingBlock: UVAHIK_clean_linker_0, # of connection points: 2
#     Edge 22, Type (0, 1), BuildingBlock: UVAHIK_clean_linker_0, # of connection points: 2
#     Edge 23, Type (0, 1), BuildingBlock: UVAHIK_clean_linker_0, # of connection points: 2
#     Edge 24, Type (0, 1), BuildingBlock: UVAHIK_clean_linker_0, # of connection points: 2
#     Edge 25, Type (0, 1), BuildingBlock: UVAHIK_clean_linker_0, # of connection points: 2
#     Edge 26, Type (0, 1), BuildingBlock: UVAHIK_clean_linker_0, # of connection points: 2
#     Edge 27, Type (0, 1), BuildingBlock: UVAHIK_clean_linker_0, # of connection points: 2
#     Edge 28, Type (0, 1), BuildingBlock: UVAHIK_clean_linker_0, # of connection points: 2
#     Edge 29, Type (0, 1), BuildingBlock: UVAHIK_clean_linker_0, # of connection points: 2
#     Edge 30, Type (0, 1), BuildingBlock: UVAHIK_clean_linker_0, # of connection points: 2
#     Edge 31, Type (0, 1), BuildingBlock: UVAHIK_clean_linker_0, # of connection points: 2
#     Edge 32, Type (0, 1), BuildingBlock: UVAHIK_clean_linker_0, # of connection points: 2
#     Edge 33, Type (0, 1), BuildingBlock: UVAHIK_clean_linker_0, # of connection points: 2
#     Edge 34, Type (0, 1), BuildingBlock: UVAHIK_clean_linker_0, # of connection points: 2
#     Edge 35, Type (0, 1), BuildingBlock: UVAHIK_clean_linker_0, # of connection points: 2
# Relax obj value: 0.001
# Max RMSD: 0.051
# Mean RMSD: 0.029
data_MOF--net-ssa--node1-MUDLON_clean_sbu_0--node2-KUFVIS_clean_linker_0--edge1-UVAHIK_clean_linker_0
_symmetry_space_group_name_H-M    P1
_symmetry_Int_Tables_number       1
_symmetry_cell_setting            triclinic
loop_
_symmetry_equiv_pos_as_xyz
'x, y, z'
_cell_length_a     57.004172
_cell_length_b     56.786568
_cell_length_c     52.874022
_cell_angle_alpha  89.361095
_cell_angle_beta   90.396489
_cell_angle_gamma 120.03983
loop_
_atom_site_label
_atom_site_type_symbol
_atom_site_fract_x
_atom_site_fract_y
_atom_site_fract_z
_atom_type_partial_charge
H0 H 0.9446 0.47939 0.9772 0.0
H1 H 0.9946 0.53084 0.03646 0.0
H2 H 0.99204 0.45454 1.02094 0.0
H3 H 0.00396 0.45595 0.06086 0.0
H4 H 0.06471 0.51275 0.11093 0.0
H5 H 0.0343 0.54277 0.05244 0.0
C6 C 0.95887 0.48323 0.99249 0.0
C7 C 0.96643 0.46392 0.99837 0.0
C8 C 0.96957 0.50756 1.00566 0.0
C9 C 0.98771 0.51242 0.02576 0.0
C10 C 0.99633 0.49342 0.03197 0.0
C11 C 0.98569 0.46933 1.01749 0.0
C12 C 0.01602 0.49858 0.05345 0.0
C13 C 0.01716 0.47689 0.0662 0.0
C14 C 0.03507 0.48214 0.08666 0.0
C15 C 0.05121 0.50876 0.09494 0.0
C16 C 0.05047 0.53039 0.08296 0.0
C17 C 0.03366 0.52546 0.06185 0.0
H18 H 0.50804 0.04406 0.61652 0.0
H19 H 0.45257 0.00294 0.55613 0.0
H20 H 0.52636 0.99883 0.564 0.0
H21 H 0.52 0.98752 0.52358 0.0
H22 H 0.45543 0.92608 0.47979 0.0
H23 H 0.43613 0.96181 0.54106 0.0
C24 C 0.50236 0.03105 0.60007 0.0
C25 C 0.52004 0.02277 0.59109 0.0
C26 C 0.47791 0.02364 0.58778 0.0
C27 C 0.47117 0.00769 0.56585 0.0
C28 C 0.48807 0.9977 0.55699 0.0
C29 C 0.51285 0.00594 0.56982 0.0
C30 C 0.47938 0.97797 0.53525 0.0
C31 C 0.49846 0.97501 0.52032 0.0
C32 C 0.4897 0.95608 0.50046 0.0
C33 C 0.46206 0.9403 0.49537 0.0
C34 C 0.44285 0.94253 0.50978 0.0
C35 C 0.45148 0.96116 0.52968 0.0
H36 H 0.45323 0.53807 0.08571 0.0
H37 H 0.43153 0.47928 0.02735 0.0
H38 H 0.5162 0.53363 0.04598 0.0
H39 H 0.52087 0.52828 1.00385 0.0
H40 H 0.50051 0.45966 0.95668 0.0
H41 H 0.4468 0.45145 1.01643 0.0
C42 C 0.4594 0.52903 0.07107 0.0
C43 C 0.48691 0.53845 0.06734 0.0
C44 C 0.43961 0.50764 0.05696 0.0
C45 C 0.44732 0.49551 0.03834 0.0
C46 C 0.47503 0.50469 0.03365 0.0
C47 C 0.49483 0.52646 0.04848 0.0
C48 C 0.48285 0.49172 1.01312 0.0
C49 C 0.50725 0.50713 0.9994 0.0
C50 C 0.51367 0.49566 0.97901 0.0
C51 C 0.4956 0.46873 0.97224 0.0
C52 C 0.47142 0.45298 0.98533 0.0
C53 C 0.46534 0.46419 1.00612 0.0
H54 H 0.93243 0.47045 0.58552 0.0
H55 H 0.98381 0.54487 0.54567 0.0
H56 H 0.99083 0.47323 0.53342 0.0
H57 H 0.03367 0.50488 0.52545 0.0
H58 H 0.07033 0.56698 0.46853 0.0
H59 H 0.99751 0.55375 0.50429 0.0
C60 C 0.94807 0.48159 0.57151 0.0
C61 C 0.9609 0.46895 0.56024 0.0
C62 C 0.95607 0.50877 0.56621 0.0
C63 C 0.97725 0.52361 0.54897 0.0
C64 C 0.99008 0.5112 0.53645 0.0
C65 C 0.98169 0.48362 0.54254 0.0
C66 C 0.01252 0.52716 0.51769 0.0
C67 C 0.0333 0.52078 0.51429 0.0
C68 C 0.05411 0.53503 0.49664 0.0
C69 C 0.05463 0.55629 0.4826 0.0
C70 C 0.03457 0.56328 0.48542 0.0
C71 C 0.01339 0.54868 0.50285 0.0
H72 H 0.50384 0.97639 0.11271 0.0
H73 H 0.4834 0.00609 0.04626 0.0
H74 H 0.56386 0.01666 0.05544 0.0
H75 H 0.56596 0.01916 1.01452 0.0
H76 H 0.55618 0.06689 0.95693 0.0
H77 H 0.50492 0.04312 1.02211 0.0
C78 C 0.50986 0.98712 0.09471 0.0
C79 C 0.53569 0.99549 0.08512 0.0
C80 C 0.49113 0.99123 0.08099 0.0
C81 C 0.49845 0.00392 0.05697 0.0
C82 C 0.52498 0.01369 0.04712 0.0
C83 C 0.54332 0.00923 0.06175 0.0
C84 C 0.53372 0.02847 1.02191 0.0
C85 C 0.55547 0.02948 1.00788 0.0
C86 C 0.56372 0.04355 0.98462 0.0
C87 C 0.54972 0.05588 0.97478 0.0
C88 C 0.52841 0.05546 0.98808 0.0
C89 C 0.52081 0.04231 1.01177 0.0
H90 H 0.56518 0.50707 0.60593 0.0
H91 H 0.57249 0.566 0.55068 0.0
H92 H 0.51095 0.48102 0.54271 0.0
H93 H 0.489 0.49792 0.52049 0.0
H94 H 0.51045 0.54439 0.45148 0.0
H95 H 0.57066 0.5653 0.50891 0.0
C96 C 0.55818 0.51198 0.5886 0.0
C97 C 0.53636 0.49127 0.57548 0.0
C98 C 0.57141 0.53879 0.57965 0.0
C99 C 0.56233 0.54504 0.55707 0.0
C100 C 0.54011 0.52446 0.54326 0.0
C101 C 0.5273 0.49751 0.55297 0.0
C102 C 0.53116 0.53063 0.51829 0.0
C103 C 0.50425 0.51429 0.50906 0.0
C104 C 0.49688 0.51877 0.48469 0.0
C105 C 0.51615 0.54036 0.46996 0.0
C106 C 0.54235 0.5575 0.47904 0.0
C107 C 0.54988 0.55246 0.50291 0.0
Mg108 Mg 0.22851 0.4489 0.2963 0.0
C109 C 0.19139 0.42123 0.25063 0.0
O110 O 0.21483 0.42965 0.23956 0.0
C111 C 0.25553 0.44418 0.34441 0.0
O112 O 0.24741 0.46099 0.35154 0.0
C113 C 0.1946 0.45636 0.33166 0.0
O114 O 0.18272 0.43009 0.32742 0.0
O115 O 0.21633 0.47209 0.31975 0.0
O116 O 0.19085 0.42315 0.27464 0.0
O117 O 0.25838 0.47143 0.26714 0.0
C118 C 0.27101 0.45941 0.26018 0.0
O119 O 0.26694 0.43763 0.27282 0.0
O120 O 0.24864 0.43352 0.32249 0.0
Mg121 Mg 0.79656 0.2223 0.7737 0.0
C122 C 0.75536 0.18405 0.74166 0.0
O123 O 0.77425 0.17739 0.74445 0.0
C124 C 0.83478 0.26938 0.80214 0.0
O125 O 0.84914 0.26064 0.79035 0.0
C126 C 0.7866 0.19058 0.82314 0.0
O127 O 0.79825 0.21534 0.83219 0.0
O128 O 0.78672 0.18756 0.79926 0.0
O129 O 0.7585 0.20517 0.7529 0.0
O130 O 0.82727 0.2374 0.74325 0.0
C131 C 0.82169 0.24966 0.72589 0.0
O132 O 0.79902 0.25024 0.72772 0.0
O133 O 0.80934 0.25737 0.79807 0.0
Mg134 Mg 0.58136 0.79374 0.28477 0.0
C135 C 0.58804 0.8305 0.24276 0.0
O136 O 0.56359 0.8096 0.23959 0.0
C137 C 0.61424 0.76755 0.30253 0.0
O138 O 0.61176 0.76049 0.27869 0.0
C139 C 0.56216 0.80579 0.33392 0.0
O140 O 0.57811 0.79713 0.34274 0.0
O141 O 0.55746 0.80435 0.31017 0.0
O142 O 0.60243 0.83024 0.26116 0.0
O143 O 0.56072 0.7588 0.25873 0.0
C144 C 0.57349 0.76038 0.23842 0.0
O145 O 0.59682 0.78255 0.23412 0.0
O146 O 0.60611 0.78366 0.30941 0.0
Mg147 Mg 0.79329 0.58331 0.79583 0.0
C148 C 0.78793 0.61128 0.74812 0.0
O149 O 0.80391 0.60301 0.73897 0.0
C150 C 0.82017 0.57965 0.84214 0.0
O151 O 0.79791 0.55596 0.84002 0.0
C152 C 0.75443 0.57404 0.83535 0.0
O153 O 0.77559 0.59798 0.84004 0.0
O154 O 0.75535 0.56062 0.8166 0.0
O155 O 0.78353 0.60929 0.77189 0.0
O156 O 0.80482 0.56142 0.76965 0.0
C157 C 0.83025 0.57391 0.76555 0.0
O158 O 0.84568 0.59628 0.77819 0.0
O159 O 0.82494 0.59804 0.82556 0.0
Mg160 Mg 0.22745 0.79087 0.27353 0.0
C161 C 0.2314 0.75767 0.23106 0.0
O162 O 0.24698 0.78196 0.22125 0.0
C163 C 0.24951 0.81845 0.32074 0.0
O164 O 0.23202 0.82577 0.31333 0.0
C165 C 0.1692 0.75139 0.28987 0.0
O166 O 0.17155 0.73689 0.27194 0.0
O167 O 0.18784 0.77617 0.29226 0.0
O168 O 0.22328 0.75567 0.25375 0.0
O169 O 0.24547 0.82471 0.24544 0.0
C170 C 0.26863 0.84545 0.24984 0.0
O171 O 0.27923 0.84813 0.27249 0.0
O172 O 0.25345 0.80273 0.30663 0.0
Mg173 Mg 0.43751 0.22473 0.78375 0.0
C174 C 0.41675 0.19124 0.73547 0.0
O175 O 0.42588 0.21561 0.72565 0.0
C176 C 0.41035 0.22844 0.83296 0.0
O177 O 0.41478 0.209 0.84089 0.0
C178 C 0.47433 0.2264 0.82786 0.0
O179 O 0.47336 0.24795 0.83511 0.0
O180 O 0.46349 0.21529 0.80694 0.0
O181 O 0.41644 0.18864 0.75948 0.0
O182 O 0.45834 0.25995 0.7586 0.0
C183 C 0.44332 0.26932 0.75101 0.0
O184 O 0.41836 0.25788 0.75954 0.0
O185 O 0.41494 0.23598 0.80987 0.0
C186 C 0.05668 0.45346 0.09146 0.0
C187 C 0.03805 0.46078 0.10028 0.0
C188 C 0.06714 0.44131 0.10782 0.0
C189 C 0.08097 0.44036 0.17617 0.0
H190 H 0.10622 0.39135 0.15637 0.0
C191 C 0.14435 0.41458 0.24518 0.0
C192 C 0.1674 0.41546 0.23471 0.0
C193 C 0.12414 0.41418 0.2295 0.0
C194 C 0.09942 0.40516 0.16223 0.0
H195 H 0.01474 0.45996 0.13269 0.0
H196 H 0.03206 0.43785 0.16102 0.0
H197 H 0.07827 0.40056 0.12724 0.0
H198 H 0.18631 0.41498 0.1994 0.0
H199 H 0.15149 0.41446 0.17229 0.0
H200 H 0.1027 0.44567 0.21076 0.0
C201 C 0.03901 0.4418 0.14161 0.0
C202 C 0.08333 0.41043 0.14547 0.0
C203 C 0.02866 0.454 0.12527 0.0
C204 C 0.1689 0.41434 0.20821 0.0
C205 C 0.14876 0.41391 0.19258 0.0
C206 C 0.09705 0.43513 0.19287 0.0
C207 C 0.0593 0.43637 0.13345 0.0
C208 C 0.07417 0.42842 0.15206 0.0
C209 C 0.12642 0.41458 0.20293 0.0
C210 C 0.1069 0.41778 0.18604 0.0
H211 H 0.06482 0.45918 0.0725 0.0
H212 H 0.08284 0.43768 0.10082 0.0
H213 H 0.07484 0.45475 0.18184 0.0
H214 H 0.14246 0.41543 0.26548 0.0
H215 H 0.10703 0.4142 0.23823 0.0
C216 C 0.5467 0.0286 0.63035 0.0
C217 C 0.54629 0.03285 0.60419 0.0
C218 C 0.57066 0.04312 0.64412 0.0
C219 C 0.63344 0.10865 0.6427 0.0
H220 H 0.65422 0.07813 0.69859 0.0
C221 C 0.71237 0.17472 0.71922 0.0
C222 C 0.73141 0.16685 0.72575 0.0
C223 C 0.69019 0.1581 0.70372 0.0
C224 C 0.64876 0.08695 0.68297 0.0
H225 H 0.57059 0.05458 0.57162 0.0
H226 H 0.61281 0.08005 0.59574 0.0
H227 H 0.61622 0.04813 0.67158 0.0
H228 H 0.74202 0.13534 0.7212 0.0
H229 H 0.70366 0.10668 0.69447 0.0
H230 H 0.66602 0.14752 0.65419 0.0
C231 C 0.59454 0.06555 0.60559 0.0
C232 C 0.62692 0.06978 0.66758 0.0
C233 C 0.57055 0.05076 0.59175 0.0
C234 C 0.72776 0.14207 0.7166 0.0
C235 C 0.70564 0.12549 0.70135 0.0
C236 C 0.6552 0.12588 0.65823 0.0
C237 C 0.59464 0.06241 0.63203 0.0
C238 C 0.61898 0.08042 0.64731 0.0
C239 C 0.68658 0.13324 0.69472 0.0
C240 C 0.66309 0.1152 0.67853 0.0
H241 H 0.52813 0.01506 0.64033 0.0
H242 H 0.57001 0.04036 0.66446 0.0
H243 H 0.62755 0.1175 0.62744 0.0
H244 H 0.71467 0.19371 0.72594 0.0
H245 H 0.67569 0.16451 0.69904 0.0
C246 C 0.50336 0.55646 0.11047 0.0
C247 C 0.50619 0.5606 0.08416 0.0
C248 C 0.51419 0.5785 0.12701 0.0
C249 C 0.53389 0.65155 0.12691 0.0
H250 H 0.55316 0.64758 0.19667 0.0
C251 C 0.57408 0.74256 0.19557 0.0
C252 C 0.56397 0.73741 0.22044 0.0
C253 C 0.56762 0.72121 0.17889 0.0
C254 C 0.54757 0.64888 0.1773 0.0
H255 H 0.5242 0.59102 0.05458 0.0
H256 H 0.54438 0.62973 0.08347 0.0
H257 H 0.545 0.61115 0.1676 0.0
H258 H 0.53883 0.70564 0.24718 0.0
H259 H 0.52767 0.66809 0.21797 0.0
H260 H 0.53691 0.68953 0.13664 0.0
C261 C 0.53308 0.6094 0.09139 0.0
C262 C 0.54291 0.62798 0.16055 0.0
C263 C 0.52203 0.58722 0.07479 0.0
C264 C 0.54678 0.71029 0.2281 0.0
C265 C 0.54062 0.68881 0.21145 0.0
C266 C 0.53886 0.67257 0.14359 0.0
C267 C 0.52831 0.6054 0.1177 0.0
C268 C 0.53574 0.62884 0.13511 0.0
C269 C 0.55115 0.69403 0.18668 0.0
C270 C 0.54555 0.67142 0.16905 0.0
H271 H 0.49087 0.53614 0.11817 0.0
H272 H 0.50976 0.57433 0.14696 0.0
H273 H 0.52783 0.65283 0.10773 0.0
H274 H 0.58737 0.7632 0.18902 0.0
H275 H 0.57622 0.726 0.16005 0.0
C276 C 0.95878 0.54426 0.5957 0.0
C277 C 0.94309 0.52145 0.5806 0.0
C278 C 0.94636 0.55221 0.61381 0.0
C279 C 0.88019 0.54233 0.63603 0.0
H280 H 0.91369 0.55372 0.70221 0.0
C281 C 0.82619 0.54568 0.72752 0.0
C282 C 0.84235 0.56595 0.74498 0.0
C283 C 0.8381 0.54032 0.70689 0.0
C284 C 0.90419 0.5509 0.68383 0.0
H285 H 0.90217 0.49036 0.5711 0.0
H286 H 0.88047 0.50427 0.60252 0.0
H287 H 0.93575 0.54738 0.66583 0.0
H288 H 0.88371 0.59603 0.75473 0.0
H289 H 0.90423 0.58694 0.71896 0.0
H290 H 0.84855 0.5458 0.65415 0.0
C291 C 0.90229 0.51604 0.60053 0.0
C292 C 0.91693 0.54738 0.66293 0.0
C293 C 0.9147 0.50803 0.58257 0.0
C294 C 0.87061 0.58024 0.7417 0.0
C295 C 0.88245 0.57492 0.72119 0.0
C296 C 0.86747 0.54596 0.65698 0.0
C297 C 0.91803 0.53758 0.61699 0.0
C298 C 0.90511 0.54304 0.63877 0.0
C299 C 0.86639 0.55507 0.70339 0.0
C300 C 0.87933 0.55031 0.68114 0.0
H301 H 0.9807 0.55482 0.59467 0.0
H302 H 0.959 0.56918 0.62596 0.0
H303 H 0.87062 0.53913 0.61765 0.0
H304 H 0.80435 0.53436 0.72949 0.0
H305 H 0.82517 0.52465 0.69369 0.0
C306 C 0.46278 0.99247 0.1161 0.0
C307 C 0.46412 0.98178 0.09268 0.0
C308 C 0.43905 0.97993 0.13052 0.0
C309 C 0.36535 0.92774 0.13086 0.0
H310 H 0.37993 0.92179 0.20164 0.0
C311 C 0.28246 0.85553 0.20383 0.0
C312 C 0.2859 0.864 0.22918 0.0
C313 C 0.30206 0.87123 0.18547 0.0
C314 C 0.37529 0.92357 0.18206 0.0
H315 H 0.44127 0.95016 0.0655 0.0
H316 H 0.3995 0.92799 0.09079 0.0
H317 H 0.41732 0.94679 0.17274 0.0
H318 H 0.3116 0.89663 0.25458 0.0
H319 H 0.34493 0.92424 0.22274 0.0
H320 H 0.32308 0.90412 0.14042 0.0
C321 C 0.41678 0.94634 0.09788 0.0
C322 C 0.3969 0.93799 0.16537 0.0
C323 C 0.44065 0.95907 0.08332 0.0
C324 C 0.30842 0.8893 0.23532 0.0
C325 C 0.32774 0.90505 0.21703 0.0
C326 C 0.34357 0.91328 0.14768 0.0
C327 C 0.41599 0.95607 0.12212 0.0
C328 C 0.39235 0.94052 0.13955 0.0
C329 C 0.32545 0.89586 0.19202 0.0
C330 C 0.34825 0.91116 0.17362 0.0
H331 H 0.48061 0.00989 0.12381 0.0
H332 H 0.43909 0.98846 0.14876 0.0
H333 H 0.36102 0.92926 0.11112 0.0
H334 H 0.26544 0.83607 0.19845 0.0
H335 H 0.29951 0.86338 0.16648 0.0
C336 C 0.49585 0.44907 0.59208 0.0
C337 C 0.52351 0.46323 0.58596 0.0
C338 C 0.48511 0.42523 0.60677 0.0
C339 C 0.49936 0.37234 0.63262 0.0
H340 H 0.45688 0.37232 0.68956 0.0
C341 C 0.47845 0.30272 0.72067 0.0
C342 C 0.45246 0.29099 0.73139 0.0
C343 C 0.48624 0.32246 0.70147 0.0
C344 C 0.46839 0.37173 0.67361 0.0
H345 H 0.56117 0.46271 0.58863 0.0
H346 H 0.54253 0.42121 0.61409 0.0
H347 H 0.47026 0.40705 0.65677 0.0
H348 H 0.41428 0.2908 0.73028 0.0
H349 H 0.42767 0.3247 0.69687 0.0
H350 H 0.49769 0.33712 0.64967 0.0
C351 C 0.52905 0.42833 0.6077 0.0
C352 C 0.47599 0.39163 0.65473 0.0
C353 C 0.53977 0.45217 0.59321 0.0
C354 C 0.43453 0.29949 0.72258 0.0
C355 C 0.44225 0.31909 0.70345 0.0
C356 C 0.49168 0.35234 0.65149 0.0
C357 C 0.50181 0.41507 0.61538 0.0
C358 C 0.49173 0.39232 0.6341 0.0
C359 C 0.46819 0.33085 0.69262 0.0
C360 C 0.47624 0.3519 0.67232 0.0
H361 H 0.48294 0.45727 0.5868 0.0
H362 H 0.46393 0.41524 0.61208 0.0
H363 H 0.51132 0.37218 0.61686 0.0
H364 H 0.49273 0.2966 0.72701 0.0
H365 H 0.5065 0.33135 0.69377 0.0
C366 C 0.52013 0.93657 0.49487 0.0
C367 C 0.50824 0.95107 0.48472 0.0
C368 C 0.52962 0.92359 0.47885 0.0
C369 C 0.54418 0.91633 0.41106 0.0
H370 H 0.52176 0.84242 0.43204 0.0
C371 C 0.54348 0.83717 0.34167 0.0
C372 C 0.55342 0.82057 0.35113 0.0
C373 C 0.53864 0.85363 0.35801 0.0
C374 C 0.52844 0.86309 0.42593 0.0
H375 H 0.49844 0.96478 0.45 0.0
H376 H 0.51516 0.94259 0.4221 0.0
H377 H 0.51574 0.87226 0.46064 0.0
H378 H 0.56518 0.80773 0.3854 0.0
H379 H 0.55671 0.83613 0.41364 0.0
H380 H 0.55652 0.90692 0.37617 0.0
C381 C 0.51745 0.94123 0.44232 0.0
C382 C 0.52512 0.88033 0.44245 0.0
C383 C 0.50797 0.95412 0.45831 0.0
C384 C 0.55749 0.82018 0.37738 0.0
C385 C 0.55253 0.83647 0.39366 0.0
C386 C 0.54745 0.89904 0.3945 0.0
C387 C 0.52737 0.92481 0.45233 0.0
C388 C 0.53286 0.90721 0.43526 0.0
C389 C 0.54343 0.85375 0.38422 0.0
C390 C 0.53955 0.87213 0.40167 0.0
H391 H 0.52016 0.9335 0.51512 0.0
H392 H 0.53762 0.91159 0.48727 0.0
H393 H 0.55064 0.93693 0.40489 0.0
H394 H 0.54022 0.83809 0.32157 0.0
H395 H 0.53126 0.86638 0.35007 0.0
C396 C 0.56446 0.5243 0.97673 0.0
C397 C 0.53922 0.51098 0.96441 0.0
C398 C 0.58845 0.53349 0.96291 0.0
C399 C 0.61165 0.51509 0.90663 0.0
H400 H 0.67695 0.58536 0.91201 0.0
C401 C 0.70402 0.54662 0.84136 0.0
C402 C 0.72993 0.56423 0.85111 0.0
C403 C 0.68089 0.54024 0.85557 0.0
C404 C 0.65906 0.56543 0.91058 0.0
H405 H 0.51941 0.49919 0.92784 0.0
H406 H 0.56112 0.51489 0.90392 0.0
H407 H 0.6369 0.57602 0.93631 0.0
H408 H 0.75207 0.58776 0.88379 0.0
H409 H 0.71205 0.57569 0.90895 0.0
H410 H 0.63371 0.50399 0.88161 0.0
C411 C 0.56238 0.51781 0.92421 0.0
C412 C 0.63609 0.56022 0.92441 0.0
C413 C 0.53855 0.50892 0.9379 0.0
C414 C 0.73232 0.57435 0.87567 0.0
C415 C 0.70931 0.56764 0.89001 0.0
C416 C 0.6347 0.52011 0.89311 0.0
C417 C 0.58747 0.52934 0.93665 0.0
C418 C 0.61211 0.53508 0.9224 0.0
C419 C 0.68323 0.55099 0.87999 0.0
C420 C 0.65872 0.54541 0.89476 0.0
H421 H 0.56555 0.52606 0.99713 0.0
H422 H 0.6076 0.54241 0.97293 0.0
H423 H 0.59351 0.49534 0.90505 0.0
H424 H 0.7016 0.53872 0.82238 0.0
H425 H 0.66121 0.5276 0.84704 0.0
C426 C 0.05207 0.61254 0.47611 0.0
C427 C 0.03637 0.5853 0.46869 0.0
C428 C 0.06162 0.63367 0.45809 0.0
C429 C 0.05673 0.6494 0.38952 0.0
H430 H 0.13253 0.70336 0.39841 0.0
C431 C 0.12721 0.71035 0.30617 0.0
C432 C 0.14844 0.73715 0.31001 0.0
C433 C 0.11037 0.69483 0.32617 0.0
C434 C 0.11123 0.68882 0.39573 0.0
H435 H 0.01772 0.55881 0.43679 0.0
H436 H 0.03401 0.59538 0.40536 0.0
H437 H 0.10825 0.67102 0.4323 0.0
H438 H 0.16773 0.76896 0.33792 0.0
H439 H 0.13819 0.74191 0.37285 0.0
H440 H 0.0601 0.66672 0.35253 0.0
C441 C 0.03866 0.60075 0.42507 0.0
C442 C 0.09719 0.67018 0.41528 0.0
C443 C 0.02911 0.57969 0.44311 0.0
C444 C 0.15153 0.74846 0.3342 0.0
C445 C 0.13475 0.73281 0.35431 0.0
C446 C 0.07081 0.66799 0.36992 0.0
C447 C 0.05591 0.62802 0.43214 0.0
C448 C 0.06984 0.64984 0.41234 0.0
C449 C 0.11431 0.70555 0.35071 0.0
C450 C 0.09841 0.68768 0.37255 0.0
H451 H 0.05851 0.61736 0.49562 0.0
H452 H 0.07444 0.65437 0.46439 0.0
H453 H 0.03561 0.63442 0.38661 0.0
H454 H 0.12422 0.70091 0.28785 0.0
H455 H 0.09508 0.67391 0.3226 0.0
C456 C 0.51613 0.09218 0.98886 0.0
C457 C 0.51514 0.06982 0.97677 0.0
C458 C 0.50885 0.10916 0.97568 0.0
C459 C 0.47476 0.1139 0.91698 0.0
H460 H 0.52636 0.1912 0.92083 0.0
C461 C 0.48135 0.18732 0.83863 0.0
C462 C 0.4826 0.21167 0.8459 0.0
C463 C 0.48489 0.17102 0.85643 0.0
C464 C 0.5116 0.16972 0.91976 0.0
H465 H 0.50444 0.04668 0.94216 0.0
H466 H 0.49162 0.07593 0.91928 0.0
H467 H 0.53045 0.15965 0.9499 0.0
H468 H 0.48997 0.23861 0.87748 0.0
H469 H 0.49641 0.21012 0.90859 0.0
H470 H 0.45633 0.12382 0.88645 0.0
C471 C 0.49783 0.08051 0.93885 0.0
C472 C 0.51384 0.15163 0.93649 0.0
C473 C 0.50523 0.06375 0.95191 0.0
C474 C 0.4889 0.22001 0.87121 0.0
C475 C 0.49257 0.20368 0.88906 0.0
C476 C 0.4726 0.13192 0.90023 0.0
C477 C 0.50026 0.10387 0.95029 0.0
C478 C 0.49577 0.12343 0.93494 0.0
C479 C 0.48987 0.17865 0.88197 0.0
C480 C 0.49132 0.15996 0.90105 0.0
H481 H 0.52397 0.0974 1.00794 0.0
H482 H 0.51066 0.12682 0.98512 0.0
H483 H 0.46018 0.09239 0.91557 0.0
H484 H 0.47672 0.18033 0.81929 0.0
H485 H 0.48331 0.15216 0.85025 0.0
C486 C 0.44628 0.49975 0.48545 0.0
C487 C 0.46924 0.50155 0.47388 0.0
C488 C 0.42129 0.48795 0.47263 0.0
C489 C 0.3941 0.47296 0.40672 0.0
H490 H 0.32436 0.43629 0.44022 0.0
C491 C 0.29414 0.43469 0.35012 0.0
C492 C 0.27575 0.44161 0.36045 0.0
C493 C 0.31608 0.43718 0.36457 0.0
C494 C 0.34368 0.44656 0.43055 0.0
H495 H 0.48365 0.49091 0.44058 0.0
H496 H 0.44016 0.4695 0.41868 0.0
H497 H 0.36557 0.44946 0.46463 0.0
H498 H 0.26519 0.45505 0.39456 0.0
H499 H 0.30298 0.45916 0.41958 0.0
H500 H 0.37229 0.47037 0.37274 0.0
C501 C 0.44139 0.47792 0.43724 0.0
C502 C 0.36739 0.45421 0.4446 0.0
C503 C 0.46631 0.48992 0.44991 0.0
C504 C 0.27896 0.44957 0.38594 0.0
C505 C 0.30065 0.45182 0.40039 0.0
C506 C 0.37043 0.4652 0.39268 0.0
C507 C 0.41866 0.47751 0.44801 0.0
C508 C 0.39303 0.4678 0.43296 0.0
C509 C 0.31995 0.44637 0.38976 0.0
C510 C 0.34488 0.45219 0.40441 0.0
H511 H 0.44802 0.50883 0.50378 0.0
H512 H 0.40442 0.48825 0.48157 0.0
H513 H 0.41337 0.48386 0.39702 0.0
H514 H 0.29237 0.42863 0.33053 0.0
H515 H 0.33034 0.43247 0.35583 0.0
C516 C 0.9254 0.42288 0.98228 0.0
C517 C 0.95378 0.43838 0.98379 0.0
C518 C 0.91288 0.40228 0.96445 0.0
C519 C 0.92621 0.38516 0.90173 0.0
H520 H 0.85811 0.31817 0.91215 0.0
C521 C 0.87633 0.30422 0.82424 0.0
C522 C 0.84795 0.29036 0.82188 0.0
C523 C 0.88918 0.32195 0.84425 0.0
C524 C 0.87694 0.33696 0.90887 0.0
H525 H 0.99139 0.44364 0.96898 0.0
H526 H 0.96949 0.40719 0.93778 0.0
H527 H 0.88144 0.34736 0.94813 0.0
H528 H 0.81081 0.28484 0.83838 0.0
H529 H 0.83338 0.31629 0.87335 0.0
H530 H 0.92162 0.37503 0.86249 0.0
C531 C 0.95692 0.41121 0.95024 0.0
C532 C 0.8904 0.3536 0.92952 0.0
C533 C 0.96947 0.4318 0.96826 0.0
C534 C 0.83271 0.29527 0.83964 0.0
C535 C 0.84563 0.31305 0.8598 0.0
C536 C 0.91276 0.36857 0.88112 0.0
C537 C 0.9285 0.39681 0.94763 0.0
C538 C 0.91516 0.37794 0.92617 0.0
C539 C 0.87402 0.32635 0.86247 0.0
C540 C 0.88793 0.34429 0.8844 0.0
H541 H 0.91291 0.4277 0.99405 0.0
H542 H 0.891 0.39178 0.96288 0.0
H543 H 0.94492 0.40406 0.89838 0.0
H544 H 0.88873 0.30093 0.81089 0.0
H545 H 0.91101 0.33158 0.84583 0.0
C546 C 0.93625 0.52381 1.00584 0.0
C547 C 0.96106 0.52721 0.99745 0.0
C548 C 0.92358 0.53594 0.99264 0.0
C549 C 0.93158 0.58501 0.94089 0.0
H550 H 0.85598 0.53257 0.92876 0.0
C551 C 0.86712 0.59535 0.85923 0.0
C552 C 0.83907 0.58331 0.86312 0.0
C553 C 0.8837 0.59315 0.87788 0.0
C554 C 0.87689 0.54783 0.93224 0.0
H555 H 0.9926 0.54669 0.96935 0.0
H556 H 0.97071 0.56816 0.94635 0.0
H557 H 0.88185 0.52143 0.95804 0.0
H558 H 0.80673 0.56156 0.89014 0.0
H559 H 0.83548 0.55896 0.92289 0.0
H560 H 0.92649 0.61128 0.91463 0.0
C561 C 0.96114 0.55651 0.96332 0.0
C562 C 0.89181 0.54136 0.94914 0.0
C563 C 0.97379 0.54434 0.97656 0.0
C564 C 0.82827 0.57083 0.88654 0.0
C565 C 0.84477 0.56907 0.90523 0.0
C566 C 0.91651 0.5916 0.92398 0.0
C567 C 0.93532 0.55153 0.97056 0.0
C568 C 0.91938 0.55976 0.95371 0.0
C569 C 0.87254 0.57914 0.90085 0.0
C570 C 0.88891 0.57305 0.91938 0.0
H571 H 0.92578 0.51024 1.02157 0.0
H572 H 0.90392 0.532 0.99902 0.0
H573 H 0.95276 0.59972 0.94396 0.0
H574 H 0.87592 0.60484 0.84122 0.0
H575 H 0.90494 0.60114 0.8737 0.0
C576 C 0.39847 0.93849 0.49759 0.0
C577 C 0.41393 0.92599 0.50255 0.0
C578 C 0.3741 0.92459 0.48416 0.0
C579 C 0.32603 0.85733 0.45452 0.0
H580 H 0.32514 0.9035 0.40039 0.0
C581 C 0.27997 0.81844 0.35532 0.0
C582 C 0.26436 0.82893 0.34478 0.0
C583 C 0.29384 0.82867 0.37813 0.0
C584 C 0.32486 0.89037 0.41556 0.0
H585 H 0.41461 0.88828 0.50024 0.0
H586 H 0.37285 0.86438 0.4763 0.0
H587 H 0.35532 0.92394 0.43618 0.0
H588 H 0.25086 0.85817 0.34998 0.0
H589 H 0.27537 0.87618 0.38942 0.0
H590 H 0.29653 0.82365 0.43282 0.0
C591 C 0.3791 0.88473 0.4827 0.0
C592 C 0.34201 0.90209 0.43625 0.0
C593 C 0.40324 0.89851 0.49627 0.0
C594 C 0.26276 0.84967 0.35755 0.0
C595 C 0.27681 0.86005 0.38013 0.0
C596 C 0.3091 0.84558 0.43361 0.0
C597 C 0.36491 0.89804 0.47535 0.0
C598 C 0.34327 0.88571 0.45577 0.0
C599 C 0.29256 0.84975 0.3906 0.0
C600 C 0.30875 0.862 0.41373 0.0
H601 H 0.4062 0.95963 0.50232 0.0
H602 H 0.36328 0.93521 0.47943 0.0
H603 H 0.3261 0.8441 0.46939 0.0
H604 H 0.28149 0.80238 0.34597 0.0
H605 H 0.30609 0.82057 0.3857 0.0
C606 C 0.44279 0.42208 0.95107 0.0
C607 C 0.45281 0.42516 0.97588 0.0
C608 C 0.43097 0.39681 0.9392 0.0
C609 C 0.43435 0.33373 0.94086 0.0
H610 H 0.37965 0.31177 0.8884 0.0
C611 C 0.40687 0.24089 0.87774 0.0
C612 C 0.40588 0.24528 0.8516 0.0
C613 C 0.4071 0.2593 0.89532 0.0
C614 C 0.39501 0.31764 0.90294 0.0
H615 H 0.45728 0.40407 1.00818 0.0
H616 H 0.43608 0.35947 0.98761 0.0
H617 H 0.38889 0.34983 0.91575 0.0
H618 H 0.40294 0.27191 0.82362 0.0
H619 H 0.40329 0.3039 0.85418 0.0
H620 H 0.44093 0.30199 0.92769 0.0
C621 C 0.43758 0.37671 0.97721 0.0
C622 C 0.40031 0.33948 0.91867 0.0
C623 C 0.44937 0.40211 0.98916 0.0
C624 C 0.40368 0.26781 0.84358 0.0
C625 C 0.40379 0.28616 0.86116 0.0
C626 C 0.42898 0.31184 0.9252 0.0
C627 C 0.42899 0.37392 0.95178 0.0
C628 C 0.42051 0.34826 0.93748 0.0
C629 C 0.40619 0.28253 0.88725 0.0
C630 C 0.40965 0.30386 0.90565 0.0
H631 H 0.44556 0.43965 0.94033 0.0
H632 H 0.42498 0.3957 0.91957 0.0
H633 H 0.45033 0.34007 0.95482 0.0
H634 H 0.40856 0.22377 0.88467 0.0
H635 H 0.40854 0.25561 0.91526 0.0
C636 C 0.10153 0.54628 0.48701 0.0
C637 C 0.07415 0.52656 0.49063 0.0
C638 C 0.11914 0.53951 0.47517 0.0
C639 C 0.12659 0.48221 0.45154 0.0
H640 H 0.1635 0.53162 0.39553 0.0
C641 C 0.1591 0.44839 0.36327 0.0
C642 C 0.18386 0.46646 0.35158 0.0
C643 C 0.14923 0.45696 0.38306 0.0
C644 C 0.1538 0.51785 0.41132 0.0
H645 H 0.04429 0.48389 0.48667 0.0
H646 H 0.07503 0.47197 0.46604 0.0
H647 H 0.14083 0.54385 0.42724 0.0
H648 H 0.21766 0.50783 0.35143 0.0
H649 H 0.20035 0.52291 0.38624 0.0
H650 H 0.13901 0.45589 0.43519 0.0
C651 C 0.08296 0.49266 0.47239 0.0
C652 C 0.14081 0.52487 0.42956 0.0
C653 C 0.06533 0.49945 0.48427 0.0
C654 C 0.19844 0.49348 0.35997 0.0
C655 C 0.18853 0.50209 0.37989 0.0
C656 C 0.13965 0.47522 0.43333 0.0
C657 C 0.10973 0.51288 0.46673 0.0
C658 C 0.12656 0.50687 0.44957 0.0
C659 C 0.16389 0.48382 0.39177 0.0
C660 C 0.15283 0.49267 0.41267 0.0
H661 H 0.10893 0.56729 0.49205 0.0
H662 H 0.13981 0.5554 0.47156 0.0
H663 H 0.11609 0.46809 0.46691 0.0
H664 H 0.14725 0.42746 0.3572 0.0
H665 H 0.12989 0.44253 0.39134 0.0
C666 C 0.61401 0.0642 0.98039 0.0
C667 C 0.58793 0.04738 0.97058 0.0
C668 C 0.63689 0.07394 0.96475 0.0
C669 C 0.65431 0.08741 0.89632 0.0
H670 H 0.72679 0.10925 0.92005 0.0
C671 C 0.74653 0.14353 0.82988 0.0
C672 C 0.76819 0.16745 0.83993 0.0
C673 C 0.72597 0.12442 0.84571 0.0
C674 C 0.70667 0.10327 0.91311 0.0
H675 H 0.56537 0.02612 0.93727 0.0
H676 H 0.60512 0.0418 0.91031 0.0
H677 H 0.6881 0.08328 0.94805 0.0
H678 H 0.78608 0.18897 0.87476 0.0
H679 H 0.75055 0.15567 0.90223 0.0
H680 H 0.67285 0.10765 0.86155 0.0
C681 C 0.60811 0.04835 0.9298 0.0
C682 C 0.68442 0.08843 0.92923 0.0
C683 C 0.58529 0.03896 0.94534 0.0
C684 C 0.76971 0.17082 0.86634 0.0
C685 C 0.74931 0.15163 0.88216 0.0
C686 C 0.67647 0.10202 0.8802 0.0
C687 C 0.63419 0.06691 0.93894 0.0
C688 C 0.65789 0.0806 0.92121 0.0
C689 C 0.72669 0.12861 0.87199 0.0
C690 C 0.70301 0.11054 0.88846 0.0
H691 H 0.61656 0.0714 0.99966 0.0
H692 H 0.65646 0.08832 0.97257 0.0
H693 H 0.63442 0.08243 0.88946 0.0
H694 H 0.74462 0.14028 0.80965 0.0
H695 H 0.70905 0.10673 0.83726 0.0
C696 C 0.57002 0.6077 0.47179 0.0
C697 C 0.56124 0.58121 0.46344 0.0
C698 C 0.58334 0.62988 0.45517 0.0
C699 C 0.58854 0.64373 0.38617 0.0
H700 H 0.63837 0.71785 0.40657 0.0
C701 C 0.62452 0.73084 0.31436 0.0
C702 C 0.6201 0.75199 0.32183 0.0
C703 C 0.62421 0.71231 0.33217 0.0
C704 C 0.62451 0.69723 0.40062 0.0
H705 H 0.56104 0.55705 0.43203 0.0
H706 H 0.58549 0.59572 0.40335 0.0
H707 H 0.62556 0.68049 0.43686 0.0
H708 H 0.61427 0.77162 0.35424 0.0
H709 H 0.61376 0.73926 0.3853 0.0
H710 H 0.58724 0.66038 0.35012 0.0
C711 C 0.58128 0.59951 0.42235 0.0
C712 C 0.61706 0.6758 0.41798 0.0
C713 C 0.56756 0.57736 0.43881 0.0
C714 C 0.61761 0.7555 0.34779 0.0
C715 C 0.6174 0.73699 0.36564 0.0
C716 C 0.59621 0.66503 0.36883 0.0
C717 C 0.58841 0.62598 0.42995 0.0
C718 C 0.59864 0.64876 0.41109 0.0
C719 C 0.61961 0.71457 0.35787 0.0
C720 C 0.61397 0.69206 0.3759 0.0
H721 H 0.5651 0.61107 0.49067 0.0
H722 H 0.58822 0.64982 0.46174 0.0
H723 H 0.5738 0.62341 0.3802 0.0
H724 H 0.62676 0.72765 0.29457 0.0
H725 H 0.62645 0.69552 0.32567 0.0
C726 C 0.45301 0.02804 0.6244 0.0
C727 C 0.46006 0.03305 0.59869 0.0
C728 C 0.44123 0.04126 0.63661 0.0
C729 C 0.43969 0.10511 0.63234 0.0
H730 H 0.38969 0.07388 0.68855 0.0
C731 C 0.41167 0.17159 0.6922 0.0
C732 C 0.41204 0.16844 0.71861 0.0
C733 C 0.41191 0.15244 0.67592 0.0
C734 C 0.40377 0.08298 0.67299 0.0
H735 H 0.45904 0.05477 0.56523 0.0
H736 H 0.43806 0.07786 0.5865 0.0
H737 H 0.39933 0.04465 0.66228 0.0
H738 H 0.41155 0.1418 0.74854 0.0
H739 H 0.41222 0.10851 0.72018 0.0
H740 H 0.44479 0.1435 0.64339 0.0
C741 C 0.44192 0.06383 0.5973 0.0
C742 C 0.40926 0.06618 0.65786 0.0
C743 C 0.45361 0.0504 0.58502 0.0
C744 C 0.41115 0.14484 0.72832 0.0
C745 C 0.41149 0.1257 0.712 0.0
C746 C 0.43421 0.12188 0.64745 0.0
C747 C 0.43628 0.06 0.62345 0.0
C748 C 0.42768 0.0771 0.63759 0.0
C749 C 0.41264 0.12962 0.68556 0.0
C750 C 0.41651 0.11115 0.66825 0.0
H751 H 0.45786 0.01482 0.6354 0.0
H752 H 0.43748 0.03793 0.65674 0.0
H753 H 0.45433 0.11438 0.61722 0.0
H754 H 0.41213 0.18938 0.68401 0.0
H755 H 0.41215 0.15588 0.65571 0.0
C756 C 0.39731 0.47212 0.07718 0.0
C757 C 0.41108 0.49701 0.06415 0.0
C758 C 0.37503 0.46633 0.09235 0.0
C759 C 0.35325 0.50574 0.12996 0.0
H760 H 0.29766 0.43416 0.15233 0.0
C761 C 0.28704 0.48667 0.21972 0.0
C762 C 0.28557 0.46604 0.23574 0.0
C763 C 0.29831 0.49054 0.19549 0.0
C764 C 0.31305 0.4543 0.14621 0.0
H765 H 0.41095 0.53401 0.0543 0.0
H766 H 0.3713 0.52345 0.07989 0.0
H767 H 0.32175 0.43901 0.11288 0.0
H768 H 0.29546 0.43383 0.23912 0.0
H769 H 0.31499 0.44064 0.19719 0.0
H770 H 0.34496 0.52088 0.16366 0.0
C771 C 0.37806 0.50873 0.07912 0.0
C772 C 0.32684 0.45708 0.12363 0.0
C773 C 0.40049 0.51463 0.06418 0.0
C774 C 0.29614 0.44985 0.22728 0.0
C775 C 0.3071 0.45354 0.20312 0.0
C776 C 0.3393 0.50297 0.15243 0.0
C777 C 0.36612 0.48531 0.09459 0.0
C778 C 0.34775 0.48274 0.11564 0.0
C779 C 0.30799 0.47365 0.18684 0.0
C780 C 0.31972 0.47712 0.1612 0.0
H781 H 0.40539 0.45844 0.07769 0.0
H782 H 0.36649 0.44815 0.10405 0.0
H783 H 0.36949 0.5258 0.12469 0.0
H784 H 0.27897 0.49941 0.22565 0.0
H785 H 0.29888 0.50629 0.18333 0.0
C786 C 0.97044 0.43588 0.58354 0.0
C787 C 0.95279 0.44082 0.56872 0.0
C788 C 0.96063 0.41141 0.59729 0.0
C789 C 0.90058 0.34157 0.6053 0.0
H790 H 0.92052 0.35139 0.67626 0.0
C791 C 0.83002 0.27047 0.68281 0.0
C792 C 0.84055 0.26512 0.70486 0.0
C793 C 0.84717 0.28832 0.6642 0.0
C794 C 0.91508 0.34805 0.65643 0.0
H795 H 0.91144 0.42367 0.55564 0.0
H796 H 0.8944 0.38096 0.579 0.0
H797 H 0.94463 0.38909 0.6465 0.0
H798 H 0.87755 0.27373 0.72423 0.0
H799 H 0.90784 0.30523 0.69151 0.0
H800 H 0.87047 0.30084 0.61532 0.0
C801 C 0.91582 0.39572 0.58009 0.0
C802 C 0.92895 0.36974 0.6393 0.0
C803 C 0.92556 0.4202 0.56662 0.0
C804 C 0.86882 0.27728 0.70737 0.0
C805 C 0.88614 0.29552 0.68874 0.0
C806 C 0.88678 0.31992 0.62238 0.0
C807 C 0.93299 0.39131 0.59629 0.0
C808 C 0.92133 0.36705 0.61362 0.0
C809 C 0.87548 0.30162 0.66708 0.0
C810 C 0.89324 0.32309 0.64834 0.0
H811 H 0.99142 0.45163 0.58583 0.0
H812 H 0.97448 0.40862 0.60937 0.0
H813 H 0.89448 0.33855 0.58561 0.0
H814 H 0.80834 0.26145 0.68024 0.0
H815 H 0.8381 0.29266 0.64807 0.0
C816 C 0.56473 0.97394 0.08639 0.0
C817 C 0.55369 0.98784 0.09894 0.0
C818 C 0.5772 0.96199 0.10011 0.0
C819 C 0.60539 0.95812 0.16231 0.0
H820 H 0.57076 0.8811 0.14802 0.0
C821 C 0.60153 0.87891 0.23451 0.0
C822 C 0.59734 0.85396 0.22555 0.0
C823 C 0.60343 0.89888 0.21748 0.0
C824 C 0.58135 0.90265 0.152 0.0
H825 H 0.54892 0.00199 0.13539 0.0
H826 H 0.57095 0.98133 0.15936 0.0
H827 H 0.56206 0.91042 0.12081 0.0
H828 H 0.59388 0.83079 0.19218 0.0
H829 H 0.59919 0.86618 0.16239 0.0
H830 H 0.62462 0.95033 0.19365 0.0
C831 C 0.56987 0.97957 0.13896 0.0
C832 C 0.57619 0.91949 0.13635 0.0
C833 C 0.55712 0.99124 0.12527 0.0
C834 C 0.59715 0.84999 0.19944 0.0
C835 C 0.59978 0.87015 0.18243 0.0
C836 C 0.61094 0.94131 0.17782 0.0
C837 C 0.57916 0.964 0.12662 0.0
C838 C 0.58771 0.94728 0.14157 0.0
C839 C 0.60159 0.89436 0.19117 0.0
C840 C 0.59855 0.91318 0.17318 0.0
H841 H 0.56224 0.97087 0.06614 0.0
H842 H 0.58436 0.95026 0.09011 0.0
H843 H 0.61465 0.97954 0.16669 0.0
H844 H 0.60127 0.88215 0.25463 0.0
H845 H 0.60455 0.91703 0.22509 0.0
C846 C 0.59356 0.56196 0.62011 0.0
C847 C 0.59555 0.55923 0.59393 0.0
C848 C 0.61685 0.5755 0.6351 0.0
C849 C 0.68698 0.58922 0.63602 0.0
H850 H 0.6928 0.62941 0.69677 0.0
C851 C 0.77662 0.62019 0.70439 0.0
C852 C 0.77046 0.6163 0.73035 0.0
C853 C 0.75786 0.61955 0.68676 0.0
C854 C 0.69146 0.61807 0.67998 0.0
H855 H 0.62349 0.56988 0.56271 0.0
H856 H 0.66439 0.59388 0.58886 0.0
H857 H 0.65539 0.61763 0.66732 0.0
H858 H 0.74009 0.61008 0.75818 0.0
H859 H 0.7072 0.60849 0.72751 0.0
H860 H 0.72225 0.5886 0.64895 0.0
C861 C 0.64475 0.58533 0.59784 0.0
C862 C 0.67001 0.6114 0.66301 0.0
C863 C 0.62136 0.57192 0.58279 0.0
C864 C 0.74563 0.61334 0.73836 0.0
C865 C 0.72671 0.61244 0.72068 0.0
C866 C 0.70829 0.59575 0.653 0.0
C867 C 0.64279 0.5865 0.62433 0.0
C868 C 0.66725 0.59652 0.64096 0.0
C869 C 0.73222 0.6147 0.69453 0.0
C870 C 0.7107 0.60995 0.67544 0.0
H871 H 0.57391 0.5522 0.62921 0.0
H872 H 0.61445 0.57577 0.65538 0.0
H873 H 0.6853 0.57731 0.61953 0.0
H874 H 0.79562 0.62273 0.69753 0.0
H875 H 0.76323 0.62213 0.66692 0.0
C876 C 0.08761 0.5792 0.07986 0.0
C877 C 0.06687 0.55782 0.09379 0.0
C878 C 0.10597 0.60348 0.09192 0.0
C879 C 0.11665 0.64198 0.15151 0.0
H880 H 0.19301 0.669 0.13926 0.0
C881 C 0.1965 0.70905 0.22356 0.0
C882 C 0.21781 0.73379 0.21426 0.0
C883 C 0.17969 0.68845 0.20694 0.0
C884 C 0.17175 0.66178 0.1427 0.0
H885 H 0.04799 0.54526 0.1306 0.0
H886 H 0.07971 0.5872 0.15158 0.0
H887 H 0.15892 0.63317 0.1124 0.0
H888 H 0.2396 0.75533 0.18035 0.0
H889 H 0.21033 0.71901 0.15136 0.0
H890 H 0.12937 0.66988 0.18227 0.0
C891 C 0.08196 0.58565 0.13144 0.0
C892 C 0.15224 0.64143 0.12724 0.0
C893 C 0.06383 0.56154 0.11949 0.0
C894 C 0.22326 0.73658 0.18813 0.0
C895 C 0.20652 0.71581 0.1715 0.0
C896 C 0.13606 0.66204 0.16704 0.0
C897 C 0.10362 0.60671 0.11799 0.0
C898 C 0.12444 0.63089 0.13185 0.0
C899 C 0.18397 0.69201 0.18071 0.0
C900 C 0.16377 0.67173 0.16315 0.0
H901 H 0.09038 0.57664 0.06004 0.0
H902 H 0.1223 0.61944 0.081 0.0
H903 H 0.09544 0.63475 0.15524 0.0
H904 H 0.19185 0.70607 0.24356 0.0
H905 H 0.16276 0.67003 0.21457 0.0
loop_
_geom_bond_atom_site_label_1
_geom_bond_atom_site_label_2
_geom_bond_distance
_geom_bond_site_symmetry_2
_ccdc_geom_bond_type
H0 C6 0.930 . S
H1 C9 0.931 . S
H2 C11 0.931 1_455 S
H3 C13 0.930 . S
H4 C15 0.930 . S
H5 C17 0.931 . S
C6 H0 0.930 . S
C6 C7 1.380 . S
C6 C8 1.394 . S
C7 C6 1.380 . S
C7 C11 1.382 . S
C8 C6 1.394 . S
C8 C9 1.400 . S
C9 H1 0.931 . S
C9 C8 1.400 . S
C9 C10 1.375 1_655 S
C10 C9 1.375 1_455 S
C10 C11 1.415 1_455 S
C10 C12 1.501 1_556 S
C11 H2 0.931 1_655 S
C11 C7 1.382 . S
C11 C10 1.415 1_655 S
C12 C10 1.501 1_554 S
C12 C13 1.384 . S
C12 C17 1.408 . S
C13 H3 0.930 . S
C13 C12 1.384 . S
C13 C14 1.389 . S
C14 C13 1.389 . S
C14 C15 1.405 . S
C15 H4 0.930 . S
C15 C14 1.405 . S
C15 C16 1.364 . S
C16 C15 1.364 . S
C16 C17 1.400 . S
C17 H5 0.931 . S
C17 C12 1.408 . S
C17 C16 1.400 . S
H18 C24 0.930 . S
H19 C27 0.931 . S
H20 C29 0.931 . S
H21 C31 0.931 1_545 S
H22 C33 0.930 . S
H23 C35 0.948 . S
C24 H18 0.930 . S
C24 C25 1.380 . S
C24 C26 1.394 . S
C25 C24 1.380 . S
C25 C29 1.382 . S
C26 C24 1.394 . S
C26 C27 1.400 . S
C27 H19 0.931 . S
C27 C26 1.400 . S
C27 C28 1.375 . S
C28 C27 1.375 . S
C28 C29 1.415 . S
C28 C30 1.501 . S
C29 H20 0.931 . S
C29 C25 1.382 . S
C29 C28 1.415 . S
C30 C28 1.501 . S
C30 C31 1.380 1_545 S
C30 C35 1.408 1_545 S
C31 H21 0.931 1_565 S
C31 C30 1.380 1_565 S
C31 C32 1.393 . S
C32 C31 1.393 . S
C32 C33 1.405 . S
C33 H22 0.930 . S
C33 C32 1.405 . S
C33 C34 1.364 . S
C34 C33 1.364 . S
C34 C35 1.400 . S
C35 H23 0.948 . S
C35 C30 1.408 1_565 S
C35 C34 1.400 . S
H36 C42 0.930 . S
H37 C45 0.931 . S
H38 C47 0.931 . S
H39 C49 0.930 . S
H40 C51 0.930 . S
H41 C53 0.931 . S
C42 H36 0.930 . S
C42 C43 1.380 . S
C42 C44 1.394 . S
C43 C42 1.380 . S
C43 C47 1.382 . S
C44 C42 1.394 . S
C44 C45 1.400 . S
C45 H37 0.931 . S
C45 C44 1.400 . S
C45 C46 1.375 . S
C46 C45 1.375 . S
C46 C47 1.415 . S
C46 C48 1.501 1_554 S
C47 H38 0.931 . S
C47 C43 1.382 . S
C47 C46 1.415 . S
C48 C46 1.501 1_556 S
C48 C49 1.384 . S
C48 C53 1.408 . S
C49 H39 0.930 . S
C49 C48 1.384 . S
C49 C50 1.389 . S
C50 C49 1.389 . S
C50 C51 1.405 . S
C51 H40 0.930 . S
C51 C50 1.405 . S
C51 C52 1.364 . S
C52 C51 1.364 . S
C52 C53 1.400 . S
C53 H41 0.931 . S
C53 C48 1.408 . S
C53 C52 1.400 . S
H54 C60 0.930 . S
H55 C63 0.931 . S
H56 C65 0.931 . S
H57 C67 0.930 . S
H58 C69 0.930 . S
H59 C71 0.931 . S
C60 H54 0.930 . S
C60 C61 1.380 . S
C60 C62 1.394 . S
C61 C60 1.380 . S
C61 C65 1.382 . S
C62 C60 1.394 . S
C62 C63 1.400 . S
C63 H55 0.931 . S
C63 C62 1.400 . S
C63 C64 1.375 . S
C64 C63 1.375 . S
C64 C65 1.415 . S
C64 C66 1.501 1_655 S
C65 H56 0.931 . S
C65 C61 1.382 . S
C65 C64 1.415 . S
C66 C64 1.501 1_455 S
C66 C67 1.384 . S
C66 C71 1.408 . S
C67 H57 0.930 . S
C67 C66 1.384 . S
C67 C68 1.389 . S
C68 C67 1.389 . S
C68 C69 1.405 . S
C69 H58 0.930 . S
C69 C68 1.405 . S
C69 C70 1.364 . S
C70 C69 1.364 . S
C70 C71 1.400 . S
C71 H59 0.931 . S
C71 C66 1.408 . S
C71 C70 1.400 . S
H72 C78 0.930 . S
H73 C81 0.931 . S
H74 C83 0.931 . S
H75 C85 0.930 . S
H76 C87 0.930 . S
H77 C89 0.931 . S
C78 H72 0.930 . S
C78 C79 1.380 . S
C78 C80 1.394 . S
C79 C78 1.380 . S
C79 C83 1.382 . S
C80 C78 1.394 . S
C80 C81 1.400 . S
C81 H73 0.931 . S
C81 C80 1.400 . S
C81 C82 1.375 . S
C82 C81 1.375 . S
C82 C83 1.415 . S
C82 C84 1.501 1_564 S
C83 H74 0.931 . S
C83 C79 1.382 . S
C83 C82 1.415 . S
C84 C82 1.501 1_546 S
C84 C85 1.384 . S
C84 C89 1.408 . S
C85 H75 0.930 . S
C85 C84 1.384 . S
C85 C86 1.389 . S
C86 C85 1.389 . S
C86 C87 1.405 . S
C87 H76 0.930 . S
C87 C86 1.405 . S
C87 C88 1.364 . S
C88 C87 1.364 . S
C88 C89 1.400 . S
C89 H77 0.931 . S
C89 C84 1.408 . S
C89 C88 1.400 . S
H90 C96 0.930 . S
H91 C99 0.931 . S
H92 C101 0.931 . S
H93 C103 0.930 . S
H94 C105 0.930 . S
H95 C107 0.931 . S
C96 H90 0.930 . S
C96 C97 1.380 . S
C96 C98 1.394 . S
C97 C96 1.380 . S
C97 C101 1.382 . S
C98 C96 1.394 . S
C98 C99 1.400 . S
C99 H91 0.931 . S
C99 C98 1.400 . S
C99 C100 1.375 . S
C100 C99 1.375 . S
C100 C101 1.415 . S
C100 C102 1.501 . S
C101 H92 0.931 . S
C101 C97 1.382 . S
C101 C100 1.415 . S
C102 C100 1.501 . S
C102 C103 1.384 . S
C102 C107 1.408 . S
C103 H93 0.930 . S
C103 C102 1.384 . S
C103 C104 1.389 . S
C104 C103 1.389 . S
C104 C105 1.405 . S
C105 H94 0.930 . S
C105 C104 1.405 . S
C105 C106 1.364 . S
C106 C105 1.364 . S
C106 C107 1.400 . S
C107 H95 0.931 . S
C107 C102 1.408 . S
C107 C106 1.400 . S
Mg108 O115 2.141 . S
Mg108 O116 2.048 . S
Mg108 O117 2.048 . S
Mg108 O120 2.141 . S
C109 O110 1.313 . S
C109 O116 1.195 . S
O110 C109 1.313 . S
C111 O112 1.245 . S
C111 O120 1.289 . S
O112 C111 1.245 . S
C113 O114 1.245 . S
C113 O115 1.289 . S
O114 C113 1.245 . S
O115 Mg108 2.141 . S
O115 C113 1.289 . S
O116 Mg108 2.048 . S
O116 C109 1.195 . S
O117 Mg108 2.048 . S
O117 C118 1.195 . S
C118 O117 1.195 . S
C118 O119 1.313 . S
O119 C118 1.313 . S
O120 Mg108 2.141 . S
O120 C111 1.289 . S
Mg121 O128 2.141 . S
Mg121 O129 2.048 . S
Mg121 O130 2.048 . S
Mg121 O133 2.141 . S
C122 O123 1.313 . S
C122 O129 1.195 . S
O123 C122 1.313 . S
C124 O125 1.245 . S
C124 O133 1.289 . S
O125 C124 1.245 . S
C126 O127 1.245 . S
C126 O128 1.289 . S
O127 C126 1.245 . S
O128 Mg121 2.141 . S
O128 C126 1.289 . S
O129 Mg121 2.048 . S
O129 C122 1.195 . S
O130 Mg121 2.048 . S
O130 C131 1.195 . S
C131 O130 1.195 . S
C131 O132 1.313 . S
O132 C131 1.313 . S
O133 Mg121 2.141 . S
O133 C124 1.289 . S
Mg134 O141 2.141 . S
Mg134 O142 2.048 . S
Mg134 O143 2.048 . S
Mg134 O146 2.141 . S
C135 O136 1.313 . S
C135 O142 1.195 . S
O136 C135 1.313 . S
C137 O138 1.245 . S
C137 O146 1.289 . S
O138 C137 1.245 . S
C139 O140 1.245 . S
C139 O141 1.289 . S
O140 C139 1.245 . S
O141 Mg134 2.141 . S
O141 C139 1.289 . S
O142 Mg134 2.048 . S
O142 C135 1.195 . S
O143 Mg134 2.048 . S
O143 C144 1.195 . S
C144 O143 1.195 . S
C144 O145 1.313 . S
O145 C144 1.313 . S
O146 Mg134 2.141 . S
O146 C137 1.289 . S
Mg147 O154 2.141 . S
Mg147 O155 2.048 . S
Mg147 O156 2.048 . S
Mg147 O159 2.141 . S
C148 O149 1.313 . S
C148 O155 1.195 . S
O149 C148 1.313 . S
C150 O151 1.245 . S
C150 O159 1.289 . S
O151 C150 1.245 . S
C152 O153 1.245 . S
C152 O154 1.289 . S
O153 C152 1.245 . S
O154 Mg147 2.141 . S
O154 C152 1.289 . S
O155 Mg147 2.048 . S
O155 C148 1.195 . S
O156 Mg147 2.048 . S
O156 C157 1.195 . S
C157 O156 1.195 . S
C157 O158 1.313 . S
O158 C157 1.313 . S
O159 Mg147 2.141 . S
O159 C150 1.289 . S
Mg160 O167 2.141 . S
Mg160 O168 2.048 . S
Mg160 O169 2.048 . S
Mg160 O172 2.141 . S
C161 O162 1.313 . S
C161 O168 1.195 . S
O162 C161 1.313 . S
C163 O164 1.245 . S
C163 O172 1.289 . S
O164 C163 1.245 . S
C165 O166 1.245 . S
C165 O167 1.289 . S
O166 C165 1.245 . S
O167 Mg160 2.141 . S
O167 C165 1.289 . S
O168 Mg160 2.048 . S
O168 C161 1.195 . S
O169 Mg160 2.048 . S
O169 C170 1.195 . S
C170 O169 1.195 . S
C170 O171 1.313 . S
O171 C170 1.313 . S
O172 Mg160 2.141 . S
O172 C163 1.289 . S
Mg173 O180 2.141 . S
Mg173 O181 2.048 . S
Mg173 O182 2.048 . S
Mg173 O185 2.141 . S
C174 O175 1.313 . S
C174 O181 1.195 . S
O175 C174 1.313 . S
C176 O177 1.245 . S
C176 O185 1.289 . S
O177 C176 1.245 . S
C178 O179 1.245 . S
C178 O180 1.289 . S
O179 C178 1.245 . S
O180 Mg173 2.141 . S
O180 C178 1.289 . S
O181 Mg173 2.048 . S
O181 C174 1.195 . S
O182 Mg173 2.048 . S
O182 C183 1.195 . S
C183 O182 1.195 . S
C183 O184 1.313 . S
O184 C183 1.313 . S
O185 Mg173 2.141 . S
O185 C176 1.289 . S
C186 C187 1.349 . S
C186 C188 1.327 . S
C186 H211 0.950 . S
C187 C186 1.349 . S
C187 C203 1.349 . S
C188 C186 1.327 . S
C188 C207 1.429 . S
C188 H212 0.950 . S
C189 C206 1.574 . S
C189 C208 1.368 . S
C189 H213 0.949 . S
H190 C194 0.949 . S
C191 C192 1.349 . S
C191 C193 1.327 . S
C191 H214 0.950 . S
C192 C191 1.349 . S
C192 C204 1.349 . S
C193 C191 1.327 . S
C193 C209 1.429 . S
C193 H215 0.950 . S
C194 H190 0.949 . S
C194 C202 1.574 . S
C194 C210 1.368 . S
H195 C203 0.950 . S
H196 C201 0.950 . S
H197 C202 0.949 . S
H198 C204 0.950 . S
H199 C205 0.950 . S
H200 C206 0.949 . S
C201 H196 0.950 . S
C201 C203 1.327 . S
C201 C207 1.429 . S
C202 C194 1.574 . S
C202 H197 0.949 . S
C202 C208 1.368 . S
C203 C187 1.349 . S
C203 H195 0.950 . S
C203 C201 1.327 . S
C204 C192 1.349 . S
C204 H198 0.950 . S
C204 C205 1.327 . S
C205 H199 0.950 . S
C205 C204 1.327 . S
C205 C209 1.429 . S
C206 C189 1.574 . S
C206 H200 0.949 . S
C206 C210 1.368 . S
C207 C188 1.429 . S
C207 C201 1.429 . S
C207 C208 1.523 . S
C208 C189 1.368 . S
C208 C202 1.368 . S
C208 C207 1.523 . S
C209 C193 1.429 . S
C209 C205 1.429 . S
C209 C210 1.523 . S
C210 C194 1.368 . S
C210 C206 1.368 . S
C210 C209 1.523 . S
H211 C186 0.950 . S
H212 C188 0.950 . S
H213 C189 0.949 . S
H214 C191 0.950 . S
H215 C193 0.950 . S
C216 C217 1.349 . S
C216 C218 1.327 . S
C216 H241 0.950 . S
C217 C216 1.349 . S
C217 C233 1.349 . S
C218 C216 1.327 . S
C218 C237 1.429 . S
C218 H242 0.950 . S
C219 C236 1.574 . S
C219 C238 1.368 . S
C219 H243 0.949 . S
H220 C224 0.949 . S
C221 C222 1.349 . S
C221 C223 1.327 . S
C221 H244 0.950 . S
C222 C221 1.349 . S
C222 C234 1.349 . S
C223 C221 1.327 . S
C223 C239 1.429 . S
C223 H245 0.950 . S
C224 H220 0.949 . S
C224 C232 1.574 . S
C224 C240 1.368 . S
H225 C233 0.950 . S
H226 C231 0.950 . S
H227 C232 0.949 . S
H228 C234 0.950 . S
H229 C235 0.950 . S
H230 C236 0.949 . S
C231 H226 0.950 . S
C231 C233 1.327 . S
C231 C237 1.429 . S
C232 C224 1.574 . S
C232 H227 0.949 . S
C232 C238 1.368 . S
C233 C217 1.349 . S
C233 H225 0.950 . S
C233 C231 1.327 . S
C234 C222 1.349 . S
C234 H228 0.950 . S
C234 C235 1.327 . S
C235 H229 0.950 . S
C235 C234 1.327 . S
C235 C239 1.429 . S
C236 C219 1.574 . S
C236 H230 0.949 . S
C236 C240 1.368 . S
C237 C218 1.429 . S
C237 C231 1.429 . S
C237 C238 1.523 . S
C238 C219 1.368 . S
C238 C232 1.368 . S
C238 C237 1.523 . S
C239 C223 1.429 . S
C239 C235 1.429 . S
C239 C240 1.523 . S
C240 C224 1.368 . S
C240 C236 1.368 . S
C240 C239 1.523 . S
H241 C216 0.950 . S
H242 C218 0.950 . S
H243 C219 0.949 . S
H244 C221 0.950 . S
H245 C223 0.950 . S
C246 C247 1.349 . S
C246 C248 1.327 . S
C246 H271 0.950 . S
C247 C246 1.349 . S
C247 C263 1.349 . S
C248 C246 1.327 . S
C248 C267 1.429 . S
C248 H272 0.950 . S
C249 C266 1.574 . S
C249 C268 1.368 . S
C249 H273 0.949 . S
H250 C254 0.949 . S
C251 C252 1.349 . S
C251 C253 1.327 . S
C251 H274 0.950 . S
C252 C251 1.349 . S
C252 C264 1.349 . S
C253 C251 1.327 . S
C253 C269 1.429 . S
C253 H275 0.950 . S
C254 H250 0.949 . S
C254 C262 1.574 . S
C254 C270 1.368 . S
H255 C263 0.950 . S
H256 C261 0.950 . S
H257 C262 0.949 . S
H258 C264 0.950 . S
H259 C265 0.950 . S
H260 C266 0.949 . S
C261 H256 0.950 . S
C261 C263 1.327 . S
C261 C267 1.429 . S
C262 C254 1.574 . S
C262 H257 0.949 . S
C262 C268 1.368 . S
C263 C247 1.349 . S
C263 H255 0.950 . S
C263 C261 1.327 . S
C264 C252 1.349 . S
C264 H258 0.950 . S
C264 C265 1.327 . S
C265 H259 0.950 . S
C265 C264 1.327 . S
C265 C269 1.429 . S
C266 C249 1.574 . S
C266 H260 0.949 . S
C266 C270 1.368 . S
C267 C248 1.429 . S
C267 C261 1.429 . S
C267 C268 1.523 . S
C268 C249 1.368 . S
C268 C262 1.368 . S
C268 C267 1.523 . S
C269 C253 1.429 . S
C269 C265 1.429 . S
C269 C270 1.523 . S
C270 C254 1.368 . S
C270 C266 1.368 . S
C270 C269 1.523 . S
H271 C246 0.950 . S
H272 C248 0.950 . S
H273 C249 0.949 . S
H274 C251 0.950 . S
H275 C253 0.950 . S
C276 C277 1.349 . S
C276 C278 1.327 . S
C276 H301 0.950 . S
C277 C276 1.349 . S
C277 C293 1.349 . S
C278 C276 1.327 . S
C278 C297 1.429 . S
C278 H302 0.950 . S
C279 C296 1.574 . S
C279 C298 1.368 . S
C279 H303 0.949 . S
H280 C284 0.949 . S
C281 C282 1.349 . S
C281 C283 1.327 . S
C281 H304 0.950 . S
C282 C281 1.349 . S
C282 C294 1.349 . S
C283 C281 1.327 . S
C283 C299 1.429 . S
C283 H305 0.950 . S
C284 H280 0.949 . S
C284 C292 1.574 . S
C284 C300 1.368 . S
H285 C293 0.950 . S
H286 C291 0.950 . S
H287 C292 0.949 . S
H288 C294 0.950 . S
H289 C295 0.950 . S
H290 C296 0.949 . S
C291 H286 0.950 . S
C291 C293 1.327 . S
C291 C297 1.429 . S
C292 C284 1.574 . S
C292 H287 0.949 . S
C292 C298 1.368 . S
C293 C277 1.349 . S
C293 H285 0.950 . S
C293 C291 1.327 . S
C294 C282 1.349 . S
C294 H288 0.950 . S
C294 C295 1.327 . S
C295 H289 0.950 . S
C295 C294 1.327 . S
C295 C299 1.429 . S
C296 C279 1.574 . S
C296 H290 0.949 . S
C296 C300 1.368 . S
C297 C278 1.429 . S
C297 C291 1.429 . S
C297 C298 1.523 . S
C298 C279 1.368 . S
C298 C292 1.368 . S
C298 C297 1.523 . S
C299 C283 1.429 . S
C299 C295 1.429 . S
C299 C300 1.523 . S
C300 C284 1.368 . S
C300 C296 1.368 . S
C300 C299 1.523 . S
H301 C276 0.950 . S
H302 C278 0.950 . S
H303 C279 0.949 . S
H304 C281 0.950 . S
H305 C283 0.950 . S
C306 C307 1.349 . S
C306 C308 1.327 . S
C306 H331 0.950 . S
C307 C306 1.349 . S
C307 C323 1.349 . S
C308 C306 1.327 . S
C308 C327 1.429 . S
C308 H332 0.950 . S
C309 C326 1.574 . S
C309 C328 1.368 . S
C309 H333 0.949 . S
H310 C314 0.949 . S
C311 C312 1.349 . S
C311 C313 1.327 . S
C311 H334 0.950 . S
C312 C311 1.349 . S
C312 C324 1.349 . S
C313 C311 1.327 . S
C313 C329 1.429 . S
C313 H335 0.950 . S
C314 H310 0.949 . S
C314 C322 1.574 . S
C314 C330 1.368 . S
H315 C323 0.950 . S
H316 C321 0.950 . S
H317 C322 0.949 . S
H318 C324 0.950 . S
H319 C325 0.950 . S
H320 C326 0.949 . S
C321 H316 0.950 . S
C321 C323 1.327 . S
C321 C327 1.429 . S
C322 C314 1.574 . S
C322 H317 0.949 . S
C322 C328 1.368 . S
C323 C307 1.349 . S
C323 H315 0.950 . S
C323 C321 1.327 . S
C324 C312 1.349 . S
C324 H318 0.950 . S
C324 C325 1.327 . S
C325 H319 0.950 . S
C325 C324 1.327 . S
C325 C329 1.429 . S
C326 C309 1.574 . S
C326 H320 0.949 . S
C326 C330 1.368 . S
C327 C308 1.429 . S
C327 C321 1.429 . S
C327 C328 1.523 . S
C328 C309 1.368 . S
C328 C322 1.368 . S
C328 C327 1.523 . S
C329 C313 1.429 . S
C329 C325 1.429 . S
C329 C330 1.523 . S
C330 C314 1.368 . S
C330 C326 1.368 . S
C330 C329 1.523 . S
H331 C306 0.950 . S
H332 C308 0.950 . S
H333 C309 0.949 . S
H334 C311 0.950 . S
H335 C313 0.950 . S
C336 C337 1.349 . S
C336 C338 1.327 . S
C336 H361 0.950 . S
C337 C336 1.349 . S
C337 C353 1.349 . S
C338 C336 1.327 . S
C338 C357 1.429 . S
C338 H362 0.950 . S
C339 C356 1.574 . S
C339 C358 1.368 . S
C339 H363 0.949 . S
H340 C344 0.949 . S
C341 C342 1.349 . S
C341 C343 1.327 . S
C341 H364 0.950 . S
C342 C341 1.349 . S
C342 C354 1.349 . S
C343 C341 1.327 . S
C343 C359 1.429 . S
C343 H365 0.950 . S
C344 H340 0.949 . S
C344 C352 1.574 . S
C344 C360 1.368 . S
H345 C353 0.950 . S
H346 C351 0.950 . S
H347 C352 0.949 . S
H348 C354 0.950 . S
H349 C355 0.950 . S
H350 C356 0.949 . S
C351 H346 0.950 . S
C351 C353 1.327 . S
C351 C357 1.429 . S
C352 C344 1.574 . S
C352 H347 0.949 . S
C352 C358 1.368 . S
C353 C337 1.349 . S
C353 H345 0.950 . S
C353 C351 1.327 . S
C354 C342 1.349 . S
C354 H348 0.950 . S
C354 C355 1.327 . S
C355 H349 0.950 . S
C355 C354 1.327 . S
C355 C359 1.429 . S
C356 C339 1.574 . S
C356 H350 0.949 . S
C356 C360 1.368 . S
C357 C338 1.429 . S
C357 C351 1.429 . S
C357 C358 1.523 . S
C358 C339 1.368 . S
C358 C352 1.368 . S
C358 C357 1.523 . S
C359 C343 1.429 . S
C359 C355 1.429 . S
C359 C360 1.523 . S
C360 C344 1.368 . S
C360 C356 1.368 . S
C360 C359 1.523 . S
H361 C336 0.950 . S
H362 C338 0.950 . S
H363 C339 0.949 . S
H364 C341 0.950 . S
H365 C343 0.950 . S
C366 C367 1.349 . S
C366 C368 1.327 . S
C366 H391 0.950 . S
C367 C366 1.349 . S
C367 C383 1.349 . S
C368 C366 1.327 . S
C368 C387 1.429 . S
C368 H392 0.950 . S
C369 C386 1.574 . S
C369 C388 1.368 . S
C369 H393 0.949 . S
H370 C374 0.949 . S
C371 C372 1.349 . S
C371 C373 1.327 . S
C371 H394 0.950 . S
C372 C371 1.349 . S
C372 C384 1.349 . S
C373 C371 1.327 . S
C373 C389 1.429 . S
C373 H395 0.950 . S
C374 H370 0.949 . S
C374 C382 1.574 . S
C374 C390 1.368 . S
H375 C383 0.939 1_545 S
H376 C381 0.950 . S
H377 C382 0.949 . S
H378 C384 0.950 . S
H379 C385 0.950 . S
H380 C386 0.949 . S
C381 H376 0.950 . S
C381 C383 1.327 . S
C381 C387 1.429 . S
C382 C374 1.574 . S
C382 H377 0.949 . S
C382 C388 1.368 . S
C383 C367 1.349 . S
C383 H375 0.939 1_565 S
C383 C381 1.327 . S
C384 C372 1.349 . S
C384 H378 0.950 . S
C384 C385 1.327 . S
C385 H379 0.950 . S
C385 C384 1.327 . S
C385 C389 1.429 . S
C386 C369 1.574 . S
C386 H380 0.949 . S
C386 C390 1.368 . S
C387 C368 1.429 . S
C387 C381 1.429 . S
C387 C388 1.523 . S
C388 C369 1.368 . S
C388 C382 1.368 . S
C388 C387 1.523 . S
C389 C373 1.429 . S
C389 C385 1.429 . S
C389 C390 1.523 . S
C390 C374 1.368 . S
C390 C386 1.368 . S
C390 C389 1.523 . S
H391 C366 0.950 . S
H392 C368 0.950 . S
H393 C369 0.949 . S
H394 C371 0.950 . S
H395 C373 0.950 . S
C396 C397 1.349 . S
C396 C398 1.327 . S
C396 H421 0.950 . S
C397 C396 1.349 . S
C397 C413 1.349 . S
C398 C396 1.327 . S
C398 C417 1.429 . S
C398 H422 0.950 . S
C399 C416 1.574 . S
C399 C418 1.368 . S
C399 H423 0.949 . S
H400 C404 0.949 . S
C401 C402 1.349 . S
C401 C403 1.327 . S
C401 H424 0.950 . S
C402 C401 1.349 . S
C402 C414 1.349 . S
C403 C401 1.327 . S
C403 C419 1.429 . S
C403 H425 0.950 . S
C404 H400 0.949 . S
C404 C412 1.574 . S
C404 C420 1.368 . S
H405 C413 0.950 . S
H406 C411 0.950 . S
H407 C412 0.949 . S
H408 C414 0.950 . S
H409 C415 0.950 . S
H410 C416 0.949 . S
C411 H406 0.950 . S
C411 C413 1.327 . S
C411 C417 1.429 . S
C412 C404 1.574 . S
C412 H407 0.949 . S
C412 C418 1.368 . S
C413 C397 1.349 . S
C413 H405 0.950 . S
C413 C411 1.327 . S
C414 C402 1.349 . S
C414 H408 0.950 . S
C414 C415 1.327 . S
C415 H409 0.950 . S
C415 C414 1.327 . S
C415 C419 1.429 . S
C416 C399 1.574 . S
C416 H410 0.949 . S
C416 C420 1.368 . S
C417 C398 1.429 . S
C417 C411 1.429 . S
C417 C418 1.523 . S
C418 C399 1.368 . S
C418 C412 1.368 . S
C418 C417 1.523 . S
C419 C403 1.429 . S
C419 C415 1.429 . S
C419 C420 1.523 . S
C420 C404 1.368 . S
C420 C416 1.368 . S
C420 C419 1.523 . S
H421 C396 0.950 . S
H422 C398 0.950 . S
H423 C399 0.949 . S
H424 C401 0.950 . S
H425 C403 0.950 . S
C426 C427 1.349 . S
C426 C428 1.327 . S
C426 H451 0.950 . S
C427 C426 1.349 . S
C427 C443 1.349 . S
C428 C426 1.327 . S
C428 C447 1.429 . S
C428 H452 0.950 . S
C429 C446 1.574 . S
C429 C448 1.368 . S
C429 H453 0.949 . S
H430 C434 0.949 . S
C431 C432 1.349 . S
C431 C433 1.327 . S
C431 H454 0.950 . S
C432 C431 1.349 . S
C432 C444 1.349 . S
C433 C431 1.327 . S
C433 C449 1.429 . S
C433 H455 0.950 . S
C434 H430 0.949 . S
C434 C442 1.574 . S
C434 C450 1.368 . S
H435 C443 0.950 . S
H436 C441 0.950 . S
H437 C442 0.949 . S
H438 C444 0.950 . S
H439 C445 0.950 . S
H440 C446 0.949 . S
C441 H436 0.950 . S
C441 C443 1.327 . S
C441 C447 1.429 . S
C442 C434 1.574 . S
C442 H437 0.949 . S
C442 C448 1.368 . S
C443 C427 1.349 . S
C443 H435 0.950 . S
C443 C441 1.327 . S
C444 C432 1.349 . S
C444 H438 0.950 . S
C444 C445 1.327 . S
C445 H439 0.950 . S
C445 C444 1.327 . S
C445 C449 1.429 . S
C446 C429 1.574 . S
C446 H440 0.949 . S
C446 C450 1.368 . S
C447 C428 1.429 . S
C447 C441 1.429 . S
C447 C448 1.523 . S
C448 C429 1.368 . S
C448 C442 1.368 . S
C448 C447 1.523 . S
C449 C433 1.429 . S
C449 C445 1.429 . S
C449 C450 1.523 . S
C450 C434 1.368 . S
C450 C446 1.368 . S
C450 C449 1.523 . S
H451 C426 0.950 . S
H452 C428 0.950 . S
H453 C429 0.949 . S
H454 C431 0.950 . S
H455 C433 0.950 . S
C456 C457 1.349 . S
C456 C458 1.327 . S
C456 H481 0.950 . S
C457 C456 1.349 . S
C457 C473 1.349 . S
C458 C456 1.327 . S
C458 C477 1.429 . S
C458 H482 0.950 . S
C459 C476 1.574 . S
C459 C478 1.368 . S
C459 H483 0.949 . S
H460 C464 0.949 . S
C461 C462 1.349 . S
C461 C463 1.327 . S
C461 H484 0.950 . S
C462 C461 1.349 . S
C462 C474 1.349 . S
C463 C461 1.327 . S
C463 C479 1.429 . S
C463 H485 0.950 . S
C464 H460 0.949 . S
C464 C472 1.574 . S
C464 C480 1.368 . S
H465 C473 0.950 . S
H466 C471 0.950 . S
H467 C472 0.949 . S
H468 C474 0.950 . S
H469 C475 0.950 . S
H470 C476 0.949 . S
C471 H466 0.950 . S
C471 C473 1.327 . S
C471 C477 1.429 . S
C472 C464 1.574 . S
C472 H467 0.949 . S
C472 C478 1.368 . S
C473 C457 1.349 . S
C473 H465 0.950 . S
C473 C471 1.327 . S
C474 C462 1.349 . S
C474 H468 0.950 . S
C474 C475 1.327 . S
C475 H469 0.950 . S
C475 C474 1.327 . S
C475 C479 1.429 . S
C476 C459 1.574 . S
C476 H470 0.949 . S
C476 C480 1.368 . S
C477 C458 1.429 . S
C477 C471 1.429 . S
C477 C478 1.523 . S
C478 C459 1.368 . S
C478 C472 1.368 . S
C478 C477 1.523 . S
C479 C463 1.429 . S
C479 C475 1.429 . S
C479 C480 1.523 . S
C480 C464 1.368 . S
C480 C476 1.368 . S
C480 C479 1.523 . S
H481 C456 0.950 . S
H482 C458 0.950 . S
H483 C459 0.949 . S
H484 C461 0.950 . S
H485 C463 0.950 . S
C486 C487 1.349 . S
C486 C488 1.327 . S
C486 H511 0.950 . S
C487 C486 1.349 . S
C487 C503 1.349 . S
C488 C486 1.327 . S
C488 C507 1.429 . S
C488 H512 0.950 . S
C489 C506 1.574 . S
C489 C508 1.368 . S
C489 H513 0.949 . S
H490 C494 0.949 . S
C491 C492 1.349 . S
C491 C493 1.327 . S
C491 H514 0.950 . S
C492 C491 1.349 . S
C492 C504 1.349 . S
C493 C491 1.327 . S
C493 C509 1.429 . S
C493 H515 0.950 . S
C494 H490 0.949 . S
C494 C502 1.574 . S
C494 C510 1.368 . S
H495 C503 0.950 . S
H496 C501 0.950 . S
H497 C502 0.949 . S
H498 C504 0.950 . S
H499 C505 0.950 . S
H500 C506 0.949 . S
C501 H496 0.950 . S
C501 C503 1.327 . S
C501 C507 1.429 . S
C502 C494 1.574 . S
C502 H497 0.949 . S
C502 C508 1.368 . S
C503 C487 1.349 . S
C503 H495 0.950 . S
C503 C501 1.327 . S
C504 C492 1.349 . S
C504 H498 0.950 . S
C504 C505 1.327 . S
C505 H499 0.950 . S
C505 C504 1.327 . S
C505 C509 1.429 . S
C506 C489 1.574 . S
C506 H500 0.949 . S
C506 C510 1.368 . S
C507 C488 1.429 . S
C507 C501 1.429 . S
C507 C508 1.523 . S
C508 C489 1.368 . S
C508 C502 1.368 . S
C508 C507 1.523 . S
C509 C493 1.429 . S
C509 C505 1.429 . S
C509 C510 1.523 . S
C510 C494 1.368 . S
C510 C506 1.368 . S
C510 C509 1.523 . S
H511 C486 0.950 . S
H512 C488 0.950 . S
H513 C489 0.949 . S
H514 C491 0.950 . S
H515 C493 0.950 . S
C516 C517 1.349 . S
C516 C518 1.327 . S
C516 H541 0.950 . S
C517 C516 1.349 . S
C517 C533 1.349 . S
C518 C516 1.327 . S
C518 C537 1.429 . S
C518 H542 0.950 . S
C519 C536 1.574 . S
C519 C538 1.368 . S
C519 H543 0.949 . S
H520 C524 0.949 . S
C521 C522 1.349 . S
C521 C523 1.327 . S
C521 H544 0.950 . S
C522 C521 1.349 . S
C522 C534 1.349 . S
C523 C521 1.327 . S
C523 C539 1.429 . S
C523 H545 0.950 . S
C524 H520 0.949 . S
C524 C532 1.574 . S
C524 C540 1.368 . S
H525 C533 0.950 . S
H526 C531 0.950 . S
H527 C532 0.949 . S
H528 C534 0.950 . S
H529 C535 0.950 . S
H530 C536 0.949 . S
C531 H526 0.950 . S
C531 C533 1.327 . S
C531 C537 1.429 . S
C532 C524 1.574 . S
C532 H527 0.949 . S
C532 C538 1.368 . S
C533 C517 1.349 . S
C533 H525 0.950 . S
C533 C531 1.327 . S
C534 C522 1.349 . S
C534 H528 0.950 . S
C534 C535 1.327 . S
C535 H529 0.950 . S
C535 C534 1.327 . S
C535 C539 1.429 . S
C536 C519 1.574 . S
C536 H530 0.949 . S
C536 C540 1.368 . S
C537 C518 1.429 . S
C537 C531 1.429 . S
C537 C538 1.523 . S
C538 C519 1.368 . S
C538 C532 1.368 . S
C538 C537 1.523 . S
C539 C523 1.429 . S
C539 C535 1.429 . S
C539 C540 1.523 . S
C540 C524 1.368 . S
C540 C536 1.368 . S
C540 C539 1.523 . S
H541 C516 0.950 . S
H542 C518 0.950 . S
H543 C519 0.949 . S
H544 C521 0.950 . S
H545 C523 0.950 . S
C546 C547 1.349 . S
C546 C548 1.327 . S
C546 H571 0.950 . S
C547 C546 1.349 . S
C547 C563 1.349 . S
C548 C546 1.327 . S
C548 C567 1.429 . S
C548 H572 0.950 . S
C549 C566 1.574 . S
C549 C568 1.368 . S
C549 H573 0.949 . S
H550 C554 0.949 . S
C551 C552 1.349 . S
C551 C553 1.327 . S
C551 H574 0.950 . S
C552 C551 1.349 . S
C552 C564 1.349 . S
C553 C551 1.327 . S
C553 C569 1.429 . S
C553 H575 0.950 . S
C554 H550 0.949 . S
C554 C562 1.574 . S
C554 C570 1.368 . S
H555 C563 0.950 . S
H556 C561 0.950 . S
H557 C562 0.949 . S
H558 C564 0.950 . S
H559 C565 0.950 . S
H560 C566 0.949 . S
C561 H556 0.950 . S
C561 C563 1.327 . S
C561 C567 1.429 . S
C562 C554 1.574 . S
C562 H557 0.949 . S
C562 C568 1.368 . S
C563 C547 1.349 . S
C563 H555 0.950 . S
C563 C561 1.327 . S
C564 C552 1.349 . S
C564 H558 0.950 . S
C564 C565 1.327 . S
C565 H559 0.950 . S
C565 C564 1.327 . S
C565 C569 1.429 . S
C566 C549 1.574 . S
C566 H560 0.949 . S
C566 C570 1.368 . S
C567 C548 1.429 . S
C567 C561 1.429 . S
C567 C568 1.523 . S
C568 C549 1.368 . S
C568 C562 1.368 . S
C568 C567 1.523 . S
C569 C553 1.429 . S
C569 C565 1.429 . S
C569 C570 1.523 . S
C570 C554 1.368 . S
C570 C566 1.368 . S
C570 C569 1.523 . S
H571 C546 0.950 . S
H572 C548 0.950 . S
H573 C549 0.949 . S
H574 C551 0.950 . S
H575 C553 0.950 . S
C576 C577 1.349 . S
C576 C578 1.327 . S
C576 H601 0.950 . S
C577 C576 1.349 . S
C577 C593 1.349 . S
C578 C576 1.327 . S
C578 C597 1.429 . S
C578 H602 0.950 . S
C579 C596 1.574 . S
C579 C598 1.368 . S
C579 H603 0.949 . S
H580 C584 0.949 . S
C581 C582 1.349 . S
C581 C583 1.327 . S
C581 H604 0.950 . S
C582 C581 1.349 . S
C582 C594 1.349 . S
C583 C581 1.327 . S
C583 C599 1.429 . S
C583 H605 0.950 . S
C584 H580 0.949 . S
C584 C592 1.574 . S
C584 C600 1.368 . S
H585 C593 0.950 . S
H586 C591 0.950 . S
H587 C592 0.949 . S
H588 C594 0.950 . S
H589 C595 0.950 . S
H590 C596 0.949 . S
C591 H586 0.950 . S
C591 C593 1.327 . S
C591 C597 1.429 . S
C592 C584 1.574 . S
C592 H587 0.949 . S
C592 C598 1.368 . S
C593 C577 1.349 . S
C593 H585 0.950 . S
C593 C591 1.327 . S
C594 C582 1.349 . S
C594 H588 0.950 . S
C594 C595 1.327 . S
C595 H589 0.950 . S
C595 C594 1.327 . S
C595 C599 1.429 . S
C596 C579 1.574 . S
C596 H590 0.949 . S
C596 C600 1.368 . S
C597 C578 1.429 . S
C597 C591 1.429 . S
C597 C598 1.523 . S
C598 C579 1.368 . S
C598 C592 1.368 . S
C598 C597 1.523 . S
C599 C583 1.429 . S
C599 C595 1.429 . S
C599 C600 1.523 . S
C600 C584 1.368 . S
C600 C596 1.368 . S
C600 C599 1.523 . S
H601 C576 0.950 . S
H602 C578 0.950 . S
H603 C579 0.949 . S
H604 C581 0.950 . S
H605 C583 0.950 . S
C606 C607 1.349 . S
C606 C608 1.327 . S
C606 H631 0.950 . S
C607 C606 1.349 . S
C607 C623 1.349 . S
C608 C606 1.327 . S
C608 C627 1.429 . S
C608 H632 0.950 . S
C609 C626 1.574 . S
C609 C628 1.368 . S
C609 H633 0.949 . S
H610 C614 0.949 . S
C611 C612 1.349 . S
C611 C613 1.327 . S
C611 H634 0.950 . S
C612 C611 1.349 . S
C612 C624 1.349 . S
C613 C611 1.327 . S
C613 C629 1.429 . S
C613 H635 0.950 . S
C614 H610 0.949 . S
C614 C622 1.574 . S
C614 C630 1.368 . S
H615 C623 0.950 . S
H616 C621 0.950 . S
H617 C622 0.949 . S
H618 C624 0.950 . S
H619 C625 0.950 . S
H620 C626 0.949 . S
C621 H616 0.950 . S
C621 C623 1.327 . S
C621 C627 1.429 . S
C622 C614 1.574 . S
C622 H617 0.949 . S
C622 C628 1.368 . S
C623 C607 1.349 . S
C623 H615 0.950 . S
C623 C621 1.327 . S
C624 C612 1.349 . S
C624 H618 0.950 . S
C624 C625 1.327 . S
C625 H619 0.950 . S
C625 C624 1.327 . S
C625 C629 1.429 . S
C626 C609 1.574 . S
C626 H620 0.949 . S
C626 C630 1.368 . S
C627 C608 1.429 . S
C627 C621 1.429 . S
C627 C628 1.523 . S
C628 C609 1.368 . S
C628 C622 1.368 . S
C628 C627 1.523 . S
C629 C613 1.429 . S
C629 C625 1.429 . S
C629 C630 1.523 . S
C630 C614 1.368 . S
C630 C626 1.368 . S
C630 C629 1.523 . S
H631 C606 0.950 . S
H632 C608 0.950 . S
H633 C609 0.949 . S
H634 C611 0.950 . S
H635 C613 0.950 . S
C636 C637 1.349 . S
C636 C638 1.327 . S
C636 H661 0.950 . S
C637 C636 1.349 . S
C637 C653 1.349 . S
C638 C636 1.327 . S
C638 C657 1.429 . S
C638 H662 0.950 . S
C639 C656 1.574 . S
C639 C658 1.368 . S
C639 H663 0.949 . S
H640 C644 0.949 . S
C641 C642 1.349 . S
C641 C643 1.327 . S
C641 H664 0.950 . S
C642 C641 1.349 . S
C642 C654 1.349 . S
C643 C641 1.327 . S
C643 C659 1.429 . S
C643 H665 0.950 . S
C644 H640 0.949 . S
C644 C652 1.574 . S
C644 C660 1.368 . S
H645 C653 0.950 . S
H646 C651 0.950 . S
H647 C652 0.949 . S
H648 C654 0.950 . S
H649 C655 0.950 . S
H650 C656 0.949 . S
C651 H646 0.950 . S
C651 C653 1.327 . S
C651 C657 1.429 . S
C652 C644 1.574 . S
C652 H647 0.949 . S
C652 C658 1.368 . S
C653 C637 1.349 . S
C653 H645 0.950 . S
C653 C651 1.327 . S
C654 C642 1.349 . S
C654 H648 0.950 . S
C654 C655 1.327 . S
C655 H649 0.950 . S
C655 C654 1.327 . S
C655 C659 1.429 . S
C656 C639 1.574 . S
C656 H650 0.949 . S
C656 C660 1.368 . S
C657 C638 1.429 . S
C657 C651 1.429 . S
C657 C658 1.523 . S
C658 C639 1.368 . S
C658 C652 1.368 . S
C658 C657 1.523 . S
C659 C643 1.429 . S
C659 C655 1.429 . S
C659 C660 1.523 . S
C660 C644 1.368 . S
C660 C656 1.368 . S
C660 C659 1.523 . S
H661 C636 0.950 . S
H662 C638 0.950 . S
H663 C639 0.949 . S
H664 C641 0.950 . S
H665 C643 0.950 . S
C666 C667 1.349 . S
C666 C668 1.327 . S
C666 H691 0.950 . S
C667 C666 1.349 . S
C667 C683 1.349 . S
C668 C666 1.327 . S
C668 C687 1.429 . S
C668 H692 0.950 . S
C669 C686 1.574 . S
C669 C688 1.368 . S
C669 H693 0.949 . S
H670 C674 0.949 . S
C671 C672 1.349 . S
C671 C673 1.327 . S
C671 H694 0.950 . S
C672 C671 1.349 . S
C672 C684 1.349 . S
C673 C671 1.327 . S
C673 C689 1.429 . S
C673 H695 0.950 . S
C674 H670 0.949 . S
C674 C682 1.574 . S
C674 C690 1.368 . S
H675 C683 0.950 . S
H676 C681 0.950 . S
H677 C682 0.949 . S
H678 C684 0.950 . S
H679 C685 0.950 . S
H680 C686 0.949 . S
C681 H676 0.950 . S
C681 C683 1.327 . S
C681 C687 1.429 . S
C682 C674 1.574 . S
C682 H677 0.949 . S
C682 C688 1.368 . S
C683 C667 1.349 . S
C683 H675 0.950 . S
C683 C681 1.327 . S
C684 C672 1.349 . S
C684 H678 0.950 . S
C684 C685 1.327 . S
C685 H679 0.950 . S
C685 C684 1.327 . S
C685 C689 1.429 . S
C686 C669 1.574 . S
C686 H680 0.949 . S
C686 C690 1.368 . S
C687 C668 1.429 . S
C687 C681 1.429 . S
C687 C688 1.523 . S
C688 C669 1.368 . S
C688 C682 1.368 . S
C688 C687 1.523 . S
C689 C673 1.429 . S
C689 C685 1.429 . S
C689 C690 1.523 . S
C690 C674 1.368 . S
C690 C686 1.368 . S
C690 C689 1.523 . S
H691 C666 0.950 . S
H692 C668 0.950 . S
H693 C669 0.949 . S
H694 C671 0.950 . S
H695 C673 0.950 . S
C696 C697 1.349 . S
C696 C698 1.327 . S
C696 H721 0.950 . S
C697 C696 1.349 . S
C697 C713 1.349 . S
C698 C696 1.327 . S
C698 C717 1.429 . S
C698 H722 0.950 . S
C699 C716 1.574 . S
C699 C718 1.368 . S
C699 H723 0.949 . S
H700 C704 0.949 . S
C701 C702 1.349 . S
C701 C703 1.327 . S
C701 H724 0.950 . S
C702 C701 1.349 . S
C702 C714 1.349 . S
C703 C701 1.327 . S
C703 C719 1.429 . S
C703 H725 0.950 . S
C704 H700 0.949 . S
C704 C712 1.574 . S
C704 C720 1.368 . S
H705 C713 0.950 . S
H706 C711 0.950 . S
H707 C712 0.949 . S
H708 C714 0.950 . S
H709 C715 0.950 . S
H710 C716 0.949 . S
C711 H706 0.950 . S
C711 C713 1.327 . S
C711 C717 1.429 . S
C712 C704 1.574 . S
C712 H707 0.949 . S
C712 C718 1.368 . S
C713 C697 1.349 . S
C713 H705 0.950 . S
C713 C711 1.327 . S
C714 C702 1.349 . S
C714 H708 0.950 . S
C714 C715 1.327 . S
C715 H709 0.950 . S
C715 C714 1.327 . S
C715 C719 1.429 . S
C716 C699 1.574 . S
C716 H710 0.949 . S
C716 C720 1.368 . S
C717 C698 1.429 . S
C717 C711 1.429 . S
C717 C718 1.523 . S
C718 C699 1.368 . S
C718 C712 1.368 . S
C718 C717 1.523 . S
C719 C703 1.429 . S
C719 C715 1.429 . S
C719 C720 1.523 . S
C720 C704 1.368 . S
C720 C716 1.368 . S
C720 C719 1.523 . S
H721 C696 0.950 . S
H722 C698 0.950 . S
H723 C699 0.949 . S
H724 C701 0.950 . S
H725 C703 0.950 . S
C726 C727 1.349 . S
C726 C728 1.327 . S
C726 H751 0.950 . S
C727 C726 1.349 . S
C727 C743 1.349 . S
C728 C726 1.327 . S
C728 C747 1.429 . S
C728 H752 0.950 . S
C729 C746 1.574 . S
C729 C748 1.368 . S
C729 H753 0.949 . S
H730 C734 0.949 . S
C731 C732 1.349 . S
C731 C733 1.327 . S
C731 H754 0.950 . S
C732 C731 1.349 . S
C732 C744 1.349 . S
C733 C731 1.327 . S
C733 C749 1.429 . S
C733 H755 0.950 . S
C734 H730 0.949 . S
C734 C742 1.574 . S
C734 C750 1.368 . S
H735 C743 0.950 . S
H736 C741 0.950 . S
H737 C742 0.949 . S
H738 C744 0.950 . S
H739 C745 0.950 . S
H740 C746 0.949 . S
C741 H736 0.950 . S
C741 C743 1.327 . S
C741 C747 1.429 . S
C742 C734 1.574 . S
C742 H737 0.949 . S
C742 C748 1.368 . S
C743 C727 1.349 . S
C743 H735 0.950 . S
C743 C741 1.327 . S
C744 C732 1.349 . S
C744 H738 0.950 . S
C744 C745 1.327 . S
C745 H739 0.950 . S
C745 C744 1.327 . S
C745 C749 1.429 . S
C746 C729 1.574 . S
C746 H740 0.949 . S
C746 C750 1.368 . S
C747 C728 1.429 . S
C747 C741 1.429 . S
C747 C748 1.523 . S
C748 C729 1.368 . S
C748 C742 1.368 . S
C748 C747 1.523 . S
C749 C733 1.429 . S
C749 C745 1.429 . S
C749 C750 1.523 . S
C750 C734 1.368 . S
C750 C746 1.368 . S
C750 C749 1.523 . S
H751 C726 0.950 . S
H752 C728 0.950 . S
H753 C729 0.949 . S
H754 C731 0.950 . S
H755 C733 0.950 . S
C756 C757 1.349 . S
C756 C758 1.327 . S
C756 H781 0.950 . S
C757 C756 1.349 . S
C757 C773 1.349 . S
C758 C756 1.327 . S
C758 C777 1.429 . S
C758 H782 0.950 . S
C759 C776 1.574 . S
C759 C778 1.368 . S
C759 H783 0.949 . S
H760 C764 0.949 . S
C761 C762 1.349 . S
C761 C763 1.327 . S
C761 H784 0.950 . S
C762 C761 1.349 . S
C762 C774 1.349 . S
C763 C761 1.327 . S
C763 C779 1.429 . S
C763 H785 0.950 . S
C764 H760 0.949 . S
C764 C772 1.574 . S
C764 C780 1.368 . S
H765 C773 0.950 . S
H766 C771 0.950 . S
H767 C772 0.949 . S
H768 C774 0.950 . S
H769 C775 0.950 . S
H770 C776 0.949 . S
C771 H766 0.950 . S
C771 C773 1.327 . S
C771 C777 1.429 . S
C772 C764 1.574 . S
C772 H767 0.949 . S
C772 C778 1.368 . S
C773 C757 1.349 . S
C773 H765 0.950 . S
C773 C771 1.327 . S
C774 C762 1.349 . S
C774 H768 0.950 . S
C774 C775 1.327 . S
C775 H769 0.950 . S
C775 C774 1.327 . S
C775 C779 1.429 . S
C776 C759 1.574 . S
C776 H770 0.949 . S
C776 C780 1.368 . S
C777 C758 1.429 . S
C777 C771 1.429 . S
C777 C778 1.523 . S
C778 C759 1.368 . S
C778 C772 1.368 . S
C778 C777 1.523 . S
C779 C763 1.429 . S
C779 C775 1.429 . S
C779 C780 1.523 . S
C780 C764 1.368 . S
C780 C776 1.368 . S
C780 C779 1.523 . S
H781 C756 0.950 . S
H782 C758 0.950 . S
H783 C759 0.949 . S
H784 C761 0.950 . S
H785 C763 0.950 . S
C786 C787 1.349 . S
C786 C788 1.327 . S
C786 H811 0.950 . S
C787 C786 1.349 . S
C787 C803 1.349 . S
C788 C786 1.327 . S
C788 C807 1.429 . S
C788 H812 0.950 . S
C789 C806 1.574 . S
C789 C808 1.368 . S
C789 H813 0.949 . S
H790 C794 0.949 . S
C791 C792 1.349 . S
C791 C793 1.327 . S
C791 H814 0.950 . S
C792 C791 1.349 . S
C792 C804 1.349 . S
C793 C791 1.327 . S
C793 C809 1.429 . S
C793 H815 0.950 . S
C794 H790 0.949 . S
C794 C802 1.574 . S
C794 C810 1.368 . S
H795 C803 0.950 . S
H796 C801 0.950 . S
H797 C802 0.949 . S
H798 C804 0.950 . S
H799 C805 0.950 . S
H800 C806 0.949 . S
C801 H796 0.950 . S
C801 C803 1.327 . S
C801 C807 1.429 . S
C802 C794 1.574 . S
C802 H797 0.949 . S
C802 C808 1.368 . S
C803 C787 1.349 . S
C803 H795 0.950 . S
C803 C801 1.327 . S
C804 C792 1.349 . S
C804 H798 0.950 . S
C804 C805 1.327 . S
C805 H799 0.950 . S
C805 C804 1.327 . S
C805 C809 1.429 . S
C806 C789 1.574 . S
C806 H800 0.949 . S
C806 C810 1.368 . S
C807 C788 1.429 . S
C807 C801 1.429 . S
C807 C808 1.523 . S
C808 C789 1.368 . S
C808 C802 1.368 . S
C808 C807 1.523 . S
C809 C793 1.429 . S
C809 C805 1.429 . S
C809 C810 1.523 . S
C810 C794 1.368 . S
C810 C806 1.368 . S
C810 C809 1.523 . S
H811 C786 0.950 . S
H812 C788 0.950 . S
H813 C789 0.949 . S
H814 C791 0.950 . S
H815 C793 0.950 . S
C816 C817 1.349 . S
C816 C818 1.327 . S
C816 H841 0.950 . S
C817 C816 1.349 . S
C817 C833 1.349 . S
C818 C816 1.327 . S
C818 C837 1.429 . S
C818 H842 0.950 . S
C819 C836 1.574 . S
C819 C838 1.368 . S
C819 H843 0.949 . S
H820 C824 0.949 . S
C821 C822 1.349 . S
C821 C823 1.327 . S
C821 H844 0.950 . S
C822 C821 1.349 . S
C822 C834 1.349 . S
C823 C821 1.327 . S
C823 C839 1.429 . S
C823 H845 0.950 . S
C824 H820 0.949 . S
C824 C832 1.574 . S
C824 C840 1.368 . S
H825 C833 0.950 . S
H826 C831 0.950 . S
H827 C832 0.949 . S
H828 C834 0.950 . S
H829 C835 0.950 . S
H830 C836 0.949 . S
C831 H826 0.950 . S
C831 C833 1.327 . S
C831 C837 1.429 . S
C832 C824 1.574 . S
C832 H827 0.949 . S
C832 C838 1.368 . S
C833 C817 1.349 . S
C833 H825 0.950 . S
C833 C831 1.327 . S
C834 C822 1.349 . S
C834 H828 0.950 . S
C834 C835 1.327 . S
C835 H829 0.950 . S
C835 C834 1.327 . S
C835 C839 1.429 . S
C836 C819 1.574 . S
C836 H830 0.949 . S
C836 C840 1.368 . S
C837 C818 1.429 . S
C837 C831 1.429 . S
C837 C838 1.523 . S
C838 C819 1.368 . S
C838 C832 1.368 . S
C838 C837 1.523 . S
C839 C823 1.429 . S
C839 C835 1.429 . S
C839 C840 1.523 . S
C840 C824 1.368 . S
C840 C836 1.368 . S
C840 C839 1.523 . S
H841 C816 0.950 . S
H842 C818 0.950 . S
H843 C819 0.949 . S
H844 C821 0.950 . S
H845 C823 0.950 . S
C846 C847 1.349 . S
C846 C848 1.327 . S
C846 H871 0.950 . S
C847 C846 1.349 . S
C847 C863 1.349 . S
C848 C846 1.327 . S
C848 C867 1.429 . S
C848 H872 0.950 . S
C849 C866 1.574 . S
C849 C868 1.368 . S
C849 H873 0.949 . S
H850 C854 0.949 . S
C851 C852 1.349 . S
C851 C853 1.327 . S
C851 H874 0.950 . S
C852 C851 1.349 . S
C852 C864 1.349 . S
C853 C851 1.327 . S
C853 C869 1.429 . S
C853 H875 0.950 . S
C854 H850 0.949 . S
C854 C862 1.574 . S
C854 C870 1.368 . S
H855 C863 0.950 . S
H856 C861 0.950 . S
H857 C862 0.949 . S
H858 C864 0.950 . S
H859 C865 0.950 . S
H860 C866 0.949 . S
C861 H856 0.950 . S
C861 C863 1.327 . S
C861 C867 1.429 . S
C862 C854 1.574 . S
C862 H857 0.949 . S
C862 C868 1.368 . S
C863 C847 1.349 . S
C863 H855 0.950 . S
C863 C861 1.327 . S
C864 C852 1.349 . S
C864 H858 0.950 . S
C864 C865 1.327 . S
C865 H859 0.950 . S
C865 C864 1.327 . S
C865 C869 1.429 . S
C866 C849 1.574 . S
C866 H860 0.949 . S
C866 C870 1.368 . S
C867 C848 1.429 . S
C867 C861 1.429 . S
C867 C868 1.523 . S
C868 C849 1.368 . S
C868 C862 1.368 . S
C868 C867 1.523 . S
C869 C853 1.429 . S
C869 C865 1.429 . S
C869 C870 1.523 . S
C870 C854 1.368 . S
C870 C866 1.368 . S
C870 C869 1.523 . S
H871 C846 0.950 . S
H872 C848 0.950 . S
H873 C849 0.949 . S
H874 C851 0.950 . S
H875 C853 0.950 . S
C876 C877 1.349 . S
C876 C878 1.327 . S
C876 H901 0.950 . S
C877 C876 1.349 . S
C877 C893 1.349 . S
C878 C876 1.327 . S
C878 C897 1.429 . S
C878 H902 0.950 . S
C879 C896 1.574 . S
C879 C898 1.368 . S
C879 H903 0.949 . S
H880 C884 0.949 . S
C881 C882 1.349 . S
C881 C883 1.327 . S
C881 H904 0.950 . S
C882 C881 1.349 . S
C882 C894 1.349 . S
C883 C881 1.327 . S
C883 C899 1.429 . S
C883 H905 0.950 . S
C884 H880 0.949 . S
C884 C892 1.574 . S
C884 C900 1.368 . S
H885 C893 0.950 . S
H886 C891 0.950 . S
H887 C892 0.949 . S
H888 C894 0.950 . S
H889 C895 0.950 . S
H890 C896 0.949 . S
C891 H886 0.950 . S
C891 C893 1.327 . S
C891 C897 1.429 . S
C892 C884 1.574 . S
C892 H887 0.949 . S
C892 C898 1.368 . S
C893 C877 1.349 . S
C893 H885 0.950 . S
C893 C891 1.327 . S
C894 C882 1.349 . S
C894 H888 0.950 . S
C894 C895 1.327 . S
C895 H889 0.950 . S
C895 C894 1.327 . S
C895 C899 1.429 . S
C896 C879 1.574 . S
C896 H890 0.949 . S
C896 C900 1.368 . S
C897 C878 1.429 . S
C897 C891 1.429 . S
C897 C898 1.523 . S
C898 C879 1.368 . S
C898 C892 1.368 . S
C898 C897 1.523 . S
C899 C883 1.429 . S
C899 C895 1.429 . S
C899 C900 1.523 . S
C900 C884 1.368 . S
C900 C896 1.368 . S
C900 C899 1.523 . S
H901 C876 0.950 . S
H902 C878 0.950 . S
H903 C879 0.949 . S
H904 C881 0.950 . S
H905 C883 0.950 . S
C187 C14 1.506 . S
C192 C109 1.555 . S
C217 C25 1.508 . S
C222 C122 1.559 . S
C252 C144 1.526 . S
C247 C43 1.503 . S
C282 C157 1.526 . S
C277 C62 1.507 . S
C312 C170 1.521 . S
C307 C80 1.501 . S
C342 C183 1.526 . S
C337 C97 1.501 . S
C367 C32 1.505 . S
C372 C139 1.519 . S
C397 C50 1.505 . S
C402 C152 1.519 . S
C432 C165 1.515 . S
C427 C70 1.496 . S
C462 C178 1.520 . S
C457 C88 1.501 . S
C487 C104 1.506 . S
C492 C111 1.555 . S
C522 C124 1.558 . S
C517 C7 1.505 . S
C552 C150 1.509 . S
C547 C8 1.500 . S
C577 C34 1.496 . S
C582 C163 1.512 . S
C612 C176 1.513 . S
C607 C52 1.497 . S
C637 C68 1.505 . S
C642 C113 1.554 . S
C667 C86 1.506 . S
C672 C126 1.554 . S
C697 C106 1.502 . S
C702 C137 1.517 . S
C727 C26 1.508 . S
C732 C174 1.526 . S
C762 C118 1.560 . S
C757 C44 1.514 . S
C787 C61 1.508 . S
C792 C131 1.561 . S
C817 C79 1.507 . S
C822 C135 1.532 . S
C847 C98 1.507 . S
C852 C148 1.525 . S
C877 C16 1.502 . S
C882 C161 1.527 . S
