# Generated by pormake.
# Topology ssa, (4,4)-cn, num edge types: 1
# Building blocks:
#     Node 0, Type 0, BuildingBlock: NAWXER_clean_sbu_0, # of connection points: 4
#     Node 1, Type 0, BuildingBlock: NAWXER_clean_sbu_0, # of connection points: 4
#     Node 2, Type 0, BuildingBlock: NAWXER_clean_sbu_0, # of connection points: 4
#     Node 3, Type 0, BuildingBlock: NAWXER_clean_sbu_0, # of connection points: 4
#     Node 4, Type 0, BuildingBlock: NAWXER_clean_sbu_0, # of connection points: 4
#     Node 5, Type 0, BuildingBlock: NAWXER_clean_sbu_0, # of connection points: 4
#     Node 6, Type 1, BuildingBlock: NAWXER_clean_linker_0, # of connection points: 4
#     Node 7, Type 1, BuildingBlock: NAWXER_clean_linker_0, # of connection points: 4
#     Node 8, Type 1, BuildingBlock: NAWXER_clean_linker_0, # of connection points: 4
#     Node 9, Type 1, BuildingBlock: NAWXER_clean_linker_0, # of connection points: 4
#     Node 10, Type 1, BuildingBlock: NAWXER_clean_linker_0, # of connection points: 4
#     Node 11, Type 1, BuildingBlock: NAWXER_clean_linker_0, # of connection points: 4
#     Edge 12, Type (0, 1), BuildingBlock: UVAHIK_clean_linker_0, # of connection points: 2
#     Edge 13, Type (0, 1), BuildingBlock: UVAHIK_clean_linker_0, # of connection points: 2
#     Edge 14, Type (0, 1), BuildingBlock: UVAHIK_clean_linker_0, # of connection points: 2
#     Edge 15, Type (0, 1), BuildingBlock: UVAHIK_clean_linker_0, # of connection points: 2
#     Edge 16, Type (0, 1), BuildingBlock: UVAHIK_clean_linker_0, # of connection points: 2
#     Edge 17, Type (0, 1), BuildingBlock: UVAHIK_clean_linker_0, # of connection points: 2
#     Edge 18, Type (0, 1), BuildingBlock: UVAHIK_clean_linker_0, # of connection points: 2
#     Edge 19, Type (0, 1), BuildingBlock: UVAHIK_clean_linker_0, # of connection points: 2
#     Edge 20, Type (0, 1), BuildingBlock: UVAHIK_clean_linker_0, # of connection points: 2
#     Edge 21, Type (0, 1), BuildingBlock: UVAHIK_clean_linker_0, # of connection points: 2
#     Edge 22, Type (0, 1), BuildingBlock: UVAHIK_clean_linker_0, # of connection points: 2
#     Edge 23, Type (0, 1), BuildingBlock: UVAHIK_clean_linker_0, # of connection points: 2
#     Edge 24, Type (0, 1), BuildingBlock: UVAHIK_clean_linker_0, # of connection points: 2
#     Edge 25, Type (0, 1), BuildingBlock: UVAHIK_clean_linker_0, # of connection points: 2
#     Edge 26, Type (0, 1), BuildingBlock: UVAHIK_clean_linker_0, # of connection points: 2
#     Edge 27, Type (0, 1), BuildingBlock: UVAHIK_clean_linker_0, # of connection points: 2
#     Edge 28, Type (0, 1), BuildingBlock: UVAHIK_clean_linker_0, # of connection points: 2
#     Edge 29, Type (0, 1), BuildingBlock: UVAHIK_clean_linker_0, # of connection points: 2
#     Edge 30, Type (0, 1), BuildingBlock: UVAHIK_clean_linker_0, # of connection points: 2
#     Edge 31, Type (0, 1), BuildingBlock: UVAHIK_clean_linker_0, # of connection points: 2
#     Edge 32, Type (0, 1), BuildingBlock: UVAHIK_clean_linker_0, # of connection points: 2
#     Edge 33, Type (0, 1), BuildingBlock: UVAHIK_clean_linker_0, # of connection points: 2
#     Edge 34, Type (0, 1), BuildingBlock: UVAHIK_clean_linker_0, # of connection points: 2
#     Edge 35, Type (0, 1), BuildingBlock: UVAHIK_clean_linker_0, # of connection points: 2
# Relax obj value: 0.014
# Max RMSD: 0.030
# Mean RMSD: 0.028
data_MOF--net-ssa--node1-NAWXER_clean_sbu_0--node2-NAWXER_clean_linker_0--edge1-UVAHIK_clean_linker_0
_symmetry_space_group_name_H-M    P1
_symmetry_Int_Tables_number       1
_symmetry_cell_setting            triclinic
loop_
_symmetry_equiv_pos_as_xyz
'x, y, z'
_cell_length_a     71.27488
_cell_length_b     71.295832
_cell_length_c     49.399654
_cell_angle_alpha  90.115497
_cell_angle_beta   89.919083
_cell_angle_gamma 120.01748
loop_
_atom_site_label
_atom_site_type_symbol
_atom_site_fract_x
_atom_site_fract_y
_atom_site_fract_z
_atom_type_partial_charge
C0 C 0.03188 0.53759 0.012 0.0
C1 C 0.99401 0.46967 0.9618 0.0
O2 O 0.01425 0.52361 0.02355 0.0
Zn3 Zn 0.98874 0.4909 0.0168 0.0
O4 O 0.03763 0.53283 0.98986 0.0
Zn5 Zn 0.01311 0.50397 0.98621 0.0
O6 O 0.98651 0.50952 0.98037 0.0
O7 O 0.96318 0.49365 0.01374 0.0
O8 O 0.01121 0.48681 0.95481 0.0
O9 O 0.98453 0.46942 0.98399 0.0
O10 O 0.99176 0.47573 0.04756 0.0
O11 O 0.01863 0.4871 0.01819 0.0
C12 C 0.96857 0.50469 0.99204 0.0
C13 C 0.00953 0.47716 0.04018 0.0
C14 C 0.4797 0.00986 0.54118 0.0
C15 C 0.50777 0.9692 0.49335 0.0
O16 O 0.47744 0.99157 0.54748 0.0
Zn17 Zn 0.49332 0.9892 0.51731 0.0
O18 O 0.49041 0.01963 0.51985 0.0
Zn19 Zn 0.50797 0.01425 0.4881 0.0
O20 O 0.49241 0.01364 0.45586 0.0
O21 O 0.47329 0.98611 0.48322 0.0
O22 O 0.51325 0.98741 0.48206 0.0
O23 O 0.49589 0.96356 0.51436 0.0
O24 O 0.52584 0.01426 0.52634 0.0
O25 O 0.53711 0.03803 0.49302 0.0
C26 C 0.47483 0.99636 0.46126 0.0
C27 C 0.54065 0.03185 0.5156 0.0
C28 C 0.46513 0.46648 0.96607 0.0
C29 C 0.49704 0.53388 0.01764 0.0
O30 O 0.46434 0.48351 0.96074 0.0
Zn31 Zn 0.4807 0.50018 0.99167 0.0
O32 O 0.47524 0.46592 0.98727 0.0
Zn33 Zn 0.4935 0.48716 0.02009 0.0
O34 O 0.47702 0.47191 0.05172 0.0
O35 O 0.45971 0.48304 0.02505 0.0
O36 O 0.50079 0.51965 0.02813 0.0
O37 O 0.48579 0.52934 0.99616 0.0
O38 O 0.51249 0.50567 0.98268 0.0
O39 O 0.52208 0.49084 0.01499 0.0
C40 C 0.46025 0.47319 0.04649 0.0
C41 C 0.52644 0.50142 0.99298 0.0
C42 C 0.03264 0.54299 0.48361 0.0
C43 C 0.99342 0.47819 0.53914 0.0
O44 O 0.03905 0.53836 0.50525 0.0
Zn45 Zn 0.01339 0.51058 0.51183 0.0
O46 O 0.01373 0.52977 0.47435 0.0
Zn47 Zn 0.98661 0.49904 0.48471 0.0
O48 O 0.96385 0.50578 0.49088 0.0
O49 O 0.98922 0.51893 0.52235 0.0
O50 O 0.98245 0.47845 0.51871 0.0
O51 O 0.01266 0.49369 0.54278 0.0
O52 O 0.01354 0.49086 0.47926 0.0
O53 O 0.98466 0.48128 0.45386 0.0
C54 C 0.97123 0.51612 0.51293 0.0
C55 C 0.00188 0.48071 0.4587 0.0
C56 C 0.53075 0.99795 0.03195 0.0
C57 C 0.50342 0.03805 0.98198 0.0
O58 O 0.53311 0.01637 0.03792 0.0
Zn59 Zn 0.51819 0.01882 0.00672 0.0
O60 O 0.52065 0.98829 0.01023 0.0
Zn61 Zn 0.50434 0.99364 0.97718 0.0
O62 O 0.52122 0.9948 0.94578 0.0
O63 O 0.5393 0.02198 0.97407 0.0
O64 O 0.49844 0.01988 0.97091 0.0
O65 O 0.51535 0.04429 0.00293 0.0
O66 O 0.48543 0.99355 0.01436 0.0
O67 O 0.47511 0.96966 0.9811 0.0
C68 C 0.5386 0.01196 0.95218 0.0
C69 C 0.47093 0.97591 0.00329 0.0
C70 C 0.53107 0.52718 0.54128 0.0
C71 C 0.46395 0.498 0.48977 0.0
O72 O 0.51412 0.52795 0.54732 0.0
Zn73 Zn 0.4974 0.51265 0.51595 0.0
O74 O 0.53149 0.51756 0.51949 0.0
Zn75 Zn 0.51014 0.50037 0.48624 0.0
O76 O 0.52583 0.5177 0.45531 0.0
O77 O 0.51511 0.5345 0.48364 0.0
O78 O 0.47793 0.49416 0.47859 0.0
O79 O 0.46859 0.50845 0.51194 0.0
O80 O 0.49124 0.48046 0.52297 0.0
O81 O 0.50588 0.47145 0.48969 0.0
C82 C 0.52502 0.53452 0.46193 0.0
C83 C 0.49519 0.4666 0.51168 0.0
C84 C 0.2781 0.4348 0.23191 0.0
C85 C 0.27568 0.41935 0.21244 0.0
C86 C 0.25998 0.43317 0.24512 0.0
C87 C 0.23915 0.41574 0.23961 0.0
C88 C 0.25482 0.40206 0.20675 0.0
C89 C 0.23675 0.4003 0.22018 0.0
C90 C 0.21964 0.41422 0.25246 0.0
C91 C 0.26126 0.41222 0.31952 0.0
C92 C 0.269 0.43028 0.33683 0.0
C93 C 0.24434 0.40742 0.30144 0.0
C94 C 0.235 0.42069 0.3003 0.0
C95 C 0.2591 0.44307 0.33619 0.0
C96 C 0.2422 0.43825 0.31821 0.0
C97 C 0.21777 0.41666 0.2806 0.0
C98 C 0.13611 0.40288 0.31859 0.0
C99 C 0.13035 0.41784 0.30882 0.0
C100 C 0.15343 0.40171 0.30715 0.0
C101 C 0.16516 0.4153 0.28558 0.0
C102 C 0.14234 0.43164 0.28741 0.0
C103 C 0.1597 0.43049 0.27605 0.0
C104 C 0.18335 0.41379 0.27351 0.0
C105 C 0.15936 0.42386 0.18725 0.0
C106 C 0.13713 0.41003 0.19216 0.0
C107 C 0.17486 0.42326 0.20389 0.0
C108 C 0.16845 0.40897 0.22587 0.0
C109 C 0.13077 0.39485 0.21328 0.0
C110 C 0.14631 0.39421 0.22987 0.0
C111 C 0.18496 0.41085 0.24551 0.0
H112 H 0.29394 0.44853 0.2363 0.0
H113 H 0.26225 0.44579 0.25922 0.0
H114 H 0.25249 0.38988 0.1919 0.0
H115 H 0.22084 0.38686 0.21535 0.0
H116 H 0.2686 0.40209 0.31952 0.0
H117 H 0.23873 0.39352 0.28817 0.0
H118 H 0.26445 0.45686 0.3496 0.0
H119 H 0.23507 0.44857 0.31787 0.0
H120 H 0.12711 0.39195 0.33495 0.0
H121 H 0.1575 0.38998 0.3149 0.0
H122 H 0.13861 0.44364 0.27981 0.0
H123 H 0.16891 0.44155 0.25989 0.0
H124 H 0.16482 0.43587 0.17131 0.0
H125 H 0.19185 0.43474 0.20039 0.0
H126 H 0.11378 0.38373 0.21725 0.0
H127 H 0.14102 0.38268 0.24636 0.0
N128 N 0.20309 0.41131 0.23603 0.0
N129 N 0.19973 0.41644 0.28999 0.0
C130 C 0.8733 0.26642 0.78895 0.0
C131 C 0.86762 0.27562 0.81038 0.0
C132 C 0.85727 0.24944 0.77373 0.0
C133 C 0.83526 0.24149 0.77948 0.0
C134 C 0.84557 0.26689 0.81689 0.0
C135 C 0.82956 0.24992 0.80164 0.0
C136 C 0.81813 0.22529 0.76164 0.0
C137 C 0.85149 0.2871 0.71466 0.0
C138 C 0.86503 0.28674 0.69422 0.0
C139 C 0.8364 0.26798 0.72735 0.0
C140 C 0.83456 0.24814 0.71986 0.0
C141 C 0.86319 0.26685 0.68672 0.0
C142 C 0.84786 0.24762 0.69927 0.0
C143 C 0.81842 0.228 0.73334 0.0
C144 C 0.72791 0.16332 0.70071 0.0
C145 C 0.73175 0.15585 0.67614 0.0
C146 C 0.74502 0.17604 0.71817 0.0
C147 C 0.76625 0.18105 0.71175 0.0
C148 C 0.75304 0.16131 0.6694 0.0
C149 C 0.77014 0.17382 0.68706 0.0
C150 C 0.78463 0.19516 0.72965 0.0
C151 C 0.74002 0.13569 0.77722 0.0
C152 C 0.73074 0.14001 0.79982 0.0
C153 C 0.75773 0.15257 0.76385 0.0
C154 C 0.76625 0.17409 0.77258 0.0
C155 C 0.73973 0.16151 0.80892 0.0
C156 C 0.75734 0.17833 0.79552 0.0
C157 C 0.78431 0.1924 0.75807 0.0
H158 H 0.89014 0.27248 0.78378 0.0
H159 H 0.86206 0.2428 0.75713 0.0
H160 H 0.84063 0.27371 0.83313 0.0
H161 H 0.81268 0.24399 0.80646 0.0
H162 H 0.85265 0.30222 0.7209 0.0
H163 H 0.82607 0.26866 0.74297 0.0
H164 H 0.8733 0.26614 0.67083 0.0
H165 H 0.84653 0.23241 0.69313 0.0
H166 H 0.71171 0.15973 0.70613 0.0
H167 H 0.74168 0.18221 0.73649 0.0
H168 H 0.75643 0.15574 0.65059 0.0
H169 H 0.78643 0.1778 0.68147 0.0
H170 H 0.73369 0.11927 0.77 0.0
H171 H 0.76468 0.14881 0.74661 0.0
H172 H 0.73283 0.16544 0.82606 0.0
H173 H 0.76366 0.19479 0.80269 0.0
N174 N 0.80103 0.20769 0.77298 0.0
N175 N 0.80177 0.2128 0.71838 0.0
C176 C 0.58846 0.73689 0.19065 0.0
C177 C 0.57062 0.72816 0.1729 0.0
C178 C 0.59124 0.75262 0.20973 0.0
C179 C 0.57609 0.75968 0.21158 0.0
C180 C 0.55582 0.73571 0.17444 0.0
C181 C 0.5586 0.75136 0.19347 0.0
C182 C 0.57811 0.77584 0.23196 0.0
C183 C 0.56671 0.71727 0.2796 0.0
C184 C 0.58289 0.72117 0.29865 0.0
C185 C 0.56645 0.7345 0.26658 0.0
C186 C 0.58265 0.75595 0.2719 0.0
C187 C 0.59913 0.74264 0.30389 0.0
C188 C 0.59897 0.75987 0.29068 0.0
C189 C 0.58157 0.77436 0.25986 0.0
C190 C 0.5511 0.82952 0.30998 0.0
C191 C 0.56693 0.84149 0.32954 0.0
C192 C 0.55514 0.81832 0.28976 0.0
C193 C 0.57504 0.81875 0.28883 0.0
C194 C 0.58693 0.84208 0.32849 0.0
C195 C 0.59084 0.83052 0.30847 0.0
C196 C 0.57857 0.80573 0.26833 0.0
C197 C 0.58398 0.86277 0.22193 0.0
C198 C 0.56821 0.85723 0.20169 0.0
C199 C 0.58613 0.84663 0.23523 0.0
C200 C 0.57242 0.8247 0.22863 0.0
C201 C 0.55417 0.83524 0.19571 0.0
C202 C 0.55635 0.81918 0.20891 0.0
C203 C 0.57562 0.80747 0.24043 0.0
H204 H 0.60032 0.73164 0.1897 0.0
H205 H 0.60518 0.75921 0.22304 0.0
H206 H 0.54174 0.72913 0.16139 0.0
H207 H 0.54673 0.7566 0.19445 0.0
H208 H 0.5537 0.70094 0.27561 0.0
H209 H 0.55321 0.73105 0.25296 0.0
H210 H 0.61182 0.74612 0.31845 0.0
H211 H 0.61146 0.7763 0.29534 0.0
H212 H 0.5356 0.82892 0.31027 0.0
H213 H 0.54256 0.80899 0.2751 0.0
H214 H 0.59932 0.85111 0.34347 0.0
H215 H 0.60618 0.83082 0.30823 0.0
H216 H 0.59516 0.87959 0.22678 0.0
H217 H 0.59898 0.85134 0.24994 0.0
H218 H 0.54159 0.83041 0.18059 0.0
H219 H 0.54556 0.80238 0.20352 0.0
N220 N 0.57534 0.79236 0.22341 0.0
N221 N 0.58167 0.78939 0.27698 0.0
C222 C 0.8474 0.57804 0.71081 0.0
C223 C 0.83897 0.56244 0.68999 0.0
C224 C 0.83353 0.58039 0.7288 0.0
C225 C 0.81099 0.56717 0.72634 0.0
C226 C 0.81636 0.54923 0.68772 0.0
C227 C 0.80254 0.55169 0.70556 0.0
C228 C 0.79592 0.56992 0.74431 0.0
C229 C 0.82703 0.5434 0.80111 0.0
C230 C 0.8398 0.55816 0.82134 0.0
C231 C 0.81401 0.54792 0.78435 0.0
C232 C 0.81344 0.56718 0.78773 0.0
C233 C 0.83969 0.57772 0.82413 0.0
C234 C 0.8264 0.58206 0.80766 0.0
C235 C 0.79753 0.57065 0.77279 0.0
C236 C 0.71028 0.55446 0.80681 0.0
C237 C 0.71576 0.56652 0.83092 0.0
C238 C 0.72639 0.55688 0.78871 0.0
C239 C 0.74827 0.57189 0.79396 0.0
C240 C 0.73765 0.58129 0.83642 0.0
C241 C 0.75376 0.58395 0.81807 0.0
C242 C 0.76558 0.5734 0.77587 0.0
C243 C 0.7251 0.59175 0.72491 0.0
C244 C 0.71478 0.57775 0.70295 0.0
C245 C 0.7414 0.59061 0.7393 0.0
C246 C 0.74738 0.5752 0.73226 0.0
C247 C 0.72112 0.56265 0.69569 0.0
C248 C 0.73729 0.56146 0.71011 0.0
C249 C 0.7644 0.57345 0.74729 0.0
H250 H 0.86471 0.58874 0.71289 0.0
H251 H 0.84042 0.59282 0.74426 0.0
H252 H 0.80927 0.53679 0.67229 0.0
H253 H 0.78519 0.54134 0.70325 0.0
H254 H 0.82689 0.52824 0.79853 0.0
H255 H 0.80378 0.53601 0.76946 0.0
H256 H 0.84924 0.58925 0.83974 0.0
H257 H 0.82594 0.59688 0.81078 0.0
H258 H 0.69357 0.54261 0.80237 0.0
H259 H 0.7217 0.54657 0.77098 0.0
H260 H 0.74229 0.59077 0.85489 0.0
H261 H 0.77055 0.59533 0.82282 0.0
H262 H 0.72078 0.60376 0.73073 0.0
H263 H 0.74936 0.60182 0.75584 0.0
H264 H 0.71329 0.55145 0.6791 0.0
H265 H 0.74166 0.5495 0.70422 0.0
N266 N 0.77948 0.57144 0.7327 0.0
N267 N 0.78229 0.57232 0.78744 0.0
C268 C 0.17513 0.71834 0.20206 0.0
C269 C 0.16146 0.72021 0.18314 0.0
C270 C 0.18878 0.73591 0.21845 0.0
C271 C 0.18909 0.75567 0.21604 0.0
C272 C 0.16126 0.73977 0.18139 0.0
C273 C 0.17518 0.75746 0.19749 0.0
C274 C 0.20568 0.7751 0.23034 0.0
C275 C 0.15858 0.73287 0.29448 0.0
C276 C 0.16767 0.72526 0.31384 0.0
C277 C 0.17183 0.74919 0.27629 0.0
C278 C 0.19442 0.7582 0.27708 0.0
C279 C 0.19032 0.7344 0.31453 0.0
C280 C 0.20353 0.7508 0.29649 0.0
C281 C 0.2088 0.77593 0.25861 0.0
C282 C 0.28191 0.86798 0.2754 0.0
C283 C 0.29454 0.86402 0.29384 0.0
C284 C 0.26409 0.85072 0.26268 0.0
C285 C 0.25866 0.82925 0.26817 0.0
C286 C 0.28867 0.8425 0.29981 0.0
C287 C 0.27083 0.8253 0.28723 0.0
C288 C 0.24044 0.81074 0.25418 0.0
C289 C 0.29117 0.84595 0.19086 0.0
C290 C 0.2845 0.85292 0.16816 0.0
C291 C 0.27603 0.8321 0.20973 0.0
C292 C 0.25396 0.82547 0.20677 0.0
C293 C 0.26241 0.84596 0.16481 0.0
C294 C 0.24727 0.83237 0.184 0.0
C295 C 0.23762 0.80965 0.22578 0.0
H296 H 0.17552 0.70339 0.2038 0.0
H297 H 0.19972 0.73432 0.23223 0.0
H298 H 0.15099 0.74165 0.16679 0.0
H299 H 0.17542 0.77268 0.1951 0.0
H300 H 0.14125 0.72651 0.29368 0.0
H301 H 0.16445 0.75503 0.26194 0.0
H302 H 0.19788 0.72873 0.32882 0.0
H303 H 0.22093 0.75755 0.29749 0.0
H304 H 0.28604 0.8844 0.27045 0.0
H305 H 0.25466 0.85414 0.24842 0.0
H306 H 0.29785 0.83895 0.31431 0.0
H307 H 0.26681 0.80887 0.29196 0.0
H308 H 0.30806 0.85069 0.19356 0.0
H309 H 0.28158 0.82617 0.22626 0.0
H310 H 0.25688 0.85108 0.14741 0.0
H311 H 0.23029 0.82713 0.18098 0.0
N312 N 0.22019 0.79198 0.21504 0.0
N313 N 0.22605 0.79373 0.26943 0.0
C314 C 0.42106 0.15329 0.80497 0.0
C315 C 0.43614 0.16335 0.82608 0.0
C316 C 0.41712 0.16568 0.78634 0.0
C317 C 0.42872 0.1884 0.78791 0.0
C318 C 0.44668 0.18604 0.82845 0.0
C319 C 0.4431 0.19838 0.80954 0.0
C320 C 0.42601 0.20225 0.76777 0.0
C321 C 0.44599 0.16106 0.71971 0.0
C322 C 0.43114 0.14858 0.69939 0.0
C323 C 0.44428 0.17755 0.73281 0.0
C324 C 0.42733 0.18144 0.72633 0.0
C325 C 0.41445 0.15278 0.69261 0.0
C326 C 0.4126 0.16908 0.70593 0.0
C327 C 0.42548 0.19913 0.73942 0.0
C328 C 0.44375 0.28537 0.69737 0.0
C329 C 0.43154 0.27892 0.67341 0.0
C330 C 0.44125 0.27005 0.71669 0.0
C331 C 0.42601 0.24802 0.71281 0.0
C332 C 0.41672 0.25686 0.66912 0.0
C333 C 0.41397 0.24153 0.6887 0.0
C334 C 0.42398 0.23155 0.73263 0.0
C335 C 0.40671 0.2754 0.77932 0.0
C336 C 0.42036 0.28595 0.80148 0.0
C337 C 0.40774 0.25862 0.76589 0.0
C338 C 0.4227 0.25238 0.77413 0.0
C339 C 0.43524 0.2796 0.80964 0.0
C340 C 0.43633 0.26297 0.79619 0.0
C341 C 0.42377 0.23425 0.76096 0.0
H342 H 0.41261 0.13588 0.8024 0.0
H343 H 0.40524 0.15748 0.77055 0.0
H344 H 0.45785 0.19437 0.84488 0.0
H345 H 0.45193 0.21585 0.8116 0.0
H346 H 0.45924 0.15843 0.72498 0.0
H347 H 0.4563 0.18737 0.7478 0.0
H348 H 0.40276 0.14338 0.67708 0.0
H349 H 0.39957 0.17199 0.70035 0.0
H350 H 0.45562 0.30223 0.70087 0.0
H351 H 0.45158 0.27544 0.7344 0.0
H352 H 0.40717 0.2515 0.65075 0.0
H353 H 0.40243 0.2246 0.685 0.0
H354 H 0.39491 0.27978 0.77278 0.0
H355 H 0.39665 0.25034 0.74936 0.0
H356 H 0.4462 0.28761 0.82638 0.0
H357 H 0.44798 0.25844 0.80298 0.0
N358 N 0.42504 0.21963 0.77727 0.0
N359 N 0.42445 0.2139 0.72304 0.0
C360 C 0.03749 0.46623 0.04531 0.0
C361 C 0.02007 0.46761 0.05644 0.0
C362 C 0.04836 0.45821 0.06052 0.0
C363 C 0.04468 0.42634 0.12119 0.0
H364 H 0.10724 0.45688 0.11353 0.0
C365 C 0.10318 0.41237 0.18938 0.0
C366 C 0.12082 0.41252 0.17633 0.0
C367 C 0.08924 0.41721 0.17501 0.0
C368 C 0.08976 0.44802 0.11566 0.0
H369 H 3e-05 0.46113 0.09214 0.0
H370 H 0.01941 0.44736 0.1191 0.0
H371 H 0.08614 0.46937 0.08878 0.0
H372 H 0.13684 0.41656 0.13767 0.0
H373 H 0.1126 0.42511 0.11267 0.0
H374 H 0.04857 0.40514 0.1485 0.0
C375 C 0.02445 0.45232 0.0984 0.0
C376 C 0.07765 0.45517 0.10148 0.0
C377 C 0.01342 0.46028 0.08303 0.0
C378 C 0.12365 0.41671 0.1484 0.0
C379 C 0.10978 0.42161 0.1341 0.0
C380 C 0.05688 0.41922 0.13556 0.0
C381 C 0.04225 0.45151 0.08739 0.0
C382 C 0.05495 0.44427 0.10375 0.0
C383 C 0.09273 0.42239 0.14736 0.0
C384 C 0.07953 0.42985 0.13265 0.0
H385 H 0.04287 0.47143 0.02475 0.0
H386 H 0.06163 0.4573 0.05116 0.0
H387 H 0.02721 0.41752 0.12325 0.0
H388 H 0.10069 0.40945 0.21095 0.0
H389 H 0.07632 0.41783 0.1858 0.0
C390 C 0.564 0.03917 0.55633 0.0
C391 C 0.56156 0.04473 0.52982 0.0
C392 C 0.58356 0.05111 0.57009 0.0
C393 C 0.634 0.10421 0.5708 0.0
H394 H 0.65316 0.07426 0.61905 0.0
C395 C 0.71521 0.14757 0.62978 0.0
C396 C 0.71355 0.14265 0.65752 0.0
C397 C 0.69771 0.13552 0.61244 0.0
C398 C 0.64796 0.08284 0.60571 0.0
H399 H 0.57784 0.06717 0.49688 0.0
H400 H 0.61228 0.08788 0.52081 0.0
H401 H 0.62091 0.05344 0.59142 0.0
H402 H 0.69256 0.12102 0.68879 0.0
H403 H 0.66204 0.09988 0.65849 0.0
H404 H 0.66124 0.13363 0.58518 0.0
C405 C 0.59888 0.07444 0.53109 0.0
C406 C 0.62946 0.07094 0.58994 0.0
C407 C 0.57919 0.06253 0.51733 0.0
C408 C 0.69421 0.12525 0.66752 0.0
C409 C 0.67684 0.11306 0.65016 0.0
C410 C 0.65266 0.11611 0.58643 0.0
C411 C 0.60129 0.06883 0.55764 0.0
C412 C 0.622 0.08149 0.57267 0.0
C413 C 0.67836 0.11815 0.62248 0.0
C414 C 0.65959 0.10554 0.60438 0.0
H415 H 0.55071 0.02566 0.56667 0.0
H416 H 0.58464 0.0466 0.5907 0.0
H417 H 0.62861 0.11288 0.55795 0.0
H418 H 0.72989 0.16101 0.6216 0.0
H419 H 0.69934 0.13971 0.59117 0.0
C420 C 0.51774 0.55959 0.05501 0.0
C421 C 0.50608 0.5554 0.03069 0.0
C422 C 0.52648 0.57977 0.06757 0.0
C423 C 0.52075 0.62817 0.07197 0.0
H424 H 0.5766 0.65269 0.10765 0.0
C425 C 0.55892 0.71044 0.12728 0.0
C426 C 0.56686 0.71071 0.15342 0.0
C427 C 0.55347 0.69302 0.10982 0.0
C428 C 0.56095 0.64601 0.09787 0.0
H429 H 0.49456 0.56922 0.00039 0.0
H430 H 0.51004 0.60468 0.02232 0.0
H431 H 0.56317 0.61944 0.08133 0.0
H432 H 0.57577 0.69309 0.18143 0.0
H433 H 0.56643 0.66278 0.15086 0.0
H434 H 0.51845 0.65464 0.08878 0.0
C435 C 0.5122 0.59219 0.03177 0.0
C436 C 0.55323 0.62695 0.08282 0.0
C437 C 0.50339 0.57191 0.01917 0.0
C438 C 0.56996 0.69353 0.16132 0.0
C439 C 0.56458 0.67614 0.14381 0.0
C440 C 0.52851 0.64729 0.08694 0.0
C441 C 0.52387 0.59634 0.05612 0.0
C442 C 0.53287 0.6176 0.07008 0.0
C443 C 0.55593 0.67553 0.11804 0.0
C444 C 0.54854 0.65622 0.1004 0.0
H445 H 0.52007 0.54724 0.06454 0.0
H446 H 0.53499 0.58224 0.08656 0.0
H447 H 0.5049 0.62128 0.06269 0.0
H448 H 0.55673 0.72362 0.12037 0.0
H449 H 0.54718 0.69317 0.08992 0.0
C450 C 0.93882 0.52088 0.51947 0.0
C451 C 0.9587 0.52373 0.52888 0.0
C452 C 0.9264 0.52663 0.5358 0.0
C453 C 0.91698 0.53292 0.60726 0.0
H454 H 0.88964 0.56459 0.58082 0.0
C455 C 0.87308 0.56155 0.67968 0.0
C456 C 0.85358 0.55985 0.67071 0.0
C457 C 0.8864 0.55834 0.66174 0.0
C458 C 0.89695 0.55551 0.58845 0.0
H459 H 0.9814 0.53549 0.56248 0.0
H460 H 0.95975 0.54537 0.59075 0.0
H461 H 0.91167 0.55659 0.55013 0.0
H462 H 0.83321 0.55413 0.6355 0.0
H463 H 0.85596 0.54773 0.60452 0.0
H464 H 0.90203 0.53133 0.64533 0.0
C465 C 0.95368 0.53854 0.57091 0.0
C466 C 0.90959 0.55098 0.57086 0.0
C467 C 0.96613 0.53297 0.5546 0.0
C468 C 0.84792 0.55521 0.64324 0.0
C469 C 0.86115 0.55184 0.62535 0.0
C470 C 0.90423 0.53726 0.62474 0.0
C471 C 0.93356 0.53514 0.56188 0.0
C472 C 0.91983 0.53975 0.58016 0.0
C473 C 0.88048 0.55319 0.63441 0.0
C474 C 0.89413 0.54871 0.61563 0.0
H475 H 0.93266 0.51382 0.49976 0.0
H476 H 0.91089 0.52377 0.52837 0.0
H477 H 0.92438 0.5239 0.61487 0.0
H478 H 0.87789 0.56493 0.70072 0.0
H479 H 0.90134 0.55986 0.66935 0.0
C480 C 0.44643 0.96926 0.04263 0.0
C481 C 0.44961 0.96322 0.01668 0.0
C482 C 0.42649 0.95765 0.05562 0.0
C483 C 0.37635 0.90455 0.05656 0.0
H484 H 0.35668 0.93533 0.10282 0.0
C485 C 0.29745 0.86115 0.12015 0.0
C486 C 0.30064 0.86683 0.1477 0.0
C487 C 0.31361 0.87333 0.10119 0.0
C488 C 0.36196 0.92654 0.08994 0.0
H489 H 0.43422 0.94022 0.98395 0.0
H490 H 0.39908 0.91997 0.00662 0.0
H491 H 0.38858 0.95569 0.07443 0.0
H492 H 0.3227 0.89002 0.17696 0.0
H493 H 0.35081 0.91148 0.14383 0.0
H494 H 0.34967 0.87537 0.07236 0.0
C495 C 0.4122 0.93361 0.017 0.0
C496 C 0.38027 0.93816 0.07376 0.0
C497 C 0.4323 0.94523 0.00398 0.0
C498 C 0.31991 0.88527 0.15584 0.0
C499 C 0.3359 0.8976 0.13688 0.0
C500 C 0.35787 0.89291 0.07258 0.0
C501 C 0.40908 0.93974 0.04297 0.0
C502 C 0.38806 0.92732 0.05745 0.0
C503 C 0.33304 0.89158 0.10944 0.0
C504 C 0.35085 0.90381 0.08993 0.0
H505 H 0.45944 0.98293 0.05313 0.0
H506 H 0.42487 0.96254 0.07586 0.0
H507 H 0.38198 0.89568 0.04442 0.0
H508 H 0.28277 0.8469 0.11342 0.0
H509 H 0.311 0.86841 0.08014 0.0
C510 C 0.48901 0.42858 0.51171 0.0
C511 C 0.48707 0.44517 0.5245 0.0
C512 C 0.48088 0.40833 0.52414 0.0
C513 C 0.44285 0.37431 0.57831 0.0
H514 H 0.47737 0.34615 0.57974 0.0
C515 C 0.43452 0.31416 0.6607 0.0
C516 C 0.43465 0.29529 0.65288 0.0
C517 C 0.43856 0.33023 0.64175 0.0
C518 C 0.4674 0.35366 0.57914 0.0
H519 H 0.47535 0.45356 0.56054 0.0
H520 H 0.4617 0.41871 0.58223 0.0
H521 H 0.48924 0.37868 0.5523 0.0
H522 H 0.43893 0.27826 0.61922 0.0
H523 H 0.44636 0.30667 0.58595 0.0
H524 H 0.42152 0.34983 0.60604 0.0
C525 C 0.46897 0.42102 0.56236 0.0
C526 C 0.47416 0.37225 0.56341 0.0
C527 C 0.47699 0.44112 0.54997 0.0
C528 C 0.43862 0.29263 0.62567 0.0
C529 C 0.44299 0.30889 0.60674 0.0
C530 C 0.43621 0.35588 0.59416 0.0
C531 C 0.47067 0.40432 0.54958 0.0
C532 C 0.46224 0.3831 0.56339 0.0
C533 C 0.44307 0.32786 0.61466 0.0
C534 C 0.44868 0.34568 0.59522 0.0
H535 H 0.49666 0.43119 0.49205 0.0
H536 H 0.48236 0.39575 0.51372 0.0
H537 H 0.43299 0.38195 0.5782 0.0
H538 H 0.4314 0.31653 0.68154 0.0
H539 H 0.43874 0.3448 0.64845 0.0
C540 C 0.50414 0.9326 0.48677 0.0
C541 C 0.51516 0.95496 0.48147 0.0
C542 C 0.51043 0.91911 0.47389 0.0
C543 C 0.55575 0.91864 0.43908 0.0
H544 H 0.51135 0.87004 0.39869 0.0
C545 C 0.57667 0.87529 0.35564 0.0
C546 C 0.56236 0.85319 0.35095 0.0
C547 C 0.57147 0.88667 0.37446 0.0
C548 C 0.52394 0.88323 0.41027 0.0
H549 H 0.5419 0.98083 0.4594 0.0
H550 H 0.55307 0.95734 0.43738 0.0
H551 H 0.50134 0.89146 0.42733 0.0
H552 H 0.53197 0.82535 0.36303 0.0
H553 H 0.52321 0.8449 0.3966 0.0
H554 H 0.57838 0.91043 0.4223 0.0
C555 C 0.53951 0.95024 0.45132 0.0
C556 C 0.51815 0.89554 0.42663 0.0
C557 C 0.53301 0.96365 0.46379 0.0
C558 C 0.54314 0.84248 0.36606 0.0
C559 C 0.53809 0.85374 0.38517 0.0
C560 C 0.56152 0.90614 0.42303 0.0
C561 C 0.52811 0.92782 0.45593 0.0
C562 C 0.53404 0.91357 0.44082 0.0
C563 C 0.55198 0.87609 0.38929 0.0
C564 C 0.54574 0.88848 0.40803 0.0
H565 H 0.49031 0.92546 0.50027 0.0
H566 H 0.50143 0.90186 0.47783 0.0
H567 H 0.56828 0.93237 0.45004 0.0
H568 H 0.59152 0.88393 0.34406 0.0
H569 H 0.58244 0.9039 0.37669 0.0
C570 C 0.56454 0.5079 0.99143 0.0
C571 C 0.54744 0.50914 0.97908 0.0
C572 C 0.58447 0.51585 0.97814 0.0
C573 C 0.61668 0.55238 0.92178 0.0
H574 H 0.647 0.51992 0.92296 0.0
C575 C 0.67962 0.56242 0.84171 0.0
C576 C 0.69863 0.56304 0.85057 0.0
C577 C 0.66287 0.55789 0.85989 0.0
C578 C 0.63886 0.52931 0.92276 0.0
H579 H 0.53773 0.5193 0.94286 0.0
H580 H 0.57202 0.53259 0.91964 0.0
H581 H 0.61431 0.50768 0.95025 0.0
H582 H 0.71516 0.55958 0.88534 0.0
H583 H 0.68566 0.55143 0.9172 0.0
H584 H 0.6408 0.57354 0.89354 0.0
C585 C 0.57038 0.52605 0.93983 0.0
C586 C 0.62016 0.52234 0.93842 0.0
C587 C 0.5506 0.51825 0.95311 0.0
C588 C 0.70071 0.55935 0.87805 0.0
C589 C 0.68382 0.55453 0.8962 0.0
C590 C 0.63522 0.55922 0.90599 0.0
C591 C 0.58763 0.52513 0.95222 0.0
C592 C 0.60861 0.53356 0.93769 0.0
C593 C 0.66469 0.55365 0.88723 0.0
C594 C 0.64628 0.54755 0.90596 0.0
H595 H 0.56262 0.50102 0.01147 0.0
H596 H 0.59748 0.51502 0.98832 0.0
H597 H 0.6085 0.56172 0.92125 0.0
H598 H 0.67766 0.56531 0.82066 0.0
H599 H 0.64823 0.55712 0.85238 0.0
C600 C 0.04023 0.5666 0.4431 0.0
C601 C 0.04678 0.56319 0.46856 0.0
C602 C 0.05345 0.58533 0.42836 0.0
C603 C 0.11018 0.62947 0.42155 0.0
H604 H 0.0839 0.65553 0.37823 0.0
C605 C 0.16033 0.7084 0.36017 0.0
C606 C 0.15365 0.70787 0.33323 0.0
C607 C 0.14742 0.69179 0.37819 0.0
C608 C 0.09145 0.64836 0.39012 0.0
H609 H 0.07234 0.57692 0.49863 0.0
H610 H 0.09537 0.60995 0.47302 0.0
H611 H 0.06125 0.62504 0.40764 0.0
H612 H 0.12809 0.68931 0.30423 0.0
H613 H 0.10543 0.66057 0.33585 0.0
H614 H 0.14042 0.65296 0.40398 0.0
C615 C 0.08009 0.59792 0.4643 0.0
C616 C 0.07849 0.63086 0.40694 0.0
C617 C 0.06686 0.57905 0.47904 0.0
C618 C 0.1336 0.69045 0.32491 0.0
C619 C 0.12062 0.67395 0.343 0.0
C620 C 0.12318 0.64711 0.40486 0.0
C621 C 0.07354 0.60125 0.43875 0.0
C622 C 0.08763 0.62095 0.42253 0.0
C623 C 0.12745 0.67439 0.36978 0.0
C624 C 0.11389 0.65652 0.38868 0.0
H625 H 0.02494 0.55467 0.43429 0.0
H626 H 0.04805 0.5871 0.40854 0.0
H627 H 0.11774 0.62209 0.433 0.0
H628 H 0.17547 0.72176 0.36745 0.0
H629 H 0.15297 0.69268 0.39881 0.0
C630 C 0.4748 0.04081 0.95676 0.0
C631 C 0.49477 0.05117 0.9703 0.0
C632 C 0.46684 0.05287 0.94413 0.0
C633 C 0.47536 0.10879 0.93743 0.0
H634 H 0.4451 0.08568 0.86954 0.0
C635 C 0.46261 0.15892 0.85507 0.0
C636 C 0.44136 0.15045 0.84514 0.0
C637 C 0.46775 0.14686 0.87265 0.0
C638 C 0.45331 0.09219 0.88861 0.0
H639 H 0.52196 0.0822 0.98181 0.0
H640 H 0.50867 0.10349 0.95854 0.0
H641 H 0.45714 0.06483 0.89574 0.0
H642 H 0.40881 0.1226 0.84646 0.0
H643 H 0.41817 0.10118 0.87623 0.0
H644 H 0.47241 0.13674 0.92916 0.0
C645 C 0.49875 0.08601 0.95832 0.0
C646 C 0.46014 0.08023 0.90378 0.0
C647 C 0.50647 0.07386 0.97154 0.0
C648 C 0.42541 0.12954 0.85326 0.0
C649 C 0.43068 0.11732 0.87047 0.0
C650 C 0.46887 0.12094 0.92195 0.0
C651 C 0.47894 0.07564 0.94412 0.0
C652 C 0.47127 0.08834 0.92842 0.0
C653 C 0.45189 0.12591 0.88028 0.0
C654 C 0.45782 0.11272 0.89742 0.0
H655 H 0.46527 0.02328 0.95591 0.0
H656 H 0.45124 0.04425 0.9342 0.0
H657 H 0.48353 0.11544 0.95647 0.0
H658 H 0.47549 0.1747 0.84883 0.0
H659 H 0.4843 0.15367 0.87965 0.0
C660 C 0.42635 0.49282 0.48902 0.0
C661 C 0.44263 0.49013 0.47666 0.0
C662 C 0.40628 0.48521 0.47632 0.0
C663 C 0.37102 0.47977 0.43684 0.0
H664 H 0.34577 0.42604 0.3961 0.0
C665 C 0.3042 0.45791 0.35745 0.0
C666 C 0.28768 0.43618 0.35505 0.0
C667 C 0.3219 0.46363 0.37441 0.0
C668 C 0.35242 0.44094 0.40765 0.0
H669 H 0.4506 0.47743 0.44119 0.0
H670 H 0.41594 0.46462 0.41899 0.0
H671 H 0.37845 0.43711 0.42258 0.0
H672 H 0.27661 0.40344 0.36882 0.0
H673 H 0.30752 0.41344 0.39867 0.0
H674 H 0.34483 0.48347 0.42214 0.0
C675 C 0.41843 0.47218 0.43871 0.0
C676 C 0.37132 0.44743 0.42257 0.0
C677 C 0.4384 0.4797 0.45138 0.0
C678 C 0.28922 0.42028 0.37004 0.0
C679 C 0.30692 0.42602 0.38712 0.0
C680 C 0.35207 0.47325 0.42198 0.0
C681 C 0.4021 0.4748 0.451 0.0
C682 C 0.38105 0.4671 0.43698 0.0
C683 C 0.3235 0.44777 0.38946 0.0
C684 C 0.34273 0.45392 0.40686 0.0
H685 H 0.42907 0.50072 0.50853 0.0
H686 H 0.39397 0.48732 0.48644 0.0
H687 H 0.37815 0.49508 0.44756 0.0
H688 H 0.30365 0.47048 0.34581 0.0
H689 H 0.33458 0.48045 0.37527 0.0
C690 C 0.96806 0.43025 0.95543 0.0
C691 C 0.98478 0.44985 0.94495 0.0
C692 C 0.95882 0.41145 0.93981 0.0
C693 C 0.94858 0.39249 0.86993 0.0
H694 H 0.93353 0.33727 0.9026 0.0
C695 C 0.90167 0.31191 0.81104 0.0
C696 C 0.88449 0.29483 0.82517 0.0
C697 C 0.91676 0.33063 0.82468 0.0
C698 C 0.93752 0.35254 0.89322 0.0
H699 H 0.00504 0.46503 0.90984 0.0
H700 H 0.98862 0.43197 0.88226 0.0
H701 H 0.95505 0.37067 0.92808 0.0
H702 H 0.87013 0.28373 0.86482 0.0
H703 H 0.89611 0.31652 0.8885 0.0
H704 H 0.93047 0.37435 0.83538 0.0
C705 C 0.98275 0.4313 0.90267 0.0
C706 C 0.94989 0.37166 0.90778 0.0
C707 C 0.99218 0.45018 0.91847 0.0
C708 C 0.88304 0.29668 0.85331 0.0
C709 C 0.8981 0.31539 0.86693 0.0
C710 C 0.93612 0.37334 0.85537 0.0
C711 C 0.96596 0.41176 0.91323 0.0
C712 C 0.95516 0.3918 0.89652 0.0
C713 C 0.91501 0.33269 0.85274 0.0
C714 C 0.93007 0.35311 0.86707 0.0
H715 H 0.96198 0.42939 0.97577 0.0
H716 H 0.9457 0.39673 0.94837 0.0
H717 H 0.95222 0.40776 0.86082 0.0
H718 H 0.90313 0.31109 0.7893 0.0
H719 H 0.9297 0.34357 0.81319 0.0
C720 C 0.96291 0.52935 0.96181 0.0
C721 C 0.95417 0.5115 0.97942 0.0
C722 C 0.94939 0.53493 0.94791 0.0
C723 C 0.89611 0.51098 0.91848 0.0
H724 H 0.9073 0.56999 0.9137 0.0
C725 C 0.84221 0.53271 0.85399 0.0
C726 C 0.8523 0.55269 0.84045 0.0
C727 C 0.85368 0.52778 0.87284 0.0
C728 C 0.90411 0.55347 0.91449 0.0
H729 H 0.92448 0.48571 0.99672 0.0
H730 H 0.90066 0.4952 0.97171 0.0
H731 H 0.92897 0.56151 0.94411 0.0
H732 H 0.8823 0.58303 0.83554 0.0
H733 H 0.9027 0.57416 0.8676 0.0
H734 H 0.87202 0.50298 0.88802 0.0
C735 C 0.91804 0.50494 0.96898 0.0
C736 C 0.91641 0.54862 0.9321 0.0
C737 C 0.93164 0.4996 0.98335 0.0
C738 C 0.87413 0.56757 0.84588 0.0
C739 C 0.88573 0.56252 0.86442 0.0
C740 C 0.88402 0.51587 0.90055 0.0
C741 C 0.92682 0.52254 0.95096 0.0
C742 C 0.91262 0.52737 0.9341 0.0
C743 C 0.87563 0.5426 0.87829 0.0
C744 C 0.88797 0.53723 0.89813 0.0
H745 H 0.98024 0.53887 0.95848 0.0
H746 H 0.95655 0.54847 0.934 0.0
H747 H 0.89309 0.49451 0.9194 0.0
H748 H 0.82527 0.52109 0.85044 0.0
H749 H 0.8452 0.51247 0.88343 0.0
C750 C 0.4586 0.99583 0.41591 0.0
C751 C 0.45628 0.9876 0.44231 0.0
C752 C 0.44124 0.98643 0.39769 0.0
C753 C 0.38169 0.95051 0.3939 0.0
H754 H 0.39336 0.93492 0.32317 0.0
C755 C 0.33315 0.88147 0.30902 0.0
C756 C 0.31386 0.88216 0.30686 0.0
C757 C 0.35101 0.8978 0.32266 0.0
C758 C 0.38986 0.93925 0.34281 0.0
H759 H 0.43374 0.96355 0.47053 0.0
H760 H 0.40366 0.94726 0.43888 0.0
H761 H 0.42346 0.9574 0.3534 0.0
H762 H 0.29832 0.9008 0.31669 0.0
H763 H 0.32965 0.92948 0.34059 0.0
H764 H 0.34806 0.9316 0.38381 0.0
C765 C 0.41878 0.96101 0.43224 0.0
C766 C 0.4071 0.9523 0.36001 0.0
C767 C 0.43611 0.97025 0.45033 0.0
C768 C 0.31301 0.89988 0.31797 0.0
C769 C 0.33087 0.91619 0.3318 0.0
C770 C 0.36446 0.93755 0.37667 0.0
C771 C 0.4212 0.9688 0.40563 0.0
C772 C 0.40317 0.95759 0.38601 0.0
C773 C 0.34998 0.91519 0.33455 0.0
C774 C 0.36833 0.93131 0.35121 0.0
H775 H 0.47393 0.0092 0.40914 0.0
H776 H 0.44353 0.99286 0.37735 0.0
H777 H 0.37817 0.95454 0.41371 0.0
H778 H 0.33438 0.86815 0.30036 0.0
H779 H 0.3654 0.89641 0.32467 0.0
C780 C 0.45232 0.42752 0.95658 0.0
C781 C 0.45503 0.44747 0.94783 0.0
C782 C 0.44396 0.40975 0.93915 0.0
C783 C 0.44022 0.39594 0.86766 0.0
H784 H 0.40078 0.33789 0.89359 0.0
C785 C 0.41781 0.3199 0.80262 0.0
C786 C 0.41909 0.30336 0.81644 0.0
C787 C 0.41821 0.33707 0.81694 0.0
C788 C 0.41183 0.35399 0.88604 0.0
H789 H 0.45072 0.4643 0.91402 0.0
H790 H 0.43628 0.43312 0.8833 0.0
H791 H 0.40876 0.36901 0.92203 0.0
H792 H 0.42073 0.29129 0.85611 0.0
H793 H 0.42183 0.32127 0.88095 0.0
H794 H 0.44401 0.3809 0.83213 0.0
C795 C 0.44063 0.43134 0.90375 0.0
C796 C 0.41636 0.3718 0.90231 0.0
C797 C 0.4488 0.44913 0.92135 0.0
C798 C 0.42002 0.30395 0.84485 0.0
C799 C 0.42037 0.32101 0.85912 0.0
C800 C 0.43576 0.37809 0.8514 0.0
C801 C 0.43826 0.41151 0.91245 0.0
C802 C 0.43105 0.39292 0.8936 0.0
C803 C 0.41974 0.33793 0.84535 0.0
C804 C 0.42199 0.35689 0.86075 0.0
H805 H 0.4569 0.42566 0.97687 0.0
H806 H 0.44261 0.39477 0.94635 0.0
H807 H 0.45173 0.41202 0.86049 0.0
H808 H 0.41716 0.31991 0.78071 0.0
H809 H 0.41753 0.34977 0.80576 0.0
C810 C 0.02349 0.46254 0.45108 0.0
C811 C 0.00896 0.46871 0.44097 0.0
C812 C 0.03165 0.45259 0.4343 0.0
C813 C 0.04586 0.45066 0.36448 0.0
H814 H 0.05431 0.40409 0.39036 0.0
C815 C 0.0977 0.4225 0.30556 0.0
C816 C 0.11236 0.41955 0.32149 0.0
C817 C 0.08132 0.42496 0.31771 0.0
C818 C 0.05213 0.41713 0.38285 0.0
H819 H 0.99118 0.46886 0.40549 0.0
H820 H 0.00594 0.45169 0.37575 0.0
H821 H 0.0316 0.41436 0.41611 0.0
H822 H 0.12133 0.41693 0.36264 0.0
H823 H 0.09297 0.42133 0.38379 0.0
H824 H 0.06719 0.45415 0.3319 0.0
C825 C 0.01082 0.45452 0.39681 0.0
C826 C 0.03905 0.42293 0.39753 0.0
C827 C 0.00233 0.46423 0.4138 0.0
C828 C 0.11009 0.41881 0.34978 0.0
C829 C 0.09377 0.42129 0.3619 0.0
C830 C 0.05906 0.44493 0.34983 0.0
C831 C 0.02569 0.44876 0.40691 0.0
C832 C 0.0363 0.44017 0.38892 0.0
C833 C 0.07926 0.42453 0.34604 0.0
C834 C 0.06286 0.42853 0.35932 0.0
H835 H 0.02881 0.46567 0.47196 0.0
H836 H 0.04329 0.4486 0.44258 0.0
H837 H 0.04416 0.46414 0.35749 0.0
H838 H 0.09886 0.42286 0.28368 0.0
H839 H 0.07027 0.4272 0.30492 0.0
C840 C 0.57822 0.0366 0.9451 0.0
C841 C 0.55811 0.02063 0.93482 0.0
C842 C 0.59669 0.04554 0.92885 0.0
C843 C 0.61414 0.0573 0.85864 0.0
H844 H 0.6695 0.06939 0.88815 0.0
C845 C 0.69417 0.10614 0.79881 0.0
C846 C 0.71154 0.12233 0.81374 0.0
C847 C 0.67547 0.09044 0.81196 0.0
C848 C 0.65419 0.06622 0.87964 0.0
H849 H 0.54166 0.00135 0.89945 0.0
H850 H 0.57412 0.01733 0.87076 0.0
H851 H 0.63644 0.04769 0.91414 0.0
H852 H 0.72325 0.13414 0.85423 0.0
H853 H 0.69061 0.10718 0.87707 0.0
H854 H 0.63194 0.07653 0.82459 0.0
C855 C 0.57546 0.0228 0.8915 0.0
C856 C 0.63526 0.05374 0.89449 0.0
C857 C 0.55694 0.01361 0.90794 0.0
C858 C 0.71005 0.12207 0.84211 0.0
C859 C 0.69142 0.10642 0.85523 0.0
C860 C 0.63311 0.06991 0.84381 0.0
C861 C 0.59551 0.03889 0.90183 0.0
C862 C 0.6151 0.04959 0.88445 0.0
C863 C 0.67379 0.09054 0.84033 0.0
C864 C 0.65342 0.07496 0.85444 0.0
H865 H 0.57973 0.04233 0.96574 0.0
H866 H 0.61183 0.05812 0.93728 0.0
H867 H 0.59884 0.0545 0.85049 0.0
H868 H 0.69475 0.10598 0.7769 0.0
H869 H 0.66227 0.07832 0.7999 0.0
C870 C 0.53878 0.55298 0.41712 0.0
C871 C 0.53505 0.55411 0.44484 0.0
C872 C 0.54646 0.57144 0.40081 0.0
C873 C 0.54898 0.62462 0.40027 0.0
H874 H 0.58798 0.63698 0.33954 0.0
C875 C 0.58427 0.70476 0.34275 0.0
C876 C 0.58173 0.70299 0.3145 0.0
C877 C 0.58087 0.68696 0.35818 0.0
C878 C 0.57702 0.63363 0.3564 0.0
H879 H 0.5377 0.57561 0.47759 0.0
H880 H 0.55173 0.60776 0.44955 0.0
H881 H 0.57792 0.60508 0.36771 0.0
H882 H 0.57471 0.68153 0.28013 0.0
H883 H 0.56878 0.6503 0.30724 0.0
H884 H 0.54822 0.65318 0.3892 0.0
C885 C 0.54799 0.59258 0.44004 0.0
C886 C 0.5712 0.61535 0.37247 0.0
C887 C 0.54006 0.57416 0.45618 0.0
C888 C 0.5766 0.68329 0.3019 0.0
C889 C 0.57338 0.6655 0.31736 0.0
C890 C 0.55497 0.64291 0.38446 0.0
C891 C 0.55076 0.59138 0.41203 0.0
C892 C 0.55715 0.61069 0.39468 0.0
C893 C 0.57499 0.66705 0.3457 0.0
C894 C 0.56908 0.64766 0.36243 0.0
H895 H 0.53502 0.53771 0.40786 0.0
H896 H 0.54827 0.56989 0.37929 0.0
H897 H 0.53766 0.62125 0.4167 0.0
H898 H 0.58802 0.71966 0.35307 0.0
H899 H 0.5824 0.68864 0.38 0.0
C900 C 0.46801 0.03719 0.54808 0.0
C901 C 0.47069 0.02037 0.55853 0.0
C902 C 0.46075 0.04814 0.56465 0.0
C903 C 0.46117 0.06414 0.6344 0.0
H904 H 0.4176 0.07772 0.61018 0.0
C905 C 0.43714 0.11675 0.6988 0.0
C906 C 0.43341 0.13167 0.6847 0.0
C907 C 0.43945 0.10096 0.68478 0.0
C908 C 0.42996 0.07428 0.61716 0.0
H909 H 0.46761 0.00161 0.59447 0.0
H910 H 0.45528 0.02116 0.62369 0.0
H911 H 0.42544 0.05387 0.58299 0.0
H912 H 0.42952 0.14201 0.64493 0.0
H913 H 0.4341 0.11495 0.62041 0.0
H914 H 0.46646 0.08524 0.66792 0.0
C915 C 0.45869 0.0257 0.60257 0.0
C916 C 0.43433 0.06051 0.60164 0.0
C917 C 0.46563 0.01447 0.58584 0.0
C918 C 0.43206 0.13051 0.65634 0.0
C919 C 0.43459 0.1149 0.64232 0.0
C920 C 0.457 0.07814 0.64978 0.0
C921 C 0.45631 0.04271 0.59213 0.0
C922 C 0.45018 0.05555 0.60991 0.0
C923 C 0.43831 0.09989 0.65632 0.0
C924 C 0.44157 0.08367 0.64113 0.0
H925 H 0.47171 0.04206 0.5271 0.0
H926 H 0.45924 0.06132 0.55614 0.0
H927 H 0.47364 0.06075 0.64109 0.0
H928 H 0.43803 0.11716 0.7207 0.0
H929 H 0.44197 0.08949 0.69628 0.0
C930 C 0.44365 0.45976 0.09231 0.0
C931 C 0.44143 0.46382 0.06501 0.0
C932 C 0.42598 0.45228 0.11002 0.0
C933 C 0.36655 0.42451 0.11217 0.0
H934 H 0.37395 0.45794 0.17731 0.0
C935 C 0.2938 0.4194 0.169 0.0
C936 C 0.29473 0.42176 0.19727 0.0
C937 C 0.31189 0.42239 0.15444 0.0
C938 C 0.37162 0.44811 0.15953 0.0
H939 H 0.41885 0.4625 0.03462 0.0
H940 H 0.38804 0.4491 0.06535 0.0
H941 H 0.40534 0.4663 0.14919 0.0
H942 H 0.31515 0.42859 0.23257 0.0
H943 H 0.34671 0.43334 0.20724 0.0
H944 H 0.33293 0.40627 0.12232 0.0
C945 C 0.40341 0.45181 0.07311 0.0
C946 C 0.38963 0.45296 0.1434 0.0
C947 C 0.4211 0.45962 0.05558 0.0
C948 C 0.31407 0.42689 0.21075 0.0
C949 C 0.33214 0.42966 0.1962 0.0
C950 C 0.3486 0.41948 0.12843 0.0
C951 C 0.40573 0.44833 0.10056 0.0
C952 C 0.38717 0.44152 0.11927 0.0
C953 C 0.33133 0.42759 0.16782 0.0
C954 C 0.3508 0.43155 0.152 0.0
H955 H 0.45915 0.46291 0.10015 0.0
H956 H 0.42814 0.44965 0.13109 0.0
H957 H 0.36427 0.41526 0.09382 0.0
H958 H 0.27922 0.41578 0.15803 0.0
H959 H 0.31075 0.42114 0.13259 0.0
C960 C 0.99553 0.45394 0.57441 0.0
C961 C 0.98314 0.46007 0.5585 0.0
C962 C 0.98528 0.43616 0.59192 0.0
C963 C 0.93596 0.40467 0.63087 0.0
H964 H 0.9435 0.35494 0.6202 0.0
C965 C 0.87364 0.32118 0.67097 0.0
C966 C 0.88056 0.30708 0.68039 0.0
C967 C 0.88817 0.34058 0.65836 0.0
C968 C 0.9415 0.36881 0.62388 0.0
H969 H 0.9505 0.45285 0.5489 0.0
H970 H 0.93279 0.42234 0.57992 0.0
H971 H 0.96614 0.38833 0.595 0.0
H972 H 0.90806 0.30216 0.6841 0.0
H973 H 0.93374 0.33645 0.66253 0.0
H974 H 0.9115 0.38552 0.65972 0.0
C975 C 0.95032 0.43107 0.57864 0.0
C976 C 0.95445 0.38789 0.60941 0.0
C977 C 0.96046 0.44844 0.5608 0.0
C978 C 0.90231 0.31271 0.67682 0.0
C979 C 0.91697 0.33232 0.66444 0.0
C980 C 0.92327 0.38579 0.64561 0.0
C981 C 0.96259 0.42468 0.59422 0.0
C982 C 0.95135 0.40574 0.61228 0.0
C983 C 0.91008 0.34655 0.65514 0.0
C984 C 0.92539 0.36738 0.64172 0.0
H985 H 0.01304 0.46261 0.57293 0.0
H986 H 0.99504 0.43147 0.60379 0.0
H987 H 0.93347 0.41836 0.63361 0.0
H988 H 0.85687 0.31705 0.67308 0.0
H989 H 0.88209 0.35078 0.6508 0.0
C990 C 0.53852 0.96821 0.04136 0.0
C991 C 0.5384 0.98686 0.05034 0.0
C992 C 0.54344 0.95616 0.05911 0.0
C993 C 0.56794 0.9565 0.1249 0.0
H994 H 0.52984 0.89437 0.1188 0.0
C995 C 0.56844 0.89262 0.19849 0.0
C996 C 0.56682 0.87416 0.18586 0.0
C997 C 0.56605 0.90789 0.18336 0.0
C998 C 0.54072 0.91167 0.12064 0.0
H999 H 0.54433 0.00804 0.08476 0.0
H1000 H 0.55278 0.98668 0.11608 0.0
H1001 H 0.52405 0.91849 0.08982 0.0
H1002 H 0.56278 0.85796 0.1473 0.0
H1003 H 0.55845 0.88436 0.12111 0.0
H1004 H 0.58457 0.94941 0.15589 0.0
C1005 C 0.54914 0.98154 0.09516 0.0
C1006 C 0.53743 0.9255 0.104 0.0
C1007 C 0.54427 0.99373 0.07726 0.0
C1008 C 0.56351 0.87168 0.15776 0.0
C1009 C 0.56108 0.88683 0.14273 0.0
C1010 C 0.57121 0.94257 0.14168 0.0
C1011 C 0.54825 0.96233 0.08638 0.0
C1012 C 0.55124 0.94804 0.10553 0.0
C1013 C 0.56195 0.9049 0.1554 0.0
C1014 C 0.55786 0.92 0.1393 0.0
H1015 H 0.53438 0.96263 0.02065 0.0
H1016 H 0.54316 0.94174 0.05155 0.0
H1017 H 0.57884 0.97381 0.1265 0.0
H1018 H 0.57094 0.89494 0.22014 0.0
H1019 H 0.56674 0.92166 0.19363 0.0
C1020 C 0.5492 0.54406 0.58545 0.0
C1021 C 0.55032 0.53716 0.55911 0.0
C1022 C 0.56735 0.55266 0.60244 0.0
C1023 C 0.62693 0.57714 0.60172 0.0
H1024 H 0.61952 0.55234 0.6734 0.0
C1025 C 0.69638 0.57668 0.65937 0.0
C1026 C 0.69727 0.57856 0.68771 0.0
C1027 C 0.67904 0.57566 0.64504 0.0
C1028 C 0.62186 0.55979 0.65368 0.0
H1029 H 0.57149 0.53441 0.52972 0.0
H1030 H 0.60298 0.54939 0.55922 0.0
H1031 H 0.58774 0.54324 0.64577 0.0
H1032 H 0.681 0.58152 0.7232 0.0
H1033 H 0.65076 0.58004 0.69806 0.0
H1034 H 0.66103 0.59332 0.60931 0.0
C1035 C 0.58817 0.54826 0.56675 0.0
C1036 C 0.60364 0.55455 0.63784 0.0
C1037 C 0.57004 0.5395 0.54992 0.0
C1038 C 0.68081 0.58017 0.70135 0.0
C1039 C 0.66339 0.57911 0.68698 0.0
C1040 C 0.64512 0.58246 0.61757 0.0
C1041 C 0.58699 0.55477 0.59325 0.0
C1042 C 0.60603 0.5627 0.61142 0.0
C1043 C 0.66217 0.57653 0.65869 0.0
C1044 C 0.64283 0.57337 0.64344 0.0
H1045 H 0.53423 0.54248 0.59311 0.0
H1046 H 0.56603 0.55764 0.62274 0.0
H1047 H 0.62923 0.58397 0.5816 0.0
H1048 H 0.70897 0.5757 0.64824 0.0
H1049 H 0.67851 0.57342 0.62331 0.0
C1050 C 0.06807 0.57054 0.02044 0.0
C1051 C 0.04565 0.55871 0.02528 0.0
C1052 C 0.08126 0.5894 0.03521 0.0
C1053 C 0.08141 0.63266 0.07536 0.0
H1054 H 0.12873 0.63348 0.11497 0.0
C1055 C 0.12627 0.69473 0.16053 0.0
C1056 C 0.14843 0.70226 0.16416 0.0
C1057 C 0.11415 0.67793 0.14229 0.0
C1058 C 0.11588 0.63381 0.1037 0.0
H1059 H 0.0193 0.55783 0.04835 0.0
H1060 H 0.0423 0.59105 0.0736 0.0
H1061 H 0.10737 0.60387 0.08377 0.0
H1062 H 0.17551 0.6987 0.15116 0.0
H1063 H 0.15468 0.66999 0.11865 0.0
H1064 H 0.09003 0.66273 0.09476 0.0
C1065 C 0.04967 0.58562 0.05863 0.0
C1066 C 0.10362 0.61677 0.08588 0.0
C1067 C 0.03656 0.56657 0.04428 0.0
C1068 C 0.15834 0.69291 0.14903 0.0
C1069 C 0.14634 0.67639 0.13047 0.0
C1070 C 0.0939 0.64992 0.09285 0.0
C1071 C 0.07218 0.59697 0.05461 0.0
C1072 C 0.08614 0.61593 0.07178 0.0
C1073 C 0.12404 0.66857 0.12693 0.0
C1074 C 0.11117 0.65061 0.10752 0.0
H1075 H 0.07551 0.5648 0.00598 0.0
H1076 H 0.09859 0.59797 0.03169 0.0
H1077 H 0.06807 0.63241 0.06456 0.0
H1078 H 0.11826 0.70164 0.1721 0.0
H1079 H 0.09696 0.67211 0.14056 0.0
loop_
_geom_bond_atom_site_label_1
_geom_bond_atom_site_label_2
_geom_bond_distance
_geom_bond_site_symmetry_2
_ccdc_geom_bond_type
C0 O2 1.247 . S
C0 O4 1.258 . S
C1 O8 1.247 . S
C1 O9 1.258 . S
O2 C0 1.247 . S
O2 Zn3 2.028 1_455 S
Zn3 O2 2.028 1_655 S
Zn3 O7 2.035 1_554 S
Zn3 O9 2.035 1_554 S
Zn3 O10 2.028 1_655 S
O4 C0 1.258 . S
O4 Zn5 2.035 1_554 S
Zn5 O4 2.035 1_556 S
Zn5 O6 2.028 1_455 S
Zn5 O8 2.028 1_455 S
Zn5 O11 2.035 1_556 S
O6 Zn5 2.028 1_655 S
O6 C12 1.247 . S
O7 Zn3 2.035 1_556 S
O7 C12 1.258 . S
O8 C1 1.247 . S
O8 Zn5 2.028 1_655 S
O9 C1 1.258 . S
O9 Zn3 2.035 1_556 S
O10 Zn3 2.028 1_455 S
O10 C13 1.247 . S
O11 Zn5 2.035 1_554 S
O11 C13 1.258 . S
C12 O6 1.247 . S
C12 O7 1.258 . S
C13 O10 1.247 . S
C13 O11 1.258 . S
C14 O16 1.247 . S
C14 O18 1.258 . S
C15 O22 1.247 . S
C15 O23 1.258 . S
O16 C14 1.247 . S
O16 Zn17 2.028 1_545 S
Zn17 O16 2.028 1_565 S
Zn17 O21 2.035 . S
Zn17 O23 2.035 . S
Zn17 O24 2.028 1_565 S
O18 C14 1.258 . S
O18 Zn19 2.035 . S
Zn19 O18 2.035 . S
Zn19 O20 2.028 1_545 S
Zn19 O22 2.028 1_545 S
Zn19 O25 2.035 . S
O20 Zn19 2.028 1_565 S
O20 C26 1.247 . S
O21 Zn17 2.035 . S
O21 C26 1.258 . S
O22 C15 1.247 . S
O22 Zn19 2.028 1_565 S
O23 C15 1.258 . S
O23 Zn17 2.035 . S
O24 Zn17 2.028 1_545 S
O24 C27 1.247 . S
O25 Zn19 2.035 . S
O25 C27 1.258 . S
C26 O20 1.247 . S
C26 O21 1.258 . S
C27 O24 1.247 . S
C27 O25 1.258 . S
C28 O30 1.247 . S
C28 O32 1.258 . S
C29 O36 1.247 . S
C29 O37 1.258 . S
O30 C28 1.247 . S
O30 Zn31 2.028 . S
Zn31 O30 2.028 . S
Zn31 O35 2.035 1_556 S
Zn31 O37 2.035 1_556 S
Zn31 O38 2.028 . S
O32 C28 1.258 . S
O32 Zn33 2.035 1_556 S
Zn33 O32 2.035 1_554 S
Zn33 O34 2.028 . S
Zn33 O36 2.028 . S
Zn33 O39 2.035 1_554 S
O34 Zn33 2.028 . S
O34 C40 1.247 . S
O35 Zn31 2.035 1_554 S
O35 C40 1.258 . S
O36 C29 1.247 . S
O36 Zn33 2.028 . S
O37 C29 1.258 . S
O37 Zn31 2.035 1_554 S
O38 Zn31 2.028 . S
O38 C41 1.247 . S
O39 Zn33 2.035 1_556 S
O39 C41 1.258 . S
C40 O34 1.247 . S
C40 O35 1.258 . S
C41 O38 1.247 . S
C41 O39 1.258 . S
C42 O44 1.247 . S
C42 O46 1.258 . S
C43 O50 1.247 . S
C43 O51 1.258 . S
O44 C42 1.247 . S
O44 Zn45 2.028 . S
Zn45 O44 2.028 . S
Zn45 O49 2.035 1_455 S
Zn45 O51 2.035 1_455 S
Zn45 O52 2.028 . S
O46 C42 1.258 . S
O46 Zn47 2.035 1_455 S
Zn47 O46 2.035 1_655 S
Zn47 O48 2.028 . S
Zn47 O50 2.028 . S
Zn47 O53 2.035 1_655 S
O48 Zn47 2.028 . S
O48 C54 1.247 . S
O49 Zn45 2.035 1_655 S
O49 C54 1.258 . S
O50 C43 1.247 . S
O50 Zn47 2.028 . S
O51 C43 1.258 . S
O51 Zn45 2.035 1_655 S
O52 Zn45 2.028 . S
O52 C55 1.247 . S
O53 Zn47 2.035 1_455 S
O53 C55 1.258 . S
C54 O48 1.247 . S
C54 O49 1.258 . S
C55 O52 1.247 . S
C55 O53 1.258 . S
C56 O58 1.247 . S
C56 O60 1.258 . S
C57 O64 1.247 . S
C57 O65 1.258 . S
O58 C56 1.247 . S
O58 Zn59 2.028 1_565 S
Zn59 O58 2.028 1_545 S
Zn59 O63 2.035 1_554 S
Zn59 O65 2.035 1_554 S
Zn59 O66 2.028 1_545 S
O60 C56 1.258 . S
O60 Zn61 2.035 1_554 S
Zn61 O60 2.035 1_556 S
Zn61 O62 2.028 1_565 S
Zn61 O64 2.028 1_565 S
Zn61 O67 2.035 1_556 S
O62 Zn61 2.028 1_545 S
O62 C68 1.247 . S
O63 Zn59 2.035 1_556 S
O63 C68 1.258 . S
O64 C57 1.247 . S
O64 Zn61 2.028 1_545 S
O65 C57 1.258 . S
O65 Zn59 2.035 1_556 S
O66 Zn59 2.028 1_565 S
O66 C69 1.247 . S
O67 Zn61 2.035 1_554 S
O67 C69 1.258 . S
C68 O62 1.247 . S
C68 O63 1.258 . S
C69 O66 1.247 . S
C69 O67 1.258 . S
C70 O72 1.247 . S
C70 O74 1.258 . S
C71 O78 1.247 . S
C71 O79 1.258 . S
O72 C70 1.247 . S
O72 Zn73 2.028 . S
Zn73 O72 2.028 . S
Zn73 O77 2.035 . S
Zn73 O79 2.035 . S
Zn73 O80 2.028 . S
O74 C70 1.258 . S
O74 Zn75 2.035 . S
Zn75 O74 2.035 . S
Zn75 O76 2.028 . S
Zn75 O78 2.028 . S
Zn75 O81 2.035 . S
O76 Zn75 2.028 . S
O76 C82 1.247 . S
O77 Zn73 2.035 . S
O77 C82 1.258 . S
O78 C71 1.247 . S
O78 Zn75 2.028 . S
O79 C71 1.258 . S
O79 Zn73 2.035 . S
O80 Zn73 2.028 . S
O80 C83 1.247 . S
O81 Zn75 2.035 . S
O81 C83 1.258 . S
C82 O76 1.247 . S
C82 O77 1.258 . S
C83 O80 1.247 . S
C83 O81 1.258 . S
C84 C85 1.384 . S
C84 C86 1.384 . S
C84 H112 0.931 . S
C85 C84 1.384 . S
C85 C88 1.382 . S
C86 C84 1.384 . S
C86 C87 1.381 . S
C86 H113 0.930 . S
C87 C86 1.381 . S
C87 C89 1.381 . S
C87 C90 1.487 . S
C88 C85 1.382 . S
C88 C89 1.387 . S
C88 H114 0.930 . S
C89 C87 1.381 . S
C89 C88 1.387 . S
C89 H115 0.931 . S
C90 C87 1.487 . S
C90 C97 1.399 . S
C90 N128 1.343 . S
C91 C92 1.384 . S
C91 C93 1.384 . S
C91 H116 0.931 . S
C92 C91 1.384 . S
C92 C95 1.382 . S
C93 C91 1.384 . S
C93 C94 1.381 . S
C93 H117 0.930 . S
C94 C93 1.381 . S
C94 C96 1.381 . S
C94 C97 1.487 . S
C95 C92 1.382 . S
C95 C96 1.387 . S
C95 H118 0.930 . S
C96 C94 1.381 . S
C96 C95 1.387 . S
C96 H119 0.931 . S
C97 C90 1.399 . S
C97 C94 1.487 . S
C97 N129 1.343 . S
C98 C99 1.384 . S
C98 C100 1.384 . S
C98 H120 0.931 . S
C99 C98 1.384 . S
C99 C102 1.382 . S
C100 C98 1.384 . S
C100 C101 1.381 . S
C100 H121 0.930 . S
C101 C100 1.381 . S
C101 C103 1.381 . S
C101 C104 1.487 . S
C102 C99 1.382 . S
C102 C103 1.387 . S
C102 H122 0.930 . S
C103 C101 1.381 . S
C103 C102 1.387 . S
C103 H123 0.931 . S
C104 C101 1.487 . S
C104 C111 1.399 . S
C104 N129 1.343 . S
C105 C106 1.384 . S
C105 C107 1.384 . S
C105 H124 0.931 . S
C106 C105 1.384 . S
C106 C109 1.382 . S
C107 C105 1.384 . S
C107 C108 1.381 . S
C107 H125 0.930 . S
C108 C107 1.381 . S
C108 C110 1.381 . S
C108 C111 1.487 . S
C109 C106 1.382 . S
C109 C110 1.387 . S
C109 H126 0.930 . S
C110 C108 1.381 . S
C110 C109 1.387 . S
C110 H127 0.931 . S
C111 C104 1.399 . S
C111 C108 1.487 . S
C111 N128 1.343 . S
H112 C84 0.931 . S
H113 C86 0.930 . S
H114 C88 0.930 . S
H115 C89 0.931 . S
H116 C91 0.931 . S
H117 C93 0.930 . S
H118 C95 0.930 . S
H119 C96 0.931 . S
H120 C98 0.931 . S
H121 C100 0.930 . S
H122 C102 0.930 . S
H123 C103 0.931 . S
H124 C105 0.931 . S
H125 C107 0.930 . S
H126 C109 0.930 . S
H127 C110 0.931 . S
N128 C90 1.343 . S
N128 C111 1.343 . S
N129 C97 1.343 . S
N129 C104 1.343 . S
C130 C131 1.384 . S
C130 C132 1.384 . S
C130 H158 0.931 . S
C131 C130 1.384 . S
C131 C134 1.382 . S
C132 C130 1.384 . S
C132 C133 1.381 . S
C132 H159 0.930 . S
C133 C132 1.381 . S
C133 C135 1.381 . S
C133 C136 1.487 . S
C134 C131 1.382 . S
C134 C135 1.387 . S
C134 H160 0.930 . S
C135 C133 1.381 . S
C135 C134 1.387 . S
C135 H161 0.931 . S
C136 C133 1.487 . S
C136 C143 1.399 . S
C136 N174 1.343 . S
C137 C138 1.384 . S
C137 C139 1.384 . S
C137 H162 0.931 . S
C138 C137 1.384 . S
C138 C141 1.382 . S
C139 C137 1.384 . S
C139 C140 1.381 . S
C139 H163 0.930 . S
C140 C139 1.381 . S
C140 C142 1.381 . S
C140 C143 1.487 . S
C141 C138 1.382 . S
C141 C142 1.387 . S
C141 H164 0.930 . S
C142 C140 1.381 . S
C142 C141 1.387 . S
C142 H165 0.931 . S
C143 C136 1.399 . S
C143 C140 1.487 . S
C143 N175 1.343 . S
C144 C145 1.384 . S
C144 C146 1.384 . S
C144 H166 0.931 . S
C145 C144 1.384 . S
C145 C148 1.382 . S
C146 C144 1.384 . S
C146 C147 1.381 . S
C146 H167 0.930 . S
C147 C146 1.381 . S
C147 C149 1.381 . S
C147 C150 1.487 . S
C148 C145 1.382 . S
C148 C149 1.387 . S
C148 H168 0.930 . S
C149 C147 1.381 . S
C149 C148 1.387 . S
C149 H169 0.931 . S
C150 C147 1.487 . S
C150 C157 1.399 . S
C150 N175 1.343 . S
C151 C152 1.384 . S
C151 C153 1.384 . S
C151 H170 0.931 . S
C152 C151 1.384 . S
C152 C155 1.382 . S
C153 C151 1.384 . S
C153 C154 1.381 . S
C153 H171 0.930 . S
C154 C153 1.381 . S
C154 C156 1.381 . S
C154 C157 1.487 . S
C155 C152 1.382 . S
C155 C156 1.387 . S
C155 H172 0.930 . S
C156 C154 1.381 . S
C156 C155 1.387 . S
C156 H173 0.931 . S
C157 C150 1.399 . S
C157 C154 1.487 . S
C157 N174 1.343 . S
H158 C130 0.931 . S
H159 C132 0.930 . S
H160 C134 0.930 . S
H161 C135 0.931 . S
H162 C137 0.931 . S
H163 C139 0.930 . S
H164 C141 0.930 . S
H165 C142 0.931 . S
H166 C144 0.931 . S
H167 C146 0.930 . S
H168 C148 0.930 . S
H169 C149 0.931 . S
H170 C151 0.931 . S
H171 C153 0.930 . S
H172 C155 0.930 . S
H173 C156 0.931 . S
N174 C136 1.343 . S
N174 C157 1.343 . S
N175 C143 1.343 . S
N175 C150 1.343 . S
C176 C177 1.384 . S
C176 C178 1.384 . S
C176 H204 0.931 . S
C177 C176 1.384 . S
C177 C180 1.382 . S
C178 C176 1.384 . S
C178 C179 1.381 . S
C178 H205 0.930 . S
C179 C178 1.381 . S
C179 C181 1.381 . S
C179 C182 1.487 . S
C180 C177 1.382 . S
C180 C181 1.387 . S
C180 H206 0.930 . S
C181 C179 1.381 . S
C181 C180 1.387 . S
C181 H207 0.931 . S
C182 C179 1.487 . S
C182 C189 1.399 . S
C182 N220 1.343 . S
C183 C184 1.384 . S
C183 C185 1.384 . S
C183 H208 0.931 . S
C184 C183 1.384 . S
C184 C187 1.382 . S
C185 C183 1.384 . S
C185 C186 1.381 . S
C185 H209 0.930 . S
C186 C185 1.381 . S
C186 C188 1.381 . S
C186 C189 1.487 . S
C187 C184 1.382 . S
C187 C188 1.387 . S
C187 H210 0.930 . S
C188 C186 1.381 . S
C188 C187 1.387 . S
C188 H211 0.931 . S
C189 C182 1.399 . S
C189 C186 1.487 . S
C189 N221 1.343 . S
C190 C191 1.384 . S
C190 C192 1.384 . S
C190 H212 0.931 . S
C191 C190 1.384 . S
C191 C194 1.382 . S
C192 C190 1.384 . S
C192 C193 1.381 . S
C192 H213 0.930 . S
C193 C192 1.381 . S
C193 C195 1.381 . S
C193 C196 1.487 . S
C194 C191 1.382 . S
C194 C195 1.387 . S
C194 H214 0.930 . S
C195 C193 1.381 . S
C195 C194 1.387 . S
C195 H215 0.931 . S
C196 C193 1.487 . S
C196 C203 1.399 . S
C196 N221 1.343 . S
C197 C198 1.384 . S
C197 C199 1.384 . S
C197 H216 0.931 . S
C198 C197 1.384 . S
C198 C201 1.382 . S
C199 C197 1.384 . S
C199 C200 1.381 . S
C199 H217 0.930 . S
C200 C199 1.381 . S
C200 C202 1.381 . S
C200 C203 1.487 . S
C201 C198 1.382 . S
C201 C202 1.387 . S
C201 H218 0.930 . S
C202 C200 1.381 . S
C202 C201 1.387 . S
C202 H219 0.931 . S
C203 C196 1.399 . S
C203 C200 1.487 . S
C203 N220 1.343 . S
H204 C176 0.931 . S
H205 C178 0.930 . S
H206 C180 0.930 . S
H207 C181 0.931 . S
H208 C183 0.931 . S
H209 C185 0.930 . S
H210 C187 0.930 . S
H211 C188 0.931 . S
H212 C190 0.931 . S
H213 C192 0.930 . S
H214 C194 0.930 . S
H215 C195 0.931 . S
H216 C197 0.931 . S
H217 C199 0.930 . S
H218 C201 0.930 . S
H219 C202 0.931 . S
N220 C182 1.343 . S
N220 C203 1.343 . S
N221 C189 1.343 . S
N221 C196 1.343 . S
C222 C223 1.384 . S
C222 C224 1.384 . S
C222 H250 0.931 . S
C223 C222 1.384 . S
C223 C226 1.382 . S
C224 C222 1.384 . S
C224 C225 1.381 . S
C224 H251 0.930 . S
C225 C224 1.381 . S
C225 C227 1.381 . S
C225 C228 1.487 . S
C226 C223 1.382 . S
C226 C227 1.387 . S
C226 H252 0.930 . S
C227 C225 1.381 . S
C227 C226 1.387 . S
C227 H253 0.931 . S
C228 C225 1.487 . S
C228 C235 1.399 . S
C228 N266 1.343 . S
C229 C230 1.384 . S
C229 C231 1.384 . S
C229 H254 0.931 . S
C230 C229 1.384 . S
C230 C233 1.382 . S
C231 C229 1.384 . S
C231 C232 1.381 . S
C231 H255 0.930 . S
C232 C231 1.381 . S
C232 C234 1.381 . S
C232 C235 1.487 . S
C233 C230 1.382 . S
C233 C234 1.387 . S
C233 H256 0.930 . S
C234 C232 1.381 . S
C234 C233 1.387 . S
C234 H257 0.931 . S
C235 C228 1.399 . S
C235 C232 1.487 . S
C235 N267 1.343 . S
C236 C237 1.384 . S
C236 C238 1.384 . S
C236 H258 0.931 . S
C237 C236 1.384 . S
C237 C240 1.382 . S
C238 C236 1.384 . S
C238 C239 1.381 . S
C238 H259 0.930 . S
C239 C238 1.381 . S
C239 C241 1.381 . S
C239 C242 1.487 . S
C240 C237 1.382 . S
C240 C241 1.387 . S
C240 H260 0.930 . S
C241 C239 1.381 . S
C241 C240 1.387 . S
C241 H261 0.931 . S
C242 C239 1.487 . S
C242 C249 1.399 . S
C242 N267 1.343 . S
C243 C244 1.384 . S
C243 C245 1.384 . S
C243 H262 0.931 . S
C244 C243 1.384 . S
C244 C247 1.382 . S
C245 C243 1.384 . S
C245 C246 1.381 . S
C245 H263 0.930 . S
C246 C245 1.381 . S
C246 C248 1.381 . S
C246 C249 1.487 . S
C247 C244 1.382 . S
C247 C248 1.387 . S
C247 H264 0.930 . S
C248 C246 1.381 . S
C248 C247 1.387 . S
C248 H265 0.931 . S
C249 C242 1.399 . S
C249 C246 1.487 . S
C249 N266 1.343 . S
H250 C222 0.931 . S
H251 C224 0.930 . S
H252 C226 0.930 . S
H253 C227 0.931 . S
H254 C229 0.931 . S
H255 C231 0.930 . S
H256 C233 0.930 . S
H257 C234 0.931 . S
H258 C236 0.931 . S
H259 C238 0.930 . S
H260 C240 0.930 . S
H261 C241 0.931 . S
H262 C243 0.931 . S
H263 C245 0.930 . S
H264 C247 0.930 . S
H265 C248 0.931 . S
N266 C228 1.343 . S
N266 C249 1.343 . S
N267 C235 1.343 . S
N267 C242 1.343 . S
C268 C269 1.384 . S
C268 C270 1.384 . S
C268 H296 0.931 . S
C269 C268 1.384 . S
C269 C272 1.382 . S
C270 C268 1.384 . S
C270 C271 1.381 . S
C270 H297 0.930 . S
C271 C270 1.381 . S
C271 C273 1.381 . S
C271 C274 1.487 . S
C272 C269 1.382 . S
C272 C273 1.387 . S
C272 H298 0.930 . S
C273 C271 1.381 . S
C273 C272 1.387 . S
C273 H299 0.931 . S
C274 C271 1.487 . S
C274 C281 1.399 . S
C274 N312 1.343 . S
C275 C276 1.384 . S
C275 C277 1.384 . S
C275 H300 0.931 . S
C276 C275 1.384 . S
C276 C279 1.382 . S
C277 C275 1.384 . S
C277 C278 1.381 . S
C277 H301 0.930 . S
C278 C277 1.381 . S
C278 C280 1.381 . S
C278 C281 1.487 . S
C279 C276 1.382 . S
C279 C280 1.387 . S
C279 H302 0.930 . S
C280 C278 1.381 . S
C280 C279 1.387 . S
C280 H303 0.931 . S
C281 C274 1.399 . S
C281 C278 1.487 . S
C281 N313 1.343 . S
C282 C283 1.384 . S
C282 C284 1.384 . S
C282 H304 0.931 . S
C283 C282 1.384 . S
C283 C286 1.382 . S
C284 C282 1.384 . S
C284 C285 1.381 . S
C284 H305 0.930 . S
C285 C284 1.381 . S
C285 C287 1.381 . S
C285 C288 1.487 . S
C286 C283 1.382 . S
C286 C287 1.387 . S
C286 H306 0.930 . S
C287 C285 1.381 . S
C287 C286 1.387 . S
C287 H307 0.931 . S
C288 C285 1.487 . S
C288 C295 1.399 . S
C288 N313 1.343 . S
C289 C290 1.384 . S
C289 C291 1.384 . S
C289 H308 0.931 . S
C290 C289 1.384 . S
C290 C293 1.382 . S
C291 C289 1.384 . S
C291 C292 1.381 . S
C291 H309 0.930 . S
C292 C291 1.381 . S
C292 C294 1.381 . S
C292 C295 1.487 . S
C293 C290 1.382 . S
C293 C294 1.387 . S
C293 H310 0.930 . S
C294 C292 1.381 . S
C294 C293 1.387 . S
C294 H311 0.931 . S
C295 C288 1.399 . S
C295 C292 1.487 . S
C295 N312 1.343 . S
H296 C268 0.931 . S
H297 C270 0.930 . S
H298 C272 0.930 . S
H299 C273 0.931 . S
H300 C275 0.931 . S
H301 C277 0.930 . S
H302 C279 0.930 . S
H303 C280 0.931 . S
H304 C282 0.931 . S
H305 C284 0.930 . S
H306 C286 0.930 . S
H307 C287 0.931 . S
H308 C289 0.931 . S
H309 C291 0.930 . S
H310 C293 0.930 . S
H311 C294 0.931 . S
N312 C274 1.343 . S
N312 C295 1.343 . S
N313 C281 1.343 . S
N313 C288 1.343 . S
C314 C315 1.384 . S
C314 C316 1.384 . S
C314 H342 0.931 . S
C315 C314 1.384 . S
C315 C318 1.382 . S
C316 C314 1.384 . S
C316 C317 1.381 . S
C316 H343 0.930 . S
C317 C316 1.381 . S
C317 C319 1.381 . S
C317 C320 1.487 . S
C318 C315 1.382 . S
C318 C319 1.387 . S
C318 H344 0.930 . S
C319 C317 1.381 . S
C319 C318 1.387 . S
C319 H345 0.931 . S
C320 C317 1.487 . S
C320 C327 1.399 . S
C320 N358 1.343 . S
C321 C322 1.384 . S
C321 C323 1.384 . S
C321 H346 0.931 . S
C322 C321 1.384 . S
C322 C325 1.382 . S
C323 C321 1.384 . S
C323 C324 1.381 . S
C323 H347 0.930 . S
C324 C323 1.381 . S
C324 C326 1.381 . S
C324 C327 1.487 . S
C325 C322 1.382 . S
C325 C326 1.387 . S
C325 H348 0.930 . S
C326 C324 1.381 . S
C326 C325 1.387 . S
C326 H349 0.931 . S
C327 C320 1.399 . S
C327 C324 1.487 . S
C327 N359 1.343 . S
C328 C329 1.384 . S
C328 C330 1.384 . S
C328 H350 0.931 . S
C329 C328 1.384 . S
C329 C332 1.382 . S
C330 C328 1.384 . S
C330 C331 1.381 . S
C330 H351 0.930 . S
C331 C330 1.381 . S
C331 C333 1.381 . S
C331 C334 1.487 . S
C332 C329 1.382 . S
C332 C333 1.387 . S
C332 H352 0.930 . S
C333 C331 1.381 . S
C333 C332 1.387 . S
C333 H353 0.931 . S
C334 C331 1.487 . S
C334 C341 1.399 . S
C334 N359 1.343 . S
C335 C336 1.384 . S
C335 C337 1.384 . S
C335 H354 0.931 . S
C336 C335 1.384 . S
C336 C339 1.382 . S
C337 C335 1.384 . S
C337 C338 1.381 . S
C337 H355 0.930 . S
C338 C337 1.381 . S
C338 C340 1.381 . S
C338 C341 1.487 . S
C339 C336 1.382 . S
C339 C340 1.387 . S
C339 H356 0.930 . S
C340 C338 1.381 . S
C340 C339 1.387 . S
C340 H357 0.931 . S
C341 C334 1.399 . S
C341 C338 1.487 . S
C341 N358 1.343 . S
H342 C314 0.931 . S
H343 C316 0.930 . S
H344 C318 0.930 . S
H345 C319 0.931 . S
H346 C321 0.931 . S
H347 C323 0.930 . S
H348 C325 0.930 . S
H349 C326 0.931 . S
H350 C328 0.931 . S
H351 C330 0.930 . S
H352 C332 0.930 . S
H353 C333 0.931 . S
H354 C335 0.931 . S
H355 C337 0.930 . S
H356 C339 0.930 . S
H357 C340 0.931 . S
N358 C320 1.343 . S
N358 C341 1.343 . S
N359 C327 1.343 . S
N359 C334 1.343 . S
C360 C361 1.349 . S
C360 C362 1.327 . S
C360 H385 0.950 . S
C361 C360 1.349 . S
C361 C377 1.349 . S
C362 C360 1.327 . S
C362 C381 1.429 . S
C362 H386 0.950 . S
C363 C380 1.574 . S
C363 C382 1.368 . S
C363 H387 0.949 . S
H364 C368 0.949 . S
C365 C366 1.349 . S
C365 C367 1.327 . S
C365 H388 0.950 . S
C366 C365 1.349 . S
C366 C378 1.349 . S
C367 C365 1.327 . S
C367 C383 1.429 . S
C367 H389 0.950 . S
C368 H364 0.949 . S
C368 C376 1.574 . S
C368 C384 1.368 . S
H369 C377 0.950 . S
H370 C375 0.950 . S
H371 C376 0.949 . S
H372 C378 0.950 . S
H373 C379 0.950 . S
H374 C380 0.949 . S
C375 H370 0.950 . S
C375 C377 1.327 . S
C375 C381 1.429 . S
C376 C368 1.574 . S
C376 H371 0.949 . S
C376 C382 1.368 . S
C377 C361 1.349 . S
C377 H369 0.950 . S
C377 C375 1.327 . S
C378 C366 1.349 . S
C378 H372 0.950 . S
C378 C379 1.327 . S
C379 H373 0.950 . S
C379 C378 1.327 . S
C379 C383 1.429 . S
C380 C363 1.574 . S
C380 H374 0.949 . S
C380 C384 1.368 . S
C381 C362 1.429 . S
C381 C375 1.429 . S
C381 C382 1.523 . S
C382 C363 1.368 . S
C382 C376 1.368 . S
C382 C381 1.523 . S
C383 C367 1.429 . S
C383 C379 1.429 . S
C383 C384 1.523 . S
C384 C368 1.368 . S
C384 C380 1.368 . S
C384 C383 1.523 . S
H385 C360 0.950 . S
H386 C362 0.950 . S
H387 C363 0.949 . S
H388 C365 0.950 . S
H389 C367 0.950 . S
C390 C391 1.349 . S
C390 C392 1.327 . S
C390 H415 0.950 . S
C391 C390 1.349 . S
C391 C407 1.349 . S
C392 C390 1.327 . S
C392 C411 1.429 . S
C392 H416 0.950 . S
C393 C410 1.574 . S
C393 C412 1.368 . S
C393 H417 0.949 . S
H394 C398 0.949 . S
C395 C396 1.349 . S
C395 C397 1.327 . S
C395 H418 0.950 . S
C396 C395 1.349 . S
C396 C408 1.349 . S
C397 C395 1.327 . S
C397 C413 1.429 . S
C397 H419 0.950 . S
C398 H394 0.949 . S
C398 C406 1.574 . S
C398 C414 1.368 . S
H399 C407 0.950 . S
H400 C405 0.950 . S
H401 C406 0.949 . S
H402 C408 0.950 . S
H403 C409 0.950 . S
H404 C410 0.949 . S
C405 H400 0.950 . S
C405 C407 1.327 . S
C405 C411 1.429 . S
C406 C398 1.574 . S
C406 H401 0.949 . S
C406 C412 1.368 . S
C407 C391 1.349 . S
C407 H399 0.950 . S
C407 C405 1.327 . S
C408 C396 1.349 . S
C408 H402 0.950 . S
C408 C409 1.327 . S
C409 H403 0.950 . S
C409 C408 1.327 . S
C409 C413 1.429 . S
C410 C393 1.574 . S
C410 H404 0.949 . S
C410 C414 1.368 . S
C411 C392 1.429 . S
C411 C405 1.429 . S
C411 C412 1.523 . S
C412 C393 1.368 . S
C412 C406 1.368 . S
C412 C411 1.523 . S
C413 C397 1.429 . S
C413 C409 1.429 . S
C413 C414 1.523 . S
C414 C398 1.368 . S
C414 C410 1.368 . S
C414 C413 1.523 . S
H415 C390 0.950 . S
H416 C392 0.950 . S
H417 C393 0.949 . S
H418 C395 0.950 . S
H419 C397 0.950 . S
C420 C421 1.349 . S
C420 C422 1.327 . S
C420 H445 0.950 . S
C421 C420 1.349 . S
C421 C437 1.349 . S
C422 C420 1.327 . S
C422 C441 1.429 . S
C422 H446 0.950 . S
C423 C440 1.574 . S
C423 C442 1.368 . S
C423 H447 0.949 . S
H424 C428 0.949 . S
C425 C426 1.349 . S
C425 C427 1.327 . S
C425 H448 0.950 . S
C426 C425 1.349 . S
C426 C438 1.349 . S
C427 C425 1.327 . S
C427 C443 1.429 . S
C427 H449 0.950 . S
C428 H424 0.949 . S
C428 C436 1.574 . S
C428 C444 1.368 . S
H429 C437 0.950 . S
H430 C435 0.950 . S
H431 C436 0.949 . S
H432 C438 0.950 . S
H433 C439 0.950 . S
H434 C440 0.949 . S
C435 H430 0.950 . S
C435 C437 1.327 . S
C435 C441 1.429 . S
C436 C428 1.574 . S
C436 H431 0.949 . S
C436 C442 1.368 . S
C437 C421 1.349 . S
C437 H429 0.950 . S
C437 C435 1.327 . S
C438 C426 1.349 . S
C438 H432 0.950 . S
C438 C439 1.327 . S
C439 H433 0.950 . S
C439 C438 1.327 . S
C439 C443 1.429 . S
C440 C423 1.574 . S
C440 H434 0.949 . S
C440 C444 1.368 . S
C441 C422 1.429 . S
C441 C435 1.429 . S
C441 C442 1.523 . S
C442 C423 1.368 . S
C442 C436 1.368 . S
C442 C441 1.523 . S
C443 C427 1.429 . S
C443 C439 1.429 . S
C443 C444 1.523 . S
C444 C428 1.368 . S
C444 C440 1.368 . S
C444 C443 1.523 . S
H445 C420 0.950 . S
H446 C422 0.950 . S
H447 C423 0.949 . S
H448 C425 0.950 . S
H449 C427 0.950 . S
C450 C451 1.349 . S
C450 C452 1.327 . S
C450 H475 0.950 . S
C451 C450 1.349 . S
C451 C467 1.349 . S
C452 C450 1.327 . S
C452 C471 1.429 . S
C452 H476 0.950 . S
C453 C470 1.574 . S
C453 C472 1.368 . S
C453 H477 0.949 . S
H454 C458 0.949 . S
C455 C456 1.349 . S
C455 C457 1.327 . S
C455 H478 0.950 . S
C456 C455 1.349 . S
C456 C468 1.349 . S
C457 C455 1.327 . S
C457 C473 1.429 . S
C457 H479 0.950 . S
C458 H454 0.949 . S
C458 C466 1.574 . S
C458 C474 1.368 . S
H459 C467 0.950 . S
H460 C465 0.950 . S
H461 C466 0.949 . S
H462 C468 0.950 . S
H463 C469 0.950 . S
H464 C470 0.949 . S
C465 H460 0.950 . S
C465 C467 1.327 . S
C465 C471 1.429 . S
C466 C458 1.574 . S
C466 H461 0.949 . S
C466 C472 1.368 . S
C467 C451 1.349 . S
C467 H459 0.950 . S
C467 C465 1.327 . S
C468 C456 1.349 . S
C468 H462 0.950 . S
C468 C469 1.327 . S
C469 H463 0.950 . S
C469 C468 1.327 . S
C469 C473 1.429 . S
C470 C453 1.574 . S
C470 H464 0.949 . S
C470 C474 1.368 . S
C471 C452 1.429 . S
C471 C465 1.429 . S
C471 C472 1.523 . S
C472 C453 1.368 . S
C472 C466 1.368 . S
C472 C471 1.523 . S
C473 C457 1.429 . S
C473 C469 1.429 . S
C473 C474 1.523 . S
C474 C458 1.368 . S
C474 C470 1.368 . S
C474 C473 1.523 . S
H475 C450 0.950 . S
H476 C452 0.950 . S
H477 C453 0.949 . S
H478 C455 0.950 . S
H479 C457 0.950 . S
C480 C481 1.349 . S
C480 C482 1.327 . S
C480 H505 0.950 . S
C481 C480 1.349 . S
C481 C497 1.349 . S
C482 C480 1.327 . S
C482 C501 1.429 . S
C482 H506 0.950 . S
C483 C500 1.574 . S
C483 C502 1.368 . S
C483 H507 0.949 . S
H484 C488 0.949 . S
C485 C486 1.349 . S
C485 C487 1.327 . S
C485 H508 0.950 . S
C486 C485 1.349 . S
C486 C498 1.349 . S
C487 C485 1.327 . S
C487 C503 1.429 . S
C487 H509 0.950 . S
C488 H484 0.949 . S
C488 C496 1.574 . S
C488 C504 1.368 . S
H489 C497 0.950 . S
H490 C495 0.950 . S
H491 C496 0.949 . S
H492 C498 0.950 . S
H493 C499 0.950 . S
H494 C500 0.949 . S
C495 H490 0.950 . S
C495 C497 1.327 . S
C495 C501 1.429 . S
C496 C488 1.574 . S
C496 H491 0.949 . S
C496 C502 1.368 . S
C497 C481 1.349 . S
C497 H489 0.950 . S
C497 C495 1.327 . S
C498 C486 1.349 . S
C498 H492 0.950 . S
C498 C499 1.327 . S
C499 H493 0.950 . S
C499 C498 1.327 . S
C499 C503 1.429 . S
C500 C483 1.574 . S
C500 H494 0.949 . S
C500 C504 1.368 . S
C501 C482 1.429 . S
C501 C495 1.429 . S
C501 C502 1.523 . S
C502 C483 1.368 . S
C502 C496 1.368 . S
C502 C501 1.523 . S
C503 C487 1.429 . S
C503 C499 1.429 . S
C503 C504 1.523 . S
C504 C488 1.368 . S
C504 C500 1.368 . S
C504 C503 1.523 . S
H505 C480 0.950 . S
H506 C482 0.950 . S
H507 C483 0.949 . S
H508 C485 0.950 . S
H509 C487 0.950 . S
C510 C511 1.349 . S
C510 C512 1.327 . S
C510 H535 0.950 . S
C511 C510 1.349 . S
C511 C527 1.349 . S
C512 C510 1.327 . S
C512 C531 1.429 . S
C512 H536 0.950 . S
C513 C530 1.574 . S
C513 C532 1.368 . S
C513 H537 0.949 . S
H514 C518 0.949 . S
C515 C516 1.349 . S
C515 C517 1.327 . S
C515 H538 0.950 . S
C516 C515 1.349 . S
C516 C528 1.349 . S
C517 C515 1.327 . S
C517 C533 1.429 . S
C517 H539 0.950 . S
C518 H514 0.949 . S
C518 C526 1.574 . S
C518 C534 1.368 . S
H519 C527 0.950 . S
H520 C525 0.950 . S
H521 C526 0.949 . S
H522 C528 0.950 . S
H523 C529 0.950 . S
H524 C530 0.949 . S
C525 H520 0.950 . S
C525 C527 1.327 . S
C525 C531 1.429 . S
C526 C518 1.574 . S
C526 H521 0.949 . S
C526 C532 1.368 . S
C527 C511 1.349 . S
C527 H519 0.950 . S
C527 C525 1.327 . S
C528 C516 1.349 . S
C528 H522 0.950 . S
C528 C529 1.327 . S
C529 H523 0.950 . S
C529 C528 1.327 . S
C529 C533 1.429 . S
C530 C513 1.574 . S
C530 H524 0.949 . S
C530 C534 1.368 . S
C531 C512 1.429 . S
C531 C525 1.429 . S
C531 C532 1.523 . S
C532 C513 1.368 . S
C532 C526 1.368 . S
C532 C531 1.523 . S
C533 C517 1.429 . S
C533 C529 1.429 . S
C533 C534 1.523 . S
C534 C518 1.368 . S
C534 C530 1.368 . S
C534 C533 1.523 . S
H535 C510 0.950 . S
H536 C512 0.950 . S
H537 C513 0.949 . S
H538 C515 0.950 . S
H539 C517 0.950 . S
C540 C541 1.349 . S
C540 C542 1.327 . S
C540 H565 0.950 . S
C541 C540 1.349 . S
C541 C557 1.349 . S
C542 C540 1.327 . S
C542 C561 1.429 . S
C542 H566 0.950 . S
C543 C560 1.574 . S
C543 C562 1.368 . S
C543 H567 0.949 . S
H544 C548 0.949 . S
C545 C546 1.349 . S
C545 C547 1.327 . S
C545 H568 0.950 . S
C546 C545 1.349 . S
C546 C558 1.349 . S
C547 C545 1.327 . S
C547 C563 1.429 . S
C547 H569 0.950 . S
C548 H544 0.949 . S
C548 C556 1.574 . S
C548 C564 1.368 . S
H549 C557 0.950 . S
H550 C555 0.950 . S
H551 C556 0.949 . S
H552 C558 0.950 . S
H553 C559 0.950 . S
H554 C560 0.949 . S
C555 H550 0.950 . S
C555 C557 1.327 . S
C555 C561 1.429 . S
C556 C548 1.574 . S
C556 H551 0.949 . S
C556 C562 1.368 . S
C557 C541 1.349 . S
C557 H549 0.950 . S
C557 C555 1.327 . S
C558 C546 1.349 . S
C558 H552 0.950 . S
C558 C559 1.327 . S
C559 H553 0.950 . S
C559 C558 1.327 . S
C559 C563 1.429 . S
C560 C543 1.574 . S
C560 H554 0.949 . S
C560 C564 1.368 . S
C561 C542 1.429 . S
C561 C555 1.429 . S
C561 C562 1.523 . S
C562 C543 1.368 . S
C562 C556 1.368 . S
C562 C561 1.523 . S
C563 C547 1.429 . S
C563 C559 1.429 . S
C563 C564 1.523 . S
C564 C548 1.368 . S
C564 C560 1.368 . S
C564 C563 1.523 . S
H565 C540 0.950 . S
H566 C542 0.950 . S
H567 C543 0.949 . S
H568 C545 0.950 . S
H569 C547 0.950 . S
C570 C571 1.349 . S
C570 C572 1.327 . S
C570 H595 0.950 . S
C571 C570 1.349 . S
C571 C587 1.349 . S
C572 C570 1.327 . S
C572 C591 1.429 . S
C572 H596 0.950 . S
C573 C590 1.574 . S
C573 C592 1.368 . S
C573 H597 0.949 . S
H574 C578 0.949 . S
C575 C576 1.349 . S
C575 C577 1.327 . S
C575 H598 0.950 . S
C576 C575 1.349 . S
C576 C588 1.349 . S
C577 C575 1.327 . S
C577 C593 1.429 . S
C577 H599 0.950 . S
C578 H574 0.949 . S
C578 C586 1.574 . S
C578 C594 1.368 . S
H579 C587 0.950 . S
H580 C585 0.950 . S
H581 C586 0.949 . S
H582 C588 0.950 . S
H583 C589 0.950 . S
H584 C590 0.949 . S
C585 H580 0.950 . S
C585 C587 1.327 . S
C585 C591 1.429 . S
C586 C578 1.574 . S
C586 H581 0.949 . S
C586 C592 1.368 . S
C587 C571 1.349 . S
C587 H579 0.950 . S
C587 C585 1.327 . S
C588 C576 1.349 . S
C588 H582 0.950 . S
C588 C589 1.327 . S
C589 H583 0.950 . S
C589 C588 1.327 . S
C589 C593 1.429 . S
C590 C573 1.574 . S
C590 H584 0.949 . S
C590 C594 1.368 . S
C591 C572 1.429 . S
C591 C585 1.429 . S
C591 C592 1.523 . S
C592 C573 1.368 . S
C592 C586 1.368 . S
C592 C591 1.523 . S
C593 C577 1.429 . S
C593 C589 1.429 . S
C593 C594 1.523 . S
C594 C578 1.368 . S
C594 C590 1.368 . S
C594 C593 1.523 . S
H595 C570 0.950 . S
H596 C572 0.950 . S
H597 C573 0.949 . S
H598 C575 0.950 . S
H599 C577 0.950 . S
C600 C601 1.349 . S
C600 C602 1.327 . S
C600 H625 0.950 . S
C601 C600 1.349 . S
C601 C617 1.349 . S
C602 C600 1.327 . S
C602 C621 1.429 . S
C602 H626 0.950 . S
C603 C620 1.574 . S
C603 C622 1.368 . S
C603 H627 0.949 . S
H604 C608 0.949 . S
C605 C606 1.349 . S
C605 C607 1.327 . S
C605 H628 0.950 . S
C606 C605 1.349 . S
C606 C618 1.349 . S
C607 C605 1.327 . S
C607 C623 1.429 . S
C607 H629 0.950 . S
C608 H604 0.949 . S
C608 C616 1.574 . S
C608 C624 1.368 . S
H609 C617 0.950 . S
H610 C615 0.950 . S
H611 C616 0.949 . S
H612 C618 0.950 . S
H613 C619 0.950 . S
H614 C620 0.949 . S
C615 H610 0.950 . S
C615 C617 1.327 . S
C615 C621 1.429 . S
C616 C608 1.574 . S
C616 H611 0.949 . S
C616 C622 1.368 . S
C617 C601 1.349 . S
C617 H609 0.950 . S
C617 C615 1.327 . S
C618 C606 1.349 . S
C618 H612 0.950 . S
C618 C619 1.327 . S
C619 H613 0.950 . S
C619 C618 1.327 . S
C619 C623 1.429 . S
C620 C603 1.574 . S
C620 H614 0.949 . S
C620 C624 1.368 . S
C621 C602 1.429 . S
C621 C615 1.429 . S
C621 C622 1.523 . S
C622 C603 1.368 . S
C622 C616 1.368 . S
C622 C621 1.523 . S
C623 C607 1.429 . S
C623 C619 1.429 . S
C623 C624 1.523 . S
C624 C608 1.368 . S
C624 C620 1.368 . S
C624 C623 1.523 . S
H625 C600 0.950 . S
H626 C602 0.950 . S
H627 C603 0.949 . S
H628 C605 0.950 . S
H629 C607 0.950 . S
C630 C631 1.349 . S
C630 C632 1.327 . S
C630 H655 0.950 . S
C631 C630 1.349 . S
C631 C647 1.349 . S
C632 C630 1.327 . S
C632 C651 1.429 . S
C632 H656 0.950 . S
C633 C650 1.574 . S
C633 C652 1.368 . S
C633 H657 0.949 . S
H634 C638 0.949 . S
C635 C636 1.349 . S
C635 C637 1.327 . S
C635 H658 0.950 . S
C636 C635 1.349 . S
C636 C648 1.349 . S
C637 C635 1.327 . S
C637 C653 1.429 . S
C637 H659 0.950 . S
C638 H634 0.949 . S
C638 C646 1.574 . S
C638 C654 1.368 . S
H639 C647 0.950 . S
H640 C645 0.950 . S
H641 C646 0.949 . S
H642 C648 0.950 . S
H643 C649 0.950 . S
H644 C650 0.949 . S
C645 H640 0.950 . S
C645 C647 1.327 . S
C645 C651 1.429 . S
C646 C638 1.574 . S
C646 H641 0.949 . S
C646 C652 1.368 . S
C647 C631 1.349 . S
C647 H639 0.950 . S
C647 C645 1.327 . S
C648 C636 1.349 . S
C648 H642 0.950 . S
C648 C649 1.327 . S
C649 H643 0.950 . S
C649 C648 1.327 . S
C649 C653 1.429 . S
C650 C633 1.574 . S
C650 H644 0.949 . S
C650 C654 1.368 . S
C651 C632 1.429 . S
C651 C645 1.429 . S
C651 C652 1.523 . S
C652 C633 1.368 . S
C652 C646 1.368 . S
C652 C651 1.523 . S
C653 C637 1.429 . S
C653 C649 1.429 . S
C653 C654 1.523 . S
C654 C638 1.368 . S
C654 C650 1.368 . S
C654 C653 1.523 . S
H655 C630 0.950 . S
H656 C632 0.950 . S
H657 C633 0.949 . S
H658 C635 0.950 . S
H659 C637 0.950 . S
C660 C661 1.349 . S
C660 C662 1.327 . S
C660 H685 0.950 . S
C661 C660 1.349 . S
C661 C677 1.349 . S
C662 C660 1.327 . S
C662 C681 1.429 . S
C662 H686 0.950 . S
C663 C680 1.574 . S
C663 C682 1.368 . S
C663 H687 0.949 . S
H664 C668 0.949 . S
C665 C666 1.349 . S
C665 C667 1.327 . S
C665 H688 0.950 . S
C666 C665 1.349 . S
C666 C678 1.349 . S
C667 C665 1.327 . S
C667 C683 1.429 . S
C667 H689 0.950 . S
C668 H664 0.949 . S
C668 C676 1.574 . S
C668 C684 1.368 . S
H669 C677 0.950 . S
H670 C675 0.950 . S
H671 C676 0.949 . S
H672 C678 0.950 . S
H673 C679 0.950 . S
H674 C680 0.949 . S
C675 H670 0.950 . S
C675 C677 1.327 . S
C675 C681 1.429 . S
C676 C668 1.574 . S
C676 H671 0.949 . S
C676 C682 1.368 . S
C677 C661 1.349 . S
C677 H669 0.950 . S
C677 C675 1.327 . S
C678 C666 1.349 . S
C678 H672 0.950 . S
C678 C679 1.327 . S
C679 H673 0.950 . S
C679 C678 1.327 . S
C679 C683 1.429 . S
C680 C663 1.574 . S
C680 H674 0.949 . S
C680 C684 1.368 . S
C681 C662 1.429 . S
C681 C675 1.429 . S
C681 C682 1.523 . S
C682 C663 1.368 . S
C682 C676 1.368 . S
C682 C681 1.523 . S
C683 C667 1.429 . S
C683 C679 1.429 . S
C683 C684 1.523 . S
C684 C668 1.368 . S
C684 C680 1.368 . S
C684 C683 1.523 . S
H685 C660 0.950 . S
H686 C662 0.950 . S
H687 C663 0.949 . S
H688 C665 0.950 . S
H689 C667 0.950 . S
C690 C691 1.349 . S
C690 C692 1.327 . S
C690 H715 0.950 . S
C691 C690 1.349 . S
C691 C707 1.349 . S
C692 C690 1.327 . S
C692 C711 1.429 . S
C692 H716 0.950 . S
C693 C710 1.574 . S
C693 C712 1.368 . S
C693 H717 0.949 . S
H694 C698 0.949 . S
C695 C696 1.349 . S
C695 C697 1.327 . S
C695 H718 0.950 . S
C696 C695 1.349 . S
C696 C708 1.349 . S
C697 C695 1.327 . S
C697 C713 1.429 . S
C697 H719 0.950 . S
C698 H694 0.949 . S
C698 C706 1.574 . S
C698 C714 1.368 . S
H699 C707 0.950 . S
H700 C705 0.950 . S
H701 C706 0.949 . S
H702 C708 0.950 . S
H703 C709 0.950 . S
H704 C710 0.949 . S
C705 H700 0.950 . S
C705 C707 1.327 . S
C705 C711 1.429 . S
C706 C698 1.574 . S
C706 H701 0.949 . S
C706 C712 1.368 . S
C707 C691 1.349 . S
C707 H699 0.950 . S
C707 C705 1.327 . S
C708 C696 1.349 . S
C708 H702 0.950 . S
C708 C709 1.327 . S
C709 H703 0.950 . S
C709 C708 1.327 . S
C709 C713 1.429 . S
C710 C693 1.574 . S
C710 H704 0.949 . S
C710 C714 1.368 . S
C711 C692 1.429 . S
C711 C705 1.429 . S
C711 C712 1.523 . S
C712 C693 1.368 . S
C712 C706 1.368 . S
C712 C711 1.523 . S
C713 C697 1.429 . S
C713 C709 1.429 . S
C713 C714 1.523 . S
C714 C698 1.368 . S
C714 C710 1.368 . S
C714 C713 1.523 . S
H715 C690 0.950 . S
H716 C692 0.950 . S
H717 C693 0.949 . S
H718 C695 0.950 . S
H719 C697 0.950 . S
C720 C721 1.349 . S
C720 C722 1.327 . S
C720 H745 0.950 . S
C721 C720 1.349 . S
C721 C737 1.349 . S
C722 C720 1.327 . S
C722 C741 1.429 . S
C722 H746 0.950 . S
C723 C740 1.574 . S
C723 C742 1.368 . S
C723 H747 0.949 . S
H724 C728 0.949 . S
C725 C726 1.349 . S
C725 C727 1.327 . S
C725 H748 0.950 . S
C726 C725 1.349 . S
C726 C738 1.349 . S
C727 C725 1.327 . S
C727 C743 1.429 . S
C727 H749 0.950 . S
C728 H724 0.949 . S
C728 C736 1.574 . S
C728 C744 1.368 . S
H729 C737 0.950 . S
H730 C735 0.950 . S
H731 C736 0.949 . S
H732 C738 0.950 . S
H733 C739 0.950 . S
H734 C740 0.949 . S
C735 H730 0.950 . S
C735 C737 1.327 . S
C735 C741 1.429 . S
C736 C728 1.574 . S
C736 H731 0.949 . S
C736 C742 1.368 . S
C737 C721 1.349 . S
C737 H729 0.950 . S
C737 C735 1.327 . S
C738 C726 1.349 . S
C738 H732 0.950 . S
C738 C739 1.327 . S
C739 H733 0.950 . S
C739 C738 1.327 . S
C739 C743 1.429 . S
C740 C723 1.574 . S
C740 H734 0.949 . S
C740 C744 1.368 . S
C741 C722 1.429 . S
C741 C735 1.429 . S
C741 C742 1.523 . S
C742 C723 1.368 . S
C742 C736 1.368 . S
C742 C741 1.523 . S
C743 C727 1.429 . S
C743 C739 1.429 . S
C743 C744 1.523 . S
C744 C728 1.368 . S
C744 C740 1.368 . S
C744 C743 1.523 . S
H745 C720 0.950 . S
H746 C722 0.950 . S
H747 C723 0.949 . S
H748 C725 0.950 . S
H749 C727 0.950 . S
C750 C751 1.349 . S
C750 C752 1.327 . S
C750 H775 0.950 . S
C751 C750 1.349 . S
C751 C767 1.349 . S
C752 C750 1.327 . S
C752 C771 1.429 . S
C752 H776 0.950 . S
C753 C770 1.574 . S
C753 C772 1.368 . S
C753 H777 0.949 . S
H754 C758 0.949 . S
C755 C756 1.349 . S
C755 C757 1.327 . S
C755 H778 0.950 . S
C756 C755 1.349 . S
C756 C768 1.349 . S
C757 C755 1.327 . S
C757 C773 1.429 . S
C757 H779 0.950 . S
C758 H754 0.949 . S
C758 C766 1.574 . S
C758 C774 1.368 . S
H759 C767 0.950 . S
H760 C765 0.950 . S
H761 C766 0.949 . S
H762 C768 0.950 . S
H763 C769 0.950 . S
H764 C770 0.949 . S
C765 H760 0.950 . S
C765 C767 1.327 . S
C765 C771 1.429 . S
C766 C758 1.574 . S
C766 H761 0.949 . S
C766 C772 1.368 . S
C767 C751 1.349 . S
C767 H759 0.950 . S
C767 C765 1.327 . S
C768 C756 1.349 . S
C768 H762 0.950 . S
C768 C769 1.327 . S
C769 H763 0.950 . S
C769 C768 1.327 . S
C769 C773 1.429 . S
C770 C753 1.574 . S
C770 H764 0.949 . S
C770 C774 1.368 . S
C771 C752 1.429 . S
C771 C765 1.429 . S
C771 C772 1.523 . S
C772 C753 1.368 . S
C772 C766 1.368 . S
C772 C771 1.523 . S
C773 C757 1.429 . S
C773 C769 1.429 . S
C773 C774 1.523 . S
C774 C758 1.368 . S
C774 C770 1.368 . S
C774 C773 1.523 . S
H775 C750 0.950 . S
H776 C752 0.950 . S
H777 C753 0.949 . S
H778 C755 0.950 . S
H779 C757 0.950 . S
C780 C781 1.349 . S
C780 C782 1.327 . S
C780 H805 0.950 . S
C781 C780 1.349 . S
C781 C797 1.349 . S
C782 C780 1.327 . S
C782 C801 1.429 . S
C782 H806 0.950 . S
C783 C800 1.574 . S
C783 C802 1.368 . S
C783 H807 0.949 . S
H784 C788 0.949 . S
C785 C786 1.349 . S
C785 C787 1.327 . S
C785 H808 0.950 . S
C786 C785 1.349 . S
C786 C798 1.349 . S
C787 C785 1.327 . S
C787 C803 1.429 . S
C787 H809 0.950 . S
C788 H784 0.949 . S
C788 C796 1.574 . S
C788 C804 1.368 . S
H789 C797 0.950 . S
H790 C795 0.950 . S
H791 C796 0.949 . S
H792 C798 0.950 . S
H793 C799 0.950 . S
H794 C800 0.949 . S
C795 H790 0.950 . S
C795 C797 1.327 . S
C795 C801 1.429 . S
C796 C788 1.574 . S
C796 H791 0.949 . S
C796 C802 1.368 . S
C797 C781 1.349 . S
C797 H789 0.950 . S
C797 C795 1.327 . S
C798 C786 1.349 . S
C798 H792 0.950 . S
C798 C799 1.327 . S
C799 H793 0.950 . S
C799 C798 1.327 . S
C799 C803 1.429 . S
C800 C783 1.574 . S
C800 H794 0.949 . S
C800 C804 1.368 . S
C801 C782 1.429 . S
C801 C795 1.429 . S
C801 C802 1.523 . S
C802 C783 1.368 . S
C802 C796 1.368 . S
C802 C801 1.523 . S
C803 C787 1.429 . S
C803 C799 1.429 . S
C803 C804 1.523 . S
C804 C788 1.368 . S
C804 C800 1.368 . S
C804 C803 1.523 . S
H805 C780 0.950 . S
H806 C782 0.950 . S
H807 C783 0.949 . S
H808 C785 0.950 . S
H809 C787 0.950 . S
C810 C811 1.349 . S
C810 C812 1.327 . S
C810 H835 0.950 . S
C811 C810 1.349 . S
C811 C827 1.349 . S
C812 C810 1.327 . S
C812 C831 1.429 . S
C812 H836 0.950 . S
C813 C830 1.574 . S
C813 C832 1.368 . S
C813 H837 0.949 . S
H814 C818 0.949 . S
C815 C816 1.349 . S
C815 C817 1.327 . S
C815 H838 0.950 . S
C816 C815 1.349 . S
C816 C828 1.349 . S
C817 C815 1.327 . S
C817 C833 1.429 . S
C817 H839 0.950 . S
C818 H814 0.949 . S
C818 C826 1.574 . S
C818 C834 1.368 . S
H819 C827 0.950 . S
H820 C825 0.950 . S
H821 C826 0.949 . S
H822 C828 0.950 . S
H823 C829 0.950 . S
H824 C830 0.949 . S
C825 H820 0.950 . S
C825 C827 1.327 . S
C825 C831 1.429 . S
C826 C818 1.574 . S
C826 H821 0.949 . S
C826 C832 1.368 . S
C827 C811 1.349 . S
C827 H819 0.950 . S
C827 C825 1.327 . S
C828 C816 1.349 . S
C828 H822 0.950 . S
C828 C829 1.327 . S
C829 H823 0.950 . S
C829 C828 1.327 . S
C829 C833 1.429 . S
C830 C813 1.574 . S
C830 H824 0.949 . S
C830 C834 1.368 . S
C831 C812 1.429 . S
C831 C825 1.429 . S
C831 C832 1.523 . S
C832 C813 1.368 . S
C832 C826 1.368 . S
C832 C831 1.523 . S
C833 C817 1.429 . S
C833 C829 1.429 . S
C833 C834 1.523 . S
C834 C818 1.368 . S
C834 C830 1.368 . S
C834 C833 1.523 . S
H835 C810 0.950 . S
H836 C812 0.950 . S
H837 C813 0.949 . S
H838 C815 0.950 . S
H839 C817 0.950 . S
C840 C841 1.349 . S
C840 C842 1.327 . S
C840 H865 0.950 . S
C841 C840 1.349 . S
C841 C857 1.349 . S
C842 C840 1.327 . S
C842 C861 1.429 . S
C842 H866 0.950 . S
C843 C860 1.574 . S
C843 C862 1.368 . S
C843 H867 0.949 . S
H844 C848 0.949 . S
C845 C846 1.349 . S
C845 C847 1.327 . S
C845 H868 0.950 . S
C846 C845 1.349 . S
C846 C858 1.349 . S
C847 C845 1.327 . S
C847 C863 1.429 . S
C847 H869 0.950 . S
C848 H844 0.949 . S
C848 C856 1.574 . S
C848 C864 1.368 . S
H849 C857 0.950 . S
H850 C855 0.950 . S
H851 C856 0.949 . S
H852 C858 0.950 . S
H853 C859 0.950 . S
H854 C860 0.949 . S
C855 H850 0.950 . S
C855 C857 1.327 . S
C855 C861 1.429 . S
C856 C848 1.574 . S
C856 H851 0.949 . S
C856 C862 1.368 . S
C857 C841 1.349 . S
C857 H849 0.950 . S
C857 C855 1.327 . S
C858 C846 1.349 . S
C858 H852 0.950 . S
C858 C859 1.327 . S
C859 H853 0.950 . S
C859 C858 1.327 . S
C859 C863 1.429 . S
C860 C843 1.574 . S
C860 H854 0.949 . S
C860 C864 1.368 . S
C861 C842 1.429 . S
C861 C855 1.429 . S
C861 C862 1.523 . S
C862 C843 1.368 . S
C862 C856 1.368 . S
C862 C861 1.523 . S
C863 C847 1.429 . S
C863 C859 1.429 . S
C863 C864 1.523 . S
C864 C848 1.368 . S
C864 C860 1.368 . S
C864 C863 1.523 . S
H865 C840 0.950 . S
H866 C842 0.950 . S
H867 C843 0.949 . S
H868 C845 0.950 . S
H869 C847 0.950 . S
C870 C871 1.349 . S
C870 C872 1.327 . S
C870 H895 0.950 . S
C871 C870 1.349 . S
C871 C887 1.349 . S
C872 C870 1.327 . S
C872 C891 1.429 . S
C872 H896 0.950 . S
C873 C890 1.574 . S
C873 C892 1.368 . S
C873 H897 0.949 . S
H874 C878 0.949 . S
C875 C876 1.349 . S
C875 C877 1.327 . S
C875 H898 0.950 . S
C876 C875 1.349 . S
C876 C888 1.349 . S
C877 C875 1.327 . S
C877 C893 1.429 . S
C877 H899 0.950 . S
C878 H874 0.949 . S
C878 C886 1.574 . S
C878 C894 1.368 . S
H879 C887 0.950 . S
H880 C885 0.950 . S
H881 C886 0.949 . S
H882 C888 0.950 . S
H883 C889 0.950 . S
H884 C890 0.949 . S
C885 H880 0.950 . S
C885 C887 1.327 . S
C885 C891 1.429 . S
C886 C878 1.574 . S
C886 H881 0.949 . S
C886 C892 1.368 . S
C887 C871 1.349 . S
C887 H879 0.950 . S
C887 C885 1.327 . S
C888 C876 1.349 . S
C888 H882 0.950 . S
C888 C889 1.327 . S
C889 H883 0.950 . S
C889 C888 1.327 . S
C889 C893 1.429 . S
C890 C873 1.574 . S
C890 H884 0.949 . S
C890 C894 1.368 . S
C891 C872 1.429 . S
C891 C885 1.429 . S
C891 C892 1.523 . S
C892 C873 1.368 . S
C892 C886 1.368 . S
C892 C891 1.523 . S
C893 C877 1.429 . S
C893 C889 1.429 . S
C893 C894 1.523 . S
C894 C878 1.368 . S
C894 C890 1.368 . S
C894 C893 1.523 . S
H895 C870 0.950 . S
H896 C872 0.950 . S
H897 C873 0.949 . S
H898 C875 0.950 . S
H899 C877 0.950 . S
C900 C901 1.349 . S
C900 C902 1.327 . S
C900 H925 0.950 . S
C901 C900 1.349 . S
C901 C917 1.349 . S
C902 C900 1.327 . S
C902 C921 1.429 . S
C902 H926 0.950 . S
C903 C920 1.574 . S
C903 C922 1.368 . S
C903 H927 0.949 . S
H904 C908 0.949 . S
C905 C906 1.349 . S
C905 C907 1.327 . S
C905 H928 0.950 . S
C906 C905 1.349 . S
C906 C918 1.349 . S
C907 C905 1.327 . S
C907 C923 1.429 . S
C907 H929 0.950 . S
C908 H904 0.949 . S
C908 C916 1.574 . S
C908 C924 1.368 . S
H909 C917 0.950 . S
H910 C915 0.950 . S
H911 C916 0.949 . S
H912 C918 0.950 . S
H913 C919 0.950 . S
H914 C920 0.949 . S
C915 H910 0.950 . S
C915 C917 1.327 . S
C915 C921 1.429 . S
C916 C908 1.574 . S
C916 H911 0.949 . S
C916 C922 1.368 . S
C917 C901 1.349 . S
C917 H909 0.950 . S
C917 C915 1.327 . S
C918 C906 1.349 . S
C918 H912 0.950 . S
C918 C919 1.327 . S
C919 H913 0.950 . S
C919 C918 1.327 . S
C919 C923 1.429 . S
C920 C903 1.574 . S
C920 H914 0.949 . S
C920 C924 1.368 . S
C921 C902 1.429 . S
C921 C915 1.429 . S
C921 C922 1.523 . S
C922 C903 1.368 . S
C922 C916 1.368 . S
C922 C921 1.523 . S
C923 C907 1.429 . S
C923 C919 1.429 . S
C923 C924 1.523 . S
C924 C908 1.368 . S
C924 C920 1.368 . S
C924 C923 1.523 . S
H925 C900 0.950 . S
H926 C902 0.950 . S
H927 C903 0.949 . S
H928 C905 0.950 . S
H929 C907 0.950 . S
C930 C931 1.349 . S
C930 C932 1.327 . S
C930 H955 0.950 . S
C931 C930 1.349 . S
C931 C947 1.349 . S
C932 C930 1.327 . S
C932 C951 1.429 . S
C932 H956 0.950 . S
C933 C950 1.574 . S
C933 C952 1.368 . S
C933 H957 0.949 . S
H934 C938 0.949 . S
C935 C936 1.349 . S
C935 C937 1.327 . S
C935 H958 0.950 . S
C936 C935 1.349 . S
C936 C948 1.349 . S
C937 C935 1.327 . S
C937 C953 1.429 . S
C937 H959 0.950 . S
C938 H934 0.949 . S
C938 C946 1.574 . S
C938 C954 1.368 . S
H939 C947 0.950 . S
H940 C945 0.950 . S
H941 C946 0.949 . S
H942 C948 0.950 . S
H943 C949 0.950 . S
H944 C950 0.949 . S
C945 H940 0.950 . S
C945 C947 1.327 . S
C945 C951 1.429 . S
C946 C938 1.574 . S
C946 H941 0.949 . S
C946 C952 1.368 . S
C947 C931 1.349 . S
C947 H939 0.950 . S
C947 C945 1.327 . S
C948 C936 1.349 . S
C948 H942 0.950 . S
C948 C949 1.327 . S
C949 H943 0.950 . S
C949 C948 1.327 . S
C949 C953 1.429 . S
C950 C933 1.574 . S
C950 H944 0.949 . S
C950 C954 1.368 . S
C951 C932 1.429 . S
C951 C945 1.429 . S
C951 C952 1.523 . S
C952 C933 1.368 . S
C952 C946 1.368 . S
C952 C951 1.523 . S
C953 C937 1.429 . S
C953 C949 1.429 . S
C953 C954 1.523 . S
C954 C938 1.368 . S
C954 C950 1.368 . S
C954 C953 1.523 . S
H955 C930 0.950 . S
H956 C932 0.950 . S
H957 C933 0.949 . S
H958 C935 0.950 . S
H959 C937 0.950 . S
C960 C961 1.349 . S
C960 C962 1.327 . S
C960 H985 0.950 . S
C961 C960 1.349 . S
C961 C977 1.349 . S
C962 C960 1.327 . S
C962 C981 1.429 . S
C962 H986 0.950 . S
C963 C980 1.574 . S
C963 C982 1.368 . S
C963 H987 0.949 . S
H964 C968 0.949 . S
C965 C966 1.349 . S
C965 C967 1.327 . S
C965 H988 0.950 . S
C966 C965 1.349 . S
C966 C978 1.349 . S
C967 C965 1.327 . S
C967 C983 1.429 . S
C967 H989 0.950 . S
C968 H964 0.949 . S
C968 C976 1.574 . S
C968 C984 1.368 . S
H969 C977 0.950 . S
H970 C975 0.950 . S
H971 C976 0.949 . S
H972 C978 0.950 . S
H973 C979 0.950 . S
H974 C980 0.949 . S
C975 H970 0.950 . S
C975 C977 1.327 . S
C975 C981 1.429 . S
C976 C968 1.574 . S
C976 H971 0.949 . S
C976 C982 1.368 . S
C977 C961 1.349 . S
C977 H969 0.950 . S
C977 C975 1.327 . S
C978 C966 1.349 . S
C978 H972 0.950 . S
C978 C979 1.327 . S
C979 H973 0.950 . S
C979 C978 1.327 . S
C979 C983 1.429 . S
C980 C963 1.574 . S
C980 H974 0.949 . S
C980 C984 1.368 . S
C981 C962 1.429 . S
C981 C975 1.429 . S
C981 C982 1.523 . S
C982 C963 1.368 . S
C982 C976 1.368 . S
C982 C981 1.523 . S
C983 C967 1.429 . S
C983 C979 1.429 . S
C983 C984 1.523 . S
C984 C968 1.368 . S
C984 C980 1.368 . S
C984 C983 1.523 . S
H985 C960 0.950 . S
H986 C962 0.950 . S
H987 C963 0.949 . S
H988 C965 0.950 . S
H989 C967 0.950 . S
C990 C991 1.349 . S
C990 C992 1.327 . S
C990 H1015 0.950 . S
C991 C990 1.349 . S
C991 C1007 1.349 . S
C992 C990 1.327 . S
C992 C1011 1.429 . S
C992 H1016 0.950 . S
C993 C1010 1.574 . S
C993 C1012 1.368 . S
C993 H1017 0.949 . S
H994 C998 0.949 . S
C995 C996 1.349 . S
C995 C997 1.327 . S
C995 H1018 0.950 . S
C996 C995 1.349 . S
C996 C1008 1.349 . S
C997 C995 1.327 . S
C997 C1013 1.429 . S
C997 H1019 0.950 . S
C998 H994 0.949 . S
C998 C1006 1.574 . S
C998 C1014 1.368 . S
H999 C1007 0.950 . S
H1000 C1005 0.950 . S
H1001 C1006 0.949 . S
H1002 C1008 0.950 . S
H1003 C1009 0.950 . S
H1004 C1010 0.949 . S
C1005 H1000 0.950 . S
C1005 C1007 1.327 . S
C1005 C1011 1.429 . S
C1006 C998 1.574 . S
C1006 H1001 0.949 . S
C1006 C1012 1.368 . S
C1007 C991 1.349 . S
C1007 H999 0.950 . S
C1007 C1005 1.327 . S
C1008 C996 1.349 . S
C1008 H1002 0.950 . S
C1008 C1009 1.327 . S
C1009 H1003 0.950 . S
C1009 C1008 1.327 . S
C1009 C1013 1.429 . S
C1010 C993 1.574 . S
C1010 H1004 0.949 . S
C1010 C1014 1.368 . S
C1011 C992 1.429 . S
C1011 C1005 1.429 . S
C1011 C1012 1.523 . S
C1012 C993 1.368 . S
C1012 C1006 1.368 . S
C1012 C1011 1.523 . S
C1013 C997 1.429 . S
C1013 C1009 1.429 . S
C1013 C1014 1.523 . S
C1014 C998 1.368 . S
C1014 C1010 1.368 . S
C1014 C1013 1.523 . S
H1015 C990 0.950 . S
H1016 C992 0.950 . S
H1017 C993 0.949 . S
H1018 C995 0.950 . S
H1019 C997 0.950 . S
C1020 C1021 1.349 . S
C1020 C1022 1.327 . S
C1020 H1045 0.950 . S
C1021 C1020 1.349 . S
C1021 C1037 1.349 . S
C1022 C1020 1.327 . S
C1022 C1041 1.429 . S
C1022 H1046 0.950 . S
C1023 C1040 1.574 . S
C1023 C1042 1.368 . S
C1023 H1047 0.949 . S
H1024 C1028 0.949 . S
C1025 C1026 1.349 . S
C1025 C1027 1.327 . S
C1025 H1048 0.950 . S
C1026 C1025 1.349 . S
C1026 C1038 1.349 . S
C1027 C1025 1.327 . S
C1027 C1043 1.429 . S
C1027 H1049 0.950 . S
C1028 H1024 0.949 . S
C1028 C1036 1.574 . S
C1028 C1044 1.368 . S
H1029 C1037 0.950 . S
H1030 C1035 0.950 . S
H1031 C1036 0.949 . S
H1032 C1038 0.950 . S
H1033 C1039 0.950 . S
H1034 C1040 0.949 . S
C1035 H1030 0.950 . S
C1035 C1037 1.327 . S
C1035 C1041 1.429 . S
C1036 C1028 1.574 . S
C1036 H1031 0.949 . S
C1036 C1042 1.368 . S
C1037 C1021 1.349 . S
C1037 H1029 0.950 . S
C1037 C1035 1.327 . S
C1038 C1026 1.349 . S
C1038 H1032 0.950 . S
C1038 C1039 1.327 . S
C1039 H1033 0.950 . S
C1039 C1038 1.327 . S
C1039 C1043 1.429 . S
C1040 C1023 1.574 . S
C1040 H1034 0.949 . S
C1040 C1044 1.368 . S
C1041 C1022 1.429 . S
C1041 C1035 1.429 . S
C1041 C1042 1.523 . S
C1042 C1023 1.368 . S
C1042 C1036 1.368 . S
C1042 C1041 1.523 . S
C1043 C1027 1.429 . S
C1043 C1039 1.429 . S
C1043 C1044 1.523 . S
C1044 C1028 1.368 . S
C1044 C1040 1.368 . S
C1044 C1043 1.523 . S
H1045 C1020 0.950 . S
H1046 C1022 0.950 . S
H1047 C1023 0.949 . S
H1048 C1025 0.950 . S
H1049 C1027 0.950 . S
C1050 C1051 1.349 . S
C1050 C1052 1.327 . S
C1050 H1075 0.950 . S
C1051 C1050 1.349 . S
C1051 C1067 1.349 . S
C1052 C1050 1.327 . S
C1052 C1071 1.429 . S
C1052 H1076 0.950 . S
C1053 C1070 1.574 . S
C1053 C1072 1.368 . S
C1053 H1077 0.949 . S
H1054 C1058 0.949 . S
C1055 C1056 1.349 . S
C1055 C1057 1.327 . S
C1055 H1078 0.950 . S
C1056 C1055 1.349 . S
C1056 C1068 1.349 . S
C1057 C1055 1.327 . S
C1057 C1073 1.429 . S
C1057 H1079 0.950 . S
C1058 H1054 0.949 . S
C1058 C1066 1.574 . S
C1058 C1074 1.368 . S
H1059 C1067 0.950 . S
H1060 C1065 0.950 . S
H1061 C1066 0.949 . S
H1062 C1068 0.950 . S
H1063 C1069 0.950 . S
H1064 C1070 0.949 . S
C1065 H1060 0.950 . S
C1065 C1067 1.327 . S
C1065 C1071 1.429 . S
C1066 C1058 1.574 . S
C1066 H1061 0.949 . S
C1066 C1072 1.368 . S
C1067 C1051 1.349 . S
C1067 H1059 0.950 . S
C1067 C1065 1.327 . S
C1068 C1056 1.349 . S
C1068 H1062 0.950 . S
C1068 C1069 1.327 . S
C1069 H1063 0.950 . S
C1069 C1068 1.327 . S
C1069 C1073 1.429 . S
C1070 C1053 1.574 . S
C1070 H1064 0.949 . S
C1070 C1074 1.368 . S
C1071 C1052 1.429 . S
C1071 C1065 1.429 . S
C1071 C1072 1.523 . S
C1072 C1053 1.368 . S
C1072 C1066 1.368 . S
C1072 C1071 1.523 . S
C1073 C1057 1.429 . S
C1073 C1069 1.429 . S
C1073 C1074 1.523 . S
C1074 C1058 1.368 . S
C1074 C1070 1.368 . S
C1074 C1073 1.523 . S
H1075 C1050 0.950 . S
H1076 C1052 0.950 . S
H1077 C1053 0.949 . S
H1078 C1055 0.950 . S
H1079 C1057 0.950 . S
C361 C13 1.750 . S
C366 C106 1.727 . S
C391 C27 1.750 . S
C396 C145 1.727 . S
C426 C177 1.710 . S
C421 C29 1.749 . S
C456 C223 1.710 . S
C451 C54 1.750 . S
C486 C290 1.727 . S
C481 C69 1.750 . S
C516 C329 1.727 . S
C511 C83 1.749 . S
C541 C15 1.749 . S
C546 C191 1.727 . S
C571 C41 1.749 . S
C576 C237 1.727 . S
C606 C276 1.711 . S
C601 C42 1.750 . S
C636 C315 1.711 . S
C631 C57 1.750 . S
C661 C71 1.749 . S
C666 C92 1.710 . S
C696 C131 1.711 . S
C691 C1 1.750 . S
C726 C230 1.727 . S
C721 C12 1.750 . S
C751 C26 1.749 . S
C756 C283 1.710 . S
C786 C336 1.711 . S
C781 C28 1.750 . S
C811 C55 1.750 . S
C816 C99 1.711 . S
C841 C68 1.749 . S
C846 C152 1.710 . S
C871 C82 1.750 . S
C876 C184 1.727 . S
C901 C14 1.750 . S
C906 C322 1.727 . S
C936 C85 1.727 . S
C931 C40 1.750 . S
C961 C43 1.750 . S
C966 C138 1.727 . S
C991 C56 1.750 . S
C996 C198 1.710 . S
C1021 C70 1.750 . S
C1026 C244 1.711 . S
C1051 C0 1.749 . S
C1056 C269 1.727 . S
