# Generated by pormake.
# Topology ctn, (3,4)-cn, num edge types: 1
# Building blocks:
#     Node 0, Type 0, BuildingBlock: QEWDON_clean_linker_0, # of connection points: 3
#     Node 1, Type 0, BuildingBlock: QEWDON_clean_linker_0, # of connection points: 3
#     Node 2, Type 0, BuildingBlock: QEWDON_clean_linker_0, # of connection points: 3
#     Node 3, Type 0, BuildingBlock: QEWDON_clean_linker_0, # of connection points: 3
#     Node 4, Type 0, BuildingBlock: QEWDON_clean_linker_0, # of connection points: 3
#     Node 5, Type 0, BuildingBlock: QEWDON_clean_linker_0, # of connection points: 3
#     Node 6, Type 0, BuildingBlock: QEWDON_clean_linker_0, # of connection points: 3
#     Node 7, Type 0, BuildingBlock: QEWDON_clean_linker_0, # of connection points: 3
#     Node 8, Type 0, BuildingBlock: QEWDON_clean_linker_0, # of connection points: 3
#     Node 9, Type 0, BuildingBlock: QEWDON_clean_linker_0, # of connection points: 3
#     Node 10, Type 0, BuildingBlock: QEWDON_clean_linker_0, # of connection points: 3
#     Node 11, Type 0, BuildingBlock: QEWDON_clean_linker_0, # of connection points: 3
#     Node 12, Type 0, BuildingBlock: QEWDON_clean_linker_0, # of connection points: 3
#     Node 13, Type 0, BuildingBlock: QEWDON_clean_linker_0, # of connection points: 3
#     Node 14, Type 0, BuildingBlock: QEWDON_clean_linker_0, # of connection points: 3
#     Node 15, Type 0, BuildingBlock: QEWDON_clean_linker_0, # of connection points: 3
#     Node 16, Type 1, BuildingBlock: KUFVIS_clean_sbu_0, # of connection points: 4
#     Node 17, Type 1, BuildingBlock: KUFVIS_clean_sbu_0, # of connection points: 4
#     Node 18, Type 1, BuildingBlock: KUFVIS_clean_sbu_0, # of connection points: 4
#     Node 19, Type 1, BuildingBlock: KUFVIS_clean_sbu_0, # of connection points: 4
#     Node 20, Type 1, BuildingBlock: KUFVIS_clean_sbu_0, # of connection points: 4
#     Node 21, Type 1, BuildingBlock: KUFVIS_clean_sbu_0, # of connection points: 4
#     Node 22, Type 1, BuildingBlock: KUFVIS_clean_sbu_0, # of connection points: 4
#     Node 23, Type 1, BuildingBlock: KUFVIS_clean_sbu_0, # of connection points: 4
#     Node 24, Type 1, BuildingBlock: KUFVIS_clean_sbu_0, # of connection points: 4
#     Node 25, Type 1, BuildingBlock: KUFVIS_clean_sbu_0, # of connection points: 4
#     Node 26, Type 1, BuildingBlock: KUFVIS_clean_sbu_0, # of connection points: 4
#     Node 27, Type 1, BuildingBlock: KUFVIS_clean_sbu_0, # of connection points: 4
#     Edge 28, Type (0, 1), BuildingBlock: XIVTED_clean_linker_0, # of connection points: 2
#     Edge 29, Type (0, 1), BuildingBlock: XIVTED_clean_linker_0, # of connection points: 2
#     Edge 30, Type (0, 1), BuildingBlock: XIVTED_clean_linker_0, # of connection points: 2
#     Edge 31, Type (0, 1), BuildingBlock: XIVTED_clean_linker_0, # of connection points: 2
#     Edge 32, Type (0, 1), BuildingBlock: XIVTED_clean_linker_0, # of connection points: 2
#     Edge 33, Type (0, 1), BuildingBlock: XIVTED_clean_linker_0, # of connection points: 2
#     Edge 34, Type (0, 1), BuildingBlock: XIVTED_clean_linker_0, # of connection points: 2
#     Edge 35, Type (0, 1), BuildingBlock: XIVTED_clean_linker_0, # of connection points: 2
#     Edge 36, Type (0, 1), BuildingBlock: XIVTED_clean_linker_0, # of connection points: 2
#     Edge 37, Type (0, 1), BuildingBlock: XIVTED_clean_linker_0, # of connection points: 2
#     Edge 38, Type (0, 1), BuildingBlock: XIVTED_clean_linker_0, # of connection points: 2
#     Edge 39, Type (0, 1), BuildingBlock: XIVTED_clean_linker_0, # of connection points: 2
#     Edge 40, Type (0, 1), BuildingBlock: XIVTED_clean_linker_0, # of connection points: 2
#     Edge 41, Type (0, 1), BuildingBlock: XIVTED_clean_linker_0, # of connection points: 2
#     Edge 42, Type (0, 1), BuildingBlock: XIVTED_clean_linker_0, # of connection points: 2
#     Edge 43, Type (0, 1), BuildingBlock: XIVTED_clean_linker_0, # of connection points: 2
#     Edge 44, Type (0, 1), BuildingBlock: XIVTED_clean_linker_0, # of connection points: 2
#     Edge 45, Type (0, 1), BuildingBlock: XIVTED_clean_linker_0, # of connection points: 2
#     Edge 46, Type (0, 1), BuildingBlock: XIVTED_clean_linker_0, # of connection points: 2
#     Edge 47, Type (0, 1), BuildingBlock: XIVTED_clean_linker_0, # of connection points: 2
#     Edge 48, Type (0, 1), BuildingBlock: XIVTED_clean_linker_0, # of connection points: 2
#     Edge 49, Type (0, 1), BuildingBlock: XIVTED_clean_linker_0, # of connection points: 2
#     Edge 50, Type (0, 1), BuildingBlock: XIVTED_clean_linker_0, # of connection points: 2
#     Edge 51, Type (0, 1), BuildingBlock: XIVTED_clean_linker_0, # of connection points: 2
#     Edge 52, Type (0, 1), BuildingBlock: XIVTED_clean_linker_0, # of connection points: 2
#     Edge 53, Type (0, 1), BuildingBlock: XIVTED_clean_linker_0, # of connection points: 2
#     Edge 54, Type (0, 1), BuildingBlock: XIVTED_clean_linker_0, # of connection points: 2
#     Edge 55, Type (0, 1), BuildingBlock: XIVTED_clean_linker_0, # of connection points: 2
#     Edge 56, Type (0, 1), BuildingBlock: XIVTED_clean_linker_0, # of connection points: 2
#     Edge 57, Type (0, 1), BuildingBlock: XIVTED_clean_linker_0, # of connection points: 2
#     Edge 58, Type (0, 1), BuildingBlock: XIVTED_clean_linker_0, # of connection points: 2
#     Edge 59, Type (0, 1), BuildingBlock: XIVTED_clean_linker_0, # of connection points: 2
#     Edge 60, Type (0, 1), BuildingBlock: XIVTED_clean_linker_0, # of connection points: 2
#     Edge 61, Type (0, 1), BuildingBlock: XIVTED_clean_linker_0, # of connection points: 2
#     Edge 62, Type (0, 1), BuildingBlock: XIVTED_clean_linker_0, # of connection points: 2
#     Edge 63, Type (0, 1), BuildingBlock: XIVTED_clean_linker_0, # of connection points: 2
#     Edge 64, Type (0, 1), BuildingBlock: XIVTED_clean_linker_0, # of connection points: 2
#     Edge 65, Type (0, 1), BuildingBlock: XIVTED_clean_linker_0, # of connection points: 2
#     Edge 66, Type (0, 1), BuildingBlock: XIVTED_clean_linker_0, # of connection points: 2
#     Edge 67, Type (0, 1), BuildingBlock: XIVTED_clean_linker_0, # of connection points: 2
#     Edge 68, Type (0, 1), BuildingBlock: XIVTED_clean_linker_0, # of connection points: 2
#     Edge 69, Type (0, 1), BuildingBlock: XIVTED_clean_linker_0, # of connection points: 2
#     Edge 70, Type (0, 1), BuildingBlock: XIVTED_clean_linker_0, # of connection points: 2
#     Edge 71, Type (0, 1), BuildingBlock: XIVTED_clean_linker_0, # of connection points: 2
#     Edge 72, Type (0, 1), BuildingBlock: XIVTED_clean_linker_0, # of connection points: 2
#     Edge 73, Type (0, 1), BuildingBlock: XIVTED_clean_linker_0, # of connection points: 2
#     Edge 74, Type (0, 1), BuildingBlock: XIVTED_clean_linker_0, # of connection points: 2
#     Edge 75, Type (0, 1), BuildingBlock: XIVTED_clean_linker_0, # of connection points: 2
# Relax obj value: 0.125
# Max RMSD: 0.269
# Mean RMSD: 0.161
data_MOF--net-ctn--node1-KUFVIS_clean_sbu_0--node2-QEWDON_clean_linker_0--edge1-XIVTED_clean_linker_0
_symmetry_space_group_name_H-M    P1
_symmetry_Int_Tables_number       1
_symmetry_cell_setting            triclinic
loop_
_symmetry_equiv_pos_as_xyz
'x, y, z'
_cell_length_a     52.236524
_cell_length_b     54.554031
_cell_length_c     58.346064
_cell_angle_alpha  99.277482
_cell_angle_beta   92.59499
_cell_angle_gamma 96.935448
loop_
_atom_site_label
_atom_site_type_symbol
_atom_site_fract_x
_atom_site_fract_y
_atom_site_fract_z
_atom_type_partial_charge
H0 H 0.10104 0.03896 0.04896 0.0
C1 C 0.09137 0.03421 0.06398 0.0
C2 C 0.09434 0.0115 0.07187 0.0
C3 C 0.07692 0.05157 0.076 0.0
H4 H 0.08406 0.98919 0.09844 0.0
C5 C 0.08138 0.00607 0.0916 0.0
C6 C 0.06605 0.023 0.10339 0.0
C7 C 0.064 0.04563 0.0953 0.0
C8 C 0.07786 0.07722 0.07039 0.0
H9 H 0.05242 0.05897 0.10413 0.0
C10 C 0.07125 0.08151 0.0478 0.0
C11 C 0.07327 0.10617 0.04306 0.0
C12 C 0.08625 0.09776 0.08804 0.0
H13 H 0.0916 0.09492 0.10549 0.0
C14 C 0.08835 0.12212 0.0833 0.0
H15 H 0.06466 0.06584 0.03405 0.0
C16 C 0.08202 0.12633 0.06094 0.0
H17 H 0.08366 0.14543 0.05762 0.0
H18 H 0.09497 0.13779 0.09699 0.0
H19 H 0.37728 0.73581 0.22211 0.0
C20 C 0.36436 0.71838 0.22001 0.0
C21 C 0.3723 0.6975 0.22843 0.0
C22 C 0.33902 0.71757 0.21056 0.0
H23 H 0.36019 0.65954 0.23333 0.0
C24 C 0.35472 0.67548 0.22625 0.0
C25 C 0.32931 0.67446 0.21684 0.0
C26 C 0.3217 0.69551 0.20877 0.0
C27 C 0.32888 0.74109 0.20782 0.0
H28 H 0.30173 0.69546 0.20278 0.0
C29 C 0.3328 0.75236 0.18797 0.0
C30 C 0.32256 0.77481 0.18604 0.0
C31 C 0.31484 0.75226 0.22567 0.0
H32 H 0.31169 0.74378 0.24105 0.0
C33 C 0.30476 0.77439 0.22388 0.0
H34 H 0.3437 0.74373 0.17421 0.0
C35 C 0.30849 0.78557 0.20424 0.0
H36 H 0.29986 0.80246 0.20312 0.0
H37 H 0.29383 0.78282 0.23769 0.0
H38 H 0.04593 0.48127 0.05593 0.0
C39 C 0.03005 0.49146 0.05234 0.0
C40 C 0.01922 0.50593 0.07069 0.0
C41 C 0.02176 0.49128 0.02916 0.0
H42 H 0.99159 0.53182 0.07932 0.0
C43 C 0.99962 0.52027 0.06531 0.0
C44 C 0.99074 0.52006 0.042 0.0
C45 C 1.00191 0.50512 0.02416 0.0
C46 C 0.03521 0.47827 0.00995 0.0
H47 H 0.99526 0.50403 0.00614 0.0
C48 C 0.03696 0.45246 0.00767 0.0
C49 C 0.0496 0.44032 0.98909 0.0
C50 C 0.04644 0.49195 0.99372 0.0
H51 H 0.04539 0.51186 0.99523 0.0
C52 C 0.05935 0.48015 0.97555 0.0
H53 H 0.02824 0.44187 0.02016 0.0
C54 C 0.0609 0.45453 0.97318 0.0
H55 H 0.07038 0.44573 0.95849 0.0
H56 H 0.06795 0.49084 0.96312 0.0
H57 H 0.75864 0.82344 0.22452 0.0
C58 C 0.75892 0.81613 0.20616 0.0
C59 C 0.77079 0.83115 0.19104 0.0
C60 C 0.74877 0.79106 0.19807 0.0
H61 H 0.78085 0.83157 0.15542 0.0
C62 C 0.7711 0.82082 0.16728 0.0
C63 C 0.75974 0.79614 0.15877 0.0
C64 C 0.74858 0.7815 0.17427 0.0
C65 C 0.7417 0.77387 0.21474 0.0
H66 H 0.74088 0.76209 0.16797 0.0
C67 C 0.72588 0.78036 0.23313 0.0
C68 C 0.72052 0.76413 0.24931 0.0
C69 C 0.752 0.75101 0.21274 0.0
H70 H 0.76458 0.74573 0.19904 0.0
C71 C 0.7467 0.73494 0.22869 0.0
H72 H 0.71788 0.79795 0.23487 0.0
C73 C 0.73111 0.74141 0.24686 0.0
H74 H 0.727 0.7284 0.25882 0.0
H75 H 0.75476 0.71741 0.22699 0.0
H76 H 0.11346 0.9728 0.49799 0.0
C77 C 0.09949 0.978 0.48593 0.0
C78 C 0.10554 0.99966 0.47596 0.0
C79 C 0.0767 0.96162 0.47848 0.0
H80 H 0.093 0.02148 0.45081 0.0
C81 C 0.08804 1.00525 0.45905 0.0
C82 C 0.06528 0.98899 0.45133 0.0
C83 C 0.05967 0.96735 0.46137 0.0
C84 C 0.07368 0.93589 0.48389 0.0
H85 H 0.04271 0.9541 0.45491 0.0
C86 C 0.06298 0.92992 0.50441 0.0
C87 C 0.05856 0.90467 0.50762 0.0
C88 C 0.08051 0.91668 0.46715 0.0
H89 H 0.0887 0.92094 0.45129 0.0
C90 C 0.07656 0.89185 0.47053 0.0
H91 H 0.05745 0.94461 0.51733 0.0
C92 C 0.06551 0.88584 0.49052 0.0
H93 H 0.06246 0.86636 0.4927 0.0
H94 H 0.08185 0.87718 0.45749 0.0
H95 H 0.27596 0.67285 0.78588 0.0
C96 C 0.27182 0.68404 0.80207 0.0
C97 C 0.28285 0.67963 0.82312 0.0
C98 C 0.25669 0.70361 0.80158 0.0
H99 H 0.28704 0.69138 0.86026 0.0
C100 C 0.27829 0.6947 0.84402 0.0
C101 C 0.26248 0.71391 0.84404 0.0
C102 C 0.25157 0.71807 0.82268 0.0
C103 C 0.24919 0.7108 0.77894 0.0
H104 H 0.24051 0.73361 0.82234 0.0
C105 C 0.22389 0.71569 0.77351 0.0
C106 C 0.21769 0.72324 0.75212 0.0
C107 C 0.26806 0.71352 0.76277 0.0
H108 H 0.28773 0.71025 0.76661 0.0
C109 C 0.26198 0.72097 0.74167 0.0
H110 H 0.20918 0.71369 0.78583 0.0
C111 C 0.23702 0.72583 0.73636 0.0
H112 H 0.23273 0.73129 0.71969 0.0
H113 H 0.27668 0.72302 0.72938 0.0
H114 H 0.98922 0.58172 0.47154 0.0
C115 C 0.97722 0.56833 0.4796 0.0
C116 C 0.97015 0.57516 0.50259 0.0
C117 C 0.96676 0.54505 0.46638 0.0
H118 H 0.94715 0.56357 0.52981 0.0
C119 C 0.95311 0.55827 0.51233 0.0
C120 C 0.94325 0.53478 0.49956 0.0
C121 C 0.95049 0.52818 0.47679 0.0
C122 C 0.96879 0.53955 0.4408 0.0
H123 H 0.94198 0.51044 0.46654 0.0
C124 C 0.99275 0.53895 0.43059 0.0
C125 C 0.99336 0.53127 0.40632 0.0
C126 C 0.94578 0.53359 0.42643 0.0
H127 H 0.92716 0.53423 0.43381 0.0
C128 C 0.94644 0.52657 0.40248 0.0
H129 H 0.01061 0.54345 0.44145 0.0
C130 C 0.97001 0.5252 0.39249 0.0
H131 H 0.97003 0.5196 0.3738 0.0
H132 H 0.92859 0.52198 0.39163 0.0
H133 H 0.85308 0.83386 0.80775 0.0
C134 C 0.85089 0.81923 0.81832 0.0
C135 C 0.8653 0.79886 0.81409 0.0
C136 C 0.83509 0.82178 0.83726 0.0
H137 H 0.87362 0.76466 0.82564 0.0
C138 C 0.86291 0.78056 0.82873 0.0
C139 C 0.8474 0.78294 0.8478 0.0
C140 C 0.83346 0.80347 0.85177 0.0
C141 C 0.82241 0.84474 0.84368 0.0
H142 H 0.82132 0.80529 0.86638 0.0
C143 C 0.80792 0.85475 0.82716 0.0
C144 C 0.79652 0.87673 0.83411 0.0
C145 C 0.82519 0.857 0.86698 0.0
H146 H 0.83648 0.85003 0.87997 0.0
C147 C 0.81383 0.87859 0.8738 0.0
H148 H 0.80564 0.84564 0.80913 0.0
C149 C 0.79965 0.88843 0.85753 0.0
H150 H 0.79105 0.9053 0.86324 0.0
H151 H 0.81616 0.88783 0.89177 0.0
H152 H 0.37151 0.34155 0.30361 0.0
C153 C 0.36742 0.32765 0.31474 0.0
C154 C 0.37762 0.30468 0.31038 0.0
C155 C 0.35241 0.33307 0.33382 0.0
H156 H 0.37986 0.26927 0.32227 0.0
C157 C 0.37214 0.28699 0.32533 0.0
C158 C 0.35668 0.29202 0.34423 0.0
C159 C 0.34716 0.31523 0.34836 0.0
C160 C 0.34459 0.35831 0.34048 0.0
H161 H 0.33597 0.31976 0.36332 0.0
C162 C 0.32665 0.36787 0.32655 0.0
C163 C 0.31919 0.39177 0.33403 0.0
C164 C 0.35488 0.37272 0.36175 0.0
H165 H 0.36861 0.36567 0.3727 0.0
C166 C 0.34761 0.39628 0.36913 0.0
H167 H 0.31855 0.35679 0.31015 0.0
C168 C 0.32991 0.40574 0.35546 0.0
H169 H 0.32433 0.42397 0.36185 0.0
H170 H 0.35562 0.40721 0.38559 0.0
H171 H 0.54342 0.98529 0.54736 0.0
C172 C 0.52772 0.99577 0.54393 0.0
C173 C 0.51725 0.01035 0.56243 0.0
C174 C 0.51921 0.9957 0.52083 0.0
H175 H 0.49017 0.03669 0.57144 0.0
C176 C 0.49788 0.02503 0.5573 0.0
C177 C 0.48873 0.02492 0.53406 0.0
C178 C 0.49951 0.00982 0.51607 0.0
C179 C 0.53204 0.98215 0.50144 0.0
H180 H 0.49257 0.00873 0.49813 0.0
C181 C 0.53448 0.95655 0.50006 0.0
C182 C 0.54651 0.94384 0.48137 0.0
C183 C 0.54203 0.99507 0.48417 0.0
H184 H 0.54052 0.01483 0.48498 0.0
C185 C 0.55433 0.98272 0.46587 0.0
H186 H 0.52675 0.94654 0.51335 0.0
C187 C 0.55653 0.9573 0.46439 0.0
H188 H 0.56549 0.94804 0.44959 0.0
H189 H 0.56197 0.99282 0.45263 0.0
H190 H 0.26307 0.31971 0.73158 0.0
C191 C 0.26319 0.31212 0.71326 0.0
C192 C 0.27524 0.32669 0.69789 0.0
C193 C 0.25251 0.28714 0.70544 0.0
H194 H 0.28505 0.32644 0.66213 0.0
C195 C 0.27526 0.31601 0.6742 0.0
C196 C 0.26347 0.29144 0.66598 0.0
C197 C 0.25215 0.2772 0.68171 0.0
C198 C 0.24482 0.27041 0.7223 0.0
H199 H 0.24406 0.25785 0.67564 0.0
C200 C 0.22827 0.27723 0.73998 0.0
C201 C 0.22198 0.26126 0.75621 0.0
C202 C 0.255 0.24755 0.72105 0.0
H203 H 0.26807 0.24204 0.70783 0.0
C204 C 0.24887 0.23178 0.73708 0.0
H205 H 0.22036 0.29483 0.7411 0.0
C206 C 0.23249 0.23853 0.75454 0.0
H207 H 0.22768 0.2257 0.76653 0.0
H208 H 0.25683 0.21424 0.73596 0.0
H209 H 0.87685 0.23519 0.72521 0.0
C210 C 0.86415 0.21759 0.72229 0.0
C211 C 0.87197 0.1965 0.73039 0.0
C212 C 0.83916 0.21677 0.71209 0.0
H213 H 0.86005 0.15803 0.73373 0.0
C214 C 0.85468 0.17419 0.72698 0.0
C215 C 0.8296 0.1731 0.71672 0.0
C216 C 0.82208 0.19445 0.70909 0.0
C217 C 0.829 0.24045 0.71012 0.0
H218 H 0.80229 0.19436 0.70256 0.0
C219 C 0.83106 0.25142 0.68992 0.0
C220 C 0.82162 0.27446 0.68909 0.0
C221 C 0.81736 0.25238 0.72929 0.0
H222 H 0.81567 0.24413 0.74495 0.0
C223 C 0.80789 0.27502 0.72849 0.0
H224 H 0.84017 0.24225 0.67516 0.0
C225 C 0.80998 0.28601 0.70858 0.0
H226 H 0.80208 0.30344 0.70833 0.0
H227 H 0.79885 0.28406 0.74332 0.0
H228 H 0.60174 0.54058 0.54635 0.0
C229 C 0.59189 0.53645 0.56148 0.0
C230 C 0.59385 0.51371 0.56964 0.0
C231 C 0.57819 0.5546 0.57334 0.0
H232 H 0.58287 0.49232 0.59665 0.0
C233 C 0.58079 0.50917 0.58956 0.0
C234 C 0.56612 0.52685 0.60118 0.0
C235 C 0.56501 0.54947 0.59278 0.0
C236 C 0.58028 0.58019 0.56745 0.0
H237 H 0.55399 0.56342 0.60144 0.0
C238 C 0.57361 0.5845 0.54487 0.0
C239 C 0.57675 0.60909 0.53987 0.0
C240 C 0.58983 0.60063 0.58483 0.0
H241 H 0.59523 0.59775 0.60226 0.0
C242 C 0.59304 0.62489 0.57984 0.0
H243 H 0.56611 0.56891 0.53134 0.0
C244 C 0.58666 0.62912 0.5575 0.0
H245 H 0.58914 0.64816 0.55402 0.0
H246 H 0.60056 0.64047 0.59333 0.0
H247 H 0.60709 0.46807 0.99688 0.0
C248 C 0.59545 0.47518 0.98421 0.0
C249 C 0.60545 0.4966 0.97524 0.0
C250 C 0.57149 0.4616 0.97515 0.0
H251 H 0.59857 0.52108 0.9506 0.0
C252 C 0.59087 0.50474 0.95772 0.0
C253 C 0.56675 0.49175 0.9489 0.0
C254 C 0.55705 0.47041 0.95791 0.0
C255 C 0.56345 0.43604 0.98018 0.0
H256 H 0.53894 0.45964 0.95043 0.0
C257 C 0.55909 0.43124 1.00288 0.0
C258 C 0.55006 0.40668 0.00628 0.0
C259 C 0.55953 0.41602 0.96136 0.0
H260 H 0.56303 0.41917 0.94383 0.0
C261 C 0.5511 0.39179 0.96485 0.0
H262 H 0.56191 0.44646 0.01755 0.0
C263 C 0.54623 0.38715 0.98711 0.0
H264 H 0.53938 0.3682 0.98942 0.0
H265 H 0.54814 0.37656 0.95021 0.0
H266 H 0.78551 0.18528 0.28727 0.0
C267 C 0.77913 0.19248 0.30419 0.0
C268 C 0.78793 0.18359 0.32407 0.0
C269 C 0.76272 0.21114 0.30595 0.0
H270 H 0.78738 0.18767 0.36146 0.0
C271 C 0.78006 0.19383 0.34596 0.0
C272 C 0.76395 0.21296 0.34806 0.0
C273 C 0.75492 0.22105 0.32781 0.0
C274 C 0.75757 0.22337 0.28568 0.0
H275 H 0.74349 0.23648 0.32919 0.0
C276 C 0.73253 0.22154 0.27495 0.0
C277 C 0.72817 0.23399 0.25593 0.0
C278 C 0.77818 0.23774 0.27751 0.0
H279 H 0.79752 0.23944 0.28565 0.0
C280 C 0.77396 0.25053 0.25918 0.0
H281 H 0.71679 0.21005 0.28111 0.0
C282 C 0.74922 0.24885 0.24856 0.0
H283 H 0.74665 0.25947 0.23468 0.0
H284 H 0.78991 0.26193 0.25323 0.0
H285 H 0.49275 0.07966 0.9647 0.0
C286 C 0.48096 0.06678 0.97347 0.0
C287 C 0.47488 0.07446 0.99662 0.0
C288 C 0.46974 0.04334 0.96105 0.0
H289 H 0.45275 0.06441 0.02491 0.0
C290 C 0.45804 0.05833 0.00733 0.0
C291 C 0.44749 0.03466 0.99539 0.0
C292 C 0.45379 0.02716 0.97247 0.0
C293 C 0.47076 0.03694 0.9354 0.0
H294 H 0.44477 0.00926 0.96289 0.0
C295 C 0.49428 0.03674 0.9244 0.0
C296 C 0.49409 0.02847 0.90014 0.0
C297 C 0.4473 0.02996 0.92176 0.0
H298 H 0.42897 0.03036 0.9297 0.0
C299 C 0.44713 0.02234 0.89782 0.0
H300 H 0.51249 0.04204 0.93468 0.0
C301 C 0.4703 0.0214 0.88708 0.0
H302 H 0.46964 0.0154 0.86841 0.0
H303 H 0.42894 0.017 0.88756 0.0
Mn304 Mn 0.26398 0.8692 0.01992 0.0
Mn305 Mn 0.2608 0.8894 0.96826 0.0
C306 C 0.24949 0.8414 0.9861 0.0
C307 C 0.28552 0.85379 0.04933 0.0
C308 C 0.22343 0.90106 1.00559 0.0
O309 O 0.2885 0.90214 0.02581 0.0
O310 O 0.28665 0.91269 0.98985 0.0
C311 C 0.31304 0.8816 0.95332 0.0
N312 N 0.28688 0.87679 0.94941 0.0
C313 C 0.29063 0.8496 0.91323 0.0
C314 C 0.31762 0.85437 0.91681 0.0
C315 C 0.32886 0.87041 0.93695 0.0
C316 C 0.27585 0.86137 0.9301 0.0
H317 H 0.32177 0.89382 0.96883 0.0
C318 C 0.29552 0.91632 0.01115 0.0
O319 O 0.26629 0.86647 0.05336 0.0
O320 O 0.29265 0.8502 0.02813 0.0
N321 N 0.23665 0.86792 0.94591 0.0
C322 C 0.21038 0.86405 0.94582 0.0
C323 C 0.19616 0.8479 0.92716 0.0
C324 C 0.20908 0.83596 0.90879 0.0
C325 C 0.23612 0.8403 0.90924 0.0
C326 C 0.24925 0.85674 0.9282 0.0
H327 H 0.20037 0.87313 0.95992 0.0
O328 O 0.24261 0.83642 0.00616 0.0
O329 O 0.26375 0.86266 0.98664 0.0
O330 O 0.23244 0.88804 0.01953 0.0
O331 O 0.23284 0.9033 0.9861 0.0
C332 C 0.25058 0.82855 0.89187 0.0
C333 C 0.27782 0.83317 0.89388 0.0
H334 H 0.32989 0.84565 0.90431 0.0
H335 H 0.34968 0.87408 0.93989 0.0
H336 H 0.1753 0.84459 0.92697 0.0
H337 H 0.19806 0.82333 0.89455 0.0
H338 H 0.24097 0.81563 0.87708 0.0
H339 H 0.28874 0.82372 0.8806 0.0
Mn340 Mn 0.16165 0.5126 0.25524 0.0
Mn341 Mn 0.14733 0.57173 0.25925 0.0
C342 C 0.18743 0.54193 0.23891 0.0
C343 C 0.18465 0.48449 0.27166 0.0
C344 C 0.11859 0.52772 0.22515 0.0
O345 O 0.13609 0.51483 0.28089 0.0
O346 O 0.13106 0.55572 0.28421 0.0
C347 C 0.17606 0.59355 0.30425 0.0
N348 N 0.17153 0.59369 0.2811 0.0
C349 C 0.20411 0.62917 0.2824 0.0
C350 C 0.20894 0.62955 0.3063 0.0
C351 C 0.19489 0.61163 0.31725 0.0
C352 C 0.185 0.61081 0.27037 0.0
H353 H 0.16547 0.57969 0.3127 0.0
C354 C 0.12711 0.53437 0.29084 0.0
O355 O 0.16508 0.47631 0.25664 0.0
O356 O 0.18965 0.5085 0.27771 0.0
N357 N 0.16228 0.58949 0.23631 0.0
C358 C 0.15614 0.58585 0.21295 0.0
C359 C 0.16887 0.60191 0.19933 0.0
C360 C 0.18768 0.62158 0.20986 0.0
C361 C 0.1935 0.62511 0.23395 0.0
C362 C 0.17997 0.60869 0.24668 0.0
H363 H 0.14173 0.57076 0.20473 0.0
O364 O 0.18802 0.51823 0.232 0.0
O365 O 0.17197 0.54758 0.25515 0.0
O366 O 0.13205 0.51086 0.23004 0.0
O367 O 0.12219 0.5504 0.23581 0.0
C368 C 0.21253 0.64398 0.24577 0.0
C369 C 0.21787 0.64597 0.26996 0.0
H370 H 0.22357 0.64335 0.31636 0.0
H371 H 0.19863 0.61169 0.33566 0.0
H372 H 0.16428 0.59905 0.18074 0.0
H373 H 0.19766 0.63375 0.19925 0.0
H374 H 0.22343 0.65684 0.23635 0.0
H375 H 0.23281 0.66033 0.27879 0.0
Mn376 Mn 0.80988 0.63574 0.99853 0.0
Mn377 Mn 0.75429 0.6437 0.97003 0.0
C378 C 0.77166 0.60994 1.00148 0.0
C379 C 0.8483 0.61817 1.00199 0.0
C380 C 0.77766 0.67799 0.01407 0.0
O381 O 0.82279 0.6573 0.97446 0.0
O382 O 0.78457 0.65842 0.95508 0.0
C383 C 0.75967 0.61049 0.92555 0.0
N384 N 0.74559 0.61734 0.94404 0.0
C385 C 0.71012 0.58575 0.9286 0.0
C386 C 0.72405 0.57867 0.90916 0.0
C387 C 0.74901 0.59098 0.90772 0.0
C388 C 0.72176 0.6053 0.94582 0.0
H389 H 0.77892 0.61974 0.92452 0.0
C390 C 0.80922 0.66352 0.95798 0.0
O391 O 0.84471 0.63905 0.01475 0.0
O392 O 0.83018 0.60809 0.98608 0.0
N393 N 0.72324 0.63025 0.98229 0.0
C394 C 0.71311 0.6382 1.00288 0.0
C395 C 0.68858 0.62718 0.00748 0.0
C396 C 0.6746 0.60832 0.99078 0.0
C397 C 0.68532 0.6006 0.96963 0.0
C398 C 0.70981 0.61232 0.96599 0.0
H399 H 0.72371 0.65273 0.01576 0.0
O400 O 0.79051 0.6127 0.0173 0.0
O401 O 0.77566 0.62219 0.98436 0.0
O402 O 0.79658 0.66595 0.01709 0.0
O403 O 0.76087 0.67163 0.99686 0.0
C404 C 0.67286 0.58145 0.95218 0.0
C405 C 0.68532 0.5739 0.93175 0.0
H406 H 0.71592 0.5636 0.89539 0.0
H407 H 0.76001 0.58543 0.89291 0.0
H408 H 0.68047 0.6332 0.02387 0.0
H409 H 0.65577 0.59972 0.99446 0.0
H410 H 0.65389 0.57208 0.95448 0.0
H411 H 0.67577 0.55879 0.91868 0.0
Mn412 Mn 0.92263 0.01588 0.27406 0.0
Mn413 Mn 0.93538 0.95581 0.26574 0.0
C414 C 0.89349 0.98407 0.25239 0.0
C415 C 0.90427 0.04984 0.29367 0.0
C416 C 0.96038 0.99463 0.23925 0.0
O417 O 0.95048 0.01668 0.30033 0.0
O418 O 0.95713 0.97618 0.29243 0.0
C419 C 0.91575 0.94197 0.30939 0.0
N420 N 0.91554 0.93762 0.28573 0.0
C421 C 0.88491 0.90047 0.28327 0.0
C422 C 0.88488 0.90449 0.30762 0.0
C423 C 0.90029 0.92539 0.32072 0.0
C424 C 0.9006 0.9177 0.27294 0.0
H425 H 0.92765 0.95795 0.31954 0.0
C426 C 0.96184 0.99819 0.30456 0.0
O427 O 0.9231 0.05297 0.28024 0.0
O428 O 0.8971 0.02707 0.29684 0.0
N429 N 0.91551 0.93372 0.24067 0.0
C430 C 0.91673 0.93323 0.21732 0.0
C431 C 0.90196 0.91381 0.20173 0.0
C432 C 0.88639 0.89492 0.2103 0.0
C433 C 0.8857 0.89566 0.23439 0.0
C434 C 0.90078 0.9155 0.24908 0.0
H435 H 0.92879 0.9476 0.21063 0.0
O436 O 0.89361 0.00705 0.24914 0.0
O437 O 0.91059 0.98028 0.26783 0.0
O438 O 0.94963 0.01283 0.24945 0.0
O439 O 0.95629 0.97251 0.24395 0.0
C440 C 0.87035 0.87767 0.24441 0.0
C441 C 0.8698 0.88018 0.26883 0.0
H442 H 0.87301 0.89173 0.31643 0.0
H443 H 0.90031 0.92867 0.33952 0.0
H444 H 0.9026 0.91338 0.18316 0.0
H445 H 0.87493 0.88004 0.19823 0.0
H446 H 0.85859 0.86204 0.23349 0.0
H447 H 0.85756 0.86648 0.27631 0.0
Mn448 Mn 0.30882 0.14174 0.49226 0.0
Mn449 Mn 0.25113 0.15148 0.46874 0.0
C450 C 0.27128 0.11486 0.49515 0.0
C451 C 0.34758 0.12426 0.49332 0.0
C452 C 0.27585 0.18145 0.51393 0.0
O453 O 0.32018 0.16516 0.4691 0.0
O454 O 0.28032 0.17029 0.45582 0.0
C455 C 0.25656 0.12619 0.42066 0.0
N456 N 0.24295 0.1288 0.44007 0.0
C457 C 0.20858 0.09749 0.42161 0.0
C458 C 0.22218 0.09454 0.40138 0.0
C459 C 0.24633 0.10889 0.40094 0.0
C460 C 0.21982 0.11492 0.44075 0.0
H461 H 0.27507 0.13726 0.42022 0.0
C462 C 0.30499 0.1748 0.45622 0.0
O463 O 0.34424 0.14457 0.50707 0.0
O464 O 0.32904 0.11488 0.47756 0.0
N465 N 0.22088 0.13445 0.47936 0.0
C466 C 0.21055 0.13908 0.50042 0.0
C467 C 0.18649 0.12611 0.50382 0.0
C468 C 0.17312 0.10882 0.48546 0.0
C469 C 0.18394 0.10467 0.46383 0.0
C470 C 0.20796 0.11818 0.46146 0.0
H471 H 0.22063 0.15248 0.51455 0.0
O472 O 0.2908 0.11697 0.51018 0.0
O473 O 0.27401 0.12859 0.47897 0.0
O474 O 0.29623 0.1708 0.51343 0.0
O475 O 0.25725 0.17541 0.49834 0.0
C476 C 0.172 0.08741 0.44463 0.0
C477 C 0.18439 0.0837 0.42358 0.0
H478 H 0.21433 0.08125 0.38612 0.0
H479 H 0.25697 0.10667 0.38542 0.0
H480 H 0.17826 0.12944 0.52056 0.0
H481 H 0.15465 0.09872 0.48819 0.0
H482 H 0.15345 0.07665 0.44596 0.0
H483 H 0.17518 0.07014 0.40905 0.0
Mn484 Mn 0.42315 0.51748 0.77283 0.0
Mn485 Mn 0.44189 0.45967 0.76661 0.0
C486 C 0.39694 0.48331 0.75161 0.0
C487 C 0.40147 0.54927 0.79188 0.0
C488 C 0.46326 0.49912 0.73907 0.0
O489 O 0.45078 0.52123 0.79959 0.0
O490 O 0.4622 0.48219 0.79316 0.0
C491 C 0.4236 0.4455 0.81059 0.0
N492 N 0.4236 0.44067 0.78694 0.0
C493 C 0.39546 0.40198 0.78512 0.0
C494 C 0.39528 0.40647 0.80945 0.0
C495 C 0.40934 0.42837 0.82223 0.0
C496 C 0.41 0.41974 0.77447 0.0
H497 H 0.4344 0.46229 0.82049 0.0
C498 C 0.46426 0.50452 0.80463 0.0
O499 O 0.42005 0.5541 0.77859 0.0
O500 O 0.39633 0.52621 0.79497 0.0
N501 N 0.42369 0.43576 0.74182 0.0
C502 C 0.42463 0.43496 0.71841 0.0
C503 C 0.41094 0.41459 0.70311 0.0
C504 C 0.39665 0.39517 0.71203 0.0
C505 C 0.39616 0.3963 0.73619 0.0
C506 C 0.4102 0.41705 0.75057 0.0
H507 H 0.43559 0.44981 0.71144 0.0
O508 O 0.3949 0.50575 0.74763 0.0
O509 O 0.41455 0.48148 0.76747 0.0
O510 O 0.45079 0.51639 0.74862 0.0
O511 O 0.46124 0.47728 0.74453 0.0
C512 C 0.38195 0.37787 0.74654 0.0
C513 C 0.38151 0.38075 0.77099 0.0
H514 H 0.38428 0.39332 0.8185 0.0
H515 H 0.40921 0.43202 0.84101 0.0
H516 H 0.41137 0.41389 0.6845 0.0
H517 H 0.38596 0.37958 0.70019 0.0
H518 H 0.37093 0.3616 0.73586 0.0
H519 H 0.37014 0.36666 0.77872 0.0
Mn520 Mn 0.75925 0.36723 0.52195 0.0
Mn521 Mn 0.75786 0.38475 0.46906 0.0
C522 C 0.7449 0.33817 0.48891 0.0
C523 C 0.77978 0.35299 0.55263 0.0
C524 C 0.71999 0.39908 0.50526 0.0
O525 O 0.78428 0.39983 0.52697 0.0
O526 O 0.78373 0.40845 0.49028 0.0
C527 C 0.8101 0.37495 0.45559 0.0
N528 N 0.78397 0.37062 0.45128 0.0
C529 C 0.78783 0.34152 0.41632 0.0
C530 C 0.8148 0.34578 0.42032 0.0
C531 C 0.82597 0.36254 0.44006 0.0
C532 C 0.77301 0.35451 0.43235 0.0
H533 H 0.81877 0.38771 0.47081 0.0
C534 C 0.79202 0.41302 0.51175 0.0
O535 O 0.76074 0.3661 0.55572 0.0
O536 O 0.7873 0.34829 0.53163 0.0
N537 N 0.73371 0.36284 0.44703 0.0
C538 C 0.7074 0.35971 0.44646 0.0
C539 C 0.69322 0.34312 0.42807 0.0
C540 C 0.70621 0.32998 0.41046 0.0
C541 C 0.7333 0.33355 0.41139 0.0
C542 C 0.74639 0.3505 0.43003 0.0
H543 H 0.69733 0.36973 0.45998 0.0
O544 O 0.7375 0.33438 0.50916 0.0
O545 O 0.75964 0.35903 0.48879 0.0
O546 O 0.72822 0.38653 0.52 0.0
O547 O 0.72994 0.40015 0.48579 0.0
C548 C 0.74782 0.32058 0.39482 0.0
C549 C 0.77506 0.3245 0.39732 0.0
H550 H 0.8271 0.33612 0.40846 0.0
H551 H 0.84676 0.36582 0.44333 0.0
H552 H 0.67232 0.3404 0.42751 0.0
H553 H 0.6952 0.31701 0.39642 0.0
H554 H 0.73823 0.30723 0.3803 0.0
H555 H 0.78601 0.31411 0.38469 0.0
Mn556 Mn 0.65923 0.00921 0.74566 0.0
Mn557 Mn 0.64687 0.06913 0.75174 0.0
C558 C 0.6862 0.03878 0.73065 0.0
C559 C 0.68061 0.97938 0.7611 0.0
C560 C 0.61731 0.02696 0.71619 0.0
O561 O 0.6335 0.01118 0.77113 0.0
O562 O 0.62965 0.0524 0.77585 0.0
C563 C 0.67541 0.08841 0.79735 0.0
N564 N 0.67133 0.08968 0.77437 0.0
C565 C 0.70486 0.1246 0.77719 0.0
C566 C 0.70926 0.12381 0.80093 0.0
C567 C 0.6945 0.1056 0.81103 0.0
C568 C 0.68548 0.10707 0.76445 0.0
H569 H 0.66425 0.07433 0.80515 0.0
C570 C 0.62499 0.0307 0.78167 0.0
O571 O 0.66108 0.97242 0.74583 0.0
O572 O 0.68662 1.00322 0.76786 0.0
N573 N 0.6628 0.08762 0.72974 0.0
C574 C 0.65698 0.08514 0.7064 0.0
C575 C 0.67038 0.10165 0.69358 0.0
C576 C 0.68952 0.12058 0.70488 0.0
C577 C 0.69501 0.12292 0.72894 0.0
C578 C 0.68083 0.1061 0.74085 0.0
H579 H 0.6423 0.07064 0.6976 0.0
O580 O 0.6861 0.01513 0.7229 0.0
O581 O 0.67068 0.04422 0.74689 0.0
O582 O 0.63005 0.00937 0.72053 0.0
O583 O 0.62151 0.04933 0.72756 0.0
C584 C 0.71433 0.14099 0.74148 0.0
C585 C 0.7193 0.14178 0.76557 0.0
H586 H 0.72408 0.13693 0.81151 0.0
H587 H 0.6979 0.10476 0.82931 0.0
H588 H 0.66603 0.09971 0.67502 0.0
H589 H 0.70001 0.1331 0.69489 0.0
H590 H 0.72573 0.15412 0.7327 0.0
H591 H 0.73446 0.15551 0.77495 0.0
Mn592 Mn 0.04811 0.22594 0.87928 0.0
Mn593 Mn 0.9869 0.22161 0.89566 0.0
C594 C 0.01429 0.20648 0.8531 0.0
C595 C 0.08332 0.24635 0.86376 0.0
C596 C 0.02679 0.19089 0.91181 0.0
O597 O 0.05004 0.25315 0.90797 0.0
O598 O 0.00786 0.25079 0.9157 0.0
C599 C 0.9712 0.26825 0.8828 0.0
N600 N 0.96764 0.2428 0.88052 0.0
C601 C 0.93109 0.23974 0.85309 0.0
C602 C 0.93431 0.26592 0.85522 0.0
C603 C 0.95447 0.28022 0.87012 0.0
C604 C 0.94825 0.22886 0.86627 0.0
H605 H 0.98673 0.27932 0.89415 0.0
C606 C 0.03147 0.26106 0.91942 0.0
O607 O 0.08617 0.23037 0.87761 0.0
O608 O 0.05999 0.25116 0.85949 0.0
N609 N 0.96503 0.19436 0.87686 0.0
C610 C 0.96573 0.16928 0.87548 0.0
C611 C 0.94741 0.15233 0.86066 0.0
C612 C 0.92858 0.16131 0.84744 0.0
C613 C 0.92824 0.1872 0.84915 0.0
C614 C 0.94687 0.2032 0.86433 0.0
H615 H 0.98022 0.16226 0.88553 0.0
O616 O 0.03751 0.20085 0.85016 0.0
O617 O 0.01175 0.22243 0.8716 0.0
O618 O 0.04456 0.19876 0.89957 0.0
O619 O 1.00465 0.19859 0.91207 0.0
C620 C 0.91049 0.19775 0.83601 0.0
C621 C 0.9119 0.224 0.838 0.0
H622 H 0.92158 0.27521 0.84534 0.0
H623 H 0.95716 0.30042 0.87178 0.0
H624 H 0.94787 0.13237 0.85936 0.0
H625 H 0.91463 0.14818 0.83588 0.0
H626 H 0.89593 0.18585 0.82405 0.0
H627 H 0.89839 0.23188 0.82755 0.0
Mn628 Mn 0.55002 0.72887 0.37592 0.0
Mn629 Mn 0.48917 0.72464 0.39313 0.0
C630 C 0.51578 0.70954 0.35012 0.0
C631 C 0.58472 0.7493 0.35972 0.0
C632 C 0.52936 0.6939 0.40876 0.0
O633 O 0.55242 0.75609 0.40464 0.0
O634 O 0.5104 0.75384 0.41289 0.0
C635 C 0.47313 0.77125 0.38053 0.0
N636 N 0.46963 0.7458 0.37823 0.0
C637 C 0.43287 0.74271 0.35103 0.0
C638 C 0.43603 0.76889 0.35319 0.0
C639 C 0.45626 0.78321 0.36799 0.0
C640 C 0.45016 0.73184 0.3641 0.0
H641 H 0.48873 0.78234 0.39179 0.0
C642 C 0.53403 0.76409 0.4163 0.0
O643 O 0.58802 0.73333 0.37349 0.0
O644 O 0.56129 0.75412 0.356 0.0
N645 N 0.46711 0.69736 0.37454 0.0
C646 C 0.46789 0.67229 0.3731 0.0
C647 C 0.44953 0.65532 0.35834 0.0
C648 C 0.4306 0.66429 0.34521 0.0
C649 C 0.43019 0.69018 0.34697 0.0
C650 C 0.44885 0.70619 0.36212 0.0
H651 H 0.48248 0.66529 0.38305 0.0
O652 O 0.53892 0.70381 0.34686 0.0
O653 O 0.51358 0.72542 0.36876 0.0
O654 O 0.54692 0.70168 0.39626 0.0
O655 O 0.50724 0.70165 0.40931 0.0
C656 C 0.41236 0.70071 0.3339 0.0
C657 C 0.41368 0.72696 0.33594 0.0
H658 H 0.4232 0.77818 0.34338 0.0
H659 H 0.4589 0.80342 0.36966 0.0
H660 H 0.45005 0.63537 0.357 0.0
H661 H 0.41663 0.65115 0.33368 0.0
H662 H 0.3978 0.68879 0.32196 0.0
H663 H 0.40013 0.73482 0.32552 0.0
Mn664 Mn 0.01663 0.76804 0.64547 0.0
Mn665 Mn 0.99247 0.71212 0.65898 0.0
C666 C 0.01575 0.73138 0.61874 0.0
C667 C 0.01389 0.80443 0.62941 0.0
C668 C 0.04547 0.73847 0.67687 0.0
O669 O 0.99505 0.7786 0.67307 0.0
O670 O 0.98133 0.74008 0.68084 0.0
C671 C 0.9373 0.7148 0.647 0.0
N672 N 0.95851 0.70263 0.64421 0.0
C673 C 0.93461 0.66901 0.61685 0.0
C674 C 0.91247 0.68112 0.61953 0.0
C675 C 0.91384 0.70414 0.63463 0.0
C676 C 0.95744 0.68053 0.62964 0.0
H677 H 0.93827 0.73252 0.65856 0.0
C678 C 0.98268 0.76401 0.68509 0.0
O679 O 0.03204 0.80321 0.64494 0.0
O680 O 0.9963 0.78508 0.62433 0.0
N681 N 1.00152 0.68329 0.63929 0.0
C682 C 0.02484 0.6745 0.63804 0.0
C683 C 0.02689 0.65181 0.6234 0.0
C684 C 1.00491 0.63827 0.6104 0.0
C685 C 0.98105 0.64751 0.61225 0.0
C686 C 0.98016 0.67016 0.62722 0.0
H687 H 0.04177 0.68478 0.64805 0.0
O688 O 0.0323 0.75078 0.6175 0.0
O689 O 1.00052 0.73381 0.63574 0.0
O690 O 0.04376 0.75775 0.66737 0.0
O691 O 0.02758 0.71995 0.67454 0.0
C692 C 0.9582 0.63534 0.59953 0.0
C693 C 0.93502 0.64614 0.60176 0.0
H694 H 0.89436 0.67299 0.60998 0.0
H695 H 0.89686 0.71365 0.63671 0.0
H696 H 0.04537 0.64479 0.62209 0.0
H697 H 0.00662 0.6209 0.59896 0.0
H698 H 0.95832 0.61787 0.58772 0.0
H699 H 0.91767 0.63679 0.59163 0.0
Mn700 Mn 0.52634 0.26431 0.14083 0.0
Mn701 Mn 0.50449 0.2068 0.15217 0.0
C702 C 0.52663 0.22877 0.11276 0.0
C703 C 0.52131 0.30128 0.12642 0.0
C704 C 0.55636 0.23543 0.17154 0.0
O705 O 0.50464 0.27245 0.16915 0.0
O706 O 0.48962 0.23289 0.17312 0.0
C707 C 0.44924 0.2049 0.13721 0.0
N708 N 0.47184 0.19482 0.13553 0.0
C709 C 0.45198 0.15999 0.10709 0.0
C710 C 0.42845 0.16991 0.10863 0.0
C711 C 0.42711 0.1925 0.1237 0.0
C712 C 0.47338 0.17318 0.12098 0.0
H713 H 0.44813 0.22228 0.14874 0.0
C714 C 0.49054 0.25668 0.1789 0.0
O715 O 0.54007 0.30017 0.1414 0.0
O716 O 0.50442 0.2814 0.12102 0.0
N717 N 0.51719 0.17977 0.13273 0.0
C718 C 0.54163 0.17343 0.13237 0.0
C719 C 0.54642 0.15159 0.11775 0.0
C720 C 0.52602 0.1364 0.10383 0.0
C721 C 0.50099 0.14319 0.10465 0.0
C722 C 0.49737 0.16511 0.11962 0.0
H723 H 0.55737 0.18497 0.1431 0.0
O724 O 0.5421 0.24902 0.11191 0.0
O725 O 0.51178 0.22985 0.13002 0.0
O726 O 0.55468 0.25419 0.16135 0.0
O727 O 0.53846 0.21697 0.16986 0.0
C728 C 0.47959 0.1293 0.09091 0.0
C729 C 0.45512 0.13775 0.09205 0.0
H730 H 0.41135 0.16044 0.09819 0.0
H731 H 0.40905 0.20034 0.1249 0.0
H732 H 0.5658 0.14649 0.1172 0.0
H733 H 0.52983 0.11968 0.09244 0.0
H734 H 0.48182 0.11233 0.07909 0.0
H735 H 0.43892 0.12715 0.08109 0.0
H736 H 0.2181 0.73213 0.85918 0.0
H737 H 0.29194 0.82666 0.96674 0.0
H738 H 0.29911 0.73479 0.87897 0.0
H739 H 0.20902 0.80915 0.9615 0.0
H740 H 0.29445 0.79409 0.93331 0.0
H741 H 0.21377 0.76166 0.89492 0.0
C742 C 0.23493 0.73882 0.87107 0.0
C743 C 0.259 0.73086 0.86609 0.0
C744 C 0.27565 0.79716 0.93945 0.0
C745 C 0.25413 0.76454 0.90693 0.0
C746 C 0.27422 0.81584 0.95845 0.0
C747 C 0.25021 0.82087 0.96644 0.0
C748 C 0.25286 0.78339 0.92816 0.0
C749 C 0.22785 0.80599 0.95554 0.0
C750 C 0.23239 0.75552 0.89151 0.0
C751 C 0.28011 0.74006 0.88218 0.0
N752 N 0.22966 0.78808 0.93663 0.0
N753 N 0.27721 0.75648 0.90173 0.0
H754 H 0.00727 0.49078 0.37831 0.0
H755 H 0.11641 0.57293 0.32353 0.0
H756 H 0.03443 0.56782 0.40708 0.0
H757 H 0.10165 0.49242 0.30473 0.0
H758 H 0.08807 0.57092 0.35536 0.0
H759 H 0.04337 0.49017 0.35301 0.0
C760 C 0.0212 0.50743 0.37958 0.0
C761 C 0.01788 0.52943 0.3947 0.0
C762 C 0.09117 0.55364 0.34445 0.0
C763 C 0.05892 0.52906 0.36546 0.0
C764 C 0.10728 0.55476 0.32612 0.0
C765 C 0.11124 0.5328 0.31118 0.0
C766 C 0.07852 0.53044 0.34781 0.0
C767 C 0.0991 0.50983 0.3157 0.0
C768 C 0.04176 0.5071 0.36511 0.0
C769 C 0.0364 0.55048 0.39572 0.0
N770 N 0.08303 0.50928 0.33343 0.0
N771 N 0.05592 0.54991 0.38101 0.0
H772 H 0.85288 0.79244 0.89545 0.0
H773 H 0.80206 0.65409 0.91086 0.0
H774 H 0.83955 0.73156 0.83741 0.0
H775 H 0.84331 0.70692 0.9672 0.0
H776 H 0.81549 0.68212 0.88375 0.0
H777 H 0.84883 0.76202 0.9222 0.0
C778 C 0.84914 0.77265 0.88835 0.0
C779 C 0.84632 0.76452 0.86415 0.0
C780 C 0.82204 0.68746 0.90195 0.0
C781 C 0.84164 0.72961 0.89469 0.0
C782 C 0.81442 0.67141 0.91745 0.0
C783 C 0.82174 0.67811 0.94129 0.0
C784 C 0.83649 0.71082 0.91039 0.0
C785 C 0.83755 0.70093 0.9489 0.0
C786 C 0.84705 0.7553 0.90362 0.0
C787 C 0.84187 0.73864 0.85591 0.0
N788 N 0.84404 0.71671 0.93355 0.0
N789 N 0.83934 0.72215 0.87113 0.0
H790 H 0.04713 0.032 0.44159 0.0
H791 H 0.99767 0.96767 0.31193 0.0
H792 H 0.04858 0.9542 0.41307 0.0
H793 H 0.96805 0.03434 0.3446 0.0
H794 H 0.02306 0.96722 0.3476 0.0
H795 H 0.02346 0.03712 0.40544 0.0
C796 C 0.04235 0.01601 0.4278 0.0
C797 C 0.0496 0.99256 0.43044 0.0
C798 C 0.01112 0.98205 0.34705 0.0
C799 C 0.02316 0.99841 0.38911 0.0
C800 C 0.99662 0.98242 0.32657 0.0
C801 C 0.98032 1.0009 0.32525 0.0
C802 C 0.00959 1.00032 0.36662 0.0
C803 C 0.98028 0.0197 0.34483 0.0
C804 C 0.02887 0.01895 0.40726 0.0
C805 C 0.04302 0.97249 0.41203 0.0
N806 N 0.99457 0.01884 0.36484 0.0
N807 N 0.03037 0.97593 0.3922 0.0
H808 H 0.30596 0.29073 0.64031 0.0
H809 H 0.23196 0.20031 0.52916 0.0
H810 H 0.22431 0.2647 0.63613 0.0
H811 H 0.31439 0.2075 0.54487 0.0
H812 H 0.22846 0.23041 0.56454 0.0
H813 H 0.3088 0.267 0.60131 0.0
C814 C 0.28856 0.28037 0.63099 0.0
C815 C 0.26488 0.27958 0.64143 0.0
C816 C 0.2473 0.22547 0.56011 0.0
C817 C 0.268 0.2523 0.59699 0.0
C818 C 0.24934 0.20836 0.53989 0.0
C819 C 0.27348 0.20114 0.53414 0.0
C820 C 0.26958 0.23568 0.57449 0.0
C821 C 0.29534 0.21227 0.54872 0.0
C822 C 0.29022 0.26668 0.60885 0.0
C823 C 0.24297 0.2656 0.62873 0.0
N824 N 0.29286 0.22892 0.56822 0.0
N825 N 0.24506 0.25244 0.60719 0.0
H826 H 0.54138 0.48236 0.61073 0.0
H827 H 0.48016 0.54424 0.72561 0.0
H828 H 0.55963 0.56072 0.64039 0.0
H829 H 0.48448 0.4649 0.70842 0.0
H830 H 0.50634 0.55096 0.69279 0.0
H831 H 0.51782 0.47572 0.64494 0.0
C832 C 0.54066 0.49816 0.62444 0.0
C833 C 0.55246 0.5222 0.6224 0.0
C834 C 0.50162 0.53211 0.69631 0.0
C835 C 0.52492 0.51475 0.66154 0.0
C836 C 0.48662 0.52825 0.71503 0.0
C837 C 0.48002 0.50396 0.71989 0.0
C838 C 0.50978 0.51152 0.6821 0.0
C839 C 0.48906 0.48398 0.70548 0.0
C840 C 0.52704 0.49436 0.64395 0.0
C841 C 0.55039 0.54196 0.64075 0.0
N842 N 0.50326 0.48818 0.68721 0.0
N843 N 0.53678 0.53782 0.6594 0.0
H844 H 0.83584 0.32385 0.68712 0.0
H845 H 0.78009 0.37211 0.59854 0.0
H846 H 0.81067 0.25275 0.64314 0.0
H847 H 0.80545 0.3117 0.55154 0.0
H848 H 0.79572 0.35432 0.63139 0.0
H849 H 0.83093 0.34481 0.65354 0.0
C850 C 0.82936 0.31263 0.67034 0.0
C851 C 0.82301 0.28657 0.66804 0.0
C852 C 0.79846 0.34521 0.61393 0.0
C853 C 0.81702 0.31051 0.62958 0.0
C854 C 0.78931 0.35524 0.59516 0.0
C855 C 0.79157 0.34339 0.57232 0.0
C856 C 0.80969 0.3229 0.60992 0.0
C857 C 0.80356 0.3215 0.56893 0.0
C858 C 0.82647 0.32463 0.65123 0.0
C859 C 0.81555 0.2729 0.64572 0.0
N860 N 0.81181 0.31167 0.58758 0.0
N861 N 0.81246 0.28508 0.62734 0.0
H862 H 0.53208 0.9715 0.5826 0.0
H863 H 0.58555 0.05925 0.70277 0.0
H864 H 0.52682 0.05076 0.59811 0.0
H865 H 0.60535 0.98452 0.68256 0.0
H866 H 0.55827 0.05402 0.66701 0.0
H867 H 0.55348 0.9739 0.6212 0.0
C868 C 0.53533 0.98942 0.5941 0.0
C869 C 0.52778 0.01104 0.58684 0.0
C870 C 0.56842 0.03867 0.67042 0.0
C871 C 0.55204 0.01375 0.63136 0.0
C872 C 0.58402 0.04157 0.69096 0.0
C873 C 0.5981 0.02235 0.69577 0.0
C874 C 0.56664 0.01635 0.65436 0.0
C875 C 0.595 0.9999 0.67966 0.0
C876 C 0.54748 0.99071 0.6162 0.0
C877 C 0.53202 0.03355 0.60284 0.0
N878 N 0.57975 0.99758 0.65962 0.0
N879 N 0.54396 0.03432 0.62423 0.0
H880 H 0.89366 0.23658 0.76281 0.0
H881 H 0.99314 0.16348 0.82337 0.0
H882 H 0.90527 0.16114 0.73335 0.0
H883 H 0.99464 0.24367 0.83626 0.0
H884 H 0.96061 0.16093 0.79069 0.0
H885 H 0.93046 0.23867 0.79016 0.0
C886 C 0.90423 0.22058 0.76166 0.0
C887 C 0.89626 0.19869 0.74547 0.0
C888 C 0.96824 0.17906 0.80062 0.0
C889 C 0.93824 0.2007 0.77769 0.0
C890 C 0.98665 0.18046 0.81922 0.0
C891 C 0.99573 0.20371 0.83285 0.0
C892 C 0.95933 0.20112 0.7957 0.0
C893 C 0.98737 0.2253 0.82659 0.0
C894 C 0.92519 0.22172 0.77755 0.0
C895 C 0.91045 0.17833 0.74564 0.0
N896 N 0.96947 0.22347 0.80866 0.0
N897 N 0.9306 0.17973 0.76165 0.0
H898 H 0.50843 0.90727 0.48883 0.0
H899 H 0.57926 0.79669 0.42433 0.0
H900 H 0.58636 0.91768 0.46718 0.0
H901 H 0.50097 0.78691 0.44541 0.0
H902 H 0.58485 0.8395 0.44576 0.0
H903 H 0.50805 0.862 0.47897 0.0
C904 C 0.52565 0.90005 0.48241 0.0
C905 C 0.54734 0.91636 0.47854 0.0
C906 C 0.56657 0.82786 0.44596 0.0
C907 C 0.54687 0.86444 0.46679 0.0
C908 C 0.56338 0.80332 0.43378 0.0
C909 C 0.53946 0.78819 0.4327 0.0
C910 C 0.54567 0.8374 0.45709 0.0
C911 C 0.51967 0.79791 0.44543 0.0
C912 C 0.52536 0.87416 0.47663 0.0
C913 C 0.569 0.90584 0.46996 0.0
N914 N 0.52311 0.82195 0.45681 0.0
N915 N 0.56811 0.88059 0.46414 0.0
H916 H 0.17524 0.27885 0.75168 0.0
H917 H 0.13456 0.24511 0.87387 0.0
H918 H 0.2272 0.25732 0.80221 0.0
H919 H 0.08234 0.27016 0.82581 0.0
H920 H 0.17022 0.25564 0.85019 0.0
H921 H 0.1427 0.28206 0.78064 0.0
C922 C 0.17998 0.2753 0.76901 0.0
C923 C 0.20378 0.26741 0.77445 0.0
C924 C 0.15105 0.25916 0.84492 0.0
C925 C 0.16663 0.27073 0.80753 0.0
C926 C 0.13066 0.25316 0.85847 0.0
C927 C 0.10541 0.25648 0.85164 0.0
C928 C 0.14615 0.26826 0.82416 0.0
C929 C 0.10152 0.26718 0.83163 0.0
C930 C 0.16136 0.27699 0.78549 0.0
C931 C 0.20888 0.26293 0.79713 0.0
N932 N 0.12162 0.27233 0.81838 0.0
N933 N 0.19038 0.26437 0.81271 0.0
H934 H 0.529 0.60057 0.51659 0.0
H935 H 0.57622 0.67818 0.41736 0.0
H936 H 0.608 0.63122 0.51104 0.0
H937 H 0.49696 0.66906 0.43603 0.0
H938 H 0.58734 0.65253 0.44594 0.0
H939 H 0.51642 0.61709 0.48143 0.0
C940 C 0.54374 0.61024 0.5076 0.0
C941 C 0.56954 0.61459 0.51659 0.0
C942 C 0.56747 0.65598 0.44366 0.0
C943 C 0.55541 0.63359 0.47674 0.0
C944 C 0.56104 0.6706 0.42727 0.0
C945 C 0.53562 0.67614 0.42441 0.0
C946 C 0.54839 0.64659 0.45731 0.0
C947 C 0.51686 0.66557 0.43778 0.0
C948 C 0.53655 0.61984 0.48773 0.0
C949 C 0.5879 0.62753 0.50459 0.0
N950 N 0.52365 0.65143 0.45375 0.0
N951 N 0.58048 0.63664 0.48535 0.0
H952 H 0.8604 0.81118 0.77 0.0
H953 H 0.98498 0.75109 0.72776 0.0
H954 H 0.91337 0.78346 0.81554 0.0
H955 H 0.94885 0.7994 0.68833 0.0
H956 H 0.95802 0.76257 0.75979 0.0
H957 H 0.89127 0.80698 0.73952 0.0
C958 C 0.87851 0.80437 0.77369 0.0
C959 C 0.88398 0.79727 0.79537 0.0
C960 C 0.95612 0.771 0.74432 0.0
C961 C 0.91928 0.79226 0.76043 0.0
C962 C 0.97157 0.76447 0.72604 0.0
C963 C 0.96921 0.77443 0.70547 0.0
C964 C 0.93761 0.78722 0.74192 0.0
C965 C 0.95142 0.79155 0.70405 0.0
C966 C 0.89611 0.80197 0.75625 0.0
C967 C 0.9078 0.78847 0.79898 0.0
N968 N 0.93597 0.79717 0.72194 0.0
N969 N 0.92436 0.78605 0.78171 0.0
H970 H 0.01385 0.87386 0.50843 0.0
H971 H 0.04946 0.84666 0.63515 0.0
H972 H 0.07659 0.91697 0.55347 0.0
H973 H 0.98247 0.80918 0.59186 0.0
H974 H 0.05648 0.87634 0.60805 0.0
H975 H 0.99872 0.85409 0.54094 0.0
C976 C 0.02409 0.87954 0.52539 0.0
C977 C 0.04647 0.89703 0.52833 0.0
C978 C 0.04 0.86188 0.60466 0.0
C979 C 0.02973 0.87398 0.56558 0.0
C980 C 0.03592 0.84493 0.62018 0.0
C981 C 0.01547 0.8252 0.61568 0.0
C982 C 0.02362 0.859 0.58436 0.0
C983 C 0.99857 0.82397 0.596 0.0
C984 C 0.01553 0.86818 0.54394 0.0
C985 C 0.05915 0.90366 0.55057 0.0
N986 N 1.00322 0.84039 0.58095 0.0
N987 N 0.05085 0.89183 0.56829 0.0
H988 H 0.20354 0.76324 0.73428 0.0
H989 H 0.05746 0.70092 0.70024 0.0
H990 H 0.17159 0.69389 0.75453 0.0
H991 H 0.08889 0.77325 0.68553 0.0
H992 H 0.09812 0.69875 0.72183 0.0
H993 H 0.16078 0.76822 0.71844 0.0
C994 C 0.18741 0.74915 0.73556 0.0
C995 C 0.19115 0.72801 0.74555 0.0
C996 C 0.09604 0.71516 0.714 0.0
C997 C 0.14204 0.73346 0.72723 0.0
C998 C 0.07281 0.71642 0.70161 0.0
C999 C 0.06967 0.73727 0.69087 0.0
C1000 C 0.1164 0.73482 0.71563 0.0
C1001 C 0.09033 0.75675 0.69337 0.0
C1002 C 0.16298 0.752 0.72651 0.0
C1003 C 0.16953 0.7105 0.74702 0.0
N1004 N 0.11278 0.75497 0.70534 0.0
N1005 N 0.14593 0.71346 0.7377 0.0
H1006 H 0.01936 0.60041 0.51232 0.0
H1007 H 0.96964 0.71482 0.59513 0.0
H1008 H 0.93942 0.60769 0.5235 0.0
H1009 H 0.04962 0.70278 0.5959 0.0
H1010 H 0.95943 0.67936 0.56338 0.0
H1011 H 0.03193 0.64109 0.53793 0.0
C1012 C 1.0045 0.61073 0.51993 0.0
C1013 C 0.97836 0.60064 0.51602 0.0
C1014 C 0.97926 0.68441 0.57038 0.0
C1015 C 0.99244 0.64696 0.54503 0.0
C1016 C 0.98503 0.70455 0.58857 0.0
C1017 C 0.01026 0.7109 0.59868 0.0
C1018 C 0.99891 0.6705 0.56214 0.0
C1019 C 0.02977 0.69786 0.58891 0.0
C1020 C 0.01165 0.63383 0.53457 0.0
C1021 C 0.95981 0.61467 0.52631 0.0
N1022 N 0.02363 0.67791 0.57139 0.0
N1023 N 0.96721 0.63701 0.54034 0.0
H1024 H 0.77789 0.87305 0.16952 0.0
H1025 H 0.86394 0.95608 0.27776 0.0
H1026 H 0.79655 0.84776 0.23407 0.0
H1027 H 0.87169 0.97021 0.20772 0.0
H1028 H 0.82967 0.92169 0.2634 0.0
H1029 H 0.80429 0.91318 0.18448 0.0
C1030 C 0.78731 0.87581 0.18681 0.0
C1031 C 0.78483 0.85663 0.20042 0.0
C1032 C 0.83872 0.93236 0.25113 0.0
C1033 C 0.81429 0.90297 0.21785 0.0
C1034 C 0.85832 0.95186 0.2593 0.0
C1035 C 0.87128 0.96509 0.24369 0.0
C1036 C 0.8319 0.92617 0.22717 0.0
C1037 C 0.86255 0.95982 0.22013 0.0
C1038 C 0.80221 0.89884 0.19536 0.0
C1039 C 0.79713 0.86183 0.22294 0.0
N1040 N 0.84362 0.94037 0.21243 0.0
N1041 N 0.81118 0.88442 0.23088 0.0
H1042 H 0.831 0.18357 0.2991 0.0
H1043 H 0.86264 0.04907 0.32092 0.0
H1044 H 0.788 0.14139 0.34446 0.0
H1045 H 0.9121 0.09824 0.28592 0.0
H1046 H 0.83554 0.08251 0.33067 0.0
H1047 H 0.86092 0.15233 0.29448 0.0
C1048 C 0.8278 0.16765 0.30804 0.0
C1049 C 0.80676 0.16498 0.32199 0.0
C1050 C 0.85248 0.08605 0.32107 0.0
C1051 C 0.84122 0.12901 0.31688 0.0
C1052 C 0.86802 0.06699 0.31556 0.0
C1053 C 0.88967 0.07078 0.3025 0.0
C1054 C 0.85849 0.10903 0.3133 0.0
C1055 C 0.89561 0.09439 0.29597 0.0
C1056 C 0.84503 0.14988 0.30553 0.0
C1057 C 0.80395 0.1442 0.33355 0.0
N1058 N 0.88001 0.11247 0.30124 0.0
N1059 N 0.82083 0.12691 0.33058 0.0
H1060 H 0.44572 0.9853 0.99986 0.0
H1061 H 0.29667 0.9646 1.0047 0.0
H1062 H 0.40286 0.04832 0.01287 0.0
H1063 H 0.3431 0.91396 0.03121 0.0
H1064 H 0.3351 0.99576 0.00748 0.0
H1065 H 0.40879 0.95836 0.01095 0.0
C1066 C 0.42868 0.99349 1.00546 0.0
C1067 C 0.42724 0.019 1.00547 0.0
C1068 C 0.33679 0.97808 0.01324 0.0
C1069 C 0.38492 0.98836 0.01761 0.0
C1070 C 0.31489 0.96037 0.01169 0.0
C1071 C 0.31681 0.93687 0.01792 0.0
C1072 C 0.36091 0.97186 0.02024 0.0
C1073 C 0.34087 0.93204 0.02654 0.0
C1074 C 0.4077 0.97818 0.01184 0.0
C1075 C 0.40474 0.02876 0.01277 0.0
N1076 N 0.36218 0.9492 0.02695 0.0
N1077 N 0.38425 0.01333 0.01812 0.0
H1078 H 0.32378 0.43881 0.3236 0.0
H1079 H 0.18241 0.43253 0.26245 0.0
H1080 H 0.27134 0.37001 0.31327 0.0
H1081 H 0.22815 0.49936 0.29994 0.0
H1082 H 0.21543 0.4076 0.27488 0.0
H1083 H 0.29038 0.45948 0.3071 0.0
C1084 C 0.30523 0.42798 0.31766 0.0
C1085 C 0.30023 0.40276 0.32019 0.0
C1086 C 0.21801 0.42772 0.28037 0.0
C1087 C 0.26156 0.42646 0.30126 0.0
C1088 C 0.19918 0.44192 0.27337 0.0
C1089 C 0.20246 0.46811 0.28013 0.0
C1090 C 0.24033 0.43995 0.29382 0.0
C1091 C 0.22465 0.47929 0.29422 0.0
C1092 C 0.28609 0.43982 0.3083 0.0
C1093 C 0.27596 0.38952 0.31168 0.0
N1094 N 0.24267 0.46524 0.30038 0.0
N1095 N 0.25735 0.4016 0.30276 0.0
H1096 H 0.13176 0.0199 0.51814 0.0
H1097 H 0.25357 0.07994 0.45771 0.0
H1098 H 0.13881 0.01257 0.44408 0.0
H1099 H 0.2413 0.1026 0.53012 0.0
H1100 H 0.21538 0.04858 0.45429 0.0
H1101 H 0.17482 0.04489 0.52449 0.0
C1102 C 0.14241 0.02348 0.50327 0.0
C1103 C 0.13158 0.0145 0.48056 0.0
C1104 C 0.22102 0.06028 0.471 0.0
C1105 C 0.1808 0.04246 0.48763 0.0
C1106 C 0.24274 0.07821 0.4729 0.0
C1107 C 0.24976 0.09446 0.49395 0.0
C1108 C 0.20618 0.05859 0.49032 0.0
C1109 C 0.23591 0.0908 0.51342 0.0
C1110 C 0.16692 0.03769 0.50688 0.0
C1111 C 0.1462 0.01953 0.46187 0.0
N1112 N 0.21439 0.07353 0.51106 0.0
N1113 N 0.16998 0.0331 0.46582 0.0
H1114 H 0.82113 0.14804 0.75299 0.0
H1115 H 0.70188 0.05129 0.68932 0.0
H1116 H 0.79328 0.14858 0.68232 0.0
H1117 H 0.72098 0.06565 0.76325 0.0
H1118 H 0.73861 0.08256 0.68443 0.0
H1119 H 0.78786 0.1134 0.75507 0.0
C1120 C 0.80825 0.14058 0.73774 0.0
C1121 C 0.81016 0.15106 0.71735 0.0
C1122 C 0.73473 0.07881 0.70169 0.0
C1123 C 0.77156 0.11151 0.71976 0.0
C1124 C 0.71388 0.06106 0.70444 0.0
C1125 C 0.70812 0.05676 0.72677 0.0
C1126 C 0.75011 0.09161 0.72141 0.0
C1127 C 0.72445 0.06917 0.74584 0.0
C1128 C 0.78907 0.12092 0.73901 0.0
C1129 C 0.79243 0.14103 0.69836 0.0
N1130 N 0.74461 0.08613 0.74274 0.0
N1131 N 0.77381 0.12176 0.70001 0.0
H1132 H 0.44844 0.03975 0.56016 0.0
H1133 H 0.36976 0.08984 0.46305 0.0
H1134 H 0.48189 0.0464 0.4946 0.0
H1135 H 0.37538 0.12746 0.53438 0.0
H1136 H 0.40496 0.06612 0.4728 0.0
H1137 H 0.41531 0.06486 0.54987 0.0
C1138 C 0.44909 0.04646 0.54371 0.0
C1139 C 0.46828 0.04058 0.52829 0.0
C1140 C 0.39847 0.07971 0.4862 0.0
C1141 C 0.42946 0.06857 0.51609 0.0
C1142 C 0.37847 0.0932 0.48066 0.0
C1143 C 0.36982 0.1108 0.49787 0.0
C1144 C 0.40916 0.08328 0.50923 0.0
C1145 C 0.38164 0.11429 0.5205 0.0
C1146 C 0.42996 0.06065 0.5378 0.0
C1147 C 0.46731 0.04958 0.50692 0.0
N1148 N 0.40043 0.10044 0.52559 0.0
N1149 N 0.44813 0.06284 0.50137 0.0
H1150 H 0.58757 0.46194 0.56519 0.0
H1151 H 0.70938 0.44188 0.4898 0.0
H1152 H 0.63912 0.52354 0.54802 0.0
H1153 H 0.68283 0.39131 0.53602 0.0
H1154 H 0.67727 0.46903 0.50391 0.0
H1155 H 0.61662 0.43306 0.54812 0.0
C1156 C 0.60489 0.46953 0.55792 0.0
C1157 C 0.61068 0.49548 0.55823 0.0
C1158 C 0.67839 0.45188 0.5108 0.0
C1159 C 0.64362 0.46214 0.53791 0.0
C1160 C 0.69657 0.43628 0.50266 0.0
C1161 C 0.6989 0.41431 0.51181 0.0
C1162 C 0.66204 0.44525 0.52789 0.0
C1163 C 0.68185 0.40814 0.52859 0.0
C1164 C 0.62137 0.45292 0.54802 0.0
C1165 C 0.63328 0.50381 0.54789 0.0
N1166 N 0.66412 0.42348 0.53606 0.0
N1167 N 0.64879 0.48724 0.53813 0.0
H1168 H 0.7989 0.22925 0.38528 0.0
H1169 H 0.70414 0.30611 0.46468 0.0
H1170 H 0.71884 0.22936 0.36359 0.0
H1171 H 0.78724 0.32117 0.47121 0.0
H1172 H 0.70723 0.27199 0.43184 0.0
H1173 H 0.79283 0.25662 0.42146 0.0
C1174 C 0.77987 0.23459 0.38832 0.0
C1175 C 0.75935 0.22693 0.37133 0.0
C1176 C 0.72474 0.28271 0.44062 0.0
C1177 C 0.75235 0.25873 0.41274 0.0
C1178 C 0.72295 0.30207 0.45927 0.0
C1179 C 0.74546 0.31675 0.47008 0.0
C1180 C 0.74922 0.27772 0.43339 0.0
C1181 C 0.76944 0.3106 0.46287 0.0
C1182 C 0.77649 0.25045 0.40891 0.0
C1183 C 0.73525 0.23496 0.37614 0.0
N1184 N 0.77069 0.29167 0.44495 0.0
N1185 N 0.73242 0.25051 0.39637 0.0
H1186 H 0.53484 0.0654 0.90091 0.0
H1187 H 0.59995 0.98823 0.79493 0.0
H1188 H 0.50759 0.98876 0.87065 0.0
H1189 H 0.61372 0.06869 0.81475 0.0
H1190 H 0.57184 0.98631 0.82733 0.0
H1191 H 0.57024 0.06489 0.87458 0.0
C1192 C 0.53668 0.04832 0.88909 0.0
C1193 C 0.51821 0.02717 0.88777 0.0
C1194 C 0.58118 1.00435 0.82462 0.0
C1195 C 0.55829 0.02647 0.85749 0.0
C1196 C 0.59724 0.00545 0.80614 0.0
C1197 C 0.60899 0.02867 0.80186 0.0
C1198 C 0.57705 0.02659 0.83908 0.0
C1199 C 0.60482 0.05038 0.8171 0.0
C1200 C 0.5567 0.04808 0.87392 0.0
C1201 C 0.52132 0.00555 0.872 0.0
N1202 N 0.58917 0.0488 0.83493 0.0
N1203 N 0.54082 0.0058 0.85737 0.0
H1204 H 0.30965 0.27886 0.3601 0.0
H1205 H 0.3549 0.18418 0.44147 0.0
H1206 H 0.38833 0.26251 0.36382 0.0
H1207 H 0.27824 0.20548 0.43501 0.0
H1208 H 0.36881 0.21196 0.41355 0.0
H1209 H 0.29876 0.25075 0.38746 0.0
C1210 C 0.32471 0.26935 0.36675 0.0
C1211 C 0.35 0.27331 0.35978 0.0
C1212 C 0.34898 0.21044 0.41837 0.0
C1213 C 0.3376 0.24062 0.39141 0.0
C1214 C 0.34107 0.19469 0.43436 0.0
C1215 C 0.31529 0.19224 0.44059 0.0
C1216 C 0.33097 0.22381 0.40869 0.0
C1217 C 0.29824 0.20635 0.43073 0.0
C1218 C 0.31847 0.25317 0.3824 0.0
C1219 C 0.36855 0.25996 0.36867 0.0
N1220 N 0.30635 0.22132 0.4154 0.0
N1221 N 0.36204 0.24429 0.38414 0.0
H1222 H 0.58672 0.50031 0.90811 0.0
H1223 H 0.45514 0.52826 0.84795 0.0
H1224 H 0.51572 0.49866 0.94309 0.0
H1225 H 0.51255 0.49155 0.80978 0.0
H1226 H 0.48125 0.5291 0.88438 0.0
H1227 H 0.56348 0.50856 0.8733 0.0
C1228 C 0.56631 0.50208 0.90857 0.0
C1229 C 0.55309 0.49875 0.92848 0.0
C1230 C 0.48826 0.52128 0.86795 0.0
C1231 C 0.52647 0.50832 0.88879 0.0
C1232 C 0.47357 0.52104 0.8472 0.0
C1233 C 0.48181 0.50989 0.8259 0.0
C1234 C 0.51154 0.51076 0.86722 0.0
C1235 C 0.50557 0.50033 0.82588 0.0
C1236 C 0.55307 0.50665 0.88869 0.0
C1237 C 0.52656 0.50095 0.92803 0.0
N1238 N 0.51961 0.501 0.84621 0.0
N1239 N 0.51409 0.50563 0.90848 0.0
H1240 H 0.80301 0.79572 0.13415 0.0
H1241 H 0.73373 0.69978 0.02417 0.0
H1242 H 0.72142 0.76917 0.12811 0.0
H1243 H 0.81491 0.70589 0.0451 0.0
H1244 H 0.72887 0.7328 0.057 0.0
H1245 H 0.80734 0.77072 0.096 0.0
C1246 C 0.78592 0.78505 0.12455 0.0
C1247 C 0.76185 0.78438 0.13429 0.0
C1248 C 0.74776 0.72701 0.05421 0.0
C1249 C 0.76667 0.75566 0.09083 0.0
C1250 C 0.75058 0.70823 0.03546 0.0
C1251 C 0.77469 0.69977 0.03208 0.0
C1252 C 0.76929 0.73768 0.06939 0.0
C1253 C 0.79587 0.71154 0.04723 0.0
C1254 C 0.78843 0.77065 0.10289 0.0
C1255 C 0.74036 0.77 0.12124 0.0
N1256 N 0.79266 0.72982 0.06524 0.0
N1257 N 0.74329 0.75609 0.10021 0.0
H1258 H 0.0415 0.97805 0.11211 0.0
H1259 H 0.98105 0.03955 0.22776 0.0
H1260 H 0.06017 0.05592 0.14321 0.0
H1261 H 0.97931 0.95964 0.20742 0.0
H1262 H 0.00831 0.04599 0.1957 0.0
H1263 H 0.0174 0.97079 0.14598 0.0
C1264 C 0.04076 0.99359 0.12609 0.0
C1265 C 0.05269 0.01772 0.12454 0.0
C1266 C 1.00206 0.02704 0.19833 0.0
C1267 C 0.02471 0.00959 0.16325 0.0
C1268 C 0.98642 0.02335 0.21663 0.0
C1269 C 0.97778 0.99901 0.22038 0.0
C1270 C 0.00893 0.00628 0.18343 0.0
C1271 C 0.98549 0.97876 0.20531 0.0
C1272 C 0.02686 0.98944 0.14538 0.0
C1273 C 0.05078 0.03712 0.14322 0.0
N1274 N 1.00045 0.98284 0.18745 0.0
N1275 N 0.03693 0.03268 0.16163 0.0
H1276 H 0.33301 0.82476 0.1842 0.0
H1277 H 0.30896 0.81099 0.0461 0.0
H1278 H 0.31832 0.75248 0.13987 0.0
H1279 H 0.28948 0.8726 0.09547 0.0
H1280 H 0.32418 0.79173 0.07878 0.0
H1281 H 0.32959 0.84486 0.14995 0.0
C1282 C 0.32929 0.81309 0.16723 0.0
C1283 C 0.32532 0.78687 0.16499 0.0
C1284 C 0.31687 0.80962 0.08233 0.0
C1285 C 0.32172 0.80987 0.12562 0.0
C1286 C 0.30834 0.82065 0.06377 0.0
C1287 C 0.29782 0.8433 0.06819 0.0
C1288 C 0.31535 0.8217 0.1053 0.0
C1289 C 0.29726 0.85501 0.09134 0.0
C1290 C 0.32741 0.8246 0.14769 0.0
C1291 C 0.32137 0.77274 0.14244 0.0
N1292 N 0.30588 0.84409 0.10901 0.0
N1293 N 0.31936 0.78443 0.1236 0.0
H1294 H 0.03534 0.46789 0.09137 0.0
H1295 H 0.08446 0.55774 0.21155 0.0
H1296 H 0.02742 0.54666 0.1061 0.0
H1297 H 0.1088 0.48479 0.19184 0.0
H1298 H 0.05729 0.551 0.17559 0.0
H1299 H 0.0565 0.47125 0.13023 0.0
C1300 C 0.03794 0.48589 0.10274 0.0
C1301 C 0.02969 0.50709 0.09519 0.0
C1302 C 0.0684 0.53636 0.17916 0.0
C1303 C 0.05361 0.51088 0.14 0.0
C1304 C 0.08394 0.54013 0.19981 0.0
C1305 C 0.09928 0.5219 0.20479 0.0
C1306 C 0.06798 0.51415 0.16317 0.0
C1307 C 0.09744 0.49942 0.1888 0.0
C1308 C 0.04995 0.48773 0.12499 0.0
C1309 C 0.03313 0.52972 0.11104 0.0
N1310 N 0.08224 0.49626 0.16863 0.0
N1311 N 0.04489 0.53101 0.13257 0.0
H1312 H 0.4053 0.6618 0.23042 0.0
H1313 H 0.49646 0.74731 0.334 0.0
H1314 H 0.39564 0.73778 0.25979 0.0
H1315 H 0.49412 0.66705 0.31992 0.0
H1316 H 0.46454 0.74484 0.30171 0.0
H1317 H 0.44237 0.66412 0.25835 0.0
C1318 C 0.41106 0.67905 0.24253 0.0
C1319 C 0.39715 0.69962 0.24267 0.0
C1320 C 0.47091 0.7277 0.30558 0.0
C1321 C 0.43975 0.7024 0.27443 0.0
C1322 C 0.48903 0.72909 0.32407 0.0
C1323 C 0.49711 0.70725 0.33002 0.0
C1324 C 0.46089 0.70426 0.29271 0.0
C1325 C 0.48779 0.68422 0.3161 0.0
C1326 C 0.43223 0.68031 0.25843 0.0
C1327 C 0.40585 0.72156 0.25858 0.0
N1328 N 0.46983 0.68325 0.29816 0.0
N1329 N 0.42646 0.72229 0.27381 0.0
H1330 H 0.08956 0.41396 0.97587 0.0
H1331 H 0.9982 0.28317 0.9488 0.0
H1332 H 0.00993 0.40375 0.99309 0.0
H1333 H 0.07652 0.29387 0.92793 0.0
H1334 H 1.00468 0.32551 0.97098 0.0
H1335 H 0.08745 0.36867 0.96398 0.0
C1336 C 0.07169 0.40216 0.97734 0.0
C1337 C 0.04978 0.41273 0.98519 0.0
C1338 C 0.02057 0.31851 0.96179 0.0
C1339 C 0.04724 0.3608 0.97164 0.0
C1340 C 0.01692 0.29425 0.94912 0.0
C1341 C 0.03673 0.28495 0.93614 0.0
C1342 C 0.04416 0.33375 0.96145 0.0
C1343 C 0.0606 0.30023 0.93748 0.0
C1344 C 0.07053 0.37629 0.97062 0.0
C1345 C 0.02732 0.39648 0.9872 0.0
N1346 N 0.06352 0.32397 0.94964 0.0
N1347 N 0.02654 0.37137 0.98019 0.0
H1348 H 0.72846 0.76011 0.29505 0.0
H1349 H 0.58247 0.77535 0.32336 0.0
H1350 H 0.67331 0.78124 0.247 0.0
H1351 H 0.63606 0.74572 0.36674 0.0
H1352 H 0.61759 0.78568 0.29871 0.0
H1353 H 0.6971 0.76301 0.32481 0.0
C1354 C 0.70979 0.76562 0.29086 0.0
C1355 C 0.7033 0.77004 0.26842 0.0
C1356 C 0.62172 0.77724 0.31381 0.0
C1357 C 0.66719 0.77327 0.30239 0.0
C1358 C 0.60171 0.77142 0.32794 0.0
C1359 C 0.6063 0.75936 0.34696 0.0
C1360 C 0.64645 0.771 0.3188 0.0
C1361 C 0.63158 0.75474 0.3521 0.0
C1362 C 0.6919 0.7673 0.30786 0.0
C1363 C 0.67906 0.77762 0.26407 0.0
N1364 N 0.65063 0.76035 0.33798 0.0
N1365 N 0.66171 0.77864 0.28081 0.0
H1366 H 0.02561 0.09769 0.01973 0.0
H1367 H 0.07341 0.17476 0.92037 0.0
H1368 H 0.10469 0.12814 0.01431 0.0
H1369 H 0.99414 0.16633 0.93909 0.0
H1370 H 0.08428 0.14907 0.94897 0.0
H1371 H 0.01318 0.11414 0.98449 0.0
C1372 C 0.04039 0.1073 0.01074 0.0
C1373 C 0.06618 0.1116 0.01976 0.0
C1374 C 0.06446 0.15268 0.9467 0.0
C1375 C 0.05223 0.13051 0.97984 0.0
C1376 C 0.05818 0.16733 0.9303 0.0
C1377 C 0.03283 0.17308 0.92746 0.0
C1378 C 0.04532 0.14348 0.96037 0.0
C1379 C 0.01399 0.16267 0.94084 0.0
C1380 C 0.0333 0.11685 0.99082 0.0
C1381 C 0.08462 0.12446 0.0078 0.0
N1382 N 0.02064 0.14851 0.95682 0.0
N1383 N 0.07728 0.13353 0.98851 0.0
H1384 H 0.41553 0.33639 0.29443 0.0
H1385 H 0.4518 0.22844 0.19606 0.0
H1386 H 0.37727 0.26036 0.2805 0.0
H1387 H 0.48987 0.30446 0.20443 0.0
H1388 H 0.42451 0.24096 0.22696 0.0
H1389 H 0.44261 0.32627 0.26178 0.0
C1390 C 0.41267 0.31763 0.28445 0.0
C1391 C 0.39408 0.29916 0.29037 0.0
C1392 C 0.43876 0.25504 0.22216 0.0
C1393 C 0.42523 0.28746 0.25309 0.0
C1394 C 0.45455 0.24788 0.2044 0.0
C1395 C 0.47351 0.26536 0.19756 0.0
C1396 C 0.44168 0.27997 0.23356 0.0
C1397 C 0.47562 0.29031 0.20909 0.0
C1398 C 0.42825 0.31186 0.26588 0.0
C1399 C 0.39156 0.27512 0.27694 0.0
N1400 N 0.45997 0.29687 0.22662 0.0
N1401 N 0.40692 0.27002 0.25906 0.0
H1402 H 0.50236 0.39729 0.02193 0.0
H1403 H 0.48451 0.30934 0.09446 0.0
H1404 H 0.58316 0.40015 0.04181 0.0
H1405 H 0.5589 0.3414 0.12827 0.0
H1406 H 0.48855 0.34025 0.06862 0.0
H1407 H 0.49141 0.37666 0.05508 0.0
C1408 C 0.51777 0.39401 0.03368 0.0
C1409 C 0.54366 0.4005 0.0293 0.0
C1410 C 0.50371 0.34119 0.0821 0.0
C1411 C 0.53146 0.3754 0.06646 0.0
C1412 C 0.50142 0.32331 0.09684 0.0
C1413 C 0.52138 0.32269 0.11357 0.0
C1414 C 0.52623 0.35861 0.08397 0.0
C1415 C 0.54299 0.34116 0.11566 0.0
C1416 C 0.51156 0.38176 0.05235 0.0
C1417 C 0.56296 0.39562 0.04479 0.0
N1418 N 0.54501 0.35808 0.10081 0.0
N1419 N 0.55648 0.38311 0.06256 0.0
H1420 H 0.71666 0.23307 0.20936 0.0
H1421 H 0.56401 0.21104 0.20859 0.0
H1422 H 0.67975 0.22923 0.27373 0.0
H1423 H 0.60455 0.25751 0.16508 0.0
H1424 H 0.60542 0.20937 0.22989 0.0
H1425 H 0.67464 0.23331 0.18974 0.0
C1426 C 0.69982 0.23244 0.21951 0.0
C1427 C 0.70207 0.23175 0.24351 0.0
C1428 C 0.60509 0.21997 0.21571 0.0
C1429 C 0.65351 0.23107 0.22064 0.0
C1430 C 0.58157 0.22087 0.20353 0.0
C1431 C 0.58083 0.23453 0.18509 0.0
C1432 C 0.628 0.23221 0.20894 0.0
C1433 C 0.60416 0.24694 0.17928 0.0
C1434 C 0.67578 0.23241 0.20817 0.0
C1435 C 0.67913 0.22978 0.25527 0.0
N1436 N 0.62678 0.24527 0.19099 0.0
N1437 N 0.65578 0.22951 0.24371 0.0
H1438 H 0.44489 0.10896 0.0147 0.0
H1439 H 0.5606 0.20104 0.08888 0.0
H1440 H 0.52462 0.098 0.00743 0.0
H1441 H 0.48054 0.21272 0.08917 0.0
H1442 H 0.54933 0.16578 0.05641 0.0
H1443 H 0.4587 0.14933 0.0393 0.0
C1444 C 0.46538 0.11527 0.01817 0.0
C1445 C 0.48366 0.10015 0.0092 0.0
C1446 C 0.53429 0.17624 0.06343 0.0
C1447 C 0.49979 0.14633 0.0377 0.0
C1448 C 0.54072 0.19625 0.08193 0.0
C1449 C 0.52124 0.20896 0.09215 0.0
C1450 C 0.5083 0.16938 0.05502 0.0
C1451 C 0.49593 0.20268 0.08225 0.0
C1452 C 0.47331 0.13835 0.03219 0.0
C1453 C 0.50998 0.10921 0.01406 0.0
N1454 N 0.49014 0.18317 0.06445 0.0
N1455 N 0.5173 0.13162 0.02829 0.0
H1456 H 0.30138 0.34377 0.74072 0.0
H1457 H 0.37513 0.46721 0.70726 0.0
H1458 H 0.28283 0.36793 0.67558 0.0
H1459 H 0.37017 0.45408 0.77786 0.0
H1460 H 0.34178 0.43099 0.69447 0.0
H1461 H 0.32653 0.38417 0.75429 0.0
C1462 C 0.30217 0.35755 0.72927 0.0
C1463 C 0.28969 0.35208 0.70683 0.0
C1464 C 0.34788 0.43617 0.71278 0.0
C1465 C 0.3201 0.39838 0.72209 0.0
C1466 C 0.36689 0.45671 0.72001 0.0
C1467 C 0.37603 0.46276 0.74343 0.0
C1468 C 0.33792 0.42196 0.72922 0.0
C1469 C 0.36434 0.44923 0.75947 0.0
C1470 C 0.31692 0.38067 0.73703 0.0
C1471 C 0.29246 0.37086 0.69279 0.0
N1472 N 0.34616 0.42923 0.75204 0.0
N1473 N 0.30764 0.39301 0.70052 0.0
H1474 H 0.33431 0.68651 0.8365 0.0
H1475 H 0.35267 0.54187 0.80659 0.0
H1476 H 0.2717 0.62921 0.80832 0.0
H1477 H 0.41267 0.60046 0.79742 0.0
H1478 H 0.32384 0.57357 0.81719 0.0
H1479 H 0.36434 0.65481 0.83193 0.0
C1480 C 0.32689 0.66717 0.82972 0.0
C1481 C 0.30059 0.66034 0.8228 0.0
C1482 C 0.34341 0.57946 0.81308 0.0
C1483 C 0.33455 0.62417 0.81774 0.0
C1484 C 0.35993 0.56143 0.80718 0.0
C1485 C 0.3851 0.56854 0.80102 0.0
C1486 C 0.35225 0.60483 0.8133 0.0
C1487 C 0.39339 0.59417 0.80194 0.0
C1488 C 0.34398 0.64919 0.82699 0.0
C1489 C 0.29188 0.63513 0.81386 0.0
N1490 N 0.37702 0.61142 0.80799 0.0
N1491 N 0.3088 0.61791 0.81166 0.0
H1492 H 0.94213 0.48518 0.50289 0.0
H1493 H 0.79269 0.46099 0.5046 0.0
H1494 H 0.8976 0.54697 0.51586 0.0
H1495 H 0.83966 0.41138 0.53209 0.0
H1496 H 0.8307 0.49274 0.50781 0.0
H1497 H 0.90523 0.45713 0.51256 0.0
C1498 C 0.92471 0.49285 0.50816 0.0
C1499 C 0.92282 0.51835 0.50861 0.0
C1500 C 0.83259 0.47514 0.51365 0.0
C1501 C 0.88056 0.48647 0.51914 0.0
C1502 C 0.81094 0.45709 0.51186 0.0
C1503 C 0.81314 0.43376 0.51831 0.0
C1504 C 0.85675 0.46942 0.52114 0.0
C1505 C 0.83722 0.42935 0.52725 0.0
C1506 C 0.90376 0.47692 0.51374 0.0
C1507 C 0.89984 0.52743 0.51545 0.0
N1508 N 0.8583 0.44684 0.52794 0.0
N1509 N 0.87941 0.51142 0.52002 0.0
H1510 H 0.80838 0.92297 0.82345 0.0
H1511 H 0.67303 0.92725 0.75422 0.0
H1512 H 0.75082 0.85803 0.80825 0.0
H1513 H 0.72605 0.99151 0.787 0.0
H1514 H 0.70242 0.89979 0.76828 0.0
H1515 H 0.78047 0.94625 0.80303 0.0
C1516 C 0.78997 0.9135 0.81536 0.0
C1517 C 0.78186 0.88861 0.81751 0.0
C1518 C 0.70749 0.91992 0.7723 0.0
C1519 C 0.74924 0.91537 0.79458 0.0
C1520 C 0.69073 0.93557 0.76435 0.0
C1521 C 0.69696 0.96176 0.76954 0.0
C1522 C 0.73071 0.93062 0.78518 0.0
C1523 C 0.72022 0.9715 0.78264 0.0
C1524 C 0.7739 0.92684 0.80387 0.0
C1525 C 0.75778 0.8772 0.8068 0.0
N1526 N 0.73613 0.95601 0.78987 0.0
N1527 N 0.7421 0.89076 0.79597 0.0
H1528 H 0.62778 0.51445 0.01941 0.0
H1529 H 0.73951 0.60286 0.03626 0.0
H1530 H 0.6436 0.5078 0.94696 0.0
H1531 H 0.75442 0.57196 0.96624 0.0
H1532 H 0.70065 0.57229 0.03369 0.0
H1533 H 0.6704 0.53904 0.02977 0.0
C1534 C 0.64033 0.51808 1.00573 0.0
C1535 C 0.63201 0.50949 0.9823 0.0
C1536 C 0.71255 0.5717 0.01899 0.0
C1537 C 0.68065 0.5379 0.99383 0.0
C1538 C 0.73466 0.58934 0.02045 0.0
C1539 C 0.74941 0.59045 1.00109 0.0
C1540 C 0.70561 0.55474 0.99811 0.0
C1541 C 0.74287 0.57226 0.98121 0.0
C1542 C 0.6646 0.53237 0.0116 0.0
C1543 C 0.64905 0.5145 0.96523 0.0
N1544 N 0.72128 0.55542 0.98011 0.0
N1545 N 0.67243 0.52835 0.97134 0.0
H1546 H 0.32192 0.65158 0.25459 0.0
H1547 H 0.2018 0.55247 0.19659 0.0
H1548 H 0.29177 0.64898 0.18402 0.0
H1549 H 0.22202 0.57116 0.27027 0.0
H1550 H 0.2378 0.58361 0.18986 0.0
H1551 H 0.28856 0.61777 0.25886 0.0
C1552 C 0.30849 0.6436 0.23984 0.0
C1553 C 0.30978 0.65293 0.21882 0.0
C1554 C 0.23429 0.58087 0.20747 0.0
C1555 C 0.27114 0.61434 0.22373 0.0
C1556 C 0.21386 0.56321 0.21127 0.0
C1557 C 0.20864 0.56011 0.23403 0.0
C1558 C 0.24985 0.5948 0.22659 0.0
C1559 C 0.22505 0.57373 0.25253 0.0
C1560 C 0.28927 0.62443 0.24236 0.0
C1561 C 0.2914 0.64229 0.20051 0.0
N1562 N 0.24485 0.59057 0.24842 0.0
N1563 N 0.2728 0.62348 0.20336 0.0
H1564 H 0.98461 0.54173 1.00258 0.0
H1565 H 0.87518 0.62241 0.04376 0.0
H1566 H 0.94998 0.53478 0.06758 0.0
H1567 H 0.87172 0.58395 0.97282 0.0
H1568 H 0.90991 0.59872 0.05369 0.0
H1569 H 0.95007 0.56498 0.99221 0.0
C1570 C 0.96976 0.54473 0.01468 0.0
C1571 C 0.97032 0.53562 0.03598 0.0
C1572 C 0.9016 0.59561 0.03595 0.0
C1573 C 0.93129 0.56364 0.02437 0.0
C1574 C 0.88197 0.60922 0.03019 0.0
C1575 C 0.8706 0.60518 0.00738 0.0
C1576 C 0.91049 0.57832 0.01867 0.0
C1577 C 0.87996 0.58762 0.99059 0.0
C1578 C 0.95015 0.55828 0.0087 0.0
C1579 C 0.95085 0.54146 0.05113 0.0
N1580 N 0.89958 0.57498 0.99651 0.0
N1581 N 0.93229 0.55522 0.04511 0.0
H1582 H 0.13949 0.02399 0.05108 0.0
H1583 H 0.18732 0.89077 0.03661 0.0
H1584 H 0.09073 0.95972 0.06668 0.0
H1585 H 0.21084 0.94421 0.9921 0.0
H1586 H 0.15437 0.91665 0.05127 0.0
H1587 H 0.16842 0.99613 0.03277 0.0
C1588 C 0.1345 1.00405 0.05044 0.0
C1589 C 0.11219 0.99439 0.0604 0.0
C1590 C 0.1666 0.92255 0.03814 0.0
C1591 C 0.14626 0.96231 0.04002 0.0
C1592 C 0.18546 0.90785 0.0298 0.0
C1593 C 0.20192 0.91533 0.01309 0.0
C1594 C 0.16457 0.94521 0.03014 0.0
C1595 C 0.19853 0.93763 1.00487 0.0
C1596 C 0.15128 0.98814 0.04007 0.0
C1597 C 0.10772 0.96826 0.05961 0.0
N1598 N 0.18049 0.95194 0.0137 0.0
N1599 N 0.12467 0.9532 0.04979 0.0
loop_
_geom_bond_atom_site_label_1
_geom_bond_atom_site_label_2
_geom_bond_distance
_geom_bond_site_symmetry_2
_ccdc_geom_bond_type
H0 C1 0.949 . S
C1 H0 0.949 . S
C1 C2 1.395 . S
C1 C3 1.391 . S
C2 C1 1.395 . S
C2 C5 1.396 . S
C3 C1 1.391 . S
C3 C7 1.387 . S
C3 C8 1.491 . S
H4 C5 0.930 1_565 S
C5 C2 1.396 . S
C5 H4 0.930 1_545 S
C5 C6 1.393 . S
C6 C5 1.393 . S
C6 C7 1.409 . S
C7 C3 1.387 . S
C7 C6 1.409 . S
C7 H9 0.951 . S
C8 C3 1.491 . S
C8 C10 1.382 . S
C8 C12 1.404 . S
H9 C7 0.951 . S
C10 C8 1.382 . S
C10 C11 1.390 1_554 S
C10 H15 0.949 1_554 S
C11 C10 1.390 1_556 S
C11 C16 1.399 1_556 S
C12 C8 1.404 . S
C12 H13 0.950 . S
C12 C14 1.375 . S
H13 C12 0.950 . S
C14 C12 1.375 . S
C14 C16 1.382 . S
C14 H18 0.950 . S
H15 C10 0.949 1_556 S
C16 C11 1.399 1_554 S
C16 C14 1.382 . S
C16 H17 0.952 1_554 S
H17 C16 0.952 1_556 S
H18 C14 0.950 . S
H19 C20 0.949 . S
C20 H19 0.949 . S
C20 C21 1.395 . S
C20 C22 1.391 . S
C21 C20 1.395 . S
C21 C24 1.390 . S
C22 C20 1.391 . S
C22 C26 1.387 . S
C22 C27 1.491 . S
H23 C24 0.950 . S
C24 C21 1.390 . S
C24 H23 0.950 . S
C24 C25 1.378 . S
C25 C24 1.378 . S
C25 C26 1.409 . S
C26 C22 1.387 . S
C26 C25 1.409 . S
C26 H28 0.951 . S
C27 C22 1.491 . S
C27 C29 1.382 . S
C27 C31 1.404 . S
H28 C26 0.951 . S
C29 C27 1.382 . S
C29 C30 1.390 . S
C29 H34 0.949 . S
C30 C29 1.390 . S
C30 C35 1.399 . S
C31 C27 1.404 . S
C31 H32 0.950 . S
C31 C33 1.375 . S
H32 C31 0.950 . S
C33 C31 1.375 . S
C33 C35 1.382 . S
C33 H37 0.950 . S
H34 C29 0.949 . S
C35 C30 1.399 . S
C35 C33 1.382 . S
C35 H36 0.952 . S
H36 C35 0.952 . S
H37 C33 0.950 . S
H38 C39 0.949 . S
C39 H38 0.949 . S
C39 C40 1.395 . S
C39 C41 1.391 1_455 S
C40 C39 1.395 . S
C40 C43 1.390 1_455 S
C41 C39 1.391 1_655 S
C41 C45 1.387 . S
C41 C46 1.491 1_554 S
H42 C43 0.950 . S
C43 C40 1.390 1_655 S
C43 H42 0.950 . S
C43 C44 1.378 . S
C44 C43 1.378 . S
C44 C45 1.409 . S
C45 C41 1.387 . S
C45 C44 1.409 . S
C45 H47 0.951 1_554 S
C46 C41 1.491 1_556 S
C46 C48 1.382 1_655 S
C46 C50 1.404 . S
H47 C45 0.951 1_556 S
C48 C46 1.382 1_455 S
C48 C49 1.390 . S
C48 H53 0.949 1_556 S
C49 C48 1.390 . S
C49 C54 1.399 . S
C50 C46 1.404 . S
C50 H51 0.951 . S
C50 C52 1.373 1_655 S
H51 C50 0.951 . S
C52 C50 1.373 1_455 S
C52 C54 1.382 . S
C52 H56 0.950 . S
H53 C48 0.949 1_554 S
C54 C49 1.399 . S
C54 C52 1.382 . S
C54 H55 0.952 . S
H55 C54 0.952 . S
H56 C52 0.950 . S
H57 C58 0.949 . S
C58 H57 0.949 . S
C58 C59 1.395 . S
C58 C60 1.391 . S
C59 C58 1.395 . S
C59 C62 1.390 . S
C60 C58 1.391 . S
C60 C64 1.387 . S
C60 C65 1.491 . S
H61 C62 0.950 . S
C62 C59 1.390 . S
C62 H61 0.950 . S
C62 C63 1.378 . S
C63 C62 1.378 . S
C63 C64 1.409 . S
C64 C60 1.387 . S
C64 C63 1.409 . S
C64 H66 0.951 . S
C65 C60 1.491 . S
C65 C67 1.382 . S
C65 C69 1.404 . S
H66 C64 0.951 . S
C67 C65 1.382 . S
C67 C68 1.390 . S
C67 H72 0.949 . S
C68 C67 1.390 . S
C68 C73 1.399 . S
C69 C65 1.404 . S
C69 H70 0.950 . S
C69 C71 1.375 . S
H70 C69 0.950 . S
C71 C69 1.375 . S
C71 C73 1.382 . S
C71 H75 0.950 . S
H72 C67 0.949 . S
C73 C68 1.399 . S
C73 C71 1.382 . S
C73 H74 0.952 . S
H74 C73 0.952 . S
H75 C71 0.950 . S
H76 C77 0.949 . S
C77 H76 0.949 . S
C77 C78 1.395 . S
C77 C79 1.391 . S
C78 C77 1.395 . S
C78 C81 1.390 . S
C79 C77 1.391 . S
C79 C83 1.387 . S
C79 C84 1.491 . S
H80 C81 0.950 1_545 S
C81 C78 1.390 . S
C81 H80 0.950 1_565 S
C81 C82 1.378 . S
C82 C81 1.378 . S
C82 C83 1.409 . S
C83 C79 1.387 . S
C83 C82 1.409 . S
C83 H85 0.951 . S
C84 C79 1.491 . S
C84 C86 1.382 . S
C84 C88 1.404 . S
H85 C83 0.951 . S
C86 C84 1.382 . S
C86 C87 1.390 . S
C86 H91 0.949 . S
C87 C86 1.390 . S
C87 C92 1.399 . S
C88 C84 1.404 . S
C88 H89 0.950 . S
C88 C90 1.375 . S
H89 C88 0.950 . S
C90 C88 1.375 . S
C90 C92 1.382 . S
C90 H94 0.950 . S
H91 C86 0.949 . S
C92 C87 1.399 . S
C92 C90 1.382 . S
C92 H93 0.952 . S
H93 C92 0.952 . S
H94 C90 0.950 . S
H95 C96 0.949 . S
C96 H95 0.949 . S
C96 C97 1.395 . S
C96 C98 1.391 . S
C97 C96 1.395 . S
C97 C100 1.390 . S
C98 C96 1.391 . S
C98 C102 1.387 . S
C98 C103 1.491 . S
H99 C100 0.950 . S
C100 C97 1.390 . S
C100 H99 0.950 . S
C100 C101 1.378 . S
C101 C100 1.378 . S
C101 C102 1.409 . S
C102 C98 1.387 . S
C102 C101 1.409 . S
C102 H104 0.951 . S
C103 C98 1.491 . S
C103 C105 1.382 . S
C103 C107 1.404 . S
H104 C102 0.951 . S
C105 C103 1.382 . S
C105 C106 1.390 . S
C105 H110 0.949 . S
C106 C105 1.390 . S
C106 C111 1.399 . S
C107 C103 1.404 . S
C107 H108 0.950 . S
C107 C109 1.375 . S
H108 C107 0.950 . S
C109 C107 1.375 . S
C109 C111 1.382 . S
C109 H113 0.950 . S
H110 C105 0.949 . S
C111 C106 1.399 . S
C111 C109 1.382 . S
C111 H112 0.952 . S
H112 C111 0.952 . S
H113 C109 0.950 . S
H114 C115 0.949 1_455 S
C115 H114 0.949 1_655 S
C115 C116 1.395 . S
C115 C117 1.391 . S
C116 C115 1.395 . S
C116 C119 1.390 . S
C117 C115 1.391 . S
C117 C121 1.387 . S
C117 C122 1.491 . S
H118 C119 0.950 . S
C119 C116 1.390 . S
C119 H118 0.950 . S
C119 C120 1.378 . S
C120 C119 1.378 . S
C120 C121 1.409 . S
C121 C117 1.387 . S
C121 C120 1.409 . S
C121 H123 0.951 . S
C122 C117 1.491 . S
C122 C124 1.382 1_655 S
C122 C126 1.404 . S
H123 C121 0.951 . S
C124 C122 1.382 1_455 S
C124 C125 1.390 . S
C124 H129 0.949 . S
C125 C124 1.390 . S
C125 C130 1.399 . S
C126 C122 1.404 . S
C126 H127 0.950 . S
C126 C128 1.375 . S
H127 C126 0.950 . S
C128 C126 1.375 . S
C128 C130 1.382 1_655 S
C128 H132 0.950 . S
H129 C124 0.949 . S
C130 C125 1.399 . S
C130 C128 1.382 1_455 S
C130 H131 0.952 . S
H131 C130 0.952 . S
H132 C128 0.950 . S
H133 C134 0.949 . S
C134 H133 0.949 . S
C134 C135 1.395 . S
C134 C136 1.391 . S
C135 C134 1.395 . S
C135 C138 1.390 . S
C136 C134 1.391 . S
C136 C140 1.387 . S
C136 C141 1.491 . S
H137 C138 0.950 . S
C138 C135 1.390 . S
C138 H137 0.950 . S
C138 C139 1.378 . S
C139 C138 1.378 . S
C139 C140 1.409 . S
C140 C136 1.387 . S
C140 C139 1.409 . S
C140 H142 0.951 . S
C141 C136 1.491 . S
C141 C143 1.382 . S
C141 C145 1.404 . S
H142 C140 0.951 . S
C143 C141 1.382 . S
C143 C144 1.390 . S
C143 H148 0.949 . S
C144 C143 1.390 . S
C144 C149 1.399 . S
C145 C141 1.404 . S
C145 H146 0.950 . S
C145 C147 1.375 . S
H146 C145 0.950 . S
C147 C145 1.375 . S
C147 C149 1.382 . S
C147 H151 0.950 . S
H148 C143 0.949 . S
C149 C144 1.399 . S
C149 C147 1.382 . S
C149 H150 0.952 . S
H150 C149 0.952 . S
H151 C147 0.950 . S
H152 C153 0.949 . S
C153 H152 0.949 . S
C153 C154 1.395 . S
C153 C155 1.391 . S
C154 C153 1.395 . S
C154 C157 1.390 . S
C155 C153 1.391 . S
C155 C159 1.387 . S
C155 C160 1.491 . S
H156 C157 0.950 . S
C157 C154 1.390 . S
C157 H156 0.950 . S
C157 C158 1.378 . S
C158 C157 1.378 . S
C158 C159 1.409 . S
C159 C155 1.387 . S
C159 C158 1.409 . S
C159 H161 0.951 . S
C160 C155 1.491 . S
C160 C162 1.382 . S
C160 C164 1.404 . S
H161 C159 0.951 . S
C162 C160 1.382 . S
C162 C163 1.390 . S
C162 H167 0.949 . S
C163 C162 1.390 . S
C163 C168 1.399 . S
C164 C160 1.404 . S
C164 H165 0.950 . S
C164 C166 1.375 . S
H165 C164 0.950 . S
C166 C164 1.375 . S
C166 C168 1.382 . S
C166 H170 0.950 . S
H167 C162 0.949 . S
C168 C163 1.399 . S
C168 C166 1.382 . S
C168 H169 0.952 . S
H169 C168 0.952 . S
H170 C166 0.950 . S
H171 C172 0.949 . S
C172 H171 0.949 . S
C172 C173 1.395 . S
C172 C174 1.391 . S
C173 C172 1.395 . S
C173 C176 1.390 1_565 S
C174 C172 1.391 . S
C174 C178 1.387 . S
C174 C179 1.491 . S
H175 C176 0.950 . S
C176 C173 1.390 1_545 S
C176 H175 0.950 . S
C176 C177 1.378 . S
C177 C176 1.378 . S
C177 C178 1.409 1_545 S
C178 C174 1.387 . S
C178 C177 1.409 1_565 S
C178 H180 0.951 . S
C179 C174 1.491 . S
C179 C181 1.382 . S
C179 C183 1.404 . S
H180 C178 0.951 . S
C181 C179 1.382 . S
C181 C182 1.390 . S
C181 H186 0.949 . S
C182 C181 1.390 . S
C182 C187 1.399 . S
C183 C179 1.404 . S
C183 H184 0.950 . S
C183 C185 1.375 . S
H184 C183 0.950 . S
C185 C183 1.375 . S
C185 C187 1.382 . S
C185 H189 0.950 . S
H186 C181 0.949 . S
C187 C182 1.399 . S
C187 C185 1.382 . S
C187 H188 0.952 . S
H188 C187 0.952 . S
H189 C185 0.950 . S
H190 C191 0.949 . S
C191 H190 0.949 . S
C191 C192 1.395 . S
C191 C193 1.391 . S
C192 C191 1.395 . S
C192 C195 1.390 . S
C193 C191 1.391 . S
C193 C197 1.387 . S
C193 C198 1.491 . S
H194 C195 0.950 . S
C195 C192 1.390 . S
C195 H194 0.950 . S
C195 C196 1.378 . S
C196 C195 1.378 . S
C196 C197 1.409 . S
C197 C193 1.387 . S
C197 C196 1.409 . S
C197 H199 0.951 . S
C198 C193 1.491 . S
C198 C200 1.382 . S
C198 C202 1.404 . S
H199 C197 0.951 . S
C200 C198 1.382 . S
C200 C201 1.390 . S
C200 H205 0.949 . S
C201 C200 1.390 . S
C201 C206 1.399 . S
C202 C198 1.404 . S
C202 H203 0.950 . S
C202 C204 1.375 . S
H203 C202 0.950 . S
C204 C202 1.375 . S
C204 C206 1.382 . S
C204 H208 0.950 . S
H205 C200 0.949 . S
C206 C201 1.399 . S
C206 C204 1.382 . S
C206 H207 0.952 . S
H207 C206 0.952 . S
H208 C204 0.950 . S
H209 C210 0.949 . S
C210 H209 0.949 . S
C210 C211 1.395 . S
C210 C212 1.391 . S
C211 C210 1.395 . S
C211 C214 1.390 . S
C212 C210 1.391 . S
C212 C216 1.387 . S
C212 C217 1.491 . S
H213 C214 0.950 . S
C214 C211 1.390 . S
C214 H213 0.950 . S
C214 C215 1.378 . S
C215 C214 1.378 . S
C215 C216 1.409 . S
C216 C212 1.387 . S
C216 C215 1.409 . S
C216 H218 0.951 . S
C217 C212 1.491 . S
C217 C219 1.382 . S
C217 C221 1.404 . S
H218 C216 0.951 . S
C219 C217 1.382 . S
C219 C220 1.390 . S
C219 H224 0.949 . S
C220 C219 1.390 . S
C220 C225 1.399 . S
C221 C217 1.404 . S
C221 H222 0.950 . S
C221 C223 1.375 . S
H222 C221 0.950 . S
C223 C221 1.375 . S
C223 C225 1.382 . S
C223 H227 0.950 . S
H224 C219 0.949 . S
C225 C220 1.399 . S
C225 C223 1.382 . S
C225 H226 0.952 . S
H226 C225 0.952 . S
H227 C223 0.950 . S
H228 C229 0.949 . S
C229 H228 0.949 . S
C229 C230 1.395 . S
C229 C231 1.391 . S
C230 C229 1.395 . S
C230 C233 1.390 . S
C231 C229 1.391 . S
C231 C235 1.387 . S
C231 C236 1.491 . S
H232 C233 0.950 . S
C233 C230 1.390 . S
C233 H232 0.950 . S
C233 C234 1.378 . S
C234 C233 1.378 . S
C234 C235 1.409 . S
C235 C231 1.387 . S
C235 C234 1.409 . S
C235 H237 0.951 . S
C236 C231 1.491 . S
C236 C238 1.382 . S
C236 C240 1.404 . S
H237 C235 0.951 . S
C238 C236 1.382 . S
C238 C239 1.390 . S
C238 H243 0.949 . S
C239 C238 1.390 . S
C239 C244 1.399 . S
C240 C236 1.404 . S
C240 H241 0.950 . S
C240 C242 1.375 . S
H241 C240 0.950 . S
C242 C240 1.375 . S
C242 C244 1.382 . S
C242 H246 0.950 . S
H243 C238 0.949 . S
C244 C239 1.399 . S
C244 C242 1.382 . S
C244 H245 0.952 . S
H245 C244 0.952 . S
H246 C242 0.950 . S
H247 C248 0.949 1_554 S
C248 H247 0.949 1_556 S
C248 C249 1.395 . S
C248 C250 1.391 . S
C249 C248 1.395 . S
C249 C252 1.390 . S
C250 C248 1.391 . S
C250 C254 1.387 . S
C250 C255 1.491 . S
H251 C252 0.950 . S
C252 C249 1.390 . S
C252 H251 0.950 . S
C252 C253 1.378 . S
C253 C252 1.378 . S
C253 C254 1.409 . S
C254 C250 1.387 . S
C254 C253 1.409 . S
C254 H256 0.951 . S
C255 C250 1.491 . S
C255 C257 1.382 1_556 S
C255 C259 1.404 . S
H256 C254 0.951 . S
C257 C255 1.382 1_554 S
C257 C258 1.390 . S
C257 H262 0.949 . S
C258 C257 1.390 . S
C258 C263 1.399 . S
C259 C255 1.404 . S
C259 H260 0.950 . S
C259 C261 1.375 . S
H260 C259 0.950 . S
C261 C259 1.375 . S
C261 C263 1.382 1_556 S
C261 H265 0.950 . S
H262 C257 0.949 . S
C263 C258 1.399 . S
C263 C261 1.382 1_554 S
C263 H264 0.952 . S
H264 C263 0.952 . S
H265 C261 0.950 . S
H266 C267 0.949 . S
C267 H266 0.949 . S
C267 C268 1.395 . S
C267 C269 1.391 . S
C268 C267 1.395 . S
C268 C271 1.390 . S
C269 C267 1.391 . S
C269 C273 1.387 . S
C269 C274 1.491 . S
H270 C271 0.950 . S
C271 C268 1.390 . S
C271 H270 0.950 . S
C271 C272 1.378 . S
C272 C271 1.378 . S
C272 C273 1.409 . S
C273 C269 1.387 . S
C273 C272 1.409 . S
C273 H275 0.951 . S
C274 C269 1.491 . S
C274 C276 1.382 . S
C274 C278 1.404 . S
H275 C273 0.951 . S
C276 C274 1.382 . S
C276 C277 1.390 . S
C276 H281 0.949 . S
C277 C276 1.390 . S
C277 C282 1.399 . S
C278 C274 1.404 . S
C278 H279 0.950 . S
C278 C280 1.375 . S
H279 C278 0.950 . S
C280 C278 1.375 . S
C280 C282 1.382 . S
C280 H284 0.950 . S
H281 C276 0.949 . S
C282 C277 1.399 . S
C282 C280 1.382 . S
C282 H283 0.952 . S
H283 C282 0.952 . S
H284 C280 0.950 . S
H285 C286 0.949 . S
C286 H285 0.949 . S
C286 C287 1.395 . S
C286 C288 1.391 . S
C287 C286 1.395 . S
C287 C290 1.390 . S
C288 C286 1.391 . S
C288 C292 1.387 . S
C288 C293 1.491 . S
H289 C290 0.950 1_554 S
C290 C287 1.390 . S
C290 H289 0.950 1_556 S
C290 C291 1.378 . S
C291 C290 1.378 . S
C291 C292 1.409 . S
C292 C288 1.387 . S
C292 C291 1.409 . S
C292 H294 0.951 . S
C293 C288 1.491 . S
C293 C295 1.382 . S
C293 C297 1.404 . S
H294 C292 0.951 . S
C295 C293 1.382 . S
C295 C296 1.390 . S
C295 H300 0.949 . S
C296 C295 1.390 . S
C296 C301 1.399 . S
C297 C293 1.404 . S
C297 H298 0.950 . S
C297 C299 1.375 . S
H298 C297 0.950 . S
C299 C297 1.375 . S
C299 C301 1.382 . S
C299 H303 0.950 . S
H300 C295 0.949 . S
C301 C296 1.399 . S
C301 C299 1.382 . S
C301 H302 0.952 . S
H302 C301 0.952 . S
H303 C299 0.950 . S
Mn304 O309 2.095 . S
Mn304 O319 2.162 . S
Mn304 O320 2.297 . S
Mn304 O328 2.385 . S
Mn304 O329 2.209 . S
Mn304 O330 2.094 . S
Mn305 O310 2.121 1_556 S
Mn305 N312 2.257 . S
Mn305 N321 2.282 . S
Mn305 O329 2.215 1_556 S
Mn305 O331 2.117 1_556 S
C306 O328 1.234 . S
C306 O329 1.283 . S
C307 O319 1.281 . S
C307 O320 1.236 . S
C308 O330 1.240 . S
C308 O331 1.264 . S
O309 Mn304 2.095 . S
O309 C318 1.250 . S
O310 Mn305 2.121 1_554 S
O310 C318 1.258 . S
C311 N312 1.326 . S
C311 C315 1.460 . S
C311 H317 0.929 . S
N312 Mn305 2.257 . S
N312 C311 1.326 . S
N312 C316 1.362 . S
C313 C314 1.258 . S
C313 C316 1.431 . S
C313 C333 1.449 . S
C314 C313 1.258 . S
C314 C315 1.477 . S
C314 H334 0.931 . S
C315 C311 1.460 . S
C315 C314 1.477 . S
C315 H335 0.930 . S
C316 N312 1.362 . S
C316 C313 1.431 . S
C316 C326 1.476 . S
H317 C311 0.929 . S
C318 O309 1.250 . S
C318 O310 1.258 . S
O319 Mn304 2.162 . S
O319 C307 1.281 . S
O320 Mn304 2.297 . S
O320 C307 1.236 . S
N321 Mn305 2.282 . S
N321 C322 1.328 . S
N321 C326 1.318 . S
C322 N321 1.328 . S
C322 C323 1.457 . S
C322 H327 0.929 . S
C323 C322 1.457 . S
C323 C324 1.291 . S
C323 H336 0.931 . S
C324 C323 1.291 . S
C324 C325 1.373 . S
C324 H337 0.929 . S
C325 C324 1.373 . S
C325 C326 1.396 . S
C325 C332 1.403 . S
C326 C316 1.476 . S
C326 N321 1.318 . S
C326 C325 1.396 . S
H327 C322 0.929 . S
O328 Mn304 2.385 . S
O328 C306 1.234 . S
O329 Mn304 2.209 . S
O329 Mn305 2.215 1_554 S
O329 C306 1.283 . S
O330 Mn304 2.094 . S
O330 C308 1.240 . S
O331 Mn305 2.117 1_554 S
O331 C308 1.264 . S
C332 C325 1.403 . S
C332 C333 1.399 . S
C332 H338 0.929 . S
C333 C313 1.449 . S
C333 C332 1.399 . S
C333 H339 0.930 . S
H334 C314 0.931 . S
H335 C315 0.930 . S
H336 C323 0.931 . S
H337 C324 0.929 . S
H338 C332 0.929 . S
H339 C333 0.930 . S
Mn340 O345 2.095 . S
Mn340 O355 2.162 . S
Mn340 O356 2.297 . S
Mn340 O364 2.385 . S
Mn340 O365 2.209 . S
Mn340 O366 2.094 . S
Mn341 O346 2.121 . S
Mn341 N348 2.257 . S
Mn341 N357 2.282 . S
Mn341 O365 2.215 . S
Mn341 O367 2.117 . S
C342 O364 1.234 . S
C342 O365 1.283 . S
C343 O355 1.281 . S
C343 O356 1.236 . S
C344 O366 1.240 . S
C344 O367 1.264 . S
O345 Mn340 2.095 . S
O345 C354 1.250 . S
O346 Mn341 2.121 . S
O346 C354 1.258 . S
C347 N348 1.326 . S
C347 C351 1.460 . S
C347 H353 0.929 . S
N348 Mn341 2.257 . S
N348 C347 1.326 . S
N348 C352 1.362 . S
C349 C350 1.258 . S
C349 C352 1.431 . S
C349 C369 1.449 . S
C350 C349 1.258 . S
C350 C351 1.477 . S
C350 H370 0.931 . S
C351 C347 1.460 . S
C351 C350 1.477 . S
C351 H371 0.930 . S
C352 N348 1.362 . S
C352 C349 1.431 . S
C352 C362 1.476 . S
H353 C347 0.929 . S
C354 O345 1.250 . S
C354 O346 1.258 . S
O355 Mn340 2.162 . S
O355 C343 1.281 . S
O356 Mn340 2.297 . S
O356 C343 1.236 . S
N357 Mn341 2.282 . S
N357 C358 1.328 . S
N357 C362 1.318 . S
C358 N357 1.328 . S
C358 C359 1.457 . S
C358 H363 0.929 . S
C359 C358 1.457 . S
C359 C360 1.291 . S
C359 H372 0.931 . S
C360 C359 1.291 . S
C360 C361 1.373 . S
C360 H373 0.929 . S
C361 C360 1.373 . S
C361 C362 1.396 . S
C361 C368 1.403 . S
C362 C352 1.476 . S
C362 N357 1.318 . S
C362 C361 1.396 . S
H363 C358 0.929 . S
O364 Mn340 2.385 . S
O364 C342 1.234 . S
O365 Mn340 2.209 . S
O365 Mn341 2.215 . S
O365 C342 1.283 . S
O366 Mn340 2.094 . S
O366 C344 1.240 . S
O367 Mn341 2.117 . S
O367 C344 1.264 . S
C368 C361 1.403 . S
C368 C369 1.399 . S
C368 H374 0.929 . S
C369 C349 1.449 . S
C369 C368 1.399 . S
C369 H375 0.930 . S
H370 C350 0.931 . S
H371 C351 0.930 . S
H372 C359 0.931 . S
H373 C360 0.929 . S
H374 C368 0.929 . S
H375 C369 0.930 . S
Mn376 O381 2.095 1_554 S
Mn376 O391 2.162 . S
Mn376 O392 2.297 1_554 S
Mn376 O400 2.385 . S
Mn376 O401 2.209 1_554 S
Mn376 O402 2.094 . S
Mn377 O382 2.121 . S
Mn377 N384 2.257 . S
Mn377 N393 2.282 1_556 S
Mn377 O401 2.215 . S
Mn377 O403 2.117 1_556 S
C378 O400 1.254 . S
C378 O401 1.266 1_554 S
C379 O391 1.257 1_556 S
C379 O392 1.259 . S
C380 O402 1.240 . S
C380 O403 1.264 . S
O381 Mn376 2.095 1_556 S
O381 C390 1.250 . S
O382 Mn377 2.121 . S
O382 C390 1.258 . S
C383 N384 1.326 . S
C383 C387 1.460 . S
C383 H389 0.929 . S
N384 Mn377 2.257 . S
N384 C383 1.326 . S
N384 C388 1.362 . S
C385 C386 1.258 . S
C385 C388 1.431 . S
C385 C405 1.449 . S
C386 C385 1.258 . S
C386 C387 1.477 . S
C386 H406 0.931 . S
C387 C383 1.460 . S
C387 C386 1.477 . S
C387 H407 0.930 . S
C388 N384 1.362 . S
C388 C385 1.431 . S
C388 C398 1.476 . S
H389 C383 0.929 . S
C390 O381 1.250 . S
C390 O382 1.258 . S
O391 Mn376 2.162 . S
O391 C379 1.257 1_554 S
O392 Mn376 2.297 1_556 S
O392 C379 1.259 . S
N393 Mn377 2.282 1_554 S
N393 C394 1.328 . S
N393 C398 1.318 1_554 S
C394 N393 1.328 . S
C394 C395 1.457 . S
C394 H399 0.929 . S
C395 C394 1.457 . S
C395 C396 1.291 . S
C395 H408 0.931 . S
C396 C395 1.291 . S
C396 C397 1.373 1_554 S
C396 H409 0.929 . S
C397 C396 1.373 1_556 S
C397 C398 1.396 . S
C397 C404 1.403 . S
C398 C388 1.476 . S
C398 N393 1.318 1_556 S
C398 C397 1.396 . S
H399 C394 0.929 . S
O400 Mn376 2.385 . S
O400 C378 1.254 . S
O401 Mn376 2.209 1_556 S
O401 Mn377 2.215 . S
O401 C378 1.266 1_556 S
O402 Mn376 2.094 . S
O402 C380 1.240 . S
O403 Mn377 2.117 1_554 S
O403 C380 1.264 . S
C404 C397 1.403 . S
C404 C405 1.399 . S
C404 H410 0.929 . S
C405 C385 1.449 . S
C405 C404 1.399 . S
C405 H411 0.930 . S
H406 C386 0.931 . S
H407 C387 0.930 . S
H408 C395 0.931 . S
H409 C396 0.929 . S
H410 C404 0.929 . S
H411 C405 0.930 . S
Mn412 O417 2.095 . S
Mn412 O427 2.162 . S
Mn412 O428 2.297 . S
Mn412 O436 2.385 . S
Mn412 O437 2.209 1_545 S
Mn412 O438 2.094 . S
Mn413 O418 2.121 . S
Mn413 N420 2.257 . S
Mn413 N429 2.282 . S
Mn413 O437 2.215 . S
Mn413 O439 2.117 1_565 S
C414 O436 1.234 1_565 S
C414 O437 1.283 . S
C415 O427 1.281 . S
C415 O428 1.236 . S
C416 O438 1.240 . S
C416 O439 1.264 . S
O417 Mn412 2.095 . S
O417 C426 1.250 . S
O418 Mn413 2.121 . S
O418 C426 1.258 1_565 S
C419 N420 1.326 . S
C419 C423 1.460 . S
C419 H425 0.929 . S
N420 Mn413 2.257 . S
N420 C419 1.326 . S
N420 C424 1.362 . S
C421 C422 1.258 . S
C421 C424 1.431 . S
C421 C441 1.449 . S
C422 C421 1.258 . S
C422 C423 1.477 . S
C422 H442 0.931 . S
C423 C419 1.460 . S
C423 C422 1.477 . S
C423 H443 0.930 . S
C424 N420 1.362 . S
C424 C421 1.431 . S
C424 C434 1.476 . S
H425 C419 0.929 . S
C426 O417 1.250 . S
C426 O418 1.258 1_545 S
O427 Mn412 2.162 . S
O427 C415 1.281 . S
O428 Mn412 2.297 . S
O428 C415 1.236 . S
N429 Mn413 2.282 . S
N429 C430 1.328 . S
N429 C434 1.318 . S
C430 N429 1.328 . S
C430 C431 1.457 . S
C430 H435 0.929 . S
C431 C430 1.457 . S
C431 C432 1.291 . S
C431 H444 0.931 . S
C432 C431 1.291 . S
C432 C433 1.373 . S
C432 H445 0.929 . S
C433 C432 1.373 . S
C433 C434 1.396 . S
C433 C440 1.403 . S
C434 C424 1.476 . S
C434 N429 1.318 . S
C434 C433 1.396 . S
H435 C430 0.929 . S
O436 Mn412 2.385 . S
O436 C414 1.234 1_545 S
O437 Mn412 2.209 1_565 S
O437 Mn413 2.215 . S
O437 C414 1.283 . S
O438 Mn412 2.094 . S
O438 C416 1.240 . S
O439 Mn413 2.117 1_545 S
O439 C416 1.264 . S
C440 C433 1.403 . S
C440 C441 1.399 . S
C440 H446 0.929 . S
C441 C421 1.449 . S
C441 C440 1.399 . S
C441 H447 0.930 . S
H442 C422 0.931 . S
H443 C423 0.930 . S
H444 C431 0.931 . S
H445 C432 0.929 . S
H446 C440 0.929 . S
H447 C441 0.930 . S
Mn448 O453 2.095 . S
Mn448 O463 2.162 . S
Mn448 O464 2.297 . S
Mn448 O472 2.385 . S
Mn448 O473 2.209 . S
Mn448 O474 2.094 . S
Mn449 O454 2.121 . S
Mn449 N456 2.257 . S
Mn449 N465 2.282 . S
Mn449 O473 2.215 . S
Mn449 O475 2.117 . S
C450 O472 1.234 . S
C450 O473 1.283 . S
C451 O463 1.281 . S
C451 O464 1.236 . S
C452 O474 1.240 . S
C452 O475 1.264 . S
O453 Mn448 2.095 . S
O453 C462 1.250 . S
O454 Mn449 2.121 . S
O454 C462 1.258 . S
C455 N456 1.326 . S
C455 C459 1.460 . S
C455 H461 0.929 . S
N456 Mn449 2.257 . S
N456 C455 1.326 . S
N456 C460 1.362 . S
C457 C458 1.258 . S
C457 C460 1.431 . S
C457 C477 1.449 . S
C458 C457 1.258 . S
C458 C459 1.477 . S
C458 H478 0.931 . S
C459 C455 1.460 . S
C459 C458 1.477 . S
C459 H479 0.930 . S
C460 N456 1.362 . S
C460 C457 1.431 . S
C460 C470 1.476 . S
H461 C455 0.929 . S
C462 O453 1.250 . S
C462 O454 1.258 . S
O463 Mn448 2.162 . S
O463 C451 1.281 . S
O464 Mn448 2.297 . S
O464 C451 1.236 . S
N465 Mn449 2.282 . S
N465 C466 1.328 . S
N465 C470 1.318 . S
C466 N465 1.328 . S
C466 C467 1.457 . S
C466 H471 0.929 . S
C467 C466 1.457 . S
C467 C468 1.291 . S
C467 H480 0.931 . S
C468 C467 1.291 . S
C468 C469 1.373 . S
C468 H481 0.929 . S
C469 C468 1.373 . S
C469 C470 1.396 . S
C469 C476 1.403 . S
C470 C460 1.476 . S
C470 N465 1.318 . S
C470 C469 1.396 . S
H471 C466 0.929 . S
O472 Mn448 2.385 . S
O472 C450 1.234 . S
O473 Mn448 2.209 . S
O473 Mn449 2.215 . S
O473 C450 1.283 . S
O474 Mn448 2.094 . S
O474 C452 1.240 . S
O475 Mn449 2.117 . S
O475 C452 1.264 . S
C476 C469 1.403 . S
C476 C477 1.399 . S
C476 H482 0.929 . S
C477 C457 1.449 . S
C477 C476 1.399 . S
C477 H483 0.930 . S
H478 C458 0.931 . S
H479 C459 0.930 . S
H480 C467 0.931 . S
H481 C468 0.929 . S
H482 C476 0.929 . S
H483 C477 0.930 . S
Mn484 O489 2.095 . S
Mn484 O499 2.162 . S
Mn484 O500 2.297 . S
Mn484 O508 2.385 . S
Mn484 O509 2.209 . S
Mn484 O510 2.094 . S
Mn485 O490 2.121 . S
Mn485 N492 2.257 . S
Mn485 N501 2.282 . S
Mn485 O509 2.215 . S
Mn485 O511 2.117 . S
C486 O508 1.234 . S
C486 O509 1.283 . S
C487 O499 1.281 . S
C487 O500 1.236 . S
C488 O510 1.240 . S
C488 O511 1.264 . S
O489 Mn484 2.095 . S
O489 C498 1.250 . S
O490 Mn485 2.121 . S
O490 C498 1.258 . S
C491 N492 1.326 . S
C491 C495 1.460 . S
C491 H497 0.929 . S
N492 Mn485 2.257 . S
N492 C491 1.326 . S
N492 C496 1.362 . S
C493 C494 1.258 . S
C493 C496 1.431 . S
C493 C513 1.449 . S
C494 C493 1.258 . S
C494 C495 1.477 . S
C494 H514 0.931 . S
C495 C491 1.460 . S
C495 C494 1.477 . S
C495 H515 0.930 . S
C496 N492 1.362 . S
C496 C493 1.431 . S
C496 C506 1.476 . S
H497 C491 0.929 . S
C498 O489 1.250 . S
C498 O490 1.258 . S
O499 Mn484 2.162 . S
O499 C487 1.281 . S
O500 Mn484 2.297 . S
O500 C487 1.236 . S
N501 Mn485 2.282 . S
N501 C502 1.328 . S
N501 C506 1.318 . S
C502 N501 1.328 . S
C502 C503 1.457 . S
C502 H507 0.929 . S
C503 C502 1.457 . S
C503 C504 1.291 . S
C503 H516 0.931 . S
C504 C503 1.291 . S
C504 C505 1.373 . S
C504 H517 0.929 . S
C505 C504 1.373 . S
C505 C506 1.396 . S
C505 C512 1.403 . S
C506 C496 1.476 . S
C506 N501 1.318 . S
C506 C505 1.396 . S
H507 C502 0.929 . S
O508 Mn484 2.385 . S
O508 C486 1.234 . S
O509 Mn484 2.209 . S
O509 Mn485 2.215 . S
O509 C486 1.283 . S
O510 Mn484 2.094 . S
O510 C488 1.240 . S
O511 Mn485 2.117 . S
O511 C488 1.264 . S
C512 C505 1.403 . S
C512 C513 1.399 . S
C512 H518 0.929 . S
C513 C493 1.449 . S
C513 C512 1.399 . S
C513 H519 0.930 . S
H514 C494 0.931 . S
H515 C495 0.930 . S
H516 C503 0.931 . S
H517 C504 0.929 . S
H518 C512 0.929 . S
H519 C513 0.930 . S
Mn520 O525 2.095 . S
Mn520 O535 2.162 . S
Mn520 O536 2.297 . S
Mn520 O544 2.385 . S
Mn520 O545 2.209 . S
Mn520 O546 2.094 . S
Mn521 O526 2.121 . S
Mn521 N528 2.257 . S
Mn521 N537 2.282 . S
Mn521 O545 2.215 . S
Mn521 O547 2.117 . S
C522 O544 1.234 . S
C522 O545 1.283 . S
C523 O535 1.281 . S
C523 O536 1.236 . S
C524 O546 1.240 . S
C524 O547 1.264 . S
O525 Mn520 2.095 . S
O525 C534 1.250 . S
O526 Mn521 2.121 . S
O526 C534 1.258 . S
C527 N528 1.326 . S
C527 C531 1.460 . S
C527 H533 0.929 . S
N528 Mn521 2.257 . S
N528 C527 1.326 . S
N528 C532 1.362 . S
C529 C530 1.258 . S
C529 C532 1.431 . S
C529 C549 1.449 . S
C530 C529 1.258 . S
C530 C531 1.477 . S
C530 H550 0.931 . S
C531 C527 1.460 . S
C531 C530 1.477 . S
C531 H551 0.930 . S
C532 N528 1.362 . S
C532 C529 1.431 . S
C532 C542 1.476 . S
H533 C527 0.929 . S
C534 O525 1.250 . S
C534 O526 1.258 . S
O535 Mn520 2.162 . S
O535 C523 1.281 . S
O536 Mn520 2.297 . S
O536 C523 1.236 . S
N537 Mn521 2.282 . S
N537 C538 1.328 . S
N537 C542 1.318 . S
C538 N537 1.328 . S
C538 C539 1.457 . S
C538 H543 0.929 . S
C539 C538 1.457 . S
C539 C540 1.291 . S
C539 H552 0.931 . S
C540 C539 1.291 . S
C540 C541 1.373 . S
C540 H553 0.929 . S
C541 C540 1.373 . S
C541 C542 1.396 . S
C541 C548 1.403 . S
C542 C532 1.476 . S
C542 N537 1.318 . S
C542 C541 1.396 . S
H543 C538 0.929 . S
O544 Mn520 2.385 . S
O544 C522 1.234 . S
O545 Mn520 2.209 . S
O545 Mn521 2.215 . S
O545 C522 1.283 . S
O546 Mn520 2.094 . S
O546 C524 1.240 . S
O547 Mn521 2.117 . S
O547 C524 1.264 . S
C548 C541 1.403 . S
C548 C549 1.399 . S
C548 H554 0.929 . S
C549 C529 1.449 . S
C549 C548 1.399 . S
C549 H555 0.930 . S
H550 C530 0.931 . S
H551 C531 0.930 . S
H552 C539 0.931 . S
H553 C540 0.929 . S
H554 C548 0.929 . S
H555 C549 0.930 . S
Mn556 O561 2.095 . S
Mn556 O571 2.162 1_545 S
Mn556 O572 2.297 . S
Mn556 O580 2.385 . S
Mn556 O581 2.209 . S
Mn556 O582 2.094 . S
Mn557 O562 2.121 . S
Mn557 N564 2.257 . S
Mn557 N573 2.282 . S
Mn557 O581 2.215 . S
Mn557 O583 2.117 . S
C558 O580 1.234 . S
C558 O581 1.283 . S
C559 O571 1.281 . S
C559 O572 1.236 1_565 S
C560 O582 1.240 . S
C560 O583 1.264 . S
O561 Mn556 2.095 . S
O561 C570 1.250 . S
O562 Mn557 2.121 . S
O562 C570 1.258 . S
C563 N564 1.326 . S
C563 C567 1.460 . S
C563 H569 0.929 . S
N564 Mn557 2.257 . S
N564 C563 1.326 . S
N564 C568 1.362 . S
C565 C566 1.258 . S
C565 C568 1.431 . S
C565 C585 1.449 . S
C566 C565 1.258 . S
C566 C567 1.477 . S
C566 H586 0.931 . S
C567 C563 1.460 . S
C567 C566 1.477 . S
C567 H587 0.930 . S
C568 N564 1.362 . S
C568 C565 1.431 . S
C568 C578 1.476 . S
H569 C563 0.929 . S
C570 O561 1.250 . S
C570 O562 1.258 . S
O571 Mn556 2.162 1_565 S
O571 C559 1.281 . S
O572 Mn556 2.297 . S
O572 C559 1.236 1_545 S
N573 Mn557 2.282 . S
N573 C574 1.328 . S
N573 C578 1.318 . S
C574 N573 1.328 . S
C574 C575 1.457 . S
C574 H579 0.929 . S
C575 C574 1.457 . S
C575 C576 1.291 . S
C575 H588 0.931 . S
C576 C575 1.291 . S
C576 C577 1.373 . S
C576 H589 0.929 . S
C577 C576 1.373 . S
C577 C578 1.396 . S
C577 C584 1.403 . S
C578 C568 1.476 . S
C578 N573 1.318 . S
C578 C577 1.396 . S
H579 C574 0.929 . S
O580 Mn556 2.385 . S
O580 C558 1.234 . S
O581 Mn556 2.209 . S
O581 Mn557 2.215 . S
O581 C558 1.283 . S
O582 Mn556 2.094 . S
O582 C560 1.240 . S
O583 Mn557 2.117 . S
O583 C560 1.264 . S
C584 C577 1.403 . S
C584 C585 1.399 . S
C584 H590 0.929 . S
C585 C565 1.449 . S
C585 C584 1.399 . S
C585 H591 0.930 . S
H586 C566 0.931 . S
H587 C567 0.930 . S
H588 C575 0.931 . S
H589 C576 0.929 . S
H590 C584 0.929 . S
H591 C585 0.930 . S
Mn592 O597 2.095 . S
Mn592 O607 2.162 . S
Mn592 O608 2.297 . S
Mn592 O616 2.385 . S
Mn592 O617 2.209 1_455 S
Mn592 O618 2.094 . S
Mn593 O598 2.121 . S
Mn593 N600 2.257 . S
Mn593 N609 2.282 . S
Mn593 O617 2.215 . S
Mn593 O619 2.117 . S
C594 O616 1.234 1_655 S
C594 O617 1.283 . S
C595 O607 1.281 . S
C595 O608 1.236 . S
C596 O618 1.240 . S
C596 O619 1.264 1_455 S
O597 Mn592 2.095 . S
O597 C606 1.250 . S
O598 Mn593 2.121 . S
O598 C606 1.258 1_655 S
C599 N600 1.326 . S
C599 C603 1.460 . S
C599 H605 0.929 . S
N600 Mn593 2.257 . S
N600 C599 1.326 . S
N600 C604 1.362 . S
C601 C602 1.258 . S
C601 C604 1.431 . S
C601 C621 1.449 . S
C602 C601 1.258 . S
C602 C603 1.477 . S
C602 H622 0.931 . S
C603 C599 1.460 . S
C603 C602 1.477 . S
C603 H623 0.930 . S
C604 N600 1.362 . S
C604 C601 1.431 . S
C604 C614 1.476 . S
H605 C599 0.929 . S
C606 O597 1.250 . S
C606 O598 1.258 1_455 S
O607 Mn592 2.162 . S
O607 C595 1.281 . S
O608 Mn592 2.297 . S
O608 C595 1.236 . S
N609 Mn593 2.282 . S
N609 C610 1.328 . S
N609 C614 1.318 . S
C610 N609 1.328 . S
C610 C611 1.457 . S
C610 H615 0.929 . S
C611 C610 1.457 . S
C611 C612 1.291 . S
C611 H624 0.931 . S
C612 C611 1.291 . S
C612 C613 1.373 . S
C612 H625 0.929 . S
C613 C612 1.373 . S
C613 C614 1.396 . S
C613 C620 1.403 . S
C614 C604 1.476 . S
C614 N609 1.318 . S
C614 C613 1.396 . S
H615 C610 0.929 . S
O616 Mn592 2.385 . S
O616 C594 1.234 1_455 S
O617 Mn592 2.209 1_655 S
O617 Mn593 2.215 . S
O617 C594 1.283 . S
O618 Mn592 2.094 . S
O618 C596 1.240 . S
O619 Mn593 2.117 . S
O619 C596 1.264 1_655 S
C620 C613 1.403 . S
C620 C621 1.399 . S
C620 H626 0.929 . S
C621 C601 1.449 . S
C621 C620 1.399 . S
C621 H627 0.930 . S
H622 C602 0.931 . S
H623 C603 0.930 . S
H624 C611 0.931 . S
H625 C612 0.929 . S
H626 C620 0.929 . S
H627 C621 0.930 . S
Mn628 O633 2.095 . S
Mn628 O643 2.162 . S
Mn628 O644 2.297 . S
Mn628 O652 2.385 . S
Mn628 O653 2.209 . S
Mn628 O654 2.094 . S
Mn629 O634 2.121 . S
Mn629 N636 2.257 . S
Mn629 N645 2.282 . S
Mn629 O653 2.215 . S
Mn629 O655 2.117 . S
C630 O652 1.234 . S
C630 O653 1.283 . S
C631 O643 1.281 . S
C631 O644 1.236 . S
C632 O654 1.240 . S
C632 O655 1.264 . S
O633 Mn628 2.095 . S
O633 C642 1.250 . S
O634 Mn629 2.121 . S
O634 C642 1.258 . S
C635 N636 1.326 . S
C635 C639 1.460 . S
C635 H641 0.929 . S
N636 Mn629 2.257 . S
N636 C635 1.326 . S
N636 C640 1.362 . S
C637 C638 1.258 . S
C637 C640 1.431 . S
C637 C657 1.449 . S
C638 C637 1.258 . S
C638 C639 1.477 . S
C638 H658 0.931 . S
C639 C635 1.460 . S
C639 C638 1.477 . S
C639 H659 0.930 . S
C640 N636 1.362 . S
C640 C637 1.431 . S
C640 C650 1.476 . S
H641 C635 0.929 . S
C642 O633 1.250 . S
C642 O634 1.258 . S
O643 Mn628 2.162 . S
O643 C631 1.281 . S
O644 Mn628 2.297 . S
O644 C631 1.236 . S
N645 Mn629 2.282 . S
N645 C646 1.328 . S
N645 C650 1.318 . S
C646 N645 1.328 . S
C646 C647 1.457 . S
C646 H651 0.929 . S
C647 C646 1.457 . S
C647 C648 1.291 . S
C647 H660 0.931 . S
C648 C647 1.291 . S
C648 C649 1.373 . S
C648 H661 0.929 . S
C649 C648 1.373 . S
C649 C650 1.396 . S
C649 C656 1.403 . S
C650 C640 1.476 . S
C650 N645 1.318 . S
C650 C649 1.396 . S
H651 C646 0.929 . S
O652 Mn628 2.385 . S
O652 C630 1.234 . S
O653 Mn628 2.209 . S
O653 Mn629 2.215 . S
O653 C630 1.283 . S
O654 Mn628 2.094 . S
O654 C632 1.240 . S
O655 Mn629 2.117 . S
O655 C632 1.264 . S
C656 C649 1.403 . S
C656 C657 1.399 . S
C656 H662 0.929 . S
C657 C637 1.449 . S
C657 C656 1.399 . S
C657 H663 0.930 . S
H658 C638 0.931 . S
H659 C639 0.930 . S
H660 C647 0.931 . S
H661 C648 0.929 . S
H662 C656 0.929 . S
H663 C657 0.930 . S
Mn664 O669 2.095 1_455 S
Mn664 O679 2.162 . S
Mn664 O680 2.297 1_455 S
Mn664 O688 2.385 . S
Mn664 O689 2.209 1_455 S
Mn664 O690 2.094 . S
Mn665 O670 2.121 . S
Mn665 N672 2.257 . S
Mn665 N681 2.282 . S
Mn665 O689 2.215 . S
Mn665 O691 2.117 1_655 S
C666 O688 1.234 . S
C666 O689 1.283 1_455 S
C667 O679 1.281 . S
C667 O680 1.236 1_455 S
C668 O690 1.240 . S
C668 O691 1.264 . S
O669 Mn664 2.095 1_655 S
O669 C678 1.250 . S
O670 Mn665 2.121 . S
O670 C678 1.258 . S
C671 N672 1.326 . S
C671 C675 1.460 . S
C671 H677 0.929 . S
N672 Mn665 2.257 . S
N672 C671 1.326 . S
N672 C676 1.362 . S
C673 C674 1.258 . S
C673 C676 1.431 . S
C673 C693 1.449 . S
C674 C673 1.258 . S
C674 C675 1.477 . S
C674 H694 0.931 . S
C675 C671 1.460 . S
C675 C674 1.477 . S
C675 H695 0.930 . S
C676 N672 1.362 . S
C676 C673 1.431 . S
C676 C686 1.476 . S
H677 C671 0.929 . S
C678 O669 1.250 . S
C678 O670 1.258 . S
O679 Mn664 2.162 . S
O679 C667 1.281 . S
O680 Mn664 2.297 1_655 S
O680 C667 1.236 1_655 S
N681 Mn665 2.282 . S
N681 C682 1.328 1_655 S
N681 C686 1.318 . S
C682 N681 1.328 1_455 S
C682 C683 1.457 . S
C682 H687 0.929 . S
C683 C682 1.457 . S
C683 C684 1.291 . S
C683 H696 0.931 . S
C684 C683 1.291 . S
C684 C685 1.373 1_455 S
C684 H697 0.929 . S
C685 C684 1.373 1_655 S
C685 C686 1.396 . S
C685 C692 1.403 . S
C686 C676 1.476 . S
C686 N681 1.318 . S
C686 C685 1.396 . S
H687 C682 0.929 . S
O688 Mn664 2.385 . S
O688 C666 1.234 . S
O689 Mn664 2.209 1_655 S
O689 Mn665 2.215 . S
O689 C666 1.283 1_655 S
O690 Mn664 2.094 . S
O690 C668 1.240 . S
O691 Mn665 2.117 1_455 S
O691 C668 1.264 . S
C692 C685 1.403 . S
C692 C693 1.399 . S
C692 H698 0.929 . S
C693 C673 1.449 . S
C693 C692 1.399 . S
C693 H699 0.930 . S
H694 C674 0.931 . S
H695 C675 0.930 . S
H696 C683 0.931 . S
H697 C684 0.929 . S
H698 C692 0.929 . S
H699 C693 0.930 . S
Mn700 O705 2.095 . S
Mn700 O715 2.162 . S
Mn700 O716 2.297 . S
Mn700 O724 2.385 . S
Mn700 O725 2.209 . S
Mn700 O726 2.094 . S
Mn701 O706 2.121 . S
Mn701 N708 2.257 . S
Mn701 N717 2.282 . S
Mn701 O725 2.215 . S
Mn701 O727 2.117 . S
C702 O724 1.234 . S
C702 O725 1.283 . S
C703 O715 1.281 . S
C703 O716 1.236 . S
C704 O726 1.240 . S
C704 O727 1.264 . S
O705 Mn700 2.095 . S
O705 C714 1.250 . S
O706 Mn701 2.121 . S
O706 C714 1.258 . S
C707 N708 1.326 . S
C707 C711 1.460 . S
C707 H713 0.929 . S
N708 Mn701 2.257 . S
N708 C707 1.326 . S
N708 C712 1.362 . S
C709 C710 1.258 . S
C709 C712 1.431 . S
C709 C729 1.449 . S
C710 C709 1.258 . S
C710 C711 1.477 . S
C710 H730 0.931 . S
C711 C707 1.460 . S
C711 C710 1.477 . S
C711 H731 0.930 . S
C712 N708 1.362 . S
C712 C709 1.431 . S
C712 C722 1.476 . S
H713 C707 0.929 . S
C714 O705 1.250 . S
C714 O706 1.258 . S
O715 Mn700 2.162 . S
O715 C703 1.281 . S
O716 Mn700 2.297 . S
O716 C703 1.236 . S
N717 Mn701 2.282 . S
N717 C718 1.328 . S
N717 C722 1.318 . S
C718 N717 1.328 . S
C718 C719 1.457 . S
C718 H723 0.929 . S
C719 C718 1.457 . S
C719 C720 1.291 . S
C719 H732 0.931 . S
C720 C719 1.291 . S
C720 C721 1.373 . S
C720 H733 0.929 . S
C721 C720 1.373 . S
C721 C722 1.396 . S
C721 C728 1.403 . S
C722 C712 1.476 . S
C722 N717 1.318 . S
C722 C721 1.396 . S
H723 C718 0.929 . S
O724 Mn700 2.385 . S
O724 C702 1.234 . S
O725 Mn700 2.209 . S
O725 Mn701 2.215 . S
O725 C702 1.283 . S
O726 Mn700 2.094 . S
O726 C704 1.240 . S
O727 Mn701 2.117 . S
O727 C704 1.264 . S
C728 C721 1.403 . S
C728 C729 1.399 . S
C728 H734 0.929 . S
C729 C709 1.449 . S
C729 C728 1.399 . S
C729 H735 0.930 . S
H730 C710 0.931 . S
H731 C711 0.930 . S
H732 C719 0.931 . S
H733 C720 0.929 . S
H734 C728 0.929 . S
H735 C729 0.930 . S
H736 C742 0.930 . S
H737 C746 0.930 . S
H738 C751 0.929 . S
H739 C749 0.929 1_554 S
H740 C744 0.929 . S
H741 C750 0.929 . S
C742 H736 0.930 . S
C742 C743 1.367 . S
C742 C750 1.378 . S
C743 C742 1.367 . S
C743 C751 1.433 . S
C744 H740 0.929 . S
C744 C746 1.378 . S
C744 C748 1.350 . S
C745 C748 1.463 . S
C745 C750 1.350 . S
C745 N753 1.427 . S
C746 H737 0.930 . S
C746 C744 1.378 . S
C746 C747 1.367 . S
C747 C746 1.367 . S
C747 C749 1.433 . S
C748 C744 1.350 . S
C748 C745 1.463 . S
C748 N752 1.427 . S
C749 H739 0.929 1_556 S
C749 C747 1.433 . S
C749 N752 1.384 . S
C750 H741 0.929 . S
C750 C742 1.378 . S
C750 C745 1.350 . S
C751 H738 0.929 . S
C751 C743 1.433 . S
C751 N753 1.384 . S
N752 C748 1.427 . S
N752 C749 1.384 . S
N753 C745 1.427 . S
N753 C751 1.384 . S
H754 C760 0.930 . S
H755 C764 0.930 . S
H756 C769 0.929 . S
H757 C767 0.929 . S
H758 C762 0.929 . S
H759 C768 0.929 . S
C760 H754 0.930 . S
C760 C761 1.367 . S
C760 C768 1.378 . S
C761 C760 1.367 . S
C761 C769 1.433 . S
C762 H758 0.929 . S
C762 C764 1.378 . S
C762 C766 1.350 . S
C763 C766 1.463 . S
C763 C768 1.350 . S
C763 N771 1.427 . S
C764 H755 0.930 . S
C764 C762 1.378 . S
C764 C765 1.367 . S
C765 C764 1.367 . S
C765 C767 1.433 . S
C766 C762 1.350 . S
C766 C763 1.463 . S
C766 N770 1.427 . S
C767 H757 0.929 . S
C767 C765 1.433 . S
C767 N770 1.384 . S
C768 H759 0.929 . S
C768 C760 1.378 . S
C768 C763 1.350 . S
C769 H756 0.929 . S
C769 C761 1.433 . S
C769 N771 1.384 . S
N770 C766 1.427 . S
N770 C767 1.384 . S
N771 C763 1.427 . S
N771 C769 1.384 . S
H772 C778 0.930 . S
H773 C782 0.930 . S
H774 C787 0.929 . S
H775 C785 0.929 . S
H776 C780 0.929 . S
H777 C786 0.929 . S
C778 H772 0.930 . S
C778 C779 1.367 . S
C778 C786 1.378 . S
C779 C778 1.367 . S
C779 C787 1.433 . S
C780 H776 0.929 . S
C780 C782 1.378 . S
C780 C784 1.350 . S
C781 C784 1.463 . S
C781 C786 1.350 . S
C781 N789 1.427 . S
C782 H773 0.930 . S
C782 C780 1.378 . S
C782 C783 1.367 . S
C783 C782 1.367 . S
C783 C785 1.433 . S
C784 C780 1.350 . S
C784 C781 1.463 . S
C784 N788 1.427 . S
C785 H775 0.929 . S
C785 C783 1.433 . S
C785 N788 1.384 . S
C786 H777 0.929 . S
C786 C778 1.378 . S
C786 C781 1.350 . S
C787 H774 0.929 . S
C787 C779 1.433 . S
C787 N789 1.384 . S
N788 C784 1.427 . S
N788 C785 1.384 . S
N789 C781 1.427 . S
N789 C787 1.384 . S
H790 C796 0.930 . S
H791 C800 0.930 . S
H792 C805 0.929 . S
H793 C803 0.929 1_655 S
H794 C798 0.929 . S
H795 C804 0.929 . S
C796 H790 0.930 . S
C796 C797 1.367 1_545 S
C796 C804 1.378 . S
C797 C796 1.367 1_565 S
C797 C805 1.433 . S
C798 H794 0.929 . S
C798 C800 1.378 1_455 S
C798 C802 1.350 1_565 S
C799 C802 1.463 . S
C799 C804 1.350 . S
C799 N807 1.427 1_545 S
C800 H791 0.930 . S
C800 C798 1.378 1_655 S
C800 C801 1.367 1_565 S
C801 C800 1.367 1_545 S
C801 C803 1.433 1_655 S
C802 C798 1.350 1_545 S
C802 C799 1.463 . S
C802 N806 1.427 . S
C803 H793 0.929 1_455 S
C803 C801 1.433 1_455 S
C803 N806 1.384 . S
C804 H795 0.929 . S
C804 C796 1.378 . S
C804 C799 1.350 . S
C805 H792 0.929 . S
C805 C797 1.433 . S
C805 N807 1.384 . S
N806 C802 1.427 . S
N806 C803 1.384 . S
N807 C799 1.427 1_565 S
N807 C805 1.384 . S
H808 C814 0.930 . S
H809 C818 0.930 . S
H810 C823 0.929 . S
H811 C821 0.929 . S
H812 C816 0.929 . S
H813 C822 0.929 . S
C814 H808 0.930 . S
C814 C815 1.367 . S
C814 C822 1.378 . S
C815 C814 1.367 . S
C815 C823 1.433 . S
C816 H812 0.929 . S
C816 C818 1.378 . S
C816 C820 1.350 . S
C817 C820 1.463 . S
C817 C822 1.350 . S
C817 N825 1.427 . S
C818 H809 0.930 . S
C818 C816 1.378 . S
C818 C819 1.367 . S
C819 C818 1.367 . S
C819 C821 1.433 . S
C820 C816 1.350 . S
C820 C817 1.463 . S
C820 N824 1.427 . S
C821 H811 0.929 . S
C821 C819 1.433 . S
C821 N824 1.384 . S
C822 H813 0.929 . S
C822 C814 1.378 . S
C822 C817 1.350 . S
C823 H810 0.929 . S
C823 C815 1.433 . S
C823 N825 1.384 . S
N824 C820 1.427 . S
N824 C821 1.384 . S
N825 C817 1.427 . S
N825 C823 1.384 . S
H826 C832 0.930 . S
H827 C836 0.930 . S
H828 C841 0.929 . S
H829 C839 0.929 . S
H830 C834 0.929 . S
H831 C840 0.929 . S
C832 H826 0.930 . S
C832 C833 1.367 . S
C832 C840 1.378 . S
C833 C832 1.367 . S
C833 C841 1.433 . S
C834 H830 0.929 . S
C834 C836 1.378 . S
C834 C838 1.350 . S
C835 C838 1.463 . S
C835 C840 1.350 . S
C835 N843 1.427 . S
C836 H827 0.930 . S
C836 C834 1.378 . S
C836 C837 1.367 . S
C837 C836 1.367 . S
C837 C839 1.433 . S
C838 C834 1.350 . S
C838 C835 1.463 . S
C838 N842 1.427 . S
C839 H829 0.929 . S
C839 C837 1.433 . S
C839 N842 1.384 . S
C840 H831 0.929 . S
C840 C832 1.378 . S
C840 C835 1.350 . S
C841 H828 0.929 . S
C841 C833 1.433 . S
C841 N843 1.384 . S
N842 C838 1.427 . S
N842 C839 1.384 . S
N843 C835 1.427 . S
N843 C841 1.384 . S
H844 C850 0.930 . S
H845 C854 0.930 . S
H846 C859 0.929 . S
H847 C857 0.929 . S
H848 C852 0.929 . S
H849 C858 0.929 . S
C850 H844 0.930 . S
C850 C851 1.367 . S
C850 C858 1.378 . S
C851 C850 1.367 . S
C851 C859 1.433 . S
C852 H848 0.929 . S
C852 C854 1.378 . S
C852 C856 1.350 . S
C853 C856 1.463 . S
C853 C858 1.350 . S
C853 N861 1.427 . S
C854 H845 0.930 . S
C854 C852 1.378 . S
C854 C855 1.367 . S
C855 C854 1.367 . S
C855 C857 1.433 . S
C856 C852 1.350 . S
C856 C853 1.463 . S
C856 N860 1.427 . S
C857 H847 0.929 . S
C857 C855 1.433 . S
C857 N860 1.384 . S
C858 H849 0.929 . S
C858 C850 1.378 . S
C858 C853 1.350 . S
C859 H846 0.929 . S
C859 C851 1.433 . S
C859 N861 1.384 . S
N860 C856 1.427 . S
N860 C857 1.384 . S
N861 C853 1.427 . S
N861 C859 1.384 . S
H862 C868 0.930 . S
H863 C872 0.930 . S
H864 C877 0.929 . S
H865 C875 0.929 . S
H866 C870 0.929 . S
H867 C876 0.929 . S
C868 H862 0.930 . S
C868 C869 1.367 . S
C868 C876 1.378 . S
C869 C868 1.367 . S
C869 C877 1.433 1_565 S
C870 H866 0.929 . S
C870 C872 1.378 . S
C870 C874 1.350 . S
C871 C874 1.463 1_565 S
C871 C876 1.350 . S
C871 N879 1.427 1_565 S
C872 H863 0.930 . S
C872 C870 1.378 . S
C872 C873 1.367 . S
C873 C872 1.367 . S
C873 C875 1.433 1_545 S
C874 C870 1.350 . S
C874 C871 1.463 1_545 S
C874 N878 1.427 1_545 S
C875 H865 0.929 . S
C875 C873 1.433 1_565 S
C875 N878 1.384 . S
C876 H867 0.929 . S
C876 C868 1.378 . S
C876 C871 1.350 . S
C877 H864 0.929 . S
C877 C869 1.433 1_545 S
C877 N879 1.384 . S
N878 C874 1.427 1_565 S
N878 C875 1.384 . S
N879 C871 1.427 1_545 S
N879 C877 1.384 . S
H880 C886 0.930 . S
H881 C890 0.930 . S
H882 C895 0.929 . S
H883 C893 0.929 . S
H884 C888 0.929 . S
H885 C894 0.929 . S
C886 H880 0.930 . S
C886 C887 1.367 . S
C886 C894 1.378 . S
C887 C886 1.367 . S
C887 C895 1.433 . S
C888 H884 0.929 . S
C888 C890 1.378 . S
C888 C892 1.350 . S
C889 C892 1.463 . S
C889 C894 1.350 . S
C889 N897 1.427 . S
C890 H881 0.930 . S
C890 C888 1.378 . S
C890 C891 1.367 . S
C891 C890 1.367 . S
C891 C893 1.433 . S
C892 C888 1.350 . S
C892 C889 1.463 . S
C892 N896 1.427 . S
C893 H883 0.929 . S
C893 C891 1.433 . S
C893 N896 1.384 . S
C894 H885 0.929 . S
C894 C886 1.378 . S
C894 C889 1.350 . S
C895 H882 0.929 . S
C895 C887 1.433 . S
C895 N897 1.384 . S
N896 C892 1.427 . S
N896 C893 1.384 . S
N897 C889 1.427 . S
N897 C895 1.384 . S
H898 C904 0.930 . S
H899 C908 0.930 . S
H900 C913 0.929 . S
H901 C911 0.929 . S
H902 C906 0.929 . S
H903 C912 0.929 . S
C904 H898 0.930 . S
C904 C905 1.367 . S
C904 C912 1.378 . S
C905 C904 1.367 . S
C905 C913 1.433 . S
C906 H902 0.929 . S
C906 C908 1.378 . S
C906 C910 1.350 . S
C907 C910 1.463 . S
C907 C912 1.350 . S
C907 N915 1.427 . S
C908 H899 0.930 . S
C908 C906 1.378 . S
C908 C909 1.367 . S
C909 C908 1.367 . S
C909 C911 1.433 . S
C910 C906 1.350 . S
C910 C907 1.463 . S
C910 N914 1.427 . S
C911 H901 0.929 . S
C911 C909 1.433 . S
C911 N914 1.384 . S
C912 H903 0.929 . S
C912 C904 1.378 . S
C912 C907 1.350 . S
C913 H900 0.929 . S
C913 C905 1.433 . S
C913 N915 1.384 . S
N914 C910 1.427 . S
N914 C911 1.384 . S
N915 C907 1.427 . S
N915 C913 1.384 . S
H916 C922 0.930 . S
H917 C926 0.930 . S
H918 C931 0.929 . S
H919 C929 0.929 . S
H920 C924 0.929 . S
H921 C930 0.929 . S
C922 H916 0.930 . S
C922 C923 1.367 . S
C922 C930 1.378 . S
C923 C922 1.367 . S
C923 C931 1.433 . S
C924 H920 0.929 . S
C924 C926 1.378 . S
C924 C928 1.350 . S
C925 C928 1.463 . S
C925 C930 1.350 . S
C925 N933 1.427 . S
C926 H917 0.930 . S
C926 C924 1.378 . S
C926 C927 1.367 . S
C927 C926 1.367 . S
C927 C929 1.433 . S
C928 C924 1.350 . S
C928 C925 1.463 . S
C928 N932 1.427 . S
C929 H919 0.929 . S
C929 C927 1.433 . S
C929 N932 1.384 . S
C930 H921 0.929 . S
C930 C922 1.378 . S
C930 C925 1.350 . S
C931 H918 0.929 . S
C931 C923 1.433 . S
C931 N933 1.384 . S
N932 C928 1.427 . S
N932 C929 1.384 . S
N933 C925 1.427 . S
N933 C931 1.384 . S
H934 C940 0.930 . S
H935 C944 0.930 . S
H936 C949 0.929 . S
H937 C947 0.929 . S
H938 C942 0.929 . S
H939 C948 0.929 . S
C940 H934 0.930 . S
C940 C941 1.367 . S
C940 C948 1.378 . S
C941 C940 1.367 . S
C941 C949 1.433 . S
C942 H938 0.929 . S
C942 C944 1.378 . S
C942 C946 1.350 . S
C943 C946 1.463 . S
C943 C948 1.350 . S
C943 N951 1.427 . S
C944 H935 0.930 . S
C944 C942 1.378 . S
C944 C945 1.367 . S
C945 C944 1.367 . S
C945 C947 1.433 . S
C946 C942 1.350 . S
C946 C943 1.463 . S
C946 N950 1.427 . S
C947 H937 0.929 . S
C947 C945 1.433 . S
C947 N950 1.384 . S
C948 H939 0.929 . S
C948 C940 1.378 . S
C948 C943 1.350 . S
C949 H936 0.929 . S
C949 C941 1.433 . S
C949 N951 1.384 . S
N950 C946 1.427 . S
N950 C947 1.384 . S
N951 C943 1.427 . S
N951 C949 1.384 . S
H952 C958 0.930 . S
H953 C962 0.930 . S
H954 C967 0.929 . S
H955 C965 0.929 . S
H956 C960 0.929 . S
H957 C966 0.929 . S
C958 H952 0.930 . S
C958 C959 1.367 . S
C958 C966 1.378 . S
C959 C958 1.367 . S
C959 C967 1.433 . S
C960 H956 0.929 . S
C960 C962 1.378 . S
C960 C964 1.350 . S
C961 C964 1.463 . S
C961 C966 1.350 . S
C961 N969 1.427 . S
C962 H953 0.930 . S
C962 C960 1.378 . S
C962 C963 1.367 . S
C963 C962 1.367 . S
C963 C965 1.433 . S
C964 C960 1.350 . S
C964 C961 1.463 . S
C964 N968 1.427 . S
C965 H955 0.929 . S
C965 C963 1.433 . S
C965 N968 1.384 . S
C966 H957 0.929 . S
C966 C958 1.378 . S
C966 C961 1.350 . S
C967 H954 0.929 . S
C967 C959 1.433 . S
C967 N969 1.384 . S
N968 C964 1.427 . S
N968 C965 1.384 . S
N969 C961 1.427 . S
N969 C967 1.384 . S
H970 C976 0.930 . S
H971 C980 0.930 . S
H972 C985 0.929 . S
H973 C983 0.929 1_655 S
H974 C978 0.929 . S
H975 C984 0.929 . S
C976 H970 0.930 . S
C976 C977 1.367 . S
C976 C984 1.378 . S
C977 C976 1.367 . S
C977 C985 1.433 . S
C978 H974 0.929 . S
C978 C980 1.378 . S
C978 C982 1.350 . S
C979 C982 1.463 . S
C979 C984 1.350 . S
C979 N987 1.427 . S
C980 H971 0.930 . S
C980 C978 1.378 . S
C980 C981 1.367 . S
C981 C980 1.367 . S
C981 C983 1.433 . S
C982 C978 1.350 . S
C982 C979 1.463 . S
C982 N986 1.427 . S
C983 H973 0.929 1_455 S
C983 C981 1.433 . S
C983 N986 1.384 . S
C984 H975 0.929 . S
C984 C976 1.378 . S
C984 C979 1.350 . S
C985 H972 0.929 . S
C985 C977 1.433 . S
C985 N987 1.384 . S
N986 C982 1.427 . S
N986 C983 1.384 . S
N987 C979 1.427 . S
N987 C985 1.384 . S
H988 C994 0.930 . S
H989 C998 0.930 . S
H990 C1003 0.929 . S
H991 C1001 0.929 . S
H992 C996 0.929 . S
H993 C1002 0.929 . S
C994 H988 0.930 . S
C994 C995 1.367 . S
C994 C1002 1.378 . S
C995 C994 1.367 . S
C995 C1003 1.433 . S
C996 H992 0.929 . S
C996 C998 1.378 . S
C996 C1000 1.350 . S
C997 C1000 1.463 . S
C997 C1002 1.350 . S
C997 N1005 1.427 . S
C998 H989 0.930 . S
C998 C996 1.378 . S
C998 C999 1.367 . S
C999 C998 1.367 . S
C999 C1001 1.433 . S
C1000 C996 1.350 . S
C1000 C997 1.463 . S
C1000 N1004 1.427 . S
C1001 H991 0.929 . S
C1001 C999 1.433 . S
C1001 N1004 1.384 . S
C1002 H993 0.929 . S
C1002 C994 1.378 . S
C1002 C997 1.350 . S
C1003 H990 0.929 . S
C1003 C995 1.433 . S
C1003 N1005 1.384 . S
N1004 C1000 1.427 . S
N1004 C1001 1.384 . S
N1005 C997 1.427 . S
N1005 C1003 1.384 . S
H1006 C1012 0.930 . S
H1007 C1016 0.930 . S
H1008 C1021 0.929 . S
H1009 C1019 0.929 . S
H1010 C1014 0.929 . S
H1011 C1020 0.929 . S
C1012 H1006 0.930 . S
C1012 C1013 1.367 1_455 S
C1012 C1020 1.378 . S
C1013 C1012 1.367 1_655 S
C1013 C1021 1.433 . S
C1014 H1010 0.929 . S
C1014 C1016 1.378 . S
C1014 C1018 1.350 . S
C1015 C1018 1.463 . S
C1015 C1020 1.350 1_655 S
C1015 N1023 1.427 . S
C1016 H1007 0.930 . S
C1016 C1014 1.378 . S
C1016 C1017 1.367 . S
C1017 C1016 1.367 . S
C1017 C1019 1.433 1_655 S
C1018 C1014 1.350 . S
C1018 C1015 1.463 . S
C1018 N1022 1.427 1_655 S
C1019 H1009 0.929 . S
C1019 C1017 1.433 1_455 S
C1019 N1022 1.384 . S
C1020 H1011 0.929 . S
C1020 C1012 1.378 . S
C1020 C1015 1.350 1_455 S
C1021 H1008 0.929 . S
C1021 C1013 1.433 . S
C1021 N1023 1.384 . S
N1022 C1018 1.427 1_455 S
N1022 C1019 1.384 . S
N1023 C1015 1.427 . S
N1023 C1021 1.384 . S
H1024 C1030 0.930 . S
H1025 C1034 0.930 . S
H1026 C1039 0.929 . S
H1027 C1037 0.929 . S
H1028 C1032 0.929 . S
H1029 C1038 0.929 . S
C1030 H1024 0.930 . S
C1030 C1031 1.367 . S
C1030 C1038 1.378 . S
C1031 C1030 1.367 . S
C1031 C1039 1.433 . S
C1032 H1028 0.929 . S
C1032 C1034 1.378 . S
C1032 C1036 1.350 . S
C1033 C1036 1.463 . S
C1033 C1038 1.350 . S
C1033 N1041 1.427 . S
C1034 H1025 0.930 . S
C1034 C1032 1.378 . S
C1034 C1035 1.367 . S
C1035 C1034 1.367 . S
C1035 C1037 1.433 . S
C1036 C1032 1.350 . S
C1036 C1033 1.463 . S
C1036 N1040 1.427 . S
C1037 H1027 0.929 . S
C1037 C1035 1.433 . S
C1037 N1040 1.384 . S
C1038 H1029 0.929 . S
C1038 C1030 1.378 . S
C1038 C1033 1.350 . S
C1039 H1026 0.929 . S
C1039 C1031 1.433 . S
C1039 N1041 1.384 . S
N1040 C1036 1.427 . S
N1040 C1037 1.384 . S
N1041 C1033 1.427 . S
N1041 C1039 1.384 . S
H1042 C1048 0.930 . S
H1043 C1052 0.930 . S
H1044 C1057 0.929 . S
H1045 C1055 0.929 . S
H1046 C1050 0.929 . S
H1047 C1056 0.929 . S
C1048 H1042 0.930 . S
C1048 C1049 1.367 . S
C1048 C1056 1.378 . S
C1049 C1048 1.367 . S
C1049 C1057 1.433 . S
C1050 H1046 0.929 . S
C1050 C1052 1.378 . S
C1050 C1054 1.350 . S
C1051 C1054 1.463 . S
C1051 C1056 1.350 . S
C1051 N1059 1.427 . S
C1052 H1043 0.930 . S
C1052 C1050 1.378 . S
C1052 C1053 1.367 . S
C1053 C1052 1.367 . S
C1053 C1055 1.433 . S
C1054 C1050 1.350 . S
C1054 C1051 1.463 . S
C1054 N1058 1.427 . S
C1055 H1045 0.929 . S
C1055 C1053 1.433 . S
C1055 N1058 1.384 . S
C1056 H1047 0.929 . S
C1056 C1048 1.378 . S
C1056 C1051 1.350 . S
C1057 H1044 0.929 . S
C1057 C1049 1.433 . S
C1057 N1059 1.384 . S
N1058 C1054 1.427 . S
N1058 C1055 1.384 . S
N1059 C1051 1.427 . S
N1059 C1057 1.384 . S
H1060 C1066 0.930 . S
H1061 C1070 0.930 . S
H1062 C1075 0.929 . S
H1063 C1073 0.929 . S
H1064 C1068 0.929 . S
H1065 C1074 0.929 . S
C1066 H1060 0.930 . S
C1066 C1067 1.367 1_565 S
C1066 C1074 1.378 1_556 S
C1067 C1066 1.367 1_545 S
C1067 C1075 1.433 . S
C1068 H1064 0.929 . S
C1068 C1070 1.378 . S
C1068 C1072 1.350 . S
C1069 C1072 1.463 . S
C1069 C1074 1.350 . S
C1069 N1077 1.427 1_554 S
C1070 H1061 0.930 . S
C1070 C1068 1.378 . S
C1070 C1071 1.367 . S
C1071 C1070 1.367 . S
C1071 C1073 1.433 . S
C1072 C1068 1.350 . S
C1072 C1069 1.463 . S
C1072 N1076 1.427 . S
C1073 H1063 0.929 . S
C1073 C1071 1.433 . S
C1073 N1076 1.384 . S
C1074 H1065 0.929 . S
C1074 C1066 1.378 1_554 S
C1074 C1069 1.350 . S
C1075 H1062 0.929 . S
C1075 C1067 1.433 . S
C1075 N1077 1.384 1_545 S
N1076 C1072 1.427 . S
N1076 C1073 1.384 . S
N1077 C1069 1.427 1_556 S
N1077 C1075 1.384 1_565 S
H1078 C1084 0.930 . S
H1079 C1088 0.930 . S
H1080 C1093 0.929 . S
H1081 C1091 0.929 . S
H1082 C1086 0.929 . S
H1083 C1092 0.929 . S
C1084 H1078 0.930 . S
C1084 C1085 1.367 . S
C1084 C1092 1.378 . S
C1085 C1084 1.367 . S
C1085 C1093 1.433 . S
C1086 H1082 0.929 . S
C1086 C1088 1.378 . S
C1086 C1090 1.350 . S
C1087 C1090 1.463 . S
C1087 C1092 1.350 . S
C1087 N1095 1.427 . S
C1088 H1079 0.930 . S
C1088 C1086 1.378 . S
C1088 C1089 1.367 . S
C1089 C1088 1.367 . S
C1089 C1091 1.433 . S
C1090 C1086 1.350 . S
C1090 C1087 1.463 . S
C1090 N1094 1.427 . S
C1091 H1081 0.929 . S
C1091 C1089 1.433 . S
C1091 N1094 1.384 . S
C1092 H1083 0.929 . S
C1092 C1084 1.378 . S
C1092 C1087 1.350 . S
C1093 H1080 0.929 . S
C1093 C1085 1.433 . S
C1093 N1095 1.384 . S
N1094 C1090 1.427 . S
N1094 C1091 1.384 . S
N1095 C1087 1.427 . S
N1095 C1093 1.384 . S
H1096 C1102 0.930 . S
H1097 C1106 0.930 . S
H1098 C1111 0.929 . S
H1099 C1109 0.929 . S
H1100 C1104 0.929 . S
H1101 C1110 0.929 . S
C1102 H1096 0.930 . S
C1102 C1103 1.367 . S
C1102 C1110 1.378 . S
C1103 C1102 1.367 . S
C1103 C1111 1.433 . S
C1104 H1100 0.929 . S
C1104 C1106 1.378 . S
C1104 C1108 1.350 . S
C1105 C1108 1.463 . S
C1105 C1110 1.350 . S
C1105 N1113 1.427 . S
C1106 H1097 0.930 . S
C1106 C1104 1.378 . S
C1106 C1107 1.367 . S
C1107 C1106 1.367 . S
C1107 C1109 1.433 . S
C1108 C1104 1.350 . S
C1108 C1105 1.463 . S
C1108 N1112 1.427 . S
C1109 H1099 0.929 . S
C1109 C1107 1.433 . S
C1109 N1112 1.384 . S
C1110 H1101 0.929 . S
C1110 C1102 1.378 . S
C1110 C1105 1.350 . S
C1111 H1098 0.929 . S
C1111 C1103 1.433 . S
C1111 N1113 1.384 . S
N1112 C1108 1.427 . S
N1112 C1109 1.384 . S
N1113 C1105 1.427 . S
N1113 C1111 1.384 . S
H1114 C1120 0.930 . S
H1115 C1124 0.930 . S
H1116 C1129 0.929 . S
H1117 C1127 0.929 . S
H1118 C1122 0.929 . S
H1119 C1128 0.929 . S
C1120 H1114 0.930 . S
C1120 C1121 1.367 . S
C1120 C1128 1.378 . S
C1121 C1120 1.367 . S
C1121 C1129 1.433 . S
C1122 H1118 0.929 . S
C1122 C1124 1.378 . S
C1122 C1126 1.350 . S
C1123 C1126 1.463 . S
C1123 C1128 1.350 . S
C1123 N1131 1.427 . S
C1124 H1115 0.930 . S
C1124 C1122 1.378 . S
C1124 C1125 1.367 . S
C1125 C1124 1.367 . S
C1125 C1127 1.433 . S
C1126 C1122 1.350 . S
C1126 C1123 1.463 . S
C1126 N1130 1.427 . S
C1127 H1117 0.929 . S
C1127 C1125 1.433 . S
C1127 N1130 1.384 . S
C1128 H1119 0.929 . S
C1128 C1120 1.378 . S
C1128 C1123 1.350 . S
C1129 H1116 0.929 . S
C1129 C1121 1.433 . S
C1129 N1131 1.384 . S
N1130 C1126 1.427 . S
N1130 C1127 1.384 . S
N1131 C1123 1.427 . S
N1131 C1129 1.384 . S
H1132 C1138 0.930 . S
H1133 C1142 0.930 . S
H1134 C1147 0.929 . S
H1135 C1145 0.929 . S
H1136 C1140 0.929 . S
H1137 C1146 0.929 . S
C1138 H1132 0.930 . S
C1138 C1139 1.367 . S
C1138 C1146 1.378 . S
C1139 C1138 1.367 . S
C1139 C1147 1.433 . S
C1140 H1136 0.929 . S
C1140 C1142 1.378 . S
C1140 C1144 1.350 . S
C1141 C1144 1.463 . S
C1141 C1146 1.350 . S
C1141 N1149 1.427 . S
C1142 H1133 0.930 . S
C1142 C1140 1.378 . S
C1142 C1143 1.367 . S
C1143 C1142 1.367 . S
C1143 C1145 1.433 . S
C1144 C1140 1.350 . S
C1144 C1141 1.463 . S
C1144 N1148 1.427 . S
C1145 H1135 0.929 . S
C1145 C1143 1.433 . S
C1145 N1148 1.384 . S
C1146 H1137 0.929 . S
C1146 C1138 1.378 . S
C1146 C1141 1.350 . S
C1147 H1134 0.929 . S
C1147 C1139 1.433 . S
C1147 N1149 1.384 . S
N1148 C1144 1.427 . S
N1148 C1145 1.384 . S
N1149 C1141 1.427 . S
N1149 C1147 1.384 . S
H1150 C1156 0.930 . S
H1151 C1160 0.930 . S
H1152 C1165 0.929 . S
H1153 C1163 0.929 . S
H1154 C1158 0.929 . S
H1155 C1164 0.929 . S
C1156 H1150 0.930 . S
C1156 C1157 1.367 . S
C1156 C1164 1.378 . S
C1157 C1156 1.367 . S
C1157 C1165 1.433 . S
C1158 H1154 0.929 . S
C1158 C1160 1.378 . S
C1158 C1162 1.350 . S
C1159 C1162 1.463 . S
C1159 C1164 1.350 . S
C1159 N1167 1.427 . S
C1160 H1151 0.930 . S
C1160 C1158 1.378 . S
C1160 C1161 1.367 . S
C1161 C1160 1.367 . S
C1161 C1163 1.433 . S
C1162 C1158 1.350 . S
C1162 C1159 1.463 . S
C1162 N1166 1.427 . S
C1163 H1153 0.929 . S
C1163 C1161 1.433 . S
C1163 N1166 1.384 . S
C1164 H1155 0.929 . S
C1164 C1156 1.378 . S
C1164 C1159 1.350 . S
C1165 H1152 0.929 . S
C1165 C1157 1.433 . S
C1165 N1167 1.384 . S
N1166 C1162 1.427 . S
N1166 C1163 1.384 . S
N1167 C1159 1.427 . S
N1167 C1165 1.384 . S
H1168 C1174 0.930 . S
H1169 C1178 0.930 . S
H1170 C1183 0.929 . S
H1171 C1181 0.929 . S
H1172 C1176 0.929 . S
H1173 C1182 0.929 . S
C1174 H1168 0.930 . S
C1174 C1175 1.367 . S
C1174 C1182 1.378 . S
C1175 C1174 1.367 . S
C1175 C1183 1.433 . S
C1176 H1172 0.929 . S
C1176 C1178 1.378 . S
C1176 C1180 1.350 . S
C1177 C1180 1.463 . S
C1177 C1182 1.350 . S
C1177 N1185 1.427 . S
C1178 H1169 0.930 . S
C1178 C1176 1.378 . S
C1178 C1179 1.367 . S
C1179 C1178 1.367 . S
C1179 C1181 1.433 . S
C1180 C1176 1.350 . S
C1180 C1177 1.463 . S
C1180 N1184 1.427 . S
C1181 H1171 0.929 . S
C1181 C1179 1.433 . S
C1181 N1184 1.384 . S
C1182 H1173 0.929 . S
C1182 C1174 1.378 . S
C1182 C1177 1.350 . S
C1183 H1170 0.929 . S
C1183 C1175 1.433 . S
C1183 N1185 1.384 . S
N1184 C1180 1.427 . S
N1184 C1181 1.384 . S
N1185 C1177 1.427 . S
N1185 C1183 1.384 . S
H1186 C1192 0.930 . S
H1187 C1196 0.930 1_565 S
H1188 C1201 0.929 . S
H1189 C1199 0.929 . S
H1190 C1194 0.935 . S
H1191 C1200 0.929 . S
C1192 H1186 0.930 . S
C1192 C1193 1.367 . S
C1192 C1200 1.378 . S
C1193 C1192 1.367 . S
C1193 C1201 1.433 . S
C1194 H1190 0.935 . S
C1194 C1196 1.378 . S
C1194 C1198 1.350 . S
C1195 C1198 1.463 . S
C1195 C1200 1.350 . S
C1195 N1203 1.427 . S
C1196 H1187 0.930 1_545 S
C1196 C1194 1.378 . S
C1196 C1197 1.367 . S
C1197 C1196 1.367 . S
C1197 C1199 1.433 . S
C1198 C1194 1.350 . S
C1198 C1195 1.463 . S
C1198 N1202 1.427 . S
C1199 H1189 0.929 . S
C1199 C1197 1.433 . S
C1199 N1202 1.384 . S
C1200 H1191 0.929 . S
C1200 C1192 1.378 . S
C1200 C1195 1.350 . S
C1201 H1188 0.929 . S
C1201 C1193 1.433 . S
C1201 N1203 1.384 . S
N1202 C1198 1.427 . S
N1202 C1199 1.384 . S
N1203 C1195 1.427 . S
N1203 C1201 1.384 . S
H1204 C1210 0.930 . S
H1205 C1214 0.930 . S
H1206 C1219 0.929 . S
H1207 C1217 0.929 . S
H1208 C1212 0.929 . S
H1209 C1218 0.929 . S
C1210 H1204 0.930 . S
C1210 C1211 1.367 . S
C1210 C1218 1.378 . S
C1211 C1210 1.367 . S
C1211 C1219 1.433 . S
C1212 H1208 0.929 . S
C1212 C1214 1.378 . S
C1212 C1216 1.350 . S
C1213 C1216 1.463 . S
C1213 C1218 1.350 . S
C1213 N1221 1.427 . S
C1214 H1205 0.930 . S
C1214 C1212 1.378 . S
C1214 C1215 1.367 . S
C1215 C1214 1.367 . S
C1215 C1217 1.433 . S
C1216 C1212 1.350 . S
C1216 C1213 1.463 . S
C1216 N1220 1.427 . S
C1217 H1207 0.929 . S
C1217 C1215 1.433 . S
C1217 N1220 1.384 . S
C1218 H1209 0.929 . S
C1218 C1210 1.378 . S
C1218 C1213 1.350 . S
C1219 H1206 0.929 . S
C1219 C1211 1.433 . S
C1219 N1221 1.384 . S
N1220 C1216 1.427 . S
N1220 C1217 1.384 . S
N1221 C1213 1.427 . S
N1221 C1219 1.384 . S
H1222 C1228 0.930 . S
H1223 C1232 0.930 . S
H1224 C1237 0.929 . S
H1225 C1235 0.929 . S
H1226 C1230 0.929 . S
H1227 C1236 0.929 . S
C1228 H1222 0.930 . S
C1228 C1229 1.367 . S
C1228 C1236 1.378 . S
C1229 C1228 1.367 . S
C1229 C1237 1.433 . S
C1230 H1226 0.929 . S
C1230 C1232 1.378 . S
C1230 C1234 1.350 . S
C1231 C1234 1.463 . S
C1231 C1236 1.350 . S
C1231 N1239 1.427 . S
C1232 H1223 0.930 . S
C1232 C1230 1.378 . S
C1232 C1233 1.367 . S
C1233 C1232 1.367 . S
C1233 C1235 1.433 . S
C1234 C1230 1.350 . S
C1234 C1231 1.463 . S
C1234 N1238 1.427 . S
C1235 H1225 0.929 . S
C1235 C1233 1.433 . S
C1235 N1238 1.384 . S
C1236 H1227 0.929 . S
C1236 C1228 1.378 . S
C1236 C1231 1.350 . S
C1237 H1224 0.929 . S
C1237 C1229 1.433 . S
C1237 N1239 1.384 . S
N1238 C1234 1.427 . S
N1238 C1235 1.384 . S
N1239 C1231 1.427 . S
N1239 C1237 1.384 . S
H1240 C1246 0.930 . S
H1241 C1250 0.930 . S
H1242 C1255 0.929 . S
H1243 C1253 0.929 . S
H1244 C1248 0.929 . S
H1245 C1254 0.929 . S
C1246 H1240 0.930 . S
C1246 C1247 1.367 . S
C1246 C1254 1.378 . S
C1247 C1246 1.367 . S
C1247 C1255 1.433 . S
C1248 H1244 0.929 . S
C1248 C1250 1.378 . S
C1248 C1252 1.350 . S
C1249 C1252 1.463 . S
C1249 C1254 1.350 . S
C1249 N1257 1.427 . S
C1250 H1241 0.930 . S
C1250 C1248 1.378 . S
C1250 C1251 1.367 . S
C1251 C1250 1.367 . S
C1251 C1253 1.433 . S
C1252 C1248 1.350 . S
C1252 C1249 1.463 . S
C1252 N1256 1.427 . S
C1253 H1243 0.929 . S
C1253 C1251 1.433 . S
C1253 N1256 1.384 . S
C1254 H1245 0.929 . S
C1254 C1246 1.378 . S
C1254 C1249 1.350 . S
C1255 H1242 0.929 . S
C1255 C1247 1.433 . S
C1255 N1257 1.384 . S
N1256 C1252 1.427 . S
N1256 C1253 1.384 . S
N1257 C1249 1.427 . S
N1257 C1255 1.384 . S
H1258 C1264 0.930 . S
H1259 C1268 0.930 . S
H1260 C1273 0.929 . S
H1261 C1271 0.929 1_565 S
H1262 C1266 0.929 . S
H1263 C1272 0.952 . S
C1264 H1258 0.930 . S
C1264 C1265 1.367 1_565 S
C1264 C1272 1.377 . S
C1265 C1264 1.367 1_545 S
C1265 C1273 1.433 . S
C1266 H1262 0.929 . S
C1266 C1268 1.378 . S
C1266 C1270 1.350 1_655 S
C1267 C1270 1.463 . S
C1267 C1272 1.327 1_545 S
C1267 N1275 1.427 . S
C1268 H1259 0.930 . S
C1268 C1266 1.378 . S
C1268 C1269 1.367 . S
C1269 C1268 1.367 . S
C1269 C1271 1.433 1_655 S
C1270 C1266 1.350 1_455 S
C1270 C1267 1.463 . S
C1270 N1274 1.427 . S
C1271 H1261 0.929 1_545 S
C1271 C1269 1.433 1_455 S
C1271 N1274 1.384 . S
C1272 H1263 0.952 . S
C1272 C1264 1.377 . S
C1272 C1267 1.327 1_565 S
C1273 H1260 0.929 . S
C1273 C1265 1.433 . S
C1273 N1275 1.384 . S
N1274 C1270 1.427 . S
N1274 C1271 1.384 . S
N1275 C1267 1.427 . S
N1275 C1273 1.384 . S
H1276 C1282 0.930 . S
H1277 C1286 0.930 . S
H1278 C1291 0.929 . S
H1279 C1289 0.929 . S
H1280 C1284 0.929 . S
H1281 C1290 0.929 . S
C1282 H1276 0.930 . S
C1282 C1283 1.367 . S
C1282 C1290 1.378 . S
C1283 C1282 1.367 . S
C1283 C1291 1.433 . S
C1284 H1280 0.929 . S
C1284 C1286 1.378 . S
C1284 C1288 1.350 . S
C1285 C1288 1.463 . S
C1285 C1290 1.350 . S
C1285 N1293 1.427 . S
C1286 H1277 0.930 . S
C1286 C1284 1.378 . S
C1286 C1287 1.367 . S
C1287 C1286 1.367 . S
C1287 C1289 1.433 . S
C1288 C1284 1.350 . S
C1288 C1285 1.463 . S
C1288 N1292 1.427 . S
C1289 H1279 0.929 . S
C1289 C1287 1.433 . S
C1289 N1292 1.384 . S
C1290 H1281 0.929 . S
C1290 C1282 1.378 . S
C1290 C1285 1.350 . S
C1291 H1278 0.929 . S
C1291 C1283 1.433 . S
C1291 N1293 1.384 . S
N1292 C1288 1.427 . S
N1292 C1289 1.384 . S
N1293 C1285 1.427 . S
N1293 C1291 1.384 . S
H1294 C1300 0.930 . S
H1295 C1304 0.930 . S
H1296 C1309 0.929 . S
H1297 C1307 0.929 . S
H1298 C1302 0.929 . S
H1299 C1308 0.929 . S
C1300 H1294 0.930 . S
C1300 C1301 1.367 . S
C1300 C1308 1.378 . S
C1301 C1300 1.367 . S
C1301 C1309 1.433 . S
C1302 H1298 0.929 . S
C1302 C1304 1.378 . S
C1302 C1306 1.350 . S
C1303 C1306 1.463 . S
C1303 C1308 1.350 . S
C1303 N1311 1.427 . S
C1304 H1295 0.930 . S
C1304 C1302 1.378 . S
C1304 C1305 1.367 . S
C1305 C1304 1.367 . S
C1305 C1307 1.433 . S
C1306 C1302 1.350 . S
C1306 C1303 1.463 . S
C1306 N1310 1.427 . S
C1307 H1297 0.929 . S
C1307 C1305 1.433 . S
C1307 N1310 1.384 . S
C1308 H1299 0.929 . S
C1308 C1300 1.378 . S
C1308 C1303 1.350 . S
C1309 H1296 0.929 . S
C1309 C1301 1.433 . S
C1309 N1311 1.384 . S
N1310 C1306 1.427 . S
N1310 C1307 1.384 . S
N1311 C1303 1.427 . S
N1311 C1309 1.384 . S
H1312 C1318 0.930 . S
H1313 C1322 0.930 . S
H1314 C1327 0.929 . S
H1315 C1325 0.929 . S
H1316 C1320 0.929 . S
H1317 C1326 0.929 . S
C1318 H1312 0.930 . S
C1318 C1319 1.367 . S
C1318 C1326 1.378 . S
C1319 C1318 1.367 . S
C1319 C1327 1.433 . S
C1320 H1316 0.929 . S
C1320 C1322 1.378 . S
C1320 C1324 1.350 . S
C1321 C1324 1.463 . S
C1321 C1326 1.350 . S
C1321 N1329 1.427 . S
C1322 H1313 0.930 . S
C1322 C1320 1.378 . S
C1322 C1323 1.367 . S
C1323 C1322 1.367 . S
C1323 C1325 1.433 . S
C1324 C1320 1.350 . S
C1324 C1321 1.463 . S
C1324 N1328 1.427 . S
C1325 H1315 0.929 . S
C1325 C1323 1.433 . S
C1325 N1328 1.384 . S
C1326 H1317 0.929 . S
C1326 C1318 1.378 . S
C1326 C1321 1.350 . S
C1327 H1314 0.929 . S
C1327 C1319 1.433 . S
C1327 N1329 1.384 . S
N1328 C1324 1.427 . S
N1328 C1325 1.384 . S
N1329 C1321 1.427 . S
N1329 C1327 1.384 . S
H1330 C1336 0.930 . S
H1331 C1340 0.930 . S
H1332 C1345 0.929 . S
H1333 C1343 0.929 . S
H1334 C1338 0.929 . S
H1335 C1344 0.929 . S
C1336 H1330 0.930 . S
C1336 C1337 1.367 . S
C1336 C1344 1.378 . S
C1337 C1336 1.367 . S
C1337 C1345 1.433 1_455 S
C1338 H1334 0.929 . S
C1338 C1340 1.378 . S
C1338 C1342 1.350 1_655 S
C1339 C1342 1.463 . S
C1339 C1344 1.350 . S
C1339 N1347 1.427 1_455 S
C1340 H1331 0.930 . S
C1340 C1338 1.378 . S
C1340 C1341 1.367 1_655 S
C1341 C1340 1.367 1_455 S
C1341 C1343 1.433 . S
C1342 C1338 1.350 1_455 S
C1342 C1339 1.463 . S
C1342 N1346 1.427 . S
C1343 H1333 0.929 . S
C1343 C1341 1.433 . S
C1343 N1346 1.384 . S
C1344 H1335 0.929 . S
C1344 C1336 1.378 . S
C1344 C1339 1.350 . S
C1345 H1332 0.929 . S
C1345 C1337 1.433 1_655 S
C1345 N1347 1.384 . S
N1346 C1342 1.427 . S
N1346 C1343 1.384 . S
N1347 C1339 1.427 1_655 S
N1347 C1345 1.384 . S
H1348 C1354 0.930 . S
H1349 C1358 0.930 . S
H1350 C1363 0.929 . S
H1351 C1361 0.929 . S
H1352 C1356 0.929 . S
H1353 C1362 0.929 . S
C1354 H1348 0.930 . S
C1354 C1355 1.367 . S
C1354 C1362 1.378 . S
C1355 C1354 1.367 . S
C1355 C1363 1.433 . S
C1356 H1352 0.929 . S
C1356 C1358 1.378 . S
C1356 C1360 1.350 . S
C1357 C1360 1.463 . S
C1357 C1362 1.350 . S
C1357 N1365 1.427 . S
C1358 H1349 0.930 . S
C1358 C1356 1.378 . S
C1358 C1359 1.367 . S
C1359 C1358 1.367 . S
C1359 C1361 1.433 . S
C1360 C1356 1.350 . S
C1360 C1357 1.463 . S
C1360 N1364 1.427 . S
C1361 H1351 0.929 . S
C1361 C1359 1.433 . S
C1361 N1364 1.384 . S
C1362 H1353 0.929 . S
C1362 C1354 1.378 . S
C1362 C1357 1.350 . S
C1363 H1350 0.929 . S
C1363 C1355 1.433 . S
C1363 N1365 1.384 . S
N1364 C1360 1.427 . S
N1364 C1361 1.384 . S
N1365 C1357 1.427 . S
N1365 C1363 1.384 . S
H1366 C1372 0.930 . S
H1367 C1376 0.930 . S
H1368 C1381 0.929 . S
H1369 C1379 0.929 . S
H1370 C1374 0.929 . S
H1371 C1380 0.929 . S
C1372 H1366 0.930 . S
C1372 C1373 1.367 . S
C1372 C1380 1.378 . S
C1373 C1372 1.367 . S
C1373 C1381 1.433 . S
C1374 H1370 0.929 . S
C1374 C1376 1.378 . S
C1374 C1378 1.350 . S
C1375 C1378 1.463 . S
C1375 C1380 1.350 . S
C1375 N1383 1.427 . S
C1376 H1367 0.930 . S
C1376 C1374 1.378 . S
C1376 C1377 1.367 . S
C1377 C1376 1.367 . S
C1377 C1379 1.433 . S
C1378 C1374 1.350 . S
C1378 C1375 1.463 . S
C1378 N1382 1.427 . S
C1379 H1369 0.929 . S
C1379 C1377 1.433 . S
C1379 N1382 1.384 . S
C1380 H1371 0.929 . S
C1380 C1372 1.378 . S
C1380 C1375 1.350 . S
C1381 H1368 0.929 . S
C1381 C1373 1.433 . S
C1381 N1383 1.384 . S
N1382 C1378 1.427 . S
N1382 C1379 1.384 . S
N1383 C1375 1.427 . S
N1383 C1381 1.384 . S
H1384 C1390 0.930 . S
H1385 C1394 0.930 . S
H1386 C1399 0.929 . S
H1387 C1397 0.929 . S
H1388 C1392 0.929 . S
H1389 C1398 0.929 . S
C1390 H1384 0.930 . S
C1390 C1391 1.367 . S
C1390 C1398 1.378 . S
C1391 C1390 1.367 . S
C1391 C1399 1.433 . S
C1392 H1388 0.929 . S
C1392 C1394 1.378 . S
C1392 C1396 1.350 . S
C1393 C1396 1.463 . S
C1393 C1398 1.350 . S
C1393 N1401 1.427 . S
C1394 H1385 0.930 . S
C1394 C1392 1.378 . S
C1394 C1395 1.367 . S
C1395 C1394 1.367 . S
C1395 C1397 1.433 . S
C1396 C1392 1.350 . S
C1396 C1393 1.463 . S
C1396 N1400 1.427 . S
C1397 H1387 0.929 . S
C1397 C1395 1.433 . S
C1397 N1400 1.384 . S
C1398 H1389 0.929 . S
C1398 C1390 1.378 . S
C1398 C1393 1.350 . S
C1399 H1386 0.929 . S
C1399 C1391 1.433 . S
C1399 N1401 1.384 . S
N1400 C1396 1.427 . S
N1400 C1397 1.384 . S
N1401 C1393 1.427 . S
N1401 C1399 1.384 . S
H1402 C1408 0.930 . S
H1403 C1412 0.930 . S
H1404 C1417 0.929 . S
H1405 C1415 0.929 . S
H1406 C1410 0.929 . S
H1407 C1416 0.929 . S
C1408 H1402 0.930 . S
C1408 C1409 1.367 . S
C1408 C1416 1.378 . S
C1409 C1408 1.367 . S
C1409 C1417 1.433 . S
C1410 H1406 0.929 . S
C1410 C1412 1.378 . S
C1410 C1414 1.350 . S
C1411 C1414 1.463 . S
C1411 C1416 1.350 . S
C1411 N1419 1.427 . S
C1412 H1403 0.930 . S
C1412 C1410 1.378 . S
C1412 C1413 1.367 . S
C1413 C1412 1.367 . S
C1413 C1415 1.433 . S
C1414 C1410 1.350 . S
C1414 C1411 1.463 . S
C1414 N1418 1.427 . S
C1415 H1405 0.929 . S
C1415 C1413 1.433 . S
C1415 N1418 1.384 . S
C1416 H1407 0.929 . S
C1416 C1408 1.378 . S
C1416 C1411 1.350 . S
C1417 H1404 0.929 . S
C1417 C1409 1.433 . S
C1417 N1419 1.384 . S
N1418 C1414 1.427 . S
N1418 C1415 1.384 . S
N1419 C1411 1.427 . S
N1419 C1417 1.384 . S
H1420 C1426 0.930 . S
H1421 C1430 0.930 . S
H1422 C1435 0.929 . S
H1423 C1433 0.929 . S
H1424 C1428 0.929 . S
H1425 C1434 0.929 . S
C1426 H1420 0.930 . S
C1426 C1427 1.367 . S
C1426 C1434 1.378 . S
C1427 C1426 1.367 . S
C1427 C1435 1.433 . S
C1428 H1424 0.929 . S
C1428 C1430 1.378 . S
C1428 C1432 1.350 . S
C1429 C1432 1.463 . S
C1429 C1434 1.350 . S
C1429 N1437 1.427 . S
C1430 H1421 0.930 . S
C1430 C1428 1.378 . S
C1430 C1431 1.367 . S
C1431 C1430 1.367 . S
C1431 C1433 1.433 . S
C1432 C1428 1.350 . S
C1432 C1429 1.463 . S
C1432 N1436 1.427 . S
C1433 H1423 0.929 . S
C1433 C1431 1.433 . S
C1433 N1436 1.384 . S
C1434 H1425 0.929 . S
C1434 C1426 1.378 . S
C1434 C1429 1.350 . S
C1435 H1422 0.929 . S
C1435 C1427 1.433 . S
C1435 N1437 1.384 . S
N1436 C1432 1.427 . S
N1436 C1433 1.384 . S
N1437 C1429 1.427 . S
N1437 C1435 1.384 . S
H1438 C1444 0.930 1_556 S
H1439 C1448 0.930 . S
H1440 C1453 0.929 . S
H1441 C1451 0.929 . S
H1442 C1446 0.929 . S
H1443 C1452 0.929 . S
C1444 H1438 0.930 1_554 S
C1444 C1445 1.367 . S
C1444 C1452 1.378 . S
C1445 C1444 1.367 . S
C1445 C1453 1.433 . S
C1446 H1442 0.929 . S
C1446 C1448 1.378 . S
C1446 C1450 1.350 . S
C1447 C1450 1.463 . S
C1447 C1452 1.350 . S
C1447 N1455 1.427 . S
C1448 H1439 0.930 . S
C1448 C1446 1.378 . S
C1448 C1449 1.367 . S
C1449 C1448 1.367 . S
C1449 C1451 1.433 . S
C1450 C1446 1.350 . S
C1450 C1447 1.463 . S
C1450 N1454 1.427 . S
C1451 H1441 0.929 . S
C1451 C1449 1.433 . S
C1451 N1454 1.384 . S
C1452 H1443 0.929 . S
C1452 C1444 1.378 . S
C1452 C1447 1.350 . S
C1453 H1440 0.929 . S
C1453 C1445 1.433 . S
C1453 N1455 1.384 . S
N1454 C1450 1.427 . S
N1454 C1451 1.384 . S
N1455 C1447 1.427 . S
N1455 C1453 1.384 . S
H1456 C1462 0.930 . S
H1457 C1466 0.930 . S
H1458 C1471 0.929 . S
H1459 C1469 0.929 . S
H1460 C1464 0.929 . S
H1461 C1470 0.929 . S
C1462 H1456 0.930 . S
C1462 C1463 1.367 . S
C1462 C1470 1.378 . S
C1463 C1462 1.367 . S
C1463 C1471 1.433 . S
C1464 H1460 0.929 . S
C1464 C1466 1.378 . S
C1464 C1468 1.350 . S
C1465 C1468 1.463 . S
C1465 C1470 1.350 . S
C1465 N1473 1.427 . S
C1466 H1457 0.930 . S
C1466 C1464 1.378 . S
C1466 C1467 1.367 . S
C1467 C1466 1.367 . S
C1467 C1469 1.433 . S
C1468 C1464 1.350 . S
C1468 C1465 1.463 . S
C1468 N1472 1.427 . S
C1469 H1459 0.929 . S
C1469 C1467 1.433 . S
C1469 N1472 1.384 . S
C1470 H1461 0.929 . S
C1470 C1462 1.378 . S
C1470 C1465 1.350 . S
C1471 H1458 0.929 . S
C1471 C1463 1.433 . S
C1471 N1473 1.384 . S
N1472 C1468 1.427 . S
N1472 C1469 1.384 . S
N1473 C1465 1.427 . S
N1473 C1471 1.384 . S
H1474 C1480 0.930 . S
H1475 C1484 0.930 . S
H1476 C1489 0.929 . S
H1477 C1487 0.929 . S
H1478 C1482 0.929 . S
H1479 C1488 0.929 . S
C1480 H1474 0.930 . S
C1480 C1481 1.367 . S
C1480 C1488 1.378 . S
C1481 C1480 1.367 . S
C1481 C1489 1.433 . S
C1482 H1478 0.929 . S
C1482 C1484 1.378 . S
C1482 C1486 1.350 . S
C1483 C1486 1.463 . S
C1483 C1488 1.350 . S
C1483 N1491 1.427 . S
C1484 H1475 0.930 . S
C1484 C1482 1.378 . S
C1484 C1485 1.367 . S
C1485 C1484 1.367 . S
C1485 C1487 1.433 . S
C1486 C1482 1.350 . S
C1486 C1483 1.463 . S
C1486 N1490 1.427 . S
C1487 H1477 0.929 . S
C1487 C1485 1.433 . S
C1487 N1490 1.384 . S
C1488 H1479 0.929 . S
C1488 C1480 1.378 . S
C1488 C1483 1.350 . S
C1489 H1476 0.929 . S
C1489 C1481 1.433 . S
C1489 N1491 1.384 . S
N1490 C1486 1.427 . S
N1490 C1487 1.384 . S
N1491 C1483 1.427 . S
N1491 C1489 1.384 . S
H1492 C1498 0.930 . S
H1493 C1502 0.930 . S
H1494 C1507 0.929 . S
H1495 C1505 0.929 . S
H1496 C1500 0.929 . S
H1497 C1506 0.929 . S
C1498 H1492 0.930 . S
C1498 C1499 1.367 . S
C1498 C1506 1.378 . S
C1499 C1498 1.367 . S
C1499 C1507 1.433 . S
C1500 H1496 0.929 . S
C1500 C1502 1.378 . S
C1500 C1504 1.350 . S
C1501 C1504 1.463 . S
C1501 C1506 1.350 . S
C1501 N1509 1.427 . S
C1502 H1493 0.930 . S
C1502 C1500 1.378 . S
C1502 C1503 1.367 . S
C1503 C1502 1.367 . S
C1503 C1505 1.433 . S
C1504 C1500 1.350 . S
C1504 C1501 1.463 . S
C1504 N1508 1.427 . S
C1505 H1495 0.929 . S
C1505 C1503 1.433 . S
C1505 N1508 1.384 . S
C1506 H1497 0.929 . S
C1506 C1498 1.378 . S
C1506 C1501 1.350 . S
C1507 H1494 0.929 . S
C1507 C1499 1.433 . S
C1507 N1509 1.384 . S
N1508 C1504 1.427 . S
N1508 C1505 1.384 . S
N1509 C1501 1.427 . S
N1509 C1507 1.384 . S
H1510 C1516 0.930 . S
H1511 C1520 0.930 . S
H1512 C1525 0.929 . S
H1513 C1523 0.929 1_545 S
H1514 C1518 0.929 . S
H1515 C1524 0.929 . S
C1516 H1510 0.930 . S
C1516 C1517 1.367 . S
C1516 C1524 1.378 . S
C1517 C1516 1.367 . S
C1517 C1525 1.433 . S
C1518 H1514 0.929 . S
C1518 C1520 1.378 . S
C1518 C1522 1.350 . S
C1519 C1522 1.463 . S
C1519 C1524 1.350 . S
C1519 N1527 1.427 . S
C1520 H1511 0.930 . S
C1520 C1518 1.378 . S
C1520 C1521 1.367 . S
C1521 C1520 1.367 . S
C1521 C1523 1.433 . S
C1522 C1518 1.350 . S
C1522 C1519 1.463 . S
C1522 N1526 1.427 . S
C1523 H1513 0.929 1_565 S
C1523 C1521 1.433 . S
C1523 N1526 1.384 . S
C1524 H1515 0.929 . S
C1524 C1516 1.378 . S
C1524 C1519 1.350 . S
C1525 H1512 0.929 . S
C1525 C1517 1.433 . S
C1525 N1527 1.384 . S
N1526 C1522 1.427 . S
N1526 C1523 1.384 . S
N1527 C1519 1.427 . S
N1527 C1525 1.384 . S
H1528 C1534 0.930 . S
H1529 C1538 0.930 . S
H1530 C1543 0.929 1_554 S
H1531 C1541 0.929 . S
H1532 C1536 0.929 . S
H1533 C1542 0.929 . S
C1534 H1528 0.930 . S
C1534 C1535 1.367 . S
C1534 C1542 1.378 . S
C1535 C1534 1.367 . S
C1535 C1543 1.433 . S
C1536 H1532 0.929 . S
C1536 C1538 1.378 . S
C1536 C1540 1.350 1_554 S
C1537 C1540 1.463 . S
C1537 C1542 1.350 . S
C1537 N1545 1.427 . S
C1538 H1529 0.930 . S
C1538 C1536 1.378 . S
C1538 C1539 1.367 1_554 S
C1539 C1538 1.367 1_556 S
C1539 C1541 1.433 . S
C1540 C1536 1.350 1_556 S
C1540 C1537 1.463 . S
C1540 N1544 1.427 . S
C1541 H1531 0.929 . S
C1541 C1539 1.433 . S
C1541 N1544 1.384 . S
C1542 H1533 0.929 . S
C1542 C1534 1.378 . S
C1542 C1537 1.350 . S
C1543 H1530 0.929 1_556 S
C1543 C1535 1.433 . S
C1543 N1545 1.384 . S
N1544 C1540 1.427 . S
N1544 C1541 1.384 . S
N1545 C1537 1.427 . S
N1545 C1543 1.384 . S
H1546 C1552 0.930 . S
H1547 C1556 0.930 . S
H1548 C1561 0.929 . S
H1549 C1559 0.929 . S
H1550 C1554 0.929 . S
H1551 C1560 0.929 . S
C1552 H1546 0.930 . S
C1552 C1553 1.367 . S
C1552 C1560 1.378 . S
C1553 C1552 1.367 . S
C1553 C1561 1.433 . S
C1554 H1550 0.929 . S
C1554 C1556 1.378 . S
C1554 C1558 1.350 . S
C1555 C1558 1.463 . S
C1555 C1560 1.350 . S
C1555 N1563 1.427 . S
C1556 H1547 0.930 . S
C1556 C1554 1.378 . S
C1556 C1557 1.367 . S
C1557 C1556 1.367 . S
C1557 C1559 1.433 . S
C1558 C1554 1.350 . S
C1558 C1555 1.463 . S
C1558 N1562 1.427 . S
C1559 H1549 0.929 . S
C1559 C1557 1.433 . S
C1559 N1562 1.384 . S
C1560 H1551 0.929 . S
C1560 C1552 1.378 . S
C1560 C1555 1.350 . S
C1561 H1548 0.929 . S
C1561 C1553 1.433 . S
C1561 N1563 1.384 . S
N1562 C1558 1.427 . S
N1562 C1559 1.384 . S
N1563 C1555 1.427 . S
N1563 C1561 1.384 . S
H1564 C1570 0.930 1_556 S
H1565 C1574 0.930 . S
H1566 C1579 0.929 . S
H1567 C1577 0.929 . S
H1568 C1572 0.929 . S
H1569 C1578 0.929 . S
C1570 H1564 0.930 1_554 S
C1570 C1571 1.367 . S
C1570 C1578 1.378 1_554 S
C1571 C1570 1.367 . S
C1571 C1579 1.433 . S
C1572 H1568 0.929 . S
C1572 C1574 1.378 . S
C1572 C1576 1.350 . S
C1573 C1576 1.463 . S
C1573 C1578 1.350 1_554 S
C1573 N1581 1.427 . S
C1574 H1565 0.930 . S
C1574 C1572 1.378 . S
C1574 C1575 1.367 . S
C1575 C1574 1.367 . S
C1575 C1577 1.433 1_554 S
C1576 C1572 1.350 . S
C1576 C1573 1.463 . S
C1576 N1580 1.427 1_554 S
C1577 H1567 0.929 . S
C1577 C1575 1.433 1_556 S
C1577 N1580 1.384 . S
C1578 H1569 0.929 . S
C1578 C1570 1.378 1_556 S
C1578 C1573 1.350 1_556 S
C1579 H1566 0.929 . S
C1579 C1571 1.433 . S
C1579 N1581 1.384 . S
N1580 C1576 1.427 1_556 S
N1580 C1577 1.384 . S
N1581 C1573 1.427 . S
N1581 C1579 1.384 . S
H1582 C1588 0.930 . S
H1583 C1592 0.930 . S
H1584 C1597 0.929 . S
H1585 C1595 0.929 . S
H1586 C1590 0.929 . S
H1587 C1596 0.929 . S
C1588 H1582 0.930 . S
C1588 C1589 1.367 1_545 S
C1588 C1596 1.378 1_545 S
C1589 C1588 1.367 1_565 S
C1589 C1597 1.433 . S
C1590 H1586 0.929 . S
C1590 C1592 1.378 . S
C1590 C1594 1.350 . S
C1591 C1594 1.463 . S
C1591 C1596 1.350 . S
C1591 N1599 1.427 . S
C1592 H1583 0.930 . S
C1592 C1590 1.378 . S
C1592 C1593 1.367 . S
C1593 C1592 1.367 . S
C1593 C1595 1.433 . S
C1594 C1590 1.350 . S
C1594 C1591 1.463 . S
C1594 N1598 1.427 . S
C1595 H1585 0.929 . S
C1595 C1593 1.433 . S
C1595 N1598 1.384 . S
C1596 H1587 0.929 . S
C1596 C1588 1.378 1_565 S
C1596 C1591 1.350 . S
C1597 H1584 0.929 . S
C1597 C1589 1.433 . S
C1597 N1599 1.384 . S
N1598 C1594 1.427 . S
N1598 C1595 1.384 . S
N1599 C1591 1.427 . S
N1599 C1597 1.384 . S
C747 C306 1.832 1_556 S
C743 C101 1.813 . S
C765 C354 1.205 . S
C761 C125 1.126 . S
C779 C139 1.915 . S
C783 C390 1.815 . S
C801 C426 1.786 . S
C797 C82 1.874 . S
C819 C452 1.484 . S
C815 C196 1.484 . S
C837 C488 1.912 . S
C833 C234 1.938 . S
C851 C220 0.960 . S
C855 C523 1.064 . S
C873 C560 1.757 . S
C869 C173 1.762 . S
C887 C211 1.091 . S
C891 C594 1.106 . S
C909 C642 1.154 . S
C905 C182 1.108 . S
C923 C201 1.169 . S
C927 C595 1.322 . S
C945 C632 1.482 . S
C941 C239 1.360 . S
C959 C135 1.584 . S
C963 C678 1.521 . S
C977 C87 1.835 . S
C981 C667 2.004 . S
C995 C106 1.162 . S
C999 C668 1.351 . S
C1013 C116 1.304 . S
C1017 C666 1.307 1_655 S
C1031 C59 1.731 . S
C1035 C414 1.740 . S
C1049 C268 2.172 . S
C1053 C415 2.195 . S
C1071 C318 1.335 . S
C1067 C291 1.438 . S
C1089 C343 1.404 . S
C1085 C163 1.326 . S
C1103 C78 2.155 1_545 S
C1107 C450 2.166 . S
C1125 C558 1.171 . S
C1121 C215 1.184 . S
C1143 C451 1.588 . S
C1139 C177 1.600 . S
C1161 C524 1.899 . S
C1157 C230 1.899 . S
C1179 C522 1.827 . S
C1175 C272 1.806 . S
C1193 C296 1.133 . S
C1197 C570 1.214 . S
C1211 C158 1.915 . S
C1215 C462 1.823 . S
C1233 C498 1.790 . S
C1229 C253 1.873 . S
C1247 C63 1.483 . S
C1251 C380 1.481 . S
C1269 C416 1.912 . S
C1265 C6 1.938 . S
C1287 C307 1.061 . S
C1283 C30 0.948 . S
C1305 C344 1.758 . S
C1301 C40 1.765 . S
C1319 C21 1.098 . S
C1323 C630 1.111 . S
C1337 C49 1.094 . S
C1341 C606 1.141 . S
C1355 C68 1.154 . S
C1359 C631 1.322 . S
C1373 C11 1.336 . S
C1377 C596 1.484 . S
C1395 C714 1.520 . S
C1391 C154 1.587 . S
C1413 C703 2.006 . S
C1409 C258 1.844 . S
C1431 C704 1.352 . S
C1427 C277 1.178 . S
C1445 C287 1.308 1_554 S
C1449 C702 1.308 . S
C1463 C192 1.727 . S
C1467 C486 1.734 . S
C1485 C487 2.192 . S
C1481 C97 2.170 . S
C1503 C534 1.346 . S
C1499 C120 1.439 . S
C1521 C559 1.403 . S
C1517 C144 1.315 . S
C1535 C249 2.150 . S
C1539 C378 2.164 1_556 S
C1557 C342 1.171 . S
C1553 C25 1.182 . S
C1571 C44 1.595 . S
C1575 C379 1.572 1_554 S
C1593 C308 1.895 . S
C1589 C2 1.897 1_565 S
