# Generated by pormake.
# Topology tbo, (3,4)-cn, num edge types: 1
# Building blocks:
#     Node 0, Type 0, BuildingBlock: BELTOD_clean_linker_0, # of connection points: 3
#     Node 1, Type 0, BuildingBlock: BELTOD_clean_linker_0, # of connection points: 3
#     Node 2, Type 0, BuildingBlock: BELTOD_clean_linker_0, # of connection points: 3
#     Node 3, Type 0, BuildingBlock: BELTOD_clean_linker_0, # of connection points: 3
#     Node 4, Type 0, BuildingBlock: BELTOD_clean_linker_0, # of connection points: 3
#     Node 5, Type 0, BuildingBlock: BELTOD_clean_linker_0, # of connection points: 3
#     Node 6, Type 0, BuildingBlock: BELTOD_clean_linker_0, # of connection points: 3
#     Node 7, Type 0, BuildingBlock: BELTOD_clean_linker_0, # of connection points: 3
#     Node 8, Type 0, BuildingBlock: BELTOD_clean_linker_0, # of connection points: 3
#     Node 9, Type 0, BuildingBlock: BELTOD_clean_linker_0, # of connection points: 3
#     Node 10, Type 0, BuildingBlock: BELTOD_clean_linker_0, # of connection points: 3
#     Node 11, Type 0, BuildingBlock: BELTOD_clean_linker_0, # of connection points: 3
#     Node 12, Type 0, BuildingBlock: BELTOD_clean_linker_0, # of connection points: 3
#     Node 13, Type 0, BuildingBlock: BELTOD_clean_linker_0, # of connection points: 3
#     Node 14, Type 0, BuildingBlock: BELTOD_clean_linker_0, # of connection points: 3
#     Node 15, Type 0, BuildingBlock: BELTOD_clean_linker_0, # of connection points: 3
#     Node 16, Type 0, BuildingBlock: BELTOD_clean_linker_0, # of connection points: 3
#     Node 17, Type 0, BuildingBlock: BELTOD_clean_linker_0, # of connection points: 3
#     Node 18, Type 0, BuildingBlock: BELTOD_clean_linker_0, # of connection points: 3
#     Node 19, Type 0, BuildingBlock: BELTOD_clean_linker_0, # of connection points: 3
#     Node 20, Type 0, BuildingBlock: BELTOD_clean_linker_0, # of connection points: 3
#     Node 21, Type 0, BuildingBlock: BELTOD_clean_linker_0, # of connection points: 3
#     Node 22, Type 0, BuildingBlock: BELTOD_clean_linker_0, # of connection points: 3
#     Node 23, Type 0, BuildingBlock: BELTOD_clean_linker_0, # of connection points: 3
#     Node 24, Type 0, BuildingBlock: BELTOD_clean_linker_0, # of connection points: 3
#     Node 25, Type 0, BuildingBlock: BELTOD_clean_linker_0, # of connection points: 3
#     Node 26, Type 0, BuildingBlock: BELTOD_clean_linker_0, # of connection points: 3
#     Node 27, Type 0, BuildingBlock: BELTOD_clean_linker_0, # of connection points: 3
#     Node 28, Type 0, BuildingBlock: BELTOD_clean_linker_0, # of connection points: 3
#     Node 29, Type 0, BuildingBlock: BELTOD_clean_linker_0, # of connection points: 3
#     Node 30, Type 0, BuildingBlock: BELTOD_clean_linker_0, # of connection points: 3
#     Node 31, Type 0, BuildingBlock: BELTOD_clean_linker_0, # of connection points: 3
#     Node 32, Type 1, BuildingBlock: ESEHIV_clean_sbu_0, # of connection points: 4
#     Node 33, Type 1, BuildingBlock: ESEHIV_clean_sbu_0, # of connection points: 4
#     Node 34, Type 1, BuildingBlock: ESEHIV_clean_sbu_0, # of connection points: 4
#     Node 35, Type 1, BuildingBlock: ESEHIV_clean_sbu_0, # of connection points: 4
#     Node 36, Type 1, BuildingBlock: ESEHIV_clean_sbu_0, # of connection points: 4
#     Node 37, Type 1, BuildingBlock: ESEHIV_clean_sbu_0, # of connection points: 4
#     Node 38, Type 1, BuildingBlock: ESEHIV_clean_sbu_0, # of connection points: 4
#     Node 39, Type 1, BuildingBlock: ESEHIV_clean_sbu_0, # of connection points: 4
#     Node 40, Type 1, BuildingBlock: ESEHIV_clean_sbu_0, # of connection points: 4
#     Node 41, Type 1, BuildingBlock: ESEHIV_clean_sbu_0, # of connection points: 4
#     Node 42, Type 1, BuildingBlock: ESEHIV_clean_sbu_0, # of connection points: 4
#     Node 43, Type 1, BuildingBlock: ESEHIV_clean_sbu_0, # of connection points: 4
#     Node 44, Type 1, BuildingBlock: ESEHIV_clean_sbu_0, # of connection points: 4
#     Node 45, Type 1, BuildingBlock: ESEHIV_clean_sbu_0, # of connection points: 4
#     Node 46, Type 1, BuildingBlock: ESEHIV_clean_sbu_0, # of connection points: 4
#     Node 47, Type 1, BuildingBlock: ESEHIV_clean_sbu_0, # of connection points: 4
#     Node 48, Type 1, BuildingBlock: ESEHIV_clean_sbu_0, # of connection points: 4
#     Node 49, Type 1, BuildingBlock: ESEHIV_clean_sbu_0, # of connection points: 4
#     Node 50, Type 1, BuildingBlock: ESEHIV_clean_sbu_0, # of connection points: 4
#     Node 51, Type 1, BuildingBlock: ESEHIV_clean_sbu_0, # of connection points: 4
#     Node 52, Type 1, BuildingBlock: ESEHIV_clean_sbu_0, # of connection points: 4
#     Node 53, Type 1, BuildingBlock: ESEHIV_clean_sbu_0, # of connection points: 4
#     Node 54, Type 1, BuildingBlock: ESEHIV_clean_sbu_0, # of connection points: 4
#     Node 55, Type 1, BuildingBlock: ESEHIV_clean_sbu_0, # of connection points: 4
#     Edge 56, Type (0, 1), BuildingBlock: ZUJKAS_clean_linker_0, # of connection points: 2
#     Edge 57, Type (0, 1), BuildingBlock: ZUJKAS_clean_linker_0, # of connection points: 2
#     Edge 58, Type (0, 1), BuildingBlock: ZUJKAS_clean_linker_0, # of connection points: 2
#     Edge 59, Type (0, 1), BuildingBlock: ZUJKAS_clean_linker_0, # of connection points: 2
#     Edge 60, Type (0, 1), BuildingBlock: ZUJKAS_clean_linker_0, # of connection points: 2
#     Edge 61, Type (0, 1), BuildingBlock: ZUJKAS_clean_linker_0, # of connection points: 2
#     Edge 62, Type (0, 1), BuildingBlock: ZUJKAS_clean_linker_0, # of connection points: 2
#     Edge 63, Type (0, 1), BuildingBlock: ZUJKAS_clean_linker_0, # of connection points: 2
#     Edge 64, Type (0, 1), BuildingBlock: ZUJKAS_clean_linker_0, # of connection points: 2
#     Edge 65, Type (0, 1), BuildingBlock: ZUJKAS_clean_linker_0, # of connection points: 2
#     Edge 66, Type (0, 1), BuildingBlock: ZUJKAS_clean_linker_0, # of connection points: 2
#     Edge 67, Type (0, 1), BuildingBlock: ZUJKAS_clean_linker_0, # of connection points: 2
#     Edge 68, Type (0, 1), BuildingBlock: ZUJKAS_clean_linker_0, # of connection points: 2
#     Edge 69, Type (0, 1), BuildingBlock: ZUJKAS_clean_linker_0, # of connection points: 2
#     Edge 70, Type (0, 1), BuildingBlock: ZUJKAS_clean_linker_0, # of connection points: 2
#     Edge 71, Type (0, 1), BuildingBlock: ZUJKAS_clean_linker_0, # of connection points: 2
#     Edge 72, Type (0, 1), BuildingBlock: ZUJKAS_clean_linker_0, # of connection points: 2
#     Edge 73, Type (0, 1), BuildingBlock: ZUJKAS_clean_linker_0, # of connection points: 2
#     Edge 74, Type (0, 1), BuildingBlock: ZUJKAS_clean_linker_0, # of connection points: 2
#     Edge 75, Type (0, 1), BuildingBlock: ZUJKAS_clean_linker_0, # of connection points: 2
#     Edge 76, Type (0, 1), BuildingBlock: ZUJKAS_clean_linker_0, # of connection points: 2
#     Edge 77, Type (0, 1), BuildingBlock: ZUJKAS_clean_linker_0, # of connection points: 2
#     Edge 78, Type (0, 1), BuildingBlock: ZUJKAS_clean_linker_0, # of connection points: 2
#     Edge 79, Type (0, 1), BuildingBlock: ZUJKAS_clean_linker_0, # of connection points: 2
#     Edge 80, Type (0, 1), BuildingBlock: ZUJKAS_clean_linker_0, # of connection points: 2
#     Edge 81, Type (0, 1), BuildingBlock: ZUJKAS_clean_linker_0, # of connection points: 2
#     Edge 82, Type (0, 1), BuildingBlock: ZUJKAS_clean_linker_0, # of connection points: 2
#     Edge 83, Type (0, 1), BuildingBlock: ZUJKAS_clean_linker_0, # of connection points: 2
#     Edge 84, Type (0, 1), BuildingBlock: ZUJKAS_clean_linker_0, # of connection points: 2
#     Edge 85, Type (0, 1), BuildingBlock: ZUJKAS_clean_linker_0, # of connection points: 2
#     Edge 86, Type (0, 1), BuildingBlock: ZUJKAS_clean_linker_0, # of connection points: 2
#     Edge 87, Type (0, 1), BuildingBlock: ZUJKAS_clean_linker_0, # of connection points: 2
#     Edge 88, Type (0, 1), BuildingBlock: ZUJKAS_clean_linker_0, # of connection points: 2
#     Edge 89, Type (0, 1), BuildingBlock: ZUJKAS_clean_linker_0, # of connection points: 2
#     Edge 90, Type (0, 1), BuildingBlock: ZUJKAS_clean_linker_0, # of connection points: 2
#     Edge 91, Type (0, 1), BuildingBlock: ZUJKAS_clean_linker_0, # of connection points: 2
#     Edge 92, Type (0, 1), BuildingBlock: ZUJKAS_clean_linker_0, # of connection points: 2
#     Edge 93, Type (0, 1), BuildingBlock: ZUJKAS_clean_linker_0, # of connection points: 2
#     Edge 94, Type (0, 1), BuildingBlock: ZUJKAS_clean_linker_0, # of connection points: 2
#     Edge 95, Type (0, 1), BuildingBlock: ZUJKAS_clean_linker_0, # of connection points: 2
#     Edge 96, Type (0, 1), BuildingBlock: ZUJKAS_clean_linker_0, # of connection points: 2
#     Edge 97, Type (0, 1), BuildingBlock: ZUJKAS_clean_linker_0, # of connection points: 2
#     Edge 98, Type (0, 1), BuildingBlock: ZUJKAS_clean_linker_0, # of connection points: 2
#     Edge 99, Type (0, 1), BuildingBlock: ZUJKAS_clean_linker_0, # of connection points: 2
#     Edge 100, Type (0, 1), BuildingBlock: ZUJKAS_clean_linker_0, # of connection points: 2
#     Edge 101, Type (0, 1), BuildingBlock: ZUJKAS_clean_linker_0, # of connection points: 2
#     Edge 102, Type (0, 1), BuildingBlock: ZUJKAS_clean_linker_0, # of connection points: 2
#     Edge 103, Type (0, 1), BuildingBlock: ZUJKAS_clean_linker_0, # of connection points: 2
#     Edge 104, Type (0, 1), BuildingBlock: ZUJKAS_clean_linker_0, # of connection points: 2
#     Edge 105, Type (0, 1), BuildingBlock: ZUJKAS_clean_linker_0, # of connection points: 2
#     Edge 106, Type (0, 1), BuildingBlock: ZUJKAS_clean_linker_0, # of connection points: 2
#     Edge 107, Type (0, 1), BuildingBlock: ZUJKAS_clean_linker_0, # of connection points: 2
#     Edge 108, Type (0, 1), BuildingBlock: ZUJKAS_clean_linker_0, # of connection points: 2
#     Edge 109, Type (0, 1), BuildingBlock: ZUJKAS_clean_linker_0, # of connection points: 2
#     Edge 110, Type (0, 1), BuildingBlock: ZUJKAS_clean_linker_0, # of connection points: 2
#     Edge 111, Type (0, 1), BuildingBlock: ZUJKAS_clean_linker_0, # of connection points: 2
#     Edge 112, Type (0, 1), BuildingBlock: ZUJKAS_clean_linker_0, # of connection points: 2
#     Edge 113, Type (0, 1), BuildingBlock: ZUJKAS_clean_linker_0, # of connection points: 2
#     Edge 114, Type (0, 1), BuildingBlock: ZUJKAS_clean_linker_0, # of connection points: 2
#     Edge 115, Type (0, 1), BuildingBlock: ZUJKAS_clean_linker_0, # of connection points: 2
#     Edge 116, Type (0, 1), BuildingBlock: ZUJKAS_clean_linker_0, # of connection points: 2
#     Edge 117, Type (0, 1), BuildingBlock: ZUJKAS_clean_linker_0, # of connection points: 2
#     Edge 118, Type (0, 1), BuildingBlock: ZUJKAS_clean_linker_0, # of connection points: 2
#     Edge 119, Type (0, 1), BuildingBlock: ZUJKAS_clean_linker_0, # of connection points: 2
#     Edge 120, Type (0, 1), BuildingBlock: ZUJKAS_clean_linker_0, # of connection points: 2
#     Edge 121, Type (0, 1), BuildingBlock: ZUJKAS_clean_linker_0, # of connection points: 2
#     Edge 122, Type (0, 1), BuildingBlock: ZUJKAS_clean_linker_0, # of connection points: 2
#     Edge 123, Type (0, 1), BuildingBlock: ZUJKAS_clean_linker_0, # of connection points: 2
#     Edge 124, Type (0, 1), BuildingBlock: ZUJKAS_clean_linker_0, # of connection points: 2
#     Edge 125, Type (0, 1), BuildingBlock: ZUJKAS_clean_linker_0, # of connection points: 2
#     Edge 126, Type (0, 1), BuildingBlock: ZUJKAS_clean_linker_0, # of connection points: 2
#     Edge 127, Type (0, 1), BuildingBlock: ZUJKAS_clean_linker_0, # of connection points: 2
#     Edge 128, Type (0, 1), BuildingBlock: ZUJKAS_clean_linker_0, # of connection points: 2
#     Edge 129, Type (0, 1), BuildingBlock: ZUJKAS_clean_linker_0, # of connection points: 2
#     Edge 130, Type (0, 1), BuildingBlock: ZUJKAS_clean_linker_0, # of connection points: 2
#     Edge 131, Type (0, 1), BuildingBlock: ZUJKAS_clean_linker_0, # of connection points: 2
#     Edge 132, Type (0, 1), BuildingBlock: ZUJKAS_clean_linker_0, # of connection points: 2
#     Edge 133, Type (0, 1), BuildingBlock: ZUJKAS_clean_linker_0, # of connection points: 2
#     Edge 134, Type (0, 1), BuildingBlock: ZUJKAS_clean_linker_0, # of connection points: 2
#     Edge 135, Type (0, 1), BuildingBlock: ZUJKAS_clean_linker_0, # of connection points: 2
#     Edge 136, Type (0, 1), BuildingBlock: ZUJKAS_clean_linker_0, # of connection points: 2
#     Edge 137, Type (0, 1), BuildingBlock: ZUJKAS_clean_linker_0, # of connection points: 2
#     Edge 138, Type (0, 1), BuildingBlock: ZUJKAS_clean_linker_0, # of connection points: 2
#     Edge 139, Type (0, 1), BuildingBlock: ZUJKAS_clean_linker_0, # of connection points: 2
#     Edge 140, Type (0, 1), BuildingBlock: ZUJKAS_clean_linker_0, # of connection points: 2
#     Edge 141, Type (0, 1), BuildingBlock: ZUJKAS_clean_linker_0, # of connection points: 2
#     Edge 142, Type (0, 1), BuildingBlock: ZUJKAS_clean_linker_0, # of connection points: 2
#     Edge 143, Type (0, 1), BuildingBlock: ZUJKAS_clean_linker_0, # of connection points: 2
#     Edge 144, Type (0, 1), BuildingBlock: ZUJKAS_clean_linker_0, # of connection points: 2
#     Edge 145, Type (0, 1), BuildingBlock: ZUJKAS_clean_linker_0, # of connection points: 2
#     Edge 146, Type (0, 1), BuildingBlock: ZUJKAS_clean_linker_0, # of connection points: 2
#     Edge 147, Type (0, 1), BuildingBlock: ZUJKAS_clean_linker_0, # of connection points: 2
#     Edge 148, Type (0, 1), BuildingBlock: ZUJKAS_clean_linker_0, # of connection points: 2
#     Edge 149, Type (0, 1), BuildingBlock: ZUJKAS_clean_linker_0, # of connection points: 2
#     Edge 150, Type (0, 1), BuildingBlock: ZUJKAS_clean_linker_0, # of connection points: 2
#     Edge 151, Type (0, 1), BuildingBlock: ZUJKAS_clean_linker_0, # of connection points: 2
# Relax obj value: 0.002
# Max RMSD: 0.117
# Mean RMSD: 0.050
data_MOF--net-tbo--node1-ESEHIV_clean_sbu_0--node2-BELTOD_clean_linker_0--edge1-ZUJKAS_clean_linker_0
_symmetry_space_group_name_H-M    P1
_symmetry_Int_Tables_number       1
_symmetry_cell_setting            triclinic
loop_
_symmetry_equiv_pos_as_xyz
'x, y, z'
_cell_length_a     106.29642
_cell_length_b     107.4064
_cell_length_c     105.08446
_cell_angle_alpha  90.067384
_cell_angle_beta   91.819203
_cell_angle_gamma 90.690379
loop_
_atom_site_label
_atom_site_type_symbol
_atom_site_fract_x
_atom_site_fract_y
_atom_site_fract_z
_atom_type_partial_charge
P0 P 0.18487 0.17646 0.1995 0.0
H1 H 0.17614 0.17778 0.22536 0.0
H2 H 0.15548 0.18095 0.23426 0.0
H3 H 0.1386 0.18067 0.1963 0.0
H4 H 0.1594 0.17759 0.18746 0.0
H5 H 0.20891 0.16604 0.20814 0.0
H6 H 0.21633 0.1448 0.21073 0.0
H7 H 0.18051 0.13078 0.19584 0.0
H8 H 0.17302 0.1522 0.19364 0.0
H9 H 0.17686 0.19971 0.18788 0.0
H10 H 0.19504 0.16619 0.1759 0.0
O11 O 0.19442 0.18559 0.20842 0.0
H12 H 0.17973 0.20882 0.16684 0.0
H13 H 0.19817 0.17531 0.15495 0.0
C14 C 0.16934 0.17772 0.20576 0.0
C15 C 0.16798 0.17835 0.21896 0.0
C16 C 0.15614 0.18008 0.22404 0.0
C17 C 0.14537 0.18117 0.21599 0.0
C18 C 0.14672 0.1801 0.20275 0.0
C19 C 0.1586 0.1783 0.19768 0.0
C20 C 0.19033 0.16068 0.20093 0.0
C21 C 0.20262 0.15841 0.20547 0.0
C22 C 0.20691 0.14622 0.20682 0.0
C23 C 0.19903 0.13602 0.20353 0.0
C24 C 0.18677 0.13838 0.19867 0.0
C25 C 0.18248 0.15061 0.19736 0.0
C26 C 0.18559 0.18223 0.18343 0.0
C27 C 0.18132 0.19425 0.18066 0.0
C28 C 0.18308 0.19949 0.16866 0.0
C29 C 0.18924 0.19282 0.15921 0.0
C30 C 0.19325 0.18064 0.16194 0.0
C31 C 0.19148 0.17542 0.17396 0.0
P32 P 0.85509 0.17003 0.15791 0.0
H33 H 0.87665 0.16128 0.17285 0.0
H34 H 0.89273 0.17184 0.18612 0.0
H35 H 0.87336 0.20667 0.18062 0.0
H36 H 0.85739 0.19601 0.16713 0.0
H37 H 0.83605 0.1529 0.14776 0.0
H38 H 0.82205 0.13777 0.15754 0.0
H39 H 0.83548 0.14993 0.19483 0.0
H40 H 0.84966 0.16492 0.18491 0.0
H41 H 0.86357 0.18347 0.13573 0.0
H42 H 0.82968 0.18088 0.15709 0.0
O43 O 0.86366 0.16082 0.14887 0.0
H44 H 0.85313 0.1975 0.1206 0.0
H45 H 0.81903 0.19471 0.14182 0.0
C46 C 0.86592 0.17787 0.16889 0.0
C47 C 0.87581 0.17117 0.17459 0.0
C48 C 0.88498 0.17723 0.18224 0.0
C49 C 0.88441 0.19015 0.18441 0.0
C50 C 0.87421 0.19677 0.17899 0.0
C51 C 0.86502 0.19066 0.17133 0.0
C52 C 0.8439 0.16001 0.16558 0.0
C53 C 0.83588 0.15239 0.15805 0.0
C54 C 0.82783 0.14378 0.16368 0.0
C55 C 0.82762 0.14259 0.177 0.0
C56 C 0.83551 0.15047 0.18455 0.0
C57 C 0.84357 0.15911 0.17888 0.0
C58 C 0.84732 0.18093 0.14736 0.0
C59 C 0.85385 0.18589 0.13713 0.0
C60 C 0.84784 0.19387 0.12845 0.0
C61 C 0.83517 0.1971 0.12987 0.0
C62 C 0.82879 0.19245 0.14044 0.0
C63 C 0.83484 0.18446 0.14914 0.0
P64 P 0.85498 0.87321 0.16604 0.0
H65 H 0.86311 0.89296 0.18318 0.0
H66 H 0.85198 0.9076 0.19633 0.0
H67 H 0.81674 0.88914 0.18595 0.0
H68 H 0.82804 0.87472 0.17241 0.0
H69 H 0.88176 0.86857 0.1632 0.0
H70 H 0.89719 0.85695 0.17573 0.0
H71 H 0.868 0.84484 0.20085 0.0
H72 H 0.85267 0.85713 0.1885 0.0
H73 H 0.84074 0.87993 0.14311 0.0
H74 H 0.84758 0.84649 0.16478 0.0
O75 O 0.86325 0.88302 0.15715 0.0
H76 H 0.82952 0.86772 0.12662 0.0
H77 H 0.83633 0.8342 0.14828 0.0
C78 C 0.8464 0.88283 0.17676 0.0
C79 C 0.85299 0.892 0.18382 0.0
C80 C 0.84659 0.90033 0.19143 0.0
C81 C 0.83341 0.89962 0.19225 0.0
C82 C 0.82686 0.89012 0.18542 0.0
C83 C 0.83331 0.88179 0.17773 0.0
C84 C 0.86608 0.86381 0.17498 0.0
C85 C 0.87865 0.86343 0.17141 0.0
C86 C 0.88748 0.85664 0.17856 0.0
C87 C 0.88391 0.84987 0.18935 0.0
C88 C 0.87119 0.85008 0.19275 0.0
C89 C 0.86237 0.85702 0.18564 0.0
C90 C 0.84516 0.86413 0.15509 0.0
C91 C 0.83974 0.86997 0.14437 0.0
C92 C 0.83339 0.86296 0.13491 0.0
C93 C 0.83221 0.84996 0.13603 0.0
C94 C 0.83709 0.84419 0.14712 0.0
C95 C 0.84355 0.85122 0.15657 0.0
P96 P 0.14694 0.84842 0.15218 0.0
H97 H 0.16814 0.8656 0.15044 0.0
H98 H 0.17804 0.88037 0.16551 0.0
H99 H 0.15381 0.86698 0.19488 0.0
H100 H 0.14394 0.85223 0.17976 0.0
H101 H 0.14676 0.8455 0.12456 0.0
H102 H 0.16172 0.83668 0.11 0.0
H103 H 0.18561 0.82583 0.142 0.0
H104 H 0.17054 0.83479 0.15661 0.0
H105 H 0.11949 0.84614 0.15177 0.0
H106 H 0.15105 0.82622 0.1681 0.0
O107 O 0.13837 0.85845 0.14355 0.0
H108 H 0.105 0.83192 0.16199 0.0
H109 H 0.1365 0.81168 0.17827 0.0
C110 C 0.15547 0.85764 0.16401 0.0
C111 C 0.16513 0.86567 0.16019 0.0
C112 C 0.1707 0.87419 0.16878 0.0
C113 C 0.16668 0.87488 0.18138 0.0
C114 C 0.15722 0.86658 0.18528 0.0
C115 C 0.15157 0.85812 0.17664 0.0
C116 C 0.15762 0.84095 0.14166 0.0
C117 C 0.1552 0.84122 0.12848 0.0
C118 C 0.16379 0.83622 0.12014 0.0
C119 C 0.17492 0.83069 0.12483 0.0
C120 C 0.17711 0.83001 0.1381 0.0
C121 C 0.16853 0.83514 0.14645 0.0
C122 C 0.13638 0.83723 0.15912 0.0
C123 C 0.12333 0.8386 0.15743 0.0
C124 C 0.11501 0.83038 0.16324 0.0
C125 C 0.11955 0.82059 0.17092 0.0
C126 C 0.13267 0.81916 0.17249 0.0
C127 C 0.14101 0.82741 0.16662 0.0
P128 P 0.17658 0.82904 0.829 0.0
H129 H 0.16566 0.82825 0.80337 0.0
H130 H 0.14409 0.82571 0.79492 0.0
H131 H 0.13036 0.82707 0.83313 0.0
H132 H 0.15206 0.82963 0.84155 0.0
H133 H 0.20197 0.8364 0.82236 0.0
H134 H 0.21232 0.85654 0.81946 0.0
H135 H 0.17807 0.87512 0.82904 0.0
H136 H 0.16769 0.85477 0.83192 0.0
H137 H 0.17684 0.80416 0.83989 0.0
H138 H 0.17985 0.84189 0.85378 0.0
O139 O 0.18424 0.819 0.82001 0.0
H140 H 0.18159 0.79633 0.86127 0.0
H141 H 0.18427 0.83415 0.87532 0.0
C142 C 0.16047 0.82889 0.82309 0.0
C143 C 0.158 0.8281 0.80993 0.0
C144 C 0.14567 0.82661 0.80511 0.0
C145 C 0.13553 0.82602 0.81336 0.0
C146 C 0.13798 0.82751 0.82653 0.0
C147 C 0.15037 0.82891 0.83136 0.0
C148 C 0.18399 0.84409 0.82709 0.0
C149 C 0.19663 0.84478 0.82376 0.0
C150 C 0.20255 0.85632 0.82207 0.0
C151 C 0.19598 0.86743 0.82387 0.0
C152 C 0.18337 0.86672 0.82759 0.0
C153 C 0.17742 0.85512 0.82916 0.0
C154 C 0.17825 0.82359 0.84519 0.0
C155 C 0.17836 0.81076 0.8476 0.0
C156 C 0.18099 0.8063 0.85988 0.0
C157 C 0.18346 0.8146 0.87006 0.0
C158 C 0.18269 0.82749 0.86768 0.0
C159 C 0.18009 0.83194 0.85536 0.0
P160 P 0.20264 0.17833 0.83819 0.0
H161 H 0.22648 0.1854 0.85055 0.0
H162 H 0.23279 0.19033 0.87251 0.0
H163 H 0.19518 0.18135 0.88434 0.0
H164 H 0.1889 0.17661 0.86217 0.0
H165 H 0.22155 0.16889 0.8211 0.0
H166 H 0.22607 0.14814 0.81318 0.0
H167 H 0.1973 0.1326 0.8368 0.0
H168 H 0.1928 0.15356 0.84473 0.0
H169 H 0.18602 0.1984 0.84561 0.0
H170 H 0.18353 0.16579 0.82164 0.0
O171 O 0.21084 0.18846 0.82961 0.0
H172 H 0.16502 0.20456 0.83801 0.0
H173 H 0.16246 0.17155 0.81445 0.0
C174 C 0.20715 0.18093 0.85469 0.0
C175 C 0.21959 0.18447 0.85787 0.0
C176 C 0.22322 0.18719 0.87048 0.0
C177 C 0.21448 0.18633 0.88024 0.0
C178 C 0.20209 0.18233 0.87705 0.0
C179 C 0.19849 0.17958 0.86439 0.0
C180 C 0.20676 0.16278 0.83344 0.0
C181 C 0.21627 0.16104 0.82469 0.0
C182 C 0.21888 0.14914 0.82018 0.0
C183 C 0.212 0.13872 0.82431 0.0
C184 C 0.20266 0.14046 0.83332 0.0
C185 C 0.20014 0.1524 0.83793 0.0
C186 C 0.18627 0.18146 0.83449 0.0
C187 C 0.18081 0.19236 0.83902 0.0
C188 C 0.16878 0.19587 0.83465 0.0
C189 C 0.162 0.18858 0.82556 0.0
C190 C 0.16743 0.1775 0.82131 0.0
C191 C 0.17947 0.17406 0.8256 0.0
P192 P 0.86974 0.17399 0.8539 0.0
H193 H 0.87521 0.15299 0.83745 0.0
H194 H 0.8617 0.13793 0.82588 0.0
H195 H 0.82895 0.15871 0.83616 0.0
H196 H 0.84252 0.17386 0.84734 0.0
H197 H 0.88841 0.19148 0.86389 0.0
H198 H 0.90389 0.20502 0.85409 0.0
H199 H 0.88977 0.19351 0.81681 0.0
H200 H 0.8744 0.17973 0.8268 0.0
H201 H 0.85892 0.16688 0.878 0.0
H202 H 0.85926 0.19921 0.85374 0.0
O203 O 0.87883 0.16431 0.86241 0.0
H204 H 0.84621 0.17798 0.89319 0.0
H205 H 0.84634 0.21036 0.8688 0.0
C206 C 0.85989 0.16447 0.84338 0.0
C207 C 0.86513 0.15442 0.837 0.0
C208 C 0.85738 0.14575 0.83049 0.0
C209 C 0.84419 0.14697 0.83024 0.0
C210 C 0.83905 0.15747 0.83608 0.0
C211 C 0.84682 0.16615 0.84256 0.0
C212 C 0.88025 0.18463 0.8461 0.0
C213 C 0.88857 0.19195 0.8536 0.0
C214 C 0.89739 0.19976 0.84796 0.0
C215 C 0.89809 0.20042 0.83463 0.0
C216 C 0.88959 0.19315 0.8271 0.0
C217 C 0.88074 0.18531 0.8328 0.0
C218 C 0.86028 0.18233 0.86491 0.0
C219 C 0.85627 0.17639 0.87596 0.0
C220 C 0.8489 0.18272 0.88458 0.0
C221 C 0.8453 0.19509 0.88225 0.0
C222 C 0.84913 0.20092 0.871 0.0
C223 C 0.8565 0.19455 0.86236 0.0
P224 P 0.8523 0.87297 0.85714 0.0
H225 H 0.87955 0.87246 0.85479 0.0
H226 H 0.8937 0.85768 0.84521 0.0
H227 H 0.86173 0.83545 0.83205 0.0
H228 H 0.84754 0.85038 0.84172 0.0
H229 H 0.85237 0.90016 0.85765 0.0
H230 H 0.84369 0.91582 0.84326 0.0
H231 H 0.82925 0.88675 0.81815 0.0
H232 H 0.83823 0.87102 0.83262 0.0
H233 H 0.85209 0.84943 0.87094 0.0
H234 H 0.82604 0.87894 0.86237 0.0
O235 O 0.86094 0.88038 0.8684 0.0
H236 H 0.83691 0.83981 0.88495 0.0
H237 H 0.81068 0.86926 0.87622 0.0
C238 C 0.8625 0.8624 0.84916 0.0
C239 C 0.87555 0.86442 0.84985 0.0
C240 C 0.88365 0.85593 0.8444 0.0
C241 C 0.87885 0.8453 0.83801 0.0
C242 C 0.86571 0.84356 0.83689 0.0
C243 C 0.8576 0.85205 0.84244 0.0
C244 C 0.84603 0.88441 0.84617 0.0
C245 C 0.84741 0.89711 0.84903 0.0
C246 C 0.84235 0.90608 0.84081 0.0
C247 C 0.83572 0.90256 0.82955 0.0
C248 C 0.83442 0.88979 0.82666 0.0
C249 C 0.8395 0.88079 0.83494 0.0
C250 C 0.8401 0.86474 0.86535 0.0
C251 C 0.84295 0.85365 0.87177 0.0
C252 C 0.83424 0.84815 0.87981 0.0
C253 C 0.82254 0.85374 0.88172 0.0
C254 C 0.81963 0.86475 0.87505 0.0
C255 C 0.82836 0.87023 0.867 0.0
P256 P 0.17806 0.69267 0.68243 0.0
H257 H 0.16881 0.69557 0.70787 0.0
H258 H 0.14791 0.69869 0.71617 0.0
H259 H 0.13199 0.698 0.67781 0.0
H260 H 0.15309 0.69507 0.66955 0.0
H261 H 0.20234 0.68065 0.68604 0.0
H262 H 0.20829 0.65973 0.69283 0.0
H263 H 0.16909 0.64849 0.69166 0.0
H264 H 0.16322 0.66951 0.68502 0.0
H265 H 0.17816 0.71705 0.67064 0.0
H266 H 0.18169 0.67896 0.65841 0.0
O267 O 0.18798 0.70154 0.69124 0.0
H268 H 0.1828 0.72427 0.64921 0.0
H269 H 0.18642 0.68612 0.63691 0.0
C270 C 0.16252 0.69534 0.68811 0.0
C271 C 0.16083 0.69619 0.70124 0.0
C272 C 0.14885 0.69784 0.70598 0.0
C273 C 0.13825 0.69858 0.69766 0.0
C274 C 0.13997 0.69763 0.68446 0.0
C275 C 0.15202 0.69594 0.67972 0.0
C276 C 0.18234 0.6767 0.68528 0.0
C277 C 0.19504 0.67364 0.6871 0.0
C278 C 0.19843 0.66164 0.69093 0.0
C279 C 0.18916 0.65245 0.69295 0.0
C280 C 0.17645 0.65541 0.69044 0.0
C281 C 0.17308 0.66742 0.68658 0.0
C282 C 0.17974 0.6975 0.66614 0.0
C283 C 0.17982 0.71024 0.66329 0.0
C284 C 0.18253 0.71435 0.65106 0.0
C285 C 0.18513 0.70578 0.64139 0.0
C286 C 0.18442 0.69296 0.64413 0.0
C287 C 0.18177 0.68885 0.65644 0.0
P288 P 0.85139 0.67596 0.64616 0.0
H289 H 0.86809 0.67139 0.66808 0.0
H290 H 0.8828 0.68468 0.68036 0.0
H291 H 0.87011 0.71662 0.65879 0.0
H292 H 0.85544 0.70322 0.64648 0.0
H293 H 0.83891 0.65324 0.63766 0.0
H294 H 0.82684 0.63716 0.64839 0.0
H295 H 0.83134 0.65756 0.68378 0.0
H296 H 0.84296 0.6739 0.67276 0.0
H297 H 0.85583 0.6856 0.62077 0.0
H298 H 0.82515 0.68437 0.64661 0.0
O299 O 0.86182 0.66798 0.63797 0.0
H300 H 0.84221 0.69529 0.60461 0.0
H301 H 0.81144 0.69434 0.63053 0.0
C302 C 0.86047 0.68632 0.65654 0.0
C303 C 0.86825 0.6813 0.6662 0.0
C304 C 0.87667 0.68893 0.67322 0.0
C305 C 0.87764 0.70174 0.67059 0.0
C306 C 0.86967 0.70678 0.661 0.0
C307 C 0.86118 0.69913 0.65403 0.0
C308 C 0.84209 0.66461 0.65446 0.0
C309 C 0.83728 0.65425 0.64773 0.0
C310 C 0.83044 0.64502 0.65392 0.0
C311 C 0.82828 0.6459 0.66703 0.0
C312 C 0.83279 0.65655 0.67368 0.0
C313 C 0.83956 0.66586 0.66742 0.0
C314 C 0.84144 0.68409 0.6348 0.0
C315 C 0.84616 0.6875 0.62299 0.0
C316 C 0.83836 0.69312 0.61377 0.0
C317 C 0.82568 0.69555 0.61622 0.0
C318 C 0.82108 0.69241 0.62824 0.0
C319 C 0.82892 0.68678 0.63747 0.0
P320 P 0.86307 0.37112 0.67183 0.0
H321 H 0.87227 0.39269 0.68602 0.0
H322 H 0.86208 0.40807 0.69914 0.0
H323 H 0.82722 0.38698 0.69571 0.0
H324 H 0.83749 0.37181 0.68218 0.0
H325 H 0.88336 0.35745 0.66091 0.0
H326 H 0.89993 0.34431 0.66989 0.0
H327 H 0.88633 0.35091 0.70762 0.0
H328 H 0.86948 0.36382 0.69842 0.0
H329 H 0.84555 0.37621 0.65062 0.0
H330 H 0.85673 0.34433 0.67296 0.0
O331 O 0.87002 0.38046 0.66141 0.0
H332 H 0.83339 0.36262 0.63602 0.0
H333 H 0.84495 0.33064 0.65822 0.0
C334 C 0.85563 0.38118 0.68303 0.0
C335 C 0.86246 0.39131 0.6882 0.0
C336 C 0.85661 0.40008 0.6958 0.0
C337 C 0.84376 0.39886 0.6985 0.0
C338 C 0.83706 0.38837 0.69368 0.0
C339 C 0.84294 0.37961 0.686 0.0
C340 C 0.87535 0.36177 0.67901 0.0
C341 C 0.884 0.35613 0.67113 0.0
C342 C 0.89351 0.34865 0.6763 0.0
C343 C 0.89459 0.34665 0.68952 0.0
C344 C 0.88575 0.3522 0.6974 0.0
C345 C 0.87617 0.35967 0.69218 0.0
C346 C 0.85222 0.36128 0.66274 0.0
C347 C 0.84528 0.36629 0.65246 0.0
C348 C 0.83842 0.35849 0.64405 0.0
C349 C 0.83837 0.34549 0.64578 0.0
C350 C 0.84473 0.34059 0.65658 0.0
C351 C 0.85155 0.34842 0.665 0.0
P352 P 0.1607 0.36866 0.67176 0.0
H353 H 0.17013 0.39219 0.66206 0.0
H354 H 0.18413 0.40829 0.67105 0.0
H355 H 0.18829 0.38697 0.70577 0.0
H356 H 0.17394 0.37098 0.69673 0.0
H357 H 0.15323 0.35035 0.65243 0.0
H358 H 0.16516 0.33837 0.6372 0.0
H359 H 0.1999 0.3525 0.65452 0.0
H360 H 0.18794 0.36417 0.66985 0.0
H361 H 0.13995 0.37695 0.6867 0.0
H362 H 0.16108 0.34326 0.68268 0.0
O363 O 0.15053 0.37577 0.66185 0.0
H364 H 0.12584 0.36638 0.70111 0.0
H365 H 0.14719 0.33261 0.69744 0.0
C366 C 0.17078 0.38055 0.67884 0.0
C367 C 0.17395 0.39104 0.67166 0.0
C368 C 0.1821 0.40018 0.67677 0.0
C369 C 0.18737 0.39895 0.68915 0.0
C370 C 0.18426 0.38831 0.69628 0.0
C371 C 0.17607 0.37915 0.69113 0.0
C372 C 0.16967 0.35826 0.66217 0.0
C373 C 0.16342 0.3507 0.65306 0.0
C374 C 0.17026 0.34394 0.64429 0.0
C375 C 0.1835 0.34461 0.6445 0.0
C376 C 0.18973 0.35171 0.6541 0.0
C377 C 0.18287 0.35846 0.66287 0.0
C378 C 0.15144 0.36085 0.6835 0.0
C379 C 0.14164 0.36729 0.68907 0.0
C380 C 0.13362 0.36123 0.69741 0.0
C381 C 0.1353 0.34858 0.70045 0.0
C382 C 0.14546 0.34228 0.69516 0.0
C383 C 0.15348 0.34837 0.68677 0.0
P384 P 0.17991 0.32571 0.34047 0.0
H385 H 0.16926 0.32027 0.31516 0.0
H386 H 0.14782 0.31656 0.30699 0.0
H387 H 0.13369 0.32472 0.34418 0.0
H388 H 0.15531 0.32809 0.35236 0.0
H389 H 0.20374 0.33676 0.34903 0.0
H390 H 0.21357 0.35713 0.34565 0.0
H391 H 0.17983 0.36934 0.32559 0.0
H392 H 0.17 0.34896 0.32914 0.0
H393 H 0.18468 0.30086 0.35047 0.0
H394 H 0.17829 0.33742 0.36572 0.0
O395 O 0.18886 0.31694 0.33135 0.0
H396 H 0.18841 0.29282 0.37192 0.0
H397 H 0.18167 0.32939 0.38736 0.0
C398 C 0.16389 0.32418 0.33443 0.0
C399 C 0.16155 0.32128 0.32156 0.0
C400 C 0.14924 0.31927 0.31686 0.0
C401 C 0.13898 0.32024 0.32493 0.0
C402 C 0.14137 0.32365 0.33775 0.0
C403 C 0.15372 0.32564 0.34244 0.0
C404 C 0.18611 0.34137 0.33945 0.0
C405 C 0.19838 0.34389 0.34408 0.0
C406 C 0.20403 0.35551 0.34205 0.0
C407 C 0.19752 0.36485 0.33527 0.0
C408 C 0.18506 0.3624 0.33094 0.0
C409 C 0.17943 0.35072 0.33295 0.0
C410 C 0.18149 0.31979 0.35649 0.0
C411 C 0.18398 0.30715 0.35847 0.0
C412 C 0.186 0.30253 0.37079 0.0
C413 C 0.18543 0.31045 0.38143 0.0
C414 C 0.18242 0.32306 0.3794 0.0
C415 C 0.18044 0.32767 0.36704 0.0
P416 P 0.18739 0.66954 0.32552 0.0
H417 H 0.21211 0.67865 0.33444 0.0
H418 H 0.22116 0.68326 0.35559 0.0
H419 H 0.18735 0.66919 0.37254 0.0
H420 H 0.17831 0.66458 0.35124 0.0
H421 H 0.19345 0.65982 0.30057 0.0
H422 H 0.19709 0.63895 0.29256 0.0
H423 H 0.18818 0.62366 0.32928 0.0
H424 H 0.1849 0.64476 0.33734 0.0
H425 H 0.17532 0.69067 0.3371 0.0
H426 H 0.16417 0.66004 0.31251 0.0
O427 O 0.19496 0.67913 0.31581 0.0
H428 H 0.15431 0.69944 0.33458 0.0
H429 H 0.14313 0.66888 0.30976 0.0
C430 C 0.19446 0.67147 0.34126 0.0
C431 C 0.20665 0.67649 0.34269 0.0
C432 C 0.2118 0.67918 0.3548 0.0
C433 C 0.20491 0.67675 0.36575 0.0
C434 C 0.1929 0.67115 0.3643 0.0
C435 C 0.18772 0.66854 0.35214 0.0
C436 C 0.18916 0.65388 0.31964 0.0
C437 C 0.19228 0.65199 0.30692 0.0
C438 C 0.19424 0.63999 0.3023 0.0
C439 C 0.193 0.62955 0.31026 0.0
C440 C 0.18945 0.63147 0.32293 0.0
C441 C 0.18752 0.64353 0.32756 0.0
C442 C 0.17126 0.67458 0.3252 0.0
C443 C 0.16827 0.6857 0.33135 0.0
C444 C 0.15628 0.69078 0.32978 0.0
C445 C 0.14704 0.6849 0.32191 0.0
C446 C 0.14998 0.67357 0.31601 0.0
C447 C 0.16202 0.6685 0.31757 0.0
P448 P 0.85708 0.66119 0.35052 0.0
H449 H 0.86099 0.63526 0.34403 0.0
H450 H 0.84741 0.61903 0.33472 0.0
H451 H 0.817 0.64527 0.33102 0.0
H452 H 0.8307 0.6615 0.34067 0.0
H453 H 0.87123 0.68456 0.3521 0.0
H454 H 0.88612 0.69454 0.33802 0.0
H455 H 0.8788 0.66568 0.30998 0.0
H456 H 0.86368 0.65592 0.32402 0.0
H457 H 0.85233 0.66076 0.37768 0.0
H458 H 0.84298 0.68426 0.34561 0.0
O459 O 0.86758 0.65377 0.35979 0.0
H460 H 0.84228 0.6753 0.3919 0.0
H461 H 0.83288 0.69898 0.35988 0.0
C462 C 0.84681 0.64953 0.34324 0.0
C463 C 0.85139 0.63754 0.34127 0.0
C464 C 0.84362 0.62827 0.33582 0.0
C465 C 0.83109 0.63082 0.33209 0.0
C466 C 0.82655 0.64294 0.33393 0.0
C467 C 0.83438 0.65224 0.3394 0.0
C468 C 0.86611 0.66964 0.33903 0.0
C469 C 0.87257 0.68055 0.34279 0.0
C470 C 0.88122 0.68616 0.33478 0.0
C471 C 0.88375 0.68087 0.32289 0.0
C472 C 0.877 0.6701 0.319 0.0
C473 C 0.86832 0.66449 0.32704 0.0
C474 C 0.84862 0.67155 0.36063 0.0
C475 C 0.84811 0.66906 0.37369 0.0
C476 C 0.8424 0.67742 0.38183 0.0
C477 C 0.83694 0.6884 0.37706 0.0
C478 C 0.83699 0.69061 0.36385 0.0
C479 C 0.84279 0.68224 0.3557 0.0
P480 P 0.85653 0.35993 0.37088 0.0
H481 H 0.87819 0.36303 0.3551 0.0
H482 H 0.89268 0.34844 0.34567 0.0
H483 H 0.87116 0.31764 0.36053 0.0
H484 H 0.85655 0.33233 0.36974 0.0
H485 H 0.84112 0.38166 0.37435 0.0
H486 H 0.83121 0.39635 0.35952 0.0
H487 H 0.84321 0.37416 0.32788 0.0
H488 H 0.8528 0.35934 0.3428 0.0
H489 H 0.85782 0.35786 0.39858 0.0
H490 H 0.83244 0.34628 0.36788 0.0
O491 O 0.86628 0.36957 0.37897 0.0
H492 H 0.84373 0.34882 0.41401 0.0
H493 H 0.81819 0.33708 0.3834 0.0
C494 C 0.86633 0.34879 0.36316 0.0
C495 C 0.87654 0.35313 0.35625 0.0
C496 C 0.88487 0.34477 0.35094 0.0
C497 C 0.88318 0.33185 0.35245 0.0
C498 C 0.8727 0.32751 0.35911 0.0
C499 C 0.86435 0.33592 0.36443 0.0
C500 C 0.8478 0.36948 0.3597 0.0
C501 C 0.84147 0.37987 0.36422 0.0
C502 C 0.8359 0.38832 0.35572 0.0
C503 C 0.83657 0.38655 0.34249 0.0
C504 C 0.84247 0.3758 0.338 0.0
C505 C 0.84804 0.36733 0.34654 0.0
C506 C 0.8461 0.35287 0.38209 0.0
C507 C 0.84917 0.35341 0.39515 0.0
C508 C 0.84106 0.34829 0.40399 0.0
C509 C 0.82976 0.34236 0.39995 0.0
C510 C 0.82682 0.34159 0.38681 0.0
C511 C 0.83492 0.34686 0.37794 0.0
P512 P 0.68949 0.19086 0.68725 0.0
H513 H 0.67931 0.18396 0.71155 0.0
H514 H 0.65874 0.1867 0.72088 0.0
H515 H 0.6446 0.20247 0.68551 0.0
H516 H 0.66518 0.19957 0.6762 0.0
H517 H 0.71483 0.18143 0.69163 0.0
H518 H 0.7232 0.16053 0.6944 0.0
H519 H 0.68597 0.14497 0.68701 0.0
H520 H 0.67763 0.16603 0.68462 0.0
H521 H 0.6947 0.2158 0.67773 0.0
H522 H 0.68636 0.17954 0.66178 0.0
O523 O 0.69853 0.19979 0.6969 0.0
H524 H 0.69771 0.22413 0.65646 0.0
H525 H 0.68901 0.18787 0.64033 0.0
C526 C 0.67378 0.19154 0.6932 0.0
C527 C 0.67173 0.18786 0.70576 0.0
C528 C 0.65999 0.18952 0.71111 0.0
C529 C 0.65004 0.1949 0.70398 0.0
C530 C 0.65203 0.19822 0.69123 0.0
C531 C 0.66382 0.19659 0.6859 0.0
C532 C 0.69558 0.17528 0.68821 0.0
C533 C 0.70847 0.17351 0.6906 0.0
C534 C 0.71327 0.16152 0.69206 0.0
C535 C 0.70527 0.15101 0.69102 0.0
C536 C 0.69238 0.15284 0.68813 0.0
C537 C 0.68759 0.16487 0.6867 0.0
C538 C 0.6906 0.19699 0.67135 0.0
C539 C 0.69343 0.20964 0.66961 0.0
C540 C 0.69503 0.21443 0.6574 0.0
C541 C 0.69369 0.20667 0.64662 0.0
C542 C 0.69036 0.19407 0.6484 0.0
C543 C 0.68879 0.18928 0.66066 0.0
P544 P 0.35817 0.16294 0.66172 0.0
H545 H 0.38144 0.17448 0.65323 0.0
H546 H 0.39744 0.18769 0.66384 0.0
H547 H 0.37559 0.18786 0.69782 0.0
H548 H 0.35966 0.17451 0.68715 0.0
H549 H 0.36714 0.13879 0.67025 0.0
H550 H 0.35948 0.12361 0.68548 0.0
H551 H 0.32883 0.14799 0.69413 0.0
H552 H 0.33647 0.16307 0.67856 0.0
H553 H 0.35654 0.18861 0.65232 0.0
H554 H 0.3332 0.1555 0.65168 0.0
O555 O 0.36562 0.15488 0.65072 0.0
H556 H 0.34154 0.19891 0.63804 0.0
H557 H 0.31785 0.1659 0.63763 0.0
C558 C 0.3695 0.17328 0.6695 0.0
C559 C 0.38009 0.17736 0.66297 0.0
C560 C 0.38918 0.18501 0.66902 0.0
C561 C 0.38785 0.18878 0.68172 0.0
C562 C 0.37701 0.18496 0.68811 0.0
C563 C 0.36788 0.17734 0.68201 0.0
C564 C 0.35221 0.15192 0.67306 0.0
C565 C 0.35872 0.14084 0.67536 0.0
C566 C 0.35439 0.13221 0.68419 0.0
C567 C 0.34351 0.13454 0.69106 0.0
C568 C 0.33712 0.1458 0.68888 0.0
C569 C 0.34148 0.15444 0.68 0.0
C570 C 0.34588 0.17136 0.65333 0.0
C571 C 0.348 0.18365 0.64942 0.0
C572 C 0.33936 0.18957 0.64122 0.0
C573 C 0.32842 0.18327 0.63666 0.0
C574 C 0.3262 0.17101 0.64084 0.0
C575 C 0.3349 0.16509 0.64902 0.0
P576 P 0.36151 0.86377 0.66411 0.0
H577 H 0.36586 0.88965 0.67106 0.0
H578 H 0.35331 0.90507 0.68177 0.0
H579 H 0.32414 0.87737 0.68717 0.0
H580 H 0.33678 0.86195 0.67617 0.0
H581 H 0.38901 0.86509 0.66549 0.0
H582 H 0.40478 0.85622 0.67998 0.0
H583 H 0.37535 0.83868 0.70131 0.0
H584 H 0.35948 0.84756 0.68652 0.0
H585 H 0.33872 0.86588 0.64822 0.0
H586 H 0.36418 0.83679 0.65989 0.0
O587 O 0.36914 0.87183 0.65311 0.0
H588 H 0.32785 0.85148 0.63344 0.0
H589 H 0.35339 0.82235 0.64508 0.0
C590 C 0.35215 0.87473 0.6726 0.0
C591 C 0.35675 0.88688 0.67453 0.0
C592 C 0.34959 0.89568 0.68075 0.0
C593 C 0.33767 0.8925 0.68533 0.0
C594 C 0.33318 0.88019 0.6836 0.0
C595 C 0.34041 0.87136 0.67736 0.0
C596 C 0.37305 0.85696 0.6749 0.0
C597 C 0.38589 0.85934 0.67326 0.0
C598 C 0.39494 0.85431 0.68163 0.0
C599 C 0.39135 0.84679 0.69188 0.0
C600 C 0.37844 0.84436 0.69347 0.0
C601 C 0.36936 0.84946 0.68507 0.0
C602 C 0.35208 0.85236 0.65539 0.0
C603 C 0.34178 0.85631 0.64784 0.0
C604 C 0.33566 0.8481 0.63928 0.0
C605 C 0.33978 0.83577 0.63803 0.0
C606 C 0.34988 0.83173 0.64591 0.0
C607 C 0.35604 0.83999 0.65443 0.0
P608 P 0.65289 0.86583 0.65312 0.0
H609 H 0.66959 0.88685 0.64884 0.0
H610 H 0.67979 0.90225 0.66299 0.0
H611 H 0.66473 0.88326 0.69549 0.0
H612 H 0.65469 0.8678 0.68128 0.0
H613 H 0.64762 0.85198 0.62986 0.0
H614 H 0.66102 0.84272 0.61403 0.0
H615 H 0.69398 0.85306 0.63697 0.0
H616 H 0.68045 0.86197 0.65295 0.0
H617 H 0.62566 0.86411 0.65595 0.0
H618 H 0.65832 0.84326 0.66799 0.0
O619 O 0.64364 0.87488 0.64406 0.0
H620 H 0.61209 0.84931 0.66669 0.0
H621 H 0.6447 0.82829 0.67886 0.0
C622 C 0.66145 0.87613 0.66398 0.0
C623 C 0.66861 0.88592 0.65903 0.0
C624 C 0.67435 0.89478 0.66713 0.0
C625 C 0.673 0.89406 0.68038 0.0
C626 C 0.66605 0.88404 0.68535 0.0
C627 C 0.66028 0.87518 0.6772 0.0
C628 C 0.66304 0.85785 0.64246 0.0
C629 C 0.65773 0.85215 0.63153 0.0
C630 C 0.66542 0.84694 0.62244 0.0
C631 C 0.67861 0.84733 0.6241 0.0
C632 C 0.68387 0.85258 0.63538 0.0
C633 C 0.67614 0.85776 0.6445 0.0
C634 C 0.643 0.85474 0.6611 0.0
C635 C 0.62992 0.85629 0.66084 0.0
C636 C 0.62214 0.84776 0.66694 0.0
C637 C 0.62729 0.83755 0.67354 0.0
C638 C 0.64045 0.83607 0.67388 0.0
C639 C 0.64823 0.84458 0.66765 0.0
P640 P 0.66785 0.83369 0.321 0.0
H641 H 0.65661 0.82642 0.29644 0.0
H642 H 0.63515 0.82116 0.2893 0.0
H643 H 0.62223 0.82857 0.32715 0.0
H644 H 0.64389 0.83348 0.33428 0.0
H645 H 0.69167 0.84723 0.32037 0.0
H646 H 0.69723 0.86853 0.31438 0.0
H647 H 0.65772 0.87722 0.31006 0.0
H648 H 0.65227 0.85584 0.31582 0.0
H649 H 0.67136 0.8093 0.3323 0.0
H650 H 0.67095 0.84734 0.34537 0.0
O651 O 0.67731 0.82547 0.3119 0.0
H652 H 0.67712 0.80233 0.35377 0.0
H653 H 0.67643 0.84043 0.36703 0.0
C654 C 0.65187 0.83005 0.31595 0.0
C655 C 0.64917 0.82684 0.30322 0.0
C656 C 0.63684 0.82397 0.29912 0.0
C657 C 0.62691 0.82439 0.30765 0.0
C658 C 0.62965 0.82792 0.32037 0.0
C659 C 0.64203 0.83077 0.32446 0.0
C660 C 0.67158 0.8499 0.31838 0.0
C661 C 0.68421 0.85377 0.31825 0.0
C662 C 0.68737 0.86599 0.31489 0.0
C663 C 0.67792 0.8746 0.31162 0.0
C664 C 0.66524 0.87079 0.31228 0.0
C665 C 0.6621 0.85855 0.31566 0.0
C666 C 0.67095 0.82884 0.33721 0.0
C667 C 0.67241 0.81615 0.33985 0.0
C668 C 0.67561 0.81216 0.35218 0.0
C669 C 0.67733 0.82081 0.36218 0.0
C670 C 0.67541 0.83353 0.35954 0.0
C671 C 0.67222 0.8375 0.34716 0.0
P672 P 0.68299 0.18222 0.334 0.0
H673 H 0.7084 0.18857 0.34296 0.0
H674 H 0.71795 0.1924 0.36404 0.0
H675 H 0.68214 0.18486 0.38098 0.0
H676 H 0.67261 0.1811 0.35973 0.0
H677 H 0.69031 0.17111 0.30998 0.0
H678 H 0.69676 0.15021 0.30418 0.0
H679 H 0.68843 0.13728 0.34197 0.0
H680 H 0.68224 0.15838 0.34777 0.0
H681 H 0.66889 0.20262 0.34479 0.0
H682 H 0.66132 0.17183 0.31924 0.0
O683 O 0.69058 0.19161 0.32411 0.0
H684 H 0.64763 0.21029 0.34071 0.0
H685 H 0.64015 0.17966 0.31473 0.0
C686 C 0.68973 0.18489 0.34975 0.0
C687 C 0.70258 0.1878 0.3512 0.0
C688 C 0.70806 0.18988 0.36329 0.0
C689 C 0.7008 0.18899 0.37422 0.0
C690 C 0.68794 0.18581 0.37275 0.0
C691 C 0.68248 0.18366 0.36061 0.0
C692 C 0.68599 0.16636 0.32937 0.0
C693 C 0.68978 0.16377 0.317 0.0
C694 C 0.69341 0.15176 0.31367 0.0
C695 C 0.69324 0.14203 0.32263 0.0
C696 C 0.68892 0.14458 0.33489 0.0
C697 C 0.68529 0.15663 0.33821 0.0
C698 C 0.6666 0.18645 0.33261 0.0
C699 C 0.66255 0.19735 0.3385 0.0
C700 C 0.65043 0.20185 0.33599 0.0
C701 C 0.64212 0.19565 0.32734 0.0
C702 C 0.64617 0.18459 0.32161 0.0
C703 C 0.65831 0.18007 0.32418 0.0
P704 P 0.35217 0.15259 0.36837 0.0
H705 H 0.35277 0.12575 0.36427 0.0
H706 H 0.33766 0.11085 0.35485 0.0
H707 H 0.31228 0.14089 0.3457 0.0
H708 H 0.32754 0.15584 0.35526 0.0
H709 H 0.37675 0.16425 0.37201 0.0
H710 H 0.39173 0.17335 0.35747 0.0
H711 H 0.36558 0.16628 0.32587 0.0
H712 H 0.35068 0.15696 0.34054 0.0
H713 H 0.33448 0.14984 0.38864 0.0
H714 H 0.35234 0.18016 0.36898 0.0
O715 O 0.36107 0.14442 0.37864 0.0
H716 H 0.32543 0.16462 0.4034 0.0
H717 H 0.34353 0.19498 0.38384 0.0
C718 C 0.34117 0.14187 0.36066 0.0
C719 C 0.34395 0.12916 0.36027 0.0
C720 C 0.33528 0.12063 0.35491 0.0
C721 C 0.32371 0.12467 0.34967 0.0
C722 C 0.32112 0.1375 0.34967 0.0
C723 C 0.32979 0.14603 0.35516 0.0
C724 C 0.36269 0.15977 0.35734 0.0
C725 C 0.37423 0.16466 0.36195 0.0
C726 C 0.38276 0.16996 0.35362 0.0
C727 C 0.37988 0.17055 0.34048 0.0
C728 C 0.36817 0.16583 0.33591 0.0
C729 C 0.35961 0.16053 0.34429 0.0
C730 C 0.34408 0.16387 0.37773 0.0
C731 C 0.33633 0.1597 0.38741 0.0
C732 C 0.33126 0.16815 0.39591 0.0
C733 C 0.33388 0.18098 0.3949 0.0
C734 C 0.34127 0.18518 0.38485 0.0
C735 C 0.34636 0.17668 0.37635 0.0
P736 P 0.34586 0.85773 0.36432 0.0
H737 H 0.37216 0.85157 0.36995 0.0
H738 H 0.38672 0.83737 0.3602 0.0
H739 H 0.35754 0.82608 0.33285 0.0
H740 H 0.34304 0.84064 0.34256 0.0
H741 H 0.35429 0.88098 0.35307 0.0
H742 H 0.34428 0.89571 0.33837 0.0
H743 H 0.31187 0.87117 0.33441 0.0
H744 H 0.32198 0.85647 0.34923 0.0
H745 H 0.3451 0.83238 0.37476 0.0
H746 H 0.32194 0.86505 0.37496 0.0
O747 O 0.35407 0.86674 0.37462 0.0
H748 H 0.33105 0.82207 0.38939 0.0
H749 H 0.30755 0.85464 0.38932 0.0
C750 C 0.35656 0.84728 0.35688 0.0
C751 C 0.36889 0.84611 0.36181 0.0
C752 C 0.3772 0.83787 0.35628 0.0
C753 C 0.37332 0.83053 0.34574 0.0
C754 C 0.3609 0.8317 0.34085 0.0
C755 C 0.35258 0.83998 0.3464 0.0
C756 C 0.33872 0.86782 0.35252 0.0
C757 C 0.34505 0.87874 0.34899 0.0
C758 C 0.33935 0.88711 0.34049 0.0
C759 C 0.32721 0.88468 0.3353 0.0
C760 C 0.32114 0.87342 0.33842 0.0
C761 C 0.3269 0.86501 0.34688 0.0
C762 C 0.33441 0.84939 0.37347 0.0
C763 C 0.3368 0.83723 0.37767 0.0
C764 C 0.32871 0.83132 0.38606 0.0
C765 C 0.31809 0.83748 0.39053 0.0
C766 C 0.31567 0.84964 0.38618 0.0
C767 C 0.32381 0.85555 0.37783 0.0
P768 P 0.67807 0.68654 0.18876 0.0
H769 H 0.66742 0.68317 0.2136 0.0
H770 H 0.64634 0.68587 0.22165 0.0
H771 H 0.63241 0.69426 0.18356 0.0
H772 H 0.65365 0.6918 0.17564 0.0
H773 H 0.70276 0.67671 0.18416 0.0
H774 H 0.71155 0.65585 0.18548 0.0
H775 H 0.67473 0.64084 0.19351 0.0
H776 H 0.66607 0.66182 0.1924 0.0
H777 H 0.6859 0.71172 0.18192 0.0
H778 H 0.67438 0.678 0.16228 0.0
O779 O 0.68716 0.69412 0.19952 0.0
H780 H 0.68994 0.72174 0.16158 0.0
H781 H 0.67843 0.68801 0.14178 0.0
C782 C 0.66214 0.68743 0.19407 0.0
C783 C 0.6598 0.68553 0.20697 0.0
C784 C 0.64771 0.687 0.21154 0.0
C785 C 0.63764 0.69034 0.20327 0.0
C786 C 0.63997 0.69188 0.19023 0.0
C787 C 0.65211 0.6904 0.18567 0.0
C788 C 0.6838 0.67083 0.18827 0.0
C789 C 0.69656 0.6689 0.18608 0.0
C790 C 0.70156 0.65694 0.18677 0.0
C791 C 0.69387 0.64663 0.18965 0.0
C792 C 0.68097 0.64858 0.19146 0.0
C793 C 0.67597 0.66058 0.19076 0.0
C794 C 0.68008 0.69405 0.17361 0.0
C795 C 0.68424 0.70646 0.17322 0.0
C796 C 0.68658 0.71217 0.16158 0.0
C797 C 0.68466 0.70562 0.15008 0.0
C798 C 0.67999 0.69331 0.15048 0.0
C799 C 0.67773 0.68756 0.16217 0.0
P800 P 0.34546 0.66026 0.15417 0.0
H801 H 0.36768 0.65558 0.17001 0.0
H802 H 0.38313 0.66912 0.18093 0.0
H803 H 0.36232 0.70137 0.1682 0.0
H804 H 0.34664 0.68767 0.15763 0.0
H805 H 0.33255 0.63649 0.15028 0.0
H806 H 0.32366 0.62134 0.16487 0.0
H807 H 0.33074 0.64687 0.19619 0.0
H808 H 0.33983 0.66191 0.1815 0.0
H809 H 0.35111 0.67533 0.13223 0.0
H810 H 0.31778 0.66294 0.15108 0.0
O811 O 0.35443 0.651 0.14561 0.0
H812 H 0.33807 0.68488 0.11547 0.0
H813 H 0.3046 0.67231 0.13416 0.0
C814 C 0.35612 0.67061 0.16286 0.0
C815 C 0.36642 0.66557 0.16962 0.0
C816 C 0.37531 0.67335 0.17578 0.0
C817 C 0.37412 0.68638 0.17528 0.0
C818 C 0.36353 0.69139 0.1688 0.0
C819 C 0.35459 0.68356 0.16267 0.0
C820 C 0.33701 0.65024 0.16481 0.0
C821 C 0.33204 0.63889 0.16026 0.0
C822 C 0.3269 0.63024 0.16864 0.0
C823 C 0.32657 0.63281 0.18176 0.0
C824 C 0.33105 0.64448 0.18619 0.0
C825 C 0.33618 0.65314 0.17778 0.0
C826 C 0.33543 0.66839 0.14286 0.0
C827 C 0.34096 0.67474 0.13279 0.0
C828 C 0.33349 0.68011 0.12315 0.0
C829 C 0.32028 0.67922 0.12336 0.0
C830 C 0.31474 0.6732 0.13373 0.0
C831 C 0.32227 0.6678 0.14339 0.0
P832 P 0.35912 0.35194 0.16912 0.0
H833 H 0.34528 0.37316 0.15912 0.0
H834 H 0.33218 0.38883 0.16889 0.0
H835 H 0.33664 0.37014 0.20512 0.0
H836 H 0.34982 0.35449 0.19523 0.0
H837 H 0.38212 0.36048 0.18239 0.0
H838 H 0.39759 0.35008 0.19626 0.0
H839 H 0.37432 0.31681 0.19555 0.0
H840 H 0.3589 0.3273 0.1816 0.0
H841 H 0.33269 0.34941 0.15969 0.0
H842 H 0.36763 0.33004 0.15563 0.0
O843 O 0.36821 0.36028 0.15958 0.0
H844 H 0.32257 0.33583 0.14377 0.0
H845 H 0.35743 0.31599 0.14008 0.0
C846 C 0.34865 0.36275 0.17647 0.0
C847 C 0.34337 0.37239 0.16915 0.0
C848 C 0.33581 0.3813 0.17474 0.0
C849 C 0.33338 0.38079 0.18782 0.0
C850 C 0.33845 0.3709 0.19506 0.0
C851 C 0.34596 0.36192 0.18942 0.0
C852 C 0.36952 0.34457 0.1807 0.0
C853 C 0.3803 0.35098 0.18531 0.0
C854 C 0.38911 0.34504 0.19332 0.0
C855 C 0.38729 0.33255 0.19691 0.0
C856 C 0.37614 0.32635 0.19277 0.0
C857 C 0.36729 0.33235 0.18481 0.0
C858 C 0.35092 0.34068 0.159 0.0
C859 C 0.33815 0.34207 0.15559 0.0
C860 C 0.33233 0.33421 0.14647 0.0
C861 C 0.33915 0.32477 0.14055 0.0
C862 C 0.35189 0.32325 0.14425 0.0
C863 C 0.35771 0.33118 0.15328 0.0
P864 P 0.65044 0.36415 0.16519 0.0
H865 H 0.65395 0.39105 0.16361 0.0
H866 H 0.66536 0.40621 0.17702 0.0
H867 H 0.67832 0.37657 0.20171 0.0
H868 H 0.66676 0.36135 0.18816 0.0
H869 H 0.6433 0.35005 0.14262 0.0
H870 H 0.65517 0.33903 0.12672 0.0
H871 H 0.68993 0.34981 0.14639 0.0
H872 H 0.6779 0.36096 0.16229 0.0
H873 H 0.6302 0.36674 0.18292 0.0
H874 H 0.65246 0.33689 0.16842 0.0
O875 O 0.63942 0.3721 0.1571 0.0
H876 H 0.61684 0.35158 0.19361 0.0
H877 H 0.63892 0.32168 0.17866 0.0
C878 C 0.65937 0.37509 0.17499 0.0
C879 C 0.65919 0.38779 0.17193 0.0
C880 C 0.66567 0.39647 0.17966 0.0
C881 C 0.67261 0.39263 0.19053 0.0
C882 C 0.67304 0.37983 0.1934 0.0
C883 C 0.66643 0.37113 0.1857 0.0
C884 C 0.65971 0.35642 0.15354 0.0
C885 C 0.65348 0.35009 0.14348 0.0
C886 C 0.66028 0.3437 0.13446 0.0
C887 C 0.67351 0.34349 0.13531 0.0
C888 C 0.67976 0.34989 0.14542 0.0
C889 C 0.6729 0.35624 0.15452 0.0
C890 C 0.6422 0.35296 0.17473 0.0
C891 C 0.63228 0.35692 0.18214 0.0
C892 C 0.62458 0.34823 0.18815 0.0
C893 C 0.62665 0.33537 0.18683 0.0
C894 C 0.63706 0.33149 0.17994 0.0
C895 C 0.64478 0.34021 0.17398 0.0
P896 P 0.68335 0.33591 0.82569 0.0
H897 H 0.67191 0.33478 0.80038 0.0
H898 H 0.65073 0.32962 0.79221 0.0
H899 H 0.63853 0.32457 0.83073 0.0
H900 H 0.65975 0.33004 0.83884 0.0
H901 H 0.70652 0.34702 0.81645 0.0
H902 H 0.71196 0.36789 0.80923 0.0
H903 H 0.67503 0.38056 0.81902 0.0
H904 H 0.66955 0.35944 0.82588 0.0
H905 H 0.68397 0.31288 0.84009 0.0
H906 H 0.68907 0.35203 0.84803 0.0
O907 O 0.69257 0.32635 0.81774 0.0
H908 H 0.69018 0.30796 0.86206 0.0
H909 H 0.69501 0.34724 0.87014 0.0
C910 C 0.66743 0.33264 0.82018 0.0
C911 C 0.66466 0.3326 0.80707 0.0
C912 C 0.65255 0.32957 0.80241 0.0
C913 C 0.64294 0.32654 0.8108 0.0
C914 C 0.64569 0.32692 0.82401 0.0
C915 C 0.65785 0.32997 0.82866 0.0
C916 C 0.68756 0.35164 0.82146 0.0
C917 C 0.6996 0.35429 0.81706 0.0
C918 C 0.70273 0.36629 0.81303 0.0
C919 C 0.69392 0.37595 0.81347 0.0
C920 C 0.68197 0.37332 0.81832 0.0
C921 C 0.67884 0.36127 0.82231 0.0
C922 C 0.68615 0.33279 0.84239 0.0
C923 C 0.68624 0.32043 0.84664 0.0
C924 C 0.68973 0.31765 0.85924 0.0
C925 C 0.69319 0.32719 0.8679 0.0
C926 C 0.69262 0.33963 0.8637 0.0
C927 C 0.68913 0.3424 0.85105 0.0
P928 P 0.706 0.68833 0.83917 0.0
H929 H 0.72776 0.68047 0.8546 0.0
H930 H 0.7349 0.68516 0.87646 0.0
H931 H 0.70074 0.7056 0.88209 0.0
H932 H 0.69354 0.70056 0.86047 0.0
H933 H 0.71398 0.67913 0.81469 0.0
H934 H 0.72035 0.65867 0.80728 0.0
H935 H 0.71095 0.64278 0.84356 0.0
H936 H 0.70446 0.66338 0.85089 0.0
H937 H 0.6957 0.71279 0.83419 0.0
H938 H 0.68142 0.67515 0.83639 0.0
O939 O 0.71572 0.69793 0.83165 0.0
H940 H 0.67453 0.72028 0.82947 0.0
H941 H 0.65999 0.68264 0.83179 0.0
C942 C 0.71004 0.68999 0.85592 0.0
C943 C 0.72168 0.68571 0.86066 0.0
C944 C 0.72582 0.68853 0.87312 0.0
C945 C 0.71843 0.69582 0.88107 0.0
C946 C 0.70661 0.69981 0.87635 0.0
C947 C 0.70248 0.69696 0.86391 0.0
C948 C 0.709 0.67282 0.83343 0.0
C949 C 0.71321 0.67124 0.82104 0.0
C950 C 0.71692 0.65954 0.81683 0.0
C951 C 0.71638 0.64911 0.8249 0.0
C952 C 0.7115 0.65061 0.83711 0.0
C953 C 0.70783 0.66238 0.84134 0.0
C954 C 0.69017 0.69339 0.83543 0.0
C955 C 0.68798 0.70611 0.8336 0.0
C956 C 0.67582 0.71041 0.83102 0.0
C957 C 0.66551 0.70208 0.83028 0.0
C958 C 0.66773 0.68929 0.83217 0.0
C959 C 0.67996 0.68499 0.83482 0.0
P960 P 0.36946 0.66454 0.84798 0.0
H961 H 0.37716 0.64072 0.83809 0.0
H962 H 0.3665 0.62477 0.82506 0.0
H963 H 0.33345 0.64777 0.82202 0.0
H964 H 0.3442 0.66367 0.83533 0.0
H965 H 0.39379 0.6758 0.8547 0.0
H966 H 0.4096 0.6866 0.84241 0.0
H967 H 0.38512 0.68407 0.80884 0.0
H968 H 0.36937 0.67298 0.82125 0.0
H969 H 0.34786 0.65863 0.86326 0.0
H970 H 0.36847 0.69163 0.85264 0.0
O971 O 0.37778 0.65656 0.85888 0.0
H972 H 0.33567 0.67094 0.87797 0.0
H973 H 0.3565 0.70395 0.86748 0.0
C974 C 0.36137 0.65323 0.83791 0.0
C975 C 0.3676 0.64233 0.83463 0.0
C976 C 0.36153 0.63326 0.82706 0.0
C977 C 0.34908 0.63495 0.82249 0.0
C978 C 0.34296 0.64608 0.82554 0.0
C979 C 0.34909 0.65518 0.83313 0.0
C980 C 0.38051 0.67341 0.83885 0.0
C981 C 0.3918 0.67759 0.8447 0.0
C982 C 0.40081 0.68386 0.83766 0.0
C983 C 0.39868 0.68619 0.8246 0.0
C984 C 0.38716 0.68227 0.81883 0.0
C985 C 0.37812 0.67598 0.82592 0.0
C986 C 0.35896 0.67421 0.85672 0.0
C987 C 0.34959 0.66857 0.86391 0.0
C988 C 0.34272 0.67561 0.87243 0.0
C989 C 0.34516 0.68843 0.87401 0.0
C990 C 0.35427 0.69414 0.86643 0.0
C991 C 0.36115 0.68707 0.85792 0.0
P992 P 0.36059 0.36302 0.86981 0.0
H993 H 0.38114 0.36824 0.85293 0.0
H994 H 0.39532 0.35486 0.8414 0.0
H995 H 0.3739 0.32253 0.85284 0.0
H996 H 0.35986 0.33599 0.86448 0.0
H997 H 0.34533 0.38301 0.87894 0.0
H998 H 0.33292 0.39916 0.86842 0.0
H999 H 0.34317 0.38481 0.83176 0.0
H1000 H 0.35525 0.36834 0.84244 0.0
H1001 H 0.36597 0.35009 0.89369 0.0
H1002 H 0.33366 0.35619 0.86874 0.0
O1003 O 0.37107 0.37086 0.87898 0.0
H1004 H 0.35261 0.33939 0.90881 0.0
H1005 H 0.32013 0.34587 0.88399 0.0
C1006 C 0.36947 0.35313 0.8596 0.0
C1007 C 0.37938 0.35829 0.85278 0.0
C1008 C 0.38747 0.35061 0.84615 0.0
C1009 C 0.38582 0.33759 0.84625 0.0
C1010 C 0.37556 0.3325 0.85273 0.0
C1011 C 0.36746 0.34021 0.85932 0.0
C1012 C 0.35126 0.37453 0.86149 0.0
C1013 C 0.34487 0.38331 0.86863 0.0
C1014 C 0.33784 0.39261 0.86258 0.0
C1015 C 0.33713 0.39341 0.84922 0.0
C1016 C 0.34343 0.38444 0.84206 0.0
C1017 C 0.35043 0.37506 0.84816 0.0
C1018 C 0.35076 0.35418 0.88025 0.0
C1019 C 0.35598 0.34914 0.89148 0.0
C1020 C 0.34831 0.34309 0.90016 0.0
C1021 C 0.33524 0.34194 0.89774 0.0
C1022 C 0.33014 0.34655 0.88616 0.0
C1023 C 0.33786 0.35255 0.87747 0.0
Cu1024 Cu 0.25182 0.26124 0.01867 0.0
N1025 N 0.25213 0.27608 0.00944 0.0
N1026 N 0.25832 0.28974 0.99477 0.0
C1027 C 0.25925 0.27799 0.99925 0.0
C1028 C 0.25025 0.29543 1.00251 0.0
C1029 C 0.24646 0.28698 0.01156 0.0
O1030 O 0.25212 0.24778 0.00613 0.0
C1031 C 0.26433 0.26972 0.04022 0.0
O1032 O 0.25385 0.27607 0.04035 0.0
H1033 H 0.26534 0.27096 0.99551 0.0
H1034 H 0.24024 0.28875 0.01929 0.0
N1035 N 0.23711 0.25928 0.02786 0.0
N1036 N 0.22444 0.25238 0.04301 0.0
C1037 C 0.23594 0.25169 0.03795 0.0
C1038 C 0.22595 0.26497 0.02641 0.0
C1039 C 0.21812 0.26075 0.03574 0.0
C1040 C 0.24259 0.24766 0.99842 0.0
O1041 O 0.23395 0.25616 0.99978 0.0
H1042 H 0.24355 0.24602 0.04169 0.0
H1043 H 0.22367 0.27173 0.0191 0.0
O1044 O 0.26591 0.26211 0.03109 0.0
H1045 H 0.24734 0.30503 1.00177 0.0
H1046 H 0.2085 0.26358 0.03702 0.0
Cu1047 Cu 0.75676 0.26933 0.00694 0.0
N1048 N 0.74197 0.27157 0.01724 0.0
N1049 N 0.72936 0.27829 0.03235 0.0
C1050 C 0.74086 0.27927 0.02726 0.0
C1051 C 0.72306 0.26965 0.02517 0.0
C1052 C 0.73087 0.26553 0.01586 0.0
O1053 O 0.76584 0.26104 0.02199 0.0
C1054 C 0.75035 0.28752 0.98706 0.0
O1055 O 0.75966 0.29398 0.99242 0.0
H1056 H 0.74839 0.2853 0.03082 0.0
H1057 H 0.72864 0.25863 0.00861 0.0
N1058 N 0.7716 0.26718 0.9967 0.0
N1059 N 0.78449 0.26061 0.98179 0.0
C1060 C 0.77302 0.2593 0.98689 0.0
C1061 C 0.78245 0.27369 0.99789 0.0
C1062 C 0.79043 0.26966 0.98872 0.0
C1063 C 0.77245 0.26711 0.03024 0.0
O1064 O 0.77362 0.27925 0.02908 0.0
H1065 H 0.76572 0.25292 0.98344 0.0
H1066 H 0.78439 0.2809 0.0049 0.0
O1067 O 0.74739 0.27698 0.99169 0.0
H1068 H 0.71344 0.26661 0.02641 0.0
H1069 H 0.79992 0.27304 0.98738 0.0
Cu1070 Cu 0.74913 0.77974 0.01345 0.0
N1071 N 0.74796 0.79328 1.00234 0.0
N1072 N 0.75244 0.80549 0.98579 0.0
C1073 C 0.75461 0.79453 0.99171 0.0
C1074 C 0.74407 0.81137 0.99304 0.0
C1075 C 0.74133 0.80382 1.00324 0.0
O1076 O 0.75188 0.76519 1.00275 0.0
C1077 C 0.75963 0.79195 0.0342 0.0
O1078 O 0.74857 0.79723 0.03299 0.0
H1079 H 0.76121 0.78764 0.98862 0.0
H1080 H 0.73509 0.80595 0.01086 0.0
N1081 N 0.73427 0.77703 0.02226 0.0
N1082 N 0.72149 0.76954 0.037 0.0
C1083 C 0.73336 0.76999 0.03279 0.0
C1084 C 0.72259 0.78123 0.0197 0.0
C1085 C 0.71466 0.77658 0.02876 0.0
C1086 C 0.74243 0.76207 0.99561 0.0
O1087 O 0.73204 0.76849 0.99633 0.0
H1088 H 0.74125 0.76516 0.03717 0.0
H1089 H 0.71998 0.78716 0.01177 0.0
O1090 O 0.76241 0.78353 0.02622 0.0
H1091 H 0.74021 0.82048 0.99115 0.0
H1092 H 0.70469 0.77836 0.0293 0.0
Cu1093 Cu 0.26207 0.76017 1.00122 0.0
N1094 N 0.26169 0.77394 0.01209 0.0
N1095 N 0.25533 0.78604 0.02793 0.0
C1096 C 0.2542 0.77483 0.02214 0.0
C1097 C 0.2639 0.79245 0.02125 0.0
C1098 C 0.26785 0.78494 0.01151 0.0
O1099 O 0.26032 0.74577 0.01239 0.0
C1100 C 0.24992 0.77172 0.98122 0.0
O1101 O 0.25984 0.77896 0.98321 0.0
H1102 H 0.24776 0.76751 0.02489 0.0
H1103 H 0.27458 0.78739 0.0044 0.0
N1104 N 0.2773 0.75938 0.99279 0.0
N1105 N 0.29114 0.75409 0.97815 0.0
C1106 C 0.27892 0.75409 0.98133 0.0
C1107 C 0.28886 0.76297 0.997 0.0
C1108 C 0.29742 0.75971 0.988 0.0
C1109 C 0.26734 0.73625 0.01202 0.0
O1110 O 0.27476 0.73485 1.00239 0.0
H1111 H 0.27131 0.74983 0.97573 0.0
H1112 H 0.29095 0.76737 0.0061 0.0
O1113 O 0.24864 0.76218 0.9883 0.0
H1114 H 0.26707 0.80188 0.02324 0.0
H1115 H 0.30749 0.76128 0.98873 0.0
Cu1116 Cu 0.0052 0.24536 0.2793 0.0
N1117 N 0.01537 0.23125 0.27936 0.0
N1118 N 0.03114 0.21885 0.27401 0.0
C1119 C 0.02579 0.23013 0.27252 0.0
C1120 C 0.02376 0.21265 0.28216 0.0
C1121 C 0.01402 0.2203 0.28541 0.0
O1122 O 0.0167 0.25968 0.27959 0.0
C1123 C 0.98608 0.23475 0.26506 0.0
O1124 O 0.98701 0.22733 0.27497 0.0
H1125 H 0.02937 0.23752 0.2666 0.0
H1126 H 0.00639 0.21794 0.29156 0.0
N1127 N 0.99524 0.24638 0.29366 0.0
N1128 N 0.97997 0.25298 0.30614 0.0
C1129 C 0.98514 0.25375 0.29458 0.0
C1130 C 0.99652 0.2407 0.30503 0.0
C1131 C 0.98713 0.24476 0.31275 0.0
C1132 C 0.02362 0.26041 0.28971 0.0
O1133 O 0.02216 0.25194 0.29857 0.0
H1134 H 0.98188 0.2598 0.28697 0.0
H1135 H 1.00388 0.23423 0.30762 0.0
O1136 O 0.99359 0.24408 0.26457 0.0
H1137 H 0.02511 0.20316 0.28532 0.0
H1138 H 0.9857 0.24188 0.32246 0.0
Cu1139 Cu 0.74879 0.01511 0.25335 0.0
N1140 N 0.75004 0.02407 0.23822 0.0
N1141 N 0.7563 0.03898 0.22487 0.0
C1142 C 0.75623 0.03501 0.23706 0.0
C1143 C 0.74979 0.03017 0.21812 0.0
C1144 C 0.74594 0.021 0.22639 0.0
O1145 O 0.74895 0.02752 0.26693 0.0
C1146 C 0.77269 1.00401 0.24897 0.0
O1147 O 0.77588 0.01483 0.24416 0.0
H1148 H 0.76103 0.03967 0.24499 0.0
H1149 H 0.74073 0.01257 0.22393 0.0
N1150 N 0.73379 0.00589 0.25354 0.0
N1151 N 0.7205 0.99047 0.25855 0.0
C1152 C 0.73246 0.99484 0.25941 0.0
C1153 C 0.72231 0.00864 0.24869 0.0
C1154 C 0.71407 0.99911 0.25173 0.0
C1155 C 0.74211 0.02684 0.27666 0.0
O1156 O 0.73599 0.01643 0.27895 0.0
H1157 H 0.74017 0.99016 0.26428 0.0
H1158 H 0.72005 0.01705 0.24348 0.0
O1159 O 0.76215 1.00283 0.25429 0.0
H1160 H 0.74798 0.03028 0.20793 0.0
H1161 H 0.70409 0.99876 0.24938 0.0
Cu1162 Cu 0.00672 0.75957 0.26344 0.0
N1163 N 0.99917 0.7752 0.26365 0.0
N1164 N 0.98539 0.79009 0.25853 0.0
C1165 C 0.98798 0.77784 0.25798 0.0
C1166 C 0.99537 0.7954 0.26479 0.0
C1167 C 1.00384 0.78617 0.26798 0.0
O1168 O 0.99311 0.74718 0.26299 0.0
C1169 C 0.02806 0.76601 0.25086 0.0
O1170 O 0.02996 0.77167 0.26185 0.0
H1171 H 0.98209 0.77096 0.25306 0.0
H1172 H 0.01291 0.78742 0.27281 0.0
N1173 N 0.01659 0.75655 0.27817 0.0
N1174 N 0.03194 0.74844 0.29055 0.0
C1175 C 0.026 0.74828 0.27899 0.0
C1176 C 0.01647 0.76215 0.28962 0.0
C1177 C 0.02593 0.75717 0.29728 0.0
C1178 C 0.98548 0.74841 0.27203 0.0
O1179 O 0.98765 0.75737 0.28037 0.0
H1180 H 0.02868 0.74259 0.27104 0.0
H1181 H 0.01007 0.76944 0.29215 0.0
O1182 O 0.01795 0.75963 0.24903 0.0
H1183 H 0.99651 0.80524 0.26678 0.0
H1184 H 0.02819 0.75983 0.30703 0.0
Cu1185 Cu 0.23871 1.00059 0.27148 0.0
N1186 N 0.23868 0.01052 0.28611 0.0
N1187 N 0.24458 0.02598 0.29936 0.0
C1188 C 0.24541 0.02115 0.28756 0.0
C1189 C 0.23699 0.01806 0.3056 0.0
C1190 C 0.23332 0.00854 0.29738 0.0
O1191 O 0.23919 0.01218 0.25722 0.0
C1192 C 0.25149 0.98128 0.28224 0.0
O1193 O 0.24116 0.9816 0.28876 0.0
H1194 H 0.25122 0.02499 0.28021 0.0
H1195 H 0.22744 1.00059 0.29958 0.0
N1196 N 0.22419 0.99062 0.26943 0.0
N1197 N 0.21163 0.97524 0.26198 0.0
C1198 C 0.22321 0.98053 0.26184 0.0
C1199 C 0.21285 0.99176 0.27463 0.0
C1200 C 0.20505 0.9823 0.27 0.0
C1201 C 0.2294 0.01891 0.25617 0.0
O1202 O 0.22035 0.01708 0.2642 0.0
H1203 H 0.23082 0.97727 0.25614 0.0
H1204 H 0.21039 0.99899 0.28123 0.0
O1205 O 0.25288 0.98927 0.27341 0.0
H1206 H 0.23437 0.01901 0.31542 0.0
H1207 H 0.19534 0.9807 0.27242 0.0
Cu1208 Cu 0.99832 0.7574 0.76347 0.0
N1209 N 0.00757 0.74271 0.76252 0.0
N1210 N 0.02275 0.73003 0.75629 0.0
C1211 C 0.01751 0.74137 0.75506 0.0
C1212 C 0.01578 0.72399 0.76492 0.0
C1213 C 0.0064 0.73183 0.76873 0.0
O1214 O 0.01085 0.77088 0.7649 0.0
C1215 C 0.97949 0.74797 0.74815 0.0
O1216 O 0.98054 0.73966 0.75727 0.0
H1217 H 0.021 0.74876 0.74907 0.0
H1218 H 0.99925 0.72973 0.77553 0.0
N1219 N 0.98841 0.75809 0.77784 0.0
N1220 N 0.97333 0.76471 0.79049 0.0
C1221 C 0.97819 0.76528 0.77879 0.0
C1222 C 0.99008 0.75272 0.78933 0.0
C1223 C 0.98079 0.75681 0.79717 0.0
C1224 C 0.01887 0.7692 0.77402 0.0
O1225 O 0.01749 0.75938 0.7813 0.0
H1226 H 0.97469 0.77117 0.77115 0.0
H1227 H 0.99766 0.74652 0.79193 0.0
O1228 O 0.98673 0.75753 0.74866 0.0
H1229 H 0.01727 0.71455 0.76819 0.0
H1230 H 0.9797 0.75425 0.80703 0.0
Cu1231 Cu 0.2742 0.00631 0.7731 0.0
N1232 N 0.28827 0.01698 0.77375 0.0
N1233 N 0.30037 0.0332 0.76824 0.0
C1234 C 0.28928 0.0271 0.7663 0.0
C1235 C 0.3066 0.02657 0.77731 0.0
C1236 C 0.29911 0.01658 0.78071 0.0
O1237 O 0.25975 0.01733 0.77374 0.0
C1238 C 0.28556 0.98963 0.758 0.0
O1239 O 0.29356 0.99095 0.76771 0.0
H1240 H 0.28207 0.02973 0.75935 0.0
H1241 H 0.30148 0.00947 0.78761 0.0
N1242 N 0.27336 0.99523 0.78682 0.0
N1243 N 0.26637 0.97896 0.79797 0.0
C1244 C 0.26597 0.98496 0.78669 0.0
C1245 C 0.27871 0.99575 0.7986 0.0
C1246 C 0.27437 0.98573 0.80552 0.0
C1247 C 0.25946 0.0234 0.78418 0.0
O1248 O 0.26823 0.02126 0.79296 0.0
H1249 H 0.26008 0.9822 0.77856 0.0
H1250 H 0.28505 1.00304 0.80204 0.0
O1251 O 0.27546 0.99594 0.75793 0.0
H1252 H 0.31589 0.02877 0.78124 0.0
H1253 H 0.27687 0.98364 0.81535 0.0
Cu1254 Cu 0.0221 0.26171 0.76211 0.0
N1255 N 0.01285 0.26396 0.74684 0.0
N1256 N 0.99797 0.27113 0.73328 0.0
C1257 C 1.00117 0.26865 0.74555 0.0
C1258 C 0.00799 0.26771 0.72657 0.0
C1259 C 0.01714 0.2633 0.73496 0.0
O1260 O 0.01052 0.25832 0.7757 0.0
C1261 C 0.03216 0.28632 0.75941 0.0
O1262 O 0.02116 0.28897 0.75409 0.0
H1263 H 0.99546 0.27097 0.75351 0.0
H1264 H 0.02651 0.26041 0.73263 0.0
N1265 N 0.03241 0.24784 0.76113 0.0
N1266 N 0.04819 0.23497 0.76612 0.0
C1267 C 0.04223 0.24555 0.76914 0.0
C1268 C 0.03206 0.23838 0.75272 0.0
C1269 C 0.04183 0.23043 0.75575 0.0
C1270 C 1.00236 0.26566 0.78001 0.0
O1271 O 1.00223 0.27732 0.77626 0.0
H1272 H 0.04507 0.25171 0.7769 0.0
H1273 H 0.02523 0.23736 0.74493 0.0
O1274 O 0.03371 0.27574 0.76463 0.0
H1275 H 0.00884 0.2687 0.71639 0.0
H1276 H 0.04399 0.22193 0.75078 0.0
Cu1277 Cu 0.75301 0.01981 0.76241 0.0
N1278 N 0.75481 0.03042 0.77651 0.0
N1279 N 0.76253 0.04626 0.78835 0.0
C1280 C 0.76247 0.04049 0.77692 0.0
C1281 C 0.75454 0.0395 0.79542 0.0
C1282 C 0.74979 0.02973 0.78808 0.0
O1283 O 0.75231 0.03069 0.74753 0.0
C1284 C 0.76581 1.00044 0.77283 0.0
O1285 O 0.75643 1.00192 0.78053 0.0
H1286 H 0.76817 0.04328 0.76904 0.0
H1287 H 0.74331 0.02255 0.79106 0.0
N1288 N 0.73813 0.01022 0.76217 0.0
N1289 N 0.72474 0.99484 0.75638 0.0
C1290 C 0.73626 0.99997 0.75493 0.0
C1291 C 0.72742 0.01165 0.76849 0.0
C1292 C 0.71912 1.00219 0.76489 0.0
C1293 C 0.74257 0.03752 0.74712 0.0
O1294 O 0.73443 0.03635 0.7562 0.0
H1295 H 0.7432 0.99651 0.74854 0.0
H1296 H 0.7257 0.01909 0.77513 0.0
O1297 O 0.76674 0.0079 0.76345 0.0
H1298 H 0.75228 0.04143 0.80518 0.0
H1299 H 0.70972 1.0008 0.76835 0.0
Cu1300 Cu 0.26361 0.7494 0.50986 0.0
N1301 N 0.27865 0.75175 0.51937 0.0
N1302 N 0.29189 0.7592 0.5346 0.0
C1303 C 0.2799 0.75883 0.52994 0.0
C1304 C 0.29844 0.75209 0.5266 0.0
C1305 C 0.29024 0.74748 0.51723 0.0
O1306 O 0.25006 0.74848 0.52198 0.0
C1307 C 0.27061 0.7622 0.4887 0.0
O1308 O 0.27846 0.75285 0.48889 0.0
H1309 H 0.27218 0.76381 0.53396 0.0
H1310 H 0.29257 0.74151 0.50937 0.0
N1311 N 0.26331 0.73445 0.50064 0.0
N1312 N 0.25828 0.72085 0.48509 0.0
C1313 C 0.25685 0.73252 0.48956 0.0
C1314 C 0.26902 0.7236 0.50332 0.0
C1315 C 0.2659 0.71518 0.49375 0.0
C1316 C 0.25199 0.74065 0.53093 0.0
O1317 O 0.26236 0.73413 0.53096 0.0
H1318 H 0.25112 0.73956 0.48494 0.0
H1319 H 0.27505 0.72195 0.51161 0.0
O1320 O 0.26263 0.76293 0.49748 0.0
H1321 H 0.30842 0.75028 0.52749 0.0
H1322 H 0.26916 0.7057 0.49312 0.0
Cu1323 Cu 0.75917 0.77674 0.49521 0.0
N1324 N 0.77397 0.77599 0.48609 0.0
N1325 N 0.78732 0.7693 0.4716 0.0
C1326 C 0.77541 0.76886 0.4757 0.0
C1327 C 0.79362 0.77705 0.47976 0.0
C1328 C 0.78535 0.78117 0.48868 0.0
O1329 O 0.74521 0.77687 0.48268 0.0
C1330 C 0.76784 0.76444 0.51627 0.0
O1331 O 0.77497 0.77451 0.51623 0.0
H1332 H 0.76794 0.76309 0.47153 0.0
H1333 H 0.78757 0.78727 0.49666 0.0
N1334 N 0.75807 0.79128 0.50496 0.0
N1335 N 0.75179 0.80376 0.52055 0.0
C1336 C 0.75066 0.79242 0.51504 0.0
C1337 C 0.76412 0.8023 0.50398 0.0
C1338 C 0.76023 0.81004 0.51357 0.0
C1339 C 0.74572 0.78609 0.47506 0.0
O1340 O 0.75518 0.79401 0.47647 0.0
H1341 H 0.74448 0.78504 0.51818 0.0
H1342 H 0.77089 0.80454 0.49685 0.0
O1343 O 0.75959 0.76292 0.5073 0.0
H1344 H 0.80351 0.77949 0.47938 0.0
H1345 H 0.76352 0.81947 0.51536 0.0
Cu1346 Cu 0.76852 0.25535 0.51729 0.0
N1347 N 0.76834 0.24085 0.50733 0.0
N1348 N 0.76259 0.22791 0.49142 0.0
C1349 C 0.76086 0.23912 0.49688 0.0
C1350 C 0.77154 0.22236 0.49876 0.0
C1351 C 0.77505 0.23035 0.50859 0.0
O1352 O 0.76952 0.26927 0.50542 0.0
C1353 C 0.75361 0.24492 0.53494 0.0
O1354 O 0.76277 0.23689 0.53403 0.0
H1355 H 0.75442 0.2461 0.49327 0.0
H1356 H 0.7819 0.22856 0.51616 0.0
N1357 N 0.7825 0.25668 0.52853 0.0
N1358 N 0.79436 0.26398 0.54494 0.0
C1359 C 0.78297 0.26411 0.53887 0.0
C1360 C 0.79399 0.25163 0.528 0.0
C1361 C 0.80133 0.25611 0.53811 0.0
C1362 C 0.77899 0.26863 0.49829 0.0
O1363 O 0.78661 0.25917 0.49982 0.0
H1364 H 0.77519 0.26982 0.54159 0.0
H1365 H 0.79695 0.24538 0.52063 0.0
O1366 O 0.75383 0.25461 0.52794 0.0
H1367 H 0.77517 0.21312 0.49727 0.0
H1368 H 0.81106 0.2538 0.5402 0.0
Cu1369 Cu 0.26188 0.26821 0.51714 0.0
N1370 N 0.26025 0.28313 0.52613 0.0
N1371 N 0.25368 0.29618 0.54107 0.0
C1372 C 0.25303 0.2845 0.53632 0.0
C1373 C 0.26159 0.30244 0.53348 0.0
C1374 C 0.26565 0.29435 0.52428 0.0
O1375 O 0.26272 0.25479 0.52966 0.0
C1376 C 0.24911 0.27546 0.49561 0.0
O1377 O 0.25864 0.28336 0.49629 0.0
H1378 H 0.24735 0.27702 0.54009 0.0
H1379 H 0.27212 0.29648 0.51683 0.0
N1380 N 0.27675 0.2675 0.50814 0.0
N1381 N 0.28992 0.26103 0.49339 0.0
C1382 C 0.27816 0.26028 0.49782 0.0
C1383 C 0.28802 0.27304 0.51039 0.0
C1384 C 0.29619 0.26903 0.5013 0.0
C1385 C 0.27073 0.25682 0.53875 0.0
O1386 O 0.27726 0.26728 0.53876 0.0
H1387 H 0.27073 0.25433 0.49387 0.0
H1388 H 0.29019 0.27939 0.51817 0.0
O1389 O 0.2481 0.26736 0.5044 0.0
H1390 H 0.26441 0.3121 0.53461 0.0
H1391 H 0.30597 0.2718 0.50059 0.0
Cu1392 Cu 0.75984 0.51753 0.75259 0.0
N1393 N 0.76121 0.52604 0.73715 0.0
N1394 N 0.76669 0.54046 0.72293 0.0
C1395 C 0.76535 0.53781 0.73539 0.0
C1396 C 0.76312 0.52997 0.71662 0.0
C1397 C 0.75974 0.52112 0.72541 0.0
O1398 O 0.75755 0.52942 0.76632 0.0
C1399 C 0.78409 0.507 0.74882 0.0
O1400 O 0.78654 0.51727 0.74253 0.0
H1401 H 0.76795 0.5441 0.74308 0.0
H1402 H 0.75686 0.5116 0.72343 0.0
N1403 N 0.74562 0.50722 0.75198 0.0
N1404 N 0.73312 0.491 0.75646 0.0
C1405 C 0.74419 0.49692 0.75908 0.0
C1406 C 0.7351 0.50795 0.74459 0.0
C1407 C 0.72736 0.49796 0.74733 0.0
C1408 C 0.76543 0.53773 0.77011 0.0
O1409 O 0.77676 0.53795 0.76547 0.0
H1410 H 0.75118 0.49392 0.76609 0.0
H1411 H 0.73327 0.51515 0.7376 0.0
O1412 O 0.77388 0.50612 0.7548 0.0
H1413 H 0.76319 0.52869 0.70641 0.0
H1414 H 0.71832 0.49587 0.74275 0.0
Cu1415 Cu 0.26063 0.51767 0.76417 0.0
N1416 N 0.26208 0.50977 0.77993 0.0
N1417 N 0.26833 0.49576 0.79446 0.0
C1418 C 0.26723 0.49852 0.78195 0.0
C1419 C 0.2636 0.50567 0.80054 0.0
C1420 C 0.25974 0.5143 0.79154 0.0
O1421 O 0.25993 0.50452 0.75144 0.0
C1422 C 0.28516 0.52828 0.76824 0.0
O1423 O 0.28793 0.51759 0.77362 0.0
H1424 H 0.27072 0.49279 0.77438 0.0
H1425 H 0.25588 0.52339 0.79333 0.0
N1426 N 0.24586 0.52685 0.76284 0.0
N1427 N 0.23265 0.5417 0.75615 0.0
C1428 C 0.2446 0.53755 0.75629 0.0
C1429 C 0.23436 0.52412 0.7671 0.0
C1430 C 0.22618 0.5333 0.76302 0.0
C1431 C 0.25398 0.50539 0.74079 0.0
O1432 O 0.24959 0.51625 0.73717 0.0
H1433 H 0.25232 0.54207 0.7516 0.0
H1434 H 0.23204 0.5159 0.77252 0.0
O1435 O 0.27441 0.5296 0.76275 0.0
H1436 H 0.26315 0.50673 0.81076 0.0
H1437 H 0.21619 0.53353 0.76464 0.0
Cu1438 Cu 0.26818 0.5008 0.26769 0.0
N1439 N 0.26789 0.49132 0.28267 0.0
N1440 N 0.26192 0.47609 0.29577 0.0
C1441 C 0.26085 0.48092 0.28394 0.0
C1442 C 0.26999 0.48378 0.30222 0.0
C1443 C 0.2737 0.49315 0.29411 0.0
O1444 O 0.27051 0.48885 0.25392 0.0
C1445 C 0.25181 0.51753 0.27688 0.0
O1446 O 0.26051 0.51682 0.28599 0.0
H1447 H 0.2548 0.47717 0.27635 0.0
H1448 H 0.28 0.50085 0.29646 0.0
N1449 N 0.28146 0.51238 0.26727 0.0
N1450 N 0.2923 0.52898 0.26047 0.0
C1451 C 0.28148 0.52227 0.25941 0.0
C1452 C 0.29266 0.5128 0.27361 0.0
C1453 C 0.29935 0.52305 0.26946 0.0
C1454 C 0.28048 0.48246 0.25557 0.0
O1455 O 0.28771 0.48481 0.26568 0.0
H1456 H 0.27363 0.52444 0.25303 0.0
H1457 H 0.29585 0.50602 0.28055 0.0
O1458 O 0.25289 0.51076 0.267 0.0
H1459 H 0.27303 0.48271 0.31208 0.0
H1460 H 0.30881 0.5257 0.27258 0.0
Cu1461 Cu 0.76469 0.50932 0.2519 0.0
N1462 N 0.77924 0.49966 0.25325 0.0
N1463 N 0.79184 0.48447 0.26036 0.0
C1464 C 0.78057 0.49 0.2613 0.0
C1465 C 0.7979 0.49101 0.25139 0.0
C1466 C 0.79007 0.50036 0.24698 0.0
O1467 O 0.75042 0.49766 0.25185 0.0
C1468 C 0.77549 0.52869 0.26488 0.0
O1469 O 0.78294 0.52708 0.25529 0.0
H1470 H 0.77338 0.48715 0.26779 0.0
H1471 H 0.79213 0.50715 0.23973 0.0
N1472 N 0.76339 0.51841 0.23678 0.0
N1473 N 0.75666 0.53334 0.22347 0.0
C1474 C 0.75654 0.5288 0.23544 0.0
C1475 C 0.76806 0.51621 0.22526 0.0
C1476 C 0.76396 0.52545 0.21702 0.0
C1477 C 0.75156 0.48857 0.24415 0.0
O1478 O 0.76157 0.48817 0.23716 0.0
H1479 H 0.75159 0.53295 0.2432 0.0
H1480 H 0.77384 0.50837 0.22295 0.0
O1481 O 0.76588 0.52154 0.26569 0.0
H1482 H 0.80722 0.48908 0.2481 0.0
H1483 H 0.76596 0.52611 0.20701 0.0
Cu1484 Cu 0.50919 0.25646 0.76734 0.0
N1485 N 0.50075 0.25895 0.78249 0.0
N1486 N 0.48644 0.26615 0.79574 0.0
C1487 C 0.48995 0.26524 0.78352 0.0
C1488 C 0.49537 0.26005 0.80262 0.0
C1489 C 0.5042 0.25565 0.79442 0.0
O1490 O 0.49653 0.25302 0.7539 0.0
C1491 C 0.52107 0.28032 0.77105 0.0
O1492 O 0.51224 0.28237 0.77922 0.0
H1493 H 0.48488 0.26921 0.77544 0.0
H1494 H 0.51267 0.25065 0.79701 0.0
N1495 N 0.51986 0.24277 0.76838 0.0
N1496 N 0.5361 0.23068 0.76377 0.0
C1497 C 0.5304 0.2417 0.76172 0.0
C1498 C 0.51882 0.23208 0.77494 0.0
C1499 C 0.52882 0.22457 0.77208 0.0
C1500 C 0.48892 0.24414 0.75634 0.0
O1501 O 0.49023 0.23839 0.76732 0.0
H1502 H 0.53363 0.24877 0.75522 0.0
H1503 H 0.51127 0.22984 0.78125 0.0
O1504 O 0.52043 0.27054 0.76417 0.0
H1505 H 0.49575 0.25919 0.81288 0.0
H1506 H 0.5306 0.21537 0.77586 0.0
Cu1507 Cu 0.52119 0.76848 0.76835 0.0
N1508 N 0.53185 0.76666 0.78282 0.0
N1509 N 0.54805 0.7599 0.79501 0.0
C1510 C 0.54175 0.75895 0.78366 0.0
C1511 C 0.54177 0.76855 0.80157 0.0
C1512 C 0.53179 0.77268 0.79404 0.0
O1513 O 0.53192 0.76957 0.75362 0.0
C1514 C 0.50238 0.75477 0.77839 0.0
O1515 O 0.50452 0.76357 0.7869 0.0
H1516 H 0.54448 0.75304 0.77589 0.0
H1517 H 0.52503 0.77964 0.79655 0.0
N1518 N 0.51182 0.78312 0.76856 0.0
N1519 N 0.49636 0.79633 0.76332 0.0
C1520 C 0.50062 0.78457 0.76241 0.0
C1521 C 0.51481 0.79435 0.77356 0.0
C1522 C 0.50528 0.80252 0.77034 0.0
C1523 C 0.54128 0.77704 0.75515 0.0
O1524 O 0.54271 0.78307 0.76599 0.0
H1525 H 0.49594 0.77721 0.75697 0.0
H1526 H 0.52341 0.79652 0.77891 0.0
O1527 O 0.50899 0.75476 0.76847 0.0
H1528 H 0.54416 0.77167 0.81115 0.0
H1529 H 0.50502 0.81227 0.77291 0.0
Cu1530 Cu 0.49369 0.74709 0.26626 0.0
N1531 N 0.48402 0.74751 0.28084 0.0
N1532 N 0.46908 0.75377 0.29389 0.0
C1533 C 0.4742 0.75512 0.28235 0.0
C1534 C 0.47601 0.74493 0.29986 0.0
C1535 C 0.48521 0.74109 0.29179 0.0
O1536 O 0.48177 0.74574 0.25181 0.0
C1537 C 0.51142 0.76293 0.27662 0.0
O1538 O 0.51022 0.75455 0.28561 0.0
H1539 H 0.4711 0.76172 0.27518 0.0
H1540 H 0.49236 0.73425 0.29386 0.0
N1541 N 0.50448 0.73344 0.26586 0.0
N1542 N 0.52091 0.72203 0.26021 0.0
C1543 C 0.51512 0.73314 0.25925 0.0
C1544 C 0.50345 0.72212 0.27123 0.0
C1545 C 0.51358 0.71508 0.26779 0.0
C1546 C 0.47477 0.73603 0.25208 0.0
O1547 O 0.47645 0.72818 0.26154 0.0
H1548 H 0.51852 0.741 0.25388 0.0
H1549 H 0.49578 0.71909 0.27703 0.0
O1550 O 0.50457 0.76183 0.26649 0.0
H1551 H 0.47455 0.74144 0.30936 0.0
H1552 H 0.5152 0.70548 0.27042 0.0
Cu1553 Cu 0.50617 0.24357 0.2575 0.0
N1554 N 0.49592 0.22926 0.25812 0.0
N1555 N 0.48039 0.21671 0.26454 0.0
C1556 C 0.48612 0.22796 0.26583 0.0
C1557 C 0.48687 0.21071 0.25559 0.0
C1558 C 0.49645 0.21846 0.25166 0.0
O1559 O 0.49472 0.25768 0.25624 0.0
C1560 C 0.52395 0.23312 0.27354 0.0
O1561 O 0.52116 0.22387 0.26573 0.0
H1562 H 0.48323 0.23524 0.27219 0.0
H1563 H 0.50343 0.21626 0.24478 0.0
N1564 N 0.5162 0.24426 0.24323 0.0
N1565 N 0.53146 0.25143 0.23092 0.0
C1566 C 0.52616 0.25202 0.2424 0.0
C1567 C 0.5151 0.2385 0.23186 0.0
C1568 C 0.52456 0.24286 0.22426 0.0
C1569 C 0.487 0.25683 0.24671 0.0
O1570 O 0.48776 0.2471 0.2392 0.0
H1571 H 0.52937 0.25807 0.25011 0.0
H1572 H 0.50774 0.2319 0.22913 0.0
O1573 O 0.51806 0.24334 0.27212 0.0
H1574 H 0.48505 0.20128 0.25231 0.0
H1575 H 0.52595 0.24026 0.21446 0.0
H1576 H 0.18757 0.18241 0.13531 0.0
H1577 H 0.19316 0.19206 0.11509 0.0
H1578 H 0.20254 0.22635 0.13475 0.0
H1579 H 0.19731 0.21672 0.15499 0.0
H1580 H 0.18345 0.21374 0.10293 0.0
H1581 H 0.23447 0.21856 0.11514 0.0
H1582 H 0.22406 0.20866 0.12399 0.0
H1583 H 0.22437 0.2252 0.12666 0.0
C1584 C 0.1909 0.19198 0.13534 0.0
C1585 C 0.19203 0.19877 0.14679 0.0
C1586 C 0.19401 0.1975 0.12377 0.0
C1587 C 0.19842 0.20986 0.12345 0.0
C1588 C 0.19933 0.21674 0.13481 0.0
H1589 H 0.20613 0.25952 0.05886 0.0
H1590 H 0.19932 0.24875 0.07799 0.0
C1591 C 0.1962 0.21125 0.14636 0.0
C1592 C 0.20214 0.21559 0.11126 0.0
H1593 H 0.2271 0.22873 0.09635 0.0
C1594 C 0.193 0.21699 0.10145 0.0
C1595 C 0.21464 0.21966 0.10931 0.0
C1596 C 0.225 0.21786 0.11928 0.0
C1597 C 0.19597 0.2226 0.08982 0.0
C1598 C 0.20837 0.22705 0.08804 0.0
C1599 C 0.21756 0.22541 0.09777 0.0
C1600 C 0.21209 0.23336 0.07614 0.0
C1601 C 0.18585 0.22356 0.07949 0.0
C1602 C 0.22164 0.22839 0.06883 0.0
C1603 C 0.22557 0.23453 0.0579 0.0
C1604 C 0.22007 0.24584 0.05406 0.0
C1605 C 0.21044 0.25076 0.06139 0.0
C1606 C 0.20652 0.2446 0.07234 0.0
H1607 H 0.17793 0.21695 0.08106 0.0
H1608 H 0.18203 0.23313 0.07944 0.0
H1609 H 0.18971 0.22172 0.06998 0.0
H1610 H 0.22608 0.21973 0.0716 0.0
H1611 H 0.23287 0.23037 0.05243 0.0
H1612 H 0.83689 0.19609 0.10397 0.0
H1613 H 0.82626 0.20907 0.088 0.0
H1614 H 0.80773 0.22888 0.11765 0.0
H1615 H 0.81844 0.21596 0.13376 0.0
H1616 H 0.79151 0.22178 0.09749 0.0
H1617 H 0.83407 0.24548 0.07968 0.0
H1618 H 0.83508 0.22881 0.07956 0.0
H1619 H 0.83415 0.23695 0.09447 0.0
C1620 C 0.8307 0.20332 0.10714 0.0
C1621 C 0.82862 0.20505 0.12018 0.0
C1622 C 0.82462 0.21073 0.09798 0.0
C1623 C 0.81637 0.22009 0.10164 0.0
C1624 C 0.81411 0.22175 0.11462 0.0
H1625 H 0.78716 0.27715 0.04964 0.0
H1626 H 0.79737 0.2662 0.06751 0.0
C1627 C 0.8202 0.21432 0.12381 0.0
C1628 C 0.80988 0.22789 0.09186 0.0
H1629 H 0.81518 0.24758 0.06703 0.0
C1630 C 0.79667 0.2275 0.09089 0.0
C1631 C 0.81661 0.23549 0.08336 0.0
C1632 C 0.83076 0.23683 0.08437 0.0
C1633 C 0.79005 0.23418 0.0814 0.0
C1634 C 0.79682 0.2413 0.07252 0.0
C1635 C 0.81 0.24201 0.07375 0.0
C1636 C 0.79043 0.24795 0.06179 0.0
C1637 C 0.77585 0.23361 0.08101 0.0
C1638 C 0.78326 0.24131 0.05255 0.0
C1639 C 0.77741 0.24754 0.04233 0.0
C1640 C 0.77868 0.26053 0.04109 0.0
C1641 C 0.78596 0.26714 0.05031 0.0
C1642 C 0.79181 0.2609 0.06054 0.0
H1643 H 0.77212 0.23077 0.09034 0.0
H1644 H 0.77181 0.24276 0.0783 0.0
H1645 H 0.77259 0.22663 0.0738 0.0
H1646 H 0.7823 0.23129 0.05317 0.0
H1647 H 0.77194 0.24213 0.03538 0.0
H1648 H 0.81487 0.83087 0.13746 0.0
H1649 H 0.80453 0.81939 0.11978 0.0
H1650 H 0.82606 0.84056 0.09303 0.0
H1651 H 0.8362 0.85219 0.11061 0.0
H1652 H 0.80216 0.84016 0.08595 0.0
H1653 H 0.81617 0.79186 0.0972 0.0
H1654 H 0.80857 0.79918 0.11019 0.0
H1655 H 0.82344 0.80521 0.10503 0.0
C1656 C 0.8175 0.83295 0.12781 0.0
C1657 C 0.8263 0.84249 0.12543 0.0
C1658 C 0.81164 0.82633 0.11771 0.0
C1659 C 0.81464 0.82895 0.10504 0.0
C1660 C 0.82359 0.83833 0.10269 0.0
H1661 H 0.785 0.78705 0.03776 0.0
H1662 H 0.79932 0.79555 0.05461 0.0
C1663 C 0.82933 0.84502 0.11276 0.0
C1664 C 0.8078 0.82265 0.09417 0.0
H1665 H 0.79918 0.7942 0.08179 0.0
C1666 C 0.80164 0.83011 0.085 0.0
C1667 C 0.80725 0.80952 0.09275 0.0
C1668 C 0.81432 0.80098 0.10174 0.0
C1669 C 0.79463 0.82486 0.07476 0.0
C1670 C 0.79345 0.81175 0.07377 0.0
C1671 C 0.79997 0.80424 0.08263 0.0
C1672 C 0.78488 0.80582 0.06401 0.0
C1673 C 0.78852 0.83344 0.06509 0.0
C1674 C 0.772 0.80847 0.06393 0.0
C1675 C 0.7639 0.80373 0.05437 0.0
C1676 C 0.76842 0.79608 0.04468 0.0
C1677 C 0.78125 0.79296 0.04505 0.0
C1678 C 0.78942 0.7978 0.05466 0.0
H1679 H 0.79337 0.84266 0.06493 0.0
H1680 H 0.78855 0.82936 0.05538 0.0
H1681 H 0.77861 0.83499 0.06763 0.0
H1682 H 0.76822 0.81437 0.07121 0.0
H1683 H 0.75405 0.80619 0.05454 0.0
H1684 H 0.18744 0.80849 0.12572 0.0
H1685 H 0.20232 0.80053 0.11033 0.0
H1686 H 0.19831 0.83414 0.08828 0.0
H1687 H 0.18351 0.84215 0.10357 0.0
H1688 H 0.1965 0.79802 0.08219 0.0
H1689 H 0.23748 0.82896 0.09424 0.0
H1690 H 0.22518 0.82575 0.1053 0.0
H1691 H 0.22245 0.83638 0.09238 0.0
C1692 C 0.18984 0.81422 0.11766 0.0
C1693 C 0.18428 0.82593 0.11584 0.0
C1694 C 0.19829 0.80965 0.10886 0.0
C1695 C 0.20148 0.8168 0.09824 0.0
C1696 C 0.19607 0.82854 0.09648 0.0
H1697 H 0.24807 0.80967 0.03267 0.0
H1698 H 0.2352 0.81672 0.05013 0.0
C1699 C 0.18754 0.83305 0.10517 0.0
C1700 C 0.21006 0.81184 0.08864 0.0
H1701 H 0.23875 0.81663 0.07563 0.0
C1702 C 0.20579 0.80199 0.0808 0.0
C1703 C 0.22209 0.81714 0.08681 0.0
C1704 C 0.22717 0.82759 0.09516 0.0
C1705 C 0.21311 0.7975 0.07092 0.0
C1706 C 0.22521 0.80279 0.06907 0.0
C1707 C 0.22951 0.81256 0.07704 0.0
C1708 C 0.2334 0.79851 0.05874 0.0
C1709 C 0.2076 0.78748 0.06226 0.0
C1710 C 0.23694 0.78598 0.05789 0.0
C1711 C 0.24421 0.78193 0.04786 0.0
C1712 C 0.2483 0.79035 0.03857 0.0
C1713 C 0.24513 0.80297 0.03969 0.0
C1714 C 0.23774 0.807 0.04966 0.0
H1715 H 0.19717 0.78704 0.06263 0.0
H1716 H 0.21022 0.78904 0.05224 0.0
H1717 H 0.21126 0.77831 0.06536 0.0
H1718 H 0.23406 0.77932 0.06498 0.0
H1719 H 0.24671 0.7722 0.0474 0.0
H1720 H 0.17491 0.79378 0.8826 0.0
H1721 H 0.18294 0.78522 0.90284 0.0
H1722 H 0.20933 0.81589 0.90666 0.0
H1723 H 0.20156 0.82439 0.88642 0.0
H1724 H 0.20771 0.77788 0.90872 0.0
H1725 H 0.19317 0.81503 0.9415 0.0
H1726 H 0.18656 0.81336 0.92553 0.0
H1727 H 0.20159 0.82096 0.92823 0.0
C1728 C 0.18241 0.79873 0.88776 0.0
C1729 C 0.18755 0.80983 0.88286 0.0
C1730 C 0.18694 0.79385 0.89935 0.0
C1731 C 0.19661 0.80001 0.90636 0.0
C1732 C 0.20166 0.81113 0.90158 0.0
H1733 H 0.25021 0.79221 0.96614 0.0
H1734 H 0.23569 0.79766 0.94876 0.0
C1735 C 0.19717 0.816 0.88999 0.0
C1736 C 0.202 0.79452 0.91829 0.0
H1737 H 0.20945 0.80147 0.94936 0.0
C1738 C 0.2079 0.78291 0.91768 0.0
C1739 C 0.20217 0.80107 0.92998 0.0
C1740 C 0.19542 0.81324 0.93142 0.0
C1741 C 0.21465 0.77805 0.92825 0.0
C1742 C 0.21535 0.78491 0.93976 0.0
C1743 C 0.20893 0.79623 0.94052 0.0
C1744 C 0.22385 0.7813 0.9506 0.0
C1745 C 0.22156 0.76597 0.92682 0.0
C1746 C 0.22198 0.77027 0.95754 0.0
C1747 C 0.23035 0.76707 0.96759 0.0
C1748 C 0.2407 0.77486 0.97084 0.0
C1749 C 0.24239 0.78594 0.96392 0.0
C1750 C 0.23406 0.78911 0.95397 0.0
H1751 H 0.22161 0.76278 0.91676 0.0
H1752 H 0.23145 0.76699 0.93045 0.0
H1753 H 0.21694 0.75864 0.93253 0.0
H1754 H 0.21405 0.76418 0.9552 0.0
H1755 H 0.22877 0.7585 0.97276 0.0
H1756 H 0.20075 0.19945 0.89726 0.0
H1757 H 0.20743 0.20684 0.91846 0.0
H1758 H 0.2434 0.18935 0.91456 0.0
H1759 H 0.23675 0.1818 0.89337 0.0
H1760 H 0.216 0.19364 0.94045 0.0
H1761 H 0.2529 0.22585 0.92272 0.0
H1762 H 0.24084 0.21903 0.91232 0.0
H1763 H 0.25393 0.20986 0.91784 0.0
C1764 C 0.21002 0.197 0.90096 0.0
C1765 C 0.21823 0.19008 0.89353 0.0
C1766 C 0.21385 0.2013 0.91307 0.0
C1767 C 0.22599 0.19883 0.91802 0.0
C1768 C 0.23409 0.19161 0.91082 0.0
H1769 H 0.26016 0.23174 0.98861 0.0
H1770 H 0.25727 0.21801 0.96991 0.0
C1771 C 0.23026 0.1873 0.89871 0.0
C1772 C 0.23015 0.20402 0.93062 0.0
H1773 H 0.25016 0.22539 0.94483 0.0
C1774 C 0.22354 0.2005 0.94143 0.0
C1775 C 0.24007 0.21289 0.93192 0.0
C1776 C 0.24732 0.21724 0.9206 0.0
C1777 C 0.22637 0.20583 0.95341 0.0
C1778 C 0.2359 0.21512 0.9546 0.0
C1779 C 0.24288 0.21826 0.94392 0.0
C1780 C 0.23771 0.2227 0.9664 0.0
C1781 C 0.21899 0.20158 0.96468 0.0
C1782 C 0.22775 0.22991 0.97057 0.0
C1783 C 0.22938 0.23772 0.98112 0.0
C1784 C 0.24105 0.23858 0.98779 0.0
C1785 C 0.25104 0.23123 0.98374 0.0
C1786 C 0.24941 0.22342 0.97304 0.0
H1787 H 0.21529 0.19194 0.96329 0.0
H1788 H 0.22486 0.20193 0.97361 0.0
H1789 H 0.21083 0.20779 0.96578 0.0
H1790 H 0.21874 0.22975 0.96546 0.0
H1791 H 0.22146 0.24323 0.98393 0.0
H1792 H 0.82536 0.18632 0.8957 0.0
H1793 H 0.81363 0.19731 0.91185 0.0
H1794 H 0.83646 0.23019 0.90631 0.0
H1795 H 0.84828 0.21927 0.89022 0.0
H1796 H 0.82304 0.20766 0.93445 0.0
H1797 H 0.8008 0.24387 0.90398 0.0
H1798 H 0.80787 0.23014 0.8975 0.0
H1799 H 0.81757 0.24314 0.90266 0.0
C1800 C 0.82789 0.19589 0.89792 0.0
C1801 C 0.83775 0.20192 0.89164 0.0
C1802 C 0.82114 0.20217 0.9071 0.0
C1803 C 0.82405 0.21462 0.91015 0.0
C1804 C 0.83385 0.22068 0.90389 0.0
H1805 H 0.80257 0.26848 0.9659 0.0
H1806 H 0.81159 0.25679 0.94854 0.0
C1807 C 0.8406 0.21442 0.89469 0.0
C1808 C 0.81725 0.22109 0.92032 0.0
H1809 H 0.7998 0.24679 0.92642 0.0
C1810 C 0.81785 0.21615 0.93268 0.0
C1811 C 0.81049 0.23216 0.91798 0.0
C1812 C 0.80902 0.2376 0.90479 0.0
C1813 C 0.81222 0.2222 0.94286 0.0
C1814 C 0.80563 0.23338 0.94056 0.0
C1815 C 0.80487 0.23822 0.92816 0.0
C1816 C 0.79985 0.24044 0.95098 0.0
C1817 C 0.81374 0.2168 0.95607 0.0
C1818 C 0.79011 0.2352 0.95802 0.0
C1819 C 0.78497 0.24184 0.96804 0.0
C1820 C 0.78946 0.25387 0.97119 0.0
C1821 C 0.79904 0.25917 0.96392 0.0
C1822 C 0.80415 0.25253 0.95391 0.0
H1823 H 0.8214 0.20986 0.95669 0.0
H1824 H 0.81579 0.22425 0.9632 0.0
H1825 H 0.80484 0.21206 0.95862 0.0
H1826 H 0.78651 0.22595 0.95578 0.0
H1827 H 0.77766 0.23745 0.97345 0.0
H1828 H 0.81675 0.82917 0.88625 0.0
H1829 H 0.80359 0.82066 0.90293 0.0
H1830 H 0.79557 0.85786 0.91553 0.0
H1831 H 0.80875 0.86644 0.89898 0.0
H1832 H 0.80717 0.82384 0.92893 0.0
H1833 H 0.76058 0.84191 0.9132 0.0
H1834 H 0.77386 0.84164 0.9029 0.0
H1835 H 0.77264 0.85371 0.91466 0.0
C1836 C 0.81215 0.83555 0.89254 0.0
C1837 C 0.81379 0.8485 0.89122 0.0
C1838 C 0.80459 0.83066 0.90203 0.0
C1839 C 0.79844 0.83862 0.91037 0.0
C1840 C 0.79996 0.85154 0.90902 0.0
H1841 H 0.75611 0.82966 0.97901 0.0
H1842 H 0.767 0.83737 0.96038 0.0
C1843 C 0.80751 0.85644 0.89952 0.0
C1844 C 0.79108 0.8334 0.92097 0.0
H1845 H 0.76208 0.83339 0.93412 0.0
C1846 C 0.79728 0.82584 0.93 0.0
C1847 C 0.77819 0.83606 0.92239 0.0
C1848 C 0.77088 0.84368 0.91271 0.0
C1849 C 0.79104 0.82111 0.94058 0.0
C1850 C 0.77818 0.82383 0.94206 0.0
C1851 C 0.77194 0.83133 0.93298 0.0
C1852 C 0.77108 0.81908 0.95305 0.0
C1853 C 0.79839 0.81353 0.95029 0.0
C1854 C 0.76951 0.80624 0.95497 0.0
C1855 C 0.76325 0.8018 0.9656 0.0
C1856 C 0.75837 0.81011 0.97451 0.0
C1857 C 0.75966 0.82298 0.97234 0.0
C1858 C 0.76593 0.82742 0.9617 0.0
H1859 H 0.80871 0.8149 0.94946 0.0
H1860 H 0.79578 0.81599 0.96011 0.0
H1861 H 0.7962 0.8035 0.94875 0.0
H1862 H 0.77314 0.79963 0.94826 0.0
H1863 H 0.7622 0.79184 0.96679 0.0
H1864 H 0.12744 0.19736 0.20703 0.0
H1865 H 0.10763 0.20279 0.21681 0.0
H1866 H 0.11529 0.1766 0.24705 0.0
H1867 H 0.13508 0.17109 0.23733 0.0
H1868 H 0.08664 0.18831 0.22294 0.0
H1869 H 0.10958 0.20899 0.26636 0.0
H1870 H 0.11818 0.20544 0.2523 0.0
H1871 H 0.11407 0.19326 0.26318 0.0
C1872 C 0.12484 0.19264 0.21568 0.0
C1873 C 0.13291 0.18385 0.22145 0.0
C1874 C 0.11354 0.1958 0.22129 0.0
C1875 C 0.11009 0.19028 0.23279 0.0
C1876 C 0.11791 0.18121 0.23834 0.0
H1877 H 0.04702 0.20086 0.28261 0.0
H1878 H 0.06583 0.19334 0.27232 0.0
C1879 C 0.12922 0.17806 0.23277 0.0
C1880 C 0.09837 0.1941 0.239 0.0
H1881 H 0.08736 0.2071 0.26612 0.0
C1882 C 0.08679 0.19244 0.23237 0.0
C1883 C 0.09858 0.19949 0.25131 0.0
C1884 C 0.11077 0.20202 0.25868 0.0
C1885 C 0.07541 0.19589 0.23778 0.0
C1886 C 0.07564 0.20131 0.25007 0.0
C1887 C 0.0872 0.2029 0.25672 0.0
C1888 C 0.06401 0.20565 0.2561 0.0
C1889 C 0.06323 0.19349 0.23038 0.0
C1890 C 0.0568 0.21514 0.25047 0.0
C1891 C 0.04602 0.21942 0.2563 0.0
C1892 C 0.04224 0.21435 0.26795 0.0
C1893 C 0.04953 0.20486 0.27358 0.0
C1894 C 0.06034 0.2006 0.26775 0.0
H1895 H 0.06433 0.18637 0.22283 0.0
H1896 H 0.0557 0.19035 0.23676 0.0
H1897 H 0.06015 0.20225 0.2257 0.0
H1898 H 0.05957 0.21933 0.2416 0.0
H1899 H 0.0406 0.22664 0.25161 0.0
H1900 H 0.80354 0.13535 0.16988 0.0
H1901 H 0.79103 0.11829 0.17854 0.0
H1902 H 0.82075 0.11077 0.20625 0.0
H1903 H 0.83353 0.12752 0.19735 0.0
H1904 H 0.81209 0.08964 0.19414 0.0
H1905 H 0.77192 0.11667 0.21139 0.0
H1906 H 0.77505 0.11937 0.19493 0.0
H1907 H 0.78656 0.12393 0.20702 0.0
C1908 C 0.80744 0.13007 0.17782 0.0
C1909 C 0.81957 0.13284 0.1829 0.0
C1910 C 0.8002 0.12041 0.18286 0.0
C1911 C 0.80487 0.11334 0.19316 0.0
C1912 C 0.81691 0.11615 0.19835 0.0
H1913 H 0.76266 0.06011 0.23794 0.0
H1914 H 0.77454 0.07803 0.23023 0.0
C1915 C 0.82417 0.12581 0.19331 0.0
C1916 C 0.79747 0.10265 0.19812 0.0
H1917 H 0.76929 0.0946 0.21079 0.0
C1918 C 0.80275 0.09073 0.19783 0.0
C1919 C 0.78534 0.10409 0.20306 0.0
C1920 C 0.77941 0.11672 0.20425 0.0
C1921 C 0.79618 0.08021 0.20215 0.0
C1922 C 0.78386 0.08159 0.20667 0.0
C1923 C 0.77866 0.09353 0.20718 0.0
C1924 C 0.77635 0.07077 0.21118 0.0
C1925 C 0.80257 0.06774 0.20204 0.0
C1926 C 0.77319 0.06081 0.20297 0.0
C1927 C 0.76647 0.05048 0.20738 0.0
C1928 C 0.7627 0.0499 0.2201 0.0
C1929 C 0.76559 0.06008 0.22818 0.0
C1930 C 0.77232 0.0704 0.22376 0.0
H1931 H 0.81296 0.06878 0.20155 0.0
H1932 H 0.80038 0.06226 0.21066 0.0
H1933 H 0.79917 0.06239 0.19355 0.0
H1934 H 0.77598 0.061 0.19315 0.0
H1935 H 0.76448 0.04284 0.20089 0.0
H1936 H 0.88533 0.84657 0.21537 0.0
H1937 H 0.90157 0.83581 0.22792 0.0
H1938 H 0.92095 0.82723 0.19362 0.0
H1939 H 0.90434 0.83714 0.18093 0.0
H1940 H 0.92133 0.80796 0.20872 0.0
H1941 H 0.93572 0.84944 0.23725 0.0
H1942 H 0.91946 0.84531 0.23892 0.0
H1943 H 0.92494 0.85035 0.2237 0.0
C1944 C 0.89293 0.84223 0.21044 0.0
C1945 C 0.89353 0.84289 0.19709 0.0
C1946 C 0.90235 0.83625 0.21769 0.0
C1947 C 0.91271 0.83099 0.21178 0.0
C1948 C 0.91315 0.83133 0.19844 0.0
H1949 H 0.98493 0.81284 0.24747 0.0
H1950 H 0.96699 0.82254 0.23635 0.0
C1951 C 0.90367 0.83714 0.19119 0.0
C1952 C 0.92308 0.82506 0.21938 0.0
H1953 H 0.9449 0.83026 0.24345 0.0
C1954 C 0.92649 0.81285 0.2163 0.0
C1955 C 0.92997 0.83149 0.22915 0.0
C1956 C 0.92744 0.84491 0.23238 0.0
C1957 C 0.93657 0.80691 0.22268 0.0
C1958 C 0.94317 0.81318 0.23276 0.0
C1959 C 0.93976 0.82539 0.23583 0.0
C1960 C 0.95392 0.80741 0.23994 0.0
C1961 C 0.94028 0.79415 0.2182 0.0
C1962 C 0.95253 0.79581 0.24592 0.0
C1963 C 0.96283 0.79019 0.25211 0.0
C1964 C 0.97466 0.79619 0.25273 0.0
C1965 C 0.97592 0.80803 0.2472 0.0
C1966 C 0.96567 0.81356 0.24083 0.0
H1967 H 0.93695 0.79236 0.20823 0.0
H1968 H 0.95065 0.793 0.21878 0.0
H1969 H 0.9359 0.78698 0.2243 0.0
H1970 H 0.94349 0.79105 0.24576 0.0
H1971 H 0.96154 0.78116 0.25648 0.0
H1972 H 0.17072 0.89949 0.17627 0.0
H1973 H 0.17887 0.9157 0.19073 0.0
H1974 H 0.18256 0.88868 0.22091 0.0
H1975 H 0.17416 0.87241 0.20649 0.0
H1976 H 0.17227 0.90972 0.22929 0.0
H1977 H 0.21469 0.92191 0.20257 0.0
H1978 H 0.20057 0.92317 0.1929 0.0
H1979 H 0.20526 0.90821 0.19899 0.0
C1980 C 0.17342 0.89696 0.18594 0.0
C1981 C 0.17191 0.88463 0.1902 0.0
C1982 C 0.17811 0.90624 0.1942 0.0
C1983 C 0.1816 0.90338 0.20685 0.0
C1984 C 0.18 0.8911 0.21118 0.0
H1985 H 0.22537 0.95547 0.25491 0.0
H1986 H 0.21806 0.93747 0.24232 0.0
C1987 C 0.17519 0.88182 0.20294 0.0
C1988 C 0.18656 0.9133 0.21563 0.0
H1989 H 0.20889 0.93634 0.21863 0.0
C1990 C 0.18034 0.91547 0.22701 0.0
C1991 C 0.19722 0.92069 0.21279 0.0
C1992 C 0.2049 0.9183 0.20122 0.0
C1993 C 0.18428 0.92504 0.23543 0.0
C1994 C 0.19452 0.93287 0.23223 0.0
C1995 C 0.20094 0.93047 0.22103 0.0
C1996 C 0.19877 0.9436 0.24034 0.0
C1997 C 0.17753 0.92651 0.24775 0.0
C1998 C 0.1904 0.9531 0.24339 0.0
C1999 C 0.19456 0.96337 0.25067 0.0
C2000 C 0.20722 0.96446 0.25485 0.0
C2001 C 0.21559 0.95497 0.25173 0.0
C2002 C 0.21141 0.94465 0.24457 0.0
H2003 H 0.17283 0.91769 0.25057 0.0
H2004 H 0.1841 0.92953 0.25561 0.0
H2005 H 0.17014 0.93366 0.24649 0.0
H2006 H 0.1807 0.95272 0.23994 0.0
H2007 H 0.18793 0.97061 0.25273 0.0
H2008 H 0.11324 0.83711 0.8192 0.0
H2009 H 0.09198 0.83145 0.81122 0.0
H2010 H 0.10743 0.80234 0.78834 0.0
H2011 H 0.12861 0.80815 0.79601 0.0
H2012 H 0.08901 0.81415 0.77532 0.0
H2013 H 0.07264 0.80174 0.82345 0.0
H2014 H 0.07785 0.81759 0.82183 0.0
H2015 H 0.08892 0.80516 0.82048 0.0
C2016 C 0.11207 0.82952 0.81246 0.0
C2017 C 0.1226 0.82305 0.80827 0.0
C2018 C 0.09992 0.82627 0.80792 0.0
C2019 C 0.09805 0.81632 0.79932 0.0
C2020 C 0.1086 0.81006 0.79494 0.0
H2021 H 0.03966 0.76392 0.78836 0.0
H2022 H 0.05773 0.77716 0.79352 0.0
C2023 C 0.12072 0.81339 0.79933 0.0
C2024 C 0.08518 0.81197 0.7952 0.0
H2025 H 0.05822 0.79892 0.80633 0.0
C2026 C 0.08221 0.81093 0.7821 0.0
C2027 C 0.07632 0.80772 0.80405 0.0
C2028 C 0.07909 0.80799 0.81823 0.0
C2029 C 0.07089 0.80529 0.77761 0.0
C2030 C 0.06217 0.80081 0.78646 0.0
C2031 C 0.06489 0.8024 0.79954 0.0
C2032 C 0.05106 0.79295 0.78259 0.0
C2033 C 0.06869 0.80355 0.76346 0.0
C2034 C 0.04123 0.79732 0.77455 0.0
C2035 C 0.03077 0.78962 0.77142 0.0
C2036 C 0.02995 0.77751 0.77645 0.0
C2037 C 0.03988 0.77322 0.78439 0.0
C2038 C 0.05027 0.7808 0.78738 0.0
H2039 H 0.07731 0.80552 0.75807 0.0
H2040 H 0.06543 0.7939 0.76129 0.0
H2041 H 0.06125 0.81 0.76004 0.0
H2042 H 0.04153 0.80673 0.77087 0.0
H2043 H 0.02325 0.7932 0.76533 0.0
H2044 H 0.2348 0.12806 0.8205 0.0
H2045 H 0.23895 0.10783 0.81099 0.0
H2046 H 0.19904 0.10074 0.80637 0.0
H2047 H 0.19482 0.12098 0.81608 0.0
H2048 H 0.21074 0.08066 0.81534 0.0
H2049 H 0.23655 0.09798 0.77409 0.0
H2050 H 0.24353 0.1039 0.78866 0.0
H2051 H 0.22769 0.10815 0.78404 0.0
C2052 C 0.2269 0.12224 0.81737 0.0
C2053 C 0.21448 0.12617 0.81897 0.0
C2054 C 0.22929 0.11069 0.81186 0.0
C2055 C 0.21932 0.10287 0.80763 0.0
C2056 C 0.20689 0.10665 0.80944 0.0
H2057 H 0.24434 0.03598 0.76671 0.0
H2058 H 0.23161 0.05449 0.77088 0.0
C2059 C 0.20449 0.11819 0.81505 0.0
C2060 C 0.22197 0.09055 0.80186 0.0
H2061 H 0.2403 0.07653 0.78003 0.0
C2062 C 0.21703 0.07977 0.80747 0.0
C2063 C 0.22988 0.08932 0.79133 0.0
C2064 C 0.23459 0.10047 0.78409 0.0
C2065 C 0.22051 0.06785 0.80347 0.0
C2066 C 0.22942 0.06666 0.79381 0.0
C2067 C 0.23362 0.0774 0.78756 0.0
C2068 C 0.23567 0.05464 0.79121 0.0
C2069 C 0.21478 0.05664 0.80984 0.0
C2070 C 0.2421 0.04855 0.80121 0.0
C2071 C 0.24926 0.03807 0.79886 0.0
C2072 C 0.25034 0.03344 0.78643 0.0
C2073 C 0.24361 0.03927 0.7764 0.0
C2074 C 0.23639 0.04986 0.77878 0.0
H2075 H 0.20513 0.05866 0.81296 0.0
H2076 H 0.21435 0.04843 0.8034 0.0
H2077 H 0.22057 0.05427 0.81845 0.0
H2078 H 0.24201 0.0522 0.81082 0.0
H2079 H 0.25431 0.03383 0.80682 0.0
H2080 H 0.91226 0.19513 0.81392 0.0
H2081 H 0.92945 0.20756 0.80529 0.0
H2082 H 0.92372 0.23596 0.83345 0.0
H2083 H 0.90639 0.22373 0.84202 0.0
H2084 H 0.92989 0.23262 0.79572 0.0
H2085 H 0.96133 0.22668 0.83851 0.0
H2086 H 0.94754 0.21701 0.83546 0.0
H2087 H 0.94593 0.23254 0.8415 0.0
C2088 C 0.91451 0.2041 0.81817 0.0
C2089 C 0.90797 0.20836 0.82875 0.0
C2090 C 0.9244 0.21116 0.81327 0.0
C2091 C 0.92801 0.22259 0.81887 0.0
C2092 C 0.92127 0.22706 0.82915 0.0
H2093 H 0.98025 0.27684 0.78614 0.0
H2094 H 0.96207 0.26713 0.79616 0.0
C2095 C 0.91136 0.22003 0.83404 0.0
C2096 C 0.93894 0.22972 0.81406 0.0
H2097 H 0.9687 0.23989 0.82232 0.0
C2098 C 0.93836 0.23426 0.80154 0.0
C2099 C 0.95003 0.23173 0.82164 0.0
C2100 C 0.95136 0.22667 0.83499 0.0
C2101 C 0.94855 0.24079 0.7964 0.0
C2102 C 0.95959 0.24293 0.80403 0.0
C2103 C 0.96018 0.23836 0.81654 0.0
C2104 C 0.97088 0.24924 0.79893 0.0
C2105 C 0.94758 0.24507 0.78274 0.0
C2106 C 0.98202 0.24256 0.7976 0.0
C2107 C 0.99242 0.24808 0.79193 0.0
C2108 C 0.99194 0.26044 0.78753 0.0
C2109 C 0.98095 0.2673 0.78941 0.0
C2110 C 0.97051 0.26174 0.79504 0.0
H2111 H 0.93953 0.24057 0.77744 0.0
H2112 H 0.9462 0.25529 0.7825 0.0
H2113 H 0.95637 0.24301 0.77774 0.0
H2114 H 0.98254 0.23293 0.8006 0.0
H2115 H 1.00073 0.24252 0.79069 0.0
H2116 H 0.82331 0.92347 0.83663 0.0
H2117 H 0.81411 0.93954 0.82298 0.0
H2118 H 0.82575 0.91978 0.7897 0.0
H2119 H 0.8351 0.9036 0.80336 0.0
H2120 H 0.82565 0.95493 0.8048 0.0
H2121 H 0.78776 0.92483 0.78295 0.0
H2122 H 0.79667 0.92026 0.79705 0.0
H2123 H 0.80366 0.91953 0.78175 0.0
C2124 C 0.82403 0.92256 0.82641 0.0
C2125 C 0.82998 0.91223 0.8211 0.0
C2126 C 0.81873 0.93176 0.81862 0.0
C2127 C 0.81917 0.93084 0.80532 0.0
C2128 C 0.82514 0.92059 0.79994 0.0
H2129 H 0.78885 0.99603 0.76217 0.0
H2130 H 0.80336 0.9789 0.76748 0.0
C2131 C 0.83045 0.91134 0.80775 0.0
C2132 C 0.81315 0.94062 0.79728 0.0
H2133 H 0.78751 0.94605 0.77776 0.0
C2134 C 0.81744 0.95299 0.79869 0.0
C2135 C 0.80244 0.93804 0.78934 0.0
C2136 C 0.79725 0.92498 0.78769 0.0
C2137 C 0.81095 0.9629 0.79286 0.0
C2138 C 0.79994 0.96036 0.78536 0.0
C2139 C 0.79602 0.94795 0.78343 0.0
C2140 C 0.79125 0.97042 0.7813 0.0
C2141 C 0.81543 0.97607 0.79543 0.0
C2142 C 0.77962 0.97119 0.78712 0.0
C2143 C 0.77144 0.98086 0.78416 0.0
C2144 C 0.77462 0.99003 0.77523 0.0
C2145 C 0.78616 0.98913 0.76911 0.0
C2146 C 0.79445 0.97939 0.77216 0.0
H2147 H 0.82347 0.9765 0.80243 0.0
H2148 H 0.81844 0.98038 0.78641 0.0
H2149 H 0.80763 0.98172 0.79908 0.0
H2150 H 0.77695 0.96439 0.79418 0.0
H2151 H 0.7626 0.98116 0.789 0.0
H2152 H 0.22258 0.12662 0.19969 0.0
H2153 H 0.23018 0.10571 0.20471 0.0
H2154 H 0.19327 0.09509 0.21699 0.0
H2155 H 0.18564 0.11598 0.21227 0.0
H2156 H 0.23011 0.09429 0.22882 0.0
H2157 H 0.2025 0.06636 0.19327 0.0
H2158 H 0.20466 0.08301 0.19185 0.0
H2159 H 0.19299 0.07673 0.20217 0.0
C2160 C 0.21606 0.11984 0.20346 0.0
C2161 C 0.20347 0.12303 0.20558 0.0
C2162 C 0.22042 0.10787 0.20624 0.0
C2163 C 0.21226 0.09879 0.21105 0.0
C2164 C 0.19966 0.10186 0.213 0.0
H2165 H 0.20809 0.031 0.24922 0.0
H2166 H 0.20597 0.04972 0.23641 0.0
C2167 C 0.19531 0.11383 0.21028 0.0
C2168 C 0.21703 0.08637 0.21492 0.0
H2169 H 0.21119 0.05523 0.21125 0.0
C2170 C 0.22618 0.08572 0.22482 0.0
C2171 C 0.21193 0.07522 0.20964 0.0
C2172 C 0.20257 0.07532 0.19856 0.0
C2173 C 0.22973 0.07425 0.23018 0.0
C2174 C 0.22412 0.06312 0.22534 0.0
C2175 C 0.21549 0.06375 0.21496 0.0
C2176 C 0.22568 0.05102 0.23201 0.0
C2177 C 0.23882 0.07419 0.24151 0.0
C2178 C 0.23746 0.04527 0.23355 0.0
C2179 C 0.23873 0.03446 0.24097 0.0
C2180 C 0.22824 0.02929 0.24695 0.0
C2181 C 0.21641 0.03479 0.24487 0.0
C2182 C 0.21515 0.04549 0.23749 0.0
H2183 H 0.24076 0.08371 0.2453 0.0
H2184 H 0.23507 0.06835 0.24927 0.0
H2185 H 0.24787 0.07016 0.23867 0.0
H2186 H 0.24569 0.04928 0.22923 0.0
H2187 H 0.24796 0.03042 0.24238 0.0
H2188 H 0.21057 0.87408 0.80403 0.0
H2189 H 0.22177 0.89383 0.80083 0.0
H2190 H 0.20701 0.90818 0.83557 0.0
H2191 H 0.19574 0.88838 0.83887 0.0
H2192 H 0.20923 0.9203 0.80141 0.0
H2193 H 0.24809 0.91127 0.83696 0.0
H2194 H 0.23941 0.89871 0.82915 0.0
H2195 H 0.23207 0.90782 0.84105 0.0
C2196 C 0.20973 0.88142 0.81101 0.0
C2197 C 0.20232 0.87964 0.82174 0.0
C2198 C 0.21609 0.89271 0.80914 0.0
C2199 C 0.21527 0.9024 0.81801 0.0
C2200 C 0.20778 0.90076 0.82865 0.0
H2201 H 0.25781 0.97276 0.82124 0.0
H2202 H 0.24487 0.95457 0.82652 0.0
C2203 C 0.20131 0.88949 0.83049 0.0
C2204 C 0.22233 0.91418 0.81604 0.0
H2205 H 0.24923 0.92988 0.82526 0.0
C2206 C 0.21794 0.92246 0.80666 0.0
C2207 C 0.23362 0.91697 0.82298 0.0
C2208 C 0.23869 0.90826 0.8331 0.0
C2209 C 0.22461 0.93347 0.80395 0.0
C2210 C 0.23619 0.93606 0.81055 0.0
C2211 C 0.24041 0.92788 0.82015 0.0
C2212 C 0.2442 0.94703 0.8074 0.0
C2213 C 0.21908 0.94228 0.79415 0.0
C2214 C 0.24838 0.94872 0.79497 0.0
C2215 C 0.25572 0.95912 0.79193 0.0
C2216 C 0.25921 0.96799 0.80129 0.0
C2217 C 0.25535 0.96608 0.81383 0.0
C2218 C 0.2479 0.95571 0.81685 0.0
H2219 H 0.20871 0.94106 0.79309 0.0
H2220 H 0.22122 0.95213 0.79671 0.0
H2221 H 0.22315 0.94032 0.78478 0.0
H2222 H 0.24601 0.94196 0.7876 0.0
H2223 H 0.25876 0.96017 0.78225 0.0
H2224 H 0.14278 0.20026 0.83766 0.0
H2225 H 0.12288 0.20769 0.8282 0.0
H2226 H 0.13339 0.19393 0.79154 0.0
H2227 H 0.15335 0.18675 0.80077 0.0
H2228 H 0.11976 0.22496 0.80741 0.0
H2229 H 0.09776 0.17891 0.79631 0.0
H2230 H 0.11089 0.1808 0.80752 0.0
H2231 H 0.11344 0.18098 0.7907 0.0
C2232 C 0.14089 0.19884 0.82758 0.0
C2233 C 0.14967 0.1928 0.82002 0.0
C2234 C 0.12948 0.20304 0.8222 0.0
C2235 C 0.12658 0.20118 0.80921 0.0
C2236 C 0.13531 0.19521 0.80164 0.0
H2237 H 0.06597 0.22036 0.75592 0.0
H2238 H 0.08488 0.21221 0.76673 0.0
C2239 C 0.14672 0.19107 0.80697 0.0
C2240 C 0.11464 0.20589 0.8034 0.0
H2241 H 0.08761 0.19663 0.78746 0.0
C2242 C 0.11267 0.21878 0.80314 0.0
C2243 C 0.10545 0.19779 0.79777 0.0
C2244 C 0.10689 0.18384 0.79815 0.0
C2245 C 0.10191 0.22383 0.7971 0.0
C2246 C 0.09272 0.21574 0.79142 0.0
C2247 C 0.09465 0.20283 0.79179 0.0
C2248 C 0.08109 0.22048 0.78498 0.0
C2249 C 0.10068 0.2378 0.79651 0.0
C2250 C 0.07253 0.22763 0.79169 0.0
C2251 C 0.06173 0.2323 0.78553 0.0
C2252 C 0.05917 0.22982 0.77254 0.0
C2253 C 0.0676 0.22239 0.76592 0.0
C2254 C 0.07844 0.21776 0.77209 0.0
H2255 H 0.10991 0.2426 0.79814 0.0
H2256 H 0.09662 0.24079 0.78715 0.0
H2257 H 0.09432 0.24089 0.80403 0.0
H2258 H 0.07418 0.22957 0.80172 0.0
H2259 H 0.05532 0.23776 0.79099 0.0
H2260 H 0.8472 0.12172 0.83187 0.0
H2261 H 0.83307 0.1053 0.8237 0.0
H2262 H 0.80785 0.13295 0.80819 0.0
H2263 H 0.82205 0.14951 0.81622 0.0
H2264 H 0.7957 0.11444 0.82213 0.0
H2265 H 0.82701 0.09356 0.78689 0.0
H2266 H 0.83408 0.09498 0.80258 0.0
H2267 H 0.82995 0.10877 0.79378 0.0
C2268 C 0.83879 0.12435 0.82649 0.0
C2269 C 0.83584 0.13698 0.82464 0.0
C2270 C 0.83069 0.11492 0.82185 0.0
C2271 C 0.81947 0.11788 0.81519 0.0
C2272 C 0.81648 0.13045 0.81328 0.0
H2273 H 0.77184 0.06437 0.77313 0.0
H2274 H 0.78517 0.08211 0.77958 0.0
C2275 C 0.82459 0.1399 0.81792 0.0
C2276 C 0.81067 0.10784 0.81065 0.0
H2277 H 0.80862 0.08188 0.79184 0.0
C2278 C 0.79849 0.10736 0.81545 0.0
C2279 C 0.81427 0.09868 0.80183 0.0
C2280 C 0.82699 0.09905 0.79586 0.0
C2281 C 0.78993 0.0978 0.8119 0.0
C2282 C 0.7937 0.08837 0.80345 0.0
C2283 C 0.80577 0.08903 0.79842 0.0
C2284 C 0.78527 0.07775 0.79967 0.0
C2285 C 0.77687 0.09795 0.81711 0.0
C2286 C 0.78092 0.06934 0.80881 0.0
C2287 C 0.77332 0.05913 0.80514 0.0
C2288 C 0.76998 0.05705 0.79223 0.0
C2289 C 0.77433 0.06555 0.78312 0.0
C2290 C 0.78192 0.07575 0.7868 0.0
H2291 H 0.77439 0.10735 0.82059 0.0
H2292 H 0.76972 0.09495 0.80977 0.0
H2293 H 0.77642 0.0914 0.82525 0.0
H2294 H 0.7836 0.07053 0.81877 0.0
H2295 H 0.77033 0.0527 0.8124 0.0
H2296 H 0.87748 0.83364 0.81474 0.0
H2297 H 0.89237 0.81872 0.80617 0.0
H2298 H 0.9149 0.82119 0.84095 0.0
H2299 H 0.90005 0.83596 0.84959 0.0
H2300 H 0.91937 0.82326 0.80339 0.0
H2301 H 0.90928 0.7831 0.83487 0.0
H2302 H 0.89842 0.79575 0.83242 0.0
H2303 H 0.91198 0.79772 0.84291 0.0
C2304 C 0.88553 0.83089 0.8206 0.0
C2305 C 0.8876 0.836 0.83283 0.0
C2306 C 0.89404 0.82241 0.81568 0.0
C2307 C 0.90465 0.81876 0.82298 0.0
C2308 C 0.90668 0.82376 0.83522 0.0
H2309 H 0.96995 0.77281 0.81459 0.0
H2310 H 0.9528 0.78568 0.82199 0.0
C2311 C 0.89825 0.83229 0.8401 0.0
C2312 C 0.91393 0.81011 0.81769 0.0
H2313 H 0.92744 0.78173 0.82238 0.0
C2314 C 0.92107 0.81412 0.80744 0.0
C2315 C 0.91616 0.79825 0.82306 0.0
C2316 C 0.9085 0.79336 0.83386 0.0
C2317 C 0.93068 0.80674 0.80266 0.0
C2318 C 0.93298 0.79488 0.80808 0.0
C2319 C 0.92569 0.79081 0.81822 0.0
C2320 C 0.94312 0.78669 0.80359 0.0
C2321 C 0.93858 0.81193 0.79218 0.0
C2322 C 0.94326 0.78273 0.79086 0.0
C2323 C 0.95309 0.77542 0.7866 0.0
C2324 C 0.96289 0.77176 0.79503 0.0
C2325 C 0.96251 0.77539 0.80787 0.0
C2326 C 0.95273 0.78279 0.8121 0.0
H2327 H 0.93791 0.82223 0.79154 0.0
H2328 H 0.94863 0.80946 0.79367 0.0
H2329 H 0.93519 0.80797 0.78292 0.0
H2330 H 0.93576 0.78532 0.78419 0.0
H2331 H 0.95297 0.77258 0.77671 0.0
H2332 H 0.81059 0.91042 0.18645 0.0
H2333 H 0.80039 0.92717 0.19781 0.0
H2334 H 0.83083 0.92774 0.22593 0.0
H2335 H 0.84075 0.91051 0.21505 0.0
H2336 H 0.80862 0.93079 0.23697 0.0
H2337 H 0.81181 0.96297 0.19599 0.0
H2338 H 0.80318 0.94894 0.19213 0.0
H2339 H 0.81967 0.94818 0.19648 0.0
C2340 C 0.81503 0.91391 0.19518 0.0
C2341 C 0.82661 0.90915 0.19972 0.0
C2342 C 0.80926 0.92365 0.20158 0.0
C2343 C 0.815 0.92898 0.21254 0.0
C2344 C 0.82627 0.9239 0.2174 0.0
H2345 H 0.79632 1.00305 0.23939 0.0
H2346 H 0.80728 0.98467 0.23193 0.0
C2347 C 0.832 0.9141 0.21109 0.0
C2348 C 0.80945 0.93999 0.21881 0.0
H2349 H 0.79976 0.96976 0.21326 0.0
C2350 C 0.80672 0.93933 0.2318 0.0
C2351 C 0.8072 0.95125 0.21216 0.0
C2352 C 0.81073 0.95296 0.19846 0.0
C2353 C 0.80161 0.9495 0.23822 0.0
C2354 C 0.79885 0.96057 0.23142 0.0
C2355 C 0.80177 0.96128 0.21849 0.0
C2356 C 0.79283 0.97152 0.23737 0.0
C2357 C 0.79946 0.94835 0.2523 0.0
C2358 C 0.78114 0.97029 0.24315 0.0
C2359 C 0.77493 0.98078 0.2476 0.0
C2360 C 0.78016 0.99278 0.24614 0.0
C2361 C 0.79202 0.99396 0.24067 0.0
C2362 C 0.79829 0.98345 0.23636 0.0
H2363 H 0.80567 0.94123 0.25677 0.0
H2364 H 0.80116 0.95736 0.25729 0.0
H2365 H 0.78957 0.94538 0.25373 0.0
H2366 H 0.77655 0.96127 0.24378 0.0
H2367 H 0.76575 0.97952 0.25163 0.0
H2368 H 0.09702 0.81073 0.16188 0.0
H2369 H 0.08124 0.79928 0.17387 0.0
H2370 H 0.10596 0.80019 0.20718 0.0
H2371 H 0.12163 0.81192 0.19541 0.0
H2372 H 0.08209 0.77621 0.18827 0.0
H2373 H 0.07351 0.81763 0.21827 0.0
H2374 H 0.08183 0.81858 0.20359 0.0
H2375 H 0.08972 0.81317 0.21789 0.0
C2376 C 0.09911 0.80849 0.17176 0.0
C2377 C 0.11056 0.81239 0.17772 0.0
C2378 C 0.09012 0.80186 0.17856 0.0
C2379 C 0.09235 0.79905 0.19146 0.0
C2380 C 0.10398 0.80241 0.19727 0.0
H2381 H 0.05284 0.77091 0.25472 0.0
H2382 H 0.06801 0.7775 0.23913 0.0
C2383 C 0.11298 0.80902 0.19049 0.0
C2384 C 0.0823 0.79326 0.19906 0.0
H2385 H 0.06405 0.79864 0.22458 0.0
C2386 C 0.07807 0.7811 0.19617 0.0
C2387 C 0.07696 0.79974 0.20925 0.0
C2388 C 0.08063 0.81304 0.21239 0.0
C2389 C 0.06902 0.77507 0.20359 0.0
C2390 C 0.06399 0.78145 0.21402 0.0
C2391 C 0.06797 0.79372 0.21663 0.0
C2392 C 0.05511 0.77551 0.2229 0.0
C2393 C 0.06522 0.76181 0.2005 0.0
C2394 C 0.04286 0.7718 0.21892 0.0
C2395 C 0.03411 0.76789 0.22789 0.0
C2396 C 0.03748 0.76782 0.24094 0.0
C2397 C 0.04992 0.77097 0.24475 0.0
C2398 C 0.05862 0.77473 0.23584 0.0
H2399 H 0.07171 0.75744 0.19376 0.0
H2400 H 0.06502 0.75612 0.2093 0.0
H2401 H 0.05561 0.76167 0.19606 0.0
H2402 H 0.03989 0.77249 0.209 0.0
H2403 H 0.02457 0.76561 0.22471 0.0
H2404 H 0.8954 0.21295 0.1798 0.0
H2405 H 0.91322 0.22283 0.19145 0.0
H2406 H 0.91454 0.19192 0.21756 0.0
H2407 H 0.89666 0.18209 0.20616 0.0
H2408 H 0.91652 0.22957 0.21811 0.0
H2409 H 0.95045 0.19398 0.20328 0.0
H2410 H 0.93527 0.19594 0.19536 0.0
H2411 H 0.93654 0.18752 0.21011 0.0
C2412 C 0.89936 0.20833 0.18813 0.0
C2413 C 0.89465 0.19665 0.19196 0.0
C2414 C 0.90959 0.21397 0.19473 0.0
C2415 C 0.91535 0.208 0.20522 0.0
C2416 C 0.91041 0.19656 0.20932 0.0
H2417 H 0.97076 0.21441 0.26341 0.0
H2418 H 0.9543 0.20963 0.24755 0.0
C2419 C 0.90019 0.19094 0.20277 0.0
C2420 C 0.92661 0.21354 0.21188 0.0
H2421 H 0.95704 0.20711 0.22068 0.0
C2422 C 0.92546 0.2248 0.21852 0.0
C2423 C 0.93829 0.20735 0.21228 0.0
C2424 C 0.94029 0.19559 0.20478 0.0
C2425 C 0.93546 0.2296 0.22623 0.0
C2426 C 0.94692 0.22304 0.22714 0.0
C2427 C 0.94824 0.21212 0.21999 0.0
C2428 C 0.95707 0.22641 0.23661 0.0
C2429 C 0.93351 0.24127 0.23387 0.0
C2430 C 0.96422 0.23746 0.23569 0.0
C2431 C 0.97378 0.24027 0.24484 0.0
C2432 C 0.97629 0.23205 0.25501 0.0
C2433 C 0.96912 0.22099 0.25576 0.0
C2434 C 0.95967 0.21821 0.24667 0.0
H2435 H 0.92358 0.2444 0.23328 0.0
H2436 H 0.93625 0.23971 0.24403 0.0
H2437 H 0.9396 0.24886 0.23025 0.0
H2438 H 0.96245 0.24386 0.2279 0.0
H2439 H 0.97914 0.24885 0.24399 0.0
H2440 H 0.17774 0.69737 0.61756 0.0
H2441 H 0.18569 0.70421 0.59701 0.0
H2442 H 0.21026 0.73085 0.61633 0.0
H2443 H 0.2022 0.72426 0.63678 0.0
H2444 H 0.19974 0.74072 0.59488 0.0
H2445 H 0.21949 0.69429 0.58434 0.0
H2446 H 0.20282 0.69427 0.58656 0.0
H2447 H 0.21345 0.69811 0.59967 0.0
C2448 C 0.18482 0.7047 0.6174 0.0
C2449 C 0.18937 0.71023 0.6288 0.0
C2450 C 0.18937 0.70858 0.60565 0.0
C2451 C 0.19874 0.71791 0.60512 0.0
C2452 C 0.20303 0.72366 0.61647 0.0
H2453 H 0.25707 0.72995 0.55377 0.0
H2454 H 0.24269 0.72521 0.57065 0.0
C2455 C 0.1984 0.71988 0.62817 0.0
C2456 C 0.20453 0.72141 0.59289 0.0
H2457 H 0.22235 0.70999 0.56916 0.0
C2458 C 0.2046 0.73399 0.58918 0.0
C2459 C 0.21095 0.71264 0.5855 0.0
C2460 C 0.2118 0.6991 0.58924 0.0
C2461 C 0.21124 0.73809 0.57856 0.0
C2462 C 0.21778 0.72933 0.57128 0.0
C2463 C 0.2173 0.71669 0.57471 0.0
C2464 C 0.22636 0.73308 0.561 0.0
C2465 C 0.21171 0.75183 0.57559 0.0
C2466 C 0.22204 0.7393 0.54994 0.0
C2467 C 0.23037 0.74218 0.54021 0.0
C2468 C 0.24308 0.7387 0.54134 0.0
C2469 C 0.24733 0.73267 0.55251 0.0
C2470 C 0.2391 0.72993 0.5622 0.0
H2471 H 0.20828 0.75755 0.58355 0.0
H2472 H 0.22146 0.75486 0.57353 0.0
H2473 H 0.20566 0.75369 0.56702 0.0
H2474 H 0.21221 0.74166 0.5487 0.0
H2475 H 0.22681 0.74677 0.53168 0.0
H2476 H 0.83145 0.7142 0.59956 0.0
H2477 H 0.81811 0.72283 0.58248 0.0
H2478 H 0.78763 0.69848 0.59297 0.0
H2479 H 0.801 0.68961 0.61002 0.0
H2480 H 0.80585 0.70954 0.56164 0.0
H2481 H 0.7721 0.73387 0.59232 0.0
H2482 H 0.78727 0.72873 0.59833 0.0
H2483 H 0.77477 0.71762 0.5954 0.0
C2484 C 0.82194 0.7106 0.59821 0.0
C2485 C 0.81732 0.70118 0.60618 0.0
C2486 C 0.81431 0.71558 0.58846 0.0
C2487 C 0.80187 0.71134 0.58649 0.0
C2488 C 0.79716 0.702 0.59443 0.0
H2489 H 0.76187 0.7393 0.51668 0.0
H2490 H 0.76777 0.72434 0.53359 0.0
C2491 C 0.80481 0.69698 0.6042 0.0
C2492 C 0.79397 0.71677 0.57604 0.0
H2493 H 0.76962 0.73664 0.57022 0.0
C2494 C 0.79778 0.7153 0.56346 0.0
C2495 C 0.78348 0.72427 0.57849 0.0
C2496 C 0.77914 0.72633 0.59185 0.0
C2497 C 0.79172 0.72157 0.55331 0.0
C2498 C 0.78152 0.72944 0.55581 0.0
C2499 C 0.77736 0.73048 0.56832 0.0
C2500 C 0.77653 0.73823 0.54605 0.0
C2501 C 0.79675 0.72034 0.54011 0.0
C2502 C 0.77914 0.75095 0.54764 0.0
C2503 C 0.77586 0.75939 0.53809 0.0
C2504 C 0.76978 0.75535 0.52672 0.0
C2505 C 0.76656 0.74267 0.52534 0.0
C2506 C 0.76998 0.73413 0.53494 0.0
H2507 H 0.80556 0.71488 0.54003 0.0
H2508 H 0.7896 0.7156 0.53382 0.0
H2509 H 0.79864 0.72969 0.53604 0.0
H2510 H 0.78416 0.75432 0.55613 0.0
H2511 H 0.77835 0.76912 0.53953 0.0
H2512 H 0.83872 0.34787 0.61986 0.0
H2513 H 0.82998 0.33363 0.60368 0.0
H2514 H 0.81626 0.30948 0.63303 0.0
H2515 H 0.82487 0.32379 0.64936 0.0
H2516 H 0.82922 0.2969 0.61426 0.0
H2517 H 0.79315 0.32781 0.59248 0.0
H2518 H 0.80861 0.33472 0.59346 0.0
H2519 H 0.80064 0.33096 0.60782 0.0
C2520 C 0.83362 0.33967 0.62292 0.0
C2521 C 0.83243 0.33705 0.63596 0.0
C2522 C 0.82865 0.33151 0.61363 0.0
C2523 C 0.82231 0.32057 0.61713 0.0
C2524 C 0.82108 0.31789 0.63011 0.0
H2525 H 0.77959 0.27323 0.56326 0.0
H2526 H 0.78619 0.28638 0.58132 0.0
C2527 C 0.82605 0.32607 0.63943 0.0
C2528 C 0.81744 0.31171 0.60722 0.0
H2529 H 0.79792 0.30948 0.58083 0.0
C2530 C 0.8223 0.29961 0.60701 0.0
C2531 C 0.80832 0.3152 0.59784 0.0
C2532 C 0.80227 0.32784 0.59794 0.0
C2533 C 0.81855 0.29104 0.59746 0.0
C2534 C 0.80983 0.29472 0.58776 0.0
C2535 C 0.8047 0.3067 0.58819 0.0
C2536 C 0.80596 0.28634 0.57702 0.0
C2537 C 0.82388 0.27809 0.5979 0.0
C2538 C 0.81486 0.28198 0.56854 0.0
C2539 C 0.81111 0.27449 0.55816 0.0
C2540 C 0.79834 0.27128 0.55596 0.0
C2541 C 0.78947 0.27563 0.56453 0.0
C2542 C 0.79323 0.28311 0.57491 0.0
H2543 H 0.82757 0.27569 0.60759 0.0
H2544 H 0.81666 0.27103 0.5949 0.0
H2545 H 0.83179 0.27755 0.59128 0.0
H2546 H 0.8247 0.28458 0.56981 0.0
H2547 H 0.81818 0.2715 0.55167 0.0
H2548 H 0.1776 0.34351 0.61898 0.0
H2549 H 0.18986 0.33445 0.6021 0.0
H2550 H 0.21825 0.32327 0.62985 0.0
H2551 H 0.20598 0.33225 0.64687 0.0
H2552 H 0.22817 0.33515 0.60884 0.0
H2553 H 0.1946 0.29775 0.59352 0.0
H2554 H 0.18771 0.31292 0.59376 0.0
H2555 H 0.19334 0.30599 0.6084 0.0
C2556 C 0.18633 0.33891 0.62156 0.0
C2557 C 0.19074 0.33853 0.63432 0.0
C2558 C 0.19334 0.33376 0.61187 0.0
C2559 C 0.20489 0.32803 0.61472 0.0
C2560 C 0.20934 0.32762 0.62744 0.0
H2561 H 0.24586 0.28293 0.5614 0.0
H2562 H 0.23453 0.2907 0.57958 0.0
C2563 C 0.20233 0.33279 0.63715 0.0
C2564 C 0.21249 0.32287 0.60437 0.0
H2565 H 0.21151 0.30201 0.57978 0.0
C2566 C 0.22457 0.32785 0.60253 0.0
C2567 C 0.20783 0.31325 0.59622 0.0
C2568 C 0.19521 0.30707 0.59812 0.0
C2569 C 0.232 0.32367 0.59259 0.0
C2570 C 0.22715 0.3144 0.58414 0.0
C2571 C 0.21518 0.30922 0.58617 0.0
C2572 C 0.23433 0.30984 0.57319 0.0
C2573 C 0.24506 0.32912 0.59133 0.0
C2574 C 0.23794 0.318 0.56349 0.0
C2575 C 0.24441 0.31356 0.55303 0.0
C2576 C 0.24729 0.30086 0.552 0.0
C2577 C 0.24365 0.29273 0.56176 0.0
C2578 C 0.23722 0.29717 0.57221 0.0
H2579 H 0.2486 0.33346 0.60037 0.0
H2580 H 0.25179 0.32188 0.58847 0.0
H2581 H 0.24482 0.33644 0.58389 0.0
H2582 H 0.23557 0.32776 0.56389 0.0
H2583 H 0.24689 0.32004 0.54562 0.0
H2584 H 0.17941 0.28766 0.3917 0.0
H2585 H 0.18643 0.27921 0.41231 0.0
H2586 H 0.20558 0.31385 0.42133 0.0
H2587 H 0.19886 0.32229 0.4007 0.0
H2588 H 0.21153 0.27634 0.42034 0.0
H2589 H 0.18664 0.30636 0.45397 0.0
H2590 H 0.18194 0.30502 0.43734 0.0
H2591 H 0.19487 0.31508 0.4422 0.0
C2592 C 0.18508 0.29351 0.39808 0.0
C2593 C 0.18858 0.30567 0.39448 0.0
C2594 C 0.18901 0.28868 0.4099 0.0
C2595 C 0.19639 0.29595 0.41845 0.0
C2596 C 0.19964 0.30817 0.41503 0.0
H2597 H 0.25385 0.28534 0.47261 0.0
H2598 H 0.23939 0.28802 0.45443 0.0
C2599 C 0.19577 0.31299 0.4032 0.0
C2600 C 0.20164 0.29048 0.43044 0.0
H2601 H 0.20483 0.29562 0.46249 0.0
C2602 C 0.20986 0.28039 0.42959 0.0
C2603 C 0.19936 0.29566 0.44253 0.0
C2604 C 0.19012 0.30605 0.44411 0.0
C2605 C 0.21649 0.27592 0.44038 0.0
C2606 C 0.21488 0.28169 0.4523 0.0
C2607 C 0.20607 0.29123 0.45332 0.0
C2608 C 0.22355 0.27918 0.46331 0.0
C2609 C 0.22557 0.26538 0.43889 0.0
C2610 C 0.21943 0.27326 0.47438 0.0
C2611 C 0.22778 0.27158 0.48487 0.0
C2612 C 0.24025 0.27605 0.48446 0.0
C2613 C 0.24429 0.28185 0.47328 0.0
C2614 C 0.23605 0.28335 0.46283 0.0
H2615 H 0.22345 0.25994 0.43007 0.0
H2616 H 0.23527 0.26925 0.43835 0.0
H2617 H 0.22533 0.25901 0.4472 0.0
H2618 H 0.20976 0.27004 0.47493 0.0
H2619 H 0.22441 0.26714 0.49338 0.0
H2620 H 0.20491 0.66345 0.38808 0.0
H2621 H 0.21347 0.67002 0.40907 0.0
H2622 H 0.22504 0.70517 0.39322 0.0
H2623 H 0.21651 0.69874 0.37231 0.0
H2624 H 0.24035 0.67933 0.41473 0.0
H2625 H 0.20294 0.71325 0.42519 0.0
H2626 H 0.20051 0.70059 0.414 0.0
H2627 H 0.20942 0.71413 0.40959 0.0
C2628 C 0.20922 0.6726 0.3891 0.0
C2629 C 0.21006 0.68056 0.37852 0.0
C2630 C 0.21415 0.67631 0.40106 0.0
C2631 C 0.2198 0.68811 0.40269 0.0
C2632 C 0.22064 0.69606 0.39218 0.0
H2633 H 0.25261 0.73324 0.46325 0.0
H2634 H 0.24332 0.72457 0.44354 0.0
C2635 C 0.21584 0.69233 0.38022 0.0
C2636 C 0.225 0.69215 0.41532 0.0
H2637 H 0.2209 0.7133 0.43906 0.0
C2638 C 0.23607 0.68667 0.42014 0.0
C2639 C 0.21941 0.70178 0.42227 0.0
C2640 C 0.20736 0.70776 0.41759 0.0
C2641 C 0.24194 0.69086 0.43158 0.0
C2642 C 0.23639 0.70057 0.43852 0.0
C2643 C 0.22518 0.70587 0.43376 0.0
C2644 C 0.24221 0.70566 0.45055 0.0
C2645 C 0.25429 0.68517 0.43582 0.0
C2646 C 0.24463 0.69796 0.46112 0.0
C2647 C 0.25002 0.70289 0.4724 0.0
C2648 C 0.25291 0.71568 0.47341 0.0
C2649 C 0.25037 0.72338 0.46285 0.0
C2650 C 0.24509 0.71843 0.45155 0.0
H2651 H 0.25893 0.68047 0.42783 0.0
H2652 H 0.26087 0.69234 0.43992 0.0
H2653 H 0.25254 0.67809 0.44325 0.0
H2654 H 0.24219 0.68814 0.46072 0.0
H2655 H 0.25168 0.69676 0.48043 0.0
H2656 H 0.84705 0.69659 0.39982 0.0
H2657 H 0.83804 0.71123 0.41478 0.0
H2658 H 0.80581 0.71585 0.38936 0.0
H2659 H 0.81472 0.70106 0.37434 0.0
H2660 H 0.83019 0.73705 0.40974 0.0
H2661 H 0.79127 0.70574 0.42472 0.0
H2662 H 0.80504 0.69996 0.41711 0.0
H2663 H 0.79306 0.70778 0.40788 0.0
C2664 C 0.83799 0.70065 0.39744 0.0
C2665 C 0.83154 0.69758 0.38593 0.0
C2666 C 0.8329 0.70907 0.40596 0.0
C2667 C 0.82121 0.71452 0.40323 0.0
C2668 C 0.81479 0.71163 0.3917 0.0
H2669 H 0.77479 0.76157 0.4501 0.0
H2670 H 0.78303 0.74899 0.43289 0.0
C2671 C 0.81993 0.70326 0.3831 0.0
C2672 C 0.81577 0.72318 0.41254 0.0
H2673 H 0.79227 0.7258 0.43376 0.0
C2674 C 0.82188 0.73463 0.41498 0.0
C2675 C 0.80491 0.72 0.41931 0.0
C2676 C 0.79818 0.70768 0.41724 0.0
C2677 C 0.81738 0.74303 0.42399 0.0
C2678 C 0.80667 0.73974 0.431 0.0
C2679 C 0.80048 0.72833 0.42841 0.0
C2680 C 0.80186 0.74783 0.44123 0.0
C2681 C 0.82403 0.75544 0.42574 0.0
C2682 C 0.80966 0.75134 0.4517 0.0
C2683 C 0.80498 0.75859 0.46153 0.0
C2684 C 0.79233 0.76231 0.4612 0.0
C2685 C 0.78454 0.75876 0.45071 0.0
C2686 C 0.78925 0.7516 0.44084 0.0
H2687 H 0.82929 0.75807 0.41716 0.0
H2688 H 0.81728 0.76293 0.42779 0.0
H2689 H 0.83092 0.75482 0.43386 0.0
H2690 H 0.81932 0.74827 0.45242 0.0
H2691 H 0.81117 0.76096 0.46956 0.0
H2692 H 0.81811 0.31946 0.39943 0.0
H2693 H 0.80605 0.30971 0.41627 0.0
H2694 H 0.8102 0.34312 0.43892 0.0
H2695 H 0.82242 0.35283 0.42219 0.0
H2696 H 0.81693 0.32343 0.45232 0.0
H2697 H 0.77081 0.313 0.42869 0.0
H2698 H 0.78352 0.30688 0.41986 0.0
H2699 H 0.78219 0.32347 0.42188 0.0
C2700 C 0.81622 0.32482 0.40788 0.0
C2701 C 0.82128 0.33689 0.40951 0.0
C2702 C 0.80925 0.31925 0.41749 0.0
C2703 C 0.80704 0.32573 0.42883 0.0
C2704 C 0.81174 0.33794 0.43026 0.0
H2705 H 0.76562 0.28974 0.49151 0.0
H2706 H 0.77114 0.30518 0.47518 0.0
C2707 C 0.81877 0.34346 0.42072 0.0
C2708 C 0.80104 0.31933 0.43968 0.0
H2709 H 0.77588 0.30113 0.44771 0.0
C2710 C 0.80784 0.31876 0.45135 0.0
C2711 C 0.7891 0.31335 0.43854 0.0
C2712 C 0.78093 0.31431 0.4266 0.0
C2713 C 0.80338 0.31183 0.46161 0.0
C2714 C 0.79191 0.3051 0.46015 0.0
C2715 C 0.78473 0.30621 0.44877 0.0
C2716 C 0.78808 0.29583 0.46978 0.0
C2717 C 0.81118 0.31149 0.47386 0.0
C2718 C 0.79564 0.28541 0.47195 0.0
C2719 C 0.79255 0.27668 0.48116 0.0
C2720 C 0.78177 0.27808 0.48844 0.0
C2721 C 0.77402 0.28842 0.48612 0.0
C2722 C 0.77713 0.29722 0.47679 0.0
H2723 H 0.81751 0.31977 0.47481 0.0
H2724 H 0.80509 0.31106 0.48225 0.0
H2725 H 0.81713 0.30307 0.47392 0.0
H2726 H 0.804 0.28404 0.46652 0.0
H2727 H 0.79872 0.26881 0.48257 0.0
H2728 H 0.12822 0.68759 0.7186 0.0
H2729 H 0.1079 0.69166 0.72795 0.0
H2730 H 0.09917 0.7178 0.69793 0.0
H2731 H 0.11953 0.71385 0.68855 0.0
H2732 H 0.09971 0.71453 0.73676 0.0
H2733 H 0.06725 0.69607 0.69866 0.0
H2734 H 0.08379 0.69241 0.69953 0.0
H2735 H 0.0787 0.70714 0.69325 0.0
C2736 C 0.12198 0.6942 0.71397 0.0
C2737 C 0.12553 0.70043 0.70284 0.0
C2738 C 0.11034 0.69647 0.7193 0.0
C2739 C 0.10196 0.70493 0.71357 0.0
C2740 C 0.10538 0.71103 0.70236 0.0
H2741 H 0.03149 0.73778 0.7336 0.0
H2742 H 0.0507 0.73122 0.72352 0.0
C2743 C 0.11703 0.70877 0.69701 0.0
C2744 C 0.08998 0.70787 0.71975 0.0
H2745 H 0.05802 0.70773 0.71513 0.0
C2746 C 0.09058 0.71296 0.73207 0.0
C2747 C 0.0781 0.70584 0.7136 0.0
C2748 C 0.07686 0.69996 0.70057 0.0
C2749 C 0.07964 0.71634 0.73831 0.0
C2750 C 0.06775 0.71437 0.73214 0.0
C2751 C 0.06715 0.70921 0.71985 0.0
C2752 C 0.05588 0.71794 0.73816 0.0
C2753 C 0.08093 0.72235 0.75128 0.0
C2754 C 0.05227 0.71249 0.74964 0.0
C2755 C 0.04131 0.71629 0.75551 0.0
C2756 C 0.03372 0.72561 0.74998 0.0
C2757 C 0.03721 0.73078 0.73828 0.0
C2758 C 0.04815 0.72697 0.73243 0.0
H2759 H 0.09063 0.72594 0.7533 0.0
H2760 H 0.07426 0.73017 0.75213 0.0
H2761 H 0.07872 0.71535 0.75867 0.0
H2762 H 0.05798 0.70534 0.75412 0.0
H2763 H 0.03896 0.71214 0.76451 0.0
H2764 H 0.83031 0.6208 0.66314 0.0
H2765 H 0.819 0.60393 0.67346 0.0
H2766 H 0.80043 0.63054 0.69695 0.0
H2767 H 0.81125 0.6476 0.68619 0.0
H2768 H 0.8194 0.59683 0.69803 0.0
H2769 H 0.7708 0.6102 0.68319 0.0
H2770 H 0.78454 0.61716 0.67632 0.0
H2771 H 0.77954 0.62214 0.69169 0.0
C2772 C 0.82365 0.62313 0.67033 0.0
C2773 C 0.82159 0.63562 0.67369 0.0
C2774 C 0.81727 0.61343 0.67632 0.0
C2775 C 0.80869 0.61595 0.68584 0.0
C2776 C 0.80679 0.62837 0.68943 0.0
H2777 H 0.76575 0.5639 0.73248 0.0
H2778 H 0.77587 0.58267 0.72401 0.0
C2779 C 0.81312 0.63811 0.68338 0.0
C2780 C 0.802 0.60547 0.69208 0.0
H2781 H 0.77281 0.5931 0.69729 0.0
C2782 C 0.80921 0.59604 0.69786 0.0
C2783 C 0.78869 0.60443 0.69189 0.0
C2784 C 0.78042 0.61395 0.68534 0.0
C2785 C 0.8035 0.58558 0.70337 0.0
C2786 C 0.79023 0.58448 0.70304 0.0
C2787 C 0.78299 0.594 0.69752 0.0
C2788 C 0.78378 0.57326 0.70797 0.0
C2789 C 0.81168 0.57575 0.70952 0.0
C2790 C 0.78472 0.56182 0.70164 0.0
C2791 C 0.77893 0.55112 0.70641 0.0
C2792 C 0.77212 0.55163 0.71766 0.0
C2793 C 0.77104 0.56317 0.72388 0.0
C2794 C 0.77676 0.5739 0.71903 0.0
H2795 H 0.8215 0.57913 0.71127 0.0
H2796 H 0.80778 0.57269 0.71869 0.0
H2797 H 0.81191 0.56751 0.70315 0.0
H2798 H 0.79003 0.56116 0.69304 0.0
H2799 H 0.78007 0.54239 0.70146 0.0
H2800 H 0.91911 0.34593 0.68231 0.0
H2801 H 0.93582 0.33238 0.69033 0.0
H2802 H 0.91059 0.31646 0.7174 0.0
H2803 H 0.8936 0.32964 0.70905 0.0
H2804 H 0.94675 0.33068 0.71405 0.0
H2805 H 0.92403 0.28555 0.70047 0.0
H2806 H 0.91826 0.30027 0.69462 0.0
H2807 H 0.91478 0.29519 0.71044 0.0
C2808 C 0.91703 0.33943 0.68986 0.0
C2809 C 0.90493 0.33879 0.69492 0.0
C2810 C 0.92664 0.33175 0.6945 0.0
C2811 C 0.92442 0.32323 0.70431 0.0
C2812 C 0.91246 0.32276 0.70963 0.0
H2813 H 0.97491 0.27124 0.74366 0.0
H2814 H 0.95681 0.28381 0.73689 0.0
C2815 C 0.9028 0.33043 0.70495 0.0
C2816 C 0.93473 0.31504 0.70902 0.0
H2817 H 0.94331 0.28459 0.71234 0.0
C2818 C 0.94599 0.3206 0.71366 0.0
C2819 C 0.93374 0.30188 0.70853 0.0
C2820 C 0.92211 0.29534 0.70315 0.0
C2821 C 0.95625 0.3134 0.71784 0.0
C2822 C 0.95531 0.30027 0.71722 0.0
C2823 C 0.944 0.29467 0.71278 0.0
C2824 C 0.96606 0.29223 0.72096 0.0
C2825 C 0.96801 0.3199 0.72299 0.0
C2826 C 0.97715 0.29258 0.71406 0.0
C2827 C 0.9875 0.28542 0.71789 0.0
C2828 C 0.98697 0.27775 0.72872 0.0
C2829 C 0.97569 0.27717 0.73539 0.0
C2830 C 0.96532 0.28429 0.73151 0.0
H2831 H 0.96621 0.32973 0.72561 0.0
H2832 H 0.97193 0.31497 0.73149 0.0
H2833 H 0.97524 0.31989 0.7156 0.0
H2834 H 0.97785 0.29853 0.70579 0.0
H2835 H 0.99603 0.2862 0.71259 0.0
H2836 H 0.20578 0.41209 0.67707 0.0
H2837 H 0.21866 0.42938 0.6855 0.0
H2838 H 0.20155 0.42535 0.72195 0.0
H2839 H 0.18825 0.40835 0.71345 0.0
H2840 H 0.20172 0.44937 0.71375 0.0
H2841 H 0.24929 0.42947 0.70958 0.0
H2842 H 0.24013 0.42908 0.69494 0.0
H2843 H 0.2351 0.42007 0.70832 0.0
C2844 C 0.20473 0.41488 0.68688 0.0
C2845 C 0.19592 0.40884 0.69456 0.0
C2846 C 0.21225 0.42466 0.69174 0.0
C2847 C 0.21122 0.42856 0.70441 0.0
C2848 C 0.20257 0.42245 0.71216 0.0
H2849 H 0.25832 0.48115 0.74757 0.0
H2850 H 0.24854 0.46245 0.73811 0.0
C2851 C 0.19503 0.41267 0.70731 0.0
C2852 C 0.21855 0.43951 0.70934 0.0
H2853 H 0.24839 0.45123 0.71401 0.0
C2854 C 0.21192 0.44975 0.71385 0.0
C2855 C 0.23187 0.43996 0.70957 0.0
C2856 C 0.23953 0.42902 0.70546 0.0
C2857 C 0.21822 0.46049 0.71843 0.0
C2858 C 0.23153 0.46112 0.71826 0.0
C2859 C 0.23818 0.45081 0.71395 0.0
C2860 C 0.23864 0.47228 0.72297 0.0
C2861 C 0.21057 0.47097 0.72365 0.0
C2862 C 0.23674 0.48396 0.71728 0.0
C2863 C 0.24229 0.49468 0.72268 0.0
C2864 C 0.24992 0.49392 0.73383 0.0
C2865 C 0.25246 0.4821 0.73902 0.0
C2866 C 0.24687 0.47138 0.73363 0.0
H2867 H 0.20094 0.4678 0.72605 0.0
H2868 H 0.21523 0.47505 0.73232 0.0
H2869 H 0.20965 0.47841 0.71638 0.0
H2870 H 0.23065 0.48482 0.70888 0.0
H2871 H 0.24021 0.50361 0.71837 0.0
H2872 H 0.12046 0.30755 0.33727 0.0
H2873 H 0.0997 0.30112 0.32886 0.0
H2874 H 0.10721 0.319 0.29316 0.0
H2875 H 0.12796 0.3257 0.30156 0.0
H2876 H 0.07923 0.31585 0.31805 0.0
H2877 H 0.09847 0.28223 0.28347 0.0
H2878 H 0.10786 0.28848 0.29665 0.0
H2879 H 0.10436 0.29799 0.28299 0.0
C2880 C 0.11766 0.31032 0.32771 0.0
C2881 C 0.12596 0.31711 0.32009 0.0
C2882 C 0.10579 0.30657 0.32289 0.0
C2883 C 0.10198 0.30944 0.31033 0.0
C2884 C 0.11006 0.3165 0.3028 0.0
H2885 H 0.03455 0.27562 0.27185 0.0
H2886 H 0.05272 0.28981 0.27539 0.0
C2887 C 0.12193 0.3203 0.30763 0.0
C2888 C 0.08968 0.30469 0.30514 0.0
H2889 H 0.0765 0.28294 0.28487 0.0
C2890 C 0.07862 0.30876 0.31069 0.0
C2891 C 0.08888 0.29554 0.29544 0.0
C2892 C 0.1005 0.2907 0.2893 0.0
C2893 C 0.06681 0.30363 0.30709 0.0
C2894 C 0.06608 0.29397 0.29791 0.0
C2895 C 0.07707 0.29035 0.2919 0.0
C2896 C 0.0544 0.28643 0.29567 0.0
C2897 C 0.05525 0.30846 0.31333 0.0
C2898 C 0.04934 0.27983 0.30585 0.0
C2899 C 0.03909 0.27178 0.30386 0.0
C2900 C 0.03364 0.27003 0.29161 0.0
C2901 C 0.03849 0.27684 0.2814 0.0
C2902 C 0.04888 0.28491 0.28341 0.0
H2903 H 0.05661 0.31829 0.31642 0.0
H2904 H 0.04684 0.30783 0.30681 0.0
H2905 H 0.05342 0.30282 0.32194 0.0
H2906 H 0.05359 0.2806 0.31533 0.0
H2907 H 0.03562 0.26669 0.31195 0.0
H2908 H 0.20511 0.61064 0.32301 0.0
H2909 H 0.21112 0.59039 0.31467 0.0
H2910 H 0.19386 0.59939 0.27823 0.0
H2911 H 0.18752 0.61959 0.28655 0.0
H2912 H 0.19542 0.57062 0.3024 0.0
H2913 H 0.23132 0.59101 0.27073 0.0
H2914 H 0.22511 0.59961 0.28385 0.0
H2915 H 0.21566 0.5972 0.2696 0.0
C2916 C 0.20237 0.60827 0.31329 0.0
C2917 C 0.19588 0.61684 0.30545 0.0
C2918 C 0.20589 0.59669 0.30851 0.0
C2919 C 0.20308 0.59345 0.29579 0.0
C2920 C 0.1963 0.60179 0.28802 0.0
H2921 H 0.23731 0.52899 0.25808 0.0
H2922 H 0.22293 0.54654 0.26097 0.0
C2923 C 0.19272 0.61335 0.2928 0.0
C2924 C 0.20761 0.58148 0.29065 0.0
H2925 H 0.22983 0.56923 0.27163 0.0
C2926 C 0.20284 0.5703 0.29555 0.0
C2927 C 0.21717 0.58107 0.2816 0.0
C2928 C 0.22272 0.59283 0.27614 0.0
C2929 C 0.20768 0.55873 0.29197 0.0
C2930 C 0.21777 0.55835 0.2835 0.0
C2931 C 0.22209 0.5695 0.2781 0.0
C2932 C 0.22509 0.54682 0.28153 0.0
C2933 C 0.20206 0.54704 0.29747 0.0
C2934 C 0.23098 0.54111 0.29208 0.0
C2935 C 0.23912 0.5312 0.29045 0.0
C2936 C 0.24166 0.52675 0.27822 0.0
C2937 C 0.23544 0.53214 0.26762 0.0
C2938 C 0.22728 0.54219 0.26927 0.0
H2939 H 0.192 0.54835 0.29965 0.0
H2940 H 0.20278 0.53902 0.29087 0.0
H2941 H 0.20716 0.54476 0.30653 0.0
H2942 H 0.22972 0.54466 0.3016 0.0
H2943 H 0.24376 0.52727 0.29883 0.0
H2944 H 0.88365 0.68396 0.29687 0.0
H2945 H 0.90049 0.69272 0.28404 0.0
H2946 H 0.92339 0.69883 0.31813 0.0
H2947 H 0.90686 0.6898 0.33091 0.0
H2948 H 0.91087 0.71622 0.28508 0.0
H2949 H 0.94789 0.68163 0.29523 0.0
H2950 H 0.93155 0.67875 0.2986 0.0
H2951 H 0.9415 0.68754 0.30961 0.0
C2952 C 0.89234 0.68702 0.30161 0.0
C2953 C 0.89387 0.6862 0.31494 0.0
C2954 C 0.90194 0.69206 0.29427 0.0
C2955 C 0.91331 0.69622 0.30009 0.0
C2956 C 0.91483 0.69542 0.31338 0.0
H2957 H 0.96572 0.75256 0.28703 0.0
H2958 H 0.94783 0.73898 0.29094 0.0
C2959 C 0.90527 0.69043 0.32071 0.0
C2960 C 0.92334 0.70212 0.2925 0.0
H2961 H 0.95507 0.7019 0.28824 0.0
C2962 C 0.92049 0.71294 0.28556 0.0
C2963 C 0.93586 0.69774 0.29287 0.0
C2964 C 0.93936 0.6857 0.29937 0.0
C2965 C 0.92997 0.71998 0.27981 0.0
C2966 C 0.94266 0.71619 0.28118 0.0
C2967 C 0.94537 0.70489 0.2873 0.0
C2968 C 0.95327 0.72459 0.27787 0.0
C2969 C 0.92637 0.73162 0.27262 0.0
C2970 C 0.96246 0.72096 0.26931 0.0
C2971 C 0.97284 0.72878 0.26703 0.0
C2972 C 0.97427 0.74023 0.27346 0.0
C2973 C 0.96497 0.74381 0.28192 0.0
C2974 C 0.95463 0.73609 0.2841 0.0
H2975 H 0.91654 0.73096 0.26872 0.0
H2976 H 0.92696 0.73969 0.27922 0.0
H2977 H 0.93278 0.73342 0.26467 0.0
H2978 H 0.96165 0.71205 0.26449 0.0
H2979 H 0.97988 0.72575 0.2605 0.0
H2980 H 0.83865 0.41186 0.34473 0.0
H2981 H 0.83063 0.42771 0.33007 0.0
H2982 H 0.81557 0.39903 0.305 0.0
H2983 H 0.82352 0.38303 0.31971 0.0
H2984 H 0.82852 0.41794 0.29229 0.0
H2985 H 0.79382 0.43771 0.32479 0.0
H2986 H 0.8095 0.43709 0.33162 0.0
H2987 H 0.80118 0.42286 0.32763 0.0
C2988 C 0.83348 0.40889 0.3362 0.0
C2989 C 0.83161 0.39615 0.33348 0.0
C2990 C 0.82891 0.41798 0.3278 0.0
C2991 C 0.82231 0.41456 0.31654 0.0
C2992 C 0.82059 0.40187 0.31367 0.0
H2993 H 0.77777 0.46591 0.27033 0.0
H2994 H 0.78522 0.44846 0.28327 0.0
C2995 C 0.82517 0.39274 0.32207 0.0
C2996 C 0.81737 0.42427 0.30772 0.0
H2997 H 0.79802 0.44941 0.30615 0.0
C2998 C 0.8218 0.42479 0.29528 0.0
C2999 C 0.80848 0.4331 0.31159 0.0
C3000 C 0.80286 0.43263 0.32459 0.0
C3001 C 0.81779 0.43408 0.2867 0.0
C3002 C 0.80928 0.4432 0.29075 0.0
C3003 C 0.80464 0.4425 0.30309 0.0
C3004 C 0.80493 0.45351 0.28234 0.0
C3005 C 0.82258 0.43394 0.27334 0.0
C3006 C 0.81353 0.4622 0.2775 0.0
C3007 C 0.80928 0.47223 0.27009 0.0
C3008 C 0.79633 0.47385 0.26751 0.0
C3009 C 0.78778 0.46507 0.2723 0.0
C3010 C 0.79203 0.45503 0.27965 0.0
H3011 H 0.82613 0.42462 0.27073 0.0
H3012 H 0.81508 0.43662 0.26631 0.0
H3013 H 0.83048 0.44074 0.27268 0.0
H3014 H 0.82351 0.46138 0.27968 0.0
H3015 H 0.8161 0.4789 0.2667 0.0
H3016 H 0.20921 0.63788 0.68701 0.0
H3017 H 0.21582 0.61842 0.69718 0.0
H3018 H 0.18394 0.61981 0.72149 0.0
H3019 H 0.1773 0.63924 0.71143 0.0
H3020 H 0.22225 0.61507 0.7226 0.0
H3021 H 0.18206 0.58408 0.70849 0.0
H3022 H 0.18489 0.59887 0.70087 0.0
H3023 H 0.17752 0.59827 0.71603 0.0
C3024 C 0.20357 0.63401 0.69448 0.0
C3025 C 0.19269 0.64012 0.69837 0.0
C3026 C 0.20733 0.62287 0.70025 0.0
C3027 C 0.20028 0.61756 0.70998 0.0
C3028 C 0.18936 0.62355 0.71379 0.0
H3029 H 0.21183 0.55494 0.76158 0.0
H3030 H 0.20386 0.57337 0.75038 0.0
C3031 C 0.18557 0.63468 0.70802 0.0
C3032 C 0.20478 0.60618 0.71666 0.0
H3033 H 0.19651 0.5763 0.72421 0.0
C3034 C 0.21666 0.60657 0.72288 0.0
C3035 C 0.19743 0.59512 0.71709 0.0
C3036 C 0.18481 0.59397 0.71017 0.0
C3037 C 0.22132 0.59627 0.72968 0.0
C3038 C 0.214 0.5852 0.73009 0.0
C3039 C 0.2021 0.58481 0.72391 0.0
C3040 C 0.21865 0.57387 0.73671 0.0
C3041 C 0.23396 0.59741 0.73657 0.0
C3042 C 0.22947 0.56792 0.73261 0.0
C3043 C 0.23402 0.55738 0.73894 0.0
C3044 C 0.22781 0.55251 0.74952 0.0
C3045 C 0.21681 0.55838 0.75345 0.0
C3046 C 0.21227 0.56894 0.74709 0.0
H3047 H 0.23684 0.60729 0.73807 0.0
H3048 H 0.23383 0.59268 0.74596 0.0
H3049 H 0.2412 0.5929 0.7308 0.0
H3050 H 0.23438 0.57139 0.72444 0.0
H3051 H 0.24231 0.55297 0.73542 0.0
H3052 H 0.22147 0.36832 0.32712 0.0
H3053 H 0.23197 0.38786 0.32173 0.0
H3054 H 0.19867 0.40811 0.33096 0.0
H3055 H 0.18803 0.38851 0.33629 0.0
H3056 H 0.20806 0.41589 0.30875 0.0
H3057 H 0.24671 0.41434 0.34521 0.0
H3058 H 0.24598 0.40057 0.33554 0.0
H3059 H 0.23313 0.40413 0.34564 0.0
C3060 C 0.21643 0.37694 0.3282 0.0
C3061 C 0.20394 0.37685 0.33225 0.0
C3062 C 0.22247 0.38813 0.32513 0.0
C3063 C 0.21622 0.39951 0.32619 0.0
C3064 C 0.20372 0.39946 0.33015 0.0
H3065 H 0.25519 0.47155 0.32007 0.0
H3066 H 0.24362 0.45336 0.32782 0.0
C3067 C 0.19763 0.38825 0.33315 0.0
C3068 C 0.2226 0.41137 0.32266 0.0
H3069 H 0.2493 0.42886 0.32819 0.0
C3070 C 0.21702 0.41877 0.31308 0.0
C3071 C 0.2342 0.41528 0.32844 0.0
C3072 C 0.24029 0.40823 0.33937 0.0
C3073 C 0.22291 0.42973 0.30885 0.0
C3074 C 0.23485 0.43326 0.31413 0.0
C3075 C 0.24023 0.42608 0.324 0.0
C3076 C 0.24198 0.44426 0.30945 0.0
C3077 C 0.21619 0.43749 0.29885 0.0
C3078 C 0.24515 0.4451 0.2966 0.0
C3079 C 0.25173 0.45548 0.29216 0.0
C3080 C 0.25545 0.46521 0.30049 0.0
C3081 C 0.25255 0.4642 0.31342 0.0
C3082 C 0.24588 0.45383 0.31785 0.0
H3083 H 0.20586 0.43574 0.29871 0.0
H3084 H 0.21798 0.44758 0.30046 0.0
H3085 H 0.21964 0.43499 0.28933 0.0
H3086 H 0.24259 0.43767 0.29001 0.0
H3087 H 0.25404 0.45582 0.28221 0.0
H3088 H 0.14266 0.7095 0.31714 0.0
H3089 H 0.1225 0.71954 0.31264 0.0
H3090 H 0.10331 0.68415 0.31585 0.0
H3091 H 0.12348 0.67402 0.32061 0.0
H3092 H 0.10515 0.71387 0.29219 0.0
H3093 H 0.08386 0.70778 0.33947 0.0
H3094 H 0.10054 0.70629 0.33715 0.0
H3095 H 0.0899 0.69392 0.33237 0.0
C3096 C 0.13414 0.70386 0.31709 0.0
C3097 C 0.13468 0.69096 0.31935 0.0
C3098 C 0.12263 0.70961 0.31442 0.0
C3099 C 0.11139 0.70262 0.31405 0.0
C3100 C 0.11186 0.68974 0.31627 0.0
H3101 H 0.03963 0.72652 0.28061 0.0
H3102 H 0.05872 0.71515 0.2864 0.0
C3103 C 0.1234 0.68395 0.31888 0.0
C3104 C 0.09928 0.70884 0.31092 0.0
H3105 H 0.07096 0.71654 0.32311 0.0
C3106 C 0.09766 0.71443 0.29893 0.0
C3107 C 0.08959 0.70966 0.31979 0.0
C3108 C 0.09103 0.7042 0.33297 0.0
C3109 C 0.08657 0.72076 0.29552 0.0
C3110 C 0.0768 0.72143 0.30432 0.0
C3111 C 0.07844 0.71592 0.31636 0.0
C3112 C 0.0649 0.72803 0.30121 0.0
C3113 C 0.08549 0.7269 0.28263 0.0
C3114 C 0.06188 0.73888 0.30783 0.0
C3115 C 0.05098 0.74548 0.30449 0.0
C3116 C 0.04285 0.74131 0.29449 0.0
C3117 C 0.04577 0.7302 0.28816 0.0
C3118 C 0.05667 0.72364 0.29148 0.0
H3119 H 0.09477 0.7278 0.27812 0.0
H3120 H 0.0792 0.72118 0.27627 0.0
H3121 H 0.08133 0.73629 0.28341 0.0
H3122 H 0.0681 0.74242 0.3154 0.0
H3123 H 0.04914 0.75402 0.30954 0.0
H3124 H 0.8061 0.62571 0.33631 0.0
H3125 H 0.79327 0.60825 0.32778 0.0
H3126 H 0.82477 0.59575 0.30652 0.0
H3127 H 0.83752 0.61318 0.31476 0.0
H3128 H 0.78745 0.60085 0.30147 0.0
H3129 H 0.81454 0.56513 0.32818 0.0
H3130 H 0.81516 0.58145 0.3324 0.0
H3131 H 0.82433 0.57572 0.31959 0.0
C3132 C 0.81024 0.61933 0.3297 0.0
C3133 C 0.82291 0.62077 0.32636 0.0
C3134 C 0.80292 0.60932 0.32489 0.0
C3135 C 0.80815 0.60057 0.31674 0.0
C3136 C 0.82063 0.60224 0.31305 0.0
H3137 H 0.79748 0.54153 0.26728 0.0
H3138 H 0.80301 0.55857 0.28167 0.0
C3139 C 0.82792 0.6122 0.31779 0.0
C3140 C 0.80077 0.5896 0.31198 0.0
H3141 H 0.80217 0.55791 0.31004 0.0
C3142 C 0.79044 0.59143 0.30355 0.0
C3143 C 0.80463 0.57732 0.31482 0.0
C3144 C 0.8152 0.57475 0.32434 0.0
C3145 C 0.7845 0.58133 0.29715 0.0
C3146 C 0.78897 0.56914 0.29933 0.0
C3147 C 0.79876 0.56727 0.30837 0.0
C3148 C 0.78514 0.55857 0.29092 0.0
C3149 C 0.77407 0.58377 0.28745 0.0
C3150 C 0.77322 0.55279 0.29142 0.0
C3151 C 0.76999 0.54286 0.28314 0.0
C3152 C 0.77862 0.5387 0.27423 0.0
C3153 C 0.79055 0.5445 0.27394 0.0
C3154 C 0.79376 0.55426 0.28219 0.0
H3155 H 0.77199 0.59385 0.28652 0.0
H3156 H 0.77667 0.58012 0.27801 0.0
H3157 H 0.76538 0.57879 0.29025 0.0
H3158 H 0.76646 0.55594 0.29818 0.0
H3159 H 0.76073 0.53859 0.28359 0.0
H3160 H 0.90884 0.33426 0.3532 0.0
H3161 H 0.92424 0.32008 0.34464 0.0
H3162 H 0.89431 0.29517 0.33193 0.0
H3163 H 0.87876 0.30938 0.34044 0.0
H3164 H 0.91433 0.28296 0.34409 0.0
H3165 H 0.93159 0.31506 0.30708 0.0
H3166 H 0.93217 0.32174 0.32275 0.0
H3167 H 0.9172 0.31768 0.31531 0.0
C3168 C 0.90549 0.32585 0.34844 0.0
C3169 C 0.89253 0.32304 0.34738 0.0
C3170 C 0.91433 0.31774 0.34356 0.0
C3171 C 0.91043 0.30668 0.33743 0.0
C3172 C 0.89753 0.30369 0.33656 0.0
H3173 H 0.96059 0.26234 0.29184 0.0
H3174 H 0.94307 0.27465 0.29926 0.0
C3175 C 0.88865 0.3118 0.34147 0.0
C3176 C 0.91987 0.29818 0.33211 0.0
H3177 H 0.94396 0.2971 0.3114 0.0
C3178 C 0.92076 0.28601 0.33688 0.0
C3179 C 0.92813 0.30211 0.32256 0.0
C3180 C 0.92717 0.31482 0.31652 0.0
C3181 C 0.92993 0.27779 0.33264 0.0
C3182 C 0.93858 0.28192 0.32353 0.0
C3183 C 0.93743 0.29397 0.31849 0.0
C3184 C 0.94896 0.27397 0.31914 0.0
C3185 C 0.93021 0.26471 0.33787 0.0
C3186 C 0.95816 0.26954 0.32783 0.0
C3187 C 0.96822 0.26251 0.3236 0.0
C3188 C 0.96936 0.25986 0.31057 0.0
C3189 C 0.9601 0.26431 0.30191 0.0
C3190 C 0.95003 0.27131 0.30615 0.0
H3191 H 0.92099 0.26193 0.34174 0.0
H3192 H 0.93271 0.2579 0.33043 0.0
H3193 H 0.93739 0.26423 0.34574 0.0
H3194 H 0.95772 0.27174 0.33786 0.0
H3195 H 0.97526 0.25943 0.33051 0.0
H3196 H 0.85311 0.41283 0.71875 0.0
H3197 H 0.84336 0.43056 0.72893 0.0
H3198 H 0.80993 0.42513 0.70515 0.0
H3199 H 0.81986 0.40782 0.69443 0.0
H3200 H 0.81711 0.44885 0.70523 0.0
H3201 H 0.81678 0.43248 0.75515 0.0
H3202 H 0.8322 0.4323 0.74871 0.0
H3203 H 0.82002 0.42225 0.74205 0.0
C3204 C 0.84368 0.41538 0.71566 0.0
C3205 C 0.83733 0.40885 0.7057 0.0
C3206 C 0.83803 0.42544 0.72165 0.0
C3207 C 0.82581 0.42911 0.71797 0.0
C3208 C 0.81934 0.42245 0.70823 0.0
H3209 H 0.77848 0.48283 0.75515 0.0
H3210 H 0.78913 0.46405 0.74827 0.0
C3211 C 0.82501 0.41245 0.70218 0.0
C3212 C 0.82009 0.44038 0.72362 0.0
H3213 H 0.81244 0.45401 0.75174 0.0
C3214 C 0.81605 0.44993 0.7154 0.0
C3215 C 0.81856 0.44179 0.73689 0.0
C3216 C 0.822 0.43161 0.7462 0.0
C3217 C 0.81065 0.46085 0.72004 0.0
C3218 C 0.80958 0.46248 0.73334 0.0
C3219 C 0.81345 0.45287 0.74157 0.0
C3220 C 0.80401 0.47392 0.73877 0.0
C3221 C 0.80588 0.47039 0.71058 0.0
C3222 C 0.8091 0.48575 0.73622 0.0
C3223 C 0.80298 0.49654 0.74007 0.0
C3224 C 0.79173 0.49571 0.74672 0.0
C3225 C 0.78712 0.48384 0.75003 0.0
C3226 C 0.79319 0.47306 0.74608 0.0
H3227 H 0.80421 0.46628 0.70095 0.0
H3228 H 0.79697 0.47456 0.71368 0.0
H3229 H 0.81301 0.47796 0.70977 0.0
H3230 H 0.81763 0.48667 0.73092 0.0
H3231 H 0.80686 0.50551 0.73746 0.0
H3232 H 0.12343 0.35742 0.72148 0.0
H3233 H 0.10677 0.34727 0.7333 0.0
H3234 H 0.10978 0.31443 0.71 0.0
H3235 H 0.126 0.32473 0.69772 0.0
H3236 H 0.08583 0.3213 0.7117 0.0
H3237 H 0.10781 0.32056 0.76018 0.0
H3238 H 0.10741 0.33586 0.75338 0.0
H3239 H 0.11666 0.32398 0.74621 0.0
C3240 C 0.12058 0.34803 0.71885 0.0
C3241 C 0.12609 0.34194 0.70858 0.0
C3242 C 0.11115 0.34217 0.72576 0.0
C3243 C 0.10711 0.33001 0.72268 0.0
C3244 C 0.11277 0.32379 0.71262 0.0
H3245 H 0.0571 0.28108 0.76391 0.0
H3246 H 0.07527 0.29233 0.75575 0.0
C3247 C 0.12215 0.32967 0.70566 0.0
C3248 C 0.0964 0.32408 0.72931 0.0
H3249 H 0.08582 0.31577 0.75855 0.0
C3250 C 0.08587 0.32006 0.72194 0.0
C3251 C 0.09646 0.32233 0.74267 0.0
C3252 C 0.10774 0.32579 0.75107 0.0
C3253 C 0.07539 0.31446 0.72752 0.0
C3254 C 0.07525 0.31312 0.74093 0.0
C3255 C 0.08584 0.31698 0.74831 0.0
C3256 C 0.06437 0.30725 0.74732 0.0
C3257 C 0.06469 0.30977 0.71895 0.0
C3258 C 0.05224 0.31219 0.74582 0.0
C3259 C 0.0418 0.30575 0.75042 0.0
C3260 C 0.0433 0.2943 0.75676 0.0
C3261 C 0.05557 0.28985 0.75906 0.0
C3262 C 0.06599 0.29626 0.75437 0.0
H3263 H 0.06767 0.3085 0.70899 0.0
H3264 H 0.06089 0.30076 0.72241 0.0
H3265 H 0.05699 0.31665 0.71882 0.0
H3266 H 0.05078 0.32083 0.74071 0.0
H3267 H 0.03251 0.30951 0.74858 0.0
H3268 H 0.89306 0.71965 0.66056 0.0
H3269 H 0.91023 0.73126 0.67144 0.0
H3270 H 0.90174 0.713 0.7067 0.0
H3271 H 0.88439 0.70156 0.69598 0.0
H3272 H 0.90712 0.73941 0.70892 0.0
H3273 H 0.94342 0.71378 0.68262 0.0
H3274 H 0.93138 0.72138 0.67319 0.0
H3275 H 0.92728 0.70844 0.68308 0.0
C3276 C 0.89469 0.71826 0.67068 0.0
C3277 C 0.88738 0.7096 0.67738 0.0
C3278 C 0.90459 0.72483 0.67686 0.0
C3279 C 0.90736 0.72288 0.68984 0.0
C3280 C 0.89979 0.71461 0.69666 0.0
H3281 H 0.96851 0.726 0.74146 0.0
H3282 H 0.95152 0.72208 0.72588 0.0
C3283 C 0.88994 0.70801 0.6905 0.0
C3284 C 0.9185 0.72891 0.69628 0.0
H3285 H 0.95063 0.72791 0.69834 0.0
C3286 C 0.91665 0.73708 0.70648 0.0
C3287 C 0.93092 0.72579 0.69311 0.0
C3288 C 0.93346 0.71681 0.68247 0.0
C3289 C 0.92688 0.74189 0.71385 0.0
C3290 C 0.93925 0.73846 0.71092 0.0
C3291 C 0.94113 0.73064 0.70045 0.0
C3292 C 0.95012 0.74122 0.71973 0.0
C3293 C 0.92438 0.75006 0.72515 0.0
C3294 C 0.95517 0.75331 0.72131 0.0
C3295 C 0.96506 0.75561 0.73024 0.0
C3296 C 0.96989 0.74585 0.73779 0.0
C3297 C 0.96496 0.73376 0.7359 0.0
C3298 C 0.95525 0.73147 0.72696 0.0
H3299 H 0.91416 0.75119 0.72666 0.0
H3300 H 0.92883 0.74606 0.73391 0.0
H3301 H 0.92866 0.75941 0.7237 0.0
H3302 H 0.95138 0.76096 0.71574 0.0
H3303 H 0.96866 0.76502 0.73151 0.0
H3304 H 0.68783 0.22963 0.63658 0.0
H3305 H 0.69392 0.23823 0.61606 0.0
H3306 H 0.71175 0.20364 0.60695 0.0
H3307 H 0.70593 0.19505 0.62745 0.0
H3308 H 0.71851 0.2412 0.60775 0.0
H3309 H 0.69064 0.21089 0.57458 0.0
H3310 H 0.68721 0.21225 0.59125 0.0
H3311 H 0.69956 0.20221 0.58625 0.0
C3312 C 0.69302 0.22382 0.6302 0.0
C3313 C 0.69638 0.21162 0.63371 0.0
C3314 C 0.69643 0.22875 0.61844 0.0
C3315 C 0.70313 0.22153 0.60989 0.0
C3316 C 0.70631 0.20929 0.61326 0.0
H3317 H 0.74889 0.22326 0.54712 0.0
H3318 H 0.73468 0.21946 0.56437 0.0
C3319 C 0.70296 0.20438 0.62501 0.0
C3320 C 0.70764 0.22697 0.59784 0.0
H3321 H 0.70847 0.22153 0.56586 0.0
C3322 C 0.71612 0.23709 0.59854 0.0
C3323 C 0.70445 0.22165 0.58584 0.0
C3324 C 0.69486 0.21123 0.58439 0.0
C3325 C 0.7222 0.24143 0.58767 0.0
C3326 C 0.71955 0.23562 0.57578 0.0
C3327 C 0.71051 0.22598 0.57498 0.0
C3328 C 0.7273 0.23813 0.56452 0.0
C3329 C 0.73201 0.25165 0.58915 0.0
C3330 C 0.72771 0.24988 0.55861 0.0
C3331 C 0.73593 0.25212 0.54863 0.0
C3332 C 0.74386 0.24264 0.54448 0.0
C3333 C 0.74302 0.23081 0.55014 0.0
C3334 C 0.73484 0.22859 0.56 0.0
H3335 H 0.73422 0.25392 0.5993 0.0
H3336 H 0.74084 0.24893 0.58457 0.0
H3337 H 0.72851 0.2602 0.58438 0.0
H3338 H 0.72182 0.25733 0.56184 0.0
H3339 H 0.73634 0.26132 0.54444 0.0
H3340 H 0.32119 0.20772 0.63546 0.0
H3341 H 0.30902 0.21794 0.61842 0.0
H3342 H 0.30377 0.18279 0.59907 0.0
H3343 H 0.31626 0.17249 0.61586 0.0
H3344 H 0.31684 0.21539 0.59074 0.0
H3345 H 0.26755 0.20051 0.59998 0.0
H3346 H 0.27947 0.20149 0.61262 0.0
H3347 H 0.27993 0.18919 0.60112 0.0
C3348 C 0.31745 0.20212 0.62761 0.0
C3349 C 0.31981 0.18927 0.62704 0.0
C3350 C 0.31041 0.20798 0.61793 0.0
C3351 C 0.30544 0.2011 0.60755 0.0
C3352 C 0.30739 0.18823 0.6071 0.0
H3353 H 0.26672 0.23133 0.53863 0.0
H3354 H 0.27437 0.21645 0.5549 0.0
C3355 C 0.3145 0.18236 0.61675 0.0
C3356 C 0.29922 0.20765 0.5967 0.0
H3357 H 0.27058 0.21408 0.58265 0.0
C3358 C 0.30674 0.21504 0.58891 0.0
C3359 C 0.28608 0.20702 0.59425 0.0
C3360 C 0.27769 0.19917 0.60241 0.0
C3361 C 0.30143 0.22206 0.57891 0.0
C3362 C 0.2882 0.22194 0.57682 0.0
C3363 C 0.2807 0.21418 0.5843 0.0
C3364 C 0.28212 0.23065 0.56762 0.0
C3365 C 0.31004 0.22967 0.57073 0.0
C3366 C 0.28351 0.24349 0.56964 0.0
C3367 C 0.27926 0.2519 0.56043 0.0
C3368 C 0.27338 0.24769 0.54902 0.0
C3369 C 0.27123 0.23483 0.54732 0.0
C3370 C 0.27561 0.22635 0.55658 0.0
H3371 H 0.31978 0.226 0.57107 0.0
H3372 H 0.30653 0.2298 0.56066 0.0
H3373 H 0.31045 0.2394 0.57429 0.0
H3374 H 0.28827 0.24702 0.5782 0.0
H3375 H 0.28089 0.26175 0.56213 0.0
H3376 H 0.33372 0.84158 0.61331 0.0
H3377 H 0.32503 0.82788 0.59661 0.0
H3378 H 0.32439 0.79734 0.6232 0.0
H3379 H 0.33328 0.81102 0.63998 0.0
H3380 H 0.33382 0.7903 0.60087 0.0
H3381 H 0.28939 0.81543 0.59135 0.0
H3382 H 0.30295 0.82535 0.58988 0.0
H3383 H 0.29948 0.81867 0.60511 0.0
C3384 C 0.33155 0.832 0.61567 0.0
C3385 C 0.33408 0.82743 0.62802 0.0
C3386 C 0.32656 0.82417 0.6061 0.0
C3387 C 0.3238 0.81162 0.60868 0.0
C3388 C 0.32637 0.807 0.62099 0.0
H3389 H 0.27923 0.76482 0.5558 0.0
H3390 H 0.28706 0.77683 0.57425 0.0
C3391 C 0.33147 0.81482 0.63056 0.0
C3392 C 0.31864 0.80326 0.59842 0.0
H3393 H 0.29499 0.80042 0.57577 0.0
C3394 C 0.32528 0.79246 0.59545 0.0
C3395 C 0.30738 0.80595 0.59145 0.0
C3396 C 0.29932 0.81691 0.59469 0.0
C3397 C 0.32116 0.78448 0.58551 0.0
C3398 C 0.31025 0.78752 0.57811 0.0
C3399 C 0.30344 0.79815 0.58131 0.0
C3400 C 0.3057 0.77984 0.56704 0.0
C3401 C 0.32844 0.77276 0.58317 0.0
C3402 C 0.31352 0.77757 0.55678 0.0
C3403 C 0.30907 0.77064 0.54624 0.0
C3404 C 0.29663 0.76601 0.54564 0.0
C3405 C 0.28881 0.76835 0.5559 0.0
C3406 C 0.29329 0.77519 0.56647 0.0
H3407 H 0.33393 0.76988 0.59182 0.0
H3408 H 0.32208 0.76496 0.58015 0.0
H3409 H 0.33519 0.77451 0.57551 0.0
H3410 H 0.32302 0.78134 0.5568 0.0
H3411 H 0.31527 0.76918 0.53842 0.0
H3412 H 0.70049 0.83398 0.62656 0.0
H3413 H 0.71376 0.82656 0.60953 0.0
H3414 H 0.68846 0.84281 0.58149 0.0
H3415 H 0.67525 0.85033 0.59837 0.0
H3416 H 0.69482 0.81846 0.5758 0.0
H3417 H 0.73743 0.84722 0.58745 0.0
H3418 H 0.73174 0.83806 0.60041 0.0
H3419 H 0.72228 0.85042 0.59394 0.0
C3420 C 0.69783 0.83608 0.61678 0.0
C3421 C 0.68677 0.84273 0.61385 0.0
C3422 C 0.70543 0.83185 0.60705 0.0
C3423 C 0.70218 0.83425 0.59424 0.0
C3424 C 0.69115 0.84084 0.5913 0.0
H3425 H 0.7463 0.82769 0.52647 0.0
H3426 H 0.73455 0.83492 0.54468 0.0
C3427 C 0.68356 0.84507 0.60099 0.0
C3428 C 0.71003 0.82966 0.5838 0.0
H3429 H 0.73917 0.83217 0.57111 0.0
C3430 C 0.70452 0.82144 0.57478 0.0
C3431 C 0.72264 0.83368 0.5824 0.0
C3432 C 0.72888 0.84292 0.59148 0.0
C3433 C 0.71128 0.81708 0.56445 0.0
C3434 C 0.72398 0.82089 0.56319 0.0
C3435 C 0.72947 0.82918 0.57215 0.0
C3436 C 0.7316 0.81652 0.55248 0.0
C3437 C 0.70469 0.80863 0.55481 0.0
C3438 C 0.73408 0.80382 0.55097 0.0
C3439 C 0.74081 0.79967 0.54059 0.0
C3440 C 0.74527 0.80814 0.53152 0.0
C3441 C 0.74307 0.82092 0.53328 0.0
C3442 C 0.73632 0.82506 0.54367 0.0
H3443 H 0.69428 0.80911 0.55537 0.0
H3444 H 0.70735 0.81108 0.54498 0.0
H3445 H 0.7075 0.79887 0.55666 0.0
H3446 H 0.73078 0.79709 0.55782 0.0
H3447 H 0.74257 0.78981 0.53973 0.0
H3448 H 0.6703 0.79966 0.37506 0.0
H3449 H 0.67862 0.79215 0.39562 0.0
H3450 H 0.70251 0.82477 0.3991 0.0
H3451 H 0.69443 0.83225 0.37854 0.0
H3452 H 0.70374 0.7868 0.40224 0.0
H3453 H 0.68569 0.82349 0.4336 0.0
H3454 H 0.67958 0.82098 0.41755 0.0
H3455 H 0.69395 0.82972 0.42036 0.0
C3456 C 0.67732 0.80525 0.3802 0.0
C3457 C 0.68166 0.8166 0.37511 0.0
C3458 C 0.68202 0.80097 0.39198 0.0
C3459 C 0.69105 0.80798 0.39899 0.0
C3460 C 0.69532 0.81934 0.39401 0.0
H3461 H 0.74424 0.80603 0.45932 0.0
H3462 H 0.72936 0.80972 0.44177 0.0
C3463 C 0.69066 0.82362 0.38224 0.0
C3464 C 0.69659 0.80319 0.41118 0.0
H3465 H 0.70284 0.81141 0.44216 0.0
C3466 C 0.70336 0.79204 0.41105 0.0
C3467 C 0.696 0.80999 0.42268 0.0
C3468 C 0.68831 0.82164 0.42362 0.0
C3469 C 0.71024 0.78795 0.42188 0.0
C3470 C 0.7102 0.79513 0.43318 0.0
C3471 C 0.70289 0.80593 0.43348 0.0
C3472 C 0.71889 0.79255 0.4442 0.0
C3473 C 0.7181 0.7764 0.42096 0.0
C3474 C 0.71791 0.78166 0.45154 0.0
C3475 C 0.72651 0.77947 0.46172 0.0
C3476 C 0.73619 0.78815 0.46466 0.0
C3477 C 0.73696 0.79908 0.45734 0.0
C3478 C 0.72842 0.80125 0.44728 0.0
H3479 H 0.71845 0.77287 0.41104 0.0
H3480 H 0.72786 0.77829 0.42458 0.0
H3481 H 0.71403 0.76895 0.42694 0.0
H3482 H 0.71051 0.77488 0.44942 0.0
H3483 H 0.72564 0.77098 0.46719 0.0
H3484 H 0.7238 0.18153 0.38368 0.0
H3485 H 0.73395 0.18692 0.4042 0.0
H3486 H 0.70136 0.20793 0.41416 0.0
H3487 H 0.69113 0.20254 0.39366 0.0
H3488 H 0.74019 0.21014 0.41313 0.0
H3489 H 0.70737 0.18709 0.4459 0.0
H3490 H 0.70723 0.18376 0.42905 0.0
H3491 H 0.69974 0.19749 0.43484 0.0
C3492 C 0.71877 0.18726 0.39026 0.0
C3493 C 0.70664 0.1916 0.38703 0.0
C3494 C 0.72457 0.1903 0.402 0.0
C3495 C 0.71837 0.19769 0.4108 0.0
C3496 C 0.70622 0.20196 0.40766 0.0
H3497 H 0.73929 0.23382 0.48217 0.0
H3498 H 0.72886 0.22615 0.46258 0.0
C3499 C 0.70039 0.19888 0.39593 0.0
C3500 C 0.7249 0.2015 0.42294 0.0
H3501 H 0.72248 0.20117 0.4553 0.0
C3502 C 0.73637 0.20808 0.42235 0.0
C3503 C 0.7199 0.19884 0.43498 0.0
C3504 C 0.70794 0.1913 0.43628 0.0
C3505 C 0.74282 0.21232 0.43343 0.0
C3506 C 0.73776 0.20976 0.44545 0.0
C3507 C 0.72634 0.20312 0.44607 0.0
C3508 C 0.74407 0.21413 0.45748 0.0
C3509 C 0.75483 0.21979 0.43217 0.0
C3510 C 0.75603 0.20977 0.46122 0.0
C3511 C 0.76206 0.21418 0.47241 0.0
C3512 C 0.75624 0.22303 0.48008 0.0
C3513 C 0.74415 0.22718 0.4764 0.0
C3514 C 0.73812 0.22274 0.46524 0.0
H3515 H 0.75592 0.22332 0.42233 0.0
H3516 H 0.7551 0.22783 0.43884 0.0
H3517 H 0.76299 0.2138 0.43459 0.0
H3518 H 0.76072 0.20298 0.45546 0.0
H3519 H 0.77137 0.21083 0.47491 0.0
H3520 H 0.32397 0.20428 0.39126 0.0
H3521 H 0.31684 0.21875 0.40751 0.0
H3522 H 0.32667 0.1922 0.43683 0.0
H3523 H 0.33377 0.17773 0.42069 0.0
H3524 H 0.30337 0.20187 0.43985 0.0
H3525 H 0.3382 0.23985 0.43236 0.0
H3526 H 0.3293 0.23537 0.41825 0.0
H3527 H 0.33987 0.22446 0.42575 0.0
C3528 C 0.32471 0.20157 0.40118 0.0
C3529 C 0.32941 0.18983 0.40467 0.0
C3530 C 0.32067 0.20987 0.41046 0.0
C3531 C 0.32139 0.20664 0.42341 0.0
C3532 C 0.32604 0.19491 0.4269 0.0
H3533 H 0.31399 0.2537 0.49016 0.0
H3534 H 0.32168 0.24083 0.47285 0.0
C3535 C 0.33002 0.18661 0.41765 0.0
C3536 C 0.31697 0.21525 0.43336 0.0
H3537 H 0.32175 0.24415 0.44644 0.0
C3538 C 0.3074 0.21112 0.44129 0.0
C3539 C 0.32234 0.22725 0.43535 0.0
C3540 C 0.33308 0.23199 0.42757 0.0
C3541 C 0.30297 0.21866 0.45107 0.0
C3542 C 0.30808 0.2308 0.45283 0.0
C3543 C 0.31775 0.2349 0.445 0.0
C3544 C 0.3036 0.23926 0.46287 0.0
C3545 C 0.29304 0.21345 0.45961 0.0
C3546 C 0.29098 0.24293 0.46284 0.0
C3547 C 0.28657 0.25027 0.47271 0.0
C3548 C 0.29472 0.25418 0.48279 0.0
C3549 C 0.30748 0.2509 0.48254 0.0
C3550 C 0.31188 0.2435 0.47266 0.0
H3551 H 0.29257 0.20312 0.4592 0.0
H3552 H 0.29489 0.21634 0.46965 0.0
H3553 H 0.28371 0.21704 0.45647 0.0
H3554 H 0.28449 0.24004 0.45521 0.0
H3555 H 0.27676 0.25287 0.47245 0.0
H3556 H 0.31073 0.81293 0.39183 0.0
H3557 H 0.29892 0.80273 0.40848 0.0
H3558 H 0.29477 0.83801 0.42743 0.0
H3559 H 0.30713 0.84821 0.41112 0.0
H3560 H 0.30238 0.82054 0.44383 0.0
H3561 H 0.26202 0.80155 0.41536 0.0
H3562 H 0.27664 0.79686 0.40891 0.0
H3563 H 0.27264 0.81312 0.40916 0.0
C3564 C 0.30732 0.81855 0.39953 0.0
C3565 C 0.30993 0.83142 0.4001 0.0
C3566 C 0.30037 0.81272 0.40896 0.0
C3567 C 0.29571 0.81962 0.41911 0.0
C3568 C 0.29814 0.8325 0.41963 0.0
H3569 H 0.26279 0.78663 0.48844 0.0
H3570 H 0.26677 0.80228 0.47183 0.0
C3571 C 0.30515 0.83834 0.41023 0.0
C3572 C 0.28921 0.81321 0.42964 0.0
H3573 H 0.26638 0.79151 0.43565 0.0
C3574 C 0.29432 0.81441 0.44209 0.0
C3575 C 0.27863 0.80527 0.42742 0.0
C3576 C 0.27209 0.80423 0.41451 0.0
C3577 C 0.28968 0.80729 0.45217 0.0
C3578 C 0.27963 0.79879 0.44975 0.0
C3579 C 0.2741 0.79803 0.43747 0.0
C3580 C 0.27599 0.78944 0.45937 0.0
C3581 C 0.29602 0.80834 0.46518 0.0
C3582 C 0.27957 0.77706 0.4577 0.0
C3583 C 0.27741 0.76823 0.46711 0.0
C3584 C 0.27149 0.77153 0.47839 0.0
C3585 C 0.26735 0.78383 0.47984 0.0
C3586 C 0.26967 0.79276 0.47041 0.0
H3587 H 0.30431 0.81473 0.46527 0.0
H3588 H 0.2892 0.81186 0.47207 0.0
H3589 H 0.29911 0.79902 0.46851 0.0
H3590 H 0.28443 0.77431 0.44925 0.0
H3591 H 0.2806 0.75881 0.46563 0.0
H3592 H 0.64644 0.20466 0.7276 0.0
H3593 H 0.62656 0.20939 0.73745 0.0
H3594 H 0.60614 0.19599 0.70396 0.0
H3595 H 0.62608 0.19133 0.69395 0.0
H3596 H 0.59706 0.21785 0.71196 0.0
H3597 H 0.60155 0.1859 0.75307 0.0
H3598 H 0.61481 0.1963 0.7521 0.0
H3599 H 0.61167 0.18504 0.73965 0.0
C3600 C 0.63772 0.20254 0.72238 0.0
C3601 C 0.63785 0.19751 0.71002 0.0
C3602 C 0.62634 0.20523 0.72806 0.0
C3603 C 0.61482 0.20281 0.72157 0.0
C3604 C 0.61491 0.19787 0.70919 0.0
H3605 H 0.54227 0.20676 0.75868 0.0
H3606 H 0.56103 0.19958 0.74802 0.0
C3607 C 0.62631 0.19525 0.70346 0.0
C3608 C 0.60273 0.20594 0.72753 0.0
H3609 H 0.58584 0.20161 0.75435 0.0
C3610 C 0.59456 0.21421 0.72118 0.0
C3611 C 0.59934 0.20105 0.73947 0.0
C3612 C 0.60724 0.19148 0.74641 0.0
C3613 C 0.58332 0.21803 0.72661 0.0
C3614 C 0.58028 0.21368 0.73887 0.0
C3615 C 0.58824 0.20509 0.74504 0.0
C3616 C 0.56897 0.21803 0.7455 0.0
C3617 C 0.57475 0.22658 0.71906 0.0
C3618 C 0.5673 0.23075 0.7479 0.0
C3619 C 0.55659 0.23487 0.75396 0.0
C3620 C 0.54736 0.22634 0.75792 0.0
C3621 C 0.54922 0.21356 0.75583 0.0
C3622 C 0.55991 0.20945 0.74968 0.0
H3623 H 0.57636 0.22592 0.70869 0.0
H3624 H 0.56469 0.2244 0.72071 0.0
H3625 H 0.57669 0.23634 0.72204 0.0
H3626 H 0.57432 0.23753 0.74513 0.0
H3627 H 0.55559 0.24475 0.75565 0.0
H3628 H 0.31907 0.12745 0.6952 0.0
H3629 H 0.31158 0.11132 0.70964 0.0
H3630 H 0.34986 0.10376 0.72176 0.0
H3631 H 0.35739 0.12018 0.70777 0.0
H3632 H 0.3168 0.08653 0.70899 0.0
H3633 H 0.3329 0.10619 0.75559 0.0
H3634 H 0.33236 0.11532 0.74118 0.0
H3635 H 0.34527 0.10501 0.74445 0.0
C3636 C 0.32589 0.12255 0.70113 0.0
C3637 C 0.33884 0.12515 0.7003 0.0
C3638 C 0.32159 0.11326 0.70932 0.0
C3639 C 0.33013 0.10642 0.71692 0.0
C3640 C 0.34305 0.10906 0.7162 0.0
H3641 H 0.32458 0.04072 0.76483 0.0
H3642 H 0.3317 0.05876 0.75266 0.0
C3643 C 0.34736 0.11836 0.70805 0.0
C3644 C 0.3256 0.09606 0.72504 0.0
H3645 H 0.32608 0.08494 0.75553 0.0
C3646 C 0.31874 0.08624 0.71919 0.0
C3647 C 0.32818 0.09564 0.73834 0.0
C3648 C 0.33497 0.10616 0.74529 0.0
C3649 C 0.31462 0.07593 0.7262 0.0
C3650 C 0.31727 0.07548 0.73947 0.0
C3651 C 0.3241 0.08529 0.74535 0.0
C3652 C 0.31295 0.0649 0.74738 0.0
C3653 C 0.30769 0.06545 0.71931 0.0
C3654 C 0.30005 0.06254 0.74871 0.0
C3655 C 0.29595 0.05229 0.75572 0.0
C3656 C 0.30466 0.04416 0.76159 0.0
C3657 C 0.3176 0.04678 0.76053 0.0
C3658 C 0.32169 0.05707 0.75352 0.0
H3659 H 0.30899 0.06583 0.70887 0.0
H3660 H 0.31091 0.05627 0.7229 0.0
H3661 H 0.29747 0.06615 0.72101 0.0
H3662 H 0.29314 0.06862 0.74428 0.0
H3663 H 0.28594 0.05078 0.75656 0.0
H3664 H 0.39248 0.82319 0.70189 0.0
H3665 H 0.40925 0.81436 0.71555 0.0
H3666 H 0.4293 0.84949 0.7152 0.0
H3667 H 0.4125 0.85844 0.70186 0.0
H3668 H 0.43467 0.81228 0.70962 0.0
H3669 H 0.4297 0.84087 0.75309 0.0
H3670 H 0.41755 0.83982 0.74072 0.0
H3671 H 0.43101 0.84987 0.73881 0.0
C3672 C 0.40035 0.8291 0.70491 0.0
C3673 C 0.40114 0.84153 0.70076 0.0
C3674 C 0.40996 0.82402 0.71266 0.0
C3675 C 0.42046 0.8313 0.71653 0.0
C3676 C 0.42119 0.84374 0.71253 0.0
H3677 H 0.49219 0.82023 0.75597 0.0
H3678 H 0.47339 0.82832 0.74495 0.0
C3679 C 0.41163 0.84881 0.70477 0.0
C3680 C 0.431 0.82576 0.72417 0.0
H3681 H 0.44846 0.82904 0.75188 0.0
C3682 C 0.43761 0.81585 0.71892 0.0
C3683 C 0.43488 0.83048 0.73627 0.0
C3684 C 0.42785 0.84077 0.74263 0.0
C3685 C 0.4482 0.81078 0.72526 0.0
C3686 C 0.45216 0.81557 0.73732 0.0
C3687 C 0.44545 0.82538 0.74264 0.0
C3688 C 0.46336 0.81067 0.74446 0.0
C3689 C 0.45532 0.80061 0.71878 0.0
C3690 C 0.46389 0.79811 0.74811 0.0
C3691 C 0.47464 0.79346 0.75442 0.0
C3692 C 0.48506 0.80128 0.75732 0.0
C3693 C 0.48434 0.81395 0.75398 0.0
C3694 C 0.4736 0.81858 0.74762 0.0
H3695 H 0.45312 0.80029 0.70838 0.0
H3696 H 0.46564 0.80192 0.72028 0.0
H3697 H 0.45262 0.79148 0.72286 0.0
H3698 H 0.45599 0.79189 0.74608 0.0
H3699 H 0.47474 0.78373 0.75708 0.0
H3700 H 0.67301 0.91922 0.67646 0.0
H3701 H 0.68214 0.93555 0.6902 0.0
H3702 H 0.69432 0.90785 0.71742 0.0
H3703 H 0.68519 0.8914 0.70368 0.0
H3704 H 0.68333 0.92817 0.72875 0.0
H3705 H 0.71944 0.94379 0.69519 0.0
H3706 H 0.70377 0.94382 0.68832 0.0
H3707 H 0.71078 0.92934 0.69314 0.0
C3708 C 0.67776 0.91657 0.68529 0.0
C3709 C 0.67849 0.90397 0.68889 0.0
C3710 C 0.68297 0.92593 0.69315 0.0
C3711 C 0.68913 0.92292 0.70473 0.0
C3712 C 0.68967 0.91038 0.70849 0.0
H3713 H 0.73758 0.97521 0.74735 0.0
H3714 H 0.72894 0.95726 0.73559 0.0
C3715 C 0.68442 0.901 0.70064 0.0
C3716 C 0.69486 0.93289 0.71294 0.0
H3717 H 0.7161 0.95701 0.71295 0.0
C3718 C 0.69055 0.93443 0.72533 0.0
C3719 C 0.70441 0.94096 0.70854 0.0
C3720 C 0.70998 0.93934 0.69562 0.0
C3721 C 0.69531 0.94401 0.73333 0.0
C3722 C 0.70447 0.95241 0.72872 0.0
C3723 C 0.70899 0.95067 0.71644 0.0
C3724 C 0.70956 0.96306 0.73644 0.0
C3725 C 0.69061 0.94493 0.74669 0.0
C3726 C 0.70156 0.97234 0.74084 0.0
C3727 C 0.7065 0.98265 0.74758 0.0
C3728 C 0.71955 0.98396 0.74993 0.0
C3729 C 0.72751 0.9746 0.74557 0.0
C3730 C 0.72257 0.96429 0.73889 0.0
H3731 H 0.68654 0.93594 0.74991 0.0
H3732 H 0.6983 0.94781 0.75352 0.0
H3733 H 0.68311 0.95202 0.74693 0.0
H3734 H 0.69152 0.97177 0.73881 0.0
H3735 H 0.70012 0.98976 0.75062 0.0
H3736 H 0.60939 0.81096 0.32065 0.0
H3737 H 0.58843 0.80415 0.31311 0.0
H3738 H 0.59391 0.82258 0.27727 0.0
H3739 H 0.61482 0.82969 0.2848 0.0
H3740 H 0.56724 0.81905 0.30313 0.0
H3741 H 0.58547 0.78543 0.26794 0.0
H3742 H 0.59522 0.79164 0.28088 0.0
H3743 H 0.59131 0.80121 0.26738 0.0
C3744 C 0.6061 0.81376 0.31124 0.0
C3745 C 0.61386 0.82083 0.30332 0.0
C3746 C 0.59413 0.8098 0.30692 0.0
C3747 C 0.58969 0.81274 0.29459 0.0
C3748 C 0.59725 0.82005 0.28675 0.0
H3749 H 0.52173 0.77809 0.25838 0.0
H3750 H 0.53975 0.79253 0.26138 0.0
C3751 C 0.60921 0.82406 0.29107 0.0
C3752 C 0.57728 0.80786 0.28992 0.0
H3753 H 0.56359 0.78593 0.27021 0.0
C3754 C 0.56641 0.81191 0.29583 0.0
C3755 C 0.57622 0.79866 0.28029 0.0
C3756 C 0.58764 0.79388 0.27376 0.0
C3757 C 0.55453 0.80671 0.29265 0.0
C3758 C 0.55356 0.797 0.28354 0.0
C3759 C 0.56434 0.79338 0.27718 0.0
C3760 C 0.54186 0.78941 0.28169 0.0
C3761 C 0.54317 0.81154 0.29924 0.0
C3762 C 0.53707 0.78292 0.29207 0.0
C3763 C 0.52688 0.77473 0.29038 0.0
C3764 C 0.52125 0.77275 0.27825 0.0
C3765 C 0.52581 0.77949 0.26786 0.0
C3766 C 0.53612 0.7877 0.26956 0.0
H3767 H 0.54457 0.82142 0.30217 0.0
H3768 H 0.53455 0.8108 0.29303 0.0
H3769 H 0.54167 0.80599 0.30798 0.0
H3770 H 0.5415 0.78383 0.30145 0.0
H3771 H 0.52363 0.76969 0.2986 0.0
H3772 H 0.68991 0.12928 0.30006 0.0
H3773 H 0.69888 0.10933 0.29419 0.0
H3774 H 0.71612 0.1061 0.33171 0.0
H3775 H 0.70759 0.12632 0.33753 0.0
H3776 H 0.73255 0.10062 0.31308 0.0
H3777 H 0.68778 0.07465 0.30442 0.0
H3778 H 0.6886 0.08877 0.29537 0.0
H3779 H 0.68851 0.0895 0.31247 0.0
C3780 C 0.69562 0.12436 0.30708 0.0
C3781 C 0.69799 0.12944 0.31929 0.0
C3782 C 0.70063 0.11286 0.30374 0.0
C3783 C 0.70802 0.1061 0.31256 0.0
C3784 C 0.71038 0.1111 0.32477 0.0
H3785 H 0.728 0.02882 0.2979 0.0
H3786 H 0.72077 0.04788 0.30793 0.0
C3787 C 0.70539 0.12262 0.32812 0.0
C3788 C 0.71365 0.09404 0.30888 0.0
H3789 H 0.70631 0.06526 0.29669 0.0
C3790 C 0.72681 0.09285 0.3096 0.0
C3791 C 0.70617 0.08381 0.30452 0.0
C3792 C 0.69198 0.08417 0.30426 0.0
C3793 C 0.73269 0.08188 0.3057 0.0
C3794 C 0.72523 0.07188 0.30074 0.0
C3795 C 0.71206 0.07294 0.30039 0.0
C3796 C 0.73082 0.06035 0.29556 0.0
C3797 C 0.74682 0.08107 0.30706 0.0
C3798 C 0.73906 0.06096 0.28538 0.0
C3799 C 0.7433 0.05006 0.27968 0.0
C3800 C 0.73926 0.03829 0.28393 0.0
C3801 C 0.73132 0.03771 0.29438 0.0
C3802 C 0.72713 0.04861 0.30011 0.0
H3803 H 0.75066 0.08756 0.3145 0.0
H3804 H 0.74981 0.07148 0.30952 0.0
H3805 H 0.75103 0.08371 0.29791 0.0
H3806 H 0.74183 0.06988 0.28149 0.0
H3807 H 0.74931 0.05089 0.27158 0.0
H3808 H 0.38604 0.16183 0.31692 0.0
H3809 H 0.40256 0.16967 0.30318 0.0
H3810 H 0.41157 0.19883 0.3303 0.0
H3811 H 0.39501 0.19118 0.344 0.0
H3812 H 0.40656 0.19392 0.29222 0.0
H3813 H 0.44526 0.18064 0.32607 0.0
H3814 H 0.4294 0.17465 0.32725 0.0
H3815 H 0.43334 0.19007 0.33285 0.0
C3816 C 0.39141 0.17001 0.31989 0.0
C3817 C 0.38927 0.1758 0.33164 0.0
C3818 C 0.40089 0.17444 0.31205 0.0
C3819 C 0.40844 0.18468 0.31584 0.0
C3820 C 0.40604 0.19074 0.32733 0.0
H3821 H 0.47281 0.22445 0.28767 0.0
H3822 H 0.45492 0.21665 0.29938 0.0
C3823 C 0.39657 0.18634 0.33516 0.0
C3824 C 0.41898 0.18894 0.30793 0.0
H3825 H 0.45091 0.19294 0.30838 0.0
C3826 C 0.41627 0.19364 0.2957 0.0
C3827 C 0.43163 0.18855 0.31249 0.0
C3828 C 0.43515 0.18311 0.32534 0.0
C3829 C 0.42587 0.19831 0.28805 0.0
C3830 C 0.43852 0.19804 0.29268 0.0
C3831 C 0.44121 0.19318 0.30485 0.0
C3832 C 0.44913 0.20295 0.28521 0.0
C3833 C 0.42235 0.20385 0.27526 0.0
C3834 C 0.4519 0.19779 0.27336 0.0
C3835 C 0.4621 0.20232 0.26655 0.0
C3836 C 0.4698 0.21205 0.27149 0.0
C3837 C 0.46701 0.21712 0.28343 0.0
C3838 C 0.45681 0.2126 0.2902 0.0
H3839 H 0.41221 0.20623 0.27452 0.0
H3840 H 0.42802 0.21237 0.27344 0.0
H3841 H 0.42423 0.19697 0.26768 0.0
H3842 H 0.44626 0.19017 0.26942 0.0
H3843 H 0.46389 0.19823 0.25738 0.0
H3844 H 0.30278 0.89204 0.33649 0.0
H3845 H 0.29246 0.90895 0.32481 0.0
H3846 H 0.3265 0.91623 0.30474 0.0
H3847 H 0.33691 0.89917 0.3163 0.0
H3848 H 0.30318 0.93498 0.32538 0.0
H3849 H 0.29655 0.91478 0.2767 0.0
H3850 H 0.29798 0.90504 0.29067 0.0
H3851 H 0.31154 0.91313 0.285 0.0
C3852 C 0.30801 0.89704 0.3294 0.0
C3853 C 0.32067 0.89423 0.32733 0.0
C3854 C 0.30212 0.90676 0.32279 0.0
C3855 C 0.3087 0.91378 0.31388 0.0
C3856 C 0.32123 0.91084 0.31151 0.0
H3857 H 0.27505 0.97797 0.27227 0.0
H3858 H 0.29078 0.96237 0.27895 0.0
C3859 C 0.32718 0.90115 0.31819 0.0
C3860 C 0.3026 0.9247 0.30778 0.0
H3861 H 0.28809 0.93464 0.2802 0.0
C3862 C 0.30002 0.93498 0.31546 0.0
C3863 C 0.29865 0.92472 0.29481 0.0
C3864 C 0.30124 0.91384 0.28624 0.0
C3865 C 0.29316 0.94509 0.31064 0.0
C3866 C 0.28853 0.94481 0.29787 0.0
C3867 C 0.29165 0.93482 0.28998 0.0
C3868 C 0.27913 0.95397 0.2932 0.0
C3869 C 0.29061 0.95588 0.31937 0.0
C3870 C 0.26736 0.95419 0.29879 0.0
C3871 C 0.25846 0.96298 0.29504 0.0
C3872 C 0.26108 0.97178 0.28554 0.0
C3873 C 0.27278 0.97136 0.27965 0.0
C3874 C 0.28175 0.96247 0.28344 0.0
H3875 H 0.29774 0.95651 0.32732 0.0
H3876 H 0.29057 0.96483 0.31408 0.0
H3877 H 0.28124 0.95453 0.32355 0.0
H3878 H 0.26506 0.94758 0.30617 0.0
H3879 H 0.24953 0.96289 0.29972 0.0
H3880 H 0.69399 0.13176 0.70365 0.0
H3881 H 0.7027 0.11141 0.70894 0.0
H3882 H 0.73672 0.12103 0.68979 0.0
H3883 H 0.72798 0.14137 0.68418 0.0
H3884 H 0.71255 0.09216 0.69225 0.0
H3885 H 0.74849 0.11158 0.72684 0.0
H3886 H 0.73501 0.12041 0.72141 0.0
H3887 H 0.74786 0.11808 0.71106 0.0
C3888 C 0.70323 0.12951 0.70034 0.0
C3889 C 0.71028 0.13828 0.69352 0.0
C3890 C 0.70823 0.11788 0.70345 0.0
C3891 C 0.72041 0.11477 0.69989 0.0
C3892 C 0.72738 0.12332 0.6928 0.0
H3893 H 0.75974 0.04899 0.73161 0.0
H3894 H 0.75581 0.06692 0.71748 0.0
C3895 C 0.72236 0.13496 0.68964 0.0
C3896 C 0.72583 0.10268 0.70397 0.0
H3897 H 0.74685 0.08984 0.72527 0.0
C3898 C 0.72017 0.09164 0.69934 0.0
C3899 C 0.73586 0.10202 0.71311 0.0
C3900 C 0.74217 0.11362 0.7185 0.0
C3901 C 0.72396 0.07996 0.70397 0.0
C3902 C 0.73345 0.07932 0.7137 0.0
C3903 C 0.73959 0.09033 0.71781 0.0
C3904 C 0.73586 0.06767 0.72095 0.0
C3905 C 0.71755 0.06842 0.69857 0.0
C3906 C 0.72599 0.06213 0.72753 0.0
C3907 C 0.72821 0.05202 0.73555 0.0
C3908 C 0.74038 0.04718 0.73727 0.0
C3909 C 0.75025 0.05245 0.73039 0.0
C3910 C 0.74802 0.06271 0.72237 0.0
H3911 H 0.71421 0.06992 0.68857 0.0
H3912 H 0.72395 0.06032 0.69887 0.0
H3913 H 0.70921 0.06615 0.70425 0.0
H3914 H 0.71661 0.06594 0.72686 0.0
H3915 H 0.72038 0.0482 0.74069 0.0
H3916 H 0.69697 0.89016 0.32046 0.0
H3917 H 0.70337 0.91031 0.31176 0.0
H3918 H 0.67317 0.90785 0.28348 0.0
H3919 H 0.66678 0.88766 0.292 0.0
H3920 H 0.71098 0.91495 0.28697 0.0
H3921 H 0.66911 0.94295 0.29795 0.0
H3922 H 0.6723 0.92812 0.30539 0.0
H3923 H 0.6656 0.92873 0.28948 0.0
C3924 C 0.69167 0.89391 0.3124 0.0
C3925 C 0.68133 0.88727 0.30695 0.0
C3926 C 0.69531 0.90546 0.30748 0.0
C3927 C 0.68866 0.91067 0.29707 0.0
C3928 C 0.67827 0.90415 0.29169 0.0
H3929 H 0.69996 0.9769 0.25057 0.0
H3930 H 0.69212 0.95748 0.25985 0.0
C3931 C 0.67462 0.8926 0.2966 0.0
C3932 C 0.69301 0.92258 0.29142 0.0
H3933 H 0.68409 0.95237 0.28457 0.0
C3934 C 0.70513 0.92316 0.2865 0.0
C3935 C 0.68533 0.93325 0.29074 0.0
C3936 C 0.6724 0.93332 0.29626 0.0
C3937 C 0.70972 0.93404 0.28078 0.0
C3938 C 0.70208 0.94474 0.28017 0.0
C3939 C 0.68993 0.94416 0.28503 0.0
C3940 C 0.70664 0.95667 0.27472 0.0
C3941 C 0.72262 0.93389 0.27519 0.0
C3942 C 0.71724 0.96279 0.28014 0.0
C3943 C 0.72172 0.97387 0.27488 0.0
C3944 C 0.71565 0.97915 0.26411 0.0
C3945 C 0.70484 0.97314 0.25888 0.0
C3946 C 0.70037 0.96202 0.26415 0.0
H3947 H 0.72575 0.92425 0.27329 0.0
H3948 H 0.72278 0.93926 0.26617 0.0
H3949 H 0.72952 0.93824 0.28204 0.0
H3950 H 0.72204 0.95901 0.28849 0.0
H3951 H 0.72988 0.97837 0.27936 0.0
H3952 H 0.6196 0.18328 0.32279 0.0
H3953 H 0.59936 0.19212 0.31602 0.0
H3954 H 0.61574 0.22901 0.31768 0.0
H3955 H 0.63611 0.22026 0.32392 0.0
H3956 H 0.58407 0.2092 0.32779 0.0
H3957 H 0.6004 0.22791 0.28178 0.0
H3958 H 0.60953 0.21705 0.29122 0.0
H3959 H 0.6093 0.23324 0.29558 0.0
C3960 C 0.61895 0.19327 0.3216 0.0
C3961 C 0.62957 0.20102 0.32385 0.0
C3962 C 0.60733 0.19832 0.31783 0.0
C3963 C 0.60605 0.21122 0.31615 0.0
C3964 C 0.61653 0.21902 0.31868 0.0
H3965 H 0.54028 0.25102 0.28353 0.0
H3966 H 0.55999 0.24731 0.29585 0.0
C3967 C 0.62816 0.21399 0.32242 0.0
C3968 C 0.59378 0.21644 0.31165 0.0
H3969 H 0.57944 0.23201 0.28692 0.0
C3970 C 0.58308 0.21425 0.31888 0.0
C3971 C 0.59247 0.22312 0.30007 0.0
C3972 C 0.60349 0.2254 0.29163 0.0
C3973 C 0.57112 0.21835 0.31475 0.0
C3974 C 0.56976 0.22467 0.30299 0.0
C3975 C 0.5805 0.22725 0.29597 0.0
C3976 C 0.55718 0.22735 0.29706 0.0
C3977 C 0.56001 0.21576 0.32296 0.0
C3978 C 0.54902 0.21743 0.29379 0.0
C3979 C 0.53789 0.21951 0.28676 0.0
C3980 C 0.53461 0.23159 0.28283 0.0
C3981 C 0.54248 0.24165 0.28656 0.0
C3982 C 0.55377 0.23952 0.29352 0.0
H3983 H 0.56299 0.21461 0.33312 0.0
H3984 H 0.55304 0.22337 0.32222 0.0
H3985 H 0.5553 0.20698 0.31976 0.0
H3986 H 0.55153 0.20795 0.29618 0.0
H3987 H 0.53204 0.21157 0.28401 0.0
H3988 H 0.30992 0.12574 0.32718 0.0
H3989 H 0.2951 0.10999 0.31837 0.0
H3990 H 0.30169 0.08703 0.35147 0.0
H3991 H 0.31643 0.10268 0.36034 0.0
H3992 H 0.30153 0.08335 0.31405 0.0
H3993 H 0.26226 0.08981 0.34702 0.0
H3994 H 0.27402 0.10175 0.34439 0.0
H3995 H 0.27774 0.08863 0.35432 0.0
C3996 C 0.30809 0.11739 0.33263 0.0
C3997 C 0.31436 0.11544 0.34444 0.0
C3998 C 0.29967 0.1084 0.32757 0.0
C3999 C 0.29723 0.09741 0.33433 0.0
C4000 C 0.30335 0.09551 0.34617 0.0
H4001 H 0.25312 0.02981 0.32367 0.0
H4002 H 0.2656 0.04759 0.33177 0.0
C4003 C 0.31184 0.10441 0.35117 0.0
C4004 C 0.28871 0.08764 0.32881 0.0
H4005 H 0.26094 0.07221 0.33339 0.0
C4006 C 0.29259 0.08097 0.31818 0.0
C4007 C 0.27713 0.08451 0.33432 0.0
C4008 C 0.27244 0.09158 0.34559 0.0
C4009 C 0.28537 0.07098 0.31311 0.0
C4010 C 0.27375 0.06782 0.31861 0.0
C4011 C 0.26982 0.07463 0.32917 0.0
C4012 C 0.2657 0.05731 0.31374 0.0
C4013 C 0.29052 0.06364 0.30222 0.0
C4014 C 0.26133 0.05698 0.30099 0.0
C4015 C 0.25427 0.04679 0.29633 0.0
C4016 C 0.25124 0.0368 0.30437 0.0
C4017 C 0.25522 0.03737 0.31725 0.0
C4018 C 0.26239 0.04752 0.32188 0.0
H4019 H 0.30086 0.06494 0.30157 0.0
H4020 H 0.28843 0.05354 0.30324 0.0
H4021 H 0.28608 0.06688 0.29314 0.0
H4022 H 0.26341 0.06459 0.29461 0.0
H4023 H 0.25113 0.04673 0.28643 0.0
H4024 H 0.39052 0.8155 0.35793 0.0
H4025 H 0.40605 0.80206 0.34841 0.0
H4026 H 0.39169 0.81175 0.31093 0.0
H4027 H 0.37641 0.82561 0.32036 0.0
H4028 H 0.40301 0.7816 0.33254 0.0
H4029 H 0.42918 0.81949 0.30855 0.0
H4030 H 0.4178 0.82251 0.32052 0.0
H4031 H 0.41265 0.8188 0.30449 0.0
C4032 C 0.39073 0.81489 0.34765 0.0
C4033 C 0.38229 0.82177 0.33992 0.0
C4034 C 0.39956 0.80712 0.34223 0.0
C4035 C 0.40019 0.80606 0.32895 0.0
C4036 C 0.39155 0.81262 0.32119 0.0
H4037 H 0.45039 0.76532 0.28035 0.0
H4038 H 0.43329 0.77756 0.28876 0.0
C4039 C 0.38272 0.82042 0.32661 0.0
C4040 C 0.40991 0.7981 0.32331 0.0
H4041 H 0.4354 0.79887 0.30429 0.0
C4042 C 0.4101 0.78538 0.32637 0.0
C4043 C 0.41916 0.80304 0.31526 0.0
C4044 C 0.41981 0.81672 0.31208 0.0
C4045 C 0.41922 0.77744 0.32152 0.0
C4046 C 0.42851 0.78239 0.31355 0.0
C4047 C 0.42825 0.79509 0.31039 0.0
C4048 C 0.43871 0.77463 0.30852 0.0
C4049 C 0.41872 0.76378 0.32483 0.0
C4050 C 0.44751 0.76898 0.31684 0.0
C4051 C 0.45737 0.76203 0.31207 0.0
C4052 C 0.45869 0.76064 0.29885 0.0
C4053 C 0.44981 0.7663 0.29056 0.0
C4054 C 0.43996 0.77326 0.29535 0.0
H4055 H 0.40931 0.76091 0.32817 0.0
H4056 H 0.42102 0.75795 0.3165 0.0
H4057 H 0.42576 0.76189 0.33259 0.0
H4058 H 0.44689 0.77013 0.32704 0.0
H4059 H 0.46411 0.75799 0.31875 0.0
H4060 H 0.31216 0.89646 0.68288 0.0
H4061 H 0.30007 0.91318 0.69251 0.0
H4062 H 0.33384 0.92695 0.71178 0.0
H4063 H 0.3459 0.91027 0.70242 0.0
H4064 H 0.29717 0.91982 0.71883 0.0
H4065 H 0.32037 0.95747 0.69194 0.0
H4066 H 0.32106 0.94129 0.68732 0.0
H4067 H 0.33136 0.9473 0.69985 0.0
C4068 C 0.31698 0.90296 0.68929 0.0
C4069 C 0.33005 0.90209 0.69175 0.0
C4070 C 0.31007 0.91255 0.69472 0.0
C4071 C 0.31611 0.92147 0.70263 0.0
C4072 C 0.32904 0.92036 0.70544 0.0
H4073 H 0.30831 0.97996 0.7533 0.0
H4074 H 0.31342 0.96382 0.73815 0.0
C4075 C 0.33593 0.91081 0.70006 0.0
C4076 C 0.30906 0.93197 0.70808 0.0
H4077 H 0.30971 0.96367 0.71069 0.0
C4078 C 0.29969 0.92943 0.71687 0.0
C4079 C 0.31228 0.9445 0.70541 0.0
C4080 C 0.32173 0.94784 0.69552 0.0
C4081 C 0.29414 0.93907 0.72375 0.0
C4082 C 0.29797 0.95154 0.72165 0.0
C4083 C 0.30678 0.9541 0.71231 0.0
C4084 C 0.29446 0.96181 0.73028 0.0
C4085 C 0.2848 0.93584 0.73378 0.0
C4086 C 0.28209 0.96625 0.73074 0.0
C4087 C 0.2791 0.97563 0.73945 0.0
C4088 C 0.28845 0.9806 0.74784 0.0
C4089 C 0.30085 0.9763 0.74706 0.0
C4090 C 0.30381 0.96707 0.73837 0.0
H4091 H 0.28368 0.92562 0.73504 0.0
H4092 H 0.28784 0.94005 0.74305 0.0
H4093 H 0.27549 0.93974 0.73103 0.0
H4094 H 0.27475 0.96239 0.72447 0.0
H4095 H 0.26947 0.97875 0.73985 0.0
H4096 H 0.63071 0.82809 0.69756 0.0
H4097 H 0.61598 0.81523 0.70947 0.0
H4098 H 0.59007 0.8146 0.67707 0.0
H4099 H 0.6048 0.82737 0.66504 0.0
H4100 H 0.59008 0.82354 0.71353 0.0
H4101 H 0.59195 0.77733 0.68963 0.0
H4102 H 0.60467 0.78861 0.68897 0.0
H4103 H 0.59046 0.79089 0.67965 0.0
C4104 C 0.622 0.825 0.69287 0.0
C4105 C 0.61891 0.82878 0.68036 0.0
C4106 C 0.61357 0.81769 0.6997 0.0
C4107 C 0.60199 0.81388 0.69411 0.0
C4108 C 0.59903 0.81731 0.6815 0.0
H4109 H 0.53727 0.7767 0.72907 0.0
H4110 H 0.55175 0.78491 0.71313 0.0
C4111 C 0.60741 0.8247 0.67469 0.0
C4112 C 0.59257 0.80734 0.70187 0.0
H4113 H 0.57738 0.77945 0.70603 0.0
C4114 C 0.5873 0.81391 0.71189 0.0
C4115 C 0.58881 0.79484 0.69955 0.0
C4116 C 0.59428 0.78741 0.68892 0.0
C4117 C 0.57848 0.80829 0.71976 0.0
C4118 C 0.57506 0.79563 0.7178 0.0
C4119 C 0.58006 0.78912 0.70755 0.0
C4120 C 0.56689 0.78897 0.72683 0.0
C4121 C 0.57286 0.81601 0.73012 0.0
C4122 C 0.57083 0.78802 0.73964 0.0
C4123 C 0.56261 0.78349 0.74867 0.0
C4124 C 0.55034 0.7796 0.74506 0.0
C4125 C 0.54669 0.77963 0.73209 0.0
C4126 C 0.55493 0.78434 0.72301 0.0
H4127 H 0.5735 0.82612 0.728 0.0
H4128 H 0.56282 0.81346 0.7314 0.0
H4129 H 0.57811 0.81433 0.73924 0.0
H4130 H 0.58011 0.79126 0.74275 0.0
H4131 H 0.56576 0.78342 0.75858 0.0
H4132 H 0.39731 0.18566 0.706 0.0
H4133 H 0.41473 0.19701 0.71664 0.0
H4134 H 0.41916 0.21967 0.68321 0.0
H4135 H 0.40153 0.20851 0.67254 0.0
H4136 H 0.43988 0.19854 0.70727 0.0
H4137 H 0.41856 0.24524 0.71305 0.0
H4138 H 0.40913 0.23134 0.71022 0.0
H4139 H 0.41747 0.23834 0.69743 0.0
C4140 C 0.40182 0.19321 0.70098 0.0
C4141 C 0.39799 0.19619 0.68842 0.0
C4142 C 0.41183 0.19963 0.70705 0.0
C4143 C 0.41817 0.20924 0.70076 0.0
C4144 C 0.41429 0.21239 0.6883 0.0
H4145 H 0.48317 0.25307 0.7322 0.0
H4146 H 0.46658 0.24526 0.71723 0.0
C4147 C 0.40429 0.20592 0.68218 0.0
C4148 C 0.42923 0.21546 0.7071 0.0
H4149 H 0.43949 0.24284 0.72069 0.0
C4150 C 0.43982 0.20825 0.71012 0.0
C4151 C 0.4292 0.22817 0.71067 0.0
C4152 C 0.41798 0.23627 0.70778 0.0
C4153 C 0.45026 0.21331 0.7169 0.0
C4154 C 0.45001 0.22585 0.721 0.0
C4155 C 0.43964 0.23323 0.71754 0.0
C4156 C 0.45986 0.23099 0.72994 0.0
C4157 C 0.46143 0.20511 0.71977 0.0
C4158 C 0.46137 0.22574 0.74208 0.0
C4159 C 0.47073 0.23014 0.75056 0.0
C4160 C 0.47882 0.23997 0.74717 0.0
C4161 C 0.47714 0.24545 0.73508 0.0
C4162 C 0.46768 0.24101 0.72654 0.0
H4163 H 0.46183 0.19726 0.71291 0.0
H4164 H 0.47039 0.21051 0.71951 0.0
H4165 H 0.46061 0.20111 0.72945 0.0
H4166 H 0.45528 0.21816 0.74499 0.0
H4167 H 0.47164 0.22573 0.75981 0.0
H4168 H 0.67088 0.7055 0.12752 0.0
H4169 H 0.67634 0.71559 0.10742 0.0
H4170 H 0.71109 0.7292 0.12487 0.0
H4171 H 0.70577 0.71914 0.1449 0.0
H4172 H 0.68273 0.74272 0.10422 0.0
H4173 H 0.72097 0.71071 0.09123 0.0
H4174 H 0.70886 0.70635 0.10213 0.0
H4175 H 0.72163 0.71639 0.10735 0.0
C4176 C 0.67973 0.71057 0.12703 0.0
C4177 C 0.68789 0.71155 0.1378 0.0
C4178 C 0.6828 0.71636 0.11558 0.0
C4179 C 0.69416 0.72305 0.11466 0.0
C4180 C 0.70233 0.72399 0.12536 0.0
H4181 H 0.73481 0.76436 0.0587 0.0
H4182 H 0.72745 0.75298 0.07723 0.0
C4183 C 0.69923 0.71832 0.13682 0.0
C4184 C 0.69745 0.7293 0.10262 0.0
H4185 H 0.71894 0.72924 0.07917 0.0
C4186 C 0.69056 0.73973 0.09864 0.0
C4187 C 0.70771 0.72539 0.09545 0.0
C4188 C 0.7152 0.71404 0.09915 0.0
C4189 C 0.69394 0.74664 0.08789 0.0
C4190 C 0.7043 0.74279 0.08075 0.0
C4191 C 0.71102 0.7322 0.08463 0.0
C4192 C 0.70858 0.74981 0.06946 0.0
C4193 C 0.68668 0.75825 0.08458 0.0
C4194 C 0.70047 0.75175 0.05885 0.0
C4195 C 0.70465 0.75832 0.04825 0.0
C4196 C 0.71709 0.76291 0.04797 0.0
C4197 C 0.72522 0.76084 0.05855 0.0
C4198 C 0.72101 0.75436 0.06917 0.0
H4199 H 0.68141 0.76171 0.09281 0.0
H4200 H 0.69306 0.7658 0.08137 0.0
H4201 H 0.67976 0.75612 0.07674 0.0
H4202 H 0.69095 0.74805 0.05869 0.0
H4203 H 0.69823 0.75958 0.04018 0.0
H4204 H 0.32456 0.67734 0.09793 0.0
H4205 H 0.31229 0.6861 0.08014 0.0
H4206 H 0.28574 0.70079 0.10627 0.0
H4207 H 0.29817 0.69225 0.12425 0.0
H4208 H 0.28644 0.68187 0.07275 0.0
H4209 H 0.29661 0.73145 0.08524 0.0
H4210 H 0.30564 0.71882 0.092 0.0
H4211 H 0.29018 0.72188 0.09752 0.0
C4212 C 0.31618 0.68253 0.09994 0.0
C4213 C 0.31244 0.68422 0.11255 0.0
C4214 C 0.30911 0.68744 0.08973 0.0
C4215 C 0.29818 0.69422 0.09188 0.0
C4216 C 0.29424 0.69573 0.10442 0.0
H4217 H 0.256 0.73833 0.03506 0.0
H4218 H 0.26137 0.72715 0.05475 0.0
C4219 C 0.3013 0.69076 0.11467 0.0
C4220 C 0.29112 0.6998 0.08091 0.0
H4221 H 0.28424 0.7276 0.06672 0.0
C4222 C 0.28586 0.69187 0.07147 0.0
C4223 C 0.29031 0.71284 0.07929 0.0
C4224 C 0.29604 0.72179 0.08898 0.0
C4225 C 0.28 0.69663 0.06035 0.0
C4226 C 0.27964 0.70968 0.05848 0.0
C4227 C 0.28451 0.7176 0.06813 0.0
C4228 C 0.27515 0.71532 0.04625 0.0
C4229 C 0.27426 0.68762 0.05073 0.0
C4230 C 0.28095 0.71228 0.03485 0.0
C4231 C 0.27785 0.7186 0.02357 0.0
C4232 C 0.26898 0.72821 0.02345 0.0
C4233 C 0.26284 0.73095 0.03478 0.0
C4234 C 0.26593 0.72459 0.04607 0.0
H4235 H 0.27144 0.67874 0.05531 0.0
H4236 H 0.26589 0.69162 0.04573 0.0
H4237 H 0.28134 0.68541 0.04355 0.0
H4238 H 0.2883 0.70539 0.03476 0.0
H4239 H 0.28283 0.71628 0.01507 0.0
H4240 H 0.34975 0.31603 0.11876 0.0
H4241 H 0.33971 0.30374 0.10164 0.0
H4242 H 0.30475 0.30386 0.12135 0.0
H4243 H 0.31488 0.31555 0.13888 0.0
H4244 H 0.3093 0.28114 0.11124 0.0
H4245 H 0.31616 0.31762 0.07457 0.0
H4246 H 0.33044 0.31244 0.08233 0.0
H4247 H 0.31898 0.32055 0.09132 0.0
C4248 C 0.33997 0.31329 0.1196 0.0
C4249 C 0.33314 0.31689 0.13024 0.0
C4250 C 0.33419 0.3064 0.10967 0.0
C4251 C 0.32139 0.30309 0.11004 0.0
C4252 C 0.31462 0.30639 0.12078 0.0
H4253 H 0.26004 0.27755 0.06412 0.0
H4254 H 0.2754 0.2836 0.08076 0.0
C4255 C 0.32041 0.31319 0.13076 0.0
C4256 C 0.31494 0.29633 0.09925 0.0
H4257 H 0.30641 0.29887 0.0677 0.0
C4258 C 0.30876 0.28499 0.10171 0.0
C4259 C 0.31425 0.3013 0.08675 0.0
C4260 C 0.32021 0.3137 0.08356 0.0
C4261 C 0.30169 0.27866 0.09213 0.0
C4262 C 0.30071 0.28382 0.07978 0.0
C4263 C 0.30728 0.29489 0.07716 0.0
C4264 C 0.29164 0.27882 0.06997 0.0
C4265 C 0.2951 0.26662 0.09536 0.0
C4266 C 0.29566 0.27404 0.05833 0.0
C4267 C 0.28682 0.27042 0.04875 0.0
C4268 C 0.27387 0.27183 0.05061 0.0
C4269 C 0.26995 0.27638 0.06238 0.0
C4270 C 0.27871 0.27979 0.07194 0.0
H4271 H 0.29943 0.2622 0.10396 0.0
H4272 H 0.2851 0.26854 0.0973 0.0
H4273 H 0.29531 0.25995 0.08728 0.0
H4274 H 0.30562 0.27332 0.05659 0.0
H4275 H 0.29011 0.26704 0.03974 0.0
H4276 H 0.69492 0.35095 0.12334 0.0
H4277 H 0.70552 0.34017 0.10616 0.0
H4278 H 0.67879 0.30979 0.10824 0.0
H4279 H 0.66818 0.32045 0.12534 0.0
H4280 H 0.71655 0.31644 0.10476 0.0
H4281 H 0.67572 0.32038 0.07089 0.0
H4282 H 0.67701 0.32922 0.0855 0.0
H4283 H 0.67188 0.3132 0.0857 0.0
C4284 C 0.69139 0.34191 0.12022 0.0
C4285 C 0.68061 0.33663 0.12559 0.0
C4286 C 0.69743 0.33579 0.11038 0.0
C4287 C 0.69278 0.32431 0.10573 0.0
C4288 C 0.68234 0.31879 0.11144 0.0
H4289 H 0.7104 0.27121 0.04763 0.0
H4290 H 0.70224 0.28273 0.06554 0.0
C4291 C 0.67629 0.3249 0.12122 0.0
C4292 C 0.69865 0.31813 0.09479 0.0
H4293 H 0.69217 0.30702 0.06479 0.0
C4294 C 0.71127 0.31446 0.09598 0.0
C4295 C 0.69175 0.31561 0.08331 0.0
C4296 C 0.67838 0.31991 0.08119 0.0
C4297 C 0.71704 0.30796 0.08615 0.0
C4298 C 0.71003 0.30521 0.07479 0.0
C4299 C 0.69749 0.30907 0.07354 0.0
C4300 C 0.7154 0.29813 0.06415 0.0
C4301 C 0.73044 0.30375 0.08812 0.0
C4302 C 0.72549 0.303 0.05735 0.0
C4303 C 0.73014 0.29647 0.04699 0.0
C4304 C 0.72476 0.28495 0.04319 0.0
C4305 C 0.71468 0.28011 0.05011 0.0
C4306 C 0.71004 0.28665 0.06043 0.0
H4307 H 0.73357 0.30417 0.09831 0.0
H4308 H 0.73154 0.29407 0.08462 0.0
H4309 H 0.73675 0.3099 0.08265 0.0
H4310 H 0.72961 0.31197 0.05989 0.0
H4311 H 0.73776 0.3006 0.04181 0.0
H4312 H 0.68464 0.30896 0.88392 0.0
H4313 H 0.69355 0.30293 0.90473 0.0
H4314 H 0.7214 0.33228 0.90247 0.0
H4315 H 0.71271 0.33825 0.88158 0.0
H4316 H 0.71866 0.29527 0.90977 0.0
H4317 H 0.70719 0.337 0.93819 0.0
H4318 H 0.69952 0.33349 0.923 0.0
H4319 H 0.71508 0.34023 0.92367 0.0
C4320 C 0.69265 0.31415 0.88784 0.0
C4321 C 0.69793 0.32411 0.88103 0.0
C4322 C 0.6977 0.31073 0.89977 0.0
C4323 C 0.70805 0.31724 0.90522 0.0
C4324 C 0.71324 0.32728 0.89857 0.0
H4325 H 0.75582 0.30838 0.97319 0.0
H4326 H 0.7454 0.31545 0.95343 0.0
C4327 C 0.70823 0.3307 0.88662 0.0
C4328 C 0.71386 0.31308 0.91752 0.0
H4329 H 0.72088 0.32235 0.94807 0.0
C4330 C 0.71907 0.30115 0.91817 0.0
C4331 C 0.71447 0.32081 0.92843 0.0
C4332 C 0.70868 0.33356 0.92839 0.0
C4333 C 0.7251 0.29681 0.92938 0.0
C4334 C 0.72567 0.30451 0.94034 0.0
C4335 C 0.72043 0.31645 0.93968 0.0
C4336 C 0.73173 0.30036 0.95253 0.0
C4337 C 0.73112 0.28416 0.92925 0.0
C4338 C 0.72736 0.28966 0.95875 0.0
C4339 C 0.73333 0.28556 0.97001 0.0
C4340 C 0.74372 0.29215 0.97538 0.0
C4341 C 0.74787 0.30306 0.96931 0.0
C4342 C 0.74192 0.30712 0.95801 0.0
H4343 H 0.73291 0.28101 0.9194 0.0
H4344 H 0.74016 0.28421 0.93483 0.0
H4345 H 0.72469 0.27725 0.93358 0.0
H4346 H 0.71933 0.28446 0.95488 0.0
H4347 H 0.72981 0.27719 0.97449 0.0
H4348 H 0.7425 0.70305 0.88822 0.0
H4349 H 0.75011 0.71095 0.90892 0.0
H4350 H 0.71288 0.70644 0.92353 0.0
H4351 H 0.70533 0.69801 0.90307 0.0
H4352 H 0.74273 0.73169 0.92056 0.0
H4353 H 0.73383 0.69169 0.95215 0.0
H4354 H 0.73354 0.69022 0.93502 0.0
H4355 H 0.71995 0.69577 0.94303 0.0
C4356 C 0.73599 0.70341 0.89592 0.0
C4357 C 0.72328 0.69983 0.89394 0.0
C4358 C 0.74035 0.70803 0.90774 0.0
C4359 C 0.73214 0.70913 0.91787 0.0
C4360 C 0.7195 0.70542 0.91598 0.0
H4361 H 0.72273 0.74904 0.98525 0.0
H4362 H 0.72263 0.73492 0.96708 0.0
C4363 C 0.71514 0.70076 0.90419 0.0
C4364 C 0.73647 0.71509 0.93007 0.0
H4365 H 0.73593 0.7118 0.9624 0.0
C4366 C 0.7415 0.72724 0.9297 0.0
C4367 C 0.73493 0.70928 0.94202 0.0
C4368 C 0.73039 0.69597 0.94309 0.0
C4369 C 0.74429 0.73399 0.94093 0.0
C4370 C 0.74209 0.72841 0.95285 0.0
C4371 C 0.73761 0.71607 0.95324 0.0
C4372 C 0.74276 0.73577 0.96482 0.0
C4373 C 0.74886 0.7473 0.93996 0.0
C4374 C 0.75421 0.74066 0.96986 0.0
C4375 C 0.75432 0.74874 0.98039 0.0
C4376 C 0.74296 0.7521 0.9859 0.0
C4377 C 0.73164 0.74671 0.98116 0.0
C4378 C 0.73155 0.7386 0.97079 0.0
H4379 H 0.74865 0.75071 0.92998 0.0
H4380 H 0.74299 0.7535 0.94573 0.0
H4381 H 0.75868 0.74803 0.9438 0.0
H4382 H 0.76299 0.73849 0.96545 0.0
H4383 H 0.76317 0.75278 0.98382 0.0
H4384 H 0.3358 0.71219 0.87258 0.0
H4385 H 0.32611 0.72414 0.88949 0.0
H4386 H 0.33057 0.69303 0.91507 0.0
H4387 H 0.34023 0.68105 0.89828 0.0
H4388 H 0.30721 0.7034 0.91627 0.0
H4389 H 0.34441 0.74008 0.92013 0.0
H4390 H 0.33743 0.73821 0.90445 0.0
H4391 H 0.34645 0.72578 0.91145 0.0
C4392 C 0.33478 0.70791 0.88183 0.0
C4393 C 0.33881 0.69565 0.88405 0.0
C4394 C 0.32926 0.71477 0.8915 0.0
C4395 C 0.32778 0.70956 0.90362 0.0
C4396 C 0.33161 0.69726 0.9058 0.0
H4397 H 0.31482 0.74524 0.97583 0.0
H4398 H 0.32334 0.73485 0.95734 0.0
C4399 C 0.33708 0.6904 0.89615 0.0
C4400 C 0.3222 0.71681 0.91408 0.0
H4401 H 0.32645 0.74284 0.93255 0.0
C4402 C 0.3114 0.71204 0.91981 0.0
C4403 C 0.32776 0.728 0.91881 0.0
C4404 C 0.33971 0.73329 0.91349 0.0
C4405 C 0.306 0.71815 0.9301 0.0
C4406 C 0.31142 0.72947 0.93468 0.0
C4407 C 0.32224 0.73423 0.92897 0.0
C4408 C 0.30628 0.73626 0.94568 0.0
C4409 C 0.29476 0.71224 0.93622 0.0
C4410 C 0.29392 0.74075 0.94521 0.0
C4411 C 0.28902 0.74672 0.95578 0.0
C4412 C 0.29639 0.74843 0.96703 0.0
C4413 C 0.30889 0.7442 0.96733 0.0
C4414 C 0.31377 0.73821 0.95677 0.0
H4415 H 0.29372 0.70221 0.93372 0.0
H4416 H 0.2955 0.71312 0.94675 0.0
H4417 H 0.28609 0.71703 0.93284 0.0
H4418 H 0.28806 0.73963 0.93666 0.0
H4419 H 0.27946 0.75006 0.95511 0.0
H4420 H 0.3147 0.3264 0.89388 0.0
H4421 H 0.30092 0.31769 0.90995 0.0
H4422 H 0.32325 0.33596 0.93958 0.0
H4423 H 0.33692 0.34489 0.92363 0.0
H4424 H 0.31786 0.31041 0.94427 0.0
H4425 H 0.27489 0.33693 0.93077 0.0
H4426 H 0.28202 0.32873 0.91799 0.0
H4427 H 0.29036 0.34143 0.92569 0.0
C4428 C 0.31661 0.32868 0.9038 0.0
C4429 C 0.32694 0.33636 0.90744 0.0
C4430 C 0.30873 0.32369 0.91297 0.0
C4431 C 0.31099 0.3263 0.92594 0.0
C4432 C 0.32134 0.33384 0.92962 0.0
H4433 H 0.264 0.31421 0.991 0.0
H4434 H 0.27649 0.32304 0.97398 0.0
C4435 C 0.3292 0.33886 0.92048 0.0
C4436 C 0.30275 0.321 0.93575 0.0
H4437 H 0.27276 0.32136 0.94655 0.0
C4438 C 0.308 0.31279 0.94477 0.0
C4439 C 0.28992 0.32424 0.93645 0.0
C4440 C 0.28394 0.33339 0.92729 0.0
C4441 C 0.30073 0.30762 0.95441 0.0
C4442 C 0.28785 0.31065 0.95496 0.0
C4443 C 0.28262 0.31898 0.94603 0.0
C4444 C 0.27972 0.30536 0.96486 0.0
C4445 C 0.30695 0.2991 0.96407 0.0
C4446 C 0.27715 0.29253 0.96519 0.0
C4447 C 0.26994 0.28746 0.97484 0.0
C4448 C 0.26513 0.29511 0.98439 0.0
C4449 C 0.26745 0.30803 0.9838 0.0
C4450 C 0.27464 0.3131 0.9741 0.0
H4451 H 0.31738 0.29989 0.96403 0.0
H4452 H 0.30378 0.3012 0.97381 0.0
H4453 H 0.30426 0.28931 0.9618 0.0
H4454 H 0.28077 0.28642 0.958 0.0
H4455 H 0.26813 0.27753 0.9748 0.0
H4456 H 0.62105 0.70874 0.19646 0.0
H4457 H 0.6008 0.71328 0.2058 0.0
H4458 H 0.60527 0.68197 0.23109 0.0
H4459 H 0.62542 0.67722 0.22169 0.0
H4460 H 0.57867 0.69789 0.20815 0.0
H4461 H 0.59978 0.71182 0.25517 0.0
H4462 H 0.60895 0.71054 0.24107 0.0
H4463 H 0.60431 0.69678 0.24951 0.0
C4464 C 0.61766 0.7027 0.20388 0.0
C4465 C 0.62494 0.69266 0.20837 0.0
C4466 C 0.60611 0.70536 0.20926 0.0
C4467 C 0.60164 0.69809 0.21928 0.0
C4468 C 0.60868 0.68786 0.22354 0.0
H4469 H 0.53679 0.70348 0.26752 0.0
H4470 H 0.55599 0.6972 0.25719 0.0
C4471 C 0.62021 0.68517 0.21816 0.0
C4472 C 0.58968 0.7013 0.22536 0.0
H4473 H 0.57756 0.71083 0.25344 0.0
C4474 C 0.57841 0.70074 0.21804 0.0
C4475 C 0.58937 0.705 0.23828 0.0
C4476 C 0.60124 0.70619 0.24648 0.0
C4477 C 0.56681 0.7036 0.22334 0.0
C4478 C 0.56651 0.7074 0.23624 0.0
C4479 C 0.57779 0.70791 0.24356 0.0
C4480 C 0.55465 0.71105 0.24229 0.0
C4481 C 0.55496 0.70228 0.21513 0.0
C4482 C 0.54755 0.72101 0.23745 0.0
C4483 C 0.53649 0.72457 0.24327 0.0
C4484 C 0.53233 0.71832 0.25417 0.0
C4485 C 0.53955 0.7084 0.25906 0.0
C4486 C 0.5506 0.70484 0.2532 0.0
H4487 H 0.55631 0.69597 0.20692 0.0
H4488 H 0.54702 0.69865 0.22072 0.0
H4489 H 0.55233 0.71155 0.21131 0.0
H4490 H 0.55061 0.72612 0.2292 0.0
H4491 H 0.53118 0.73216 0.23913 0.0
H4492 H 0.33669 0.62701 0.20534 0.0
H4493 H 0.33059 0.60995 0.21938 0.0
H4494 H 0.30076 0.59929 0.19267 0.0
H4495 H 0.30667 0.61641 0.17865 0.0
H4496 H 0.30716 0.60397 0.23078 0.0
H4497 H 0.32169 0.56735 0.19711 0.0
H4498 H 0.32642 0.58347 0.19556 0.0
H4499 H 0.31087 0.57848 0.19044 0.0
C4500 C 0.3287 0.62117 0.20253 0.0
C4501 C 0.32223 0.62306 0.19079 0.0
C4502 C 0.32527 0.61138 0.21054 0.0
C4503 C 0.31537 0.60321 0.20697 0.0
C4504 C 0.30861 0.60531 0.19549 0.0
H4505 H 0.28261 0.53594 0.23732 0.0
H4506 H 0.28817 0.55433 0.22508 0.0
C4507 C 0.31201 0.61511 0.18748 0.0
C4508 C 0.31226 0.59236 0.21511 0.0
H4509 H 0.31097 0.56057 0.2153 0.0
C4510 C 0.30804 0.59447 0.22744 0.0
C4511 C 0.31345 0.57998 0.21073 0.0
C4512 C 0.31846 0.57712 0.19778 0.0
C4513 C 0.30464 0.58453 0.23539 0.0
C4514 C 0.30575 0.57214 0.23097 0.0
C4515 C 0.31009 0.57006 0.21868 0.0
C4516 C 0.30221 0.56118 0.23879 0.0
C4517 C 0.29956 0.5874 0.2483 0.0
C4518 C 0.3083 0.55881 0.25058 0.0
C4519 C 0.30505 0.5483 0.25772 0.0
C4520 C 0.29568 0.53988 0.25318 0.0
C4521 C 0.28969 0.54227 0.24129 0.0
C4522 C 0.29293 0.55277 0.2342 0.0
H4523 H 0.29627 0.59715 0.24892 0.0
H4524 H 0.29162 0.58102 0.25051 0.0
H4525 H 0.30713 0.58612 0.25568 0.0
H4526 H 0.31567 0.56502 0.25422 0.0
H4527 H 0.30983 0.54683 0.26682 0.0
H4528 H 0.40189 0.34097 0.21734 0.0
H4529 H 0.41961 0.33035 0.22806 0.0
H4530 H 0.41319 0.29839 0.20377 0.0
H4531 H 0.39565 0.30893 0.19294 0.0
H4532 H 0.42038 0.30502 0.24053 0.0
H4533 H 0.4508 0.31006 0.19884 0.0
H4534 H 0.43717 0.31962 0.20107 0.0
H4535 H 0.43527 0.30396 0.19522 0.0
C4536 C 0.40424 0.33166 0.2143 0.0
C4537 C 0.39736 0.32582 0.20424 0.0
C4538 C 0.41432 0.3256 0.22048 0.0
C4539 C 0.41778 0.31364 0.21662 0.0
C4540 C 0.41073 0.30766 0.20684 0.0
H4541 H 0.46921 0.25583 0.22768 0.0
H4542 H 0.45327 0.27099 0.22203 0.0
C4543 C 0.40063 0.31367 0.20072 0.0
C4544 C 0.42899 0.30746 0.22243 0.0
H4545 H 0.45754 0.2958 0.21489 0.0
C4546 C 0.42861 0.30315 0.23503 0.0
C4547 C 0.43974 0.30514 0.21526 0.0
C4548 C 0.44088 0.31002 0.20188 0.0
C4549 C 0.43841 0.29591 0.24036 0.0
C4550 C 0.44889 0.29308 0.23294 0.0
C4551 C 0.4495 0.29794 0.22057 0.0
C4552 C 0.45856 0.28392 0.23711 0.0
C4553 C 0.43718 0.29076 0.25362 0.0
C4554 C 0.46691 0.28609 0.24756 0.0
C4555 C 0.47617 0.27731 0.2509 0.0
C4556 C 0.47722 0.26628 0.24378 0.0
C4557 C 0.46876 0.2642 0.23339 0.0
C4558 C 0.45959 0.27289 0.23011 0.0
H4559 H 0.4277 0.29237 0.25742 0.0
H4560 H 0.43901 0.2806 0.2537 0.0
H4561 H 0.44428 0.29532 0.26009 0.0
H4562 H 0.46639 0.29462 0.253 0.0
H4563 H 0.48255 0.27921 0.25892 0.0
H4564 H 0.69672 0.39145 0.20042 0.0
H4565 H 0.70855 0.40769 0.21226 0.0
H4566 H 0.67604 0.43129 0.21057 0.0
H4567 H 0.66412 0.41509 0.19881 0.0
H4568 H 0.71174 0.43297 0.2016 0.0
H4569 H 0.68946 0.43283 0.24883 0.0
H4570 H 0.68885 0.41945 0.23837 0.0
H4571 H 0.67917 0.43265 0.23488 0.0
C4572 C 0.69202 0.4 0.20278 0.0
C4573 C 0.6795 0.402 0.19864 0.0
C4574 C 0.69879 0.40927 0.20951 0.0
C4575 C 0.69313 0.42064 0.21239 0.0
C4576 C 0.68053 0.42253 0.20859 0.0
H4577 H 0.72569 0.48995 0.24475 0.0
H4578 H 0.71054 0.47352 0.23783 0.0
C4579 C 0.67378 0.41331 0.20177 0.0
C4580 C 0.70074 0.43089 0.21831 0.0
H4581 H 0.70498 0.44833 0.2454 0.0
C4582 C 0.71028 0.43632 0.21118 0.0
C4583 C 0.69865 0.43538 0.23072 0.0
C4584 C 0.68853 0.42977 0.23874 0.0
C4585 C 0.71786 0.44606 0.21614 0.0
C4586 C 0.7161 0.45027 0.22873 0.0
C4587 C 0.70636 0.44505 0.23579 0.0
C4588 C 0.72477 0.45967 0.23477 0.0
C4589 C 0.72761 0.45183 0.20775 0.0
C4590 C 0.73766 0.45713 0.23593 0.0
C4591 C 0.74623 0.46645 0.2397 0.0
C4592 C 0.74209 0.47845 0.24266 0.0
C4593 C 0.7291 0.48076 0.24254 0.0
C4594 C 0.72047 0.47141 0.23856 0.0
H4595 H 0.72525 0.45026 0.1975 0.0
H4596 H 0.72856 0.46201 0.20946 0.0
H4597 H 0.73687 0.4475 0.20989 0.0
H4598 H 0.74116 0.44806 0.23338 0.0
H4599 H 0.75618 0.46437 0.23987 0.0
H4600 H 0.61982 0.33297 0.81962 0.0
H4601 H 0.59901 0.32625 0.81129 0.0
H4602 H 0.6165 0.30499 0.78201 0.0
H4603 H 0.63727 0.31135 0.79044 0.0
H4604 H 0.58793 0.3293 0.78621 0.0
H4605 H 0.59334 0.27949 0.79921 0.0
H4606 H 0.60351 0.29161 0.8058 0.0
H4607 H 0.60583 0.28584 0.79 0.0
C4608 C 0.61924 0.32677 0.81148 0.0
C4609 C 0.63023 0.32268 0.80573 0.0
C4610 C 0.60734 0.32302 0.80668 0.0
C4611 C 0.60622 0.31502 0.79612 0.0
C4612 C 0.61715 0.31104 0.79027 0.0
H4613 H 0.54295 0.27635 0.75855 0.0
H4614 H 0.56354 0.28599 0.76322 0.0
C4615 C 0.62902 0.31479 0.79504 0.0
C4616 C 0.59364 0.31074 0.79124 0.0
H4617 H 0.57532 0.28469 0.78667 0.0
C4618 C 0.58514 0.31955 0.78632 0.0
C4619 C 0.59005 0.29801 0.79136 0.0
C4620 C 0.5986 0.28818 0.79697 0.0
C4621 C 0.57319 0.31595 0.78137 0.0
C4622 C 0.56958 0.30323 0.78156 0.0
C4623 C 0.57812 0.29443 0.78643 0.0
C4624 C 0.55682 0.2988 0.77732 0.0
C4625 C 0.56463 0.32578 0.7758 0.0
C4626 C 0.54612 0.30298 0.78346 0.0
C4627 C 0.53432 0.29754 0.78077 0.0
C4628 C 0.53298 0.28769 0.77196 0.0
C4629 C 0.54361 0.28393 0.76536 0.0
C4630 C 0.55541 0.2894 0.76806 0.0
H4631 H 0.57003 0.33415 0.77283 0.0
H4632 H 0.55907 0.32214 0.76745 0.0
H4633 H 0.55797 0.32873 0.78312 0.0
H4634 H 0.54699 0.31004 0.79082 0.0
H4635 H 0.52636 0.30064 0.78607 0.0
H4636 H 0.73809 0.64485 0.81243 0.0
H4637 H 0.74614 0.62497 0.805 0.0
H4638 H 0.71429 0.60581 0.82059 0.0
H4639 H 0.70604 0.62574 0.82794 0.0
H4640 H 0.75194 0.60268 0.81994 0.0
H4641 H 0.71461 0.59483 0.78235 0.0
H4642 H 0.71773 0.60995 0.78938 0.0
H4643 H 0.70942 0.59827 0.79809 0.0
C4644 C 0.73272 0.63642 0.8142 0.0
C4645 C 0.72134 0.63691 0.82067 0.0
C4646 C 0.73739 0.62506 0.81003 0.0
C4647 C 0.73076 0.61393 0.81213 0.0
C4648 C 0.71949 0.61431 0.81875 0.0
H4649 H 0.74347 0.53914 0.78293 0.0
H4650 H 0.73541 0.557 0.79444 0.0
C4651 C 0.71484 0.62569 0.82301 0.0
C4652 C 0.73565 0.60199 0.80726 0.0
H4653 H 0.72995 0.57936 0.78489 0.0
C4654 C 0.74713 0.59754 0.81231 0.0
C4655 C 0.72933 0.59528 0.79734 0.0
C4656 C 0.71713 0.59982 0.79137 0.0
C4657 C 0.75244 0.58653 0.80772 0.0
C4658 C 0.74627 0.57997 0.79757 0.0
C4659 C 0.73469 0.58436 0.79267 0.0
C4660 C 0.75176 0.56875 0.79161 0.0
C4661 C 0.7645 0.58196 0.81395 0.0
C4662 C 0.76371 0.56931 0.78627 0.0
C4663 C 0.76841 0.55905 0.77977 0.0
C4664 C 0.76117 0.54806 0.77831 0.0
C4665 C 0.74931 0.54744 0.78388 0.0
C4666 C 0.74467 0.55767 0.79045 0.0
H4667 H 0.76575 0.58553 0.82384 0.0
H4668 H 0.76475 0.57164 0.81417 0.0
H4669 H 0.77259 0.5854 0.80847 0.0
H4670 H 0.76926 0.57783 0.78673 0.0
H4671 H 0.77752 0.55991 0.77549 0.0
H4672 H 0.41401 0.70578 0.83186 0.0
H4673 H 0.43154 0.71479 0.8204 0.0
H4674 H 0.42341 0.69007 0.7888 0.0
H4675 H 0.40595 0.68072 0.80034 0.0
H4676 H 0.45264 0.69878 0.81042 0.0
H4677 H 0.42697 0.72717 0.77381 0.0
H4678 H 0.41999 0.72328 0.78877 0.0
H4679 H 0.42175 0.71146 0.77694 0.0
C4680 C 0.41593 0.70221 0.82249 0.0
C4681 C 0.4086 0.69244 0.81708 0.0
C4682 C 0.42591 0.70743 0.81592 0.0
C4683 C 0.42874 0.7031 0.80376 0.0
C4684 C 0.42129 0.6936 0.79814 0.0
H4685 H 0.49138 0.7377 0.76154 0.0
H4686 H 0.47391 0.72309 0.76584 0.0
C4687 C 0.41129 0.68831 0.80474 0.0
C4688 C 0.43994 0.70819 0.79741 0.0
H4689 H 0.44903 0.72947 0.77527 0.0
C4690 C 0.45188 0.70533 0.80259 0.0
C4691 C 0.43891 0.7166 0.78711 0.0
C4692 C 0.42625 0.7199 0.78127 0.0
C4693 C 0.46278 0.71112 0.79814 0.0
C4694 C 0.4617 0.7202 0.78843 0.0
C4695 C 0.44984 0.72251 0.78271 0.0
C4696 C 0.47242 0.7286 0.78554 0.0
C4697 C 0.47536 0.70778 0.80416 0.0
C4698 C 0.47723 0.73655 0.79513 0.0
C4699 C 0.48705 0.74482 0.79272 0.0
C4700 C 0.49233 0.74541 0.78063 0.0
C4701 C 0.48756 0.7374 0.77097 0.0
C4702 C 0.47758 0.7291 0.7734 0.0
H4703 H 0.47516 0.69824 0.80823 0.0
H4704 H 0.48295 0.70837 0.79716 0.0
H4705 H 0.47769 0.71439 0.81204 0.0
H4706 H 0.47326 0.73647 0.8045 0.0
H4707 H 0.49044 0.75083 0.8004 0.0
H4708 H 0.33597 0.41781 0.85664 0.0
H4709 H 0.32362 0.43447 0.84689 0.0
H4710 H 0.31028 0.4093 0.8173 0.0
H4711 H 0.32218 0.39237 0.82735 0.0
H4712 H 0.32496 0.44488 0.82348 0.0
H4713 H 0.27759 0.42367 0.8292 0.0
H4714 H 0.29151 0.41769 0.8372 0.0
H4715 H 0.28822 0.41408 0.82071 0.0
C4716 C 0.33026 0.41573 0.84817 0.0
C4717 C 0.32996 0.40367 0.84289 0.0
C4718 C 0.32328 0.42531 0.84254 0.0
C4719 C 0.31583 0.4231 0.83149 0.0
C4720 C 0.31572 0.41117 0.826 0.0
H4721 H 0.26992 0.47271 0.78414 0.0
H4722 H 0.28146 0.45493 0.79298 0.0
C4723 C 0.32268 0.40153 0.83166 0.0
C4724 C 0.30842 0.43341 0.82568 0.0
H4725 H 0.27853 0.44242 0.81736 0.0
C4726 C 0.31481 0.44434 0.82217 0.0
C4727 C 0.29515 0.43271 0.82396 0.0
C4728 C 0.28768 0.42146 0.82806 0.0
C4729 C 0.30833 0.45454 0.81694 0.0
C4730 C 0.29508 0.45386 0.8153 0.0
C4731 C 0.28868 0.4429 0.81865 0.0
C4732 C 0.28772 0.4645 0.8102 0.0
C4733 C 0.31571 0.46594 0.81308 0.0
C4734 C 0.28722 0.47569 0.81706 0.0
C4735 C 0.28064 0.48586 0.81205 0.0
C4736 C 0.27444 0.48505 0.80003 0.0
C4737 C 0.27474 0.47371 0.79332 0.0
C4738 C 0.28126 0.46352 0.79839 0.0
H4739 H 0.32589 0.46396 0.81229 0.0
H4740 H 0.31206 0.4696 0.80382 0.0
H4741 H 0.31472 0.47332 0.82036 0.0
H4742 H 0.29202 0.47658 0.82628 0.0
H4743 H 0.28069 0.49446 0.81743 0.0
H4744 H 0.71212 0.63568 0.17561 0.0
H4745 H 0.72239 0.61571 0.17954 0.0
H4746 H 0.69872 0.60916 0.21147 0.0
H4747 H 0.68852 0.62915 0.20774 0.0
H4748 H 0.73563 0.60875 0.20185 0.0
H4749 H 0.69557 0.57636 0.19157 0.0
H4750 H 0.69552 0.59243 0.18652 0.0
H4751 H 0.69215 0.58847 0.20269 0.0
C4752 C 0.70907 0.62999 0.18346 0.0
C4753 C 0.69946 0.63405 0.19135 0.0
C4754 C 0.71491 0.61855 0.18565 0.0
C4755 C 0.71122 0.61087 0.1957 0.0
C4756 C 0.70153 0.6148 0.20349 0.0
H4757 H 0.73584 0.54391 0.23298 0.0
H4758 H 0.72531 0.56266 0.22545 0.0
C4759 C 0.69569 0.62624 0.20132 0.0
C4760 C 0.71797 0.59911 0.19852 0.0
H4761 H 0.71364 0.56777 0.20216 0.0
C4762 C 0.73087 0.59977 0.20178 0.0
C4763 C 0.71172 0.58741 0.19845 0.0
C4764 C 0.698 0.58606 0.19451 0.0
C4765 C 0.7376 0.5891 0.20543 0.0
C4766 C 0.73131 0.57741 0.20556 0.0
C4767 C 0.71845 0.57673 0.20206 0.0
C4768 C 0.73774 0.56587 0.20985 0.0
C4769 C 0.75127 0.59051 0.20957 0.0
C4770 C 0.74816 0.5613 0.20349 0.0
C4771 C 0.75432 0.55059 0.20787 0.0
C4772 C 0.75014 0.5442 0.21867 0.0
C4773 C 0.73952 0.54868 0.22481 0.0
C4774 C 0.73339 0.55937 0.22045 0.0
H4775 H 0.75384 0.60035 0.21181 0.0
H4776 H 0.75345 0.58472 0.21809 0.0
H4777 H 0.75726 0.58736 0.20176 0.0
H4778 H 0.75154 0.56602 0.19514 0.0
H4779 H 0.76246 0.54745 0.20291 0.0
H4780 H 0.71641 0.3887 0.81585 0.0
H4781 H 0.72206 0.40861 0.80618 0.0
H4782 H 0.68438 0.4118 0.79025 0.0
H4783 H 0.67869 0.39172 0.79959 0.0
H4784 H 0.71966 0.41381 0.77876 0.0
H4785 H 0.6922 0.44605 0.80835 0.0
H4786 H 0.69635 0.43058 0.8136 0.0
H4787 H 0.68393 0.43265 0.80186 0.0
C4788 C 0.70931 0.3936 0.81027 0.0
C4789 C 0.69709 0.38855 0.80847 0.0
C4790 C 0.71254 0.40502 0.80482 0.0
C4791 C 0.70361 0.4117 0.79759 0.0
C4792 C 0.69135 0.40686 0.79596 0.0
H4793 H 0.70888 0.48256 0.75722 0.0
H4794 H 0.70144 0.46308 0.76657 0.0
C4795 C 0.68811 0.3954 0.80135 0.0
C4796 C 0.70735 0.42342 0.79121 0.0
H4797 H 0.70302 0.45487 0.7912 0.0
C4798 C 0.71604 0.4228 0.78148 0.0
C4799 C 0.70249 0.43509 0.7947 0.0
C4800 C 0.69328 0.43624 0.80525 0.0
C4801 C 0.72001 0.43355 0.77508 0.0
C4802 C 0.71541 0.44529 0.77877 0.0
C4803 C 0.70656 0.44588 0.7884 0.0
C4804 C 0.71993 0.45708 0.77299 0.0
C4805 C 0.72893 0.43218 0.76429 0.0
C4806 C 0.73277 0.46026 0.7736 0.0
C4807 C 0.73708 0.47131 0.76813 0.0
C4808 C 0.72862 0.47955 0.76206 0.0
C4809 C 0.71571 0.4764 0.76163 0.0
C4810 C 0.71141 0.4653 0.76706 0.0
H4811 H 0.72841 0.42266 0.76013 0.0
H4812 H 0.72687 0.43902 0.75661 0.0
H4813 H 0.73872 0.43381 0.76794 0.0
H4814 H 0.73949 0.45421 0.77836 0.0
H4815 H 0.74708 0.47327 0.76859 0.0
H4816 H 0.65474 0.72299 0.83986 0.0
H4817 H 0.63422 0.73172 0.83415 0.0
H4818 H 0.62645 0.70091 0.80866 0.0
H4819 H 0.64704 0.6921 0.8143 0.0
H4820 H 0.62598 0.73921 0.81021 0.0
H4821 H 0.59419 0.70251 0.82869 0.0
H4822 H 0.6107 0.70349 0.83323 0.0
H4823 H 0.60582 0.69698 0.81808 0.0
C4824 C 0.64867 0.71803 0.83305 0.0
C4825 C 0.65259 0.70685 0.82749 0.0
C4826 C 0.63691 0.72303 0.82984 0.0
C4827 C 0.62872 0.71693 0.82106 0.0
C4828 C 0.63248 0.70566 0.81564 0.0
H4829 H 0.55626 0.73764 0.78635 0.0
H4830 H 0.57585 0.72719 0.7925 0.0
C4831 C 0.64427 0.70063 0.81887 0.0
C4832 C 0.61659 0.7228 0.81713 0.0
H4833 H 0.58463 0.71858 0.81645 0.0
C4834 C 0.61694 0.73471 0.81162 0.0
C4835 C 0.60479 0.7169 0.81889 0.0
C4836 C 0.60378 0.70431 0.82514 0.0
C4837 C 0.60586 0.74083 0.80776 0.0
C4838 C 0.59405 0.73501 0.80965 0.0
C4839 C 0.59368 0.72304 0.81503 0.0
C4840 C 0.582 0.74124 0.80616 0.0
C4841 C 0.6069 0.75341 0.80146 0.0
C4842 C 0.57882 0.75252 0.81194 0.0
C4843 C 0.56766 0.75857 0.80838 0.0
C4844 C 0.55938 0.75345 0.799 0.0
C4845 C 0.56248 0.74199 0.79343 0.0
C4846 C 0.57364 0.73594 0.79701 0.0
H4847 H 0.61643 0.75506 0.79768 0.0
H4848 H 0.59982 0.75433 0.79353 0.0
H4849 H 0.60517 0.76079 0.80857 0.0
H4850 H 0.58501 0.75669 0.81918 0.0
H4851 H 0.56567 0.76738 0.81284 0.0
H4852 H 0.3246 0.62687 0.82411 0.0
H4853 H 0.31433 0.60934 0.81291 0.0
H4854 H 0.34841 0.60246 0.79301 0.0
H4855 H 0.35862 0.62024 0.80382 0.0
H4856 H 0.32683 0.60017 0.77736 0.0
H4857 H 0.32209 0.57316 0.82197 0.0
H4858 H 0.31505 0.58827 0.82238 0.0
H4859 H 0.33182 0.587 0.82109 0.0
C4860 C 0.32986 0.62177 0.8172 0.0
C4861 C 0.34249 0.62491 0.81497 0.0
C4862 C 0.32401 0.61166 0.81091 0.0
C4863 C 0.33069 0.60443 0.80232 0.0
C4864 C 0.34312 0.60783 0.79968 0.0
H4865 H 0.3084 0.5291 0.78023 0.0
H4866 H 0.32037 0.54761 0.78714 0.0
C4867 C 0.34896 0.61795 0.80595 0.0
C4868 C 0.32485 0.59311 0.79637 0.0
H4869 H 0.31187 0.56482 0.80342 0.0
C4870 C 0.32358 0.59242 0.78304 0.0
C4871 C 0.32084 0.58291 0.80378 0.0
C4872 C 0.32261 0.58277 0.81809 0.0
C4873 C 0.31815 0.5819 0.77694 0.0
C4874 C 0.31371 0.57189 0.78439 0.0
C4875 C 0.31521 0.57251 0.79771 0.0
C4876 C 0.30728 0.56073 0.7787 0.0
C4877 C 0.31739 0.58153 0.76259 0.0
C4878 C 0.29606 0.56193 0.77142 0.0
C4879 C 0.28923 0.55135 0.76737 0.0
C4880 C 0.2934 0.53935 0.77065 0.0
C4881 C 0.3049 0.53818 0.77752 0.0
C4882 C 0.31175 0.54876 0.78152 0.0
H4883 H 0.3244 0.58794 0.75839 0.0
H4884 H 0.31895 0.57197 0.75896 0.0
H4885 H 0.30788 0.58451 0.75925 0.0
H4886 H 0.29227 0.57104 0.76934 0.0
H4887 H 0.28037 0.55261 0.76216 0.0
H4888 H 0.39733 0.34083 0.82344 0.0
H4889 H 0.41371 0.32802 0.81436 0.0
H4890 H 0.41204 0.30313 0.84644 0.0
H4891 H 0.39571 0.31588 0.85558 0.0
H4892 H 0.4371 0.32292 0.82494 0.0
H4893 H 0.41018 0.27896 0.81662 0.0
H4894 H 0.40263 0.29355 0.81981 0.0
H4895 H 0.40958 0.28466 0.83265 0.0
C4896 C 0.40041 0.3326 0.82854 0.0
C4897 C 0.39515 0.32937 0.84023 0.0
C4898 C 0.40975 0.32527 0.82331 0.0
C4899 C 0.41399 0.31451 0.82962 0.0
C4900 C 0.40871 0.31121 0.84123 0.0
H4901 H 0.47422 0.26194 0.81768 0.0
H4902 H 0.45667 0.27379 0.8259 0.0
C4903 C 0.39935 0.31852 0.84645 0.0
C4904 C 0.42441 0.30714 0.82439 0.0
H4905 H 0.43239 0.27801 0.81456 0.0
C4906 C 0.43604 0.31312 0.82259 0.0
C4907 C 0.42305 0.29433 0.82138 0.0
C4908 C 0.41066 0.28751 0.82259 0.0
C4909 C 0.44639 0.30662 0.81807 0.0
C4910 C 0.44503 0.29381 0.81508 0.0
C4911 C 0.43342 0.28782 0.81689 0.0
C4912 C 0.45555 0.28652 0.80999 0.0
C4913 C 0.45878 0.31345 0.8168 0.0
C4914 C 0.46063 0.28963 0.79823 0.0
C4915 C 0.47068 0.28291 0.79353 0.0
C4916 C 0.47585 0.27289 0.80046 0.0
C4917 C 0.4706 0.26969 0.81217 0.0
C4918 C 0.46051 0.27641 0.81685 0.0
H4919 H 0.45914 0.32221 0.82243 0.0
H4920 H 0.46677 0.30752 0.81996 0.0
H4921 H 0.46003 0.31589 0.80666 0.0
H4922 H 0.45683 0.29728 0.79268 0.0
H4923 H 0.47452 0.28574 0.78456 0.0
H4924 H 0.31184 0.39211 0.17874 0.0
H4925 H 0.30093 0.40975 0.18809 0.0
H4926 H 0.32747 0.40985 0.21996 0.0
H4927 H 0.33852 0.39239 0.21063 0.0
H4928 H 0.29016 0.41236 0.21361 0.0
H4929 H 0.32906 0.44582 0.20466 0.0
H4930 H 0.32747 0.43104 0.19652 0.0
H4931 H 0.33387 0.43174 0.21254 0.0
C4932 C 0.31536 0.39589 0.18774 0.0
C4933 C 0.32611 0.39086 0.1939 0.0
C4934 C 0.30907 0.40592 0.19309 0.0
C4935 C 0.31348 0.4112 0.20464 0.0
C4936 C 0.32398 0.406 0.21097 0.0
H4937 H 0.30104 0.46786 0.25791 0.0
H4938 H 0.30747 0.45111 0.24416 0.0
C4939 C 0.33023 0.39594 0.20568 0.0
C4940 C 0.30736 0.42233 0.21 0.0
H4941 H 0.31333 0.45251 0.21867 0.0
C4942 C 0.29512 0.42121 0.21458 0.0
C4943 C 0.31382 0.43388 0.21113 0.0
C4944 C 0.32674 0.43578 0.20586 0.0
C4945 C 0.28949 0.43114 0.22096 0.0
C4946 C 0.2962 0.44253 0.22258 0.0
C4947 C 0.30819 0.44378 0.21745 0.0
C4948 C 0.2917 0.45276 0.23079 0.0
C4949 C 0.27669 0.42918 0.22649 0.0
C4950 C 0.28063 0.45937 0.22786 0.0
C4951 C 0.27683 0.46909 0.23582 0.0
C4952 C 0.2841 0.47234 0.24679 0.0
C4953 C 0.29517 0.46568 0.24957 0.0
C4954 C 0.29891 0.45606 0.24169 0.0
H4955 H 0.27366 0.41925 0.22617 0.0
H4956 H 0.27672 0.43245 0.23652 0.0
H4957 H 0.26965 0.4347 0.22097 0.0
H4958 H 0.27501 0.45711 0.21938 0.0
H4959 H 0.26828 0.47404 0.2334 0.0
H4960 H 0.63172 0.31284 0.19823 0.0
H4961 H 0.61657 0.29716 0.20534 0.0
H4962 H 0.58598 0.32132 0.19443 0.0
H4963 H 0.60096 0.33678 0.18686 0.0
H4964 H 0.59863 0.29838 0.22358 0.0
H4965 H 0.576 0.28908 0.17628 0.0
H4966 H 0.5907 0.29756 0.17823 0.0
H4967 H 0.576 0.30528 0.18047 0.0
C4968 C 0.62177 0.31477 0.19723 0.0
C4969 C 0.61758 0.32608 0.19192 0.0
C4970 C 0.61312 0.30583 0.20137 0.0
C4971 C 0.60013 0.30797 0.20019 0.0
C4972 C 0.59594 0.31934 0.19518 0.0
H4973 H 0.53854 0.27447 0.23919 0.0
H4974 H 0.55598 0.28721 0.23184 0.0
C4975 C 0.60455 0.32827 0.19103 0.0
C4976 C 0.59091 0.29843 0.20439 0.0
H4977 H 0.56505 0.28151 0.1943 0.0
C4978 C 0.59135 0.29461 0.21716 0.0
C4979 C 0.58157 0.29332 0.19595 0.0
C4980 C 0.58109 0.29641 0.18194 0.0
C4981 C 0.5824 0.28619 0.22183 0.0
C4982 C 0.5726 0.28166 0.21356 0.0
C4983 C 0.57247 0.2851 0.20068 0.0
C4984 C 0.56217 0.27369 0.21817 0.0
C4985 C 0.58355 0.2822 0.23558 0.0
C4986 C 0.55958 0.26197 0.21269 0.0
C4987 C 0.54953 0.25464 0.21685 0.0
C4988 C 0.54185 0.25892 0.22656 0.0
C4989 C 0.54441 0.27074 0.23192 0.0
C4990 C 0.55442 0.27805 0.22773 0.0
H4991 H 0.59337 0.28329 0.2394 0.0
H4992 H 0.57747 0.28815 0.24138 0.0
H4993 H 0.58052 0.27235 0.23676 0.0
H4994 H 0.56539 0.25846 0.20523 0.0
H4995 H 0.54786 0.24558 0.21257 0.0
H4996 H 0.37102 0.70808 0.18873 0.0
H4997 H 0.38735 0.7209 0.1995 0.0
H4998 H 0.41576 0.69576 0.18692 0.0
H4999 H 0.39965 0.68328 0.1757 0.0
H5000 H 0.40242 0.71432 0.21876 0.0
H5001 H 0.43228 0.7285 0.17921 0.0
H5002 H 0.4167 0.72192 0.17656 0.0
H5003 H 0.43003 0.71194 0.17925 0.0
C5004 C 0.38078 0.70544 0.18801 0.0
C5005 C 0.38399 0.6946 0.18138 0.0
C5006 C 0.3901 0.71275 0.19423 0.0
C5007 C 0.40283 0.70944 0.19386 0.0
C5008 C 0.40606 0.69872 0.18709 0.0
H5009 H 0.46131 0.7146 0.24899 0.0
H5010 H 0.44352 0.7104 0.23448 0.0
C5011 C 0.39678 0.69145 0.18086 0.0
C5012 C 0.41264 0.71639 0.20149 0.0
H5013 H 0.44253 0.72837 0.20025 0.0
C5014 C 0.41107 0.71762 0.21465 0.0
C5015 C 0.42388 0.72095 0.19616 0.0
C5016 C 0.42576 0.72089 0.182 0.0
C5017 C 0.42074 0.72244 0.22269 0.0
C5018 C 0.4324 0.7259 0.2175 0.0
C5019 C 0.43367 0.72552 0.20426 0.0
C5020 C 0.44365 0.72865 0.22581 0.0
C5021 C 0.41847 0.7235 0.23675 0.0
C5022 C 0.45004 0.74017 0.22539 0.0
C5023 C 0.4604 0.74262 0.2337 0.0
C5024 C 0.46451 0.73354 0.24248 0.0
C5025 C 0.45832 0.72189 0.24249 0.0
C5026 C 0.44808 0.71947 0.23423 0.0
H5027 H 0.40829 0.72452 0.23857 0.0
H5028 H 0.42172 0.71489 0.2416 0.0
H5029 H 0.4237 0.73155 0.24106 0.0
H5030 H 0.44685 0.74734 0.21885 0.0
H5031 H 0.465 0.75167 0.23344 0.0
loop_
_geom_bond_atom_site_label_1
_geom_bond_atom_site_label_2
_geom_bond_distance
_geom_bond_site_symmetry_2
_ccdc_geom_bond_type
P0 O11 1.490 . S
P0 C14 1.812 . S
P0 C20 1.803 . S
P0 C26 1.819 . S
H1 C15 0.941 . S
H2 C16 0.939 . S
H3 C18 0.940 . S
H4 C19 0.940 . S
H5 C21 0.939 . S
H6 C22 0.942 . S
H7 C24 0.940 . S
H8 C25 0.939 . S
H9 C27 0.941 . S
H10 C31 0.939 . S
O11 P0 1.490 . S
H12 C28 0.939 . S
H13 C30 0.940 . S
C14 P0 1.812 . S
C14 C15 1.389 . S
C14 C19 1.391 . S
C15 H1 0.941 . S
C15 C14 1.389 . S
C15 C16 1.397 . S
C16 H2 0.939 . S
C16 C15 1.397 . S
C16 C17 1.378 . S
C17 C16 1.378 . S
C17 C18 1.378 . S
C18 H3 0.940 . S
C18 C17 1.378 . S
C18 C19 1.396 . S
C19 H4 0.940 . S
C19 C14 1.391 . S
C19 C18 1.396 . S
C20 P0 1.803 . S
C20 C21 1.378 . S
C20 C25 1.400 . S
C21 H5 0.939 . S
C21 C20 1.378 . S
C21 C22 1.361 . S
C22 H6 0.942 . S
C22 C21 1.361 . S
C22 C23 1.369 . S
C23 C22 1.369 . S
C23 C24 1.404 . S
C24 H7 0.940 . S
C24 C23 1.404 . S
C24 C25 1.389 . S
C25 H8 0.939 . S
C25 C20 1.400 . S
C25 C24 1.389 . S
C26 P0 1.819 . S
C26 C27 1.391 . S
C26 C31 1.391 . S
C27 H9 0.941 . S
C27 C26 1.391 . S
C27 C28 1.396 . S
C28 H12 0.939 . S
C28 C27 1.396 . S
C28 C29 1.397 . S
C29 C28 1.397 . S
C29 C30 1.385 . S
C30 H13 0.940 . S
C30 C29 1.385 . S
C30 C31 1.388 . S
C31 H10 0.939 . S
C31 C26 1.391 . S
C31 C30 1.388 . S
P32 O43 1.490 . S
P32 C46 1.812 . S
P32 C52 1.803 . S
P32 C58 1.819 . S
H33 C47 0.941 . S
H34 C48 0.939 . S
H35 C50 0.940 . S
H36 C51 0.940 . S
H37 C53 0.939 . S
H38 C54 0.942 . S
H39 C56 0.940 . S
H40 C57 0.939 . S
H41 C59 0.941 . S
H42 C63 0.939 . S
O43 P32 1.490 . S
H44 C60 0.939 . S
H45 C62 0.940 . S
C46 P32 1.812 . S
C46 C47 1.389 . S
C46 C51 1.391 . S
C47 H33 0.941 . S
C47 C46 1.389 . S
C47 C48 1.397 . S
C48 H34 0.939 . S
C48 C47 1.397 . S
C48 C49 1.378 . S
C49 C48 1.378 . S
C49 C50 1.378 . S
C50 H35 0.940 . S
C50 C49 1.378 . S
C50 C51 1.396 . S
C51 H36 0.940 . S
C51 C46 1.391 . S
C51 C50 1.396 . S
C52 P32 1.803 . S
C52 C53 1.378 . S
C52 C57 1.400 . S
C53 H37 0.939 . S
C53 C52 1.378 . S
C53 C54 1.361 . S
C54 H38 0.942 . S
C54 C53 1.361 . S
C54 C55 1.369 . S
C55 C54 1.369 . S
C55 C56 1.404 . S
C56 H39 0.940 . S
C56 C55 1.404 . S
C56 C57 1.389 . S
C57 H40 0.939 . S
C57 C52 1.400 . S
C57 C56 1.389 . S
C58 P32 1.819 . S
C58 C59 1.391 . S
C58 C63 1.391 . S
C59 H41 0.941 . S
C59 C58 1.391 . S
C59 C60 1.396 . S
C60 H44 0.939 . S
C60 C59 1.396 . S
C60 C61 1.397 . S
C61 C60 1.397 . S
C61 C62 1.385 . S
C62 H45 0.940 . S
C62 C61 1.385 . S
C62 C63 1.388 . S
C63 H42 0.939 . S
C63 C58 1.391 . S
C63 C62 1.388 . S
P64 O75 1.490 . S
P64 C78 1.812 . S
P64 C84 1.803 . S
P64 C90 1.819 . S
H65 C79 0.941 . S
H66 C80 0.939 . S
H67 C82 0.940 . S
H68 C83 0.940 . S
H69 C85 0.939 . S
H70 C86 0.942 . S
H71 C88 0.940 . S
H72 C89 0.939 . S
H73 C91 0.941 . S
H74 C95 0.939 . S
O75 P64 1.490 . S
H76 C92 0.939 . S
H77 C94 0.940 . S
C78 P64 1.812 . S
C78 C79 1.389 . S
C78 C83 1.391 . S
C79 H65 0.941 . S
C79 C78 1.389 . S
C79 C80 1.397 . S
C80 H66 0.939 . S
C80 C79 1.397 . S
C80 C81 1.378 . S
C81 C80 1.378 . S
C81 C82 1.378 . S
C82 H67 0.940 . S
C82 C81 1.378 . S
C82 C83 1.396 . S
C83 H68 0.940 . S
C83 C78 1.391 . S
C83 C82 1.396 . S
C84 P64 1.803 . S
C84 C85 1.378 . S
C84 C89 1.400 . S
C85 H69 0.939 . S
C85 C84 1.378 . S
C85 C86 1.361 . S
C86 H70 0.942 . S
C86 C85 1.361 . S
C86 C87 1.369 . S
C87 C86 1.369 . S
C87 C88 1.404 . S
C88 H71 0.940 . S
C88 C87 1.404 . S
C88 C89 1.389 . S
C89 H72 0.939 . S
C89 C84 1.400 . S
C89 C88 1.389 . S
C90 P64 1.819 . S
C90 C91 1.391 . S
C90 C95 1.391 . S
C91 H73 0.941 . S
C91 C90 1.391 . S
C91 C92 1.396 . S
C92 H76 0.939 . S
C92 C91 1.396 . S
C92 C93 1.397 . S
C93 C92 1.397 . S
C93 C94 1.385 . S
C94 H77 0.940 . S
C94 C93 1.385 . S
C94 C95 1.388 . S
C95 H74 0.939 . S
C95 C90 1.391 . S
C95 C94 1.388 . S
P96 O107 1.490 . S
P96 C110 1.812 . S
P96 C116 1.803 . S
P96 C122 1.819 . S
H97 C111 0.941 . S
H98 C112 0.939 . S
H99 C114 0.940 . S
H100 C115 0.940 . S
H101 C117 0.939 . S
H102 C118 0.942 . S
H103 C120 0.940 . S
H104 C121 0.939 . S
H105 C123 0.941 . S
H106 C127 0.939 . S
O107 P96 1.490 . S
H108 C124 0.939 . S
H109 C126 0.940 . S
C110 P96 1.812 . S
C110 C111 1.389 . S
C110 C115 1.391 . S
C111 H97 0.941 . S
C111 C110 1.389 . S
C111 C112 1.397 . S
C112 H98 0.939 . S
C112 C111 1.397 . S
C112 C113 1.378 . S
C113 C112 1.378 . S
C113 C114 1.378 . S
C114 H99 0.940 . S
C114 C113 1.378 . S
C114 C115 1.396 . S
C115 H100 0.940 . S
C115 C110 1.391 . S
C115 C114 1.396 . S
C116 P96 1.803 . S
C116 C117 1.378 . S
C116 C121 1.400 . S
C117 H101 0.939 . S
C117 C116 1.378 . S
C117 C118 1.361 . S
C118 H102 0.942 . S
C118 C117 1.361 . S
C118 C119 1.369 . S
C119 C118 1.369 . S
C119 C120 1.404 . S
C120 H103 0.940 . S
C120 C119 1.404 . S
C120 C121 1.389 . S
C121 H104 0.939 . S
C121 C116 1.400 . S
C121 C120 1.389 . S
C122 P96 1.819 . S
C122 C123 1.391 . S
C122 C127 1.391 . S
C123 H105 0.941 . S
C123 C122 1.391 . S
C123 C124 1.396 . S
C124 H108 0.939 . S
C124 C123 1.396 . S
C124 C125 1.397 . S
C125 C124 1.397 . S
C125 C126 1.385 . S
C126 H109 0.940 . S
C126 C125 1.385 . S
C126 C127 1.388 . S
C127 H106 0.939 . S
C127 C122 1.391 . S
C127 C126 1.388 . S
P128 O139 1.490 . S
P128 C142 1.812 . S
P128 C148 1.803 . S
P128 C154 1.819 . S
H129 C143 0.941 . S
H130 C144 0.939 . S
H131 C146 0.940 . S
H132 C147 0.940 . S
H133 C149 0.939 . S
H134 C150 0.942 . S
H135 C152 0.940 . S
H136 C153 0.939 . S
H137 C155 0.941 . S
H138 C159 0.939 . S
O139 P128 1.490 . S
H140 C156 0.939 . S
H141 C158 0.940 . S
C142 P128 1.812 . S
C142 C143 1.389 . S
C142 C147 1.391 . S
C143 H129 0.941 . S
C143 C142 1.389 . S
C143 C144 1.397 . S
C144 H130 0.939 . S
C144 C143 1.397 . S
C144 C145 1.378 . S
C145 C144 1.378 . S
C145 C146 1.378 . S
C146 H131 0.940 . S
C146 C145 1.378 . S
C146 C147 1.396 . S
C147 H132 0.940 . S
C147 C142 1.391 . S
C147 C146 1.396 . S
C148 P128 1.803 . S
C148 C149 1.378 . S
C148 C153 1.400 . S
C149 H133 0.939 . S
C149 C148 1.378 . S
C149 C150 1.361 . S
C150 H134 0.942 . S
C150 C149 1.361 . S
C150 C151 1.369 . S
C151 C150 1.369 . S
C151 C152 1.404 . S
C152 H135 0.940 . S
C152 C151 1.404 . S
C152 C153 1.389 . S
C153 H136 0.939 . S
C153 C148 1.400 . S
C153 C152 1.389 . S
C154 P128 1.819 . S
C154 C155 1.391 . S
C154 C159 1.391 . S
C155 H137 0.941 . S
C155 C154 1.391 . S
C155 C156 1.396 . S
C156 H140 0.939 . S
C156 C155 1.396 . S
C156 C157 1.397 . S
C157 C156 1.397 . S
C157 C158 1.385 . S
C158 H141 0.940 . S
C158 C157 1.385 . S
C158 C159 1.388 . S
C159 H138 0.939 . S
C159 C154 1.391 . S
C159 C158 1.388 . S
P160 O171 1.490 . S
P160 C174 1.812 . S
P160 C180 1.803 . S
P160 C186 1.819 . S
H161 C175 0.941 . S
H162 C176 0.939 . S
H163 C178 0.940 . S
H164 C179 0.940 . S
H165 C181 0.939 . S
H166 C182 0.942 . S
H167 C184 0.940 . S
H168 C185 0.939 . S
H169 C187 0.941 . S
H170 C191 0.939 . S
O171 P160 1.490 . S
H172 C188 0.939 . S
H173 C190 0.940 . S
C174 P160 1.812 . S
C174 C175 1.389 . S
C174 C179 1.391 . S
C175 H161 0.941 . S
C175 C174 1.389 . S
C175 C176 1.397 . S
C176 H162 0.939 . S
C176 C175 1.397 . S
C176 C177 1.378 . S
C177 C176 1.378 . S
C177 C178 1.378 . S
C178 H163 0.940 . S
C178 C177 1.378 . S
C178 C179 1.396 . S
C179 H164 0.940 . S
C179 C174 1.391 . S
C179 C178 1.396 . S
C180 P160 1.803 . S
C180 C181 1.378 . S
C180 C185 1.400 . S
C181 H165 0.939 . S
C181 C180 1.378 . S
C181 C182 1.361 . S
C182 H166 0.942 . S
C182 C181 1.361 . S
C182 C183 1.369 . S
C183 C182 1.369 . S
C183 C184 1.404 . S
C184 H167 0.940 . S
C184 C183 1.404 . S
C184 C185 1.389 . S
C185 H168 0.939 . S
C185 C180 1.400 . S
C185 C184 1.389 . S
C186 P160 1.819 . S
C186 C187 1.391 . S
C186 C191 1.391 . S
C187 H169 0.941 . S
C187 C186 1.391 . S
C187 C188 1.396 . S
C188 H172 0.939 . S
C188 C187 1.396 . S
C188 C189 1.397 . S
C189 C188 1.397 . S
C189 C190 1.385 . S
C190 H173 0.940 . S
C190 C189 1.385 . S
C190 C191 1.388 . S
C191 H170 0.939 . S
C191 C186 1.391 . S
C191 C190 1.388 . S
P192 O203 1.490 . S
P192 C206 1.812 . S
P192 C212 1.803 . S
P192 C218 1.819 . S
H193 C207 0.941 . S
H194 C208 0.939 . S
H195 C210 0.940 . S
H196 C211 0.940 . S
H197 C213 0.939 . S
H198 C214 0.942 . S
H199 C216 0.940 . S
H200 C217 0.939 . S
H201 C219 0.941 . S
H202 C223 0.939 . S
O203 P192 1.490 . S
H204 C220 0.939 . S
H205 C222 0.940 . S
C206 P192 1.812 . S
C206 C207 1.389 . S
C206 C211 1.391 . S
C207 H193 0.941 . S
C207 C206 1.389 . S
C207 C208 1.397 . S
C208 H194 0.939 . S
C208 C207 1.397 . S
C208 C209 1.378 . S
C209 C208 1.378 . S
C209 C210 1.378 . S
C210 H195 0.940 . S
C210 C209 1.378 . S
C210 C211 1.396 . S
C211 H196 0.940 . S
C211 C206 1.391 . S
C211 C210 1.396 . S
C212 P192 1.803 . S
C212 C213 1.378 . S
C212 C217 1.400 . S
C213 H197 0.939 . S
C213 C212 1.378 . S
C213 C214 1.361 . S
C214 H198 0.942 . S
C214 C213 1.361 . S
C214 C215 1.369 . S
C215 C214 1.369 . S
C215 C216 1.404 . S
C216 H199 0.940 . S
C216 C215 1.404 . S
C216 C217 1.389 . S
C217 H200 0.939 . S
C217 C212 1.400 . S
C217 C216 1.389 . S
C218 P192 1.819 . S
C218 C219 1.391 . S
C218 C223 1.391 . S
C219 H201 0.941 . S
C219 C218 1.391 . S
C219 C220 1.396 . S
C220 H204 0.939 . S
C220 C219 1.396 . S
C220 C221 1.397 . S
C221 C220 1.397 . S
C221 C222 1.385 . S
C222 H205 0.940 . S
C222 C221 1.385 . S
C222 C223 1.388 . S
C223 H202 0.939 . S
C223 C218 1.391 . S
C223 C222 1.388 . S
P224 O235 1.490 . S
P224 C238 1.812 . S
P224 C244 1.803 . S
P224 C250 1.819 . S
H225 C239 0.941 . S
H226 C240 0.939 . S
H227 C242 0.940 . S
H228 C243 0.940 . S
H229 C245 0.939 . S
H230 C246 0.942 . S
H231 C248 0.940 . S
H232 C249 0.939 . S
H233 C251 0.941 . S
H234 C255 0.939 . S
O235 P224 1.490 . S
H236 C252 0.939 . S
H237 C254 0.940 . S
C238 P224 1.812 . S
C238 C239 1.389 . S
C238 C243 1.391 . S
C239 H225 0.941 . S
C239 C238 1.389 . S
C239 C240 1.397 . S
C240 H226 0.939 . S
C240 C239 1.397 . S
C240 C241 1.378 . S
C241 C240 1.378 . S
C241 C242 1.378 . S
C242 H227 0.940 . S
C242 C241 1.378 . S
C242 C243 1.396 . S
C243 H228 0.940 . S
C243 C238 1.391 . S
C243 C242 1.396 . S
C244 P224 1.803 . S
C244 C245 1.378 . S
C244 C249 1.400 . S
C245 H229 0.939 . S
C245 C244 1.378 . S
C245 C246 1.361 . S
C246 H230 0.942 . S
C246 C245 1.361 . S
C246 C247 1.369 . S
C247 C246 1.369 . S
C247 C248 1.404 . S
C248 H231 0.940 . S
C248 C247 1.404 . S
C248 C249 1.389 . S
C249 H232 0.939 . S
C249 C244 1.400 . S
C249 C248 1.389 . S
C250 P224 1.819 . S
C250 C251 1.391 . S
C250 C255 1.391 . S
C251 H233 0.941 . S
C251 C250 1.391 . S
C251 C252 1.396 . S
C252 H236 0.939 . S
C252 C251 1.396 . S
C252 C253 1.397 . S
C253 C252 1.397 . S
C253 C254 1.385 . S
C254 H237 0.940 . S
C254 C253 1.385 . S
C254 C255 1.388 . S
C255 H234 0.939 . S
C255 C250 1.391 . S
C255 C254 1.388 . S
P256 O267 1.490 . S
P256 C270 1.812 . S
P256 C276 1.803 . S
P256 C282 1.819 . S
H257 C271 0.941 . S
H258 C272 0.939 . S
H259 C274 0.940 . S
H260 C275 0.940 . S
H261 C277 0.939 . S
H262 C278 0.942 . S
H263 C280 0.940 . S
H264 C281 0.939 . S
H265 C283 0.941 . S
H266 C287 0.939 . S
O267 P256 1.490 . S
H268 C284 0.939 . S
H269 C286 0.940 . S
C270 P256 1.812 . S
C270 C271 1.389 . S
C270 C275 1.391 . S
C271 H257 0.941 . S
C271 C270 1.389 . S
C271 C272 1.397 . S
C272 H258 0.939 . S
C272 C271 1.397 . S
C272 C273 1.378 . S
C273 C272 1.378 . S
C273 C274 1.378 . S
C274 H259 0.940 . S
C274 C273 1.378 . S
C274 C275 1.396 . S
C275 H260 0.940 . S
C275 C270 1.391 . S
C275 C274 1.396 . S
C276 P256 1.803 . S
C276 C277 1.378 . S
C276 C281 1.400 . S
C277 H261 0.939 . S
C277 C276 1.378 . S
C277 C278 1.361 . S
C278 H262 0.942 . S
C278 C277 1.361 . S
C278 C279 1.369 . S
C279 C278 1.369 . S
C279 C280 1.404 . S
C280 H263 0.940 . S
C280 C279 1.404 . S
C280 C281 1.389 . S
C281 H264 0.939 . S
C281 C276 1.400 . S
C281 C280 1.389 . S
C282 P256 1.819 . S
C282 C283 1.391 . S
C282 C287 1.391 . S
C283 H265 0.941 . S
C283 C282 1.391 . S
C283 C284 1.396 . S
C284 H268 0.939 . S
C284 C283 1.396 . S
C284 C285 1.397 . S
C285 C284 1.397 . S
C285 C286 1.385 . S
C286 H269 0.940 . S
C286 C285 1.385 . S
C286 C287 1.388 . S
C287 H266 0.939 . S
C287 C282 1.391 . S
C287 C286 1.388 . S
P288 O299 1.490 . S
P288 C302 1.812 . S
P288 C308 1.803 . S
P288 C314 1.819 . S
H289 C303 0.941 . S
H290 C304 0.939 . S
H291 C306 0.940 . S
H292 C307 0.940 . S
H293 C309 0.939 . S
H294 C310 0.942 . S
H295 C312 0.940 . S
H296 C313 0.939 . S
H297 C315 0.941 . S
H298 C319 0.939 . S
O299 P288 1.490 . S
H300 C316 0.939 . S
H301 C318 0.940 . S
C302 P288 1.812 . S
C302 C303 1.389 . S
C302 C307 1.391 . S
C303 H289 0.941 . S
C303 C302 1.389 . S
C303 C304 1.397 . S
C304 H290 0.939 . S
C304 C303 1.397 . S
C304 C305 1.378 . S
C305 C304 1.378 . S
C305 C306 1.378 . S
C306 H291 0.940 . S
C306 C305 1.378 . S
C306 C307 1.396 . S
C307 H292 0.940 . S
C307 C302 1.391 . S
C307 C306 1.396 . S
C308 P288 1.803 . S
C308 C309 1.378 . S
C308 C313 1.400 . S
C309 H293 0.939 . S
C309 C308 1.378 . S
C309 C310 1.361 . S
C310 H294 0.942 . S
C310 C309 1.361 . S
C310 C311 1.369 . S
C311 C310 1.369 . S
C311 C312 1.404 . S
C312 H295 0.940 . S
C312 C311 1.404 . S
C312 C313 1.389 . S
C313 H296 0.939 . S
C313 C308 1.400 . S
C313 C312 1.389 . S
C314 P288 1.819 . S
C314 C315 1.391 . S
C314 C319 1.391 . S
C315 H297 0.941 . S
C315 C314 1.391 . S
C315 C316 1.396 . S
C316 H300 0.939 . S
C316 C315 1.396 . S
C316 C317 1.397 . S
C317 C316 1.397 . S
C317 C318 1.385 . S
C318 H301 0.940 . S
C318 C317 1.385 . S
C318 C319 1.388 . S
C319 H298 0.939 . S
C319 C314 1.391 . S
C319 C318 1.388 . S
P320 O331 1.490 . S
P320 C334 1.812 . S
P320 C340 1.803 . S
P320 C346 1.819 . S
H321 C335 0.941 . S
H322 C336 0.939 . S
H323 C338 0.940 . S
H324 C339 0.940 . S
H325 C341 0.939 . S
H326 C342 0.942 . S
H327 C344 0.940 . S
H328 C345 0.939 . S
H329 C347 0.941 . S
H330 C351 0.939 . S
O331 P320 1.490 . S
H332 C348 0.939 . S
H333 C350 0.940 . S
C334 P320 1.812 . S
C334 C335 1.389 . S
C334 C339 1.391 . S
C335 H321 0.941 . S
C335 C334 1.389 . S
C335 C336 1.397 . S
C336 H322 0.939 . S
C336 C335 1.397 . S
C336 C337 1.378 . S
C337 C336 1.378 . S
C337 C338 1.378 . S
C338 H323 0.940 . S
C338 C337 1.378 . S
C338 C339 1.396 . S
C339 H324 0.940 . S
C339 C334 1.391 . S
C339 C338 1.396 . S
C340 P320 1.803 . S
C340 C341 1.378 . S
C340 C345 1.400 . S
C341 H325 0.939 . S
C341 C340 1.378 . S
C341 C342 1.361 . S
C342 H326 0.942 . S
C342 C341 1.361 . S
C342 C343 1.369 . S
C343 C342 1.369 . S
C343 C344 1.404 . S
C344 H327 0.940 . S
C344 C343 1.404 . S
C344 C345 1.389 . S
C345 H328 0.939 . S
C345 C340 1.400 . S
C345 C344 1.389 . S
C346 P320 1.819 . S
C346 C347 1.391 . S
C346 C351 1.391 . S
C347 H329 0.941 . S
C347 C346 1.391 . S
C347 C348 1.396 . S
C348 H332 0.939 . S
C348 C347 1.396 . S
C348 C349 1.397 . S
C349 C348 1.397 . S
C349 C350 1.385 . S
C350 H333 0.940 . S
C350 C349 1.385 . S
C350 C351 1.388 . S
C351 H330 0.939 . S
C351 C346 1.391 . S
C351 C350 1.388 . S
P352 O363 1.490 . S
P352 C366 1.812 . S
P352 C372 1.803 . S
P352 C378 1.819 . S
H353 C367 0.941 . S
H354 C368 0.939 . S
H355 C370 0.940 . S
H356 C371 0.940 . S
H357 C373 0.939 . S
H358 C374 0.942 . S
H359 C376 0.940 . S
H360 C377 0.939 . S
H361 C379 0.941 . S
H362 C383 0.939 . S
O363 P352 1.490 . S
H364 C380 0.939 . S
H365 C382 0.940 . S
C366 P352 1.812 . S
C366 C367 1.389 . S
C366 C371 1.391 . S
C367 H353 0.941 . S
C367 C366 1.389 . S
C367 C368 1.397 . S
C368 H354 0.939 . S
C368 C367 1.397 . S
C368 C369 1.378 . S
C369 C368 1.378 . S
C369 C370 1.378 . S
C370 H355 0.940 . S
C370 C369 1.378 . S
C370 C371 1.396 . S
C371 H356 0.940 . S
C371 C366 1.391 . S
C371 C370 1.396 . S
C372 P352 1.803 . S
C372 C373 1.378 . S
C372 C377 1.400 . S
C373 H357 0.939 . S
C373 C372 1.378 . S
C373 C374 1.361 . S
C374 H358 0.942 . S
C374 C373 1.361 . S
C374 C375 1.369 . S
C375 C374 1.369 . S
C375 C376 1.404 . S
C376 H359 0.940 . S
C376 C375 1.404 . S
C376 C377 1.389 . S
C377 H360 0.939 . S
C377 C372 1.400 . S
C377 C376 1.389 . S
C378 P352 1.819 . S
C378 C379 1.391 . S
C378 C383 1.391 . S
C379 H361 0.941 . S
C379 C378 1.391 . S
C379 C380 1.396 . S
C380 H364 0.939 . S
C380 C379 1.396 . S
C380 C381 1.397 . S
C381 C380 1.397 . S
C381 C382 1.385 . S
C382 H365 0.940 . S
C382 C381 1.385 . S
C382 C383 1.388 . S
C383 H362 0.939 . S
C383 C378 1.391 . S
C383 C382 1.388 . S
P384 O395 1.490 . S
P384 C398 1.812 . S
P384 C404 1.803 . S
P384 C410 1.819 . S
H385 C399 0.941 . S
H386 C400 0.939 . S
H387 C402 0.940 . S
H388 C403 0.940 . S
H389 C405 0.939 . S
H390 C406 0.942 . S
H391 C408 0.940 . S
H392 C409 0.939 . S
H393 C411 0.941 . S
H394 C415 0.939 . S
O395 P384 1.490 . S
H396 C412 0.939 . S
H397 C414 0.940 . S
C398 P384 1.812 . S
C398 C399 1.389 . S
C398 C403 1.391 . S
C399 H385 0.941 . S
C399 C398 1.389 . S
C399 C400 1.397 . S
C400 H386 0.939 . S
C400 C399 1.397 . S
C400 C401 1.378 . S
C401 C400 1.378 . S
C401 C402 1.378 . S
C402 H387 0.940 . S
C402 C401 1.378 . S
C402 C403 1.396 . S
C403 H388 0.940 . S
C403 C398 1.391 . S
C403 C402 1.396 . S
C404 P384 1.803 . S
C404 C405 1.378 . S
C404 C409 1.400 . S
C405 H389 0.939 . S
C405 C404 1.378 . S
C405 C406 1.361 . S
C406 H390 0.942 . S
C406 C405 1.361 . S
C406 C407 1.369 . S
C407 C406 1.369 . S
C407 C408 1.404 . S
C408 H391 0.940 . S
C408 C407 1.404 . S
C408 C409 1.389 . S
C409 H392 0.939 . S
C409 C404 1.400 . S
C409 C408 1.389 . S
C410 P384 1.819 . S
C410 C411 1.391 . S
C410 C415 1.391 . S
C411 H393 0.941 . S
C411 C410 1.391 . S
C411 C412 1.396 . S
C412 H396 0.939 . S
C412 C411 1.396 . S
C412 C413 1.397 . S
C413 C412 1.397 . S
C413 C414 1.385 . S
C414 H397 0.940 . S
C414 C413 1.385 . S
C414 C415 1.388 . S
C415 H394 0.939 . S
C415 C410 1.391 . S
C415 C414 1.388 . S
P416 O427 1.490 . S
P416 C430 1.812 . S
P416 C436 1.803 . S
P416 C442 1.819 . S
H417 C431 0.941 . S
H418 C432 0.939 . S
H419 C434 0.940 . S
H420 C435 0.940 . S
H421 C437 0.939 . S
H422 C438 0.942 . S
H423 C440 0.940 . S
H424 C441 0.939 . S
H425 C443 0.941 . S
H426 C447 0.939 . S
O427 P416 1.490 . S
H428 C444 0.939 . S
H429 C446 0.940 . S
C430 P416 1.812 . S
C430 C431 1.389 . S
C430 C435 1.391 . S
C431 H417 0.941 . S
C431 C430 1.389 . S
C431 C432 1.397 . S
C432 H418 0.939 . S
C432 C431 1.397 . S
C432 C433 1.378 . S
C433 C432 1.378 . S
C433 C434 1.378 . S
C434 H419 0.940 . S
C434 C433 1.378 . S
C434 C435 1.396 . S
C435 H420 0.940 . S
C435 C430 1.391 . S
C435 C434 1.396 . S
C436 P416 1.803 . S
C436 C437 1.378 . S
C436 C441 1.400 . S
C437 H421 0.939 . S
C437 C436 1.378 . S
C437 C438 1.361 . S
C438 H422 0.942 . S
C438 C437 1.361 . S
C438 C439 1.369 . S
C439 C438 1.369 . S
C439 C440 1.404 . S
C440 H423 0.940 . S
C440 C439 1.404 . S
C440 C441 1.389 . S
C441 H424 0.939 . S
C441 C436 1.400 . S
C441 C440 1.389 . S
C442 P416 1.819 . S
C442 C443 1.391 . S
C442 C447 1.391 . S
C443 H425 0.941 . S
C443 C442 1.391 . S
C443 C444 1.396 . S
C444 H428 0.939 . S
C444 C443 1.396 . S
C444 C445 1.397 . S
C445 C444 1.397 . S
C445 C446 1.385 . S
C446 H429 0.940 . S
C446 C445 1.385 . S
C446 C447 1.388 . S
C447 H426 0.939 . S
C447 C442 1.391 . S
C447 C446 1.388 . S
P448 O459 1.490 . S
P448 C462 1.812 . S
P448 C468 1.803 . S
P448 C474 1.819 . S
H449 C463 0.941 . S
H450 C464 0.939 . S
H451 C466 0.940 . S
H452 C467 0.940 . S
H453 C469 0.939 . S
H454 C470 0.942 . S
H455 C472 0.940 . S
H456 C473 0.939 . S
H457 C475 0.941 . S
H458 C479 0.939 . S
O459 P448 1.490 . S
H460 C476 0.939 . S
H461 C478 0.940 . S
C462 P448 1.812 . S
C462 C463 1.389 . S
C462 C467 1.391 . S
C463 H449 0.941 . S
C463 C462 1.389 . S
C463 C464 1.397 . S
C464 H450 0.939 . S
C464 C463 1.397 . S
C464 C465 1.378 . S
C465 C464 1.378 . S
C465 C466 1.378 . S
C466 H451 0.940 . S
C466 C465 1.378 . S
C466 C467 1.396 . S
C467 H452 0.940 . S
C467 C462 1.391 . S
C467 C466 1.396 . S
C468 P448 1.803 . S
C468 C469 1.378 . S
C468 C473 1.400 . S
C469 H453 0.939 . S
C469 C468 1.378 . S
C469 C470 1.361 . S
C470 H454 0.942 . S
C470 C469 1.361 . S
C470 C471 1.369 . S
C471 C470 1.369 . S
C471 C472 1.404 . S
C472 H455 0.940 . S
C472 C471 1.404 . S
C472 C473 1.389 . S
C473 H456 0.939 . S
C473 C468 1.400 . S
C473 C472 1.389 . S
C474 P448 1.819 . S
C474 C475 1.391 . S
C474 C479 1.391 . S
C475 H457 0.941 . S
C475 C474 1.391 . S
C475 C476 1.396 . S
C476 H460 0.939 . S
C476 C475 1.396 . S
C476 C477 1.397 . S
C477 C476 1.397 . S
C477 C478 1.385 . S
C478 H461 0.940 . S
C478 C477 1.385 . S
C478 C479 1.388 . S
C479 H458 0.939 . S
C479 C474 1.391 . S
C479 C478 1.388 . S
P480 O491 1.490 . S
P480 C494 1.812 . S
P480 C500 1.803 . S
P480 C506 1.819 . S
H481 C495 0.941 . S
H482 C496 0.939 . S
H483 C498 0.940 . S
H484 C499 0.940 . S
H485 C501 0.939 . S
H486 C502 0.942 . S
H487 C504 0.940 . S
H488 C505 0.939 . S
H489 C507 0.941 . S
H490 C511 0.939 . S
O491 P480 1.490 . S
H492 C508 0.939 . S
H493 C510 0.940 . S
C494 P480 1.812 . S
C494 C495 1.389 . S
C494 C499 1.391 . S
C495 H481 0.941 . S
C495 C494 1.389 . S
C495 C496 1.397 . S
C496 H482 0.939 . S
C496 C495 1.397 . S
C496 C497 1.378 . S
C497 C496 1.378 . S
C497 C498 1.378 . S
C498 H483 0.940 . S
C498 C497 1.378 . S
C498 C499 1.396 . S
C499 H484 0.940 . S
C499 C494 1.391 . S
C499 C498 1.396 . S
C500 P480 1.803 . S
C500 C501 1.378 . S
C500 C505 1.400 . S
C501 H485 0.939 . S
C501 C500 1.378 . S
C501 C502 1.361 . S
C502 H486 0.942 . S
C502 C501 1.361 . S
C502 C503 1.369 . S
C503 C502 1.369 . S
C503 C504 1.404 . S
C504 H487 0.940 . S
C504 C503 1.404 . S
C504 C505 1.389 . S
C505 H488 0.939 . S
C505 C500 1.400 . S
C505 C504 1.389 . S
C506 P480 1.819 . S
C506 C507 1.391 . S
C506 C511 1.391 . S
C507 H489 0.941 . S
C507 C506 1.391 . S
C507 C508 1.396 . S
C508 H492 0.939 . S
C508 C507 1.396 . S
C508 C509 1.397 . S
C509 C508 1.397 . S
C509 C510 1.385 . S
C510 H493 0.940 . S
C510 C509 1.385 . S
C510 C511 1.388 . S
C511 H490 0.939 . S
C511 C506 1.391 . S
C511 C510 1.388 . S
P512 O523 1.490 . S
P512 C526 1.812 . S
P512 C532 1.803 . S
P512 C538 1.819 . S
H513 C527 0.941 . S
H514 C528 0.939 . S
H515 C530 0.940 . S
H516 C531 0.940 . S
H517 C533 0.939 . S
H518 C534 0.942 . S
H519 C536 0.940 . S
H520 C537 0.939 . S
H521 C539 0.941 . S
H522 C543 0.939 . S
O523 P512 1.490 . S
H524 C540 0.939 . S
H525 C542 0.940 . S
C526 P512 1.812 . S
C526 C527 1.389 . S
C526 C531 1.391 . S
C527 H513 0.941 . S
C527 C526 1.389 . S
C527 C528 1.397 . S
C528 H514 0.939 . S
C528 C527 1.397 . S
C528 C529 1.378 . S
C529 C528 1.378 . S
C529 C530 1.378 . S
C530 H515 0.940 . S
C530 C529 1.378 . S
C530 C531 1.396 . S
C531 H516 0.940 . S
C531 C526 1.391 . S
C531 C530 1.396 . S
C532 P512 1.803 . S
C532 C533 1.378 . S
C532 C537 1.400 . S
C533 H517 0.939 . S
C533 C532 1.378 . S
C533 C534 1.361 . S
C534 H518 0.942 . S
C534 C533 1.361 . S
C534 C535 1.369 . S
C535 C534 1.369 . S
C535 C536 1.404 . S
C536 H519 0.940 . S
C536 C535 1.404 . S
C536 C537 1.389 . S
C537 H520 0.939 . S
C537 C532 1.400 . S
C537 C536 1.389 . S
C538 P512 1.819 . S
C538 C539 1.391 . S
C538 C543 1.391 . S
C539 H521 0.941 . S
C539 C538 1.391 . S
C539 C540 1.396 . S
C540 H524 0.939 . S
C540 C539 1.396 . S
C540 C541 1.397 . S
C541 C540 1.397 . S
C541 C542 1.385 . S
C542 H525 0.940 . S
C542 C541 1.385 . S
C542 C543 1.388 . S
C543 H522 0.939 . S
C543 C538 1.391 . S
C543 C542 1.388 . S
P544 O555 1.490 . S
P544 C558 1.812 . S
P544 C564 1.803 . S
P544 C570 1.819 . S
H545 C559 0.941 . S
H546 C560 0.939 . S
H547 C562 0.940 . S
H548 C563 0.940 . S
H549 C565 0.939 . S
H550 C566 0.942 . S
H551 C568 0.940 . S
H552 C569 0.939 . S
H553 C571 0.941 . S
H554 C575 0.939 . S
O555 P544 1.490 . S
H556 C572 0.939 . S
H557 C574 0.940 . S
C558 P544 1.812 . S
C558 C559 1.389 . S
C558 C563 1.391 . S
C559 H545 0.941 . S
C559 C558 1.389 . S
C559 C560 1.397 . S
C560 H546 0.939 . S
C560 C559 1.397 . S
C560 C561 1.378 . S
C561 C560 1.378 . S
C561 C562 1.378 . S
C562 H547 0.940 . S
C562 C561 1.378 . S
C562 C563 1.396 . S
C563 H548 0.940 . S
C563 C558 1.391 . S
C563 C562 1.396 . S
C564 P544 1.803 . S
C564 C565 1.378 . S
C564 C569 1.400 . S
C565 H549 0.939 . S
C565 C564 1.378 . S
C565 C566 1.361 . S
C566 H550 0.942 . S
C566 C565 1.361 . S
C566 C567 1.369 . S
C567 C566 1.369 . S
C567 C568 1.404 . S
C568 H551 0.940 . S
C568 C567 1.404 . S
C568 C569 1.389 . S
C569 H552 0.939 . S
C569 C564 1.400 . S
C569 C568 1.389 . S
C570 P544 1.819 . S
C570 C571 1.391 . S
C570 C575 1.391 . S
C571 H553 0.941 . S
C571 C570 1.391 . S
C571 C572 1.396 . S
C572 H556 0.939 . S
C572 C571 1.396 . S
C572 C573 1.397 . S
C573 C572 1.397 . S
C573 C574 1.385 . S
C574 H557 0.940 . S
C574 C573 1.385 . S
C574 C575 1.388 . S
C575 H554 0.939 . S
C575 C570 1.391 . S
C575 C574 1.388 . S
P576 O587 1.490 . S
P576 C590 1.812 . S
P576 C596 1.803 . S
P576 C602 1.819 . S
H577 C591 0.941 . S
H578 C592 0.939 . S
H579 C594 0.940 . S
H580 C595 0.940 . S
H581 C597 0.939 . S
H582 C598 0.942 . S
H583 C600 0.940 . S
H584 C601 0.939 . S
H585 C603 0.941 . S
H586 C607 0.939 . S
O587 P576 1.490 . S
H588 C604 0.939 . S
H589 C606 0.940 . S
C590 P576 1.812 . S
C590 C591 1.389 . S
C590 C595 1.391 . S
C591 H577 0.941 . S
C591 C590 1.389 . S
C591 C592 1.397 . S
C592 H578 0.939 . S
C592 C591 1.397 . S
C592 C593 1.378 . S
C593 C592 1.378 . S
C593 C594 1.378 . S
C594 H579 0.940 . S
C594 C593 1.378 . S
C594 C595 1.396 . S
C595 H580 0.940 . S
C595 C590 1.391 . S
C595 C594 1.396 . S
C596 P576 1.803 . S
C596 C597 1.378 . S
C596 C601 1.400 . S
C597 H581 0.939 . S
C597 C596 1.378 . S
C597 C598 1.361 . S
C598 H582 0.942 . S
C598 C597 1.361 . S
C598 C599 1.369 . S
C599 C598 1.369 . S
C599 C600 1.404 . S
C600 H583 0.940 . S
C600 C599 1.404 . S
C600 C601 1.389 . S
C601 H584 0.939 . S
C601 C596 1.400 . S
C601 C600 1.389 . S
C602 P576 1.819 . S
C602 C603 1.391 . S
C602 C607 1.391 . S
C603 H585 0.941 . S
C603 C602 1.391 . S
C603 C604 1.396 . S
C604 H588 0.939 . S
C604 C603 1.396 . S
C604 C605 1.397 . S
C605 C604 1.397 . S
C605 C606 1.385 . S
C606 H589 0.940 . S
C606 C605 1.385 . S
C606 C607 1.388 . S
C607 H586 0.939 . S
C607 C602 1.391 . S
C607 C606 1.388 . S
P608 O619 1.490 . S
P608 C622 1.812 . S
P608 C628 1.803 . S
P608 C634 1.819 . S
H609 C623 0.941 . S
H610 C624 0.939 . S
H611 C626 0.940 . S
H612 C627 0.940 . S
H613 C629 0.939 . S
H614 C630 0.942 . S
H615 C632 0.940 . S
H616 C633 0.939 . S
H617 C635 0.941 . S
H618 C639 0.939 . S
O619 P608 1.490 . S
H620 C636 0.939 . S
H621 C638 0.940 . S
C622 P608 1.812 . S
C622 C623 1.389 . S
C622 C627 1.391 . S
C623 H609 0.941 . S
C623 C622 1.389 . S
C623 C624 1.397 . S
C624 H610 0.939 . S
C624 C623 1.397 . S
C624 C625 1.378 . S
C625 C624 1.378 . S
C625 C626 1.378 . S
C626 H611 0.940 . S
C626 C625 1.378 . S
C626 C627 1.396 . S
C627 H612 0.940 . S
C627 C622 1.391 . S
C627 C626 1.396 . S
C628 P608 1.803 . S
C628 C629 1.378 . S
C628 C633 1.400 . S
C629 H613 0.939 . S
C629 C628 1.378 . S
C629 C630 1.361 . S
C630 H614 0.942 . S
C630 C629 1.361 . S
C630 C631 1.369 . S
C631 C630 1.369 . S
C631 C632 1.404 . S
C632 H615 0.940 . S
C632 C631 1.404 . S
C632 C633 1.389 . S
C633 H616 0.939 . S
C633 C628 1.400 . S
C633 C632 1.389 . S
C634 P608 1.819 . S
C634 C635 1.391 . S
C634 C639 1.391 . S
C635 H617 0.941 . S
C635 C634 1.391 . S
C635 C636 1.396 . S
C636 H620 0.939 . S
C636 C635 1.396 . S
C636 C637 1.397 . S
C637 C636 1.397 . S
C637 C638 1.385 . S
C638 H621 0.940 . S
C638 C637 1.385 . S
C638 C639 1.388 . S
C639 H618 0.939 . S
C639 C634 1.391 . S
C639 C638 1.388 . S
P640 O651 1.490 . S
P640 C654 1.812 . S
P640 C660 1.803 . S
P640 C666 1.819 . S
H641 C655 0.941 . S
H642 C656 0.939 . S
H643 C658 0.940 . S
H644 C659 0.940 . S
H645 C661 0.939 . S
H646 C662 0.942 . S
H647 C664 0.940 . S
H648 C665 0.939 . S
H649 C667 0.941 . S
H650 C671 0.939 . S
O651 P640 1.490 . S
H652 C668 0.939 . S
H653 C670 0.940 . S
C654 P640 1.812 . S
C654 C655 1.389 . S
C654 C659 1.391 . S
C655 H641 0.941 . S
C655 C654 1.389 . S
C655 C656 1.397 . S
C656 H642 0.939 . S
C656 C655 1.397 . S
C656 C657 1.378 . S
C657 C656 1.378 . S
C657 C658 1.378 . S
C658 H643 0.940 . S
C658 C657 1.378 . S
C658 C659 1.396 . S
C659 H644 0.940 . S
C659 C654 1.391 . S
C659 C658 1.396 . S
C660 P640 1.803 . S
C660 C661 1.378 . S
C660 C665 1.400 . S
C661 H645 0.939 . S
C661 C660 1.378 . S
C661 C662 1.361 . S
C662 H646 0.942 . S
C662 C661 1.361 . S
C662 C663 1.369 . S
C663 C662 1.369 . S
C663 C664 1.404 . S
C664 H647 0.940 . S
C664 C663 1.404 . S
C664 C665 1.389 . S
C665 H648 0.939 . S
C665 C660 1.400 . S
C665 C664 1.389 . S
C666 P640 1.819 . S
C666 C667 1.391 . S
C666 C671 1.391 . S
C667 H649 0.941 . S
C667 C666 1.391 . S
C667 C668 1.396 . S
C668 H652 0.939 . S
C668 C667 1.396 . S
C668 C669 1.397 . S
C669 C668 1.397 . S
C669 C670 1.385 . S
C670 H653 0.940 . S
C670 C669 1.385 . S
C670 C671 1.388 . S
C671 H650 0.939 . S
C671 C666 1.391 . S
C671 C670 1.388 . S
P672 O683 1.490 . S
P672 C686 1.812 . S
P672 C692 1.803 . S
P672 C698 1.819 . S
H673 C687 0.941 . S
H674 C688 0.939 . S
H675 C690 0.940 . S
H676 C691 0.940 . S
H677 C693 0.939 . S
H678 C694 0.942 . S
H679 C696 0.940 . S
H680 C697 0.939 . S
H681 C699 0.941 . S
H682 C703 0.939 . S
O683 P672 1.490 . S
H684 C700 0.939 . S
H685 C702 0.940 . S
C686 P672 1.812 . S
C686 C687 1.389 . S
C686 C691 1.391 . S
C687 H673 0.941 . S
C687 C686 1.389 . S
C687 C688 1.397 . S
C688 H674 0.939 . S
C688 C687 1.397 . S
C688 C689 1.378 . S
C689 C688 1.378 . S
C689 C690 1.378 . S
C690 H675 0.940 . S
C690 C689 1.378 . S
C690 C691 1.396 . S
C691 H676 0.940 . S
C691 C686 1.391 . S
C691 C690 1.396 . S
C692 P672 1.803 . S
C692 C693 1.378 . S
C692 C697 1.400 . S
C693 H677 0.939 . S
C693 C692 1.378 . S
C693 C694 1.361 . S
C694 H678 0.942 . S
C694 C693 1.361 . S
C694 C695 1.369 . S
C695 C694 1.369 . S
C695 C696 1.404 . S
C696 H679 0.940 . S
C696 C695 1.404 . S
C696 C697 1.389 . S
C697 H680 0.939 . S
C697 C692 1.400 . S
C697 C696 1.389 . S
C698 P672 1.819 . S
C698 C699 1.391 . S
C698 C703 1.391 . S
C699 H681 0.941 . S
C699 C698 1.391 . S
C699 C700 1.396 . S
C700 H684 0.939 . S
C700 C699 1.396 . S
C700 C701 1.397 . S
C701 C700 1.397 . S
C701 C702 1.385 . S
C702 H685 0.940 . S
C702 C701 1.385 . S
C702 C703 1.388 . S
C703 H682 0.939 . S
C703 C698 1.391 . S
C703 C702 1.388 . S
P704 O715 1.490 . S
P704 C718 1.812 . S
P704 C724 1.803 . S
P704 C730 1.819 . S
H705 C719 0.941 . S
H706 C720 0.939 . S
H707 C722 0.940 . S
H708 C723 0.940 . S
H709 C725 0.939 . S
H710 C726 0.942 . S
H711 C728 0.940 . S
H712 C729 0.939 . S
H713 C731 0.941 . S
H714 C735 0.939 . S
O715 P704 1.490 . S
H716 C732 0.939 . S
H717 C734 0.940 . S
C718 P704 1.812 . S
C718 C719 1.389 . S
C718 C723 1.391 . S
C719 H705 0.941 . S
C719 C718 1.389 . S
C719 C720 1.397 . S
C720 H706 0.939 . S
C720 C719 1.397 . S
C720 C721 1.378 . S
C721 C720 1.378 . S
C721 C722 1.378 . S
C722 H707 0.940 . S
C722 C721 1.378 . S
C722 C723 1.396 . S
C723 H708 0.940 . S
C723 C718 1.391 . S
C723 C722 1.396 . S
C724 P704 1.803 . S
C724 C725 1.378 . S
C724 C729 1.400 . S
C725 H709 0.939 . S
C725 C724 1.378 . S
C725 C726 1.361 . S
C726 H710 0.942 . S
C726 C725 1.361 . S
C726 C727 1.369 . S
C727 C726 1.369 . S
C727 C728 1.404 . S
C728 H711 0.940 . S
C728 C727 1.404 . S
C728 C729 1.389 . S
C729 H712 0.939 . S
C729 C724 1.400 . S
C729 C728 1.389 . S
C730 P704 1.819 . S
C730 C731 1.391 . S
C730 C735 1.391 . S
C731 H713 0.941 . S
C731 C730 1.391 . S
C731 C732 1.396 . S
C732 H716 0.939 . S
C732 C731 1.396 . S
C732 C733 1.397 . S
C733 C732 1.397 . S
C733 C734 1.385 . S
C734 H717 0.940 . S
C734 C733 1.385 . S
C734 C735 1.388 . S
C735 H714 0.939 . S
C735 C730 1.391 . S
C735 C734 1.388 . S
P736 O747 1.490 . S
P736 C750 1.812 . S
P736 C756 1.803 . S
P736 C762 1.819 . S
H737 C751 0.941 . S
H738 C752 0.939 . S
H739 C754 0.940 . S
H740 C755 0.940 . S
H741 C757 0.939 . S
H742 C758 0.942 . S
H743 C760 0.940 . S
H744 C761 0.939 . S
H745 C763 0.941 . S
H746 C767 0.939 . S
O747 P736 1.490 . S
H748 C764 0.939 . S
H749 C766 0.940 . S
C750 P736 1.812 . S
C750 C751 1.389 . S
C750 C755 1.391 . S
C751 H737 0.941 . S
C751 C750 1.389 . S
C751 C752 1.397 . S
C752 H738 0.939 . S
C752 C751 1.397 . S
C752 C753 1.378 . S
C753 C752 1.378 . S
C753 C754 1.378 . S
C754 H739 0.940 . S
C754 C753 1.378 . S
C754 C755 1.396 . S
C755 H740 0.940 . S
C755 C750 1.391 . S
C755 C754 1.396 . S
C756 P736 1.803 . S
C756 C757 1.378 . S
C756 C761 1.400 . S
C757 H741 0.939 . S
C757 C756 1.378 . S
C757 C758 1.361 . S
C758 H742 0.942 . S
C758 C757 1.361 . S
C758 C759 1.369 . S
C759 C758 1.369 . S
C759 C760 1.404 . S
C760 H743 0.940 . S
C760 C759 1.404 . S
C760 C761 1.389 . S
C761 H744 0.939 . S
C761 C756 1.400 . S
C761 C760 1.389 . S
C762 P736 1.819 . S
C762 C763 1.391 . S
C762 C767 1.391 . S
C763 H745 0.941 . S
C763 C762 1.391 . S
C763 C764 1.396 . S
C764 H748 0.939 . S
C764 C763 1.396 . S
C764 C765 1.397 . S
C765 C764 1.397 . S
C765 C766 1.385 . S
C766 H749 0.940 . S
C766 C765 1.385 . S
C766 C767 1.388 . S
C767 H746 0.939 . S
C767 C762 1.391 . S
C767 C766 1.388 . S
P768 O779 1.490 . S
P768 C782 1.812 . S
P768 C788 1.803 . S
P768 C794 1.819 . S
H769 C783 0.941 . S
H770 C784 0.939 . S
H771 C786 0.940 . S
H772 C787 0.940 . S
H773 C789 0.939 . S
H774 C790 0.942 . S
H775 C792 0.940 . S
H776 C793 0.939 . S
H777 C795 0.941 . S
H778 C799 0.939 . S
O779 P768 1.490 . S
H780 C796 0.939 . S
H781 C798 0.940 . S
C782 P768 1.812 . S
C782 C783 1.389 . S
C782 C787 1.391 . S
C783 H769 0.941 . S
C783 C782 1.389 . S
C783 C784 1.397 . S
C784 H770 0.939 . S
C784 C783 1.397 . S
C784 C785 1.378 . S
C785 C784 1.378 . S
C785 C786 1.378 . S
C786 H771 0.940 . S
C786 C785 1.378 . S
C786 C787 1.396 . S
C787 H772 0.940 . S
C787 C782 1.391 . S
C787 C786 1.396 . S
C788 P768 1.803 . S
C788 C789 1.378 . S
C788 C793 1.400 . S
C789 H773 0.939 . S
C789 C788 1.378 . S
C789 C790 1.361 . S
C790 H774 0.942 . S
C790 C789 1.361 . S
C790 C791 1.369 . S
C791 C790 1.369 . S
C791 C792 1.404 . S
C792 H775 0.940 . S
C792 C791 1.404 . S
C792 C793 1.389 . S
C793 H776 0.939 . S
C793 C788 1.400 . S
C793 C792 1.389 . S
C794 P768 1.819 . S
C794 C795 1.391 . S
C794 C799 1.391 . S
C795 H777 0.941 . S
C795 C794 1.391 . S
C795 C796 1.396 . S
C796 H780 0.939 . S
C796 C795 1.396 . S
C796 C797 1.397 . S
C797 C796 1.397 . S
C797 C798 1.385 . S
C798 H781 0.940 . S
C798 C797 1.385 . S
C798 C799 1.388 . S
C799 H778 0.939 . S
C799 C794 1.391 . S
C799 C798 1.388 . S
P800 O811 1.490 . S
P800 C814 1.812 . S
P800 C820 1.803 . S
P800 C826 1.819 . S
H801 C815 0.941 . S
H802 C816 0.939 . S
H803 C818 0.940 . S
H804 C819 0.940 . S
H805 C821 0.939 . S
H806 C822 0.942 . S
H807 C824 0.940 . S
H808 C825 0.939 . S
H809 C827 0.941 . S
H810 C831 0.939 . S
O811 P800 1.490 . S
H812 C828 0.939 . S
H813 C830 0.940 . S
C814 P800 1.812 . S
C814 C815 1.389 . S
C814 C819 1.391 . S
C815 H801 0.941 . S
C815 C814 1.389 . S
C815 C816 1.397 . S
C816 H802 0.939 . S
C816 C815 1.397 . S
C816 C817 1.378 . S
C817 C816 1.378 . S
C817 C818 1.378 . S
C818 H803 0.940 . S
C818 C817 1.378 . S
C818 C819 1.396 . S
C819 H804 0.940 . S
C819 C814 1.391 . S
C819 C818 1.396 . S
C820 P800 1.803 . S
C820 C821 1.378 . S
C820 C825 1.400 . S
C821 H805 0.939 . S
C821 C820 1.378 . S
C821 C822 1.361 . S
C822 H806 0.942 . S
C822 C821 1.361 . S
C822 C823 1.369 . S
C823 C822 1.369 . S
C823 C824 1.404 . S
C824 H807 0.940 . S
C824 C823 1.404 . S
C824 C825 1.389 . S
C825 H808 0.939 . S
C825 C820 1.400 . S
C825 C824 1.389 . S
C826 P800 1.819 . S
C826 C827 1.391 . S
C826 C831 1.391 . S
C827 H809 0.941 . S
C827 C826 1.391 . S
C827 C828 1.396 . S
C828 H812 0.939 . S
C828 C827 1.396 . S
C828 C829 1.397 . S
C829 C828 1.397 . S
C829 C830 1.385 . S
C830 H813 0.940 . S
C830 C829 1.385 . S
C830 C831 1.388 . S
C831 H810 0.939 . S
C831 C826 1.391 . S
C831 C830 1.388 . S
P832 O843 1.490 . S
P832 C846 1.812 . S
P832 C852 1.803 . S
P832 C858 1.819 . S
H833 C847 0.941 . S
H834 C848 0.939 . S
H835 C850 0.940 . S
H836 C851 0.940 . S
H837 C853 0.939 . S
H838 C854 0.942 . S
H839 C856 0.940 . S
H840 C857 0.939 . S
H841 C859 0.941 . S
H842 C863 0.939 . S
O843 P832 1.490 . S
H844 C860 0.939 . S
H845 C862 0.940 . S
C846 P832 1.812 . S
C846 C847 1.389 . S
C846 C851 1.391 . S
C847 H833 0.941 . S
C847 C846 1.389 . S
C847 C848 1.397 . S
C848 H834 0.939 . S
C848 C847 1.397 . S
C848 C849 1.378 . S
C849 C848 1.378 . S
C849 C850 1.378 . S
C850 H835 0.940 . S
C850 C849 1.378 . S
C850 C851 1.396 . S
C851 H836 0.940 . S
C851 C846 1.391 . S
C851 C850 1.396 . S
C852 P832 1.803 . S
C852 C853 1.378 . S
C852 C857 1.400 . S
C853 H837 0.939 . S
C853 C852 1.378 . S
C853 C854 1.361 . S
C854 H838 0.942 . S
C854 C853 1.361 . S
C854 C855 1.369 . S
C855 C854 1.369 . S
C855 C856 1.404 . S
C856 H839 0.940 . S
C856 C855 1.404 . S
C856 C857 1.389 . S
C857 H840 0.939 . S
C857 C852 1.400 . S
C857 C856 1.389 . S
C858 P832 1.819 . S
C858 C859 1.391 . S
C858 C863 1.391 . S
C859 H841 0.941 . S
C859 C858 1.391 . S
C859 C860 1.396 . S
C860 H844 0.939 . S
C860 C859 1.396 . S
C860 C861 1.397 . S
C861 C860 1.397 . S
C861 C862 1.385 . S
C862 H845 0.940 . S
C862 C861 1.385 . S
C862 C863 1.388 . S
C863 H842 0.939 . S
C863 C858 1.391 . S
C863 C862 1.388 . S
P864 O875 1.490 . S
P864 C878 1.812 . S
P864 C884 1.803 . S
P864 C890 1.819 . S
H865 C879 0.941 . S
H866 C880 0.939 . S
H867 C882 0.940 . S
H868 C883 0.940 . S
H869 C885 0.939 . S
H870 C886 0.942 . S
H871 C888 0.940 . S
H872 C889 0.939 . S
H873 C891 0.941 . S
H874 C895 0.939 . S
O875 P864 1.490 . S
H876 C892 0.939 . S
H877 C894 0.940 . S
C878 P864 1.812 . S
C878 C879 1.389 . S
C878 C883 1.391 . S
C879 H865 0.941 . S
C879 C878 1.389 . S
C879 C880 1.397 . S
C880 H866 0.939 . S
C880 C879 1.397 . S
C880 C881 1.378 . S
C881 C880 1.378 . S
C881 C882 1.378 . S
C882 H867 0.940 . S
C882 C881 1.378 . S
C882 C883 1.396 . S
C883 H868 0.940 . S
C883 C878 1.391 . S
C883 C882 1.396 . S
C884 P864 1.803 . S
C884 C885 1.378 . S
C884 C889 1.400 . S
C885 H869 0.939 . S
C885 C884 1.378 . S
C885 C886 1.361 . S
C886 H870 0.942 . S
C886 C885 1.361 . S
C886 C887 1.369 . S
C887 C886 1.369 . S
C887 C888 1.404 . S
C888 H871 0.940 . S
C888 C887 1.404 . S
C888 C889 1.389 . S
C889 H872 0.939 . S
C889 C884 1.400 . S
C889 C888 1.389 . S
C890 P864 1.819 . S
C890 C891 1.391 . S
C890 C895 1.391 . S
C891 H873 0.941 . S
C891 C890 1.391 . S
C891 C892 1.396 . S
C892 H876 0.939 . S
C892 C891 1.396 . S
C892 C893 1.397 . S
C893 C892 1.397 . S
C893 C894 1.385 . S
C894 H877 0.940 . S
C894 C893 1.385 . S
C894 C895 1.388 . S
C895 H874 0.939 . S
C895 C890 1.391 . S
C895 C894 1.388 . S
P896 O907 1.490 . S
P896 C910 1.812 . S
P896 C916 1.803 . S
P896 C922 1.819 . S
H897 C911 0.941 . S
H898 C912 0.939 . S
H899 C914 0.940 . S
H900 C915 0.940 . S
H901 C917 0.939 . S
H902 C918 0.942 . S
H903 C920 0.940 . S
H904 C921 0.939 . S
H905 C923 0.941 . S
H906 C927 0.939 . S
O907 P896 1.490 . S
H908 C924 0.939 . S
H909 C926 0.940 . S
C910 P896 1.812 . S
C910 C911 1.389 . S
C910 C915 1.391 . S
C911 H897 0.941 . S
C911 C910 1.389 . S
C911 C912 1.397 . S
C912 H898 0.939 . S
C912 C911 1.397 . S
C912 C913 1.378 . S
C913 C912 1.378 . S
C913 C914 1.378 . S
C914 H899 0.940 . S
C914 C913 1.378 . S
C914 C915 1.396 . S
C915 H900 0.940 . S
C915 C910 1.391 . S
C915 C914 1.396 . S
C916 P896 1.803 . S
C916 C917 1.378 . S
C916 C921 1.400 . S
C917 H901 0.939 . S
C917 C916 1.378 . S
C917 C918 1.361 . S
C918 H902 0.942 . S
C918 C917 1.361 . S
C918 C919 1.369 . S
C919 C918 1.369 . S
C919 C920 1.404 . S
C920 H903 0.940 . S
C920 C919 1.404 . S
C920 C921 1.389 . S
C921 H904 0.939 . S
C921 C916 1.400 . S
C921 C920 1.389 . S
C922 P896 1.819 . S
C922 C923 1.391 . S
C922 C927 1.391 . S
C923 H905 0.941 . S
C923 C922 1.391 . S
C923 C924 1.396 . S
C924 H908 0.939 . S
C924 C923 1.396 . S
C924 C925 1.397 . S
C925 C924 1.397 . S
C925 C926 1.385 . S
C926 H909 0.940 . S
C926 C925 1.385 . S
C926 C927 1.388 . S
C927 H906 0.939 . S
C927 C922 1.391 . S
C927 C926 1.388 . S
P928 O939 1.490 . S
P928 C942 1.812 . S
P928 C948 1.803 . S
P928 C954 1.819 . S
H929 C943 0.941 . S
H930 C944 0.939 . S
H931 C946 0.940 . S
H932 C947 0.940 . S
H933 C949 0.939 . S
H934 C950 0.942 . S
H935 C952 0.940 . S
H936 C953 0.939 . S
H937 C955 0.941 . S
H938 C959 0.939 . S
O939 P928 1.490 . S
H940 C956 0.939 . S
H941 C958 0.940 . S
C942 P928 1.812 . S
C942 C943 1.389 . S
C942 C947 1.391 . S
C943 H929 0.941 . S
C943 C942 1.389 . S
C943 C944 1.397 . S
C944 H930 0.939 . S
C944 C943 1.397 . S
C944 C945 1.378 . S
C945 C944 1.378 . S
C945 C946 1.378 . S
C946 H931 0.940 . S
C946 C945 1.378 . S
C946 C947 1.396 . S
C947 H932 0.940 . S
C947 C942 1.391 . S
C947 C946 1.396 . S
C948 P928 1.803 . S
C948 C949 1.378 . S
C948 C953 1.400 . S
C949 H933 0.939 . S
C949 C948 1.378 . S
C949 C950 1.361 . S
C950 H934 0.942 . S
C950 C949 1.361 . S
C950 C951 1.369 . S
C951 C950 1.369 . S
C951 C952 1.404 . S
C952 H935 0.940 . S
C952 C951 1.404 . S
C952 C953 1.389 . S
C953 H936 0.939 . S
C953 C948 1.400 . S
C953 C952 1.389 . S
C954 P928 1.819 . S
C954 C955 1.391 . S
C954 C959 1.391 . S
C955 H937 0.941 . S
C955 C954 1.391 . S
C955 C956 1.396 . S
C956 H940 0.939 . S
C956 C955 1.396 . S
C956 C957 1.397 . S
C957 C956 1.397 . S
C957 C958 1.385 . S
C958 H941 0.940 . S
C958 C957 1.385 . S
C958 C959 1.388 . S
C959 H938 0.939 . S
C959 C954 1.391 . S
C959 C958 1.388 . S
P960 O971 1.490 . S
P960 C974 1.812 . S
P960 C980 1.803 . S
P960 C986 1.819 . S
H961 C975 0.941 . S
H962 C976 0.939 . S
H963 C978 0.940 . S
H964 C979 0.940 . S
H965 C981 0.939 . S
H966 C982 0.942 . S
H967 C984 0.940 . S
H968 C985 0.939 . S
H969 C987 0.941 . S
H970 C991 0.939 . S
O971 P960 1.490 . S
H972 C988 0.939 . S
H973 C990 0.940 . S
C974 P960 1.812 . S
C974 C975 1.389 . S
C974 C979 1.391 . S
C975 H961 0.941 . S
C975 C974 1.389 . S
C975 C976 1.397 . S
C976 H962 0.939 . S
C976 C975 1.397 . S
C976 C977 1.378 . S
C977 C976 1.378 . S
C977 C978 1.378 . S
C978 H963 0.940 . S
C978 C977 1.378 . S
C978 C979 1.396 . S
C979 H964 0.940 . S
C979 C974 1.391 . S
C979 C978 1.396 . S
C980 P960 1.803 . S
C980 C981 1.378 . S
C980 C985 1.400 . S
C981 H965 0.939 . S
C981 C980 1.378 . S
C981 C982 1.361 . S
C982 H966 0.942 . S
C982 C981 1.361 . S
C982 C983 1.369 . S
C983 C982 1.369 . S
C983 C984 1.404 . S
C984 H967 0.940 . S
C984 C983 1.404 . S
C984 C985 1.389 . S
C985 H968 0.939 . S
C985 C980 1.400 . S
C985 C984 1.389 . S
C986 P960 1.819 . S
C986 C987 1.391 . S
C986 C991 1.391 . S
C987 H969 0.941 . S
C987 C986 1.391 . S
C987 C988 1.396 . S
C988 H972 0.939 . S
C988 C987 1.396 . S
C988 C989 1.397 . S
C989 C988 1.397 . S
C989 C990 1.385 . S
C990 H973 0.940 . S
C990 C989 1.385 . S
C990 C991 1.388 . S
C991 H970 0.939 . S
C991 C986 1.391 . S
C991 C990 1.388 . S
P992 O1003 1.490 . S
P992 C1006 1.812 . S
P992 C1012 1.803 . S
P992 C1018 1.819 . S
H993 C1007 0.941 . S
H994 C1008 0.939 . S
H995 C1010 0.940 . S
H996 C1011 0.940 . S
H997 C1013 0.939 . S
H998 C1014 0.942 . S
H999 C1016 0.940 . S
H1000 C1017 0.939 . S
H1001 C1019 0.941 . S
H1002 C1023 0.939 . S
O1003 P992 1.490 . S
H1004 C1020 0.939 . S
H1005 C1022 0.940 . S
C1006 P992 1.812 . S
C1006 C1007 1.389 . S
C1006 C1011 1.391 . S
C1007 H993 0.941 . S
C1007 C1006 1.389 . S
C1007 C1008 1.397 . S
C1008 H994 0.939 . S
C1008 C1007 1.397 . S
C1008 C1009 1.378 . S
C1009 C1008 1.378 . S
C1009 C1010 1.378 . S
C1010 H995 0.940 . S
C1010 C1009 1.378 . S
C1010 C1011 1.396 . S
C1011 H996 0.940 . S
C1011 C1006 1.391 . S
C1011 C1010 1.396 . S
C1012 P992 1.803 . S
C1012 C1013 1.378 . S
C1012 C1017 1.400 . S
C1013 H997 0.939 . S
C1013 C1012 1.378 . S
C1013 C1014 1.361 . S
C1014 H998 0.942 . S
C1014 C1013 1.361 . S
C1014 C1015 1.369 . S
C1015 C1014 1.369 . S
C1015 C1016 1.404 . S
C1016 H999 0.940 . S
C1016 C1015 1.404 . S
C1016 C1017 1.389 . S
C1017 H1000 0.939 . S
C1017 C1012 1.400 . S
C1017 C1016 1.389 . S
C1018 P992 1.819 . S
C1018 C1019 1.391 . S
C1018 C1023 1.391 . S
C1019 H1001 0.941 . S
C1019 C1018 1.391 . S
C1019 C1020 1.396 . S
C1020 H1004 0.939 . S
C1020 C1019 1.396 . S
C1020 C1021 1.397 . S
C1021 C1020 1.397 . S
C1021 C1022 1.385 . S
C1022 H1005 0.940 . S
C1022 C1021 1.385 . S
C1022 C1023 1.388 . S
C1023 H1002 0.939 . S
C1023 C1018 1.391 . S
C1023 C1022 1.388 . S
Cu1024 N1025 1.999 . S
Cu1024 O1030 1.974 . S
Cu1024 N1035 1.985 . S
Cu1024 O1044 1.959 . S
N1025 Cu1024 1.999 . S
N1025 C1027 1.263 1_554 S
N1025 C1029 1.389 . S
N1026 C1027 1.358 . S
N1026 C1028 1.400 . S
C1027 N1025 1.263 1_556 S
C1027 N1026 1.358 . S
C1027 H1033 0.930 . S
C1028 N1026 1.400 . S
C1028 C1029 1.351 1_556 S
C1028 H1045 0.930 . S
C1029 N1025 1.389 . S
C1029 C1028 1.351 1_554 S
C1029 H1034 0.930 . S
O1030 Cu1024 1.974 . S
O1030 C1040 1.282 1_554 S
C1031 O1032 1.261 . S
C1031 O1044 1.251 . S
O1032 C1031 1.261 . S
H1033 C1027 0.930 . S
H1034 C1029 0.930 . S
N1035 Cu1024 1.985 . S
N1035 C1037 1.335 . S
N1035 C1038 1.390 . S
N1036 C1037 1.345 . S
N1036 C1039 1.336 . S
C1037 N1035 1.335 . S
C1037 N1036 1.345 . S
C1037 H1042 0.930 . S
C1038 N1035 1.390 . S
C1038 C1039 1.346 . S
C1038 H1043 0.930 . S
C1039 N1036 1.336 . S
C1039 C1038 1.346 . S
C1039 H1046 0.929 . S
C1040 O1030 1.282 1_556 S
C1040 O1041 1.216 . S
O1041 C1040 1.216 . S
H1042 C1037 0.930 . S
H1043 C1038 0.930 . S
O1044 Cu1024 1.959 . S
O1044 C1031 1.251 . S
H1045 C1028 0.930 . S
H1046 C1039 0.929 . S
Cu1047 N1048 1.999 . S
Cu1047 O1053 1.974 . S
Cu1047 N1058 1.985 1_554 S
Cu1047 O1067 1.959 1_554 S
N1048 Cu1047 1.999 . S
N1048 C1050 1.263 . S
N1048 C1052 1.389 . S
N1049 C1050 1.358 . S
N1049 C1051 1.400 . S
C1050 N1048 1.263 . S
C1050 N1049 1.358 . S
C1050 H1056 0.930 . S
C1051 N1049 1.400 . S
C1051 C1052 1.351 . S
C1051 H1068 0.930 . S
C1052 N1048 1.389 . S
C1052 C1051 1.351 . S
C1052 H1057 0.930 . S
O1053 Cu1047 1.974 . S
O1053 C1063 1.282 . S
C1054 O1055 1.261 . S
C1054 O1067 1.251 . S
O1055 C1054 1.261 . S
H1056 C1050 0.930 . S
H1057 C1052 0.930 . S
N1058 Cu1047 1.985 1_556 S
N1058 C1060 1.335 . S
N1058 C1061 1.390 . S
N1059 C1060 1.345 . S
N1059 C1062 1.336 . S
C1060 N1058 1.335 . S
C1060 N1059 1.345 . S
C1060 H1065 0.930 . S
C1061 N1058 1.390 . S
C1061 C1062 1.346 . S
C1061 H1066 0.930 1_556 S
C1062 N1059 1.336 . S
C1062 C1061 1.346 . S
C1062 H1069 0.929 . S
C1063 O1053 1.282 . S
C1063 O1064 1.216 . S
O1064 C1063 1.216 . S
H1065 C1060 0.930 . S
H1066 C1061 0.930 1_554 S
O1067 Cu1047 1.959 1_556 S
O1067 C1054 1.251 . S
H1068 C1051 0.930 . S
H1069 C1062 0.929 . S
Cu1070 N1071 1.999 1_554 S
Cu1070 O1076 1.974 1_554 S
Cu1070 N1081 1.985 . S
Cu1070 O1090 1.959 . S
N1071 Cu1070 1.999 1_556 S
N1071 C1073 1.263 . S
N1071 C1075 1.389 . S
N1072 C1073 1.358 . S
N1072 C1074 1.400 . S
C1073 N1071 1.263 . S
C1073 N1072 1.358 . S
C1073 H1079 0.930 . S
C1074 N1072 1.400 . S
C1074 C1075 1.351 . S
C1074 H1091 0.930 . S
C1075 N1071 1.389 . S
C1075 C1074 1.351 . S
C1075 H1080 0.930 1_556 S
O1076 Cu1070 1.974 1_556 S
O1076 C1086 1.282 . S
C1077 O1078 1.261 . S
C1077 O1090 1.251 . S
O1078 C1077 1.261 . S
H1079 C1073 0.930 . S
H1080 C1075 0.930 1_554 S
N1081 Cu1070 1.985 . S
N1081 C1083 1.335 . S
N1081 C1084 1.390 . S
N1082 C1083 1.345 . S
N1082 C1085 1.336 . S
C1083 N1081 1.335 . S
C1083 N1082 1.345 . S
C1083 H1088 0.930 . S
C1084 N1081 1.390 . S
C1084 C1085 1.346 . S
C1084 H1089 0.930 . S
C1085 N1082 1.336 . S
C1085 C1084 1.346 . S
C1085 H1092 0.929 . S
C1086 O1076 1.282 . S
C1086 O1087 1.216 . S
O1087 C1086 1.216 . S
H1088 C1083 0.930 . S
H1089 C1084 0.930 . S
O1090 Cu1070 1.959 . S
O1090 C1077 1.251 . S
H1091 C1074 0.930 . S
H1092 C1085 0.929 . S
Cu1093 N1094 2.005 1_556 S
Cu1093 O1099 1.980 1_556 S
Cu1093 N1104 1.980 . S
Cu1093 O1113 1.953 . S
N1094 Cu1093 2.005 1_554 S
N1094 C1096 1.263 . S
N1094 C1098 1.389 . S
N1095 C1096 1.358 . S
N1095 C1097 1.400 . S
C1096 N1094 1.263 . S
C1096 N1095 1.358 . S
C1096 H1102 0.930 . S
C1097 N1095 1.400 . S
C1097 C1098 1.351 . S
C1097 H1114 0.930 . S
C1098 N1094 1.389 . S
C1098 C1097 1.351 . S
C1098 H1103 0.930 . S
O1099 Cu1093 1.980 1_554 S
O1099 C1109 1.282 . S
C1100 O1101 1.261 . S
C1100 O1113 1.251 . S
O1101 C1100 1.261 . S
H1102 C1096 0.930 . S
H1103 C1098 0.930 . S
N1104 Cu1093 1.980 . S
N1104 C1106 1.335 . S
N1104 C1107 1.390 . S
N1105 C1106 1.345 . S
N1105 C1108 1.336 . S
C1106 N1104 1.335 . S
C1106 N1105 1.345 . S
C1106 H1111 0.930 . S
C1107 N1104 1.390 . S
C1107 C1108 1.346 . S
C1107 H1112 0.926 . S
C1108 N1105 1.336 . S
C1108 C1107 1.346 . S
C1108 H1115 0.929 . S
C1109 O1099 1.282 . S
C1109 O1110 1.216 . S
O1110 C1109 1.216 . S
H1111 C1106 0.930 . S
H1112 C1107 0.926 . S
O1113 Cu1093 1.953 . S
O1113 C1100 1.251 . S
H1114 C1097 0.930 . S
H1115 C1108 0.929 . S
Cu1116 N1117 1.999 . S
Cu1116 O1122 1.974 . S
Cu1116 N1127 1.985 1_455 S
Cu1116 O1136 1.959 1_455 S
N1117 Cu1116 1.999 . S
N1117 C1119 1.263 . S
N1117 C1121 1.389 . S
N1118 C1119 1.358 . S
N1118 C1120 1.400 . S
C1119 N1117 1.263 . S
C1119 N1118 1.358 . S
C1119 H1125 0.930 . S
C1120 N1118 1.400 . S
C1120 C1121 1.351 . S
C1120 H1137 0.930 . S
C1121 N1117 1.389 . S
C1121 C1120 1.351 . S
C1121 H1126 0.930 . S
O1122 Cu1116 1.974 . S
O1122 C1132 1.282 . S
C1123 O1124 1.261 . S
C1123 O1136 1.251 . S
O1124 C1123 1.261 . S
H1125 C1119 0.930 . S
H1126 C1121 0.930 . S
N1127 Cu1116 1.985 1_655 S
N1127 C1129 1.335 . S
N1127 C1130 1.390 . S
N1128 C1129 1.345 . S
N1128 C1131 1.336 . S
C1129 N1127 1.335 . S
C1129 N1128 1.345 . S
C1129 H1134 0.930 . S
C1130 N1127 1.390 . S
C1130 C1131 1.346 . S
C1130 H1135 0.930 1_655 S
C1131 N1128 1.336 . S
C1131 C1130 1.346 . S
C1131 H1138 0.929 . S
C1132 O1122 1.282 . S
C1132 O1133 1.216 . S
O1133 C1132 1.216 . S
H1134 C1129 0.930 . S
H1135 C1130 0.930 1_455 S
O1136 Cu1116 1.959 1_655 S
O1136 C1123 1.251 . S
H1137 C1120 0.930 . S
H1138 C1131 0.929 . S
Cu1139 N1140 1.999 . S
Cu1139 O1145 1.974 . S
Cu1139 N1150 1.985 1_545 S
Cu1139 O1159 1.959 1_545 S
N1140 Cu1139 1.999 . S
N1140 C1142 1.263 . S
N1140 C1144 1.389 . S
N1141 C1142 1.358 . S
N1141 C1143 1.400 . S
C1142 N1140 1.263 . S
C1142 N1141 1.358 . S
C1142 H1148 0.930 . S
C1143 N1141 1.400 . S
C1143 C1144 1.351 . S
C1143 H1160 0.930 . S
C1144 N1140 1.389 . S
C1144 C1143 1.351 . S
C1144 H1149 0.930 . S
O1145 Cu1139 1.974 . S
O1145 C1155 1.282 . S
C1146 O1147 1.261 . S
C1146 O1159 1.251 . S
O1147 C1146 1.261 . S
H1148 C1142 0.930 . S
H1149 C1144 0.930 . S
N1150 Cu1139 1.985 1_565 S
N1150 C1152 1.335 . S
N1150 C1153 1.390 . S
N1151 C1152 1.345 . S
N1151 C1154 1.336 . S
C1152 N1150 1.335 . S
C1152 N1151 1.345 . S
C1152 H1157 0.930 . S
C1153 N1150 1.390 . S
C1153 C1154 1.346 . S
C1153 H1158 0.930 1_565 S
C1154 N1151 1.336 . S
C1154 C1153 1.346 . S
C1154 H1161 0.929 . S
C1155 O1145 1.282 . S
C1155 O1156 1.216 . S
O1156 C1155 1.216 . S
H1157 C1152 0.930 . S
H1158 C1153 0.930 1_545 S
O1159 Cu1139 1.959 1_565 S
O1159 C1146 1.251 . S
H1160 C1143 0.930 . S
H1161 C1154 0.929 . S
Cu1162 N1163 1.963 1_455 S
Cu1162 O1168 1.930 1_455 S
Cu1162 N1173 2.021 . S
Cu1162 O1182 2.003 . S
N1163 Cu1162 1.963 1_655 S
N1163 C1165 1.263 . S
N1163 C1167 1.389 . S
N1164 C1165 1.358 . S
N1164 C1166 1.400 . S
C1165 N1163 1.263 . S
C1165 N1164 1.358 . S
C1165 H1171 0.930 . S
C1166 N1164 1.400 . S
C1166 C1167 1.351 . S
C1166 H1183 0.930 . S
C1167 N1163 1.389 . S
C1167 C1166 1.351 . S
C1167 H1172 0.930 . S
O1168 Cu1162 1.930 1_655 S
O1168 C1178 1.282 . S
C1169 O1170 1.261 . S
C1169 O1182 1.251 . S
O1170 C1169 1.261 . S
H1171 C1165 0.930 . S
H1172 C1167 0.930 . S
N1173 Cu1162 2.021 . S
N1173 C1175 1.335 . S
N1173 C1176 1.390 . S
N1174 C1175 1.345 . S
N1174 C1177 1.336 . S
C1175 N1173 1.335 . S
C1175 N1174 1.345 . S
C1175 H1180 0.930 . S
C1176 N1173 1.390 . S
C1176 C1177 1.346 . S
C1176 H1181 0.930 . S
C1177 N1174 1.336 . S
C1177 C1176 1.346 . S
C1177 H1184 0.929 . S
C1178 O1168 1.282 . S
C1178 O1179 1.216 . S
O1179 C1178 1.216 . S
H1180 C1175 0.930 . S
H1181 C1176 0.930 . S
O1182 Cu1162 2.003 . S
O1182 C1169 1.251 . S
H1183 C1166 0.930 . S
H1184 C1177 0.929 . S
Cu1185 N1186 1.991 1_565 S
Cu1185 O1191 1.963 1_565 S
Cu1185 N1196 1.993 . S
Cu1185 O1205 1.970 . S
N1186 Cu1185 1.991 1_545 S
N1186 C1188 1.263 . S
N1186 C1190 1.389 . S
N1187 C1188 1.358 . S
N1187 C1189 1.400 . S
C1188 N1186 1.263 . S
C1188 N1187 1.358 . S
C1188 H1194 0.930 . S
C1189 N1187 1.400 . S
C1189 C1190 1.351 . S
C1189 H1206 0.930 . S
C1190 N1186 1.389 . S
C1190 C1189 1.351 . S
C1190 H1195 0.930 . S
O1191 Cu1185 1.963 1_545 S
O1191 C1201 1.282 . S
C1192 O1193 1.261 . S
C1192 O1205 1.251 . S
O1193 C1192 1.261 . S
H1194 C1188 0.930 . S
H1195 C1190 0.930 . S
N1196 Cu1185 1.993 . S
N1196 C1198 1.335 . S
N1196 C1199 1.390 . S
N1197 C1198 1.345 . S
N1197 C1200 1.336 . S
C1198 N1196 1.335 . S
C1198 N1197 1.345 . S
C1198 H1203 0.930 . S
C1199 N1196 1.390 . S
C1199 C1200 1.346 . S
C1199 H1204 0.930 . S
C1200 N1197 1.336 . S
C1200 C1199 1.346 . S
C1200 H1207 0.929 . S
C1201 O1191 1.282 . S
C1201 O1202 1.216 . S
O1202 C1201 1.216 . S
H1203 C1198 0.930 . S
H1204 C1199 0.930 . S
O1205 Cu1185 1.970 . S
O1205 C1192 1.251 . S
H1206 C1189 0.930 . S
H1207 C1200 0.929 . S
Cu1208 N1209 1.999 . S
Cu1208 O1214 1.974 . S
Cu1208 N1219 1.985 1_455 S
Cu1208 O1228 1.959 1_455 S
N1209 Cu1208 1.999 . S
N1209 C1211 1.263 . S
N1209 C1213 1.389 . S
N1210 C1211 1.358 . S
N1210 C1212 1.400 . S
C1211 N1209 1.263 . S
C1211 N1210 1.358 . S
C1211 H1217 0.930 . S
C1212 N1210 1.400 . S
C1212 C1213 1.351 . S
C1212 H1229 0.930 . S
C1213 N1209 1.389 . S
C1213 C1212 1.351 . S
C1213 H1218 0.930 . S
O1214 Cu1208 1.974 . S
O1214 C1224 1.282 . S
C1215 O1216 1.261 . S
C1215 O1228 1.251 . S
O1216 C1215 1.261 . S
H1217 C1211 0.930 . S
H1218 C1213 0.930 . S
N1219 Cu1208 1.985 1_655 S
N1219 C1221 1.335 . S
N1219 C1222 1.390 . S
N1220 C1221 1.345 . S
N1220 C1223 1.336 . S
C1221 N1219 1.335 . S
C1221 N1220 1.345 . S
C1221 H1226 0.930 . S
C1222 N1219 1.390 . S
C1222 C1223 1.346 . S
C1222 H1227 0.930 1_655 S
C1223 N1220 1.336 . S
C1223 C1222 1.346 . S
C1223 H1230 0.929 . S
C1224 O1214 1.282 . S
C1224 O1225 1.216 . S
O1225 C1224 1.216 . S
H1226 C1221 0.930 . S
H1227 C1222 0.930 1_455 S
O1228 Cu1208 1.959 1_655 S
O1228 C1215 1.251 . S
H1229 C1212 0.930 . S
H1230 C1223 0.929 . S
Cu1231 N1232 1.999 . S
Cu1231 O1237 1.974 . S
Cu1231 N1242 1.985 1_545 S
Cu1231 O1251 1.959 1_545 S
N1232 Cu1231 1.999 . S
N1232 C1234 1.263 . S
N1232 C1236 1.389 . S
N1233 C1234 1.358 . S
N1233 C1235 1.400 . S
C1234 N1232 1.263 . S
C1234 N1233 1.358 . S
C1234 H1240 0.930 . S
C1235 N1233 1.400 . S
C1235 C1236 1.351 . S
C1235 H1252 0.930 . S
C1236 N1232 1.389 . S
C1236 C1235 1.351 . S
C1236 H1241 0.930 . S
O1237 Cu1231 1.974 . S
O1237 C1247 1.282 . S
C1238 O1239 1.261 . S
C1238 O1251 1.251 . S
O1239 C1238 1.261 . S
H1240 C1234 0.930 . S
H1241 C1236 0.930 . S
N1242 Cu1231 1.985 1_565 S
N1242 C1244 1.335 . S
N1242 C1245 1.397 . S
N1243 C1244 1.345 . S
N1243 C1246 1.336 . S
C1244 N1242 1.335 . S
C1244 N1243 1.345 . S
C1244 H1249 0.930 . S
C1245 N1242 1.397 . S
C1245 C1246 1.378 . S
C1245 H1250 0.898 1_565 S
C1246 N1243 1.336 . S
C1246 C1245 1.378 . S
C1246 H1253 0.929 . S
C1247 O1237 1.282 . S
C1247 O1248 1.216 . S
O1248 C1247 1.216 . S
H1249 C1244 0.930 . S
H1250 C1245 0.898 1_545 S
O1251 Cu1231 1.959 1_565 S
O1251 C1238 1.251 . S
H1252 C1235 0.930 . S
H1253 C1246 0.929 . S
Cu1254 N1255 1.999 . S
Cu1254 O1260 1.974 . S
Cu1254 N1265 1.985 . S
Cu1254 O1274 1.959 . S
N1255 Cu1254 1.999 . S
N1255 C1257 1.263 1_455 S
N1255 C1259 1.389 . S
N1256 C1257 1.358 . S
N1256 C1258 1.400 . S
C1257 N1255 1.263 1_655 S
C1257 N1256 1.358 . S
C1257 H1263 0.930 . S
C1258 N1256 1.400 . S
C1258 C1259 1.351 1_655 S
C1258 H1275 0.930 . S
C1259 N1255 1.389 . S
C1259 C1258 1.351 1_455 S
C1259 H1264 0.930 . S
O1260 Cu1254 1.974 . S
O1260 C1270 1.282 1_455 S
C1261 O1262 1.261 . S
C1261 O1274 1.251 . S
O1262 C1261 1.261 . S
H1263 C1257 0.930 . S
H1264 C1259 0.930 . S
N1265 Cu1254 1.985 . S
N1265 C1267 1.335 . S
N1265 C1268 1.390 . S
N1266 C1267 1.345 . S
N1266 C1269 1.336 . S
C1267 N1265 1.335 . S
C1267 N1266 1.345 . S
C1267 H1272 0.930 . S
C1268 N1265 1.390 . S
C1268 C1269 1.346 . S
C1268 H1273 0.930 . S
C1269 N1266 1.336 . S
C1269 C1268 1.346 . S
C1269 H1276 0.929 . S
C1270 O1260 1.282 1_655 S
C1270 O1271 1.216 1_655 S
O1271 C1270 1.216 1_455 S
H1272 C1267 0.930 . S
H1273 C1268 0.930 . S
O1274 Cu1254 1.959 . S
O1274 C1261 1.251 . S
H1275 C1258 0.930 . S
H1276 C1269 0.929 . S
Cu1277 N1278 1.999 . S
Cu1277 O1283 1.974 . S
Cu1277 N1288 2.031 . S
Cu1277 O1297 1.959 1_545 S
N1278 Cu1277 1.999 . S
N1278 C1280 1.263 . S
N1278 C1282 1.389 . S
N1279 C1280 1.358 . S
N1279 C1281 1.400 . S
C1280 N1278 1.263 . S
C1280 N1279 1.358 . S
C1280 H1286 0.930 . S
C1281 N1279 1.400 . S
C1281 C1282 1.351 . S
C1281 H1298 0.930 . S
C1282 N1278 1.389 . S
C1282 C1281 1.351 . S
C1282 H1287 0.930 . S
O1283 Cu1277 1.974 . S
O1283 C1293 1.282 . S
C1284 O1285 1.254 1_565 S
C1284 O1297 1.251 . S
O1285 C1284 1.254 1_545 S
H1286 C1280 0.930 . S
H1287 C1282 0.930 . S
N1288 Cu1277 2.031 . S
N1288 C1290 1.263 1_545 S
N1288 C1291 1.408 . S
N1289 C1290 1.345 . S
N1289 C1292 1.336 . S
C1290 N1288 1.263 1_565 S
C1290 N1289 1.345 . S
C1290 H1295 0.930 . S
C1291 N1288 1.408 . S
C1291 C1292 1.346 1_545 S
C1291 H1296 0.930 . S
C1292 N1289 1.336 . S
C1292 C1291 1.346 1_565 S
C1292 H1299 0.929 . S
C1293 O1283 1.282 . S
C1293 O1294 1.216 . S
O1294 C1293 1.216 . S
H1295 C1290 0.930 . S
H1296 C1291 0.930 . S
O1297 Cu1277 1.959 1_565 S
O1297 C1284 1.251 . S
H1298 C1281 0.930 . S
H1299 C1292 0.929 . S
Cu1300 N1301 1.999 . S
Cu1300 O1306 1.974 . S
Cu1300 N1311 1.985 . S
Cu1300 O1320 1.959 . S
N1301 Cu1300 1.999 . S
N1301 C1303 1.263 . S
N1301 C1305 1.389 . S
N1302 C1303 1.358 . S
N1302 C1304 1.400 . S
C1303 N1301 1.263 . S
C1303 N1302 1.358 . S
C1303 H1309 0.930 . S
C1304 N1302 1.400 . S
C1304 C1305 1.351 . S
C1304 H1321 0.930 . S
C1305 N1301 1.389 . S
C1305 C1304 1.351 . S
C1305 H1310 0.930 . S
O1306 Cu1300 1.974 . S
O1306 C1316 1.282 . S
C1307 O1308 1.261 . S
C1307 O1320 1.251 . S
O1308 C1307 1.261 . S
H1309 C1303 0.930 . S
H1310 C1305 0.930 . S
N1311 Cu1300 1.985 . S
N1311 C1313 1.335 . S
N1311 C1314 1.390 . S
N1312 C1313 1.345 . S
N1312 C1315 1.336 . S
C1313 N1311 1.335 . S
C1313 N1312 1.345 . S
C1313 H1318 0.930 . S
C1314 N1311 1.390 . S
C1314 C1315 1.346 . S
C1314 H1319 0.930 . S
C1315 N1312 1.336 . S
C1315 C1314 1.346 . S
C1315 H1322 0.929 . S
C1316 O1306 1.282 . S
C1316 O1317 1.216 . S
O1317 C1316 1.216 . S
H1318 C1313 0.930 . S
H1319 C1314 0.930 . S
O1320 Cu1300 1.959 . S
O1320 C1307 1.251 . S
H1321 C1304 0.930 . S
H1322 C1315 0.929 . S
Cu1323 N1324 1.999 . S
Cu1323 O1329 1.974 . S
Cu1323 N1334 1.985 . S
Cu1323 O1343 1.959 . S
N1324 Cu1323 1.999 . S
N1324 C1326 1.263 . S
N1324 C1328 1.389 . S
N1325 C1326 1.358 . S
N1325 C1327 1.400 . S
C1326 N1324 1.263 . S
C1326 N1325 1.358 . S
C1326 H1332 0.930 . S
C1327 N1325 1.400 . S
C1327 C1328 1.351 . S
C1327 H1344 0.930 . S
C1328 N1324 1.389 . S
C1328 C1327 1.351 . S
C1328 H1333 0.930 . S
O1329 Cu1323 1.974 . S
O1329 C1339 1.282 . S
C1330 O1331 1.261 . S
C1330 O1343 1.251 . S
O1331 C1330 1.261 . S
H1332 C1326 0.930 . S
H1333 C1328 0.930 . S
N1334 Cu1323 1.985 . S
N1334 C1336 1.335 . S
N1334 C1337 1.390 . S
N1335 C1336 1.345 . S
N1335 C1338 1.336 . S
C1336 N1334 1.335 . S
C1336 N1335 1.345 . S
C1336 H1341 0.930 . S
C1337 N1334 1.390 . S
C1337 C1338 1.346 . S
C1337 H1342 0.930 . S
C1338 N1335 1.336 . S
C1338 C1337 1.346 . S
C1338 H1345 0.929 . S
C1339 O1329 1.282 . S
C1339 O1340 1.216 . S
O1340 C1339 1.216 . S
H1341 C1336 0.930 . S
H1342 C1337 0.930 . S
O1343 Cu1323 1.959 . S
O1343 C1330 1.251 . S
H1344 C1327 0.930 . S
H1345 C1338 0.929 . S
Cu1346 N1347 1.999 . S
Cu1346 O1352 1.974 . S
Cu1346 N1357 1.985 . S
Cu1346 O1366 1.959 . S
N1347 Cu1346 1.999 . S
N1347 C1349 1.263 . S
N1347 C1351 1.389 . S
N1348 C1349 1.358 . S
N1348 C1350 1.400 . S
C1349 N1347 1.263 . S
C1349 N1348 1.358 . S
C1349 H1355 0.930 . S
C1350 N1348 1.400 . S
C1350 C1351 1.351 . S
C1350 H1367 0.930 . S
C1351 N1347 1.389 . S
C1351 C1350 1.351 . S
C1351 H1356 0.930 . S
O1352 Cu1346 1.974 . S
O1352 C1362 1.282 . S
C1353 O1354 1.261 . S
C1353 O1366 1.251 . S
O1354 C1353 1.261 . S
H1355 C1349 0.930 . S
H1356 C1351 0.930 . S
N1357 Cu1346 1.985 . S
N1357 C1359 1.335 . S
N1357 C1360 1.390 . S
N1358 C1359 1.345 . S
N1358 C1361 1.336 . S
C1359 N1357 1.335 . S
C1359 N1358 1.345 . S
C1359 H1364 0.930 . S
C1360 N1357 1.390 . S
C1360 C1361 1.346 . S
C1360 H1365 0.930 . S
C1361 N1358 1.336 . S
C1361 C1360 1.346 . S
C1361 H1368 0.929 . S
C1362 O1352 1.282 . S
C1362 O1363 1.216 . S
O1363 C1362 1.216 . S
H1364 C1359 0.930 . S
H1365 C1360 0.930 . S
O1366 Cu1346 1.959 . S
O1366 C1353 1.251 . S
H1367 C1350 0.930 . S
H1368 C1361 0.929 . S
Cu1369 N1370 1.999 . S
Cu1369 O1375 1.974 . S
Cu1369 N1380 1.985 . S
Cu1369 O1389 1.959 . S
N1370 Cu1369 1.999 . S
N1370 C1372 1.263 . S
N1370 C1374 1.389 . S
N1371 C1372 1.358 . S
N1371 C1373 1.400 . S
C1372 N1370 1.263 . S
C1372 N1371 1.358 . S
C1372 H1378 0.930 . S
C1373 N1371 1.400 . S
C1373 C1374 1.351 . S
C1373 H1390 0.930 . S
C1374 N1370 1.389 . S
C1374 C1373 1.351 . S
C1374 H1379 0.930 . S
O1375 Cu1369 1.974 . S
O1375 C1385 1.282 . S
C1376 O1377 1.261 . S
C1376 O1389 1.251 . S
O1377 C1376 1.261 . S
H1378 C1372 0.930 . S
H1379 C1374 0.930 . S
N1380 Cu1369 1.985 . S
N1380 C1382 1.335 . S
N1380 C1383 1.390 . S
N1381 C1382 1.345 . S
N1381 C1384 1.336 . S
C1382 N1380 1.335 . S
C1382 N1381 1.345 . S
C1382 H1387 0.930 . S
C1383 N1380 1.390 . S
C1383 C1384 1.346 . S
C1383 H1388 0.930 . S
C1384 N1381 1.336 . S
C1384 C1383 1.346 . S
C1384 H1391 0.929 . S
C1385 O1375 1.282 . S
C1385 O1386 1.216 . S
O1386 C1385 1.216 . S
H1387 C1382 0.930 . S
H1388 C1383 0.930 . S
O1389 Cu1369 1.959 . S
O1389 C1376 1.251 . S
H1390 C1373 0.930 . S
H1391 C1384 0.929 . S
Cu1392 N1393 1.999 . S
Cu1392 O1398 1.974 . S
Cu1392 N1403 1.985 . S
Cu1392 O1412 1.959 . S
N1393 Cu1392 1.999 . S
N1393 C1395 1.263 . S
N1393 C1397 1.389 . S
N1394 C1395 1.358 . S
N1394 C1396 1.400 . S
C1395 N1393 1.263 . S
C1395 N1394 1.358 . S
C1395 H1401 0.930 . S
C1396 N1394 1.400 . S
C1396 C1397 1.351 . S
C1396 H1413 0.930 . S
C1397 N1393 1.389 . S
C1397 C1396 1.351 . S
C1397 H1402 0.930 . S
O1398 Cu1392 1.974 . S
O1398 C1408 1.282 . S
C1399 O1400 1.261 . S
C1399 O1412 1.251 . S
O1400 C1399 1.261 . S
H1401 C1395 0.930 . S
H1402 C1397 0.930 . S
N1403 Cu1392 1.985 . S
N1403 C1405 1.335 . S
N1403 C1406 1.390 . S
N1404 C1405 1.345 . S
N1404 C1407 1.336 . S
C1405 N1403 1.335 . S
C1405 N1404 1.345 . S
C1405 H1410 0.930 . S
C1406 N1403 1.390 . S
C1406 C1407 1.346 . S
C1406 H1411 0.930 . S
C1407 N1404 1.336 . S
C1407 C1406 1.346 . S
C1407 H1414 0.929 . S
C1408 O1398 1.282 . S
C1408 O1409 1.216 . S
O1409 C1408 1.216 . S
H1410 C1405 0.930 . S
H1411 C1406 0.930 . S
O1412 Cu1392 1.959 . S
O1412 C1399 1.251 . S
H1413 C1396 0.930 . S
H1414 C1407 0.929 . S
Cu1415 N1416 1.999 . S
Cu1415 O1421 1.974 . S
Cu1415 N1426 1.985 . S
Cu1415 O1435 1.959 . S
N1416 Cu1415 1.999 . S
N1416 C1418 1.263 . S
N1416 C1420 1.389 . S
N1417 C1418 1.358 . S
N1417 C1419 1.400 . S
C1418 N1416 1.263 . S
C1418 N1417 1.358 . S
C1418 H1424 0.930 . S
C1419 N1417 1.400 . S
C1419 C1420 1.351 . S
C1419 H1436 0.930 . S
C1420 N1416 1.389 . S
C1420 C1419 1.351 . S
C1420 H1425 0.930 . S
O1421 Cu1415 1.974 . S
O1421 C1431 1.282 . S
C1422 O1423 1.261 . S
C1422 O1435 1.251 . S
O1423 C1422 1.261 . S
H1424 C1418 0.930 . S
H1425 C1420 0.930 . S
N1426 Cu1415 1.985 . S
N1426 C1428 1.335 . S
N1426 C1429 1.390 . S
N1427 C1428 1.345 . S
N1427 C1430 1.336 . S
C1428 N1426 1.335 . S
C1428 N1427 1.345 . S
C1428 H1433 0.930 . S
C1429 N1426 1.390 . S
C1429 C1430 1.346 . S
C1429 H1434 0.930 . S
C1430 N1427 1.336 . S
C1430 C1429 1.346 . S
C1430 H1437 0.929 . S
C1431 O1421 1.282 . S
C1431 O1432 1.216 . S
O1432 C1431 1.216 . S
H1433 C1428 0.930 . S
H1434 C1429 0.930 . S
O1435 Cu1415 1.959 . S
O1435 C1422 1.251 . S
H1436 C1419 0.930 . S
H1437 C1430 0.929 . S
Cu1438 N1439 1.999 . S
Cu1438 O1444 1.974 . S
Cu1438 N1449 1.985 . S
Cu1438 O1458 1.959 . S
N1439 Cu1438 1.999 . S
N1439 C1441 1.263 . S
N1439 C1443 1.389 . S
N1440 C1441 1.358 . S
N1440 C1442 1.400 . S
C1441 N1439 1.263 . S
C1441 N1440 1.358 . S
C1441 H1447 0.930 . S
C1442 N1440 1.400 . S
C1442 C1443 1.351 . S
C1442 H1459 0.930 . S
C1443 N1439 1.389 . S
C1443 C1442 1.351 . S
C1443 H1448 0.930 . S
O1444 Cu1438 1.974 . S
O1444 C1454 1.282 . S
C1445 O1446 1.261 . S
C1445 O1458 1.251 . S
O1446 C1445 1.261 . S
H1447 C1441 0.930 . S
H1448 C1443 0.930 . S
N1449 Cu1438 1.985 . S
N1449 C1451 1.335 . S
N1449 C1452 1.390 . S
N1450 C1451 1.345 . S
N1450 C1453 1.336 . S
C1451 N1449 1.335 . S
C1451 N1450 1.345 . S
C1451 H1456 0.930 . S
C1452 N1449 1.390 . S
C1452 C1453 1.346 . S
C1452 H1457 0.930 . S
C1453 N1450 1.336 . S
C1453 C1452 1.346 . S
C1453 H1460 0.929 . S
C1454 O1444 1.282 . S
C1454 O1455 1.216 . S
O1455 C1454 1.216 . S
H1456 C1451 0.930 . S
H1457 C1452 0.930 . S
O1458 Cu1438 1.959 . S
O1458 C1445 1.251 . S
H1459 C1442 0.930 . S
H1460 C1453 0.929 . S
Cu1461 N1462 1.999 . S
Cu1461 O1467 1.974 . S
Cu1461 N1472 1.985 . S
Cu1461 O1481 1.959 . S
N1462 Cu1461 1.999 . S
N1462 C1464 1.263 . S
N1462 C1466 1.389 . S
N1463 C1464 1.358 . S
N1463 C1465 1.400 . S
C1464 N1462 1.263 . S
C1464 N1463 1.358 . S
C1464 H1470 0.930 . S
C1465 N1463 1.400 . S
C1465 C1466 1.351 . S
C1465 H1482 0.930 . S
C1466 N1462 1.389 . S
C1466 C1465 1.351 . S
C1466 H1471 0.930 . S
O1467 Cu1461 1.974 . S
O1467 C1477 1.282 . S
C1468 O1469 1.261 . S
C1468 O1481 1.251 . S
O1469 C1468 1.261 . S
H1470 C1464 0.930 . S
H1471 C1466 0.930 . S
N1472 Cu1461 1.985 . S
N1472 C1474 1.335 . S
N1472 C1475 1.390 . S
N1473 C1474 1.345 . S
N1473 C1476 1.336 . S
C1474 N1472 1.335 . S
C1474 N1473 1.345 . S
C1474 H1479 0.930 . S
C1475 N1472 1.390 . S
C1475 C1476 1.346 . S
C1475 H1480 0.930 . S
C1476 N1473 1.336 . S
C1476 C1475 1.346 . S
C1476 H1483 0.929 . S
C1477 O1467 1.282 . S
C1477 O1478 1.216 . S
O1478 C1477 1.216 . S
H1479 C1474 0.930 . S
H1480 C1475 0.930 . S
O1481 Cu1461 1.959 . S
O1481 C1468 1.251 . S
H1482 C1465 0.930 . S
H1483 C1476 0.929 . S
Cu1484 N1485 1.999 . S
Cu1484 O1490 1.974 . S
Cu1484 N1495 1.985 . S
Cu1484 O1504 1.959 . S
N1485 Cu1484 1.999 . S
N1485 C1487 1.263 . S
N1485 C1489 1.389 . S
N1486 C1487 1.358 . S
N1486 C1488 1.400 . S
C1487 N1485 1.263 . S
C1487 N1486 1.358 . S
C1487 H1493 0.930 . S
C1488 N1486 1.400 . S
C1488 C1489 1.351 . S
C1488 H1505 0.930 . S
C1489 N1485 1.389 . S
C1489 C1488 1.351 . S
C1489 H1494 0.930 . S
O1490 Cu1484 1.974 . S
O1490 C1500 1.282 . S
C1491 O1492 1.261 . S
C1491 O1504 1.251 . S
O1492 C1491 1.261 . S
H1493 C1487 0.930 . S
H1494 C1489 0.930 . S
N1495 Cu1484 1.985 . S
N1495 C1497 1.335 . S
N1495 C1498 1.390 . S
N1496 C1497 1.345 . S
N1496 C1499 1.336 . S
C1497 N1495 1.335 . S
C1497 N1496 1.345 . S
C1497 H1502 0.930 . S
C1498 N1495 1.390 . S
C1498 C1499 1.346 . S
C1498 H1503 0.930 . S
C1499 N1496 1.336 . S
C1499 C1498 1.346 . S
C1499 H1506 0.929 . S
C1500 O1490 1.282 . S
C1500 O1501 1.216 . S
O1501 C1500 1.216 . S
H1502 C1497 0.930 . S
H1503 C1498 0.930 . S
O1504 Cu1484 1.959 . S
O1504 C1491 1.251 . S
H1505 C1488 0.930 . S
H1506 C1499 0.929 . S
Cu1507 N1508 1.999 . S
Cu1507 O1513 1.974 . S
Cu1507 N1518 1.985 . S
Cu1507 O1527 1.959 . S
N1508 Cu1507 1.999 . S
N1508 C1510 1.263 . S
N1508 C1512 1.389 . S
N1509 C1510 1.358 . S
N1509 C1511 1.400 . S
C1510 N1508 1.263 . S
C1510 N1509 1.358 . S
C1510 H1516 0.930 . S
C1511 N1509 1.400 . S
C1511 C1512 1.351 . S
C1511 H1528 0.930 . S
C1512 N1508 1.389 . S
C1512 C1511 1.351 . S
C1512 H1517 0.930 . S
O1513 Cu1507 1.974 . S
O1513 C1523 1.282 . S
C1514 O1515 1.261 . S
C1514 O1527 1.251 . S
O1515 C1514 1.261 . S
H1516 C1510 0.930 . S
H1517 C1512 0.930 . S
N1518 Cu1507 1.985 . S
N1518 C1520 1.335 . S
N1518 C1521 1.390 . S
N1519 C1520 1.345 . S
N1519 C1522 1.336 . S
C1520 N1518 1.335 . S
C1520 N1519 1.345 . S
C1520 H1525 0.930 . S
C1521 N1518 1.390 . S
C1521 C1522 1.346 . S
C1521 H1526 0.930 . S
C1522 N1519 1.336 . S
C1522 C1521 1.346 . S
C1522 H1529 0.929 . S
C1523 O1513 1.282 . S
C1523 O1524 1.216 . S
O1524 C1523 1.216 . S
H1525 C1520 0.930 . S
H1526 C1521 0.930 . S
O1527 Cu1507 1.959 . S
O1527 C1514 1.251 . S
H1528 C1511 0.930 . S
H1529 C1522 0.929 . S
Cu1530 N1531 1.999 . S
Cu1530 O1536 1.974 . S
Cu1530 N1541 1.985 . S
Cu1530 O1550 1.959 . S
N1531 Cu1530 1.999 . S
N1531 C1533 1.263 . S
N1531 C1535 1.389 . S
N1532 C1533 1.358 . S
N1532 C1534 1.400 . S
C1533 N1531 1.263 . S
C1533 N1532 1.358 . S
C1533 H1539 0.930 . S
C1534 N1532 1.400 . S
C1534 C1535 1.351 . S
C1534 H1551 0.930 . S
C1535 N1531 1.389 . S
C1535 C1534 1.351 . S
C1535 H1540 0.930 . S
O1536 Cu1530 1.974 . S
O1536 C1546 1.282 . S
C1537 O1538 1.261 . S
C1537 O1550 1.251 . S
O1538 C1537 1.261 . S
H1539 C1533 0.930 . S
H1540 C1535 0.930 . S
N1541 Cu1530 1.985 . S
N1541 C1543 1.335 . S
N1541 C1544 1.390 . S
N1542 C1543 1.345 . S
N1542 C1545 1.336 . S
C1543 N1541 1.335 . S
C1543 N1542 1.345 . S
C1543 H1548 0.930 . S
C1544 N1541 1.390 . S
C1544 C1545 1.346 . S
C1544 H1549 0.930 . S
C1545 N1542 1.336 . S
C1545 C1544 1.346 . S
C1545 H1552 0.929 . S
C1546 O1536 1.282 . S
C1546 O1547 1.216 . S
O1547 C1546 1.216 . S
H1548 C1543 0.930 . S
H1549 C1544 0.930 . S
O1550 Cu1530 1.959 . S
O1550 C1537 1.251 . S
H1551 C1534 0.930 . S
H1552 C1545 0.929 . S
Cu1553 N1554 1.999 . S
Cu1553 O1559 1.974 . S
Cu1553 N1564 1.985 . S
Cu1553 O1573 1.959 . S
N1554 Cu1553 1.999 . S
N1554 C1556 1.263 . S
N1554 C1558 1.389 . S
N1555 C1556 1.358 . S
N1555 C1557 1.400 . S
C1556 N1554 1.263 . S
C1556 N1555 1.358 . S
C1556 H1562 0.930 . S
C1557 N1555 1.400 . S
C1557 C1558 1.351 . S
C1557 H1574 0.930 . S
C1558 N1554 1.389 . S
C1558 C1557 1.351 . S
C1558 H1563 0.930 . S
O1559 Cu1553 1.974 . S
O1559 C1569 1.282 . S
C1560 O1561 1.261 . S
C1560 O1573 1.251 . S
O1561 C1560 1.261 . S
H1562 C1556 0.930 . S
H1563 C1558 0.930 . S
N1564 Cu1553 1.985 . S
N1564 C1566 1.335 . S
N1564 C1567 1.390 . S
N1565 C1566 1.345 . S
N1565 C1568 1.336 . S
C1566 N1564 1.335 . S
C1566 N1565 1.345 . S
C1566 H1571 0.930 . S
C1567 N1564 1.390 . S
C1567 C1568 1.346 . S
C1567 H1572 0.930 . S
C1568 N1565 1.336 . S
C1568 C1567 1.346 . S
C1568 H1575 0.929 . S
C1569 O1559 1.282 . S
C1569 O1570 1.216 . S
O1570 C1569 1.216 . S
H1571 C1566 0.930 . S
H1572 C1567 0.930 . S
O1573 Cu1553 1.959 . S
O1573 C1560 1.251 . S
H1574 C1557 0.930 . S
H1575 C1568 0.929 . S
H1576 C1584 0.929 . S
H1577 C1586 0.930 . S
H1578 C1588 0.930 . S
H1579 C1591 0.929 . S
H1580 C1594 0.930 . S
H1581 C1596 0.960 . S
H1582 C1596 0.960 . S
H1583 C1596 0.960 . S
C1584 H1576 0.929 . S
C1584 C1585 1.377 . S
C1584 C1586 1.384 . S
C1585 C1584 1.377 . S
C1585 C1591 1.390 . S
C1586 H1577 0.930 . S
C1586 C1584 1.384 . S
C1586 C1587 1.372 . S
C1587 C1586 1.372 . S
C1587 C1588 1.400 . S
C1587 C1592 1.490 . S
C1588 H1578 0.930 . S
C1588 C1587 1.400 . S
C1588 C1591 1.386 . S
H1589 C1605 0.930 . S
H1590 C1606 0.931 . S
C1591 H1579 0.929 . S
C1591 C1585 1.390 . S
C1591 C1588 1.386 . S
C1592 C1587 1.490 . S
C1592 C1594 1.395 . S
C1592 C1595 1.403 . S
H1593 C1599 0.930 . S
C1594 H1580 0.930 . S
C1594 C1592 1.395 . S
C1594 C1597 1.403 . S
C1595 C1592 1.403 . S
C1595 C1596 1.524 . S
C1595 C1599 1.400 . S
C1596 H1581 0.960 . S
C1596 H1582 0.960 . S
C1596 H1583 0.960 . S
C1596 C1595 1.524 . S
C1597 C1594 1.403 . S
C1597 C1598 1.392 . S
C1597 C1601 1.495 . S
C1598 C1597 1.392 . S
C1598 C1599 1.385 . S
C1598 C1600 1.478 . S
C1599 H1593 0.930 . S
C1599 C1595 1.400 . S
C1599 C1598 1.385 . S
C1600 C1598 1.478 . S
C1600 C1602 1.381 . S
C1600 C1606 1.383 . S
C1601 C1597 1.495 . S
C1601 H1607 0.959 . S
C1601 H1608 0.961 . S
C1601 H1609 0.960 . S
C1602 C1600 1.381 . S
C1602 C1603 1.394 . S
C1602 H1610 0.930 . S
C1603 C1602 1.394 . S
C1603 C1604 1.383 . S
C1603 H1611 0.929 . S
C1604 C1603 1.383 . S
C1604 C1605 1.377 . S
C1605 H1589 0.930 . S
C1605 C1604 1.377 . S
C1605 C1606 1.379 . S
C1606 H1590 0.931 . S
C1606 C1600 1.383 . S
C1606 C1605 1.379 . S
H1607 C1601 0.959 . S
H1608 C1601 0.961 . S
H1609 C1601 0.960 . S
H1610 C1602 0.930 . S
H1611 C1603 0.929 . S
H1612 C1620 0.929 . S
H1613 C1622 0.930 . S
H1614 C1624 0.930 . S
H1615 C1627 0.929 . S
H1616 C1630 0.930 . S
H1617 C1632 0.960 . S
H1618 C1632 0.960 . S
H1619 C1632 0.960 . S
C1620 H1612 0.929 . S
C1620 C1621 1.377 . S
C1620 C1622 1.384 . S
C1621 C1620 1.377 . S
C1621 C1627 1.390 . S
C1622 H1613 0.930 . S
C1622 C1620 1.384 . S
C1622 C1623 1.372 . S
C1623 C1622 1.372 . S
C1623 C1624 1.400 . S
C1623 C1628 1.490 . S
C1624 H1614 0.930 . S
C1624 C1623 1.400 . S
C1624 C1627 1.386 . S
H1625 C1641 0.930 . S
H1626 C1642 0.931 . S
C1627 H1615 0.929 . S
C1627 C1621 1.390 . S
C1627 C1624 1.386 . S
C1628 C1623 1.490 . S
C1628 C1630 1.395 . S
C1628 C1631 1.403 . S
H1629 C1635 0.930 . S
C1630 H1616 0.930 . S
C1630 C1628 1.395 . S
C1630 C1633 1.403 . S
C1631 C1628 1.403 . S
C1631 C1632 1.524 . S
C1631 C1635 1.400 . S
C1632 H1617 0.960 . S
C1632 H1618 0.960 . S
C1632 H1619 0.960 . S
C1632 C1631 1.524 . S
C1633 C1630 1.403 . S
C1633 C1634 1.392 . S
C1633 C1637 1.495 . S
C1634 C1633 1.392 . S
C1634 C1635 1.385 . S
C1634 C1636 1.478 . S
C1635 H1629 0.930 . S
C1635 C1631 1.400 . S
C1635 C1634 1.385 . S
C1636 C1634 1.478 . S
C1636 C1638 1.381 . S
C1636 C1642 1.383 . S
C1637 C1633 1.495 . S
C1637 H1643 0.959 . S
C1637 H1644 0.961 . S
C1637 H1645 0.960 . S
C1638 C1636 1.381 . S
C1638 C1639 1.394 . S
C1638 H1646 0.930 . S
C1639 C1638 1.394 . S
C1639 C1640 1.383 . S
C1639 H1647 0.929 . S
C1640 C1639 1.383 . S
C1640 C1641 1.377 . S
C1641 H1625 0.930 . S
C1641 C1640 1.377 . S
C1641 C1642 1.379 . S
C1642 H1626 0.931 . S
C1642 C1636 1.383 . S
C1642 C1641 1.379 . S
H1643 C1637 0.959 . S
H1644 C1637 0.961 . S
H1645 C1637 0.960 . S
H1646 C1638 0.930 . S
H1647 C1639 0.929 . S
H1648 C1656 0.929 . S
H1649 C1658 0.930 . S
H1650 C1660 0.930 . S
H1651 C1663 0.929 . S
H1652 C1666 0.930 . S
H1653 C1668 0.960 . S
H1654 C1668 0.960 . S
H1655 C1668 0.960 . S
C1656 H1648 0.929 . S
C1656 C1657 1.377 . S
C1656 C1658 1.384 . S
C1657 C1656 1.377 . S
C1657 C1663 1.390 . S
C1658 H1649 0.930 . S
C1658 C1656 1.384 . S
C1658 C1659 1.372 . S
C1659 C1658 1.372 . S
C1659 C1660 1.400 . S
C1659 C1664 1.490 . S
C1660 H1650 0.930 . S
C1660 C1659 1.400 . S
C1660 C1663 1.386 . S
H1661 C1677 0.930 . S
H1662 C1678 0.931 . S
C1663 H1651 0.929 . S
C1663 C1657 1.390 . S
C1663 C1660 1.386 . S
C1664 C1659 1.490 . S
C1664 C1666 1.395 . S
C1664 C1667 1.403 . S
H1665 C1671 0.930 . S
C1666 H1652 0.930 . S
C1666 C1664 1.395 . S
C1666 C1669 1.403 . S
C1667 C1664 1.403 . S
C1667 C1668 1.524 . S
C1667 C1671 1.400 . S
C1668 H1653 0.960 . S
C1668 H1654 0.960 . S
C1668 H1655 0.960 . S
C1668 C1667 1.524 . S
C1669 C1666 1.403 . S
C1669 C1670 1.392 . S
C1669 C1673 1.495 . S
C1670 C1669 1.392 . S
C1670 C1671 1.385 . S
C1670 C1672 1.478 . S
C1671 H1665 0.930 . S
C1671 C1667 1.400 . S
C1671 C1670 1.385 . S
C1672 C1670 1.478 . S
C1672 C1674 1.381 . S
C1672 C1678 1.383 . S
C1673 C1669 1.495 . S
C1673 H1679 0.959 . S
C1673 H1680 0.961 . S
C1673 H1681 0.960 . S
C1674 C1672 1.381 . S
C1674 C1675 1.394 . S
C1674 H1682 0.930 . S
C1675 C1674 1.394 . S
C1675 C1676 1.383 . S
C1675 H1683 0.929 . S
C1676 C1675 1.383 . S
C1676 C1677 1.377 . S
C1677 H1661 0.930 . S
C1677 C1676 1.377 . S
C1677 C1678 1.379 . S
C1678 H1662 0.931 . S
C1678 C1672 1.383 . S
C1678 C1677 1.379 . S
H1679 C1673 0.959 . S
H1680 C1673 0.961 . S
H1681 C1673 0.960 . S
H1682 C1674 0.930 . S
H1683 C1675 0.929 . S
H1684 C1692 0.929 . S
H1685 C1694 0.930 . S
H1686 C1696 0.930 . S
H1687 C1699 0.929 . S
H1688 C1702 0.930 . S
H1689 C1704 0.960 . S
H1690 C1704 0.960 . S
H1691 C1704 0.960 . S
C1692 H1684 0.929 . S
C1692 C1693 1.377 . S
C1692 C1694 1.384 . S
C1693 C1692 1.377 . S
C1693 C1699 1.390 . S
C1694 H1685 0.930 . S
C1694 C1692 1.384 . S
C1694 C1695 1.372 . S
C1695 C1694 1.372 . S
C1695 C1696 1.400 . S
C1695 C1700 1.490 . S
C1696 H1686 0.930 . S
C1696 C1695 1.400 . S
C1696 C1699 1.386 . S
H1697 C1713 0.930 . S
H1698 C1714 0.931 . S
C1699 H1687 0.929 . S
C1699 C1693 1.390 . S
C1699 C1696 1.386 . S
C1700 C1695 1.490 . S
C1700 C1702 1.395 . S
C1700 C1703 1.403 . S
H1701 C1707 0.930 . S
C1702 H1688 0.930 . S
C1702 C1700 1.395 . S
C1702 C1705 1.403 . S
C1703 C1700 1.403 . S
C1703 C1704 1.524 . S
C1703 C1707 1.400 . S
C1704 H1689 0.960 . S
C1704 H1690 0.960 . S
C1704 H1691 0.960 . S
C1704 C1703 1.524 . S
C1705 C1702 1.403 . S
C1705 C1706 1.392 . S
C1705 C1709 1.495 . S
C1706 C1705 1.392 . S
C1706 C1707 1.385 . S
C1706 C1708 1.478 . S
C1707 H1701 0.930 . S
C1707 C1703 1.400 . S
C1707 C1706 1.385 . S
C1708 C1706 1.478 . S
C1708 C1710 1.381 . S
C1708 C1714 1.383 . S
C1709 C1705 1.495 . S
C1709 H1715 0.959 . S
C1709 H1716 0.961 . S
C1709 H1717 0.960 . S
C1710 C1708 1.381 . S
C1710 C1711 1.394 . S
C1710 H1718 0.930 . S
C1711 C1710 1.394 . S
C1711 C1712 1.383 . S
C1711 H1719 0.929 . S
C1712 C1711 1.383 . S
C1712 C1713 1.377 . S
C1713 H1697 0.930 . S
C1713 C1712 1.377 . S
C1713 C1714 1.379 . S
C1714 H1698 0.931 . S
C1714 C1708 1.383 . S
C1714 C1713 1.379 . S
H1715 C1709 0.959 . S
H1716 C1709 0.961 . S
H1717 C1709 0.960 . S
H1718 C1710 0.930 . S
H1719 C1711 0.929 . S
H1720 C1728 0.929 . S
H1721 C1730 0.930 . S
H1722 C1732 0.930 . S
H1723 C1735 0.929 . S
H1724 C1738 0.930 . S
H1725 C1740 0.960 . S
H1726 C1740 0.960 . S
H1727 C1740 0.960 . S
C1728 H1720 0.929 . S
C1728 C1729 1.377 . S
C1728 C1730 1.384 . S
C1729 C1728 1.377 . S
C1729 C1735 1.390 . S
C1730 H1721 0.930 . S
C1730 C1728 1.384 . S
C1730 C1731 1.372 . S
C1731 C1730 1.372 . S
C1731 C1732 1.400 . S
C1731 C1736 1.490 . S
C1732 H1722 0.930 . S
C1732 C1731 1.400 . S
C1732 C1735 1.386 . S
H1733 C1749 0.930 . S
H1734 C1750 0.931 . S
C1735 H1723 0.929 . S
C1735 C1729 1.390 . S
C1735 C1732 1.386 . S
C1736 C1731 1.490 . S
C1736 C1738 1.395 . S
C1736 C1739 1.403 . S
H1737 C1743 0.930 . S
C1738 H1724 0.930 . S
C1738 C1736 1.395 . S
C1738 C1741 1.403 . S
C1739 C1736 1.403 . S
C1739 C1740 1.524 . S
C1739 C1743 1.400 . S
C1740 H1725 0.960 . S
C1740 H1726 0.960 . S
C1740 H1727 0.960 . S
C1740 C1739 1.524 . S
C1741 C1738 1.403 . S
C1741 C1742 1.392 . S
C1741 C1745 1.495 . S
C1742 C1741 1.392 . S
C1742 C1743 1.385 . S
C1742 C1744 1.478 . S
C1743 H1737 0.930 . S
C1743 C1739 1.400 . S
C1743 C1742 1.385 . S
C1744 C1742 1.478 . S
C1744 C1746 1.381 . S
C1744 C1750 1.383 . S
C1745 C1741 1.495 . S
C1745 H1751 0.959 . S
C1745 H1752 0.961 . S
C1745 H1753 0.960 . S
C1746 C1744 1.381 . S
C1746 C1747 1.394 . S
C1746 H1754 0.930 . S
C1747 C1746 1.394 . S
C1747 C1748 1.383 . S
C1747 H1755 0.929 . S
C1748 C1747 1.383 . S
C1748 C1749 1.377 . S
C1749 H1733 0.930 . S
C1749 C1748 1.377 . S
C1749 C1750 1.379 . S
C1750 H1734 0.931 . S
C1750 C1744 1.383 . S
C1750 C1749 1.379 . S
H1751 C1745 0.959 . S
H1752 C1745 0.961 . S
H1753 C1745 0.960 . S
H1754 C1746 0.930 . S
H1755 C1747 0.929 . S
H1756 C1764 0.929 . S
H1757 C1766 0.930 . S
H1758 C1768 0.930 . S
H1759 C1771 0.929 . S
H1760 C1774 0.930 . S
H1761 C1776 0.960 . S
H1762 C1776 0.960 . S
H1763 C1776 0.960 . S
C1764 H1756 0.929 . S
C1764 C1765 1.377 . S
C1764 C1766 1.384 . S
C1765 C1764 1.377 . S
C1765 C1771 1.390 . S
C1766 H1757 0.930 . S
C1766 C1764 1.384 . S
C1766 C1767 1.372 . S
C1767 C1766 1.372 . S
C1767 C1768 1.400 . S
C1767 C1772 1.490 . S
C1768 H1758 0.930 . S
C1768 C1767 1.400 . S
C1768 C1771 1.386 . S
H1769 C1785 0.930 . S
H1770 C1786 0.931 . S
C1771 H1759 0.929 . S
C1771 C1765 1.390 . S
C1771 C1768 1.386 . S
C1772 C1767 1.490 . S
C1772 C1774 1.395 . S
C1772 C1775 1.403 . S
H1773 C1779 0.930 . S
C1774 H1760 0.930 . S
C1774 C1772 1.395 . S
C1774 C1777 1.403 . S
C1775 C1772 1.403 . S
C1775 C1776 1.524 . S
C1775 C1779 1.400 . S
C1776 H1761 0.960 . S
C1776 H1762 0.960 . S
C1776 H1763 0.960 . S
C1776 C1775 1.524 . S
C1777 C1774 1.403 . S
C1777 C1778 1.392 . S
C1777 C1781 1.495 . S
C1778 C1777 1.392 . S
C1778 C1779 1.385 . S
C1778 C1780 1.478 . S
C1779 H1773 0.930 . S
C1779 C1775 1.400 . S
C1779 C1778 1.385 . S
C1780 C1778 1.478 . S
C1780 C1782 1.381 . S
C1780 C1786 1.383 . S
C1781 C1777 1.495 . S
C1781 H1787 0.959 . S
C1781 H1788 0.961 . S
C1781 H1789 0.960 . S
C1782 C1780 1.381 . S
C1782 C1783 1.394 . S
C1782 H1790 0.930 . S
C1783 C1782 1.394 . S
C1783 C1784 1.383 . S
C1783 H1791 0.929 . S
C1784 C1783 1.383 . S
C1784 C1785 1.377 . S
C1785 H1769 0.930 . S
C1785 C1784 1.377 . S
C1785 C1786 1.379 . S
C1786 H1770 0.931 . S
C1786 C1780 1.383 . S
C1786 C1785 1.379 . S
H1787 C1781 0.959 . S
H1788 C1781 0.961 . S
H1789 C1781 0.960 . S
H1790 C1782 0.930 . S
H1791 C1783 0.929 . S
H1792 C1800 0.929 . S
H1793 C1802 0.930 . S
H1794 C1804 0.930 . S
H1795 C1807 0.929 . S
H1796 C1810 0.930 . S
H1797 C1812 0.960 . S
H1798 C1812 0.960 . S
H1799 C1812 0.960 . S
C1800 H1792 0.929 . S
C1800 C1801 1.377 . S
C1800 C1802 1.384 . S
C1801 C1800 1.377 . S
C1801 C1807 1.390 . S
C1802 H1793 0.930 . S
C1802 C1800 1.384 . S
C1802 C1803 1.372 . S
C1803 C1802 1.372 . S
C1803 C1804 1.400 . S
C1803 C1808 1.490 . S
C1804 H1794 0.930 . S
C1804 C1803 1.400 . S
C1804 C1807 1.386 . S
H1805 C1821 0.930 . S
H1806 C1822 0.931 . S
C1807 H1795 0.929 . S
C1807 C1801 1.390 . S
C1807 C1804 1.386 . S
C1808 C1803 1.490 . S
C1808 C1810 1.395 . S
C1808 C1811 1.403 . S
H1809 C1815 0.930 . S
C1810 H1796 0.930 . S
C1810 C1808 1.395 . S
C1810 C1813 1.403 . S
C1811 C1808 1.403 . S
C1811 C1812 1.524 . S
C1811 C1815 1.400 . S
C1812 H1797 0.960 . S
C1812 H1798 0.960 . S
C1812 H1799 0.960 . S
C1812 C1811 1.524 . S
C1813 C1810 1.403 . S
C1813 C1814 1.392 . S
C1813 C1817 1.495 . S
C1814 C1813 1.392 . S
C1814 C1815 1.385 . S
C1814 C1816 1.478 . S
C1815 H1809 0.930 . S
C1815 C1811 1.400 . S
C1815 C1814 1.385 . S
C1816 C1814 1.478 . S
C1816 C1818 1.381 . S
C1816 C1822 1.383 . S
C1817 C1813 1.495 . S
C1817 H1823 0.959 . S
C1817 H1824 0.961 . S
C1817 H1825 0.960 . S
C1818 C1816 1.381 . S
C1818 C1819 1.394 . S
C1818 H1826 0.930 . S
C1819 C1818 1.394 . S
C1819 C1820 1.383 . S
C1819 H1827 0.929 . S
C1820 C1819 1.383 . S
C1820 C1821 1.377 . S
C1821 H1805 0.930 . S
C1821 C1820 1.377 . S
C1821 C1822 1.379 . S
C1822 H1806 0.931 . S
C1822 C1816 1.383 . S
C1822 C1821 1.379 . S
H1823 C1817 0.959 . S
H1824 C1817 0.961 . S
H1825 C1817 0.960 . S
H1826 C1818 0.930 . S
H1827 C1819 0.929 . S
H1828 C1836 0.929 . S
H1829 C1838 0.930 . S
H1830 C1840 0.930 . S
H1831 C1843 0.929 . S
H1832 C1846 0.930 . S
H1833 C1848 0.960 . S
H1834 C1848 0.960 . S
H1835 C1848 0.960 . S
C1836 H1828 0.929 . S
C1836 C1837 1.377 . S
C1836 C1838 1.384 . S
C1837 C1836 1.377 . S
C1837 C1843 1.390 . S
C1838 H1829 0.930 . S
C1838 C1836 1.384 . S
C1838 C1839 1.372 . S
C1839 C1838 1.372 . S
C1839 C1840 1.400 . S
C1839 C1844 1.490 . S
C1840 H1830 0.930 . S
C1840 C1839 1.400 . S
C1840 C1843 1.386 . S
H1841 C1857 0.930 . S
H1842 C1858 0.931 . S
C1843 H1831 0.929 . S
C1843 C1837 1.390 . S
C1843 C1840 1.386 . S
C1844 C1839 1.490 . S
C1844 C1846 1.395 . S
C1844 C1847 1.403 . S
H1845 C1851 0.930 . S
C1846 H1832 0.930 . S
C1846 C1844 1.395 . S
C1846 C1849 1.403 . S
C1847 C1844 1.403 . S
C1847 C1848 1.524 . S
C1847 C1851 1.400 . S
C1848 H1833 0.960 . S
C1848 H1834 0.960 . S
C1848 H1835 0.960 . S
C1848 C1847 1.524 . S
C1849 C1846 1.403 . S
C1849 C1850 1.392 . S
C1849 C1853 1.495 . S
C1850 C1849 1.392 . S
C1850 C1851 1.385 . S
C1850 C1852 1.478 . S
C1851 H1845 0.930 . S
C1851 C1847 1.400 . S
C1851 C1850 1.385 . S
C1852 C1850 1.478 . S
C1852 C1854 1.381 . S
C1852 C1858 1.383 . S
C1853 C1849 1.495 . S
C1853 H1859 0.959 . S
C1853 H1860 0.961 . S
C1853 H1861 0.960 . S
C1854 C1852 1.381 . S
C1854 C1855 1.394 . S
C1854 H1862 0.930 . S
C1855 C1854 1.394 . S
C1855 C1856 1.383 . S
C1855 H1863 0.929 . S
C1856 C1855 1.383 . S
C1856 C1857 1.377 . S
C1857 H1841 0.930 . S
C1857 C1856 1.377 . S
C1857 C1858 1.379 . S
C1858 H1842 0.931 . S
C1858 C1852 1.383 . S
C1858 C1857 1.379 . S
H1859 C1853 0.959 . S
H1860 C1853 0.961 . S
H1861 C1853 0.960 . S
H1862 C1854 0.930 . S
H1863 C1855 0.929 . S
H1864 C1872 0.929 . S
H1865 C1874 0.930 . S
H1866 C1876 0.930 . S
H1867 C1879 0.929 . S
H1868 C1882 0.930 . S
H1869 C1884 0.960 . S
H1870 C1884 0.960 . S
H1871 C1884 0.960 . S
C1872 H1864 0.929 . S
C1872 C1873 1.377 . S
C1872 C1874 1.384 . S
C1873 C1872 1.377 . S
C1873 C1879 1.390 . S
C1874 H1865 0.930 . S
C1874 C1872 1.384 . S
C1874 C1875 1.372 . S
C1875 C1874 1.372 . S
C1875 C1876 1.400 . S
C1875 C1880 1.490 . S
C1876 H1866 0.930 . S
C1876 C1875 1.400 . S
C1876 C1879 1.386 . S
H1877 C1893 0.930 . S
H1878 C1894 0.931 . S
C1879 H1867 0.929 . S
C1879 C1873 1.390 . S
C1879 C1876 1.386 . S
C1880 C1875 1.490 . S
C1880 C1882 1.395 . S
C1880 C1883 1.403 . S
H1881 C1887 0.930 . S
C1882 H1868 0.930 . S
C1882 C1880 1.395 . S
C1882 C1885 1.403 . S
C1883 C1880 1.403 . S
C1883 C1884 1.524 . S
C1883 C1887 1.400 . S
C1884 H1869 0.960 . S
C1884 H1870 0.960 . S
C1884 H1871 0.960 . S
C1884 C1883 1.524 . S
C1885 C1882 1.403 . S
C1885 C1886 1.392 . S
C1885 C1889 1.495 . S
C1886 C1885 1.392 . S
C1886 C1887 1.385 . S
C1886 C1888 1.478 . S
C1887 H1881 0.930 . S
C1887 C1883 1.400 . S
C1887 C1886 1.385 . S
C1888 C1886 1.478 . S
C1888 C1890 1.381 . S
C1888 C1894 1.383 . S
C1889 C1885 1.495 . S
C1889 H1895 0.959 . S
C1889 H1896 0.961 . S
C1889 H1897 0.960 . S
C1890 C1888 1.381 . S
C1890 C1891 1.394 . S
C1890 H1898 0.930 . S
C1891 C1890 1.394 . S
C1891 C1892 1.383 . S
C1891 H1899 0.929 . S
C1892 C1891 1.383 . S
C1892 C1893 1.377 . S
C1893 H1877 0.930 . S
C1893 C1892 1.377 . S
C1893 C1894 1.379 . S
C1894 H1878 0.931 . S
C1894 C1888 1.383 . S
C1894 C1893 1.379 . S
H1895 C1889 0.959 . S
H1896 C1889 0.961 . S
H1897 C1889 0.960 . S
H1898 C1890 0.930 . S
H1899 C1891 0.929 . S
H1900 C1908 0.929 . S
H1901 C1910 0.930 . S
H1902 C1912 0.930 . S
H1903 C1915 0.929 . S
H1904 C1918 0.930 . S
H1905 C1920 0.960 . S
H1906 C1920 0.960 . S
H1907 C1920 0.960 . S
C1908 H1900 0.929 . S
C1908 C1909 1.377 . S
C1908 C1910 1.384 . S
C1909 C1908 1.377 . S
C1909 C1915 1.390 . S
C1910 H1901 0.930 . S
C1910 C1908 1.384 . S
C1910 C1911 1.372 . S
C1911 C1910 1.372 . S
C1911 C1912 1.400 . S
C1911 C1916 1.490 . S
C1912 H1902 0.930 . S
C1912 C1911 1.400 . S
C1912 C1915 1.386 . S
H1913 C1929 0.930 . S
H1914 C1930 0.931 . S
C1915 H1903 0.929 . S
C1915 C1909 1.390 . S
C1915 C1912 1.386 . S
C1916 C1911 1.490 . S
C1916 C1918 1.395 . S
C1916 C1919 1.403 . S
H1917 C1923 0.930 . S
C1918 H1904 0.930 . S
C1918 C1916 1.395 . S
C1918 C1921 1.403 . S
C1919 C1916 1.403 . S
C1919 C1920 1.524 . S
C1919 C1923 1.400 . S
C1920 H1905 0.960 . S
C1920 H1906 0.960 . S
C1920 H1907 0.960 . S
C1920 C1919 1.524 . S
C1921 C1918 1.403 . S
C1921 C1922 1.392 . S
C1921 C1925 1.495 . S
C1922 C1921 1.392 . S
C1922 C1923 1.385 . S
C1922 C1924 1.478 . S
C1923 H1917 0.930 . S
C1923 C1919 1.400 . S
C1923 C1922 1.385 . S
C1924 C1922 1.478 . S
C1924 C1926 1.381 . S
C1924 C1930 1.383 . S
C1925 C1921 1.495 . S
C1925 H1931 0.959 . S
C1925 H1932 0.961 . S
C1925 H1933 0.960 . S
C1926 C1924 1.381 . S
C1926 C1927 1.394 . S
C1926 H1934 0.930 . S
C1927 C1926 1.394 . S
C1927 C1928 1.383 . S
C1927 H1935 0.929 . S
C1928 C1927 1.383 . S
C1928 C1929 1.377 . S
C1929 H1913 0.930 . S
C1929 C1928 1.377 . S
C1929 C1930 1.379 . S
C1930 H1914 0.931 . S
C1930 C1924 1.383 . S
C1930 C1929 1.379 . S
H1931 C1925 0.959 . S
H1932 C1925 0.961 . S
H1933 C1925 0.960 . S
H1934 C1926 0.930 . S
H1935 C1927 0.929 . S
H1936 C1944 0.929 . S
H1937 C1946 0.930 . S
H1938 C1948 0.930 . S
H1939 C1951 0.929 . S
H1940 C1954 0.930 . S
H1941 C1956 0.960 . S
H1942 C1956 0.960 . S
H1943 C1956 0.960 . S
C1944 H1936 0.929 . S
C1944 C1945 1.377 . S
C1944 C1946 1.384 . S
C1945 C1944 1.377 . S
C1945 C1951 1.390 . S
C1946 H1937 0.930 . S
C1946 C1944 1.384 . S
C1946 C1947 1.372 . S
C1947 C1946 1.372 . S
C1947 C1948 1.400 . S
C1947 C1952 1.490 . S
C1948 H1938 0.930 . S
C1948 C1947 1.400 . S
C1948 C1951 1.386 . S
H1949 C1965 0.930 . S
H1950 C1966 0.931 . S
C1951 H1939 0.929 . S
C1951 C1945 1.390 . S
C1951 C1948 1.386 . S
C1952 C1947 1.490 . S
C1952 C1954 1.395 . S
C1952 C1955 1.403 . S
H1953 C1959 0.930 . S
C1954 H1940 0.930 . S
C1954 C1952 1.395 . S
C1954 C1957 1.403 . S
C1955 C1952 1.403 . S
C1955 C1956 1.524 . S
C1955 C1959 1.400 . S
C1956 H1941 0.960 . S
C1956 H1942 0.960 . S
C1956 H1943 0.960 . S
C1956 C1955 1.524 . S
C1957 C1954 1.403 . S
C1957 C1958 1.392 . S
C1957 C1961 1.495 . S
C1958 C1957 1.392 . S
C1958 C1959 1.385 . S
C1958 C1960 1.478 . S
C1959 H1953 0.930 . S
C1959 C1955 1.400 . S
C1959 C1958 1.385 . S
C1960 C1958 1.478 . S
C1960 C1962 1.381 . S
C1960 C1966 1.383 . S
C1961 C1957 1.495 . S
C1961 H1967 0.959 . S
C1961 H1968 0.961 . S
C1961 H1969 0.960 . S
C1962 C1960 1.381 . S
C1962 C1963 1.394 . S
C1962 H1970 0.930 . S
C1963 C1962 1.394 . S
C1963 C1964 1.383 . S
C1963 H1971 0.929 . S
C1964 C1963 1.383 . S
C1964 C1965 1.377 . S
C1965 H1949 0.930 . S
C1965 C1964 1.377 . S
C1965 C1966 1.379 . S
C1966 H1950 0.931 . S
C1966 C1960 1.383 . S
C1966 C1965 1.379 . S
H1967 C1961 0.959 . S
H1968 C1961 0.961 . S
H1969 C1961 0.960 . S
H1970 C1962 0.930 . S
H1971 C1963 0.929 . S
H1972 C1980 0.929 . S
H1973 C1982 0.930 . S
H1974 C1984 0.930 . S
H1975 C1987 0.929 . S
H1976 C1990 0.930 . S
H1977 C1992 0.960 . S
H1978 C1992 0.960 . S
H1979 C1992 0.960 . S
C1980 H1972 0.929 . S
C1980 C1981 1.377 . S
C1980 C1982 1.384 . S
C1981 C1980 1.377 . S
C1981 C1987 1.390 . S
C1982 H1973 0.930 . S
C1982 C1980 1.384 . S
C1982 C1983 1.372 . S
C1983 C1982 1.372 . S
C1983 C1984 1.400 . S
C1983 C1988 1.490 . S
C1984 H1974 0.930 . S
C1984 C1983 1.400 . S
C1984 C1987 1.386 . S
H1985 C2001 0.930 . S
H1986 C2002 0.931 . S
C1987 H1975 0.929 . S
C1987 C1981 1.390 . S
C1987 C1984 1.386 . S
C1988 C1983 1.490 . S
C1988 C1990 1.395 . S
C1988 C1991 1.403 . S
H1989 C1995 0.930 . S
C1990 H1976 0.930 . S
C1990 C1988 1.395 . S
C1990 C1993 1.403 . S
C1991 C1988 1.403 . S
C1991 C1992 1.524 . S
C1991 C1995 1.400 . S
C1992 H1977 0.960 . S
C1992 H1978 0.960 . S
C1992 H1979 0.960 . S
C1992 C1991 1.524 . S
C1993 C1990 1.403 . S
C1993 C1994 1.392 . S
C1993 C1997 1.495 . S
C1994 C1993 1.392 . S
C1994 C1995 1.385 . S
C1994 C1996 1.478 . S
C1995 H1989 0.930 . S
C1995 C1991 1.400 . S
C1995 C1994 1.385 . S
C1996 C1994 1.478 . S
C1996 C1998 1.381 . S
C1996 C2002 1.383 . S
C1997 C1993 1.495 . S
C1997 H2003 0.959 . S
C1997 H2004 0.961 . S
C1997 H2005 0.960 . S
C1998 C1996 1.381 . S
C1998 C1999 1.394 . S
C1998 H2006 0.930 . S
C1999 C1998 1.394 . S
C1999 C2000 1.383 . S
C1999 H2007 0.929 . S
C2000 C1999 1.383 . S
C2000 C2001 1.377 . S
C2001 H1985 0.930 . S
C2001 C2000 1.377 . S
C2001 C2002 1.379 . S
C2002 H1986 0.931 . S
C2002 C1996 1.383 . S
C2002 C2001 1.379 . S
H2003 C1997 0.959 . S
H2004 C1997 0.961 . S
H2005 C1997 0.960 . S
H2006 C1998 0.930 . S
H2007 C1999 0.929 . S
H2008 C2016 0.929 . S
H2009 C2018 0.930 . S
H2010 C2020 0.930 . S
H2011 C2023 0.929 . S
H2012 C2026 0.930 . S
H2013 C2028 0.960 . S
H2014 C2028 0.960 . S
H2015 C2028 0.960 . S
C2016 H2008 0.929 . S
C2016 C2017 1.377 . S
C2016 C2018 1.384 . S
C2017 C2016 1.377 . S
C2017 C2023 1.390 . S
C2018 H2009 0.930 . S
C2018 C2016 1.384 . S
C2018 C2019 1.372 . S
C2019 C2018 1.372 . S
C2019 C2020 1.400 . S
C2019 C2024 1.490 . S
C2020 H2010 0.930 . S
C2020 C2019 1.400 . S
C2020 C2023 1.386 . S
H2021 C2037 0.930 . S
H2022 C2038 0.931 . S
C2023 H2011 0.929 . S
C2023 C2017 1.390 . S
C2023 C2020 1.386 . S
C2024 C2019 1.490 . S
C2024 C2026 1.395 . S
C2024 C2027 1.403 . S
H2025 C2031 0.930 . S
C2026 H2012 0.930 . S
C2026 C2024 1.395 . S
C2026 C2029 1.403 . S
C2027 C2024 1.403 . S
C2027 C2028 1.524 . S
C2027 C2031 1.400 . S
C2028 H2013 0.960 . S
C2028 H2014 0.960 . S
C2028 H2015 0.960 . S
C2028 C2027 1.524 . S
C2029 C2026 1.403 . S
C2029 C2030 1.392 . S
C2029 C2033 1.495 . S
C2030 C2029 1.392 . S
C2030 C2031 1.385 . S
C2030 C2032 1.478 . S
C2031 H2025 0.930 . S
C2031 C2027 1.400 . S
C2031 C2030 1.385 . S
C2032 C2030 1.478 . S
C2032 C2034 1.381 . S
C2032 C2038 1.383 . S
C2033 C2029 1.495 . S
C2033 H2039 0.959 . S
C2033 H2040 0.961 . S
C2033 H2041 0.960 . S
C2034 C2032 1.381 . S
C2034 C2035 1.394 . S
C2034 H2042 0.930 . S
C2035 C2034 1.394 . S
C2035 C2036 1.383 . S
C2035 H2043 0.929 . S
C2036 C2035 1.383 . S
C2036 C2037 1.377 . S
C2037 H2021 0.930 . S
C2037 C2036 1.377 . S
C2037 C2038 1.379 . S
C2038 H2022 0.931 . S
C2038 C2032 1.383 . S
C2038 C2037 1.379 . S
H2039 C2033 0.959 . S
H2040 C2033 0.961 . S
H2041 C2033 0.960 . S
H2042 C2034 0.930 . S
H2043 C2035 0.929 . S
H2044 C2052 0.929 . S
H2045 C2054 0.930 . S
H2046 C2056 0.930 . S
H2047 C2059 0.929 . S
H2048 C2062 0.930 . S
H2049 C2064 0.960 . S
H2050 C2064 0.960 . S
H2051 C2064 0.960 . S
C2052 H2044 0.929 . S
C2052 C2053 1.377 . S
C2052 C2054 1.384 . S
C2053 C2052 1.377 . S
C2053 C2059 1.390 . S
C2054 H2045 0.930 . S
C2054 C2052 1.384 . S
C2054 C2055 1.372 . S
C2055 C2054 1.372 . S
C2055 C2056 1.400 . S
C2055 C2060 1.490 . S
C2056 H2046 0.930 . S
C2056 C2055 1.400 . S
C2056 C2059 1.386 . S
H2057 C2073 0.930 . S
H2058 C2074 0.931 . S
C2059 H2047 0.929 . S
C2059 C2053 1.390 . S
C2059 C2056 1.386 . S
C2060 C2055 1.490 . S
C2060 C2062 1.395 . S
C2060 C2063 1.403 . S
H2061 C2067 0.930 . S
C2062 H2048 0.930 . S
C2062 C2060 1.395 . S
C2062 C2065 1.403 . S
C2063 C2060 1.403 . S
C2063 C2064 1.524 . S
C2063 C2067 1.400 . S
C2064 H2049 0.960 . S
C2064 H2050 0.960 . S
C2064 H2051 0.960 . S
C2064 C2063 1.524 . S
C2065 C2062 1.403 . S
C2065 C2066 1.392 . S
C2065 C2069 1.495 . S
C2066 C2065 1.392 . S
C2066 C2067 1.385 . S
C2066 C2068 1.478 . S
C2067 H2061 0.930 . S
C2067 C2063 1.400 . S
C2067 C2066 1.385 . S
C2068 C2066 1.478 . S
C2068 C2070 1.381 . S
C2068 C2074 1.383 . S
C2069 C2065 1.495 . S
C2069 H2075 0.959 . S
C2069 H2076 0.961 . S
C2069 H2077 0.960 . S
C2070 C2068 1.381 . S
C2070 C2071 1.394 . S
C2070 H2078 0.930 . S
C2071 C2070 1.394 . S
C2071 C2072 1.383 . S
C2071 H2079 0.929 . S
C2072 C2071 1.383 . S
C2072 C2073 1.377 . S
C2073 H2057 0.930 . S
C2073 C2072 1.377 . S
C2073 C2074 1.379 . S
C2074 H2058 0.931 . S
C2074 C2068 1.383 . S
C2074 C2073 1.379 . S
H2075 C2069 0.959 . S
H2076 C2069 0.961 . S
H2077 C2069 0.960 . S
H2078 C2070 0.930 . S
H2079 C2071 0.929 . S
H2080 C2088 0.929 . S
H2081 C2090 0.930 . S
H2082 C2092 0.930 . S
H2083 C2095 0.929 . S
H2084 C2098 0.930 . S
H2085 C2100 0.960 . S
H2086 C2100 0.960 . S
H2087 C2100 0.960 . S
C2088 H2080 0.929 . S
C2088 C2089 1.377 . S
C2088 C2090 1.384 . S
C2089 C2088 1.377 . S
C2089 C2095 1.390 . S
C2090 H2081 0.930 . S
C2090 C2088 1.384 . S
C2090 C2091 1.372 . S
C2091 C2090 1.372 . S
C2091 C2092 1.400 . S
C2091 C2096 1.490 . S
C2092 H2082 0.930 . S
C2092 C2091 1.400 . S
C2092 C2095 1.386 . S
H2093 C2109 0.930 . S
H2094 C2110 0.931 . S
C2095 H2083 0.929 . S
C2095 C2089 1.390 . S
C2095 C2092 1.386 . S
C2096 C2091 1.490 . S
C2096 C2098 1.395 . S
C2096 C2099 1.403 . S
H2097 C2103 0.930 . S
C2098 H2084 0.930 . S
C2098 C2096 1.395 . S
C2098 C2101 1.403 . S
C2099 C2096 1.403 . S
C2099 C2100 1.524 . S
C2099 C2103 1.400 . S
C2100 H2085 0.960 . S
C2100 H2086 0.960 . S
C2100 H2087 0.960 . S
C2100 C2099 1.524 . S
C2101 C2098 1.403 . S
C2101 C2102 1.392 . S
C2101 C2105 1.495 . S
C2102 C2101 1.392 . S
C2102 C2103 1.385 . S
C2102 C2104 1.478 . S
C2103 H2097 0.930 . S
C2103 C2099 1.400 . S
C2103 C2102 1.385 . S
C2104 C2102 1.478 . S
C2104 C2106 1.381 . S
C2104 C2110 1.383 . S
C2105 C2101 1.495 . S
C2105 H2111 0.959 . S
C2105 H2112 0.961 . S
C2105 H2113 0.960 . S
C2106 C2104 1.381 . S
C2106 C2107 1.394 . S
C2106 H2114 0.930 . S
C2107 C2106 1.394 . S
C2107 C2108 1.383 . S
C2107 H2115 0.929 . S
C2108 C2107 1.383 . S
C2108 C2109 1.377 . S
C2109 H2093 0.930 . S
C2109 C2108 1.377 . S
C2109 C2110 1.379 . S
C2110 H2094 0.931 . S
C2110 C2104 1.383 . S
C2110 C2109 1.379 . S
H2111 C2105 0.959 . S
H2112 C2105 0.961 . S
H2113 C2105 0.960 . S
H2114 C2106 0.930 . S
H2115 C2107 0.929 . S
H2116 C2124 0.929 . S
H2117 C2126 0.930 . S
H2118 C2128 0.930 . S
H2119 C2131 0.929 . S
H2120 C2134 0.930 . S
H2121 C2136 0.960 . S
H2122 C2136 0.960 . S
H2123 C2136 0.960 . S
C2124 H2116 0.929 . S
C2124 C2125 1.377 . S
C2124 C2126 1.384 . S
C2125 C2124 1.377 . S
C2125 C2131 1.390 . S
C2126 H2117 0.930 . S
C2126 C2124 1.384 . S
C2126 C2127 1.372 . S
C2127 C2126 1.372 . S
C2127 C2128 1.400 . S
C2127 C2132 1.490 . S
C2128 H2118 0.930 . S
C2128 C2127 1.400 . S
C2128 C2131 1.386 . S
H2129 C2145 0.930 . S
H2130 C2146 0.931 . S
C2131 H2119 0.929 . S
C2131 C2125 1.390 . S
C2131 C2128 1.386 . S
C2132 C2127 1.490 . S
C2132 C2134 1.395 . S
C2132 C2135 1.403 . S
H2133 C2139 0.930 . S
C2134 H2120 0.930 . S
C2134 C2132 1.395 . S
C2134 C2137 1.403 . S
C2135 C2132 1.403 . S
C2135 C2136 1.524 . S
C2135 C2139 1.400 . S
C2136 H2121 0.960 . S
C2136 H2122 0.960 . S
C2136 H2123 0.960 . S
C2136 C2135 1.524 . S
C2137 C2134 1.403 . S
C2137 C2138 1.392 . S
C2137 C2141 1.495 . S
C2138 C2137 1.392 . S
C2138 C2139 1.385 . S
C2138 C2140 1.478 . S
C2139 H2133 0.930 . S
C2139 C2135 1.400 . S
C2139 C2138 1.385 . S
C2140 C2138 1.478 . S
C2140 C2142 1.381 . S
C2140 C2146 1.383 . S
C2141 C2137 1.495 . S
C2141 H2147 0.959 . S
C2141 H2148 0.961 . S
C2141 H2149 0.960 . S
C2142 C2140 1.381 . S
C2142 C2143 1.394 . S
C2142 H2150 0.930 . S
C2143 C2142 1.394 . S
C2143 C2144 1.383 . S
C2143 H2151 0.929 . S
C2144 C2143 1.383 . S
C2144 C2145 1.377 . S
C2145 H2129 0.930 . S
C2145 C2144 1.377 . S
C2145 C2146 1.379 . S
C2146 H2130 0.931 . S
C2146 C2140 1.383 . S
C2146 C2145 1.379 . S
H2147 C2141 0.959 . S
H2148 C2141 0.961 . S
H2149 C2141 0.960 . S
H2150 C2142 0.930 . S
H2151 C2143 0.929 . S
H2152 C2160 0.929 . S
H2153 C2162 0.930 . S
H2154 C2164 0.930 . S
H2155 C2167 0.929 . S
H2156 C2170 0.930 . S
H2157 C2172 0.960 . S
H2158 C2172 0.960 . S
H2159 C2172 0.960 . S
C2160 H2152 0.929 . S
C2160 C2161 1.377 . S
C2160 C2162 1.384 . S
C2161 C2160 1.377 . S
C2161 C2167 1.390 . S
C2162 H2153 0.930 . S
C2162 C2160 1.384 . S
C2162 C2163 1.372 . S
C2163 C2162 1.372 . S
C2163 C2164 1.400 . S
C2163 C2168 1.490 . S
C2164 H2154 0.930 . S
C2164 C2163 1.400 . S
C2164 C2167 1.386 . S
H2165 C2181 0.930 . S
H2166 C2182 0.931 . S
C2167 H2155 0.929 . S
C2167 C2161 1.390 . S
C2167 C2164 1.386 . S
C2168 C2163 1.490 . S
C2168 C2170 1.395 . S
C2168 C2171 1.403 . S
H2169 C2175 0.930 . S
C2170 H2156 0.930 . S
C2170 C2168 1.395 . S
C2170 C2173 1.403 . S
C2171 C2168 1.403 . S
C2171 C2172 1.524 . S
C2171 C2175 1.400 . S
C2172 H2157 0.960 . S
C2172 H2158 0.960 . S
C2172 H2159 0.960 . S
C2172 C2171 1.524 . S
C2173 C2170 1.403 . S
C2173 C2174 1.392 . S
C2173 C2177 1.495 . S
C2174 C2173 1.392 . S
C2174 C2175 1.385 . S
C2174 C2176 1.478 . S
C2175 H2169 0.930 . S
C2175 C2171 1.400 . S
C2175 C2174 1.385 . S
C2176 C2174 1.478 . S
C2176 C2178 1.381 . S
C2176 C2182 1.383 . S
C2177 C2173 1.495 . S
C2177 H2183 0.959 . S
C2177 H2184 0.961 . S
C2177 H2185 0.960 . S
C2178 C2176 1.381 . S
C2178 C2179 1.394 . S
C2178 H2186 0.930 . S
C2179 C2178 1.394 . S
C2179 C2180 1.383 . S
C2179 H2187 0.929 . S
C2180 C2179 1.383 . S
C2180 C2181 1.377 . S
C2181 H2165 0.930 . S
C2181 C2180 1.377 . S
C2181 C2182 1.379 . S
C2182 H2166 0.931 . S
C2182 C2176 1.383 . S
C2182 C2181 1.379 . S
H2183 C2177 0.959 . S
H2184 C2177 0.961 . S
H2185 C2177 0.960 . S
H2186 C2178 0.930 . S
H2187 C2179 0.929 . S
H2188 C2196 0.929 . S
H2189 C2198 0.930 . S
H2190 C2200 0.930 . S
H2191 C2203 0.929 . S
H2192 C2206 0.930 . S
H2193 C2208 0.960 . S
H2194 C2208 0.960 . S
H2195 C2208 0.960 . S
C2196 H2188 0.929 . S
C2196 C2197 1.377 . S
C2196 C2198 1.384 . S
C2197 C2196 1.377 . S
C2197 C2203 1.390 . S
C2198 H2189 0.930 . S
C2198 C2196 1.384 . S
C2198 C2199 1.372 . S
C2199 C2198 1.372 . S
C2199 C2200 1.400 . S
C2199 C2204 1.490 . S
C2200 H2190 0.930 . S
C2200 C2199 1.400 . S
C2200 C2203 1.386 . S
H2201 C2217 0.930 . S
H2202 C2218 0.931 . S
C2203 H2191 0.929 . S
C2203 C2197 1.390 . S
C2203 C2200 1.386 . S
C2204 C2199 1.490 . S
C2204 C2206 1.395 . S
C2204 C2207 1.403 . S
H2205 C2211 0.930 . S
C2206 H2192 0.930 . S
C2206 C2204 1.395 . S
C2206 C2209 1.403 . S
C2207 C2204 1.403 . S
C2207 C2208 1.524 . S
C2207 C2211 1.400 . S
C2208 H2193 0.960 . S
C2208 H2194 0.960 . S
C2208 H2195 0.960 . S
C2208 C2207 1.524 . S
C2209 C2206 1.403 . S
C2209 C2210 1.392 . S
C2209 C2213 1.495 . S
C2210 C2209 1.392 . S
C2210 C2211 1.385 . S
C2210 C2212 1.478 . S
C2211 H2205 0.930 . S
C2211 C2207 1.400 . S
C2211 C2210 1.385 . S
C2212 C2210 1.478 . S
C2212 C2214 1.381 . S
C2212 C2218 1.383 . S
C2213 C2209 1.495 . S
C2213 H2219 0.959 . S
C2213 H2220 0.961 . S
C2213 H2221 0.960 . S
C2214 C2212 1.381 . S
C2214 C2215 1.394 . S
C2214 H2222 0.930 . S
C2215 C2214 1.394 . S
C2215 C2216 1.383 . S
C2215 H2223 0.929 . S
C2216 C2215 1.383 . S
C2216 C2217 1.377 . S
C2217 H2201 0.930 . S
C2217 C2216 1.377 . S
C2217 C2218 1.379 . S
C2218 H2202 0.931 . S
C2218 C2212 1.383 . S
C2218 C2217 1.379 . S
H2219 C2213 0.959 . S
H2220 C2213 0.961 . S
H2221 C2213 0.960 . S
H2222 C2214 0.930 . S
H2223 C2215 0.929 . S
H2224 C2232 0.929 . S
H2225 C2234 0.930 . S
H2226 C2236 0.930 . S
H2227 C2239 0.929 . S
H2228 C2242 0.930 . S
H2229 C2244 0.960 . S
H2230 C2244 0.960 . S
H2231 C2244 0.960 . S
C2232 H2224 0.929 . S
C2232 C2233 1.377 . S
C2232 C2234 1.384 . S
C2233 C2232 1.377 . S
C2233 C2239 1.390 . S
C2234 H2225 0.930 . S
C2234 C2232 1.384 . S
C2234 C2235 1.372 . S
C2235 C2234 1.372 . S
C2235 C2236 1.400 . S
C2235 C2240 1.490 . S
C2236 H2226 0.930 . S
C2236 C2235 1.400 . S
C2236 C2239 1.386 . S
H2237 C2253 0.930 . S
H2238 C2254 0.931 . S
C2239 H2227 0.929 . S
C2239 C2233 1.390 . S
C2239 C2236 1.386 . S
C2240 C2235 1.490 . S
C2240 C2242 1.395 . S
C2240 C2243 1.403 . S
H2241 C2247 0.930 . S
C2242 H2228 0.930 . S
C2242 C2240 1.395 . S
C2242 C2245 1.403 . S
C2243 C2240 1.403 . S
C2243 C2244 1.524 . S
C2243 C2247 1.400 . S
C2244 H2229 0.960 . S
C2244 H2230 0.960 . S
C2244 H2231 0.960 . S
C2244 C2243 1.524 . S
C2245 C2242 1.403 . S
C2245 C2246 1.392 . S
C2245 C2249 1.495 . S
C2246 C2245 1.392 . S
C2246 C2247 1.385 . S
C2246 C2248 1.478 . S
C2247 H2241 0.930 . S
C2247 C2243 1.400 . S
C2247 C2246 1.385 . S
C2248 C2246 1.478 . S
C2248 C2250 1.381 . S
C2248 C2254 1.383 . S
C2249 C2245 1.495 . S
C2249 H2255 0.959 . S
C2249 H2256 0.961 . S
C2249 H2257 0.960 . S
C2250 C2248 1.381 . S
C2250 C2251 1.394 . S
C2250 H2258 0.930 . S
C2251 C2250 1.394 . S
C2251 C2252 1.383 . S
C2251 H2259 0.929 . S
C2252 C2251 1.383 . S
C2252 C2253 1.377 . S
C2253 H2237 0.930 . S
C2253 C2252 1.377 . S
C2253 C2254 1.379 . S
C2254 H2238 0.931 . S
C2254 C2248 1.383 . S
C2254 C2253 1.379 . S
H2255 C2249 0.959 . S
H2256 C2249 0.961 . S
H2257 C2249 0.960 . S
H2258 C2250 0.930 . S
H2259 C2251 0.929 . S
H2260 C2268 0.929 . S
H2261 C2270 0.930 . S
H2262 C2272 0.930 . S
H2263 C2275 0.929 . S
H2264 C2278 0.930 . S
H2265 C2280 0.960 . S
H2266 C2280 0.960 . S
H2267 C2280 0.960 . S
C2268 H2260 0.929 . S
C2268 C2269 1.377 . S
C2268 C2270 1.384 . S
C2269 C2268 1.377 . S
C2269 C2275 1.390 . S
C2270 H2261 0.930 . S
C2270 C2268 1.384 . S
C2270 C2271 1.372 . S
C2271 C2270 1.372 . S
C2271 C2272 1.400 . S
C2271 C2276 1.490 . S
C2272 H2262 0.930 . S
C2272 C2271 1.400 . S
C2272 C2275 1.386 . S
H2273 C2289 0.930 . S
H2274 C2290 0.931 . S
C2275 H2263 0.929 . S
C2275 C2269 1.390 . S
C2275 C2272 1.386 . S
C2276 C2271 1.490 . S
C2276 C2278 1.395 . S
C2276 C2279 1.403 . S
H2277 C2283 0.930 . S
C2278 H2264 0.930 . S
C2278 C2276 1.395 . S
C2278 C2281 1.403 . S
C2279 C2276 1.403 . S
C2279 C2280 1.524 . S
C2279 C2283 1.400 . S
C2280 H2265 0.960 . S
C2280 H2266 0.960 . S
C2280 H2267 0.960 . S
C2280 C2279 1.524 . S
C2281 C2278 1.403 . S
C2281 C2282 1.392 . S
C2281 C2285 1.495 . S
C2282 C2281 1.392 . S
C2282 C2283 1.385 . S
C2282 C2284 1.478 . S
C2283 H2277 0.930 . S
C2283 C2279 1.400 . S
C2283 C2282 1.385 . S
C2284 C2282 1.478 . S
C2284 C2286 1.381 . S
C2284 C2290 1.383 . S
C2285 C2281 1.495 . S
C2285 H2291 0.959 . S
C2285 H2292 0.961 . S
C2285 H2293 0.960 . S
C2286 C2284 1.381 . S
C2286 C2287 1.394 . S
C2286 H2294 0.930 . S
C2287 C2286 1.394 . S
C2287 C2288 1.383 . S
C2287 H2295 0.929 . S
C2288 C2287 1.383 . S
C2288 C2289 1.377 . S
C2289 H2273 0.930 . S
C2289 C2288 1.377 . S
C2289 C2290 1.379 . S
C2290 H2274 0.931 . S
C2290 C2284 1.383 . S
C2290 C2289 1.379 . S
H2291 C2285 0.959 . S
H2292 C2285 0.961 . S
H2293 C2285 0.960 . S
H2294 C2286 0.930 . S
H2295 C2287 0.929 . S
H2296 C2304 0.929 . S
H2297 C2306 0.930 . S
H2298 C2308 0.930 . S
H2299 C2311 0.929 . S
H2300 C2314 0.930 . S
H2301 C2316 0.960 . S
H2302 C2316 0.960 . S
H2303 C2316 0.960 . S
C2304 H2296 0.929 . S
C2304 C2305 1.377 . S
C2304 C2306 1.384 . S
C2305 C2304 1.377 . S
C2305 C2311 1.390 . S
C2306 H2297 0.930 . S
C2306 C2304 1.384 . S
C2306 C2307 1.372 . S
C2307 C2306 1.372 . S
C2307 C2308 1.400 . S
C2307 C2312 1.490 . S
C2308 H2298 0.930 . S
C2308 C2307 1.400 . S
C2308 C2311 1.386 . S
H2309 C2325 0.930 . S
H2310 C2326 0.931 . S
C2311 H2299 0.929 . S
C2311 C2305 1.390 . S
C2311 C2308 1.386 . S
C2312 C2307 1.490 . S
C2312 C2314 1.395 . S
C2312 C2315 1.403 . S
H2313 C2319 0.930 . S
C2314 H2300 0.930 . S
C2314 C2312 1.395 . S
C2314 C2317 1.403 . S
C2315 C2312 1.403 . S
C2315 C2316 1.524 . S
C2315 C2319 1.400 . S
C2316 H2301 0.960 . S
C2316 H2302 0.960 . S
C2316 H2303 0.960 . S
C2316 C2315 1.524 . S
C2317 C2314 1.403 . S
C2317 C2318 1.392 . S
C2317 C2321 1.495 . S
C2318 C2317 1.392 . S
C2318 C2319 1.385 . S
C2318 C2320 1.478 . S
C2319 H2313 0.930 . S
C2319 C2315 1.400 . S
C2319 C2318 1.385 . S
C2320 C2318 1.478 . S
C2320 C2322 1.381 . S
C2320 C2326 1.383 . S
C2321 C2317 1.495 . S
C2321 H2327 0.959 . S
C2321 H2328 0.961 . S
C2321 H2329 0.960 . S
C2322 C2320 1.381 . S
C2322 C2323 1.394 . S
C2322 H2330 0.930 . S
C2323 C2322 1.394 . S
C2323 C2324 1.383 . S
C2323 H2331 0.929 . S
C2324 C2323 1.383 . S
C2324 C2325 1.377 . S
C2325 H2309 0.930 . S
C2325 C2324 1.377 . S
C2325 C2326 1.379 . S
C2326 H2310 0.931 . S
C2326 C2320 1.383 . S
C2326 C2325 1.379 . S
H2327 C2321 0.959 . S
H2328 C2321 0.961 . S
H2329 C2321 0.960 . S
H2330 C2322 0.930 . S
H2331 C2323 0.929 . S
H2332 C2340 0.929 . S
H2333 C2342 0.930 . S
H2334 C2344 0.930 . S
H2335 C2347 0.929 . S
H2336 C2350 0.930 . S
H2337 C2352 0.960 . S
H2338 C2352 0.960 . S
H2339 C2352 0.960 . S
C2340 H2332 0.929 . S
C2340 C2341 1.377 . S
C2340 C2342 1.384 . S
C2341 C2340 1.377 . S
C2341 C2347 1.390 . S
C2342 H2333 0.930 . S
C2342 C2340 1.384 . S
C2342 C2343 1.372 . S
C2343 C2342 1.372 . S
C2343 C2344 1.400 . S
C2343 C2348 1.490 . S
C2344 H2334 0.930 . S
C2344 C2343 1.400 . S
C2344 C2347 1.386 . S
H2345 C2361 0.930 . S
H2346 C2362 0.931 . S
C2347 H2335 0.929 . S
C2347 C2341 1.390 . S
C2347 C2344 1.386 . S
C2348 C2343 1.490 . S
C2348 C2350 1.395 . S
C2348 C2351 1.403 . S
H2349 C2355 0.930 . S
C2350 H2336 0.930 . S
C2350 C2348 1.395 . S
C2350 C2353 1.403 . S
C2351 C2348 1.403 . S
C2351 C2352 1.524 . S
C2351 C2355 1.400 . S
C2352 H2337 0.960 . S
C2352 H2338 0.960 . S
C2352 H2339 0.960 . S
C2352 C2351 1.524 . S
C2353 C2350 1.403 . S
C2353 C2354 1.392 . S
C2353 C2357 1.495 . S
C2354 C2353 1.392 . S
C2354 C2355 1.385 . S
C2354 C2356 1.478 . S
C2355 H2349 0.930 . S
C2355 C2351 1.400 . S
C2355 C2354 1.385 . S
C2356 C2354 1.478 . S
C2356 C2358 1.381 . S
C2356 C2362 1.383 . S
C2357 C2353 1.495 . S
C2357 H2363 0.959 . S
C2357 H2364 0.961 . S
C2357 H2365 0.960 . S
C2358 C2356 1.381 . S
C2358 C2359 1.394 . S
C2358 H2366 0.930 . S
C2359 C2358 1.394 . S
C2359 C2360 1.383 . S
C2359 H2367 0.929 . S
C2360 C2359 1.383 . S
C2360 C2361 1.377 . S
C2361 H2345 0.930 . S
C2361 C2360 1.377 . S
C2361 C2362 1.379 . S
C2362 H2346 0.931 . S
C2362 C2356 1.383 . S
C2362 C2361 1.379 . S
H2363 C2357 0.959 . S
H2364 C2357 0.961 . S
H2365 C2357 0.960 . S
H2366 C2358 0.930 . S
H2367 C2359 0.929 . S
H2368 C2376 0.929 . S
H2369 C2378 0.930 . S
H2370 C2380 0.930 . S
H2371 C2383 0.929 . S
H2372 C2386 0.930 . S
H2373 C2388 0.960 . S
H2374 C2388 0.960 . S
H2375 C2388 0.960 . S
C2376 H2368 0.929 . S
C2376 C2377 1.377 . S
C2376 C2378 1.384 . S
C2377 C2376 1.377 . S
C2377 C2383 1.390 . S
C2378 H2369 0.930 . S
C2378 C2376 1.384 . S
C2378 C2379 1.372 . S
C2379 C2378 1.372 . S
C2379 C2380 1.400 . S
C2379 C2384 1.490 . S
C2380 H2370 0.930 . S
C2380 C2379 1.400 . S
C2380 C2383 1.386 . S
H2381 C2397 0.930 . S
H2382 C2398 0.931 . S
C2383 H2371 0.929 . S
C2383 C2377 1.390 . S
C2383 C2380 1.386 . S
C2384 C2379 1.490 . S
C2384 C2386 1.395 . S
C2384 C2387 1.403 . S
H2385 C2391 0.930 . S
C2386 H2372 0.930 . S
C2386 C2384 1.395 . S
C2386 C2389 1.403 . S
C2387 C2384 1.403 . S
C2387 C2388 1.524 . S
C2387 C2391 1.400 . S
C2388 H2373 0.960 . S
C2388 H2374 0.960 . S
C2388 H2375 0.960 . S
C2388 C2387 1.524 . S
C2389 C2386 1.403 . S
C2389 C2390 1.392 . S
C2389 C2393 1.495 . S
C2390 C2389 1.392 . S
C2390 C2391 1.385 . S
C2390 C2392 1.478 . S
C2391 H2385 0.930 . S
C2391 C2387 1.400 . S
C2391 C2390 1.385 . S
C2392 C2390 1.478 . S
C2392 C2394 1.381 . S
C2392 C2398 1.383 . S
C2393 C2389 1.495 . S
C2393 H2399 0.959 . S
C2393 H2400 0.961 . S
C2393 H2401 0.960 . S
C2394 C2392 1.381 . S
C2394 C2395 1.394 . S
C2394 H2402 0.930 . S
C2395 C2394 1.394 . S
C2395 C2396 1.383 . S
C2395 H2403 0.929 . S
C2396 C2395 1.383 . S
C2396 C2397 1.377 . S
C2397 H2381 0.930 . S
C2397 C2396 1.377 . S
C2397 C2398 1.379 . S
C2398 H2382 0.931 . S
C2398 C2392 1.383 . S
C2398 C2397 1.379 . S
H2399 C2393 0.959 . S
H2400 C2393 0.961 . S
H2401 C2393 0.960 . S
H2402 C2394 0.930 . S
H2403 C2395 0.929 . S
H2404 C2412 0.929 . S
H2405 C2414 0.930 . S
H2406 C2416 0.930 . S
H2407 C2419 0.929 . S
H2408 C2422 0.930 . S
H2409 C2424 0.960 . S
H2410 C2424 0.960 . S
H2411 C2424 0.960 . S
C2412 H2404 0.929 . S
C2412 C2413 1.377 . S
C2412 C2414 1.384 . S
C2413 C2412 1.377 . S
C2413 C2419 1.390 . S
C2414 H2405 0.930 . S
C2414 C2412 1.384 . S
C2414 C2415 1.372 . S
C2415 C2414 1.372 . S
C2415 C2416 1.400 . S
C2415 C2420 1.490 . S
C2416 H2406 0.930 . S
C2416 C2415 1.400 . S
C2416 C2419 1.386 . S
H2417 C2433 0.930 . S
H2418 C2434 0.931 . S
C2419 H2407 0.929 . S
C2419 C2413 1.390 . S
C2419 C2416 1.386 . S
C2420 C2415 1.490 . S
C2420 C2422 1.395 . S
C2420 C2423 1.403 . S
H2421 C2427 0.930 . S
C2422 H2408 0.930 . S
C2422 C2420 1.395 . S
C2422 C2425 1.403 . S
C2423 C2420 1.403 . S
C2423 C2424 1.524 . S
C2423 C2427 1.400 . S
C2424 H2409 0.960 . S
C2424 H2410 0.960 . S
C2424 H2411 0.960 . S
C2424 C2423 1.524 . S
C2425 C2422 1.403 . S
C2425 C2426 1.392 . S
C2425 C2429 1.495 . S
C2426 C2425 1.392 . S
C2426 C2427 1.385 . S
C2426 C2428 1.478 . S
C2427 H2421 0.930 . S
C2427 C2423 1.400 . S
C2427 C2426 1.385 . S
C2428 C2426 1.478 . S
C2428 C2430 1.381 . S
C2428 C2434 1.383 . S
C2429 C2425 1.495 . S
C2429 H2435 0.959 . S
C2429 H2436 0.961 . S
C2429 H2437 0.960 . S
C2430 C2428 1.381 . S
C2430 C2431 1.394 . S
C2430 H2438 0.930 . S
C2431 C2430 1.394 . S
C2431 C2432 1.383 . S
C2431 H2439 0.929 . S
C2432 C2431 1.383 . S
C2432 C2433 1.377 . S
C2433 H2417 0.930 . S
C2433 C2432 1.377 . S
C2433 C2434 1.379 . S
C2434 H2418 0.931 . S
C2434 C2428 1.383 . S
C2434 C2433 1.379 . S
H2435 C2429 0.959 . S
H2436 C2429 0.961 . S
H2437 C2429 0.960 . S
H2438 C2430 0.930 . S
H2439 C2431 0.929 . S
H2440 C2448 0.929 . S
H2441 C2450 0.930 . S
H2442 C2452 0.930 . S
H2443 C2455 0.929 . S
H2444 C2458 0.930 . S
H2445 C2460 0.960 . S
H2446 C2460 0.960 . S
H2447 C2460 0.960 . S
C2448 H2440 0.929 . S
C2448 C2449 1.377 . S
C2448 C2450 1.384 . S
C2449 C2448 1.377 . S
C2449 C2455 1.390 . S
C2450 H2441 0.930 . S
C2450 C2448 1.384 . S
C2450 C2451 1.372 . S
C2451 C2450 1.372 . S
C2451 C2452 1.400 . S
C2451 C2456 1.490 . S
C2452 H2442 0.930 . S
C2452 C2451 1.400 . S
C2452 C2455 1.386 . S
H2453 C2469 0.930 . S
H2454 C2470 0.931 . S
C2455 H2443 0.929 . S
C2455 C2449 1.390 . S
C2455 C2452 1.386 . S
C2456 C2451 1.490 . S
C2456 C2458 1.395 . S
C2456 C2459 1.403 . S
H2457 C2463 0.930 . S
C2458 H2444 0.930 . S
C2458 C2456 1.395 . S
C2458 C2461 1.403 . S
C2459 C2456 1.403 . S
C2459 C2460 1.524 . S
C2459 C2463 1.400 . S
C2460 H2445 0.960 . S
C2460 H2446 0.960 . S
C2460 H2447 0.960 . S
C2460 C2459 1.524 . S
C2461 C2458 1.403 . S
C2461 C2462 1.392 . S
C2461 C2465 1.495 . S
C2462 C2461 1.392 . S
C2462 C2463 1.385 . S
C2462 C2464 1.478 . S
C2463 H2457 0.930 . S
C2463 C2459 1.400 . S
C2463 C2462 1.385 . S
C2464 C2462 1.478 . S
C2464 C2466 1.381 . S
C2464 C2470 1.383 . S
C2465 C2461 1.495 . S
C2465 H2471 0.959 . S
C2465 H2472 0.961 . S
C2465 H2473 0.960 . S
C2466 C2464 1.381 . S
C2466 C2467 1.394 . S
C2466 H2474 0.930 . S
C2467 C2466 1.394 . S
C2467 C2468 1.383 . S
C2467 H2475 0.929 . S
C2468 C2467 1.383 . S
C2468 C2469 1.377 . S
C2469 H2453 0.930 . S
C2469 C2468 1.377 . S
C2469 C2470 1.379 . S
C2470 H2454 0.931 . S
C2470 C2464 1.383 . S
C2470 C2469 1.379 . S
H2471 C2465 0.959 . S
H2472 C2465 0.961 . S
H2473 C2465 0.960 . S
H2474 C2466 0.930 . S
H2475 C2467 0.929 . S
H2476 C2484 0.929 . S
H2477 C2486 0.930 . S
H2478 C2488 0.930 . S
H2479 C2491 0.929 . S
H2480 C2494 0.930 . S
H2481 C2496 0.960 . S
H2482 C2496 0.960 . S
H2483 C2496 0.960 . S
C2484 H2476 0.929 . S
C2484 C2485 1.377 . S
C2484 C2486 1.384 . S
C2485 C2484 1.377 . S
C2485 C2491 1.390 . S
C2486 H2477 0.930 . S
C2486 C2484 1.384 . S
C2486 C2487 1.372 . S
C2487 C2486 1.372 . S
C2487 C2488 1.400 . S
C2487 C2492 1.490 . S
C2488 H2478 0.930 . S
C2488 C2487 1.400 . S
C2488 C2491 1.386 . S
H2489 C2505 0.930 . S
H2490 C2506 0.931 . S
C2491 H2479 0.929 . S
C2491 C2485 1.390 . S
C2491 C2488 1.386 . S
C2492 C2487 1.490 . S
C2492 C2494 1.395 . S
C2492 C2495 1.403 . S
H2493 C2499 0.930 . S
C2494 H2480 0.930 . S
C2494 C2492 1.395 . S
C2494 C2497 1.403 . S
C2495 C2492 1.403 . S
C2495 C2496 1.524 . S
C2495 C2499 1.400 . S
C2496 H2481 0.960 . S
C2496 H2482 0.960 . S
C2496 H2483 0.960 . S
C2496 C2495 1.524 . S
C2497 C2494 1.403 . S
C2497 C2498 1.392 . S
C2497 C2501 1.495 . S
C2498 C2497 1.392 . S
C2498 C2499 1.385 . S
C2498 C2500 1.478 . S
C2499 H2493 0.930 . S
C2499 C2495 1.400 . S
C2499 C2498 1.385 . S
C2500 C2498 1.478 . S
C2500 C2502 1.381 . S
C2500 C2506 1.383 . S
C2501 C2497 1.495 . S
C2501 H2507 0.959 . S
C2501 H2508 0.961 . S
C2501 H2509 0.960 . S
C2502 C2500 1.381 . S
C2502 C2503 1.394 . S
C2502 H2510 0.930 . S
C2503 C2502 1.394 . S
C2503 C2504 1.383 . S
C2503 H2511 0.929 . S
C2504 C2503 1.383 . S
C2504 C2505 1.377 . S
C2505 H2489 0.930 . S
C2505 C2504 1.377 . S
C2505 C2506 1.379 . S
C2506 H2490 0.931 . S
C2506 C2500 1.383 . S
C2506 C2505 1.379 . S
H2507 C2501 0.959 . S
H2508 C2501 0.961 . S
H2509 C2501 0.960 . S
H2510 C2502 0.930 . S
H2511 C2503 0.929 . S
H2512 C2520 0.929 . S
H2513 C2522 0.930 . S
H2514 C2524 0.930 . S
H2515 C2527 0.929 . S
H2516 C2530 0.930 . S
H2517 C2532 0.960 . S
H2518 C2532 0.960 . S
H2519 C2532 0.960 . S
C2520 H2512 0.929 . S
C2520 C2521 1.377 . S
C2520 C2522 1.384 . S
C2521 C2520 1.377 . S
C2521 C2527 1.390 . S
C2522 H2513 0.930 . S
C2522 C2520 1.384 . S
C2522 C2523 1.372 . S
C2523 C2522 1.372 . S
C2523 C2524 1.400 . S
C2523 C2528 1.490 . S
C2524 H2514 0.930 . S
C2524 C2523 1.400 . S
C2524 C2527 1.386 . S
H2525 C2541 0.930 . S
H2526 C2542 0.931 . S
C2527 H2515 0.929 . S
C2527 C2521 1.390 . S
C2527 C2524 1.386 . S
C2528 C2523 1.490 . S
C2528 C2530 1.395 . S
C2528 C2531 1.403 . S
H2529 C2535 0.930 . S
C2530 H2516 0.930 . S
C2530 C2528 1.395 . S
C2530 C2533 1.403 . S
C2531 C2528 1.403 . S
C2531 C2532 1.524 . S
C2531 C2535 1.400 . S
C2532 H2517 0.960 . S
C2532 H2518 0.960 . S
C2532 H2519 0.960 . S
C2532 C2531 1.524 . S
C2533 C2530 1.403 . S
C2533 C2534 1.392 . S
C2533 C2537 1.495 . S
C2534 C2533 1.392 . S
C2534 C2535 1.385 . S
C2534 C2536 1.478 . S
C2535 H2529 0.930 . S
C2535 C2531 1.400 . S
C2535 C2534 1.385 . S
C2536 C2534 1.478 . S
C2536 C2538 1.381 . S
C2536 C2542 1.383 . S
C2537 C2533 1.495 . S
C2537 H2543 0.959 . S
C2537 H2544 0.961 . S
C2537 H2545 0.960 . S
C2538 C2536 1.381 . S
C2538 C2539 1.394 . S
C2538 H2546 0.930 . S
C2539 C2538 1.394 . S
C2539 C2540 1.383 . S
C2539 H2547 0.929 . S
C2540 C2539 1.383 . S
C2540 C2541 1.377 . S
C2541 H2525 0.930 . S
C2541 C2540 1.377 . S
C2541 C2542 1.379 . S
C2542 H2526 0.931 . S
C2542 C2536 1.383 . S
C2542 C2541 1.379 . S
H2543 C2537 0.959 . S
H2544 C2537 0.961 . S
H2545 C2537 0.960 . S
H2546 C2538 0.930 . S
H2547 C2539 0.929 . S
H2548 C2556 0.929 . S
H2549 C2558 0.930 . S
H2550 C2560 0.930 . S
H2551 C2563 0.929 . S
H2552 C2566 0.930 . S
H2553 C2568 0.960 . S
H2554 C2568 0.960 . S
H2555 C2568 0.960 . S
C2556 H2548 0.929 . S
C2556 C2557 1.377 . S
C2556 C2558 1.384 . S
C2557 C2556 1.377 . S
C2557 C2563 1.390 . S
C2558 H2549 0.930 . S
C2558 C2556 1.384 . S
C2558 C2559 1.372 . S
C2559 C2558 1.372 . S
C2559 C2560 1.400 . S
C2559 C2564 1.490 . S
C2560 H2550 0.930 . S
C2560 C2559 1.400 . S
C2560 C2563 1.386 . S
H2561 C2577 0.930 . S
H2562 C2578 0.931 . S
C2563 H2551 0.929 . S
C2563 C2557 1.390 . S
C2563 C2560 1.386 . S
C2564 C2559 1.490 . S
C2564 C2566 1.395 . S
C2564 C2567 1.403 . S
H2565 C2571 0.930 . S
C2566 H2552 0.930 . S
C2566 C2564 1.395 . S
C2566 C2569 1.403 . S
C2567 C2564 1.403 . S
C2567 C2568 1.524 . S
C2567 C2571 1.400 . S
C2568 H2553 0.960 . S
C2568 H2554 0.960 . S
C2568 H2555 0.960 . S
C2568 C2567 1.524 . S
C2569 C2566 1.403 . S
C2569 C2570 1.392 . S
C2569 C2573 1.495 . S
C2570 C2569 1.392 . S
C2570 C2571 1.385 . S
C2570 C2572 1.478 . S
C2571 H2565 0.930 . S
C2571 C2567 1.400 . S
C2571 C2570 1.385 . S
C2572 C2570 1.478 . S
C2572 C2574 1.381 . S
C2572 C2578 1.383 . S
C2573 C2569 1.495 . S
C2573 H2579 0.959 . S
C2573 H2580 0.961 . S
C2573 H2581 0.960 . S
C2574 C2572 1.381 . S
C2574 C2575 1.394 . S
C2574 H2582 0.930 . S
C2575 C2574 1.394 . S
C2575 C2576 1.383 . S
C2575 H2583 0.929 . S
C2576 C2575 1.383 . S
C2576 C2577 1.377 . S
C2577 H2561 0.930 . S
C2577 C2576 1.377 . S
C2577 C2578 1.379 . S
C2578 H2562 0.931 . S
C2578 C2572 1.383 . S
C2578 C2577 1.379 . S
H2579 C2573 0.959 . S
H2580 C2573 0.961 . S
H2581 C2573 0.960 . S
H2582 C2574 0.930 . S
H2583 C2575 0.929 . S
H2584 C2592 0.929 . S
H2585 C2594 0.930 . S
H2586 C2596 0.930 . S
H2587 C2599 0.929 . S
H2588 C2602 0.930 . S
H2589 C2604 0.960 . S
H2590 C2604 0.960 . S
H2591 C2604 0.960 . S
C2592 H2584 0.929 . S
C2592 C2593 1.377 . S
C2592 C2594 1.384 . S
C2593 C2592 1.377 . S
C2593 C2599 1.390 . S
C2594 H2585 0.930 . S
C2594 C2592 1.384 . S
C2594 C2595 1.372 . S
C2595 C2594 1.372 . S
C2595 C2596 1.400 . S
C2595 C2600 1.490 . S
C2596 H2586 0.930 . S
C2596 C2595 1.400 . S
C2596 C2599 1.386 . S
H2597 C2613 0.930 . S
H2598 C2614 0.931 . S
C2599 H2587 0.929 . S
C2599 C2593 1.390 . S
C2599 C2596 1.386 . S
C2600 C2595 1.490 . S
C2600 C2602 1.395 . S
C2600 C2603 1.403 . S
H2601 C2607 0.930 . S
C2602 H2588 0.930 . S
C2602 C2600 1.395 . S
C2602 C2605 1.403 . S
C2603 C2600 1.403 . S
C2603 C2604 1.524 . S
C2603 C2607 1.400 . S
C2604 H2589 0.960 . S
C2604 H2590 0.960 . S
C2604 H2591 0.960 . S
C2604 C2603 1.524 . S
C2605 C2602 1.403 . S
C2605 C2606 1.392 . S
C2605 C2609 1.495 . S
C2606 C2605 1.392 . S
C2606 C2607 1.385 . S
C2606 C2608 1.478 . S
C2607 H2601 0.930 . S
C2607 C2603 1.400 . S
C2607 C2606 1.385 . S
C2608 C2606 1.478 . S
C2608 C2610 1.381 . S
C2608 C2614 1.383 . S
C2609 C2605 1.495 . S
C2609 H2615 0.959 . S
C2609 H2616 0.961 . S
C2609 H2617 0.960 . S
C2610 C2608 1.381 . S
C2610 C2611 1.394 . S
C2610 H2618 0.930 . S
C2611 C2610 1.394 . S
C2611 C2612 1.383 . S
C2611 H2619 0.929 . S
C2612 C2611 1.383 . S
C2612 C2613 1.377 . S
C2613 H2597 0.930 . S
C2613 C2612 1.377 . S
C2613 C2614 1.379 . S
C2614 H2598 0.931 . S
C2614 C2608 1.383 . S
C2614 C2613 1.379 . S
H2615 C2609 0.959 . S
H2616 C2609 0.961 . S
H2617 C2609 0.960 . S
H2618 C2610 0.930 . S
H2619 C2611 0.929 . S
H2620 C2628 0.929 . S
H2621 C2630 0.930 . S
H2622 C2632 0.930 . S
H2623 C2635 0.929 . S
H2624 C2638 0.930 . S
H2625 C2640 0.960 . S
H2626 C2640 0.960 . S
H2627 C2640 0.960 . S
C2628 H2620 0.929 . S
C2628 C2629 1.377 . S
C2628 C2630 1.384 . S
C2629 C2628 1.377 . S
C2629 C2635 1.390 . S
C2630 H2621 0.930 . S
C2630 C2628 1.384 . S
C2630 C2631 1.372 . S
C2631 C2630 1.372 . S
C2631 C2632 1.400 . S
C2631 C2636 1.490 . S
C2632 H2622 0.930 . S
C2632 C2631 1.400 . S
C2632 C2635 1.386 . S
H2633 C2649 0.930 . S
H2634 C2650 0.931 . S
C2635 H2623 0.929 . S
C2635 C2629 1.390 . S
C2635 C2632 1.386 . S
C2636 C2631 1.490 . S
C2636 C2638 1.395 . S
C2636 C2639 1.403 . S
H2637 C2643 0.930 . S
C2638 H2624 0.930 . S
C2638 C2636 1.395 . S
C2638 C2641 1.403 . S
C2639 C2636 1.403 . S
C2639 C2640 1.524 . S
C2639 C2643 1.400 . S
C2640 H2625 0.960 . S
C2640 H2626 0.960 . S
C2640 H2627 0.960 . S
C2640 C2639 1.524 . S
C2641 C2638 1.403 . S
C2641 C2642 1.392 . S
C2641 C2645 1.495 . S
C2642 C2641 1.392 . S
C2642 C2643 1.385 . S
C2642 C2644 1.478 . S
C2643 H2637 0.930 . S
C2643 C2639 1.400 . S
C2643 C2642 1.385 . S
C2644 C2642 1.478 . S
C2644 C2646 1.381 . S
C2644 C2650 1.383 . S
C2645 C2641 1.495 . S
C2645 H2651 0.959 . S
C2645 H2652 0.961 . S
C2645 H2653 0.960 . S
C2646 C2644 1.381 . S
C2646 C2647 1.394 . S
C2646 H2654 0.930 . S
C2647 C2646 1.394 . S
C2647 C2648 1.383 . S
C2647 H2655 0.929 . S
C2648 C2647 1.383 . S
C2648 C2649 1.377 . S
C2649 H2633 0.930 . S
C2649 C2648 1.377 . S
C2649 C2650 1.379 . S
C2650 H2634 0.931 . S
C2650 C2644 1.383 . S
C2650 C2649 1.379 . S
H2651 C2645 0.959 . S
H2652 C2645 0.961 . S
H2653 C2645 0.960 . S
H2654 C2646 0.930 . S
H2655 C2647 0.929 . S
H2656 C2664 0.929 . S
H2657 C2666 0.930 . S
H2658 C2668 0.930 . S
H2659 C2671 0.929 . S
H2660 C2674 0.930 . S
H2661 C2676 0.960 . S
H2662 C2676 0.960 . S
H2663 C2676 0.960 . S
C2664 H2656 0.929 . S
C2664 C2665 1.377 . S
C2664 C2666 1.384 . S
C2665 C2664 1.377 . S
C2665 C2671 1.390 . S
C2666 H2657 0.930 . S
C2666 C2664 1.384 . S
C2666 C2667 1.372 . S
C2667 C2666 1.372 . S
C2667 C2668 1.400 . S
C2667 C2672 1.490 . S
C2668 H2658 0.930 . S
C2668 C2667 1.400 . S
C2668 C2671 1.386 . S
H2669 C2685 0.930 . S
H2670 C2686 0.931 . S
C2671 H2659 0.929 . S
C2671 C2665 1.390 . S
C2671 C2668 1.386 . S
C2672 C2667 1.490 . S
C2672 C2674 1.395 . S
C2672 C2675 1.403 . S
H2673 C2679 0.930 . S
C2674 H2660 0.930 . S
C2674 C2672 1.395 . S
C2674 C2677 1.403 . S
C2675 C2672 1.403 . S
C2675 C2676 1.524 . S
C2675 C2679 1.400 . S
C2676 H2661 0.960 . S
C2676 H2662 0.960 . S
C2676 H2663 0.960 . S
C2676 C2675 1.524 . S
C2677 C2674 1.403 . S
C2677 C2678 1.392 . S
C2677 C2681 1.495 . S
C2678 C2677 1.392 . S
C2678 C2679 1.385 . S
C2678 C2680 1.478 . S
C2679 H2673 0.930 . S
C2679 C2675 1.400 . S
C2679 C2678 1.385 . S
C2680 C2678 1.478 . S
C2680 C2682 1.381 . S
C2680 C2686 1.383 . S
C2681 C2677 1.495 . S
C2681 H2687 0.959 . S
C2681 H2688 0.961 . S
C2681 H2689 0.960 . S
C2682 C2680 1.381 . S
C2682 C2683 1.394 . S
C2682 H2690 0.930 . S
C2683 C2682 1.394 . S
C2683 C2684 1.383 . S
C2683 H2691 0.929 . S
C2684 C2683 1.383 . S
C2684 C2685 1.377 . S
C2685 H2669 0.930 . S
C2685 C2684 1.377 . S
C2685 C2686 1.379 . S
C2686 H2670 0.931 . S
C2686 C2680 1.383 . S
C2686 C2685 1.379 . S
H2687 C2681 0.959 . S
H2688 C2681 0.961 . S
H2689 C2681 0.960 . S
H2690 C2682 0.930 . S
H2691 C2683 0.929 . S
H2692 C2700 0.929 . S
H2693 C2702 0.930 . S
H2694 C2704 0.930 . S
H2695 C2707 0.929 . S
H2696 C2710 0.930 . S
H2697 C2712 0.960 . S
H2698 C2712 0.960 . S
H2699 C2712 0.960 . S
C2700 H2692 0.929 . S
C2700 C2701 1.377 . S
C2700 C2702 1.384 . S
C2701 C2700 1.377 . S
C2701 C2707 1.390 . S
C2702 H2693 0.930 . S
C2702 C2700 1.384 . S
C2702 C2703 1.372 . S
C2703 C2702 1.372 . S
C2703 C2704 1.400 . S
C2703 C2708 1.490 . S
C2704 H2694 0.930 . S
C2704 C2703 1.400 . S
C2704 C2707 1.386 . S
H2705 C2721 0.930 . S
H2706 C2722 0.931 . S
C2707 H2695 0.929 . S
C2707 C2701 1.390 . S
C2707 C2704 1.386 . S
C2708 C2703 1.490 . S
C2708 C2710 1.395 . S
C2708 C2711 1.403 . S
H2709 C2715 0.930 . S
C2710 H2696 0.930 . S
C2710 C2708 1.395 . S
C2710 C2713 1.403 . S
C2711 C2708 1.403 . S
C2711 C2712 1.524 . S
C2711 C2715 1.400 . S
C2712 H2697 0.960 . S
C2712 H2698 0.960 . S
C2712 H2699 0.960 . S
C2712 C2711 1.524 . S
C2713 C2710 1.403 . S
C2713 C2714 1.392 . S
C2713 C2717 1.495 . S
C2714 C2713 1.392 . S
C2714 C2715 1.385 . S
C2714 C2716 1.478 . S
C2715 H2709 0.930 . S
C2715 C2711 1.400 . S
C2715 C2714 1.385 . S
C2716 C2714 1.478 . S
C2716 C2718 1.381 . S
C2716 C2722 1.383 . S
C2717 C2713 1.495 . S
C2717 H2723 0.959 . S
C2717 H2724 0.961 . S
C2717 H2725 0.960 . S
C2718 C2716 1.381 . S
C2718 C2719 1.394 . S
C2718 H2726 0.930 . S
C2719 C2718 1.394 . S
C2719 C2720 1.383 . S
C2719 H2727 0.929 . S
C2720 C2719 1.383 . S
C2720 C2721 1.377 . S
C2721 H2705 0.930 . S
C2721 C2720 1.377 . S
C2721 C2722 1.379 . S
C2722 H2706 0.931 . S
C2722 C2716 1.383 . S
C2722 C2721 1.379 . S
H2723 C2717 0.959 . S
H2724 C2717 0.961 . S
H2725 C2717 0.960 . S
H2726 C2718 0.930 . S
H2727 C2719 0.929 . S
H2728 C2736 0.929 . S
H2729 C2738 0.930 . S
H2730 C2740 0.930 . S
H2731 C2743 0.929 . S
H2732 C2746 0.930 . S
H2733 C2748 0.960 . S
H2734 C2748 0.960 . S
H2735 C2748 0.960 . S
C2736 H2728 0.929 . S
C2736 C2737 1.377 . S
C2736 C2738 1.384 . S
C2737 C2736 1.377 . S
C2737 C2743 1.390 . S
C2738 H2729 0.930 . S
C2738 C2736 1.384 . S
C2738 C2739 1.372 . S
C2739 C2738 1.372 . S
C2739 C2740 1.400 . S
C2739 C2744 1.490 . S
C2740 H2730 0.930 . S
C2740 C2739 1.400 . S
C2740 C2743 1.386 . S
H2741 C2757 0.930 . S
H2742 C2758 0.931 . S
C2743 H2731 0.929 . S
C2743 C2737 1.390 . S
C2743 C2740 1.386 . S
C2744 C2739 1.490 . S
C2744 C2746 1.395 . S
C2744 C2747 1.403 . S
H2745 C2751 0.930 . S
C2746 H2732 0.930 . S
C2746 C2744 1.395 . S
C2746 C2749 1.403 . S
C2747 C2744 1.403 . S
C2747 C2748 1.524 . S
C2747 C2751 1.400 . S
C2748 H2733 0.960 . S
C2748 H2734 0.960 . S
C2748 H2735 0.960 . S
C2748 C2747 1.524 . S
C2749 C2746 1.403 . S
C2749 C2750 1.392 . S
C2749 C2753 1.495 . S
C2750 C2749 1.392 . S
C2750 C2751 1.385 . S
C2750 C2752 1.478 . S
C2751 H2745 0.930 . S
C2751 C2747 1.400 . S
C2751 C2750 1.385 . S
C2752 C2750 1.478 . S
C2752 C2754 1.381 . S
C2752 C2758 1.383 . S
C2753 C2749 1.495 . S
C2753 H2759 0.959 . S
C2753 H2760 0.961 . S
C2753 H2761 0.960 . S
C2754 C2752 1.381 . S
C2754 C2755 1.394 . S
C2754 H2762 0.930 . S
C2755 C2754 1.394 . S
C2755 C2756 1.383 . S
C2755 H2763 0.929 . S
C2756 C2755 1.383 . S
C2756 C2757 1.377 . S
C2757 H2741 0.930 . S
C2757 C2756 1.377 . S
C2757 C2758 1.379 . S
C2758 H2742 0.931 . S
C2758 C2752 1.383 . S
C2758 C2757 1.379 . S
H2759 C2753 0.959 . S
H2760 C2753 0.961 . S
H2761 C2753 0.960 . S
H2762 C2754 0.930 . S
H2763 C2755 0.929 . S
H2764 C2772 0.929 . S
H2765 C2774 0.930 . S
H2766 C2776 0.930 . S
H2767 C2779 0.929 . S
H2768 C2782 0.930 . S
H2769 C2784 0.960 . S
H2770 C2784 0.960 . S
H2771 C2784 0.960 . S
C2772 H2764 0.929 . S
C2772 C2773 1.377 . S
C2772 C2774 1.384 . S
C2773 C2772 1.377 . S
C2773 C2779 1.390 . S
C2774 H2765 0.930 . S
C2774 C2772 1.384 . S
C2774 C2775 1.372 . S
C2775 C2774 1.372 . S
C2775 C2776 1.400 . S
C2775 C2780 1.490 . S
C2776 H2766 0.930 . S
C2776 C2775 1.400 . S
C2776 C2779 1.386 . S
H2777 C2793 0.930 . S
H2778 C2794 0.931 . S
C2779 H2767 0.929 . S
C2779 C2773 1.390 . S
C2779 C2776 1.386 . S
C2780 C2775 1.490 . S
C2780 C2782 1.395 . S
C2780 C2783 1.403 . S
H2781 C2787 0.930 . S
C2782 H2768 0.930 . S
C2782 C2780 1.395 . S
C2782 C2785 1.403 . S
C2783 C2780 1.403 . S
C2783 C2784 1.524 . S
C2783 C2787 1.400 . S
C2784 H2769 0.960 . S
C2784 H2770 0.960 . S
C2784 H2771 0.960 . S
C2784 C2783 1.524 . S
C2785 C2782 1.403 . S
C2785 C2786 1.392 . S
C2785 C2789 1.495 . S
C2786 C2785 1.392 . S
C2786 C2787 1.385 . S
C2786 C2788 1.478 . S
C2787 H2781 0.930 . S
C2787 C2783 1.400 . S
C2787 C2786 1.385 . S
C2788 C2786 1.478 . S
C2788 C2790 1.381 . S
C2788 C2794 1.383 . S
C2789 C2785 1.495 . S
C2789 H2795 0.959 . S
C2789 H2796 0.961 . S
C2789 H2797 0.960 . S
C2790 C2788 1.381 . S
C2790 C2791 1.394 . S
C2790 H2798 0.930 . S
C2791 C2790 1.394 . S
C2791 C2792 1.383 . S
C2791 H2799 0.929 . S
C2792 C2791 1.383 . S
C2792 C2793 1.377 . S
C2793 H2777 0.930 . S
C2793 C2792 1.377 . S
C2793 C2794 1.379 . S
C2794 H2778 0.931 . S
C2794 C2788 1.383 . S
C2794 C2793 1.379 . S
H2795 C2789 0.959 . S
H2796 C2789 0.961 . S
H2797 C2789 0.960 . S
H2798 C2790 0.930 . S
H2799 C2791 0.929 . S
H2800 C2808 0.929 . S
H2801 C2810 0.930 . S
H2802 C2812 0.930 . S
H2803 C2815 0.929 . S
H2804 C2818 0.930 . S
H2805 C2820 0.960 . S
H2806 C2820 0.960 . S
H2807 C2820 0.960 . S
C2808 H2800 0.929 . S
C2808 C2809 1.377 . S
C2808 C2810 1.384 . S
C2809 C2808 1.377 . S
C2809 C2815 1.390 . S
C2810 H2801 0.930 . S
C2810 C2808 1.384 . S
C2810 C2811 1.372 . S
C2811 C2810 1.372 . S
C2811 C2812 1.400 . S
C2811 C2816 1.490 . S
C2812 H2802 0.930 . S
C2812 C2811 1.400 . S
C2812 C2815 1.386 . S
H2813 C2829 0.930 . S
H2814 C2830 0.931 . S
C2815 H2803 0.929 . S
C2815 C2809 1.390 . S
C2815 C2812 1.386 . S
C2816 C2811 1.490 . S
C2816 C2818 1.395 . S
C2816 C2819 1.403 . S
H2817 C2823 0.930 . S
C2818 H2804 0.930 . S
C2818 C2816 1.395 . S
C2818 C2821 1.403 . S
C2819 C2816 1.403 . S
C2819 C2820 1.524 . S
C2819 C2823 1.400 . S
C2820 H2805 0.960 . S
C2820 H2806 0.960 . S
C2820 H2807 0.960 . S
C2820 C2819 1.524 . S
C2821 C2818 1.403 . S
C2821 C2822 1.392 . S
C2821 C2825 1.495 . S
C2822 C2821 1.392 . S
C2822 C2823 1.385 . S
C2822 C2824 1.478 . S
C2823 H2817 0.930 . S
C2823 C2819 1.400 . S
C2823 C2822 1.385 . S
C2824 C2822 1.478 . S
C2824 C2826 1.381 . S
C2824 C2830 1.383 . S
C2825 C2821 1.495 . S
C2825 H2831 0.959 . S
C2825 H2832 0.961 . S
C2825 H2833 0.960 . S
C2826 C2824 1.381 . S
C2826 C2827 1.394 . S
C2826 H2834 0.930 . S
C2827 C2826 1.394 . S
C2827 C2828 1.383 . S
C2827 H2835 0.929 . S
C2828 C2827 1.383 . S
C2828 C2829 1.377 . S
C2829 H2813 0.930 . S
C2829 C2828 1.377 . S
C2829 C2830 1.379 . S
C2830 H2814 0.931 . S
C2830 C2824 1.383 . S
C2830 C2829 1.379 . S
H2831 C2825 0.959 . S
H2832 C2825 0.961 . S
H2833 C2825 0.960 . S
H2834 C2826 0.930 . S
H2835 C2827 0.929 . S
H2836 C2844 0.929 . S
H2837 C2846 0.930 . S
H2838 C2848 0.930 . S
H2839 C2851 0.929 . S
H2840 C2854 0.930 . S
H2841 C2856 0.960 . S
H2842 C2856 0.960 . S
H2843 C2856 0.960 . S
C2844 H2836 0.929 . S
C2844 C2845 1.377 . S
C2844 C2846 1.384 . S
C2845 C2844 1.377 . S
C2845 C2851 1.390 . S
C2846 H2837 0.930 . S
C2846 C2844 1.384 . S
C2846 C2847 1.372 . S
C2847 C2846 1.372 . S
C2847 C2848 1.400 . S
C2847 C2852 1.490 . S
C2848 H2838 0.930 . S
C2848 C2847 1.400 . S
C2848 C2851 1.386 . S
H2849 C2865 0.930 . S
H2850 C2866 0.931 . S
C2851 H2839 0.929 . S
C2851 C2845 1.390 . S
C2851 C2848 1.386 . S
C2852 C2847 1.490 . S
C2852 C2854 1.395 . S
C2852 C2855 1.403 . S
H2853 C2859 0.930 . S
C2854 H2840 0.930 . S
C2854 C2852 1.395 . S
C2854 C2857 1.403 . S
C2855 C2852 1.403 . S
C2855 C2856 1.524 . S
C2855 C2859 1.400 . S
C2856 H2841 0.960 . S
C2856 H2842 0.960 . S
C2856 H2843 0.960 . S
C2856 C2855 1.524 . S
C2857 C2854 1.403 . S
C2857 C2858 1.392 . S
C2857 C2861 1.495 . S
C2858 C2857 1.392 . S
C2858 C2859 1.385 . S
C2858 C2860 1.478 . S
C2859 H2853 0.930 . S
C2859 C2855 1.400 . S
C2859 C2858 1.385 . S
C2860 C2858 1.478 . S
C2860 C2862 1.381 . S
C2860 C2866 1.383 . S
C2861 C2857 1.495 . S
C2861 H2867 0.959 . S
C2861 H2868 0.961 . S
C2861 H2869 0.960 . S
C2862 C2860 1.381 . S
C2862 C2863 1.394 . S
C2862 H2870 0.930 . S
C2863 C2862 1.394 . S
C2863 C2864 1.383 . S
C2863 H2871 0.929 . S
C2864 C2863 1.383 . S
C2864 C2865 1.377 . S
C2865 H2849 0.930 . S
C2865 C2864 1.377 . S
C2865 C2866 1.379 . S
C2866 H2850 0.931 . S
C2866 C2860 1.383 . S
C2866 C2865 1.379 . S
H2867 C2861 0.959 . S
H2868 C2861 0.961 . S
H2869 C2861 0.960 . S
H2870 C2862 0.930 . S
H2871 C2863 0.929 . S
H2872 C2880 0.929 . S
H2873 C2882 0.930 . S
H2874 C2884 0.930 . S
H2875 C2887 0.929 . S
H2876 C2890 0.930 . S
H2877 C2892 0.960 . S
H2878 C2892 0.960 . S
H2879 C2892 0.960 . S
C2880 H2872 0.929 . S
C2880 C2881 1.377 . S
C2880 C2882 1.384 . S
C2881 C2880 1.377 . S
C2881 C2887 1.390 . S
C2882 H2873 0.930 . S
C2882 C2880 1.384 . S
C2882 C2883 1.372 . S
C2883 C2882 1.372 . S
C2883 C2884 1.400 . S
C2883 C2888 1.490 . S
C2884 H2874 0.930 . S
C2884 C2883 1.400 . S
C2884 C2887 1.386 . S
H2885 C2901 0.930 . S
H2886 C2902 0.931 . S
C2887 H2875 0.929 . S
C2887 C2881 1.390 . S
C2887 C2884 1.386 . S
C2888 C2883 1.490 . S
C2888 C2890 1.395 . S
C2888 C2891 1.403 . S
H2889 C2895 0.930 . S
C2890 H2876 0.930 . S
C2890 C2888 1.395 . S
C2890 C2893 1.403 . S
C2891 C2888 1.403 . S
C2891 C2892 1.524 . S
C2891 C2895 1.400 . S
C2892 H2877 0.960 . S
C2892 H2878 0.960 . S
C2892 H2879 0.960 . S
C2892 C2891 1.524 . S
C2893 C2890 1.403 . S
C2893 C2894 1.392 . S
C2893 C2897 1.495 . S
C2894 C2893 1.392 . S
C2894 C2895 1.385 . S
C2894 C2896 1.478 . S
C2895 H2889 0.930 . S
C2895 C2891 1.400 . S
C2895 C2894 1.385 . S
C2896 C2894 1.478 . S
C2896 C2898 1.381 . S
C2896 C2902 1.383 . S
C2897 C2893 1.495 . S
C2897 H2903 0.959 . S
C2897 H2904 0.961 . S
C2897 H2905 0.960 . S
C2898 C2896 1.381 . S
C2898 C2899 1.394 . S
C2898 H2906 0.930 . S
C2899 C2898 1.394 . S
C2899 C2900 1.383 . S
C2899 H2907 0.929 . S
C2900 C2899 1.383 . S
C2900 C2901 1.377 . S
C2901 H2885 0.930 . S
C2901 C2900 1.377 . S
C2901 C2902 1.379 . S
C2902 H2886 0.931 . S
C2902 C2896 1.383 . S
C2902 C2901 1.379 . S
H2903 C2897 0.959 . S
H2904 C2897 0.961 . S
H2905 C2897 0.960 . S
H2906 C2898 0.930 . S
H2907 C2899 0.929 . S
H2908 C2916 0.929 . S
H2909 C2918 0.930 . S
H2910 C2920 0.930 . S
H2911 C2923 0.929 . S
H2912 C2926 0.930 . S
H2913 C2928 0.960 . S
H2914 C2928 0.960 . S
H2915 C2928 0.960 . S
C2916 H2908 0.929 . S
C2916 C2917 1.377 . S
C2916 C2918 1.384 . S
C2917 C2916 1.377 . S
C2917 C2923 1.390 . S
C2918 H2909 0.930 . S
C2918 C2916 1.384 . S
C2918 C2919 1.372 . S
C2919 C2918 1.372 . S
C2919 C2920 1.400 . S
C2919 C2924 1.490 . S
C2920 H2910 0.930 . S
C2920 C2919 1.400 . S
C2920 C2923 1.386 . S
H2921 C2937 0.930 . S
H2922 C2938 0.931 . S
C2923 H2911 0.929 . S
C2923 C2917 1.390 . S
C2923 C2920 1.386 . S
C2924 C2919 1.490 . S
C2924 C2926 1.395 . S
C2924 C2927 1.403 . S
H2925 C2931 0.930 . S
C2926 H2912 0.930 . S
C2926 C2924 1.395 . S
C2926 C2929 1.403 . S
C2927 C2924 1.403 . S
C2927 C2928 1.524 . S
C2927 C2931 1.400 . S
C2928 H2913 0.960 . S
C2928 H2914 0.960 . S
C2928 H2915 0.960 . S
C2928 C2927 1.524 . S
C2929 C2926 1.403 . S
C2929 C2930 1.392 . S
C2929 C2933 1.495 . S
C2930 C2929 1.392 . S
C2930 C2931 1.385 . S
C2930 C2932 1.478 . S
C2931 H2925 0.930 . S
C2931 C2927 1.400 . S
C2931 C2930 1.385 . S
C2932 C2930 1.478 . S
C2932 C2934 1.381 . S
C2932 C2938 1.383 . S
C2933 C2929 1.495 . S
C2933 H2939 0.959 . S
C2933 H2940 0.961 . S
C2933 H2941 0.960 . S
C2934 C2932 1.381 . S
C2934 C2935 1.394 . S
C2934 H2942 0.930 . S
C2935 C2934 1.394 . S
C2935 C2936 1.383 . S
C2935 H2943 0.929 . S
C2936 C2935 1.383 . S
C2936 C2937 1.377 . S
C2937 H2921 0.930 . S
C2937 C2936 1.377 . S
C2937 C2938 1.379 . S
C2938 H2922 0.931 . S
C2938 C2932 1.383 . S
C2938 C2937 1.379 . S
H2939 C2933 0.959 . S
H2940 C2933 0.961 . S
H2941 C2933 0.960 . S
H2942 C2934 0.930 . S
H2943 C2935 0.929 . S
H2944 C2952 0.929 . S
H2945 C2954 0.930 . S
H2946 C2956 0.930 . S
H2947 C2959 0.929 . S
H2948 C2962 0.930 . S
H2949 C2964 0.960 . S
H2950 C2964 0.960 . S
H2951 C2964 0.960 . S
C2952 H2944 0.929 . S
C2952 C2953 1.377 . S
C2952 C2954 1.384 . S
C2953 C2952 1.377 . S
C2953 C2959 1.390 . S
C2954 H2945 0.930 . S
C2954 C2952 1.384 . S
C2954 C2955 1.372 . S
C2955 C2954 1.372 . S
C2955 C2956 1.400 . S
C2955 C2960 1.490 . S
C2956 H2946 0.930 . S
C2956 C2955 1.400 . S
C2956 C2959 1.386 . S
H2957 C2973 0.930 . S
H2958 C2974 0.931 . S
C2959 H2947 0.929 . S
C2959 C2953 1.390 . S
C2959 C2956 1.386 . S
C2960 C2955 1.490 . S
C2960 C2962 1.395 . S
C2960 C2963 1.403 . S
H2961 C2967 0.930 . S
C2962 H2948 0.930 . S
C2962 C2960 1.395 . S
C2962 C2965 1.403 . S
C2963 C2960 1.403 . S
C2963 C2964 1.524 . S
C2963 C2967 1.400 . S
C2964 H2949 0.960 . S
C2964 H2950 0.960 . S
C2964 H2951 0.960 . S
C2964 C2963 1.524 . S
C2965 C2962 1.403 . S
C2965 C2966 1.392 . S
C2965 C2969 1.495 . S
C2966 C2965 1.392 . S
C2966 C2967 1.385 . S
C2966 C2968 1.478 . S
C2967 H2961 0.930 . S
C2967 C2963 1.400 . S
C2967 C2966 1.385 . S
C2968 C2966 1.478 . S
C2968 C2970 1.381 . S
C2968 C2974 1.383 . S
C2969 C2965 1.495 . S
C2969 H2975 0.959 . S
C2969 H2976 0.961 . S
C2969 H2977 0.960 . S
C2970 C2968 1.381 . S
C2970 C2971 1.394 . S
C2970 H2978 0.930 . S
C2971 C2970 1.394 . S
C2971 C2972 1.383 . S
C2971 H2979 0.929 . S
C2972 C2971 1.383 . S
C2972 C2973 1.377 . S
C2973 H2957 0.930 . S
C2973 C2972 1.377 . S
C2973 C2974 1.379 . S
C2974 H2958 0.931 . S
C2974 C2968 1.383 . S
C2974 C2973 1.379 . S
H2975 C2969 0.959 . S
H2976 C2969 0.961 . S
H2977 C2969 0.960 . S
H2978 C2970 0.930 . S
H2979 C2971 0.929 . S
H2980 C2988 0.929 . S
H2981 C2990 0.930 . S
H2982 C2992 0.930 . S
H2983 C2995 0.929 . S
H2984 C2998 0.930 . S
H2985 C3000 0.960 . S
H2986 C3000 0.960 . S
H2987 C3000 0.960 . S
C2988 H2980 0.929 . S
C2988 C2989 1.377 . S
C2988 C2990 1.384 . S
C2989 C2988 1.377 . S
C2989 C2995 1.390 . S
C2990 H2981 0.930 . S
C2990 C2988 1.384 . S
C2990 C2991 1.372 . S
C2991 C2990 1.372 . S
C2991 C2992 1.400 . S
C2991 C2996 1.490 . S
C2992 H2982 0.930 . S
C2992 C2991 1.400 . S
C2992 C2995 1.386 . S
H2993 C3009 0.930 . S
H2994 C3010 0.931 . S
C2995 H2983 0.929 . S
C2995 C2989 1.390 . S
C2995 C2992 1.386 . S
C2996 C2991 1.490 . S
C2996 C2998 1.395 . S
C2996 C2999 1.403 . S
H2997 C3003 0.930 . S
C2998 H2984 0.930 . S
C2998 C2996 1.395 . S
C2998 C3001 1.403 . S
C2999 C2996 1.403 . S
C2999 C3000 1.524 . S
C2999 C3003 1.400 . S
C3000 H2985 0.960 . S
C3000 H2986 0.960 . S
C3000 H2987 0.960 . S
C3000 C2999 1.524 . S
C3001 C2998 1.403 . S
C3001 C3002 1.392 . S
C3001 C3005 1.495 . S
C3002 C3001 1.392 . S
C3002 C3003 1.385 . S
C3002 C3004 1.478 . S
C3003 H2997 0.930 . S
C3003 C2999 1.400 . S
C3003 C3002 1.385 . S
C3004 C3002 1.478 . S
C3004 C3006 1.381 . S
C3004 C3010 1.383 . S
C3005 C3001 1.495 . S
C3005 H3011 0.959 . S
C3005 H3012 0.961 . S
C3005 H3013 0.960 . S
C3006 C3004 1.381 . S
C3006 C3007 1.394 . S
C3006 H3014 0.930 . S
C3007 C3006 1.394 . S
C3007 C3008 1.383 . S
C3007 H3015 0.929 . S
C3008 C3007 1.383 . S
C3008 C3009 1.377 . S
C3009 H2993 0.930 . S
C3009 C3008 1.377 . S
C3009 C3010 1.379 . S
C3010 H2994 0.931 . S
C3010 C3004 1.383 . S
C3010 C3009 1.379 . S
H3011 C3005 0.959 . S
H3012 C3005 0.961 . S
H3013 C3005 0.960 . S
H3014 C3006 0.930 . S
H3015 C3007 0.929 . S
H3016 C3024 0.929 . S
H3017 C3026 0.930 . S
H3018 C3028 0.930 . S
H3019 C3031 0.929 . S
H3020 C3034 0.930 . S
H3021 C3036 0.960 . S
H3022 C3036 0.960 . S
H3023 C3036 0.960 . S
C3024 H3016 0.929 . S
C3024 C3025 1.377 . S
C3024 C3026 1.384 . S
C3025 C3024 1.377 . S
C3025 C3031 1.390 . S
C3026 H3017 0.930 . S
C3026 C3024 1.384 . S
C3026 C3027 1.372 . S
C3027 C3026 1.372 . S
C3027 C3028 1.400 . S
C3027 C3032 1.490 . S
C3028 H3018 0.930 . S
C3028 C3027 1.400 . S
C3028 C3031 1.386 . S
H3029 C3045 0.930 . S
H3030 C3046 0.931 . S
C3031 H3019 0.929 . S
C3031 C3025 1.390 . S
C3031 C3028 1.386 . S
C3032 C3027 1.490 . S
C3032 C3034 1.395 . S
C3032 C3035 1.403 . S
H3033 C3039 0.930 . S
C3034 H3020 0.930 . S
C3034 C3032 1.395 . S
C3034 C3037 1.403 . S
C3035 C3032 1.403 . S
C3035 C3036 1.524 . S
C3035 C3039 1.400 . S
C3036 H3021 0.960 . S
C3036 H3022 0.960 . S
C3036 H3023 0.960 . S
C3036 C3035 1.524 . S
C3037 C3034 1.403 . S
C3037 C3038 1.392 . S
C3037 C3041 1.495 . S
C3038 C3037 1.392 . S
C3038 C3039 1.385 . S
C3038 C3040 1.478 . S
C3039 H3033 0.930 . S
C3039 C3035 1.400 . S
C3039 C3038 1.385 . S
C3040 C3038 1.478 . S
C3040 C3042 1.381 . S
C3040 C3046 1.383 . S
C3041 C3037 1.495 . S
C3041 H3047 0.959 . S
C3041 H3048 0.961 . S
C3041 H3049 0.960 . S
C3042 C3040 1.381 . S
C3042 C3043 1.394 . S
C3042 H3050 0.930 . S
C3043 C3042 1.394 . S
C3043 C3044 1.383 . S
C3043 H3051 0.929 . S
C3044 C3043 1.383 . S
C3044 C3045 1.377 . S
C3045 H3029 0.930 . S
C3045 C3044 1.377 . S
C3045 C3046 1.379 . S
C3046 H3030 0.931 . S
C3046 C3040 1.383 . S
C3046 C3045 1.379 . S
H3047 C3041 0.959 . S
H3048 C3041 0.961 . S
H3049 C3041 0.960 . S
H3050 C3042 0.930 . S
H3051 C3043 0.929 . S
H3052 C3060 0.929 . S
H3053 C3062 0.930 . S
H3054 C3064 0.930 . S
H3055 C3067 0.929 . S
H3056 C3070 0.930 . S
H3057 C3072 0.960 . S
H3058 C3072 0.960 . S
H3059 C3072 0.960 . S
C3060 H3052 0.929 . S
C3060 C3061 1.377 . S
C3060 C3062 1.384 . S
C3061 C3060 1.377 . S
C3061 C3067 1.390 . S
C3062 H3053 0.930 . S
C3062 C3060 1.384 . S
C3062 C3063 1.372 . S
C3063 C3062 1.372 . S
C3063 C3064 1.400 . S
C3063 C3068 1.490 . S
C3064 H3054 0.930 . S
C3064 C3063 1.400 . S
C3064 C3067 1.386 . S
H3065 C3081 0.930 . S
H3066 C3082 0.931 . S
C3067 H3055 0.929 . S
C3067 C3061 1.390 . S
C3067 C3064 1.386 . S
C3068 C3063 1.490 . S
C3068 C3070 1.395 . S
C3068 C3071 1.403 . S
H3069 C3075 0.930 . S
C3070 H3056 0.930 . S
C3070 C3068 1.395 . S
C3070 C3073 1.403 . S
C3071 C3068 1.403 . S
C3071 C3072 1.524 . S
C3071 C3075 1.400 . S
C3072 H3057 0.960 . S
C3072 H3058 0.960 . S
C3072 H3059 0.960 . S
C3072 C3071 1.524 . S
C3073 C3070 1.403 . S
C3073 C3074 1.392 . S
C3073 C3077 1.495 . S
C3074 C3073 1.392 . S
C3074 C3075 1.385 . S
C3074 C3076 1.478 . S
C3075 H3069 0.930 . S
C3075 C3071 1.400 . S
C3075 C3074 1.385 . S
C3076 C3074 1.478 . S
C3076 C3078 1.381 . S
C3076 C3082 1.383 . S
C3077 C3073 1.495 . S
C3077 H3083 0.959 . S
C3077 H3084 0.961 . S
C3077 H3085 0.960 . S
C3078 C3076 1.381 . S
C3078 C3079 1.394 . S
C3078 H3086 0.930 . S
C3079 C3078 1.394 . S
C3079 C3080 1.383 . S
C3079 H3087 0.929 . S
C3080 C3079 1.383 . S
C3080 C3081 1.377 . S
C3081 H3065 0.930 . S
C3081 C3080 1.377 . S
C3081 C3082 1.379 . S
C3082 H3066 0.931 . S
C3082 C3076 1.383 . S
C3082 C3081 1.379 . S
H3083 C3077 0.959 . S
H3084 C3077 0.961 . S
H3085 C3077 0.960 . S
H3086 C3078 0.930 . S
H3087 C3079 0.929 . S
H3088 C3096 0.929 . S
H3089 C3098 0.930 . S
H3090 C3100 0.930 . S
H3091 C3103 0.929 . S
H3092 C3106 0.930 . S
H3093 C3108 0.960 . S
H3094 C3108 0.960 . S
H3095 C3108 0.960 . S
C3096 H3088 0.929 . S
C3096 C3097 1.377 . S
C3096 C3098 1.384 . S
C3097 C3096 1.377 . S
C3097 C3103 1.390 . S
C3098 H3089 0.930 . S
C3098 C3096 1.384 . S
C3098 C3099 1.372 . S
C3099 C3098 1.372 . S
C3099 C3100 1.400 . S
C3099 C3104 1.490 . S
C3100 H3090 0.930 . S
C3100 C3099 1.400 . S
C3100 C3103 1.386 . S
H3101 C3117 0.930 . S
H3102 C3118 0.931 . S
C3103 H3091 0.929 . S
C3103 C3097 1.390 . S
C3103 C3100 1.386 . S
C3104 C3099 1.490 . S
C3104 C3106 1.395 . S
C3104 C3107 1.403 . S
H3105 C3111 0.930 . S
C3106 H3092 0.930 . S
C3106 C3104 1.395 . S
C3106 C3109 1.403 . S
C3107 C3104 1.403 . S
C3107 C3108 1.524 . S
C3107 C3111 1.400 . S
C3108 H3093 0.960 . S
C3108 H3094 0.960 . S
C3108 H3095 0.960 . S
C3108 C3107 1.524 . S
C3109 C3106 1.403 . S
C3109 C3110 1.392 . S
C3109 C3113 1.495 . S
C3110 C3109 1.392 . S
C3110 C3111 1.385 . S
C3110 C3112 1.478 . S
C3111 H3105 0.930 . S
C3111 C3107 1.400 . S
C3111 C3110 1.385 . S
C3112 C3110 1.478 . S
C3112 C3114 1.381 . S
C3112 C3118 1.383 . S
C3113 C3109 1.495 . S
C3113 H3119 0.959 . S
C3113 H3120 0.961 . S
C3113 H3121 0.960 . S
C3114 C3112 1.381 . S
C3114 C3115 1.394 . S
C3114 H3122 0.930 . S
C3115 C3114 1.394 . S
C3115 C3116 1.383 . S
C3115 H3123 0.929 . S
C3116 C3115 1.383 . S
C3116 C3117 1.377 . S
C3117 H3101 0.930 . S
C3117 C3116 1.377 . S
C3117 C3118 1.379 . S
C3118 H3102 0.931 . S
C3118 C3112 1.383 . S
C3118 C3117 1.379 . S
H3119 C3113 0.959 . S
H3120 C3113 0.961 . S
H3121 C3113 0.960 . S
H3122 C3114 0.930 . S
H3123 C3115 0.929 . S
H3124 C3132 0.929 . S
H3125 C3134 0.930 . S
H3126 C3136 0.930 . S
H3127 C3139 0.929 . S
H3128 C3142 0.930 . S
H3129 C3144 0.960 . S
H3130 C3144 0.960 . S
H3131 C3144 0.960 . S
C3132 H3124 0.929 . S
C3132 C3133 1.377 . S
C3132 C3134 1.384 . S
C3133 C3132 1.377 . S
C3133 C3139 1.390 . S
C3134 H3125 0.930 . S
C3134 C3132 1.384 . S
C3134 C3135 1.372 . S
C3135 C3134 1.372 . S
C3135 C3136 1.400 . S
C3135 C3140 1.490 . S
C3136 H3126 0.930 . S
C3136 C3135 1.400 . S
C3136 C3139 1.386 . S
H3137 C3153 0.930 . S
H3138 C3154 0.931 . S
C3139 H3127 0.929 . S
C3139 C3133 1.390 . S
C3139 C3136 1.386 . S
C3140 C3135 1.490 . S
C3140 C3142 1.395 . S
C3140 C3143 1.403 . S
H3141 C3147 0.930 . S
C3142 H3128 0.930 . S
C3142 C3140 1.395 . S
C3142 C3145 1.403 . S
C3143 C3140 1.403 . S
C3143 C3144 1.524 . S
C3143 C3147 1.400 . S
C3144 H3129 0.960 . S
C3144 H3130 0.960 . S
C3144 H3131 0.960 . S
C3144 C3143 1.524 . S
C3145 C3142 1.403 . S
C3145 C3146 1.392 . S
C3145 C3149 1.495 . S
C3146 C3145 1.392 . S
C3146 C3147 1.385 . S
C3146 C3148 1.478 . S
C3147 H3141 0.930 . S
C3147 C3143 1.400 . S
C3147 C3146 1.385 . S
C3148 C3146 1.478 . S
C3148 C3150 1.381 . S
C3148 C3154 1.383 . S
C3149 C3145 1.495 . S
C3149 H3155 0.959 . S
C3149 H3156 0.961 . S
C3149 H3157 0.960 . S
C3150 C3148 1.381 . S
C3150 C3151 1.394 . S
C3150 H3158 0.930 . S
C3151 C3150 1.394 . S
C3151 C3152 1.383 . S
C3151 H3159 0.929 . S
C3152 C3151 1.383 . S
C3152 C3153 1.377 . S
C3153 H3137 0.930 . S
C3153 C3152 1.377 . S
C3153 C3154 1.379 . S
C3154 H3138 0.931 . S
C3154 C3148 1.383 . S
C3154 C3153 1.379 . S
H3155 C3149 0.959 . S
H3156 C3149 0.961 . S
H3157 C3149 0.960 . S
H3158 C3150 0.930 . S
H3159 C3151 0.929 . S
H3160 C3168 0.929 . S
H3161 C3170 0.930 . S
H3162 C3172 0.930 . S
H3163 C3175 0.929 . S
H3164 C3178 0.930 . S
H3165 C3180 0.960 . S
H3166 C3180 0.960 . S
H3167 C3180 0.960 . S
C3168 H3160 0.929 . S
C3168 C3169 1.377 . S
C3168 C3170 1.384 . S
C3169 C3168 1.377 . S
C3169 C3175 1.390 . S
C3170 H3161 0.930 . S
C3170 C3168 1.384 . S
C3170 C3171 1.372 . S
C3171 C3170 1.372 . S
C3171 C3172 1.400 . S
C3171 C3176 1.490 . S
C3172 H3162 0.930 . S
C3172 C3171 1.400 . S
C3172 C3175 1.386 . S
H3173 C3189 0.930 . S
H3174 C3190 0.931 . S
C3175 H3163 0.929 . S
C3175 C3169 1.390 . S
C3175 C3172 1.386 . S
C3176 C3171 1.490 . S
C3176 C3178 1.395 . S
C3176 C3179 1.403 . S
H3177 C3183 0.930 . S
C3178 H3164 0.930 . S
C3178 C3176 1.395 . S
C3178 C3181 1.403 . S
C3179 C3176 1.403 . S
C3179 C3180 1.524 . S
C3179 C3183 1.400 . S
C3180 H3165 0.960 . S
C3180 H3166 0.960 . S
C3180 H3167 0.960 . S
C3180 C3179 1.524 . S
C3181 C3178 1.403 . S
C3181 C3182 1.392 . S
C3181 C3185 1.495 . S
C3182 C3181 1.392 . S
C3182 C3183 1.385 . S
C3182 C3184 1.478 . S
C3183 H3177 0.930 . S
C3183 C3179 1.400 . S
C3183 C3182 1.385 . S
C3184 C3182 1.478 . S
C3184 C3186 1.381 . S
C3184 C3190 1.383 . S
C3185 C3181 1.495 . S
C3185 H3191 0.959 . S
C3185 H3192 0.961 . S
C3185 H3193 0.960 . S
C3186 C3184 1.381 . S
C3186 C3187 1.394 . S
C3186 H3194 0.930 . S
C3187 C3186 1.394 . S
C3187 C3188 1.383 . S
C3187 H3195 0.929 . S
C3188 C3187 1.383 . S
C3188 C3189 1.377 . S
C3189 H3173 0.930 . S
C3189 C3188 1.377 . S
C3189 C3190 1.379 . S
C3190 H3174 0.931 . S
C3190 C3184 1.383 . S
C3190 C3189 1.379 . S
H3191 C3185 0.959 . S
H3192 C3185 0.961 . S
H3193 C3185 0.960 . S
H3194 C3186 0.930 . S
H3195 C3187 0.929 . S
H3196 C3204 0.929 . S
H3197 C3206 0.930 . S
H3198 C3208 0.930 . S
H3199 C3211 0.929 . S
H3200 C3214 0.930 . S
H3201 C3216 0.960 . S
H3202 C3216 0.960 . S
H3203 C3216 0.960 . S
C3204 H3196 0.929 . S
C3204 C3205 1.377 . S
C3204 C3206 1.384 . S
C3205 C3204 1.377 . S
C3205 C3211 1.390 . S
C3206 H3197 0.930 . S
C3206 C3204 1.384 . S
C3206 C3207 1.372 . S
C3207 C3206 1.372 . S
C3207 C3208 1.400 . S
C3207 C3212 1.490 . S
C3208 H3198 0.930 . S
C3208 C3207 1.400 . S
C3208 C3211 1.386 . S
H3209 C3225 0.930 . S
H3210 C3226 0.931 . S
C3211 H3199 0.929 . S
C3211 C3205 1.390 . S
C3211 C3208 1.386 . S
C3212 C3207 1.490 . S
C3212 C3214 1.395 . S
C3212 C3215 1.403 . S
H3213 C3219 0.930 . S
C3214 H3200 0.930 . S
C3214 C3212 1.395 . S
C3214 C3217 1.403 . S
C3215 C3212 1.403 . S
C3215 C3216 1.524 . S
C3215 C3219 1.400 . S
C3216 H3201 0.960 . S
C3216 H3202 0.960 . S
C3216 H3203 0.960 . S
C3216 C3215 1.524 . S
C3217 C3214 1.403 . S
C3217 C3218 1.392 . S
C3217 C3221 1.495 . S
C3218 C3217 1.392 . S
C3218 C3219 1.385 . S
C3218 C3220 1.478 . S
C3219 H3213 0.930 . S
C3219 C3215 1.400 . S
C3219 C3218 1.385 . S
C3220 C3218 1.478 . S
C3220 C3222 1.381 . S
C3220 C3226 1.383 . S
C3221 C3217 1.495 . S
C3221 H3227 0.959 . S
C3221 H3228 0.961 . S
C3221 H3229 0.960 . S
C3222 C3220 1.381 . S
C3222 C3223 1.394 . S
C3222 H3230 0.930 . S
C3223 C3222 1.394 . S
C3223 C3224 1.383 . S
C3223 H3231 0.929 . S
C3224 C3223 1.383 . S
C3224 C3225 1.377 . S
C3225 H3209 0.930 . S
C3225 C3224 1.377 . S
C3225 C3226 1.379 . S
C3226 H3210 0.931 . S
C3226 C3220 1.383 . S
C3226 C3225 1.379 . S
H3227 C3221 0.959 . S
H3228 C3221 0.961 . S
H3229 C3221 0.960 . S
H3230 C3222 0.930 . S
H3231 C3223 0.929 . S
H3232 C3240 0.929 . S
H3233 C3242 0.930 . S
H3234 C3244 0.930 . S
H3235 C3247 0.929 . S
H3236 C3250 0.930 . S
H3237 C3252 0.960 . S
H3238 C3252 0.960 . S
H3239 C3252 0.960 . S
C3240 H3232 0.929 . S
C3240 C3241 1.377 . S
C3240 C3242 1.384 . S
C3241 C3240 1.377 . S
C3241 C3247 1.390 . S
C3242 H3233 0.930 . S
C3242 C3240 1.384 . S
C3242 C3243 1.372 . S
C3243 C3242 1.372 . S
C3243 C3244 1.400 . S
C3243 C3248 1.490 . S
C3244 H3234 0.930 . S
C3244 C3243 1.400 . S
C3244 C3247 1.386 . S
H3245 C3261 0.930 . S
H3246 C3262 0.931 . S
C3247 H3235 0.929 . S
C3247 C3241 1.390 . S
C3247 C3244 1.386 . S
C3248 C3243 1.490 . S
C3248 C3250 1.395 . S
C3248 C3251 1.403 . S
H3249 C3255 0.930 . S
C3250 H3236 0.930 . S
C3250 C3248 1.395 . S
C3250 C3253 1.403 . S
C3251 C3248 1.403 . S
C3251 C3252 1.524 . S
C3251 C3255 1.400 . S
C3252 H3237 0.960 . S
C3252 H3238 0.960 . S
C3252 H3239 0.960 . S
C3252 C3251 1.524 . S
C3253 C3250 1.403 . S
C3253 C3254 1.392 . S
C3253 C3257 1.495 . S
C3254 C3253 1.392 . S
C3254 C3255 1.385 . S
C3254 C3256 1.478 . S
C3255 H3249 0.930 . S
C3255 C3251 1.400 . S
C3255 C3254 1.385 . S
C3256 C3254 1.478 . S
C3256 C3258 1.381 . S
C3256 C3262 1.383 . S
C3257 C3253 1.495 . S
C3257 H3263 0.959 . S
C3257 H3264 0.961 . S
C3257 H3265 0.960 . S
C3258 C3256 1.381 . S
C3258 C3259 1.394 . S
C3258 H3266 0.930 . S
C3259 C3258 1.394 . S
C3259 C3260 1.383 . S
C3259 H3267 0.929 . S
C3260 C3259 1.383 . S
C3260 C3261 1.377 . S
C3261 H3245 0.930 . S
C3261 C3260 1.377 . S
C3261 C3262 1.379 . S
C3262 H3246 0.931 . S
C3262 C3256 1.383 . S
C3262 C3261 1.379 . S
H3263 C3257 0.959 . S
H3264 C3257 0.961 . S
H3265 C3257 0.960 . S
H3266 C3258 0.930 . S
H3267 C3259 0.929 . S
H3268 C3276 0.929 . S
H3269 C3278 0.930 . S
H3270 C3280 0.930 . S
H3271 C3283 0.929 . S
H3272 C3286 0.930 . S
H3273 C3288 0.960 . S
H3274 C3288 0.960 . S
H3275 C3288 0.960 . S
C3276 H3268 0.929 . S
C3276 C3277 1.377 . S
C3276 C3278 1.384 . S
C3277 C3276 1.377 . S
C3277 C3283 1.390 . S
C3278 H3269 0.930 . S
C3278 C3276 1.384 . S
C3278 C3279 1.372 . S
C3279 C3278 1.372 . S
C3279 C3280 1.400 . S
C3279 C3284 1.490 . S
C3280 H3270 0.930 . S
C3280 C3279 1.400 . S
C3280 C3283 1.386 . S
H3281 C3297 0.930 . S
H3282 C3298 0.931 . S
C3283 H3271 0.929 . S
C3283 C3277 1.390 . S
C3283 C3280 1.386 . S
C3284 C3279 1.490 . S
C3284 C3286 1.395 . S
C3284 C3287 1.403 . S
H3285 C3291 0.930 . S
C3286 H3272 0.930 . S
C3286 C3284 1.395 . S
C3286 C3289 1.403 . S
C3287 C3284 1.403 . S
C3287 C3288 1.524 . S
C3287 C3291 1.400 . S
C3288 H3273 0.960 . S
C3288 H3274 0.960 . S
C3288 H3275 0.960 . S
C3288 C3287 1.524 . S
C3289 C3286 1.403 . S
C3289 C3290 1.392 . S
C3289 C3293 1.495 . S
C3290 C3289 1.392 . S
C3290 C3291 1.385 . S
C3290 C3292 1.478 . S
C3291 H3285 0.930 . S
C3291 C3287 1.400 . S
C3291 C3290 1.385 . S
C3292 C3290 1.478 . S
C3292 C3294 1.381 . S
C3292 C3298 1.383 . S
C3293 C3289 1.495 . S
C3293 H3299 0.959 . S
C3293 H3300 0.961 . S
C3293 H3301 0.960 . S
C3294 C3292 1.381 . S
C3294 C3295 1.394 . S
C3294 H3302 0.930 . S
C3295 C3294 1.394 . S
C3295 C3296 1.383 . S
C3295 H3303 0.929 . S
C3296 C3295 1.383 . S
C3296 C3297 1.377 . S
C3297 H3281 0.930 . S
C3297 C3296 1.377 . S
C3297 C3298 1.379 . S
C3298 H3282 0.931 . S
C3298 C3292 1.383 . S
C3298 C3297 1.379 . S
H3299 C3293 0.959 . S
H3300 C3293 0.961 . S
H3301 C3293 0.960 . S
H3302 C3294 0.930 . S
H3303 C3295 0.929 . S
H3304 C3312 0.929 . S
H3305 C3314 0.930 . S
H3306 C3316 0.930 . S
H3307 C3319 0.929 . S
H3308 C3322 0.930 . S
H3309 C3324 0.960 . S
H3310 C3324 0.960 . S
H3311 C3324 0.960 . S
C3312 H3304 0.929 . S
C3312 C3313 1.377 . S
C3312 C3314 1.384 . S
C3313 C3312 1.377 . S
C3313 C3319 1.390 . S
C3314 H3305 0.930 . S
C3314 C3312 1.384 . S
C3314 C3315 1.372 . S
C3315 C3314 1.372 . S
C3315 C3316 1.400 . S
C3315 C3320 1.490 . S
C3316 H3306 0.930 . S
C3316 C3315 1.400 . S
C3316 C3319 1.386 . S
H3317 C3333 0.930 . S
H3318 C3334 0.931 . S
C3319 H3307 0.929 . S
C3319 C3313 1.390 . S
C3319 C3316 1.386 . S
C3320 C3315 1.490 . S
C3320 C3322 1.395 . S
C3320 C3323 1.403 . S
H3321 C3327 0.930 . S
C3322 H3308 0.930 . S
C3322 C3320 1.395 . S
C3322 C3325 1.403 . S
C3323 C3320 1.403 . S
C3323 C3324 1.524 . S
C3323 C3327 1.400 . S
C3324 H3309 0.960 . S
C3324 H3310 0.960 . S
C3324 H3311 0.960 . S
C3324 C3323 1.524 . S
C3325 C3322 1.403 . S
C3325 C3326 1.392 . S
C3325 C3329 1.495 . S
C3326 C3325 1.392 . S
C3326 C3327 1.385 . S
C3326 C3328 1.478 . S
C3327 H3321 0.930 . S
C3327 C3323 1.400 . S
C3327 C3326 1.385 . S
C3328 C3326 1.478 . S
C3328 C3330 1.381 . S
C3328 C3334 1.383 . S
C3329 C3325 1.495 . S
C3329 H3335 0.959 . S
C3329 H3336 0.961 . S
C3329 H3337 0.960 . S
C3330 C3328 1.381 . S
C3330 C3331 1.394 . S
C3330 H3338 0.930 . S
C3331 C3330 1.394 . S
C3331 C3332 1.383 . S
C3331 H3339 0.929 . S
C3332 C3331 1.383 . S
C3332 C3333 1.377 . S
C3333 H3317 0.930 . S
C3333 C3332 1.377 . S
C3333 C3334 1.379 . S
C3334 H3318 0.931 . S
C3334 C3328 1.383 . S
C3334 C3333 1.379 . S
H3335 C3329 0.959 . S
H3336 C3329 0.961 . S
H3337 C3329 0.960 . S
H3338 C3330 0.930 . S
H3339 C3331 0.929 . S
H3340 C3348 0.929 . S
H3341 C3350 0.930 . S
H3342 C3352 0.930 . S
H3343 C3355 0.929 . S
H3344 C3358 0.930 . S
H3345 C3360 0.960 . S
H3346 C3360 0.960 . S
H3347 C3360 0.960 . S
C3348 H3340 0.929 . S
C3348 C3349 1.377 . S
C3348 C3350 1.384 . S
C3349 C3348 1.377 . S
C3349 C3355 1.390 . S
C3350 H3341 0.930 . S
C3350 C3348 1.384 . S
C3350 C3351 1.372 . S
C3351 C3350 1.372 . S
C3351 C3352 1.400 . S
C3351 C3356 1.490 . S
C3352 H3342 0.930 . S
C3352 C3351 1.400 . S
C3352 C3355 1.386 . S
H3353 C3369 0.930 . S
H3354 C3370 0.931 . S
C3355 H3343 0.929 . S
C3355 C3349 1.390 . S
C3355 C3352 1.386 . S
C3356 C3351 1.490 . S
C3356 C3358 1.395 . S
C3356 C3359 1.403 . S
H3357 C3363 0.930 . S
C3358 H3344 0.930 . S
C3358 C3356 1.395 . S
C3358 C3361 1.403 . S
C3359 C3356 1.403 . S
C3359 C3360 1.524 . S
C3359 C3363 1.400 . S
C3360 H3345 0.960 . S
C3360 H3346 0.960 . S
C3360 H3347 0.960 . S
C3360 C3359 1.524 . S
C3361 C3358 1.403 . S
C3361 C3362 1.392 . S
C3361 C3365 1.495 . S
C3362 C3361 1.392 . S
C3362 C3363 1.385 . S
C3362 C3364 1.478 . S
C3363 H3357 0.930 . S
C3363 C3359 1.400 . S
C3363 C3362 1.385 . S
C3364 C3362 1.478 . S
C3364 C3366 1.381 . S
C3364 C3370 1.383 . S
C3365 C3361 1.495 . S
C3365 H3371 0.959 . S
C3365 H3372 0.961 . S
C3365 H3373 0.960 . S
C3366 C3364 1.381 . S
C3366 C3367 1.394 . S
C3366 H3374 0.930 . S
C3367 C3366 1.394 . S
C3367 C3368 1.383 . S
C3367 H3375 0.929 . S
C3368 C3367 1.383 . S
C3368 C3369 1.377 . S
C3369 H3353 0.930 . S
C3369 C3368 1.377 . S
C3369 C3370 1.379 . S
C3370 H3354 0.931 . S
C3370 C3364 1.383 . S
C3370 C3369 1.379 . S
H3371 C3365 0.959 . S
H3372 C3365 0.961 . S
H3373 C3365 0.960 . S
H3374 C3366 0.930 . S
H3375 C3367 0.929 . S
H3376 C3384 0.929 . S
H3377 C3386 0.930 . S
H3378 C3388 0.930 . S
H3379 C3391 0.929 . S
H3380 C3394 0.930 . S
H3381 C3396 0.960 . S
H3382 C3396 0.960 . S
H3383 C3396 0.960 . S
C3384 H3376 0.929 . S
C3384 C3385 1.377 . S
C3384 C3386 1.384 . S
C3385 C3384 1.377 . S
C3385 C3391 1.390 . S
C3386 H3377 0.930 . S
C3386 C3384 1.384 . S
C3386 C3387 1.372 . S
C3387 C3386 1.372 . S
C3387 C3388 1.400 . S
C3387 C3392 1.490 . S
C3388 H3378 0.930 . S
C3388 C3387 1.400 . S
C3388 C3391 1.386 . S
H3389 C3405 0.930 . S
H3390 C3406 0.931 . S
C3391 H3379 0.929 . S
C3391 C3385 1.390 . S
C3391 C3388 1.386 . S
C3392 C3387 1.490 . S
C3392 C3394 1.395 . S
C3392 C3395 1.403 . S
H3393 C3399 0.930 . S
C3394 H3380 0.930 . S
C3394 C3392 1.395 . S
C3394 C3397 1.403 . S
C3395 C3392 1.403 . S
C3395 C3396 1.524 . S
C3395 C3399 1.400 . S
C3396 H3381 0.960 . S
C3396 H3382 0.960 . S
C3396 H3383 0.960 . S
C3396 C3395 1.524 . S
C3397 C3394 1.403 . S
C3397 C3398 1.392 . S
C3397 C3401 1.495 . S
C3398 C3397 1.392 . S
C3398 C3399 1.385 . S
C3398 C3400 1.478 . S
C3399 H3393 0.930 . S
C3399 C3395 1.400 . S
C3399 C3398 1.385 . S
C3400 C3398 1.478 . S
C3400 C3402 1.381 . S
C3400 C3406 1.383 . S
C3401 C3397 1.495 . S
C3401 H3407 0.959 . S
C3401 H3408 0.961 . S
C3401 H3409 0.960 . S
C3402 C3400 1.381 . S
C3402 C3403 1.394 . S
C3402 H3410 0.930 . S
C3403 C3402 1.394 . S
C3403 C3404 1.383 . S
C3403 H3411 0.929 . S
C3404 C3403 1.383 . S
C3404 C3405 1.377 . S
C3405 H3389 0.930 . S
C3405 C3404 1.377 . S
C3405 C3406 1.379 . S
C3406 H3390 0.931 . S
C3406 C3400 1.383 . S
C3406 C3405 1.379 . S
H3407 C3401 0.959 . S
H3408 C3401 0.961 . S
H3409 C3401 0.960 . S
H3410 C3402 0.930 . S
H3411 C3403 0.929 . S
H3412 C3420 0.929 . S
H3413 C3422 0.930 . S
H3414 C3424 0.930 . S
H3415 C3427 0.929 . S
H3416 C3430 0.930 . S
H3417 C3432 0.960 . S
H3418 C3432 0.960 . S
H3419 C3432 0.960 . S
C3420 H3412 0.929 . S
C3420 C3421 1.377 . S
C3420 C3422 1.384 . S
C3421 C3420 1.377 . S
C3421 C3427 1.390 . S
C3422 H3413 0.930 . S
C3422 C3420 1.384 . S
C3422 C3423 1.372 . S
C3423 C3422 1.372 . S
C3423 C3424 1.400 . S
C3423 C3428 1.490 . S
C3424 H3414 0.930 . S
C3424 C3423 1.400 . S
C3424 C3427 1.386 . S
H3425 C3441 0.930 . S
H3426 C3442 0.931 . S
C3427 H3415 0.929 . S
C3427 C3421 1.390 . S
C3427 C3424 1.386 . S
C3428 C3423 1.490 . S
C3428 C3430 1.395 . S
C3428 C3431 1.403 . S
H3429 C3435 0.930 . S
C3430 H3416 0.930 . S
C3430 C3428 1.395 . S
C3430 C3433 1.403 . S
C3431 C3428 1.403 . S
C3431 C3432 1.524 . S
C3431 C3435 1.400 . S
C3432 H3417 0.960 . S
C3432 H3418 0.960 . S
C3432 H3419 0.960 . S
C3432 C3431 1.524 . S
C3433 C3430 1.403 . S
C3433 C3434 1.392 . S
C3433 C3437 1.495 . S
C3434 C3433 1.392 . S
C3434 C3435 1.385 . S
C3434 C3436 1.478 . S
C3435 H3429 0.930 . S
C3435 C3431 1.400 . S
C3435 C3434 1.385 . S
C3436 C3434 1.478 . S
C3436 C3438 1.381 . S
C3436 C3442 1.383 . S
C3437 C3433 1.495 . S
C3437 H3443 0.959 . S
C3437 H3444 0.961 . S
C3437 H3445 0.960 . S
C3438 C3436 1.381 . S
C3438 C3439 1.394 . S
C3438 H3446 0.930 . S
C3439 C3438 1.394 . S
C3439 C3440 1.383 . S
C3439 H3447 0.929 . S
C3440 C3439 1.383 . S
C3440 C3441 1.377 . S
C3441 H3425 0.930 . S
C3441 C3440 1.377 . S
C3441 C3442 1.379 . S
C3442 H3426 0.931 . S
C3442 C3436 1.383 . S
C3442 C3441 1.379 . S
H3443 C3437 0.959 . S
H3444 C3437 0.961 . S
H3445 C3437 0.960 . S
H3446 C3438 0.930 . S
H3447 C3439 0.929 . S
H3448 C3456 0.929 . S
H3449 C3458 0.930 . S
H3450 C3460 0.930 . S
H3451 C3463 0.929 . S
H3452 C3466 0.930 . S
H3453 C3468 0.960 . S
H3454 C3468 0.960 . S
H3455 C3468 0.960 . S
C3456 H3448 0.929 . S
C3456 C3457 1.377 . S
C3456 C3458 1.384 . S
C3457 C3456 1.377 . S
C3457 C3463 1.390 . S
C3458 H3449 0.930 . S
C3458 C3456 1.384 . S
C3458 C3459 1.372 . S
C3459 C3458 1.372 . S
C3459 C3460 1.400 . S
C3459 C3464 1.490 . S
C3460 H3450 0.930 . S
C3460 C3459 1.400 . S
C3460 C3463 1.386 . S
H3461 C3477 0.930 . S
H3462 C3478 0.931 . S
C3463 H3451 0.929 . S
C3463 C3457 1.390 . S
C3463 C3460 1.386 . S
C3464 C3459 1.490 . S
C3464 C3466 1.395 . S
C3464 C3467 1.403 . S
H3465 C3471 0.930 . S
C3466 H3452 0.930 . S
C3466 C3464 1.395 . S
C3466 C3469 1.403 . S
C3467 C3464 1.403 . S
C3467 C3468 1.524 . S
C3467 C3471 1.400 . S
C3468 H3453 0.960 . S
C3468 H3454 0.960 . S
C3468 H3455 0.960 . S
C3468 C3467 1.524 . S
C3469 C3466 1.403 . S
C3469 C3470 1.392 . S
C3469 C3473 1.495 . S
C3470 C3469 1.392 . S
C3470 C3471 1.385 . S
C3470 C3472 1.478 . S
C3471 H3465 0.930 . S
C3471 C3467 1.400 . S
C3471 C3470 1.385 . S
C3472 C3470 1.478 . S
C3472 C3474 1.381 . S
C3472 C3478 1.383 . S
C3473 C3469 1.495 . S
C3473 H3479 0.959 . S
C3473 H3480 0.961 . S
C3473 H3481 0.960 . S
C3474 C3472 1.381 . S
C3474 C3475 1.394 . S
C3474 H3482 0.930 . S
C3475 C3474 1.394 . S
C3475 C3476 1.383 . S
C3475 H3483 0.929 . S
C3476 C3475 1.383 . S
C3476 C3477 1.377 . S
C3477 H3461 0.930 . S
C3477 C3476 1.377 . S
C3477 C3478 1.379 . S
C3478 H3462 0.931 . S
C3478 C3472 1.383 . S
C3478 C3477 1.379 . S
H3479 C3473 0.959 . S
H3480 C3473 0.961 . S
H3481 C3473 0.960 . S
H3482 C3474 0.930 . S
H3483 C3475 0.929 . S
H3484 C3492 0.929 . S
H3485 C3494 0.930 . S
H3486 C3496 0.930 . S
H3487 C3499 0.929 . S
H3488 C3502 0.930 . S
H3489 C3504 0.960 . S
H3490 C3504 0.960 . S
H3491 C3504 0.960 . S
C3492 H3484 0.929 . S
C3492 C3493 1.377 . S
C3492 C3494 1.384 . S
C3493 C3492 1.377 . S
C3493 C3499 1.390 . S
C3494 H3485 0.930 . S
C3494 C3492 1.384 . S
C3494 C3495 1.372 . S
C3495 C3494 1.372 . S
C3495 C3496 1.400 . S
C3495 C3500 1.490 . S
C3496 H3486 0.930 . S
C3496 C3495 1.400 . S
C3496 C3499 1.386 . S
H3497 C3513 0.930 . S
H3498 C3514 0.931 . S
C3499 H3487 0.929 . S
C3499 C3493 1.390 . S
C3499 C3496 1.386 . S
C3500 C3495 1.490 . S
C3500 C3502 1.395 . S
C3500 C3503 1.403 . S
H3501 C3507 0.930 . S
C3502 H3488 0.930 . S
C3502 C3500 1.395 . S
C3502 C3505 1.403 . S
C3503 C3500 1.403 . S
C3503 C3504 1.524 . S
C3503 C3507 1.400 . S
C3504 H3489 0.960 . S
C3504 H3490 0.960 . S
C3504 H3491 0.960 . S
C3504 C3503 1.524 . S
C3505 C3502 1.403 . S
C3505 C3506 1.392 . S
C3505 C3509 1.495 . S
C3506 C3505 1.392 . S
C3506 C3507 1.385 . S
C3506 C3508 1.478 . S
C3507 H3501 0.930 . S
C3507 C3503 1.400 . S
C3507 C3506 1.385 . S
C3508 C3506 1.478 . S
C3508 C3510 1.381 . S
C3508 C3514 1.383 . S
C3509 C3505 1.495 . S
C3509 H3515 0.959 . S
C3509 H3516 0.961 . S
C3509 H3517 0.960 . S
C3510 C3508 1.381 . S
C3510 C3511 1.394 . S
C3510 H3518 0.930 . S
C3511 C3510 1.394 . S
C3511 C3512 1.383 . S
C3511 H3519 0.929 . S
C3512 C3511 1.383 . S
C3512 C3513 1.377 . S
C3513 H3497 0.930 . S
C3513 C3512 1.377 . S
C3513 C3514 1.379 . S
C3514 H3498 0.931 . S
C3514 C3508 1.383 . S
C3514 C3513 1.379 . S
H3515 C3509 0.959 . S
H3516 C3509 0.961 . S
H3517 C3509 0.960 . S
H3518 C3510 0.930 . S
H3519 C3511 0.929 . S
H3520 C3528 0.929 . S
H3521 C3530 0.930 . S
H3522 C3532 0.930 . S
H3523 C3535 0.929 . S
H3524 C3538 0.930 . S
H3525 C3540 0.960 . S
H3526 C3540 0.960 . S
H3527 C3540 0.960 . S
C3528 H3520 0.929 . S
C3528 C3529 1.377 . S
C3528 C3530 1.384 . S
C3529 C3528 1.377 . S
C3529 C3535 1.390 . S
C3530 H3521 0.930 . S
C3530 C3528 1.384 . S
C3530 C3531 1.372 . S
C3531 C3530 1.372 . S
C3531 C3532 1.400 . S
C3531 C3536 1.490 . S
C3532 H3522 0.930 . S
C3532 C3531 1.400 . S
C3532 C3535 1.386 . S
H3533 C3549 0.930 . S
H3534 C3550 0.931 . S
C3535 H3523 0.929 . S
C3535 C3529 1.390 . S
C3535 C3532 1.386 . S
C3536 C3531 1.490 . S
C3536 C3538 1.395 . S
C3536 C3539 1.403 . S
H3537 C3543 0.930 . S
C3538 H3524 0.930 . S
C3538 C3536 1.395 . S
C3538 C3541 1.403 . S
C3539 C3536 1.403 . S
C3539 C3540 1.524 . S
C3539 C3543 1.400 . S
C3540 H3525 0.960 . S
C3540 H3526 0.960 . S
C3540 H3527 0.960 . S
C3540 C3539 1.524 . S
C3541 C3538 1.403 . S
C3541 C3542 1.392 . S
C3541 C3545 1.495 . S
C3542 C3541 1.392 . S
C3542 C3543 1.385 . S
C3542 C3544 1.478 . S
C3543 H3537 0.930 . S
C3543 C3539 1.400 . S
C3543 C3542 1.385 . S
C3544 C3542 1.478 . S
C3544 C3546 1.381 . S
C3544 C3550 1.383 . S
C3545 C3541 1.495 . S
C3545 H3551 0.959 . S
C3545 H3552 0.961 . S
C3545 H3553 0.960 . S
C3546 C3544 1.381 . S
C3546 C3547 1.394 . S
C3546 H3554 0.930 . S
C3547 C3546 1.394 . S
C3547 C3548 1.383 . S
C3547 H3555 0.929 . S
C3548 C3547 1.383 . S
C3548 C3549 1.377 . S
C3549 H3533 0.930 . S
C3549 C3548 1.377 . S
C3549 C3550 1.379 . S
C3550 H3534 0.931 . S
C3550 C3544 1.383 . S
C3550 C3549 1.379 . S
H3551 C3545 0.959 . S
H3552 C3545 0.961 . S
H3553 C3545 0.960 . S
H3554 C3546 0.930 . S
H3555 C3547 0.929 . S
H3556 C3564 0.929 . S
H3557 C3566 0.930 . S
H3558 C3568 0.930 . S
H3559 C3571 0.929 . S
H3560 C3574 0.930 . S
H3561 C3576 0.960 . S
H3562 C3576 0.960 . S
H3563 C3576 0.960 . S
C3564 H3556 0.929 . S
C3564 C3565 1.377 . S
C3564 C3566 1.384 . S
C3565 C3564 1.377 . S
C3565 C3571 1.390 . S
C3566 H3557 0.930 . S
C3566 C3564 1.384 . S
C3566 C3567 1.372 . S
C3567 C3566 1.372 . S
C3567 C3568 1.400 . S
C3567 C3572 1.490 . S
C3568 H3558 0.930 . S
C3568 C3567 1.400 . S
C3568 C3571 1.386 . S
H3569 C3585 0.930 . S
H3570 C3586 0.931 . S
C3571 H3559 0.929 . S
C3571 C3565 1.390 . S
C3571 C3568 1.386 . S
C3572 C3567 1.490 . S
C3572 C3574 1.395 . S
C3572 C3575 1.403 . S
H3573 C3579 0.930 . S
C3574 H3560 0.930 . S
C3574 C3572 1.395 . S
C3574 C3577 1.403 . S
C3575 C3572 1.403 . S
C3575 C3576 1.524 . S
C3575 C3579 1.400 . S
C3576 H3561 0.960 . S
C3576 H3562 0.960 . S
C3576 H3563 0.960 . S
C3576 C3575 1.524 . S
C3577 C3574 1.403 . S
C3577 C3578 1.392 . S
C3577 C3581 1.495 . S
C3578 C3577 1.392 . S
C3578 C3579 1.385 . S
C3578 C3580 1.478 . S
C3579 H3573 0.930 . S
C3579 C3575 1.400 . S
C3579 C3578 1.385 . S
C3580 C3578 1.478 . S
C3580 C3582 1.381 . S
C3580 C3586 1.383 . S
C3581 C3577 1.495 . S
C3581 H3587 0.959 . S
C3581 H3588 0.961 . S
C3581 H3589 0.960 . S
C3582 C3580 1.381 . S
C3582 C3583 1.394 . S
C3582 H3590 0.930 . S
C3583 C3582 1.394 . S
C3583 C3584 1.383 . S
C3583 H3591 0.929 . S
C3584 C3583 1.383 . S
C3584 C3585 1.377 . S
C3585 H3569 0.930 . S
C3585 C3584 1.377 . S
C3585 C3586 1.379 . S
C3586 H3570 0.931 . S
C3586 C3580 1.383 . S
C3586 C3585 1.379 . S
H3587 C3581 0.959 . S
H3588 C3581 0.961 . S
H3589 C3581 0.960 . S
H3590 C3582 0.930 . S
H3591 C3583 0.929 . S
H3592 C3600 0.929 . S
H3593 C3602 0.930 . S
H3594 C3604 0.930 . S
H3595 C3607 0.929 . S
H3596 C3610 0.930 . S
H3597 C3612 0.960 . S
H3598 C3612 0.960 . S
H3599 C3612 0.960 . S
C3600 H3592 0.929 . S
C3600 C3601 1.377 . S
C3600 C3602 1.384 . S
C3601 C3600 1.377 . S
C3601 C3607 1.390 . S
C3602 H3593 0.930 . S
C3602 C3600 1.384 . S
C3602 C3603 1.372 . S
C3603 C3602 1.372 . S
C3603 C3604 1.400 . S
C3603 C3608 1.490 . S
C3604 H3594 0.930 . S
C3604 C3603 1.400 . S
C3604 C3607 1.386 . S
H3605 C3621 0.930 . S
H3606 C3622 0.931 . S
C3607 H3595 0.929 . S
C3607 C3601 1.390 . S
C3607 C3604 1.386 . S
C3608 C3603 1.490 . S
C3608 C3610 1.395 . S
C3608 C3611 1.403 . S
H3609 C3615 0.930 . S
C3610 H3596 0.930 . S
C3610 C3608 1.395 . S
C3610 C3613 1.403 . S
C3611 C3608 1.403 . S
C3611 C3612 1.524 . S
C3611 C3615 1.400 . S
C3612 H3597 0.960 . S
C3612 H3598 0.960 . S
C3612 H3599 0.960 . S
C3612 C3611 1.524 . S
C3613 C3610 1.403 . S
C3613 C3614 1.392 . S
C3613 C3617 1.495 . S
C3614 C3613 1.392 . S
C3614 C3615 1.385 . S
C3614 C3616 1.478 . S
C3615 H3609 0.930 . S
C3615 C3611 1.400 . S
C3615 C3614 1.385 . S
C3616 C3614 1.478 . S
C3616 C3618 1.381 . S
C3616 C3622 1.383 . S
C3617 C3613 1.495 . S
C3617 H3623 0.959 . S
C3617 H3624 0.961 . S
C3617 H3625 0.960 . S
C3618 C3616 1.381 . S
C3618 C3619 1.394 . S
C3618 H3626 0.930 . S
C3619 C3618 1.394 . S
C3619 C3620 1.383 . S
C3619 H3627 0.929 . S
C3620 C3619 1.383 . S
C3620 C3621 1.377 . S
C3621 H3605 0.930 . S
C3621 C3620 1.377 . S
C3621 C3622 1.379 . S
C3622 H3606 0.931 . S
C3622 C3616 1.383 . S
C3622 C3621 1.379 . S
H3623 C3617 0.959 . S
H3624 C3617 0.961 . S
H3625 C3617 0.960 . S
H3626 C3618 0.930 . S
H3627 C3619 0.929 . S
H3628 C3636 0.929 . S
H3629 C3638 0.930 . S
H3630 C3640 0.930 . S
H3631 C3643 0.929 . S
H3632 C3646 0.930 . S
H3633 C3648 0.960 . S
H3634 C3648 0.960 . S
H3635 C3648 0.960 . S
C3636 H3628 0.929 . S
C3636 C3637 1.377 . S
C3636 C3638 1.384 . S
C3637 C3636 1.377 . S
C3637 C3643 1.390 . S
C3638 H3629 0.930 . S
C3638 C3636 1.384 . S
C3638 C3639 1.372 . S
C3639 C3638 1.372 . S
C3639 C3640 1.400 . S
C3639 C3644 1.490 . S
C3640 H3630 0.930 . S
C3640 C3639 1.400 . S
C3640 C3643 1.386 . S
H3641 C3657 0.930 . S
H3642 C3658 0.931 . S
C3643 H3631 0.929 . S
C3643 C3637 1.390 . S
C3643 C3640 1.386 . S
C3644 C3639 1.490 . S
C3644 C3646 1.395 . S
C3644 C3647 1.403 . S
H3645 C3651 0.930 . S
C3646 H3632 0.930 . S
C3646 C3644 1.395 . S
C3646 C3649 1.403 . S
C3647 C3644 1.403 . S
C3647 C3648 1.524 . S
C3647 C3651 1.400 . S
C3648 H3633 0.960 . S
C3648 H3634 0.960 . S
C3648 H3635 0.960 . S
C3648 C3647 1.524 . S
C3649 C3646 1.403 . S
C3649 C3650 1.392 . S
C3649 C3653 1.495 . S
C3650 C3649 1.392 . S
C3650 C3651 1.385 . S
C3650 C3652 1.478 . S
C3651 H3645 0.930 . S
C3651 C3647 1.400 . S
C3651 C3650 1.385 . S
C3652 C3650 1.478 . S
C3652 C3654 1.381 . S
C3652 C3658 1.383 . S
C3653 C3649 1.495 . S
C3653 H3659 0.959 . S
C3653 H3660 0.961 . S
C3653 H3661 0.960 . S
C3654 C3652 1.381 . S
C3654 C3655 1.394 . S
C3654 H3662 0.930 . S
C3655 C3654 1.394 . S
C3655 C3656 1.383 . S
C3655 H3663 0.929 . S
C3656 C3655 1.383 . S
C3656 C3657 1.377 . S
C3657 H3641 0.930 . S
C3657 C3656 1.377 . S
C3657 C3658 1.379 . S
C3658 H3642 0.931 . S
C3658 C3652 1.383 . S
C3658 C3657 1.379 . S
H3659 C3653 0.959 . S
H3660 C3653 0.961 . S
H3661 C3653 0.960 . S
H3662 C3654 0.930 . S
H3663 C3655 0.929 . S
H3664 C3672 0.929 . S
H3665 C3674 0.930 . S
H3666 C3676 0.930 . S
H3667 C3679 0.929 . S
H3668 C3682 0.930 . S
H3669 C3684 0.960 . S
H3670 C3684 0.960 . S
H3671 C3684 0.960 . S
C3672 H3664 0.929 . S
C3672 C3673 1.377 . S
C3672 C3674 1.384 . S
C3673 C3672 1.377 . S
C3673 C3679 1.390 . S
C3674 H3665 0.930 . S
C3674 C3672 1.384 . S
C3674 C3675 1.372 . S
C3675 C3674 1.372 . S
C3675 C3676 1.400 . S
C3675 C3680 1.490 . S
C3676 H3666 0.930 . S
C3676 C3675 1.400 . S
C3676 C3679 1.386 . S
H3677 C3693 0.930 . S
H3678 C3694 0.931 . S
C3679 H3667 0.929 . S
C3679 C3673 1.390 . S
C3679 C3676 1.386 . S
C3680 C3675 1.490 . S
C3680 C3682 1.395 . S
C3680 C3683 1.403 . S
H3681 C3687 0.930 . S
C3682 H3668 0.930 . S
C3682 C3680 1.395 . S
C3682 C3685 1.403 . S
C3683 C3680 1.403 . S
C3683 C3684 1.524 . S
C3683 C3687 1.400 . S
C3684 H3669 0.960 . S
C3684 H3670 0.960 . S
C3684 H3671 0.960 . S
C3684 C3683 1.524 . S
C3685 C3682 1.403 . S
C3685 C3686 1.392 . S
C3685 C3689 1.495 . S
C3686 C3685 1.392 . S
C3686 C3687 1.385 . S
C3686 C3688 1.478 . S
C3687 H3681 0.930 . S
C3687 C3683 1.400 . S
C3687 C3686 1.385 . S
C3688 C3686 1.478 . S
C3688 C3690 1.381 . S
C3688 C3694 1.383 . S
C3689 C3685 1.495 . S
C3689 H3695 0.959 . S
C3689 H3696 0.961 . S
C3689 H3697 0.960 . S
C3690 C3688 1.381 . S
C3690 C3691 1.394 . S
C3690 H3698 0.930 . S
C3691 C3690 1.394 . S
C3691 C3692 1.383 . S
C3691 H3699 0.929 . S
C3692 C3691 1.383 . S
C3692 C3693 1.377 . S
C3693 H3677 0.930 . S
C3693 C3692 1.377 . S
C3693 C3694 1.379 . S
C3694 H3678 0.931 . S
C3694 C3688 1.383 . S
C3694 C3693 1.379 . S
H3695 C3689 0.959 . S
H3696 C3689 0.961 . S
H3697 C3689 0.960 . S
H3698 C3690 0.930 . S
H3699 C3691 0.929 . S
H3700 C3708 0.929 . S
H3701 C3710 0.930 . S
H3702 C3712 0.930 . S
H3703 C3715 0.929 . S
H3704 C3718 0.930 . S
H3705 C3720 0.960 . S
H3706 C3720 0.960 . S
H3707 C3720 0.960 . S
C3708 H3700 0.929 . S
C3708 C3709 1.377 . S
C3708 C3710 1.384 . S
C3709 C3708 1.377 . S
C3709 C3715 1.390 . S
C3710 H3701 0.930 . S
C3710 C3708 1.384 . S
C3710 C3711 1.372 . S
C3711 C3710 1.372 . S
C3711 C3712 1.400 . S
C3711 C3716 1.490 . S
C3712 H3702 0.930 . S
C3712 C3711 1.400 . S
C3712 C3715 1.386 . S
H3713 C3729 0.930 . S
H3714 C3730 0.931 . S
C3715 H3703 0.929 . S
C3715 C3709 1.390 . S
C3715 C3712 1.386 . S
C3716 C3711 1.490 . S
C3716 C3718 1.395 . S
C3716 C3719 1.403 . S
H3717 C3723 0.930 . S
C3718 H3704 0.930 . S
C3718 C3716 1.395 . S
C3718 C3721 1.403 . S
C3719 C3716 1.403 . S
C3719 C3720 1.524 . S
C3719 C3723 1.400 . S
C3720 H3705 0.960 . S
C3720 H3706 0.960 . S
C3720 H3707 0.960 . S
C3720 C3719 1.524 . S
C3721 C3718 1.403 . S
C3721 C3722 1.392 . S
C3721 C3725 1.495 . S
C3722 C3721 1.392 . S
C3722 C3723 1.385 . S
C3722 C3724 1.478 . S
C3723 H3717 0.930 . S
C3723 C3719 1.400 . S
C3723 C3722 1.385 . S
C3724 C3722 1.478 . S
C3724 C3726 1.381 . S
C3724 C3730 1.383 . S
C3725 C3721 1.495 . S
C3725 H3731 0.959 . S
C3725 H3732 0.961 . S
C3725 H3733 0.960 . S
C3726 C3724 1.381 . S
C3726 C3727 1.394 . S
C3726 H3734 0.930 . S
C3727 C3726 1.394 . S
C3727 C3728 1.383 . S
C3727 H3735 0.929 . S
C3728 C3727 1.383 . S
C3728 C3729 1.377 . S
C3729 H3713 0.930 . S
C3729 C3728 1.377 . S
C3729 C3730 1.379 . S
C3730 H3714 0.931 . S
C3730 C3724 1.383 . S
C3730 C3729 1.379 . S
H3731 C3725 0.959 . S
H3732 C3725 0.961 . S
H3733 C3725 0.960 . S
H3734 C3726 0.930 . S
H3735 C3727 0.929 . S
H3736 C3744 0.929 . S
H3737 C3746 0.930 . S
H3738 C3748 0.930 . S
H3739 C3751 0.929 . S
H3740 C3754 0.930 . S
H3741 C3756 0.960 . S
H3742 C3756 0.960 . S
H3743 C3756 0.960 . S
C3744 H3736 0.929 . S
C3744 C3745 1.377 . S
C3744 C3746 1.384 . S
C3745 C3744 1.377 . S
C3745 C3751 1.390 . S
C3746 H3737 0.930 . S
C3746 C3744 1.384 . S
C3746 C3747 1.372 . S
C3747 C3746 1.372 . S
C3747 C3748 1.400 . S
C3747 C3752 1.490 . S
C3748 H3738 0.930 . S
C3748 C3747 1.400 . S
C3748 C3751 1.386 . S
H3749 C3765 0.930 . S
H3750 C3766 0.931 . S
C3751 H3739 0.929 . S
C3751 C3745 1.390 . S
C3751 C3748 1.386 . S
C3752 C3747 1.490 . S
C3752 C3754 1.395 . S
C3752 C3755 1.403 . S
H3753 C3759 0.930 . S
C3754 H3740 0.930 . S
C3754 C3752 1.395 . S
C3754 C3757 1.403 . S
C3755 C3752 1.403 . S
C3755 C3756 1.524 . S
C3755 C3759 1.400 . S
C3756 H3741 0.960 . S
C3756 H3742 0.960 . S
C3756 H3743 0.960 . S
C3756 C3755 1.524 . S
C3757 C3754 1.403 . S
C3757 C3758 1.392 . S
C3757 C3761 1.495 . S
C3758 C3757 1.392 . S
C3758 C3759 1.385 . S
C3758 C3760 1.478 . S
C3759 H3753 0.930 . S
C3759 C3755 1.400 . S
C3759 C3758 1.385 . S
C3760 C3758 1.478 . S
C3760 C3762 1.381 . S
C3760 C3766 1.383 . S
C3761 C3757 1.495 . S
C3761 H3767 0.959 . S
C3761 H3768 0.961 . S
C3761 H3769 0.960 . S
C3762 C3760 1.381 . S
C3762 C3763 1.394 . S
C3762 H3770 0.930 . S
C3763 C3762 1.394 . S
C3763 C3764 1.383 . S
C3763 H3771 0.929 . S
C3764 C3763 1.383 . S
C3764 C3765 1.377 . S
C3765 H3749 0.930 . S
C3765 C3764 1.377 . S
C3765 C3766 1.379 . S
C3766 H3750 0.931 . S
C3766 C3760 1.383 . S
C3766 C3765 1.379 . S
H3767 C3761 0.959 . S
H3768 C3761 0.961 . S
H3769 C3761 0.960 . S
H3770 C3762 0.930 . S
H3771 C3763 0.929 . S
H3772 C3780 0.929 . S
H3773 C3782 0.930 . S
H3774 C3784 0.930 . S
H3775 C3787 0.929 . S
H3776 C3790 0.930 . S
H3777 C3792 0.960 . S
H3778 C3792 0.960 . S
H3779 C3792 0.960 . S
C3780 H3772 0.929 . S
C3780 C3781 1.377 . S
C3780 C3782 1.384 . S
C3781 C3780 1.377 . S
C3781 C3787 1.390 . S
C3782 H3773 0.930 . S
C3782 C3780 1.384 . S
C3782 C3783 1.372 . S
C3783 C3782 1.372 . S
C3783 C3784 1.400 . S
C3783 C3788 1.490 . S
C3784 H3774 0.930 . S
C3784 C3783 1.400 . S
C3784 C3787 1.386 . S
H3785 C3801 0.930 . S
H3786 C3802 0.931 . S
C3787 H3775 0.929 . S
C3787 C3781 1.390 . S
C3787 C3784 1.386 . S
C3788 C3783 1.490 . S
C3788 C3790 1.395 . S
C3788 C3791 1.403 . S
H3789 C3795 0.930 . S
C3790 H3776 0.930 . S
C3790 C3788 1.395 . S
C3790 C3793 1.403 . S
C3791 C3788 1.403 . S
C3791 C3792 1.524 . S
C3791 C3795 1.400 . S
C3792 H3777 0.960 . S
C3792 H3778 0.960 . S
C3792 H3779 0.960 . S
C3792 C3791 1.524 . S
C3793 C3790 1.403 . S
C3793 C3794 1.392 . S
C3793 C3797 1.495 . S
C3794 C3793 1.392 . S
C3794 C3795 1.385 . S
C3794 C3796 1.478 . S
C3795 H3789 0.930 . S
C3795 C3791 1.400 . S
C3795 C3794 1.385 . S
C3796 C3794 1.478 . S
C3796 C3798 1.381 . S
C3796 C3802 1.383 . S
C3797 C3793 1.495 . S
C3797 H3803 0.959 . S
C3797 H3804 0.961 . S
C3797 H3805 0.960 . S
C3798 C3796 1.381 . S
C3798 C3799 1.394 . S
C3798 H3806 0.930 . S
C3799 C3798 1.394 . S
C3799 C3800 1.383 . S
C3799 H3807 0.929 . S
C3800 C3799 1.383 . S
C3800 C3801 1.377 . S
C3801 H3785 0.930 . S
C3801 C3800 1.377 . S
C3801 C3802 1.379 . S
C3802 H3786 0.931 . S
C3802 C3796 1.383 . S
C3802 C3801 1.379 . S
H3803 C3797 0.959 . S
H3804 C3797 0.961 . S
H3805 C3797 0.960 . S
H3806 C3798 0.930 . S
H3807 C3799 0.929 . S
H3808 C3816 0.929 . S
H3809 C3818 0.930 . S
H3810 C3820 0.930 . S
H3811 C3823 0.929 . S
H3812 C3826 0.930 . S
H3813 C3828 0.960 . S
H3814 C3828 0.960 . S
H3815 C3828 0.960 . S
C3816 H3808 0.929 . S
C3816 C3817 1.377 . S
C3816 C3818 1.384 . S
C3817 C3816 1.377 . S
C3817 C3823 1.390 . S
C3818 H3809 0.930 . S
C3818 C3816 1.384 . S
C3818 C3819 1.372 . S
C3819 C3818 1.372 . S
C3819 C3820 1.400 . S
C3819 C3824 1.490 . S
C3820 H3810 0.930 . S
C3820 C3819 1.400 . S
C3820 C3823 1.386 . S
H3821 C3837 0.930 . S
H3822 C3838 0.931 . S
C3823 H3811 0.929 . S
C3823 C3817 1.390 . S
C3823 C3820 1.386 . S
C3824 C3819 1.490 . S
C3824 C3826 1.395 . S
C3824 C3827 1.403 . S
H3825 C3831 0.930 . S
C3826 H3812 0.930 . S
C3826 C3824 1.395 . S
C3826 C3829 1.403 . S
C3827 C3824 1.403 . S
C3827 C3828 1.524 . S
C3827 C3831 1.400 . S
C3828 H3813 0.960 . S
C3828 H3814 0.960 . S
C3828 H3815 0.960 . S
C3828 C3827 1.524 . S
C3829 C3826 1.403 . S
C3829 C3830 1.392 . S
C3829 C3833 1.495 . S
C3830 C3829 1.392 . S
C3830 C3831 1.385 . S
C3830 C3832 1.478 . S
C3831 H3825 0.930 . S
C3831 C3827 1.400 . S
C3831 C3830 1.385 . S
C3832 C3830 1.478 . S
C3832 C3834 1.381 . S
C3832 C3838 1.383 . S
C3833 C3829 1.495 . S
C3833 H3839 0.959 . S
C3833 H3840 0.961 . S
C3833 H3841 0.960 . S
C3834 C3832 1.381 . S
C3834 C3835 1.394 . S
C3834 H3842 0.930 . S
C3835 C3834 1.394 . S
C3835 C3836 1.383 . S
C3835 H3843 0.929 . S
C3836 C3835 1.383 . S
C3836 C3837 1.377 . S
C3837 H3821 0.930 . S
C3837 C3836 1.377 . S
C3837 C3838 1.379 . S
C3838 H3822 0.931 . S
C3838 C3832 1.383 . S
C3838 C3837 1.379 . S
H3839 C3833 0.959 . S
H3840 C3833 0.961 . S
H3841 C3833 0.960 . S
H3842 C3834 0.930 . S
H3843 C3835 0.929 . S
H3844 C3852 0.929 . S
H3845 C3854 0.930 . S
H3846 C3856 0.930 . S
H3847 C3859 0.929 . S
H3848 C3862 0.930 . S
H3849 C3864 0.960 . S
H3850 C3864 0.960 . S
H3851 C3864 0.960 . S
C3852 H3844 0.929 . S
C3852 C3853 1.377 . S
C3852 C3854 1.384 . S
C3853 C3852 1.377 . S
C3853 C3859 1.390 . S
C3854 H3845 0.930 . S
C3854 C3852 1.384 . S
C3854 C3855 1.372 . S
C3855 C3854 1.372 . S
C3855 C3856 1.400 . S
C3855 C3860 1.490 . S
C3856 H3846 0.930 . S
C3856 C3855 1.400 . S
C3856 C3859 1.386 . S
H3857 C3873 0.930 . S
H3858 C3874 0.931 . S
C3859 H3847 0.929 . S
C3859 C3853 1.390 . S
C3859 C3856 1.386 . S
C3860 C3855 1.490 . S
C3860 C3862 1.395 . S
C3860 C3863 1.403 . S
H3861 C3867 0.930 . S
C3862 H3848 0.930 . S
C3862 C3860 1.395 . S
C3862 C3865 1.403 . S
C3863 C3860 1.403 . S
C3863 C3864 1.524 . S
C3863 C3867 1.400 . S
C3864 H3849 0.960 . S
C3864 H3850 0.960 . S
C3864 H3851 0.960 . S
C3864 C3863 1.524 . S
C3865 C3862 1.403 . S
C3865 C3866 1.392 . S
C3865 C3869 1.495 . S
C3866 C3865 1.392 . S
C3866 C3867 1.385 . S
C3866 C3868 1.478 . S
C3867 H3861 0.930 . S
C3867 C3863 1.400 . S
C3867 C3866 1.385 . S
C3868 C3866 1.478 . S
C3868 C3870 1.381 . S
C3868 C3874 1.383 . S
C3869 C3865 1.495 . S
C3869 H3875 0.959 . S
C3869 H3876 0.961 . S
C3869 H3877 0.960 . S
C3870 C3868 1.381 . S
C3870 C3871 1.394 . S
C3870 H3878 0.930 . S
C3871 C3870 1.394 . S
C3871 C3872 1.383 . S
C3871 H3879 0.929 . S
C3872 C3871 1.383 . S
C3872 C3873 1.377 . S
C3873 H3857 0.930 . S
C3873 C3872 1.377 . S
C3873 C3874 1.379 . S
C3874 H3858 0.931 . S
C3874 C3868 1.383 . S
C3874 C3873 1.379 . S
H3875 C3869 0.959 . S
H3876 C3869 0.961 . S
H3877 C3869 0.960 . S
H3878 C3870 0.930 . S
H3879 C3871 0.929 . S
H3880 C3888 0.929 . S
H3881 C3890 0.930 . S
H3882 C3892 0.930 . S
H3883 C3895 0.929 . S
H3884 C3898 0.930 . S
H3885 C3900 0.960 . S
H3886 C3900 0.960 . S
H3887 C3900 0.960 . S
C3888 H3880 0.929 . S
C3888 C3889 1.377 . S
C3888 C3890 1.384 . S
C3889 C3888 1.377 . S
C3889 C3895 1.390 . S
C3890 H3881 0.930 . S
C3890 C3888 1.384 . S
C3890 C3891 1.372 . S
C3891 C3890 1.372 . S
C3891 C3892 1.400 . S
C3891 C3896 1.490 . S
C3892 H3882 0.930 . S
C3892 C3891 1.400 . S
C3892 C3895 1.386 . S
H3893 C3909 0.930 . S
H3894 C3910 0.931 . S
C3895 H3883 0.929 . S
C3895 C3889 1.390 . S
C3895 C3892 1.386 . S
C3896 C3891 1.490 . S
C3896 C3898 1.395 . S
C3896 C3899 1.403 . S
H3897 C3903 0.930 . S
C3898 H3884 0.930 . S
C3898 C3896 1.395 . S
C3898 C3901 1.403 . S
C3899 C3896 1.403 . S
C3899 C3900 1.524 . S
C3899 C3903 1.400 . S
C3900 H3885 0.960 . S
C3900 H3886 0.960 . S
C3900 H3887 0.960 . S
C3900 C3899 1.524 . S
C3901 C3898 1.403 . S
C3901 C3902 1.392 . S
C3901 C3905 1.495 . S
C3902 C3901 1.392 . S
C3902 C3903 1.385 . S
C3902 C3904 1.478 . S
C3903 H3897 0.930 . S
C3903 C3899 1.400 . S
C3903 C3902 1.385 . S
C3904 C3902 1.478 . S
C3904 C3906 1.381 . S
C3904 C3910 1.383 . S
C3905 C3901 1.495 . S
C3905 H3911 0.959 . S
C3905 H3912 0.961 . S
C3905 H3913 0.960 . S
C3906 C3904 1.381 . S
C3906 C3907 1.394 . S
C3906 H3914 0.930 . S
C3907 C3906 1.394 . S
C3907 C3908 1.383 . S
C3907 H3915 0.929 . S
C3908 C3907 1.383 . S
C3908 C3909 1.377 . S
C3909 H3893 0.930 . S
C3909 C3908 1.377 . S
C3909 C3910 1.379 . S
C3910 H3894 0.931 . S
C3910 C3904 1.383 . S
C3910 C3909 1.379 . S
H3911 C3905 0.959 . S
H3912 C3905 0.961 . S
H3913 C3905 0.960 . S
H3914 C3906 0.930 . S
H3915 C3907 0.929 . S
H3916 C3924 0.929 . S
H3917 C3926 0.930 . S
H3918 C3928 0.930 . S
H3919 C3931 0.929 . S
H3920 C3934 0.930 . S
H3921 C3936 0.960 . S
H3922 C3936 0.960 . S
H3923 C3936 0.960 . S
C3924 H3916 0.929 . S
C3924 C3925 1.377 . S
C3924 C3926 1.384 . S
C3925 C3924 1.377 . S
C3925 C3931 1.390 . S
C3926 H3917 0.930 . S
C3926 C3924 1.384 . S
C3926 C3927 1.372 . S
C3927 C3926 1.372 . S
C3927 C3928 1.400 . S
C3927 C3932 1.490 . S
C3928 H3918 0.930 . S
C3928 C3927 1.400 . S
C3928 C3931 1.386 . S
H3929 C3945 0.930 . S
H3930 C3946 0.931 . S
C3931 H3919 0.929 . S
C3931 C3925 1.390 . S
C3931 C3928 1.386 . S
C3932 C3927 1.490 . S
C3932 C3934 1.395 . S
C3932 C3935 1.403 . S
H3933 C3939 0.930 . S
C3934 H3920 0.930 . S
C3934 C3932 1.395 . S
C3934 C3937 1.403 . S
C3935 C3932 1.403 . S
C3935 C3936 1.524 . S
C3935 C3939 1.400 . S
C3936 H3921 0.960 . S
C3936 H3922 0.960 . S
C3936 H3923 0.960 . S
C3936 C3935 1.524 . S
C3937 C3934 1.403 . S
C3937 C3938 1.392 . S
C3937 C3941 1.495 . S
C3938 C3937 1.392 . S
C3938 C3939 1.385 . S
C3938 C3940 1.478 . S
C3939 H3933 0.930 . S
C3939 C3935 1.400 . S
C3939 C3938 1.385 . S
C3940 C3938 1.478 . S
C3940 C3942 1.381 . S
C3940 C3946 1.383 . S
C3941 C3937 1.495 . S
C3941 H3947 0.959 . S
C3941 H3948 0.961 . S
C3941 H3949 0.960 . S
C3942 C3940 1.381 . S
C3942 C3943 1.394 . S
C3942 H3950 0.930 . S
C3943 C3942 1.394 . S
C3943 C3944 1.383 . S
C3943 H3951 0.929 . S
C3944 C3943 1.383 . S
C3944 C3945 1.377 . S
C3945 H3929 0.930 . S
C3945 C3944 1.377 . S
C3945 C3946 1.379 . S
C3946 H3930 0.931 . S
C3946 C3940 1.383 . S
C3946 C3945 1.379 . S
H3947 C3941 0.959 . S
H3948 C3941 0.961 . S
H3949 C3941 0.960 . S
H3950 C3942 0.930 . S
H3951 C3943 0.929 . S
H3952 C3960 0.929 . S
H3953 C3962 0.930 . S
H3954 C3964 0.930 . S
H3955 C3967 0.929 . S
H3956 C3970 0.930 . S
H3957 C3972 0.960 . S
H3958 C3972 0.960 . S
H3959 C3972 0.960 . S
C3960 H3952 0.929 . S
C3960 C3961 1.377 . S
C3960 C3962 1.384 . S
C3961 C3960 1.377 . S
C3961 C3967 1.390 . S
C3962 H3953 0.930 . S
C3962 C3960 1.384 . S
C3962 C3963 1.372 . S
C3963 C3962 1.372 . S
C3963 C3964 1.400 . S
C3963 C3968 1.490 . S
C3964 H3954 0.930 . S
C3964 C3963 1.400 . S
C3964 C3967 1.386 . S
H3965 C3981 0.930 . S
H3966 C3982 0.931 . S
C3967 H3955 0.929 . S
C3967 C3961 1.390 . S
C3967 C3964 1.386 . S
C3968 C3963 1.490 . S
C3968 C3970 1.395 . S
C3968 C3971 1.403 . S
H3969 C3975 0.930 . S
C3970 H3956 0.930 . S
C3970 C3968 1.395 . S
C3970 C3973 1.403 . S
C3971 C3968 1.403 . S
C3971 C3972 1.524 . S
C3971 C3975 1.400 . S
C3972 H3957 0.960 . S
C3972 H3958 0.960 . S
C3972 H3959 0.960 . S
C3972 C3971 1.524 . S
C3973 C3970 1.403 . S
C3973 C3974 1.392 . S
C3973 C3977 1.495 . S
C3974 C3973 1.392 . S
C3974 C3975 1.385 . S
C3974 C3976 1.478 . S
C3975 H3969 0.930 . S
C3975 C3971 1.400 . S
C3975 C3974 1.385 . S
C3976 C3974 1.478 . S
C3976 C3978 1.381 . S
C3976 C3982 1.383 . S
C3977 C3973 1.495 . S
C3977 H3983 0.959 . S
C3977 H3984 0.961 . S
C3977 H3985 0.960 . S
C3978 C3976 1.381 . S
C3978 C3979 1.394 . S
C3978 H3986 0.930 . S
C3979 C3978 1.394 . S
C3979 C3980 1.383 . S
C3979 H3987 0.929 . S
C3980 C3979 1.383 . S
C3980 C3981 1.377 . S
C3981 H3965 0.930 . S
C3981 C3980 1.377 . S
C3981 C3982 1.379 . S
C3982 H3966 0.931 . S
C3982 C3976 1.383 . S
C3982 C3981 1.379 . S
H3983 C3977 0.959 . S
H3984 C3977 0.961 . S
H3985 C3977 0.960 . S
H3986 C3978 0.930 . S
H3987 C3979 0.929 . S
H3988 C3996 0.929 . S
H3989 C3998 0.930 . S
H3990 C4000 0.930 . S
H3991 C4003 0.929 . S
H3992 C4006 0.930 . S
H3993 C4008 0.960 . S
H3994 C4008 0.960 . S
H3995 C4008 0.960 . S
C3996 H3988 0.929 . S
C3996 C3997 1.377 . S
C3996 C3998 1.384 . S
C3997 C3996 1.377 . S
C3997 C4003 1.390 . S
C3998 H3989 0.930 . S
C3998 C3996 1.384 . S
C3998 C3999 1.372 . S
C3999 C3998 1.372 . S
C3999 C4000 1.400 . S
C3999 C4004 1.490 . S
C4000 H3990 0.930 . S
C4000 C3999 1.400 . S
C4000 C4003 1.386 . S
H4001 C4017 0.930 . S
H4002 C4018 0.931 . S
C4003 H3991 0.929 . S
C4003 C3997 1.390 . S
C4003 C4000 1.386 . S
C4004 C3999 1.490 . S
C4004 C4006 1.395 . S
C4004 C4007 1.403 . S
H4005 C4011 0.930 . S
C4006 H3992 0.930 . S
C4006 C4004 1.395 . S
C4006 C4009 1.403 . S
C4007 C4004 1.403 . S
C4007 C4008 1.524 . S
C4007 C4011 1.400 . S
C4008 H3993 0.960 . S
C4008 H3994 0.960 . S
C4008 H3995 0.960 . S
C4008 C4007 1.524 . S
C4009 C4006 1.403 . S
C4009 C4010 1.392 . S
C4009 C4013 1.495 . S
C4010 C4009 1.392 . S
C4010 C4011 1.385 . S
C4010 C4012 1.478 . S
C4011 H4005 0.930 . S
C4011 C4007 1.400 . S
C4011 C4010 1.385 . S
C4012 C4010 1.478 . S
C4012 C4014 1.381 . S
C4012 C4018 1.383 . S
C4013 C4009 1.495 . S
C4013 H4019 0.959 . S
C4013 H4020 0.961 . S
C4013 H4021 0.960 . S
C4014 C4012 1.381 . S
C4014 C4015 1.394 . S
C4014 H4022 0.930 . S
C4015 C4014 1.394 . S
C4015 C4016 1.383 . S
C4015 H4023 0.929 . S
C4016 C4015 1.383 . S
C4016 C4017 1.377 . S
C4017 H4001 0.930 . S
C4017 C4016 1.377 . S
C4017 C4018 1.379 . S
C4018 H4002 0.931 . S
C4018 C4012 1.383 . S
C4018 C4017 1.379 . S
H4019 C4013 0.959 . S
H4020 C4013 0.961 . S
H4021 C4013 0.960 . S
H4022 C4014 0.930 . S
H4023 C4015 0.929 . S
H4024 C4032 0.929 . S
H4025 C4034 0.930 . S
H4026 C4036 0.930 . S
H4027 C4039 0.929 . S
H4028 C4042 0.930 . S
H4029 C4044 0.960 . S
H4030 C4044 0.960 . S
H4031 C4044 0.960 . S
C4032 H4024 0.929 . S
C4032 C4033 1.377 . S
C4032 C4034 1.384 . S
C4033 C4032 1.377 . S
C4033 C4039 1.390 . S
C4034 H4025 0.930 . S
C4034 C4032 1.384 . S
C4034 C4035 1.372 . S
C4035 C4034 1.372 . S
C4035 C4036 1.400 . S
C4035 C4040 1.490 . S
C4036 H4026 0.930 . S
C4036 C4035 1.400 . S
C4036 C4039 1.386 . S
H4037 C4053 0.930 . S
H4038 C4054 0.931 . S
C4039 H4027 0.929 . S
C4039 C4033 1.390 . S
C4039 C4036 1.386 . S
C4040 C4035 1.490 . S
C4040 C4042 1.395 . S
C4040 C4043 1.403 . S
H4041 C4047 0.930 . S
C4042 H4028 0.930 . S
C4042 C4040 1.395 . S
C4042 C4045 1.403 . S
C4043 C4040 1.403 . S
C4043 C4044 1.524 . S
C4043 C4047 1.400 . S
C4044 H4029 0.960 . S
C4044 H4030 0.960 . S
C4044 H4031 0.960 . S
C4044 C4043 1.524 . S
C4045 C4042 1.403 . S
C4045 C4046 1.392 . S
C4045 C4049 1.495 . S
C4046 C4045 1.392 . S
C4046 C4047 1.385 . S
C4046 C4048 1.478 . S
C4047 H4041 0.930 . S
C4047 C4043 1.400 . S
C4047 C4046 1.385 . S
C4048 C4046 1.478 . S
C4048 C4050 1.381 . S
C4048 C4054 1.383 . S
C4049 C4045 1.495 . S
C4049 H4055 0.959 . S
C4049 H4056 0.961 . S
C4049 H4057 0.960 . S
C4050 C4048 1.381 . S
C4050 C4051 1.394 . S
C4050 H4058 0.930 . S
C4051 C4050 1.394 . S
C4051 C4052 1.383 . S
C4051 H4059 0.929 . S
C4052 C4051 1.383 . S
C4052 C4053 1.377 . S
C4053 H4037 0.930 . S
C4053 C4052 1.377 . S
C4053 C4054 1.379 . S
C4054 H4038 0.931 . S
C4054 C4048 1.383 . S
C4054 C4053 1.379 . S
H4055 C4049 0.959 . S
H4056 C4049 0.961 . S
H4057 C4049 0.960 . S
H4058 C4050 0.930 . S
H4059 C4051 0.929 . S
H4060 C4068 0.929 . S
H4061 C4070 0.930 . S
H4062 C4072 0.930 . S
H4063 C4075 0.929 . S
H4064 C4078 0.930 . S
H4065 C4080 0.960 . S
H4066 C4080 0.960 . S
H4067 C4080 0.960 . S
C4068 H4060 0.929 . S
C4068 C4069 1.377 . S
C4068 C4070 1.384 . S
C4069 C4068 1.377 . S
C4069 C4075 1.390 . S
C4070 H4061 0.930 . S
C4070 C4068 1.384 . S
C4070 C4071 1.372 . S
C4071 C4070 1.372 . S
C4071 C4072 1.400 . S
C4071 C4076 1.490 . S
C4072 H4062 0.930 . S
C4072 C4071 1.400 . S
C4072 C4075 1.386 . S
H4073 C4089 0.930 . S
H4074 C4090 0.931 . S
C4075 H4063 0.929 . S
C4075 C4069 1.390 . S
C4075 C4072 1.386 . S
C4076 C4071 1.490 . S
C4076 C4078 1.395 . S
C4076 C4079 1.403 . S
H4077 C4083 0.930 . S
C4078 H4064 0.930 . S
C4078 C4076 1.395 . S
C4078 C4081 1.403 . S
C4079 C4076 1.403 . S
C4079 C4080 1.524 . S
C4079 C4083 1.400 . S
C4080 H4065 0.960 . S
C4080 H4066 0.960 . S
C4080 H4067 0.960 . S
C4080 C4079 1.524 . S
C4081 C4078 1.403 . S
C4081 C4082 1.392 . S
C4081 C4085 1.495 . S
C4082 C4081 1.392 . S
C4082 C4083 1.385 . S
C4082 C4084 1.478 . S
C4083 H4077 0.930 . S
C4083 C4079 1.400 . S
C4083 C4082 1.385 . S
C4084 C4082 1.478 . S
C4084 C4086 1.381 . S
C4084 C4090 1.383 . S
C4085 C4081 1.495 . S
C4085 H4091 0.959 . S
C4085 H4092 0.961 . S
C4085 H4093 0.960 . S
C4086 C4084 1.381 . S
C4086 C4087 1.394 . S
C4086 H4094 0.930 . S
C4087 C4086 1.394 . S
C4087 C4088 1.383 . S
C4087 H4095 0.929 . S
C4088 C4087 1.383 . S
C4088 C4089 1.377 . S
C4089 H4073 0.930 . S
C4089 C4088 1.377 . S
C4089 C4090 1.379 . S
C4090 H4074 0.931 . S
C4090 C4084 1.383 . S
C4090 C4089 1.379 . S
H4091 C4085 0.959 . S
H4092 C4085 0.961 . S
H4093 C4085 0.960 . S
H4094 C4086 0.930 . S
H4095 C4087 0.929 . S
H4096 C4104 0.929 . S
H4097 C4106 0.930 . S
H4098 C4108 0.930 . S
H4099 C4111 0.929 . S
H4100 C4114 0.930 . S
H4101 C4116 0.960 . S
H4102 C4116 0.960 . S
H4103 C4116 0.960 . S
C4104 H4096 0.929 . S
C4104 C4105 1.377 . S
C4104 C4106 1.384 . S
C4105 C4104 1.377 . S
C4105 C4111 1.390 . S
C4106 H4097 0.930 . S
C4106 C4104 1.384 . S
C4106 C4107 1.372 . S
C4107 C4106 1.372 . S
C4107 C4108 1.400 . S
C4107 C4112 1.490 . S
C4108 H4098 0.930 . S
C4108 C4107 1.400 . S
C4108 C4111 1.386 . S
H4109 C4125 0.930 . S
H4110 C4126 0.931 . S
C4111 H4099 0.929 . S
C4111 C4105 1.390 . S
C4111 C4108 1.386 . S
C4112 C4107 1.490 . S
C4112 C4114 1.395 . S
C4112 C4115 1.403 . S
H4113 C4119 0.930 . S
C4114 H4100 0.930 . S
C4114 C4112 1.395 . S
C4114 C4117 1.403 . S
C4115 C4112 1.403 . S
C4115 C4116 1.524 . S
C4115 C4119 1.400 . S
C4116 H4101 0.960 . S
C4116 H4102 0.960 . S
C4116 H4103 0.960 . S
C4116 C4115 1.524 . S
C4117 C4114 1.403 . S
C4117 C4118 1.392 . S
C4117 C4121 1.495 . S
C4118 C4117 1.392 . S
C4118 C4119 1.385 . S
C4118 C4120 1.478 . S
C4119 H4113 0.930 . S
C4119 C4115 1.400 . S
C4119 C4118 1.385 . S
C4120 C4118 1.478 . S
C4120 C4122 1.381 . S
C4120 C4126 1.383 . S
C4121 C4117 1.495 . S
C4121 H4127 0.959 . S
C4121 H4128 0.961 . S
C4121 H4129 0.960 . S
C4122 C4120 1.381 . S
C4122 C4123 1.394 . S
C4122 H4130 0.930 . S
C4123 C4122 1.394 . S
C4123 C4124 1.383 . S
C4123 H4131 0.929 . S
C4124 C4123 1.383 . S
C4124 C4125 1.377 . S
C4125 H4109 0.930 . S
C4125 C4124 1.377 . S
C4125 C4126 1.379 . S
C4126 H4110 0.931 . S
C4126 C4120 1.383 . S
C4126 C4125 1.379 . S
H4127 C4121 0.959 . S
H4128 C4121 0.961 . S
H4129 C4121 0.960 . S
H4130 C4122 0.930 . S
H4131 C4123 0.929 . S
H4132 C4140 0.929 . S
H4133 C4142 0.930 . S
H4134 C4144 0.930 . S
H4135 C4147 0.929 . S
H4136 C4150 0.930 . S
H4137 C4152 0.960 . S
H4138 C4152 0.960 . S
H4139 C4152 0.960 . S
C4140 H4132 0.929 . S
C4140 C4141 1.377 . S
C4140 C4142 1.384 . S
C4141 C4140 1.377 . S
C4141 C4147 1.390 . S
C4142 H4133 0.930 . S
C4142 C4140 1.384 . S
C4142 C4143 1.372 . S
C4143 C4142 1.372 . S
C4143 C4144 1.400 . S
C4143 C4148 1.490 . S
C4144 H4134 0.930 . S
C4144 C4143 1.400 . S
C4144 C4147 1.386 . S
H4145 C4161 0.930 . S
H4146 C4162 0.931 . S
C4147 H4135 0.929 . S
C4147 C4141 1.390 . S
C4147 C4144 1.386 . S
C4148 C4143 1.490 . S
C4148 C4150 1.395 . S
C4148 C4151 1.403 . S
H4149 C4155 0.930 . S
C4150 H4136 0.930 . S
C4150 C4148 1.395 . S
C4150 C4153 1.403 . S
C4151 C4148 1.403 . S
C4151 C4152 1.524 . S
C4151 C4155 1.400 . S
C4152 H4137 0.960 . S
C4152 H4138 0.960 . S
C4152 H4139 0.960 . S
C4152 C4151 1.524 . S
C4153 C4150 1.403 . S
C4153 C4154 1.392 . S
C4153 C4157 1.495 . S
C4154 C4153 1.392 . S
C4154 C4155 1.385 . S
C4154 C4156 1.478 . S
C4155 H4149 0.930 . S
C4155 C4151 1.400 . S
C4155 C4154 1.385 . S
C4156 C4154 1.478 . S
C4156 C4158 1.381 . S
C4156 C4162 1.383 . S
C4157 C4153 1.495 . S
C4157 H4163 0.959 . S
C4157 H4164 0.961 . S
C4157 H4165 0.960 . S
C4158 C4156 1.381 . S
C4158 C4159 1.394 . S
C4158 H4166 0.930 . S
C4159 C4158 1.394 . S
C4159 C4160 1.383 . S
C4159 H4167 0.929 . S
C4160 C4159 1.383 . S
C4160 C4161 1.377 . S
C4161 H4145 0.930 . S
C4161 C4160 1.377 . S
C4161 C4162 1.379 . S
C4162 H4146 0.931 . S
C4162 C4156 1.383 . S
C4162 C4161 1.379 . S
H4163 C4157 0.959 . S
H4164 C4157 0.961 . S
H4165 C4157 0.960 . S
H4166 C4158 0.930 . S
H4167 C4159 0.929 . S
H4168 C4176 0.929 . S
H4169 C4178 0.930 . S
H4170 C4180 0.930 . S
H4171 C4183 0.929 . S
H4172 C4186 0.930 . S
H4173 C4188 0.960 . S
H4174 C4188 0.960 . S
H4175 C4188 0.960 . S
C4176 H4168 0.929 . S
C4176 C4177 1.377 . S
C4176 C4178 1.384 . S
C4177 C4176 1.377 . S
C4177 C4183 1.390 . S
C4178 H4169 0.930 . S
C4178 C4176 1.384 . S
C4178 C4179 1.372 . S
C4179 C4178 1.372 . S
C4179 C4180 1.400 . S
C4179 C4184 1.490 . S
C4180 H4170 0.930 . S
C4180 C4179 1.400 . S
C4180 C4183 1.386 . S
H4181 C4197 0.930 . S
H4182 C4198 0.931 . S
C4183 H4171 0.929 . S
C4183 C4177 1.390 . S
C4183 C4180 1.386 . S
C4184 C4179 1.490 . S
C4184 C4186 1.395 . S
C4184 C4187 1.403 . S
H4185 C4191 0.930 . S
C4186 H4172 0.930 . S
C4186 C4184 1.395 . S
C4186 C4189 1.403 . S
C4187 C4184 1.403 . S
C4187 C4188 1.524 . S
C4187 C4191 1.400 . S
C4188 H4173 0.960 . S
C4188 H4174 0.960 . S
C4188 H4175 0.960 . S
C4188 C4187 1.524 . S
C4189 C4186 1.403 . S
C4189 C4190 1.392 . S
C4189 C4193 1.495 . S
C4190 C4189 1.392 . S
C4190 C4191 1.385 . S
C4190 C4192 1.478 . S
C4191 H4185 0.930 . S
C4191 C4187 1.400 . S
C4191 C4190 1.385 . S
C4192 C4190 1.478 . S
C4192 C4194 1.381 . S
C4192 C4198 1.383 . S
C4193 C4189 1.495 . S
C4193 H4199 0.959 . S
C4193 H4200 0.961 . S
C4193 H4201 0.960 . S
C4194 C4192 1.381 . S
C4194 C4195 1.394 . S
C4194 H4202 0.930 . S
C4195 C4194 1.394 . S
C4195 C4196 1.383 . S
C4195 H4203 0.929 . S
C4196 C4195 1.383 . S
C4196 C4197 1.377 . S
C4197 H4181 0.930 . S
C4197 C4196 1.377 . S
C4197 C4198 1.379 . S
C4198 H4182 0.931 . S
C4198 C4192 1.383 . S
C4198 C4197 1.379 . S
H4199 C4193 0.959 . S
H4200 C4193 0.961 . S
H4201 C4193 0.960 . S
H4202 C4194 0.930 . S
H4203 C4195 0.929 . S
H4204 C4212 0.929 . S
H4205 C4214 0.930 . S
H4206 C4216 0.930 . S
H4207 C4219 0.929 . S
H4208 C4222 0.930 . S
H4209 C4224 0.960 . S
H4210 C4224 0.960 . S
H4211 C4224 0.960 . S
C4212 H4204 0.929 . S
C4212 C4213 1.377 . S
C4212 C4214 1.384 . S
C4213 C4212 1.377 . S
C4213 C4219 1.390 . S
C4214 H4205 0.930 . S
C4214 C4212 1.384 . S
C4214 C4215 1.372 . S
C4215 C4214 1.372 . S
C4215 C4216 1.400 . S
C4215 C4220 1.490 . S
C4216 H4206 0.930 . S
C4216 C4215 1.400 . S
C4216 C4219 1.386 . S
H4217 C4233 0.930 . S
H4218 C4234 0.931 . S
C4219 H4207 0.929 . S
C4219 C4213 1.390 . S
C4219 C4216 1.386 . S
C4220 C4215 1.490 . S
C4220 C4222 1.395 . S
C4220 C4223 1.403 . S
H4221 C4227 0.930 . S
C4222 H4208 0.930 . S
C4222 C4220 1.395 . S
C4222 C4225 1.403 . S
C4223 C4220 1.403 . S
C4223 C4224 1.524 . S
C4223 C4227 1.400 . S
C4224 H4209 0.960 . S
C4224 H4210 0.960 . S
C4224 H4211 0.960 . S
C4224 C4223 1.524 . S
C4225 C4222 1.403 . S
C4225 C4226 1.392 . S
C4225 C4229 1.495 . S
C4226 C4225 1.392 . S
C4226 C4227 1.385 . S
C4226 C4228 1.478 . S
C4227 H4221 0.930 . S
C4227 C4223 1.400 . S
C4227 C4226 1.385 . S
C4228 C4226 1.478 . S
C4228 C4230 1.381 . S
C4228 C4234 1.383 . S
C4229 C4225 1.495 . S
C4229 H4235 0.959 . S
C4229 H4236 0.961 . S
C4229 H4237 0.960 . S
C4230 C4228 1.381 . S
C4230 C4231 1.394 . S
C4230 H4238 0.930 . S
C4231 C4230 1.394 . S
C4231 C4232 1.383 . S
C4231 H4239 0.929 . S
C4232 C4231 1.383 . S
C4232 C4233 1.377 . S
C4233 H4217 0.930 . S
C4233 C4232 1.377 . S
C4233 C4234 1.379 . S
C4234 H4218 0.931 . S
C4234 C4228 1.383 . S
C4234 C4233 1.379 . S
H4235 C4229 0.959 . S
H4236 C4229 0.961 . S
H4237 C4229 0.960 . S
H4238 C4230 0.930 . S
H4239 C4231 0.929 . S
H4240 C4248 0.929 . S
H4241 C4250 0.930 . S
H4242 C4252 0.930 . S
H4243 C4255 0.929 . S
H4244 C4258 0.930 . S
H4245 C4260 0.960 . S
H4246 C4260 0.960 . S
H4247 C4260 0.960 . S
C4248 H4240 0.929 . S
C4248 C4249 1.377 . S
C4248 C4250 1.384 . S
C4249 C4248 1.377 . S
C4249 C4255 1.390 . S
C4250 H4241 0.930 . S
C4250 C4248 1.384 . S
C4250 C4251 1.372 . S
C4251 C4250 1.372 . S
C4251 C4252 1.400 . S
C4251 C4256 1.490 . S
C4252 H4242 0.930 . S
C4252 C4251 1.400 . S
C4252 C4255 1.386 . S
H4253 C4269 0.930 . S
H4254 C4270 0.931 . S
C4255 H4243 0.929 . S
C4255 C4249 1.390 . S
C4255 C4252 1.386 . S
C4256 C4251 1.490 . S
C4256 C4258 1.395 . S
C4256 C4259 1.403 . S
H4257 C4263 0.930 . S
C4258 H4244 0.930 . S
C4258 C4256 1.395 . S
C4258 C4261 1.403 . S
C4259 C4256 1.403 . S
C4259 C4260 1.524 . S
C4259 C4263 1.400 . S
C4260 H4245 0.960 . S
C4260 H4246 0.960 . S
C4260 H4247 0.960 . S
C4260 C4259 1.524 . S
C4261 C4258 1.403 . S
C4261 C4262 1.392 . S
C4261 C4265 1.495 . S
C4262 C4261 1.392 . S
C4262 C4263 1.385 . S
C4262 C4264 1.478 . S
C4263 H4257 0.930 . S
C4263 C4259 1.400 . S
C4263 C4262 1.385 . S
C4264 C4262 1.478 . S
C4264 C4266 1.381 . S
C4264 C4270 1.383 . S
C4265 C4261 1.495 . S
C4265 H4271 0.959 . S
C4265 H4272 0.961 . S
C4265 H4273 0.960 . S
C4266 C4264 1.381 . S
C4266 C4267 1.394 . S
C4266 H4274 0.930 . S
C4267 C4266 1.394 . S
C4267 C4268 1.383 . S
C4267 H4275 0.929 . S
C4268 C4267 1.383 . S
C4268 C4269 1.377 . S
C4269 H4253 0.930 . S
C4269 C4268 1.377 . S
C4269 C4270 1.379 . S
C4270 H4254 0.931 . S
C4270 C4264 1.383 . S
C4270 C4269 1.379 . S
H4271 C4265 0.959 . S
H4272 C4265 0.961 . S
H4273 C4265 0.960 . S
H4274 C4266 0.930 . S
H4275 C4267 0.929 . S
H4276 C4284 0.929 . S
H4277 C4286 0.930 . S
H4278 C4288 0.930 . S
H4279 C4291 0.929 . S
H4280 C4294 0.930 . S
H4281 C4296 0.960 . S
H4282 C4296 0.960 . S
H4283 C4296 0.960 . S
C4284 H4276 0.929 . S
C4284 C4285 1.377 . S
C4284 C4286 1.384 . S
C4285 C4284 1.377 . S
C4285 C4291 1.390 . S
C4286 H4277 0.930 . S
C4286 C4284 1.384 . S
C4286 C4287 1.372 . S
C4287 C4286 1.372 . S
C4287 C4288 1.400 . S
C4287 C4292 1.490 . S
C4288 H4278 0.930 . S
C4288 C4287 1.400 . S
C4288 C4291 1.386 . S
H4289 C4305 0.930 . S
H4290 C4306 0.931 . S
C4291 H4279 0.929 . S
C4291 C4285 1.390 . S
C4291 C4288 1.386 . S
C4292 C4287 1.490 . S
C4292 C4294 1.395 . S
C4292 C4295 1.403 . S
H4293 C4299 0.930 . S
C4294 H4280 0.930 . S
C4294 C4292 1.395 . S
C4294 C4297 1.403 . S
C4295 C4292 1.403 . S
C4295 C4296 1.524 . S
C4295 C4299 1.400 . S
C4296 H4281 0.960 . S
C4296 H4282 0.960 . S
C4296 H4283 0.960 . S
C4296 C4295 1.524 . S
C4297 C4294 1.403 . S
C4297 C4298 1.392 . S
C4297 C4301 1.495 . S
C4298 C4297 1.392 . S
C4298 C4299 1.385 . S
C4298 C4300 1.478 . S
C4299 H4293 0.930 . S
C4299 C4295 1.400 . S
C4299 C4298 1.385 . S
C4300 C4298 1.478 . S
C4300 C4302 1.381 . S
C4300 C4306 1.383 . S
C4301 C4297 1.495 . S
C4301 H4307 0.959 . S
C4301 H4308 0.961 . S
C4301 H4309 0.960 . S
C4302 C4300 1.381 . S
C4302 C4303 1.394 . S
C4302 H4310 0.930 . S
C4303 C4302 1.394 . S
C4303 C4304 1.383 . S
C4303 H4311 0.929 . S
C4304 C4303 1.383 . S
C4304 C4305 1.377 . S
C4305 H4289 0.930 . S
C4305 C4304 1.377 . S
C4305 C4306 1.379 . S
C4306 H4290 0.931 . S
C4306 C4300 1.383 . S
C4306 C4305 1.379 . S
H4307 C4301 0.959 . S
H4308 C4301 0.961 . S
H4309 C4301 0.960 . S
H4310 C4302 0.930 . S
H4311 C4303 0.929 . S
H4312 C4320 0.929 . S
H4313 C4322 0.930 . S
H4314 C4324 0.930 . S
H4315 C4327 0.929 . S
H4316 C4330 0.930 . S
H4317 C4332 0.960 . S
H4318 C4332 0.960 . S
H4319 C4332 0.960 . S
C4320 H4312 0.929 . S
C4320 C4321 1.377 . S
C4320 C4322 1.384 . S
C4321 C4320 1.377 . S
C4321 C4327 1.390 . S
C4322 H4313 0.930 . S
C4322 C4320 1.384 . S
C4322 C4323 1.372 . S
C4323 C4322 1.372 . S
C4323 C4324 1.400 . S
C4323 C4328 1.490 . S
C4324 H4314 0.930 . S
C4324 C4323 1.400 . S
C4324 C4327 1.386 . S
H4325 C4341 0.930 . S
H4326 C4342 0.931 . S
C4327 H4315 0.929 . S
C4327 C4321 1.390 . S
C4327 C4324 1.386 . S
C4328 C4323 1.490 . S
C4328 C4330 1.395 . S
C4328 C4331 1.403 . S
H4329 C4335 0.930 . S
C4330 H4316 0.930 . S
C4330 C4328 1.395 . S
C4330 C4333 1.403 . S
C4331 C4328 1.403 . S
C4331 C4332 1.524 . S
C4331 C4335 1.400 . S
C4332 H4317 0.960 . S
C4332 H4318 0.960 . S
C4332 H4319 0.960 . S
C4332 C4331 1.524 . S
C4333 C4330 1.403 . S
C4333 C4334 1.392 . S
C4333 C4337 1.495 . S
C4334 C4333 1.392 . S
C4334 C4335 1.385 . S
C4334 C4336 1.478 . S
C4335 H4329 0.930 . S
C4335 C4331 1.400 . S
C4335 C4334 1.385 . S
C4336 C4334 1.478 . S
C4336 C4338 1.381 . S
C4336 C4342 1.383 . S
C4337 C4333 1.495 . S
C4337 H4343 0.959 . S
C4337 H4344 0.961 . S
C4337 H4345 0.960 . S
C4338 C4336 1.381 . S
C4338 C4339 1.394 . S
C4338 H4346 0.930 . S
C4339 C4338 1.394 . S
C4339 C4340 1.383 . S
C4339 H4347 0.929 . S
C4340 C4339 1.383 . S
C4340 C4341 1.377 . S
C4341 H4325 0.930 . S
C4341 C4340 1.377 . S
C4341 C4342 1.379 . S
C4342 H4326 0.931 . S
C4342 C4336 1.383 . S
C4342 C4341 1.379 . S
H4343 C4337 0.959 . S
H4344 C4337 0.961 . S
H4345 C4337 0.960 . S
H4346 C4338 0.930 . S
H4347 C4339 0.929 . S
H4348 C4356 0.929 . S
H4349 C4358 0.930 . S
H4350 C4360 0.930 . S
H4351 C4363 0.929 . S
H4352 C4366 0.930 . S
H4353 C4368 0.960 . S
H4354 C4368 0.960 . S
H4355 C4368 0.960 . S
C4356 H4348 0.929 . S
C4356 C4357 1.377 . S
C4356 C4358 1.384 . S
C4357 C4356 1.377 . S
C4357 C4363 1.390 . S
C4358 H4349 0.930 . S
C4358 C4356 1.384 . S
C4358 C4359 1.372 . S
C4359 C4358 1.372 . S
C4359 C4360 1.400 . S
C4359 C4364 1.490 . S
C4360 H4350 0.930 . S
C4360 C4359 1.400 . S
C4360 C4363 1.386 . S
H4361 C4377 0.930 . S
H4362 C4378 0.931 . S
C4363 H4351 0.929 . S
C4363 C4357 1.390 . S
C4363 C4360 1.386 . S
C4364 C4359 1.490 . S
C4364 C4366 1.395 . S
C4364 C4367 1.403 . S
H4365 C4371 0.930 . S
C4366 H4352 0.930 . S
C4366 C4364 1.395 . S
C4366 C4369 1.403 . S
C4367 C4364 1.403 . S
C4367 C4368 1.524 . S
C4367 C4371 1.400 . S
C4368 H4353 0.960 . S
C4368 H4354 0.960 . S
C4368 H4355 0.960 . S
C4368 C4367 1.524 . S
C4369 C4366 1.403 . S
C4369 C4370 1.392 . S
C4369 C4373 1.495 . S
C4370 C4369 1.392 . S
C4370 C4371 1.385 . S
C4370 C4372 1.478 . S
C4371 H4365 0.930 . S
C4371 C4367 1.400 . S
C4371 C4370 1.385 . S
C4372 C4370 1.478 . S
C4372 C4374 1.381 . S
C4372 C4378 1.383 . S
C4373 C4369 1.495 . S
C4373 H4379 0.959 . S
C4373 H4380 0.961 . S
C4373 H4381 0.960 . S
C4374 C4372 1.381 . S
C4374 C4375 1.394 . S
C4374 H4382 0.930 . S
C4375 C4374 1.394 . S
C4375 C4376 1.383 . S
C4375 H4383 0.929 . S
C4376 C4375 1.383 . S
C4376 C4377 1.377 . S
C4377 H4361 0.930 . S
C4377 C4376 1.377 . S
C4377 C4378 1.379 . S
C4378 H4362 0.931 . S
C4378 C4372 1.383 . S
C4378 C4377 1.379 . S
H4379 C4373 0.959 . S
H4380 C4373 0.961 . S
H4381 C4373 0.960 . S
H4382 C4374 0.930 . S
H4383 C4375 0.929 . S
H4384 C4392 0.929 . S
H4385 C4394 0.930 . S
H4386 C4396 0.930 . S
H4387 C4399 0.929 . S
H4388 C4402 0.930 . S
H4389 C4404 0.960 . S
H4390 C4404 0.960 . S
H4391 C4404 0.960 . S
C4392 H4384 0.929 . S
C4392 C4393 1.377 . S
C4392 C4394 1.384 . S
C4393 C4392 1.377 . S
C4393 C4399 1.390 . S
C4394 H4385 0.930 . S
C4394 C4392 1.384 . S
C4394 C4395 1.372 . S
C4395 C4394 1.372 . S
C4395 C4396 1.400 . S
C4395 C4400 1.490 . S
C4396 H4386 0.930 . S
C4396 C4395 1.400 . S
C4396 C4399 1.386 . S
H4397 C4413 0.930 . S
H4398 C4414 0.931 . S
C4399 H4387 0.929 . S
C4399 C4393 1.390 . S
C4399 C4396 1.386 . S
C4400 C4395 1.490 . S
C4400 C4402 1.395 . S
C4400 C4403 1.403 . S
H4401 C4407 0.930 . S
C4402 H4388 0.930 . S
C4402 C4400 1.395 . S
C4402 C4405 1.403 . S
C4403 C4400 1.403 . S
C4403 C4404 1.524 . S
C4403 C4407 1.400 . S
C4404 H4389 0.960 . S
C4404 H4390 0.960 . S
C4404 H4391 0.960 . S
C4404 C4403 1.524 . S
C4405 C4402 1.403 . S
C4405 C4406 1.392 . S
C4405 C4409 1.495 . S
C4406 C4405 1.392 . S
C4406 C4407 1.385 . S
C4406 C4408 1.478 . S
C4407 H4401 0.930 . S
C4407 C4403 1.400 . S
C4407 C4406 1.385 . S
C4408 C4406 1.478 . S
C4408 C4410 1.381 . S
C4408 C4414 1.383 . S
C4409 C4405 1.495 . S
C4409 H4415 0.959 . S
C4409 H4416 0.961 . S
C4409 H4417 0.960 . S
C4410 C4408 1.381 . S
C4410 C4411 1.394 . S
C4410 H4418 0.930 . S
C4411 C4410 1.394 . S
C4411 C4412 1.383 . S
C4411 H4419 0.929 . S
C4412 C4411 1.383 . S
C4412 C4413 1.377 . S
C4413 H4397 0.930 . S
C4413 C4412 1.377 . S
C4413 C4414 1.379 . S
C4414 H4398 0.931 . S
C4414 C4408 1.383 . S
C4414 C4413 1.379 . S
H4415 C4409 0.959 . S
H4416 C4409 0.961 . S
H4417 C4409 0.960 . S
H4418 C4410 0.930 . S
H4419 C4411 0.929 . S
H4420 C4428 0.929 . S
H4421 C4430 0.930 . S
H4422 C4432 0.930 . S
H4423 C4435 0.929 . S
H4424 C4438 0.930 . S
H4425 C4440 0.960 . S
H4426 C4440 0.960 . S
H4427 C4440 0.960 . S
C4428 H4420 0.929 . S
C4428 C4429 1.377 . S
C4428 C4430 1.384 . S
C4429 C4428 1.377 . S
C4429 C4435 1.390 . S
C4430 H4421 0.930 . S
C4430 C4428 1.384 . S
C4430 C4431 1.372 . S
C4431 C4430 1.372 . S
C4431 C4432 1.400 . S
C4431 C4436 1.490 . S
C4432 H4422 0.930 . S
C4432 C4431 1.400 . S
C4432 C4435 1.386 . S
H4433 C4449 0.930 . S
H4434 C4450 0.931 . S
C4435 H4423 0.929 . S
C4435 C4429 1.390 . S
C4435 C4432 1.386 . S
C4436 C4431 1.490 . S
C4436 C4438 1.395 . S
C4436 C4439 1.403 . S
H4437 C4443 0.930 . S
C4438 H4424 0.930 . S
C4438 C4436 1.395 . S
C4438 C4441 1.403 . S
C4439 C4436 1.403 . S
C4439 C4440 1.524 . S
C4439 C4443 1.400 . S
C4440 H4425 0.960 . S
C4440 H4426 0.960 . S
C4440 H4427 0.960 . S
C4440 C4439 1.524 . S
C4441 C4438 1.403 . S
C4441 C4442 1.392 . S
C4441 C4445 1.495 . S
C4442 C4441 1.392 . S
C4442 C4443 1.385 . S
C4442 C4444 1.478 . S
C4443 H4437 0.930 . S
C4443 C4439 1.400 . S
C4443 C4442 1.385 . S
C4444 C4442 1.478 . S
C4444 C4446 1.381 . S
C4444 C4450 1.383 . S
C4445 C4441 1.495 . S
C4445 H4451 0.959 . S
C4445 H4452 0.961 . S
C4445 H4453 0.960 . S
C4446 C4444 1.381 . S
C4446 C4447 1.394 . S
C4446 H4454 0.930 . S
C4447 C4446 1.394 . S
C4447 C4448 1.383 . S
C4447 H4455 0.929 . S
C4448 C4447 1.383 . S
C4448 C4449 1.377 . S
C4449 H4433 0.930 . S
C4449 C4448 1.377 . S
C4449 C4450 1.379 . S
C4450 H4434 0.931 . S
C4450 C4444 1.383 . S
C4450 C4449 1.379 . S
H4451 C4445 0.959 . S
H4452 C4445 0.961 . S
H4453 C4445 0.960 . S
H4454 C4446 0.930 . S
H4455 C4447 0.929 . S
H4456 C4464 0.929 . S
H4457 C4466 0.930 . S
H4458 C4468 0.930 . S
H4459 C4471 0.929 . S
H4460 C4474 0.930 . S
H4461 C4476 0.960 . S
H4462 C4476 0.960 . S
H4463 C4476 0.960 . S
C4464 H4456 0.929 . S
C4464 C4465 1.377 . S
C4464 C4466 1.384 . S
C4465 C4464 1.377 . S
C4465 C4471 1.390 . S
C4466 H4457 0.930 . S
C4466 C4464 1.384 . S
C4466 C4467 1.372 . S
C4467 C4466 1.372 . S
C4467 C4468 1.400 . S
C4467 C4472 1.490 . S
C4468 H4458 0.930 . S
C4468 C4467 1.400 . S
C4468 C4471 1.386 . S
H4469 C4485 0.930 . S
H4470 C4486 0.931 . S
C4471 H4459 0.929 . S
C4471 C4465 1.390 . S
C4471 C4468 1.386 . S
C4472 C4467 1.490 . S
C4472 C4474 1.395 . S
C4472 C4475 1.403 . S
H4473 C4479 0.930 . S
C4474 H4460 0.930 . S
C4474 C4472 1.395 . S
C4474 C4477 1.403 . S
C4475 C4472 1.403 . S
C4475 C4476 1.524 . S
C4475 C4479 1.400 . S
C4476 H4461 0.960 . S
C4476 H4462 0.960 . S
C4476 H4463 0.960 . S
C4476 C4475 1.524 . S
C4477 C4474 1.403 . S
C4477 C4478 1.392 . S
C4477 C4481 1.495 . S
C4478 C4477 1.392 . S
C4478 C4479 1.385 . S
C4478 C4480 1.478 . S
C4479 H4473 0.930 . S
C4479 C4475 1.400 . S
C4479 C4478 1.385 . S
C4480 C4478 1.478 . S
C4480 C4482 1.381 . S
C4480 C4486 1.383 . S
C4481 C4477 1.495 . S
C4481 H4487 0.959 . S
C4481 H4488 0.961 . S
C4481 H4489 0.960 . S
C4482 C4480 1.381 . S
C4482 C4483 1.394 . S
C4482 H4490 0.930 . S
C4483 C4482 1.394 . S
C4483 C4484 1.383 . S
C4483 H4491 0.929 . S
C4484 C4483 1.383 . S
C4484 C4485 1.377 . S
C4485 H4469 0.930 . S
C4485 C4484 1.377 . S
C4485 C4486 1.379 . S
C4486 H4470 0.931 . S
C4486 C4480 1.383 . S
C4486 C4485 1.379 . S
H4487 C4481 0.959 . S
H4488 C4481 0.961 . S
H4489 C4481 0.960 . S
H4490 C4482 0.930 . S
H4491 C4483 0.929 . S
H4492 C4500 0.929 . S
H4493 C4502 0.930 . S
H4494 C4504 0.930 . S
H4495 C4507 0.929 . S
H4496 C4510 0.930 . S
H4497 C4512 0.960 . S
H4498 C4512 0.960 . S
H4499 C4512 0.960 . S
C4500 H4492 0.929 . S
C4500 C4501 1.377 . S
C4500 C4502 1.384 . S
C4501 C4500 1.377 . S
C4501 C4507 1.390 . S
C4502 H4493 0.930 . S
C4502 C4500 1.384 . S
C4502 C4503 1.372 . S
C4503 C4502 1.372 . S
C4503 C4504 1.400 . S
C4503 C4508 1.490 . S
C4504 H4494 0.930 . S
C4504 C4503 1.400 . S
C4504 C4507 1.386 . S
H4505 C4521 0.930 . S
H4506 C4522 0.931 . S
C4507 H4495 0.929 . S
C4507 C4501 1.390 . S
C4507 C4504 1.386 . S
C4508 C4503 1.490 . S
C4508 C4510 1.395 . S
C4508 C4511 1.403 . S
H4509 C4515 0.930 . S
C4510 H4496 0.930 . S
C4510 C4508 1.395 . S
C4510 C4513 1.403 . S
C4511 C4508 1.403 . S
C4511 C4512 1.524 . S
C4511 C4515 1.400 . S
C4512 H4497 0.960 . S
C4512 H4498 0.960 . S
C4512 H4499 0.960 . S
C4512 C4511 1.524 . S
C4513 C4510 1.403 . S
C4513 C4514 1.392 . S
C4513 C4517 1.495 . S
C4514 C4513 1.392 . S
C4514 C4515 1.385 . S
C4514 C4516 1.478 . S
C4515 H4509 0.930 . S
C4515 C4511 1.400 . S
C4515 C4514 1.385 . S
C4516 C4514 1.478 . S
C4516 C4518 1.381 . S
C4516 C4522 1.383 . S
C4517 C4513 1.495 . S
C4517 H4523 0.959 . S
C4517 H4524 0.961 . S
C4517 H4525 0.960 . S
C4518 C4516 1.381 . S
C4518 C4519 1.394 . S
C4518 H4526 0.930 . S
C4519 C4518 1.394 . S
C4519 C4520 1.383 . S
C4519 H4527 0.929 . S
C4520 C4519 1.383 . S
C4520 C4521 1.377 . S
C4521 H4505 0.930 . S
C4521 C4520 1.377 . S
C4521 C4522 1.379 . S
C4522 H4506 0.931 . S
C4522 C4516 1.383 . S
C4522 C4521 1.379 . S
H4523 C4517 0.959 . S
H4524 C4517 0.961 . S
H4525 C4517 0.960 . S
H4526 C4518 0.930 . S
H4527 C4519 0.929 . S
H4528 C4536 0.929 . S
H4529 C4538 0.930 . S
H4530 C4540 0.930 . S
H4531 C4543 0.929 . S
H4532 C4546 0.930 . S
H4533 C4548 0.960 . S
H4534 C4548 0.960 . S
H4535 C4548 0.960 . S
C4536 H4528 0.929 . S
C4536 C4537 1.377 . S
C4536 C4538 1.384 . S
C4537 C4536 1.377 . S
C4537 C4543 1.390 . S
C4538 H4529 0.930 . S
C4538 C4536 1.384 . S
C4538 C4539 1.372 . S
C4539 C4538 1.372 . S
C4539 C4540 1.400 . S
C4539 C4544 1.490 . S
C4540 H4530 0.930 . S
C4540 C4539 1.400 . S
C4540 C4543 1.386 . S
H4541 C4557 0.930 . S
H4542 C4558 0.931 . S
C4543 H4531 0.929 . S
C4543 C4537 1.390 . S
C4543 C4540 1.386 . S
C4544 C4539 1.490 . S
C4544 C4546 1.395 . S
C4544 C4547 1.403 . S
H4545 C4551 0.930 . S
C4546 H4532 0.930 . S
C4546 C4544 1.395 . S
C4546 C4549 1.403 . S
C4547 C4544 1.403 . S
C4547 C4548 1.524 . S
C4547 C4551 1.400 . S
C4548 H4533 0.960 . S
C4548 H4534 0.960 . S
C4548 H4535 0.960 . S
C4548 C4547 1.524 . S
C4549 C4546 1.403 . S
C4549 C4550 1.392 . S
C4549 C4553 1.495 . S
C4550 C4549 1.392 . S
C4550 C4551 1.385 . S
C4550 C4552 1.478 . S
C4551 H4545 0.930 . S
C4551 C4547 1.400 . S
C4551 C4550 1.385 . S
C4552 C4550 1.478 . S
C4552 C4554 1.381 . S
C4552 C4558 1.383 . S
C4553 C4549 1.495 . S
C4553 H4559 0.959 . S
C4553 H4560 0.961 . S
C4553 H4561 0.960 . S
C4554 C4552 1.381 . S
C4554 C4555 1.394 . S
C4554 H4562 0.930 . S
C4555 C4554 1.394 . S
C4555 C4556 1.383 . S
C4555 H4563 0.929 . S
C4556 C4555 1.383 . S
C4556 C4557 1.377 . S
C4557 H4541 0.930 . S
C4557 C4556 1.377 . S
C4557 C4558 1.379 . S
C4558 H4542 0.931 . S
C4558 C4552 1.383 . S
C4558 C4557 1.379 . S
H4559 C4553 0.959 . S
H4560 C4553 0.961 . S
H4561 C4553 0.960 . S
H4562 C4554 0.930 . S
H4563 C4555 0.929 . S
H4564 C4572 0.929 . S
H4565 C4574 0.930 . S
H4566 C4576 0.930 . S
H4567 C4579 0.929 . S
H4568 C4582 0.930 . S
H4569 C4584 0.960 . S
H4570 C4584 0.960 . S
H4571 C4584 0.960 . S
C4572 H4564 0.929 . S
C4572 C4573 1.377 . S
C4572 C4574 1.384 . S
C4573 C4572 1.377 . S
C4573 C4579 1.390 . S
C4574 H4565 0.930 . S
C4574 C4572 1.384 . S
C4574 C4575 1.372 . S
C4575 C4574 1.372 . S
C4575 C4576 1.400 . S
C4575 C4580 1.490 . S
C4576 H4566 0.930 . S
C4576 C4575 1.400 . S
C4576 C4579 1.386 . S
H4577 C4593 0.930 . S
H4578 C4594 0.931 . S
C4579 H4567 0.929 . S
C4579 C4573 1.390 . S
C4579 C4576 1.386 . S
C4580 C4575 1.490 . S
C4580 C4582 1.395 . S
C4580 C4583 1.403 . S
H4581 C4587 0.930 . S
C4582 H4568 0.930 . S
C4582 C4580 1.395 . S
C4582 C4585 1.403 . S
C4583 C4580 1.403 . S
C4583 C4584 1.524 . S
C4583 C4587 1.400 . S
C4584 H4569 0.960 . S
C4584 H4570 0.960 . S
C4584 H4571 0.960 . S
C4584 C4583 1.524 . S
C4585 C4582 1.403 . S
C4585 C4586 1.392 . S
C4585 C4589 1.495 . S
C4586 C4585 1.392 . S
C4586 C4587 1.385 . S
C4586 C4588 1.478 . S
C4587 H4581 0.930 . S
C4587 C4583 1.400 . S
C4587 C4586 1.385 . S
C4588 C4586 1.478 . S
C4588 C4590 1.381 . S
C4588 C4594 1.383 . S
C4589 C4585 1.495 . S
C4589 H4595 0.959 . S
C4589 H4596 0.961 . S
C4589 H4597 0.960 . S
C4590 C4588 1.381 . S
C4590 C4591 1.394 . S
C4590 H4598 0.930 . S
C4591 C4590 1.394 . S
C4591 C4592 1.383 . S
C4591 H4599 0.929 . S
C4592 C4591 1.383 . S
C4592 C4593 1.377 . S
C4593 H4577 0.930 . S
C4593 C4592 1.377 . S
C4593 C4594 1.379 . S
C4594 H4578 0.931 . S
C4594 C4588 1.383 . S
C4594 C4593 1.379 . S
H4595 C4589 0.959 . S
H4596 C4589 0.961 . S
H4597 C4589 0.960 . S
H4598 C4590 0.930 . S
H4599 C4591 0.929 . S
H4600 C4608 0.929 . S
H4601 C4610 0.930 . S
H4602 C4612 0.930 . S
H4603 C4615 0.929 . S
H4604 C4618 0.930 . S
H4605 C4620 0.960 . S
H4606 C4620 0.960 . S
H4607 C4620 0.960 . S
C4608 H4600 0.929 . S
C4608 C4609 1.377 . S
C4608 C4610 1.384 . S
C4609 C4608 1.377 . S
C4609 C4615 1.390 . S
C4610 H4601 0.930 . S
C4610 C4608 1.384 . S
C4610 C4611 1.372 . S
C4611 C4610 1.372 . S
C4611 C4612 1.400 . S
C4611 C4616 1.490 . S
C4612 H4602 0.930 . S
C4612 C4611 1.400 . S
C4612 C4615 1.386 . S
H4613 C4629 0.930 . S
H4614 C4630 0.931 . S
C4615 H4603 0.929 . S
C4615 C4609 1.390 . S
C4615 C4612 1.386 . S
C4616 C4611 1.490 . S
C4616 C4618 1.395 . S
C4616 C4619 1.403 . S
H4617 C4623 0.930 . S
C4618 H4604 0.930 . S
C4618 C4616 1.395 . S
C4618 C4621 1.403 . S
C4619 C4616 1.403 . S
C4619 C4620 1.524 . S
C4619 C4623 1.400 . S
C4620 H4605 0.960 . S
C4620 H4606 0.960 . S
C4620 H4607 0.960 . S
C4620 C4619 1.524 . S
C4621 C4618 1.403 . S
C4621 C4622 1.392 . S
C4621 C4625 1.495 . S
C4622 C4621 1.392 . S
C4622 C4623 1.385 . S
C4622 C4624 1.478 . S
C4623 H4617 0.930 . S
C4623 C4619 1.400 . S
C4623 C4622 1.385 . S
C4624 C4622 1.478 . S
C4624 C4626 1.381 . S
C4624 C4630 1.383 . S
C4625 C4621 1.495 . S
C4625 H4631 0.959 . S
C4625 H4632 0.961 . S
C4625 H4633 0.960 . S
C4626 C4624 1.381 . S
C4626 C4627 1.394 . S
C4626 H4634 0.930 . S
C4627 C4626 1.394 . S
C4627 C4628 1.383 . S
C4627 H4635 0.929 . S
C4628 C4627 1.383 . S
C4628 C4629 1.377 . S
C4629 H4613 0.930 . S
C4629 C4628 1.377 . S
C4629 C4630 1.379 . S
C4630 H4614 0.931 . S
C4630 C4624 1.383 . S
C4630 C4629 1.379 . S
H4631 C4625 0.959 . S
H4632 C4625 0.961 . S
H4633 C4625 0.960 . S
H4634 C4626 0.930 . S
H4635 C4627 0.929 . S
H4636 C4644 0.929 . S
H4637 C4646 0.930 . S
H4638 C4648 0.930 . S
H4639 C4651 0.929 . S
H4640 C4654 0.930 . S
H4641 C4656 0.960 . S
H4642 C4656 0.960 . S
H4643 C4656 0.960 . S
C4644 H4636 0.929 . S
C4644 C4645 1.377 . S
C4644 C4646 1.384 . S
C4645 C4644 1.377 . S
C4645 C4651 1.390 . S
C4646 H4637 0.930 . S
C4646 C4644 1.384 . S
C4646 C4647 1.372 . S
C4647 C4646 1.372 . S
C4647 C4648 1.400 . S
C4647 C4652 1.490 . S
C4648 H4638 0.930 . S
C4648 C4647 1.400 . S
C4648 C4651 1.386 . S
H4649 C4665 0.930 . S
H4650 C4666 0.931 . S
C4651 H4639 0.929 . S
C4651 C4645 1.390 . S
C4651 C4648 1.386 . S
C4652 C4647 1.490 . S
C4652 C4654 1.395 . S
C4652 C4655 1.403 . S
H4653 C4659 0.930 . S
C4654 H4640 0.930 . S
C4654 C4652 1.395 . S
C4654 C4657 1.403 . S
C4655 C4652 1.403 . S
C4655 C4656 1.524 . S
C4655 C4659 1.400 . S
C4656 H4641 0.960 . S
C4656 H4642 0.960 . S
C4656 H4643 0.960 . S
C4656 C4655 1.524 . S
C4657 C4654 1.403 . S
C4657 C4658 1.392 . S
C4657 C4661 1.495 . S
C4658 C4657 1.392 . S
C4658 C4659 1.385 . S
C4658 C4660 1.478 . S
C4659 H4653 0.930 . S
C4659 C4655 1.400 . S
C4659 C4658 1.385 . S
C4660 C4658 1.478 . S
C4660 C4662 1.381 . S
C4660 C4666 1.383 . S
C4661 C4657 1.495 . S
C4661 H4667 0.959 . S
C4661 H4668 0.961 . S
C4661 H4669 0.960 . S
C4662 C4660 1.381 . S
C4662 C4663 1.394 . S
C4662 H4670 0.930 . S
C4663 C4662 1.394 . S
C4663 C4664 1.383 . S
C4663 H4671 0.929 . S
C4664 C4663 1.383 . S
C4664 C4665 1.377 . S
C4665 H4649 0.930 . S
C4665 C4664 1.377 . S
C4665 C4666 1.379 . S
C4666 H4650 0.931 . S
C4666 C4660 1.383 . S
C4666 C4665 1.379 . S
H4667 C4661 0.959 . S
H4668 C4661 0.961 . S
H4669 C4661 0.960 . S
H4670 C4662 0.930 . S
H4671 C4663 0.929 . S
H4672 C4680 0.929 . S
H4673 C4682 0.930 . S
H4674 C4684 0.930 . S
H4675 C4687 0.929 . S
H4676 C4690 0.930 . S
H4677 C4692 0.960 . S
H4678 C4692 0.960 . S
H4679 C4692 0.960 . S
C4680 H4672 0.929 . S
C4680 C4681 1.377 . S
C4680 C4682 1.384 . S
C4681 C4680 1.377 . S
C4681 C4687 1.390 . S
C4682 H4673 0.930 . S
C4682 C4680 1.384 . S
C4682 C4683 1.372 . S
C4683 C4682 1.372 . S
C4683 C4684 1.400 . S
C4683 C4688 1.490 . S
C4684 H4674 0.930 . S
C4684 C4683 1.400 . S
C4684 C4687 1.386 . S
H4685 C4701 0.930 . S
H4686 C4702 0.931 . S
C4687 H4675 0.929 . S
C4687 C4681 1.390 . S
C4687 C4684 1.386 . S
C4688 C4683 1.490 . S
C4688 C4690 1.395 . S
C4688 C4691 1.403 . S
H4689 C4695 0.930 . S
C4690 H4676 0.930 . S
C4690 C4688 1.395 . S
C4690 C4693 1.403 . S
C4691 C4688 1.403 . S
C4691 C4692 1.524 . S
C4691 C4695 1.400 . S
C4692 H4677 0.960 . S
C4692 H4678 0.960 . S
C4692 H4679 0.960 . S
C4692 C4691 1.524 . S
C4693 C4690 1.403 . S
C4693 C4694 1.392 . S
C4693 C4697 1.495 . S
C4694 C4693 1.392 . S
C4694 C4695 1.385 . S
C4694 C4696 1.478 . S
C4695 H4689 0.930 . S
C4695 C4691 1.400 . S
C4695 C4694 1.385 . S
C4696 C4694 1.478 . S
C4696 C4698 1.381 . S
C4696 C4702 1.383 . S
C4697 C4693 1.495 . S
C4697 H4703 0.959 . S
C4697 H4704 0.961 . S
C4697 H4705 0.960 . S
C4698 C4696 1.381 . S
C4698 C4699 1.394 . S
C4698 H4706 0.930 . S
C4699 C4698 1.394 . S
C4699 C4700 1.383 . S
C4699 H4707 0.929 . S
C4700 C4699 1.383 . S
C4700 C4701 1.377 . S
C4701 H4685 0.930 . S
C4701 C4700 1.377 . S
C4701 C4702 1.379 . S
C4702 H4686 0.931 . S
C4702 C4696 1.383 . S
C4702 C4701 1.379 . S
H4703 C4697 0.959 . S
H4704 C4697 0.961 . S
H4705 C4697 0.960 . S
H4706 C4698 0.930 . S
H4707 C4699 0.929 . S
H4708 C4716 0.929 . S
H4709 C4718 0.930 . S
H4710 C4720 0.930 . S
H4711 C4723 0.929 . S
H4712 C4726 0.930 . S
H4713 C4728 0.960 . S
H4714 C4728 0.960 . S
H4715 C4728 0.960 . S
C4716 H4708 0.929 . S
C4716 C4717 1.377 . S
C4716 C4718 1.384 . S
C4717 C4716 1.377 . S
C4717 C4723 1.390 . S
C4718 H4709 0.930 . S
C4718 C4716 1.384 . S
C4718 C4719 1.372 . S
C4719 C4718 1.372 . S
C4719 C4720 1.400 . S
C4719 C4724 1.490 . S
C4720 H4710 0.930 . S
C4720 C4719 1.400 . S
C4720 C4723 1.386 . S
H4721 C4737 0.930 . S
H4722 C4738 0.931 . S
C4723 H4711 0.929 . S
C4723 C4717 1.390 . S
C4723 C4720 1.386 . S
C4724 C4719 1.490 . S
C4724 C4726 1.395 . S
C4724 C4727 1.403 . S
H4725 C4731 0.930 . S
C4726 H4712 0.930 . S
C4726 C4724 1.395 . S
C4726 C4729 1.403 . S
C4727 C4724 1.403 . S
C4727 C4728 1.524 . S
C4727 C4731 1.400 . S
C4728 H4713 0.960 . S
C4728 H4714 0.960 . S
C4728 H4715 0.960 . S
C4728 C4727 1.524 . S
C4729 C4726 1.403 . S
C4729 C4730 1.392 . S
C4729 C4733 1.495 . S
C4730 C4729 1.392 . S
C4730 C4731 1.385 . S
C4730 C4732 1.478 . S
C4731 H4725 0.930 . S
C4731 C4727 1.400 . S
C4731 C4730 1.385 . S
C4732 C4730 1.478 . S
C4732 C4734 1.381 . S
C4732 C4738 1.383 . S
C4733 C4729 1.495 . S
C4733 H4739 0.959 . S
C4733 H4740 0.961 . S
C4733 H4741 0.960 . S
C4734 C4732 1.381 . S
C4734 C4735 1.394 . S
C4734 H4742 0.930 . S
C4735 C4734 1.394 . S
C4735 C4736 1.383 . S
C4735 H4743 0.929 . S
C4736 C4735 1.383 . S
C4736 C4737 1.377 . S
C4737 H4721 0.930 . S
C4737 C4736 1.377 . S
C4737 C4738 1.379 . S
C4738 H4722 0.931 . S
C4738 C4732 1.383 . S
C4738 C4737 1.379 . S
H4739 C4733 0.959 . S
H4740 C4733 0.961 . S
H4741 C4733 0.960 . S
H4742 C4734 0.930 . S
H4743 C4735 0.929 . S
H4744 C4752 0.929 . S
H4745 C4754 0.930 . S
H4746 C4756 0.930 . S
H4747 C4759 0.929 . S
H4748 C4762 0.930 . S
H4749 C4764 0.960 . S
H4750 C4764 0.960 . S
H4751 C4764 0.960 . S
C4752 H4744 0.929 . S
C4752 C4753 1.377 . S
C4752 C4754 1.384 . S
C4753 C4752 1.377 . S
C4753 C4759 1.390 . S
C4754 H4745 0.930 . S
C4754 C4752 1.384 . S
C4754 C4755 1.372 . S
C4755 C4754 1.372 . S
C4755 C4756 1.400 . S
C4755 C4760 1.490 . S
C4756 H4746 0.930 . S
C4756 C4755 1.400 . S
C4756 C4759 1.386 . S
H4757 C4773 0.930 . S
H4758 C4774 0.931 . S
C4759 H4747 0.929 . S
C4759 C4753 1.390 . S
C4759 C4756 1.386 . S
C4760 C4755 1.490 . S
C4760 C4762 1.395 . S
C4760 C4763 1.403 . S
H4761 C4767 0.930 . S
C4762 H4748 0.930 . S
C4762 C4760 1.395 . S
C4762 C4765 1.403 . S
C4763 C4760 1.403 . S
C4763 C4764 1.524 . S
C4763 C4767 1.400 . S
C4764 H4749 0.960 . S
C4764 H4750 0.960 . S
C4764 H4751 0.960 . S
C4764 C4763 1.524 . S
C4765 C4762 1.403 . S
C4765 C4766 1.392 . S
C4765 C4769 1.495 . S
C4766 C4765 1.392 . S
C4766 C4767 1.385 . S
C4766 C4768 1.478 . S
C4767 H4761 0.930 . S
C4767 C4763 1.400 . S
C4767 C4766 1.385 . S
C4768 C4766 1.478 . S
C4768 C4770 1.381 . S
C4768 C4774 1.383 . S
C4769 C4765 1.495 . S
C4769 H4775 0.959 . S
C4769 H4776 0.961 . S
C4769 H4777 0.960 . S
C4770 C4768 1.381 . S
C4770 C4771 1.394 . S
C4770 H4778 0.930 . S
C4771 C4770 1.394 . S
C4771 C4772 1.383 . S
C4771 H4779 0.929 . S
C4772 C4771 1.383 . S
C4772 C4773 1.377 . S
C4773 H4757 0.930 . S
C4773 C4772 1.377 . S
C4773 C4774 1.379 . S
C4774 H4758 0.931 . S
C4774 C4768 1.383 . S
C4774 C4773 1.379 . S
H4775 C4769 0.959 . S
H4776 C4769 0.961 . S
H4777 C4769 0.960 . S
H4778 C4770 0.930 . S
H4779 C4771 0.929 . S
H4780 C4788 0.929 . S
H4781 C4790 0.930 . S
H4782 C4792 0.930 . S
H4783 C4795 0.929 . S
H4784 C4798 0.930 . S
H4785 C4800 0.960 . S
H4786 C4800 0.960 . S
H4787 C4800 0.960 . S
C4788 H4780 0.929 . S
C4788 C4789 1.377 . S
C4788 C4790 1.384 . S
C4789 C4788 1.377 . S
C4789 C4795 1.390 . S
C4790 H4781 0.930 . S
C4790 C4788 1.384 . S
C4790 C4791 1.372 . S
C4791 C4790 1.372 . S
C4791 C4792 1.400 . S
C4791 C4796 1.490 . S
C4792 H4782 0.930 . S
C4792 C4791 1.400 . S
C4792 C4795 1.386 . S
H4793 C4809 0.930 . S
H4794 C4810 0.931 . S
C4795 H4783 0.929 . S
C4795 C4789 1.390 . S
C4795 C4792 1.386 . S
C4796 C4791 1.490 . S
C4796 C4798 1.395 . S
C4796 C4799 1.403 . S
H4797 C4803 0.930 . S
C4798 H4784 0.930 . S
C4798 C4796 1.395 . S
C4798 C4801 1.403 . S
C4799 C4796 1.403 . S
C4799 C4800 1.524 . S
C4799 C4803 1.400 . S
C4800 H4785 0.960 . S
C4800 H4786 0.960 . S
C4800 H4787 0.960 . S
C4800 C4799 1.524 . S
C4801 C4798 1.403 . S
C4801 C4802 1.392 . S
C4801 C4805 1.495 . S
C4802 C4801 1.392 . S
C4802 C4803 1.385 . S
C4802 C4804 1.478 . S
C4803 H4797 0.930 . S
C4803 C4799 1.400 . S
C4803 C4802 1.385 . S
C4804 C4802 1.478 . S
C4804 C4806 1.381 . S
C4804 C4810 1.383 . S
C4805 C4801 1.495 . S
C4805 H4811 0.959 . S
C4805 H4812 0.961 . S
C4805 H4813 0.960 . S
C4806 C4804 1.381 . S
C4806 C4807 1.394 . S
C4806 H4814 0.930 . S
C4807 C4806 1.394 . S
C4807 C4808 1.383 . S
C4807 H4815 0.929 . S
C4808 C4807 1.383 . S
C4808 C4809 1.377 . S
C4809 H4793 0.930 . S
C4809 C4808 1.377 . S
C4809 C4810 1.379 . S
C4810 H4794 0.931 . S
C4810 C4804 1.383 . S
C4810 C4809 1.379 . S
H4811 C4805 0.959 . S
H4812 C4805 0.961 . S
H4813 C4805 0.960 . S
H4814 C4806 0.930 . S
H4815 C4807 0.929 . S
H4816 C4824 0.929 . S
H4817 C4826 0.930 . S
H4818 C4828 0.930 . S
H4819 C4831 0.929 . S
H4820 C4834 0.930 . S
H4821 C4836 0.960 . S
H4822 C4836 0.960 . S
H4823 C4836 0.960 . S
C4824 H4816 0.929 . S
C4824 C4825 1.377 . S
C4824 C4826 1.384 . S
C4825 C4824 1.377 . S
C4825 C4831 1.390 . S
C4826 H4817 0.930 . S
C4826 C4824 1.384 . S
C4826 C4827 1.372 . S
C4827 C4826 1.372 . S
C4827 C4828 1.400 . S
C4827 C4832 1.490 . S
C4828 H4818 0.930 . S
C4828 C4827 1.400 . S
C4828 C4831 1.386 . S
H4829 C4845 0.930 . S
H4830 C4846 0.931 . S
C4831 H4819 0.929 . S
C4831 C4825 1.390 . S
C4831 C4828 1.386 . S
C4832 C4827 1.490 . S
C4832 C4834 1.395 . S
C4832 C4835 1.403 . S
H4833 C4839 0.930 . S
C4834 H4820 0.930 . S
C4834 C4832 1.395 . S
C4834 C4837 1.403 . S
C4835 C4832 1.403 . S
C4835 C4836 1.524 . S
C4835 C4839 1.400 . S
C4836 H4821 0.960 . S
C4836 H4822 0.960 . S
C4836 H4823 0.960 . S
C4836 C4835 1.524 . S
C4837 C4834 1.403 . S
C4837 C4838 1.392 . S
C4837 C4841 1.495 . S
C4838 C4837 1.392 . S
C4838 C4839 1.385 . S
C4838 C4840 1.478 . S
C4839 H4833 0.930 . S
C4839 C4835 1.400 . S
C4839 C4838 1.385 . S
C4840 C4838 1.478 . S
C4840 C4842 1.381 . S
C4840 C4846 1.383 . S
C4841 C4837 1.495 . S
C4841 H4847 0.959 . S
C4841 H4848 0.961 . S
C4841 H4849 0.960 . S
C4842 C4840 1.381 . S
C4842 C4843 1.394 . S
C4842 H4850 0.930 . S
C4843 C4842 1.394 . S
C4843 C4844 1.383 . S
C4843 H4851 0.929 . S
C4844 C4843 1.383 . S
C4844 C4845 1.377 . S
C4845 H4829 0.930 . S
C4845 C4844 1.377 . S
C4845 C4846 1.379 . S
C4846 H4830 0.931 . S
C4846 C4840 1.383 . S
C4846 C4845 1.379 . S
H4847 C4841 0.959 . S
H4848 C4841 0.961 . S
H4849 C4841 0.960 . S
H4850 C4842 0.930 . S
H4851 C4843 0.929 . S
H4852 C4860 0.929 . S
H4853 C4862 0.930 . S
H4854 C4864 0.930 . S
H4855 C4867 0.929 . S
H4856 C4870 0.930 . S
H4857 C4872 0.960 . S
H4858 C4872 0.960 . S
H4859 C4872 0.960 . S
C4860 H4852 0.929 . S
C4860 C4861 1.377 . S
C4860 C4862 1.384 . S
C4861 C4860 1.377 . S
C4861 C4867 1.390 . S
C4862 H4853 0.930 . S
C4862 C4860 1.384 . S
C4862 C4863 1.372 . S
C4863 C4862 1.372 . S
C4863 C4864 1.400 . S
C4863 C4868 1.490 . S
C4864 H4854 0.930 . S
C4864 C4863 1.400 . S
C4864 C4867 1.386 . S
H4865 C4881 0.930 . S
H4866 C4882 0.931 . S
C4867 H4855 0.929 . S
C4867 C4861 1.390 . S
C4867 C4864 1.386 . S
C4868 C4863 1.490 . S
C4868 C4870 1.395 . S
C4868 C4871 1.403 . S
H4869 C4875 0.930 . S
C4870 H4856 0.930 . S
C4870 C4868 1.395 . S
C4870 C4873 1.403 . S
C4871 C4868 1.403 . S
C4871 C4872 1.524 . S
C4871 C4875 1.400 . S
C4872 H4857 0.960 . S
C4872 H4858 0.960 . S
C4872 H4859 0.960 . S
C4872 C4871 1.524 . S
C4873 C4870 1.403 . S
C4873 C4874 1.392 . S
C4873 C4877 1.495 . S
C4874 C4873 1.392 . S
C4874 C4875 1.385 . S
C4874 C4876 1.478 . S
C4875 H4869 0.930 . S
C4875 C4871 1.400 . S
C4875 C4874 1.385 . S
C4876 C4874 1.478 . S
C4876 C4878 1.381 . S
C4876 C4882 1.383 . S
C4877 C4873 1.495 . S
C4877 H4883 0.959 . S
C4877 H4884 0.961 . S
C4877 H4885 0.960 . S
C4878 C4876 1.381 . S
C4878 C4879 1.394 . S
C4878 H4886 0.930 . S
C4879 C4878 1.394 . S
C4879 C4880 1.383 . S
C4879 H4887 0.929 . S
C4880 C4879 1.383 . S
C4880 C4881 1.377 . S
C4881 H4865 0.930 . S
C4881 C4880 1.377 . S
C4881 C4882 1.379 . S
C4882 H4866 0.931 . S
C4882 C4876 1.383 . S
C4882 C4881 1.379 . S
H4883 C4877 0.959 . S
H4884 C4877 0.961 . S
H4885 C4877 0.960 . S
H4886 C4878 0.930 . S
H4887 C4879 0.929 . S
H4888 C4896 0.929 . S
H4889 C4898 0.930 . S
H4890 C4900 0.930 . S
H4891 C4903 0.929 . S
H4892 C4906 0.930 . S
H4893 C4908 0.960 . S
H4894 C4908 0.960 . S
H4895 C4908 0.960 . S
C4896 H4888 0.929 . S
C4896 C4897 1.377 . S
C4896 C4898 1.384 . S
C4897 C4896 1.377 . S
C4897 C4903 1.390 . S
C4898 H4889 0.930 . S
C4898 C4896 1.384 . S
C4898 C4899 1.372 . S
C4899 C4898 1.372 . S
C4899 C4900 1.400 . S
C4899 C4904 1.490 . S
C4900 H4890 0.930 . S
C4900 C4899 1.400 . S
C4900 C4903 1.386 . S
H4901 C4917 0.930 . S
H4902 C4918 0.931 . S
C4903 H4891 0.929 . S
C4903 C4897 1.390 . S
C4903 C4900 1.386 . S
C4904 C4899 1.490 . S
C4904 C4906 1.395 . S
C4904 C4907 1.403 . S
H4905 C4911 0.930 . S
C4906 H4892 0.930 . S
C4906 C4904 1.395 . S
C4906 C4909 1.403 . S
C4907 C4904 1.403 . S
C4907 C4908 1.524 . S
C4907 C4911 1.400 . S
C4908 H4893 0.960 . S
C4908 H4894 0.960 . S
C4908 H4895 0.960 . S
C4908 C4907 1.524 . S
C4909 C4906 1.403 . S
C4909 C4910 1.392 . S
C4909 C4913 1.495 . S
C4910 C4909 1.392 . S
C4910 C4911 1.385 . S
C4910 C4912 1.478 . S
C4911 H4905 0.930 . S
C4911 C4907 1.400 . S
C4911 C4910 1.385 . S
C4912 C4910 1.478 . S
C4912 C4914 1.381 . S
C4912 C4918 1.383 . S
C4913 C4909 1.495 . S
C4913 H4919 0.959 . S
C4913 H4920 0.961 . S
C4913 H4921 0.960 . S
C4914 C4912 1.381 . S
C4914 C4915 1.394 . S
C4914 H4922 0.930 . S
C4915 C4914 1.394 . S
C4915 C4916 1.383 . S
C4915 H4923 0.929 . S
C4916 C4915 1.383 . S
C4916 C4917 1.377 . S
C4917 H4901 0.930 . S
C4917 C4916 1.377 . S
C4917 C4918 1.379 . S
C4918 H4902 0.931 . S
C4918 C4912 1.383 . S
C4918 C4917 1.379 . S
H4919 C4913 0.959 . S
H4920 C4913 0.961 . S
H4921 C4913 0.960 . S
H4922 C4914 0.930 . S
H4923 C4915 0.929 . S
H4924 C4932 0.929 . S
H4925 C4934 0.930 . S
H4926 C4936 0.930 . S
H4927 C4939 0.929 . S
H4928 C4942 0.930 . S
H4929 C4944 0.960 . S
H4930 C4944 0.960 . S
H4931 C4944 0.960 . S
C4932 H4924 0.929 . S
C4932 C4933 1.377 . S
C4932 C4934 1.384 . S
C4933 C4932 1.377 . S
C4933 C4939 1.390 . S
C4934 H4925 0.930 . S
C4934 C4932 1.384 . S
C4934 C4935 1.372 . S
C4935 C4934 1.372 . S
C4935 C4936 1.400 . S
C4935 C4940 1.490 . S
C4936 H4926 0.930 . S
C4936 C4935 1.400 . S
C4936 C4939 1.386 . S
H4937 C4953 0.930 . S
H4938 C4954 0.931 . S
C4939 H4927 0.929 . S
C4939 C4933 1.390 . S
C4939 C4936 1.386 . S
C4940 C4935 1.490 . S
C4940 C4942 1.395 . S
C4940 C4943 1.403 . S
H4941 C4947 0.930 . S
C4942 H4928 0.930 . S
C4942 C4940 1.395 . S
C4942 C4945 1.403 . S
C4943 C4940 1.403 . S
C4943 C4944 1.524 . S
C4943 C4947 1.400 . S
C4944 H4929 0.960 . S
C4944 H4930 0.960 . S
C4944 H4931 0.960 . S
C4944 C4943 1.524 . S
C4945 C4942 1.403 . S
C4945 C4946 1.392 . S
C4945 C4949 1.495 . S
C4946 C4945 1.392 . S
C4946 C4947 1.385 . S
C4946 C4948 1.478 . S
C4947 H4941 0.930 . S
C4947 C4943 1.400 . S
C4947 C4946 1.385 . S
C4948 C4946 1.478 . S
C4948 C4950 1.381 . S
C4948 C4954 1.383 . S
C4949 C4945 1.495 . S
C4949 H4955 0.959 . S
C4949 H4956 0.961 . S
C4949 H4957 0.960 . S
C4950 C4948 1.381 . S
C4950 C4951 1.394 . S
C4950 H4958 0.930 . S
C4951 C4950 1.394 . S
C4951 C4952 1.383 . S
C4951 H4959 0.929 . S
C4952 C4951 1.383 . S
C4952 C4953 1.377 . S
C4953 H4937 0.930 . S
C4953 C4952 1.377 . S
C4953 C4954 1.379 . S
C4954 H4938 0.931 . S
C4954 C4948 1.383 . S
C4954 C4953 1.379 . S
H4955 C4949 0.959 . S
H4956 C4949 0.961 . S
H4957 C4949 0.960 . S
H4958 C4950 0.930 . S
H4959 C4951 0.929 . S
H4960 C4968 0.929 . S
H4961 C4970 0.930 . S
H4962 C4972 0.930 . S
H4963 C4975 0.929 . S
H4964 C4978 0.930 . S
H4965 C4980 0.960 . S
H4966 C4980 0.960 . S
H4967 C4980 0.960 . S
C4968 H4960 0.929 . S
C4968 C4969 1.377 . S
C4968 C4970 1.384 . S
C4969 C4968 1.377 . S
C4969 C4975 1.390 . S
C4970 H4961 0.930 . S
C4970 C4968 1.384 . S
C4970 C4971 1.372 . S
C4971 C4970 1.372 . S
C4971 C4972 1.400 . S
C4971 C4976 1.490 . S
C4972 H4962 0.930 . S
C4972 C4971 1.400 . S
C4972 C4975 1.386 . S
H4973 C4989 0.930 . S
H4974 C4990 0.931 . S
C4975 H4963 0.929 . S
C4975 C4969 1.390 . S
C4975 C4972 1.386 . S
C4976 C4971 1.490 . S
C4976 C4978 1.395 . S
C4976 C4979 1.403 . S
H4977 C4983 0.930 . S
C4978 H4964 0.930 . S
C4978 C4976 1.395 . S
C4978 C4981 1.403 . S
C4979 C4976 1.403 . S
C4979 C4980 1.524 . S
C4979 C4983 1.400 . S
C4980 H4965 0.960 . S
C4980 H4966 0.960 . S
C4980 H4967 0.960 . S
C4980 C4979 1.524 . S
C4981 C4978 1.403 . S
C4981 C4982 1.392 . S
C4981 C4985 1.495 . S
C4982 C4981 1.392 . S
C4982 C4983 1.385 . S
C4982 C4984 1.478 . S
C4983 H4977 0.930 . S
C4983 C4979 1.400 . S
C4983 C4982 1.385 . S
C4984 C4982 1.478 . S
C4984 C4986 1.381 . S
C4984 C4990 1.383 . S
C4985 C4981 1.495 . S
C4985 H4991 0.959 . S
C4985 H4992 0.961 . S
C4985 H4993 0.960 . S
C4986 C4984 1.381 . S
C4986 C4987 1.394 . S
C4986 H4994 0.930 . S
C4987 C4986 1.394 . S
C4987 C4988 1.383 . S
C4987 H4995 0.929 . S
C4988 C4987 1.383 . S
C4988 C4989 1.377 . S
C4989 H4973 0.930 . S
C4989 C4988 1.377 . S
C4989 C4990 1.379 . S
C4990 H4974 0.931 . S
C4990 C4984 1.383 . S
C4990 C4989 1.379 . S
H4991 C4985 0.959 . S
H4992 C4985 0.961 . S
H4993 C4985 0.960 . S
H4994 C4986 0.930 . S
H4995 C4987 0.929 . S
H4996 C5004 0.929 . S
H4997 C5006 0.930 . S
H4998 C5008 0.930 . S
H4999 C5011 0.929 . S
H5000 C5014 0.930 . S
H5001 C5016 0.960 . S
H5002 C5016 0.960 . S
H5003 C5016 0.960 . S
C5004 H4996 0.929 . S
C5004 C5005 1.377 . S
C5004 C5006 1.384 . S
C5005 C5004 1.377 . S
C5005 C5011 1.390 . S
C5006 H4997 0.930 . S
C5006 C5004 1.384 . S
C5006 C5007 1.372 . S
C5007 C5006 1.372 . S
C5007 C5008 1.400 . S
C5007 C5012 1.490 . S
C5008 H4998 0.930 . S
C5008 C5007 1.400 . S
C5008 C5011 1.386 . S
H5009 C5025 0.930 . S
H5010 C5026 0.931 . S
C5011 H4999 0.929 . S
C5011 C5005 1.390 . S
C5011 C5008 1.386 . S
C5012 C5007 1.490 . S
C5012 C5014 1.395 . S
C5012 C5015 1.403 . S
H5013 C5019 0.930 . S
C5014 H5000 0.930 . S
C5014 C5012 1.395 . S
C5014 C5017 1.403 . S
C5015 C5012 1.403 . S
C5015 C5016 1.524 . S
C5015 C5019 1.400 . S
C5016 H5001 0.960 . S
C5016 H5002 0.960 . S
C5016 H5003 0.960 . S
C5016 C5015 1.524 . S
C5017 C5014 1.403 . S
C5017 C5018 1.392 . S
C5017 C5021 1.495 . S
C5018 C5017 1.392 . S
C5018 C5019 1.385 . S
C5018 C5020 1.478 . S
C5019 H5013 0.930 . S
C5019 C5015 1.400 . S
C5019 C5018 1.385 . S
C5020 C5018 1.478 . S
C5020 C5022 1.381 . S
C5020 C5026 1.383 . S
C5021 C5017 1.495 . S
C5021 H5027 0.959 . S
C5021 H5028 0.961 . S
C5021 H5029 0.960 . S
C5022 C5020 1.381 . S
C5022 C5023 1.394 . S
C5022 H5030 0.930 . S
C5023 C5022 1.394 . S
C5023 C5024 1.383 . S
C5023 H5031 0.929 . S
C5024 C5023 1.383 . S
C5024 C5025 1.377 . S
C5025 H5009 0.930 . S
C5025 C5024 1.377 . S
C5025 C5026 1.379 . S
C5026 H5010 0.931 . S
C5026 C5020 1.383 . S
C5026 C5025 1.379 . S
H5027 C5021 0.959 . S
H5028 C5021 0.961 . S
H5029 C5021 0.960 . S
H5030 C5022 0.930 . S
H5031 C5023 0.929 . S
C1604 N1036 1.487 . S
C1585 C29 1.510 . S
C1640 C1063 1.603 . S
C1621 C61 1.577 . S
C1657 C93 1.518 . S
C1676 C1077 1.538 . S
C1712 N1095 1.413 . S
C1693 C119 1.457 . S
C1729 C157 1.576 . S
C1748 C1100 1.611 . S
C1765 C177 1.464 . S
C1784 C1040 1.477 . S
C1801 C221 1.420 . S
C1820 N1059 1.384 . S
C1856 N1072 1.459 . S
C1837 C253 1.504 . S
C1892 N1118 1.376 . S
C1873 C17 1.401 . S
C1909 C55 1.460 . S
C1928 N1141 1.440 . S
C1945 C87 1.517 . S
C1964 N1164 1.503 . S
C2000 N1197 1.420 . S
C1981 C113 1.441 . S
C2017 C145 1.482 . S
C2036 C1224 1.507 . S
C2072 C1247 1.516 . S
C2053 C183 1.501 . S
C2089 C215 1.463 . S
C2108 C1270 1.482 . S
C2144 C1284 1.385 . S
C2125 C247 1.381 . S
C2161 C23 1.375 . S
C2180 C1201 1.406 . S
C2197 C151 1.407 . S
C2216 N1243 1.409 . S
C2252 N1266 1.463 . S
C2233 C189 1.459 . S
C2269 C209 1.447 . S
C2288 N1279 1.445 . S
C2324 N1220 1.455 . S
C2305 C241 1.471 . S
C2360 C1146 1.648 . S
C2341 C81 1.631 . S
C2377 C125 1.507 . S
C2396 C1169 1.521 . S
C2432 C1123 1.587 . S
C2413 C49 1.566 . S
C2468 C1316 1.512 . S
C2449 C285 1.474 . S
C2485 C317 1.601 . S
C2504 C1330 1.616 . S
C2521 C349 1.506 . S
C2540 N1358 1.471 . S
C2576 N1371 1.442 . S
C2557 C375 1.443 . S
C2593 C413 1.583 . S
C2612 C1376 1.622 . S
C2629 C433 1.459 . S
C2648 N1312 1.419 . S
C2665 C477 1.504 . S
C2684 N1325 1.501 . S
C2701 C509 1.465 . S
C2720 C1362 1.462 . S
C2756 N1210 1.412 . S
C2737 C273 1.404 . S
C2773 C311 1.447 . S
C2792 N1394 1.430 . S
C2828 N1256 1.436 . S
C2809 C343 1.442 . S
C2845 C369 1.480 . S
C2864 C1431 1.489 . S
C2881 C401 1.502 . S
C2900 C1132 1.522 . S
C2936 C1445 1.559 . S
C2917 C439 1.530 . S
C2953 C471 1.512 . S
C2972 C1178 1.518 . S
C3008 N1463 1.379 . S
C2989 C503 1.372 . S
C3025 C279 1.405 . S
C3044 N1427 1.406 . S
C3080 N1440 1.424 . S
C3061 C407 1.438 . S
C3097 C445 1.447 . S
C3116 N1174 1.468 . S
C3152 C1468 1.444 . S
C3133 C465 1.427 . S
C3169 C497 1.437 . S
C3188 N1128 1.411 . S
C3205 C337 1.531 . S
C3224 C1399 1.542 . S
C3241 C381 1.556 . S
C3260 C1261 1.565 . S
C3277 C305 1.572 . S
C3296 C1215 1.593 . S
C3313 C541 1.541 . S
C3332 C1353 1.579 . S
C3368 C1385 1.539 . S
C3349 C573 1.536 . S
C3385 C605 1.475 . S
C3404 N1302 1.469 . S
C3421 C631 1.421 . S
C3440 N1335 1.419 . S
C3457 C669 1.592 . S
C3476 C1339 1.631 . S
C3493 C689 1.526 . S
C3512 N1348 1.535 . S
C3548 N1381 1.388 . S
C3529 C733 1.405 . S
C3565 C765 1.519 . S
C3584 C1307 1.531 . S
C3620 N1496 1.422 . S
C3601 C529 1.424 . S
C3637 C567 1.396 . S
C3656 N1233 1.362 . S
C3692 N1519 1.372 . S
C3673 C599 1.386 . S
C3709 C625 1.439 . S
C3728 N1289 1.410 . S
C3745 C657 1.480 . S
C3764 C1537 1.511 . S
C3781 C695 1.594 . S
C3800 C1155 1.620 . S
C3836 N1555 1.398 . S
C3817 C727 1.395 . S
C3853 C759 1.429 . S
C3872 C1192 1.442 . S
C3908 C1293 1.437 . S
C3889 C535 1.411 . S
C3944 N1151 1.469 . S
C3925 C663 1.458 . S
C3961 C701 1.548 . S
C3980 C1560 1.582 . S
C3997 C721 1.396 . S
C4016 N1187 1.334 . S
C4052 N1532 1.502 . S
C4033 C753 1.509 . S
C4088 C1238 1.543 . S
C4069 C593 1.524 . S
C4124 C1523 1.557 . S
C4105 C637 1.550 . S
C4160 C1500 1.539 . S
C4141 C561 1.534 . S
C4177 C797 1.427 . S
C4196 N1082 1.412 . S
C4213 C829 1.551 . S
C4232 C1109 1.565 . S
C4268 C1031 1.565 . S
C4249 C861 1.536 . S
C4304 N1049 1.395 . S
C4285 C887 1.389 . S
C4340 C1054 1.616 . S
C4321 C925 1.584 . S
C4376 C1086 1.484 . S
C4357 C945 1.460 . S
C4412 N1105 1.501 . S
C4393 C989 1.519 . S
C4429 C1021 1.528 . S
C4448 N1026 1.488 . S
C4465 C785 1.341 . S
C4484 N1542 1.312 . S
C4520 N1450 1.428 . S
C4501 C823 1.418 . S
C4556 C1569 1.560 . S
C4537 C855 1.535 . S
C4592 C1477 1.364 . S
C4573 C881 1.376 . S
C4609 C913 1.513 . S
C4628 C1491 1.533 . S
C4664 C1408 1.539 . S
C4645 C951 1.523 . S
C4700 C1514 1.623 . S
C4681 C983 1.610 . S
C4717 C1015 1.429 . S
C4736 N1417 1.406 . S
C4772 N1473 1.344 . S
C4753 C791 1.326 . S
C4808 N1404 1.437 . S
C4789 C919 1.421 . S
C4844 N1509 1.422 . S
C4825 C957 1.406 . S
C4861 C977 1.491 . S
C4880 C1422 1.507 . S
C4897 C1009 1.456 . S
C4916 N1486 1.416 . S
C4933 C849 1.621 . S
C4952 C1454 1.642 . S
C4969 C893 1.432 . S
C4988 N1565 1.436 . S
C5024 C1546 1.524 . S
C5005 C817 1.514 . S
