# Generated by pormake.
# Topology sit, (3,6)-cn, num edge types: 1
# Building blocks:
#     Node 0, Type 0, BuildingBlock: BETDAH_clean_linker_0, # of connection points: 3
#     Node 1, Type 0, BuildingBlock: BETDAH_clean_linker_0, # of connection points: 3
#     Node 2, Type 0, BuildingBlock: BETDAH_clean_linker_0, # of connection points: 3
#     Node 3, Type 0, BuildingBlock: BETDAH_clean_linker_0, # of connection points: 3
#     Node 4, Type 1, BuildingBlock: MIDCAF_clean_sbu_0, # of connection points: 6
#     Node 5, Type 1, BuildingBlock: MIDCAF_clean_sbu_0, # of connection points: 6
#     Edge 6, Type (0, 1), BuildingBlock: ZUJKAS_clean_linker_0, # of connection points: 2
#     Edge 7, Type (0, 1), BuildingBlock: ZUJKAS_clean_linker_0, # of connection points: 2
#     Edge 8, Type (0, 1), BuildingBlock: ZUJKAS_clean_linker_0, # of connection points: 2
#     Edge 9, Type (0, 1), BuildingBlock: ZUJKAS_clean_linker_0, # of connection points: 2
#     Edge 10, Type (0, 1), BuildingBlock: ZUJKAS_clean_linker_0, # of connection points: 2
#     Edge 11, Type (0, 1), BuildingBlock: ZUJKAS_clean_linker_0, # of connection points: 2
#     Edge 12, Type (0, 1), BuildingBlock: ZUJKAS_clean_linker_0, # of connection points: 2
#     Edge 13, Type (0, 1), BuildingBlock: ZUJKAS_clean_linker_0, # of connection points: 2
#     Edge 14, Type (0, 1), BuildingBlock: ZUJKAS_clean_linker_0, # of connection points: 2
#     Edge 15, Type (0, 1), BuildingBlock: ZUJKAS_clean_linker_0, # of connection points: 2
#     Edge 16, Type (0, 1), BuildingBlock: ZUJKAS_clean_linker_0, # of connection points: 2
#     Edge 17, Type (0, 1), BuildingBlock: ZUJKAS_clean_linker_0, # of connection points: 2
# Relax obj value: 0.072
# Max RMSD: 0.181
# Mean RMSD: 0.111
data_MOF--net-sit--node1-MIDCAF_clean_sbu_0--node2-BETDAH_clean_linker_0--edge1-ZUJKAS_clean_linker_0
_symmetry_space_group_name_H-M    P1
_symmetry_Int_Tables_number       1
_symmetry_cell_setting            triclinic
loop_
_symmetry_equiv_pos_as_xyz
'x, y, z'
_cell_length_a     27.577114
_cell_length_b     42.633951
_cell_length_c     48.012678
_cell_angle_alpha  90.361783
_cell_angle_beta   87.132067
_cell_angle_gamma 83.946721
loop_
_atom_site_label
_atom_site_type_symbol
_atom_site_fract_x
_atom_site_fract_y
_atom_site_fract_z
_atom_type_partial_charge
H0 H 0.09289 0.3693 0.01579 0.0
H1 H 0.1877 0.28265 0.01389 0.0
H2 H 0.03469 0.28161 0.03503 0.0
C3 C 0.09855 0.34418 0.01967 0.0
C4 C 0.05823 0.32768 0.02673 0.0
C5 C 0.14535 0.32828 0.01491 0.0
C6 C 0.15186 0.29542 0.01781 0.0
C7 C 0.11257 0.27861 0.0257 0.0
C8 C 0.06555 0.29473 0.03018 0.0
N9 N 0.1211 0.24526 0.02643 0.0
C10 C 0.09865 0.22649 0.04561 0.0
H11 H 0.02855 0.67095 0.01472 0.0
H12 H 0.11691 0.74786 0.00637 0.0
H13 H 0.96688 0.7655 0.03616 0.0
C14 C 0.03289 0.69575 0.01744 0.0
C15 C -0.00753 0.71672 0.02659 0.0
C16 C 0.07786 0.70657 0.0099 0.0
C17 C 0.08279 0.73886 0.01273 0.0
C18 C 0.04349 0.75999 0.02303 0.0
C19 C -0.00193 0.74895 0.02977 0.0
N20 N 0.04951 0.79257 0.0239 0.0
C21 C 0.03304 0.81231 0.04629 0.0
H22 H 0.57488 0.88445 0.51801 0.0
H23 H 0.62868 0.79339 0.54833 0.0
H24 H 0.47769 0.81271 0.52918 0.0
C25 C 0.56783 0.86129 0.52538 0.0
C26 C 0.52125 0.85161 0.52319 0.0
C27 C 0.6067 0.84061 0.5344 0.0
C28 C 0.5985 0.80973 0.54206 0.0
C29 C 0.55154 0.79981 0.54042 0.0
C30 C 0.51346 0.82073 0.53081 0.0
N31 N 0.54151 0.76857 0.54666 0.0
C32 C 0.56965 0.74756 0.56286 0.0
H33 H 0.5157 0.15724 0.52889 0.0
H34 H 0.5655 0.24216 0.56072 0.0
H35 H 0.41233 0.23717 0.55071 0.0
C36 C 0.50758 0.18077 0.53777 0.0
C37 C 0.45923 0.19479 0.53929 0.0
C38 C 0.54612 0.19753 0.54549 0.0
C39 C 0.53588 0.2289 0.55522 0.0
C40 C 0.48725 0.24309 0.55725 0.0
C41 C 0.44951 0.22593 0.54927 0.0
N42 N 0.47439 0.27483 0.56616 0.0
C43 C 0.50528 0.29457 0.57765 0.0
Zn44 Zn 0.0256 0.0869 0.34957 0.0
Zn45 Zn 0.06349 0.96255 0.3474 0.0
Zn46 Zn 0.03964 0.02385 0.34967 0.0
C47 C 0.04894 0.98033 0.29304 0.0
C48 C 0.97695 0.97487 0.3815 0.0
O49 O 0.09947 0.04353 0.37046 0.0
O50 O 0.08685 0.09552 0.36728 0.0
C51 C 0.02595 0.06797 0.29434 0.0
O52 O 0.03903 1.00742 0.30537 0.0
O53 O 0.06226 0.95615 0.30685 0.0
O54 O 0.00744 0.95284 0.37181 0.0
O55 O 0.98151 1.00373 0.375 0.0
O56 O 0.02017 0.09266 0.30927 0.0
O57 O 0.03384 0.04063 0.30568 0.0
O58 O 0.97253 0.03701 0.37612 0.0
O59 O 0.96425 0.08915 0.37316 0.0
C60 C 0.94926 0.06411 0.38254 0.0
O61 O 0.11108 1.01089 0.36846 0.0
O62 O 0.12658 0.95897 0.36492 0.0
C63 C 0.11201 0.0712 0.37551 0.0
C64 C 0.13868 0.98521 0.37268 0.0
Zn65 Zn 0.58709 0.58067 0.85173 0.0
Zn66 Zn 0.62566 0.45806 0.84809 0.0
Zn67 Zn 0.60199 0.51966 0.85091 0.0
C68 C 0.62746 0.47716 0.79363 0.0
C69 C 0.53074 0.47001 0.87374 0.0
O70 O 0.65647 0.53962 0.87655 0.0
O71 O 0.6475 0.59093 0.86856 0.0
C72 C 0.59404 0.56416 0.79616 0.0
O73 O 0.61348 0.50377 0.80609 0.0
O74 O 0.63765 0.45268 0.80768 0.0
O75 O 0.56183 0.44772 0.86512 0.0
O76 O 0.53922 0.49889 0.87035 0.0
O77 O 0.58043 0.58777 0.81164 0.0
O78 O 0.60578 0.53694 0.80699 0.0
O79 O 0.52848 0.53193 0.87097 0.0
O80 O 0.52696 0.58364 0.87627 0.0
C81 C 0.50718 0.55856 0.88026 0.0
O82 O 0.66536 0.50651 0.87706 0.0
O83 O 0.6827 0.45487 0.87144 0.0
C84 C 0.66957 0.56748 0.88009 0.0
C85 C 0.69139 0.48051 0.88238 0.0
H86 H 0.14262 0.16817 0.05113 0.0
H87 H 0.12521 0.13017 0.08749 0.0
H88 H 0.00673 0.19558 0.12161 0.0
H89 H 0.02418 0.23363 0.08503 0.0
H90 H 0.12994 0.14321 0.14427 0.0
H91 H 0.947 0.11058 0.12053 0.0
H92 H -0.01397 0.12832 0.09515 0.0
H93 H 0.95106 0.15236 0.12148 0.0
C94 C 0.11231 0.17409 0.06614 0.0
C95 C 0.08445 0.2035 0.06544 0.0
C96 C 0.10242 0.15244 0.08684 0.0
C97 C 0.06429 0.15985 0.10702 0.0
C98 C 0.03564 0.18911 0.10588 0.0
H99 H 0.96694 0.1102 0.2668 0.0
H100 H 0.97613 0.12541 0.21814 0.0
C101 C 0.04569 0.21085 0.08516 0.0
C102 C 0.05781 0.13844 0.13083 0.0
H103 H 0.97413 0.09801 0.16614 0.0
C104 C 0.0962 0.13284 0.14885 0.0
C105 C 0.01382 0.12492 0.13663 0.0
C106 C 0.97223 0.12905 0.1173 0.0
C107 C 0.09083 0.11566 0.17345 0.0
C108 C 0.04613 0.10305 0.17984 0.0
C109 C 0.00845 0.1075 0.16114 0.0
C110 C 0.03556 0.08936 0.20756 0.0
C111 C 0.13198 0.11291 0.19319 0.0
C112 C 0.06451 0.06306 0.21755 0.0
C113 C 0.05959 0.05449 0.24563 0.0
C114 C 0.02512 0.07179 0.26384 0.0
C115 C -0.00612 0.0965 0.2532 0.0
C116 C -0.00104 0.10514 0.22535 0.0
H117 H 0.1602 0.12884 0.18749 0.0
H118 H 0.1179 0.11855 0.21491 0.0
H119 H 0.14989 0.08834 0.19263 0.0
H120 H 0.09244 0.05019 0.20403 0.0
H121 H 0.08464 0.03569 0.25341 0.0
H122 H 0.08686 0.81405 0.0909 0.0
H123 H 0.07836 0.85431 0.12805 0.0
H124 H 0.95218 0.90106 0.09015 0.0
H125 H 0.96082 0.86057 0.05276 0.0
H126 H 0.07631 0.9242 0.11681 0.0
H127 H 0.91202 0.8888 0.17615 0.0
H128 H 0.95059 0.86092 0.15417 0.0
H129 H 0.91193 0.89173 0.1387 0.0
C130 C 0.05693 0.83269 0.0908 0.0
C131 C 0.02417 0.83428 0.06938 0.0
C132 C 0.05225 0.8557 0.11185 0.0
C133 C 0.01462 0.88058 0.11183 0.0
C134 C 0.98122 0.8819 0.09061 0.0
H135 H 0.9762 1.00587 0.26041 0.0
H136 H 0.96332 0.99041 0.21196 0.0
C137 C -0.01394 0.85884 0.0694 0.0
C138 C 0.01187 0.90532 0.13381 0.0
H139 H 0.9549 0.92684 0.1968 0.0
C140 C 0.04919 0.92528 0.13405 0.0
C141 C 0.97607 0.90696 0.15602 0.0
C142 C 0.93528 0.886 0.15653 0.0
C143 C 0.05334 0.94551 0.15678 0.0
C144 C 0.01994 0.94522 0.18007 0.0
C145 C 0.98049 0.92701 0.17891 0.0
C146 C 0.03019 0.9589 0.20736 0.0
C147 C 0.09459 0.96612 0.15616 0.0
C148 C 0.0722 0.94667 0.22057 0.0
C149 C 0.0793 0.95522 0.24798 0.0
C150 C 0.0447 0.97634 0.26277 0.0
C151 C 0.00365 0.98983 0.24925 0.0
C152 C -0.00378 0.98094 0.22172 0.0
H153 H 0.1054 0.97222 0.13442 0.0
H154 H 0.08443 0.98825 0.16838 0.0
H155 H 0.12687 0.95312 0.16532 0.0
H156 H 0.09837 0.92915 0.21016 0.0
H157 H 0.1111 0.94437 0.25801 0.0
H158 H 0.60469 0.68781 0.54863 0.0
H159 H 0.62612 0.64461 0.58101 0.0
H160 H 0.59966 0.71011 0.65036 0.0
H161 H 0.57912 0.7532 0.61798 0.0
H162 H 0.68092 0.66497 0.65626 0.0
H163 H 0.51579 0.60958 0.62765 0.0
H164 H 0.55987 0.61561 0.59988 0.0
H165 H 0.52597 0.64902 0.61725 0.0
C166 C 0.60474 0.69294 0.57077 0.0
C167 C 0.5906 0.72358 0.58103 0.0
C168 C 0.61655 0.6683 0.58921 0.0
C169 C 0.61374 0.67406 0.61812 0.0
C170 C 0.60209 0.70512 0.62814 0.0
H171 H 0.52972 0.60061 0.76687 0.0
H172 H 0.54095 0.61873 0.7192 0.0
C173 C 0.59044 0.72971 0.60971 0.0
C174 C 0.61871 0.64782 0.63832 0.0
H175 H 0.55728 0.58871 0.66576 0.0
C176 C 0.65463 0.64778 0.65802 0.0
C177 C 0.58419 0.62549 0.64055 0.0
C178 C 0.54401 0.62485 0.62038 0.0
C179 C 0.65518 0.62731 0.68086 0.0
C180 C 0.61909 0.60613 0.68387 0.0
C181 C 0.58513 0.60478 0.66321 0.0
C182 C 0.60989 0.59027 0.71074 0.0
C183 C 0.692 0.63014 0.70271 0.0
C184 C 0.644 0.56718 0.72146 0.0
C185 C 0.63744 0.5566 0.7489 0.0
C186 C 0.59681 0.56914 0.76578 0.0
C187 C 0.56141 0.59066 0.7543 0.0
C188 C 0.56776 0.60097 0.72704 0.0
H189 H 0.7147 0.64977 0.69845 0.0
H190 H 0.67316 0.63406 0.72363 0.0
H191 H 0.7166 0.60785 0.70337 0.0
H192 H 0.67652 0.55837 0.70906 0.0
H193 H 0.66538 0.54014 0.7574 0.0
H194 H 0.57432 0.28709 0.61592 0.0
H195 H 0.60247 0.32932 0.6443 0.0
H196 H 0.51356 0.3989 0.59913 0.0
H197 H 0.48565 0.3568 0.57073 0.0
H198 H 0.64111 0.39697 0.62373 0.0
H199 H 0.46736 0.39779 0.6886 0.0
H200 H 0.49357 0.36277 0.66974 0.0
H201 H 0.46628 0.39581 0.65112 0.0
C202 C 0.56194 0.31148 0.61166 0.0
C203 C 0.52825 0.31898 0.59121 0.0
C204 C 0.57793 0.3355 0.6278 0.0
C205 C 0.56006 0.36714 0.62371 0.0
C206 C 0.52792 0.37464 0.60244 0.0
H207 H 0.56221 0.50567 0.75805 0.0
H208 H 0.54874 0.48729 0.7108 0.0
C209 C 0.5121 0.35066 0.58628 0.0
C210 C 0.57079 0.39181 0.64362 0.0
H211 H 0.52536 0.42949 0.70367 0.0
C212 C 0.61571 0.40443 0.64107 0.0
C213 C 0.53716 0.40181 0.66586 0.0
C214 C 0.48831 0.38894 0.66926 0.0
C215 C 0.62858 0.42613 0.66089 0.0
C216 C 0.59613 0.4347 0.68416 0.0
C217 C 0.55024 0.42312 0.68584 0.0
C218 C 0.61109 0.45175 0.70892 0.0
C219 C 0.67697 0.4394 0.6568 0.0
C220 C 0.6517 0.43891 0.7231 0.0
C221 C 0.65966 0.44965 0.74981 0.0
C222 C 0.62701 0.47327 0.76306 0.0
C223 C 0.58847 0.48787 0.74814 0.0
C224 C 0.58054 0.47715 0.72124 0.0
H225 H 0.6874 0.44124 0.63426 0.0
H226 H 0.67612 0.46307 0.66671 0.0
H227 H 0.70571 0.42325 0.66621 0.0
H228 H 0.67515 0.41885 0.71452 0.0
H229 H 0.68949 0.43783 0.76093 0.0
H230 H 0.16932 0.38541 0.03328 0.0
H231 H 0.2336 0.4157 0.01383 0.0
H232 H 0.27728 0.34129 0.95363 0.0
H233 H 0.21326 0.31102 0.97278 0.0
H234 H 0.35528 0.36392 0.98036 0.0
H235 H 0.23051 0.46182 0.93867 0.0
H236 H 0.22185 0.45341 0.97513 0.0
H237 H 0.20954 0.42485 0.94949 0.0
C238 C 0.19263 0.37556 0.01586 0.0
C239 C 0.18625 0.34582 0.00456 0.0
C240 C 0.22917 0.39292 0.00475 0.0
C241 C 0.25964 0.38091 0.98205 0.0
C242 C 0.25403 0.35098 0.97114 0.0
H243 H 0.47964 0.42077 0.86344 0.0
H244 H 0.41226 0.40294 0.89211 0.0
C245 C 0.21766 0.33361 0.98223 0.0
C246 C 0.29776 0.39915 0.96948 0.0
H247 H 0.31499 0.46391 0.93004 0.0
C248 C 0.34651 0.38593 0.9696 0.0
C249 C 0.28615 0.42799 0.95562 0.0
C250 C 0.23419 0.44288 0.95445 0.0
C251 C 0.38386 0.40023 0.95546 0.0
C252 C 0.372 0.42824 0.94057 0.0
C253 C 0.32367 0.44234 0.94146 0.0
C254 C 0.40891 0.44135 0.92202 0.0
C255 C 0.43568 0.3849 0.95597 0.0
C256 C 0.42815 0.46936 0.92902 0.0
C257 C 0.46687 0.47953 0.91269 0.0
C258 C 0.48606 0.46207 0.88899 0.0
C259 C 0.46535 0.43471 0.88155 0.0
C260 C 0.42698 0.42451 0.89787 0.0
H261 H 0.44041 0.36808 0.97346 0.0
H262 H 0.4453 0.37164 0.93615 0.0
H263 H 0.46161 0.40295 0.95786 0.0
H264 H 0.41465 0.48257 0.94767 0.0
H265 H 0.48328 0.50009 0.91935 0.0
H266 H 0.91229 0.74017 0.99981 0.0
H267 H 0.84613 0.71005 0.98698 0.0
H268 H 0.89841 0.63496 0.04115 0.0
H269 H 0.96481 0.66511 0.05405 0.0
H270 H 0.90163 0.61731 0.98581 0.0
H271 H 0.71908 0.67785 0.01638 0.0
H272 H 0.75918 0.70402 0.0007 0.0
H273 H 0.77361 0.68579 0.03339 0.0
C274 C 0.90812 0.71803 0.01015 0.0
C275 C 0.94386 0.70483 0.02772 0.0
C276 C 0.8703 0.70074 0.00274 0.0
C277 C 0.86746 0.67018 0.01302 0.0
C278 C 0.89997 0.65848 0.03298 0.0
H279 H 0.66833 0.55152 0.93451 0.0
H280 H 0.71826 0.57096 0.97057 0.0
C281 C 0.93774 0.67576 0.0404 0.0
C282 C 0.83771 0.64855 0.99883 0.0
H283 H 0.72349 0.64236 0.97652 0.0
C284 C 0.86246 0.62238 0.98434 0.0
C285 C 0.78669 0.65513 0.99688 0.0
C286 C 0.75799 0.68207 0.0129 0.0
C287 C 0.83802 0.6038 0.96665 0.0
C288 C 0.78771 0.61164 0.96334 0.0
C289 C 0.76227 0.63658 0.97905 0.0
C290 C 0.76198 0.59631 0.94164 0.0
C291 C 0.8664 0.57663 0.95077 0.0
C292 C 0.77096 0.60362 0.91353 0.0
C293 C 0.74273 0.59246 0.89304 0.0
C294 C 0.70577 0.57339 0.90035 0.0
C295 C 0.69806 0.56507 0.92834 0.0
C296 C 0.72593 0.57656 0.94892 0.0
H297 H 0.90131 0.56883 0.96049 0.0
H298 H 0.84446 0.55632 0.94961 0.0
H299 H 0.87496 0.58413 0.92914 0.0
H300 H 0.79834 0.61913 0.90762 0.0
H301 H 0.74848 0.5997 0.87164 0.0
H302 H 0.02485 0.3845 0.05117 0.0
H303 H 0.9529 0.41917 0.03867 0.0
H304 H 0.90924 0.34518 0.98681 0.0
H305 H 0.9809 0.31053 0.99923 0.0
H306 H 0.94411 0.43711 0.98496 0.0
H307 H 0.77867 0.3834 0.02092 0.0
H308 H 0.83751 0.37261 0.0351 0.0
H309 H 0.82215 0.35516 0.00288 0.0
C310 C -0.00105 0.37532 0.03785 0.0
C311 C 0.00861 0.34487 0.02605 0.0
C312 C 0.95793 0.39516 0.03071 0.0
C313 C 0.92561 0.38479 0.01185 0.0
C314 C 0.93309 0.35353 0.00183 0.0
H315 H 0.7868 0.45945 0.87393 0.0
H316 H 0.84413 0.44396 0.90989 0.0
C317 C 0.97411 0.33367 0.00898 0.0
C318 C 0.88904 0.40769 0.99918 0.0
H319 H 0.77066 0.41734 0.98062 0.0
C320 C 0.90591 0.43321 0.98457 0.0
C321 C 0.83911 0.40294 0.9989 0.0
C322 C 0.8182 0.37722 0.01556 0.0
C323 C 0.87498 0.45264 0.96807 0.0
C324 C 0.82612 0.44616 0.96587 0.0
C325 C 0.8083 0.42215 0.9821 0.0
C326 C 0.79474 0.46114 0.94443 0.0
C327 C 0.8954 0.47926 0.9524 0.0
C328 C 0.74821 0.47641 0.95185 0.0
C329 C 0.71556 0.48541 0.93124 0.0
C330 C 0.72903 0.4792 0.90301 0.0
C331 C 0.7762 0.46517 0.89556 0.0
C332 C 0.80889 0.45636 0.91609 0.0
H333 H 0.92534 0.48839 0.96366 0.0
H334 H 0.91078 0.47041 0.93168 0.0
H335 H 0.86672 0.49899 0.94918 0.0
H336 H 0.73636 0.47993 0.97361 0.0
H337 H 0.67865 0.495 0.93745 0.0
H338 H 0.17529 0.70293 0.01993 0.0
H339 H 0.24157 0.6665 0.99844 0.0
H340 H 0.13776 0.62291 0.95084 0.0
H341 H 0.07176 0.65986 0.97131 0.0
H342 H 0.2542 0.59886 0.99789 0.0
H343 H 0.23757 0.64842 0.89131 0.0
H344 H 0.20918 0.66882 0.92192 0.0
H345 H 0.18288 0.63588 0.90758 0.0
C346 C 0.16668 0.68576 0.00473 0.0
C347 C 0.11828 0.68432 0.99735 0.0
C348 C 0.20445 0.66479 0.99267 0.0
C349 C 0.19451 0.64219 0.97293 0.0
C350 C 0.14623 0.64039 0.96581 0.0
H351 H 0.42444 0.53161 0.86859 0.0
H352 H 0.34322 0.54314 0.89256 0.0
C353 C 0.10852 0.66136 0.97776 0.0
C354 C 0.235 0.62118 0.95925 0.0
H355 H 0.29929 0.60709 0.89706 0.0
C356 C 0.26378 0.60037 0.97578 0.0
C357 C 0.24695 0.62291 0.93033 0.0
C358 C 0.21785 0.64533 0.91169 0.0
C359 C 0.30546 0.58217 0.96432 0.0
C360 C 0.31892 0.58528 0.93577 0.0
C361 C 0.2886 0.60467 0.91893 0.0
C362 C 0.36806 0.57336 0.9241 0.0
C363 C 0.33562 0.56043 0.98297 0.0
C364 C 0.40859 0.58626 0.93412 0.0
C365 C 0.45426 0.58009 0.92039 0.0
C366 C 0.46038 0.56068 0.89651 0.0
C367 C 0.42044 0.54646 0.88713 0.0
C368 C 0.37428 0.553 0.90076 0.0
H369 H 0.31314 0.55288 0.00106 0.0
H370 H 0.35269 0.53916 0.97131 0.0
H371 H 0.36515 0.57309 0.99116 0.0
H372 H 0.4044 0.60255 0.95171 0.0
H373 H 0.48461 0.59135 0.92792 0.0
H374 H 0.68571 0.81099 0.5053 0.0
H375 H 0.7556 0.83646 0.48644 0.0
H376 H 0.70678 0.92011 0.53533 0.0
H377 H 0.63757 0.89448 0.55465 0.0
H378 H 0.73317 0.89023 0.45503 0.0
H379 H 0.85538 0.91524 0.53908 0.0
H380 H 0.81325 0.88561 0.54228 0.0
H381 H 0.79157 0.92661 0.54705 0.0
C382 C 0.69135 0.83416 0.51311 0.0
C383 C 0.65627 0.85085 0.53132 0.0
C384 C 0.73095 0.84883 0.50211 0.0
C385 C 0.73617 0.88024 0.50937 0.0
C386 C 0.70383 0.89577 0.52967 0.0
H387 H 0.8821 1.00198 0.3908 0.0
H388 H 0.82033 0.98438 0.42441 0.0
C389 C 0.6643 0.88111 0.54069 0.0
C390 C 0.77 0.89819 0.49254 0.0
H391 H 0.86802 0.94046 0.49573 0.0
C392 C 0.76273 0.90119 0.46391 0.0
C393 C 0.80801 0.91276 0.5043 0.0
C394 C 0.81793 0.90976 0.53482 0.0
C395 C 0.79317 0.91776 0.44651 0.0
C396 C 0.83141 0.93221 0.45819 0.0
C397 C 0.83817 0.92973 0.48694 0.0
C398 C 0.86874 0.94601 0.44029 0.0
C399 C 0.78537 0.9186 0.41561 0.0
C400 C 0.91641 0.93096 0.43882 0.0
C401 C 0.95133 0.94106 0.42003 0.0
C402 C 0.93948 0.96658 0.40235 0.0
C403 C 0.89217 0.98246 0.40439 0.0
C404 C 0.85693 0.97227 0.42337 0.0
H405 H 0.75938 0.90191 0.40943 0.0
H406 H 0.77037 0.94273 0.40986 0.0
H407 H 0.82051 0.91271 0.40345 0.0
H408 H 0.92627 0.91066 0.45163 0.0
H409 H -0.01231 0.92854 0.4191 0.0
H410 H 0.38469 0.2182 0.50738 0.0
H411 H 0.32474 0.18911 0.48565 0.0
H412 H 0.38558 0.10324 0.52337 0.0
H413 H 0.44547 0.13233 0.54568 0.0
H414 H 0.37573 0.09781 0.46584 0.0
H415 H 0.20369 0.15176 0.5186 0.0
H416 H 0.24124 0.18068 0.50515 0.0
H417 H 0.2628 0.15482 0.5324 0.0
C418 C 0.3846 0.1933 0.51171 0.0
C419 C 0.41982 0.17763 0.52836 0.0
C420 C 0.35032 0.17669 0.49921 0.0
C421 C 0.35037 0.14411 0.50318 0.0
C422 C 0.38485 0.12841 0.52015 0.0
H423 H 0.13145 0.0415 0.42413 0.0
H424 H 0.19226 0.05335 0.45723 0.0
C425 C 0.41911 0.14505 0.53277 0.0
C426 C 0.31663 0.12634 0.48785 0.0
H427 H 0.19633 0.12588 0.47447 0.0
C428 C 0.33645 0.10355 0.46802 0.0
C429 C 0.2654 0.13348 0.49107 0.0
C430 C 0.24196 0.15629 0.51317 0.0
C431 C 0.30641 0.0893 0.45005 0.0
C432 C 0.25561 0.09816 0.45201 0.0
C433 C 0.2355 0.11943 0.47292 0.0
C434 C 0.22312 0.088 0.43099 0.0
C435 C 0.32886 0.06526 0.42874 0.0
C436 C 0.22043 0.10371 0.40544 0.0
C437 C 0.18526 0.09745 0.38682 0.0
C438 C 0.15295 0.07495 0.39329 0.0
C439 C 0.15673 0.05849 0.41848 0.0
C440 C 0.19134 0.06519 0.43735 0.0
H441 H 0.3687 0.05946 0.43098 0.0
H442 H 0.31073 0.04334 0.43099 0.0
H443 H 0.32284 0.0743 0.40742 0.0
H444 H 0.24433 0.12171 0.40043 0.0
H445 H 0.1826 0.11062 0.36763 0.0
H446 H 0.45587 0.8366 0.48549 0.0
H447 H 0.39846 0.87268 0.46102 0.0
H448 H 0.44395 0.95151 0.50603 0.0
H449 H 0.49977 0.91533 0.53173 0.0
H450 H 0.34783 0.95774 0.5023 0.0
H451 H 0.43327 0.92902 0.39775 0.0
H452 H 0.41832 0.89375 0.41476 0.0
H453 H 0.46252 0.91665 0.42926 0.0
C454 C 0.45307 0.86152 0.49061 0.0
C455 C 0.48269 0.87307 0.51045 0.0
C456 C 0.42091 0.88221 0.47619 0.0
C457 C 0.41819 0.9149 0.481 0.0
C458 C 0.44615 0.92643 0.50161 0.0
H459 H 0.22156 1.01482 0.36341 0.0
H460 H 0.29519 1.00822 0.39087 0.0
C461 C 0.47807 0.90572 0.51622 0.0
C462 C 0.38484 0.9367 0.46505 0.0
H463 H 0.34765 0.95037 0.39913 0.0
C464 C 0.34843 0.95665 0.47971 0.0
C465 C 0.38664 0.93635 0.43552 0.0
C466 C 0.42771 0.91806 0.41844 0.0
C467 C 0.31096 0.97373 0.4657 0.0
C468 C 0.30934 0.97005 0.43649 0.0
C469 C 0.34842 0.95273 0.42161 0.0
C470 C 0.26387 0.97854 0.42193 0.0
C471 C 0.27233 0.99456 0.48237 0.0
C472 C 0.22235 0.9639 0.43017 0.0
C473 C 0.18128 0.96711 0.41437 0.0
C474 C 0.18074 0.98523 0.39014 0.0
C475 C 0.22141 1.00089 0.3822 0.0
C476 C 0.26315 0.99724 0.39788 0.0
H477 H 0.28705 1.00358 0.50164 0.0
H478 H 0.25774 1.0149 0.46989 0.0
H479 H 0.24179 0.98072 0.4887 0.0
H480 H 0.22253 0.94862 0.44812 0.0
H481 H 0.15022 0.95476 0.42071 0.0
H482 H 0.62156 0.22171 0.51695 0.0
H483 H 0.69636 0.19166 0.49737 0.0
H484 H 0.65868 0.10903 0.54131 0.0
H485 H 0.58394 0.13893 0.56095 0.0
H486 H 0.77892 0.15002 0.51952 0.0
H487 H 0.65362 0.08829 0.45596 0.0
H488 H 0.63378 0.12452 0.47477 0.0
H489 H 0.64268 0.08804 0.49319 0.0
C490 C 0.63017 0.19749 0.52325 0.0
C491 C 0.59678 0.18253 0.5402 0.0
C492 C 0.67274 0.1803 0.51196 0.0
C493 C 0.68242 0.14801 0.51752 0.0
C494 C 0.65145 0.13382 0.53649 0.0
H495 H 0.93814 0.03626 0.4333 0.0
H496 H 0.87258 0.05091 0.46928 0.0
C497 C 0.60892 0.15094 0.54773 0.0
C498 C 0.72115 0.12853 0.50081 0.0
H499 H 0.7377 0.07568 0.4465 0.0
C500 C 0.77013 0.13336 0.50386 0.0
C501 C 0.70928 0.10703 0.48026 0.0
C502 C 0.65704 0.10167 0.47557 0.0
C503 C 0.80756 0.11779 0.48634 0.0
C504 C 0.7955 0.09691 0.46536 0.0
C505 C 0.74671 0.0914 0.46287 0.0
C506 C 0.83189 0.08445 0.44328 0.0
C507 C 0.85948 0.12493 0.48934 0.0
C508 C 0.82947 0.09755 0.41663 0.0
C509 C 0.86646 0.08924 0.39628 0.0
C510 C 0.90616 0.0673 0.40207 0.0
C511 C 0.90738 0.05284 0.42827 0.0
C512 C 0.87035 0.0614 0.44883 0.0
H513 H 0.86221 0.14359 0.50527 0.0
H514 H 0.88204 0.10321 0.49549 0.0
H515 H 0.87512 0.13262 0.46906 0.0
H516 H 0.80005 0.11535 0.41199 0.0
H517 H 0.86504 0.10089 0.3763 0.0
loop_
_geom_bond_atom_site_label_1
_geom_bond_atom_site_label_2
_geom_bond_distance
_geom_bond_site_symmetry_2
_ccdc_geom_bond_type
H0 C3 0.929 . S
H1 C6 0.929 . S
H2 C8 0.930 . S
C3 H0 0.929 . S
C3 C4 1.398 1_556 S
C3 C5 1.396 1_556 S
C4 C3 1.398 1_554 S
C4 C8 1.407 . S
C5 C3 1.396 1_554 S
C5 C6 1.394 . S
C6 H1 0.929 . S
C6 C5 1.394 . S
C6 C7 1.382 . S
C7 C6 1.382 . S
C7 C8 1.392 . S
C7 N9 1.420 . S
C8 H2 0.930 . S
C8 C4 1.407 . S
C8 C7 1.392 . S
N9 C7 1.420 . S
N9 C10 1.244 . S
C10 N9 1.244 . S
H11 C14 0.913 1_556 S
H12 C17 0.929 . S
H13 C19 0.930 . S
C14 H11 0.913 1_554 S
C14 C15 1.405 1_455 S
C14 C16 1.407 . S
C15 C14 1.405 1_655 S
C15 C19 1.407 . S
C16 C14 1.407 . S
C16 C17 1.394 . S
C17 H12 0.929 . S
C17 C16 1.394 . S
C17 C18 1.382 1_455 S
C18 C17 1.382 1_655 S
C18 C19 1.392 . S
C18 N20 1.420 . S
C19 H13 0.930 . S
C19 C15 1.407 . S
C19 C18 1.392 . S
N20 C18 1.420 . S
N20 C21 1.244 1_655 S
C21 N20 1.244 1_455 S
H22 C25 0.929 . S
H23 C28 0.929 . S
H24 C30 0.930 . S
C25 H22 0.929 . S
C25 C26 1.398 . S
C25 C27 1.396 . S
C26 C25 1.398 . S
C26 C30 1.407 . S
C27 C25 1.396 . S
C27 C28 1.394 . S
C28 H23 0.929 . S
C28 C27 1.394 . S
C28 C29 1.382 . S
C29 C28 1.382 . S
C29 C30 1.392 . S
C29 N31 1.420 . S
C30 H24 0.930 . S
C30 C26 1.407 . S
C30 C29 1.392 . S
N31 C29 1.420 . S
N31 C32 1.244 . S
C32 N31 1.244 . S
H33 C36 0.929 . S
H34 C39 0.929 . S
H35 C41 0.930 . S
C36 H33 0.929 . S
C36 C37 1.398 . S
C36 C38 1.396 . S
C37 C36 1.398 . S
C37 C41 1.407 . S
C38 C36 1.396 . S
C38 C39 1.394 . S
C39 H34 0.929 . S
C39 C38 1.394 . S
C39 C40 1.382 . S
C40 C39 1.382 . S
C40 C41 1.392 . S
C40 N42 1.420 . S
C41 H35 0.930 . S
C41 C37 1.407 . S
C41 C40 1.392 . S
N42 C40 1.420 . S
N42 C43 1.244 . S
C43 N42 1.244 . S
Zn44 O50 1.920 . S
Zn44 O56 1.898 . S
Zn44 O59 1.895 1_455 S
Zn45 O53 1.905 . S
Zn45 O54 1.898 . S
Zn45 O62 1.920 . S
Zn46 O49 2.080 . S
Zn46 O52 2.114 1_545 S
Zn46 O55 2.120 1_545 S
Zn46 O57 2.120 . S
Zn46 O58 2.114 . S
Zn46 O61 2.080 1_545 S
C47 O52 1.166 . S
C47 O53 1.182 . S
C48 O54 1.167 . S
C48 O55 1.299 . S
O49 Zn46 2.080 . S
O49 C63 1.305 . S
O50 Zn44 1.920 . S
O50 C63 1.234 . S
C51 O56 1.167 . S
C51 O57 1.299 . S
O52 Zn46 2.114 1_565 S
O52 C47 1.166 . S
O53 Zn45 1.905 . S
O53 C47 1.182 . S
O54 Zn45 1.898 . S
O54 C48 1.167 . S
O55 Zn46 2.120 1_565 S
O55 C48 1.299 . S
O56 Zn44 1.898 . S
O56 C51 1.167 . S
O57 Zn46 2.120 . S
O57 C51 1.299 . S
O58 Zn46 2.114 . S
O58 C60 1.166 1_455 S
O59 Zn44 1.895 1_655 S
O59 C60 1.186 . S
C60 O58 1.166 1_655 S
C60 O59 1.186 . S
O61 Zn46 2.080 1_565 S
O61 C64 1.305 . S
O62 Zn45 1.920 . S
O62 C64 1.234 . S
C63 O49 1.305 . S
C63 O50 1.234 . S
C64 O61 1.305 . S
C64 O62 1.234 . S
Zn65 O71 1.920 . S
Zn65 O77 1.898 . S
Zn65 O80 1.905 . S
Zn66 O74 1.905 . S
Zn66 O75 1.898 . S
Zn66 O83 1.920 . S
Zn67 O70 2.080 . S
Zn67 O73 2.114 . S
Zn67 O76 2.120 . S
Zn67 O78 2.120 . S
Zn67 O79 2.114 . S
Zn67 O82 2.080 . S
C68 O73 1.166 . S
C68 O74 1.182 . S
C69 O75 1.167 . S
C69 O76 1.299 . S
O70 Zn67 2.080 . S
O70 C84 1.305 . S
O71 Zn65 1.920 . S
O71 C84 1.234 . S
C72 O77 1.167 . S
C72 O78 1.299 . S
O73 Zn67 2.114 . S
O73 C68 1.166 . S
O74 Zn66 1.905 . S
O74 C68 1.182 . S
O75 Zn66 1.898 . S
O75 C69 1.167 . S
O76 Zn67 2.120 . S
O76 C69 1.299 . S
O77 Zn65 1.898 . S
O77 C72 1.167 . S
O78 Zn67 2.120 . S
O78 C72 1.299 . S
O79 Zn67 2.114 . S
O79 C81 1.166 . S
O80 Zn65 1.905 . S
O80 C81 1.182 . S
C81 O79 1.166 . S
C81 O80 1.182 . S
O82 Zn67 2.080 . S
O82 C85 1.305 . S
O83 Zn66 1.920 . S
O83 C85 1.234 . S
C84 O70 1.305 . S
C84 O71 1.234 . S
C85 O82 1.305 . S
C85 O83 1.234 . S
H86 C94 0.929 . S
H87 C96 0.930 . S
H88 C98 0.930 . S
H89 C101 0.929 . S
H90 C104 0.930 . S
H91 C106 0.960 . S
H92 C106 0.960 . S
H93 C106 0.960 . S
C94 H86 0.929 . S
C94 C95 1.377 . S
C94 C96 1.384 . S
C95 C94 1.377 . S
C95 C101 1.390 . S
C96 H87 0.930 . S
C96 C94 1.384 . S
C96 C97 1.372 . S
C97 C96 1.372 . S
C97 C98 1.400 . S
C97 C102 1.490 . S
C98 H88 0.930 . S
C98 C97 1.400 . S
C98 C101 1.386 . S
H99 C115 0.930 . S
H100 C116 0.931 . S
C101 H89 0.929 . S
C101 C95 1.390 . S
C101 C98 1.386 . S
C102 C97 1.490 . S
C102 C104 1.395 . S
C102 C105 1.403 . S
H103 C109 0.930 . S
C104 H90 0.930 . S
C104 C102 1.395 . S
C104 C107 1.403 . S
C105 C102 1.403 . S
C105 C106 1.524 . S
C105 C109 1.400 . S
C106 H91 0.960 . S
C106 H92 0.960 . S
C106 H93 0.960 . S
C106 C105 1.524 . S
C107 C104 1.403 . S
C107 C108 1.392 . S
C107 C111 1.495 . S
C108 C107 1.392 . S
C108 C109 1.385 . S
C108 C110 1.478 . S
C109 H103 0.930 . S
C109 C105 1.400 . S
C109 C108 1.385 . S
C110 C108 1.478 . S
C110 C112 1.381 . S
C110 C116 1.383 . S
C111 C107 1.495 . S
C111 H117 0.959 . S
C111 H118 0.961 . S
C111 H119 0.960 . S
C112 C110 1.381 . S
C112 C113 1.394 . S
C112 H120 0.930 . S
C113 C112 1.394 . S
C113 C114 1.383 . S
C113 H121 0.929 . S
C114 C113 1.383 . S
C114 C115 1.377 . S
C115 H99 0.930 . S
C115 C114 1.377 . S
C115 C116 1.379 . S
C116 H100 0.931 . S
C116 C110 1.383 . S
C116 C115 1.379 . S
H117 C111 0.959 . S
H118 C111 0.961 . S
H119 C111 0.960 . S
H120 C112 0.930 . S
H121 C113 0.929 . S
H122 C130 0.929 . S
H123 C132 0.930 . S
H124 C134 0.930 . S
H125 C137 0.929 . S
H126 C140 0.930 . S
H127 C142 0.960 . S
H128 C142 0.960 . S
H129 C142 0.960 . S
C130 H122 0.929 . S
C130 C131 1.377 . S
C130 C132 1.384 . S
C131 C130 1.377 . S
C131 C137 1.390 1_455 S
C132 H123 0.930 . S
C132 C130 1.384 . S
C132 C133 1.372 . S
C133 C132 1.372 . S
C133 C134 1.400 1_455 S
C133 C138 1.490 . S
C134 H124 0.930 . S
C134 C133 1.400 1_655 S
C134 C137 1.386 . S
H135 C151 0.930 . S
H136 C152 0.931 . S
C137 H125 0.929 . S
C137 C131 1.390 1_655 S
C137 C134 1.386 . S
C138 C133 1.490 . S
C138 C140 1.395 . S
C138 C141 1.403 1_455 S
H139 C145 0.930 . S
C140 H126 0.930 . S
C140 C138 1.395 . S
C140 C143 1.403 . S
C141 C138 1.403 1_655 S
C141 C142 1.524 . S
C141 C145 1.400 . S
C142 H127 0.960 . S
C142 H128 0.960 . S
C142 H129 0.960 . S
C142 C141 1.524 . S
C143 C140 1.403 . S
C143 C144 1.392 . S
C143 C147 1.495 . S
C144 C143 1.392 . S
C144 C145 1.385 1_455 S
C144 C146 1.478 . S
C145 H139 0.930 . S
C145 C141 1.400 . S
C145 C144 1.385 1_655 S
C146 C144 1.478 . S
C146 C148 1.381 . S
C146 C152 1.383 . S
C147 C143 1.495 . S
C147 H153 0.959 . S
C147 H154 0.961 . S
C147 H155 0.960 . S
C148 C146 1.381 . S
C148 C149 1.394 . S
C148 H156 0.930 . S
C149 C148 1.394 . S
C149 C150 1.383 . S
C149 H157 0.929 . S
C150 C149 1.383 . S
C150 C151 1.377 . S
C151 H135 0.930 . S
C151 C150 1.377 . S
C151 C152 1.379 . S
C152 H136 0.931 . S
C152 C146 1.383 . S
C152 C151 1.379 . S
H153 C147 0.959 . S
H154 C147 0.961 . S
H155 C147 0.960 . S
H156 C148 0.930 . S
H157 C149 0.929 . S
H158 C166 0.929 . S
H159 C168 0.930 . S
H160 C170 0.930 . S
H161 C173 0.929 . S
H162 C176 0.930 . S
H163 C178 0.960 . S
H164 C178 0.960 . S
H165 C178 0.960 . S
C166 H158 0.929 . S
C166 C167 1.377 . S
C166 C168 1.384 . S
C167 C166 1.377 . S
C167 C173 1.390 . S
C168 H159 0.930 . S
C168 C166 1.384 . S
C168 C169 1.372 . S
C169 C168 1.372 . S
C169 C170 1.400 . S
C169 C174 1.490 . S
C170 H160 0.930 . S
C170 C169 1.400 . S
C170 C173 1.386 . S
H171 C187 0.930 . S
H172 C188 0.931 . S
C173 H161 0.929 . S
C173 C167 1.390 . S
C173 C170 1.386 . S
C174 C169 1.490 . S
C174 C176 1.395 . S
C174 C177 1.403 . S
H175 C181 0.930 . S
C176 H162 0.930 . S
C176 C174 1.395 . S
C176 C179 1.403 . S
C177 C174 1.403 . S
C177 C178 1.524 . S
C177 C181 1.400 . S
C178 H163 0.960 . S
C178 H164 0.960 . S
C178 H165 0.960 . S
C178 C177 1.524 . S
C179 C176 1.403 . S
C179 C180 1.392 . S
C179 C183 1.495 . S
C180 C179 1.392 . S
C180 C181 1.385 . S
C180 C182 1.478 . S
C181 H175 0.930 . S
C181 C177 1.400 . S
C181 C180 1.385 . S
C182 C180 1.478 . S
C182 C184 1.381 . S
C182 C188 1.383 . S
C183 C179 1.495 . S
C183 H189 0.959 . S
C183 H190 0.961 . S
C183 H191 0.960 . S
C184 C182 1.381 . S
C184 C185 1.394 . S
C184 H192 0.930 . S
C185 C184 1.394 . S
C185 C186 1.383 . S
C185 H193 0.929 . S
C186 C185 1.383 . S
C186 C187 1.377 . S
C187 H171 0.930 . S
C187 C186 1.377 . S
C187 C188 1.379 . S
C188 H172 0.931 . S
C188 C182 1.383 . S
C188 C187 1.379 . S
H189 C183 0.959 . S
H190 C183 0.961 . S
H191 C183 0.960 . S
H192 C184 0.930 . S
H193 C185 0.929 . S
H194 C202 0.929 . S
H195 C204 0.930 . S
H196 C206 0.930 . S
H197 C209 0.929 . S
H198 C212 0.930 . S
H199 C214 0.960 . S
H200 C214 0.960 . S
H201 C214 0.960 . S
C202 H194 0.929 . S
C202 C203 1.377 . S
C202 C204 1.384 . S
C203 C202 1.377 . S
C203 C209 1.390 . S
C204 H195 0.930 . S
C204 C202 1.384 . S
C204 C205 1.372 . S
C205 C204 1.372 . S
C205 C206 1.400 . S
C205 C210 1.490 . S
C206 H196 0.930 . S
C206 C205 1.400 . S
C206 C209 1.386 . S
H207 C223 0.930 . S
H208 C224 0.931 . S
C209 H197 0.929 . S
C209 C203 1.390 . S
C209 C206 1.386 . S
C210 C205 1.490 . S
C210 C212 1.395 . S
C210 C213 1.403 . S
H211 C217 0.930 . S
C212 H198 0.930 . S
C212 C210 1.395 . S
C212 C215 1.403 . S
C213 C210 1.403 . S
C213 C214 1.524 . S
C213 C217 1.400 . S
C214 H199 0.960 . S
C214 H200 0.960 . S
C214 H201 0.960 . S
C214 C213 1.524 . S
C215 C212 1.403 . S
C215 C216 1.392 . S
C215 C219 1.495 . S
C216 C215 1.392 . S
C216 C217 1.385 . S
C216 C218 1.478 . S
C217 H211 0.930 . S
C217 C213 1.400 . S
C217 C216 1.385 . S
C218 C216 1.478 . S
C218 C220 1.381 . S
C218 C224 1.383 . S
C219 C215 1.495 . S
C219 H225 0.959 . S
C219 H226 0.961 . S
C219 H227 0.960 . S
C220 C218 1.381 . S
C220 C221 1.394 . S
C220 H228 0.930 . S
C221 C220 1.394 . S
C221 C222 1.383 . S
C221 H229 0.929 . S
C222 C221 1.383 . S
C222 C223 1.377 . S
C223 H207 0.930 . S
C223 C222 1.377 . S
C223 C224 1.379 . S
C224 H208 0.931 . S
C224 C218 1.383 . S
C224 C223 1.379 . S
H225 C219 0.959 . S
H226 C219 0.961 . S
H227 C219 0.960 . S
H228 C220 0.930 . S
H229 C221 0.929 . S
H230 C238 0.929 . S
H231 C240 0.930 . S
H232 C242 0.930 . S
H233 C245 0.929 . S
H234 C248 0.930 . S
H235 C250 0.960 . S
H236 C250 0.960 . S
H237 C250 0.960 . S
C238 H230 0.929 . S
C238 C239 1.377 1_554 S
C238 C240 1.384 . S
C239 C238 1.377 1_556 S
C239 C245 1.390 . S
C240 H231 0.930 . S
C240 C238 1.384 . S
C240 C241 1.372 1_554 S
C241 C240 1.372 1_556 S
C241 C242 1.400 . S
C241 C246 1.490 . S
C242 H232 0.930 . S
C242 C241 1.400 . S
C242 C245 1.386 . S
H243 C259 0.930 . S
H244 C260 0.931 . S
C245 H233 0.929 . S
C245 C239 1.390 . S
C245 C242 1.386 . S
C246 C241 1.490 . S
C246 C248 1.395 . S
C246 C249 1.403 . S
H247 C253 0.930 . S
C248 H234 0.930 . S
C248 C246 1.395 . S
C248 C251 1.403 . S
C249 C246 1.403 . S
C249 C250 1.524 . S
C249 C253 1.400 . S
C250 H235 0.960 . S
C250 H236 0.960 . S
C250 H237 0.960 . S
C250 C249 1.524 . S
C251 C248 1.403 . S
C251 C252 1.392 . S
C251 C255 1.495 . S
C252 C251 1.392 . S
C252 C253 1.385 . S
C252 C254 1.478 . S
C253 H247 0.930 . S
C253 C249 1.400 . S
C253 C252 1.385 . S
C254 C252 1.478 . S
C254 C256 1.381 . S
C254 C260 1.383 . S
C255 C251 1.495 . S
C255 H261 0.959 1_556 S
C255 H262 0.961 . S
C255 H263 0.960 . S
C256 C254 1.381 . S
C256 C257 1.394 . S
C256 H264 0.930 . S
C257 C256 1.394 . S
C257 C258 1.383 . S
C257 H265 0.929 . S
C258 C257 1.383 . S
C258 C259 1.377 . S
C259 H243 0.930 . S
C259 C258 1.377 . S
C259 C260 1.379 . S
C260 H244 0.931 . S
C260 C254 1.383 . S
C260 C259 1.379 . S
H261 C255 0.959 1_554 S
H262 C255 0.961 . S
H263 C255 0.960 . S
H264 C256 0.930 . S
H265 C257 0.929 . S
H266 C274 0.929 . S
H267 C276 0.930 . S
H268 C278 0.930 . S
H269 C281 0.929 . S
H270 C284 0.930 . S
H271 C286 0.960 . S
H272 C286 0.955 1_556 S
H273 C286 0.960 . S
C274 H266 0.929 . S
C274 C275 1.380 . S
C274 C276 1.384 . S
C275 C274 1.380 . S
C275 C281 1.388 1_556 S
C276 H267 0.930 . S
C276 C274 1.384 . S
C276 C277 1.372 . S
C277 C276 1.372 . S
C277 C278 1.400 1_556 S
C277 C282 1.490 . S
C278 H268 0.930 . S
C278 C277 1.400 1_554 S
C278 C281 1.386 . S
H279 C295 0.930 . S
H280 C296 0.931 . S
C281 H269 0.929 . S
C281 C275 1.388 1_554 S
C281 C278 1.386 . S
C282 C277 1.490 . S
C282 C284 1.395 . S
C282 C285 1.403 . S
H283 C289 0.930 . S
C284 H270 0.930 . S
C284 C282 1.395 . S
C284 C287 1.403 . S
C285 C282 1.403 . S
C285 C286 1.524 1_556 S
C285 C289 1.400 . S
C286 H271 0.960 . S
C286 H272 0.955 1_554 S
C286 H273 0.960 . S
C286 C285 1.524 1_554 S
C287 C284 1.403 . S
C287 C288 1.392 . S
C287 C291 1.495 . S
C288 C287 1.392 . S
C288 C289 1.385 . S
C288 C290 1.478 . S
C289 H283 0.930 . S
C289 C285 1.400 . S
C289 C288 1.385 . S
C290 C288 1.478 . S
C290 C292 1.381 . S
C290 C296 1.383 . S
C291 C287 1.495 . S
C291 H297 0.959 . S
C291 H298 0.961 . S
C291 H299 0.960 . S
C292 C290 1.381 . S
C292 C293 1.394 . S
C292 H300 0.930 . S
C293 C292 1.394 . S
C293 C294 1.383 . S
C293 H301 0.929 . S
C294 C293 1.383 . S
C294 C295 1.377 . S
C295 H279 0.930 . S
C295 C294 1.377 . S
C295 C296 1.379 . S
C296 H280 0.931 . S
C296 C290 1.383 . S
C296 C295 1.379 . S
H297 C291 0.959 . S
H298 C291 0.961 . S
H299 C291 0.960 . S
H300 C292 0.930 . S
H301 C293 0.929 . S
H302 C310 0.929 . S
H303 C312 0.930 . S
H304 C314 0.930 . S
H305 C317 0.929 . S
H306 C320 0.930 . S
H307 C322 0.958 1_554 S
H308 C322 0.960 1_554 S
H309 C322 0.960 . S
C310 H302 0.929 . S
C310 C311 1.377 . S
C310 C312 1.384 . S
C311 C310 1.377 . S
C311 C317 1.390 1_455 S
C312 H303 0.930 . S
C312 C310 1.384 . S
C312 C313 1.372 1_455 S
C313 C312 1.372 1_655 S
C313 C314 1.400 . S
C313 C318 1.490 . S
C314 H304 0.930 . S
C314 C313 1.400 . S
C314 C317 1.386 . S
H315 C331 0.930 . S
H316 C332 0.931 . S
C317 H305 0.929 . S
C317 C311 1.390 1_655 S
C317 C314 1.386 . S
C318 C313 1.490 . S
C318 C320 1.395 . S
C318 C321 1.403 . S
H319 C325 0.930 . S
C320 H306 0.930 . S
C320 C318 1.395 . S
C320 C323 1.403 . S
C321 C318 1.403 . S
C321 C322 1.524 . S
C321 C325 1.400 . S
C322 H307 0.958 1_556 S
C322 H308 0.960 1_556 S
C322 H309 0.960 . S
C322 C321 1.524 . S
C323 C320 1.403 . S
C323 C324 1.392 . S
C323 C327 1.495 . S
C324 C323 1.392 . S
C324 C325 1.385 . S
C324 C326 1.478 . S
C325 H319 0.930 . S
C325 C321 1.400 . S
C325 C324 1.385 . S
C326 C324 1.478 . S
C326 C328 1.381 . S
C326 C332 1.383 . S
C327 C323 1.495 . S
C327 H333 0.959 . S
C327 H334 0.961 . S
C327 H335 0.960 . S
C328 C326 1.381 . S
C328 C329 1.394 . S
C328 H336 0.930 . S
C329 C328 1.394 . S
C329 C330 1.383 . S
C329 H337 0.929 . S
C330 C329 1.383 . S
C330 C331 1.377 . S
C331 H315 0.930 . S
C331 C330 1.377 . S
C331 C332 1.379 . S
C332 H316 0.931 . S
C332 C326 1.383 . S
C332 C331 1.379 . S
H333 C327 0.959 . S
H334 C327 0.961 . S
H335 C327 0.960 . S
H336 C328 0.930 . S
H337 C329 0.929 . S
H338 C346 0.929 . S
H339 C348 0.930 1_554 S
H340 C350 0.930 . S
H341 C353 0.929 . S
H342 C356 0.930 . S
H343 C358 0.960 . S
H344 C358 0.960 . S
H345 C358 0.960 . S
C346 H338 0.929 . S
C346 C347 1.377 1_554 S
C346 C348 1.384 1_554 S
C347 C346 1.377 1_556 S
C347 C353 1.390 . S
C348 H339 0.930 1_556 S
C348 C346 1.384 1_556 S
C348 C349 1.372 . S
C349 C348 1.372 . S
C349 C350 1.400 . S
C349 C354 1.490 . S
C350 H340 0.930 . S
C350 C349 1.400 . S
C350 C353 1.386 . S
H351 C367 0.930 . S
H352 C368 0.931 . S
C353 H341 0.929 . S
C353 C347 1.390 . S
C353 C350 1.386 . S
C354 C349 1.490 . S
C354 C356 1.395 . S
C354 C357 1.403 . S
H355 C361 0.930 . S
C356 H342 0.930 . S
C356 C354 1.395 . S
C356 C359 1.403 . S
C357 C354 1.403 . S
C357 C358 1.524 . S
C357 C361 1.400 . S
C358 H343 0.960 . S
C358 H344 0.960 . S
C358 H345 0.960 . S
C358 C357 1.524 . S
C359 C356 1.403 . S
C359 C360 1.392 . S
C359 C363 1.495 . S
C360 C359 1.392 . S
C360 C361 1.385 . S
C360 C362 1.478 . S
C361 H355 0.930 . S
C361 C357 1.400 . S
C361 C360 1.385 . S
C362 C360 1.478 . S
C362 C364 1.381 . S
C362 C368 1.383 . S
C363 C359 1.495 . S
C363 H369 0.959 . S
C363 H370 0.961 . S
C363 H371 0.960 . S
C364 C362 1.381 . S
C364 C365 1.394 . S
C364 H372 0.930 . S
C365 C364 1.394 . S
C365 C366 1.383 . S
C365 H373 0.929 . S
C366 C365 1.383 . S
C366 C367 1.377 . S
C367 H351 0.930 . S
C367 C366 1.377 . S
C367 C368 1.379 . S
C368 H352 0.931 . S
C368 C362 1.383 . S
C368 C367 1.379 . S
H369 C363 0.959 . S
H370 C363 0.961 . S
H371 C363 0.960 . S
H372 C364 0.930 . S
H373 C365 0.929 . S
H374 C382 0.929 . S
H375 C384 0.930 . S
H376 C386 0.930 . S
H377 C389 0.929 . S
H378 C392 0.930 . S
H379 C394 0.960 . S
H380 C394 0.960 . S
H381 C394 0.960 . S
C382 H374 0.929 . S
C382 C383 1.377 . S
C382 C384 1.384 . S
C383 C382 1.377 . S
C383 C389 1.390 . S
C384 H375 0.930 . S
C384 C382 1.384 . S
C384 C385 1.372 . S
C385 C384 1.372 . S
C385 C386 1.400 . S
C385 C390 1.490 . S
C386 H376 0.930 . S
C386 C385 1.400 . S
C386 C389 1.386 . S
H387 C403 0.930 . S
H388 C404 0.931 . S
C389 H377 0.929 . S
C389 C383 1.390 . S
C389 C386 1.386 . S
C390 C385 1.490 . S
C390 C392 1.395 . S
C390 C393 1.403 . S
H391 C397 0.930 . S
C392 H378 0.930 . S
C392 C390 1.395 . S
C392 C395 1.403 . S
C393 C390 1.403 . S
C393 C394 1.524 . S
C393 C397 1.400 . S
C394 H379 0.960 . S
C394 H380 0.960 . S
C394 H381 0.960 . S
C394 C393 1.524 . S
C395 C392 1.403 . S
C395 C396 1.392 . S
C395 C399 1.495 . S
C396 C395 1.392 . S
C396 C397 1.385 . S
C396 C398 1.478 . S
C397 H391 0.930 . S
C397 C393 1.400 . S
C397 C396 1.385 . S
C398 C396 1.478 . S
C398 C400 1.381 . S
C398 C404 1.383 . S
C399 C395 1.495 . S
C399 H405 0.959 . S
C399 H406 0.961 . S
C399 H407 0.960 . S
C400 C398 1.381 . S
C400 C401 1.394 1_655 S
C400 H408 0.930 . S
C401 C400 1.394 1_455 S
C401 C402 1.383 1_455 S
C401 H409 0.929 . S
C402 C401 1.383 1_655 S
C402 C403 1.377 . S
C403 H387 0.930 . S
C403 C402 1.377 . S
C403 C404 1.379 . S
C404 H388 0.931 . S
C404 C398 1.383 . S
C404 C403 1.379 . S
H405 C399 0.959 . S
H406 C399 0.961 . S
H407 C399 0.960 . S
H408 C400 0.930 . S
H409 C401 0.929 . S
H410 C418 0.929 . S
H411 C420 0.930 . S
H412 C422 0.930 . S
H413 C425 0.929 . S
H414 C428 0.930 . S
H415 C430 0.960 . S
H416 C430 0.960 . S
H417 C430 0.960 . S
C418 H410 0.929 . S
C418 C419 1.377 . S
C418 C420 1.384 . S
C419 C418 1.377 . S
C419 C425 1.390 . S
C420 H411 0.930 . S
C420 C418 1.384 . S
C420 C421 1.372 . S
C421 C420 1.372 . S
C421 C422 1.400 . S
C421 C426 1.490 . S
C422 H412 0.930 . S
C422 C421 1.400 . S
C422 C425 1.386 . S
H423 C439 0.930 . S
H424 C440 0.931 . S
C425 H413 0.929 . S
C425 C419 1.390 . S
C425 C422 1.386 . S
C426 C421 1.490 . S
C426 C428 1.395 . S
C426 C429 1.403 . S
H427 C433 0.930 . S
C428 H414 0.930 . S
C428 C426 1.395 . S
C428 C431 1.403 . S
C429 C426 1.403 . S
C429 C430 1.524 . S
C429 C433 1.400 . S
C430 H415 0.960 . S
C430 H416 0.960 . S
C430 H417 0.960 . S
C430 C429 1.524 . S
C431 C428 1.403 . S
C431 C432 1.392 . S
C431 C435 1.495 . S
C432 C431 1.392 . S
C432 C433 1.385 . S
C432 C434 1.478 . S
C433 H427 0.930 . S
C433 C429 1.400 . S
C433 C432 1.385 . S
C434 C432 1.478 . S
C434 C436 1.381 . S
C434 C440 1.383 . S
C435 C431 1.495 . S
C435 H441 0.959 . S
C435 H442 0.961 . S
C435 H443 0.960 . S
C436 C434 1.381 . S
C436 C437 1.394 . S
C436 H444 0.930 . S
C437 C436 1.394 . S
C437 C438 1.383 . S
C437 H445 0.929 . S
C438 C437 1.383 . S
C438 C439 1.377 . S
C439 H423 0.930 . S
C439 C438 1.377 . S
C439 C440 1.379 . S
C440 H424 0.931 . S
C440 C434 1.383 . S
C440 C439 1.379 . S
H441 C435 0.959 . S
H442 C435 0.961 . S
H443 C435 0.960 . S
H444 C436 0.930 . S
H445 C437 0.929 . S
H446 C454 0.929 . S
H447 C456 0.930 . S
H448 C458 0.930 . S
H449 C461 0.929 . S
H450 C464 0.930 . S
H451 C466 0.960 . S
H452 C466 0.960 . S
H453 C466 0.960 . S
C454 H446 0.929 . S
C454 C455 1.377 . S
C454 C456 1.384 . S
C455 C454 1.377 . S
C455 C461 1.390 . S
C456 H447 0.930 . S
C456 C454 1.384 . S
C456 C457 1.372 . S
C457 C456 1.372 . S
C457 C458 1.400 . S
C457 C462 1.490 . S
C458 H448 0.930 . S
C458 C457 1.400 . S
C458 C461 1.386 . S
H459 C475 0.930 . S
H460 C476 0.931 . S
C461 H449 0.929 . S
C461 C455 1.390 . S
C461 C458 1.386 . S
C462 C457 1.490 . S
C462 C464 1.395 . S
C462 C465 1.403 . S
H463 C469 0.930 . S
C464 H450 0.930 . S
C464 C462 1.395 . S
C464 C467 1.403 . S
C465 C462 1.403 . S
C465 C466 1.524 . S
C465 C469 1.400 . S
C466 H451 0.960 . S
C466 H452 0.960 . S
C466 H453 0.960 . S
C466 C465 1.524 . S
C467 C464 1.403 . S
C467 C468 1.392 . S
C467 C471 1.495 . S
C468 C467 1.392 . S
C468 C469 1.385 . S
C468 C470 1.478 . S
C469 H463 0.930 . S
C469 C465 1.400 . S
C469 C468 1.385 . S
C470 C468 1.478 . S
C470 C472 1.381 . S
C470 C476 1.383 . S
C471 C467 1.495 . S
C471 H477 0.959 . S
C471 H478 0.961 . S
C471 H479 0.960 . S
C472 C470 1.381 . S
C472 C473 1.394 . S
C472 H480 0.930 . S
C473 C472 1.394 . S
C473 C474 1.383 . S
C473 H481 0.929 . S
C474 C473 1.383 . S
C474 C475 1.377 . S
C475 H459 0.930 . S
C475 C474 1.377 . S
C475 C476 1.379 . S
C476 H460 0.931 . S
C476 C470 1.383 . S
C476 C475 1.379 . S
H477 C471 0.959 . S
H478 C471 0.961 . S
H479 C471 0.960 . S
H480 C472 0.930 . S
H481 C473 0.929 . S
H482 C490 0.929 . S
H483 C492 0.930 . S
H484 C494 0.930 . S
H485 C497 0.929 . S
H486 C500 0.930 . S
H487 C502 0.960 . S
H488 C502 0.960 . S
H489 C502 0.960 . S
C490 H482 0.929 . S
C490 C491 1.377 . S
C490 C492 1.384 . S
C491 C490 1.377 . S
C491 C497 1.390 . S
C492 H483 0.930 . S
C492 C490 1.384 . S
C492 C493 1.372 . S
C493 C492 1.372 . S
C493 C494 1.400 . S
C493 C498 1.490 . S
C494 H484 0.930 . S
C494 C493 1.400 . S
C494 C497 1.386 . S
H495 C511 0.930 . S
H496 C512 0.931 . S
C497 H485 0.929 . S
C497 C491 1.390 . S
C497 C494 1.386 . S
C498 C493 1.490 . S
C498 C500 1.395 . S
C498 C501 1.403 . S
H499 C505 0.930 . S
C500 H486 0.930 . S
C500 C498 1.395 . S
C500 C503 1.403 . S
C501 C498 1.403 . S
C501 C502 1.524 . S
C501 C505 1.400 . S
C502 H487 0.960 . S
C502 H488 0.960 . S
C502 H489 0.960 . S
C502 C501 1.524 . S
C503 C500 1.403 . S
C503 C504 1.392 . S
C503 C507 1.495 . S
C504 C503 1.392 . S
C504 C505 1.385 . S
C504 C506 1.478 . S
C505 H499 0.930 . S
C505 C501 1.400 . S
C505 C504 1.385 . S
C506 C504 1.478 . S
C506 C508 1.381 . S
C506 C512 1.383 . S
C507 C503 1.495 . S
C507 H513 0.959 . S
C507 H514 0.961 . S
C507 H515 0.960 . S
C508 C506 1.381 . S
C508 C509 1.394 . S
C508 H516 0.930 . S
C509 C508 1.394 . S
C509 C510 1.383 . S
C509 H517 0.929 . S
C510 C509 1.383 . S
C510 C511 1.377 . S
C511 H495 0.930 . S
C511 C510 1.377 . S
C511 C512 1.379 . S
C512 H496 0.931 . S
C512 C506 1.383 . S
C512 C511 1.379 . S
H513 C507 0.959 . S
H514 C507 0.961 . S
H515 C507 0.960 . S
H516 C508 0.930 . S
H517 C509 0.929 . S
C114 C51 1.363 . S
C95 C10 1.530 . S
C150 C47 1.387 . S
C131 C21 1.502 . S
C186 C72 1.394 . S
C167 C32 1.531 . S
C203 C43 1.499 . S
C222 C68 1.430 . S
C239 C5 1.151 1_556 S
C258 C69 1.045 . S
C294 C84 1.068 . S
C275 C15 1.177 1_556 S
C311 C4 1.777 1_556 S
C330 C85 1.638 . S
C366 C81 1.689 . S
C347 C16 1.806 1_556 S
C402 C48 0.994 1_655 S
C383 C27 1.159 . S
C419 C37 1.178 . S
C438 C63 1.059 . S
C474 C64 1.611 . S
C455 C26 1.780 . S
C510 C60 1.652 . S
C491 C38 1.804 . S
