# Generated by pormake.
# Topology pth, (4,4)-cn, num edge types: 1
# Building blocks:
#     Node 0, Type 0, BuildingBlock: TATPOV_clean_sbu_0, # of connection points: 4
#     Node 1, Type 0, BuildingBlock: TATPOV_clean_sbu_0, # of connection points: 4
#     Node 2, Type 0, BuildingBlock: TATPOV_clean_sbu_0, # of connection points: 4
#     Node 3, Type 1, BuildingBlock: MUDLON_clean_linker_0, # of connection points: 4
#     Node 4, Type 1, BuildingBlock: MUDLON_clean_linker_0, # of connection points: 4
#     Node 5, Type 1, BuildingBlock: MUDLON_clean_linker_0, # of connection points: 4
#     Edge 6, Type (0, 1), BuildingBlock: MIFKUJ_clean_linker_0, # of connection points: 2
#     Edge 7, Type (0, 1), BuildingBlock: MIFKUJ_clean_linker_0, # of connection points: 2
#     Edge 8, Type (0, 1), BuildingBlock: MIFKUJ_clean_linker_0, # of connection points: 2
#     Edge 9, Type (0, 1), BuildingBlock: MIFKUJ_clean_linker_0, # of connection points: 2
#     Edge 10, Type (0, 1), BuildingBlock: MIFKUJ_clean_linker_0, # of connection points: 2
#     Edge 11, Type (0, 1), BuildingBlock: MIFKUJ_clean_linker_0, # of connection points: 2
#     Edge 12, Type (0, 1), BuildingBlock: MIFKUJ_clean_linker_0, # of connection points: 2
#     Edge 13, Type (0, 1), BuildingBlock: MIFKUJ_clean_linker_0, # of connection points: 2
#     Edge 14, Type (0, 1), BuildingBlock: MIFKUJ_clean_linker_0, # of connection points: 2
#     Edge 15, Type (0, 1), BuildingBlock: MIFKUJ_clean_linker_0, # of connection points: 2
#     Edge 16, Type (0, 1), BuildingBlock: MIFKUJ_clean_linker_0, # of connection points: 2
#     Edge 17, Type (0, 1), BuildingBlock: MIFKUJ_clean_linker_0, # of connection points: 2
# Relax obj value: 0.052
# Max RMSD: 0.165
# Mean RMSD: 0.112
data_MOF--net-pth--node1-TATPOV_clean_sbu_0--node2-MUDLON_clean_linker_0--edge1-MIFKUJ_clean_linker_0
_symmetry_space_group_name_H-M    P1
_symmetry_Int_Tables_number       1
_symmetry_cell_setting            triclinic
loop_
_symmetry_equiv_pos_as_xyz
'x, y, z'
_cell_length_a     41.350454
_cell_length_b     41.011238
_cell_length_c     80.855852
_cell_angle_alpha  92.341264
_cell_angle_beta   92.152754
_cell_angle_gamma 120.8919
loop_
_atom_site_label
_atom_site_type_symbol
_atom_site_fract_x
_atom_site_fract_y
_atom_site_fract_z
_atom_type_partial_charge
Zn0 Zn 0.11042 0.00941 0.01322 0.0
Zn1 Zn 0.09271 0.04787 0.03532 0.0
O2 O 0.09854 0.01115 0.05001 0.0
O3 O 0.11165 0.97863 0.03193 0.0
O4 O 0.08134 0.07976 0.05094 0.0
O5 O 0.15697 0.05797 0.00782 0.0
O6 O 0.14071 0.08898 0.02516 0.0
C7 C 0.10545 0.98477 0.04663 0.0
C8 C 0.03713 -0.00043 0.00581 0.0
O9 O 0.04517 0.02013 0.01931 0.0
O10 O 0.06081 0.99187 0.00017 0.0
C11 C 0.04926 0.06691 0.05685 0.0
O12 O 0.02286 0.03114 0.0532 0.0
C13 C 0.16301 0.0891 0.01466 0.0
Zn14 Zn 0.09367 0.07607 0.34079 0.0
Zn15 Zn 0.03866 0.05201 0.36222 0.0
O16 O 0.08463 0.06318 0.37749 0.0
O17 O 0.1296 0.08211 0.36004 0.0
O18 O 0.99699 0.04056 0.37732 0.0
O19 O 0.08812 0.12015 0.3347 0.0
O20 O 0.04083 0.09717 0.35089 0.0
C21 C 0.11883 0.07463 0.3746 0.0
C22 C 0.03112 0.99809 0.33348 0.0
O23 O 0.01908 0.0035 0.34698 0.0
O24 O 0.06098 0.02465 0.328 0.0
C25 C 0.98866 0.02193 0.39023 0.0
O26 O 0.00816 0.00638 0.39494 0.0
C27 C 0.06106 0.1215 0.34079 0.0
Zn28 Zn 0.071 0.95821 0.7243 0.0
Zn29 Zn 0.03678 0.9845 0.70438 0.0
O30 O 0.06784 0.97328 0.68838 0.0
O31 O 0.09473 0.95018 0.70422 0.0
O32 O 0.00714 -0.0001 0.68965 0.0
O33 O 0.02092 0.91652 0.73135 0.0
O34 O 0.99397 0.939 0.71524 0.0
C35 C 0.08948 0.95988 0.69015 0.0
C36 C 0.09298 0.037 0.7326 0.0
O37 O 0.07056 0.03174 0.72015 0.0
O38 O 0.09736 0.01008 0.73696 0.0
C39 C 0.9816 0.97454 0.67942 0.0
O40 O 0.97686 0.94026 0.67846 0.0
C41 C 0.99138 0.91506 0.72545 0.0
H42 H 0.87851 0.62793 0.19305 0.0
N43 N 0.9206 0.59728 0.18795 0.0
H44 H 0.88224 0.66772 0.21704 0.0
H45 H 0.96065 0.6083 0.21762 0.0
H46 H 0.96236 0.64538 0.2423 0.0
H47 H 0.99472 0.65419 0.1935 0.0
H48 H 0.03046 0.70606 0.17554 0.0
H49 H 0.89971 0.60351 0.15728 0.0
H50 H 0.93585 0.65471 0.13899 0.0
H51 H 0.87584 0.53533 0.20375 0.0
H52 H 0.97309 0.58264 0.1743 0.0
H53 H 0.87853 0.47781 0.2056 0.0
H54 H 0.97382 0.52428 0.17495 0.0
H55 H 0.88117 0.29349 0.20916 0.0
H56 H 0.89718 0.27435 0.23505 0.0
H57 H 0.00474 0.38011 0.23992 0.0
H58 H 0.9889 0.39858 0.21407 0.0
H59 H 0.99677 0.37215 0.18787 0.0
H60 H 0.01421 0.34044 0.16701 0.0
H61 H 0.89829 0.2764 0.14669 0.0
H62 H 0.88089 0.30717 0.16821 0.0
H63 H 0.8659 0.36407 0.19278 0.0
H64 H 0.86539 0.423 0.19098 0.0
H65 H 0.98721 0.4856 0.18983 0.0
N66 N 0.92484 0.35512 0.19335 0.0
H67 H 0.98666 0.42599 0.19009 0.0
C68 C 0.91904 0.61502 0.20349 0.0
C69 C 0.89639 0.63122 0.2039 0.0
C70 C 0.89843 0.65379 0.21775 0.0
C71 C 0.92276 0.66015 0.23176 0.0
C72 C 0.94391 0.642 0.23168 0.0
C73 C 0.94256 0.6202 0.21762 0.0
C74 C 0.94421 0.6253 0.17678 0.0
C75 C 0.98171 0.65402 0.18162 0.0
C76 C 0.00211 0.68357 0.17136 0.0
C77 C 0.98577 0.68439 0.15596 0.0
C78 C 0.94912 0.65458 0.15078 0.0
C79 C 0.92848 0.62543 0.16117 0.0
C80 C 0.92443 0.56413 0.1892 0.0
C81 C 0.8978 0.53345 0.19769 0.0
C82 C 0.89905 0.50017 0.1985 0.0
C83 C 0.92625 0.49592 0.19031 0.0
C84 C 0.95287 0.52652 0.18171 0.0
C85 C 0.95222 0.56024 0.18124 0.0
C86 C 0.93361 0.34732 0.20961 0.0
C87 C 0.9079 0.31274 0.216 0.0
C88 C 0.91705 0.30198 0.23081 0.0
C89 C 0.95232 0.3257 0.2395 0.0
C90 C 0.97753 0.36104 0.23341 0.0
C91 C 0.96833 0.37176 0.21861 0.0
C92 C 0.93727 0.34158 0.17971 0.0
C93 C 0.97516 0.35162 0.17885 0.0
C94 C 0.98516 0.33354 0.16679 0.0
C95 C 0.95758 0.3054 0.15525 0.0
C96 C 0.92013 0.29721 0.1556 0.0
C97 C 0.91015 0.31502 0.16775 0.0
C98 C 0.92619 0.39064 0.19187 0.0
C99 C 0.89237 0.3906 0.19201 0.0
C100 C 0.8923 0.42449 0.1912 0.0
C101 C 0.92636 0.45955 0.19056 0.0
C102 C 0.96033 0.45936 0.19018 0.0
C103 C 0.96019 0.4252 0.19058 0.0
H104 H 0.75984 0.12797 0.55411 0.0
N105 N 0.69271 0.08325 0.53827 0.0
H106 H 0.78952 0.11186 0.57645 0.0
H107 H 0.6579 0.01854 0.55508 0.0
H108 H 0.68716 0.00209 0.57764 0.0
H109 H 0.67173 0.01104 0.52648 0.0
H110 H 0.69872 0.9944 0.50357 0.0
H111 H 0.73722 0.1294 0.51634 0.0
H112 H 0.76442 0.11306 0.49335 0.0
H113 H 0.67322 0.11958 0.5599 0.0
H114 H 0.62783 0.03696 0.51778 0.0
H115 H 0.61334 0.11727 0.56083 0.0
H116 H 0.56897 0.03645 0.51798 0.0
H117 H 0.4343 0.12965 0.55601 0.0
H118 H 0.38748 0.10906 0.5769 0.0
H119 H 0.36876 0.99534 0.57091 0.0
H120 H 0.41586 0.01628 0.55031 0.0
H121 H 0.39706 0.01979 0.52153 0.0
H122 H 0.35613 0.01364 0.4975 0.0
H123 H 0.42025 0.13568 0.49452 0.0
H124 H 0.46097 0.14156 0.51867 0.0
H125 H 0.52197 0.14209 0.54615 0.0
H126 H 0.57941 0.13917 0.54651 0.0
H127 H 0.51283 0.01919 0.53076 0.0
N128 N 0.45198 0.08673 0.53771 0.0
H129 H 0.45595 0.02332 0.52942 0.0
C130 C 0.7069 0.07454 0.55295 0.0
C131 C 0.74366 0.10077 0.55944 0.0
C132 C 0.76046 0.0915 0.57224 0.0
C133 C 0.74075 0.0556 0.57881 0.0
C134 C 0.70325 0.02978 0.5727 0.0
C135 C 0.68641 0.03918 0.55989 0.0
C136 C 0.70269 0.07164 0.52315 0.0
C137 C 0.69149 0.03339 0.51916 0.0
C138 C 0.70705 0.02392 0.5061 0.0
C139 C 0.73394 0.05245 0.49674 0.0
C140 C 0.74351 0.09037 0.50021 0.0
C141 C 0.72805 0.09981 0.51332 0.0
C142 C 0.65559 0.0786 0.53887 0.0
C143 C 0.65035 0.10086 0.55087 0.0
C144 C 0.61613 0.09984 0.55124 0.0
C145 C 0.58625 0.07711 0.53931 0.0
C146 C 0.59108 0.05404 0.52748 0.0
C147 C 0.62521 0.05456 0.52731 0.0
C148 C 0.42875 0.07473 0.55164 0.0
C149 C 0.42062 0.10051 0.5595 0.0
C150 C 0.39361 0.08858 0.57126 0.0
C151 C 0.3741 0.05045 0.57541 0.0
C152 C 0.38347 0.02496 0.56806 0.0
C153 C 0.41047 0.03694 0.55624 0.0
C154 C 0.43201 0.08131 0.52192 0.0
C155 C 0.40285 0.04513 0.51552 0.0
C156 C 0.3793 0.04166 0.50184 0.0
C157 C 0.38479 0.07421 0.49424 0.0
C158 C 0.41547 0.11006 0.50004 0.0
C159 C 0.43874 0.11351 0.5138 0.0
C160 C 0.48475 0.08301 0.538 0.0
C161 C 0.51993 0.11522 0.5428 0.0
C162 C 0.55267 0.1133 0.54314 0.0
C163 C 0.55096 0.07877 0.53888 0.0
C164 C 0.51545 0.04635 0.53401 0.0
C165 C 0.48269 0.04852 0.53343 0.0
H166 H 0.68281 0.78551 0.86491 0.0
N167 N 0.61575 0.71803 0.86569 0.0
H168 H 0.7256 0.82516 0.88793 0.0
H169 H 0.60392 0.711 0.89912 0.0
H170 H 0.64735 0.75156 0.92227 0.0
H171 H 0.66698 0.69534 0.86146 0.0
H172 H 0.70309 0.70326 0.83749 0.0
H173 H 0.61021 0.74555 0.8371 0.0
H174 H 0.64877 0.75666 0.81336 0.0
H175 H 0.54264 0.68005 0.85594 0.0
H176 H 0.62798 0.66734 0.88204 0.0
H177 H 0.49688 0.61204 0.85775 0.0
H178 H 0.58271 0.59977 0.88385 0.0
H179 H 0.37281 0.43245 0.8847 0.0
H180 H 0.34558 0.40058 0.90968 0.0
H181 H 0.4363 0.37829 0.91698 0.0
H182 H 0.46355 0.41044 0.8918 0.0
H183 H 0.43867 0.38742 0.85127 0.0
H184 H 0.39491 0.34786 0.8277 0.0
H185 H 0.33293 0.40555 0.83384 0.0
H186 H 0.37735 0.4457 0.85702 0.0
H187 H 0.41811 0.49427 0.87751 0.0
H188 H 0.46155 0.56304 0.87756 0.0
H189 H 0.55075 0.54367 0.86401 0.0
N190 N 0.43517 0.43885 0.87077 0.0
H191 H 0.50707 0.47489 0.86413 0.0
C192 C 0.64093 0.7425 0.87984 0.0
C193 C 0.67465 0.77681 0.87727 0.0
C194 C 0.69913 0.80028 0.89057 0.0
C195 C 0.69027 0.79116 0.90696 0.0
C196 C 0.65548 0.75872 0.90974 0.0
C197 C 0.63076 0.73518 0.89638 0.0
C198 C 0.63528 0.71936 0.85101 0.0
C199 C 0.66168 0.70742 0.85082 0.0
C200 C 0.68301 0.71275 0.83714 0.0
C201 C 0.67937 0.73112 0.8235 0.0
C202 C 0.6521 0.74198 0.82351 0.0
C203 C 0.63015 0.73589 0.8371 0.0
C204 C 0.58872 0.6789 0.86874 0.0
C205 C 0.55131 0.66271 0.86225 0.0
C206 C 0.52527 0.62393 0.86331 0.0
C207 C 0.53631 0.60049 0.87081 0.0
C208 C 0.57354 0.61693 0.87772 0.0
C209 C 0.5995 0.65565 0.87668 0.0
C210 C 0.4202 0.42354 0.88628 0.0
C211 C 0.38716 0.42113 0.89167 0.0
C212 C 0.37149 0.40276 0.90597 0.0
C213 C 0.38868 0.38673 0.91522 0.0
C214 C 0.42258 0.39062 0.91019 0.0
C215 C 0.43808 0.40878 0.89581 0.0
C216 C 0.4111 0.4191 0.85603 0.0
C217 C 0.41601 0.39191 0.84732 0.0
C218 C 0.39112 0.36949 0.83388 0.0
C219 C 0.36048 0.3736 0.82903 0.0
C220 C 0.35616 0.40165 0.83744 0.0
C221 C 0.38151 0.42454 0.85073 0.0
C222 C 0.45949 0.47947 0.87077 0.0
C223 C 0.4469 0.50474 0.8745 0.0
C224 C 0.47178 0.5441 0.87449 0.0
C225 C 0.50963 0.5588 0.87087 0.0
C226 C 0.52195 0.53331 0.86712 0.0
C227 C 0.49706 0.49408 0.86706 0.0
H228 H 0.98362 0.04896 0.07109 0.0
H229 H 0.96965 0.09183 0.08688 0.0
H230 H 0.08212 0.18577 0.08104 0.0
H231 H 0.09656 0.14297 0.06546 0.0
H232 H 0.06279 0.18762 0.11203 0.0
H233 H 0.00634 0.17489 0.05763 0.0
H234 H 0.96626 0.14073 0.03214 0.0
H235 H 0.86799 0.08938 0.06031 0.0
H236 H 0.90756 0.12278 0.08602 0.0
H237 H 0.02226 0.33044 0.13859 0.0
H238 H 0.03931 0.29215 0.1211 0.0
H239 H 0.932 0.1916 0.12799 0.0
H240 H 0.91511 0.22922 0.1458 0.0
H241 H 0.95088 0.19637 0.09541 0.0
H242 H 0.00849 0.20707 0.1499 0.0
H243 H 0.04888 0.24159 0.17527 0.0
H244 H 0.14564 0.29786 0.14641 0.0
H245 H 0.10567 0.26405 0.12082 0.0
C246 C 0.00546 0.07871 0.0732 0.0
C247 C 0.04117 0.09255 0.06695 0.0
C248 C 0.99735 0.10324 0.08215 0.0
C249 C 0.02465 0.14215 0.08492 0.0
C250 C 0.06057 0.15589 0.079 0.0
C251 C 0.06875 0.13137 0.07008 0.0
C252 C 0.01572 0.16844 0.09404 0.0
C253 C 0.03867 0.18998 0.10823 0.0
C254 C 0.9839 0.17112 0.08925 0.0
C255 C 0.95999 0.15108 0.07379 0.0
C256 C 0.97623 0.15608 0.05842 0.0
C257 C 0.95359 0.13689 0.04392 0.0
C258 C 0.91462 0.11283 0.04461 0.0
C259 C 0.89819 0.10799 0.0598 0.0
C260 C 0.92071 0.12706 0.07433 0.0
C261 C 0.00233 0.30016 0.13646 0.0
C262 C 0.96729 0.28299 0.14365 0.0
C263 C 0.01207 0.27835 0.1264 0.0
C264 C 0.98699 0.23899 0.12334 0.0
C265 C 0.95169 0.22196 0.13014 0.0
C266 C 0.94202 0.24364 0.14025 0.0
C267 C 0.99774 0.2152 0.11343 0.0
C268 C 0.97514 0.19416 0.09911 0.0
C269 C 0.02994 0.2131 0.11805 0.0
C270 C 0.05402 0.23336 0.13343 0.0
C271 C 0.03832 0.22706 0.14895 0.0
C272 C 0.06114 0.24645 0.16337 0.0
C273 C 0.09978 0.27199 0.16245 0.0
C274 C 0.11569 0.27812 0.1471 0.0
C275 C 0.09297 0.25884 0.13263 0.0
H276 H 0.11741 0.28696 0.17363 0.0
H277 H 0.89713 0.09803 0.03338 0.0
H278 H 0.96306 0.98564 0.41889 0.0
H279 H 0.91558 0.98599 0.43604 0.0
H280 H 0.89884 0.05416 0.40144 0.0
H281 H 0.94613 0.05416 0.38435 0.0
H282 H 0.90907 0.08342 0.43305 0.0
H283 H 0.8332 0.96101 0.40323 0.0
H284 H 0.81685 0.89642 0.39316 0.0
H285 H 0.81353 0.86509 0.44337 0.0
H286 H 0.83039 0.9297 0.45375 0.0
H287 H 0.75141 0.07858 0.46575 0.0
H288 H 0.79053 0.06855 0.44665 0.0
H289 H 0.80223 0.99647 0.48076 0.0
H290 H 0.76292 0.00613 0.49982 0.0
H291 H 0.79417 0.9681 0.44948 0.0
H292 H 0.87126 0.08969 0.47947 0.0
H293 H 0.88844 0.15423 0.49006 0.0
H294 H 0.89112 0.18721 0.44017 0.0
H295 H 0.87341 0.12265 0.42928 0.0
C296 C 0.94906 0.00046 0.41488 0.0
C297 C 0.9585 0.01995 0.40027 0.0
C298 C 0.92184 0.00052 0.42466 0.0
C299 C 0.90357 0.02 0.41998 0.0
C300 C 0.91262 0.03901 0.4053 0.0
C301 C 0.93965 0.03888 0.39552 0.0
C302 C 0.8762 0.0221 0.43067 0.0
C303 C 0.88367 0.0582 0.43645 0.0
C304 C 0.84363 0.98919 0.43548 0.0
C305 C 0.83345 0.95032 0.42927 0.0
C306 C 0.82931 0.94045 0.41213 0.0
C307 C 0.81988 0.90381 0.40637 0.0
C308 C 0.81426 0.8767 0.41762 0.0
C309 C 0.81795 0.88614 0.43467 0.0
C310 C 0.82741 0.92275 0.4405 0.0
C311 C 0.76214 0.06042 0.46912 0.0
C312 C 0.75425 0.04333 0.48433 0.0
C313 C 0.78449 0.0547 0.45821 0.0
C314 C 0.79985 0.03226 0.46241 0.0
C315 C 0.79071 0.01389 0.47726 0.0
C316 C 0.76815 0.01938 0.48813 0.0
C317 C 0.82689 0.02945 0.45173 0.0
C318 C 0.81951 0.99329 0.44603 0.0
C319 C 0.85975 0.06232 0.44705 0.0
C320 C 0.87065 0.10124 0.45357 0.0
C321 C 0.87525 0.11063 0.47076 0.0
C322 C 0.88511 0.14722 0.47681 0.0
C323 C 0.89077 0.17477 0.46579 0.0
C324 C 0.88668 0.16581 0.44869 0.0
C325 C 0.87675 0.12924 0.44257 0.0
H326 H 0.89841 0.20309 0.4705 0.0
H327 H 0.80695 0.84834 0.41314 0.0
H328 H 0.97753 0.87168 0.75192 0.0
H329 H 0.91712 0.83079 0.76336 0.0
H330 H 0.86019 0.85344 0.72365 0.0
H331 H 0.92113 0.89589 0.71244 0.0
H332 H 0.83504 0.86082 0.75106 0.0
H333 H 0.85031 0.76289 0.72718 0.0
H334 H 0.88242 0.72807 0.71999 0.0
H335 H 0.89597 0.71313 0.77152 0.0
H336 H 0.86442 0.74833 0.77906 0.0
H337 H 0.66495 0.73291 0.79003 0.0
H338 H 0.71044 0.75483 0.76853 0.0
H339 H 0.79858 0.77338 0.80467 0.0
H340 H 0.75427 0.75348 0.8263 0.0
H341 H 0.7977 0.73626 0.77342 0.0
H342 H 0.79226 0.8458 0.79611 0.0
H343 H 0.75857 0.87946 0.80251 0.0
H344 H 0.72344 0.86901 0.75094 0.0
H345 H 0.75653 0.8348 0.74428 0.0
C346 C 0.95215 0.8676 0.74545 0.0
C347 C 0.95417 0.88713 0.73128 0.0
C348 C 0.91747 0.84389 0.75196 0.0
C349 C 0.88387 0.83842 0.74424 0.0
C350 C 0.88568 0.85709 0.72981 0.0
C351 C 0.92052 0.88131 0.7234 0.0
C352 C 0.84758 0.81592 0.75216 0.0
C353 C 0.8264 0.8331 0.75553 0.0
C354 C 0.83618 0.77978 0.75813 0.0
C355 C 0.85512 0.75844 0.75369 0.0
C356 C 0.86034 0.7524 0.737 0.0
C357 C 0.87842 0.73256 0.73286 0.0
C358 C 0.89127 0.71844 0.74529 0.0
C359 C 0.88599 0.72407 0.7619 0.0
C360 C 0.86794 0.74391 0.76611 0.0
C361 C 0.69402 0.74176 0.79344 0.0
C362 C 0.70579 0.74134 0.80997 0.0
C363 C 0.71986 0.75395 0.78109 0.0
C364 C 0.75776 0.76557 0.78505 0.0
C365 C 0.76932 0.76408 0.80136 0.0
C366 C 0.74377 0.75246 0.81371 0.0
C367 C 0.78634 0.78182 0.77261 0.0
C368 C 0.80598 0.76347 0.76847 0.0
C369 C 0.79603 0.81657 0.76573 0.0
C370 C 0.77643 0.83735 0.76973 0.0
C371 C 0.77707 0.85041 0.78616 0.0
C372 C 0.75815 0.86963 0.78983 0.0
C373 C 0.73877 0.87626 0.77715 0.0
C374 C 0.73838 0.86378 0.76076 0.0
C375 C 0.75722 0.84449 0.75703 0.0
H376 H 0.72413 0.89116 0.78001 0.0
H377 H 0.90527 0.70309 0.74206 0.0
H378 H 0.09739 0.99075 0.08004 0.0
H379 H 0.08486 0.94286 0.10006 0.0
H380 H 0.09323 0.87145 0.06194 0.0
H381 H 0.10629 0.919 0.04199 0.0
H382 H 0.02421 0.83681 0.07877 0.0
H383 H 0.15967 0.90963 0.09035 0.0
H384 H 0.22079 0.96807 0.09833 0.0
H385 H 0.18022 0.97895 0.14513 0.0
H386 H 0.11862 0.92083 0.13732 0.0
H387 H 0.99849 0.6834 0.12315 0.0
H388 H 0.02642 0.73759 0.10576 0.0
H389 H 0.04406 0.81351 0.14826 0.0
H390 H 0.01759 0.75948 0.16578 0.0
H391 H 0.10064 0.84799 0.12983 0.0
H392 H 0.96662 0.77951 0.11947 0.0
H393 H 0.90315 0.72344 0.11247 0.0
H394 H 0.93696 0.70775 0.06466 0.0
H395 H 0.00083 0.76343 0.07147 0.0
C396 C 0.09722 0.96515 0.076 0.0
C397 C 0.10263 0.95863 0.05938 0.0
C398 C 0.09013 0.93789 0.08745 0.0
C399 C 0.08805 0.90367 0.08242 0.0
C400 C 0.0947 0.8977 0.06603 0.0
C401 C 0.10224 0.92501 0.05466 0.0
C402 C 0.07589 0.87262 0.09376 0.0
C403 C 0.04112 0.83899 0.08983 0.0
C404 C 0.09737 0.87622 0.10847 0.0
C405 C 0.13439 0.91112 0.11317 0.0
C406 C 0.16364 0.92469 0.10228 0.0
C407 C 0.19841 0.95771 0.10679 0.0
C408 C 0.20435 0.97727 0.12221 0.0
C409 C 0.17556 0.9638 0.13318 0.0
C410 C 0.14073 0.9308 0.12872 0.0
C411 C 0.00874 0.71175 0.12876 0.0
C412 C 0.00574 0.71734 0.14574 0.0
C413 C 0.02453 0.74267 0.11884 0.0
C414 C 0.03654 0.77958 0.12561 0.0
C415 C 0.03492 0.78535 0.14273 0.0
C416 C 0.01979 0.7545 0.15272 0.0
C417 C 0.04906 0.81172 0.11472 0.0
C418 C 0.0837 0.84566 0.11877 0.0
C419 C 0.02707 0.80881 0.10024 0.0
C420 C 0.98861 0.77542 0.09605 0.0
C421 C 0.96059 0.76395 0.10751 0.0
C422 C 0.92454 0.73225 0.10357 0.0
C423 C 0.91606 0.71199 0.08814 0.0
C424 C 0.94359 0.72344 0.07661 0.0
C425 C 0.97972 0.75508 0.0805 0.0
H426 H 0.88813 0.68746 0.08511 0.0
H427 H 0.23128 0.00283 0.12568 0.0
H428 H 0.19529 0.10863 0.37393 0.0
H429 H 0.23927 0.10798 0.39466 0.0
H430 H 0.1477 0.04478 0.4259 0.0
H431 H 0.10344 0.04611 0.40531 0.0
H432 H 0.20903 0.09699 0.44413 0.0
H433 H 0.18226 -0.0 0.40188 0.0
H434 H 0.17585 0.97264 0.37337 0.0
H435 H 0.29402 0.04968 0.36825 0.0
H436 H 0.30104 0.07789 0.39666 0.0
H437 H 0.30801 0.03359 0.49441 0.0
H438 H 0.26204 0.03289 0.47422 0.0
H439 H 0.35251 0.10828 0.44481 0.0
H440 H 0.39873 0.10893 0.46496 0.0
H441 H 0.29028 0.04765 0.426 0.0
H442 H 0.31549 0.14468 0.46879 0.0
H443 H 0.32053 0.16976 0.49761 0.0
H444 H 0.20291 0.08896 0.50202 0.0
H445 H 0.19731 0.063 0.47328 0.0
C446 C 0.18447 0.0948 0.38526 0.0
C447 C 0.14577 0.07711 0.3879 0.0
C448 C 0.20966 0.0943 0.39707 0.0
C449 C 0.19667 0.07557 0.41167 0.0
C450 C 0.15831 0.05918 0.41467 0.0
C451 C 0.13306 0.05997 0.4029 0.0
C452 C 0.2231 0.07255 0.42357 0.0
C453 C 0.22637 0.08568 0.44021 0.0
C454 C 0.24616 0.05827 0.41842 0.0
C455 C 0.2421 0.04129 0.40135 0.0
C456 C 0.20683 0.0113 0.39463 0.0
C457 C 0.20309 0.99561 0.37849 0.0
C458 C 0.23449 0.00948 0.36899 0.0
C459 C 0.26972 0.039 0.37562 0.0
C460 C 0.2736 0.05483 0.39175 0.0
C461 C 0.31807 0.04952 0.48351 0.0
C462 C 0.35696 0.0713 0.48124 0.0
C463 C 0.29181 0.04935 0.47207 0.0
C464 C 0.30394 0.07084 0.45813 0.0
C465 C 0.34263 0.09161 0.45553 0.0
C466 C 0.36896 0.09208 0.46705 0.0
C467 C 0.27632 0.07233 0.44646 0.0
C468 C 0.27282 0.05885 0.42989 0.0
C469 C 0.25281 0.08592 0.4517 0.0
C470 C 0.25608 0.10163 0.46895 0.0
C471 C 0.29078 0.13204 0.47595 0.0
C472 C 0.29372 0.14646 0.49226 0.0
C473 C 0.26209 0.1309 0.50166 0.0
C474 C 0.22741 0.10095 0.49474 0.0
C475 C 0.22433 0.08638 0.47844 0.0
H476 H 0.26442 0.1421 0.51428 0.0
H477 H 0.23154 0.99729 0.3565 0.0
H478 H 0.10743 0.10598 0.72235 0.0
H479 H 0.15194 0.16922 0.73582 0.0
H480 H 0.17404 0.11696 0.7765 0.0
H481 H 0.13064 0.05408 0.763 0.0
H482 H 0.1596 0.208 0.76458 0.0
H483 H 0.26526 0.1637 0.78843 0.0
H484 H 0.28533 0.1186 0.78003 0.0
H485 H 0.2505 0.11805 0.72927 0.0
H486 H 0.23074 0.16355 0.73732 0.0
H487 H 0.28422 0.33235 0.83081 0.0
H488 H 0.23763 0.28176 0.81104 0.0
H489 H 0.32544 0.30391 0.77809 0.0
H490 H 0.37233 0.35363 0.79821 0.0
H491 H 0.28772 0.23338 0.78107 0.0
H492 H 0.25218 0.32291 0.76873 0.0
H493 H 0.23443 0.37112 0.77407 0.0
H494 H 0.13448 0.28852 0.7962 0.0
H495 H 0.15187 0.23991 0.79121 0.0
C496 C 0.1215 0.10802 0.73425 0.0
C497 C 0.11593 0.07505 0.7415 0.0
C498 C 0.14688 0.14416 0.74193 0.0
C499 C 0.16693 0.14782 0.75699 0.0
C500 C 0.1596 0.11485 0.76469 0.0
C501 C 0.13466 0.07889 0.75697 0.0
C502 C 0.19679 0.1858 0.7644 0.0
C503 C 0.18769 0.21372 0.76815 0.0
C504 C 0.23384 0.19375 0.76851 0.0
C505 C 0.24625 0.16683 0.76352 0.0
C506 C 0.26208 0.15412 0.77547 0.0
C507 C 0.27336 0.12845 0.77077 0.0
C508 C 0.2691 0.1154 0.75413 0.0
C509 C 0.25367 0.12809 0.74215 0.0
C510 C 0.2424 0.15379 0.74678 0.0
C511 C 0.29339 0.32691 0.81918 0.0
C512 C 0.33183 0.34679 0.81602 0.0
C513 C 0.26672 0.29807 0.80784 0.0
C514 C 0.27785 0.28911 0.79295 0.0
C515 C 0.31611 0.31015 0.78949 0.0
C516 C 0.34287 0.33855 0.80096 0.0
C517 C 0.25033 0.25545 0.78185 0.0
C518 C 0.25986 0.22813 0.77738 0.0
C519 C 0.21415 0.2487 0.77666 0.0
C520 C 0.20349 0.27782 0.77969 0.0
C521 C 0.22655 0.31508 0.77485 0.0
C522 C 0.21653 0.34248 0.77779 0.0
C523 C 0.18338 0.33291 0.78549 0.0
C524 C 0.16015 0.29589 0.79024 0.0
C525 C 0.17005 0.26839 0.78733 0.0
H526 H 0.17567 0.35416 0.78776 0.0
H527 H 0.27781 0.09549 0.75053 0.0
H528 H 0.92526 0.92666 0.65629 0.0
H529 H 0.88235 0.93936 0.64012 0.0
H530 H 0.93744 0.05335 0.66338 0.0
H531 H 0.98039 0.04077 0.67977 0.0
H532 H 0.86054 0.01883 0.66218 0.0
H533 H 0.95473 0.03854 0.62426 0.0
H534 H 0.99465 0.02153 0.60861 0.0
H535 H 0.89563 0.92487 0.58429 0.0
H536 H 0.85509 0.94101 0.59998 0.0
H537 H 0.78922 0.09897 0.60543 0.0
H538 H 0.82724 0.08314 0.62346 0.0
H539 H 0.77466 0.97128 0.59817 0.0
H540 H 0.7375 0.98738 0.57972 0.0
H541 H 0.84929 0.00358 0.60068 0.0
H542 H 0.75483 0.98422 0.63793 0.0
H543 H 0.7145 0.00059 0.65361 0.0
H544 H 0.81293 0.09553 0.67918 0.0
H545 H 0.8539 0.08005 0.66348 0.0
C546 C 0.9284 0.95451 0.65795 0.0
C547 C 0.95638 0.98276 0.66928 0.0
C548 C 0.90386 0.96173 0.64866 0.0
C549 C 0.9069 0.9974 0.65044 0.0
C550 C 0.93463 0.02562 0.66181 0.0
C551 C 0.95926 0.01844 0.6711 0.0
C552 C 0.88103 0.00516 0.64046 0.0
C553 C 0.8584 0.016 0.64872 0.0
C554 C 0.87755 0.00045 0.62292 0.0
C555 C 0.90188 0.99078 0.61342 0.0
C556 C 0.94146 0.01349 0.61568 0.0
C557 C 0.9642 0.00403 0.60678 0.0
C558 C 0.94769 0.97208 0.5955 0.0
C559 C 0.90839 0.94958 0.59305 0.0
C560 C 0.88552 0.95888 0.60193 0.0
C561 C 0.78561 0.07093 0.60376 0.0
C562 C 0.76038 0.04448 0.5911 0.0
C563 C 0.80713 0.06179 0.61417 0.0
C564 C 0.80367 0.02593 0.61223 0.0
C565 C 0.77777 -0.00089 0.59991 0.0
C566 C 0.75626 0.00823 0.58947 0.0
C567 C 0.82867 0.01726 0.62238 0.0
C568 C 0.85126 0.00631 0.61413 0.0
C569 C 0.83201 0.02178 0.63993 0.0
C570 C 0.80745 0.03118 0.6494 0.0
C571 C 0.7679 0.00879 0.64679 0.0
C572 C 0.74492 0.01787 0.65571 0.0
C573 C 0.76114 0.04914 0.66736 0.0
C574 C 0.8004 0.07134 0.67014 0.0
C575 C 0.82351 0.0624 0.66125 0.0
H576 H 0.7433 0.05611 0.67425 0.0
H577 H 0.96534 0.9648 0.58862 0.0
H578 H 0.01882 0.97768 0.97298 0.0
H579 H 0.95624 0.94596 0.95853 0.0
H580 H 0.90758 0.94994 0.00435 0.0
H581 H 0.97066 0.98353 0.0187 0.0
H582 H 0.89991 0.88065 0.96158 0.0
H583 H 0.82355 0.94463 0.99655 0.0
H584 H 0.83858 0.00492 0.01156 0.0
H585 H 0.93458 0.0668 0.98281 0.0
H586 H 0.91989 0.00697 0.96751 0.0
H587 H 0.70979 0.76633 0.93435 0.0
H588 H 0.76345 0.804 0.95454 0.0
H589 H 0.7892 0.90618 0.9308 0.0
H590 H 0.73476 0.86893 0.91098 0.0
H591 H 0.80612 0.92164 0.96372 0.0
H592 H 0.83047 0.8573 0.91934 0.0
H593 H 0.81924 0.80195 0.90135 0.0
H594 H 0.83464 0.75032 0.94373 0.0
H595 H 0.8454 0.80517 0.96201 0.0
C596 C 0.99483 0.97224 0.97993 0.0
C597 C 0.99957 0.98305 0.99695 0.0
C598 C 0.95902 0.95397 0.97167 0.0
C599 C 0.92705 0.9455 0.9803 0.0
C600 C 0.93179 0.95671 0.99732 0.0
C601 C 0.96783 0.9758 0.00552 0.0
C602 C 0.88885 0.92333 0.97153 0.0
C603 C 0.87947 0.8897 0.96214 0.0
C604 C 0.86206 0.93505 0.97209 0.0
C605 C 0.87082 0.97127 0.98102 0.0
C606 C 0.84778 0.97113 0.9934 0.0
C607 C 0.85626 0.00521 0.00196 0.0
C608 C 0.88758 0.03965 0.99818 0.0
C609 C 0.91041 0.0401 0.98577 0.0
C610 C 0.90205 0.0061 0.97717 0.0
C611 C 0.72615 0.79695 0.93373 0.0
C612 C 0.7184 0.81456 0.92088 0.0
C613 C 0.75698 0.81842 0.94522 0.0
C614 C 0.78077 0.85778 0.94396 0.0
C615 C 0.77137 0.87582 0.93195 0.0
C616 C 0.74048 0.85442 0.92052 0.0
C617 C 0.8176 0.87935 0.95379 0.0
C618 C 0.82659 0.91262 0.96338 0.0
C619 C 0.84465 0.86807 0.95301 0.0
C620 C 0.83828 0.8351 0.94206 0.0
C621 C 0.83115 0.834 0.92484 0.0
C622 C 0.82491 0.80274 0.91459 0.0
C623 C 0.82611 0.77258 0.9214 0.0
C624 C 0.83363 0.77366 0.93847 0.0
C625 C 0.8398 0.80482 0.94879 0.0
H626 H 0.8213 0.74841 0.91344 0.0
H627 H 0.89412 0.066 0.00482 0.0
H628 H 0.01743 0.98377 0.3002 0.0
H629 H 0.99031 0.92237 0.28442 0.0
H630 H 0.97664 0.86698 0.33015 0.0
H631 H 0.00118 0.92827 0.34594 0.0
H632 H 0.01659 0.88132 0.28072 0.0
H633 H 0.91381 0.7726 0.32526 0.0
H634 H 0.86913 0.76822 0.34569 0.0
H635 H 0.85589 0.85248 0.32164 0.0
H636 H 0.90009 0.85702 0.30095 0.0
H637 H 0.98781 0.70776 0.25131 0.0
H638 H 0.9994 0.75913 0.27118 0.0
H639 H 0.88412 0.73121 0.26251 0.0
H640 H 0.87102 0.67707 0.24382 0.0
H641 H 0.90532 0.75771 0.29271 0.0
H642 H 0.95832 0.80072 0.24104 0.0
H643 H 0.99632 0.80677 0.21729 0.0
H644 H 0.097 0.85818 0.2499 0.0
H645 H 0.0595 0.85194 0.27388 0.0
C646 C 0.00783 0.95828 0.30684 0.0
C647 C 0.01124 0.96055 0.32423 0.0
C648 C 0.9925 0.9232 0.29784 0.0
C649 C 0.98131 0.88976 0.30601 0.0
C650 C 0.98415 0.89202 0.32348 0.0
C651 C 0.99838 0.92706 0.33252 0.0
C652 C 0.96964 0.85344 0.29617 0.0
C653 C 0.9921 0.85442 0.28336 0.0
C654 C 0.93743 0.81816 0.29934 0.0
C655 C 0.91058 0.81542 0.31166 0.0
C656 C 0.90126 0.7901 0.3243 0.0
C657 C 0.87604 0.7876 0.33593 0.0
C658 C 0.85979 0.81015 0.335 0.0
C659 C 0.86862 0.83515 0.32239 0.0
C660 C 0.8938 0.83773 0.31072 0.0
C661 C 0.96436 0.71141 0.25398 0.0
C662 C 0.92852 0.68833 0.24558 0.0
C663 C 0.9713 0.74139 0.26522 0.0
C664 C 0.94304 0.74996 0.26791 0.0
C665 C 0.9066 0.72556 0.26047 0.0
C666 C 0.89932 0.69487 0.24955 0.0
C667 C 0.95233 0.78592 0.27739 0.0
C668 C 0.92964 0.78478 0.29012 0.0
C669 C 0.98332 0.82148 0.27367 0.0
C670 C 0.00605 0.82553 0.25927 0.0
C671 C 0.98853 0.81311 0.24315 0.0
C672 C 0.00998 0.81658 0.22965 0.0
C673 C 0.04904 0.83276 0.23209 0.0
C674 C 0.06674 0.8456 0.24803 0.0
C675 C 0.04541 0.84212 0.26158 0.0
H676 H 0.06559 0.83543 0.22162 0.0
H677 H 0.84029 0.8082 0.34402 0.0
H678 H 0.09605 0.99069 0.66014 0.0
H679 H 0.14039 0.99844 0.63936 0.0
H680 H 0.17788 0.93601 0.66802 0.0
H681 H 0.13419 0.92881 0.68902 0.0
H682 H 0.23611 0.0008 0.6604 0.0
H683 H 0.12644 0.89898 0.63014 0.0
H684 H 0.06123 0.86495 0.61748 0.0
H685 H 0.08937 0.95649 0.58602 0.0
H686 H 0.15466 0.99133 0.59864 0.0
H687 H 0.35851 0.00234 0.60044 0.0
H688 H 0.30634 0.98003 0.61874 0.0
H689 H 0.26703 0.04594 0.59415 0.0
H690 H 0.31847 0.0676 0.57561 0.0
H691 H 0.20883 0.97506 0.59945 0.0
H692 H 0.31643 0.07843 0.63103 0.0
H693 H 0.38156 0.11333 0.64381 0.0
H694 H 0.35664 0.01888 0.67293 0.0
H695 H 0.29147 0.98319 0.66014 0.0
C696 C 0.1132 0.97797 0.66188 0.0
C697 C 0.11174 0.95935 0.67631 0.0
C698 C 0.1385 0.98233 0.64995 0.0
C699 C 0.16245 0.96773 0.6521 0.0
C700 C 0.15979 0.94764 0.66613 0.0
C701 C 0.13469 0.94346 0.6781 0.0
C702 C 0.1924 0.97616 0.64051 0.0
C703 C 0.23001 0.99444 0.6471 0.0
C704 C 0.18461 0.96885 0.62311 0.0
C705 C 0.14538 0.94791 0.61545 0.0
C706 C 0.11866 0.912 0.62061 0.0
C707 C 0.08169 0.89253 0.61342 0.0
C708 C 0.07114 0.90858 0.60098 0.0
C709 C 0.09757 0.9441 0.59567 0.0
C710 C 0.13458 0.96369 0.60282 0.0
C711 C 0.3386 0.01186 0.59888 0.0
C712 C 0.34281 0.037 0.58668 0.0
C713 C 0.30894 -0.00074 0.60938 0.0
C714 C 0.28299 0.01159 0.60788 0.0
C715 C 0.28676 0.03613 0.59554 0.0
C716 C 0.31642 0.04881 0.58508 0.0
C717 C 0.25234 -0.00037 0.61939 0.0
C718 C 0.21473 0.98092 0.61278 0.0
C719 C 0.26006 0.00656 0.63678 0.0
C720 C 0.29922 0.02798 0.64449 0.0
C721 C 0.32494 0.06498 0.64005 0.0
C722 C 0.36184 0.08493 0.64731 0.0
C723 C 0.37327 0.06829 0.65913 0.0
C724 C 0.34778 0.0317 0.66375 0.0
C725 C 0.31085 0.01161 0.6565 0.0
H726 H 0.40184 0.08379 0.66475 0.0
H727 H 0.0425 0.89347 0.59543 0.0
H728 H 0.21005 0.0991 0.99007 0.0
H729 H 0.25642 0.15862 0.9792 0.0
H730 H 0.23402 0.22159 0.01644 0.0
H731 H 0.18639 0.16169 0.02714 0.0
H732 H 0.23315 0.24725 0.98817 0.0
H733 H 0.32065 0.22541 0.01683 0.0
H734 H 0.34995 0.18981 0.02671 0.0
H735 H 0.37217 0.17176 0.97676 0.0
H736 H 0.34251 0.20677 0.96654 0.0
H737 H 0.42068 0.38853 0.94584 0.0
H738 H 0.38956 0.34792 0.96853 0.0
H739 H 0.28388 0.29158 0.93872 0.0
H740 H 0.31454 0.33239 0.9163 0.0
H741 H 0.35801 0.27537 0.97047 0.0
H742 H 0.2099 0.26043 0.96094 0.0
H743 H 0.18394 0.30062 0.95352 0.0
H744 H 0.28911 0.40108 0.97032 0.0
H745 H 0.31556 0.3615 0.97808 0.0
C746 C 0.21528 0.12556 0.99615 0.0
C747 C 0.19433 0.12557 0.00945 0.0
C748 C 0.24212 0.15971 0.98997 0.0
C749 C 0.24914 0.19473 0.9971 0.0
C750 C 0.22915 0.19494 0.01074 0.0
C751 C 0.20198 0.16067 0.01686 0.0
C752 C 0.27476 0.23052 0.98926 0.0
C753 C 0.26064 0.25364 0.98447 0.0
C754 C 0.31118 0.2397 0.98486 0.0
C755 C 0.32917 0.21862 0.99091 0.0
C756 C 0.33156 0.21364 0.00793 0.0
C757 C 0.34827 0.19359 0.0136 0.0
C758 C 0.36288 0.1785 0.00237 0.0
C759 C 0.36086 0.18348 0.98545 0.0
C760 C 0.34416 0.2035 0.97972 0.0
C761 C 0.39073 0.36765 0.94424 0.0
C762 C 0.36994 0.36382 0.92937 0.0
C763 C 0.373 0.34452 0.95719 0.0
C764 C 0.33422 0.31709 0.95546 0.0
C765 C 0.31356 0.31324 0.94058 0.0
C766 C 0.33113 0.33655 0.92774 0.0
C767 C 0.31548 0.29077 0.96869 0.0
C768 C 0.33088 0.26946 0.97448 0.0
C769 C 0.28073 0.28396 0.97442 0.0
C770 C 0.26478 0.30795 0.97001 0.0
C771 C 0.22742 0.29108 0.96316 0.0
C772 C 0.21264 0.31376 0.95887 0.0
C773 C 0.23488 0.35338 0.96142 0.0
C774 C 0.27194 0.3704 0.96831 0.0
C775 C 0.28686 0.34785 0.97264 0.0
H776 H 0.22339 0.37089 0.95807 0.0
H777 H 0.37581 0.16298 0.00678 0.0
H778 H 0.10097 0.18047 0.32129 0.0
H779 H 0.08136 0.22193 0.30949 0.0
H780 H 0.97944 0.16752 0.33563 0.0
H781 H 0.99876 0.12564 0.34747 0.0
H782 H 0.96494 0.16925 0.3029 0.0
H783 H 0.04609 0.25896 0.34653 0.0
H784 H 0.10456 0.29662 0.36458 0.0
H785 H 0.16552 0.35122 0.32246 0.0
H786 H 0.10754 0.31349 0.30411 0.0
H787 H 0.91022 0.28844 0.26534 0.0
H788 H 0.92762 0.26046 0.28763 0.0
H789 H 0.03752 0.30397 0.26863 0.0
H790 H 0.02042 0.33198 0.24644 0.0
H791 H 0.04293 0.30987 0.30201 0.0
H792 H 0.96569 0.2129 0.25829 0.0
H793 H 0.90842 0.17442 0.23959 0.0
H794 H 0.84147 0.13278 0.28159 0.0
H795 H 0.89832 0.17146 0.30055 0.0
C796 C 0.07464 0.17764 0.32474 0.0
C797 C 0.05133 0.14957 0.33525 0.0
C798 C 0.06357 0.20155 0.31806 0.0
C799 C 0.02904 0.19797 0.32177 0.0
C800 C 0.00624 0.1708 0.33265 0.0
C801 C 0.01738 0.14696 0.33942 0.0
C802 C 0.0154 0.22017 0.31302 0.0
C803 C 0.98153 0.20009 0.30303 0.0
C804 C 0.03747 0.26032 0.31292 0.0
C805 C 0.07246 0.28318 0.32392 0.0
C806 C 0.07202 0.27878 0.34109 0.0
C807 C 0.10507 0.30019 0.35138 0.0
C808 C 0.13874 0.32625 0.34467 0.0
C809 C 0.13942 0.33102 0.32765 0.0
C810 C 0.10644 0.30966 0.31729 0.0
C811 C 0.93817 0.29225 0.26601 0.0
C812 C 0.96386 0.31222 0.25408 0.0
C813 C 0.94811 0.27635 0.27876 0.0
C814 C 0.98372 0.27975 0.27966 0.0
C815 C 0.00995 0.30111 0.26821 0.0
C816 C 0.00013 0.31716 0.25554 0.0
C817 C 0.99292 0.25883 0.29168 0.0
C818 C 0.02597 0.27912 0.3022 0.0
C819 C 0.97026 0.2188 0.29221 0.0
C820 C 0.93613 0.19541 0.28083 0.0
C821 C 0.9387 0.19576 0.26353 0.0
C822 C 0.90633 0.17389 0.25289 0.0
C823 C 0.87131 0.15127 0.2594 0.0
C824 C 0.8686 0.15039 0.27657 0.0
C825 C 0.90088 0.17227 0.28727 0.0
H826 H 0.84628 0.13435 0.25113 0.0
H827 H 0.1643 0.3428 0.35266 0.0
loop_
_geom_bond_atom_site_label_1
_geom_bond_atom_site_label_2
_geom_bond_distance
_geom_bond_site_symmetry_2
_ccdc_geom_bond_type
Zn0 O3 2.031 1_545 S
Zn0 O5 2.049 . S
Zn0 O10 2.068 . S
Zn1 O2 1.962 . S
Zn1 O4 1.986 . S
Zn1 O6 1.996 . S
Zn1 O9 1.943 . S
O2 Zn1 1.962 . S
O2 C7 1.286 . S
O3 Zn0 2.031 1_565 S
O3 C7 1.260 1_565 S
O4 Zn1 1.986 . S
O4 C11 1.262 . S
O5 Zn0 2.049 . S
O5 C13 1.260 . S
O6 Zn1 1.996 . S
O6 C13 1.257 . S
C7 O2 1.286 . S
C7 O3 1.260 1_545 S
C8 O9 1.249 . S
C8 O10 1.269 . S
O9 Zn1 1.943 . S
O9 C8 1.249 . S
O10 Zn0 2.068 . S
O10 C8 1.269 . S
C11 O4 1.262 . S
C11 O12 1.232 . S
O12 C11 1.232 . S
C13 O5 1.260 . S
C13 O6 1.257 . S
Zn14 O17 2.031 . S
Zn14 O19 2.049 . S
Zn14 O24 2.067 . S
Zn15 O16 1.962 . S
Zn15 O18 1.986 1_455 S
Zn15 O20 1.996 . S
Zn15 O23 1.943 1_455 S
O16 Zn15 1.962 . S
O16 C21 1.254 . S
O17 Zn14 2.031 . S
O17 C21 1.269 . S
O18 Zn15 1.986 1_655 S
O18 C25 1.262 . S
O19 Zn14 2.049 . S
O19 C27 1.260 . S
O20 Zn15 1.996 . S
O20 C27 1.257 . S
C21 O16 1.254 . S
C21 O17 1.269 . S
C22 O23 1.249 1_455 S
C22 O24 1.270 . S
O23 Zn15 1.943 1_655 S
O23 C22 1.249 1_655 S
O24 Zn14 2.067 . S
O24 C22 1.270 . S
C25 O18 1.262 . S
C25 O26 1.232 . S
O26 C25 1.232 . S
C27 O19 1.260 . S
C27 O20 1.257 . S
Zn28 O31 2.031 1_565 S
Zn28 O33 2.049 . S
Zn28 O38 2.067 1_565 S
Zn29 O30 1.962 1_545 S
Zn29 O32 1.997 1_445 S
Zn29 O34 1.996 1_445 S
Zn29 O37 1.943 . S
O30 Zn29 1.962 1_565 S
O30 C35 1.244 . S
O31 Zn28 2.031 1_545 S
O31 C35 1.270 1_545 S
O32 Zn29 1.997 1_665 S
O32 C39 1.243 1_565 S
O33 Zn28 2.049 . S
O33 C41 1.260 1_455 S
O34 Zn29 1.996 1_665 S
O34 C41 1.257 . S
C35 O30 1.244 . S
C35 O31 1.270 1_565 S
C36 O37 1.249 . S
C36 O38 1.270 . S
O37 Zn29 1.943 . S
O37 C36 1.249 . S
O38 Zn28 2.067 1_545 S
O38 C36 1.270 . S
C39 O32 1.243 1_545 S
C39 O40 1.232 . S
O40 C39 1.232 . S
C41 O33 1.260 1_655 S
C41 O34 1.257 . S
H42 C69 0.929 1_655 S
N43 C68 1.433 . S
N43 C74 1.435 . S
N43 C80 1.423 . S
H44 C70 0.930 1_655 S
H45 C73 0.931 . S
H46 C72 0.929 . S
H47 C75 0.930 . S
H48 C76 0.932 . S
H49 C79 0.929 1_655 S
H50 C78 0.931 1_655 S
H51 C81 0.929 . S
H52 C85 0.932 . S
H53 C82 0.931 . S
H54 C84 0.929 . S
H55 C87 0.929 1_655 S
H56 C88 0.930 1_655 S
H57 C90 0.929 . S
H58 C91 0.931 . S
H59 C93 0.930 . S
H60 C94 0.932 . S
H61 C96 0.931 1_655 S
H62 C97 0.929 1_655 S
H63 C99 0.929 . S
H64 C100 0.931 . S
H65 C102 0.929 . S
N66 C86 1.433 . S
N66 C92 1.435 . S
N66 C98 1.423 . S
H67 C103 0.932 . S
C68 N43 1.433 . S
C68 C69 1.363 . S
C68 C73 1.370 . S
C69 H42 0.929 1_455 S
C69 C68 1.363 . S
C69 C70 1.385 . S
C70 H44 0.930 1_455 S
C70 C69 1.385 . S
C70 C71 1.357 . S
C71 C70 1.357 . S
C71 C72 1.406 . S
C72 H46 0.929 . S
C72 C71 1.406 . S
C72 C73 1.391 . S
C73 H45 0.931 . S
C73 C68 1.370 . S
C73 C72 1.391 . S
C74 N43 1.435 . S
C74 C75 1.358 . S
C74 C79 1.371 . S
C75 H47 0.930 . S
C75 C74 1.358 . S
C75 C76 1.405 . S
C76 H48 0.932 . S
C76 C75 1.405 . S
C76 C77 1.383 . S
C77 C76 1.383 . S
C77 C78 1.393 . S
C78 H50 0.931 1_455 S
C78 C77 1.393 . S
C78 C79 1.382 . S
C79 H49 0.929 1_455 S
C79 C74 1.371 . S
C79 C78 1.382 . S
C80 N43 1.423 . S
C80 C81 1.362 1_455 S
C80 C85 1.388 . S
C81 H51 0.929 . S
C81 C80 1.362 1_655 S
C81 C82 1.376 . S
C82 H53 0.931 . S
C82 C81 1.376 . S
C82 C83 1.396 1_655 S
C83 C82 1.396 1_455 S
C83 C84 1.348 . S
C83 C101 1.472 . S
C84 H54 0.929 . S
C84 C83 1.348 . S
C84 C85 1.443 . S
C85 H52 0.932 . S
C85 C80 1.388 . S
C85 C84 1.443 . S
C86 N66 1.433 . S
C86 C87 1.363 . S
C86 C91 1.370 . S
C87 H55 0.929 1_455 S
C87 C86 1.363 . S
C87 C88 1.385 . S
C88 H56 0.930 1_455 S
C88 C87 1.385 . S
C88 C89 1.357 . S
C89 C88 1.357 . S
C89 C90 1.406 . S
C90 H57 0.929 . S
C90 C89 1.406 . S
C90 C91 1.391 . S
C91 H58 0.931 . S
C91 C86 1.370 . S
C91 C90 1.391 . S
C92 N66 1.435 . S
C92 C93 1.358 . S
C92 C97 1.371 . S
C93 H59 0.930 . S
C93 C92 1.358 . S
C93 C94 1.405 . S
C94 H60 0.932 . S
C94 C93 1.405 . S
C94 C95 1.383 . S
C95 C94 1.383 . S
C95 C96 1.393 . S
C96 H61 0.931 1_455 S
C96 C95 1.393 . S
C96 C97 1.382 . S
C97 H62 0.929 1_455 S
C97 C92 1.371 . S
C97 C96 1.382 . S
C98 N66 1.423 . S
C98 C99 1.362 1_455 S
C98 C103 1.388 . S
C99 H63 0.929 . S
C99 C98 1.362 1_655 S
C99 C100 1.376 . S
C100 H64 0.931 . S
C100 C99 1.376 . S
C100 C101 1.396 1_655 S
C101 C83 1.472 . S
C101 C100 1.396 1_455 S
C101 C102 1.348 . S
C102 H65 0.929 . S
C102 C101 1.348 . S
C102 C103 1.443 . S
C103 H67 0.932 . S
C103 C98 1.388 . S
C103 C102 1.443 . S
H104 C131 0.929 . S
N105 C130 1.433 . S
N105 C136 1.435 . S
N105 C142 1.423 . S
H106 C132 0.930 . S
H107 C135 0.931 . S
H108 C134 0.929 1_565 S
H109 C137 0.930 . S
H110 C138 0.901 1_565 S
H111 C141 0.929 . S
H112 C140 0.931 . S
H113 C143 0.929 . S
H114 C147 0.932 . S
H115 C144 0.931 . S
H116 C146 0.929 . S
H117 C149 0.929 . S
H118 C150 0.930 . S
H119 C152 0.929 1_565 S
H120 C153 0.931 . S
H121 C155 0.930 . S
H122 C156 0.926 1_565 S
H123 C158 0.931 . S
H124 C159 0.929 . S
H125 C161 0.929 . S
H126 C162 0.931 . S
H127 C164 0.929 . S
N128 C148 1.433 . S
N128 C154 1.435 . S
N128 C160 1.423 . S
H129 C165 0.932 . S
C130 N105 1.433 . S
C130 C131 1.363 . S
C130 C135 1.370 . S
C131 H104 0.929 . S
C131 C130 1.363 . S
C131 C132 1.385 . S
C132 H106 0.930 . S
C132 C131 1.385 . S
C132 C133 1.357 . S
C133 C132 1.357 . S
C133 C134 1.406 . S
C134 H108 0.929 1_545 S
C134 C133 1.406 . S
C134 C135 1.391 . S
C135 H107 0.931 . S
C135 C130 1.370 . S
C135 C134 1.391 . S
C136 N105 1.435 . S
C136 C137 1.358 . S
C136 C141 1.371 . S
C137 H109 0.930 . S
C137 C136 1.358 . S
C137 C138 1.405 . S
C138 H110 0.901 1_545 S
C138 C137 1.405 . S
C138 C139 1.383 . S
C139 C138 1.383 . S
C139 C140 1.393 . S
C140 H112 0.931 . S
C140 C139 1.393 . S
C140 C141 1.382 . S
C141 H111 0.929 . S
C141 C136 1.371 . S
C141 C140 1.382 . S
C142 N105 1.423 . S
C142 C143 1.362 . S
C142 C147 1.388 . S
C143 H113 0.929 . S
C143 C142 1.362 . S
C143 C144 1.376 . S
C144 H115 0.931 . S
C144 C143 1.376 . S
C144 C145 1.396 . S
C145 C144 1.396 . S
C145 C146 1.348 . S
C145 C163 1.472 . S
C146 H116 0.929 . S
C146 C145 1.348 . S
C146 C147 1.443 . S
C147 H114 0.932 . S
C147 C142 1.388 . S
C147 C146 1.443 . S
C148 N128 1.433 . S
C148 C149 1.363 . S
C148 C153 1.370 . S
C149 H117 0.929 . S
C149 C148 1.363 . S
C149 C150 1.385 . S
C150 H118 0.930 . S
C150 C149 1.385 . S
C150 C151 1.357 . S
C151 C150 1.357 . S
C151 C152 1.406 . S
C152 H119 0.929 1_545 S
C152 C151 1.406 . S
C152 C153 1.391 . S
C153 H120 0.931 . S
C153 C148 1.370 . S
C153 C152 1.391 . S
C154 N128 1.435 . S
C154 C155 1.358 . S
C154 C159 1.371 . S
C155 H121 0.930 . S
C155 C154 1.358 . S
C155 C156 1.405 . S
C156 H122 0.926 1_545 S
C156 C155 1.405 . S
C156 C157 1.383 . S
C157 C156 1.383 . S
C157 C158 1.393 . S
C158 H123 0.931 . S
C158 C157 1.393 . S
C158 C159 1.382 . S
C159 H124 0.929 . S
C159 C154 1.371 . S
C159 C158 1.382 . S
C160 N128 1.423 . S
C160 C161 1.362 . S
C160 C165 1.388 . S
C161 H125 0.929 . S
C161 C160 1.362 . S
C161 C162 1.376 . S
C162 H126 0.931 . S
C162 C161 1.376 . S
C162 C163 1.396 . S
C163 C145 1.472 . S
C163 C162 1.396 . S
C163 C164 1.348 . S
C164 H127 0.929 . S
C164 C163 1.348 . S
C164 C165 1.443 . S
C165 H129 0.932 . S
C165 C160 1.388 . S
C165 C164 1.443 . S
H166 C193 0.929 . S
N167 C192 1.433 . S
N167 C198 1.435 . S
N167 C204 1.423 . S
H168 C194 0.930 . S
H169 C197 0.931 . S
H170 C196 0.929 . S
H171 C199 0.930 . S
H172 C200 0.932 . S
H173 C203 0.929 . S
H174 C202 0.931 . S
H175 C205 0.929 . S
H176 C209 0.932 . S
H177 C206 0.931 . S
H178 C208 0.929 . S
H179 C211 0.929 . S
H180 C212 0.930 . S
H181 C214 0.929 . S
H182 C215 0.931 . S
H183 C217 0.930 . S
H184 C218 0.932 . S
H185 C220 0.931 . S
H186 C221 0.929 . S
H187 C223 0.929 . S
H188 C224 0.931 . S
H189 C226 0.929 . S
N190 C210 1.433 . S
N190 C216 1.435 . S
N190 C222 1.423 . S
H191 C227 0.932 . S
C192 N167 1.433 . S
C192 C193 1.363 . S
C192 C197 1.370 . S
C193 H166 0.929 . S
C193 C192 1.363 . S
C193 C194 1.385 . S
C194 H168 0.930 . S
C194 C193 1.385 . S
C194 C195 1.357 . S
C195 C194 1.357 . S
C195 C196 1.406 . S
C196 H170 0.929 . S
C196 C195 1.406 . S
C196 C197 1.391 . S
C197 H169 0.931 . S
C197 C192 1.370 . S
C197 C196 1.391 . S
C198 N167 1.435 . S
C198 C199 1.358 . S
C198 C203 1.371 . S
C199 H171 0.930 . S
C199 C198 1.358 . S
C199 C200 1.405 . S
C200 H172 0.932 . S
C200 C199 1.405 . S
C200 C201 1.383 . S
C201 C200 1.383 . S
C201 C202 1.393 . S
C202 H174 0.931 . S
C202 C201 1.393 . S
C202 C203 1.382 . S
C203 H173 0.929 . S
C203 C198 1.371 . S
C203 C202 1.382 . S
C204 N167 1.423 . S
C204 C205 1.362 . S
C204 C209 1.388 . S
C205 H175 0.929 . S
C205 C204 1.362 . S
C205 C206 1.376 . S
C206 H177 0.931 . S
C206 C205 1.376 . S
C206 C207 1.396 . S
C207 C206 1.396 . S
C207 C208 1.348 . S
C207 C225 1.472 . S
C208 H178 0.929 . S
C208 C207 1.348 . S
C208 C209 1.443 . S
C209 H176 0.932 . S
C209 C204 1.388 . S
C209 C208 1.443 . S
C210 N190 1.433 . S
C210 C211 1.363 . S
C210 C215 1.370 . S
C211 H179 0.929 . S
C211 C210 1.363 . S
C211 C212 1.385 . S
C212 H180 0.930 . S
C212 C211 1.385 . S
C212 C213 1.357 . S
C213 C212 1.357 . S
C213 C214 1.406 . S
C214 H181 0.929 . S
C214 C213 1.406 . S
C214 C215 1.391 . S
C215 H182 0.931 . S
C215 C210 1.370 . S
C215 C214 1.391 . S
C216 N190 1.435 . S
C216 C217 1.358 . S
C216 C221 1.371 . S
C217 H183 0.930 . S
C217 C216 1.358 . S
C217 C218 1.405 . S
C218 H184 0.932 . S
C218 C217 1.405 . S
C218 C219 1.383 . S
C219 C218 1.383 . S
C219 C220 1.393 . S
C220 H185 0.931 . S
C220 C219 1.393 . S
C220 C221 1.382 . S
C221 H186 0.929 . S
C221 C216 1.371 . S
C221 C220 1.382 . S
C222 N190 1.423 . S
C222 C223 1.362 . S
C222 C227 1.388 . S
C223 H187 0.929 . S
C223 C222 1.362 . S
C223 C224 1.376 . S
C224 H188 0.931 . S
C224 C223 1.376 . S
C224 C225 1.396 . S
C225 C207 1.472 . S
C225 C224 1.396 . S
C225 C226 1.348 . S
C226 H189 0.929 . S
C226 C225 1.348 . S
C226 C227 1.443 . S
C227 H191 0.932 . S
C227 C222 1.388 . S
C227 C226 1.443 . S
H228 C246 0.951 1_655 S
H229 C248 0.951 1_655 S
H230 C250 0.950 . S
H231 C251 0.950 . S
H232 C253 0.950 . S
H233 C256 0.950 . S
H234 C257 0.950 . S
H235 C259 0.950 . S
H236 C260 0.950 . S
H237 C261 0.951 . S
H238 C263 0.951 . S
H239 C265 0.950 1_655 S
H240 C266 0.950 1_655 S
H241 C268 0.950 . S
H242 C271 0.931 1_655 S
H243 C272 0.950 . S
H244 C274 0.950 . S
H245 C275 0.950 . S
C246 H228 0.951 1_455 S
C246 C247 1.366 . S
C246 C248 1.388 . S
C247 C246 1.366 . S
C247 C251 1.385 . S
C248 H229 0.951 1_455 S
C248 C246 1.388 . S
C248 C249 1.366 . S
C249 C248 1.366 . S
C249 C250 1.414 . S
C249 C252 1.499 . S
C250 H230 0.950 . S
C250 C249 1.414 . S
C250 C251 1.374 . S
C251 H231 0.950 . S
C251 C247 1.385 . S
C251 C250 1.374 . S
C252 C249 1.499 . S
C252 C253 1.373 . S
C252 C254 1.389 . S
C253 H232 0.950 . S
C253 C252 1.373 . S
C253 C269 1.377 . S
C254 C252 1.389 . S
C254 C255 1.524 . S
C254 C268 1.377 . S
C255 C254 1.524 . S
C255 C256 1.397 . S
C255 C260 1.363 1_455 S
C256 H233 0.950 . S
C256 C255 1.397 . S
C256 C257 1.334 . S
C257 H234 0.950 . S
C257 C256 1.334 . S
C257 C258 1.287 . S
C258 C257 1.287 . S
C258 C259 1.524 1_455 S
C258 H277 0.913 . S
C259 H235 0.950 . S
C259 C258 1.524 1_655 S
C259 C260 1.415 . S
C260 H236 0.950 . S
C260 C255 1.363 1_655 S
C260 C259 1.415 . S
C261 H237 0.951 . S
C261 C262 1.366 . S
C261 C263 1.388 . S
C262 C261 1.366 . S
C262 C266 1.385 . S
C263 H238 0.951 . S
C263 C261 1.388 . S
C263 C264 1.366 . S
C264 C263 1.366 . S
C264 C265 1.414 . S
C264 C267 1.499 . S
C265 H239 0.950 1_455 S
C265 C264 1.414 . S
C265 C266 1.374 . S
C266 H240 0.950 1_455 S
C266 C262 1.385 . S
C266 C265 1.374 . S
C267 C264 1.499 . S
C267 C268 1.373 . S
C267 C269 1.389 . S
C268 H241 0.950 . S
C268 C254 1.377 . S
C268 C267 1.373 . S
C269 C253 1.377 . S
C269 C267 1.389 . S
C269 C270 1.524 . S
C270 C269 1.524 . S
C270 C271 1.397 . S
C270 C275 1.363 . S
C271 H242 0.931 1_455 S
C271 C270 1.397 . S
C271 C272 1.334 . S
C272 H243 0.950 . S
C272 C271 1.334 . S
C272 C273 1.287 . S
C273 C272 1.287 . S
C273 C274 1.524 . S
C273 H276 0.999 . S
C274 H244 0.950 . S
C274 C273 1.524 . S
C274 C275 1.415 . S
C275 H245 0.950 . S
C275 C270 1.363 . S
C275 C274 1.415 . S
H276 C273 0.999 . S
H277 C258 0.913 . S
H278 C296 0.951 . S
H279 C298 0.951 . S
H280 C300 0.950 . S
H281 C301 0.950 . S
H282 C303 0.950 . S
H283 C306 0.950 . S
H284 C307 0.950 . S
H285 C309 0.950 . S
H286 C310 0.965 . S
H287 C311 0.951 . S
H288 C313 0.951 . S
H289 C315 0.950 . S
H290 C316 0.950 . S
H291 C318 0.957 . S
H292 C321 0.950 . S
H293 C322 0.950 . S
H294 C324 0.950 . S
H295 C325 0.950 . S
C296 H278 0.951 . S
C296 C297 1.366 . S
C296 C298 1.388 . S
C297 C296 1.366 . S
C297 C301 1.385 . S
C298 H279 0.951 . S
C298 C296 1.388 . S
C298 C299 1.366 . S
C299 C298 1.366 . S
C299 C300 1.414 . S
C299 C302 1.499 . S
C300 H280 0.950 . S
C300 C299 1.414 . S
C300 C301 1.374 . S
C301 H281 0.950 . S
C301 C297 1.385 . S
C301 C300 1.374 . S
C302 C299 1.499 . S
C302 C303 1.373 . S
C302 C304 1.389 . S
C303 H282 0.950 . S
C303 C302 1.373 . S
C303 C319 1.377 . S
C304 C302 1.389 . S
C304 C305 1.524 1_545 S
C304 C318 1.377 . S
C305 C304 1.524 1_565 S
C305 C306 1.397 . S
C305 C310 1.363 . S
C306 H283 0.950 . S
C306 C305 1.397 . S
C306 C307 1.334 . S
C307 H284 0.950 . S
C307 C306 1.334 . S
C307 C308 1.287 . S
C308 C307 1.287 . S
C308 C309 1.524 . S
C308 H327 0.913 . S
C309 H285 0.950 . S
C309 C308 1.524 . S
C309 C310 1.415 . S
C310 H286 0.965 . S
C310 C305 1.363 . S
C310 C309 1.415 . S
C311 H287 0.951 . S
C311 C312 1.366 . S
C311 C313 1.388 . S
C312 C311 1.366 . S
C312 C316 1.385 . S
C313 H288 0.951 . S
C313 C311 1.388 . S
C313 C314 1.366 . S
C314 C313 1.366 . S
C314 C315 1.414 . S
C314 C317 1.499 . S
C315 H289 0.950 . S
C315 C314 1.414 . S
C315 C316 1.374 . S
C316 H290 0.950 . S
C316 C312 1.385 . S
C316 C315 1.374 . S
C317 C314 1.499 . S
C317 C318 1.373 . S
C317 C319 1.389 . S
C318 H291 0.957 . S
C318 C304 1.377 . S
C318 C317 1.373 . S
C319 C303 1.377 . S
C319 C317 1.389 . S
C319 C320 1.524 . S
C320 C319 1.524 . S
C320 C321 1.397 . S
C320 C325 1.363 . S
C321 H292 0.950 . S
C321 C320 1.397 . S
C321 C322 1.334 . S
C322 H293 0.950 . S
C322 C321 1.334 . S
C322 C323 1.287 . S
C323 C322 1.287 . S
C323 C324 1.524 . S
C323 H326 0.999 . S
C324 H294 0.950 . S
C324 C323 1.524 . S
C324 C325 1.415 . S
C325 H295 0.950 . S
C325 C320 1.363 . S
C325 C324 1.415 . S
H326 C323 0.999 . S
H327 C308 0.913 . S
H328 C346 0.951 . S
H329 C348 0.951 . S
H330 C350 0.950 . S
H331 C351 0.950 . S
H332 C353 0.950 . S
H333 C356 0.950 . S
H334 C357 0.950 . S
H335 C359 0.950 1_455 S
H336 C360 0.950 . S
H337 C361 0.951 . S
H338 C363 0.951 . S
H339 C365 0.950 . S
H340 C366 0.950 . S
H341 C368 0.950 . S
H342 C371 0.950 . S
H343 C372 0.950 . S
H344 C374 0.950 . S
H345 C375 0.950 . S
C346 H328 0.951 . S
C346 C347 1.366 . S
C346 C348 1.388 . S
C347 C346 1.366 . S
C347 C351 1.385 . S
C348 H329 0.951 . S
C348 C346 1.388 . S
C348 C349 1.366 . S
C349 C348 1.366 . S
C349 C350 1.414 . S
C349 C352 1.499 . S
C350 H330 0.950 . S
C350 C349 1.414 . S
C350 C351 1.374 . S
C351 H331 0.950 . S
C351 C347 1.385 . S
C351 C350 1.374 . S
C352 C349 1.499 . S
C352 C353 1.373 . S
C352 C354 1.389 . S
C353 H332 0.950 . S
C353 C352 1.373 . S
C353 C369 1.377 . S
C354 C352 1.389 . S
C354 C355 1.524 . S
C354 C368 1.377 . S
C355 C354 1.524 . S
C355 C356 1.397 . S
C355 C360 1.363 . S
C356 H333 0.950 . S
C356 C355 1.397 . S
C356 C357 1.334 . S
C357 H334 0.950 . S
C357 C356 1.334 . S
C357 C358 1.286 . S
C358 C357 1.286 . S
C358 C359 1.523 . S
C358 H377 0.915 1_655 S
C359 H335 0.950 1_655 S
C359 C358 1.523 . S
C359 C360 1.415 . S
C360 H336 0.950 . S
C360 C355 1.363 . S
C360 C359 1.415 . S
C361 H337 0.951 . S
C361 C362 1.366 . S
C361 C363 1.388 . S
C362 C361 1.366 . S
C362 C366 1.385 . S
C363 H338 0.951 . S
C363 C361 1.388 . S
C363 C364 1.366 . S
C364 C363 1.366 . S
C364 C365 1.414 . S
C364 C367 1.499 . S
C365 H339 0.950 . S
C365 C364 1.414 . S
C365 C366 1.374 . S
C366 H340 0.950 . S
C366 C362 1.385 . S
C366 C365 1.374 . S
C367 C364 1.499 . S
C367 C368 1.373 . S
C367 C369 1.389 . S
C368 H341 0.950 . S
C368 C354 1.377 . S
C368 C367 1.373 . S
C369 C353 1.377 . S
C369 C367 1.389 . S
C369 C370 1.524 . S
C370 C369 1.524 . S
C370 C371 1.397 . S
C370 C375 1.363 . S
C371 H342 0.950 . S
C371 C370 1.397 . S
C371 C372 1.334 . S
C372 H343 0.950 . S
C372 C371 1.334 . S
C372 C373 1.287 . S
C373 C372 1.287 . S
C373 C374 1.524 . S
C373 H376 0.999 . S
C374 H344 0.950 . S
C374 C373 1.524 . S
C374 C375 1.415 . S
C375 H345 0.950 . S
C375 C370 1.363 . S
C375 C374 1.415 . S
H376 C373 0.999 . S
H377 C358 0.915 1_455 S
H378 C396 0.951 1_545 S
H379 C398 0.951 . S
H380 C400 0.950 . S
H381 C401 0.950 . S
H382 C403 0.950 . S
H383 C406 0.950 . S
H384 C407 0.950 . S
H385 C409 0.950 1_545 S
H386 C410 0.950 . S
H387 C411 0.951 . S
H388 C413 0.951 . S
H389 C415 0.950 . S
H390 C416 0.950 . S
H391 C418 0.950 . S
H392 C421 0.950 . S
H393 C422 0.950 . S
H394 C424 0.950 . S
H395 C425 0.950 . S
C396 H378 0.951 1_565 S
C396 C397 1.366 . S
C396 C398 1.388 . S
C397 C396 1.366 . S
C397 C401 1.385 . S
C398 H379 0.951 . S
C398 C396 1.388 . S
C398 C399 1.366 . S
C399 C398 1.366 . S
C399 C400 1.414 . S
C399 C402 1.499 . S
C400 H380 0.950 . S
C400 C399 1.414 . S
C400 C401 1.374 . S
C401 H381 0.950 . S
C401 C397 1.385 . S
C401 C400 1.374 . S
C402 C399 1.499 . S
C402 C403 1.373 . S
C402 C404 1.389 . S
C403 H382 0.950 . S
C403 C402 1.373 . S
C403 C419 1.377 . S
C404 C402 1.389 . S
C404 C405 1.524 . S
C404 C418 1.377 . S
C405 C404 1.524 . S
C405 C406 1.397 . S
C405 C410 1.363 . S
C406 H383 0.950 . S
C406 C405 1.397 . S
C406 C407 1.334 . S
C407 H384 0.950 . S
C407 C406 1.334 . S
C407 C408 1.287 . S
C408 C407 1.287 . S
C408 C409 1.524 . S
C408 H427 0.913 1_565 S
C409 H385 0.950 1_565 S
C409 C408 1.524 . S
C409 C410 1.415 . S
C410 H386 0.950 . S
C410 C405 1.363 . S
C410 C409 1.415 . S
C411 H387 0.951 . S
C411 C412 1.366 . S
C411 C413 1.388 . S
C412 C411 1.366 . S
C412 C416 1.385 . S
C413 H388 0.951 . S
C413 C411 1.388 . S
C413 C414 1.366 . S
C414 C413 1.366 . S
C414 C415 1.414 . S
C414 C417 1.499 . S
C415 H389 0.950 . S
C415 C414 1.414 . S
C415 C416 1.374 . S
C416 H390 0.950 . S
C416 C412 1.385 . S
C416 C415 1.374 . S
C417 C414 1.499 . S
C417 C418 1.373 . S
C417 C419 1.389 . S
C418 H391 0.950 . S
C418 C404 1.377 . S
C418 C417 1.373 . S
C419 C403 1.377 . S
C419 C417 1.389 . S
C419 C420 1.524 1_455 S
C420 C419 1.524 1_655 S
C420 C421 1.397 . S
C420 C425 1.363 . S
C421 H392 0.950 . S
C421 C420 1.397 . S
C421 C422 1.334 . S
C422 H393 0.950 . S
C422 C421 1.334 . S
C422 C423 1.287 . S
C423 C422 1.287 . S
C423 C424 1.524 . S
C423 H426 0.999 . S
C424 H394 0.950 . S
C424 C423 1.524 . S
C424 C425 1.415 . S
C425 H395 0.950 . S
C425 C420 1.363 . S
C425 C424 1.415 . S
H426 C423 0.999 . S
H427 C408 0.913 1_545 S
H428 C446 0.951 . S
H429 C448 0.951 . S
H430 C450 0.950 . S
H431 C451 0.950 . S
H432 C453 0.950 . S
H433 C456 0.950 . S
H434 C457 0.950 . S
H435 C459 0.950 . S
H436 C460 0.950 . S
H437 C461 0.951 . S
H438 C463 0.951 . S
H439 C465 0.950 . S
H440 C466 0.950 . S
H441 C468 0.950 1_565 S
H442 C471 0.950 . S
H443 C472 0.950 . S
H444 C474 0.950 . S
H445 C475 0.950 . S
C446 H428 0.951 . S
C446 C447 1.366 . S
C446 C448 1.388 . S
C447 C446 1.366 . S
C447 C451 1.385 . S
C448 H429 0.951 . S
C448 C446 1.388 . S
C448 C449 1.366 . S
C449 C448 1.366 . S
C449 C450 1.414 . S
C449 C452 1.499 . S
C450 H430 0.950 . S
C450 C449 1.414 . S
C450 C451 1.374 . S
C451 H431 0.950 . S
C451 C447 1.385 . S
C451 C450 1.374 . S
C452 C449 1.499 . S
C452 C453 1.373 . S
C452 C454 1.389 . S
C453 H432 0.950 . S
C453 C452 1.373 . S
C453 C469 1.377 . S
C454 C452 1.389 . S
C454 C455 1.524 1_545 S
C454 C468 1.377 . S
C455 C454 1.524 1_565 S
C455 C456 1.397 . S
C455 C460 1.363 . S
C456 H433 0.950 . S
C456 C455 1.397 . S
C456 C457 1.334 . S
C457 H434 0.950 . S
C457 C456 1.334 . S
C457 C458 1.287 . S
C458 C457 1.287 . S
C458 C459 1.524 . S
C458 H477 0.913 . S
C459 H435 0.950 . S
C459 C458 1.524 . S
C459 C460 1.415 . S
C460 H436 0.950 . S
C460 C455 1.363 . S
C460 C459 1.415 . S
C461 H437 0.951 . S
C461 C462 1.366 . S
C461 C463 1.388 . S
C462 C461 1.366 . S
C462 C466 1.385 . S
C463 H438 0.951 . S
C463 C461 1.388 . S
C463 C464 1.366 . S
C464 C463 1.366 . S
C464 C465 1.414 . S
C464 C467 1.499 . S
C465 H439 0.950 . S
C465 C464 1.414 . S
C465 C466 1.374 . S
C466 H440 0.950 . S
C466 C462 1.385 . S
C466 C465 1.374 . S
C467 C464 1.499 . S
C467 C468 1.373 . S
C467 C469 1.389 . S
C468 H441 0.950 1_545 S
C468 C454 1.377 . S
C468 C467 1.373 . S
C469 C453 1.377 . S
C469 C467 1.389 . S
C469 C470 1.524 . S
C470 C469 1.524 . S
C470 C471 1.397 . S
C470 C475 1.363 . S
C471 H442 0.950 . S
C471 C470 1.397 . S
C471 C472 1.334 . S
C472 H443 0.950 . S
C472 C471 1.334 . S
C472 C473 1.287 . S
C473 C472 1.287 . S
C473 C474 1.524 . S
C473 H476 0.999 . S
C474 H444 0.950 . S
C474 C473 1.524 . S
C474 C475 1.415 . S
C475 H445 0.950 . S
C475 C470 1.363 . S
C475 C474 1.415 . S
H476 C473 0.999 . S
H477 C458 0.913 . S
H478 C496 0.951 . S
H479 C498 0.951 . S
H480 C500 0.950 . S
H481 C501 0.950 . S
H482 C503 0.950 . S
H483 C506 0.950 . S
H484 C507 0.950 . S
H485 C509 0.950 . S
H486 C510 0.950 . S
H487 C511 0.951 . S
H488 C513 0.951 . S
H489 C515 0.950 . S
H490 C516 0.950 . S
H491 C518 0.950 . S
H492 C521 0.950 . S
H493 C522 0.950 . S
H494 C524 0.950 . S
H495 C525 0.950 . S
C496 H478 0.951 . S
C496 C497 1.366 . S
C496 C498 1.388 . S
C497 C496 1.366 . S
C497 C501 1.385 . S
C498 H479 0.951 . S
C498 C496 1.388 . S
C498 C499 1.366 . S
C499 C498 1.366 . S
C499 C500 1.414 . S
C499 C502 1.499 . S
C500 H480 0.950 . S
C500 C499 1.414 . S
C500 C501 1.374 . S
C501 H481 0.950 . S
C501 C497 1.385 . S
C501 C500 1.374 . S
C502 C499 1.499 . S
C502 C503 1.373 . S
C502 C504 1.389 . S
C503 H482 0.950 . S
C503 C502 1.373 . S
C503 C519 1.377 . S
C504 C502 1.389 . S
C504 C505 1.524 . S
C504 C518 1.377 . S
C505 C504 1.524 . S
C505 C506 1.397 . S
C505 C510 1.363 . S
C506 H483 0.950 . S
C506 C505 1.397 . S
C506 C507 1.334 . S
C507 H484 0.950 . S
C507 C506 1.334 . S
C507 C508 1.287 . S
C508 C507 1.287 . S
C508 C509 1.524 . S
C508 H527 0.913 . S
C509 H485 0.950 . S
C509 C508 1.524 . S
C509 C510 1.415 . S
C510 H486 0.950 . S
C510 C505 1.363 . S
C510 C509 1.415 . S
C511 H487 0.951 . S
C511 C512 1.366 . S
C511 C513 1.388 . S
C512 C511 1.366 . S
C512 C516 1.385 . S
C513 H488 0.951 . S
C513 C511 1.388 . S
C513 C514 1.366 . S
C514 C513 1.366 . S
C514 C515 1.414 . S
C514 C517 1.499 . S
C515 H489 0.950 . S
C515 C514 1.414 . S
C515 C516 1.374 . S
C516 H490 0.950 . S
C516 C512 1.385 . S
C516 C515 1.374 . S
C517 C514 1.499 . S
C517 C518 1.373 . S
C517 C519 1.389 . S
C518 H491 0.950 . S
C518 C504 1.377 . S
C518 C517 1.373 . S
C519 C503 1.377 . S
C519 C517 1.389 . S
C519 C520 1.524 . S
C520 C519 1.524 . S
C520 C521 1.397 . S
C520 C525 1.363 . S
C521 H492 0.950 . S
C521 C520 1.397 . S
C521 C522 1.334 . S
C522 H493 0.950 . S
C522 C521 1.334 . S
C522 C523 1.287 . S
C523 C522 1.287 . S
C523 C524 1.524 . S
C523 H526 0.999 . S
C524 H494 0.950 . S
C524 C523 1.524 . S
C524 C525 1.415 . S
C525 H495 0.950 . S
C525 C520 1.363 . S
C525 C524 1.415 . S
H526 C523 0.999 . S
H527 C508 0.913 . S
H528 C546 0.951 . S
H529 C548 0.951 . S
H530 C550 0.950 . S
H531 C551 0.950 . S
H532 C553 0.950 1_565 S
H533 C556 0.950 . S
H534 C557 0.950 . S
H535 C559 0.950 . S
H536 C560 0.950 . S
H537 C561 0.951 . S
H538 C563 0.951 . S
H539 C565 0.950 . S
H540 C566 0.950 . S
H541 C568 0.950 . S
H542 C571 0.950 . S
H543 C572 0.950 . S
H544 C574 0.950 . S
H545 C575 0.950 1_545 S
C546 H528 0.951 . S
C546 C547 1.366 . S
C546 C548 1.388 . S
C547 C546 1.366 . S
C547 C551 1.385 . S
C548 H529 0.951 . S
C548 C546 1.388 . S
C548 C549 1.366 . S
C549 C548 1.366 . S
C549 C550 1.414 . S
C549 C552 1.499 . S
C550 H530 0.950 . S
C550 C549 1.414 . S
C550 C551 1.374 . S
C551 H531 0.950 . S
C551 C547 1.385 . S
C551 C550 1.374 . S
C552 C549 1.499 . S
C552 C553 1.373 . S
C552 C554 1.389 . S
C553 H532 0.950 1_545 S
C553 C552 1.373 . S
C553 C569 1.377 . S
C554 C552 1.389 . S
C554 C555 1.524 . S
C554 C568 1.377 . S
C555 C554 1.524 . S
C555 C556 1.397 . S
C555 C560 1.363 . S
C556 H533 0.950 . S
C556 C555 1.397 . S
C556 C557 1.334 . S
C557 H534 0.950 . S
C557 C556 1.334 . S
C557 C558 1.287 . S
C558 C557 1.287 . S
C558 C559 1.524 . S
C558 H577 0.913 . S
C559 H535 0.950 . S
C559 C558 1.524 . S
C559 C560 1.415 . S
C560 H536 0.950 . S
C560 C555 1.363 . S
C560 C559 1.415 . S
C561 H537 0.951 . S
C561 C562 1.366 . S
C561 C563 1.388 . S
C562 C561 1.366 . S
C562 C566 1.385 . S
C563 H538 0.951 . S
C563 C561 1.388 . S
C563 C564 1.366 . S
C564 C563 1.366 . S
C564 C565 1.414 . S
C564 C567 1.499 . S
C565 H539 0.950 . S
C565 C564 1.414 . S
C565 C566 1.374 . S
C566 H540 0.950 . S
C566 C562 1.385 . S
C566 C565 1.374 . S
C567 C564 1.499 . S
C567 C568 1.373 . S
C567 C569 1.389 . S
C568 H541 0.950 . S
C568 C554 1.377 . S
C568 C567 1.373 . S
C569 C553 1.377 . S
C569 C567 1.389 . S
C569 C570 1.524 1_545 S
C570 C569 1.524 1_565 S
C570 C571 1.397 . S
C570 C575 1.363 . S
C571 H542 0.950 . S
C571 C570 1.397 . S
C571 C572 1.334 . S
C572 H543 0.950 . S
C572 C571 1.334 . S
C572 C573 1.287 . S
C573 C572 1.287 . S
C573 C574 1.524 . S
C573 H576 0.999 . S
C574 H544 0.950 . S
C574 C573 1.524 . S
C574 C575 1.415 . S
C575 H545 0.950 1_565 S
C575 C570 1.363 . S
C575 C574 1.415 . S
H576 C573 0.999 . S
H577 C558 0.913 . S
H578 C596 0.952 . S
H579 C598 0.951 . S
H580 C600 0.950 . S
H581 C601 0.950 . S
H582 C603 0.950 . S
H583 C606 0.950 . S
H584 C607 0.950 . S
H585 C609 0.950 . S
H586 C610 0.950 . S
H587 C611 0.951 . S
H588 C613 0.951 . S
H589 C615 0.950 . S
H590 C616 0.950 . S
H591 C618 0.950 . S
H592 C621 0.950 . S
H593 C622 0.950 . S
H594 C624 0.950 . S
H595 C625 0.950 . S
C596 H578 0.952 . S
C596 C597 1.366 1_556 S
C596 C598 1.388 . S
C597 C596 1.366 1_554 S
C597 C601 1.385 . S
C598 H579 0.951 . S
C598 C596 1.388 . S
C598 C599 1.366 . S
C599 C598 1.366 . S
C599 C600 1.414 . S
C599 C602 1.499 . S
C600 H580 0.950 . S
C600 C599 1.414 . S
C600 C601 1.374 1_556 S
C601 H581 0.950 . S
C601 C597 1.385 . S
C601 C600 1.374 1_554 S
C602 C599 1.499 . S
C602 C603 1.373 . S
C602 C604 1.389 . S
C603 H582 0.950 . S
C603 C602 1.373 . S
C603 C619 1.377 . S
C604 C602 1.389 . S
C604 C605 1.524 . S
C604 C618 1.377 . S
C605 C604 1.524 . S
C605 C606 1.397 1_556 S
C605 C610 1.363 . S
C606 H583 0.950 . S
C606 C605 1.397 1_554 S
C606 C607 1.334 . S
C607 H584 0.950 . S
C607 C606 1.334 . S
C607 C608 1.287 . S
C608 C607 1.287 . S
C608 C609 1.524 . S
C608 H627 0.913 . S
C609 H585 0.950 . S
C609 C608 1.524 . S
C609 C610 1.415 1_554 S
C610 H586 0.950 . S
C610 C605 1.363 . S
C610 C609 1.415 1_556 S
C611 H587 0.951 . S
C611 C612 1.366 . S
C611 C613 1.388 . S
C612 C611 1.366 . S
C612 C616 1.385 . S
C613 H588 0.951 . S
C613 C611 1.388 . S
C613 C614 1.366 . S
C614 C613 1.366 . S
C614 C615 1.414 . S
C614 C617 1.499 . S
C615 H589 0.950 . S
C615 C614 1.414 . S
C615 C616 1.374 . S
C616 H590 0.950 . S
C616 C612 1.385 . S
C616 C615 1.374 . S
C617 C614 1.499 . S
C617 C618 1.373 . S
C617 C619 1.389 . S
C618 H591 0.950 . S
C618 C604 1.377 . S
C618 C617 1.373 . S
C619 C603 1.377 . S
C619 C617 1.389 . S
C619 C620 1.524 . S
C620 C619 1.524 . S
C620 C621 1.397 . S
C620 C625 1.363 . S
C621 H592 0.950 . S
C621 C620 1.397 . S
C621 C622 1.334 . S
C622 H593 0.950 . S
C622 C621 1.334 . S
C622 C623 1.287 . S
C623 C622 1.287 . S
C623 C624 1.524 . S
C623 H626 0.999 . S
C624 H594 0.950 . S
C624 C623 1.524 . S
C624 C625 1.415 . S
C625 H595 0.950 . S
C625 C620 1.363 . S
C625 C624 1.415 . S
H626 C623 0.999 . S
H627 C608 0.913 . S
H628 C646 0.951 . S
H629 C648 0.951 . S
H630 C650 0.950 . S
H631 C651 0.950 . S
H632 C653 0.950 . S
H633 C656 0.950 . S
H634 C657 0.950 . S
H635 C659 0.950 . S
H636 C660 0.950 . S
H637 C661 0.951 . S
H638 C663 0.951 . S
H639 C665 0.950 . S
H640 C666 0.950 . S
H641 C668 0.950 . S
H642 C671 0.950 . S
H643 C672 0.950 . S
H644 C674 0.950 . S
H645 C675 0.950 . S
C646 H628 0.951 . S
C646 C647 1.366 1_655 S
C646 C648 1.388 . S
C647 C646 1.366 1_455 S
C647 C651 1.385 . S
C648 H629 0.951 . S
C648 C646 1.388 . S
C648 C649 1.366 1_655 S
C649 C648 1.366 1_455 S
C649 C650 1.414 . S
C649 C652 1.499 . S
C650 H630 0.950 . S
C650 C649 1.414 . S
C650 C651 1.374 . S
C651 H631 0.950 . S
C651 C647 1.385 . S
C651 C650 1.374 . S
C652 C649 1.499 . S
C652 C653 1.373 . S
C652 C654 1.389 1_455 S
C653 H632 0.950 . S
C653 C652 1.373 . S
C653 C669 1.377 . S
C654 C652 1.389 1_655 S
C654 C655 1.524 . S
C654 C668 1.377 . S
C655 C654 1.524 . S
C655 C656 1.397 . S
C655 C660 1.363 . S
C656 H633 0.950 . S
C656 C655 1.397 . S
C656 C657 1.334 . S
C657 H634 0.950 . S
C657 C656 1.334 . S
C657 C658 1.287 . S
C658 C657 1.287 . S
C658 C659 1.524 . S
C658 H677 0.913 . S
C659 H635 0.950 . S
C659 C658 1.524 . S
C659 C660 1.415 . S
C660 H636 0.950 . S
C660 C655 1.363 . S
C660 C659 1.415 . S
C661 H637 0.951 . S
C661 C662 1.366 . S
C661 C663 1.388 . S
C662 C661 1.366 . S
C662 C666 1.385 1_455 S
C663 H638 0.951 . S
C663 C661 1.388 . S
C663 C664 1.366 . S
C664 C663 1.366 . S
C664 C665 1.414 1_455 S
C664 C667 1.499 . S
C665 H639 0.950 . S
C665 C664 1.414 1_655 S
C665 C666 1.374 . S
C666 H640 0.950 . S
C666 C662 1.385 1_655 S
C666 C665 1.374 . S
C667 C664 1.499 . S
C667 C668 1.373 1_455 S
C667 C669 1.389 . S
C668 H641 0.950 . S
C668 C654 1.377 . S
C668 C667 1.373 1_655 S
C669 C653 1.377 . S
C669 C667 1.389 . S
C669 C670 1.524 . S
C670 C669 1.524 . S
C670 C671 1.397 . S
C670 C675 1.363 . S
C671 H642 0.950 . S
C671 C670 1.397 . S
C671 C672 1.334 . S
C672 H643 0.950 . S
C672 C671 1.334 . S
C672 C673 1.287 . S
C673 C672 1.287 . S
C673 C674 1.524 . S
C673 H676 0.999 . S
C674 H644 0.950 . S
C674 C673 1.524 . S
C674 C675 1.415 . S
C675 H645 0.950 . S
C675 C670 1.363 . S
C675 C674 1.415 . S
H676 C673 0.999 . S
H677 C658 0.913 . S
H678 C696 0.950 . S
H679 C698 0.951 . S
H680 C700 0.950 . S
H681 C701 0.950 . S
H682 C703 0.950 . S
H683 C706 0.950 . S
H684 C707 0.950 . S
H685 C709 0.950 . S
H686 C710 0.950 . S
H687 C711 0.951 . S
H688 C713 0.951 . S
H689 C715 0.950 . S
H690 C716 0.950 . S
H691 C718 0.950 . S
H692 C721 0.950 . S
H693 C722 0.950 . S
H694 C724 0.950 . S
H695 C725 0.950 . S
C696 H678 0.950 . S
C696 C697 1.368 1_565 S
C696 C698 1.388 1_565 S
C697 C696 1.368 1_545 S
C697 C701 1.371 . S
C698 H679 0.951 . S
C698 C696 1.388 1_545 S
C698 C699 1.366 . S
C699 C698 1.366 . S
C699 C700 1.414 . S
C699 C702 1.499 . S
C700 H680 0.950 . S
C700 C699 1.414 . S
C700 C701 1.374 . S
C701 H681 0.950 . S
C701 C697 1.371 . S
C701 C700 1.374 . S
C702 C699 1.499 . S
C702 C703 1.373 . S
C702 C704 1.389 1_545 S
C703 H682 0.950 . S
C703 C702 1.373 . S
C703 C719 1.377 . S
C704 C702 1.389 1_565 S
C704 C705 1.524 . S
C704 C718 1.377 . S
C705 C704 1.524 . S
C705 C706 1.397 . S
C705 C710 1.363 . S
C706 H683 0.950 . S
C706 C705 1.397 . S
C706 C707 1.334 . S
C707 H684 0.950 . S
C707 C706 1.334 . S
C707 C708 1.287 . S
C708 C707 1.287 . S
C708 C709 1.524 . S
C708 H727 0.913 . S
C709 H685 0.950 . S
C709 C708 1.524 . S
C709 C710 1.415 . S
C710 H686 0.950 . S
C710 C705 1.363 . S
C710 C709 1.415 . S
C711 H687 0.951 . S
C711 C712 1.366 . S
C711 C713 1.388 . S
C712 C711 1.366 . S
C712 C716 1.385 . S
C713 H688 0.951 . S
C713 C711 1.388 . S
C713 C714 1.366 . S
C714 C713 1.366 . S
C714 C715 1.414 . S
C714 C717 1.499 . S
C715 H689 0.950 . S
C715 C714 1.414 . S
C715 C716 1.374 . S
C716 H690 0.950 . S
C716 C712 1.385 . S
C716 C715 1.374 . S
C717 C714 1.499 . S
C717 C718 1.373 1_545 S
C717 C719 1.389 . S
C718 H691 0.950 . S
C718 C704 1.377 . S
C718 C717 1.373 1_565 S
C719 C703 1.377 . S
C719 C717 1.389 . S
C719 C720 1.524 . S
C720 C719 1.524 . S
C720 C721 1.397 . S
C720 C725 1.363 . S
C721 H692 0.950 . S
C721 C720 1.397 . S
C721 C722 1.334 . S
C722 H693 0.950 . S
C722 C721 1.334 . S
C722 C723 1.287 . S
C723 C722 1.287 . S
C723 C724 1.524 . S
C723 H726 0.999 . S
C724 H694 0.950 . S
C724 C723 1.524 . S
C724 C725 1.415 . S
C725 H695 0.950 . S
C725 C720 1.363 . S
C725 C724 1.415 . S
H726 C723 0.999 . S
H727 C708 0.913 . S
H728 C746 0.951 . S
H729 C748 0.951 . S
H730 C750 0.950 . S
H731 C751 0.950 . S
H732 C753 0.950 . S
H733 C756 0.950 . S
H734 C757 0.950 . S
H735 C759 0.950 . S
H736 C760 0.950 . S
H737 C761 0.951 . S
H738 C763 0.951 . S
H739 C765 0.950 . S
H740 C766 0.950 . S
H741 C768 0.950 . S
H742 C771 0.950 . S
H743 C772 0.950 . S
H744 C774 0.950 . S
H745 C775 0.950 . S
C746 H728 0.951 . S
C746 C747 1.366 1_556 S
C746 C748 1.388 . S
C747 C746 1.366 1_554 S
C747 C751 1.385 . S
C748 H729 0.951 . S
C748 C746 1.388 . S
C748 C749 1.366 . S
C749 C748 1.366 . S
C749 C750 1.414 1_556 S
C749 C752 1.499 . S
C750 H730 0.950 . S
C750 C749 1.414 1_554 S
C750 C751 1.374 . S
C751 H731 0.950 . S
C751 C747 1.385 . S
C751 C750 1.374 . S
C752 C749 1.499 . S
C752 C753 1.373 . S
C752 C754 1.389 . S
C753 H732 0.950 . S
C753 C752 1.373 . S
C753 C769 1.377 . S
C754 C752 1.389 . S
C754 C755 1.524 . S
C754 C768 1.377 . S
C755 C754 1.524 . S
C755 C756 1.397 . S
C755 C760 1.363 . S
C756 H733 0.950 . S
C756 C755 1.397 . S
C756 C757 1.334 . S
C757 H734 0.950 . S
C757 C756 1.334 . S
C757 C758 1.287 . S
C758 C757 1.287 . S
C758 C759 1.524 . S
C758 H777 0.913 . S
C759 H735 0.950 . S
C759 C758 1.524 . S
C759 C760 1.415 . S
C760 H736 0.950 . S
C760 C755 1.363 . S
C760 C759 1.415 . S
C761 H737 0.951 . S
C761 C762 1.366 . S
C761 C763 1.388 . S
C762 C761 1.366 . S
C762 C766 1.385 . S
C763 H738 0.951 . S
C763 C761 1.388 . S
C763 C764 1.366 . S
C764 C763 1.366 . S
C764 C765 1.414 . S
C764 C767 1.499 . S
C765 H739 0.950 . S
C765 C764 1.414 . S
C765 C766 1.374 . S
C766 H740 0.950 . S
C766 C762 1.385 . S
C766 C765 1.374 . S
C767 C764 1.499 . S
C767 C768 1.373 . S
C767 C769 1.389 . S
C768 H741 0.950 . S
C768 C754 1.377 . S
C768 C767 1.373 . S
C769 C753 1.377 . S
C769 C767 1.389 . S
C769 C770 1.524 . S
C770 C769 1.524 . S
C770 C771 1.397 . S
C770 C775 1.363 . S
C771 H742 0.950 . S
C771 C770 1.397 . S
C771 C772 1.334 . S
C772 H743 0.950 . S
C772 C771 1.334 . S
C772 C773 1.287 . S
C773 C772 1.287 . S
C773 C774 1.524 . S
C773 H776 0.999 . S
C774 H744 0.950 . S
C774 C773 1.524 . S
C774 C775 1.415 . S
C775 H745 0.950 . S
C775 C770 1.363 . S
C775 C774 1.415 . S
H776 C773 0.999 . S
H777 C758 0.913 . S
H778 C796 0.951 . S
H779 C798 0.951 . S
H780 C800 0.950 1_655 S
H781 C801 0.950 1_655 S
H782 C803 0.950 . S
H783 C806 0.950 . S
H784 C807 0.950 . S
H785 C809 0.950 . S
H786 C810 0.950 . S
H787 C811 0.951 . S
H788 C813 0.951 . S
H789 C815 0.950 . S
H790 C816 0.950 . S
H791 C818 0.950 . S
H792 C821 0.950 . S
H793 C822 0.950 . S
H794 C824 0.950 . S
H795 C825 0.950 . S
C796 H778 0.951 . S
C796 C797 1.366 . S
C796 C798 1.388 . S
C797 C796 1.366 . S
C797 C801 1.385 . S
C798 H779 0.951 . S
C798 C796 1.388 . S
C798 C799 1.366 . S
C799 C798 1.366 . S
C799 C800 1.414 . S
C799 C802 1.499 . S
C800 H780 0.950 1_455 S
C800 C799 1.414 . S
C800 C801 1.374 . S
C801 H781 0.950 1_455 S
C801 C797 1.385 . S
C801 C800 1.374 . S
C802 C799 1.499 . S
C802 C803 1.373 1_455 S
C802 C804 1.389 . S
C803 H782 0.950 . S
C803 C802 1.373 1_655 S
C803 C819 1.377 . S
C804 C802 1.389 . S
C804 C805 1.524 . S
C804 C818 1.377 . S
C805 C804 1.524 . S
C805 C806 1.397 . S
C805 C810 1.363 . S
C806 H783 0.950 . S
C806 C805 1.397 . S
C806 C807 1.334 . S
C807 H784 0.950 . S
C807 C806 1.334 . S
C807 C808 1.287 . S
C808 C807 1.287 . S
C808 C809 1.524 . S
C808 H827 0.913 . S
C809 H785 0.950 . S
C809 C808 1.524 . S
C809 C810 1.415 . S
C810 H786 0.950 . S
C810 C805 1.363 . S
C810 C809 1.415 . S
C811 H787 0.951 . S
C811 C812 1.366 1_655 S
C811 C813 1.388 . S
C812 C811 1.366 1_455 S
C812 C816 1.385 . S
C813 H788 0.951 . S
C813 C811 1.388 . S
C813 C814 1.366 1_655 S
C814 C813 1.366 1_455 S
C814 C815 1.414 . S
C814 C817 1.499 . S
C815 H789 0.950 . S
C815 C814 1.414 . S
C815 C816 1.374 . S
C816 H790 0.950 . S
C816 C812 1.385 . S
C816 C815 1.374 . S
C817 C814 1.499 . S
C817 C818 1.373 . S
C817 C819 1.389 1_455 S
C818 H791 0.950 . S
C818 C804 1.377 . S
C818 C817 1.373 . S
C819 C803 1.377 . S
C819 C817 1.389 1_655 S
C819 C820 1.524 . S
C820 C819 1.524 . S
C820 C821 1.397 . S
C820 C825 1.363 . S
C821 H792 0.950 . S
C821 C820 1.397 . S
C821 C822 1.334 . S
C822 H793 0.950 . S
C822 C821 1.334 . S
C822 C823 1.287 . S
C823 C822 1.287 . S
C823 C824 1.524 . S
C823 H826 0.999 . S
C824 H794 0.950 . S
C824 C823 1.524 . S
C824 C825 1.415 . S
C825 H795 0.950 . S
C825 C820 1.363 . S
C825 C824 1.415 . S
H826 C823 0.999 . S
H827 C808 0.913 . S
C262 C95 1.150 . S
C247 C11 1.151 . S
C297 C25 1.220 . S
C312 C139 1.220 . S
C347 C41 1.254 . S
C362 C201 1.298 . S
C397 C7 1.142 1_565 S
C412 C77 1.160 . S
C462 C157 1.228 . S
C447 C21 1.239 . S
C497 C36 1.254 . S
C512 C219 1.290 . S
C562 C133 1.496 . S
C547 C39 1.597 . S
C597 C8 1.605 1_665 S
C612 C195 1.545 . S
C662 C71 1.609 . S
C647 C22 1.664 1_565 S
C712 C151 1.509 . S
C697 C35 1.621 1_545 S
C762 C213 1.555 . S
C747 C13 1.598 . S
C797 C27 1.658 . S
C812 C89 1.603 . S
