# Generated by pormake.
# Topology zzz, (3,6)-cn, num edge types: 1
# Building blocks:
#     Node 0, Type 0, BuildingBlock: BETDAH_clean_linker_0, # of connection points: 3
#     Node 1, Type 0, BuildingBlock: BETDAH_clean_linker_0, # of connection points: 3
#     Node 2, Type 0, BuildingBlock: BETDAH_clean_linker_0, # of connection points: 3
#     Node 3, Type 0, BuildingBlock: BETDAH_clean_linker_0, # of connection points: 3
#     Node 4, Type 0, BuildingBlock: BETDAH_clean_linker_0, # of connection points: 3
#     Node 5, Type 0, BuildingBlock: BETDAH_clean_linker_0, # of connection points: 3
#     Node 6, Type 0, BuildingBlock: BETDAH_clean_linker_0, # of connection points: 3
#     Node 7, Type 0, BuildingBlock: BETDAH_clean_linker_0, # of connection points: 3
#     Node 8, Type 1, BuildingBlock: CUWYAW_clean_sbu_0, # of connection points: 6
#     Node 9, Type 1, BuildingBlock: CUWYAW_clean_sbu_0, # of connection points: 6
#     Node 10, Type 1, BuildingBlock: CUWYAW_clean_sbu_0, # of connection points: 6
#     Node 11, Type 1, BuildingBlock: CUWYAW_clean_sbu_0, # of connection points: 6
#     Edge 12, Type (0, 1), BuildingBlock: KIFKEQ_clean_linker_1, # of connection points: 2
#     Edge 13, Type (0, 1), BuildingBlock: KIFKEQ_clean_linker_1, # of connection points: 2
#     Edge 14, Type (0, 1), BuildingBlock: KIFKEQ_clean_linker_1, # of connection points: 2
#     Edge 15, Type (0, 1), BuildingBlock: KIFKEQ_clean_linker_1, # of connection points: 2
#     Edge 16, Type (0, 1), BuildingBlock: KIFKEQ_clean_linker_1, # of connection points: 2
#     Edge 17, Type (0, 1), BuildingBlock: KIFKEQ_clean_linker_1, # of connection points: 2
#     Edge 18, Type (0, 1), BuildingBlock: KIFKEQ_clean_linker_1, # of connection points: 2
#     Edge 19, Type (0, 1), BuildingBlock: KIFKEQ_clean_linker_1, # of connection points: 2
#     Edge 20, Type (0, 1), BuildingBlock: KIFKEQ_clean_linker_1, # of connection points: 2
#     Edge 21, Type (0, 1), BuildingBlock: KIFKEQ_clean_linker_1, # of connection points: 2
#     Edge 22, Type (0, 1), BuildingBlock: KIFKEQ_clean_linker_1, # of connection points: 2
#     Edge 23, Type (0, 1), BuildingBlock: KIFKEQ_clean_linker_1, # of connection points: 2
#     Edge 24, Type (0, 1), BuildingBlock: KIFKEQ_clean_linker_1, # of connection points: 2
#     Edge 25, Type (0, 1), BuildingBlock: KIFKEQ_clean_linker_1, # of connection points: 2
#     Edge 26, Type (0, 1), BuildingBlock: KIFKEQ_clean_linker_1, # of connection points: 2
#     Edge 27, Type (0, 1), BuildingBlock: KIFKEQ_clean_linker_1, # of connection points: 2
#     Edge 28, Type (0, 1), BuildingBlock: KIFKEQ_clean_linker_1, # of connection points: 2
#     Edge 29, Type (0, 1), BuildingBlock: KIFKEQ_clean_linker_1, # of connection points: 2
#     Edge 30, Type (0, 1), BuildingBlock: KIFKEQ_clean_linker_1, # of connection points: 2
#     Edge 31, Type (0, 1), BuildingBlock: KIFKEQ_clean_linker_1, # of connection points: 2
#     Edge 32, Type (0, 1), BuildingBlock: KIFKEQ_clean_linker_1, # of connection points: 2
#     Edge 33, Type (0, 1), BuildingBlock: KIFKEQ_clean_linker_1, # of connection points: 2
#     Edge 34, Type (0, 1), BuildingBlock: KIFKEQ_clean_linker_1, # of connection points: 2
#     Edge 35, Type (0, 1), BuildingBlock: KIFKEQ_clean_linker_1, # of connection points: 2
# Relax obj value: 0.259
# Max RMSD: 0.163
# Mean RMSD: 0.137
data_MOF--net-zzz--node1-CUWYAW_clean_sbu_0--node2-BETDAH_clean_linker_0--edge1-KIFKEQ_clean_linker_1
_symmetry_space_group_name_H-M    P1
_symmetry_Int_Tables_number       1
_symmetry_cell_setting            triclinic
loop_
_symmetry_equiv_pos_as_xyz
'x, y, z'
_cell_length_a     51.820861
_cell_length_b     51.811465
_cell_length_c     14.394846
_cell_angle_alpha  90.055438
_cell_angle_beta   89.551791
_cell_angle_gamma 89.950246
loop_
_atom_site_label
_atom_site_type_symbol
_atom_site_fract_x
_atom_site_fract_y
_atom_site_fract_z
_atom_type_partial_charge
H0 H 0.81437 0.48409 0.42255 0.0
H1 H 0.74267 0.50267 0.29205 0.0
H2 H 0.7698 0.54848 0.5224 0.0
C3 C 0.79678 0.49547 0.42138 0.0
C4 C 0.79421 0.5164 0.48224 0.0
C5 C 0.77846 0.49062 0.35248 0.0
C6 C 0.75646 0.50625 0.34672 0.0
C7 C 0.7528 0.52684 0.40961 0.0
C8 C 0.77203 0.5321 0.47617 0.0
N9 N 0.73052 0.54297 0.40568 0.0
C10 C 0.71093 0.54047 0.34004 0.0
H11 H 1.00929 0.81927 0.33079 0.0
H12 H 1.01149 0.73857 0.2697 0.0
H13 H 0.02968 0.76569 0.54589 0.0
C14 C 1.01171 0.79954 0.35446 0.0
C15 C 1.01932 0.79513 0.44611 0.0
C16 C 1.00909 0.77924 0.29097 0.0
C17 C 1.01335 0.75393 0.32003 0.0
C18 C 1.02064 0.74866 0.41219 0.0
C19 C 1.0234 0.76944 0.47558 0.0
N20 N 0.0264 0.7229 0.44061 0.0
C21 C 0.02695 0.70195 0.37906 0.0
H22 H 0.7373 1.01208 0.32651 0.0
H23 H 0.81679 1.02066 0.25203 0.0
H24 H 0.7934 1.02422 0.54077 0.0
C25 C 0.75726 1.01429 0.3474 0.0
C26 C 0.76289 1.01723 0.4417 0.0
C27 C 0.77663 1.01594 0.27934 0.0
C28 C 0.80218 1.01966 0.30578 0.0
C29 C 0.80866 1.02256 0.39995 0.0
C30 C 0.78876 1.02162 0.46813 0.0
N31 N 0.83482 0.02696 0.42635 0.0
C32 C 0.85517 0.02851 0.36189 0.0
H33 H 0.48592 0.7439 0.39953 0.0
H34 H 0.50533 0.81574 0.2695 0.0
H35 H 0.54995 0.78801 0.50121 0.0
C36 C 0.49733 0.76145 0.39875 0.0
C37 C 0.518 0.76383 0.46018 0.0
C38 C 0.49286 0.77992 0.32969 0.0
C39 C 0.5086 0.80184 0.32434 0.0
C40 C 0.5289 0.80528 0.38781 0.0
C41 C 0.53377 0.78593 0.45457 0.0
N42 N 0.54519 0.82742 0.38412 0.0
C43 C 0.54311 0.84698 0.31789 0.0
H44 H 0.24123 0.56942 0.13733 0.0
H45 H 0.31437 0.55243 0.26045 0.0
H46 H 0.28712 0.50704 0.02922 0.0
C47 C 0.25918 0.55859 0.13631 0.0
C48 C 0.26201 0.53807 0.07388 0.0
C49 C 0.27779 0.56367 0.20398 0.0
C50 C 0.30032 0.54871 0.20677 0.0
C51 C 0.3042 0.52861 0.14199 0.0
C52 C 0.2847 0.52309 0.07681 0.0
N53 N 0.32698 0.51317 0.14245 0.0
C54 C 0.34693 0.51569 0.20654 0.0
H55 H 0.98473 0.24155 0.12249 0.0
H56 H 1.00192 0.3143 0.24935 0.0
H57 H 0.04716 0.28753 0.0149 0.0
C58 C 0.99565 0.25942 0.12212 0.0
C59 C 1.01614 0.26233 0.05904 0.0
C60 C 0.99066 0.27793 0.19091 0.0
C61 C 1.00564 0.30037 0.19468 0.0
C62 C 0.02571 0.30436 0.12961 0.0
C63 C 0.03117 0.285 0.06296 0.0
N64 N 0.0411 0.32716 0.13133 0.0
C65 C 0.0384 0.3468 0.19734 0.0
H66 H 0.31167 0.97999 0.10473 0.0
H67 H 0.23601 0.99429 0.21535 0.0
H68 H 0.26598 0.04141 0.99223 0.0
C69 C 0.29338 0.99012 0.10127 0.0
C70 C 0.29101 1.01064 0.03872 0.0
C71 C 0.27378 0.98428 0.16573 0.0
C72 C 0.25086 0.99863 0.16469 0.0
C73 C 0.24765 1.01912 0.10157 0.0
C74 C 0.268 0.02523 0.03928 0.0
N75 N 0.22467 0.03435 0.10182 0.0
C76 C 0.2045 0.03153 0.16628 0.0
H77 H 0.56754 0.31524 0.13145 0.0
H78 H 0.54672 0.24206 0.24852 0.0
H79 H 0.50608 0.27143 0.00993 0.0
C80 C 0.55633 0.29758 0.12768 0.0
C81 C 0.53686 0.29553 0.06135 0.0
C82 C 0.55977 0.27856 0.19552 0.0
C83 C 0.54428 0.25641 0.19464 0.0
C84 C 0.52526 0.25333 0.12592 0.0
C85 C 0.52133 0.27324 0.06057 0.0
N86 N 0.50931 0.23098 0.1226 0.0
C87 C 0.51075 0.2105 0.18531 0.0
C88 C 0.98957 0.05682 0.51911 0.0
Eu89 Eu 1.00929 0.03624 0.66692 0.0
C90 C 0.9749 0.08061 0.50422 0.0
C91 C 0.96336 0.09355 0.57956 0.0
C92 C 0.95172 0.11761 0.56671 0.0
C93 C 0.95168 0.12922 0.47842 0.0
C94 C 0.96261 0.11564 0.40275 0.0
C95 C 0.97405 0.09154 0.41562 0.0
C96 C 0.98181 0.02615 0.82473 0.0
C97 C 0.03236 0.08264 0.80235 0.0
C98 C 0.05122 1.00086 0.99827 0.0
Eu99 Eu 0.04169 1.02209 0.84044 0.0
C100 C 0.05716 0.97347 0.0124 0.0
C101 C 0.07064 0.95976 0.94274 0.0
C102 C 0.06845 0.93295 0.93664 0.0
C103 C 0.05255 0.91972 0.99941 0.0
C104 C 0.04074 0.93309 0.07315 0.0
C105 C 0.04315 0.95983 0.07994 0.0
C106 C 0.07353 1.02239 0.68781 0.0
C107 C 1.02402 0.97719 0.69424 0.0
O108 O 1.01362 0.06014 0.54343 0.0
O109 O 0.97788 0.03899 0.56799 0.0
O110 O 0.97454 1.0194 0.74222 0.0
O111 O 1.0027 0.03855 0.81933 0.0
O112 O 1.01962 0.07584 0.7263 0.0
O113 O 0.04232 0.06537 0.85991 0.0
O114 O 0.02776 1.00455 0.96783 0.0
O115 O 0.06853 1.01474 0.95372 0.0
O116 O 0.08131 1.01789 0.77168 0.0
O117 O 0.04965 0.02692 0.69072 0.0
O118 O 0.02822 0.98335 0.78217 0.0
O119 O 1.0201 0.99521 0.63089 0.0
H120 H 0.96399 0.08537 0.64877 0.0
H121 H 0.94335 0.12738 0.62627 0.0
H122 H 0.96353 0.12414 0.33412 0.0
H123 H 0.98308 0.08186 0.35699 0.0
H124 H 0.08108 0.96989 0.88843 0.0
H125 H 0.07761 0.92283 0.87932 0.0
H126 H 0.02847 0.92299 0.12239 0.0
H127 H 0.0322 0.97004 0.13287 0.0
C128 C 0.50076 0.98597 0.52251 0.0
Eu129 Eu 0.52146 1.00898 0.66444 0.0
C130 C 0.47357 0.98098 0.50068 0.0
C131 C 0.46611 0.95758 0.46003 0.0
C132 C 0.43991 0.95195 0.44808 0.0
C133 C 0.42077 0.96949 0.47826 0.0
C134 C 0.4286 0.99285 0.51916 0.0
C135 C 0.45461 0.99868 0.52875 0.0
C136 C 0.53723 0.98365 0.81903 0.0
C137 C 0.4738 0.02893 0.80173 0.0
C138 C 0.55532 0.06594 0.95522 0.0
Eu139 Eu 0.5324 0.04364 0.81805 0.0
C140 C 0.58334 0.06523 0.97305 0.0
C141 C 0.59895 0.08634 0.94798 0.0
C142 C 0.62576 0.08358 0.94208 0.0
C143 C 0.63729 0.05964 0.96091 0.0
C144 C 0.62182 0.0391 0.99184 0.0
C145 C 0.59517 0.04186 0.99815 0.0
C146 C 0.51647 0.06885 0.66404 0.0
C147 C 0.58014 1.0232 0.68436 0.0
O148 O 0.50788 1.0102 0.52165 0.0
O149 O 0.50943 0.9736 0.59477 0.0
O150 O 0.54486 0.97805 0.73536 0.0
O151 O 0.52151 1.00232 0.81758 0.0
O152 O 0.48115 1.01926 0.72046 0.0
O153 O 0.49094 0.03813 0.86014 0.0
O154 O 0.54301 0.044 0.96415 0.0
O155 O 0.54865 0.07835 0.88013 0.0
O156 O 0.50874 0.07429 0.74773 0.0
O157 O 0.53239 0.0503 0.66499 0.0
O158 O 0.57281 0.03177 0.76709 0.0
O159 O 0.5629 1.01538 0.62386 0.0
H160 H 0.48052 0.94361 0.43831 0.0
H161 H 0.43474 0.93401 0.41451 0.0
H162 H 0.41466 1.00667 0.54539 0.0
H163 H 0.45982 1.0169 0.56021 0.0
H164 H 0.59034 0.10456 0.9281 0.0
H165 H 0.63735 0.0998 0.91927 0.0
H166 H 0.63031 1.02068 0.00992 0.0
H167 H 0.58385 0.02518 0.01824 0.0
C168 C 0.57109 0.50405 0.5521 0.0
Eu169 Eu 0.54692 0.52486 0.69276 0.0
C170 C 0.57898 0.47728 0.53235 0.0
C171 C 0.60406 0.47198 0.50007 0.0
C172 C 0.61222 0.44642 0.48762 0.0
C173 C 0.59548 0.42585 0.50854 0.0
C174 C 0.57038 0.43128 0.54039 0.0
C175 C 0.56218 0.45672 0.55175 0.0
C176 C 0.57234 0.53881 0.84972 0.0
C177 C 0.52662 0.47748 0.82552 0.0
C178 C 0.488 0.55644 0.98693 0.0
Eu179 Eu 0.5124 0.53614 0.84585 0.0
C180 C 0.47803 0.58261 1.00478 0.0
C181 C 0.45297 0.58608 0.04034 0.0
C182 C 0.44288 0.61096 0.05201 0.0
C183 C 0.45761 0.63267 0.02686 0.0
C184 C 0.48266 0.62906 0.99125 0.0
C185 C 0.49281 0.60432 0.98088 0.0
C186 C 0.48704 0.52182 0.68959 0.0
C187 C 0.53245 0.58357 0.71146 0.0
O188 O 0.54627 0.50873 0.55295 0.0
O189 O 0.58292 0.51505 0.62127 0.0
O190 O 0.57786 0.54724 0.76722 0.0
O191 O 0.55332 0.52356 0.84655 0.0
O192 O 0.53507 0.48463 0.74257 0.0
O193 O 0.5194 0.49492 0.88704 0.0
O194 O 0.51311 0.55387 0.98311 0.0
O195 O 0.47643 0.5438 0.92084 0.0
O196 O 0.48156 0.51354 0.77226 0.0
O197 O 0.50592 0.53727 0.69224 0.0
O198 O 0.52332 0.57652 0.79372 0.0
O199 O 0.54052 0.56611 0.65142 0.0
H200 H 0.61737 0.48758 0.4852 0.0
H201 H 0.63161 0.44273 0.46224 0.0
H202 H 0.55685 0.41584 0.55482 0.0
H203 H 0.5427 0.46022 0.5764 0.0
H204 H 0.4412 0.56955 0.05873 0.0
H205 H 0.42359 0.61325 0.08043 0.0
H206 H 0.49472 0.64545 0.97364 0.0
H207 H 0.51227 0.60221 0.95407 0.0
C208 C 0.05326 0.56789 0.56684 0.0
Eu209 Eu 0.03341 0.54328 0.7081 0.0
C210 C 0.0794 0.57752 0.54605 0.0
C211 C 0.08288 0.60242 0.50976 0.0
C212 C 0.10778 0.61212 0.4948 0.0
C213 C 0.1295 0.59716 0.51738 0.0
C214 C 0.12587 0.57226 0.55357 0.0
C215 C 0.1011 0.56248 0.56709 0.0
C216 C 1.02083 0.56801 0.86942 0.0
C217 C 0.08105 0.52209 0.83636 0.0
C218 C 1.00234 0.48327 0.99969 0.0
Eu219 Eu 1.02215 0.50804 0.85881 0.0
C220 C 0.97621 0.47353 0.01961 0.0
C221 C 0.97275 0.44871 0.05657 0.0
C222 C 0.94785 0.43886 0.07045 0.0
C223 C 0.92614 0.4536 0.04604 0.0
C224 C 0.92975 0.47841 0.00909 0.0
C225 C 0.95451 0.48833 0.99663 0.0
C226 C 0.03544 0.48335 0.69876 0.0
C227 C 0.97454 0.52936 0.72967 0.0
O228 O 0.0504 0.54281 0.56923 0.0
O229 O 0.04132 0.57942 0.63538 0.0
O230 O 1.01238 0.57448 0.78823 0.0
O231 O 0.03552 0.54861 0.86247 0.0
O232 O 0.07381 0.53125 0.75484 0.0
O233 O 0.06365 0.51443 0.89758 0.0
O234 O 1.0051 0.50837 0.9976 0.0
O235 O 1.01443 0.47184 0.93127 0.0
O236 O 0.04392 0.47724 0.78024 0.0
O237 O 1.02033 0.50251 0.70461 0.0
O238 O 0.9817 0.51995 0.811 0.0
O239 O 0.99199 0.5372 0.66907 0.0
H240 H 0.06636 0.61435 0.49328 0.0
H241 H 0.11009 0.63129 0.46595 0.0
H242 H 0.14224 0.56003 0.56923 0.0
H243 H 0.09895 0.54309 0.59394 0.0
H244 H 0.98928 0.43694 0.07442 0.0
H245 H 0.94555 0.41977 0.09994 0.0
H246 H 0.91337 0.49048 0.99207 0.0
H247 H 0.95663 0.50765 0.96915 0.0
H248 H 0.19438 0.9908 0.27869 0.0
H249 H 0.16772 0.067 0.20708 0.0
H250 H 0.16103 0.9878 0.39909 0.0
H251 H 0.13407 0.0641 0.32788 0.0
H252 H 0.06319 0.03876 0.50905 0.0
H253 H 0.09353 0.04037 0.3767 0.0
H254 H 0.1534 1.00884 0.55007 0.0
H255 H 0.1234 1.00731 0.68065 0.0
C256 C 0.18134 1.00691 0.28871 0.0
C257 C 0.18375 0.02924 0.23439 0.0
C258 C 0.16221 1.00522 0.35777 0.0
C259 C 0.14491 0.02578 0.37376 0.0
C260 C 0.14691 0.04784 0.3171 0.0
C261 C 0.16623 0.04958 0.24836 0.0
C262 C 0.08281 0.03212 0.51836 0.0
C263 C 0.0909 1.02294 0.60526 0.0
C264 C 0.10022 0.03314 0.44284 0.0
C265 C 0.12593 1.02462 0.45254 0.0
C266 C 0.13373 1.01521 0.53945 0.0
C267 C 0.11652 1.01448 0.61464 0.0
H268 H 0.46987 0.18936 0.27297 0.0
H269 H 0.55241 0.18334 0.24162 0.0
H270 H 0.47007 0.1532 0.38233 0.0
H271 H 0.55293 0.14735 0.35231 0.0
H272 H 0.54189 0.06903 0.49574 0.0
H273 H 0.54 0.1023 0.37496 0.0
H274 H 0.48377 0.14434 0.53873 0.0
H275 H 0.48541 0.11106 0.65782 0.0
C276 C 0.48806 0.18023 0.28989 0.0
C277 C 0.51112 0.18902 0.24964 0.0
C278 C 0.48824 0.1596 0.35271 0.0
C279 C 0.51153 0.14731 0.37654 0.0
C280 C 0.53461 0.15608 0.33485 0.0
C281 C 0.53439 0.17679 0.27208 0.0
C282 C 0.52894 0.08526 0.50518 0.0
C283 C 0.51386 0.08746 0.58639 0.0
C284 C 0.528 0.10444 0.43641 0.0
C285 C 0.51181 0.12614 0.44709 0.0
C286 C 0.49624 0.12784 0.52738 0.0
C287 C 0.49727 0.10878 0.59603 0.0
H288 H 0.36787 0.47533 0.29596 0.0
H289 H 0.37369 0.55777 0.26321 0.0
H290 H 0.40352 0.47602 0.4063 0.0
H291 H 0.4092 0.55879 0.37519 0.0
H292 H 0.48711 0.54796 0.52295 0.0
H293 H 0.45414 0.54631 0.40156 0.0
H294 H 0.41169 0.4899 0.56209 0.0
H295 H 0.44463 0.49126 0.68139 0.0
C296 C 0.37682 0.49362 0.31289 0.0
C297 C 0.36808 0.5165 0.27193 0.0
C298 C 0.39718 0.49408 0.37633 0.0
C299 C 0.40928 0.51749 0.40032 0.0
C300 C 0.4006 0.54039 0.35783 0.0
C301 C 0.38016 0.53988 0.29431 0.0
C302 C 0.47084 0.53504 0.53153 0.0
C303 C 0.46847 0.51976 0.6118 0.0
C304 C 0.45183 0.53423 0.46241 0.0
C305 C 0.43013 0.518 0.4718 0.0
C306 C 0.4282 0.50239 0.55149 0.0
C307 C 0.44708 0.50326 0.62035 0.0
H308 H 0.03664 0.34078 0.38311 0.0
H309 H 0.0363 0.39838 0.16748 0.0
H310 H 0.03555 0.37474 0.50136 0.0
H311 H 0.03563 0.43265 0.28541 0.0
H312 H 1.0099 0.48578 0.5317 0.0
H313 H 1.00967 0.45313 0.40802 0.0
H314 H 0.06387 0.40715 0.56336 0.0
H315 H 0.06375 0.43937 0.68637 0.0
C316 C 0.03632 0.36079 0.36131 0.0
C317 C 0.03664 0.36708 0.26673 0.0
C318 C 0.03587 0.38029 0.42885 0.0
C319 C 0.03577 0.40656 0.40324 0.0
C320 C 0.03553 0.41271 0.3079 0.0
C321 C 0.03604 0.39314 0.24033 0.0
C322 C 1.02188 0.46876 0.53881 0.0
C323 C 0.03671 0.46509 0.61913 0.0
C324 C 1.0218 0.45005 0.46792 0.0
C325 C 0.0365 0.42725 0.476 0.0
C326 C 0.05185 0.4241 0.55539 0.0
C327 C 0.05195 0.44273 0.62578 0.0
H328 H 0.84929 0.0467 0.18759 0.0
H329 H 0.90522 1.013 0.37166 0.0
H330 H 0.88078 0.04556 0.06034 0.0
H331 H 0.93722 1.01245 0.24435 0.0
H332 H 0.99196 0.04304 1.00197 0.0
H333 H 0.96234 0.04387 0.13593 0.0
H334 H 0.90278 1.00979 0.96777 0.0
H335 H 0.9324 1.00845 0.83507 0.0
C336 C 0.86836 0.03904 0.20078 0.0
C337 C 0.87475 0.0296 0.28896 0.0
C338 C 0.88642 0.03839 0.12788 0.0
C339 C 0.91146 0.02868 0.14185 0.0
C340 C 0.91812 1.02007 0.23133 0.0
C341 C 0.89984 1.02035 0.30407 0.0
C342 C 0.97265 0.03542 0.99408 0.0
C343 C 0.96457 0.0256 0.90787 0.0
C344 C 0.95569 0.03591 0.07078 0.0
C345 C 0.93014 0.02705 0.06239 0.0
C346 C 0.92223 1.01703 0.97634 0.0
C347 C 0.93926 1.01615 0.90036 0.0
H348 H 0.54093 0.84093 0.13218 0.0
H349 H 0.54256 0.89852 0.34812 0.0
H350 H 0.53998 0.87491 0.01422 0.0
H351 H 0.54206 0.93278 0.23057 0.0
H352 H 0.51403 0.98591 0.99105 0.0
H353 H 0.51523 0.95324 0.11383 0.0
H354 H 0.56759 0.90735 0.94688 0.0
H355 H 0.56597 0.93969 0.82424 0.0
C356 C 0.54111 0.86095 0.15408 0.0
C357 C 0.54184 0.86724 0.24865 0.0
C358 C 0.54075 0.88045 0.08671 0.0
C359 C 0.54114 0.90671 0.11256 0.0
C360 C 0.54153 0.91285 0.20793 0.0
C361 C 0.54194 0.89329 0.27527 0.0
C362 C 0.52593 0.96892 0.98109 0.0
C363 C 0.53974 0.96529 0.89764 0.0
C364 C 0.52669 0.9502 0.05155 0.0
C365 C 0.54127 0.92742 0.04008 0.0
C366 C 0.55569 0.92431 0.95755 0.0
C367 C 0.55494 0.94298 0.88739 0.0
H368 H 0.71637 0.53978 0.15359 0.0
H369 H 0.65948 0.53834 0.37337 0.0
H370 H 0.68202 0.5393 0.03782 0.0
H371 H 0.62485 0.5383 0.25807 0.0
H372 H 0.57086 0.51324 0.01721 0.0
H373 H 0.60404 0.5129 0.13768 0.0
H374 H 0.64919 0.56725 0.9775 0.0
H375 H 0.61639 0.56719 0.8573 0.0
C376 C 0.69643 0.53935 0.17684 0.0
C377 C 0.69046 0.53913 0.2719 0.0
C378 C 0.67671 0.53926 0.11072 0.0
C379 C 0.65052 0.53899 0.13825 0.0
C380 C 0.64471 0.53832 0.23404 0.0
C381 C 0.6645 0.53845 0.30015 0.0
C382 C 0.5878 0.52523 0.00829 0.0
C383 C 0.59105 0.54011 0.9274 0.0
C384 C 0.60683 0.5251 0.07741 0.0
C385 C 0.62955 0.53982 0.06713 0.0
C386 C 0.6323 0.55522 0.98717 0.0
C387 C 0.61335 0.55536 0.91842 0.0
H388 H 1.0168 0.65098 0.40541 0.0
H389 H 0.03796 0.70683 0.19656 0.0
H390 H 1.01512 0.61714 0.28553 0.0
H391 H 0.03598 0.67341 0.07699 0.0
H392 H 0.99941 0.61595 0.87742 0.0
H393 H 1.0014 0.64729 1.00349 0.0
H394 H 0.04349 0.59262 0.17034 0.0
H395 H 0.04158 0.56106 0.04304 0.0
C396 C 1.02114 0.65595 0.33388 0.0
C397 C 0.02719 0.6815 0.30979 0.0
C398 C 1.02026 0.63661 0.26535 0.0
C399 C 0.02511 0.6426 0.17136 0.0
C400 C 0.03166 0.66819 0.14829 0.0
C401 C 0.03283 0.68736 0.21677 0.0
C402 C 1.00899 0.6105 0.94109 0.0
C403 C 1.02047 0.58604 0.94992 0.0
C404 C 1.01027 0.62856 0.01326 0.0
C405 C 1.02285 0.62262 0.09681 0.0
C406 C 0.03361 0.59781 0.10702 0.0
C407 C 0.03257 0.57976 0.0341 0.0
H408 H 0.93899 0.26821 0.1821 0.0
H409 H 1.00342 0.26962 0.36931 0.0
H410 H 0.91616 0.23863 0.28569 0.0
H411 H 0.98192 0.23893 0.46939 0.0
H412 H 0.9262 0.15021 0.33064 0.0
H413 H 0.92481 0.19526 0.28947 0.0
H414 H 0.95404 0.21555 0.56075 0.0
H415 H 0.95767 0.17005 0.59841 0.0
C416 C 0.94773 0.26301 0.24762 0.0
C417 C 0.97306 0.27067 0.26738 0.0
C418 C 0.93489 0.24575 0.3064 0.0
C419 C 0.94764 0.23521 0.38371 0.0
C420 C 0.97134 0.24621 0.41043 0.0
C421 C 0.98386 0.26394 0.35285 0.0
C422 C 0.93209 0.16428 0.38195 0.0
C423 C 0.94313 0.1564 0.46603 0.0
C424 C 0.93082 0.19039 0.35909 0.0
C425 C 0.94018 0.20932 0.42059 0.0
C426 C 0.94758 0.20154 0.51019 0.0
C427 C 0.94936 0.17533 0.53231 0.0
H428 H 0.26507 0.99312 0.35013 0.0
H429 H 0.29777 0.93703 0.16087 0.0
H430 H 0.29484 0.97927 0.4694 0.0
H431 H 0.32831 0.92399 0.27931 0.0
H432 H 0.39492 0.92264 0.48039 0.0
H433 H 0.3496 0.91495 0.44096 0.0
H434 H 0.33828 0.997 0.40878 0.0
H435 H 0.38294 1.00461 0.44074 0.0
C436 C 0.27749 0.97677 0.33549 0.0
C437 C 0.28014 0.96709 0.24469 0.0
C438 C 0.29463 0.96885 0.4041 0.0
C439 C 0.31468 0.9516 0.38162 0.0
C440 C 0.3134 0.93777 0.29788 0.0
C441 C 0.29602 0.94543 0.22961 0.0
C442 C 0.38271 0.93903 0.4651 0.0
C443 C 0.39282 0.9643 0.46385 0.0
C444 C 0.35669 0.93458 0.44422 0.0
C445 C 0.34027 0.95538 0.42421 0.0
C446 C 0.35015 0.98058 0.42724 0.0
C447 C 0.37602 0.98495 0.44555 0.0
H448 H 0.54412 0.28556 0.37274 0.0
H449 H 0.61146 0.28838 0.19561 0.0
H450 H 0.56368 0.31626 0.4775 0.0
H451 H 0.63202 0.31828 0.30313 0.0
H452 H 0.61829 0.40667 0.35261 0.0
H453 H 0.62015 0.36191 0.30518 0.0
H454 H 0.59173 0.33859 0.57582 0.0
H455 H 0.58908 0.38391 0.62183 0.0
C456 C 0.56386 0.29148 0.35959 0.0
C457 C 0.5761 0.28515 0.2755 0.0
C458 C 0.5752 0.30924 0.41972 0.0
C459 C 0.59908 0.32067 0.3968 0.0
C460 C 0.61319 0.31061 0.32101 0.0
C461 C 0.60163 0.2932 0.26003 0.0
C462 C 0.61329 0.39195 0.40302 0.0
C463 C 0.603 0.39874 0.48997 0.0
C464 C 0.6145 0.3661 0.37616 0.0
C465 C 0.60562 0.34645 0.43607 0.0
C466 C 0.59812 0.3532 0.52707 0.0
C467 C 0.59661 0.37913 0.5535 0.0
H468 H 0.27184 0.55119 0.38473 0.0
H469 H 0.2652 0.61472 0.19337 0.0
H470 H 0.24034 0.57121 0.48669 0.0
H471 H 0.23435 0.63576 0.29769 0.0
H472 H 0.14687 0.61811 0.35578 0.0
H473 H 0.19136 0.62161 0.30513 0.0
H474 H 0.21685 0.60013 0.57999 0.0
H475 H 0.17187 0.59576 0.62937 0.0
C476 C 0.26486 0.57031 0.36755 0.0
C477 C 0.2704 0.58118 0.28057 0.0
C478 C 0.24663 0.5819 0.42607 0.0
C479 C 0.23391 0.60468 0.3986 0.0
C480 C 0.24306 0.61775 0.31927 0.0
C481 C 0.261 0.60592 0.26005 0.0
C482 C 0.16197 0.61503 0.40624 0.0
C483 C 0.15598 0.60611 0.49571 0.0
C484 C 0.18765 0.61718 0.37748 0.0
C485 C 0.2079 0.61065 0.43797 0.0
C486 C 0.20179 0.60468 0.5309 0.0
C487 C 0.17606 0.60221 0.55927 0.0
H488 H 0.97228 0.80894 0.21053 0.0
H489 H 0.0411 0.76513 0.14917 0.0
H490 H 0.98114 0.83689 0.0802 0.0
H491 H 0.04977 0.79261 0.01523 0.0
H492 H 0.08236 0.87791 0.03451 0.0
H493 H 0.06738 0.83365 0.04881 0.0
H494 H 0.99303 0.85619 0.94004 0.0
H495 H 1.00791 0.90084 0.93205 0.0
C496 C 0.98848 0.80438 0.16536 0.0
C497 C 1.00659 0.78574 0.19172 0.0
C498 C 0.99366 0.8204 0.08991 0.0
C499 C 1.01704 0.81787 0.04006 0.0
C500 C 0.03218 0.79571 0.05481 0.0
C501 C 0.02707 0.77976 0.13098 0.0
C502 C 0.06312 0.8731 0.01128 0.0
C503 C 0.04604 0.89251 0.98424 0.0
C504 C 0.0545 0.84766 0.01815 0.0
C505 C 0.02866 0.84134 0.99757 0.0
C506 C 1.01277 0.86046 0.95878 0.0
C507 C 1.02124 0.88597 0.95411 0.0
H508 H 0.74651 0.98238 0.18405 0.0
H509 H 0.78933 0.0533 0.15458 0.0
H510 H 0.72073 0.99362 0.05065 0.0
H511 H 0.76381 0.06458 0.01873 0.0
H512 H 0.67552 0.09121 0.02243 0.0
H513 H 0.72013 0.0791 0.04682 0.0
H514 H 0.70751 1.00744 0.89978 0.0
H515 H 0.66243 1.01928 0.87881 0.0
C516 C 0.75118 0.9998 0.1459 0.0
C517 C 0.76916 1.01739 0.18092 0.0
C518 C 0.73657 1.00625 0.06864 0.0
C519 C 0.73963 0.03051 0.02592 0.0
C520 C 0.76061 0.04607 0.05176 0.0
C521 C 0.77529 0.03956 0.12923 0.0
C522 C 0.68252 0.07332 0.99238 0.0
C523 C 0.66542 0.0558 0.95155 0.0
C524 C 0.70825 0.06641 1.00543 0.0
C525 C 0.71722 0.04191 0.9774 0.0
C526 C 0.70098 0.02614 0.92424 0.0
C527 C 0.67517 0.03286 0.91267 0.0
H528 H 0.44151 0.76866 0.34293 0.0
H529 H 0.50496 0.77362 0.14843 0.0
H530 H 0.41948 0.73859 0.23993 0.0
H531 H 0.48397 0.74282 0.04789 0.0
H532 H 0.45902 0.67449 0.91099 0.0
H533 H 0.45474 0.71968 0.95704 0.0
H534 H 0.43248 0.69534 0.23377 0.0
H535 H 0.43589 0.65069 0.18644 0.0
C536 C 0.45012 0.76424 0.27594 0.0
C537 C 0.47511 0.77289 0.25416 0.0
C538 C 0.43771 0.74676 0.2174 0.0
C539 C 0.45045 0.73727 0.13768 0.0
C540 C 0.47352 0.74936 0.10891 0.0
C541 C 0.48568 0.76716 0.16668 0.0
C542 C 0.45239 0.67898 0.98074 0.0
C543 C 0.44833 0.65919 0.0459 0.0
C544 C 0.44997 0.70484 0.00721 0.0
C545 C 0.44393 0.71133 0.09981 0.0
C546 C 0.43703 0.69135 0.16165 0.0
C547 C 0.43913 0.66556 0.1348 0.0
H548 H 0.7849 0.50177 0.17072 0.0
H549 H 0.79011 0.43941 0.36762 0.0
H550 H 0.81593 0.48039 0.07064 0.0
H551 H 0.82048 0.417 0.26522 0.0
H552 H 0.90833 0.43322 0.20791 0.0
H553 H 0.86372 0.43026 0.25733 0.0
H554 H 0.83903 0.4505 0.98027 0.0
H555 H 0.88416 0.45434 0.93208 0.0
C556 C 0.79147 0.48263 0.18965 0.0
C557 C 0.78571 0.47249 0.27758 0.0
C558 C 0.80941 0.47024 0.13216 0.0
C559 C 0.82163 0.44739 0.16167 0.0
C560 C 0.81218 0.43505 0.24207 0.0
C561 C 0.79454 0.44767 0.30026 0.0
C562 C 0.89338 0.43611 0.15673 0.0
C563 C 0.89964 0.4446 0.06695 0.0
C564 C 0.86762 0.43426 0.18479 0.0
C565 C 0.84757 0.4407 0.12329 0.0
C566 C 0.85394 0.44607 0.03011 0.0
C567 C 0.87976 0.44824 1.00242 0.0
H568 H 0.06213 0.23652 0.04086 0.0
H569 H 0.98386 0.23702 0.94164 0.0
H570 H 0.06916 0.19432 0.96746 0.0
H571 H 0.99055 0.19493 0.86978 0.0
H572 H 1.01213 0.12384 0.70738 0.0
H573 H 1.01167 0.16915 0.75283 0.0
H574 H 0.05474 0.15046 0.99945 0.0
H575 H 0.05562 0.10517 0.95326 0.0
C576 C 0.04669 0.22795 1.00103 0.0
C577 C 1.02248 0.24013 0.99675 0.0
C578 C 0.05055 0.20359 0.96013 0.0
C579 C 0.03034 0.19094 0.91338 0.0
C580 C 1.00666 0.204 0.90434 0.0
C581 C 1.00278 0.22818 0.94565 0.0
C582 C 1.02177 0.12935 0.77088 0.0
C583 C 0.03379 0.11064 0.82681 0.0
C584 C 1.02139 0.15542 0.7972 0.0
C585 C 0.03307 0.16362 0.88017 0.0
C586 C 0.04582 0.14503 0.93454 0.0
C587 C 0.04615 0.11893 0.9083 0.0
H588 H 0.31784 0.97881 0.92295 0.0
H589 H 0.31731 0.05662 0.02898 0.0
H590 H 0.36101 0.98527 0.85982 0.0
H591 H 0.36062 0.06357 0.96347 0.0
H592 H 0.44991 0.05174 0.95283 0.0
H593 H 0.40426 0.05016 0.99638 0.0
H594 H 0.3884 1.00531 0.75024 0.0
H595 H 0.43398 1.00592 0.70982 0.0
C596 C 0.32671 0.99764 0.93009 0.0
C597 C 0.31407 1.01723 0.98054 0.0
C598 C 0.35156 1.0014 0.89383 0.0
C599 C 0.36465 1.02492 0.90692 0.0
C600 C 0.3514 0.04506 0.95314 0.0
C601 C 0.32638 0.04127 0.98933 0.0
C602 C 0.43667 0.04159 0.90789 0.0
C603 C 0.44577 0.02904 0.82725 0.0
C604 C 0.41035 0.0409 0.9324 0.0
C605 C 0.39237 0.02762 0.87701 0.0
C606 C 0.40151 1.0155 0.79554 0.0
C607 C 0.42776 1.0161 0.77148 0.0
H608 H 0.57099 0.32059 0.94875 0.0
H609 H 0.49197 0.32287 0.04433 0.0
H610 H 0.56637 0.36366 0.88283 0.0
H611 H 0.48708 0.36609 0.97734 0.0
H612 H 0.50405 0.45467 0.97792 0.0
H613 H 0.50373 0.40895 0.01912 0.0
H614 H 0.54631 0.39117 0.76797 0.0
H615 H 0.54707 0.43682 0.72815 0.0
C616 C 0.55236 0.33005 0.95301 0.0
C617 C 0.53182 0.31833 1.00132 0.0
C618 C 0.54968 0.35478 0.91532 0.0
C619 C 0.52642 0.36856 0.92561 0.0
C620 C 0.50538 0.3562 0.96931 0.0
C621 C 0.50802 0.33129 0.00643 0.0
C622 C 0.51326 0.44101 0.93128 0.0
C623 C 0.52561 0.44953 0.84954 0.0
C624 C 0.51285 0.41471 0.95446 0.0
C625 C 0.52492 0.39625 0.89679 0.0
C626 C 0.53696 0.40478 0.81444 0.0
C627 C 0.53726 0.43102 0.79119 0.0
H628 H 0.23543 0.49251 0.06485 0.0
H629 H 0.237 0.5697 0.95353 0.0
H630 H 0.19262 0.4858 0.99751 0.0
H631 H 0.19433 0.56333 0.88744 0.0
H632 H 0.12197 0.54125 0.73615 0.0
H633 H 0.16744 0.54146 0.7768 0.0
H634 H 0.1493 0.50197 0.03318 0.0
H635 H 0.10376 0.50127 0.99115 0.0
C636 C 0.22697 0.50773 0.02347 0.0
C637 C 0.23962 0.53157 0.01398 0.0
C638 C 0.20226 0.50407 0.98613 0.0
C639 C 0.18977 0.52413 0.93787 0.0
C640 C 0.20328 0.54735 0.92341 0.0
C641 C 0.2278 0.55104 0.96122 0.0
C642 C 0.12762 0.53232 0.80058 0.0
C643 C 0.10903 0.52128 0.86012 0.0
C644 C 0.15379 0.53257 0.8243 0.0
C645 C 0.1622 0.52175 0.90845 0.0
C646 C 0.14368 0.51017 0.96719 0.0
C647 C 0.11746 0.50998 0.94344 0.0
H648 H 0.99522 0.8114 0.60762 0.0
H649 H 0.05488 0.83208 0.41119 0.0
H650 H 0.99738 0.85499 0.67555 0.0
H651 H 0.057 0.8753 0.47775 0.0
H652 H 0.02497 0.95715 0.518 0.0
H653 H 0.02619 0.91196 0.47103 0.0
H654 H 0.02493 0.88858 0.75833 0.0
H655 H 1.02355 0.93406 0.80612 0.0
C656 C 1.00936 0.82495 0.58109 0.0
C657 C 0.02491 0.8183 0.50426 0.0
C658 C 1.01048 0.84999 0.61937 0.0
C659 C 0.02698 0.86888 0.58073 0.0
C660 C 0.04367 0.86151 0.50798 0.0
C661 C 0.04269 0.83661 0.47054 0.0
C662 C 0.02489 0.94247 0.57151 0.0
C663 C 1.02422 0.94941 0.66599 0.0
C664 C 0.02578 0.91647 0.54451 0.0
C665 C 0.02582 0.89655 0.61105 0.0
C666 C 1.02479 0.90341 0.70554 0.0
C667 C 1.02415 0.9295 0.73273 0.0
H668 H 0.74141 0.05758 0.53824 0.0
H669 H 0.73275 0.97622 0.48588 0.0
H670 H 0.69779 0.05902 0.60547 0.0
H671 H 0.68956 0.97727 0.55463 0.0
H672 H 0.60333 0.99523 0.54555 0.0
H673 H 0.64889 0.9933 0.50366 0.0
H674 H 0.66642 0.04717 0.72321 0.0
H675 H 0.62058 0.04885 0.76587 0.0
C676 C 0.73058 0.0398 0.54483 0.0
C677 C 0.74064 1.01672 0.50798 0.0
C678 C 0.70544 0.04061 0.58268 0.0
C679 C 0.68974 1.01836 0.58398 0.0
C680 C 0.70068 0.99496 0.5529 0.0
C681 C 0.72566 0.9942 0.51499 0.0
C682 C 0.61687 1.00656 0.58543 0.0
C683 C 0.60819 1.02204 0.65964 0.0
C684 C 0.64316 1.00529 0.56191 0.0
C685 C 0.66167 1.01968 0.61112 0.0
C686 C 0.6529 0.03559 0.68427 0.0
C687 C 0.62658 0.03651 0.70895 0.0
H688 H 0.48523 0.73916 0.57931 0.0
H689 H 0.56341 0.73707 0.47486 0.0
H690 H 0.49095 0.6967 0.64881 0.0
H691 H 0.56947 0.69454 0.546 0.0
H692 H 0.55444 0.6059 0.55714 0.0
H693 H 0.55382 0.65125 0.5119 0.0
H694 H 0.51159 0.67001 0.76292 0.0
H695 H 0.5117 0.62463 0.8067 0.0
C696 C 0.50393 0.72989 0.5737 0.0
C697 C 0.52387 0.74148 0.5217 0.0
C698 C 0.50725 0.7055 0.61361 0.0
C699 C 0.5306 0.69192 0.60224 0.0
C700 C 0.55109 0.70423 0.55493 0.0
C701 C 0.54779 0.72878 0.51538 0.0
C702 C 0.54512 0.61968 0.60298 0.0
C703 C 0.53308 0.61146 0.68576 0.0
C704 C 0.54498 0.64581 0.57742 0.0
C705 C 0.53271 0.66446 0.63373 0.0
C706 C 0.52106 0.65626 0.71728 0.0
C707 C 0.52125 0.63016 0.74285 0.0
H708 H 0.81806 0.48426 0.60417 0.0
H709 H 0.82157 0.56152 0.49401 0.0
H710 H 0.86049 0.48979 0.67308 0.0
H711 H 0.86408 0.56741 0.56451 0.0
H712 H 0.93308 0.51005 0.82739 0.0
H713 H 0.88769 0.51053 0.78478 0.0
H714 H 0.9071 0.55096 0.53151 0.0
H715 H 0.95244 0.55099 0.57546 0.0
C716 C 0.82762 0.50276 0.59726 0.0
C717 C 0.81642 0.52247 0.54382 0.0
C718 C 0.85201 0.50597 0.6368 0.0
C719 C 0.86602 0.52896 0.62362 0.0
C720 C 0.85409 0.54929 0.5749 0.0
C721 C 0.82953 0.5461 0.53571 0.0
C722 C 0.9277 0.51932 0.76325 0.0
C723 C 0.9466 0.53045 0.70514 0.0
C724 C 0.90158 0.51947 0.73836 0.0
C725 C 0.89354 0.53079 0.6545 0.0
C726 C 0.91239 0.5424 0.59727 0.0
C727 C 0.93852 0.54219 0.62214 0.0
loop_
_geom_bond_atom_site_label_1
_geom_bond_atom_site_label_2
_geom_bond_distance
_geom_bond_site_symmetry_2
_ccdc_geom_bond_type
H0 C3 0.929 . S
H1 C6 0.929 . S
H2 C8 0.930 . S
C3 H0 0.929 . S
C3 C4 1.398 . S
C3 C5 1.396 . S
C4 C3 1.398 . S
C4 C8 1.407 . S
C5 C3 1.396 . S
C5 C6 1.394 . S
C6 H1 0.929 . S
C6 C5 1.394 . S
C6 C7 1.382 . S
C7 C6 1.382 . S
C7 C8 1.392 . S
C7 N9 1.420 . S
C8 H2 0.930 . S
C8 C4 1.407 . S
C8 C7 1.392 . S
N9 C7 1.420 . S
N9 C10 1.244 . S
C10 N9 1.244 . S
H11 C14 0.929 . S
H12 C17 0.929 . S
H13 C19 0.930 . S
C14 H11 0.929 . S
C14 C15 1.395 1_655 S
C14 C16 1.395 1_655 S
C15 C14 1.395 1_455 S
C15 C19 1.413 . S
C16 C14 1.395 1_455 S
C16 C17 1.397 . S
C17 H12 0.929 . S
C17 C16 1.397 . S
C17 C18 1.382 . S
C18 C17 1.382 . S
C18 C19 1.392 . S
C18 N20 1.420 . S
C19 H13 0.930 . S
C19 C15 1.413 . S
C19 C18 1.392 . S
N20 C18 1.420 . S
N20 C21 1.232 1_455 S
C21 N20 1.232 1_655 S
H22 C25 0.929 . S
H23 C28 0.929 . S
H24 C30 0.930 . S
C25 H22 0.929 . S
C25 C26 1.395 1_565 S
C25 C27 1.395 1_565 S
C26 C25 1.395 1_545 S
C26 C30 1.413 . S
C27 C25 1.395 1_545 S
C27 C28 1.397 . S
C28 H23 0.929 . S
C28 C27 1.397 . S
C28 C29 1.382 . S
C29 C28 1.382 . S
C29 C30 1.392 . S
C29 N31 1.420 . S
C30 H24 0.930 . S
C30 C26 1.413 . S
C30 C29 1.392 . S
N31 C29 1.420 . S
N31 C32 1.232 1_545 S
C32 N31 1.232 1_565 S
H33 C36 0.929 . S
H34 C39 0.929 . S
H35 C41 0.930 . S
C36 H33 0.929 . S
C36 C37 1.398 . S
C36 C38 1.396 . S
C37 C36 1.398 . S
C37 C41 1.407 . S
C38 C36 1.396 . S
C38 C39 1.394 . S
C39 H34 0.929 . S
C39 C38 1.394 . S
C39 C40 1.382 . S
C40 C39 1.382 . S
C40 C41 1.392 . S
C40 N42 1.420 . S
C41 H35 0.930 . S
C41 C37 1.407 . S
C41 C40 1.392 . S
N42 C40 1.420 . S
N42 C43 1.244 . S
C43 N42 1.244 . S
H44 C47 0.929 . S
H45 C50 0.929 . S
H46 C52 0.930 . S
C47 H44 0.929 . S
C47 C48 1.398 1_554 S
C47 C49 1.396 . S
C48 C47 1.398 1_556 S
C48 C52 1.407 . S
C49 C47 1.396 . S
C49 C50 1.394 . S
C50 H45 0.929 . S
C50 C49 1.394 . S
C50 C51 1.382 . S
C51 C50 1.382 . S
C51 C52 1.392 1_554 S
C51 N53 1.420 . S
C52 H46 0.930 . S
C52 C48 1.407 . S
C52 C51 1.392 1_556 S
N53 C51 1.420 . S
N53 C54 1.244 . S
C54 N53 1.244 . S
H55 C58 0.929 . S
H56 C61 0.929 . S
H57 C63 0.930 . S
C58 H55 0.929 . S
C58 C59 1.395 1_654 S
C58 C60 1.394 1_655 S
C59 C58 1.395 1_456 S
C59 C63 1.416 . S
C60 C58 1.394 1_455 S
C60 C61 1.398 . S
C61 H56 0.929 . S
C61 C60 1.398 . S
C61 C62 1.382 . S
C62 C61 1.382 . S
C62 C63 1.392 1_554 S
C62 N64 1.420 . S
C63 H57 0.930 . S
C63 C59 1.416 . S
C63 C62 1.392 1_556 S
N64 C62 1.420 . S
N64 C65 1.237 1_455 S
C65 N64 1.237 1_655 S
H66 C69 0.929 . S
H67 C72 0.929 . S
H68 C74 0.930 . S
C69 H66 0.929 . S
C69 C70 1.395 1_564 S
C69 C71 1.394 1_565 S
C70 C69 1.395 1_546 S
C70 C74 1.416 . S
C71 C69 1.394 1_545 S
C71 C72 1.398 . S
C72 H67 0.929 . S
C72 C71 1.398 . S
C72 C73 1.382 . S
C73 C72 1.382 . S
C73 C74 1.392 1_554 S
C73 N75 1.420 . S
C74 H68 0.930 . S
C74 C70 1.416 . S
C74 C73 1.392 1_556 S
N75 C73 1.420 . S
N75 C76 1.237 1_545 S
C76 N75 1.237 1_565 S
H77 C80 0.929 . S
H78 C83 0.929 . S
H79 C85 0.930 . S
C80 H77 0.929 . S
C80 C81 1.398 1_554 S
C80 C82 1.396 . S
C81 C80 1.398 1_556 S
C81 C85 1.407 . S
C82 C80 1.396 . S
C82 C83 1.394 . S
C83 H78 0.929 . S
C83 C82 1.394 . S
C83 C84 1.382 . S
C84 C83 1.382 . S
C84 C85 1.392 1_554 S
C84 N86 1.420 . S
C85 H79 0.930 . S
C85 C81 1.407 . S
C85 C84 1.392 1_556 S
N86 C84 1.420 . S
N86 C87 1.244 . S
C87 N86 1.244 . S
C88 Eu89 2.835 . S
C88 C90 1.500 . S
C88 O108 1.257 . S
C88 O109 1.260 . S
Eu89 C88 2.835 . S
Eu89 O108 2.473 . S
Eu89 O109 2.480 . S
Eu89 O110 2.430 . S
Eu89 O111 2.670 1_545 S
Eu89 O112 2.394 . S
Eu89 O117 2.355 1_655 S
Eu89 O119 2.374 1_545 S
C90 C88 1.500 . S
C90 C91 1.377 . S
C90 C95 1.377 . S
C91 C90 1.377 . S
C91 C92 1.395 . S
C91 H120 0.931 . S
C92 C91 1.395 . S
C92 C93 1.383 . S
C92 H121 0.931 . S
C93 C92 1.383 . S
C93 C94 1.394 . S
C94 C93 1.394 . S
C94 C95 1.378 . S
C94 H122 0.931 1_655 S
C95 C90 1.377 . S
C95 C94 1.378 . S
C95 H123 0.931 1_655 S
C96 O110 1.259 . S
C96 O111 1.270 1_545 S
C97 O112 1.251 1_455 S
C97 O113 1.251 . S
C98 Eu99 2.835 . S
C98 C100 1.500 . S
C98 O114 1.257 . S
C98 O115 1.260 . S
Eu99 C98 2.835 . S
Eu99 O111 2.355 1_455 S
Eu99 O113 2.374 1_565 S
Eu99 O114 2.473 . S
Eu99 O115 2.480 . S
Eu99 O116 2.430 . S
Eu99 O117 2.670 1_565 S
Eu99 O118 2.394 . S
C100 C98 1.500 . S
C100 C101 1.377 . S
C100 C105 1.377 1_556 S
C101 C100 1.377 . S
C101 C102 1.395 1_556 S
C101 H124 0.931 . S
C102 C101 1.395 1_554 S
C102 C103 1.383 . S
C102 H125 0.931 . S
C103 C102 1.383 . S
C103 C104 1.394 . S
C104 C103 1.394 . S
C104 C105 1.378 . S
C104 H126 0.931 1_455 S
C105 C100 1.377 1_554 S
C105 C104 1.378 . S
C105 H127 0.931 1_455 S
C106 O116 1.282 . S
C106 O117 1.253 1_565 S
C107 O118 1.251 1_655 S
C107 O119 1.251 . S
O108 C88 1.257 . S
O108 Eu89 2.473 . S
O109 C88 1.260 . S
O109 Eu89 2.480 . S
O110 Eu89 2.430 . S
O110 C96 1.259 . S
O111 Eu89 2.670 1_565 S
O111 C96 1.270 1_565 S
O111 Eu99 2.355 1_655 S
O112 Eu89 2.394 . S
O112 C97 1.251 1_655 S
O113 C97 1.251 . S
O113 Eu99 2.374 1_545 S
O114 C98 1.257 . S
O114 Eu99 2.473 . S
O115 C98 1.260 . S
O115 Eu99 2.480 . S
O116 Eu99 2.430 . S
O116 C106 1.282 . S
O117 Eu89 2.355 1_455 S
O117 Eu99 2.670 1_545 S
O117 C106 1.253 1_545 S
O118 Eu99 2.394 . S
O118 C107 1.251 1_455 S
O119 Eu89 2.374 1_565 S
O119 C107 1.251 . S
H120 C91 0.931 . S
H121 C92 0.931 . S
H122 C94 0.931 1_455 S
H123 C95 0.931 1_455 S
H124 C101 0.931 . S
H125 C102 0.931 . S
H126 C104 0.931 1_655 S
H127 C105 0.931 1_655 S
C128 Eu129 2.835 . S
C128 C130 1.500 . S
C128 O148 1.257 . S
C128 O149 1.260 . S
Eu129 C128 2.835 . S
Eu129 O148 2.473 . S
Eu129 O149 2.480 . S
Eu129 O150 2.430 . S
Eu129 O151 2.670 . S
Eu129 O152 2.394 . S
Eu129 O157 2.355 1_565 S
Eu129 O159 2.374 . S
C130 C128 1.500 . S
C130 C131 1.377 . S
C130 C135 1.377 . S
C131 C130 1.377 . S
C131 C132 1.395 . S
C131 H160 0.931 . S
C132 C131 1.395 . S
C132 C133 1.383 . S
C132 H161 0.931 . S
C133 C132 1.383 . S
C133 C134 1.394 . S
C134 C133 1.394 . S
C134 C135 1.378 . S
C134 H162 0.931 1_565 S
C135 C130 1.377 . S
C135 C134 1.378 . S
C135 H163 0.931 1_565 S
C136 O150 1.259 . S
C136 O151 1.270 . S
C137 O152 1.251 1_545 S
C137 O153 1.251 . S
C138 Eu139 2.835 . S
C138 C140 1.500 . S
C138 O154 1.257 . S
C138 O155 1.260 . S
Eu139 C138 2.835 . S
Eu139 O151 2.355 1_545 S
Eu139 O153 2.374 . S
Eu139 O154 2.473 . S
Eu139 O155 2.480 . S
Eu139 O156 2.430 . S
Eu139 O157 2.670 . S
Eu139 O158 2.394 . S
C140 C138 1.500 . S
C140 C141 1.377 . S
C140 C145 1.377 1_556 S
C141 C140 1.377 . S
C141 C142 1.395 1_556 S
C141 H164 0.931 . S
C142 C141 1.395 1_554 S
C142 C143 1.383 . S
C142 H165 0.931 . S
C143 C142 1.383 . S
C143 C144 1.394 . S
C144 C143 1.394 . S
C144 C145 1.378 . S
C144 H166 0.931 1_545 S
C145 C140 1.377 1_554 S
C145 C144 1.378 . S
C145 H167 0.931 1_545 S
C146 O156 1.259 . S
C146 O157 1.270 . S
C147 O158 1.251 1_565 S
C147 O159 1.251 . S
O148 C128 1.257 . S
O148 Eu129 2.473 . S
O149 C128 1.260 . S
O149 Eu129 2.480 . S
O150 Eu129 2.430 . S
O150 C136 1.259 . S
O151 Eu129 2.670 . S
O151 C136 1.270 . S
O151 Eu139 2.355 1_565 S
O152 Eu129 2.394 . S
O152 C137 1.251 1_565 S
O153 C137 1.251 . S
O153 Eu139 2.374 . S
O154 C138 1.257 . S
O154 Eu139 2.473 . S
O155 C138 1.260 . S
O155 Eu139 2.480 . S
O156 Eu139 2.430 . S
O156 C146 1.259 . S
O157 Eu129 2.355 1_545 S
O157 Eu139 2.670 . S
O157 C146 1.270 . S
O158 Eu139 2.394 . S
O158 C147 1.251 1_545 S
O159 Eu129 2.374 . S
O159 C147 1.251 . S
H160 C131 0.931 . S
H161 C132 0.931 . S
H162 C134 0.931 1_545 S
H163 C135 0.931 1_545 S
H164 C141 0.931 . S
H165 C142 0.931 . S
H166 C144 0.931 1_565 S
H167 C145 0.931 1_565 S
C168 Eu169 2.835 . S
C168 C170 1.500 . S
C168 O188 1.257 . S
C168 O189 1.260 . S
Eu169 C168 2.835 . S
Eu169 O188 2.473 . S
Eu169 O189 2.480 . S
Eu169 O190 2.430 . S
Eu169 O191 2.670 . S
Eu169 O192 2.394 . S
Eu169 O197 2.355 . S
Eu169 O199 2.374 . S
C170 C168 1.500 . S
C170 C171 1.377 . S
C170 C175 1.377 . S
C171 C170 1.377 . S
C171 C172 1.395 . S
C171 H200 0.931 . S
C172 C171 1.395 . S
C172 C173 1.383 . S
C172 H201 0.931 . S
C173 C172 1.383 . S
C173 C174 1.394 . S
C174 C173 1.394 . S
C174 C175 1.378 . S
C174 H202 0.931 . S
C175 C170 1.377 . S
C175 C174 1.378 . S
C175 H203 0.931 . S
C176 O190 1.259 . S
C176 O191 1.270 . S
C177 O192 1.251 . S
C177 O193 1.251 . S
C178 Eu179 2.835 . S
C178 C180 1.500 . S
C178 O194 1.257 . S
C178 O195 1.260 . S
Eu179 C178 2.835 . S
Eu179 O191 2.355 . S
Eu179 O193 2.374 . S
Eu179 O194 2.473 . S
Eu179 O195 2.480 . S
Eu179 O196 2.430 . S
Eu179 O197 2.670 . S
Eu179 O198 2.394 . S
C180 C178 1.500 . S
C180 C181 1.377 . S
C180 C185 1.377 1_556 S
C181 C180 1.377 . S
C181 C182 1.395 1_556 S
C181 H204 0.931 . S
C182 C181 1.395 1_554 S
C182 C183 1.383 . S
C182 H205 0.931 . S
C183 C182 1.383 . S
C183 C184 1.394 . S
C184 C183 1.394 . S
C184 C185 1.378 . S
C184 H206 0.931 . S
C185 C180 1.377 1_554 S
C185 C184 1.378 . S
C185 H207 0.931 . S
C186 O196 1.259 . S
C186 O197 1.270 . S
C187 O198 1.251 . S
C187 O199 1.251 . S
O188 C168 1.257 . S
O188 Eu169 2.473 . S
O189 C168 1.260 . S
O189 Eu169 2.480 . S
O190 Eu169 2.430 . S
O190 C176 1.259 . S
O191 Eu169 2.670 . S
O191 C176 1.270 . S
O191 Eu179 2.355 . S
O192 Eu169 2.394 . S
O192 C177 1.251 . S
O193 C177 1.251 . S
O193 Eu179 2.374 . S
O194 C178 1.257 . S
O194 Eu179 2.473 . S
O195 C178 1.260 . S
O195 Eu179 2.480 . S
O196 Eu179 2.430 . S
O196 C186 1.259 . S
O197 Eu169 2.355 . S
O197 Eu179 2.670 . S
O197 C186 1.270 . S
O198 Eu179 2.394 . S
O198 C187 1.251 . S
O199 Eu169 2.374 . S
O199 C187 1.251 . S
H200 C171 0.931 . S
H201 C172 0.931 . S
H202 C174 0.931 . S
H203 C175 0.931 . S
H204 C181 0.931 . S
H205 C182 0.931 . S
H206 C184 0.931 . S
H207 C185 0.931 . S
C208 Eu209 2.835 . S
C208 C210 1.500 . S
C208 O228 1.257 . S
C208 O229 1.260 . S
Eu209 C208 2.835 . S
Eu209 O228 2.473 . S
Eu209 O229 2.480 . S
Eu209 O230 2.430 . S
Eu209 O231 2.670 1_455 S
Eu209 O232 2.394 . S
Eu209 O237 2.355 . S
Eu209 O239 2.374 1_455 S
C210 C208 1.500 . S
C210 C211 1.377 . S
C210 C215 1.377 . S
C211 C210 1.377 . S
C211 C212 1.395 . S
C211 H240 0.931 . S
C212 C211 1.395 . S
C212 C213 1.383 . S
C212 H241 0.931 . S
C213 C212 1.383 . S
C213 C214 1.394 . S
C214 C213 1.394 . S
C214 C215 1.378 . S
C214 H242 0.931 . S
C215 C210 1.377 . S
C215 C214 1.378 . S
C215 H243 0.931 . S
C216 O230 1.270 . S
C216 O231 1.262 1_455 S
C217 O232 1.251 . S
C217 O233 1.251 . S
C218 Eu219 2.835 . S
C218 C220 1.500 . S
C218 O234 1.257 . S
C218 O235 1.260 . S
Eu219 C218 2.835 . S
Eu219 O231 2.355 . S
Eu219 O233 2.374 1_655 S
Eu219 O234 2.473 . S
Eu219 O235 2.480 . S
Eu219 O236 2.430 . S
Eu219 O237 2.670 1_655 S
Eu219 O238 2.394 . S
C220 C218 1.500 . S
C220 C221 1.377 . S
C220 C225 1.377 1_556 S
C221 C220 1.377 . S
C221 C222 1.395 1_556 S
C221 H244 0.931 . S
C222 C221 1.395 1_554 S
C222 C223 1.383 . S
C222 H245 0.931 . S
C223 C222 1.383 . S
C223 C224 1.394 . S
C224 C223 1.394 . S
C224 C225 1.378 . S
C224 H246 0.931 . S
C225 C220 1.377 1_554 S
C225 C224 1.378 . S
C225 H247 0.931 . S
C226 O236 1.265 . S
C226 O237 1.266 1_655 S
C227 O238 1.251 . S
C227 O239 1.251 . S
O228 C208 1.257 . S
O228 Eu209 2.473 . S
O229 C208 1.260 . S
O229 Eu209 2.480 . S
O230 Eu209 2.430 . S
O230 C216 1.270 . S
O231 Eu209 2.670 1_655 S
O231 C216 1.262 1_655 S
O231 Eu219 2.355 . S
O232 Eu209 2.394 . S
O232 C217 1.251 . S
O233 C217 1.251 . S
O233 Eu219 2.374 1_455 S
O234 C218 1.257 . S
O234 Eu219 2.473 . S
O235 C218 1.260 . S
O235 Eu219 2.480 . S
O236 Eu219 2.430 . S
O236 C226 1.265 . S
O237 Eu209 2.355 . S
O237 Eu219 2.670 1_455 S
O237 C226 1.266 1_455 S
O238 Eu219 2.394 . S
O238 C227 1.251 . S
O239 Eu209 2.374 1_655 S
O239 C227 1.251 . S
H240 C211 0.931 . S
H241 C212 0.931 . S
H242 C214 0.931 . S
H243 C215 0.931 . S
H244 C221 0.931 . S
H245 C222 0.931 . S
H246 C224 0.931 . S
H247 C225 0.931 . S
H248 C256 0.950 . S
H249 C261 0.950 . S
H250 C258 0.950 . S
H251 C260 0.950 . S
H252 C262 0.950 . S
H253 C264 0.950 . S
H254 C266 0.950 . S
H255 C267 0.950 . S
C256 H248 0.950 . S
C256 C257 1.361 1_565 S
C256 C258 1.391 . S
C257 C256 1.361 1_545 S
C257 C261 1.418 . S
C258 H250 0.950 . S
C258 C256 1.391 . S
C258 C259 1.385 1_565 S
C259 C258 1.385 1_545 S
C259 C260 1.414 . S
C259 C265 1.490 1_545 S
C260 H251 0.950 . S
C260 C259 1.414 . S
C260 C261 1.391 . S
C261 H249 0.950 . S
C261 C257 1.418 . S
C261 C260 1.391 . S
C262 H252 0.950 . S
C262 C263 1.377 1_545 S
C262 C264 1.391 . S
C263 C262 1.377 1_565 S
C263 C267 1.401 . S
C264 H253 0.950 . S
C264 C262 1.391 . S
C264 C265 1.401 1_545 S
C265 C259 1.490 1_565 S
C265 C264 1.401 1_565 S
C265 C266 1.398 . S
C266 H254 0.950 . S
C266 C265 1.398 . S
C266 C267 1.391 . S
C267 H255 0.950 . S
C267 C263 1.401 . S
C267 C266 1.391 . S
H268 C276 0.950 . S
H269 C281 0.950 . S
H270 C278 0.950 . S
H271 C280 0.950 . S
H272 C282 0.950 . S
H273 C284 0.950 . S
H274 C286 0.950 . S
H275 C287 0.950 . S
C276 H268 0.950 . S
C276 C277 1.386 . S
C276 C278 1.391 . S
C277 C276 1.386 . S
C277 C281 1.393 . S
C278 H270 0.950 . S
C278 C276 1.391 . S
C278 C279 1.400 . S
C279 C278 1.400 . S
C279 C280 1.398 . S
C279 C285 1.491 . S
C280 H271 0.950 . S
C280 C279 1.398 . S
C280 C281 1.391 . S
C281 H269 0.950 . S
C281 C277 1.393 . S
C281 C280 1.391 . S
C282 H272 0.950 . S
C282 C283 1.386 . S
C282 C284 1.391 . S
C283 C282 1.386 . S
C283 C287 1.393 . S
C284 H273 0.950 . S
C284 C282 1.391 . S
C284 C285 1.400 . S
C285 C279 1.491 . S
C285 C284 1.400 . S
C285 C286 1.398 . S
C286 H274 0.950 . S
C286 C285 1.398 . S
C286 C287 1.391 . S
C287 H275 0.950 . S
C287 C283 1.393 . S
C287 C286 1.391 . S
H288 C296 0.950 . S
H289 C301 0.950 . S
H290 C298 0.950 . S
H291 C300 0.950 . S
H292 C302 0.950 . S
H293 C304 0.950 . S
H294 C306 0.950 . S
H295 C307 0.950 . S
C296 H288 0.950 . S
C296 C297 1.386 . S
C296 C298 1.391 . S
C297 C296 1.386 . S
C297 C301 1.393 . S
C298 H290 0.950 . S
C298 C296 1.391 . S
C298 C299 1.400 . S
C299 C298 1.400 . S
C299 C300 1.398 . S
C299 C305 1.491 . S
C300 H291 0.950 . S
C300 C299 1.398 . S
C300 C301 1.391 . S
C301 H289 0.950 . S
C301 C297 1.393 . S
C301 C300 1.391 . S
C302 H292 0.950 . S
C302 C303 1.386 . S
C302 C304 1.391 . S
C303 C302 1.386 . S
C303 C307 1.393 . S
C304 H293 0.950 . S
C304 C302 1.391 . S
C304 C305 1.400 . S
C305 C299 1.491 . S
C305 C304 1.400 . S
C305 C306 1.398 . S
C306 H294 0.950 . S
C306 C305 1.398 . S
C306 C307 1.391 . S
C307 H295 0.950 . S
C307 C303 1.393 . S
C307 C306 1.391 . S
H308 C316 0.950 . S
H309 C321 0.950 . S
H310 C318 0.950 . S
H311 C320 0.950 . S
H312 C322 0.950 . S
H313 C324 0.950 . S
H314 C326 0.950 . S
H315 C327 0.950 . S
C316 H308 0.950 . S
C316 C317 1.386 1_655 S
C316 C318 1.391 . S
C317 C316 1.386 1_455 S
C317 C321 1.393 . S
C318 H310 0.950 . S
C318 C316 1.391 . S
C318 C319 1.383 1_655 S
C319 C318 1.383 1_455 S
C319 C320 1.418 . S
C319 C325 1.490 . S
C320 H311 0.950 . S
C320 C319 1.418 . S
C320 C321 1.391 . S
C321 H309 0.950 . S
C321 C317 1.393 . S
C321 C320 1.391 . S
C322 H312 0.950 . S
C322 C323 1.385 . S
C322 C324 1.391 . S
C323 C322 1.385 . S
C323 C327 1.393 1_455 S
C324 H313 0.950 . S
C324 C322 1.391 . S
C324 C325 1.402 . S
C325 C319 1.490 . S
C325 C324 1.402 . S
C325 C326 1.396 1_455 S
C326 H314 0.950 . S
C326 C325 1.396 1_655 S
C326 C327 1.391 . S
C327 H315 0.950 . S
C327 C323 1.393 1_655 S
C327 C326 1.391 . S
H328 C336 0.950 . S
H329 C341 0.950 . S
H330 C338 0.950 . S
H331 C340 0.950 . S
H332 C342 0.950 . S
H333 C344 0.950 . S
H334 C346 0.950 . S
H335 C347 0.950 . S
C336 H328 0.950 . S
C336 C337 1.394 . S
C336 C338 1.391 . S
C337 C336 1.394 . S
C337 C341 1.386 1_545 S
C338 H330 0.950 . S
C338 C336 1.391 . S
C338 C339 1.404 . S
C339 C338 1.404 . S
C339 C340 1.396 1_545 S
C339 C345 1.490 1_545 S
C340 H331 0.950 . S
C340 C339 1.396 1_565 S
C340 C341 1.391 . S
C341 H329 0.950 . S
C341 C337 1.386 1_565 S
C341 C340 1.391 . S
C342 H332 0.950 . S
C342 C343 1.394 1_554 S
C342 C344 1.391 . S
C343 C342 1.394 1_556 S
C343 C347 1.386 1_565 S
C344 H333 0.950 . S
C344 C342 1.391 . S
C344 C345 1.404 . S
C345 C339 1.490 1_565 S
C345 C344 1.404 . S
C345 C346 1.396 1_564 S
C346 H334 0.950 . S
C346 C345 1.396 1_546 S
C346 C347 1.391 . S
C347 H335 0.950 . S
C347 C343 1.386 1_545 S
C347 C346 1.391 . S
H348 C356 0.950 . S
H349 C361 0.950 . S
H350 C358 0.950 . S
H351 C360 0.950 . S
H352 C362 0.950 . S
H353 C364 0.950 . S
H354 C366 0.951 . S
H355 C367 0.950 . S
C356 H348 0.950 . S
C356 C357 1.386 . S
C356 C358 1.391 . S
C357 C356 1.386 . S
C357 C361 1.393 . S
C358 H350 0.950 . S
C358 C356 1.391 . S
C358 C359 1.400 . S
C359 C358 1.400 . S
C359 C360 1.398 . S
C359 C365 1.491 . S
C360 H351 0.950 . S
C360 C359 1.398 . S
C360 C361 1.391 . S
C361 H349 0.950 . S
C361 C357 1.393 . S
C361 C360 1.391 . S
C362 H352 0.950 . S
C362 C363 1.386 1_554 S
C362 C364 1.391 . S
C363 C362 1.386 1_556 S
C363 C367 1.393 . S
C364 H353 0.950 . S
C364 C362 1.391 . S
C364 C365 1.400 . S
C365 C359 1.491 . S
C365 C364 1.400 . S
C365 C366 1.388 1_554 S
C366 H354 0.951 . S
C366 C365 1.388 1_556 S
C366 C367 1.400 . S
C367 H355 0.950 . S
C367 C363 1.393 . S
C367 C366 1.400 . S
H368 C376 0.950 . S
H369 C381 0.950 . S
H370 C378 0.950 . S
H371 C380 0.950 . S
H372 C382 0.950 . S
H373 C384 0.950 . S
H374 C386 0.950 . S
H375 C387 0.950 . S
C376 H368 0.950 . S
C376 C377 1.386 . S
C376 C378 1.391 . S
C377 C376 1.386 . S
C377 C381 1.393 . S
C378 H370 0.950 . S
C378 C376 1.391 . S
C378 C379 1.400 . S
C379 C378 1.400 . S
C379 C380 1.398 . S
C379 C385 1.491 . S
C380 H371 0.950 . S
C380 C379 1.398 . S
C380 C381 1.391 . S
C381 H369 0.950 . S
C381 C377 1.393 . S
C381 C380 1.391 . S
C382 H372 0.950 . S
C382 C383 1.386 1_554 S
C382 C384 1.391 . S
C383 C382 1.386 1_556 S
C383 C387 1.393 . S
C384 H373 0.950 . S
C384 C382 1.391 . S
C384 C385 1.400 . S
C385 C379 1.491 . S
C385 C384 1.400 . S
C385 C386 1.398 1_554 S
C386 H374 0.950 . S
C386 C385 1.398 1_556 S
C386 C387 1.391 . S
C387 H375 0.950 . S
C387 C383 1.393 . S
C387 C386 1.391 . S
H388 C396 0.950 . S
H389 C401 0.950 . S
H390 C398 0.950 . S
H391 C400 0.950 . S
H392 C402 0.950 . S
H393 C404 0.950 . S
H394 C406 0.950 . S
H395 C407 0.950 . S
C396 H388 0.950 . S
C396 C397 1.406 . S
C396 C398 1.391 . S
C397 C396 1.406 . S
C397 C401 1.373 1_655 S
C398 H390 0.950 . S
C398 C396 1.391 . S
C398 C399 1.424 . S
C399 C398 1.424 . S
C399 C400 1.375 1_655 S
C399 C405 1.491 . S
C400 H391 0.950 . S
C400 C399 1.375 1_455 S
C400 C401 1.391 . S
C401 H389 0.950 . S
C401 C397 1.373 1_455 S
C401 C400 1.391 . S
C402 H392 0.950 . S
C402 C403 1.369 1_455 S
C402 C404 1.391 1_556 S
C403 C402 1.369 1_655 S
C403 C407 1.409 . S
C404 H393 0.950 . S
C404 C402 1.391 1_554 S
C404 C405 1.388 1_455 S
C405 C399 1.491 . S
C405 C404 1.388 1_655 S
C405 C406 1.411 . S
C406 H394 0.950 . S
C406 C405 1.411 . S
C406 C407 1.391 1_554 S
C407 H395 0.950 . S
C407 C403 1.409 . S
C407 C406 1.391 1_556 S
H408 C416 0.950 . S
H409 C421 0.950 . S
H410 C418 0.950 . S
H411 C420 0.949 1_455 S
H412 C422 0.950 . S
H413 C424 0.950 . S
H414 C426 0.950 . S
H415 C427 0.950 . S
C416 H408 0.950 . S
C416 C417 1.368 1_655 S
C416 C418 1.391 . S
C417 C416 1.368 1_455 S
C417 C421 1.400 . S
C418 H410 0.950 . S
C418 C416 1.391 . S
C418 C419 1.400 . S
C419 C418 1.400 . S
C419 C420 1.398 . S
C419 C425 1.491 . S
C420 H411 0.949 1_655 S
C420 C419 1.398 . S
C420 C421 1.391 1_655 S
C421 H409 0.950 . S
C421 C417 1.400 . S
C421 C420 1.391 1_455 S
C422 H412 0.950 . S
C422 C423 1.386 . S
C422 C424 1.391 . S
C423 C422 1.386 . S
C423 C427 1.393 . S
C424 H413 0.950 . S
C424 C422 1.391 . S
C424 C425 1.400 . S
C425 C419 1.491 . S
C425 C424 1.400 . S
C425 C426 1.398 . S
C426 H414 0.950 . S
C426 C425 1.398 . S
C426 C427 1.391 . S
C427 H415 0.950 . S
C427 C423 1.393 . S
C427 C426 1.391 . S
H428 C436 0.950 . S
H429 C441 0.950 . S
H430 C438 0.950 . S
H431 C440 0.950 . S
H432 C442 0.950 . S
H433 C444 0.950 . S
H434 C446 0.950 1_545 S
H435 C447 0.950 1_545 S
C436 H428 0.950 . S
C436 C437 1.386 . S
C436 C438 1.391 . S
C437 C436 1.386 . S
C437 C441 1.393 1_545 S
C438 H430 0.950 . S
C438 C436 1.391 . S
C438 C439 1.400 1_545 S
C439 C438 1.400 1_565 S
C439 C440 1.398 . S
C439 C445 1.491 . S
C440 H431 0.950 . S
C440 C439 1.398 . S
C440 C441 1.391 . S
C441 H429 0.950 . S
C441 C437 1.393 1_565 S
C441 C440 1.391 . S
C442 H432 0.950 . S
C442 C443 1.386 . S
C442 C444 1.391 . S
C443 C442 1.386 . S
C443 C447 1.393 . S
C444 H433 0.950 . S
C444 C442 1.391 . S
C444 C445 1.400 . S
C445 C439 1.491 . S
C445 C444 1.400 . S
C445 C446 1.398 . S
C446 H434 0.950 1_565 S
C446 C445 1.398 . S
C446 C447 1.391 . S
C447 H435 0.950 1_565 S
C447 C443 1.393 . S
C447 C446 1.391 . S
H448 C456 0.950 . S
H449 C461 0.950 . S
H450 C458 0.950 . S
H451 C460 0.950 . S
H452 C462 0.950 . S
H453 C464 0.950 . S
H454 C466 0.950 . S
H455 C467 0.950 . S
C456 H448 0.950 . S
C456 C457 1.386 . S
C456 C458 1.391 . S
C457 C456 1.386 . S
C457 C461 1.393 . S
C458 H450 0.950 . S
C458 C456 1.391 . S
C458 C459 1.400 . S
C459 C458 1.400 . S
C459 C460 1.398 . S
C459 C465 1.491 . S
C460 H451 0.950 . S
C460 C459 1.398 . S
C460 C461 1.391 . S
C461 H449 0.950 . S
C461 C457 1.393 . S
C461 C460 1.391 . S
C462 H452 0.950 . S
C462 C463 1.386 . S
C462 C464 1.391 . S
C463 C462 1.386 . S
C463 C467 1.393 . S
C464 H453 0.950 . S
C464 C462 1.391 . S
C464 C465 1.400 . S
C465 C459 1.491 . S
C465 C464 1.400 . S
C465 C466 1.398 . S
C466 H454 0.950 . S
C466 C465 1.398 . S
C466 C467 1.391 . S
C467 H455 0.950 . S
C467 C463 1.393 . S
C467 C466 1.391 . S
H468 C476 0.950 . S
H469 C481 0.950 . S
H470 C478 0.950 . S
H471 C480 0.950 . S
H472 C482 0.950 . S
H473 C484 0.950 . S
H474 C486 0.950 . S
H475 C487 0.950 . S
C476 H468 0.950 . S
C476 C477 1.386 . S
C476 C478 1.391 . S
C477 C476 1.386 . S
C477 C481 1.393 . S
C478 H470 0.950 . S
C478 C476 1.391 . S
C478 C479 1.400 . S
C479 C478 1.400 . S
C479 C480 1.398 . S
C479 C485 1.491 . S
C480 H471 0.950 . S
C480 C479 1.398 . S
C480 C481 1.391 . S
C481 H469 0.950 . S
C481 C477 1.393 . S
C481 C480 1.391 . S
C482 H472 0.950 . S
C482 C483 1.386 . S
C482 C484 1.391 . S
C483 C482 1.386 . S
C483 C487 1.393 . S
C484 H473 0.950 . S
C484 C482 1.391 . S
C484 C485 1.400 . S
C485 C479 1.491 . S
C485 C484 1.400 . S
C485 C486 1.398 . S
C486 H474 0.950 . S
C486 C485 1.398 . S
C486 C487 1.391 . S
C487 H475 0.950 . S
C487 C483 1.393 . S
C487 C486 1.391 . S
H488 C496 0.950 . S
H489 C501 0.950 . S
H490 C498 0.950 . S
H491 C500 0.950 . S
H492 C502 0.950 . S
H493 C504 0.950 . S
H494 C506 0.950 1_655 S
H495 C507 0.950 . S
C496 H488 0.950 . S
C496 C497 1.386 . S
C496 C498 1.391 . S
C497 C496 1.386 . S
C497 C501 1.393 1_655 S
C498 H490 0.950 . S
C498 C496 1.391 . S
C498 C499 1.400 1_655 S
C499 C498 1.400 1_455 S
C499 C500 1.398 . S
C499 C505 1.491 . S
C500 H491 0.950 . S
C500 C499 1.398 . S
C500 C501 1.391 . S
C501 H489 0.950 . S
C501 C497 1.393 1_455 S
C501 C500 1.391 . S
C502 H492 0.950 . S
C502 C503 1.386 . S
C502 C504 1.391 . S
C503 C502 1.386 . S
C503 C507 1.393 . S
C504 H493 0.950 . S
C504 C502 1.391 . S
C504 C505 1.400 . S
C505 C499 1.491 . S
C505 C504 1.400 . S
C505 C506 1.398 . S
C506 H494 0.950 1_455 S
C506 C505 1.398 . S
C506 C507 1.391 . S
C507 H495 0.950 . S
C507 C503 1.393 . S
C507 C506 1.391 . S
H508 C516 0.950 . S
H509 C521 0.950 . S
H510 C518 0.950 . S
H511 C520 0.950 . S
H512 C522 0.950 . S
H513 C524 0.950 . S
H514 C526 0.950 1_565 S
H515 C527 0.950 1_565 S
C516 H508 0.950 . S
C516 C517 1.386 . S
C516 C518 1.391 . S
C517 C516 1.386 . S
C517 C521 1.393 1_565 S
C518 H510 0.950 . S
C518 C516 1.391 . S
C518 C519 1.400 1_565 S
C519 C518 1.400 1_545 S
C519 C520 1.398 . S
C519 C525 1.491 . S
C520 H511 0.950 . S
C520 C519 1.398 . S
C520 C521 1.391 . S
C521 H509 0.950 . S
C521 C517 1.393 1_545 S
C521 C520 1.391 . S
C522 H512 0.950 . S
C522 C523 1.386 . S
C522 C524 1.391 . S
C523 C522 1.386 . S
C523 C527 1.393 . S
C524 H513 0.950 . S
C524 C522 1.391 . S
C524 C525 1.400 . S
C525 C519 1.491 . S
C525 C524 1.400 . S
C525 C526 1.398 . S
C526 H514 0.950 1_545 S
C526 C525 1.398 . S
C526 C527 1.391 . S
C527 H515 0.950 1_545 S
C527 C523 1.393 . S
C527 C526 1.391 . S
H528 C536 0.950 . S
H529 C541 0.950 . S
H530 C538 0.950 . S
H531 C540 0.950 . S
H532 C542 0.950 1_556 S
H533 C544 0.950 . S
H534 C546 0.950 . S
H535 C547 0.950 . S
C536 H528 0.950 . S
C536 C537 1.386 . S
C536 C538 1.391 . S
C537 C536 1.386 . S
C537 C541 1.393 . S
C538 H530 0.950 . S
C538 C536 1.391 . S
C538 C539 1.400 . S
C539 C538 1.400 . S
C539 C540 1.398 . S
C539 C545 1.491 . S
C540 H531 0.950 . S
C540 C539 1.398 . S
C540 C541 1.391 . S
C541 H529 0.950 . S
C541 C537 1.393 . S
C541 C540 1.391 . S
C542 H532 0.950 1_554 S
C542 C543 1.386 . S
C542 C544 1.391 . S
C543 C542 1.386 . S
C543 C547 1.393 . S
C544 H533 0.950 . S
C544 C542 1.391 . S
C544 C545 1.400 . S
C545 C539 1.491 . S
C545 C544 1.400 . S
C545 C546 1.398 . S
C546 H534 0.950 . S
C546 C545 1.398 . S
C546 C547 1.391 . S
C547 H535 0.950 . S
C547 C543 1.393 . S
C547 C546 1.391 . S
H548 C556 0.950 . S
H549 C561 0.950 . S
H550 C558 0.950 . S
H551 C560 0.950 . S
H552 C562 0.950 . S
H553 C564 0.950 . S
H554 C566 0.950 . S
H555 C567 0.950 1_556 S
C556 H548 0.950 . S
C556 C557 1.386 . S
C556 C558 1.391 . S
C557 C556 1.386 . S
C557 C561 1.393 . S
C558 H550 0.950 . S
C558 C556 1.391 . S
C558 C559 1.400 . S
C559 C558 1.400 . S
C559 C560 1.398 . S
C559 C565 1.491 . S
C560 H551 0.950 . S
C560 C559 1.398 . S
C560 C561 1.391 . S
C561 H549 0.950 . S
C561 C557 1.393 . S
C561 C560 1.391 . S
C562 H552 0.950 . S
C562 C563 1.386 . S
C562 C564 1.391 . S
C563 C562 1.386 . S
C563 C567 1.393 . S
C564 H553 0.950 . S
C564 C562 1.391 . S
C564 C565 1.400 . S
C565 C559 1.491 . S
C565 C564 1.400 . S
C565 C566 1.398 . S
C566 H554 0.950 . S
C566 C565 1.398 . S
C566 C567 1.391 . S
C567 H555 0.950 1_554 S
C567 C563 1.393 . S
C567 C566 1.391 . S
H568 C576 0.950 . S
H569 C581 0.950 . S
H570 C578 0.950 . S
H571 C580 0.950 . S
H572 C582 0.950 . S
H573 C584 0.950 . S
H574 C586 0.950 . S
H575 C587 0.950 . S
C576 H568 0.950 . S
C576 C577 1.386 . S
C576 C578 1.391 . S
C577 C576 1.386 . S
C577 C581 1.393 1_455 S
C578 H570 0.950 . S
C578 C576 1.391 . S
C578 C579 1.400 . S
C579 C578 1.400 . S
C579 C580 1.398 1_455 S
C579 C585 1.491 . S
C580 H571 0.950 . S
C580 C579 1.398 1_655 S
C580 C581 1.391 . S
C581 H569 0.950 . S
C581 C577 1.393 1_655 S
C581 C580 1.391 . S
C582 H572 0.950 . S
C582 C583 1.386 1_655 S
C582 C584 1.391 . S
C583 C582 1.386 1_455 S
C583 C587 1.393 . S
C584 H573 0.950 . S
C584 C582 1.391 . S
C584 C585 1.400 1_655 S
C585 C579 1.491 . S
C585 C584 1.400 1_455 S
C585 C586 1.398 . S
C586 H574 0.950 . S
C586 C585 1.398 . S
C586 C587 1.391 . S
C587 H575 0.950 . S
C587 C583 1.393 . S
C587 C586 1.391 . S
H588 C596 0.950 . S
H589 C601 0.950 . S
H590 C598 0.950 . S
H591 C600 0.950 . S
H592 C602 0.950 . S
H593 C604 0.950 . S
H594 C606 0.950 . S
H595 C607 0.950 . S
C596 H588 0.950 . S
C596 C597 1.386 1_565 S
C596 C598 1.391 . S
C597 C596 1.386 1_545 S
C597 C601 1.393 . S
C598 H590 0.950 . S
C598 C596 1.391 . S
C598 C599 1.400 1_565 S
C599 C598 1.400 1_545 S
C599 C600 1.398 . S
C599 C605 1.491 . S
C600 H591 0.950 . S
C600 C599 1.398 . S
C600 C601 1.391 . S
C601 H589 0.950 . S
C601 C597 1.393 . S
C601 C600 1.391 . S
C602 H592 0.950 . S
C602 C603 1.386 . S
C602 C604 1.391 . S
C603 C602 1.386 . S
C603 C607 1.393 1_545 S
C604 H593 0.950 . S
C604 C602 1.391 . S
C604 C605 1.400 . S
C605 C599 1.491 . S
C605 C604 1.400 . S
C605 C606 1.398 1_545 S
C606 H594 0.950 . S
C606 C605 1.398 1_565 S
C606 C607 1.391 . S
C607 H595 0.950 . S
C607 C603 1.393 1_565 S
C607 C606 1.391 . S
H608 C616 0.950 . S
H609 C621 0.950 . S
H610 C618 0.950 . S
H611 C620 0.950 . S
H612 C622 0.950 . S
H613 C624 0.950 . S
H614 C626 0.950 . S
H615 C627 0.950 . S
C616 H608 0.950 . S
C616 C617 1.386 . S
C616 C618 1.391 . S
C617 C616 1.386 . S
C617 C621 1.393 . S
C618 H610 0.950 . S
C618 C616 1.391 . S
C618 C619 1.400 . S
C619 C618 1.400 . S
C619 C620 1.398 . S
C619 C625 1.491 . S
C620 H611 0.950 . S
C620 C619 1.398 . S
C620 C621 1.391 . S
C621 H609 0.950 . S
C621 C617 1.393 . S
C621 C620 1.391 . S
C622 H612 0.950 . S
C622 C623 1.386 . S
C622 C624 1.391 . S
C623 C622 1.386 . S
C623 C627 1.393 . S
C624 H613 0.950 . S
C624 C622 1.391 . S
C624 C625 1.400 . S
C625 C619 1.491 . S
C625 C624 1.400 . S
C625 C626 1.398 . S
C626 H614 0.950 . S
C626 C625 1.398 . S
C626 C627 1.391 . S
C627 H615 0.950 . S
C627 C623 1.393 . S
C627 C626 1.391 . S
H628 C636 0.950 . S
H629 C641 0.950 . S
H630 C638 0.950 . S
H631 C640 0.950 . S
H632 C642 0.950 . S
H633 C644 0.950 . S
H634 C646 0.950 . S
H635 C647 0.950 . S
C636 H628 0.950 . S
C636 C637 1.386 . S
C636 C638 1.391 . S
C637 C636 1.386 . S
C637 C641 1.393 . S
C638 H630 0.950 . S
C638 C636 1.391 . S
C638 C639 1.400 . S
C639 C638 1.400 . S
C639 C640 1.398 . S
C639 C645 1.491 . S
C640 H631 0.950 . S
C640 C639 1.398 . S
C640 C641 1.391 . S
C641 H629 0.950 . S
C641 C637 1.393 . S
C641 C640 1.391 . S
C642 H632 0.950 . S
C642 C643 1.386 . S
C642 C644 1.391 . S
C643 C642 1.386 . S
C643 C647 1.393 . S
C644 H633 0.950 . S
C644 C642 1.391 . S
C644 C645 1.400 . S
C645 C639 1.491 . S
C645 C644 1.400 . S
C645 C646 1.398 . S
C646 H634 0.950 . S
C646 C645 1.398 . S
C646 C647 1.391 . S
C647 H635 0.950 . S
C647 C643 1.393 . S
C647 C646 1.391 . S
H648 C656 0.950 . S
H649 C661 0.951 . S
H650 C658 0.950 . S
H651 C660 0.947 1_455 S
H652 C662 0.950 . S
H653 C664 0.950 . S
H654 C666 0.950 . S
H655 C667 0.950 . S
C656 H648 0.950 . S
C656 C657 1.389 . S
C656 C658 1.391 . S
C657 C656 1.389 . S
C657 C661 1.392 1_655 S
C658 H650 0.950 . S
C658 C656 1.391 . S
C658 C659 1.400 . S
C659 C658 1.400 . S
C659 C660 1.404 . S
C659 C665 1.491 . S
C660 H651 0.947 1_655 S
C660 C659 1.404 . S
C660 C661 1.389 1_655 S
C661 H649 0.951 . S
C661 C657 1.392 1_455 S
C661 C660 1.389 1_455 S
C662 H652 0.950 . S
C662 C663 1.386 . S
C662 C664 1.391 . S
C663 C662 1.386 . S
C663 C667 1.393 . S
C664 H653 0.950 . S
C664 C662 1.391 . S
C664 C665 1.400 . S
C665 C659 1.491 . S
C665 C664 1.400 . S
C665 C666 1.398 . S
C666 H654 0.950 . S
C666 C665 1.398 . S
C666 C667 1.391 . S
C667 H655 0.950 . S
C667 C663 1.393 . S
C667 C666 1.391 . S
H668 C676 0.950 . S
H669 C681 0.950 . S
H670 C678 0.950 . S
H671 C680 0.950 . S
H672 C682 0.950 . S
H673 C684 0.950 . S
H674 C686 0.950 . S
H675 C687 0.950 . S
C676 H668 0.950 . S
C676 C677 1.386 1_545 S
C676 C678 1.391 . S
C677 C676 1.386 1_565 S
C677 C681 1.393 . S
C678 H670 0.950 . S
C678 C676 1.391 . S
C678 C679 1.400 1_545 S
C679 C678 1.400 1_565 S
C679 C680 1.398 . S
C679 C685 1.491 . S
C680 H671 0.950 . S
C680 C679 1.398 . S
C680 C681 1.391 . S
C681 H669 0.950 . S
C681 C677 1.393 . S
C681 C680 1.391 . S
C682 H672 0.950 . S
C682 C683 1.386 . S
C682 C684 1.391 . S
C683 C682 1.386 . S
C683 C687 1.393 1_565 S
C684 H673 0.950 . S
C684 C682 1.391 . S
C684 C685 1.400 . S
C685 C679 1.491 . S
C685 C684 1.400 . S
C685 C686 1.398 1_565 S
C686 H674 0.950 . S
C686 C685 1.398 1_545 S
C686 C687 1.391 . S
C687 H675 0.950 . S
C687 C683 1.393 1_545 S
C687 C686 1.391 . S
H688 C696 0.950 . S
H689 C701 0.950 . S
H690 C698 0.950 . S
H691 C700 0.950 . S
H692 C702 0.950 . S
H693 C704 0.950 . S
H694 C706 0.950 . S
H695 C707 0.950 . S
C696 H688 0.950 . S
C696 C697 1.386 . S
C696 C698 1.391 . S
C697 C696 1.386 . S
C697 C701 1.393 . S
C698 H690 0.950 . S
C698 C696 1.391 . S
C698 C699 1.400 . S
C699 C698 1.400 . S
C699 C700 1.398 . S
C699 C705 1.491 . S
C700 H691 0.950 . S
C700 C699 1.398 . S
C700 C701 1.391 . S
C701 H689 0.950 . S
C701 C697 1.393 . S
C701 C700 1.391 . S
C702 H692 0.950 . S
C702 C703 1.386 . S
C702 C704 1.391 . S
C703 C702 1.386 . S
C703 C707 1.393 . S
C704 H693 0.950 . S
C704 C702 1.391 . S
C704 C705 1.400 . S
C705 C699 1.491 . S
C705 C704 1.400 . S
C705 C706 1.398 . S
C706 H694 0.950 . S
C706 C705 1.398 . S
C706 C707 1.391 . S
C707 H695 0.950 . S
C707 C703 1.393 . S
C707 C706 1.391 . S
H708 C716 0.950 . S
H709 C721 0.950 . S
H710 C718 0.950 . S
H711 C720 0.950 . S
H712 C722 0.950 . S
H713 C724 0.950 . S
H714 C726 0.950 . S
H715 C727 0.950 . S
C716 H708 0.950 . S
C716 C717 1.386 . S
C716 C718 1.391 . S
C717 C716 1.386 . S
C717 C721 1.393 . S
C718 H710 0.950 . S
C718 C716 1.391 . S
C718 C719 1.400 . S
C719 C718 1.400 . S
C719 C720 1.398 . S
C719 C725 1.491 . S
C720 H711 0.950 . S
C720 C719 1.398 . S
C720 C721 1.391 . S
C721 H709 0.950 . S
C721 C717 1.393 . S
C721 C720 1.391 . S
C722 H712 0.950 . S
C722 C723 1.386 . S
C722 C724 1.391 . S
C723 C722 1.386 . S
C723 C727 1.393 . S
C724 H713 0.950 . S
C724 C722 1.391 . S
C724 C725 1.400 . S
C725 C719 1.491 . S
C725 C724 1.400 . S
C725 C726 1.398 . S
C726 H714 0.950 . S
C726 C725 1.398 . S
C726 C727 1.391 . S
C727 H715 0.950 . S
C727 C723 1.393 . S
C727 C726 1.391 . S
C257 C76 1.828 1_545 S
C263 C106 1.975 . S
C283 C146 1.986 . S
C277 C87 1.854 . S
C303 C186 1.992 . S
C297 C54 1.869 . S
C323 C226 1.984 1_455 S
C317 C65 1.842 1_455 S
C343 C96 1.977 1_565 S
C337 C32 1.848 1_545 S
C357 C43 1.861 . S
C363 C136 1.992 . S
C377 C10 1.863 . S
C383 C176 1.997 . S
C397 C21 1.834 . S
C403 C216 1.986 1_655 S
C423 C93 0.432 . S
C417 C60 0.449 . S
C443 C133 0.485 . S
C437 C71 0.526 . S
C463 C173 0.470 . S
C457 C82 0.515 . S
C477 C49 0.495 . S
C483 C213 0.447 . S
C497 C16 0.472 1_655 S
C503 C103 0.473 . S
C523 C143 0.473 . S
C517 C27 0.468 1_565 S
C543 C183 0.457 . S
C537 C38 0.501 . S
C557 C5 0.491 . S
C563 C223 0.491 . S
C577 C59 2.029 . S
C583 C97 2.268 . S
C597 C70 2.031 . S
C603 C137 2.245 . S
C623 C177 2.226 . S
C617 C81 2.012 . S
C643 C217 2.260 . S
C637 C48 2.008 . S
C657 C15 2.044 1_655 S
C663 C107 2.286 . S
C683 C147 2.241 . S
C677 C26 2.003 1_565 S
C703 C187 2.232 . S
C697 C37 1.991 . S
C717 C4 2.030 . S
C723 C227 2.258 . S
