# Generated by pormake.
# Topology pth, (4,4)-cn, num edge types: 1
# Building blocks:
#     Node 0, Type 0, BuildingBlock: GALJAG_clean_sbu_0, # of connection points: 4
#     Node 1, Type 0, BuildingBlock: GALJAG_clean_sbu_0, # of connection points: 4
#     Node 2, Type 0, BuildingBlock: GALJAG_clean_sbu_0, # of connection points: 4
#     Node 3, Type 1, BuildingBlock: NAWXER_clean_linker_0, # of connection points: 4
#     Node 4, Type 1, BuildingBlock: NAWXER_clean_linker_0, # of connection points: 4
#     Node 5, Type 1, BuildingBlock: NAWXER_clean_linker_0, # of connection points: 4
#     Edge 6, Type (0, 1), BuildingBlock: KIFKEQ_clean_linker_1, # of connection points: 2
#     Edge 7, Type (0, 1), BuildingBlock: KIFKEQ_clean_linker_1, # of connection points: 2
#     Edge 8, Type (0, 1), BuildingBlock: KIFKEQ_clean_linker_1, # of connection points: 2
#     Edge 9, Type (0, 1), BuildingBlock: KIFKEQ_clean_linker_1, # of connection points: 2
#     Edge 10, Type (0, 1), BuildingBlock: KIFKEQ_clean_linker_1, # of connection points: 2
#     Edge 11, Type (0, 1), BuildingBlock: KIFKEQ_clean_linker_1, # of connection points: 2
#     Edge 12, Type (0, 1), BuildingBlock: KIFKEQ_clean_linker_1, # of connection points: 2
#     Edge 13, Type (0, 1), BuildingBlock: KIFKEQ_clean_linker_1, # of connection points: 2
#     Edge 14, Type (0, 1), BuildingBlock: KIFKEQ_clean_linker_1, # of connection points: 2
#     Edge 15, Type (0, 1), BuildingBlock: KIFKEQ_clean_linker_1, # of connection points: 2
#     Edge 16, Type (0, 1), BuildingBlock: KIFKEQ_clean_linker_1, # of connection points: 2
#     Edge 17, Type (0, 1), BuildingBlock: KIFKEQ_clean_linker_1, # of connection points: 2
# Relax obj value: 0.002
# Max RMSD: 0.036
# Mean RMSD: 0.021
data_MOF--net-pth--node1-GALJAG_clean_sbu_0--node2-NAWXER_clean_linker_0--edge1-KIFKEQ_clean_linker_1
_symmetry_space_group_name_H-M    P1
_symmetry_Int_Tables_number       1
_symmetry_cell_setting            triclinic
loop_
_symmetry_equiv_pos_as_xyz
'x, y, z'
_cell_length_a     29.940876
_cell_length_b     29.939009
_cell_length_c     64.825234
_cell_angle_alpha  90.157865
_cell_angle_beta   90.138843
_cell_angle_gamma 120.00431
loop_
_atom_site_label
_atom_site_type_symbol
_atom_site_fract_x
_atom_site_fract_y
_atom_site_fract_z
_atom_type_partial_charge
In0 In 0.00227 0.00265 0.04672 0.0
O1 O 0.96156 0.04425 0.05959 0.0
O2 O 0.03052 0.05736 0.07428 0.0
C3 C 0.92996 0.93794 0.01979 0.0
C4 C 0.07549 0.06998 0.02092 0.0
C5 C 0.00683 0.93259 0.07144 0.0
O6 O 0.91985 0.95961 0.03434 0.0
O7 O 0.9766 0.94937 0.01873 0.0
O8 O 0.04677 0.96988 0.06376 0.0
O9 O 0.9652 0.93095 0.06669 0.0
C10 C 0.99436 0.06734 0.0737 0.0
O11 O 0.08204 0.03872 0.03178 0.0
O12 O 0.03222 0.06698 0.02307 0.0
In13 In 0.00094 0.00407 0.38025 0.0
O14 O 0.04065 0.08654 0.3679 0.0
O15 O 0.96895 0.03148 0.35452 0.0
C16 C 0.07442 0.01012 0.40616 0.0
C17 C 0.92734 0.99794 0.40592 0.0
C18 C 0.99623 0.93118 0.3543 0.0
O19 O 0.08371 0.04398 0.39265 0.0
O20 O 0.02831 0.97374 0.40659 0.0
O21 O 0.96249 0.92123 0.36793 0.0
O22 O 0.03178 0.97765 0.35374 0.0
C23 C 0.00582 0.0774 0.35477 0.0
O24 O 0.91833 0.9638 0.39246 0.0
O25 O 0.97327 0.03477 0.40639 0.0
In26 In 0.00076 0.99875 0.7135 0.0
O27 O 0.95609 0.91566 0.72516 0.0
O28 O 0.94475 0.97219 0.74036 0.0
C29 C 0.06762 0.99224 0.68755 0.0
C30 C 0.9324 0.00483 0.68819 0.0
C31 C 0.0695 0.07256 0.73905 0.0
O32 O 0.04557 0.96032 0.70193 0.0
O33 O 0.05566 0.02697 0.68624 0.0
O34 O 0.04335 0.08141 0.72608 0.0
O35 O 0.06077 0.02677 0.73909 0.0
C36 C 0.93331 0.92559 0.73927 0.0
O37 O 0.9592 0.03979 0.70114 0.0
O38 O 0.94031 0.96721 0.68803 0.0
C39 C 0.96805 0.33516 0.24741 0.0
C40 C 0.00749 0.34881 0.26211 0.0
C41 C 0.96712 0.37277 0.23501 0.0
C42 C 0.00584 0.42469 0.23694 0.0
C43 C 0.04597 0.40089 0.2641 0.0
C44 C 0.04492 0.43849 0.25173 0.0
C45 C 0.00471 0.46512 0.22427 0.0
C46 C 0.03347 0.3658 0.18043 0.0
C47 C 0.99408 0.33978 0.16572 0.0
C48 C 0.035 0.40527 0.1925 0.0
C49 C 0.99689 0.41918 0.19024 0.0
C50 C 0.95625 0.35414 0.16337 0.0
C51 C 0.95786 0.3937 0.17543 0.0
C52 C 0.99863 0.46163 0.2026 0.0
C53 C 0.04517 0.67325 0.17884 0.0
C54 C 0.00509 0.66231 0.16483 0.0
C55 C 0.04331 0.63426 0.19125 0.0
C56 C 0.00157 0.58365 0.18968 0.0
C57 C 0.96338 0.61164 0.16329 0.0
C58 C 0.96197 0.5725 0.17545 0.0
C59 C 5e-05 0.54196 0.20232 0.0
C60 C 0.96694 0.63921 0.24539 0.0
C61 C 0.00226 0.66213 0.26174 0.0
C62 C 0.96803 0.60153 0.233 0.0
C63 C 0.00503 0.58655 0.23645 0.0
C64 C 0.03886 0.64659 0.26532 0.0
C65 C 0.04008 0.60908 0.25285 0.0
C66 C 0.00515 0.54501 0.22402 0.0
H67 H 0.938 0.29534 0.24544 0.0
H68 H 0.93586 0.36133 0.22405 0.0
H69 H 0.0764 0.41272 0.27549 0.0
H70 H 0.07483 0.47842 0.25364 0.0
H71 H 0.06304 0.35549 0.18269 0.0
H72 H 0.06626 0.42523 0.20346 0.0
H73 H 0.92588 0.33542 0.15196 0.0
H74 H 0.92844 0.40425 0.17326 0.0
H75 H 0.07768 0.71205 0.18031 0.0
H76 H 0.07469 0.64348 0.20192 0.0
H77 H 0.93227 0.60219 0.15245 0.0
H78 H 0.92969 0.53359 0.17391 0.0
H79 H 0.93843 0.65043 0.24211 0.0
H80 H 0.9393 0.58353 0.22094 0.0
H81 H 0.06601 0.66272 0.27801 0.0
H82 H 0.06842 0.59757 0.25604 0.0
N83 N 0.00779 0.50669 0.23413 0.0
N84 N 0.99646 0.50018 0.19246 0.0
C85 C 0.67047 0.03449 0.51382 0.0
C86 C 0.65604 0.99554 0.49882 0.0
C87 C 0.63322 0.03648 0.52612 0.0
C88 C 0.58089 0.99923 0.52381 0.0
C89 C 0.60353 0.9586 0.49645 0.0
C90 C 0.56635 0.96063 0.50874 0.0
C91 C 0.54069 0.00137 0.53628 0.0
C92 C 0.63752 0.97055 0.58094 0.0
C93 C 0.66307 0.00982 0.59575 0.0
C94 C 0.59862 0.9693 0.56856 0.0
C95 C 0.58486 0.00756 0.57062 0.0
C96 C 0.64876 0.04776 0.59789 0.0
C97 C 0.60982 0.04641 0.58553 0.0
C98 C 0.54304 0.00625 0.55799 0.0
C99 C 0.32955 0.96406 0.57876 0.0
C100 C 0.34131 0.99749 0.59571 0.0
C101 C 0.3689 0.96654 0.56641 0.0
C102 C 0.4207 0.00339 0.57047 0.0
C103 C 0.39316 0.0336 0.60002 0.0
C104 C 0.43246 0.03646 0.58753 0.0
C105 C 0.463 0.00562 0.55786 0.0
C106 C 0.36905 0.04281 0.51456 0.0
C107 C 0.34643 0.00805 0.498 0.0
C108 C 0.40647 0.04123 0.52696 0.0
C109 C 0.42138 0.00426 0.5233 0.0
C110 C 0.36234 0.97188 0.49411 0.0
C111 C 0.39952 0.97013 0.50659 0.0
C112 C 0.46157 0.00253 0.53607 0.0
H113 H 0.71046 0.06412 0.51577 0.0
H114 H 0.64525 0.06756 0.53722 0.0
H115 H 0.59115 0.9278 0.4852 0.0
H116 H 0.52614 0.9317 0.50661 0.0
H117 H 0.64684 0.94016 0.57918 0.0
H118 H 0.57886 0.93806 0.55757 0.0
H119 H 0.66797 0.07882 0.60898 0.0
H120 H 0.59953 0.0761 0.58747 0.0
H121 H 0.28998 0.93523 0.57531 0.0
H122 H 0.35879 0.93915 0.55386 0.0
H123 H 0.4033 0.06 0.61294 0.0
H124 H 0.47212 0.06477 0.59113 0.0
H125 H 0.35755 0.07101 0.51807 0.0
H126 H 0.4239 0.06911 0.53935 0.0
H127 H 0.34654 0.94524 0.48124 0.0
H128 H 0.41102 0.94184 0.50324 0.0
N129 N 0.5001 -0.00021 0.52619 0.0
N130 N 0.50409 0.00811 0.56792 0.0
C131 C 0.36578 0.33052 0.84711 0.0
C132 C 0.34022 0.34415 0.83235 0.0
C133 C 0.40487 0.36828 0.85942 0.0
C134 C 0.41891 0.42034 0.85729 0.0
C135 C 0.3545 0.39633 0.83022 0.0
C136 C 0.39373 0.43408 0.84248 0.0
C137 C 0.46142 0.46101 0.86966 0.0
C138 C 0.33467 0.36651 0.9146 0.0
C139 C 0.34799 0.33959 0.92878 0.0
C140 C 0.37238 0.40513 0.90229 0.0
C141 C 0.42408 0.41746 0.90392 0.0
C142 C 0.39982 0.35216 0.93042 0.0
C143 C 0.43758 0.39108 0.91822 0.0
C144 C 0.46453 0.45902 0.89134 0.0
C145 C 0.6368 0.67315 0.91173 0.0
C146 C 0.65911 0.66186 0.92855 0.0
C147 C 0.59927 0.63344 0.89958 0.0
C148 C 0.5843 0.58172 0.90367 0.0
C149 C 0.64325 0.6101 0.93294 0.0
C150 C 0.60618 0.57043 0.92061 0.0
C151 C 0.54386 0.53911 0.89114 0.0
C152 C 0.67387 0.63209 0.84756 0.0
C153 C 0.66139 0.65488 0.83126 0.0
C154 C 0.63514 0.59479 0.85996 0.0
C155 C 0.58321 0.58012 0.85654 0.0
C156 C 0.60924 0.63924 0.8276 0.0
C157 C 0.57059 0.60214 0.84007 0.0
C158 C 0.54162 0.54015 0.86935 0.0
H159 H 0.35548 0.29061 0.84917 0.0
H160 H 0.42458 0.35686 0.8704 0.0
H161 H 0.33606 0.40811 0.81878 0.0
H162 H 0.40438 0.4741 0.84043 0.0
H163 H 0.29501 0.35751 0.91295 0.0
H164 H 0.36124 0.42569 0.89164 0.0
H165 H 0.4113 0.33252 0.9414 0.0
H166 H 0.47735 0.40039 0.91985 0.0
H167 H 0.6476 0.71265 0.90825 0.0
H168 H 0.58154 0.64323 0.88714 0.0
H169 H 0.65996 0.60034 0.94577 0.0
H170 H 0.59482 0.53086 0.92425 0.0
H171 H 0.71361 0.64338 0.85087 0.0
H172 H 0.64582 0.57726 0.87217 0.0
H173 H 0.59817 0.65522 0.81494 0.0
H174 H 0.53075 0.59084 0.83692 0.0
N175 N 0.50011 0.50143 0.85952 0.0
N176 N 0.50556 0.49816 0.90124 0.0
H177 H 0.92231 0.09797 0.07476 0.0
H178 H 0.06123 0.12105 0.10483 0.0
H179 H 0.92133 0.16299 0.09732 0.0
H180 H 0.05976 0.18517 0.1276 0.0
H181 H 0.07529 0.33942 0.14676 0.0
H182 H 0.07381 0.27214 0.12507 0.0
H183 H 0.90895 0.17941 0.13324 0.0
H184 H 0.91045 0.24695 0.15494 0.0
C185 C 0.95236 0.11663 0.0863 0.0
C186 C 0.99195 0.10461 0.08798 0.0
C187 C 0.95168 0.15368 0.09929 0.0
C188 C 0.99063 0.17946 0.11419 0.0
C189 C 0.02967 0.16665 0.11607 0.0
C190 C 0.03033 0.12966 0.10311 0.0
C191 C 0.0388 0.30446 0.14411 0.0
C192 C 0.99302 0.29848 0.15262 0.0
C193 C 0.03794 0.26587 0.13168 0.0
C194 C 0.99127 0.22032 0.12747 0.0
C195 C 0.94543 0.21432 0.13596 0.0
C196 C 0.94629 0.25299 0.1484 0.0
H197 H 0.82464 0.92595 0.40648 0.0
H198 H 0.93989 0.06483 0.43692 0.0
H199 H 0.75864 0.92339 0.42937 0.0
H200 H 0.87398 0.06266 0.45957 0.0
H201 H 0.75173 0.01281 0.50994 0.0
H202 H 0.81693 0.01157 0.48782 0.0
H203 H 0.71466 0.97317 0.43539 0.0
H204 H 0.64962 0.97472 0.45743 0.0
C205 C 0.83584 0.95588 0.41806 0.0
C206 C 0.88738 0.9956 0.41991 0.0
C207 C 0.79804 0.95457 0.43109 0.0
C208 C 0.8111 0.99284 0.44628 0.0
C209 C 0.86278 0.03227 0.44821 0.0
C210 C 0.90048 0.03368 0.43514 0.0
C211 C 0.7433 0.00446 0.49366 0.0
C212 C 0.69548 0.99392 0.48545 0.0
C213 C 0.78062 0.00368 0.481 0.0
C214 C 0.77094 0.99227 0.45985 0.0
C215 C 0.72299 0.98132 0.45168 0.0
C216 C 0.68572 0.98221 0.46432 0.0
H217 H 0.89531 0.82145 0.73786 0.0
H218 H 0.8859 0.94025 0.77224 0.0
H219 H 0.83016 0.75589 0.76026 0.0
H220 H 0.82203 0.87511 0.79495 0.0
H221 H 0.66766 0.74309 0.81619 0.0
H222 H 0.73367 0.80743 0.79396 0.0
H223 H 0.81565 0.72277 0.79502 0.0
H224 H 0.74814 0.65694 0.81645 0.0
C225 C 0.87962 0.83355 0.75031 0.0
C226 C 0.89548 0.8859 0.75325 0.0
C227 C 0.84251 0.79605 0.76321 0.0
C228 C 0.82068 0.8102 0.77936 0.0
C229 C 0.83732 0.86275 0.78245 0.0
C230 C 0.87418 0.90014 0.76951 0.0
C231 C 0.69945 0.73785 0.8115 0.0
C232 C 0.70248 0.69474 0.81807 0.0
C233 C 0.7377 0.77514 0.79897 0.0
C234 C 0.78011 0.7704 0.79274 0.0
C235 C 0.78326 0.72736 0.79935 0.0
C236 C 0.74487 0.68995 0.81186 0.0
H237 H 0.08952 0.93927 0.09226 0.0
H238 H 0.92687 0.83817 0.0811 0.0
H239 H 0.0901 0.87572 0.11562 0.0
H240 H 0.92768 0.77356 0.10343 0.0
H241 H 0.93008 0.68738 0.15976 0.0
H242 H 0.932 0.75427 0.13785 0.0
H243 H 0.08542 0.79529 0.11761 0.0
H244 H 0.08399 0.72984 0.1404 0.0
C245 C 0.05405 0.90318 0.09465 0.0
C246 C 0.00812 0.8937 0.08498 0.0
C247 C 0.05435 0.86656 0.10795 0.0
C248 C 0.00886 0.81936 0.11157 0.0
C249 C 0.9632 0.80982 0.10149 0.0
C250 C 0.96276 0.84671 0.08852 0.0
C251 C 0.96416 0.71087 0.15062 0.0
C252 C 0.00682 0.70349 0.1517 0.0
C253 C 0.96525 0.74903 0.13795 0.0
C254 C 0.00872 0.78013 0.12573 0.0
C255 C 0.05157 0.77277 0.12698 0.0
C256 C 0.05075 0.73511 0.13995 0.0
H257 H 0.0605 0.94646 0.43837 0.0
H258 H 0.17827 0.07786 0.40552 0.0
H259 H 0.12595 0.94755 0.46105 0.0
H260 H 0.24423 0.07808 0.42784 0.0
H261 H 0.34349 0.09295 0.48398 0.0
H262 H 0.27738 0.09488 0.46262 0.0
H263 H 0.1943 0.92829 0.45989 0.0
H264 H 0.2588 0.92631 0.48212 0.0
C265 C 0.10047 0.97552 0.43597 0.0
C266 C 0.11432 0.01201 0.42015 0.0
C267 C 0.13805 0.97595 0.44888 0.0
C268 C 0.19044 0.01267 0.44619 0.0
C269 C 0.2042 0.04961 0.4305 0.0
C270 C 0.16648 0.04935 0.41764 0.0
C271 C 0.31076 0.05672 0.47905 0.0
C272 C 0.30646 0.00946 0.48481 0.0
C273 C 0.27318 0.05785 0.46657 0.0
C274 C 0.23049 0.01175 0.45952 0.0
C275 C 0.22628 0.96454 0.46526 0.0
C276 C 0.26369 0.96341 0.47779 0.0
H277 H 0.09913 0.17502 0.74076 0.0
H278 H 0.12628 0.06009 0.76892 0.0
H279 H 0.16432 0.24102 0.76336 0.0
H280 H 0.19032 0.12551 0.79178 0.0
H281 H 0.34185 0.26434 0.81259 0.0
H282 H 0.27593 0.19929 0.79015 0.0
H283 H 0.18081 0.26862 0.7992 0.0
H284 H 0.24718 0.33409 0.82154 0.0
C285 C 0.1188 0.16384 0.75186 0.0
C286 C 0.10778 0.11249 0.75302 0.0
C287 C 0.15593 0.20155 0.76488 0.0
C288 C 0.18269 0.18859 0.77934 0.0
C289 C 0.17109 0.13701 0.7806 0.0
C290 C 0.13414 0.09943 0.76758 0.0
C291 C 0.30667 0.2654 0.80994 0.0
C292 C 0.29965 0.30424 0.81888 0.0
C293 C 0.26885 0.22811 0.79708 0.0
C294 C 0.22299 0.22863 0.79292 0.0
C295 C 0.21598 0.26753 0.80186 0.0
C296 C 0.25394 0.30497 0.81468 0.0
H297 H 0.87461 0.93618 0.65816 0.0
H298 H 0.90426 0.07872 0.68703 0.0
H299 H 0.81056 0.93876 0.63568 0.0
H300 H 0.84044 0.08162 0.66433 0.0
H301 H 0.67952 0.03269 0.63698 0.0
H302 H 0.74601 0.0334 0.65898 0.0
H303 H 0.80542 0.98942 0.60687 0.0
H304 H 0.73923 0.98918 0.58479 0.0
C305 C 0.86759 0.9682 0.65964 0.0
C306 C 0.89439 0.00723 0.67436 0.0
C307 C 0.83111 0.96982 0.64668 0.0
C308 C 0.82048 0.01042 0.64821 0.0
C309 C 0.84742 0.04957 0.66292 0.0
C310 C 0.88412 0.04806 0.67584 0.0
C311 C 0.70714 0.0238 0.63015 0.0
C312 C 0.704 0.01083 0.60911 0.0
C313 C 0.74523 0.02418 0.64277 0.0
C314 C 0.78093 0.01142 0.63467 0.0
C315 C 0.778 0.99872 0.61363 0.0
C316 C 0.74002 0.9985 0.60099 0.0
H317 H 0.82562 0.8956 0.02272 0.0
H318 H 0.94422 0.89529 0.985 0.0
H319 H 0.75946 0.83015 0.00022 0.0
H320 H 0.87807 0.82996 0.96252 0.0
H321 H 0.74342 0.7511 0.91595 0.0
H322 H 0.80861 0.82028 0.93756 0.0
H323 H 0.72861 0.7364 0.99217 0.0
H324 H 0.6633 0.66747 0.97058 0.0
C325 C 0.83753 0.88178 0.00956 0.0
C326 C 0.89004 0.90043 0.00563 0.0
C327 C 0.79969 0.84416 0.99676 0.0
C328 C 0.81367 0.82492 0.97967 0.0
C329 C 0.86622 0.84441 0.97549 0.0
C330 C 0.90403 0.88161 0.98841 0.0
C331 C 0.73968 0.74769 0.93257 0.0
C332 C 0.69841 0.70394 0.94161 0.0
C333 C 0.7771 0.78704 0.94492 0.0
C334 C 0.7736 0.78368 0.96653 0.0
C335 C 0.73201 0.74019 0.97555 0.0
C336 C 0.69495 0.70057 0.96322 0.0
H337 H 0.05984 0.94625 0.32192 0.0
H338 H 0.93042 0.82693 0.35514 0.0
H339 H 0.06001 0.88141 0.29923 0.0
H340 H 0.93147 0.76164 0.3328 0.0
H341 H 0.91702 0.66328 0.27641 0.0
H342 H 0.91435 0.72855 0.29805 0.0
H343 H 0.08096 0.81409 0.30007 0.0
H344 H 0.08362 0.75031 0.27756 0.0
C345 C 0.0315 0.90607 0.3244 0.0
C346 C 0.99516 0.89162 0.34032 0.0
C347 C 0.0318 0.86885 0.31148 0.0
C348 C 0.99597 0.81623 0.31425 0.0
C349 C 0.95924 0.80185 0.33008 0.0
C350 C 0.95877 0.8392 0.34295 0.0
C351 C 0.95309 0.69637 0.28124 0.0
C352 C 0.00055 0.7016 0.27517 0.0
C353 C 0.95155 0.73346 0.29389 0.0
C354 C 0.99742 0.77662 0.30082 0.0
C355 C 0.04486 0.78172 0.2948 0.0
C356 C 0.0464 0.74476 0.2821 0.0
H357 H 0.10936 0.04852 0.65277 0.0
H358 H 0.11136 0.93142 0.6909 0.0
H359 H 0.17416 0.04755 0.63029 0.0
H360 H 0.17637 0.93054 0.66837 0.0
H361 H 0.33766 0.99667 0.63779 0.0
H362 H 0.26961 0.99307 0.65971 0.0
H363 H 0.18269 0.98721 0.60549 0.0
H364 H 0.251 0.9913 0.58356 0.0
C365 C 0.12351 0.02242 0.65629 0.0
C366 C 0.1054 0.99009 0.67359 0.0
C367 C 0.16039 0.0217 0.64336 0.0
C368 C 0.1803 0.98901 0.6476 0.0
C369 C 0.16197 0.95643 0.66485 0.0
C370 C 0.12462 0.95674 0.67766 0.0
C371 C 0.30407 0.99477 0.63058 0.0
C372 C 0.29963 0.99442 0.60899 0.0
C373 C 0.26495 0.99222 0.64311 0.0
C374 C 0.22089 0.98982 0.63429 0.0
C375 C 0.2164 0.98936 0.6127 0.0
C376 C 0.25526 0.99134 0.60017 0.0
H377 H 0.06534 0.13315 0.9936 0.0
H378 H 0.17535 0.092 0.01667 0.0
H379 H 0.13073 0.19664 0.9709 0.0
H380 H 0.2416 0.1569 0.99441 0.0
H381 H 0.33369 0.24389 0.93729 0.0
H382 H 0.26767 0.17741 0.95911 0.0
H383 H 0.20728 0.27865 0.97256 0.0
H384 H 0.2725 0.34437 0.95042 0.0
C385 C 0.10364 0.13786 0.99387 0.0
C386 C 0.11529 0.10771 0.00694 0.0
C387 C 0.14127 0.17453 0.98095 0.0
C388 C 0.19163 0.18224 0.9809 0.0
C389 C 0.2031 0.15162 0.99386 0.0
C390 C 0.16526 0.11463 0.00671 0.0
C391 C 0.30635 0.25186 0.94499 0.0
C392 C 0.30808 0.2992 0.94209 0.0
C393 C 0.26861 0.21387 0.95754 0.0
C394 C 0.23199 0.22254 0.96757 0.0
C395 C 0.23413 0.27016 0.96475 0.0
C396 C 0.27158 0.30793 0.9521 0.0
H397 H 0.93649 0.06485 0.32485 0.0
H398 H 0.07869 0.17978 0.35336 0.0
H399 H 0.93795 0.13027 0.30217 0.0
H400 H 0.07961 0.2457 0.33094 0.0
H401 H 0.09017 0.33823 0.27288 0.0
H402 H 0.09076 0.27277 0.29507 0.0
H403 H 0.92651 0.20451 0.30409 0.0
H404 H 0.92593 0.26963 0.28183 0.0
C405 C 0.96802 0.10417 0.3263 0.0
C406 C 0.00744 0.11724 0.3409 0.0
C407 C 0.96869 0.14174 0.31339 0.0
C408 C 0.00876 0.19329 0.3148 0.0
C409 C 0.04848 0.20625 0.3293 0.0
C410 C 0.04783 0.16858 0.34222 0.0
C411 C 0.05427 0.30939 0.27971 0.0
C412 C 0.00797 0.30899 0.27555 0.0
C413 C 0.05461 0.27194 0.29244 0.0
C414 C 0.00867 0.23333 0.30132 0.0
C415 C 0.96243 0.23312 0.29721 0.0
C416 C 0.96208 0.27046 0.28445 0.0
loop_
_geom_bond_atom_site_label_1
_geom_bond_atom_site_label_2
_geom_bond_distance
_geom_bond_site_symmetry_2
_ccdc_geom_bond_type
In0 O1 2.294 1_455 S
In0 O2 2.326 . S
In0 O6 2.266 1_445 S
In0 O7 2.326 1_445 S
In0 O8 2.266 1_545 S
In0 O9 2.326 1_445 S
In0 O11 2.294 . S
In0 O12 2.326 . S
O1 In0 2.294 1_655 S
O1 C10 1.240 1_655 S
O2 In0 2.326 . S
O2 C10 1.252 . S
C3 O6 1.252 . S
C3 O7 1.260 . S
C4 O11 1.240 . S
C4 O12 1.252 . S
C5 O8 1.252 1_655 S
C5 O9 1.260 . S
O6 In0 2.266 1_665 S
O6 C3 1.252 . S
O7 In0 2.326 1_665 S
O7 C3 1.260 . S
O8 In0 2.266 1_565 S
O8 C5 1.252 1_455 S
O9 In0 2.326 1_665 S
O9 C5 1.260 . S
C10 O1 1.240 1_455 S
C10 O2 1.252 . S
O11 In0 2.294 . S
O11 C4 1.240 . S
O12 In0 2.326 . S
O12 C4 1.252 . S
In13 O14 2.294 . S
In13 O15 2.326 1_455 S
In13 O19 2.266 . S
In13 O20 2.326 1_545 S
In13 O21 2.266 1_445 S
In13 O22 2.326 1_545 S
In13 O24 2.294 1_445 S
In13 O25 2.326 1_455 S
O14 In13 2.294 . S
O14 C23 1.240 1_455 S
O15 In13 2.326 1_655 S
O15 C23 1.252 . S
C16 O19 1.252 1_565 S
C16 O20 1.260 . S
C17 O24 1.240 1_545 S
C17 O25 1.252 . S
C18 O21 1.252 1_455 S
C18 O22 1.260 . S
O19 In13 2.266 . S
O19 C16 1.252 1_545 S
O20 In13 2.326 1_565 S
O20 C16 1.260 . S
O21 In13 2.266 1_665 S
O21 C18 1.252 1_655 S
O22 In13 2.326 1_565 S
O22 C18 1.260 . S
C23 O14 1.240 1_655 S
C23 O15 1.252 . S
O24 In13 2.294 1_665 S
O24 C17 1.240 1_565 S
O25 In13 2.326 1_655 S
O25 C17 1.252 . S
In26 O27 2.283 1_445 S
In26 O28 2.328 1_445 S
In26 O32 2.255 1_545 S
In26 O33 2.327 . S
In26 O34 2.277 . S
In26 O35 2.324 . S
In26 O37 2.305 1_455 S
In26 O38 2.325 1_445 S
O27 In26 2.283 1_665 S
O27 C36 1.240 . S
O28 In26 2.328 1_665 S
O28 C36 1.252 . S
C29 O32 1.252 1_545 S
C29 O33 1.260 . S
C30 O37 1.240 1_565 S
C30 O38 1.252 . S
C31 O34 1.252 . S
C31 O35 1.260 . S
O32 In26 2.255 1_565 S
O32 C29 1.252 1_565 S
O33 In26 2.327 . S
O33 C29 1.260 . S
O34 In26 2.277 . S
O34 C31 1.252 . S
O35 In26 2.324 . S
O35 C31 1.260 . S
C36 O27 1.240 . S
C36 O28 1.252 . S
O37 In26 2.305 1_655 S
O37 C30 1.240 1_545 S
O38 In26 2.325 1_665 S
O38 C30 1.252 . S
C39 C40 1.384 1_655 S
C39 C41 1.384 . S
C39 H67 0.931 . S
C40 C39 1.384 1_455 S
C40 C43 1.382 . S
C41 C39 1.384 . S
C41 C42 1.381 1_655 S
C41 H68 0.930 . S
C42 C41 1.381 1_455 S
C42 C44 1.381 . S
C42 C45 1.487 . S
C43 C40 1.382 . S
C43 C44 1.387 . S
C43 H69 0.930 . S
C44 C42 1.381 . S
C44 C43 1.387 . S
C44 H70 0.931 . S
C45 C42 1.487 . S
C45 C52 1.400 . S
C45 N83 1.343 . S
C46 C47 1.384 . S
C46 C48 1.384 . S
C46 H71 0.931 . S
C47 C46 1.384 . S
C47 C50 1.382 1_455 S
C48 C46 1.384 . S
C48 C49 1.380 . S
C48 H72 0.930 . S
C49 C48 1.380 . S
C49 C51 1.382 1_455 S
C49 C52 1.494 . S
C50 C47 1.382 1_655 S
C50 C51 1.387 . S
C50 H73 0.930 . S
C51 C49 1.382 1_655 S
C51 C50 1.387 . S
C51 H74 0.931 . S
C52 C45 1.400 . S
C52 C49 1.494 . S
C52 N84 1.335 1_455 S
C53 C54 1.384 . S
C53 C55 1.384 . S
C53 H75 0.931 . S
C54 C53 1.384 . S
C54 C57 1.382 1_455 S
C55 C53 1.384 . S
C55 C56 1.381 . S
C55 H76 0.930 . S
C56 C55 1.381 . S
C56 C58 1.382 1_455 S
C56 C59 1.479 . S
C57 C54 1.382 1_655 S
C57 C58 1.387 . S
C57 H77 0.930 . S
C58 C56 1.382 1_655 S
C58 C57 1.387 . S
C58 H78 0.931 . S
C59 C56 1.479 . S
C59 C66 1.400 . S
C59 N84 1.350 1_455 S
C60 C61 1.384 1_655 S
C60 C62 1.384 . S
C60 H79 0.931 . S
C61 C60 1.384 1_455 S
C61 C64 1.382 . S
C62 C60 1.384 . S
C62 C63 1.381 1_655 S
C62 H80 0.930 . S
C63 C62 1.381 1_455 S
C63 C65 1.381 . S
C63 C66 1.487 . S
C64 C61 1.382 . S
C64 C65 1.387 . S
C64 H81 0.930 . S
C65 C63 1.381 . S
C65 C64 1.387 . S
C65 H82 0.931 . S
C66 C59 1.400 . S
C66 C63 1.487 . S
C66 N83 1.343 . S
H67 C39 0.931 . S
H68 C41 0.930 . S
H69 C43 0.930 . S
H70 C44 0.931 . S
H71 C46 0.931 . S
H72 C48 0.930 . S
H73 C50 0.930 . S
H74 C51 0.931 . S
H75 C53 0.931 . S
H76 C55 0.930 . S
H77 C57 0.930 . S
H78 C58 0.931 . S
H79 C60 0.931 . S
H80 C62 0.930 . S
H81 C64 0.930 . S
H82 C65 0.931 . S
N83 C45 1.343 . S
N83 C66 1.343 . S
N84 C52 1.335 1_655 S
N84 C59 1.350 1_655 S
C85 C86 1.384 . S
C85 C87 1.384 . S
C85 H113 0.931 . S
C86 C85 1.384 . S
C86 C89 1.382 1_545 S
C87 C85 1.384 . S
C87 C88 1.379 1_545 S
C87 H114 0.930 . S
C88 C87 1.379 1_565 S
C88 C90 1.388 . S
C88 C91 1.482 1_565 S
C89 C86 1.382 1_565 S
C89 C90 1.387 . S
C89 H115 0.930 . S
C90 C88 1.388 . S
C90 C89 1.387 . S
C90 H116 0.931 . S
C91 C88 1.482 1_545 S
C91 C98 1.399 . S
C91 N129 1.343 1_545 S
C92 C93 1.384 1_565 S
C92 C94 1.384 . S
C92 H117 0.931 . S
C93 C92 1.384 1_545 S
C93 C96 1.382 . S
C94 C92 1.384 . S
C94 C95 1.381 1_565 S
C94 H118 0.930 . S
C95 C94 1.381 1_545 S
C95 C97 1.381 . S
C95 C98 1.487 . S
C96 C93 1.382 . S
C96 C97 1.387 . S
C96 H119 0.930 . S
C97 C95 1.381 . S
C97 C96 1.387 . S
C97 H120 0.931 . S
C98 C91 1.399 . S
C98 C95 1.487 . S
C98 N130 1.343 . S
C99 C100 1.384 1_565 S
C99 C101 1.384 . S
C99 H121 0.931 . S
C100 C99 1.384 1_545 S
C100 C103 1.382 . S
C101 C99 1.384 . S
C101 C102 1.381 1_565 S
C101 H122 0.930 . S
C102 C101 1.381 1_545 S
C102 C104 1.381 . S
C102 C105 1.487 . S
C103 C100 1.382 . S
C103 C104 1.387 . S
C103 H123 0.930 . S
C104 C102 1.381 . S
C104 C103 1.387 . S
C104 H124 0.931 . S
C105 C102 1.487 . S
C105 C112 1.399 . S
C105 N130 1.343 . S
C106 C107 1.384 . S
C106 C108 1.384 . S
C106 H125 0.931 . S
C107 C106 1.384 . S
C107 C110 1.382 1_545 S
C108 C106 1.384 . S
C108 C109 1.370 1_545 S
C108 H126 0.930 . S
C109 C108 1.370 1_565 S
C109 C111 1.388 . S
C109 C112 1.492 1_565 S
C110 C107 1.382 1_565 S
C110 C111 1.387 . S
C110 H127 0.930 . S
C111 C109 1.388 . S
C111 C110 1.387 . S
C111 H128 0.931 . S
C112 C105 1.399 . S
C112 C109 1.492 1_545 S
C112 N129 1.343 1_545 S
H113 C85 0.931 . S
H114 C87 0.930 . S
H115 C89 0.930 . S
H116 C90 0.931 . S
H117 C92 0.931 . S
H118 C94 0.930 . S
H119 C96 0.930 . S
H120 C97 0.931 . S
H121 C99 0.931 . S
H122 C101 0.930 . S
H123 C103 0.930 . S
H124 C104 0.931 . S
H125 C106 0.931 . S
H126 C108 0.930 . S
H127 C110 0.930 . S
H128 C111 0.931 . S
N129 C91 1.343 1_565 S
N129 C112 1.343 1_565 S
N130 C98 1.343 . S
N130 C105 1.343 . S
C131 C132 1.384 . S
C131 C133 1.384 . S
C131 H159 0.931 . S
C132 C131 1.384 . S
C132 C135 1.382 . S
C133 C131 1.384 . S
C133 C134 1.381 . S
C133 H160 0.930 . S
C134 C133 1.381 . S
C134 C136 1.381 . S
C134 C137 1.487 . S
C135 C132 1.382 . S
C135 C136 1.387 . S
C135 H161 0.930 . S
C136 C134 1.381 . S
C136 C135 1.387 . S
C136 H162 0.931 . S
C137 C134 1.487 . S
C137 C144 1.399 . S
C137 N175 1.343 . S
C138 C139 1.384 . S
C138 C140 1.384 . S
C138 H163 0.931 . S
C139 C138 1.384 . S
C139 C142 1.382 . S
C140 C138 1.384 . S
C140 C141 1.381 . S
C140 H164 0.930 . S
C141 C140 1.381 . S
C141 C143 1.381 . S
C141 C144 1.487 . S
C142 C139 1.382 . S
C142 C143 1.387 . S
C142 H165 0.930 . S
C143 C141 1.381 . S
C143 C142 1.387 . S
C143 H166 0.931 . S
C144 C137 1.399 . S
C144 C141 1.487 . S
C144 N176 1.343 . S
C145 C146 1.384 . S
C145 C147 1.384 . S
C145 H167 0.931 . S
C146 C145 1.384 . S
C146 C149 1.382 . S
C147 C145 1.384 . S
C147 C148 1.381 . S
C147 H168 0.930 . S
C148 C147 1.381 . S
C148 C150 1.381 . S
C148 C151 1.487 . S
C149 C146 1.382 . S
C149 C150 1.387 . S
C149 H169 0.930 . S
C150 C148 1.381 . S
C150 C149 1.387 . S
C150 H170 0.931 . S
C151 C148 1.487 . S
C151 C158 1.399 . S
C151 N176 1.343 . S
C152 C153 1.384 . S
C152 C154 1.384 . S
C152 H171 0.931 . S
C153 C152 1.384 . S
C153 C156 1.382 . S
C154 C152 1.384 . S
C154 C155 1.381 . S
C154 H172 0.930 . S
C155 C154 1.381 . S
C155 C157 1.381 . S
C155 C158 1.487 . S
C156 C153 1.382 . S
C156 C157 1.387 . S
C156 H173 0.930 . S
C157 C155 1.381 . S
C157 C156 1.387 . S
C157 H174 0.931 . S
C158 C151 1.399 . S
C158 C155 1.487 . S
C158 N175 1.343 . S
H159 C131 0.931 . S
H160 C133 0.930 . S
H161 C135 0.930 . S
H162 C136 0.931 . S
H163 C138 0.931 . S
H164 C140 0.930 . S
H165 C142 0.930 . S
H166 C143 0.931 . S
H167 C145 0.931 . S
H168 C147 0.930 . S
H169 C149 0.930 . S
H170 C150 0.931 . S
H171 C152 0.931 . S
H172 C154 0.930 . S
H173 C156 0.930 . S
H174 C157 0.931 . S
N175 C137 1.343 . S
N175 C158 1.343 . S
N176 C144 1.343 . S
N176 C151 1.343 . S
H177 C185 0.950 . S
H178 C190 0.950 . S
H179 C187 0.950 . S
H180 C189 0.950 . S
H181 C191 0.950 . S
H182 C193 0.950 . S
H183 C195 0.950 . S
H184 C196 0.950 . S
C185 H177 0.950 . S
C185 C186 1.386 1_655 S
C185 C187 1.391 . S
C186 C185 1.386 1_455 S
C186 C190 1.393 . S
C187 H179 0.950 . S
C187 C185 1.391 . S
C187 C188 1.400 1_655 S
C188 C187 1.400 1_455 S
C188 C189 1.398 . S
C188 C194 1.491 . S
C189 H180 0.950 . S
C189 C188 1.398 . S
C189 C190 1.391 . S
C190 H178 0.950 . S
C190 C186 1.393 . S
C190 C189 1.391 . S
C191 H181 0.950 . S
C191 C192 1.386 . S
C191 C193 1.391 . S
C192 C191 1.386 . S
C192 C196 1.393 1_455 S
C193 H182 0.950 . S
C193 C191 1.391 . S
C193 C194 1.400 . S
C194 C188 1.491 . S
C194 C193 1.400 . S
C194 C195 1.398 1_455 S
C195 H183 0.950 . S
C195 C194 1.398 1_655 S
C195 C196 1.391 . S
C196 H184 0.950 . S
C196 C192 1.393 1_655 S
C196 C195 1.391 . S
H197 C205 0.950 . S
H198 C210 0.950 . S
H199 C207 0.950 . S
H200 C209 0.950 . S
H201 C211 0.950 . S
H202 C213 0.950 . S
H203 C215 0.950 . S
H204 C216 0.950 . S
C205 H197 0.950 . S
C205 C206 1.386 . S
C205 C207 1.391 . S
C206 C205 1.386 . S
C206 C210 1.393 1_545 S
C207 H199 0.950 . S
C207 C205 1.391 . S
C207 C208 1.400 . S
C208 C207 1.400 . S
C208 C209 1.398 1_545 S
C208 C214 1.491 . S
C209 H200 0.950 . S
C209 C208 1.398 1_565 S
C209 C210 1.391 . S
C210 H198 0.950 . S
C210 C206 1.393 1_565 S
C210 C209 1.391 . S
C211 H201 0.950 . S
C211 C212 1.386 1_565 S
C211 C213 1.391 . S
C212 C211 1.386 1_545 S
C212 C216 1.393 . S
C213 H202 0.950 . S
C213 C211 1.391 . S
C213 C214 1.400 1_565 S
C214 C208 1.491 . S
C214 C213 1.400 1_545 S
C214 C215 1.398 . S
C215 H203 0.950 . S
C215 C214 1.398 . S
C215 C216 1.391 . S
C216 H204 0.950 . S
C216 C212 1.393 . S
C216 C215 1.391 . S
H217 C225 0.950 . S
H218 C230 0.950 . S
H219 C227 0.950 . S
H220 C229 0.950 . S
H221 C231 0.950 . S
H222 C233 0.950 . S
H223 C235 0.950 . S
H224 C236 0.950 . S
C225 H217 0.950 . S
C225 C226 1.386 . S
C225 C227 1.391 . S
C226 C225 1.386 . S
C226 C230 1.393 . S
C227 H219 0.950 . S
C227 C225 1.391 . S
C227 C228 1.400 . S
C228 C227 1.400 . S
C228 C229 1.398 . S
C228 C234 1.491 . S
C229 H220 0.950 . S
C229 C228 1.398 . S
C229 C230 1.391 . S
C230 H218 0.950 . S
C230 C226 1.393 . S
C230 C229 1.391 . S
C231 H221 0.950 . S
C231 C232 1.386 . S
C231 C233 1.391 . S
C232 C231 1.386 . S
C232 C236 1.393 . S
C233 H222 0.950 . S
C233 C231 1.391 . S
C233 C234 1.400 . S
C234 C228 1.491 . S
C234 C233 1.400 . S
C234 C235 1.398 . S
C235 H223 0.950 . S
C235 C234 1.398 . S
C235 C236 1.391 . S
C236 H224 0.950 . S
C236 C232 1.393 . S
C236 C235 1.391 . S
H237 C245 0.950 . S
H238 C250 0.950 . S
H239 C247 0.950 . S
H240 C249 0.950 . S
H241 C251 0.950 . S
H242 C253 0.950 . S
H243 C255 0.950 . S
H244 C256 0.950 . S
C245 H237 0.950 . S
C245 C246 1.386 1_455 S
C245 C247 1.391 . S
C246 C245 1.386 1_655 S
C246 C250 1.393 . S
C247 H239 0.950 . S
C247 C245 1.391 . S
C247 C248 1.401 . S
C248 C247 1.401 . S
C248 C249 1.395 1_455 S
C248 C254 1.492 . S
C249 H240 0.950 . S
C249 C248 1.395 1_655 S
C249 C250 1.391 . S
C250 H238 0.950 . S
C250 C246 1.393 . S
C250 C249 1.391 . S
C251 H241 0.950 . S
C251 C252 1.386 1_655 S
C251 C253 1.391 . S
C252 C251 1.386 1_455 S
C252 C256 1.393 . S
C253 H242 0.950 . S
C253 C251 1.391 . S
C253 C254 1.400 1_655 S
C254 C248 1.492 . S
C254 C253 1.400 1_455 S
C254 C255 1.398 . S
C255 H243 0.950 . S
C255 C254 1.398 . S
C255 C256 1.391 . S
C256 H244 0.950 . S
C256 C252 1.393 . S
C256 C255 1.391 . S
H257 C265 0.950 . S
H258 C270 0.950 . S
H259 C267 0.950 . S
H260 C269 0.950 . S
H261 C271 0.950 . S
H262 C273 0.950 . S
H263 C275 0.950 . S
H264 C276 0.950 . S
C265 H257 0.950 . S
C265 C266 1.386 . S
C265 C267 1.391 . S
C266 C265 1.386 . S
C266 C270 1.393 1_565 S
C267 H259 0.950 . S
C267 C265 1.391 . S
C267 C268 1.398 1_565 S
C268 C267 1.398 1_545 S
C268 C269 1.402 . S
C268 C274 1.489 . S
C269 H260 0.950 . S
C269 C268 1.402 . S
C269 C270 1.391 . S
C270 H258 0.950 . S
C270 C266 1.393 1_545 S
C270 C269 1.391 . S
C271 H261 0.950 . S
C271 C272 1.386 . S
C271 C273 1.391 . S
C272 C271 1.386 . S
C272 C276 1.393 1_545 S
C273 H262 0.950 . S
C273 C271 1.391 . S
C273 C274 1.400 . S
C274 C268 1.489 . S
C274 C273 1.400 . S
C274 C275 1.398 1_545 S
C275 H263 0.950 . S
C275 C274 1.398 1_565 S
C275 C276 1.391 . S
C276 H264 0.950 . S
C276 C272 1.393 1_565 S
C276 C275 1.391 . S
H277 C285 0.950 . S
H278 C290 0.950 . S
H279 C287 0.950 . S
H280 C289 0.950 . S
H281 C291 0.950 . S
H282 C293 0.950 . S
H283 C295 0.950 . S
H284 C296 0.950 . S
C285 H277 0.950 . S
C285 C286 1.386 . S
C285 C287 1.391 . S
C286 C285 1.386 . S
C286 C290 1.393 . S
C287 H279 0.950 . S
C287 C285 1.391 . S
C287 C288 1.400 . S
C288 C287 1.400 . S
C288 C289 1.398 . S
C288 C294 1.491 . S
C289 H280 0.950 . S
C289 C288 1.398 . S
C289 C290 1.391 . S
C290 H278 0.950 . S
C290 C286 1.393 . S
C290 C289 1.391 . S
C291 H281 0.950 . S
C291 C292 1.386 . S
C291 C293 1.391 . S
C292 C291 1.386 . S
C292 C296 1.393 . S
C293 H282 0.950 . S
C293 C291 1.391 . S
C293 C294 1.400 . S
C294 C288 1.491 . S
C294 C293 1.400 . S
C294 C295 1.398 . S
C295 H283 0.950 . S
C295 C294 1.398 . S
C295 C296 1.391 . S
C296 H284 0.950 . S
C296 C292 1.393 . S
C296 C295 1.391 . S
H297 C305 0.950 . S
H298 C310 0.950 . S
H299 C307 0.950 . S
H300 C309 0.950 . S
H301 C311 0.950 . S
H302 C313 0.950 . S
H303 C315 0.950 . S
H304 C316 0.950 . S
C305 H297 0.950 . S
C305 C306 1.386 . S
C305 C307 1.391 . S
C306 C305 1.386 . S
C306 C310 1.393 1_565 S
C307 H299 0.950 . S
C307 C305 1.391 . S
C307 C308 1.400 . S
C308 C307 1.400 . S
C308 C309 1.398 1_565 S
C308 C314 1.490 1_565 S
C309 H300 0.950 . S
C309 C308 1.398 1_545 S
C309 C310 1.391 . S
C310 H298 0.950 . S
C310 C306 1.393 1_545 S
C310 C309 1.391 . S
C311 H301 0.950 . S
C311 C312 1.386 . S
C311 C313 1.391 . S
C312 C311 1.386 . S
C312 C316 1.393 1_545 S
C313 H302 0.950 . S
C313 C311 1.391 . S
C313 C314 1.402 . S
C314 C308 1.490 1_545 S
C314 C313 1.402 . S
C314 C315 1.398 1_545 S
C315 H303 0.950 . S
C315 C314 1.398 1_565 S
C315 C316 1.391 . S
C316 H304 0.950 . S
C316 C312 1.393 1_565 S
C316 C315 1.391 . S
H317 C325 0.950 . S
H318 C330 0.950 . S
H319 C327 0.962 . S
H320 C329 0.950 . S
H321 C331 0.950 . S
H322 C333 0.950 . S
H323 C335 0.950 . S
H324 C336 0.950 . S
C325 H317 0.950 . S
C325 C326 1.386 . S
C325 C327 1.421 . S
C326 C325 1.386 . S
C326 C330 1.393 1_554 S
C327 H319 0.962 . S
C327 C325 1.421 . S
C327 C328 1.360 1_554 S
C328 C327 1.360 1_556 S
C328 C329 1.398 . S
C328 C334 1.491 . S
C329 H320 0.950 . S
C329 C328 1.398 . S
C329 C330 1.391 . S
C330 H318 0.950 . S
C330 C326 1.393 1_556 S
C330 C329 1.391 . S
C331 H321 0.950 . S
C331 C332 1.386 . S
C331 C333 1.391 . S
C332 C331 1.386 . S
C332 C336 1.393 . S
C333 H322 0.950 . S
C333 C331 1.391 . S
C333 C334 1.400 . S
C334 C328 1.491 . S
C334 C333 1.400 . S
C334 C335 1.398 . S
C335 H323 0.950 . S
C335 C334 1.398 . S
C335 C336 1.391 . S
C336 H324 0.950 . S
C336 C332 1.393 . S
C336 C335 1.391 . S
H337 C345 0.950 . S
H338 C350 0.950 . S
H339 C347 0.950 . S
H340 C349 0.950 . S
H341 C351 0.950 . S
H342 C353 0.950 . S
H343 C355 0.950 . S
H344 C356 0.950 . S
C345 H337 0.950 . S
C345 C346 1.386 . S
C345 C347 1.391 . S
C346 C345 1.386 . S
C346 C350 1.393 1_455 S
C347 H339 0.950 . S
C347 C345 1.391 . S
C347 C348 1.400 . S
C348 C347 1.400 . S
C348 C349 1.398 1_455 S
C348 C354 1.491 . S
C349 H340 0.950 . S
C349 C348 1.398 1_655 S
C349 C350 1.391 . S
C350 H338 0.950 . S
C350 C346 1.393 1_655 S
C350 C349 1.391 . S
C351 H341 0.950 . S
C351 C352 1.386 1_655 S
C351 C353 1.391 . S
C352 C351 1.386 1_455 S
C352 C356 1.393 . S
C353 H342 0.950 . S
C353 C351 1.391 . S
C353 C354 1.400 1_655 S
C354 C348 1.491 . S
C354 C353 1.400 1_455 S
C354 C355 1.398 . S
C355 H343 0.950 . S
C355 C354 1.398 . S
C355 C356 1.391 . S
C356 H344 0.950 . S
C356 C352 1.393 . S
C356 C355 1.391 . S
H357 C365 0.950 . S
H358 C370 0.950 . S
H359 C367 0.950 . S
H360 C369 0.950 . S
H361 C371 0.950 . S
H362 C373 0.950 . S
H363 C375 0.950 . S
H364 C376 0.950 . S
C365 H357 0.950 . S
C365 C366 1.386 . S
C365 C367 1.391 . S
C366 C365 1.386 . S
C366 C370 1.393 1_545 S
C367 H359 0.950 . S
C367 C365 1.391 . S
C367 C368 1.400 . S
C368 C367 1.400 . S
C368 C369 1.398 1_545 S
C368 C374 1.491 . S
C369 H360 0.950 . S
C369 C368 1.398 1_565 S
C369 C370 1.391 . S
C370 H358 0.950 . S
C370 C366 1.393 1_565 S
C370 C369 1.391 . S
C371 H361 0.950 . S
C371 C372 1.385 1_565 S
C371 C373 1.391 . S
C372 C371 1.385 1_545 S
C372 C376 1.396 . S
C373 H362 0.950 . S
C373 C371 1.391 . S
C373 C374 1.400 1_565 S
C374 C368 1.491 . S
C374 C373 1.400 1_545 S
C374 C375 1.398 . S
C375 H363 0.950 . S
C375 C374 1.398 . S
C375 C376 1.391 . S
C376 H364 0.950 . S
C376 C372 1.396 . S
C376 C375 1.391 . S
H377 C385 0.950 . S
H378 C390 0.950 . S
H379 C387 0.951 . S
H380 C389 0.950 . S
H381 C391 0.950 . S
H382 C393 0.950 . S
H383 C395 0.950 . S
H384 C396 0.950 . S
C385 H377 0.950 . S
C385 C386 1.386 . S
C385 C387 1.397 . S
C386 C385 1.386 . S
C386 C390 1.393 1_554 S
C387 H379 0.951 . S
C387 C385 1.397 . S
C387 C388 1.393 1_554 S
C388 C387 1.393 1_556 S
C388 C389 1.398 . S
C388 C394 1.491 . S
C389 H380 0.950 . S
C389 C388 1.398 . S
C389 C390 1.391 . S
C390 H378 0.950 . S
C390 C386 1.393 1_556 S
C390 C389 1.391 . S
C391 H381 0.950 . S
C391 C392 1.386 . S
C391 C393 1.391 . S
C392 C391 1.386 . S
C392 C396 1.393 . S
C393 H382 0.950 . S
C393 C391 1.391 . S
C393 C394 1.400 . S
C394 C388 1.491 . S
C394 C393 1.400 . S
C394 C395 1.398 . S
C395 H383 0.950 . S
C395 C394 1.398 . S
C395 C396 1.391 . S
C396 H384 0.950 . S
C396 C392 1.393 . S
C396 C395 1.391 . S
H397 C405 0.950 . S
H398 C410 0.950 . S
H399 C407 0.950 . S
H400 C409 0.950 . S
H401 C411 0.950 . S
H402 C413 0.950 . S
H403 C415 0.950 . S
H404 C416 0.950 . S
C405 H397 0.950 . S
C405 C406 1.386 . S
C405 C407 1.391 . S
C406 C405 1.386 . S
C406 C410 1.393 1_655 S
C407 H399 0.950 . S
C407 C405 1.391 . S
C407 C408 1.406 . S
C408 C407 1.406 . S
C408 C409 1.389 1_655 S
C408 C414 1.490 . S
C409 H400 0.950 . S
C409 C408 1.389 1_455 S
C409 C410 1.391 . S
C410 H398 0.950 . S
C410 C406 1.393 1_455 S
C410 C409 1.391 . S
C411 H401 0.950 . S
C411 C412 1.407 . S
C411 C413 1.391 . S
C412 C411 1.407 . S
C412 C416 1.380 1_455 S
C413 H402 0.950 . S
C413 C411 1.391 . S
C413 C414 1.394 1_455 S
C414 C408 1.490 . S
C414 C413 1.394 1_655 S
C414 C415 1.409 . S
C415 H403 0.950 . S
C415 C414 1.409 . S
C415 C416 1.391 . S
C416 H404 0.950 . S
C416 C412 1.380 1_655 S
C416 C415 1.391 . S
C192 C47 1.519 . S
C186 C10 1.521 . S
C206 C17 1.520 . S
C212 C86 1.520 . S
C226 C36 1.523 . S
C232 C153 1.522 . S
C246 C5 1.523 . S
C252 C54 1.523 . S
C272 C107 1.518 . S
C266 C16 1.521 . S
C286 C31 1.521 . S
C292 C132 1.520 . S
C312 C93 1.518 . S
C306 C30 1.520 . S
C326 C3 1.521 . S
C332 C146 1.520 . S
C352 C61 1.518 . S
C346 C18 1.522 . S
C372 C100 1.520 . S
C366 C29 1.523 . S
C392 C139 1.520 . S
C386 C4 1.521 . S
C406 C23 1.520 . S
C412 C40 1.511 . S
