# Generated by pormake.
# Topology nom, (4,4)-cn, num edge types: 1
# Building blocks:
#     Node 0, Type 0, BuildingBlock: AZAVOO_clean_linker_0, # of connection points: 4
#     Node 1, Type 0, BuildingBlock: AZAVOO_clean_linker_0, # of connection points: 4
#     Node 2, Type 0, BuildingBlock: AZAVOO_clean_linker_0, # of connection points: 4
#     Node 3, Type 0, BuildingBlock: AZAVOO_clean_linker_0, # of connection points: 4
#     Node 4, Type 0, BuildingBlock: AZAVOO_clean_linker_0, # of connection points: 4
#     Node 5, Type 0, BuildingBlock: AZAVOO_clean_linker_0, # of connection points: 4
#     Node 6, Type 1, BuildingBlock: KUFVIS_clean_sbu_0, # of connection points: 4
#     Node 7, Type 1, BuildingBlock: KUFVIS_clean_sbu_0, # of connection points: 4
#     Node 8, Type 1, BuildingBlock: KUFVIS_clean_sbu_0, # of connection points: 4
#     Node 9, Type 1, BuildingBlock: KUFVIS_clean_sbu_0, # of connection points: 4
#     Node 10, Type 1, BuildingBlock: KUFVIS_clean_sbu_0, # of connection points: 4
#     Node 11, Type 1, BuildingBlock: KUFVIS_clean_sbu_0, # of connection points: 4
#     Edge 12, Type (0, 1), BuildingBlock: TEMPAE_clean_linker_10, # of connection points: 2
#     Edge 13, Type (0, 1), BuildingBlock: TEMPAE_clean_linker_10, # of connection points: 2
#     Edge 14, Type (0, 1), BuildingBlock: TEMPAE_clean_linker_10, # of connection points: 2
#     Edge 15, Type (0, 1), BuildingBlock: TEMPAE_clean_linker_10, # of connection points: 2
#     Edge 16, Type (0, 1), BuildingBlock: TEMPAE_clean_linker_10, # of connection points: 2
#     Edge 17, Type (0, 1), BuildingBlock: TEMPAE_clean_linker_10, # of connection points: 2
#     Edge 18, Type (0, 1), BuildingBlock: TEMPAE_clean_linker_10, # of connection points: 2
#     Edge 19, Type (0, 1), BuildingBlock: TEMPAE_clean_linker_10, # of connection points: 2
#     Edge 20, Type (0, 1), BuildingBlock: TEMPAE_clean_linker_10, # of connection points: 2
#     Edge 21, Type (0, 1), BuildingBlock: TEMPAE_clean_linker_10, # of connection points: 2
#     Edge 22, Type (0, 1), BuildingBlock: TEMPAE_clean_linker_10, # of connection points: 2
#     Edge 23, Type (0, 1), BuildingBlock: TEMPAE_clean_linker_10, # of connection points: 2
#     Edge 24, Type (0, 1), BuildingBlock: TEMPAE_clean_linker_10, # of connection points: 2
#     Edge 25, Type (0, 1), BuildingBlock: TEMPAE_clean_linker_10, # of connection points: 2
#     Edge 26, Type (0, 1), BuildingBlock: TEMPAE_clean_linker_10, # of connection points: 2
#     Edge 27, Type (0, 1), BuildingBlock: TEMPAE_clean_linker_10, # of connection points: 2
#     Edge 28, Type (0, 1), BuildingBlock: TEMPAE_clean_linker_10, # of connection points: 2
#     Edge 29, Type (0, 1), BuildingBlock: TEMPAE_clean_linker_10, # of connection points: 2
#     Edge 30, Type (0, 1), BuildingBlock: TEMPAE_clean_linker_10, # of connection points: 2
#     Edge 31, Type (0, 1), BuildingBlock: TEMPAE_clean_linker_10, # of connection points: 2
#     Edge 32, Type (0, 1), BuildingBlock: TEMPAE_clean_linker_10, # of connection points: 2
#     Edge 33, Type (0, 1), BuildingBlock: TEMPAE_clean_linker_10, # of connection points: 2
#     Edge 34, Type (0, 1), BuildingBlock: TEMPAE_clean_linker_10, # of connection points: 2
#     Edge 35, Type (0, 1), BuildingBlock: TEMPAE_clean_linker_10, # of connection points: 2
# Relax obj value: 0.143
# Max RMSD: 0.225
# Mean RMSD: 0.145
data_MOF--net-nom--node1-KUFVIS_clean_sbu_0--node2-AZAVOO_clean_linker_0--edge1-TEMPAE_clean_linker_10
_symmetry_space_group_name_H-M    P1
_symmetry_Int_Tables_number       1
_symmetry_cell_setting            triclinic
loop_
_symmetry_equiv_pos_as_xyz
'x, y, z'
_cell_length_a     48.086663
_cell_length_b     50.255188
_cell_length_c     60.549262
_cell_angle_alpha  90.709117
_cell_angle_beta   90.654627
_cell_angle_gamma 121.38635
loop_
_atom_site_label
_atom_site_type_symbol
_atom_site_fract_x
_atom_site_fract_y
_atom_site_fract_z
_atom_type_partial_charge
H0 H 0.10736 0.51643 0.17444 0.0
H1 H 0.19623 0.65607 0.41472 0.0
H2 H 0.02247 0.46058 0.27656 0.0
H3 H 0.99027 0.43308 0.24398 0.0
H4 H 0.93737 0.48096 0.25054 0.0
H5 H 0.97329 0.5116 0.28131 0.0
H6 H 0.09467 0.50752 0.27041 0.0
H7 H 0.10576 0.5076 0.23108 0.0
H8 H 0.04954 0.55043 0.2172 0.0
H9 H 0.03904 0.55065 0.25662 0.0
H10 H 0.13734 0.54088 0.31041 0.0
H11 H 0.19323 0.57802 0.29904 0.0
H12 H 0.1612 0.63717 0.2722 0.0
H13 H 0.10566 0.60021 0.28388 0.0
H14 H 0.10736 0.52475 0.35509 0.0
H15 H 0.14691 0.55355 0.38507 0.0
H16 H 0.14586 0.63646 0.3684 0.0
H17 H 0.10617 0.60728 0.33855 0.0
H18 H 0.03797 0.48515 0.36434 0.0
H19 H 0.04928 0.49406 0.40389 0.0
H20 H 0.05043 0.58048 0.39959 0.0
H21 H 0.04029 0.57172 0.3597 0.0
H22 H 0.97425 0.45336 0.33485 0.0
H23 H 0.91926 0.43621 0.34833 0.0
H24 H 0.93466 0.52699 0.33437 0.0
H25 H 0.98909 0.5438 0.32127 0.0
O26 O 0.10296 0.51693 0.18994 0.0
O27 O 0.07365 0.53878 0.18368 0.0
O28 O 0.18324 0.60194 0.40923 0.0
O29 O 0.18145 0.64443 0.40252 0.0
C30 C 0.02615 0.51001 0.29742 0.0
C31 C 0.05871 0.52833 0.29023 0.0
C32 C 0.08415 0.5465 0.30564 0.0
C33 C 0.07734 0.54557 0.32825 0.0
C34 C 0.04479 0.52831 0.33531 0.0
C35 C 0.01908 0.51149 0.31985 0.0
C36 C 0.00042 0.48822 0.28138 0.0
C37 C 0.00364 0.46486 0.27108 0.0
C38 C 0.98478 0.44883 0.25242 0.0
C39 C 0.96106 0.45474 0.2441 0.0
C40 C 0.95598 0.47631 0.25577 0.0
C41 C 0.97595 0.49337 0.27391 0.0
C42 C 0.06609 0.52911 0.26637 0.0
C43 C 0.08502 0.51716 0.25887 0.0
C44 C 0.09119 0.51711 0.23638 0.0
C45 C 0.07849 0.52897 0.22098 0.0
C46 C 0.05966 0.54109 0.2286 0.0
C47 C 0.0536 0.54121 0.2511 0.0
C48 C 0.11763 0.56801 0.298 0.0
C49 C 0.14249 0.56185 0.30202 0.0
C50 C 0.17424 0.58292 0.29542 0.0
C51 C 0.18151 0.6105 0.28482 0.0
C52 C 0.15635 0.61629 0.28057 0.0
C53 C 0.12467 0.59519 0.2871 0.0
C54 C 0.10405 0.56399 0.34468 0.0
C55 C 0.11604 0.54923 0.35779 0.0
C56 C 0.13852 0.56571 0.37493 0.0
C57 C 0.14944 0.59729 0.37919 0.0
C58 C 0.1379 0.61216 0.36561 0.0
C59 C 0.11541 0.59564 0.34847 0.0
C60 C 0.03854 0.52787 0.35922 0.0
C61 C 0.03918 0.50527 0.37212 0.0
C62 C 0.04578 0.51053 0.39478 0.0
C63 C 0.0515 0.53838 0.40489 0.0
C64 C 0.04695 0.55918 0.39223 0.0
C65 C 0.04062 0.554 0.36951 0.0
C66 C 0.98528 0.49962 0.32678 0.0
C67 C 0.96545 0.46929 0.33454 0.0
C68 C 0.93427 0.45965 0.34229 0.0
C69 C 0.92261 0.48019 0.34214 0.0
C70 C 0.94271 0.51048 0.33429 0.0
C71 C 0.9738 0.52014 0.32687 0.0
C72 C 0.08482 0.52859 0.19708 0.0
C73 C 0.17243 0.61459 0.39787 0.0
H74 H 0.52428 0.08738 0.3455 0.0
H75 H 0.50325 0.16801 0.59428 0.0
H76 H 0.52845 0.01866 0.45089 0.0
H77 H 0.53058 0.98963 0.41978 0.0
H78 H 0.427 0.92299 0.42532 0.0
H79 H 0.42474 0.95557 0.45466 0.0
H80 H 0.54088 0.07246 0.43944 0.0
H81 H 0.54386 0.08339 0.40004 0.0
H82 H 0.43886 0.03778 0.39632 0.0
H83 H 0.43629 0.02732 0.43586 0.0
H84 H 0.5553 0.10824 0.47109 0.0
H85 H 0.57743 0.1609 0.45775 0.0
H86 H 0.48245 0.15018 0.46384 0.0
H87 H 0.46012 0.09633 0.47502 0.0
H88 H 0.54368 0.08779 0.52706 0.0
H89 H 0.5574 0.1243 0.55825 0.0
H90 H 0.4657 0.11963 0.54853 0.0
H91 H 0.4522 0.08289 0.5175 0.0
H92 H 0.51433 0.01811 0.53589 0.0
H93 H 0.51954 0.02552 0.57595 0.0
H94 H 0.43182 0.02939 0.57639 0.0
H95 H 0.42719 0.02244 0.53615 0.0
H96 H 0.49244 0.96452 0.49367 0.0
H97 H 0.46349 0.90935 0.5036 0.0
H98 H 0.37857 0.91396 0.51921 0.0
H99 H 0.40708 0.96835 0.5084 0.0
O100 O 0.52255 0.08304 0.36112 0.0
O101 O 0.46851 0.05936 0.36009 0.0
O102 O 0.5456 0.15577 0.58594 0.0
O103 O 0.49888 0.1544 0.58159 0.0
C104 C 0.47577 0.01168 0.47108 0.0
C105 C 0.48621 0.0424 0.46446 0.0
C106 C 0.49256 0.0657 0.48039 0.0
C107 C 0.48743 0.05809 0.50285 0.0
C108 C 0.47438 0.02687 0.5093 0.0
C109 C 0.46819 0.00348 0.49343 0.0
C110 C 0.47638 0.98974 0.45472 0.0
C111 C 0.50613 0.99789 0.44524 0.0
C112 C 0.50733 0.98063 0.42757 0.0
C113 C 0.47894 0.95351 0.41957 0.0
C114 C 0.44934 0.94412 0.43031 0.0
C115 C 0.44798 0.96241 0.44744 0.0
C116 C 0.4884 0.04952 0.44057 0.0
C117 C 0.51859 0.06525 0.43018 0.0
C118 C 0.5202 0.07127 0.40762 0.0
C119 C 0.4916 0.06155 0.39503 0.0
C120 C 0.46137 0.04567 0.40553 0.0
C121 C 0.45982 0.03969 0.4281 0.0
C122 C 0.50605 0.09838 0.47364 0.0
C123 C 0.53926 0.11723 0.46922 0.0
C124 C 0.55194 0.14757 0.46189 0.0
C125 C 0.53186 0.16016 0.45962 0.0
C126 C 0.49864 0.14128 0.46479 0.0
C127 C 0.48582 0.11057 0.47148 0.0
C128 C 0.4971 0.08296 0.51996 0.0
C129 C 0.52683 0.09506 0.53152 0.0
C130 C 0.53452 0.11577 0.54938 0.0
C131 C 0.5126 0.12483 0.55592 0.0
C132 C 0.48313 0.11315 0.54393 0.0
C133 C 0.47545 0.09237 0.5261 0.0
C134 C 0.47057 0.02001 0.53318 0.0
C135 C 0.49545 0.01913 0.54475 0.0
C136 C 0.4984 0.02346 0.56767 0.0
C137 C 0.47639 0.02862 0.57929 0.0
C138 C 0.44945 0.02602 0.56783 0.0
C139 C 0.44655 0.02172 0.54491 0.0
C140 C 0.45178 0.97041 0.50015 0.0
C141 C 0.46753 0.95349 0.49914 0.0
C142 C 0.45104 0.92206 0.50498 0.0
C143 C 0.41858 0.9071 0.51205 0.0
C144 C 0.40326 0.92446 0.51342 0.0
C145 C 0.41963 0.95567 0.50745 0.0
C146 C 0.49339 0.06785 0.37104 0.0
C147 C 0.52016 0.14597 0.57536 0.0
H148 H 0.58494 0.49669 0.7791 0.0
H149 H 0.53351 0.38681 0.53447 0.0
H150 H 0.56926 0.56974 0.68255 0.0
H151 H 0.56354 0.59262 0.7164 0.0
H152 H 0.45956 0.5464 0.70359 0.0
H153 H 0.46536 0.5209 0.67098 0.0
H154 H 0.58847 0.51967 0.68442 0.0
H155 H 0.59674 0.51352 0.72353 0.0
H156 H 0.49354 0.47232 0.73385 0.0
H157 H 0.48553 0.47817 0.69464 0.0
H158 H 0.59434 0.48909 0.6415 0.0
H159 H 0.607 0.44947 0.65184 0.0
H160 H 0.50979 0.39242 0.67697 0.0
H161 H 0.49711 0.4316 0.66588 0.0
H162 H 0.58742 0.5131 0.59952 0.0
H163 H 0.59661 0.48595 0.56926 0.0
H164 H 0.5015 0.40433 0.57941 0.0
H165 H 0.4926 0.43186 0.60956 0.0
H166 H 0.56808 0.56027 0.59586 0.0
H167 H 0.57768 0.55972 0.55666 0.0
H168 H 0.48275 0.47586 0.54783 0.0
H169 H 0.47435 0.47586 0.58758 0.0
H170 H 0.53563 0.58954 0.63392 0.0
H171 H 0.50181 0.61238 0.62647 0.0
H172 H 0.41809 0.52 0.61497 0.0
H173 H 0.45175 0.49755 0.62196 0.0
O174 O 0.58107 0.49863 0.76365 0.0
O175 O 0.52788 0.47784 0.76811 0.0
O176 O 0.58137 0.43839 0.54451 0.0
O177 O 0.53065 0.39793 0.54653 0.0
C178 C 0.5211 0.52438 0.65697 0.0
C179 C 0.53161 0.50378 0.66302 0.0
C180 C 0.53681 0.4868 0.64656 0.0
C181 C 0.53307 0.49151 0.62412 0.0
C182 C 0.52202 0.51162 0.61815 0.0
C183 C 0.51468 0.52702 0.63454 0.0
C184 C 0.51774 0.54345 0.6744 0.0
C185 C 0.5453 0.56489 0.68695 0.0
C186 C 0.54195 0.57823 0.70626 0.0
C187 C 0.51097 0.57114 0.71307 0.0
C188 C 0.4837 0.55172 0.69931 0.0
C189 C 0.48699 0.53755 0.68035 0.0
C190 C 0.53642 0.4994 0.68671 0.0
C191 C 0.56766 0.50912 0.69513 0.0
C192 C 0.57232 0.50568 0.71749 0.0
C193 C 0.54581 0.49249 0.73183 0.0
C194 C 0.51449 0.48261 0.72327 0.0
C195 C 0.50985 0.48597 0.7009 0.0
C196 C 0.54479 0.46309 0.65288 0.0
C197 C 0.57578 0.46789 0.64909 0.0
C198 C 0.58302 0.44538 0.65516 0.0
C199 C 0.55937 0.41776 0.66518 0.0
C200 C 0.52837 0.41318 0.66897 0.0
C201 C 0.52115 0.43561 0.66283 0.0
C202 C 0.53939 0.47437 0.6067 0.0
C203 C 0.56871 0.4893 0.59524 0.0
C204 C 0.57387 0.47375 0.57798 0.0
C205 C 0.54977 0.44295 0.57193 0.0
C206 C 0.52053 0.42803 0.58363 0.0
C207 C 0.51543 0.44361 0.6009 0.0
C208 C 0.52076 0.51793 0.59451 0.0
C209 C 0.54875 0.54262 0.58529 0.0
C210 C 0.55417 0.54218 0.56276 0.0
C211 C 0.53135 0.51721 0.54908 0.0
C212 C 0.50126 0.4949 0.558 0.0
C213 C 0.49612 0.49511 0.58064 0.0
C214 C 0.49608 0.54192 0.62842 0.0
C215 C 0.51008 0.57439 0.62952 0.0
C216 C 0.49083 0.58733 0.62533 0.0
C217 C 0.45736 0.56783 0.62044 0.0
C218 C 0.44374 0.53546 0.61898 0.0
C219 C 0.46296 0.52266 0.62278 0.0
C220 C 0.5509 0.48915 0.75562 0.0
C221 C 0.55501 0.4264 0.5535 0.0
H222 H 0.04567 0.45704 0.96123 0.0
H223 H 0.19555 0.54737 0.71719 0.0
H224 H 0.96806 0.46813 0.84589 0.0
H225 H 0.93471 0.44614 0.87875 0.0
H226 H 0.95825 0.37419 0.87964 0.0
H227 H 0.99075 0.3957 0.84654 0.0
H228 H 0.03297 0.49423 0.8724 0.0
H229 H 0.03697 0.48573 0.9117 0.0
H230 H 0.06682 0.42046 0.89496 0.0
H231 H 0.06215 0.42877 0.85568 0.0
H232 H 0.10869 0.52963 0.85066 0.0
H233 H 0.16419 0.54544 0.86275 0.0
H234 H 0.15658 0.46793 0.82539 0.0
H235 H 0.10151 0.45274 0.81317 0.0
H236 H 0.10686 0.54805 0.801 0.0
H237 H 0.15329 0.57646 0.77665 0.0
H238 H 0.12843 0.48958 0.74398 0.0
H239 H 0.08251 0.46148 0.76867 0.0
H240 H 0.03855 0.52783 0.77841 0.0
H241 H 0.0564 0.54827 0.74151 0.0
H242 H 0.03516 0.45764 0.71881 0.0
H243 H 0.01716 0.43733 0.75584 0.0
H244 H 0.9661 0.47763 0.79064 0.0
H245 H 0.90829 0.44621 0.77886 0.0
H246 H 0.90934 0.36209 0.79032 0.0
H247 H 0.96673 0.3933 0.80155 0.0
O248 O 0.04519 0.46073 0.94562 0.0
O249 O 0.06196 0.42849 0.93624 0.0
O250 O 0.19132 0.58036 0.74594 0.0
O251 O 0.1775 0.53675 0.72712 0.0
C252 C 0.00954 0.45189 0.82893 0.0
C253 C 0.04172 0.46522 0.83742 0.0
C254 C 0.06819 0.48075 0.82322 0.0
C255 C 0.06291 0.48564 0.80112 0.0
C256 C 0.03082 0.47387 0.79285 0.0
C257 C 0.004 0.45563 0.80647 0.0
C258 C 0.98205 0.43368 0.84401 0.0
C259 C 0.96484 0.44685 0.85262 0.0
C260 C 0.94601 0.4344 0.87142 0.0
C261 C 0.94448 0.40884 0.88183 0.0
C262 C 0.95939 0.3941 0.872 0.0
C263 C 0.97772 0.40622 0.85306 0.0
C264 C 0.04742 0.46224 0.86121 0.0
C265 C 0.04066 0.47832 0.87727 0.0
C266 C 0.04288 0.47336 0.8997 0.0
C267 C 0.05214 0.45236 0.90648 0.0
C268 C 0.05962 0.4368 0.89031 0.0
C269 C 0.05722 0.44166 0.86786 0.0
C270 C 0.10137 0.4902 0.83101 0.0
C271 C 0.11912 0.51613 0.84518 0.0
C272 C 0.15063 0.52497 0.85212 0.0
C273 C 0.1647 0.50792 0.84495 0.0
C274 C 0.14656 0.48176 0.83091 0.0
C275 C 0.11515 0.47299 0.824 0.0
C276 C 0.09124 0.50279 0.78645 0.0
C277 C 0.11159 0.53524 0.78861 0.0
C278 C 0.13804 0.55138 0.77468 0.0
C279 C 0.14455 0.53527 0.75835 0.0
C280 C 0.12409 0.5027 0.75634 0.0
C281 C 0.0978 0.4866 0.77037 0.0
C282 C 0.02673 0.48115 0.76983 0.0
C283 C 0.03602 0.51195 0.76518 0.0
C284 C 0.04669 0.52372 0.74418 0.0
C285 C 0.04793 0.50473 0.72747 0.0
C286 C 0.03449 0.47281 0.73138 0.0
C287 C 0.02391 0.46106 0.75249 0.0
C288 C 0.97045 0.43768 0.79708 0.0
C289 C 0.9539 0.45243 0.79023 0.0
C290 C 0.92101 0.43455 0.7836 0.0
C291 C 0.90441 0.40182 0.78406 0.0
C292 C 0.92147 0.38729 0.7902 0.0
C293 C 0.95422 0.40505 0.79651 0.0
C294 C 0.0535 0.44644 0.93031 0.0
C295 C 0.17256 0.55226 0.74349 0.0
H296 H 0.44323 0.96299 0.84405 0.0
H297 H 0.44182 0.84731 0.08772 0.0
H298 H 0.46286 0.04656 0.95519 0.0
H299 H 0.4827 0.08048 0.92299 0.0
H300 H 0.56998 0.07598 0.92401 0.0
H301 H 0.54975 0.04173 0.95572 0.0
H302 H 0.43042 0.98358 0.93773 0.0
H303 H 0.42744 0.97516 0.89765 0.0
H304 H 0.51095 0.96448 0.90192 0.0
H305 H 0.5138 0.97323 0.94197 0.0
H306 H 0.41182 0.91727 0.95785 0.0
H307 H 0.40294 0.86759 0.943 0.0
H308 H 0.49282 0.88712 0.9749 0.0
H309 H 0.50234 0.93699 0.98823 0.0
H310 H 0.40612 0.9236 0.01416 0.0
H311 H 0.38795 0.88093 0.04015 0.0
H312 H 0.48841 0.91316 0.05704 0.0
H313 H 0.50619 0.95535 0.03084 0.0
H314 H 0.43881 0.98794 0.04389 0.0
H315 H 0.44437 0.97917 0.08294 0.0
H316 H 0.54705 0.01599 0.07458 0.0
H317 H 0.54123 0.02397 0.03545 0.0
H318 H 0.48035 0.0655 0.01444 0.0
H319 H 0.51856 0.12145 0.02302 0.0
H320 H 0.59894 0.11137 0.00407 0.0
H321 H 0.56121 0.05594 0.99628 0.0
O322 O 0.44457 0.96582 0.85995 0.0
O323 O 0.48709 0.95979 0.8631 0.0
O324 O 0.39701 0.84985 0.06954 0.0
O325 O 0.44826 0.86395 0.07735 0.0
C326 C 0.49072 0.01704 0.97438 0.0
C327 C 0.47502 0.98576 0.9668 0.0
C328 C 0.46511 0.96168 0.98206 0.0
C329 C 0.46828 0.96857 0.00494 0.0
C330 C 0.48369 -5e-05 0.01263 0.0
C331 C 0.49595 0.02423 0.99726 0.0
C332 C 0.5051 0.0421 0.95791 0.0
C333 C 0.48662 0.05363 0.94878 0.0
C334 C 0.49784 0.07273 0.93036 0.0
C335 C 0.52787 0.08083 0.92109 0.0
C336 C 0.54699 0.07047 0.93102 0.0
C337 C 0.53554 0.05102 0.94915 0.0
C338 C 0.47216 0.97878 0.94269 0.0
C339 C 0.44789 0.97921 0.92996 0.0
C340 C 0.4463 0.97447 0.90708 0.0
C341 C 0.46897 0.96916 0.89657 0.0
C342 C 0.4931 0.96847 0.90949 0.0
C343 C 0.49471 0.97332 0.93235 0.0
C344 C 0.45757 0.93052 0.97425 0.0
C345 C 0.42944 0.91063 0.96157 0.0
C346 C 0.42438 0.88229 0.95323 0.0
C347 C 0.44735 0.87356 0.95759 0.0
C348 C 0.47501 0.89338 0.97078 0.0
C349 C 0.48024 0.92169 0.97874 0.0
C350 C 0.45742 0.94278 0.02083 0.0
C351 C 0.42412 0.92138 0.02351 0.0
C352 C 0.41384 0.89708 0.03837 0.0
C353 C 0.43675 0.89367 0.0507 0.0
C354 C 0.47013 0.9151 0.04783 0.0
C355 C 0.48035 0.93935 0.03298 0.0
C356 C 0.48957 0.00652 0.03677 0.0
C357 C 0.4628 0.99551 0.05071 0.0
C358 C 0.46594 0.99024 0.07293 0.0
C359 C 0.49603 0.99649 0.0816 0.0
C360 C 0.52363 0.01111 0.0683 0.0
C361 C 0.52038 0.01597 0.04596 0.0
C362 C 0.51814 0.05692 0.00458 0.0
C363 C 0.50626 0.07545 0.01244 0.0
C364 C 0.52792 0.10721 0.01719 0.0
C365 C 0.56142 0.12056 0.01371 0.0
C366 C 0.57311 0.10165 0.00642 0.0
C367 C 0.55169 0.07007 0.00208 0.0
C368 C 0.46752 0.9646 0.87222 0.0
C369 C 0.42601 0.86782 0.06641 0.0
H370 H 0.57795 0.52417 0.0044 0.0
H371 H 0.702 0.5031 0.23811 0.0
H372 H 0.53666 0.55637 0.11111 0.0
H373 H 0.52504 0.57392 0.07665 0.0
H374 H 0.61336 0.66367 0.08584 0.0
H375 H 0.62514 0.64581 0.12042 0.0
H376 H 0.5656 0.51584 0.10045 0.0
H377 H 0.56412 0.5097 0.06019 0.0
H378 H 0.64663 0.60387 0.05584 0.0
H379 H 0.64793 0.60958 0.09611 0.0
H380 H 0.59142 0.49052 0.13884 0.0
H381 H 0.61782 0.46247 0.12641 0.0
H382 H 0.70267 0.54994 0.10848 0.0
H383 H 0.67636 0.57771 0.12132 0.0
H384 H 0.57966 0.50388 0.18558 0.0
H385 H 0.59857 0.47997 0.21205 0.0
H386 H 0.69827 0.55238 0.20032 0.0
H387 H 0.67895 0.57629 0.17413 0.0
H388 H 0.55625 0.54231 0.20018 0.0
H389 H 0.56544 0.53377 0.23858 0.0
H390 H 0.66556 0.60948 0.23512 0.0
H391 H 0.65633 0.61727 0.19665 0.0
H392 H 0.53193 0.57994 0.15335 0.0
H393 H 0.5137 0.61555 0.16417 0.0
H394 H 0.6096 0.68054 0.19125 0.0
H395 H 0.62814 0.64553 0.17955 0.0
O396 O 0.57959 0.5267 0.02031 0.0
O397 O 0.6239 0.57413 0.01911 0.0
O398 O 0.64213 0.47761 0.23508 0.0
O399 O 0.69386 0.51194 0.2276 0.0
C400 C 0.59377 0.58564 0.13392 0.0
C401 C 0.60606 0.56751 0.12539 0.0
C402 C 0.61732 0.55334 0.13986 0.0
C403 C 0.61622 0.55708 0.16283 0.0
C404 C 0.60469 0.57584 0.17142 0.0
C405 C 0.5933 0.59015 0.15698 0.0
C406 C 0.58179 0.59978 0.11809 0.0
C407 C 0.55279 0.58024 0.10619 0.0
C408 C 0.54633 0.59018 0.0865 0.0
C409 C 0.56863 0.6199 0.07863 0.0
C410 C 0.59591 0.64067 0.09172 0.0
C411 C 0.60252 0.63059 0.11144 0.0
C412 C 0.60681 0.56315 0.10113 0.0
C413 C 0.58352 0.53497 0.09076 0.0
C414 C 0.58265 0.53159 0.06778 0.0
C415 C 0.60519 0.55633 0.05479 0.0
C416 C 0.62892 0.58436 0.06534 0.0
C417 C 0.62973 0.58769 0.08832 0.0
C418 C 0.63209 0.53605 0.13098 0.0
C419 C 0.61562 0.50349 0.1321 0.0
C420 C 0.63063 0.48757 0.12491 0.0
C421 C 0.66235 0.50408 0.11658 0.0
C422 C 0.6784 0.53668 0.11509 0.0
C423 C 0.66338 0.55253 0.12224 0.0
C424 C 0.62795 0.54184 0.17805 0.0
C425 C 0.60556 0.5145 0.18875 0.0
C426 C 0.61643 0.50091 0.20386 0.0
C427 C 0.64995 0.51429 0.20831 0.0
C428 C 0.67232 0.54147 0.19726 0.0
C429 C 0.66138 0.55514 0.18226 0.0
C430 C 0.60566 0.5803 0.19566 0.0
C431 C 0.57963 0.55813 0.20811 0.0
C432 C 0.58502 0.55313 0.23 0.0
C433 C 0.61647 0.57044 0.23959 0.0
C434 C 0.64128 0.59537 0.22795 0.0
C435 C 0.63591 0.60023 0.2061 0.0
C436 C 0.58137 0.61009 0.16569 0.0
C437 C 0.54898 0.60182 0.16167 0.0
C438 C 0.53862 0.62212 0.16781 0.0
C439 C 0.5603 0.65071 0.17849 0.0
C440 C 0.59239 0.65849 0.18318 0.0
C441 C 0.60293 0.63847 0.17663 0.0
C442 C 0.60362 0.55302 0.03034 0.0
C443 C 0.6616 0.50008 0.22447 0.0
Mn444 Mn 0.65 0.4363 0.40729 0.0
Mn445 Mn 0.70347 0.51183 0.4208 0.0
C446 C 0.63298 0.46387 0.42788 0.0
C447 C 0.62738 0.38373 0.41473 0.0
C448 C 0.66915 0.49057 0.37613 0.0
O449 O 0.69354 0.4411 0.40057 0.0
O450 O 0.72721 0.49123 0.41077 0.0
C451 C 0.73378 0.5014 0.45995 0.0
N452 N 0.71815 0.51474 0.45067 0.0
C453 C 0.72156 0.54144 0.48479 0.0
C454 C 0.73782 0.52811 0.4947 0.0
C455 C 0.74382 0.50789 0.48225 0.0
C456 C 0.71191 0.53392 0.46256 0.0
H457 H 0.73856 0.48598 0.4504 0.0
C458 C 0.72197 0.46504 0.40323 0.0
O459 O 0.62691 0.39284 0.39481 0.0
O460 O 0.64135 0.40508 0.43011 0.0
N461 N 0.68494 0.53537 0.43087 0.0
C462 C 0.66773 0.54519 0.4191 0.0
C463 C 0.65961 0.5655 0.42915 0.0
C464 C 0.66964 0.57582 0.45107 0.0
C465 C 0.68713 0.56524 0.46292 0.0
C466 C 0.69471 0.54518 0.45198 0.0
H467 H 0.66029 0.53763 0.40217 0.0
O468 O 0.61207 0.43841 0.41731 0.0
O469 O 0.6635 0.47199 0.42685 0.0
O470 O 0.65314 0.46136 0.37987 0.0
O471 O 0.68892 0.51114 0.39018 0.0
C472 C 0.69728 0.57375 0.48514 0.0
C473 C 0.71431 0.5617 0.49611 0.0
H474 H 0.74568 0.53311 0.51188 0.0
H475 H 0.75628 0.49744 0.48981 0.0
H476 H 0.64595 0.57343 0.41996 0.0
H477 H 0.66383 0.59192 0.45862 0.0
H478 H 0.69175 0.58921 0.49404 0.0
H479 H 0.72155 0.56803 0.5133 0.0
Mn480 Mn 0.24008 0.63092 0.5641 0.0
Mn481 Mn 0.20694 0.55354 0.55565 0.0
C482 C 0.19594 0.60405 0.53996 0.0
C483 C 0.27966 0.68225 0.55599 0.0
C484 C 0.19455 0.58154 0.59628 0.0
O485 O 0.27452 0.62303 0.57695 0.0
O486 O 0.25245 0.57263 0.56691 0.0
C487 C 0.24819 0.55506 0.51916 0.0
N488 N 0.21814 0.54513 0.52734 0.0
C489 C 0.19177 0.51312 0.49495 0.0
C490 C 0.22244 0.52284 0.4862 0.0
C491 C 0.25077 0.54407 0.49831 0.0
C492 C 0.19075 0.52513 0.51569 0.0
H493 H 0.27 0.57117 0.52851 0.0
C494 C 0.27576 0.59835 0.57518 0.0
O495 O 0.26523 0.67511 0.57487 0.0
O496 O 0.27142 0.65947 0.54196 0.0
N497 N 0.16303 0.53165 0.54448 0.0
C498 C 0.13546 0.52621 0.55464 0.0
C499 C 0.10498 0.50603 0.54448 0.0
C500 C 0.10316 0.49131 0.52419 0.0
C501 C 0.13187 0.49744 0.51396 0.0
C502 C 0.16154 0.5178 0.52485 0.0
H503 H 0.13669 0.53697 0.57045 0.0
O504 O 0.20369 0.63107 0.5482 0.0
O505 O 0.21506 0.59393 0.54542 0.0
O506 O 0.21038 0.60987 0.59033 0.0
O507 O 0.19319 0.55917 0.5851 0.0
C508 C 0.13226 0.48419 0.4934 0.0
C509 C 0.16219 0.4922 0.48382 0.0
H510 H 0.22451 0.51432 0.47016 0.0
H511 H 0.27452 0.55178 0.49164 0.0
H512 H 0.08292 0.50151 0.55241 0.0
H513 H 0.07957 0.47536 0.5166 0.0
H514 H 0.10971 0.46806 0.48469 0.0
H515 H 0.16218 0.48232 0.46782 0.0
Mn516 Mn 0.60382 0.21052 0.73262 0.0
Mn517 Mn 0.63816 0.16674 0.73029 0.0
C518 C 0.57784 0.16356 0.71318 0.0
C519 C 0.59861 0.25106 0.71955 0.0
C520 C 0.60317 0.17064 0.77046 0.0
O521 O 0.6506 0.24091 0.74255 0.0
O522 O 0.67204 0.21072 0.73795 0.0
C523 C 0.67987 0.19502 0.69154 0.0
N524 N 0.65602 0.16943 0.70181 0.0
C525 C 0.6521 0.13566 0.67187 0.0
C526 C 0.67674 0.16161 0.66101 0.0
C527 C 0.69056 0.19144 0.67085 0.0
C528 C 0.64229 0.1407 0.69238 0.0
H529 H 0.69065 0.21796 0.6991 0.0
C530 C 0.67468 0.23688 0.74268 0.0
O531 O 0.59156 0.24168 0.73972 0.0
O532 O 0.60883 0.2369 0.70697 0.0
N533 N 0.60843 0.1238 0.72273 0.0
C534 C 0.58346 0.10154 0.73467 0.0
C535 C 0.56637 0.07051 0.7268 0.0
C536 C 0.5754 0.06265 0.70692 0.0
C537 C 0.60114 0.08597 0.6949 0.0
C538 C 0.6172 0.11649 0.70352 0.0
H539 H 0.57667 0.1074 0.75009 0.0
O540 O 0.56161 0.17609 0.71994 0.0
O541 O 0.60897 0.17921 0.71767 0.0
O542 O 0.5946 0.18847 0.76207 0.0
O543 O 0.62 0.16166 0.76016 0.0
C544 C 0.61146 0.08018 0.67469 0.0
C545 C 0.63671 0.10503 0.66307 0.0
H546 H 0.68509 0.15893 0.64507 0.0
H547 H 0.7095 0.2116 0.66253 0.0
H548 H 0.54643 0.05266 0.73612 0.0
H549 H 0.56231 0.03865 0.701 0.0
H550 H 0.60005 0.05671 0.66786 0.0
H551 H 0.64399 0.10034 0.64734 0.0
Mn552 Mn 0.46103 0.64436 0.90477 0.0
Mn553 Mn 0.44609 0.57145 0.91034 0.0
C554 C 0.49305 0.63562 0.92855 0.0
C555 C 0.45021 0.68289 0.91385 0.0
C556 C 0.4783 0.61092 0.87045 0.0
O557 O 0.41548 0.61732 0.89218 0.0
O558 O 0.40596 0.56929 0.89873 0.0
C559 C 0.39744 0.54922 0.94572 0.0
N560 N 0.42651 0.55491 0.93804 0.0
C561 C 0.43546 0.53232 0.9701 0.0
C562 C 0.40556 0.52611 0.97834 0.0
C563 C 0.38656 0.53477 0.96615 0.0
C564 C 0.44514 0.54699 0.94973 0.0
H565 H 0.38264 0.55558 0.9363 0.0
C566 C 0.39695 0.58776 0.89188 0.0
O567 O 0.4619 0.68212 0.89481 0.0
O568 O 0.44519 0.66147 0.92781 0.0
N569 N 0.4826 0.57013 0.92171 0.0
C570 C 0.51181 0.57984 0.91219 0.0
C571 C 0.53422 0.57394 0.92263 0.0
C572 C 0.5262 0.55783 0.94258 0.0
C573 C 0.49607 0.5483 0.95215 0.0
C574 C 0.47483 0.555 0.94106 0.0
H575 H 0.5179 0.59191 0.89673 0.0
O576 O 0.50391 0.66319 0.92065 0.0
O577 O 0.46382 0.61403 0.92211 0.0
O578 O 0.47905 0.63522 0.87747 0.0
O579 O 0.46649 0.58583 0.88131 0.0
C580 C 0.48634 0.53257 0.97232 0.0
C581 C 0.45618 0.5248 0.98137 0.0
H582 H 0.39706 0.51492 0.99407 0.0
H583 H 0.36351 0.53016 0.97244 0.0
H584 H 0.55752 0.58156 0.91523 0.0
H585 H 0.54349 0.55317 0.95053 0.0
H586 H 0.50199 0.52657 0.9811 0.0
H587 H 0.44926 0.51324 0.99708 0.0
Mn588 Mn 0.81695 0.37788 0.0681 0.0
Mn589 Mn 0.83367 0.32147 0.07544 0.0
C590 C 0.85615 0.38486 0.09386 0.0
C591 C 0.78531 0.39916 0.07595 0.0
C592 C 0.85484 0.36309 0.03549 0.0
O593 O 0.77789 0.33956 0.05382 0.0
O594 O 0.78857 0.3025 0.06338 0.0
C595 C 0.78753 0.28652 0.11089 0.0
N596 N 0.81863 0.3029 0.10352 0.0
C597 C 0.83977 0.29578 0.13766 0.0
C598 C 0.80797 0.27871 0.1456 0.0
C599 C 0.78176 0.27418 0.13218 0.0
C600 C 0.84405 0.30771 0.11637 0.0
H601 H 0.76731 0.28294 0.10062 0.0
C602 C 0.76997 0.3111 0.05495 0.0
O603 O 0.80098 0.40492 0.0576 0.0
O604 O 0.78811 0.38108 0.08973 0.0
N605 N 0.87656 0.33725 0.08749 0.0
C606 C 0.90586 0.35598 0.07794 0.0
C607 C 0.93467 0.36371 0.08952 0.0
C608 C 0.93303 0.35185 0.11067 0.0
C609 C 0.90258 0.33249 0.1201 0.0
C610 C 0.87472 0.32577 0.10785 0.0
H611 H 0.90725 0.36502 0.06164 0.0
O612 O 0.85618 0.40882 0.08604 0.0
O613 O 0.83319 0.35789 0.08631 0.0
O614 O 0.84537 0.38105 0.0424 0.0
O615 O 0.8506 0.33945 0.0461 0.0
C616 C 0.89876 0.31973 0.14122 0.0
C617 C 0.8674 0.30158 0.15006 0.0
H618 H 0.80342 0.26912 0.162 0.0
H619 H 0.75715 0.26114 0.13822 0.0
H620 H 0.95809 0.37872 0.08215 0.0
H621 H 0.9553 0.35787 0.11956 0.0
H622 H 0.91982 0.324 0.1509 0.0
H623 H 0.86485 0.29238 0.16649 0.0
Mn624 Mn 0.45736 0.82668 0.24246 0.0
Mn625 Mn 0.53838 0.87156 0.25154 0.0
C626 C 0.47752 0.86289 0.27109 0.0
C627 C 0.40805 0.7805 0.24735 0.0
C628 C 0.50267 0.88315 0.21502 0.0
O629 O 0.47506 0.80401 0.2251 0.0
O630 O 0.52849 0.83374 0.23404 0.0
C631 C 0.5464 0.82895 0.28059 0.0
N632 N 0.54961 0.85717 0.27724 0.0
C633 C 0.57332 0.8756 0.31356 0.0
C634 C 0.57043 0.8468 0.31736 0.0
C635 C 0.55677 0.82333 0.30083 0.0
C636 C 0.56221 0.87972 0.29316 0.0
H637 H 0.53598 0.81085 0.26792 0.0
C638 C 0.50422 0.80983 0.22456 0.0
O639 O 0.4127 0.79782 0.23039 0.0
O640 O 0.43228 0.78981 0.26125 0.0
N641 N 0.55131 0.90864 0.26866 0.0
C642 C 0.55196 0.93496 0.26251 0.0
C643 C 0.56463 0.96058 0.2773 0.0
C644 C 0.57699 0.95908 0.29807 0.0
C645 C 0.57658 0.93196 0.30387 0.0
C646 C 0.56342 0.90708 0.28854 0.0
H647 H 0.54278 0.93636 0.24648 0.0
O648 O 0.44829 0.85222 0.26319 0.0
O649 O 0.49374 0.85156 0.26219 0.0
O650 O 0.47421 0.86121 0.2199 0.0
O651 O 0.52868 0.88852 0.22507 0.0
C652 C 0.58893 0.92871 0.3242 0.0
C653 C 0.58693 0.90042 0.32916 0.0
H654 H 0.57857 0.84245 0.33291 0.0
H655 H 0.55436 0.801 0.30366 0.0
H656 H 0.56495 0.98147 0.27267 0.0
H657 H 0.58676 0.9789 0.30943 0.0
H658 H 0.59992 0.94779 0.33619 0.0
H659 H 0.59605 0.89806 0.345 0.0
C660 C 0.22829 0.66541 0.28363 0.0
C661 C 0.21538 0.63371 0.27875 0.0
C662 C 0.26018 0.68784 0.27796 0.0
C663 C 0.27958 0.67835 0.26707 0.0
C664 C 0.26675 0.64637 0.26214 0.0
C665 C 0.23476 0.62436 0.26813 0.0
C666 C 0.2731 0.72172 0.28366 0.0
C667 C 0.28672 0.63547 0.25043 0.0
C668 C 0.35028 0.74242 0.23597 0.0
C669 C 0.37601 0.75232 0.25134 0.0
C670 C 0.31897 0.71742 0.24048 0.0
C671 C 0.3133 0.70214 0.26089 0.0
C672 C 0.33946 0.71126 0.2761 0.0
C673 C 0.37055 0.73622 0.27111 0.0
C674 C 0.29169 0.70817 0.22379 0.0
C675 C 0.33433 0.69554 0.29804 0.0
H676 H 0.21352 0.67264 0.29215 0.0
H677 H 0.22471 0.59987 0.26419 0.0
H678 H 0.29521 0.73115 0.29442 0.0
H679 H 0.2803 0.73558 0.2684 0.0
H680 H 0.2549 0.72517 0.29228 0.0
H681 H 0.2732 0.60974 0.24793 0.0
H682 H 0.29405 0.64654 0.23409 0.0
H683 H 0.30941 0.64272 0.26008 0.0
H684 H 0.35439 0.75465 0.2206 0.0
H685 H 0.39037 0.74371 0.28303 0.0
H686 H 0.27383 0.71358 0.23063 0.0
H687 H 0.27853 0.68269 0.22033 0.0
H688 H 0.30065 0.72056 0.20799 0.0
H689 H 0.31839 0.70027 0.30835 0.0
H690 H 0.35761 0.70379 0.30727 0.0
H691 H 0.32182 0.6699 0.29556 0.0
C692 C 0.5264 0.20077 0.43926 0.0
C693 C 0.54555 0.19277 0.45195 0.0
C694 C 0.53878 0.23148 0.43242 0.0
C695 C 0.57147 0.25464 0.43771 0.0
C696 C 0.59123 0.24667 0.44996 0.0
C697 C 0.57789 0.21607 0.45727 0.0
C698 C 0.51669 0.23926 0.41986 0.0
C699 C 0.62644 0.27056 0.45556 0.0
C700 C 0.6121 0.32926 0.40482 0.0
C701 C 0.61216 0.35051 0.42002 0.0
C702 C 0.59903 0.2979 0.41035 0.0
C703 C 0.58472 0.28752 0.43125 0.0
C704 C 0.58384 0.3088 0.44634 0.0
C705 C 0.59811 0.34017 0.44068 0.0
C706 C 0.60133 0.27613 0.39411 0.0
C707 C 0.56792 0.29848 0.46849 0.0
H708 H 0.50166 0.18304 0.43455 0.0
H709 H 0.59287 0.21063 0.46745 0.0
H710 H 0.51499 0.25764 0.42899 0.0
H711 H 0.52698 0.24869 0.4035 0.0
H712 H 0.49172 0.21866 0.41731 0.0
H713 H 0.63926 0.26003 0.46354 0.0
H714 H 0.63954 0.28238 0.44037 0.0
H715 H 0.62784 0.28873 0.46691 0.0
H716 H 0.62321 0.33738 0.3889 0.0
H717 H 0.59789 0.3566 0.45235 0.0
H718 H 0.57671 0.2559 0.39005 0.0
H719 H 0.61563 0.26684 0.40167 0.0
H720 H 0.61309 0.28783 0.37854 0.0
H721 H 0.54255 0.27849 0.46623 0.0
H722 H 0.56739 0.31748 0.47768 0.0
H723 H 0.58126 0.29042 0.47875 0.0
C724 C 0.40758 0.56903 0.62915 0.0
C725 C 0.43602 0.58056 0.61694 0.0
C726 C 0.38421 0.57674 0.62384 0.0
C727 C 0.38921 0.59607 0.60564 0.0
C728 C 0.41888 0.60934 0.59411 0.0
C729 C 0.4421 0.60154 0.6 0.0
C730 C 0.35318 0.56243 0.63678 0.0
C731 C 0.42507 0.6299 0.57455 0.0
C732 C 0.31127 0.57575 0.57498 0.0
C733 C 0.30577 0.59913 0.58246 0.0
C734 C 0.33888 0.57523 0.58187 0.0
C735 C 0.36155 0.59847 0.59687 0.0
C736 C 0.35658 0.62252 0.60423 0.0
C737 C 0.3288 0.62269 0.59683 0.0
C738 C 0.34339 0.54933 0.57339 0.0
C739 C 0.3801 0.64753 0.62036 0.0
H740 H 0.4031 0.55302 0.6424 0.0
H741 H 0.4641 0.61036 0.59054 0.0
H742 H 0.34713 0.58029 0.64121 0.0
H743 H 0.3327 0.54424 0.62643 0.0
H744 H 0.35495 0.5515 0.65215 0.0
H745 H 0.45091 0.64194 0.56947 0.0
H746 H 0.40943 0.61546 0.56037 0.0
H747 H 0.41862 0.64766 0.57834 0.0
H748 H 0.29391 0.55764 0.56366 0.0
H749 H 0.32477 0.64086 0.60268 0.0
H750 H 0.34224 0.53466 0.58731 0.0
H751 H 0.36773 0.55923 0.56596 0.0
H752 H 0.32453 0.53412 0.56081 0.0
H753 H 0.37973 0.63689 0.63639 0.0
H754 H 0.37404 0.6658 0.62328 0.0
H755 H 0.40532 0.65874 0.61421 0.0
C756 C 0.84861 0.35913 0.79335 0.0
C757 C 0.86915 0.38236 0.77877 0.0
C758 C 0.81589 0.33793 0.7877 0.0
C759 C 0.80353 0.33983 0.76684 0.0
C760 C 0.82377 0.36419 0.75246 0.0
C761 C 0.85642 0.38536 0.75867 0.0
C762 C 0.79503 0.31257 0.80363 0.0
C763 C 0.81146 0.36687 0.73006 0.0
C764 C 0.7353 0.26237 0.74365 0.0
C765 C 0.7076 0.26388 0.74822 0.0
C766 C 0.76666 0.28737 0.74901 0.0
C767 C 0.7705 0.31451 0.75939 0.0
C768 C 0.74277 0.31648 0.76374 0.0
C769 C 0.71161 0.29117 0.75801 0.0
C770 C 0.79567 0.28446 0.74393 0.0
C771 C 0.74596 0.34498 0.77493 0.0
H772 H 0.85842 0.35714 0.80904 0.0
H773 H 0.87239 0.40331 0.7474 0.0
H774 H 0.77164 0.31149 0.8061 0.0
H775 H 0.78914 0.28964 0.79667 0.0
H776 H 0.80737 0.31617 0.81997 0.0
H777 H 0.82903 0.38892 0.72189 0.0
H778 H 0.80715 0.347 0.71928 0.0
H779 H 0.78785 0.36566 0.73152 0.0
H780 H 0.73255 0.24158 0.73585 0.0
H781 H 0.69038 0.29259 0.76159 0.0
H782 H 0.80826 0.28498 0.75954 0.0
H783 H 0.81343 0.30448 0.73405 0.0
H784 H 0.78863 0.26254 0.73467 0.0
H785 H 0.75607 0.34761 0.79193 0.0
H786 H 0.72221 0.34365 0.77593 0.0
H787 H 0.76321 0.36626 0.76592 0.0
C788 C 0.41277 0.81637 0.94812 0.0
C789 C 0.44323 0.84421 0.94839 0.0
C790 C 0.40962 0.78811 0.94125 0.0
C791 C 0.43769 0.78778 0.93493 0.0
C792 C 0.46824 0.81596 0.93445 0.0
C793 C 0.47051 0.84384 0.94087 0.0
C794 C 0.37653 0.75854 0.94138 0.0
C795 C 0.49881 0.81658 0.92791 0.0
C796 C 0.44415 0.71645 0.9415 0.0
C797 C 0.4434 0.70746 0.91944 0.0
C798 C 0.44086 0.74187 0.94689 0.0
C799 C 0.43589 0.75801 0.92978 0.0
C800 C 0.43303 0.74771 0.90756 0.0
C801 C 0.43731 0.72278 0.90261 0.0
C802 C 0.44467 0.75256 0.97075 0.0
C803 C 0.42684 0.76383 0.88896 0.0
H804 H 0.39159 0.81647 0.95394 0.0
H805 H 0.49395 0.86541 0.9404 0.0
H806 H 0.37156 0.74551 0.92546 0.0
H807 H 0.376 0.74322 0.9546 0.0
H808 H 0.3567 0.76327 0.94426 0.0
H809 H 0.52063 0.84055 0.92833 0.0
H810 H 0.50334 0.80202 0.93929 0.0
H811 H 0.49579 0.80656 0.91101 0.0
H812 H 0.44883 0.70455 0.9545 0.0
H813 H 0.43622 0.71546 0.88554 0.0
H814 H 0.42398 0.75512 0.97555 0.0
H815 H 0.46725 0.7758 0.97289 0.0
H816 H 0.44608 0.73616 0.98217 0.0
H817 H 0.4067 0.76759 0.89309 0.0
H818 H 0.4206 0.75028 0.87315 0.0
H819 H 0.44892 0.78707 0.88649 0.0
C820 C 0.66289 0.45991 0.09738 0.0
C821 C 0.67915 0.48756 0.11013 0.0
C822 C 0.67876 0.44423 0.0912 0.0
C823 C 0.71156 0.45652 0.09801 0.0
C824 C 0.72801 0.48433 0.11096 0.0
C825 C 0.71159 0.49951 0.11687 0.0
C826 C 0.66052 0.41464 0.07733 0.0
C827 C 0.76295 0.49803 0.11864 0.0
C828 C 0.74687 0.4045 0.10029 0.0
C829 C 0.7653 0.4128 0.08106 0.0
C830 C 0.72856 0.41798 0.10573 0.0
C831 C 0.72887 0.44038 0.09164 0.0
C832 C 0.74696 0.44845 0.07201 0.0
C833 C 0.76493 0.43449 0.06691 0.0
C834 C 0.70941 0.4087 0.12676 0.0
C835 C 0.7479 0.47234 0.05663 0.0
H836 H 0.63788 0.45077 0.09201 0.0
H837 H 0.72405 0.52061 0.12702 0.0
H838 H 0.67321 0.41754 0.06155 0.0
H839 H 0.66008 0.39515 0.08606 0.0
H840 H 0.63503 0.40807 0.07354 0.0
H841 H 0.77223 0.51989 0.12857 0.0
H842 H 0.76513 0.48095 0.1288 0.0
H843 H 0.7788 0.50309 0.10418 0.0
H844 H 0.74693 0.38761 0.11122 0.0
H845 H 0.77908 0.44095 0.05201 0.0
H846 H 0.68352 0.40068 0.12309 0.0
H847 H 0.71908 0.42921 0.13817 0.0
H848 H 0.7105 0.38986 0.13536 0.0
H849 H 0.7228 0.46565 0.05158 0.0
H850 H 0.762 0.475 0.04155 0.0
H851 H 0.75913 0.4953 0.06534 0.0
C852 C 0.36742 0.85429 0.51175 0.0
C853 C 0.40043 0.87353 0.5179 0.0
C854 C 0.34934 0.82304 0.51803 0.0
C855 C 0.36464 0.81045 0.53059 0.0
C856 C 0.39813 0.82943 0.53639 0.0
C857 C 0.41562 0.86077 0.53003 0.0
C858 C 0.31367 0.80361 0.51149 0.0
C859 C 0.41535 0.81677 0.54962 0.0
C860 C 0.30815 0.73958 0.56427 0.0
C861 C 0.3034 0.71501 0.55032 0.0
C862 C 0.32873 0.77078 0.55833 0.0
C863 C 0.34517 0.7776 0.53801 0.0
C864 C 0.34135 0.75291 0.52421 0.0
C865 C 0.3204 0.72191 0.53048 0.0
C866 C 0.33198 0.79643 0.57344 0.0
C867 C 0.35871 0.75921 0.50253 0.0
H868 H 0.35563 0.86371 0.50198 0.0
H869 H 0.44101 0.87548 0.53502 0.0
H870 H 0.30888 0.78274 0.50175 0.0
H871 H 0.29867 0.79523 0.5265 0.0
H872 H 0.30551 0.81683 0.50154 0.0
H873 H 0.44182 0.83406 0.55185 0.0
H874 H 0.40438 0.80988 0.56615 0.0
H875 H 0.41224 0.79554 0.54133 0.0
H876 H 0.29512 0.73445 0.57963 0.0
H877 H 0.317 0.70305 0.51966 0.0
H878 H 0.32196 0.80921 0.565 0.0
H879 H 0.35804 0.81349 0.57734 0.0
H880 H 0.31896 0.78733 0.58917 0.0
H881 H 0.34958 0.77014 0.49106 0.0
H882 H 0.3551 0.7376 0.49451 0.0
H883 H 0.38522 0.77587 0.50513 0.0
C884 C 0.59684 0.40268 0.68225 0.0
C885 C 0.56692 0.39385 0.67188 0.0
C886 C 0.60365 0.38021 0.6895 0.0
C887 C 0.57991 0.34818 0.68639 0.0
C888 C 0.54991 0.33912 0.67559 0.0
C889 C 0.54383 0.36207 0.66842 0.0
C890 C 0.63596 0.39072 0.7009 0.0
C891 C 0.524 0.30518 0.67196 0.0
C892 C 0.60426 0.28756 0.68981 0.0
C893 C 0.59479 0.27653 0.71123 0.0
C894 C 0.60006 0.31126 0.68159 0.0
C895 C 0.58588 0.32405 0.69511 0.0
C896 C 0.57657 0.31321 0.71682 0.0
C897 C 0.58122 0.28963 0.72465 0.0
C898 C 0.61047 0.32239 0.65839 0.0
C899 C 0.56124 0.3262 0.73169 0.0
H900 H 0.61466 0.42719 0.6852 0.0
H901 H 0.52089 0.3551 0.66007 0.0
H902 H 0.63191 0.3828 0.71822 0.0
H903 H 0.64834 0.38003 0.69258 0.0
H904 H 0.65242 0.41648 0.70102 0.0
H905 H 0.5023 0.30205 0.66281 0.0
H906 H 0.53404 0.29305 0.66259 0.0
H907 H 0.51606 0.29362 0.68812 0.0
H908 H 0.61488 0.27759 0.67939 0.0
H909 H 0.57384 0.28121 0.74123 0.0
H910 H 0.62795 0.34795 0.65864 0.0
H911 H 0.58903 0.31783 0.64822 0.0
H912 H 0.62205 0.31074 0.65027 0.0
H913 H 0.57762 0.35182 0.73372 0.0
H914 H 0.55597 0.31568 0.74829 0.0
H915 H 0.53812 0.32186 0.72403 0.0
C916 C 0.2091 0.52694 0.87371 0.0
C917 C 0.19839 0.51764 0.85179 0.0
C918 C 0.24117 0.53687 0.88023 0.0
C919 C 0.26293 0.53743 0.86443 0.0
C920 C 0.25212 0.52758 0.84237 0.0
C921 C 0.21996 0.51786 0.83629 0.0
C922 C 0.25194 0.54725 0.90392 0.0
C923 C 0.27472 0.52797 0.82508 0.0
C924 C 0.35281 0.59397 0.87548 0.0
C925 C 0.36292 0.57438 0.88393 0.0
C926 C 0.3204 0.58213 0.86889 0.0
C927 C 0.29748 0.54991 0.87074 0.0
C928 C 0.30748 0.52985 0.87889 0.0
C929 C 0.34013 0.54233 0.8854 0.0
C930 C 0.31059 0.60422 0.86023 0.0
C931 C 0.2836 0.49532 0.881 0.0
H932 H 0.19234 0.52637 0.88579 0.0
H933 H 0.21187 0.51105 0.81926 0.0
H934 H 0.26207 0.53381 0.91116 0.0
H935 H 0.27162 0.5722 0.90457 0.0
H936 H 0.23166 0.54426 0.91434 0.0
H937 H 0.26199 0.51796 0.80895 0.0
H938 H 0.29489 0.55229 0.82255 0.0
H939 H 0.28583 0.51459 0.83072 0.0
H940 H 0.37018 0.61875 0.87419 0.0
H941 H 0.34765 0.52701 0.89193 0.0
H942 H 0.29192 0.60392 0.871 0.0
H943 H 0.29949 0.59657 0.84344 0.0
H944 H 0.33156 0.62858 0.85946 0.0
H945 H 0.26416 0.49141 0.89258 0.0
H946 H 0.29546 0.48278 0.8871 0.0
H947 H 0.27162 0.48497 0.86477 0.0
C948 C 0.58945 0.16682 0.03918 0.0
C949 C 0.58496 0.15401 0.01786 0.0
C950 C 0.61702 0.19605 0.04454 0.0
C951 C 0.64024 0.2126 0.02809 0.0
C952 C 0.63391 0.20104 0.00602 0.0
C953 C 0.60637 0.17171 0.0012 0.0
C954 C 0.62285 0.20767 0.06823 0.0
C955 C 0.65779 0.21811 0.98793 0.0
C956 C 0.71335 0.29349 0.04105 0.0
C957 C 0.73703 0.2864 0.0471 0.0
C958 C 0.68159 0.26978 0.0348 0.0
C959 C 0.67345 0.23837 0.03461 0.0
C960 C 0.69733 0.23114 0.04045 0.0
C961 C 0.72874 0.25518 0.0466 0.0
C962 C 0.6567 0.27825 0.02863 0.0
C963 C 0.68969 0.19789 0.04032 0.0
H964 H 0.57282 0.15299 0.05202 0.0
H965 H 0.60257 0.16174 0.98465 0.0
H966 H 0.64156 0.20394 0.07597 0.0
H967 H 0.63223 0.23303 0.06914 0.0
H968 H 0.60031 0.19521 0.07801 0.0
H969 H 0.64669 0.20905 0.97126 0.0
H970 H 0.66702 0.24344 0.98894 0.0
H971 H 0.67902 0.2152 0.98993 0.0
H972 H 0.71945 0.31751 0.04148 0.0
H973 H 0.74678 0.24938 0.05117 0.0
H974 H 0.63611 0.26734 0.04019 0.0
H975 H 0.64652 0.26902 0.01182 0.0
H976 H 0.66716 0.30386 0.02903 0.0
H977 H 0.66946 0.18377 0.05168 0.0
H978 H 0.71101 0.19627 0.04543 0.0
H979 H 0.68157 0.18731 0.02352 0.0
C980 C 0.53618 0.68242 0.16778 0.0
C981 C 0.54984 0.67288 0.18411 0.0
C982 C 0.52753 0.70455 0.17262 0.0
C983 C 0.53208 0.71687 0.19441 0.0
C984 C 0.54523 0.70675 0.21106 0.0
C985 C 0.5543 0.68512 0.20564 0.0
C986 C 0.51422 0.71523 0.15434 0.0
C987 C 0.54987 0.7189 0.23459 0.0
C988 C 0.5412 0.7953 0.20666 0.0
C989 C 0.51013 0.78644 0.2142 0.0
C990 C 0.54824 0.77293 0.19922 0.0
C991 C 0.52383 0.7409 0.19982 0.0
C992 C 0.49215 0.73186 0.2068 0.0
C993 C 0.48558 0.75478 0.21369 0.0
C994 C 0.58211 0.78354 0.1914 0.0
C995 C 0.46563 0.69792 0.20802 0.0
H996 H 0.53306 0.67314 0.15107 0.0
H997 H 0.56469 0.67754 0.21827 0.0
H998 H 0.48998 0.71109 0.15877 0.0
H999 H 0.53055 0.74069 0.15215 0.0
H1000 H 0.51181 0.70308 0.13834 0.0
H1001 H 0.55896 0.70757 0.24576 0.0
H1002 H 0.56752 0.74441 0.2352 0.0
H1003 H 0.52647 0.71492 0.24094 0.0
H1004 H 0.5602 0.81976 0.2069 0.0
H1005 H 0.4616 0.74776 0.21971 0.0
H1006 H 0.58085 0.77269 0.17506 0.0
H1007 H 0.59437 0.77593 0.20313 0.0
H1008 H 0.59734 0.80929 0.19003 0.0
H1009 H 0.4626 0.68583 0.19192 0.0
H1010 H 0.44183 0.69482 0.2126 0.0
H1011 H 0.47262 0.68632 0.22049 0.0
C1012 C 0.86969 0.47803 0.33879 0.0
C1013 C 0.89011 0.47098 0.35074 0.0
C1014 C 0.8409 0.47355 0.34785 0.0
C1015 C 0.83234 0.46182 0.36944 0.0
C1016 C 0.85202 0.45319 0.38117 0.0
C1017 C 0.8807 0.45781 0.37164 0.0
C1018 C 0.82045 0.48275 0.33468 0.0
C1019 C 0.84367 0.44057 0.4042 0.0
C1020 C 0.78219 0.48859 0.39961 0.0
C1021 C 0.75039 0.46294 0.39644 0.0
C1022 C 0.80915 0.488 0.39165 0.0
C1023 C 0.8043 0.46111 0.38022 0.0
C1024 C 0.77248 0.43467 0.37772 0.0
C1025 C 0.7459 0.43589 0.38586 0.0
C1026 C 0.84275 0.51665 0.39476 0.0
C1027 C 0.76636 0.40554 0.36572 0.0
H1028 H 0.87673 0.48783 0.32251 0.0
H1029 H 0.89655 0.45253 0.38096 0.0
H1030 H 0.79464 0.46332 0.33395 0.0
H1031 H 0.82114 0.50293 0.34294 0.0
H1032 H 0.82912 0.48925 0.31754 0.0
H1033 H 0.85933 0.43177 0.41009 0.0
H1034 H 0.84684 0.45927 0.41579 0.0
H1035 H 0.8178 0.4214 0.40481 0.0
H1036 H 0.78607 0.50952 0.40793 0.0
H1037 H 0.7215 0.41584 0.38339 0.0
H1038 H 0.85263 0.52675 0.37844 0.0
H1039 H 0.85958 0.51035 0.40237 0.0
H1040 H 0.84264 0.53485 0.40531 0.0
H1041 H 0.77192 0.4105 0.34798 0.0
H1042 H 0.7407 0.38601 0.36702 0.0
H1043 H 0.78268 0.39798 0.37238 0.0
C1044 C 0.058 0.52511 0.44372 0.0
C1045 C 0.06664 0.54751 0.4274 0.0
C1046 C 0.07592 0.53239 0.46365 0.0
C1047 C 0.10299 0.56291 0.46747 0.0
C1048 C 0.11047 0.58617 0.4517 0.0
C1049 C 0.09248 0.57812 0.43178 0.0
C1050 C 0.06705 0.50675 0.47981 0.0
C1051 C 0.13845 0.61929 0.45538 0.0
C1052 C 0.14156 0.58988 0.52482 0.0
C1053 C 0.17033 0.58952 0.52259 0.0
C1054 C 0.11887 0.58045 0.50723 0.0
C1055 C 0.12505 0.57017 0.48703 0.0
C1056 C 0.15376 0.56907 0.48493 0.0
C1057 C 0.17646 0.57957 0.50256 0.0
C1058 C 0.08911 0.5829 0.50991 0.0
C1059 C 0.16093 0.55765 0.46383 0.0
H1060 H 0.03783 0.50151 0.44062 0.0
H1061 H 0.0998 0.59558 0.4192 0.0
H1062 H 0.08361 0.49785 0.47747 0.0
H1063 H 0.06996 0.5154 0.49711 0.0
H1064 H 0.04163 0.48699 0.47711 0.0
H1065 H 0.13823 0.63536 0.44304 0.0
H1066 H 0.13757 0.6279 0.47217 0.0
H1067 H 0.16189 0.62013 0.45417 0.0
H1068 H 0.13728 0.59839 0.54017 0.0
H1069 H 0.19947 0.58084 0.50047 0.0
H1070 H 0.06671 0.56027 0.50567 0.0
H1071 H 0.09016 0.60033 0.49833 0.0
H1072 H 0.0871 0.58996 0.52699 0.0
H1073 H 0.14023 0.53398 0.45935 0.0
H1074 H 0.18353 0.55686 0.46523 0.0
H1075 H 0.16366 0.57316 0.45009 0.0
C1076 C 0.49793 0.0303 0.61756 0.0
C1077 C 0.48452 0.04144 0.60225 0.0
C1078 C 0.51099 0.04588 0.63789 0.0
C1079 C 0.51085 0.0734 0.64294 0.0
C1080 C 0.49536 0.08353 0.62816 0.0
C1081 C 0.48254 0.06753 0.60797 0.0
C1082 C 0.52683 0.03378 0.653 0.0
C1083 C 0.49406 0.11241 0.63303 0.0
C1084 C 0.53108 0.11244 0.69984 0.0
C1085 C 0.56267 0.13777 0.69679 0.0
C1086 C 0.51441 0.09014 0.68284 0.0
C1087 C 0.52964 0.09362 0.66232 0.0
C1088 C 0.56205 0.11858 0.65953 0.0
C1089 C 0.57793 0.14068 0.67668 0.0
C1090 C 0.48005 0.06365 0.68648 0.0
C1091 C 0.57945 0.12267 0.6381 0.0
H1092 H 0.49926 0.00996 0.61333 0.0
H1093 H 0.47263 0.0766 0.59613 0.0
H1094 H 0.55202 0.04281 0.64744 0.0
H1095 H 0.52775 0.04115 0.67044 0.0
H1096 H 0.51375 0.00792 0.65202 0.0
H1097 H 0.47754 0.11476 0.62133 0.0
H1098 H 0.48571 0.11201 0.6501 0.0
H1099 H 0.51884 0.13336 0.6318 0.0
H1100 H 0.51916 0.11054 0.71534 0.0
H1101 H 0.6019 0.16092 0.67406 0.0
H1102 H 0.47779 0.04107 0.68212 0.0
H1103 H 0.46296 0.06614 0.67548 0.0
H1104 H 0.47254 0.06293 0.70385 0.0
H1105 H 0.5786 0.10081 0.63348 0.0
H1106 H 0.60533 0.14202 0.63915 0.0
H1107 H 0.56701 0.12761 0.62465 0.0
C1108 C 0.53161 0.60961 0.74512 0.0
C1109 C 0.50691 0.58142 0.73537 0.0
C1110 C 0.52981 0.61743 0.76716 0.0
C1111 C 0.50209 0.59717 0.77949 0.0
C1112 C 0.47634 0.56955 0.76948 0.0
C1113 C 0.47932 0.56173 0.74773 0.0
C1114 C 0.55803 0.64679 0.77748 0.0
C1115 C 0.44593 0.54775 0.78194 0.0
C1116 C 0.50276 0.59348 0.84189 0.0
C1117 C 0.4885 0.61071 0.84767 0.0
C1118 C 0.50926 0.59054 0.81977 0.0
C1119 C 0.50011 0.6042 0.80308 0.0
C1120 C 0.48647 0.62229 0.80891 0.0
C1121 C 0.48129 0.62573 0.83121 0.0
C1122 C 0.52481 0.57189 0.81419 0.0
C1123 C 0.47542 0.63635 0.79156 0.0
H1124 H 0.55273 0.6254 0.73567 0.0
H1125 H 0.46035 0.53957 0.74075 0.0
H1126 H 0.54954 0.6619 0.78423 0.0
H1127 H 0.56854 0.64066 0.79151 0.0
H1128 H 0.57759 0.66035 0.76551 0.0
H1129 H 0.42694 0.52877 0.77114 0.0
H1130 H 0.45207 0.53704 0.79558 0.0
H1131 H 0.43554 0.56087 0.78945 0.0
H1132 H 0.50845 0.58199 0.85465 0.0
H1133 H 0.46987 0.63875 0.83567 0.0
H1134 H 0.54533 0.58501 0.80282 0.0
H1135 H 0.50672 0.5498 0.80558 0.0
H1136 H 0.53405 0.56611 0.82916 0.0
H1137 H 0.49518 0.65001 0.77981 0.0
H1138 H 0.46764 0.65176 0.7989 0.0
H1139 H 0.45459 0.6174 0.78189 0.0
C1140 C 0.95049 0.39986 0.92145 0.0
C1141 C 0.93091 0.39998 0.90417 0.0
C1142 C 0.93908 0.39339 0.9431 0.0
C1143 C 0.90714 0.38644 0.94748 0.0
C1144 C 0.88705 0.38597 0.92997 0.0
C1145 C 0.89935 0.39313 0.90852 0.0
C1146 C 0.96156 0.3949 0.96135 0.0
C1147 C 0.85268 0.37816 0.93393 0.0
C1148 C 0.86751 0.34485 0.0005 0.0
C1149 C 0.8702 0.36932 0.01361 0.0
C1150 C 0.87946 0.35007 0.97893 0.0
C1151 C 0.89508 0.38059 0.97049 0.0
C1152 C 0.89882 0.40554 0.98393 0.0
C1153 C 0.88602 0.39955 0.00524 0.0
C1154 C 0.87466 0.32282 0.96498 0.0
C1155 C 0.91602 0.43853 0.97572 0.0
H1156 H 0.97514 0.40572 0.91811 0.0
H1157 H 0.8843 0.39327 0.8951 0.0
H1158 H 0.9672 0.41436 0.97301 0.0
H1159 H 0.94956 0.37311 0.97089 0.0
H1160 H 0.98484 0.39855 0.95495 0.0
H1161 H 0.8397 0.37724 0.91838 0.0
H1162 H 0.83866 0.35529 0.94206 0.0
H1163 H 0.85307 0.39588 0.94525 0.0
H1164 H 0.85506 0.3214 0.00682 0.0
H1165 H 0.88838 0.41859 0.01537 0.0
H1166 H 0.89853 0.32715 0.95937 0.0
H1167 H 0.85989 0.32017 0.94997 0.0
H1168 H 0.86226 0.30059 0.97405 0.0
H1169 H 0.94076 0.4455 0.97011 0.0
H1170 H 0.91831 0.45551 0.98862 0.0
H1171 H 0.90246 0.43995 0.9613 0.0
C1172 C 0.47632 0.95103 0.10606 0.0
C1173 C 0.49749 0.983 0.10287 0.0
C1174 C 0.47878 0.93671 0.12506 0.0
C1175 C 0.5028 0.95488 0.14144 0.0
C1176 C 0.52379 0.98737 0.13857 0.0
C1177 C 0.52118 0.00101 0.11911 0.0
C1178 C 0.4563 0.90192 0.12721 0.0
C1179 C 0.54898 0.00764 0.15599 0.0
C1180 C 0.48491 0.91615 0.19709 0.0
C1181 C 0.50524 0.90391 0.19719 0.0
C1182 C 0.48533 0.93443 0.17964 0.0
C1183 C 0.50572 0.93958 0.16148 0.0
C1184 C 0.5268 0.92773 0.16174 0.0
C1185 C 0.52672 0.91044 0.17985 0.0
C1186 C 0.46308 0.94726 0.18025 0.0
C1187 C 0.54823 0.93198 0.14244 0.0
H1188 H 0.45842 0.93696 0.09329 0.0
H1189 H 0.53758 0.02573 0.11658 0.0
H1190 H 0.47065 0.89042 0.12593 0.0
H1191 H 0.44464 0.89628 0.14356 0.0
H1192 H 0.43681 0.89183 0.11422 0.0
H1193 H 0.56238 0.03268 0.1517 0.0
H1194 H 0.53711 0.00494 0.17211 0.0
H1195 H 0.56683 0.00015 0.15819 0.0
H1196 H 0.46854 0.91129 0.21069 0.0
H1197 H 0.54231 0.9008 0.17998 0.0
H1198 H 0.44347 0.93516 0.16749 0.0
H1199 H 0.47682 0.97243 0.17641 0.0
H1200 H 0.45162 0.94422 0.19659 0.0
H1201 H 0.53277 0.91969 0.12762 0.0
H1202 H 0.56442 0.92276 0.1457 0.0
H1203 H 0.56351 0.95701 0.13845 0.0
C1204 C 0.65221 0.55685 0.26045 0.0
C1205 C 0.62461 0.55957 0.25994 0.0
C1206 C 0.65968 0.54496 0.27886 0.0
C1207 C 0.63898 0.53544 0.29723 0.0
C1208 C 0.61105 0.5381 0.29687 0.0
C1209 C 0.6041 0.55003 0.27814 0.0
C1210 C 0.68954 0.54228 0.27854 0.0
C1211 C 0.58866 0.52851 0.3163 0.0
C1212 C 0.64284 0.48083 0.33837 0.0
C1213 C 0.66286 0.50181 0.3552 0.0
C1214 C 0.63505 0.49145 0.31927 0.0
C1215 C 0.64724 0.5237 0.31712 0.0
C1216 C 0.66772 0.54498 0.33388 0.0
C1217 C 0.67547 0.53384 0.35259 0.0
C1218 C 0.61357 0.46817 0.30149 0.0
C1219 C 0.68123 0.57957 0.33216 0.0
H1220 H 0.6677 0.56343 0.24619 0.0
H1221 H 0.58274 0.55206 0.27777 0.0
H1222 H 0.70512 0.55381 0.29344 0.0
H1223 H 0.68203 0.51734 0.27881 0.0
H1224 H 0.70439 0.55291 0.26368 0.0
H1225 H 0.56781 0.53179 0.31332 0.0
H1226 H 0.579 0.50363 0.31992 0.0
H1227 H 0.60244 0.54237 0.33123 0.0
H1228 H 0.63303 0.45609 0.34017 0.0
H1229 H 0.69096 0.55035 0.36542 0.0
H1230 H 0.62634 0.47431 0.28552 0.0
H1231 H 0.59108 0.46893 0.29916 0.0
H1232 H 0.60655 0.44396 0.30549 0.0
H1233 H 0.69615 0.58858 0.31717 0.0
H1234 H 0.69655 0.593 0.34678 0.0
H1235 H 0.66096 0.58396 0.33047 0.0
C1236 C 0.50963 0.93893 0.39335 0.0
C1237 C 0.48027 0.93666 0.39936 0.0
C1238 C 0.51285 0.92784 0.37277 0.0
C1239 C 0.48546 0.91185 0.35838 0.0
C1240 C 0.45504 0.90697 0.36502 0.0
C1241 C 0.45302 0.92018 0.38506 0.0
C1242 C 0.54602 0.93483 0.36597 0.0
C1243 C 0.42474 0.88855 0.35067 0.0
C1244 C 0.48897 0.90717 0.29606 0.0
C1245 C 0.48605 0.87824 0.29295 0.0
C1246 C 0.49174 0.91962 0.3174 0.0
C1247 C 0.48872 0.90143 0.33595 0.0
C1248 C 0.48615 0.87224 0.3328 0.0
C1249 C 0.48558 0.86131 0.31126 0.0
C1250 C 0.49676 0.95175 0.32003 0.0
C1251 C 0.48119 0.85132 0.35193 0.0
H1252 H 0.53064 0.95016 0.40442 0.0
H1253 H 0.43016 0.91825 0.38901 0.0
H1254 H 0.54507 0.91308 0.36101 0.0
H1255 H 0.55371 0.95013 0.35142 0.0
H1256 H 0.56476 0.94671 0.37933 0.0
H1257 H 0.4023 0.88277 0.35964 0.0
H1258 H 0.42635 0.90224 0.336 0.0
H1259 H 0.42247 0.86653 0.34464 0.0
H1260 H 0.48877 0.91991 0.28179 0.0
H1261 H 0.48244 0.8385 0.30869 0.0
H1262 H 0.51564 0.96544 0.33298 0.0
H1263 H 0.47379 0.94983 0.32529 0.0
H1264 H 0.5043 0.96476 0.30437 0.0
H1265 H 0.49859 0.86444 0.36571 0.0
H1266 H 0.48392 0.83144 0.347 0.0
H1267 H 0.45629 0.84187 0.35831 0.0
C1268 C 0.53295 0.48139 0.52075 0.0
C1269 C 0.54139 0.51169 0.52717 0.0
C1270 C 0.54706 0.47613 0.5024 0.0
C1271 C 0.57088 0.50183 0.49048 0.0
C1272 C 0.57816 0.53226 0.49604 0.0
C1273 C 0.56306 0.53679 0.51418 0.0
C1274 C 0.53778 0.44315 0.49654 0.0
C1275 C 0.60362 0.56038 0.48403 0.0
C1276 C 0.63157 0.48467 0.46502 0.0
C1277 C 0.62083 0.4785 0.44297 0.0
C1278 C 0.61696 0.49455 0.48032 0.0
C1279 C 0.58992 0.49675 0.47358 0.0
C1280 C 0.5792 0.49082 0.45122 0.0
C1281 C 0.59486 0.48177 0.43615 0.0
C1282 C 0.62966 0.50151 0.5039 0.0
C1283 C 0.55014 0.49237 0.44348 0.0
H1284 H 0.51671 0.46177 0.53077 0.0
H1285 H 0.56936 0.56023 0.51875 0.0
H1286 H 0.53169 0.43829 0.47865 0.0
H1287 H 0.55871 0.4402 0.50001 0.0
H1288 H 0.51664 0.42561 0.50605 0.0
H1289 H 0.60092 0.58084 0.48665 0.0
H1290 H 0.62801 0.56661 0.49048 0.0
H1291 H 0.60259 0.55549 0.46604 0.0
H1292 H 0.65072 0.4808 0.47044 0.0
H1293 H 0.58615 0.47628 0.41913 0.0
H1294 H 0.61064 0.48479 0.51507 0.0
H1295 H 0.6355 0.52519 0.50899 0.0
H1296 H 0.65179 0.50009 0.50622 0.0
H1297 H 0.52783 0.47358 0.45126 0.0
H1298 H 0.5466 0.48964 0.42525 0.0
H1299 H 0.55293 0.51489 0.44866 0.0
C1300 C 0.05665 0.50548 0.68656 0.0
C1301 C 0.06781 0.51906 0.70763 0.0
C1302 C 0.07688 0.51739 0.66818 0.0
C1303 C 0.1092 0.54306 0.67108 0.0
C1304 C 0.12029 0.55727 0.69224 0.0
C1305 C 0.09944 0.54517 0.71022 0.0
C1306 C 0.06395 0.50206 0.64577 0.0
C1307 C 0.15465 0.58441 0.69611 0.0
C1308 C 0.1709 0.54918 0.62963 0.0
C1309 C 0.17476 0.57347 0.61634 0.0
C1310 C 0.15019 0.53956 0.64778 0.0
C1311 C 0.13207 0.55389 0.65229 0.0
C1312 C 0.13592 0.57849 0.63893 0.0
C1313 C 0.1576 0.58829 0.62128 0.0
C1314 C 0.14753 0.51392 0.66203 0.0
C1315 C 0.11652 0.59388 0.64293 0.0
H1316 H 0.03221 0.48536 0.68451 0.0
H1317 H 0.10842 0.55542 0.72655 0.0
H1318 H 0.06809 0.51982 0.63341 0.0
H1319 H 0.07726 0.49067 0.64023 0.0
H1320 H 0.03751 0.48419 0.64593 0.0
H1321 H 0.15854 0.59452 0.71309 0.0
H1322 H 0.17209 0.57656 0.69346 0.0
H1323 H 0.16048 0.60305 0.68414 0.0
H1324 H 0.18419 0.53772 0.62583 0.0
H1325 H 0.16018 0.60675 0.61079 0.0
H1326 H 0.12229 0.49347 0.66109 0.0
H1327 H 0.15288 0.52195 0.67957 0.0
H1328 H 0.16449 0.50629 0.65696 0.0
H1329 H 0.09009 0.57623 0.64141 0.0
H1330 H 0.12243 0.61275 0.63109 0.0
H1331 H 0.12123 0.60386 0.65996 0.0
C1332 C 0.51649 0.08664 0.88172 0.0
C1333 C 0.53806 0.09752 0.89997 0.0
C1334 C 0.5268 0.09975 0.86088 0.0
C1335 C 0.55936 0.12451 0.85832 0.0
C1336 C 0.5809 0.13635 0.87688 0.0
C1337 C 0.57003 0.12254 0.89749 0.0
C1338 C 0.50321 0.08627 0.84144 0.0
C1339 C 0.61566 0.16298 0.87485 0.0
C1340 C 0.59574 0.13507 0.80146 0.0
C1341 C 0.59263 0.15936 0.79315 0.0
C1342 C 0.58512 0.12362 0.82267 0.0
C1343 C 0.57129 0.13694 0.836 0.0
C1344 C 0.56843 0.1617 0.82787 0.0
C1345 C 0.579 0.17253 0.80651 0.0
C1346 C 0.58836 0.09701 0.83072 0.0
C1347 C 0.55405 0.17664 0.84169 0.0
H1348 H 0.4919 0.06697 0.88356 0.0
H1349 H 0.58666 0.13101 0.91164 0.0
H1350 H 0.5017 0.10496 0.83299 0.0
H1351 H 0.51207 0.07585 0.82924 0.0
H1352 H 0.47834 0.06802 0.84641 0.0
H1353 H 0.62856 0.17087 0.89114 0.0
H1354 H 0.62917 0.15565 0.86415 0.0
H1355 H 0.61628 0.18305 0.8669 0.0
H1356 H 0.6061 0.12463 0.79128 0.0
H1357 H 0.57662 0.19141 0.80032 0.0
H1358 H 0.56398 0.07684 0.83461 0.0
H1359 H 0.60333 0.10408 0.84618 0.0
H1360 H 0.59974 0.08931 0.81834 0.0
H1361 H 0.52851 0.15903 0.8457 0.0
H1362 H 0.55433 0.19623 0.83318 0.0
H1363 H 0.56784 0.18555 0.85758 0.0
C1364 C 0.56534 0.60746 0.03876 0.0
C1365 C 0.56554 0.62693 0.05554 0.0
C1366 C 0.55891 0.611 0.01678 0.0
C1367 C 0.55213 0.63445 0.01154 0.0
C1368 C 0.55505 0.65589 0.02824 0.0
C1369 C 0.56172 0.65183 0.05018 0.0
C1370 C 0.55906 0.589 -0.0003 0.0
C1371 C 0.54971 0.68221 0.02307 0.0
C1372 C 0.54244 0.64831 0.95103 0.0
C1373 C 0.50847 0.63266 0.94872 0.0
C1374 C 0.55725 0.64907 0.97137 0.0
C1375 C 0.53747 0.63382 0.98967 0.0
C1376 C 0.50313 0.61755 0.98721 0.0
C1377 C 0.48912 0.61783 0.96691 0.0
C1378 C 0.59389 0.66629 0.97339 0.0
C1379 C 0.48113 0.60002 0.00608 0.0
H1380 H 0.56947 0.58885 0.04293 0.0
H1381 H 0.56258 0.66724 0.06322 0.0
H1382 H 0.5455 0.56475 0.00574 0.0
H1383 H 0.54873 0.58981 0.98351 0.0
H1384 H 0.58458 0.59521 0.99725 0.0
H1385 H 0.55775 0.69947 0.03697 0.0
H1386 H 0.56309 0.69436 0.00805 0.0
H1387 H 0.52343 0.67272 0.01966 0.0
H1388 H 0.55737 0.66037 0.93702 0.0
H1389 H 0.46293 0.60709 0.96544 0.0
H1390 H 0.6017 0.64956 0.97715 0.0
H1391 H 0.60252 0.68355 0.9873 0.0
H1392 H 0.60584 0.67859 0.95803 0.0
H1393 H 0.48679 0.58259 0.0122 0.0
H1394 H 0.45492 0.58778 0.0012 0.0
H1395 H 0.48543 0.61634 0.02002 0.0
C1396 C 0.9336 0.45608 0.2087 0.0
C1397 C 0.94368 0.44027 0.22256 0.0
C1398 C 0.91895 0.44366 0.18794 0.0
C1399 C 0.91575 0.4155 0.18018 0.0
C1400 C 0.92608 0.39954 0.19385 0.0
C1401 C 0.9389 0.41154 0.21506 0.0
C1402 C 0.90726 0.46098 0.1742 0.0
C1403 C 0.92433 0.37016 0.1859 0.0
C1404 C 0.85359 0.37437 0.13372 0.0
C1405 C 0.8726 0.38812 0.11518 0.0
C1406 C 0.86756 0.38181 0.15503 0.0
C1407 C 0.9015 0.40304 0.15775 0.0
C1408 C 0.92112 0.41511 0.13886 0.0
C1409 C 0.90626 0.4082 0.11776 0.0
C1410 C 0.84552 0.36894 0.1746 0.0
C1411 C 0.95761 0.43647 0.14098 0.0
H1412 H 0.9377 0.47861 0.21372 0.0
H1413 H 0.94551 0.39837 0.22561 0.0
H1414 H 0.92211 0.46989 0.15918 0.0
H1415 H 0.88158 0.44498 0.16869 0.0
H1416 H 0.90886 0.48101 0.1834 0.0
H1417 H 0.93576 0.36187 0.19783 0.0
H1418 H 0.89855 0.35143 0.18317 0.0
H1419 H 0.93682 0.37437 0.1699 0.0
H1420 H 0.8274 0.35923 0.13162 0.0
H1421 H 0.92082 0.41886 0.10333 0.0
H1422 H 0.844 0.38798 0.18285 0.0
H1423 H 0.85546 0.35977 0.18693 0.0
H1424 H 0.82049 0.35 0.16968 0.0
H1425 H 0.96354 0.45984 0.14697 0.0
H1426 H 0.9697 0.43917 0.12493 0.0
H1427 H 0.96786 0.42742 0.1532 0.0
loop_
_geom_bond_atom_site_label_1
_geom_bond_atom_site_label_2
_geom_bond_distance
_geom_bond_site_symmetry_2
_ccdc_geom_bond_type
H0 O26 0.856 . S
H1 O29 0.854 . S
H2 C37 0.930 1_455 S
H3 C38 0.930 . S
H4 C40 0.930 . S
H5 C41 0.930 . S
H6 C43 0.931 . S
H7 C44 0.930 . S
H8 C46 0.930 . S
H9 C47 0.929 . S
H10 C49 0.930 . S
H11 C50 0.931 . S
H12 C52 0.930 . S
H13 C53 0.929 . S
H14 C55 0.931 . S
H15 C56 0.930 . S
H16 C58 0.930 . S
H17 C59 0.932 . S
H18 C61 0.930 . S
H19 C62 0.929 . S
H20 C64 0.931 . S
H21 C65 0.930 . S
H22 C67 0.929 . S
H23 C68 0.931 . S
H24 C70 0.930 . S
H25 C71 0.927 1_455 S
O26 H0 0.856 . S
O26 C72 1.300 . S
O27 C72 1.209 . S
O28 C73 1.199 . S
O29 H1 0.854 . S
O29 C73 1.297 . S
C30 C31 1.404 . S
C30 C35 1.397 . S
C30 C36 1.492 . S
C31 C30 1.404 . S
C31 C32 1.396 . S
C31 C42 1.492 . S
C32 C31 1.396 . S
C32 C33 1.397 . S
C32 C48 1.509 . S
C33 C32 1.397 . S
C33 C34 1.412 . S
C33 C54 1.485 . S
C34 C33 1.412 . S
C34 C35 1.388 . S
C34 C60 1.490 . S
C35 C30 1.397 . S
C35 C34 1.388 . S
C35 C66 1.519 1_455 S
C36 C30 1.492 . S
C36 C37 1.363 1_455 S
C36 C41 1.390 1_455 S
C37 H2 0.930 1_655 S
C37 C36 1.363 1_655 S
C37 C38 1.372 . S
C38 H3 0.930 . S
C38 C37 1.372 . S
C38 C39 1.383 . S
C39 C38 1.383 . S
C39 C40 1.395 . S
C40 H4 0.930 . S
C40 C39 1.395 . S
C40 C41 1.362 . S
C41 H5 0.930 . S
C41 C36 1.390 1_655 S
C41 C40 1.362 . S
C42 C31 1.492 . S
C42 C43 1.377 . S
C42 C47 1.397 . S
C43 H6 0.931 . S
C43 C42 1.377 . S
C43 C44 1.376 . S
C44 H7 0.930 . S
C44 C43 1.376 . S
C44 C45 1.376 . S
C45 C44 1.376 . S
C45 C46 1.378 . S
C45 C72 1.486 . S
C46 H8 0.930 . S
C46 C45 1.378 . S
C46 C47 1.376 . S
C47 H9 0.929 . S
C47 C42 1.397 . S
C47 C46 1.376 . S
C48 C32 1.509 . S
C48 C49 1.391 . S
C48 C53 1.386 . S
C49 H10 0.930 . S
C49 C48 1.391 . S
C49 C50 1.375 . S
C50 H11 0.931 . S
C50 C49 1.375 . S
C50 C51 1.375 . S
C51 C50 1.375 . S
C51 C52 1.361 . S
C52 H12 0.930 . S
C52 C51 1.361 . S
C52 C53 1.399 . S
C53 H13 0.929 . S
C53 C48 1.386 . S
C53 C52 1.399 . S
C54 C33 1.485 . S
C54 C55 1.394 . S
C54 C59 1.360 . S
C55 H14 0.931 . S
C55 C54 1.394 . S
C55 C56 1.372 . S
C56 H15 0.930 . S
C56 C55 1.372 . S
C56 C57 1.397 . S
C57 C56 1.397 . S
C57 C58 1.390 . S
C57 C73 1.476 . S
C58 H16 0.930 . S
C58 C57 1.390 . S
C58 C59 1.366 . S
C59 H17 0.932 . S
C59 C54 1.360 . S
C59 C58 1.366 . S
C60 C34 1.490 . S
C60 C61 1.380 . S
C60 C65 1.386 . S
C61 H18 0.930 . S
C61 C60 1.380 . S
C61 C62 1.381 . S
C62 H19 0.929 . S
C62 C61 1.381 . S
C62 C63 1.371 . S
C63 C62 1.371 . S
C63 C64 1.380 . S
C64 H20 0.931 . S
C64 C63 1.380 . S
C64 C65 1.387 . S
C65 H21 0.930 . S
C65 C60 1.386 . S
C65 C64 1.387 . S
C66 C35 1.519 1_655 S
C66 C67 1.377 . S
C66 C71 1.361 . S
C67 H22 0.929 . S
C67 C66 1.377 . S
C67 C68 1.386 . S
C68 H23 0.931 . S
C68 C67 1.386 . S
C68 C69 1.363 . S
C69 C68 1.363 . S
C69 C70 1.385 . S
C70 H24 0.930 . S
C70 C69 1.385 . S
C70 C71 1.396 . S
C71 H25 0.927 1_655 S
C71 C66 1.361 . S
C71 C70 1.396 . S
C72 O26 1.300 . S
C72 O27 1.209 . S
C72 C45 1.486 . S
C73 O28 1.199 . S
C73 O29 1.297 . S
C73 C57 1.476 . S
H74 O100 0.856 . S
H75 O103 0.854 . S
H76 C111 0.930 . S
H77 C112 0.930 . S
H78 C114 0.930 . S
H79 C115 0.930 . S
H80 C117 0.931 . S
H81 C118 0.930 . S
H82 C120 0.930 . S
H83 C121 0.929 . S
H84 C123 0.930 . S
H85 C124 0.931 . S
H86 C126 0.930 . S
H87 C127 0.929 . S
H88 C129 0.931 . S
H89 C130 0.930 . S
H90 C132 0.930 . S
H91 C133 0.932 . S
H92 C135 0.930 . S
H93 C136 0.929 . S
H94 C138 0.931 . S
H95 C139 0.930 . S
H96 C141 0.929 . S
H97 C142 0.931 . S
H98 C144 0.930 . S
H99 C145 0.928 1_545 S
O100 H74 0.856 . S
O100 C146 1.300 . S
O101 C146 1.209 . S
O102 C147 1.199 . S
O103 H75 0.854 . S
O103 C147 1.297 . S
C104 C105 1.404 . S
C104 C109 1.397 . S
C104 C110 1.492 . S
C105 C104 1.404 . S
C105 C106 1.396 . S
C105 C116 1.492 . S
C106 C105 1.396 . S
C106 C107 1.397 . S
C106 C122 1.509 . S
C107 C106 1.397 . S
C107 C108 1.412 . S
C107 C128 1.485 . S
C108 C107 1.412 . S
C108 C109 1.388 . S
C108 C134 1.490 . S
C109 C104 1.397 . S
C109 C108 1.388 . S
C109 C140 1.492 1_545 S
C110 C104 1.492 . S
C110 C111 1.363 . S
C110 C115 1.390 1_545 S
C111 H76 0.930 . S
C111 C110 1.363 . S
C111 C112 1.372 1_545 S
C112 H77 0.930 . S
C112 C111 1.372 1_565 S
C112 C113 1.383 . S
C113 C112 1.383 . S
C113 C114 1.395 . S
C114 H78 0.930 . S
C114 C113 1.395 . S
C114 C115 1.362 . S
C115 H79 0.930 . S
C115 C110 1.390 1_565 S
C115 C114 1.362 . S
C116 C105 1.492 . S
C116 C117 1.377 . S
C116 C121 1.397 . S
C117 H80 0.931 . S
C117 C116 1.377 . S
C117 C118 1.376 . S
C118 H81 0.930 . S
C118 C117 1.376 . S
C118 C119 1.376 . S
C119 C118 1.376 . S
C119 C120 1.378 . S
C119 C146 1.486 . S
C120 H82 0.930 . S
C120 C119 1.378 . S
C120 C121 1.376 . S
C121 H83 0.929 . S
C121 C116 1.397 . S
C121 C120 1.376 . S
C122 C106 1.509 . S
C122 C123 1.391 . S
C122 C127 1.386 . S
C123 H84 0.930 . S
C123 C122 1.391 . S
C123 C124 1.375 . S
C124 H85 0.931 . S
C124 C123 1.375 . S
C124 C125 1.375 . S
C125 C124 1.375 . S
C125 C126 1.361 . S
C126 H86 0.930 . S
C126 C125 1.361 . S
C126 C127 1.399 . S
C127 H87 0.929 . S
C127 C122 1.386 . S
C127 C126 1.399 . S
C128 C107 1.485 . S
C128 C129 1.394 . S
C128 C133 1.360 . S
C129 H88 0.931 . S
C129 C128 1.394 . S
C129 C130 1.372 . S
C130 H89 0.930 . S
C130 C129 1.372 . S
C130 C131 1.397 . S
C131 C130 1.397 . S
C131 C132 1.390 . S
C131 C147 1.476 . S
C132 H90 0.930 . S
C132 C131 1.390 . S
C132 C133 1.366 . S
C133 H91 0.932 . S
C133 C128 1.360 . S
C133 C132 1.366 . S
C134 C108 1.490 . S
C134 C135 1.380 . S
C134 C139 1.386 . S
C135 H92 0.930 . S
C135 C134 1.380 . S
C135 C136 1.381 . S
C136 H93 0.929 . S
C136 C135 1.381 . S
C136 C137 1.371 . S
C137 C136 1.371 . S
C137 C138 1.380 . S
C138 H94 0.931 . S
C138 C137 1.380 . S
C138 C139 1.387 . S
C139 H95 0.930 . S
C139 C134 1.386 . S
C139 C138 1.387 . S
C140 C109 1.492 1_565 S
C140 C141 1.407 . S
C140 C145 1.358 . S
C141 H96 0.929 . S
C141 C140 1.407 . S
C141 C142 1.386 . S
C142 H97 0.931 . S
C142 C141 1.386 . S
C142 C143 1.363 . S
C143 C142 1.363 . S
C143 C144 1.385 . S
C144 H98 0.930 . S
C144 C143 1.385 . S
C144 C145 1.396 . S
C145 H99 0.928 1_565 S
C145 C140 1.358 . S
C145 C144 1.396 . S
C146 O100 1.300 . S
C146 O101 1.209 . S
C146 C119 1.486 . S
C147 O102 1.199 . S
C147 O103 1.297 . S
C147 C131 1.476 . S
H148 O174 0.856 . S
H149 O177 0.854 . S
H150 C185 0.930 . S
H151 C186 0.930 . S
H152 C188 0.930 . S
H153 C189 0.930 . S
H154 C191 0.931 . S
H155 C192 0.930 . S
H156 C194 0.930 . S
H157 C195 0.929 . S
H158 C197 0.930 . S
H159 C198 0.931 . S
H160 C200 0.930 . S
H161 C201 0.929 . S
H162 C203 0.931 . S
H163 C204 0.930 . S
H164 C206 0.930 . S
H165 C207 0.932 . S
H166 C209 0.930 . S
H167 C210 0.929 . S
H168 C212 0.931 . S
H169 C213 0.930 . S
H170 C215 0.929 . S
H171 C216 0.931 . S
H172 C218 0.930 . S
H173 C219 0.929 . S
O174 H148 0.856 . S
O174 C220 1.300 . S
O175 C220 1.209 . S
O176 C221 1.199 . S
O177 H149 0.854 . S
O177 C221 1.297 . S
C178 C179 1.404 . S
C178 C183 1.397 . S
C178 C184 1.492 . S
C179 C178 1.404 . S
C179 C180 1.396 . S
C179 C190 1.492 . S
C180 C179 1.396 . S
C180 C181 1.397 . S
C180 C196 1.509 . S
C181 C180 1.397 . S
C181 C182 1.412 . S
C181 C202 1.485 . S
C182 C181 1.412 . S
C182 C183 1.388 . S
C182 C208 1.490 . S
C183 C178 1.397 . S
C183 C182 1.388 . S
C183 C214 1.519 . S
C184 C178 1.492 . S
C184 C185 1.363 . S
C184 C189 1.390 . S
C185 H150 0.930 . S
C185 C184 1.363 . S
C185 C186 1.372 . S
C186 H151 0.930 . S
C186 C185 1.372 . S
C186 C187 1.383 . S
C187 C186 1.383 . S
C187 C188 1.395 . S
C188 H152 0.930 . S
C188 C187 1.395 . S
C188 C189 1.362 . S
C189 H153 0.930 . S
C189 C184 1.390 . S
C189 C188 1.362 . S
C190 C179 1.492 . S
C190 C191 1.377 . S
C190 C195 1.397 . S
C191 H154 0.931 . S
C191 C190 1.377 . S
C191 C192 1.376 . S
C192 H155 0.930 . S
C192 C191 1.376 . S
C192 C193 1.376 . S
C193 C192 1.376 . S
C193 C194 1.378 . S
C193 C220 1.486 . S
C194 H156 0.930 . S
C194 C193 1.378 . S
C194 C195 1.376 . S
C195 H157 0.929 . S
C195 C190 1.397 . S
C195 C194 1.376 . S
C196 C180 1.509 . S
C196 C197 1.391 . S
C196 C201 1.386 . S
C197 H158 0.930 . S
C197 C196 1.391 . S
C197 C198 1.375 . S
C198 H159 0.931 . S
C198 C197 1.375 . S
C198 C199 1.375 . S
C199 C198 1.375 . S
C199 C200 1.361 . S
C200 H160 0.930 . S
C200 C199 1.361 . S
C200 C201 1.399 . S
C201 H161 0.929 . S
C201 C196 1.386 . S
C201 C200 1.399 . S
C202 C181 1.485 . S
C202 C203 1.394 . S
C202 C207 1.360 . S
C203 H162 0.931 . S
C203 C202 1.394 . S
C203 C204 1.372 . S
C204 H163 0.930 . S
C204 C203 1.372 . S
C204 C205 1.397 . S
C205 C204 1.397 . S
C205 C206 1.390 . S
C205 C221 1.476 . S
C206 H164 0.930 . S
C206 C205 1.390 . S
C206 C207 1.366 . S
C207 H165 0.932 . S
C207 C202 1.360 . S
C207 C206 1.366 . S
C208 C182 1.490 . S
C208 C209 1.380 . S
C208 C213 1.386 . S
C209 H166 0.930 . S
C209 C208 1.380 . S
C209 C210 1.381 . S
C210 H167 0.929 . S
C210 C209 1.381 . S
C210 C211 1.371 . S
C211 C210 1.371 . S
C211 C212 1.380 . S
C212 H168 0.931 . S
C212 C211 1.380 . S
C212 C213 1.387 . S
C213 H169 0.930 . S
C213 C208 1.386 . S
C213 C212 1.387 . S
C214 C183 1.519 . S
C214 C215 1.377 . S
C214 C219 1.361 . S
C215 H170 0.929 . S
C215 C214 1.377 . S
C215 C216 1.386 . S
C216 H171 0.931 . S
C216 C215 1.386 . S
C216 C217 1.363 . S
C217 C216 1.363 . S
C217 C218 1.385 . S
C218 H172 0.930 . S
C218 C217 1.385 . S
C218 C219 1.396 . S
C219 H173 0.929 . S
C219 C214 1.361 . S
C219 C218 1.396 . S
C220 O174 1.300 . S
C220 O175 1.209 . S
C220 C193 1.486 . S
C221 O176 1.199 . S
C221 O177 1.297 . S
C221 C205 1.476 . S
H222 O248 0.856 . S
H223 O251 0.854 . S
H224 C259 0.930 1_455 S
H225 C260 0.930 . S
H226 C262 0.930 . S
H227 C263 0.930 . S
H228 C265 0.931 . S
H229 C266 0.930 . S
H230 C268 0.930 . S
H231 C269 0.929 . S
H232 C271 0.930 . S
H233 C272 0.931 . S
H234 C274 0.930 . S
H235 C275 0.929 . S
H236 C277 0.931 . S
H237 C278 0.930 . S
H238 C280 0.930 . S
H239 C281 0.932 . S
H240 C283 0.930 . S
H241 C284 0.929 . S
H242 C286 0.931 . S
H243 C287 0.930 . S
H244 C289 0.929 . S
H245 C290 0.931 . S
H246 C292 0.930 . S
H247 C293 0.958 . S
O248 H222 0.856 . S
O248 C294 1.300 . S
O249 C294 1.209 . S
O250 C295 1.199 . S
O251 H223 0.854 . S
O251 C295 1.297 . S
C252 C253 1.404 . S
C252 C257 1.397 . S
C252 C258 1.492 . S
C253 C252 1.404 . S
C253 C254 1.396 . S
C253 C264 1.492 . S
C254 C253 1.396 . S
C254 C255 1.397 . S
C254 C270 1.509 . S
C255 C254 1.397 . S
C255 C256 1.412 . S
C255 C276 1.485 . S
C256 C255 1.412 . S
C256 C257 1.388 . S
C256 C282 1.490 . S
C257 C252 1.397 . S
C257 C256 1.388 . S
C257 C288 1.519 1_455 S
C258 C252 1.492 . S
C258 C259 1.363 1_455 S
C258 C263 1.390 1_455 S
C259 H224 0.930 1_655 S
C259 C258 1.363 1_655 S
C259 C260 1.372 . S
C260 H225 0.930 . S
C260 C259 1.372 . S
C260 C261 1.383 . S
C261 C260 1.383 . S
C261 C262 1.395 . S
C262 H226 0.930 . S
C262 C261 1.395 . S
C262 C263 1.362 . S
C263 H227 0.930 . S
C263 C258 1.390 1_655 S
C263 C262 1.362 . S
C264 C253 1.492 . S
C264 C265 1.377 . S
C264 C269 1.397 . S
C265 H228 0.931 . S
C265 C264 1.377 . S
C265 C266 1.376 . S
C266 H229 0.930 . S
C266 C265 1.376 . S
C266 C267 1.376 . S
C267 C266 1.376 . S
C267 C268 1.378 . S
C267 C294 1.486 . S
C268 H230 0.930 . S
C268 C267 1.378 . S
C268 C269 1.376 . S
C269 H231 0.929 . S
C269 C264 1.397 . S
C269 C268 1.376 . S
C270 C254 1.509 . S
C270 C271 1.391 . S
C270 C275 1.386 . S
C271 H232 0.930 . S
C271 C270 1.391 . S
C271 C272 1.375 . S
C272 H233 0.931 . S
C272 C271 1.375 . S
C272 C273 1.375 . S
C273 C272 1.375 . S
C273 C274 1.361 . S
C274 H234 0.930 . S
C274 C273 1.361 . S
C274 C275 1.399 . S
C275 H235 0.929 . S
C275 C270 1.386 . S
C275 C274 1.399 . S
C276 C255 1.485 . S
C276 C277 1.394 . S
C276 C281 1.360 . S
C277 H236 0.931 . S
C277 C276 1.394 . S
C277 C278 1.372 . S
C278 H237 0.930 . S
C278 C277 1.372 . S
C278 C279 1.397 . S
C279 C278 1.397 . S
C279 C280 1.390 . S
C279 C295 1.476 . S
C280 H238 0.930 . S
C280 C279 1.390 . S
C280 C281 1.366 . S
C281 H239 0.932 . S
C281 C276 1.360 . S
C281 C280 1.366 . S
C282 C256 1.490 . S
C282 C283 1.380 . S
C282 C287 1.386 . S
C283 H240 0.930 . S
C283 C282 1.380 . S
C283 C284 1.381 . S
C284 H241 0.929 . S
C284 C283 1.381 . S
C284 C285 1.371 . S
C285 C284 1.371 . S
C285 C286 1.380 . S
C286 H242 0.931 . S
C286 C285 1.380 . S
C286 C287 1.387 . S
C287 H243 0.930 . S
C287 C282 1.386 . S
C287 C286 1.387 . S
C288 C257 1.519 1_655 S
C288 C289 1.377 . S
C288 C293 1.361 . S
C289 H244 0.929 . S
C289 C288 1.377 . S
C289 C290 1.386 . S
C290 H245 0.931 . S
C290 C289 1.386 . S
C290 C291 1.363 . S
C291 C290 1.363 . S
C291 C292 1.385 . S
C292 H246 0.930 . S
C292 C291 1.385 . S
C292 C293 1.396 . S
C293 H247 0.958 . S
C293 C288 1.361 . S
C293 C292 1.396 . S
C294 O248 1.300 . S
C294 O249 1.209 . S
C294 C267 1.486 . S
C295 O250 1.199 . S
C295 O251 1.297 . S
C295 C279 1.476 . S
H296 O322 0.856 . S
H297 O325 0.854 . S
H298 C333 0.930 . S
H299 C334 0.930 . S
H300 C336 0.930 . S
H301 C337 0.930 . S
H302 C339 0.931 . S
H303 C340 0.930 . S
H304 C342 0.930 . S
H305 C343 0.929 . S
H306 C345 0.930 . S
H307 C346 0.931 . S
H308 C348 0.930 . S
H309 C349 0.929 . S
H310 C351 0.931 . S
H311 C352 0.930 . S
H312 C354 0.930 . S
H313 C355 0.932 . S
H314 C357 0.930 . S
H315 C358 0.929 1_545 S
H316 C360 0.931 . S
H317 C361 0.930 . S
H318 C363 0.923 1_556 S
H319 C364 0.931 . S
H320 C366 0.930 . S
H321 C367 0.929 . S
O322 H296 0.856 . S
O322 C368 1.300 . S
O323 C368 1.209 . S
O324 C369 1.199 . S
O325 H297 0.854 . S
O325 C369 1.297 . S
C326 C327 1.404 1_545 S
C326 C331 1.397 . S
C326 C332 1.492 . S
C327 C326 1.404 1_565 S
C327 C328 1.396 . S
C327 C338 1.492 . S
C328 C327 1.396 . S
C328 C329 1.397 . S
C328 C344 1.509 . S
C329 C328 1.397 . S
C329 C330 1.412 1_556 S
C329 C350 1.485 1_556 S
C330 C329 1.412 1_554 S
C330 C331 1.388 1_564 S
C330 C356 1.490 . S
C331 C326 1.397 . S
C331 C330 1.388 1_546 S
C331 C362 1.519 1_556 S
C332 C326 1.492 . S
C332 C333 1.363 . S
C332 C337 1.390 . S
C333 H298 0.930 . S
C333 C332 1.363 . S
C333 C334 1.372 . S
C334 H299 0.930 . S
C334 C333 1.372 . S
C334 C335 1.383 . S
C335 C334 1.383 . S
C335 C336 1.395 . S
C336 H300 0.930 . S
C336 C335 1.395 . S
C336 C337 1.362 . S
C337 H301 0.930 . S
C337 C332 1.390 . S
C337 C336 1.362 . S
C338 C327 1.492 . S
C338 C339 1.377 . S
C338 C343 1.397 . S
C339 H302 0.931 . S
C339 C338 1.377 . S
C339 C340 1.376 . S
C340 H303 0.930 . S
C340 C339 1.376 . S
C340 C341 1.376 . S
C341 C340 1.376 . S
C341 C342 1.378 . S
C341 C368 1.486 . S
C342 H304 0.930 . S
C342 C341 1.378 . S
C342 C343 1.376 . S
C343 H305 0.929 . S
C343 C338 1.397 . S
C343 C342 1.376 . S
C344 C328 1.509 . S
C344 C345 1.391 . S
C344 C349 1.386 . S
C345 H306 0.930 . S
C345 C344 1.391 . S
C345 C346 1.375 . S
C346 H307 0.931 . S
C346 C345 1.375 . S
C346 C347 1.375 . S
C347 C346 1.375 . S
C347 C348 1.361 . S
C348 H308 0.930 . S
C348 C347 1.361 . S
C348 C349 1.399 . S
C349 H309 0.929 . S
C349 C344 1.386 . S
C349 C348 1.399 . S
C350 C329 1.485 1_554 S
C350 C351 1.394 . S
C350 C355 1.360 . S
C351 H310 0.931 . S
C351 C350 1.394 . S
C351 C352 1.372 . S
C352 H311 0.930 . S
C352 C351 1.372 . S
C352 C353 1.397 . S
C353 C352 1.397 . S
C353 C354 1.390 . S
C353 C369 1.476 . S
C354 H312 0.930 . S
C354 C353 1.390 . S
C354 C355 1.366 . S
C355 H313 0.932 . S
C355 C350 1.360 . S
C355 C354 1.366 . S
C356 C330 1.490 . S
C356 C357 1.380 . S
C356 C361 1.386 . S
C357 H314 0.930 . S
C357 C356 1.380 . S
C357 C358 1.381 . S
C358 H315 0.929 1_565 S
C358 C357 1.381 . S
C358 C359 1.371 . S
C359 C358 1.371 . S
C359 C360 1.380 . S
C360 H316 0.931 . S
C360 C359 1.380 . S
C360 C361 1.387 . S
C361 H317 0.930 . S
C361 C356 1.386 . S
C361 C360 1.387 . S
C362 C331 1.519 1_554 S
C362 C363 1.378 . S
C362 C367 1.361 . S
C363 H318 0.923 1_554 S
C363 C362 1.378 . S
C363 C364 1.392 . S
C364 H319 0.931 . S
C364 C363 1.392 . S
C364 C365 1.363 . S
C365 C364 1.363 . S
C365 C366 1.385 . S
C366 H320 0.930 . S
C366 C365 1.385 . S
C366 C367 1.396 . S
C367 H321 0.929 . S
C367 C362 1.361 . S
C367 C366 1.396 . S
C368 O322 1.300 . S
C368 O323 1.209 . S
C368 C341 1.486 . S
C369 O324 1.199 . S
C369 O325 1.297 . S
C369 C353 1.476 . S
H370 O396 0.856 1_556 S
H371 O399 0.854 . S
H372 C407 0.930 . S
H373 C408 0.930 . S
H374 C410 0.930 . S
H375 C411 0.930 . S
H376 C413 0.931 . S
H377 C414 0.930 . S
H378 C416 0.930 . S
H379 C417 0.929 . S
H380 C419 0.930 . S
H381 C420 0.931 . S
H382 C422 0.930 . S
H383 C423 0.929 . S
H384 C425 0.931 . S
H385 C426 0.930 . S
H386 C428 0.930 . S
H387 C429 0.932 . S
H388 C431 0.930 . S
H389 C432 0.929 . S
H390 C434 0.931 . S
H391 C435 0.930 . S
H392 C437 0.929 . S
H393 C438 0.931 . S
H394 C440 0.930 . S
H395 C441 0.929 . S
O396 H370 0.856 1_554 S
O396 C442 1.300 . S
O397 C442 1.209 . S
O398 C443 1.199 . S
O399 H371 0.854 . S
O399 C443 1.297 . S
C400 C401 1.404 . S
C400 C405 1.397 . S
C400 C406 1.492 . S
C401 C400 1.404 . S
C401 C402 1.396 . S
C401 C412 1.492 . S
C402 C401 1.396 . S
C402 C403 1.397 . S
C402 C418 1.509 . S
C403 C402 1.397 . S
C403 C404 1.412 . S
C403 C424 1.485 . S
C404 C403 1.412 . S
C404 C405 1.388 . S
C404 C430 1.490 . S
C405 C400 1.397 . S
C405 C404 1.388 . S
C405 C436 1.519 . S
C406 C400 1.492 . S
C406 C407 1.363 . S
C406 C411 1.390 . S
C407 H372 0.930 . S
C407 C406 1.363 . S
C407 C408 1.372 . S
C408 H373 0.930 . S
C408 C407 1.372 . S
C408 C409 1.383 . S
C409 C408 1.383 . S
C409 C410 1.395 . S
C410 H374 0.930 . S
C410 C409 1.395 . S
C410 C411 1.362 . S
C411 H375 0.930 . S
C411 C406 1.390 . S
C411 C410 1.362 . S
C412 C401 1.492 . S
C412 C413 1.377 . S
C412 C417 1.397 . S
C413 H376 0.931 . S
C413 C412 1.377 . S
C413 C414 1.376 . S
C414 H377 0.930 . S
C414 C413 1.376 . S
C414 C415 1.376 . S
C415 C414 1.376 . S
C415 C416 1.378 . S
C415 C442 1.486 . S
C416 H378 0.930 . S
C416 C415 1.378 . S
C416 C417 1.376 . S
C417 H379 0.929 . S
C417 C412 1.397 . S
C417 C416 1.376 . S
C418 C402 1.509 . S
C418 C419 1.391 . S
C418 C423 1.386 . S
C419 H380 0.930 . S
C419 C418 1.391 . S
C419 C420 1.375 . S
C420 H381 0.931 . S
C420 C419 1.375 . S
C420 C421 1.375 . S
C421 C420 1.375 . S
C421 C422 1.361 . S
C422 H382 0.930 . S
C422 C421 1.361 . S
C422 C423 1.399 . S
C423 H383 0.929 . S
C423 C418 1.386 . S
C423 C422 1.399 . S
C424 C403 1.485 . S
C424 C425 1.394 . S
C424 C429 1.360 . S
C425 H384 0.931 . S
C425 C424 1.394 . S
C425 C426 1.372 . S
C426 H385 0.930 . S
C426 C425 1.372 . S
C426 C427 1.397 . S
C427 C426 1.397 . S
C427 C428 1.390 . S
C427 C443 1.476 . S
C428 H386 0.930 . S
C428 C427 1.390 . S
C428 C429 1.366 . S
C429 H387 0.932 . S
C429 C424 1.360 . S
C429 C428 1.366 . S
C430 C404 1.490 . S
C430 C431 1.380 . S
C430 C435 1.386 . S
C431 H388 0.930 . S
C431 C430 1.380 . S
C431 C432 1.381 . S
C432 H389 0.929 . S
C432 C431 1.381 . S
C432 C433 1.371 . S
C433 C432 1.371 . S
C433 C434 1.380 . S
C434 H390 0.931 . S
C434 C433 1.380 . S
C434 C435 1.387 . S
C435 H391 0.930 . S
C435 C430 1.386 . S
C435 C434 1.387 . S
C436 C405 1.519 . S
C436 C437 1.377 . S
C436 C441 1.361 . S
C437 H392 0.929 . S
C437 C436 1.377 . S
C437 C438 1.386 . S
C438 H393 0.931 . S
C438 C437 1.386 . S
C438 C439 1.363 . S
C439 C438 1.363 . S
C439 C440 1.385 . S
C440 H394 0.930 . S
C440 C439 1.385 . S
C440 C441 1.396 . S
C441 H395 0.929 . S
C441 C436 1.361 . S
C441 C440 1.396 . S
C442 O396 1.300 . S
C442 O397 1.209 . S
C442 C415 1.486 . S
C443 O398 1.199 . S
C443 O399 1.297 . S
C443 C427 1.476 . S
Mn444 O449 2.095 . S
Mn444 O459 2.162 . S
Mn444 O460 2.297 . S
Mn444 O468 2.385 . S
Mn444 O469 2.209 . S
Mn444 O470 2.094 . S
Mn445 O450 2.121 . S
Mn445 N452 2.257 . S
Mn445 N461 2.282 . S
Mn445 O469 2.215 . S
Mn445 O471 2.117 . S
C446 O468 1.234 . S
C446 O469 1.283 . S
C447 O459 1.281 . S
C447 O460 1.236 . S
C448 O470 1.240 . S
C448 O471 1.264 . S
O449 Mn444 2.095 . S
O449 C458 1.250 . S
O450 Mn445 2.121 . S
O450 C458 1.258 . S
C451 N452 1.326 . S
C451 C455 1.460 . S
C451 H457 0.929 . S
N452 Mn445 2.257 . S
N452 C451 1.326 . S
N452 C456 1.362 . S
C453 C454 1.258 . S
C453 C456 1.431 . S
C453 C473 1.449 . S
C454 C453 1.258 . S
C454 C455 1.477 . S
C454 H474 0.931 . S
C455 C451 1.460 . S
C455 C454 1.477 . S
C455 H475 0.930 . S
C456 N452 1.362 . S
C456 C453 1.431 . S
C456 C466 1.476 . S
H457 C451 0.929 . S
C458 O449 1.250 . S
C458 O450 1.258 . S
O459 Mn444 2.162 . S
O459 C447 1.281 . S
O460 Mn444 2.297 . S
O460 C447 1.236 . S
N461 Mn445 2.282 . S
N461 C462 1.328 . S
N461 C466 1.318 . S
C462 N461 1.328 . S
C462 C463 1.457 . S
C462 H467 0.929 . S
C463 C462 1.457 . S
C463 C464 1.291 . S
C463 H476 0.931 . S
C464 C463 1.291 . S
C464 C465 1.373 . S
C464 H477 0.929 . S
C465 C464 1.373 . S
C465 C466 1.396 . S
C465 C472 1.403 . S
C466 C456 1.476 . S
C466 N461 1.318 . S
C466 C465 1.396 . S
H467 C462 0.929 . S
O468 Mn444 2.385 . S
O468 C446 1.234 . S
O469 Mn444 2.209 . S
O469 Mn445 2.215 . S
O469 C446 1.283 . S
O470 Mn444 2.094 . S
O470 C448 1.240 . S
O471 Mn445 2.117 . S
O471 C448 1.264 . S
C472 C465 1.403 . S
C472 C473 1.399 . S
C472 H478 0.929 . S
C473 C453 1.449 . S
C473 C472 1.399 . S
C473 H479 0.930 . S
H474 C454 0.931 . S
H475 C455 0.930 . S
H476 C463 0.931 . S
H477 C464 0.929 . S
H478 C472 0.929 . S
H479 C473 0.930 . S
Mn480 O485 2.095 . S
Mn480 O495 2.162 . S
Mn480 O496 2.297 . S
Mn480 O504 2.385 . S
Mn480 O505 2.209 . S
Mn480 O506 2.094 . S
Mn481 O486 2.121 . S
Mn481 N488 2.257 . S
Mn481 N497 2.282 . S
Mn481 O505 2.215 . S
Mn481 O507 2.117 . S
C482 O504 1.234 . S
C482 O505 1.283 . S
C483 O495 1.281 . S
C483 O496 1.236 . S
C484 O506 1.240 . S
C484 O507 1.264 . S
O485 Mn480 2.095 . S
O485 C494 1.250 . S
O486 Mn481 2.121 . S
O486 C494 1.258 . S
C487 N488 1.326 . S
C487 C491 1.460 . S
C487 H493 0.929 . S
N488 Mn481 2.257 . S
N488 C487 1.326 . S
N488 C492 1.362 . S
C489 C490 1.258 . S
C489 C492 1.431 . S
C489 C509 1.449 . S
C490 C489 1.258 . S
C490 C491 1.477 . S
C490 H510 0.931 . S
C491 C487 1.460 . S
C491 C490 1.477 . S
C491 H511 0.930 . S
C492 N488 1.362 . S
C492 C489 1.431 . S
C492 C502 1.476 . S
H493 C487 0.929 . S
C494 O485 1.250 . S
C494 O486 1.258 . S
O495 Mn480 2.162 . S
O495 C483 1.281 . S
O496 Mn480 2.297 . S
O496 C483 1.236 . S
N497 Mn481 2.282 . S
N497 C498 1.328 . S
N497 C502 1.318 . S
C498 N497 1.328 . S
C498 C499 1.457 . S
C498 H503 0.929 . S
C499 C498 1.457 . S
C499 C500 1.291 . S
C499 H512 0.931 . S
C500 C499 1.291 . S
C500 C501 1.373 . S
C500 H513 0.929 . S
C501 C500 1.373 . S
C501 C502 1.396 . S
C501 C508 1.403 . S
C502 C492 1.476 . S
C502 N497 1.318 . S
C502 C501 1.396 . S
H503 C498 0.929 . S
O504 Mn480 2.385 . S
O504 C482 1.234 . S
O505 Mn480 2.209 . S
O505 Mn481 2.215 . S
O505 C482 1.283 . S
O506 Mn480 2.094 . S
O506 C484 1.240 . S
O507 Mn481 2.117 . S
O507 C484 1.264 . S
C508 C501 1.403 . S
C508 C509 1.399 . S
C508 H514 0.929 . S
C509 C489 1.449 . S
C509 C508 1.399 . S
C509 H515 0.930 . S
H510 C490 0.931 . S
H511 C491 0.930 . S
H512 C499 0.931 . S
H513 C500 0.929 . S
H514 C508 0.929 . S
H515 C509 0.930 . S
Mn516 O521 2.095 . S
Mn516 O531 2.162 . S
Mn516 O532 2.297 . S
Mn516 O540 2.385 . S
Mn516 O541 2.209 . S
Mn516 O542 2.094 . S
Mn517 O522 2.121 . S
Mn517 N524 2.257 . S
Mn517 N533 2.282 . S
Mn517 O541 2.215 . S
Mn517 O543 2.117 . S
C518 O540 1.234 . S
C518 O541 1.283 . S
C519 O531 1.281 . S
C519 O532 1.236 . S
C520 O542 1.240 . S
C520 O543 1.264 . S
O521 Mn516 2.095 . S
O521 C530 1.250 . S
O522 Mn517 2.121 . S
O522 C530 1.258 . S
C523 N524 1.326 . S
C523 C527 1.460 . S
C523 H529 0.929 . S
N524 Mn517 2.257 . S
N524 C523 1.326 . S
N524 C528 1.362 . S
C525 C526 1.258 . S
C525 C528 1.431 . S
C525 C545 1.449 . S
C526 C525 1.258 . S
C526 C527 1.477 . S
C526 H546 0.931 . S
C527 C523 1.460 . S
C527 C526 1.477 . S
C527 H547 0.930 . S
C528 N524 1.362 . S
C528 C525 1.431 . S
C528 C538 1.476 . S
H529 C523 0.929 . S
C530 O521 1.250 . S
C530 O522 1.258 . S
O531 Mn516 2.162 . S
O531 C519 1.281 . S
O532 Mn516 2.297 . S
O532 C519 1.236 . S
N533 Mn517 2.282 . S
N533 C534 1.328 . S
N533 C538 1.318 . S
C534 N533 1.328 . S
C534 C535 1.457 . S
C534 H539 0.929 . S
C535 C534 1.457 . S
C535 C536 1.291 . S
C535 H548 0.931 . S
C536 C535 1.291 . S
C536 C537 1.373 . S
C536 H549 0.929 . S
C537 C536 1.373 . S
C537 C538 1.396 . S
C537 C544 1.403 . S
C538 C528 1.476 . S
C538 N533 1.318 . S
C538 C537 1.396 . S
H539 C534 0.929 . S
O540 Mn516 2.385 . S
O540 C518 1.234 . S
O541 Mn516 2.209 . S
O541 Mn517 2.215 . S
O541 C518 1.283 . S
O542 Mn516 2.094 . S
O542 C520 1.240 . S
O543 Mn517 2.117 . S
O543 C520 1.264 . S
C544 C537 1.403 . S
C544 C545 1.399 . S
C544 H550 0.929 . S
C545 C525 1.449 . S
C545 C544 1.399 . S
C545 H551 0.930 . S
H546 C526 0.931 . S
H547 C527 0.930 . S
H548 C535 0.931 . S
H549 C536 0.929 . S
H550 C544 0.929 . S
H551 C545 0.930 . S
Mn552 O557 2.095 . S
Mn552 O567 2.162 . S
Mn552 O568 2.297 . S
Mn552 O576 2.385 . S
Mn552 O577 2.209 . S
Mn552 O578 2.094 . S
Mn553 O558 2.121 . S
Mn553 N560 2.257 . S
Mn553 N569 2.282 . S
Mn553 O577 2.215 . S
Mn553 O579 2.117 . S
C554 O576 1.234 . S
C554 O577 1.283 . S
C555 O567 1.281 . S
C555 O568 1.236 . S
C556 O578 1.240 . S
C556 O579 1.264 . S
O557 Mn552 2.095 . S
O557 C566 1.250 . S
O558 Mn553 2.121 . S
O558 C566 1.258 . S
C559 N560 1.326 . S
C559 C563 1.460 . S
C559 H565 0.929 . S
N560 Mn553 2.257 . S
N560 C559 1.326 . S
N560 C564 1.362 . S
C561 C562 1.258 . S
C561 C564 1.431 . S
C561 C581 1.449 . S
C562 C561 1.258 . S
C562 C563 1.477 . S
C562 H582 0.931 . S
C563 C559 1.460 . S
C563 C562 1.477 . S
C563 H583 0.930 . S
C564 N560 1.362 . S
C564 C561 1.431 . S
C564 C574 1.476 . S
H565 C559 0.929 . S
C566 O557 1.250 . S
C566 O558 1.258 . S
O567 Mn552 2.162 . S
O567 C555 1.281 . S
O568 Mn552 2.297 . S
O568 C555 1.236 . S
N569 Mn553 2.282 . S
N569 C570 1.328 . S
N569 C574 1.318 . S
C570 N569 1.328 . S
C570 C571 1.457 . S
C570 H575 0.929 . S
C571 C570 1.457 . S
C571 C572 1.291 . S
C571 H584 0.931 . S
C572 C571 1.291 . S
C572 C573 1.373 . S
C572 H585 0.929 . S
C573 C572 1.373 . S
C573 C574 1.396 . S
C573 C580 1.403 . S
C574 C564 1.476 . S
C574 N569 1.318 . S
C574 C573 1.396 . S
H575 C570 0.929 . S
O576 Mn552 2.385 . S
O576 C554 1.234 . S
O577 Mn552 2.209 . S
O577 Mn553 2.215 . S
O577 C554 1.283 . S
O578 Mn552 2.094 . S
O578 C556 1.240 . S
O579 Mn553 2.117 . S
O579 C556 1.264 . S
C580 C573 1.403 . S
C580 C581 1.399 . S
C580 H586 0.929 . S
C581 C561 1.449 . S
C581 C580 1.399 . S
C581 H587 0.930 . S
H582 C562 0.931 . S
H583 C563 0.930 . S
H584 C571 0.931 . S
H585 C572 0.929 . S
H586 C580 0.929 . S
H587 C581 0.930 . S
Mn588 O593 2.095 . S
Mn588 O603 2.162 . S
Mn588 O604 2.297 . S
Mn588 O612 2.385 . S
Mn588 O613 2.209 . S
Mn588 O614 2.094 . S
Mn589 O594 2.121 . S
Mn589 N596 2.257 . S
Mn589 N605 2.282 . S
Mn589 O613 2.215 . S
Mn589 O615 2.117 . S
C590 O612 1.234 . S
C590 O613 1.283 . S
C591 O603 1.281 . S
C591 O604 1.236 . S
C592 O614 1.240 . S
C592 O615 1.264 . S
O593 Mn588 2.095 . S
O593 C602 1.250 . S
O594 Mn589 2.121 . S
O594 C602 1.258 . S
C595 N596 1.326 . S
C595 C599 1.460 . S
C595 H601 0.929 . S
N596 Mn589 2.257 . S
N596 C595 1.326 . S
N596 C600 1.362 . S
C597 C598 1.258 . S
C597 C600 1.431 . S
C597 C617 1.449 . S
C598 C597 1.258 . S
C598 C599 1.477 . S
C598 H618 0.931 . S
C599 C595 1.460 . S
C599 C598 1.477 . S
C599 H619 0.930 . S
C600 N596 1.362 . S
C600 C597 1.431 . S
C600 C610 1.476 . S
H601 C595 0.929 . S
C602 O593 1.250 . S
C602 O594 1.258 . S
O603 Mn588 2.162 . S
O603 C591 1.281 . S
O604 Mn588 2.297 . S
O604 C591 1.236 . S
N605 Mn589 2.282 . S
N605 C606 1.328 . S
N605 C610 1.318 . S
C606 N605 1.328 . S
C606 C607 1.457 . S
C606 H611 0.929 . S
C607 C606 1.457 . S
C607 C608 1.291 . S
C607 H620 0.931 . S
C608 C607 1.291 . S
C608 C609 1.373 . S
C608 H621 0.929 . S
C609 C608 1.373 . S
C609 C610 1.396 . S
C609 C616 1.403 . S
C610 C600 1.476 . S
C610 N605 1.318 . S
C610 C609 1.396 . S
H611 C606 0.929 . S
O612 Mn588 2.385 . S
O612 C590 1.234 . S
O613 Mn588 2.209 . S
O613 Mn589 2.215 . S
O613 C590 1.283 . S
O614 Mn588 2.094 . S
O614 C592 1.240 . S
O615 Mn589 2.117 . S
O615 C592 1.264 . S
C616 C609 1.403 . S
C616 C617 1.399 . S
C616 H622 0.929 . S
C617 C597 1.449 . S
C617 C616 1.399 . S
C617 H623 0.930 . S
H618 C598 0.931 . S
H619 C599 0.930 . S
H620 C607 0.931 . S
H621 C608 0.929 . S
H622 C616 0.929 . S
H623 C617 0.930 . S
Mn624 O629 2.095 . S
Mn624 O639 2.162 . S
Mn624 O640 2.297 . S
Mn624 O648 2.385 . S
Mn624 O649 2.209 . S
Mn624 O650 2.094 . S
Mn625 O630 2.121 . S
Mn625 N632 2.257 . S
Mn625 N641 2.282 . S
Mn625 O649 2.215 . S
Mn625 O651 2.117 . S
C626 O648 1.234 . S
C626 O649 1.283 . S
C627 O639 1.281 . S
C627 O640 1.236 . S
C628 O650 1.240 . S
C628 O651 1.264 . S
O629 Mn624 2.095 . S
O629 C638 1.250 . S
O630 Mn625 2.121 . S
O630 C638 1.258 . S
C631 N632 1.326 . S
C631 C635 1.460 . S
C631 H637 0.929 . S
N632 Mn625 2.257 . S
N632 C631 1.326 . S
N632 C636 1.362 . S
C633 C634 1.258 . S
C633 C636 1.431 . S
C633 C653 1.449 . S
C634 C633 1.258 . S
C634 C635 1.477 . S
C634 H654 0.931 . S
C635 C631 1.460 . S
C635 C634 1.477 . S
C635 H655 0.930 . S
C636 N632 1.362 . S
C636 C633 1.431 . S
C636 C646 1.476 . S
H637 C631 0.929 . S
C638 O629 1.250 . S
C638 O630 1.258 . S
O639 Mn624 2.162 . S
O639 C627 1.281 . S
O640 Mn624 2.297 . S
O640 C627 1.236 . S
N641 Mn625 2.282 . S
N641 C642 1.328 . S
N641 C646 1.318 . S
C642 N641 1.328 . S
C642 C643 1.457 . S
C642 H647 0.929 . S
C643 C642 1.457 . S
C643 C644 1.291 . S
C643 H656 0.931 . S
C644 C643 1.291 . S
C644 C645 1.373 . S
C644 H657 0.921 1_565 S
C645 C644 1.373 . S
C645 C646 1.396 . S
C645 C652 1.403 . S
C646 C636 1.476 . S
C646 N641 1.318 . S
C646 C645 1.396 . S
H647 C642 0.929 . S
O648 Mn624 2.385 . S
O648 C626 1.234 . S
O649 Mn624 2.209 . S
O649 Mn625 2.215 . S
O649 C626 1.283 . S
O650 Mn624 2.094 . S
O650 C628 1.240 . S
O651 Mn625 2.117 . S
O651 C628 1.264 . S
C652 C645 1.403 . S
C652 C653 1.399 . S
C652 H658 0.929 . S
C653 C633 1.449 . S
C653 C652 1.399 . S
C653 H659 0.930 . S
H654 C634 0.931 . S
H655 C635 0.930 . S
H656 C643 0.931 . S
H657 C644 0.921 1_545 S
H658 C652 0.929 . S
H659 C653 0.930 . S
C660 C661 1.391 . S
C660 C662 1.394 . S
C660 H676 0.931 . S
C661 C660 1.391 . S
C661 C665 1.376 . S
C662 C660 1.394 . S
C662 C663 1.369 . S
C662 C666 1.531 . S
C663 C662 1.369 . S
C663 C664 1.410 . S
C663 C671 1.503 . S
C664 C663 1.410 . S
C664 C665 1.392 . S
C664 C667 1.511 . S
C665 C661 1.376 . S
C665 C664 1.392 . S
C665 H677 0.929 . S
C666 C662 1.531 . S
C666 H678 0.960 . S
C666 H679 0.962 . S
C666 H680 0.960 . S
C667 C664 1.511 . S
C667 H681 0.961 . S
C667 H682 0.961 . S
C667 H683 0.961 . S
C668 C669 1.370 . S
C668 C670 1.363 . S
C668 H684 0.931 . S
C669 C668 1.370 . S
C669 C673 1.408 . S
C670 C668 1.363 . S
C670 C671 1.370 . S
C670 C674 1.524 . S
C671 C663 1.503 . S
C671 C670 1.370 . S
C671 C672 1.403 . S
C672 C671 1.403 . S
C672 C673 1.404 . S
C672 C675 1.539 . S
C673 C669 1.408 . S
C673 C672 1.404 . S
C673 H685 0.930 . S
C674 C670 1.524 . S
C674 H686 0.956 . S
C674 H687 0.961 . S
C674 H688 0.961 . S
C675 C672 1.539 . S
C675 H689 0.958 . S
C675 H690 0.961 . S
C675 H691 0.960 . S
H676 C660 0.931 . S
H677 C665 0.929 . S
H678 C666 0.960 . S
H679 C666 0.962 . S
H680 C666 0.960 . S
H681 C667 0.961 . S
H682 C667 0.961 . S
H683 C667 0.961 . S
H684 C668 0.931 . S
H685 C673 0.930 . S
H686 C674 0.956 . S
H687 C674 0.961 . S
H688 C674 0.961 . S
H689 C675 0.958 . S
H690 C675 0.961 . S
H691 C675 0.960 . S
C692 C693 1.391 . S
C692 C694 1.394 . S
C692 H708 0.931 . S
C693 C692 1.391 . S
C693 C697 1.376 . S
C694 C692 1.394 . S
C694 C695 1.369 . S
C694 C698 1.531 . S
C695 C694 1.369 . S
C695 C696 1.410 . S
C695 C703 1.503 . S
C696 C695 1.410 . S
C696 C697 1.392 . S
C696 C699 1.511 . S
C697 C693 1.376 . S
C697 C696 1.392 . S
C697 H709 0.929 . S
C698 C694 1.531 . S
C698 H710 0.960 . S
C698 H711 0.962 . S
C698 H712 0.960 . S
C699 C696 1.511 . S
C699 H713 0.961 . S
C699 H714 0.961 . S
C699 H715 0.961 . S
C700 C701 1.370 . S
C700 C702 1.363 . S
C700 H716 0.931 . S
C701 C700 1.370 . S
C701 C705 1.408 . S
C702 C700 1.363 . S
C702 C703 1.370 . S
C702 C706 1.524 . S
C703 C695 1.503 . S
C703 C702 1.370 . S
C703 C704 1.403 . S
C704 C703 1.403 . S
C704 C705 1.404 . S
C704 C707 1.539 . S
C705 C701 1.408 . S
C705 C704 1.404 . S
C705 H717 0.930 . S
C706 C702 1.524 . S
C706 H718 0.956 . S
C706 H719 0.961 . S
C706 H720 0.961 . S
C707 C704 1.539 . S
C707 H721 0.958 . S
C707 H722 0.961 . S
C707 H723 0.960 . S
H708 C692 0.931 . S
H709 C697 0.929 . S
H710 C698 0.960 . S
H711 C698 0.962 . S
H712 C698 0.960 . S
H713 C699 0.961 . S
H714 C699 0.961 . S
H715 C699 0.961 . S
H716 C700 0.931 . S
H717 C705 0.930 . S
H718 C706 0.956 . S
H719 C706 0.961 . S
H720 C706 0.961 . S
H721 C707 0.958 . S
H722 C707 0.961 . S
H723 C707 0.960 . S
C724 C725 1.391 . S
C724 C726 1.394 . S
C724 H740 0.931 . S
C725 C724 1.391 . S
C725 C729 1.376 . S
C726 C724 1.394 . S
C726 C727 1.369 . S
C726 C730 1.531 . S
C727 C726 1.369 . S
C727 C728 1.410 . S
C727 C735 1.503 . S
C728 C727 1.410 . S
C728 C729 1.392 . S
C728 C731 1.511 . S
C729 C725 1.376 . S
C729 C728 1.392 . S
C729 H741 0.929 . S
C730 C726 1.531 . S
C730 H742 0.960 . S
C730 H743 0.962 . S
C730 H744 0.960 . S
C731 C728 1.511 . S
C731 H745 0.961 . S
C731 H746 0.961 . S
C731 H747 0.961 . S
C732 C733 1.370 . S
C732 C734 1.363 . S
C732 H748 0.931 . S
C733 C732 1.370 . S
C733 C737 1.408 . S
C734 C732 1.363 . S
C734 C735 1.370 . S
C734 C738 1.524 . S
C735 C727 1.503 . S
C735 C734 1.370 . S
C735 C736 1.403 . S
C736 C735 1.403 . S
C736 C737 1.404 . S
C736 C739 1.539 . S
C737 C733 1.408 . S
C737 C736 1.404 . S
C737 H749 0.930 . S
C738 C734 1.524 . S
C738 H750 0.956 . S
C738 H751 0.961 . S
C738 H752 0.961 . S
C739 C736 1.539 . S
C739 H753 0.958 . S
C739 H754 0.961 . S
C739 H755 0.960 . S
H740 C724 0.931 . S
H741 C729 0.929 . S
H742 C730 0.960 . S
H743 C730 0.962 . S
H744 C730 0.960 . S
H745 C731 0.961 . S
H746 C731 0.961 . S
H747 C731 0.961 . S
H748 C732 0.931 . S
H749 C737 0.930 . S
H750 C738 0.956 . S
H751 C738 0.961 . S
H752 C738 0.961 . S
H753 C739 0.958 . S
H754 C739 0.961 . S
H755 C739 0.960 . S
C756 C757 1.391 . S
C756 C758 1.394 . S
C756 H772 0.931 . S
C757 C756 1.391 . S
C757 C761 1.376 . S
C758 C756 1.394 . S
C758 C759 1.369 . S
C758 C762 1.531 . S
C759 C758 1.369 . S
C759 C760 1.410 . S
C759 C767 1.503 . S
C760 C759 1.410 . S
C760 C761 1.392 . S
C760 C763 1.511 . S
C761 C757 1.376 . S
C761 C760 1.392 . S
C761 H773 0.929 . S
C762 C758 1.531 . S
C762 H774 0.960 . S
C762 H775 0.962 . S
C762 H776 0.960 . S
C763 C760 1.511 . S
C763 H777 0.961 . S
C763 H778 0.961 . S
C763 H779 0.961 . S
C764 C765 1.370 . S
C764 C766 1.363 . S
C764 H780 0.931 . S
C765 C764 1.370 . S
C765 C769 1.408 . S
C766 C764 1.363 . S
C766 C767 1.370 . S
C766 C770 1.524 . S
C767 C759 1.503 . S
C767 C766 1.370 . S
C767 C768 1.403 . S
C768 C767 1.403 . S
C768 C769 1.404 . S
C768 C771 1.539 . S
C769 C765 1.408 . S
C769 C768 1.404 . S
C769 H781 0.930 . S
C770 C766 1.524 . S
C770 H782 0.956 . S
C770 H783 0.961 . S
C770 H784 0.961 . S
C771 C768 1.539 . S
C771 H785 0.958 . S
C771 H786 0.961 . S
C771 H787 0.960 . S
H772 C756 0.931 . S
H773 C761 0.929 . S
H774 C762 0.960 . S
H775 C762 0.962 . S
H776 C762 0.960 . S
H777 C763 0.961 . S
H778 C763 0.961 . S
H779 C763 0.961 . S
H780 C764 0.931 . S
H781 C769 0.930 . S
H782 C770 0.956 . S
H783 C770 0.961 . S
H784 C770 0.961 . S
H785 C771 0.958 . S
H786 C771 0.961 . S
H787 C771 0.960 . S
C788 C789 1.391 . S
C788 C790 1.394 . S
C788 H804 0.931 . S
C789 C788 1.391 . S
C789 C793 1.376 . S
C790 C788 1.394 . S
C790 C791 1.369 . S
C790 C794 1.531 . S
C791 C790 1.369 . S
C791 C792 1.410 . S
C791 C799 1.503 . S
C792 C791 1.410 . S
C792 C793 1.392 . S
C792 C795 1.511 . S
C793 C789 1.376 . S
C793 C792 1.392 . S
C793 H805 0.929 . S
C794 C790 1.531 . S
C794 H806 0.960 . S
C794 H807 0.962 . S
C794 H808 0.960 . S
C795 C792 1.511 . S
C795 H809 0.961 . S
C795 H810 0.961 . S
C795 H811 0.961 . S
C796 C797 1.370 . S
C796 C798 1.363 . S
C796 H812 0.931 . S
C797 C796 1.370 . S
C797 C801 1.408 . S
C798 C796 1.363 . S
C798 C799 1.370 . S
C798 C802 1.524 . S
C799 C791 1.503 . S
C799 C798 1.370 . S
C799 C800 1.403 . S
C800 C799 1.403 . S
C800 C801 1.404 . S
C800 C803 1.539 . S
C801 C797 1.408 . S
C801 C800 1.404 . S
C801 H813 0.930 . S
C802 C798 1.524 . S
C802 H814 0.956 . S
C802 H815 0.961 . S
C802 H816 0.961 . S
C803 C800 1.539 . S
C803 H817 0.958 . S
C803 H818 0.961 . S
C803 H819 0.960 . S
H804 C788 0.931 . S
H805 C793 0.929 . S
H806 C794 0.960 . S
H807 C794 0.962 . S
H808 C794 0.960 . S
H809 C795 0.961 . S
H810 C795 0.961 . S
H811 C795 0.961 . S
H812 C796 0.931 . S
H813 C801 0.930 . S
H814 C802 0.956 . S
H815 C802 0.961 . S
H816 C802 0.961 . S
H817 C803 0.958 . S
H818 C803 0.961 . S
H819 C803 0.960 . S
C820 C821 1.391 . S
C820 C822 1.394 . S
C820 H836 0.931 . S
C821 C820 1.391 . S
C821 C825 1.376 . S
C822 C820 1.394 . S
C822 C823 1.369 . S
C822 C826 1.531 . S
C823 C822 1.369 . S
C823 C824 1.410 . S
C823 C831 1.503 . S
C824 C823 1.410 . S
C824 C825 1.392 . S
C824 C827 1.511 . S
C825 C821 1.376 . S
C825 C824 1.392 . S
C825 H837 0.929 . S
C826 C822 1.531 . S
C826 H838 0.960 . S
C826 H839 0.962 . S
C826 H840 0.960 . S
C827 C824 1.511 . S
C827 H841 0.961 . S
C827 H842 0.961 . S
C827 H843 0.961 . S
C828 C829 1.370 . S
C828 C830 1.363 . S
C828 H844 0.931 . S
C829 C828 1.370 . S
C829 C833 1.408 . S
C830 C828 1.363 . S
C830 C831 1.370 . S
C830 C834 1.524 . S
C831 C823 1.503 . S
C831 C830 1.370 . S
C831 C832 1.403 . S
C832 C831 1.403 . S
C832 C833 1.404 . S
C832 C835 1.539 . S
C833 C829 1.408 . S
C833 C832 1.404 . S
C833 H845 0.930 . S
C834 C830 1.524 . S
C834 H846 0.956 . S
C834 H847 0.961 . S
C834 H848 0.961 . S
C835 C832 1.539 . S
C835 H849 0.958 . S
C835 H850 0.961 . S
C835 H851 0.960 . S
H836 C820 0.931 . S
H837 C825 0.929 . S
H838 C826 0.960 . S
H839 C826 0.962 . S
H840 C826 0.960 . S
H841 C827 0.961 . S
H842 C827 0.961 . S
H843 C827 0.961 . S
H844 C828 0.931 . S
H845 C833 0.930 . S
H846 C834 0.956 . S
H847 C834 0.961 . S
H848 C834 0.961 . S
H849 C835 0.958 . S
H850 C835 0.961 . S
H851 C835 0.960 . S
C852 C853 1.391 . S
C852 C854 1.394 . S
C852 H868 0.931 . S
C853 C852 1.391 . S
C853 C857 1.376 . S
C854 C852 1.394 . S
C854 C855 1.369 . S
C854 C858 1.531 . S
C855 C854 1.369 . S
C855 C856 1.410 . S
C855 C863 1.503 . S
C856 C855 1.410 . S
C856 C857 1.392 . S
C856 C859 1.511 . S
C857 C853 1.376 . S
C857 C856 1.392 . S
C857 H869 0.929 . S
C858 C854 1.531 . S
C858 H870 0.960 . S
C858 H871 0.962 . S
C858 H872 0.960 . S
C859 C856 1.511 . S
C859 H873 0.961 . S
C859 H874 0.961 . S
C859 H875 0.961 . S
C860 C861 1.370 . S
C860 C862 1.363 . S
C860 H876 0.931 . S
C861 C860 1.370 . S
C861 C865 1.408 . S
C862 C860 1.363 . S
C862 C863 1.370 . S
C862 C866 1.524 . S
C863 C855 1.503 . S
C863 C862 1.370 . S
C863 C864 1.403 . S
C864 C863 1.403 . S
C864 C865 1.404 . S
C864 C867 1.539 . S
C865 C861 1.408 . S
C865 C864 1.404 . S
C865 H877 0.930 . S
C866 C862 1.524 . S
C866 H878 0.956 . S
C866 H879 0.961 . S
C866 H880 0.961 . S
C867 C864 1.539 . S
C867 H881 0.958 . S
C867 H882 0.961 . S
C867 H883 0.960 . S
H868 C852 0.931 . S
H869 C857 0.929 . S
H870 C858 0.960 . S
H871 C858 0.962 . S
H872 C858 0.960 . S
H873 C859 0.961 . S
H874 C859 0.961 . S
H875 C859 0.961 . S
H876 C860 0.931 . S
H877 C865 0.930 . S
H878 C866 0.956 . S
H879 C866 0.961 . S
H880 C866 0.961 . S
H881 C867 0.958 . S
H882 C867 0.961 . S
H883 C867 0.960 . S
C884 C885 1.391 . S
C884 C886 1.394 . S
C884 H900 0.931 . S
C885 C884 1.391 . S
C885 C889 1.376 . S
C886 C884 1.394 . S
C886 C887 1.369 . S
C886 C890 1.531 . S
C887 C886 1.369 . S
C887 C888 1.410 . S
C887 C895 1.503 . S
C888 C887 1.410 . S
C888 C889 1.392 . S
C888 C891 1.511 . S
C889 C885 1.376 . S
C889 C888 1.392 . S
C889 H901 0.929 . S
C890 C886 1.531 . S
C890 H902 0.960 . S
C890 H903 0.962 . S
C890 H904 0.960 . S
C891 C888 1.511 . S
C891 H905 0.961 . S
C891 H906 0.961 . S
C891 H907 0.961 . S
C892 C893 1.370 . S
C892 C894 1.363 . S
C892 H908 0.931 . S
C893 C892 1.370 . S
C893 C897 1.408 . S
C894 C892 1.363 . S
C894 C895 1.370 . S
C894 C898 1.524 . S
C895 C887 1.503 . S
C895 C894 1.370 . S
C895 C896 1.403 . S
C896 C895 1.403 . S
C896 C897 1.404 . S
C896 C899 1.539 . S
C897 C893 1.408 . S
C897 C896 1.404 . S
C897 H909 0.930 . S
C898 C894 1.524 . S
C898 H910 0.956 . S
C898 H911 0.961 . S
C898 H912 0.961 . S
C899 C896 1.539 . S
C899 H913 0.958 . S
C899 H914 0.961 . S
C899 H915 0.960 . S
H900 C884 0.931 . S
H901 C889 0.929 . S
H902 C890 0.960 . S
H903 C890 0.962 . S
H904 C890 0.960 . S
H905 C891 0.961 . S
H906 C891 0.961 . S
H907 C891 0.961 . S
H908 C892 0.931 . S
H909 C897 0.930 . S
H910 C898 0.956 . S
H911 C898 0.961 . S
H912 C898 0.961 . S
H913 C899 0.958 . S
H914 C899 0.961 . S
H915 C899 0.960 . S
C916 C917 1.391 . S
C916 C918 1.394 . S
C916 H932 0.931 . S
C917 C916 1.391 . S
C917 C921 1.376 . S
C918 C916 1.394 . S
C918 C919 1.369 . S
C918 C922 1.531 . S
C919 C918 1.369 . S
C919 C920 1.410 . S
C919 C927 1.503 . S
C920 C919 1.410 . S
C920 C921 1.392 . S
C920 C923 1.511 . S
C921 C917 1.376 . S
C921 C920 1.392 . S
C921 H933 0.929 . S
C922 C918 1.531 . S
C922 H934 0.960 . S
C922 H935 0.962 . S
C922 H936 0.960 . S
C923 C920 1.511 . S
C923 H937 0.961 . S
C923 H938 0.961 . S
C923 H939 0.961 . S
C924 C925 1.370 . S
C924 C926 1.363 . S
C924 H940 0.931 . S
C925 C924 1.370 . S
C925 C929 1.408 . S
C926 C924 1.363 . S
C926 C927 1.370 . S
C926 C930 1.524 . S
C927 C919 1.503 . S
C927 C926 1.370 . S
C927 C928 1.403 . S
C928 C927 1.403 . S
C928 C929 1.404 . S
C928 C931 1.539 . S
C929 C925 1.408 . S
C929 C928 1.404 . S
C929 H941 0.930 . S
C930 C926 1.524 . S
C930 H942 0.956 . S
C930 H943 0.961 . S
C930 H944 0.961 . S
C931 C928 1.539 . S
C931 H945 0.958 . S
C931 H946 0.961 . S
C931 H947 0.960 . S
H932 C916 0.931 . S
H933 C921 0.929 . S
H934 C922 0.960 . S
H935 C922 0.962 . S
H936 C922 0.960 . S
H937 C923 0.961 . S
H938 C923 0.961 . S
H939 C923 0.961 . S
H940 C924 0.931 . S
H941 C929 0.930 . S
H942 C930 0.956 . S
H943 C930 0.961 . S
H944 C930 0.961 . S
H945 C931 0.958 . S
H946 C931 0.961 . S
H947 C931 0.960 . S
C948 C949 1.391 . S
C948 C950 1.394 . S
C948 H964 0.931 . S
C949 C948 1.391 . S
C949 C953 1.376 . S
C950 C948 1.394 . S
C950 C951 1.369 . S
C950 C954 1.531 . S
C951 C950 1.369 . S
C951 C952 1.410 . S
C951 C959 1.503 . S
C952 C951 1.410 . S
C952 C953 1.392 . S
C952 C955 1.511 1_554 S
C953 C949 1.376 . S
C953 C952 1.392 . S
C953 H965 0.929 1_554 S
C954 C950 1.531 . S
C954 H966 0.960 . S
C954 H967 0.962 . S
C954 H968 0.960 . S
C955 C952 1.511 1_556 S
C955 H969 0.961 . S
C955 H970 0.961 1_556 S
C955 H971 0.961 . S
C956 C957 1.370 . S
C956 C958 1.363 . S
C956 H972 0.931 . S
C957 C956 1.370 . S
C957 C961 1.408 . S
C958 C956 1.363 . S
C958 C959 1.370 . S
C958 C962 1.524 . S
C959 C951 1.503 . S
C959 C958 1.370 . S
C959 C960 1.403 . S
C960 C959 1.403 . S
C960 C961 1.404 . S
C960 C963 1.539 . S
C961 C957 1.408 . S
C961 C960 1.404 . S
C961 H973 0.930 . S
C962 C958 1.524 . S
C962 H974 0.956 . S
C962 H975 0.961 . S
C962 H976 0.961 . S
C963 C960 1.539 . S
C963 H977 0.958 . S
C963 H978 0.961 . S
C963 H979 0.960 . S
H964 C948 0.931 . S
H965 C953 0.929 1_556 S
H966 C954 0.960 . S
H967 C954 0.962 . S
H968 C954 0.960 . S
H969 C955 0.961 . S
H970 C955 0.961 1_554 S
H971 C955 0.961 . S
H972 C956 0.931 . S
H973 C961 0.930 . S
H974 C962 0.956 . S
H975 C962 0.961 . S
H976 C962 0.961 . S
H977 C963 0.958 . S
H978 C963 0.961 . S
H979 C963 0.960 . S
C980 C981 1.391 . S
C980 C982 1.394 . S
C980 H996 0.931 . S
C981 C980 1.391 . S
C981 C985 1.376 . S
C982 C980 1.394 . S
C982 C983 1.369 . S
C982 C986 1.531 . S
C983 C982 1.369 . S
C983 C984 1.410 . S
C983 C991 1.503 . S
C984 C983 1.410 . S
C984 C985 1.392 . S
C984 C987 1.511 . S
C985 C981 1.376 . S
C985 C984 1.392 . S
C985 H997 0.929 . S
C986 C982 1.531 . S
C986 H998 0.960 . S
C986 H999 0.962 . S
C986 H1000 0.960 . S
C987 C984 1.511 . S
C987 H1001 0.961 . S
C987 H1002 0.961 . S
C987 H1003 0.961 . S
C988 C989 1.370 . S
C988 C990 1.363 . S
C988 H1004 0.931 . S
C989 C988 1.370 . S
C989 C993 1.408 . S
C990 C988 1.363 . S
C990 C991 1.370 . S
C990 C994 1.524 . S
C991 C983 1.503 . S
C991 C990 1.370 . S
C991 C992 1.403 . S
C992 C991 1.403 . S
C992 C993 1.404 . S
C992 C995 1.539 . S
C993 C989 1.408 . S
C993 C992 1.404 . S
C993 H1005 0.930 . S
C994 C990 1.524 . S
C994 H1006 0.956 . S
C994 H1007 0.961 . S
C994 H1008 0.961 . S
C995 C992 1.539 . S
C995 H1009 0.958 . S
C995 H1010 0.961 . S
C995 H1011 0.960 . S
H996 C980 0.931 . S
H997 C985 0.929 . S
H998 C986 0.960 . S
H999 C986 0.962 . S
H1000 C986 0.960 . S
H1001 C987 0.961 . S
H1002 C987 0.961 . S
H1003 C987 0.961 . S
H1004 C988 0.931 . S
H1005 C993 0.930 . S
H1006 C994 0.956 . S
H1007 C994 0.961 . S
H1008 C994 0.961 . S
H1009 C995 0.958 . S
H1010 C995 0.961 . S
H1011 C995 0.960 . S
C1012 C1013 1.391 . S
C1012 C1014 1.394 . S
C1012 H1028 0.931 . S
C1013 C1012 1.391 . S
C1013 C1017 1.376 . S
C1014 C1012 1.394 . S
C1014 C1015 1.369 . S
C1014 C1018 1.531 . S
C1015 C1014 1.369 . S
C1015 C1016 1.410 . S
C1015 C1023 1.503 . S
C1016 C1015 1.410 . S
C1016 C1017 1.392 . S
C1016 C1019 1.511 . S
C1017 C1013 1.376 . S
C1017 C1016 1.392 . S
C1017 H1029 0.929 . S
C1018 C1014 1.531 . S
C1018 H1030 0.960 . S
C1018 H1031 0.962 . S
C1018 H1032 0.960 . S
C1019 C1016 1.511 . S
C1019 H1033 0.961 . S
C1019 H1034 0.961 . S
C1019 H1035 0.961 . S
C1020 C1021 1.370 . S
C1020 C1022 1.363 . S
C1020 H1036 0.931 . S
C1021 C1020 1.370 . S
C1021 C1025 1.408 . S
C1022 C1020 1.363 . S
C1022 C1023 1.370 . S
C1022 C1026 1.524 . S
C1023 C1015 1.503 . S
C1023 C1022 1.370 . S
C1023 C1024 1.403 . S
C1024 C1023 1.403 . S
C1024 C1025 1.404 . S
C1024 C1027 1.539 . S
C1025 C1021 1.408 . S
C1025 C1024 1.404 . S
C1025 H1037 0.930 . S
C1026 C1022 1.524 . S
C1026 H1038 0.956 . S
C1026 H1039 0.961 . S
C1026 H1040 0.961 . S
C1027 C1024 1.539 . S
C1027 H1041 0.958 . S
C1027 H1042 0.961 . S
C1027 H1043 0.960 . S
H1028 C1012 0.931 . S
H1029 C1017 0.929 . S
H1030 C1018 0.960 . S
H1031 C1018 0.962 . S
H1032 C1018 0.960 . S
H1033 C1019 0.961 . S
H1034 C1019 0.961 . S
H1035 C1019 0.961 . S
H1036 C1020 0.931 . S
H1037 C1025 0.930 . S
H1038 C1026 0.956 . S
H1039 C1026 0.961 . S
H1040 C1026 0.961 . S
H1041 C1027 0.958 . S
H1042 C1027 0.961 . S
H1043 C1027 0.960 . S
C1044 C1045 1.391 . S
C1044 C1046 1.394 . S
C1044 H1060 0.931 . S
C1045 C1044 1.391 . S
C1045 C1049 1.376 . S
C1046 C1044 1.394 . S
C1046 C1047 1.369 . S
C1046 C1050 1.531 . S
C1047 C1046 1.369 . S
C1047 C1048 1.410 . S
C1047 C1055 1.503 . S
C1048 C1047 1.410 . S
C1048 C1049 1.392 . S
C1048 C1051 1.511 . S
C1049 C1045 1.376 . S
C1049 C1048 1.392 . S
C1049 H1061 0.929 . S
C1050 C1046 1.531 . S
C1050 H1062 0.960 . S
C1050 H1063 0.962 . S
C1050 H1064 0.960 . S
C1051 C1048 1.511 . S
C1051 H1065 0.961 . S
C1051 H1066 0.961 . S
C1051 H1067 0.961 . S
C1052 C1053 1.370 . S
C1052 C1054 1.363 . S
C1052 H1068 0.931 . S
C1053 C1052 1.370 . S
C1053 C1057 1.408 . S
C1054 C1052 1.363 . S
C1054 C1055 1.370 . S
C1054 C1058 1.524 . S
C1055 C1047 1.503 . S
C1055 C1054 1.370 . S
C1055 C1056 1.403 . S
C1056 C1055 1.403 . S
C1056 C1057 1.404 . S
C1056 C1059 1.539 . S
C1057 C1053 1.408 . S
C1057 C1056 1.404 . S
C1057 H1069 0.930 . S
C1058 C1054 1.524 . S
C1058 H1070 0.956 . S
C1058 H1071 0.961 . S
C1058 H1072 0.961 . S
C1059 C1056 1.539 . S
C1059 H1073 0.958 . S
C1059 H1074 0.961 . S
C1059 H1075 0.960 . S
H1060 C1044 0.931 . S
H1061 C1049 0.929 . S
H1062 C1050 0.960 . S
H1063 C1050 0.962 . S
H1064 C1050 0.960 . S
H1065 C1051 0.961 . S
H1066 C1051 0.961 . S
H1067 C1051 0.961 . S
H1068 C1052 0.931 . S
H1069 C1057 0.930 . S
H1070 C1058 0.956 . S
H1071 C1058 0.961 . S
H1072 C1058 0.961 . S
H1073 C1059 0.958 . S
H1074 C1059 0.961 . S
H1075 C1059 0.960 . S
C1076 C1077 1.391 . S
C1076 C1078 1.394 . S
C1076 H1092 0.931 . S
C1077 C1076 1.391 . S
C1077 C1081 1.376 . S
C1078 C1076 1.394 . S
C1078 C1079 1.369 . S
C1078 C1082 1.531 . S
C1079 C1078 1.369 . S
C1079 C1080 1.410 . S
C1079 C1087 1.503 . S
C1080 C1079 1.410 . S
C1080 C1081 1.392 . S
C1080 C1083 1.511 . S
C1081 C1077 1.376 . S
C1081 C1080 1.392 . S
C1081 H1093 0.929 . S
C1082 C1078 1.531 . S
C1082 H1094 0.960 . S
C1082 H1095 0.962 . S
C1082 H1096 0.960 . S
C1083 C1080 1.511 . S
C1083 H1097 0.961 . S
C1083 H1098 0.961 . S
C1083 H1099 0.961 . S
C1084 C1085 1.370 . S
C1084 C1086 1.363 . S
C1084 H1100 0.931 . S
C1085 C1084 1.370 . S
C1085 C1089 1.408 . S
C1086 C1084 1.363 . S
C1086 C1087 1.370 . S
C1086 C1090 1.524 . S
C1087 C1079 1.503 . S
C1087 C1086 1.370 . S
C1087 C1088 1.403 . S
C1088 C1087 1.403 . S
C1088 C1089 1.404 . S
C1088 C1091 1.539 . S
C1089 C1085 1.408 . S
C1089 C1088 1.404 . S
C1089 H1101 0.930 . S
C1090 C1086 1.524 . S
C1090 H1102 0.956 . S
C1090 H1103 0.961 . S
C1090 H1104 0.961 . S
C1091 C1088 1.539 . S
C1091 H1105 0.958 . S
C1091 H1106 0.961 . S
C1091 H1107 0.960 . S
H1092 C1076 0.931 . S
H1093 C1081 0.929 . S
H1094 C1082 0.960 . S
H1095 C1082 0.962 . S
H1096 C1082 0.960 . S
H1097 C1083 0.961 . S
H1098 C1083 0.961 . S
H1099 C1083 0.961 . S
H1100 C1084 0.931 . S
H1101 C1089 0.930 . S
H1102 C1090 0.956 . S
H1103 C1090 0.961 . S
H1104 C1090 0.961 . S
H1105 C1091 0.958 . S
H1106 C1091 0.961 . S
H1107 C1091 0.960 . S
C1108 C1109 1.391 . S
C1108 C1110 1.394 . S
C1108 H1124 0.931 . S
C1109 C1108 1.391 . S
C1109 C1113 1.376 . S
C1110 C1108 1.394 . S
C1110 C1111 1.369 . S
C1110 C1114 1.531 . S
C1111 C1110 1.369 . S
C1111 C1112 1.410 . S
C1111 C1119 1.503 . S
C1112 C1111 1.410 . S
C1112 C1113 1.392 . S
C1112 C1115 1.511 . S
C1113 C1109 1.376 . S
C1113 C1112 1.392 . S
C1113 H1125 0.929 . S
C1114 C1110 1.531 . S
C1114 H1126 0.960 . S
C1114 H1127 0.962 . S
C1114 H1128 0.960 . S
C1115 C1112 1.511 . S
C1115 H1129 0.961 . S
C1115 H1130 0.961 . S
C1115 H1131 0.961 . S
C1116 C1117 1.370 . S
C1116 C1118 1.363 . S
C1116 H1132 0.931 . S
C1117 C1116 1.370 . S
C1117 C1121 1.408 . S
C1118 C1116 1.363 . S
C1118 C1119 1.370 . S
C1118 C1122 1.524 . S
C1119 C1111 1.503 . S
C1119 C1118 1.370 . S
C1119 C1120 1.403 . S
C1120 C1119 1.403 . S
C1120 C1121 1.404 . S
C1120 C1123 1.539 . S
C1121 C1117 1.408 . S
C1121 C1120 1.404 . S
C1121 H1133 0.930 . S
C1122 C1118 1.524 . S
C1122 H1134 0.956 . S
C1122 H1135 0.961 . S
C1122 H1136 0.961 . S
C1123 C1120 1.539 . S
C1123 H1137 0.958 . S
C1123 H1138 0.961 . S
C1123 H1139 0.960 . S
H1124 C1108 0.931 . S
H1125 C1113 0.929 . S
H1126 C1114 0.960 . S
H1127 C1114 0.962 . S
H1128 C1114 0.960 . S
H1129 C1115 0.961 . S
H1130 C1115 0.961 . S
H1131 C1115 0.961 . S
H1132 C1116 0.931 . S
H1133 C1121 0.930 . S
H1134 C1122 0.956 . S
H1135 C1122 0.961 . S
H1136 C1122 0.961 . S
H1137 C1123 0.958 . S
H1138 C1123 0.961 . S
H1139 C1123 0.960 . S
C1140 C1141 1.391 . S
C1140 C1142 1.394 . S
C1140 H1156 0.931 . S
C1141 C1140 1.391 . S
C1141 C1145 1.376 . S
C1142 C1140 1.394 . S
C1142 C1143 1.369 . S
C1142 C1146 1.531 . S
C1143 C1142 1.369 . S
C1143 C1144 1.410 . S
C1143 C1151 1.503 . S
C1144 C1143 1.410 . S
C1144 C1145 1.392 . S
C1144 C1147 1.511 . S
C1145 C1141 1.376 . S
C1145 C1144 1.392 . S
C1145 H1157 0.929 . S
C1146 C1142 1.531 . S
C1146 H1158 0.960 . S
C1146 H1159 0.962 . S
C1146 H1160 0.960 . S
C1147 C1144 1.511 . S
C1147 H1161 0.961 . S
C1147 H1162 0.961 . S
C1147 H1163 0.961 . S
C1148 C1149 1.370 1_556 S
C1148 C1150 1.363 . S
C1148 H1164 0.931 1_556 S
C1149 C1148 1.370 1_554 S
C1149 C1153 1.408 . S
C1150 C1148 1.363 . S
C1150 C1151 1.370 . S
C1150 C1154 1.524 . S
C1151 C1143 1.503 . S
C1151 C1150 1.370 . S
C1151 C1152 1.403 . S
C1152 C1151 1.403 . S
C1152 C1153 1.404 1_556 S
C1152 C1155 1.539 . S
C1153 C1149 1.408 . S
C1153 C1152 1.404 1_554 S
C1153 H1165 0.930 . S
C1154 C1150 1.524 . S
C1154 H1166 0.956 . S
C1154 H1167 0.961 . S
C1154 H1168 0.961 . S
C1155 C1152 1.539 . S
C1155 H1169 0.958 . S
C1155 H1170 0.961 . S
C1155 H1171 0.960 . S
H1156 C1140 0.931 . S
H1157 C1145 0.929 . S
H1158 C1146 0.960 . S
H1159 C1146 0.962 . S
H1160 C1146 0.960 . S
H1161 C1147 0.961 . S
H1162 C1147 0.961 . S
H1163 C1147 0.961 . S
H1164 C1148 0.931 1_554 S
H1165 C1153 0.930 . S
H1166 C1154 0.956 . S
H1167 C1154 0.961 . S
H1168 C1154 0.961 . S
H1169 C1155 0.958 . S
H1170 C1155 0.961 . S
H1171 C1155 0.960 . S
C1172 C1173 1.391 . S
C1172 C1174 1.394 . S
C1172 H1188 0.931 . S
C1173 C1172 1.391 . S
C1173 C1177 1.376 . S
C1174 C1172 1.394 . S
C1174 C1175 1.369 . S
C1174 C1178 1.531 . S
C1175 C1174 1.369 . S
C1175 C1176 1.410 . S
C1175 C1183 1.503 . S
C1176 C1175 1.410 . S
C1176 C1177 1.392 . S
C1176 C1179 1.511 . S
C1177 C1173 1.376 . S
C1177 C1176 1.392 . S
C1177 H1189 0.929 1_565 S
C1178 C1174 1.531 . S
C1178 H1190 0.960 . S
C1178 H1191 0.962 . S
C1178 H1192 0.960 . S
C1179 C1176 1.511 . S
C1179 H1193 0.961 1_565 S
C1179 H1194 0.961 . S
C1179 H1195 0.950 . S
C1180 C1181 1.370 . S
C1180 C1182 1.363 . S
C1180 H1196 0.931 . S
C1181 C1180 1.370 . S
C1181 C1185 1.408 . S
C1182 C1180 1.363 . S
C1182 C1183 1.370 . S
C1182 C1186 1.524 . S
C1183 C1175 1.503 . S
C1183 C1182 1.370 . S
C1183 C1184 1.403 . S
C1184 C1183 1.403 . S
C1184 C1185 1.404 . S
C1184 C1187 1.539 . S
C1185 C1181 1.408 . S
C1185 C1184 1.404 . S
C1185 H1197 0.930 . S
C1186 C1182 1.524 . S
C1186 H1198 0.956 . S
C1186 H1199 0.961 . S
C1186 H1200 0.961 . S
C1187 C1184 1.539 . S
C1187 H1201 0.958 . S
C1187 H1202 0.961 . S
C1187 H1203 0.960 . S
H1188 C1172 0.931 . S
H1189 C1177 0.929 1_545 S
H1190 C1178 0.960 . S
H1191 C1178 0.962 . S
H1192 C1178 0.960 . S
H1193 C1179 0.961 1_545 S
H1194 C1179 0.961 . S
H1195 C1179 0.950 . S
H1196 C1180 0.931 . S
H1197 C1185 0.930 . S
H1198 C1186 0.956 . S
H1199 C1186 0.961 . S
H1200 C1186 0.961 . S
H1201 C1187 0.958 . S
H1202 C1187 0.961 . S
H1203 C1187 0.960 . S
C1204 C1205 1.391 . S
C1204 C1206 1.394 . S
C1204 H1220 0.931 . S
C1205 C1204 1.391 . S
C1205 C1209 1.376 . S
C1206 C1204 1.394 . S
C1206 C1207 1.369 . S
C1206 C1210 1.531 . S
C1207 C1206 1.369 . S
C1207 C1208 1.410 . S
C1207 C1215 1.503 . S
C1208 C1207 1.410 . S
C1208 C1209 1.392 . S
C1208 C1211 1.511 . S
C1209 C1205 1.376 . S
C1209 C1208 1.392 . S
C1209 H1221 0.929 . S
C1210 C1206 1.531 . S
C1210 H1222 0.960 . S
C1210 H1223 0.962 . S
C1210 H1224 0.960 . S
C1211 C1208 1.511 . S
C1211 H1225 0.961 . S
C1211 H1226 0.961 . S
C1211 H1227 0.961 . S
C1212 C1213 1.370 . S
C1212 C1214 1.363 . S
C1212 H1228 0.931 . S
C1213 C1212 1.370 . S
C1213 C1217 1.408 . S
C1214 C1212 1.363 . S
C1214 C1215 1.370 . S
C1214 C1218 1.524 . S
C1215 C1207 1.503 . S
C1215 C1214 1.370 . S
C1215 C1216 1.403 . S
C1216 C1215 1.403 . S
C1216 C1217 1.404 . S
C1216 C1219 1.539 . S
C1217 C1213 1.408 . S
C1217 C1216 1.404 . S
C1217 H1229 0.930 . S
C1218 C1214 1.524 . S
C1218 H1230 0.956 . S
C1218 H1231 0.961 . S
C1218 H1232 0.961 . S
C1219 C1216 1.539 . S
C1219 H1233 0.958 . S
C1219 H1234 0.961 . S
C1219 H1235 0.960 . S
H1220 C1204 0.931 . S
H1221 C1209 0.929 . S
H1222 C1210 0.960 . S
H1223 C1210 0.962 . S
H1224 C1210 0.960 . S
H1225 C1211 0.961 . S
H1226 C1211 0.961 . S
H1227 C1211 0.961 . S
H1228 C1212 0.931 . S
H1229 C1217 0.930 . S
H1230 C1218 0.956 . S
H1231 C1218 0.961 . S
H1232 C1218 0.961 . S
H1233 C1219 0.958 . S
H1234 C1219 0.961 . S
H1235 C1219 0.960 . S
C1236 C1237 1.391 . S
C1236 C1238 1.394 . S
C1236 H1252 0.931 . S
C1237 C1236 1.391 . S
C1237 C1241 1.376 . S
C1238 C1236 1.394 . S
C1238 C1239 1.369 . S
C1238 C1242 1.531 . S
C1239 C1238 1.369 . S
C1239 C1240 1.410 . S
C1239 C1247 1.503 . S
C1240 C1239 1.410 . S
C1240 C1241 1.392 . S
C1240 C1243 1.511 . S
C1241 C1237 1.376 . S
C1241 C1240 1.392 . S
C1241 H1253 0.929 . S
C1242 C1238 1.531 . S
C1242 H1254 0.960 . S
C1242 H1255 0.962 . S
C1242 H1256 0.960 . S
C1243 C1240 1.511 . S
C1243 H1257 0.961 . S
C1243 H1258 0.961 . S
C1243 H1259 0.961 . S
C1244 C1245 1.370 . S
C1244 C1246 1.363 . S
C1244 H1260 0.931 . S
C1245 C1244 1.370 . S
C1245 C1249 1.408 . S
C1246 C1244 1.363 . S
C1246 C1247 1.370 . S
C1246 C1250 1.524 . S
C1247 C1239 1.503 . S
C1247 C1246 1.370 . S
C1247 C1248 1.403 . S
C1248 C1247 1.403 . S
C1248 C1249 1.404 . S
C1248 C1251 1.539 . S
C1249 C1245 1.408 . S
C1249 C1248 1.404 . S
C1249 H1261 0.930 . S
C1250 C1246 1.524 . S
C1250 H1262 0.956 . S
C1250 H1263 0.961 . S
C1250 H1264 0.961 . S
C1251 C1248 1.539 . S
C1251 H1265 0.958 . S
C1251 H1266 0.961 . S
C1251 H1267 0.960 . S
H1252 C1236 0.931 . S
H1253 C1241 0.929 . S
H1254 C1242 0.960 . S
H1255 C1242 0.962 . S
H1256 C1242 0.960 . S
H1257 C1243 0.961 . S
H1258 C1243 0.961 . S
H1259 C1243 0.961 . S
H1260 C1244 0.931 . S
H1261 C1249 0.930 . S
H1262 C1250 0.956 . S
H1263 C1250 0.961 . S
H1264 C1250 0.961 . S
H1265 C1251 0.958 . S
H1266 C1251 0.961 . S
H1267 C1251 0.960 . S
C1268 C1269 1.391 . S
C1268 C1270 1.394 . S
C1268 H1284 0.931 . S
C1269 C1268 1.391 . S
C1269 C1273 1.376 . S
C1270 C1268 1.394 . S
C1270 C1271 1.369 . S
C1270 C1274 1.531 . S
C1271 C1270 1.369 . S
C1271 C1272 1.410 . S
C1271 C1279 1.503 . S
C1272 C1271 1.410 . S
C1272 C1273 1.392 . S
C1272 C1275 1.511 . S
C1273 C1269 1.376 . S
C1273 C1272 1.392 . S
C1273 H1285 0.929 . S
C1274 C1270 1.531 . S
C1274 H1286 0.960 . S
C1274 H1287 0.962 . S
C1274 H1288 0.960 . S
C1275 C1272 1.511 . S
C1275 H1289 0.961 . S
C1275 H1290 0.961 . S
C1275 H1291 0.961 . S
C1276 C1277 1.370 . S
C1276 C1278 1.363 . S
C1276 H1292 0.931 . S
C1277 C1276 1.370 . S
C1277 C1281 1.408 . S
C1278 C1276 1.363 . S
C1278 C1279 1.370 . S
C1278 C1282 1.524 . S
C1279 C1271 1.503 . S
C1279 C1278 1.370 . S
C1279 C1280 1.403 . S
C1280 C1279 1.403 . S
C1280 C1281 1.404 . S
C1280 C1283 1.539 . S
C1281 C1277 1.408 . S
C1281 C1280 1.404 . S
C1281 H1293 0.930 . S
C1282 C1278 1.524 . S
C1282 H1294 0.956 . S
C1282 H1295 0.961 . S
C1282 H1296 0.961 . S
C1283 C1280 1.539 . S
C1283 H1297 0.958 . S
C1283 H1298 0.961 . S
C1283 H1299 0.960 . S
H1284 C1268 0.931 . S
H1285 C1273 0.929 . S
H1286 C1274 0.960 . S
H1287 C1274 0.962 . S
H1288 C1274 0.960 . S
H1289 C1275 0.961 . S
H1290 C1275 0.961 . S
H1291 C1275 0.961 . S
H1292 C1276 0.931 . S
H1293 C1281 0.930 . S
H1294 C1282 0.956 . S
H1295 C1282 0.961 . S
H1296 C1282 0.961 . S
H1297 C1283 0.958 . S
H1298 C1283 0.961 . S
H1299 C1283 0.960 . S
C1300 C1301 1.391 . S
C1300 C1302 1.394 . S
C1300 H1316 0.931 . S
C1301 C1300 1.391 . S
C1301 C1305 1.376 . S
C1302 C1300 1.394 . S
C1302 C1303 1.369 . S
C1302 C1306 1.531 . S
C1303 C1302 1.369 . S
C1303 C1304 1.410 . S
C1303 C1311 1.503 . S
C1304 C1303 1.410 . S
C1304 C1305 1.392 . S
C1304 C1307 1.511 . S
C1305 C1301 1.376 . S
C1305 C1304 1.392 . S
C1305 H1317 0.929 . S
C1306 C1302 1.531 . S
C1306 H1318 0.960 . S
C1306 H1319 0.962 . S
C1306 H1320 0.960 . S
C1307 C1304 1.511 . S
C1307 H1321 0.961 . S
C1307 H1322 0.961 . S
C1307 H1323 0.961 . S
C1308 C1309 1.370 . S
C1308 C1310 1.363 . S
C1308 H1324 0.931 . S
C1309 C1308 1.370 . S
C1309 C1313 1.408 . S
C1310 C1308 1.363 . S
C1310 C1311 1.370 . S
C1310 C1314 1.524 . S
C1311 C1303 1.503 . S
C1311 C1310 1.370 . S
C1311 C1312 1.403 . S
C1312 C1311 1.403 . S
C1312 C1313 1.404 . S
C1312 C1315 1.539 . S
C1313 C1309 1.408 . S
C1313 C1312 1.404 . S
C1313 H1325 0.930 . S
C1314 C1310 1.524 . S
C1314 H1326 0.956 . S
C1314 H1327 0.961 . S
C1314 H1328 0.961 . S
C1315 C1312 1.539 . S
C1315 H1329 0.958 . S
C1315 H1330 0.961 . S
C1315 H1331 0.960 . S
H1316 C1300 0.931 . S
H1317 C1305 0.929 . S
H1318 C1306 0.960 . S
H1319 C1306 0.962 . S
H1320 C1306 0.960 . S
H1321 C1307 0.961 . S
H1322 C1307 0.961 . S
H1323 C1307 0.961 . S
H1324 C1308 0.931 . S
H1325 C1313 0.930 . S
H1326 C1314 0.956 . S
H1327 C1314 0.961 . S
H1328 C1314 0.961 . S
H1329 C1315 0.958 . S
H1330 C1315 0.961 . S
H1331 C1315 0.960 . S
C1332 C1333 1.391 . S
C1332 C1334 1.394 . S
C1332 H1348 0.931 . S
C1333 C1332 1.391 . S
C1333 C1337 1.376 . S
C1334 C1332 1.394 . S
C1334 C1335 1.369 . S
C1334 C1338 1.531 . S
C1335 C1334 1.369 . S
C1335 C1336 1.410 . S
C1335 C1343 1.503 . S
C1336 C1335 1.410 . S
C1336 C1337 1.392 . S
C1336 C1339 1.511 . S
C1337 C1333 1.376 . S
C1337 C1336 1.392 . S
C1337 H1349 0.929 . S
C1338 C1334 1.531 . S
C1338 H1350 0.960 . S
C1338 H1351 0.962 . S
C1338 H1352 0.960 . S
C1339 C1336 1.511 . S
C1339 H1353 0.961 . S
C1339 H1354 0.961 . S
C1339 H1355 0.961 . S
C1340 C1341 1.370 . S
C1340 C1342 1.363 . S
C1340 H1356 0.931 . S
C1341 C1340 1.370 . S
C1341 C1345 1.408 . S
C1342 C1340 1.363 . S
C1342 C1343 1.370 . S
C1342 C1346 1.524 . S
C1343 C1335 1.503 . S
C1343 C1342 1.370 . S
C1343 C1344 1.403 . S
C1344 C1343 1.403 . S
C1344 C1345 1.404 . S
C1344 C1347 1.539 . S
C1345 C1341 1.408 . S
C1345 C1344 1.404 . S
C1345 H1357 0.930 . S
C1346 C1342 1.524 . S
C1346 H1358 0.956 . S
C1346 H1359 0.961 . S
C1346 H1360 0.961 . S
C1347 C1344 1.539 . S
C1347 H1361 0.958 . S
C1347 H1362 0.961 . S
C1347 H1363 0.960 . S
H1348 C1332 0.931 . S
H1349 C1337 0.929 . S
H1350 C1338 0.960 . S
H1351 C1338 0.962 . S
H1352 C1338 0.960 . S
H1353 C1339 0.961 . S
H1354 C1339 0.961 . S
H1355 C1339 0.961 . S
H1356 C1340 0.931 . S
H1357 C1345 0.930 . S
H1358 C1346 0.956 . S
H1359 C1346 0.961 . S
H1360 C1346 0.961 . S
H1361 C1347 0.958 . S
H1362 C1347 0.961 . S
H1363 C1347 0.960 . S
C1364 C1365 1.391 . S
C1364 C1366 1.394 . S
C1364 H1380 0.931 . S
C1365 C1364 1.391 . S
C1365 C1369 1.376 . S
C1366 C1364 1.394 . S
C1366 C1367 1.369 . S
C1366 C1370 1.531 . S
C1367 C1366 1.369 . S
C1367 C1368 1.410 . S
C1367 C1375 1.503 1_554 S
C1368 C1367 1.410 . S
C1368 C1369 1.392 . S
C1368 C1371 1.511 . S
C1369 C1365 1.376 . S
C1369 C1368 1.392 . S
C1369 H1381 0.929 . S
C1370 C1366 1.531 . S
C1370 H1382 0.960 1_554 S
C1370 H1383 0.962 . S
C1370 H1384 0.960 . S
C1371 C1368 1.511 . S
C1371 H1385 0.961 . S
C1371 H1386 0.961 . S
C1371 H1387 0.961 . S
C1372 C1373 1.370 . S
C1372 C1374 1.363 . S
C1372 H1388 0.931 . S
C1373 C1372 1.370 . S
C1373 C1377 1.408 . S
C1374 C1372 1.363 . S
C1374 C1375 1.370 . S
C1374 C1378 1.524 . S
C1375 C1367 1.503 1_556 S
C1375 C1374 1.370 . S
C1375 C1376 1.403 . S
C1376 C1375 1.403 . S
C1376 C1377 1.404 . S
C1376 C1379 1.514 1_556 S
C1377 C1373 1.408 . S
C1377 C1376 1.404 . S
C1377 H1389 0.930 . S
C1378 C1374 1.524 . S
C1378 H1390 0.956 . S
C1378 H1391 0.961 1_556 S
C1378 H1392 0.961 . S
C1379 C1376 1.514 1_554 S
C1379 H1393 0.955 1_554 S
C1379 H1394 0.947 1_554 S
C1379 H1395 1.004 . S
H1380 C1364 0.931 . S
H1381 C1369 0.929 . S
H1382 C1370 0.960 1_556 S
H1383 C1370 0.962 . S
H1384 C1370 0.960 . S
H1385 C1371 0.961 . S
H1386 C1371 0.961 . S
H1387 C1371 0.961 . S
H1388 C1372 0.931 . S
H1389 C1377 0.930 . S
H1390 C1378 0.956 . S
H1391 C1378 0.961 1_554 S
H1392 C1378 0.961 . S
H1393 C1379 0.955 1_556 S
H1394 C1379 0.947 1_556 S
H1395 C1379 1.004 . S
C1396 C1397 1.391 . S
C1396 C1398 1.394 . S
C1396 H1412 0.931 . S
C1397 C1396 1.391 . S
C1397 C1401 1.376 . S
C1398 C1396 1.394 . S
C1398 C1399 1.369 . S
C1398 C1402 1.531 . S
C1399 C1398 1.369 . S
C1399 C1400 1.410 . S
C1399 C1407 1.503 . S
C1400 C1399 1.410 . S
C1400 C1401 1.392 . S
C1400 C1403 1.511 . S
C1401 C1397 1.376 . S
C1401 C1400 1.392 . S
C1401 H1413 0.929 . S
C1402 C1398 1.531 . S
C1402 H1414 0.960 . S
C1402 H1415 0.962 . S
C1402 H1416 0.960 . S
C1403 C1400 1.511 . S
C1403 H1417 0.961 . S
C1403 H1418 0.961 . S
C1403 H1419 0.961 . S
C1404 C1405 1.370 . S
C1404 C1406 1.363 . S
C1404 H1420 0.931 . S
C1405 C1404 1.370 . S
C1405 C1409 1.408 . S
C1406 C1404 1.363 . S
C1406 C1407 1.370 . S
C1406 C1410 1.524 . S
C1407 C1399 1.503 . S
C1407 C1406 1.370 . S
C1407 C1408 1.403 . S
C1408 C1407 1.403 . S
C1408 C1409 1.404 . S
C1408 C1411 1.539 . S
C1409 C1405 1.408 . S
C1409 C1408 1.404 . S
C1409 H1421 0.930 . S
C1410 C1406 1.524 . S
C1410 H1422 0.956 . S
C1410 H1423 0.961 . S
C1410 H1424 0.961 . S
C1411 C1408 1.539 . S
C1411 H1425 0.958 . S
C1411 H1426 0.961 . S
C1411 H1427 0.960 . S
H1412 C1396 0.931 . S
H1413 C1401 0.929 . S
H1414 C1402 0.960 . S
H1415 C1402 0.962 . S
H1416 C1402 0.960 . S
H1417 C1403 0.961 . S
H1418 C1403 0.961 . S
H1419 C1403 0.961 . S
H1420 C1404 0.931 . S
H1421 C1409 0.930 . S
H1422 C1410 0.956 . S
H1423 C1410 0.961 . S
H1424 C1410 0.961 . S
H1425 C1411 0.958 . S
H1426 C1411 0.961 . S
H1427 C1411 0.960 . S
C669 C627 1.362 . S
C661 C51 1.319 . S
C693 C125 1.446 . S
C701 C447 1.466 . S
C725 C217 2.617 . S
C733 C494 2.625 . S
C757 C291 1.513 . S
C765 C530 1.508 . S
C797 C555 0.872 . S
C789 C347 0.904 . S
C821 C421 0.890 . S
C829 C591 0.895 . S
C853 C143 2.316 . S
C861 C483 2.317 . S
C885 C199 1.473 . S
C893 C519 1.508 . S
C917 C273 0.557 . S
C925 C566 0.514 . S
C957 C602 1.659 . S
C949 C365 1.626 . S
C989 C638 1.828 . S
C981 C439 1.840 . S
C1021 C458 2.510 . S
C1013 C69 2.470 . S
C1045 C63 1.432 . S
C1053 C482 1.524 . S
C1077 C137 1.485 . S
C1085 C518 1.590 . S
C1117 C556 1.395 . S
C1109 C187 1.363 . S
C1141 C261 1.455 . S
C1149 C592 1.515 . S
C1181 C628 1.553 . S
C1173 C359 1.376 . S
C1213 C448 1.156 . S
C1205 C433 1.138 . S
C1245 C626 1.587 . S
C1237 C113 1.621 . S
C1269 C211 1.269 . S
C1277 C446 1.369 . S
C1309 C484 1.580 . S
C1301 C285 1.489 . S
C1333 C335 1.414 . S
C1341 C520 1.455 . S
C1365 C409 1.357 . S
C1373 C554 1.398 . S
C1397 C39 1.615 . S
C1405 C590 1.688 . S
