# Generated by pormake.
# Topology pto, (3,4)-cn, num edge types: 1
# Building blocks:
#     Node 0, Type 0, BuildingBlock: VETTIZ_charged_linker_0, # of connection points: 3
#     Node 1, Type 0, BuildingBlock: VETTIZ_charged_linker_0, # of connection points: 3
#     Node 2, Type 0, BuildingBlock: VETTIZ_charged_linker_0, # of connection points: 3
#     Node 3, Type 0, BuildingBlock: VETTIZ_charged_linker_0, # of connection points: 3
#     Node 4, Type 0, BuildingBlock: VETTIZ_charged_linker_0, # of connection points: 3
#     Node 5, Type 0, BuildingBlock: VETTIZ_charged_linker_0, # of connection points: 3
#     Node 6, Type 0, BuildingBlock: VETTIZ_charged_linker_0, # of connection points: 3
#     Node 7, Type 0, BuildingBlock: VETTIZ_charged_linker_0, # of connection points: 3
#     Node 8, Type 1, BuildingBlock: NAWXER_clean_sbu_0, # of connection points: 4
#     Node 9, Type 1, BuildingBlock: NAWXER_clean_sbu_0, # of connection points: 4
#     Node 10, Type 1, BuildingBlock: NAWXER_clean_sbu_0, # of connection points: 4
#     Node 11, Type 1, BuildingBlock: NAWXER_clean_sbu_0, # of connection points: 4
#     Node 12, Type 1, BuildingBlock: NAWXER_clean_sbu_0, # of connection points: 4
#     Node 13, Type 1, BuildingBlock: NAWXER_clean_sbu_0, # of connection points: 4
#     Edge 14, Type (0, 1), BuildingBlock: EZIPEK_clean_linker_0, # of connection points: 2
#     Edge 15, Type (0, 1), BuildingBlock: EZIPEK_clean_linker_0, # of connection points: 2
#     Edge 16, Type (0, 1), BuildingBlock: EZIPEK_clean_linker_0, # of connection points: 2
#     Edge 17, Type (0, 1), BuildingBlock: EZIPEK_clean_linker_0, # of connection points: 2
#     Edge 18, Type (0, 1), BuildingBlock: EZIPEK_clean_linker_0, # of connection points: 2
#     Edge 19, Type (0, 1), BuildingBlock: EZIPEK_clean_linker_0, # of connection points: 2
#     Edge 20, Type (0, 1), BuildingBlock: EZIPEK_clean_linker_0, # of connection points: 2
#     Edge 21, Type (0, 1), BuildingBlock: EZIPEK_clean_linker_0, # of connection points: 2
#     Edge 22, Type (0, 1), BuildingBlock: EZIPEK_clean_linker_0, # of connection points: 2
#     Edge 23, Type (0, 1), BuildingBlock: EZIPEK_clean_linker_0, # of connection points: 2
#     Edge 24, Type (0, 1), BuildingBlock: EZIPEK_clean_linker_0, # of connection points: 2
#     Edge 25, Type (0, 1), BuildingBlock: EZIPEK_clean_linker_0, # of connection points: 2
#     Edge 26, Type (0, 1), BuildingBlock: EZIPEK_clean_linker_0, # of connection points: 2
#     Edge 27, Type (0, 1), BuildingBlock: EZIPEK_clean_linker_0, # of connection points: 2
#     Edge 28, Type (0, 1), BuildingBlock: EZIPEK_clean_linker_0, # of connection points: 2
#     Edge 29, Type (0, 1), BuildingBlock: EZIPEK_clean_linker_0, # of connection points: 2
#     Edge 30, Type (0, 1), BuildingBlock: EZIPEK_clean_linker_0, # of connection points: 2
#     Edge 31, Type (0, 1), BuildingBlock: EZIPEK_clean_linker_0, # of connection points: 2
#     Edge 32, Type (0, 1), BuildingBlock: EZIPEK_clean_linker_0, # of connection points: 2
#     Edge 33, Type (0, 1), BuildingBlock: EZIPEK_clean_linker_0, # of connection points: 2
#     Edge 34, Type (0, 1), BuildingBlock: EZIPEK_clean_linker_0, # of connection points: 2
#     Edge 35, Type (0, 1), BuildingBlock: EZIPEK_clean_linker_0, # of connection points: 2
#     Edge 36, Type (0, 1), BuildingBlock: EZIPEK_clean_linker_0, # of connection points: 2
#     Edge 37, Type (0, 1), BuildingBlock: EZIPEK_clean_linker_0, # of connection points: 2
# Relax obj value: 0.000
# Max RMSD: 0.000
# Mean RMSD: 0.000
data_MOF--net-pto--node1-NAWXER_clean_sbu_0--node2-VETTIZ_charged_linker_0--edge1-EZIPEK_clean_linker_0
_symmetry_space_group_name_H-M    P1
_symmetry_Int_Tables_number       1
_symmetry_cell_setting            triclinic
loop_
_symmetry_equiv_pos_as_xyz
'x, y, z'
_cell_length_a     41.278608
_cell_length_b     38.752936
_cell_length_c     36.203779
_cell_angle_alpha  89.916764
_cell_angle_beta   89.941866
_cell_angle_gamma 89.982385
loop_
_atom_site_label
_atom_site_type_symbol
_atom_site_fract_x
_atom_site_fract_y
_atom_site_fract_z
_atom_type_partial_charge
C0 C 0.21773 0.18592 0.33715 0.0
C1 C 0.24328 0.1651 0.35006 0.0
C2 C 0.27487 0.17123 0.3367 0.0
C3 C 0.25539 0.21858 0.29873 0.0
C4 C 0.22437 0.2127 0.31195 0.0
C5 C 0.20032 0.23819 0.29649 0.0
H6 H 0.1738 0.38987 0.20803 0.0
C7 C 0.25438 0.249 0.27384 0.0
C8 C 0.22218 0.26097 0.27295 0.0
H9 H 0.10196 0.32085 0.25354 0.0
H10 H 0.14391 0.27932 0.26877 0.0
H11 H 0.20546 0.33251 0.1624 0.0
H12 H 0.23192 0.37796 0.26565 0.0
H13 H 0.26756 0.37384 0.23916 0.0
H14 H 0.23439 0.39928 0.22166 0.0
H15 H 0.23084 0.3699 0.16422 0.0
H16 H 0.24753 0.32682 0.16445 0.0
C17 C 0.17537 0.21826 0.27273 0.0
C18 C 0.18517 0.25826 0.32912 0.0
C19 C 0.35427 0.28736 0.20075 0.0
C20 C 0.35928 0.3152 0.1763 0.0
C21 C 0.33528 0.34069 0.17277 0.0
C22 C 0.30591 0.33778 0.19174 0.0
C23 C 0.3003 0.30896 0.21445 0.0
C24 C 0.32455 0.28483 0.21971 0.0
C25 C 0.31414 0.25678 0.2463 0.0
C26 C 0.27889 0.26663 0.25338 0.0
C27 C 0.27116 0.2972 0.23452 0.0
C28 C 0.31694 0.22152 0.22664 0.0
C29 C 0.33506 0.25974 0.28169 0.0
C30 C 0.16712 0.36574 0.22114 0.0
C31 C 0.13472 0.35894 0.23043 0.0
C32 C 0.12688 0.32682 0.24663 0.0
C33 C 0.15123 0.30287 0.25557 0.0
C34 C 0.1837 0.31068 0.24734 0.0
C35 C 0.19091 0.34105 0.229 0.0
C36 C 0.22592 0.34315 0.21808 0.0
C37 C 0.23895 0.30995 0.2347 0.0
C38 C 0.21436 0.29138 0.25268 0.0
C39 C 0.22776 0.34332 0.17517 0.0
C40 C 0.24092 0.37532 0.23681 0.0
H41 H 0.30553 0.20088 0.30177 0.0
H42 H 0.19321 0.1816 0.34678 0.0
H43 H 0.2044 0.26749 0.34821 0.0
H44 H 0.17168 0.28138 0.32035 0.0
H45 H 0.16844 0.24149 0.34516 0.0
H46 H 0.18621 0.1945 0.2607 0.0
H47 H 0.15406 0.21031 0.28945 0.0
H48 H 0.16705 0.23337 0.2486 0.0
H49 H 0.37259 0.26758 0.20397 0.0
H50 H 0.33889 0.3623 0.15418 0.0
H51 H 0.28842 0.35778 0.1873 0.0
H52 H 0.30577 0.22284 0.19872 0.0
H53 H 0.34272 0.21393 0.2232 0.0
H54 H 0.30427 0.20064 0.24152 0.0
H55 H 0.34405 0.28652 0.28579 0.0
H56 H 0.32113 0.25391 0.30707 0.0
H57 H 0.35654 0.24252 0.28032 0.0
H58 H 0.29483 0.15534 0.34612 0.0
C59 C 0.28103 0.19769 0.31107 0.0
C60 C 0.17025 0.64947 0.78824 0.0
C61 C 0.13778 0.65527 0.77848 0.0
C62 C 0.1292 0.68742 0.76285 0.0
C63 C 0.1854 0.70589 0.76414 0.0
C64 C 0.19332 0.67531 0.78168 0.0
C65 C 0.22819 0.6743 0.79334 0.0
H66 H 0.37261 0.75396 0.81224 0.0
C67 C 0.21536 0.72679 0.76063 0.0
C68 C 0.24025 0.7087 0.77861 0.0
H69 H 0.34178 0.65571 0.85628 0.0
H70 H 0.29087 0.66066 0.82424 0.0
H71 H 0.30563 0.79548 0.82214 0.0
H72 H 0.34169 0.73863 0.72828 0.0
H73 H 0.32178 0.77555 0.71171 0.0
H74 H 0.35734 0.78033 0.74023 0.0
H75 H 0.34051 0.80879 0.79602 0.0
H76 H 0.30021 0.82017 0.78157 0.0
C77 C 0.22921 0.67251 0.83622 0.0
C78 C 0.24474 0.64356 0.77352 0.0
C79 C 0.21685 0.8344 0.67928 0.0
C80 C 0.24148 0.85774 0.66939 0.0
C81 C 0.27226 0.85433 0.68578 0.0
C82 C 0.27873 0.82758 0.71099 0.0
C83 C 0.25418 0.8038 0.71996 0.0
C84 C 0.22368 0.80773 0.70456 0.0
C85 C 0.2004 0.78044 0.71794 0.0
C86 C 0.22238 0.75839 0.7421 0.0
C87 C 0.25389 0.77229 0.74341 0.0
C88 C 0.17336 0.79824 0.74076 0.0
C89 C 0.18777 0.76024 0.68408 0.0
C90 C 0.35487 0.73348 0.81438 0.0
C91 C 0.36087 0.70442 0.83684 0.0
C92 C 0.33747 0.67818 0.83912 0.0
C93 C 0.30784 0.68132 0.82076 0.0
C94 C 0.30134 0.71112 0.79987 0.0
C95 C 0.32491 0.73621 0.79598 0.0
C96 C 0.31356 0.76545 0.77146 0.0
C97 C 0.27869 0.75477 0.76354 0.0
C98 C 0.27188 0.72293 0.78042 0.0
C99 C 0.31516 0.79945 0.79369 0.0
C100 C 0.33469 0.76538 0.73609 0.0
H101 H 0.145 0.73607 0.74237 0.0
H102 H 0.17753 0.62531 0.80083 0.0
H103 H 0.23596 0.64132 0.74457 0.0
H104 H 0.27127 0.64655 0.7712 0.0
H105 H 0.23933 0.61883 0.78779 0.0
H106 H 0.20677 0.68323 0.84884 0.0
H107 H 0.2317 0.64549 0.84607 0.0
H108 H 0.24893 0.68828 0.84813 0.0
H109 H 0.19297 0.83664 0.66717 0.0
H110 H 0.29148 0.87212 0.67848 0.0
H111 H 0.30268 0.82627 0.72238 0.0
H112 H 0.18185 0.82302 0.75283 0.0
H113 H 0.15186 0.80404 0.72339 0.0
H114 H 0.16573 0.78259 0.76484 0.0
H115 H 0.20831 0.75217 0.66613 0.0
H116 H 0.17474 0.73645 0.69168 0.0
H117 H 0.1712 0.77648 0.66725 0.0
H118 H 0.10424 0.69262 0.75549 0.0
C119 C 0.15286 0.71253 0.75518 0.0
C120 C 0.85515 0.69887 0.23388 0.0
C121 C 0.8579 0.66726 0.21471 0.0
C122 C 0.82999 0.65297 0.19847 0.0
C123 C 0.79757 0.70087 0.22033 0.0
C124 C 0.82455 0.71456 0.23739 0.0
C125 C 0.81592 0.74523 0.26122 0.0
H126 H 0.6997 0.85378 0.32824 0.0
C127 C 0.76942 0.72276 0.22947 0.0
C128 C 0.77965 0.74851 0.25405 0.0
H129 H 0.8009 0.85006 0.35761 0.0
H130 H 0.80982 0.8038 0.3137 0.0
H131 H 0.68744 0.76922 0.32216 0.0
H132 H 0.71202 0.84669 0.24113 0.0
H133 H 0.68634 0.81671 0.21969 0.0
H134 H 0.67141 0.8419 0.25807 0.0
H135 H 0.66128 0.8046 0.31025 0.0
H136 H 0.66163 0.76567 0.28341 0.0
C137 C 0.82329 0.73575 0.30197 0.0
C138 C 0.83477 0.77698 0.24682 0.0
C139 C 0.66278 0.69885 0.16507 0.0
C140 C 0.63138 0.71343 0.16662 0.0
C141 C 0.62805 0.74381 0.18847 0.0
C142 C 0.65332 0.75624 0.2108 0.0
C143 C 0.6833 0.73934 0.2107 0.0
C144 C 0.68766 0.71145 0.18763 0.0
C145 C 0.72144 0.69729 0.18956 0.0
C146 C 0.7369 0.72183 0.217 0.0
C147 C 0.71451 0.7464 0.22962 0.0
C148 C 0.71952 0.65982 0.20479 0.0
C149 C 0.73688 0.70046 0.15064 0.0
C150 C 0.72366 0.84273 0.32519 0.0
C151 C 0.74964 0.85517 0.34649 0.0
C152 C 0.78061 0.84063 0.34157 0.0
C153 C 0.78567 0.81376 0.31619 0.0
C154 C 0.75944 0.80111 0.29544 0.0
C155 C 0.72909 0.81579 0.29987 0.0
C156 C 0.70431 0.79965 0.27462 0.0
C157 C 0.72437 0.77185 0.2557 0.0
C158 C 0.75678 0.77294 0.26784 0.0
C159 C 0.67701 0.78402 0.29865 0.0
C160 C 0.69259 0.82755 0.24699 0.0
H161 H 0.78008 0.6576 0.18722 0.0
H162 H 0.87605 0.71022 0.24723 0.0
H163 H 0.83379 0.77817 0.21614 0.0
H164 H 0.82453 0.80164 0.25661 0.0
H165 H 0.86066 0.77564 0.25507 0.0
H166 H 0.81958 0.7077 0.30705 0.0
H167 H 0.84878 0.74192 0.30924 0.0
H168 H 0.80689 0.74865 0.32172 0.0
H169 H 0.66906 0.67865 0.146 0.0
H170 H 0.60635 0.75928 0.18785 0.0
H171 H 0.64865 0.77891 0.22694 0.0
H172 H 0.69673 0.65521 0.22049 0.0
H173 H 0.72039 0.64056 0.18211 0.0
H174 H 0.73904 0.65411 0.22488 0.0
H175 H 0.73068 0.72575 0.13787 0.0
H176 H 0.76358 0.69953 0.15099 0.0
H177 H 0.72793 0.67983 0.132 0.0
H178 H 0.8313 0.6285 0.1841 0.0
C179 C 0.80012 0.66979 0.20065 0.0
C180 C 0.66909 0.31503 0.85349 0.0
C181 C 0.63964 0.29724 0.85633 0.0
C182 C 0.63343 0.26954 0.83217 0.0
C183 C 0.68684 0.27625 0.80463 0.0
C184 C 0.69233 0.30396 0.82789 0.0
C185 C 0.72577 0.31857 0.82362 0.0
H186 H 0.87733 0.3067 0.7551 0.0
C187 C 0.71702 0.27 0.78321 0.0
C188 C 0.73988 0.29466 0.79461 0.0
H189 H 0.83727 0.38631 0.82491 0.0
H190 H 0.78502 0.35849 0.82321 0.0
H191 H 0.81817 0.30992 0.69931 0.0
H192 H 0.83725 0.23909 0.78857 0.0
H193 H 0.82542 0.21553 0.74916 0.0
H194 H 0.86162 0.24138 0.7475 0.0
H195 H 0.84702 0.27555 0.69477 0.0
H196 H 0.80452 0.26916 0.68518 0.0
C197 C 0.72268 0.35619 0.80926 0.0
C198 C 0.74336 0.31498 0.86127 0.0
C199 C 0.72299 0.17284 0.68807 0.0
C200 C 0.74817 0.16055 0.66537 0.0
C201 C 0.77897 0.17596 0.6678 0.0
C202 C 0.78469 0.20342 0.69223 0.0
C203 C 0.75933 0.21571 0.71463 0.0
C204 C 0.72911 0.20035 0.71248 0.0
C205 C 0.70534 0.21639 0.73911 0.0
C206 C 0.72584 0.24471 0.75644 0.0
C207 C 0.75758 0.24405 0.74214 0.0
C208 C 0.67672 0.23138 0.7167 0.0
C209 C 0.69538 0.18856 0.7677 0.0
C210 C 0.85726 0.31773 0.77036 0.0
C211 C 0.86147 0.34832 0.7909 0.0
C212 C 0.83466 0.36256 0.80945 0.0
C213 C 0.80432 0.34642 0.80822 0.0
C214 C 0.80042 0.31594 0.78763 0.0
C215 C 0.82643 0.30247 0.76845 0.0
C216 C 0.81669 0.27201 0.74496 0.0
C217 C 0.78088 0.26862 0.7545 0.0
C218 C 0.77178 0.29413 0.77999 0.0
C219 C 0.82199 0.2818 0.70387 0.0
C220 C 0.83631 0.2402 0.75788 0.0
H221 H 0.65092 0.23753 0.78883 0.0
H222 H 0.6744 0.3363 0.87191 0.0
H223 H 0.73782 0.28961 0.87424 0.0
H224 H 0.76998 0.31576 0.85897 0.0
H225 H 0.73551 0.33546 0.88076 0.0
H226 H 0.69974 0.36012 0.79367 0.0
H227 H 0.72287 0.37499 0.83239 0.0
H228 H 0.742 0.36302 0.78932 0.0
H229 H 0.69916 0.16121 0.68685 0.0
H230 H 0.79862 0.16674 0.65059 0.0
H231 H 0.80868 0.21402 0.69276 0.0
H232 H 0.68574 0.24516 0.69174 0.0
H233 H 0.66017 0.21055 0.70735 0.0
H234 H 0.66253 0.25059 0.7323 0.0
H235 H 0.7159 0.17078 0.77366 0.0
H236 H 0.68882 0.19959 0.79479 0.0
H237 H 0.6749 0.17272 0.75734 0.0
H238 H 0.61079 0.25553 0.8341 0.0
C239 C 0.65683 0.25903 0.80621 0.0
C240 C 0.80434 0.82208 0.66046 0.0
C241 C 0.78644 0.85279 0.66012 0.0
C242 C 0.76114 0.85755 0.68561 0.0
C243 C 0.77066 0.80033 0.71031 0.0
C244 C 0.79591 0.79618 0.68561 0.0
C245 C 0.81147 0.76129 0.68864 0.0
H246 H 0.82453 0.60692 0.77378 0.0
C247 C 0.76753 0.76801 0.73168 0.0
C248 C 0.79127 0.74504 0.7191 0.0
H249 H 0.88253 0.64898 0.68519 0.0
H250 H 0.84846 0.69926 0.68259 0.0
H251 H 0.81727 0.67768 0.81968 0.0
H252 H 0.7518 0.63449 0.7387 0.0
H253 H 0.72986 0.64872 0.7776 0.0
H254 H 0.75875 0.61417 0.78262 0.0
H255 H 0.79527 0.63843 0.8281 0.0
H256 H 0.77705 0.67999 0.83597 0.0
C257 C 0.84719 0.76671 0.70061 0.0
C258 C 0.80709 0.7424 0.65118 0.0
C259 C 0.67873 0.75867 0.82756 0.0
C260 C 0.66908 0.73258 0.85192 0.0
C261 C 0.68656 0.70134 0.85294 0.0
C262 C 0.71329 0.69608 0.8294 0.0
C263 C 0.72253 0.7224 0.80469 0.0
C264 C 0.70535 0.75311 0.8044 0.0
C265 C 0.71828 0.77841 0.77678 0.0
C266 C 0.74586 0.7579 0.76008 0.0
C267 C 0.74842 0.72498 0.77627 0.0
C268 C 0.73058 0.81056 0.79806 0.0
C269 C 0.6912 0.78592 0.74819 0.0
C270 C 0.8292 0.62684 0.75345 0.0
C271 C 0.85607 0.6243 0.7295 0.0
C272 C 0.8619 0.6506 0.70365 0.0
C273 C 0.84223 0.67987 0.70249 0.0
C274 C 0.81648 0.68313 0.72766 0.0
C275 C 0.80975 0.65667 0.75215 0.0
C276 C 0.78133 0.66536 0.77688 0.0
C277 C 0.77279 0.70161 0.76365 0.0
C278 C 0.79373 0.71166 0.73493 0.0
C279 C 0.79307 0.66522 0.81742 0.0
C280 C 0.7539 0.6393 0.76889 0.0
H281 H 0.73337 0.83642 0.72928 0.0
H282 H 0.82381 0.81799 0.64085 0.0
H283 H 0.78442 0.7507 0.6371 0.0
H284 H 0.80442 0.71416 0.65435 0.0
H285 H 0.82757 0.74788 0.63214 0.0
H286 H 0.84939 0.789 0.71981 0.0
H287 H 0.86295 0.77205 0.67638 0.0
H288 H 0.85722 0.74466 0.71619 0.0
H289 H 0.66558 0.78286 0.82638 0.0
H290 H 0.67927 0.68096 0.87169 0.0
H291 H 0.72565 0.67178 0.83122 0.0
H292 H 0.74038 0.80323 0.82561 0.0
H293 H 0.71072 0.82942 0.80267 0.0
H294 H 0.75095 0.82368 0.78406 0.0
H295 H 0.67632 0.76247 0.74302 0.0
H296 H 0.70068 0.79323 0.72074 0.0
H297 H 0.67464 0.80651 0.75815 0.0
H298 H 0.74716 0.88122 0.68544 0.0
C299 C 0.75317 0.83147 0.71081 0.0
C300 C 0.79972 0.19394 0.3578 0.0
C301 C 0.78182 0.16326 0.35867 0.0
C302 C 0.75577 0.15866 0.3342 0.0
C303 C 0.76503 0.21571 0.30895 0.0
C304 C 0.79081 0.21982 0.33288 0.0
C305 C 0.8067 0.25445 0.32894 0.0
H306 H 0.82083 0.40646 0.23944 0.0
C307 C 0.76195 0.24771 0.28708 0.0
C308 C 0.78619 0.27051 0.29869 0.0
H309 H 0.87916 0.36593 0.32842 0.0
H310 H 0.84429 0.31637 0.3333 0.0
H311 H 0.74829 0.38159 0.27617 0.0
H312 H 0.8129 0.33543 0.19621 0.0
H313 H 0.77273 0.33186 0.18036 0.0
H314 H 0.79036 0.374 0.18627 0.0
H315 H 0.75488 0.40015 0.23129 0.0
H316 H 0.72565 0.36625 0.2384 0.0
C317 C 0.8031 0.27392 0.36617 0.0
C318 C 0.84217 0.24841 0.31628 0.0
C319 C 0.67299 0.25662 0.19146 0.0
C320 C 0.66413 0.28221 0.16612 0.0
C321 C 0.6822 0.31299 0.16419 0.0
C322 C 0.70881 0.31831 0.18774 0.0
C323 C 0.71737 0.29247 0.21329 0.0
C324 C 0.6996 0.26219 0.21455 0.0
C325 C 0.7122 0.23724 0.24274 0.0
C326 C 0.74022 0.25754 0.25868 0.0
C327 C 0.74323 0.29001 0.24158 0.0
C328 C 0.68515 0.23099 0.27175 0.0
C329 C 0.72377 0.20432 0.22223 0.0
C330 C 0.8254 0.38708 0.26037 0.0
C331 C 0.85255 0.38975 0.28373 0.0
C332 C 0.85829 0.36415 0.31039 0.0
C333 C 0.83816 0.3353 0.31288 0.0
C334 C 0.81215 0.33181 0.28817 0.0
C335 C 0.80556 0.3577 0.26296 0.0
C336 C 0.77694 0.34886 0.23878 0.0
C337 C 0.76799 0.31319 0.25327 0.0
C338 C 0.78896 0.30349 0.28201 0.0
C339 C 0.74993 0.37562 0.24617 0.0
C340 C 0.78855 0.34762 0.19815 0.0
H341 H 0.72701 0.1799 0.29148 0.0
H342 H 0.81976 0.19789 0.37663 0.0
H343 H 0.84376 0.22605 0.29711 0.0
H344 H 0.85231 0.27025 0.30047 0.0
H345 H 0.85816 0.24286 0.34022 0.0
H346 H 0.78064 0.26603 0.38097 0.0
H347 H 0.82388 0.26856 0.38478 0.0
H348 H 0.80056 0.30214 0.36256 0.0
H349 H 0.65939 0.23276 0.19326 0.0
H350 H 0.67549 0.33296 0.14467 0.0
H351 H 0.72167 0.34225 0.18517 0.0
H352 H 0.67124 0.2551 0.27699 0.0
H353 H 0.66774 0.21111 0.2621 0.0
H354 H 0.69463 0.22333 0.29906 0.0
H355 H 0.73309 0.21067 0.19418 0.0
H356 H 0.74429 0.19139 0.23611 0.0
H357 H 0.70365 0.18557 0.21883 0.0
H358 H 0.74176 0.13502 0.33484 0.0
C359 C 0.74726 0.18475 0.30926 0.0
C360 C 0.30049 0.17167 0.67789 0.0
C361 C 0.28125 0.16683 0.64658 0.0
C362 C 0.25585 0.18998 0.63892 0.0
C363 C 0.26844 0.2218 0.69471 0.0
C364 C 0.29353 0.19905 0.70159 0.0
C365 C 0.31082 0.2067 0.73694 0.0
H366 H 0.33365 0.30655 0.88659 0.0
C367 C 0.26747 0.24684 0.72549 0.0
C368 C 0.2922 0.23804 0.75021 0.0
H369 H 0.38528 0.21486 0.85292 0.0
H370 H 0.35017 0.20839 0.80071 0.0
H371 H 0.25936 0.27465 0.86609 0.0
H372 H 0.32504 0.33978 0.80417 0.0
H373 H 0.28534 0.35639 0.80139 0.0
H374 H 0.30533 0.35446 0.84554 0.0
H375 H 0.26866 0.31793 0.88027 0.0
H376 H 0.23788 0.30931 0.84628 0.0
C377 C 0.30637 0.17524 0.76315 0.0
C378 C 0.34652 0.21556 0.72727 0.0
C379 C 0.18133 0.34004 0.72668 0.0
C380 C 0.17387 0.36675 0.75128 0.0
C381 C 0.19366 0.37205 0.78244 0.0
C382 C 0.22036 0.35041 0.78938 0.0
C383 C 0.22723 0.3232 0.76488 0.0
C384 C 0.20798 0.31873 0.73392 0.0
C385 C 0.21865 0.28874 0.71074 0.0
C386 C 0.24717 0.27554 0.73297 0.0
C387 C 0.25219 0.29562 0.76487 0.0
C388 C 0.1906 0.26218 0.70947 0.0
C389 C 0.22922 0.30276 0.67247 0.0
C390 C 0.33684 0.28501 0.86793 0.0
C391 C 0.36208 0.26103 0.87347 0.0
C392 C 0.3659 0.23338 0.84893 0.0
C393 C 0.34552 0.22982 0.81855 0.0
C394 C 0.32093 0.25422 0.81248 0.0
C395 C 0.31639 0.28099 0.83712 0.0
C396 C 0.28836 0.30387 0.82577 0.0
C397 C 0.27752 0.28666 0.78997 0.0
C398 C 0.29701 0.25778 0.7826 0.0
C399 C 0.2621 0.30167 0.85615 0.0
C400 C 0.30144 0.34072 0.81901 0.0
H401 H 0.22951 0.23424 0.65586 0.0
H402 H 0.32 0.15392 0.68426 0.0
H403 H 0.34808 0.22963 0.7005 0.0
H404 H 0.358 0.23306 0.74742 0.0
H405 H 0.36141 0.1918 0.72473 0.0
H406 H 0.28362 0.16094 0.75698 0.0
H407 H 0.32674 0.15669 0.76043 0.0
H408 H 0.30382 0.18281 0.79246 0.0
H409 H 0.16632 0.33549 0.70264 0.0
H410 H 0.18804 0.39255 0.80172 0.0
H411 H 0.23444 0.35546 0.81367 0.0
H412 H 0.17766 0.26109 0.73643 0.0
H413 H 0.17258 0.26917 0.68795 0.0
H414 H 0.19899 0.23552 0.70459 0.0
H415 H 0.24082 0.32856 0.6751 0.0
H416 H 0.24771 0.2865 0.65895 0.0
H417 H 0.2081 0.3056 0.65371 0.0
H418 H 0.24081 0.18632 0.61474 0.0
C419 C 0.24936 0.21758 0.66284 0.0
C420 C 0.17974 0.66795 0.27935 0.0
C421 C 0.17163 0.64335 0.25271 0.0
C422 C 0.19084 0.64018 0.22068 0.0
C423 C 0.22486 0.68744 0.24143 0.0
C424 C 0.20639 0.68946 0.2733 0.0
C425 C 0.21763 0.71739 0.2988 0.0
H426 H 0.31674 0.8516 0.33366 0.0
C427 C 0.24985 0.71488 0.24319 0.0
C428 C 0.24577 0.73211 0.27704 0.0
H429 H 0.23735 0.81387 0.39992 0.0
H430 H 0.22877 0.76692 0.35713 0.0
H431 H 0.28103 0.84719 0.26109 0.0
H432 H 0.34705 0.77568 0.31128 0.0
H433 H 0.35621 0.77577 0.26394 0.0
H434 H 0.35994 0.81522 0.29006 0.0
H435 H 0.32407 0.85336 0.25965 0.0
H436 H 0.30301 0.8293 0.2244 0.0
C437 C 0.18969 0.74389 0.30322 0.0
C438 C 0.2289 0.70025 0.33533 0.0
C439 C 0.33004 0.73467 0.13751 0.0
C440 C 0.35655 0.75733 0.13397 0.0
C441 C 0.36215 0.78229 0.16126 0.0
C442 C 0.34249 0.78399 0.19258 0.0
C443 C 0.31701 0.76027 0.19684 0.0
C444 C 0.31074 0.73637 0.16946 0.0
C445 C 0.28325 0.71253 0.1799 0.0
C446 C 0.27428 0.7261 0.21803 0.0
C447 C 0.29429 0.75403 0.22753 0.0
C448 C 0.25559 0.71773 0.1517 0.0
C449 C 0.29645 0.67518 0.18163 0.0
C450 C 0.29813 0.83256 0.33917 0.0
C451 C 0.27776 0.83582 0.36991 0.0
C452 C 0.25328 0.81134 0.37627 0.0
C453 C 0.24825 0.78439 0.35126 0.0
C454 C 0.26767 0.78237 0.31939 0.0
C455 C 0.29234 0.80596 0.31403 0.0
C456 C 0.30925 0.80109 0.27771 0.0
C457 C 0.29057 0.77076 0.26204 0.0
C458 C 0.26644 0.75984 0.28661 0.0
C459 C 0.30445 0.83439 0.25438 0.0
C460 C 0.34506 0.79168 0.28583 0.0
H461 H 0.23095 0.65903 0.18974 0.0
H462 H 0.16517 0.67083 0.30408 0.0
H463 H 0.24045 0.67479 0.32994 0.0
H464 H 0.24764 0.71532 0.34989 0.0
H465 H 0.20813 0.69581 0.35427 0.0
H466 H 0.17506 0.74581 0.27749 0.0
H467 H 0.17303 0.73634 0.32595 0.0
H468 H 0.19837 0.77045 0.30811 0.0
H469 H 0.32571 0.71491 0.11697 0.0
H470 H 0.38259 0.79971 0.1589 0.0
H471 H 0.34849 0.80321 0.21268 0.0
H472 H 0.25187 0.74568 0.14599 0.0
H473 H 0.26139 0.70488 0.12509 0.0
H474 H 0.23203 0.70809 0.1617 0.0
H475 H 0.32143 0.67476 0.19315 0.0
H476 H 0.28215 0.65835 0.20007 0.0
H477 H 0.29737 0.66343 0.15368 0.0
H478 H 0.18465 0.62131 0.19981 0.0
C479 C 0.21745 0.6622 0.21484 0.0
C480 C 0.95888 0.48642 0.26933 0.0
C481 C 0.05396 0.56316 0.26524 0.0
O482 O 0.9742 0.49769 0.29741 0.0
Zn483 Zn 1.00596 0.52559 0.27063 0.0
O484 O 0.96806 0.49511 0.23688 0.0
Zn485 Zn 1.00586 0.52328 0.21086 0.0
O486 O 0.02944 0.48442 0.18785 0.0
O487 O 0.03537 0.48637 0.24806 0.0
O488 O 0.04391 0.553 0.23368 0.0
O489 O 0.03876 0.55441 0.29445 0.0
O490 O 0.97524 0.56212 0.24463 0.0
O491 O 0.9817 0.55959 0.18462 0.0
C492 C 0.042 0.47205 0.21722 0.0
C493 C 0.96813 0.57354 0.21248 0.0
C494 C 0.97467 0.43653 0.79044 0.0
C495 C 0.04625 0.5404 0.78838 0.0
O496 O 0.98458 0.45261 0.819 0.0
Zn497 Zn 0.00979 0.48889 0.79372 0.0
O498 O 0.98243 0.44869 0.7588 0.0
Zn499 Zn 0.01052 0.48798 0.73368 0.0
O500 O 0.04382 0.46081 0.70866 0.0
O501 O 0.04784 0.45903 0.76963 0.0
O502 O 0.03975 0.52664 0.75724 0.0
O503 O 0.03354 0.52745 0.81741 0.0
O504 O 0.972 0.51711 0.76889 0.0
O505 O 0.97741 0.51593 0.70835 0.0
C506 C 0.05834 0.45033 0.73767 0.0
C507 C 0.9623 0.52645 0.73693 0.0
C508 C 0.2342 0.96523 0.55779 0.0
C509 C 0.2362 0.05326 0.45756 0.0
O510 O 0.20954 0.98089 0.54475 0.0
Zn511 Zn 0.23268 0.00866 0.50775 0.0
O512 O 0.26249 0.97213 0.5451 0.0
Zn513 Zn 0.28455 1.0055 0.5044 0.0
O514 O 0.3114 0.03494 0.53448 0.0
O515 O 0.25866 0.04325 0.54216 0.0
O516 O 0.26417 0.04235 0.4673 0.0
O517 O 0.21108 0.04047 0.4728 0.0
O518 O 0.25069 0.96872 0.47326 0.0
O519 O 0.30402 0.9728 0.47096 0.0
C520 C 0.28805 0.05095 0.54972 0.0
C521 C 0.27797 0.95792 0.46109 0.0
C522 C 0.54522 0.70004 0.04305 0.0
C523 C 0.47006 0.69654 0.93657 0.0
O524 O 0.53372 0.67287 0.02815 0.0
Zn525 Zn 0.50932 0.69474 0.98781 0.0
O526 O 0.53863 0.72939 0.02887 0.0
Zn527 Zn 0.50926 0.75068 0.98669 0.0
O528 O 0.47699 0.77463 0.01738 0.0
O529 O 0.47228 0.71801 0.01921 0.0
O530 O 0.47828 0.72677 0.94719 0.0
O531 O 0.48257 0.67001 0.9518 0.0
O532 O 0.54592 0.71695 0.95425 0.0
O533 O 0.54161 0.77385 0.9561 0.0
C534 C 0.46249 0.74775 0.02933 0.0
C535 C 0.5559 0.74683 0.94444 0.0
C536 C 0.79445 0.96125 0.55308 0.0
C537 C 0.7937 0.05305 0.46282 0.0
O538 O 0.7657 0.96995 0.54358 0.0
Zn539 Zn 0.74303 1.00642 0.50771 0.0
O540 O 0.81889 0.97631 0.53911 0.0
Zn541 Zn 0.79473 1.00701 0.50773 0.0
O542 O 0.77245 0.04163 0.54694 0.0
O543 O 0.71938 0.03604 0.5422 0.0
O544 O 0.81842 0.03838 0.47659 0.0
O545 O 0.76511 0.04363 0.4722 0.0
O546 O 0.72021 0.9764 0.47297 0.0
O547 O 0.77339 0.97212 0.46822 0.0
C548 C 0.74383 0.05035 0.55712 0.0
C549 C 0.74499 0.96283 0.45791 0.0
C550 C 0.55294 0.26941 0.07093 0.0
C551 C 0.46415 0.26665 0.98185 0.0
O552 O 0.539 0.24252 0.05861 0.0
Zn553 Zn 0.5082 0.26601 0.02676 0.0
O554 O 0.54339 0.29938 0.06077 0.0
Zn555 Zn 0.50817 0.32165 0.02499 0.0
O556 O 0.48003 0.34659 0.05933 0.0
O557 O 0.47587 0.28994 0.06473 0.0
O558 O 0.4736 0.29713 0.99007 0.0
O559 O 0.47776 0.24047 0.9964 0.0
O560 O 0.53939 0.28834 0.98619 0.0
O561 O 0.5354 0.34521 0.98853 0.0
C562 C 0.46731 0.32027 0.07464 0.0
C563 C 0.54751 0.31816 0.97409 0.0
C564 C 0.10456 0.40227 0.19048 0.0
C565 C 0.1095 0.38627 0.22537 0.0
C566 C 0.06444 0.41975 0.25017 0.0
C567 C 0.06356 0.44075 0.21768 0.0
N568 N 0.08972 0.45512 0.15946 0.0
N569 N 0.09943 0.38811 0.29117 0.0
C570 C 0.08537 0.43283 0.18828 0.0
C571 C 0.09099 0.39738 0.25603 0.0
N572 N 0.11769 0.38817 0.15934 0.0
N573 N 0.03964 0.41998 0.2752 0.0
H574 H 0.12004 0.37366 0.29729 0.0
H575 H 0.08806 0.39838 0.31443 0.0
H576 H 0.0183 0.43379 0.2716 0.0
H577 H 0.03863 0.40282 0.2974 0.0
H578 H 0.1124 0.39726 0.13291 0.0
H579 H 0.13094 0.36524 0.15972 0.0
H580 H 0.10753 0.45147 0.13942 0.0
H581 H 0.0786 0.47915 0.15772 0.0
C582 C 0.10811 0.61028 0.81707 0.0
C583 C 0.11323 0.62704 0.78259 0.0
C584 C 0.06885 0.59336 0.75655 0.0
C585 C 0.06775 0.57182 0.78864 0.0
N586 N 0.09347 0.55669 0.84681 0.0
N587 N 0.10399 0.62614 0.71666 0.0
C588 C 0.08922 0.57945 0.8184 0.0
C589 C 0.09524 0.61614 0.75148 0.0
N590 N 0.12069 0.62397 0.84868 0.0
N591 N 0.04432 0.59338 0.73122 0.0
H592 H 0.1245 0.64099 0.71115 0.0
H593 H 0.09304 0.61613 0.69304 0.0
H594 H 0.02299 0.57946 0.73435 0.0
H595 H 0.04345 0.61088 0.70933 0.0
H596 H 0.1152 0.6143 0.87484 0.0
H597 H 0.13362 0.64708 0.849 0.0
H598 H 0.11104 0.56016 0.86714 0.0
H599 H 0.08256 0.53253 0.84792 0.0
C600 C 0.90681 0.63952 0.24502 0.0
C601 C 0.88918 0.64772 0.21266 0.0
C602 C 0.92356 0.60753 0.17777 0.0
C603 C 0.94345 0.60215 0.20958 0.0
N604 N 0.9599 0.62711 0.26836 0.0
N605 N 0.88897 0.64835 0.14597 0.0
C606 C 0.93706 0.62268 0.24155 0.0
C607 C 0.90035 0.63473 0.17824 0.0
N608 N 0.8943 0.64576 0.27931 0.0
N609 N 0.9246 0.58588 0.14806 0.0
H610 H 0.87296 0.66919 0.14534 0.0
H611 H 0.89837 0.64154 0.12025 0.0
H612 H 0.93868 0.56374 0.14658 0.0
H613 H 0.90821 0.58777 0.12626 0.0
H614 H 0.90574 0.63738 0.30339 0.0
H615 H 0.87102 0.65533 0.28366 0.0
H616 H 0.95643 0.64371 0.29068 0.0
H617 H 0.98358 0.61827 0.26578 0.0
C618 C 0.90716 0.37857 0.75799 0.0
C619 C 0.89334 0.36665 0.79148 0.0
C620 C 0.93863 0.39317 0.82577 0.0
C621 C 0.95139 0.40637 0.79205 0.0
N622 N 0.95724 0.39171 0.72725 0.0
N623 N 0.90031 0.35761 0.8575 0.0
C624 C 0.93861 0.39306 0.7584 0.0
C625 C 0.91023 0.37235 0.82525 0.0
N626 N 0.88995 0.37765 0.72578 0.0
N627 N 0.95446 0.39823 0.85839 0.0
H628 H 0.88073 0.34071 0.85973 0.0
H629 H 0.88073 0.34071 0.85973 0.0
H630 H 0.97804 0.40762 0.85988 0.0
H631 H 0.94499 0.39005 0.88368 0.0
H632 H 0.8983 0.38917 0.70151 0.0
H633 H 0.86612 0.3689 0.72415 0.0
H634 H 0.94936 0.38009 0.7029 0.0
H635 H 0.98201 0.39683 0.7275 0.0
C636 C 0.22845 0.14309 0.4141 0.0
C637 C 0.23737 0.13623 0.37687 0.0
C638 C 0.24541 0.07518 0.39251 0.0
C639 C 0.23413 0.08128 0.42911 0.0
N640 N 0.21087 0.12058 0.4735 0.0
N641 N 0.24604 0.09434 0.32879 0.0
C642 C 0.22401 0.11505 0.43935 0.0
C643 C 0.24322 0.10179 0.36555 0.0
N644 N 0.22614 0.17648 0.42599 0.0
N645 N 0.25945 0.04438 0.3836 0.0
H646 H 0.244 0.11308 0.30819 0.0
H647 H 0.24698 0.06923 0.31859 0.0
H648 H 0.26219 0.02433 0.4024 0.0
H649 H 0.27125 0.03995 0.3586 0.0
H650 H 0.22344 0.18333 0.45361 0.0
H651 H 0.22959 0.19765 0.40863 0.0
H652 H 0.19969 0.1436 0.48107 0.0
H653 H 0.20912 0.1014 0.49362 0.0
C654 C 0.42011 0.69104 0.84793 0.0
C655 C 0.38968 0.70258 0.86153 0.0
C656 C 0.41093 0.70193 0.92474 0.0
C657 C 0.44217 0.69378 0.91091 0.0
N658 N 0.47778 0.68359 0.85942 0.0
N659 N 0.35747 0.72467 0.91186 0.0
C660 C 0.44713 0.68902 0.87247 0.0
C661 C 0.38549 0.70962 0.89969 0.0
N662 N 0.42293 0.68131 0.81181 0.0
N663 N 0.40542 0.70148 0.96199 0.0
H664 H 0.33825 0.73084 0.89436 0.0
H665 H 0.35437 0.73396 0.9386 0.0
H666 H 0.42329 0.69486 0.98105 0.0
H667 H 0.38255 0.70408 0.9738 0.0
H668 H 0.4434 0.66929 0.801 0.0
H669 H 0.40386 0.6833 0.79303 0.0
H670 H 0.48376 0.68389 0.83149 0.0
H671 H 0.49769 0.68057 0.87687 0.0
C672 C 0.7505 0.9182 0.36386 0.0
C673 C 0.74477 0.88336 0.37418 0.0
C674 C 0.73273 0.90192 0.43784 0.0
C675 C 0.74177 0.9362 0.42838 0.0
N676 N 0.76021 0.97739 0.38312 0.0
N677 N 0.7323 0.84117 0.42098 0.0
C678 C 0.7508 0.94445 0.39151 0.0
C679 C 0.73609 0.87503 0.41114 0.0
N680 N 0.75509 0.92618 0.32741 0.0
N681 N 0.72098 0.89509 0.47242 0.0
H682 H 0.73353 0.82097 0.40201 0.0
H683 H 0.72983 0.83271 0.44812 0.0
H684 H 0.7194 0.91375 0.49307 0.0
H685 H 0.71081 0.87161 0.48016 0.0
H686 H 0.75614 0.95126 0.31722 0.0
H687 H 0.75553 0.90756 0.30663 0.0
H688 H 0.77097 0.98446 0.35824 0.0
H689 H 0.75856 0.99772 0.40189 0.0
C690 C 0.62472 0.29698 0.92365 0.0
C691 C 0.61663 0.30589 0.88672 0.0
C692 C 0.56394 0.32814 0.90776 0.0
C693 C 0.57253 0.31987 0.94468 0.0
N694 N 0.61388 0.30546 0.98882 0.0
N695 N 0.58169 0.33603 0.84425 0.0
C696 C 0.60387 0.30716 0.95289 0.0
C697 C 0.58715 0.3234 0.87896 0.0
N698 N 0.65153 0.2773 0.9307 0.0
N699 N 0.53324 0.3392 0.90009 0.0
H700 H 0.5981 0.33278 0.82259 0.0
H701 H 0.56225 0.35197 0.83758 0.0
H702 H 0.51612 0.34408 0.92064 0.0
H703 H 0.52413 0.34169 0.87342 0.0
H704 H 0.65661 0.26678 0.95654 0.0
H705 H 0.66732 0.26884 0.91011 0.0
H706 H 0.6376 0.29982 0.99651 0.0
H707 H 0.59923 0.31319 0.01082 0.0
C708 C 0.24306 0.87696 0.60283 0.0
C709 C 0.23589 0.88462 0.64032 0.0
C710 C 0.22441 0.94503 0.62336 0.0
C711 C 0.23096 0.93713 0.58579 0.0
N712 N 0.24002 0.89457 0.53849 0.0
N713 N 0.21449 0.92389 0.68568 0.0
C714 C 0.23834 0.90273 0.57519 0.0
C715 C 0.22483 0.91806 0.65035 0.0
N716 N 0.25529 0.84526 0.59379 0.0
N717 N 0.21933 0.97857 0.63347 0.0
H718 H 0.21521 0.90498 0.70621 0.0
H719 H 0.20303 0.94649 0.69404 0.0
H720 H 0.2181 0.99872 0.61439 0.0
H721 H 0.2183 0.98685 0.66078 0.0
H722 H 0.26483 0.83932 0.56795 0.0
H723 H 0.25785 0.82527 0.61289 0.0
H724 H 0.24227 0.8695 0.52855 0.0
H725 H 0.23621 0.91268 0.5176 0.0
C726 C 0.57322 0.71644 0.14243 0.0
C727 C 0.6038 0.70028 0.14221 0.0
C728 C 0.59083 0.67516 0.08184 0.0
C729 C 0.56448 0.69864 0.07804 0.0
N730 N 0.53168 0.74386 0.10682 0.0
N731 N 0.62355 0.64394 0.12587 0.0
C732 C 0.55579 0.71979 0.10894 0.0
C733 C 0.60789 0.67349 0.11595 0.0
N734 N 0.55875 0.72401 0.17532 0.0
N735 N 0.60107 0.65587 0.05254 0.0
H736 H 0.63086 0.63968 0.15312 0.0
H737 H 0.62473 0.62224 0.10894 0.0
H738 H 0.59056 0.65728 0.02643 0.0
H739 H 0.62213 0.64101 0.05346 0.0
H740 H 0.53488 0.73263 0.17739 0.0
H741 H 0.56938 0.717 0.20042 0.0
H742 H 0.52753 0.76173 0.12783 0.0
H743 H 0.51741 0.74818 0.08371 0.0
C744 C 0.74895 0.09708 0.64996 0.0
C745 C 0.74274 0.13158 0.63876 0.0
C746 C 0.73036 0.11135 0.57581 0.0
C747 C 0.74001 0.07745 0.58605 0.0
N748 N 0.75927 0.03758 0.63217 0.0
N749 N 0.72904 0.17245 0.59111 0.0
C750 C 0.74936 0.07018 0.62304 0.0
C751 C 0.73353 0.1389 0.60175 0.0
N752 N 0.75402 0.09006 0.68654 0.0
N753 N 0.71828 0.11718 0.5412 0.0
H754 H 0.72992 0.19307 0.60957 0.0
H755 H 0.72621 0.18027 0.5638 0.0
H756 H 0.71685 0.09805 0.52106 0.0
H757 H 0.70771 0.14031 0.53295 0.0
H758 H 0.75548 0.06524 0.69741 0.0
H759 H 0.75445 0.10918 0.70678 0.0
H760 H 0.77027 0.03122 0.65711 0.0
H761 H 0.75778 0.01681 0.61394 0.0
C762 C 0.38333 0.30739 0.11342 0.0
C763 C 0.38777 0.31638 0.15106 0.0
C764 C 0.44482 0.33048 0.13849 0.0
C765 C 0.43962 0.32346 0.10051 0.0
N766 N 0.4026 0.31271 0.05047 0.0
N767 N 0.42104 0.34085 0.19897 0.0
C768 C 0.40843 0.31415 0.08761 0.0
C769 C 0.41809 0.32919 0.16352 0.0
N770 N 0.35543 0.29131 0.10254 0.0
N771 N 0.47544 0.33742 0.15071 0.0
H772 H 0.40217 0.33949 0.21811 0.0
H773 H 0.44136 0.35382 0.20876 0.0
H774 H 0.49511 0.34008 0.13281 0.0
H775 H 0.4817 0.33877 0.17851 0.0
H776 H 0.35225 0.28069 0.07639 0.0
H777 H 0.33647 0.2857 0.12064 0.0
H778 H 0.37959 0.30956 0.0392 0.0
H779 H 0.42035 0.31805 0.03074 0.0
C780 C 0.90635 0.60201 0.75936 0.0
C781 C 0.88089 0.59678 0.73382 0.0
C782 C 0.90712 0.54351 0.71219 0.0
C783 C 0.93447 0.55096 0.73467 0.0
N784 N 0.96194 0.59072 0.77578 0.0
N785 N 0.85788 0.56476 0.68332 0.0
C786 C 0.93447 0.58101 0.7574 0.0
C787 C 0.88153 0.56815 0.70944 0.0
N788 N 0.90371 0.62716 0.7857 0.0
N789 N 0.90473 0.51221 0.69505 0.0
H790 H 0.83795 0.58128 0.68184 0.0
H791 H 0.859 0.54693 0.66186 0.0
H792 H 0.9224 0.4931 0.69724 0.0
H793 H 0.88393 0.50389 0.68147 0.0
H794 H 0.91947 0.6293 0.80803 0.0
H795 H 0.88422 0.64421 0.78724 0.0
H796 H 0.96468 0.61462 0.7885 0.0
H797 H 0.98325 0.57649 0.77581 0.0
C798 C 0.87881 0.44617 0.30083 0.0
C799 C 0.87764 0.41661 0.27782 0.0
C800 C 0.93048 0.43145 0.25148 0.0
C801 C 0.931 0.46227 0.27297 0.0
N802 N 0.90216 0.50265 0.31169 0.0
N803 N 0.89916 0.38405 0.22665 0.0
C804 C 0.90423 0.47064 0.29602 0.0
C805 C 0.90243 0.41031 0.25162 0.0
N806 N 0.85581 0.45061 0.32759 0.0
N807 N 0.95737 0.42123 0.23227 0.0
H808 H 0.8798 0.3668 0.22678 0.0
H809 H 0.91427 0.38101 0.20383 0.0
H810 H 0.97849 0.43568 0.23037 0.0
H811 H 0.9599 0.39686 0.22054 0.0
H812 H 0.85745 0.46929 0.34815 0.0
H813 H 0.83597 0.43415 0.33058 0.0
H814 H 0.8817 0.51149 0.32561 0.0
H815 H 0.91962 0.52175 0.30782 0.0
C816 C 0.14544 0.41899 0.72529 0.0
C817 C 0.14401 0.38761 0.74552 0.0
C818 C 0.0852 0.39421 0.75239 0.0
C819 C 0.08714 0.4274 0.73587 0.0
N820 N 0.11938 0.47334 0.70999 0.0
N821 N 0.11345 0.34635 0.78123 0.0
C822 C 0.11729 0.44022 0.72284 0.0
C823 C 0.11409 0.37542 0.75975 0.0
N824 N 0.17364 0.42827 0.70812 0.0
N825 N 0.05552 0.38034 0.76027 0.0
H826 H 0.13392 0.33134 0.78645 0.0
H827 H 0.09319 0.33835 0.79609 0.0
H828 H 0.0339 0.39339 0.75515 0.0
H829 H 0.05204 0.35493 0.76873 0.0
H830 H 0.1754 0.44879 0.68964 0.0
H831 H 0.1949 0.41383 0.71024 0.0
H832 H 0.14123 0.48566 0.70424 0.0
H833 H 0.09932 0.48951 0.70738 0.0
C834 C 0.14105 0.59324 0.28013 0.0
C835 C 0.14138 0.62302 0.25724 0.0
C836 C 0.08307 0.61688 0.24626 0.0
C837 C 0.08328 0.58529 0.26627 0.0
N838 N 0.11307 0.54081 0.29826 0.0
N839 N 0.11376 0.66238 0.21632 0.0
C840 C 0.11236 0.57291 0.28252 0.0
C841 C 0.11265 0.63464 0.23974 0.0
N842 N 0.16817 0.58451 0.29969 0.0
N843 N 0.05431 0.63036 0.2343 0.0
H844 H 0.13448 0.6773 0.21231 0.0
H845 H 0.09479 0.66949 0.199 0.0
H846 H 0.03226 0.6178 0.23789 0.0
H847 H 0.05176 0.65508 0.22342 0.0
H848 H 0.16846 0.56561 0.32016 0.0
H849 H 0.19006 0.59777 0.29722 0.0
H850 H 0.13428 0.52856 0.30661 0.0
H851 H 0.09265 0.52513 0.30063 0.0
C852 C 0.80823 0.91054 0.64143 0.0
C853 C 0.79271 0.87925 0.63156 0.0
C854 C 0.78751 0.89923 0.56778 0.0
C855 C 0.79841 0.93224 0.57894 0.0
N856 N 0.81748 0.97076 0.62643 0.0
N857 N 0.76448 0.84455 0.58648 0.0
C858 C 0.80874 0.93827 0.6157 0.0
C859 C 0.78176 0.8736 0.59493 0.0
N860 N 0.82276 0.91351 0.67518 0.0
N861 N 0.78314 0.89235 0.53109 0.0
H862 H 0.75966 0.82502 0.60555 0.0
H863 H 0.75267 0.84101 0.56137 0.0
H864 H 0.7876 0.91058 0.51046 0.0
H865 H 0.7782 0.86781 0.52084 0.0
H866 H 0.83718 0.93439 0.68269 0.0
H867 H 0.82268 0.89363 0.69467 0.0
H868 H 0.82143 0.97769 0.65383 0.0
H869 H 0.81881 0.99152 0.60813 0.0
C870 C 0.60451 0.28835 0.15458 0.0
C871 C 0.63532 0.27683 0.14228 0.0
C872 C 0.61135 0.25614 0.08435 0.0
C873 C 0.58048 0.26719 0.09698 0.0
N874 N 0.54614 0.28662 0.14648 0.0
N875 N 0.66776 0.24465 0.09894 0.0
C876 C 0.57664 0.28117 0.13288 0.0
C877 C 0.63861 0.25902 0.10823 0.0
N878 N 0.60205 0.30681 0.18664 0.0
N879 N 0.61486 0.24446 0.04895 0.0
H880 H 0.68854 0.24744 0.11503 0.0
H881 H 0.67097 0.22807 0.07665 0.0
H882 H 0.59539 0.24125 0.03095 0.0
H883 H 0.63718 0.23994 0.03648 0.0
H884 H 0.581 0.31938 0.19501 0.0
H885 H 0.62174 0.31158 0.20392 0.0
H886 H 0.54131 0.29375 0.17364 0.0
H887 H 0.52529 0.28087 0.13143 0.0
C888 C 0.30171 0.1406 0.58782 0.0
C889 C 0.2868 0.1364 0.62284 0.0
C890 C 0.28336 0.07408 0.61307 0.0
C891 C 0.29366 0.07904 0.57616 0.0
N892 N 0.31047 0.11682 0.52675 0.0
N893 N 0.26053 0.09997 0.66804 0.0
C894 C 0.30269 0.11218 0.56313 0.0
C895 C 0.27711 0.10328 0.63549 0.0
N896 N 0.31525 0.17159 0.57845 0.0
N897 N 0.2797 0.04133 0.62653 0.0
H898 H 0.25522 0.12078 0.68524 0.0
H899 H 0.24972 0.07705 0.67666 0.0
H900 H 0.28436 0.01946 0.61057 0.0
H901 H 0.27508 0.03578 0.65419 0.0
H902 H 0.3293 0.17526 0.55487 0.0
H903 H 0.31473 0.19302 0.59586 0.0
H904 H 0.31325 0.141 0.51456 0.0
H905 H 0.31226 0.09646 0.50805 0.0
C906 C 0.40598 0.72769 0.1103 0.0
C907 C 0.38133 0.75255 0.10472 0.0
C908 C 0.40755 0.77125 0.04717 0.0
C909 C 0.43446 0.74962 0.05526 0.0
N910 N 0.46033 0.70889 0.09704 0.0
N911 N 0.35928 0.80005 0.06993 0.0
C912 C 0.43382 0.72802 0.08728 0.0
C913 C 0.38231 0.77496 0.07374 0.0
N914 N 0.4028 0.7035 0.13766 0.0
N915 N 0.40507 0.78659 0.01325 0.0
H916 H 0.3395 0.80226 0.08773 0.0
H917 H 0.36085 0.81985 0.05052 0.0
H918 H 0.42219 0.78325 0.99237 0.0
H919 H 0.38447 0.79971 1.00439 0.0
H920 H 0.41751 0.68174 0.13975 0.0
H921 H 0.38393 0.70342 0.15679 0.0
H922 H 0.46308 0.69736 0.12284 0.0
H923 H 0.48092 0.70618 0.08087 0.0
C924 C 0.80501 0.10564 0.37536 0.0
C925 C 0.78923 0.13645 0.38644 0.0
C926 C 0.78602 0.11527 0.44993 0.0
C927 C 0.79708 0.08265 0.43766 0.0
N928 N 0.81595 0.04542 0.38889 0.0
N929 N 0.76196 0.17003 0.43328 0.0
C930 C 0.80671 0.0775 0.40049 0.0
C931 C 0.77926 0.14132 0.42358 0.0
N932 N 0.81865 0.10354 0.34101 0.0
N933 N 0.78245 0.12135 0.48691 0.0
H934 H 0.75653 0.18988 0.41482 0.0
H935 H 0.75081 0.17301 0.45889 0.0
H936 H 0.78768 0.10278 0.50694 0.0
H937 H 0.7774 0.14558 0.4979 0.0
H938 H 0.83318 0.08307 0.33251 0.0
H939 H 0.81767 0.12372 0.32193 0.0
H940 H 0.81941 0.03899 0.36126 0.0
H941 H 0.81831 0.02448 0.40681 0.0
C942 C 0.41715 0.27943 0.8934 0.0
C943 C 0.3866 0.26532 0.903 0.0
C944 C 0.40674 0.25161 0.96509 0.0
C945 C 0.43803 0.26298 0.95423 0.0
N946 N 0.47466 0.28154 0.90631 0.0
N947 N 0.35268 0.23451 0.94602 0.0
C948 C 0.44367 0.27526 0.91789 0.0
C949 C 0.38144 0.25047 0.93837 0.0
N950 N 0.42064 0.29723 0.861 0.0
N951 N 0.40094 0.24305 1.00114 0.0
H952 H 0.33325 0.23443 0.9276 0.0
H953 H 0.34868 0.21968 0.96959 0.0
H954 H 0.41901 0.2429 0.02126 0.0
H955 H 0.37789 0.23845 0.01174 0.0
H956 H 0.44136 0.31118 0.85418 0.0
H957 H 0.40169 0.3007 0.84231 0.0
H958 H 0.48075 0.28708 0.87903 0.0
H959 H 0.4948 0.27786 0.92326 0.0
C960 C 0.26291 0.89723 0.38036 0.0
C961 C 0.27922 0.86725 0.39282 0.0
C962 C 0.29628 0.8971 0.44919 0.0
C963 C 0.27872 0.9268 0.4374 0.0
N964 N 0.23988 0.95261 0.39537 0.0
N965 N 0.30928 0.83653 0.43927 0.0
C966 C 0.26052 0.92618 0.40402 0.0
C967 C 0.29548 0.86663 0.42725 0.0
N968 N 0.24994 0.8982 0.34557 0.0
N969 N 0.31302 0.89777 0.4818 0.0
H970 H 0.31016 0.81424 0.42318 0.0
H971 H 0.31857 0.83277 0.46565 0.0
H972 H 0.31108 0.91772 0.50094 0.0
H973 H 0.32951 0.87895 0.4899 0.0
H974 H 0.24199 0.92079 0.33287 0.0
H975 H 0.24914 0.87693 0.32801 0.0
H976 H 0.22291 0.9514 0.37416 0.0
H977 H 0.23737 0.97483 0.41104 0.0
C978 C 0.60882 0.73001 0.86109 0.0
C979 C 0.63994 0.73795 0.87543 0.0
C980 C 0.61549 0.75567 0.93432 0.0
C981 C 0.58434 0.7487 0.91955 0.0
N982 N 0.55042 0.73547 0.86748 0.0
N983 N 0.67297 0.76374 0.92279 0.0
C984 C 0.58077 0.73776 0.88242 0.0
C985 C 0.64328 0.75251 0.91119 0.0
N986 N 0.60619 0.7142 0.82747 0.0
N987 N 0.61861 0.76373 0.9709 0.0
H988 H 0.69399 0.76083 0.90707 0.0
H989 H 0.6765 0.77805 0.94676 0.0
H990 H 0.59877 0.76727 0.98837 0.0
H991 H 0.64076 0.76494 0.98455 0.0
H992 H 0.58463 0.70421 0.81716 0.0
H993 H 0.62613 0.70882 0.8107 0.0
H994 H 0.54597 0.73074 0.83966 0.0
H995 H 0.52949 0.7413 0.88242 0.0
loop_
_geom_bond_atom_site_label_1
_geom_bond_atom_site_label_2
_geom_bond_distance
_geom_bond_site_symmetry_2
_ccdc_geom_bond_type
C0 C1 1.391 . S
C0 C4 1.391 . S
C0 H42 0.948 . S
C1 C0 1.391 . S
C1 C2 1.391 . S
C2 C1 1.391 . S
C2 H58 0.947 . S
C2 C59 1.392 . S
C3 C4 1.391 . S
C3 C7 1.397 . S
C3 C59 1.419 . S
C4 C0 1.391 . S
C4 C3 1.391 . S
C4 C5 1.399 . S
C5 C4 1.399 . S
C5 C8 1.396 . S
C5 C17 1.453 . S
C5 C18 1.684 . S
H6 C30 0.948 . S
C7 C3 1.397 . S
C7 C8 1.394 . S
C7 C26 1.723 . S
C8 C5 1.396 . S
C8 C7 1.394 . S
C8 C38 1.723 . S
H9 C32 0.947 . S
H10 C33 0.948 . S
H11 C39 0.982 . S
H12 C40 0.979 . S
H13 C40 0.980 . S
H14 C40 0.983 . S
H15 C39 0.979 . S
H16 C39 0.977 . S
C17 C5 1.453 . S
C17 H46 0.982 . S
C17 H47 0.979 . S
C17 H48 0.977 . S
C18 C5 1.684 . S
C18 H43 0.979 . S
C18 H44 0.980 . S
C18 H45 0.983 . S
C19 C20 1.391 . S
C19 C24 1.391 . S
C19 H49 0.948 . S
C20 C19 1.391 . S
C20 C21 1.391 . S
C21 C20 1.391 . S
C21 C22 1.392 . S
C21 H50 0.947 . S
C22 C21 1.392 . S
C22 C23 1.419 . S
C22 H51 0.948 . S
C23 C22 1.419 . S
C23 C24 1.391 . S
C23 C27 1.397 . S
C24 C19 1.391 . S
C24 C23 1.391 . S
C24 C25 1.399 . S
C25 C24 1.399 . S
C25 C26 1.396 . S
C25 C28 1.453 . S
C25 C29 1.684 . S
C26 C7 1.723 . S
C26 C25 1.396 . S
C26 C27 1.394 . S
C27 C23 1.397 . S
C27 C26 1.394 . S
C27 C37 1.723 . S
C28 C25 1.453 . S
C28 H52 0.982 . S
C28 H53 0.979 . S
C28 H54 0.977 . S
C29 C25 1.684 . S
C29 H55 0.979 . S
C29 H56 0.980 . S
C29 H57 0.983 . S
C30 H6 0.948 . S
C30 C31 1.391 . S
C30 C35 1.391 . S
C31 C30 1.391 . S
C31 C32 1.391 . S
C32 H9 0.947 . S
C32 C31 1.391 . S
C32 C33 1.392 . S
C33 H10 0.948 . S
C33 C32 1.392 . S
C33 C34 1.419 . S
C34 C33 1.419 . S
C34 C35 1.391 . S
C34 C38 1.397 . S
C35 C30 1.391 . S
C35 C34 1.391 . S
C35 C36 1.399 . S
C36 C35 1.399 . S
C36 C37 1.396 . S
C36 C39 1.453 . S
C36 C40 1.684 . S
C37 C27 1.723 . S
C37 C36 1.396 . S
C37 C38 1.394 . S
C38 C8 1.723 . S
C38 C34 1.397 . S
C38 C37 1.394 . S
C39 H11 0.982 . S
C39 H15 0.979 . S
C39 H16 0.977 . S
C39 C36 1.453 . S
C40 H12 0.979 . S
C40 H13 0.980 . S
C40 H14 0.983 . S
C40 C36 1.684 . S
H41 C59 0.948 . S
H42 C0 0.948 . S
H43 C18 0.979 . S
H44 C18 0.980 . S
H45 C18 0.983 . S
H46 C17 0.982 . S
H47 C17 0.979 . S
H48 C17 0.977 . S
H49 C19 0.948 . S
H50 C21 0.947 . S
H51 C22 0.948 . S
H52 C28 0.982 . S
H53 C28 0.979 . S
H54 C28 0.977 . S
H55 C29 0.979 . S
H56 C29 0.980 . S
H57 C29 0.983 . S
H58 C2 0.947 . S
C59 C2 1.392 . S
C59 C3 1.419 . S
C59 H41 0.948 . S
C60 C61 1.391 . S
C60 C64 1.391 . S
C60 H102 0.948 . S
C61 C60 1.391 . S
C61 C62 1.391 . S
C62 C61 1.391 . S
C62 H118 0.947 . S
C62 C119 1.392 . S
C63 C64 1.391 . S
C63 C67 1.397 . S
C63 C119 1.419 . S
C64 C60 1.391 . S
C64 C63 1.391 . S
C64 C65 1.399 . S
C65 C64 1.399 . S
C65 C68 1.396 . S
C65 C77 1.453 . S
C65 C78 1.684 . S
H66 C90 0.948 . S
C67 C63 1.397 . S
C67 C68 1.394 . S
C67 C86 1.723 . S
C68 C65 1.396 . S
C68 C67 1.394 . S
C68 C98 1.723 . S
H69 C92 0.947 . S
H70 C93 0.948 . S
H71 C99 0.982 . S
H72 C100 0.979 . S
H73 C100 0.980 . S
H74 C100 0.983 . S
H75 C99 0.979 . S
H76 C99 0.977 . S
C77 C65 1.453 . S
C77 H106 0.982 . S
C77 H107 0.979 . S
C77 H108 0.977 . S
C78 C65 1.684 . S
C78 H103 0.979 . S
C78 H104 0.980 . S
C78 H105 0.983 . S
C79 C80 1.391 . S
C79 C84 1.391 . S
C79 H109 0.948 . S
C80 C79 1.391 . S
C80 C81 1.391 . S
C81 C80 1.391 . S
C81 C82 1.392 . S
C81 H110 0.947 . S
C82 C81 1.392 . S
C82 C83 1.419 . S
C82 H111 0.948 . S
C83 C82 1.419 . S
C83 C84 1.391 . S
C83 C87 1.397 . S
C84 C79 1.391 . S
C84 C83 1.391 . S
C84 C85 1.399 . S
C85 C84 1.399 . S
C85 C86 1.396 . S
C85 C88 1.453 . S
C85 C89 1.684 . S
C86 C67 1.723 . S
C86 C85 1.396 . S
C86 C87 1.394 . S
C87 C83 1.397 . S
C87 C86 1.394 . S
C87 C97 1.723 . S
C88 C85 1.453 . S
C88 H112 0.982 . S
C88 H113 0.979 . S
C88 H114 0.977 . S
C89 C85 1.684 . S
C89 H115 0.979 . S
C89 H116 0.980 . S
C89 H117 0.983 . S
C90 H66 0.948 . S
C90 C91 1.391 . S
C90 C95 1.391 . S
C91 C90 1.391 . S
C91 C92 1.391 . S
C92 H69 0.947 . S
C92 C91 1.391 . S
C92 C93 1.392 . S
C93 H70 0.948 . S
C93 C92 1.392 . S
C93 C94 1.419 . S
C94 C93 1.419 . S
C94 C95 1.391 . S
C94 C98 1.397 . S
C95 C90 1.391 . S
C95 C94 1.391 . S
C95 C96 1.399 . S
C96 C95 1.399 . S
C96 C97 1.396 . S
C96 C99 1.453 . S
C96 C100 1.684 . S
C97 C87 1.723 . S
C97 C96 1.396 . S
C97 C98 1.394 . S
C98 C68 1.723 . S
C98 C94 1.397 . S
C98 C97 1.394 . S
C99 H71 0.982 . S
C99 H75 0.979 . S
C99 H76 0.977 . S
C99 C96 1.453 . S
C100 H72 0.979 . S
C100 H73 0.980 . S
C100 H74 0.983 . S
C100 C96 1.684 . S
H101 C119 0.948 . S
H102 C60 0.948 . S
H103 C78 0.979 . S
H104 C78 0.980 . S
H105 C78 0.983 . S
H106 C77 0.982 . S
H107 C77 0.979 . S
H108 C77 0.977 . S
H109 C79 0.948 . S
H110 C81 0.947 . S
H111 C82 0.948 . S
H112 C88 0.982 . S
H113 C88 0.979 . S
H114 C88 0.977 . S
H115 C89 0.979 . S
H116 C89 0.980 . S
H117 C89 0.983 . S
H118 C62 0.947 . S
C119 C62 1.392 . S
C119 C63 1.419 . S
C119 H101 0.948 . S
C120 C121 1.391 . S
C120 C124 1.391 . S
C120 H162 0.948 . S
C121 C120 1.391 . S
C121 C122 1.391 . S
C122 C121 1.391 . S
C122 H178 0.947 . S
C122 C179 1.392 . S
C123 C124 1.391 . S
C123 C127 1.397 . S
C123 C179 1.419 . S
C124 C120 1.391 . S
C124 C123 1.391 . S
C124 C125 1.399 . S
C125 C124 1.399 . S
C125 C128 1.396 . S
C125 C137 1.453 . S
C125 C138 1.684 . S
H126 C150 0.948 . S
C127 C123 1.397 . S
C127 C128 1.394 . S
C127 C146 1.723 . S
C128 C125 1.396 . S
C128 C127 1.394 . S
C128 C158 1.723 . S
H129 C152 0.947 . S
H130 C153 0.948 . S
H131 C159 0.982 . S
H132 C160 0.979 . S
H133 C160 0.980 . S
H134 C160 0.983 . S
H135 C159 0.979 . S
H136 C159 0.977 . S
C137 C125 1.453 . S
C137 H166 0.982 . S
C137 H167 0.979 . S
C137 H168 0.977 . S
C138 C125 1.684 . S
C138 H163 0.979 . S
C138 H164 0.980 . S
C138 H165 0.983 . S
C139 C140 1.391 . S
C139 C144 1.391 . S
C139 H169 0.948 . S
C140 C139 1.391 . S
C140 C141 1.391 . S
C141 C140 1.391 . S
C141 C142 1.392 . S
C141 H170 0.947 . S
C142 C141 1.392 . S
C142 C143 1.419 . S
C142 H171 0.948 . S
C143 C142 1.419 . S
C143 C144 1.391 . S
C143 C147 1.397 . S
C144 C139 1.391 . S
C144 C143 1.391 . S
C144 C145 1.399 . S
C145 C144 1.399 . S
C145 C146 1.396 . S
C145 C148 1.453 . S
C145 C149 1.684 . S
C146 C127 1.723 . S
C146 C145 1.396 . S
C146 C147 1.394 . S
C147 C143 1.397 . S
C147 C146 1.394 . S
C147 C157 1.723 . S
C148 C145 1.453 . S
C148 H172 0.982 . S
C148 H173 0.979 . S
C148 H174 0.977 . S
C149 C145 1.684 . S
C149 H175 0.979 . S
C149 H176 0.980 . S
C149 H177 0.983 . S
C150 H126 0.948 . S
C150 C151 1.391 . S
C150 C155 1.391 . S
C151 C150 1.391 . S
C151 C152 1.391 . S
C152 H129 0.947 . S
C152 C151 1.391 . S
C152 C153 1.392 . S
C153 H130 0.948 . S
C153 C152 1.392 . S
C153 C154 1.419 . S
C154 C153 1.419 . S
C154 C155 1.391 . S
C154 C158 1.397 . S
C155 C150 1.391 . S
C155 C154 1.391 . S
C155 C156 1.399 . S
C156 C155 1.399 . S
C156 C157 1.396 . S
C156 C159 1.453 . S
C156 C160 1.684 . S
C157 C147 1.723 . S
C157 C156 1.396 . S
C157 C158 1.394 . S
C158 C128 1.723 . S
C158 C154 1.397 . S
C158 C157 1.394 . S
C159 H131 0.982 . S
C159 H135 0.979 . S
C159 H136 0.977 . S
C159 C156 1.453 . S
C160 H132 0.979 . S
C160 H133 0.980 . S
C160 H134 0.983 . S
C160 C156 1.684 . S
H161 C179 0.948 . S
H162 C120 0.948 . S
H163 C138 0.979 . S
H164 C138 0.980 . S
H165 C138 0.983 . S
H166 C137 0.982 . S
H167 C137 0.979 . S
H168 C137 0.977 . S
H169 C139 0.948 . S
H170 C141 0.947 . S
H171 C142 0.948 . S
H172 C148 0.982 . S
H173 C148 0.979 . S
H174 C148 0.977 . S
H175 C149 0.979 . S
H176 C149 0.980 . S
H177 C149 0.983 . S
H178 C122 0.947 . S
C179 C122 1.392 . S
C179 C123 1.419 . S
C179 H161 0.948 . S
C180 C181 1.391 . S
C180 C184 1.391 . S
C180 H222 0.948 . S
C181 C180 1.391 . S
C181 C182 1.391 . S
C182 C181 1.391 . S
C182 H238 0.947 . S
C182 C239 1.392 . S
C183 C184 1.391 . S
C183 C187 1.397 . S
C183 C239 1.419 . S
C184 C180 1.391 . S
C184 C183 1.391 . S
C184 C185 1.399 . S
C185 C184 1.399 . S
C185 C188 1.396 . S
C185 C197 1.453 . S
C185 C198 1.684 . S
H186 C210 0.948 . S
C187 C183 1.397 . S
C187 C188 1.394 . S
C187 C206 1.723 . S
C188 C185 1.396 . S
C188 C187 1.394 . S
C188 C218 1.723 . S
H189 C212 0.947 . S
H190 C213 0.948 . S
H191 C219 0.982 . S
H192 C220 0.979 . S
H193 C220 0.980 . S
H194 C220 0.983 . S
H195 C219 0.979 . S
H196 C219 0.977 . S
C197 C185 1.453 . S
C197 H226 0.982 . S
C197 H227 0.979 . S
C197 H228 0.977 . S
C198 C185 1.684 . S
C198 H223 0.979 . S
C198 H224 0.980 . S
C198 H225 0.983 . S
C199 C200 1.391 . S
C199 C204 1.391 . S
C199 H229 0.948 . S
C200 C199 1.391 . S
C200 C201 1.391 . S
C201 C200 1.391 . S
C201 C202 1.392 . S
C201 H230 0.947 . S
C202 C201 1.392 . S
C202 C203 1.419 . S
C202 H231 0.948 . S
C203 C202 1.419 . S
C203 C204 1.391 . S
C203 C207 1.397 . S
C204 C199 1.391 . S
C204 C203 1.391 . S
C204 C205 1.399 . S
C205 C204 1.399 . S
C205 C206 1.396 . S
C205 C208 1.453 . S
C205 C209 1.684 . S
C206 C187 1.723 . S
C206 C205 1.396 . S
C206 C207 1.394 . S
C207 C203 1.397 . S
C207 C206 1.394 . S
C207 C217 1.723 . S
C208 C205 1.453 . S
C208 H232 0.982 . S
C208 H233 0.979 . S
C208 H234 0.977 . S
C209 C205 1.684 . S
C209 H235 0.979 . S
C209 H236 0.980 . S
C209 H237 0.983 . S
C210 H186 0.948 . S
C210 C211 1.391 . S
C210 C215 1.391 . S
C211 C210 1.391 . S
C211 C212 1.391 . S
C212 H189 0.947 . S
C212 C211 1.391 . S
C212 C213 1.392 . S
C213 H190 0.948 . S
C213 C212 1.392 . S
C213 C214 1.419 . S
C214 C213 1.419 . S
C214 C215 1.391 . S
C214 C218 1.397 . S
C215 C210 1.391 . S
C215 C214 1.391 . S
C215 C216 1.399 . S
C216 C215 1.399 . S
C216 C217 1.396 . S
C216 C219 1.453 . S
C216 C220 1.684 . S
C217 C207 1.723 . S
C217 C216 1.396 . S
C217 C218 1.394 . S
C218 C188 1.723 . S
C218 C214 1.397 . S
C218 C217 1.394 . S
C219 H191 0.982 . S
C219 H195 0.979 . S
C219 H196 0.977 . S
C219 C216 1.453 . S
C220 H192 0.979 . S
C220 H193 0.980 . S
C220 H194 0.983 . S
C220 C216 1.684 . S
H221 C239 0.948 . S
H222 C180 0.948 . S
H223 C198 0.979 . S
H224 C198 0.980 . S
H225 C198 0.983 . S
H226 C197 0.982 . S
H227 C197 0.979 . S
H228 C197 0.977 . S
H229 C199 0.948 . S
H230 C201 0.947 . S
H231 C202 0.948 . S
H232 C208 0.982 . S
H233 C208 0.979 . S
H234 C208 0.977 . S
H235 C209 0.979 . S
H236 C209 0.980 . S
H237 C209 0.983 . S
H238 C182 0.947 . S
C239 C182 1.392 . S
C239 C183 1.419 . S
C239 H221 0.948 . S
C240 C241 1.391 . S
C240 C244 1.391 . S
C240 H282 0.948 . S
C241 C240 1.391 . S
C241 C242 1.391 . S
C242 C241 1.391 . S
C242 H298 0.947 . S
C242 C299 1.392 . S
C243 C244 1.391 . S
C243 C247 1.397 . S
C243 C299 1.419 . S
C244 C240 1.391 . S
C244 C243 1.391 . S
C244 C245 1.399 . S
C245 C244 1.399 . S
C245 C248 1.396 . S
C245 C257 1.453 . S
C245 C258 1.684 . S
H246 C270 0.948 . S
C247 C243 1.397 . S
C247 C248 1.394 . S
C247 C266 1.723 . S
C248 C245 1.396 . S
C248 C247 1.394 . S
C248 C278 1.723 . S
H249 C272 0.947 . S
H250 C273 0.948 . S
H251 C279 0.982 . S
H252 C280 0.979 . S
H253 C280 0.980 . S
H254 C280 0.983 . S
H255 C279 0.979 . S
H256 C279 0.977 . S
C257 C245 1.453 . S
C257 H286 0.982 . S
C257 H287 0.979 . S
C257 H288 0.977 . S
C258 C245 1.684 . S
C258 H283 0.979 . S
C258 H284 0.980 . S
C258 H285 0.983 . S
C259 C260 1.391 . S
C259 C264 1.391 . S
C259 H289 0.948 . S
C260 C259 1.391 . S
C260 C261 1.391 . S
C261 C260 1.391 . S
C261 C262 1.392 . S
C261 H290 0.947 . S
C262 C261 1.392 . S
C262 C263 1.419 . S
C262 H291 0.948 . S
C263 C262 1.419 . S
C263 C264 1.391 . S
C263 C267 1.397 . S
C264 C259 1.391 . S
C264 C263 1.391 . S
C264 C265 1.399 . S
C265 C264 1.399 . S
C265 C266 1.396 . S
C265 C268 1.453 . S
C265 C269 1.684 . S
C266 C247 1.723 . S
C266 C265 1.396 . S
C266 C267 1.394 . S
C267 C263 1.397 . S
C267 C266 1.394 . S
C267 C277 1.723 . S
C268 C265 1.453 . S
C268 H292 0.982 . S
C268 H293 0.979 . S
C268 H294 0.977 . S
C269 C265 1.684 . S
C269 H295 0.979 . S
C269 H296 0.980 . S
C269 H297 0.983 . S
C270 H246 0.948 . S
C270 C271 1.391 . S
C270 C275 1.391 . S
C271 C270 1.391 . S
C271 C272 1.391 . S
C272 H249 0.947 . S
C272 C271 1.391 . S
C272 C273 1.392 . S
C273 H250 0.948 . S
C273 C272 1.392 . S
C273 C274 1.419 . S
C274 C273 1.419 . S
C274 C275 1.391 . S
C274 C278 1.397 . S
C275 C270 1.391 . S
C275 C274 1.391 . S
C275 C276 1.399 . S
C276 C275 1.399 . S
C276 C277 1.396 . S
C276 C279 1.453 . S
C276 C280 1.684 . S
C277 C267 1.723 . S
C277 C276 1.396 . S
C277 C278 1.394 . S
C278 C248 1.723 . S
C278 C274 1.397 . S
C278 C277 1.394 . S
C279 H251 0.982 . S
C279 H255 0.979 . S
C279 H256 0.977 . S
C279 C276 1.453 . S
C280 H252 0.979 . S
C280 H253 0.980 . S
C280 H254 0.983 . S
C280 C276 1.684 . S
H281 C299 0.948 . S
H282 C240 0.948 . S
H283 C258 0.979 . S
H284 C258 0.980 . S
H285 C258 0.983 . S
H286 C257 0.982 . S
H287 C257 0.979 . S
H288 C257 0.977 . S
H289 C259 0.948 . S
H290 C261 0.947 . S
H291 C262 0.948 . S
H292 C268 0.982 . S
H293 C268 0.979 . S
H294 C268 0.977 . S
H295 C269 0.979 . S
H296 C269 0.980 . S
H297 C269 0.983 . S
H298 C242 0.947 . S
C299 C242 1.392 . S
C299 C243 1.419 . S
C299 H281 0.948 . S
C300 C301 1.391 . S
C300 C304 1.391 . S
C300 H342 0.948 . S
C301 C300 1.391 . S
C301 C302 1.391 . S
C302 C301 1.391 . S
C302 H358 0.947 . S
C302 C359 1.392 . S
C303 C304 1.391 . S
C303 C307 1.397 . S
C303 C359 1.419 . S
C304 C300 1.391 . S
C304 C303 1.391 . S
C304 C305 1.399 . S
C305 C304 1.399 . S
C305 C308 1.396 . S
C305 C317 1.453 . S
C305 C318 1.684 . S
H306 C330 0.948 . S
C307 C303 1.397 . S
C307 C308 1.394 . S
C307 C326 1.723 . S
C308 C305 1.396 . S
C308 C307 1.394 . S
C308 C338 1.723 . S
H309 C332 0.947 . S
H310 C333 0.948 . S
H311 C339 0.982 . S
H312 C340 0.979 . S
H313 C340 0.980 . S
H314 C340 0.983 . S
H315 C339 0.979 . S
H316 C339 0.977 . S
C317 C305 1.453 . S
C317 H346 0.982 . S
C317 H347 0.979 . S
C317 H348 0.977 . S
C318 C305 1.684 . S
C318 H343 0.979 . S
C318 H344 0.980 . S
C318 H345 0.983 . S
C319 C320 1.391 . S
C319 C324 1.391 . S
C319 H349 0.948 . S
C320 C319 1.391 . S
C320 C321 1.391 . S
C321 C320 1.391 . S
C321 C322 1.392 . S
C321 H350 0.947 . S
C322 C321 1.392 . S
C322 C323 1.419 . S
C322 H351 0.948 . S
C323 C322 1.419 . S
C323 C324 1.391 . S
C323 C327 1.397 . S
C324 C319 1.391 . S
C324 C323 1.391 . S
C324 C325 1.399 . S
C325 C324 1.399 . S
C325 C326 1.396 . S
C325 C328 1.453 . S
C325 C329 1.684 . S
C326 C307 1.723 . S
C326 C325 1.396 . S
C326 C327 1.394 . S
C327 C323 1.397 . S
C327 C326 1.394 . S
C327 C337 1.723 . S
C328 C325 1.453 . S
C328 H352 0.982 . S
C328 H353 0.979 . S
C328 H354 0.977 . S
C329 C325 1.684 . S
C329 H355 0.979 . S
C329 H356 0.980 . S
C329 H357 0.983 . S
C330 H306 0.948 . S
C330 C331 1.391 . S
C330 C335 1.391 . S
C331 C330 1.391 . S
C331 C332 1.391 . S
C332 H309 0.947 . S
C332 C331 1.391 . S
C332 C333 1.392 . S
C333 H310 0.948 . S
C333 C332 1.392 . S
C333 C334 1.419 . S
C334 C333 1.419 . S
C334 C335 1.391 . S
C334 C338 1.397 . S
C335 C330 1.391 . S
C335 C334 1.391 . S
C335 C336 1.399 . S
C336 C335 1.399 . S
C336 C337 1.396 . S
C336 C339 1.453 . S
C336 C340 1.684 . S
C337 C327 1.723 . S
C337 C336 1.396 . S
C337 C338 1.394 . S
C338 C308 1.723 . S
C338 C334 1.397 . S
C338 C337 1.394 . S
C339 H311 0.982 . S
C339 H315 0.979 . S
C339 H316 0.977 . S
C339 C336 1.453 . S
C340 H312 0.979 . S
C340 H313 0.980 . S
C340 H314 0.983 . S
C340 C336 1.684 . S
H341 C359 0.948 . S
H342 C300 0.948 . S
H343 C318 0.979 . S
H344 C318 0.980 . S
H345 C318 0.983 . S
H346 C317 0.982 . S
H347 C317 0.979 . S
H348 C317 0.977 . S
H349 C319 0.948 . S
H350 C321 0.947 . S
H351 C322 0.948 . S
H352 C328 0.982 . S
H353 C328 0.979 . S
H354 C328 0.977 . S
H355 C329 0.979 . S
H356 C329 0.980 . S
H357 C329 0.983 . S
H358 C302 0.947 . S
C359 C302 1.392 . S
C359 C303 1.419 . S
C359 H341 0.948 . S
C360 C361 1.391 . S
C360 C364 1.391 . S
C360 H402 0.948 . S
C361 C360 1.391 . S
C361 C362 1.391 . S
C362 C361 1.391 . S
C362 H418 0.947 . S
C362 C419 1.392 . S
C363 C364 1.391 . S
C363 C367 1.397 . S
C363 C419 1.419 . S
C364 C360 1.391 . S
C364 C363 1.391 . S
C364 C365 1.399 . S
C365 C364 1.399 . S
C365 C368 1.396 . S
C365 C377 1.453 . S
C365 C378 1.684 . S
H366 C390 0.948 . S
C367 C363 1.397 . S
C367 C368 1.394 . S
C367 C386 1.723 . S
C368 C365 1.396 . S
C368 C367 1.394 . S
C368 C398 1.723 . S
H369 C392 0.947 . S
H370 C393 0.948 . S
H371 C399 0.982 . S
H372 C400 0.979 . S
H373 C400 0.980 . S
H374 C400 0.983 . S
H375 C399 0.979 . S
H376 C399 0.977 . S
C377 C365 1.453 . S
C377 H406 0.982 . S
C377 H407 0.979 . S
C377 H408 0.977 . S
C378 C365 1.684 . S
C378 H403 0.979 . S
C378 H404 0.980 . S
C378 H405 0.983 . S
C379 C380 1.391 . S
C379 C384 1.391 . S
C379 H409 0.948 . S
C380 C379 1.391 . S
C380 C381 1.391 . S
C381 C380 1.391 . S
C381 C382 1.392 . S
C381 H410 0.947 . S
C382 C381 1.392 . S
C382 C383 1.419 . S
C382 H411 0.948 . S
C383 C382 1.419 . S
C383 C384 1.391 . S
C383 C387 1.397 . S
C384 C379 1.391 . S
C384 C383 1.391 . S
C384 C385 1.399 . S
C385 C384 1.399 . S
C385 C386 1.396 . S
C385 C388 1.453 . S
C385 C389 1.684 . S
C386 C367 1.723 . S
C386 C385 1.396 . S
C386 C387 1.394 . S
C387 C383 1.397 . S
C387 C386 1.394 . S
C387 C397 1.723 . S
C388 C385 1.453 . S
C388 H412 0.982 . S
C388 H413 0.979 . S
C388 H414 0.977 . S
C389 C385 1.684 . S
C389 H415 0.979 . S
C389 H416 0.980 . S
C389 H417 0.983 . S
C390 H366 0.948 . S
C390 C391 1.391 . S
C390 C395 1.391 . S
C391 C390 1.391 . S
C391 C392 1.391 . S
C392 H369 0.947 . S
C392 C391 1.391 . S
C392 C393 1.392 . S
C393 H370 0.948 . S
C393 C392 1.392 . S
C393 C394 1.419 . S
C394 C393 1.419 . S
C394 C395 1.391 . S
C394 C398 1.397 . S
C395 C390 1.391 . S
C395 C394 1.391 . S
C395 C396 1.399 . S
C396 C395 1.399 . S
C396 C397 1.396 . S
C396 C399 1.453 . S
C396 C400 1.684 . S
C397 C387 1.723 . S
C397 C396 1.396 . S
C397 C398 1.394 . S
C398 C368 1.723 . S
C398 C394 1.397 . S
C398 C397 1.394 . S
C399 H371 0.982 . S
C399 H375 0.979 . S
C399 H376 0.977 . S
C399 C396 1.453 . S
C400 H372 0.979 . S
C400 H373 0.980 . S
C400 H374 0.983 . S
C400 C396 1.684 . S
H401 C419 0.948 . S
H402 C360 0.948 . S
H403 C378 0.979 . S
H404 C378 0.980 . S
H405 C378 0.983 . S
H406 C377 0.982 . S
H407 C377 0.979 . S
H408 C377 0.977 . S
H409 C379 0.948 . S
H410 C381 0.947 . S
H411 C382 0.948 . S
H412 C388 0.982 . S
H413 C388 0.979 . S
H414 C388 0.977 . S
H415 C389 0.979 . S
H416 C389 0.980 . S
H417 C389 0.983 . S
H418 C362 0.947 . S
C419 C362 1.392 . S
C419 C363 1.419 . S
C419 H401 0.948 . S
C420 C421 1.391 . S
C420 C424 1.391 . S
C420 H462 0.948 . S
C421 C420 1.391 . S
C421 C422 1.391 . S
C422 C421 1.391 . S
C422 H478 0.947 . S
C422 C479 1.392 . S
C423 C424 1.391 . S
C423 C427 1.397 . S
C423 C479 1.419 . S
C424 C420 1.391 . S
C424 C423 1.391 . S
C424 C425 1.399 . S
C425 C424 1.399 . S
C425 C428 1.396 . S
C425 C437 1.453 . S
C425 C438 1.684 . S
H426 C450 0.948 . S
C427 C423 1.397 . S
C427 C428 1.394 . S
C427 C446 1.723 . S
C428 C425 1.396 . S
C428 C427 1.394 . S
C428 C458 1.723 . S
H429 C452 0.947 . S
H430 C453 0.948 . S
H431 C459 0.982 . S
H432 C460 0.979 . S
H433 C460 0.980 . S
H434 C460 0.983 . S
H435 C459 0.979 . S
H436 C459 0.977 . S
C437 C425 1.453 . S
C437 H466 0.982 . S
C437 H467 0.979 . S
C437 H468 0.977 . S
C438 C425 1.684 . S
C438 H463 0.979 . S
C438 H464 0.980 . S
C438 H465 0.983 . S
C439 C440 1.391 . S
C439 C444 1.391 . S
C439 H469 0.948 . S
C440 C439 1.391 . S
C440 C441 1.391 . S
C441 C440 1.391 . S
C441 C442 1.392 . S
C441 H470 0.947 . S
C442 C441 1.392 . S
C442 C443 1.419 . S
C442 H471 0.948 . S
C443 C442 1.419 . S
C443 C444 1.391 . S
C443 C447 1.397 . S
C444 C439 1.391 . S
C444 C443 1.391 . S
C444 C445 1.399 . S
C445 C444 1.399 . S
C445 C446 1.396 . S
C445 C448 1.453 . S
C445 C449 1.684 . S
C446 C427 1.723 . S
C446 C445 1.396 . S
C446 C447 1.394 . S
C447 C443 1.397 . S
C447 C446 1.394 . S
C447 C457 1.723 . S
C448 C445 1.453 . S
C448 H472 0.982 . S
C448 H473 0.979 . S
C448 H474 0.977 . S
C449 C445 1.684 . S
C449 H475 0.979 . S
C449 H476 0.980 . S
C449 H477 0.983 . S
C450 H426 0.948 . S
C450 C451 1.391 . S
C450 C455 1.391 . S
C451 C450 1.391 . S
C451 C452 1.391 . S
C452 H429 0.947 . S
C452 C451 1.391 . S
C452 C453 1.392 . S
C453 H430 0.948 . S
C453 C452 1.392 . S
C453 C454 1.419 . S
C454 C453 1.419 . S
C454 C455 1.391 . S
C454 C458 1.397 . S
C455 C450 1.391 . S
C455 C454 1.391 . S
C455 C456 1.399 . S
C456 C455 1.399 . S
C456 C457 1.396 . S
C456 C459 1.453 . S
C456 C460 1.684 . S
C457 C447 1.723 . S
C457 C456 1.396 . S
C457 C458 1.394 . S
C458 C428 1.723 . S
C458 C454 1.397 . S
C458 C457 1.394 . S
C459 H431 0.982 . S
C459 H435 0.979 . S
C459 H436 0.977 . S
C459 C456 1.453 . S
C460 H432 0.979 . S
C460 H433 0.980 . S
C460 H434 0.983 . S
C460 C456 1.684 . S
H461 C479 0.948 . S
H462 C420 0.948 . S
H463 C438 0.979 . S
H464 C438 0.980 . S
H465 C438 0.983 . S
H466 C437 0.982 . S
H467 C437 0.979 . S
H468 C437 0.977 . S
H469 C439 0.948 . S
H470 C441 0.947 . S
H471 C442 0.948 . S
H472 C448 0.982 . S
H473 C448 0.979 . S
H474 C448 0.977 . S
H475 C449 0.979 . S
H476 C449 0.980 . S
H477 C449 0.983 . S
H478 C422 0.947 . S
C479 C422 1.392 . S
C479 C423 1.419 . S
C479 H461 0.948 . S
C480 O482 1.247 . S
C480 O484 1.258 . S
C481 O488 1.247 . S
C481 O489 1.258 . S
O482 C480 1.247 . S
O482 Zn483 2.027 1_655 S
Zn483 O482 2.027 1_455 S
Zn483 O487 2.036 . S
Zn483 O489 2.036 . S
Zn483 O490 2.027 1_455 S
O484 C480 1.258 . S
O484 Zn485 2.020 1_655 S
Zn485 O484 2.020 1_455 S
Zn485 O486 2.043 . S
Zn485 O488 2.043 . S
Zn485 O491 2.020 1_455 S
O486 Zn485 2.043 . S
O486 C492 1.247 . S
O487 Zn483 2.036 . S
O487 C492 1.258 . S
O488 C481 1.247 . S
O488 Zn485 2.043 . S
O489 C481 1.258 . S
O489 Zn483 2.036 . S
O490 Zn483 2.027 1_655 S
O490 C493 1.247 . S
O491 Zn485 2.020 1_655 S
O491 C493 1.258 . S
C492 O486 1.247 . S
C492 O487 1.258 . S
C493 O490 1.247 . S
C493 O491 1.258 . S
C494 O496 1.247 . S
C494 O498 1.258 . S
C495 O502 1.247 . S
C495 O503 1.258 . S
O496 C494 1.247 . S
O496 Zn497 2.027 1_655 S
Zn497 O496 2.027 1_455 S
Zn497 O501 2.036 . S
Zn497 O503 2.036 . S
Zn497 O504 2.027 1_455 S
O498 C494 1.258 . S
O498 Zn499 2.020 1_655 S
Zn499 O498 2.020 1_455 S
Zn499 O500 2.043 . S
Zn499 O502 2.043 . S
Zn499 O505 2.020 1_455 S
O500 Zn499 2.043 . S
O500 C506 1.247 . S
O501 Zn497 2.036 . S
O501 C506 1.258 . S
O502 C495 1.247 . S
O502 Zn499 2.043 . S
O503 C495 1.258 . S
O503 Zn497 2.036 . S
O504 Zn497 2.027 1_655 S
O504 C507 1.247 . S
O505 Zn499 2.020 1_655 S
O505 C507 1.258 . S
C506 O500 1.247 . S
C506 O501 1.258 . S
C507 O504 1.247 . S
C507 O505 1.258 . S
C508 O510 1.247 . S
C508 O512 1.258 . S
C509 O516 1.247 . S
C509 O517 1.258 . S
O510 C508 1.247 . S
O510 Zn511 2.030 . S
Zn511 O510 2.030 . S
Zn511 O515 2.033 1_565 S
Zn511 O517 2.033 1_565 S
Zn511 O518 2.030 . S
O512 C508 1.258 . S
O512 Zn513 2.028 1_565 S
Zn513 O512 2.028 1_545 S
Zn513 O514 2.035 . S
Zn513 O516 2.035 . S
Zn513 O519 2.028 1_545 S
O514 Zn513 2.035 . S
O514 C520 1.247 . S
O515 Zn511 2.033 1_545 S
O515 C520 1.258 . S
O516 C509 1.247 . S
O516 Zn513 2.035 . S
O517 C509 1.258 . S
O517 Zn511 2.033 1_545 S
O518 Zn511 2.030 . S
O518 C521 1.247 . S
O519 Zn513 2.028 1_565 S
O519 C521 1.258 . S
C520 O514 1.247 . S
C520 O515 1.258 . S
C521 O518 1.247 . S
C521 O519 1.258 . S
C522 O524 1.247 . S
C522 O526 1.258 . S
C523 O530 1.247 . S
C523 O531 1.258 . S
O524 C522 1.247 . S
O524 Zn525 2.028 . S
Zn525 O524 2.028 . S
Zn525 O529 2.035 . S
Zn525 O531 2.035 1_554 S
Zn525 O532 2.028 1_554 S
O526 C522 1.258 . S
O526 Zn527 2.035 . S
Zn527 O526 2.035 . S
Zn527 O528 2.028 . S
Zn527 O530 2.028 1_554 S
Zn527 O533 2.035 1_554 S
O528 Zn527 2.028 . S
O528 C534 1.247 . S
O529 Zn525 2.035 . S
O529 C534 1.258 . S
O530 C523 1.247 . S
O530 Zn527 2.028 1_556 S
O531 C523 1.258 . S
O531 Zn525 2.035 1_556 S
O532 Zn525 2.028 1_556 S
O532 C535 1.247 . S
O533 Zn527 2.035 1_556 S
O533 C535 1.258 . S
C534 O528 1.247 . S
C534 O529 1.258 . S
C535 O532 1.247 . S
C535 O533 1.258 . S
C536 O538 1.247 . S
C536 O540 1.258 . S
C537 O544 1.247 . S
C537 O545 1.258 . S
O538 C536 1.247 . S
O538 Zn539 2.030 . S
Zn539 O538 2.030 . S
Zn539 O543 2.033 1_565 S
Zn539 O545 2.033 1_565 S
Zn539 O546 2.030 . S
O540 C536 1.258 . S
O540 Zn541 2.028 1_565 S
Zn541 O540 2.028 1_545 S
Zn541 O542 2.035 . S
Zn541 O544 2.035 . S
Zn541 O547 2.028 1_545 S
O542 Zn541 2.035 . S
O542 C548 1.247 . S
O543 Zn539 2.033 1_545 S
O543 C548 1.258 . S
O544 C537 1.247 . S
O544 Zn541 2.035 . S
O545 C537 1.258 . S
O545 Zn539 2.033 1_545 S
O546 Zn539 2.030 . S
O546 C549 1.247 . S
O547 Zn541 2.028 1_565 S
O547 C549 1.258 . S
C548 O542 1.247 . S
C548 O543 1.258 . S
C549 O546 1.247 . S
C549 O547 1.258 . S
C550 O552 1.247 . S
C550 O554 1.258 . S
C551 O558 1.247 . S
C551 O559 1.258 . S
O552 C550 1.247 . S
O552 Zn553 2.028 . S
Zn553 O552 2.028 . S
Zn553 O557 2.035 . S
Zn553 O559 2.035 1_554 S
Zn553 O560 2.028 1_554 S
O554 C550 1.258 . S
O554 Zn555 2.035 . S
Zn555 O554 2.035 . S
Zn555 O556 2.028 . S
Zn555 O558 2.028 1_554 S
Zn555 O561 2.035 1_554 S
O556 Zn555 2.028 . S
O556 C562 1.247 . S
O557 Zn553 2.035 . S
O557 C562 1.258 . S
O558 C551 1.247 . S
O558 Zn555 2.028 1_556 S
O559 C551 1.258 . S
O559 Zn553 2.035 1_556 S
O560 Zn553 2.028 1_556 S
O560 C563 1.247 . S
O561 Zn555 2.035 1_556 S
O561 C563 1.258 . S
C562 O556 1.247 . S
C562 O557 1.258 . S
C563 O560 1.247 . S
C563 O561 1.258 . S
C564 C565 1.363 . S
C564 C570 1.379 . S
C564 N572 1.356 . S
C565 C564 1.363 . S
C565 C571 1.363 . S
C566 C567 1.363 . S
C566 C571 1.379 . S
C566 N573 1.356 . S
C567 C566 1.363 . S
C567 C570 1.363 . S
N568 C570 1.356 . S
N568 H580 0.984 . S
N568 H581 0.985 . S
N569 C571 1.356 . S
N569 H574 0.984 . S
N569 H575 0.985 . S
C570 C564 1.379 . S
C570 C567 1.363 . S
C570 N568 1.356 . S
C571 C565 1.363 . S
C571 C566 1.379 . S
C571 N569 1.356 . S
N572 C564 1.356 . S
N572 H578 0.984 . S
N572 H579 0.984 . S
N573 C566 1.356 . S
N573 H576 0.984 . S
N573 H577 0.985 . S
H574 N569 0.984 . S
H575 N569 0.985 . S
H576 N573 0.984 . S
H577 N573 0.985 . S
H578 N572 0.984 . S
H579 N572 0.984 . S
H580 N568 0.984 . S
H581 N568 0.985 . S
C582 C583 1.363 . S
C582 C588 1.379 . S
C582 N590 1.356 . S
C583 C582 1.363 . S
C583 C589 1.363 . S
C584 C585 1.363 . S
C584 C589 1.379 . S
C584 N591 1.356 . S
C585 C584 1.363 . S
C585 C588 1.363 . S
N586 C588 1.356 . S
N586 H598 0.984 . S
N586 H599 0.985 . S
N587 C589 1.356 . S
N587 H592 0.984 . S
N587 H593 0.985 . S
C588 C582 1.379 . S
C588 C585 1.363 . S
C588 N586 1.356 . S
C589 C583 1.363 . S
C589 C584 1.379 . S
C589 N587 1.356 . S
N590 C582 1.356 . S
N590 H596 0.984 . S
N590 H597 0.984 . S
N591 C584 1.356 . S
N591 H594 0.984 . S
N591 H595 0.985 . S
H592 N587 0.984 . S
H593 N587 0.985 . S
H594 N591 0.984 . S
H595 N591 0.985 . S
H596 N590 0.984 . S
H597 N590 0.984 . S
H598 N586 0.984 . S
H599 N586 0.985 . S
C600 C601 1.363 . S
C600 C606 1.379 . S
C600 N608 1.356 . S
C601 C600 1.363 . S
C601 C607 1.363 . S
C602 C603 1.363 . S
C602 C607 1.379 . S
C602 N609 1.356 . S
C603 C602 1.363 . S
C603 C606 1.363 . S
N604 C606 1.356 . S
N604 H616 0.984 . S
N604 H617 0.985 . S
N605 C607 1.356 . S
N605 H610 0.984 . S
N605 H611 0.985 . S
C606 C600 1.379 . S
C606 C603 1.363 . S
C606 N604 1.356 . S
C607 C601 1.363 . S
C607 C602 1.379 . S
C607 N605 1.356 . S
N608 C600 1.356 . S
N608 H614 0.984 . S
N608 H615 0.984 . S
N609 C602 1.356 . S
N609 H612 0.984 . S
N609 H613 0.985 . S
H610 N605 0.984 . S
H611 N605 0.985 . S
H612 N609 0.984 . S
H613 N609 0.985 . S
H614 N608 0.984 . S
H615 N608 0.984 . S
H616 N604 0.984 . S
H617 N604 0.985 . S
C618 C619 1.363 . S
C618 C624 1.379 . S
C618 N626 1.356 . S
C619 C618 1.363 . S
C619 C625 1.363 . S
C620 C621 1.363 . S
C620 C625 1.379 . S
C620 N627 1.356 . S
C621 C620 1.363 . S
C621 C624 1.363 . S
N622 C624 1.356 . S
N622 H634 0.984 . S
N622 H635 0.985 . S
N623 C625 1.356 . S
N623 H628 0.984 . S
N623 H629 0.985 . S
C624 C618 1.379 . S
C624 C621 1.363 . S
C624 N622 1.356 . S
C625 C619 1.363 . S
C625 C620 1.379 . S
C625 N623 1.356 . S
N626 C618 1.356 . S
N626 H632 0.984 . S
N626 H633 0.984 . S
N627 C620 1.356 . S
N627 H630 0.984 . S
N627 H631 0.985 . S
H628 N623 0.984 . S
H629 N623 0.985 . S
H630 N627 0.984 . S
H631 N627 0.985 . S
H632 N626 0.984 . S
H633 N626 0.984 . S
H634 N622 0.984 . S
H635 N622 0.985 . S
C636 C637 1.363 . S
C636 C642 1.379 . S
C636 N644 1.356 . S
C637 C636 1.363 . S
C637 C643 1.363 . S
C638 C639 1.363 . S
C638 C643 1.379 . S
C638 N645 1.356 . S
C639 C638 1.363 . S
C639 C642 1.363 . S
N640 C642 1.356 . S
N640 H652 0.984 . S
N640 H653 0.985 . S
N641 C643 1.356 . S
N641 H646 0.984 . S
N641 H647 0.985 . S
C642 C636 1.379 . S
C642 C639 1.363 . S
C642 N640 1.356 . S
C643 C637 1.363 . S
C643 C638 1.379 . S
C643 N641 1.356 . S
N644 C636 1.356 . S
N644 H650 0.984 . S
N644 H651 0.984 . S
N645 C638 1.356 . S
N645 H648 0.984 . S
N645 H649 0.985 . S
H646 N641 0.984 . S
H647 N641 0.985 . S
H648 N645 0.984 . S
H649 N645 0.985 . S
H650 N644 0.984 . S
H651 N644 0.984 . S
H652 N640 0.984 . S
H653 N640 0.985 . S
C654 C655 1.363 . S
C654 C660 1.379 . S
C654 N662 1.356 . S
C655 C654 1.363 . S
C655 C661 1.363 . S
C656 C657 1.363 . S
C656 C661 1.379 . S
C656 N663 1.356 . S
C657 C656 1.363 . S
C657 C660 1.363 . S
N658 C660 1.356 . S
N658 H670 0.984 . S
N658 H671 0.985 . S
N659 C661 1.356 . S
N659 H664 0.984 . S
N659 H665 0.985 . S
C660 C654 1.379 . S
C660 C657 1.363 . S
C660 N658 1.356 . S
C661 C655 1.363 . S
C661 C656 1.379 . S
C661 N659 1.356 . S
N662 C654 1.356 . S
N662 H668 0.984 . S
N662 H669 0.984 . S
N663 C656 1.356 . S
N663 H666 0.984 . S
N663 H667 0.985 . S
H664 N659 0.984 . S
H665 N659 0.985 . S
H666 N663 0.984 . S
H667 N663 0.985 . S
H668 N662 0.984 . S
H669 N662 0.984 . S
H670 N658 0.984 . S
H671 N658 0.985 . S
C672 C673 1.363 . S
C672 C678 1.379 . S
C672 N680 1.356 . S
C673 C672 1.363 . S
C673 C679 1.363 . S
C674 C675 1.363 . S
C674 C679 1.379 . S
C674 N681 1.356 . S
C675 C674 1.363 . S
C675 C678 1.363 . S
N676 C678 1.356 . S
N676 H688 0.984 . S
N676 H689 0.985 . S
N677 C679 1.356 . S
N677 H682 0.984 . S
N677 H683 0.985 . S
C678 C672 1.379 . S
C678 C675 1.363 . S
C678 N676 1.356 . S
C679 C673 1.363 . S
C679 C674 1.379 . S
C679 N677 1.356 . S
N680 C672 1.356 . S
N680 H686 0.984 . S
N680 H687 0.984 . S
N681 C674 1.356 . S
N681 H684 0.984 . S
N681 H685 0.985 . S
H682 N677 0.984 . S
H683 N677 0.985 . S
H684 N681 0.984 . S
H685 N681 0.985 . S
H686 N680 0.984 . S
H687 N680 0.984 . S
H688 N676 0.984 . S
H689 N676 0.985 . S
C690 C691 1.363 . S
C690 C696 1.379 . S
C690 N698 1.356 . S
C691 C690 1.363 . S
C691 C697 1.363 . S
C692 C693 1.363 . S
C692 C697 1.379 . S
C692 N699 1.356 . S
C693 C692 1.363 . S
C693 C696 1.363 . S
N694 C696 1.356 . S
N694 H706 0.984 . S
N694 H707 0.985 . S
N695 C697 1.356 . S
N695 H700 0.984 . S
N695 H701 0.985 . S
C696 C690 1.379 . S
C696 C693 1.363 . S
C696 N694 1.356 . S
C697 C691 1.363 . S
C697 C692 1.379 . S
C697 N695 1.356 . S
N698 C690 1.356 . S
N698 H704 0.984 . S
N698 H705 0.984 . S
N699 C692 1.356 . S
N699 H702 0.984 . S
N699 H703 0.985 . S
H700 N695 0.984 . S
H701 N695 0.985 . S
H702 N699 0.984 . S
H703 N699 0.985 . S
H704 N698 0.984 . S
H705 N698 0.984 . S
H706 N694 0.984 . S
H707 N694 0.985 . S
C708 C709 1.363 . S
C708 C714 1.379 . S
C708 N716 1.356 . S
C709 C708 1.363 . S
C709 C715 1.363 . S
C710 C711 1.363 . S
C710 C715 1.379 . S
C710 N717 1.356 . S
C711 C710 1.363 . S
C711 C714 1.363 . S
N712 C714 1.356 . S
N712 H724 0.984 . S
N712 H725 0.985 . S
N713 C715 1.356 . S
N713 H718 0.984 . S
N713 H719 0.985 . S
C714 C708 1.379 . S
C714 C711 1.363 . S
C714 N712 1.356 . S
C715 C709 1.363 . S
C715 C710 1.379 . S
C715 N713 1.356 . S
N716 C708 1.356 . S
N716 H722 0.984 . S
N716 H723 0.984 . S
N717 C710 1.356 . S
N717 H720 0.984 . S
N717 H721 0.985 . S
H718 N713 0.984 . S
H719 N713 0.985 . S
H720 N717 0.984 . S
H721 N717 0.985 . S
H722 N716 0.984 . S
H723 N716 0.984 . S
H724 N712 0.984 . S
H725 N712 0.985 . S
C726 C727 1.363 . S
C726 C732 1.379 . S
C726 N734 1.356 . S
C727 C726 1.363 . S
C727 C733 1.363 . S
C728 C729 1.363 . S
C728 C733 1.379 . S
C728 N735 1.356 . S
C729 C728 1.363 . S
C729 C732 1.363 . S
N730 C732 1.356 . S
N730 H742 0.984 . S
N730 H743 0.985 . S
N731 C733 1.356 . S
N731 H736 0.984 . S
N731 H737 0.985 . S
C732 C726 1.379 . S
C732 C729 1.363 . S
C732 N730 1.356 . S
C733 C727 1.363 . S
C733 C728 1.379 . S
C733 N731 1.356 . S
N734 C726 1.356 . S
N734 H740 0.984 . S
N734 H741 0.984 . S
N735 C728 1.356 . S
N735 H738 0.984 . S
N735 H739 0.985 . S
H736 N731 0.984 . S
H737 N731 0.985 . S
H738 N735 0.984 . S
H739 N735 0.985 . S
H740 N734 0.984 . S
H741 N734 0.984 . S
H742 N730 0.984 . S
H743 N730 0.985 . S
C744 C745 1.363 . S
C744 C750 1.379 . S
C744 N752 1.356 . S
C745 C744 1.363 . S
C745 C751 1.363 . S
C746 C747 1.363 . S
C746 C751 1.379 . S
C746 N753 1.356 . S
C747 C746 1.363 . S
C747 C750 1.363 . S
N748 C750 1.356 . S
N748 H760 0.984 . S
N748 H761 0.985 . S
N749 C751 1.356 . S
N749 H754 0.984 . S
N749 H755 0.985 . S
C750 C744 1.379 . S
C750 C747 1.363 . S
C750 N748 1.356 . S
C751 C745 1.363 . S
C751 C746 1.379 . S
C751 N749 1.356 . S
N752 C744 1.356 . S
N752 H758 0.984 . S
N752 H759 0.984 . S
N753 C746 1.356 . S
N753 H756 0.984 . S
N753 H757 0.985 . S
H754 N749 0.984 . S
H755 N749 0.985 . S
H756 N753 0.984 . S
H757 N753 0.985 . S
H758 N752 0.984 . S
H759 N752 0.984 . S
H760 N748 0.984 . S
H761 N748 0.985 . S
C762 C763 1.363 . S
C762 C768 1.379 . S
C762 N770 1.356 . S
C763 C762 1.363 . S
C763 C769 1.363 . S
C764 C765 1.363 . S
C764 C769 1.379 . S
C764 N771 1.356 . S
C765 C764 1.363 . S
C765 C768 1.363 . S
N766 C768 1.356 . S
N766 H778 0.984 . S
N766 H779 0.985 . S
N767 C769 1.356 . S
N767 H772 0.984 . S
N767 H773 0.985 . S
C768 C762 1.379 . S
C768 C765 1.363 . S
C768 N766 1.356 . S
C769 C763 1.363 . S
C769 C764 1.379 . S
C769 N767 1.356 . S
N770 C762 1.356 . S
N770 H776 0.984 . S
N770 H777 0.984 . S
N771 C764 1.356 . S
N771 H774 0.984 . S
N771 H775 0.985 . S
H772 N767 0.984 . S
H773 N767 0.985 . S
H774 N771 0.984 . S
H775 N771 0.985 . S
H776 N770 0.984 . S
H777 N770 0.984 . S
H778 N766 0.984 . S
H779 N766 0.985 . S
C780 C781 1.363 . S
C780 C786 1.379 . S
C780 N788 1.356 . S
C781 C780 1.363 . S
C781 C787 1.363 . S
C782 C783 1.363 . S
C782 C787 1.379 . S
C782 N789 1.356 . S
C783 C782 1.363 . S
C783 C786 1.363 . S
N784 C786 1.356 . S
N784 H796 0.984 . S
N784 H797 0.985 . S
N785 C787 1.356 . S
N785 H790 0.984 . S
N785 H791 0.985 . S
C786 C780 1.379 . S
C786 C783 1.363 . S
C786 N784 1.356 . S
C787 C781 1.363 . S
C787 C782 1.379 . S
C787 N785 1.356 . S
N788 C780 1.356 . S
N788 H794 0.984 . S
N788 H795 0.984 . S
N789 C782 1.356 . S
N789 H792 0.984 . S
N789 H793 0.985 . S
H790 N785 0.984 . S
H791 N785 0.985 . S
H792 N789 0.984 . S
H793 N789 0.985 . S
H794 N788 0.984 . S
H795 N788 0.984 . S
H796 N784 0.984 . S
H797 N784 0.985 . S
C798 C799 1.363 . S
C798 C804 1.379 . S
C798 N806 1.356 . S
C799 C798 1.363 . S
C799 C805 1.363 . S
C800 C801 1.363 . S
C800 C805 1.379 . S
C800 N807 1.356 . S
C801 C800 1.363 . S
C801 C804 1.363 . S
N802 C804 1.356 . S
N802 H814 0.984 . S
N802 H815 0.985 . S
N803 C805 1.356 . S
N803 H808 0.984 . S
N803 H809 0.985 . S
C804 C798 1.379 . S
C804 C801 1.363 . S
C804 N802 1.356 . S
C805 C799 1.363 . S
C805 C800 1.379 . S
C805 N803 1.356 . S
N806 C798 1.356 . S
N806 H812 0.984 . S
N806 H813 0.984 . S
N807 C800 1.356 . S
N807 H810 0.984 . S
N807 H811 0.985 . S
H808 N803 0.984 . S
H809 N803 0.985 . S
H810 N807 0.984 . S
H811 N807 0.985 . S
H812 N806 0.984 . S
H813 N806 0.984 . S
H814 N802 0.984 . S
H815 N802 0.985 . S
C816 C817 1.363 . S
C816 C822 1.379 . S
C816 N824 1.356 . S
C817 C816 1.363 . S
C817 C823 1.363 . S
C818 C819 1.363 . S
C818 C823 1.379 . S
C818 N825 1.356 . S
C819 C818 1.363 . S
C819 C822 1.363 . S
N820 C822 1.356 . S
N820 H832 0.984 . S
N820 H833 0.985 . S
N821 C823 1.356 . S
N821 H826 0.984 . S
N821 H827 0.985 . S
C822 C816 1.379 . S
C822 C819 1.363 . S
C822 N820 1.356 . S
C823 C817 1.363 . S
C823 C818 1.379 . S
C823 N821 1.356 . S
N824 C816 1.356 . S
N824 H830 0.984 . S
N824 H831 0.984 . S
N825 C818 1.356 . S
N825 H828 0.984 . S
N825 H829 0.985 . S
H826 N821 0.984 . S
H827 N821 0.985 . S
H828 N825 0.984 . S
H829 N825 0.985 . S
H830 N824 0.984 . S
H831 N824 0.984 . S
H832 N820 0.984 . S
H833 N820 0.985 . S
C834 C835 1.363 . S
C834 C840 1.379 . S
C834 N842 1.356 . S
C835 C834 1.363 . S
C835 C841 1.363 . S
C836 C837 1.363 . S
C836 C841 1.379 . S
C836 N843 1.356 . S
C837 C836 1.363 . S
C837 C840 1.363 . S
N838 C840 1.356 . S
N838 H850 0.984 . S
N838 H851 0.985 . S
N839 C841 1.356 . S
N839 H844 0.984 . S
N839 H845 0.985 . S
C840 C834 1.379 . S
C840 C837 1.363 . S
C840 N838 1.356 . S
C841 C835 1.363 . S
C841 C836 1.379 . S
C841 N839 1.356 . S
N842 C834 1.356 . S
N842 H848 0.984 . S
N842 H849 0.984 . S
N843 C836 1.356 . S
N843 H846 0.984 . S
N843 H847 0.985 . S
H844 N839 0.984 . S
H845 N839 0.985 . S
H846 N843 0.984 . S
H847 N843 0.985 . S
H848 N842 0.984 . S
H849 N842 0.984 . S
H850 N838 0.984 . S
H851 N838 0.985 . S
C852 C853 1.363 . S
C852 C858 1.379 . S
C852 N860 1.356 . S
C853 C852 1.363 . S
C853 C859 1.363 . S
C854 C855 1.363 . S
C854 C859 1.379 . S
C854 N861 1.356 . S
C855 C854 1.363 . S
C855 C858 1.363 . S
N856 C858 1.356 . S
N856 H868 0.984 . S
N856 H869 0.985 . S
N857 C859 1.356 . S
N857 H862 0.984 . S
N857 H863 0.985 . S
C858 C852 1.379 . S
C858 C855 1.363 . S
C858 N856 1.356 . S
C859 C853 1.363 . S
C859 C854 1.379 . S
C859 N857 1.356 . S
N860 C852 1.356 . S
N860 H866 0.984 . S
N860 H867 0.984 . S
N861 C854 1.356 . S
N861 H864 0.984 . S
N861 H865 0.985 . S
H862 N857 0.984 . S
H863 N857 0.985 . S
H864 N861 0.984 . S
H865 N861 0.985 . S
H866 N860 0.984 . S
H867 N860 0.984 . S
H868 N856 0.984 . S
H869 N856 0.985 . S
C870 C871 1.363 . S
C870 C876 1.379 . S
C870 N878 1.356 . S
C871 C870 1.363 . S
C871 C877 1.363 . S
C872 C873 1.363 . S
C872 C877 1.379 . S
C872 N879 1.356 . S
C873 C872 1.363 . S
C873 C876 1.363 . S
N874 C876 1.356 . S
N874 H886 0.984 . S
N874 H887 0.985 . S
N875 C877 1.356 . S
N875 H880 0.984 . S
N875 H881 0.985 . S
C876 C870 1.379 . S
C876 C873 1.363 . S
C876 N874 1.356 . S
C877 C871 1.363 . S
C877 C872 1.379 . S
C877 N875 1.356 . S
N878 C870 1.356 . S
N878 H884 0.984 . S
N878 H885 0.984 . S
N879 C872 1.356 . S
N879 H882 0.984 . S
N879 H883 0.985 . S
H880 N875 0.984 . S
H881 N875 0.985 . S
H882 N879 0.984 . S
H883 N879 0.985 . S
H884 N878 0.984 . S
H885 N878 0.984 . S
H886 N874 0.984 . S
H887 N874 0.985 . S
C888 C889 1.363 . S
C888 C894 1.379 . S
C888 N896 1.356 . S
C889 C888 1.363 . S
C889 C895 1.363 . S
C890 C891 1.363 . S
C890 C895 1.379 . S
C890 N897 1.356 . S
C891 C890 1.363 . S
C891 C894 1.363 . S
N892 C894 1.356 . S
N892 H904 0.984 . S
N892 H905 0.985 . S
N893 C895 1.356 . S
N893 H898 0.984 . S
N893 H899 0.985 . S
C894 C888 1.379 . S
C894 C891 1.363 . S
C894 N892 1.356 . S
C895 C889 1.363 . S
C895 C890 1.379 . S
C895 N893 1.356 . S
N896 C888 1.356 . S
N896 H902 0.984 . S
N896 H903 0.984 . S
N897 C890 1.356 . S
N897 H900 0.984 . S
N897 H901 0.985 . S
H898 N893 0.984 . S
H899 N893 0.985 . S
H900 N897 0.984 . S
H901 N897 0.985 . S
H902 N896 0.984 . S
H903 N896 0.984 . S
H904 N892 0.984 . S
H905 N892 0.985 . S
C906 C907 1.363 . S
C906 C912 1.379 . S
C906 N914 1.356 . S
C907 C906 1.363 . S
C907 C913 1.363 . S
C908 C909 1.363 . S
C908 C913 1.379 . S
C908 N915 1.356 . S
C909 C908 1.363 . S
C909 C912 1.363 . S
N910 C912 1.356 . S
N910 H922 0.984 . S
N910 H923 0.985 . S
N911 C913 1.356 . S
N911 H916 0.984 . S
N911 H917 0.985 . S
C912 C906 1.379 . S
C912 C909 1.363 . S
C912 N910 1.356 . S
C913 C907 1.363 . S
C913 C908 1.379 . S
C913 N911 1.356 . S
N914 C906 1.356 . S
N914 H920 0.984 . S
N914 H921 0.984 . S
N915 C908 1.356 . S
N915 H918 0.984 . S
N915 H919 0.985 . S
H916 N911 0.984 . S
H917 N911 0.985 . S
H918 N915 0.984 . S
H919 N915 0.985 . S
H920 N914 0.984 . S
H921 N914 0.984 . S
H922 N910 0.984 . S
H923 N910 0.985 . S
C924 C925 1.363 . S
C924 C930 1.379 . S
C924 N932 1.356 . S
C925 C924 1.363 . S
C925 C931 1.363 . S
C926 C927 1.363 . S
C926 C931 1.379 . S
C926 N933 1.356 . S
C927 C926 1.363 . S
C927 C930 1.363 . S
N928 C930 1.356 . S
N928 H940 0.984 . S
N928 H941 0.985 . S
N929 C931 1.356 . S
N929 H934 0.984 . S
N929 H935 0.985 . S
C930 C924 1.379 . S
C930 C927 1.363 . S
C930 N928 1.356 . S
C931 C925 1.363 . S
C931 C926 1.379 . S
C931 N929 1.356 . S
N932 C924 1.356 . S
N932 H938 0.984 . S
N932 H939 0.984 . S
N933 C926 1.356 . S
N933 H936 0.984 . S
N933 H937 0.985 . S
H934 N929 0.984 . S
H935 N929 0.985 . S
H936 N933 0.984 . S
H937 N933 0.985 . S
H938 N932 0.984 . S
H939 N932 0.984 . S
H940 N928 0.984 . S
H941 N928 0.985 . S
C942 C943 1.363 . S
C942 C948 1.379 . S
C942 N950 1.356 . S
C943 C942 1.363 . S
C943 C949 1.363 . S
C944 C945 1.363 . S
C944 C949 1.379 . S
C944 N951 1.356 . S
C945 C944 1.363 . S
C945 C948 1.363 . S
N946 C948 1.356 . S
N946 H958 0.984 . S
N946 H959 0.985 . S
N947 C949 1.356 . S
N947 H952 0.984 . S
N947 H953 0.985 . S
C948 C942 1.379 . S
C948 C945 1.363 . S
C948 N946 1.356 . S
C949 C943 1.363 . S
C949 C944 1.379 . S
C949 N947 1.356 . S
N950 C942 1.356 . S
N950 H956 0.984 . S
N950 H957 0.984 . S
N951 C944 1.356 . S
N951 H954 0.984 . S
N951 H955 0.985 . S
H952 N947 0.984 . S
H953 N947 0.985 . S
H954 N951 0.984 . S
H955 N951 0.985 . S
H956 N950 0.984 . S
H957 N950 0.984 . S
H958 N946 0.984 . S
H959 N946 0.985 . S
C960 C961 1.363 . S
C960 C966 1.379 . S
C960 N968 1.356 . S
C961 C960 1.363 . S
C961 C967 1.363 . S
C962 C963 1.363 . S
C962 C967 1.379 . S
C962 N969 1.356 . S
C963 C962 1.363 . S
C963 C966 1.363 . S
N964 C966 1.356 . S
N964 H976 0.984 . S
N964 H977 0.985 . S
N965 C967 1.356 . S
N965 H970 0.984 . S
N965 H971 0.985 . S
C966 C960 1.379 . S
C966 C963 1.363 . S
C966 N964 1.356 . S
C967 C961 1.363 . S
C967 C962 1.379 . S
C967 N965 1.356 . S
N968 C960 1.356 . S
N968 H974 0.984 . S
N968 H975 0.984 . S
N969 C962 1.356 . S
N969 H972 0.984 . S
N969 H973 0.985 . S
H970 N965 0.984 . S
H971 N965 0.985 . S
H972 N969 0.984 . S
H973 N969 0.985 . S
H974 N968 0.984 . S
H975 N968 0.984 . S
H976 N964 0.984 . S
H977 N964 0.985 . S
C978 C979 1.363 . S
C978 C984 1.379 . S
C978 N986 1.356 . S
C979 C978 1.363 . S
C979 C985 1.363 . S
C980 C981 1.363 . S
C980 C985 1.379 . S
C980 N987 1.356 . S
C981 C980 1.363 . S
C981 C984 1.363 . S
N982 C984 1.356 . S
N982 H994 0.984 . S
N982 H995 0.985 . S
N983 C985 1.356 . S
N983 H988 0.984 . S
N983 H989 0.985 . S
C984 C978 1.379 . S
C984 C981 1.363 . S
C984 N982 1.356 . S
C985 C979 1.363 . S
C985 C980 1.379 . S
C985 N983 1.356 . S
N986 C978 1.356 . S
N986 H992 0.984 . S
N986 H993 0.984 . S
N987 C980 1.356 . S
N987 H990 0.984 . S
N987 H991 0.985 . S
H988 N983 0.984 . S
H989 N983 0.985 . S
H990 N987 0.984 . S
H991 N987 0.985 . S
H992 N986 0.984 . S
H993 N986 0.984 . S
H994 N982 0.984 . S
H995 N982 0.985 . S
C567 C492 1.507 . S
C565 C31 1.493 . S
C585 C495 1.507 . S
C583 C61 1.493 . S
C603 C493 1.507 . S
C601 C121 1.476 . S
C621 C494 1.507 . S
C619 C211 1.476 . S
C639 C509 1.505 . S
C637 C1 1.488 . S
C657 C523 1.505 . S
C655 C91 1.484 . S
C673 C151 1.474 . S
C675 C549 1.507 . S
C693 C563 1.505 . S
C691 C181 1.486 . S
C711 C508 1.505 . S
C709 C80 1.491 . S
C727 C140 1.485 . S
C729 C522 1.504 . S
C747 C548 1.505 . S
C745 C200 1.473 . S
C765 C562 1.505 . S
C763 C20 1.482 . S
C781 C271 1.493 . S
C783 C507 1.507 . S
C801 C480 1.507 . S
C799 C331 1.482 . S
C817 C380 1.487 . S
C819 C506 1.507 . S
C835 C421 1.487 . S
C837 C481 1.507 . S
C855 C536 1.505 . S
C853 C241 1.491 . S
C873 C550 1.505 . S
C871 C320 1.477 . S
C891 C520 1.505 . S
C889 C361 1.482 . S
C907 C440 1.490 . S
C909 C534 1.504 . S
C927 C537 1.505 . S
C925 C301 1.478 . S
C945 C551 1.505 . S
C943 C391 1.491 . S
C963 C521 1.505 . S
C961 C451 1.486 . S
C979 C260 1.483 . S
C981 C535 1.506 . S
