# Generated by pormake.
# Topology tsx, (6,3)-cn, num edge types: 1
# Building blocks:
#     Node 0, Type 0, BuildingBlock: JUFBIX_clean_sbu_0, # of connection points: 6
#     Node 1, Type 0, BuildingBlock: JUFBIX_clean_sbu_0, # of connection points: 6
#     Node 2, Type 1, BuildingBlock: BETDIP_clean_linker_0, # of connection points: 3
#     Node 3, Type 1, BuildingBlock: BETDIP_clean_linker_0, # of connection points: 3
#     Node 4, Type 1, BuildingBlock: BETDIP_clean_linker_0, # of connection points: 3
#     Node 5, Type 1, BuildingBlock: BETDIP_clean_linker_0, # of connection points: 3
#     Edge 6, Type (0, 1), BuildingBlock: KIFKEQ_clean_linker_1, # of connection points: 2
#     Edge 7, Type (0, 1), BuildingBlock: KIFKEQ_clean_linker_1, # of connection points: 2
#     Edge 8, Type (0, 1), BuildingBlock: KIFKEQ_clean_linker_1, # of connection points: 2
#     Edge 9, Type (0, 1), BuildingBlock: KIFKEQ_clean_linker_1, # of connection points: 2
#     Edge 10, Type (0, 1), BuildingBlock: KIFKEQ_clean_linker_1, # of connection points: 2
#     Edge 11, Type (0, 1), BuildingBlock: KIFKEQ_clean_linker_1, # of connection points: 2
#     Edge 12, Type (0, 1), BuildingBlock: KIFKEQ_clean_linker_1, # of connection points: 2
#     Edge 13, Type (0, 1), BuildingBlock: KIFKEQ_clean_linker_1, # of connection points: 2
#     Edge 14, Type (0, 1), BuildingBlock: KIFKEQ_clean_linker_1, # of connection points: 2
#     Edge 15, Type (0, 1), BuildingBlock: KIFKEQ_clean_linker_1, # of connection points: 2
#     Edge 16, Type (0, 1), BuildingBlock: KIFKEQ_clean_linker_1, # of connection points: 2
#     Edge 17, Type (0, 1), BuildingBlock: KIFKEQ_clean_linker_1, # of connection points: 2
# Relax obj value: 0.106
# Max RMSD: 0.132
# Mean RMSD: 0.118
data_MOF--net-tsx--node1-JUFBIX_clean_sbu_0--node2-BETDIP_clean_linker_0--edge1-KIFKEQ_clean_linker_1
_symmetry_space_group_name_H-M    P1
_symmetry_Int_Tables_number       1
_symmetry_cell_setting            triclinic
loop_
_symmetry_equiv_pos_as_xyz
'x, y, z'
_cell_length_a     20.564256
_cell_length_b     24.074435
_cell_length_c     33.853164
_cell_angle_alpha  93.215835
_cell_angle_beta   97.787793
_cell_angle_gamma 98.789865
loop_
_atom_site_label
_atom_site_type_symbol
_atom_site_fract_x
_atom_site_fract_y
_atom_site_fract_z
_atom_type_partial_charge
Co0 Co 0.08647 0.98129 -0.00704 0.0
C1 C 0.01444 0.99608 0.91872 0.0
Co2 Co 1.00481 0.03098 -0.0051 0.0
C3 C 0.17563 0.89685 8e-05 0.0
C4 C 0.20467 0.96318 0.96338 0.0
N5 N 0.1583 0.94507 -0.01358 0.0
N6 N 0.23141 0.88485 -0.01334 0.0
C7 C 0.24953 0.92664 0.96361 0.0
H8 H 0.14761 0.87085 0.01905 0.0
H9 H 0.2049 0.99993 0.9464 0.0
C10 C 0.07728 0.01741 0.0691 0.0
N11 N 0.93396 0.06825 0.00155 0.0
C12 C 0.91927 0.11671 -0.01294 0.0
C13 C 0.88743 0.05321 0.02521 0.0
N14 N 0.86531 0.1321 0.00065 0.0
C15 C 0.84501 0.09207 0.0245 0.0
C16 C 0.97023 0.91396 -9e-05 0.0
O17 O 0.1095 0.98731 0.04944 0.0
O18 O 0.03124 0.03982 0.05062 0.0
O19 O 0.95116 0.96167 0.00021 0.0
O20 O 0.03001 0.91071 -0.00449 0.0
O21 O 0.97909 0.02215 0.9389 0.0
H22 H 0.88545 0.01708 0.04284 0.0
H23 H 0.94781 0.14045 0.96717 0.0
O24 O 0.06279 0.97589 0.93678 0.0
O25 O 0.14194 0.0524 -0.00914 0.0
O26 O 0.05921 0.09992 -0.01027 0.0
C27 C 0.12052 0.09908 -0.01105 0.0
H28 H 0.29076 0.92938 0.94665 0.0
H29 H 0.80379 0.09194 0.0413 0.0
Co30 Co 0.53228 0.4751 0.48752 0.0
C31 C 0.46861 0.51086 0.41577 0.0
Co32 Co 0.46317 0.53625 0.49357 0.0
C33 C 0.64348 0.40895 0.4919 0.0
C34 C 0.56021 0.37825 0.44684 0.0
N35 N 0.58348 0.42038 0.47564 0.0
N36 N 0.65743 0.3609 0.47446 0.0
C37 C 0.60515 0.34202 0.44602 0.0
H38 H 0.67524 0.43428 0.51662 0.0
H39 H 0.51261 0.37349 0.4279 0.0
C40 C 0.52783 0.50113 0.56529 0.0
N41 N 0.40794 0.5873 0.50541 0.0
C42 C 0.39991 0.6377 0.49144 0.0
C43 C 0.36559 0.57946 0.53248 0.0
N44 N 0.35421 0.6615 0.50892 0.0
C45 C 0.33264 0.62462 0.53466 0.0
C46 C 0.40099 0.42594 0.49055 0.0
O47 O 0.55671 0.47157 0.54306 0.0
O48 O 0.48682 0.53074 0.54931 0.0
O49 O 0.39072 0.47655 0.4921 0.0
O50 O 0.45935 0.41618 0.48845 0.0
O51 O 0.44063 0.54157 0.43775 0.0
H52 H 0.35888 0.5429 0.54958 0.0
H53 H 0.42751 0.65664 0.46921 0.0
O54 O 0.50745 0.47975 0.43205 0.0
O55 O 0.60468 0.53488 0.48711 0.0
O56 O 0.53607 0.59527 0.49472 0.0
C57 C 0.59422 0.58569 0.49079 0.0
H58 H 0.59985 0.30458 0.42583 0.0
H59 H 0.29463 0.6292 0.55324 0.0
H60 H 0.10015 0.01991 0.48044 0.0
H61 H 0.05083 0.10338 0.37391 0.0
H62 H 0.17293 0.97412 0.37192 0.0
H63 H 0.06887 0.17942 0.42553 0.0
C64 C 0.03383 0.15817 0.44329 0.0
C65 C 0.10403 0.02566 0.44932 0.0
C66 C 0.14283 0.99376 0.42891 0.0
C67 C 0.07264 0.06675 0.42997 0.0
C68 C 0.0766 0.07302 0.38932 0.0
C69 C 0.11253 0.03961 0.3682 0.0
C70 C 0.14608 1.00074 0.38833 0.0
N71 N 0.0366 0.10109 0.45136 0.0
H72 H 0.96841 0.96675 0.50359 0.0
H73 H 0.02945 0.06282 0.6173 0.0
H74 H 0.91389 0.89787 0.61151 0.0
H75 H 0.0117 0.13558 0.57396 0.0
C76 C 0.04457 0.12229 0.55399 0.0
C77 C 0.96909 0.97065 0.53571 0.0
C78 C 0.93727 0.92607 0.55494 0.0
C79 C 1.00171 0.02049 0.55806 0.0
C80 C 1.00317 0.0251 0.59972 0.0
C81 C 0.97151 0.98111 0.61906 0.0
C82 C 0.93855 0.93194 0.59653 0.0
N83 N 0.03498 0.06491 0.5387 0.0
H84 H 0.60333 0.48586 0.98092 0.0
H85 H 0.51192 0.5455 0.87328 0.0
H86 H 0.65394 0.43315 0.86681 0.0
H87 H 0.41842 0.52161 0.91408 0.0
C88 C 0.44583 0.55085 0.93848 0.0
C89 C 0.59792 0.48684 0.94872 0.0
C90 C 0.6351 0.45596 0.92631 0.0
C91 C 0.55204 0.51766 0.92954 0.0
C92 C 0.54558 0.51994 0.88787 0.0
C93 C 0.58361 0.49069 0.86517 0.0
C94 C 0.62751 0.45835 0.88458 0.0
N95 N 0.51318 0.54684 0.95247 0.0
H96 H 0.49524 0.47426 0.01026 0.0
H97 H 0.56157 0.57854 0.11998 0.0
H98 H 0.39454 0.44568 0.1125 0.0
H99 H 0.55901 0.64353 0.06462 0.0
C100 C 0.59486 0.62278 0.05099 0.0
C101 C 0.49015 0.48515 0.04101 0.0
C102 C 0.43819 0.45561 0.05834 0.0
C103 C 0.53359 0.53049 0.06282 0.0
C104 C 0.52711 0.54432 0.10283 0.0
C105 C 0.47691 0.51402 0.12091 0.0
C106 C 0.43237 0.47019 0.09834 0.0
N107 N 0.58253 0.56316 0.04417 0.0
H108 H 0.09012 0.20247 0.97184 0.0
H109 H 0.25607 0.11531 0.00382 0.0
H110 H 0.16634 0.29144 0.97664 0.0
H111 H 0.33196 0.20435 0.01043 0.0
H112 H 0.46364 0.36867 0.00978 0.0
H113 H 0.38576 0.28398 0.982 0.0
H114 H 0.22738 0.3514 0.03054 0.0
H115 H 0.30403 0.43638 0.05619 0.0
C116 C 0.14294 0.20231 0.97973 0.0
C117 C 0.16703 0.15205 -0.012 0.0
C118 C 0.18666 0.25333 0.98262 0.0
C119 C 0.25535 0.25535 -0.00556 0.0
C120 C 0.2796 0.20451 0.00079 0.0
C121 C 0.23596 0.1534 -0.00262 0.0
C122 C 0.41175 0.36584 0.01346 0.0
C123 C 0.39009 0.4086 0.03577 0.0
C124 C 0.36726 0.31711 -0.00204 0.0
C125 C 0.30038 0.31035 0.00451 0.0
C126 C 0.27819 0.35501 0.02454 0.0
C127 C 0.32239 0.40358 0.03976 0.0
H128 H 0.17237 0.77849 -0.00371 0.0
H129 H 0.36153 0.8796 -0.01205 0.0
H130 H 0.22372 0.6933 -0.00592 0.0
H131 H 0.41203 0.79529 0.98387 0.0
H132 H 0.50155 0.64104 -0.00858 0.0
H133 H 0.44831 0.71784 0.01458 0.0
H134 H 0.26318 0.6404 0.94266 0.0
H135 H 0.31621 0.56189 0.92173 0.0
C136 C 0.22508 0.78259 -0.00531 0.0
C137 C 0.26274 0.83562 -0.0083 0.0
C138 C 0.25439 0.7338 -0.00704 0.0
C139 C 0.32191 0.73723 -0.01168 0.0
C140 C 0.36015 0.79076 -0.0122 0.0
C141 C 0.33098 0.83923 -0.01039 0.0
C142 C 0.44907 0.63951 0.98176 0.0
C143 C 0.41288 0.59532 0.95518 0.0
C144 C 0.41859 0.68396 -0.00548 0.0
C145 C 0.35141 0.6857 0.98029 0.0
C146 C 0.31466 0.64023 0.95474 0.0
C147 C 0.34513 0.59549 0.94239 0.0
H148 H 0.88175 0.91305 0.05116 0.0
H149 H 0.95229 0.80423 0.96654 0.0
H150 H 0.79405 0.83775 0.0603 0.0
H151 H 0.86145 0.7279 0.97459 0.0
H152 H 0.71476 0.59554 0.03477 0.0
H153 H 0.81097 0.66193 0.02091 0.0
H154 H 0.69277 0.79586 0.01953 0.0
H155 H 0.59909 0.73069 0.03507 0.0
C156 C 0.87819 0.87278 0.03436 0.0
C157 C 0.92294 0.86469 0.00763 0.0
C158 C 0.8276 0.82962 0.03939 0.0
C159 C 0.81931 0.77729 0.01721 0.0
C160 C 0.86626 0.7679 -0.00811 0.0
C161 C 0.91811 0.8114 -0.01273 0.0
C162 C 0.70964 0.63913 0.03102 0.0
C163 C 0.65022 0.65855 0.03662 0.0
C164 C 0.76449 0.67702 0.023 0.0
C165 C 0.76009 0.73451 0.02017 0.0
C166 C 0.69871 0.75236 0.0229 0.0
C167 C 0.64482 0.71501 0.03151 0.0
H168 H 0.73545 0.14104 -0.00584 0.0
H169 H 0.92999 0.23577 -0.00953 0.0
H170 H 0.68564 0.22495 0.98202 0.0
H171 H 0.88077 0.32084 0.97966 0.0
H172 H 0.75662 0.43717 0.90916 0.0
H173 H 0.81544 0.36134 0.93022 0.0
H174 H 0.67189 0.31372 0.00954 0.0
H175 H 0.61035 0.38719 -0.01377 0.0
C176 C 0.76758 0.18017 -0.00878 0.0
C177 C 0.83645 0.18191 -0.00693 0.0
C178 C 0.73919 0.22848 -0.01541 0.0
C179 C 0.77913 0.28003 0.98016 0.0
C180 C 0.84832 0.2818 0.9824 0.0
C181 C 0.87661 0.23313 -0.01148 0.0
C182 C 0.73766 0.41058 0.93117 0.0
C183 C 0.67797 0.41754 0.94534 0.0
C184 C 0.77193 0.36742 0.94367 0.0
C185 C 0.74789 0.33061 0.97111 0.0
C186 C 0.69092 0.34032 -0.01244 0.0
C187 C 0.65615 0.38311 0.97468 0.0
H188 H 0.72659 0.58266 0.48823 0.0
H189 H 0.58526 0.69762 0.49344 0.0
H190 H 0.81667 0.66284 0.49257 0.0
H191 H 0.67488 0.77717 0.49847 0.0
H192 H 0.94992 0.81824 0.56983 0.0
H193 H 0.87062 0.73353 0.54561 0.0
H194 H 0.75953 0.83073 0.46572 0.0
H195 H 0.83869 0.91605 0.49093 0.0
C196 C 0.71466 0.62494 0.49003 0.0
C197 C 0.64882 0.6337 0.49094 0.0
C198 C 0.76626 0.67087 0.49254 0.0
C199 C 0.75307 0.72649 0.49587 0.0
C200 C 0.68685 0.73502 0.4953 0.0
C201 C 0.63544 0.68926 0.49289 0.0
C202 C 0.90944 0.82113 0.54635 0.0
C203 C 0.89984 0.87368 0.53257 0.0
C204 C 0.86412 0.77254 0.53228 0.0
C205 C 0.80807 0.77544 0.50415 0.0
C206 C 0.8016 0.82729 0.48792 0.0
C207 C 0.84723 0.87601 0.50196 0.0
H208 H 0.65876 0.24921 0.47047 0.0
H209 H 0.78605 0.41039 0.49731 0.0
H210 H 0.75505 0.2024 0.47167 0.0
H211 H 0.88407 0.36314 0.50037 0.0
H212 H 0.02396 0.2673 0.43406 0.0
H213 H 0.93771 0.31888 0.45193 0.0
H214 H 0.84918 0.17328 0.5065 0.0
H215 H 0.93383 0.12103 0.4867 0.0
C216 C 0.70768 0.27456 0.47737 0.0
C217 C 0.71488 0.33358 0.48299 0.0
C218 C 0.76317 0.2476 0.4786 0.0
C219 C 0.82774 0.27885 0.48577 0.0
C220 C 0.83509 0.33777 0.49407 0.0
C221 C 0.7791 0.36488 0.49278 0.0
C222 C 0.98621 0.24657 0.45013 0.0
C223 C 0.98502 0.19002 0.45848 0.0
C224 C 0.93715 0.27634 0.46084 0.0
C225 C 0.88586 0.25027 0.48042 0.0
C226 C 0.88705 0.19446 0.49074 0.0
C227 C 0.9358 0.1645 0.47962 0.0
H228 H 0.41297 0.31911 0.50934 0.0
H229 H 0.26717 0.42767 0.48066 0.0
H230 H 0.3259 0.24525 0.52241 0.0
H231 H 0.17907 0.35258 0.4916 0.0
H232 H 0.05216 0.23537 0.56311 0.0
H233 H 0.13651 0.30762 0.54435 0.0
H234 H 0.23451 0.1775 0.49662 0.0
H235 H 0.15285 0.10594 0.51831 0.0
C236 C 0.36201 0.32676 0.50503 0.0
C237 C 0.34695 0.3793 0.4942 0.0
C238 C 0.31184 0.28419 0.51231 0.0
C239 C 0.24515 0.29279 0.50829 0.0
C240 C 0.22992 0.34477 0.49591 0.0
C241 C 0.28033 0.38771 0.48928 0.0
C242 C 0.09205 0.22249 0.54875 0.0
C243 C 0.09554 0.16519 0.5416 0.0
C244 C 0.13996 0.2638 0.53747 0.0
C245 C 0.19241 0.24864 0.51865 0.0
C246 C 0.19547 0.19099 0.51143 0.0
C247 C 0.14808 0.14978 0.52331 0.0
H248 H 0.29772 0.72532 0.55906 0.0
H249 H 0.35705 0.71737 0.44147 0.0
H250 H 0.25033 0.80985 0.54451 0.0
H251 H 0.31037 0.80246 0.4272 0.0
H252 H 0.2709 0.981 0.42502 0.0
H253 H 0.32701 0.90401 0.4478 0.0
H254 H 0.15469 0.83497 0.49996 0.0
H255 H 0.09835 0.91244 0.47703 0.0
C256 C 0.30058 0.74139 0.53004 0.0
C257 C 0.33076 0.71399 0.50127 0.0
C258 C 0.27346 0.78999 0.52179 0.0
C259 C 0.27634 0.81274 0.4847 0.0
C260 C 0.30804 0.78634 0.45629 0.0
C261 C 0.33491 0.73753 0.46447 0.0
C262 C 0.24521 0.9496 0.44166 0.0
C263 C 0.17987 0.9522 0.44875 0.0
C264 C 0.27726 0.90543 0.45455 0.0
C265 C 0.24488 0.86288 0.47503 0.0
C266 C 0.181 0.86723 0.48429 0.0
C267 C 0.14876 0.91158 0.47127 0.0
H268 H 0.15533 0.96285 0.12111 0.0
H269 H 0.03004 0.09185 0.11641 0.0
H270 H 0.16865 0.9728 0.19427 0.0
H271 H 0.04442 0.10242 0.18889 0.0
H272 H 1.00676 0.04502 0.31159 0.0
H273 H 1.00427 0.04342 0.23951 0.0
H274 H 0.21531 0.03855 0.25407 0.0
H275 H 0.21783 0.04028 0.32655 0.0
C276 C 0.13144 0.99375 0.13566 0.0
C277 C 0.09102 0.02602 0.11307 0.0
C278 C 0.13927 0.99963 0.17747 0.0
C279 C 0.10691 0.03797 0.19721 0.0
C280 C 0.06882 0.07174 0.1745 0.0
C281 C 0.06083 0.06576 0.13295 0.0
C282 C 0.05285 0.04467 0.29949 0.0
C283 C 0.11248 0.04292 0.32468 0.0
C284 C 0.05145 0.04363 0.2582 0.0
C285 C 0.10966 0.04091 0.24119 0.0
C286 C 0.16958 0.03997 0.26636 0.0
C287 C 0.171 0.04108 0.30776 0.0
H288 H 0.08701 0.94894 0.86859 0.0
H289 H 0.91573 0.03315 0.86916 0.0
H290 H 0.07336 0.94648 0.79611 0.0
H291 H 0.90242 0.03074 0.79605 0.0
H292 H 0.8693 0.95607 0.66226 0.0
H293 H 0.87599 0.95923 0.73516 0.0
H294 H 0.08698 0.02041 0.74732 0.0
H295 H 0.08054 0.01632 0.67473 0.0
C296 C 0.04619 0.96671 0.85326 0.0
C297 C 1.0026 0.99152 0.87463 0.0
C298 C 0.03871 0.96558 0.81174 0.0
C299 C 0.98734 0.98898 0.79062 0.0
C300 C 0.94238 0.01232 0.81173 0.0
C301 C 0.95011 0.01379 0.85348 0.0
C302 C 0.91701 0.97014 0.68063 0.0
C303 C 0.97449 0.98575 0.663 0.0
C304 C 0.9207 0.97238 0.72221 0.0
C305 C 0.98204 0.98972 0.74672 0.0
C306 C 0.0392 1.00627 0.72904 0.0
C307 C 0.03544 1.00442 0.68758 0.0
H308 H 0.61089 0.4428 0.61097 0.0
H309 H 0.47075 0.55835 0.61916 0.0
H310 H 0.6255 0.44006 0.68376 0.0
H311 H 0.48604 0.55609 0.69139 0.0
H312 H 0.46922 0.48521 0.81246 0.0
H313 H 0.45794 0.48764 0.74001 0.0
H314 H 0.67104 0.50225 0.74565 0.0
H315 H 0.68248 0.50024 0.81825 0.0
C316 C 0.58356 0.46779 0.62825 0.0
C317 C 0.5395 0.50057 0.60928 0.0
C318 C 0.59211 0.4664 0.66989 0.0
C319 C 0.55653 0.49757 0.69319 0.0
C320 C 0.51328 0.53089 0.67419 0.0
C321 C 0.50489 0.53241 0.63276 0.0
C322 C 0.51372 0.48956 0.79831 0.0
C323 C 0.57673 0.49272 0.8211 0.0
C324 C 0.50726 0.49081 0.75681 0.0
C325 C 0.56365 0.4952 0.73719 0.0
C326 C 0.62665 0.49811 0.75991 0.0
C327 C 0.63315 0.49701 0.80145 0.0
H328 H 0.40055 0.57952 0.36879 0.0
H329 H 0.52131 0.44783 0.36341 0.0
H330 H 0.40025 0.58815 0.2967 0.0
H331 H 0.52115 0.45689 0.29255 0.0
H332 H 0.36634 0.52116 0.15683 0.0
H333 H 0.35987 0.52526 0.22869 0.0
H334 H 0.57307 0.53584 0.25376 0.0
H335 H 0.57958 0.53081 0.18235 0.0
C336 C 0.42637 0.55218 0.35228 0.0
C337 C 0.46138 0.51335 0.37189 0.0
C338 C 0.42628 0.55721 0.31118 0.0
C339 C 0.4618 0.52393 0.28942 0.0
C340 C 0.49466 0.48395 0.30883 0.0
C341 C 0.4943 0.47859 0.34946 0.0
C342 C 0.41182 0.52501 0.1778 0.0
C343 C 0.47343 0.52509 0.16403 0.0
C344 C 0.40811 0.5278 0.21881 0.0
C345 C 0.46586 0.5302 0.24658 0.0
C346 C 0.52771 0.53337 0.23285 0.0
C347 C 0.53149 0.53096 0.19201 0.0
loop_
_geom_bond_atom_site_label_1
_geom_bond_atom_site_label_2
_geom_bond_distance
_geom_bond_site_symmetry_2
_ccdc_geom_bond_type
Co0 N5 2.057 . S
Co0 O17 2.021 . S
Co0 O20 2.062 1_455 S
Co0 O24 2.117 1_554 S
Co0 O25 2.020 1_565 S
C1 O21 1.259 1_455 S
C1 O24 1.258 1_545 S
Co2 N11 2.057 . S
Co2 O18 2.117 1_655 S
Co2 O19 2.020 1_545 S
Co2 O21 2.021 1_554 S
Co2 O26 2.062 1_655 S
C3 N5 1.316 . S
C3 N6 1.347 . S
C3 H8 0.931 . S
C4 N5 1.375 1_556 S
C4 C7 1.350 . S
C4 H9 0.930 . S
N5 Co0 2.057 . S
N5 C3 1.316 . S
N5 C4 1.375 1_554 S
N6 C3 1.347 . S
N6 C7 1.373 1_554 S
C7 C4 1.350 . S
C7 N6 1.373 1_556 S
C7 H28 0.931 . S
H8 C3 0.931 . S
H9 C4 0.930 . S
C10 O17 1.259 1_545 S
C10 O18 1.258 . S
N11 Co2 2.057 . S
N11 C12 1.316 1_554 S
N11 C13 1.375 . S
C12 N11 1.316 1_556 S
C12 N14 1.347 1_556 S
C12 H23 0.931 . S
C13 N11 1.375 . S
C13 C15 1.350 . S
C13 H22 0.930 . S
N14 C12 1.347 1_554 S
N14 C15 1.373 . S
C15 C13 1.350 . S
C15 N14 1.373 . S
C15 H29 0.931 . S
C16 O19 1.256 . S
C16 O20 1.255 . S
O17 Co0 2.021 . S
O17 C10 1.259 1_565 S
O18 Co2 2.117 1_455 S
O18 C10 1.258 . S
O19 Co2 2.020 1_565 S
O19 C16 1.256 . S
O20 Co0 2.062 1_655 S
O20 C16 1.255 . S
O21 C1 1.259 1_655 S
O21 Co2 2.021 1_556 S
H22 C13 0.930 . S
H23 C12 0.931 . S
O24 Co0 2.117 1_556 S
O24 C1 1.258 1_565 S
O25 Co0 2.020 1_545 S
O25 C27 1.256 . S
O26 Co2 2.062 1_455 S
O26 C27 1.255 . S
C27 O25 1.256 . S
C27 O26 1.255 . S
H28 C7 0.931 . S
H29 C15 0.931 . S
Co30 N35 2.057 . S
Co30 O47 2.021 . S
Co30 O50 2.062 . S
Co30 O54 2.117 . S
Co30 O55 2.020 . S
C31 O51 1.259 . S
C31 O54 1.258 . S
Co32 N41 2.057 . S
Co32 O48 2.117 . S
Co32 O49 2.020 . S
Co32 O51 2.021 . S
Co32 O56 2.062 . S
C33 N35 1.316 . S
C33 N36 1.347 . S
C33 H38 0.931 . S
C34 N35 1.375 . S
C34 C37 1.350 . S
C34 H39 0.930 . S
N35 Co30 2.057 . S
N35 C33 1.316 . S
N35 C34 1.375 . S
N36 C33 1.347 . S
N36 C37 1.373 . S
C37 C34 1.350 . S
C37 N36 1.373 . S
C37 H58 0.931 . S
H38 C33 0.931 . S
H39 C34 0.930 . S
C40 O47 1.259 . S
C40 O48 1.258 . S
N41 Co32 2.057 . S
N41 C42 1.316 . S
N41 C43 1.375 . S
C42 N41 1.316 . S
C42 N44 1.347 . S
C42 H53 0.931 . S
C43 N41 1.375 . S
C43 C45 1.350 . S
C43 H52 0.930 . S
N44 C42 1.347 . S
N44 C45 1.373 . S
C45 C43 1.350 . S
C45 N44 1.373 . S
C45 H59 0.931 . S
C46 O49 1.256 . S
C46 O50 1.255 . S
O47 Co30 2.021 . S
O47 C40 1.259 . S
O48 Co32 2.117 . S
O48 C40 1.258 . S
O49 Co32 2.020 . S
O49 C46 1.256 . S
O50 Co30 2.062 . S
O50 C46 1.255 . S
O51 C31 1.259 . S
O51 Co32 2.021 . S
H52 C43 0.930 . S
H53 C42 0.931 . S
O54 Co30 2.117 . S
O54 C31 1.258 . S
O55 Co30 2.020 . S
O55 C57 1.256 . S
O56 Co32 2.062 . S
O56 C57 1.255 . S
C57 O55 1.256 . S
C57 O56 1.255 . S
H58 C37 0.931 . S
H59 C45 0.931 . S
H60 C65 0.930 . S
H61 C68 0.930 1_655 S
H62 C70 0.930 . S
H63 C64 1.016 . S
C64 H63 1.016 . S
C64 N71 1.286 . S
C65 H60 0.930 . S
C65 C66 1.397 . S
C65 C67 1.361 1_565 S
C66 C65 1.397 . S
C66 C70 1.390 . S
C67 C65 1.361 1_545 S
C67 C68 1.393 . S
C67 N71 1.413 1_455 S
C68 H61 0.930 1_455 S
C68 C67 1.393 . S
C68 C69 1.399 1_545 S
C69 C68 1.399 1_565 S
C69 C70 1.381 . S
C70 H62 0.930 . S
C70 C66 1.390 . S
C70 C69 1.381 . S
N71 C64 1.286 . S
N71 C67 1.413 1_655 S
H72 C77 0.930 . S
H73 C80 0.930 . S
H74 C82 0.930 . S
H75 C76 1.016 . S
C76 H75 1.016 . S
C76 N83 1.286 . S
C77 H72 0.930 . S
C77 C78 1.397 . S
C77 C79 1.361 1_665 S
C78 C77 1.397 . S
C78 C82 1.390 . S
C79 C77 1.361 1_445 S
C79 C80 1.393 . S
C79 N83 1.413 . S
C80 H73 0.930 . S
C80 C79 1.393 . S
C80 C81 1.392 1_445 S
C81 C80 1.392 1_665 S
C81 C82 1.390 . S
C82 H74 0.930 . S
C82 C78 1.390 . S
C82 C81 1.390 . S
N83 C76 1.286 . S
N83 C79 1.413 . S
H84 C89 0.930 1_554 S
H85 C92 0.930 . S
H86 C94 0.930 . S
H87 C88 1.016 . S
C88 H87 1.016 . S
C88 N95 1.286 . S
C89 H84 0.930 1_556 S
C89 C90 1.397 . S
C89 C91 1.361 . S
C90 C89 1.397 . S
C90 C94 1.390 . S
C91 C89 1.361 . S
C91 C92 1.393 . S
C91 N95 1.413 . S
C92 H85 0.930 . S
C92 C91 1.393 . S
C92 C93 1.399 . S
C93 C92 1.399 . S
C93 C94 1.381 . S
C94 H86 0.930 . S
C94 C90 1.390 . S
C94 C93 1.381 . S
N95 C88 1.286 . S
N95 C91 1.413 . S
H96 C101 0.930 . S
H97 C104 0.930 . S
H98 C106 0.930 . S
H99 C100 1.016 . S
C100 H99 1.016 . S
C100 N107 1.286 . S
C101 H96 0.930 . S
C101 C102 1.397 . S
C101 C103 1.361 . S
C102 C101 1.397 . S
C102 C106 1.390 . S
C103 C101 1.361 . S
C103 C104 1.393 . S
C103 N107 1.413 . S
C104 H97 0.930 . S
C104 C103 1.393 . S
C104 C105 1.399 . S
C105 C104 1.399 . S
C105 C106 1.381 . S
C106 H98 0.930 . S
C106 C102 1.390 . S
C106 C105 1.381 . S
N107 C100 1.286 . S
N107 C103 1.413 . S
H108 C116 0.950 . S
H109 C121 0.950 . S
H110 C118 0.950 . S
H111 C120 0.950 . S
H112 C122 0.950 . S
H113 C124 0.950 . S
H114 C126 0.950 . S
H115 C127 0.950 . S
C116 H108 0.950 . S
C116 C117 1.386 . S
C116 C118 1.391 . S
C117 C116 1.386 . S
C117 C121 1.393 . S
C118 H110 0.950 . S
C118 C116 1.391 . S
C118 C119 1.400 . S
C119 C118 1.400 . S
C119 C120 1.398 . S
C119 C125 1.491 . S
C120 H111 0.950 . S
C120 C119 1.398 . S
C120 C121 1.391 . S
C121 H109 0.950 . S
C121 C117 1.393 . S
C121 C120 1.391 . S
C122 H112 0.950 . S
C122 C123 1.386 . S
C122 C124 1.391 . S
C123 C122 1.386 . S
C123 C127 1.393 . S
C124 H113 0.950 . S
C124 C122 1.391 . S
C124 C125 1.400 . S
C125 C119 1.491 . S
C125 C124 1.400 . S
C125 C126 1.398 . S
C126 H114 0.950 . S
C126 C125 1.398 . S
C126 C127 1.391 . S
C127 H115 0.950 . S
C127 C123 1.393 . S
C127 C126 1.391 . S
H128 C136 0.950 . S
H129 C141 0.950 . S
H130 C138 0.950 . S
H131 C140 0.950 . S
H132 C142 0.950 . S
H133 C144 0.950 . S
H134 C146 0.950 . S
H135 C147 0.950 . S
C136 H128 0.950 . S
C136 C137 1.386 1_556 S
C136 C138 1.391 . S
C137 C136 1.386 1_554 S
C137 C141 1.393 . S
C138 H130 0.950 . S
C138 C136 1.391 . S
C138 C139 1.400 1_556 S
C139 C138 1.400 1_554 S
C139 C140 1.398 . S
C139 C145 1.491 . S
C140 H131 0.950 . S
C140 C139 1.398 . S
C140 C141 1.391 . S
C141 H129 0.950 . S
C141 C137 1.393 . S
C141 C140 1.391 . S
C142 H132 0.950 . S
C142 C143 1.386 1_554 S
C142 C144 1.391 . S
C143 C142 1.386 1_556 S
C143 C147 1.393 . S
C144 H133 0.950 . S
C144 C142 1.391 . S
C144 C145 1.400 . S
C145 C139 1.491 . S
C145 C144 1.400 . S
C145 C146 1.398 1_554 S
C146 H134 0.950 . S
C146 C145 1.398 1_556 S
C146 C147 1.391 . S
C147 H135 0.950 . S
C147 C143 1.393 . S
C147 C146 1.391 . S
H148 C156 0.950 . S
H149 C161 0.950 . S
H150 C158 0.950 1_556 S
H151 C160 0.950 . S
H152 C162 0.950 . S
H153 C164 0.950 . S
H154 C166 0.950 . S
H155 C167 0.950 . S
C156 H148 0.950 . S
C156 C157 1.386 1_556 S
C156 C158 1.384 1_556 S
C157 C156 1.386 1_554 S
C157 C161 1.393 . S
C158 H150 0.950 1_554 S
C158 C156 1.384 1_554 S
C158 C159 1.408 . S
C159 C158 1.408 . S
C159 C160 1.398 . S
C159 C165 1.491 . S
C160 H151 0.950 . S
C160 C159 1.398 . S
C160 C161 1.391 . S
C161 H149 0.950 . S
C161 C157 1.393 . S
C161 C160 1.391 . S
C162 H152 0.950 . S
C162 C163 1.386 . S
C162 C164 1.391 . S
C163 C162 1.386 . S
C163 C167 1.393 . S
C164 H153 0.950 . S
C164 C162 1.391 . S
C164 C165 1.400 . S
C165 C159 1.491 . S
C165 C164 1.400 . S
C165 C166 1.398 . S
C166 H154 0.950 . S
C166 C165 1.398 . S
C166 C167 1.391 . S
C167 H155 0.950 . S
C167 C163 1.393 . S
C167 C166 1.391 . S
H168 C176 0.950 . S
H169 C181 0.950 . S
H170 C178 0.950 . S
H171 C180 0.950 . S
H172 C182 0.950 . S
H173 C184 0.950 . S
H174 C186 0.950 . S
H175 C187 0.950 . S
C176 H168 0.950 . S
C176 C177 1.386 . S
C176 C178 1.391 . S
C177 C176 1.386 . S
C177 C181 1.393 . S
C178 H170 0.950 . S
C178 C176 1.391 . S
C178 C179 1.400 . S
C179 C178 1.400 . S
C179 C180 1.398 . S
C179 C185 1.491 . S
C180 H171 0.950 . S
C180 C179 1.398 . S
C180 C181 1.391 . S
C181 H169 0.950 . S
C181 C177 1.393 . S
C181 C180 1.391 . S
C182 H172 0.950 . S
C182 C183 1.386 . S
C182 C184 1.391 . S
C183 C182 1.386 . S
C183 C187 1.393 . S
C184 H173 0.950 . S
C184 C182 1.391 . S
C184 C185 1.400 . S
C185 C179 1.491 . S
C185 C184 1.400 . S
C185 C186 1.398 . S
C186 H174 0.950 . S
C186 C185 1.398 . S
C186 C187 1.391 . S
C187 H175 0.950 . S
C187 C183 1.393 . S
C187 C186 1.391 . S
H188 C196 0.950 . S
H189 C201 0.950 . S
H190 C198 0.950 . S
H191 C200 0.950 . S
H192 C202 0.950 . S
H193 C204 0.950 . S
H194 C206 0.950 . S
H195 C207 0.950 . S
C196 H188 0.950 . S
C196 C197 1.386 . S
C196 C198 1.391 . S
C197 C196 1.386 . S
C197 C201 1.393 . S
C198 H190 0.950 . S
C198 C196 1.391 . S
C198 C199 1.400 . S
C199 C198 1.400 . S
C199 C200 1.398 . S
C199 C205 1.491 . S
C200 H191 0.950 . S
C200 C199 1.398 . S
C200 C201 1.391 . S
C201 H189 0.950 . S
C201 C197 1.393 . S
C201 C200 1.391 . S
C202 H192 0.950 . S
C202 C203 1.386 . S
C202 C204 1.391 . S
C203 C202 1.386 . S
C203 C207 1.393 . S
C204 H193 0.950 . S
C204 C202 1.391 . S
C204 C205 1.400 . S
C205 C199 1.491 . S
C205 C204 1.400 . S
C205 C206 1.398 . S
C206 H194 0.950 . S
C206 C205 1.398 . S
C206 C207 1.391 . S
C207 H195 0.950 . S
C207 C203 1.393 . S
C207 C206 1.391 . S
H208 C216 0.950 . S
H209 C221 0.950 . S
H210 C218 0.950 . S
H211 C220 0.950 . S
H212 C222 0.950 . S
H213 C224 0.950 . S
H214 C226 0.950 . S
H215 C227 0.950 . S
C216 H208 0.950 . S
C216 C217 1.386 . S
C216 C218 1.391 . S
C217 C216 1.386 . S
C217 C221 1.393 . S
C218 H210 0.950 . S
C218 C216 1.391 . S
C218 C219 1.400 . S
C219 C218 1.400 . S
C219 C220 1.398 . S
C219 C225 1.491 . S
C220 H211 0.950 . S
C220 C219 1.398 . S
C220 C221 1.391 . S
C221 H209 0.950 . S
C221 C217 1.393 . S
C221 C220 1.391 . S
C222 H212 0.950 . S
C222 C223 1.386 . S
C222 C224 1.391 . S
C223 C222 1.386 . S
C223 C227 1.393 . S
C224 H213 0.950 . S
C224 C222 1.391 . S
C224 C225 1.400 . S
C225 C219 1.491 . S
C225 C224 1.400 . S
C225 C226 1.398 . S
C226 H214 0.950 . S
C226 C225 1.398 . S
C226 C227 1.391 . S
C227 H215 0.950 . S
C227 C223 1.393 . S
C227 C226 1.391 . S
H228 C236 0.950 . S
H229 C241 0.950 . S
H230 C238 0.950 . S
H231 C240 0.950 . S
H232 C242 0.950 . S
H233 C244 0.950 . S
H234 C246 0.950 . S
H235 C247 0.950 . S
C236 H228 0.950 . S
C236 C237 1.386 . S
C236 C238 1.391 . S
C237 C236 1.386 . S
C237 C241 1.393 . S
C238 H230 0.950 . S
C238 C236 1.391 . S
C238 C239 1.400 . S
C239 C238 1.400 . S
C239 C240 1.398 . S
C239 C245 1.491 . S
C240 H231 0.950 . S
C240 C239 1.398 . S
C240 C241 1.391 . S
C241 H229 0.950 . S
C241 C237 1.393 . S
C241 C240 1.391 . S
C242 H232 0.950 . S
C242 C243 1.386 . S
C242 C244 1.391 . S
C243 C242 1.386 . S
C243 C247 1.393 . S
C244 H233 0.950 . S
C244 C242 1.391 . S
C244 C245 1.400 . S
C245 C239 1.491 . S
C245 C244 1.400 . S
C245 C246 1.398 . S
C246 H234 0.950 . S
C246 C245 1.398 . S
C246 C247 1.391 . S
C247 H235 0.950 . S
C247 C243 1.393 . S
C247 C246 1.391 . S
H248 C256 0.950 . S
H249 C261 0.950 . S
H250 C258 0.950 . S
H251 C260 0.950 . S
H252 C262 0.950 . S
H253 C264 0.950 . S
H254 C266 0.950 . S
H255 C267 0.950 . S
C256 H248 0.950 . S
C256 C257 1.386 . S
C256 C258 1.391 . S
C257 C256 1.386 . S
C257 C261 1.393 . S
C258 H250 0.950 . S
C258 C256 1.391 . S
C258 C259 1.400 . S
C259 C258 1.400 . S
C259 C260 1.398 . S
C259 C265 1.491 . S
C260 H251 0.950 . S
C260 C259 1.398 . S
C260 C261 1.391 . S
C261 H249 0.950 . S
C261 C257 1.393 . S
C261 C260 1.391 . S
C262 H252 0.950 . S
C262 C263 1.386 . S
C262 C264 1.391 . S
C263 C262 1.386 . S
C263 C267 1.393 . S
C264 H253 0.950 . S
C264 C262 1.391 . S
C264 C265 1.400 . S
C265 C259 1.491 . S
C265 C264 1.400 . S
C265 C266 1.398 . S
C266 H254 0.950 . S
C266 C265 1.398 . S
C266 C267 1.391 . S
C267 H255 0.950 . S
C267 C263 1.393 . S
C267 C266 1.391 . S
H268 C276 0.950 . S
H269 C281 0.950 . S
H270 C278 0.950 . S
H271 C280 0.950 . S
H272 C282 0.950 . S
H273 C284 0.950 . S
H274 C286 0.950 . S
H275 C287 0.950 . S
C276 H268 0.950 . S
C276 C277 1.386 . S
C276 C278 1.391 . S
C277 C276 1.386 . S
C277 C281 1.393 1_445 S
C278 H270 0.950 . S
C278 C276 1.391 . S
C278 C279 1.404 . S
C279 C278 1.404 . S
C279 C280 1.397 1_445 S
C279 C285 1.489 1_545 S
C280 H271 0.950 . S
C280 C279 1.397 1_665 S
C280 C281 1.391 . S
C281 H269 0.950 . S
C281 C277 1.393 1_665 S
C281 C280 1.391 . S
C282 H272 0.950 . S
C282 C283 1.386 1_655 S
C282 C284 1.391 . S
C283 C282 1.386 1_455 S
C283 C287 1.393 1_565 S
C284 H273 0.950 . S
C284 C282 1.391 . S
C284 C285 1.400 1_655 S
C285 C279 1.489 1_565 S
C285 C284 1.400 1_455 S
C285 C286 1.398 1_565 S
C286 H274 0.950 . S
C286 C285 1.398 1_545 S
C286 C287 1.391 . S
C287 H275 0.950 . S
C287 C283 1.393 1_545 S
C287 C286 1.391 . S
H288 C296 0.950 . S
H289 C301 0.950 . S
H290 C298 0.950 . S
H291 C300 0.950 . S
H292 C302 0.950 . S
H293 C304 0.950 . S
H294 C306 0.950 . S
H295 C307 0.950 . S
C296 H288 0.950 . S
C296 C297 1.386 1_665 S
C296 C298 1.391 . S
C297 C296 1.386 1_445 S
C297 C301 1.393 . S
C298 H290 0.950 . S
C298 C296 1.391 . S
C298 C299 1.400 1_565 S
C299 C298 1.400 1_545 S
C299 C300 1.398 1_655 S
C299 C305 1.491 . S
C300 H291 0.950 . S
C300 C299 1.398 1_455 S
C300 C301 1.391 . S
C301 H289 0.950 . S
C301 C297 1.393 . S
C301 C300 1.391 . S
C302 H292 0.950 . S
C302 C303 1.386 1_455 S
C302 C304 1.391 . S
C303 C302 1.386 1_655 S
C303 C307 1.393 1_545 S
C304 H293 0.950 . S
C304 C302 1.391 . S
C304 C305 1.400 1_455 S
C305 C299 1.491 . S
C305 C304 1.400 1_655 S
C305 C306 1.398 1_545 S
C306 H294 0.950 . S
C306 C305 1.398 1_565 S
C306 C307 1.391 . S
C307 H295 0.950 . S
C307 C303 1.393 1_565 S
C307 C306 1.391 . S
H308 C316 0.950 . S
H309 C321 0.950 . S
H310 C318 0.950 . S
H311 C320 0.950 . S
H312 C322 0.950 . S
H313 C324 0.950 . S
H314 C326 0.950 . S
H315 C327 0.950 . S
C316 H308 0.950 . S
C316 C317 1.386 . S
C316 C318 1.391 . S
C317 C316 1.386 . S
C317 C321 1.393 . S
C318 H310 0.950 . S
C318 C316 1.391 . S
C318 C319 1.400 . S
C319 C318 1.400 . S
C319 C320 1.398 . S
C319 C325 1.491 . S
C320 H311 0.950 . S
C320 C319 1.398 . S
C320 C321 1.391 . S
C321 H309 0.950 . S
C321 C317 1.393 . S
C321 C320 1.391 . S
C322 H312 0.950 . S
C322 C323 1.386 . S
C322 C324 1.391 . S
C323 C322 1.386 . S
C323 C327 1.393 . S
C324 H313 0.950 . S
C324 C322 1.391 . S
C324 C325 1.400 . S
C325 C319 1.491 . S
C325 C324 1.400 . S
C325 C326 1.398 . S
C326 H314 0.950 . S
C326 C325 1.398 . S
C326 C327 1.391 . S
C327 H315 0.950 . S
C327 C323 1.393 . S
C327 C326 1.391 . S
H328 C336 0.950 . S
H329 C341 0.950 . S
H330 C338 0.950 . S
H331 C340 0.950 . S
H332 C342 0.950 . S
H333 C344 0.950 . S
H334 C346 0.950 . S
H335 C347 0.950 . S
C336 H328 0.950 . S
C336 C337 1.386 . S
C336 C338 1.391 . S
C337 C336 1.386 . S
C337 C341 1.393 . S
C338 H330 0.950 . S
C338 C336 1.391 . S
C338 C339 1.400 . S
C339 C338 1.400 . S
C339 C340 1.398 . S
C339 C345 1.491 . S
C340 H331 0.950 . S
C340 C339 1.398 . S
C340 C341 1.391 . S
C341 H329 0.950 . S
C341 C337 1.393 . S
C341 C340 1.391 . S
C342 H332 0.950 . S
C342 C343 1.386 . S
C342 C344 1.391 . S
C343 C342 1.386 . S
C343 C347 1.393 . S
C344 H333 0.950 . S
C344 C342 1.391 . S
C344 C345 1.400 . S
C345 C339 1.491 . S
C345 C344 1.400 . S
C345 C346 1.398 . S
C346 H334 0.950 . S
C346 C345 1.398 . S
C346 C347 1.391 . S
C347 H335 0.950 . S
C347 C343 1.393 . S
C347 C346 1.391 . S
C123 C102 1.464 . S
C117 C27 1.482 . S
C137 N6 1.332 . S
C143 C88 1.376 . S
C157 C16 1.427 . S
C163 C100 1.364 . S
C177 N14 1.430 1_556 S
C183 C90 1.427 . S
C197 C57 1.482 . S
C203 C78 1.450 . S
C217 N36 1.344 . S
C223 C64 1.370 . S
C243 C76 1.386 . S
C237 C46 1.419 . S
C263 C66 1.428 . S
C257 N44 1.433 . S
C277 C10 1.478 . S
C283 C69 1.472 . S
C297 C1 1.542 . S
C303 C81 1.539 1_545 S
C323 C93 1.471 . S
C317 C40 1.477 . S
C337 C31 1.545 . S
C343 C105 1.545 . S
