# Generated by pormake.
# Topology ptr, (4,4)-cn, num edge types: 1
# Building blocks:
#     Node 0, Type 0, BuildingBlock: QUQFOY_clean_sbu_3, # of connection points: 4
#     Node 1, Type 0, BuildingBlock: QUQFOY_clean_sbu_3, # of connection points: 4
#     Node 2, Type 0, BuildingBlock: QUQFOY_clean_sbu_3, # of connection points: 4
#     Node 3, Type 0, BuildingBlock: QUQFOY_clean_sbu_3, # of connection points: 4
#     Node 4, Type 0, BuildingBlock: QUQFOY_clean_sbu_3, # of connection points: 4
#     Node 5, Type 0, BuildingBlock: QUQFOY_clean_sbu_3, # of connection points: 4
#     Node 6, Type 0, BuildingBlock: QUQFOY_clean_sbu_3, # of connection points: 4
#     Node 7, Type 0, BuildingBlock: QUQFOY_clean_sbu_3, # of connection points: 4
#     Node 8, Type 0, BuildingBlock: QUQFOY_clean_sbu_3, # of connection points: 4
#     Node 9, Type 0, BuildingBlock: QUQFOY_clean_sbu_3, # of connection points: 4
#     Node 10, Type 0, BuildingBlock: QUQFOY_clean_sbu_3, # of connection points: 4
#     Node 11, Type 0, BuildingBlock: QUQFOY_clean_sbu_3, # of connection points: 4
#     Node 12, Type 0, BuildingBlock: QUQFOY_clean_sbu_3, # of connection points: 4
#     Node 13, Type 0, BuildingBlock: QUQFOY_clean_sbu_3, # of connection points: 4
#     Node 14, Type 0, BuildingBlock: QUQFOY_clean_sbu_3, # of connection points: 4
#     Node 15, Type 0, BuildingBlock: QUQFOY_clean_sbu_3, # of connection points: 4
#     Node 16, Type 0, BuildingBlock: QUQFOY_clean_sbu_3, # of connection points: 4
#     Node 17, Type 0, BuildingBlock: QUQFOY_clean_sbu_3, # of connection points: 4
#     Node 18, Type 1, BuildingBlock: MIFKUJ_clean_linker_1, # of connection points: 4
#     Node 19, Type 1, BuildingBlock: MIFKUJ_clean_linker_1, # of connection points: 4
#     Node 20, Type 1, BuildingBlock: MIFKUJ_clean_linker_1, # of connection points: 4
#     Node 21, Type 1, BuildingBlock: MIFKUJ_clean_linker_1, # of connection points: 4
#     Node 22, Type 1, BuildingBlock: MIFKUJ_clean_linker_1, # of connection points: 4
#     Node 23, Type 1, BuildingBlock: MIFKUJ_clean_linker_1, # of connection points: 4
#     Node 24, Type 1, BuildingBlock: MIFKUJ_clean_linker_1, # of connection points: 4
#     Node 25, Type 1, BuildingBlock: MIFKUJ_clean_linker_1, # of connection points: 4
#     Node 26, Type 1, BuildingBlock: MIFKUJ_clean_linker_1, # of connection points: 4
#     Node 27, Type 1, BuildingBlock: MIFKUJ_clean_linker_1, # of connection points: 4
#     Node 28, Type 1, BuildingBlock: MIFKUJ_clean_linker_1, # of connection points: 4
#     Node 29, Type 1, BuildingBlock: MIFKUJ_clean_linker_1, # of connection points: 4
#     Node 30, Type 1, BuildingBlock: MIFKUJ_clean_linker_1, # of connection points: 4
#     Node 31, Type 1, BuildingBlock: MIFKUJ_clean_linker_1, # of connection points: 4
#     Node 32, Type 1, BuildingBlock: MIFKUJ_clean_linker_1, # of connection points: 4
#     Node 33, Type 1, BuildingBlock: MIFKUJ_clean_linker_1, # of connection points: 4
#     Node 34, Type 1, BuildingBlock: MIFKUJ_clean_linker_1, # of connection points: 4
#     Node 35, Type 1, BuildingBlock: MIFKUJ_clean_linker_1, # of connection points: 4
#     Edge 36, Type (0, 1), BuildingBlock: ZUJKAS_clean_linker_0, # of connection points: 2
#     Edge 37, Type (0, 1), BuildingBlock: ZUJKAS_clean_linker_0, # of connection points: 2
#     Edge 38, Type (0, 1), BuildingBlock: ZUJKAS_clean_linker_0, # of connection points: 2
#     Edge 39, Type (0, 1), BuildingBlock: ZUJKAS_clean_linker_0, # of connection points: 2
#     Edge 40, Type (0, 1), BuildingBlock: ZUJKAS_clean_linker_0, # of connection points: 2
#     Edge 41, Type (0, 1), BuildingBlock: ZUJKAS_clean_linker_0, # of connection points: 2
#     Edge 42, Type (0, 1), BuildingBlock: ZUJKAS_clean_linker_0, # of connection points: 2
#     Edge 43, Type (0, 1), BuildingBlock: ZUJKAS_clean_linker_0, # of connection points: 2
#     Edge 44, Type (0, 1), BuildingBlock: ZUJKAS_clean_linker_0, # of connection points: 2
#     Edge 45, Type (0, 1), BuildingBlock: ZUJKAS_clean_linker_0, # of connection points: 2
#     Edge 46, Type (0, 1), BuildingBlock: ZUJKAS_clean_linker_0, # of connection points: 2
#     Edge 47, Type (0, 1), BuildingBlock: ZUJKAS_clean_linker_0, # of connection points: 2
#     Edge 48, Type (0, 1), BuildingBlock: ZUJKAS_clean_linker_0, # of connection points: 2
#     Edge 49, Type (0, 1), BuildingBlock: ZUJKAS_clean_linker_0, # of connection points: 2
#     Edge 50, Type (0, 1), BuildingBlock: ZUJKAS_clean_linker_0, # of connection points: 2
#     Edge 51, Type (0, 1), BuildingBlock: ZUJKAS_clean_linker_0, # of connection points: 2
#     Edge 52, Type (0, 1), BuildingBlock: ZUJKAS_clean_linker_0, # of connection points: 2
#     Edge 53, Type (0, 1), BuildingBlock: ZUJKAS_clean_linker_0, # of connection points: 2
#     Edge 54, Type (0, 1), BuildingBlock: ZUJKAS_clean_linker_0, # of connection points: 2
#     Edge 55, Type (0, 1), BuildingBlock: ZUJKAS_clean_linker_0, # of connection points: 2
#     Edge 56, Type (0, 1), BuildingBlock: ZUJKAS_clean_linker_0, # of connection points: 2
#     Edge 57, Type (0, 1), BuildingBlock: ZUJKAS_clean_linker_0, # of connection points: 2
#     Edge 58, Type (0, 1), BuildingBlock: ZUJKAS_clean_linker_0, # of connection points: 2
#     Edge 59, Type (0, 1), BuildingBlock: ZUJKAS_clean_linker_0, # of connection points: 2
#     Edge 60, Type (0, 1), BuildingBlock: ZUJKAS_clean_linker_0, # of connection points: 2
#     Edge 61, Type (0, 1), BuildingBlock: ZUJKAS_clean_linker_0, # of connection points: 2
#     Edge 62, Type (0, 1), BuildingBlock: ZUJKAS_clean_linker_0, # of connection points: 2
#     Edge 63, Type (0, 1), BuildingBlock: ZUJKAS_clean_linker_0, # of connection points: 2
#     Edge 64, Type (0, 1), BuildingBlock: ZUJKAS_clean_linker_0, # of connection points: 2
#     Edge 65, Type (0, 1), BuildingBlock: ZUJKAS_clean_linker_0, # of connection points: 2
#     Edge 66, Type (0, 1), BuildingBlock: ZUJKAS_clean_linker_0, # of connection points: 2
#     Edge 67, Type (0, 1), BuildingBlock: ZUJKAS_clean_linker_0, # of connection points: 2
#     Edge 68, Type (0, 1), BuildingBlock: ZUJKAS_clean_linker_0, # of connection points: 2
#     Edge 69, Type (0, 1), BuildingBlock: ZUJKAS_clean_linker_0, # of connection points: 2
#     Edge 70, Type (0, 1), BuildingBlock: ZUJKAS_clean_linker_0, # of connection points: 2
#     Edge 71, Type (0, 1), BuildingBlock: ZUJKAS_clean_linker_0, # of connection points: 2
#     Edge 72, Type (0, 1), BuildingBlock: ZUJKAS_clean_linker_0, # of connection points: 2
#     Edge 73, Type (0, 1), BuildingBlock: ZUJKAS_clean_linker_0, # of connection points: 2
#     Edge 74, Type (0, 1), BuildingBlock: ZUJKAS_clean_linker_0, # of connection points: 2
#     Edge 75, Type (0, 1), BuildingBlock: ZUJKAS_clean_linker_0, # of connection points: 2
#     Edge 76, Type (0, 1), BuildingBlock: ZUJKAS_clean_linker_0, # of connection points: 2
#     Edge 77, Type (0, 1), BuildingBlock: ZUJKAS_clean_linker_0, # of connection points: 2
#     Edge 78, Type (0, 1), BuildingBlock: ZUJKAS_clean_linker_0, # of connection points: 2
#     Edge 79, Type (0, 1), BuildingBlock: ZUJKAS_clean_linker_0, # of connection points: 2
#     Edge 80, Type (0, 1), BuildingBlock: ZUJKAS_clean_linker_0, # of connection points: 2
#     Edge 81, Type (0, 1), BuildingBlock: ZUJKAS_clean_linker_0, # of connection points: 2
#     Edge 82, Type (0, 1), BuildingBlock: ZUJKAS_clean_linker_0, # of connection points: 2
#     Edge 83, Type (0, 1), BuildingBlock: ZUJKAS_clean_linker_0, # of connection points: 2
#     Edge 84, Type (0, 1), BuildingBlock: ZUJKAS_clean_linker_0, # of connection points: 2
#     Edge 85, Type (0, 1), BuildingBlock: ZUJKAS_clean_linker_0, # of connection points: 2
#     Edge 86, Type (0, 1), BuildingBlock: ZUJKAS_clean_linker_0, # of connection points: 2
#     Edge 87, Type (0, 1), BuildingBlock: ZUJKAS_clean_linker_0, # of connection points: 2
#     Edge 88, Type (0, 1), BuildingBlock: ZUJKAS_clean_linker_0, # of connection points: 2
#     Edge 89, Type (0, 1), BuildingBlock: ZUJKAS_clean_linker_0, # of connection points: 2
#     Edge 90, Type (0, 1), BuildingBlock: ZUJKAS_clean_linker_0, # of connection points: 2
#     Edge 91, Type (0, 1), BuildingBlock: ZUJKAS_clean_linker_0, # of connection points: 2
#     Edge 92, Type (0, 1), BuildingBlock: ZUJKAS_clean_linker_0, # of connection points: 2
#     Edge 93, Type (0, 1), BuildingBlock: ZUJKAS_clean_linker_0, # of connection points: 2
#     Edge 94, Type (0, 1), BuildingBlock: ZUJKAS_clean_linker_0, # of connection points: 2
#     Edge 95, Type (0, 1), BuildingBlock: ZUJKAS_clean_linker_0, # of connection points: 2
#     Edge 96, Type (0, 1), BuildingBlock: ZUJKAS_clean_linker_0, # of connection points: 2
#     Edge 97, Type (0, 1), BuildingBlock: ZUJKAS_clean_linker_0, # of connection points: 2
#     Edge 98, Type (0, 1), BuildingBlock: ZUJKAS_clean_linker_0, # of connection points: 2
#     Edge 99, Type (0, 1), BuildingBlock: ZUJKAS_clean_linker_0, # of connection points: 2
#     Edge 100, Type (0, 1), BuildingBlock: ZUJKAS_clean_linker_0, # of connection points: 2
#     Edge 101, Type (0, 1), BuildingBlock: ZUJKAS_clean_linker_0, # of connection points: 2
#     Edge 102, Type (0, 1), BuildingBlock: ZUJKAS_clean_linker_0, # of connection points: 2
#     Edge 103, Type (0, 1), BuildingBlock: ZUJKAS_clean_linker_0, # of connection points: 2
#     Edge 104, Type (0, 1), BuildingBlock: ZUJKAS_clean_linker_0, # of connection points: 2
#     Edge 105, Type (0, 1), BuildingBlock: ZUJKAS_clean_linker_0, # of connection points: 2
#     Edge 106, Type (0, 1), BuildingBlock: ZUJKAS_clean_linker_0, # of connection points: 2
#     Edge 107, Type (0, 1), BuildingBlock: ZUJKAS_clean_linker_0, # of connection points: 2
# Relax obj value: 0.033
# Max RMSD: 0.121
# Mean RMSD: 0.056
data_MOF--net-ptr--node1-QUQFOY_clean_sbu_3--node2-MIFKUJ_clean_linker_1--edge1-ZUJKAS_clean_linker_0
_symmetry_space_group_name_H-M    P1
_symmetry_Int_Tables_number       1
_symmetry_cell_setting            triclinic
loop_
_symmetry_equiv_pos_as_xyz
'x, y, z'
_cell_length_a     112.86966
_cell_length_b     113.44237
_cell_length_c     78.296382
_cell_angle_alpha  90.366366
_cell_angle_beta   89.552861
_cell_angle_gamma 120.58093
loop_
_atom_site_label
_atom_site_type_symbol
_atom_site_fract_x
_atom_site_fract_y
_atom_site_fract_z
_atom_type_partial_charge
C0 C 0.9698 0.32011 0.0014 0.0
O1 O 0.96301 0.3253 0.00747 0.0
Cd2 Cd 0.97359 0.34771 0.01994 0.0
O3 O 0.98286 0.32642 0.00278 0.0
Cd4 Cd 0.00166 0.34781 0.01597 0.0
C5 C -0.00386 0.36663 0.98734 0.0
O6 O 0.98968 0.34989 0.04112 0.0
O7 O 0.00893 0.36782 0.03412 0.0
O8 O 0.00951 0.33377 0.02927 0.0
C9 C -0.00102 0.36208 0.04461 0.0
O10 O 0.98545 0.36333 0.99635 0.0
C11 C 0.02189 0.34062 0.02412 0.0
O12 O 0.00396 0.3619 0.9908 0.0
O13 O 0.02496 0.35083 0.01457 0.0
C14 C 0.63994 0.67446 0.02066 0.0
O15 O 0.62737 0.66864 0.01639 0.0
Cd16 Cd 0.61546 0.64661 0.0028 0.0
O17 O 0.6471 0.66899 0.01699 0.0
Cd18 Cd 0.64436 0.64851 0.0016 0.0
C19 C 0.6219 0.62761 0.03149 0.0
O20 O 0.62887 0.64702 0.97877 0.0
O21 O 0.631 0.62935 0.98214 0.0
O22 O 0.66656 0.66386 0.98835 0.0
C23 C 0.62611 0.6353 0.97353 0.0
O24 O 0.6133 0.63005 0.02425 0.0
C25 C 0.67187 0.65659 0.99151 0.0
O26 O 0.63445 0.6337 0.02667 0.0
O27 O 0.66445 0.64555 -0.0003 0.0
C28 C 0.32004 0.96905 0.01746 0.0
O29 O 0.32579 0.96272 0.01159 0.0
Cd30 Cd 0.34842 0.97432 -0.00097 0.0
O31 O 0.32584 0.98199 0.01598 0.0
Cd32 Cd 0.34656 0.0016 0.00339 0.0
C33 C 0.3662 -0.00295 0.03183 0.0
O34 O 0.34893 0.98994 0.9784 0.0
O35 O 0.36592 0.01027 0.98362 0.0
O36 O 0.3306 0.00797 0.99248 0.0
C37 C 0.3606 -0.00016 0.97395 0.0
O38 O 0.36379 0.98675 0.02266 0.0
C39 C 0.33742 0.02041 0.9971 0.0
O40 O 0.36061 0.0041 0.02848 0.0
O41 O 0.34852 0.02418 0.00519 0.0
C42 C 0.9598 0.64264 -0.001 0.0
O43 O 0.95321 0.63016 0.00348 0.0
Cd44 Cd 0.9645 0.61881 0.0147 0.0
O45 O 0.97279 0.64976 0.00093 0.0
Cd46 Cd 0.99187 0.6474 0.01248 0.0
C47 C 0.98735 0.62439 0.98191 0.0
O48 O 0.97989 0.63257 0.03701 0.0
O49 O -0.00043 0.63501 0.03008 0.0
O50 O -0.00066 0.66942 0.02582 0.0
C51 C 0.98952 0.63029 0.04044 0.0
O52 O 0.97671 0.61618 0.99052 0.0
C53 C 0.01178 0.67509 0.02092 0.0
O54 O -0.00532 0.63692 0.98632 0.0
O55 O 0.01507 0.66793 0.01166 0.0
C56 C 0.32285 0.35481 0.02207 0.0
O57 O 0.32887 0.36746 0.01847 0.0
Cd58 Cd 0.3513 0.37972 0.00583 0.0
O59 O 0.32849 0.34781 0.01846 0.0
Cd60 Cd 0.3496 0.35079 0.0043 0.0
C61 C 0.36972 0.37282 0.03508 0.0
O62 O 0.35094 0.36632 0.98193 0.0
O63 O 0.36849 0.36368 0.98413 0.0
O64 O 0.33411 0.32892 0.99094 0.0
C65 C 0.36249 0.36882 0.97609 0.0
O66 O 0.36702 0.38131 0.02813 0.0
C67 C 0.3413 0.32349 0.99396 0.0
O68 O 0.36425 0.36056 0.02957 0.0
O69 O 0.35238 0.33068 0.00222 0.0
C70 C 0.67735 0.02719 -0.00217 0.0
O71 O 0.67194 0.034 0.00307 0.0
Cd72 Cd 0.64872 0.02316 0.01341 0.0
O73 O 0.67092 0.01421 -0.00057 0.0
Cd74 Cd 0.64918 0.9956 0.01235 0.0
C75 C 0.6316 -0.00014 0.98081 0.0
O76 O 0.64578 0.00787 0.0361 0.0
O77 O 0.62826 0.9884 0.02893 0.0
O78 O 0.6634 0.98883 0.02755 0.0
C79 C 0.63346 -0.00149 0.03912 0.0
O80 O 0.63451 0.01081 0.98884 0.0
C81 C 0.6569 0.97634 0.02305 0.0
O82 O 0.63604 0.99218 0.98599 0.0
O83 O 0.64675 0.97266 0.01308 0.0
C84 C 0.63564 0.65703 0.32815 0.0
O85 O 0.62868 0.66264 0.33201 0.0
Cd86 Cd 0.63781 0.68432 0.34614 0.0
O87 O 0.64827 0.66266 0.33235 0.0
Cd88 Cd 0.66586 0.68329 0.3482 0.0
C89 C 0.66471 0.7046 0.31877 0.0
O90 O 0.65045 0.68376 0.37008 0.0
O91 O 0.67106 0.70119 0.36943 0.0
O92 O 0.67262 0.66815 0.36127 0.0
C93 C 0.65931 0.69514 0.37652 0.0
O94 O 0.653 0.70119 0.32523 0.0
C95 C 0.6854 0.67567 0.35826 0.0
O96 O 0.67154 0.69921 0.32405 0.0
O97 O 0.68917 0.68674 0.35022 0.0
C98 C 0.30598 0.00705 0.35748 0.0
O99 O 0.29326 0.00135 0.35402 0.0
Cd100 Cd 0.28013 0.97925 0.34094 0.0
O101 O 0.31278 0.00126 0.35341 0.0
Cd102 Cd 0.30859 0.98001 0.33852 0.0
C103 C 0.28624 0.95983 0.36921 0.0
O104 O 0.29269 0.97887 0.31642 0.0
O105 O 0.29469 0.96106 0.31907 0.0
O106 O 0.33072 0.99387 0.32418 0.0
C107 C 0.28964 0.9671 0.31098 0.0
O108 O 0.27782 0.9628 0.36254 0.0
C109 C 0.33541 0.98612 0.32778 0.0
O110 O 0.29856 0.96528 0.36367 0.0
O111 O 0.32773 0.97562 0.33674 0.0
C112 C 0.98912 0.3044 0.35701 0.0
O113 O -0.00532 0.2973 0.35386 0.0
Cd114 Cd 0.01723 0.30645 0.34183 0.0
O115 O -0.00471 0.31707 0.35319 0.0
Cd116 Cd 0.01698 0.33456 0.33933 0.0
C117 C 0.03608 0.33212 0.37089 0.0
O118 O 0.01799 0.31954 0.31757 0.0
O119 O 0.03556 0.34006 0.31897 0.0
O120 O 0.00363 0.34265 0.32455 0.0
C121 C 0.02954 0.32853 0.31151 0.0
O122 O 0.03273 0.32046 0.36458 0.0
C123 C 0.01092 0.35503 0.32932 0.0
O124 O 0.03153 0.33935 0.36453 0.0
O125 O 0.02095 0.35789 0.33913 0.0
C126 C 0.62949 0.96859 0.32705 0.0
O127 O 0.6241 0.95605 0.33102 0.0
Cd128 Cd 0.63573 0.94645 0.34574 0.0
O129 O 0.64192 0.97718 0.33103 0.0
Cd130 Cd 0.66137 0.97738 0.34609 0.0
C131 C 0.66243 0.95532 0.31739 0.0
O132 O 0.64751 0.96168 0.36879 0.0
O133 O 0.66871 0.96693 0.36784 0.0
O134 O 0.66645 -0.00067 0.35808 0.0
C135 C 0.65716 0.96067 0.3754 0.0
O136 O 0.65161 0.94608 0.32482 0.0
C137 C 0.67922 0.00558 0.35463 0.0
O138 O 0.66778 0.96786 0.32174 0.0
O139 O 0.68371 -0.00122 0.34677 0.0
C140 C 0.98893 0.6882 0.35791 0.0
O141 O -0.00525 0.70097 0.35506 0.0
Cd142 Cd 0.01732 0.71432 0.34309 0.0
O143 O -0.00503 0.68162 0.35405 0.0
Cd144 Cd 0.0169 0.6862 0.34047 0.0
C145 C 0.03621 0.70798 0.37202 0.0
O146 O 0.01782 0.7019 0.31857 0.0
O147 O 0.03593 0.70024 0.32089 0.0
O148 O 0.00322 0.66453 0.32562 0.0
C149 C 0.02959 0.70501 0.31287 0.0
O150 O 0.03327 0.71638 0.36537 0.0
C151 C 0.01081 0.65966 0.32933 0.0
O152 O 0.03108 0.69587 0.36611 0.0
O153 O 0.02118 0.66704 0.33868 0.0
C154 C 0.33916 0.36114 0.32578 0.0
O155 O 0.33243 0.36712 0.32882 0.0
Cd156 Cd 0.31087 0.35721 0.34388 0.0
O157 O 0.33465 0.34892 0.33089 0.0
Cd158 Cd 0.31448 0.33086 0.34699 0.0
C159 C 0.29137 0.32935 0.31797 0.0
O160 O 0.31326 0.34613 0.36824 0.0
O161 O 0.29672 0.3251 0.3689 0.0
O162 O 0.3304 0.32547 0.36088 0.0
C163 C 0.30233 0.33699 0.37541 0.0
O164 O 0.29371 0.34069 0.32434 0.0
C165 C 0.32361 0.31272 0.35776 0.0
O166 O 0.29813 0.32378 0.32292 0.0
O167 O 0.31264 0.30836 0.34916 0.0
C168 C 0.30267 0.99075 0.66287 0.0
O169 O 0.29539 0.99586 0.66737 0.0
Cd170 Cd 0.30453 0.01795 0.68025 0.0
O171 O 0.31556 -0.00286 0.66587 0.0
Cd172 Cd 0.33286 0.01873 0.68051 0.0
C173 C 0.32948 0.03818 0.6507 0.0
O174 O 0.31831 0.01901 0.70388 0.0
O175 O 0.33762 0.03768 0.69977 0.0
O176 O 0.3414 0.00492 0.69328 0.0
C177 C 0.32686 0.03107 0.70881 0.0
O178 O 0.31809 0.03465 0.65818 0.0
C179 C 0.35405 0.01337 0.69051 0.0
O180 O 0.33688 0.03327 0.65541 0.0
O181 O 0.35693 0.02427 0.68262 0.0
C182 C 0.97006 0.33659 0.68382 0.0
O183 O 0.95756 0.32993 0.6792 0.0
Cd184 Cd 0.94695 0.30835 0.66467 0.0
O185 O 0.97817 0.33218 0.68023 0.0
Cd186 Cd 0.97723 0.31241 0.66472 0.0
C187 C 0.95418 0.28991 0.69333 0.0
O188 O 0.96186 0.31051 0.64162 0.0
O189 O 0.96578 0.29387 0.64376 0.0
O190 O -0.0005 0.32822 0.65179 0.0
C191 C 0.96017 0.29935 0.63562 0.0
O192 O 0.9454 0.29202 0.68595 0.0
C193 C 0.00531 0.32161 0.65609 0.0
O194 O 0.96682 0.29652 0.68887 0.0
O195 O -0.00186 0.31082 0.66483 0.0
C196 C 0.65522 0.63608 0.69036 0.0
O197 O 0.66101 0.62924 0.68689 0.0
Cd198 Cd 0.68329 0.63926 0.6736 0.0
O199 O 0.66088 0.64862 0.68614 0.0
Cd200 Cd 0.68153 0.66636 0.67103 0.0
C201 C 0.702 0.66576 0.70182 0.0
O202 O 0.68298 0.65165 0.64916 0.0
O203 O 0.70025 0.67231 0.65083 0.0
O204 O 0.66606 0.67212 0.65706 0.0
C205 C 0.69445 0.66086 0.64316 0.0
O206 O 0.69935 0.65438 0.69525 0.0
C207 C 0.67297 0.68484 0.66035 0.0
O208 O 0.69635 0.6722 0.69611 0.0
O209 O 0.68391 0.68905 0.66897 0.0
C210 C 0.29567 0.30602 0.6607 0.0
O211 O 0.28946 0.29333 0.6642 0.0
Cd212 Cd 0.30027 0.28205 0.67692 0.0
O213 O 0.30834 0.31373 0.66441 0.0
Cd214 Cd 0.32711 0.31203 0.67847 0.0
C215 C 0.32643 0.29044 0.64776 0.0
O216 O 0.31313 0.2957 0.70074 0.0
O217 O 0.33407 0.30016 0.69835 0.0
O218 O 0.33332 0.33342 0.69298 0.0
C219 C 0.3227 0.29404 0.70633 0.0
O220 O 0.3152 0.28147 0.65471 0.0
C221 C 0.34593 0.33962 0.68869 0.0
O222 O 0.33279 0.30276 0.65322 0.0
O223 O 0.34982 0.33307 0.67921 0.0
C224 C 0.66034 0.02474 0.68607 0.0
O225 O 0.66695 0.03722 0.68158 0.0
Cd226 Cd 0.68892 0.04774 0.6678 0.0
O227 O 0.6651 0.0169 0.68281 0.0
Cd228 Cd 0.68531 0.01809 0.66811 0.0
C229 C 0.70698 0.04067 0.69736 0.0
O230 O 0.6869 0.03291 0.64476 0.0
O231 O 0.70425 0.03004 0.64754 0.0
O232 O 0.66914 0.99611 0.65546 0.0
C233 C 0.69827 0.0349 0.63891 0.0
O234 O 0.70488 0.04936 0.68983 0.0
C235 C 0.67579 0.99022 0.65917 0.0
O236 O 0.70064 0.02815 0.69272 0.0
O237 O 0.68687 -0.00277 0.6675 0.0
C238 C 0.00322 0.69146 0.65952 0.0
O239 O -0.00313 0.69783 0.66247 0.0
Cd240 Cd 0.97499 0.68839 0.67652 0.0
O241 O -0.00194 0.67902 0.66413 0.0
Cd242 Cd 0.9768 0.6613 0.67906 0.0
C243 C 0.95521 0.66171 0.64929 0.0
O244 O 0.976 0.67645 0.70091 0.0
O245 O 0.95833 0.65607 0.69975 0.0
O246 O 0.99105 0.65405 0.69361 0.0
C247 C 0.96454 0.66758 0.70725 0.0
O248 O 0.95787 0.67302 0.65607 0.0
C249 C 0.98362 0.64142 0.69 0.0
O250 O 0.96137 0.65554 0.65427 0.0
O251 O 0.97314 0.63801 0.68079 0.0
H252 H 0.14302 0.3159 0.18746 0.0
H253 H 0.12562 0.31697 0.20496 0.0
H254 H 0.09369 0.28728 0.17214 0.0
H255 H 0.11113 0.28565 0.15497 0.0
H256 H 0.1483 0.29728 0.18259 0.0
H257 H 0.13557 0.32229 0.14579 0.0
H258 H 0.12102 0.32764 0.12845 0.0
H259 H 0.11002 0.29216 0.09691 0.0
H260 H 0.12459 0.28684 0.11437 0.0
H261 H 0.16215 0.28403 0.11646 0.0
H262 H 0.18243 0.28823 0.09979 0.0
H263 H 0.20787 0.32397 0.1307 0.0
H264 H 0.1876 0.31993 0.14694 0.0
H265 H 0.15195 0.30181 0.11956 0.0
H266 H 0.16954 0.28042 0.15851 0.0
H267 H 0.18762 0.28047 0.17584 0.0
H268 H 0.19287 0.31598 0.20324 0.0
H269 H 0.17501 0.31597 0.18587 0.0
C270 C 0.12843 0.30069 0.16985 0.0
C271 C 0.13228 0.30949 0.18406 0.0
C272 C 0.12236 0.31014 0.19403 0.0
C273 C 0.10838 0.30217 0.18987 0.0
C274 C 0.10445 0.29354 0.17551 0.0
C275 C 0.1144 0.29267 0.16568 0.0
C276 C 0.13921 0.29984 0.15983 0.0
C277 C 0.14908 0.29832 0.1688 0.0
C278 C 0.14018 0.30101 0.14179 0.0
C279 C 0.13101 0.30403 0.13156 0.0
C280 C 0.12988 0.31555 0.13529 0.0
C281 C 0.12156 0.31861 0.12535 0.0
C282 C 0.11433 0.31031 0.11132 0.0
C283 C 0.11555 0.29884 0.10753 0.0
C284 C 0.12383 0.29575 0.11754 0.0
C285 C 0.17341 0.30158 0.13303 0.0
C286 C 0.17213 0.29271 0.11967 0.0
C287 C 0.18371 0.29508 0.11025 0.0
C288 C 0.19672 0.30645 0.11393 0.0
C289 C 0.19796 0.31521 0.12745 0.0
C290 C 0.18641 0.31283 0.13686 0.0
C291 C 0.16112 0.29962 0.14243 0.0
C292 C 0.15093 0.3005 0.13332 0.0
C293 C 0.16017 0.29848 0.16041 0.0
C294 C 0.17095 0.29821 0.17087 0.0
C295 C 0.17464 0.28823 0.16822 0.0
C296 C 0.1849 0.28823 0.17817 0.0
C297 C 0.19172 0.29828 0.19082 0.0
C298 C 0.18796 0.30822 0.19343 0.0
C299 C 0.17766 0.30815 0.18362 0.0
H300 H 0.71926 0.87793 0.17799 0.0
H301 H 0.71975 0.89621 0.1954 0.0
H302 H 0.67902 0.88448 0.17783 0.0
H303 H 0.6784 0.86606 0.16088 0.0
H304 H 0.70291 0.85135 0.18093 0.0
H305 H 0.71163 0.88372 0.13549 0.0
H306 H 0.70715 0.89926 0.11889 0.0
H307 H 0.66687 0.86547 0.10596 0.0
H308 H 0.67124 0.85012 0.12297 0.0
H309 H 0.67035 0.81585 0.12704 0.0
H310 H 0.66569 0.7948 0.11249 0.0
H311 H 0.70675 0.80362 0.12428 0.0
H312 H 0.71142 0.82482 0.13867 0.0
H313 H 0.68923 0.8422 0.12006 0.0
H314 H 0.67698 0.81168 0.16718 0.0
H315 H 0.67724 0.79488 0.18617 0.0
H316 H 0.72038 0.82286 0.19628 0.0
H317 H 0.71986 0.8398 0.17755 0.0
C318 C 0.69889 0.87073 0.16789 0.0
C319 C 0.71048 0.87936 0.1778 0.0
C320 C 0.71075 0.88979 0.18773 0.0
C321 C 0.69946 0.89182 0.18786 0.0
C322 C 0.68798 0.88333 0.17773 0.0
C323 C 0.68763 0.8728 0.16799 0.0
C324 C 0.69815 0.85898 0.15841 0.0
C325 C 0.70027 0.84956 0.1675 0.0
C326 C 0.69416 0.85631 0.14103 0.0
C327 C 0.69173 0.86577 0.1306 0.0
C328 C 0.70181 0.87969 0.12915 0.0
C329 C 0.69929 0.88853 0.11953 0.0
C330 C 0.68663 0.88361 0.11114 0.0
C331 C 0.67664 0.86963 0.11245 0.0
C332 C 0.67918 0.86082 0.12204 0.0
C333 C 0.69121 0.82187 0.13397 0.0
C334 C 0.67835 0.81326 0.12646 0.0
C335 C 0.67567 0.80119 0.11829 0.0
C336 C 0.68584 0.79754 0.11732 0.0
C337 C 0.69875 0.80621 0.12476 0.0
C338 C 0.7014 0.81826 0.13306 0.0
C339 C 0.69391 0.83465 0.14264 0.0
C340 C 0.69218 0.84422 0.13339 0.0
C341 C 0.69794 0.83732 0.15993 0.0
C342 C 0.69843 0.82694 0.17084 0.0
C343 C 0.68653 0.81413 0.17334 0.0
C344 C 0.68673 0.8045 0.18417 0.0
C345 C 0.69886 0.80745 0.19274 0.0
C346 C 0.71082 0.82028 0.19007 0.0
C347 C 0.71057 0.82996 0.1793 0.0
H348 H 0.11475 0.83661 0.17342 0.0
H349 H 0.09827 0.81769 0.19141 0.0
H350 H 0.11122 0.7913 0.1684 0.0
H351 H 0.12799 0.81035 0.15097 0.0
H352 H 0.14234 0.84812 0.17418 0.0
H353 H 0.10696 0.8247 0.13175 0.0
H354 H 0.09061 0.80487 0.11482 0.0
H355 H 0.12426 0.80157 0.09362 0.0
H356 H 0.14051 0.82121 0.11068 0.0
H357 H 0.174 0.853 0.11547 0.0
H358 H 0.19518 0.86966 0.10101 0.0
H359 H 0.18942 0.90245 0.11916 0.0
H360 H 0.16801 0.88564 0.13348 0.0
H361 H 0.14786 0.84656 0.11145 0.0
H362 H 0.1815 0.86365 0.15526 0.0
H363 H 0.19951 0.87999 0.17425 0.0
H364 H 0.17159 0.89227 0.1942 0.0
H365 H 0.15371 0.87617 0.1747 0.0
C366 C 0.1225 0.82486 0.16074 0.0
C367 C 0.11394 0.82671 0.17217 0.0
C368 C 0.10446 0.81586 0.18234 0.0
C369 C 0.10345 0.80299 0.18134 0.0
C370 C 0.11184 0.80112 0.1696 0.0
C371 C 0.12133 0.81196 0.15948 0.0
C372 C 0.13341 0.83664 0.15108 0.0
C373 C 0.14334 0.84795 0.16039 0.0
C374 C 0.13498 0.83615 0.13318 0.0
C375 C 0.12497 0.82441 0.12259 0.0
C376 C 0.11081 0.81966 0.12352 0.0
C377 C 0.10148 0.80834 0.11384 0.0
C378 C 0.10617 0.80168 0.10288 0.0
C379 C 0.12036 0.8066 0.10177 0.0
C380 C 0.12965 0.81782 0.11153 0.0
C381 C 0.16947 0.8681 0.12557 0.0
C382 C 0.17724 0.86377 0.11625 0.0
C383 C 0.1894 0.8733 0.10813 0.0
C384 C 0.19398 0.88735 0.10908 0.0
C385 C 0.18608 0.89168 0.11819 0.0
C386 C 0.17392 0.88211 0.12642 0.0
C387 C 0.15686 0.85783 0.1346 0.0
C388 C 0.14661 0.84687 0.12517 0.0
C389 C 0.15522 0.85839 0.15245 0.0
C390 C 0.16632 0.86883 0.16339 0.0
C391 C 0.17933 0.87005 0.16348 0.0
C392 C 0.18957 0.87928 0.17449 0.0
C393 C 0.18697 0.88741 0.18578 0.0
C394 C 0.17397 0.88629 0.18553 0.0
C395 C 0.16372 0.87703 0.17448 0.0
H396 H 0.27953 0.15957 0.84256 0.0
H397 H 0.28079 0.17752 0.82414 0.0
H398 H 0.32246 0.20496 0.84102 0.0
H399 H 0.32094 0.18708 0.85968 0.0
H400 H 0.29671 0.14839 0.84125 0.0
H401 H 0.28518 0.17382 0.88147 0.0
H402 H 0.28892 0.19412 0.89729 0.0
H403 H 0.32652 0.19893 0.91797 0.0
H404 H 0.32283 0.17879 0.90204 0.0
H405 H 0.32144 0.14559 0.90396 0.0
H406 H 0.32378 0.12922 0.92153 0.0
H407 H 0.28563 0.09633 0.90125 0.0
H408 H 0.28323 0.11283 0.88375 0.0
H409 H 0.30353 0.1532 0.90393 0.0
H410 H 0.31844 0.13168 0.86439 0.0
H411 H 0.31934 0.11427 0.84684 0.0
H412 H 0.28106 0.10468 0.82301 0.0
H413 H 0.27998 0.12189 0.84095 0.0
C414 C 0.30009 0.17205 0.85257 0.0
C415 C 0.28888 0.1695 0.84234 0.0
C416 C 0.28966 0.17975 0.83177 0.0
C417 C 0.30173 0.1927 0.83108 0.0
C418 C 0.31291 0.19521 0.84145 0.0
C419 C 0.31209 0.18498 0.85208 0.0
C420 C 0.29949 0.16102 0.86321 0.0
C421 C 0.2979 0.14926 0.85502 0.0
C422 C 0.30165 0.1625 0.88105 0.0
C423 C 0.30377 0.17482 0.89048 0.0
C424 C 0.29429 0.17932 0.88928 0.0
C425 C 0.29643 0.19091 0.89833 0.0
C426 C 0.30799 0.19808 0.90891 0.0
C427 C 0.31741 0.19351 0.91012 0.0
C428 C 0.31533 0.18201 0.90099 0.0
C429 C 0.30219 0.13044 0.89247 0.0
C430 C 0.31351 0.13487 0.90337 0.0
C431 C 0.31482 0.12551 0.91345 0.0
C432 C 0.30486 0.11151 0.91281 0.0
C433 C 0.29352 0.10706 0.90189 0.0
C434 C 0.29215 0.11646 0.89188 0.0
C435 C 0.30094 0.14059 0.88197 0.0
C436 C 0.30212 0.15217 0.89019 0.0
C437 C 0.29891 0.13915 0.86407 0.0
C438 C 0.29902 0.12797 0.85421 0.0
C439 C 0.31004 0.12561 0.85572 0.0
C440 C 0.31058 0.11568 0.84565 0.0
C441 C 0.30026 0.10812 0.83359 0.0
C442 C 0.28919 0.11042 0.83214 0.0
C443 C 0.28857 0.12023 0.84239 0.0
H444 H 0.84061 0.11954 0.83719 0.0
H445 H 0.82217 0.1032 0.81847 0.0
H446 H 0.79471 0.1154 0.84025 0.0
H447 H 0.81326 0.13201 0.85836 0.0
H448 H 0.85202 0.1472 0.83726 0.0
H449 H 0.82812 0.11101 0.87943 0.0
H450 H 0.80737 0.0941 0.89477 0.0
H451 H 0.80102 0.12651 0.91299 0.0
H452 H 0.8216 0.14329 0.89752 0.0
H453 H 0.85507 0.17624 0.89903 0.0
H454 H 0.87145 0.19628 0.91537 0.0
H455 H 0.90494 0.19244 0.89469 0.0
H456 H 0.88843 0.17225 0.87837 0.0
H457 H 0.84808 0.15081 0.89995 0.0
H458 H 0.86672 0.18562 0.85779 0.0
H459 H 0.88286 0.20382 0.83876 0.0
H460 H 0.89598 0.17679 0.81833 0.0
H461 H 0.88001 0.1587 0.83772 0.0
C462 C 0.82828 0.12689 0.84932 0.0
C463 C 0.83058 0.1186 0.83799 0.0
C464 C 0.82001 0.10921 0.82739 0.0
C465 C 0.80697 0.10802 0.82784 0.0
C466 C 0.80466 0.11617 0.83943 0.0
C467 C 0.81522 0.12556 0.84997 0.0
C468 C 0.83972 0.1376 0.85964 0.0
C469 C 0.85137 0.14781 0.85104 0.0
C470 C 0.83856 0.13868 0.87751 0.0
C471 C 0.82636 0.1284 0.88728 0.0
C472 C 0.82224 0.11445 0.88674 0.0
C473 C 0.81045 0.10482 0.89557 0.0
C474 C 0.80254 0.10899 0.905 0.0
C475 C 0.80681 0.12298 0.90566 0.0
C476 C 0.81862 0.13259 0.89696 0.0
C477 C 0.8705 0.17274 0.88741 0.0
C478 C 0.86593 0.17963 0.89809 0.0
C479 C 0.8753 0.19107 0.90746 0.0
C480 C 0.88949 0.19591 0.90638 0.0
C481 C 0.89408 0.18903 0.89566 0.0
C482 C 0.88466 0.1775 0.88634 0.0
C483 C 0.86034 0.16056 0.87754 0.0
C484 C 0.84896 0.15005 0.88623 0.0
C485 C 0.86153 0.15944 0.85967 0.0
C486 C 0.87225 0.17084 0.84929 0.0
C487 C 0.87329 0.1837 0.84949 0.0
C488 C 0.88242 0.19405 0.83848 0.0
C489 C 0.89065 0.19172 0.82699 0.0
C490 C 0.88989 0.17895 0.82716 0.0
C491 C 0.88071 0.16858 0.83815 0.0
H492 H 0.81952 0.68021 0.8334 0.0
H493 H 0.80205 0.68034 0.81545 0.0
H494 H 0.80651 0.71546 0.84312 0.0
H495 H 0.82407 0.71525 0.86117 0.0
H496 H 0.84547 0.69813 0.83652 0.0
H497 H 0.80752 0.67597 0.87386 0.0
H498 H 0.78722 0.67147 0.89045 0.0
H499 H 0.8118 0.70888 0.91889 0.0
H500 H 0.83215 0.71341 0.90207 0.0
H501 H 0.87367 0.71389 0.90076 0.0
H502 H 0.88974 0.71005 0.91728 0.0
H503 H 0.87337 0.67026 0.89351 0.0
H504 H 0.85774 0.67441 0.87675 0.0
H505 H 0.84377 0.69662 0.89983 0.0
H506 H 0.88351 0.71264 0.86151 0.0
H507 H 0.90056 0.70984 0.84526 0.0
H508 H 0.86771 0.67577 0.81797 0.0
H509 H 0.85081 0.67827 0.83467 0.0
C510 C 0.82314 0.69774 0.8486 0.0
C511 C 0.81678 0.68797 0.83559 0.0
C512 C 0.80682 0.68809 0.82531 0.0
C513 C 0.80301 0.69801 0.82775 0.0
C514 C 0.80918 0.70765 0.84099 0.0
C515 C 0.81921 0.70754 0.85131 0.0
C516 C 0.83412 0.69778 0.85894 0.0
C517 C 0.84508 0.69777 0.85037 0.0
C518 C 0.83363 0.69735 0.87699 0.0
C519 C 0.8213 0.6951 0.88661 0.0
C520 C 0.80852 0.68329 0.88353 0.0
C521 C 0.79696 0.68067 0.89312 0.0
C522 C 0.79795 0.6898 0.906 0.0
C523 C 0.81073 0.70172 0.90896 0.0
C524 C 0.82234 0.70428 0.89943 0.0
C525 C 0.86466 0.6945 0.88743 0.0
C526 C 0.87362 0.70438 0.89912 0.0
C527 C 0.88274 0.70213 0.9086 0.0
C528 C 0.88291 0.68987 0.90668 0.0
C529 C 0.87376 0.67994 0.89506 0.0
C530 C 0.86475 0.68225 0.88552 0.0
C531 C 0.85499 0.6968 0.87737 0.0
C532 C 0.84432 0.69731 0.886 0.0
C533 C 0.85536 0.69697 0.85931 0.0
C534 C 0.86587 0.6956 0.8494 0.0
C535 C 0.88 0.70449 0.85215 0.0
C536 C 0.88973 0.70295 0.84274 0.0
C537 C 0.8855 0.69254 0.83037 0.0
C538 C 0.87134 0.68374 0.8276 0.0
C539 C 0.86165 0.68526 0.83701 0.0
H540 H 0.80848 0.65267 0.51383 0.0
H541 H 0.79156 0.65532 0.53024 0.0
H542 H 0.75876 0.62168 0.50233 0.0
H543 H 0.77584 0.61875 0.4863 0.0
H544 H 0.81328 0.63243 0.51236 0.0
H545 H 0.80249 0.65705 0.47241 0.0
H546 H 0.78744 0.66209 0.45559 0.0
H547 H 0.7714 0.62329 0.42947 0.0
H548 H 0.78643 0.61823 0.44654 0.0
H549 H 0.82615 0.6161 0.44722 0.0
H550 H 0.84634 0.61972 0.43078 0.0
H551 H 0.87197 0.65646 0.45997 0.0
H552 H 0.85181 0.65299 0.47595 0.0
H553 H 0.81583 0.63386 0.44906 0.0
H554 H 0.83348 0.61375 0.48953 0.0
H555 H 0.8515 0.61393 0.5071 0.0
H556 H 0.85782 0.65059 0.53253 0.0
H557 H 0.84002 0.65045 0.51489 0.0
C558 C 0.79344 0.63554 0.49882 0.0
C559 C 0.79765 0.64583 0.51127 0.0
C560 C 0.78795 0.64743 0.5205 0.0
C561 C 0.77381 0.63878 0.51749 0.0
C562 C 0.76958 0.62846 0.505 0.0
C563 C 0.77932 0.62684 0.49575 0.0
C564 C 0.80392 0.63395 0.48924 0.0
C565 C 0.81383 0.63273 0.49851 0.0
C566 C 0.80457 0.63423 0.47119 0.0
C567 C 0.79545 0.6372 0.46084 0.0
C568 C 0.79568 0.6496 0.46311 0.0
C569 C 0.78717 0.65251 0.4534 0.0
C570 C 0.77825 0.64309 0.4412 0.0
C571 C 0.77807 0.63069 0.43888 0.0
C572 C 0.78669 0.62782 0.44854 0.0
C573 C 0.83752 0.63419 0.46291 0.0
C574 C 0.83615 0.62488 0.4501 0.0
C575 C 0.84768 0.62691 0.4408 0.0
C576 C 0.86072 0.6384 0.44407 0.0
C577 C 0.86204 0.6476 0.45704 0.0
C578 C 0.85055 0.64555 0.46631 0.0
C579 C 0.82532 0.63257 0.47222 0.0
C580 C 0.81505 0.63316 0.46288 0.0
C581 C 0.82464 0.63224 0.49027 0.0
C582 C 0.83542 0.6321 0.50088 0.0
C583 C 0.8388 0.62184 0.49885 0.0
C584 C 0.84903 0.62192 0.50894 0.0
C585 C 0.85612 0.63232 0.52112 0.0
C586 C 0.85269 0.64255 0.5231 0.0
C587 C 0.84242 0.64241 0.51314 0.0
H588 H 0.38326 0.21208 0.51145 0.0
H589 H 0.38119 0.22874 0.52934 0.0
H590 H 0.34142 0.21576 0.5072 0.0
H591 H 0.34329 0.1988 0.48999 0.0
H592 H 0.36681 0.18449 0.51215 0.0
H593 H 0.37912 0.21985 0.46912 0.0
H594 H 0.37505 0.23594 0.45311 0.0
H595 H 0.33677 0.20218 0.43442 0.0
H596 H 0.34071 0.18623 0.45073 0.0
H597 H 0.34109 0.15376 0.45154 0.0
H598 H 0.33747 0.13337 0.43635 0.0
H599 H 0.37562 0.13923 0.4566 0.0
H600 H 0.37919 0.15971 0.47187 0.0
H601 H 0.35987 0.17956 0.44947 0.0
H602 H 0.34316 0.14557 0.49244 0.0
H603 H 0.3412 0.12756 0.51123 0.0
H604 H 0.38146 0.15554 0.53172 0.0
H605 H 0.38352 0.17345 0.51248 0.0
C606 C 0.36351 0.2043 0.49923 0.0
C607 C 0.37414 0.2129 0.51041 0.0
C608 C 0.37298 0.22248 0.52053 0.0
C609 C 0.36112 0.22358 0.51973 0.0
C610 C 0.35061 0.21509 0.50829 0.0
C611 C 0.35175 0.20549 0.49827 0.0
C612 C 0.36427 0.19349 0.48935 0.0
C613 C 0.36567 0.1836 0.49838 0.0
C614 C 0.36217 0.19201 0.47147 0.0
C615 C 0.36017 0.20184 0.46122 0.0
C616 C 0.36985 0.21593 0.46159 0.0
C617 C 0.36756 0.2251 0.45234 0.0
C618 C 0.35555 0.22034 0.44256 0.0
C619 C 0.34602 0.2062 0.44201 0.0
C620 C 0.34832 0.19705 0.4512 0.0
C621 C 0.36039 0.15825 0.46289 0.0
C622 C 0.34875 0.15074 0.4526 0.0
C623 C 0.34671 0.1391 0.44388 0.0
C624 C 0.35629 0.13471 0.4452 0.0
C625 C 0.36799 0.14227 0.45546 0.0
C626 C 0.37005 0.15398 0.46417 0.0
C627 C 0.36225 0.17048 0.47231 0.0
C628 C 0.36138 0.18063 0.46319 0.0
C629 C 0.36432 0.17194 0.49018 0.0
C630 C 0.36356 0.16082 0.5009 0.0
C631 C 0.35168 0.14776 0.50074 0.0
C632 C 0.35051 0.13752 0.51162 0.0
C633 C 0.36116 0.14013 0.52301 0.0
C634 C 0.37315 0.15315 0.52296 0.0
C635 C 0.3743 0.16342 0.51207 0.0
H636 H 0.78489 0.17026 0.50454 0.0
H637 H 0.76913 0.15133 0.52305 0.0
H638 H 0.77839 0.12403 0.49508 0.0
H639 H 0.79439 0.14304 0.47684 0.0
H640 H 0.81184 0.18068 0.50192 0.0
H641 H 0.77341 0.15821 0.46252 0.0
H642 H 0.75613 0.13823 0.44658 0.0
H643 H 0.78856 0.1356 0.42042 0.0
H644 H 0.80573 0.15543 0.43642 0.0
H645 H 0.83905 0.18946 0.43727 0.0
H646 H 0.85901 0.20777 0.42256 0.0
H647 H 0.85276 0.23782 0.44882 0.0
H648 H 0.83279 0.21939 0.46365 0.0
H649 H 0.8125 0.18108 0.43858 0.0
H650 H 0.84962 0.19816 0.47744 0.0
H651 H 0.86884 0.21416 0.49529 0.0
H652 H 0.84166 0.2238 0.52326 0.0
H653 H 0.82255 0.20808 0.50495 0.0
C654 C 0.79072 0.15805 0.48919 0.0
C655 C 0.78345 0.16018 0.50231 0.0
C656 C 0.77448 0.14938 0.51288 0.0
C657 C 0.77257 0.13624 0.51048 0.0
C658 C 0.77956 0.13402 0.49706 0.0
C659 C 0.78866 0.14487 0.48662 0.0
C660 C 0.8012 0.16985 0.47912 0.0
C661 C 0.81179 0.18092 0.48806 0.0
C662 C 0.80147 0.16985 0.46103 0.0
C663 C 0.79087 0.15825 0.45079 0.0
C664 C 0.77678 0.15331 0.45336 0.0
C665 C 0.76693 0.1419 0.44426 0.0
C666 C 0.77099 0.13534 0.43226 0.0
C667 C 0.7851 0.14053 0.4294 0.0
C668 C 0.79493 0.15186 0.43857 0.0
C669 C 0.83451 0.20307 0.45164 0.0
C670 C 0.84186 0.19999 0.43969 0.0
C671 C 0.85325 0.21047 0.43125 0.0
C672 C 0.85748 0.22426 0.43453 0.0
C673 C 0.84986 0.22731 0.44619 0.0
C674 C 0.83845 0.2168 0.45463 0.0
C675 C 0.82305 0.19189 0.46141 0.0
C676 C 0.81234 0.18096 0.45244 0.0
C677 C 0.82288 0.19177 0.47947 0.0
C678 C 0.83468 0.20205 0.48973 0.0
C679 C 0.84785 0.20391 0.48721 0.0
C680 C 0.8588 0.21295 0.49755 0.0
C681 C 0.85678 0.22024 0.51073 0.0
C682 C 0.84361 0.21848 0.51308 0.0
C683 C 0.83265 0.20943 0.50272 0.0
H684 H 0.96855 0.50191 0.17232 0.0
H685 H 0.96659 0.51871 0.15499 0.0
H686 H 0.00568 0.55071 0.17421 0.0
H687 H 0.00777 0.53386 0.19122 0.0
H688 H 0.98645 0.49368 0.17137 0.0
H689 H 0.97296 0.51564 0.21412 0.0
H690 H 0.97477 0.53505 0.23024 0.0
H691 H 0.01541 0.54559 0.24697 0.0
H692 H 0.01367 0.5264 0.2305 0.0
H693 H 0.01417 0.49062 0.23096 0.0
H694 H 0.01609 0.47376 0.2481 0.0
H695 H 0.97511 0.4427 0.23276 0.0
H696 H 0.97342 0.45959 0.21534 0.0
H697 H -0.00422 0.49933 0.23358 0.0
H698 H 0.00896 0.47687 0.19273 0.0
H699 H 0.00804 0.45807 0.17621 0.0
H700 H 0.96884 0.44867 0.15544 0.0
H701 H 0.96962 0.4673 0.17232 0.0
C702 C 0.98822 0.51663 0.18324 0.0
C703 C 0.97671 0.51254 0.17279 0.0
C704 C 0.9756 0.52213 0.1629 0.0
C705 C 0.98595 0.53601 0.16333 0.0
C706 C -0.00255 0.54011 0.17384 0.0
C707 C -0.00136 0.53049 0.18358 0.0
C708 C 0.98946 0.50632 0.19344 0.0
C709 C 0.98825 0.49479 0.18503 0.0
C710 C 0.99227 0.508 0.21116 0.0
C711 C 0.99324 0.51967 0.22099 0.0
C712 C 0.98229 0.5222 0.22117 0.0
C713 C 0.98329 0.53321 0.2305 0.0
C714 C -0.00475 0.54186 0.23985 0.0
C715 C 0.00614 0.53923 0.23972 0.0
C716 C 0.00513 0.52821 0.23043 0.0
C717 C 0.9937 0.47632 0.22181 0.0
C718 C 0.00561 0.48017 0.23132 0.0
C719 C 0.00666 0.47053 0.24117 0.0
C720 C -0.00426 0.45687 0.24184 0.0
C721 C 0.98379 0.45308 0.23233 0.0
C722 C 0.98278 0.46272 0.22241 0.0
C723 C 0.99261 0.48664 0.21154 0.0
C724 C 0.99388 0.49818 0.21993 0.0
C725 C 0.98989 0.48495 0.19381 0.0
C726 C 0.98927 0.4734 0.18398 0.0
C727 C 4e-05 0.47062 0.18489 0.0
C728 C -0.00048 0.45989 0.17541 0.0
C729 C 0.98834 0.45189 0.16459 0.0
C730 C 0.97761 0.45473 0.1636 0.0
C731 C 0.97806 0.46536 0.17324 0.0
H732 H 0.50598 0.45336 0.17106 0.0
H733 H 0.48728 0.43692 0.15273 0.0
H734 H 0.46054 0.45023 0.17395 0.0
H735 H 0.47936 0.46692 0.19171 0.0
H736 H 0.51787 0.48129 0.17081 0.0
H737 H 0.49206 0.44475 0.21168 0.0
H738 H 0.47069 0.42853 0.22637 0.0
H739 H 0.4682 0.46237 0.24798 0.0
H740 H 0.48911 0.47843 0.23268 0.0
H741 H 0.52212 0.51043 0.23255 0.0
H742 H 0.53894 0.53068 0.24815 0.0
H743 H 0.57169 0.52543 0.22787 0.0
H744 H 0.55472 0.50507 0.21218 0.0
H745 H 0.5145 0.48462 0.23364 0.0
H746 H 0.53479 0.52013 0.19287 0.0
H747 H 0.55166 0.53835 0.1745 0.0
H748 H 0.56161 0.50986 0.15108 0.0
H749 H 0.54489 0.49166 0.16982 0.0
C750 C 0.49403 0.46126 0.18288 0.0
C751 C 0.49606 0.45267 0.17179 0.0
C752 C 0.48534 0.44322 0.16142 0.0
C753 C 0.47242 0.44227 0.16187 0.0
C754 C 0.4704 0.4508 0.17315 0.0
C755 C 0.48111 0.46025 0.18346 0.0
C756 C 0.50558 0.47179 0.19322 0.0
C757 C 0.51733 0.48185 0.18461 0.0
C758 C 0.50454 0.47279 0.21114 0.0
C759 C 0.49213 0.46282 0.22091 0.0
C760 C 0.48686 0.44866 0.21953 0.0
C761 C 0.47471 0.4394 0.22805 0.0
C762 C 0.46765 0.44414 0.23824 0.0
C763 C 0.4732 0.45835 0.23997 0.0
C764 C 0.48527 0.46756 0.23139 0.0
C765 C 0.53714 0.50624 0.22114 0.0
C766 C 0.5329 0.51353 0.2316 0.0
C767 C 0.54254 0.5251 0.24055 0.0
C768 C 0.55666 0.52965 0.23929 0.0
C769 C 0.5609 0.52227 0.22895 0.0
C770 C 0.55122 0.51063 0.22002 0.0
C771 C 0.52675 0.49426 0.21121 0.0
C772 C 0.51524 0.4839 0.21989 0.0
C773 C 0.52776 0.49327 0.19328 0.0
C774 C 0.53871 0.50455 0.18295 0.0
C775 C 0.54085 0.51786 0.18412 0.0
C776 C 0.55048 0.52827 0.17358 0.0
C777 C 0.55799 0.52553 0.1614 0.0
C778 C 0.55593 0.51224 0.16031 0.0
C779 C 0.5464 0.50186 0.17101 0.0
H780 H 0.52984 0.03043 0.16884 0.0
H781 H 0.5471 0.02967 0.15047 0.0
H782 H 0.5365 0.99049 0.17183 0.0
H783 H 0.51901 0.99108 0.18984 0.0
H784 H 0.50309 0.01462 0.16988 0.0
H785 H 0.53956 0.02592 0.20986 0.0
H786 H 0.55647 0.02226 0.22451 0.0
H787 H 0.52348 0.98467 0.24591 0.0
H788 H 0.50673 0.98805 0.23059 0.0
H789 H 0.47346 0.98938 0.23194 0.0
H790 H 0.45425 0.9873 0.24895 0.0
H791 H 0.46223 0.02633 0.22985 0.0
H792 H 0.48161 0.02849 0.21302 0.0
H793 H 0.4999 0.00677 0.23239 0.0
H794 H 0.46378 0.9941 0.19158 0.0
H795 H 0.44653 0.99547 0.17439 0.0
H796 H 0.47806 0.03447 0.15442 0.0
H797 H 0.49526 0.03312 0.17179 0.0
C798 C 0.52323 0.0109 0.18091 0.0
C799 C 0.53121 0.02166 0.16956 0.0
C800 C 0.54106 0.02122 0.15908 0.0
C801 C 0.54317 0.01005 0.1598 0.0
C802 C 0.53523 -0.00068 0.1712 0.0
C803 C 0.52525 -0.00033 0.18152 0.0
C804 C 0.51249 0.01124 0.19166 0.0
C805 C 0.50254 0.01316 0.18361 0.0
C806 C 0.51156 0.00898 0.20952 0.0
C807 C 0.52188 0.00717 0.21895 0.0
C808 C 0.536 0.01684 0.2176 0.0
C809 C 0.54564 0.01479 0.22612 0.0
C810 C 0.54135 0.00312 0.23631 0.0
C811 C 0.52718 0.99363 0.23791 0.0
C812 C 0.51756 0.99563 0.22931 0.0
C813 C 0.47891 0.00902 0.22106 0.0
C814 C 0.47116 -0.00244 0.23151 0.0
C815 C 0.4602 0.99638 0.24125 0.0
C816 C 0.45673 0.00664 0.2407 0.0
C817 C 0.46456 0.01819 0.23035 0.0
C818 C 0.47563 0.01942 0.22072 0.0
C819 C 0.49041 0.01001 0.21058 0.0
C820 C 0.50053 0.00838 0.21869 0.0
C821 C 0.49145 0.01246 0.19276 0.0
C822 C 0.4808 0.01357 0.1831 0.0
C823 C 0.46694 0.00307 0.18376 0.0
C824 C 0.45709 0.00387 0.17394 0.0
C825 C 0.46095 0.01508 0.16307 0.0
C826 C 0.4748 0.02565 0.16257 0.0
C827 C 0.48463 0.0249 0.17249 0.0
H828 H 0.48431 0.00278 0.84994 0.0
H829 H 0.46674 0.00464 0.86601 0.0
H830 H 0.43502 0.9709 0.83701 0.0
H831 H 0.45269 0.96868 0.82152 0.0
H832 H 0.48993 0.98299 0.84816 0.0
H833 H 0.47929 0.00766 0.80669 0.0
H834 H 0.46375 0.01189 0.78982 0.0
H835 H 0.44634 0.97148 0.76744 0.0
H836 H 0.46244 0.96767 0.78384 0.0
H837 H 0.5023 0.96659 0.78304 0.0
H838 H 0.52214 0.96944 0.76653 0.0
H839 H 0.54882 0.00594 0.79555 0.0
H840 H 0.52897 0.0032 0.81169 0.0
H841 H 0.49268 0.9846 0.78487 0.0
H842 H 0.51073 0.96481 0.82377 0.0
H843 H 0.5286 0.96448 0.84086 0.0
H844 H 0.53312 -0.00108 0.87023 0.0
H845 H 0.5158 -0.00038 0.8526 0.0
C846 C 0.46983 0.98566 0.83446 0.0
C847 C 0.47357 0.99575 0.84709 0.0
C848 C 0.4635 -0.0031 0.85613 0.0
C849 C 0.44946 0.98799 0.8527 0.0
C850 C 0.44573 0.97787 0.84004 0.0
C851 C 0.45582 0.97668 0.83105 0.0
C852 C 0.48065 0.98453 0.825 0.0
C853 C 0.4906 0.98342 0.83432 0.0
C854 C 0.48135 0.98484 0.80696 0.0
C855 C 0.47194 0.98733 0.79656 0.0
C856 C 0.47214 -0.00025 0.7981 0.0
C857 C 0.46315 0.00209 0.78851 0.0
C858 C 0.45366 0.992 0.77729 0.0
C859 C 0.45361 0.97959 0.77572 0.0
C860 C 0.46274 0.97733 0.78516 0.0
C861 C 0.5142 0.98461 0.79866 0.0
C862 C 0.51245 0.97516 0.78586 0.0
C863 C 0.52378 0.97675 0.77654 0.0
C864 C 0.53702 0.98792 0.77975 0.0
C865 C 0.53873 -0.00269 0.79268 0.0
C866 C 0.52742 0.99569 0.80201 0.0
C867 C 0.50217 0.98333 0.80805 0.0
C868 C 0.49192 0.98394 0.79869 0.0
C869 C 0.50144 0.98293 0.82612 0.0
C870 C 0.512 0.98234 0.83676 0.0
C871 C 0.51568 0.97238 0.83378 0.0
C872 C 0.52581 0.97211 0.84369 0.0
C873 C 0.53238 0.98172 0.85689 0.0
C874 C 0.52849 0.99152 0.85998 0.0
C875 C 0.51845 0.99184 0.85003 0.0
H876 H 0.03038 0.53366 0.84767 0.0
H877 H 0.02958 0.55139 0.86478 0.0
H878 H 0.98938 0.53886 0.84436 0.0
H879 H 0.99003 0.52089 0.82785 0.0
H880 H 0.01391 0.50632 0.84926 0.0
H881 H 0.02603 0.54062 0.80586 0.0
H882 H 0.02321 0.55724 0.78929 0.0
H883 H 0.98377 0.52475 0.7715 0.0
H884 H 0.98651 0.50825 0.78841 0.0
H885 H 0.98688 0.47398 0.78979 0.0
H886 H 0.98434 0.45428 0.77382 0.0
H887 H 0.02397 0.46274 0.79204 0.0
H888 H 0.02645 0.48249 0.80804 0.0
H889 H 0.00501 0.50032 0.78697 0.0
H890 H 0.99108 0.46665 0.83101 0.0
H891 H 0.99153 0.44947 0.84926 0.0
H892 H 0.03221 0.47966 0.8665 0.0
H893 H 0.03181 0.49673 0.8479 0.0
C894 C 0.01033 0.52603 0.83635 0.0
C895 C 0.02142 0.53477 0.84687 0.0
C896 C 0.02099 0.54497 0.85653 0.0
C897 C 0.00942 0.54655 0.85593 0.0
C898 C -0.00161 0.53783 0.84526 0.0
C899 C -0.00119 0.52764 0.83566 0.0
C900 C 0.01052 0.51486 0.82659 0.0
C901 C 0.01226 0.50516 0.83557 0.0
C902 C 0.00795 0.51312 0.80882 0.0
C903 C 0.00643 0.5232 0.79849 0.0
C904 C 0.01675 0.53709 0.79845 0.0
C905 C 0.01517 0.54656 0.78886 0.0
C906 C 0.00325 0.54232 0.7791 0.0
C907 C 0.993 0.52838 0.77904 0.0
C908 C 0.9946 0.51892 0.78859 0.0
C909 C 0.00682 0.47967 0.80018 0.0
C910 C -0.00495 0.47163 0.7903 0.0
C911 C 0.99363 0.46039 0.78114 0.0
C912 C 0.00398 0.45697 0.78161 0.0
C913 C 0.01575 0.46502 0.79157 0.0
C914 C 0.01718 0.4763 0.80071 0.0
C915 C 0.00826 0.49171 0.80966 0.0
C916 C 0.00685 0.50158 0.80062 0.0
C917 C 0.01097 0.49351 0.8274 0.0
C918 C 0.01147 0.48295 0.83798 0.0
C919 C 0.00018 0.46952 0.83853 0.0
C920 C 0.0004 0.45974 0.84908 0.0
C921 C 0.0119 0.46321 0.85934 0.0
C922 C 0.02327 0.47662 0.8586 0.0
C923 C 0.02302 0.48642 0.84809 0.0
H924 H 0.45011 0.50198 0.83992 0.0
H925 H 0.43376 0.48278 0.85764 0.0
H926 H 0.44742 0.45709 0.83422 0.0
H927 H 0.46405 0.47645 0.81702 0.0
H928 H 0.47811 0.51395 0.84011 0.0
H929 H 0.44164 0.49008 0.79813 0.0
H930 H 0.42545 0.46954 0.78214 0.0
H931 H 0.45952 0.467 0.76085 0.0
H932 H 0.47559 0.48727 0.77716 0.0
H933 H 0.50758 0.52188 0.77733 0.0
H934 H 0.52752 0.53991 0.76231 0.0
H935 H 0.52026 0.57032 0.78565 0.0
H936 H 0.50019 0.55213 0.80071 0.0
H937 H 0.48133 0.51308 0.77696 0.0
H938 H 0.51727 0.53319 0.81727 0.0
H939 H 0.53546 0.55028 0.83547 0.0
H940 H 0.50572 0.55728 0.86152 0.0
H941 H 0.48755 0.54042 0.84292 0.0
C942 C 0.45818 0.49061 0.82704 0.0
C943 C 0.4495 0.49218 0.83856 0.0
C944 C 0.44011 0.48117 0.84857 0.0
C945 C 0.43928 0.4684 0.84731 0.0
C946 C 0.44789 0.46682 0.83559 0.0
C947 C 0.45729 0.47784 0.82562 0.0
C948 C 0.46871 0.5025 0.81719 0.0
C949 C 0.47865 0.51395 0.82627 0.0
C950 C 0.46971 0.50215 0.7992 0.0
C951 C 0.45982 0.49014 0.78894 0.0
C952 C 0.4456 0.48507 0.79003 0.0
C953 C 0.43637 0.4734 0.78079 0.0
C954 C 0.44121 0.46661 0.7703 0.0
C955 C 0.45546 0.47188 0.76901 0.0
C956 C 0.46467 0.48354 0.77819 0.0
C957 C 0.50244 0.53566 0.7902 0.0
C958 C 0.51016 0.53241 0.77905 0.0
C959 C 0.52154 0.54273 0.77044 0.0
C960 C 0.52543 0.55653 0.77277 0.0
C961 C 0.51757 0.55978 0.78374 0.0
C962 C 0.50612 0.54941 0.79232 0.0
C963 C 0.49079 0.52459 0.79987 0.0
C964 C 0.48064 0.51328 0.79078 0.0
C965 C 0.48989 0.52486 0.8179 0.0
C966 C 0.50105 0.53568 0.82849 0.0
C967 C 0.51469 0.53862 0.8266 0.0
C968 C 0.52508 0.54837 0.83705 0.0
C969 C 0.522 0.55514 0.84986 0.0
C970 C 0.50836 0.55217 0.85179 0.0
C971 C 0.49799 0.54255 0.84117 0.0
H972 H 0.61285 0.82579 0.51181 0.0
H973 H 0.61331 0.84377 0.49417 0.0
H974 H 0.65561 0.87126 0.50868 0.0
H975 H 0.65494 0.85338 0.52649 0.0
H976 H 0.62969 0.81453 0.50834 0.0
H977 H 0.61955 0.83871 0.55185 0.0
H978 H 0.62361 0.85916 0.56759 0.0
H979 H 0.66355 0.86651 0.58279 0.0
H980 H 0.65957 0.84629 0.56671 0.0
H981 H 0.65939 0.81227 0.56601 0.0
H982 H 0.66307 0.79588 0.58173 0.0
H983 H 0.62288 0.76321 0.56639 0.0
H984 H 0.61912 0.77974 0.55102 0.0
H985 H 0.6409 0.81995 0.57009 0.0
H986 H 0.65446 0.80049 0.5256 0.0
H987 H 0.65471 0.7831 0.5074 0.0
H988 H 0.61252 0.76854 0.49315 0.0
H989 H 0.6125 0.78625 0.51117 0.0
C990 C 0.63381 0.83831 0.52057 0.0
C991 C 0.62216 0.83575 0.51126 0.0
C992 C 0.62247 0.84601 0.50114 0.0
C993 C 0.6345 0.85897 0.50001 0.0
C994 C 0.6461 0.8615 0.5095 0.0
C995 C 0.64575 0.85127 0.51965 0.0
C996 C 0.63378 0.82728 0.5306 0.0
C997 C 0.6318 0.81554 0.52194 0.0
C998 C 0.63707 0.82887 0.54817 0.0
C999 C 0.6393 0.84104 0.55801 0.0
C1000 C 0.6292 0.84478 0.55851 0.0
C1001 C 0.63149 0.85638 0.56763 0.0
C1002 C 0.64392 0.86446 0.57639 0.0
C1003 C 0.65395 0.8606 0.57599 0.0
C1004 C 0.65164 0.84899 0.56693 0.0
C1005 C 0.63902 0.79721 0.55728 0.0
C1006 C 0.65135 0.80159 0.56611 0.0
C1007 C 0.65348 0.7922 0.57496 0.0
C1008 C 0.64328 0.77825 0.57523 0.0
C1009 C 0.63088 0.7739 0.56652 0.0
C1010 C 0.62876 0.78331 0.55761 0.0
C1011 C 0.63693 0.80727 0.5478 0.0
C1012 C 0.6385 0.81879 0.55657 0.0
C1013 C 0.63363 0.80566 0.53023 0.0
C1014 C 0.63342 0.79458 0.51985 0.0
C1015 C 0.64521 0.79344 0.51872 0.0
C1016 C 0.64531 0.78343 0.50834 0.0
C1017 C 0.63361 0.77435 0.49883 0.0
C1018 C 0.62176 0.77545 0.50013 0.0
C1019 C 0.6217 0.78552 0.51047 0.0
H1020 H 0.17116 0.78558 0.50953 0.0
H1021 H 0.15218 0.7695 0.49128 0.0
H1022 H 0.12571 0.78222 0.51484 0.0
H1023 H 0.14482 0.79861 0.53248 0.0
H1024 H 0.18291 0.81328 0.50986 0.0
H1025 H 0.15834 0.7767 0.55074 0.0
H1026 H 0.13716 0.76017 0.56548 0.0
H1027 H 0.13462 0.79353 0.58861 0.0
H1028 H 0.15532 0.80991 0.57321 0.0
H1029 H 0.18771 0.84296 0.57072 0.0
H1030 H 0.20462 0.86389 0.58525 0.0
H1031 H 0.23741 0.8587 0.56503 0.0
H1032 H 0.22036 0.83757 0.55066 0.0
H1033 H 0.18074 0.81681 0.57285 0.0
H1034 H 0.19795 0.85145 0.5308 0.0
H1035 H 0.21367 0.86985 0.51176 0.0
H1036 H 0.22661 0.84319 0.48962 0.0
H1037 H 0.2111 0.82489 0.50913 0.0
C1038 C 0.15938 0.79318 0.52251 0.0
C1039 C 0.16123 0.78482 0.51081 0.0
C1040 C 0.15035 0.77557 0.50049 0.0
C1041 C 0.13742 0.77458 0.50159 0.0
C1042 C 0.13556 0.78283 0.51352 0.0
C1043 C 0.14644 0.79209 0.52377 0.0
C1044 C 0.17114 0.80369 0.5326 0.0
C1045 C 0.18263 0.81383 0.52369 0.0
C1046 C 0.17047 0.8047 0.55059 0.0
C1047 C 0.15835 0.79457 0.56068 0.0
C1048 C 0.15318 0.78044 0.55895 0.0
C1049 C 0.14114 0.77099 0.56751 0.0
C1050 C 0.13409 0.77551 0.5781 0.0
C1051 C 0.1396 0.78967 0.58028 0.0
C1052 C 0.15156 0.79908 0.57164 0.0
C1053 C 0.20277 0.83873 0.55955 0.0
C1054 C 0.19852 0.84624 0.56955 0.0
C1055 C 0.20821 0.85827 0.57771 0.0
C1056 C 0.22234 0.86299 0.57616 0.0
C1057 C 0.22658 0.85528 0.5665 0.0
C1058 C 0.21687 0.84326 0.55823 0.0
C1059 C 0.19239 0.82646 0.55006 0.0
C1060 C 0.18121 0.816 0.55908 0.0
C1061 C 0.19307 0.82538 0.53211 0.0
C1062 C 0.20348 0.83685 0.52153 0.0
C1063 C 0.2044 0.84966 0.52213 0.0
C1064 C 0.21328 0.86012 0.5111 0.0
C1065 C 0.22133 0.85796 0.49912 0.0
C1066 C 0.22065 0.84522 0.49882 0.0
C1067 C 0.21174 0.83474 0.50988 0.0
H1068 H 0.15847 0.35254 0.49716 0.0
H1069 H 0.14159 0.35393 0.47938 0.0
H1070 H 0.13998 0.38213 0.5152 0.0
H1071 H 0.15761 0.38139 0.53271 0.0
H1072 H 0.1827 0.36941 0.50447 0.0
H1073 H 0.14196 0.34384 0.53814 0.0
H1074 H 0.12142 0.33909 0.55433 0.0
H1075 H 0.14662 0.37219 0.589 0.0
H1076 H 0.16718 0.37684 0.57275 0.0
H1077 H 0.20603 0.3761 0.57144 0.0
H1078 H 0.22083 0.37015 0.58745 0.0
H1079 H 0.20882 0.33542 0.55407 0.0
H1080 H 0.19386 0.34126 0.5384 0.0
H1081 H 0.17752 0.35999 0.56662 0.0
H1082 H 0.21925 0.37876 0.53174 0.0
H1083 H 0.23673 0.37765 0.51403 0.0
H1084 H 0.20506 0.35012 0.47928 0.0
H1085 H 0.18762 0.35069 0.49723 0.0
C1086 C 0.15936 0.36685 0.51634 0.0
C1087 C 0.15468 0.35919 0.50117 0.0
C1088 C 0.14501 0.35994 0.49103 0.0
C1089 C 0.13962 0.36818 0.49596 0.0
C1090 C 0.14405 0.37571 0.51122 0.0
C1091 C 0.15402 0.37521 0.52124 0.0
C1092 C 0.16998 0.36608 0.52664 0.0
C1093 C 0.18148 0.36721 0.51805 0.0
C1094 C 0.16857 0.36351 0.54444 0.0
C1095 C 0.15608 0.36083 0.55409 0.0
C1096 C 0.14305 0.35018 0.54912 0.0
C1097 C 0.13131 0.34748 0.55838 0.0
C1098 C 0.13237 0.3553 0.57292 0.0
C1099 C 0.14546 0.3659 0.57796 0.0
C1100 C 0.15721 0.36861 0.56865 0.0
C1101 C 0.19897 0.3592 0.55365 0.0
C1102 C 0.20662 0.36722 0.5676 0.0
C1103 C 0.21513 0.36386 0.57664 0.0
C1104 C 0.216 0.35233 0.572 0.0
C1105 C 0.20827 0.3443 0.55805 0.0
C1106 C 0.19981 0.34768 0.549 0.0
C1107 C 0.18981 0.36264 0.54422 0.0
C1108 C 0.17875 0.36226 0.55306 0.0
C1109 C 0.19119 0.3651 0.52641 0.0
C1110 C 0.20206 0.36475 0.51591 0.0
C1111 C 0.21604 0.37233 0.52046 0.0
C1112 C 0.22602 0.37174 0.51032 0.0
C1113 C 0.2222 0.36387 0.49528 0.0
C1114 C 0.20827 0.35639 0.49071 0.0
C1115 C 0.19831 0.35675 0.50097 0.0
H1116 H 0.01513 0.38932 0.05149 0.0
H1117 H 0.01232 0.40236 0.0744 0.0
H1118 H 0.97713 0.36545 0.0935 0.0
H1119 H 0.97963 0.35233 0.07018 0.0
H1120 H 0.97188 0.38583 0.092 0.0
H1121 H 0.02184 0.4049 0.12404 0.0
H1122 H 0.02418 0.40917 0.10179 0.0
H1123 H 0.01548 0.39147 0.10818 0.0
C1124 C 0.00686 0.38393 0.06064 0.0
C1125 C -0.00238 0.36978 0.05906 0.0
C1126 C 0.00533 0.3914 0.07383 0.0
C1127 C -0.00531 0.38485 0.0859 0.0
C1128 C 0.98547 0.3707 0.0844 0.0
H1129 H 0.99401 0.43219 0.17447 0.0
H1130 H 0.99426 0.4145 0.1566 0.0
C1131 C 0.98692 0.36322 0.07109 0.0
C1132 C 0.99281 0.39297 0.09945 0.0
H1133 H 0.01008 0.41721 0.13008 0.0
C1134 C 0.98017 0.39255 0.10049 0.0
C1135 C 0.00352 0.40155 0.11077 0.0
C1136 C 0.01695 0.40169 0.11128 0.0
C1137 C 0.97817 0.40093 0.11201 0.0
C1138 C 0.98924 0.41026 0.12241 0.0
C1139 C 0.00166 0.41022 0.12192 0.0
C1140 C 0.98836 0.42049 0.13344 0.0
C1141 C 0.96421 0.39965 0.11289 0.0
C1142 C 0.98506 0.4298 0.12636 0.0
C1143 C 0.9848 0.43981 0.13655 0.0
C1144 C 0.98809 0.44089 0.15398 0.0
C1145 C 0.99149 0.43163 0.16105 0.0
C1146 C 0.9916 0.42151 0.15088 0.0
H1147 H 0.95596 0.3893 0.10884 0.0
H1148 H 0.96182 0.40166 0.126 0.0
H1149 H 0.96404 0.40719 0.10409 0.0
H1150 H 0.98296 0.42951 0.11284 0.0
H1151 H 0.98239 0.44696 0.13069 0.0
H1152 H 0.63744 0.62231 0.05358 0.0
H1153 H 0.62914 0.60581 0.0771 0.0
H1154 H 0.58725 0.59347 0.06452 0.0
H1155 H 0.5954 0.61008 0.0414 0.0
H1156 H 0.59188 0.59774 0.09828 0.0
H1157 H 0.61139 0.56453 0.07426 0.0
H1158 H 0.62431 0.58226 0.07673 0.0
H1159 H 0.61099 0.57734 0.06114 0.0
C1160 C 0.62646 0.61604 0.05579 0.0
C1161 C 0.61709 0.61752 0.04558 0.0
C1162 C 0.62173 0.60656 0.06918 0.0
C1163 C 0.60756 0.59827 0.07243 0.0
C1164 C 0.59823 0.59974 0.06225 0.0
H1165 H 0.55952 0.52316 0.12688 0.0
H1166 H 0.57302 0.5414 0.10637 0.0
C1167 C 0.60292 0.60926 0.04901 0.0
C1168 C 0.60229 0.58824 0.08664 0.0
H1169 H 0.6004 0.55902 0.10125 0.0
C1170 C 0.59379 0.58931 0.09899 0.0
C1171 C 0.60471 0.57718 0.08744 0.0
C1172 C 0.61324 0.57513 0.07412 0.0
C1173 C 0.58741 0.57949 0.11189 0.0
C1174 C 0.58991 0.56848 0.11279 0.0
C1175 C 0.59861 0.56753 0.10063 0.0
C1176 C 0.58279 0.55733 0.12548 0.0
C1177 C 0.57758 0.5807 0.12397 0.0
C1178 C 0.58408 0.56015 0.14308 0.0
C1179 C 0.57628 0.54976 0.15483 0.0
C1180 C 0.56723 0.53632 0.14918 0.0
C1181 C 0.56647 0.5334 0.13162 0.0
C1182 C 0.57416 0.54381 0.11989 0.0
H1183 H 0.57423 0.58767 0.11894 0.0
H1184 H 0.5683 0.57054 0.12638 0.0
H1185 H 0.58279 0.58493 0.13635 0.0
H1186 H 0.59094 0.57044 0.14772 0.0
H1187 H 0.57722 0.55225 0.16831 0.0
H1188 H 0.37116 0.01562 0.05759 0.0
H1189 H 0.38609 0.02057 0.08246 0.0
H1190 H 0.39726 0.99154 0.06422 0.0
H1191 H 0.38228 0.98635 0.0397 0.0
H1192 H 0.39013 0.98813 0.09808 0.0
H1193 H 0.42812 0.0427 0.08384 0.0
H1194 H 0.41043 0.03831 0.08507 0.0
H1195 H 0.41591 0.03131 0.06824 0.0
C1196 C 0.37686 0.01035 0.05885 0.0
C1197 C 0.37551 0.00059 0.04665 0.0
C1198 C 0.38543 0.01324 0.07303 0.0
C1199 C 0.39288 0.00651 0.0751 0.0
C1200 C 0.39159 -0.00316 0.06289 0.0
H1201 H 0.46406 0.02162 0.12926 0.0
H1202 H 0.44677 0.02048 0.10968 0.0
C1203 C 0.38301 0.9939 0.04885 0.0
C1204 C 0.40187 0.00917 0.09007 0.0
H1205 H 0.43179 0.03339 0.10865 0.0
C1206 C 0.39918 -0.00194 0.10052 0.0
C1207 C 0.41369 0.02211 0.09311 0.0
C1208 C 0.41733 0.03429 0.08193 0.0
C1209 C 0.40823 -0.00061 0.11356 0.0
C1210 C 0.42014 0.01231 0.11651 0.0
C1211 C 0.4226 0.02353 0.10642 0.0
C1212 C 0.43078 0.01404 0.12891 0.0
C1213 C 0.40532 0.9868 0.12345 0.0
C1214 C 0.42763 0.01108 0.1463 0.0
C1215 C 0.43748 0.01163 0.15752 0.0
C1216 C 0.45072 0.01536 0.15156 0.0
C1217 C 0.45399 0.01883 0.13427 0.0
C1218 C 0.44411 0.01817 0.12306 0.0
H1219 H 0.39748 0.97722 0.11706 0.0
H1220 H 0.41484 0.98635 0.12507 0.0
H1221 H 0.40133 0.98716 0.13632 0.0
H1222 H 0.41749 0.00817 0.15116 0.0
H1223 H 0.43475 0.0091 0.17084 0.0
H1224 H 0.35457 0.97696 0.95538 0.0
H1225 H 0.3687 0.9749 0.93298 0.0
H1226 H 0.39807 0.01814 0.93703 0.0
H1227 H 0.38422 0.02023 0.95967 0.0
H1228 H 0.37807 0.98727 0.90147 0.0
H1229 H 0.42171 0.00121 0.94526 0.0
H1230 H 0.40492 -0.00285 0.95284 0.0
H1231 H 0.41669 0.01388 0.94444 0.0
C1232 C 0.364 0.98604 0.95142 0.0
C1233 C 0.36839 -0.00127 0.95942 0.0
C1234 C 0.37205 0.98484 0.93863 0.0
C1235 C 0.38456 0.99631 0.93363 0.0
C1236 C 0.38862 0.0091 0.94103 0.0
H1237 H 0.44984 0.0113 0.86296 0.0
H1238 H 0.43331 0.01305 0.88159 0.0
C1239 C 0.38066 0.01029 0.9539 0.0
C1240 C 0.39358 0.99486 0.92102 0.0
H1241 H 0.42586 -0.00017 0.91574 0.0
C1242 C 0.3885 0.98995 0.90459 0.0
C1243 C 0.40715 -0.00173 0.9252 0.0
C1244 C 0.41291 0.00279 0.94294 0.0
C1245 C 0.39676 0.98867 0.89209 0.0
C1246 C 0.41038 0.99234 0.89621 0.0
C1247 C 0.41542 -0.00285 0.91264 0.0
C1248 C 0.41962 0.99118 0.88375 0.0
C1249 C 0.39102 0.98362 0.87448 0.0
C1250 C 0.41731 0.97828 0.87882 0.0
C1251 C 0.42682 0.97722 0.86836 0.0
C1252 C 0.43881 0.98907 0.8627 0.0
C1253 C 0.44085 0.00198 0.86732 0.0
C1254 C 0.43137 0.00301 0.87785 0.0
H1255 H 0.38117 0.9834 0.87249 0.0
H1256 H 0.39853 0.99022 0.86457 0.0
H1257 H 0.38912 0.97309 0.87269 0.0
H1258 H 0.40838 0.96904 0.8835 0.0
H1259 H 0.42503 0.96713 0.86525 0.0
H1260 H 0.01934 0.37883 0.96686 0.0
H1261 H 0.02478 0.39585 0.94428 0.0
H1262 H 0.98565 0.39307 0.95271 0.0
H1263 H 0.98019 0.37633 0.97515 0.0
H1264 H 0.01007 0.39436 0.91366 0.0
H1265 H 0.01367 0.43415 0.95824 0.0
H1266 H 0.01417 0.4193 0.96539 0.0
H1267 H -0.00202 0.41804 0.96072 0.0
C1268 C 0.0119 0.38183 0.96385 0.0
C1269 C -0.0006 0.37631 0.97297 0.0
C1270 C 0.01502 0.39154 0.95097 0.0
C1271 C 0.00573 0.39591 0.94709 0.0
C1272 C 0.9931 0.39007 0.95577 0.0
H1273 H 0.99088 0.44549 0.88015 0.0
H1274 H 0.99084 0.4293 0.90064 0.0
C1275 C 0.98998 0.38044 0.96858 0.0
C1276 C 0.00904 0.40661 0.93408 0.0
H1277 H 0.01084 0.43732 0.92864 0.0
C1278 C 0.01049 0.40387 0.91692 0.0
C1279 C 0.00963 0.41903 0.93841 0.0
C1280 C 0.00892 0.42289 0.95671 0.0
C1281 C 0.01176 0.41293 0.90387 0.0
C1282 C 0.01167 0.425 0.90818 0.0
C1283 C 0.01079 0.42798 0.92539 0.0
C1284 C 0.01169 0.43434 0.89504 0.0
C1285 C 0.01257 0.40927 0.88552 0.0
C1286 C 0.02345 0.44254 0.88511 0.0
C1287 C 0.02351 0.45183 0.87336 0.0
C1288 C 0.01179 0.45303 0.87132 0.0
C1289 C -0.0 0.44468 0.88121 0.0
C1290 C -2e-05 0.43548 0.89299 0.0
H1291 H 0.01069 0.39869 0.88417 0.0
H1292 H 0.00496 0.41023 0.87767 0.0
H1293 H 0.02296 0.4165 0.88033 0.0
H1294 H 0.03264 0.44191 0.88665 0.0
H1295 H 0.03272 0.45806 0.86586 0.0
H1296 H 0.61574 0.64606 0.95098 0.0
H1297 H 0.59881 0.63394 0.92847 0.0
H1298 H 0.59701 0.5963 0.94229 0.0
H1299 H 0.61424 0.60842 0.96436 0.0
H1300 H 0.59772 0.59911 0.90848 0.0
H1301 H 0.55811 0.60907 0.93574 0.0
H1302 H 0.57416 0.62436 0.93119 0.0
H1303 H 0.57337 0.61273 0.9473 0.0
C1304 C 0.61175 0.63521 0.94918 0.0
C1305 C 0.61626 0.62818 0.95951 0.0
C1306 C 0.602 0.62828 0.93639 0.0
C1307 C 0.59641 0.61415 0.93393 0.0
C1308 C 0.60112 0.60719 0.94401 0.0
H1309 H 0.52072 0.55604 0.88459 0.0
H1310 H 0.53911 0.571 0.90422 0.0
C1311 C 0.61097 0.61413 0.95663 0.0
C1312 C 0.58566 0.60652 0.92088 0.0
H1313 H 0.55328 0.59812 0.90874 0.0
C1314 C 0.58801 0.5989 0.90852 0.0
C1315 C 0.57291 0.60611 0.92108 0.0
C1316 C 0.5694 0.61339 0.93463 0.0
C1317 C 0.57795 0.59081 0.89645 0.0
C1318 C 0.56532 0.59066 0.8964 0.0
C1319 C 0.56301 0.59835 0.90868 0.0
C1320 C 0.5541 0.58204 0.8843 0.0
C1321 C 0.58077 0.58213 0.88429 0.0
C1322 C 0.55631 0.58344 0.86657 0.0
C1323 C 0.54584 0.5748 0.85534 0.0
C1324 C 0.5329 0.56479 0.86165 0.0
C1325 C 0.53056 0.56373 0.87937 0.0
C1326 C 0.54107 0.57224 0.89059 0.0
H1327 H 0.5891 0.58053 0.88903 0.0
H1328 H 0.5714 0.57197 0.88228 0.0
H1329 H 0.58411 0.58738 0.87177 0.0
H1330 H 0.56614 0.59117 0.8614 0.0
H1331 H 0.54785 0.57597 0.84172 0.0
H1332 H 0.97222 0.59928 0.96704 0.0
H1333 H 0.97865 0.58985 0.9431 0.0
H1334 H 0.0174 0.62769 0.93837 0.0
H1335 H 0.01107 0.63732 0.96255 0.0
H1336 H 0.98659 0.60064 0.90858 0.0
H1337 H 0.02749 0.59703 0.94349 0.0
H1338 H 0.01448 0.59898 0.95454 0.0
H1339 H 0.02821 0.61325 0.9435 0.0
C1340 C 0.98212 0.60567 0.96095 0.0
C1341 C 0.99117 0.61905 0.96681 0.0
C1342 C 0.98575 0.60025 0.94721 0.0
C1343 C -0.00147 0.60802 0.93909 0.0
C1344 C 0.00754 0.62148 0.94463 0.0
H1345 H 0.0298 0.57299 0.8628 0.0
H1346 H 0.02834 0.58969 0.88139 0.0
C1347 C 0.00388 0.62697 0.95838 0.0
C1348 C 0.00231 0.60174 0.92505 0.0
H1349 H 0.02189 0.58738 0.91603 0.0
C1350 C 0.99443 0.5979 0.91008 0.0
C1351 C 0.0126 0.59826 0.92704 0.0
C1352 C 0.02118 0.60199 0.94301 0.0
C1353 C -0.00373 0.59025 0.89727 0.0
C1354 C 0.00602 0.5861 0.89969 0.0
C1355 C 0.01437 0.59053 0.91426 0.0
C1356 C 0.0069 0.57626 0.88797 0.0
C1357 C 0.9876 0.58653 0.88138 0.0
C1358 C -0.00459 0.56312 0.88574 0.0
C1359 C -0.00378 0.55356 0.87525 0.0
C1360 C 0.0086 0.5569 0.86683 0.0
C1361 C 0.02015 0.57006 0.86919 0.0
C1362 C 0.01931 0.57964 0.87972 0.0
H1363 H 0.9841 0.59393 0.87897 0.0
H1364 H 0.99335 0.5862 0.86999 0.0
H1365 H 0.9783 0.57626 0.88306 0.0
H1366 H 0.98584 0.56016 0.89237 0.0
H1367 H 0.98723 0.54344 0.87404 0.0
H1368 H 0.38751 0.37659 0.96169 0.0
H1369 H 0.39883 0.3927 0.9382 0.0
H1370 H 0.36376 0.398 0.93379 0.0
H1371 H 0.35241 0.38202 0.95742 0.0
H1372 H 0.38971 0.39165 0.90416 0.0
H1373 H 0.39652 0.43731 0.93968 0.0
H1374 H 0.39227 0.42151 0.95021 0.0
H1375 H 0.37923 0.42296 0.93904 0.0
C1376 C 0.3822 0.38118 0.95572 0.0
C1377 C 0.36912 0.37813 0.96148 0.0
C1378 C 0.38867 0.39034 0.94229 0.0
C1379 C 0.3822 0.39665 0.93445 0.0
C1380 C 0.36901 0.3934 0.9399 0.0
H1381 H 0.41275 0.46037 0.85652 0.0
H1382 H 0.39789 0.44221 0.87656 0.0
C1383 C 0.36253 0.38424 0.95334 0.0
C1384 C 0.38936 0.40672 0.92067 0.0
H1385 H 0.40365 0.44056 0.91084 0.0
C1386 C 0.39274 0.40234 0.90557 0.0
C1387 C 0.39323 0.42063 0.92259 0.0
C1388 C 0.39025 0.42596 0.93879 0.0
C1389 C 0.39995 0.41155 0.8923 0.0
C1390 C 0.40406 0.42551 0.89436 0.0
C1391 C 0.40044 0.42983 0.90932 0.0
C1392 C 0.41272 0.43595 0.88154 0.0
C1393 C 0.40304 0.40624 0.87617 0.0
C1394 C 0.42598 0.43846 0.87782 0.0
C1395 C 0.43449 0.44884 0.86648 0.0
C1396 C 0.42993 0.45696 0.85871 0.0
C1397 C 0.4166 0.45436 0.8624 0.0
C1398 C 0.40808 0.44396 0.87377 0.0
H1399 H 0.39594 0.39504 0.8746 0.0
H1400 H 0.40227 0.41155 0.86474 0.0
H1401 H 0.41369 0.40813 0.87678 0.0
H1402 H 0.42987 0.43262 0.88402 0.0
H1403 H 0.4448 0.45076 0.86418 0.0
H1404 H 0.61655 0.97461 0.96549 0.0
H1405 H 0.6004 0.96846 0.9416 0.0
H1406 H 0.6104 0.01044 0.93801 0.0
H1407 H 0.62635 0.01664 0.96176 0.0
H1408 H 0.57717 0.97387 0.94199 0.0
H1409 H 0.61343 -0.00131 0.8879 0.0
H1410 H 0.61832 0.99393 0.90746 0.0
H1411 H 0.61726 0.0092 0.90668 0.0
C1412 C 0.61543 0.98254 0.95944 0.0
C1413 C 0.6227 0.9961 0.96554 0.0
C1414 C 0.6062 0.97901 0.94584 0.0
C1415 C 0.60434 0.98903 0.93796 0.0
C1416 C 0.61184 0.0026 0.94377 0.0
H1417 H 0.55624 0.00369 0.86866 0.0
H1418 H 0.57327 0.00358 0.88753 0.0
C1419 C 0.62089 0.0061 0.95742 0.0
C1420 C 0.5939 0.98538 0.92448 0.0
H1421 H 0.59019 0.99308 0.88354 0.0
C1422 C 0.57995 0.97781 0.92908 0.0
C1423 C 0.59763 0.99063 0.90774 0.0
C1424 C 0.61247 -0.00152 0.90204 0.0
C1425 C 0.56961 0.97604 0.91767 0.0
C1426 C 0.57337 0.98173 0.90107 0.0
C1427 C 0.58732 0.98876 0.89626 0.0
C1428 C 0.56315 0.9815 0.88904 0.0
C1429 C 0.55487 0.96881 0.92383 0.0
C1430 C 0.55188 0.96911 0.88336 0.0
C1431 C 0.54197 0.96914 0.87275 0.0
C1432 C 0.5432 0.98157 0.86749 0.0
C1433 C 0.55477 0.99393 0.87276 0.0
C1434 C 0.56461 0.99389 0.88342 0.0
H1435 H 0.55412 0.9678 0.93796 0.0
H1436 H 0.54963 0.97437 0.91974 0.0
H1437 H 0.54926 0.95836 0.91825 0.0
H1438 H 0.55069 0.95942 0.88725 0.0
H1439 H 0.53318 0.95943 0.86901 0.0
H1440 H 0.60578 0.98261 0.0441 0.0
H1441 H 0.5917 0.98535 0.06577 0.0
H1442 H 0.62806 0.01985 0.08704 0.0
H1443 H 0.6422 0.01746 0.06495 0.0
H1444 H 0.59147 0.98391 0.09972 0.0
H1445 H 0.60387 0.03599 0.08052 0.0
H1446 H 0.60857 0.02575 0.06765 0.0
H1447 H 0.61871 0.03492 0.08593 0.0
C1448 C 0.6108 0.99081 0.05336 0.0
C1449 C 0.62509 -0.0001 0.05274 0.0
C1450 C 0.60273 0.99235 0.06577 0.0
C1451 C 0.60877 0.00295 0.07786 0.0
C1452 C 0.62311 0.01182 0.07757 0.0
H1453 H 0.56269 0.00364 0.16825 0.0
H1454 H 0.57926 0.00229 0.14917 0.0
C1455 C 0.63119 0.01038 0.06502 0.0
C1456 C 0.59998 0.00458 0.09073 0.0
H1457 H 0.59045 0.02694 0.10561 0.0
C1458 C 0.59125 0.99332 0.10103 0.0
C1459 C 0.59958 0.01682 0.09227 0.0
C1460 C 0.60808 0.02902 0.0809 0.0
C1461 C 0.58206 0.9939 0.11271 0.0
C1462 C 0.58188 0.00624 0.11452 0.0
C1463 C 0.59068 0.01753 0.10432 0.0
C1464 C 0.5722 0.00746 0.12633 0.0
C1465 C 0.5723 0.98113 0.12252 0.0
C1466 C 0.56306 0.01131 0.11997 0.0
C1467 C 0.55376 0.01231 0.13088 0.0
C1468 C 0.55337 0.00941 0.14837 0.0
C1469 C 0.56264 0.00573 0.15478 0.0
C1470 C 0.57206 0.0049 0.14388 0.0
H1471 H 0.57112 0.97177 0.11627 0.0
H1472 H 0.57643 0.98177 0.13552 0.0
H1473 H 0.56197 0.98002 0.12377 0.0
H1474 H 0.56299 0.01337 0.10649 0.0
H1475 H 0.54667 0.01508 0.12558 0.0
H1476 H 0.97046 0.6205 0.06634 0.0
H1477 H 0.96902 0.60594 0.09021 0.0
H1478 H 0.00481 0.60571 0.07091 0.0
H1479 H 0.00655 0.62052 0.04742 0.0
H1480 H 0.96494 0.58064 0.08982 0.0
H1481 H 0.01506 0.61507 0.12014 0.0
H1482 H 0.00789 0.62093 0.10406 0.0
H1483 H 0.0172 0.61253 0.09797 0.0
C1484 C 0.97809 0.61744 0.0673 0.0
C1485 C 0.98866 0.62171 0.05506 0.0
C1486 C 0.97726 0.60913 0.08093 0.0
C1487 C 0.98697 0.60496 0.08254 0.0
C1488 C -0.00256 0.60913 0.07023 0.0
H1489 H 0.97934 0.5336 0.1296 0.0
H1490 H 0.97855 0.55057 0.11135 0.0
C1491 C -0.00164 0.61751 0.05672 0.0
C1492 C 0.98579 0.59565 0.09651 0.0
H1493 H 0.00445 0.59114 0.12715 0.0
C1494 C 0.97351 0.58301 0.09815 0.0
C1495 C -0.00313 0.59884 0.10763 0.0
C1496 C 0.00993 0.61265 0.10749 0.0
C1497 C 0.97224 0.57323 0.11005 0.0
C1498 C 0.9837 0.57601 0.12022 0.0
C1499 C -0.00426 0.58891 0.11916 0.0
C1500 C 0.98364 0.56554 0.13152 0.0
C1501 C 0.95862 0.56002 0.11156 0.0
C1502 C 0.98718 0.56844 0.14882 0.0
C1503 C 0.98785 0.55883 0.15922 0.0
C1504 C 0.98495 0.54612 0.15249 0.0
C1505 C 0.98138 0.54322 0.13519 0.0
C1506 C 0.98086 0.55288 0.12477 0.0
H1507 H 0.94997 0.5614 0.10762 0.0
H1508 H 0.95868 0.55223 0.10297 0.0
H1509 H 0.95669 0.55604 0.12483 0.0
H1510 H 0.98946 0.57817 0.15427 0.0
H1511 H 0.99057 0.56129 0.17253 0.0
H1512 H 0.38094 0.35919 0.05093 0.0
H1513 H 0.39731 0.36746 0.07472 0.0
H1514 H 0.39668 0.40514 0.07582 0.0
H1515 H 0.38043 0.39706 0.05227 0.0
H1516 H 0.42397 0.39232 0.0753 0.0
H1517 H 0.38925 0.3919 0.12598 0.0
H1518 H 0.38295 0.38222 0.10639 0.0
H1519 H 0.38885 0.40024 0.10676 0.0
C1520 C 0.38422 0.36919 0.05633 0.0
C1521 C 0.37935 0.37744 0.0497 0.0
C1522 C 0.39357 0.37389 0.06989 0.0
C1523 C 0.39802 0.38682 0.07717 0.0
C1524 C 0.39317 0.39503 0.07059 0.0
H1525 H 0.45491 0.44743 0.14393 0.0
H1526 H 0.43669 0.43215 0.12443 0.0
C1527 C 0.38393 0.39041 0.05703 0.0
C1528 C 0.40823 0.39218 0.09113 0.0
H1529 H 0.41348 0.40595 0.13117 0.0
C1530 C 0.42166 0.39507 0.08766 0.0
C1531 C 0.40513 0.39571 0.10721 0.0
C1532 C 0.39072 0.39224 0.11191 0.0
C1533 C 0.4323 0.40221 0.09949 0.0
C1534 C 0.42932 0.40633 0.11526 0.0
C1535 C 0.41574 0.40283 0.11903 0.0
C1536 C 0.44029 0.41528 0.1274 0.0
C1537 C 0.44677 0.40594 0.09468 0.0
C1538 C 0.44827 0.4108 0.13566 0.0
C1539 C 0.4587 0.41952 0.14692 0.0
C1540 C 0.46124 0.43283 0.15016 0.0
C1541 C 0.45311 0.43719 0.14194 0.0
C1542 C 0.44273 0.42849 0.13072 0.0
H1543 H 0.44772 0.40408 0.08092 0.0
H1544 H 0.45413 0.41688 0.0976 0.0
H1545 H 0.44979 0.39966 0.10226 0.0
H1546 H 0.44639 0.40055 0.13349 0.0
H1547 H 0.46467 0.4158 0.15322 0.0
H1548 H 0.63386 0.68679 0.39024 0.0
H1549 H 0.62782 0.69891 0.4114 0.0
H1550 H 0.67053 0.73051 0.41508 0.0
H1551 H 0.67662 0.71865 0.39374 0.0
H1552 H 0.63592 0.70679 0.44467 0.0
H1553 H 0.65198 0.75218 0.40374 0.0
H1554 H 0.65007 0.7364 0.39559 0.0
H1555 H 0.66543 0.7484 0.40681 0.0
C1556 C 0.64197 0.6963 0.39561 0.0
C1557 C 0.6557 0.70184 0.3902 0.0
C1558 C 0.6385 0.7032 0.40769 0.0
C1559 C 0.64869 0.71575 0.41454 0.0
C1560 C 0.66246 0.72102 0.40964 0.0
H1561 H 0.64594 0.75915 0.50407 0.0
H1562 H 0.64841 0.74412 0.48375 0.0
C1563 C 0.66593 0.71418 0.39751 0.0
C1564 C 0.64494 0.72343 0.42669 0.0
H1565 H 0.64754 0.75444 0.43301 0.0
C1566 C 0.63836 0.71718 0.4421 0.0
C1567 C 0.6479 0.73688 0.42315 0.0
C1568 C 0.6541 0.74382 0.40635 0.0
C1569 C 0.63505 0.72419 0.45431 0.0
C1570 C 0.63867 0.7379 0.45115 0.0
C1571 C 0.64488 0.74398 0.43551 0.0
C1572 C 0.63639 0.74628 0.46392 0.0
C1573 C 0.62758 0.71679 0.47038 0.0
C1574 C 0.62902 0.75271 0.45945 0.0
C1575 C 0.62784 0.76156 0.47092 0.0
C1576 C 0.63403 0.76418 0.48711 0.0
C1577 C 0.64117 0.75749 0.49166 0.0
C1578 C 0.64242 0.74872 0.48014 0.0
H1579 H 0.62182 0.70551 0.46849 0.0
H1580 H 0.63519 0.71919 0.48067 0.0
H1581 H 0.62025 0.72 0.4747 0.0
H1582 H 0.62438 0.75107 0.44695 0.0
H1583 H 0.62245 0.76667 0.46686 0.0
H1584 H 0.2611 0.94741 0.38488 0.0
H1585 H 0.25266 0.93017 0.40729 0.0
H1586 H 0.29165 0.93177 0.40782 0.0
H1587 H 0.30033 0.94925 0.3854 0.0
H1588 H 0.25049 0.90445 0.40509 0.0
H1589 H 0.28432 0.93554 0.45872 0.0
H1590 H 0.28223 0.94323 0.43972 0.0
H1591 H 0.2928 0.9356 0.43914 0.0
C1592 C 0.26796 0.9442 0.38979 0.0
C1593 C 0.28141 0.94974 0.38331 0.0
C1594 C 0.26309 0.93433 0.40261 0.0
C1595 C 0.27155 0.92978 0.40931 0.0
C1596 C 0.28503 0.93531 0.40301 0.0
H1597 H 0.2476 0.86633 0.48805 0.0
H1598 H 0.26084 0.88337 0.46591 0.0
C1599 C 0.28994 0.94525 0.39015 0.0
C1600 C 0.26589 0.91884 0.42237 0.0
H1601 H 0.26812 0.91237 0.46443 0.0
C1602 C 0.25441 0.90615 0.41804 0.0
C1603 C 0.27109 0.92106 0.4392 0.0
C1604 C 0.28323 0.93461 0.44461 0.0
C1605 C 0.24776 0.89574 0.43018 0.0
C1606 C 0.25262 0.89814 0.44716 0.0
C1607 C 0.26442 0.91061 0.45139 0.0
C1608 C 0.24494 0.88816 0.46088 0.0
C1609 C 0.23547 0.88228 0.42481 0.0
C1610 C 0.23176 0.88543 0.46551 0.0
C1611 C 0.22422 0.87576 0.47807 0.0
C1612 C 0.22972 0.86864 0.4863 0.0
C1613 C 0.24305 0.87156 0.48182 0.0
C1614 C 0.25064 0.88132 0.46926 0.0
H1615 H 0.23526 0.88076 0.41076 0.0
H1616 H 0.23545 0.87356 0.4312 0.0
H1617 H 0.22591 0.88216 0.42857 0.0
H1618 H 0.22726 0.89072 0.45929 0.0
H1619 H 0.21393 0.87365 0.48106 0.0
H1620 H 0.04114 0.31712 0.39347 0.0
H1621 H 0.05776 0.32546 0.41668 0.0
H1622 H 0.0695 0.36706 0.40443 0.0
H1623 H 0.05243 0.3587 0.38151 0.0
H1624 H 0.08446 0.34062 0.41317 0.0
H1625 H 0.0668 0.36801 0.4556 0.0
H1626 H 0.05625 0.35673 0.4387 0.0
H1627 H 0.06961 0.37397 0.43395 0.0
C1628 C 0.04713 0.32804 0.39585 0.0
C1629 C 0.04552 0.33726 0.38563 0.0
C1630 C 0.05661 0.3328 0.40915 0.0
C1631 C 0.06481 0.34689 0.41243 0.0
C1632 C 0.06307 0.35614 0.40243 0.0
H1633 H 0.14311 0.37737 0.46343 0.0
H1634 H 0.12512 0.37418 0.44344 0.0
C1635 C 0.05339 0.35135 0.38925 0.0
C1636 C 0.07593 0.35177 0.42531 0.0
H1637 H 0.08899 0.37122 0.46137 0.0
C1638 C 0.0854 0.34728 0.42374 0.0
C1639 C 0.0771 0.36037 0.43918 0.0
C1640 C 0.06682 0.36495 0.44209 0.0
C1641 C 0.09595 0.35106 0.43561 0.0
C1642 C 0.09743 0.36003 0.44914 0.0
C1643 C 0.08795 0.36451 0.45083 0.0
C1644 C 0.10854 0.36441 0.46191 0.0
C1645 C 0.10515 0.34504 0.43377 0.0
C1646 C 0.1053 0.36086 0.47918 0.0
C1647 C 0.11564 0.36297 0.49069 0.0
C1648 C 0.12927 0.36858 0.485 0.0
C1649 C 0.13262 0.37296 0.46802 0.0
C1650 C 0.12236 0.37106 0.45661 0.0
H1651 H 0.10032 0.3356 0.42582 0.0
H1652 H 0.11491 0.3526 0.42743 0.0
H1653 H 0.10766 0.34252 0.44642 0.0
H1654 H 0.09471 0.35577 0.48354 0.0
H1655 H 0.11286 0.35948 0.50375 0.0
H1656 H 0.05008 0.34683 0.29078 0.0
H1657 H 0.06144 0.34192 0.26742 0.0
H1658 H 0.03551 0.29861 0.27685 0.0
H1659 H 0.02369 0.30346 0.29968 0.0
H1660 H 0.07637 0.3308 0.26928 0.0
H1661 H 0.03307 0.29861 0.22618 0.0
H1662 H 0.03144 0.3081 0.24371 0.0
H1663 H 0.02984 0.29168 0.24734 0.0
C1664 C 0.04669 0.33625 0.2877 0.0
C1665 C 0.036 0.32552 0.297 0.0
C1666 C 0.05317 0.33346 0.27435 0.0
C1667 C 0.0492 0.31988 0.27017 0.0
C1668 C 0.03848 0.30914 0.27944 0.0
H1669 H 0.10457 0.29754 0.22392 0.0
H1670 H 0.08932 0.3012 0.24273 0.0
C1671 C 0.03182 0.31193 0.2926 0.0
C1672 C 0.05706 0.31707 0.2571 0.0
H1673 H 0.05375 0.29779 0.2218 0.0
C1674 C 0.07141 0.32368 0.2588 0.0
C1675 C 0.05064 0.30794 0.24326 0.0
C1676 C 0.03542 0.3013 0.2399 0.0
C1677 C 0.07948 0.32121 0.24733 0.0
C1678 C 0.07299 0.31143 0.23415 0.0
C1679 C 0.05868 0.30509 0.23211 0.0
C1680 C 0.08094 0.30767 0.22248 0.0
C1681 C 0.09493 0.32929 0.24935 0.0
C1682 C 0.08064 0.30924 0.20473 0.0
C1683 C 0.08913 0.30684 0.19392 0.0
C1684 C 0.09807 0.30293 0.20077 0.0
C1685 C 0.09787 0.30073 0.21841 0.0
C1686 C 0.08925 0.3029 0.22914 0.0
H1687 H 0.09835 0.33911 0.25618 0.0
H1688 H 0.09821 0.32325 0.257 0.0
H1689 H 0.10025 0.33158 0.23677 0.0
H1690 H 0.07421 0.3128 0.19931 0.0
H1691 H 0.08915 0.3086 0.18033 0.0
H1692 H 0.69095 0.71817 0.30528 0.0
H1693 H 0.70026 0.73665 0.28407 0.0
H1694 H 0.66048 0.73309 0.28017 0.0
H1695 H 0.6512 0.71495 0.30141 0.0
H1696 H 0.69298 0.73771 0.25056 0.0
H1697 H 0.68541 0.77345 0.29112 0.0
H1698 H 0.68432 0.75814 0.29947 0.0
H1699 H 0.66981 0.75726 0.28881 0.0
C1700 C 0.68419 0.72132 0.29987 0.0
C1701 C 0.67037 0.71518 0.30521 0.0
C1702 C 0.68953 0.73188 0.28777 0.0
C1703 C 0.68114 0.73646 0.28085 0.0
C1704 C 0.66724 0.72999 0.28569 0.0
H1705 H 0.68523 0.77943 0.18978 0.0
H1706 H 0.68307 0.76291 0.21115 0.0
C1707 C 0.66194 0.71955 0.2978 0.0
C1708 C 0.68672 0.74798 0.26854 0.0
H1709 H 0.6885 0.77844 0.26114 0.0
C1710 C 0.69219 0.74672 0.25293 0.0
C1711 C 0.68599 0.75988 0.27179 0.0
C1712 C 0.6812 0.76235 0.28879 0.0
C1713 C 0.69625 0.75671 0.24014 0.0
C1714 C 0.6945 0.76808 0.24291 0.0
C1715 C 0.6897 0.76966 0.25887 0.0
C1716 C 0.69686 0.77813 0.22928 0.0
C1717 C 0.70236 0.75495 0.2238 0.0
C1718 C 0.70514 0.79225 0.23241 0.0
C1719 C 0.7061 0.80176 0.22037 0.0
C1720 C 0.6988 0.79736 0.20491 0.0
C1721 C 0.69085 0.78321 0.20162 0.0
C1722 C 0.68979 0.77372 0.21373 0.0
H1723 H 0.70745 0.74889 0.22596 0.0
H1724 H 0.69401 0.74927 0.2144 0.0
H1725 H 0.70999 0.76498 0.21819 0.0
H1726 H 0.71061 0.79592 0.24437 0.0
H1727 H 0.71217 0.81255 0.22349 0.0
H1728 H 0.28093 0.94174 0.29768 0.0
H1729 H 0.26353 0.92971 0.27574 0.0
H1730 H 0.2579 0.96442 0.27121 0.0
H1731 H 0.27545 0.97663 0.2931 0.0
H1732 H 0.23589 0.92313 0.27757 0.0
H1733 H 0.2629 0.95585 0.22132 0.0
H1734 H 0.2718 0.95643 0.24066 0.0
H1735 H 0.26179 0.96465 0.23988 0.0
C1736 C 0.27609 0.94688 0.29193 0.0
C1737 C 0.27958 0.96014 0.29712 0.0
C1738 C 0.26614 0.93998 0.2794 0.0
C1739 C 0.25953 0.94623 0.27174 0.0
C1740 C 0.26306 0.95952 0.27676 0.0
H1741 H 0.19414 0.91358 0.1951 0.0
H1742 H 0.21129 0.92828 0.21633 0.0
C1743 C 0.27303 0.96644 0.28932 0.0
C1744 C 0.24853 0.9385 0.25908 0.0
H1745 H 0.24008 0.93771 0.21713 0.0
C1746 C 0.2368 0.92633 0.26436 0.0
C1747 C 0.2497 0.94276 0.24191 0.0
C1748 C 0.26226 0.95558 0.23549 0.0
C1749 C 0.22623 0.91822 0.25287 0.0
C1750 C 0.22756 0.92229 0.2356 0.0
C1751 C 0.23913 0.93463 0.23039 0.0
C1752 C 0.2173 0.91353 0.22263 0.0
C1753 C 0.2137 0.9054 0.25936 0.0
C1754 C 0.21518 0.90047 0.219 0.0
C1755 C 0.2054 0.89206 0.20698 0.0
C1756 C 0.19759 0.89657 0.19826 0.0
C1757 C 0.19988 0.90975 0.20175 0.0
C1758 C 0.20971 0.91819 0.21378 0.0
H1759 H 0.21251 0.90574 0.27342 0.0
H1760 H 0.2042 0.90385 0.25314 0.0
H1761 H 0.21479 0.89643 0.25635 0.0
H1762 H 0.22109 0.89677 0.2255 0.0
H1763 H 0.20381 0.88192 0.20473 0.0
H1764 H 0.68322 0.97197 0.29512 0.0
H1765 H 0.69203 0.96481 0.27085 0.0
H1766 H 0.66434 0.92249 0.28382 0.0
H1767 H 0.65537 0.92945 0.30774 0.0
H1768 H 0.70437 0.94872 0.26913 0.0
H1769 H 0.65517 0.92422 0.23394 0.0
H1770 H 0.65851 0.93568 0.25174 0.0
H1771 H 0.65304 0.91796 0.25539 0.0
C1772 C 0.67903 0.96114 0.2928 0.0
C1773 C 0.66847 0.95129 0.30326 0.0
C1774 C 0.68407 0.95708 0.27894 0.0
C1775 C 0.67861 0.94312 0.27533 0.0
C1776 C 0.66844 0.93331 0.28611 0.0
H1777 H 0.70635 0.89628 0.22154 0.0
H1778 H 0.70319 0.91118 0.24135 0.0
C1779 C 0.66337 0.93733 0.29985 0.0
C1780 C 0.68341 0.9386 0.26035 0.0
H1781 H 0.67141 0.9175 0.22564 0.0
C1782 C 0.69723 0.94206 0.25945 0.0
C1783 C 0.67417 0.93017 0.24752 0.0
C1784 C 0.65943 0.92691 0.24707 0.0
C1785 C 0.70187 0.93665 0.24658 0.0
C1786 C 0.69234 0.92733 0.23456 0.0
C1787 C 0.67871 0.92451 0.23494 0.0
C1788 C 0.69593 0.91966 0.22215 0.0
C1789 C 0.7169 0.94093 0.24607 0.0
C1790 C 0.69278 0.91931 0.20477 0.0
C1791 C 0.69437 0.91061 0.19347 0.0
C1792 C 0.6992 0.90214 0.19934 0.0
C1793 C 0.70282 0.90285 0.21661 0.0
C1794 C 0.70108 0.91144 0.22793 0.0
H1795 H 0.72339 0.95132 0.25164 0.0
H1796 H 0.71847 0.93368 0.2538 0.0
H1797 H 0.72046 0.94093 0.23282 0.0
H1798 H 0.68873 0.9255 0.20002 0.0
H1799 H 0.69158 0.91032 0.1802 0.0
H1800 H 0.05468 0.7135 0.29821 0.0
H1801 H 0.06536 0.72945 0.27441 0.0
H1802 H 0.02951 0.7335 0.27052 0.0
H1803 H 0.01878 0.71766 0.29443 0.0
H1804 H 0.0552 0.72734 0.24046 0.0
H1805 H 0.06188 0.77335 0.275 0.0
H1806 H 0.05836 0.75793 0.28594 0.0
H1807 H 0.04478 0.75866 0.27515 0.0
C1808 C 0.04907 0.71779 0.29231 0.0
C1809 C 0.03593 0.7144 0.29826 0.0
C1810 C 0.05517 0.72687 0.27871 0.0
C1811 C 0.04828 0.73276 0.27089 0.0
C1812 C 0.03507 0.72923 0.27659 0.0
H1813 H 0.07711 0.79527 0.19124 0.0
H1814 H 0.06255 0.77749 0.21189 0.0
C1815 C 0.02895 0.72014 0.29019 0.0
C1816 C 0.05497 0.74259 0.25675 0.0
H1817 H 0.06864 0.77619 0.24605 0.0
C1818 C 0.05811 0.73802 0.24164 0.0
C1819 C 0.05866 0.75647 0.25834 0.0
C1820 C 0.05587 0.76198 0.27451 0.0
C1821 C 0.06494 0.747 0.22805 0.0
C1822 C 0.06895 0.76096 0.2298 0.0
C1823 C 0.06553 0.76547 0.24476 0.0
C1824 C 0.07741 0.77123 0.2167 0.0
C1825 C 0.06777 0.74147 0.21192 0.0
C1826 C 0.0906 0.77365 0.21271 0.0
C1827 C 0.09892 0.7838 0.20102 0.0
C1828 C 0.09426 0.7918 0.19316 0.0
C1829 C 0.08102 0.78934 0.19717 0.0
C1830 C 0.07268 0.77916 0.20888 0.0
H1831 H 0.06061 0.73026 0.21062 0.0
H1832 H 0.06683 0.74663 0.20044 0.0
H1833 H 0.07841 0.74333 0.21233 0.0
H1834 H 0.09458 0.76789 0.21894 0.0
H1835 H 0.10918 0.78563 0.19851 0.0
H1836 H 0.27213 0.3359 0.3092 0.0
H1837 H 0.25501 0.32594 0.28669 0.0
H1838 H 0.26912 0.29813 0.27359 0.0
H1839 H 0.28645 0.30808 0.29634 0.0
H1840 H 0.2663 0.31322 0.24518 0.0
H1841 H 0.21947 0.28741 0.2857 0.0
H1842 H 0.23123 0.30479 0.29202 0.0
H1843 H 0.23637 0.29221 0.29351 0.0
C1844 C 0.2716 0.32761 0.30165 0.0
C1845 C 0.28069 0.32279 0.3046 0.0
C1846 C 0.26173 0.32187 0.28883 0.0
C1847 C 0.26069 0.31119 0.27864 0.0
C1848 C 0.26971 0.30631 0.28145 0.0
H1849 H 0.19136 0.27665 0.20675 0.0
H1850 H 0.20856 0.27746 0.22649 0.0
C1851 C 0.27957 0.31198 0.29444 0.0
C1852 C 0.25054 0.30575 0.2646 0.0
H1853 H 0.21632 0.29237 0.25685 0.0
C1854 C 0.25534 0.3084 0.24767 0.0
C1855 C 0.23624 0.29932 0.26787 0.0
C1856 C 0.23048 0.29563 0.28576 0.0
C1857 C 0.24628 0.30562 0.23401 0.0
C1858 C 0.23211 0.30018 0.23743 0.0
C1859 C 0.22721 0.29666 0.25425 0.0
C1860 C 0.22242 0.29931 0.2241 0.0
C1861 C 0.252 0.30884 0.21607 0.0
C1862 C 0.22454 0.3113 0.2162 0.0
C1863 C 0.21476 0.31088 0.20501 0.0
C1864 C 0.20261 0.29844 0.20152 0.0
C1865 C 0.20067 0.28636 0.20907 0.0
C1866 C 0.21045 0.28681 0.22038 0.0
H1867 H 0.26173 0.30865 0.215 0.0
H1868 H 0.2445 0.30147 0.20673 0.0
H1869 H 0.2543 0.31927 0.21263 0.0
H1870 H 0.23356 0.3211 0.21913 0.0
H1871 H 0.21659 0.32033 0.19928 0.0
H1872 H 0.28159 0.3192 0.39645 0.0
H1873 H 0.26958 0.32467 0.4184 0.0
H1874 H 0.29557 0.36771 0.40746 0.0
H1875 H 0.30796 0.36233 0.38591 0.0
H1876 H 0.2913 0.36343 0.44125 0.0
H1877 H 0.24144 0.33514 0.40748 0.0
H1878 H 0.2484 0.3245 0.4126 0.0
H1879 H 0.2574 0.33846 0.39784 0.0
C1880 C 0.28478 0.32983 0.39879 0.0
C1881 C 0.29562 0.34033 0.38935 0.0
C1882 C 0.27786 0.33294 0.41126 0.0
C1883 C 0.28144 0.34658 0.41428 0.0
C1884 C 0.29257 0.35711 0.40527 0.0
H1885 H 0.22599 0.36889 0.46124 0.0
H1886 H 0.24159 0.36597 0.44219 0.0
C1887 C 0.29962 0.35402 0.39295 0.0
C1888 C 0.27339 0.34985 0.42649 0.0
H1889 H 0.24088 0.34306 0.43541 0.0
C1890 C 0.28028 0.35903 0.43996 0.0
C1891 C 0.25905 0.34429 0.42462 0.0
C1892 C 0.25115 0.33517 0.40976 0.0
C1893 C 0.27319 0.36267 0.4517 0.0
C1894 C 0.25876 0.35668 0.45019 0.0
C1895 C 0.25192 0.34758 0.43665 0.0
C1896 C 0.25046 0.35982 0.46218 0.0
C1897 C 0.28129 0.37314 0.46531 0.0
C1898 C 0.2504 0.35756 0.47983 0.0
C1899 C 0.24163 0.35946 0.49077 0.0
C1900 C 0.23259 0.36334 0.48417 0.0
C1901 C 0.23283 0.36583 0.4666 0.0
C1902 C 0.24173 0.36415 0.45573 0.0
H1903 H 0.29229 0.37966 0.4616 0.0
H1904 H 0.27698 0.37986 0.46791 0.0
H1905 H 0.28087 0.36778 0.4773 0.0
H1906 H 0.25677 0.35388 0.48507 0.0
H1907 H 0.24149 0.35732 0.50426 0.0
H1908 H 0.67597 0.95699 0.39267 0.0
H1909 H 0.67144 0.94025 0.41508 0.0
H1910 H 0.62803 0.92599 0.41253 0.0
H1911 H 0.6325 0.9429 0.39039 0.0
H1912 H 0.63716 0.92841 0.44561 0.0
H1913 H 0.65464 0.89951 0.40562 0.0
H1914 H 0.66738 0.9173 0.40806 0.0
H1915 H 0.65165 0.91246 0.39695 0.0
C1916 C 0.66547 0.95034 0.39694 0.0
C1917 C 0.65458 0.95118 0.38967 0.0
C1918 C 0.66289 0.94073 0.40967 0.0
C1919 C 0.64937 0.9317 0.4152 0.0
C1920 C 0.63853 0.93282 0.40836 0.0
H1921 H 0.62366 0.85544 0.46795 0.0
H1922 H 0.6261 0.87307 0.44813 0.0
C1923 C 0.64111 0.94248 0.39571 0.0
C1924 C 0.64647 0.92089 0.42784 0.0
H1925 H 0.64989 0.89311 0.43476 0.0
C1926 C 0.6399 0.92065 0.44325 0.0
C1927 C 0.64984 0.91066 0.42458 0.0
C1928 C 0.65614 0.90987 0.40784 0.0
C1929 C 0.63682 0.91057 0.45562 0.0
C1930 C 0.64066 0.90065 0.45261 0.0
C1931 C 0.64704 0.90078 0.4371 0.0
C1932 C 0.63818 0.88998 0.4653 0.0
C1933 C 0.62927 0.9105 0.47164 0.0
C1934 C 0.64407 0.89363 0.4816 0.0
C1935 C 0.64253 0.88355 0.49307 0.0
C1936 C 0.63521 0.86963 0.48838 0.0
C1937 C 0.62917 0.86602 0.47211 0.0
C1938 C 0.63065 0.8761 0.46069 0.0
H1939 H 0.62362 0.91605 0.46979 0.0
H1940 H 0.62183 0.89988 0.47579 0.0
H1941 H 0.63681 0.91571 0.48205 0.0
H1942 H 0.65015 0.90429 0.48531 0.0
H1943 H 0.6472 0.88668 0.50556 0.0
H1944 H 0.04729 0.73232 0.3891 0.0
H1945 H 0.06349 0.7402 0.41275 0.0
H1946 H 0.06312 0.70201 0.41207 0.0
H1947 H 0.04686 0.69397 0.3882 0.0
H1948 H 0.06006 0.72737 0.44567 0.0
H1949 H 0.10462 0.73229 0.40841 0.0
H1950 H 0.08979 0.73117 0.39821 0.0
H1951 H 0.08869 0.71617 0.40733 0.0
C1952 C 0.05062 0.72555 0.39393 0.0
C1953 C 0.0458 0.71252 0.38667 0.0
C1954 C 0.05987 0.73008 0.40748 0.0
C1955 C 0.06458 0.72174 0.41403 0.0
C1956 C 0.05971 0.70866 0.40703 0.0
H1957 H 0.12973 0.74847 0.49116 0.0
H1958 H 0.11138 0.7339 0.47112 0.0
C1959 C 0.05039 0.70407 0.39345 0.0
C1960 C 0.07464 0.72695 0.42816 0.0
H1961 H 0.10856 0.73945 0.43707 0.0
C1962 C 0.07063 0.72988 0.44387 0.0
C1963 C 0.08839 0.73012 0.42578 0.0
C1964 C 0.09324 0.72738 0.40902 0.0
C1965 C 0.08011 0.73625 0.45715 0.0
C1966 C 0.09401 0.74004 0.45448 0.0
C1967 C 0.09789 0.73657 0.43904 0.0
C1968 C 0.10485 0.74858 0.46699 0.0
C1969 C 0.07517 0.739 0.47384 0.0
C1970 C 0.10738 0.76171 0.47109 0.0
C1971 C 0.11785 0.77005 0.48242 0.0
C1972 C 0.1261 0.76547 0.48983 0.0
C1973 C 0.12362 0.75233 0.4856 0.0
C1974 C 0.1131 0.74397 0.47423 0.0
H1975 H 0.06396 0.73185 0.47577 0.0
H1976 H 0.0808 0.73806 0.48482 0.0
H1977 H 0.07697 0.74957 0.47374 0.0
H1978 H 0.10138 0.76562 0.46529 0.0
H1979 H 0.11968 0.78023 0.48506 0.0
H1980 H 0.30588 0.01906 0.7322 0.0
H1981 H 0.3004 0.03036 0.75511 0.0
H1982 H 0.33493 0.06936 0.73998 0.0
H1983 H 0.34073 0.05811 0.71751 0.0
H1984 H 0.33365 0.06673 0.77382 0.0
H1985 H 0.28206 0.05258 0.74928 0.0
H1986 H 0.28403 0.03815 0.75355 0.0
H1987 H 0.29415 0.05003 0.73698 0.0
C1988 C 0.31231 0.03004 0.7338 0.0
C1989 C 0.32369 0.03771 0.723 0.0
C1990 C 0.30911 0.0365 0.74681 0.0
C1991 C 0.31709 0.05075 0.74905 0.0
C1992 C 0.32859 0.05836 0.73846 0.0
H1993 H 0.29694 0.10605 0.79906 0.0
H1994 H 0.30056 0.09127 0.77949 0.0
C1995 C 0.33188 0.05191 0.7256 0.0
C1996 C 0.3136 0.05785 0.76242 0.0
H1997 H 0.28843 0.06408 0.77589 0.0
C1998 C 0.32375 0.06613 0.7743 0.0
C1999 C 0.30073 0.05719 0.7629 0.0
C2000 C 0.28965 0.04912 0.74991 0.0
C2001 C 0.32148 0.07389 0.78651 0.0
C2002 C 0.30852 0.07303 0.78721 0.0
C2003 C 0.29831 0.06463 0.77545 0.0
C2004 C 0.30564 0.08139 0.79934 0.0
C2005 C 0.33319 0.08335 0.79806 0.0
C2006 C 0.30699 0.08055 0.81704 0.0
C2007 C 0.30506 0.08909 0.82823 0.0
C2008 C 0.30147 0.09843 0.82193 0.0
C2009 C 0.2996 0.09888 0.80428 0.0
C2010 C 0.3017 0.09046 0.79309 0.0
H2011 H 0.3433 0.08553 0.79287 0.0
H2012 H 0.33352 0.09322 0.79995 0.0
H2013 H 0.33175 0.07843 0.81072 0.0
H2014 H 0.30965 0.07336 0.8222 0.0
H2015 H 0.30638 0.08841 0.84181 0.0
H2016 H 0.96939 0.2818 0.71196 0.0
H2017 H 0.96108 0.26451 0.73465 0.0
H2018 H 0.92014 0.25783 0.72899 0.0
H2019 H 0.9282 0.27481 0.70635 0.0
H2020 H 0.94801 0.26361 0.76589 0.0
H2021 H 0.91401 0.2192 0.72509 0.0
H2022 H 0.92718 0.23535 0.71638 0.0
H2023 H 0.91079 0.23304 0.72281 0.0
C2024 C 0.95861 0.2766 0.71551 0.0
C2025 C 0.94945 0.27963 0.70722 0.0
C2026 C 0.95389 0.26674 0.72848 0.0
C2027 C 0.93994 0.25971 0.73326 0.0
C2028 C 0.93087 0.26289 0.72522 0.0
H2029 H 0.88357 0.20706 0.80767 0.0
H2030 H 0.8972 0.2236 0.78547 0.0
C2031 C 0.93554 0.27269 0.71231 0.0
C2032 C 0.93473 0.24922 0.7469 0.0
H2033 H 0.90952 0.21632 0.7553 0.0
C2034 C 0.93978 0.25319 0.76356 0.0
C2035 C 0.92404 0.23561 0.74378 0.0
C2036 C 0.91879 0.23049 0.72601 0.0
C2037 C 0.93384 0.2441 0.77735 0.0
C2038 C 0.92266 0.23077 0.77431 0.0
C2039 C 0.91803 0.22661 0.75757 0.0
C2040 C 0.91493 0.22127 0.78841 0.0
C2041 C 0.93907 0.24895 0.79518 0.0
C2042 C 0.92045 0.21453 0.79741 0.0
C2043 C 0.91267 0.20504 0.81014 0.0
C2044 C 0.89929 0.20223 0.8141 0.0
C2045 C 0.89391 0.20916 0.80514 0.0
C2046 C 0.90164 0.21854 0.79238 0.0
H2047 H 0.94713 0.25998 0.79556 0.0
H2048 H 0.93043 0.24726 0.8037 0.0
H2049 H 0.94346 0.24291 0.80033 0.0
H2050 H 0.93066 0.21645 0.7944 0.0
H2051 H 0.9171 0.1999 0.81688 0.0
H2052 H 0.71044 0.68973 0.71961 0.0
H2053 H 0.72664 0.69874 0.74353 0.0
H2054 H 0.73174 0.6636 0.74055 0.0
H2055 H 0.71558 0.65448 0.71694 0.0
H2056 H 0.72722 0.67017 0.77401 0.0
H2057 H 0.76884 0.71527 0.73954 0.0
H2058 H 0.75198 0.71328 0.73979 0.0
H2059 H 0.75479 0.70112 0.72845 0.0
C2060 C 0.71502 0.68393 0.72405 0.0
C2061 C 0.71174 0.6714 0.7163 0.0
C2062 C 0.7243 0.68912 0.73768 0.0
C2063 C 0.73044 0.68187 0.74369 0.0
C2064 C 0.72709 0.66934 0.73609 0.0
H2065 H 0.80131 0.69486 0.79316 0.0
H2066 H 0.78326 0.69303 0.77447 0.0
C2067 C 0.71786 0.66417 0.72254 0.0
C2068 C 0.74048 0.68717 0.75784 0.0
H2069 H 0.77379 0.71101 0.7671 0.0
C2070 C 0.73733 0.67924 0.77268 0.0
C2071 C 0.75366 0.69896 0.75594 0.0
C2072 C 0.75764 0.70766 0.74006 0.0
C2073 C 0.74724 0.68239 0.78535 0.0
C2074 C 0.76058 0.69392 0.78319 0.0
C2075 C 0.76352 0.70223 0.76873 0.0
C2076 C 0.77204 0.6964 0.79458 0.0
C2077 C 0.74361 0.67286 0.80038 0.0
C2078 C 0.77188 0.69922 0.81204 0.0
C2079 C 0.78215 0.70012 0.82283 0.0
C2080 C 0.79272 0.69825 0.81629 0.0
C2081 C 0.79315 0.69606 0.79866 0.0
C2082 C 0.78291 0.69514 0.78793 0.0
H2083 H 0.73359 0.66322 0.79866 0.0
H2084 H 0.75171 0.67022 0.80243 0.0
H2085 H 0.7429 0.67804 0.81209 0.0
H2086 H 0.76367 0.70042 0.81737 0.0
H2087 H 0.78155 0.70183 0.83636 0.0
H2088 H 0.68645 0.63633 0.62748 0.0
H2089 H 0.69861 0.63173 0.60472 0.0
H2090 H 0.72968 0.6746 0.60337 0.0
H2091 H 0.71779 0.67923 0.62629 0.0
H2092 H 0.70614 0.6419 0.57165 0.0
H2093 H 0.75211 0.65618 0.61117 0.0
H2094 H 0.73614 0.65343 0.6202 0.0
H2095 H 0.74792 0.66944 0.61008 0.0
C2096 C 0.69586 0.64477 0.6223 0.0
C2097 C 0.70126 0.65812 0.62879 0.0
C2098 C 0.70277 0.64213 0.6093 0.0
C2099 C 0.71517 0.65278 0.60262 0.0
C2100 C 0.7203 0.66618 0.60865 0.0
H2101 H 0.77497 0.66256 0.52701 0.0
H2102 H 0.75962 0.66526 0.54673 0.0
C2103 C 0.71346 0.66882 0.62169 0.0
C2104 C 0.72291 0.64992 0.58953 0.0
H2105 H 0.7542 0.65321 0.5814 0.0
C2106 C 0.71661 0.64427 0.57379 0.0
C2107 C 0.73652 0.65292 0.59245 0.0
C2108 C 0.74353 0.65819 0.60945 0.0
C2109 C 0.72377 0.64197 0.56069 0.0
C2110 C 0.73749 0.64535 0.56349 0.0
C2111 C 0.74369 0.65076 0.57929 0.0
C2112 C 0.74577 0.64353 0.55019 0.0
C2113 C 0.7168 0.63626 0.5438 0.0
C2114 C 0.74294 0.6304 0.54552 0.0
C2115 C 0.75178 0.62881 0.53439 0.0
C2116 C 0.76361 0.64035 0.52782 0.0
C2117 C 0.76609 0.65348 0.53207 0.0
C2118 C 0.75729 0.65504 0.54324 0.0
H2119 H 0.70693 0.63615 0.54277 0.0
H2120 H 0.72366 0.64236 0.53309 0.0
H2121 H 0.71463 0.6256 0.54236 0.0
H2122 H 0.73419 0.6214 0.55098 0.0
H2123 H 0.74967 0.61857 0.53151 0.0
H2124 H 0.35406 0.05008 0.63302 0.0
H2125 H 0.36196 0.06793 0.61108 0.0
H2126 H 0.32341 0.06709 0.61481 0.0
H2127 H 0.3155 0.04948 0.63669 0.0
H2128 H 0.35014 0.06806 0.57896 0.0
H2129 H 0.35231 0.10755 0.62293 0.0
H2130 H 0.35131 0.09205 0.63044 0.0
H2131 H 0.33604 0.09184 0.62351 0.0
C2132 C 0.34725 0.05368 0.62913 0.0
C2133 C 0.33419 0.04842 0.63675 0.0
C2134 C 0.35179 0.06387 0.61661 0.0
C2135 C 0.34337 0.06901 0.61159 0.0
C2136 C 0.33019 0.06349 0.61878 0.0
H2137 H 0.33835 0.1234 0.54199 0.0
H2138 H 0.33549 0.10628 0.56296 0.0
C2139 C 0.32567 0.05335 0.63126 0.0
C2140 C 0.34818 0.08016 0.59884 0.0
H2141 H 0.35251 0.11192 0.59303 0.0
C2142 C 0.35088 0.07774 0.58205 0.0
C2143 C 0.34921 0.09281 0.60297 0.0
C2144 C 0.3472 0.0963 0.62098 0.0
C2145 C 0.35387 0.08738 0.56906 0.0
C2146 C 0.35427 0.09975 0.57307 0.0
C2147 C 0.35209 0.10237 0.58999 0.0
C2148 C 0.35609 0.10979 0.55979 0.0
C2149 C 0.35598 0.08406 0.55102 0.0
C2150 C 0.36866 0.11746 0.55109 0.0
C2151 C 0.37032 0.12726 0.53902 0.0
C2152 C 0.35943 0.12952 0.53546 0.0
C2153 C 0.34686 0.12176 0.54421 0.0
C2154 C 0.34524 0.11204 0.55628 0.0
H2155 H 0.35329 0.07322 0.54959 0.0
H2156 H 0.34967 0.08607 0.542 0.0
H2157 H 0.36694 0.09075 0.54734 0.0
H2158 H 0.37721 0.11598 0.55378 0.0
H2159 H 0.38011 0.13303 0.53245 0.0
H2160 H 0.95423 0.27512 0.62078 0.0
H2161 H 0.93761 0.26268 0.59813 0.0
H2162 H 0.92782 0.29475 0.59565 0.0
H2163 H 0.94457 0.30736 0.61813 0.0
H2164 H 0.90965 0.2531 0.59966 0.0
H2165 H 0.93375 0.28907 0.54543 0.0
H2166 H 0.94304 0.29024 0.56464 0.0
H2167 H 0.93143 0.29669 0.56437 0.0
C2168 C 0.94866 0.2796 0.61528 0.0
C2169 C 0.95072 0.29223 0.62124 0.0
C2170 C 0.93916 0.27248 0.60235 0.0
C2171 C 0.9316 0.27787 0.59506 0.0
C2172 C 0.93375 0.29054 0.60084 0.0
H2173 H 0.86365 0.24557 0.52324 0.0
H2174 H 0.88185 0.25964 0.54368 0.0
C2175 C 0.94326 0.29769 0.61376 0.0
C2176 C 0.9209 0.26981 0.58217 0.0
H2177 H 0.91101 0.27042 0.54122 0.0
C2178 C 0.90998 0.25685 0.58685 0.0
C2179 C 0.92133 0.27477 0.56551 0.0
C2180 C 0.93307 0.2884 0.55959 0.0
C2181 C 0.89939 0.24878 0.57538 0.0
C2182 C 0.89985 0.2537 0.5587 0.0
C2183 C 0.91071 0.26669 0.55403 0.0
C2184 C 0.88917 0.24542 0.54592 0.0
C2185 C 0.88766 0.23513 0.58131 0.0
C2186 C 0.88745 0.2329 0.54021 0.0
C2187 C 0.87705 0.22483 0.52863 0.0
C2188 C 0.86821 0.22916 0.52246 0.0
C2189 C 0.87017 0.24187 0.52793 0.0
C2190 C 0.8806 0.24995 0.5395 0.0
H2191 H 0.88708 0.23438 0.59547 0.0
H2192 H 0.87767 0.23337 0.57643 0.0
H2193 H 0.88922 0.22684 0.57632 0.0
H2194 H 0.89409 0.22932 0.54484 0.0
H2195 H 0.87575 0.21505 0.52481 0.0
H2196 H 0.31399 0.26593 0.63106 0.0
H2197 H 0.32304 0.25869 0.60748 0.0
H2198 H 0.3604 0.29808 0.60755 0.0
H2199 H 0.35143 0.30552 0.63137 0.0
H2200 H 0.33268 0.27226 0.57416 0.0
H2201 H 0.37268 0.26872 0.61138 0.0
H2202 H 0.35829 0.26869 0.62168 0.0
H2203 H 0.37203 0.28424 0.61281 0.0
C2204 C 0.32415 0.27311 0.62613 0.0
C2205 C 0.33201 0.28631 0.63318 0.0
C2206 C 0.32928 0.26894 0.61261 0.0
C2207 C 0.3424 0.27781 0.60588 0.0
C2208 C 0.35029 0.29105 0.61271 0.0
H2209 H 0.38045 0.24988 0.52908 0.0
H2210 H 0.37736 0.2651 0.54867 0.0
C2211 C 0.34512 0.29529 0.62626 0.0
C2212 C 0.34761 0.27296 0.59172 0.0
H2213 H 0.36895 0.26054 0.58315 0.0
C2214 C 0.34075 0.26988 0.57601 0.0
C2215 C 0.3582 0.26997 0.59418 0.0
C2216 C 0.36575 0.27299 0.61091 0.0
C2217 C 0.34385 0.26339 0.56289 0.0
C2218 C 0.35385 0.25963 0.56571 0.0
C2219 C 0.36124 0.26338 0.58107 0.0
C2220 C 0.35582 0.25068 0.55357 0.0
C2221 C 0.33619 0.26038 0.54624 0.0
C2222 C 0.34481 0.23748 0.55011 0.0
C2223 C 0.34655 0.22878 0.53907 0.0
C2224 C 0.35938 0.23305 0.53129 0.0
C2225 C 0.37046 0.24625 0.53493 0.0
C2226 C 0.3687 0.25498 0.54603 0.0
H2227 H 0.33238 0.26755 0.54406 0.0
H2228 H 0.34281 0.26106 0.53527 0.0
H2229 H 0.32713 0.24984 0.54662 0.0
H2230 H 0.33489 0.23382 0.55617 0.0
H2231 H 0.33789 0.21857 0.53692 0.0
H2232 H 0.72503 0.04631 0.62853 0.0
H2233 H 0.73645 0.06258 0.60523 0.0
H2234 H 0.69798 0.05962 0.59208 0.0
H2235 H 0.6866 0.04374 0.61575 0.0
H2236 H 0.73283 0.06108 0.57121 0.0
H2237 H 0.7225 0.10029 0.59835 0.0
H2238 H 0.71943 0.08542 0.61022 0.0
H2239 H 0.70718 0.0841 0.59462 0.0
C2240 C 0.719 0.04911 0.62065 0.0
C2241 C 0.70496 0.0439 0.62408 0.0
C2242 C 0.72553 0.05838 0.60733 0.0
C2243 C 0.71813 0.06253 0.59715 0.0
C2244 C 0.70397 0.05686 0.60008 0.0
H2245 H 0.75265 0.10989 0.50305 0.0
H2246 H 0.73873 0.09149 0.52335 0.0
C2247 C 0.69747 0.04773 0.61354 0.0
C2248 C 0.72532 0.07299 0.58371 0.0
H2249 H 0.73255 0.10466 0.57079 0.0
C2250 C 0.73278 0.07062 0.57109 0.0
C2251 C 0.72538 0.0855 0.58373 0.0
C2252 C 0.71831 0.08907 0.59754 0.0
C2253 C 0.74036 0.08043 0.55853 0.0
C2254 C 0.74014 0.0928 0.55833 0.0
C2255 C 0.7326 0.09512 0.57087 0.0
C2256 C 0.74828 0.10384 0.54585 0.0
C2257 C 0.74889 0.07765 0.54601 0.0
C2258 C 0.75792 0.11699 0.55176 0.0
C2259 C 0.76566 0.12752 0.54024 0.0
C2260 C 0.76396 0.1251 0.52256 0.0
C2261 C 0.75424 0.11197 0.51662 0.0
C2262 C 0.74636 0.10145 0.52819 0.0
H2263 H 0.75085 0.06958 0.55071 0.0
H2264 H 0.74328 0.07406 0.53375 0.0
H2265 H 0.75894 0.08707 0.54349 0.0
H2266 H 0.75956 0.11907 0.56533 0.0
H2267 H 0.77318 0.13751 0.54515 0.0
H2268 H 0.93754 0.67008 0.63956 0.0
H2269 H 0.92054 0.66084 0.61683 0.0
H2270 H 0.93208 0.63086 0.60487 0.0
H2271 H 0.94925 0.64006 0.62782 0.0
H2272 H 0.93035 0.64648 0.57585 0.0
H2273 H 0.88367 0.6231 0.61689 0.0
H2274 H 0.89624 0.64036 0.62278 0.0
H2275 H 0.90037 0.62706 0.62456 0.0
C2276 C 0.93649 0.66149 0.63218 0.0
C2277 C 0.94477 0.6558 0.63555 0.0
C2278 C 0.92669 0.65618 0.61924 0.0
C2279 C 0.92495 0.64508 0.60934 0.0
C2280 C 0.93323 0.63938 0.61249 0.0
H2281 H 0.8553 0.61087 0.53812 0.0
H2282 H 0.87241 0.61176 0.55806 0.0
C2283 C 0.943 0.64464 0.6256 0.0
C2284 C 0.91473 0.63989 0.59538 0.0
H2285 H 0.88066 0.6275 0.58782 0.0
C2286 C 0.91944 0.64209 0.57841 0.0
C2287 C 0.90051 0.63401 0.59877 0.0
C2288 C 0.89484 0.63086 0.61673 0.0
C2289 C 0.91037 0.63935 0.56477 0.0
C2290 C 0.8963 0.63441 0.56826 0.0
C2291 C 0.89147 0.63139 0.58516 0.0
C2292 C 0.88664 0.63346 0.55485 0.0
C2293 C 0.91598 0.64204 0.54677 0.0
C2294 C 0.88899 0.64535 0.54641 0.0
C2295 C 0.87926 0.64487 0.53509 0.0
C2296 C 0.86694 0.6325 0.532 0.0
C2297 C 0.86475 0.62052 0.54012 0.0
C2298 C 0.87448 0.62102 0.55154 0.0
H2299 H 0.92556 0.64157 0.54581 0.0
H2300 H 0.90832 0.63455 0.53766 0.0
H2301 H 0.9185 0.65246 0.54291 0.0
H2302 H 0.89817 0.65511 0.54901 0.0
H2303 H 0.88128 0.65425 0.52893 0.0
H2304 H 0.94067 0.65026 0.72415 0.0
H2305 H 0.92952 0.65602 0.74699 0.0
H2306 H 0.9626 0.69807 0.74557 0.0
H2307 H 0.97386 0.69243 0.72271 0.0
H2308 H 0.94129 0.66952 0.78039 0.0
H2309 H 0.92605 0.69878 0.738 0.0
H2310 H 0.93058 0.68668 0.72974 0.0
H2311 H 0.94377 0.70315 0.73721 0.0
C2312 C 0.9456 0.66073 0.72873 0.0
C2313 C 0.9581 0.67091 0.72156 0.0
C2314 C 0.93924 0.66398 0.74179 0.0
C2315 C 0.94519 0.67748 0.74781 0.0
C2316 C 0.95779 0.68762 0.74094 0.0
H2317 H 0.90971 0.71266 0.81632 0.0
H2318 H 0.92571 0.70977 0.79793 0.0
C2319 C 0.96421 0.68437 0.72793 0.0
C2320 C 0.93802 0.68094 0.76103 0.0
H2321 H 0.91994 0.69728 0.76701 0.0
C2322 C 0.93667 0.67564 0.77753 0.0
C2323 C 0.93211 0.689 0.75723 0.0
C2324 C 0.93307 0.69469 0.73958 0.0
C2325 C 0.92945 0.67814 0.79037 0.0
C2326 C 0.92314 0.68583 0.78643 0.0
C2327 C 0.92479 0.69139 0.77001 0.0
C2328 C 0.91415 0.68763 0.7988 0.0
C2329 C 0.92875 0.67258 0.80804 0.0
C2330 C 0.90238 0.67615 0.80543 0.0
C2331 C 0.89331 0.67776 0.81606 0.0
C2332 C 0.89572 0.6909 0.8201 0.0
C2333 C 0.90764 0.7024 0.81363 0.0
C2334 C 0.91674 0.70077 0.80304 0.0
H2335 H 0.93756 0.67103 0.81039 0.0
H2336 H 0.92869 0.67954 0.81803 0.0
H2337 H 0.91915 0.66249 0.80931 0.0
H2338 H 0.9 0.6659 0.80204 0.0
H2339 H 0.88432 0.66869 0.82097 0.0
H2340 H 0.29827 0.27587 0.72159 0.0
H2341 H 0.29441 0.25927 0.7439 0.0
H2342 H 0.338 0.27422 0.74547 0.0
H2343 H 0.34189 0.29058 0.72285 0.0
H2344 H 0.32336 0.24689 0.74376 0.0
H2345 H 0.30157 0.26463 0.79457 0.0
H2346 H 0.2924 0.26096 0.7748 0.0
H2347 H 0.31001 0.27472 0.77584 0.0
C2348 C 0.30705 0.27571 0.72681 0.0
C2349 C 0.32039 0.28453 0.72048 0.0
C2350 C 0.30483 0.26627 0.73964 0.0
C2351 C 0.31594 0.26565 0.74655 0.0
C2352 C 0.32928 0.27456 0.74037 0.0
H2353 H 0.31425 0.22041 0.83658 0.0
H2354 H 0.31766 0.23805 0.81608 0.0
C2355 C 0.33149 0.28391 0.72745 0.0
C2356 C 0.31362 0.2552 0.75952 0.0
H2357 H 0.29961 0.2429 0.79885 0.0
C2358 C 0.31823 0.24606 0.75584 0.0
C2359 C 0.30706 0.25423 0.77536 0.0
C2360 C 0.3026 0.26424 0.78048 0.0
C2361 C 0.31633 0.23589 0.76747 0.0
C2362 C 0.30928 0.23457 0.78301 0.0
C2363 C 0.30485 0.24382 0.78682 0.0
C2364 C 0.30667 0.22379 0.79561 0.0
C2365 C 0.32214 0.22683 0.76311 0.0
C2366 C 0.2991 0.20991 0.79101 0.0
C2367 C 0.29732 0.19981 0.8026 0.0
C2368 C 0.30291 0.20339 0.81911 0.0
C2369 C 0.31004 0.2173 0.82387 0.0
C2370 C 0.3119 0.2274 0.81222 0.0
H2371 H 0.33043 0.23159 0.75332 0.0
H2372 H 0.32635 0.2246 0.77461 0.0
H2373 H 0.31383 0.21699 0.75783 0.0
H2374 H 0.29472 0.20688 0.77837 0.0
H2375 H 0.29186 0.18923 0.79843 0.0
H2376 H 0.71994 0.06586 0.71246 0.0
H2377 H 0.7361 0.07373 0.73614 0.0
H2378 H 0.7326 0.03414 0.73882 0.0
H2379 H 0.71629 0.02606 0.71496 0.0
H2380 H 0.73071 0.06051 0.77036 0.0
H2381 H 0.77528 0.06355 0.73505 0.0
H2382 H 0.76135 0.06374 0.7241 0.0
H2383 H 0.7587 0.04814 0.73329 0.0
C2384 C 0.72259 0.05878 0.718 0.0
C2385 C 0.71682 0.04532 0.71176 0.0
C2386 C 0.73182 0.06331 0.73157 0.0
C2387 C 0.73558 0.05454 0.73912 0.0
C2388 C 0.72989 0.04108 0.73302 0.0
H2389 H 0.79969 0.08189 0.81792 0.0
H2390 H 0.78171 0.06707 0.79759 0.0
C2391 C 0.72055 0.03649 0.71945 0.0
C2392 C 0.7454 0.05965 0.75349 0.0
H2393 H 0.77912 0.07188 0.76323 0.0
C2394 C 0.74125 0.06284 0.76891 0.0
C2395 C 0.75908 0.06256 0.75155 0.0
C2396 C 0.76399 0.0594 0.73512 0.0
C2397 C 0.75057 0.06928 0.78231 0.0
C2398 C 0.76448 0.07292 0.78003 0.0
C2399 C 0.76847 0.06913 0.76491 0.0
C2400 C 0.77521 0.08166 0.79256 0.0
C2401 C 0.74548 0.07231 0.79869 0.0
C2402 C 0.77765 0.09483 0.79621 0.0
C2403 C 0.7879 0.1033 0.80771 0.0
C2404 C 0.796 0.09882 0.81575 0.0
C2405 C 0.79366 0.08567 0.8119 0.0
C2406 C 0.78336 0.07717 0.80035 0.0
H2407 H 0.73427 0.06517 0.80052 0.0
H2408 H 0.75101 0.07156 0.80993 0.0
H2409 H 0.74727 0.08286 0.79817 0.0
H2410 H 0.77175 0.09866 0.78997 0.0
H2411 H 0.78964 0.11348 0.81005 0.0
H2412 H 0.04962 0.35417 0.01711 0.0
H2413 H 0.06676 0.34914 0.02852 0.0
H2414 H 0.03472 0.31457 0.05588 0.0
H2415 H 0.0176 0.31936 0.04439 0.0
H2416 H 0.07315 0.34899 0.0621 0.0
H2417 H 0.0554 0.29795 0.03369 0.0
H2418 H 0.04964 0.30919 0.02611 0.0
H2419 H 0.0418 0.29871 0.04467 0.0
C2420 C 0.04621 0.34538 0.02535 0.0
C2421 C 0.03224 0.33715 0.0298 0.0
C2422 C 0.05601 0.34253 0.03188 0.0
C2423 C 0.05199 0.33135 0.04285 0.0
C2424 C 0.03803 0.32305 0.04712 0.0
H2425 H 0.09664 0.31872 0.12196 0.0
H2426 H 0.08252 0.32447 0.10434 0.0
C2427 C 0.02826 0.32587 0.04061 0.0
C2428 C 0.0624 0.32884 0.05085 0.0
H2429 H 0.07022 0.30391 0.05807 0.0
C2430 C 0.07262 0.33919 0.06104 0.0
C2431 C 0.06184 0.31613 0.0493 0.0
C2432 C 0.05167 0.30491 0.0377 0.0
C2433 C 0.08192 0.33697 0.0703 0.0
C2434 C 0.08078 0.32396 0.0696 0.0
C2435 C 0.07096 0.31382 0.05881 0.0
C2436 C 0.08947 0.32057 0.08025 0.0
C2437 C 0.09287 0.34859 0.08074 0.0
C2438 C 0.09777 0.31607 0.07262 0.0
C2439 C 0.10581 0.3127 0.08268 0.0
C2440 C 0.10565 0.31371 0.10059 0.0
C2441 C 0.09719 0.31807 0.1082 0.0
C2442 C 0.08913 0.32139 0.09813 0.0
H2443 H 0.09502 0.35869 0.07592 0.0
H2444 H 0.08924 0.34761 0.09415 0.0
H2445 H 0.10261 0.3484 0.08064 0.0
H2446 H 0.09813 0.31529 0.05884 0.0
H2447 H 0.1123 0.30949 0.07641 0.0
H2448 H 0.6287 0.6904 0.02748 0.0
H2449 H 0.63891 0.71184 0.04363 0.0
H2450 H 0.67554 0.70974 0.05162 0.0
H2451 H 0.66544 0.68825 0.03543 0.0
H2452 H 0.66371 0.715 0.08193 0.0
H2453 H 0.6715 0.74987 0.02803 0.0
H2454 H 0.6546 0.73493 0.02935 0.0
H2455 H 0.66917 0.73303 0.02493 0.0
C2456 C 0.63896 0.69451 0.03259 0.0
C2457 C 0.64626 0.68762 0.03012 0.0
C2458 C 0.64479 0.70679 0.04175 0.0
C2459 C 0.65802 0.71241 0.04863 0.0
C2460 C 0.66534 0.70557 0.0463 0.0
H2461 H 0.70231 0.79424 0.09434 0.0
H2462 H 0.69693 0.77348 0.07827 0.0
C2463 C 0.65955 0.69332 0.03703 0.0
C2464 C 0.66397 0.72522 0.05873 0.0
H2465 H 0.67371 0.75898 0.05609 0.0
C2466 C 0.66603 0.72466 0.07628 0.0
C2467 C 0.66712 0.7378 0.05125 0.0
C2468 C 0.66561 0.73905 0.03233 0.0
C2469 C 0.67067 0.73629 0.08671 0.0
C2470 C 0.6732 0.74872 0.07936 0.0
C2471 C 0.67166 0.7494 0.06169 0.0
C2472 C 0.67687 0.76098 0.08986 0.0
C2473 C 0.67274 0.73518 0.10551 0.0
C2474 C 0.66736 0.76079 0.10166 0.0
C2475 C 0.67038 0.7726 0.1108 0.0
C2476 C 0.68298 0.78482 0.1083 0.0
C2477 C 0.69259 0.78493 0.09667 0.0
C2478 C 0.68951 0.77312 0.08743 0.0
H2479 H 0.67377 0.72616 0.10832 0.0
H2480 H 0.68203 0.74456 0.11022 0.0
H2481 H 0.6637 0.73403 0.11271 0.0
H2482 H 0.65746 0.75157 0.10353 0.0
H2483 H 0.66282 0.77219 0.11977 0.0
H2484 H 0.30584 0.97954 0.03364 0.0
H2485 H 0.28407 0.967 0.04925 0.0
H2486 H 0.28207 0.92889 0.03725 0.0
H2487 H 0.30385 0.9413 0.02155 0.0
H2488 H 0.2568 0.92974 0.03191 0.0
H2489 H 0.27991 0.94767 0.09626 0.0
H2490 H 0.28436 0.96066 0.08034 0.0
H2491 H 0.29 0.94854 0.07778 0.0
C2492 C 0.30078 0.96849 0.03427 0.0
C2493 C 0.30663 0.96142 0.02642 0.0
C2494 C 0.28836 0.96136 0.04324 0.0
C2495 C 0.2816 0.94707 0.04452 0.0
C2496 C 0.28722 0.93994 0.03642 0.0
H2497 H 0.21851 0.88816 0.10982 0.0
H2498 H 0.23959 0.90363 0.09413 0.0
C2499 C 0.29966 0.94706 0.0275 0.0
C2500 C 0.26868 0.9395 0.05441 0.0
H2501 H 0.25576 0.93356 0.09502 0.0
C2502 C 0.25652 0.93061 0.04569 0.0
C2503 C 0.26846 0.94066 0.07238 0.0
C2504 C 0.28137 0.94981 0.08234 0.0
C2505 C 0.24407 0.92273 0.05454 0.0
C2506 C 0.24385 0.92388 0.07251 0.0
C2507 C 0.256 0.93284 0.08121 0.0
C2508 C 0.23128 0.91514 0.08258 0.0
C2509 C 0.23133 0.91293 0.04469 0.0
C2510 C 0.21976 0.91672 0.08149 0.0
C2511 C 0.20769 0.90789 0.09044 0.0
C2512 C 0.207 0.89735 0.10053 0.0
C2513 C 0.2187 0.89607 0.10194 0.0
C2514 C 0.23075 0.90492 0.09308 0.0
H2515 H 0.23373 0.91166 0.03125 0.0
H2516 H 0.22598 0.90273 0.05093 0.0
H2517 H 0.22412 0.91687 0.04458 0.0
H2518 H 0.22007 0.92466 0.07356 0.0
H2519 H 0.19881 0.90907 0.08909 0.0
H2520 H 0.3131 0.01444 0.98268 0.0
H2521 H 0.3069 0.03052 0.97109 0.0
H2522 H 0.34552 0.06442 0.98838 0.0
H2523 H 0.35186 0.04837 4e-05 0.0
H2524 H 0.30571 0.05356 0.98681 0.0
H2525 H 0.34484 0.06835 0.93504 0.0
H2526 H 0.33898 0.0531 0.9477 0.0
H2527 H 0.35083 0.06958 0.95657 0.0
C2528 C 0.32021 0.02531 0.98422 0.0
C2529 C 0.33303 0.03015 0.99212 0.0
C2530 C 0.31663 0.03447 0.97763 0.0
C2531 C 0.32583 0.04861 0.97872 0.0
C2532 C 0.33836 0.05351 0.98729 0.0
H2533 H 0.31233 0.11406 0.94634 0.0
H2534 H 0.31679 0.09857 0.96306 0.0
C2535 C 0.34193 0.04434 0.99398 0.0
C2536 C 0.32261 0.0581 0.96987 0.0
H2537 H 0.33181 0.07926 0.93536 0.0
C2538 C 0.31144 0.05926 0.97563 0.0
C2539 C 0.33001 0.06531 0.95514 0.0
C2540 C 0.34178 0.06401 0.9481 0.0
C2541 C 0.30751 0.06755 0.96703 0.0
C2542 C 0.315 0.07484 0.95239 0.0
C2543 C 0.32613 0.07365 0.94663 0.0
C2544 C 0.31142 0.08374 0.94271 0.0
C2545 C 0.29523 0.06824 0.97341 0.0
C2546 C 0.30698 0.08052 0.92574 0.0
C2547 C 0.30447 0.08936 0.91615 0.0
C2548 C 0.30652 0.10164 0.92333 0.0
C2549 C 0.31078 0.10472 0.94044 0.0
C2550 C 0.31321 0.09584 0.95004 0.0
H2551 H 0.28895 0.05993 0.98264 0.0
H2552 H 0.29885 0.07821 0.97991 0.0
H2553 H 0.2886 0.06754 0.96259 0.0
H2554 H 0.30563 0.07125 0.91986 0.0
H2555 H 0.30135 0.0868 0.90295 0.0
H2556 H 0.94225 0.3045 0.99493 0.0
H2557 H 0.93027 0.28307 0.97889 0.0
H2558 H 0.96865 0.28418 0.97075 0.0
H2559 H 0.98078 0.30564 0.98691 0.0
H2560 H 0.93558 0.27909 0.94444 0.0
H2561 H 0.94224 0.2451 0.98934 0.0
H2562 H 0.94461 0.26149 0.99576 0.0
H2563 H 0.95767 0.26068 0.98344 0.0
C2564 C 0.94816 0.30017 0.98986 0.0
C2565 C 0.96249 0.30681 0.99224 0.0
C2566 C 0.94129 0.28792 0.98067 0.0
C2567 C 0.94856 0.28199 0.97377 0.0
C2568 C 0.96283 0.28849 0.97619 0.0
H2569 H 0.91413 0.21755 0.89565 0.0
H2570 H 0.92963 0.23839 0.91168 0.0
C2571 C 0.96974 0.30079 0.98537 0.0
C2572 C 0.94117 0.26925 0.96354 0.0
H2573 H 0.9313 0.23536 0.9631 0.0
C2574 C 0.93469 0.26953 0.94845 0.0
C2575 C 0.93998 0.25682 0.96891 0.0
C2576 C 0.94639 0.25589 0.98531 0.0
C2577 C 0.92695 0.25767 0.93863 0.0
C2578 C 0.92579 0.24523 0.94396 0.0
C2579 C 0.93233 0.24496 0.959 0.0
C2580 C 0.9171 0.23225 0.93462 0.0
C2581 C 0.9197 0.25842 0.92291 0.0
C2582 C 0.90518 0.22176 0.9424 0.0
C2583 C 0.89638 0.20985 0.93333 0.0
C2584 C 0.89936 0.20817 0.91632 0.0
C2585 C 0.91158 0.21851 0.90875 0.0
C2586 C 0.92038 0.23046 0.91783 0.0
H2587 H 0.91943 0.26807 0.92245 0.0
H2588 H 0.9252 0.25796 0.91135 0.0
H2589 H 0.90898 0.24962 0.92243 0.0
H2590 H 0.90253 0.22293 0.95538 0.0
H2591 H 0.88716 0.20197 0.93961 0.0
H2592 H 0.68434 0.64127 0.99161 0.0
H2593 H 0.70674 0.64734 0.97916 0.0
H2594 H 0.71319 0.6868 0.9647 0.0
H2595 H 0.69084 0.68083 0.97702 0.0
H2596 H 0.71386 0.65551 0.94312 0.0
H2597 H 0.74968 0.69496 0.98906 0.0
H2598 H 0.73216 0.68231 0.99464 0.0
H2599 H 0.7356 0.69675 0.98174 0.0
C2600 C 0.69061 0.6513 0.98597 0.0
C2601 C 0.68582 0.66056 0.98527 0.0
C2602 C 0.70337 0.65474 0.97886 0.0
C2603 C 0.71164 0.66756 0.97118 0.0
C2604 C 0.70704 0.67694 0.9708 0.0
H2605 H 0.78871 0.70716 0.91476 0.0
H2606 H 0.76781 0.70163 0.93092 0.0
C2607 C 0.69424 0.67347 0.97777 0.0
C2608 C 0.72462 0.67079 0.96247 0.0
H2609 H 0.75945 0.69223 0.96353 0.0
C2610 C 0.72385 0.66346 0.94762 0.0
C2611 C 0.73757 0.68127 0.96831 0.0
C2612 C 0.7389 0.68925 0.98438 0.0
C2613 C 0.73571 0.66651 0.93823 0.0
C2614 C 0.74872 0.67693 0.94414 0.0
C2615 C 0.74948 0.68424 0.95904 0.0
C2616 C 0.76164 0.6804 0.93497 0.0
C2617 C 0.73411 0.65883 0.92179 0.0
C2618 C 0.76526 0.67039 0.93224 0.0
C2619 C 0.7771 0.67349 0.92294 0.0
C2620 C 0.78568 0.68673 0.91642 0.0
C2621 C 0.7823 0.69688 0.91968 0.0
C2622 C 0.77037 0.69373 0.92887 0.0
H2623 H 0.72352 0.6542 0.91664 0.0
H2624 H 0.74149 0.66565 0.91191 0.0
H2625 H 0.73616 0.6504 0.92423 0.0
H2626 H 0.75889 0.66014 0.93725 0.0
H2627 H 0.77959 0.66554 0.92092 0.0
H2628 H 0.96946 0.66981 0.99322 0.0
H2629 H 0.95734 0.68004 0.97977 0.0
H2630 H 0.92161 0.63988 0.97301 0.0
H2631 H 0.93347 0.62962 0.98691 0.0
H2632 H 0.94776 0.67701 0.94831 0.0
H2633 H 0.90426 0.65997 0.99354 0.0
H2634 H 0.91918 0.65869 -0.00169 0.0
H2635 H 0.90545 0.64578 0.98551 0.0
C2636 C 0.95897 0.66316 0.98901 0.0
C2637 C 0.9524 0.6489 0.99122 0.0
C2638 C 0.95206 0.66903 0.98133 0.0
C2639 C 0.93848 0.66076 0.97566 0.0
C2640 C 0.93194 0.64651 0.97773 0.0
H2641 H 0.89685 0.67708 0.89642 0.0
H2642 H 0.91103 0.67133 0.91374 0.0
C2643 C 0.93877 0.64065 0.98558 0.0
C2644 C 0.93138 0.66692 0.96677 0.0
H2645 H 0.90135 0.66731 0.96595 0.0
C2646 C 0.93768 0.67503 0.95229 0.0
C2647 C 0.91836 0.66458 0.97215 0.0
C2648 C 0.9115 0.65691 0.98834 0.0
C2649 C 0.93109 0.68038 0.94265 0.0
C2650 C 0.91764 0.67721 0.94733 0.0
C2651 C 0.91158 0.66958 0.96221 0.0
C2652 C 0.90946 0.68122 0.93668 0.0
C2653 C 0.93864 0.68943 0.92761 0.0
C2654 C 0.90353 0.68838 0.94391 0.0
C2655 C 0.89508 0.69138 0.93413 0.0
C2656 C 0.89241 0.68727 0.91691 0.0
C2657 C 0.89853 0.68026 0.90968 0.0
C2658 C 0.90685 0.67715 0.9195 0.0
H2659 H 0.94996 0.69461 0.92928 0.0
H2660 H 0.93599 0.68306 0.91588 0.0
H2661 H 0.93578 0.69736 0.92569 0.0
H2662 H 0.9053 0.69151 0.95719 0.0
H2663 H 0.89038 0.6966 0.94021 0.0
H2664 H 0.35608 0.31042 0.99463 0.0
H2665 H 0.34987 0.28834 0.98149 0.0
H2666 H 0.31122 0.28345 0.96516 0.0
H2667 H 0.31729 0.30543 0.97823 0.0
H2668 H 0.30976 0.25929 0.9801 0.0
H2669 H 0.34893 0.28325 0.92837 0.0
H2670 H 0.35512 0.28818 0.94984 0.0
H2671 H 0.34339 0.29285 0.94123 0.0
C2672 C 0.34621 0.30458 0.98837 0.0
C2673 C 0.33721 0.3097 0.98736 0.0
C2674 C 0.34271 0.29202 0.98082 0.0
C2675 C 0.33017 0.28439 0.9722 0.0
C2676 C 0.32097 0.28923 0.97171 0.0
H2677 H 0.30541 0.21941 0.89759 0.0
H2678 H 0.31013 0.24004 0.91347 0.0
C2679 C 0.32447 0.3018 0.97916 0.0
C2680 C 0.32676 0.27155 0.96321 0.0
H2681 H 0.33606 0.25909 0.9291 0.0
C2682 C 0.31551 0.2592 0.96898 0.0
C2683 C 0.33419 0.27157 0.94857 0.0
C2684 C 0.34602 0.28466 0.94149 0.0
C2685 C 0.31159 0.24679 0.96057 0.0
C2686 C 0.31916 0.24678 0.94611 0.0
C2687 C 0.33032 0.25915 0.94025 0.0
C2688 C 0.3157 0.23404 0.93685 0.0
C2689 C 0.29924 0.23381 0.96701 0.0
C2690 C 0.31731 0.22389 0.94477 0.0
C2691 C 0.31462 0.21213 0.93576 0.0
C2692 C 0.3103 0.21032 0.91865 0.0
C2693 C 0.30857 0.22045 0.91081 0.0
C2694 C 0.31133 0.23226 0.91981 0.0
H2695 H 0.2928 0.23596 0.97583 0.0
H2696 H 0.29276 0.22748 0.9562 0.0
H2697 H 0.30278 0.22771 0.97404 0.0
H2698 H 0.32084 0.22517 0.95784 0.0
H2699 H 0.31594 0.20444 0.94217 0.0
H2700 H 0.69054 0.01586 0.98092 0.0
H2701 H 0.71266 0.02787 0.96579 0.0
H2702 H 0.71714 0.06666 0.9803 0.0
H2703 H 0.69511 0.05481 0.99542 0.0
H2704 H 0.71926 0.04713 0.93834 0.0
H2705 H 0.75437 0.07 0.99359 0.0
H2706 H 0.73703 0.05565 0.9957 0.0
H2707 H 0.74001 0.07272 0.99369 0.0
C2708 C 0.69629 0.02694 0.98104 0.0
C2709 C 0.69105 0.03437 0.9894 0.0
C2710 C 0.70891 0.03378 0.97237 0.0
C2711 C 0.71658 0.04813 0.97211 0.0
C2712 C 0.71147 0.05557 0.98059 0.0
H2713 H 0.77763 0.10746 0.90539 0.0
H2714 H 0.75691 0.09139 0.92127 0.0
C2715 C 0.69883 0.04876 0.98915 0.0
C2716 C 0.72958 0.05542 0.96223 0.0
H2717 H 0.76381 0.07896 0.96607 0.0
C2718 C 0.72904 0.05397 0.9444 0.0
C2719 C 0.74232 0.06422 0.9702 0.0
C2720 C 0.74356 0.06569 0.98937 0.0
C2721 C 0.74083 0.06156 0.93425 0.0
C2722 C 0.75343 0.07087 0.94217 0.0
C2723 C 0.7541 0.07188 0.96004 0.0
C2724 C 0.76584 0.08018 0.93208 0.0
C2725 C 0.73971 0.05969 0.91512 0.0
C2726 C 0.77776 0.07927 0.93307 0.0
C2727 C 0.78964 0.08847 0.92401 0.0
C2728 C 0.78983 0.09883 0.91405 0.0
C2729 C 0.77783 0.09966 0.91308 0.0
C2730 C 0.76596 0.09042 0.92201 0.0
H2731 H 0.73043 0.04988 0.91142 0.0
H2732 H 0.73894 0.06817 0.90932 0.0
H2733 H 0.74897 0.05995 0.90972 0.0
H2734 H 0.77788 0.07149 0.94089 0.0
H2735 H 0.79877 0.08767 0.92512 0.0
H2736 H 0.67875 0.98212 0.04325 0.0
H2737 H 0.68421 0.96603 0.05642 0.0
H2738 H 0.64903 0.93235 0.03203 0.0
H2739 H 0.64356 0.94846 0.01857 0.0
H2740 H 0.66736 0.94545 0.07883 0.0
H2741 H 0.67996 0.92421 0.02205 0.0
H2742 H 0.67929 0.93976 0.02125 0.0
H2743 H 0.66366 0.92339 0.02108 0.0
C2744 C 0.67224 0.9713 0.0405 0.0
C2745 C 0.6607 0.96656 0.02986 0.0
C2746 C 0.67539 0.96212 0.04806 0.0
C2747 C 0.6671 0.94801 0.04511 0.0
C2748 C 0.65571 0.94322 0.03424 0.0
H2749 H 0.66277 0.88431 0.11039 0.0
H2750 H 0.65799 0.89969 0.094 0.0
C2751 C 0.65255 0.95243 0.02662 0.0
C2752 C 0.66998 0.93835 0.05431 0.0
H2753 H 0.67825 0.9135 0.04867 0.0
C2754 C 0.66976 0.93848 0.07224 0.0
C2755 C 0.67324 0.92936 0.04568 0.0
C2756 C 0.67419 0.9292 0.02646 0.0
C2757 C 0.67259 0.92978 0.08178 0.0
C2758 C 0.67551 0.92055 0.07316 0.0
C2759 C 0.6759 0.92052 0.05523 0.0
C2760 C 0.67829 0.91093 0.08261 0.0
C2761 C 0.67265 0.9307 0.10103 0.0
C2762 C 0.69119 0.91196 0.08132 0.0
C2763 C 0.69393 0.90312 0.09059 0.0
C2764 C 0.68377 0.893 0.1012 0.0
C2765 C 0.67079 0.8919 0.10224 0.0
C2766 C 0.66807 0.90076 0.093 0.0
H2767 H 0.67358 0.94046 0.10548 0.0
H2768 H 0.66285 0.92214 0.10613 0.0
H2769 H 0.68125 0.92987 0.10646 0.0
H2770 H 0.69918 0.91971 0.07329 0.0
H2771 H 0.70396 0.90411 0.08932 0.0
H2772 H 0.03983 0.68863 0.01697 0.0
H2773 H 0.05664 0.71112 0.0287 0.0
H2774 H 0.02362 0.71559 0.04936 0.0
H2775 H 0.00678 0.69322 0.03775 0.0
H2776 H 0.04604 0.73981 0.03223 0.0
H2777 H 0.06341 0.71692 0.0817 0.0
H2778 H 0.0634 0.71171 0.05994 0.0
H2779 H 0.04739 0.70703 0.07037 0.0
C2780 C 0.03615 0.69447 0.02386 0.0
C2781 C 0.02199 0.68912 0.02655 0.0
C2782 C 0.04576 0.70727 0.03059 0.0
C2783 C 0.04134 0.7149 0.04002 0.0
C2784 C 0.02722 0.70982 0.04215 0.0
H2785 H 0.08199 0.77976 0.11391 0.0
H2786 H 0.06628 0.7591 0.09777 0.0
C2787 C 0.01762 0.69702 0.03553 0.0
C2788 C 0.05135 0.72792 0.04836 0.0
H2789 H 0.07422 0.74097 0.08125 0.0
C2790 C 0.05228 0.74012 0.04287 0.0
C2791 C 0.05931 0.72819 0.06237 0.0
C2792 C 0.05833 0.71528 0.0691 0.0
C2793 C 0.06103 0.75263 0.05105 0.0
C2794 C 0.06902 0.75289 0.06502 0.0
C2795 C 0.06809 0.7407 0.07049 0.0
C2796 C 0.07822 0.76568 0.07439 0.0
C2797 C 0.06143 0.76543 0.04501 0.0
C2798 C 0.0901 0.77617 0.06654 0.0
C2799 C 0.09908 0.78797 0.07572 0.0
C2800 C 0.09632 0.78946 0.0929 0.0
C2801 C 0.08431 0.77897 0.10064 0.0
C2802 C 0.07538 0.76715 0.09149 0.0
H2803 H 0.05282 0.76309 0.03621 0.0
H2804 H 0.06096 0.77139 0.05604 0.0
H2805 H 0.07126 0.77199 0.03813 0.0
H2806 H 0.09253 0.77515 0.05341 0.0
H2807 H 0.10821 0.79592 0.06938 0.0
H2808 H 0.30671 0.32788 0.03132 0.0
H2809 H 0.28402 0.317 0.04505 0.0
H2810 H 0.28544 0.35571 0.04567 0.0
H2811 H 0.30797 0.36664 0.03182 0.0
H2812 H 0.27687 0.32339 0.07656 0.0
H2813 H 0.24808 0.32985 0.02405 0.0
H2814 H 0.26484 0.33177 0.02094 0.0
H2815 H 0.26328 0.34557 0.02987 0.0
C2816 C 0.30217 0.33407 0.0343 0.0
C2817 C 0.30914 0.34813 0.0304 0.0
C2818 C 0.28921 0.32783 0.04213 0.0
C2819 C 0.28297 0.3355 0.04608 0.0
C2820 C 0.28994 0.34954 0.04236 0.0
H2821 H 0.21617 0.33123 0.10136 0.0
H2822 H 0.23656 0.33659 0.08442 0.0
C2823 C 0.30288 0.35579 0.03454 0.0
C2824 C 0.2694 0.32905 0.05472 0.0
H2825 H 0.23731 0.32479 0.05168 0.0
C2826 C 0.26813 0.32347 0.07104 0.0
C2827 C 0.25803 0.32913 0.0474 0.0
C2828 C 0.25855 0.33428 0.02953 0.0
C2829 C 0.25598 0.31864 0.08064 0.0
C2830 C 0.24484 0.31929 0.0736 0.0
C2831 C 0.24593 0.32437 0.05703 0.0
C2832 C 0.23236 0.31574 0.08371 0.0
C2833 C 0.25535 0.31346 0.09852 0.0
C2834 C 0.2232 0.30221 0.08875 0.0
C2835 C 0.21154 0.29911 0.09851 0.0
C2836 C 0.20891 0.30953 0.10337 0.0
C2837 C 0.21804 0.32303 0.09807 0.0
C2838 C 0.22963 0.32609 0.0883 0.0
H2839 H 0.26558 0.31558 0.103 0.0
H2840 H 0.2514 0.31824 0.10758 0.0
H2841 H 0.24816 0.30222 0.09883 0.0
H2842 H 0.22508 0.29406 0.08514 0.0
H2843 H 0.20469 0.28863 0.10245 0.0
H2844 H 0.71354 0.69125 0.35773 0.0
H2845 H 0.72991 0.68546 0.36983 0.0
H2846 H 0.69629 0.646 0.38512 0.0
H2847 H 0.67987 0.65168 0.37311 0.0
H2848 H 0.72972 0.67801 0.40529 0.0
H2849 H 0.72376 0.63735 0.36017 0.0
H2850 H 0.71871 0.64966 0.35487 0.0
H2851 H 0.70799 0.63544 0.36853 0.0
C2852 C 0.70964 0.68128 0.36349 0.0
C2853 C 0.69541 0.67192 0.36446 0.0
C2854 C 0.719 0.678 0.37041 0.0
C2855 C 0.71431 0.66526 0.3782 0.0
C2856 C 0.70013 0.65581 0.37892 0.0
H2857 H 0.75096 0.62612 0.43392 0.0
H2858 H 0.73576 0.63172 0.41827 0.0
C2859 C 0.69076 0.6591 0.37212 0.0
C2860 C 0.72413 0.66213 0.38651 0.0
H2861 H 0.73658 0.64028 0.38533 0.0
C2862 C 0.73133 0.66984 0.40087 0.0
C2863 C 0.72607 0.65139 0.38078 0.0
C2864 C 0.71882 0.64302 0.36516 0.0
C2865 C 0.7402 0.6669 0.40991 0.0
C2866 C 0.74221 0.65617 0.40415 0.0
C2867 C 0.73505 0.64851 0.38972 0.0
C2868 C 0.75157 0.65267 0.41306 0.0
C2869 C 0.74699 0.67502 0.42587 0.0
C2870 C 0.76557 0.66248 0.415 0.0
C2871 C 0.77424 0.65933 0.424 0.0
C2872 C 0.76913 0.64623 0.43102 0.0
C2873 C 0.75521 0.63627 0.42858 0.0
C2874 C 0.74651 0.63947 0.41969 0.0
H2875 H 0.74148 0.68005 0.43111 0.0
H2876 H 0.74743 0.66839 0.43592 0.0
H2877 H 0.75768 0.68316 0.42277 0.0
H2878 H 0.76979 0.67261 0.4096 0.0
H2879 H 0.78498 0.66713 0.42539 0.0
H2880 H 0.29468 0.02236 0.36733 0.0
H2881 H 0.30579 0.04421 0.3825 0.0
H2882 H 0.34381 0.04388 0.38358 0.0
H2883 H 0.33282 0.02202 0.36816 0.0
H2884 H 0.31804 0.04988 0.41464 0.0
H2885 H 0.35543 0.0819 0.36417 0.0
H2886 H 0.34089 0.06509 0.35986 0.0
H2887 H 0.35583 0.06685 0.37026 0.0
C2888 C 0.30542 0.02693 0.3707 0.0
C2889 C 0.31286 0.02043 0.36647 0.0
C2890 C 0.31175 0.03942 0.3794 0.0
C2891 C 0.32565 0.04572 0.38401 0.0
C2892 C 0.33313 0.03929 0.37988 0.0
H2893 H 0.36017 0.11423 0.45707 0.0
H2894 H 0.35447 0.09277 0.44261 0.0
C2895 C 0.32681 0.02677 0.37113 0.0
C2896 C 0.33208 0.05887 0.39348 0.0
H2897 H 0.3563 0.09283 0.39026 0.0
C2898 C 0.32647 0.05927 0.40939 0.0
C2899 C 0.34302 0.07109 0.38651 0.0
C2900 C 0.34911 0.07132 0.3692 0.0
C2901 C 0.33132 0.0716 0.41839 0.0
C2902 C 0.34224 0.08383 0.41141 0.0
C2903 C 0.34801 0.08341 0.39563 0.0
C2904 C 0.34701 0.0973 0.41964 0.0
C2905 C 0.32434 0.07152 0.43495 0.0
C2906 C 0.34521 0.10715 0.41125 0.0
C2907 C 0.34858 0.11945 0.41938 0.0
C2908 C 0.35385 0.12215 0.43608 0.0
C2909 C 0.35618 0.11248 0.4442 0.0
C2910 C 0.3528 0.10016 0.43603 0.0
H2911 H 0.31435 0.06185 0.43671 0.0
H2912 H 0.3311 0.07259 0.44579 0.0
H2913 H 0.32249 0.08024 0.43548 0.0
H2914 H 0.34084 0.10517 0.39855 0.0
H2915 H 0.34692 0.12679 0.41265 0.0
H2916 H 0.97439 0.31651 0.36673 0.0
H2917 H 0.95196 0.30572 0.3811 0.0
H2918 H 0.95035 0.26692 0.3802 0.0
H2919 H 0.97278 0.27758 0.3661 0.0
H2920 H 0.92665 0.28399 0.37039 0.0
H2921 H 0.94333 0.27143 0.43049 0.0
H2922 H 0.95537 0.28333 0.41504 0.0
H2923 H 0.94782 0.26518 0.41189 0.0
C2924 C 0.96928 0.30568 0.36963 0.0
C2925 C 0.97543 0.29792 0.36537 0.0
C2926 C 0.95647 0.29955 0.37782 0.0
C2927 C 0.94964 0.2856 0.38197 0.0
C2928 C 0.95562 0.27778 0.37746 0.0
H2929 H 0.86609 0.2256 0.40147 0.0
H2930 H 0.88825 0.2424 0.38913 0.0
C2931 C 0.96841 0.28388 0.3693 0.0
C2932 C 0.93612 0.27905 0.39072 0.0
H2933 H 0.91904 0.25965 0.42543 0.0
C2934 C 0.92499 0.27881 0.38253 0.0
C2935 C 0.93407 0.27255 0.40672 0.0
C2936 C 0.94581 0.27324 0.41665 0.0
C2937 C 0.91167 0.27162 0.38953 0.0
C2938 C 0.90946 0.26431 0.40493 0.0
C2939 C 0.92073 0.26514 0.41353 0.0
C2940 C 0.8955 0.25503 0.41187 0.0
C2941 C 0.90011 0.27184 0.3803 0.0
C2942 C 0.89227 0.25646 0.42881 0.0
C2943 C 0.87969 0.24673 0.436 0.0
C2944 C 0.87016 0.23534 0.42638 0.0
C2945 C 0.87327 0.23418 0.40926 0.0
C2946 C 0.88585 0.24388 0.4021 0.0
H2947 H 0.90401 0.2812 0.37238 0.0
H2948 H 0.89502 0.26286 0.37163 0.0
H2949 H 0.89228 0.27136 0.38939 0.0
H2950 H 0.89963 0.26493 0.4366 0.0
H2951 H 0.87769 0.24783 0.44929 0.0
H2952 H 0.02388 0.38208 0.33847 0.0
H2953 H 0.02034 0.39993 0.32645 0.0
H2954 H 0.98882 0.37001 0.29342 0.0
H2955 H 0.99204 0.35211 0.30563 0.0
H2956 H 0.02424 0.40829 0.29367 0.0
H2957 H 0.97008 0.3896 0.312 0.0
H2958 H 0.98003 0.38292 0.32138 0.0
H2959 H 0.97201 0.3768 0.3009 0.0
C2960 C 0.01605 0.37928 0.32883 0.0
C2961 C 0.00821 0.36569 0.32303 0.0
C2962 C 0.01405 0.38948 0.32197 0.0
C2963 C 0.00417 0.38626 0.30924 0.0
C2964 C -0.00376 0.37267 0.30356 0.0
H2965 H 0.98682 0.43005 0.23408 0.0
H2966 H 0.9888 0.41332 0.25154 0.0
C2967 C -0.00183 0.36247 0.31047 0.0
C2968 C 0.00282 0.39722 0.30095 0.0
H2969 H 0.97946 0.40643 0.2897 0.0
C2970 C 0.01449 0.40799 0.29301 0.0
C2971 C 0.99009 0.39681 0.30011 0.0
C2972 C 0.97738 0.38598 0.30921 0.0
C2973 C 0.01366 0.41808 0.28376 0.0
C2974 C 0.00085 0.41739 0.28247 0.0
C2975 C 0.98924 0.40682 0.29066 0.0
C2976 C -0.0007 0.42741 0.27231 0.0
C2977 C 0.02636 0.42923 0.275 0.0
C2978 C 0.00444 0.44078 0.27838 0.0
C2979 C 0.00319 0.45032 0.26855 0.0
C2980 C -0.00317 0.44665 0.25244 0.0
C2981 C 0.99161 0.43317 0.24651 0.0
C2982 C 0.99278 0.42362 0.2564 0.0
H2983 H 0.03515 0.42744 0.27563 0.0
H2984 H 0.02414 0.43 0.26139 0.0
H2985 H 0.02946 0.43922 0.28118 0.0
H2986 H 0.0094 0.44381 0.29072 0.0
H2987 H 0.00711 0.46053 0.27364 0.0
H2988 H 0.60887 0.6421 0.3178 0.0
H2989 H 0.59773 0.62039 0.30233 0.0
H2990 H 0.63593 0.62039 0.30126 0.0
H2991 H 0.64719 0.6421 0.317 0.0
H2992 H 0.60432 0.61456 0.27023 0.0
H2993 H 0.60832 0.58246 0.32064 0.0
H2994 H 0.61108 0.59933 0.32493 0.0
H2995 H 0.62424 0.59741 0.31452 0.0
C2996 C 0.61493 0.6375 0.31435 0.0
C2997 C 0.62893 0.64384 0.31872 0.0
C2998 C 0.60854 0.62508 0.30547 0.0
C2999 C 0.61596 0.61871 0.30081 0.0
C3000 C 0.62995 0.62502 0.305 0.0
H3001 H 0.58151 0.55039 0.22753 0.0
H3002 H 0.59737 0.57188 0.24209 0.0
C3003 C 0.63638 0.63746 0.31392 0.0
C3004 C 0.60896 0.60555 0.29134 0.0
H3005 H 0.59841 0.57158 0.29447 0.0
C3006 C 0.6031 0.60517 0.27546 0.0
C3007 C 0.60731 0.59332 0.29829 0.0
C3008 C 0.61296 0.59304 0.31559 0.0
C3009 C 0.59543 0.59285 0.26643 0.0
C3010 C 0.59378 0.58061 0.27336 0.0
C3011 C 0.59981 0.58101 0.28914 0.0
C3012 C 0.58497 0.56715 0.26503 0.0
C3013 C 0.5887 0.59295 0.24989 0.0
C3014 C 0.57304 0.55717 0.27338 0.0
C3015 C 0.56405 0.54485 0.26519 0.0
C3016 C 0.56684 0.54225 0.24849 0.0
C3017 C 0.57909 0.55205 0.24041 0.0
C3018 C 0.58809 0.56439 0.24864 0.0
H3019 H 0.58854 0.60258 0.24822 0.0
H3020 H 0.59453 0.59199 0.23903 0.0
H3021 H 0.57797 0.58418 0.24929 0.0
H3022 H 0.57048 0.55906 0.28608 0.0
H3023 H 0.55484 0.53741 0.27188 0.0
H3024 H 0.34647 0.96959 0.32958 0.0
H3025 H 0.36802 0.97352 0.31664 0.0
H3026 H 0.37622 0.01261 0.2978 0.0
H3027 H 0.35472 0.00879 0.31064 0.0
H3028 H 0.37442 0.97846 0.28048 0.0
H3029 H 0.41269 0.02072 0.32149 0.0
H3030 H 0.39508 0.00941 0.32814 0.0
H3031 H 0.39913 0.02298 0.31333 0.0
C3032 C 0.35294 0.9791 0.32286 0.0
C3033 C 0.3489 0.98889 0.32113 0.0
C3034 C 0.36522 0.98131 0.31546 0.0
C3035 C 0.37373 0.9934 0.30641 0.0
C3036 C 0.36987 0.0033 0.30494 0.0
H3037 H 0.43652 0.01142 0.23016 0.0
H3038 H 0.41647 0.0082 0.2465 0.0
C3039 C 0.35755 0.00107 0.31223 0.0
C3040 C 0.38624 0.99532 0.29761 0.0
H3041 H 0.42124 0.01568 0.29635 0.0
C3042 C 0.38467 0.98655 0.28399 0.0
C3043 C 0.39957 0.00584 0.30231 0.0
C3044 C 0.40181 0.01523 0.3172 0.0
C3045 C 0.39609 0.98821 0.27468 0.0
C3046 C 0.40938 -0.00105 0.27909 0.0
C3047 C 0.411 0.00753 0.29295 0.0
C3048 C 0.42172 0.00135 0.26943 0.0
C3049 C 0.39389 0.97844 0.26024 0.0
C3050 C 0.43139 -0.00119 0.27707 0.0
C3051 C 0.44283 0.00063 0.26778 0.0
C3052 C 0.44485 0.00517 0.25075 0.0
C3053 C 0.43528 0.008 0.24328 0.0
C3054 C 0.42379 0.00608 0.25254 0.0
H3055 H 0.38342 0.96921 0.26058 0.0
H3056 H 0.39521 0.98371 0.24788 0.0
H3057 H 0.40161 0.97514 0.26073 0.0
H3058 H 0.42997 0.99522 0.29013 0.0
H3059 H 0.45011 -0.00148 0.27393 0.0
H3060 H 0.63642 0.99489 0.31925 0.0
H3061 H 0.6223 0.00233 0.30445 0.0
H3062 H 0.58994 0.96023 0.29873 0.0
H3063 H 0.60378 0.95272 0.31373 0.0
H3064 H 0.61142 0.99639 0.27198 0.0
H3065 H 0.56965 0.97758 0.32031 0.0
H3066 H 0.58603 0.97903 0.32456 0.0
H3067 H 0.57292 0.96446 0.31309 0.0
C3068 C 0.62627 0.98722 0.31489 0.0
C3069 C 0.62118 0.97321 0.31781 0.0
C3070 C 0.61824 0.99149 0.30644 0.0
C3071 C 0.60498 0.98185 0.30081 0.0
C3072 C 0.6 0.96787 0.30337 0.0
H3073 H 0.54076 0.97889 0.24032 0.0
H3074 H 0.55694 0.97482 0.25609 0.0
C3075 C 0.60797 0.96359 0.31187 0.0
C3076 C 0.59637 0.9863 0.29195 0.0
H3077 H 0.56473 0.98337 0.29297 0.0
C3078 C 0.60128 0.9937 0.27666 0.0
C3079 C 0.58318 0.98284 0.29815 0.0
C3080 C 0.57768 0.97567 0.31502 0.0
C3081 C 0.5931 -0.00276 0.26707 0.0
C3082 C 0.57974 0.99333 0.27299 0.0
C3083 C 0.57496 0.98625 0.28845 0.0
C3084 C 0.57034 0.99605 0.26303 0.0
C3085 C 0.59855 0.00476 0.25041 0.0
C3086 C 0.57256 0.00935 0.2618 0.0
C3087 C 0.56323 0.0117 0.25298 0.0
C3088 C 0.55154 0.00078 0.24525 0.0
C3089 C 0.54951 0.98749 0.24637 0.0
C3090 C 0.55878 0.98516 0.25526 0.0
H3091 H 0.60844 0.00557 0.24658 0.0
H3092 H 0.59092 -0.00053 0.24009 0.0
H3093 H 0.60023 0.01525 0.25169 0.0
H3094 H 0.58136 0.01785 0.26792 0.0
H3095 H 0.56501 0.02202 0.25256 0.0
H3096 H 0.98952 0.64219 0.30891 0.0
H3097 H 0.98594 0.6212 0.29527 0.0
H3098 H 0.02238 0.62625 0.31964 0.0
H3099 H 0.026 0.64724 0.3335 0.0
H3100 H 0.0045 0.61977 0.2728 0.0
H3101 H 0.99346 0.58583 0.3288 0.0
H3102 H 0.99246 0.60121 0.32978 0.0
H3103 H 0.00889 0.60229 0.33049 0.0
C3104 C -0.00331 0.63875 0.31156 0.0
C3105 C 0.00805 0.64638 0.32228 0.0
C3106 C 0.99462 0.62676 0.30374 0.0
C3107 C 0.00382 0.62212 0.30656 0.0
C3108 C 0.01503 0.62954 0.31753 0.0
H3109 H 0.01741 0.56785 0.24192 0.0
H3110 H 0.01932 0.58717 0.25833 0.0
C3111 C 0.01711 0.64156 0.32537 0.0
C3112 C 0.00216 0.61003 0.29712 0.0
H3113 H -0.00289 0.57791 0.30218 0.0
C3114 C 0.00284 0.6106 0.27921 0.0
C3115 C -0.00013 0.59805 0.30553 0.0
C3116 C -0.00151 0.59669 0.3247 0.0
C3117 C 0.00149 0.59957 0.26948 0.0
C3118 C -0.0004 0.58774 0.2779 0.0
C3119 C -0.00132 0.58706 0.29579 0.0
C3120 C -0.00147 0.57597 0.26831 0.0
C3121 C 0.00196 0.60059 0.25025 0.0
C3122 C 0.9863 0.56322 0.26878 0.0
C3123 C 0.9852 0.55214 0.25951 0.0
C3124 C -0.00363 0.55361 0.24971 0.0
C3125 C 0.00867 0.56637 0.24944 0.0
C3126 C 0.00974 0.57744 0.25868 0.0
H3127 H 0.00016 0.60883 0.24578 0.0
H3128 H 0.01226 0.60297 0.24562 0.0
H3129 H 0.99415 0.59075 0.24438 0.0
H3130 H 0.97757 0.56188 0.27623 0.0
H3131 H 0.97567 0.54239 0.26015 0.0
H3132 H 0.35061 0.38627 0.31068 0.0
H3133 H 0.37263 0.39873 0.29571 0.0
H3134 H 0.38003 0.36559 0.30496 0.0
H3135 H 0.35783 0.35287 0.31972 0.0
H3136 H 0.39834 0.40751 0.30863 0.0
H3137 H 0.38774 0.37208 0.25391 0.0
H3138 H 0.37428 0.37088 0.2677 0.0
H3139 H 0.385 0.36437 0.27463 0.0
C3140 C 0.35685 0.38155 0.30946 0.0
C3141 C 0.35242 0.36854 0.31638 0.0
C3142 C 0.36945 0.38871 0.30089 0.0
C3143 C 0.3779 0.38302 0.29903 0.0
C3144 C 0.37355 0.37005 0.30593 0.0
H3145 H 0.46071 0.41996 0.25432 0.0
H3146 H 0.43915 0.40447 0.2693 0.0
C3147 C 0.36088 0.36283 0.31445 0.0
C3148 C 0.39147 0.39101 0.29043 0.0
H3149 H 0.41032 0.39122 0.25594 0.0
C3150 C 0.40096 0.40393 0.29713 0.0
C3151 C 0.39489 0.38629 0.27547 0.0
C3152 C 0.38492 0.3727 0.26738 0.0
C3153 C 0.41371 0.41231 0.28917 0.0
C3154 C 0.41701 0.40771 0.27405 0.0
C3155 C 0.40771 0.39467 0.26756 0.0
C3156 C 0.42979 0.41666 0.26438 0.0
C3157 C 0.42358 0.42607 0.29696 0.0
C3158 C 0.43149 0.42844 0.25639 0.0
C3159 C 0.44369 0.43722 0.24772 0.0
C3160 C 0.45448 0.43441 0.2469 0.0
C3161 C 0.45259 0.42239 0.25461 0.0
C3162 C 0.44032 0.41356 0.26323 0.0
H3163 H 0.42092 0.42676 0.31048 0.0
H3164 H 0.4343 0.42812 0.29637 0.0
H3165 H 0.42318 0.4342 0.28964 0.0
H3166 H 0.42337 0.43087 0.2569 0.0
H3167 H 0.44464 0.4462 0.2416 0.0
H3168 H 0.31102 0.28491 0.35362 0.0
H3169 H 0.31726 0.26937 0.36709 0.0
H3170 H 0.35209 0.30378 0.39092 0.0
H3171 H 0.34594 0.31937 0.37762 0.0
H3172 H 0.3429 0.26902 0.36593 0.0
H3173 H 0.32913 0.27812 0.43104 0.0
H3174 H 0.32351 0.28261 0.4119 0.0
H3175 H 0.34084 0.29325 0.4193 0.0
C3176 C 0.32006 0.28918 0.36163 0.0
C3177 C 0.32793 0.30336 0.36465 0.0
C3178 C 0.32362 0.28029 0.36929 0.0
C3179 C 0.33501 0.28543 0.38017 0.0
C3180 C 0.34314 0.29961 0.38276 0.0
H3181 H 0.37364 0.24256 0.42345 0.0
H3182 H 0.36891 0.25843 0.40796 0.0
C3183 C 0.33963 0.30849 0.37509 0.0
C3184 C 0.33818 0.27596 0.38925 0.0
H3185 H 0.33952 0.26456 0.42904 0.0
C3186 C 0.34218 0.26803 0.37972 0.0
C3187 C 0.33707 0.27461 0.40723 0.0
C3188 C 0.3323 0.2825 0.41801 0.0
C3189 C 0.34526 0.25887 0.38775 0.0
C3190 C 0.34441 0.25773 0.40576 0.0
C3191 C 0.34027 0.26556 0.41525 0.0
C3192 C 0.34736 0.24816 0.41501 0.0
C3193 C 0.34915 0.2503 0.37692 0.0
C3194 C 0.33689 0.23733 0.42439 0.0
C3195 C 0.33957 0.22832 0.43331 0.0
C3196 C 0.35282 0.23003 0.43314 0.0
C3197 C 0.36335 0.24101 0.4239 0.0
C3198 C 0.36063 0.25 0.4149 0.0
H3199 H 0.34647 0.25022 0.36328 0.0
H3200 H 0.36043 0.25457 0.37772 0.0
H3201 H 0.34394 0.23959 0.38161 0.0
H3202 H 0.3266 0.23581 0.42474 0.0
H3203 H 0.33129 0.2201 0.44052 0.0
H3204 H 0.7073 0.02069 0.35202 0.0
H3205 H 0.72266 0.04356 0.36378 0.0
H3206 H 0.68756 0.04549 0.38211 0.0
H3207 H 0.67213 0.02267 0.37036 0.0
H3208 H 0.70904 0.07024 0.36582 0.0
H3209 H 0.72842 0.05018 0.41637 0.0
H3210 H 0.72949 0.0451 0.39488 0.0
H3211 H 0.71293 0.0393 0.40447 0.0
C3212 C 0.70285 0.02603 0.35842 0.0
C3213 C 0.6885 0.01983 0.36037 0.0
C3214 C 0.71163 0.03906 0.36518 0.0
C3215 C 0.70622 0.0461 0.37399 0.0
C3216 C 0.69191 0.04018 0.3754 0.0
H3217 H 0.7479 0.11335 0.44553 0.0
H3218 H 0.7316 0.0921 0.43087 0.0
C3219 C 0.68313 0.02714 0.3687 0.0
C3220 C 0.71546 0.05943 0.3823 0.0
H3221 H 0.7388 0.07422 0.41446 0.0
C3222 C 0.71557 0.07115 0.37644 0.0
C3223 C 0.72379 0.06049 0.39629 0.0
C3224 C 0.72363 0.04811 0.40352 0.0
C3225 C 0.72398 0.08399 0.3841 0.0
C3226 C 0.73252 0.08509 0.39787 0.0
C3227 C 0.73227 0.07333 0.40384 0.0
C3228 C 0.74183 0.09833 0.40632 0.0
C3229 C 0.72351 0.09624 0.37761 0.0
C3230 C 0.75294 0.10886 0.39733 0.0
C3231 C 0.76224 0.12101 0.40566 0.0
C3232 C 0.76061 0.12283 0.42313 0.0
C3233 C 0.74933 0.11233 0.43202 0.0
C3234 C 0.74007 0.10017 0.4237 0.0
H3235 H 0.71421 0.09316 0.36976 0.0
H3236 H 0.72364 0.10272 0.38838 0.0
H3237 H 0.73272 0.10254 0.36952 0.0
H3238 H 0.75459 0.10757 0.38398 0.0
H3239 H 0.77077 0.12895 0.39844 0.0
H3240 H 0.97336 0.66104 0.36654 0.0
H3241 H 0.95017 0.64922 0.37901 0.0
H3242 H 0.94988 0.68708 0.37925 0.0
H3243 H 0.97289 0.69895 0.36673 0.0
H3244 H 0.94141 0.65507 0.4102 0.0
H3245 H 0.91371 0.66017 0.3553 0.0
H3246 H 0.93078 0.6626 0.35337 0.0
H3247 H 0.92843 0.67615 0.36152 0.0
C3248 C 0.96833 0.66684 0.36918 0.0
C3249 C 0.97497 0.68094 0.36556 0.0
C3250 C 0.95509 0.66006 0.37629 0.0
C3251 C 0.94824 0.66723 0.37974 0.0
C3252 C 0.95488 0.6813 0.37632 0.0
H3253 H 0.8801 0.66273 0.4304 0.0
H3254 H 0.90064 0.66763 0.41412 0.0
C3255 C 0.96809 0.68808 0.36926 0.0
C3256 C 0.93435 0.66026 0.38757 0.0
H3257 H 0.90208 0.65515 0.38243 0.0
C3258 C 0.93271 0.65483 0.40405 0.0
C3259 C 0.92305 0.65991 0.37942 0.0
C3260 C 0.92401 0.6649 0.36135 0.0
C3261 C 0.92026 0.64984 0.41303 0.0
C3262 C 0.90919 0.65016 0.40519 0.0
C3263 C 0.91063 0.65498 0.38841 0.0
C3264 C 0.8965 0.6468 0.41472 0.0
C3265 C 0.91925 0.64495 0.43115 0.0
C3266 C 0.88731 0.63342 0.42026 0.0
C3267 C 0.87555 0.63059 0.42966 0.0
C3268 C 0.87288 0.64112 0.43366 0.0
C3269 C 0.88201 0.65445 0.42779 0.0
C3270 C 0.89369 0.65725 0.41838 0.0
H3271 H 0.92937 0.6472 0.43616 0.0
H3272 H 0.91505 0.64982 0.43968 0.0
H3273 H 0.91209 0.63371 0.43163 0.0
H3274 H 0.88925 0.6252 0.41737 0.0
H3275 H 0.8687 0.62023 0.43406 0.0
H3276 H 0.35107 0.98923 0.70147 0.0
H3277 H 0.36848 0.98554 0.71464 0.0
H3278 H 0.39868 0.02837 0.70842 0.0
H3279 H 0.38142 0.03201 0.69459 0.0
H3280 H 0.40981 0.01305 0.70178 0.0
H3281 H 0.38106 0.99599 0.7629 0.0
H3282 H 0.37125 0.9855 0.74525 0.0
H3283 H 0.3761 0.00328 0.74598 0.0
C3284 C 0.36145 -0.00216 0.70279 0.0
C3285 C 0.36486 0.01094 0.69713 0.0
C3286 C 0.37137 0.99574 0.71045 0.0
C3287 C 0.3848 0.00675 0.71298 0.0
C3288 C 0.38836 0.01974 0.70674 0.0
H3289 H 0.44067 0.00577 0.78759 0.0
H3290 H 0.4249 0.01002 0.77134 0.0
C3291 C 0.37849 0.02181 0.69883 0.0
C3292 C 0.39506 0.00478 0.72237 0.0
H3293 H 0.40033 0.99299 0.75988 0.0
C3294 C 0.40777 0.00872 0.71452 0.0
C3295 C 0.39251 -0.00063 0.73913 0.0
C3296 C 0.37955 0.99593 0.74888 0.0
C3297 C 0.41791 0.00722 0.72286 0.0
C3298 C 0.4151 0.00123 0.73931 0.0
C3299 C 0.40245 -0.00256 0.74721 0.0
C3300 C 0.42519 -0.00097 0.74878 0.0
C3301 C 0.43164 0.01243 0.71411 0.0
C3302 C 0.4306 0.99138 0.74159 0.0
C3303 C 0.43991 0.9892 0.75073 0.0
C3304 C 0.44383 0.9944 0.76741 0.0
C3305 C 0.43818 0.00186 0.77466 0.0
C3306 C 0.42903 0.00419 0.76543 0.0
H3307 H 0.43362 0.02037 0.70445 0.0
H3308 H 0.4402 0.01684 0.72345 0.0
H3309 H 0.43167 0.00381 0.70738 0.0
H3310 H 0.42753 0.98697 0.72895 0.0
H3311 H 0.44411 0.98351 0.74463 0.0
H3312 H 0.95544 0.34862 0.69381 0.0
H3313 H 0.96341 0.36943 0.7107 0.0
H3314 H 0.00385 0.37442 0.71358 0.0
H3315 H -0.00399 0.3536 0.69647 0.0
H3316 H 0.97445 0.37449 0.74393 0.0
H3317 H 0.01118 0.41207 0.6968 0.0
H3318 H -0.00178 0.39486 0.69088 0.0
H3319 H 0.0135 0.39791 0.70168 0.0
C3320 C 0.96606 0.35415 0.69793 0.0
C3321 C 0.97509 0.34944 0.69373 0.0
C3322 C 0.97058 0.36604 0.70762 0.0
C3323 C 0.98424 0.37352 0.71326 0.0
C3324 C 0.99332 0.3689 0.70912 0.0
H3325 H 0.01005 0.43753 0.79168 0.0
H3326 H 0.00659 0.41746 0.77551 0.0
C3327 C 0.9888 0.35697 0.69941 0.0
C3328 C 0.98874 0.38596 0.72379 0.0
H3329 H 0.00954 0.42075 0.72363 0.0
C3330 C 0.98219 0.38461 0.73957 0.0
C3331 C -0.00124 0.39912 0.71797 0.0
C3332 C 0.00578 0.40118 0.70086 0.0
C3333 C 0.98524 0.3961 0.7496 0.0
C3334 C -0.00474 0.40927 0.74378 0.0
C3335 C 0.00194 0.41062 0.7281 0.0
C3336 C -0.00176 0.42182 0.75325 0.0
C3337 C 0.97737 0.3941 0.76605 0.0
C3338 C -0.00493 0.43111 0.74589 0.0
C3339 C -0.00289 0.4426 0.75501 0.0
C3340 C 0.00244 0.44507 0.77168 0.0
C3341 C 0.00598 0.43594 0.77885 0.0
C3342 C 0.00391 0.42442 0.7697 0.0
H3343 H 0.96814 0.38368 0.76695 0.0
H3344 H 0.98415 0.39553 0.77701 0.0
H3345 H 0.97405 0.40175 0.76723 0.0
H3346 H 0.99075 0.42931 0.73317 0.0
H3347 H 0.99451 0.44956 0.74901 0.0
H3348 H 0.64026 0.64778 0.70048 0.0
H3349 H 0.61827 0.63691 0.71581 0.0
H3350 H 0.61777 0.59865 0.71588 0.0
H3351 H 0.63983 0.60943 0.70078 0.0
H3352 H 0.59319 0.61481 0.70605 0.0
H3353 H 0.61129 0.60379 0.76613 0.0
H3354 H 0.62296 0.61548 0.75023 0.0
H3355 H 0.61555 0.5973 0.74755 0.0
C3356 C 0.63551 0.63706 0.70381 0.0
C3357 C 0.64184 0.62949 0.69948 0.0
C3358 C 0.62295 0.63088 0.71256 0.0
C3359 C 0.61654 0.61706 0.71722 0.0
C3360 C 0.62272 0.60942 0.71273 0.0
H3361 H 0.53369 0.55687 0.73982 0.0
H3362 H 0.55562 0.57343 0.72674 0.0
C3363 C 0.63529 0.61558 0.70401 0.0
C3364 C 0.60318 0.61046 0.72634 0.0
H3365 H 0.58691 0.59187 0.7619 0.0
C3366 C 0.59182 0.60992 0.71836 0.0
C3367 C 0.6015 0.60435 0.74253 0.0
C3368 C 0.6135 0.60536 0.75221 0.0
C3369 C 0.57867 0.60284 0.7258 0.0
C3370 C 0.57684 0.59595 0.74145 0.0
C3371 C 0.58832 0.59705 0.74981 0.0
C3372 C 0.56305 0.58677 0.74885 0.0
C3373 C 0.56685 0.60272 0.71677 0.0
C3374 C 0.55999 0.58872 0.76567 0.0
C3375 C 0.54752 0.57915 0.77327 0.0
C3376 C 0.53796 0.56743 0.76419 0.0
C3377 C 0.5409 0.56574 0.74718 0.0
C3378 C 0.55336 0.57528 0.73962 0.0
H3379 H 0.57051 0.61181 0.7084 0.0
H3380 H 0.56157 0.59345 0.70858 0.0
H3381 H 0.55924 0.60251 0.72602 0.0
H3382 H 0.56739 0.59746 0.77306 0.0
H3383 H 0.54561 0.58065 0.78646 0.0
H3384 H 0.68636 0.71275 0.66365 0.0
H3385 H 0.68009 0.72837 0.65058 0.0
H3386 H 0.64388 0.69397 0.62896 0.0
H3387 H 0.65009 0.6783 0.6418 0.0
H3388 H 0.66008 0.71425 0.6053 0.0
H3389 H 0.64918 0.73627 0.6627 0.0
H3390 H 0.66548 0.73703 0.66299 0.0
H3391 H 0.64983 0.72069 0.66338 0.0
C3392 C 0.67697 0.70851 0.65629 0.0
C3393 C 0.66873 0.6943 0.65373 0.0
C3394 C 0.67338 0.71744 0.64891 0.0
C3395 C 0.66146 0.7123 0.63895 0.0
C3396 C 0.65309 0.69812 0.63666 0.0
H3397 H 0.62534 0.75746 0.59616 0.0
H3398 H 0.62939 0.74107 0.61152 0.0
C3399 C 0.65666 0.68919 0.64402 0.0
C3400 C 0.65818 0.72169 0.62994 0.0
H3401 H 0.6506 0.74696 0.6361 0.0
C3402 C 0.65795 0.72136 0.61203 0.0
C3403 C 0.65527 0.73084 0.63878 0.0
C3404 C 0.65482 0.73119 0.65803 0.0
C3405 C 0.65514 0.73014 0.60267 0.0
C3406 C 0.65267 0.7396 0.61149 0.0
C3407 C 0.65262 0.73975 0.62941 0.0
C3408 C 0.65026 0.7495 0.60227 0.0
C3409 C 0.65473 0.72916 0.58343 0.0
C3410 C 0.6607 0.75968 0.59213 0.0
C3411 C 0.65842 0.76899 0.58332 0.0
C3412 C 0.64565 0.7683 0.58454 0.0
C3413 C 0.63522 0.75813 0.59481 0.0
C3414 C 0.63754 0.74884 0.60367 0.0
H3415 H 0.65353 0.71932 0.57888 0.0
H3416 H 0.64614 0.73018 0.5783 0.0
H3417 H 0.6645 0.73761 0.57811 0.0
H3418 H 0.67064 0.76043 0.59107 0.0
H3419 H 0.66661 0.77664 0.57541 0.0
H3420 H 0.31506 0.97778 0.64784 0.0
H3421 H 0.30381 0.95565 0.63291 0.0
H3422 H 0.26415 0.95117 0.64318 0.0
H3423 H 0.27519 0.97317 0.65803 0.0
H3424 H 0.2673 0.92726 0.65073 0.0
H3425 H 0.28365 0.94862 0.5852 0.0
H3426 H 0.29661 0.95449 0.60154 0.0
H3427 H 0.28341 0.95883 0.60286 0.0
C3428 C 0.30394 0.97207 0.64694 0.0
C3429 C 0.29603 0.97728 0.65407 0.0
C3430 C 0.29755 0.95946 0.63837 0.0
C3431 C 0.28317 0.95186 0.63688 0.0
C3432 C 0.27526 0.95692 0.64419 0.0
H3433 H 0.22271 0.88721 0.57621 0.0
H3434 H 0.23884 0.90847 0.59089 0.0
C3435 C 0.28162 0.96952 0.65263 0.0
C3436 C 0.27621 0.93863 0.62763 0.0
H3437 H 0.26923 0.92474 0.58756 0.0
C3438 C 0.26784 0.92664 0.63695 0.0
C3439 C 0.27691 0.93796 0.60965 0.0
C3440 C 0.28555 0.95063 0.59911 0.0
C3441 C 0.25989 0.91399 0.62868 0.0
C3442 C 0.26039 0.91335 0.61067 0.0
C3443 C 0.26897 0.92529 0.60138 0.0
C3444 C 0.25118 0.90061 0.60121 0.0
C3445 C 0.25058 0.90148 0.63917 0.0
C3446 C 0.25292 0.88922 0.60199 0.0
C3447 C 0.2437 0.87704 0.59361 0.0
C3448 C 0.23256 0.87605 0.58442 0.0
C3449 C 0.23106 0.88759 0.58341 0.0
C3450 C 0.24031 0.89976 0.59167 0.0
H3451 H 0.25001 0.90407 0.65275 0.0
H3452 H 0.24002 0.89609 0.6338 0.0
H3453 H 0.25451 0.89429 0.63873 0.0
H3454 H 0.26132 0.88974 0.6092 0.0
H3455 H 0.24508 0.8683 0.59465 0.0
H3456 H 0.02007 0.30901 0.6623 0.0
H3457 H 0.04281 0.31529 0.65094 0.0
H3458 H 0.04506 0.34986 0.62516 0.0
H3459 H 0.02248 0.3438 0.63663 0.0
H3460 H 0.04974 0.31655 0.61706 0.0
H3461 H 0.08258 0.36699 0.64789 0.0
H3462 H 0.06532 0.35507 0.65517 0.0
H3463 H 0.06808 0.36583 0.63701 0.0
C3464 C 0.0255 0.31807 0.65442 0.0
C3465 C 0.01948 0.32592 0.65039 0.0
C3466 C 0.03848 0.32163 0.64792 0.0
C3467 C 0.04571 0.33314 0.63739 0.0
C3468 C 0.03981 0.34111 0.63357 0.0
H3469 H 0.10721 0.34912 0.56064 0.0
H3470 H 0.08644 0.34347 0.57699 0.0
C3471 C 0.02685 0.33757 0.64006 0.0
C3472 C 0.05895 0.33628 0.62938 0.0
H3473 H 0.09245 0.36163 0.62406 0.0
C3474 C 0.05911 0.32636 0.61872 0.0
C3475 C 0.07121 0.34902 0.63169 0.0
C3476 C 0.07186 0.35979 0.6437 0.0
C3477 C 0.07108 0.32899 0.6099 0.0
C3478 C 0.08315 0.34198 0.61155 0.0
C3479 C 0.08313 0.35174 0.62264 0.0
C3480 C 0.09583 0.34566 0.60169 0.0
C3481 C 0.07071 0.31783 0.59893 0.0
C3482 C 0.1081 0.34915 0.61016 0.0
C3483 C 0.12 0.35239 0.60085 0.0
C3484 C 0.11986 0.35227 0.58287 0.0
C3485 C 0.1076 0.34904 0.57445 0.0
C3486 C 0.09572 0.34582 0.58377 0.0
H3487 H 0.06212 0.30755 0.60267 0.0
H3488 H 0.06917 0.31958 0.58541 0.0
H3489 H 0.08053 0.31783 0.59977 0.0
H3490 H 0.10841 0.34914 0.62399 0.0
H3491 H 0.12924 0.35472 0.60772 0.0
H3492 H 0.26899 0.29239 0.64979 0.0
H3493 H 0.25661 0.30187 0.63535 0.0
H3494 H 0.29261 0.34224 0.63803 0.0
H3495 H 0.30521 0.33283 0.65228 0.0
H3496 H 0.25106 0.32187 0.64694 0.0
H3497 H 0.28246 0.33829 0.58737 0.0
H3498 H 0.28327 0.32678 0.6025 0.0
H3499 H 0.292 0.34484 0.60682 0.0
C3500 C 0.27432 0.30328 0.64729 0.0
C3501 C 0.28813 0.31183 0.65213 0.0
C3502 C 0.26721 0.30868 0.63904 0.0
C3503 C 0.27375 0.32272 0.63542 0.0
C3504 C 0.28747 0.33133 0.64041 0.0
H3505 H 0.2422 0.36923 0.58367 0.0
H3506 H 0.25652 0.36281 0.59997 0.0
C3507 C 0.29462 0.32594 0.64863 0.0
C3508 C 0.26606 0.32827 0.62665 0.0
H3509 H 0.26497 0.34381 0.58997 0.0
C3510 C 0.25411 0.32669 0.6345 0.0
C3511 C 0.27011 0.3346 0.61045 0.0
C3512 C 0.28259 0.33616 0.60118 0.0
C3513 C 0.24604 0.3312 0.62653 0.0
C3514 C 0.24994 0.33727 0.6102 0.0
C3515 C 0.26204 0.33914 0.6025 0.0
C3516 C 0.24125 0.34121 0.60058 0.0
C3517 C 0.23344 0.32948 0.63568 0.0
C3518 C 0.22802 0.33116 0.5954 0.0
C3519 C 0.21983 0.33479 0.58613 0.0
C3520 C 0.22475 0.34854 0.58183 0.0
C3521 C 0.23807 0.35858 0.58697 0.0
C3522 C 0.24627 0.35493 0.59619 0.0
H3523 H 0.2339 0.32806 0.64964 0.0
H3524 H 0.23223 0.33848 0.63359 0.0
H3525 H 0.22418 0.32028 0.6306 0.0
H3526 H 0.22404 0.32049 0.59844 0.0
H3527 H 0.20959 0.32683 0.58248 0.0
H3528 H 0.6526 0.97329 0.64119 0.0
H3529 H 0.64592 0.95089 0.62903 0.0
H3530 H 0.68192 0.95302 0.65089 0.0
H3531 H 0.68864 0.97544 0.66328 0.0
H3532 H 0.6618 0.94619 0.6056 0.0
H3533 H 0.65074 0.91423 0.66359 0.0
H3534 H 0.65162 0.93059 0.66395 0.0
H3535 H 0.66715 0.92985 0.66365 0.0
C3536 C 0.65901 0.96893 0.64363 0.0
C3537 C 0.67117 0.97615 0.65318 0.0
C3538 C 0.65518 0.95613 0.63666 0.0
C3539 C 0.66336 0.95026 0.63918 0.0
C3540 C 0.67533 0.95727 0.64905 0.0
H3541 H 0.66754 0.88947 0.57672 0.0
H3542 H 0.67188 0.91006 0.59224 0.0
C3543 C 0.6792 0.97011 0.65604 0.0
C3544 C 0.65987 0.93729 0.63042 0.0
H3545 H 0.65196 0.90436 0.63719 0.0
C3546 C 0.65959 0.93702 0.6125 0.0
C3547 C 0.65687 0.92533 0.63948 0.0
C3548 C 0.65647 0.92491 0.65874 0.0
C3549 C 0.65663 0.92517 0.60336 0.0
C3550 C 0.65407 0.91335 0.6124 0.0
C3551 C 0.65406 0.9135 0.63033 0.0
C3552 C 0.65149 0.90077 0.60339 0.0
C3553 C 0.65618 0.92536 0.58411 0.0
C3554 C 0.63868 0.88868 0.60481 0.0
C3555 C 0.63618 0.87688 0.59601 0.0
C3556 C 0.64652 0.87695 0.58579 0.0
C3557 C 0.6594 0.88905 0.5846 0.0
C3558 C 0.66187 0.90085 0.59334 0.0
H3559 H 0.65511 0.93398 0.57938 0.0
H3560 H 0.66588 0.92656 0.57883 0.0
H3561 H 0.64749 0.91561 0.57913 0.0
H3562 H 0.63057 0.88843 0.6126 0.0
H3563 H 0.62621 0.86766 0.59735 0.0
H3564 H 0.01604 0.71709 0.6457 0.0
H3565 H 0.03865 0.7294 0.63216 0.0
H3566 H 0.04415 0.69494 0.64051 0.0
H3567 H 0.02132 0.68237 0.65387 0.0
H3568 H 0.06363 0.73669 0.64675 0.0
H3569 H 0.05405 0.70334 0.58997 0.0
H3570 H 0.04027 0.70219 0.60306 0.0
H3571 H 0.05016 0.69484 0.61028 0.0
C3572 C 0.02198 0.71205 0.64458 0.0
C3573 C 0.01683 0.69871 0.65087 0.0
C3574 C 0.03493 0.71912 0.63684 0.0
C3575 C 0.04303 0.71304 0.63516 0.0
C3576 C 0.03796 0.69973 0.64137 0.0
H3577 H 0.12701 0.75086 0.59304 0.0
H3578 H 0.10526 0.73488 0.60735 0.0
C3579 C 0.02494 0.69259 0.64909 0.0
C3580 C 0.05697 0.72098 0.62747 0.0
H3581 H 0.07657 0.72224 0.59325 0.0
C3582 C 0.06647 0.73349 0.63509 0.0
C3583 C 0.06068 0.71675 0.61231 0.0
C3584 C 0.05075 0.7036 0.6033 0.0
C3585 C 0.07948 0.74201 0.62781 0.0
C3586 C 0.08304 0.73797 0.61242 0.0
C3587 C 0.07376 0.72527 0.60506 0.0
C3588 C 0.09599 0.74726 0.60327 0.0
C3589 C 0.0893 0.75535 0.63653 0.0
C3590 C 0.09781 0.75933 0.596 0.0
C3591 C 0.11011 0.76838 0.58771 0.0
C3592 C 0.12088 0.76558 0.58656 0.0
C3593 C 0.11891 0.7533 0.5936 0.0
C3594 C 0.10653 0.74419 0.60184 0.0
H3595 H 0.08638 0.75547 0.65008 0.0
H3596 H 0.09998 0.75728 0.63603 0.0
H3597 H 0.08917 0.76387 0.62981 0.0
H3598 H 0.08969 0.76175 0.59674 0.0
H3599 H 0.11112 0.77755 0.58208 0.0
H3600 H 0.00478 0.64602 0.71095 0.0
H3601 H 0.00875 0.629 0.72454 0.0
H3602 H 0.97318 0.59662 0.69914 0.0
H3603 H 0.96916 0.6136 0.68536 0.0
H3604 H 0.99001 0.60815 0.74645 0.0
H3605 H 0.00335 0.58691 0.69028 0.0
H3606 H 0.00386 0.60308 0.68967 0.0
H3607 H 0.98769 0.58728 0.68832 0.0
C3608 C -0.00211 0.63529 0.70806 0.0
C3609 C 0.98665 0.63116 0.69706 0.0
C3610 C 0.00017 0.62558 0.71587 0.0
C3611 C 0.99133 0.61157 0.71274 0.0
C3612 C 0.98025 0.6074 0.70151 0.0
H3613 H 0.98005 0.54406 0.77617 0.0
H3614 H 0.97717 0.56074 0.75981 0.0
C3615 C 0.97794 0.61712 0.69371 0.0
C3616 C 0.99326 0.60134 0.72206 0.0
H3617 H -8e-05 0.57535 0.71667 0.0
C3618 C 0.99221 0.601 0.73995 0.0
C3619 C -0.00377 0.5921 0.71354 0.0
C3620 C -0.00202 0.59238 0.6944 0.0
C3621 C 0.99388 0.59155 0.74955 0.0
C3622 C -0.00347 0.5821 0.74102 0.0
C3623 C -0.00222 0.58255 0.72315 0.0
C3624 C -0.00184 0.57175 0.75049 0.0
C3625 C 0.99299 0.59186 0.76878 0.0
C3626 C 0.01084 0.57226 0.75037 0.0
C3627 C 0.01251 0.56271 0.75965 0.0
C3628 C 0.00147 0.5524 0.76909 0.0
C3629 C 0.98872 0.55181 0.76894 0.0
C3630 C 0.98708 0.56139 0.75972 0.0
H3631 H 0.99403 0.60161 0.77346 0.0
H3632 H 0.98283 0.58333 0.77305 0.0
H3633 H 0.0011 0.5905 0.77477 0.0
H3634 H 0.01949 0.58014 0.74325 0.0
H3635 H 0.0224 0.56332 0.75931 0.0
H3636 H 0.37362 0.35529 0.68238 0.0
H3637 H 0.3899 0.3775 0.69518 0.0
H3638 H 0.35659 0.3775 0.7225 0.0
H3639 H 0.34027 0.35533 0.70988 0.0
H3640 H 0.39017 0.40335 0.69513 0.0
H3641 H 0.38435 0.38129 0.75997 0.0
H3642 H 0.37888 0.37087 0.74089 0.0
H3643 H 0.36854 0.37733 0.74972 0.0
C3644 C 0.36975 0.36007 0.69101 0.0
C3645 C 0.35568 0.35351 0.69522 0.0
C3646 C 0.37906 0.37275 0.69829 0.0
C3647 C 0.37444 0.379 0.70995 0.0
C3648 C 0.36036 0.37271 0.71372 0.0
H3649 H 0.41817 0.46138 0.75258 0.0
H3650 H 0.40205 0.44029 0.73744 0.0
C3651 C 0.35105 0.36008 0.70644 0.0
C3652 C 0.38439 0.39192 0.71859 0.0
H3653 H 0.39757 0.40543 0.75774 0.0
C3654 C 0.39183 0.40384 0.70881 0.0
C3655 C 0.3866 0.39243 0.7364 0.0
C3656 C 0.37928 0.37979 0.74739 0.0
C3657 C 0.4013 0.41636 0.71646 0.0
C3658 C 0.40325 0.41693 0.73433 0.0
C3659 C 0.39595 0.40496 0.74405 0.0
C3660 C 0.41305 0.42979 0.74321 0.0
C3661 C 0.40929 0.42883 0.70536 0.0
C3662 C 0.42439 0.43075 0.75173 0.0
C3663 C 0.43354 0.44272 0.76047 0.0
C3664 C 0.43146 0.45393 0.76095 0.0
C3665 C 0.42001 0.4529 0.75251 0.0
C3666 C 0.41088 0.44092 0.74371 0.0
H3667 H 0.40887 0.42606 0.69165 0.0
H3668 H 0.40486 0.43556 0.70674 0.0
H3669 H 0.42024 0.43478 0.70934 0.0
H3670 H 0.42616 0.42222 0.75161 0.0
H3671 H 0.44213 0.44311 0.76706 0.0
H3672 H 0.64775 0.03882 0.69601 0.0
H3673 H 0.62588 0.03002 0.71112 0.0
H3674 H 0.62069 0.98964 0.71156 0.0
H3675 H 0.64272 -0.00161 0.69661 0.0
H3676 H 0.59973 0.00922 0.70077 0.0
H3677 H 0.61534 0.99639 0.76192 0.0
H3678 H 0.62769 0.00719 0.74598 0.0
H3679 H 0.61797 0.98896 0.74298 0.0
C3680 C 0.64201 0.02807 0.69934 0.0
C3681 C 0.64703 0.01932 0.69516 0.0
C3682 C 0.6295 0.02306 0.70796 0.0
C3683 C 0.62177 0.00923 0.71262 0.0
C3684 C 0.62663 0.00041 0.70834 0.0
H3685 H 0.54389 0.9689 0.77002 0.0
H3686 H 0.56375 0.97273 0.75266 0.0
C3687 C 0.63919 0.00542 0.69973 0.0
C3688 C 0.60853 0.00414 0.72175 0.0
H3689 H 0.59246 0.99159 0.76006 0.0
C3690 C 0.5981 0.00529 0.71369 0.0
C3691 C 0.60644 -0.00105 0.73857 0.0
C3692 C 0.61746 -0.00214 0.74798 0.0
C3693 C 0.58571 0.00162 0.72214 0.0
C3694 C 0.5838 -0.00314 0.73914 0.0
C3695 C 0.59401 0.99526 0.74701 0.0
C3696 C 0.57168 0.9944 0.74934 0.0
C3697 C 0.57479 0.00297 0.71286 0.0
C3698 C 0.56972 0.00536 0.75332 0.0
C3699 C 0.55846 0.00322 0.76318 0.0
C3700 C 0.54896 0.99008 0.7693 0.0
C3701 C 0.55097 0.97911 0.76533 0.0
C3702 C 0.56231 0.98128 0.75551 0.0
H3703 H 0.57619 0.00312 0.69878 0.0
H3704 H 0.56434 0.99443 0.71618 0.0
H3705 H 0.57544 0.01272 0.71668 0.0
H3706 H 0.57697 0.0156 0.74887 0.0
H3707 H 0.55711 0.01185 0.76589 0.0
loop_
_geom_bond_atom_site_label_1
_geom_bond_atom_site_label_2
_geom_bond_distance
_geom_bond_site_symmetry_2
_ccdc_geom_bond_type
C0 O1 1.306 1_556 S
C0 O3 1.160 . S
O1 C0 1.306 1_554 S
O1 Cd2 2.228 . S
Cd2 O1 2.228 . S
Cd2 O6 2.273 . S
Cd2 O10 2.277 1_554 S
O3 C0 1.160 . S
O3 Cd4 2.203 1_656 S
Cd4 O3 2.203 1_454 S
Cd4 O6 2.411 1_455 S
Cd4 O7 2.333 . S
Cd4 O8 2.352 . S
Cd4 O12 2.277 1_554 S
Cd4 O13 2.356 . S
C5 O10 1.209 1_455 S
C5 O12 1.226 . S
O6 Cd2 2.273 . S
O6 Cd4 2.411 1_655 S
O6 C9 1.320 1_655 S
O7 Cd4 2.333 . S
O7 C9 1.214 . S
O8 Cd4 2.352 . S
O8 C11 1.258 . S
C9 O6 1.320 1_455 S
C9 O7 1.214 . S
O10 Cd2 2.277 1_556 S
O10 C5 1.209 1_655 S
C11 O8 1.258 . S
C11 O13 1.282 . S
O12 Cd4 2.277 1_556 S
O12 C5 1.226 . S
O13 Cd4 2.356 . S
O13 C11 1.282 . S
C14 O15 1.306 . S
C14 O17 1.160 . S
O15 C14 1.306 . S
O15 Cd16 2.228 . S
Cd16 O15 2.228 . S
Cd16 O20 2.273 1_554 S
Cd16 O24 2.277 . S
O17 C14 1.160 . S
O17 Cd18 2.203 . S
Cd18 O17 2.203 . S
Cd18 O20 2.411 1_554 S
Cd18 O21 2.333 1_554 S
Cd18 O22 2.352 1_554 S
Cd18 O26 2.277 . S
Cd18 O27 2.356 . S
C19 O24 1.209 . S
C19 O26 1.226 . S
O20 Cd16 2.273 1_556 S
O20 Cd18 2.411 1_556 S
O20 C23 1.320 . S
O21 Cd18 2.333 1_556 S
O21 C23 1.214 . S
O22 Cd18 2.352 1_556 S
O22 C25 1.258 . S
C23 O20 1.320 . S
C23 O21 1.214 . S
O24 Cd16 2.277 . S
O24 C19 1.209 . S
C25 O22 1.258 . S
C25 O27 1.282 1_556 S
O26 Cd18 2.277 . S
O26 C19 1.226 . S
O27 Cd18 2.356 . S
O27 C25 1.282 1_554 S
C28 O29 1.306 . S
C28 O31 1.160 . S
O29 C28 1.306 . S
O29 Cd30 2.228 . S
Cd30 O29 2.228 . S
Cd30 O34 2.273 1_554 S
Cd30 O38 2.277 . S
O31 C28 1.160 . S
O31 Cd32 2.203 1_565 S
Cd32 O31 2.203 1_545 S
Cd32 O34 2.411 1_544 S
Cd32 O35 2.333 1_554 S
Cd32 O36 2.352 1_554 S
Cd32 O40 2.277 . S
Cd32 O41 2.356 . S
C33 O38 1.209 1_545 S
C33 O40 1.226 . S
O34 Cd30 2.273 1_556 S
O34 Cd32 2.411 1_566 S
O34 C37 1.320 1_565 S
O35 Cd32 2.333 1_556 S
O35 C37 1.214 . S
O36 Cd32 2.352 1_556 S
O36 C39 1.258 . S
C37 O34 1.320 1_545 S
C37 O35 1.214 . S
O38 Cd30 2.277 . S
O38 C33 1.209 1_565 S
C39 O36 1.258 . S
C39 O41 1.282 1_556 S
O40 Cd32 2.277 . S
O40 C33 1.226 . S
O41 Cd32 2.356 . S
O41 C39 1.282 1_554 S
C42 O43 1.306 1_556 S
C42 O45 1.160 . S
O43 C42 1.306 1_554 S
O43 Cd44 2.228 . S
Cd44 O43 2.228 . S
Cd44 O48 2.273 . S
Cd44 O52 2.277 1_554 S
O45 C42 1.160 . S
O45 Cd46 2.203 1_656 S
Cd46 O45 2.203 1_454 S
Cd46 O48 2.411 1_455 S
Cd46 O49 2.333 . S
Cd46 O50 2.352 . S
Cd46 O54 2.277 1_554 S
Cd46 O55 2.356 . S
C47 O52 1.209 1_455 S
C47 O54 1.226 . S
O48 Cd44 2.273 . S
O48 Cd46 2.411 1_655 S
O48 C51 1.323 . S
O49 Cd46 2.333 . S
O49 C51 1.212 1_455 S
O50 Cd46 2.352 . S
O50 C53 1.258 . S
C51 O48 1.323 . S
C51 O49 1.212 1_655 S
O52 Cd44 2.277 1_556 S
O52 C47 1.209 1_655 S
C53 O50 1.258 . S
C53 O55 1.282 . S
O54 Cd46 2.277 1_556 S
O54 C47 1.226 . S
O55 Cd46 2.356 . S
O55 C53 1.282 . S
C56 O57 1.306 . S
C56 O59 1.160 . S
O57 C56 1.306 . S
O57 Cd58 2.228 . S
Cd58 O57 2.228 . S
Cd58 O62 2.273 1_554 S
Cd58 O66 2.277 . S
O59 C56 1.160 . S
O59 Cd60 2.203 . S
Cd60 O59 2.203 . S
Cd60 O62 2.411 1_554 S
Cd60 O63 2.333 1_554 S
Cd60 O64 2.352 1_554 S
Cd60 O68 2.277 . S
Cd60 O69 2.356 . S
C61 O66 1.209 . S
C61 O68 1.226 . S
O62 Cd58 2.273 1_556 S
O62 Cd60 2.411 1_556 S
O62 C65 1.320 . S
O63 Cd60 2.333 1_556 S
O63 C65 1.214 . S
O64 Cd60 2.352 1_556 S
O64 C67 1.258 . S
C65 O62 1.320 . S
C65 O63 1.214 . S
O66 Cd58 2.277 . S
O66 C61 1.209 . S
C67 O64 1.258 . S
C67 O69 1.282 1_556 S
O68 Cd60 2.277 . S
O68 C61 1.226 . S
O69 Cd60 2.356 . S
O69 C67 1.282 1_554 S
C70 O71 1.306 1_556 S
C70 O73 1.160 . S
O71 C70 1.306 1_554 S
O71 Cd72 2.228 . S
Cd72 O71 2.228 . S
Cd72 O76 2.273 . S
Cd72 O80 2.277 1_554 S
O73 C70 1.160 . S
O73 Cd74 2.203 1_546 S
Cd74 O73 2.203 1_564 S
Cd74 O76 2.411 1_565 S
Cd74 O77 2.333 . S
Cd74 O78 2.352 . S
Cd74 O82 2.277 1_554 S
Cd74 O83 2.356 . S
C75 O80 1.209 1_565 S
C75 O82 1.226 . S
O76 Cd72 2.273 . S
O76 Cd74 2.411 1_545 S
O76 C79 1.320 . S
O77 Cd74 2.333 . S
O77 C79 1.214 1_565 S
O78 Cd74 2.352 . S
O78 C81 1.258 . S
C79 O76 1.320 . S
C79 O77 1.214 1_545 S
O80 Cd72 2.277 1_556 S
O80 C75 1.209 1_545 S
C81 O78 1.258 . S
C81 O83 1.282 . S
O82 Cd74 2.277 1_556 S
O82 C75 1.226 . S
O83 Cd74 2.356 . S
O83 C81 1.282 . S
C84 O85 1.306 . S
C84 O87 1.160 . S
O85 C84 1.306 . S
O85 Cd86 2.228 . S
Cd86 O85 2.228 . S
Cd86 O90 2.273 . S
Cd86 O94 2.277 . S
O87 C84 1.160 . S
O87 Cd88 2.203 . S
Cd88 O87 2.203 . S
Cd88 O90 2.411 . S
Cd88 O91 2.333 . S
Cd88 O92 2.352 . S
Cd88 O96 2.277 . S
Cd88 O97 2.356 . S
C89 O94 1.209 . S
C89 O96 1.226 . S
O90 Cd86 2.273 . S
O90 Cd88 2.411 . S
O90 C93 1.320 . S
O91 Cd88 2.333 . S
O91 C93 1.214 . S
O92 Cd88 2.352 . S
O92 C95 1.258 . S
C93 O90 1.320 . S
C93 O91 1.214 . S
O94 Cd86 2.277 . S
O94 C89 1.209 . S
C95 O92 1.258 . S
C95 O97 1.282 . S
O96 Cd88 2.277 . S
O96 C89 1.226 . S
O97 Cd88 2.356 . S
O97 C95 1.282 . S
C98 O99 1.306 . S
C98 O101 1.160 . S
O99 C98 1.306 . S
O99 Cd100 2.228 1_545 S
Cd100 O99 2.228 1_565 S
Cd100 O104 2.273 . S
Cd100 O108 2.277 . S
O101 C98 1.160 . S
O101 Cd102 2.203 1_545 S
Cd102 O101 2.203 1_565 S
Cd102 O104 2.411 . S
Cd102 O105 2.333 . S
Cd102 O106 2.352 . S
Cd102 O110 2.277 . S
Cd102 O111 2.356 . S
C103 O108 1.209 . S
C103 O110 1.226 . S
O104 Cd100 2.273 . S
O104 Cd102 2.411 . S
O104 C107 1.320 . S
O105 Cd102 2.333 . S
O105 C107 1.214 . S
O106 Cd102 2.352 . S
O106 C109 1.258 . S
C107 O104 1.320 . S
C107 O105 1.214 . S
O108 Cd100 2.277 . S
O108 C103 1.209 . S
C109 O106 1.258 . S
C109 O111 1.282 . S
O110 Cd102 2.277 . S
O110 C103 1.226 . S
O111 Cd102 2.356 . S
O111 C109 1.282 . S
C112 O113 1.306 1_655 S
C112 O115 1.160 1_655 S
O113 C112 1.306 1_455 S
O113 Cd114 2.228 . S
Cd114 O113 2.228 . S
Cd114 O118 2.273 . S
Cd114 O122 2.277 . S
O115 C112 1.160 1_455 S
O115 Cd116 2.203 . S
Cd116 O115 2.203 . S
Cd116 O118 2.411 . S
Cd116 O119 2.333 . S
Cd116 O120 2.352 . S
Cd116 O124 2.277 . S
Cd116 O125 2.356 . S
C117 O122 1.209 . S
C117 O124 1.226 . S
O118 Cd114 2.273 . S
O118 Cd116 2.411 . S
O118 C121 1.320 . S
O119 Cd116 2.333 . S
O119 C121 1.214 . S
O120 Cd116 2.352 . S
O120 C123 1.258 . S
C121 O118 1.320 . S
C121 O119 1.214 . S
O122 Cd114 2.277 . S
O122 C117 1.209 . S
C123 O120 1.258 . S
C123 O125 1.282 . S
O124 Cd116 2.277 . S
O124 C117 1.226 . S
O125 Cd116 2.356 . S
O125 C123 1.282 . S
C126 O127 1.306 . S
C126 O129 1.160 . S
O127 C126 1.306 . S
O127 Cd128 2.228 . S
Cd128 O127 2.228 . S
Cd128 O132 2.273 . S
Cd128 O136 2.277 . S
O129 C126 1.160 . S
O129 Cd130 2.203 . S
Cd130 O129 2.203 . S
Cd130 O132 2.411 . S
Cd130 O133 2.333 . S
Cd130 O134 2.352 1_565 S
Cd130 O138 2.277 . S
Cd130 O139 2.356 1_565 S
C131 O136 1.209 . S
C131 O138 1.226 . S
O132 Cd128 2.273 . S
O132 Cd130 2.411 . S
O132 C135 1.320 . S
O133 Cd130 2.333 . S
O133 C135 1.214 . S
O134 Cd130 2.352 1_545 S
O134 C137 1.258 . S
C135 O132 1.320 . S
C135 O133 1.214 . S
O136 Cd128 2.277 . S
O136 C131 1.209 . S
C137 O134 1.258 . S
C137 O139 1.282 . S
O138 Cd130 2.277 . S
O138 C131 1.226 . S
O139 Cd130 2.356 1_545 S
O139 C137 1.282 . S
C140 O141 1.293 . S
C140 O143 1.160 1_655 S
O141 C140 1.293 . S
O141 Cd142 2.199 1_655 S
Cd142 O141 2.199 1_455 S
Cd142 O146 2.273 . S
Cd142 O150 2.277 . S
O143 C140 1.160 1_455 S
O143 Cd144 2.203 . S
Cd144 O143 2.203 . S
Cd144 O146 2.411 . S
Cd144 O147 2.333 . S
Cd144 O148 2.352 . S
Cd144 O152 2.277 . S
Cd144 O153 2.356 . S
C145 O150 1.209 . S
C145 O152 1.226 . S
O146 Cd142 2.273 . S
O146 Cd144 2.411 . S
O146 C149 1.320 . S
O147 Cd144 2.333 . S
O147 C149 1.214 . S
O148 Cd144 2.352 . S
O148 C151 1.258 . S
C149 O146 1.320 . S
C149 O147 1.214 . S
O150 Cd142 2.277 . S
O150 C145 1.209 . S
C151 O148 1.258 . S
C151 O153 1.282 . S
O152 Cd144 2.277 . S
O152 C145 1.226 . S
O153 Cd144 2.356 . S
O153 C151 1.282 . S
C154 O155 1.306 . S
C154 O157 1.160 . S
O155 C154 1.306 . S
O155 Cd156 2.228 . S
Cd156 O155 2.228 . S
Cd156 O160 2.273 . S
Cd156 O164 2.277 . S
O157 C154 1.160 . S
O157 Cd158 2.203 . S
Cd158 O157 2.203 . S
Cd158 O160 2.411 . S
Cd158 O161 2.333 . S
Cd158 O162 2.352 . S
Cd158 O166 2.277 . S
Cd158 O167 2.356 . S
C159 O164 1.209 . S
C159 O166 1.226 . S
O160 Cd156 2.273 . S
O160 Cd158 2.411 . S
O160 C163 1.320 . S
O161 Cd158 2.333 . S
O161 C163 1.214 . S
O162 Cd158 2.352 . S
O162 C165 1.258 . S
C163 O160 1.320 . S
C163 O161 1.214 . S
O164 Cd156 2.277 . S
O164 C159 1.209 . S
C165 O162 1.258 . S
C165 O167 1.282 . S
O166 Cd158 2.277 . S
O166 C159 1.226 . S
O167 Cd158 2.356 . S
O167 C165 1.282 . S
C168 O169 1.368 . S
C168 O171 1.160 1_565 S
O169 C168 1.368 . S
O169 Cd170 2.144 1_565 S
Cd170 O169 2.144 1_545 S
Cd170 O174 2.273 . S
Cd170 O178 2.277 . S
O171 C168 1.160 1_545 S
O171 Cd172 2.203 . S
Cd172 O171 2.203 . S
Cd172 O174 2.411 . S
Cd172 O175 2.333 . S
Cd172 O176 2.352 . S
Cd172 O180 2.277 . S
Cd172 O181 2.356 . S
C173 O178 1.209 . S
C173 O180 1.226 . S
O174 Cd170 2.273 . S
O174 Cd172 2.411 . S
O174 C177 1.320 . S
O175 Cd172 2.333 . S
O175 C177 1.214 . S
O176 Cd172 2.352 . S
O176 C179 1.258 . S
C177 O174 1.320 . S
C177 O175 1.214 . S
O178 Cd170 2.277 . S
O178 C173 1.209 . S
C179 O176 1.258 . S
C179 O181 1.282 . S
O180 Cd172 2.277 . S
O180 C173 1.226 . S
O181 Cd172 2.356 . S
O181 C179 1.282 . S
C182 O183 1.306 . S
C182 O185 1.160 . S
O183 C182 1.306 . S
O183 Cd184 2.228 . S
Cd184 O183 2.228 . S
Cd184 O188 2.273 . S
Cd184 O192 2.277 . S
O185 C182 1.160 . S
O185 Cd186 2.203 . S
Cd186 O185 2.203 . S
Cd186 O188 2.411 . S
Cd186 O189 2.333 . S
Cd186 O190 2.352 1_655 S
Cd186 O194 2.277 . S
Cd186 O195 2.356 1_655 S
C187 O192 1.209 . S
C187 O194 1.226 . S
O188 Cd184 2.273 . S
O188 Cd186 2.411 . S
O188 C191 1.320 . S
O189 Cd186 2.333 . S
O189 C191 1.214 . S
O190 Cd186 2.352 1_455 S
O190 C193 1.258 . S
C191 O188 1.320 . S
C191 O189 1.214 . S
O192 Cd184 2.277 . S
O192 C187 1.209 . S
C193 O190 1.258 . S
C193 O195 1.282 . S
O194 Cd186 2.277 . S
O194 C187 1.226 . S
O195 Cd186 2.356 1_455 S
O195 C193 1.282 . S
C196 O197 1.306 . S
C196 O199 1.160 . S
O197 C196 1.306 . S
O197 Cd198 2.228 . S
Cd198 O197 2.228 . S
Cd198 O202 2.273 . S
Cd198 O206 2.277 . S
O199 C196 1.160 . S
O199 Cd200 2.203 . S
Cd200 O199 2.203 . S
Cd200 O202 2.411 . S
Cd200 O203 2.333 . S
Cd200 O204 2.352 . S
Cd200 O208 2.277 . S
Cd200 O209 2.356 . S
C201 O206 1.209 . S
C201 O208 1.226 . S
O202 Cd198 2.273 . S
O202 Cd200 2.411 . S
O202 C205 1.320 . S
O203 Cd200 2.333 . S
O203 C205 1.214 . S
O204 Cd200 2.352 . S
O204 C207 1.258 . S
C205 O202 1.320 . S
C205 O203 1.214 . S
O206 Cd198 2.277 . S
O206 C201 1.209 . S
C207 O204 1.258 . S
C207 O209 1.282 . S
O208 Cd200 2.277 . S
O208 C201 1.226 . S
O209 Cd200 2.356 . S
O209 C207 1.282 . S
C210 O211 1.306 . S
C210 O213 1.160 . S
O211 C210 1.306 . S
O211 Cd212 2.228 . S
Cd212 O211 2.228 . S
Cd212 O216 2.273 . S
Cd212 O220 2.277 . S
O213 C210 1.160 . S
O213 Cd214 2.203 . S
Cd214 O213 2.203 . S
Cd214 O216 2.411 . S
Cd214 O217 2.333 . S
Cd214 O218 2.352 . S
Cd214 O222 2.277 . S
Cd214 O223 2.356 . S
C215 O220 1.209 . S
C215 O222 1.226 . S
O216 Cd212 2.273 . S
O216 Cd214 2.411 . S
O216 C219 1.320 . S
O217 Cd214 2.333 . S
O217 C219 1.214 . S
O218 Cd214 2.352 . S
O218 C221 1.258 . S
C219 O216 1.320 . S
C219 O217 1.214 . S
O220 Cd212 2.277 . S
O220 C215 1.209 . S
C221 O218 1.258 . S
C221 O223 1.282 . S
O222 Cd214 2.277 . S
O222 C215 1.226 . S
O223 Cd214 2.356 . S
O223 C221 1.282 . S
C224 O225 1.306 . S
C224 O227 1.160 . S
O225 C224 1.306 . S
O225 Cd226 2.228 . S
Cd226 O225 2.228 . S
Cd226 O230 2.273 . S
Cd226 O234 2.277 . S
O227 C224 1.160 . S
O227 Cd228 2.203 . S
Cd228 O227 2.203 . S
Cd228 O230 2.411 . S
Cd228 O231 2.333 . S
Cd228 O232 2.317 1_545 S
Cd228 O236 2.277 . S
Cd228 O237 2.356 1_545 S
C229 O234 1.209 . S
C229 O236 1.226 . S
O230 Cd226 2.273 . S
O230 Cd228 2.411 . S
O230 C233 1.320 . S
O231 Cd228 2.333 . S
O231 C233 1.214 . S
O232 Cd228 2.317 1_565 S
O232 C235 1.331 . S
C233 O230 1.320 . S
C233 O231 1.214 . S
O234 Cd226 2.277 . S
O234 C229 1.209 . S
C235 O232 1.331 . S
C235 O237 1.282 . S
O236 Cd228 2.277 . S
O236 C229 1.226 . S
O237 Cd228 2.356 1_565 S
O237 C235 1.282 . S
C238 O239 1.306 . S
C238 O241 1.160 . S
O239 C238 1.306 . S
O239 Cd240 2.228 1_455 S
Cd240 O239 2.228 1_655 S
Cd240 O244 2.273 . S
Cd240 O248 2.277 . S
O241 C238 1.160 . S
O241 Cd242 2.203 1_455 S
Cd242 O241 2.203 1_655 S
Cd242 O244 2.411 . S
Cd242 O245 2.333 . S
Cd242 O246 2.352 . S
Cd242 O250 2.277 . S
Cd242 O251 2.356 . S
C243 O248 1.209 . S
C243 O250 1.226 . S
O244 Cd240 2.273 . S
O244 Cd242 2.411 . S
O244 C247 1.320 . S
O245 Cd242 2.333 . S
O245 C247 1.214 . S
O246 Cd242 2.352 . S
O246 C249 1.258 . S
C247 O244 1.320 . S
C247 O245 1.214 . S
O248 Cd240 2.277 . S
O248 C243 1.209 . S
C249 O246 1.258 . S
C249 O251 1.282 . S
O250 Cd242 2.277 . S
O250 C243 1.226 . S
O251 Cd242 2.356 . S
O251 C249 1.282 . S
H252 C271 0.949 . S
H253 C272 0.950 . S
H254 C274 0.950 . S
H255 C275 0.950 . S
H256 C277 0.950 . S
H257 C280 0.950 . S
H258 C281 0.950 . S
H259 C283 0.951 . S
H260 C284 0.949 . S
H261 C286 0.949 . S
H262 C287 0.950 . S
H263 C289 0.950 . S
H264 C290 0.950 . S
H265 C292 0.950 . S
H266 C295 0.950 . S
H267 C296 0.950 . S
H268 C298 0.951 . S
H269 C299 0.949 . S
C270 C271 1.376 . S
C270 C275 1.386 . S
C270 C276 1.483 . S
C271 H252 0.949 . S
C271 C270 1.376 . S
C271 C272 1.397 . S
C272 H253 0.950 . S
C272 C271 1.397 . S
C272 C273 1.391 . S
C273 C272 1.391 . S
C273 C274 1.405 . S
C274 H254 0.950 . S
C274 C273 1.405 . S
C274 C275 1.367 . S
C275 H255 0.950 . S
C275 C270 1.386 . S
C275 C274 1.367 . S
C276 C270 1.483 . S
C276 C277 1.382 . S
C276 C278 1.403 . S
C277 H256 0.950 . S
C277 C276 1.382 . S
C277 C293 1.411 . S
C278 C276 1.403 . S
C278 C279 1.489 . S
C278 C292 1.411 . S
C279 C278 1.489 . S
C279 C280 1.383 . S
C279 C284 1.382 . S
C280 H257 0.950 . S
C280 C279 1.383 . S
C280 C281 1.395 . S
C281 H258 0.950 . S
C281 C280 1.395 . S
C281 C282 1.288 . S
C282 C281 1.288 . S
C282 C283 1.392 . S
C283 H259 0.951 . S
C283 C282 1.392 . S
C283 C284 1.392 . S
C284 H260 0.949 . S
C284 C279 1.382 . S
C284 C283 1.392 . S
C285 C286 1.376 . S
C285 C290 1.386 . S
C285 C291 1.483 . S
C286 H261 0.949 . S
C286 C285 1.376 . S
C286 C287 1.397 . S
C287 H262 0.950 . S
C287 C286 1.397 . S
C287 C288 1.391 . S
C288 C287 1.391 . S
C288 C289 1.405 . S
C289 H263 0.950 . S
C289 C288 1.405 . S
C289 C290 1.367 . S
C290 H264 0.950 . S
C290 C285 1.386 . S
C290 C289 1.367 . S
C291 C285 1.483 . S
C291 C292 1.382 . S
C291 C293 1.403 . S
C292 H265 0.950 . S
C292 C278 1.411 . S
C292 C291 1.382 . S
C293 C277 1.411 . S
C293 C291 1.403 . S
C293 C294 1.489 . S
C294 C293 1.489 . S
C294 C295 1.383 . S
C294 C299 1.382 . S
C295 H266 0.950 . S
C295 C294 1.383 . S
C295 C296 1.395 . S
C296 H267 0.950 . S
C296 C295 1.395 . S
C296 C297 1.288 . S
C297 C296 1.288 . S
C297 C298 1.392 . S
C298 H268 0.951 . S
C298 C297 1.392 . S
C298 C299 1.392 . S
C299 H269 0.949 . S
C299 C294 1.382 . S
C299 C298 1.392 . S
H300 C319 0.949 . S
H301 C320 0.950 . S
H302 C322 0.950 . S
H303 C323 0.950 . S
H304 C325 0.950 . S
H305 C328 0.950 . S
H306 C329 0.950 . S
H307 C331 0.951 . S
H308 C332 0.949 . S
H309 C334 0.949 . S
H310 C335 0.950 . S
H311 C337 0.950 . S
H312 C338 0.950 . S
H313 C340 0.950 . S
H314 C343 0.950 . S
H315 C344 0.950 . S
H316 C346 0.951 . S
H317 C347 0.949 . S
C318 C319 1.376 . S
C318 C323 1.386 . S
C318 C324 1.483 . S
C319 H300 0.949 . S
C319 C318 1.376 . S
C319 C320 1.397 . S
C320 H301 0.950 . S
C320 C319 1.397 . S
C320 C321 1.391 . S
C321 C320 1.391 . S
C321 C322 1.405 . S
C322 H302 0.950 . S
C322 C321 1.405 . S
C322 C323 1.367 . S
C323 H303 0.950 . S
C323 C318 1.386 . S
C323 C322 1.367 . S
C324 C318 1.483 . S
C324 C325 1.382 . S
C324 C326 1.403 . S
C325 H304 0.950 . S
C325 C324 1.382 . S
C325 C341 1.411 . S
C326 C324 1.403 . S
C326 C327 1.489 . S
C326 C340 1.411 . S
C327 C326 1.489 . S
C327 C328 1.383 . S
C327 C332 1.382 . S
C328 H305 0.950 . S
C328 C327 1.383 . S
C328 C329 1.395 . S
C329 H306 0.950 . S
C329 C328 1.395 . S
C329 C330 1.288 . S
C330 C329 1.288 . S
C330 C331 1.392 . S
C331 H307 0.951 . S
C331 C330 1.392 . S
C331 C332 1.392 . S
C332 H308 0.949 . S
C332 C327 1.382 . S
C332 C331 1.392 . S
C333 C334 1.376 . S
C333 C338 1.386 . S
C333 C339 1.483 . S
C334 H309 0.949 . S
C334 C333 1.376 . S
C334 C335 1.397 . S
C335 H310 0.950 . S
C335 C334 1.397 . S
C335 C336 1.391 . S
C336 C335 1.391 . S
C336 C337 1.405 . S
C337 H311 0.950 . S
C337 C336 1.405 . S
C337 C338 1.367 . S
C338 H312 0.950 . S
C338 C333 1.386 . S
C338 C337 1.367 . S
C339 C333 1.483 . S
C339 C340 1.382 . S
C339 C341 1.403 . S
C340 H313 0.950 . S
C340 C326 1.411 . S
C340 C339 1.382 . S
C341 C325 1.411 . S
C341 C339 1.403 . S
C341 C342 1.489 . S
C342 C341 1.489 . S
C342 C343 1.383 . S
C342 C347 1.382 . S
C343 H314 0.950 . S
C343 C342 1.383 . S
C343 C344 1.395 . S
C344 H315 0.950 . S
C344 C343 1.395 . S
C344 C345 1.288 . S
C345 C344 1.288 . S
C345 C346 1.392 . S
C346 H316 0.951 . S
C346 C345 1.392 . S
C346 C347 1.392 . S
C347 H317 0.949 . S
C347 C342 1.382 . S
C347 C346 1.392 . S
H348 C367 0.949 . S
H349 C368 0.950 . S
H350 C370 0.950 . S
H351 C371 0.950 . S
H352 C373 0.950 . S
H353 C376 0.950 . S
H354 C377 0.950 . S
H355 C379 0.951 . S
H356 C380 0.949 . S
H357 C382 0.949 . S
H358 C383 0.950 . S
H359 C385 0.950 . S
H360 C386 0.950 . S
H361 C388 0.950 . S
H362 C391 0.950 . S
H363 C392 0.950 . S
H364 C394 0.951 . S
H365 C395 0.949 . S
C366 C367 1.376 . S
C366 C371 1.386 . S
C366 C372 1.483 . S
C367 H348 0.949 . S
C367 C366 1.376 . S
C367 C368 1.397 . S
C368 H349 0.950 . S
C368 C367 1.397 . S
C368 C369 1.391 . S
C369 C368 1.391 . S
C369 C370 1.405 . S
C370 H350 0.950 . S
C370 C369 1.405 . S
C370 C371 1.367 . S
C371 H351 0.950 . S
C371 C366 1.386 . S
C371 C370 1.367 . S
C372 C366 1.483 . S
C372 C373 1.382 . S
C372 C374 1.403 . S
C373 H352 0.950 . S
C373 C372 1.382 . S
C373 C389 1.411 . S
C374 C372 1.403 . S
C374 C375 1.489 . S
C374 C388 1.411 . S
C375 C374 1.489 . S
C375 C376 1.383 . S
C375 C380 1.382 . S
C376 H353 0.950 . S
C376 C375 1.383 . S
C376 C377 1.395 . S
C377 H354 0.950 . S
C377 C376 1.395 . S
C377 C378 1.288 . S
C378 C377 1.288 . S
C378 C379 1.392 . S
C379 H355 0.951 . S
C379 C378 1.392 . S
C379 C380 1.392 . S
C380 H356 0.949 . S
C380 C375 1.382 . S
C380 C379 1.392 . S
C381 C382 1.376 . S
C381 C386 1.386 . S
C381 C387 1.483 . S
C382 H357 0.949 . S
C382 C381 1.376 . S
C382 C383 1.397 . S
C383 H358 0.950 . S
C383 C382 1.397 . S
C383 C384 1.391 . S
C384 C383 1.391 . S
C384 C385 1.405 . S
C385 H359 0.950 . S
C385 C384 1.405 . S
C385 C386 1.367 . S
C386 H360 0.950 . S
C386 C381 1.386 . S
C386 C385 1.367 . S
C387 C381 1.483 . S
C387 C388 1.382 . S
C387 C389 1.403 . S
C388 H361 0.950 . S
C388 C374 1.411 . S
C388 C387 1.382 . S
C389 C373 1.411 . S
C389 C387 1.403 . S
C389 C390 1.489 . S
C390 C389 1.489 . S
C390 C391 1.383 . S
C390 C395 1.382 . S
C391 H362 0.950 . S
C391 C390 1.383 . S
C391 C392 1.395 . S
C392 H363 0.950 . S
C392 C391 1.395 . S
C392 C393 1.288 . S
C393 C392 1.288 . S
C393 C394 1.392 . S
C394 H364 0.951 . S
C394 C393 1.392 . S
C394 C395 1.392 . S
C395 H365 0.949 . S
C395 C390 1.382 . S
C395 C394 1.392 . S
H396 C415 0.949 . S
H397 C416 0.950 . S
H398 C418 0.950 . S
H399 C419 0.950 . S
H400 C421 0.950 . S
H401 C424 0.950 . S
H402 C425 0.950 . S
H403 C427 0.951 . S
H404 C428 0.949 . S
H405 C430 0.949 . S
H406 C431 0.950 . S
H407 C433 0.950 . S
H408 C434 0.950 . S
H409 C436 0.950 . S
H410 C439 0.950 . S
H411 C440 0.950 . S
H412 C442 0.951 . S
H413 C443 0.949 . S
C414 C415 1.376 . S
C414 C419 1.386 . S
C414 C420 1.483 . S
C415 H396 0.949 . S
C415 C414 1.376 . S
C415 C416 1.397 . S
C416 H397 0.950 . S
C416 C415 1.397 . S
C416 C417 1.391 . S
C417 C416 1.391 . S
C417 C418 1.405 . S
C418 H398 0.950 . S
C418 C417 1.405 . S
C418 C419 1.367 . S
C419 H399 0.950 . S
C419 C414 1.386 . S
C419 C418 1.367 . S
C420 C414 1.483 . S
C420 C421 1.382 . S
C420 C422 1.403 . S
C421 H400 0.950 . S
C421 C420 1.382 . S
C421 C437 1.411 . S
C422 C420 1.403 . S
C422 C423 1.489 . S
C422 C436 1.411 . S
C423 C422 1.489 . S
C423 C424 1.383 . S
C423 C428 1.382 . S
C424 H401 0.950 . S
C424 C423 1.383 . S
C424 C425 1.395 . S
C425 H402 0.950 . S
C425 C424 1.395 . S
C425 C426 1.288 . S
C426 C425 1.288 . S
C426 C427 1.392 . S
C427 H403 0.951 . S
C427 C426 1.392 . S
C427 C428 1.392 . S
C428 H404 0.949 . S
C428 C423 1.382 . S
C428 C427 1.392 . S
C429 C430 1.376 . S
C429 C434 1.386 . S
C429 C435 1.483 . S
C430 H405 0.949 . S
C430 C429 1.376 . S
C430 C431 1.397 . S
C431 H406 0.950 . S
C431 C430 1.397 . S
C431 C432 1.391 . S
C432 C431 1.391 . S
C432 C433 1.405 . S
C433 H407 0.950 . S
C433 C432 1.405 . S
C433 C434 1.367 . S
C434 H408 0.950 . S
C434 C429 1.386 . S
C434 C433 1.367 . S
C435 C429 1.483 . S
C435 C436 1.382 . S
C435 C437 1.403 . S
C436 H409 0.950 . S
C436 C422 1.411 . S
C436 C435 1.382 . S
C437 C421 1.411 . S
C437 C435 1.403 . S
C437 C438 1.489 . S
C438 C437 1.489 . S
C438 C439 1.383 . S
C438 C443 1.382 . S
C439 H410 0.950 . S
C439 C438 1.383 . S
C439 C440 1.395 . S
C440 H411 0.950 . S
C440 C439 1.395 . S
C440 C441 1.288 . S
C441 C440 1.288 . S
C441 C442 1.392 . S
C442 H412 0.951 . S
C442 C441 1.392 . S
C442 C443 1.392 . S
C443 H413 0.949 . S
C443 C438 1.382 . S
C443 C442 1.392 . S
H444 C463 0.949 . S
H445 C464 0.950 . S
H446 C466 0.950 . S
H447 C467 0.950 . S
H448 C469 0.950 . S
H449 C472 0.950 . S
H450 C473 0.950 . S
H451 C475 0.951 . S
H452 C476 0.949 . S
H453 C478 0.949 . S
H454 C479 0.950 . S
H455 C481 0.950 . S
H456 C482 0.950 . S
H457 C484 0.950 . S
H458 C487 0.950 . S
H459 C488 0.950 . S
H460 C490 0.951 . S
H461 C491 0.949 . S
C462 C463 1.376 . S
C462 C467 1.386 . S
C462 C468 1.483 . S
C463 H444 0.949 . S
C463 C462 1.376 . S
C463 C464 1.397 . S
C464 H445 0.950 . S
C464 C463 1.397 . S
C464 C465 1.391 . S
C465 C464 1.391 . S
C465 C466 1.405 . S
C466 H446 0.950 . S
C466 C465 1.405 . S
C466 C467 1.367 . S
C467 H447 0.950 . S
C467 C462 1.386 . S
C467 C466 1.367 . S
C468 C462 1.483 . S
C468 C469 1.382 . S
C468 C470 1.403 . S
C469 H448 0.950 . S
C469 C468 1.382 . S
C469 C485 1.411 . S
C470 C468 1.403 . S
C470 C471 1.489 . S
C470 C484 1.411 . S
C471 C470 1.489 . S
C471 C472 1.383 . S
C471 C476 1.382 . S
C472 H449 0.950 . S
C472 C471 1.383 . S
C472 C473 1.395 . S
C473 H450 0.950 . S
C473 C472 1.395 . S
C473 C474 1.288 . S
C474 C473 1.288 . S
C474 C475 1.392 . S
C475 H451 0.951 . S
C475 C474 1.392 . S
C475 C476 1.392 . S
C476 H452 0.949 . S
C476 C471 1.382 . S
C476 C475 1.392 . S
C477 C478 1.376 . S
C477 C482 1.386 . S
C477 C483 1.483 . S
C478 H453 0.949 . S
C478 C477 1.376 . S
C478 C479 1.397 . S
C479 H454 0.950 . S
C479 C478 1.397 . S
C479 C480 1.391 . S
C480 C479 1.391 . S
C480 C481 1.405 . S
C481 H455 0.950 . S
C481 C480 1.405 . S
C481 C482 1.367 . S
C482 H456 0.950 . S
C482 C477 1.386 . S
C482 C481 1.367 . S
C483 C477 1.483 . S
C483 C484 1.382 . S
C483 C485 1.403 . S
C484 H457 0.950 . S
C484 C470 1.411 . S
C484 C483 1.382 . S
C485 C469 1.411 . S
C485 C483 1.403 . S
C485 C486 1.489 . S
C486 C485 1.489 . S
C486 C487 1.383 . S
C486 C491 1.382 . S
C487 H458 0.950 . S
C487 C486 1.383 . S
C487 C488 1.395 . S
C488 H459 0.950 . S
C488 C487 1.395 . S
C488 C489 1.288 . S
C489 C488 1.288 . S
C489 C490 1.392 . S
C490 H460 0.951 . S
C490 C489 1.392 . S
C490 C491 1.392 . S
C491 H461 0.949 . S
C491 C486 1.382 . S
C491 C490 1.392 . S
H492 C511 0.949 . S
H493 C512 0.950 . S
H494 C514 0.950 . S
H495 C515 0.950 . S
H496 C517 0.950 . S
H497 C520 0.950 . S
H498 C521 0.950 . S
H499 C523 0.951 . S
H500 C524 0.949 . S
H501 C526 0.949 . S
H502 C527 0.950 . S
H503 C529 0.950 . S
H504 C530 0.950 . S
H505 C532 0.950 . S
H506 C535 0.950 . S
H507 C536 0.950 . S
H508 C538 0.951 . S
H509 C539 0.949 . S
C510 C511 1.376 . S
C510 C515 1.386 . S
C510 C516 1.483 . S
C511 H492 0.949 . S
C511 C510 1.376 . S
C511 C512 1.397 . S
C512 H493 0.950 . S
C512 C511 1.397 . S
C512 C513 1.391 . S
C513 C512 1.391 . S
C513 C514 1.405 . S
C514 H494 0.950 . S
C514 C513 1.405 . S
C514 C515 1.367 . S
C515 H495 0.950 . S
C515 C510 1.386 . S
C515 C514 1.367 . S
C516 C510 1.483 . S
C516 C517 1.382 . S
C516 C518 1.403 . S
C517 H496 0.950 . S
C517 C516 1.382 . S
C517 C533 1.411 . S
C518 C516 1.403 . S
C518 C519 1.489 . S
C518 C532 1.411 . S
C519 C518 1.489 . S
C519 C520 1.383 . S
C519 C524 1.382 . S
C520 H497 0.950 . S
C520 C519 1.383 . S
C520 C521 1.395 . S
C521 H498 0.950 . S
C521 C520 1.395 . S
C521 C522 1.288 . S
C522 C521 1.288 . S
C522 C523 1.392 . S
C523 H499 0.951 . S
C523 C522 1.392 . S
C523 C524 1.392 . S
C524 H500 0.949 . S
C524 C519 1.382 . S
C524 C523 1.392 . S
C525 C526 1.376 . S
C525 C530 1.386 . S
C525 C531 1.483 . S
C526 H501 0.949 . S
C526 C525 1.376 . S
C526 C527 1.397 . S
C527 H502 0.950 . S
C527 C526 1.397 . S
C527 C528 1.391 . S
C528 C527 1.391 . S
C528 C529 1.405 . S
C529 H503 0.950 . S
C529 C528 1.405 . S
C529 C530 1.367 . S
C530 H504 0.950 . S
C530 C525 1.386 . S
C530 C529 1.367 . S
C531 C525 1.483 . S
C531 C532 1.382 . S
C531 C533 1.403 . S
C532 H505 0.950 . S
C532 C518 1.411 . S
C532 C531 1.382 . S
C533 C517 1.411 . S
C533 C531 1.403 . S
C533 C534 1.489 . S
C534 C533 1.489 . S
C534 C535 1.383 . S
C534 C539 1.382 . S
C535 H506 0.950 . S
C535 C534 1.383 . S
C535 C536 1.395 . S
C536 H507 0.950 . S
C536 C535 1.395 . S
C536 C537 1.288 . S
C537 C536 1.288 . S
C537 C538 1.392 . S
C538 H508 0.951 . S
C538 C537 1.392 . S
C538 C539 1.392 . S
C539 H509 0.949 . S
C539 C534 1.382 . S
C539 C538 1.392 . S
H540 C559 0.949 . S
H541 C560 0.950 . S
H542 C562 0.950 . S
H543 C563 0.950 . S
H544 C565 0.950 . S
H545 C568 0.950 . S
H546 C569 0.950 . S
H547 C571 0.951 . S
H548 C572 0.949 . S
H549 C574 0.949 . S
H550 C575 0.950 . S
H551 C577 0.950 . S
H552 C578 0.950 . S
H553 C580 0.950 . S
H554 C583 0.950 . S
H555 C584 0.950 . S
H556 C586 0.951 . S
H557 C587 0.949 . S
C558 C559 1.376 . S
C558 C563 1.386 . S
C558 C564 1.483 . S
C559 H540 0.949 . S
C559 C558 1.376 . S
C559 C560 1.397 . S
C560 H541 0.950 . S
C560 C559 1.397 . S
C560 C561 1.391 . S
C561 C560 1.391 . S
C561 C562 1.405 . S
C562 H542 0.950 . S
C562 C561 1.405 . S
C562 C563 1.367 . S
C563 H543 0.950 . S
C563 C558 1.386 . S
C563 C562 1.367 . S
C564 C558 1.483 . S
C564 C565 1.382 . S
C564 C566 1.403 . S
C565 H544 0.950 . S
C565 C564 1.382 . S
C565 C581 1.411 . S
C566 C564 1.403 . S
C566 C567 1.489 . S
C566 C580 1.411 . S
C567 C566 1.489 . S
C567 C568 1.383 . S
C567 C572 1.382 . S
C568 H545 0.950 . S
C568 C567 1.383 . S
C568 C569 1.395 . S
C569 H546 0.950 . S
C569 C568 1.395 . S
C569 C570 1.288 . S
C570 C569 1.288 . S
C570 C571 1.392 . S
C571 H547 0.951 . S
C571 C570 1.392 . S
C571 C572 1.392 . S
C572 H548 0.949 . S
C572 C567 1.382 . S
C572 C571 1.392 . S
C573 C574 1.376 . S
C573 C578 1.386 . S
C573 C579 1.483 . S
C574 H549 0.949 . S
C574 C573 1.376 . S
C574 C575 1.397 . S
C575 H550 0.950 . S
C575 C574 1.397 . S
C575 C576 1.391 . S
C576 C575 1.391 . S
C576 C577 1.405 . S
C577 H551 0.950 . S
C577 C576 1.405 . S
C577 C578 1.367 . S
C578 H552 0.950 . S
C578 C573 1.386 . S
C578 C577 1.367 . S
C579 C573 1.483 . S
C579 C580 1.382 . S
C579 C581 1.403 . S
C580 H553 0.950 . S
C580 C566 1.411 . S
C580 C579 1.382 . S
C581 C565 1.411 . S
C581 C579 1.403 . S
C581 C582 1.489 . S
C582 C581 1.489 . S
C582 C583 1.383 . S
C582 C587 1.382 . S
C583 H554 0.950 . S
C583 C582 1.383 . S
C583 C584 1.395 . S
C584 H555 0.950 . S
C584 C583 1.395 . S
C584 C585 1.288 . S
C585 C584 1.288 . S
C585 C586 1.392 . S
C586 H556 0.951 . S
C586 C585 1.392 . S
C586 C587 1.392 . S
C587 H557 0.949 . S
C587 C582 1.382 . S
C587 C586 1.392 . S
H588 C607 0.949 . S
H589 C608 0.950 . S
H590 C610 0.950 . S
H591 C611 0.950 . S
H592 C613 0.950 . S
H593 C616 0.950 . S
H594 C617 0.950 . S
H595 C619 0.951 . S
H596 C620 0.949 . S
H597 C622 0.949 . S
H598 C623 0.950 . S
H599 C625 0.950 . S
H600 C626 0.950 . S
H601 C628 0.950 . S
H602 C631 0.950 . S
H603 C632 0.950 . S
H604 C634 0.951 . S
H605 C635 0.949 . S
C606 C607 1.376 . S
C606 C611 1.386 . S
C606 C612 1.483 . S
C607 H588 0.949 . S
C607 C606 1.376 . S
C607 C608 1.397 . S
C608 H589 0.950 . S
C608 C607 1.397 . S
C608 C609 1.391 . S
C609 C608 1.391 . S
C609 C610 1.405 . S
C610 H590 0.950 . S
C610 C609 1.405 . S
C610 C611 1.367 . S
C611 H591 0.950 . S
C611 C606 1.386 . S
C611 C610 1.367 . S
C612 C606 1.483 . S
C612 C613 1.382 . S
C612 C614 1.403 . S
C613 H592 0.950 . S
C613 C612 1.382 . S
C613 C629 1.411 . S
C614 C612 1.403 . S
C614 C615 1.489 . S
C614 C628 1.411 . S
C615 C614 1.489 . S
C615 C616 1.383 . S
C615 C620 1.382 . S
C616 H593 0.950 . S
C616 C615 1.383 . S
C616 C617 1.395 . S
C617 H594 0.950 . S
C617 C616 1.395 . S
C617 C618 1.288 . S
C618 C617 1.288 . S
C618 C619 1.392 . S
C619 H595 0.951 . S
C619 C618 1.392 . S
C619 C620 1.392 . S
C620 H596 0.949 . S
C620 C615 1.382 . S
C620 C619 1.392 . S
C621 C622 1.376 . S
C621 C626 1.386 . S
C621 C627 1.483 . S
C622 H597 0.949 . S
C622 C621 1.376 . S
C622 C623 1.397 . S
C623 H598 0.950 . S
C623 C622 1.397 . S
C623 C624 1.391 . S
C624 C623 1.391 . S
C624 C625 1.405 . S
C625 H599 0.950 . S
C625 C624 1.405 . S
C625 C626 1.367 . S
C626 H600 0.950 . S
C626 C621 1.386 . S
C626 C625 1.367 . S
C627 C621 1.483 . S
C627 C628 1.382 . S
C627 C629 1.403 . S
C628 H601 0.950 . S
C628 C614 1.411 . S
C628 C627 1.382 . S
C629 C613 1.411 . S
C629 C627 1.403 . S
C629 C630 1.489 . S
C630 C629 1.489 . S
C630 C631 1.383 . S
C630 C635 1.382 . S
C631 H602 0.950 . S
C631 C630 1.383 . S
C631 C632 1.395 . S
C632 H603 0.950 . S
C632 C631 1.395 . S
C632 C633 1.288 . S
C633 C632 1.288 . S
C633 C634 1.392 . S
C634 H604 0.951 . S
C634 C633 1.392 . S
C634 C635 1.392 . S
C635 H605 0.949 . S
C635 C630 1.382 . S
C635 C634 1.392 . S
H636 C655 0.949 . S
H637 C656 0.950 . S
H638 C658 0.950 . S
H639 C659 0.950 . S
H640 C661 0.950 . S
H641 C664 0.950 . S
H642 C665 0.950 . S
H643 C667 0.951 . S
H644 C668 0.949 . S
H645 C670 0.949 . S
H646 C671 0.950 . S
H647 C673 0.950 . S
H648 C674 0.950 . S
H649 C676 0.950 . S
H650 C679 0.950 . S
H651 C680 0.950 . S
H652 C682 0.951 . S
H653 C683 0.949 . S
C654 C655 1.376 . S
C654 C659 1.386 . S
C654 C660 1.483 . S
C655 H636 0.949 . S
C655 C654 1.376 . S
C655 C656 1.397 . S
C656 H637 0.950 . S
C656 C655 1.397 . S
C656 C657 1.391 . S
C657 C656 1.391 . S
C657 C658 1.405 . S
C658 H638 0.950 . S
C658 C657 1.405 . S
C658 C659 1.367 . S
C659 H639 0.950 . S
C659 C654 1.386 . S
C659 C658 1.367 . S
C660 C654 1.483 . S
C660 C661 1.382 . S
C660 C662 1.403 . S
C661 H640 0.950 . S
C661 C660 1.382 . S
C661 C677 1.411 . S
C662 C660 1.403 . S
C662 C663 1.489 . S
C662 C676 1.411 . S
C663 C662 1.489 . S
C663 C664 1.383 . S
C663 C668 1.382 . S
C664 H641 0.950 . S
C664 C663 1.383 . S
C664 C665 1.395 . S
C665 H642 0.950 . S
C665 C664 1.395 . S
C665 C666 1.288 . S
C666 C665 1.288 . S
C666 C667 1.392 . S
C667 H643 0.951 . S
C667 C666 1.392 . S
C667 C668 1.392 . S
C668 H644 0.949 . S
C668 C663 1.382 . S
C668 C667 1.392 . S
C669 C670 1.376 . S
C669 C674 1.386 . S
C669 C675 1.483 . S
C670 H645 0.949 . S
C670 C669 1.376 . S
C670 C671 1.397 . S
C671 H646 0.950 . S
C671 C670 1.397 . S
C671 C672 1.391 . S
C672 C671 1.391 . S
C672 C673 1.405 . S
C673 H647 0.950 . S
C673 C672 1.405 . S
C673 C674 1.367 . S
C674 H648 0.950 . S
C674 C669 1.386 . S
C674 C673 1.367 . S
C675 C669 1.483 . S
C675 C676 1.382 . S
C675 C677 1.403 . S
C676 H649 0.950 . S
C676 C662 1.411 . S
C676 C675 1.382 . S
C677 C661 1.411 . S
C677 C675 1.403 . S
C677 C678 1.489 . S
C678 C677 1.489 . S
C678 C679 1.383 . S
C678 C683 1.382 . S
C679 H650 0.950 . S
C679 C678 1.383 . S
C679 C680 1.395 . S
C680 H651 0.950 . S
C680 C679 1.395 . S
C680 C681 1.288 . S
C681 C680 1.288 . S
C681 C682 1.392 . S
C682 H652 0.951 . S
C682 C681 1.392 . S
C682 C683 1.392 . S
C683 H653 0.949 . S
C683 C678 1.382 . S
C683 C682 1.392 . S
H684 C703 0.949 . S
H685 C704 0.950 . S
H686 C706 0.950 . S
H687 C707 0.950 . S
H688 C709 0.950 . S
H689 C712 0.950 . S
H690 C713 0.950 . S
H691 C715 0.951 . S
H692 C716 0.949 . S
H693 C718 0.949 . S
H694 C719 0.950 . S
H695 C721 0.950 . S
H696 C722 0.950 . S
H697 C724 0.950 . S
H698 C727 0.950 . S
H699 C728 0.950 . S
H700 C730 0.951 . S
H701 C731 0.949 . S
C702 C703 1.376 . S
C702 C707 1.386 1_655 S
C702 C708 1.483 . S
C703 H684 0.949 . S
C703 C702 1.376 . S
C703 C704 1.397 . S
C704 H685 0.950 . S
C704 C703 1.397 . S
C704 C705 1.391 . S
C705 C704 1.391 . S
C705 C706 1.405 1_655 S
C706 H686 0.950 . S
C706 C705 1.405 1_455 S
C706 C707 1.367 . S
C707 H687 0.950 . S
C707 C702 1.386 1_455 S
C707 C706 1.367 . S
C708 C702 1.483 . S
C708 C709 1.382 . S
C708 C710 1.403 1_655 S
C709 H688 0.950 . S
C709 C708 1.382 . S
C709 C725 1.411 . S
C710 C708 1.403 1_455 S
C710 C711 1.489 . S
C710 C724 1.411 . S
C711 C710 1.489 . S
C711 C712 1.383 1_455 S
C711 C716 1.382 . S
C712 H689 0.950 . S
C712 C711 1.383 1_655 S
C712 C713 1.395 . S
C713 H690 0.950 . S
C713 C712 1.395 . S
C713 C714 1.288 1_655 S
C714 C713 1.288 1_455 S
C714 C715 1.392 . S
C715 H691 0.951 . S
C715 C714 1.392 . S
C715 C716 1.392 . S
C716 H692 0.949 . S
C716 C711 1.382 . S
C716 C715 1.392 . S
C717 C718 1.376 . S
C717 C722 1.386 1_455 S
C717 C723 1.483 . S
C718 H693 0.949 . S
C718 C717 1.376 . S
C718 C719 1.397 . S
C719 H694 0.950 . S
C719 C718 1.397 . S
C719 C720 1.391 . S
C720 C719 1.391 . S
C720 C721 1.405 1_455 S
C721 H695 0.950 . S
C721 C720 1.405 1_655 S
C721 C722 1.367 . S
C722 H696 0.950 . S
C722 C717 1.386 1_655 S
C722 C721 1.367 . S
C723 C717 1.483 . S
C723 C724 1.382 . S
C723 C725 1.403 1_455 S
C724 H697 0.950 . S
C724 C710 1.411 . S
C724 C723 1.382 . S
C725 C709 1.411 . S
C725 C723 1.403 1_655 S
C725 C726 1.489 . S
C726 C725 1.489 . S
C726 C727 1.383 1_655 S
C726 C731 1.382 . S
C727 H698 0.950 . S
C727 C726 1.383 1_455 S
C727 C728 1.395 . S
C728 H699 0.950 . S
C728 C727 1.395 . S
C728 C729 1.288 1_455 S
C729 C728 1.288 1_655 S
C729 C730 1.392 . S
C730 H700 0.951 . S
C730 C729 1.392 . S
C730 C731 1.392 . S
C731 H701 0.949 . S
C731 C726 1.382 . S
C731 C730 1.392 . S
H732 C751 0.949 . S
H733 C752 0.950 . S
H734 C754 0.950 . S
H735 C755 0.950 . S
H736 C757 0.950 . S
H737 C760 0.950 . S
H738 C761 0.950 . S
H739 C763 0.951 . S
H740 C764 0.949 . S
H741 C766 0.949 . S
H742 C767 0.950 . S
H743 C769 0.950 . S
H744 C770 0.950 . S
H745 C772 0.950 . S
H746 C775 0.950 . S
H747 C776 0.950 . S
H748 C778 0.951 . S
H749 C779 0.949 . S
C750 C751 1.376 . S
C750 C755 1.386 . S
C750 C756 1.483 . S
C751 H732 0.949 . S
C751 C750 1.376 . S
C751 C752 1.397 . S
C752 H733 0.950 . S
C752 C751 1.397 . S
C752 C753 1.391 . S
C753 C752 1.391 . S
C753 C754 1.405 . S
C754 H734 0.950 . S
C754 C753 1.405 . S
C754 C755 1.367 . S
C755 H735 0.950 . S
C755 C750 1.386 . S
C755 C754 1.367 . S
C756 C750 1.483 . S
C756 C757 1.382 . S
C756 C758 1.403 . S
C757 H736 0.950 . S
C757 C756 1.382 . S
C757 C773 1.411 . S
C758 C756 1.403 . S
C758 C759 1.489 . S
C758 C772 1.411 . S
C759 C758 1.489 . S
C759 C760 1.383 . S
C759 C764 1.382 . S
C760 H737 0.950 . S
C760 C759 1.383 . S
C760 C761 1.395 . S
C761 H738 0.950 . S
C761 C760 1.395 . S
C761 C762 1.288 . S
C762 C761 1.288 . S
C762 C763 1.392 . S
C763 H739 0.951 . S
C763 C762 1.392 . S
C763 C764 1.392 . S
C764 H740 0.949 . S
C764 C759 1.382 . S
C764 C763 1.392 . S
C765 C766 1.376 . S
C765 C770 1.386 . S
C765 C771 1.483 . S
C766 H741 0.949 . S
C766 C765 1.376 . S
C766 C767 1.397 . S
C767 H742 0.950 . S
C767 C766 1.397 . S
C767 C768 1.391 . S
C768 C767 1.391 . S
C768 C769 1.405 . S
C769 H743 0.950 . S
C769 C768 1.405 . S
C769 C770 1.367 . S
C770 H744 0.950 . S
C770 C765 1.386 . S
C770 C769 1.367 . S
C771 C765 1.483 . S
C771 C772 1.382 . S
C771 C773 1.403 . S
C772 H745 0.950 . S
C772 C758 1.411 . S
C772 C771 1.382 . S
C773 C757 1.411 . S
C773 C771 1.403 . S
C773 C774 1.489 . S
C774 C773 1.489 . S
C774 C775 1.383 . S
C774 C779 1.382 . S
C775 H746 0.950 . S
C775 C774 1.383 . S
C775 C776 1.395 . S
C776 H747 0.950 . S
C776 C775 1.395 . S
C776 C777 1.288 . S
C777 C776 1.288 . S
C777 C778 1.392 . S
C778 H748 0.951 . S
C778 C777 1.392 . S
C778 C779 1.392 . S
C779 H749 0.949 . S
C779 C774 1.382 . S
C779 C778 1.392 . S
H780 C799 0.949 . S
H781 C800 0.950 . S
H782 C802 0.950 . S
H783 C803 0.950 . S
H784 C805 0.950 . S
H785 C808 0.950 . S
H786 C809 0.950 . S
H787 C811 0.951 . S
H788 C812 0.949 . S
H789 C814 0.949 . S
H790 C815 0.950 . S
H791 C817 0.950 . S
H792 C818 0.950 . S
H793 C820 0.950 . S
H794 C823 0.950 . S
H795 C824 0.950 . S
H796 C826 0.951 . S
H797 C827 0.949 . S
C798 C799 1.376 . S
C798 C803 1.386 1_545 S
C798 C804 1.483 . S
C799 H780 0.949 . S
C799 C798 1.376 . S
C799 C800 1.397 . S
C800 H781 0.950 . S
C800 C799 1.397 . S
C800 C801 1.391 . S
C801 C800 1.391 . S
C801 C802 1.405 1_545 S
C802 H782 0.950 . S
C802 C801 1.405 1_565 S
C802 C803 1.367 . S
C803 H783 0.950 . S
C803 C798 1.386 1_565 S
C803 C802 1.367 . S
C804 C798 1.483 . S
C804 C805 1.382 . S
C804 C806 1.403 1_545 S
C805 H784 0.950 . S
C805 C804 1.382 . S
C805 C821 1.411 . S
C806 C804 1.403 1_565 S
C806 C807 1.489 . S
C806 C820 1.411 . S
C807 C806 1.489 . S
C807 C808 1.383 1_565 S
C807 C812 1.382 . S
C808 H785 0.950 . S
C808 C807 1.383 1_545 S
C808 C809 1.395 . S
C809 H786 0.950 . S
C809 C808 1.395 . S
C809 C810 1.288 1_545 S
C810 C809 1.288 1_565 S
C810 C811 1.392 . S
C811 H787 0.951 . S
C811 C810 1.392 . S
C811 C812 1.392 . S
C812 H788 0.949 . S
C812 C807 1.382 . S
C812 C811 1.392 . S
C813 C814 1.376 . S
C813 C818 1.386 1_565 S
C813 C819 1.483 . S
C814 H789 0.949 . S
C814 C813 1.376 . S
C814 C815 1.397 . S
C815 H790 0.950 . S
C815 C814 1.397 . S
C815 C816 1.391 . S
C816 C815 1.391 . S
C816 C817 1.405 1_565 S
C817 H791 0.950 . S
C817 C816 1.405 1_545 S
C817 C818 1.367 . S
C818 H792 0.950 . S
C818 C813 1.386 1_545 S
C818 C817 1.367 . S
C819 C813 1.483 . S
C819 C820 1.382 . S
C819 C821 1.403 1_565 S
C820 H793 0.950 . S
C820 C806 1.411 . S
C820 C819 1.382 . S
C821 C805 1.411 . S
C821 C819 1.403 1_545 S
C821 C822 1.489 . S
C822 C821 1.489 . S
C822 C823 1.383 1_545 S
C822 C827 1.382 . S
C823 H794 0.950 . S
C823 C822 1.383 1_565 S
C823 C824 1.395 . S
C824 H795 0.950 . S
C824 C823 1.395 . S
C824 C825 1.288 1_565 S
C825 C824 1.288 1_545 S
C825 C826 1.392 . S
C826 H796 0.951 . S
C826 C825 1.392 . S
C826 C827 1.392 . S
C827 H797 0.949 . S
C827 C822 1.382 . S
C827 C826 1.392 . S
H828 C847 0.949 . S
H829 C848 0.950 . S
H830 C850 0.950 . S
H831 C851 0.950 . S
H832 C853 0.950 . S
H833 C856 0.950 . S
H834 C857 0.950 . S
H835 C859 0.951 . S
H836 C860 0.949 . S
H837 C862 0.949 . S
H838 C863 0.950 . S
H839 C865 0.950 . S
H840 C866 0.950 . S
H841 C868 0.950 . S
H842 C871 0.950 . S
H843 C872 0.950 . S
H844 C874 0.951 . S
H845 C875 0.949 . S
C846 C847 1.397 . S
C846 C851 1.376 1_545 S
C846 C852 1.501 . S
C847 H828 0.949 . S
C847 C846 1.397 . S
C847 C848 1.397 . S
C848 H829 0.950 . S
C848 C847 1.397 . S
C848 C849 1.391 1_545 S
C849 C848 1.391 1_565 S
C849 C850 1.405 . S
C850 H830 0.950 . S
C850 C849 1.405 . S
C850 C851 1.367 . S
C851 H831 0.950 . S
C851 C846 1.376 1_565 S
C851 C850 1.367 . S
C852 C846 1.501 . S
C852 C853 1.354 . S
C852 C854 1.399 1_545 S
C853 H832 0.950 . S
C853 C852 1.354 . S
C853 C869 1.443 . S
C854 C852 1.399 1_565 S
C854 C855 1.482 . S
C854 C868 1.432 . S
C855 C854 1.482 . S
C855 C856 1.359 1_565 S
C855 C860 1.395 . S
C856 H833 0.950 . S
C856 C855 1.359 1_545 S
C856 C857 1.395 . S
C857 H834 0.950 . S
C857 C856 1.395 . S
C857 C858 1.288 . S
C858 C857 1.288 . S
C858 C859 1.392 1_545 S
C859 H835 0.951 . S
C859 C858 1.392 1_565 S
C859 C860 1.392 . S
C860 H836 0.949 . S
C860 C855 1.395 . S
C860 C859 1.392 . S
C861 C862 1.381 . S
C861 C866 1.384 1_565 S
C861 C867 1.501 . S
C862 H837 0.949 . S
C862 C861 1.381 . S
C862 C863 1.397 . S
C863 H838 0.950 . S
C863 C862 1.397 . S
C863 C864 1.391 1_565 S
C864 C863 1.391 1_545 S
C864 C865 1.405 . S
C865 H839 0.950 . S
C865 C864 1.405 . S
C865 C866 1.367 . S
C866 H840 0.950 . S
C866 C861 1.384 1_545 S
C866 C865 1.367 . S
C867 C861 1.501 . S
C867 C868 1.363 . S
C867 C869 1.399 1_565 S
C868 H841 0.950 . S
C868 C854 1.432 . S
C868 C867 1.363 . S
C869 C853 1.443 . S
C869 C867 1.399 1_545 S
C869 C870 1.482 . S
C870 C869 1.482 . S
C870 C871 1.337 1_545 S
C870 C875 1.406 . S
C871 H842 0.950 . S
C871 C870 1.337 1_565 S
C871 C872 1.395 . S
C872 H843 0.950 . S
C872 C871 1.395 . S
C872 C873 1.336 . S
C873 C872 1.336 . S
C873 C874 1.299 1_565 S
C874 H844 0.951 . S
C874 C873 1.299 1_545 S
C874 C875 1.392 . S
C875 H845 0.949 . S
C875 C870 1.406 . S
C875 C874 1.392 . S
H876 C895 0.949 . S
H877 C896 0.950 . S
H878 C898 0.950 . S
H879 C899 0.950 . S
H880 C901 0.950 . S
H881 C904 0.950 . S
H882 C905 0.950 . S
H883 C907 0.951 . S
H884 C908 0.949 . S
H885 C910 0.949 . S
H886 C911 0.950 . S
H887 C913 0.950 . S
H888 C914 0.950 . S
H889 C916 0.950 . S
H890 C919 0.950 . S
H891 C920 0.950 . S
H892 C922 0.951 . S
H893 C923 0.949 . S
C894 C895 1.376 . S
C894 C899 1.386 1_455 S
C894 C900 1.483 . S
C895 H876 0.949 . S
C895 C894 1.376 . S
C895 C896 1.397 . S
C896 H877 0.950 . S
C896 C895 1.397 . S
C896 C897 1.391 . S
C897 C896 1.391 . S
C897 C898 1.405 1_455 S
C898 H878 0.950 . S
C898 C897 1.405 1_655 S
C898 C899 1.367 . S
C899 H879 0.950 . S
C899 C894 1.386 1_655 S
C899 C898 1.367 . S
C900 C894 1.483 . S
C900 C901 1.382 . S
C900 C902 1.403 1_455 S
C901 H880 0.950 . S
C901 C900 1.382 . S
C901 C917 1.411 . S
C902 C900 1.403 1_655 S
C902 C903 1.489 . S
C902 C916 1.411 . S
C903 C902 1.489 . S
C903 C904 1.383 1_655 S
C903 C908 1.382 . S
C904 H881 0.950 . S
C904 C903 1.383 1_455 S
C904 C905 1.395 . S
C905 H882 0.950 . S
C905 C904 1.395 . S
C905 C906 1.288 1_455 S
C906 C905 1.288 1_655 S
C906 C907 1.392 . S
C907 H883 0.951 . S
C907 C906 1.392 . S
C907 C908 1.392 . S
C908 H884 0.949 . S
C908 C903 1.382 . S
C908 C907 1.392 . S
C909 C910 1.376 . S
C909 C914 1.386 1_655 S
C909 C915 1.483 . S
C910 H885 0.949 . S
C910 C909 1.376 . S
C910 C911 1.397 . S
C911 H886 0.950 . S
C911 C910 1.397 . S
C911 C912 1.391 . S
C912 C911 1.391 . S
C912 C913 1.405 1_655 S
C913 H887 0.950 . S
C913 C912 1.405 1_455 S
C913 C914 1.367 . S
C914 H888 0.950 . S
C914 C909 1.386 1_455 S
C914 C913 1.367 . S
C915 C909 1.483 . S
C915 C916 1.382 . S
C915 C917 1.403 1_655 S
C916 H889 0.950 . S
C916 C902 1.411 . S
C916 C915 1.382 . S
C917 C901 1.411 . S
C917 C915 1.403 1_455 S
C917 C918 1.489 . S
C918 C917 1.489 . S
C918 C919 1.383 1_455 S
C918 C923 1.382 . S
C919 H890 0.950 . S
C919 C918 1.383 1_655 S
C919 C920 1.395 . S
C920 H891 0.950 . S
C920 C919 1.395 . S
C920 C921 1.288 1_655 S
C921 C920 1.288 1_455 S
C921 C922 1.392 . S
C922 H892 0.951 . S
C922 C921 1.392 . S
C922 C923 1.392 . S
C923 H893 0.949 . S
C923 C918 1.382 . S
C923 C922 1.392 . S
H924 C943 0.949 . S
H925 C944 0.950 . S
H926 C946 0.950 . S
H927 C947 0.950 . S
H928 C949 0.950 . S
H929 C952 0.950 . S
H930 C953 0.950 . S
H931 C955 0.951 . S
H932 C956 0.949 . S
H933 C958 0.949 . S
H934 C959 0.950 . S
H935 C961 0.950 . S
H936 C962 0.950 . S
H937 C964 0.950 . S
H938 C967 0.950 . S
H939 C968 0.950 . S
H940 C970 0.951 . S
H941 C971 0.949 . S
C942 C943 1.376 . S
C942 C947 1.386 . S
C942 C948 1.483 . S
C943 H924 0.949 . S
C943 C942 1.376 . S
C943 C944 1.397 . S
C944 H925 0.950 . S
C944 C943 1.397 . S
C944 C945 1.391 . S
C945 C944 1.391 . S
C945 C946 1.405 . S
C946 H926 0.950 . S
C946 C945 1.405 . S
C946 C947 1.367 . S
C947 H927 0.950 . S
C947 C942 1.386 . S
C947 C946 1.367 . S
C948 C942 1.483 . S
C948 C949 1.382 . S
C948 C950 1.403 . S
C949 H928 0.950 . S
C949 C948 1.382 . S
C949 C965 1.411 . S
C950 C948 1.403 . S
C950 C951 1.489 . S
C950 C964 1.411 . S
C951 C950 1.489 . S
C951 C952 1.383 . S
C951 C956 1.382 . S
C952 H929 0.950 . S
C952 C951 1.383 . S
C952 C953 1.395 . S
C953 H930 0.950 . S
C953 C952 1.395 . S
C953 C954 1.288 . S
C954 C953 1.288 . S
C954 C955 1.392 . S
C955 H931 0.951 . S
C955 C954 1.392 . S
C955 C956 1.392 . S
C956 H932 0.949 . S
C956 C951 1.382 . S
C956 C955 1.392 . S
C957 C958 1.376 . S
C957 C962 1.386 . S
C957 C963 1.483 . S
C958 H933 0.949 . S
C958 C957 1.376 . S
C958 C959 1.397 . S
C959 H934 0.950 . S
C959 C958 1.397 . S
C959 C960 1.391 . S
C960 C959 1.391 . S
C960 C961 1.405 . S
C961 H935 0.950 . S
C961 C960 1.405 . S
C961 C962 1.367 . S
C962 H936 0.950 . S
C962 C957 1.386 . S
C962 C961 1.367 . S
C963 C957 1.483 . S
C963 C964 1.382 . S
C963 C965 1.403 . S
C964 H937 0.950 . S
C964 C950 1.411 . S
C964 C963 1.382 . S
C965 C949 1.411 . S
C965 C963 1.403 . S
C965 C966 1.489 . S
C966 C965 1.489 . S
C966 C967 1.383 . S
C966 C971 1.382 . S
C967 H938 0.950 . S
C967 C966 1.383 . S
C967 C968 1.395 . S
C968 H939 0.950 . S
C968 C967 1.395 . S
C968 C969 1.288 . S
C969 C968 1.288 . S
C969 C970 1.392 . S
C970 H940 0.951 . S
C970 C969 1.392 . S
C970 C971 1.392 . S
C971 H941 0.949 . S
C971 C966 1.382 . S
C971 C970 1.392 . S
H972 C991 0.949 . S
H973 C992 0.950 . S
H974 C994 0.950 . S
H975 C995 0.950 . S
H976 C997 0.950 . S
H977 C1000 0.950 . S
H978 C1001 0.950 . S
H979 C1003 0.951 . S
H980 C1004 0.949 . S
H981 C1006 0.949 . S
H982 C1007 0.950 . S
H983 C1009 0.950 . S
H984 C1010 0.950 . S
H985 C1012 0.950 . S
H986 C1015 0.950 . S
H987 C1016 0.950 . S
H988 C1018 0.951 . S
H989 C1019 0.949 . S
C990 C991 1.376 . S
C990 C995 1.386 . S
C990 C996 1.483 . S
C991 H972 0.949 . S
C991 C990 1.376 . S
C991 C992 1.397 . S
C992 H973 0.950 . S
C992 C991 1.397 . S
C992 C993 1.391 . S
C993 C992 1.391 . S
C993 C994 1.405 . S
C994 H974 0.950 . S
C994 C993 1.405 . S
C994 C995 1.367 . S
C995 H975 0.950 . S
C995 C990 1.386 . S
C995 C994 1.367 . S
C996 C990 1.483 . S
C996 C997 1.382 . S
C996 C998 1.403 . S
C997 H976 0.950 . S
C997 C996 1.382 . S
C997 C1013 1.411 . S
C998 C996 1.403 . S
C998 C999 1.489 . S
C998 C1012 1.411 . S
C999 C998 1.489 . S
C999 C1000 1.383 . S
C999 C1004 1.382 . S
C1000 H977 0.950 . S
C1000 C999 1.383 . S
C1000 C1001 1.395 . S
C1001 H978 0.950 . S
C1001 C1000 1.395 . S
C1001 C1002 1.288 . S
C1002 C1001 1.288 . S
C1002 C1003 1.392 . S
C1003 H979 0.951 . S
C1003 C1002 1.392 . S
C1003 C1004 1.392 . S
C1004 H980 0.949 . S
C1004 C999 1.382 . S
C1004 C1003 1.392 . S
C1005 C1006 1.376 . S
C1005 C1010 1.386 . S
C1005 C1011 1.483 . S
C1006 H981 0.949 . S
C1006 C1005 1.376 . S
C1006 C1007 1.397 . S
C1007 H982 0.950 . S
C1007 C1006 1.397 . S
C1007 C1008 1.391 . S
C1008 C1007 1.391 . S
C1008 C1009 1.405 . S
C1009 H983 0.950 . S
C1009 C1008 1.405 . S
C1009 C1010 1.367 . S
C1010 H984 0.950 . S
C1010 C1005 1.386 . S
C1010 C1009 1.367 . S
C1011 C1005 1.483 . S
C1011 C1012 1.382 . S
C1011 C1013 1.403 . S
C1012 H985 0.950 . S
C1012 C998 1.411 . S
C1012 C1011 1.382 . S
C1013 C997 1.411 . S
C1013 C1011 1.403 . S
C1013 C1014 1.489 . S
C1014 C1013 1.489 . S
C1014 C1015 1.383 . S
C1014 C1019 1.382 . S
C1015 H986 0.950 . S
C1015 C1014 1.383 . S
C1015 C1016 1.395 . S
C1016 H987 0.950 . S
C1016 C1015 1.395 . S
C1016 C1017 1.288 . S
C1017 C1016 1.288 . S
C1017 C1018 1.392 . S
C1018 H988 0.951 . S
C1018 C1017 1.392 . S
C1018 C1019 1.392 . S
C1019 H989 0.949 . S
C1019 C1014 1.382 . S
C1019 C1018 1.392 . S
H1020 C1039 0.949 . S
H1021 C1040 0.950 . S
H1022 C1042 0.950 . S
H1023 C1043 0.950 . S
H1024 C1045 0.950 . S
H1025 C1048 0.950 . S
H1026 C1049 0.950 . S
H1027 C1051 0.951 . S
H1028 C1052 0.949 . S
H1029 C1054 0.949 . S
H1030 C1055 0.950 . S
H1031 C1057 0.950 . S
H1032 C1058 0.950 . S
H1033 C1060 0.950 . S
H1034 C1063 0.950 . S
H1035 C1064 0.950 . S
H1036 C1066 0.951 . S
H1037 C1067 0.949 . S
C1038 C1039 1.376 . S
C1038 C1043 1.386 . S
C1038 C1044 1.483 . S
C1039 H1020 0.949 . S
C1039 C1038 1.376 . S
C1039 C1040 1.397 . S
C1040 H1021 0.950 . S
C1040 C1039 1.397 . S
C1040 C1041 1.391 . S
C1041 C1040 1.391 . S
C1041 C1042 1.405 . S
C1042 H1022 0.950 . S
C1042 C1041 1.405 . S
C1042 C1043 1.367 . S
C1043 H1023 0.950 . S
C1043 C1038 1.386 . S
C1043 C1042 1.367 . S
C1044 C1038 1.483 . S
C1044 C1045 1.382 . S
C1044 C1046 1.403 . S
C1045 H1024 0.950 . S
C1045 C1044 1.382 . S
C1045 C1061 1.411 . S
C1046 C1044 1.403 . S
C1046 C1047 1.489 . S
C1046 C1060 1.411 . S
C1047 C1046 1.489 . S
C1047 C1048 1.383 . S
C1047 C1052 1.382 . S
C1048 H1025 0.950 . S
C1048 C1047 1.383 . S
C1048 C1049 1.395 . S
C1049 H1026 0.950 . S
C1049 C1048 1.395 . S
C1049 C1050 1.288 . S
C1050 C1049 1.288 . S
C1050 C1051 1.392 . S
C1051 H1027 0.951 . S
C1051 C1050 1.392 . S
C1051 C1052 1.392 . S
C1052 H1028 0.949 . S
C1052 C1047 1.382 . S
C1052 C1051 1.392 . S
C1053 C1054 1.376 . S
C1053 C1058 1.386 . S
C1053 C1059 1.483 . S
C1054 H1029 0.949 . S
C1054 C1053 1.376 . S
C1054 C1055 1.397 . S
C1055 H1030 0.950 . S
C1055 C1054 1.397 . S
C1055 C1056 1.391 . S
C1056 C1055 1.391 . S
C1056 C1057 1.405 . S
C1057 H1031 0.950 . S
C1057 C1056 1.405 . S
C1057 C1058 1.367 . S
C1058 H1032 0.950 . S
C1058 C1053 1.386 . S
C1058 C1057 1.367 . S
C1059 C1053 1.483 . S
C1059 C1060 1.382 . S
C1059 C1061 1.403 . S
C1060 H1033 0.950 . S
C1060 C1046 1.411 . S
C1060 C1059 1.382 . S
C1061 C1045 1.411 . S
C1061 C1059 1.403 . S
C1061 C1062 1.489 . S
C1062 C1061 1.489 . S
C1062 C1063 1.383 . S
C1062 C1067 1.382 . S
C1063 H1034 0.950 . S
C1063 C1062 1.383 . S
C1063 C1064 1.395 . S
C1064 H1035 0.950 . S
C1064 C1063 1.395 . S
C1064 C1065 1.288 . S
C1065 C1064 1.288 . S
C1065 C1066 1.392 . S
C1066 H1036 0.951 . S
C1066 C1065 1.392 . S
C1066 C1067 1.392 . S
C1067 H1037 0.949 . S
C1067 C1062 1.382 . S
C1067 C1066 1.392 . S
H1068 C1087 0.949 . S
H1069 C1088 0.950 . S
H1070 C1090 0.950 . S
H1071 C1091 0.950 . S
H1072 C1093 0.950 . S
H1073 C1096 0.950 . S
H1074 C1097 0.950 . S
H1075 C1099 0.951 . S
H1076 C1100 0.949 . S
H1077 C1102 0.949 . S
H1078 C1103 0.950 . S
H1079 C1105 0.950 . S
H1080 C1106 0.950 . S
H1081 C1108 0.950 . S
H1082 C1111 0.950 . S
H1083 C1112 0.950 . S
H1084 C1114 0.951 . S
H1085 C1115 0.949 . S
C1086 C1087 1.376 . S
C1086 C1091 1.386 . S
C1086 C1092 1.483 . S
C1087 H1068 0.949 . S
C1087 C1086 1.376 . S
C1087 C1088 1.397 . S
C1088 H1069 0.950 . S
C1088 C1087 1.397 . S
C1088 C1089 1.391 . S
C1089 C1088 1.391 . S
C1089 C1090 1.405 . S
C1090 H1070 0.950 . S
C1090 C1089 1.405 . S
C1090 C1091 1.367 . S
C1091 H1071 0.950 . S
C1091 C1086 1.386 . S
C1091 C1090 1.367 . S
C1092 C1086 1.483 . S
C1092 C1093 1.382 . S
C1092 C1094 1.403 . S
C1093 H1072 0.950 . S
C1093 C1092 1.382 . S
C1093 C1109 1.411 . S
C1094 C1092 1.403 . S
C1094 C1095 1.489 . S
C1094 C1108 1.411 . S
C1095 C1094 1.489 . S
C1095 C1096 1.383 . S
C1095 C1100 1.382 . S
C1096 H1073 0.950 . S
C1096 C1095 1.383 . S
C1096 C1097 1.395 . S
C1097 H1074 0.950 . S
C1097 C1096 1.395 . S
C1097 C1098 1.288 . S
C1098 C1097 1.288 . S
C1098 C1099 1.392 . S
C1099 H1075 0.951 . S
C1099 C1098 1.392 . S
C1099 C1100 1.392 . S
C1100 H1076 0.949 . S
C1100 C1095 1.382 . S
C1100 C1099 1.392 . S
C1101 C1102 1.376 . S
C1101 C1106 1.386 . S
C1101 C1107 1.483 . S
C1102 H1077 0.949 . S
C1102 C1101 1.376 . S
C1102 C1103 1.397 . S
C1103 H1078 0.950 . S
C1103 C1102 1.397 . S
C1103 C1104 1.391 . S
C1104 C1103 1.391 . S
C1104 C1105 1.405 . S
C1105 H1079 0.950 . S
C1105 C1104 1.405 . S
C1105 C1106 1.367 . S
C1106 H1080 0.950 . S
C1106 C1101 1.386 . S
C1106 C1105 1.367 . S
C1107 C1101 1.483 . S
C1107 C1108 1.382 . S
C1107 C1109 1.403 . S
C1108 H1081 0.950 . S
C1108 C1094 1.411 . S
C1108 C1107 1.382 . S
C1109 C1093 1.411 . S
C1109 C1107 1.403 . S
C1109 C1110 1.489 . S
C1110 C1109 1.489 . S
C1110 C1111 1.383 . S
C1110 C1115 1.382 . S
C1111 H1082 0.950 . S
C1111 C1110 1.383 . S
C1111 C1112 1.395 . S
C1112 H1083 0.950 . S
C1112 C1111 1.395 . S
C1112 C1113 1.288 . S
C1113 C1112 1.288 . S
C1113 C1114 1.392 . S
C1114 H1084 0.951 . S
C1114 C1113 1.392 . S
C1114 C1115 1.392 . S
C1115 H1085 0.949 . S
C1115 C1110 1.382 . S
C1115 C1114 1.392 . S
H1116 C1124 0.929 . S
H1117 C1126 0.903 . S
H1118 C1128 0.930 . S
H1119 C1131 0.929 . S
H1120 C1134 0.930 . S
H1121 C1136 0.960 . S
H1122 C1136 0.960 . S
H1123 C1136 0.960 . S
C1124 H1116 0.929 . S
C1124 C1125 1.390 1_455 S
C1124 C1126 1.415 . S
C1125 C1124 1.390 1_655 S
C1125 C1131 1.390 . S
C1126 H1117 0.903 . S
C1126 C1124 1.415 . S
C1126 C1127 1.378 1_455 S
C1127 C1126 1.378 1_655 S
C1127 C1128 1.373 . S
C1127 C1132 1.520 . S
C1128 H1118 0.930 . S
C1128 C1127 1.373 . S
C1128 C1131 1.386 . S
H1129 C1145 0.930 . S
H1130 C1146 0.931 . S
C1131 H1119 0.929 . S
C1131 C1125 1.390 . S
C1131 C1128 1.386 . S
C1132 C1127 1.520 . S
C1132 C1134 1.395 . S
C1132 C1135 1.403 1_655 S
H1133 C1139 0.930 . S
C1134 H1120 0.930 . S
C1134 C1132 1.395 . S
C1134 C1137 1.403 . S
C1135 C1132 1.403 1_455 S
C1135 C1136 1.524 . S
C1135 C1139 1.400 . S
C1136 H1121 0.960 . S
C1136 H1122 0.960 . S
C1136 H1123 0.960 . S
C1136 C1135 1.524 . S
C1137 C1134 1.403 . S
C1137 C1138 1.392 . S
C1137 C1141 1.495 . S
C1138 C1137 1.392 . S
C1138 C1139 1.385 1_655 S
C1138 C1140 1.478 . S
C1139 H1133 0.930 . S
C1139 C1135 1.400 . S
C1139 C1138 1.385 1_455 S
C1140 C1138 1.478 . S
C1140 C1142 1.381 . S
C1140 C1146 1.383 . S
C1141 C1137 1.495 . S
C1141 H1147 0.959 . S
C1141 H1148 0.961 . S
C1141 H1149 0.960 . S
C1142 C1140 1.381 . S
C1142 C1143 1.383 . S
C1142 H1150 0.930 1_655 S
C1143 C1142 1.383 . S
C1143 C1144 1.385 . S
C1143 H1151 0.939 1_655 S
C1144 C1143 1.385 . S
C1144 C1145 1.377 . S
C1145 H1129 0.930 . S
C1145 C1144 1.377 . S
C1145 C1146 1.379 . S
C1146 H1130 0.931 . S
C1146 C1140 1.383 . S
C1146 C1145 1.379 . S
H1147 C1141 0.959 . S
H1148 C1141 0.961 . S
H1149 C1141 0.960 . S
H1150 C1142 0.930 1_455 S
H1151 C1143 0.939 1_455 S
H1152 C1160 0.929 . S
H1153 C1162 0.930 . S
H1154 C1164 0.930 . S
H1155 C1167 0.929 . S
H1156 C1170 0.930 . S
H1157 C1172 0.960 . S
H1158 C1172 0.960 . S
H1159 C1172 0.960 . S
C1160 H1152 0.929 . S
C1160 C1161 1.377 . S
C1160 C1162 1.384 . S
C1161 C1160 1.377 . S
C1161 C1167 1.390 . S
C1162 H1153 0.930 . S
C1162 C1160 1.384 . S
C1162 C1163 1.372 . S
C1163 C1162 1.372 . S
C1163 C1164 1.400 . S
C1163 C1168 1.490 . S
C1164 H1154 0.930 . S
C1164 C1163 1.400 . S
C1164 C1167 1.386 . S
H1165 C1181 0.930 . S
H1166 C1182 0.931 . S
C1167 H1155 0.929 . S
C1167 C1161 1.390 . S
C1167 C1164 1.386 . S
C1168 C1163 1.490 . S
C1168 C1170 1.395 . S
C1168 C1171 1.403 . S
H1169 C1175 0.930 . S
C1170 H1156 0.930 . S
C1170 C1168 1.395 . S
C1170 C1173 1.403 . S
C1171 C1168 1.403 . S
C1171 C1172 1.524 . S
C1171 C1175 1.400 . S
C1172 H1157 0.960 . S
C1172 H1158 0.960 . S
C1172 H1159 0.960 . S
C1172 C1171 1.524 . S
C1173 C1170 1.403 . S
C1173 C1174 1.392 . S
C1173 C1177 1.495 . S
C1174 C1173 1.392 . S
C1174 C1175 1.385 . S
C1174 C1176 1.478 . S
C1175 H1169 0.930 . S
C1175 C1171 1.400 . S
C1175 C1174 1.385 . S
C1176 C1174 1.478 . S
C1176 C1178 1.381 . S
C1176 C1182 1.383 . S
C1177 C1173 1.495 . S
C1177 H1183 0.959 . S
C1177 H1184 0.961 . S
C1177 H1185 0.960 . S
C1178 C1176 1.381 . S
C1178 C1179 1.394 . S
C1178 H1186 0.930 . S
C1179 C1178 1.394 . S
C1179 C1180 1.383 . S
C1179 H1187 0.929 . S
C1180 C1179 1.383 . S
C1180 C1181 1.377 . S
C1181 H1165 0.930 . S
C1181 C1180 1.377 . S
C1181 C1182 1.379 . S
C1182 H1166 0.931 . S
C1182 C1176 1.383 . S
C1182 C1181 1.379 . S
H1183 C1177 0.959 . S
H1184 C1177 0.961 . S
H1185 C1177 0.960 . S
H1186 C1178 0.930 . S
H1187 C1179 0.929 . S
H1188 C1196 0.909 . S
H1189 C1198 0.925 1_565 S
H1190 C1200 0.930 . S
H1191 C1203 0.929 . S
H1192 C1206 0.930 . S
H1193 C1208 0.960 . S
H1194 C1208 0.960 . S
H1195 C1208 0.960 . S
C1196 H1188 0.909 . S
C1196 C1197 1.377 . S
C1196 C1198 1.384 . S
C1197 C1196 1.377 . S
C1197 C1203 1.390 . S
C1198 H1189 0.925 1_545 S
C1198 C1196 1.384 . S
C1198 C1199 1.372 . S
C1199 C1198 1.372 . S
C1199 C1200 1.400 . S
C1199 C1204 1.490 . S
C1200 H1190 0.930 . S
C1200 C1199 1.400 . S
C1200 C1203 1.386 . S
H1201 C1217 0.930 . S
H1202 C1218 0.931 . S
C1203 H1191 0.929 . S
C1203 C1197 1.390 . S
C1203 C1200 1.386 . S
C1204 C1199 1.490 . S
C1204 C1206 1.395 1_545 S
C1204 C1207 1.403 . S
H1205 C1211 0.930 . S
C1206 H1192 0.930 . S
C1206 C1204 1.395 1_565 S
C1206 C1209 1.403 . S
C1207 C1204 1.403 . S
C1207 C1208 1.524 . S
C1207 C1211 1.400 . S
C1208 H1193 0.960 . S
C1208 H1194 0.960 . S
C1208 H1195 0.960 . S
C1208 C1207 1.524 . S
C1209 C1206 1.403 . S
C1209 C1210 1.392 1_565 S
C1209 C1213 1.495 . S
C1210 C1209 1.392 1_545 S
C1210 C1211 1.385 . S
C1210 C1212 1.478 . S
C1211 H1205 0.930 . S
C1211 C1207 1.400 . S
C1211 C1210 1.385 . S
C1212 C1210 1.478 . S
C1212 C1214 1.381 1_545 S
C1212 C1218 1.383 . S
C1213 C1209 1.495 . S
C1213 H1219 0.959 . S
C1213 H1220 0.961 . S
C1213 H1221 0.960 . S
C1214 C1212 1.381 1_565 S
C1214 C1215 1.374 . S
C1214 H1222 0.930 . S
C1215 C1214 1.374 . S
C1215 C1216 1.403 1_565 S
C1215 H1223 0.934 . S
C1216 C1215 1.403 1_545 S
C1216 C1217 1.377 . S
C1217 H1201 0.930 . S
C1217 C1216 1.377 . S
C1217 C1218 1.379 . S
C1218 H1202 0.931 . S
C1218 C1212 1.383 . S
C1218 C1217 1.379 . S
H1219 C1213 0.959 . S
H1220 C1213 0.961 . S
H1221 C1213 0.960 . S
H1222 C1214 0.930 . S
H1223 C1215 0.934 . S
H1224 C1232 0.929 . S
H1225 C1234 0.930 . S
H1226 C1236 0.930 . S
H1227 C1239 0.929 . S
H1228 C1242 0.930 . S
H1229 C1244 0.960 . S
H1230 C1244 0.960 . S
H1231 C1244 0.960 . S
C1232 H1224 0.929 . S
C1232 C1233 1.359 1_565 S
C1232 C1234 1.384 . S
C1233 C1232 1.359 1_545 S
C1233 C1239 1.400 . S
C1234 H1225 0.930 . S
C1234 C1232 1.384 . S
C1234 C1235 1.421 . S
C1235 C1234 1.421 . S
C1235 C1236 1.315 1_565 S
C1235 C1240 1.528 . S
C1236 H1226 0.930 . S
C1236 C1235 1.315 1_545 S
C1236 C1239 1.386 . S
H1237 C1253 0.930 . S
H1238 C1254 0.931 . S
C1239 H1227 0.929 . S
C1239 C1233 1.400 . S
C1239 C1236 1.386 . S
C1240 C1235 1.528 . S
C1240 C1242 1.395 . S
C1240 C1243 1.403 1_565 S
H1241 C1247 0.930 . S
C1242 H1228 0.930 . S
C1242 C1240 1.395 . S
C1242 C1245 1.403 . S
C1243 C1240 1.403 1_545 S
C1243 C1244 1.524 . S
C1243 C1247 1.400 . S
C1244 H1229 0.960 . S
C1244 H1230 0.960 . S
C1244 H1231 0.960 . S
C1244 C1243 1.524 . S
C1245 C1242 1.403 . S
C1245 C1246 1.392 . S
C1245 C1249 1.495 . S
C1246 C1245 1.392 . S
C1246 C1247 1.385 1_565 S
C1246 C1248 1.478 . S
C1247 H1241 0.930 . S
C1247 C1243 1.400 . S
C1247 C1246 1.385 1_545 S
C1248 C1246 1.478 . S
C1248 C1250 1.381 . S
C1248 C1254 1.383 1_565 S
C1249 C1245 1.495 . S
C1249 H1255 0.959 . S
C1249 H1256 0.961 . S
C1249 H1257 0.960 . S
C1250 C1248 1.381 . S
C1250 C1251 1.394 . S
C1250 H1258 0.930 . S
C1251 C1250 1.394 . S
C1251 C1252 1.383 . S
C1251 H1259 0.929 . S
C1252 C1251 1.383 . S
C1252 C1253 1.377 1_565 S
C1253 H1237 0.930 . S
C1253 C1252 1.377 1_545 S
C1253 C1254 1.379 . S
C1254 H1238 0.931 . S
C1254 C1248 1.383 1_545 S
C1254 C1253 1.379 . S
H1255 C1249 0.959 . S
H1256 C1249 0.961 . S
H1257 C1249 0.960 . S
H1258 C1250 0.930 . S
H1259 C1251 0.929 . S
H1260 C1268 0.929 . S
H1261 C1270 0.930 . S
H1262 C1272 0.930 . S
H1263 C1275 0.929 . S
H1264 C1278 0.930 . S
H1265 C1280 0.960 . S
H1266 C1280 0.960 1_455 S
H1267 C1280 0.960 . S
C1268 H1260 0.929 . S
C1268 C1269 1.377 . S
C1268 C1270 1.384 . S
C1269 C1268 1.377 . S
C1269 C1275 1.390 1_455 S
C1270 H1261 0.930 . S
C1270 C1268 1.384 . S
C1270 C1271 1.372 . S
C1271 C1270 1.372 . S
C1271 C1272 1.400 1_455 S
C1271 C1276 1.490 . S
C1272 H1262 0.930 . S
C1272 C1271 1.400 1_655 S
C1272 C1275 1.386 . S
H1273 C1289 0.930 . S
H1274 C1290 0.931 . S
C1275 H1263 0.929 . S
C1275 C1269 1.390 1_655 S
C1275 C1272 1.386 . S
C1276 C1271 1.490 . S
C1276 C1278 1.395 . S
C1276 C1279 1.463 . S
H1277 C1283 0.879 1_655 S
C1278 H1264 0.930 . S
C1278 C1276 1.395 . S
C1278 C1281 1.403 . S
C1279 C1276 1.463 . S
C1279 C1280 1.495 1_455 S
C1279 C1283 1.396 . S
C1280 H1265 0.960 . S
C1280 H1266 0.960 1_655 S
C1280 H1267 0.960 . S
C1280 C1279 1.495 1_655 S
C1281 C1278 1.403 . S
C1281 C1282 1.392 . S
C1281 C1285 1.495 . S
C1282 C1281 1.392 . S
C1282 C1283 1.412 . S
C1282 C1284 1.478 . S
C1283 H1277 0.879 1_455 S
C1283 C1279 1.396 . S
C1283 C1282 1.412 . S
C1284 C1282 1.478 . S
C1284 C1286 1.381 . S
C1284 C1290 1.383 1_455 S
C1285 C1281 1.495 . S
C1285 H1291 0.959 . S
C1285 H1292 0.961 . S
C1285 H1293 0.960 . S
C1286 C1284 1.381 . S
C1286 C1287 1.394 . S
C1286 H1294 0.930 . S
C1287 C1286 1.394 . S
C1287 C1288 1.383 . S
C1287 H1295 0.929 . S
C1288 C1287 1.383 . S
C1288 C1289 1.377 1_455 S
C1289 H1273 0.930 . S
C1289 C1288 1.377 1_655 S
C1289 C1290 1.379 . S
C1290 H1274 0.931 . S
C1290 C1284 1.383 1_655 S
C1290 C1289 1.379 . S
H1291 C1285 0.959 . S
H1292 C1285 0.961 . S
H1293 C1285 0.960 . S
H1294 C1286 0.930 . S
H1295 C1287 0.929 . S
H1296 C1304 0.929 . S
H1297 C1306 0.930 . S
H1298 C1308 0.930 . S
H1299 C1311 0.929 . S
H1300 C1314 0.930 . S
H1301 C1316 0.960 . S
H1302 C1316 0.960 . S
H1303 C1316 0.960 . S
C1304 H1296 0.929 . S
C1304 C1305 1.377 . S
C1304 C1306 1.384 . S
C1305 C1304 1.377 . S
C1305 C1311 1.390 . S
C1306 H1297 0.930 . S
C1306 C1304 1.384 . S
C1306 C1307 1.372 . S
C1307 C1306 1.372 . S
C1307 C1308 1.400 . S
C1307 C1312 1.490 . S
C1308 H1298 0.930 . S
C1308 C1307 1.400 . S
C1308 C1311 1.386 . S
H1309 C1325 0.930 . S
H1310 C1326 0.931 . S
C1311 H1299 0.929 . S
C1311 C1305 1.390 . S
C1311 C1308 1.386 . S
C1312 C1307 1.490 . S
C1312 C1314 1.395 . S
C1312 C1315 1.403 . S
H1313 C1319 0.930 . S
C1314 H1300 0.930 . S
C1314 C1312 1.395 . S
C1314 C1317 1.403 . S
C1315 C1312 1.403 . S
C1315 C1316 1.524 . S
C1315 C1319 1.400 . S
C1316 H1301 0.960 . S
C1316 H1302 0.960 . S
C1316 H1303 0.960 . S
C1316 C1315 1.524 . S
C1317 C1314 1.403 . S
C1317 C1318 1.392 . S
C1317 C1321 1.495 . S
C1318 C1317 1.392 . S
C1318 C1319 1.385 . S
C1318 C1320 1.478 . S
C1319 H1313 0.930 . S
C1319 C1315 1.400 . S
C1319 C1318 1.385 . S
C1320 C1318 1.478 . S
C1320 C1322 1.381 . S
C1320 C1326 1.383 . S
C1321 C1317 1.495 . S
C1321 H1327 0.959 . S
C1321 H1328 0.961 . S
C1321 H1329 0.960 . S
C1322 C1320 1.381 . S
C1322 C1323 1.394 . S
C1322 H1330 0.930 . S
C1323 C1322 1.394 . S
C1323 C1324 1.383 . S
C1323 H1331 0.929 . S
C1324 C1323 1.383 . S
C1324 C1325 1.377 . S
C1325 H1309 0.930 . S
C1325 C1324 1.377 . S
C1325 C1326 1.379 . S
C1326 H1310 0.931 . S
C1326 C1320 1.383 . S
C1326 C1325 1.379 . S
H1327 C1321 0.959 . S
H1328 C1321 0.961 . S
H1329 C1321 0.960 . S
H1330 C1322 0.930 . S
H1331 C1323 0.929 . S
H1332 C1340 0.929 . S
H1333 C1342 0.930 . S
H1334 C1344 0.930 . S
H1335 C1347 0.929 . S
H1336 C1350 0.930 . S
H1337 C1352 0.960 . S
H1338 C1352 0.960 . S
H1339 C1352 0.960 . S
C1340 H1332 0.929 . S
C1340 C1341 1.377 1_655 S
C1340 C1342 1.384 . S
C1341 C1340 1.377 1_455 S
C1341 C1347 1.390 . S
C1342 H1333 0.930 . S
C1342 C1340 1.384 . S
C1342 C1343 1.372 1_655 S
C1343 C1342 1.372 1_455 S
C1343 C1344 1.400 . S
C1343 C1348 1.490 . S
C1344 H1334 0.930 . S
C1344 C1343 1.400 . S
C1344 C1347 1.386 . S
H1345 C1361 0.930 . S
H1346 C1362 0.931 . S
C1347 H1335 0.929 . S
C1347 C1341 1.390 . S
C1347 C1344 1.386 . S
C1348 C1343 1.490 . S
C1348 C1350 1.395 1_455 S
C1348 C1351 1.403 . S
H1349 C1355 0.930 . S
C1350 H1336 0.930 . S
C1350 C1348 1.395 1_655 S
C1350 C1353 1.403 . S
C1351 C1348 1.403 . S
C1351 C1352 1.524 . S
C1351 C1355 1.400 . S
C1352 H1337 0.960 . S
C1352 H1338 0.960 . S
C1352 H1339 0.960 . S
C1352 C1351 1.524 . S
C1353 C1350 1.403 . S
C1353 C1354 1.392 1_655 S
C1353 C1357 1.495 . S
C1354 C1353 1.392 1_455 S
C1354 C1355 1.385 . S
C1354 C1356 1.478 . S
C1355 H1349 0.930 . S
C1355 C1351 1.400 . S
C1355 C1354 1.385 . S
C1356 C1354 1.478 . S
C1356 C1358 1.381 1_455 S
C1356 C1362 1.383 . S
C1357 C1353 1.495 . S
C1357 H1363 0.959 . S
C1357 H1364 0.941 1_655 S
C1357 H1365 0.960 . S
C1358 C1356 1.381 1_655 S
C1358 C1359 1.394 . S
C1358 H1366 0.930 . S
C1359 C1358 1.394 . S
C1359 C1360 1.383 1_655 S
C1359 H1367 0.929 . S
C1360 C1359 1.383 1_455 S
C1360 C1361 1.377 . S
C1361 H1345 0.930 . S
C1361 C1360 1.377 . S
C1361 C1362 1.379 . S
C1362 H1346 0.931 . S
C1362 C1356 1.383 . S
C1362 C1361 1.379 . S
H1363 C1357 0.959 . S
H1364 C1357 0.941 1_455 S
H1365 C1357 0.960 . S
H1366 C1358 0.930 . S
H1367 C1359 0.929 . S
H1368 C1376 0.929 . S
H1369 C1378 0.930 . S
H1370 C1380 0.930 . S
H1371 C1383 0.929 . S
H1372 C1386 0.930 . S
H1373 C1388 0.960 . S
H1374 C1388 0.960 . S
H1375 C1388 0.960 . S
C1376 H1368 0.929 . S
C1376 C1377 1.377 . S
C1376 C1378 1.384 . S
C1377 C1376 1.377 . S
C1377 C1383 1.390 . S
C1378 H1369 0.930 . S
C1378 C1376 1.384 . S
C1378 C1379 1.372 . S
C1379 C1378 1.372 . S
C1379 C1380 1.400 . S
C1379 C1384 1.490 . S
C1380 H1370 0.930 . S
C1380 C1379 1.400 . S
C1380 C1383 1.386 . S
H1381 C1397 0.930 . S
H1382 C1398 0.931 . S
C1383 H1371 0.929 . S
C1383 C1377 1.390 . S
C1383 C1380 1.386 . S
C1384 C1379 1.490 . S
C1384 C1386 1.395 . S
C1384 C1387 1.403 . S
H1385 C1391 0.930 . S
C1386 H1372 0.930 . S
C1386 C1384 1.395 . S
C1386 C1389 1.403 . S
C1387 C1384 1.403 . S
C1387 C1388 1.524 . S
C1387 C1391 1.400 . S
C1388 H1373 0.960 . S
C1388 H1374 0.960 . S
C1388 H1375 0.960 . S
C1388 C1387 1.524 . S
C1389 C1386 1.403 . S
C1389 C1390 1.392 . S
C1389 C1393 1.495 . S
C1390 C1389 1.392 . S
C1390 C1391 1.385 . S
C1390 C1392 1.478 . S
C1391 H1385 0.930 . S
C1391 C1387 1.400 . S
C1391 C1390 1.385 . S
C1392 C1390 1.478 . S
C1392 C1394 1.381 . S
C1392 C1398 1.383 . S
C1393 C1389 1.495 . S
C1393 H1399 0.959 . S
C1393 H1400 0.961 . S
C1393 H1401 0.960 . S
C1394 C1392 1.381 . S
C1394 C1395 1.394 . S
C1394 H1402 0.930 . S
C1395 C1394 1.394 . S
C1395 C1396 1.383 . S
C1395 H1403 0.929 . S
C1396 C1395 1.383 . S
C1396 C1397 1.377 . S
C1397 H1381 0.930 . S
C1397 C1396 1.377 . S
C1397 C1398 1.379 . S
C1398 H1382 0.931 . S
C1398 C1392 1.383 . S
C1398 C1397 1.379 . S
H1399 C1393 0.959 . S
H1400 C1393 0.961 . S
H1401 C1393 0.960 . S
H1402 C1394 0.930 . S
H1403 C1395 0.929 . S
H1404 C1412 0.929 . S
H1405 C1414 0.930 . S
H1406 C1416 0.930 . S
H1407 C1419 0.929 . S
H1408 C1422 0.930 . S
H1409 C1424 0.960 . S
H1410 C1424 0.960 1_565 S
H1411 C1424 0.960 . S
C1412 H1404 0.929 . S
C1412 C1413 1.377 . S
C1412 C1414 1.384 . S
C1413 C1412 1.377 . S
C1413 C1419 1.390 1_565 S
C1414 H1405 0.930 . S
C1414 C1412 1.384 . S
C1414 C1415 1.372 . S
C1415 C1414 1.372 . S
C1415 C1416 1.400 1_565 S
C1415 C1420 1.490 . S
C1416 H1406 0.930 . S
C1416 C1415 1.400 1_545 S
C1416 C1419 1.386 . S
H1417 C1433 0.930 . S
H1418 C1434 0.931 . S
C1419 H1407 0.929 . S
C1419 C1413 1.390 1_545 S
C1419 C1416 1.386 . S
C1420 C1415 1.490 . S
C1420 C1422 1.395 . S
C1420 C1423 1.412 . S
H1421 C1427 0.924 1_545 S
C1422 H1408 0.930 . S
C1422 C1420 1.395 . S
C1422 C1425 1.403 . S
C1423 C1420 1.412 . S
C1423 C1424 1.550 1_565 S
C1423 C1427 1.401 . S
C1424 H1409 0.960 . S
C1424 H1410 0.960 1_545 S
C1424 H1411 0.960 . S
C1424 C1423 1.550 1_545 S
C1425 C1422 1.403 . S
C1425 C1426 1.392 . S
C1425 C1429 1.495 . S
C1426 C1425 1.392 . S
C1426 C1427 1.364 . S
C1426 C1428 1.478 . S
C1427 H1421 0.924 1_565 S
C1427 C1423 1.401 . S
C1427 C1426 1.364 . S
C1428 C1426 1.478 . S
C1428 C1430 1.381 . S
C1428 C1434 1.383 1_565 S
C1429 C1425 1.495 . S
C1429 H1435 0.959 . S
C1429 H1436 0.961 . S
C1429 H1437 0.960 . S
C1430 C1428 1.381 . S
C1430 C1431 1.394 . S
C1430 H1438 0.930 . S
C1431 C1430 1.394 . S
C1431 C1432 1.383 . S
C1431 H1439 0.929 . S
C1432 C1431 1.383 . S
C1432 C1433 1.377 1_565 S
C1433 H1417 0.930 . S
C1433 C1432 1.377 1_545 S
C1433 C1434 1.379 . S
C1434 H1418 0.931 . S
C1434 C1428 1.383 1_545 S
C1434 C1433 1.379 . S
H1435 C1429 0.959 . S
H1436 C1429 0.961 . S
H1437 C1429 0.960 . S
H1438 C1430 0.930 . S
H1439 C1431 0.929 . S
H1440 C1448 0.929 . S
H1441 C1450 0.930 . S
H1442 C1452 0.930 . S
H1443 C1455 0.933 . S
H1444 C1458 0.930 . S
H1445 C1460 0.960 . S
H1446 C1460 0.960 . S
H1447 C1460 0.960 . S
C1448 H1440 0.929 . S
C1448 C1449 1.377 . S
C1448 C1450 1.384 . S
C1449 C1448 1.377 . S
C1449 C1455 1.388 1_545 S
C1450 H1441 0.930 . S
C1450 C1448 1.384 . S
C1450 C1451 1.372 . S
C1451 C1450 1.372 . S
C1451 C1452 1.399 1_545 S
C1451 C1456 1.490 . S
C1452 H1442 0.930 . S
C1452 C1451 1.399 1_565 S
C1452 C1455 1.384 . S
H1453 C1469 0.930 . S
H1454 C1470 0.931 . S
C1455 H1443 0.933 . S
C1455 C1449 1.388 1_565 S
C1455 C1452 1.384 . S
C1456 C1451 1.490 . S
C1456 C1458 1.395 1_545 S
C1456 C1459 1.403 . S
H1457 C1463 0.930 . S
C1458 H1444 0.930 . S
C1458 C1456 1.395 1_565 S
C1458 C1461 1.403 . S
C1459 C1456 1.403 . S
C1459 C1460 1.524 . S
C1459 C1463 1.400 . S
C1460 H1445 0.960 . S
C1460 H1446 0.960 . S
C1460 H1447 0.960 . S
C1460 C1459 1.524 . S
C1461 C1458 1.403 . S
C1461 C1462 1.392 1_565 S
C1461 C1465 1.495 . S
C1462 C1461 1.392 1_545 S
C1462 C1463 1.385 . S
C1462 C1464 1.455 . S
C1463 H1457 0.930 . S
C1463 C1459 1.400 . S
C1463 C1462 1.385 . S
C1464 C1462 1.455 . S
C1464 C1466 1.435 . S
C1464 C1470 1.357 1_545 S
C1465 C1461 1.495 . S
C1465 H1471 0.959 . S
C1465 H1472 0.961 . S
C1465 H1473 0.960 . S
C1466 C1464 1.435 . S
C1466 C1467 1.394 . S
C1466 H1474 0.930 . S
C1467 C1466 1.394 . S
C1467 C1468 1.383 . S
C1467 H1475 0.929 . S
C1468 C1467 1.383 . S
C1468 C1469 1.377 1_545 S
C1469 H1453 0.930 . S
C1469 C1468 1.377 1_565 S
C1469 C1470 1.379 . S
C1470 H1454 0.931 . S
C1470 C1464 1.357 1_565 S
C1470 C1469 1.379 . S
H1471 C1465 0.959 . S
H1472 C1465 0.961 . S
H1473 C1465 0.960 . S
H1474 C1466 0.930 . S
H1475 C1467 0.929 . S
H1476 C1484 0.929 . S
H1477 C1486 0.930 . S
H1478 C1488 0.940 . S
H1479 C1491 0.934 . S
H1480 C1494 0.930 . S
H1481 C1496 0.960 . S
H1482 C1496 0.960 . S
H1483 C1496 0.960 . S
C1484 H1476 0.929 . S
C1484 C1485 1.377 . S
C1484 C1486 1.384 . S
C1485 C1484 1.377 . S
C1485 C1491 1.378 1_655 S
C1486 H1477 0.930 . S
C1486 C1484 1.384 . S
C1486 C1487 1.372 . S
C1487 C1486 1.372 . S
C1487 C1488 1.396 1_655 S
C1487 C1492 1.490 . S
C1488 H1478 0.940 . S
C1488 C1487 1.396 1_455 S
C1488 C1491 1.387 . S
H1489 C1505 0.930 . S
H1490 C1506 0.931 . S
C1491 H1479 0.934 . S
C1491 C1485 1.378 1_455 S
C1491 C1488 1.387 . S
C1492 C1487 1.490 . S
C1492 C1494 1.395 . S
C1492 C1495 1.403 1_655 S
H1493 C1499 0.930 . S
C1494 H1480 0.930 . S
C1494 C1492 1.395 . S
C1494 C1497 1.403 . S
C1495 C1492 1.403 1_455 S
C1495 C1496 1.524 . S
C1495 C1499 1.400 . S
C1496 H1481 0.960 . S
C1496 H1482 0.960 . S
C1496 H1483 0.960 . S
C1496 C1495 1.524 . S
C1497 C1494 1.403 . S
C1497 C1498 1.392 . S
C1497 C1501 1.495 . S
C1498 C1497 1.392 . S
C1498 C1499 1.385 1_655 S
C1498 C1500 1.478 . S
C1499 H1493 0.930 . S
C1499 C1495 1.400 . S
C1499 C1498 1.385 1_455 S
C1500 C1498 1.478 . S
C1500 C1502 1.381 . S
C1500 C1506 1.383 . S
C1501 C1497 1.495 . S
C1501 H1507 0.959 . S
C1501 H1508 0.961 . S
C1501 H1509 0.960 . S
C1502 C1500 1.381 . S
C1502 C1503 1.394 . S
C1502 H1510 0.930 . S
C1503 C1502 1.394 . S
C1503 C1504 1.383 . S
C1503 H1511 0.929 . S
C1504 C1503 1.383 . S
C1504 C1505 1.377 . S
C1505 H1489 0.930 . S
C1505 C1504 1.377 . S
C1505 C1506 1.379 . S
C1506 H1490 0.931 . S
C1506 C1500 1.383 . S
C1506 C1505 1.379 . S
H1507 C1501 0.959 . S
H1508 C1501 0.961 . S
H1509 C1501 0.960 . S
H1510 C1502 0.930 . S
H1511 C1503 0.929 . S
H1512 C1520 0.929 . S
H1513 C1522 0.930 . S
H1514 C1524 0.930 . S
H1515 C1527 0.929 . S
H1516 C1530 0.930 . S
H1517 C1532 0.960 . S
H1518 C1532 0.960 . S
H1519 C1532 0.960 . S
C1520 H1512 0.929 . S
C1520 C1521 1.377 . S
C1520 C1522 1.384 . S
C1521 C1520 1.377 . S
C1521 C1527 1.390 . S
C1522 H1513 0.930 . S
C1522 C1520 1.384 . S
C1522 C1523 1.372 . S
C1523 C1522 1.372 . S
C1523 C1524 1.400 . S
C1523 C1528 1.490 . S
C1524 H1514 0.930 . S
C1524 C1523 1.400 . S
C1524 C1527 1.386 . S
H1525 C1541 0.930 . S
H1526 C1542 0.931 . S
C1527 H1515 0.929 . S
C1527 C1521 1.390 . S
C1527 C1524 1.386 . S
C1528 C1523 1.490 . S
C1528 C1530 1.395 . S
C1528 C1531 1.403 . S
H1529 C1535 0.930 . S
C1530 H1516 0.930 . S
C1530 C1528 1.395 . S
C1530 C1533 1.403 . S
C1531 C1528 1.403 . S
C1531 C1532 1.524 . S
C1531 C1535 1.400 . S
C1532 H1517 0.960 . S
C1532 H1518 0.960 . S
C1532 H1519 0.960 . S
C1532 C1531 1.524 . S
C1533 C1530 1.403 . S
C1533 C1534 1.392 . S
C1533 C1537 1.495 . S
C1534 C1533 1.392 . S
C1534 C1535 1.385 . S
C1534 C1536 1.478 . S
C1535 H1529 0.930 . S
C1535 C1531 1.400 . S
C1535 C1534 1.385 . S
C1536 C1534 1.478 . S
C1536 C1538 1.381 . S
C1536 C1542 1.383 . S
C1537 C1533 1.495 . S
C1537 H1543 0.959 . S
C1537 H1544 0.961 . S
C1537 H1545 0.960 . S
C1538 C1536 1.381 . S
C1538 C1539 1.394 . S
C1538 H1546 0.930 . S
C1539 C1538 1.394 . S
C1539 C1540 1.383 . S
C1539 H1547 0.929 . S
C1540 C1539 1.383 . S
C1540 C1541 1.377 . S
C1541 H1525 0.930 . S
C1541 C1540 1.377 . S
C1541 C1542 1.379 . S
C1542 H1526 0.931 . S
C1542 C1536 1.383 . S
C1542 C1541 1.379 . S
H1543 C1537 0.959 . S
H1544 C1537 0.961 . S
H1545 C1537 0.960 . S
H1546 C1538 0.930 . S
H1547 C1539 0.929 . S
H1548 C1556 0.929 . S
H1549 C1558 0.930 . S
H1550 C1560 0.930 . S
H1551 C1563 0.929 . S
H1552 C1566 0.930 . S
H1553 C1568 0.960 . S
H1554 C1568 0.960 . S
H1555 C1568 0.960 . S
C1556 H1548 0.929 . S
C1556 C1557 1.377 . S
C1556 C1558 1.384 . S
C1557 C1556 1.377 . S
C1557 C1563 1.390 . S
C1558 H1549 0.930 . S
C1558 C1556 1.384 . S
C1558 C1559 1.372 . S
C1559 C1558 1.372 . S
C1559 C1560 1.400 . S
C1559 C1564 1.490 . S
C1560 H1550 0.930 . S
C1560 C1559 1.400 . S
C1560 C1563 1.386 . S
H1561 C1577 0.930 . S
H1562 C1578 0.931 . S
C1563 H1551 0.929 . S
C1563 C1557 1.390 . S
C1563 C1560 1.386 . S
C1564 C1559 1.490 . S
C1564 C1566 1.395 . S
C1564 C1567 1.403 . S
H1565 C1571 0.930 . S
C1566 H1552 0.930 . S
C1566 C1564 1.395 . S
C1566 C1569 1.403 . S
C1567 C1564 1.403 . S
C1567 C1568 1.524 . S
C1567 C1571 1.400 . S
C1568 H1553 0.960 . S
C1568 H1554 0.960 . S
C1568 H1555 0.960 . S
C1568 C1567 1.524 . S
C1569 C1566 1.403 . S
C1569 C1570 1.392 . S
C1569 C1573 1.495 . S
C1570 C1569 1.392 . S
C1570 C1571 1.385 . S
C1570 C1572 1.478 . S
C1571 H1565 0.930 . S
C1571 C1567 1.400 . S
C1571 C1570 1.385 . S
C1572 C1570 1.478 . S
C1572 C1574 1.381 . S
C1572 C1578 1.383 . S
C1573 C1569 1.495 . S
C1573 H1579 0.959 . S
C1573 H1580 0.961 . S
C1573 H1581 0.960 . S
C1574 C1572 1.381 . S
C1574 C1575 1.394 . S
C1574 H1582 0.930 . S
C1575 C1574 1.394 . S
C1575 C1576 1.383 . S
C1575 H1583 0.929 . S
C1576 C1575 1.383 . S
C1576 C1577 1.377 . S
C1577 H1561 0.930 . S
C1577 C1576 1.377 . S
C1577 C1578 1.379 . S
C1578 H1562 0.931 . S
C1578 C1572 1.383 . S
C1578 C1577 1.379 . S
H1579 C1573 0.959 . S
H1580 C1573 0.961 . S
H1581 C1573 0.960 . S
H1582 C1574 0.930 . S
H1583 C1575 0.929 . S
H1584 C1592 0.929 . S
H1585 C1594 0.930 . S
H1586 C1596 0.930 . S
H1587 C1599 0.929 . S
H1588 C1602 0.930 . S
H1589 C1604 0.960 . S
H1590 C1604 0.960 . S
H1591 C1604 0.960 . S
C1592 H1584 0.929 . S
C1592 C1593 1.377 . S
C1592 C1594 1.384 . S
C1593 C1592 1.377 . S
C1593 C1599 1.390 . S
C1594 H1585 0.930 . S
C1594 C1592 1.384 . S
C1594 C1595 1.372 . S
C1595 C1594 1.372 . S
C1595 C1596 1.400 . S
C1595 C1600 1.490 . S
C1596 H1586 0.930 . S
C1596 C1595 1.400 . S
C1596 C1599 1.386 . S
H1597 C1613 0.930 . S
H1598 C1614 0.931 . S
C1599 H1587 0.929 . S
C1599 C1593 1.390 . S
C1599 C1596 1.386 . S
C1600 C1595 1.490 . S
C1600 C1602 1.395 . S
C1600 C1603 1.403 . S
H1601 C1607 0.930 . S
C1602 H1588 0.930 . S
C1602 C1600 1.395 . S
C1602 C1605 1.403 . S
C1603 C1600 1.403 . S
C1603 C1604 1.524 . S
C1603 C1607 1.400 . S
C1604 H1589 0.960 . S
C1604 H1590 0.960 . S
C1604 H1591 0.960 . S
C1604 C1603 1.524 . S
C1605 C1602 1.403 . S
C1605 C1606 1.392 . S
C1605 C1609 1.495 . S
C1606 C1605 1.392 . S
C1606 C1607 1.385 . S
C1606 C1608 1.478 . S
C1607 H1601 0.930 . S
C1607 C1603 1.400 . S
C1607 C1606 1.385 . S
C1608 C1606 1.478 . S
C1608 C1610 1.381 . S
C1608 C1614 1.383 . S
C1609 C1605 1.495 . S
C1609 H1615 0.959 . S
C1609 H1616 0.961 . S
C1609 H1617 0.960 . S
C1610 C1608 1.381 . S
C1610 C1611 1.394 . S
C1610 H1618 0.930 . S
C1611 C1610 1.394 . S
C1611 C1612 1.383 . S
C1611 H1619 0.929 . S
C1612 C1611 1.383 . S
C1612 C1613 1.377 . S
C1613 H1597 0.930 . S
C1613 C1612 1.377 . S
C1613 C1614 1.379 . S
C1614 H1598 0.931 . S
C1614 C1608 1.383 . S
C1614 C1613 1.379 . S
H1615 C1609 0.959 . S
H1616 C1609 0.961 . S
H1617 C1609 0.960 . S
H1618 C1610 0.930 . S
H1619 C1611 0.929 . S
H1620 C1628 0.929 . S
H1621 C1630 0.930 . S
H1622 C1632 0.930 . S
H1623 C1635 0.929 . S
H1624 C1638 0.930 . S
H1625 C1640 0.960 . S
H1626 C1640 0.960 . S
H1627 C1640 0.960 . S
C1628 H1620 0.929 . S
C1628 C1629 1.377 . S
C1628 C1630 1.384 . S
C1629 C1628 1.377 . S
C1629 C1635 1.390 . S
C1630 H1621 0.930 . S
C1630 C1628 1.384 . S
C1630 C1631 1.372 . S
C1631 C1630 1.372 . S
C1631 C1632 1.400 . S
C1631 C1636 1.490 . S
C1632 H1622 0.930 . S
C1632 C1631 1.400 . S
C1632 C1635 1.386 . S
H1633 C1649 0.930 . S
H1634 C1650 0.931 . S
C1635 H1623 0.929 . S
C1635 C1629 1.390 . S
C1635 C1632 1.386 . S
C1636 C1631 1.490 . S
C1636 C1638 1.395 . S
C1636 C1639 1.403 . S
H1637 C1643 0.930 . S
C1638 H1624 0.930 . S
C1638 C1636 1.395 . S
C1638 C1641 1.403 . S
C1639 C1636 1.403 . S
C1639 C1640 1.524 . S
C1639 C1643 1.400 . S
C1640 H1625 0.960 . S
C1640 H1626 0.960 . S
C1640 H1627 0.960 . S
C1640 C1639 1.524 . S
C1641 C1638 1.403 . S
C1641 C1642 1.392 . S
C1641 C1645 1.495 . S
C1642 C1641 1.392 . S
C1642 C1643 1.385 . S
C1642 C1644 1.478 . S
C1643 H1637 0.930 . S
C1643 C1639 1.400 . S
C1643 C1642 1.385 . S
C1644 C1642 1.478 . S
C1644 C1646 1.381 . S
C1644 C1650 1.383 . S
C1645 C1641 1.495 . S
C1645 H1651 0.959 . S
C1645 H1652 0.961 . S
C1645 H1653 0.960 . S
C1646 C1644 1.381 . S
C1646 C1647 1.394 . S
C1646 H1654 0.930 . S
C1647 C1646 1.394 . S
C1647 C1648 1.383 . S
C1647 H1655 0.929 . S
C1648 C1647 1.383 . S
C1648 C1649 1.377 . S
C1649 H1633 0.930 . S
C1649 C1648 1.377 . S
C1649 C1650 1.379 . S
C1650 H1634 0.931 . S
C1650 C1644 1.383 . S
C1650 C1649 1.379 . S
H1651 C1645 0.959 . S
H1652 C1645 0.961 . S
H1653 C1645 0.960 . S
H1654 C1646 0.930 . S
H1655 C1647 0.929 . S
H1656 C1664 0.929 . S
H1657 C1666 0.930 . S
H1658 C1668 0.930 . S
H1659 C1671 0.929 . S
H1660 C1674 0.930 . S
H1661 C1676 0.960 . S
H1662 C1676 0.960 . S
H1663 C1676 0.960 . S
C1664 H1656 0.929 . S
C1664 C1665 1.377 . S
C1664 C1666 1.384 . S
C1665 C1664 1.377 . S
C1665 C1671 1.390 . S
C1666 H1657 0.930 . S
C1666 C1664 1.384 . S
C1666 C1667 1.372 . S
C1667 C1666 1.372 . S
C1667 C1668 1.400 . S
C1667 C1672 1.490 . S
C1668 H1658 0.930 . S
C1668 C1667 1.400 . S
C1668 C1671 1.386 . S
H1669 C1685 0.930 . S
H1670 C1686 0.931 . S
C1671 H1659 0.929 . S
C1671 C1665 1.390 . S
C1671 C1668 1.386 . S
C1672 C1667 1.490 . S
C1672 C1674 1.395 . S
C1672 C1675 1.403 . S
H1673 C1679 0.930 . S
C1674 H1660 0.930 . S
C1674 C1672 1.395 . S
C1674 C1677 1.403 . S
C1675 C1672 1.403 . S
C1675 C1676 1.524 . S
C1675 C1679 1.400 . S
C1676 H1661 0.960 . S
C1676 H1662 0.960 . S
C1676 H1663 0.960 . S
C1676 C1675 1.524 . S
C1677 C1674 1.403 . S
C1677 C1678 1.392 . S
C1677 C1681 1.495 . S
C1678 C1677 1.392 . S
C1678 C1679 1.385 . S
C1678 C1680 1.478 . S
C1679 H1673 0.930 . S
C1679 C1675 1.400 . S
C1679 C1678 1.385 . S
C1680 C1678 1.478 . S
C1680 C1682 1.381 . S
C1680 C1686 1.383 . S
C1681 C1677 1.495 . S
C1681 H1687 0.959 . S
C1681 H1688 0.961 . S
C1681 H1689 0.960 . S
C1682 C1680 1.381 . S
C1682 C1683 1.394 . S
C1682 H1690 0.930 . S
C1683 C1682 1.394 . S
C1683 C1684 1.383 . S
C1683 H1691 0.929 . S
C1684 C1683 1.383 . S
C1684 C1685 1.377 . S
C1685 H1669 0.930 . S
C1685 C1684 1.377 . S
C1685 C1686 1.379 . S
C1686 H1670 0.931 . S
C1686 C1680 1.383 . S
C1686 C1685 1.379 . S
H1687 C1681 0.959 . S
H1688 C1681 0.961 . S
H1689 C1681 0.960 . S
H1690 C1682 0.930 . S
H1691 C1683 0.929 . S
H1692 C1700 0.929 . S
H1693 C1702 0.930 . S
H1694 C1704 0.930 . S
H1695 C1707 0.929 . S
H1696 C1710 0.930 . S
H1697 C1712 0.960 . S
H1698 C1712 0.960 . S
H1699 C1712 0.960 . S
C1700 H1692 0.929 . S
C1700 C1701 1.377 . S
C1700 C1702 1.384 . S
C1701 C1700 1.377 . S
C1701 C1707 1.390 . S
C1702 H1693 0.930 . S
C1702 C1700 1.384 . S
C1702 C1703 1.372 . S
C1703 C1702 1.372 . S
C1703 C1704 1.400 . S
C1703 C1708 1.490 . S
C1704 H1694 0.930 . S
C1704 C1703 1.400 . S
C1704 C1707 1.386 . S
H1705 C1721 0.930 . S
H1706 C1722 0.931 . S
C1707 H1695 0.929 . S
C1707 C1701 1.390 . S
C1707 C1704 1.386 . S
C1708 C1703 1.490 . S
C1708 C1710 1.395 . S
C1708 C1711 1.403 . S
H1709 C1715 0.930 . S
C1710 H1696 0.930 . S
C1710 C1708 1.395 . S
C1710 C1713 1.403 . S
C1711 C1708 1.403 . S
C1711 C1712 1.524 . S
C1711 C1715 1.400 . S
C1712 H1697 0.960 . S
C1712 H1698 0.960 . S
C1712 H1699 0.960 . S
C1712 C1711 1.524 . S
C1713 C1710 1.403 . S
C1713 C1714 1.392 . S
C1713 C1717 1.495 . S
C1714 C1713 1.392 . S
C1714 C1715 1.385 . S
C1714 C1716 1.478 . S
C1715 H1709 0.930 . S
C1715 C1711 1.400 . S
C1715 C1714 1.385 . S
C1716 C1714 1.478 . S
C1716 C1718 1.381 . S
C1716 C1722 1.383 . S
C1717 C1713 1.495 . S
C1717 H1723 0.959 . S
C1717 H1724 0.961 . S
C1717 H1725 0.960 . S
C1718 C1716 1.381 . S
C1718 C1719 1.394 . S
C1718 H1726 0.930 . S
C1719 C1718 1.394 . S
C1719 C1720 1.383 . S
C1719 H1727 0.929 . S
C1720 C1719 1.383 . S
C1720 C1721 1.377 . S
C1721 H1705 0.930 . S
C1721 C1720 1.377 . S
C1721 C1722 1.379 . S
C1722 H1706 0.931 . S
C1722 C1716 1.383 . S
C1722 C1721 1.379 . S
H1723 C1717 0.959 . S
H1724 C1717 0.961 . S
H1725 C1717 0.960 . S
H1726 C1718 0.930 . S
H1727 C1719 0.929 . S
H1728 C1736 0.929 . S
H1729 C1738 0.930 . S
H1730 C1740 0.930 . S
H1731 C1743 0.929 . S
H1732 C1746 0.930 . S
H1733 C1748 0.960 . S
H1734 C1748 0.960 . S
H1735 C1748 0.960 . S
C1736 H1728 0.929 . S
C1736 C1737 1.377 . S
C1736 C1738 1.384 . S
C1737 C1736 1.377 . S
C1737 C1743 1.390 . S
C1738 H1729 0.930 . S
C1738 C1736 1.384 . S
C1738 C1739 1.372 . S
C1739 C1738 1.372 . S
C1739 C1740 1.400 . S
C1739 C1744 1.490 . S
C1740 H1730 0.930 . S
C1740 C1739 1.400 . S
C1740 C1743 1.386 . S
H1741 C1757 0.930 . S
H1742 C1758 0.931 . S
C1743 H1731 0.929 . S
C1743 C1737 1.390 . S
C1743 C1740 1.386 . S
C1744 C1739 1.490 . S
C1744 C1746 1.395 . S
C1744 C1747 1.403 . S
H1745 C1751 0.930 . S
C1746 H1732 0.930 . S
C1746 C1744 1.395 . S
C1746 C1749 1.403 . S
C1747 C1744 1.403 . S
C1747 C1748 1.524 . S
C1747 C1751 1.400 . S
C1748 H1733 0.960 . S
C1748 H1734 0.960 . S
C1748 H1735 0.960 . S
C1748 C1747 1.524 . S
C1749 C1746 1.403 . S
C1749 C1750 1.392 . S
C1749 C1753 1.495 . S
C1750 C1749 1.392 . S
C1750 C1751 1.385 . S
C1750 C1752 1.478 . S
C1751 H1745 0.930 . S
C1751 C1747 1.400 . S
C1751 C1750 1.385 . S
C1752 C1750 1.478 . S
C1752 C1754 1.381 . S
C1752 C1758 1.383 . S
C1753 C1749 1.495 . S
C1753 H1759 0.959 . S
C1753 H1760 0.961 . S
C1753 H1761 0.960 . S
C1754 C1752 1.381 . S
C1754 C1755 1.394 . S
C1754 H1762 0.930 . S
C1755 C1754 1.394 . S
C1755 C1756 1.383 . S
C1755 H1763 0.929 . S
C1756 C1755 1.383 . S
C1756 C1757 1.377 . S
C1757 H1741 0.930 . S
C1757 C1756 1.377 . S
C1757 C1758 1.379 . S
C1758 H1742 0.931 . S
C1758 C1752 1.383 . S
C1758 C1757 1.379 . S
H1759 C1753 0.959 . S
H1760 C1753 0.961 . S
H1761 C1753 0.960 . S
H1762 C1754 0.930 . S
H1763 C1755 0.929 . S
H1764 C1772 0.929 . S
H1765 C1774 0.930 . S
H1766 C1776 0.930 . S
H1767 C1779 0.929 . S
H1768 C1782 0.930 . S
H1769 C1784 0.960 . S
H1770 C1784 0.960 . S
H1771 C1784 0.960 . S
C1772 H1764 0.929 . S
C1772 C1773 1.377 . S
C1772 C1774 1.384 . S
C1773 C1772 1.377 . S
C1773 C1779 1.390 . S
C1774 H1765 0.930 . S
C1774 C1772 1.384 . S
C1774 C1775 1.372 . S
C1775 C1774 1.372 . S
C1775 C1776 1.400 . S
C1775 C1780 1.490 . S
C1776 H1766 0.930 . S
C1776 C1775 1.400 . S
C1776 C1779 1.386 . S
H1777 C1793 0.930 . S
H1778 C1794 0.931 . S
C1779 H1767 0.929 . S
C1779 C1773 1.390 . S
C1779 C1776 1.386 . S
C1780 C1775 1.490 . S
C1780 C1782 1.395 . S
C1780 C1783 1.403 . S
H1781 C1787 0.930 . S
C1782 H1768 0.930 . S
C1782 C1780 1.395 . S
C1782 C1785 1.403 . S
C1783 C1780 1.403 . S
C1783 C1784 1.524 . S
C1783 C1787 1.400 . S
C1784 H1769 0.960 . S
C1784 H1770 0.960 . S
C1784 H1771 0.960 . S
C1784 C1783 1.524 . S
C1785 C1782 1.403 . S
C1785 C1786 1.392 . S
C1785 C1789 1.495 . S
C1786 C1785 1.392 . S
C1786 C1787 1.385 . S
C1786 C1788 1.478 . S
C1787 H1781 0.930 . S
C1787 C1783 1.400 . S
C1787 C1786 1.385 . S
C1788 C1786 1.478 . S
C1788 C1790 1.381 . S
C1788 C1794 1.383 . S
C1789 C1785 1.495 . S
C1789 H1795 0.959 . S
C1789 H1796 0.961 . S
C1789 H1797 0.960 . S
C1790 C1788 1.381 . S
C1790 C1791 1.394 . S
C1790 H1798 0.930 . S
C1791 C1790 1.394 . S
C1791 C1792 1.383 . S
C1791 H1799 0.929 . S
C1792 C1791 1.383 . S
C1792 C1793 1.377 . S
C1793 H1777 0.930 . S
C1793 C1792 1.377 . S
C1793 C1794 1.379 . S
C1794 H1778 0.931 . S
C1794 C1788 1.383 . S
C1794 C1793 1.379 . S
H1795 C1789 0.959 . S
H1796 C1789 0.961 . S
H1797 C1789 0.960 . S
H1798 C1790 0.930 . S
H1799 C1791 0.929 . S
H1800 C1808 0.929 . S
H1801 C1810 0.930 . S
H1802 C1812 0.930 . S
H1803 C1815 0.929 . S
H1804 C1818 0.930 . S
H1805 C1820 0.960 . S
H1806 C1820 0.960 . S
H1807 C1820 0.960 . S
C1808 H1800 0.929 . S
C1808 C1809 1.377 . S
C1808 C1810 1.384 . S
C1809 C1808 1.377 . S
C1809 C1815 1.390 . S
C1810 H1801 0.930 . S
C1810 C1808 1.384 . S
C1810 C1811 1.372 . S
C1811 C1810 1.372 . S
C1811 C1812 1.400 . S
C1811 C1816 1.490 . S
C1812 H1802 0.930 . S
C1812 C1811 1.400 . S
C1812 C1815 1.386 . S
H1813 C1829 0.930 . S
H1814 C1830 0.931 . S
C1815 H1803 0.929 . S
C1815 C1809 1.390 . S
C1815 C1812 1.386 . S
C1816 C1811 1.490 . S
C1816 C1818 1.395 . S
C1816 C1819 1.403 . S
H1817 C1823 0.930 . S
C1818 H1804 0.930 . S
C1818 C1816 1.395 . S
C1818 C1821 1.403 . S
C1819 C1816 1.403 . S
C1819 C1820 1.524 . S
C1819 C1823 1.400 . S
C1820 H1805 0.960 . S
C1820 H1806 0.960 . S
C1820 H1807 0.960 . S
C1820 C1819 1.524 . S
C1821 C1818 1.403 . S
C1821 C1822 1.392 . S
C1821 C1825 1.495 . S
C1822 C1821 1.392 . S
C1822 C1823 1.385 . S
C1822 C1824 1.478 . S
C1823 H1817 0.930 . S
C1823 C1819 1.400 . S
C1823 C1822 1.385 . S
C1824 C1822 1.478 . S
C1824 C1826 1.381 . S
C1824 C1830 1.383 . S
C1825 C1821 1.495 . S
C1825 H1831 0.959 . S
C1825 H1832 0.961 . S
C1825 H1833 0.960 . S
C1826 C1824 1.381 . S
C1826 C1827 1.394 . S
C1826 H1834 0.930 . S
C1827 C1826 1.394 . S
C1827 C1828 1.383 . S
C1827 H1835 0.929 . S
C1828 C1827 1.383 . S
C1828 C1829 1.377 . S
C1829 H1813 0.930 . S
C1829 C1828 1.377 . S
C1829 C1830 1.379 . S
C1830 H1814 0.931 . S
C1830 C1824 1.383 . S
C1830 C1829 1.379 . S
H1831 C1825 0.959 . S
H1832 C1825 0.961 . S
H1833 C1825 0.960 . S
H1834 C1826 0.930 . S
H1835 C1827 0.929 . S
H1836 C1844 0.929 . S
H1837 C1846 0.930 . S
H1838 C1848 0.930 . S
H1839 C1851 0.929 . S
H1840 C1854 0.930 . S
H1841 C1856 0.960 . S
H1842 C1856 0.960 . S
H1843 C1856 0.960 . S
C1844 H1836 0.929 . S
C1844 C1845 1.377 . S
C1844 C1846 1.384 . S
C1845 C1844 1.377 . S
C1845 C1851 1.390 . S
C1846 H1837 0.930 . S
C1846 C1844 1.384 . S
C1846 C1847 1.372 . S
C1847 C1846 1.372 . S
C1847 C1848 1.400 . S
C1847 C1852 1.490 . S
C1848 H1838 0.930 . S
C1848 C1847 1.400 . S
C1848 C1851 1.386 . S
H1849 C1865 0.930 . S
H1850 C1866 0.931 . S
C1851 H1839 0.929 . S
C1851 C1845 1.390 . S
C1851 C1848 1.386 . S
C1852 C1847 1.490 . S
C1852 C1854 1.395 . S
C1852 C1855 1.403 . S
H1853 C1859 0.930 . S
C1854 H1840 0.930 . S
C1854 C1852 1.395 . S
C1854 C1857 1.403 . S
C1855 C1852 1.403 . S
C1855 C1856 1.524 . S
C1855 C1859 1.400 . S
C1856 H1841 0.960 . S
C1856 H1842 0.960 . S
C1856 H1843 0.960 . S
C1856 C1855 1.524 . S
C1857 C1854 1.403 . S
C1857 C1858 1.392 . S
C1857 C1861 1.495 . S
C1858 C1857 1.392 . S
C1858 C1859 1.385 . S
C1858 C1860 1.478 . S
C1859 H1853 0.930 . S
C1859 C1855 1.400 . S
C1859 C1858 1.385 . S
C1860 C1858 1.478 . S
C1860 C1862 1.381 . S
C1860 C1866 1.383 . S
C1861 C1857 1.495 . S
C1861 H1867 0.959 . S
C1861 H1868 0.961 . S
C1861 H1869 0.960 . S
C1862 C1860 1.381 . S
C1862 C1863 1.394 . S
C1862 H1870 0.930 . S
C1863 C1862 1.394 . S
C1863 C1864 1.383 . S
C1863 H1871 0.929 . S
C1864 C1863 1.383 . S
C1864 C1865 1.377 . S
C1865 H1849 0.930 . S
C1865 C1864 1.377 . S
C1865 C1866 1.379 . S
C1866 H1850 0.931 . S
C1866 C1860 1.383 . S
C1866 C1865 1.379 . S
H1867 C1861 0.959 . S
H1868 C1861 0.961 . S
H1869 C1861 0.960 . S
H1870 C1862 0.930 . S
H1871 C1863 0.929 . S
H1872 C1880 0.929 . S
H1873 C1882 0.930 . S
H1874 C1884 0.930 . S
H1875 C1887 0.929 . S
H1876 C1890 0.930 . S
H1877 C1892 0.960 . S
H1878 C1892 0.960 . S
H1879 C1892 0.960 . S
C1880 H1872 0.929 . S
C1880 C1881 1.377 . S
C1880 C1882 1.384 . S
C1881 C1880 1.377 . S
C1881 C1887 1.390 . S
C1882 H1873 0.930 . S
C1882 C1880 1.384 . S
C1882 C1883 1.372 . S
C1883 C1882 1.372 . S
C1883 C1884 1.400 . S
C1883 C1888 1.490 . S
C1884 H1874 0.930 . S
C1884 C1883 1.400 . S
C1884 C1887 1.386 . S
H1885 C1901 0.930 . S
H1886 C1902 0.931 . S
C1887 H1875 0.929 . S
C1887 C1881 1.390 . S
C1887 C1884 1.386 . S
C1888 C1883 1.490 . S
C1888 C1890 1.395 . S
C1888 C1891 1.403 . S
H1889 C1895 0.930 . S
C1890 H1876 0.930 . S
C1890 C1888 1.395 . S
C1890 C1893 1.403 . S
C1891 C1888 1.403 . S
C1891 C1892 1.524 . S
C1891 C1895 1.400 . S
C1892 H1877 0.960 . S
C1892 H1878 0.960 . S
C1892 H1879 0.960 . S
C1892 C1891 1.524 . S
C1893 C1890 1.403 . S
C1893 C1894 1.392 . S
C1893 C1897 1.495 . S
C1894 C1893 1.392 . S
C1894 C1895 1.385 . S
C1894 C1896 1.478 . S
C1895 H1889 0.930 . S
C1895 C1891 1.400 . S
C1895 C1894 1.385 . S
C1896 C1894 1.478 . S
C1896 C1898 1.381 . S
C1896 C1902 1.383 . S
C1897 C1893 1.495 . S
C1897 H1903 0.959 . S
C1897 H1904 0.961 . S
C1897 H1905 0.960 . S
C1898 C1896 1.381 . S
C1898 C1899 1.394 . S
C1898 H1906 0.930 . S
C1899 C1898 1.394 . S
C1899 C1900 1.383 . S
C1899 H1907 0.929 . S
C1900 C1899 1.383 . S
C1900 C1901 1.377 . S
C1901 H1885 0.930 . S
C1901 C1900 1.377 . S
C1901 C1902 1.379 . S
C1902 H1886 0.931 . S
C1902 C1896 1.383 . S
C1902 C1901 1.379 . S
H1903 C1897 0.959 . S
H1904 C1897 0.961 . S
H1905 C1897 0.960 . S
H1906 C1898 0.930 . S
H1907 C1899 0.929 . S
H1908 C1916 0.929 . S
H1909 C1918 0.930 . S
H1910 C1920 0.930 . S
H1911 C1923 0.929 . S
H1912 C1926 0.930 . S
H1913 C1928 0.960 . S
H1914 C1928 0.960 . S
H1915 C1928 0.960 . S
C1916 H1908 0.929 . S
C1916 C1917 1.377 . S
C1916 C1918 1.384 . S
C1917 C1916 1.377 . S
C1917 C1923 1.390 . S
C1918 H1909 0.930 . S
C1918 C1916 1.384 . S
C1918 C1919 1.372 . S
C1919 C1918 1.372 . S
C1919 C1920 1.400 . S
C1919 C1924 1.490 . S
C1920 H1910 0.930 . S
C1920 C1919 1.400 . S
C1920 C1923 1.386 . S
H1921 C1937 0.930 . S
H1922 C1938 0.931 . S
C1923 H1911 0.929 . S
C1923 C1917 1.390 . S
C1923 C1920 1.386 . S
C1924 C1919 1.490 . S
C1924 C1926 1.395 . S
C1924 C1927 1.403 . S
H1925 C1931 0.930 . S
C1926 H1912 0.930 . S
C1926 C1924 1.395 . S
C1926 C1929 1.403 . S
C1927 C1924 1.403 . S
C1927 C1928 1.524 . S
C1927 C1931 1.400 . S
C1928 H1913 0.960 . S
C1928 H1914 0.960 . S
C1928 H1915 0.960 . S
C1928 C1927 1.524 . S
C1929 C1926 1.403 . S
C1929 C1930 1.392 . S
C1929 C1933 1.495 . S
C1930 C1929 1.392 . S
C1930 C1931 1.385 . S
C1930 C1932 1.478 . S
C1931 H1925 0.930 . S
C1931 C1927 1.400 . S
C1931 C1930 1.385 . S
C1932 C1930 1.478 . S
C1932 C1934 1.381 . S
C1932 C1938 1.383 . S
C1933 C1929 1.495 . S
C1933 H1939 0.959 . S
C1933 H1940 0.961 . S
C1933 H1941 0.960 . S
C1934 C1932 1.381 . S
C1934 C1935 1.394 . S
C1934 H1942 0.930 . S
C1935 C1934 1.394 . S
C1935 C1936 1.383 . S
C1935 H1943 0.929 . S
C1936 C1935 1.383 . S
C1936 C1937 1.377 . S
C1937 H1921 0.930 . S
C1937 C1936 1.377 . S
C1937 C1938 1.379 . S
C1938 H1922 0.931 . S
C1938 C1932 1.383 . S
C1938 C1937 1.379 . S
H1939 C1933 0.959 . S
H1940 C1933 0.961 . S
H1941 C1933 0.960 . S
H1942 C1934 0.930 . S
H1943 C1935 0.929 . S
H1944 C1952 0.929 . S
H1945 C1954 0.930 . S
H1946 C1956 0.930 . S
H1947 C1959 0.929 . S
H1948 C1962 0.930 . S
H1949 C1964 0.960 . S
H1950 C1964 0.960 . S
H1951 C1964 0.960 . S
C1952 H1944 0.929 . S
C1952 C1953 1.377 . S
C1952 C1954 1.384 . S
C1953 C1952 1.377 . S
C1953 C1959 1.390 . S
C1954 H1945 0.930 . S
C1954 C1952 1.384 . S
C1954 C1955 1.372 . S
C1955 C1954 1.372 . S
C1955 C1956 1.400 . S
C1955 C1960 1.490 . S
C1956 H1946 0.930 . S
C1956 C1955 1.400 . S
C1956 C1959 1.386 . S
H1957 C1973 0.930 . S
H1958 C1974 0.931 . S
C1959 H1947 0.929 . S
C1959 C1953 1.390 . S
C1959 C1956 1.386 . S
C1960 C1955 1.490 . S
C1960 C1962 1.395 . S
C1960 C1963 1.403 . S
H1961 C1967 0.930 . S
C1962 H1948 0.930 . S
C1962 C1960 1.395 . S
C1962 C1965 1.403 . S
C1963 C1960 1.403 . S
C1963 C1964 1.524 . S
C1963 C1967 1.400 . S
C1964 H1949 0.960 . S
C1964 H1950 0.960 . S
C1964 H1951 0.960 . S
C1964 C1963 1.524 . S
C1965 C1962 1.403 . S
C1965 C1966 1.392 . S
C1965 C1969 1.495 . S
C1966 C1965 1.392 . S
C1966 C1967 1.385 . S
C1966 C1968 1.478 . S
C1967 H1961 0.930 . S
C1967 C1963 1.400 . S
C1967 C1966 1.385 . S
C1968 C1966 1.478 . S
C1968 C1970 1.381 . S
C1968 C1974 1.383 . S
C1969 C1965 1.495 . S
C1969 H1975 0.959 . S
C1969 H1976 0.961 . S
C1969 H1977 0.960 . S
C1970 C1968 1.381 . S
C1970 C1971 1.394 . S
C1970 H1978 0.930 . S
C1971 C1970 1.394 . S
C1971 C1972 1.383 . S
C1971 H1979 0.929 . S
C1972 C1971 1.383 . S
C1972 C1973 1.377 . S
C1973 H1957 0.930 . S
C1973 C1972 1.377 . S
C1973 C1974 1.379 . S
C1974 H1958 0.931 . S
C1974 C1968 1.383 . S
C1974 C1973 1.379 . S
H1975 C1969 0.959 . S
H1976 C1969 0.961 . S
H1977 C1969 0.960 . S
H1978 C1970 0.930 . S
H1979 C1971 0.929 . S
H1980 C1988 0.929 . S
H1981 C1990 0.930 . S
H1982 C1992 0.930 . S
H1983 C1995 0.929 . S
H1984 C1998 0.930 . S
H1985 C2000 0.960 . S
H1986 C2000 0.960 . S
H1987 C2000 0.960 . S
C1988 H1980 0.929 . S
C1988 C1989 1.377 . S
C1988 C1990 1.384 . S
C1989 C1988 1.377 . S
C1989 C1995 1.390 . S
C1990 H1981 0.930 . S
C1990 C1988 1.384 . S
C1990 C1991 1.372 . S
C1991 C1990 1.372 . S
C1991 C1992 1.400 . S
C1991 C1996 1.490 . S
C1992 H1982 0.930 . S
C1992 C1991 1.400 . S
C1992 C1995 1.386 . S
H1993 C2009 0.930 . S
H1994 C2010 0.931 . S
C1995 H1983 0.929 . S
C1995 C1989 1.390 . S
C1995 C1992 1.386 . S
C1996 C1991 1.490 . S
C1996 C1998 1.395 . S
C1996 C1999 1.403 . S
H1997 C2003 0.930 . S
C1998 H1984 0.930 . S
C1998 C1996 1.395 . S
C1998 C2001 1.403 . S
C1999 C1996 1.403 . S
C1999 C2000 1.524 . S
C1999 C2003 1.400 . S
C2000 H1985 0.960 . S
C2000 H1986 0.960 . S
C2000 H1987 0.960 . S
C2000 C1999 1.524 . S
C2001 C1998 1.403 . S
C2001 C2002 1.392 . S
C2001 C2005 1.495 . S
C2002 C2001 1.392 . S
C2002 C2003 1.385 . S
C2002 C2004 1.478 . S
C2003 H1997 0.930 . S
C2003 C1999 1.400 . S
C2003 C2002 1.385 . S
C2004 C2002 1.478 . S
C2004 C2006 1.381 . S
C2004 C2010 1.383 . S
C2005 C2001 1.495 . S
C2005 H2011 0.959 . S
C2005 H2012 0.961 . S
C2005 H2013 0.960 . S
C2006 C2004 1.381 . S
C2006 C2007 1.394 . S
C2006 H2014 0.930 . S
C2007 C2006 1.394 . S
C2007 C2008 1.383 . S
C2007 H2015 0.929 . S
C2008 C2007 1.383 . S
C2008 C2009 1.377 . S
C2009 H1993 0.930 . S
C2009 C2008 1.377 . S
C2009 C2010 1.379 . S
C2010 H1994 0.931 . S
C2010 C2004 1.383 . S
C2010 C2009 1.379 . S
H2011 C2005 0.959 . S
H2012 C2005 0.961 . S
H2013 C2005 0.960 . S
H2014 C2006 0.930 . S
H2015 C2007 0.929 . S
H2016 C2024 0.929 . S
H2017 C2026 0.930 . S
H2018 C2028 0.930 . S
H2019 C2031 0.929 . S
H2020 C2034 0.930 . S
H2021 C2036 0.960 . S
H2022 C2036 0.960 . S
H2023 C2036 0.960 . S
C2024 H2016 0.929 . S
C2024 C2025 1.377 . S
C2024 C2026 1.384 . S
C2025 C2024 1.377 . S
C2025 C2031 1.390 . S
C2026 H2017 0.930 . S
C2026 C2024 1.384 . S
C2026 C2027 1.372 . S
C2027 C2026 1.372 . S
C2027 C2028 1.400 . S
C2027 C2032 1.490 . S
C2028 H2018 0.930 . S
C2028 C2027 1.400 . S
C2028 C2031 1.386 . S
H2029 C2045 0.930 . S
H2030 C2046 0.931 . S
C2031 H2019 0.929 . S
C2031 C2025 1.390 . S
C2031 C2028 1.386 . S
C2032 C2027 1.490 . S
C2032 C2034 1.395 . S
C2032 C2035 1.403 . S
H2033 C2039 0.930 . S
C2034 H2020 0.930 . S
C2034 C2032 1.395 . S
C2034 C2037 1.403 . S
C2035 C2032 1.403 . S
C2035 C2036 1.524 . S
C2035 C2039 1.400 . S
C2036 H2021 0.960 . S
C2036 H2022 0.960 . S
C2036 H2023 0.960 . S
C2036 C2035 1.524 . S
C2037 C2034 1.403 . S
C2037 C2038 1.392 . S
C2037 C2041 1.495 . S
C2038 C2037 1.392 . S
C2038 C2039 1.385 . S
C2038 C2040 1.478 . S
C2039 H2033 0.930 . S
C2039 C2035 1.400 . S
C2039 C2038 1.385 . S
C2040 C2038 1.478 . S
C2040 C2042 1.381 . S
C2040 C2046 1.383 . S
C2041 C2037 1.495 . S
C2041 H2047 0.959 . S
C2041 H2048 0.961 . S
C2041 H2049 0.960 . S
C2042 C2040 1.381 . S
C2042 C2043 1.394 . S
C2042 H2050 0.930 . S
C2043 C2042 1.394 . S
C2043 C2044 1.383 . S
C2043 H2051 0.929 . S
C2044 C2043 1.383 . S
C2044 C2045 1.377 . S
C2045 H2029 0.930 . S
C2045 C2044 1.377 . S
C2045 C2046 1.379 . S
C2046 H2030 0.931 . S
C2046 C2040 1.383 . S
C2046 C2045 1.379 . S
H2047 C2041 0.959 . S
H2048 C2041 0.961 . S
H2049 C2041 0.960 . S
H2050 C2042 0.930 . S
H2051 C2043 0.929 . S
H2052 C2060 0.929 . S
H2053 C2062 0.930 . S
H2054 C2064 0.930 . S
H2055 C2067 0.929 . S
H2056 C2070 0.930 . S
H2057 C2072 0.960 . S
H2058 C2072 0.960 . S
H2059 C2072 0.960 . S
C2060 H2052 0.929 . S
C2060 C2061 1.377 . S
C2060 C2062 1.384 . S
C2061 C2060 1.377 . S
C2061 C2067 1.390 . S
C2062 H2053 0.930 . S
C2062 C2060 1.384 . S
C2062 C2063 1.372 . S
C2063 C2062 1.372 . S
C2063 C2064 1.400 . S
C2063 C2068 1.490 . S
C2064 H2054 0.930 . S
C2064 C2063 1.400 . S
C2064 C2067 1.386 . S
H2065 C2081 0.930 . S
H2066 C2082 0.931 . S
C2067 H2055 0.929 . S
C2067 C2061 1.390 . S
C2067 C2064 1.386 . S
C2068 C2063 1.490 . S
C2068 C2070 1.395 . S
C2068 C2071 1.403 . S
H2069 C2075 0.930 . S
C2070 H2056 0.930 . S
C2070 C2068 1.395 . S
C2070 C2073 1.403 . S
C2071 C2068 1.403 . S
C2071 C2072 1.524 . S
C2071 C2075 1.400 . S
C2072 H2057 0.960 . S
C2072 H2058 0.960 . S
C2072 H2059 0.960 . S
C2072 C2071 1.524 . S
C2073 C2070 1.403 . S
C2073 C2074 1.392 . S
C2073 C2077 1.495 . S
C2074 C2073 1.392 . S
C2074 C2075 1.385 . S
C2074 C2076 1.478 . S
C2075 H2069 0.930 . S
C2075 C2071 1.400 . S
C2075 C2074 1.385 . S
C2076 C2074 1.478 . S
C2076 C2078 1.381 . S
C2076 C2082 1.383 . S
C2077 C2073 1.495 . S
C2077 H2083 0.959 . S
C2077 H2084 0.961 . S
C2077 H2085 0.960 . S
C2078 C2076 1.381 . S
C2078 C2079 1.394 . S
C2078 H2086 0.930 . S
C2079 C2078 1.394 . S
C2079 C2080 1.383 . S
C2079 H2087 0.929 . S
C2080 C2079 1.383 . S
C2080 C2081 1.377 . S
C2081 H2065 0.930 . S
C2081 C2080 1.377 . S
C2081 C2082 1.379 . S
C2082 H2066 0.931 . S
C2082 C2076 1.383 . S
C2082 C2081 1.379 . S
H2083 C2077 0.959 . S
H2084 C2077 0.961 . S
H2085 C2077 0.960 . S
H2086 C2078 0.930 . S
H2087 C2079 0.929 . S
H2088 C2096 0.929 . S
H2089 C2098 0.930 . S
H2090 C2100 0.930 . S
H2091 C2103 0.929 . S
H2092 C2106 0.930 . S
H2093 C2108 0.960 . S
H2094 C2108 0.960 . S
H2095 C2108 0.960 . S
C2096 H2088 0.929 . S
C2096 C2097 1.377 . S
C2096 C2098 1.384 . S
C2097 C2096 1.377 . S
C2097 C2103 1.390 . S
C2098 H2089 0.930 . S
C2098 C2096 1.384 . S
C2098 C2099 1.372 . S
C2099 C2098 1.372 . S
C2099 C2100 1.400 . S
C2099 C2104 1.490 . S
C2100 H2090 0.930 . S
C2100 C2099 1.400 . S
C2100 C2103 1.386 . S
H2101 C2117 0.930 . S
H2102 C2118 0.931 . S
C2103 H2091 0.929 . S
C2103 C2097 1.390 . S
C2103 C2100 1.386 . S
C2104 C2099 1.490 . S
C2104 C2106 1.395 . S
C2104 C2107 1.403 . S
H2105 C2111 0.930 . S
C2106 H2092 0.930 . S
C2106 C2104 1.395 . S
C2106 C2109 1.403 . S
C2107 C2104 1.403 . S
C2107 C2108 1.524 . S
C2107 C2111 1.400 . S
C2108 H2093 0.960 . S
C2108 H2094 0.960 . S
C2108 H2095 0.960 . S
C2108 C2107 1.524 . S
C2109 C2106 1.403 . S
C2109 C2110 1.392 . S
C2109 C2113 1.495 . S
C2110 C2109 1.392 . S
C2110 C2111 1.385 . S
C2110 C2112 1.478 . S
C2111 H2105 0.930 . S
C2111 C2107 1.400 . S
C2111 C2110 1.385 . S
C2112 C2110 1.478 . S
C2112 C2114 1.381 . S
C2112 C2118 1.383 . S
C2113 C2109 1.495 . S
C2113 H2119 0.959 . S
C2113 H2120 0.961 . S
C2113 H2121 0.960 . S
C2114 C2112 1.381 . S
C2114 C2115 1.394 . S
C2114 H2122 0.930 . S
C2115 C2114 1.394 . S
C2115 C2116 1.383 . S
C2115 H2123 0.929 . S
C2116 C2115 1.383 . S
C2116 C2117 1.377 . S
C2117 H2101 0.930 . S
C2117 C2116 1.377 . S
C2117 C2118 1.379 . S
C2118 H2102 0.931 . S
C2118 C2112 1.383 . S
C2118 C2117 1.379 . S
H2119 C2113 0.959 . S
H2120 C2113 0.961 . S
H2121 C2113 0.960 . S
H2122 C2114 0.930 . S
H2123 C2115 0.929 . S
H2124 C2132 0.929 . S
H2125 C2134 0.930 . S
H2126 C2136 0.930 . S
H2127 C2139 0.929 . S
H2128 C2142 0.930 . S
H2129 C2144 0.960 . S
H2130 C2144 0.960 . S
H2131 C2144 0.960 . S
C2132 H2124 0.929 . S
C2132 C2133 1.377 . S
C2132 C2134 1.384 . S
C2133 C2132 1.377 . S
C2133 C2139 1.390 . S
C2134 H2125 0.930 . S
C2134 C2132 1.384 . S
C2134 C2135 1.372 . S
C2135 C2134 1.372 . S
C2135 C2136 1.400 . S
C2135 C2140 1.490 . S
C2136 H2126 0.930 . S
C2136 C2135 1.400 . S
C2136 C2139 1.386 . S
H2137 C2153 0.930 . S
H2138 C2154 0.931 . S
C2139 H2127 0.929 . S
C2139 C2133 1.390 . S
C2139 C2136 1.386 . S
C2140 C2135 1.490 . S
C2140 C2142 1.395 . S
C2140 C2143 1.403 . S
H2141 C2147 0.930 . S
C2142 H2128 0.930 . S
C2142 C2140 1.395 . S
C2142 C2145 1.403 . S
C2143 C2140 1.403 . S
C2143 C2144 1.524 . S
C2143 C2147 1.400 . S
C2144 H2129 0.960 . S
C2144 H2130 0.960 . S
C2144 H2131 0.960 . S
C2144 C2143 1.524 . S
C2145 C2142 1.403 . S
C2145 C2146 1.392 . S
C2145 C2149 1.495 . S
C2146 C2145 1.392 . S
C2146 C2147 1.385 . S
C2146 C2148 1.478 . S
C2147 H2141 0.930 . S
C2147 C2143 1.400 . S
C2147 C2146 1.385 . S
C2148 C2146 1.478 . S
C2148 C2150 1.381 . S
C2148 C2154 1.383 . S
C2149 C2145 1.495 . S
C2149 H2155 0.959 . S
C2149 H2156 0.961 . S
C2149 H2157 0.960 . S
C2150 C2148 1.381 . S
C2150 C2151 1.394 . S
C2150 H2158 0.930 . S
C2151 C2150 1.394 . S
C2151 C2152 1.383 . S
C2151 H2159 0.929 . S
C2152 C2151 1.383 . S
C2152 C2153 1.377 . S
C2153 H2137 0.930 . S
C2153 C2152 1.377 . S
C2153 C2154 1.379 . S
C2154 H2138 0.931 . S
C2154 C2148 1.383 . S
C2154 C2153 1.379 . S
H2155 C2149 0.959 . S
H2156 C2149 0.961 . S
H2157 C2149 0.960 . S
H2158 C2150 0.930 . S
H2159 C2151 0.929 . S
H2160 C2168 0.929 . S
H2161 C2170 0.930 . S
H2162 C2172 0.930 . S
H2163 C2175 0.929 . S
H2164 C2178 0.930 . S
H2165 C2180 0.960 . S
H2166 C2180 0.960 . S
H2167 C2180 0.960 . S
C2168 H2160 0.929 . S
C2168 C2169 1.377 . S
C2168 C2170 1.384 . S
C2169 C2168 1.377 . S
C2169 C2175 1.390 . S
C2170 H2161 0.930 . S
C2170 C2168 1.384 . S
C2170 C2171 1.372 . S
C2171 C2170 1.372 . S
C2171 C2172 1.400 . S
C2171 C2176 1.490 . S
C2172 H2162 0.930 . S
C2172 C2171 1.400 . S
C2172 C2175 1.386 . S
H2173 C2189 0.930 . S
H2174 C2190 0.931 . S
C2175 H2163 0.929 . S
C2175 C2169 1.390 . S
C2175 C2172 1.386 . S
C2176 C2171 1.490 . S
C2176 C2178 1.395 . S
C2176 C2179 1.403 . S
H2177 C2183 0.930 . S
C2178 H2164 0.930 . S
C2178 C2176 1.395 . S
C2178 C2181 1.403 . S
C2179 C2176 1.403 . S
C2179 C2180 1.524 . S
C2179 C2183 1.400 . S
C2180 H2165 0.960 . S
C2180 H2166 0.960 . S
C2180 H2167 0.960 . S
C2180 C2179 1.524 . S
C2181 C2178 1.403 . S
C2181 C2182 1.392 . S
C2181 C2185 1.495 . S
C2182 C2181 1.392 . S
C2182 C2183 1.385 . S
C2182 C2184 1.478 . S
C2183 H2177 0.930 . S
C2183 C2179 1.400 . S
C2183 C2182 1.385 . S
C2184 C2182 1.478 . S
C2184 C2186 1.381 . S
C2184 C2190 1.383 . S
C2185 C2181 1.495 . S
C2185 H2191 0.959 . S
C2185 H2192 0.961 . S
C2185 H2193 0.960 . S
C2186 C2184 1.381 . S
C2186 C2187 1.394 . S
C2186 H2194 0.930 . S
C2187 C2186 1.394 . S
C2187 C2188 1.383 . S
C2187 H2195 0.929 . S
C2188 C2187 1.383 . S
C2188 C2189 1.377 . S
C2189 H2173 0.930 . S
C2189 C2188 1.377 . S
C2189 C2190 1.379 . S
C2190 H2174 0.931 . S
C2190 C2184 1.383 . S
C2190 C2189 1.379 . S
H2191 C2185 0.959 . S
H2192 C2185 0.961 . S
H2193 C2185 0.960 . S
H2194 C2186 0.930 . S
H2195 C2187 0.929 . S
H2196 C2204 0.929 . S
H2197 C2206 0.930 . S
H2198 C2208 0.930 . S
H2199 C2211 0.929 . S
H2200 C2214 0.930 . S
H2201 C2216 0.960 . S
H2202 C2216 0.960 . S
H2203 C2216 0.960 . S
C2204 H2196 0.929 . S
C2204 C2205 1.377 . S
C2204 C2206 1.384 . S
C2205 C2204 1.377 . S
C2205 C2211 1.390 . S
C2206 H2197 0.930 . S
C2206 C2204 1.384 . S
C2206 C2207 1.372 . S
C2207 C2206 1.372 . S
C2207 C2208 1.400 . S
C2207 C2212 1.490 . S
C2208 H2198 0.930 . S
C2208 C2207 1.400 . S
C2208 C2211 1.386 . S
H2209 C2225 0.930 . S
H2210 C2226 0.931 . S
C2211 H2199 0.929 . S
C2211 C2205 1.390 . S
C2211 C2208 1.386 . S
C2212 C2207 1.490 . S
C2212 C2214 1.395 . S
C2212 C2215 1.403 . S
H2213 C2219 0.930 . S
C2214 H2200 0.930 . S
C2214 C2212 1.395 . S
C2214 C2217 1.403 . S
C2215 C2212 1.403 . S
C2215 C2216 1.524 . S
C2215 C2219 1.400 . S
C2216 H2201 0.960 . S
C2216 H2202 0.960 . S
C2216 H2203 0.960 . S
C2216 C2215 1.524 . S
C2217 C2214 1.403 . S
C2217 C2218 1.392 . S
C2217 C2221 1.495 . S
C2218 C2217 1.392 . S
C2218 C2219 1.385 . S
C2218 C2220 1.478 . S
C2219 H2213 0.930 . S
C2219 C2215 1.400 . S
C2219 C2218 1.385 . S
C2220 C2218 1.478 . S
C2220 C2222 1.381 . S
C2220 C2226 1.383 . S
C2221 C2217 1.495 . S
C2221 H2227 0.959 . S
C2221 H2228 0.961 . S
C2221 H2229 0.960 . S
C2222 C2220 1.381 . S
C2222 C2223 1.394 . S
C2222 H2230 0.930 . S
C2223 C2222 1.394 . S
C2223 C2224 1.383 . S
C2223 H2231 0.929 . S
C2224 C2223 1.383 . S
C2224 C2225 1.377 . S
C2225 H2209 0.930 . S
C2225 C2224 1.377 . S
C2225 C2226 1.379 . S
C2226 H2210 0.931 . S
C2226 C2220 1.383 . S
C2226 C2225 1.379 . S
H2227 C2221 0.959 . S
H2228 C2221 0.961 . S
H2229 C2221 0.960 . S
H2230 C2222 0.930 . S
H2231 C2223 0.929 . S
H2232 C2240 0.929 . S
H2233 C2242 0.930 . S
H2234 C2244 0.930 . S
H2235 C2247 0.929 . S
H2236 C2250 0.930 . S
H2237 C2252 0.960 . S
H2238 C2252 0.960 . S
H2239 C2252 0.960 . S
C2240 H2232 0.929 . S
C2240 C2241 1.377 . S
C2240 C2242 1.384 . S
C2241 C2240 1.377 . S
C2241 C2247 1.390 . S
C2242 H2233 0.930 . S
C2242 C2240 1.384 . S
C2242 C2243 1.372 . S
C2243 C2242 1.372 . S
C2243 C2244 1.400 . S
C2243 C2248 1.490 . S
C2244 H2234 0.930 . S
C2244 C2243 1.400 . S
C2244 C2247 1.386 . S
H2245 C2261 0.930 . S
H2246 C2262 0.931 . S
C2247 H2235 0.929 . S
C2247 C2241 1.390 . S
C2247 C2244 1.386 . S
C2248 C2243 1.490 . S
C2248 C2250 1.395 . S
C2248 C2251 1.403 . S
H2249 C2255 0.930 . S
C2250 H2236 0.930 . S
C2250 C2248 1.395 . S
C2250 C2253 1.403 . S
C2251 C2248 1.403 . S
C2251 C2252 1.524 . S
C2251 C2255 1.400 . S
C2252 H2237 0.960 . S
C2252 H2238 0.960 . S
C2252 H2239 0.960 . S
C2252 C2251 1.524 . S
C2253 C2250 1.403 . S
C2253 C2254 1.392 . S
C2253 C2257 1.495 . S
C2254 C2253 1.392 . S
C2254 C2255 1.385 . S
C2254 C2256 1.478 . S
C2255 H2249 0.930 . S
C2255 C2251 1.400 . S
C2255 C2254 1.385 . S
C2256 C2254 1.478 . S
C2256 C2258 1.381 . S
C2256 C2262 1.383 . S
C2257 C2253 1.495 . S
C2257 H2263 0.959 . S
C2257 H2264 0.961 . S
C2257 H2265 0.960 . S
C2258 C2256 1.381 . S
C2258 C2259 1.394 . S
C2258 H2266 0.930 . S
C2259 C2258 1.394 . S
C2259 C2260 1.383 . S
C2259 H2267 0.929 . S
C2260 C2259 1.383 . S
C2260 C2261 1.377 . S
C2261 H2245 0.930 . S
C2261 C2260 1.377 . S
C2261 C2262 1.379 . S
C2262 H2246 0.931 . S
C2262 C2256 1.383 . S
C2262 C2261 1.379 . S
H2263 C2257 0.959 . S
H2264 C2257 0.961 . S
H2265 C2257 0.960 . S
H2266 C2258 0.930 . S
H2267 C2259 0.929 . S
H2268 C2276 0.929 . S
H2269 C2278 0.930 . S
H2270 C2280 0.930 . S
H2271 C2283 0.929 . S
H2272 C2286 0.930 . S
H2273 C2288 0.960 . S
H2274 C2288 0.960 . S
H2275 C2288 0.960 . S
C2276 H2268 0.929 . S
C2276 C2277 1.377 . S
C2276 C2278 1.384 . S
C2277 C2276 1.377 . S
C2277 C2283 1.390 . S
C2278 H2269 0.930 . S
C2278 C2276 1.384 . S
C2278 C2279 1.372 . S
C2279 C2278 1.372 . S
C2279 C2280 1.400 . S
C2279 C2284 1.490 . S
C2280 H2270 0.930 . S
C2280 C2279 1.400 . S
C2280 C2283 1.386 . S
H2281 C2297 0.930 . S
H2282 C2298 0.931 . S
C2283 H2271 0.929 . S
C2283 C2277 1.390 . S
C2283 C2280 1.386 . S
C2284 C2279 1.490 . S
C2284 C2286 1.395 . S
C2284 C2287 1.403 . S
H2285 C2291 0.930 . S
C2286 H2272 0.930 . S
C2286 C2284 1.395 . S
C2286 C2289 1.403 . S
C2287 C2284 1.403 . S
C2287 C2288 1.524 . S
C2287 C2291 1.400 . S
C2288 H2273 0.960 . S
C2288 H2274 0.960 . S
C2288 H2275 0.960 . S
C2288 C2287 1.524 . S
C2289 C2286 1.403 . S
C2289 C2290 1.392 . S
C2289 C2293 1.495 . S
C2290 C2289 1.392 . S
C2290 C2291 1.385 . S
C2290 C2292 1.478 . S
C2291 H2285 0.930 . S
C2291 C2287 1.400 . S
C2291 C2290 1.385 . S
C2292 C2290 1.478 . S
C2292 C2294 1.381 . S
C2292 C2298 1.383 . S
C2293 C2289 1.495 . S
C2293 H2299 0.959 . S
C2293 H2300 0.961 . S
C2293 H2301 0.960 . S
C2294 C2292 1.381 . S
C2294 C2295 1.394 . S
C2294 H2302 0.930 . S
C2295 C2294 1.394 . S
C2295 C2296 1.383 . S
C2295 H2303 0.929 . S
C2296 C2295 1.383 . S
C2296 C2297 1.377 . S
C2297 H2281 0.930 . S
C2297 C2296 1.377 . S
C2297 C2298 1.379 . S
C2298 H2282 0.931 . S
C2298 C2292 1.383 . S
C2298 C2297 1.379 . S
H2299 C2293 0.959 . S
H2300 C2293 0.961 . S
H2301 C2293 0.960 . S
H2302 C2294 0.930 . S
H2303 C2295 0.929 . S
H2304 C2312 0.929 . S
H2305 C2314 0.930 . S
H2306 C2316 0.930 . S
H2307 C2319 0.929 . S
H2308 C2322 0.930 . S
H2309 C2324 0.960 . S
H2310 C2324 0.960 . S
H2311 C2324 0.960 . S
C2312 H2304 0.929 . S
C2312 C2313 1.377 . S
C2312 C2314 1.384 . S
C2313 C2312 1.377 . S
C2313 C2319 1.390 . S
C2314 H2305 0.930 . S
C2314 C2312 1.384 . S
C2314 C2315 1.372 . S
C2315 C2314 1.372 . S
C2315 C2316 1.400 . S
C2315 C2320 1.490 . S
C2316 H2306 0.930 . S
C2316 C2315 1.400 . S
C2316 C2319 1.386 . S
H2317 C2333 0.930 . S
H2318 C2334 0.931 . S
C2319 H2307 0.929 . S
C2319 C2313 1.390 . S
C2319 C2316 1.386 . S
C2320 C2315 1.490 . S
C2320 C2322 1.395 . S
C2320 C2323 1.403 . S
H2321 C2327 0.930 . S
C2322 H2308 0.930 . S
C2322 C2320 1.395 . S
C2322 C2325 1.403 . S
C2323 C2320 1.403 . S
C2323 C2324 1.524 . S
C2323 C2327 1.400 . S
C2324 H2309 0.960 . S
C2324 H2310 0.960 . S
C2324 H2311 0.960 . S
C2324 C2323 1.524 . S
C2325 C2322 1.403 . S
C2325 C2326 1.392 . S
C2325 C2329 1.495 . S
C2326 C2325 1.392 . S
C2326 C2327 1.385 . S
C2326 C2328 1.478 . S
C2327 H2321 0.930 . S
C2327 C2323 1.400 . S
C2327 C2326 1.385 . S
C2328 C2326 1.478 . S
C2328 C2330 1.381 . S
C2328 C2334 1.383 . S
C2329 C2325 1.495 . S
C2329 H2335 0.959 . S
C2329 H2336 0.961 . S
C2329 H2337 0.960 . S
C2330 C2328 1.381 . S
C2330 C2331 1.394 . S
C2330 H2338 0.930 . S
C2331 C2330 1.394 . S
C2331 C2332 1.383 . S
C2331 H2339 0.929 . S
C2332 C2331 1.383 . S
C2332 C2333 1.377 . S
C2333 H2317 0.930 . S
C2333 C2332 1.377 . S
C2333 C2334 1.379 . S
C2334 H2318 0.931 . S
C2334 C2328 1.383 . S
C2334 C2333 1.379 . S
H2335 C2329 0.959 . S
H2336 C2329 0.961 . S
H2337 C2329 0.960 . S
H2338 C2330 0.930 . S
H2339 C2331 0.929 . S
H2340 C2348 0.929 . S
H2341 C2350 0.930 . S
H2342 C2352 0.930 . S
H2343 C2355 0.929 . S
H2344 C2358 0.930 . S
H2345 C2360 0.960 . S
H2346 C2360 0.960 . S
H2347 C2360 0.960 . S
C2348 H2340 0.929 . S
C2348 C2349 1.377 . S
C2348 C2350 1.384 . S
C2349 C2348 1.377 . S
C2349 C2355 1.390 . S
C2350 H2341 0.930 . S
C2350 C2348 1.384 . S
C2350 C2351 1.372 . S
C2351 C2350 1.372 . S
C2351 C2352 1.400 . S
C2351 C2356 1.490 . S
C2352 H2342 0.930 . S
C2352 C2351 1.400 . S
C2352 C2355 1.386 . S
H2353 C2369 0.930 . S
H2354 C2370 0.931 . S
C2355 H2343 0.929 . S
C2355 C2349 1.390 . S
C2355 C2352 1.386 . S
C2356 C2351 1.490 . S
C2356 C2358 1.395 . S
C2356 C2359 1.403 . S
H2357 C2363 0.930 . S
C2358 H2344 0.930 . S
C2358 C2356 1.395 . S
C2358 C2361 1.403 . S
C2359 C2356 1.403 . S
C2359 C2360 1.524 . S
C2359 C2363 1.400 . S
C2360 H2345 0.960 . S
C2360 H2346 0.960 . S
C2360 H2347 0.960 . S
C2360 C2359 1.524 . S
C2361 C2358 1.403 . S
C2361 C2362 1.392 . S
C2361 C2365 1.495 . S
C2362 C2361 1.392 . S
C2362 C2363 1.385 . S
C2362 C2364 1.478 . S
C2363 H2357 0.930 . S
C2363 C2359 1.400 . S
C2363 C2362 1.385 . S
C2364 C2362 1.478 . S
C2364 C2366 1.381 . S
C2364 C2370 1.383 . S
C2365 C2361 1.495 . S
C2365 H2371 0.959 . S
C2365 H2372 0.961 . S
C2365 H2373 0.960 . S
C2366 C2364 1.381 . S
C2366 C2367 1.394 . S
C2366 H2374 0.930 . S
C2367 C2366 1.394 . S
C2367 C2368 1.383 . S
C2367 H2375 0.929 . S
C2368 C2367 1.383 . S
C2368 C2369 1.377 . S
C2369 H2353 0.930 . S
C2369 C2368 1.377 . S
C2369 C2370 1.379 . S
C2370 H2354 0.931 . S
C2370 C2364 1.383 . S
C2370 C2369 1.379 . S
H2371 C2365 0.959 . S
H2372 C2365 0.961 . S
H2373 C2365 0.960 . S
H2374 C2366 0.930 . S
H2375 C2367 0.929 . S
H2376 C2384 0.929 . S
H2377 C2386 0.930 . S
H2378 C2388 0.930 . S
H2379 C2391 0.929 . S
H2380 C2394 0.930 . S
H2381 C2396 0.960 . S
H2382 C2396 0.960 . S
H2383 C2396 0.960 . S
C2384 H2376 0.929 . S
C2384 C2385 1.377 . S
C2384 C2386 1.384 . S
C2385 C2384 1.377 . S
C2385 C2391 1.390 . S
C2386 H2377 0.930 . S
C2386 C2384 1.384 . S
C2386 C2387 1.372 . S
C2387 C2386 1.372 . S
C2387 C2388 1.400 . S
C2387 C2392 1.490 . S
C2388 H2378 0.930 . S
C2388 C2387 1.400 . S
C2388 C2391 1.386 . S
H2389 C2405 0.930 . S
H2390 C2406 0.931 . S
C2391 H2379 0.929 . S
C2391 C2385 1.390 . S
C2391 C2388 1.386 . S
C2392 C2387 1.490 . S
C2392 C2394 1.395 . S
C2392 C2395 1.403 . S
H2393 C2399 0.930 . S
C2394 H2380 0.930 . S
C2394 C2392 1.395 . S
C2394 C2397 1.403 . S
C2395 C2392 1.403 . S
C2395 C2396 1.524 . S
C2395 C2399 1.400 . S
C2396 H2381 0.960 . S
C2396 H2382 0.960 . S
C2396 H2383 0.960 . S
C2396 C2395 1.524 . S
C2397 C2394 1.403 . S
C2397 C2398 1.392 . S
C2397 C2401 1.495 . S
C2398 C2397 1.392 . S
C2398 C2399 1.385 . S
C2398 C2400 1.478 . S
C2399 H2393 0.930 . S
C2399 C2395 1.400 . S
C2399 C2398 1.385 . S
C2400 C2398 1.478 . S
C2400 C2402 1.381 . S
C2400 C2406 1.383 . S
C2401 C2397 1.495 . S
C2401 H2407 0.959 . S
C2401 H2408 0.961 . S
C2401 H2409 0.960 . S
C2402 C2400 1.381 . S
C2402 C2403 1.394 . S
C2402 H2410 0.930 . S
C2403 C2402 1.394 . S
C2403 C2404 1.383 . S
C2403 H2411 0.929 . S
C2404 C2403 1.383 . S
C2404 C2405 1.377 . S
C2405 H2389 0.930 . S
C2405 C2404 1.377 . S
C2405 C2406 1.379 . S
C2406 H2390 0.931 . S
C2406 C2400 1.383 . S
C2406 C2405 1.379 . S
H2407 C2401 0.959 . S
H2408 C2401 0.961 . S
H2409 C2401 0.960 . S
H2410 C2402 0.930 . S
H2411 C2403 0.929 . S
H2412 C2420 0.929 . S
H2413 C2422 0.930 . S
H2414 C2424 0.930 . S
H2415 C2427 0.929 . S
H2416 C2430 0.930 . S
H2417 C2432 0.960 . S
H2418 C2432 0.960 . S
H2419 C2432 0.960 . S
C2420 H2412 0.929 . S
C2420 C2421 1.377 . S
C2420 C2422 1.384 . S
C2421 C2420 1.377 . S
C2421 C2427 1.390 . S
C2422 H2413 0.930 . S
C2422 C2420 1.384 . S
C2422 C2423 1.372 . S
C2423 C2422 1.372 . S
C2423 C2424 1.400 . S
C2423 C2428 1.490 . S
C2424 H2414 0.930 . S
C2424 C2423 1.400 . S
C2424 C2427 1.386 . S
H2425 C2441 0.930 . S
H2426 C2442 0.931 . S
C2427 H2415 0.929 . S
C2427 C2421 1.390 . S
C2427 C2424 1.386 . S
C2428 C2423 1.490 . S
C2428 C2430 1.395 . S
C2428 C2431 1.403 . S
H2429 C2435 0.930 . S
C2430 H2416 0.930 . S
C2430 C2428 1.395 . S
C2430 C2433 1.403 . S
C2431 C2428 1.403 . S
C2431 C2432 1.524 . S
C2431 C2435 1.400 . S
C2432 H2417 0.960 . S
C2432 H2418 0.960 . S
C2432 H2419 0.960 . S
C2432 C2431 1.524 . S
C2433 C2430 1.403 . S
C2433 C2434 1.392 . S
C2433 C2437 1.495 . S
C2434 C2433 1.392 . S
C2434 C2435 1.385 . S
C2434 C2436 1.478 . S
C2435 H2429 0.930 . S
C2435 C2431 1.400 . S
C2435 C2434 1.385 . S
C2436 C2434 1.478 . S
C2436 C2438 1.381 . S
C2436 C2442 1.383 . S
C2437 C2433 1.495 . S
C2437 H2443 0.959 . S
C2437 H2444 0.961 . S
C2437 H2445 0.960 . S
C2438 C2436 1.381 . S
C2438 C2439 1.394 . S
C2438 H2446 0.930 . S
C2439 C2438 1.394 . S
C2439 C2440 1.383 . S
C2439 H2447 0.929 . S
C2440 C2439 1.383 . S
C2440 C2441 1.377 . S
C2441 H2425 0.930 . S
C2441 C2440 1.377 . S
C2441 C2442 1.379 . S
C2442 H2426 0.931 . S
C2442 C2436 1.383 . S
C2442 C2441 1.379 . S
H2443 C2437 0.959 . S
H2444 C2437 0.961 . S
H2445 C2437 0.960 . S
H2446 C2438 0.930 . S
H2447 C2439 0.929 . S
H2448 C2456 0.929 . S
H2449 C2458 0.930 . S
H2450 C2460 0.930 . S
H2451 C2463 0.929 . S
H2452 C2466 0.930 . S
H2453 C2468 0.960 . S
H2454 C2468 0.960 . S
H2455 C2468 0.960 . S
C2456 H2448 0.929 . S
C2456 C2457 1.377 . S
C2456 C2458 1.384 . S
C2457 C2456 1.377 . S
C2457 C2463 1.390 . S
C2458 H2449 0.930 . S
C2458 C2456 1.384 . S
C2458 C2459 1.372 . S
C2459 C2458 1.372 . S
C2459 C2460 1.400 . S
C2459 C2464 1.490 . S
C2460 H2450 0.930 . S
C2460 C2459 1.400 . S
C2460 C2463 1.386 . S
H2461 C2477 0.930 . S
H2462 C2478 0.931 . S
C2463 H2451 0.929 . S
C2463 C2457 1.390 . S
C2463 C2460 1.386 . S
C2464 C2459 1.490 . S
C2464 C2466 1.395 . S
C2464 C2467 1.403 . S
H2465 C2471 0.930 . S
C2466 H2452 0.930 . S
C2466 C2464 1.395 . S
C2466 C2469 1.403 . S
C2467 C2464 1.403 . S
C2467 C2468 1.524 . S
C2467 C2471 1.400 . S
C2468 H2453 0.960 . S
C2468 H2454 0.960 . S
C2468 H2455 0.960 . S
C2468 C2467 1.524 . S
C2469 C2466 1.403 . S
C2469 C2470 1.392 . S
C2469 C2473 1.495 . S
C2470 C2469 1.392 . S
C2470 C2471 1.385 . S
C2470 C2472 1.478 . S
C2471 H2465 0.930 . S
C2471 C2467 1.400 . S
C2471 C2470 1.385 . S
C2472 C2470 1.478 . S
C2472 C2474 1.381 . S
C2472 C2478 1.383 . S
C2473 C2469 1.495 . S
C2473 H2479 0.959 . S
C2473 H2480 0.961 . S
C2473 H2481 0.960 . S
C2474 C2472 1.381 . S
C2474 C2475 1.394 . S
C2474 H2482 0.930 . S
C2475 C2474 1.394 . S
C2475 C2476 1.383 . S
C2475 H2483 0.929 . S
C2476 C2475 1.383 . S
C2476 C2477 1.377 . S
C2477 H2461 0.930 . S
C2477 C2476 1.377 . S
C2477 C2478 1.379 . S
C2478 H2462 0.931 . S
C2478 C2472 1.383 . S
C2478 C2477 1.379 . S
H2479 C2473 0.959 . S
H2480 C2473 0.961 . S
H2481 C2473 0.960 . S
H2482 C2474 0.930 . S
H2483 C2475 0.929 . S
H2484 C2492 0.929 . S
H2485 C2494 0.930 . S
H2486 C2496 0.930 . S
H2487 C2499 0.929 . S
H2488 C2502 0.930 . S
H2489 C2504 0.960 . S
H2490 C2504 0.960 . S
H2491 C2504 0.960 . S
C2492 H2484 0.929 . S
C2492 C2493 1.377 . S
C2492 C2494 1.384 . S
C2493 C2492 1.377 . S
C2493 C2499 1.390 . S
C2494 H2485 0.930 . S
C2494 C2492 1.384 . S
C2494 C2495 1.372 . S
C2495 C2494 1.372 . S
C2495 C2496 1.400 . S
C2495 C2500 1.490 . S
C2496 H2486 0.930 . S
C2496 C2495 1.400 . S
C2496 C2499 1.386 . S
H2497 C2513 0.930 . S
H2498 C2514 0.931 . S
C2499 H2487 0.929 . S
C2499 C2493 1.390 . S
C2499 C2496 1.386 . S
C2500 C2495 1.490 . S
C2500 C2502 1.395 . S
C2500 C2503 1.403 . S
H2501 C2507 0.930 . S
C2502 H2488 0.930 . S
C2502 C2500 1.395 . S
C2502 C2505 1.403 . S
C2503 C2500 1.403 . S
C2503 C2504 1.524 . S
C2503 C2507 1.400 . S
C2504 H2489 0.960 . S
C2504 H2490 0.960 . S
C2504 H2491 0.960 . S
C2504 C2503 1.524 . S
C2505 C2502 1.403 . S
C2505 C2506 1.392 . S
C2505 C2509 1.495 . S
C2506 C2505 1.392 . S
C2506 C2507 1.385 . S
C2506 C2508 1.478 . S
C2507 H2501 0.930 . S
C2507 C2503 1.400 . S
C2507 C2506 1.385 . S
C2508 C2506 1.478 . S
C2508 C2510 1.381 . S
C2508 C2514 1.383 . S
C2509 C2505 1.495 . S
C2509 H2515 0.959 . S
C2509 H2516 0.961 . S
C2509 H2517 0.960 . S
C2510 C2508 1.381 . S
C2510 C2511 1.394 . S
C2510 H2518 0.930 . S
C2511 C2510 1.394 . S
C2511 C2512 1.383 . S
C2511 H2519 0.929 . S
C2512 C2511 1.383 . S
C2512 C2513 1.377 . S
C2513 H2497 0.930 . S
C2513 C2512 1.377 . S
C2513 C2514 1.379 . S
C2514 H2498 0.931 . S
C2514 C2508 1.383 . S
C2514 C2513 1.379 . S
H2515 C2509 0.959 . S
H2516 C2509 0.961 . S
H2517 C2509 0.960 . S
H2518 C2510 0.930 . S
H2519 C2511 0.929 . S
H2520 C2528 0.929 . S
H2521 C2530 0.930 . S
H2522 C2532 0.930 . S
H2523 C2535 0.929 . S
H2524 C2538 0.930 . S
H2525 C2540 0.960 . S
H2526 C2540 0.960 . S
H2527 C2540 0.960 . S
C2528 H2520 0.929 . S
C2528 C2529 1.377 . S
C2528 C2530 1.384 . S
C2529 C2528 1.377 . S
C2529 C2535 1.390 . S
C2530 H2521 0.930 . S
C2530 C2528 1.384 . S
C2530 C2531 1.372 . S
C2531 C2530 1.372 . S
C2531 C2532 1.400 . S
C2531 C2536 1.490 . S
C2532 H2522 0.930 . S
C2532 C2531 1.400 . S
C2532 C2535 1.386 . S
H2533 C2549 0.930 . S
H2534 C2550 0.931 . S
C2535 H2523 0.929 . S
C2535 C2529 1.390 . S
C2535 C2532 1.386 . S
C2536 C2531 1.490 . S
C2536 C2538 1.395 . S
C2536 C2539 1.403 . S
H2537 C2543 0.930 . S
C2538 H2524 0.930 . S
C2538 C2536 1.395 . S
C2538 C2541 1.403 . S
C2539 C2536 1.403 . S
C2539 C2540 1.524 . S
C2539 C2543 1.400 . S
C2540 H2525 0.960 . S
C2540 H2526 0.960 . S
C2540 H2527 0.960 . S
C2540 C2539 1.524 . S
C2541 C2538 1.403 . S
C2541 C2542 1.392 . S
C2541 C2545 1.495 . S
C2542 C2541 1.392 . S
C2542 C2543 1.385 . S
C2542 C2544 1.478 . S
C2543 H2537 0.930 . S
C2543 C2539 1.400 . S
C2543 C2542 1.385 . S
C2544 C2542 1.478 . S
C2544 C2546 1.381 . S
C2544 C2550 1.383 . S
C2545 C2541 1.495 . S
C2545 H2551 0.959 . S
C2545 H2552 0.961 . S
C2545 H2553 0.960 . S
C2546 C2544 1.381 . S
C2546 C2547 1.394 . S
C2546 H2554 0.930 . S
C2547 C2546 1.394 . S
C2547 C2548 1.383 . S
C2547 H2555 0.929 . S
C2548 C2547 1.383 . S
C2548 C2549 1.377 . S
C2549 H2533 0.930 . S
C2549 C2548 1.377 . S
C2549 C2550 1.379 . S
C2550 H2534 0.931 . S
C2550 C2544 1.383 . S
C2550 C2549 1.379 . S
H2551 C2545 0.959 . S
H2552 C2545 0.961 . S
H2553 C2545 0.960 . S
H2554 C2546 0.930 . S
H2555 C2547 0.929 . S
H2556 C2564 0.929 1_554 S
H2557 C2566 0.930 . S
H2558 C2568 0.930 . S
H2559 C2571 0.929 . S
H2560 C2574 0.930 . S
H2561 C2576 0.960 . S
H2562 C2576 0.960 . S
H2563 C2576 0.960 . S
C2564 H2556 0.929 1_556 S
C2564 C2565 1.377 . S
C2564 C2566 1.384 . S
C2565 C2564 1.377 . S
C2565 C2571 1.390 . S
C2566 H2557 0.930 . S
C2566 C2564 1.384 . S
C2566 C2567 1.372 . S
C2567 C2566 1.372 . S
C2567 C2568 1.400 . S
C2567 C2572 1.490 . S
C2568 H2558 0.930 . S
C2568 C2567 1.400 . S
C2568 C2571 1.386 . S
H2569 C2585 0.930 . S
H2570 C2586 0.931 . S
C2571 H2559 0.929 . S
C2571 C2565 1.390 . S
C2571 C2568 1.386 . S
C2572 C2567 1.490 . S
C2572 C2574 1.395 . S
C2572 C2575 1.403 . S
H2573 C2579 0.930 . S
C2574 H2560 0.930 . S
C2574 C2572 1.395 . S
C2574 C2577 1.403 . S
C2575 C2572 1.403 . S
C2575 C2576 1.524 . S
C2575 C2579 1.400 . S
C2576 H2561 0.960 . S
C2576 H2562 0.960 . S
C2576 H2563 0.960 . S
C2576 C2575 1.524 . S
C2577 C2574 1.403 . S
C2577 C2578 1.392 . S
C2577 C2581 1.495 . S
C2578 C2577 1.392 . S
C2578 C2579 1.385 . S
C2578 C2580 1.478 . S
C2579 H2573 0.930 . S
C2579 C2575 1.400 . S
C2579 C2578 1.385 . S
C2580 C2578 1.478 . S
C2580 C2582 1.381 . S
C2580 C2586 1.383 . S
C2581 C2577 1.495 . S
C2581 H2587 0.959 . S
C2581 H2588 0.961 . S
C2581 H2589 0.960 . S
C2582 C2580 1.381 . S
C2582 C2583 1.394 . S
C2582 H2590 0.930 . S
C2583 C2582 1.394 . S
C2583 C2584 1.383 . S
C2583 H2591 0.929 . S
C2584 C2583 1.383 . S
C2584 C2585 1.377 . S
C2585 H2569 0.930 . S
C2585 C2584 1.377 . S
C2585 C2586 1.379 . S
C2586 H2570 0.931 . S
C2586 C2580 1.383 . S
C2586 C2585 1.379 . S
H2587 C2581 0.959 . S
H2588 C2581 0.961 . S
H2589 C2581 0.960 . S
H2590 C2582 0.930 . S
H2591 C2583 0.929 . S
H2592 C2600 0.929 . S
H2593 C2602 0.930 . S
H2594 C2604 0.930 . S
H2595 C2607 0.929 . S
H2596 C2610 0.930 . S
H2597 C2612 0.960 . S
H2598 C2612 0.960 . S
H2599 C2612 0.960 . S
C2600 H2592 0.929 . S
C2600 C2601 1.377 . S
C2600 C2602 1.384 . S
C2601 C2600 1.377 . S
C2601 C2607 1.390 . S
C2602 H2593 0.930 . S
C2602 C2600 1.384 . S
C2602 C2603 1.372 . S
C2603 C2602 1.372 . S
C2603 C2604 1.400 . S
C2603 C2608 1.490 . S
C2604 H2594 0.930 . S
C2604 C2603 1.400 . S
C2604 C2607 1.386 . S
H2605 C2621 0.930 . S
H2606 C2622 0.931 . S
C2607 H2595 0.929 . S
C2607 C2601 1.390 . S
C2607 C2604 1.386 . S
C2608 C2603 1.490 . S
C2608 C2610 1.395 . S
C2608 C2611 1.403 . S
H2609 C2615 0.930 . S
C2610 H2596 0.930 . S
C2610 C2608 1.395 . S
C2610 C2613 1.403 . S
C2611 C2608 1.403 . S
C2611 C2612 1.524 . S
C2611 C2615 1.400 . S
C2612 H2597 0.960 . S
C2612 H2598 0.960 . S
C2612 H2599 0.960 . S
C2612 C2611 1.524 . S
C2613 C2610 1.403 . S
C2613 C2614 1.392 . S
C2613 C2617 1.495 . S
C2614 C2613 1.392 . S
C2614 C2615 1.385 . S
C2614 C2616 1.478 . S
C2615 H2609 0.930 . S
C2615 C2611 1.400 . S
C2615 C2614 1.385 . S
C2616 C2614 1.478 . S
C2616 C2618 1.381 . S
C2616 C2622 1.383 . S
C2617 C2613 1.495 . S
C2617 H2623 0.959 . S
C2617 H2624 0.961 . S
C2617 H2625 0.960 . S
C2618 C2616 1.381 . S
C2618 C2619 1.394 . S
C2618 H2626 0.930 . S
C2619 C2618 1.394 . S
C2619 C2620 1.383 . S
C2619 H2627 0.929 . S
C2620 C2619 1.383 . S
C2620 C2621 1.377 . S
C2621 H2605 0.930 . S
C2621 C2620 1.377 . S
C2621 C2622 1.379 . S
C2622 H2606 0.931 . S
C2622 C2616 1.383 . S
C2622 C2621 1.379 . S
H2623 C2617 0.959 . S
H2624 C2617 0.961 . S
H2625 C2617 0.960 . S
H2626 C2618 0.930 . S
H2627 C2619 0.929 . S
H2628 C2636 0.929 . S
H2629 C2638 0.930 . S
H2630 C2640 0.930 . S
H2631 C2643 0.929 . S
H2632 C2646 0.930 . S
H2633 C2648 0.960 . S
H2634 C2648 0.960 . S
H2635 C2648 0.960 . S
C2636 H2628 0.929 . S
C2636 C2637 1.377 . S
C2636 C2638 1.384 . S
C2637 C2636 1.377 . S
C2637 C2643 1.390 . S
C2638 H2629 0.930 . S
C2638 C2636 1.384 . S
C2638 C2639 1.372 . S
C2639 C2638 1.372 . S
C2639 C2640 1.400 . S
C2639 C2644 1.490 . S
C2640 H2630 0.930 . S
C2640 C2639 1.400 . S
C2640 C2643 1.386 . S
H2641 C2657 0.930 . S
H2642 C2658 0.931 . S
C2643 H2631 0.929 . S
C2643 C2637 1.390 . S
C2643 C2640 1.386 . S
C2644 C2639 1.490 . S
C2644 C2646 1.395 . S
C2644 C2647 1.403 . S
H2645 C2651 0.930 . S
C2646 H2632 0.930 . S
C2646 C2644 1.395 . S
C2646 C2649 1.403 . S
C2647 C2644 1.403 . S
C2647 C2648 1.524 . S
C2647 C2651 1.400 . S
C2648 H2633 0.960 . S
C2648 H2634 0.960 . S
C2648 H2635 0.960 . S
C2648 C2647 1.524 . S
C2649 C2646 1.403 . S
C2649 C2650 1.392 . S
C2649 C2653 1.495 . S
C2650 C2649 1.392 . S
C2650 C2651 1.385 . S
C2650 C2652 1.478 . S
C2651 H2645 0.930 . S
C2651 C2647 1.400 . S
C2651 C2650 1.385 . S
C2652 C2650 1.478 . S
C2652 C2654 1.381 . S
C2652 C2658 1.383 . S
C2653 C2649 1.495 . S
C2653 H2659 0.959 . S
C2653 H2660 0.961 . S
C2653 H2661 0.960 . S
C2654 C2652 1.381 . S
C2654 C2655 1.394 . S
C2654 H2662 0.930 . S
C2655 C2654 1.394 . S
C2655 C2656 1.383 . S
C2655 H2663 0.929 . S
C2656 C2655 1.383 . S
C2656 C2657 1.377 . S
C2657 H2641 0.930 . S
C2657 C2656 1.377 . S
C2657 C2658 1.379 . S
C2658 H2642 0.931 . S
C2658 C2652 1.383 . S
C2658 C2657 1.379 . S
H2659 C2653 0.959 . S
H2660 C2653 0.961 . S
H2661 C2653 0.960 . S
H2662 C2654 0.930 . S
H2663 C2655 0.929 . S
H2664 C2672 0.929 1_554 S
H2665 C2674 0.930 . S
H2666 C2676 0.930 . S
H2667 C2679 0.929 . S
H2668 C2682 0.930 . S
H2669 C2684 0.960 . S
H2670 C2684 0.960 . S
H2671 C2684 0.960 . S
C2672 H2664 0.929 1_556 S
C2672 C2673 1.377 . S
C2672 C2674 1.384 . S
C2673 C2672 1.377 . S
C2673 C2679 1.390 . S
C2674 H2665 0.930 . S
C2674 C2672 1.384 . S
C2674 C2675 1.372 . S
C2675 C2674 1.372 . S
C2675 C2676 1.400 . S
C2675 C2680 1.490 . S
C2676 H2666 0.930 . S
C2676 C2675 1.400 . S
C2676 C2679 1.386 . S
H2677 C2693 0.930 . S
H2678 C2694 0.931 . S
C2679 H2667 0.929 . S
C2679 C2673 1.390 . S
C2679 C2676 1.386 . S
C2680 C2675 1.490 . S
C2680 C2682 1.395 . S
C2680 C2683 1.403 . S
H2681 C2687 0.930 . S
C2682 H2668 0.930 . S
C2682 C2680 1.395 . S
C2682 C2685 1.403 . S
C2683 C2680 1.403 . S
C2683 C2684 1.524 . S
C2683 C2687 1.400 . S
C2684 H2669 0.960 . S
C2684 H2670 0.960 . S
C2684 H2671 0.960 . S
C2684 C2683 1.524 . S
C2685 C2682 1.403 . S
C2685 C2686 1.392 . S
C2685 C2689 1.495 . S
C2686 C2685 1.392 . S
C2686 C2687 1.385 . S
C2686 C2688 1.478 . S
C2687 H2681 0.930 . S
C2687 C2683 1.400 . S
C2687 C2686 1.385 . S
C2688 C2686 1.478 . S
C2688 C2690 1.381 . S
C2688 C2694 1.383 . S
C2689 C2685 1.495 . S
C2689 H2695 0.959 . S
C2689 H2696 0.961 . S
C2689 H2697 0.960 . S
C2690 C2688 1.381 . S
C2690 C2691 1.394 . S
C2690 H2698 0.930 . S
C2691 C2690 1.394 . S
C2691 C2692 1.383 . S
C2691 H2699 0.929 . S
C2692 C2691 1.383 . S
C2692 C2693 1.377 . S
C2693 H2677 0.930 . S
C2693 C2692 1.377 . S
C2693 C2694 1.379 . S
C2694 H2678 0.931 . S
C2694 C2688 1.383 . S
C2694 C2693 1.379 . S
H2695 C2689 0.959 . S
H2696 C2689 0.961 . S
H2697 C2689 0.960 . S
H2698 C2690 0.930 . S
H2699 C2691 0.929 . S
H2700 C2708 0.929 . S
H2701 C2710 0.930 . S
H2702 C2712 0.930 . S
H2703 C2715 0.929 . S
H2704 C2718 0.930 . S
H2705 C2720 0.960 . S
H2706 C2720 0.960 . S
H2707 C2720 0.960 . S
C2708 H2700 0.929 . S
C2708 C2709 1.377 . S
C2708 C2710 1.384 . S
C2709 C2708 1.377 . S
C2709 C2715 1.390 . S
C2710 H2701 0.930 . S
C2710 C2708 1.384 . S
C2710 C2711 1.372 . S
C2711 C2710 1.372 . S
C2711 C2712 1.400 . S
C2711 C2716 1.490 . S
C2712 H2702 0.930 . S
C2712 C2711 1.400 . S
C2712 C2715 1.386 . S
H2713 C2729 0.930 . S
H2714 C2730 0.931 . S
C2715 H2703 0.929 . S
C2715 C2709 1.390 . S
C2715 C2712 1.386 . S
C2716 C2711 1.490 . S
C2716 C2718 1.395 . S
C2716 C2719 1.403 . S
H2717 C2723 0.930 . S
C2718 H2704 0.930 . S
C2718 C2716 1.395 . S
C2718 C2721 1.403 . S
C2719 C2716 1.403 . S
C2719 C2720 1.524 . S
C2719 C2723 1.400 . S
C2720 H2705 0.960 . S
C2720 H2706 0.960 . S
C2720 H2707 0.960 . S
C2720 C2719 1.524 . S
C2721 C2718 1.403 . S
C2721 C2722 1.392 . S
C2721 C2725 1.495 . S
C2722 C2721 1.392 . S
C2722 C2723 1.385 . S
C2722 C2724 1.478 . S
C2723 H2717 0.930 . S
C2723 C2719 1.400 . S
C2723 C2722 1.385 . S
C2724 C2722 1.478 . S
C2724 C2726 1.381 . S
C2724 C2730 1.383 . S
C2725 C2721 1.495 . S
C2725 H2731 0.959 . S
C2725 H2732 0.961 . S
C2725 H2733 0.960 . S
C2726 C2724 1.381 . S
C2726 C2727 1.394 . S
C2726 H2734 0.930 . S
C2727 C2726 1.394 . S
C2727 C2728 1.383 . S
C2727 H2735 0.929 . S
C2728 C2727 1.383 . S
C2728 C2729 1.377 . S
C2729 H2713 0.930 . S
C2729 C2728 1.377 . S
C2729 C2730 1.379 . S
C2730 H2714 0.931 . S
C2730 C2724 1.383 . S
C2730 C2729 1.379 . S
H2731 C2725 0.959 . S
H2732 C2725 0.961 . S
H2733 C2725 0.960 . S
H2734 C2726 0.930 . S
H2735 C2727 0.929 . S
H2736 C2744 0.929 . S
H2737 C2746 0.930 . S
H2738 C2748 0.930 . S
H2739 C2751 0.929 . S
H2740 C2754 0.930 . S
H2741 C2756 0.960 . S
H2742 C2756 0.960 . S
H2743 C2756 0.960 . S
C2744 H2736 0.929 . S
C2744 C2745 1.377 . S
C2744 C2746 1.384 . S
C2745 C2744 1.377 . S
C2745 C2751 1.390 . S
C2746 H2737 0.930 . S
C2746 C2744 1.384 . S
C2746 C2747 1.372 . S
C2747 C2746 1.372 . S
C2747 C2748 1.400 . S
C2747 C2752 1.490 . S
C2748 H2738 0.930 . S
C2748 C2747 1.400 . S
C2748 C2751 1.386 . S
H2749 C2765 0.930 . S
H2750 C2766 0.931 . S
C2751 H2739 0.929 . S
C2751 C2745 1.390 . S
C2751 C2748 1.386 . S
C2752 C2747 1.490 . S
C2752 C2754 1.395 . S
C2752 C2755 1.403 . S
H2753 C2759 0.930 . S
C2754 H2740 0.930 . S
C2754 C2752 1.395 . S
C2754 C2757 1.403 . S
C2755 C2752 1.403 . S
C2755 C2756 1.524 . S
C2755 C2759 1.400 . S
C2756 H2741 0.960 . S
C2756 H2742 0.960 . S
C2756 H2743 0.960 . S
C2756 C2755 1.524 . S
C2757 C2754 1.403 . S
C2757 C2758 1.392 . S
C2757 C2761 1.495 . S
C2758 C2757 1.392 . S
C2758 C2759 1.385 . S
C2758 C2760 1.478 . S
C2759 H2753 0.930 . S
C2759 C2755 1.400 . S
C2759 C2758 1.385 . S
C2760 C2758 1.478 . S
C2760 C2762 1.381 . S
C2760 C2766 1.383 . S
C2761 C2757 1.495 . S
C2761 H2767 0.959 . S
C2761 H2768 0.961 . S
C2761 H2769 0.960 . S
C2762 C2760 1.381 . S
C2762 C2763 1.394 . S
C2762 H2770 0.930 . S
C2763 C2762 1.394 . S
C2763 C2764 1.383 . S
C2763 H2771 0.929 . S
C2764 C2763 1.383 . S
C2764 C2765 1.377 . S
C2765 H2749 0.930 . S
C2765 C2764 1.377 . S
C2765 C2766 1.379 . S
C2766 H2750 0.931 . S
C2766 C2760 1.383 . S
C2766 C2765 1.379 . S
H2767 C2761 0.959 . S
H2768 C2761 0.961 . S
H2769 C2761 0.960 . S
H2770 C2762 0.930 . S
H2771 C2763 0.929 . S
H2772 C2780 0.929 . S
H2773 C2782 0.930 . S
H2774 C2784 0.930 . S
H2775 C2787 0.929 . S
H2776 C2790 0.930 . S
H2777 C2792 0.960 . S
H2778 C2792 0.960 . S
H2779 C2792 0.960 . S
C2780 H2772 0.929 . S
C2780 C2781 1.377 . S
C2780 C2782 1.384 . S
C2781 C2780 1.377 . S
C2781 C2787 1.390 . S
C2782 H2773 0.930 . S
C2782 C2780 1.384 . S
C2782 C2783 1.372 . S
C2783 C2782 1.372 . S
C2783 C2784 1.400 . S
C2783 C2788 1.490 . S
C2784 H2774 0.930 . S
C2784 C2783 1.400 . S
C2784 C2787 1.386 . S
H2785 C2801 0.930 . S
H2786 C2802 0.931 . S
C2787 H2775 0.929 . S
C2787 C2781 1.390 . S
C2787 C2784 1.386 . S
C2788 C2783 1.490 . S
C2788 C2790 1.395 . S
C2788 C2791 1.403 . S
H2789 C2795 0.930 . S
C2790 H2776 0.930 . S
C2790 C2788 1.395 . S
C2790 C2793 1.403 . S
C2791 C2788 1.403 . S
C2791 C2792 1.524 . S
C2791 C2795 1.400 . S
C2792 H2777 0.960 . S
C2792 H2778 0.960 . S
C2792 H2779 0.960 . S
C2792 C2791 1.524 . S
C2793 C2790 1.403 . S
C2793 C2794 1.392 . S
C2793 C2797 1.495 . S
C2794 C2793 1.392 . S
C2794 C2795 1.385 . S
C2794 C2796 1.478 . S
C2795 H2789 0.930 . S
C2795 C2791 1.400 . S
C2795 C2794 1.385 . S
C2796 C2794 1.478 . S
C2796 C2798 1.381 . S
C2796 C2802 1.383 . S
C2797 C2793 1.495 . S
C2797 H2803 0.959 . S
C2797 H2804 0.961 . S
C2797 H2805 0.960 . S
C2798 C2796 1.381 . S
C2798 C2799 1.394 . S
C2798 H2806 0.930 . S
C2799 C2798 1.394 . S
C2799 C2800 1.383 . S
C2799 H2807 0.929 . S
C2800 C2799 1.383 . S
C2800 C2801 1.377 . S
C2801 H2785 0.930 . S
C2801 C2800 1.377 . S
C2801 C2802 1.379 . S
C2802 H2786 0.931 . S
C2802 C2796 1.383 . S
C2802 C2801 1.379 . S
H2803 C2797 0.959 . S
H2804 C2797 0.961 . S
H2805 C2797 0.960 . S
H2806 C2798 0.930 . S
H2807 C2799 0.929 . S
H2808 C2816 0.929 . S
H2809 C2818 0.930 . S
H2810 C2820 0.930 . S
H2811 C2823 0.929 . S
H2812 C2826 0.930 . S
H2813 C2828 0.960 . S
H2814 C2828 0.960 . S
H2815 C2828 0.960 . S
C2816 H2808 0.929 . S
C2816 C2817 1.377 . S
C2816 C2818 1.384 . S
C2817 C2816 1.377 . S
C2817 C2823 1.390 . S
C2818 H2809 0.930 . S
C2818 C2816 1.384 . S
C2818 C2819 1.372 . S
C2819 C2818 1.372 . S
C2819 C2820 1.400 . S
C2819 C2824 1.490 . S
C2820 H2810 0.930 . S
C2820 C2819 1.400 . S
C2820 C2823 1.386 . S
H2821 C2837 0.930 . S
H2822 C2838 0.931 . S
C2823 H2811 0.929 . S
C2823 C2817 1.390 . S
C2823 C2820 1.386 . S
C2824 C2819 1.490 . S
C2824 C2826 1.395 . S
C2824 C2827 1.403 . S
H2825 C2831 0.930 . S
C2826 H2812 0.930 . S
C2826 C2824 1.395 . S
C2826 C2829 1.403 . S
C2827 C2824 1.403 . S
C2827 C2828 1.524 . S
C2827 C2831 1.400 . S
C2828 H2813 0.960 . S
C2828 H2814 0.960 . S
C2828 H2815 0.960 . S
C2828 C2827 1.524 . S
C2829 C2826 1.403 . S
C2829 C2830 1.392 . S
C2829 C2833 1.495 . S
C2830 C2829 1.392 . S
C2830 C2831 1.385 . S
C2830 C2832 1.478 . S
C2831 H2825 0.930 . S
C2831 C2827 1.400 . S
C2831 C2830 1.385 . S
C2832 C2830 1.478 . S
C2832 C2834 1.381 . S
C2832 C2838 1.383 . S
C2833 C2829 1.495 . S
C2833 H2839 0.959 . S
C2833 H2840 0.961 . S
C2833 H2841 0.960 . S
C2834 C2832 1.381 . S
C2834 C2835 1.394 . S
C2834 H2842 0.930 . S
C2835 C2834 1.394 . S
C2835 C2836 1.383 . S
C2835 H2843 0.929 . S
C2836 C2835 1.383 . S
C2836 C2837 1.377 . S
C2837 H2821 0.930 . S
C2837 C2836 1.377 . S
C2837 C2838 1.379 . S
C2838 H2822 0.931 . S
C2838 C2832 1.383 . S
C2838 C2837 1.379 . S
H2839 C2833 0.959 . S
H2840 C2833 0.961 . S
H2841 C2833 0.960 . S
H2842 C2834 0.930 . S
H2843 C2835 0.929 . S
H2844 C2852 0.929 . S
H2845 C2854 0.930 . S
H2846 C2856 0.930 . S
H2847 C2859 0.929 . S
H2848 C2862 0.930 . S
H2849 C2864 0.960 . S
H2850 C2864 0.960 . S
H2851 C2864 0.960 . S
C2852 H2844 0.929 . S
C2852 C2853 1.377 . S
C2852 C2854 1.384 . S
C2853 C2852 1.377 . S
C2853 C2859 1.390 . S
C2854 H2845 0.930 . S
C2854 C2852 1.384 . S
C2854 C2855 1.372 . S
C2855 C2854 1.372 . S
C2855 C2856 1.400 . S
C2855 C2860 1.490 . S
C2856 H2846 0.930 . S
C2856 C2855 1.400 . S
C2856 C2859 1.386 . S
H2857 C2873 0.930 . S
H2858 C2874 0.931 . S
C2859 H2847 0.929 . S
C2859 C2853 1.390 . S
C2859 C2856 1.386 . S
C2860 C2855 1.490 . S
C2860 C2862 1.395 . S
C2860 C2863 1.403 . S
H2861 C2867 0.930 . S
C2862 H2848 0.930 . S
C2862 C2860 1.395 . S
C2862 C2865 1.403 . S
C2863 C2860 1.403 . S
C2863 C2864 1.524 . S
C2863 C2867 1.400 . S
C2864 H2849 0.960 . S
C2864 H2850 0.960 . S
C2864 H2851 0.960 . S
C2864 C2863 1.524 . S
C2865 C2862 1.403 . S
C2865 C2866 1.392 . S
C2865 C2869 1.495 . S
C2866 C2865 1.392 . S
C2866 C2867 1.385 . S
C2866 C2868 1.478 . S
C2867 H2861 0.930 . S
C2867 C2863 1.400 . S
C2867 C2866 1.385 . S
C2868 C2866 1.478 . S
C2868 C2870 1.381 . S
C2868 C2874 1.383 . S
C2869 C2865 1.495 . S
C2869 H2875 0.959 . S
C2869 H2876 0.961 . S
C2869 H2877 0.960 . S
C2870 C2868 1.381 . S
C2870 C2871 1.394 . S
C2870 H2878 0.930 . S
C2871 C2870 1.394 . S
C2871 C2872 1.383 . S
C2871 H2879 0.929 . S
C2872 C2871 1.383 . S
C2872 C2873 1.377 . S
C2873 H2857 0.930 . S
C2873 C2872 1.377 . S
C2873 C2874 1.379 . S
C2874 H2858 0.931 . S
C2874 C2868 1.383 . S
C2874 C2873 1.379 . S
H2875 C2869 0.959 . S
H2876 C2869 0.961 . S
H2877 C2869 0.960 . S
H2878 C2870 0.930 . S
H2879 C2871 0.929 . S
H2880 C2888 0.929 . S
H2881 C2890 0.930 . S
H2882 C2892 0.930 . S
H2883 C2895 0.929 . S
H2884 C2898 0.930 . S
H2885 C2900 0.960 . S
H2886 C2900 0.960 . S
H2887 C2900 0.960 . S
C2888 H2880 0.929 . S
C2888 C2889 1.377 . S
C2888 C2890 1.384 . S
C2889 C2888 1.377 . S
C2889 C2895 1.390 . S
C2890 H2881 0.930 . S
C2890 C2888 1.384 . S
C2890 C2891 1.372 . S
C2891 C2890 1.372 . S
C2891 C2892 1.400 . S
C2891 C2896 1.490 . S
C2892 H2882 0.930 . S
C2892 C2891 1.400 . S
C2892 C2895 1.386 . S
H2893 C2909 0.930 . S
H2894 C2910 0.931 . S
C2895 H2883 0.929 . S
C2895 C2889 1.390 . S
C2895 C2892 1.386 . S
C2896 C2891 1.490 . S
C2896 C2898 1.395 . S
C2896 C2899 1.403 . S
H2897 C2903 0.930 . S
C2898 H2884 0.930 . S
C2898 C2896 1.395 . S
C2898 C2901 1.403 . S
C2899 C2896 1.403 . S
C2899 C2900 1.524 . S
C2899 C2903 1.400 . S
C2900 H2885 0.960 . S
C2900 H2886 0.960 . S
C2900 H2887 0.960 . S
C2900 C2899 1.524 . S
C2901 C2898 1.403 . S
C2901 C2902 1.392 . S
C2901 C2905 1.495 . S
C2902 C2901 1.392 . S
C2902 C2903 1.385 . S
C2902 C2904 1.478 . S
C2903 H2897 0.930 . S
C2903 C2899 1.400 . S
C2903 C2902 1.385 . S
C2904 C2902 1.478 . S
C2904 C2906 1.381 . S
C2904 C2910 1.383 . S
C2905 C2901 1.495 . S
C2905 H2911 0.959 . S
C2905 H2912 0.961 . S
C2905 H2913 0.960 . S
C2906 C2904 1.381 . S
C2906 C2907 1.394 . S
C2906 H2914 0.930 . S
C2907 C2906 1.394 . S
C2907 C2908 1.383 . S
C2907 H2915 0.929 . S
C2908 C2907 1.383 . S
C2908 C2909 1.377 . S
C2909 H2893 0.930 . S
C2909 C2908 1.377 . S
C2909 C2910 1.379 . S
C2910 H2894 0.931 . S
C2910 C2904 1.383 . S
C2910 C2909 1.379 . S
H2911 C2905 0.959 . S
H2912 C2905 0.961 . S
H2913 C2905 0.960 . S
H2914 C2906 0.930 . S
H2915 C2907 0.929 . S
H2916 C2924 0.929 . S
H2917 C2926 0.930 . S
H2918 C2928 0.930 . S
H2919 C2931 0.929 . S
H2920 C2934 0.930 . S
H2921 C2936 0.960 . S
H2922 C2936 0.960 . S
H2923 C2936 0.960 . S
C2924 H2916 0.929 . S
C2924 C2925 1.377 . S
C2924 C2926 1.384 . S
C2925 C2924 1.377 . S
C2925 C2931 1.390 . S
C2926 H2917 0.930 . S
C2926 C2924 1.384 . S
C2926 C2927 1.372 . S
C2927 C2926 1.372 . S
C2927 C2928 1.400 . S
C2927 C2932 1.490 . S
C2928 H2918 0.930 . S
C2928 C2927 1.400 . S
C2928 C2931 1.386 . S
H2929 C2945 0.930 . S
H2930 C2946 0.931 . S
C2931 H2919 0.929 . S
C2931 C2925 1.390 . S
C2931 C2928 1.386 . S
C2932 C2927 1.490 . S
C2932 C2934 1.395 . S
C2932 C2935 1.403 . S
H2933 C2939 0.930 . S
C2934 H2920 0.930 . S
C2934 C2932 1.395 . S
C2934 C2937 1.403 . S
C2935 C2932 1.403 . S
C2935 C2936 1.524 . S
C2935 C2939 1.400 . S
C2936 H2921 0.960 . S
C2936 H2922 0.960 . S
C2936 H2923 0.960 . S
C2936 C2935 1.524 . S
C2937 C2934 1.403 . S
C2937 C2938 1.392 . S
C2937 C2941 1.495 . S
C2938 C2937 1.392 . S
C2938 C2939 1.385 . S
C2938 C2940 1.478 . S
C2939 H2933 0.930 . S
C2939 C2935 1.400 . S
C2939 C2938 1.385 . S
C2940 C2938 1.478 . S
C2940 C2942 1.381 . S
C2940 C2946 1.383 . S
C2941 C2937 1.495 . S
C2941 H2947 0.959 . S
C2941 H2948 0.961 . S
C2941 H2949 0.960 . S
C2942 C2940 1.381 . S
C2942 C2943 1.394 . S
C2942 H2950 0.930 . S
C2943 C2942 1.394 . S
C2943 C2944 1.383 . S
C2943 H2951 0.929 . S
C2944 C2943 1.383 . S
C2944 C2945 1.377 . S
C2945 H2929 0.930 . S
C2945 C2944 1.377 . S
C2945 C2946 1.379 . S
C2946 H2930 0.931 . S
C2946 C2940 1.383 . S
C2946 C2945 1.379 . S
H2947 C2941 0.959 . S
H2948 C2941 0.961 . S
H2949 C2941 0.960 . S
H2950 C2942 0.930 . S
H2951 C2943 0.929 . S
H2952 C2960 0.929 . S
H2953 C2962 0.930 . S
H2954 C2964 0.930 . S
H2955 C2967 0.929 . S
H2956 C2970 0.930 . S
H2957 C2972 0.960 . S
H2958 C2972 0.960 . S
H2959 C2972 0.960 . S
C2960 H2952 0.929 . S
C2960 C2961 1.377 . S
C2960 C2962 1.384 . S
C2961 C2960 1.377 . S
C2961 C2967 1.390 . S
C2962 H2953 0.930 . S
C2962 C2960 1.384 . S
C2962 C2963 1.372 . S
C2963 C2962 1.372 . S
C2963 C2964 1.400 . S
C2963 C2968 1.490 . S
C2964 H2954 0.930 . S
C2964 C2963 1.400 . S
C2964 C2967 1.386 . S
H2965 C2981 0.930 . S
H2966 C2982 0.931 . S
C2967 H2955 0.929 . S
C2967 C2961 1.390 . S
C2967 C2964 1.386 . S
C2968 C2963 1.490 . S
C2968 C2970 1.395 . S
C2968 C2971 1.403 1_455 S
H2969 C2975 0.928 . S
C2970 H2956 0.930 . S
C2970 C2968 1.395 . S
C2970 C2973 1.403 . S
C2971 C2968 1.403 1_655 S
C2971 C2972 1.524 . S
C2971 C2975 1.402 . S
C2972 H2957 0.960 . S
C2972 H2958 0.960 . S
C2972 H2959 0.960 . S
C2972 C2971 1.524 . S
C2973 C2970 1.403 . S
C2973 C2974 1.392 . S
C2973 C2977 1.495 . S
C2974 C2973 1.392 . S
C2974 C2975 1.386 1_455 S
C2974 C2976 1.478 . S
C2975 H2969 0.928 . S
C2975 C2971 1.402 . S
C2975 C2974 1.386 1_655 S
C2976 C2974 1.478 . S
C2976 C2978 1.381 . S
C2976 C2982 1.383 . S
C2977 C2973 1.495 . S
C2977 H2983 0.959 . S
C2977 H2984 0.961 . S
C2977 H2985 0.960 . S
C2978 C2976 1.381 . S
C2978 C2979 1.394 . S
C2978 H2986 0.930 . S
C2979 C2978 1.394 . S
C2979 C2980 1.383 . S
C2979 H2987 0.885 1_455 S
C2980 C2979 1.383 . S
C2980 C2981 1.377 . S
C2981 H2965 0.930 . S
C2981 C2980 1.377 . S
C2981 C2982 1.379 . S
C2982 H2966 0.931 . S
C2982 C2976 1.383 . S
C2982 C2981 1.379 . S
H2983 C2977 0.959 . S
H2984 C2977 0.961 . S
H2985 C2977 0.960 . S
H2986 C2978 0.930 . S
H2987 C2979 0.885 1_655 S
H2988 C2996 0.929 . S
H2989 C2998 0.930 . S
H2990 C3000 0.930 . S
H2991 C3003 0.929 . S
H2992 C3006 0.930 . S
H2993 C3008 0.960 . S
H2994 C3008 0.960 . S
H2995 C3008 0.960 . S
C2996 H2988 0.929 . S
C2996 C2997 1.377 . S
C2996 C2998 1.384 . S
C2997 C2996 1.377 . S
C2997 C3003 1.390 . S
C2998 H2989 0.930 . S
C2998 C2996 1.384 . S
C2998 C2999 1.372 . S
C2999 C2998 1.372 . S
C2999 C3000 1.400 . S
C2999 C3004 1.490 . S
C3000 H2990 0.930 . S
C3000 C2999 1.400 . S
C3000 C3003 1.386 . S
H3001 C3017 0.930 . S
H3002 C3018 0.931 . S
C3003 H2991 0.929 . S
C3003 C2997 1.390 . S
C3003 C3000 1.386 . S
C3004 C2999 1.490 . S
C3004 C3006 1.395 . S
C3004 C3007 1.403 . S
H3005 C3011 0.930 . S
C3006 H2992 0.930 . S
C3006 C3004 1.395 . S
C3006 C3009 1.403 . S
C3007 C3004 1.403 . S
C3007 C3008 1.524 . S
C3007 C3011 1.400 . S
C3008 H2993 0.960 . S
C3008 H2994 0.960 . S
C3008 H2995 0.960 . S
C3008 C3007 1.524 . S
C3009 C3006 1.403 . S
C3009 C3010 1.392 . S
C3009 C3013 1.495 . S
C3010 C3009 1.392 . S
C3010 C3011 1.385 . S
C3010 C3012 1.478 . S
C3011 H3005 0.930 . S
C3011 C3007 1.400 . S
C3011 C3010 1.385 . S
C3012 C3010 1.478 . S
C3012 C3014 1.381 . S
C3012 C3018 1.383 . S
C3013 C3009 1.495 . S
C3013 H3019 0.959 . S
C3013 H3020 0.961 . S
C3013 H3021 0.960 . S
C3014 C3012 1.381 . S
C3014 C3015 1.394 . S
C3014 H3022 0.930 . S
C3015 C3014 1.394 . S
C3015 C3016 1.383 . S
C3015 H3023 0.929 . S
C3016 C3015 1.383 . S
C3016 C3017 1.377 . S
C3017 H3001 0.930 . S
C3017 C3016 1.377 . S
C3017 C3018 1.379 . S
C3018 H3002 0.931 . S
C3018 C3012 1.383 . S
C3018 C3017 1.379 . S
H3019 C3013 0.959 . S
H3020 C3013 0.961 . S
H3021 C3013 0.960 . S
H3022 C3014 0.930 . S
H3023 C3015 0.929 . S
H3024 C3032 0.929 . S
H3025 C3034 0.930 . S
H3026 C3036 0.930 . S
H3027 C3039 0.929 . S
H3028 C3042 0.930 . S
H3029 C3044 0.960 . S
H3030 C3044 0.960 . S
H3031 C3044 0.960 . S
C3032 H3024 0.929 . S
C3032 C3033 1.377 . S
C3032 C3034 1.384 . S
C3033 C3032 1.377 . S
C3033 C3039 1.390 1_565 S
C3034 H3025 0.930 . S
C3034 C3032 1.384 . S
C3034 C3035 1.372 . S
C3035 C3034 1.372 . S
C3035 C3036 1.400 1_565 S
C3035 C3040 1.490 . S
C3036 H3026 0.930 . S
C3036 C3035 1.400 1_545 S
C3036 C3039 1.386 . S
H3037 C3053 0.930 . S
H3038 C3054 0.931 . S
C3039 H3027 0.929 . S
C3039 C3033 1.390 1_545 S
C3039 C3036 1.386 . S
C3040 C3035 1.490 . S
C3040 C3042 1.395 . S
C3040 C3043 1.403 1_565 S
H3041 C3047 0.930 . S
C3042 H3028 0.930 . S
C3042 C3040 1.395 . S
C3042 C3045 1.403 . S
C3043 C3040 1.403 1_545 S
C3043 C3044 1.524 . S
C3043 C3047 1.400 . S
C3044 H3029 0.960 . S
C3044 H3030 0.960 . S
C3044 H3031 0.960 . S
C3044 C3043 1.524 . S
C3045 C3042 1.403 . S
C3045 C3046 1.392 . S
C3045 C3049 1.495 . S
C3046 C3045 1.392 . S
C3046 C3047 1.385 1_565 S
C3046 C3048 1.478 . S
C3047 H3041 0.930 . S
C3047 C3043 1.400 . S
C3047 C3046 1.385 1_545 S
C3048 C3046 1.478 . S
C3048 C3050 1.381 . S
C3048 C3054 1.383 1_565 S
C3049 C3045 1.495 . S
C3049 H3055 0.959 . S
C3049 H3056 0.961 . S
C3049 H3057 0.960 . S
C3050 C3048 1.381 . S
C3050 C3051 1.394 . S
C3050 H3058 0.930 . S
C3051 C3050 1.394 . S
C3051 C3052 1.383 . S
C3051 H3059 0.929 . S
C3052 C3051 1.383 . S
C3052 C3053 1.377 1_565 S
C3053 H3037 0.930 . S
C3053 C3052 1.377 1_545 S
C3053 C3054 1.379 . S
C3054 H3038 0.931 . S
C3054 C3048 1.383 1_545 S
C3054 C3053 1.379 . S
H3055 C3049 0.959 . S
H3056 C3049 0.961 . S
H3057 C3049 0.960 . S
H3058 C3050 0.930 . S
H3059 C3051 0.929 . S
H3060 C3068 0.929 . S
H3061 C3070 0.930 . S
H3062 C3072 0.930 . S
H3063 C3075 0.929 . S
H3064 C3078 0.930 . S
H3065 C3080 0.960 . S
H3066 C3080 0.960 . S
H3067 C3080 0.960 . S
C3068 H3060 0.929 . S
C3068 C3069 1.377 1_545 S
C3068 C3070 1.384 . S
C3069 C3068 1.377 1_565 S
C3069 C3075 1.390 . S
C3070 H3061 0.930 . S
C3070 C3068 1.384 . S
C3070 C3071 1.372 1_545 S
C3071 C3070 1.372 1_565 S
C3071 C3072 1.400 . S
C3071 C3076 1.490 . S
C3072 H3062 0.930 . S
C3072 C3071 1.400 . S
C3072 C3075 1.386 . S
H3073 C3089 0.930 . S
H3074 C3090 0.931 . S
C3075 H3063 0.929 . S
C3075 C3069 1.390 . S
C3075 C3072 1.386 . S
C3076 C3071 1.490 . S
C3076 C3078 1.395 1_565 S
C3076 C3079 1.403 . S
H3077 C3083 0.930 . S
C3078 H3064 0.930 . S
C3078 C3076 1.395 1_545 S
C3078 C3081 1.403 . S
C3079 C3076 1.403 . S
C3079 C3080 1.524 . S
C3079 C3083 1.400 . S
C3080 H3065 0.960 . S
C3080 H3066 0.960 . S
C3080 H3067 0.960 . S
C3080 C3079 1.524 . S
C3081 C3078 1.403 . S
C3081 C3082 1.392 1_545 S
C3081 C3085 1.495 . S
C3082 C3081 1.392 1_565 S
C3082 C3083 1.385 . S
C3082 C3084 1.478 . S
C3083 H3077 0.930 . S
C3083 C3079 1.400 . S
C3083 C3082 1.385 . S
C3084 C3082 1.478 . S
C3084 C3086 1.381 1_565 S
C3084 C3090 1.383 . S
C3085 C3081 1.495 . S
C3085 H3091 0.959 . S
C3085 H3092 0.961 . S
C3085 H3093 0.960 . S
C3086 C3084 1.381 1_545 S
C3086 C3087 1.394 . S
C3086 H3094 0.930 . S
C3087 C3086 1.394 . S
C3087 C3088 1.383 1_545 S
C3087 H3095 0.929 . S
C3088 C3087 1.383 1_565 S
C3088 C3089 1.377 . S
C3089 H3073 0.930 . S
C3089 C3088 1.377 . S
C3089 C3090 1.379 . S
C3090 H3074 0.931 . S
C3090 C3084 1.383 . S
C3090 C3089 1.379 . S
H3091 C3085 0.959 . S
H3092 C3085 0.961 . S
H3093 C3085 0.960 . S
H3094 C3086 0.930 . S
H3095 C3087 0.929 . S
H3096 C3104 0.929 . S
H3097 C3106 0.930 . S
H3098 C3108 0.930 . S
H3099 C3111 0.929 . S
H3100 C3114 0.880 1_655 S
H3101 C3116 0.960 . S
H3102 C3116 0.960 . S
H3103 C3116 0.960 . S
C3104 H3096 0.929 . S
C3104 C3105 1.377 1_655 S
C3104 C3106 1.384 . S
C3105 C3104 1.377 1_455 S
C3105 C3111 1.390 . S
C3106 H3097 0.930 . S
C3106 C3104 1.384 . S
C3106 C3107 1.372 1_655 S
C3107 C3106 1.372 1_455 S
C3107 C3108 1.400 . S
C3107 C3112 1.490 . S
C3108 H3098 0.930 . S
C3108 C3107 1.400 . S
C3108 C3111 1.386 . S
H3109 C3125 0.930 . S
H3110 C3126 0.931 . S
C3111 H3099 0.929 . S
C3111 C3105 1.390 . S
C3111 C3108 1.386 . S
C3112 C3107 1.490 . S
C3112 C3114 1.423 . S
C3112 C3115 1.403 . S
H3113 C3119 0.930 . S
C3114 H3100 0.880 1_455 S
C3114 C3112 1.423 . S
C3114 C3117 1.456 1_455 S
C3115 C3112 1.403 . S
C3115 C3116 1.524 . S
C3115 C3119 1.400 . S
C3116 H3101 0.960 . S
C3116 H3102 0.960 . S
C3116 H3103 0.960 . S
C3116 C3115 1.524 . S
C3117 C3114 1.456 1_655 S
C3117 C3118 1.340 1_655 S
C3117 C3121 1.526 . S
C3118 C3117 1.340 1_455 S
C3118 C3119 1.385 . S
C3118 C3120 1.478 . S
C3119 H3113 0.930 . S
C3119 C3115 1.400 . S
C3119 C3118 1.385 . S
C3120 C3118 1.478 . S
C3120 C3122 1.381 1_455 S
C3120 C3126 1.383 . S
C3121 C3117 1.526 . S
C3121 H3127 0.959 . S
C3121 H3128 1.024 . S
C3121 H3129 0.960 . S
C3122 C3120 1.381 1_655 S
C3122 C3123 1.394 . S
C3122 H3130 0.930 . S
C3123 C3122 1.394 . S
C3123 C3124 1.383 1_655 S
C3123 H3131 0.929 . S
C3124 C3123 1.383 1_455 S
C3124 C3125 1.377 . S
C3125 H3109 0.930 . S
C3125 C3124 1.377 . S
C3125 C3126 1.379 . S
C3126 H3110 0.931 . S
C3126 C3120 1.383 . S
C3126 C3125 1.379 . S
H3127 C3121 0.959 . S
H3128 C3121 1.024 . S
H3129 C3121 0.960 . S
H3130 C3122 0.930 . S
H3131 C3123 0.929 . S
H3132 C3140 0.929 . S
H3133 C3142 0.930 . S
H3134 C3144 0.930 . S
H3135 C3147 0.929 . S
H3136 C3150 0.930 . S
H3137 C3152 0.960 . S
H3138 C3152 0.960 . S
H3139 C3152 0.960 . S
C3140 H3132 0.929 . S
C3140 C3141 1.377 . S
C3140 C3142 1.384 . S
C3141 C3140 1.377 . S
C3141 C3147 1.390 . S
C3142 H3133 0.930 . S
C3142 C3140 1.384 . S
C3142 C3143 1.372 . S
C3143 C3142 1.372 . S
C3143 C3144 1.400 . S
C3143 C3148 1.490 . S
C3144 H3134 0.930 . S
C3144 C3143 1.400 . S
C3144 C3147 1.386 . S
H3145 C3161 0.930 . S
H3146 C3162 0.931 . S
C3147 H3135 0.929 . S
C3147 C3141 1.390 . S
C3147 C3144 1.386 . S
C3148 C3143 1.490 . S
C3148 C3150 1.395 . S
C3148 C3151 1.403 . S
H3149 C3155 0.930 . S
C3150 H3136 0.930 . S
C3150 C3148 1.395 . S
C3150 C3153 1.403 . S
C3151 C3148 1.403 . S
C3151 C3152 1.524 . S
C3151 C3155 1.400 . S
C3152 H3137 0.960 . S
C3152 H3138 0.960 . S
C3152 H3139 0.960 . S
C3152 C3151 1.524 . S
C3153 C3150 1.403 . S
C3153 C3154 1.392 . S
C3153 C3157 1.495 . S
C3154 C3153 1.392 . S
C3154 C3155 1.385 . S
C3154 C3156 1.478 . S
C3155 H3149 0.930 . S
C3155 C3151 1.400 . S
C3155 C3154 1.385 . S
C3156 C3154 1.478 . S
C3156 C3158 1.381 . S
C3156 C3162 1.383 . S
C3157 C3153 1.495 . S
C3157 H3163 0.959 . S
C3157 H3164 0.961 . S
C3157 H3165 0.960 . S
C3158 C3156 1.381 . S
C3158 C3159 1.394 . S
C3158 H3166 0.930 . S
C3159 C3158 1.394 . S
C3159 C3160 1.383 . S
C3159 H3167 0.929 . S
C3160 C3159 1.383 . S
C3160 C3161 1.377 . S
C3161 H3145 0.930 . S
C3161 C3160 1.377 . S
C3161 C3162 1.379 . S
C3162 H3146 0.931 . S
C3162 C3156 1.383 . S
C3162 C3161 1.379 . S
H3163 C3157 0.959 . S
H3164 C3157 0.961 . S
H3165 C3157 0.960 . S
H3166 C3158 0.930 . S
H3167 C3159 0.929 . S
H3168 C3176 0.929 . S
H3169 C3178 0.930 . S
H3170 C3180 0.930 . S
H3171 C3183 0.929 . S
H3172 C3186 0.930 . S
H3173 C3188 0.960 . S
H3174 C3188 0.960 . S
H3175 C3188 0.960 . S
C3176 H3168 0.929 . S
C3176 C3177 1.377 . S
C3176 C3178 1.384 . S
C3177 C3176 1.377 . S
C3177 C3183 1.390 . S
C3178 H3169 0.930 . S
C3178 C3176 1.384 . S
C3178 C3179 1.372 . S
C3179 C3178 1.372 . S
C3179 C3180 1.400 . S
C3179 C3184 1.490 . S
C3180 H3170 0.930 . S
C3180 C3179 1.400 . S
C3180 C3183 1.386 . S
H3181 C3197 0.930 . S
H3182 C3198 0.931 . S
C3183 H3171 0.929 . S
C3183 C3177 1.390 . S
C3183 C3180 1.386 . S
C3184 C3179 1.490 . S
C3184 C3186 1.395 . S
C3184 C3187 1.403 . S
H3185 C3191 0.930 . S
C3186 H3172 0.930 . S
C3186 C3184 1.395 . S
C3186 C3189 1.403 . S
C3187 C3184 1.403 . S
C3187 C3188 1.524 . S
C3187 C3191 1.400 . S
C3188 H3173 0.960 . S
C3188 H3174 0.960 . S
C3188 H3175 0.960 . S
C3188 C3187 1.524 . S
C3189 C3186 1.403 . S
C3189 C3190 1.392 . S
C3189 C3193 1.495 . S
C3190 C3189 1.392 . S
C3190 C3191 1.385 . S
C3190 C3192 1.478 . S
C3191 H3185 0.930 . S
C3191 C3187 1.400 . S
C3191 C3190 1.385 . S
C3192 C3190 1.478 . S
C3192 C3194 1.381 . S
C3192 C3198 1.383 . S
C3193 C3189 1.495 . S
C3193 H3199 0.959 . S
C3193 H3200 0.961 . S
C3193 H3201 0.960 . S
C3194 C3192 1.381 . S
C3194 C3195 1.394 . S
C3194 H3202 0.930 . S
C3195 C3194 1.394 . S
C3195 C3196 1.383 . S
C3195 H3203 0.929 . S
C3196 C3195 1.383 . S
C3196 C3197 1.377 . S
C3197 H3181 0.930 . S
C3197 C3196 1.377 . S
C3197 C3198 1.379 . S
C3198 H3182 0.931 . S
C3198 C3192 1.383 . S
C3198 C3197 1.379 . S
H3199 C3193 0.959 . S
H3200 C3193 0.961 . S
H3201 C3193 0.960 . S
H3202 C3194 0.930 . S
H3203 C3195 0.929 . S
H3204 C3212 0.929 . S
H3205 C3214 0.930 . S
H3206 C3216 0.930 . S
H3207 C3219 0.929 . S
H3208 C3222 0.930 . S
H3209 C3224 0.960 . S
H3210 C3224 0.960 . S
H3211 C3224 0.960 . S
C3212 H3204 0.929 . S
C3212 C3213 1.377 . S
C3212 C3214 1.384 . S
C3213 C3212 1.377 . S
C3213 C3219 1.390 . S
C3214 H3205 0.930 . S
C3214 C3212 1.384 . S
C3214 C3215 1.372 . S
C3215 C3214 1.372 . S
C3215 C3216 1.400 . S
C3215 C3220 1.490 . S
C3216 H3206 0.930 . S
C3216 C3215 1.400 . S
C3216 C3219 1.386 . S
H3217 C3233 0.930 . S
H3218 C3234 0.931 . S
C3219 H3207 0.929 . S
C3219 C3213 1.390 . S
C3219 C3216 1.386 . S
C3220 C3215 1.490 . S
C3220 C3222 1.395 . S
C3220 C3223 1.403 . S
H3221 C3227 0.930 . S
C3222 H3208 0.930 . S
C3222 C3220 1.395 . S
C3222 C3225 1.403 . S
C3223 C3220 1.403 . S
C3223 C3224 1.524 . S
C3223 C3227 1.400 . S
C3224 H3209 0.960 . S
C3224 H3210 0.960 . S
C3224 H3211 0.960 . S
C3224 C3223 1.524 . S
C3225 C3222 1.403 . S
C3225 C3226 1.392 . S
C3225 C3229 1.495 . S
C3226 C3225 1.392 . S
C3226 C3227 1.385 . S
C3226 C3228 1.478 . S
C3227 H3221 0.930 . S
C3227 C3223 1.400 . S
C3227 C3226 1.385 . S
C3228 C3226 1.478 . S
C3228 C3230 1.381 . S
C3228 C3234 1.383 . S
C3229 C3225 1.495 . S
C3229 H3235 0.959 . S
C3229 H3236 0.961 . S
C3229 H3237 0.960 . S
C3230 C3228 1.381 . S
C3230 C3231 1.394 . S
C3230 H3238 0.930 . S
C3231 C3230 1.394 . S
C3231 C3232 1.383 . S
C3231 H3239 0.929 . S
C3232 C3231 1.383 . S
C3232 C3233 1.377 . S
C3233 H3217 0.930 . S
C3233 C3232 1.377 . S
C3233 C3234 1.379 . S
C3234 H3218 0.931 . S
C3234 C3228 1.383 . S
C3234 C3233 1.379 . S
H3235 C3229 0.959 . S
H3236 C3229 0.961 . S
H3237 C3229 0.960 . S
H3238 C3230 0.930 . S
H3239 C3231 0.929 . S
H3240 C3248 0.929 . S
H3241 C3250 0.930 . S
H3242 C3252 0.930 . S
H3243 C3255 0.929 . S
H3244 C3258 0.930 . S
H3245 C3260 0.960 . S
H3246 C3260 0.960 . S
H3247 C3260 0.960 . S
C3248 H3240 0.929 . S
C3248 C3249 1.377 . S
C3248 C3250 1.384 . S
C3249 C3248 1.377 . S
C3249 C3255 1.390 . S
C3250 H3241 0.930 . S
C3250 C3248 1.384 . S
C3250 C3251 1.372 . S
C3251 C3250 1.372 . S
C3251 C3252 1.400 . S
C3251 C3256 1.490 . S
C3252 H3242 0.930 . S
C3252 C3251 1.400 . S
C3252 C3255 1.386 . S
H3253 C3269 0.930 . S
H3254 C3270 0.931 . S
C3255 H3243 0.929 . S
C3255 C3249 1.390 . S
C3255 C3252 1.386 . S
C3256 C3251 1.490 . S
C3256 C3258 1.395 . S
C3256 C3259 1.403 . S
H3257 C3263 0.930 . S
C3258 H3244 0.930 . S
C3258 C3256 1.395 . S
C3258 C3261 1.403 . S
C3259 C3256 1.403 . S
C3259 C3260 1.524 . S
C3259 C3263 1.400 . S
C3260 H3245 0.960 . S
C3260 H3246 0.960 . S
C3260 H3247 0.960 . S
C3260 C3259 1.524 . S
C3261 C3258 1.403 . S
C3261 C3262 1.392 . S
C3261 C3265 1.495 . S
C3262 C3261 1.392 . S
C3262 C3263 1.385 . S
C3262 C3264 1.478 . S
C3263 H3257 0.930 . S
C3263 C3259 1.400 . S
C3263 C3262 1.385 . S
C3264 C3262 1.478 . S
C3264 C3266 1.381 . S
C3264 C3270 1.383 . S
C3265 C3261 1.495 . S
C3265 H3271 0.959 . S
C3265 H3272 0.961 . S
C3265 H3273 0.960 . S
C3266 C3264 1.381 . S
C3266 C3267 1.394 . S
C3266 H3274 0.930 . S
C3267 C3266 1.394 . S
C3267 C3268 1.383 . S
C3267 H3275 0.929 . S
C3268 C3267 1.383 . S
C3268 C3269 1.377 . S
C3269 H3253 0.930 . S
C3269 C3268 1.377 . S
C3269 C3270 1.379 . S
C3270 H3254 0.931 . S
C3270 C3264 1.383 . S
C3270 C3269 1.379 . S
H3271 C3265 0.959 . S
H3272 C3265 0.961 . S
H3273 C3265 0.960 . S
H3274 C3266 0.930 . S
H3275 C3267 0.929 . S
H3276 C3284 0.929 1_565 S
H3277 C3286 0.850 1_565 S
H3278 C3288 0.930 . S
H3279 C3291 0.929 . S
H3280 C3294 0.930 . S
H3281 C3296 0.997 . S
H3282 C3296 1.005 . S
H3283 C3296 0.872 1_545 S
C3284 H3276 0.929 1_545 S
C3284 C3285 1.377 . S
C3284 C3286 1.433 . S
C3285 C3284 1.377 . S
C3285 C3291 1.390 . S
C3286 H3277 0.850 1_545 S
C3286 C3284 1.433 . S
C3286 C3287 1.407 . S
C3287 C3286 1.407 . S
C3287 C3288 1.400 . S
C3287 C3292 1.490 . S
C3288 H3278 0.930 . S
C3288 C3287 1.400 . S
C3288 C3291 1.386 . S
H3289 C3305 0.930 . S
H3290 C3306 0.931 . S
C3291 H3279 0.929 . S
C3291 C3285 1.390 . S
C3291 C3288 1.386 . S
C3292 C3287 1.490 . S
C3292 C3294 1.395 . S
C3292 C3295 1.403 . S
H3293 C3299 0.954 . S
C3294 H3280 0.930 . S
C3294 C3292 1.395 . S
C3294 C3297 1.403 . S
C3295 C3292 1.403 . S
C3295 C3296 1.540 1_545 S
C3295 C3299 1.400 . S
C3296 H3281 0.997 . S
C3296 H3282 1.005 . S
C3296 H3283 0.872 1_565 S
C3296 C3295 1.540 1_565 S
C3297 C3294 1.403 . S
C3297 C3298 1.392 . S
C3297 C3301 1.495 . S
C3298 C3297 1.392 . S
C3298 C3299 1.385 . S
C3298 C3300 1.478 . S
C3299 H3293 0.954 . S
C3299 C3295 1.400 . S
C3299 C3298 1.385 . S
C3300 C3298 1.478 . S
C3300 C3302 1.381 1_545 S
C3300 C3306 1.383 . S
C3301 C3297 1.495 . S
C3301 H3307 0.959 . S
C3301 H3308 0.961 . S
C3301 H3309 0.960 . S
C3302 C3300 1.381 1_565 S
C3302 C3303 1.394 . S
C3302 H3310 0.930 . S
C3303 C3302 1.394 . S
C3303 C3304 1.383 1_565 S
C3303 H3311 0.929 . S
C3304 C3303 1.383 1_545 S
C3304 C3305 1.377 . S
C3305 H3289 0.930 . S
C3305 C3304 1.377 . S
C3305 C3306 1.379 . S
C3306 H3290 0.931 . S
C3306 C3300 1.383 . S
C3306 C3305 1.379 . S
H3307 C3301 0.959 . S
H3308 C3301 0.961 . S
H3309 C3301 0.960 . S
H3310 C3302 0.930 . S
H3311 C3303 0.929 . S
H3312 C3320 0.929 . S
H3313 C3322 0.930 . S
H3314 C3324 0.930 1_455 S
H3315 C3327 0.878 1_455 S
H3316 C3330 0.930 . S
H3317 C3332 0.960 . S
H3318 C3332 0.960 . S
H3319 C3332 0.960 . S
C3320 H3312 0.929 . S
C3320 C3321 1.377 . S
C3320 C3322 1.384 . S
C3321 C3320 1.377 . S
C3321 C3327 1.390 . S
C3322 H3313 0.930 . S
C3322 C3320 1.384 . S
C3322 C3323 1.372 . S
C3323 C3322 1.372 . S
C3323 C3324 1.400 . S
C3323 C3328 1.490 . S
C3324 H3314 0.930 1_655 S
C3324 C3323 1.400 . S
C3324 C3327 1.386 . S
H3325 C3341 0.913 1_455 S
H3326 C3342 0.957 . S
C3327 H3315 0.878 1_655 S
C3327 C3321 1.390 . S
C3327 C3324 1.386 . S
C3328 C3323 1.490 . S
C3328 C3330 1.395 . S
C3328 C3331 1.403 1_655 S
H3329 C3335 0.930 . S
C3330 H3316 0.930 . S
C3330 C3328 1.395 . S
C3330 C3333 1.403 . S
C3331 C3328 1.403 1_455 S
C3331 C3332 1.524 . S
C3331 C3335 1.400 . S
C3332 H3317 0.960 . S
C3332 H3318 0.960 . S
C3332 H3319 0.960 . S
C3332 C3331 1.524 . S
C3333 C3330 1.403 . S
C3333 C3334 1.392 . S
C3333 C3337 1.495 . S
C3334 C3333 1.392 . S
C3334 C3335 1.385 1_655 S
C3334 C3336 1.478 . S
C3335 H3329 0.930 . S
C3335 C3331 1.400 . S
C3335 C3334 1.385 1_455 S
C3336 C3334 1.478 . S
C3336 C3338 1.381 . S
C3336 C3342 1.383 . S
C3337 C3333 1.495 . S
C3337 H3343 0.959 . S
C3337 H3344 0.961 . S
C3337 H3345 0.960 . S
C3338 C3336 1.381 . S
C3338 C3339 1.394 . S
C3338 H3346 0.930 . S
C3339 C3338 1.394 . S
C3339 C3340 1.383 . S
C3339 H3347 0.929 . S
C3340 C3339 1.383 . S
C3340 C3341 1.422 . S
C3341 H3325 0.913 1_655 S
C3341 C3340 1.422 . S
C3341 C3342 1.356 . S
C3342 H3326 0.957 . S
C3342 C3336 1.383 . S
C3342 C3341 1.356 . S
H3343 C3337 0.959 . S
H3344 C3337 0.961 . S
H3345 C3337 0.960 . S
H3346 C3338 0.930 . S
H3347 C3339 0.929 . S
H3348 C3356 0.929 . S
H3349 C3358 0.930 . S
H3350 C3360 0.930 . S
H3351 C3363 0.929 . S
H3352 C3366 0.930 . S
H3353 C3368 0.960 . S
H3354 C3368 0.960 . S
H3355 C3368 0.960 . S
C3356 H3348 0.929 . S
C3356 C3357 1.377 . S
C3356 C3358 1.384 . S
C3357 C3356 1.377 . S
C3357 C3363 1.390 . S
C3358 H3349 0.930 . S
C3358 C3356 1.384 . S
C3358 C3359 1.372 . S
C3359 C3358 1.372 . S
C3359 C3360 1.400 . S
C3359 C3364 1.490 . S
C3360 H3350 0.930 . S
C3360 C3359 1.400 . S
C3360 C3363 1.386 . S
H3361 C3377 0.930 . S
H3362 C3378 0.931 . S
C3363 H3351 0.929 . S
C3363 C3357 1.390 . S
C3363 C3360 1.386 . S
C3364 C3359 1.490 . S
C3364 C3366 1.395 . S
C3364 C3367 1.403 . S
H3365 C3371 0.930 . S
C3366 H3352 0.930 . S
C3366 C3364 1.395 . S
C3366 C3369 1.403 . S
C3367 C3364 1.403 . S
C3367 C3368 1.524 . S
C3367 C3371 1.400 . S
C3368 H3353 0.960 . S
C3368 H3354 0.960 . S
C3368 H3355 0.960 . S
C3368 C3367 1.524 . S
C3369 C3366 1.403 . S
C3369 C3370 1.392 . S
C3369 C3373 1.495 . S
C3370 C3369 1.392 . S
C3370 C3371 1.385 . S
C3370 C3372 1.478 . S
C3371 H3365 0.930 . S
C3371 C3367 1.400 . S
C3371 C3370 1.385 . S
C3372 C3370 1.478 . S
C3372 C3374 1.381 . S
C3372 C3378 1.383 . S
C3373 C3369 1.495 . S
C3373 H3379 0.959 . S
C3373 H3380 0.961 . S
C3373 H3381 0.960 . S
C3374 C3372 1.381 . S
C3374 C3375 1.394 . S
C3374 H3382 0.930 . S
C3375 C3374 1.394 . S
C3375 C3376 1.383 . S
C3375 H3383 0.929 . S
C3376 C3375 1.383 . S
C3376 C3377 1.377 . S
C3377 H3361 0.930 . S
C3377 C3376 1.377 . S
C3377 C3378 1.379 . S
C3378 H3362 0.931 . S
C3378 C3372 1.383 . S
C3378 C3377 1.379 . S
H3379 C3373 0.959 . S
H3380 C3373 0.961 . S
H3381 C3373 0.960 . S
H3382 C3374 0.930 . S
H3383 C3375 0.929 . S
H3384 C3392 0.929 . S
H3385 C3394 0.930 . S
H3386 C3396 0.930 . S
H3387 C3399 0.929 . S
H3388 C3402 0.930 . S
H3389 C3404 0.960 . S
H3390 C3404 0.960 . S
H3391 C3404 0.960 . S
C3392 H3384 0.929 . S
C3392 C3393 1.377 . S
C3392 C3394 1.384 . S
C3393 C3392 1.377 . S
C3393 C3399 1.390 . S
C3394 H3385 0.930 . S
C3394 C3392 1.384 . S
C3394 C3395 1.372 . S
C3395 C3394 1.372 . S
C3395 C3396 1.400 . S
C3395 C3400 1.490 . S
C3396 H3386 0.930 . S
C3396 C3395 1.400 . S
C3396 C3399 1.386 . S
H3397 C3413 0.930 . S
H3398 C3414 0.931 . S
C3399 H3387 0.929 . S
C3399 C3393 1.390 . S
C3399 C3396 1.386 . S
C3400 C3395 1.490 . S
C3400 C3402 1.395 . S
C3400 C3403 1.403 . S
H3401 C3407 0.930 . S
C3402 H3388 0.930 . S
C3402 C3400 1.395 . S
C3402 C3405 1.403 . S
C3403 C3400 1.403 . S
C3403 C3404 1.524 . S
C3403 C3407 1.400 . S
C3404 H3389 0.960 . S
C3404 H3390 0.960 . S
C3404 H3391 0.960 . S
C3404 C3403 1.524 . S
C3405 C3402 1.403 . S
C3405 C3406 1.392 . S
C3405 C3409 1.495 . S
C3406 C3405 1.392 . S
C3406 C3407 1.385 . S
C3406 C3408 1.478 . S
C3407 H3401 0.930 . S
C3407 C3403 1.400 . S
C3407 C3406 1.385 . S
C3408 C3406 1.478 . S
C3408 C3410 1.381 . S
C3408 C3414 1.383 . S
C3409 C3405 1.495 . S
C3409 H3415 0.959 . S
C3409 H3416 0.961 . S
C3409 H3417 0.960 . S
C3410 C3408 1.381 . S
C3410 C3411 1.394 . S
C3410 H3418 0.930 . S
C3411 C3410 1.394 . S
C3411 C3412 1.383 . S
C3411 H3419 0.929 . S
C3412 C3411 1.383 . S
C3412 C3413 1.377 . S
C3413 H3397 0.930 . S
C3413 C3412 1.377 . S
C3413 C3414 1.379 . S
C3414 H3398 0.931 . S
C3414 C3408 1.383 . S
C3414 C3413 1.379 . S
H3415 C3409 0.959 . S
H3416 C3409 0.961 . S
H3417 C3409 0.960 . S
H3418 C3410 0.930 . S
H3419 C3411 0.929 . S
H3420 C3428 0.929 . S
H3421 C3430 0.930 . S
H3422 C3432 0.930 . S
H3423 C3435 0.929 . S
H3424 C3438 0.930 . S
H3425 C3440 0.960 . S
H3426 C3440 0.960 . S
H3427 C3440 0.960 . S
C3428 H3420 0.929 . S
C3428 C3429 1.377 . S
C3428 C3430 1.384 . S
C3429 C3428 1.377 . S
C3429 C3435 1.390 . S
C3430 H3421 0.930 . S
C3430 C3428 1.384 . S
C3430 C3431 1.372 . S
C3431 C3430 1.372 . S
C3431 C3432 1.400 . S
C3431 C3436 1.490 . S
C3432 H3422 0.930 . S
C3432 C3431 1.400 . S
C3432 C3435 1.386 . S
H3433 C3449 0.930 . S
H3434 C3450 0.931 . S
C3435 H3423 0.929 . S
C3435 C3429 1.390 . S
C3435 C3432 1.386 . S
C3436 C3431 1.490 . S
C3436 C3438 1.395 . S
C3436 C3439 1.403 . S
H3437 C3443 0.930 . S
C3438 H3424 0.930 . S
C3438 C3436 1.395 . S
C3438 C3441 1.403 . S
C3439 C3436 1.403 . S
C3439 C3440 1.524 . S
C3439 C3443 1.400 . S
C3440 H3425 0.960 . S
C3440 H3426 0.960 . S
C3440 H3427 0.960 . S
C3440 C3439 1.524 . S
C3441 C3438 1.403 . S
C3441 C3442 1.392 . S
C3441 C3445 1.495 . S
C3442 C3441 1.392 . S
C3442 C3443 1.385 . S
C3442 C3444 1.478 . S
C3443 H3437 0.930 . S
C3443 C3439 1.400 . S
C3443 C3442 1.385 . S
C3444 C3442 1.478 . S
C3444 C3446 1.381 . S
C3444 C3450 1.383 . S
C3445 C3441 1.495 . S
C3445 H3451 0.959 . S
C3445 H3452 0.961 . S
C3445 H3453 0.960 . S
C3446 C3444 1.381 . S
C3446 C3447 1.394 . S
C3446 H3454 0.930 . S
C3447 C3446 1.394 . S
C3447 C3448 1.383 . S
C3447 H3455 0.929 . S
C3448 C3447 1.383 . S
C3448 C3449 1.377 . S
C3449 H3433 0.930 . S
C3449 C3448 1.377 . S
C3449 C3450 1.379 . S
C3450 H3434 0.931 . S
C3450 C3444 1.383 . S
C3450 C3449 1.379 . S
H3451 C3445 0.959 . S
H3452 C3445 0.961 . S
H3453 C3445 0.960 . S
H3454 C3446 0.930 . S
H3455 C3447 0.929 . S
H3456 C3464 0.929 . S
H3457 C3466 0.930 . S
H3458 C3468 0.930 . S
H3459 C3471 0.929 . S
H3460 C3474 0.930 . S
H3461 C3476 0.960 . S
H3462 C3476 0.960 . S
H3463 C3476 0.960 . S
C3464 H3456 0.929 . S
C3464 C3465 1.377 . S
C3464 C3466 1.384 . S
C3465 C3464 1.377 . S
C3465 C3471 1.390 . S
C3466 H3457 0.930 . S
C3466 C3464 1.384 . S
C3466 C3467 1.372 . S
C3467 C3466 1.372 . S
C3467 C3468 1.400 . S
C3467 C3472 1.490 . S
C3468 H3458 0.930 . S
C3468 C3467 1.400 . S
C3468 C3471 1.386 . S
H3469 C3485 0.930 . S
H3470 C3486 0.931 . S
C3471 H3459 0.929 . S
C3471 C3465 1.390 . S
C3471 C3468 1.386 . S
C3472 C3467 1.490 . S
C3472 C3474 1.395 . S
C3472 C3475 1.403 . S
H3473 C3479 0.930 . S
C3474 H3460 0.930 . S
C3474 C3472 1.395 . S
C3474 C3477 1.403 . S
C3475 C3472 1.403 . S
C3475 C3476 1.524 . S
C3475 C3479 1.400 . S
C3476 H3461 0.960 . S
C3476 H3462 0.960 . S
C3476 H3463 0.960 . S
C3476 C3475 1.524 . S
C3477 C3474 1.403 . S
C3477 C3478 1.392 . S
C3477 C3481 1.495 . S
C3478 C3477 1.392 . S
C3478 C3479 1.385 . S
C3478 C3480 1.478 . S
C3479 H3473 0.930 . S
C3479 C3475 1.400 . S
C3479 C3478 1.385 . S
C3480 C3478 1.478 . S
C3480 C3482 1.381 . S
C3480 C3486 1.383 . S
C3481 C3477 1.495 . S
C3481 H3487 0.959 . S
C3481 H3488 0.961 . S
C3481 H3489 0.960 . S
C3482 C3480 1.381 . S
C3482 C3483 1.394 . S
C3482 H3490 0.930 . S
C3483 C3482 1.394 . S
C3483 C3484 1.383 . S
C3483 H3491 0.929 . S
C3484 C3483 1.383 . S
C3484 C3485 1.377 . S
C3485 H3469 0.930 . S
C3485 C3484 1.377 . S
C3485 C3486 1.379 . S
C3486 H3470 0.931 . S
C3486 C3480 1.383 . S
C3486 C3485 1.379 . S
H3487 C3481 0.959 . S
H3488 C3481 0.961 . S
H3489 C3481 0.960 . S
H3490 C3482 0.930 . S
H3491 C3483 0.929 . S
H3492 C3500 0.929 . S
H3493 C3502 0.930 . S
H3494 C3504 0.930 . S
H3495 C3507 0.929 . S
H3496 C3510 0.930 . S
H3497 C3512 0.960 . S
H3498 C3512 0.960 . S
H3499 C3512 0.960 . S
C3500 H3492 0.929 . S
C3500 C3501 1.377 . S
C3500 C3502 1.384 . S
C3501 C3500 1.377 . S
C3501 C3507 1.390 . S
C3502 H3493 0.930 . S
C3502 C3500 1.384 . S
C3502 C3503 1.372 . S
C3503 C3502 1.372 . S
C3503 C3504 1.400 . S
C3503 C3508 1.490 . S
C3504 H3494 0.930 . S
C3504 C3503 1.400 . S
C3504 C3507 1.386 . S
H3505 C3521 0.930 . S
H3506 C3522 0.931 . S
C3507 H3495 0.929 . S
C3507 C3501 1.390 . S
C3507 C3504 1.386 . S
C3508 C3503 1.490 . S
C3508 C3510 1.395 . S
C3508 C3511 1.403 . S
H3509 C3515 0.930 . S
C3510 H3496 0.930 . S
C3510 C3508 1.395 . S
C3510 C3513 1.403 . S
C3511 C3508 1.403 . S
C3511 C3512 1.524 . S
C3511 C3515 1.400 . S
C3512 H3497 0.960 . S
C3512 H3498 0.960 . S
C3512 H3499 0.960 . S
C3512 C3511 1.524 . S
C3513 C3510 1.403 . S
C3513 C3514 1.392 . S
C3513 C3517 1.495 . S
C3514 C3513 1.392 . S
C3514 C3515 1.385 . S
C3514 C3516 1.478 . S
C3515 H3509 0.930 . S
C3515 C3511 1.400 . S
C3515 C3514 1.385 . S
C3516 C3514 1.478 . S
C3516 C3518 1.381 . S
C3516 C3522 1.383 . S
C3517 C3513 1.495 . S
C3517 H3523 0.959 . S
C3517 H3524 0.961 . S
C3517 H3525 0.960 . S
C3518 C3516 1.381 . S
C3518 C3519 1.394 . S
C3518 H3526 0.930 . S
C3519 C3518 1.394 . S
C3519 C3520 1.383 . S
C3519 H3527 0.929 . S
C3520 C3519 1.383 . S
C3520 C3521 1.377 . S
C3521 H3505 0.930 . S
C3521 C3520 1.377 . S
C3521 C3522 1.379 . S
C3522 H3506 0.931 . S
C3522 C3516 1.383 . S
C3522 C3521 1.379 . S
H3523 C3517 0.959 . S
H3524 C3517 0.961 . S
H3525 C3517 0.960 . S
H3526 C3518 0.930 . S
H3527 C3519 0.929 . S
H3528 C3536 0.929 . S
H3529 C3538 0.930 . S
H3530 C3540 0.930 . S
H3531 C3543 0.929 . S
H3532 C3546 0.930 . S
H3533 C3548 0.960 . S
H3534 C3548 0.960 . S
H3535 C3548 0.960 . S
C3536 H3528 0.929 . S
C3536 C3537 1.377 . S
C3536 C3538 1.384 . S
C3537 C3536 1.377 . S
C3537 C3543 1.390 . S
C3538 H3529 0.930 . S
C3538 C3536 1.384 . S
C3538 C3539 1.372 . S
C3539 C3538 1.372 . S
C3539 C3540 1.400 . S
C3539 C3544 1.490 . S
C3540 H3530 0.930 . S
C3540 C3539 1.400 . S
C3540 C3543 1.386 . S
H3541 C3557 0.930 . S
H3542 C3558 0.931 . S
C3543 H3531 0.929 . S
C3543 C3537 1.390 . S
C3543 C3540 1.386 . S
C3544 C3539 1.490 . S
C3544 C3546 1.395 . S
C3544 C3547 1.403 . S
H3545 C3551 0.930 . S
C3546 H3532 0.930 . S
C3546 C3544 1.395 . S
C3546 C3549 1.403 . S
C3547 C3544 1.403 . S
C3547 C3548 1.524 . S
C3547 C3551 1.400 . S
C3548 H3533 0.960 . S
C3548 H3534 0.960 . S
C3548 H3535 0.960 . S
C3548 C3547 1.524 . S
C3549 C3546 1.403 . S
C3549 C3550 1.392 . S
C3549 C3553 1.495 . S
C3550 C3549 1.392 . S
C3550 C3551 1.385 . S
C3550 C3552 1.478 . S
C3551 H3545 0.930 . S
C3551 C3547 1.400 . S
C3551 C3550 1.385 . S
C3552 C3550 1.478 . S
C3552 C3554 1.381 . S
C3552 C3558 1.383 . S
C3553 C3549 1.495 . S
C3553 H3559 0.959 . S
C3553 H3560 0.961 . S
C3553 H3561 0.960 . S
C3554 C3552 1.381 . S
C3554 C3555 1.394 . S
C3554 H3562 0.930 . S
C3555 C3554 1.394 . S
C3555 C3556 1.383 . S
C3555 H3563 0.929 . S
C3556 C3555 1.383 . S
C3556 C3557 1.377 . S
C3557 H3541 0.930 . S
C3557 C3556 1.377 . S
C3557 C3558 1.379 . S
C3558 H3542 0.931 . S
C3558 C3552 1.383 . S
C3558 C3557 1.379 . S
H3559 C3553 0.959 . S
H3560 C3553 0.961 . S
H3561 C3553 0.960 . S
H3562 C3554 0.930 . S
H3563 C3555 0.929 . S
H3564 C3572 0.929 . S
H3565 C3574 0.930 . S
H3566 C3576 0.930 . S
H3567 C3579 0.929 . S
H3568 C3582 0.930 . S
H3569 C3584 0.960 . S
H3570 C3584 0.960 . S
H3571 C3584 0.960 . S
C3572 H3564 0.929 . S
C3572 C3573 1.377 . S
C3572 C3574 1.384 . S
C3573 C3572 1.377 . S
C3573 C3579 1.390 . S
C3574 H3565 0.930 . S
C3574 C3572 1.384 . S
C3574 C3575 1.372 . S
C3575 C3574 1.372 . S
C3575 C3576 1.400 . S
C3575 C3580 1.490 . S
C3576 H3566 0.930 . S
C3576 C3575 1.400 . S
C3576 C3579 1.386 . S
H3577 C3593 0.930 . S
H3578 C3594 0.931 . S
C3579 H3567 0.929 . S
C3579 C3573 1.390 . S
C3579 C3576 1.386 . S
C3580 C3575 1.490 . S
C3580 C3582 1.395 . S
C3580 C3583 1.403 . S
H3581 C3587 0.930 . S
C3582 H3568 0.930 . S
C3582 C3580 1.395 . S
C3582 C3585 1.403 . S
C3583 C3580 1.403 . S
C3583 C3584 1.524 . S
C3583 C3587 1.400 . S
C3584 H3569 0.960 . S
C3584 H3570 0.960 . S
C3584 H3571 0.960 . S
C3584 C3583 1.524 . S
C3585 C3582 1.403 . S
C3585 C3586 1.392 . S
C3585 C3589 1.495 . S
C3586 C3585 1.392 . S
C3586 C3587 1.385 . S
C3586 C3588 1.478 . S
C3587 H3581 0.930 . S
C3587 C3583 1.400 . S
C3587 C3586 1.385 . S
C3588 C3586 1.478 . S
C3588 C3590 1.381 . S
C3588 C3594 1.383 . S
C3589 C3585 1.495 . S
C3589 H3595 0.959 . S
C3589 H3596 0.961 . S
C3589 H3597 0.960 . S
C3590 C3588 1.381 . S
C3590 C3591 1.394 . S
C3590 H3598 0.930 . S
C3591 C3590 1.394 . S
C3591 C3592 1.383 . S
C3591 H3599 0.929 . S
C3592 C3591 1.383 . S
C3592 C3593 1.377 . S
C3593 H3577 0.930 . S
C3593 C3592 1.377 . S
C3593 C3594 1.379 . S
C3594 H3578 0.931 . S
C3594 C3588 1.383 . S
C3594 C3593 1.379 . S
H3595 C3589 0.959 . S
H3596 C3589 0.961 . S
H3597 C3589 0.960 . S
H3598 C3590 0.930 . S
H3599 C3591 0.929 . S
H3600 C3608 0.929 . S
H3601 C3610 0.930 . S
H3602 C3612 0.930 . S
H3603 C3615 0.929 . S
H3604 C3618 0.930 . S
H3605 C3620 0.978 . S
H3606 C3620 0.960 1_455 S
H3607 C3620 0.960 . S
C3608 H3600 0.929 . S
C3608 C3609 1.377 1_455 S
C3608 C3610 1.384 . S
C3609 C3608 1.377 1_655 S
C3609 C3615 1.390 . S
C3610 H3601 0.930 . S
C3610 C3608 1.384 . S
C3610 C3611 1.372 1_455 S
C3611 C3610 1.372 1_655 S
C3611 C3612 1.400 . S
C3611 C3616 1.490 . S
C3612 H3602 0.930 . S
C3612 C3611 1.400 . S
C3612 C3615 1.386 . S
H3613 C3629 0.930 . S
H3614 C3630 0.931 . S
C3615 H3603 0.929 . S
C3615 C3609 1.390 . S
C3615 C3612 1.386 . S
C3616 C3611 1.490 . S
C3616 C3618 1.395 . S
C3616 C3619 1.403 . S
H3617 C3623 0.930 . S
C3618 H3604 0.930 . S
C3618 C3616 1.395 . S
C3618 C3621 1.403 . S
C3619 C3616 1.403 . S
C3619 C3620 1.524 . S
C3619 C3623 1.400 . S
C3620 H3605 0.978 . S
C3620 H3606 0.960 1_655 S
C3620 H3607 0.960 . S
C3620 C3619 1.524 . S
C3621 C3618 1.403 . S
C3621 C3622 1.392 . S
C3621 C3625 1.495 . S
C3622 C3621 1.392 . S
C3622 C3623 1.385 . S
C3622 C3624 1.478 . S
C3623 H3617 0.930 . S
C3623 C3619 1.400 . S
C3623 C3622 1.385 . S
C3624 C3622 1.478 . S
C3624 C3626 1.381 1_655 S
C3624 C3630 1.383 . S
C3625 C3621 1.495 . S
C3625 H3631 0.959 . S
C3625 H3632 0.961 . S
C3625 H3633 1.008 . S
C3626 C3624 1.381 1_455 S
C3626 C3627 1.394 . S
C3626 H3634 0.930 . S
C3627 C3626 1.394 . S
C3627 C3628 1.383 1_455 S
C3627 H3635 0.929 . S
C3628 C3627 1.383 1_655 S
C3628 C3629 1.377 . S
C3629 H3613 0.930 . S
C3629 C3628 1.377 . S
C3629 C3630 1.379 . S
C3630 H3614 0.931 . S
C3630 C3624 1.383 . S
C3630 C3629 1.379 . S
H3631 C3625 0.959 . S
H3632 C3625 0.961 . S
H3633 C3625 1.008 . S
H3634 C3626 0.930 . S
H3635 C3627 0.929 . S
H3636 C3644 0.929 . S
H3637 C3646 0.930 . S
H3638 C3648 0.930 . S
H3639 C3651 0.929 . S
H3640 C3654 0.930 . S
H3641 C3656 0.960 . S
H3642 C3656 0.960 . S
H3643 C3656 0.960 . S
C3644 H3636 0.929 . S
C3644 C3645 1.377 . S
C3644 C3646 1.384 . S
C3645 C3644 1.377 . S
C3645 C3651 1.390 . S
C3646 H3637 0.930 . S
C3646 C3644 1.384 . S
C3646 C3647 1.372 . S
C3647 C3646 1.372 . S
C3647 C3648 1.400 . S
C3647 C3652 1.490 . S
C3648 H3638 0.930 . S
C3648 C3647 1.400 . S
C3648 C3651 1.386 . S
H3649 C3665 0.930 . S
H3650 C3666 0.931 . S
C3651 H3639 0.929 . S
C3651 C3645 1.390 . S
C3651 C3648 1.386 . S
C3652 C3647 1.490 . S
C3652 C3654 1.395 . S
C3652 C3655 1.403 . S
H3653 C3659 0.930 . S
C3654 H3640 0.930 . S
C3654 C3652 1.395 . S
C3654 C3657 1.403 . S
C3655 C3652 1.403 . S
C3655 C3656 1.524 . S
C3655 C3659 1.400 . S
C3656 H3641 0.960 . S
C3656 H3642 0.960 . S
C3656 H3643 0.960 . S
C3656 C3655 1.524 . S
C3657 C3654 1.403 . S
C3657 C3658 1.392 . S
C3657 C3661 1.495 . S
C3658 C3657 1.392 . S
C3658 C3659 1.385 . S
C3658 C3660 1.478 . S
C3659 H3653 0.930 . S
C3659 C3655 1.400 . S
C3659 C3658 1.385 . S
C3660 C3658 1.478 . S
C3660 C3662 1.381 . S
C3660 C3666 1.383 . S
C3661 C3657 1.495 . S
C3661 H3667 0.959 . S
C3661 H3668 0.961 . S
C3661 H3669 0.960 . S
C3662 C3660 1.381 . S
C3662 C3663 1.394 . S
C3662 H3670 0.930 . S
C3663 C3662 1.394 . S
C3663 C3664 1.383 . S
C3663 H3671 0.929 . S
C3664 C3663 1.383 . S
C3664 C3665 1.377 . S
C3665 H3649 0.930 . S
C3665 C3664 1.377 . S
C3665 C3666 1.379 . S
C3666 H3650 0.931 . S
C3666 C3660 1.383 . S
C3666 C3665 1.379 . S
H3667 C3661 0.959 . S
H3668 C3661 0.961 . S
H3669 C3661 0.960 . S
H3670 C3662 0.930 . S
H3671 C3663 0.929 . S
H3672 C3680 0.929 . S
H3673 C3682 0.930 . S
H3674 C3684 0.930 1_565 S
H3675 C3687 0.929 1_565 S
H3676 C3690 0.930 . S
H3677 C3692 0.960 . S
H3678 C3692 0.960 . S
H3679 C3692 0.960 . S
C3680 H3672 0.929 . S
C3680 C3681 1.377 . S
C3680 C3682 1.384 . S
C3681 C3680 1.377 . S
C3681 C3687 1.390 . S
C3682 H3673 0.930 . S
C3682 C3680 1.384 . S
C3682 C3683 1.372 . S
C3683 C3682 1.372 . S
C3683 C3684 1.400 . S
C3683 C3688 1.490 . S
C3684 H3674 0.930 1_545 S
C3684 C3683 1.400 . S
C3684 C3687 1.386 . S
H3685 C3701 0.930 . S
H3686 C3702 0.931 . S
C3687 H3675 0.929 1_545 S
C3687 C3681 1.390 . S
C3687 C3684 1.386 . S
C3688 C3683 1.490 . S
C3688 C3690 1.395 . S
C3688 C3691 1.403 . S
H3689 C3695 0.930 . S
C3690 H3676 0.930 . S
C3690 C3688 1.395 . S
C3690 C3693 1.403 . S
C3691 C3688 1.403 . S
C3691 C3692 1.524 . S
C3691 C3695 1.400 . S
C3692 H3677 0.960 . S
C3692 H3678 0.960 . S
C3692 H3679 0.960 . S
C3692 C3691 1.524 . S
C3693 C3690 1.403 . S
C3693 C3694 1.392 . S
C3693 C3697 1.495 1_545 S
C3694 C3693 1.392 . S
C3694 C3695 1.385 . S
C3694 C3696 1.478 . S
C3695 H3689 0.930 . S
C3695 C3691 1.400 . S
C3695 C3694 1.385 . S
C3696 C3694 1.478 . S
C3696 C3698 1.381 . S
C3696 C3702 1.383 1_545 S
C3697 C3693 1.495 1_565 S
C3697 H3703 0.959 . S
C3697 H3704 0.961 . S
C3697 H3705 0.960 1_565 S
C3698 C3696 1.381 . S
C3698 C3699 1.394 . S
C3698 H3706 0.930 . S
C3699 C3698 1.394 . S
C3699 C3700 1.383 . S
C3699 H3707 0.929 . S
C3700 C3699 1.383 . S
C3700 C3701 1.377 1_545 S
C3701 H3685 0.930 . S
C3701 C3700 1.377 1_565 S
C3701 C3702 1.379 . S
C3702 H3686 0.931 . S
C3702 C3696 1.383 1_565 S
C3702 C3701 1.379 . S
H3703 C3697 0.959 . S
H3704 C3697 0.961 . S
H3705 C3697 0.960 1_545 S
H3706 C3698 0.930 . S
H3707 C3699 0.929 . S
C1125 C9 1.449 1_655 S
C1144 C729 1.457 . S
C1161 C19 1.572 . S
C1180 C777 1.564 . S
C1216 C825 1.527 . S
C1197 C33 1.526 . S
C1233 C37 1.497 . S
C1252 C849 1.494 . S
C1269 C5 1.467 . S
C1288 C921 1.473 . S
C1305 C23 1.603 . S
C1324 C969 1.597 . S
C1341 C47 1.488 . S
C1360 C897 1.493 . S
C1396 C945 1.611 . S
C1377 C65 1.624 . S
C1432 C873 1.522 . S
C1413 C75 1.490 . S
C1449 C79 1.419 . S
C1468 C801 1.416 . S
C1504 C705 1.513 . S
C1485 C51 1.503 . S
C1521 C61 1.596 . S
C1540 C753 1.587 . S
C1557 C93 1.709 . S
C1576 C1017 1.705 . S
C1593 C103 1.646 . S
C1612 C1065 1.626 . S
C1648 C1089 1.634 . S
C1629 C117 1.668 . S
C1665 C121 1.618 . S
C1684 C273 1.583 . S
C1701 C89 1.640 . S
C1720 C345 1.639 . S
C1737 C107 1.651 . S
C1756 C393 1.632 . S
C1773 C131 1.604 . S
C1792 C321 1.604 . S
C1809 C149 1.665 . S
C1828 C369 1.654 . S
C1864 C297 1.597 . S
C1845 C159 1.629 . S
C1900 C1113 1.648 . S
C1881 C163 1.672 . S
C1936 C993 1.681 . S
C1917 C135 1.684 . S
C1972 C1041 1.657 . S
C1953 C145 1.670 . S
C1989 C177 1.614 . S
C2008 C441 1.607 . S
C2025 C187 1.606 . S
C2044 C489 1.606 . S
C2061 C201 1.675 . S
C2080 C513 1.654 . S
C2097 C205 1.717 . S
C2116 C561 1.699 . S
C2152 C633 1.636 . S
C2133 C173 1.634 . S
C2188 C681 1.671 . S
C2169 C191 1.690 . S
C2224 C609 1.700 . S
C2205 C215 1.710 . S
C2260 C657 1.689 . S
C2241 C233 1.710 . S
C2277 C243 1.617 . S
C2296 C585 1.591 . S
C2332 C537 1.514 . S
C2313 C247 1.564 . S
C2349 C219 1.695 . S
C2368 C417 1.677 . S
C2404 C465 1.637 . S
C2385 C229 1.646 . S
C2440 C282 1.557 . S
C2421 C11 1.564 . S
C2457 C14 1.488 . S
C2476 C336 1.454 . S
C2512 C384 1.623 . S
C2493 C28 1.642 . S
C2548 C432 1.623 . S
C2529 C39 1.635 . S
C2584 C480 1.542 . S
C2565 C0 1.576 . S
C2620 C522 1.440 . S
C2601 C25 1.449 . S
C2637 C42 1.637 . S
C2656 C528 1.625 . S
C2673 C67 1.510 . S
C2692 C426 1.495 . S
C2709 C70 1.517 . S
C2728 C474 1.479 . S
C2745 C81 1.559 . S
C2764 C330 1.538 . S
C2800 C378 1.590 . S
C2781 C53 1.611 . S
C2817 C56 1.530 . S
C2836 C288 1.504 . S
C2872 C570 1.518 . S
C2853 C95 1.524 . S
C2889 C98 1.630 . S
C2908 C624 1.595 . S
C2925 C112 1.709 . S
C2944 C672 1.696 . S
C2980 C720 1.418 . S
C2961 C123 1.416 . S
C2997 C84 1.553 . S
C3016 C768 1.520 . S
C3033 C109 1.347 . S
C3052 C816 1.345 . S
C3069 C126 1.443 . S
C3088 C810 1.445 . S
C3105 C151 1.395 . S
C3124 C714 1.398 . S
C3160 C762 1.483 . S
C3141 C154 1.521 . S
C3177 C165 1.508 . S
C3196 C618 1.484 . S
C3213 C137 1.659 . S
C3232 C666 1.642 . S
C3268 C576 1.650 . S
C3249 C140 1.670 . S
C3304 C858 1.396 . S
C3285 C179 1.384 . S
C3321 C182 1.387 . S
C3340 C912 1.392 . S
C3357 C196 1.616 . S
C3376 C960 1.607 . S
C3412 C1008 1.551 . S
C3393 C207 1.593 . S
C3448 C1056 1.619 . S
C3429 C168 1.632 . S
C3465 C193 1.601 . S
C3484 C1098 1.597 . S
C3501 C210 1.609 . S
C3520 C1104 1.598 . S
C3537 C235 1.653 . S
C3556 C1002 1.630 . S
C3592 C1050 1.562 . S
C3573 C238 1.595 . S
C3628 C906 1.338 . S
C3609 C249 1.339 . S
C3664 C954 1.543 . S
C3645 C221 1.578 . S
C3681 C224 1.416 . S
C3700 C864 1.435 . S
