# Generated by pormake.
# Topology zzz, (3,6)-cn, num edge types: 1
# Building blocks:
#     Node 0, Type 0, BuildingBlock: PAMTOO_clean_linker_0, # of connection points: 3
#     Node 1, Type 0, BuildingBlock: PAMTOO_clean_linker_0, # of connection points: 3
#     Node 2, Type 0, BuildingBlock: PAMTOO_clean_linker_0, # of connection points: 3
#     Node 3, Type 0, BuildingBlock: PAMTOO_clean_linker_0, # of connection points: 3
#     Node 4, Type 0, BuildingBlock: PAMTOO_clean_linker_0, # of connection points: 3
#     Node 5, Type 0, BuildingBlock: PAMTOO_clean_linker_0, # of connection points: 3
#     Node 6, Type 0, BuildingBlock: PAMTOO_clean_linker_0, # of connection points: 3
#     Node 7, Type 0, BuildingBlock: PAMTOO_clean_linker_0, # of connection points: 3
#     Node 8, Type 1, BuildingBlock: HISSIN_clean_sbu_0, # of connection points: 6
#     Node 9, Type 1, BuildingBlock: HISSIN_clean_sbu_0, # of connection points: 6
#     Node 10, Type 1, BuildingBlock: HISSIN_clean_sbu_0, # of connection points: 6
#     Node 11, Type 1, BuildingBlock: HISSIN_clean_sbu_0, # of connection points: 6
#     Edge 12, Type (0, 1), BuildingBlock: MIFKUJ_clean_linker_0, # of connection points: 2
#     Edge 13, Type (0, 1), BuildingBlock: MIFKUJ_clean_linker_0, # of connection points: 2
#     Edge 14, Type (0, 1), BuildingBlock: MIFKUJ_clean_linker_0, # of connection points: 2
#     Edge 15, Type (0, 1), BuildingBlock: MIFKUJ_clean_linker_0, # of connection points: 2
#     Edge 16, Type (0, 1), BuildingBlock: MIFKUJ_clean_linker_0, # of connection points: 2
#     Edge 17, Type (0, 1), BuildingBlock: MIFKUJ_clean_linker_0, # of connection points: 2
#     Edge 18, Type (0, 1), BuildingBlock: MIFKUJ_clean_linker_0, # of connection points: 2
#     Edge 19, Type (0, 1), BuildingBlock: MIFKUJ_clean_linker_0, # of connection points: 2
#     Edge 20, Type (0, 1), BuildingBlock: MIFKUJ_clean_linker_0, # of connection points: 2
#     Edge 21, Type (0, 1), BuildingBlock: MIFKUJ_clean_linker_0, # of connection points: 2
#     Edge 22, Type (0, 1), BuildingBlock: MIFKUJ_clean_linker_0, # of connection points: 2
#     Edge 23, Type (0, 1), BuildingBlock: MIFKUJ_clean_linker_0, # of connection points: 2
#     Edge 24, Type (0, 1), BuildingBlock: MIFKUJ_clean_linker_0, # of connection points: 2
#     Edge 25, Type (0, 1), BuildingBlock: MIFKUJ_clean_linker_0, # of connection points: 2
#     Edge 26, Type (0, 1), BuildingBlock: MIFKUJ_clean_linker_0, # of connection points: 2
#     Edge 27, Type (0, 1), BuildingBlock: MIFKUJ_clean_linker_0, # of connection points: 2
#     Edge 28, Type (0, 1), BuildingBlock: MIFKUJ_clean_linker_0, # of connection points: 2
#     Edge 29, Type (0, 1), BuildingBlock: MIFKUJ_clean_linker_0, # of connection points: 2
#     Edge 30, Type (0, 1), BuildingBlock: MIFKUJ_clean_linker_0, # of connection points: 2
#     Edge 31, Type (0, 1), BuildingBlock: MIFKUJ_clean_linker_0, # of connection points: 2
#     Edge 32, Type (0, 1), BuildingBlock: MIFKUJ_clean_linker_0, # of connection points: 2
#     Edge 33, Type (0, 1), BuildingBlock: MIFKUJ_clean_linker_0, # of connection points: 2
#     Edge 34, Type (0, 1), BuildingBlock: MIFKUJ_clean_linker_0, # of connection points: 2
#     Edge 35, Type (0, 1), BuildingBlock: MIFKUJ_clean_linker_0, # of connection points: 2
# Relax obj value: 0.216
# Max RMSD: 0.169
# Mean RMSD: 0.090
data_MOF--net-zzz--node1-HISSIN_clean_sbu_0--node2-PAMTOO_clean_linker_0--edge1-MIFKUJ_clean_linker_0
_symmetry_space_group_name_H-M    P1
_symmetry_Int_Tables_number       1
_symmetry_cell_setting            triclinic
loop_
_symmetry_equiv_pos_as_xyz
'x, y, z'
_cell_length_a     65.473297
_cell_length_b     65.414506
_cell_length_c     21.488938
_cell_angle_alpha  90.238717
_cell_angle_beta   91.803738
_cell_angle_gamma 89.771096
loop_
_atom_site_label
_atom_site_type_symbol
_atom_site_fract_x
_atom_site_fract_y
_atom_site_fract_z
_atom_type_partial_charge
H0 H 0.80602 0.54042 0.18822 0.0
H1 H 0.74373 0.54162 0.11868 0.0
H2 H 0.75672 0.53346 0.31441 0.0
H3 H 0.70872 0.5127 0.25148 0.0
C4 C 0.71581 0.51834 0.20855 0.0
O5 O 0.72723 0.53565 0.22382 0.0
H6 H 0.72584 0.50568 0.19254 0.0
C7 C 0.78979 0.54003 0.19656 0.0
C8 C 0.78336 0.53774 0.25795 0.0
C9 C 0.7757 0.54097 0.14587 0.0
C10 C 0.75479 0.5402 0.15697 0.0
C11 C 0.7478 0.53693 0.21672 0.0
C12 C 0.76211 0.53556 0.26776 0.0
H13 H 0.97837 0.80756 0.21139 0.0
H14 H 0.98558 0.74848 0.12679 0.0
H15 H 0.01171 0.76024 0.30969 0.0
H16 H 0.98008 0.71777 0.21529 0.0
C17 C 0.9968 0.71462 0.21826 0.0
O18 O 1.00784 0.73277 0.21416 0.0
H19 H 1.00016 0.708 0.26503 0.0
C20 C 0.98332 0.79177 0.21475 0.0
C21 C 0.99437 0.78563 0.26864 0.0
C22 C 0.98014 0.7787 0.16325 0.0
C23 C 0.98787 0.75875 0.16602 0.0
C24 C 0.99921 0.75184 0.21786 0.0
C25 C 1.00262 0.76536 0.26974 0.0
H26 H 0.72384 0.98158 0.19884 0.0
H27 H 0.78284 0.9807 0.1148 0.0
H28 H 0.7707 0.02323 0.26246 0.0
H29 H 0.80578 0.03907 0.14768 0.0
C30 C 0.8038 0.02342 0.12819 0.0
O31 O 0.79846 0.01041 0.17685 0.0
H32 H 0.7909 0.02461 0.0933 0.0
C33 C 0.73941 0.98701 0.19659 0.0
C34 C 0.74559 1.00244 0.23844 0.0
C35 C 0.75242 0.97915 0.1511 0.0
C36 C 0.77234 0.9869 0.14799 0.0
C37 C 0.77898 1.00322 0.18542 0.0
C38 C 0.76557 0.011 0.23177 0.0
H39 H 0.48162 0.72766 0.19244 0.0
H40 H 0.49493 0.78001 0.08139 0.0
H41 H 0.53558 0.76339 0.23463 0.0
H42 H 0.53287 0.81471 0.1989 0.0
C43 C 0.52356 0.81063 0.15654 0.0
O44 O 0.5281 0.79042 0.14108 0.0
H45 H 0.50723 0.81217 0.16888 0.0
C46 C 0.49113 0.74084 0.18411 0.0
C47 C 0.50897 0.74377 0.22111 0.0
C48 C 0.48606 0.75366 0.13373 0.0
C49 C 0.49869 0.77018 0.1206 0.0
C50 C 0.51626 0.7742 0.15715 0.0
C51 C 0.52168 0.76073 0.20724 0.0
H52 H 0.23389 0.48505 0.09581 0.0
H53 H 0.29555 0.49115 0.16561 0.0
H54 H 0.28025 0.50726 0.97547 0.0
H55 H 0.3079 0.53293 0.10161 0.0
C56 C 0.31967 0.52183 0.08607 0.0
O57 O 0.31045 0.50407 0.06329 0.0
H58 H 0.32754 0.52931 0.04727 0.0
C59 C 0.24969 0.48852 0.08715 0.0
C60 C 0.25493 0.49567 0.02819 0.0
C61 C 0.26405 0.48706 0.13676 0.0
C62 C 0.28436 0.49226 0.12748 0.0
C63 C 0.29034 0.49959 0.06993 0.0
C64 C 0.27557 0.50161 0.02009 0.0
H65 H 0.06251 0.23553 0.06782 0.0
H66 H 0.05623 0.29175 0.16901 0.0
H67 H 0.02111 0.28203 0.99823 0.0
H68 H 0.01188 0.30131 0.16263 0.0
C69 C 0.01588 0.3146 0.1332 0.0
O70 O 0.03085 0.30909 0.09135 0.0
H71 H 1.00169 0.31856 0.10609 0.0
C72 C 0.05602 0.25074 0.07101 0.0
C73 C 0.0416 0.25702 0.02543 0.0
C74 C 0.06091 0.26282 0.12335 0.0
C75 C 0.05241 0.28235 0.12866 0.0
C76 C 0.03817 0.28959 0.08412 0.0
C77 C 0.03231 0.27668 0.0326 0.0
H78 H 0.30683 0.06404 0.09509 0.0
H79 H 0.25195 0.05333 0.19282 0.0
H80 H 0.26319 0.01972 0.02407 0.0
H81 H 0.21076 0.03027 0.06604 0.0
C82 C 0.21728 0.03533 0.11189 0.0
O83 O 0.2366 0.02613 0.11963 0.0
H84 H 0.21884 0.05224 0.10924 0.0
C85 C 0.29216 0.0565 0.09684 0.0
C86 C 0.28693 0.04178 0.05131 0.0
C87 C 0.27982 0.0606 0.14758 0.0
C88 C 0.26132 0.05035 0.15305 0.0
C89 C 0.25472 0.03598 0.10881 0.0
C90 C 0.26777 0.03133 0.05766 0.0
H91 H 0.54584 0.3092 0.10641 0.0
H92 H 0.53893 0.25132 0.19765 0.0
H93 H 0.49635 0.26922 0.05093 0.0
H94 H 0.47764 0.2365 0.16378 0.0
C95 C 0.49355 0.23623 0.18332 0.0
O96 O 0.50679 0.23985 0.135 0.0
H97 H 0.49448 0.24881 0.2184 0.0
C98 C 0.53796 0.29473 0.11056 0.0
C99 C 0.52086 0.29088 0.07129 0.0
C100 C 0.54441 0.28081 0.15684 0.0
C101 C 0.53389 0.26235 0.1629 0.0
C102 C 0.51641 0.2581 0.12621 0.0
C103 C 0.5097 0.27251 0.0802 0.0
Eu104 Eu 1.00173 0.0297 0.59475 0.0
Eu105 Eu 0.03286 0.01472 0.70145 0.0
C106 C 0.02305 0.06227 0.69347 0.0
C107 C 0.99127 0.0668 0.47748 0.0
C108 C 0.00971 0.07397 0.5044 0.0
C109 C 0.99375 0.09205 0.39584 0.0
C110 C 0.02032 0.0896 0.47683 0.0
C111 C 0.98318 0.07594 0.42318 0.0
C112 C 0.01255 0.09862 0.42224 0.0
C113 C 0.98212 0.04891 0.50596 0.0
O114 O 1.00118 0.01663 0.74619 0.0
O115 O 0.97892 0.01694 0.66213 0.0
C116 C 0.98227 0.01563 0.72274 0.0
O117 O 0.99934 0.99547 0.57873 0.0
O118 O 0.04329 0.01756 0.79859 0.0
O119 O 0.05596 0.99395 0.74057 0.0
O120 O 0.02486 0.98518 0.6475 0.0
C121 C 0.01123 0.98102 0.60252 0.0
O122 O 0.03336 0.03102 0.54976 0.0
O123 O 0.05596 0.02092 0.6271 0.0
O124 O 0.03804 0.04909 0.70151 0.0
O125 O 0.99212 0.03197 0.49668 0.0
O126 O 0.97798 0.05136 0.56443 0.0
O127 O 1.00629 0.05652 0.66303 0.0
C128 C 0.0472 0.98457 0.84033 0.0
C129 C 0.02652 0.98315 0.85527 0.0
C130 C 0.05292 0.95034 0.87979 0.0
C131 C 0.01891 0.96513 0.87933 0.0
C132 C 0.06053 0.9684 0.8552 0.0
C133 C 0.03185 0.94821 0.88911 0.0
C134 C 0.05354 1.00045 0.79724 0.0
C135 C 0.05226 0.02681 0.56937 0.0
H136 H 0.01616 0.06719 0.54648 0.0
H137 H 0.98757 0.09903 0.35366 0.0
H138 H 0.03466 0.09467 0.49818 0.0
H139 H 0.96902 0.07049 0.40177 0.0
H140 H 0.01586 0.99536 0.84394 0.0
H141 H 0.06334 0.93768 0.88829 0.0
H142 H 1.0026 0.96401 0.88559 0.0
H143 H 0.0765 0.96919 0.84369 0.0
Eu144 Eu 0.52772 0.03207 0.70637 0.0
Eu145 Eu 0.50676 1.00508 0.5985 0.0
C146 C 0.52539 0.98175 0.71886 0.0
C147 C 0.5644 0.03823 0.83471 0.0
C148 C 0.56049 0.02105 0.87181 0.0
C149 C 0.60004 0.028 0.83204 0.0
C150 C 0.57597 1.00693 0.88581 0.0
C151 C 0.5846 0.04217 0.81828 0.0
C152 C 0.5956 0.00979 0.86318 0.0
C153 C 0.5474 0.04853 0.80027 0.0
O154 O 0.4825 0.00857 0.67255 0.0
O155 O 0.49348 0.03785 0.71991 0.0
C156 C 0.47904 0.02407 0.7101 0.0
O157 O 0.52246 0.05599 0.63185 0.0
O158 O 0.48597 0.98054 0.56919 0.0
O159 O 0.49904 0.99998 0.50008 0.0
O160 O 0.49974 0.03817 0.56983 0.0
C161 C 0.50969 0.05517 0.58356 0.0
O162 O 0.55525 0.02145 0.65007 0.0
O163 O 0.53957 1.00648 0.56466 0.0
O164 O 0.52135 0.98017 0.65866 0.0
O165 O 0.55106 0.05309 0.74268 0.0
O166 O 0.5294 0.04032 0.80504 0.0
O167 O 0.52641 0.99982 0.74586 0.0
C168 C 0.4636 0.99591 0.49463 0.0
C169 C 0.44907 0.99957 0.54047 0.0
C170 C 0.44476 0.0188 0.42511 0.0
C171 C 0.43312 0.01341 0.52964 0.0
C172 C 0.46069 1.0049 0.43585 0.0
C173 C 0.4314 0.02385 0.47285 0.0
C174 C 0.48399 0.98788 0.51299 0.0
C175 C 0.55627 0.01328 0.59381 0.0
H176 H 0.54514 0.01759 0.88583 0.0
H177 H 0.61528 0.03085 0.8159 0.0
H178 H 0.57224 0.99313 0.91067 0.0
H179 H 0.58814 0.05535 0.79025 0.0
H180 H 0.45085 0.993 0.58651 0.0
H181 H 0.4434 0.02625 0.38022 0.0
H182 H 0.42295 0.01691 0.56709 0.0
H183 H 0.47169 1.00244 0.3999 0.0
Eu184 Eu 0.50104 0.52718 0.69959 0.0
Eu185 Eu 0.5328 0.50821 0.59977 0.0
C186 C 0.5497 0.52186 0.73803 0.0
C187 C 0.46359 0.56246 0.7786 0.0
C188 C 0.47279 0.58144 0.76835 0.0
C189 C 0.4317 0.57997 0.79948 0.0
C190 C 0.46183 0.59951 0.77607 0.0
C191 C 0.44284 0.56183 0.7927 0.0
C192 C 0.44123 0.5991 0.79316 0.0
C193 C 0.47571 0.54344 0.77705 0.0
O194 O 0.52907 0.48262 0.67044 0.0
O195 O 0.4992 0.49272 0.71454 0.0
C196 C 0.51357 0.47885 0.70637 0.0
O197 O 0.48248 0.52671 0.60903 0.0
O198 O 0.56233 0.50783 0.55487 0.0
O199 O 0.53882 0.48631 0.52621 0.0
O200 O 0.50129 0.50396 0.55321 0.0
C201 C 0.48451 0.51477 0.56036 0.0
O202 O 0.51107 0.5554 0.64647 0.0
O203 O 0.52811 0.54079 0.56529 0.0
O204 O 0.55383 0.51899 0.67912 0.0
O205 O 0.47017 0.52979 0.73549 0.0
O206 O 0.49551 0.54552 0.78179 0.0
O207 O 0.53073 0.52312 0.75616 0.0
C208 C 0.57261 0.47516 0.52036 0.0
C209 C 0.57631 0.46324 0.57367 0.0
C210 C 0.59179 0.45098 0.45957 0.0
C211 C 0.58714 0.44485 0.56939 0.0
C212 C 0.58106 0.46935 0.464 0.0
C213 C 0.5942 0.43806 0.5116 0.0
C214 C 0.55774 0.49192 0.52064 0.0
C215 C 0.52007 0.55687 0.59255 0.0
H216 H 0.48872 0.58242 0.75653 0.0
H217 H 0.41579 0.57898 0.81134 0.0
H218 H 0.46995 0.61379 0.77174 0.0
H219 H 0.43537 0.54732 0.79995 0.0
H220 H 0.56985 0.46758 0.61765 0.0
H221 H 0.59672 0.44619 0.41411 0.0
H222 H 0.58894 0.43539 0.61047 0.0
H223 H 0.57823 0.47838 0.42241 0.0
Eu224 Eu 0.02427 0.5358 0.60635 0.0
Eu225 Eu 0.0091 0.50314 0.70658 0.0
C226 C 0.05734 0.51351 0.70382 0.0
C227 C 0.05755 0.55262 0.48316 0.0
C228 C 0.05923 0.53252 0.46044 0.0
C229 C 0.09298 0.5585 0.45891 0.0
C230 C 0.07773 0.52532 0.43875 0.0
C231 C 0.07438 0.56573 0.48062 0.0
C232 C 0.09495 0.53804 0.43953 0.0
C233 C 0.04013 0.55825 0.52114 0.0
O234 O 1.00484 0.53385 0.75668 0.0
O235 O 0.01941 0.55644 0.68978 0.0
C236 C 0.01112 0.55246 0.74339 0.0
O237 O 0.98997 0.54071 0.60264 0.0
O238 O 0.99933 0.49456 0.79916 0.0
O239 O 0.99818 0.47232 0.72475 0.0
O240 O 0.98155 0.50959 0.64185 0.0
C241 C 0.97641 0.52632 0.61124 0.0
O242 O 0.02024 0.50571 0.55293 0.0
O243 O 0.02447 0.48354 0.63358 0.0
O244 O 0.04236 0.50629 0.73657 0.0
O245 O 0.02344 0.54772 0.51151 0.0
O246 O 0.04473 0.56034 0.58024 0.0
O247 O 0.05371 0.52248 0.64971 0.0
C248 C 0.96984 0.47464 0.78934 0.0
C249 C 0.95593 0.47471 0.73804 0.0
C250 C 0.94162 0.47936 0.85828 0.0
C251 C 0.93515 0.47795 0.74669 0.0
C252 C 0.96243 0.47611 0.84963 0.0
C253 C 0.92798 0.48124 0.8067 0.0
C254 C 0.99182 0.47718 0.7797 0.0
C255 C 0.02353 0.48701 0.57333 0.0
H256 H 0.04663 0.52191 0.46287 0.0
H257 H 0.10595 0.56872 0.45901 0.0
H258 H 0.07879 0.50944 0.42464 0.0
H259 H 0.07347 0.58118 0.49871 0.0
H260 H 0.96122 0.47368 0.69088 0.0
H261 H 0.93637 0.48149 0.90518 0.0
H262 H 0.925 0.47937 0.70614 0.0
H263 H 0.97288 0.47614 0.88974 0.0
H264 H 0.17577 0.03092 0.0981 0.0
H265 H 0.14952 0.02933 0.17627 0.0
H266 H 0.19618 0.02992 0.32196 0.0
H267 H 0.22274 0.03168 0.24289 0.0
H268 H 0.16457 1.00299 0.35096 0.0
H269 H 0.16807 0.07289 0.2865 0.0
H270 H 0.16779 0.10149 0.21208 0.0
H271 H 0.10716 0.08528 0.14827 0.0
H272 H 0.1072 0.05638 0.22166 0.0
H273 H 0.09396 0.02215 0.59346 0.0
H274 H 0.12208 0.02326 0.52129 0.0
H275 H 0.07914 0.03483 0.3693 0.0
H276 H 0.05102 0.03449 0.44199 0.0
H277 H 0.11006 0.05583 0.34551 0.0
H278 H 0.10621 0.98549 0.40286 0.0
H279 H 0.10563 0.95594 0.4737 0.0
H280 H 0.16548 0.97141 0.54616 0.0
H281 H 0.16631 1.00122 0.47625 0.0
C282 C 0.18062 0.03027 0.14671 0.0
C283 C 0.20168 0.03085 0.16327 0.0
C284 C 0.16541 0.0296 0.19187 0.0
C285 C 0.17045 0.02966 0.25613 0.0
C286 C 0.19153 0.02978 0.27316 0.0
C287 C 0.20686 0.03066 0.22762 0.0
C288 C 0.1537 0.03013 0.30443 0.0
C289 C 0.15288 0.01477 0.35017 0.0
C290 C 0.13776 0.04502 0.30352 0.0
C291 C 0.13772 0.06234 0.25917 0.0
C292 C 0.15475 0.07531 0.25621 0.0
C293 C 0.15462 0.09159 0.21428 0.0
C294 C 0.13749 0.09517 0.17536 0.0
C295 C 0.12043 0.08248 0.17837 0.0
C296 C 0.1205 0.06615 0.22016 0.0
C297 C 0.09037 0.02498 0.54473 0.0
C298 C 0.06985 0.02814 0.52444 0.0
C299 C 0.10666 0.02542 0.50278 0.0
C300 C 0.10321 0.02865 0.43824 0.0
C301 C 0.08271 0.03219 0.41816 0.0
C302 C 0.06642 0.03195 0.46022 0.0
C303 C 0.12073 0.02857 0.39215 0.0
C304 C 0.12172 0.04401 0.34663 0.0
C305 C 0.13666 0.01359 0.39278 0.0
C306 C 0.13623 0.9957 0.43481 0.0
C307 C 0.11919 0.98267 0.43422 0.0
C308 C 0.11882 0.96587 0.47415 0.0
C309 C 0.13548 0.96184 0.51453 0.0
C310 C 0.15257 0.97458 0.51493 0.0
C311 C 0.15301 0.99142 0.47514 0.0
H312 H 0.13517 0.94882 0.54541 0.0
H313 H 0.13741 0.1078 0.14297 0.0
H314 H 0.52229 0.22734 0.27676 0.0
H315 H 0.52534 0.19653 0.34133 0.0
H316 H 0.47663 0.16837 0.23243 0.0
H317 H 0.47349 0.19927 0.16831 0.0
H318 H 0.4701 0.16242 0.3519 0.0
H319 H 0.5286 0.153 0.22517 0.0
H320 H 0.56103 0.16277 0.17829 0.0
H321 H 0.5891 0.16988 0.36034 0.0
H322 H 0.55675 0.16041 0.40834 0.0
H323 H 0.48267 0.0614 0.48309 0.0
H324 H 0.48005 0.09111 0.41375 0.0
H325 H 0.52838 0.12083 0.52008 0.0
H326 H 0.53108 0.09132 0.58922 0.0
H327 H 0.53498 0.12576 0.40072 0.0
H328 H 0.47757 0.13338 0.52825 0.0
H329 H 0.4452 0.12488 0.57725 0.0
H330 H 0.41444 0.12371 0.39794 0.0
H331 H 0.44686 0.13098 0.34736 0.0
C332 C 0.51253 0.21441 0.26573 0.0
C333 C 0.49772 0.21586 0.21692 0.0
C334 C 0.51424 0.19671 0.30293 0.0
C335 C 0.50127 0.17977 0.2923 0.0
C336 C 0.48683 0.18105 0.24236 0.0
C337 C 0.48516 0.19873 0.20514 0.0
C338 C 0.50222 0.16113 0.33417 0.0
C339 C 0.48425 0.15419 0.36157 0.0
C340 C 0.52072 0.15057 0.34909 0.0
C341 C 0.5402 0.15618 0.32033 0.0
C342 C 0.54165 0.15679 0.25521 0.0
C343 C 0.56002 0.16225 0.22843 0.0
C344 C 0.5771 0.16699 0.26631 0.0
C345 C 0.57585 0.16623 0.33105 0.0
C346 C 0.55751 0.16079 0.35807 0.0
C347 C 0.49267 0.0743 0.49212 0.0
C348 C 0.50705 0.07377 0.54247 0.0
C349 C 0.49114 0.09141 0.45223 0.0
C350 C 0.50396 0.10854 0.46117 0.0
C351 C 0.51828 0.10798 0.51145 0.0
C352 C 0.51973 0.091 0.55149 0.0
C353 C 0.50279 0.12688 0.41818 0.0
C354 C 0.52075 0.13383 0.39075 0.0
C355 C 0.48426 0.13751 0.40357 0.0
C356 C 0.46483 0.13236 0.43381 0.0
C357 C 0.46403 0.13084 0.49902 0.0
C358 C 0.44565 0.12621 0.52713 0.0
C359 C 0.42782 0.12351 0.49069 0.0
C360 C 0.42833 0.1255 0.42606 0.0
C361 C 0.44674 0.12975 0.39761 0.0
H362 H 0.4136 0.12003 0.51259 0.0
H363 H 0.59131 0.17122 0.2455 0.0
H364 H 0.35353 0.49628 0.08646 0.0
H365 H 0.38115 0.4933 0.16625 0.0
H366 H 0.34961 0.53605 0.28287 0.0
H367 H 0.32216 0.53905 0.2033 0.0
H368 H 0.38879 0.54629 0.279 0.0
H369 H 0.35279 0.48404 0.31619 0.0
H370 H 0.33709 0.45089 0.28854 0.0
H371 H 0.39523 0.42792 0.23226 0.0
H372 H 0.41123 0.46105 0.25875 0.0
H373 H 0.4478 0.53538 0.55903 0.0
H374 H 0.42025 0.53471 0.47986 0.0
H375 H 0.45445 0.49173 0.37144 0.0
H376 H 0.48212 0.4921 0.45125 0.0
H377 H 0.41483 0.4811 0.36848 0.0
H378 H 0.45098 0.543 0.33215 0.0
H379 H 0.46691 0.57602 0.36005 0.0
H380 H 0.40873 0.59969 0.41342 0.0
H381 H 0.3925 0.56669 0.38674 0.0
C382 C 0.35232 0.5047 0.12969 0.0
C383 C 0.33544 0.51767 0.13868 0.0
C384 C 0.36817 0.50304 0.17541 0.0
C385 C 0.36762 0.51438 0.23133 0.0
C386 C 0.35059 0.52713 0.24049 0.0
C387 C 0.33476 0.52871 0.195 0.0
C388 C 0.38498 0.51362 0.27926 0.0
C389 C 0.39424 0.53201 0.29904 0.0
C390 C 0.39273 0.49504 0.30469 0.0
C391 C 0.38316 0.4751 0.28882 0.0
C392 C 0.36219 0.47197 0.29742 0.0
C393 C 0.35325 0.45318 0.28205 0.0
C394 C 0.36514 0.43733 0.25849 0.0
C395 C 0.38603 0.44022 0.25041 0.0
C396 C 0.39504 0.459 0.26563 0.0
C397 C 0.44956 0.52571 0.51851 0.0
C398 C 0.46742 0.51386 0.51191 0.0
C399 C 0.43372 0.52542 0.47282 0.0
C400 C 0.43519 0.5134 0.41863 0.0
C401 C 0.45281 0.50121 0.41243 0.0
C402 C 0.46871 0.50148 0.45824 0.0
C403 C 0.41848 0.5138 0.36858 0.0
C404 C 0.40938 0.49536 0.34833 0.0
C405 C 0.4109 0.53235 0.34249 0.0
C406 C 0.42056 0.5523 0.35798 0.0
C407 C 0.44161 0.5552 0.35024 0.0
C408 C 0.45069 0.57392 0.36579 0.0
C409 C 0.43885 0.58993 0.38863 0.0
C410 C 0.41789 0.58727 0.39579 0.0
C411 C 0.40873 0.56856 0.38042 0.0
H412 H 0.44591 0.60441 0.40068 0.0
H413 H 0.35819 0.42278 0.24664 0.0
H414 H 0.02991 0.31446 0.25621 0.0
H415 H 0.03372 0.34336 0.32879 0.0
H416 H 0.01835 0.38515 0.17992 0.0
H417 H 0.01465 0.35615 0.10714 0.0
H418 H 0.04743 0.40206 0.25577 0.0
H419 H 0.98271 0.37003 0.28839 0.0
H420 H 0.95967 0.3414 0.31056 0.0
H421 H 0.99085 0.33194 0.48694 0.0
H422 H 0.01425 0.36035 0.46544 0.0
H423 H 0.02048 0.48801 0.44475 0.0
H424 H 0.02157 0.45956 0.37071 0.0
H425 H 0.03171 0.41746 0.52241 0.0
H426 H 0.03011 0.44587 0.59684 0.0
H427 H 1.0061 0.4005 0.44511 0.0
H428 H 0.07022 0.43301 0.41561 0.0
H429 H 0.09368 0.46137 0.39427 0.0
H430 H 0.06475 0.46967 0.21404 0.0
H431 H 0.04088 0.4416 0.23467 0.0
C432 C 0.02769 0.32982 0.2386 0.0
C433 C 0.02188 0.33285 0.17553 0.0
C434 C 0.02968 0.34644 0.28047 0.0
C435 C 0.02592 0.36672 0.26089 0.0
C436 C 0.02126 0.36983 0.19704 0.0
C437 C 0.01921 0.35318 0.15514 0.0
C438 C 0.02605 0.38442 0.30707 0.0
C439 C 0.03818 0.40176 0.29675 0.0
C440 C 0.01444 0.3842 0.36191 0.0
C441 C 1.00036 0.36717 0.37502 0.0
C442 C 0.98474 0.36174 0.3317 0.0
C443 C 0.97161 0.34557 0.34418 0.0
C444 C 0.97383 0.33482 0.40005 0.0
C445 C 0.98916 0.34026 0.44364 0.0
C446 C 1.00236 0.3564 0.43136 0.0
C447 C 0.02307 0.47274 0.46264 0.0
C448 C 0.02527 0.46949 0.52743 0.0
C449 C 0.02382 0.45633 0.41983 0.0
C450 C 0.02702 0.43602 0.43997 0.0
C451 C 0.02923 0.43278 0.50474 0.0
C452 C 0.02841 0.44918 0.54762 0.0
C453 C 0.02753 0.41822 0.39409 0.0
C454 C 0.01545 0.40084 0.40436 0.0
C455 C 0.03929 0.41839 0.33946 0.0
C456 C 0.05363 0.4353 0.32693 0.0
C457 C 0.06875 0.44099 0.37162 0.0
C458 C 0.08213 0.457 0.35964 0.0
C459 C 0.08068 0.46733 0.30288 0.0
C460 C 0.06584 0.46167 0.25801 0.0
C461 C 0.05238 0.4457 0.26981 0.0
H462 H 0.0911 0.47965 0.29355 0.0
H463 H 0.96364 0.32231 0.40963 0.0
H464 H 0.80771 1.00261 0.01602 0.0
H465 H 0.83762 0.99954 0.95086 0.0
H466 H 0.87477 0.02846 0.09475 0.0
H467 H 0.84457 0.03202 0.15918 0.0
H468 H 0.88567 0.04431 0.99269 0.0
H469 H 0.87774 0.97411 0.04698 0.0
H470 H 0.86001 0.94122 0.05858 0.0
H471 H 0.84774 0.93866 0.86124 0.0
H472 H 0.86516 0.97169 0.84854 0.0
H473 H 0.98165 0.02241 0.85017 0.0
H474 H 0.95257 0.02181 0.91944 0.0
H475 H 0.91265 1.00477 0.76505 0.0
H476 H 0.94166 1.00578 0.69513 0.0
H477 H 0.90381 0.98233 0.87263 0.0
H478 H 0.91132 0.05259 0.81933 0.0
H479 H 0.92979 0.08502 0.80723 0.0
H480 H 0.94355 0.0868 0.00386 0.0
H481 H 0.92542 0.05416 0.01702 0.0
C482 C 0.82234 0.00786 0.03462 0.0
C483 C 0.8235 0.01737 0.09378 0.0
C484 C 0.83966 1.00612 0.99691 0.0
C485 C 0.85905 0.01359 0.01688 0.0
C486 C 0.86031 0.02253 0.07697 0.0
C487 C 0.84295 0.02433 0.11459 0.0
C488 C 0.87759 0.01288 0.97467 0.0
C489 C 0.88969 0.03054 0.96756 0.0
C490 C 0.88314 0.99528 0.93946 0.0
C491 C 0.87257 0.97548 0.94692 0.0
C492 C 0.87111 0.96661 0.00612 0.0
C493 C 0.86114 0.94793 0.01288 0.0
C494 C 0.8527 0.93789 0.96071 0.0
C495 C 0.85425 0.94648 0.90163 0.0
C496 C 0.86419 0.96517 0.89462 0.0
C497 C 0.96674 0.01845 0.83061 0.0
C498 C 0.96433 0.01418 0.76622 0.0
C499 C 0.94994 0.01818 0.87064 0.0
C500 C 0.93001 0.01333 0.84834 0.0
C501 C 0.92764 0.00856 0.78436 0.0
C502 C 0.94439 0.0092 0.74403 0.0
C503 C 0.91175 0.01366 0.89122 0.0
C504 C 0.89975 0.996 0.89822 0.0
C505 C 0.90634 0.03119 0.92655 0.0
C506 C 0.9172 0.05083 0.91906 0.0
C507 C 0.91844 0.0598 0.85993 0.0
C508 C 0.92882 0.07823 0.85287 0.0
C509 C 0.93788 0.08793 0.90469 0.0
C510 C 0.93656 0.07924 0.96373 0.0
C511 C 0.92622 0.06078 0.97103 0.0
H512 H 0.94583 0.10223 0.89901 0.0
H513 H 0.845 0.92342 0.96604 0.0
H514 H 0.54096 0.84863 0.16668 0.0
H515 H 0.54256 0.87576 0.0891 0.0
H516 H 0.51494 0.83575 0.95101 0.0
H517 H 0.51337 0.80837 0.02916 0.0
H518 H 0.54544 0.85966 0.8999 0.0
H519 H 0.4865 0.87192 0.0222 0.0
H520 H 0.46777 0.87674 0.119 0.0
H521 H 0.50493 0.92879 0.16661 0.0
H522 H 0.52408 0.9241 0.07047 0.0
H523 H 0.51809 0.94116 0.68747 0.0
H524 H 0.5191 0.91123 0.75589 0.0
H525 H 0.53872 0.94944 0.91023 0.0
H526 H 0.53723 0.97934 0.84263 0.0
H527 H 0.51152 0.9253 0.9505 0.0
H528 H 0.57112 0.91335 0.83233 0.0
H529 H 0.59099 0.90886 0.73762 0.0
H530 H 0.55434 0.85702 0.68423 0.0
H531 H 0.53405 0.86136 0.77829 0.0
C532 C 0.53562 0.84538 0.11948 0.0
C533 C 0.52743 0.82602 0.10427 0.0
C534 C 0.53636 0.86107 0.07502 0.0
C535 C 0.52869 0.85812 0.0137 0.0
C536 C 0.52103 0.8386 0.99767 0.0
C537 C 0.5202 0.82284 0.04247 0.0
C538 C 0.52794 0.87568 0.96786 0.0
C539 C 0.53775 0.87389 0.91067 0.0
C540 C 0.51839 0.89463 0.98171 0.0
C541 C 0.50684 0.89754 0.0394 0.0
C542 C 0.49077 0.8843 0.05353 0.0
C543 C 0.48007 0.88702 0.10825 0.0
C544 C 0.48519 0.90303 0.149 0.0
C545 C 0.501 0.91638 0.13504 0.0
C546 C 0.51177 0.91371 0.08041 0.0
C547 C 0.52283 0.94321 0.73582 0.0
C548 C 0.52761 0.96289 0.75896 0.0
C549 C 0.52348 0.92595 0.7752 0.0
C550 C 0.52915 0.92772 0.83895 0.0
C551 C 0.53419 0.94735 0.86171 0.0
C552 C 0.53343 0.96458 0.82257 0.0
C553 C 0.52923 0.90947 0.88249 0.0
C554 C 0.51923 0.9111 0.93941 0.0
C555 C 0.53877 0.89049 0.86852 0.0
C556 C 0.55092 0.88782 0.81199 0.0
C557 C 0.56719 0.90109 0.80014 0.0
C558 C 0.57855 0.89856 0.74662 0.0
C559 C 0.57389 0.8827 0.70484 0.0
C560 C 0.5579 0.86931 0.71659 0.0
C561 C 0.54648 0.87179 0.77001 0.0
H562 H 0.5827 0.88076 0.66343 0.0
H563 H 0.47689 0.90512 0.19133 0.0
H564 H 0.67547 0.52928 0.22349 0.0
H565 H 0.64778 0.53167 0.14404 0.0
H566 H 0.69074 0.51887 0.00087 0.0
H567 H 0.71839 0.51631 0.08043 0.0
H568 H 0.66322 0.54808 0.96204 0.0
H569 H 0.65972 0.48149 0.05356 0.0
H570 H 0.6575 0.45665 0.13908 0.0
H571 H 0.60017 0.48276 0.19083 0.0
H572 H 0.60219 0.50795 0.10608 0.0
H573 H 0.59123 0.51933 0.72023 0.0
H574 H 0.61918 0.52057 0.79841 0.0
H575 H 0.57567 0.52861 0.94301 0.0
H576 H 0.54762 0.52709 0.86515 0.0
H577 H 0.60357 0.50231 0.98152 0.0
H578 H 0.60653 0.56863 0.88978 0.0
H579 H 0.60861 0.59372 0.80492 0.0
H580 H 0.66655 0.56874 0.75439 0.0
H581 H 0.66469 0.5433 0.83846 0.0
C582 C 0.67905 0.52724 0.17499 0.0
C583 C 0.69918 0.52255 0.15849 0.0
C584 C 0.66316 0.52847 0.12947 0.0
C585 C 0.66694 0.52514 0.06602 0.0
C586 C 0.68725 0.52146 0.04921 0.0
C587 C 0.70313 0.52007 0.09482 0.0
C588 C 0.6497 0.5248 0.01773 0.0
C589 C 0.65031 0.53789 0.96602 0.0
C590 C 0.63248 0.51186 0.02294 0.0
C591 C 0.63122 0.49674 0.07391 0.0
C592 C 0.64673 0.48204 0.08351 0.0
C593 C 0.64549 0.46788 0.13178 0.0
C594 C 0.62874 0.46817 0.17048 0.0
C595 C 0.61316 0.48258 0.16088 0.0
C596 C 0.61433 0.4968 0.11271 0.0
C597 C 0.58753 0.52147 0.76859 0.0
C598 C 0.56698 0.52319 0.78584 0.0
C599 C 0.60364 0.52227 0.81353 0.0
C600 C 0.59978 0.52495 0.87721 0.0
C601 C 0.57926 0.52656 0.89452 0.0
C602 C 0.56314 0.52576 0.84963 0.0
C603 C 0.61699 0.52566 0.92572 0.0
C604 C 0.61641 0.51259 0.97749 0.0
C605 C 0.63419 0.53867 0.92063 0.0
C606 C 0.63536 0.55392 0.87001 0.0
C607 C 0.61964 0.56838 0.86025 0.0
C608 C 0.62079 0.58268 0.81235 0.0
C609 C 0.63768 0.58279 0.77418 0.0
C610 C 0.65347 0.56862 0.78393 0.0
C611 C 0.65238 0.55426 0.83173 0.0
H612 H 0.63854 0.59388 0.73713 0.0
H613 H 0.6278 0.45719 0.20782 0.0
H614 H 0.9937 0.67315 0.22649 0.0
H615 H 0.99672 0.64688 0.14633 0.0
H616 H 0.01221 0.69301 0.01334 0.0
H617 H 0.00854 0.71956 0.0939 0.0
H618 H 0.98791 0.66741 0.95655 0.0
H619 H 0.04843 0.65627 0.08125 0.0
H620 H 0.06925 0.65051 0.17725 0.0
H621 H 0.03678 0.5949 0.21024 0.0
H622 H 0.01558 0.60045 0.11482 0.0
H623 H 0.01961 0.59354 0.72999 0.0
H624 H 0.01809 0.62099 0.80736 0.0
H625 H 0.99732 0.57814 0.94306 0.0
H626 H 0.99891 0.5505 0.86574 0.0
H627 H 0.02557 0.60263 0.9964 0.0
H628 H 0.96483 0.61459 0.87052 0.0
H629 H 0.9449 0.62053 0.77294 0.0
H630 H 0.97928 0.675 0.7403 0.0
H631 H 0.99961 0.66924 0.83732 0.0
C632 C 0.99818 0.67773 0.18052 0.0
C633 C 1.00152 0.69857 0.1678 0.0
C634 C 0.99994 0.66256 0.13428 0.0
C635 C 1.00522 0.66753 0.07309 0.0
C636 C 0.00832 0.68844 0.05986 0.0
C637 C 1.00641 0.70371 0.10634 0.0
C638 C 1.00683 0.65098 0.0233 0.0
C639 C 0.99648 0.65343 0.96524 0.0
C640 C 0.01758 0.63228 0.03375 0.0
C641 C 0.03029 0.62888 0.09116 0.0
C642 C 0.04563 0.64288 0.10921 0.0
C643 C 0.05752 0.63965 0.16348 0.0
C644 C 0.05431 0.62238 0.1999 0.0
C645 C 0.03923 0.60828 0.18202 0.0
C646 C 0.02729 0.61145 0.12781 0.0
C647 C 0.01458 0.58985 0.77612 0.0
C648 C 0.0093 0.56955 0.79082 0.0
C649 C 0.01364 0.60573 0.82065 0.0
C650 C 1.00738 0.60199 0.88174 0.0
C651 C 1.00219 0.58171 0.89665 0.0
C652 C 1.00301 0.56582 0.85198 0.0
C653 C 1.00658 0.61903 0.93002 0.0
C654 C 0.01707 0.61665 0.98777 0.0
C655 C 0.99611 0.63784 0.91908 0.0
C656 C 0.98388 0.64136 0.86086 0.0
C657 C 0.96825 0.62775 0.84229 0.0
C658 C 0.95686 0.6311 0.78713 0.0
C659 C 0.96086 0.6481 0.75036 0.0
C660 C 0.97622 0.66182 0.76878 0.0
C661 C 0.98767 0.65853 0.82388 0.0
H662 H 0.95203 0.65067 0.70767 0.0
H663 H 0.06353 0.61989 0.24189 0.0
H664 H 0.09677 0.24099 0.12603 0.0
H665 H 0.10419 0.21306 0.19878 0.0
H666 H 0.05468 0.23334 0.31205 0.0
H667 H 0.04774 0.26142 0.24109 0.0
H668 H 0.0797 0.21095 0.3806 0.0
H669 H 0.0432 0.20168 0.17535 0.0
H670 H 0.04004 0.20181 0.0605 0.0
H671 H 0.09568 0.16718 0.04994 0.0
H672 H 0.09888 0.16647 0.16484 0.0
H673 H 1.00216 0.13859 0.41166 0.0
H674 H 0.02429 0.16657 0.37907 0.0
H675 H 0.07203 0.12311 0.34016 0.0
H676 H 0.05005 0.09516 0.37397 0.0
H677 H 0.06119 0.15225 0.24325 0.0
H678 H 0.08146 0.14983 0.45675 0.0
H679 H 0.07584 0.14758 0.56936 0.0
H680 H 0.04449 0.20534 0.56461 0.0
H681 H 0.04951 0.20777 0.45161 0.0
C682 C 0.08827 0.24009 0.16836 0.0
C683 C 0.07133 0.25293 0.17723 0.0
C684 C 0.09242 0.22407 0.20967 0.0
C685 C 0.0794 0.22064 0.25919 0.0
C686 C 0.06478 0.23553 0.27366 0.0
C687 C 0.06082 0.25167 0.23297 0.0
C688 C 0.07729 0.19998 0.28596 0.0
C689 C 0.07596 0.19799 0.35079 0.0
C690 C 0.07264 0.18295 0.24704 0.0
C691 C 0.07144 0.18429 0.17831 0.0
C692 C 0.05481 0.19423 0.14839 0.0
C693 C 0.05294 0.19428 0.08338 0.0
C694 C 0.06772 0.18463 0.04793 0.0
C695 C 0.08431 0.17474 0.07745 0.0
C696 C 0.08611 0.17442 0.14247 0.0
C697 C 0.01728 0.1351 0.39534 0.0
C698 C 0.02445 0.11492 0.39432 0.0
C699 C 0.02997 0.15099 0.37777 0.0
C700 C 0.04986 0.1468 0.35858 0.0
C701 C 0.05681 0.12656 0.35571 0.0
C702 C 0.04425 0.1107 0.37426 0.0
C703 C 0.06268 0.16363 0.33726 0.0
C704 C 0.06595 0.16482 0.27348 0.0
C705 C 0.06846 0.18001 0.37705 0.0
C706 C 0.0658 0.17892 0.44543 0.0
C707 C 0.07325 0.16201 0.47955 0.0
C708 C 0.07017 0.1607 0.5435 0.0
C709 C 0.05977 0.17627 0.57405 0.0
C710 C 0.05253 0.19327 0.54082 0.0
C711 C 0.05552 0.19463 0.47679 0.0
H712 H 0.05729 0.17515 0.62345 0.0
H713 H 0.06626 0.18469 0.99764 0.0
H714 H 0.29824 0.09809 0.14226 0.0
H715 H 0.32216 0.11182 0.22154 0.0
H716 H 0.30459 0.06453 0.3484 0.0
H717 H 0.28069 0.05101 0.27029 0.0
H718 H 0.32095 0.09726 0.41193 0.0
H719 H 0.33931 0.0513 0.23617 0.0
H720 H 0.34101 0.04343 0.12389 0.0
H721 H 0.37188 0.10019 0.09419 0.0
H722 H 0.37042 0.10831 0.20643 0.0
H723 H 0.39125 0.02411 0.504 0.0
H724 H 0.36549 0.04969 0.47555 0.0
H725 H 0.41175 0.0867 0.39303 0.0
H726 H 0.43766 0.06138 0.42268 0.0
H727 H 0.38478 0.07602 0.311 0.0
H728 H 0.37627 0.11328 0.50163 0.0
H729 H 0.37343 0.11893 0.61468 0.0
H730 H 0.3243 0.07571 0.619 0.0
H731 H 0.32649 0.07029 0.5056 0.0
C732 C 0.29888 0.09123 0.18809 0.0
C733 C 0.28812 0.07316 0.1997 0.0
C734 C 0.31244 0.09914 0.23338 0.0
C735 C 0.31555 0.08878 0.28997 0.0
C736 C 0.3025 0.0727 0.30486 0.0
C737 C 0.28886 0.0649 0.25993 0.0
C738 C 0.33518 0.09045 0.32524 0.0
C739 C 0.33507 0.09304 0.39004 0.0
C740 C 0.35367 0.08529 0.29648 0.0
C741 C 0.35457 0.08049 0.22922 0.0
C742 C 0.34643 0.06208 0.20555 0.0
C743 C 0.3474 0.05756 0.14206 0.0
C744 C 0.35648 0.07134 0.10192 0.0
C745 C 0.36478 0.08958 0.12531 0.0
C746 C 0.36394 0.09413 0.18884 0.0
C747 C 0.39602 0.03804 0.48167 0.0
C748 C 0.41631 0.04054 0.46403 0.0
C749 C 0.38133 0.05285 0.46624 0.0
C750 C 0.38671 0.07038 0.43296 0.0
C751 C 0.4073 0.07357 0.41975 0.0
C752 C 0.42199 0.05884 0.4354 0.0
C753 C 0.37053 0.08194 0.39853 0.0
C754 C 0.37119 0.08159 0.33335 0.0
C755 C 0.35259 0.08882 0.42714 0.0
C756 C 0.35166 0.0913 0.49544 0.0
C757 C 0.36497 0.10491 0.52686 0.0
C758 C 0.36332 0.10822 0.59081 0.0
C759 C 0.34874 0.09763 0.62405 0.0
C760 C 0.3356 0.08389 0.59323 0.0
C761 C 0.3369 0.08085 0.52903 0.0
H762 H 0.34763 0.10007 0.67368 0.0
H763 H 0.35711 0.06788 0.05274 0.0
H764 H 0.54443 0.27487 0.28232 0.0
H765 H 0.56479 0.29333 0.36033 0.0
H766 H 0.60048 0.31988 0.21645 0.0
H767 H 0.58049 0.3009 0.13745 0.0
H768 H 0.62047 0.31562 0.35187 0.0
H769 H 0.56424 0.34569 0.22702 0.0
H770 H 0.53006 0.34299 0.17592 0.0
H771 H 0.50372 0.33118 0.35267 0.0
H772 H 0.53786 0.33339 0.40455 0.0
H773 H 0.62418 0.42282 0.437 0.0
H774 H 0.62575 0.38792 0.39614 0.0
H775 H 0.57985 0.36939 0.52367 0.0
H776 H 0.57762 0.40415 0.56309 0.0
H777 H 0.56736 0.36707 0.40138 0.0
H778 H 0.62511 0.34593 0.52763 0.0
H779 H 0.66003 0.3482 0.57328 0.0
H780 H 0.68477 0.34468 0.39084 0.0
H781 H 0.64996 0.34269 0.34395 0.0
C782 C 0.55728 0.28374 0.26715 0.0
C783 C 0.5605 0.28686 0.2035 0.0
C784 C 0.56898 0.29424 0.31203 0.0
C785 C 0.58392 0.30811 0.29393 0.0
C786 C 0.58903 0.30917 0.23119 0.0
C787 C 0.57736 0.29859 0.18611 0.0
C788 C 0.58927 0.32523 0.3361 0.0
C789 C 0.60901 0.32699 0.36276 0.0
C790 C 0.57421 0.33993 0.34998 0.0
C791 C 0.55357 0.33951 0.3195 0.0
C792 C 0.55115 0.34243 0.25488 0.0
C793 C 0.53181 0.34098 0.22578 0.0
C794 C 0.51474 0.33687 0.26102 0.0
C795 C 0.51697 0.33432 0.32544 0.0
C796 C 0.53631 0.33567 0.35472 0.0
C797 C 0.61486 0.41117 0.45762 0.0
C798 C 0.60042 0.41641 0.50223 0.0
C799 C 0.61594 0.39117 0.43466 0.0
C800 C 0.60274 0.37616 0.45647 0.0
C801 C 0.59014 0.3808 0.50621 0.0
C802 C 0.58898 0.40074 0.52895 0.0
C803 C 0.59863 0.35756 0.41887 0.0
C804 C 0.57894 0.35565 0.39185 0.0
C805 C 0.61393 0.34311 0.4042 0.0
C806 C 0.63489 0.34434 0.43222 0.0
C807 C 0.63797 0.34584 0.49716 0.0
C808 C 0.65776 0.34703 0.52329 0.0
C809 C 0.67461 0.34664 0.48498 0.0
C810 C 0.6717 0.345 0.42046 0.0
C811 C 0.65195 0.34382 0.39409 0.0
H812 H 0.68992 0.34755 0.5053 0.0
H813 H 0.49978 0.33571 0.23841 0.0
H814 H 0.23903 0.45634 0.17251 0.0
H815 H 0.21537 0.45947 0.25749 0.0
H816 H 0.24821 0.51211 0.32758 0.0
H817 H 0.27169 0.50937 0.24194 0.0
H818 H 0.21725 0.48051 0.41472 0.0
H819 H 0.22321 0.53411 0.24848 0.0
H820 H 0.23047 0.54342 0.14016 0.0
H821 H 0.18728 0.49873 0.07232 0.0
H822 H 0.18006 0.48893 0.18041 0.0
H823 H 0.13195 0.54441 0.49909 0.0
H824 H 0.16516 0.53035 0.47117 0.0
H825 H 0.13623 0.49754 0.31785 0.0
H826 H 0.10327 0.51223 0.34371 0.0
H827 H 0.16744 0.51923 0.2813 0.0
H828 H 0.15494 0.473 0.44993 0.0
H829 H 0.14823 0.46246 0.55735 0.0
H830 H 0.20313 0.49229 0.62302 0.0
H831 H 0.21007 0.50321 0.51605 0.0
C832 C 0.24186 0.4679 0.20797 0.0
C833 C 0.25669 0.48301 0.19977 0.0
C834 C 0.22845 0.46956 0.25678 0.0
C835 C 0.22993 0.48623 0.29778 0.0
C836 C 0.24694 0.49913 0.29624 0.0
C837 C 0.26032 0.49756 0.2471 0.0
C838 C 0.21105 0.49391 0.32489 0.0
C839 C 0.20638 0.48922 0.38629 0.0
C840 C 0.19692 0.50496 0.28703 0.0
C841 C 0.2013 0.51066 0.22221 0.0
C842 C 0.2154 0.52618 0.21038 0.0
C843 C 0.21947 0.53156 0.14914 0.0
C844 C 0.20931 0.52169 0.0995 0.0
C845 C 0.19509 0.50639 0.1109 0.0
C846 C 0.19105 0.50087 0.17209 0.0
C847 C 0.13273 0.53432 0.45913 0.0
C848 C 0.11506 0.52955 0.42313 0.0
C849 C 0.15164 0.52603 0.44398 0.0
C850 C 0.15309 0.51275 0.39293 0.0
C851 C 0.1354 0.50769 0.3577 0.0
C852 C 0.11658 0.51604 0.37255 0.0
C853 C 0.17319 0.50579 0.37173 0.0
C854 C 0.17818 0.51066 0.31067 0.0
C855 C 0.18749 0.49507 0.41045 0.0
C856 C 0.18292 0.48909 0.47501 0.0
C857 C 0.16545 0.47754 0.48736 0.0
C858 C 0.16164 0.47144 0.54818 0.0
C859 C 0.17525 0.47672 0.59698 0.0
C860 C 0.19262 0.48821 0.58516 0.0
C861 C 0.1965 0.49434 0.52445 0.0
H862 H 0.17245 0.4718 0.64392 0.0
H863 H 0.21254 0.52585 0.0522 0.0
H864 H 0.99205 0.76937 0.04487 0.0
H865 H 0.99056 0.79297 0.95872 0.0
H866 H 0.95012 0.83225 0.05947 0.0
H867 H 0.94988 0.80768 0.14428 0.0
H868 H 0.95134 0.84233 0.93117 0.0
H869 H 0.99833 0.83532 0.11279 0.0
H870 H 0.02055 0.8151 0.18447 0.0
H871 H 0.055 0.79367 0.03027 0.0
H872 H 0.03309 0.81399 0.95782 0.0
H873 H 1.00031 0.93917 0.96521 0.0
H874 H 0.98409 0.90594 0.97863 0.0
H875 H 0.02697 0.87828 0.85505 0.0
H876 H 0.04281 0.9115 0.83931 0.0
H877 H 0.02415 0.8601 0.97411 0.0
H878 H 0.98075 0.88147 0.80298 0.0
H879 H 0.95793 0.9054 0.74578 0.0
H880 H 0.91523 0.90319 0.89319 0.0
H881 H 0.93794 0.87946 0.95178 0.0
C882 C 0.98165 0.78221 0.04757 0.0
C883 C 0.97205 0.78728 0.10335 0.0
C884 C 0.98084 0.79578 0.99776 0.0
C885 C 0.97115 0.81477 0.00448 0.0
C886 C 0.95815 0.81786 0.05423 0.0
C887 C 0.95837 0.80395 0.10328 0.0
C888 C 0.97989 0.83284 0.97457 0.0
C889 C 0.96727 0.8462 0.93981 0.0
C890 C 1.00064 0.83795 0.98681 0.0
C891 C 0.01402 0.82596 0.03002 0.0
C892 C 0.01065 0.82626 0.09429 0.0
C893 C 0.02317 0.81481 0.135 0.0
C894 C 0.03907 0.80298 0.11188 0.0
C895 C 0.04263 0.80278 0.04807 0.0
C896 C 0.03023 0.81432 0.00719 0.0
C897 C 1.00616 0.92606 0.94035 0.0
C898 C 0.02295 0.92794 0.90159 0.0
C899 C 0.9968 0.90716 0.94776 0.0
C900 C 1.00417 0.88987 0.91687 0.0
C901 C 0.021 0.89159 0.87867 0.0
C902 C 0.03023 0.9105 0.87067 0.0
C903 C 0.99572 0.86962 0.93003 0.0
C904 C 0.00841 0.85596 0.96297 0.0
C905 C 0.97497 0.8647 0.91741 0.0
C906 C 0.96113 0.87876 0.88197 0.0
C907 C 0.96656 0.88619 0.82344 0.0
C908 C 0.95363 0.8997 0.79071 0.0
C909 C 0.93516 0.90584 0.81587 0.0
C910 C 0.92955 0.89842 0.87375 0.0
C911 C 0.94243 0.88491 0.90669 0.0
H912 H 0.92518 0.91632 0.79049 0.0
H913 H 0.04868 0.79404 0.14345 0.0
H914 H 0.72256 0.94969 0.16149 0.0
H915 H 0.70081 0.93761 0.07676 0.0
H916 H 0.74368 0.95995 0.94457 0.0
H917 H 0.76378 0.97506 0.02862 0.0
H918 H 0.71305 0.97871 0.92283 0.0
H919 H 0.71991 0.90837 0.93882 0.0
H920 H 0.72455 0.87409 0.98422 0.0
H921 H 0.66631 0.87894 0.06949 0.0
H922 H 0.6614 0.91338 0.02563 0.0
H923 H 0.61975 0.99487 0.77262 0.0
H924 H 0.64912 0.97189 0.78608 0.0
H925 H 0.63575 0.96487 0.9801 0.0
H926 H 0.6063 0.98773 0.96684 0.0
H927 H 0.6558 0.9294 0.92466 0.0
H928 H 0.66227 1.00535 0.94342 0.0
H929 H 0.65779 0.03967 0.89754 0.0
H930 H 0.69312 0.02147 0.74148 0.0
H931 H 0.69754 0.98693 0.78622 0.0
C932 C 0.72746 0.9521 0.11446 0.0
C933 C 0.74423 0.96471 0.1024 0.0
C934 C 0.71523 0.94447 0.06548 0.0
C935 C 0.72016 0.94834 0.00343 0.0
C936 C 0.73915 0.95727 0.9919 0.0
C937 C 0.75082 0.96586 0.04068 0.0
C938 C 0.7035 0.94894 0.95462 0.0
C939 C 0.70106 0.96732 0.92138 0.0
C940 C 0.68754 0.93434 0.95176 0.0
C941 C 0.69027 0.91355 0.97862 0.0
C942 C 0.70811 0.9022 0.96751 0.0
C943 C 0.71079 0.88271 0.99299 0.0
C944 C 0.69573 0.87434 0.02966 0.0
C945 C 0.67794 0.88543 0.04091 0.0
C946 C 0.67517 0.90493 0.01555 0.0
C947 C 0.62289 0.98809 0.81786 0.0
C948 C 0.61122 0.99352 0.86927 0.0
C949 C 0.63942 0.97472 0.82515 0.0
C950 C 0.64466 0.96687 0.88415 0.0
C951 C 0.63184 0.97068 0.93409 0.0
C952 C 0.61519 0.98394 0.9267 0.0
C953 C 0.66557 0.95933 0.89792 0.0
C954 C 0.66856 0.9399 0.92407 0.0
C955 C 0.68229 0.97275 0.8938 0.0
C956 C 0.68005 0.99359 0.86772 0.0
C957 C 0.66902 0.00869 0.89924 0.0
C958 C 0.66648 0.02815 0.87344 0.0
C959 C 0.67513 0.03273 0.81655 0.0
C960 C 0.6864 0.01788 0.78546 0.0
C961 C 0.68891 0.99837 0.81098 0.0
H962 H 0.67314 0.04781 0.79663 0.0
H963 H 0.69784 0.85925 0.04936 0.0
H964 H 0.44706 0.74334 0.16295 0.0
H965 H 0.42274 0.7245 0.09576 0.0
H966 H 0.46248 0.73168 0.94111 0.0
H967 H 0.48661 0.7507 0.00756 0.0
H968 H 0.42098 0.72661 0.9027 0.0
H969 H 0.47322 0.69489 0.04317 0.0
H970 H 0.48851 0.69051 0.14872 0.0
H971 H 0.43104 0.66935 0.21403 0.0
H972 H 0.41529 0.67409 0.10907 0.0
H973 H 0.44559 0.6376 0.744 0.0
H974 H 0.43758 0.66958 0.79517 0.0
H975 H 0.4036 0.63698 0.93195 0.0
H976 H 0.41342 0.60476 0.88499 0.0
H977 H 0.43033 0.65683 0.98873 0.0
H978 H 0.3821 0.67737 0.83362 0.0
H979 H 0.36723 0.68283 0.72817 0.0
H980 H 0.41556 0.72446 0.68811 0.0
H981 H 0.43091 0.71906 0.79294 0.0
C982 C 0.45018 0.74155 0.11401 0.0
C983 C 0.46889 0.74801 0.09067 0.0
C984 C 0.43623 0.73094 0.07561 0.0
C985 C 0.44107 0.72633 0.01391 0.0
C986 C 0.45848 0.73506 0.98861 0.0
C987 C 0.47232 0.74585 0.02678 0.0
C988 C 0.43142 0.70873 0.98126 0.0
C989 C 0.42274 0.71129 0.92128 0.0
C990 C 0.43332 0.68885 0.00647 0.0
C991 C 0.44304 0.68504 0.06862 0.0
C992 C 0.46386 0.68931 0.08009 0.0
C993 C 0.4726 0.68678 0.13978 0.0
C994 C 0.46075 0.67968 0.18806 0.0
C995 C 0.44018 0.67491 0.17662 0.0
C996 C 0.43133 0.67754 0.11709 0.0
C997 C 0.43624 0.63717 0.78466 0.0
C998 C 0.43087 0.61844 0.81155 0.0
C999 C 0.43123 0.65564 0.81321 0.0
C1000 C 0.42004 0.65582 0.86796 0.0
C1001 C 0.41242 0.63727 0.89014 0.0
C1002 C 0.41794 0.61876 0.86268 0.0
C1003 C 0.4202 0.67435 0.90835 0.0
C1004 C 0.42746 0.67201 0.97016 0.0
C1005 C 0.41689 0.69432 0.8845 0.0
C1006 C 0.40768 0.69777 0.82132 0.0
C1007 C 0.38963 0.68761 0.80225 0.0
C1008 C 0.3811 0.69071 0.74256 0.0
C1009 C 0.39044 0.70398 0.70147 0.0
C1010 C 0.40832 0.71421 0.72003 0.0
C1011 C 0.41691 0.71118 0.77967 0.0
H1012 H 0.38382 0.70634 0.65526 0.0
H1013 H 0.46748 0.67789 0.23437 0.0
H1014 H 0.80827 0.56155 0.0996 0.0
H1015 H 0.82439 0.55514 0.00105 0.0
H1016 H 0.77513 0.5147 0.94516 0.0
H1017 H 0.75961 0.51999 0.04547 0.0
H1018 H 0.80855 0.49528 0.94082 0.0
H1019 H 0.78762 0.55774 0.85421 0.0
H1020 H 0.77976 0.59457 0.84809 0.0
H1021 H 0.84313 0.60873 0.88171 0.0
H1022 H 0.85137 0.57203 0.88904 0.0
H1023 H 0.89216 0.4677 0.75085 0.0
H1024 H 0.85758 0.48121 0.76633 0.0
H1025 H 0.88243 0.52608 0.89528 0.0
H1026 H 0.91672 0.51303 0.87924 0.0
H1027 H 0.85117 0.54198 0.81892 0.0
H1028 H 0.86583 0.4806 0.94834 0.0
H1029 H 0.87386 0.44388 0.95967 0.0
H1030 H 0.82114 0.42869 0.84498 0.0
H1031 H 0.81294 0.46538 0.83255 0.0
C1032 C 0.80071 0.55151 0.06602 0.0
C1033 C 0.78292 0.54093 0.08108 0.0
C1034 C 0.80973 0.54816 0.00896 0.0
C1035 C 0.80094 0.53447 0.96534 0.0
C1036 C 0.78217 0.52535 0.978 0.0
C1037 C 0.77328 0.52848 0.03543 0.0
C1038 C 0.81342 0.52664 0.914 0.0
C1039 C 0.81727 0.5055 0.91229 0.0
C1040 C 0.82488 0.53984 0.87663 0.0
C1041 C 0.82011 0.56204 0.8721 0.0
C1042 C 0.79988 0.56869 0.86062 0.0
C1043 C 0.79536 0.58956 0.85691 0.0
C1044 C 0.81093 0.60398 0.86446 0.0
C1045 C 0.83108 0.59755 0.87571 0.0
C1046 C 0.83569 0.57669 0.87947 0.0
C1047 C 0.89017 0.48056 0.78201 0.0
C1048 C 0.90701 0.48903 0.815 0.0
C1049 C 0.8705 0.4883 0.79053 0.0
C1050 C 0.86752 0.50463 0.8319 0.0
C1051 C 0.88443 0.51356 0.86282 0.0
C1052 C 0.90397 0.50583 0.85455 0.0
C1053 C 0.84691 0.5111 0.84988 0.0
C1054 C 0.84159 0.53185 0.84503 0.0
C1055 C 0.83403 0.49761 0.88132 0.0
C1056 C 0.83894 0.47565 0.88889 0.0
C1057 C 0.85604 0.46941 0.92526 0.0
C1058 C 0.86061 0.44862 0.93192 0.0
C1059 C 0.84805 0.43396 0.90288 0.0
C1060 C 0.83087 0.44006 0.86729 0.0
C1061 C 0.82627 0.46084 0.86041 0.0
H1062 H 0.8516 0.41787 0.90811 0.0
H1063 H 0.8074 0.62013 0.86161 0.0
H1064 H 0.0679 0.23987 0.94407 0.0
H1065 H 0.06343 0.20869 0.8827 0.0
H1066 H 1.00021 0.20634 0.93235 0.0
H1067 H 1.00498 0.23752 0.99576 0.0
H1068 H 0.01442 0.17008 0.94467 0.0
H1069 H 0.01822 0.21602 0.77397 0.0
H1070 H 0.03182 0.24342 0.7087 0.0
H1071 H 0.08756 0.20954 0.68886 0.0
H1072 H 0.0744 0.18205 0.75467 0.0
H1073 H 0.99157 0.08818 0.72436 0.0
H1074 H 0.99339 0.12189 0.77487 0.0
H1075 H 0.05911 0.11865 0.77819 0.0
H1076 H 0.05737 0.08456 0.72947 0.0
H1077 H 0.04244 0.15781 0.73608 0.0
H1078 H 0.03625 0.11085 0.90477 0.0
H1079 H 0.02063 0.0835 0.96554 0.0
H1080 H 0.9668 0.12026 0.98648 0.0
H1081 H 0.98174 0.14752 0.92369 0.0
C1082 C 0.0528 0.23318 0.94017 0.0
C1083 C 0.03669 0.24172 0.97401 0.0
C1084 C 0.05023 0.21512 0.90484 0.0
C1085 C 0.03137 0.2048 0.90139 0.0
C1086 C 0.01498 0.21373 0.93344 0.0
C1087 C 0.01759 0.23189 0.96904 0.0
C1088 C 0.02928 0.18422 0.86803 0.0
C1089 C 0.0202 0.16765 0.89848 0.0
C1090 C 0.03721 0.18037 0.8081 0.0
C1091 C 0.04539 0.19707 0.76976 0.0
C1092 C 0.03346 0.21451 0.75621 0.0
C1093 C 0.04107 0.23003 0.719 0.0
C1094 C 0.06056 0.22825 0.6948 0.0
C1095 C 0.07249 0.21094 0.70781 0.0
C1096 C 0.06496 0.19538 0.74503 0.0
C1097 C 1.00646 0.09459 0.73564 0.0
C1098 C 0.02433 0.0834 0.72247 0.0
C1099 C 1.00748 0.11397 0.7649 0.0
C1100 C 0.0264 0.12309 0.78092 0.0
C1101 C 0.04427 0.11215 0.76662 0.0
C1102 C 0.04326 0.09253 0.73873 0.0
C1103 C 0.02751 0.14388 0.81266 0.0
C1104 C 0.0365 0.16039 0.78202 0.0
C1105 C 0.01921 0.14774 0.87193 0.0
C1106 C 0.01001 0.13113 0.90853 0.0
C1107 C 0.02093 0.11297 0.92127 0.0
C1108 C 0.01219 0.09747 0.95617 0.0
C1109 C 0.99267 0.10007 0.97946 0.0
C1110 C 0.98186 0.11819 0.96799 0.0
C1111 C 0.99042 0.13364 0.93255 0.0
H1112 H 0.98596 0.08809 0.00665 0.0
H1113 H 0.0664 0.24025 0.66584 0.0
H1114 H 0.30353 1.00488 0.00743 0.0
H1115 H 0.33405 1.00027 0.94473 0.0
H1116 H 0.33885 0.06562 0.92547 0.0
H1117 H 0.3079 0.07004 0.98376 0.0
H1118 H 0.35308 0.05331 0.82875 0.0
H1119 H 0.37014 0.03117 0.03649 0.0
H1120 H 0.36697 0.01094 0.13233 0.0
H1121 H 0.37601 0.95556 0.02855 0.0
H1122 H 0.37902 0.9755 0.93199 0.0
H1123 H 0.46171 0.0567 0.77425 0.0
H1124 H 0.4288 0.05816 0.82645 0.0
H1125 H 0.41714 0.99552 0.7752 0.0
H1126 H 0.44971 0.9941 0.72184 0.0
H1127 H 0.4069 1.00517 0.90459 0.0
H1128 H 0.39094 0.02995 0.6963 0.0
H1129 H 0.40075 0.05208 0.60965 0.0
H1130 H 0.39393 0.10517 0.72532 0.0
H1131 H 0.38424 0.0833 0.813 0.0
C1132 C 0.3107 0.01824 0.98828 0.0
C1133 C 0.30286 0.03787 0.00158 0.0
C1134 C 0.32866 0.01566 0.9532 0.0
C1135 C 0.33982 0.0326 0.93095 0.0
C1136 C 0.3312 0.05206 0.94142 0.0
C1137 C 0.31322 0.0546 0.97541 0.0
C1138 C 0.36042 0.03045 0.89842 0.0
C1139 C 0.36471 0.04281 0.84636 0.0
C1140 C 0.37631 0.01683 0.91922 0.0
C1141 C 0.37453 1.0048 0.977 0.0
C1142 C 0.3713 0.01467 0.03411 0.0
C1143 C 0.36956 1.00326 0.08853 0.0
C1144 C 0.37121 0.98197 0.08648 0.0
C1145 C 0.37468 0.97205 0.03003 0.0
C1146 C 0.37642 0.9834 0.97546 0.0
C1147 C 0.45221 0.04319 0.77391 0.0
C1148 C 0.45873 0.0253 0.74308 0.0
C1149 C 0.43323 0.04403 0.80407 0.0
C1150 C 0.42009 0.02693 0.80559 0.0
C1151 C 0.42673 0.00898 0.77565 0.0
C1152 C 0.4455 0.00824 0.74455 0.0
C1153 C 0.39926 0.02799 0.83606 0.0
C1154 C 0.39504 0.0155 0.88736 0.0
C1155 C 0.38363 0.04172 0.8155 0.0
C1156 C 0.38694 0.05502 0.76117 0.0
C1157 C 0.39135 0.04637 0.70304 0.0
C1158 C 0.39698 0.05883 0.65386 0.0
C1159 C 0.39814 0.07998 0.66214 0.0
C1160 C 0.39316 0.08876 0.71916 0.0
C1161 C 0.38749 0.07635 0.76854 0.0
H1162 H 0.40284 0.08956 0.62427 0.0
H1163 H 0.36985 0.97316 0.12865 0.0
H1164 H 0.54414 0.30242 0.97493 0.0
H1165 H 0.54064 0.33298 0.91021 0.0
H1166 H 0.48363 0.34744 0.99547 0.0
H1167 H 0.48704 0.31642 0.06001 0.0
H1168 H 0.48174 0.35849 0.87286 0.0
H1169 H 0.52841 0.37054 0.04357 0.0
H1170 H 0.55815 0.36328 0.11334 0.0
H1171 H 0.59815 0.36855 0.95975 0.0
H1172 H 0.56861 0.37551 0.88876 0.0
H1173 H 0.48354 0.46441 0.78264 0.0
H1174 H 0.4827 0.43219 0.84013 0.0
H1175 H 0.5406 0.41482 0.76556 0.0
H1176 H 0.54162 0.4471 0.70835 0.0
H1177 H 0.54091 0.40562 0.88566 0.0
H1178 H 0.49342 0.39303 0.71481 0.0
H1179 H 0.46324 0.39988 0.64638 0.0
H1180 H 0.42432 0.39615 0.80305 0.0
H1181 H 0.45432 0.38954 0.87258 0.0
C1182 C 0.53053 0.31176 0.97867 0.0
C1183 C 0.51574 0.30668 0.02224 0.0
C1184 C 0.52865 0.32948 0.94204 0.0
C1185 C 0.51207 0.34305 0.9483 0.0
C1186 C 0.49664 0.33744 0.98939 0.0
C1187 C 0.4985 0.31954 0.02608 0.0
C1188 C 0.51163 0.36341 0.91456 0.0
C1189 C 0.49459 0.36888 0.87648 0.0
C1190 C 0.5284 0.37716 0.91796 0.0
C1191 C 0.54626 0.37338 0.96071 0.0
C1192 C 0.54354 0.37004 0.02457 0.0
C1193 C 0.56035 0.36597 0.06435 0.0
C1194 C 0.58002 0.3654 0.04096 0.0
C1195 C 0.58291 0.36897 0.97777 0.0
C1196 C 0.56613 0.37299 0.93774 0.0
C1197 C 0.49609 0.45374 0.778 0.0
C1198 C 0.51261 0.4586 0.74013 0.0
C1199 C 0.49555 0.43513 0.81099 0.0
C1200 C 0.51148 0.42062 0.8073 0.0
C1201 C 0.52803 0.42551 0.76971 0.0
C1202 C 0.52855 0.44408 0.73654 0.0
C1203 C 0.51113 0.40065 0.84316 0.0
C1204 C 0.52804 0.39526 0.88194 0.0
C1205 C 0.49418 0.38708 0.84069 0.0
C1206 C 0.47613 0.391 0.79898 0.0
C1207 C 0.47844 0.39383 0.73474 0.0
C1208 C 0.46137 0.39764 0.69574 0.0
C1209 C 0.44188 0.39851 0.72038 0.0
C1210 C 0.43943 0.39551 0.78405 0.0
C1211 C 0.45646 0.39171 0.82326 0.0
H1212 H 0.42869 0.40146 0.69011 0.0
H1213 H 0.59302 0.36223 0.07183 0.0
H1214 H 0.24672 0.52622 0.94022 0.0
H1215 H 0.21586 0.53011 0.87303 0.0
H1216 H 0.19299 0.47297 0.94164 0.0
H1217 H 0.22419 0.46824 0.00333 0.0
H1218 H 0.18046 0.47367 0.83529 0.0
H1219 H 0.1755 0.52778 0.99155 0.0
H1220 H 0.18681 0.55865 0.04948 0.0
H1221 H 0.19105 0.59143 0.87771 0.0
H1222 H 0.17967 0.56078 0.81897 0.0
H1223 H 0.07234 0.48934 0.79971 0.0
H1224 H 0.1074 0.48711 0.84259 0.0
H1225 H 0.12667 0.53179 0.71018 0.0
H1226 H 0.09165 0.53386 0.6662 0.0
H1227 H 0.14214 0.53915 0.83536 0.0
H1228 H 0.13715 0.48444 0.68715 0.0
H1229 H 0.12229 0.45338 0.6394 0.0
H1230 H 0.13448 0.42021 0.80856 0.0
H1231 H 0.14894 0.45123 0.85804 0.0
C1232 C 0.23535 0.51424 0.93964 0.0
C1233 C 0.23804 0.49706 0.97848 0.0
C1234 C 0.21734 0.51668 0.90206 0.0
C1235 C 0.20133 0.5022 0.90301 0.0
C1236 C 0.20466 0.4846 0.93939 0.0
C1237 C 0.22267 0.48197 0.97554 0.0
C1238 C 0.18107 0.50498 0.86735 0.0
C1239 C 0.1721 0.488 0.83635 0.0
C1240 C 0.16992 0.52369 0.86606 0.0
C1241 C 0.17707 0.54196 0.90099 0.0
C1242 C 0.17902 0.54155 0.96626 0.0
C1243 C 0.18537 0.559 -0.00082 0.0
C1244 C 0.18979 0.57693 0.96726 0.0
C1245 C 0.18771 0.5775 0.90236 0.0
C1246 C 0.18126 0.56013 0.86925 0.0
C1247 C 0.08399 0.49867 0.77938 0.0
C1248 C 0.07898 0.51173 0.72908 0.0
C1249 C 0.10413 0.49737 0.80408 0.0
C1250 C 0.11987 0.50926 0.77983 0.0
C1251 C 0.11491 0.52247 0.73002 0.0
C1252 C 0.09482 0.52354 0.7046 0.0
C1253 C 0.14145 0.50768 0.80613 0.0
C1254 C 0.15062 0.52487 0.83464 0.0
C1255 C 0.15254 0.48902 0.80658 0.0
C1256 C 0.14401 0.47027 0.77654 0.0
C1257 C 0.13648 0.4706 0.71449 0.0
C1258 C 0.12816 0.45298 0.68702 0.0
C1259 C 0.12744 0.43483 0.7209 0.0
C1260 C 0.13505 0.43428 0.78235 0.0
C1261 C 0.14331 0.45189 0.81013 0.0
H1262 H 0.12101 0.4212 0.69952 0.0
H1263 H 0.19474 0.59041 0.99283 0.0
H1264 H 0.03015 0.79881 0.33107 0.0
H1265 H 0.03461 0.83012 0.39483 0.0
H1266 H 0.96981 0.8414 0.38028 0.0
H1267 H 0.96526 0.81015 0.31912 0.0
H1268 H 0.99282 0.87555 0.34551 0.0
H1269 H 0.99107 0.82776 0.51629 0.0
H1270 H 1.00299 0.79792 0.57725 0.0
H1271 H 0.06226 0.82514 0.60238 0.0
H1272 H 0.05077 0.85504 0.54078 0.0
H1273 H 0.97957 0.96339 0.53349 0.0
H1274 H 0.97779 0.92941 0.48614 0.0
H1275 H 0.03839 0.91587 0.55927 0.0
H1276 H 0.03968 0.94954 0.60982 0.0
H1277 H 0.02015 0.88246 0.56222 0.0
H1278 H 0.0245 0.92923 0.39447 0.0
H1279 H 0.01555 0.95901 0.32894 0.0
H1280 H 0.95591 0.93404 0.29038 0.0
H1281 H 0.96442 0.90423 0.35636 0.0
C1282 C 0.01678 0.80756 0.34328 0.0
C1283 C 0.99731 0.80168 0.31959 0.0
C1284 C 0.01936 0.8257 0.37934 0.0
C1285 C 1.00257 0.83856 0.39227 0.0
C1286 C 0.98312 0.83212 0.37095 0.0
C1287 C 0.98052 0.81402 0.33603 0.0
C1288 C 1.00499 0.85914 0.42485 0.0
C1289 C 0.99862 0.87698 0.39317 0.0
C1290 C 0.01323 0.86147 0.48637 0.0
C1291 C 0.02013 0.84352 0.52331 0.0
C1292 C 1.00671 0.82729 0.53429 0.0
C1293 C 0.01337 0.81039 0.56908 0.0
C1294 C 0.03339 0.8096 0.59351 0.0
C1295 C 0.04677 0.82575 0.58333 0.0
C1296 C 0.04019 0.84269 0.54852 0.0
C1297 C 0.99253 0.9532 0.53991 0.0
C1298 C 0.00981 0.95955 0.57569 0.0
C1299 C 0.99161 0.93362 0.51195 0.0
C1300 C 0.00819 0.91975 0.51674 0.0
C1301 C 0.02529 0.92593 0.55382 0.0
C1302 C 0.02605 0.94539 0.58294 0.0
C1303 C 1.00769 0.89906 0.48316 0.0
C1304 C 0.01443 0.88118 0.51448 0.0
C1305 C 1.00023 0.8967 0.42053 0.0
C1306 C 0.99503 0.9146 0.38087 0.0
C1307 C 0.00943 0.93016 0.37236 0.0
C1308 C 1.00444 0.94703 0.33509 0.0
C1309 C 0.98516 0.94844 0.30565 0.0
C1310 C 0.97084 0.93294 0.31329 0.0
C1311 C 0.97573 0.91605 0.35058 0.0
H1312 H 0.98133 0.96151 0.27681 0.0
H1313 H 0.03852 0.79651 0.62045 0.0
H1314 H 0.71578 0.03257 0.23277 0.0
H1315 H 0.68524 0.03554 0.29593 0.0
H1316 H 0.70784 0.98669 0.41329 0.0
H1317 H 0.73816 0.98365 0.34945 0.0
H1318 H 0.66992 0.97932 0.39282 0.0
H1319 H 0.70375 0.04049 0.46084 0.0
H1320 H 0.72078 0.07378 0.44962 0.0
H1321 H 0.66674 0.0983 0.35886 0.0
H1322 H 0.64947 0.06506 0.36886 0.0
H1323 H 0.59386 0.02985 0.63113 0.0
H1324 H 0.62635 0.02938 0.57706 0.0
H1325 H 0.59826 0.99438 0.42764 0.0
H1326 H 0.56578 0.99483 0.48138 0.0
H1327 H 0.63993 0.0439 0.47035 0.0
H1328 H 0.63357 0.96361 0.35776 0.0
H1329 H 0.6184 0.92999 0.37922 0.0
H1330 H 0.6207 0.9432 0.57523 0.0
H1331 H 0.63613 0.97676 0.55501 0.0
C1332 C 0.71469 0.02304 0.2736 0.0
C1333 C 0.73017 0.00846 0.28708 0.0
C1334 C 0.69694 0.02459 0.3098 0.0
C1335 C 0.69376 0.01148 0.36089 0.0
C1336 C 0.70945 0.99715 0.37486 0.0
C1337 C 0.72717 0.99564 0.33873 0.0
C1338 C 0.67394 0.01195 0.39766 0.0
C1339 C 0.66347 0.99356 0.40931 0.0
C1340 C 0.66507 0.03026 0.42114 0.0
C1341 C 0.6754 0.05023 0.41506 0.0
C1342 C 0.69555 0.05294 0.43808 0.0
C1343 C 0.70524 0.0718 0.43202 0.0
C1344 C 0.69487 0.08813 0.4034 0.0
C1345 C 0.67477 0.08563 0.38094 0.0
C1346 C 0.66502 0.06679 0.38684 0.0
C1347 C 0.5945 0.02191 0.58691 0.0
C1348 C 0.57678 0.01227 0.5615 0.0
C1349 C 0.61328 0.02176 0.5555 0.0
C1350 C 0.61533 0.01172 0.49761 0.0
C1351 C 0.59764 1.00206 0.47227 0.0
C1352 C 0.57883 1.00236 0.50336 0.0
C1353 C 0.63575 0.01135 0.46407 0.0
C1354 C 0.64633 0.02971 0.45327 0.0
C1355 C 0.64488 0.993 0.44206 0.0
C1356 C 0.6358 0.97278 0.45474 0.0
C1357 C 0.6309 0.95931 0.40543 0.0
C1358 C 0.62224 0.94027 0.41739 0.0
C1359 C 0.61852 0.93449 0.47853 0.0
C1360 C 0.62352 0.94772 0.52787 0.0
C1361 C 0.63219 0.96676 0.51618 0.0
H1362 H 0.61181 0.91976 0.48767 0.0
H1363 H 0.70239 0.10272 0.39875 0.0
H1364 H 0.54448 0.72116 0.24337 0.0
H1365 H 0.54888 0.69099 0.31078 0.0
H1366 H 0.48778 0.69939 0.37569 0.0
H1367 H 0.48361 0.72957 0.30999 0.0
H1368 H 0.51055 0.6871 0.46986 0.0
H1369 H 0.50124 0.66216 0.25749 0.0
H1370 H 0.50975 0.6586 0.14675 0.0
H1371 H 0.56978 0.6371 0.19998 0.0
H1372 H 0.5616 0.64047 0.31091 0.0
H1373 H 0.49216 0.58846 0.59635 0.0
H1374 H 0.49174 0.62047 0.53803 0.0
H1375 H 0.54924 0.60413 0.45813 0.0
H1376 H 0.54873 0.57136 0.51272 0.0
H1377 H 0.53033 0.62129 0.37345 0.0
H1378 H 0.53992 0.64405 0.58531 0.0
H1379 H 0.53179 0.64661 0.69642 0.0
H1380 H 0.47323 0.6727 0.64736 0.0
H1381 H 0.48093 0.67013 0.53591 0.0
C1382 C 0.53221 0.7169 0.27329 0.0
C1383 C 0.51371 0.72802 0.27107 0.0
C1384 C 0.53458 0.69935 0.31127 0.0
C1385 C 0.51851 0.69233 0.34808 0.0
C1386 C 0.50048 0.70412 0.3481 0.0
C1387 C 0.49811 0.72154 0.31031 0.0
C1388 C 0.51998 0.67263 0.38529 0.0
C1389 C 0.51477 0.67271 0.44845 0.0
C1390 C 0.52592 0.65365 0.35889 0.0
C1391 C 0.53088 0.65179 0.29234 0.0
C1392 C 0.51629 0.65682 0.24547 0.0
C1393 C 0.52103 0.65481 0.18274 0.0
C1394 C 0.54032 0.64777 0.16638 0.0
C1395 C 0.55487 0.64261 0.21271 0.0
C1396 C 0.55017 0.64451 0.27549 0.0
C1397 C 0.5048 0.59174 0.56668 0.0
C1398 C 0.52057 0.57724 0.55995 0.0
C1399 C 0.50468 0.6103 0.5334 0.0
C1400 C 0.52077 0.6155 0.49408 0.0
C1401 C 0.53656 0.60094 0.4877 0.0
C1402 C 0.53634 0.58209 0.51945 0.0
C1403 C 0.52094 0.63563 0.45848 0.0
C1404 C 0.52636 0.63565 0.39542 0.0
C1405 C 0.51543 0.65475 0.48529 0.0
C1406 C 0.51095 0.65674 0.55227 0.0
C1407 C 0.52529 0.65028 0.59824 0.0
C1408 C 0.52076 0.65173 0.66126 0.0
C1409 C 0.50198 0.65976 0.67893 0.0
C1410 C 0.48775 0.66647 0.6336 0.0
C1411 C 0.49221 0.66505 0.57051 0.0
H1412 H 0.49848 0.66082 0.72773 0.0
H1413 H 0.54397 0.64623 0.1178 0.0
H1414 H 0.79271 0.50825 0.34703 0.0
H1415 H 0.82369 0.50633 0.41496 0.0
H1416 H 0.84219 0.56556 0.35034 0.0
H1417 H 0.81167 0.56724 0.28224 0.0
H1418 H 0.87301 0.54144 0.34344 0.0
H1419 H 0.82537 0.55493 0.50426 0.0
H1420 H 0.79532 0.54932 0.5683 0.0
H1421 H 0.81895 0.4906 0.62359 0.0
H1422 H 0.84899 0.4957 0.55903 0.0
H1423 H 0.9595 0.55848 0.54414 0.0
H1424 H 0.92559 0.56072 0.49326 0.0
H1425 H 0.9111 0.50073 0.56092 0.0
H1426 H 0.94482 0.49856 0.61279 0.0
H1427 H 0.87819 0.52386 0.5675 0.0
H1428 H 0.92518 0.50989 0.40605 0.0
H1429 H 0.95569 0.5154 0.34389 0.0
H1430 H 0.9332 0.57474 0.29042 0.0
H1431 H 0.90267 0.56969 0.35296 0.0
C1432 C 0.80312 0.52108 0.34872 0.0
C1433 C 0.79957 0.53795 0.30929 0.0
C1434 C 0.82096 0.51996 0.38751 0.0
C1435 C 0.83561 0.53579 0.38827 0.0
C1436 C 0.83146 0.553 0.35082 0.0
C1437 C 0.81382 0.55404 0.31207 0.0
C1438 C 0.85582 0.53415 0.42423 0.0
C1439 C 0.87398 0.53788 0.3927 0.0
C1440 C 0.85756 0.52885 0.48826 0.0
C1441 C 0.83931 0.52559 0.5261 0.0
C1442 C 0.82405 0.54072 0.52946 0.0
C1443 C 0.80704 0.53765 0.56599 0.0
C1444 C 0.80519 0.51958 0.5998 0.0
C1445 C 0.82037 0.50456 0.59722 0.0
C1446 C 0.83739 0.50753 0.56065 0.0
C1447 C 0.9491 0.54577 0.5486 0.0
C1448 C 0.95517 0.52828 0.5827 0.0
C1449 C 0.92963 0.54702 0.51899 0.0
C1450 C 0.91562 0.53075 0.52183 0.0
C1451 C 0.92143 0.51353 0.55741 0.0
C1452 C 0.94088 0.51229 0.58717 0.0
C1453 C 0.89522 0.53149 0.48679 0.0
C1454 C 0.87711 0.52747 0.51828 0.0
C1455 C 0.89346 0.53646 0.4226 0.0
C1456 C 0.91173 0.53949 0.38466 0.0
C1457 C 0.9268 0.52417 0.38136 0.0
C1458 C 0.94409 0.5272 0.34602 0.0
C1459 C 0.9464 0.54543 0.31335 0.0
C1460 C 0.9314 0.56064 0.31581 0.0
C1461 C 0.91409 0.55769 0.35116 0.0
H1462 H 0.9598 0.54775 0.28603 0.0
H1463 H 0.79203 0.51726 0.62816 0.0
loop_
_geom_bond_atom_site_label_1
_geom_bond_atom_site_label_2
_geom_bond_distance
_geom_bond_site_symmetry_2
_ccdc_geom_bond_type
H0 C7 0.929 . S
H1 C10 0.930 . S
H2 C12 0.929 . S
H3 C4 0.969 . S
C4 H3 0.969 . S
C4 O5 1.550 . S
C4 H6 0.973 . S
O5 C4 1.550 . S
O5 C11 1.412 . S
H6 C4 0.973 . S
C7 H0 0.929 . S
C7 C8 1.400 . S
C7 C9 1.364 . S
C8 C7 1.400 . S
C8 C12 1.377 . S
C9 C7 1.364 . S
C9 C10 1.374 . S
C10 H1 0.930 . S
C10 C9 1.374 . S
C10 C11 1.383 . S
C11 O5 1.412 . S
C11 C10 1.383 . S
C11 C12 1.394 . S
C12 H2 0.929 . S
C12 C8 1.377 . S
C12 C11 1.394 . S
H13 C20 0.929 . S
H14 C23 0.930 . S
H15 C25 0.929 . S
H16 C17 0.969 . S
C17 H16 0.969 . S
C17 O18 1.550 . S
C17 H19 0.973 . S
O18 C17 1.550 . S
O18 C24 1.412 . S
H19 C17 0.973 . S
C20 H13 0.929 . S
C20 C21 1.400 . S
C20 C22 1.364 . S
C21 C20 1.400 . S
C21 C25 1.377 . S
C22 C20 1.364 . S
C22 C23 1.374 . S
C23 H14 0.930 . S
C23 C22 1.374 . S
C23 C24 1.383 . S
C24 O18 1.412 . S
C24 C23 1.383 . S
C24 C25 1.394 . S
C25 H15 0.929 . S
C25 C21 1.377 . S
C25 C24 1.394 . S
H26 C33 0.929 . S
H27 C36 0.930 . S
H28 C38 0.929 . S
H29 C30 0.969 . S
C30 H29 0.969 . S
C30 O31 1.550 . S
C30 H32 0.973 . S
O31 C30 1.550 . S
O31 C37 1.412 . S
H32 C30 0.973 . S
C33 H26 0.929 . S
C33 C34 1.400 . S
C33 C35 1.364 . S
C34 C33 1.400 . S
C34 C38 1.377 . S
C35 C33 1.364 . S
C35 C36 1.374 . S
C36 H27 0.930 . S
C36 C35 1.374 . S
C36 C37 1.383 . S
C37 O31 1.412 . S
C37 C36 1.383 . S
C37 C38 1.394 . S
C38 H28 0.929 . S
C38 C34 1.377 . S
C38 C37 1.394 . S
H39 C46 0.929 . S
H40 C49 0.930 . S
H41 C51 0.929 . S
H42 C43 0.969 . S
C43 H42 0.969 . S
C43 O44 1.550 . S
C43 H45 0.973 . S
O44 C43 1.550 . S
O44 C50 1.412 . S
H45 C43 0.973 . S
C46 H39 0.929 . S
C46 C47 1.400 . S
C46 C48 1.364 . S
C47 C46 1.400 . S
C47 C51 1.377 . S
C48 C46 1.364 . S
C48 C49 1.374 . S
C49 H40 0.930 . S
C49 C48 1.374 . S
C49 C50 1.383 . S
C50 O44 1.412 . S
C50 C49 1.383 . S
C50 C51 1.394 . S
C51 H41 0.929 . S
C51 C47 1.377 . S
C51 C50 1.394 . S
H52 C59 0.929 . S
H53 C62 0.930 . S
H54 C64 0.929 1_556 S
H55 C56 0.969 . S
C56 H55 0.969 . S
C56 O57 1.550 . S
C56 H58 0.973 . S
O57 C56 1.550 . S
O57 C63 1.412 . S
H58 C56 0.973 . S
C59 H52 0.929 . S
C59 C60 1.400 . S
C59 C61 1.364 . S
C60 C59 1.400 . S
C60 C64 1.377 . S
C61 C59 1.364 . S
C61 C62 1.374 . S
C62 H53 0.930 . S
C62 C61 1.374 . S
C62 C63 1.383 . S
C63 O57 1.412 . S
C63 C62 1.383 . S
C63 C64 1.394 . S
C64 H54 0.929 1_554 S
C64 C60 1.377 . S
C64 C63 1.394 . S
H65 C72 0.929 . S
H66 C75 0.930 . S
H67 C77 0.929 . S
H68 C69 0.969 . S
C69 H68 0.969 . S
C69 O70 1.550 . S
C69 H71 0.973 . S
O70 C69 1.550 . S
O70 C76 1.412 . S
H71 C69 0.973 . S
C72 H65 0.929 . S
C72 C73 1.400 1_554 S
C72 C74 1.364 . S
C73 C72 1.400 1_556 S
C73 C77 1.377 . S
C74 C72 1.364 . S
C74 C75 1.374 . S
C75 H66 0.930 . S
C75 C74 1.374 . S
C75 C76 1.383 . S
C76 O70 1.412 . S
C76 C75 1.383 . S
C76 C77 1.394 1_554 S
C77 H67 0.929 . S
C77 C73 1.377 . S
C77 C76 1.394 1_556 S
H78 C85 0.929 . S
H79 C88 0.930 . S
H80 C90 0.929 . S
H81 C82 0.969 . S
C82 H81 0.969 . S
C82 O83 1.550 . S
C82 H84 0.973 . S
O83 C82 1.550 . S
O83 C89 1.412 . S
H84 C82 0.973 . S
C85 H78 0.929 . S
C85 C86 1.400 . S
C85 C87 1.364 1_556 S
C86 C85 1.400 . S
C86 C90 1.377 . S
C87 C85 1.364 1_554 S
C87 C88 1.374 . S
C88 H79 0.930 . S
C88 C87 1.374 . S
C88 C89 1.383 . S
C89 O83 1.412 . S
C89 C88 1.383 . S
C89 C90 1.394 1_554 S
C90 H80 0.929 . S
C90 C86 1.377 . S
C90 C89 1.394 1_556 S
H91 C98 0.929 . S
H92 C101 0.930 . S
H93 C103 0.929 1_556 S
H94 C95 0.969 . S
C95 H94 0.969 . S
C95 O96 1.550 . S
C95 H97 0.973 . S
O96 C95 1.550 . S
O96 C102 1.412 . S
H97 C95 0.973 . S
C98 H91 0.929 . S
C98 C99 1.400 1_554 S
C98 C100 1.364 . S
C99 C98 1.400 1_556 S
C99 C103 1.377 1_556 S
C100 C98 1.364 . S
C100 C101 1.374 . S
C101 H92 0.930 . S
C101 C100 1.374 . S
C101 C102 1.383 . S
C102 O96 1.412 . S
C102 C101 1.383 . S
C102 C103 1.394 . S
C103 H93 0.929 1_554 S
C103 C99 1.377 1_554 S
C103 C102 1.394 . S
Eu104 C113 2.828 . S
Eu104 O115 2.392 . S
Eu104 O117 2.418 1_545 S
Eu104 O122 2.373 1_655 S
Eu104 O125 2.488 . S
Eu104 O126 2.471 1_655 S
Eu104 O127 2.349 1_655 S
Eu105 O114 2.371 1_465 S
Eu105 O118 2.488 . S
Eu105 O119 2.471 . S
Eu105 O120 2.349 . S
Eu105 O123 2.392 1_565 S
Eu105 O124 2.418 1_565 S
Eu105 C134 2.828 . S
C106 O124 1.244 . S
C106 O127 1.265 . S
C107 C108 1.379 . S
C107 C111 1.373 1_455 S
C107 C113 1.505 1_455 S
C108 C107 1.379 . S
C108 C110 1.369 . S
C108 H136 0.930 . S
C109 C111 1.383 . S
C109 C112 1.382 1_655 S
C109 H137 0.930 . S
C110 C108 1.369 . S
C110 C112 1.392 . S
C110 H138 0.930 . S
C111 C107 1.373 1_655 S
C111 C109 1.383 . S
C111 H139 0.931 . S
C112 C109 1.382 1_455 S
C112 C110 1.392 . S
C113 Eu104 2.828 . S
C113 C107 1.505 1_655 S
C113 O125 1.249 . S
C113 O126 1.244 1_655 S
O114 Eu105 2.371 1_645 S
O114 C116 1.261 . S
O115 Eu104 2.392 . S
O115 C116 1.242 . S
C116 O114 1.261 . S
C116 O115 1.242 . S
O117 Eu104 2.418 1_565 S
O117 C121 1.244 . S
O118 Eu105 2.488 . S
O118 C134 1.249 . S
O119 Eu105 2.471 . S
O119 C134 1.244 . S
O120 Eu105 2.349 . S
O120 C121 1.265 1_455 S
C121 O117 1.244 . S
C121 O120 1.265 1_655 S
O122 Eu104 2.373 1_455 S
O122 C135 1.258 . S
O123 Eu105 2.392 1_545 S
O123 C135 1.242 . S
O124 Eu105 2.418 1_545 S
O124 C106 1.244 . S
O125 Eu104 2.488 . S
O125 C113 1.249 . S
O126 Eu104 2.471 1_455 S
O126 C113 1.244 1_455 S
O127 Eu104 2.349 1_455 S
O127 C106 1.265 . S
C128 C129 1.379 . S
C128 C132 1.373 . S
C128 C134 1.505 . S
C129 C128 1.379 . S
C129 C131 1.369 1_455 S
C129 H140 0.930 1_455 S
C130 C132 1.383 . S
C130 C133 1.382 . S
C130 H141 0.930 1_556 S
C131 C129 1.369 1_655 S
C131 C133 1.392 1_655 S
C131 H142 0.930 . S
C132 C128 1.373 . S
C132 C130 1.383 . S
C132 H143 0.931 . S
C133 C130 1.382 . S
C133 C131 1.392 1_455 S
C134 Eu105 2.828 . S
C134 O118 1.249 . S
C134 O119 1.244 . S
C134 C128 1.505 . S
C135 O122 1.258 . S
C135 O123 1.242 . S
H136 C108 0.930 . S
H137 C109 0.930 . S
H138 C110 0.930 . S
H139 C111 0.931 . S
H140 C129 0.930 1_655 S
H141 C130 0.930 1_554 S
H142 C131 0.930 . S
H143 C132 0.931 . S
Eu144 C153 2.828 . S
Eu144 O155 2.392 . S
Eu144 O157 2.418 . S
Eu144 O162 2.373 . S
Eu144 O165 2.488 . S
Eu144 O166 2.471 . S
Eu144 O167 2.349 1_545 S
Eu145 O154 2.373 1_565 S
Eu145 O158 2.488 . S
Eu145 O159 2.471 1_565 S
Eu145 O160 2.349 1_565 S
Eu145 O163 2.392 . S
Eu145 O164 2.418 . S
Eu145 C174 2.828 . S
C146 O164 1.244 . S
C146 O167 1.265 . S
C147 C148 1.379 . S
C147 C151 1.373 . S
C147 C153 1.505 . S
C148 C147 1.379 . S
C148 C150 1.369 . S
C148 H176 0.930 1_545 S
C149 C151 1.383 . S
C149 C152 1.382 . S
C149 H177 0.930 . S
C150 C148 1.369 . S
C150 C152 1.392 . S
C150 H178 0.930 1_545 S
C151 C147 1.373 . S
C151 C149 1.383 . S
C151 H179 0.931 . S
C152 C149 1.382 . S
C152 C150 1.392 . S
C153 Eu144 2.828 . S
C153 C147 1.505 . S
C153 O165 1.249 . S
C153 O166 1.244 . S
O154 Eu145 2.373 1_545 S
O154 C156 1.258 . S
O155 Eu144 2.392 . S
O155 C156 1.242 . S
C156 O154 1.258 . S
C156 O155 1.242 . S
O157 Eu144 2.418 . S
O157 C161 1.244 . S
O158 Eu145 2.488 . S
O158 C174 1.249 . S
O159 Eu145 2.471 1_545 S
O159 C174 1.244 1_545 S
O160 Eu145 2.349 1_545 S
O160 C161 1.265 . S
C161 O157 1.244 . S
C161 O160 1.265 . S
O162 Eu144 2.373 . S
O162 C175 1.230 1_545 S
O163 Eu145 2.392 . S
O163 C175 1.260 . S
O164 Eu145 2.418 . S
O164 C146 1.244 . S
O165 Eu144 2.488 . S
O165 C153 1.249 . S
O166 Eu144 2.471 . S
O166 C153 1.244 . S
O167 Eu144 2.349 1_565 S
O167 C146 1.265 . S
C168 C169 1.382 1_565 S
C168 C172 1.371 . S
C168 C174 1.505 . S
C169 C168 1.382 1_545 S
C169 C171 1.369 . S
C169 H180 0.930 . S
C170 C172 1.383 . S
C170 C173 1.382 1_565 S
C170 H181 0.930 . S
C171 C169 1.369 . S
C171 C173 1.392 . S
C171 H182 0.930 . S
C172 C168 1.371 . S
C172 C170 1.383 . S
C172 H183 0.931 . S
C173 C170 1.382 1_545 S
C173 C171 1.392 . S
C174 Eu145 2.828 . S
C174 O158 1.249 . S
C174 O159 1.244 1_565 S
C174 C168 1.505 . S
C175 O162 1.230 1_565 S
C175 O163 1.260 . S
H176 C148 0.930 1_565 S
H177 C149 0.930 . S
H178 C150 0.930 1_565 S
H179 C151 0.931 . S
H180 C169 0.930 . S
H181 C170 0.930 . S
H182 C171 0.930 . S
H183 C172 0.931 . S
Eu184 C193 2.828 . S
Eu184 O195 2.392 . S
Eu184 O197 2.418 . S
Eu184 O202 2.373 . S
Eu184 O205 2.488 . S
Eu184 O206 2.471 . S
Eu184 O207 2.349 . S
Eu185 O194 2.373 . S
Eu185 O198 2.488 . S
Eu185 O199 2.471 . S
Eu185 O200 2.349 . S
Eu185 O203 2.392 . S
Eu185 O204 2.418 . S
Eu185 C214 2.828 . S
C186 O204 1.244 . S
C186 O207 1.265 . S
C187 C188 1.379 . S
C187 C191 1.373 . S
C187 C193 1.505 . S
C188 C187 1.379 . S
C188 C190 1.369 . S
C188 H216 0.930 . S
C189 C191 1.383 . S
C189 C192 1.382 . S
C189 H217 0.930 . S
C190 C188 1.369 . S
C190 C192 1.392 . S
C190 H218 0.930 . S
C191 C187 1.373 . S
C191 C189 1.383 . S
C191 H219 0.931 . S
C192 C189 1.382 . S
C192 C190 1.392 . S
C193 Eu184 2.828 . S
C193 C187 1.505 . S
C193 O205 1.249 . S
C193 O206 1.244 . S
O194 Eu185 2.373 . S
O194 C196 1.258 . S
O195 Eu184 2.392 . S
O195 C196 1.242 . S
C196 O194 1.258 . S
C196 O195 1.242 . S
O197 Eu184 2.418 . S
O197 C201 1.244 . S
O198 Eu185 2.488 . S
O198 C214 1.249 . S
O199 Eu185 2.471 . S
O199 C214 1.244 . S
O200 Eu185 2.349 . S
O200 C201 1.265 . S
C201 O197 1.244 . S
C201 O200 1.265 . S
O202 Eu184 2.373 . S
O202 C215 1.258 . S
O203 Eu185 2.392 . S
O203 C215 1.242 . S
O204 Eu185 2.418 . S
O204 C186 1.244 . S
O205 Eu184 2.488 . S
O205 C193 1.249 . S
O206 Eu184 2.471 . S
O206 C193 1.244 . S
O207 Eu184 2.349 . S
O207 C186 1.265 . S
C208 C209 1.379 . S
C208 C212 1.373 . S
C208 C214 1.505 . S
C209 C208 1.379 . S
C209 C211 1.369 . S
C209 H220 0.930 . S
C210 C212 1.383 . S
C210 C213 1.382 . S
C210 H221 0.930 . S
C211 C209 1.369 . S
C211 C213 1.392 . S
C211 H222 0.930 . S
C212 C208 1.373 . S
C212 C210 1.383 . S
C212 H223 0.931 . S
C213 C210 1.382 . S
C213 C211 1.392 . S
C214 Eu185 2.828 . S
C214 O198 1.249 . S
C214 O199 1.244 . S
C214 C208 1.505 . S
C215 O202 1.258 . S
C215 O203 1.242 . S
H216 C188 0.930 . S
H217 C189 0.930 . S
H218 C190 0.930 . S
H219 C191 0.931 . S
H220 C209 0.930 . S
H221 C210 0.930 . S
H222 C211 0.930 . S
H223 C212 0.931 . S
Eu224 C233 2.828 . S
Eu224 O235 2.392 . S
Eu224 O237 2.418 1_455 S
Eu224 O242 2.373 . S
Eu224 O245 2.488 . S
Eu224 O246 2.471 . S
Eu224 O247 2.349 . S
Eu225 O234 2.373 . S
Eu225 O238 2.488 . S
Eu225 O239 2.471 . S
Eu225 O240 2.349 . S
Eu225 O243 2.392 1_655 S
Eu225 O244 2.418 1_655 S
Eu225 C254 2.828 . S
C226 O244 1.244 . S
C226 O247 1.265 . S
C227 C228 1.379 . S
C227 C231 1.373 . S
C227 C233 1.505 . S
C228 C227 1.379 . S
C228 C230 1.369 . S
C228 H256 0.930 . S
C229 C231 1.383 . S
C229 C232 1.382 . S
C229 H257 0.930 . S
C230 C228 1.369 . S
C230 C232 1.392 . S
C230 H258 0.930 . S
C231 C227 1.373 . S
C231 C229 1.383 . S
C231 H259 0.931 . S
C232 C229 1.382 . S
C232 C230 1.392 . S
C233 Eu224 2.828 . S
C233 C227 1.505 . S
C233 O245 1.249 . S
C233 O246 1.244 . S
O234 Eu225 2.373 . S
O234 C236 1.258 1_655 S
O235 Eu224 2.392 . S
O235 C236 1.242 . S
C236 O234 1.258 1_455 S
C236 O235 1.242 . S
O237 Eu224 2.418 1_655 S
O237 C241 1.244 . S
O238 Eu225 2.488 . S
O238 C254 1.249 . S
O239 Eu225 2.471 . S
O239 C254 1.244 . S
O240 Eu225 2.349 . S
O240 C241 1.265 . S
C241 O237 1.244 . S
C241 O240 1.265 . S
O242 Eu224 2.373 . S
O242 C255 1.258 . S
O243 Eu225 2.392 1_455 S
O243 C255 1.242 . S
O244 Eu225 2.418 1_455 S
O244 C226 1.244 . S
O245 Eu224 2.488 . S
O245 C233 1.249 . S
O246 Eu224 2.471 . S
O246 C233 1.244 . S
O247 Eu224 2.349 . S
O247 C226 1.265 . S
C248 C249 1.379 . S
C248 C252 1.373 . S
C248 C254 1.505 . S
C249 C248 1.379 . S
C249 C251 1.369 . S
C249 H260 0.930 . S
C250 C252 1.383 . S
C250 C253 1.382 . S
C250 H261 0.930 . S
C251 C249 1.369 . S
C251 C253 1.392 . S
C251 H262 0.930 . S
C252 C248 1.373 . S
C252 C250 1.383 . S
C252 H263 0.931 . S
C253 C250 1.382 . S
C253 C251 1.392 . S
C254 Eu225 2.828 . S
C254 O238 1.249 . S
C254 O239 1.244 . S
C254 C248 1.505 . S
C255 O242 1.258 . S
C255 O243 1.242 . S
H256 C228 0.930 . S
H257 C229 0.930 . S
H258 C230 0.930 . S
H259 C231 0.931 . S
H260 C249 0.930 . S
H261 C250 0.930 . S
H262 C251 0.930 . S
H263 C252 0.931 . S
H264 C282 0.951 . S
H265 C284 0.951 . S
H266 C286 0.950 . S
H267 C287 0.950 . S
H268 C289 0.950 . S
H269 C292 0.950 . S
H270 C293 0.950 . S
H271 C295 0.950 . S
H272 C296 0.950 . S
H273 C297 0.951 . S
H274 C299 0.951 . S
H275 C301 0.950 . S
H276 C302 0.950 . S
H277 C304 0.950 . S
H278 C307 0.950 . S
H279 C308 0.950 . S
H280 C310 0.950 . S
H281 C311 0.950 . S
C282 H264 0.951 . S
C282 C283 1.366 . S
C282 C284 1.388 . S
C283 C282 1.366 . S
C283 C287 1.385 . S
C284 H265 0.951 . S
C284 C282 1.388 . S
C284 C285 1.366 . S
C285 C284 1.366 . S
C285 C286 1.414 . S
C285 C288 1.499 . S
C286 H266 0.950 . S
C286 C285 1.414 . S
C286 C287 1.374 . S
C287 H267 0.950 . S
C287 C283 1.385 . S
C287 C286 1.374 . S
C288 C285 1.499 . S
C288 C289 1.373 . S
C288 C290 1.389 . S
C289 H268 0.950 . S
C289 C288 1.373 . S
C289 C305 1.377 . S
C290 C288 1.389 . S
C290 C291 1.524 . S
C290 C304 1.377 . S
C291 C290 1.524 . S
C291 C292 1.397 . S
C291 C296 1.363 . S
C292 H269 0.950 . S
C292 C291 1.397 . S
C292 C293 1.334 . S
C293 H270 0.950 . S
C293 C292 1.334 . S
C293 C294 1.287 . S
C294 C293 1.287 . S
C294 C295 1.524 . S
C294 H313 0.913 . S
C295 H271 0.950 . S
C295 C294 1.524 . S
C295 C296 1.415 . S
C296 H272 0.950 . S
C296 C291 1.363 . S
C296 C295 1.415 . S
C297 H273 0.951 . S
C297 C298 1.366 . S
C297 C299 1.388 . S
C298 C297 1.366 . S
C298 C302 1.385 . S
C299 H274 0.951 . S
C299 C297 1.388 . S
C299 C300 1.366 . S
C300 C299 1.366 . S
C300 C301 1.414 . S
C300 C303 1.499 . S
C301 H275 0.950 . S
C301 C300 1.414 . S
C301 C302 1.374 . S
C302 H276 0.950 . S
C302 C298 1.385 . S
C302 C301 1.374 . S
C303 C300 1.499 . S
C303 C304 1.373 . S
C303 C305 1.389 . S
C304 H277 0.950 . S
C304 C290 1.377 . S
C304 C303 1.373 . S
C305 C289 1.377 . S
C305 C303 1.389 . S
C305 C306 1.524 . S
C306 C305 1.524 . S
C306 C307 1.397 1_545 S
C306 C311 1.363 . S
C307 H278 0.950 . S
C307 C306 1.397 1_565 S
C307 C308 1.334 . S
C308 H279 0.950 . S
C308 C307 1.334 . S
C308 C309 1.287 . S
C309 C308 1.287 . S
C309 C310 1.524 . S
C309 H312 0.999 . S
C310 H280 0.950 . S
C310 C309 1.524 . S
C310 C311 1.415 1_565 S
C311 H281 0.950 . S
C311 C306 1.363 . S
C311 C310 1.415 1_545 S
H312 C309 0.999 . S
H313 C294 0.913 . S
H314 C332 0.951 . S
H315 C334 0.951 . S
H316 C336 0.950 . S
H317 C337 0.950 . S
H318 C339 0.950 . S
H319 C342 0.950 . S
H320 C343 0.950 . S
H321 C345 0.950 . S
H322 C346 0.950 . S
H323 C347 0.951 . S
H324 C349 0.951 . S
H325 C351 0.950 . S
H326 C352 0.950 . S
H327 C354 0.950 . S
H328 C357 0.950 . S
H329 C358 0.950 . S
H330 C360 0.950 . S
H331 C361 0.950 . S
C332 H314 0.951 . S
C332 C333 1.366 . S
C332 C334 1.388 . S
C333 C332 1.366 . S
C333 C337 1.385 . S
C334 H315 0.951 . S
C334 C332 1.388 . S
C334 C335 1.366 . S
C335 C334 1.366 . S
C335 C336 1.414 . S
C335 C338 1.499 . S
C336 H316 0.950 . S
C336 C335 1.414 . S
C336 C337 1.374 . S
C337 H317 0.950 . S
C337 C333 1.385 . S
C337 C336 1.374 . S
C338 C335 1.499 . S
C338 C339 1.373 . S
C338 C340 1.389 . S
C339 H318 0.950 . S
C339 C338 1.373 . S
C339 C355 1.377 . S
C340 C338 1.389 . S
C340 C341 1.524 . S
C340 C354 1.377 . S
C341 C340 1.524 . S
C341 C342 1.397 . S
C341 C346 1.363 . S
C342 H319 0.950 . S
C342 C341 1.397 . S
C342 C343 1.334 . S
C343 H320 0.950 . S
C343 C342 1.334 . S
C343 C344 1.287 . S
C344 C343 1.287 . S
C344 C345 1.524 . S
C344 H363 0.913 . S
C345 H321 0.950 . S
C345 C344 1.524 . S
C345 C346 1.415 . S
C346 H322 0.950 . S
C346 C341 1.363 . S
C346 C345 1.415 . S
C347 H323 0.951 . S
C347 C348 1.366 . S
C347 C349 1.388 . S
C348 C347 1.366 . S
C348 C352 1.385 . S
C349 H324 0.951 . S
C349 C347 1.388 . S
C349 C350 1.366 . S
C350 C349 1.366 . S
C350 C351 1.414 . S
C350 C353 1.499 . S
C351 H325 0.950 . S
C351 C350 1.414 . S
C351 C352 1.374 . S
C352 H326 0.950 . S
C352 C348 1.385 . S
C352 C351 1.374 . S
C353 C350 1.499 . S
C353 C354 1.373 . S
C353 C355 1.389 . S
C354 H327 0.950 . S
C354 C340 1.377 . S
C354 C353 1.373 . S
C355 C339 1.377 . S
C355 C353 1.389 . S
C355 C356 1.524 . S
C356 C355 1.524 . S
C356 C357 1.397 . S
C356 C361 1.363 . S
C357 H328 0.950 . S
C357 C356 1.397 . S
C357 C358 1.334 . S
C358 H329 0.950 . S
C358 C357 1.334 . S
C358 C359 1.287 . S
C359 C358 1.287 . S
C359 C360 1.524 . S
C359 H362 0.999 . S
C360 H330 0.950 . S
C360 C359 1.524 . S
C360 C361 1.415 . S
C361 H331 0.950 . S
C361 C356 1.363 . S
C361 C360 1.415 . S
H362 C359 0.999 . S
H363 C344 0.913 . S
H364 C382 0.951 . S
H365 C384 0.951 . S
H366 C386 0.950 . S
H367 C387 0.950 . S
H368 C389 0.950 . S
H369 C392 0.950 . S
H370 C393 0.950 . S
H371 C395 0.950 . S
H372 C396 0.950 . S
H373 C397 0.951 . S
H374 C399 0.951 . S
H375 C401 0.950 . S
H376 C402 0.950 . S
H377 C404 0.950 . S
H378 C407 0.950 . S
H379 C408 0.950 . S
H380 C410 0.950 . S
H381 C411 0.950 . S
C382 H364 0.951 . S
C382 C383 1.366 . S
C382 C384 1.388 . S
C383 C382 1.366 . S
C383 C387 1.385 . S
C384 H365 0.951 . S
C384 C382 1.388 . S
C384 C385 1.366 . S
C385 C384 1.366 . S
C385 C386 1.414 . S
C385 C388 1.499 . S
C386 H366 0.950 . S
C386 C385 1.414 . S
C386 C387 1.374 . S
C387 H367 0.950 . S
C387 C383 1.385 . S
C387 C386 1.374 . S
C388 C385 1.499 . S
C388 C389 1.373 . S
C388 C390 1.389 . S
C389 H368 0.950 . S
C389 C388 1.373 . S
C389 C405 1.377 . S
C390 C388 1.389 . S
C390 C391 1.524 . S
C390 C404 1.377 . S
C391 C390 1.524 . S
C391 C392 1.397 . S
C391 C396 1.363 . S
C392 H369 0.950 . S
C392 C391 1.397 . S
C392 C393 1.334 . S
C393 H370 0.950 . S
C393 C392 1.334 . S
C393 C394 1.287 . S
C394 C393 1.287 . S
C394 C395 1.524 . S
C394 H413 0.913 . S
C395 H371 0.950 . S
C395 C394 1.524 . S
C395 C396 1.415 . S
C396 H372 0.950 . S
C396 C391 1.363 . S
C396 C395 1.415 . S
C397 H373 0.951 . S
C397 C398 1.366 . S
C397 C399 1.388 . S
C398 C397 1.366 . S
C398 C402 1.385 . S
C399 H374 0.951 . S
C399 C397 1.388 . S
C399 C400 1.366 . S
C400 C399 1.366 . S
C400 C401 1.414 . S
C400 C403 1.499 . S
C401 H375 0.950 . S
C401 C400 1.414 . S
C401 C402 1.374 . S
C402 H376 0.950 . S
C402 C398 1.385 . S
C402 C401 1.374 . S
C403 C400 1.499 . S
C403 C404 1.373 . S
C403 C405 1.389 . S
C404 H377 0.950 . S
C404 C390 1.377 . S
C404 C403 1.373 . S
C405 C389 1.377 . S
C405 C403 1.389 . S
C405 C406 1.524 . S
C406 C405 1.524 . S
C406 C407 1.397 . S
C406 C411 1.363 . S
C407 H378 0.950 . S
C407 C406 1.397 . S
C407 C408 1.334 . S
C408 H379 0.950 . S
C408 C407 1.334 . S
C408 C409 1.287 . S
C409 C408 1.287 . S
C409 C410 1.524 . S
C409 H412 0.999 . S
C410 H380 0.950 . S
C410 C409 1.524 . S
C410 C411 1.415 . S
C411 H381 0.950 . S
C411 C406 1.363 . S
C411 C410 1.415 . S
H412 C409 0.999 . S
H413 C394 0.913 . S
H414 C432 0.951 . S
H415 C434 0.951 . S
H416 C436 0.950 . S
H417 C437 0.950 . S
H418 C439 0.950 . S
H419 C442 0.950 . S
H420 C443 0.950 . S
H421 C445 0.950 . S
H422 C446 0.950 . S
H423 C447 0.951 1_655 S
H424 C449 0.951 . S
H425 C451 0.950 . S
H426 C452 0.950 . S
H427 C454 0.950 . S
H428 C457 0.950 . S
H429 C458 0.950 . S
H430 C460 0.950 . S
H431 C461 0.950 . S
C432 H414 0.951 . S
C432 C433 1.366 . S
C432 C434 1.388 . S
C433 C432 1.366 . S
C433 C437 1.385 . S
C434 H415 0.951 . S
C434 C432 1.388 . S
C434 C435 1.366 . S
C435 C434 1.366 . S
C435 C436 1.414 . S
C435 C438 1.499 . S
C436 H416 0.950 . S
C436 C435 1.414 . S
C436 C437 1.374 . S
C437 H417 0.950 . S
C437 C433 1.385 . S
C437 C436 1.374 . S
C438 C435 1.499 . S
C438 C439 1.373 . S
C438 C440 1.389 . S
C439 H418 0.950 . S
C439 C438 1.373 . S
C439 C455 1.377 . S
C440 C438 1.389 . S
C440 C441 1.524 . S
C440 C454 1.377 . S
C441 C440 1.524 . S
C441 C442 1.397 . S
C441 C446 1.363 . S
C442 H419 0.950 . S
C442 C441 1.397 . S
C442 C443 1.334 . S
C443 H420 0.950 . S
C443 C442 1.334 . S
C443 C444 1.287 . S
C444 C443 1.287 . S
C444 C445 1.524 . S
C444 H463 0.913 . S
C445 H421 0.950 . S
C445 C444 1.524 . S
C445 C446 1.415 . S
C446 H422 0.950 . S
C446 C441 1.363 . S
C446 C445 1.415 . S
C447 H423 0.951 1_455 S
C447 C448 1.366 . S
C447 C449 1.388 . S
C448 C447 1.366 . S
C448 C452 1.385 . S
C449 H424 0.951 . S
C449 C447 1.388 . S
C449 C450 1.366 . S
C450 C449 1.366 . S
C450 C451 1.414 . S
C450 C453 1.499 . S
C451 H425 0.950 . S
C451 C450 1.414 . S
C451 C452 1.374 . S
C452 H426 0.950 . S
C452 C448 1.385 . S
C452 C451 1.374 . S
C453 C450 1.499 . S
C453 C454 1.373 . S
C453 C455 1.389 . S
C454 H427 0.950 . S
C454 C440 1.377 . S
C454 C453 1.373 . S
C455 C439 1.377 . S
C455 C453 1.389 . S
C455 C456 1.524 . S
C456 C455 1.524 . S
C456 C457 1.397 . S
C456 C461 1.363 . S
C457 H428 0.950 . S
C457 C456 1.397 . S
C457 C458 1.334 . S
C458 H429 0.950 . S
C458 C457 1.334 . S
C458 C459 1.287 . S
C459 C458 1.287 . S
C459 C460 1.524 . S
C459 H462 0.999 . S
C460 H430 0.950 . S
C460 C459 1.524 . S
C460 C461 1.415 . S
C461 H431 0.950 . S
C461 C456 1.363 . S
C461 C460 1.415 . S
H462 C459 0.999 . S
H463 C444 0.913 . S
H464 C482 0.951 . S
H465 C484 0.951 . S
H466 C486 0.950 . S
H467 C487 0.950 . S
H468 C489 0.950 . S
H469 C492 0.950 . S
H470 C493 0.950 . S
H471 C495 0.950 . S
H472 C496 0.950 . S
H473 C497 0.951 . S
H474 C499 0.951 . S
H475 C501 0.950 . S
H476 C502 0.950 . S
H477 C504 0.950 . S
H478 C507 0.950 . S
H479 C508 0.950 . S
H480 C510 0.950 . S
H481 C511 0.950 . S
C482 H464 0.951 . S
C482 C483 1.366 . S
C482 C484 1.388 . S
C483 C482 1.366 . S
C483 C487 1.385 . S
C484 H465 0.951 . S
C484 C482 1.388 . S
C484 C485 1.366 . S
C485 C484 1.366 . S
C485 C486 1.414 . S
C485 C488 1.499 . S
C486 H466 0.950 . S
C486 C485 1.414 . S
C486 C487 1.374 . S
C487 H467 0.950 . S
C487 C483 1.385 . S
C487 C486 1.374 . S
C488 C485 1.499 . S
C488 C489 1.373 1_565 S
C488 C490 1.389 1_554 S
C489 H468 0.950 . S
C489 C488 1.373 1_545 S
C489 C505 1.377 1_554 S
C490 C488 1.389 1_556 S
C490 C491 1.524 1_556 S
C490 C504 1.377 . S
C491 C490 1.524 1_554 S
C491 C492 1.397 . S
C491 C496 1.363 1_554 S
C492 H469 0.950 . S
C492 C491 1.397 . S
C492 C493 1.334 . S
C493 H470 0.950 . S
C493 C492 1.334 . S
C493 C494 1.287 . S
C494 C493 1.287 . S
C494 C495 1.524 1_554 S
C494 H513 0.913 . S
C495 H471 0.950 . S
C495 C494 1.524 1_556 S
C495 C496 1.415 . S
C496 H472 0.950 . S
C496 C491 1.363 1_556 S
C496 C495 1.415 . S
C497 H473 0.951 . S
C497 C498 1.356 1_545 S
C497 C499 1.388 . S
C498 C497 1.356 1_565 S
C498 C502 1.401 . S
C499 H474 0.951 . S
C499 C497 1.388 . S
C499 C500 1.366 1_545 S
C500 C499 1.366 1_565 S
C500 C501 1.414 . S
C500 C503 1.499 . S
C501 H475 0.950 . S
C501 C500 1.414 . S
C501 C502 1.374 . S
C502 H476 0.950 . S
C502 C498 1.401 . S
C502 C501 1.374 . S
C503 C500 1.499 . S
C503 C504 1.373 . S
C503 C505 1.389 1_565 S
C504 H477 0.950 . S
C504 C490 1.377 . S
C504 C503 1.373 . S
C505 C489 1.377 1_556 S
C505 C503 1.389 1_545 S
C505 C506 1.524 . S
C506 C505 1.524 . S
C506 C507 1.397 . S
C506 C511 1.363 1_556 S
C507 H478 0.950 . S
C507 C506 1.397 . S
C507 C508 1.334 . S
C508 H479 0.950 . S
C508 C507 1.334 . S
C508 C509 1.287 . S
C509 C508 1.287 . S
C509 C510 1.524 1_556 S
C509 H512 0.999 . S
C510 H480 0.950 . S
C510 C509 1.524 1_554 S
C510 C511 1.415 . S
C511 H481 0.950 . S
C511 C506 1.363 1_554 S
C511 C510 1.415 . S
H512 C509 0.999 . S
H513 C494 0.913 . S
H514 C532 0.951 . S
H515 C534 0.951 . S
H516 C536 0.950 . S
H517 C537 0.950 . S
H518 C539 0.950 . S
H519 C542 0.950 . S
H520 C543 0.950 . S
H521 C545 0.950 . S
H522 C546 0.950 . S
H523 C547 0.951 . S
H524 C549 0.951 . S
H525 C551 0.950 . S
H526 C552 0.950 . S
H527 C554 0.950 . S
H528 C557 0.950 . S
H529 C558 0.950 . S
H530 C560 0.950 . S
H531 C561 0.950 . S
C532 H514 0.951 . S
C532 C533 1.366 . S
C532 C534 1.388 . S
C533 C532 1.366 . S
C533 C537 1.385 . S
C534 H515 0.951 . S
C534 C532 1.388 . S
C534 C535 1.366 . S
C535 C534 1.366 . S
C535 C536 1.414 . S
C535 C538 1.499 . S
C536 H516 0.950 . S
C536 C535 1.414 . S
C536 C537 1.374 . S
C537 H517 0.950 . S
C537 C533 1.385 . S
C537 C536 1.374 . S
C538 C535 1.499 . S
C538 C539 1.373 1_554 S
C538 C540 1.389 . S
C539 H518 0.950 . S
C539 C538 1.373 1_556 S
C539 C555 1.377 . S
C540 C538 1.389 . S
C540 C541 1.524 . S
C540 C554 1.377 1_554 S
C541 C540 1.524 . S
C541 C542 1.397 . S
C541 C546 1.363 . S
C542 H519 0.950 . S
C542 C541 1.397 . S
C542 C543 1.334 . S
C543 H520 0.950 . S
C543 C542 1.334 . S
C543 C544 1.287 . S
C544 C543 1.287 . S
C544 C545 1.524 . S
C544 H563 0.913 . S
C545 H521 0.950 . S
C545 C544 1.524 . S
C545 C546 1.415 . S
C546 H522 0.950 . S
C546 C541 1.363 . S
C546 C545 1.415 . S
C547 H523 0.951 . S
C547 C548 1.366 . S
C547 C549 1.388 . S
C548 C547 1.366 . S
C548 C552 1.385 . S
C549 H524 0.951 . S
C549 C547 1.388 . S
C549 C550 1.366 . S
C550 C549 1.366 . S
C550 C551 1.414 . S
C550 C553 1.499 . S
C551 H525 0.950 . S
C551 C550 1.414 . S
C551 C552 1.374 . S
C552 H526 0.950 . S
C552 C548 1.385 . S
C552 C551 1.374 . S
C553 C550 1.499 . S
C553 C554 1.373 . S
C553 C555 1.389 . S
C554 H527 0.950 . S
C554 C540 1.377 1_556 S
C554 C553 1.373 . S
C555 C539 1.377 . S
C555 C553 1.389 . S
C555 C556 1.524 . S
C556 C555 1.524 . S
C556 C557 1.397 . S
C556 C561 1.363 . S
C557 H528 0.950 . S
C557 C556 1.397 . S
C557 C558 1.334 . S
C558 H529 0.950 . S
C558 C557 1.334 . S
C558 C559 1.287 . S
C559 C558 1.287 . S
C559 C560 1.524 . S
C559 H562 0.999 . S
C560 H530 0.950 . S
C560 C559 1.524 . S
C560 C561 1.415 . S
C561 H531 0.950 . S
C561 C556 1.363 . S
C561 C560 1.415 . S
H562 C559 0.999 . S
H563 C544 0.913 . S
H564 C582 0.951 . S
H565 C584 0.951 . S
H566 C586 0.950 1_556 S
H567 C587 0.950 . S
H568 C589 0.950 . S
H569 C592 0.950 . S
H570 C593 0.950 . S
H571 C595 0.950 . S
H572 C596 0.950 . S
H573 C597 0.951 . S
H574 C599 0.951 . S
H575 C601 0.950 . S
H576 C602 0.950 . S
H577 C604 0.950 . S
H578 C607 0.950 . S
H579 C608 0.950 . S
H580 C610 0.950 . S
H581 C611 0.950 . S
C582 H564 0.951 . S
C582 C583 1.366 . S
C582 C584 1.388 . S
C583 C582 1.366 . S
C583 C587 1.385 . S
C584 H565 0.951 . S
C584 C582 1.388 . S
C584 C585 1.366 . S
C585 C584 1.366 . S
C585 C586 1.414 . S
C585 C588 1.499 1_554 S
C586 H566 0.950 1_554 S
C586 C585 1.414 . S
C586 C587 1.374 . S
C587 H567 0.950 . S
C587 C583 1.385 . S
C587 C586 1.374 . S
C588 C585 1.499 1_556 S
C588 C589 1.373 . S
C588 C590 1.389 . S
C589 H568 0.950 . S
C589 C588 1.373 . S
C589 C605 1.377 . S
C590 C588 1.389 . S
C590 C591 1.524 1_556 S
C590 C604 1.377 . S
C591 C590 1.524 1_554 S
C591 C592 1.397 . S
C591 C596 1.363 . S
C592 H569 0.950 . S
C592 C591 1.397 . S
C592 C593 1.334 . S
C593 H570 0.950 . S
C593 C592 1.334 . S
C593 C594 1.287 . S
C594 C593 1.287 . S
C594 C595 1.524 . S
C594 H613 0.913 . S
C595 H571 0.950 . S
C595 C594 1.524 . S
C595 C596 1.415 . S
C596 H572 0.950 . S
C596 C591 1.363 . S
C596 C595 1.415 . S
C597 H573 0.951 . S
C597 C598 1.366 . S
C597 C599 1.388 . S
C598 C597 1.366 . S
C598 C602 1.385 . S
C599 H574 0.951 . S
C599 C597 1.388 . S
C599 C600 1.366 . S
C600 C599 1.366 . S
C600 C601 1.414 . S
C600 C603 1.499 . S
C601 H575 0.950 . S
C601 C600 1.414 . S
C601 C602 1.374 . S
C602 H576 0.950 . S
C602 C598 1.385 . S
C602 C601 1.374 . S
C603 C600 1.499 . S
C603 C604 1.373 . S
C603 C605 1.389 . S
C604 H577 0.950 . S
C604 C590 1.377 . S
C604 C603 1.373 . S
C605 C589 1.377 . S
C605 C603 1.389 . S
C605 C606 1.524 . S
C606 C605 1.524 . S
C606 C607 1.397 . S
C606 C611 1.363 . S
C607 H578 0.950 . S
C607 C606 1.397 . S
C607 C608 1.334 . S
C608 H579 0.950 . S
C608 C607 1.334 . S
C608 C609 1.287 . S
C609 C608 1.287 . S
C609 C610 1.524 . S
C609 H612 0.999 . S
C610 H580 0.950 . S
C610 C609 1.524 . S
C610 C611 1.415 . S
C611 H581 0.950 . S
C611 C606 1.363 . S
C611 C610 1.415 . S
H612 C609 0.999 . S
H613 C594 0.913 . S
H614 C632 0.951 . S
H615 C634 0.951 . S
H616 C636 0.950 . S
H617 C637 0.950 . S
H618 C639 0.950 . S
H619 C642 0.950 . S
H620 C643 0.950 . S
H621 C645 0.950 1_655 S
H622 C646 0.950 . S
H623 C647 0.951 . S
H624 C649 0.951 1_455 S
H625 C651 0.950 . S
H626 C652 0.950 . S
H627 C654 0.950 1_554 S
H628 C657 0.950 . S
H629 C658 0.950 . S
H630 C660 0.950 . S
H631 C661 0.950 . S
C632 H614 0.951 . S
C632 C633 1.366 . S
C632 C634 1.388 . S
C633 C632 1.366 . S
C633 C637 1.385 . S
C634 H615 0.951 . S
C634 C632 1.388 . S
C634 C635 1.366 . S
C635 C634 1.366 . S
C635 C636 1.414 . S
C635 C638 1.499 . S
C636 H616 0.950 . S
C636 C635 1.414 . S
C636 C637 1.374 . S
C637 H617 0.950 . S
C637 C633 1.385 . S
C637 C636 1.374 . S
C638 C635 1.499 . S
C638 C639 1.373 1_554 S
C638 C640 1.389 . S
C639 H618 0.950 . S
C639 C638 1.373 1_556 S
C639 C655 1.377 . S
C640 C638 1.389 . S
C640 C641 1.524 . S
C640 C654 1.377 1_554 S
C641 C640 1.524 . S
C641 C642 1.397 1_655 S
C641 C646 1.363 . S
C642 H619 0.950 . S
C642 C641 1.397 1_455 S
C642 C643 1.334 . S
C643 H620 0.950 . S
C643 C642 1.334 . S
C643 C644 1.287 . S
C644 C643 1.287 . S
C644 C645 1.524 . S
C644 H663 0.913 . S
C645 H621 0.950 1_455 S
C645 C644 1.524 . S
C645 C646 1.415 1_455 S
C646 H622 0.950 . S
C646 C641 1.363 . S
C646 C645 1.415 1_655 S
C647 H623 0.951 . S
C647 C648 1.366 1_455 S
C647 C649 1.388 1_455 S
C648 C647 1.366 1_655 S
C648 C652 1.385 . S
C649 H624 0.951 1_655 S
C649 C647 1.388 1_655 S
C649 C650 1.366 . S
C650 C649 1.366 . S
C650 C651 1.414 . S
C650 C653 1.499 . S
C651 H625 0.950 . S
C651 C650 1.414 . S
C651 C652 1.374 . S
C652 H626 0.950 . S
C652 C648 1.385 . S
C652 C651 1.374 . S
C653 C650 1.499 . S
C653 C654 1.373 . S
C653 C655 1.389 . S
C654 H627 0.950 1_556 S
C654 C640 1.377 1_556 S
C654 C653 1.373 . S
C655 C639 1.377 . S
C655 C653 1.389 . S
C655 C656 1.524 . S
C656 C655 1.524 . S
C656 C657 1.397 . S
C656 C661 1.363 . S
C657 H628 0.950 . S
C657 C656 1.397 . S
C657 C658 1.334 . S
C658 H629 0.950 . S
C658 C657 1.334 . S
C658 C659 1.287 . S
C659 C658 1.287 . S
C659 C660 1.524 . S
C659 H662 0.999 . S
C660 H630 0.950 . S
C660 C659 1.524 . S
C660 C661 1.415 . S
C661 H631 0.950 . S
C661 C656 1.363 . S
C661 C660 1.415 . S
H662 C659 0.999 . S
H663 C644 0.913 . S
H664 C682 0.951 . S
H665 C684 0.951 . S
H666 C686 0.950 . S
H667 C687 0.950 . S
H668 C689 0.950 . S
H669 C692 0.950 . S
H670 C693 0.950 . S
H671 C695 0.950 1_556 S
H672 C696 0.950 . S
H673 C697 0.951 . S
H674 C699 0.951 1_655 S
H675 C701 0.950 . S
H676 C702 0.950 . S
H677 C704 0.950 . S
H678 C707 0.950 . S
H679 C708 0.950 . S
H680 C710 0.950 1_655 S
H681 C711 0.974 . S
C682 H664 0.951 . S
C682 C683 1.366 . S
C682 C684 1.388 . S
C683 C682 1.366 . S
C683 C687 1.385 . S
C684 H665 0.951 . S
C684 C682 1.388 . S
C684 C685 1.366 . S
C685 C684 1.366 . S
C685 C686 1.414 . S
C685 C688 1.499 . S
C686 H666 0.950 . S
C686 C685 1.414 . S
C686 C687 1.374 . S
C687 H667 0.950 . S
C687 C683 1.385 . S
C687 C686 1.374 . S
C688 C685 1.499 . S
C688 C689 1.373 . S
C688 C690 1.389 . S
C689 H668 0.950 . S
C689 C688 1.373 . S
C689 C705 1.377 . S
C690 C688 1.389 . S
C690 C691 1.524 . S
C690 C704 1.377 . S
C691 C690 1.524 . S
C691 C692 1.397 . S
C691 C696 1.363 . S
C692 H669 0.950 . S
C692 C691 1.397 . S
C692 C693 1.334 1_554 S
C693 H670 0.950 . S
C693 C692 1.334 1_556 S
C693 C694 1.287 . S
C694 C693 1.287 . S
C694 C695 1.524 1_556 S
C694 H713 0.913 . S
C695 H671 0.950 1_554 S
C695 C694 1.524 1_554 S
C695 C696 1.415 . S
C696 H672 0.950 . S
C696 C691 1.363 . S
C696 C695 1.415 . S
C697 H673 0.951 . S
C697 C698 1.366 1_655 S
C697 C699 1.388 1_655 S
C698 C697 1.366 1_455 S
C698 C702 1.385 . S
C699 H674 0.951 1_455 S
C699 C697 1.388 1_455 S
C699 C700 1.366 . S
C700 C699 1.366 . S
C700 C701 1.414 . S
C700 C703 1.499 . S
C701 H675 0.950 . S
C701 C700 1.414 . S
C701 C702 1.374 . S
C702 H676 0.950 . S
C702 C698 1.385 . S
C702 C701 1.374 . S
C703 C700 1.499 . S
C703 C704 1.373 . S
C703 C705 1.389 . S
C704 H677 0.950 . S
C704 C690 1.377 . S
C704 C703 1.373 . S
C705 C689 1.377 . S
C705 C703 1.389 . S
C705 C706 1.524 . S
C706 C705 1.524 . S
C706 C707 1.397 . S
C706 C711 1.363 . S
C707 H678 0.950 . S
C707 C706 1.397 . S
C707 C708 1.334 . S
C708 H679 0.950 . S
C708 C707 1.334 . S
C708 C709 1.287 . S
C709 C708 1.287 . S
C709 C710 1.524 . S
C709 H712 0.999 . S
C710 H680 0.950 1_455 S
C710 C709 1.524 . S
C710 C711 1.415 . S
C711 H681 0.974 . S
C711 C706 1.363 . S
C711 C710 1.415 . S
H712 C709 0.999 . S
H713 C694 0.913 . S
H714 C732 0.951 . S
H715 C734 0.951 . S
H716 C736 0.950 . S
H717 C737 0.950 . S
H718 C739 0.950 . S
H719 C742 0.950 . S
H720 C743 0.950 1_556 S
H721 C745 0.950 . S
H722 C746 0.950 . S
H723 C747 0.951 . S
H724 C749 0.941 1_565 S
H725 C751 0.950 . S
H726 C752 0.950 . S
H727 C754 0.950 . S
H728 C757 0.950 . S
H729 C758 0.950 . S
H730 C760 0.950 . S
H731 C761 0.950 . S
C732 H714 0.951 . S
C732 C733 1.366 . S
C732 C734 1.388 . S
C733 C732 1.366 . S
C733 C737 1.385 . S
C734 H715 0.951 . S
C734 C732 1.388 . S
C734 C735 1.366 . S
C735 C734 1.366 . S
C735 C736 1.414 . S
C735 C738 1.499 . S
C736 H716 0.950 . S
C736 C735 1.414 . S
C736 C737 1.374 . S
C737 H717 0.950 . S
C737 C733 1.385 . S
C737 C736 1.374 . S
C738 C735 1.499 . S
C738 C739 1.373 . S
C738 C740 1.389 . S
C739 H718 0.950 . S
C739 C738 1.373 . S
C739 C755 1.377 . S
C740 C738 1.389 . S
C740 C741 1.524 . S
C740 C754 1.377 . S
C741 C740 1.524 . S
C741 C742 1.397 . S
C741 C746 1.363 . S
C742 H719 0.950 . S
C742 C741 1.397 . S
C742 C743 1.334 . S
C743 H720 0.950 1_554 S
C743 C742 1.334 . S
C743 C744 1.287 1_554 S
C744 C743 1.287 1_556 S
C744 C745 1.524 1_556 S
C744 H763 0.913 . S
C745 H721 0.950 . S
C745 C744 1.524 1_554 S
C745 C746 1.415 . S
C746 H722 0.950 . S
C746 C741 1.363 . S
C746 C745 1.415 . S
C747 H723 0.951 . S
C747 C748 1.366 1_565 S
C747 C749 1.381 1_565 S
C748 C747 1.366 1_545 S
C748 C752 1.385 . S
C749 H724 0.941 1_545 S
C749 C747 1.381 1_545 S
C749 C750 1.382 . S
C750 C749 1.382 . S
C750 C751 1.414 . S
C750 C753 1.499 . S
C751 H725 0.950 . S
C751 C750 1.414 . S
C751 C752 1.374 . S
C752 H726 0.950 . S
C752 C748 1.385 . S
C752 C751 1.374 . S
C753 C750 1.499 . S
C753 C754 1.373 . S
C753 C755 1.389 . S
C754 H727 0.950 . S
C754 C740 1.377 . S
C754 C753 1.373 . S
C755 C739 1.377 . S
C755 C753 1.389 . S
C755 C756 1.524 . S
C756 C755 1.524 . S
C756 C757 1.397 . S
C756 C761 1.363 . S
C757 H728 0.950 . S
C757 C756 1.397 . S
C757 C758 1.334 . S
C758 H729 0.950 . S
C758 C757 1.334 . S
C758 C759 1.287 . S
C759 C758 1.287 . S
C759 C760 1.524 . S
C759 H762 0.999 . S
C760 H730 0.950 . S
C760 C759 1.524 . S
C760 C761 1.415 . S
C761 H731 0.950 . S
C761 C756 1.363 . S
C761 C760 1.415 . S
H762 C759 0.999 . S
H763 C744 0.913 . S
H764 C782 0.951 . S
H765 C784 0.951 . S
H766 C786 0.950 . S
H767 C787 0.950 . S
H768 C789 0.950 . S
H769 C792 0.950 . S
H770 C793 0.950 . S
H771 C795 0.950 . S
H772 C796 0.950 . S
H773 C797 0.951 . S
H774 C799 0.951 . S
H775 C801 0.950 . S
H776 C802 0.950 . S
H777 C804 0.950 . S
H778 C807 0.950 . S
H779 C808 0.950 . S
H780 C810 0.950 . S
H781 C811 0.950 . S
C782 H764 0.951 . S
C782 C783 1.366 . S
C782 C784 1.388 . S
C783 C782 1.366 . S
C783 C787 1.385 . S
C784 H765 0.951 . S
C784 C782 1.388 . S
C784 C785 1.366 . S
C785 C784 1.366 . S
C785 C786 1.414 . S
C785 C788 1.499 . S
C786 H766 0.950 . S
C786 C785 1.414 . S
C786 C787 1.374 . S
C787 H767 0.950 . S
C787 C783 1.385 . S
C787 C786 1.374 . S
C788 C785 1.499 . S
C788 C789 1.373 . S
C788 C790 1.389 . S
C789 H768 0.950 . S
C789 C788 1.373 . S
C789 C805 1.377 . S
C790 C788 1.389 . S
C790 C791 1.524 . S
C790 C804 1.377 . S
C791 C790 1.524 . S
C791 C792 1.397 . S
C791 C796 1.363 . S
C792 H769 0.950 . S
C792 C791 1.397 . S
C792 C793 1.334 . S
C793 H770 0.950 . S
C793 C792 1.334 . S
C793 C794 1.287 . S
C794 C793 1.287 . S
C794 C795 1.524 . S
C794 H813 0.913 1_554 S
C795 H771 0.950 . S
C795 C794 1.524 . S
C795 C796 1.415 . S
C796 H772 0.950 . S
C796 C791 1.363 . S
C796 C795 1.415 . S
C797 H773 0.951 . S
C797 C798 1.366 . S
C797 C799 1.388 . S
C798 C797 1.366 . S
C798 C802 1.385 . S
C799 H774 0.951 . S
C799 C797 1.388 . S
C799 C800 1.366 . S
C800 C799 1.366 . S
C800 C801 1.414 . S
C800 C803 1.499 . S
C801 H775 0.950 . S
C801 C800 1.414 . S
C801 C802 1.374 . S
C802 H776 0.950 . S
C802 C798 1.385 . S
C802 C801 1.374 . S
C803 C800 1.499 . S
C803 C804 1.373 . S
C803 C805 1.389 . S
C804 H777 0.950 . S
C804 C790 1.377 . S
C804 C803 1.373 . S
C805 C789 1.377 . S
C805 C803 1.389 . S
C805 C806 1.524 . S
C806 C805 1.524 . S
C806 C807 1.397 . S
C806 C811 1.363 . S
C807 H778 0.950 . S
C807 C806 1.397 . S
C807 C808 1.334 . S
C808 H779 0.950 . S
C808 C807 1.334 . S
C808 C809 1.287 . S
C809 C808 1.287 . S
C809 C810 1.524 . S
C809 H812 0.999 . S
C810 H780 0.950 . S
C810 C809 1.524 . S
C810 C811 1.415 . S
C811 H781 0.950 . S
C811 C806 1.363 . S
C811 C810 1.415 . S
H812 C809 0.999 . S
H813 C794 0.913 1_556 S
H814 C832 0.951 . S
H815 C834 0.951 . S
H816 C836 0.950 . S
H817 C837 0.950 . S
H818 C839 0.950 . S
H819 C842 0.950 . S
H820 C843 0.950 . S
H821 C845 0.950 1_556 S
H822 C846 0.950 . S
H823 C847 0.951 . S
H824 C849 0.951 . S
H825 C851 0.950 . S
H826 C852 0.950 . S
H827 C854 0.950 . S
H828 C857 0.950 . S
H829 C858 0.950 . S
H830 C860 0.950 . S
H831 C861 0.950 . S
C832 H814 0.951 . S
C832 C833 1.366 . S
C832 C834 1.388 . S
C833 C832 1.366 . S
C833 C837 1.385 . S
C834 H815 0.951 . S
C834 C832 1.388 . S
C834 C835 1.366 . S
C835 C834 1.366 . S
C835 C836 1.414 . S
C835 C838 1.499 . S
C836 H816 0.950 . S
C836 C835 1.414 . S
C836 C837 1.374 . S
C837 H817 0.950 . S
C837 C833 1.385 . S
C837 C836 1.374 . S
C838 C835 1.499 . S
C838 C839 1.373 . S
C838 C840 1.389 . S
C839 H818 0.950 . S
C839 C838 1.373 . S
C839 C855 1.377 . S
C840 C838 1.389 . S
C840 C841 1.524 . S
C840 C854 1.377 . S
C841 C840 1.524 . S
C841 C842 1.397 . S
C841 C846 1.363 . S
C842 H819 0.950 . S
C842 C841 1.397 . S
C842 C843 1.334 . S
C843 H820 0.950 . S
C843 C842 1.334 . S
C843 C844 1.287 . S
C844 C843 1.287 . S
C844 C845 1.524 . S
C844 H863 0.913 1_554 S
C845 H821 0.950 1_554 S
C845 C844 1.524 . S
C845 C846 1.415 . S
C846 H822 0.950 . S
C846 C841 1.363 . S
C846 C845 1.415 . S
C847 H823 0.951 . S
C847 C848 1.366 . S
C847 C849 1.388 . S
C848 C847 1.366 . S
C848 C852 1.385 . S
C849 H824 0.951 . S
C849 C847 1.388 . S
C849 C850 1.366 . S
C850 C849 1.366 . S
C850 C851 1.414 . S
C850 C853 1.499 . S
C851 H825 0.950 . S
C851 C850 1.414 . S
C851 C852 1.374 . S
C852 H826 0.950 . S
C852 C848 1.385 . S
C852 C851 1.374 . S
C853 C850 1.499 . S
C853 C854 1.373 . S
C853 C855 1.389 . S
C854 H827 0.950 . S
C854 C840 1.377 . S
C854 C853 1.373 . S
C855 C839 1.377 . S
C855 C853 1.389 . S
C855 C856 1.524 . S
C856 C855 1.524 . S
C856 C857 1.397 . S
C856 C861 1.363 . S
C857 H828 0.950 . S
C857 C856 1.397 . S
C857 C858 1.334 . S
C858 H829 0.950 . S
C858 C857 1.334 . S
C858 C859 1.287 . S
C859 C858 1.287 . S
C859 C860 1.524 . S
C859 H862 0.999 . S
C860 H830 0.950 . S
C860 C859 1.524 . S
C860 C861 1.415 . S
C861 H831 0.950 . S
C861 C856 1.363 . S
C861 C860 1.415 . S
H862 C859 0.999 . S
H863 C844 0.913 1_556 S
H864 C882 0.951 . S
H865 C884 0.930 1_455 S
H866 C886 0.950 . S
H867 C887 0.950 . S
H868 C889 0.950 . S
H869 C892 0.950 1_655 S
H870 C893 0.950 . S
H871 C895 0.950 . S
H872 C896 0.950 . S
H873 C897 0.951 . S
H874 C899 0.951 . S
H875 C901 0.950 1_554 S
H876 C902 0.950 . S
H877 C904 0.950 . S
H878 C907 0.950 . S
H879 C908 0.950 . S
H880 C910 0.950 . S
H881 C911 0.950 1_554 S
C882 H864 0.951 . S
C882 C883 1.366 . S
C882 C884 1.388 . S
C883 C882 1.366 . S
C883 C887 1.385 . S
C884 H865 0.930 1_655 S
C884 C882 1.388 . S
C884 C885 1.366 . S
C885 C884 1.366 . S
C885 C886 1.414 . S
C885 C888 1.499 . S
C886 H866 0.950 . S
C886 C885 1.414 . S
C886 C887 1.374 . S
C887 H867 0.950 . S
C887 C883 1.385 . S
C887 C886 1.374 . S
C888 C885 1.499 . S
C888 C889 1.373 . S
C888 C890 1.389 . S
C889 H868 0.950 . S
C889 C888 1.373 . S
C889 C905 1.377 . S
C890 C888 1.389 . S
C890 C891 1.524 1_655 S
C890 C904 1.377 1_655 S
C891 C890 1.524 1_455 S
C891 C892 1.397 . S
C891 C896 1.363 . S
C892 H869 0.950 1_455 S
C892 C891 1.397 . S
C892 C893 1.334 . S
C893 H870 0.950 . S
C893 C892 1.334 . S
C893 C894 1.287 . S
C894 C893 1.287 . S
C894 C895 1.524 . S
C894 H913 0.913 . S
C895 H871 0.950 . S
C895 C894 1.524 . S
C895 C896 1.415 . S
C896 H872 0.950 . S
C896 C891 1.363 . S
C896 C895 1.415 . S
C897 H873 0.951 . S
C897 C898 1.366 1_655 S
C897 C899 1.388 1_556 S
C898 C897 1.366 1_455 S
C898 C902 1.385 . S
C899 H874 0.951 . S
C899 C897 1.388 1_554 S
C899 C900 1.366 . S
C900 C899 1.366 . S
C900 C901 1.414 1_654 S
C900 C903 1.499 . S
C901 H875 0.950 1_556 S
C901 C900 1.414 1_456 S
C901 C902 1.374 . S
C902 H876 0.950 . S
C902 C898 1.385 . S
C902 C901 1.374 . S
C903 C900 1.499 . S
C903 C904 1.373 1_655 S
C903 C905 1.389 . S
C904 H877 0.950 . S
C904 C890 1.377 1_455 S
C904 C903 1.373 1_455 S
C905 C889 1.377 . S
C905 C903 1.389 . S
C905 C906 1.524 1_554 S
C906 C905 1.524 1_556 S
C906 C907 1.397 . S
C906 C911 1.363 . S
C907 H878 0.950 . S
C907 C906 1.397 . S
C907 C908 1.334 . S
C908 H879 0.950 . S
C908 C907 1.334 . S
C908 C909 1.287 . S
C909 C908 1.287 . S
C909 C910 1.524 . S
C909 H912 0.999 . S
C910 H880 0.950 . S
C910 C909 1.524 . S
C910 C911 1.415 . S
C911 H881 0.950 1_556 S
C911 C906 1.363 . S
C911 C910 1.415 . S
H912 C909 0.999 . S
H913 C894 0.913 . S
H914 C932 0.951 . S
H915 C934 0.951 . S
H916 C936 0.950 . S
H917 C937 0.950 . S
H918 C939 0.950 . S
H919 C942 0.950 . S
H920 C943 0.950 . S
H921 C945 0.950 . S
H922 C946 0.950 . S
H923 C947 0.951 . S
H924 C949 0.951 . S
H925 C951 0.950 1_564 S
H926 C952 0.950 . S
H927 C954 0.950 . S
H928 C957 0.950 . S
H929 C958 0.950 . S
H930 C960 0.950 1_556 S
H931 C961 0.950 . S
C932 H914 0.951 . S
C932 C933 1.366 . S
C932 C934 1.388 . S
C933 C932 1.366 . S
C933 C937 1.385 . S
C934 H915 0.951 . S
C934 C932 1.388 . S
C934 C935 1.366 . S
C935 C934 1.366 . S
C935 C936 1.414 . S
C935 C938 1.499 . S
C936 H916 0.950 . S
C936 C935 1.414 . S
C936 C937 1.374 . S
C937 H917 0.950 . S
C937 C933 1.385 . S
C937 C936 1.374 . S
C938 C935 1.499 . S
C938 C939 1.373 1_565 S
C938 C940 1.389 . S
C939 H918 0.950 . S
C939 C938 1.373 1_545 S
C939 C955 1.377 . S
C940 C938 1.389 . S
C940 C941 1.524 . S
C940 C954 1.377 . S
C941 C940 1.524 . S
C941 C942 1.397 . S
C941 C946 1.363 . S
C942 H919 0.950 . S
C942 C941 1.397 . S
C942 C943 1.334 . S
C943 H920 0.950 . S
C943 C942 1.334 . S
C943 C944 1.287 . S
C944 C943 1.287 . S
C944 C945 1.524 . S
C944 H963 0.913 . S
C945 H921 0.950 . S
C945 C944 1.524 . S
C945 C946 1.415 . S
C946 H922 0.950 . S
C946 C941 1.363 . S
C946 C945 1.415 . S
C947 H923 0.951 . S
C947 C948 1.366 . S
C947 C949 1.388 . S
C948 C947 1.366 . S
C948 C952 1.385 . S
C949 H924 0.951 . S
C949 C947 1.388 . S
C949 C950 1.366 . S
C950 C949 1.366 . S
C950 C951 1.414 . S
C950 C953 1.499 1_556 S
C951 H925 0.950 1_546 S
C951 C950 1.414 . S
C951 C952 1.374 . S
C952 H926 0.950 . S
C952 C948 1.385 . S
C952 C951 1.374 . S
C953 C950 1.499 1_554 S
C953 C954 1.373 1_545 S
C953 C955 1.389 . S
C954 H927 0.950 . S
C954 C940 1.377 . S
C954 C953 1.373 1_565 S
C955 C939 1.377 . S
C955 C953 1.389 . S
C955 C956 1.524 . S
C956 C955 1.524 . S
C956 C957 1.397 . S
C956 C961 1.363 . S
C957 H928 0.950 . S
C957 C956 1.397 . S
C957 C958 1.334 . S
C958 H929 0.950 . S
C958 C957 1.334 . S
C958 C959 1.287 . S
C959 C958 1.287 . S
C959 C960 1.524 . S
C959 H962 0.999 . S
C960 H930 0.950 1_554 S
C960 C959 1.524 . S
C960 C961 1.415 . S
C961 H931 0.950 . S
C961 C956 1.363 . S
C961 C960 1.415 . S
H962 C959 0.999 . S
H963 C944 0.913 . S
H964 C982 0.951 . S
H965 C984 0.951 . S
H966 C986 0.950 . S
H967 C987 0.950 . S
H968 C989 0.950 . S
H969 C992 0.950 . S
H970 C993 0.950 . S
H971 C995 0.950 . S
H972 C996 0.950 . S
H973 C997 0.951 . S
H974 C999 0.951 . S
H975 C1001 0.950 . S
H976 C1002 0.950 . S
H977 C1004 0.950 . S
H978 C1007 0.950 . S
H979 C1008 0.950 . S
H980 C1010 0.950 . S
H981 C1011 0.950 . S
C982 H964 0.951 . S
C982 C983 1.366 . S
C982 C984 1.388 . S
C983 C982 1.366 . S
C983 C987 1.385 . S
C984 H965 0.951 . S
C984 C982 1.388 . S
C984 C985 1.366 . S
C985 C984 1.366 . S
C985 C986 1.414 . S
C985 C988 1.499 . S
C986 H966 0.950 . S
C986 C985 1.414 . S
C986 C987 1.374 . S
C987 H967 0.950 . S
C987 C983 1.385 . S
C987 C986 1.374 . S
C988 C985 1.499 . S
C988 C989 1.373 1_554 S
C988 C990 1.389 . S
C989 H968 0.950 . S
C989 C988 1.373 1_556 S
C989 C1005 1.377 . S
C990 C988 1.389 . S
C990 C991 1.524 . S
C990 C1004 1.377 . S
C991 C990 1.524 . S
C991 C992 1.397 . S
C991 C996 1.363 . S
C992 H969 0.950 . S
C992 C991 1.397 . S
C992 C993 1.334 . S
C993 H970 0.950 . S
C993 C992 1.334 . S
C993 C994 1.287 . S
C994 C993 1.287 . S
C994 C995 1.524 . S
C994 H1013 0.913 . S
C995 H971 0.950 . S
C995 C994 1.524 . S
C995 C996 1.415 . S
C996 H972 0.950 . S
C996 C991 1.363 . S
C996 C995 1.415 . S
C997 H973 0.951 . S
C997 C998 1.366 . S
C997 C999 1.388 . S
C998 C997 1.366 . S
C998 C1002 1.385 . S
C999 H974 0.951 . S
C999 C997 1.388 . S
C999 C1000 1.366 . S
C1000 C999 1.366 . S
C1000 C1001 1.414 . S
C1000 C1003 1.499 . S
C1001 H975 0.950 . S
C1001 C1000 1.414 . S
C1001 C1002 1.374 . S
C1002 H976 0.950 . S
C1002 C998 1.385 . S
C1002 C1001 1.374 . S
C1003 C1000 1.499 . S
C1003 C1004 1.373 1_556 S
C1003 C1005 1.389 . S
C1004 H977 0.950 . S
C1004 C990 1.377 . S
C1004 C1003 1.373 1_554 S
C1005 C989 1.377 . S
C1005 C1003 1.389 . S
C1005 C1006 1.524 . S
C1006 C1005 1.524 . S
C1006 C1007 1.397 . S
C1006 C1011 1.363 . S
C1007 H978 0.950 . S
C1007 C1006 1.397 . S
C1007 C1008 1.334 . S
C1008 H979 0.950 . S
C1008 C1007 1.334 . S
C1008 C1009 1.287 . S
C1009 C1008 1.287 . S
C1009 C1010 1.524 . S
C1009 H1012 0.999 . S
C1010 H980 0.950 . S
C1010 C1009 1.524 . S
C1010 C1011 1.415 . S
C1011 H981 0.950 . S
C1011 C1006 1.363 . S
C1011 C1010 1.415 . S
H1012 C1009 0.999 . S
H1013 C994 0.913 . S
H1014 C1032 0.951 . S
H1015 C1034 0.951 . S
H1016 C1036 0.950 . S
H1017 C1037 0.950 . S
H1018 C1039 0.950 . S
H1019 C1042 0.950 . S
H1020 C1043 0.950 . S
H1021 C1045 0.950 . S
H1022 C1046 0.950 . S
H1023 C1047 0.951 . S
H1024 C1049 0.951 . S
H1025 C1051 0.950 . S
H1026 C1052 0.950 1_554 S
H1027 C1054 0.950 . S
H1028 C1057 0.950 . S
H1029 C1058 0.950 . S
H1030 C1060 0.956 . S
H1031 C1061 0.950 1_556 S
C1032 H1014 0.951 . S
C1032 C1033 1.366 . S
C1032 C1034 1.388 . S
C1033 C1032 1.366 . S
C1033 C1037 1.385 . S
C1034 H1015 0.951 . S
C1034 C1032 1.388 . S
C1034 C1035 1.366 . S
C1035 C1034 1.366 . S
C1035 C1036 1.414 . S
C1035 C1038 1.499 . S
C1036 H1016 0.950 . S
C1036 C1035 1.414 . S
C1036 C1037 1.374 . S
C1037 H1017 0.950 . S
C1037 C1033 1.385 . S
C1037 C1036 1.374 . S
C1038 C1035 1.499 . S
C1038 C1039 1.373 . S
C1038 C1040 1.389 . S
C1039 H1018 0.950 . S
C1039 C1038 1.373 . S
C1039 C1055 1.377 . S
C1040 C1038 1.389 . S
C1040 C1041 1.524 . S
C1040 C1054 1.377 . S
C1041 C1040 1.524 . S
C1041 C1042 1.397 . S
C1041 C1046 1.363 . S
C1042 H1019 0.950 . S
C1042 C1041 1.397 . S
C1042 C1043 1.334 . S
C1043 H1020 0.950 . S
C1043 C1042 1.334 . S
C1043 C1044 1.287 . S
C1044 C1043 1.287 . S
C1044 C1045 1.524 . S
C1044 H1063 0.913 . S
C1045 H1021 0.950 . S
C1045 C1044 1.524 . S
C1045 C1046 1.415 . S
C1046 H1022 0.950 . S
C1046 C1041 1.363 . S
C1046 C1045 1.415 . S
C1047 H1023 0.951 . S
C1047 C1048 1.366 . S
C1047 C1049 1.388 . S
C1048 C1047 1.366 . S
C1048 C1052 1.385 . S
C1049 H1024 0.951 . S
C1049 C1047 1.388 . S
C1049 C1050 1.366 . S
C1050 C1049 1.366 . S
C1050 C1051 1.414 1_556 S
C1050 C1053 1.499 1_556 S
C1051 H1025 0.950 . S
C1051 C1050 1.414 1_554 S
C1051 C1052 1.374 1_554 S
C1052 H1026 0.950 1_556 S
C1052 C1048 1.385 . S
C1052 C1051 1.374 1_556 S
C1053 C1050 1.499 1_554 S
C1053 C1054 1.373 . S
C1053 C1055 1.389 . S
C1054 H1027 0.950 . S
C1054 C1040 1.377 . S
C1054 C1053 1.373 . S
C1055 C1039 1.377 . S
C1055 C1053 1.389 . S
C1055 C1056 1.524 . S
C1056 C1055 1.524 . S
C1056 C1057 1.397 . S
C1056 C1061 1.363 . S
C1057 H1028 0.950 . S
C1057 C1056 1.397 . S
C1057 C1058 1.334 . S
C1058 H1029 0.950 . S
C1058 C1057 1.334 . S
C1058 C1059 1.287 . S
C1059 C1058 1.287 . S
C1059 C1060 1.524 . S
C1059 H1062 0.999 . S
C1060 H1030 0.956 . S
C1060 C1059 1.524 . S
C1060 C1061 1.415 . S
C1061 H1031 0.950 1_554 S
C1061 C1056 1.363 . S
C1061 C1060 1.415 . S
H1062 C1059 0.999 . S
H1063 C1044 0.913 . S
H1064 C1082 0.951 . S
H1065 C1084 0.951 . S
H1066 C1086 0.950 . S
H1067 C1087 0.950 . S
H1068 C1089 0.950 . S
H1069 C1092 0.950 . S
H1070 C1093 0.950 . S
H1071 C1095 0.950 . S
H1072 C1096 0.950 . S
H1073 C1097 0.951 1_655 S
H1074 C1099 0.951 . S
H1075 C1101 0.950 . S
H1076 C1102 0.950 . S
H1077 C1104 0.950 . S
H1078 C1107 0.950 . S
H1079 C1108 0.950 . S
H1080 C1110 0.950 1_655 S
H1081 C1111 0.950 . S
C1082 H1064 0.951 . S
C1082 C1083 1.366 . S
C1082 C1084 1.388 . S
C1083 C1082 1.366 . S
C1083 C1087 1.385 . S
C1084 H1065 0.951 . S
C1084 C1082 1.388 . S
C1084 C1085 1.366 . S
C1085 C1084 1.366 . S
C1085 C1086 1.414 . S
C1085 C1088 1.499 . S
C1086 H1066 0.950 . S
C1086 C1085 1.414 . S
C1086 C1087 1.374 . S
C1087 H1067 0.950 . S
C1087 C1083 1.385 . S
C1087 C1086 1.374 . S
C1088 C1085 1.499 . S
C1088 C1089 1.373 . S
C1088 C1090 1.389 . S
C1089 H1068 0.950 . S
C1089 C1088 1.373 . S
C1089 C1105 1.377 . S
C1090 C1088 1.389 . S
C1090 C1091 1.524 . S
C1090 C1104 1.377 . S
C1091 C1090 1.524 . S
C1091 C1092 1.397 . S
C1091 C1096 1.363 . S
C1092 H1069 0.950 . S
C1092 C1091 1.397 . S
C1092 C1093 1.334 . S
C1093 H1070 0.950 . S
C1093 C1092 1.334 . S
C1093 C1094 1.287 . S
C1094 C1093 1.287 . S
C1094 C1095 1.524 . S
C1094 H1113 0.913 . S
C1095 H1071 0.950 . S
C1095 C1094 1.524 . S
C1095 C1096 1.415 . S
C1096 H1072 0.950 . S
C1096 C1091 1.363 . S
C1096 C1095 1.415 . S
C1097 H1073 0.951 1_455 S
C1097 C1098 1.366 . S
C1097 C1099 1.388 . S
C1098 C1097 1.366 . S
C1098 C1102 1.385 . S
C1099 H1074 0.951 . S
C1099 C1097 1.388 . S
C1099 C1100 1.366 . S
C1100 C1099 1.366 . S
C1100 C1101 1.414 . S
C1100 C1103 1.499 . S
C1101 H1075 0.950 . S
C1101 C1100 1.414 . S
C1101 C1102 1.374 . S
C1102 H1076 0.950 . S
C1102 C1098 1.385 . S
C1102 C1101 1.374 . S
C1103 C1100 1.499 . S
C1103 C1104 1.373 . S
C1103 C1105 1.389 . S
C1104 H1077 0.950 . S
C1104 C1090 1.377 . S
C1104 C1103 1.373 . S
C1105 C1089 1.377 . S
C1105 C1103 1.389 . S
C1105 C1106 1.524 . S
C1106 C1105 1.524 . S
C1106 C1107 1.397 . S
C1106 C1111 1.363 . S
C1107 H1078 0.950 . S
C1107 C1106 1.397 . S
C1107 C1108 1.334 . S
C1108 H1079 0.950 . S
C1108 C1107 1.334 . S
C1108 C1109 1.287 1_556 S
C1109 C1108 1.287 1_554 S
C1109 C1110 1.524 . S
C1109 H1112 0.999 . S
C1110 H1080 0.950 1_455 S
C1110 C1109 1.524 . S
C1110 C1111 1.415 1_554 S
C1111 H1081 0.950 . S
C1111 C1106 1.363 . S
C1111 C1110 1.415 1_556 S
H1112 C1109 0.999 . S
H1113 C1094 0.913 . S
H1114 C1132 0.951 . S
H1115 C1134 0.951 . S
H1116 C1136 0.950 . S
H1117 C1137 0.950 . S
H1118 C1139 0.950 . S
H1119 C1142 0.950 1_545 S
H1120 C1143 0.950 . S
H1121 C1145 0.950 . S
H1122 C1146 0.950 . S
H1123 C1147 0.951 . S
H1124 C1149 0.951 . S
H1125 C1151 0.950 . S
H1126 C1152 0.950 . S
H1127 C1154 0.950 . S
H1128 C1157 0.950 . S
H1129 C1158 0.950 . S
H1130 C1160 0.950 . S
H1131 C1161 0.950 . S
C1132 H1114 0.951 . S
C1132 C1133 1.366 . S
C1132 C1134 1.388 . S
C1133 C1132 1.366 . S
C1133 C1137 1.385 . S
C1134 H1115 0.951 . S
C1134 C1132 1.388 . S
C1134 C1135 1.366 . S
C1135 C1134 1.366 . S
C1135 C1136 1.414 . S
C1135 C1138 1.499 . S
C1136 H1116 0.950 . S
C1136 C1135 1.414 . S
C1136 C1137 1.374 . S
C1137 H1117 0.950 . S
C1137 C1133 1.385 . S
C1137 C1136 1.374 . S
C1138 C1135 1.499 . S
C1138 C1139 1.373 . S
C1138 C1140 1.389 . S
C1139 H1118 0.950 . S
C1139 C1138 1.373 . S
C1139 C1155 1.377 . S
C1140 C1138 1.389 . S
C1140 C1141 1.525 . S
C1140 C1154 1.377 . S
C1141 C1140 1.525 . S
C1141 C1142 1.397 1_545 S
C1141 C1146 1.362 1_545 S
C1142 H1119 0.950 1_565 S
C1142 C1141 1.397 1_565 S
C1142 C1143 1.334 . S
C1143 H1120 0.950 . S
C1143 C1142 1.334 . S
C1143 C1144 1.287 . S
C1144 C1143 1.287 . S
C1144 C1145 1.524 . S
C1144 H1163 0.913 . S
C1145 H1121 0.950 . S
C1145 C1144 1.524 . S
C1145 C1146 1.415 . S
C1146 H1122 0.950 . S
C1146 C1141 1.362 1_565 S
C1146 C1145 1.415 . S
C1147 H1123 0.951 . S
C1147 C1148 1.366 . S
C1147 C1149 1.388 . S
C1148 C1147 1.366 . S
C1148 C1152 1.385 . S
C1149 H1124 0.951 . S
C1149 C1147 1.388 . S
C1149 C1150 1.366 . S
C1150 C1149 1.366 . S
C1150 C1151 1.414 . S
C1150 C1153 1.499 . S
C1151 H1125 0.950 . S
C1151 C1150 1.414 . S
C1151 C1152 1.374 . S
C1152 H1126 0.950 . S
C1152 C1148 1.385 . S
C1152 C1151 1.374 . S
C1153 C1150 1.499 . S
C1153 C1154 1.373 . S
C1153 C1155 1.389 . S
C1154 H1127 0.950 . S
C1154 C1140 1.377 . S
C1154 C1153 1.373 . S
C1155 C1139 1.377 . S
C1155 C1153 1.389 . S
C1155 C1156 1.524 . S
C1156 C1155 1.524 . S
C1156 C1157 1.397 . S
C1156 C1161 1.363 . S
C1157 H1128 0.950 . S
C1157 C1156 1.397 . S
C1157 C1158 1.334 . S
C1158 H1129 0.950 . S
C1158 C1157 1.334 . S
C1158 C1159 1.287 . S
C1159 C1158 1.287 . S
C1159 C1160 1.524 . S
C1159 H1162 0.999 . S
C1160 H1130 0.950 . S
C1160 C1159 1.524 . S
C1160 C1161 1.415 . S
C1161 H1131 0.950 . S
C1161 C1156 1.363 . S
C1161 C1160 1.415 . S
H1162 C1159 0.999 . S
H1163 C1144 0.913 . S
H1164 C1182 0.951 . S
H1165 C1184 0.951 . S
H1166 C1186 0.950 . S
H1167 C1187 0.950 . S
H1168 C1189 0.950 . S
H1169 C1192 0.950 1_556 S
H1170 C1193 0.950 . S
H1171 C1195 0.950 . S
H1172 C1196 0.950 . S
H1173 C1197 0.951 . S
H1174 C1199 0.951 . S
H1175 C1201 0.950 . S
H1176 C1202 0.950 . S
H1177 C1204 0.950 . S
H1178 C1207 0.950 . S
H1179 C1208 0.950 . S
H1180 C1210 0.950 . S
H1181 C1211 0.950 . S
C1182 H1164 0.951 . S
C1182 C1183 1.366 . S
C1182 C1184 1.388 . S
C1183 C1182 1.366 . S
C1183 C1187 1.385 . S
C1184 H1165 0.951 . S
C1184 C1182 1.388 . S
C1184 C1185 1.366 . S
C1185 C1184 1.366 . S
C1185 C1186 1.414 . S
C1185 C1188 1.499 . S
C1186 H1166 0.950 . S
C1186 C1185 1.414 . S
C1186 C1187 1.374 . S
C1187 H1167 0.950 . S
C1187 C1183 1.385 . S
C1187 C1186 1.374 . S
C1188 C1185 1.499 . S
C1188 C1189 1.373 . S
C1188 C1190 1.389 . S
C1189 H1168 0.950 . S
C1189 C1188 1.373 . S
C1189 C1205 1.377 . S
C1190 C1188 1.389 . S
C1190 C1191 1.524 . S
C1190 C1204 1.377 . S
C1191 C1190 1.524 . S
C1191 C1192 1.393 1_556 S
C1191 C1196 1.363 . S
C1192 H1169 0.950 1_554 S
C1192 C1191 1.393 1_554 S
C1192 C1193 1.338 . S
C1193 H1170 0.950 . S
C1193 C1192 1.338 . S
C1193 C1194 1.287 . S
C1194 C1193 1.287 . S
C1194 C1195 1.524 . S
C1194 H1213 0.913 . S
C1195 H1171 0.950 . S
C1195 C1194 1.524 . S
C1195 C1196 1.415 1_554 S
C1196 H1172 0.950 . S
C1196 C1191 1.363 . S
C1196 C1195 1.415 1_556 S
C1197 H1173 0.951 . S
C1197 C1198 1.366 . S
C1197 C1199 1.388 . S
C1198 C1197 1.366 . S
C1198 C1202 1.385 . S
C1199 H1174 0.951 . S
C1199 C1197 1.388 . S
C1199 C1200 1.366 . S
C1200 C1199 1.366 . S
C1200 C1201 1.414 . S
C1200 C1203 1.499 . S
C1201 H1175 0.950 . S
C1201 C1200 1.414 . S
C1201 C1202 1.374 . S
C1202 H1176 0.950 . S
C1202 C1198 1.385 . S
C1202 C1201 1.374 . S
C1203 C1200 1.499 . S
C1203 C1204 1.373 . S
C1203 C1205 1.389 . S
C1204 H1177 0.950 . S
C1204 C1190 1.377 . S
C1204 C1203 1.373 . S
C1205 C1189 1.377 . S
C1205 C1203 1.389 . S
C1205 C1206 1.524 . S
C1206 C1205 1.524 . S
C1206 C1207 1.397 . S
C1206 C1211 1.363 . S
C1207 H1178 0.950 . S
C1207 C1206 1.397 . S
C1207 C1208 1.334 . S
C1208 H1179 0.950 . S
C1208 C1207 1.334 . S
C1208 C1209 1.287 . S
C1209 C1208 1.287 . S
C1209 C1210 1.524 . S
C1209 H1212 0.999 . S
C1210 H1180 0.950 . S
C1210 C1209 1.524 . S
C1210 C1211 1.415 . S
C1211 H1181 0.950 . S
C1211 C1206 1.363 . S
C1211 C1210 1.415 . S
H1212 C1209 0.999 . S
H1213 C1194 0.913 . S
H1214 C1232 0.951 . S
H1215 C1234 0.951 . S
H1216 C1236 0.950 1_554 S
H1217 C1237 0.968 . S
H1218 C1239 0.950 . S
H1219 C1242 0.950 . S
H1220 C1243 0.950 . S
H1221 C1245 0.950 . S
H1222 C1246 0.950 . S
H1223 C1247 0.951 . S
H1224 C1249 0.951 . S
H1225 C1251 0.950 . S
H1226 C1252 0.950 . S
H1227 C1254 0.950 . S
H1228 C1257 0.950 . S
H1229 C1258 0.950 . S
H1230 C1260 0.950 1_554 S
H1231 C1261 0.950 . S
C1232 H1214 0.951 . S
C1232 C1233 1.366 . S
C1232 C1234 1.388 . S
C1233 C1232 1.366 . S
C1233 C1237 1.372 1_556 S
C1234 H1215 0.951 . S
C1234 C1232 1.388 . S
C1234 C1235 1.366 . S
C1235 C1234 1.366 . S
C1235 C1236 1.414 . S
C1235 C1238 1.499 . S
C1236 H1216 0.950 1_556 S
C1236 C1235 1.414 . S
C1236 C1237 1.368 1_556 S
C1237 H1217 0.968 . S
C1237 C1233 1.372 1_554 S
C1237 C1236 1.368 1_554 S
C1238 C1235 1.499 . S
C1238 C1239 1.373 . S
C1238 C1240 1.389 . S
C1239 H1218 0.950 . S
C1239 C1238 1.373 . S
C1239 C1255 1.377 . S
C1240 C1238 1.389 . S
C1240 C1241 1.524 . S
C1240 C1254 1.377 . S
C1241 C1240 1.524 . S
C1241 C1242 1.397 . S
C1241 C1246 1.363 . S
C1242 H1219 0.950 . S
C1242 C1241 1.397 . S
C1242 C1243 1.334 . S
C1243 H1220 0.950 . S
C1243 C1242 1.334 . S
C1243 C1244 1.287 . S
C1244 C1243 1.287 . S
C1244 C1245 1.524 . S
C1244 H1263 0.913 . S
C1245 H1221 0.950 . S
C1245 C1244 1.524 . S
C1245 C1246 1.415 . S
C1246 H1222 0.950 . S
C1246 C1241 1.363 . S
C1246 C1245 1.415 . S
C1247 H1223 0.951 . S
C1247 C1248 1.366 . S
C1247 C1249 1.388 . S
C1248 C1247 1.366 . S
C1248 C1252 1.385 . S
C1249 H1224 0.951 . S
C1249 C1247 1.388 . S
C1249 C1250 1.366 . S
C1250 C1249 1.366 . S
C1250 C1251 1.414 . S
C1250 C1253 1.499 . S
C1251 H1225 0.950 . S
C1251 C1250 1.414 . S
C1251 C1252 1.374 . S
C1252 H1226 0.950 . S
C1252 C1248 1.385 . S
C1252 C1251 1.374 . S
C1253 C1250 1.499 . S
C1253 C1254 1.373 . S
C1253 C1255 1.389 . S
C1254 H1227 0.950 . S
C1254 C1240 1.377 . S
C1254 C1253 1.373 . S
C1255 C1239 1.377 . S
C1255 C1253 1.389 . S
C1255 C1256 1.524 . S
C1256 C1255 1.524 . S
C1256 C1257 1.397 . S
C1256 C1261 1.363 . S
C1257 H1228 0.950 . S
C1257 C1256 1.397 . S
C1257 C1258 1.334 . S
C1258 H1229 0.950 . S
C1258 C1257 1.334 . S
C1258 C1259 1.287 . S
C1259 C1258 1.287 . S
C1259 C1260 1.524 . S
C1259 H1262 0.999 . S
C1260 H1230 0.950 1_556 S
C1260 C1259 1.524 . S
C1260 C1261 1.415 . S
C1261 H1231 0.950 . S
C1261 C1256 1.363 . S
C1261 C1260 1.415 . S
H1262 C1259 0.999 . S
H1263 C1244 0.913 . S
H1264 C1282 0.951 . S
H1265 C1284 0.951 1_455 S
H1266 C1286 0.950 . S
H1267 C1287 0.950 . S
H1268 C1289 0.950 . S
H1269 C1292 0.950 1_655 S
H1270 C1293 0.950 . S
H1271 C1295 0.950 . S
H1272 C1296 0.950 . S
H1273 C1297 0.951 . S
H1274 C1299 0.951 . S
H1275 C1301 0.950 . S
H1276 C1302 0.950 . S
H1277 C1304 0.950 1_455 S
H1278 C1307 0.950 . S
H1279 C1308 0.950 . S
H1280 C1310 0.950 . S
H1281 C1311 0.950 . S
C1282 H1264 0.951 . S
C1282 C1283 1.366 . S
C1282 C1284 1.388 . S
C1283 C1282 1.366 . S
C1283 C1287 1.385 . S
C1284 H1265 0.951 1_655 S
C1284 C1282 1.388 . S
C1284 C1285 1.366 . S
C1285 C1284 1.366 . S
C1285 C1286 1.414 . S
C1285 C1288 1.499 . S
C1286 H1266 0.950 . S
C1286 C1285 1.414 . S
C1286 C1287 1.374 . S
C1287 H1267 0.950 . S
C1287 C1283 1.385 . S
C1287 C1286 1.374 . S
C1288 C1285 1.499 . S
C1288 C1289 1.373 . S
C1288 C1290 1.389 . S
C1289 H1268 0.950 . S
C1289 C1288 1.373 . S
C1289 C1305 1.377 . S
C1290 C1288 1.389 . S
C1290 C1291 1.524 1_655 S
C1290 C1304 1.377 . S
C1291 C1290 1.524 1_455 S
C1291 C1292 1.397 . S
C1291 C1296 1.363 . S
C1292 H1269 0.950 1_455 S
C1292 C1291 1.397 . S
C1292 C1293 1.334 . S
C1293 H1270 0.950 . S
C1293 C1292 1.334 . S
C1293 C1294 1.287 . S
C1294 C1293 1.287 . S
C1294 C1295 1.524 . S
C1294 H1313 0.913 . S
C1295 H1271 0.950 . S
C1295 C1294 1.524 . S
C1295 C1296 1.415 . S
C1296 H1272 0.950 . S
C1296 C1291 1.363 . S
C1296 C1295 1.415 . S
C1297 H1273 0.951 . S
C1297 C1298 1.366 . S
C1297 C1299 1.388 . S
C1298 C1297 1.366 . S
C1298 C1302 1.385 1_655 S
C1299 H1274 0.951 . S
C1299 C1297 1.388 . S
C1299 C1300 1.366 . S
C1300 C1299 1.366 . S
C1300 C1301 1.414 1_655 S
C1300 C1303 1.499 . S
C1301 H1275 0.950 . S
C1301 C1300 1.414 1_455 S
C1301 C1302 1.374 . S
C1302 H1276 0.950 . S
C1302 C1298 1.385 1_455 S
C1302 C1301 1.374 . S
C1303 C1300 1.499 . S
C1303 C1304 1.373 . S
C1303 C1305 1.389 . S
C1304 H1277 0.950 1_655 S
C1304 C1290 1.377 . S
C1304 C1303 1.373 . S
C1305 C1289 1.377 . S
C1305 C1303 1.389 . S
C1305 C1306 1.524 . S
C1306 C1305 1.524 . S
C1306 C1307 1.397 . S
C1306 C1311 1.363 . S
C1307 H1278 0.950 . S
C1307 C1306 1.397 . S
C1307 C1308 1.334 . S
C1308 H1279 0.950 . S
C1308 C1307 1.334 . S
C1308 C1309 1.287 . S
C1309 C1308 1.287 . S
C1309 C1310 1.524 . S
C1309 H1312 0.999 . S
C1310 H1280 0.950 . S
C1310 C1309 1.524 . S
C1310 C1311 1.415 . S
C1311 H1281 0.950 . S
C1311 C1306 1.363 . S
C1311 C1310 1.415 . S
H1312 C1309 0.999 . S
H1313 C1294 0.913 . S
H1314 C1332 0.951 . S
H1315 C1334 0.951 . S
H1316 C1336 0.950 . S
H1317 C1337 0.950 . S
H1318 C1339 0.950 . S
H1319 C1342 0.950 . S
H1320 C1343 0.950 . S
H1321 C1345 0.950 . S
H1322 C1346 0.950 . S
H1323 C1347 0.951 . S
H1324 C1349 0.951 . S
H1325 C1351 0.952 1_545 S
H1326 C1352 0.950 . S
H1327 C1354 0.950 . S
H1328 C1357 0.950 . S
H1329 C1358 0.950 . S
H1330 C1360 0.950 . S
H1331 C1361 0.950 . S
C1332 H1314 0.951 . S
C1332 C1333 1.366 . S
C1332 C1334 1.388 . S
C1333 C1332 1.366 . S
C1333 C1337 1.385 . S
C1334 H1315 0.951 . S
C1334 C1332 1.388 . S
C1334 C1335 1.366 . S
C1335 C1334 1.366 . S
C1335 C1336 1.414 . S
C1335 C1338 1.499 . S
C1336 H1316 0.950 . S
C1336 C1335 1.414 . S
C1336 C1337 1.374 . S
C1337 H1317 0.950 . S
C1337 C1333 1.385 . S
C1337 C1336 1.374 . S
C1338 C1335 1.499 . S
C1338 C1339 1.373 . S
C1338 C1340 1.389 1_565 S
C1339 H1318 0.950 . S
C1339 C1338 1.373 . S
C1339 C1355 1.377 . S
C1340 C1338 1.389 1_545 S
C1340 C1341 1.524 . S
C1340 C1354 1.377 . S
C1341 C1340 1.524 . S
C1341 C1342 1.397 . S
C1341 C1346 1.363 . S
C1342 H1319 0.950 . S
C1342 C1341 1.397 . S
C1342 C1343 1.334 . S
C1343 H1320 0.950 . S
C1343 C1342 1.334 . S
C1343 C1344 1.287 . S
C1344 C1343 1.287 . S
C1344 C1345 1.524 . S
C1344 H1363 0.913 . S
C1345 H1321 0.950 . S
C1345 C1344 1.524 . S
C1345 C1346 1.415 . S
C1346 H1322 0.950 . S
C1346 C1341 1.363 . S
C1346 C1345 1.415 . S
C1347 H1323 0.951 . S
C1347 C1348 1.366 . S
C1347 C1349 1.388 . S
C1348 C1347 1.366 . S
C1348 C1352 1.385 1_565 S
C1349 H1324 0.951 . S
C1349 C1347 1.388 . S
C1349 C1350 1.366 . S
C1350 C1349 1.366 . S
C1350 C1351 1.411 . S
C1350 C1353 1.499 . S
C1351 H1325 0.952 1_565 S
C1351 C1350 1.411 . S
C1351 C1352 1.374 1_565 S
C1352 H1326 0.950 . S
C1352 C1348 1.385 1_545 S
C1352 C1351 1.374 1_545 S
C1353 C1350 1.499 . S
C1353 C1354 1.373 1_565 S
C1353 C1355 1.389 . S
C1354 H1327 0.950 . S
C1354 C1340 1.377 . S
C1354 C1353 1.373 1_545 S
C1355 C1339 1.377 . S
C1355 C1353 1.389 . S
C1355 C1356 1.524 . S
C1356 C1355 1.524 . S
C1356 C1357 1.397 . S
C1356 C1361 1.363 . S
C1357 H1328 0.950 . S
C1357 C1356 1.397 . S
C1357 C1358 1.334 . S
C1358 H1329 0.950 . S
C1358 C1357 1.334 . S
C1358 C1359 1.287 . S
C1359 C1358 1.287 . S
C1359 C1360 1.524 . S
C1359 H1362 0.999 . S
C1360 H1330 0.950 . S
C1360 C1359 1.524 . S
C1360 C1361 1.415 . S
C1361 H1331 0.950 . S
C1361 C1356 1.363 . S
C1361 C1360 1.415 . S
H1362 C1359 0.999 . S
H1363 C1344 0.913 . S
H1364 C1382 0.951 . S
H1365 C1384 0.951 . S
H1366 C1386 0.950 . S
H1367 C1387 0.950 . S
H1368 C1389 0.950 . S
H1369 C1392 0.950 . S
H1370 C1393 0.950 . S
H1371 C1395 0.950 . S
H1372 C1396 0.950 . S
H1373 C1397 0.951 . S
H1374 C1399 0.951 . S
H1375 C1401 0.950 . S
H1376 C1402 0.950 . S
H1377 C1404 0.950 . S
H1378 C1407 0.950 . S
H1379 C1408 0.950 . S
H1380 C1410 0.950 . S
H1381 C1411 0.950 . S
C1382 H1364 0.951 . S
C1382 C1383 1.366 . S
C1382 C1384 1.388 . S
C1383 C1382 1.366 . S
C1383 C1387 1.385 . S
C1384 H1365 0.951 . S
C1384 C1382 1.388 . S
C1384 C1385 1.366 . S
C1385 C1384 1.366 . S
C1385 C1386 1.414 . S
C1385 C1388 1.499 . S
C1386 H1366 0.950 . S
C1386 C1385 1.414 . S
C1386 C1387 1.374 . S
C1387 H1367 0.950 . S
C1387 C1383 1.385 . S
C1387 C1386 1.374 . S
C1388 C1385 1.499 . S
C1388 C1389 1.373 . S
C1388 C1390 1.389 . S
C1389 H1368 0.950 . S
C1389 C1388 1.373 . S
C1389 C1405 1.377 . S
C1390 C1388 1.389 . S
C1390 C1391 1.524 . S
C1390 C1404 1.377 . S
C1391 C1390 1.524 . S
C1391 C1392 1.397 . S
C1391 C1396 1.363 . S
C1392 H1369 0.950 . S
C1392 C1391 1.397 . S
C1392 C1393 1.334 . S
C1393 H1370 0.950 . S
C1393 C1392 1.334 . S
C1393 C1394 1.287 . S
C1394 C1393 1.287 . S
C1394 C1395 1.524 . S
C1394 H1413 0.913 . S
C1395 H1371 0.950 . S
C1395 C1394 1.524 . S
C1395 C1396 1.415 . S
C1396 H1372 0.950 . S
C1396 C1391 1.363 . S
C1396 C1395 1.415 . S
C1397 H1373 0.951 . S
C1397 C1398 1.366 . S
C1397 C1399 1.388 . S
C1398 C1397 1.366 . S
C1398 C1402 1.385 . S
C1399 H1374 0.951 . S
C1399 C1397 1.388 . S
C1399 C1400 1.366 . S
C1400 C1399 1.366 . S
C1400 C1401 1.414 . S
C1400 C1403 1.499 . S
C1401 H1375 0.950 . S
C1401 C1400 1.414 . S
C1401 C1402 1.374 . S
C1402 H1376 0.950 . S
C1402 C1398 1.385 . S
C1402 C1401 1.374 . S
C1403 C1400 1.499 . S
C1403 C1404 1.373 . S
C1403 C1405 1.389 . S
C1404 H1377 0.950 . S
C1404 C1390 1.377 . S
C1404 C1403 1.373 . S
C1405 C1389 1.377 . S
C1405 C1403 1.389 . S
C1405 C1406 1.524 . S
C1406 C1405 1.524 . S
C1406 C1407 1.397 . S
C1406 C1411 1.363 . S
C1407 H1378 0.950 . S
C1407 C1406 1.397 . S
C1407 C1408 1.334 . S
C1408 H1379 0.950 . S
C1408 C1407 1.334 . S
C1408 C1409 1.287 . S
C1409 C1408 1.287 . S
C1409 C1410 1.524 . S
C1409 H1412 0.999 . S
C1410 H1380 0.950 . S
C1410 C1409 1.524 . S
C1410 C1411 1.415 . S
C1411 H1381 0.950 . S
C1411 C1406 1.363 . S
C1411 C1410 1.415 . S
H1412 C1409 0.999 . S
H1413 C1394 0.913 . S
H1414 C1432 0.951 . S
H1415 C1434 0.951 . S
H1416 C1436 0.950 . S
H1417 C1437 0.950 . S
H1418 C1439 0.950 . S
H1419 C1442 0.950 . S
H1420 C1443 0.950 . S
H1421 C1445 0.950 . S
H1422 C1446 0.950 . S
H1423 C1447 0.951 . S
H1424 C1449 0.951 . S
H1425 C1451 0.950 . S
H1426 C1452 0.950 . S
H1427 C1454 0.950 . S
H1428 C1457 0.950 . S
H1429 C1458 0.950 . S
H1430 C1460 0.950 . S
H1431 C1461 0.950 . S
C1432 H1414 0.951 . S
C1432 C1433 1.366 . S
C1432 C1434 1.388 . S
C1433 C1432 1.366 . S
C1433 C1437 1.385 . S
C1434 H1415 0.951 . S
C1434 C1432 1.388 . S
C1434 C1435 1.366 . S
C1435 C1434 1.366 . S
C1435 C1436 1.414 . S
C1435 C1438 1.499 . S
C1436 H1416 0.950 . S
C1436 C1435 1.414 . S
C1436 C1437 1.374 . S
C1437 H1417 0.950 . S
C1437 C1433 1.385 . S
C1437 C1436 1.374 . S
C1438 C1435 1.499 . S
C1438 C1439 1.373 . S
C1438 C1440 1.389 . S
C1439 H1418 0.950 . S
C1439 C1438 1.373 . S
C1439 C1455 1.377 . S
C1440 C1438 1.389 . S
C1440 C1441 1.524 . S
C1440 C1454 1.377 . S
C1441 C1440 1.524 . S
C1441 C1442 1.397 . S
C1441 C1446 1.363 . S
C1442 H1419 0.950 . S
C1442 C1441 1.397 . S
C1442 C1443 1.334 . S
C1443 H1420 0.950 . S
C1443 C1442 1.334 . S
C1443 C1444 1.287 . S
C1444 C1443 1.287 . S
C1444 C1445 1.524 . S
C1444 H1463 0.913 . S
C1445 H1421 0.950 . S
C1445 C1444 1.524 . S
C1445 C1446 1.415 . S
C1446 H1422 0.950 . S
C1446 C1441 1.363 . S
C1446 C1445 1.415 . S
C1447 H1423 0.951 . S
C1447 C1448 1.366 . S
C1447 C1449 1.388 . S
C1448 C1447 1.366 . S
C1448 C1452 1.385 . S
C1449 H1424 0.951 . S
C1449 C1447 1.388 . S
C1449 C1450 1.366 . S
C1450 C1449 1.366 . S
C1450 C1451 1.414 . S
C1450 C1453 1.499 . S
C1451 H1425 0.950 . S
C1451 C1450 1.414 . S
C1451 C1452 1.374 . S
C1452 H1426 0.950 . S
C1452 C1448 1.385 . S
C1452 C1451 1.374 . S
C1453 C1450 1.499 . S
C1453 C1454 1.373 . S
C1453 C1455 1.389 . S
C1454 H1427 0.950 . S
C1454 C1440 1.377 . S
C1454 C1453 1.373 . S
C1455 C1439 1.377 . S
C1455 C1453 1.389 . S
C1455 C1456 1.524 . S
C1456 C1455 1.524 . S
C1456 C1457 1.397 . S
C1456 C1461 1.363 . S
C1457 H1428 0.950 . S
C1457 C1456 1.397 . S
C1457 C1458 1.334 . S
C1458 H1429 0.950 . S
C1458 C1457 1.334 . S
C1458 C1459 1.287 . S
C1459 C1458 1.287 . S
C1459 C1460 1.524 . S
C1459 H1462 0.999 . S
C1460 H1430 0.950 . S
C1460 C1459 1.524 . S
C1460 C1461 1.415 . S
C1461 H1431 0.950 . S
C1461 C1456 1.363 . S
C1461 C1460 1.415 . S
H1462 C1459 0.999 . S
H1463 C1444 0.913 . S
C283 C82 2.001 . S
C298 C135 2.267 . S
C348 C161 1.669 . S
C333 C95 1.429 . S
C398 C201 1.819 . S
C383 C56 1.632 . S
C448 C255 2.359 . S
C433 C69 2.121 . S
C498 C116 2.261 1_565 S
C483 C30 1.959 . S
C533 C43 1.458 . S
C548 C146 1.670 . S
C583 C4 1.593 . S
C598 C186 1.819 . S
C633 C17 2.071 . S
C648 C236 2.359 1_655 S
C698 C112 0.296 . S
C683 C74 0.374 . S
C748 C173 0.547 . S
C733 C87 0.549 . S
C798 C213 0.433 . S
C783 C100 0.434 . S
C833 C61 0.355 . S
C848 C232 0.225 . S
C883 C22 0.382 . S
C898 C133 0.296 . S
C948 C152 0.547 . S
C933 C35 0.549 . S
C998 C192 0.433 . S
C983 C48 0.434 . S
C1033 C9 0.360 . S
C1048 C253 0.224 . S
C1083 C73 1.762 . S
C1098 C106 1.921 . S
C1133 C86 2.375 . S
C1148 C156 2.551 . S
C1198 C196 2.295 . S
C1183 C99 2.140 . S
C1248 C226 1.667 . S
C1233 C60 1.543 1_556 S
C1283 C21 1.757 . S
C1298 C121 1.921 . S
C1348 C175 2.557 . S
C1333 C34 2.371 . S
C1398 C215 2.295 . S
C1383 C47 2.144 . S
C1433 C8 1.538 . S
C1448 C241 1.666 . S
