# Generated by pormake.
# Topology apo, (3,6)-cn, num edge types: 1
# Building blocks:
#     Node 0, Type 0, BuildingBlock: KAKCAD_clean_linker_0, # of connection points: 3
#     Node 1, Type 0, BuildingBlock: KAKCAD_clean_linker_0, # of connection points: 3
#     Node 2, Type 0, BuildingBlock: KAKCAD_clean_linker_0, # of connection points: 3
#     Node 3, Type 0, BuildingBlock: KAKCAD_clean_linker_0, # of connection points: 3
#     Node 4, Type 0, BuildingBlock: KAKCAD_clean_linker_0, # of connection points: 3
#     Node 5, Type 0, BuildingBlock: KAKCAD_clean_linker_0, # of connection points: 3
#     Node 6, Type 0, BuildingBlock: KAKCAD_clean_linker_0, # of connection points: 3
#     Node 7, Type 0, BuildingBlock: KAKCAD_clean_linker_0, # of connection points: 3
#     Node 8, Type 1, BuildingBlock: KUMBOL_clean_sbu_1, # of connection points: 6
#     Node 9, Type 1, BuildingBlock: KUMBOL_clean_sbu_1, # of connection points: 6
#     Node 10, Type 1, BuildingBlock: KUMBOL_clean_sbu_1, # of connection points: 6
#     Node 11, Type 1, BuildingBlock: KUMBOL_clean_sbu_1, # of connection points: 6
#     Edge 12, Type (0, 1), BuildingBlock: TEMPAE_clean_linker_10, # of connection points: 2
#     Edge 13, Type (0, 1), BuildingBlock: TEMPAE_clean_linker_10, # of connection points: 2
#     Edge 14, Type (0, 1), BuildingBlock: TEMPAE_clean_linker_10, # of connection points: 2
#     Edge 15, Type (0, 1), BuildingBlock: TEMPAE_clean_linker_10, # of connection points: 2
#     Edge 16, Type (0, 1), BuildingBlock: TEMPAE_clean_linker_10, # of connection points: 2
#     Edge 17, Type (0, 1), BuildingBlock: TEMPAE_clean_linker_10, # of connection points: 2
#     Edge 18, Type (0, 1), BuildingBlock: TEMPAE_clean_linker_10, # of connection points: 2
#     Edge 19, Type (0, 1), BuildingBlock: TEMPAE_clean_linker_10, # of connection points: 2
#     Edge 20, Type (0, 1), BuildingBlock: TEMPAE_clean_linker_10, # of connection points: 2
#     Edge 21, Type (0, 1), BuildingBlock: TEMPAE_clean_linker_10, # of connection points: 2
#     Edge 22, Type (0, 1), BuildingBlock: TEMPAE_clean_linker_10, # of connection points: 2
#     Edge 23, Type (0, 1), BuildingBlock: TEMPAE_clean_linker_10, # of connection points: 2
#     Edge 24, Type (0, 1), BuildingBlock: TEMPAE_clean_linker_10, # of connection points: 2
#     Edge 25, Type (0, 1), BuildingBlock: TEMPAE_clean_linker_10, # of connection points: 2
#     Edge 26, Type (0, 1), BuildingBlock: TEMPAE_clean_linker_10, # of connection points: 2
#     Edge 27, Type (0, 1), BuildingBlock: TEMPAE_clean_linker_10, # of connection points: 2
#     Edge 28, Type (0, 1), BuildingBlock: TEMPAE_clean_linker_10, # of connection points: 2
#     Edge 29, Type (0, 1), BuildingBlock: TEMPAE_clean_linker_10, # of connection points: 2
#     Edge 30, Type (0, 1), BuildingBlock: TEMPAE_clean_linker_10, # of connection points: 2
#     Edge 31, Type (0, 1), BuildingBlock: TEMPAE_clean_linker_10, # of connection points: 2
#     Edge 32, Type (0, 1), BuildingBlock: TEMPAE_clean_linker_10, # of connection points: 2
#     Edge 33, Type (0, 1), BuildingBlock: TEMPAE_clean_linker_10, # of connection points: 2
#     Edge 34, Type (0, 1), BuildingBlock: TEMPAE_clean_linker_10, # of connection points: 2
#     Edge 35, Type (0, 1), BuildingBlock: TEMPAE_clean_linker_10, # of connection points: 2
# Relax obj value: 0.009
# Max RMSD: 0.098
# Mean RMSD: 0.076
data_MOF--net-apo--node1-KUMBOL_clean_sbu_1--node2-KAKCAD_clean_linker_0--edge1-TEMPAE_clean_linker_10
_symmetry_space_group_name_H-M    P1
_symmetry_Int_Tables_number       1
_symmetry_cell_setting            triclinic
loop_
_symmetry_equiv_pos_as_xyz
'x, y, z'
_cell_length_a     29.715411
_cell_length_b     52.956465
_cell_length_c     64.844788
_cell_angle_alpha  89.87348
_cell_angle_beta   90.007613
_cell_angle_gamma 90.42995
loop_
_atom_site_label
_atom_site_type_symbol
_atom_site_fract_x
_atom_site_fract_y
_atom_site_fract_z
_atom_type_partial_charge
C0 C 0.289 0.45685 0.35829 0.0
C1 C 0.33129 0.46773 0.3626 0.0
C2 C 0.2724 0.43683 0.37023 0.0
C3 C 0.29785 0.42704 0.38665 0.0
C4 C 0.34002 0.43803 0.39101 0.0
C5 C 0.35633 0.45821 0.37926 0.0
C6 C 0.28088 0.40533 0.39913 0.0
C7 C 0.25728 0.38533 0.38977 0.0
C8 C 0.24126 0.36465 0.40142 0.0
C9 C 0.25121 0.36376 0.42267 0.0
C10 C 0.27608 0.38322 0.43221 0.0
C11 C 0.28936 0.40424 0.42039 0.0
C12 C 0.28931 0.38153 0.45436 0.0
C13 C 0.26051 0.37048 0.46907 0.0
C14 C 0.33135 0.39098 0.46094 0.0
C15 C 0.34379 0.38992 0.48168 0.0
C16 C 0.31497 0.37893 0.4964 0.0
C17 C 0.21499 0.34392 0.39122 0.0
C18 C 0.18718 0.34912 0.37417 0.0
C19 C 0.21782 0.31875 0.39812 0.0
C20 C 0.19395 0.29943 0.38818 0.0
C21 C 0.16747 0.30453 0.37067 0.0
C22 C 0.1644 0.32973 0.36388 0.0
C23 C 0.27333 0.36899 0.48978 0.0
H24 H 0.26895 0.46351 0.34546 0.0
H25 H 0.23951 0.42909 0.3666 0.0
H26 H 0.36091 0.43083 0.40334 0.0
H27 H 0.38867 0.46637 0.38329 0.0
H28 H 0.25252 0.38561 0.37323 0.0
H29 H 0.30623 0.41996 0.42783 0.0
H30 H 0.23997 0.34781 0.4318 0.0
H31 H 0.22773 0.3632 0.46471 0.0
H32 H 0.35496 0.39914 0.45005 0.0
H33 H 0.37586 0.39805 0.48615 0.0
H34 H 0.18296 0.36823 0.36859 0.0
H35 H 0.23915 0.3137 0.41098 0.0
H36 H 0.25053 0.35995 0.50057 0.0
H37 H 0.14511 0.33459 0.3503 0.0
H38 H 0.1966 0.28045 0.39425 0.0
C39 C 0.21631 0.03926 0.86508 0.0
C40 C 0.17 0.0337 0.86476 0.0
C41 C 0.23274 0.05978 0.87644 0.0
C42 C 0.20326 0.07483 0.88797 0.0
C43 C 0.15707 0.069 0.88794 0.0
C44 C 0.14055 0.04876 0.87631 0.0
C45 C 0.2206 0.0967 0.89986 0.0
C46 C 0.248 0.11494 0.89028 0.0
C47 C 0.26464 0.13594 0.90133 0.0
C48 C 0.2537 0.13807 0.92243 0.0
C49 C 0.2252 0.1203 0.93204 0.0
C50 C 0.20891 0.09966 0.92064 0.0
C51 C 0.21131 0.12344 0.95387 0.0
C52 C 0.24309 0.12885 0.96932 0.0
C53 C 0.16591 0.12042 0.95942 0.0
C54 C 0.15267 0.12206 0.98001 0.0
C55 C 0.18457 0.1265 0.99564 0.0
C56 C 0.29114 0.15614 0.8905 0.0
C57 C 0.31842 0.15037 0.87342 0.0
C58 C 0.28764 0.18161 0.89644 0.0
C59 C 0.30987 0.20068 0.88541 0.0
C60 C 0.33527 0.19502 0.8677 0.0
C61 C 0.33953 0.1695 0.86202 0.0
C62 C 0.2299 0.13026 0.99001 0.0
H63 H 0.23968 0.02801 0.85624 0.0
H64 H 0.26854 0.06382 0.87633 0.0
H65 H 0.13365 0.08038 0.89663 0.0
H66 H 0.10474 0.04477 0.87642 0.0
H67 H 0.2547 0.11311 0.87394 0.0
H68 H 0.18762 0.08561 0.92804 0.0
H69 H 0.26652 0.15379 0.93138 0.0
H70 H 0.27836 0.13118 0.96547 0.0
H71 H 0.14054 0.11673 0.94778 0.0
H72 H 0.11734 0.11968 0.9837 0.0
H73 H 0.32315 0.13103 0.86856 0.0
H74 H 0.26669 0.18711 0.90929 0.0
H75 H 0.25545 0.13347 1.00164 0.0
H76 H 0.35822 0.16415 0.84841 0.0
H77 H 0.30657 0.21993 0.89073 0.0
C78 C 0.79204 0.04223 0.64582 0.0
C79 C 0.8369 0.03425 0.6441 0.0
C80 C 0.77594 0.06186 0.63344 0.0
C81 C 0.80423 0.0738 0.61896 0.0
C82 C 0.84871 0.06534 0.61685 0.0
C83 C 0.86489 0.04585 0.62933 0.0
C84 C 0.78828 0.09588 0.60684 0.0
C85 C 0.76455 0.11523 0.61665 0.0
C86 C 0.75129 0.13694 0.60582 0.0
C87 C 0.76296 0.13928 0.58482 0.0
C88 C 0.78638 0.11991 0.57447 0.0
C89 C 0.79831 0.09815 0.58575 0.0
C90 C 0.79856 0.12232 0.55204 0.0
C91 C 0.77191 0.13652 0.53838 0.0
C92 C 0.83698 0.11037 0.54398 0.0
C93 C 0.84778 0.11211 0.523 0.0
C94 C 0.82141 0.12656 0.5094 0.0
C95 C 0.7262 0.15723 0.6168 0.0
C96 C 0.69324 0.15095 0.63157 0.0
C97 C 0.73604 0.18291 0.61328 0.0
C98 C 0.71433 0.20173 0.62462 0.0
C99 C 0.68234 0.19538 0.63984 0.0
C100 C 0.67179 0.16972 0.64298 0.0
C101 C 0.78354 0.13894 0.51755 0.0
H102 H 0.76971 0.03375 0.65712 0.0
H103 H 0.74139 0.06783 0.63529 0.0
H104 H 0.87143 0.07428 0.60596 0.0
H105 H 0.89946 0.03992 0.62747 0.0
H106 H 0.7578 0.11376 0.63303 0.0
H107 H 0.81498 0.08263 0.57817 0.0
H108 H 0.75377 0.1563 0.57665 0.0
H109 H 0.74162 0.14572 0.5436 0.0
H110 H 0.85929 0.09972 0.55383 0.0
H111 H 0.87681 0.1019 0.51754 0.0
H112 H 0.6842 0.13141 0.63448 0.0
H113 H 0.7614 0.18849 0.60215 0.0
H114 H 0.76273 0.15083 0.50795 0.0
H115 H 0.6477 0.16401 0.65465 0.0
H116 H 0.72283 0.22129 0.62152 0.0
C117 C 0.71128 0.4577 0.14716 0.0
C118 C 0.66645 0.46552 0.14493 0.0
C119 C 0.72813 0.43814 0.13507 0.0
C120 C 0.70053 0.42594 0.12051 0.0
C121 C 0.6559 0.43399 0.11807 0.0
C122 C 0.63904 0.45356 0.13016 0.0
C123 C 0.71795 0.40443 0.10832 0.0
C124 C 0.74414 0.38588 0.1179 0.0
C125 C 0.76077 0.36524 0.10676 0.0
C126 C 0.75059 0.36323 0.08561 0.0
C127 C 0.72393 0.38157 0.07579 0.0
C128 C 0.70789 0.40209 0.08727 0.0
C129 C 0.71244 0.3795 0.05357 0.0
C130 C 0.74582 0.37449 0.03885 0.0
C131 C 0.66799 0.38327 0.04689 0.0
C132 C 0.6571 0.38203 0.02594 0.0
C133 C 0.69049 0.37724 0.01111 0.0
C134 C 0.78717 0.34559 0.11773 0.0
C135 C 0.81889 0.35263 0.1328 0.0
C136 C 0.7785 0.31977 0.11449 0.0
C137 C 0.79965 0.3015 0.12667 0.0
C138 C 0.82993 0.30864 0.14235 0.0
C139 C 0.83983 0.33442 0.145 0.0
C140 C 0.73505 0.37354 0.01786 0.0
H141 H 0.73315 0.46641 0.1585 0.0
H142 H 0.76283 0.43254 0.13715 0.0
H143 H 0.63369 0.42483 0.1071 0.0
H144 H 0.60451 0.45937 0.1279 0.0
H145 H 0.75037 0.38712 0.13434 0.0
H146 H 0.68821 0.41654 0.07968 0.0
H147 H 0.76304 0.34734 0.07684 0.0
H148 H 0.78046 0.37184 0.04355 0.0
H149 H 0.64146 0.38691 0.05793 0.0
H150 H 0.62231 0.38446 0.02144 0.0
H151 H 0.82684 0.37234 0.13549 0.0
H152 H 0.75411 0.31371 0.10308 0.0
H153 H 0.76184 0.37021 0.0069 0.0
H154 H 0.8627 0.34067 0.15699 0.0
H155 H 0.79185 0.28177 0.12396 0.0
C156 C 0.677 0.55475 0.64882 0.0
C157 C 0.6821 0.53007 0.6413 0.0
C158 C 0.69013 0.57552 0.63697 0.0
C159 C 0.7086 0.57226 0.61721 0.0
C160 C 0.71304 0.54766 0.60943 0.0
C161 C 0.70003 0.52675 0.62139 0.0
C162 C 0.72317 0.59476 0.60511 0.0
C163 C 0.74676 0.61428 0.615 0.0
C164 C 0.75576 0.6374 0.60504 0.0
C165 C 0.74314 0.64003 0.58418 0.0
C166 C 0.72177 0.62005 0.57356 0.0
C167 C 0.71151 0.59756 0.58427 0.0
C168 C 0.70984 0.62257 0.55133 0.0
C169 C 0.69101 0.64495 0.54351 0.0
C170 C 0.71731 0.60241 0.53773 0.0
C171 C 0.70649 0.60456 0.51684 0.0
C172 C 0.68786 0.62693 0.50895 0.0
C173 C 0.77692 0.6587 0.61685 0.0
C174 C 0.76953 0.6609 0.63822 0.0
C175 C 0.80464 0.6769 0.6072 0.0
C176 C 0.8241 0.69665 0.6186 0.0
C177 C 0.81738 0.6984 0.64008 0.0
C178 C 0.7902 0.67995 0.64966 0.0
C179 C 0.67997 0.64707 0.52255 0.0
H180 H 0.66222 0.5581 0.66382 0.0
H181 H 0.68534 0.59426 0.64323 0.0
H182 H 0.72733 0.54457 0.59428 0.0
H183 H 0.70464 0.50798 0.61516 0.0
H184 H 0.75789 0.61127 0.6307 0.0
H185 H 0.69306 0.58257 0.57658 0.0
H186 H 0.74974 0.6576 0.57613 0.0
H187 H 0.68437 0.66074 0.55361 0.0
H188 H 0.73208 0.58499 0.54319 0.0
H189 H 0.71244 0.58856 0.50686 0.0
H190 H 0.74746 0.64795 0.64636 0.0
H191 H 0.81178 0.67589 0.59087 0.0
H192 H 0.66582 0.66458 0.51695 0.0
H193 H 0.78484 0.67992 0.66616 0.0
H194 H 0.84415 0.71057 0.61044 0.0
C195 C 0.7797 0.86209 0.01881 0.0
C196 C 0.81639 0.87582 0.01086 0.0
C197 C 0.76777 0.86426 0.03965 0.0
C198 C 0.79286 0.87985 0.05308 0.0
C199 C 0.83035 0.89302 0.04503 0.0
C200 C 0.84161 0.89124 0.02416 0.0
C201 C 0.78048 0.88236 0.07539 0.0
C202 C 0.76233 0.86175 0.08645 0.0
C203 C 0.75232 0.86377 0.10759 0.0
C204 C 0.76213 0.88658 0.1178 0.0
C205 C 0.78054 0.9075 0.10724 0.0
C206 C 0.78811 0.9053 0.08587 0.0
C207 C 0.79395 0.931 0.11875 0.0
C208 C 0.77223 0.9379 0.1372 0.0
C209 C 0.83041 0.94606 0.11204 0.0
C210 C 0.84518 0.96684 0.12356 0.0
C211 C 0.82525 0.97279 0.14265 0.0
C212 C 0.7322 0.84203 0.11922 0.0
C213 C 0.69958 0.82621 0.1101 0.0
C214 C 0.74448 0.83741 0.13984 0.0
C215 C 0.72387 0.81809 0.15118 0.0
C216 C 0.69107 0.80232 0.14216 0.0
C217 C 0.67949 0.80653 0.12137 0.0
C218 C 0.78814 0.95807 0.14913 0.0
H219 H 0.75956 0.85021 0.00878 0.0
H220 H 0.73837 0.85405 0.04508 0.0
H221 H 0.85143 0.90463 0.05485 0.0
H222 H 0.87033 0.90183 0.0184 0.0
H223 H 0.75729 0.84381 0.07879 0.0
H224 H 0.79984 0.92159 0.07727 0.0
H225 H 0.75571 0.88786 0.13415 0.0
H226 H 0.74312 0.92757 0.14277 0.0
H227 H 0.84874 0.94154 0.09814 0.0
H228 H 0.87276 0.97799 0.11744 0.0
H229 H 0.6889 0.82927 0.09433 0.0
H230 H 0.77009 0.84875 0.14735 0.0
H231 H 0.77172 0.96153 0.16372 0.0
H232 H 0.65493 0.79461 0.11372 0.0
H233 H 0.73333 0.81587 0.1672 0.0
C234 C 0.16981 0.94195 0.35598 0.0
C235 C 0.17133 0.96661 0.36381 0.0
C236 C 0.18382 0.92163 0.368 0.0
C237 C 0.20023 0.92546 0.38812 0.0
C238 C 0.20144 0.95016 0.39606 0.0
C239 C 0.18696 0.97054 0.38402 0.0
C240 C 0.21564 0.90351 0.40055 0.0
C241 C 0.23897 0.88385 0.39091 0.0
C242 C 0.24937 0.86151 0.40152 0.0
C243 C 0.23816 0.85949 0.42253 0.0
C244 C 0.21633 0.87941 0.43271 0.0
C245 C 0.2051 0.90132 0.42159 0.0
C246 C 0.20378 0.87706 0.4548 0.0
C247 C 0.18271 0.855 0.46224 0.0
C248 C 0.21233 0.89701 0.46854 0.0
C249 C 0.2004 0.89487 0.48932 0.0
C250 C 0.17925 0.87283 0.49676 0.0
C251 C 0.27026 0.84017 0.39018 0.0
C252 C 0.25685 0.83487 0.36984 0.0
C253 C 0.30401 0.82531 0.39922 0.0
C254 C 0.32442 0.80595 0.38797 0.0
C255 C 0.31158 0.80109 0.36744 0.0
C256 C 0.27745 0.81578 0.35859 0.0
C257 C 0.17036 0.85296 0.48299 0.0
H258 H 0.15704 0.93829 0.34061 0.0
H259 H 0.18123 0.90282 0.36157 0.0
H260 H 0.21414 0.95377 0.41143 0.0
H261 H 0.18861 0.98942 0.3904 0.0
H262 H 0.24889 0.88593 0.37491 0.0
H263 H 0.18647 0.91618 0.42915 0.0
H264 H 0.2459 0.84235 0.43091 0.0
H265 H 0.17532 0.83942 0.45195 0.0
H266 H 0.22872 0.91418 0.46324 0.0
H267 H 0.20744 0.91054 0.49956 0.0
H268 H 0.23034 0.84555 0.36248 0.0
H269 H 0.31528 0.82894 0.41482 0.0
H270 H 0.15446 0.83567 0.48833 0.0
H271 H 0.26705 0.81288 0.34276 0.0
H272 H 0.35022 0.79479 0.39537 0.0
C273 C 0.28344 0.63636 0.98966 0.0
C274 C 0.32415 0.62577 0.99655 0.0
C275 C 0.2702 0.6343 0.96901 0.0
C276 C 0.29755 0.62185 0.95463 0.0
C277 C 0.3385 0.61155 0.96148 0.0
C278 C 0.3514 0.61329 0.98215 0.0
C279 C 0.28389 0.6196 0.93254 0.0
C280 C 0.2619 0.63948 0.92229 0.0
C281 C 0.25169 0.63782 0.90114 0.0
C282 C 0.26404 0.61602 0.8902 0.0
C283 C 0.28589 0.59593 0.90015 0.0
C284 C 0.29454 0.59771 0.92139 0.0
C285 C 0.302 0.57369 0.88825 0.0
C286 C 0.27667 0.56355 0.87187 0.0
C287 C 0.34383 0.56281 0.89295 0.0
C288 C 0.36002 0.54249 0.88156 0.0
C289 C 0.33523 0.53267 0.8649 0.0
C290 C 0.22966 0.65919 0.89021 0.0
C291 C 0.19277 0.6717 0.89899 0.0
C292 C 0.24521 0.66705 0.87073 0.0
C293 C 0.2242 0.68677 0.86021 0.0
C294 C 0.18705 0.69916 0.86886 0.0
C295 C 0.17157 0.6914 0.8884 0.0
C296 C 0.29315 0.54333 0.86029 0.0
H297 H 0.26186 0.64653 1.00016 0.0
H298 H 0.23832 0.64231 0.9644 0.0
H299 H 0.36101 0.60226 0.95084 0.0
H300 H 0.3827 0.60465 0.98683 0.0
H301 H 0.25429 0.6567 0.93053 0.0
H302 H 0.30978 0.58191 0.9293 0.0
H303 H 0.25724 0.6149 0.87382 0.0
H304 H 0.2441 0.57123 0.86795 0.0
H305 H 0.36469 0.57028 0.90523 0.0
H306 H 0.39217 0.53453 0.88582 0.0
H307 H 0.17984 0.666 0.91392 0.0
H308 H 0.27387 0.65802 0.86363 0.0
H309 H 0.27326 0.53641 0.84747 0.0
H310 H 0.14324 0.70067 0.89556 0.0
H311 H 0.23669 0.69207 0.8451 0.0
C312 C 0.86077 0.11335 0.25606 0.0
C313 C 0.86073 0.0695 0.26679 0.0
C314 C 0.88074 0.09373 0.2668 0.0
C315 C 0.82139 0.06518 0.25524 0.0
C316 C 0.82065 0.10932 0.24491 0.0
C317 C 0.80139 0.08504 0.24434 0.0
N318 N 0.88103 0.13642 0.25635 0.0
C319 C 0.86108 0.15676 0.24736 0.0
C320 C 0.80104 0.12988 0.23478 0.0
C321 C 0.82105 0.15378 0.23625 0.0
Gd322 Gd 0.05638 0.13916 0.23416 0.0
Gd323 Gd 0.94959 0.13947 0.27405 0.0
N324 N 0.9192 0.09847 0.27757 0.0
C325 C 0.88049 0.05046 0.27863 0.0
C326 C 0.93675 0.08045 0.29023 0.0
C327 C 0.91819 0.05609 0.29068 0.0
H328 H 0.96475 0.08479 0.30022 0.0
H329 H 0.93282 0.04171 0.30044 0.0
H330 H 0.05031 0.19795 0.21665 0.0
H331 H 0.87591 0.17532 0.24878 0.0
H332 H 0.09742 0.23671 0.21602 0.0
H333 H 0.86622 0.03158 0.27901 0.0
H334 H 0.80581 0.04662 0.25488 0.0
H335 H 0.125 0.0922 0.25059 0.0
H336 H 0.77014 0.12759 0.2261 0.0
H337 H 0.80564 0.1699 0.22887 0.0
H338 H 0.23297 0.21256 0.251 0.0
H339 H 0.7708 0.08148 0.23569 0.0
H340 H 0.24793 0.12598 0.27116 0.0
H341 H 0.19974 0.08818 0.26641 0.0
N342 N 0.12795 0.1324 0.2487 0.0
C343 C 0.15494 0.15321 0.2501 0.0
C344 C 0.1444 0.1091 0.25357 0.0
C345 C 0.21444 0.12802 0.26479 0.0
C346 C 0.18732 0.10664 0.26215 0.0
C347 C 0.19886 0.15158 0.25825 0.0
H348 H 0.26009 0.17237 0.26527 0.0
N349 N 0.09764 0.17688 0.23403 0.0
C350 C 0.13972 0.17596 0.24214 0.0
C351 C 0.15213 0.21967 0.23272 0.0
C352 C 0.16792 0.1975 0.24198 0.0
C353 C 0.08286 0.19799 0.22406 0.0
C354 C 0.10956 0.21983 0.22356 0.0
O355 O 0.94393 0.12556 0.24113 0.0
O356 O 0.01012 0.10519 0.23498 0.0
O357 O 0.04276 0.14303 0.20139 0.0
O358 O 0.10479 0.12611 0.21161 0.0
O359 O 0.01101 0.11738 0.28436 0.0
O360 O 0.04882 0.1045 0.25466 0.0
O361 O 0.0508 0.17092 0.25751 0.0
O362 O 0.01932 0.14964 0.28441 0.0
O363 O 0.91864 0.13528 0.30448 0.0
O364 O 0.92235 0.17241 0.28951 0.0
O365 O 0.99352 0.15976 0.22497 0.0
O366 O 0.95983 0.17493 0.2547 0.0
C367 C 0.96612 0.10627 0.23383 0.0
C368 C 0.03899 0.1024 0.27444 0.0
C369 C 0.07663 0.11349 0.17931 0.0
C370 C 0.09077 0.1024 0.1435 0.0
C371 C 0.06099 0.07098 0.16735 0.0
C372 C 0.06128 0.08882 0.1832 0.0
C373 C 0.076 0.07764 0.14762 0.0
C374 C 0.09069 0.12032 0.1594 0.0
C375 C 0.07994 0.13215 0.19589 0.0
C376 C 0.211 0.19614 0.25078 0.0
C377 C 0.22638 0.17326 0.25894 0.0
H378 H 0.17278 0.23661 0.23229 0.0
C379 C 0.04139 0.16915 0.27723 0.0
C380 C 0.96904 0.17651 0.23479 0.0
C381 C 0.88775 0.17087 0.32358 0.0
C382 C 0.8709 0.17234 0.36059 0.0
C383 C 0.84275 0.20489 0.33741 0.0
C384 C 0.86356 0.19325 0.32075 0.0
C385 C 0.84627 0.19458 0.35713 0.0
C386 C 0.89115 0.1603 0.34355 0.0
C387 C 0.91034 0.15932 0.30567 0.0
H388 H 0.04957 0.05189 0.17041 0.0
H389 H 0.05014 0.08332 0.19848 0.0
H390 H 0.07584 0.06354 0.13554 0.0
H391 H 0.10264 0.13938 0.1564 0.0
H392 H 0.8238 0.22203 0.33505 0.0
H393 H 0.8605 0.20171 0.30559 0.0
H394 H 0.82926 0.20398 0.3697 0.0
H395 H 0.91049 0.14327 0.34589 0.0
C396 C 0.65494 0.38409 0.75933 0.0
C397 C 0.65373 0.42883 0.76727 0.0
C398 C 0.63273 0.40485 0.76746 0.0
C399 C 0.69659 0.43173 0.7584 0.0
C400 C 0.69805 0.38689 0.7505 0.0
C401 C 0.71869 0.41083 0.75005 0.0
N402 N 0.6334 0.36135 0.7592 0.0
C403 C 0.6534 0.34053 0.75107 0.0
C404 C 0.71874 0.36563 0.74203 0.0
C405 C 0.69636 0.34233 0.74239 0.0
Gd406 Gd 0.45423 0.36678 0.7339 0.0
Gd407 Gd 0.56083 0.36026 0.77321 0.0
N408 N 0.59056 0.40161 0.77537 0.0
C409 C 0.63115 0.44917 0.77616 0.0
C410 C 0.57004 0.421 0.78539 0.0
C411 C 0.58948 0.44513 0.78557 0.0
H412 H 0.53949 0.41797 0.79386 0.0
H413 H 0.57258 0.46051 0.79324 0.0
H414 H 0.46744 0.30843 0.71395 0.0
H415 H 0.6363 0.32249 0.75143 0.0
H416 H 0.42303 0.26954 0.70971 0.0
H417 H 0.64612 0.46789 0.77633 0.0
H418 H 0.71302 0.45006 0.75797 0.0
H419 H 0.38427 0.40905 0.75432 0.0
H420 H 0.75185 0.36701 0.73511 0.0
H421 H 0.71211 0.32577 0.73591 0.0
H422 H 0.27916 0.28941 0.73873 0.0
H423 H 0.75168 0.41339 0.74321 0.0
H424 H 0.25779 0.37262 0.76575 0.0
H425 H 0.30654 0.41064 0.76763 0.0
N426 N 0.38088 0.37018 0.74677 0.0
C427 C 0.35442 0.34923 0.74513 0.0
C428 C 0.36401 0.39213 0.75437 0.0
C429 C 0.29226 0.37169 0.76039 0.0
C430 C 0.3197 0.39317 0.76153 0.0
C431 C 0.30931 0.34944 0.75188 0.0
H432 H 0.24781 0.32747 0.75477 0.0
N433 N 0.41609 0.32803 0.73 0.0
C434 C 0.37224 0.32771 0.73613 0.0
C435 C 0.36394 0.28473 0.72418 0.0
C436 C 0.34513 0.30596 0.73356 0.0
C437 C 0.43398 0.3077 0.72017 0.0
C438 C 0.40847 0.28568 0.71737 0.0
O439 O 0.5723 0.37764 0.74167 0.0
O440 O 0.50568 0.39773 0.73766 0.0
O441 O 0.45702 0.36532 0.70037 0.0
O442 O 0.41429 0.39245 0.7155 0.0
O443 O 0.49715 0.37913 0.78496 0.0
O444 O 0.46748 0.39844 0.75619 0.0
O445 O 0.44137 0.34393 0.76307 0.0
O446 O 0.5111 0.32826 0.77168 0.0
O447 O 0.56584 0.36326 0.807 0.0
O448 O 0.60484 0.33527 0.78997 0.0
O449 O 0.51512 0.34482 0.72294 0.0
O450 O 0.54971 0.32722 0.75167 0.0
C451 C 0.54799 0.39502 0.73273 0.0
C452 C 0.47052 0.39593 0.77632 0.0
C453 C 0.38886 0.37572 0.68382 0.0
C454 C 0.36153 0.36963 0.64876 0.0
C455 C 0.31201 0.36154 0.67782 0.0
C456 C 0.34633 0.36848 0.69136 0.0
C457 C 0.31957 0.36195 0.65662 0.0
C458 C 0.39617 0.37658 0.66242 0.0
C459 C 0.42574 0.38222 0.69807 0.0
C460 C 0.30035 0.30601 0.74047 0.0
C461 C 0.28252 0.32767 0.74965 0.0
H462 H 0.34427 0.26764 0.72196 0.0
C463 C 0.46743 0.32919 0.77415 0.0
C464 C 0.54151 0.3279 0.73165 0.0
C465 C 0.61397 0.33461 0.82703 0.0
C466 C 0.62765 0.33689 0.86412 0.0
C467 C 0.65003 0.29978 0.84488 0.0
C468 C 0.63373 0.31057 0.82678 0.0
C469 C 0.64683 0.31276 0.86346 0.0
C470 C 0.61131 0.34791 0.84583 0.0
C471 C 0.59431 0.34469 0.8078 0.0
H472 H 0.27941 0.35593 0.68378 0.0
H473 H 0.33939 0.36833 0.70767 0.0
H474 H 0.29241 0.35669 0.6463 0.0
H475 H 0.42871 0.3824 0.65642 0.0
H476 H 0.66496 0.28121 0.84453 0.0
H477 H 0.63597 0.29986 0.81261 0.0
H478 H 0.65972 0.30406 0.87738 0.0
H479 H 0.59614 0.36645 0.84631 0.0
C480 C 0.85413 0.83343 0.75459 0.0
C481 C 0.85902 0.78873 0.76253 0.0
C482 C 0.87693 0.81342 0.76381 0.0
C483 C 0.81836 0.78447 0.75199 0.0
C484 C 0.81348 0.82918 0.7439 0.0
C485 C 0.79568 0.80462 0.74271 0.0
N486 N 0.87292 0.85692 0.75526 0.0
C487 C 0.85209 0.87712 0.74648 0.0
C488 C 0.79215 0.84975 0.73455 0.0
C489 C 0.81146 0.87384 0.73593 0.0
Gd490 Gd 0.05112 0.85723 0.73575 0.0
Gd491 Gd 0.94004 0.86069 0.77371 0.0
N492 N 0.91663 0.81804 0.77379 0.0
C493 C 0.88235 0.76901 0.77199 0.0
C494 C 0.93775 0.79909 0.78418 0.0
C495 C 0.92157 0.77427 0.78306 0.0
H496 H 0.96623 0.8029 0.7939 0.0
H497 H 0.93899 0.75926 0.79103 0.0
H498 H 0.04705 0.91574 0.71685 0.0
H499 H 0.86676 0.89575 0.74774 0.0
H500 H 0.0972 0.95281 0.71293 0.0
H501 H 0.86981 0.74977 0.77125 0.0
H502 H 0.8041 0.76563 0.75095 0.0
H503 H 0.11542 0.81056 0.75413 0.0
H504 H 0.76079 0.84725 0.72625 0.0
H505 H 0.79505 0.88987 0.72888 0.0
H506 H 0.23729 0.92579 0.74228 0.0
H507 H 0.76446 0.80097 0.73457 0.0
H508 H 0.24615 0.84069 0.76729 0.0
H509 H 0.19233 0.8048 0.76754 0.0
N510 N 0.12366 0.84986 0.74879 0.0
C511 C 0.15321 0.86953 0.74774 0.0
C512 C 0.13764 0.82666 0.75517 0.0
C513 C 0.21191 0.84349 0.76206 0.0
C514 C 0.18161 0.82321 0.76228 0.0
C515 C 0.19814 0.86691 0.75436 0.0
H516 H 0.26273 0.8858 0.75762 0.0
N517 N 0.09579 0.89367 0.73247 0.0
C518 C 0.1391 0.89197 0.73896 0.0
C519 C 0.15371 0.93469 0.72744 0.0
C520 C 0.16922 0.9125 0.73673 0.0
C521 C 0.08087 0.91492 0.72278 0.0
C522 C 0.10936 0.93586 0.72037 0.0
O523 O 0.93576 0.84738 0.74056 0.0
O524 O 0.00088 0.82598 0.74 0.0
O525 O 0.04504 0.8609 0.70224 0.0
O526 O 0.08698 0.83201 0.71557 0.0
O527 O 0.00292 0.84366 0.7876 0.0
O528 O 0.03825 0.82659 0.75937 0.0
O529 O 0.05593 0.88811 0.75981 0.0
O530 O 0.99976 0.88328 0.78486 0.0
O531 O 0.91165 0.85333 0.80418 0.0
O532 O 0.89469 0.88747 0.78781 0.0
O533 O 0.99113 0.88048 0.72581 0.0
O534 O 0.95449 0.89587 0.75491 0.0
C535 C 0.96017 0.82913 0.73314 0.0
C536 C 0.03443 0.82947 0.77944 0.0
C537 C 0.11192 0.84983 0.6843 0.0
C538 C 0.13954 0.85481 0.64911 0.0
C539 C 0.19168 0.85692 0.67784 0.0
C540 C 0.15624 0.85296 0.69158 0.0
C541 C 0.18348 0.85768 0.6567 0.0
C542 C 0.10363 0.85106 0.66295 0.0
C543 C 0.07509 0.84362 0.69877 0.0
C544 C 0.21369 0.91019 0.74376 0.0
C545 C 0.22812 0.88745 0.75256 0.0
H546 H 0.17575 0.95091 0.72551 0.0
C547 C 0.03732 0.8935 0.77774 0.0
C548 C 0.96653 0.8976 0.73533 0.0
C549 C 0.90104 0.89016 0.82424 0.0
C550 C 0.90011 0.89394 0.86189 0.0
C551 C 0.92766 0.92867 0.84069 0.0
C552 C 0.91941 0.91467 0.82291 0.0
C553 C 0.91853 0.91835 0.86004 0.0
C554 C 0.89096 0.87994 0.84386 0.0
C555 C 0.89249 0.87531 0.80527 0.0
H556 H 0.22568 0.8591 0.6836 0.0
H557 H 0.16379 0.85182 0.70784 0.0
H558 H 0.21146 0.86053 0.64621 0.0
H559 H 0.06972 0.84849 0.6571 0.0
H560 H 0.94138 0.9476 0.83947 0.0
H561 H 0.92757 0.9231 0.80813 0.0
H562 H 0.92518 0.92967 0.87362 0.0
H563 H 0.8766 0.86112 0.84509 0.0
C564 C 0.64223 0.66818 0.2563 0.0
C565 C 0.63699 0.71202 0.26654 0.0
C566 C 0.61943 0.68721 0.26652 0.0
C567 C 0.67695 0.71744 0.25576 0.0
C568 C 0.68281 0.67337 0.24583 0.0
C569 C 0.69986 0.69816 0.24548 0.0
N570 N 0.62418 0.64455 0.25633 0.0
C571 C 0.64628 0.62488 0.24749 0.0
C572 C 0.70505 0.65344 0.23608 0.0
C573 C 0.68691 0.62904 0.23711 0.0
Gd574 Gd 0.44661 0.64112 0.23479 0.0
Gd575 Gd 0.55532 0.63923 0.27322 0.0
N576 N 0.58065 0.68136 0.27675 0.0
C577 C 0.61427 0.73057 0.27769 0.0
C578 C 0.56055 0.69894 0.28896 0.0
C579 C 0.57633 0.72389 0.28922 0.0
H580 H 0.53303 0.69385 0.29895 0.0
H581 H 0.55958 0.73788 0.29857 0.0
H582 H 0.45156 0.58687 0.20924 0.0
H583 H 0.63252 0.606 0.24843 0.0
H584 H 0.41039 0.54609 0.2078 0.0
H585 H 0.62654 0.74989 0.27801 0.0
H586 H 0.69074 0.73644 0.2555 0.0
H587 H 0.3778 0.68104 0.26076 0.0
H588 H 0.73642 0.65665 0.22794 0.0
H589 H 0.70418 0.61345 0.2299 0.0
H590 H 0.28987 0.55601 0.25648 0.0
H591 H 0.73087 0.70258 0.23741 0.0
H592 H 0.27225 0.63712 0.28796 0.0
H593 H 0.31156 0.67809 0.28337 0.0
N594 N 0.38059 0.64151 0.25505 0.0
C595 C 0.35714 0.61934 0.25588 0.0
C596 C 0.36305 0.66275 0.26373 0.0
C597 C 0.30235 0.63815 0.27856 0.0
C598 C 0.32456 0.66128 0.27609 0.0
C599 C 0.31778 0.61696 0.26791 0.0
H600 H 0.26434 0.59156 0.27775 0.0
N601 N 0.40904 0.60224 0.23225 0.0
C602 C 0.37117 0.59931 0.24378 0.0
C603 C 0.36136 0.557 0.23055 0.0
C604 C 0.34674 0.5764 0.24353 0.0
C605 C 0.42256 0.58384 0.21899 0.0
C606 C 0.39919 0.56084 0.21808 0.0
O607 O 0.56123 0.65345 0.24037 0.0
O608 O 0.49484 0.67415 0.23613 0.0
O609 O 0.448 0.6436 0.20056 0.0
O610 O 0.39168 0.65792 0.21871 0.0
O611 O 0.49227 0.65769 0.28525 0.0
O612 O 0.4576 0.6744 0.25635 0.0
O613 O 0.4585 0.6072 0.25528 0.0
O614 O 0.48744 0.62558 0.28417 0.0
O615 O 0.58775 0.64293 0.30328 0.0
O616 O 0.58571 0.60628 0.28758 0.0
O617 O 0.50809 0.62055 0.22286 0.0
O618 O 0.54632 0.60563 0.25193 0.0
C619 C 0.53802 0.6721 0.23264 0.0
C620 C 0.46513 0.67396 0.27638 0.0
C621 C 0.38468 0.66418 0.18219 0.0
C622 C 0.37062 0.66592 0.145 0.0
C623 C 0.32469 0.69038 0.16862 0.0
C624 C 0.3493 0.68128 0.18522 0.0
C625 C 0.335 0.68271 0.14871 0.0
C626 C 0.39537 0.65647 0.16195 0.0
C627 C 0.40892 0.65466 0.20053 0.0
C628 C 0.30871 0.5736 0.2562 0.0
C629 C 0.2943 0.59382 0.26839 0.0
H630 H 0.34351 0.5391 0.22993 0.0
C631 C 0.46409 0.60759 0.2753 0.0
C632 C 0.53572 0.60454 0.2321 0.0
C633 C 0.62191 0.60747 0.32134 0.0
C634 C 0.63828 0.60448 0.35825 0.0
C635 C 0.66747 0.57314 0.33449 0.0
C636 C 0.64679 0.58542 0.31803 0.0
C637 C 0.66303 0.58246 0.35446 0.0
C638 C 0.61831 0.61726 0.34153 0.0
C639 C 0.59768 0.61905 0.30388 0.0
H640 H 0.29726 0.70333 0.1712 0.0
H641 H 0.34034 0.68766 0.20054 0.0
H642 H 0.31449 0.68974 0.13617 0.0
H643 H 0.42262 0.64335 0.1594 0.0
H644 H 0.68662 0.55617 0.33178 0.0
H645 H 0.65007 0.57758 0.30269 0.0
H646 H 0.6791 0.57246 0.36703 0.0
H647 H 0.59868 0.63407 0.34433 0.0
C648 C 0.1697 0.98988 0.33022 0.0
C649 C 0.15583 0.98794 0.35084 0.0
C650 C 0.15312 0.00896 0.31732 0.0
C651 C 0.12148 0.02631 0.32517 0.0
C652 C 0.10796 0.02472 0.34609 0.0
C653 C 0.12557 0.00563 0.35873 0.0
C654 C 0.16902 0.01035 0.29522 0.0
C655 C 0.07387 0.0427 0.35494 0.0
C656 C 0.09947 0.08866 0.29811 0.0
C657 C 0.06142 0.08267 0.28638 0.0
C658 C 0.12055 0.0702 0.3102 0.0
C659 C 0.10146 0.04564 0.31136 0.0
C660 C 0.06274 0.03964 0.29952 0.0
C661 C 0.04393 0.05812 0.28668 0.0
C662 C 0.16295 0.07702 0.3218 0.0
C663 C 0.0405 0.01396 0.30081 0.0
H664 H 0.19353 0.97638 0.32417 0.0
H665 H 0.1145 0.00402 0.37461 0.0
H666 H 0.14038 0.00673 0.28464 0.0
H667 H 0.18211 0.02957 0.29173 0.0
H668 H 0.19582 0.99642 0.29189 0.0
H669 H 0.06727 0.0391 0.37156 0.0
H670 H 0.0858 0.06247 0.35311 0.0
H671 H 0.04167 0.04093 0.34637 0.0
H672 H 0.11287 0.10776 0.29769 0.0
H673 H 0.01478 0.0536 0.27731 0.0
H674 H 0.18976 0.06316 0.3184 0.0
H675 H 0.1565 0.07626 0.33864 0.0
H676 H 0.17555 0.09621 0.31777 0.0
H677 H 0.06451 0.99912 0.29609 0.0
H678 H 0.01006 0.01256 0.29092 0.0
H679 H 0.0306 0.00992 0.317 0.0
C680 C 0.32595 0.49244 0.84462 0.0
C681 C 0.35392 0.51181 0.85218 0.0
C682 C 0.34344 0.47284 0.8325 0.0
C683 C 0.39007 0.47244 0.82804 0.0
C684 C 0.41851 0.49179 0.83573 0.0
C685 C 0.40006 0.5113 0.84753 0.0
C686 C 0.312 0.45269 0.82434 0.0
C687 C 0.46844 0.492 0.83134 0.0
C688 C 0.44464 0.4112 0.81091 0.0
C689 C 0.44883 0.4151 0.7896 0.0
C690 C 0.42522 0.4296 0.82363 0.0
C691 C 0.40912 0.45228 0.81477 0.0
C692 C 0.41284 0.45619 0.79325 0.0
C693 C 0.43326 0.43776 0.781 0.0
C694 C 0.42258 0.42497 0.84657 0.0
C695 C 0.39569 0.47999 0.78316 0.0
H696 H 0.29039 0.49245 0.84831 0.0
H697 H 0.42187 0.52641 0.85289 0.0
H698 H 0.31358 0.45226 0.80724 0.0
H699 H 0.32265 0.43386 0.82996 0.0
H700 H 0.27655 0.4558 0.82907 0.0
H701 H 0.48622 0.5078 0.8392 0.0
H702 H 0.48361 0.47394 0.83641 0.0
H703 H 0.47432 0.49374 0.8145 0.0
H704 H 0.45682 0.39382 0.81769 0.0
H705 H 0.43725 0.44124 0.76462 0.0
H706 H 0.38713 0.4261 0.85183 0.0
H707 H 0.44182 0.43983 0.85487 0.0
H708 H 0.43616 0.40624 0.85102 0.0
H709 H 0.3598 0.48286 0.78718 0.0
H710 H 0.39884 0.47948 0.76609 0.0
H711 H 0.41478 0.49658 0.78899 0.0
C712 C 0.64453 0.48766 0.64546 0.0
C713 C 0.66783 0.50813 0.65422 0.0
C714 C 0.62767 0.46792 0.65781 0.0
C715 C 0.63395 0.46878 0.67945 0.0
C716 C 0.65876 0.48891 0.68832 0.0
C717 C 0.67558 0.50825 0.67559 0.0
C718 C 0.60171 0.44662 0.6478 0.0
C719 C 0.66615 0.4905 0.71133 0.0
C720 C 0.54723 0.43563 0.7131 0.0
C721 C 0.56996 0.41364 0.71893 0.0
C722 C 0.56772 0.45367 0.70025 0.0
C723 C 0.61199 0.44958 0.69296 0.0
C724 C 0.63511 0.42738 0.69874 0.0
C725 C 0.61373 0.40963 0.7116 0.0
C726 C 0.54207 0.47721 0.69459 0.0
C727 C 0.68235 0.42236 0.69133 0.0
H728 H 0.63806 0.48747 0.62901 0.0
H729 H 0.69438 0.5237 0.68245 0.0
H730 H 0.61534 0.42814 0.6528 0.0
H731 H 0.566 0.44723 0.65275 0.0
H732 H 0.6029 0.44764 0.6307 0.0
H733 H 0.68835 0.5066 0.71567 0.0
H734 H 0.63332 0.49273 0.71926 0.0
H735 H 0.68129 0.47278 0.71718 0.0
H736 H 0.51342 0.43891 0.71872 0.0
H737 H 0.63126 0.39251 0.71579 0.0
H738 H 0.53865 0.4786 0.67759 0.0
H739 H 0.56092 0.49419 0.69982 0.0
H740 H 0.50792 0.47752 0.70154 0.0
H741 H 0.68305 0.42196 0.67423 0.0
H742 H 0.69564 0.40418 0.69728 0.0
H743 H 0.70523 0.43781 0.69634 0.0
C744 C 0.88995 0.00011 0.15509 0.0
C745 C 0.84397 0.99356 0.15598 0.0
C746 C 0.90819 0.01925 0.16757 0.0
C747 C 0.8805 0.0315 0.18214 0.0
C748 C 0.83436 0.02492 0.18344 0.0
C749 C 0.81649 0.00652 0.17007 0.0
C750 C 0.95728 0.0263 0.16521 0.0
C751 C 0.80407 0.03696 0.19927 0.0
C752 C 0.9437 0.06191 0.22674 0.0
C753 C 0.94241 0.08742 0.22124 0.0
C754 C 0.9219 0.0436 0.21462 0.0
C755 C 0.90016 0.05098 0.19612 0.0
C756 C 0.8989 0.07688 0.19059 0.0
C757 C 0.91932 0.09488 0.20349 0.0
C758 C 0.92245 0.01637 0.22154 0.0
C759 C 0.8774 0.08548 0.17072 0.0
H760 H 0.91229 0.99007 0.14486 0.0
H761 H 0.78082 0.00237 0.1708 0.0
H762 H 0.9608 0.04695 0.16263 0.0
H763 H 0.97579 0.02171 0.17957 0.0
H764 H 0.97351 0.0163 0.15217 0.0
H765 H 0.76885 0.02989 0.19827 0.0
H766 H 0.81708 0.03298 0.21497 0.0
H767 H 0.80402 0.05777 0.19731 0.0
H768 H 0.96129 0.05637 0.24068 0.0
H769 H 0.91866 0.11473 0.19934 0.0
H770 H 0.94236 0.00498 0.21054 0.0
H771 H 0.88772 0.00851 0.22166 0.0
H772 H 0.93719 0.01414 0.23718 0.0
H773 H 0.89473 0.0766 0.15745 0.0
H774 H 0.87894 0.10632 0.16879 0.0
H775 H 0.84167 0.07935 0.17016 0.0
C776 C 0.82997 0.99229 0.66204 0.0
C777 C 0.85487 0.01437 0.65803 0.0
C778 C 0.84693 0.97334 0.67505 0.0
C779 C 0.88967 0.97664 0.68438 0.0
C780 C 0.9147 0.99902 0.68058 0.0
C781 C 0.89705 0.01757 0.66743 0.0
C782 C 0.8194 0.94964 0.67858 0.0
C783 C 0.96031 0.00331 0.69029 0.0
C784 C 0.92064 0.93712 0.73137 0.0
C785 C 0.94711 0.91815 0.72252 0.0
C786 C 0.90129 0.95612 0.71913 0.0
C787 C 0.90899 0.95635 0.69757 0.0
C788 C 0.93585 0.93739 0.68857 0.0
C789 C 0.9544 0.91853 0.70111 0.0
C790 C 0.87264 0.97598 0.72926 0.0
C791 C 0.94507 0.937 0.66567 0.0
H792 H 0.79753 0.98962 0.65468 0.0
H793 H 0.91614 0.03477 0.66465 0.0
H794 H 0.83808 0.933 0.67287 0.0
H795 H 0.81367 0.94675 0.69533 0.0
H796 H 0.78626 0.9503 0.67067 0.0
H797 H 0.97511 0.02194 0.68607 0.0
H798 H 0.95756 0.00217 0.70733 0.0
H799 H 0.9838 0.98829 0.68536 0.0
H800 H 0.91481 0.93709 0.74786 0.0
H801 H 0.97466 0.90401 0.69401 0.0
H802 H 0.83855 0.97597 0.72228 0.0
H803 H 0.88756 0.99497 0.72657 0.0
H804 H 0.86924 0.97292 0.74614 0.0
H805 H 0.91291 0.93575 0.65703 0.0
H806 H 0.96661 0.9209 0.66108 0.0
H807 H 0.96202 0.95482 0.66092 0.0
C808 C 0.60504 0.48349 0.16675 0.0
C809 C 0.64816 0.48588 0.15814 0.0
C810 C 0.5871 0.50263 0.17912 0.0
C811 C 0.61295 0.52466 0.18299 0.0
C812 C 0.65668 0.5271 0.17454 0.0
C813 C 0.67376 0.50768 0.16219 0.0
C814 C 0.5404 0.49931 0.18797 0.0
C815 C 0.68524 0.55033 0.17839 0.0
C816 C 0.55032 0.58399 0.19805 0.0
C817 C 0.55582 0.5842 0.21954 0.0
C818 C 0.56892 0.56478 0.18598 0.0
C819 C 0.5938 0.54536 0.1956 0.0
C820 C 0.5998 0.54551 0.21724 0.0
C821 C 0.58059 0.56487 0.22896 0.0
C822 C 0.56175 0.5652 0.16292 0.0
C823 C 0.62628 0.52514 0.22803 0.0
H824 H 0.58542 0.4665 0.16397 0.0
H825 H 0.70693 0.50975 0.15541 0.0
H826 H 0.54167 0.50052 0.20504 0.0
H827 H 0.51835 0.51474 0.18247 0.0
H828 H 0.52485 0.48094 0.18362 0.0
H829 H 0.71906 0.54897 0.1712 0.0
H830 H 0.66814 0.56725 0.17212 0.0
H831 H 0.68951 0.55331 0.19521 0.0
H832 H 0.53142 0.59886 0.19059 0.0
H833 H 0.58491 0.56475 0.24556 0.0
H834 H 0.54397 0.54772 0.15801 0.0
H835 H 0.59469 0.56566 0.15487 0.0
H836 H 0.54181 0.58174 0.15782 0.0
H837 H 0.61015 0.50647 0.22536 0.0
H838 H 0.62875 0.52833 0.24492 0.0
H839 H 0.6608 0.52426 0.22156 0.0
C840 C 0.39583 0.48946 0.34485 0.0
C841 C 0.34976 0.48859 0.34962 0.0
C842 C 0.41408 0.5091 0.33291 0.0
C843 C 0.38549 0.52814 0.32518 0.0
C844 C 0.33888 0.52728 0.32963 0.0
C845 C 0.32161 0.50762 0.34193 0.0
C846 C 0.464 0.5094 0.32848 0.0
C847 C 0.30734 0.54713 0.32139 0.0
C848 C 0.4394 0.59047 0.30944 0.0
C849 C 0.44385 0.58737 0.28808 0.0
C850 C 0.42014 0.5714 0.32171 0.0
C851 C 0.40455 0.54886 0.31233 0.0
C852 C 0.40876 0.54569 0.29076 0.0
C853 C 0.42896 0.56485 0.27895 0.0
C854 C 0.41694 0.57526 0.34472 0.0
C855 C 0.39191 0.5221 0.28013 0.0
H856 H 0.41774 0.4746 0.35029 0.0
H857 H 0.28609 0.50733 0.34571 0.0
H858 H 0.46982 0.50819 0.31162 0.0
H859 H 0.47917 0.52745 0.33382 0.0
H860 H 0.4818 0.49355 0.33611 0.0
H861 H 0.27185 0.54354 0.32599 0.0
H862 H 0.31764 0.56604 0.3271 0.0
H863 H 0.3092 0.54776 0.3043 0.0
H864 H 0.45095 0.60782 0.3166 0.0
H865 H 0.43346 0.56205 0.26256 0.0
H866 H 0.43609 0.56033 0.35285 0.0
H867 H 0.38138 0.5736 0.34978 0.0
H868 H 0.43029 0.59397 0.34958 0.0
H869 H 0.40698 0.50509 0.28727 0.0
H870 H 0.39978 0.52207 0.26339 0.0
H871 H 0.35489 0.5205 0.28204 0.0
C872 C 0.17141 0.98847 0.8535 0.0
C873 C 0.15228 0.01253 0.85213 0.0
C874 C 0.15445 0.96825 0.84176 0.0
C875 C 0.11797 0.97233 0.82812 0.0
C876 C 0.09888 0.99669 0.82655 0.0
C877 C 0.1161 0.01645 0.83866 0.0
C878 C 0.17515 0.94245 0.84414 0.0
C879 C 0.06019 0.00186 0.81208 0.0
C880 C 0.0955 0.92759 0.78348 0.0
C881 C 0.05945 0.91297 0.79095 0.0
C882 C 0.11581 0.94642 0.79561 0.0
C883 C 0.09919 0.95112 0.81568 0.0
C884 C 0.06337 0.93619 0.82353 0.0
C885 C 0.04399 0.91733 0.8111 0.0
C886 C 0.15455 0.96159 0.78681 0.0
C887 C 0.04471 0.94051 0.84488 0.0
H888 H 0.19914 0.98537 0.86405 0.0
H889 H 0.10159 0.03512 0.83743 0.0
H890 H 0.14928 0.92873 0.84952 0.0
H891 H 0.18754 0.93569 0.829 0.0
H892 H 0.20356 0.94245 0.85527 0.0
H893 H 0.04984 0.02197 0.81233 0.0
H894 H 0.06972 0.99683 0.79607 0.0
H895 H 0.03081 0.98991 0.81637 0.0
H896 H 0.10746 0.92475 0.76799 0.0
H897 H 0.01645 0.9061 0.81724 0.0
H898 H 0.18375 0.96105 0.79747 0.0
H899 H 0.1446 0.98165 0.78517 0.0
H900 H 0.16543 0.95452 0.77151 0.0
H901 H 0.07218 0.94308 0.85628 0.0
H902 H 0.02294 0.92459 0.85007 0.0
H903 H 0.02453 0.95805 0.84486 0.0
C904 C 0.18965 0.14272 0.03211 0.0
C905 C 0.17075 0.12591 0.01773 0.0
C906 C 0.17779 0.14149 0.0531 0.0
C907 C 0.14618 0.12309 0.05982 0.0
C908 C 0.12635 0.10646 0.04532 0.0
C909 C 0.13909 0.10795 0.02455 0.0
C910 C 0.19979 0.15948 0.06812 0.0
C911 C 0.09229 0.08667 0.05182 0.0
C912 C 0.14425 0.09699 0.1143 0.0
C913 C 0.10709 0.10935 0.12271 0.0
C914 C 0.15895 0.10243 0.0942 0.0
C915 C 0.13512 0.12016 0.08209 0.0
C916 C 0.09825 0.13322 0.09077 0.0
C917 C 0.08494 0.12782 0.11112 0.0
C918 C 0.19909 0.08857 0.0857 0.0
C919 C 0.07159 0.15198 0.07829 0.0
H920 H 0.21372 0.15686 0.02697 0.0
H921 H 0.12489 0.09456 0.01369 0.0
H922 H 0.17387 0.16946 0.07724 0.0
H923 H 0.22081 0.14872 0.07916 0.0
H924 H 0.22142 0.17374 0.06025 0.0
H925 H 0.07804 0.0762 0.03847 0.0
H926 H 0.10832 0.07291 0.06239 0.0
H927 H 0.06427 0.0956 0.06037 0.0
H928 H 0.16162 0.08294 0.12345 0.0
H929 H 0.05621 0.13736 0.11774 0.0
H930 H 0.22355 0.10214 0.07889 0.0
H931 H 0.18803 0.07566 0.07321 0.0
H932 H 0.2165 0.07728 0.09772 0.0
H933 H 0.09438 0.16606 0.07097 0.0
H934 H 0.04647 0.16212 0.08781 0.0
H935 H 0.05358 0.14197 0.0657 0.0
C936 C 0.3729 0.37423 0.52452 0.0
C937 C 0.32797 0.37814 0.5186 0.0
C938 C 0.38533 0.37352 0.54541 0.0
C939 C 0.35191 0.37627 0.56075 0.0
C940 C 0.30661 0.3803 0.55492 0.0
C941 C 0.29531 0.38145 0.53396 0.0
C942 C 0.43402 0.36944 0.55107 0.0
C943 C 0.26988 0.38315 0.57084 0.0
C944 C 0.36123 0.34892 0.61444 0.0
C945 C 0.36797 0.37071 0.62623 0.0
C946 C 0.35931 0.35021 0.59288 0.0
C947 C 0.36339 0.37397 0.58298 0.0
C948 C 0.37299 0.39584 0.59479 0.0
C949 C 0.37542 0.39392 0.61637 0.0
C950 C 0.34982 0.32638 0.58084 0.0
C951 C 0.37761 0.42149 0.58478 0.0
H952 H 0.39839 0.37131 0.51284 0.0
H953 H 0.26074 0.38509 0.52964 0.0
H954 H 0.44574 0.38448 0.56173 0.0
H955 H 0.43756 0.35117 0.55929 0.0
H956 H 0.45634 0.36934 0.53733 0.0
H957 H 0.23636 0.38632 0.56374 0.0
H958 H 0.26789 0.36592 0.58058 0.0
H959 H 0.27777 0.39926 0.58117 0.0
H960 H 0.35574 0.33098 0.62219 0.0
H961 H 0.38045 0.41076 0.62559 0.0
H962 H 0.37287 0.32495 0.56745 0.0
H963 H 0.31494 0.32692 0.57474 0.0
H964 H 0.35342 0.30916 0.5905 0.0
H965 H 0.40036 0.4206 0.57125 0.0
H966 H 0.39073 0.43593 0.59568 0.0
H967 H 0.34422 0.4277 0.57913 0.0
C968 C 0.64608 0.39139 0.98004 0.0
C969 C 0.67867 0.37549 0.98878 0.0
C970 C 0.63337 0.38906 0.95923 0.0
C971 C 0.65403 0.37055 0.94678 0.0
C972 C 0.68769 0.35489 0.95535 0.0
C973 C 0.69932 0.35742 0.97621 0.0
C974 C 0.59717 0.40599 0.95072 0.0
C975 C 0.71082 0.33499 0.94258 0.0
C976 C 0.60069 0.33938 0.90031 0.0
C977 C 0.62582 0.35002 0.88418 0.0
C978 C 0.60674 0.34751 0.9207 0.0
C979 C 0.63939 0.36638 0.92506 0.0
C980 C 0.66236 0.37851 0.90858 0.0
C981 C 0.65517 0.3702 0.88825 0.0
C982 C 0.58083 0.33443 0.93772 0.0
C983 C 0.69733 0.39873 0.91255 0.0
H984 H 0.63039 0.40571 0.98948 0.0
H985 H 0.72393 0.34474 0.98279 0.0
H986 H 0.6088 0.41527 0.9363 0.0
H987 H 0.56702 0.39449 0.94678 0.0
H988 H 0.5871 0.4208 0.96188 0.0
H989 H 0.73797 0.3253 0.95124 0.0
H990 H 0.68588 0.3206 0.9375 0.0
H991 H 0.72561 0.34366 0.92851 0.0
H992 H 0.57805 0.32372 0.89707 0.0
H993 H 0.67485 0.37823 0.87574 0.0
H994 H 0.56749 0.34841 0.94882 0.0
H995 H 0.60369 0.32173 0.94634 0.0
H996 H 0.55233 0.32297 0.93163 0.0
H997 H 0.68502 0.41256 0.92402 0.0
H998 H 0.7068 0.40898 0.8982 0.0
H999 H 0.72801 0.38991 0.91904 0.0
C1000 C 0.79974 0.13305 0.47207 0.0
C1001 C 0.83339 0.12901 0.48695 0.0
C1002 C 0.81048 0.13763 0.4513 0.0
C1003 C 0.85597 0.13709 0.44483 0.0
C1004 C 0.88995 0.13134 0.45936 0.0
C1005 C 0.87843 0.12793 0.48025 0.0
C1006 C 0.77313 0.14406 0.43643 0.0
C1007 C 0.93874 0.12965 0.45308 0.0
C1008 C 0.86886 0.13639 0.38631 0.0
C1009 C 0.87462 0.16222 0.38205 0.0
C1010 C 0.86573 0.12756 0.4068 0.0
C1011 C 0.86774 0.145 0.42334 0.0
C1012 C 0.87658 0.1708 0.41911 0.0
C1013 C 0.88037 0.17899 0.3986 0.0
C1014 C 0.85826 0.09974 0.41071 0.0
C1015 C 0.87938 0.19008 0.43621 0.0
H1016 H 0.76469 0.13299 0.47662 0.0
H1017 H 0.90518 0.12512 0.49134 0.0
H1018 H 0.77871 0.16333 0.43011 0.0
H1019 H 0.77321 0.13078 0.42323 0.0
H1020 H 0.73941 0.14337 0.44381 0.0
H1021 H 0.95881 0.119 0.4646 0.0
H1022 H 0.94224 0.12037 0.43784 0.0
H1023 H 0.95327 0.14893 0.45179 0.0
H1024 H 0.86472 0.12322 0.37367 0.0
H1025 H 0.88632 0.19886 0.39549 0.0
H1026 H 0.82299 0.09641 0.41567 0.0
H1027 H 0.88047 0.09306 0.42332 0.0
H1028 H 0.86466 0.08826 0.3967 0.0
H1029 H 0.84646 0.19114 0.44424 0.0
H1030 H 0.88839 0.20921 0.43041 0.0
H1031 H 0.90479 0.18435 0.44779 0.0
C1032 C 0.82875 0.89727 0.97706 0.0
C1033 C 0.82766 0.8749 0.9886 0.0
C1034 C 0.84011 0.89711 0.95606 0.0
C1035 C 0.85172 0.87405 0.94642 0.0
C1036 C 0.85081 0.85136 0.95806 0.0
C1037 C 0.83821 0.85201 0.97899 0.0
C1038 C 0.83994 0.9217 0.94422 0.0
C1039 C 0.86415 0.82654 0.94854 0.0
C1040 C 0.84562 0.87627 0.88782 0.0
C1041 C 0.8895 0.88398 0.8828 0.0
C1042 C 0.8333 0.87151 0.90844 0.0
C1043 C 0.86582 0.87419 0.92431 0.0
C1044 C 0.91097 0.88006 0.91905 0.0
C1045 C 0.92215 0.8851 0.8984 0.0
C1046 C 0.78479 0.8654 0.91337 0.0
C1047 C 0.94698 0.88254 0.93536 0.0
H1048 H 0.82033 0.91493 0.9845 0.0
H1049 H 0.8377 0.83474 0.988 0.0
H1050 H 0.87441 0.92618 0.93868 0.0
H1051 H 0.81797 0.91997 0.93045 0.0
H1052 H 0.82798 0.93773 0.95373 0.0
H1053 H 0.86035 0.81049 0.95948 0.0
H1054 H 0.84342 0.82265 0.93466 0.0
H1055 H 0.89976 0.82758 0.94343 0.0
H1056 H 0.82029 0.8755 0.8758 0.0
H1057 H 0.95623 0.89081 0.8945 0.0
H1058 H 0.76936 0.88172 0.92133 0.0
H1059 H 0.78251 0.84899 0.92399 0.0
H1060 H 0.76485 0.86117 0.89929 0.0
H1061 H 0.94137 0.89999 0.94441 0.0
H1062 H 0.98127 0.88352 0.92857 0.0
H1063 H 0.94539 0.86637 0.94625 0.0
C1064 C 0.63614 0.63925 0.47984 0.0
C1065 C 0.67707 0.629 0.48657 0.0
C1066 C 0.62444 0.6393 0.45879 0.0
C1067 C 0.65436 0.62882 0.44416 0.0
C1068 C 0.6965 0.61948 0.45082 0.0
C1069 C 0.70729 0.61971 0.47188 0.0
C1070 C 0.57929 0.64953 0.45238 0.0
C1071 C 0.72966 0.60834 0.43578 0.0
C1072 C 0.61794 0.59632 0.39496 0.0
C1073 C 0.63337 0.61327 0.37987 0.0
C1074 C 0.62114 0.6021 0.416 0.0
C1075 C 0.64076 0.62534 0.42217 0.0
C1076 C 0.6531 0.64339 0.40695 0.0
C1077 C 0.64914 0.63715 0.3859 0.0
C1078 C 0.60665 0.58249 0.43164 0.0
C1079 C 0.67351 0.66851 0.41287 0.0
H1080 H 0.61251 0.64639 0.49111 0.0
H1081 H 0.73937 0.61226 0.4769 0.0
H1082 H 0.58248 0.66137 0.43831 0.0
H1083 H 0.55629 0.63358 0.44866 0.0
H1084 H 0.56363 0.66093 0.46478 0.0
H1085 H 0.76201 0.60328 0.44326 0.0
H1086 H 0.71501 0.59106 0.42874 0.0
H1087 H 0.7367 0.62191 0.42311 0.0
H1088 H 0.60516 0.57797 0.39027 0.0
H1089 H 0.66102 0.6503 0.37425 0.0
H1090 H 0.58594 0.59121 0.4439 0.0
H1091 H 0.63684 0.57435 0.43913 0.0
H1092 H 0.58699 0.56688 0.42448 0.0
H1093 H 0.65451 0.67714 0.42575 0.0
H1094 H 0.67426 0.68193 0.39968 0.0
H1095 H 0.70854 0.66563 0.41827 0.0
C1096 C 0.38372 0.6317 0.02388 0.0
C1097 C 0.33825 0.628 0.01858 0.0
C1098 C 0.39696 0.63506 0.04451 0.0
C1099 C 0.3639 0.63537 0.0602 0.0
C1100 C 0.31822 0.63083 0.05507 0.0
C1101 C 0.30607 0.62694 0.0344 0.0
C1102 C 0.44613 0.6392 0.0494 0.0
C1103 C 0.28178 0.63111 0.07131 0.0
C1104 C 0.38472 0.63268 0.11805 0.0
C1105 C 0.37964 0.65817 0.12334 0.0
C1106 C 0.38328 0.625 0.09726 0.0
C1107 C 0.37575 0.64321 0.0816 0.0
C1108 C 0.37429 0.66912 0.08681 0.0
C1109 C 0.37698 0.67626 0.10755 0.0
C1110 C 0.38685 0.59729 0.09224 0.0
C1111 C 0.36615 0.68922 0.07069 0.0
H1112 H 0.40899 0.63275 0.01186 0.0
H1113 H 0.27108 0.62337 0.03063 0.0
H1114 H 0.45201 0.65926 0.05356 0.0
H1115 H 0.45625 0.62754 0.06284 0.0
H1116 H 0.46812 0.63453 0.03611 0.0
H1117 H 0.24811 0.62636 0.06489 0.0
H1118 H 0.28966 0.61745 0.08375 0.0
H1119 H 0.28018 0.65013 0.07843 0.0
H1120 H 0.38708 0.61858 0.13013 0.0
H1121 H 0.37436 0.69608 0.11152 0.0
H1122 H 0.40747 0.59441 0.07818 0.0
H1123 H 0.35279 0.58947 0.08913 0.0
H1124 H 0.40189 0.58644 0.10517 0.0
H1125 H 0.3903 0.68733 0.05777 0.0
H1126 H 0.36921 0.7086 0.07708 0.0
H1127 H 0.3318 0.68683 0.06422 0.0
C1128 C 0.12512 0.861 0.52496 0.0
C1129 C 0.16742 0.87037 0.51893 0.0
C1130 C 0.11406 0.85814 0.54591 0.0
C1131 C 0.14627 0.86456 0.56115 0.0
C1132 C 0.18889 0.87422 0.55512 0.0
C1133 C 0.19886 0.87708 0.5341 0.0
C1134 C 0.06817 0.84802 0.55175 0.0
C1135 C 0.22434 0.8811 0.57088 0.0
C1136 C 0.11713 0.87753 0.61713 0.0
C1137 C 0.13243 0.85546 0.62663 0.0
C1138 C 0.11904 0.88029 0.59559 0.0
C1139 C 0.1365 0.86043 0.58343 0.0
C1140 C 0.14921 0.83748 0.59297 0.0
C1141 C 0.14739 0.83536 0.61452 0.0
C1142 C 0.10525 0.90506 0.58603 0.0
C1143 C 0.16745 0.81574 0.58056 0.0
H1144 H 0.10056 0.85604 0.51326 0.0
H1145 H 0.23176 0.88406 0.52951 0.0
H1146 H 0.07172 0.82977 0.56 0.0
H1147 H 0.05129 0.86125 0.56244 0.0
H1148 H 0.04621 0.84505 0.53809 0.0
H1149 H 0.25529 0.88903 0.56367 0.0
H1150 H 0.21085 0.89517 0.58187 0.0
H1151 H 0.23362 0.86411 0.57993 0.0
H1152 H 0.10605 0.89312 0.62664 0.0
H1153 H 0.15944 0.81838 0.62202 0.0
H1154 H 0.08353 0.90179 0.57237 0.0
H1155 H 0.13569 0.91542 0.58067 0.0
H1156 H 0.08699 0.91722 0.59713 0.0
H1157 H 0.14514 0.81158 0.56727 0.0
H1158 H 0.17098 0.79832 0.58998 0.0
H1159 H 0.201 0.82095 0.57428 0.0
C1160 C 0.10392 0.28796 0.34855 0.0
C1161 C 0.1446 0.2837 0.35904 0.0
C1162 C 0.08436 0.26928 0.33602 0.0
C1163 C 0.10511 0.24541 0.33439 0.0
C1164 C 0.14476 0.24046 0.34573 0.0
C1165 C 0.16435 0.25972 0.35764 0.0
C1166 C 0.04228 0.27537 0.32398 0.0
C1167 C 0.16748 0.21508 0.34466 0.0
C1168 C 0.04045 0.18951 0.31209 0.0
C1169 C 0.05642 0.18913 0.29171 0.0
C1170 C 0.05515 0.20804 0.32608 0.0
C1171 C 0.08734 0.22627 0.31966 0.0
C1172 C 0.10325 0.22609 0.29909 0.0
C1173 C 0.08694 0.20784 0.28532 0.0
C1174 C 0.03661 0.20793 0.34775 0.0
C1175 C 0.13795 0.24503 0.29166 0.0
H1176 H 0.08745 0.30605 0.34988 0.0
H1177 H 0.19603 0.25609 0.36531 0.0
H1178 H 0.0496 0.27465 0.30721 0.0
H1179 H 0.01567 0.26108 0.32715 0.0
H1180 H 0.02901 0.29437 0.32771 0.0
H1181 H 0.19562 0.21347 0.35585 0.0
H1182 H 0.14281 0.19971 0.34778 0.0
H1183 H 0.18093 0.21207 0.3289 0.0
H1184 H 0.01624 0.17537 0.31713 0.0
H1185 H 0.09851 0.20816 0.26959 0.0
H1186 H 0.02246 0.22668 0.35153 0.0
H1187 H 0.06415 0.20427 0.3589 0.0
H1188 H 0.00989 0.19337 0.34995 0.0
H1189 H 0.12528 0.2645 0.29378 0.0
H1190 H 0.1467 0.24238 0.27516 0.0
H1191 H 0.16914 0.2433 0.30095 0.0
C1192 C 0.39593 0.21158 0.84384 0.0
C1193 C 0.35587 0.21561 0.85486 0.0
C1194 C 0.41406 0.23026 0.83079 0.0
C1195 C 0.39269 0.25398 0.82926 0.0
C1196 C 0.35317 0.25855 0.84077 0.0
C1197 C 0.33483 0.23923 0.85309 0.0
C1198 C 0.45569 0.22444 0.81837 0.0
C1199 C 0.32995 0.28381 0.8399 0.0
C1200 C 0.46305 0.30869 0.80855 0.0
C1201 C 0.44687 0.31073 0.78835 0.0
C1202 C 0.4451 0.29064 0.82221 0.0
C1203 C 0.41109 0.27381 0.81524 0.0
C1204 C 0.39502 0.27572 0.79472 0.0
C1205 C 0.41297 0.29431 0.78159 0.0
C1206 C 0.46245 0.28962 0.84408 0.0
C1207 C 0.35973 0.25773 0.78646 0.0
H1208 H 0.41331 0.19377 0.84532 0.0
H1209 H 0.30341 0.24262 0.86103 0.0
H1210 H 0.44868 0.22707 0.80169 0.0
H1211 H 0.48327 0.2377 0.82251 0.0
H1212 H 0.46758 0.20483 0.82087 0.0
H1213 H 0.30139 0.28495 0.8509 0.0
H1214 H 0.35429 0.29919 0.84345 0.0
H1215 H 0.317 0.28726 0.82411 0.0
H1216 H 0.48954 0.32139 0.8137 0.0
H1217 H 0.40177 0.29533 0.76582 0.0
H1218 H 0.47805 0.27102 0.84712 0.0
H1219 H 0.43409 0.29166 0.85507 0.0
H1220 H 0.4878 0.30465 0.84725 0.0
H1221 H 0.3721 0.23805 0.78753 0.0
H1222 H 0.35091 0.26181 0.77014 0.0
H1223 H 0.3287 0.25882 0.7959 0.0
C1224 C 0.68635 0.23606 0.65981 0.0
C1225 C 0.66101 0.21528 0.65281 0.0
C1226 C 0.66716 0.25454 0.67254 0.0
C1227 C 0.62156 0.25216 0.67862 0.0
C1228 C 0.59569 0.23133 0.67158 0.0
C1229 C 0.61562 0.21324 0.65872 0.0
C1230 C 0.69583 0.27653 0.67963 0.0
C1231 C 0.54696 0.2281 0.67772 0.0
C1232 C 0.58327 0.28723 0.72668 0.0
C1233 C 0.56217 0.30847 0.71818 0.0
C1234 C 0.60272 0.26877 0.71401 0.0
C1235 C 0.60091 0.27152 0.69229 0.0
C1236 C 0.57952 0.29285 0.68361 0.0
C1237 C 0.5605 0.31104 0.69664 0.0
C1238 C 0.62512 0.24627 0.72386 0.0
C1239 C 0.57681 0.29651 0.66055 0.0
H1240 H 0.72158 0.23767 0.65568 0.0
H1241 H 0.59547 0.19753 0.65318 0.0
H1242 H 0.68018 0.29458 0.67484 0.0
H1243 H 0.69786 0.27664 0.69672 0.0
H1244 H 0.73052 0.27586 0.67329 0.0
H1245 H 0.5315 0.21079 0.67104 0.0
H1246 H 0.54412 0.22707 0.69477 0.0
H1247 H 0.52731 0.24469 0.67259 0.0
H1248 H 0.58444 0.28491 0.74329 0.0
H1249 H 0.54436 0.32736 0.68986 0.0
H1250 H 0.66084 0.24536 0.71897 0.0
H1251 H 0.60845 0.22859 0.71864 0.0
H1252 H 0.62389 0.24696 0.74098 0.0
H1253 H 0.61118 0.29731 0.65389 0.0
H1254 H 0.55884 0.31408 0.65625 0.0
H1255 H 0.55913 0.28022 0.65339 0.0
C1256 C 0.89487 0.29177 0.16293 0.0
C1257 C 0.84997 0.28945 0.1564 0.0
C1258 C 0.91377 0.27423 0.17663 0.0
C1259 C 0.88732 0.25371 0.18385 0.0
C1260 C 0.84201 0.25124 0.17738 0.0
C1261 C 0.82385 0.26917 0.1638 0.0
C1262 C 0.96227 0.27746 0.18313 0.0
C1263 C 0.81285 0.22949 0.18464 0.0
C1264 C 0.94884 0.19468 0.20052 0.0
C1265 C 0.94785 0.19653 0.22212 0.0
C1266 C 0.92913 0.21308 0.18798 0.0
C1267 C 0.90788 0.23402 0.19719 0.0
C1268 C 0.90663 0.23609 0.21898 0.0
C1269 C 0.92665 0.21729 0.23121 0.0
C1270 C 0.93106 0.21006 0.16483 0.0
C1271 C 0.88435 0.25822 0.22932 0.0
H1272 H 0.91551 0.30717 0.15712 0.0
H1273 H 0.78892 0.26745 0.15916 0.0
H1274 H 0.96475 0.27776 0.2002 0.0
H1275 H 0.98228 0.26119 0.17766 0.0
H1276 H 0.97762 0.2951 0.17694 0.0
H1277 H 0.7779 0.23067 0.17865 0.0
H1278 H 0.82757 0.21136 0.17951 0.0
H1279 H 0.81167 0.22906 0.20173 0.0
H1280 H 0.96485 0.17867 0.19326 0.0
H1281 H 0.92584 0.21891 0.24787 0.0
H1282 H 0.94876 0.22647 0.15781 0.0
H1283 H 0.89648 0.20959 0.15838 0.0
H1284 H 0.94865 0.19256 0.16012 0.0
H1285 H 0.90093 0.27608 0.22438 0.0
H1286 H 0.88583 0.25694 0.24641 0.0
H1287 H 0.84856 0.2593 0.22453 0.0
C1288 C 0.87998 0.73 0.64703 0.0
C1289 C 0.83834 0.71916 0.6526 0.0
C1290 C 0.90019 0.74897 0.65911 0.0
C1291 C 0.87933 0.7566 0.67768 0.0
C1292 C 0.83756 0.74578 0.68345 0.0
C1293 C 0.81709 0.72781 0.67061 0.0
C1294 C 0.9441 0.76069 0.6521 0.0
C1295 C 0.81491 0.75276 0.70347 0.0
C1296 C 0.95267 0.7854 0.71961 0.0
C1297 C 0.94026 0.81082 0.71868 0.0
C1298 C 0.93303 0.76753 0.70637 0.0
C1299 C 0.90142 0.77549 0.6914 0.0
C1300 C 0.88952 0.80132 0.69016 0.0
C1301 C 0.90846 0.81861 0.70412 0.0
C1302 C 0.94522 0.74005 0.7088 0.0
C1303 C 0.8569 0.81069 0.67407 0.0
H1304 H 0.89737 0.72345 0.6334 0.0
H1305 H 0.78429 0.72049 0.6749 0.0
H1306 H 0.94148 0.78159 0.65204 0.0
H1307 H 0.97133 0.75567 0.66302 0.0
H1308 H 0.95393 0.75434 0.63643 0.0
H1309 H 0.78329 0.74192 0.70612 0.0
H1310 H 0.8381 0.74916 0.71655 0.0
H1311 H 0.80698 0.77317 0.70356 0.0
H1312 H 0.97681 0.77935 0.73112 0.0
H1313 H 0.89899 0.83834 0.70344 0.0
H1314 H 0.95946 0.73273 0.6942 0.0
H1315 H 0.91452 0.72875 0.71225 0.0
H1316 H 0.97007 0.73698 0.72135 0.0
H1317 H 0.86782 0.80456 0.65851 0.0
H1318 H 0.85398 0.83159 0.67414 0.0
H1319 H 0.82307 0.80239 0.67685 0.0
C1320 C 0.6232 0.77571 0.15159 0.0
C1321 C 0.66885 0.78188 0.15456 0.0
C1322 C 0.60173 0.75715 0.16369 0.0
C1323 C 0.62606 0.74483 0.17952 0.0
C1324 C 0.67208 0.75078 0.18252 0.0
C1325 C 0.693 0.76891 0.16986 0.0
C1326 C 0.55283 0.7509 0.1597 0.0
C1327 C 0.69898 0.73848 0.1995 0.0
C1328 C 0.55825 0.71632 0.22366 0.0
C1329 C 0.56049 0.69057 0.21917 0.0
C1330 C 0.58025 0.73418 0.21111 0.0
C1331 C 0.60327 0.72604 0.19319 0.0
C1332 C 0.6049 0.69993 0.18849 0.0
C1333 C 0.58428 0.68243 0.20184 0.0
C1334 C 0.5793 0.76167 0.21716 0.0
C1335 C 0.62791 0.69053 0.16926 0.0
H1336 H 0.60384 0.78574 0.14007 0.0
H1337 H 0.72846 0.77295 0.17207 0.0
H1338 H 0.5485 0.73026 0.15741 0.0
H1339 H 0.53226 0.75621 0.17326 0.0
H1340 H 0.53951 0.76088 0.14593 0.0
H1341 H 0.73489 0.74446 0.19936 0.0
H1342 H 0.68428 0.7435 0.21466 0.0
H1343 H 0.69731 0.71762 0.19813 0.0
H1344 H 0.54023 0.72241 0.2373 0.0
H1345 H 0.58574 0.6624 0.19847 0.0
H1346 H 0.56233 0.77286 0.205 0.0
H1347 H 0.61418 0.7691 0.2186 0.0
H1348 H 0.56152 0.76471 0.23201 0.0
H1349 H 0.6131 0.69972 0.15547 0.0
H1350 H 0.62482 0.66973 0.16751 0.0
H1351 H 0.66415 0.69568 0.16962 0.0
C1352 C 0.38067 0.77755 0.35641 0.0
C1353 C 0.33402 0.78119 0.35502 0.0
C1354 C 0.40244 0.7598 0.3439 0.0
C1355 C 0.37704 0.74552 0.32954 0.0
C1356 C 0.32994 0.74882 0.32823 0.0
C1357 C 0.30899 0.76646 0.34108 0.0
C1358 C 0.45273 0.75659 0.34582 0.0
C1359 C 0.30172 0.73387 0.31312 0.0
C1360 C 0.43632 0.71725 0.2832 0.0
C1361 C 0.44232 0.6923 0.28971 0.0
C1362 C 0.4156 0.7349 0.29614 0.0
C1363 C 0.39971 0.72716 0.31579 0.0
C1364 C 0.40515 0.70181 0.32224 0.0
C1365 C 0.42692 0.68475 0.30919 0.0
C1366 C 0.41093 0.76185 0.28886 0.0
C1367 C 0.38791 0.6927 0.34288 0.0
H1368 H 0.40043 0.78901 0.36692 0.0
H1369 H 0.27283 0.76873 0.34016 0.0
H1370 H 0.46069 0.73662 0.34939 0.0
H1371 H 0.46923 0.76128 0.33094 0.0
H1372 H 0.46748 0.76875 0.35806 0.0
H1373 H 0.26544 0.73864 0.31407 0.0
H1374 H 0.31352 0.73755 0.29716 0.0
H1375 H 0.30555 0.71335 0.31606 0.0
H1376 H 0.44864 0.72303 0.26816 0.0
H1377 H 0.43125 0.66531 0.31408 0.0
H1378 H 0.42804 0.7748 0.29983 0.0
H1379 H 0.37488 0.76714 0.28848 0.0
H1380 H 0.42551 0.76486 0.27327 0.0
H1381 H 0.40434 0.70352 0.35546 0.0
H1382 H 0.39419 0.67227 0.34539 0.0
H1383 H 0.35118 0.69605 0.34404 0.0
C1384 C 0.11718 0.72081 0.8563 0.0
C1385 C 0.16431 0.7198 0.85731 0.0
C1386 C 0.09544 0.73936 0.84448 0.0
C1387 C 0.12143 0.75738 0.83344 0.0
C1388 C 0.16896 0.75683 0.83478 0.0
C1389 C 0.1898 0.73807 0.84668 0.0
C1390 C 0.04467 0.73926 0.84336 0.0
C1391 C 0.19785 0.77576 0.82328 0.0
C1392 C 0.06946 0.78738 0.78589 0.0
C1393 C 0.05722 0.81125 0.79322 0.0
C1394 C 0.09059 0.76978 0.79878 0.0
C1395 C 0.09904 0.77602 0.81965 0.0
C1396 C 0.08618 0.79997 0.82724 0.0
C1397 C 0.06538 0.81731 0.81392 0.0
C1398 C 0.10375 0.74447 0.79006 0.0
C1399 C 0.09434 0.80727 0.84942 0.0
H1400 H 0.09725 0.70662 0.86428 0.0
H1401 H 0.2262 0.73765 0.84763 0.0
H1402 H 0.03147 0.75807 0.84766 0.0
H1403 H 0.03371 0.73544 0.8273 0.0
H1404 H 0.02929 0.72479 0.85366 0.0
H1405 H 0.23426 0.77339 0.82657 0.0
H1406 H 0.19243 0.77372 0.80644 0.0
H1407 H 0.18805 0.79526 0.82749 0.0
H1408 H 0.06204 0.78228 0.77006 0.0
H1409 H 0.05566 0.83569 0.81967 0.0
H1410 H 0.08635 0.72911 0.79864 0.0
H1411 H 0.14046 0.7416 0.79197 0.0
H1412 H 0.09529 0.74269 0.77344 0.0
H1413 H 0.0768 0.79377 0.85983 0.0
H1414 H 0.08246 0.82664 0.85289 0.0
H1415 H 0.1308 0.80623 0.85299 0.0
loop_
_geom_bond_atom_site_label_1
_geom_bond_atom_site_label_2
_geom_bond_distance
_geom_bond_site_symmetry_2
_ccdc_geom_bond_type
C0 C1 1.386 . S
C0 C2 1.397 . S
C0 H24 0.931 . S
C1 C0 1.386 . S
C1 C5 1.397 . S
C2 C0 1.397 . S
C2 C3 1.384 . S
C2 H25 0.930 . S
C3 C2 1.384 . S
C3 C4 1.377 . S
C3 C6 1.481 . S
C4 C3 1.377 . S
C4 C5 1.389 . S
C4 H26 0.929 . S
C5 C1 1.397 . S
C5 C4 1.389 . S
C5 H27 0.931 . S
C6 C3 1.481 . S
C6 C7 1.387 . S
C6 C11 1.390 . S
C7 C6 1.387 . S
C7 C8 1.401 . S
C7 H28 0.930 . S
C8 C7 1.401 . S
C8 C9 1.376 . S
C8 C17 1.511 . S
C9 C8 1.376 . S
C9 C10 1.392 . S
C9 H30 0.931 . S
C10 C9 1.392 . S
C10 C11 1.361 . S
C10 C12 1.500 . S
C11 C6 1.390 . S
C11 C10 1.361 . S
C11 H29 0.931 . S
C12 C10 1.500 . S
C12 C13 1.371 . S
C12 C14 1.365 . S
C13 C12 1.371 . S
C13 C23 1.386 . S
C13 H31 0.931 . S
C14 C12 1.365 . S
C14 C15 1.409 . S
C14 H32 0.929 . S
C15 C14 1.409 . S
C15 C16 1.380 . S
C15 H33 0.930 . S
C16 C15 1.380 . S
C16 C23 1.357 . S
C17 C8 1.511 . S
C17 C18 1.341 . S
C17 C19 1.371 . S
C18 C17 1.341 . S
C18 C22 1.394 . S
C18 H34 0.930 . S
C19 C17 1.371 . S
C19 C20 1.392 . S
C19 H35 0.931 . S
C20 C19 1.392 . S
C20 C21 1.331 . S
C20 H38 0.932 . S
C21 C20 1.331 . S
C21 C22 1.336 . S
C22 C18 1.394 . S
C22 C21 1.336 . S
C22 H37 0.929 . S
C23 C13 1.386 . S
C23 C16 1.357 . S
C23 H36 0.928 . S
H24 C0 0.931 . S
H25 C2 0.930 . S
H26 C4 0.929 . S
H27 C5 0.931 . S
H28 C7 0.930 . S
H29 C11 0.931 . S
H30 C9 0.931 . S
H31 C13 0.931 . S
H32 C14 0.929 . S
H33 C15 0.930 . S
H34 C18 0.930 . S
H35 C19 0.931 . S
H36 C23 0.928 . S
H37 C22 0.929 . S
H38 C20 0.932 . S
C39 C40 1.386 . S
C39 C41 1.397 . S
C39 H63 0.931 . S
C40 C39 1.386 . S
C40 C44 1.397 . S
C41 C39 1.397 . S
C41 C42 1.384 . S
C41 H64 0.930 . S
C42 C41 1.384 . S
C42 C43 1.377 . S
C42 C45 1.481 . S
C43 C42 1.377 . S
C43 C44 1.389 . S
C43 H65 0.929 . S
C44 C40 1.397 . S
C44 C43 1.389 . S
C44 H66 0.931 . S
C45 C42 1.481 . S
C45 C46 1.387 . S
C45 C50 1.390 . S
C46 C45 1.387 . S
C46 C47 1.401 . S
C46 H67 0.930 . S
C47 C46 1.401 . S
C47 C48 1.376 . S
C47 C56 1.511 . S
C48 C47 1.376 . S
C48 C49 1.392 . S
C48 H69 0.931 . S
C49 C48 1.392 . S
C49 C50 1.361 . S
C49 C51 1.500 . S
C50 C45 1.390 . S
C50 C49 1.361 . S
C50 H68 0.931 . S
C51 C49 1.500 . S
C51 C52 1.371 . S
C51 C53 1.365 . S
C52 C51 1.371 . S
C52 C62 1.386 . S
C52 H70 0.931 . S
C53 C51 1.365 . S
C53 C54 1.409 . S
C53 H71 0.929 . S
C54 C53 1.409 . S
C54 C55 1.380 . S
C54 H72 0.930 . S
C55 C54 1.380 . S
C55 C62 1.357 . S
C56 C47 1.511 . S
C56 C57 1.341 . S
C56 C58 1.371 . S
C57 C56 1.341 . S
C57 C61 1.394 . S
C57 H73 0.930 . S
C58 C56 1.371 . S
C58 C59 1.392 . S
C58 H74 0.931 . S
C59 C58 1.392 . S
C59 C60 1.331 . S
C59 H77 0.932 . S
C60 C59 1.331 . S
C60 C61 1.336 . S
C61 C57 1.394 . S
C61 C60 1.336 . S
C61 H76 0.929 . S
C62 C52 1.386 . S
C62 C55 1.357 . S
C62 H75 0.928 . S
H63 C39 0.931 . S
H64 C41 0.930 . S
H65 C43 0.929 . S
H66 C44 0.931 . S
H67 C46 0.930 . S
H68 C50 0.931 . S
H69 C48 0.931 . S
H70 C52 0.931 . S
H71 C53 0.929 . S
H72 C54 0.930 . S
H73 C57 0.930 . S
H74 C58 0.931 . S
H75 C62 0.928 . S
H76 C61 0.929 . S
H77 C59 0.932 . S
C78 C79 1.386 . S
C78 C80 1.397 . S
C78 H102 0.931 . S
C79 C78 1.386 . S
C79 C83 1.397 . S
C80 C78 1.397 . S
C80 C81 1.384 . S
C80 H103 0.930 . S
C81 C80 1.384 . S
C81 C82 1.377 . S
C81 C84 1.481 . S
C82 C81 1.377 . S
C82 C83 1.389 . S
C82 H104 0.929 . S
C83 C79 1.397 . S
C83 C82 1.389 . S
C83 H105 0.931 . S
C84 C81 1.481 . S
C84 C85 1.387 . S
C84 C89 1.390 . S
C85 C84 1.387 . S
C85 C86 1.401 . S
C85 H106 0.930 . S
C86 C85 1.401 . S
C86 C87 1.376 . S
C86 C95 1.511 . S
C87 C86 1.376 . S
C87 C88 1.392 . S
C87 H108 0.931 . S
C88 C87 1.392 . S
C88 C89 1.361 . S
C88 C90 1.500 . S
C89 C84 1.390 . S
C89 C88 1.361 . S
C89 H107 0.931 . S
C90 C88 1.500 . S
C90 C91 1.371 . S
C90 C92 1.365 . S
C91 C90 1.371 . S
C91 C101 1.386 . S
C91 H109 0.931 . S
C92 C90 1.365 . S
C92 C93 1.409 . S
C92 H110 0.929 . S
C93 C92 1.409 . S
C93 C94 1.380 . S
C93 H111 0.930 . S
C94 C93 1.380 . S
C94 C101 1.357 . S
C95 C86 1.511 . S
C95 C96 1.341 . S
C95 C97 1.371 . S
C96 C95 1.341 . S
C96 C100 1.394 . S
C96 H112 0.930 . S
C97 C95 1.371 . S
C97 C98 1.392 . S
C97 H113 0.931 . S
C98 C97 1.392 . S
C98 C99 1.331 . S
C98 H116 0.932 . S
C99 C98 1.331 . S
C99 C100 1.336 . S
C100 C96 1.394 . S
C100 C99 1.336 . S
C100 H115 0.929 . S
C101 C91 1.386 . S
C101 C94 1.357 . S
C101 H114 0.928 . S
H102 C78 0.931 . S
H103 C80 0.930 . S
H104 C82 0.929 . S
H105 C83 0.931 . S
H106 C85 0.930 . S
H107 C89 0.931 . S
H108 C87 0.931 . S
H109 C91 0.931 . S
H110 C92 0.929 . S
H111 C93 0.930 . S
H112 C96 0.930 . S
H113 C97 0.931 . S
H114 C101 0.928 . S
H115 C100 0.929 . S
H116 C98 0.932 . S
C117 C118 1.386 . S
C117 C119 1.397 . S
C117 H141 0.931 . S
C118 C117 1.386 . S
C118 C122 1.397 . S
C119 C117 1.397 . S
C119 C120 1.384 . S
C119 H142 0.930 . S
C120 C119 1.384 . S
C120 C121 1.377 . S
C120 C123 1.481 . S
C121 C120 1.377 . S
C121 C122 1.389 . S
C121 H143 0.929 . S
C122 C118 1.397 . S
C122 C121 1.389 . S
C122 H144 0.931 . S
C123 C120 1.481 . S
C123 C124 1.387 . S
C123 C128 1.390 . S
C124 C123 1.387 . S
C124 C125 1.401 . S
C124 H145 0.930 . S
C125 C124 1.401 . S
C125 C126 1.376 . S
C125 C134 1.511 . S
C126 C125 1.376 . S
C126 C127 1.392 . S
C126 H147 0.931 . S
C127 C126 1.392 . S
C127 C128 1.361 . S
C127 C129 1.500 . S
C128 C123 1.390 . S
C128 C127 1.361 . S
C128 H146 0.931 . S
C129 C127 1.500 . S
C129 C130 1.371 . S
C129 C131 1.365 . S
C130 C129 1.371 . S
C130 C140 1.386 . S
C130 H148 0.931 . S
C131 C129 1.365 . S
C131 C132 1.409 . S
C131 H149 0.929 . S
C132 C131 1.409 . S
C132 C133 1.380 . S
C132 H150 0.930 . S
C133 C132 1.380 . S
C133 C140 1.357 . S
C134 C125 1.511 . S
C134 C135 1.341 . S
C134 C136 1.371 . S
C135 C134 1.341 . S
C135 C139 1.394 . S
C135 H151 0.930 . S
C136 C134 1.371 . S
C136 C137 1.392 . S
C136 H152 0.931 . S
C137 C136 1.392 . S
C137 C138 1.331 . S
C137 H155 0.932 . S
C138 C137 1.331 . S
C138 C139 1.336 . S
C139 C135 1.394 . S
C139 C138 1.336 . S
C139 H154 0.929 . S
C140 C130 1.386 . S
C140 C133 1.357 . S
C140 H153 0.928 . S
H141 C117 0.931 . S
H142 C119 0.930 . S
H143 C121 0.929 . S
H144 C122 0.931 . S
H145 C124 0.930 . S
H146 C128 0.931 . S
H147 C126 0.931 . S
H148 C130 0.931 . S
H149 C131 0.929 . S
H150 C132 0.930 . S
H151 C135 0.930 . S
H152 C136 0.931 . S
H153 C140 0.928 . S
H154 C139 0.929 . S
H155 C137 0.932 . S
C156 C157 1.386 . S
C156 C158 1.397 . S
C156 H180 0.931 . S
C157 C156 1.386 . S
C157 C161 1.397 . S
C158 C156 1.397 . S
C158 C159 1.384 . S
C158 H181 0.930 . S
C159 C158 1.384 . S
C159 C160 1.377 . S
C159 C162 1.481 . S
C160 C159 1.377 . S
C160 C161 1.389 . S
C160 H182 0.929 . S
C161 C157 1.397 . S
C161 C160 1.389 . S
C161 H183 0.931 . S
C162 C159 1.481 . S
C162 C163 1.387 . S
C162 C167 1.390 . S
C163 C162 1.387 . S
C163 C164 1.401 . S
C163 H184 0.930 . S
C164 C163 1.401 . S
C164 C165 1.376 . S
C164 C173 1.511 . S
C165 C164 1.376 . S
C165 C166 1.392 . S
C165 H186 0.931 . S
C166 C165 1.392 . S
C166 C167 1.361 . S
C166 C168 1.500 . S
C167 C162 1.390 . S
C167 C166 1.361 . S
C167 H185 0.931 . S
C168 C166 1.500 . S
C168 C169 1.371 . S
C168 C170 1.365 . S
C169 C168 1.371 . S
C169 C179 1.386 . S
C169 H187 0.931 . S
C170 C168 1.365 . S
C170 C171 1.409 . S
C170 H188 0.929 . S
C171 C170 1.409 . S
C171 C172 1.380 . S
C171 H189 0.930 . S
C172 C171 1.380 . S
C172 C179 1.357 . S
C173 C164 1.511 . S
C173 C174 1.341 . S
C173 C175 1.371 . S
C174 C173 1.341 . S
C174 C178 1.394 . S
C174 H190 0.930 . S
C175 C173 1.371 . S
C175 C176 1.392 . S
C175 H191 0.931 . S
C176 C175 1.392 . S
C176 C177 1.331 . S
C176 H194 0.932 . S
C177 C176 1.331 . S
C177 C178 1.336 . S
C178 C174 1.394 . S
C178 C177 1.336 . S
C178 H193 0.929 . S
C179 C169 1.386 . S
C179 C172 1.357 . S
C179 H192 0.928 . S
H180 C156 0.931 . S
H181 C158 0.930 . S
H182 C160 0.929 . S
H183 C161 0.931 . S
H184 C163 0.930 . S
H185 C167 0.931 . S
H186 C165 0.931 . S
H187 C169 0.931 . S
H188 C170 0.929 . S
H189 C171 0.930 . S
H190 C174 0.930 . S
H191 C175 0.931 . S
H192 C179 0.928 . S
H193 C178 0.929 . S
H194 C176 0.932 . S
C195 C196 1.386 . S
C195 C197 1.397 . S
C195 H219 0.931 . S
C196 C195 1.386 . S
C196 C200 1.397 . S
C197 C195 1.397 . S
C197 C198 1.384 . S
C197 H220 0.930 . S
C198 C197 1.384 . S
C198 C199 1.377 . S
C198 C201 1.481 . S
C199 C198 1.377 . S
C199 C200 1.389 . S
C199 H221 0.929 . S
C200 C196 1.397 . S
C200 C199 1.389 . S
C200 H222 0.931 . S
C201 C198 1.481 . S
C201 C202 1.387 . S
C201 C206 1.390 . S
C202 C201 1.387 . S
C202 C203 1.401 . S
C202 H223 0.930 . S
C203 C202 1.401 . S
C203 C204 1.376 . S
C203 C212 1.511 . S
C204 C203 1.376 . S
C204 C205 1.392 . S
C204 H225 0.931 . S
C205 C204 1.392 . S
C205 C206 1.361 . S
C205 C207 1.500 . S
C206 C201 1.390 . S
C206 C205 1.361 . S
C206 H224 0.931 . S
C207 C205 1.500 . S
C207 C208 1.371 . S
C207 C209 1.365 . S
C208 C207 1.371 . S
C208 C218 1.386 . S
C208 H226 0.931 . S
C209 C207 1.365 . S
C209 C210 1.409 . S
C209 H227 0.929 . S
C210 C209 1.409 . S
C210 C211 1.380 . S
C210 H228 0.930 . S
C211 C210 1.380 . S
C211 C218 1.357 . S
C212 C203 1.511 . S
C212 C213 1.341 . S
C212 C214 1.371 . S
C213 C212 1.341 . S
C213 C217 1.394 . S
C213 H229 0.930 . S
C214 C212 1.371 . S
C214 C215 1.392 . S
C214 H230 0.931 . S
C215 C214 1.392 . S
C215 C216 1.331 . S
C215 H233 0.932 . S
C216 C215 1.331 . S
C216 C217 1.336 . S
C217 C213 1.394 . S
C217 C216 1.336 . S
C217 H232 0.929 . S
C218 C208 1.386 . S
C218 C211 1.357 . S
C218 H231 0.928 . S
H219 C195 0.931 . S
H220 C197 0.930 . S
H221 C199 0.929 . S
H222 C200 0.931 . S
H223 C202 0.930 . S
H224 C206 0.931 . S
H225 C204 0.931 . S
H226 C208 0.931 . S
H227 C209 0.929 . S
H228 C210 0.930 . S
H229 C213 0.930 . S
H230 C214 0.931 . S
H231 C218 0.928 . S
H232 C217 0.929 . S
H233 C215 0.932 . S
C234 C235 1.386 . S
C234 C236 1.397 . S
C234 H258 0.931 . S
C235 C234 1.386 . S
C235 C239 1.397 . S
C236 C234 1.397 . S
C236 C237 1.384 . S
C236 H259 0.930 . S
C237 C236 1.384 . S
C237 C238 1.377 . S
C237 C240 1.481 . S
C238 C237 1.377 . S
C238 C239 1.389 . S
C238 H260 0.929 . S
C239 C235 1.397 . S
C239 C238 1.389 . S
C239 H261 0.931 . S
C240 C237 1.481 . S
C240 C241 1.387 . S
C240 C245 1.390 . S
C241 C240 1.387 . S
C241 C242 1.401 . S
C241 H262 0.930 . S
C242 C241 1.401 . S
C242 C243 1.376 . S
C242 C251 1.511 . S
C243 C242 1.376 . S
C243 C244 1.392 . S
C243 H264 0.931 . S
C244 C243 1.392 . S
C244 C245 1.361 . S
C244 C246 1.500 . S
C245 C240 1.390 . S
C245 C244 1.361 . S
C245 H263 0.931 . S
C246 C244 1.500 . S
C246 C247 1.371 . S
C246 C248 1.365 . S
C247 C246 1.371 . S
C247 C257 1.386 . S
C247 H265 0.931 . S
C248 C246 1.365 . S
C248 C249 1.409 . S
C248 H266 0.929 . S
C249 C248 1.409 . S
C249 C250 1.380 . S
C249 H267 0.930 . S
C250 C249 1.380 . S
C250 C257 1.357 . S
C251 C242 1.511 . S
C251 C252 1.341 . S
C251 C253 1.371 . S
C252 C251 1.341 . S
C252 C256 1.394 . S
C252 H268 0.930 . S
C253 C251 1.371 . S
C253 C254 1.392 . S
C253 H269 0.931 . S
C254 C253 1.392 . S
C254 C255 1.331 . S
C254 H272 0.932 . S
C255 C254 1.331 . S
C255 C256 1.336 . S
C256 C252 1.394 . S
C256 C255 1.336 . S
C256 H271 0.929 . S
C257 C247 1.386 . S
C257 C250 1.357 . S
C257 H270 0.928 . S
H258 C234 0.931 . S
H259 C236 0.930 . S
H260 C238 0.929 . S
H261 C239 0.931 . S
H262 C241 0.930 . S
H263 C245 0.931 . S
H264 C243 0.931 . S
H265 C247 0.931 . S
H266 C248 0.929 . S
H267 C249 0.930 . S
H268 C252 0.930 . S
H269 C253 0.931 . S
H270 C257 0.928 . S
H271 C256 0.929 . S
H272 C254 0.932 . S
C273 C274 1.386 . S
C273 C275 1.397 . S
C273 H297 0.931 . S
C274 C273 1.386 . S
C274 C278 1.397 . S
C275 C273 1.397 . S
C275 C276 1.384 . S
C275 H298 0.930 . S
C276 C275 1.384 . S
C276 C277 1.377 . S
C276 C279 1.481 . S
C277 C276 1.377 . S
C277 C278 1.389 . S
C277 H299 0.929 . S
C278 C274 1.397 . S
C278 C277 1.389 . S
C278 H300 0.931 . S
C279 C276 1.481 . S
C279 C280 1.387 . S
C279 C284 1.390 . S
C280 C279 1.387 . S
C280 C281 1.401 . S
C280 H301 0.930 . S
C281 C280 1.401 . S
C281 C282 1.376 . S
C281 C290 1.511 . S
C282 C281 1.376 . S
C282 C283 1.392 . S
C282 H303 0.931 . S
C283 C282 1.392 . S
C283 C284 1.361 . S
C283 C285 1.500 . S
C284 C279 1.390 . S
C284 C283 1.361 . S
C284 H302 0.931 . S
C285 C283 1.500 . S
C285 C286 1.371 . S
C285 C287 1.365 . S
C286 C285 1.371 . S
C286 C296 1.386 . S
C286 H304 0.931 . S
C287 C285 1.365 . S
C287 C288 1.409 . S
C287 H305 0.929 . S
C288 C287 1.409 . S
C288 C289 1.380 . S
C288 H306 0.930 . S
C289 C288 1.380 . S
C289 C296 1.357 . S
C290 C281 1.511 . S
C290 C291 1.341 . S
C290 C292 1.371 . S
C291 C290 1.341 . S
C291 C295 1.394 . S
C291 H307 0.930 . S
C292 C290 1.371 . S
C292 C293 1.392 . S
C292 H308 0.931 . S
C293 C292 1.392 . S
C293 C294 1.331 . S
C293 H311 0.932 . S
C294 C293 1.331 . S
C294 C295 1.336 . S
C295 C291 1.394 . S
C295 C294 1.336 . S
C295 H310 0.929 . S
C296 C286 1.386 . S
C296 C289 1.357 . S
C296 H309 0.928 . S
H297 C273 0.931 . S
H298 C275 0.930 . S
H299 C277 0.929 . S
H300 C278 0.931 . S
H301 C280 0.930 . S
H302 C284 0.931 . S
H303 C282 0.931 . S
H304 C286 0.931 . S
H305 C287 0.929 . S
H306 C288 0.930 . S
H307 C291 0.930 . S
H308 C292 0.931 . S
H309 C296 0.928 . S
H310 C295 0.929 . S
H311 C293 0.932 . S
C312 C314 1.422 . S
C312 C316 1.415 . S
C312 N318 1.369 . S
C313 C314 1.421 . S
C313 C315 1.417 . S
C313 C325 1.422 . S
C314 C312 1.422 . S
C314 C313 1.421 . S
C314 N324 1.359 . S
C315 C313 1.417 . S
C315 C317 1.329 . S
C315 H334 0.930 . S
C316 C312 1.415 . S
C316 C317 1.437 . S
C316 C320 1.413 . S
C317 C315 1.329 . S
C317 C316 1.437 . S
C317 H339 0.929 . S
N318 C312 1.369 . S
N318 C319 1.338 . S
N318 Gd323 2.622 . S
C319 N318 1.338 . S
C319 C321 1.378 . S
C319 H331 0.929 . S
C320 C316 1.413 . S
C320 C321 1.348 . S
C320 H336 0.931 . S
C321 C319 1.378 . S
C321 C320 1.348 . S
C321 H337 0.930 . S
Gd322 N342 2.622 . S
Gd322 N349 2.570 . S
Gd322 O356 2.353 . S
Gd322 O357 2.468 . S
Gd322 O358 2.427 . S
Gd322 O360 2.388 . S
Gd322 O361 2.386 . S
Gd322 O365 2.321 . S
Gd322 C375 2.805 . S
Gd323 N318 2.622 . S
Gd323 N324 2.570 . S
Gd323 O355 2.386 . S
Gd323 O359 2.307 1_655 S
Gd323 O362 2.353 1_655 S
Gd323 O363 2.468 . S
Gd323 O364 2.427 . S
Gd323 O366 2.388 . S
Gd323 C387 2.805 . S
N324 C314 1.359 . S
N324 Gd323 2.570 . S
N324 C326 1.343 . S
C325 C313 1.422 . S
C325 C327 1.321 . S
C325 H333 0.931 . S
C326 N324 1.343 . S
C326 C327 1.390 . S
C326 H328 0.931 . S
C327 C325 1.321 . S
C327 C326 1.390 . S
C327 H329 0.930 . S
H328 C326 0.931 . S
H329 C327 0.930 . S
H330 C353 0.931 . S
H331 C319 0.929 . S
H332 C354 0.930 . S
H333 C325 0.931 . S
H334 C315 0.930 . S
H335 C344 0.929 . S
H336 C320 0.931 . S
H337 C321 0.930 . S
H338 C376 0.930 . S
H339 C317 0.929 . S
H340 C345 0.931 . S
H341 C346 0.930 . S
N342 Gd322 2.622 . S
N342 C343 1.369 . S
N342 C344 1.338 . S
C343 N342 1.369 . S
C343 C347 1.415 . S
C343 C350 1.422 . S
C344 H335 0.929 . S
C344 N342 1.338 . S
C344 C346 1.378 . S
C345 H340 0.931 . S
C345 C346 1.348 . S
C345 C347 1.413 . S
C346 H341 0.930 . S
C346 C344 1.378 . S
C346 C345 1.348 . S
C347 C343 1.415 . S
C347 C345 1.413 . S
C347 C377 1.437 . S
H348 C377 0.929 . S
N349 Gd322 2.570 . S
N349 C350 1.359 . S
N349 C353 1.343 . S
C350 C343 1.422 . S
C350 N349 1.359 . S
C350 C352 1.421 . S
C351 C352 1.422 . S
C351 C354 1.321 . S
C351 H378 0.931 . S
C352 C350 1.421 . S
C352 C351 1.422 . S
C352 C376 1.417 . S
C353 H330 0.931 . S
C353 N349 1.343 . S
C353 C354 1.390 . S
C354 H332 0.930 . S
C354 C351 1.321 . S
C354 C353 1.390 . S
O355 Gd323 2.386 . S
O355 C367 1.265 . S
O356 Gd322 2.353 . S
O356 C367 1.242 1_455 S
O357 Gd322 2.468 . S
O357 C375 1.263 . S
O358 Gd322 2.427 . S
O358 C375 1.252 . S
O359 Gd323 2.307 1_455 S
O359 C368 1.261 . S
O360 Gd322 2.388 . S
O360 C368 1.252 . S
O361 Gd322 2.386 . S
O361 C379 1.265 . S
O362 Gd323 2.353 1_455 S
O362 C379 1.242 . S
O363 Gd323 2.468 . S
O363 C387 1.263 . S
O364 Gd323 2.427 . S
O364 C387 1.252 . S
O365 Gd322 2.321 . S
O365 C380 1.245 1_455 S
O366 Gd323 2.388 . S
O366 C380 1.252 . S
C367 O355 1.265 . S
C367 O356 1.242 1_655 S
C368 O359 1.261 . S
C368 O360 1.252 . S
C369 C372 1.394 . S
C369 C374 1.370 . S
C369 C375 1.500 . S
C370 C373 1.383 . S
C370 C374 1.395 . S
C371 C372 1.396 . S
C371 C373 1.365 . S
C371 H388 0.929 . S
C372 C369 1.394 . S
C372 C371 1.396 . S
C372 H389 0.930 . S
C373 C370 1.383 . S
C373 C371 1.365 . S
C373 H390 0.931 . S
C374 C369 1.370 . S
C374 C370 1.395 . S
C374 H391 0.930 . S
C375 Gd322 2.805 . S
C375 O357 1.263 . S
C375 O358 1.252 . S
C375 C369 1.500 . S
C376 H338 0.930 . S
C376 C352 1.417 . S
C376 C377 1.329 . S
C377 C347 1.437 . S
C377 H348 0.929 . S
C377 C376 1.329 . S
H378 C351 0.931 . S
C379 O361 1.265 . S
C379 O362 1.242 . S
C380 O365 1.245 1_655 S
C380 O366 1.252 . S
C381 C384 1.394 . S
C381 C386 1.370 . S
C381 C387 1.500 . S
C382 C385 1.383 . S
C382 C386 1.395 . S
C383 C384 1.396 . S
C383 C385 1.365 . S
C383 H392 0.929 . S
C384 C381 1.394 . S
C384 C383 1.396 . S
C384 H393 0.930 . S
C385 C382 1.383 . S
C385 C383 1.365 . S
C385 H394 0.931 . S
C386 C381 1.370 . S
C386 C382 1.395 . S
C386 H395 0.930 . S
C387 Gd323 2.805 . S
C387 O363 1.263 . S
C387 O364 1.252 . S
C387 C381 1.500 . S
H388 C371 0.929 . S
H389 C372 0.930 . S
H390 C373 0.931 . S
H391 C374 0.930 . S
H392 C383 0.929 . S
H393 C384 0.930 . S
H394 C385 0.931 . S
H395 C386 0.930 . S
C396 C398 1.422 . S
C396 C400 1.415 . S
C396 N402 1.369 . S
C397 C398 1.421 . S
C397 C399 1.417 . S
C397 C409 1.422 . S
C398 C396 1.422 . S
C398 C397 1.421 . S
C398 N408 1.359 . S
C399 C397 1.417 . S
C399 C401 1.329 . S
C399 H418 0.930 . S
C400 C396 1.415 . S
C400 C401 1.437 . S
C400 C404 1.413 . S
C401 C399 1.329 . S
C401 C400 1.437 . S
C401 H423 0.929 . S
N402 C396 1.369 . S
N402 C403 1.338 . S
N402 Gd407 2.622 . S
C403 N402 1.338 . S
C403 C405 1.378 . S
C403 H415 0.929 . S
C404 C400 1.413 . S
C404 C405 1.348 . S
C404 H420 0.931 . S
C405 C403 1.378 . S
C405 C404 1.348 . S
C405 H421 0.930 . S
Gd406 N426 2.622 . S
Gd406 N433 2.570 . S
Gd406 O440 2.353 . S
Gd406 O441 2.468 . S
Gd406 O442 2.427 . S
Gd406 O444 2.388 . S
Gd406 O445 2.386 . S
Gd406 O449 2.307 . S
Gd406 C459 2.805 . S
Gd407 N402 2.622 . S
Gd407 N408 2.570 . S
Gd407 O439 2.386 . S
Gd407 O443 2.307 . S
Gd407 O446 2.353 . S
Gd407 O447 2.468 . S
Gd407 O448 2.427 . S
Gd407 O450 2.388 . S
Gd407 C471 2.805 . S
N408 C398 1.359 . S
N408 Gd407 2.570 . S
N408 C410 1.343 . S
C409 C397 1.422 . S
C409 C411 1.321 . S
C409 H417 0.931 . S
C410 N408 1.343 . S
C410 C411 1.390 . S
C410 H412 0.931 . S
C411 C409 1.321 . S
C411 C410 1.390 . S
C411 H413 0.930 . S
H412 C410 0.931 . S
H413 C411 0.930 . S
H414 C437 0.931 . S
H415 C403 0.929 . S
H416 C438 0.930 . S
H417 C409 0.931 . S
H418 C399 0.930 . S
H419 C428 0.929 . S
H420 C404 0.931 . S
H421 C405 0.930 . S
H422 C460 0.930 . S
H423 C401 0.929 . S
H424 C429 0.931 . S
H425 C430 0.930 . S
N426 Gd406 2.622 . S
N426 C427 1.369 . S
N426 C428 1.338 . S
C427 N426 1.369 . S
C427 C431 1.415 . S
C427 C434 1.422 . S
C428 H419 0.929 . S
C428 N426 1.338 . S
C428 C430 1.378 . S
C429 H424 0.931 . S
C429 C430 1.348 . S
C429 C431 1.413 . S
C430 H425 0.930 . S
C430 C428 1.378 . S
C430 C429 1.348 . S
C431 C427 1.415 . S
C431 C429 1.413 . S
C431 C461 1.437 . S
H432 C461 0.929 . S
N433 Gd406 2.570 . S
N433 C434 1.359 . S
N433 C437 1.343 . S
C434 C427 1.422 . S
C434 N433 1.359 . S
C434 C436 1.421 . S
C435 C436 1.422 . S
C435 C438 1.321 . S
C435 H462 0.931 . S
C436 C434 1.421 . S
C436 C435 1.422 . S
C436 C460 1.417 . S
C437 H414 0.931 . S
C437 N433 1.343 . S
C437 C438 1.390 . S
C438 H416 0.930 . S
C438 C435 1.321 . S
C438 C437 1.390 . S
O439 Gd407 2.386 . S
O439 C451 1.265 . S
O440 Gd406 2.353 . S
O440 C451 1.242 . S
O441 Gd406 2.468 . S
O441 C459 1.263 . S
O442 Gd406 2.427 . S
O442 C459 1.252 . S
O443 Gd407 2.307 . S
O443 C452 1.261 . S
O444 Gd406 2.388 . S
O444 C452 1.252 . S
O445 Gd406 2.386 . S
O445 C463 1.265 . S
O446 Gd407 2.353 . S
O446 C463 1.242 . S
O447 Gd407 2.468 . S
O447 C471 1.263 . S
O448 Gd407 2.427 . S
O448 C471 1.252 . S
O449 Gd406 2.307 . S
O449 C464 1.261 . S
O450 Gd407 2.388 . S
O450 C464 1.252 . S
C451 O439 1.265 . S
C451 O440 1.242 . S
C452 O443 1.261 . S
C452 O444 1.252 . S
C453 C456 1.394 . S
C453 C458 1.370 . S
C453 C459 1.500 . S
C454 C457 1.383 . S
C454 C458 1.395 . S
C455 C456 1.396 . S
C455 C457 1.365 . S
C455 H472 0.929 . S
C456 C453 1.394 . S
C456 C455 1.396 . S
C456 H473 0.930 . S
C457 C454 1.383 . S
C457 C455 1.365 . S
C457 H474 0.931 . S
C458 C453 1.370 . S
C458 C454 1.395 . S
C458 H475 0.930 . S
C459 Gd406 2.805 . S
C459 O441 1.263 . S
C459 O442 1.252 . S
C459 C453 1.500 . S
C460 H422 0.930 . S
C460 C436 1.417 . S
C460 C461 1.329 . S
C461 C431 1.437 . S
C461 H432 0.929 . S
C461 C460 1.329 . S
H462 C435 0.931 . S
C463 O445 1.265 . S
C463 O446 1.242 . S
C464 O449 1.261 . S
C464 O450 1.252 . S
C465 C468 1.394 . S
C465 C470 1.370 . S
C465 C471 1.500 . S
C466 C469 1.383 . S
C466 C470 1.395 . S
C467 C468 1.396 . S
C467 C469 1.365 . S
C467 H476 0.929 . S
C468 C465 1.394 . S
C468 C467 1.396 . S
C468 H477 0.930 . S
C469 C466 1.383 . S
C469 C467 1.365 . S
C469 H478 0.931 . S
C470 C465 1.370 . S
C470 C466 1.395 . S
C470 H479 0.930 . S
C471 Gd407 2.805 . S
C471 O447 1.263 . S
C471 O448 1.252 . S
C471 C465 1.500 . S
H472 C455 0.929 . S
H473 C456 0.930 . S
H474 C457 0.931 . S
H475 C458 0.930 . S
H476 C467 0.929 . S
H477 C468 0.930 . S
H478 C469 0.931 . S
H479 C470 0.930 . S
C480 C482 1.422 . S
C480 C484 1.415 . S
C480 N486 1.369 . S
C481 C482 1.421 . S
C481 C483 1.417 . S
C481 C493 1.422 . S
C482 C480 1.422 . S
C482 C481 1.421 . S
C482 N492 1.359 . S
C483 C481 1.417 . S
C483 C485 1.329 . S
C483 H502 0.930 . S
C484 C480 1.415 . S
C484 C485 1.437 . S
C484 C488 1.413 . S
C485 C483 1.329 . S
C485 C484 1.437 . S
C485 H507 0.929 . S
N486 C480 1.369 . S
N486 C487 1.338 . S
N486 Gd491 2.622 . S
C487 N486 1.338 . S
C487 C489 1.378 . S
C487 H499 0.929 . S
C488 C484 1.413 . S
C488 C489 1.348 . S
C488 H504 0.931 . S
C489 C487 1.378 . S
C489 C488 1.348 . S
C489 H505 0.930 . S
Gd490 N510 2.622 . S
Gd490 N517 2.570 . S
Gd490 O524 2.353 . S
Gd490 O525 2.468 . S
Gd490 O526 2.427 . S
Gd490 O528 2.388 . S
Gd490 O529 2.386 . S
Gd490 O533 2.307 . S
Gd490 C543 2.805 . S
Gd491 N486 2.622 . S
Gd491 N492 2.570 . S
Gd491 O523 2.386 . S
Gd491 O527 2.307 1_655 S
Gd491 O530 2.353 1_655 S
Gd491 O531 2.468 . S
Gd491 O532 2.427 . S
Gd491 O534 2.388 . S
Gd491 C555 2.805 . S
N492 C482 1.359 . S
N492 Gd491 2.570 . S
N492 C494 1.343 . S
C493 C481 1.422 . S
C493 C495 1.321 . S
C493 H501 0.931 . S
C494 N492 1.343 . S
C494 C495 1.390 . S
C494 H496 0.931 . S
C495 C493 1.321 . S
C495 C494 1.390 . S
C495 H497 0.930 . S
H496 C494 0.931 . S
H497 C495 0.930 . S
H498 C521 0.931 . S
H499 C487 0.929 . S
H500 C522 0.930 . S
H501 C493 0.931 . S
H502 C483 0.930 . S
H503 C512 0.929 . S
H504 C488 0.931 . S
H505 C489 0.930 . S
H506 C544 0.930 . S
H507 C485 0.929 . S
H508 C513 0.931 . S
H509 C514 0.930 . S
N510 Gd490 2.622 . S
N510 C511 1.369 . S
N510 C512 1.338 . S
C511 N510 1.369 . S
C511 C515 1.415 . S
C511 C518 1.422 . S
C512 H503 0.929 . S
C512 N510 1.338 . S
C512 C514 1.378 . S
C513 H508 0.931 . S
C513 C514 1.348 . S
C513 C515 1.413 . S
C514 H509 0.930 . S
C514 C512 1.378 . S
C514 C513 1.348 . S
C515 C511 1.415 . S
C515 C513 1.413 . S
C515 C545 1.437 . S
H516 C545 0.929 . S
N517 Gd490 2.570 . S
N517 C518 1.359 . S
N517 C521 1.343 . S
C518 C511 1.422 . S
C518 N517 1.359 . S
C518 C520 1.421 . S
C519 C520 1.422 . S
C519 C522 1.321 . S
C519 H546 0.931 . S
C520 C518 1.421 . S
C520 C519 1.422 . S
C520 C544 1.417 . S
C521 H498 0.931 . S
C521 N517 1.343 . S
C521 C522 1.390 . S
C522 H500 0.930 . S
C522 C519 1.321 . S
C522 C521 1.390 . S
O523 Gd491 2.386 . S
O523 C535 1.265 . S
O524 Gd490 2.353 . S
O524 C535 1.242 1_455 S
O525 Gd490 2.468 . S
O525 C543 1.263 . S
O526 Gd490 2.427 . S
O526 C543 1.252 . S
O527 Gd491 2.307 1_455 S
O527 C536 1.261 . S
O528 Gd490 2.388 . S
O528 C536 1.252 . S
O529 Gd490 2.386 . S
O529 C547 1.265 . S
O530 Gd491 2.353 1_455 S
O530 C547 1.242 . S
O531 Gd491 2.468 . S
O531 C555 1.263 . S
O532 Gd491 2.427 . S
O532 C555 1.252 . S
O533 Gd490 2.307 . S
O533 C548 1.261 1_455 S
O534 Gd491 2.388 . S
O534 C548 1.252 . S
C535 O523 1.265 . S
C535 O524 1.242 1_655 S
C536 O527 1.261 . S
C536 O528 1.252 . S
C537 C540 1.394 . S
C537 C542 1.370 . S
C537 C543 1.500 . S
C538 C541 1.383 . S
C538 C542 1.395 . S
C539 C540 1.396 . S
C539 C541 1.365 . S
C539 H556 0.929 . S
C540 C537 1.394 . S
C540 C539 1.396 . S
C540 H557 0.930 . S
C541 C538 1.383 . S
C541 C539 1.365 . S
C541 H558 0.931 . S
C542 C537 1.370 . S
C542 C538 1.395 . S
C542 H559 0.930 . S
C543 Gd490 2.805 . S
C543 O525 1.263 . S
C543 O526 1.252 . S
C543 C537 1.500 . S
C544 H506 0.930 . S
C544 C520 1.417 . S
C544 C545 1.329 . S
C545 C515 1.437 . S
C545 H516 0.929 . S
C545 C544 1.329 . S
H546 C519 0.931 . S
C547 O529 1.265 . S
C547 O530 1.242 . S
C548 O533 1.261 1_655 S
C548 O534 1.252 . S
C549 C552 1.394 . S
C549 C554 1.370 . S
C549 C555 1.500 . S
C550 C553 1.383 . S
C550 C554 1.395 . S
C551 C552 1.396 . S
C551 C553 1.365 . S
C551 H560 0.929 . S
C552 C549 1.394 . S
C552 C551 1.396 . S
C552 H561 0.930 . S
C553 C550 1.383 . S
C553 C551 1.365 . S
C553 H562 0.931 . S
C554 C549 1.370 . S
C554 C550 1.395 . S
C554 H563 0.930 . S
C555 Gd491 2.805 . S
C555 O531 1.263 . S
C555 O532 1.252 . S
C555 C549 1.500 . S
H556 C539 0.929 . S
H557 C540 0.930 . S
H558 C541 0.931 . S
H559 C542 0.930 . S
H560 C551 0.929 . S
H561 C552 0.930 . S
H562 C553 0.931 . S
H563 C554 0.930 . S
C564 C566 1.422 . S
C564 C568 1.415 . S
C564 N570 1.369 . S
C565 C566 1.421 . S
C565 C567 1.417 . S
C565 C577 1.422 . S
C566 C564 1.422 . S
C566 C565 1.421 . S
C566 N576 1.359 . S
C567 C565 1.417 . S
C567 C569 1.329 . S
C567 H586 0.930 . S
C568 C564 1.415 . S
C568 C569 1.437 . S
C568 C572 1.413 . S
C569 C567 1.329 . S
C569 C568 1.437 . S
C569 H591 0.929 . S
N570 C564 1.369 . S
N570 C571 1.338 . S
N570 Gd575 2.622 . S
C571 N570 1.338 . S
C571 C573 1.378 . S
C571 H583 0.929 . S
C572 C568 1.413 . S
C572 C573 1.348 . S
C572 H588 0.931 . S
C573 C571 1.378 . S
C573 C572 1.348 . S
C573 H589 0.930 . S
Gd574 N594 2.622 . S
Gd574 N601 2.570 . S
Gd574 O608 2.353 . S
Gd574 O609 2.468 . S
Gd574 O610 2.427 . S
Gd574 O612 2.388 . S
Gd574 O613 2.386 . S
Gd574 O617 2.307 . S
Gd574 C627 2.805 . S
Gd575 N570 2.622 . S
Gd575 N576 2.570 . S
Gd575 O607 2.386 . S
Gd575 O611 2.307 . S
Gd575 O614 2.353 . S
Gd575 O615 2.468 . S
Gd575 O616 2.427 . S
Gd575 O618 2.388 . S
Gd575 C639 2.805 . S
N576 C566 1.359 . S
N576 Gd575 2.570 . S
N576 C578 1.343 . S
C577 C565 1.422 . S
C577 C579 1.321 . S
C577 H585 0.931 . S
C578 N576 1.343 . S
C578 C579 1.390 . S
C578 H580 0.931 . S
C579 C577 1.321 . S
C579 C578 1.390 . S
C579 H581 0.930 . S
H580 C578 0.931 . S
H581 C579 0.930 . S
H582 C605 0.931 . S
H583 C571 0.929 . S
H584 C606 0.930 . S
H585 C577 0.931 . S
H586 C567 0.930 . S
H587 C596 0.929 . S
H588 C572 0.931 . S
H589 C573 0.930 . S
H590 C628 0.930 . S
H591 C569 0.929 . S
H592 C597 0.931 . S
H593 C598 0.930 . S
N594 Gd574 2.622 . S
N594 C595 1.369 . S
N594 C596 1.338 . S
C595 N594 1.369 . S
C595 C599 1.415 . S
C595 C602 1.422 . S
C596 H587 0.929 . S
C596 N594 1.338 . S
C596 C598 1.378 . S
C597 H592 0.931 . S
C597 C598 1.348 . S
C597 C599 1.413 . S
C598 H593 0.930 . S
C598 C596 1.378 . S
C598 C597 1.348 . S
C599 C595 1.415 . S
C599 C597 1.413 . S
C599 C629 1.437 . S
H600 C629 0.929 . S
N601 Gd574 2.570 . S
N601 C602 1.359 . S
N601 C605 1.343 . S
C602 C595 1.422 . S
C602 N601 1.359 . S
C602 C604 1.421 . S
C603 C604 1.422 . S
C603 C606 1.321 . S
C603 H630 0.931 . S
C604 C602 1.421 . S
C604 C603 1.422 . S
C604 C628 1.417 . S
C605 H582 0.931 . S
C605 N601 1.343 . S
C605 C606 1.390 . S
C606 H584 0.930 . S
C606 C603 1.321 . S
C606 C605 1.390 . S
O607 Gd575 2.386 . S
O607 C619 1.265 . S
O608 Gd574 2.353 . S
O608 C619 1.242 . S
O609 Gd574 2.468 . S
O609 C627 1.263 . S
O610 Gd574 2.427 . S
O610 C627 1.252 . S
O611 Gd575 2.307 . S
O611 C620 1.261 . S
O612 Gd574 2.388 . S
O612 C620 1.252 . S
O613 Gd574 2.386 . S
O613 C631 1.265 . S
O614 Gd575 2.353 . S
O614 C631 1.242 . S
O615 Gd575 2.468 . S
O615 C639 1.263 . S
O616 Gd575 2.427 . S
O616 C639 1.252 . S
O617 Gd574 2.307 . S
O617 C632 1.261 . S
O618 Gd575 2.388 . S
O618 C632 1.252 . S
C619 O607 1.265 . S
C619 O608 1.242 . S
C620 O611 1.261 . S
C620 O612 1.252 . S
C621 C624 1.394 . S
C621 C626 1.370 . S
C621 C627 1.500 . S
C622 C625 1.383 . S
C622 C626 1.395 . S
C623 C624 1.396 . S
C623 C625 1.365 . S
C623 H640 0.929 . S
C624 C621 1.394 . S
C624 C623 1.396 . S
C624 H641 0.930 . S
C625 C622 1.383 . S
C625 C623 1.365 . S
C625 H642 0.931 . S
C626 C621 1.370 . S
C626 C622 1.395 . S
C626 H643 0.930 . S
C627 Gd574 2.805 . S
C627 O609 1.263 . S
C627 O610 1.252 . S
C627 C621 1.500 . S
C628 H590 0.930 . S
C628 C604 1.417 . S
C628 C629 1.329 . S
C629 C599 1.437 . S
C629 H600 0.929 . S
C629 C628 1.329 . S
H630 C603 0.931 . S
C631 O613 1.265 . S
C631 O614 1.242 . S
C632 O617 1.261 . S
C632 O618 1.252 . S
C633 C636 1.394 . S
C633 C638 1.370 . S
C633 C639 1.500 . S
C634 C637 1.383 . S
C634 C638 1.395 . S
C635 C636 1.396 . S
C635 C637 1.365 . S
C635 H644 0.929 . S
C636 C633 1.394 . S
C636 C635 1.396 . S
C636 H645 0.930 . S
C637 C634 1.383 . S
C637 C635 1.365 . S
C637 H646 0.931 . S
C638 C633 1.370 . S
C638 C634 1.395 . S
C638 H647 0.930 . S
C639 Gd575 2.805 . S
C639 O615 1.263 . S
C639 O616 1.252 . S
C639 C633 1.500 . S
H640 C623 0.929 . S
H641 C624 0.930 . S
H642 C625 0.931 . S
H643 C626 0.930 . S
H644 C635 0.929 . S
H645 C636 0.930 . S
H646 C637 0.931 . S
H647 C638 0.930 . S
C648 C649 1.391 . S
C648 C650 1.394 1_565 S
C648 H664 0.931 . S
C649 C648 1.391 . S
C649 C653 1.376 1_565 S
C650 C648 1.394 1_545 S
C650 C651 1.369 . S
C650 C654 1.530 . S
C651 C650 1.369 . S
C651 C652 1.410 . S
C651 C659 1.503 . S
C652 C651 1.410 . S
C652 C653 1.392 . S
C652 C655 1.511 . S
C653 C649 1.376 1_545 S
C653 C652 1.392 . S
C653 H665 0.929 . S
C654 C650 1.530 . S
C654 H666 0.959 . S
C654 H667 0.960 . S
C654 H668 0.964 1_545 S
C655 C652 1.511 . S
C655 H669 0.961 . S
C655 H670 0.961 . S
C655 H671 0.961 . S
C656 C657 1.370 . S
C656 C658 1.363 . S
C656 H672 0.931 . S
C657 C656 1.370 . S
C657 C661 1.408 . S
C658 C656 1.363 . S
C658 C659 1.370 . S
C658 C662 1.524 . S
C659 C651 1.503 . S
C659 C658 1.370 . S
C659 C660 1.403 . S
C660 C659 1.403 . S
C660 C661 1.404 . S
C660 C663 1.539 . S
C661 C657 1.408 . S
C661 C660 1.404 . S
C661 H673 0.930 1_455 S
C662 C658 1.524 . S
C662 H674 0.956 . S
C662 H675 0.961 . S
C662 H676 0.961 . S
C663 C660 1.539 . S
C663 H677 0.958 . S
C663 H678 0.961 1_455 S
C663 H679 0.960 . S
H664 C648 0.931 . S
H665 C653 0.929 . S
H666 C654 0.959 . S
H667 C654 0.960 . S
H668 C654 0.964 1_565 S
H669 C655 0.961 . S
H670 C655 0.961 . S
H671 C655 0.961 . S
H672 C656 0.931 . S
H673 C661 0.930 1_655 S
H674 C662 0.956 . S
H675 C662 0.961 . S
H676 C662 0.961 . S
H677 C663 0.958 . S
H678 C663 0.961 1_655 S
H679 C663 0.960 . S
C680 C681 1.391 . S
C680 C682 1.394 . S
C680 H696 0.931 . S
C681 C680 1.391 . S
C681 C685 1.376 . S
C682 C680 1.394 . S
C682 C683 1.369 . S
C682 C686 1.531 . S
C683 C682 1.369 . S
C683 C684 1.410 . S
C683 C691 1.503 . S
C684 C683 1.410 . S
C684 C685 1.392 . S
C684 C687 1.511 . S
C685 C681 1.376 . S
C685 C684 1.392 . S
C685 H697 0.929 . S
C686 C682 1.531 . S
C686 H698 0.960 . S
C686 H699 0.962 . S
C686 H700 0.960 . S
C687 C684 1.511 . S
C687 H701 0.961 . S
C687 H702 0.961 . S
C687 H703 0.961 . S
C688 C689 1.370 . S
C688 C690 1.363 . S
C688 H704 0.931 . S
C689 C688 1.370 . S
C689 C693 1.408 . S
C690 C688 1.363 . S
C690 C691 1.370 . S
C690 C694 1.524 . S
C691 C683 1.503 . S
C691 C690 1.370 . S
C691 C692 1.403 . S
C692 C691 1.403 . S
C692 C693 1.404 . S
C692 C695 1.539 . S
C693 C689 1.408 . S
C693 C692 1.404 . S
C693 H705 0.930 . S
C694 C690 1.524 . S
C694 H706 0.956 . S
C694 H707 0.961 . S
C694 H708 0.961 . S
C695 C692 1.539 . S
C695 H709 0.958 . S
C695 H710 0.961 . S
C695 H711 0.960 . S
H696 C680 0.931 . S
H697 C685 0.929 . S
H698 C686 0.960 . S
H699 C686 0.962 . S
H700 C686 0.960 . S
H701 C687 0.961 . S
H702 C687 0.961 . S
H703 C687 0.961 . S
H704 C688 0.931 . S
H705 C693 0.930 . S
H706 C694 0.956 . S
H707 C694 0.961 . S
H708 C694 0.961 . S
H709 C695 0.958 . S
H710 C695 0.961 . S
H711 C695 0.960 . S
C712 C713 1.391 . S
C712 C714 1.394 . S
C712 H728 0.931 . S
C713 C712 1.391 . S
C713 C717 1.376 . S
C714 C712 1.394 . S
C714 C715 1.369 . S
C714 C718 1.531 . S
C715 C714 1.369 . S
C715 C716 1.410 . S
C715 C723 1.503 . S
C716 C715 1.410 . S
C716 C717 1.392 . S
C716 C719 1.511 . S
C717 C713 1.376 . S
C717 C716 1.392 . S
C717 H729 0.929 . S
C718 C714 1.531 . S
C718 H730 0.960 . S
C718 H731 0.962 . S
C718 H732 0.960 . S
C719 C716 1.511 . S
C719 H733 0.961 . S
C719 H734 0.961 . S
C719 H735 0.961 . S
C720 C721 1.370 . S
C720 C722 1.363 . S
C720 H736 0.931 . S
C721 C720 1.370 . S
C721 C725 1.408 . S
C722 C720 1.363 . S
C722 C723 1.370 . S
C722 C726 1.524 . S
C723 C715 1.503 . S
C723 C722 1.370 . S
C723 C724 1.403 . S
C724 C723 1.403 . S
C724 C725 1.404 . S
C724 C727 1.539 . S
C725 C721 1.408 . S
C725 C724 1.404 . S
C725 H737 0.930 . S
C726 C722 1.524 . S
C726 H738 0.956 . S
C726 H739 0.961 . S
C726 H740 0.961 . S
C727 C724 1.539 . S
C727 H741 0.958 . S
C727 H742 0.961 . S
C727 H743 0.960 . S
H728 C712 0.931 . S
H729 C717 0.929 . S
H730 C718 0.960 . S
H731 C718 0.962 . S
H732 C718 0.960 . S
H733 C719 0.961 . S
H734 C719 0.961 . S
H735 C719 0.961 . S
H736 C720 0.931 . S
H737 C725 0.930 . S
H738 C726 0.956 . S
H739 C726 0.961 . S
H740 C726 0.961 . S
H741 C727 0.958 . S
H742 C727 0.961 . S
H743 C727 0.960 . S
C744 C745 1.391 1_545 S
C744 C746 1.394 . S
C744 H760 0.931 1_545 S
C745 C744 1.391 1_565 S
C745 C749 1.376 1_565 S
C746 C744 1.394 . S
C746 C747 1.369 . S
C746 C750 1.531 . S
C747 C746 1.369 . S
C747 C748 1.410 . S
C747 C755 1.503 . S
C748 C747 1.410 . S
C748 C749 1.392 . S
C748 C751 1.511 . S
C749 C745 1.376 1_545 S
C749 C748 1.392 . S
C749 H761 0.922 1_545 S
C750 C746 1.531 . S
C750 H762 0.960 . S
C750 H763 0.962 . S
C750 H764 0.960 . S
C751 C748 1.511 . S
C751 H765 0.961 . S
C751 H766 0.961 . S
C751 H767 0.961 . S
C752 C753 1.370 . S
C752 C754 1.363 . S
C752 H768 0.931 . S
C753 C752 1.370 . S
C753 C757 1.408 . S
C754 C752 1.363 . S
C754 C755 1.370 . S
C754 C758 1.524 . S
C755 C747 1.503 . S
C755 C754 1.370 . S
C755 C756 1.403 . S
C756 C755 1.403 . S
C756 C757 1.404 . S
C756 C759 1.539 . S
C757 C753 1.408 . S
C757 C756 1.404 . S
C757 H769 0.930 . S
C758 C754 1.524 . S
C758 H770 0.956 . S
C758 H771 0.961 . S
C758 H772 0.961 . S
C759 C756 1.539 . S
C759 H773 0.958 . S
C759 H774 0.961 . S
C759 H775 0.960 . S
H760 C744 0.931 1_565 S
H761 C749 0.922 1_565 S
H762 C750 0.960 . S
H763 C750 0.962 . S
H764 C750 0.960 . S
H765 C751 0.961 . S
H766 C751 0.961 . S
H767 C751 0.961 . S
H768 C752 0.931 . S
H769 C757 0.930 . S
H770 C758 0.956 . S
H771 C758 0.961 . S
H772 C758 0.961 . S
H773 C759 0.958 . S
H774 C759 0.961 . S
H775 C759 0.960 . S
C776 C777 1.391 1_565 S
C776 C778 1.394 . S
C776 H792 0.931 . S
C777 C776 1.391 1_545 S
C777 C781 1.376 . S
C778 C776 1.394 . S
C778 C779 1.369 . S
C778 C782 1.531 . S
C779 C778 1.369 . S
C779 C780 1.410 . S
C779 C787 1.503 . S
C780 C779 1.410 . S
C780 C781 1.392 1_565 S
C780 C783 1.511 1_565 S
C781 C777 1.376 . S
C781 C780 1.392 1_545 S
C781 H793 0.929 . S
C782 C778 1.531 . S
C782 H794 0.960 . S
C782 H795 0.962 . S
C782 H796 0.960 . S
C783 C780 1.511 1_545 S
C783 H797 0.961 . S
C783 H798 0.961 1_545 S
C783 H799 0.961 . S
C784 C785 1.370 . S
C784 C786 1.363 . S
C784 H800 0.931 . S
C785 C784 1.370 . S
C785 C789 1.408 . S
C786 C784 1.363 . S
C786 C787 1.370 . S
C786 C790 1.524 . S
C787 C779 1.503 . S
C787 C786 1.370 . S
C787 C788 1.403 . S
C788 C787 1.403 . S
C788 C789 1.404 . S
C788 C791 1.539 . S
C789 C785 1.408 . S
C789 C788 1.404 . S
C789 H801 0.930 . S
C790 C786 1.524 . S
C790 H802 0.956 . S
C790 H803 0.961 . S
C790 H804 0.961 . S
C791 C788 1.539 . S
C791 H805 0.958 . S
C791 H806 0.961 1_655 S
C791 H807 0.960 . S
H792 C776 0.931 . S
H793 C781 0.929 . S
H794 C782 0.960 . S
H795 C782 0.962 . S
H796 C782 0.960 . S
H797 C783 0.961 . S
H798 C783 0.961 1_565 S
H799 C783 0.961 . S
H800 C784 0.931 . S
H801 C789 0.930 . S
H802 C790 0.956 . S
H803 C790 0.961 . S
H804 C790 0.961 . S
H805 C791 0.958 . S
H806 C791 0.961 1_455 S
H807 C791 0.960 . S
C808 C809 1.391 . S
C808 C810 1.394 . S
C808 H824 0.931 . S
C809 C808 1.391 . S
C809 C813 1.376 . S
C810 C808 1.394 . S
C810 C811 1.369 . S
C810 C814 1.531 . S
C811 C810 1.369 . S
C811 C812 1.410 . S
C811 C819 1.503 . S
C812 C811 1.410 . S
C812 C813 1.392 . S
C812 C815 1.511 . S
C813 C809 1.376 . S
C813 C812 1.392 . S
C813 H825 0.929 . S
C814 C810 1.531 . S
C814 H826 0.960 . S
C814 H827 0.962 . S
C814 H828 0.960 . S
C815 C812 1.511 . S
C815 H829 0.961 . S
C815 H830 0.961 . S
C815 H831 0.961 . S
C816 C817 1.370 . S
C816 C818 1.363 . S
C816 H832 0.931 . S
C817 C816 1.370 . S
C817 C821 1.408 . S
C818 C816 1.363 . S
C818 C819 1.370 . S
C818 C822 1.524 . S
C819 C811 1.503 . S
C819 C818 1.370 . S
C819 C820 1.403 . S
C820 C819 1.403 . S
C820 C821 1.404 . S
C820 C823 1.539 . S
C821 C817 1.408 . S
C821 C820 1.404 . S
C821 H833 0.930 . S
C822 C818 1.524 . S
C822 H834 0.956 . S
C822 H835 0.961 . S
C822 H836 0.961 . S
C823 C820 1.539 . S
C823 H837 0.958 . S
C823 H838 0.961 . S
C823 H839 0.960 . S
H824 C808 0.931 . S
H825 C813 0.929 . S
H826 C814 0.960 . S
H827 C814 0.962 . S
H828 C814 0.960 . S
H829 C815 0.961 . S
H830 C815 0.961 . S
H831 C815 0.961 . S
H832 C816 0.931 . S
H833 C821 0.930 . S
H834 C822 0.956 . S
H835 C822 0.961 . S
H836 C822 0.961 . S
H837 C823 0.958 . S
H838 C823 0.961 . S
H839 C823 0.960 . S
C840 C841 1.391 . S
C840 C842 1.394 . S
C840 H856 0.931 . S
C841 C840 1.391 . S
C841 C845 1.376 . S
C842 C840 1.394 . S
C842 C843 1.369 . S
C842 C846 1.531 . S
C843 C842 1.369 . S
C843 C844 1.410 . S
C843 C851 1.503 . S
C844 C843 1.410 . S
C844 C845 1.392 . S
C844 C847 1.511 . S
C845 C841 1.376 . S
C845 C844 1.392 . S
C845 H857 0.929 . S
C846 C842 1.531 . S
C846 H858 0.960 . S
C846 H859 0.962 . S
C846 H860 0.960 . S
C847 C844 1.511 . S
C847 H861 0.961 . S
C847 H862 0.961 . S
C847 H863 0.961 . S
C848 C849 1.370 . S
C848 C850 1.363 . S
C848 H864 0.931 . S
C849 C848 1.370 . S
C849 C853 1.408 . S
C850 C848 1.363 . S
C850 C851 1.370 . S
C850 C854 1.524 . S
C851 C843 1.503 . S
C851 C850 1.370 . S
C851 C852 1.403 . S
C852 C851 1.403 . S
C852 C853 1.404 . S
C852 C855 1.539 . S
C853 C849 1.408 . S
C853 C852 1.404 . S
C853 H865 0.930 . S
C854 C850 1.524 . S
C854 H866 0.956 . S
C854 H867 0.961 . S
C854 H868 0.961 . S
C855 C852 1.539 . S
C855 H869 0.958 . S
C855 H870 0.961 . S
C855 H871 0.960 . S
H856 C840 0.931 . S
H857 C845 0.929 . S
H858 C846 0.960 . S
H859 C846 0.962 . S
H860 C846 0.960 . S
H861 C847 0.961 . S
H862 C847 0.961 . S
H863 C847 0.961 . S
H864 C848 0.931 . S
H865 C853 0.930 . S
H866 C854 0.956 . S
H867 C854 0.961 . S
H868 C854 0.961 . S
H869 C855 0.958 . S
H870 C855 0.961 . S
H871 C855 0.960 . S
C872 C873 1.391 1_565 S
C872 C874 1.394 . S
C872 H888 0.931 . S
C873 C872 1.391 1_545 S
C873 C877 1.376 . S
C874 C872 1.394 . S
C874 C875 1.369 . S
C874 C878 1.531 . S
C875 C874 1.369 . S
C875 C876 1.410 . S
C875 C883 1.503 . S
C876 C875 1.410 . S
C876 C877 1.392 1_565 S
C876 C879 1.511 1_565 S
C877 C873 1.376 . S
C877 C876 1.392 1_545 S
C877 H889 0.929 . S
C878 C874 1.531 . S
C878 H890 0.960 . S
C878 H891 0.962 . S
C878 H892 0.960 . S
C879 C876 1.511 1_545 S
C879 H893 0.961 . S
C879 H894 0.961 1_545 S
C879 H895 0.961 . S
C880 C881 1.370 . S
C880 C882 1.363 . S
C880 H896 0.931 . S
C881 C880 1.370 . S
C881 C885 1.408 . S
C882 C880 1.363 . S
C882 C883 1.370 . S
C882 C886 1.524 . S
C883 C875 1.503 . S
C883 C882 1.370 . S
C883 C884 1.403 . S
C884 C883 1.403 . S
C884 C885 1.404 . S
C884 C887 1.539 . S
C885 C881 1.408 . S
C885 C884 1.404 . S
C885 H897 0.930 . S
C886 C882 1.524 . S
C886 H898 0.956 . S
C886 H899 0.961 . S
C886 H900 0.961 . S
C887 C884 1.539 . S
C887 H901 0.958 . S
C887 H902 0.961 1_455 S
C887 H903 0.960 . S
H888 C872 0.931 . S
H889 C877 0.929 . S
H890 C878 0.960 . S
H891 C878 0.962 . S
H892 C878 0.960 . S
H893 C879 0.961 . S
H894 C879 0.961 1_565 S
H895 C879 0.961 . S
H896 C880 0.931 . S
H897 C885 0.930 . S
H898 C886 0.956 . S
H899 C886 0.961 . S
H900 C886 0.961 . S
H901 C887 0.958 . S
H902 C887 0.961 1_655 S
H903 C887 0.960 . S
C904 C905 1.391 . S
C904 C906 1.394 . S
C904 H920 0.931 . S
C905 C904 1.391 . S
C905 C909 1.376 . S
C906 C904 1.394 . S
C906 C907 1.369 . S
C906 C910 1.531 . S
C907 C906 1.369 . S
C907 C908 1.410 . S
C907 C915 1.503 . S
C908 C907 1.410 . S
C908 C909 1.392 . S
C908 C911 1.511 . S
C909 C905 1.376 . S
C909 C908 1.392 . S
C909 H921 0.929 . S
C910 C906 1.531 . S
C910 H922 0.960 . S
C910 H923 0.962 . S
C910 H924 0.960 . S
C911 C908 1.511 . S
C911 H925 0.961 . S
C911 H926 0.961 . S
C911 H927 0.961 . S
C912 C913 1.370 . S
C912 C914 1.363 . S
C912 H928 0.931 . S
C913 C912 1.370 . S
C913 C917 1.408 . S
C914 C912 1.363 . S
C914 C915 1.370 . S
C914 C918 1.524 . S
C915 C907 1.503 . S
C915 C914 1.370 . S
C915 C916 1.403 . S
C916 C915 1.403 . S
C916 C917 1.404 . S
C916 C919 1.539 . S
C917 C913 1.408 . S
C917 C916 1.404 . S
C917 H929 0.930 . S
C918 C914 1.524 . S
C918 H930 0.956 . S
C918 H931 0.961 . S
C918 H932 0.961 . S
C919 C916 1.539 . S
C919 H933 0.958 . S
C919 H934 0.961 . S
C919 H935 0.960 . S
H920 C904 0.931 . S
H921 C909 0.929 . S
H922 C910 0.960 . S
H923 C910 0.962 . S
H924 C910 0.960 . S
H925 C911 0.961 . S
H926 C911 0.961 . S
H927 C911 0.961 . S
H928 C912 0.931 . S
H929 C917 0.930 . S
H930 C918 0.956 . S
H931 C918 0.961 . S
H932 C918 0.961 . S
H933 C919 0.958 . S
H934 C919 0.961 . S
H935 C919 0.960 . S
C936 C937 1.391 . S
C936 C938 1.394 . S
C936 H952 0.931 . S
C937 C936 1.391 . S
C937 C941 1.376 . S
C938 C936 1.394 . S
C938 C939 1.369 . S
C938 C942 1.531 . S
C939 C938 1.369 . S
C939 C940 1.410 . S
C939 C947 1.503 . S
C940 C939 1.410 . S
C940 C941 1.392 . S
C940 C943 1.511 . S
C941 C937 1.376 . S
C941 C940 1.392 . S
C941 H953 0.929 . S
C942 C938 1.531 . S
C942 H954 0.960 . S
C942 H955 0.962 . S
C942 H956 0.960 . S
C943 C940 1.511 . S
C943 H957 0.961 . S
C943 H958 0.961 . S
C943 H959 0.961 . S
C944 C945 1.370 . S
C944 C946 1.363 . S
C944 H960 0.931 . S
C945 C944 1.370 . S
C945 C949 1.408 . S
C946 C944 1.363 . S
C946 C947 1.370 . S
C946 C950 1.524 . S
C947 C939 1.503 . S
C947 C946 1.370 . S
C947 C948 1.403 . S
C948 C947 1.403 . S
C948 C949 1.404 . S
C948 C951 1.539 . S
C949 C945 1.408 . S
C949 C948 1.404 . S
C949 H961 0.930 . S
C950 C946 1.524 . S
C950 H962 0.956 . S
C950 H963 0.961 . S
C950 H964 0.961 . S
C951 C948 1.539 . S
C951 H965 0.958 . S
C951 H966 0.961 . S
C951 H967 0.960 . S
H952 C936 0.931 . S
H953 C941 0.929 . S
H954 C942 0.960 . S
H955 C942 0.962 . S
H956 C942 0.960 . S
H957 C943 0.961 . S
H958 C943 0.961 . S
H959 C943 0.961 . S
H960 C944 0.931 . S
H961 C949 0.930 . S
H962 C950 0.956 . S
H963 C950 0.961 . S
H964 C950 0.961 . S
H965 C951 0.958 . S
H966 C951 0.961 . S
H967 C951 0.960 . S
C968 C969 1.391 . S
C968 C970 1.394 . S
C968 H984 0.931 . S
C969 C968 1.391 . S
C969 C973 1.376 . S
C970 C968 1.394 . S
C970 C971 1.369 . S
C970 C974 1.531 . S
C971 C970 1.369 . S
C971 C972 1.410 . S
C971 C979 1.503 . S
C972 C971 1.410 . S
C972 C973 1.392 . S
C972 C975 1.511 . S
C973 C969 1.376 . S
C973 C972 1.392 . S
C973 H985 0.929 . S
C974 C970 1.531 . S
C974 H986 0.960 . S
C974 H987 0.962 . S
C974 H988 0.960 . S
C975 C972 1.511 . S
C975 H989 0.961 . S
C975 H990 0.961 . S
C975 H991 0.961 . S
C976 C977 1.370 . S
C976 C978 1.363 . S
C976 H992 0.931 . S
C977 C976 1.370 . S
C977 C981 1.408 . S
C978 C976 1.363 . S
C978 C979 1.370 . S
C978 C982 1.524 . S
C979 C971 1.503 . S
C979 C978 1.370 . S
C979 C980 1.403 . S
C980 C979 1.403 . S
C980 C981 1.404 . S
C980 C983 1.539 . S
C981 C977 1.408 . S
C981 C980 1.404 . S
C981 H993 0.930 . S
C982 C978 1.524 . S
C982 H994 0.956 . S
C982 H995 0.961 . S
C982 H996 0.961 . S
C983 C980 1.539 . S
C983 H997 0.958 . S
C983 H998 0.961 . S
C983 H999 0.960 . S
H984 C968 0.931 . S
H985 C973 0.929 . S
H986 C974 0.960 . S
H987 C974 0.962 . S
H988 C974 0.960 . S
H989 C975 0.961 . S
H990 C975 0.961 . S
H991 C975 0.961 . S
H992 C976 0.931 . S
H993 C981 0.930 . S
H994 C982 0.956 . S
H995 C982 0.961 . S
H996 C982 0.961 . S
H997 C983 0.958 . S
H998 C983 0.961 . S
H999 C983 0.960 . S
C1000 C1001 1.391 . S
C1000 C1002 1.394 . S
C1000 H1016 0.931 . S
C1001 C1000 1.391 . S
C1001 C1005 1.376 . S
C1002 C1000 1.394 . S
C1002 C1003 1.369 . S
C1002 C1006 1.531 . S
C1003 C1002 1.369 . S
C1003 C1004 1.410 . S
C1003 C1011 1.503 . S
C1004 C1003 1.410 . S
C1004 C1005 1.392 . S
C1004 C1007 1.511 . S
C1005 C1001 1.376 . S
C1005 C1004 1.392 . S
C1005 H1017 0.929 . S
C1006 C1002 1.531 . S
C1006 H1018 0.960 . S
C1006 H1019 0.962 . S
C1006 H1020 0.960 . S
C1007 C1004 1.511 . S
C1007 H1021 0.961 . S
C1007 H1022 0.961 . S
C1007 H1023 0.961 . S
C1008 C1009 1.370 . S
C1008 C1010 1.363 . S
C1008 H1024 0.931 . S
C1009 C1008 1.370 . S
C1009 C1013 1.408 . S
C1010 C1008 1.363 . S
C1010 C1011 1.370 . S
C1010 C1014 1.524 . S
C1011 C1003 1.503 . S
C1011 C1010 1.370 . S
C1011 C1012 1.403 . S
C1012 C1011 1.403 . S
C1012 C1013 1.404 . S
C1012 C1015 1.539 . S
C1013 C1009 1.408 . S
C1013 C1012 1.404 . S
C1013 H1025 0.930 . S
C1014 C1010 1.524 . S
C1014 H1026 0.956 . S
C1014 H1027 0.961 . S
C1014 H1028 0.961 . S
C1015 C1012 1.539 . S
C1015 H1029 0.958 . S
C1015 H1030 0.961 . S
C1015 H1031 0.960 . S
H1016 C1000 0.931 . S
H1017 C1005 0.929 . S
H1018 C1006 0.960 . S
H1019 C1006 0.962 . S
H1020 C1006 0.960 . S
H1021 C1007 0.961 . S
H1022 C1007 0.961 . S
H1023 C1007 0.961 . S
H1024 C1008 0.931 . S
H1025 C1013 0.930 . S
H1026 C1014 0.956 . S
H1027 C1014 0.961 . S
H1028 C1014 0.961 . S
H1029 C1015 0.958 . S
H1030 C1015 0.961 . S
H1031 C1015 0.960 . S
C1032 C1033 1.391 . S
C1032 C1034 1.394 . S
C1032 H1048 0.931 . S
C1033 C1032 1.391 . S
C1033 C1037 1.376 . S
C1034 C1032 1.394 . S
C1034 C1035 1.369 . S
C1034 C1038 1.531 . S
C1035 C1034 1.369 . S
C1035 C1036 1.410 . S
C1035 C1043 1.503 . S
C1036 C1035 1.410 . S
C1036 C1037 1.392 . S
C1036 C1039 1.511 . S
C1037 C1033 1.376 . S
C1037 C1036 1.392 . S
C1037 H1049 0.929 . S
C1038 C1034 1.531 . S
C1038 H1050 0.960 . S
C1038 H1051 0.962 . S
C1038 H1052 0.960 . S
C1039 C1036 1.511 . S
C1039 H1053 0.961 . S
C1039 H1054 0.961 . S
C1039 H1055 0.961 . S
C1040 C1041 1.370 . S
C1040 C1042 1.363 . S
C1040 H1056 0.931 . S
C1041 C1040 1.370 . S
C1041 C1045 1.408 . S
C1042 C1040 1.363 . S
C1042 C1043 1.370 . S
C1042 C1046 1.524 . S
C1043 C1035 1.503 . S
C1043 C1042 1.370 . S
C1043 C1044 1.403 . S
C1044 C1043 1.403 . S
C1044 C1045 1.404 . S
C1044 C1047 1.539 . S
C1045 C1041 1.408 . S
C1045 C1044 1.404 . S
C1045 H1057 0.930 . S
C1046 C1042 1.524 . S
C1046 H1058 0.956 . S
C1046 H1059 0.961 . S
C1046 H1060 0.961 . S
C1047 C1044 1.539 . S
C1047 H1061 0.958 . S
C1047 H1062 0.961 . S
C1047 H1063 0.960 . S
H1048 C1032 0.931 . S
H1049 C1037 0.929 . S
H1050 C1038 0.960 . S
H1051 C1038 0.962 . S
H1052 C1038 0.960 . S
H1053 C1039 0.961 . S
H1054 C1039 0.961 . S
H1055 C1039 0.961 . S
H1056 C1040 0.931 . S
H1057 C1045 0.930 . S
H1058 C1046 0.956 . S
H1059 C1046 0.961 . S
H1060 C1046 0.961 . S
H1061 C1047 0.958 . S
H1062 C1047 0.961 . S
H1063 C1047 0.960 . S
C1064 C1065 1.391 . S
C1064 C1066 1.394 . S
C1064 H1080 0.931 . S
C1065 C1064 1.391 . S
C1065 C1069 1.376 . S
C1066 C1064 1.394 . S
C1066 C1067 1.369 . S
C1066 C1070 1.531 . S
C1067 C1066 1.369 . S
C1067 C1068 1.410 . S
C1067 C1075 1.503 . S
C1068 C1067 1.410 . S
C1068 C1069 1.392 . S
C1068 C1071 1.511 . S
C1069 C1065 1.376 . S
C1069 C1068 1.392 . S
C1069 H1081 0.929 . S
C1070 C1066 1.531 . S
C1070 H1082 0.960 . S
C1070 H1083 0.962 . S
C1070 H1084 0.960 . S
C1071 C1068 1.511 . S
C1071 H1085 0.961 . S
C1071 H1086 0.961 . S
C1071 H1087 0.961 . S
C1072 C1073 1.370 . S
C1072 C1074 1.363 . S
C1072 H1088 0.931 . S
C1073 C1072 1.370 . S
C1073 C1077 1.408 . S
C1074 C1072 1.363 . S
C1074 C1075 1.370 . S
C1074 C1078 1.524 . S
C1075 C1067 1.503 . S
C1075 C1074 1.370 . S
C1075 C1076 1.403 . S
C1076 C1075 1.403 . S
C1076 C1077 1.404 . S
C1076 C1079 1.539 . S
C1077 C1073 1.408 . S
C1077 C1076 1.404 . S
C1077 H1089 0.930 . S
C1078 C1074 1.524 . S
C1078 H1090 0.956 . S
C1078 H1091 0.961 . S
C1078 H1092 0.961 . S
C1079 C1076 1.539 . S
C1079 H1093 0.958 . S
C1079 H1094 0.961 . S
C1079 H1095 0.960 . S
H1080 C1064 0.931 . S
H1081 C1069 0.929 . S
H1082 C1070 0.960 . S
H1083 C1070 0.962 . S
H1084 C1070 0.960 . S
H1085 C1071 0.961 . S
H1086 C1071 0.961 . S
H1087 C1071 0.961 . S
H1088 C1072 0.931 . S
H1089 C1077 0.930 . S
H1090 C1078 0.956 . S
H1091 C1078 0.961 . S
H1092 C1078 0.961 . S
H1093 C1079 0.958 . S
H1094 C1079 0.961 . S
H1095 C1079 0.960 . S
C1096 C1097 1.391 . S
C1096 C1098 1.394 . S
C1096 H1112 0.931 . S
C1097 C1096 1.391 . S
C1097 C1101 1.376 . S
C1098 C1096 1.394 . S
C1098 C1099 1.369 . S
C1098 C1102 1.531 . S
C1099 C1098 1.369 . S
C1099 C1100 1.410 . S
C1099 C1107 1.503 . S
C1100 C1099 1.410 . S
C1100 C1101 1.392 . S
C1100 C1103 1.511 . S
C1101 C1097 1.376 . S
C1101 C1100 1.392 . S
C1101 H1113 0.929 . S
C1102 C1098 1.531 . S
C1102 H1114 0.960 . S
C1102 H1115 0.962 . S
C1102 H1116 0.960 . S
C1103 C1100 1.511 . S
C1103 H1117 0.961 . S
C1103 H1118 0.961 . S
C1103 H1119 0.961 . S
C1104 C1105 1.370 . S
C1104 C1106 1.363 . S
C1104 H1120 0.931 . S
C1105 C1104 1.370 . S
C1105 C1109 1.408 . S
C1106 C1104 1.363 . S
C1106 C1107 1.370 . S
C1106 C1110 1.524 . S
C1107 C1099 1.503 . S
C1107 C1106 1.370 . S
C1107 C1108 1.403 . S
C1108 C1107 1.403 . S
C1108 C1109 1.404 . S
C1108 C1111 1.539 . S
C1109 C1105 1.408 . S
C1109 C1108 1.404 . S
C1109 H1121 0.930 . S
C1110 C1106 1.524 . S
C1110 H1122 0.956 . S
C1110 H1123 0.961 . S
C1110 H1124 0.961 . S
C1111 C1108 1.539 . S
C1111 H1125 0.958 . S
C1111 H1126 0.961 . S
C1111 H1127 0.960 . S
H1112 C1096 0.931 . S
H1113 C1101 0.929 . S
H1114 C1102 0.960 . S
H1115 C1102 0.962 . S
H1116 C1102 0.960 . S
H1117 C1103 0.961 . S
H1118 C1103 0.961 . S
H1119 C1103 0.961 . S
H1120 C1104 0.931 . S
H1121 C1109 0.930 . S
H1122 C1110 0.956 . S
H1123 C1110 0.961 . S
H1124 C1110 0.961 . S
H1125 C1111 0.958 . S
H1126 C1111 0.961 . S
H1127 C1111 0.960 . S
C1128 C1129 1.391 . S
C1128 C1130 1.394 . S
C1128 H1144 0.931 . S
C1129 C1128 1.391 . S
C1129 C1133 1.376 . S
C1130 C1128 1.394 . S
C1130 C1131 1.369 . S
C1130 C1134 1.531 . S
C1131 C1130 1.369 . S
C1131 C1132 1.410 . S
C1131 C1139 1.503 . S
C1132 C1131 1.410 . S
C1132 C1133 1.392 . S
C1132 C1135 1.511 . S
C1133 C1129 1.376 . S
C1133 C1132 1.392 . S
C1133 H1145 0.929 . S
C1134 C1130 1.531 . S
C1134 H1146 0.960 . S
C1134 H1147 0.962 . S
C1134 H1148 0.960 . S
C1135 C1132 1.511 . S
C1135 H1149 0.961 . S
C1135 H1150 0.961 . S
C1135 H1151 0.961 . S
C1136 C1137 1.370 . S
C1136 C1138 1.363 . S
C1136 H1152 0.931 . S
C1137 C1136 1.370 . S
C1137 C1141 1.408 . S
C1138 C1136 1.363 . S
C1138 C1139 1.370 . S
C1138 C1142 1.524 . S
C1139 C1131 1.503 . S
C1139 C1138 1.370 . S
C1139 C1140 1.403 . S
C1140 C1139 1.403 . S
C1140 C1141 1.404 . S
C1140 C1143 1.539 . S
C1141 C1137 1.408 . S
C1141 C1140 1.404 . S
C1141 H1153 0.930 . S
C1142 C1138 1.524 . S
C1142 H1154 0.956 . S
C1142 H1155 0.961 . S
C1142 H1156 0.961 . S
C1143 C1140 1.539 . S
C1143 H1157 0.958 . S
C1143 H1158 0.961 . S
C1143 H1159 0.960 . S
H1144 C1128 0.931 . S
H1145 C1133 0.929 . S
H1146 C1134 0.960 . S
H1147 C1134 0.962 . S
H1148 C1134 0.960 . S
H1149 C1135 0.961 . S
H1150 C1135 0.961 . S
H1151 C1135 0.961 . S
H1152 C1136 0.931 . S
H1153 C1141 0.930 . S
H1154 C1142 0.956 . S
H1155 C1142 0.961 . S
H1156 C1142 0.961 . S
H1157 C1143 0.958 . S
H1158 C1143 0.961 . S
H1159 C1143 0.960 . S
C1160 C1161 1.391 . S
C1160 C1162 1.394 . S
C1160 H1176 0.931 . S
C1161 C1160 1.391 . S
C1161 C1165 1.376 . S
C1162 C1160 1.394 . S
C1162 C1163 1.369 . S
C1162 C1166 1.531 . S
C1163 C1162 1.369 . S
C1163 C1164 1.410 . S
C1163 C1171 1.503 . S
C1164 C1163 1.410 . S
C1164 C1165 1.392 . S
C1164 C1167 1.511 . S
C1165 C1161 1.376 . S
C1165 C1164 1.392 . S
C1165 H1177 0.929 . S
C1166 C1162 1.531 . S
C1166 H1178 0.960 . S
C1166 H1179 0.962 . S
C1166 H1180 0.960 . S
C1167 C1164 1.511 . S
C1167 H1181 0.961 . S
C1167 H1182 0.961 . S
C1167 H1183 0.961 . S
C1168 C1169 1.370 . S
C1168 C1170 1.363 . S
C1168 H1184 0.931 . S
C1169 C1168 1.370 . S
C1169 C1173 1.408 . S
C1170 C1168 1.363 . S
C1170 C1171 1.370 . S
C1170 C1174 1.524 . S
C1171 C1163 1.503 . S
C1171 C1170 1.370 . S
C1171 C1172 1.403 . S
C1172 C1171 1.403 . S
C1172 C1173 1.404 . S
C1172 C1175 1.539 . S
C1173 C1169 1.408 . S
C1173 C1172 1.404 . S
C1173 H1185 0.930 . S
C1174 C1170 1.524 . S
C1174 H1186 0.956 . S
C1174 H1187 0.961 . S
C1174 H1188 0.961 . S
C1175 C1172 1.539 . S
C1175 H1189 0.958 . S
C1175 H1190 0.961 . S
C1175 H1191 0.960 . S
H1176 C1160 0.931 . S
H1177 C1165 0.929 . S
H1178 C1166 0.960 . S
H1179 C1166 0.962 . S
H1180 C1166 0.960 . S
H1181 C1167 0.961 . S
H1182 C1167 0.961 . S
H1183 C1167 0.961 . S
H1184 C1168 0.931 . S
H1185 C1173 0.930 . S
H1186 C1174 0.956 . S
H1187 C1174 0.961 . S
H1188 C1174 0.961 . S
H1189 C1175 0.958 . S
H1190 C1175 0.961 . S
H1191 C1175 0.960 . S
C1192 C1193 1.391 . S
C1192 C1194 1.394 . S
C1192 H1208 0.931 . S
C1193 C1192 1.391 . S
C1193 C1197 1.376 . S
C1194 C1192 1.394 . S
C1194 C1195 1.369 . S
C1194 C1198 1.531 . S
C1195 C1194 1.369 . S
C1195 C1196 1.410 . S
C1195 C1203 1.503 . S
C1196 C1195 1.410 . S
C1196 C1197 1.392 . S
C1196 C1199 1.511 . S
C1197 C1193 1.376 . S
C1197 C1196 1.392 . S
C1197 H1209 0.929 . S
C1198 C1194 1.531 . S
C1198 H1210 0.960 . S
C1198 H1211 0.962 . S
C1198 H1212 0.960 . S
C1199 C1196 1.511 . S
C1199 H1213 0.961 . S
C1199 H1214 0.961 . S
C1199 H1215 0.961 . S
C1200 C1201 1.370 . S
C1200 C1202 1.363 . S
C1200 H1216 0.931 . S
C1201 C1200 1.370 . S
C1201 C1205 1.408 . S
C1202 C1200 1.363 . S
C1202 C1203 1.370 . S
C1202 C1206 1.524 . S
C1203 C1195 1.503 . S
C1203 C1202 1.370 . S
C1203 C1204 1.403 . S
C1204 C1203 1.403 . S
C1204 C1205 1.404 . S
C1204 C1207 1.539 . S
C1205 C1201 1.408 . S
C1205 C1204 1.404 . S
C1205 H1217 0.930 . S
C1206 C1202 1.524 . S
C1206 H1218 0.956 . S
C1206 H1219 0.961 . S
C1206 H1220 0.961 . S
C1207 C1204 1.539 . S
C1207 H1221 0.958 . S
C1207 H1222 0.961 . S
C1207 H1223 0.960 . S
H1208 C1192 0.931 . S
H1209 C1197 0.929 . S
H1210 C1198 0.960 . S
H1211 C1198 0.962 . S
H1212 C1198 0.960 . S
H1213 C1199 0.961 . S
H1214 C1199 0.961 . S
H1215 C1199 0.961 . S
H1216 C1200 0.931 . S
H1217 C1205 0.930 . S
H1218 C1206 0.956 . S
H1219 C1206 0.961 . S
H1220 C1206 0.961 . S
H1221 C1207 0.958 . S
H1222 C1207 0.961 . S
H1223 C1207 0.960 . S
C1224 C1225 1.391 . S
C1224 C1226 1.394 . S
C1224 H1240 0.931 . S
C1225 C1224 1.391 . S
C1225 C1229 1.376 . S
C1226 C1224 1.394 . S
C1226 C1227 1.369 . S
C1226 C1230 1.531 . S
C1227 C1226 1.369 . S
C1227 C1228 1.410 . S
C1227 C1235 1.503 . S
C1228 C1227 1.410 . S
C1228 C1229 1.392 . S
C1228 C1231 1.511 . S
C1229 C1225 1.376 . S
C1229 C1228 1.392 . S
C1229 H1241 0.929 . S
C1230 C1226 1.531 . S
C1230 H1242 0.960 . S
C1230 H1243 0.962 . S
C1230 H1244 0.960 . S
C1231 C1228 1.511 . S
C1231 H1245 0.961 . S
C1231 H1246 0.961 . S
C1231 H1247 0.961 . S
C1232 C1233 1.370 . S
C1232 C1234 1.363 . S
C1232 H1248 0.931 . S
C1233 C1232 1.370 . S
C1233 C1237 1.408 . S
C1234 C1232 1.363 . S
C1234 C1235 1.370 . S
C1234 C1238 1.524 . S
C1235 C1227 1.503 . S
C1235 C1234 1.370 . S
C1235 C1236 1.403 . S
C1236 C1235 1.403 . S
C1236 C1237 1.404 . S
C1236 C1239 1.539 . S
C1237 C1233 1.408 . S
C1237 C1236 1.404 . S
C1237 H1249 0.930 . S
C1238 C1234 1.524 . S
C1238 H1250 0.956 . S
C1238 H1251 0.961 . S
C1238 H1252 0.961 . S
C1239 C1236 1.539 . S
C1239 H1253 0.958 . S
C1239 H1254 0.961 . S
C1239 H1255 0.960 . S
H1240 C1224 0.931 . S
H1241 C1229 0.929 . S
H1242 C1230 0.960 . S
H1243 C1230 0.962 . S
H1244 C1230 0.960 . S
H1245 C1231 0.961 . S
H1246 C1231 0.961 . S
H1247 C1231 0.961 . S
H1248 C1232 0.931 . S
H1249 C1237 0.930 . S
H1250 C1238 0.956 . S
H1251 C1238 0.961 . S
H1252 C1238 0.961 . S
H1253 C1239 0.958 . S
H1254 C1239 0.961 . S
H1255 C1239 0.960 . S
C1256 C1257 1.391 . S
C1256 C1258 1.394 . S
C1256 H1272 0.931 . S
C1257 C1256 1.391 . S
C1257 C1261 1.376 . S
C1258 C1256 1.394 . S
C1258 C1259 1.369 . S
C1258 C1262 1.531 . S
C1259 C1258 1.369 . S
C1259 C1260 1.410 . S
C1259 C1267 1.503 . S
C1260 C1259 1.410 . S
C1260 C1261 1.392 . S
C1260 C1263 1.511 . S
C1261 C1257 1.376 . S
C1261 C1260 1.392 . S
C1261 H1273 0.929 . S
C1262 C1258 1.531 . S
C1262 H1274 0.960 . S
C1262 H1275 0.962 . S
C1262 H1276 0.960 . S
C1263 C1260 1.511 . S
C1263 H1277 0.961 . S
C1263 H1278 0.961 . S
C1263 H1279 0.961 . S
C1264 C1265 1.370 . S
C1264 C1266 1.363 . S
C1264 H1280 0.931 . S
C1265 C1264 1.370 . S
C1265 C1269 1.408 . S
C1266 C1264 1.363 . S
C1266 C1267 1.370 . S
C1266 C1270 1.524 . S
C1267 C1259 1.503 . S
C1267 C1266 1.370 . S
C1267 C1268 1.403 . S
C1268 C1267 1.403 . S
C1268 C1269 1.404 . S
C1268 C1271 1.539 . S
C1269 C1265 1.408 . S
C1269 C1268 1.404 . S
C1269 H1281 0.930 . S
C1270 C1266 1.524 . S
C1270 H1282 0.956 . S
C1270 H1283 0.961 . S
C1270 H1284 0.961 . S
C1271 C1268 1.539 . S
C1271 H1285 0.958 . S
C1271 H1286 0.961 . S
C1271 H1287 0.960 . S
H1272 C1256 0.931 . S
H1273 C1261 0.929 . S
H1274 C1262 0.960 . S
H1275 C1262 0.962 . S
H1276 C1262 0.960 . S
H1277 C1263 0.961 . S
H1278 C1263 0.961 . S
H1279 C1263 0.961 . S
H1280 C1264 0.931 . S
H1281 C1269 0.930 . S
H1282 C1270 0.956 . S
H1283 C1270 0.961 . S
H1284 C1270 0.961 . S
H1285 C1271 0.958 . S
H1286 C1271 0.961 . S
H1287 C1271 0.960 . S
C1288 C1289 1.391 . S
C1288 C1290 1.394 . S
C1288 H1304 0.931 . S
C1289 C1288 1.391 . S
C1289 C1293 1.376 . S
C1290 C1288 1.394 . S
C1290 C1291 1.369 . S
C1290 C1294 1.531 . S
C1291 C1290 1.369 . S
C1291 C1292 1.410 . S
C1291 C1299 1.503 . S
C1292 C1291 1.410 . S
C1292 C1293 1.392 . S
C1292 C1295 1.511 . S
C1293 C1289 1.376 . S
C1293 C1292 1.392 . S
C1293 H1305 0.929 . S
C1294 C1290 1.531 . S
C1294 H1306 0.960 . S
C1294 H1307 0.962 . S
C1294 H1308 0.960 . S
C1295 C1292 1.511 . S
C1295 H1309 0.961 . S
C1295 H1310 0.961 . S
C1295 H1311 0.961 . S
C1296 C1297 1.370 . S
C1296 C1298 1.363 . S
C1296 H1312 0.931 . S
C1297 C1296 1.370 . S
C1297 C1301 1.408 . S
C1298 C1296 1.363 . S
C1298 C1299 1.370 . S
C1298 C1302 1.524 . S
C1299 C1291 1.503 . S
C1299 C1298 1.370 . S
C1299 C1300 1.403 . S
C1300 C1299 1.403 . S
C1300 C1301 1.404 . S
C1300 C1303 1.539 . S
C1301 C1297 1.408 . S
C1301 C1300 1.404 . S
C1301 H1313 0.930 . S
C1302 C1298 1.524 . S
C1302 H1314 0.956 . S
C1302 H1315 0.961 . S
C1302 H1316 0.961 . S
C1303 C1300 1.539 . S
C1303 H1317 0.958 . S
C1303 H1318 0.961 . S
C1303 H1319 0.960 . S
H1304 C1288 0.931 . S
H1305 C1293 0.929 . S
H1306 C1294 0.960 . S
H1307 C1294 0.962 . S
H1308 C1294 0.960 . S
H1309 C1295 0.961 . S
H1310 C1295 0.961 . S
H1311 C1295 0.961 . S
H1312 C1296 0.931 . S
H1313 C1301 0.930 . S
H1314 C1302 0.956 . S
H1315 C1302 0.961 . S
H1316 C1302 0.961 . S
H1317 C1303 0.958 . S
H1318 C1303 0.961 . S
H1319 C1303 0.960 . S
C1320 C1321 1.391 . S
C1320 C1322 1.394 . S
C1320 H1336 0.931 . S
C1321 C1320 1.391 . S
C1321 C1325 1.376 . S
C1322 C1320 1.394 . S
C1322 C1323 1.369 . S
C1322 C1326 1.531 . S
C1323 C1322 1.369 . S
C1323 C1324 1.410 . S
C1323 C1331 1.503 . S
C1324 C1323 1.410 . S
C1324 C1325 1.392 . S
C1324 C1327 1.511 . S
C1325 C1321 1.376 . S
C1325 C1324 1.392 . S
C1325 H1337 0.929 . S
C1326 C1322 1.531 . S
C1326 H1338 0.960 . S
C1326 H1339 0.962 . S
C1326 H1340 0.960 . S
C1327 C1324 1.511 . S
C1327 H1341 0.961 . S
C1327 H1342 0.961 . S
C1327 H1343 0.961 . S
C1328 C1329 1.370 . S
C1328 C1330 1.363 . S
C1328 H1344 0.931 . S
C1329 C1328 1.370 . S
C1329 C1333 1.408 . S
C1330 C1328 1.363 . S
C1330 C1331 1.370 . S
C1330 C1334 1.524 . S
C1331 C1323 1.503 . S
C1331 C1330 1.370 . S
C1331 C1332 1.403 . S
C1332 C1331 1.403 . S
C1332 C1333 1.404 . S
C1332 C1335 1.539 . S
C1333 C1329 1.408 . S
C1333 C1332 1.404 . S
C1333 H1345 0.930 . S
C1334 C1330 1.524 . S
C1334 H1346 0.956 . S
C1334 H1347 0.961 . S
C1334 H1348 0.961 . S
C1335 C1332 1.539 . S
C1335 H1349 0.958 . S
C1335 H1350 0.961 . S
C1335 H1351 0.960 . S
H1336 C1320 0.931 . S
H1337 C1325 0.929 . S
H1338 C1326 0.960 . S
H1339 C1326 0.962 . S
H1340 C1326 0.960 . S
H1341 C1327 0.961 . S
H1342 C1327 0.961 . S
H1343 C1327 0.961 . S
H1344 C1328 0.931 . S
H1345 C1333 0.930 . S
H1346 C1334 0.956 . S
H1347 C1334 0.961 . S
H1348 C1334 0.961 . S
H1349 C1335 0.958 . S
H1350 C1335 0.961 . S
H1351 C1335 0.960 . S
C1352 C1353 1.391 . S
C1352 C1354 1.394 . S
C1352 H1368 0.931 . S
C1353 C1352 1.391 . S
C1353 C1357 1.376 . S
C1354 C1352 1.394 . S
C1354 C1355 1.369 . S
C1354 C1358 1.531 . S
C1355 C1354 1.369 . S
C1355 C1356 1.410 . S
C1355 C1363 1.503 . S
C1356 C1355 1.410 . S
C1356 C1357 1.392 . S
C1356 C1359 1.511 . S
C1357 C1353 1.376 . S
C1357 C1356 1.392 . S
C1357 H1369 0.929 . S
C1358 C1354 1.531 . S
C1358 H1370 0.960 . S
C1358 H1371 0.962 . S
C1358 H1372 0.960 . S
C1359 C1356 1.511 . S
C1359 H1373 0.961 . S
C1359 H1374 0.961 . S
C1359 H1375 0.961 . S
C1360 C1361 1.370 . S
C1360 C1362 1.363 . S
C1360 H1376 0.931 . S
C1361 C1360 1.370 . S
C1361 C1365 1.408 . S
C1362 C1360 1.363 . S
C1362 C1363 1.370 . S
C1362 C1366 1.524 . S
C1363 C1355 1.503 . S
C1363 C1362 1.370 . S
C1363 C1364 1.403 . S
C1364 C1363 1.403 . S
C1364 C1365 1.404 . S
C1364 C1367 1.539 . S
C1365 C1361 1.408 . S
C1365 C1364 1.404 . S
C1365 H1377 0.930 . S
C1366 C1362 1.524 . S
C1366 H1378 0.956 . S
C1366 H1379 0.961 . S
C1366 H1380 0.961 . S
C1367 C1364 1.539 . S
C1367 H1381 0.958 . S
C1367 H1382 0.961 . S
C1367 H1383 0.960 . S
H1368 C1352 0.931 . S
H1369 C1357 0.929 . S
H1370 C1358 0.960 . S
H1371 C1358 0.962 . S
H1372 C1358 0.960 . S
H1373 C1359 0.961 . S
H1374 C1359 0.961 . S
H1375 C1359 0.961 . S
H1376 C1360 0.931 . S
H1377 C1365 0.930 . S
H1378 C1366 0.956 . S
H1379 C1366 0.961 . S
H1380 C1366 0.961 . S
H1381 C1367 0.958 . S
H1382 C1367 0.961 . S
H1383 C1367 0.960 . S
C1384 C1385 1.391 . S
C1384 C1386 1.394 . S
C1384 H1400 0.931 . S
C1385 C1384 1.391 . S
C1385 C1389 1.376 . S
C1386 C1384 1.394 . S
C1386 C1387 1.369 . S
C1386 C1390 1.531 . S
C1387 C1386 1.369 . S
C1387 C1388 1.410 . S
C1387 C1395 1.503 . S
C1388 C1387 1.410 . S
C1388 C1389 1.392 . S
C1388 C1391 1.511 . S
C1389 C1385 1.376 . S
C1389 C1388 1.392 . S
C1389 H1401 0.929 . S
C1390 C1386 1.531 . S
C1390 H1402 0.960 . S
C1390 H1403 0.962 . S
C1390 H1404 0.960 . S
C1391 C1388 1.511 . S
C1391 H1405 0.961 . S
C1391 H1406 0.961 . S
C1391 H1407 0.961 . S
C1392 C1393 1.370 . S
C1392 C1394 1.363 . S
C1392 H1408 0.931 . S
C1393 C1392 1.370 . S
C1393 C1397 1.408 . S
C1394 C1392 1.363 . S
C1394 C1395 1.370 . S
C1394 C1398 1.524 . S
C1395 C1387 1.503 . S
C1395 C1394 1.370 . S
C1395 C1396 1.403 . S
C1396 C1395 1.403 . S
C1396 C1397 1.404 . S
C1396 C1399 1.539 . S
C1397 C1393 1.408 . S
C1397 C1396 1.404 . S
C1397 H1409 0.930 . S
C1398 C1394 1.524 . S
C1398 H1410 0.956 . S
C1398 H1411 0.961 . S
C1398 H1412 0.961 . S
C1399 C1396 1.539 . S
C1399 H1413 0.958 . S
C1399 H1414 0.961 . S
C1399 H1415 0.960 . S
H1400 C1384 0.931 . S
H1401 C1389 0.929 . S
H1402 C1390 0.960 . S
H1403 C1390 0.962 . S
H1404 C1390 0.960 . S
H1405 C1391 0.961 . S
H1406 C1391 0.961 . S
H1407 C1391 0.961 . S
H1408 C1392 0.931 . S
H1409 C1397 0.930 . S
H1410 C1398 0.956 . S
H1411 C1398 0.961 . S
H1412 C1398 0.961 . S
H1413 C1399 0.958 . S
H1414 C1399 0.961 . S
H1415 C1399 0.960 . S
C649 C235 1.468 . S
C657 C368 1.466 . S
C689 C452 1.455 . S
C681 C289 1.468 . S
C721 C451 1.470 . S
C713 C157 1.477 . S
C745 C211 1.476 . S
C753 C367 1.466 . S
C785 C548 1.470 . S
C777 C79 1.478 . S
C817 C632 1.460 . S
C809 C118 1.477 . S
C841 C1 1.460 . S
C849 C631 1.474 . S
C873 C40 1.472 . S
C881 C547 1.475 . S
C913 C370 1.355 . S
C905 C55 1.500 1_554 S
C945 C454 1.312 . S
C937 C16 1.515 . S
C977 C466 1.394 . S
C969 C133 1.541 1_556 S
C1009 C382 1.399 . S
C1001 C94 1.528 . S
C1041 C550 1.354 . S
C1033 C196 1.509 1_556 S
C1065 C172 1.516 . S
C1073 C634 1.342 . S
C1105 C622 1.386 . S
C1097 C274 1.539 1_554 S
C1129 C250 1.538 . S
C1137 C538 1.386 . S
C1169 C379 1.582 . S
C1161 C21 1.564 . S
C1201 C463 1.587 . S
C1193 C60 1.568 . S
C1225 C99 1.571 . S
C1233 C464 1.562 . S
C1265 C380 1.554 . S
C1257 C138 1.556 . S
C1297 C535 1.586 . S
C1289 C177 1.574 . S
C1321 C216 1.584 . S
C1329 C619 1.583 . S
C1353 C255 1.564 . S
C1361 C620 1.568 . S
C1385 C294 1.573 . S
C1393 C536 1.568 . S
