# Generated by pormake.
# Topology anh, (6,3)-cn, num edge types: 1
# Building blocks:
#     Node 0, Type 0, BuildingBlock: VOLQOD_clean_sbu_1, # of connection points: 6
#     Node 1, Type 0, BuildingBlock: VOLQOD_clean_sbu_1, # of connection points: 6
#     Node 2, Type 0, BuildingBlock: VOLQOD_clean_sbu_1, # of connection points: 6
#     Node 3, Type 1, BuildingBlock: CUQRIR_clean_linker_1, # of connection points: 3
#     Node 4, Type 1, BuildingBlock: CUQRIR_clean_linker_1, # of connection points: 3
#     Node 5, Type 1, BuildingBlock: CUQRIR_clean_linker_1, # of connection points: 3
#     Node 6, Type 1, BuildingBlock: CUQRIR_clean_linker_1, # of connection points: 3
#     Node 7, Type 1, BuildingBlock: CUQRIR_clean_linker_1, # of connection points: 3
#     Node 8, Type 1, BuildingBlock: CUQRIR_clean_linker_1, # of connection points: 3
#     Edge 9, Type (0, 1), BuildingBlock: TEMPAE_clean_linker_10, # of connection points: 2
#     Edge 10, Type (0, 1), BuildingBlock: TEMPAE_clean_linker_10, # of connection points: 2
#     Edge 11, Type (0, 1), BuildingBlock: TEMPAE_clean_linker_10, # of connection points: 2
#     Edge 12, Type (0, 1), BuildingBlock: TEMPAE_clean_linker_10, # of connection points: 2
#     Edge 13, Type (0, 1), BuildingBlock: TEMPAE_clean_linker_10, # of connection points: 2
#     Edge 14, Type (0, 1), BuildingBlock: TEMPAE_clean_linker_10, # of connection points: 2
#     Edge 15, Type (0, 1), BuildingBlock: TEMPAE_clean_linker_10, # of connection points: 2
#     Edge 16, Type (0, 1), BuildingBlock: TEMPAE_clean_linker_10, # of connection points: 2
#     Edge 17, Type (0, 1), BuildingBlock: TEMPAE_clean_linker_10, # of connection points: 2
#     Edge 18, Type (0, 1), BuildingBlock: TEMPAE_clean_linker_10, # of connection points: 2
#     Edge 19, Type (0, 1), BuildingBlock: TEMPAE_clean_linker_10, # of connection points: 2
#     Edge 20, Type (0, 1), BuildingBlock: TEMPAE_clean_linker_10, # of connection points: 2
#     Edge 21, Type (0, 1), BuildingBlock: TEMPAE_clean_linker_10, # of connection points: 2
#     Edge 22, Type (0, 1), BuildingBlock: TEMPAE_clean_linker_10, # of connection points: 2
#     Edge 23, Type (0, 1), BuildingBlock: TEMPAE_clean_linker_10, # of connection points: 2
#     Edge 24, Type (0, 1), BuildingBlock: TEMPAE_clean_linker_10, # of connection points: 2
#     Edge 25, Type (0, 1), BuildingBlock: TEMPAE_clean_linker_10, # of connection points: 2
#     Edge 26, Type (0, 1), BuildingBlock: TEMPAE_clean_linker_10, # of connection points: 2
# Relax obj value: 0.187
# Max RMSD: 0.221
# Mean RMSD: 0.170
data_MOF--net-anh--node1-VOLQOD_clean_sbu_1--node2-CUQRIR_clean_linker_1--edge1-TEMPAE_clean_linker_10
_symmetry_space_group_name_H-M    P1
_symmetry_Int_Tables_number       1
_symmetry_cell_setting            triclinic
loop_
_symmetry_equiv_pos_as_xyz
'x, y, z'
_cell_length_a     27.540222
_cell_length_b     27.400122
_cell_length_c     53.976309
_cell_angle_alpha  85.123699
_cell_angle_beta   89.947423
_cell_angle_gamma 120.34944
loop_
_atom_site_label
_atom_site_type_symbol
_atom_site_fract_x
_atom_site_fract_y
_atom_site_fract_z
_atom_type_partial_charge
O0 O 0.95532 0.50097 0.21599 0.0
Zn1 Zn 0.96644 0.52117 0.17883 0.0
O2 O 0.9806 0.46896 0.16195 0.0
Zn3 Zn 0.92043 0.42702 0.13994 0.0
Zn4 Zn 0.98802 0.41759 0.18707 0.0
Zn5 Zn 0.04911 0.51162 0.14135 0.0
O6 O 0.94893 0.43376 0.10431 0.0
O7 O 0.03655 0.50589 0.10515 0.0
O8 O 0.90081 0.52542 0.16462 0.0
O9 O 0.87141 0.46164 0.13697 0.0
O10 O 0.87293 0.34525 0.15462 0.0
O11 O 0.92177 0.33894 0.1863 0.0
O12 O 0.06167 0.41831 0.18235 0.0
O13 O 0.0351 0.59918 0.17525 0.0
O14 O 0.09914 0.48099 0.149 0.0
O15 O 0.09238 0.59301 0.14846 0.0
C16 C 0.96836 0.47032 0.23027 0.0
C17 C -0.0041 0.47062 0.09323 0.0
C18 C 0.87893 0.31664 0.17305 0.0
C19 C 0.86807 0.49965 0.14759 0.0
C20 C 0.10078 0.44595 0.16545 0.0
C21 C 0.08191 0.62142 0.16281 0.0
O22 O 0.98458 0.43887 0.22154 0.0
O23 O 0.60306 0.06957 0.43991 0.0
Zn24 Zn 0.56932 0.06116 0.47424 0.0
O25 O 0.61194 0.04704 0.49899 0.0
Zn26 Zn 0.65625 0.11231 0.51654 0.0
Zn27 Zn 0.65993 0.02636 0.48221 0.0
Zn28 Zn 0.56076 0.98861 0.52353 0.0
O29 O 0.64656 0.09242 0.55388 0.0
O30 O 0.55827 0.02019 0.55561 0.0
O31 O 0.56311 0.12867 0.4814 0.0
O32 O 0.62802 0.16641 0.50951 0.0
O33 O 0.7369 0.15201 0.50431 0.0
O34 O 0.73933 0.09503 0.47794 0.0
O35 O 0.65797 0.95879 0.50244 0.0
O36 O 0.4913 0.99315 0.47477 0.0
O37 O 0.59016 0.93647 0.53127 0.0
O38 O 0.48339 0.94268 0.51049 0.0
C39 C 0.61921 0.03712 0.43215 0.0
C40 C 0.60021 0.05822 0.56606 0.0
C41 C 0.76334 0.14124 0.48832 0.0
C42 C 0.59074 0.16709 0.49579 0.0
C43 C 0.62769 0.92845 0.52188 0.0
C44 C 0.46279 0.94969 0.49029 0.0
O45 O 0.63385 0.00878 0.44716 0.0
O46 O 0.4982 0.58811 0.78476 0.0
Zn47 Zn 0.49145 0.57318 0.82236 0.0
O48 O 0.55929 0.62896 0.83724 0.0
Zn49 Zn 0.54411 0.67515 0.85775 0.0
Zn50 Zn 0.61536 0.6781 0.81077 0.0
Zn51 Zn 0.58715 0.58915 0.85848 0.0
O52 O 0.56512 0.67003 0.89351 0.0
O53 O 0.58071 0.59793 0.89471 0.0
O54 O 0.42278 0.57102 0.83674 0.0
O55 O 0.46128 0.64478 0.85948 0.0
O56 O 0.58005 0.75633 0.84235 0.0
O57 O 0.62328 0.75515 0.80784 0.0
O58 O 0.69154 0.68675 0.81734 0.0
O59 O 0.48152 0.49544 0.82844 0.0
O60 O 0.66853 0.62375 0.85036 0.0
O61 O 0.55031 0.50657 0.85286 0.0
C62 C 0.54135 0.61586 0.76974 0.0
C63 C 0.57527 0.63441 0.90564 0.0
C64 C 0.6082 0.78078 0.82182 0.0
C65 C 0.41855 0.60347 0.85104 0.0
C66 C 0.70501 0.66119 0.83433 0.0
C67 C 0.50842 0.47535 0.84036 0.0
O68 O 0.58998 0.64851 0.77751 0.0
C69 C 0.48401 0.94206 0.22056 0.0
N70 N 0.52302 0.96877 0.23732 0.0
N71 N 0.43364 0.90489 0.23229 0.0
C72 C 0.49508 0.95323 0.19273 0.0
C73 C 0.44316 0.9099 0.25679 0.0
N74 N 0.49756 0.94962 0.25989 0.0
C75 C 0.39924 0.87564 0.27752 0.0
H76 H 0.45566 0.93505 0.1826 0.0
H77 H 0.5196 0.93372 0.187 0.0
H78 H 0.52069 -0.00035 0.18724 0.0
H79 H 0.41878 0.8695 0.29456 0.0
H80 H 0.36732 0.83347 0.27205 0.0
H81 H 0.37709 0.89854 0.28182 0.0
C82 C 0.55837 0.51045 0.55797 0.0
N83 N 0.5589 0.5435 0.57526 0.0
N84 N 0.53679 0.45612 0.56808 0.0
C85 C 0.58379 0.53261 0.53184 0.0
C86 C 0.52465 0.45769 0.59226 0.0
N87 N 0.53845 0.51103 0.59668 0.0
C88 C 0.49498 0.40636 0.611 0.0
H89 H 0.55009 0.5272 0.51917 0.0
H90 H 0.60354 0.50895 0.52542 0.0
H91 H 0.61606 0.57848 0.53066 0.0
H92 H 0.5267 0.40059 0.62143 0.0
H93 H 0.46837 0.36747 0.60163 0.0
H94 H 0.46828 0.41198 0.62455 0.0
C95 C 0.07972 0.654 0.87689 0.0
N96 N 0.08735 0.62411 0.89621 0.0
N97 N 0.04239 0.66927 0.88358 0.0
C98 C 0.11092 0.67111 0.85186 0.0
C99 C 0.02746 0.64756 0.90769 0.0
N100 N 0.05565 0.62094 0.91553 0.0
C101 C 0.98039 0.6463 0.92252 0.0
H102 H 0.11221 0.70949 0.84257 0.0
H103 H 0.08905 0.63594 0.83987 0.0
H104 H 0.1546 0.67971 0.85384 0.0
H105 H 0.96233 0.61088 0.93762 0.0
H106 H 0.94617 0.64145 0.91033 0.0
H107 H -0.00301 0.68704 0.93091 0.0
C108 C 0.08978 0.56335 0.44314 0.0
N109 N 0.05619 0.52832 0.42658 0.0
N110 N 0.12006 0.61724 0.43233 0.0
C111 C 0.09477 0.54467 0.46952 0.0
C112 C 0.10431 0.61371 0.40854 0.0
N113 N 0.06511 0.55956 0.40501 0.0
C114 C 0.12937 0.66276 0.38858 0.0
H115 H 0.11055 0.58053 0.48127 0.0
H116 H 0.12504 0.5292 0.46967 0.0
H117 H 0.05347 0.50922 0.47744 0.0
H118 H 0.16803 0.66649 0.38016 0.0
H119 H 0.14139 0.70312 0.39659 0.0
H120 H 0.09933 0.65602 0.37374 0.0
C121 C 0.54035 0.12522 0.78113 0.0
N122 N 0.55277 0.10069 0.76342 0.0
N123 N 0.52663 0.1629 0.77057 0.0
C124 C 0.54429 0.11436 0.80865 0.0
C125 C 0.53137 0.16048 0.74578 0.0
N126 N 0.54767 0.12275 0.74136 0.0
C127 C 0.5156 0.1916 0.7261 0.0
H128 H 0.50192 0.08178 0.81678 0.0
H129 H 0.55858 0.15368 0.81794 0.0
H130 H 0.57357 0.09828 0.81246 0.0
H131 H 0.55348 0.23299 0.71972 0.0
H132 H 0.48336 0.20003 0.73367 0.0
H133 H 0.49907 0.16673 0.70983 0.0
C134 C 0.53838 0.5823 0.1313 0.0
N135 N 0.5703 0.59311 0.11026 0.0
N136 N 0.49206 0.5856 0.12625 0.0
C137 C 0.55019 0.56426 0.15659 0.0
C138 C 0.49695 0.59887 0.10127 0.0
N139 N 0.54444 0.60319 0.09149 0.0
C140 C 0.45206 0.60122 0.0862 0.0
H141 H 0.5326 0.51761 0.15847 0.0
H142 H 0.53014 0.57475 0.17147 0.0
H143 H 0.59628 0.58521 0.15889 0.0
H144 H 0.43429 0.62345 0.09572 0.0
H145 H 0.41731 0.55724 0.08441 0.0
H146 H 0.4689 0.62348 0.06734 0.0
C147 C 0.17977 0.44873 0.14276 0.0
C148 C 0.15265 0.4432 0.16562 0.0
C149 C 0.23648 0.46427 0.14127 0.0
C150 C 0.2667 0.47455 0.16327 0.0
C151 C 0.23803 0.46335 0.18672 0.0
C152 C 0.18087 0.44766 0.18764 0.0
C153 C 0.26517 0.47492 0.11586 0.0
C154 C 0.2686 0.47271 0.21059 0.0
C155 C 0.41179 0.50098 0.14805 0.0
C156 C 0.44059 0.55969 0.14128 0.0
C157 C 0.35625 0.47277 0.15807 0.0
C158 C 0.32904 0.50419 0.16084 0.0
C159 C 0.35993 0.56429 0.15616 0.0
C160 C 0.41564 0.59137 0.14642 0.0
C161 C 0.32523 0.40892 0.16336 0.0
C162 C 0.33258 0.59947 0.15905 0.0
H163 H 0.15757 0.44483 0.12577 0.0
H164 H 0.15986 0.44369 0.20533 0.0
H165 H 0.29516 0.52112 0.11151 0.0
H166 H 0.28969 0.45298 0.11558 0.0
H167 H 0.23463 0.46023 0.10092 0.0
H168 H 0.2389 0.44944 0.22698 0.0
H169 H 0.30024 0.45906 0.21002 0.0
H170 H 0.29132 0.5187 0.21312 0.0
H171 H 0.43149 0.47673 0.14393 0.0
H172 H 0.43866 0.63687 0.14132 0.0
H173 H 0.29884 0.38939 0.14752 0.0
H174 H 0.29684 0.39486 0.18031 0.0
H175 H 0.35483 0.39272 0.16581 0.0
H176 H 0.30267 0.59212 0.14409 0.0
H177 H 0.36401 0.64567 0.15788 0.0
H178 H 0.3082 0.58669 0.17714 0.0
C179 C 0.83493 0.19619 0.45337 0.0
C180 C 0.81953 0.18797 0.47882 0.0
C181 C 0.87981 0.24839 0.44275 0.0
C182 C 0.91029 0.29269 0.45809 0.0
C183 C 0.89855 0.28231 0.48417 0.0
C184 C 0.85294 0.23022 0.49419 0.0
C185 C 0.89095 0.25783 0.41488 0.0
C186 C 0.93088 0.32795 0.50126 0.0
C187 C 0.04161 0.43218 0.43498 0.0
C188 C 0.01935 0.46802 0.43119 0.0
C189 C 0.00643 0.37413 0.44281 0.0
C190 C 0.94784 0.35197 0.44682 0.0
C191 C 0.92522 0.38805 0.44209 0.0
C192 C 0.96151 0.44589 0.43472 0.0
C193 C 0.03224 0.33733 0.44794 0.0
C194 C 0.86297 0.3662 0.44595 0.0
H195 H 0.80901 0.16375 0.44138 0.0
H196 H 0.84138 0.22377 0.51391 0.0
H197 H 0.87401 0.28444 0.40674 0.0
H198 H 0.93684 0.28092 0.40999 0.0
H199 H 0.87062 0.21716 0.40618 0.0
H200 H 0.92251 0.3106 0.52116 0.0
H201 H 0.97683 0.34936 0.49673 0.0
H202 H 0.91845 0.36071 0.49869 0.0
H203 H 0.08675 0.45019 0.4326 0.0
H204 H 0.94509 0.47446 0.43264 0.0
H205 H 0.00823 0.29697 0.43924 0.0
H206 H 0.03025 0.32616 0.46831 0.0
H207 H 0.07698 0.35912 0.44096 0.0
H208 H 0.83813 0.32771 0.43609 0.0
H209 H 0.85168 0.39848 0.43921 0.0
H210 H 0.85037 0.35395 0.46606 0.0
C211 C 0.61134 0.87147 0.8286 0.0
C212 C 0.61657 0.83691 0.81238 0.0
C213 C 0.60949 0.91989 0.81936 0.0
C214 C 0.61162 0.93315 0.79329 0.0
C215 C 0.62026 0.90037 0.77687 0.0
C216 C 0.62325 0.85294 0.78664 0.0
C217 C 0.6017 0.95476 0.83747 0.0
C218 C 0.62186 0.91263 0.74897 0.0
C219 C 0.52628 0.00172 0.77374 0.0
C220 C 0.56832 0.05827 0.76786 0.0
C221 C 0.54009 0.96018 0.78103 0.0
C222 C 0.59742 0.97635 0.78335 0.0
C223 C 0.6402 0.03369 0.77716 0.0
C224 C 0.62499 0.07412 0.76927 0.0
C225 C 0.49323 0.89932 0.78691 0.0
C226 C 0.70159 0.05267 0.77992 0.0
H227 H 0.60674 0.85959 0.84851 0.0
H228 H 0.62715 0.82635 0.77395 0.0
H229 H 0.63084 0.00079 0.83221 0.0
H230 H 0.5581 0.94701 0.83689 0.0
H231 H 0.609 0.94396 0.85688 0.0
H232 H 0.63555 0.88763 0.73885 0.0
H233 H 0.57918 0.9019 0.7432 0.0
H234 H 0.65066 0.95846 0.74319 0.0
H235 H 0.48254 0.99046 0.7729 0.0
H236 H 0.657 0.11846 0.76514 0.0
H237 H 0.49186 0.88601 0.80701 0.0
H238 H 0.5011 0.87073 0.77637 0.0
H239 H 0.45135 0.89332 0.78231 0.0
H240 H 0.70927 0.0475 0.79989 0.0
H241 H 0.72973 0.09784 0.77264 0.0
H242 H 0.71309 0.02581 0.77002 0.0
C243 C 0.80289 0.53542 0.15569 0.0
C244 C 0.82652 0.51548 0.13917 0.0
C245 C 0.76237 0.54928 0.14794 0.0
C246 C 0.74648 0.54458 0.1229 0.0
C247 C 0.77155 0.52616 0.10594 0.0
C248 C 0.81074 0.51102 0.11439 0.0
C249 C 0.73557 0.56761 0.16671 0.0
C250 C 0.75673 0.52213 0.07898 0.0
C251 C 0.60166 0.52405 0.11351 0.0
C252 C 0.61434 0.58016 0.10807 0.0
C253 C 0.64454 0.51143 0.11729 0.0
C254 C 0.7014 0.55616 0.11499 0.0
C255 C 0.71439 0.61248 0.10749 0.0
C256 C 0.6704 0.62395 0.10446 0.0
C257 C 0.6288 0.45097 0.12559 0.0
C258 C 0.77452 0.66101 0.10419 0.0
H259 H 0.81503 0.53878 0.17485 0.0
H260 H 0.82965 0.49637 0.10148 0.0
H261 H 0.74269 0.61042 0.1604 0.0
H262 H 0.68934 0.53788 0.16828 0.0
H263 H 0.75252 0.56887 0.18546 0.0
H264 H 0.78293 0.51086 0.06782 0.0
H265 H 0.71178 0.48949 0.07763 0.0
H266 H 0.76237 0.56321 0.07062 0.0
H267 H 0.55791 0.49061 0.11634 0.0
H268 H 0.67968 0.66734 0.10059 0.0
H269 H 0.64063 0.44828 0.1451 0.0
H270 H 0.65222 0.43741 0.11396 0.0
H271 H 0.58294 0.42071 0.12463 0.0
H272 H 0.79269 0.67093 0.12268 0.0
H273 H 0.77753 0.70002 0.09458 0.0
H274 H 0.8006 0.64913 0.09336 0.0
C275 C 0.37278 0.8573 0.50083 0.0
C276 C 0.40681 0.90414 0.48361 0.0
C277 C 0.32269 0.81099 0.49379 0.0
C278 C 0.30659 0.81136 0.46891 0.0
C279 C 0.33961 0.85936 0.4517 0.0
C280 C 0.38915 0.90527 0.45928 0.0
C281 C 0.28815 0.76076 0.51273 0.0
C282 C 0.32401 0.86119 0.42495 0.0
C283 C 0.2192 0.67026 0.44216 0.0
C284 C 0.16604 0.66488 0.44232 0.0
C285 C 0.26528 0.71757 0.45102 0.0
C286 C 0.25748 0.76006 0.46037 0.0
C287 C 0.20329 0.75411 0.46086 0.0
C288 C 0.15806 0.70643 0.45168 0.0
C289 C 0.32242 0.72252 0.45 0.0
C290 C 0.19332 0.79832 0.47082 0.0
H291 H 0.38589 0.85616 0.51969 0.0
H292 H 0.41512 0.94118 0.44581 0.0
H293 H 0.24338 0.74953 0.51309 0.0
H294 H 0.28957 0.72324 0.50741 0.0
H295 H 0.3037 0.76913 0.53177 0.0
H296 H 0.35222 0.90303 0.41431 0.0
H297 H 0.32646 0.82787 0.41562 0.0
H298 H 0.27998 0.85202 0.42411 0.0
H299 H 0.22455 0.63762 0.43476 0.0
H300 H 0.11646 0.7015 0.45163 0.0
H301 H 0.33902 0.72644 0.46889 0.0
H302 H 0.3526 0.76153 0.43808 0.0
H303 H 0.32106 0.68534 0.44251 0.0
H304 H 0.20737 0.80484 0.49013 0.0
H305 H 0.14825 0.7862 0.47076 0.0
H306 H 0.2186 0.83962 0.45938 0.0
C307 C 0.45795 0.3871 0.81865 0.0
C308 C 0.49626 0.41748 0.83637 0.0
C309 C 0.45534 0.33881 0.81032 0.0
C310 C 0.49153 0.32024 0.82013 0.0
C311 C 0.52627 0.34736 0.83972 0.0
C312 C 0.52833 0.39583 0.8476 0.0
C313 C 0.41759 0.31094 0.78943 0.0
C314 C 0.56478 0.32816 0.85094 0.0
C315 C 0.475 0.1817 0.80212 0.0
C316 C 0.51635 0.20166 0.78275 0.0
C317 C 0.46627 0.21969 0.81466 0.0
C318 C 0.49946 0.27872 0.80737 0.0
C319 C 0.54093 0.29884 0.78761 0.0
C320 C 0.54905 0.25998 0.77566 0.0
C321 C 0.42195 0.19685 0.83571 0.0
C322 C 0.57703 0.36147 0.77916 0.0
H323 H 0.4325 0.40306 0.81002 0.0
H324 H 0.55752 0.41854 0.86154 0.0
H325 H 0.44369 0.32248 0.77189 0.0
H326 H 0.39501 0.26399 0.79319 0.0
H327 H 0.38611 0.3246 0.78654 0.0
H328 H 0.582 0.34745 0.86849 0.0
H329 H 0.54225 0.28122 0.8548 0.0
H330 H 0.60061 0.34069 0.8375 0.0
H331 H 0.44964 0.13638 0.80739 0.0
H332 H 0.58158 0.2751 0.76094 0.0
H333 H 0.39031 0.20967 0.8315 0.0
H334 H 0.44159 0.21528 0.85307 0.0
H335 H 0.39989 0.14977 0.83912 0.0
H336 H 0.54993 0.3793 0.77354 0.0
H337 H 0.60662 0.36983 0.76321 0.0
H338 H 0.60186 0.38458 0.79474 0.0
C339 C 0.60424 0.85228 0.55634 0.0
C340 C 0.63262 0.88015 0.53329 0.0
C341 C 0.59975 0.80092 0.56576 0.0
C342 C 0.62454 0.77693 0.55187 0.0
C343 C 0.65731 0.80712 0.52968 0.0
C344 C 0.66093 0.85852 0.52059 0.0
C345 C 0.56442 0.77008 0.58949 0.0
C346 C 0.68503 0.78309 0.51459 0.0
C347 C 0.62197 0.64436 0.58121 0.0
C348 C 0.57462 0.60204 0.57069 0.0
C349 C 0.63947 0.70198 0.57515 0.0
C350 C 0.60833 0.71675 0.55837 0.0
C351 C 0.55984 0.67359 0.5481 0.0
C352 C 0.54382 0.61673 0.55433 0.0
C353 C 0.69142 0.74689 0.58634 0.0
C354 C 0.5248 0.68737 0.53051 0.0
H355 H 0.58312 0.86922 0.56658 0.0
H356 H 0.6834 0.88005 0.50292 0.0
H357 H 0.52394 0.73313 0.5849 0.0
H358 H 0.58594 0.75343 0.6019 0.0
H359 H 0.55495 0.7979 0.59985 0.0
H360 H 0.71606 0.81537 0.5002 0.0
H361 H 0.70668 0.76631 0.52685 0.0
H362 H 0.65236 0.74714 0.50513 0.0
H363 H 0.64566 0.63221 0.59372 0.0
H364 H 0.50719 0.58328 0.54638 0.0
H365 H 0.68106 0.77431 0.59646 0.0
H366 H 0.72346 0.77469 0.57131 0.0
H367 H 0.71019 0.72821 0.59942 0.0
H368 H 0.50891 0.71165 0.53972 0.0
H369 H 0.4882 0.64861 0.52433 0.0
H370 H 0.55112 0.71451 0.51382 0.0
C371 C 0.8073 0.71563 0.81948 0.0
C372 C 0.76408 0.67521 0.8364 0.0
C373 C 0.86326 0.72846 0.82206 0.0
C374 C 0.87562 0.69972 0.84184 0.0
C375 C 0.83211 0.65936 0.85902 0.0
C376 C 0.77718 0.64776 0.85608 0.0
C377 C 0.90862 0.77179 0.80345 0.0
C378 C 0.84329 0.62816 0.8807 0.0
C379 C 0.98643 0.66066 0.8473 0.0
C380 C 0.01429 0.69034 0.86746 0.0
C381 C 0.94603 0.6699 0.83566 0.0
C382 C 0.93303 0.70905 0.84483 0.0
C383 C 0.96689 0.74477 0.86275 0.0
C384 C 0.00725 0.73474 0.87401 0.0
C385 C 0.9116 0.63165 0.81627 0.0
C386 C 0.95545 0.78821 0.87245 0.0
H387 H 0.79748 0.73712 0.80425 0.0
H388 H 0.74433 0.61678 0.8694 0.0
H389 H 0.94794 0.79923 0.81274 0.0
H390 H 0.91864 0.74951 0.78989 0.0
H391 H 0.89502 0.79914 0.79296 0.0
H392 H 0.80418 0.59659 0.89176 0.0
H393 H 0.86386 0.60553 0.87397 0.0
H394 H 0.8722 0.65908 0.89328 0.0
H395 H -0.00783 0.62638 0.84228 0.0
H396 H 0.02994 0.75827 0.88934 0.0
H397 H 0.9011 0.65516 0.80158 0.0
H398 H 0.87144 0.59632 0.82525 0.0
H399 H 0.93414 0.613 0.80745 0.0
H400 H 0.94327 0.80927 0.85729 0.0
H401 H -0.00722 0.82111 0.88129 0.0
H402 H 0.91996 0.76664 0.88667 0.0
C403 C 0.12613 0.69829 0.19112 0.0
C404 C 0.12868 0.67713 0.16867 0.0
C405 C 0.17475 0.74211 0.20039 0.0
C406 C 0.22677 0.76584 0.18663 0.0
C407 C 0.22847 0.74869 0.1628 0.0
C408 C 0.17937 0.70421 0.15414 0.0
C409 C 0.17127 0.75911 0.22593 0.0
C410 C 0.28299 0.77395 0.14733 0.0
C411 C 0.35439 0.89538 0.20817 0.0
C412 C 0.38134 0.87023 0.2212 0.0
C413 C 0.30399 0.86207 0.1966 0.0
C414 C 0.28008 0.80238 0.19855 0.0
C415 C 0.30721 0.77693 0.21198 0.0
C416 C 0.35791 0.81141 0.223 0.0
C417 C 0.27669 0.89063 0.18215 0.0
C418 C 0.28279 0.71333 0.21466 0.0
H419 H 0.08711 0.67773 0.20247 0.0
H420 H 0.18149 0.68854 0.13663 0.0
H421 H 0.19075 0.74194 0.23935 0.0
H422 H 0.19497 0.80601 0.22591 0.0
H423 H 0.12704 0.74262 0.23264 0.0
H424 H 0.27569 0.76313 0.12779 0.0
H425 H 0.30722 0.82087 0.14728 0.0
H426 H 0.30939 0.75737 0.15554 0.0
H427 H 0.37328 0.94116 0.2069 0.0
H428 H 0.37958 0.79269 0.23302 0.0
H429 H 0.2333 0.8741 0.18995 0.0
H430 H 0.27321 0.88065 0.1625 0.0
H431 H 0.3008 0.93754 0.18245 0.0
H432 H 0.23929 0.69169 0.22314 0.0
H433 H 0.30832 0.70037 0.22636 0.0
H434 H 0.28031 0.6981 0.19605 0.0
C435 C 0.61555 0.26695 0.49777 0.0
C436 C 0.57453 0.2093 0.49951 0.0
C437 C 0.60315 0.30665 0.50613 0.0
C438 C 0.5493 0.28747 0.51748 0.0
C439 C 0.50695 0.22947 0.51819 0.0
C440 C 0.51994 0.19105 0.50877 0.0
C441 C 0.64878 0.3685 0.50425 0.0
C442 C 0.44969 0.20708 0.53085 0.0
C443 C 0.55579 0.37766 0.56799 0.0
C444 C 0.53389 0.40951 0.5564 0.0
C445 C 0.55798 0.33547 0.55598 0.0
C446 C 0.54008 0.32676 0.53134 0.0
C447 C 0.51683 0.35798 0.51969 0.0
C448 C 0.5129 0.39823 0.53263 0.0
C449 C 0.58136 0.30169 0.56937 0.0
C450 C 0.49872 0.35092 0.49322 0.0
H451 H 0.6578 0.28063 0.49064 0.0
H452 H 0.48868 0.14608 0.51043 0.0
H453 H 0.63173 0.39598 0.4975 0.0
H454 H 0.66488 0.38027 0.52295 0.0
H455 H 0.68473 0.37757 0.49153 0.0
H456 H 0.41935 0.16287 0.52683 0.0
H457 H 0.45391 0.20752 0.55129 0.0
H458 H 0.43203 0.23448 0.52501 0.0
H459 H 0.5729 0.38703 0.58616 0.0
H460 H 0.49509 0.42229 0.52389 0.0
H461 H 0.62277 0.3138 0.56049 0.0
H462 H 0.55286 0.25557 0.56802 0.0
H463 H 0.58714 0.30903 0.58936 0.0
H464 H 0.53611 0.36527 0.48047 0.0
H465 H 0.47819 0.37578 0.48745 0.0
H466 H 0.46914 0.30553 0.49089 0.0
C467 C 0.35132 0.63739 0.85268 0.0
C468 C 0.36303 0.59383 0.85823 0.0
C469 C 0.30067 0.63173 0.86126 0.0
C470 C 0.26192 0.58202 0.87649 0.0
C471 C 0.27363 0.53771 0.88212 0.0
C472 C 0.3241 0.54389 0.87258 0.0
C473 C 0.28902 0.67931 0.85423 0.0
C474 C 0.23409 0.48504 0.89891 0.0
C475 C 0.16763 0.6172 0.9117 0.0
C476 C 0.12331 0.60042 0.89569 0.0
C477 C 0.21064 0.60533 0.90738 0.0
C478 C 0.20941 0.57753 0.88621 0.0
C479 C 0.16162 0.55548 0.87159 0.0
C480 C 0.11859 0.56655 0.87681 0.0
C481 C 0.25992 0.62748 0.92398 0.0
C482 C 0.15873 0.52605 0.84876 0.0
H483 H 0.38203 0.67602 0.84166 0.0
H484 H 0.33421 0.51083 0.87715 0.0
H485 H 0.24782 0.66248 0.84549 0.0
H486 H 0.28655 0.69837 0.87117 0.0
H487 H 0.32213 0.71346 0.84108 0.0
H488 H 0.2469 0.45248 0.89964 0.0
H489 H 0.23345 0.4967 0.91805 0.0
H490 H 0.19044 0.466 0.89262 0.0
H491 H 0.17064 0.64297 0.92643 0.0
H492 H 0.08317 0.55256 0.86494 0.0
H493 H 0.29557 0.66739 0.91471 0.0
H494 H 0.27441 0.59646 0.92736 0.0
H495 H 0.24911 0.6367 0.94217 0.0
H496 H 0.18714 0.55819 0.83366 0.0
H497 H 0.11541 0.5035 0.84196 0.0
H498 H 0.17315 0.49512 0.85256 0.0
C499 C 0.78168 0.23492 0.16879 0.0
C500 C 0.832 0.25865 0.18133 0.0
C501 C 0.73392 0.18433 0.17868 0.0
C502 C 0.73658 0.15683 0.20162 0.0
C503 C 0.78795 0.17881 0.21371 0.0
C504 C 0.83511 0.22941 0.2034 0.0
C505 C 0.67986 0.16175 0.16513 0.0
C506 C 0.7924 0.15039 0.23814 0.0
C507 C 0.59641 0.06872 0.23802 0.0
C508 C 0.5797 0.01441 0.23146 0.0
C509 C 0.64871 0.11533 0.22929 0.0
C510 C 0.68461 0.10699 0.21356 0.0
C511 C 0.66888 0.05152 0.20798 0.0
C512 C 0.61647 0.00575 0.21709 0.0
C513 C 0.66427 0.17379 0.23587 0.0
C514 C 0.70613 0.04086 0.19145 0.0
H515 H 0.77884 0.25696 0.1517 0.0
H516 H 0.87381 0.24718 0.21322 0.0
H517 H 0.66285 0.11638 0.16234 0.0
H518 H 0.64774 0.16418 0.17653 0.0
H519 H 0.68578 0.18594 0.14669 0.0
H520 H 0.83652 0.1698 0.24396 0.0
H521 H 0.76658 0.1539 0.25291 0.0
H522 H 0.77555 0.10445 0.23679 0.0
H523 H 0.56742 0.07489 0.24907 0.0
H524 H 0.60321 0.96326 0.21239 0.0
H525 H 0.66556 0.20026 0.21885 0.0
H526 H 0.70688 0.19515 0.24337 0.0
H527 H 0.63379 0.17234 0.24984 0.0
H528 H 0.70856 0.06017 0.17223 0.0
H529 H 0.69011 0.99478 0.19081 0.0
H530 H 0.74961 0.06123 0.19802 0.0
C531 C 0.9574 0.46649 0.05109 0.0
C532 C 0.0028 0.47655 0.06581 0.0
C533 C 0.96608 0.48315 0.02537 0.0
C534 C 0.02122 0.50929 0.01418 0.0
C535 C 0.06623 0.51485 0.02865 0.0
C536 C 0.0566 0.49905 0.05437 0.0
C537 C 0.91709 0.47706 0.01062 0.0
C538 C 0.12533 0.54114 0.01734 0.0
C539 C 0.03782 0.53672 0.94347 0.0
C540 C 0.05131 0.59352 0.94006 0.0
C541 C 0.02924 0.50877 0.96754 0.0
C542 C 0.03324 0.53826 0.98847 0.0
C543 C 0.04807 0.59607 0.98498 0.0
C544 C 0.05756 0.62307 0.96081 0.0
C545 C 0.01482 0.44758 0.97055 0.0
C546 C 0.0526 0.62912 0.00675 0.0
H547 H 0.91582 0.4493 0.0599 0.0
H548 H 0.09169 0.50624 0.0657 0.0
H549 H 0.92253 0.51972 0.00556 0.0
H550 H 0.91571 0.45833 0.99303 0.0
H551 H 0.87611 0.45017 0.02128 0.0
H552 H 0.15323 0.53372 0.03001 0.0
H553 H 0.12505 0.5238 0.99946 0.0
H554 H 0.14358 0.58768 0.0133 0.0
H555 H 0.03264 0.51392 0.92732 0.0
H556 H 0.06866 0.66722 0.95798 0.0
H557 H 0.97107 0.4202 0.97852 0.0
H558 H 0.04302 0.44219 0.98375 0.0
H559 H 0.0184 0.43244 0.95256 0.0
H560 H 0.01189 0.60788 0.01779 0.0
H561 H 0.06394 0.67357 1.00075 0.0
H562 H 0.08496 0.6301 0.01924 0.0
C563 C 0.63208 0.07359 0.38731 0.0
C564 C 0.61446 0.0277 0.40559 0.0
C565 C 0.6213 0.06454 0.36219 0.0
C566 C 0.58994 0.00824 0.35549 0.0
C567 C 0.57357 0.96182 0.37385 0.0
C568 C 0.58699 0.97222 0.39866 0.0
C569 C 0.64144 0.11515 0.34302 0.0
C570 C 0.53859 0.90115 0.36765 0.0
C571 C 0.4964 0.98247 0.30083 0.0
C572 C 0.52332 0.96854 0.2831 0.0
C573 C 0.51777 0.99559 0.32442 0.0
C574 C 0.56898 -0.00237 0.32998 0.0
C575 C 0.59833 0.98719 0.31154 0.0
C576 C 0.57455 0.97169 0.28843 0.0
C577 C 0.4845 0.00539 0.34364 0.0
C578 C 0.65415 0.99125 0.31637 0.0
H579 H 0.6536 0.11653 0.39275 0.0
H580 H 0.57285 0.93678 0.41291 0.0
H581 H 0.66077 0.10936 0.3263 0.0
H582 H 0.60511 0.11928 0.33694 0.0
H583 H 0.67268 0.15537 0.35047 0.0
H584 H 0.53182 0.86997 0.38377 0.0
H585 H 0.49687 0.89322 0.36164 0.0
H586 H 0.55912 0.89358 0.35195 0.0
H587 H 0.4578 0.98188 0.29637 0.0
H588 H 0.5954 0.96094 0.27469 0.0
H589 H 0.51016 0.04854 0.34977 0.0
H590 H 0.4738 0.97447 0.36032 0.0
H591 H 0.4448 0.00096 0.33646 0.0
H592 H 0.68294 0.03156 0.32438 0.0
H593 H 0.67489 0.98919 0.29914 0.0
H594 H 0.64772 0.95586 0.33017 0.0
C595 C 0.57913 0.64502 0.72543 0.0
C596 C 0.53581 0.60719 0.74291 0.0
C597 C 0.57741 0.63407 0.70041 0.0
C598 C 0.5317 0.58366 0.69277 0.0
C599 C 0.48661 0.54664 0.71005 0.0
C600 C 0.48902 0.55904 0.73489 0.0
C601 C 0.62585 0.67508 0.68243 0.0
C602 C 0.43736 0.49222 0.70267 0.0
C603 C 0.51112 0.56221 0.62393 0.0
C604 C 0.53723 0.53056 0.6205 0.0
C605 C 0.50978 0.5809 0.64725 0.0
C606 C 0.53413 0.56644 0.6676 0.0
C607 C 0.56075 0.53466 0.66407 0.0
C608 C 0.56251 0.51775 0.64049 0.0
C609 C 0.48201 0.61564 0.65017 0.0
C610 C 0.5871 0.51813 0.68523 0.0
H611 H 0.61514 0.68268 0.7314 0.0
H612 H 0.45537 0.52957 0.74826 0.0
H613 H 0.65073 0.65537 0.67747 0.0
H614 H 0.60994 0.68483 0.66494 0.0
H615 H 0.6544 0.71553 0.69043 0.0
H616 H 0.40343 0.47065 0.71764 0.0
H617 H 0.41943 0.50085 0.6856 0.0
H618 H 0.45198 0.4627 0.69836 0.0
H619 H 0.49129 0.57175 0.60844 0.0
H620 H 0.58374 0.49435 0.63758 0.0
H621 H 0.51134 0.65558 0.65829 0.0
H622 H 0.44449 0.59161 0.66323 0.0
H623 H 0.4686 0.62657 0.63215 0.0
H624 H 0.62091 0.55679 0.69275 0.0
H625 H 0.6054 0.49263 0.6794 0.0
H626 H 0.55502 0.49299 0.70062 0.0
C627 C 0.63624 0.07123 0.6088 0.0
C628 C 0.59414 0.06432 0.59253 0.0
C629 C 0.63072 0.07736 0.63405 0.0
C630 C 0.58316 0.07906 0.64283 0.0
C631 C 0.5408 0.07257 0.62631 0.0
C632 C 0.5463 0.06411 0.60144 0.0
C633 C 0.67562 0.08193 0.65132 0.0
C634 C 0.49044 0.07613 0.6347 0.0
C635 C 0.53654 0.05523 0.71119 0.0
C636 C 0.56047 0.11112 0.71741 0.0
C637 C 0.54623 0.04396 0.68736 0.0
C638 C 0.57844 0.08984 0.66902 0.0
C639 C 0.60332 0.14638 0.67534 0.0
C640 C 0.59508 0.1562 0.69964 0.0
C641 C 0.52064 0.98304 0.68163 0.0
C642 C 0.63664 0.19657 0.65621 0.0
H643 H 0.673 0.07088 0.60184 0.0
H644 H 0.51403 0.0592 0.5887 0.0
H645 H 0.69721 0.12435 0.65843 0.0
H646 H 0.65612 0.04983 0.66769 0.0
H647 H 0.70772 0.07561 0.64198 0.0
H648 H 0.46201 0.07156 0.61936 0.0
H649 H 0.46596 0.04241 0.65 0.0
H650 H 0.50478 0.11761 0.64212 0.0
H651 H 0.50883 0.02036 0.72467 0.0
H652 H 0.61448 0.19936 0.70463 0.0
H653 H 0.55235 0.97691 0.67185 0.0
H654 H 0.48551 0.97239 0.66908 0.0
H655 H 0.50403 0.95282 0.69875 0.0
H656 H 0.67239 0.19456 0.64796 0.0
H657 H 0.65348 0.23783 0.66423 0.0
H658 H 0.60941 0.19528 0.64083 0.0
C659 C 0.5556 0.65909 0.94667 0.0
C660 C 0.57904 0.63392 0.93307 0.0
C661 C 0.55508 0.6551 0.97279 0.0
C662 C 0.57945 0.6261 0.98562 0.0
C663 C 0.60519 0.60259 0.97196 0.0
C664 C 0.60423 0.60633 0.94586 0.0
C665 C 0.52658 0.68014 0.9867 0.0
C666 C 0.63255 0.57232 0.98493 0.0
C667 C 0.60572 0.65249 0.0537 0.0
C668 C 0.55767 0.60542 0.06548 0.0
C669 C 0.61494 0.65866 0.02771 0.0
C670 C 0.57445 0.61716 0.01332 0.0
C671 C 0.52694 0.56837 0.0254 0.0
C672 C 0.5195 0.56288 0.05139 0.0
C673 C 0.66669 0.71065 0.01559 0.0
C674 C 0.48253 0.5233 0.01082 0.0
H675 H 0.53594 0.68035 0.93694 0.0
H676 H 0.62296 0.58726 0.93548 0.0
H677 H 0.49013 0.64579 0.99835 0.0
H678 H 0.55611 0.71013 0.99943 0.0
H679 H 0.51132 0.703 0.97398 0.0
H680 H 0.65508 0.5609 0.9716 0.0
H681 H 0.66289 0.5994 0.99825 0.0
H682 H 0.60002 0.53282 0.99582 0.0
H683 H 0.63475 0.68548 0.06473 0.0
H684 H 0.48257 0.5264 0.06075 0.0
H685 H 0.6542 0.73876 0.00503 0.0
H686 H 0.68811 0.69836 0.00213 0.0
H687 H 0.69715 0.73522 0.02948 0.0
H688 H 0.46216 0.54205 0.99885 0.0
H689 H 0.44942 0.48689 0.02312 0.0
H690 H 0.50208 0.5071 0.99838 0.0
C691 C 0.97966 0.52627 0.26617 0.0
C692 C 0.97043 0.47573 0.25734 0.0
C693 C 0.9901 0.53566 0.29126 0.0
C694 C 0.98999 0.49293 0.30803 0.0
C695 C 0.97727 0.44046 0.29953 0.0
C696 C 0.96835 0.43274 0.27419 0.0
C697 C 0.00444 0.59259 0.29949 0.0
C698 C 0.97529 0.39335 0.31699 0.0
C699 C 0.08337 0.54452 0.3627 0.0
C700 C 0.04497 0.53801 0.38148 0.0
C701 C 0.0658 0.52906 0.33881 0.0
C702 C 0.00809 0.50529 0.33381 0.0
C703 C 0.96874 0.49652 0.35309 0.0
C704 C 0.98792 0.51395 0.37664 0.0
C705 C 0.10931 0.54002 0.31871 0.0
C706 C 0.90678 0.47034 0.34865 0.0
H707 H 0.98172 0.55981 0.25321 0.0
H708 H 0.96077 0.39341 0.26748 0.0
H709 H 0.97706 0.58674 0.31588 0.0
H710 H 0.04862 0.61505 0.30523 0.0
H711 H -0.00027 0.62008 0.2845 0.0
H712 H 0.95824 0.35299 0.30819 0.0
H713 H 0.01837 0.40603 0.32284 0.0
H714 H 0.94894 0.38564 0.33407 0.0
H715 H 0.12748 0.56319 0.36666 0.0
H716 H 0.95864 0.51049 0.39101 0.0
H717 H 0.11009 0.57025 0.30344 0.0
H718 H 0.09812 0.5 0.31059 0.0
H719 H 0.15229 0.55794 0.3258 0.0
H720 H 0.89989 0.50021 0.33605 0.0
H721 H 0.88107 0.46016 0.36623 0.0
H722 H 0.89149 0.43083 0.33938 0.0
loop_
_geom_bond_atom_site_label_1
_geom_bond_atom_site_label_2
_geom_bond_distance
_geom_bond_site_symmetry_2
_ccdc_geom_bond_type
O0 Zn1 1.953 . S
O0 C16 1.225 . S
Zn1 O0 1.953 . S
Zn1 O2 1.949 . S
Zn1 O8 1.919 1_455 S
Zn1 O13 1.924 . S
O2 Zn1 1.949 . S
O2 Zn3 1.923 1_455 S
O2 Zn4 1.950 . S
O2 Zn5 1.945 . S
Zn3 O2 1.923 1_655 S
Zn3 O6 1.933 . S
Zn3 O9 1.941 . S
Zn3 O10 1.965 . S
Zn4 O2 1.950 . S
Zn4 O11 1.938 1_455 S
Zn4 O12 1.906 . S
Zn4 O22 1.953 . S
Zn5 O2 1.945 . S
Zn5 O7 1.932 . S
Zn5 O14 1.977 . S
Zn5 O15 1.910 . S
O6 Zn3 1.933 . S
O6 C17 1.226 1_655 S
O7 Zn5 1.932 . S
O7 C17 1.307 . S
O8 Zn1 1.919 1_655 S
O8 C19 1.253 . S
O9 Zn3 1.941 . S
O9 C19 1.283 . S
O10 Zn3 1.965 . S
O10 C18 1.303 . S
O11 Zn4 1.938 1_655 S
O11 C18 1.247 . S
O12 Zn4 1.906 . S
O12 C20 1.304 . S
O13 Zn1 1.924 . S
O13 C21 1.311 . S
O14 Zn5 1.977 . S
O14 C20 1.272 . S
O15 Zn5 1.910 . S
O15 C21 1.231 . S
C16 O0 1.225 . S
C16 O22 1.298 . S
C17 O6 1.226 1_455 S
C17 O7 1.307 . S
C18 O10 1.303 . S
C18 O11 1.247 . S
C19 O8 1.253 . S
C19 O9 1.283 . S
C20 O12 1.304 . S
C20 O14 1.272 . S
C21 O13 1.311 . S
C21 O15 1.231 . S
O22 Zn4 1.953 . S
O22 C16 1.298 . S
O23 Zn24 1.953 . S
O23 C39 1.225 . S
Zn24 O23 1.953 . S
Zn24 O25 1.949 . S
Zn24 O31 1.919 . S
Zn24 O36 1.924 . S
O25 Zn24 1.949 . S
O25 Zn26 1.923 . S
O25 Zn27 1.950 . S
O25 Zn28 1.945 1_545 S
Zn26 O25 1.923 . S
Zn26 O29 1.933 . S
Zn26 O32 1.941 . S
Zn26 O33 1.965 . S
Zn27 O25 1.950 . S
Zn27 O34 1.938 . S
Zn27 O35 1.906 1_545 S
Zn27 O45 1.953 . S
Zn28 O25 1.945 1_565 S
Zn28 O30 1.932 1_565 S
Zn28 O37 1.977 . S
Zn28 O38 1.910 . S
O29 Zn26 1.933 . S
O29 C40 1.226 . S
O30 Zn28 1.932 1_545 S
O30 C40 1.307 . S
O31 Zn24 1.919 . S
O31 C42 1.253 . S
O32 Zn26 1.941 . S
O32 C42 1.283 . S
O33 Zn26 1.965 . S
O33 C41 1.303 . S
O34 Zn27 1.938 . S
O34 C41 1.247 . S
O35 Zn27 1.906 1_565 S
O35 C43 1.304 . S
O36 Zn24 1.924 . S
O36 C44 1.311 1_545 S
O37 Zn28 1.977 . S
O37 C43 1.272 . S
O38 Zn28 1.910 . S
O38 C44 1.231 . S
C39 O23 1.225 . S
C39 O45 1.298 . S
C40 O29 1.226 . S
C40 O30 1.307 . S
C41 O33 1.303 . S
C41 O34 1.247 . S
C42 O31 1.253 . S
C42 O32 1.283 . S
C43 O35 1.304 . S
C43 O37 1.272 . S
C44 O36 1.311 1_565 S
C44 O38 1.231 . S
O45 Zn27 1.953 . S
O45 C39 1.298 . S
O46 Zn47 1.953 . S
O46 C62 1.225 . S
Zn47 O46 1.953 . S
Zn47 O48 1.949 . S
Zn47 O54 1.919 . S
Zn47 O59 1.924 . S
O48 Zn47 1.949 . S
O48 Zn49 1.923 . S
O48 Zn50 1.950 . S
O48 Zn51 1.945 . S
Zn49 O48 1.923 . S
Zn49 O52 1.933 . S
Zn49 O55 1.941 . S
Zn49 O56 1.965 . S
Zn50 O48 1.950 . S
Zn50 O57 1.938 . S
Zn50 O58 1.906 . S
Zn50 O68 1.953 . S
Zn51 O48 1.945 . S
Zn51 O53 1.932 . S
Zn51 O60 1.977 . S
Zn51 O61 1.910 . S
O52 Zn49 1.933 . S
O52 C63 1.226 . S
O53 Zn51 1.932 . S
O53 C63 1.307 . S
O54 Zn47 1.919 . S
O54 C65 1.253 . S
O55 Zn49 1.941 . S
O55 C65 1.283 . S
O56 Zn49 1.965 . S
O56 C64 1.303 . S
O57 Zn50 1.938 . S
O57 C64 1.247 . S
O58 Zn50 1.906 . S
O58 C66 1.304 . S
O59 Zn47 1.924 . S
O59 C67 1.311 . S
O60 Zn51 1.977 . S
O60 C66 1.272 . S
O61 Zn51 1.910 . S
O61 C67 1.231 . S
C62 O46 1.225 . S
C62 O68 1.298 . S
C63 O52 1.226 . S
C63 O53 1.307 . S
C64 O56 1.303 . S
C64 O57 1.247 . S
C65 O54 1.253 . S
C65 O55 1.283 . S
C66 O58 1.304 . S
C66 O60 1.272 . S
C67 O59 1.311 . S
C67 O61 1.231 . S
O68 Zn50 1.953 . S
O68 C62 1.298 . S
C69 N70 1.317 . S
C69 N71 1.348 1_545 S
C69 C72 1.485 . S
N70 C69 1.317 . S
N70 N74 1.370 . S
N71 C69 1.348 1_565 S
N71 C73 1.346 . S
C72 C69 1.485 . S
C72 H76 0.960 . S
C72 H77 0.961 . S
C72 H78 0.960 . S
C73 N71 1.346 . S
C73 N74 1.307 1_565 S
C73 C75 1.486 . S
N74 N70 1.370 . S
N74 C73 1.307 1_545 S
C75 C73 1.486 . S
C75 H79 0.960 . S
C75 H80 0.960 . S
C75 H81 0.959 . S
H76 C72 0.960 . S
H77 C72 0.961 . S
H78 C72 0.960 . S
H79 C75 0.960 . S
H80 C75 0.960 . S
H81 C75 0.959 . S
C82 N83 1.317 . S
C82 N84 1.348 . S
C82 C85 1.485 . S
N83 C82 1.317 . S
N83 N87 1.370 . S
N84 C82 1.348 . S
N84 C86 1.346 . S
C85 C82 1.485 . S
C85 H89 0.960 . S
C85 H90 0.961 . S
C85 H91 0.960 . S
C86 N84 1.346 . S
C86 N87 1.307 . S
C86 C88 1.486 . S
N87 N83 1.370 . S
N87 C86 1.307 . S
C88 C86 1.486 . S
C88 H92 0.960 . S
C88 H93 0.960 . S
C88 H94 0.959 . S
H89 C85 0.960 . S
H90 C85 0.961 . S
H91 C85 0.960 . S
H92 C88 0.960 . S
H93 C88 0.960 . S
H94 C88 0.959 . S
C95 N96 1.317 . S
C95 N97 1.348 . S
C95 C98 1.485 . S
N96 C95 1.317 . S
N96 N100 1.370 . S
N97 C95 1.348 . S
N97 C99 1.346 . S
C98 C95 1.485 . S
C98 H102 0.960 . S
C98 H103 0.961 . S
C98 H104 0.960 . S
C99 N97 1.346 . S
C99 N100 1.307 . S
C99 C101 1.486 1_455 S
N100 N96 1.370 . S
N100 C99 1.307 . S
C101 C99 1.486 1_655 S
C101 H105 0.960 . S
C101 H106 0.960 . S
C101 H107 0.959 . S
H102 C98 0.960 . S
H103 C98 0.961 . S
H104 C98 0.960 . S
H105 C101 0.960 . S
H106 C101 0.960 . S
H107 C101 0.959 . S
C108 N109 1.317 . S
C108 N110 1.348 . S
C108 C111 1.485 . S
N109 C108 1.317 . S
N109 N113 1.370 . S
N110 C108 1.348 . S
N110 C112 1.346 . S
C111 C108 1.485 . S
C111 H115 0.960 . S
C111 H116 0.961 . S
C111 H117 0.960 . S
C112 N110 1.346 . S
C112 N113 1.307 . S
C112 C114 1.486 . S
N113 N109 1.370 . S
N113 C112 1.307 . S
C114 C112 1.486 . S
C114 H118 0.960 . S
C114 H119 0.960 . S
C114 H120 0.959 . S
H115 C111 0.960 . S
H116 C111 0.961 . S
H117 C111 0.960 . S
H118 C114 0.960 . S
H119 C114 0.960 . S
H120 C114 0.959 . S
C121 N122 1.317 . S
C121 N123 1.348 . S
C121 C124 1.485 . S
N122 C121 1.317 . S
N122 N126 1.370 . S
N123 C121 1.348 . S
N123 C125 1.346 . S
C124 C121 1.485 . S
C124 H128 0.960 . S
C124 H129 0.961 . S
C124 H130 0.960 . S
C125 N123 1.346 . S
C125 N126 1.307 . S
C125 C127 1.486 . S
N126 N122 1.370 . S
N126 C125 1.307 . S
C127 C125 1.486 . S
C127 H131 0.960 . S
C127 H132 0.960 . S
C127 H133 0.959 . S
H128 C124 0.960 . S
H129 C124 0.961 . S
H130 C124 0.960 . S
H131 C127 0.960 . S
H132 C127 0.960 . S
H133 C127 0.959 . S
C134 N135 1.317 . S
C134 N136 1.348 . S
C134 C137 1.485 . S
N135 C134 1.317 . S
N135 N139 1.370 . S
N136 C134 1.348 . S
N136 C138 1.346 . S
C137 C134 1.485 . S
C137 H141 0.960 . S
C137 H142 0.961 . S
C137 H143 0.960 . S
C138 N136 1.346 . S
C138 N139 1.307 . S
C138 C140 1.486 . S
N139 N135 1.370 . S
N139 C138 1.307 . S
C140 C138 1.486 . S
C140 H144 0.960 . S
C140 H145 0.960 . S
C140 H146 0.959 . S
H141 C137 0.960 . S
H142 C137 0.961 . S
H143 C137 0.960 . S
H144 C140 0.960 . S
H145 C140 0.960 . S
H146 C140 0.959 . S
C147 C148 1.391 . S
C147 C149 1.394 . S
C147 H163 0.931 . S
C148 C147 1.391 . S
C148 C152 1.376 . S
C149 C147 1.394 . S
C149 C150 1.369 . S
C149 C153 1.531 . S
C150 C149 1.369 . S
C150 C151 1.410 . S
C150 C158 1.503 . S
C151 C150 1.410 . S
C151 C152 1.392 . S
C151 C154 1.511 . S
C152 C148 1.376 . S
C152 C151 1.392 . S
C152 H164 0.929 . S
C153 C149 1.531 . S
C153 H165 0.960 . S
C153 H166 0.962 . S
C153 H167 0.960 . S
C154 C151 1.511 . S
C154 H168 0.961 . S
C154 H169 0.961 . S
C154 H170 0.961 . S
C155 C156 1.370 . S
C155 C157 1.363 . S
C155 H171 0.931 . S
C156 C155 1.370 . S
C156 C160 1.408 . S
C157 C155 1.363 . S
C157 C158 1.370 . S
C157 C161 1.524 . S
C158 C150 1.503 . S
C158 C157 1.370 . S
C158 C159 1.403 . S
C159 C158 1.403 . S
C159 C160 1.404 . S
C159 C162 1.539 . S
C160 C156 1.408 . S
C160 C159 1.404 . S
C160 H172 0.930 . S
C161 C157 1.524 . S
C161 H173 0.956 . S
C161 H174 0.961 . S
C161 H175 0.961 . S
C162 C159 1.539 . S
C162 H176 0.958 . S
C162 H177 0.961 . S
C162 H178 0.960 . S
H163 C147 0.931 . S
H164 C152 0.929 . S
H165 C153 0.960 . S
H166 C153 0.962 . S
H167 C153 0.960 . S
H168 C154 0.961 . S
H169 C154 0.961 . S
H170 C154 0.961 . S
H171 C155 0.931 . S
H172 C160 0.930 . S
H173 C161 0.956 . S
H174 C161 0.961 . S
H175 C161 0.961 . S
H176 C162 0.958 . S
H177 C162 0.961 . S
H178 C162 0.960 . S
C179 C180 1.391 . S
C179 C181 1.394 . S
C179 H195 0.931 . S
C180 C179 1.391 . S
C180 C184 1.376 . S
C181 C179 1.394 . S
C181 C182 1.369 . S
C181 C185 1.531 . S
C182 C181 1.369 . S
C182 C183 1.410 . S
C182 C190 1.503 . S
C183 C182 1.410 . S
C183 C184 1.392 . S
C183 C186 1.511 . S
C184 C180 1.376 . S
C184 C183 1.392 . S
C184 H196 0.929 . S
C185 C181 1.531 . S
C185 H197 0.960 . S
C185 H198 0.962 . S
C185 H199 0.960 . S
C186 C183 1.511 . S
C186 H200 0.961 . S
C186 H201 0.961 . S
C186 H202 0.961 . S
C187 C188 1.371 . S
C187 C189 1.363 . S
C187 H203 0.931 . S
C188 C187 1.371 . S
C188 C192 1.415 . S
C189 C187 1.363 . S
C189 C190 1.370 . S
C189 C193 1.524 . S
C190 C182 1.503 . S
C190 C189 1.370 . S
C190 C191 1.403 . S
C191 C190 1.403 . S
C191 C192 1.404 . S
C191 C194 1.539 . S
C192 C188 1.415 . S
C192 C191 1.404 . S
C192 H204 0.930 . S
C193 C189 1.524 . S
C193 H205 0.956 . S
C193 H206 0.961 . S
C193 H207 0.961 . S
C194 C191 1.539 . S
C194 H208 0.958 . S
C194 H209 0.961 . S
C194 H210 0.960 . S
H195 C179 0.931 . S
H196 C184 0.929 . S
H197 C185 0.960 . S
H198 C185 0.962 . S
H199 C185 0.960 . S
H200 C186 0.961 . S
H201 C186 0.961 . S
H202 C186 0.961 . S
H203 C187 0.931 . S
H204 C192 0.930 . S
H205 C193 0.956 . S
H206 C193 0.961 . S
H207 C193 0.961 . S
H208 C194 0.958 . S
H209 C194 0.961 . S
H210 C194 0.960 . S
C211 C212 1.391 . S
C211 C213 1.394 . S
C211 H227 0.931 . S
C212 C211 1.391 . S
C212 C216 1.376 . S
C213 C211 1.394 . S
C213 C214 1.369 . S
C213 C217 1.531 . S
C214 C213 1.369 . S
C214 C215 1.410 . S
C214 C222 1.503 . S
C215 C214 1.410 . S
C215 C216 1.392 . S
C215 C218 1.511 . S
C216 C212 1.376 . S
C216 C215 1.392 . S
C216 H228 0.929 . S
C217 C213 1.531 . S
C217 H229 0.960 . S
C217 H230 0.962 . S
C217 H231 0.960 . S
C218 C215 1.511 . S
C218 H232 0.961 . S
C218 H233 0.961 . S
C218 H234 0.961 . S
C219 C220 1.370 1_565 S
C219 C221 1.363 . S
C219 H235 0.931 . S
C220 C219 1.370 1_545 S
C220 C224 1.408 . S
C221 C219 1.363 . S
C221 C222 1.370 . S
C221 C225 1.524 . S
C222 C214 1.503 . S
C222 C221 1.370 . S
C222 C223 1.403 . S
C223 C222 1.403 . S
C223 C224 1.404 1_565 S
C223 C226 1.539 . S
C224 C220 1.408 . S
C224 C223 1.404 1_545 S
C224 H236 0.930 . S
C225 C221 1.524 . S
C225 H237 0.956 . S
C225 H238 0.961 . S
C225 H239 0.961 . S
C226 C223 1.539 . S
C226 H240 0.958 1_565 S
C226 H241 0.961 1_565 S
C226 H242 0.960 . S
H227 C211 0.931 . S
H228 C216 0.929 . S
H229 C217 0.960 . S
H230 C217 0.962 . S
H231 C217 0.960 . S
H232 C218 0.961 . S
H233 C218 0.961 . S
H234 C218 0.961 . S
H235 C219 0.931 . S
H236 C224 0.930 . S
H237 C225 0.956 . S
H238 C225 0.961 . S
H239 C225 0.961 . S
H240 C226 0.958 1_545 S
H241 C226 0.961 1_545 S
H242 C226 0.960 . S
C243 C244 1.391 . S
C243 C245 1.394 . S
C243 H259 0.931 . S
C244 C243 1.391 . S
C244 C248 1.376 . S
C245 C243 1.394 . S
C245 C246 1.369 . S
C245 C249 1.531 . S
C246 C245 1.369 . S
C246 C247 1.410 . S
C246 C254 1.503 . S
C247 C246 1.410 . S
C247 C248 1.392 . S
C247 C250 1.511 . S
C248 C244 1.376 . S
C248 C247 1.392 . S
C248 H260 0.929 . S
C249 C245 1.531 . S
C249 H261 0.960 . S
C249 H262 0.962 . S
C249 H263 0.960 . S
C250 C247 1.511 . S
C250 H264 0.961 . S
C250 H265 0.961 . S
C250 H266 0.961 . S
C251 C252 1.370 . S
C251 C253 1.363 . S
C251 H267 0.931 . S
C252 C251 1.370 . S
C252 C256 1.408 . S
C253 C251 1.363 . S
C253 C254 1.370 . S
C253 C257 1.524 . S
C254 C246 1.503 . S
C254 C253 1.370 . S
C254 C255 1.403 . S
C255 C254 1.403 . S
C255 C256 1.404 . S
C255 C258 1.539 . S
C256 C252 1.408 . S
C256 C255 1.404 . S
C256 H268 0.930 . S
C257 C253 1.524 . S
C257 H269 0.956 . S
C257 H270 0.961 . S
C257 H271 0.961 . S
C258 C255 1.539 . S
C258 H272 0.958 . S
C258 H273 0.961 . S
C258 H274 0.960 . S
H259 C243 0.931 . S
H260 C248 0.929 . S
H261 C249 0.960 . S
H262 C249 0.962 . S
H263 C249 0.960 . S
H264 C250 0.961 . S
H265 C250 0.961 . S
H266 C250 0.961 . S
H267 C251 0.931 . S
H268 C256 0.930 . S
H269 C257 0.956 . S
H270 C257 0.961 . S
H271 C257 0.961 . S
H272 C258 0.958 . S
H273 C258 0.961 . S
H274 C258 0.960 . S
C275 C276 1.391 . S
C275 C277 1.394 . S
C275 H291 0.931 . S
C276 C275 1.391 . S
C276 C280 1.376 . S
C277 C275 1.394 . S
C277 C278 1.369 . S
C277 C281 1.531 . S
C278 C277 1.369 . S
C278 C279 1.410 . S
C278 C286 1.503 . S
C279 C278 1.410 . S
C279 C280 1.392 . S
C279 C282 1.511 . S
C280 C276 1.376 . S
C280 C279 1.392 . S
C280 H292 0.929 . S
C281 C277 1.531 . S
C281 H293 0.960 . S
C281 H294 0.962 . S
C281 H295 0.960 . S
C282 C279 1.511 . S
C282 H296 0.961 . S
C282 H297 0.961 . S
C282 H298 0.961 . S
C283 C284 1.370 . S
C283 C285 1.363 . S
C283 H299 0.931 . S
C284 C283 1.370 . S
C284 C288 1.408 . S
C285 C283 1.363 . S
C285 C286 1.370 . S
C285 C289 1.524 . S
C286 C278 1.503 . S
C286 C285 1.370 . S
C286 C287 1.403 . S
C287 C286 1.403 . S
C287 C288 1.404 . S
C287 C290 1.539 . S
C288 C284 1.408 . S
C288 C287 1.404 . S
C288 H300 0.930 . S
C289 C285 1.524 . S
C289 H301 0.956 . S
C289 H302 0.961 . S
C289 H303 0.961 . S
C290 C287 1.539 . S
C290 H304 0.958 . S
C290 H305 0.961 . S
C290 H306 0.960 . S
H291 C275 0.931 . S
H292 C280 0.929 . S
H293 C281 0.960 . S
H294 C281 0.962 . S
H295 C281 0.960 . S
H296 C282 0.961 . S
H297 C282 0.961 . S
H298 C282 0.961 . S
H299 C283 0.931 . S
H300 C288 0.930 . S
H301 C289 0.956 . S
H302 C289 0.961 . S
H303 C289 0.961 . S
H304 C290 0.958 . S
H305 C290 0.961 . S
H306 C290 0.960 . S
C307 C308 1.391 . S
C307 C309 1.394 . S
C307 H323 0.931 . S
C308 C307 1.391 . S
C308 C312 1.376 . S
C309 C307 1.394 . S
C309 C310 1.369 . S
C309 C313 1.531 . S
C310 C309 1.369 . S
C310 C311 1.410 . S
C310 C318 1.503 . S
C311 C310 1.410 . S
C311 C312 1.392 . S
C311 C314 1.511 . S
C312 C308 1.376 . S
C312 C311 1.392 . S
C312 H324 0.929 . S
C313 C309 1.531 . S
C313 H325 0.960 . S
C313 H326 0.962 . S
C313 H327 0.960 . S
C314 C311 1.511 . S
C314 H328 0.961 . S
C314 H329 0.961 . S
C314 H330 0.961 . S
C315 C316 1.370 . S
C315 C317 1.363 . S
C315 H331 0.931 . S
C316 C315 1.370 . S
C316 C320 1.408 . S
C317 C315 1.363 . S
C317 C318 1.370 . S
C317 C321 1.524 . S
C318 C310 1.503 . S
C318 C317 1.370 . S
C318 C319 1.403 . S
C319 C318 1.403 . S
C319 C320 1.404 . S
C319 C322 1.539 . S
C320 C316 1.408 . S
C320 C319 1.404 . S
C320 H332 0.930 . S
C321 C317 1.524 . S
C321 H333 0.956 . S
C321 H334 0.961 . S
C321 H335 0.961 . S
C322 C319 1.539 . S
C322 H336 0.958 . S
C322 H337 0.961 . S
C322 H338 0.960 . S
H323 C307 0.931 . S
H324 C312 0.929 . S
H325 C313 0.960 . S
H326 C313 0.962 . S
H327 C313 0.960 . S
H328 C314 0.961 . S
H329 C314 0.961 . S
H330 C314 0.961 . S
H331 C315 0.931 . S
H332 C320 0.930 . S
H333 C321 0.956 . S
H334 C321 0.961 . S
H335 C321 0.961 . S
H336 C322 0.958 . S
H337 C322 0.961 . S
H338 C322 0.960 . S
C339 C340 1.391 . S
C339 C341 1.394 . S
C339 H355 0.931 . S
C340 C339 1.391 . S
C340 C344 1.376 . S
C341 C339 1.394 . S
C341 C342 1.369 . S
C341 C345 1.531 . S
C342 C341 1.369 . S
C342 C343 1.410 . S
C342 C350 1.503 . S
C343 C342 1.410 . S
C343 C344 1.392 . S
C343 C346 1.511 . S
C344 C340 1.376 . S
C344 C343 1.392 . S
C344 H356 0.929 . S
C345 C341 1.531 . S
C345 H357 0.960 . S
C345 H358 0.962 . S
C345 H359 0.960 . S
C346 C343 1.511 . S
C346 H360 0.961 . S
C346 H361 0.961 . S
C346 H362 0.961 . S
C347 C348 1.370 . S
C347 C349 1.363 . S
C347 H363 0.931 . S
C348 C347 1.370 . S
C348 C352 1.408 . S
C349 C347 1.363 . S
C349 C350 1.370 . S
C349 C353 1.524 . S
C350 C342 1.503 . S
C350 C349 1.370 . S
C350 C351 1.403 . S
C351 C350 1.403 . S
C351 C352 1.404 . S
C351 C354 1.539 . S
C352 C348 1.408 . S
C352 C351 1.404 . S
C352 H364 0.930 . S
C353 C349 1.524 . S
C353 H365 0.956 . S
C353 H366 0.961 . S
C353 H367 0.961 . S
C354 C351 1.539 . S
C354 H368 0.958 . S
C354 H369 0.961 . S
C354 H370 0.960 . S
H355 C339 0.931 . S
H356 C344 0.929 . S
H357 C345 0.960 . S
H358 C345 0.962 . S
H359 C345 0.960 . S
H360 C346 0.961 . S
H361 C346 0.961 . S
H362 C346 0.961 . S
H363 C347 0.931 . S
H364 C352 0.930 . S
H365 C353 0.956 . S
H366 C353 0.961 . S
H367 C353 0.961 . S
H368 C354 0.958 . S
H369 C354 0.961 . S
H370 C354 0.960 . S
C371 C372 1.391 . S
C371 C373 1.394 . S
C371 H387 0.931 . S
C372 C371 1.391 . S
C372 C376 1.376 . S
C373 C371 1.394 . S
C373 C374 1.369 . S
C373 C377 1.531 . S
C374 C373 1.369 . S
C374 C375 1.410 . S
C374 C382 1.503 . S
C375 C374 1.410 . S
C375 C376 1.392 . S
C375 C378 1.511 . S
C376 C372 1.376 . S
C376 C375 1.392 . S
C376 H388 0.929 . S
C377 C373 1.531 . S
C377 H389 0.960 . S
C377 H390 0.962 . S
C377 H391 0.960 . S
C378 C375 1.511 . S
C378 H392 0.961 . S
C378 H393 0.961 . S
C378 H394 0.961 . S
C379 C380 1.370 . S
C379 C381 1.363 . S
C379 H395 0.931 . S
C380 C379 1.370 . S
C380 C384 1.408 . S
C381 C379 1.363 . S
C381 C382 1.370 . S
C381 C385 1.524 . S
C382 C374 1.503 . S
C382 C381 1.370 . S
C382 C383 1.403 . S
C383 C382 1.403 . S
C383 C384 1.404 . S
C383 C386 1.539 . S
C384 C380 1.408 . S
C384 C383 1.404 . S
C384 H396 0.930 . S
C385 C381 1.524 . S
C385 H397 0.956 . S
C385 H398 0.961 . S
C385 H399 0.961 . S
C386 C383 1.539 . S
C386 H400 0.958 . S
C386 H401 0.961 . S
C386 H402 0.960 . S
H387 C371 0.931 . S
H388 C376 0.929 . S
H389 C377 0.960 . S
H390 C377 0.962 . S
H391 C377 0.960 . S
H392 C378 0.961 . S
H393 C378 0.961 . S
H394 C378 0.961 . S
H395 C379 0.931 . S
H396 C384 0.930 . S
H397 C385 0.956 . S
H398 C385 0.961 . S
H399 C385 0.961 . S
H400 C386 0.958 . S
H401 C386 0.961 . S
H402 C386 0.960 . S
C403 C404 1.391 . S
C403 C405 1.394 . S
C403 H419 0.931 . S
C404 C403 1.391 . S
C404 C408 1.376 . S
C405 C403 1.394 . S
C405 C406 1.369 . S
C405 C409 1.531 . S
C406 C405 1.369 . S
C406 C407 1.410 . S
C406 C414 1.503 . S
C407 C406 1.410 . S
C407 C408 1.392 . S
C407 C410 1.511 . S
C408 C404 1.376 . S
C408 C407 1.392 . S
C408 H420 0.929 . S
C409 C405 1.531 . S
C409 H421 0.960 . S
C409 H422 0.962 . S
C409 H423 0.960 . S
C410 C407 1.511 . S
C410 H424 0.961 . S
C410 H425 0.961 . S
C410 H426 0.961 . S
C411 C412 1.370 . S
C411 C413 1.363 . S
C411 H427 0.931 . S
C412 C411 1.370 . S
C412 C416 1.408 . S
C413 C411 1.363 . S
C413 C414 1.370 . S
C413 C417 1.524 . S
C414 C406 1.503 . S
C414 C413 1.370 . S
C414 C415 1.403 . S
C415 C414 1.403 . S
C415 C416 1.404 . S
C415 C418 1.539 . S
C416 C412 1.408 . S
C416 C415 1.404 . S
C416 H428 0.930 . S
C417 C413 1.524 . S
C417 H429 0.956 . S
C417 H430 0.961 . S
C417 H431 0.961 . S
C418 C415 1.539 . S
C418 H432 0.958 . S
C418 H433 0.961 . S
C418 H434 0.960 . S
H419 C403 0.931 . S
H420 C408 0.929 . S
H421 C409 0.960 . S
H422 C409 0.962 . S
H423 C409 0.960 . S
H424 C410 0.961 . S
H425 C410 0.961 . S
H426 C410 0.961 . S
H427 C411 0.931 . S
H428 C416 0.930 . S
H429 C417 0.956 . S
H430 C417 0.961 . S
H431 C417 0.961 . S
H432 C418 0.958 . S
H433 C418 0.961 . S
H434 C418 0.960 . S
C435 C436 1.391 . S
C435 C437 1.394 . S
C435 H451 0.931 . S
C436 C435 1.391 . S
C436 C440 1.376 . S
C437 C435 1.394 . S
C437 C438 1.369 . S
C437 C441 1.531 . S
C438 C437 1.369 . S
C438 C439 1.410 . S
C438 C446 1.503 . S
C439 C438 1.410 . S
C439 C440 1.392 . S
C439 C442 1.511 . S
C440 C436 1.376 . S
C440 C439 1.392 . S
C440 H452 0.929 . S
C441 C437 1.531 . S
C441 H453 0.960 . S
C441 H454 0.962 . S
C441 H455 0.960 . S
C442 C439 1.511 . S
C442 H456 0.961 . S
C442 H457 0.961 . S
C442 H458 0.961 . S
C443 C444 1.370 . S
C443 C445 1.363 . S
C443 H459 0.931 . S
C444 C443 1.370 . S
C444 C448 1.408 . S
C445 C443 1.363 . S
C445 C446 1.370 . S
C445 C449 1.524 . S
C446 C438 1.503 . S
C446 C445 1.370 . S
C446 C447 1.403 . S
C447 C446 1.403 . S
C447 C448 1.404 . S
C447 C450 1.539 . S
C448 C444 1.408 . S
C448 C447 1.404 . S
C448 H460 0.930 . S
C449 C445 1.524 . S
C449 H461 0.956 . S
C449 H462 0.961 . S
C449 H463 0.961 . S
C450 C447 1.539 . S
C450 H464 0.958 . S
C450 H465 0.961 . S
C450 H466 0.960 . S
H451 C435 0.931 . S
H452 C440 0.929 . S
H453 C441 0.960 . S
H454 C441 0.962 . S
H455 C441 0.960 . S
H456 C442 0.961 . S
H457 C442 0.961 . S
H458 C442 0.961 . S
H459 C443 0.931 . S
H460 C448 0.930 . S
H461 C449 0.956 . S
H462 C449 0.961 . S
H463 C449 0.961 . S
H464 C450 0.958 . S
H465 C450 0.961 . S
H466 C450 0.960 . S
C467 C468 1.391 . S
C467 C469 1.394 . S
C467 H483 0.931 . S
C468 C467 1.391 . S
C468 C472 1.376 . S
C469 C467 1.394 . S
C469 C470 1.369 . S
C469 C473 1.531 . S
C470 C469 1.369 . S
C470 C471 1.410 . S
C470 C478 1.503 . S
C471 C470 1.410 . S
C471 C472 1.392 . S
C471 C474 1.511 . S
C472 C468 1.376 . S
C472 C471 1.392 . S
C472 H484 0.929 . S
C473 C469 1.531 . S
C473 H485 0.960 . S
C473 H486 0.962 . S
C473 H487 0.960 . S
C474 C471 1.511 . S
C474 H488 0.961 . S
C474 H489 0.961 . S
C474 H490 0.961 . S
C475 C476 1.370 . S
C475 C477 1.363 . S
C475 H491 0.931 . S
C476 C475 1.370 . S
C476 C480 1.408 . S
C477 C475 1.363 . S
C477 C478 1.370 . S
C477 C481 1.524 . S
C478 C470 1.503 . S
C478 C477 1.370 . S
C478 C479 1.403 . S
C479 C478 1.403 . S
C479 C480 1.404 . S
C479 C482 1.539 . S
C480 C476 1.408 . S
C480 C479 1.404 . S
C480 H492 0.930 . S
C481 C477 1.524 . S
C481 H493 0.956 . S
C481 H494 0.961 . S
C481 H495 0.961 . S
C482 C479 1.539 . S
C482 H496 0.958 . S
C482 H497 0.961 . S
C482 H498 0.960 . S
H483 C467 0.931 . S
H484 C472 0.929 . S
H485 C473 0.960 . S
H486 C473 0.962 . S
H487 C473 0.960 . S
H488 C474 0.961 . S
H489 C474 0.961 . S
H490 C474 0.961 . S
H491 C475 0.931 . S
H492 C480 0.930 . S
H493 C481 0.956 . S
H494 C481 0.961 . S
H495 C481 0.961 . S
H496 C482 0.958 . S
H497 C482 0.961 . S
H498 C482 0.960 . S
C499 C500 1.391 . S
C499 C501 1.394 . S
C499 H515 0.931 . S
C500 C499 1.391 . S
C500 C504 1.376 . S
C501 C499 1.394 . S
C501 C502 1.369 . S
C501 C505 1.531 . S
C502 C501 1.369 . S
C502 C503 1.410 . S
C502 C510 1.503 . S
C503 C502 1.410 . S
C503 C504 1.392 . S
C503 C506 1.511 . S
C504 C500 1.376 . S
C504 C503 1.392 . S
C504 H516 0.929 . S
C505 C501 1.531 . S
C505 H517 0.960 . S
C505 H518 0.962 . S
C505 H519 0.960 . S
C506 C503 1.511 . S
C506 H520 0.961 . S
C506 H521 0.961 . S
C506 H522 0.961 . S
C507 C508 1.370 . S
C507 C509 1.363 . S
C507 H523 0.931 . S
C508 C507 1.370 . S
C508 C512 1.408 . S
C509 C507 1.363 . S
C509 C510 1.370 . S
C509 C513 1.524 . S
C510 C502 1.503 . S
C510 C509 1.370 . S
C510 C511 1.403 . S
C511 C510 1.403 . S
C511 C512 1.404 . S
C511 C514 1.539 . S
C512 C508 1.408 . S
C512 C511 1.404 . S
C512 H524 0.930 . S
C513 C509 1.524 . S
C513 H525 0.956 . S
C513 H526 0.961 . S
C513 H527 0.961 . S
C514 C511 1.539 . S
C514 H528 0.958 . S
C514 H529 0.961 . S
C514 H530 0.960 . S
H515 C499 0.931 . S
H516 C504 0.929 . S
H517 C505 0.960 . S
H518 C505 0.962 . S
H519 C505 0.960 . S
H520 C506 0.961 . S
H521 C506 0.961 . S
H522 C506 0.961 . S
H523 C507 0.931 . S
H524 C512 0.930 . S
H525 C513 0.956 . S
H526 C513 0.961 . S
H527 C513 0.961 . S
H528 C514 0.958 . S
H529 C514 0.961 . S
H530 C514 0.960 . S
C531 C532 1.391 . S
C531 C533 1.394 . S
C531 H547 0.931 . S
C532 C531 1.391 . S
C532 C536 1.376 . S
C533 C531 1.394 . S
C533 C534 1.369 . S
C533 C537 1.531 . S
C534 C533 1.369 . S
C534 C535 1.410 . S
C534 C542 1.503 1_554 S
C535 C534 1.410 . S
C535 C536 1.392 . S
C535 C538 1.511 . S
C536 C532 1.376 . S
C536 C535 1.392 . S
C536 H548 0.929 . S
C537 C533 1.531 . S
C537 H549 0.960 . S
C537 H550 0.962 1_455 S
C537 H551 0.960 . S
C538 C535 1.511 . S
C538 H552 0.961 . S
C538 H553 0.961 . S
C538 H554 0.961 . S
C539 C540 1.370 . S
C539 C541 1.363 . S
C539 H555 0.931 1_455 S
C540 C539 1.370 . S
C540 C544 1.408 . S
C541 C539 1.363 . S
C541 C542 1.370 . S
C541 C545 1.524 1_455 S
C542 C534 1.503 1_556 S
C542 C541 1.370 . S
C542 C543 1.403 . S
C543 C542 1.403 . S
C543 C544 1.404 . S
C543 C546 1.539 . S
C544 C540 1.408 . S
C544 C543 1.404 . S
C544 H556 0.930 . S
C545 C541 1.524 1_655 S
C545 H557 0.956 1_556 S
C545 H558 0.961 1_556 S
C545 H559 0.961 . S
C546 C543 1.539 . S
C546 H560 0.958 . S
C546 H561 0.961 . S
C546 H562 0.960 1_556 S
H547 C531 0.931 . S
H548 C536 0.929 . S
H549 C537 0.960 . S
H550 C537 0.962 1_655 S
H551 C537 0.960 . S
H552 C538 0.961 . S
H553 C538 0.961 . S
H554 C538 0.961 . S
H555 C539 0.931 1_655 S
H556 C544 0.930 . S
H557 C545 0.956 1_554 S
H558 C545 0.961 1_554 S
H559 C545 0.961 . S
H560 C546 0.958 . S
H561 C546 0.961 . S
H562 C546 0.960 1_554 S
C563 C564 1.391 . S
C563 C565 1.394 . S
C563 H579 0.931 . S
C564 C563 1.391 . S
C564 C568 1.376 . S
C565 C563 1.394 . S
C565 C566 1.369 . S
C565 C569 1.531 . S
C566 C565 1.369 . S
C566 C567 1.410 . S
C566 C574 1.503 . S
C567 C566 1.410 . S
C567 C568 1.392 . S
C567 C570 1.511 1_545 S
C568 C564 1.376 . S
C568 C567 1.392 . S
C568 H580 0.929 . S
C569 C565 1.531 . S
C569 H581 0.960 . S
C569 H582 0.962 . S
C569 H583 0.960 . S
C570 C567 1.511 1_565 S
C570 H584 0.961 . S
C570 H585 0.961 . S
C570 H586 0.961 1_565 S
C571 C572 1.370 . S
C571 C573 1.363 . S
C571 H587 0.931 1_545 S
C572 C571 1.370 . S
C572 C576 1.408 . S
C573 C571 1.363 . S
C573 C574 1.370 . S
C573 C577 1.524 1_545 S
C574 C566 1.503 . S
C574 C573 1.370 . S
C574 C575 1.403 . S
C575 C574 1.403 . S
C575 C576 1.404 . S
C575 C578 1.539 . S
C576 C572 1.408 . S
C576 C575 1.404 . S
C576 H588 0.930 . S
C577 C573 1.524 1_565 S
C577 H589 0.956 . S
C577 H590 0.961 . S
C577 H591 0.961 . S
C578 C575 1.539 . S
C578 H592 0.958 . S
C578 H593 0.961 . S
C578 H594 0.960 . S
H579 C563 0.931 . S
H580 C568 0.929 . S
H581 C569 0.960 . S
H582 C569 0.962 . S
H583 C569 0.960 . S
H584 C570 0.961 . S
H585 C570 0.961 . S
H586 C570 0.961 1_545 S
H587 C571 0.931 1_565 S
H588 C576 0.930 . S
H589 C577 0.956 . S
H590 C577 0.961 . S
H591 C577 0.961 . S
H592 C578 0.958 . S
H593 C578 0.961 . S
H594 C578 0.960 . S
C595 C596 1.391 . S
C595 C597 1.394 . S
C595 H611 0.931 . S
C596 C595 1.391 . S
C596 C600 1.376 . S
C597 C595 1.394 . S
C597 C598 1.369 . S
C597 C601 1.531 . S
C598 C597 1.369 . S
C598 C599 1.410 . S
C598 C606 1.503 . S
C599 C598 1.410 . S
C599 C600 1.392 . S
C599 C602 1.511 . S
C600 C596 1.376 . S
C600 C599 1.392 . S
C600 H612 0.929 . S
C601 C597 1.531 . S
C601 H613 0.960 . S
C601 H614 0.962 . S
C601 H615 0.960 . S
C602 C599 1.511 . S
C602 H616 0.961 . S
C602 H617 0.961 . S
C602 H618 0.961 . S
C603 C604 1.370 . S
C603 C605 1.363 . S
C603 H619 0.931 . S
C604 C603 1.370 . S
C604 C608 1.408 . S
C605 C603 1.363 . S
C605 C606 1.370 . S
C605 C609 1.524 . S
C606 C598 1.503 . S
C606 C605 1.370 . S
C606 C607 1.403 . S
C607 C606 1.403 . S
C607 C608 1.404 . S
C607 C610 1.539 . S
C608 C604 1.408 . S
C608 C607 1.404 . S
C608 H620 0.930 . S
C609 C605 1.524 . S
C609 H621 0.956 . S
C609 H622 0.961 . S
C609 H623 0.961 . S
C610 C607 1.539 . S
C610 H624 0.958 . S
C610 H625 0.961 . S
C610 H626 0.960 . S
H611 C595 0.931 . S
H612 C600 0.929 . S
H613 C601 0.960 . S
H614 C601 0.962 . S
H615 C601 0.960 . S
H616 C602 0.961 . S
H617 C602 0.961 . S
H618 C602 0.961 . S
H619 C603 0.931 . S
H620 C608 0.930 . S
H621 C609 0.956 . S
H622 C609 0.961 . S
H623 C609 0.961 . S
H624 C610 0.958 . S
H625 C610 0.961 . S
H626 C610 0.960 . S
C627 C628 1.391 . S
C627 C629 1.394 . S
C627 H643 0.931 . S
C628 C627 1.391 . S
C628 C632 1.376 . S
C629 C627 1.394 . S
C629 C630 1.369 . S
C629 C633 1.531 . S
C630 C629 1.369 . S
C630 C631 1.410 . S
C630 C638 1.503 . S
C631 C630 1.410 . S
C631 C632 1.392 . S
C631 C634 1.511 . S
C632 C628 1.376 . S
C632 C631 1.392 . S
C632 H644 0.929 . S
C633 C629 1.531 . S
C633 H645 0.960 . S
C633 H646 0.962 . S
C633 H647 0.960 . S
C634 C631 1.511 . S
C634 H648 0.961 1_545 S
C634 H649 0.961 1_545 S
C634 H650 0.961 . S
C635 C636 1.370 . S
C635 C637 1.363 . S
C635 H651 0.931 . S
C636 C635 1.370 . S
C636 C640 1.408 . S
C637 C635 1.363 . S
C637 C638 1.370 . S
C637 C641 1.524 1_545 S
C638 C630 1.503 . S
C638 C637 1.370 . S
C638 C639 1.403 . S
C639 C638 1.403 . S
C639 C640 1.404 . S
C639 C642 1.539 . S
C640 C636 1.408 . S
C640 C639 1.404 . S
C640 H652 0.930 . S
C641 C637 1.524 1_565 S
C641 H653 0.955 . S
C641 H654 0.961 . S
C641 H655 0.961 . S
C642 C639 1.539 . S
C642 H656 0.958 . S
C642 H657 0.961 . S
C642 H658 0.960 . S
H643 C627 0.931 . S
H644 C632 0.929 . S
H645 C633 0.960 . S
H646 C633 0.962 . S
H647 C633 0.960 . S
H648 C634 0.961 1_565 S
H649 C634 0.961 1_565 S
H650 C634 0.961 . S
H651 C635 0.931 . S
H652 C640 0.930 . S
H653 C641 0.955 . S
H654 C641 0.961 . S
H655 C641 0.961 . S
H656 C642 0.958 . S
H657 C642 0.961 . S
H658 C642 0.960 . S
C659 C660 1.391 . S
C659 C661 1.394 . S
C659 H675 0.931 . S
C660 C659 1.391 . S
C660 C664 1.376 . S
C661 C659 1.394 . S
C661 C662 1.369 . S
C661 C665 1.531 . S
C662 C661 1.369 . S
C662 C663 1.410 . S
C662 C670 1.503 1_556 S
C663 C662 1.410 . S
C663 C664 1.392 . S
C663 C666 1.511 . S
C664 C660 1.376 . S
C664 C663 1.392 . S
C664 H676 0.929 . S
C665 C661 1.531 . S
C665 H677 0.960 . S
C665 H678 0.962 . S
C665 H679 0.960 . S
C666 C663 1.511 . S
C666 H680 0.961 . S
C666 H681 0.961 . S
C666 H682 0.961 . S
C667 C668 1.370 . S
C667 C669 1.363 . S
C667 H683 0.931 . S
C668 C667 1.370 . S
C668 C672 1.408 . S
C669 C667 1.363 . S
C669 C670 1.370 . S
C669 C673 1.524 . S
C670 C662 1.503 1_554 S
C670 C669 1.370 . S
C670 C671 1.403 . S
C671 C670 1.403 . S
C671 C672 1.404 . S
C671 C674 1.539 . S
C672 C668 1.408 . S
C672 C671 1.404 . S
C672 H684 0.930 . S
C673 C669 1.524 . S
C673 H685 0.956 1_554 S
C673 H686 0.961 1_554 S
C673 H687 0.961 . S
C674 C671 1.539 . S
C674 H688 0.958 . S
C674 H689 0.961 . S
C674 H690 0.960 1_554 S
H675 C659 0.931 . S
H676 C664 0.929 . S
H677 C665 0.960 . S
H678 C665 0.962 . S
H679 C665 0.960 . S
H680 C666 0.961 . S
H681 C666 0.961 . S
H682 C666 0.961 . S
H683 C667 0.931 . S
H684 C672 0.930 . S
H685 C673 0.956 1_556 S
H686 C673 0.961 1_556 S
H687 C673 0.961 . S
H688 C674 0.958 . S
H689 C674 0.961 . S
H690 C674 0.960 1_556 S
C691 C692 1.391 . S
C691 C693 1.394 . S
C691 H707 0.931 . S
C692 C691 1.391 . S
C692 C696 1.376 . S
C693 C691 1.394 . S
C693 C694 1.369 . S
C693 C697 1.531 . S
C694 C693 1.369 . S
C694 C695 1.410 . S
C694 C702 1.503 . S
C695 C694 1.410 . S
C695 C696 1.392 . S
C695 C698 1.511 1_455 S
C696 C692 1.376 . S
C696 C695 1.392 . S
C696 H708 0.929 1_455 S
C697 C693 1.531 . S
C697 H709 0.960 . S
C697 H710 0.962 . S
C697 H711 0.960 . S
C698 C695 1.511 1_655 S
C698 H712 0.961 . S
C698 H713 0.961 1_655 S
C698 H714 0.961 . S
C699 C700 1.370 . S
C699 C701 1.363 . S
C699 H715 0.931 . S
C700 C699 1.370 . S
C700 C704 1.408 1_455 S
C701 C699 1.363 . S
C701 C702 1.370 . S
C701 C705 1.524 . S
C702 C694 1.503 . S
C702 C701 1.370 . S
C702 C703 1.403 1_455 S
C703 C702 1.403 1_655 S
C703 C704 1.404 . S
C703 C706 1.539 . S
C704 C700 1.408 1_655 S
C704 C703 1.404 . S
C704 H716 0.930 . S
C705 C701 1.524 . S
C705 H717 0.956 . S
C705 H718 0.961 . S
C705 H719 0.961 . S
C706 C703 1.539 . S
C706 H720 0.958 . S
C706 H721 0.961 . S
C706 H722 0.960 . S
H707 C691 0.931 . S
H708 C696 0.929 1_655 S
H709 C697 0.960 . S
H710 C697 0.962 . S
H711 C697 0.960 . S
H712 C698 0.961 . S
H713 C698 0.961 1_455 S
H714 C698 0.961 . S
H715 C699 0.931 . S
H716 C704 0.930 . S
H717 C705 0.956 . S
H718 C705 0.961 . S
H719 C705 0.961 . S
H720 C706 0.958 . S
H721 C706 0.961 . S
H722 C706 0.960 . S
C148 C20 0.952 . S
C156 N136 1.027 . S
C180 C41 1.300 . S
C188 N109 1.293 1_655 S
C212 C64 1.327 . S
C220 N122 1.300 . S
C244 C19 1.576 . S
C252 N135 1.583 . S
C284 N110 1.332 . S
C276 C44 1.341 . S
C316 N123 1.327 . S
C308 C67 1.326 . S
C340 C43 1.192 . S
C348 N83 1.285 . S
C372 C66 1.022 . S
C380 N97 1.018 1_655 S
C404 C21 1.325 . S
C412 N71 1.333 . S
C444 N84 1.338 . S
C436 C42 1.307 . S
C476 N96 1.580 . S
C468 C65 1.558 . S
C500 C18 1.287 . S
C508 N70 1.276 . S
C540 N100 1.507 . S
C532 C17 1.527 . S
C564 C39 1.552 . S
C572 N74 1.545 . S
C596 C62 1.547 . S
C604 N87 1.537 . S
C636 N126 1.520 . S
C628 C40 1.524 . S
C668 N139 1.493 . S
C660 C63 1.531 . S
C692 C16 1.528 . S
C700 N113 1.532 . S
