# Generated by pormake.
# Topology hwx, (6,3)-cn, num edge types: 1
# Building blocks:
#     Node 0, Type 0, BuildingBlock: IZENUY_clean_sbu_0, # of connection points: 6
#     Node 1, Type 0, BuildingBlock: IZENUY_clean_sbu_0, # of connection points: 6
#     Node 2, Type 0, BuildingBlock: IZENUY_clean_sbu_0, # of connection points: 6
#     Node 3, Type 0, BuildingBlock: IZENUY_clean_sbu_0, # of connection points: 6
#     Node 4, Type 1, BuildingBlock: BETDIP_clean_linker_0, # of connection points: 3
#     Node 5, Type 1, BuildingBlock: BETDIP_clean_linker_0, # of connection points: 3
#     Node 6, Type 1, BuildingBlock: BETDIP_clean_linker_0, # of connection points: 3
#     Node 7, Type 1, BuildingBlock: BETDIP_clean_linker_0, # of connection points: 3
#     Node 8, Type 1, BuildingBlock: BETDIP_clean_linker_0, # of connection points: 3
#     Node 9, Type 1, BuildingBlock: BETDIP_clean_linker_0, # of connection points: 3
#     Node 10, Type 1, BuildingBlock: BETDIP_clean_linker_0, # of connection points: 3
#     Node 11, Type 1, BuildingBlock: BETDIP_clean_linker_0, # of connection points: 3
#     Edge 12, Type (0, 1), BuildingBlock: EZIPEK_clean_linker_0, # of connection points: 2
#     Edge 13, Type (0, 1), BuildingBlock: EZIPEK_clean_linker_0, # of connection points: 2
#     Edge 14, Type (0, 1), BuildingBlock: EZIPEK_clean_linker_0, # of connection points: 2
#     Edge 15, Type (0, 1), BuildingBlock: EZIPEK_clean_linker_0, # of connection points: 2
#     Edge 16, Type (0, 1), BuildingBlock: EZIPEK_clean_linker_0, # of connection points: 2
#     Edge 17, Type (0, 1), BuildingBlock: EZIPEK_clean_linker_0, # of connection points: 2
#     Edge 18, Type (0, 1), BuildingBlock: EZIPEK_clean_linker_0, # of connection points: 2
#     Edge 19, Type (0, 1), BuildingBlock: EZIPEK_clean_linker_0, # of connection points: 2
#     Edge 20, Type (0, 1), BuildingBlock: EZIPEK_clean_linker_0, # of connection points: 2
#     Edge 21, Type (0, 1), BuildingBlock: EZIPEK_clean_linker_0, # of connection points: 2
#     Edge 22, Type (0, 1), BuildingBlock: EZIPEK_clean_linker_0, # of connection points: 2
#     Edge 23, Type (0, 1), BuildingBlock: EZIPEK_clean_linker_0, # of connection points: 2
#     Edge 24, Type (0, 1), BuildingBlock: EZIPEK_clean_linker_0, # of connection points: 2
#     Edge 25, Type (0, 1), BuildingBlock: EZIPEK_clean_linker_0, # of connection points: 2
#     Edge 26, Type (0, 1), BuildingBlock: EZIPEK_clean_linker_0, # of connection points: 2
#     Edge 27, Type (0, 1), BuildingBlock: EZIPEK_clean_linker_0, # of connection points: 2
#     Edge 28, Type (0, 1), BuildingBlock: EZIPEK_clean_linker_0, # of connection points: 2
#     Edge 29, Type (0, 1), BuildingBlock: EZIPEK_clean_linker_0, # of connection points: 2
#     Edge 30, Type (0, 1), BuildingBlock: EZIPEK_clean_linker_0, # of connection points: 2
#     Edge 31, Type (0, 1), BuildingBlock: EZIPEK_clean_linker_0, # of connection points: 2
#     Edge 32, Type (0, 1), BuildingBlock: EZIPEK_clean_linker_0, # of connection points: 2
#     Edge 33, Type (0, 1), BuildingBlock: EZIPEK_clean_linker_0, # of connection points: 2
#     Edge 34, Type (0, 1), BuildingBlock: EZIPEK_clean_linker_0, # of connection points: 2
#     Edge 35, Type (0, 1), BuildingBlock: EZIPEK_clean_linker_0, # of connection points: 2
# Relax obj value: 0.003
# Max RMSD: 0.056
# Mean RMSD: 0.046
data_MOF--net-hwx--node1-IZENUY_clean_sbu_0--node2-BETDIP_clean_linker_0--edge1-EZIPEK_clean_linker_0
_symmetry_space_group_name_H-M    P1
_symmetry_Int_Tables_number       1
_symmetry_cell_setting            triclinic
loop_
_symmetry_equiv_pos_as_xyz
'x, y, z'
_cell_length_a     37.807047
_cell_length_b     37.634479
_cell_length_c     15.135271
_cell_angle_alpha  91.787194
_cell_angle_beta   91.934036
_cell_angle_gamma 89.972657
loop_
_atom_site_label
_atom_site_type_symbol
_atom_site_fract_x
_atom_site_fract_y
_atom_site_fract_z
_atom_type_partial_charge
Fe0 Fe 0.24613 0.24655 0.11075 0.0
Fe1 Fe 0.24691 0.24673 0.90831 0.0
O2 O 0.23005 0.23012 0.0064 0.0
Fe3 Fe 0.19669 0.19688 0.00012 0.0
O4 O 0.17567 0.21122 0.10384 0.0
O5 O 0.2023 0.2614 0.13898 0.0
O6 O 0.2537 0.29207 0.07479 0.0
C7 C 0.24162 0.30823 0.00816 0.0
C8 C 0.23819 0.17195 0.13415 0.0
O9 O 0.2336 0.29182 0.93652 0.0
C10 C 0.24107 0.17691 0.85908 0.0
O11 O 0.29114 0.23331 0.08883 0.0
O12 O 0.2922 0.25409 0.95449 0.0
O13 O 0.22506 0.16584 0.05762 0.0
O14 O 0.24136 0.20356 0.16562 0.0
C15 C 0.1727 0.23905 0.86898 0.0
O16 O 0.26163 0.20278 0.87431 0.0
O17 O 0.21138 0.1762 0.89529 0.0
C18 C 0.30797 0.24195 0.02237 0.0
O19 O 0.20434 0.24229 0.84429 0.0
O20 O 0.16625 0.22585 0.94218 0.0
C21 C 0.17639 0.24091 0.14565 0.0
Fe22 Fe 0.27112 0.74208 0.61137 0.0
Fe23 Fe 0.3198 0.69682 0.49516 0.0
O24 O 0.28624 0.72948 0.50521 0.0
Fe25 Fe 0.26781 0.7492 0.40969 0.0
O26 O 0.26148 0.79311 0.46389 0.0
O27 O 0.28448 0.78794 0.59878 0.0
O28 O 0.31415 0.73507 0.66919 0.0
C29 C 0.34524 0.73419 0.6403 0.0
C30 C 0.20785 0.74226 0.50445 0.0
O31 O 0.35086 0.72366 0.56223 0.0
C32 C 0.27585 0.6763 0.3565 0.0
O33 O 0.25675 0.69671 0.62989 0.0
O34 O 0.30635 0.67216 0.59088 0.0
O35 O 0.22346 0.73457 0.43405 0.0
O36 O 0.2254 0.75205 0.57361 0.0
C37 C 0.33707 0.7459 0.36419 0.0
O38 O 0.29113 0.66764 0.42784 0.0
O39 O 0.27117 0.7087 0.3383 0.0
C40 C 0.27643 0.66957 0.62466 0.0
O41 O 0.33926 0.71543 0.39693 0.0
O42 O 0.31073 0.76541 0.37876 0.0
C43 C 0.27539 0.80679 0.5343 0.0
Fe44 Fe 0.77376 0.7919 0.92118 0.0
Fe45 Fe 0.76907 0.78403 0.12205 0.0
O46 O 0.78802 0.80423 0.03078 0.0
Fe47 Fe 0.82135 0.83712 0.04851 0.0
O48 O 0.80866 0.86201 0.9503 0.0
O49 O 0.75948 0.83729 0.90029 0.0
O50 O 0.72789 0.78158 0.94861 0.0
C51 C 0.70968 0.78989 0.01475 0.0
C52 C 0.84794 0.7999 0.90877 0.0
O53 O 0.72463 0.7979 0.08844 0.0
C54 C 0.83801 0.78803 0.18259 0.0
O55 O 0.78701 0.74599 0.93541 0.0
O56 O 0.76377 0.74004 0.066 0.0
O57 O 0.853 0.81056 0.9879 0.0
O58 O 0.81715 0.7992 0.87302 0.0
C59 C 0.77625 0.85708 0.17786 0.0
O60 O 0.81191 0.76834 0.16234 0.0
O61 O 0.84019 0.81855 0.15063 0.0
C62 C 0.77762 0.72674 0.99735 0.0
O63 O 0.77139 0.82458 0.19442 0.0
O64 O 0.79202 0.86595 0.10992 0.0
C65 C 0.7792 0.8644 0.90927 0.0
Fe66 Fe 0.69328 0.33678 0.48367 0.0
Fe67 Fe 0.74086 0.29092 0.60231 0.0
O68 O 0.72661 0.30391 0.49519 0.0
Fe69 Fe 0.74558 0.28446 0.40006 0.0
O70 O 0.74281 0.3253 0.33518 0.0
O71 O 0.72283 0.36604 0.42848 0.0
O72 O 0.70574 0.36096 0.58676 0.0
C73 C 0.73522 0.3634 0.62789 0.0
C74 C 0.67665 0.28838 0.34048 0.0
O75 O 0.75497 0.3363 0.63222 0.0
C76 C 0.73744 0.22636 0.51314 0.0
O77 O 0.66157 0.30975 0.53883 0.0
O78 O 0.69736 0.29767 0.65159 0.0
O79 O 0.70275 0.26865 0.35732 0.0
O80 O 0.67458 0.31884 0.37764 0.0
C81 C 0.80498 0.29 0.50841 0.0
O82 O 0.72777 0.24498 0.5789 0.0
O83 O 0.75133 0.24036 0.4476 0.0
C84 C 0.66657 0.29867 0.61596 0.0
O85 O 0.78679 0.28107 0.57283 0.0
O86 O 0.78999 0.29847 0.4363 0.0
C87 C 0.73805 0.35767 0.35806 0.0
H88 H 0.23805 0.52434 0.8398 0.0
H89 H 0.23857 0.52936 0.12524 0.0
H90 H 0.25359 0.62414 0.98127 0.0
H91 H 0.22942 0.47204 0.11737 0.0
C92 C 0.23342 0.46151 0.05103 0.0
C93 C 0.23934 0.53956 0.90183 0.0
C94 C 0.24525 0.57634 0.90149 0.0
C95 C 0.23675 0.52198 0.98175 0.0
C96 C 0.23959 0.54196 0.06225 0.0
C97 C 0.24546 0.57884 0.06185 0.0
C98 C 0.24807 0.59586 0.98147 0.0
N99 N 0.23372 0.48422 0.97765 0.0
H100 H 0.99575 0.76027 0.69071 0.0
H101 H 0.98501 0.74674 0.40662 0.0
H102 H 0.89635 0.78091 0.55687 0.0
H103 H 0.04219 0.74244 0.40747 0.0
C104 C 0.05394 0.74233 0.4737 0.0
C105 C 0.97991 0.7613 0.6298 0.0
C106 C 0.94405 0.77061 0.63275 0.0
C107 C 0.99558 0.75373 0.54851 0.0
C108 C 0.97427 0.75388 0.46994 0.0
C109 C 0.93849 0.76415 0.47246 0.0
C110 C 0.92391 0.773 0.55415 0.0
N111 N 0.03272 0.74708 0.54916 0.0
H112 H 0.77401 0.50577 0.15373 0.0
H113 H 0.7727 0.50909 0.86881 0.0
H114 H 0.76087 0.40969 0.99474 0.0
H115 H 0.7937 0.5631 0.8884 0.0
C116 C 0.78732 0.57328 0.95371 0.0
C117 C 0.77306 0.49232 0.08933 0.0
C118 C 0.76801 0.45531 0.08303 0.0
C119 C 0.77581 0.5122 0.01276 0.0
C120 C 0.77272 0.49452 0.92921 0.0
C121 C 0.76765 0.45755 0.92294 0.0
C122 C 0.76586 0.43808 -0.0002 0.0
N123 N 0.77931 0.54989 0.0225 0.0
H124 H 0.02775 0.28096 0.35364 0.0
H125 H 0.02184 0.27394 0.63664 0.0
H126 H 0.11927 0.25037 0.51033 0.0
H127 H 0.96603 0.25161 0.59355 0.0
C128 C 0.95752 0.26848 0.53993 0.0
C129 C 0.04016 0.2753 0.41725 0.0
C130 C 0.07598 0.26522 0.42253 0.0
C131 C 0.01986 0.27652 0.49333 0.0
C132 C 0.03653 0.27103 0.57666 0.0
C133 C 0.07259 0.26219 0.58249 0.0
C134 C 0.0916 0.25801 0.50537 0.0
N135 N 0.98288 0.2831 0.48397 0.0
H136 H 0.7381 1.00887 0.68846 0.0
H137 H 0.73594 1.0045 0.40294 0.0
H138 H 0.75481 0.90973 0.54771 0.0
H139 H 0.74373 0.06255 0.41478 0.0
C140 C 0.73813 0.07265 0.48067 0.0
C141 C 0.73931 0.99381 0.6264 0.0
C142 C 0.74596 0.95716 0.62702 0.0
C143 C 0.73607 1.01155 0.54638 0.0
C144 C 0.73846 0.99177 0.46587 0.0
C145 C 0.74512 0.95498 0.4665 0.0
C146 C 0.74868 0.93789 0.54711 0.0
N147 N 0.732 0.04922 0.55055 0.0
H148 H 0.51875 0.25806 0.82812 0.0
H149 H 0.52989 0.24598 0.11067 0.0
H150 H 0.61797 0.28058 0.96435 0.0
H151 H 0.47366 0.23565 0.10815 0.0
C152 C 0.46149 0.23759 0.0427 0.0
C153 C 0.5346 0.25956 0.88915 0.0
C154 C 0.57033 0.26941 0.8873 0.0
C155 C 0.51912 0.25192 0.96948 0.0
C156 C 0.54048 0.25281 0.04808 0.0
C157 C 0.57613 0.26356 0.04675 0.0
C158 C 0.59051 0.27233 0.96615 0.0
N159 N 0.48206 0.2446 0.96811 0.0
H160 H 0.27344 0.02043 0.34969 0.0
H161 H 0.27932 0.02886 0.63527 0.0
H162 H 0.2504 0.11937 0.48416 0.0
H163 H 0.28582 0.97209 0.6336 0.0
C164 C 0.28547 0.96042 0.56731 0.0
C165 C 0.271 0.03585 0.41086 0.0
C166 C 0.26224 0.07206 0.40809 0.0
C167 C 0.27602 0.01932 0.4924 0.0
C168 C 0.27405 0.04013 0.57147 0.0
C169 C 0.26445 0.07619 0.56886 0.0
C170 C 0.25787 0.09157 0.48685 0.0
N171 N 0.28184 0.98186 0.49162 0.0
H172 H 0.4856 0.78554 0.16323 0.0
H173 H 0.49398 0.77067 0.88106 0.0
H174 H 0.395 0.75214 0.00169 0.0
H175 H 0.54916 0.75034 0.92457 0.0
C176 C 0.55734 0.76802 0.97955 0.0
C177 C 0.47366 0.77845 0.099 0.0
C178 C 0.43773 0.76867 0.09179 0.0
C179 C 0.49471 0.77725 0.02425 0.0
C180 C 0.47875 0.7696 0.94023 0.0
C181 C 0.44264 0.76111 0.93238 0.0
C182 C 0.42273 0.75952 0.00821 0.0
N183 N 0.53172 0.78354 0.03567 0.0
C184 C 0.1134 0.23803 0.19805 0.0
C185 C 0.14906 0.24964 0.21207 0.0
C186 C 0.13127 0.28125 0.34696 0.0
C187 C 0.09845 0.26307 0.34333 0.0
N188 N 0.06116 0.21814 0.2697 0.0
N189 N 0.19293 0.27396 0.31901 0.0
C190 C 0.09009 0.23984 0.26983 0.0
C191 C 0.1584 0.26926 0.29146 0.0
N192 N 0.10124 0.2264 0.11627 0.0
N193 N 0.13684 0.30956 0.40437 0.0
H194 H 0.21404 0.26125 0.28893 0.0
H195 H 0.2001 0.28615 0.37982 0.0
H196 H 0.11699 0.3198 0.44415 0.0
H197 H 0.15975 0.32501 0.40458 0.0
H198 H 0.0747 0.22027 0.10238 0.0
H199 H 0.11645 0.22726 0.06029 0.0
H200 H 0.05619 0.1985 0.22075 0.0
H201 H 0.04422 0.21719 0.32244 0.0
C202 C 0.29412 0.61476 0.71086 0.0
C203 C 0.26736 0.63718 0.67489 0.0
C204 C 0.22396 0.61065 0.77013 0.0
C205 C 0.2521 0.59421 0.81787 0.0
N206 N 0.31435 0.58093 0.83617 0.0
N207 N 0.20539 0.64086 0.63703 0.0
C208 C 0.28726 0.59603 0.7884 0.0
C209 C 0.23165 0.63058 0.6948 0.0
N210 N 0.32464 0.60862 0.66708 0.0
N211 N 0.19022 0.60856 0.79921 0.0
H212 H 0.21091 0.65267 0.57748 0.0
H213 H 0.1789 0.63406 0.64254 0.0
H214 H 0.18355 0.59323 0.85247 0.0
H215 H 0.16927 0.62352 0.77382 0.0
H216 H 0.34402 0.59078 0.68805 0.0
H217 H 0.32801 0.61625 0.6024 0.0
H218 H 0.34092 0.58554 0.82449 0.0
H219 H 0.3104 0.56582 0.89163 0.0
C220 C 0.85541 0.7582 0.32659 0.0
C221 C 0.86504 0.77715 0.25098 0.0
C222 C 0.92396 0.78744 0.31982 0.0
C223 C 0.91534 0.76557 0.39068 0.0
N224 N 0.87662 0.72039 0.44317 0.0
N225 N 0.91328 0.79796 0.16492 0.0
C226 C 0.88235 0.74754 0.3876 0.0
C227 C 0.90085 0.78805 0.24408 0.0
N228 N 0.82075 0.75271 0.34519 0.0
N229 N 0.95293 0.80915 0.32586 0.0
H230 H 0.89811 0.79578 0.10636 0.0
H231 H 0.93989 0.80363 0.15591 0.0
H232 H 0.96964 0.81129 0.38192 0.0
H233 H 0.95807 0.82785 0.2785 0.0
H234 H 0.81316 0.74154 0.40382 0.0
H235 H 0.79955 0.7633 0.30919 0.0
H236 H 0.85385 0.70471 0.4384 0.0
H237 H 0.89625 0.71112 0.48681 0.0
C238 C 0.77971 0.40364 0.7087 0.0
C239 C 0.74391 0.3958 0.68514 0.0
C240 C 0.72448 0.43618 0.80397 0.0
C241 C 0.76006 0.43936 0.83601 0.0
N242 N 0.8221 0.4272 0.81942 0.0
N243 N 0.68541 0.42223 0.67845 0.0
C244 C 0.78796 0.42388 0.78769 0.0
C245 C 0.71694 0.41718 0.72305 0.0
N246 N 0.80536 0.39434 0.65107 0.0
N247 N 0.69768 0.45034 0.85227 0.0
H248 H 0.68111 0.41474 0.61224 0.0
H249 H 0.66577 0.43927 0.70118 0.0
H250 H 0.70204 0.46587 0.90989 0.0
H251 H 0.67107 0.44459 0.83852 0.0
H252 H 0.83178 0.40189 0.65969 0.0
H253 H 0.79924 0.38242 0.5892 0.0
H254 H 0.84314 0.41298 0.79322 0.0
H255 H 0.82911 0.44278 0.87552 0.0
C256 C 0.65938 0.25869 0.19161 0.0
C257 C 0.64966 0.27767 0.27003 0.0
C258 C 0.59068 0.2875 0.20248 0.0
C259 C 0.59938 0.26547 0.12861 0.0
N260 N 0.6384 0.22048 0.06967 0.0
N261 N 0.60132 0.29859 0.35883 0.0
C262 C 0.63249 0.24771 0.12908 0.0
C263 C 0.61381 0.28848 0.27835 0.0
N264 N 0.69407 0.25347 0.17215 0.0
N265 N 0.56157 0.30898 0.19942 0.0
H266 H 0.61647 0.29671 0.41717 0.0
H267 H 0.57468 0.30416 0.36857 0.0
H268 H 0.54481 0.31077 0.14369 0.0
H269 H 0.55634 0.32782 0.24928 0.0
H270 H 0.70172 0.24224 0.11191 0.0
H271 H 0.71519 0.2644 0.20953 0.0
H272 H 0.66128 0.20499 0.07222 0.0
H273 H 0.61884 0.21096 0.02473 0.0
C274 C 0.23766 0.11394 0.7949 0.0
C275 C 0.24968 0.14963 0.78924 0.0
C276 C 0.28067 0.13182 0.65578 0.0
C277 C 0.26216 0.09906 0.65079 0.0
N278 N 0.21691 0.06209 0.71057 0.0
N279 N 0.27444 0.19373 0.69433 0.0
C280 C 0.23899 0.09078 0.71912 0.0
C281 C 0.26923 0.15903 0.71457 0.0
N282 N 0.22611 0.10157 0.8727 0.0
N283 N 0.30888 0.1372 0.60379 0.0
H284 H 0.26228 0.21503 0.72665 0.0
H285 H 0.28657 0.20099 0.63668 0.0
H286 H 0.31882 0.11726 0.56202 0.0
H287 H 0.32457 0.15999 0.61016 0.0
H288 H 0.21965 0.07495 0.88072 0.0
H289 H 0.22737 0.11659 0.93166 0.0
H290 H 0.19737 0.05722 0.75568 0.0
H291 H 0.21552 0.04537 0.6544 0.0
C292 C 0.35491 0.77573 0.22347 0.0
C293 C 0.36428 0.75681 0.30094 0.0
C294 C 0.42327 0.74625 0.24294 0.0
C295 C 0.41486 0.76798 0.17022 0.0
N296 N 0.37659 0.81334 0.11058 0.0
N297 N 0.41225 0.73611 0.39607 0.0
C298 C 0.38204 0.78625 0.1674 0.0
C299 C 0.40004 0.7459 0.31454 0.0
N300 N 0.32034 0.78123 0.19826 0.0
N301 N 0.45208 0.72436 0.2423 0.0
H302 H 0.39695 0.7384 0.45186 0.0
H303 H 0.43882 0.73039 0.40997 0.0
H304 H 0.46885 0.72198 0.18923 0.0
H305 H 0.45703 0.70577 0.29088 0.0
H306 H 0.31299 0.7924 0.13819 0.0
H307 H 0.29898 0.77061 0.23004 0.0
H308 H 0.35392 0.82914 0.11115 0.0
H309 H 0.39637 0.8224 0.07036 0.0
C310 C 0.7346 0.90437 0.83495 0.0
C311 C 0.77045 0.89671 0.85693 0.0
C312 C 0.78953 0.93638 0.74243 0.0
C313 C 0.75385 0.93929 0.71137 0.0
N314 N 0.69188 0.92702 0.72748 0.0
N315 N 0.82907 0.92289 0.86533 0.0
C316 C 0.72611 0.92407 0.7584 0.0
C317 C 0.79733 0.91779 0.82091 0.0
N318 N 0.70911 0.89525 0.89183 0.0
N319 N 0.81613 0.95046 0.69545 0.0
H320 H 0.83361 0.91556 0.93041 0.0
H321 H 0.84871 0.93974 0.8443 0.0
H322 H 0.81155 0.96573 0.63987 0.0
H323 H 0.8428 0.94491 0.70799 0.0
H324 H 0.68267 0.90272 0.88462 0.0
H325 H 0.71539 0.88353 0.95201 0.0
H326 H 0.67095 0.91293 0.75248 0.0
H327 H 0.68469 0.94208 0.673 0.0
C328 C 0.89779 0.82026 0.81679 0.0
C329 C 0.8786 0.79205 0.85295 0.0
C330 C 0.908 0.74879 0.75596 0.0
C331 C 0.92631 0.77708 0.71773 0.0
N332 N 0.94517 0.83816 0.72294 0.0
N333 N 0.87205 0.72946 0.87542 0.0
C334 C 0.92341 0.81235 0.75227 0.0
C335 C 0.88589 0.75624 0.82834 0.0
N336 N 0.89031 0.85464 0.8412 0.0
N337 N 0.91064 0.71507 0.72048 0.0
H338 H 0.85646 0.73441 0.92995 0.0
H339 H 0.87862 0.70277 0.86623 0.0
H340 H 0.92778 0.70839 0.66998 0.0
H341 H 0.89464 0.69406 0.73775 0.0
H342 H 0.89981 0.87665 0.80942 0.0
H343 H 0.87319 0.86128 0.89157 0.0
H344 H 0.94683 0.86377 0.75069 0.0
H345 H 0.96384 0.83309 0.67493 0.0
C346 C 0.71778 0.40457 0.25263 0.0
C347 C 0.74605 0.38593 0.29509 0.0
C348 C 0.78916 0.41886 0.21079 0.0
C349 C 0.76077 0.43452 0.16234 0.0
N350 N 0.69826 0.44189 0.13251 0.0
N351 N 0.80852 0.37542 0.31776 0.0
C352 C 0.72514 0.42757 0.18275 0.0
C353 C 0.78176 0.39324 0.27521 0.0
N354 N 0.68382 0.40045 0.27909 0.0
N355 N 0.82312 0.42892 0.19549 0.0
H356 H 0.80422 0.35893 0.37036 0.0
H357 H 0.83484 0.37602 0.30007 0.0
H358 H 0.82925 0.4472 0.14789 0.0
H359 H 0.84517 0.42114 0.23301 0.0
H360 H 0.66285 0.41657 0.25918 0.0
H361 H 0.67652 0.3824 0.32577 0.0
H362 H 0.67192 0.43404 0.13467 0.0
H363 H 0.7024 0.46056 0.08442 0.0
C364 C 0.12132 0.21753 0.77061 0.0
C365 C 0.14279 0.24609 0.80557 0.0
C366 C 0.11316 0.2869 0.70371 0.0
C367 C 0.09198 0.25834 0.66869 0.0
N368 N 0.06972 0.19894 0.68085 0.0
N369 N 0.15304 0.30914 0.82167 0.0
C370 C 0.09395 0.22449 0.70661 0.0
C371 C 0.13682 0.28119 0.777 0.0
N372 N 0.12835 0.18342 0.79435 0.0
N373 N 0.11146 0.3192 0.66484 0.0
H374 H 0.16988 0.30581 0.87668 0.0
H375 H 0.14732 0.33566 0.8098 0.0
H376 H 0.09301 0.3249 0.61442 0.0
H377 H 0.12935 0.33974 0.67937 0.0
H378 H 0.11681 0.16116 0.76269 0.0
H379 H 0.14755 0.17688 0.84185 0.0
H380 H 0.06725 0.1749 0.7123 0.0
H381 H 0.04985 0.20308 0.63277 0.0
C382 C 0.29553 0.62925 0.247 0.0
C383 C 0.26759 0.64827 0.28771 0.0
C384 C 0.22436 0.61939 0.18429 0.0
C385 C 0.2522 0.59983 0.14535 0.0
N386 N 0.31303 0.58057 0.14919 0.0
N387 N 0.20513 0.65566 0.30911 0.0
C388 C 0.28737 0.60291 0.18015 0.0
C389 C 0.23186 0.64165 0.26039 0.0
N390 N 0.33 0.63765 0.26858 0.0
N391 N 0.19094 0.61732 0.14712 0.0
H392 H 0.20982 0.67119 0.36655 0.0
H393 H 0.17856 0.64924 0.29777 0.0
H394 H 0.18424 0.60008 0.09384 0.0
H395 H 0.17036 0.63406 0.16558 0.0
H396 H 0.35136 0.6282 0.23313 0.0
H397 H 0.33744 0.65615 0.31815 0.0
H398 H 0.33818 0.57859 0.17879 0.0
H399 H 0.30839 0.56177 0.09804 0.0
C400 C 0.39506 0.71304 0.73987 0.0
C401 C 0.37557 0.74158 0.70282 0.0
C402 C 0.40544 0.78395 0.80649 0.0
C403 C 0.42423 0.75535 0.84497 0.0
N404 N 0.44326 0.69437 0.83826 0.0
N405 N 0.36843 0.80445 0.68432 0.0
C406 C 0.42118 0.72041 0.80793 0.0
C407 C 0.38278 0.77718 0.73102 0.0
N408 N 0.38739 0.67881 0.71297 0.0
N409 N 0.40825 0.81734 0.84439 0.0
H410 H 0.35226 0.80008 0.62797 0.0
H411 H 0.37502 0.83107 0.696 0.0
H412 H 0.42593 0.82362 0.89698 0.0
H413 H 0.39192 0.83844 0.82688 0.0
H414 H 0.39718 0.65658 0.74485 0.0
H415 H 0.3697 0.67246 0.66068 0.0
H416 H 0.44487 0.66907 0.80891 0.0
H417 H 0.46224 0.69899 0.88894 0.0
C418 C 0.73186 0.89099 0.26753 0.0
C419 C 0.76762 0.88503 0.2454 0.0
C420 C 0.7868 0.93169 0.35378 0.0
C421 C 0.75175 0.93414 0.3837 0.0
N422 N 0.69092 0.91505 0.37422 0.0
N423 N 0.82988 0.89709 0.27396 0.0
C424 C 0.7242 0.91358 0.34171 0.0
C425 C 0.79529 0.90498 0.2895 0.0
N426 N 0.70521 0.87603 0.21567 0.0
N427 N 0.81206 0.95493 0.38704 0.0
H428 H 0.83762 0.87809 0.2272 0.0
H429 H 0.8511 0.90737 0.31223 0.0
H430 H 0.80719 0.97409 0.4364 0.0
H431 H 0.837 0.95731 0.36071 0.0
H432 H 0.67855 0.88194 0.22302 0.0
H433 H 0.70994 0.86017 0.15962 0.0
H434 H 0.67067 0.89764 0.35371 0.0
H435 H 0.68407 0.93253 0.42572 0.0
C436 C 0.61636 0.31887 0.7102 0.0
C437 C 0.63586 0.29071 0.67042 0.0
C438 C 0.60663 0.24749 0.76132 0.0
C439 C 0.58799 0.27573 0.8031 0.0
N440 N 0.56858 0.3366 0.80573 0.0
N441 N 0.643 0.22809 0.63981 0.0
C442 C 0.59064 0.31091 0.77327 0.0
C443 C 0.62882 0.25491 0.69021 0.0
N444 N 0.62365 0.35327 0.69082 0.0
N445 N 0.60424 0.21386 0.7923 0.0
H446 H 0.65872 0.23299 0.58627 0.0
H447 H 0.63659 0.20137 0.64529 0.0
H448 H 0.58704 0.20718 0.84166 0.0
H449 H 0.62048 0.19295 0.77249 0.0
H450 H 0.61392 0.37525 0.72559 0.0
H451 H 0.64091 0.35998 0.64181 0.0
H452 H 0.56673 0.3621 0.78132 0.0
H453 H 0.54983 0.33148 0.85274 0.0
C454 C 0.28052 0.13514 0.22366 0.0
C455 C 0.24537 0.14164 0.19269 0.0
C456 C 0.22405 0.09321 0.28236 0.0
C457 C 0.25808 0.09094 0.32366 0.0
N458 N 0.31902 0.10964 0.33645 0.0
N459 N 0.1829 0.12789 0.19456 0.0
C460 C 0.28654 0.11162 0.29438 0.0
C461 C 0.21694 0.12054 0.22137 0.0
N462 N 0.30815 0.15077 0.18369 0.0
N463 N 0.1985 0.0693 0.3021 0.0
H464 H 0.17634 0.14698 0.14858 0.0
H465 H 0.1608 0.11669 0.22201 0.0
H466 H 0.20282 0.04943 0.34777 0.0
H467 H 0.17421 0.06705 0.26791 0.0
H468 H 0.33459 0.14473 0.19758 0.0
H469 H 0.30452 0.1673 0.13012 0.0
H470 H 0.33965 0.12719 0.3262 0.0
H471 H 0.32482 0.09135 0.38529 0.0
C472 C 0.20747 0.36344 0.04454 0.0
C473 C 0.23887 0.34751 0.01332 0.0
C474 C 0.26575 0.40645 -0.00041 0.0
C475 C 0.23521 0.42225 0.03667 0.0
N476 N 0.17833 0.41629 0.10235 0.0
N477 N 0.29864 0.3525 0.96515 0.0
C478 C 0.20648 0.40085 0.06159 0.0
C479 C 0.26815 0.36869 0.99132 0.0
N480 N 0.17823 0.34281 0.05529 0.0
N481 N 0.29263 0.42757 0.97322 0.0
H482 H 0.30069 0.32511 0.95415 0.0
H483 H 0.32252 0.36567 0.95826 0.0
H484 H 0.29363 0.45493 0.98599 0.0
H485 H 0.31351 0.41842 0.93571 0.0
H486 H 0.15331 0.35294 0.06884 0.0
H487 H 0.17805 0.31536 0.0435 0.0
H488 H 0.15868 0.402 0.13216 0.0
H489 H 0.17546 0.44372 0.11111 0.0
C490 C 0.15059 0.766 0.43806 0.0
C491 C 0.16832 0.74472 0.50203 0.0
C492 C 0.11104 0.72082 0.54436 0.0
C493 C 0.09328 0.74326 0.48392 0.0
N494 N 0.09549 0.79265 0.38651 0.0
N495 N 0.1638 0.71012 0.63352 0.0
C496 C 0.11288 0.76725 0.434 0.0
C497 C 0.14809 0.72483 0.56084 0.0
N498 N 0.16971 0.78573 0.38221 0.0
N499 N 0.09301 0.69412 0.58241 0.0
H500 H 0.19072 0.71189 0.64892 0.0
H501 H 0.14949 0.69897 0.68339 0.0
H502 H 0.06618 0.68918 0.56934 0.0
H503 H 0.10544 0.67449 0.6193 0.0
H504 H 0.15875 0.79726 0.32594 0.0
H505 H 0.19688 0.7898 0.39022 0.0
H506 H 0.10817 0.81346 0.35675 0.0
H507 H 0.068 0.79507 0.38331 0.0
C508 C 0.80818 0.66897 0.02932 0.0
C509 C 0.78004 0.68744 0.98641 0.0
C510 C 0.75771 0.63118 0.9193 0.0
C511 C 0.78429 0.61247 0.96737 0.0
N512 N 0.83281 0.61258 0.07499 0.0
N513 N 0.72502 0.68614 0.90124 0.0
C514 C 0.80879 0.63109 0.02492 0.0
C515 C 0.75399 0.66854 0.93414 0.0
N516 N 0.83519 0.68775 0.07099 0.0
N517 N 0.73612 0.61323 0.85883 0.0
H518 H 0.7216 0.7135 0.90975 0.0
H519 H 0.70305 0.67345 0.87139 0.0
H520 H 0.73664 0.58566 0.84944 0.0
H521 H 0.71917 0.62575 0.81398 0.0
H522 H 0.8584 0.67625 0.09552 0.0
H523 H 0.83586 0.71542 0.07441 0.0
H524 H 0.84844 0.62414 0.126 0.0
H525 H 0.83574 0.58507 0.06933 0.0
C526 C 0.86232 0.26636 0.44728 0.0
C527 C 0.84443 0.28581 0.51462 0.0
C528 C 0.90097 0.29245 0.59968 0.0
C529 C 0.91903 0.27622 0.52845 0.0
N530 N 0.9177 0.25111 0.3796 0.0
N531 N 0.84799 0.32129 0.65065 0.0
C532 C 0.9 0.26469 0.45033 0.0
C533 C 0.86412 0.29982 0.5898 0.0
N534 N 0.84339 0.24675 0.38446 0.0
N535 N 0.91899 0.30058 0.67762 0.0
H536 H 0.82111 0.32682 0.64779 0.0
H537 H 0.86162 0.336 0.70026 0.0
H538 H 0.94637 0.29805 0.68593 0.0
H539 H 0.90662 0.30777 0.73595 0.0
H540 H 0.85492 0.229 0.33982 0.0
H541 H 0.81592 0.24478 0.38274 0.0
H542 H 0.90576 0.24689 0.31711 0.0
H543 H 0.94479 0.24607 0.38131 0.0
C544 C 0.70827 0.16914 0.4631 0.0
C545 C 0.73527 0.18698 0.51447 0.0
C546 C 0.76134 0.12951 0.55415 0.0
C547 C 0.73627 0.11189 0.49589 0.0
N548 N 0.68764 0.11451 0.38905 0.0
N549 N 0.78908 0.18517 0.60401 0.0
C550 C 0.71023 0.13163 0.44871 0.0
C551 C 0.76203 0.16742 0.55958 0.0
N552 N 0.68018 0.18807 0.43014 0.0
N553 N 0.7849 0.11004 0.60324 0.0
H554 H 0.78985 0.21278 0.61179 0.0
H555 H 0.81182 0.17295 0.62902 0.0
H556 H 0.78756 0.08257 0.59557 0.0
H557 H 0.80078 0.12077 0.65487 0.0
H558 H 0.65775 0.17652 0.39961 0.0
H559 H 0.67778 0.21547 0.44037 0.0
H560 H 0.67103 0.12761 0.34454 0.0
H561 H 0.68686 0.08692 0.38016 0.0
C562 C 0.36644 0.26878 0.07231 0.0
C563 C 0.34727 0.2409 0.0272 0.0
C564 C 0.40305 0.21236 0.98549 0.0
C565 C 0.42217 0.23904 0.03535 0.0
N566 N 0.42268 0.29062 0.13412 0.0
N567 N 0.34655 0.18319 0.95372 0.0
C568 C 0.404 0.26661 0.08128 0.0
C569 C 0.36537 0.21193 0.9869 0.0
N570 N 0.34877 0.29788 0.10442 0.0
N571 N 0.4209 0.18729 0.93724 0.0
H572 H 0.31905 0.1817 0.95525 0.0
H573 H 0.35808 0.15957 0.93169 0.0
H574 H 0.44842 0.18522 0.93914 0.0
H575 H 0.40865 0.1698 0.89118 0.0
H576 H 0.3612 0.32111 0.1281 0.0
H577 H 0.32128 0.29988 0.10198 0.0
H578 H 0.41098 0.30856 0.17798 0.0
H579 H 0.45026 0.29144 0.13818 0.0
C580 C 0.25027 0.86585 0.58164 0.0
C581 C 0.27816 0.84606 0.54358 0.0
C582 C 0.30964 0.90141 0.51437 0.0
C583 C 0.28285 0.92105 0.55771 0.0
N584 N 0.22951 0.92245 0.64101 0.0
N585 N 0.3362 0.84384 0.48261 0.0
C586 C 0.25377 0.90336 0.59412 0.0
C587 C 0.30832 0.86354 0.51207 0.0
N588 N 0.21987 0.84889 0.60296 0.0
N589 N 0.33644 0.91898 0.47569 0.0
H590 H 0.33602 0.81615 0.47934 0.0
H591 H 0.36057 0.85451 0.46761 0.0
H592 H 0.33987 0.94645 0.48162 0.0
H593 H 0.35432 0.90674 0.43377 0.0
H594 H 0.19688 0.86204 0.62108 0.0
H595 H 0.21662 0.82143 0.59641 0.0
H596 H 0.21031 0.91088 0.67856 0.0
H597 H 0.22967 0.95013 0.64683 0.0
C598 C 0.65237 0.76603 0.07181 0.0
C599 C 0.67026 0.78566 0.00777 0.0
C600 C 0.61375 0.7924 0.9239 0.0
C601 C 0.59571 0.77605 0.99245 0.0
N602 N 0.59696 0.75113 0.13754 0.0
N603 N 0.6666 0.82179 0.87837 0.0
C604 C 0.6147 0.76451 0.06873 0.0
C605 C 0.65055 0.79992 0.93517 0.0
N606 N 0.67126 0.74615 0.13106 0.0
N607 N 0.59576 0.80051 0.84719 0.0
H608 H 0.69342 0.82764 0.88267 0.0
H609 H 0.6529 0.83656 0.83131 0.0
H610 H 0.56841 0.7977 0.83827 0.0
H611 H 0.60816 0.80791 0.79017 0.0
H612 H 0.65965 0.72838 0.17277 0.0
H613 H 0.69871 0.74397 0.13201 0.0
H614 H 0.60897 0.7467 0.19918 0.0
H615 H 0.56975 0.74667 0.1355 0.0
loop_
_geom_bond_atom_site_label_1
_geom_bond_atom_site_label_2
_geom_bond_distance
_geom_bond_site_symmetry_2
_ccdc_geom_bond_type
Fe0 O2 1.918 . S
Fe0 O5 1.997 . S
Fe0 O6 2.002 . S
Fe0 O11 1.976 . S
Fe0 O14 1.996 . S
Fe1 O2 1.918 1_556 S
Fe1 O9 1.997 . S
Fe1 O12 1.996 . S
Fe1 O16 1.976 . S
Fe1 O19 2.002 . S
O2 Fe0 1.918 . S
O2 Fe1 1.918 1_554 S
O2 Fe3 1.918 1_554 S
Fe3 O2 1.918 1_556 S
Fe3 O4 1.997 1_556 S
Fe3 O13 1.971 1_556 S
Fe3 O17 2.001 . S
Fe3 O20 2.002 . S
O4 Fe3 1.997 1_554 S
O4 C21 1.295 . S
O5 Fe0 1.997 . S
O5 C21 1.235 . S
O6 Fe0 2.002 . S
O6 C7 1.295 . S
C7 O6 1.295 . S
C7 O9 1.235 1_554 S
C8 O13 1.287 . S
C8 O14 1.255 . S
O9 Fe1 1.997 . S
O9 C7 1.235 1_556 S
C10 O16 1.287 . S
C10 O17 1.255 . S
O11 Fe0 1.976 . S
O11 C18 1.287 . S
O12 Fe1 1.996 . S
O12 C18 1.255 1_556 S
O13 Fe3 1.971 1_554 S
O13 C8 1.287 . S
O14 Fe0 1.996 . S
O14 C8 1.255 . S
C15 O19 1.295 . S
C15 O20 1.235 . S
O16 Fe1 1.976 . S
O16 C10 1.287 . S
O17 Fe3 2.001 . S
O17 C10 1.255 . S
C18 O11 1.287 . S
C18 O12 1.255 1_554 S
O19 Fe1 2.002 . S
O19 C15 1.295 . S
O20 Fe3 2.002 . S
O20 C15 1.235 . S
C21 O4 1.295 . S
C21 O5 1.235 . S
Fe22 O24 1.918 . S
Fe22 O27 1.997 . S
Fe22 O28 2.002 . S
Fe22 O33 1.976 . S
Fe22 O36 1.996 . S
Fe23 O24 1.918 . S
Fe23 O31 1.997 . S
Fe23 O34 1.996 . S
Fe23 O38 1.976 . S
Fe23 O41 2.002 . S
O24 Fe22 1.918 . S
O24 Fe23 1.918 . S
O24 Fe25 1.918 . S
Fe25 O24 1.918 . S
Fe25 O26 2.002 . S
Fe25 O35 1.976 . S
Fe25 O39 1.996 . S
Fe25 O42 1.997 . S
O26 Fe25 2.002 . S
O26 C43 1.295 . S
O27 Fe22 1.997 . S
O27 C43 1.235 . S
O28 Fe22 2.002 . S
O28 C29 1.295 . S
C29 O28 1.295 . S
C29 O31 1.235 . S
C30 O35 1.287 . S
C30 O36 1.255 . S
O31 Fe23 1.997 . S
O31 C29 1.235 . S
C32 O38 1.287 . S
C32 O39 1.255 . S
O33 Fe22 1.976 . S
O33 C40 1.287 . S
O34 Fe23 1.996 . S
O34 C40 1.255 . S
O35 Fe25 1.976 . S
O35 C30 1.287 . S
O36 Fe22 1.996 . S
O36 C30 1.255 . S
C37 O41 1.295 . S
C37 O42 1.235 . S
O38 Fe23 1.976 . S
O38 C32 1.287 . S
O39 Fe25 1.996 . S
O39 C32 1.255 . S
C40 O33 1.287 . S
C40 O34 1.255 . S
O41 Fe23 2.002 . S
O41 C37 1.295 . S
O42 Fe25 1.997 . S
O42 C37 1.235 . S
C43 O26 1.295 . S
C43 O27 1.235 . S
Fe44 O46 1.918 1_556 S
Fe44 O49 1.997 . S
Fe44 O50 2.002 . S
Fe44 O55 1.976 . S
Fe44 O58 1.996 . S
Fe45 O46 1.918 . S
Fe45 O53 1.997 . S
Fe45 O56 1.996 . S
Fe45 O60 1.976 . S
Fe45 O63 2.002 . S
O46 Fe44 1.918 1_554 S
O46 Fe45 1.918 . S
O46 Fe47 1.918 . S
Fe47 O46 1.918 . S
Fe47 O48 2.002 1_554 S
Fe47 O57 1.976 1_554 S
Fe47 O61 1.996 . S
Fe47 O64 1.997 . S
O48 Fe47 2.002 1_556 S
O48 C65 1.295 . S
O49 Fe44 1.997 . S
O49 C65 1.235 . S
O50 Fe44 2.002 . S
O50 C51 1.295 1_556 S
C51 O50 1.295 1_554 S
C51 O53 1.235 . S
C52 O57 1.287 . S
C52 O58 1.255 . S
O53 Fe45 1.997 . S
O53 C51 1.235 . S
C54 O60 1.287 . S
C54 O61 1.255 . S
O55 Fe44 1.976 . S
O55 C62 1.287 1_556 S
O56 Fe45 1.996 . S
O56 C62 1.255 . S
O57 Fe47 1.976 1_556 S
O57 C52 1.287 . S
O58 Fe44 1.996 . S
O58 C52 1.255 . S
C59 O63 1.295 . S
C59 O64 1.235 . S
O60 Fe45 1.976 . S
O60 C54 1.287 . S
O61 Fe47 1.996 . S
O61 C54 1.255 . S
C62 O55 1.287 1_554 S
C62 O56 1.255 . S
O63 Fe45 2.002 . S
O63 C59 1.295 . S
O64 Fe47 1.997 . S
O64 C59 1.235 . S
C65 O48 1.295 . S
C65 O49 1.235 . S
Fe66 O68 1.918 . S
Fe66 O71 1.997 . S
Fe66 O72 2.002 . S
Fe66 O77 1.976 . S
Fe66 O80 1.996 . S
Fe67 O68 1.918 . S
Fe67 O75 1.997 . S
Fe67 O78 1.996 . S
Fe67 O82 1.976 . S
Fe67 O85 2.002 . S
O68 Fe66 1.918 . S
O68 Fe67 1.918 . S
O68 Fe69 1.918 . S
Fe69 O68 1.918 . S
Fe69 O70 2.002 . S
Fe69 O79 1.976 . S
Fe69 O83 1.996 . S
Fe69 O86 1.997 . S
O70 Fe69 2.002 . S
O70 C87 1.295 . S
O71 Fe66 1.997 . S
O71 C87 1.235 . S
O72 Fe66 2.002 . S
O72 C73 1.295 . S
C73 O72 1.295 . S
C73 O75 1.235 . S
C74 O79 1.287 . S
C74 O80 1.255 . S
O75 Fe67 1.997 . S
O75 C73 1.235 . S
C76 O82 1.287 . S
C76 O83 1.255 . S
O77 Fe66 1.976 . S
O77 C84 1.287 . S
O78 Fe67 1.996 . S
O78 C84 1.255 . S
O79 Fe69 1.976 . S
O79 C74 1.287 . S
O80 Fe66 1.996 . S
O80 C74 1.255 . S
C81 O85 1.295 . S
C81 O86 1.235 . S
O82 Fe67 1.976 . S
O82 C76 1.287 . S
O83 Fe69 1.996 . S
O83 C76 1.255 . S
C84 O77 1.287 . S
C84 O78 1.255 . S
O85 Fe67 2.002 . S
O85 C81 1.295 . S
O86 Fe69 1.997 . S
O86 C81 1.235 . S
C87 O70 1.295 . S
C87 O71 1.235 . S
H88 C93 0.930 . S
H89 C96 0.930 . S
H90 C98 0.930 . S
H91 C92 1.016 . S
C92 H91 1.016 . S
C92 N99 1.286 1_554 S
C93 H88 0.930 . S
C93 C94 1.397 . S
C93 C95 1.361 . S
C94 C93 1.397 . S
C94 C98 1.390 1_556 S
C95 C93 1.361 . S
C95 C96 1.393 1_556 S
C95 N99 1.413 . S
C96 H89 0.930 . S
C96 C95 1.393 1_554 S
C96 C97 1.399 . S
C97 C96 1.399 . S
C97 C98 1.381 . S
C98 H90 0.930 . S
C98 C94 1.390 1_554 S
C98 C97 1.381 . S
N99 C92 1.286 1_556 S
N99 C95 1.413 . S
H100 C105 0.930 . S
H101 C108 0.930 . S
H102 C110 0.930 . S
H103 C104 1.016 . S
C104 H103 1.016 . S
C104 N111 1.286 . S
C105 H100 0.930 . S
C105 C106 1.397 . S
C105 C107 1.361 1_655 S
C106 C105 1.397 . S
C106 C110 1.390 . S
C107 C105 1.361 1_455 S
C107 C108 1.393 1_455 S
C107 N111 1.413 . S
C108 H101 0.930 . S
C108 C107 1.393 1_655 S
C108 C109 1.399 . S
C109 C108 1.399 . S
C109 C110 1.381 . S
C110 H102 0.930 . S
C110 C106 1.390 . S
C110 C109 1.381 . S
N111 C104 1.286 . S
N111 C107 1.413 . S
H112 C117 0.930 . S
H113 C120 0.930 . S
H114 C122 0.930 . S
H115 C116 1.016 . S
C116 H115 1.016 . S
C116 N123 1.286 1_556 S
C117 H112 0.930 . S
C117 C118 1.397 . S
C117 C119 1.361 . S
C118 C117 1.397 . S
C118 C122 1.390 . S
C119 C117 1.361 . S
C119 C120 1.393 1_554 S
C119 N123 1.413 . S
C120 H113 0.930 . S
C120 C119 1.393 1_556 S
C120 C121 1.399 . S
C121 C120 1.399 . S
C121 C122 1.381 1_556 S
C122 H114 0.930 . S
C122 C118 1.390 . S
C122 C121 1.381 1_554 S
N123 C116 1.286 1_554 S
N123 C119 1.413 . S
H124 C129 0.930 . S
H125 C132 0.942 . S
H126 C134 0.930 . S
H127 C128 1.016 . S
C128 H127 1.016 . S
C128 N135 1.286 . S
C129 H124 0.930 . S
C129 C130 1.397 . S
C129 C131 1.361 1_455 S
C130 C129 1.397 . S
C130 C134 1.390 . S
C131 C129 1.361 1_655 S
C131 C132 1.393 1_655 S
C131 N135 1.413 . S
C132 H125 0.942 . S
C132 C131 1.393 1_455 S
C132 C133 1.399 . S
C133 C132 1.399 . S
C133 C134 1.381 . S
C134 H126 0.930 . S
C134 C130 1.390 . S
C134 C133 1.381 . S
N135 C128 1.286 . S
N135 C131 1.413 . S
H136 C141 0.930 . S
H137 C144 0.930 1_545 S
H138 C146 0.930 . S
H139 C140 1.016 . S
C140 H139 1.016 . S
C140 N147 1.286 . S
C141 H136 0.930 . S
C141 C142 1.397 . S
C141 C143 1.361 1_565 S
C142 C141 1.397 . S
C142 C146 1.390 . S
C143 C141 1.361 1_545 S
C143 C144 1.393 1_545 S
C143 N147 1.413 . S
C144 H137 0.930 1_565 S
C144 C143 1.393 1_565 S
C144 C145 1.399 . S
C145 C144 1.399 . S
C145 C146 1.381 . S
C146 H138 0.930 . S
C146 C142 1.390 . S
C146 C145 1.381 . S
N147 C140 1.286 . S
N147 C143 1.413 . S
H148 C153 0.930 . S
H149 C156 0.930 . S
H150 C158 0.930 . S
H151 C152 1.016 . S
C152 H151 1.016 . S
C152 N159 1.286 1_554 S
C153 H148 0.930 . S
C153 C154 1.397 . S
C153 C155 1.361 . S
C154 C153 1.397 . S
C154 C158 1.390 1_556 S
C155 C153 1.361 . S
C155 C156 1.393 1_556 S
C155 N159 1.413 . S
C156 H149 0.930 . S
C156 C155 1.393 1_554 S
C156 C157 1.399 . S
C157 C156 1.399 . S
C157 C158 1.381 . S
C158 H150 0.930 . S
C158 C154 1.390 1_554 S
C158 C157 1.381 . S
N159 C152 1.286 1_556 S
N159 C155 1.413 . S
H160 C165 0.930 . S
H161 C168 0.930 1_565 S
H162 C170 0.930 . S
H163 C164 1.016 . S
C164 H163 1.016 . S
C164 N171 1.286 . S
C165 H160 0.930 . S
C165 C166 1.397 . S
C165 C167 1.361 1_545 S
C166 C165 1.397 . S
C166 C170 1.390 . S
C167 C165 1.361 1_565 S
C167 C168 1.393 1_565 S
C167 N171 1.413 . S
C168 H161 0.930 1_545 S
C168 C167 1.393 1_545 S
C168 C169 1.399 . S
C169 C168 1.399 . S
C169 C170 1.381 . S
C170 H162 0.930 . S
C170 C166 1.390 . S
C170 C169 1.381 . S
N171 C164 1.286 . S
N171 C167 1.413 . S
H172 C177 0.930 . S
H173 C180 0.930 . S
H174 C182 0.930 . S
H175 C176 1.016 . S
C176 H175 1.016 . S
C176 N183 1.286 1_556 S
C177 H172 0.930 . S
C177 C178 1.397 . S
C177 C179 1.361 . S
C178 C177 1.397 . S
C178 C182 1.390 . S
C179 C177 1.361 . S
C179 C180 1.393 1_554 S
C179 N183 1.413 . S
C180 H173 0.930 . S
C180 C179 1.393 1_556 S
C180 C181 1.399 . S
C181 C180 1.399 . S
C181 C182 1.381 1_556 S
C182 H174 0.930 . S
C182 C178 1.390 . S
C182 C181 1.381 1_554 S
N183 C176 1.286 1_554 S
N183 C179 1.413 . S
C184 C185 1.363 . S
C184 C190 1.379 . S
C184 N192 1.356 . S
C185 C184 1.363 . S
C185 C191 1.363 . S
C186 C187 1.363 . S
C186 C191 1.379 . S
C186 N193 1.356 . S
C187 C186 1.363 . S
C187 C190 1.363 . S
N188 C190 1.356 . S
N188 H200 0.984 . S
N188 H201 0.985 . S
N189 C191 1.356 . S
N189 H194 0.984 . S
N189 H195 0.985 . S
C190 C184 1.379 . S
C190 C187 1.363 . S
C190 N188 1.356 . S
C191 C185 1.363 . S
C191 C186 1.379 . S
C191 N189 1.356 . S
N192 C184 1.356 . S
N192 H198 0.984 . S
N192 H199 0.984 . S
N193 C186 1.356 . S
N193 H196 0.984 . S
N193 H197 0.985 . S
H194 N189 0.984 . S
H195 N189 0.985 . S
H196 N193 0.984 . S
H197 N193 0.985 . S
H198 N192 0.984 . S
H199 N192 0.984 . S
H200 N188 0.984 . S
H201 N188 0.985 . S
C202 C203 1.363 . S
C202 C208 1.379 . S
C202 N210 1.356 . S
C203 C202 1.363 . S
C203 C209 1.363 . S
C204 C205 1.363 . S
C204 C209 1.379 . S
C204 N211 1.356 . S
C205 C204 1.363 . S
C205 C208 1.363 . S
N206 C208 1.356 . S
N206 H218 0.984 . S
N206 H219 0.985 . S
N207 C209 1.356 . S
N207 H212 0.984 . S
N207 H213 0.985 . S
C208 C202 1.379 . S
C208 C205 1.363 . S
C208 N206 1.356 . S
C209 C203 1.363 . S
C209 C204 1.379 . S
C209 N207 1.356 . S
N210 C202 1.356 . S
N210 H216 0.984 . S
N210 H217 0.984 . S
N211 C204 1.356 . S
N211 H214 0.984 . S
N211 H215 0.985 . S
H212 N207 0.984 . S
H213 N207 0.985 . S
H214 N211 0.984 . S
H215 N211 0.985 . S
H216 N210 0.984 . S
H217 N210 0.984 . S
H218 N206 0.984 . S
H219 N206 0.985 . S
C220 C221 1.363 . S
C220 C226 1.379 . S
C220 N228 1.356 . S
C221 C220 1.363 . S
C221 C227 1.363 . S
C222 C223 1.363 . S
C222 C227 1.379 . S
C222 N229 1.356 . S
C223 C222 1.363 . S
C223 C226 1.363 . S
N224 C226 1.356 . S
N224 H236 0.984 . S
N224 H237 0.985 . S
N225 C227 1.356 . S
N225 H230 0.984 . S
N225 H231 0.985 . S
C226 C220 1.379 . S
C226 C223 1.363 . S
C226 N224 1.356 . S
C227 C221 1.363 . S
C227 C222 1.379 . S
C227 N225 1.356 . S
N228 C220 1.356 . S
N228 H234 0.984 . S
N228 H235 0.984 . S
N229 C222 1.356 . S
N229 H232 0.984 . S
N229 H233 0.985 . S
H230 N225 0.984 . S
H231 N225 0.985 . S
H232 N229 0.984 . S
H233 N229 0.985 . S
H234 N228 0.984 . S
H235 N228 0.984 . S
H236 N224 0.984 . S
H237 N224 0.985 . S
C238 C239 1.363 . S
C238 C244 1.379 . S
C238 N246 1.356 . S
C239 C238 1.363 . S
C239 C245 1.363 . S
C240 C241 1.363 . S
C240 C245 1.379 . S
C240 N247 1.356 . S
C241 C240 1.363 . S
C241 C244 1.363 . S
N242 C244 1.356 . S
N242 H254 0.984 . S
N242 H255 0.985 . S
N243 C245 1.356 . S
N243 H248 0.984 . S
N243 H249 0.985 . S
C244 C238 1.379 . S
C244 C241 1.363 . S
C244 N242 1.356 . S
C245 C239 1.363 . S
C245 C240 1.379 . S
C245 N243 1.356 . S
N246 C238 1.356 . S
N246 H252 0.984 . S
N246 H253 0.984 . S
N247 C240 1.356 . S
N247 H250 0.984 . S
N247 H251 0.985 . S
H248 N243 0.984 . S
H249 N243 0.985 . S
H250 N247 0.984 . S
H251 N247 0.985 . S
H252 N246 0.984 . S
H253 N246 0.984 . S
H254 N242 0.984 . S
H255 N242 0.985 . S
C256 C257 1.363 . S
C256 C262 1.379 . S
C256 N264 1.356 . S
C257 C256 1.363 . S
C257 C263 1.363 . S
C258 C259 1.363 . S
C258 C263 1.379 . S
C258 N265 1.356 . S
C259 C258 1.363 . S
C259 C262 1.363 . S
N260 C262 1.356 . S
N260 H272 0.984 . S
N260 H273 0.985 . S
N261 C263 1.356 . S
N261 H266 0.984 . S
N261 H267 0.985 . S
C262 C256 1.379 . S
C262 C259 1.363 . S
C262 N260 1.356 . S
C263 C257 1.363 . S
C263 C258 1.379 . S
C263 N261 1.356 . S
N264 C256 1.356 . S
N264 H270 0.984 . S
N264 H271 0.984 . S
N265 C258 1.356 . S
N265 H268 0.984 . S
N265 H269 0.985 . S
H266 N261 0.984 . S
H267 N261 0.985 . S
H268 N265 0.984 . S
H269 N265 0.985 . S
H270 N264 0.984 . S
H271 N264 0.984 . S
H272 N260 0.984 . S
H273 N260 0.985 . S
C274 C275 1.363 . S
C274 C280 1.379 . S
C274 N282 1.356 . S
C275 C274 1.363 . S
C275 C281 1.363 . S
C276 C277 1.363 . S
C276 C281 1.379 . S
C276 N283 1.356 . S
C277 C276 1.363 . S
C277 C280 1.363 . S
N278 C280 1.356 . S
N278 H290 0.984 . S
N278 H291 0.985 . S
N279 C281 1.356 . S
N279 H284 0.984 . S
N279 H285 0.985 . S
C280 C274 1.379 . S
C280 C277 1.363 . S
C280 N278 1.356 . S
C281 C275 1.363 . S
C281 C276 1.379 . S
C281 N279 1.356 . S
N282 C274 1.356 . S
N282 H288 0.984 . S
N282 H289 0.984 . S
N283 C276 1.356 . S
N283 H286 0.984 . S
N283 H287 0.985 . S
H284 N279 0.984 . S
H285 N279 0.985 . S
H286 N283 0.984 . S
H287 N283 0.985 . S
H288 N282 0.984 . S
H289 N282 0.984 . S
H290 N278 0.984 . S
H291 N278 0.985 . S
C292 C293 1.363 . S
C292 C298 1.379 . S
C292 N300 1.356 . S
C293 C292 1.363 . S
C293 C299 1.363 . S
C294 C295 1.363 . S
C294 C299 1.379 . S
C294 N301 1.356 . S
C295 C294 1.363 . S
C295 C298 1.363 . S
N296 C298 1.356 . S
N296 H308 0.984 . S
N296 H309 0.985 . S
N297 C299 1.356 . S
N297 H302 0.984 . S
N297 H303 0.985 . S
C298 C292 1.379 . S
C298 C295 1.363 . S
C298 N296 1.356 . S
C299 C293 1.363 . S
C299 C294 1.379 . S
C299 N297 1.356 . S
N300 C292 1.356 . S
N300 H306 0.984 . S
N300 H307 0.984 . S
N301 C294 1.356 . S
N301 H304 0.984 . S
N301 H305 0.985 . S
H302 N297 0.984 . S
H303 N297 0.985 . S
H304 N301 0.984 . S
H305 N301 0.985 . S
H306 N300 0.984 . S
H307 N300 0.984 . S
H308 N296 0.984 . S
H309 N296 0.985 . S
C310 C311 1.363 . S
C310 C316 1.379 . S
C310 N318 1.356 . S
C311 C310 1.363 . S
C311 C317 1.363 . S
C312 C313 1.363 . S
C312 C317 1.379 . S
C312 N319 1.356 . S
C313 C312 1.363 . S
C313 C316 1.363 . S
N314 C316 1.356 . S
N314 H326 0.984 . S
N314 H327 0.985 . S
N315 C317 1.356 . S
N315 H320 0.984 . S
N315 H321 0.985 . S
C316 C310 1.379 . S
C316 C313 1.363 . S
C316 N314 1.356 . S
C317 C311 1.363 . S
C317 C312 1.379 . S
C317 N315 1.356 . S
N318 C310 1.356 . S
N318 H324 0.984 . S
N318 H325 0.984 . S
N319 C312 1.356 . S
N319 H322 0.984 . S
N319 H323 0.985 . S
H320 N315 0.984 . S
H321 N315 0.985 . S
H322 N319 0.984 . S
H323 N319 0.985 . S
H324 N318 0.984 . S
H325 N318 0.984 . S
H326 N314 0.984 . S
H327 N314 0.985 . S
C328 C329 1.363 . S
C328 C334 1.379 . S
C328 N336 1.356 . S
C329 C328 1.363 . S
C329 C335 1.363 . S
C330 C331 1.363 . S
C330 C335 1.379 . S
C330 N337 1.356 . S
C331 C330 1.363 . S
C331 C334 1.363 . S
N332 C334 1.356 . S
N332 H344 0.984 . S
N332 H345 0.985 . S
N333 C335 1.356 . S
N333 H338 0.984 . S
N333 H339 0.985 . S
C334 C328 1.379 . S
C334 C331 1.363 . S
C334 N332 1.356 . S
C335 C329 1.363 . S
C335 C330 1.379 . S
C335 N333 1.356 . S
N336 C328 1.356 . S
N336 H342 0.984 . S
N336 H343 0.984 . S
N337 C330 1.356 . S
N337 H340 0.984 . S
N337 H341 0.985 . S
H338 N333 0.984 . S
H339 N333 0.985 . S
H340 N337 0.984 . S
H341 N337 0.985 . S
H342 N336 0.984 . S
H343 N336 0.984 . S
H344 N332 0.984 . S
H345 N332 0.985 . S
C346 C347 1.363 . S
C346 C352 1.379 . S
C346 N354 1.356 . S
C347 C346 1.363 . S
C347 C353 1.363 . S
C348 C349 1.363 . S
C348 C353 1.379 . S
C348 N355 1.356 . S
C349 C348 1.363 . S
C349 C352 1.363 . S
N350 C352 1.356 . S
N350 H362 0.984 . S
N350 H363 0.985 . S
N351 C353 1.356 . S
N351 H356 0.984 . S
N351 H357 0.985 . S
C352 C346 1.379 . S
C352 C349 1.363 . S
C352 N350 1.356 . S
C353 C347 1.363 . S
C353 C348 1.379 . S
C353 N351 1.356 . S
N354 C346 1.356 . S
N354 H360 0.984 . S
N354 H361 0.984 . S
N355 C348 1.356 . S
N355 H358 0.984 . S
N355 H359 0.985 . S
H356 N351 0.984 . S
H357 N351 0.985 . S
H358 N355 0.984 . S
H359 N355 0.985 . S
H360 N354 0.984 . S
H361 N354 0.984 . S
H362 N350 0.984 . S
H363 N350 0.985 . S
C364 C365 1.363 . S
C364 C370 1.379 . S
C364 N372 1.356 . S
C365 C364 1.363 . S
C365 C371 1.363 . S
C366 C367 1.363 . S
C366 C371 1.379 . S
C366 N373 1.356 . S
C367 C366 1.363 . S
C367 C370 1.363 . S
N368 C370 1.356 . S
N368 H380 0.984 . S
N368 H381 0.985 . S
N369 C371 1.356 . S
N369 H374 0.984 . S
N369 H375 0.985 . S
C370 C364 1.379 . S
C370 C367 1.363 . S
C370 N368 1.356 . S
C371 C365 1.363 . S
C371 C366 1.379 . S
C371 N369 1.356 . S
N372 C364 1.356 . S
N372 H378 0.984 . S
N372 H379 0.984 . S
N373 C366 1.356 . S
N373 H376 0.984 . S
N373 H377 0.985 . S
H374 N369 0.984 . S
H375 N369 0.985 . S
H376 N373 0.984 . S
H377 N373 0.985 . S
H378 N372 0.984 . S
H379 N372 0.984 . S
H380 N368 0.984 . S
H381 N368 0.985 . S
C382 C383 1.363 . S
C382 C388 1.379 . S
C382 N390 1.356 . S
C383 C382 1.363 . S
C383 C389 1.363 . S
C384 C385 1.363 . S
C384 C389 1.379 . S
C384 N391 1.356 . S
C385 C384 1.363 . S
C385 C388 1.363 . S
N386 C388 1.356 . S
N386 H398 0.984 . S
N386 H399 0.985 . S
N387 C389 1.356 . S
N387 H392 0.984 . S
N387 H393 0.985 . S
C388 C382 1.379 . S
C388 C385 1.363 . S
C388 N386 1.356 . S
C389 C383 1.363 . S
C389 C384 1.379 . S
C389 N387 1.356 . S
N390 C382 1.356 . S
N390 H396 0.984 . S
N390 H397 0.984 . S
N391 C384 1.356 . S
N391 H394 0.984 . S
N391 H395 0.985 . S
H392 N387 0.984 . S
H393 N387 0.985 . S
H394 N391 0.984 . S
H395 N391 0.985 . S
H396 N390 0.984 . S
H397 N390 0.984 . S
H398 N386 0.984 . S
H399 N386 0.985 . S
C400 C401 1.363 . S
C400 C406 1.379 . S
C400 N408 1.356 . S
C401 C400 1.363 . S
C401 C407 1.363 . S
C402 C403 1.363 . S
C402 C407 1.379 . S
C402 N409 1.356 . S
C403 C402 1.363 . S
C403 C406 1.363 . S
N404 C406 1.356 . S
N404 H416 0.984 . S
N404 H417 0.985 . S
N405 C407 1.356 . S
N405 H410 0.984 . S
N405 H411 0.985 . S
C406 C400 1.379 . S
C406 C403 1.363 . S
C406 N404 1.356 . S
C407 C401 1.363 . S
C407 C402 1.379 . S
C407 N405 1.356 . S
N408 C400 1.356 . S
N408 H414 0.984 . S
N408 H415 0.984 . S
N409 C402 1.356 . S
N409 H412 0.984 . S
N409 H413 0.985 . S
H410 N405 0.984 . S
H411 N405 0.985 . S
H412 N409 0.984 . S
H413 N409 0.985 . S
H414 N408 0.984 . S
H415 N408 0.984 . S
H416 N404 0.984 . S
H417 N404 0.985 . S
C418 C419 1.363 . S
C418 C424 1.379 . S
C418 N426 1.356 . S
C419 C418 1.363 . S
C419 C425 1.363 . S
C420 C421 1.363 . S
C420 C425 1.379 . S
C420 N427 1.356 . S
C421 C420 1.363 . S
C421 C424 1.363 . S
N422 C424 1.356 . S
N422 H434 0.984 . S
N422 H435 0.985 . S
N423 C425 1.356 . S
N423 H428 0.984 . S
N423 H429 0.985 . S
C424 C418 1.379 . S
C424 C421 1.363 . S
C424 N422 1.356 . S
C425 C419 1.363 . S
C425 C420 1.379 . S
C425 N423 1.356 . S
N426 C418 1.356 . S
N426 H432 0.984 . S
N426 H433 0.984 . S
N427 C420 1.356 . S
N427 H430 0.984 . S
N427 H431 0.985 . S
H428 N423 0.984 . S
H429 N423 0.985 . S
H430 N427 0.984 . S
H431 N427 0.985 . S
H432 N426 0.984 . S
H433 N426 0.984 . S
H434 N422 0.984 . S
H435 N422 0.985 . S
C436 C437 1.363 . S
C436 C442 1.379 . S
C436 N444 1.356 . S
C437 C436 1.363 . S
C437 C443 1.363 . S
C438 C439 1.363 . S
C438 C443 1.379 . S
C438 N445 1.356 . S
C439 C438 1.363 . S
C439 C442 1.363 . S
N440 C442 1.356 . S
N440 H452 0.984 . S
N440 H453 0.985 . S
N441 C443 1.356 . S
N441 H446 0.984 . S
N441 H447 0.985 . S
C442 C436 1.379 . S
C442 C439 1.363 . S
C442 N440 1.356 . S
C443 C437 1.363 . S
C443 C438 1.379 . S
C443 N441 1.356 . S
N444 C436 1.356 . S
N444 H450 0.984 . S
N444 H451 0.984 . S
N445 C438 1.356 . S
N445 H448 0.984 . S
N445 H449 0.985 . S
H446 N441 0.984 . S
H447 N441 0.985 . S
H448 N445 0.984 . S
H449 N445 0.985 . S
H450 N444 0.984 . S
H451 N444 0.984 . S
H452 N440 0.984 . S
H453 N440 0.985 . S
C454 C455 1.363 . S
C454 C460 1.379 . S
C454 N462 1.356 . S
C455 C454 1.363 . S
C455 C461 1.363 . S
C456 C457 1.363 . S
C456 C461 1.379 . S
C456 N463 1.356 . S
C457 C456 1.363 . S
C457 C460 1.363 . S
N458 C460 1.356 . S
N458 H470 0.984 . S
N458 H471 0.985 . S
N459 C461 1.356 . S
N459 H464 0.984 . S
N459 H465 0.985 . S
C460 C454 1.379 . S
C460 C457 1.363 . S
C460 N458 1.356 . S
C461 C455 1.363 . S
C461 C456 1.379 . S
C461 N459 1.356 . S
N462 C454 1.356 . S
N462 H468 0.984 . S
N462 H469 0.984 . S
N463 C456 1.356 . S
N463 H466 0.984 . S
N463 H467 0.985 . S
H464 N459 0.984 . S
H465 N459 0.985 . S
H466 N463 0.984 . S
H467 N463 0.985 . S
H468 N462 0.984 . S
H469 N462 0.984 . S
H470 N458 0.984 . S
H471 N458 0.985 . S
C472 C473 1.363 . S
C472 C478 1.379 . S
C472 N480 1.356 . S
C473 C472 1.363 . S
C473 C479 1.363 1_554 S
C474 C475 1.363 1_556 S
C474 C479 1.379 . S
C474 N481 1.356 . S
C475 C474 1.363 1_554 S
C475 C478 1.363 . S
N476 C478 1.356 . S
N476 H488 0.984 . S
N476 H489 0.985 . S
N477 C479 1.356 . S
N477 H482 0.984 . S
N477 H483 0.985 . S
C478 C472 1.379 . S
C478 C475 1.363 . S
C478 N476 1.356 . S
C479 C473 1.363 1_556 S
C479 C474 1.379 . S
C479 N477 1.356 . S
N480 C472 1.356 . S
N480 H486 0.984 . S
N480 H487 0.984 . S
N481 C474 1.356 . S
N481 H484 0.984 . S
N481 H485 0.985 . S
H482 N477 0.984 . S
H483 N477 0.985 . S
H484 N481 0.984 . S
H485 N481 0.985 . S
H486 N480 0.984 . S
H487 N480 0.984 . S
H488 N476 0.984 . S
H489 N476 0.985 . S
C490 C491 1.363 . S
C490 C496 1.379 . S
C490 N498 1.356 . S
C491 C490 1.363 . S
C491 C497 1.363 . S
C492 C493 1.363 . S
C492 C497 1.379 . S
C492 N499 1.356 . S
C493 C492 1.363 . S
C493 C496 1.363 . S
N494 C496 1.356 . S
N494 H506 0.984 . S
N494 H507 0.985 . S
N495 C497 1.356 . S
N495 H500 0.984 . S
N495 H501 0.985 . S
C496 C490 1.379 . S
C496 C493 1.363 . S
C496 N494 1.356 . S
C497 C491 1.363 . S
C497 C492 1.379 . S
C497 N495 1.356 . S
N498 C490 1.356 . S
N498 H504 0.984 . S
N498 H505 0.984 . S
N499 C492 1.356 . S
N499 H502 0.984 . S
N499 H503 0.985 . S
H500 N495 0.984 . S
H501 N495 0.985 . S
H502 N499 0.984 . S
H503 N499 0.985 . S
H504 N498 0.984 . S
H505 N498 0.984 . S
H506 N494 0.984 . S
H507 N494 0.985 . S
C508 C509 1.363 . S
C508 C514 1.379 . S
C508 N516 1.356 . S
C509 C508 1.363 . S
C509 C515 1.363 1_554 S
C510 C511 1.363 1_556 S
C510 C515 1.379 . S
C510 N517 1.356 . S
C511 C510 1.363 1_554 S
C511 C514 1.363 . S
N512 C514 1.356 . S
N512 H524 0.984 . S
N512 H525 0.985 . S
N513 C515 1.356 . S
N513 H518 0.984 . S
N513 H519 0.985 . S
C514 C508 1.379 . S
C514 C511 1.363 . S
C514 N512 1.356 . S
C515 C509 1.363 1_556 S
C515 C510 1.379 . S
C515 N513 1.356 . S
N516 C508 1.356 . S
N516 H522 0.984 . S
N516 H523 0.984 . S
N517 C510 1.356 . S
N517 H520 0.984 . S
N517 H521 0.985 . S
H518 N513 0.984 . S
H519 N513 0.985 . S
H520 N517 0.984 . S
H521 N517 0.985 . S
H522 N516 0.984 . S
H523 N516 0.984 . S
H524 N512 0.984 . S
H525 N512 0.985 . S
C526 C527 1.363 . S
C526 C532 1.379 . S
C526 N534 1.356 . S
C527 C526 1.363 . S
C527 C533 1.363 . S
C528 C529 1.363 . S
C528 C533 1.379 . S
C528 N535 1.356 . S
C529 C528 1.363 . S
C529 C532 1.363 . S
N530 C532 1.356 . S
N530 H542 0.984 . S
N530 H543 0.985 . S
N531 C533 1.356 . S
N531 H536 0.984 . S
N531 H537 0.985 . S
C532 C526 1.379 . S
C532 C529 1.363 . S
C532 N530 1.356 . S
C533 C527 1.363 . S
C533 C528 1.379 . S
C533 N531 1.356 . S
N534 C526 1.356 . S
N534 H540 0.984 . S
N534 H541 0.984 . S
N535 C528 1.356 . S
N535 H538 0.984 . S
N535 H539 0.985 . S
H536 N531 0.984 . S
H537 N531 0.985 . S
H538 N535 0.984 . S
H539 N535 0.985 . S
H540 N534 0.984 . S
H541 N534 0.984 . S
H542 N530 0.984 . S
H543 N530 0.985 . S
C544 C545 1.363 . S
C544 C550 1.379 . S
C544 N552 1.356 . S
C545 C544 1.363 . S
C545 C551 1.363 . S
C546 C547 1.363 . S
C546 C551 1.379 . S
C546 N553 1.356 . S
C547 C546 1.363 . S
C547 C550 1.363 . S
N548 C550 1.356 . S
N548 H560 0.984 . S
N548 H561 0.985 . S
N549 C551 1.356 . S
N549 H554 0.984 . S
N549 H555 0.985 . S
C550 C544 1.379 . S
C550 C547 1.363 . S
C550 N548 1.356 . S
C551 C545 1.363 . S
C551 C546 1.379 . S
C551 N549 1.356 . S
N552 C544 1.356 . S
N552 H558 0.984 . S
N552 H559 0.984 . S
N553 C546 1.356 . S
N553 H556 0.984 . S
N553 H557 0.985 . S
H554 N549 0.984 . S
H555 N549 0.985 . S
H556 N553 0.984 . S
H557 N553 0.985 . S
H558 N552 0.984 . S
H559 N552 0.984 . S
H560 N548 0.984 . S
H561 N548 0.985 . S
C562 C563 1.363 . S
C562 C568 1.379 . S
C562 N570 1.356 . S
C563 C562 1.363 . S
C563 C569 1.363 1_554 S
C564 C565 1.363 1_556 S
C564 C569 1.379 . S
C564 N571 1.356 . S
C565 C564 1.363 1_554 S
C565 C568 1.363 . S
N566 C568 1.356 . S
N566 H578 0.984 . S
N566 H579 0.985 . S
N567 C569 1.356 . S
N567 H572 0.984 . S
N567 H573 0.985 . S
C568 C562 1.379 . S
C568 C565 1.363 . S
C568 N566 1.356 . S
C569 C563 1.363 1_556 S
C569 C564 1.379 . S
C569 N567 1.356 . S
N570 C562 1.356 . S
N570 H576 0.984 . S
N570 H577 0.984 . S
N571 C564 1.356 . S
N571 H574 0.984 . S
N571 H575 0.985 . S
H572 N567 0.984 . S
H573 N567 0.985 . S
H574 N571 0.984 . S
H575 N571 0.985 . S
H576 N570 0.984 . S
H577 N570 0.984 . S
H578 N566 0.984 . S
H579 N566 0.985 . S
C580 C581 1.363 . S
C580 C586 1.379 . S
C580 N588 1.356 . S
C581 C580 1.363 . S
C581 C587 1.363 . S
C582 C583 1.363 . S
C582 C587 1.379 . S
C582 N589 1.356 . S
C583 C582 1.363 . S
C583 C586 1.363 . S
N584 C586 1.356 . S
N584 H596 0.984 . S
N584 H597 0.985 . S
N585 C587 1.356 . S
N585 H590 0.984 . S
N585 H591 0.985 . S
C586 C580 1.379 . S
C586 C583 1.363 . S
C586 N584 1.356 . S
C587 C581 1.363 . S
C587 C582 1.379 . S
C587 N585 1.356 . S
N588 C580 1.356 . S
N588 H594 0.984 . S
N588 H595 0.984 . S
N589 C582 1.356 . S
N589 H592 0.984 . S
N589 H593 0.985 . S
H590 N585 0.984 . S
H591 N585 0.985 . S
H592 N589 0.984 . S
H593 N589 0.985 . S
H594 N588 0.984 . S
H595 N588 0.984 . S
H596 N584 0.984 . S
H597 N584 0.985 . S
C598 C599 1.363 . S
C598 C604 1.379 . S
C598 N606 1.356 . S
C599 C598 1.363 . S
C599 C605 1.363 1_554 S
C600 C601 1.363 1_556 S
C600 C605 1.379 . S
C600 N607 1.356 . S
C601 C600 1.363 1_554 S
C601 C604 1.363 . S
N602 C604 1.356 . S
N602 H614 0.984 . S
N602 H615 0.985 . S
N603 C605 1.356 . S
N603 H608 0.984 . S
N603 H609 0.985 . S
C604 C598 1.379 . S
C604 C601 1.363 . S
C604 N602 1.356 . S
C605 C599 1.363 1_556 S
C605 C600 1.379 . S
C605 N603 1.356 . S
N606 C598 1.356 . S
N606 H612 0.984 . S
N606 H613 0.984 . S
N607 C600 1.356 . S
N607 H610 0.984 . S
N607 H611 0.985 . S
H608 N603 0.984 . S
H609 N603 0.985 . S
H610 N607 0.984 . S
H611 N607 0.985 . S
H612 N606 0.984 . S
H613 N606 0.984 . S
H614 N602 0.984 . S
H615 N602 0.985 . S
C185 C21 1.487 . S
C187 C130 1.495 . S
C203 C40 1.500 . S
C205 C94 1.491 . S
C223 C109 1.457 . S
C221 C54 1.480 . S
C239 C73 1.525 . S
C241 C121 1.504 . S
C259 C157 1.451 . S
C257 C74 1.471 . S
C277 C169 1.481 . S
C275 C10 1.518 . S
C295 C178 1.502 . S
C293 C37 1.497 . S
C313 C142 1.513 . S
C311 C65 1.508 . S
C329 C52 1.453 . S
C331 C106 1.451 . S
C347 C87 1.516 . S
C349 C118 1.506 . S
C365 C15 1.516 . S
C367 C133 1.503 . S
C385 C97 1.477 . S
C383 C32 1.504 . S
C401 C29 1.506 . S
C403 C181 1.496 . S
C421 C145 1.516 . S
C419 C59 1.534 . S
C439 C154 1.457 . S
C437 C84 1.460 . S
C455 C8 1.486 . S
C457 C166 1.468 . S
C475 C92 1.519 . S
C473 C7 1.529 . S
C493 C104 1.483 . S
C491 C30 1.488 . S
C509 C62 1.534 . S
C511 C116 1.523 1_554 S
C527 C81 1.501 . S
C529 C128 1.508 . S
C547 C140 1.513 . S
C545 C76 1.533 . S
C563 C18 1.488 . S
C565 C152 1.483 . S
C581 C43 1.529 . S
C583 C164 1.526 . S
C599 C51 1.501 . S
C601 C176 1.509 1_554 S
