# Generated by pormake.
# Topology nom, (4,4)-cn, num edge types: 1
# Building blocks:
#     Node 0, Type 0, BuildingBlock: MIFKUJ_clean_linker_1, # of connection points: 4
#     Node 1, Type 0, BuildingBlock: MIFKUJ_clean_linker_1, # of connection points: 4
#     Node 2, Type 0, BuildingBlock: MIFKUJ_clean_linker_1, # of connection points: 4
#     Node 3, Type 0, BuildingBlock: MIFKUJ_clean_linker_1, # of connection points: 4
#     Node 4, Type 0, BuildingBlock: MIFKUJ_clean_linker_1, # of connection points: 4
#     Node 5, Type 0, BuildingBlock: MIFKUJ_clean_linker_1, # of connection points: 4
#     Node 6, Type 1, BuildingBlock: GALJAG_clean_sbu_0, # of connection points: 4
#     Node 7, Type 1, BuildingBlock: GALJAG_clean_sbu_0, # of connection points: 4
#     Node 8, Type 1, BuildingBlock: GALJAG_clean_sbu_0, # of connection points: 4
#     Node 9, Type 1, BuildingBlock: GALJAG_clean_sbu_0, # of connection points: 4
#     Node 10, Type 1, BuildingBlock: GALJAG_clean_sbu_0, # of connection points: 4
#     Node 11, Type 1, BuildingBlock: GALJAG_clean_sbu_0, # of connection points: 4
#     Edge 12, Type (0, 1), BuildingBlock: EZIPEK_clean_linker_0, # of connection points: 2
#     Edge 13, Type (0, 1), BuildingBlock: EZIPEK_clean_linker_0, # of connection points: 2
#     Edge 14, Type (0, 1), BuildingBlock: EZIPEK_clean_linker_0, # of connection points: 2
#     Edge 15, Type (0, 1), BuildingBlock: EZIPEK_clean_linker_0, # of connection points: 2
#     Edge 16, Type (0, 1), BuildingBlock: EZIPEK_clean_linker_0, # of connection points: 2
#     Edge 17, Type (0, 1), BuildingBlock: EZIPEK_clean_linker_0, # of connection points: 2
#     Edge 18, Type (0, 1), BuildingBlock: EZIPEK_clean_linker_0, # of connection points: 2
#     Edge 19, Type (0, 1), BuildingBlock: EZIPEK_clean_linker_0, # of connection points: 2
#     Edge 20, Type (0, 1), BuildingBlock: EZIPEK_clean_linker_0, # of connection points: 2
#     Edge 21, Type (0, 1), BuildingBlock: EZIPEK_clean_linker_0, # of connection points: 2
#     Edge 22, Type (0, 1), BuildingBlock: EZIPEK_clean_linker_0, # of connection points: 2
#     Edge 23, Type (0, 1), BuildingBlock: EZIPEK_clean_linker_0, # of connection points: 2
#     Edge 24, Type (0, 1), BuildingBlock: EZIPEK_clean_linker_0, # of connection points: 2
#     Edge 25, Type (0, 1), BuildingBlock: EZIPEK_clean_linker_0, # of connection points: 2
#     Edge 26, Type (0, 1), BuildingBlock: EZIPEK_clean_linker_0, # of connection points: 2
#     Edge 27, Type (0, 1), BuildingBlock: EZIPEK_clean_linker_0, # of connection points: 2
#     Edge 28, Type (0, 1), BuildingBlock: EZIPEK_clean_linker_0, # of connection points: 2
#     Edge 29, Type (0, 1), BuildingBlock: EZIPEK_clean_linker_0, # of connection points: 2
#     Edge 30, Type (0, 1), BuildingBlock: EZIPEK_clean_linker_0, # of connection points: 2
#     Edge 31, Type (0, 1), BuildingBlock: EZIPEK_clean_linker_0, # of connection points: 2
#     Edge 32, Type (0, 1), BuildingBlock: EZIPEK_clean_linker_0, # of connection points: 2
#     Edge 33, Type (0, 1), BuildingBlock: EZIPEK_clean_linker_0, # of connection points: 2
#     Edge 34, Type (0, 1), BuildingBlock: EZIPEK_clean_linker_0, # of connection points: 2
#     Edge 35, Type (0, 1), BuildingBlock: EZIPEK_clean_linker_0, # of connection points: 2
# Relax obj value: 0.004
# Max RMSD: 0.109
# Mean RMSD: 0.081
data_MOF--net-nom--node1-GALJAG_clean_sbu_0--node2-MIFKUJ_clean_linker_1--edge1-EZIPEK_clean_linker_0
_symmetry_space_group_name_H-M    P1
_symmetry_Int_Tables_number       1
_symmetry_cell_setting            triclinic
loop_
_symmetry_equiv_pos_as_xyz
'x, y, z'
_cell_length_a     41.201718
_cell_length_b     41.142689
_cell_length_c     44.945756
_cell_angle_alpha  90.042711
_cell_angle_beta   89.967671
_cell_angle_gamma 120.07967
loop_
_atom_site_label
_atom_site_type_symbol
_atom_site_fract_x
_atom_site_fract_y
_atom_site_fract_z
_atom_type_partial_charge
H0 H 0.98994 0.48129 0.26921 0.0
H1 H 0.9478 0.4555 0.2264 0.0
H2 H 0.88949 0.5128 0.25451 0.0
H3 H 0.93302 0.54053 0.29644 0.0
H4 H 0.03898 0.55075 0.28206 0.0
H5 H 0.92224 0.45508 0.33415 0.0
H6 H 0.85614 0.42971 0.34853 0.0
H7 H 0.88267 0.53849 0.38213 0.0
H8 H 0.94859 0.5638 0.36804 0.0
H9 H 0.05174 0.60173 0.40594 0.0
H10 H 0.09366 0.61646 0.44893 0.0
H11 H 0.14065 0.55357 0.40958 0.0
H12 H 0.09854 0.53837 0.36672 0.0
H13 H 0.99773 0.53846 0.38711 0.0
H14 H 0.10827 0.63344 0.34662 0.0
H15 H 0.17358 0.6722 0.33069 0.0
H16 H 0.16102 0.58392 0.27171 0.0
H17 H 0.09604 0.54422 0.28857 0.0
C18 C 0.96448 0.51253 0.28639 0.0
C19 C 0.9682 0.48849 0.26619 0.0
C20 C 0.94409 0.4736 0.24185 0.0
C21 C 0.91546 0.4821 0.2374 0.0
C22 C 0.91133 0.50578 0.25768 0.0
C23 C 0.93597 0.52131 0.28174 0.0
C24 C 0.99146 0.52912 0.31151 0.0
C25 C 0.03001 0.54742 0.3051 0.0
C26 C 0.97991 0.52729 0.34143 0.0
C27 C 0.94013 0.51131 0.34994 0.0
C28 C 0.91377 0.4734 0.3446 0.0
C29 C 0.87627 0.45897 0.35282 0.0
C30 C 0.86484 0.48238 0.36632 0.0
C31 C 0.89117 0.52016 0.37173 0.0
C32 C 0.92861 0.53448 0.36376 0.0
C33 C 0.07212 0.56912 0.38298 0.0
C34 C 0.0711 0.59116 0.40649 0.0
C35 C 0.09498 0.59963 0.43093 0.0
C36 C 0.1201 0.58605 0.4323 0.0
C37 C 0.12146 0.56433 0.40879 0.0
C38 C 0.0976 0.55587 0.38433 0.0
C39 C 0.04532 0.55836 0.35777 0.0
C40 C 0.0069 0.54147 0.36413 0.0
C41 C 0.05713 0.56283 0.32773 0.0
C42 C 0.09727 0.58561 0.31914 0.0
C43 C 0.11969 0.62194 0.33079 0.0
C44 C 0.15682 0.64423 0.32153 0.0
C45 C 0.17194 0.63085 0.30004 0.0
C46 C 0.14973 0.59462 0.28835 0.0
C47 C 0.11271 0.5721 0.29791 0.0
H48 H 0.40527 0.94909 0.53197 0.0
H49 H 0.36574 0.88301 0.54637 0.0
H50 H 0.4476 0.85786 0.51013 0.0
H51 H 0.48737 0.92414 0.49564 0.0
H52 H 0.47813 0.9989 0.55056 0.0
H53 H 0.41369 0.94017 0.45638 0.0
H54 H 0.39809 0.89837 0.41304 0.0
H55 H 0.51577 0.94692 0.39315 0.0
H56 H 0.53149 0.98848 0.43649 0.0
H57 H 0.57777 0.10288 0.45913 0.0
H58 H 0.60202 0.16844 0.44365 0.0
H59 H 0.51082 0.16974 0.48972 0.0
H60 H 0.48692 0.10462 0.50555 0.0
H61 H 0.5108 0.04178 0.44608 0.0
H62 H 0.57976 0.09873 0.53135 0.0
H63 H 0.60687 0.14081 0.57421 0.0
H64 H 0.49644 0.09705 0.61186 0.0
H65 H 0.46912 0.05474 0.56895 0.0
C66 C 0.44913 0.94143 0.51261 0.0
C67 C 0.41473 0.92938 0.52708 0.0
C68 C 0.39219 0.89181 0.53522 0.0
C69 C 0.4039 0.86584 0.52926 0.0
C70 C 0.43824 0.87769 0.51481 0.0
C71 C 0.46076 0.91532 0.5065 0.0
C72 C 0.47291 0.98158 0.50472 0.0
C73 C 0.4849 0.00832 0.52768 0.0
C74 C 0.48378 0.99373 0.47506 0.0
C75 C 0.47378 0.9672 0.4498 0.0
C76 C 0.43614 0.9415 0.44293 0.0
C77 C 0.42723 0.91785 0.4182 0.0
C78 C 0.45584 0.91973 0.40001 0.0
C79 C 0.4934 0.94517 0.40697 0.0
C80 C 0.50229 0.96881 0.43161 0.0
C81 C 0.53076 0.09907 0.48368 0.0
C82 C 0.56319 0.11741 0.46606 0.0
C83 C 0.57697 0.15464 0.45724 0.0
C84 C 0.55808 0.17372 0.46552 0.0
C85 C 0.52574 0.15543 0.48319 0.0
C86 C 0.51227 0.11843 0.4923 0.0
C87 C 0.51465 0.05903 0.49179 0.0
C88 C 0.50421 0.03237 0.46897 0.0
C89 C 0.50648 0.04689 0.52164 0.0
C90 C 0.52235 0.07374 0.54684 0.0
C91 C 0.56125 0.09849 0.5486 0.0
C92 C 0.57676 0.12236 0.57305 0.0
C93 C 0.55361 0.12196 0.59609 0.0
C94 C 0.51468 0.09769 0.59423 0.0
C95 C 0.49917 0.07358 0.56984 0.0
H96 H 0.52601 0.55822 0.72744 0.0
H97 H 0.50756 0.58256 0.77015 0.0
H98 H 0.3912 0.51301 0.74607 0.0
H99 H 0.40957 0.48841 0.70329 0.0
H100 H 0.50683 0.48488 0.71551 0.0
H101 H 0.48506 0.58078 0.67047 0.0
H102 H 0.44606 0.60842 0.65744 0.0
H103 H 0.36872 0.50658 0.61149 0.0
H104 H 0.40707 0.47855 0.62494 0.0
H105 H 0.46798 0.43351 0.59248 0.0
H106 H 0.49523 0.41885 0.54939 0.0
H107 H 0.60576 0.48612 0.5868 0.0
H108 H 0.57866 0.50062 0.62992 0.0
H109 H 0.47852 0.49987 0.61084 0.0
H110 H 0.48521 0.40037 0.65561 0.0
H111 H 0.50946 0.35945 0.67131 0.0
H112 H 0.60066 0.4526 0.71711 0.0
H113 H 0.57594 0.4935 0.7019 0.0
C114 C 0.46919 0.52175 0.71207 0.0
C115 C 0.49652 0.54819 0.73132 0.0
C116 C 0.48607 0.56211 0.75558 0.0
C117 C 0.4481 0.5496 0.7611 0.0
C118 C 0.42065 0.52304 0.74201 0.0
C119 C 0.43113 0.50915 0.71764 0.0
C120 C 0.48083 0.50698 0.68662 0.0
C121 C 0.50114 0.4887 0.6926 0.0
C122 C 0.47156 0.51003 0.65682 0.0
C123 C 0.44874 0.52744 0.64893 0.0
C124 C 0.45955 0.56426 0.65783 0.0
C125 C 0.43751 0.58008 0.65033 0.0
C126 C 0.40465 0.55939 0.63359 0.0
C127 C 0.39403 0.52283 0.62444 0.0
C128 C 0.41592 0.50697 0.63203 0.0
C129 C 0.52126 0.46794 0.6145 0.0
C130 C 0.49804 0.44489 0.59151 0.0
C131 C 0.51351 0.43651 0.56701 0.0
C132 C 0.55245 0.45146 0.56501 0.0
C133 C 0.57565 0.47427 0.58805 0.0
C134 C 0.56016 0.48236 0.61265 0.0
C135 C 0.50531 0.47866 0.63975 0.0
C136 C 0.48429 0.49616 0.63375 0.0
C137 C 0.51261 0.47368 0.6696 0.0
C138 C 0.52896 0.44998 0.67746 0.0
C139 C 0.51063 0.41209 0.66879 0.0
C140 C 0.52431 0.38876 0.67781 0.0
C141 C 0.55675 0.40307 0.69537 0.0
C142 C 0.57553 0.44112 0.70361 0.0
C143 C 0.5615 0.46436 0.69494 0.0
H144 H 0.04958 0.56244 0.77155 0.0
H145 H 0.09211 0.58961 0.72892 0.0
H146 H 0.14163 0.52146 0.74914 0.0
H147 H 0.09897 0.49406 0.79182 0.0
H148 H 0.9968 0.48713 0.78063 0.0
H149 H 0.11203 0.58403 0.83118 0.0
H150 H 0.17866 0.61225 0.84483 0.0
H151 H 0.15717 0.50591 0.88027 0.0
H152 H 0.09071 0.47768 0.86678 0.0
H153 H 0.98505 0.43383 0.90405 0.0
H154 H 0.94262 0.41791 0.94691 0.0
H155 H 0.89426 0.47968 0.90794 0.0
H156 H 0.93667 0.49587 0.86523 0.0
H157 H 0.03881 0.49866 0.88547 0.0
H158 H 0.93388 0.39984 0.84044 0.0
H159 H 0.86875 0.35812 0.82491 0.0
H160 H 0.86986 0.44966 0.77731 0.0
H161 H 0.9353 0.49149 0.7926 0.0
C162 C 0.07128 0.52643 0.78496 0.0
C163 C 0.06967 0.55342 0.7669 0.0
C164 C 0.0939 0.56896 0.74268 0.0
C165 C 0.11992 0.55751 0.736 0.0
C166 C 0.12177 0.53067 0.75408 0.0
C167 C 0.09757 0.51519 0.77841 0.0
C168 C 0.04449 0.50935 0.80998 0.0
C169 C 0.00595 0.49017 0.8036 0.0
C170 C 0.05641 0.51113 0.83975 0.0
C171 C 0.09655 0.52873 0.84785 0.0
C172 C 0.1217 0.5668 0.84181 0.0
C173 C 0.15953 0.58288 0.84963 0.0
C174 C 0.17255 0.56102 0.86348 0.0
C175 C 0.14746 0.52307 0.86958 0.0
C176 C 0.10968 0.50709 0.86196 0.0
C177 C 0.9639 0.46583 0.8813 0.0
C178 C 0.9652 0.44378 0.90463 0.0
C179 C 0.94101 0.43463 0.92899 0.0
C180 C 0.9154 0.44765 0.93046 0.0
C181 C 0.91375 0.46929 0.90706 0.0
C182 C 0.93781 0.47833 0.88269 0.0
C183 C 0.99101 0.47763 0.85622 0.0
C184 C 0.02954 0.49569 0.86253 0.0
C185 C 0.97915 0.47334 0.82625 0.0
C186 C 0.93929 0.44884 0.81786 0.0
C187 C 0.92004 0.41107 0.82688 0.0
C188 C 0.88305 0.38724 0.81794 0.0
C189 C 0.86467 0.4009 0.8 0.0
C190 C 0.88372 0.43871 0.79114 0.0
C191 C 0.92091 0.46247 0.79984 0.0
H192 H 0.63242 0.088 0.03526 0.0
H193 H 0.67226 0.15373 0.05034 0.0
H194 H 0.59005 0.17979 0.01645 0.0
H195 H 0.54996 0.11377 1.00117 0.0
H196 H 0.55877 0.0373 0.05288 0.0
H197 H 0.62509 0.10697 0.96393 0.0
H198 H 0.64025 0.15117 0.92265 0.0
H199 H 0.52582 0.08818 0.89199 0.0
H200 H 0.50982 0.04568 0.93448 0.0
H201 H 0.4669 0.93756 0.95577 0.0
H202 H 0.4483 0.87694 0.93462 0.0
H203 H 0.53241 0.87065 0.98762 0.0
H204 H 0.55087 0.93139 0.00835 0.0
H205 H 0.53183 0.99892 0.94717 0.0
H206 H 0.46132 0.93231 0.02991 0.0
H207 H 0.4351 0.89059 0.07309 0.0
H208 H 0.54375 0.9456 0.11509 0.0
H209 H 0.57045 0.98677 0.07166 0.0
C210 C 0.58838 0.09615 0.01698 0.0
C211 C 0.62285 0.10779 0.03117 0.0
C212 C 0.64557 0.14516 0.0397 0.0
C213 C 0.63396 0.17132 0.03444 0.0
C214 C 0.5993 0.15978 0.02062 0.0
C215 C 0.57659 0.12232 0.0119 0.0
C216 C 0.56526 0.05647 0.00764 0.0
C217 C 0.5531 0.02873 0.02974 0.0
C218 C 0.55603 0.04569 0.97752 0.0
C219 C 0.56604 0.07327 0.95283 0.0
C220 C 0.60292 0.1032 0.94893 0.0
C221 C 0.61172 0.12822 0.92517 0.0
C222 C 0.58415 0.12291 0.90425 0.0
C223 C 0.54746 0.09285 0.90792 0.0
C224 C 0.53844 0.06851 0.93209 0.0
C225 C 0.51162 0.94009 0.98252 0.0
C226 C 0.48219 0.92353 0.962 0.0
C227 C 0.47256 0.88902 0.94893 0.0
C228 C 0.4937 0.87108 0.95442 0.0
C229 C 0.51931 0.88548 0.9785 0.0
C230 C 0.52897 0.91997 0.99165 0.0
C231 C 0.52631 0.97949 0.99238 0.0
C232 C 0.537 0.00727 0.97037 0.0
C233 C 0.53311 0.99032 0.02264 0.0
C234 C 0.51798 0.96261 0.04737 0.0
C235 C 0.47978 0.93492 0.04804 0.0
C236 C 0.46471 0.91133 0.07273 0.0
C237 C 0.48754 0.91532 0.09719 0.0
C238 C 0.52578 0.94234 0.09639 0.0
C239 C 0.54091 0.96576 0.07165 0.0
H240 H 0.50998 0.48444 0.22695 0.0
H241 H 0.52661 0.45949 0.26997 0.0
H242 H 0.64112 0.5123 0.23933 0.0
H243 H 0.62525 0.53988 0.19737 0.0
H244 H 0.53017 0.55204 0.21308 0.0
H245 H 0.55243 0.45674 0.16285 0.0
H246 H 0.59348 0.43197 0.14801 0.0
H247 H 0.67067 0.53858 0.10813 0.0
H248 H 0.63011 0.56352 0.12315 0.0
H249 H 0.56589 0.60392 0.09025 0.0
H250 H 0.53808 0.61932 0.04806 0.0
H251 H 0.42802 0.55111 0.08596 0.0
H252 H 0.45567 0.5357 0.12824 0.0
H253 H 0.55679 0.53856 0.10769 0.0
H254 H 0.53978 0.63286 0.14805 0.0
H255 H 0.51252 0.6707 0.16453 0.0
H256 H 0.44069 0.58312 0.22559 0.0
H257 H 0.46631 0.54409 0.20793 0.0
C258 C 0.56617 0.51374 0.20852 0.0
C259 C 0.53878 0.49097 0.22947 0.0
C260 C 0.54817 0.47653 0.25397 0.0
C261 C 0.58503 0.48388 0.25778 0.0
C262 C 0.61246 0.50619 0.23672 0.0
C263 C 0.60328 0.52158 0.21259 0.0
C264 C 0.5555 0.53008 0.18336 0.0
C265 C 0.53527 0.54834 0.18998 0.0
C266 C 0.5646 0.52789 0.15328 0.0
C267 C 0.58844 0.51206 0.14432 0.0
C268 C 0.57824 0.47478 0.15102 0.0
C269 C 0.60148 0.46066 0.14251 0.0
C270 C 0.63496 0.48358 0.12705 0.0
C271 C 0.64491 0.52061 0.12005 0.0
C272 C 0.62178 0.53471 0.12856 0.0
C273 C 0.51288 0.56882 0.11248 0.0
C274 C 0.5358 0.59236 0.08956 0.0
C275 C 0.52003 0.60123 0.0656 0.0
C276 C 0.4811 0.58634 0.06406 0.0
C277 C 0.45813 0.5629 0.08691 0.0
C278 C 0.47392 0.55425 0.111 0.0
C279 C 0.52946 0.55835 0.13742 0.0
C280 C 0.55111 0.54169 0.13077 0.0
C281 C 0.52268 0.56309 0.16753 0.0
C282 C 0.50474 0.58526 0.17637 0.0
C283 C 0.51743 0.6212 0.16436 0.0
C284 C 0.5022 0.643 0.17396 0.0
C285 C 0.47469 0.62965 0.19627 0.0
C286 C 0.46187 0.5938 0.20831 0.0
C287 C 0.4766 0.57167 0.1983 0.0
In288 In 0.63736 0.39882 0.41201 0.0
O289 O 0.69976 0.4397 0.41992 0.0
O290 O 0.68422 0.39955 0.38498 0.0
C291 C 0.61354 0.41933 0.46039 0.0
C292 C 0.61764 0.42373 0.36329 0.0
C293 C 0.61107 0.3265 0.42711 0.0
O294 O 0.64796 0.43371 0.4542 0.0
O295 O 0.59122 0.39534 0.44198 0.0
O296 O 0.59342 0.33628 0.40974 0.0
O297 O 0.64181 0.35295 0.43655 0.0
C298 C 0.71023 0.42651 0.39904 0.0
O299 O 0.61895 0.39377 0.36338 0.0
O300 O 0.62503 0.44044 0.388 0.0
In301 In 0.26034 0.64108 0.5839 0.0
O302 O 0.28154 0.59947 0.58067 0.0
O303 O 0.31022 0.64622 0.60983 0.0
C304 C 0.21443 0.61958 0.53627 0.0
C305 C 0.21476 0.61695 0.63188 0.0
C306 C 0.30684 0.71268 0.56742 0.0
O307 O 0.23826 0.60928 0.54009 0.0
O308 O 0.21299 0.63988 0.55668 0.0
O309 O 0.28591 0.7044 0.59 0.0
O310 O 0.30457 0.6851 0.55336 0.0
C311 C 0.30766 0.61666 0.59922 0.0
O312 O 0.23699 0.65135 0.62691 0.0
O313 O 0.21481 0.5949 0.61241 0.0
In314 In 0.63796 0.25935 0.74943 0.0
O315 O 0.6995 0.27452 0.74695 0.0
O316 O 0.68599 0.3104 0.77153 0.0
C317 C 0.615 0.21594 0.70041 0.0
C318 C 0.61709 0.21588 0.79886 0.0
C319 C 0.61092 0.30445 0.73392 0.0
O320 O 0.64932 0.23799 0.7059 0.0
O321 O 0.59248 0.2153 0.71976 0.0
O322 O 0.59403 0.27769 0.75209 0.0
O323 O 0.6413 0.30851 0.72384 0.0
C324 C 0.71102 0.3035 0.76293 0.0
O325 O 0.62012 0.24791 0.7984 0.0
O326 O 0.62327 0.20532 0.77426 0.0
In327 In 0.39923 0.6428 0.91118 0.0
O328 O 0.33625 0.60541 0.9188 0.0
O329 O 0.35432 0.64471 0.88305 0.0
C330 C 0.42161 0.62193 0.96047 0.0
C331 C 0.41385 0.61211 0.86379 0.0
C332 C 0.434 0.71761 0.92012 0.0
O333 O 0.39193 0.62368 0.95981 0.0
O334 O 0.43958 0.63 0.93636 0.0
O335 O 0.44864 0.7022 0.90537 0.0
O336 O 0.40172 0.69557 0.93017 0.0
C337 C 0.32725 0.61896 0.89726 0.0
O338 O 0.42735 0.6471 0.86652 0.0
O339 O 0.39327 0.59257 0.88504 0.0
In340 In 0.77774 0.39815 0.08315 0.0
O341 O 0.78864 0.39505 0.13282 0.0
O342 O 0.83298 0.4367 0.10698 0.0
C343 C 0.73277 0.32545 0.06921 0.0
C344 C 0.73316 0.4273 0.09388 0.0
C345 C 0.8216 0.41616 0.03466 0.0
O346 O 0.75593 0.33554 0.09044 0.0
O347 O 0.73231 0.35174 0.05521 0.0
O348 O 0.79979 0.42898 0.03903 0.0
O349 O 0.82175 0.39487 0.05482 0.0
C350 C 0.82176 0.42237 0.13232 0.0
O351 O 0.76371 0.44538 0.0799 0.0
O352 O 0.72501 0.39482 0.102 0.0
In353 In 0.39791 0.77724 0.24938 0.0
O354 O 0.42977 0.74643 0.25982 0.0
O355 O 0.39908 0.73347 0.21931 0.0
C356 C 0.42041 0.82531 0.29563 0.0
C357 C 0.42605 0.82451 0.20285 0.0
C358 C 0.32533 0.72949 0.26277 0.0
O359 O 0.43324 0.8036 0.29099 0.0
O360 O 0.39717 0.82365 0.27654 0.0
O361 O 0.33538 0.74555 0.23781 0.0
O362 O 0.35174 0.73739 0.28071 0.0
C363 C 0.42027 0.72768 0.23596 0.0
O364 O 0.39196 0.80935 0.21026 0.0
O365 O 0.44606 0.81674 0.21924 0.0
C366 C 0.23907 0.64631 0.29638 0.0
C367 C 0.21093 0.65528 0.28934 0.0
C368 C 0.25815 0.71415 0.26634 0.0
C369 C 0.28563 0.70343 0.27078 0.0
N370 N 0.30002 0.65505 0.28387 0.0
N371 N 0.19205 0.69346 0.26187 0.0
C372 C 0.27547 0.66826 0.28405 0.0
C373 C 0.21997 0.68791 0.27252 0.0
N374 N 0.23147 0.61768 0.31567 0.0
N375 N 0.26856 0.74999 0.25787 0.0
H376 H 0.16367 0.67462 0.26563 0.0
H377 H 0.19689 0.71478 0.24693 0.0
H378 H 0.29635 0.77076 0.25434 0.0
H379 H 0.25 0.76023 0.25737 0.0
H380 H 0.25208 0.61259 0.32406 0.0
H381 H 0.20524 0.60116 0.32548 0.0
H382 H 0.29262 0.62796 0.29055 0.0
H383 H 0.32652 0.66958 0.27414 0.0
C384 C 0.56972 0.22038 0.42491 0.0
C385 C 0.57181 0.21285 0.45545 0.0
C386 C 0.59412 0.27873 0.4675 0.0
C387 C 0.59645 0.28713 0.43668 0.0
N388 N 0.59289 0.26697 0.3857 0.0
N389 N 0.59255 0.23604 0.50524 0.0
C390 C 0.58593 0.25823 0.41522 0.0
C391 C 0.58596 0.2424 0.47661 0.0
N392 N 0.55117 0.1914 0.40529 0.0
N393 N 0.59785 0.30485 0.4881 0.0
H394 H 0.58741 0.20987 0.51271 0.0
H395 H 0.60639 0.25745 0.52078 0.0
H396 H 0.60183 0.33111 0.48225 0.0
H397 H 0.59284 0.299 0.51073 0.0
H398 H 0.54536 0.19524 0.38344 0.0
H399 H 0.53848 0.16325 0.41155 0.0
H400 H 0.58943 0.24738 0.36948 0.0
H401 H 0.60553 0.29441 0.37767 0.0
C402 C 0.38531 0.59229 0.59692 0.0
C403 C 0.38109 0.57586 0.62543 0.0
C404 C 0.33069 0.58892 0.63761 0.0
C405 C 0.3331 0.60287 0.6083 0.0
N406 N 0.36014 0.61567 0.55911 0.0
N407 N 0.34846 0.55519 0.67222 0.0
C408 C 0.35966 0.60388 0.58765 0.0
C409 C 0.35357 0.57348 0.6457 0.0
N410 N 0.41457 0.59774 0.57912 0.0
N411 N 0.30643 0.59037 0.65764 0.0
H412 H 0.36533 0.54439 0.6792 0.0
H413 H 0.32627 0.5486 0.68665 0.0
H414 H 0.28722 0.59879 0.65198 0.0
H415 H 0.3064 0.58504 0.68027 0.0
H416 H 0.42182 0.61307 0.55943 0.0
H417 H 0.43361 0.58918 0.58508 0.0
H418 H 0.37555 0.61289 0.54196 0.0
H419 H 0.34344 0.62657 0.55196 0.0
C420 C 0.79604 0.36158 0.81168 0.0
C421 C 0.82539 0.37539 0.79039 0.0
C422 C 0.77954 0.34341 0.75057 0.0
C423 C 0.75064 0.32701 0.7722 0.0
N424 N 0.73269 0.31342 0.82385 0.0
N425 N 0.84618 0.37343 0.74055 0.0
C426 C 0.75923 0.33409 0.80294 0.0
C427 C 0.81748 0.36453 0.76008 0.0
N428 N 0.80305 0.37555 0.84003 0.0
N429 N 0.77076 0.34034 0.72099 0.0
H430 H 0.87436 0.3886 0.74671 0.0
H431 H 0.84204 0.36286 0.71896 0.0
H432 H 0.74329 0.3257 0.71306 0.0
H433 H 0.79043 0.35517 0.70446 0.0
H434 H 0.78196 0.36937 0.85557 0.0
H435 H 0.82959 0.39604 0.84727 0.0
H436 H 0.73854 0.31479 0.84651 0.0
H437 H 0.70575 0.29198 0.81841 0.0
C438 C 0.4587 0.81967 0.91495 0.0
C439 C 0.48637 0.83582 0.93754 0.0
C440 C 0.48722 0.77693 0.94104 0.0
C441 C 0.45313 0.75863 0.9248 0.0
N442 N 0.40738 0.76308 0.89403 0.0
N443 N 0.54375 0.83628 0.94872 0.0
C444 C 0.43911 0.78012 0.91102 0.0
C445 C 0.50595 0.81653 0.94421 0.0
N446 N 0.456 0.84223 0.89406 0.0
N447 N 0.50119 0.75667 0.95435 0.0
H448 H 0.55915 0.86535 0.94569 0.0
H449 H 0.56002 0.82355 0.95104 0.0
H450 H 0.48828 0.7275 0.95279 0.0
H451 H 0.52401 0.76881 0.96884 0.0
H452 H 0.4387 0.83189 0.87543 0.0
H453 H 0.47527 0.871 0.89327 0.0
H454 H 0.39408 0.77731 0.88625 0.0
H455 H 0.39328 0.73443 0.88914 0.0
C456 C 0.69272 0.47918 0.13555 0.0
C457 C 0.66013 0.46913 0.11839 0.0
C458 C 0.67516 0.43107 0.08532 0.0
C459 C 0.70898 0.44313 0.10131 0.0
N460 N 0.75266 0.48162 0.13934 0.0
N461 N 0.62252 0.44022 0.07477 0.0
C462 C 0.71864 0.46822 0.12569 0.0
C463 C 0.6519 0.4463 0.09266 0.0
N464 N 0.69809 0.49798 0.16185 0.0
N465 N 0.66507 0.40464 0.0634 0.0
H466 H 0.60457 0.45051 0.07967 0.0
H467 H 0.61744 0.42736 0.05401 0.0
H468 H 0.68228 0.39423 0.05641 0.0
H469 H 0.63878 0.3913 0.05333 0.0
H470 H 0.71904 0.50265 0.17705 0.0
H471 H 0.67975 0.50657 0.16973 0.0
H472 H 0.7633 0.5032 0.15497 0.0
H473 H 0.77162 0.47288 0.13363 0.0
C474 C 0.38494 0.81487 0.5673 0.0
C475 C 0.38006 0.82619 0.53862 0.0
C476 C 0.32532 0.76398 0.52996 0.0
C477 C 0.33184 0.75185 0.55773 0.0
N478 N 0.37094 0.7633 0.60084 0.0
N479 N 0.34966 0.81075 0.49073 0.0
C480 C 0.36246 0.77665 0.57594 0.0
C481 C 0.35148 0.80044 0.51933 0.0
N482 N 0.41056 0.84087 0.5865 0.0
N483 N 0.29318 0.7413 0.51446 0.0
H484 H 0.36784 0.83754 0.48239 0.0
H485 H 0.33215 0.79203 0.47457 0.0
H486 H 0.27288 0.71481 0.52196 0.0
H487 H 0.28488 0.74991 0.4956 0.0
H488 H 0.4124 0.83543 0.60886 0.0
H489 H 0.42848 0.86885 0.5806 0.0
H490 H 0.39527 0.77889 0.61326 0.0
H491 H 0.35516 0.73545 0.60786 0.0
C492 C 0.56932 0.36886 0.73608 0.0
C493 C 0.57067 0.37786 0.70544 0.0
C494 C 0.5927 0.33412 0.6935 0.0
C495 C 0.59594 0.32884 0.72433 0.0
N496 N 0.59384 0.34679 0.77518 0.0
N497 N 0.59033 0.37448 0.65547 0.0
C498 C 0.58595 0.34767 0.74575 0.0
C499 C 0.58434 0.36208 0.68425 0.0
N500 N 0.55108 0.37944 0.75582 0.0
N501 N 0.59576 0.31119 0.67305 0.0
H502 H 0.58513 0.39541 0.6479 0.0
H503 H 0.6038 0.3666 0.63985 0.0
H504 H 0.5997 0.28895 0.67906 0.0
H505 H 0.59014 0.3115 0.65049 0.0
H506 H 0.54586 0.37022 0.77781 0.0
H507 H 0.53799 0.39449 0.74958 0.0
H508 H 0.59074 0.36329 0.79126 0.0
H509 H 0.60691 0.33245 0.78318 0.0
C510 C 0.22463 0.59255 0.90069 0.0
C511 C 0.2126 0.57764 0.87171 0.0
C512 C 0.27509 0.5876 0.86028 0.0
C513 C 0.28781 0.60482 0.88853 0.0
N514 N 0.27699 0.62948 0.93377 0.0
N515 N 0.22697 0.56599 0.8222 0.0
C516 C 0.26319 0.60882 0.9083 0.0
C517 C 0.23809 0.5768 0.85093 0.0
N518 N 0.19904 0.59051 0.9211 0.0
N519 N 0.29773 0.5798 0.84305 0.0
H520 H 0.19975 0.55686 0.81475 0.0
H521 H 0.24534 0.56881 0.80517 0.0
H522 H 0.32468 0.58641 0.84944 0.0
H523 H 0.28876 0.5638 0.82368 0.0
H524 H 0.20511 0.59672 0.94357 0.0
H525 H 0.17084 0.58019 0.91598 0.0
H526 H 0.2614 0.6369 0.94752 0.0
H527 H 0.30511 0.64198 0.94 0.0
C528 C 0.65595 0.22282 0.07238 0.0
C529 C 0.65864 0.21103 0.04326 0.0
C530 C 0.71261 0.27308 0.0326 0.0
C531 C 0.70806 0.28572 0.06085 0.0
N532 N 0.67254 0.27494 0.10606 0.0
N533 N 0.68579 0.22539 0.99412 0.0
C534 C 0.67905 0.26119 0.08041 0.0
C535 C 0.68586 0.23635 0.02288 0.0
N536 N 0.63176 0.19715 0.09248 0.0
N537 N 0.74341 0.29567 0.01566 0.0
H538 H 0.66727 0.19835 0.98641 0.0
H539 H 0.7021 0.24373 0.97732 0.0
H540 H 0.76401 0.32245 0.02239 0.0
H541 H 0.75044 0.28682 0.99624 0.0
H542 H 0.63159 0.20294 0.11502 0.0
H543 H 0.61336 0.16911 0.08706 0.0
H544 H 0.64925 0.25956 0.1196 0.0
H545 H 0.68891 0.30287 0.11274 0.0
C546 C 0.48479 0.68769 0.22283 0.0
C547 C 0.46023 0.65389 0.20766 0.0
C548 C 0.40824 0.66559 0.21597 0.0
C549 C 0.43389 0.70179 0.22735 0.0
N550 N 0.4984 0.75038 0.23526 0.0
N551 N 0.39989 0.61384 0.18497 0.0
C552 C 0.4727 0.71372 0.22921 0.0
C553 C 0.42225 0.64365 0.20288 0.0
N554 N 0.51939 0.69462 0.23177 0.0
N555 N 0.37046 0.65148 0.21864 0.0
H556 H 0.40927 0.59741 0.17452 0.0
H557 H 0.37319 0.60764 0.17824 0.0
H558 H 0.35895 0.66601 0.22907 0.0
H559 H 0.35067 0.62383 0.21335 0.0
H560 H 0.53685 0.71709 0.2455 0.0
H561 H 0.52906 0.67589 0.22802 0.0
H562 H 0.52725 0.7611 0.23384 0.0
H563 H 0.49126 0.7711 0.23847 0.0
C564 C 0.81315 0.45446 0.4041 0.0
C565 C 0.82511 0.46756 0.3747 0.0
C566 C 0.76277 0.45744 0.36246 0.0
C567 C 0.75004 0.44163 0.39111 0.0
N568 N 0.76089 0.41967 0.43775 0.0
N569 N 0.81108 0.47761 0.32462 0.0
C570 C 0.77466 0.43883 0.41165 0.0
C571 C 0.7998 0.46785 0.35347 0.0
N572 N 0.83874 0.45743 0.42489 0.0
N573 N 0.73996 0.46398 0.34436 0.0
H574 H 0.83838 0.48668 0.31741 0.0
H575 H 0.79284 0.47423 0.30733 0.0
H576 H 0.71275 0.45705 0.35027 0.0
H577 H 0.74888 0.47912 0.3246 0.0
H578 H 0.83276 0.45261 0.4475 0.0
H579 H 0.86687 0.46721 0.41988 0.0
H580 H 0.77645 0.41297 0.45214 0.0
H581 H 0.73283 0.4077 0.44404 0.0
C582 C 0.18306 0.62169 0.45708 0.0
C583 C 0.14453 0.59394 0.45876 0.0
C584 C 0.15168 0.58337 0.5115 0.0
C585 C 0.19062 0.60963 0.50936 0.0
N586 N 0.24486 0.64978 0.47949 0.0
N587 N 0.09304 0.544 0.48563 0.0
C588 C 0.20679 0.62748 0.4819 0.0
C589 C 0.12903 0.57359 0.48548 0.0
N590 N 0.19661 0.64349 0.43214 0.0
N591 N 0.13637 0.56791 0.53847 0.0
H592 H 0.07558 0.53607 0.46702 0.0
H593 H 0.08126 0.52544 0.50336 0.0
H594 H 0.15246 0.57234 0.55754 0.0
H595 H 0.10763 0.55229 0.5424 0.0
H596 H 0.2233 0.66701 0.43069 0.0
H597 H 0.18013 0.63989 0.41344 0.0
H598 H 0.25873 0.66024 0.45937 0.0
H599 H 0.26312 0.65577 0.49736 0.0
C600 C 0.58593 0.18568 0.62028 0.0
C601 C 0.5704 0.14624 0.62268 0.0
C602 C 0.58427 0.15254 0.67616 0.0
C603 C 0.60175 0.19216 0.67339 0.0
N604 N 0.62535 0.24713 0.64217 0.0
N605 N 0.56116 0.09263 0.65123 0.0
C606 C 0.60463 0.20896 0.64519 0.0
C607 C 0.57129 0.12976 0.65019 0.0
N608 N 0.5814 0.20073 0.59455 0.0
N609 N 0.58001 0.13664 0.70365 0.0
H610 H 0.55183 0.0751 0.63264 0.0
H611 H 0.56501 0.07986 0.66982 0.0
H612 H 0.59151 0.15233 0.72296 0.0
H613 H 0.56333 0.10795 0.70761 0.0
H614 H 0.58838 0.22869 0.59244 0.0
H615 H 0.56768 0.18457 0.57589 0.0
H616 H 0.63181 0.26077 0.62169 0.0
H617 H 0.63877 0.26522 0.65995 0.0
C618 C 0.44083 0.55264 0.81627 0.0
C619 C 0.43733 0.56415 0.78729 0.0
C620 C 0.41371 0.60325 0.80848 0.0
C621 C 0.42146 0.5952 0.83749 0.0
N622 N 0.44844 0.56724 0.86888 0.0
N623 N 0.42548 0.60434 0.75554 0.0
C624 C 0.43649 0.57108 0.84141 0.0
C625 C 0.42509 0.59052 0.78329 0.0
N626 N 0.44749 0.52349 0.81978 0.0
N627 N 0.3941 0.62172 0.80495 0.0
H628 H 0.43336 0.59553 0.73648 0.0
H629 H 0.42093 0.62671 0.75172 0.0
H630 H 0.38468 0.63101 0.82278 0.0
H631 H 0.38407 0.62471 0.78448 0.0
H632 H 0.44634 0.5112 0.8403 0.0
H633 H 0.45075 0.50923 0.80186 0.0
H634 H 0.46329 0.55325 0.87244 0.0
H635 H 0.4468 0.58104 0.88779 0.0
C636 C 0.85227 0.41318 0.95532 0.0
C637 C 0.89117 0.43982 0.95709 0.0
C638 C 0.88459 0.44994 0.01006 0.0
C639 C 0.84533 0.4252 0.00777 0.0
N640 N 0.7906 0.38692 0.97782 0.0
N641 N 0.94348 0.48839 0.98431 0.0
C642 C 0.82878 0.40801 0.98021 0.0
C643 C 0.90713 0.4595 0.984 0.0
N644 N 0.83811 0.39183 0.9302 0.0
N645 N 0.90037 0.46411 0.0372 0.0
H646 H 0.96089 0.49634 0.96567 0.0
H647 H 0.95558 0.50656 1.00225 0.0
H648 H 0.88463 0.45953 0.05653 0.0
H649 H 0.92917 0.47848 0.041 0.0
H650 H 0.81093 0.36915 0.92856 0.0
H651 H 0.85447 0.39487 0.91153 0.0
H652 H 0.77657 0.37702 0.95768 0.0
H653 H 0.77254 0.38138 0.99579 0.0
C654 C 0.45723 0.9047 0.14744 0.0
C655 C 0.47118 0.89178 0.1241 0.0
C656 C 0.45228 0.83338 0.15135 0.0
C657 C 0.44105 0.84756 0.17566 0.0
N658 N 0.43684 0.89811 0.19889 0.0
N659 N 0.48632 0.84635 0.10474 0.0
C660 C 0.44444 0.88356 0.17423 0.0
C661 C 0.46994 0.85681 0.12632 0.0
N662 N 0.45568 0.93689 0.14372 0.0
N663 N 0.44465 0.79696 0.15171 0.0
H664 H 0.49841 0.8622 0.08559 0.0
H665 H 0.49031 0.82338 0.10666 0.0
H666 H 0.43165 0.77886 0.16958 0.0
H667 H 0.4483 0.78359 0.13342 0.0
H668 H 0.44204 0.94567 0.15839 0.0
H669 H 0.46585 0.95371 0.12479 0.0
H670 H 0.44277 0.92579 0.2005 0.0
H671 H 0.42707 0.88325 0.21878 0.0
C672 C 0.62074 0.49309 0.30559 0.0
C673 C 0.59466 0.46848 0.2842 0.0
C674 C 0.58049 0.41485 0.31634 0.0
C675 C 0.60974 0.43901 0.33598 0.0
N676 N 0.66453 0.50016 0.34419 0.0
N677 N 0.55643 0.40508 0.26605 0.0
C678 C 0.63186 0.4779 0.3292 0.0
C679 C 0.57657 0.42905 0.2886 0.0
N680 N 0.63391 0.53085 0.30416 0.0
N681 N 0.55517 0.37891 0.32465 0.0
H682 H 0.55383 0.41441 0.24509 0.0
H683 H 0.5457 0.37617 0.26721 0.0
H684 H 0.55551 0.3679 0.34544 0.0
H685 H 0.53133 0.36148 0.3122 0.0
H686 H 0.65003 0.54938 0.32099 0.0
H687 H 0.62562 0.54315 0.28781 0.0
H688 H 0.68325 0.5278 0.33801 0.0
H689 H 0.6752 0.49 0.36042 0.0
C690 C 0.45053 0.91125 0.34454 0.0
C691 C 0.44658 0.89541 0.37328 0.0
C692 C 0.42282 0.83309 0.35113 0.0
C693 C 0.43021 0.84954 0.32235 0.0
N694 N 0.45708 0.905 0.29157 0.0
N695 N 0.43489 0.84267 0.40411 0.0
C696 C 0.44566 0.88885 0.319 0.0
C697 C 0.43444 0.8567 0.37664 0.0
N698 N 0.45786 0.9474 0.34166 0.0
N699 N 0.40306 0.79488 0.35419 0.0
H700 H 0.4429 0.85901 0.42339 0.0
H701 H 0.43036 0.81566 0.40746 0.0
H702 H 0.39328 0.77647 0.33615 0.0
H703 H 0.39327 0.78142 0.37456 0.0
H704 H 0.45702 0.95919 0.32138 0.0
H705 H 0.4616 0.9647 0.35985 0.0
H706 H 0.47212 0.93392 0.28818 0.0
H707 H 0.45466 0.8896 0.27242 0.0
C708 C 0.5852 0.42069 0.54066 0.0
C709 C 0.56913 0.44409 0.53831 0.0
C710 C 0.58183 0.4509 0.48464 0.0
C711 C 0.60002 0.42952 0.48738 0.0
N712 N 0.62508 0.39955 0.51849 0.0
N713 N 0.5586 0.48748 0.5096 0.0
C714 C 0.60371 0.41623 0.5156 0.0
C715 C 0.56919 0.46086 0.51069 0.0
N716 N 0.58134 0.40146 0.56647 0.0
N717 N 0.57647 0.46156 0.45711 0.0
H718 H 0.54961 0.49588 0.52826 0.0
H719 H 0.5618 0.50365 0.49084 0.0
H720 H 0.58732 0.45683 0.43766 0.0
H721 H 0.5594 0.47309 0.45329 0.0
H722 H 0.58879 0.38084 0.56856 0.0
H723 H 0.56768 0.40373 0.58522 0.0
H724 H 0.63209 0.39286 0.53894 0.0
H725 H 0.63847 0.39509 0.50059 0.0
C726 C 0.1832 0.59937 0.713 0.0
C727 C 0.14448 0.57298 0.70944 0.0
C728 C 0.15125 0.57983 0.65526 0.0
C729 C 0.19059 0.60315 0.65869 0.0
N730 N 0.24505 0.63035 0.69067 0.0
N731 N 0.09268 0.53295 0.67736 0.0
C732 C 0.2069 0.61179 0.68753 0.0
C733 C 0.12878 0.56173 0.68059 0.0
N734 N 0.19713 0.61332 0.74062 0.0
N735 N 0.13514 0.57626 0.62798 0.0
H736 H 0.07533 0.51882 0.69538 0.0
H737 H 0.08106 0.52082 0.65689 0.0
H738 H 0.15057 0.5902 0.60911 0.0
H739 H 0.10625 0.5627 0.62464 0.0
H740 H 0.22417 0.63563 0.74421 0.0
H741 H 0.1807 0.60471 0.75983 0.0
H742 H 0.25843 0.63355 0.711 0.0
H743 H 0.26349 0.63981 0.67268 0.0
C744 C 0.57578 0.16957 0.87369 0.0
C745 C 0.5937 0.14809 0.87792 0.0
C746 C 0.63133 0.1765 0.83321 0.0
C747 C 0.60936 0.19332 0.82649 0.0
N748 N 0.55552 0.19975 0.83804 0.0
N749 N 0.63299 0.12521 0.85785 0.0
C750 C 0.5802 0.18834 0.84614 0.0
C751 C 0.61994 0.14985 0.85659 0.0
N752 N 0.55538 0.17293 0.89622 0.0
N753 N 0.66411 0.18719 0.81833 0.0
H754 H 0.62445 0.10431 0.87399 0.0
H755 H 0.64927 0.12307 0.84104 0.0
H756 H 0.67497 0.20844 0.80237 0.0
H757 H 0.68272 0.17815 0.82439 0.0
H758 H 0.54479 0.1912 0.89529 0.0
H759 H 0.55232 0.16042 0.917 0.0
H760 H 0.53162 0.19337 0.85037 0.0
H761 H 0.55658 0.21208 0.81755 0.0
C762 C 0.45535 0.57185 0.01212 0.0
C763 C 0.46432 0.59458 0.03798 0.0
C764 C 0.44597 0.6358 0.01281 0.0
C765 C 0.43495 0.61182 0.98757 0.0
N766 N 0.42313 0.55395 0.96458 0.0
N767 N 0.46342 0.64475 0.06501 0.0
C768 C 0.43804 0.57899 0.98757 0.0
C769 C 0.45808 0.62549 0.03896 0.0
N770 N 0.46403 0.54385 0.01086 0.0
N771 N 0.44671 0.66938 0.01124 0.0
H772 H 0.47352 0.63883 0.08433 0.0
H773 H 0.45532 0.66475 0.06818 0.0
H774 H 0.43822 0.67807 0.99248 0.0
H775 H 0.4585 0.69005 0.02757 0.0
H776 H 0.46242 0.52922 0.99149 0.0
H777 H 0.47528 0.53674 0.02881 0.0
H778 H 0.42087 0.52759 0.96462 0.0
H779 H 0.41 0.55811 0.94633 0.0
C780 C 0.89175 0.49148 0.18837 0.0
C781 C 0.8905 0.46683 0.21096 0.0
C782 C 0.84729 0.41282 0.18051 0.0
C783 C 0.84519 0.43753 0.15953 0.0
N784 N 0.85857 0.50053 0.14791 0.0
N785 N 0.86076 0.40419 0.23139 0.0
C786 C 0.8655 0.47694 0.16466 0.0
C787 C 0.86632 0.4275 0.2079 0.0
N788 N 0.91881 0.52859 0.18887 0.0
N789 N 0.83291 0.37569 0.17378 0.0
H790 H 0.87365 0.41397 0.25201 0.0
H791 H 0.84057 0.37575 0.23131 0.0
H792 H 0.82046 0.36402 0.1534 0.0
H793 H 0.83701 0.35738 0.18714 0.0
H794 H 0.92329 0.54683 0.17125 0.0
H795 H 0.93917 0.54034 0.20546 0.0
H796 H 0.86996 0.52895 0.15284 0.0
H797 H 0.83833 0.49121 0.13122 0.0
loop_
_geom_bond_atom_site_label_1
_geom_bond_atom_site_label_2
_geom_bond_distance
_geom_bond_site_symmetry_2
_ccdc_geom_bond_type
H0 C19 0.949 . S
H1 C20 0.950 . S
H2 C22 0.950 . S
H3 C23 0.950 . S
H4 C25 0.950 . S
H5 C28 0.950 . S
H6 C29 0.950 . S
H7 C31 0.951 . S
H8 C32 0.949 . S
H9 C34 0.949 . S
H10 C35 0.950 . S
H11 C37 0.950 . S
H12 C38 0.950 . S
H13 C40 0.950 1_655 S
H14 C43 0.950 . S
H15 C44 0.950 . S
H16 C46 0.951 . S
H17 C47 0.949 . S
C18 C19 1.376 . S
C18 C23 1.386 . S
C18 C24 1.483 . S
C19 H0 0.949 . S
C19 C18 1.376 . S
C19 C20 1.397 . S
C20 H1 0.950 . S
C20 C19 1.397 . S
C20 C21 1.391 . S
C21 C20 1.391 . S
C21 C22 1.405 . S
C22 H2 0.950 . S
C22 C21 1.405 . S
C22 C23 1.367 . S
C23 H3 0.950 . S
C23 C18 1.386 . S
C23 C22 1.367 . S
C24 C18 1.483 . S
C24 C25 1.382 1_655 S
C24 C26 1.403 . S
C25 H4 0.950 . S
C25 C24 1.382 1_455 S
C25 C41 1.411 . S
C26 C24 1.403 . S
C26 C27 1.489 . S
C26 C40 1.411 1_655 S
C27 C26 1.489 . S
C27 C28 1.383 . S
C27 C32 1.382 . S
C28 H5 0.950 . S
C28 C27 1.383 . S
C28 C29 1.395 . S
C29 H6 0.950 . S
C29 C28 1.395 . S
C29 C30 1.288 . S
C30 C29 1.288 . S
C30 C31 1.392 . S
C31 H7 0.951 . S
C31 C30 1.392 . S
C31 C32 1.392 . S
C32 H8 0.949 . S
C32 C27 1.382 . S
C32 C31 1.392 . S
C33 C34 1.376 . S
C33 C38 1.386 . S
C33 C39 1.483 . S
C34 H9 0.949 . S
C34 C33 1.376 . S
C34 C35 1.397 . S
C35 H10 0.950 . S
C35 C34 1.397 . S
C35 C36 1.391 . S
C36 C35 1.391 . S
C36 C37 1.405 . S
C37 H11 0.950 . S
C37 C36 1.405 . S
C37 C38 1.367 . S
C38 H12 0.950 . S
C38 C33 1.386 . S
C38 C37 1.367 . S
C39 C33 1.483 . S
C39 C40 1.382 . S
C39 C41 1.403 . S
C40 H13 0.950 1_455 S
C40 C26 1.411 1_455 S
C40 C39 1.382 . S
C41 C25 1.411 . S
C41 C39 1.403 . S
C41 C42 1.489 . S
C42 C41 1.489 . S
C42 C43 1.383 . S
C42 C47 1.382 . S
C43 H14 0.950 . S
C43 C42 1.383 . S
C43 C44 1.395 . S
C44 H15 0.950 . S
C44 C43 1.395 . S
C44 C45 1.288 . S
C45 C44 1.288 . S
C45 C46 1.392 . S
C46 H16 0.951 . S
C46 C45 1.392 . S
C46 C47 1.392 . S
C47 H17 0.949 . S
C47 C42 1.382 . S
C47 C46 1.392 . S
H48 C67 0.949 . S
H49 C68 0.950 . S
H50 C70 0.950 . S
H51 C71 0.950 . S
H52 C73 0.950 1_565 S
H53 C76 0.950 . S
H54 C77 0.950 . S
H55 C79 0.951 . S
H56 C80 0.949 . S
H57 C82 0.949 . S
H58 C83 0.950 . S
H59 C85 0.950 . S
H60 C86 0.950 . S
H61 C88 0.950 . S
H62 C91 0.950 . S
H63 C92 0.950 . S
H64 C94 0.951 . S
H65 C95 0.949 . S
C66 C67 1.376 . S
C66 C71 1.386 . S
C66 C72 1.483 . S
C67 H48 0.949 . S
C67 C66 1.376 . S
C67 C68 1.397 . S
C68 H49 0.950 . S
C68 C67 1.397 . S
C68 C69 1.391 . S
C69 C68 1.391 . S
C69 C70 1.405 . S
C70 H50 0.950 . S
C70 C69 1.405 . S
C70 C71 1.367 . S
C71 H51 0.950 . S
C71 C66 1.386 . S
C71 C70 1.367 . S
C72 C66 1.483 . S
C72 C73 1.382 1_565 S
C72 C74 1.403 . S
C73 H52 0.950 1_545 S
C73 C72 1.382 1_545 S
C73 C89 1.411 . S
C74 C72 1.403 . S
C74 C75 1.489 . S
C74 C88 1.411 1_565 S
C75 C74 1.489 . S
C75 C76 1.383 . S
C75 C80 1.382 . S
C76 H53 0.950 . S
C76 C75 1.383 . S
C76 C77 1.395 . S
C77 H54 0.950 . S
C77 C76 1.395 . S
C77 C78 1.288 . S
C78 C77 1.288 . S
C78 C79 1.392 . S
C79 H55 0.951 . S
C79 C78 1.392 . S
C79 C80 1.392 . S
C80 H56 0.949 . S
C80 C75 1.382 . S
C80 C79 1.392 . S
C81 C82 1.376 . S
C81 C86 1.386 . S
C81 C87 1.483 . S
C82 H57 0.949 . S
C82 C81 1.376 . S
C82 C83 1.397 . S
C83 H58 0.950 . S
C83 C82 1.397 . S
C83 C84 1.391 . S
C84 C83 1.391 . S
C84 C85 1.405 . S
C85 H59 0.950 . S
C85 C84 1.405 . S
C85 C86 1.367 . S
C86 H60 0.950 . S
C86 C81 1.386 . S
C86 C85 1.367 . S
C87 C81 1.483 . S
C87 C88 1.382 . S
C87 C89 1.403 . S
C88 H61 0.950 . S
C88 C74 1.411 1_545 S
C88 C87 1.382 . S
C89 C73 1.411 . S
C89 C87 1.403 . S
C89 C90 1.489 . S
C90 C89 1.489 . S
C90 C91 1.383 . S
C90 C95 1.382 . S
C91 H62 0.950 . S
C91 C90 1.383 . S
C91 C92 1.395 . S
C92 H63 0.950 . S
C92 C91 1.395 . S
C92 C93 1.288 . S
C93 C92 1.288 . S
C93 C94 1.392 . S
C94 H64 0.951 . S
C94 C93 1.392 . S
C94 C95 1.392 . S
C95 H65 0.949 . S
C95 C90 1.382 . S
C95 C94 1.392 . S
H96 C115 0.949 . S
H97 C116 0.950 . S
H98 C118 0.950 . S
H99 C119 0.950 . S
H100 C121 0.950 . S
H101 C124 0.950 . S
H102 C125 0.950 . S
H103 C127 0.951 . S
H104 C128 0.949 . S
H105 C130 0.949 . S
H106 C131 0.950 . S
H107 C133 0.950 . S
H108 C134 0.950 . S
H109 C136 0.950 . S
H110 C139 0.950 . S
H111 C140 0.950 . S
H112 C142 0.951 . S
H113 C143 0.949 . S
C114 C115 1.376 . S
C114 C119 1.386 . S
C114 C120 1.483 . S
C115 H96 0.949 . S
C115 C114 1.376 . S
C115 C116 1.397 . S
C116 H97 0.950 . S
C116 C115 1.397 . S
C116 C117 1.391 . S
C117 C116 1.391 . S
C117 C118 1.405 . S
C118 H98 0.950 . S
C118 C117 1.405 . S
C118 C119 1.367 . S
C119 H99 0.950 . S
C119 C114 1.386 . S
C119 C118 1.367 . S
C120 C114 1.483 . S
C120 C121 1.382 . S
C120 C122 1.403 . S
C121 H100 0.950 . S
C121 C120 1.382 . S
C121 C137 1.411 . S
C122 C120 1.403 . S
C122 C123 1.489 . S
C122 C136 1.411 . S
C123 C122 1.489 . S
C123 C124 1.383 . S
C123 C128 1.382 . S
C124 H101 0.950 . S
C124 C123 1.383 . S
C124 C125 1.395 . S
C125 H102 0.950 . S
C125 C124 1.395 . S
C125 C126 1.288 . S
C126 C125 1.288 . S
C126 C127 1.392 . S
C127 H103 0.951 . S
C127 C126 1.392 . S
C127 C128 1.392 . S
C128 H104 0.949 . S
C128 C123 1.382 . S
C128 C127 1.392 . S
C129 C130 1.376 . S
C129 C134 1.386 . S
C129 C135 1.483 . S
C130 H105 0.949 . S
C130 C129 1.376 . S
C130 C131 1.397 . S
C131 H106 0.950 . S
C131 C130 1.397 . S
C131 C132 1.391 . S
C132 C131 1.391 . S
C132 C133 1.405 . S
C133 H107 0.950 . S
C133 C132 1.405 . S
C133 C134 1.367 . S
C134 H108 0.950 . S
C134 C129 1.386 . S
C134 C133 1.367 . S
C135 C129 1.483 . S
C135 C136 1.382 . S
C135 C137 1.403 . S
C136 H109 0.950 . S
C136 C122 1.411 . S
C136 C135 1.382 . S
C137 C121 1.411 . S
C137 C135 1.403 . S
C137 C138 1.489 . S
C138 C137 1.489 . S
C138 C139 1.383 . S
C138 C143 1.382 . S
C139 H110 0.950 . S
C139 C138 1.383 . S
C139 C140 1.395 . S
C140 H111 0.950 . S
C140 C139 1.395 . S
C140 C141 1.288 . S
C141 C140 1.288 . S
C141 C142 1.392 . S
C142 H112 0.951 . S
C142 C141 1.392 . S
C142 C143 1.392 . S
C143 H113 0.949 . S
C143 C138 1.382 . S
C143 C142 1.392 . S
H144 C163 0.949 . S
H145 C164 0.950 . S
H146 C166 0.950 . S
H147 C167 0.950 . S
H148 C169 0.950 1_655 S
H149 C172 0.950 . S
H150 C173 0.950 . S
H151 C175 0.951 . S
H152 C176 0.949 . S
H153 C178 0.949 . S
H154 C179 0.950 . S
H155 C181 0.950 . S
H156 C182 0.950 . S
H157 C184 0.950 . S
H158 C187 0.950 . S
H159 C188 0.950 . S
H160 C190 0.951 . S
H161 C191 0.949 . S
C162 C163 1.376 . S
C162 C167 1.386 . S
C162 C168 1.483 . S
C163 H144 0.949 . S
C163 C162 1.376 . S
C163 C164 1.397 . S
C164 H145 0.950 . S
C164 C163 1.397 . S
C164 C165 1.391 . S
C165 C164 1.391 . S
C165 C166 1.405 . S
C166 H146 0.950 . S
C166 C165 1.405 . S
C166 C167 1.367 . S
C167 H147 0.950 . S
C167 C162 1.386 . S
C167 C166 1.367 . S
C168 C162 1.483 . S
C168 C169 1.382 . S
C168 C170 1.403 . S
C169 H148 0.950 1_455 S
C169 C168 1.382 . S
C169 C185 1.411 1_455 S
C170 C168 1.403 . S
C170 C171 1.489 . S
C170 C184 1.411 . S
C171 C170 1.489 . S
C171 C172 1.383 . S
C171 C176 1.382 . S
C172 H149 0.950 . S
C172 C171 1.383 . S
C172 C173 1.395 . S
C173 H150 0.950 . S
C173 C172 1.395 . S
C173 C174 1.288 . S
C174 C173 1.288 . S
C174 C175 1.392 . S
C175 H151 0.951 . S
C175 C174 1.392 . S
C175 C176 1.392 . S
C176 H152 0.949 . S
C176 C171 1.382 . S
C176 C175 1.392 . S
C177 C178 1.376 . S
C177 C182 1.386 . S
C177 C183 1.483 . S
C178 H153 0.949 . S
C178 C177 1.376 . S
C178 C179 1.397 . S
C179 H154 0.950 . S
C179 C178 1.397 . S
C179 C180 1.391 . S
C180 C179 1.391 . S
C180 C181 1.405 . S
C181 H155 0.950 . S
C181 C180 1.405 . S
C181 C182 1.367 . S
C182 H156 0.950 . S
C182 C177 1.386 . S
C182 C181 1.367 . S
C183 C177 1.483 . S
C183 C184 1.382 1_655 S
C183 C185 1.403 . S
C184 H157 0.950 . S
C184 C170 1.411 . S
C184 C183 1.382 1_455 S
C185 C169 1.411 1_655 S
C185 C183 1.403 . S
C185 C186 1.489 . S
C186 C185 1.489 . S
C186 C187 1.383 . S
C186 C191 1.382 . S
C187 H158 0.950 . S
C187 C186 1.383 . S
C187 C188 1.395 . S
C188 H159 0.950 . S
C188 C187 1.395 . S
C188 C189 1.288 . S
C189 C188 1.288 . S
C189 C190 1.392 . S
C190 H160 0.951 . S
C190 C189 1.392 . S
C190 C191 1.392 . S
C191 H161 0.949 . S
C191 C186 1.382 . S
C191 C190 1.392 . S
H192 C211 0.949 . S
H193 C212 0.950 . S
H194 C214 0.950 . S
H195 C215 0.950 . S
H196 C217 0.950 . S
H197 C220 0.950 . S
H198 C221 0.950 . S
H199 C223 0.951 . S
H200 C224 0.949 . S
H201 C226 0.949 . S
H202 C227 0.950 . S
H203 C229 0.950 . S
H204 C230 0.950 . S
H205 C232 0.950 1_565 S
H206 C235 0.950 . S
H207 C236 0.950 . S
H208 C238 0.951 . S
H209 C239 0.949 . S
C210 C211 1.376 . S
C210 C215 1.386 1_554 S
C210 C216 1.483 1_554 S
C211 H192 0.949 . S
C211 C210 1.376 . S
C211 C212 1.397 . S
C212 H193 0.950 . S
C212 C211 1.397 . S
C212 C213 1.391 . S
C213 C212 1.391 . S
C213 C214 1.405 . S
C214 H194 0.950 . S
C214 C213 1.405 . S
C214 C215 1.367 1_554 S
C215 H195 0.950 . S
C215 C210 1.386 1_556 S
C215 C214 1.367 1_556 S
C216 C210 1.483 1_556 S
C216 C217 1.382 1_556 S
C216 C218 1.403 . S
C217 H196 0.950 . S
C217 C216 1.382 1_554 S
C217 C233 1.411 1_545 S
C218 C216 1.403 . S
C218 C219 1.489 . S
C218 C232 1.411 . S
C219 C218 1.489 . S
C219 C220 1.383 . S
C219 C224 1.382 . S
C220 H197 0.950 . S
C220 C219 1.383 . S
C220 C221 1.395 . S
C221 H198 0.950 . S
C221 C220 1.395 . S
C221 C222 1.288 . S
C222 C221 1.288 . S
C222 C223 1.392 . S
C223 H199 0.951 . S
C223 C222 1.392 . S
C223 C224 1.392 . S
C224 H200 0.949 . S
C224 C219 1.382 . S
C224 C223 1.392 . S
C225 C226 1.376 . S
C225 C230 1.386 . S
C225 C231 1.483 . S
C226 H201 0.949 . S
C226 C225 1.376 . S
C226 C227 1.397 . S
C227 H202 0.950 . S
C227 C226 1.397 . S
C227 C228 1.391 . S
C228 C227 1.391 . S
C228 C229 1.405 . S
C229 H203 0.950 . S
C229 C228 1.405 . S
C229 C230 1.367 . S
C230 H204 0.950 . S
C230 C225 1.386 . S
C230 C229 1.367 . S
C231 C225 1.483 . S
C231 C232 1.382 1_565 S
C231 C233 1.403 1_556 S
C232 H205 0.950 1_545 S
C232 C218 1.411 . S
C232 C231 1.382 1_545 S
C233 C217 1.411 1_565 S
C233 C231 1.403 1_554 S
C233 C234 1.489 . S
C234 C233 1.489 . S
C234 C235 1.383 . S
C234 C239 1.382 . S
C235 H206 0.950 . S
C235 C234 1.383 . S
C235 C236 1.395 . S
C236 H207 0.950 . S
C236 C235 1.395 . S
C236 C237 1.288 . S
C237 C236 1.288 . S
C237 C238 1.392 . S
C238 H208 0.951 . S
C238 C237 1.392 . S
C238 C239 1.392 . S
C239 H209 0.949 . S
C239 C234 1.382 . S
C239 C238 1.392 . S
H240 C259 0.949 . S
H241 C260 0.950 . S
H242 C262 0.950 . S
H243 C263 0.950 . S
H244 C265 0.950 . S
H245 C268 0.950 . S
H246 C269 0.950 . S
H247 C271 0.951 . S
H248 C272 0.949 . S
H249 C274 0.949 . S
H250 C275 0.950 . S
H251 C277 0.950 . S
H252 C278 0.950 . S
H253 C280 0.950 . S
H254 C283 0.950 . S
H255 C284 0.950 . S
H256 C286 0.951 . S
H257 C287 0.949 . S
C258 C259 1.376 . S
C258 C263 1.386 . S
C258 C264 1.483 . S
C259 H240 0.949 . S
C259 C258 1.376 . S
C259 C260 1.397 . S
C260 H241 0.950 . S
C260 C259 1.397 . S
C260 C261 1.391 . S
C261 C260 1.391 . S
C261 C262 1.405 . S
C262 H242 0.950 . S
C262 C261 1.405 . S
C262 C263 1.367 . S
C263 H243 0.950 . S
C263 C258 1.386 . S
C263 C262 1.367 . S
C264 C258 1.483 . S
C264 C265 1.382 . S
C264 C266 1.403 . S
C265 H244 0.950 . S
C265 C264 1.382 . S
C265 C281 1.411 . S
C266 C264 1.403 . S
C266 C267 1.489 . S
C266 C280 1.411 . S
C267 C266 1.489 . S
C267 C268 1.383 . S
C267 C272 1.382 . S
C268 H245 0.950 . S
C268 C267 1.383 . S
C268 C269 1.395 . S
C269 H246 0.950 . S
C269 C268 1.395 . S
C269 C270 1.288 . S
C270 C269 1.288 . S
C270 C271 1.392 . S
C271 H247 0.951 . S
C271 C270 1.392 . S
C271 C272 1.392 . S
C272 H248 0.949 . S
C272 C267 1.382 . S
C272 C271 1.392 . S
C273 C274 1.376 . S
C273 C278 1.386 . S
C273 C279 1.483 . S
C274 H249 0.949 . S
C274 C273 1.376 . S
C274 C275 1.397 . S
C275 H250 0.950 . S
C275 C274 1.397 . S
C275 C276 1.391 . S
C276 C275 1.391 . S
C276 C277 1.405 . S
C277 H251 0.950 . S
C277 C276 1.405 . S
C277 C278 1.367 . S
C278 H252 0.950 . S
C278 C273 1.386 . S
C278 C277 1.367 . S
C279 C273 1.483 . S
C279 C280 1.382 . S
C279 C281 1.403 . S
C280 H253 0.950 . S
C280 C266 1.411 . S
C280 C279 1.382 . S
C281 C265 1.411 . S
C281 C279 1.403 . S
C281 C282 1.489 . S
C282 C281 1.489 . S
C282 C283 1.383 . S
C282 C287 1.382 . S
C283 H254 0.950 . S
C283 C282 1.383 . S
C283 C284 1.395 . S
C284 H255 0.950 . S
C284 C283 1.395 . S
C284 C285 1.288 . S
C285 C284 1.288 . S
C285 C286 1.392 . S
C286 H256 0.951 . S
C286 C285 1.392 . S
C286 C287 1.392 . S
C287 H257 0.949 . S
C287 C282 1.382 . S
C287 C286 1.392 . S
In288 O289 2.294 . S
In288 O290 2.326 . S
In288 O294 2.266 . S
In288 O295 2.326 . S
In288 O296 2.266 . S
In288 O297 2.326 . S
In288 O299 2.294 . S
In288 O300 2.326 . S
O289 In288 2.294 . S
O289 C298 1.240 . S
O290 In288 2.326 . S
O290 C298 1.252 . S
C291 O294 1.252 . S
C291 O295 1.260 . S
C292 O299 1.240 . S
C292 O300 1.252 . S
C293 O296 1.252 . S
C293 O297 1.260 . S
O294 In288 2.266 . S
O294 C291 1.252 . S
O295 In288 2.326 . S
O295 C291 1.260 . S
O296 In288 2.266 . S
O296 C293 1.252 . S
O297 In288 2.326 . S
O297 C293 1.260 . S
C298 O289 1.240 . S
C298 O290 1.252 . S
O299 In288 2.294 . S
O299 C292 1.240 . S
O300 In288 2.326 . S
O300 C292 1.252 . S
In301 O302 2.294 . S
In301 O303 2.326 . S
In301 O307 2.266 . S
In301 O308 2.326 . S
In301 O309 2.266 . S
In301 O310 2.326 . S
In301 O312 2.294 . S
In301 O313 2.326 . S
O302 In301 2.294 . S
O302 C311 1.240 . S
O303 In301 2.326 . S
O303 C311 1.252 . S
C304 O307 1.252 . S
C304 O308 1.260 . S
C305 O312 1.240 . S
C305 O313 1.252 . S
C306 O309 1.252 . S
C306 O310 1.260 . S
O307 In301 2.266 . S
O307 C304 1.252 . S
O308 In301 2.326 . S
O308 C304 1.260 . S
O309 In301 2.266 . S
O309 C306 1.252 . S
O310 In301 2.326 . S
O310 C306 1.260 . S
C311 O302 1.240 . S
C311 O303 1.252 . S
O312 In301 2.294 . S
O312 C305 1.240 . S
O313 In301 2.326 . S
O313 C305 1.252 . S
In314 O315 2.294 . S
In314 O316 2.326 . S
In314 O320 2.266 . S
In314 O321 2.326 . S
In314 O322 2.266 . S
In314 O323 2.326 . S
In314 O325 2.294 . S
In314 O326 2.326 . S
O315 In314 2.294 . S
O315 C324 1.240 . S
O316 In314 2.326 . S
O316 C324 1.252 . S
C317 O320 1.252 . S
C317 O321 1.260 . S
C318 O325 1.240 . S
C318 O326 1.252 . S
C319 O322 1.252 . S
C319 O323 1.260 . S
O320 In314 2.266 . S
O320 C317 1.252 . S
O321 In314 2.326 . S
O321 C317 1.260 . S
O322 In314 2.266 . S
O322 C319 1.252 . S
O323 In314 2.326 . S
O323 C319 1.260 . S
C324 O315 1.240 . S
C324 O316 1.252 . S
O325 In314 2.294 . S
O325 C318 1.240 . S
O326 In314 2.326 . S
O326 C318 1.252 . S
In327 O328 2.294 . S
In327 O329 2.326 . S
In327 O333 2.266 . S
In327 O334 2.326 . S
In327 O335 2.266 . S
In327 O336 2.326 . S
In327 O338 2.294 . S
In327 O339 2.326 . S
O328 In327 2.294 . S
O328 C337 1.240 . S
O329 In327 2.326 . S
O329 C337 1.252 . S
C330 O333 1.252 . S
C330 O334 1.260 . S
C331 O338 1.240 . S
C331 O339 1.252 . S
C332 O335 1.252 . S
C332 O336 1.260 . S
O333 In327 2.266 . S
O333 C330 1.252 . S
O334 In327 2.326 . S
O334 C330 1.260 . S
O335 In327 2.266 . S
O335 C332 1.252 . S
O336 In327 2.326 . S
O336 C332 1.260 . S
C337 O328 1.240 . S
C337 O329 1.252 . S
O338 In327 2.294 . S
O338 C331 1.240 . S
O339 In327 2.326 . S
O339 C331 1.252 . S
In340 O341 2.294 . S
In340 O342 2.326 . S
In340 O346 2.266 . S
In340 O347 2.326 . S
In340 O348 2.266 . S
In340 O349 2.326 . S
In340 O351 2.294 . S
In340 O352 2.326 . S
O341 In340 2.294 . S
O341 C350 1.240 . S
O342 In340 2.326 . S
O342 C350 1.252 . S
C343 O346 1.252 . S
C343 O347 1.260 . S
C344 O351 1.240 . S
C344 O352 1.252 . S
C345 O348 1.252 . S
C345 O349 1.260 . S
O346 In340 2.266 . S
O346 C343 1.252 . S
O347 In340 2.326 . S
O347 C343 1.260 . S
O348 In340 2.266 . S
O348 C345 1.252 . S
O349 In340 2.326 . S
O349 C345 1.260 . S
C350 O341 1.240 . S
C350 O342 1.252 . S
O351 In340 2.294 . S
O351 C344 1.240 . S
O352 In340 2.326 . S
O352 C344 1.252 . S
In353 O354 2.294 . S
In353 O355 2.326 . S
In353 O359 2.266 . S
In353 O360 2.326 . S
In353 O361 2.266 . S
In353 O362 2.326 . S
In353 O364 2.294 . S
In353 O365 2.326 . S
O354 In353 2.294 . S
O354 C363 1.240 . S
O355 In353 2.326 . S
O355 C363 1.252 . S
C356 O359 1.252 . S
C356 O360 1.260 . S
C357 O364 1.240 . S
C357 O365 1.252 . S
C358 O361 1.252 . S
C358 O362 1.260 . S
O359 In353 2.266 . S
O359 C356 1.252 . S
O360 In353 2.326 . S
O360 C356 1.260 . S
O361 In353 2.266 . S
O361 C358 1.252 . S
O362 In353 2.326 . S
O362 C358 1.260 . S
C363 O354 1.240 . S
C363 O355 1.252 . S
O364 In353 2.294 . S
O364 C357 1.240 . S
O365 In353 2.326 . S
O365 C357 1.252 . S
C366 C367 1.363 . S
C366 C372 1.379 . S
C366 N374 1.356 . S
C367 C366 1.363 . S
C367 C373 1.363 . S
C368 C369 1.363 . S
C368 C373 1.379 . S
C368 N375 1.356 . S
C369 C368 1.363 . S
C369 C372 1.363 . S
N370 C372 1.356 . S
N370 H382 0.984 . S
N370 H383 0.985 . S
N371 C373 1.356 . S
N371 H376 0.984 . S
N371 H377 0.985 . S
C372 C366 1.379 . S
C372 C369 1.363 . S
C372 N370 1.356 . S
C373 C367 1.363 . S
C373 C368 1.379 . S
C373 N371 1.356 . S
N374 C366 1.356 . S
N374 H380 0.984 . S
N374 H381 0.984 . S
N375 C368 1.356 . S
N375 H378 0.984 . S
N375 H379 0.985 . S
H376 N371 0.984 . S
H377 N371 0.985 . S
H378 N375 0.984 . S
H379 N375 0.985 . S
H380 N374 0.984 . S
H381 N374 0.984 . S
H382 N370 0.984 . S
H383 N370 0.985 . S
C384 C385 1.363 . S
C384 C390 1.379 . S
C384 N392 1.356 . S
C385 C384 1.363 . S
C385 C391 1.363 . S
C386 C387 1.363 . S
C386 C391 1.379 . S
C386 N393 1.356 . S
C387 C386 1.363 . S
C387 C390 1.363 . S
N388 C390 1.356 . S
N388 H400 0.984 . S
N388 H401 0.985 . S
N389 C391 1.356 . S
N389 H394 0.984 . S
N389 H395 0.985 . S
C390 C384 1.379 . S
C390 C387 1.363 . S
C390 N388 1.356 . S
C391 C385 1.363 . S
C391 C386 1.379 . S
C391 N389 1.356 . S
N392 C384 1.356 . S
N392 H398 0.984 . S
N392 H399 0.984 . S
N393 C386 1.356 . S
N393 H396 0.984 . S
N393 H397 0.985 . S
H394 N389 0.984 . S
H395 N389 0.985 . S
H396 N393 0.984 . S
H397 N393 0.985 . S
H398 N392 0.984 . S
H399 N392 0.984 . S
H400 N388 0.984 . S
H401 N388 0.985 . S
C402 C403 1.363 . S
C402 C408 1.379 . S
C402 N410 1.356 . S
C403 C402 1.363 . S
C403 C409 1.363 . S
C404 C405 1.363 . S
C404 C409 1.379 . S
C404 N411 1.356 . S
C405 C404 1.363 . S
C405 C408 1.363 . S
N406 C408 1.356 . S
N406 H418 0.984 . S
N406 H419 0.985 . S
N407 C409 1.356 . S
N407 H412 0.984 . S
N407 H413 0.985 . S
C408 C402 1.379 . S
C408 C405 1.363 . S
C408 N406 1.356 . S
C409 C403 1.363 . S
C409 C404 1.379 . S
C409 N407 1.356 . S
N410 C402 1.356 . S
N410 H416 0.984 . S
N410 H417 0.984 . S
N411 C404 1.356 . S
N411 H414 0.984 . S
N411 H415 0.985 . S
H412 N407 0.984 . S
H413 N407 0.985 . S
H414 N411 0.984 . S
H415 N411 0.985 . S
H416 N410 0.984 . S
H417 N410 0.984 . S
H418 N406 0.984 . S
H419 N406 0.985 . S
C420 C421 1.363 . S
C420 C426 1.379 . S
C420 N428 1.356 . S
C421 C420 1.363 . S
C421 C427 1.363 . S
C422 C423 1.363 . S
C422 C427 1.379 . S
C422 N429 1.356 . S
C423 C422 1.363 . S
C423 C426 1.363 . S
N424 C426 1.356 . S
N424 H436 0.984 . S
N424 H437 0.985 . S
N425 C427 1.356 . S
N425 H430 0.984 . S
N425 H431 0.985 . S
C426 C420 1.379 . S
C426 C423 1.363 . S
C426 N424 1.356 . S
C427 C421 1.363 . S
C427 C422 1.379 . S
C427 N425 1.356 . S
N428 C420 1.356 . S
N428 H434 0.984 . S
N428 H435 0.984 . S
N429 C422 1.356 . S
N429 H432 0.984 . S
N429 H433 0.985 . S
H430 N425 0.984 . S
H431 N425 0.985 . S
H432 N429 0.984 . S
H433 N429 0.985 . S
H434 N428 0.984 . S
H435 N428 0.984 . S
H436 N424 0.984 . S
H437 N424 0.985 . S
C438 C439 1.363 . S
C438 C444 1.379 . S
C438 N446 1.356 . S
C439 C438 1.363 . S
C439 C445 1.363 . S
C440 C441 1.363 . S
C440 C445 1.379 . S
C440 N447 1.356 . S
C441 C440 1.363 . S
C441 C444 1.363 . S
N442 C444 1.356 . S
N442 H454 0.984 . S
N442 H455 0.985 . S
N443 C445 1.356 . S
N443 H448 0.984 . S
N443 H449 0.985 . S
C444 C438 1.379 . S
C444 C441 1.363 . S
C444 N442 1.356 . S
C445 C439 1.363 . S
C445 C440 1.379 . S
C445 N443 1.356 . S
N446 C438 1.356 . S
N446 H452 0.984 . S
N446 H453 0.984 . S
N447 C440 1.356 . S
N447 H450 0.984 . S
N447 H451 0.985 . S
H448 N443 0.984 . S
H449 N443 0.985 . S
H450 N447 0.984 . S
H451 N447 0.985 . S
H452 N446 0.984 . S
H453 N446 0.984 . S
H454 N442 0.984 . S
H455 N442 0.985 . S
C456 C457 1.363 . S
C456 C462 1.379 . S
C456 N464 1.356 . S
C457 C456 1.363 . S
C457 C463 1.363 . S
C458 C459 1.363 . S
C458 C463 1.379 . S
C458 N465 1.356 . S
C459 C458 1.363 . S
C459 C462 1.363 . S
N460 C462 1.356 . S
N460 H472 0.984 . S
N460 H473 0.985 . S
N461 C463 1.356 . S
N461 H466 0.984 . S
N461 H467 0.985 . S
C462 C456 1.379 . S
C462 C459 1.363 . S
C462 N460 1.356 . S
C463 C457 1.363 . S
C463 C458 1.379 . S
C463 N461 1.356 . S
N464 C456 1.356 . S
N464 H470 0.984 . S
N464 H471 0.984 . S
N465 C458 1.356 . S
N465 H468 0.984 . S
N465 H469 0.985 . S
H466 N461 0.984 . S
H467 N461 0.985 . S
H468 N465 0.984 . S
H469 N465 0.985 . S
H470 N464 0.984 . S
H471 N464 0.984 . S
H472 N460 0.984 . S
H473 N460 0.985 . S
C474 C475 1.363 . S
C474 C480 1.379 . S
C474 N482 1.356 . S
C475 C474 1.363 . S
C475 C481 1.363 . S
C476 C477 1.363 . S
C476 C481 1.379 . S
C476 N483 1.356 . S
C477 C476 1.363 . S
C477 C480 1.363 . S
N478 C480 1.356 . S
N478 H490 0.984 . S
N478 H491 0.985 . S
N479 C481 1.356 . S
N479 H484 0.984 . S
N479 H485 0.985 . S
C480 C474 1.379 . S
C480 C477 1.363 . S
C480 N478 1.356 . S
C481 C475 1.363 . S
C481 C476 1.379 . S
C481 N479 1.356 . S
N482 C474 1.356 . S
N482 H488 0.984 . S
N482 H489 0.984 . S
N483 C476 1.356 . S
N483 H486 0.984 . S
N483 H487 0.985 . S
H484 N479 0.984 . S
H485 N479 0.985 . S
H486 N483 0.984 . S
H487 N483 0.985 . S
H488 N482 0.984 . S
H489 N482 0.984 . S
H490 N478 0.984 . S
H491 N478 0.985 . S
C492 C493 1.363 . S
C492 C498 1.379 . S
C492 N500 1.356 . S
C493 C492 1.363 . S
C493 C499 1.363 . S
C494 C495 1.363 . S
C494 C499 1.379 . S
C494 N501 1.356 . S
C495 C494 1.363 . S
C495 C498 1.363 . S
N496 C498 1.356 . S
N496 H508 0.984 . S
N496 H509 0.985 . S
N497 C499 1.356 . S
N497 H502 0.984 . S
N497 H503 0.985 . S
C498 C492 1.379 . S
C498 C495 1.363 . S
C498 N496 1.356 . S
C499 C493 1.363 . S
C499 C494 1.379 . S
C499 N497 1.356 . S
N500 C492 1.356 . S
N500 H506 0.984 . S
N500 H507 0.984 . S
N501 C494 1.356 . S
N501 H504 0.984 . S
N501 H505 0.985 . S
H502 N497 0.984 . S
H503 N497 0.985 . S
H504 N501 0.984 . S
H505 N501 0.985 . S
H506 N500 0.984 . S
H507 N500 0.984 . S
H508 N496 0.984 . S
H509 N496 0.985 . S
C510 C511 1.363 . S
C510 C516 1.379 . S
C510 N518 1.356 . S
C511 C510 1.363 . S
C511 C517 1.363 . S
C512 C513 1.363 . S
C512 C517 1.379 . S
C512 N519 1.356 . S
C513 C512 1.363 . S
C513 C516 1.363 . S
N514 C516 1.356 . S
N514 H526 0.984 . S
N514 H527 0.985 . S
N515 C517 1.356 . S
N515 H520 0.984 . S
N515 H521 0.985 . S
C516 C510 1.379 . S
C516 C513 1.363 . S
C516 N514 1.356 . S
C517 C511 1.363 . S
C517 C512 1.379 . S
C517 N515 1.356 . S
N518 C510 1.356 . S
N518 H524 0.984 . S
N518 H525 0.984 . S
N519 C512 1.356 . S
N519 H522 0.984 . S
N519 H523 0.985 . S
H520 N515 0.984 . S
H521 N515 0.985 . S
H522 N519 0.984 . S
H523 N519 0.985 . S
H524 N518 0.984 . S
H525 N518 0.984 . S
H526 N514 0.984 . S
H527 N514 0.985 . S
C528 C529 1.363 . S
C528 C534 1.379 . S
C528 N536 1.356 . S
C529 C528 1.363 . S
C529 C535 1.363 . S
C530 C531 1.363 . S
C530 C535 1.379 . S
C530 N537 1.356 . S
C531 C530 1.363 . S
C531 C534 1.363 . S
N532 C534 1.356 . S
N532 H544 0.984 . S
N532 H545 0.985 . S
N533 C535 1.356 1_556 S
N533 H538 0.984 . S
N533 H539 0.985 . S
C534 C528 1.379 . S
C534 C531 1.363 . S
C534 N532 1.356 . S
C535 C529 1.363 . S
C535 C530 1.379 . S
C535 N533 1.356 1_554 S
N536 C528 1.356 . S
N536 H542 0.984 . S
N536 H543 0.984 . S
N537 C530 1.356 . S
N537 H540 0.984 . S
N537 H541 0.985 1_554 S
H538 N533 0.984 . S
H539 N533 0.985 . S
H540 N537 0.984 . S
H541 N537 0.985 1_556 S
H542 N536 0.984 . S
H543 N536 0.984 . S
H544 N532 0.984 . S
H545 N532 0.985 . S
C546 C547 1.363 . S
C546 C552 1.379 . S
C546 N554 1.356 . S
C547 C546 1.363 . S
C547 C553 1.363 . S
C548 C549 1.363 . S
C548 C553 1.379 . S
C548 N555 1.356 . S
C549 C548 1.363 . S
C549 C552 1.363 . S
N550 C552 1.356 . S
N550 H562 0.984 . S
N550 H563 0.985 . S
N551 C553 1.356 . S
N551 H556 0.984 . S
N551 H557 0.985 . S
C552 C546 1.379 . S
C552 C549 1.363 . S
C552 N550 1.356 . S
C553 C547 1.363 . S
C553 C548 1.379 . S
C553 N551 1.356 . S
N554 C546 1.356 . S
N554 H560 0.984 . S
N554 H561 0.984 . S
N555 C548 1.356 . S
N555 H558 0.984 . S
N555 H559 0.985 . S
H556 N551 0.984 . S
H557 N551 0.985 . S
H558 N555 0.984 . S
H559 N555 0.985 . S
H560 N554 0.984 . S
H561 N554 0.984 . S
H562 N550 0.984 . S
H563 N550 0.985 . S
C564 C565 1.363 . S
C564 C570 1.379 . S
C564 N572 1.356 . S
C565 C564 1.363 . S
C565 C571 1.363 . S
C566 C567 1.363 . S
C566 C571 1.379 . S
C566 N573 1.356 . S
C567 C566 1.363 . S
C567 C570 1.363 . S
N568 C570 1.356 . S
N568 H580 0.984 . S
N568 H581 0.985 . S
N569 C571 1.356 . S
N569 H574 0.984 . S
N569 H575 0.985 . S
C570 C564 1.379 . S
C570 C567 1.363 . S
C570 N568 1.356 . S
C571 C565 1.363 . S
C571 C566 1.379 . S
C571 N569 1.356 . S
N572 C564 1.356 . S
N572 H578 0.984 . S
N572 H579 0.984 . S
N573 C566 1.356 . S
N573 H576 0.984 . S
N573 H577 0.985 . S
H574 N569 0.984 . S
H575 N569 0.985 . S
H576 N573 0.984 . S
H577 N573 0.985 . S
H578 N572 0.984 . S
H579 N572 0.984 . S
H580 N568 0.984 . S
H581 N568 0.985 . S
C582 C583 1.363 . S
C582 C588 1.379 . S
C582 N590 1.356 . S
C583 C582 1.363 . S
C583 C589 1.363 . S
C584 C585 1.363 . S
C584 C589 1.379 . S
C584 N591 1.356 . S
C585 C584 1.363 . S
C585 C588 1.363 . S
N586 C588 1.356 . S
N586 H598 0.984 . S
N586 H599 0.985 . S
N587 C589 1.356 . S
N587 H592 0.984 . S
N587 H593 0.985 . S
C588 C582 1.379 . S
C588 C585 1.363 . S
C588 N586 1.356 . S
C589 C583 1.363 . S
C589 C584 1.379 . S
C589 N587 1.356 . S
N590 C582 1.356 . S
N590 H596 0.984 . S
N590 H597 0.984 . S
N591 C584 1.356 . S
N591 H594 0.984 . S
N591 H595 0.985 . S
H592 N587 0.984 . S
H593 N587 0.985 . S
H594 N591 0.984 . S
H595 N591 0.985 . S
H596 N590 0.984 . S
H597 N590 0.984 . S
H598 N586 0.984 . S
H599 N586 0.985 . S
C600 C601 1.363 . S
C600 C606 1.379 . S
C600 N608 1.356 . S
C601 C600 1.363 . S
C601 C607 1.363 . S
C602 C603 1.363 . S
C602 C607 1.379 . S
C602 N609 1.356 . S
C603 C602 1.363 . S
C603 C606 1.363 . S
N604 C606 1.356 . S
N604 H616 0.984 . S
N604 H617 0.985 . S
N605 C607 1.356 . S
N605 H610 0.984 . S
N605 H611 0.985 . S
C606 C600 1.379 . S
C606 C603 1.363 . S
C606 N604 1.356 . S
C607 C601 1.363 . S
C607 C602 1.379 . S
C607 N605 1.356 . S
N608 C600 1.356 . S
N608 H614 0.984 . S
N608 H615 0.984 . S
N609 C602 1.356 . S
N609 H612 0.984 . S
N609 H613 0.985 . S
H610 N605 0.984 . S
H611 N605 0.985 . S
H612 N609 0.984 . S
H613 N609 0.985 . S
H614 N608 0.984 . S
H615 N608 0.984 . S
H616 N604 0.984 . S
H617 N604 0.985 . S
C618 C619 1.363 . S
C618 C624 1.379 . S
C618 N626 1.356 . S
C619 C618 1.363 . S
C619 C625 1.363 . S
C620 C621 1.363 . S
C620 C625 1.379 . S
C620 N627 1.356 . S
C621 C620 1.363 . S
C621 C624 1.363 . S
N622 C624 1.356 . S
N622 H634 0.984 . S
N622 H635 0.985 . S
N623 C625 1.356 . S
N623 H628 0.984 . S
N623 H629 0.985 . S
C624 C618 1.379 . S
C624 C621 1.363 . S
C624 N622 1.356 . S
C625 C619 1.363 . S
C625 C620 1.379 . S
C625 N623 1.356 . S
N626 C618 1.356 . S
N626 H632 0.984 . S
N626 H633 0.984 . S
N627 C620 1.356 . S
N627 H630 0.984 . S
N627 H631 0.985 . S
H628 N623 0.984 . S
H629 N623 0.985 . S
H630 N627 0.984 . S
H631 N627 0.985 . S
H632 N626 0.984 . S
H633 N626 0.984 . S
H634 N622 0.984 . S
H635 N622 0.985 . S
C636 C637 1.363 . S
C636 C642 1.379 . S
C636 N644 1.356 . S
C637 C636 1.363 . S
C637 C643 1.363 . S
C638 C639 1.363 1_556 S
C638 C643 1.379 . S
C638 N645 1.356 1_556 S
C639 C638 1.363 1_554 S
C639 C642 1.363 1_554 S
N640 C642 1.356 . S
N640 H652 0.984 . S
N640 H653 0.985 1_556 S
N641 C643 1.356 . S
N641 H646 0.984 . S
N641 H647 0.985 . S
C642 C636 1.379 . S
C642 C639 1.363 1_556 S
C642 N640 1.356 . S
C643 C637 1.363 . S
C643 C638 1.379 . S
C643 N641 1.356 . S
N644 C636 1.356 . S
N644 H650 0.984 . S
N644 H651 0.984 . S
N645 C638 1.356 1_554 S
N645 H648 0.984 . S
N645 H649 0.985 . S
H646 N641 0.984 . S
H647 N641 0.985 . S
H648 N645 0.984 . S
H649 N645 0.985 . S
H650 N644 0.984 . S
H651 N644 0.984 . S
H652 N640 0.984 . S
H653 N640 0.985 1_554 S
C654 C655 1.363 . S
C654 C660 1.379 . S
C654 N662 1.356 . S
C655 C654 1.363 . S
C655 C661 1.363 . S
C656 C657 1.363 . S
C656 C661 1.379 . S
C656 N663 1.356 . S
C657 C656 1.363 . S
C657 C660 1.363 . S
N658 C660 1.356 . S
N658 H670 0.984 . S
N658 H671 0.985 . S
N659 C661 1.356 . S
N659 H664 0.984 . S
N659 H665 0.985 . S
C660 C654 1.379 . S
C660 C657 1.363 . S
C660 N658 1.356 . S
C661 C655 1.363 . S
C661 C656 1.379 . S
C661 N659 1.356 . S
N662 C654 1.356 . S
N662 H668 0.984 . S
N662 H669 0.984 . S
N663 C656 1.356 . S
N663 H666 0.984 . S
N663 H667 0.985 . S
H664 N659 0.984 . S
H665 N659 0.985 . S
H666 N663 0.984 . S
H667 N663 0.985 . S
H668 N662 0.984 . S
H669 N662 0.984 . S
H670 N658 0.984 . S
H671 N658 0.985 . S
C672 C673 1.363 . S
C672 C678 1.379 . S
C672 N680 1.356 . S
C673 C672 1.363 . S
C673 C679 1.363 . S
C674 C675 1.363 . S
C674 C679 1.379 . S
C674 N681 1.356 . S
C675 C674 1.363 . S
C675 C678 1.363 . S
N676 C678 1.356 . S
N676 H688 0.984 . S
N676 H689 0.985 . S
N677 C679 1.356 . S
N677 H682 0.984 . S
N677 H683 0.985 . S
C678 C672 1.379 . S
C678 C675 1.363 . S
C678 N676 1.356 . S
C679 C673 1.363 . S
C679 C674 1.379 . S
C679 N677 1.356 . S
N680 C672 1.356 . S
N680 H686 0.984 . S
N680 H687 0.984 . S
N681 C674 1.356 . S
N681 H684 0.984 . S
N681 H685 0.985 . S
H682 N677 0.984 . S
H683 N677 0.985 . S
H684 N681 0.984 . S
H685 N681 0.985 . S
H686 N680 0.984 . S
H687 N680 0.984 . S
H688 N676 0.984 . S
H689 N676 0.985 . S
C690 C691 1.363 . S
C690 C696 1.379 . S
C690 N698 1.356 . S
C691 C690 1.363 . S
C691 C697 1.363 . S
C692 C693 1.363 . S
C692 C697 1.379 . S
C692 N699 1.356 . S
C693 C692 1.363 . S
C693 C696 1.363 . S
N694 C696 1.356 . S
N694 H706 0.984 . S
N694 H707 0.985 . S
N695 C697 1.356 . S
N695 H700 0.984 . S
N695 H701 0.985 . S
C696 C690 1.379 . S
C696 C693 1.363 . S
C696 N694 1.356 . S
C697 C691 1.363 . S
C697 C692 1.379 . S
C697 N695 1.356 . S
N698 C690 1.356 . S
N698 H704 0.984 . S
N698 H705 0.984 . S
N699 C692 1.356 . S
N699 H702 0.984 . S
N699 H703 0.985 . S
H700 N695 0.984 . S
H701 N695 0.985 . S
H702 N699 0.984 . S
H703 N699 0.985 . S
H704 N698 0.984 . S
H705 N698 0.984 . S
H706 N694 0.984 . S
H707 N694 0.985 . S
C708 C709 1.363 . S
C708 C714 1.379 . S
C708 N716 1.356 . S
C709 C708 1.363 . S
C709 C715 1.363 . S
C710 C711 1.363 . S
C710 C715 1.379 . S
C710 N717 1.356 . S
C711 C710 1.363 . S
C711 C714 1.363 . S
N712 C714 1.356 . S
N712 H724 0.984 . S
N712 H725 0.985 . S
N713 C715 1.356 . S
N713 H718 0.984 . S
N713 H719 0.985 . S
C714 C708 1.379 . S
C714 C711 1.363 . S
C714 N712 1.356 . S
C715 C709 1.363 . S
C715 C710 1.379 . S
C715 N713 1.356 . S
N716 C708 1.356 . S
N716 H722 0.984 . S
N716 H723 0.984 . S
N717 C710 1.356 . S
N717 H720 0.984 . S
N717 H721 0.985 . S
H718 N713 0.984 . S
H719 N713 0.985 . S
H720 N717 0.984 . S
H721 N717 0.985 . S
H722 N716 0.984 . S
H723 N716 0.984 . S
H724 N712 0.984 . S
H725 N712 0.985 . S
C726 C727 1.363 . S
C726 C732 1.379 . S
C726 N734 1.356 . S
C727 C726 1.363 . S
C727 C733 1.363 . S
C728 C729 1.363 . S
C728 C733 1.379 . S
C728 N735 1.356 . S
C729 C728 1.363 . S
C729 C732 1.363 . S
N730 C732 1.356 . S
N730 H742 0.984 . S
N730 H743 0.985 . S
N731 C733 1.356 . S
N731 H736 0.984 . S
N731 H737 0.985 . S
C732 C726 1.379 . S
C732 C729 1.363 . S
C732 N730 1.356 . S
C733 C727 1.363 . S
C733 C728 1.379 . S
C733 N731 1.356 . S
N734 C726 1.356 . S
N734 H740 0.984 . S
N734 H741 0.984 . S
N735 C728 1.356 . S
N735 H738 0.984 . S
N735 H739 0.985 . S
H736 N731 0.984 . S
H737 N731 0.985 . S
H738 N735 0.984 . S
H739 N735 0.985 . S
H740 N734 0.984 . S
H741 N734 0.984 . S
H742 N730 0.984 . S
H743 N730 0.985 . S
C744 C745 1.363 . S
C744 C750 1.379 . S
C744 N752 1.356 . S
C745 C744 1.363 . S
C745 C751 1.363 . S
C746 C747 1.363 . S
C746 C751 1.379 . S
C746 N753 1.356 . S
C747 C746 1.363 . S
C747 C750 1.363 . S
N748 C750 1.356 . S
N748 H760 0.984 . S
N748 H761 0.985 . S
N749 C751 1.356 . S
N749 H754 0.984 . S
N749 H755 0.985 . S
C750 C744 1.379 . S
C750 C747 1.363 . S
C750 N748 1.356 . S
C751 C745 1.363 . S
C751 C746 1.379 . S
C751 N749 1.356 . S
N752 C744 1.356 . S
N752 H758 0.984 . S
N752 H759 0.984 . S
N753 C746 1.356 . S
N753 H756 0.984 . S
N753 H757 0.985 . S
H754 N749 0.984 . S
H755 N749 0.985 . S
H756 N753 0.984 . S
H757 N753 0.985 . S
H758 N752 0.984 . S
H759 N752 0.984 . S
H760 N748 0.984 . S
H761 N748 0.985 . S
C762 C763 1.363 . S
C762 C768 1.379 1_554 S
C762 N770 1.356 . S
C763 C762 1.363 . S
C763 C769 1.363 . S
C764 C765 1.363 1_554 S
C764 C769 1.379 . S
C764 N771 1.356 1_554 S
C765 C764 1.363 1_556 S
C765 C768 1.363 . S
N766 C768 1.356 . S
N766 H778 0.984 . S
N766 H779 0.985 . S
N767 C769 1.356 . S
N767 H772 0.984 . S
N767 H773 0.985 . S
C768 C762 1.379 1_556 S
C768 C765 1.363 . S
C768 N766 1.356 . S
C769 C763 1.363 . S
C769 C764 1.379 . S
C769 N767 1.356 . S
N770 C762 1.356 . S
N770 H776 0.984 . S
N770 H777 0.984 . S
N771 C764 1.356 1_556 S
N771 H774 0.984 . S
N771 H775 0.985 1_556 S
H772 N767 0.984 . S
H773 N767 0.985 . S
H774 N771 0.984 . S
H775 N771 0.985 1_554 S
H776 N770 0.984 . S
H777 N770 0.984 . S
H778 N766 0.984 . S
H779 N766 0.985 . S
C780 C781 1.363 . S
C780 C786 1.379 . S
C780 N788 1.356 . S
C781 C780 1.363 . S
C781 C787 1.363 . S
C782 C783 1.363 . S
C782 C787 1.379 . S
C782 N789 1.356 . S
C783 C782 1.363 . S
C783 C786 1.363 . S
N784 C786 1.356 . S
N784 H796 0.984 . S
N784 H797 0.985 . S
N785 C787 1.356 . S
N785 H790 0.984 . S
N785 H791 0.985 . S
C786 C780 1.379 . S
C786 C783 1.363 . S
C786 N784 1.356 . S
C787 C781 1.363 . S
C787 C782 1.379 . S
C787 N785 1.356 . S
N788 C780 1.356 . S
N788 H794 0.984 . S
N788 H795 0.984 . S
N789 C782 1.356 . S
N789 H792 0.984 . S
N789 H793 0.985 . S
H790 N785 0.984 . S
H791 N785 0.985 . S
H792 N789 0.984 . S
H793 N789 0.985 . S
H794 N788 0.984 . S
H795 N788 0.984 . S
H796 N784 0.984 . S
H797 N784 0.985 . S
C369 C358 1.572 . S
C367 C45 1.572 . S
C385 C84 1.572 . S
C387 C293 1.574 . S
C403 C126 1.553 . S
C405 C311 1.573 . S
C421 C189 1.564 . S
C423 C324 1.564 . S
C441 C332 1.576 . S
C439 C228 1.573 . S
C457 C270 1.551 . S
C459 C344 1.572 . S
C475 C69 1.565 . S
C477 C306 1.574 . S
C493 C141 1.571 . S
C495 C319 1.571 . S
C511 C174 1.551 . S
C513 C337 1.572 . S
C531 C343 1.576 . S
C529 C213 1.566 . S
C549 C363 1.564 . S
C547 C285 1.564 . S
C567 C298 1.573 . S
C565 C30 1.553 . S
C583 C36 1.595 . S
C585 C304 1.602 . S
C601 C93 1.605 . S
C603 C317 1.605 . S
C621 C331 1.600 . S
C619 C117 1.581 . S
C637 C180 1.600 . S
C639 C345 1.607 . S
C657 C357 1.595 . S
C655 C237 1.597 . S
C675 C292 1.599 . S
C673 C261 1.580 . S
C693 C356 1.605 . S
C691 C78 1.566 . S
C709 C132 1.596 . S
C711 C291 1.602 . S
C729 C305 1.599 . S
C727 C165 1.580 . S
C745 C222 1.559 . S
C747 C318 1.596 . S
C763 C276 1.600 . S
C765 C330 1.606 . S
C781 C21 1.581 . S
C783 C350 1.600 . S
