# Generated by pormake.
# Topology tsx, (6,3)-cn, num edge types: 1
# Building blocks:
#     Node 0, Type 0, BuildingBlock: MIDCAF_clean_sbu_0, # of connection points: 6
#     Node 1, Type 0, BuildingBlock: MIDCAF_clean_sbu_0, # of connection points: 6
#     Node 2, Type 1, BuildingBlock: BELTOD_clean_linker_0, # of connection points: 3
#     Node 3, Type 1, BuildingBlock: BELTOD_clean_linker_0, # of connection points: 3
#     Node 4, Type 1, BuildingBlock: BELTOD_clean_linker_0, # of connection points: 3
#     Node 5, Type 1, BuildingBlock: BELTOD_clean_linker_0, # of connection points: 3
#     Edge 6, Type (0, 1), BuildingBlock: FUNLAD_clean_linker_0, # of connection points: 2
#     Edge 7, Type (0, 1), BuildingBlock: FUNLAD_clean_linker_0, # of connection points: 2
#     Edge 8, Type (0, 1), BuildingBlock: FUNLAD_clean_linker_0, # of connection points: 2
#     Edge 9, Type (0, 1), BuildingBlock: FUNLAD_clean_linker_0, # of connection points: 2
#     Edge 10, Type (0, 1), BuildingBlock: FUNLAD_clean_linker_0, # of connection points: 2
#     Edge 11, Type (0, 1), BuildingBlock: FUNLAD_clean_linker_0, # of connection points: 2
#     Edge 12, Type (0, 1), BuildingBlock: FUNLAD_clean_linker_0, # of connection points: 2
#     Edge 13, Type (0, 1), BuildingBlock: FUNLAD_clean_linker_0, # of connection points: 2
#     Edge 14, Type (0, 1), BuildingBlock: FUNLAD_clean_linker_0, # of connection points: 2
#     Edge 15, Type (0, 1), BuildingBlock: FUNLAD_clean_linker_0, # of connection points: 2
#     Edge 16, Type (0, 1), BuildingBlock: FUNLAD_clean_linker_0, # of connection points: 2
#     Edge 17, Type (0, 1), BuildingBlock: FUNLAD_clean_linker_0, # of connection points: 2
# Relax obj value: 0.110
# Max RMSD: 0.178
# Mean RMSD: 0.105
data_MOF--net-tsx--node1-MIDCAF_clean_sbu_0--node2-BELTOD_clean_linker_0--edge1-FUNLAD_clean_linker_0
_symmetry_space_group_name_H-M    P1
_symmetry_Int_Tables_number       1
_symmetry_cell_setting            triclinic
loop_
_symmetry_equiv_pos_as_xyz
'x, y, z'
_cell_length_a     25.191164
_cell_length_b     26.299235
_cell_length_c     49.073122
_cell_angle_alpha  91.098753
_cell_angle_beta   95.115242
_cell_angle_gamma 90.224671
loop_
_atom_site_label
_atom_site_type_symbol
_atom_site_fract_x
_atom_site_fract_y
_atom_site_fract_z
_atom_type_partial_charge
Zn0 Zn 0.92787 0.01965 0.98088 0.0
Zn1 Zn 0.11044 0.01819 0.04623 0.0
Zn2 Zn 0.02201 0.01873 0.0132 0.0
C3 C 0.08375 0.11974 0.03857 0.0
C4 C 0.13342 0.96788 0.99851 0.0
O5 O 0.96024 0.97584 0.03286 0.0
O6 O 0.88523 0.9816 0.00591 0.0
C7 C 0.95988 0.12063 0.99196 0.0
O8 O 0.04691 0.09878 0.02215 0.0
O9 O 0.11643 0.09271 0.05281 0.0
O10 O 0.15645 0.98507 0.0207 0.0
O11 O 0.08337 0.97606 0.99245 0.0
O12 O 0.92244 0.09505 0.97948 0.0
O13 O 0.99947 0.0985 0.0052 0.0
O14 O 0.03684 0.9808 0.97436 0.0
O15 O 0.95811 0.98162 0.95024 0.0
C16 C 0.00693 0.96999 0.95232 0.0
O17 O 1.00542 0.9827 0.05201 0.0
O18 O 0.08414 0.97715 0.07558 0.0
C19 C 0.91038 0.96511 0.02733 0.0
C20 C 0.0345 0.9692 0.0736 0.0
Zn21 Zn 0.62698 0.49784 0.52513 0.0
Zn22 Zn 0.42613 0.50957 0.48094 0.0
Zn23 Zn 0.52702 0.50548 0.50333 0.0
C24 C 0.48879 0.46778 0.44158 0.0
C25 C 0.46046 0.60919 0.49511 0.0
O26 O 0.52426 0.47094 0.54371 0.0
O27 O 0.60824 0.47412 0.56133 0.0
C28 C 0.62005 0.43771 0.47844 0.0
O29 O 0.52474 0.47128 0.46195 0.0
O30 O 0.44192 0.48305 0.44408 0.0
O31 O 0.41882 0.58379 0.48778 0.0
O32 O 0.50555 0.58683 0.50023 0.0
O33 O 0.65203 0.44747 0.49913 0.0
O34 O 0.57325 0.45769 0.476 0.0
O35 O 0.55954 0.58398 0.50917 0.0
O36 O 0.64537 0.57035 0.52034 0.0
C37 C 0.60757 0.60071 0.51445 0.0
O38 O 0.47481 0.46169 0.52891 0.0
O39 O 0.39494 0.46269 0.50615 0.0
C40 C 0.55986 0.46394 0.56381 0.0
C41 C 0.42545 0.44758 0.52613 0.0
P42 P 0.11193 0.10198 0.39218 0.0
H43 H 0.08609 0.18697 0.42793 0.0
H44 H 1.00122 0.21711 0.44289 0.0
H45 H 0.92197 0.08366 0.40602 0.0
H46 H 0.00707 0.05289 0.39184 0.0
H47 H 0.22722 0.10171 0.40588 0.0
H48 H 0.28676 0.04348 0.43178 0.0
H49 H 0.15084 0.95296 0.44949 0.0
H50 H 0.09152 0.0122 0.42405 0.0
H51 H 0.03305 0.12901 0.34823 0.0
H52 H 0.14755 0.0093 0.36411 0.0
O53 O 0.14453 0.15547 0.3863 0.0
H54 H 1.00135 0.08764 0.305 0.0
H55 H 0.11802 0.96888 0.32017 0.0
C56 C 0.05254 0.11844 0.40817 0.0
C57 C 0.05068 0.1637 0.42357 0.0
C58 C 1.00226 0.18083 0.43212 0.0
C59 C 0.95506 0.15303 0.42516 0.0
C60 C 0.95771 0.1061 0.41125 0.0
C61 C 1.00629 0.08855 0.40318 0.0
C62 C 0.15491 0.06169 0.41347 0.0
C63 C 0.21017 0.0698 0.41573 0.0
C64 C 0.24425 0.0362 0.43035 0.0
C65 C 0.22365 0.99355 0.44278 0.0
C66 C 0.16804 0.9859 0.44063 0.0
C67 C 0.13401 0.01963 0.42603 0.0
C68 C 0.09201 0.07187 0.35959 0.0
C69 C 0.05159 0.09389 0.3423 0.0
C70 C 0.03374 0.07028 0.31746 0.0
C71 C 0.05692 0.02468 0.30903 0.0
C72 C 0.09837 0.00329 0.32623 0.0
C73 C 0.1157 0.02667 0.35132 0.0
P74 P 0.08405 0.9399 0.62171 0.0
H75 H 0.03306 0.9095 0.56826 0.0
H76 H 0.94032 0.89204 0.55172 0.0
H77 H 0.89025 0.94575 0.62914 0.0
H78 H 0.98324 0.96238 0.64564 0.0
H79 H 0.19575 0.96391 0.61932 0.0
H80 H 0.24341 0.04247 0.61148 0.0
H81 H 0.09307 0.12033 0.59665 0.0
H82 H 0.0457 0.04146 0.60517 0.0
H83 H 0.0881 0.85434 0.65892 0.0
H84 H 0.09055 0.01814 0.66528 0.0
O85 O 0.11564 0.89005 0.60932 0.0
H86 H 0.09589 0.8494 0.70891 0.0
H87 H 0.09775 0.01357 0.71505 0.0
C88 C 0.01512 0.93608 0.60835 0.0
C89 C 1.00202 0.91816 0.58152 0.0
C90 C 0.94887 0.90854 0.57204 0.0
C91 C 0.90777 0.91692 0.58923 0.0
C92 C 0.92097 0.93796 0.61557 0.0
C93 C 0.97419 0.94762 0.625 0.0
C94 C 0.11727 0.99667 0.61221 0.0
C95 C 0.17305 0.99771 0.61392 0.0
C96 C 0.20025 0.04269 0.60943 0.0
C97 C 0.17212 0.08774 0.60334 0.0
C98 C 0.11599 0.08644 0.60153 0.0
C99 C 0.08879 0.04126 0.60606 0.0
C100 C 0.08996 0.93653 0.65844 0.0
C101 C 0.09063 0.8892 0.67108 0.0
C102 C 0.09478 0.88645 0.69962 0.0
C103 C 0.09806 0.9311 0.71595 0.0
C104 C 0.09656 0.97848 0.70309 0.0
C105 C 0.09226 0.98114 0.67459 0.0
P106 P 0.62416 0.62019 0.88176 0.0
H107 H 0.59937 0.63649 0.93865 0.0
H108 H 0.52279 0.67495 0.95833 0.0
H109 H 0.44474 0.69244 0.87698 0.0
H110 H 0.52028 0.65289 0.85768 0.0
H111 H 0.73911 0.61009 0.89187 0.0
H112 H 0.79584 0.54962 0.91761 0.0
H113 H 0.65581 0.47306 0.94181 0.0
H114 H 0.59921 0.53495 0.91654 0.0
H115 H 0.63473 0.65118 0.82564 0.0
H116 H 0.56878 0.52449 0.8661 0.0
O117 O 0.65994 0.67235 0.87709 0.0
H118 H 0.60107 0.61496 0.78134 0.0
H119 H 0.53445 0.48802 0.82163 0.0
C120 C 0.56503 0.64062 0.89676 0.0
C121 C 0.56512 0.64734 0.92515 0.0
C122 C 0.52151 0.66983 0.93633 0.0
C123 C 0.47751 0.68681 0.91923 0.0
C124 C 0.47731 0.67893 0.89081 0.0
C125 C 0.52075 0.65634 0.87972 0.0
C126 C 0.665 0.57741 0.90263 0.0
C127 C 0.72057 0.58077 0.90304 0.0
C128 C 0.75301 0.54585 0.9176 0.0
C129 C 0.73044 0.50639 0.93176 0.0
C130 C 0.67455 0.50342 0.93148 0.0
C131 C 0.6421 0.53858 0.91692 0.0
C132 C 0.60486 0.59017 0.84913 0.0
C133 C 0.61353 0.61524 0.825 0.0
C134 C 0.59375 0.59473 0.79967 0.0
C135 C 0.56469 0.54884 0.79801 0.0
C136 C 0.55699 0.52323 0.82225 0.0
C137 C 0.5767 0.54396 0.84765 0.0
P138 P 0.58253 0.43853 0.10644 0.0
H139 H 0.5362 0.38964 0.05593 0.0
H140 H 0.4444 0.37629 0.03692 0.0
H141 H 0.38962 0.47142 0.10148 0.0
H142 H 0.4819 0.48325 0.12083 0.0
H143 H 0.6953 0.45516 0.10175 0.0
H144 H 0.74768 0.53077 0.09376 0.0
H145 H 0.60324 0.61926 0.08423 0.0
H146 H 0.55102 0.54321 0.09259 0.0
H147 H 0.5548 0.35851 0.14282 0.0
H148 H 0.60442 0.51571 0.15047 0.0
O149 O 0.6144 0.38654 0.09687 0.0
H150 H 0.552 0.35515 0.19252 0.0
H151 H 0.60112 0.51282 0.19987 0.0
C152 C 0.51565 0.43639 0.09012 0.0
C153 C 0.50447 0.40806 0.06582 0.0
C154 C 0.45183 0.40088 0.05481 0.0
C155 C 0.40935 0.42236 0.0678 0.0
C156 C 0.42121 0.45351 0.09124 0.0
C157 C 0.47395 0.46047 0.10229 0.0
C158 C 0.61924 0.49336 0.09712 0.0
C159 C 0.67479 0.49062 0.09744 0.0
C160 C 0.70471 0.53391 0.09288 0.0
C161 C 0.67961 0.581 0.08823 0.0
C162 C 0.62375 0.58359 0.0879 0.0
C163 C 0.59381 0.54008 0.09237 0.0
C164 C 0.58059 0.43702 0.14299 0.0
C165 C 0.56521 0.39223 0.1552 0.0
C166 C 0.56334 0.39046 0.18356 0.0
C167 C 0.57676 0.43362 0.20016 0.0
C168 C 0.59157 0.47864 0.18772 0.0
C169 C 0.59324 0.48038 0.15938 0.0
C170 C 0.09596 0.20341 0.01666 0.0
C171 C 0.09083 0.17528 0.04031 0.0
C172 C 0.11698 0.25291 0.01886 0.0
C173 C 0.13224 0.2749 0.0448 0.0
C174 C 0.12161 0.24847 0.06828 0.0
C175 C 0.10192 0.1988 0.06608 0.0
C176 C 0.1654 0.3217 0.04856 0.0
C177 C 0.20556 0.3309 0.03289 0.0
C178 C 0.2525 0.36376 0.04186 0.0
C179 C 0.28722 0.37789 0.02242 0.0
C180 C 0.33691 0.39988 0.03063 0.0
C181 C 0.35329 0.40781 0.05855 0.0
H182 H 0.24321 0.36315 0.08559 0.0
C183 C 0.31732 0.39632 0.0779 0.0
C184 C 0.26765 0.37452 0.06972 0.0
H185 H 0.32878 0.40101 0.09961 0.0
H186 H 0.08776 0.18582 0.99657 0.0
H187 H 0.12355 0.2729 0.00037 0.0
H188 H 0.13262 0.26466 0.08848 0.0
H189 H 0.09808 0.17775 0.08458 0.0
H190 H 0.16266 0.34356 0.06736 0.0
H191 H 0.20783 0.30886 0.01407 0.0
H192 H 0.27684 0.36994 0.00085 0.0
H193 H 0.36327 0.40899 0.01512 0.0
C194 C 0.21944 0.94567 0.98051 0.0
C195 C 0.1647 0.936 0.98085 0.0
C196 C 0.25194 0.91127 0.96802 0.0
C197 C 0.23051 0.86593 0.95592 0.0
C198 C 0.17515 0.85789 0.95453 0.0
C199 C 0.14244 0.89251 0.96714 0.0
C200 C 0.26575 0.82625 0.94548 0.0
C201 C 0.31448 0.81738 0.95821 0.0
C202 C 0.35396 0.78072 0.94865 0.0
C203 C 0.40681 0.78469 0.96034 0.0
C204 C 0.44642 0.75325 0.95136 0.0
C205 C 0.43415 0.71656 0.93056 0.0
H206 H 0.30078 0.73743 0.91936 0.0
C207 C 0.38088 0.71119 0.9195 0.0
C208 C 0.34113 0.74288 0.92843 0.0
H209 H 0.36992 0.68266 0.90377 0.0
H210 H 0.23748 0.97926 0.99065 0.0
H211 H 0.29408 0.9198 0.96839 0.0
H212 H 0.1576 0.82362 0.94492 0.0
H213 H 0.10039 0.88397 0.96735 0.0
H214 H 0.25055 0.80382 0.9277 0.0
H215 H 0.32717 0.83944 0.97661 0.0
H216 H 0.41792 0.81327 0.97604 0.0
H217 H 0.48706 0.75905 0.9601 0.0
C218 C 0.91037 0.88835 0.05663 0.0
C219 C 0.88288 0.92945 0.04428 0.0
C220 C 0.88251 0.84962 0.06844 0.0
C221 C 0.82656 0.85122 0.06791 0.0
C222 C 0.79967 0.89409 0.05728 0.0
C223 C 0.82746 0.93259 0.04532 0.0
C224 C 0.79472 0.80779 0.0767 0.0
C225 C 0.80982 0.75909 0.07342 0.0
C226 C 0.77544 0.71437 0.07783 0.0
C227 C 0.78665 0.66788 0.06507 0.0
C228 C 0.75526 0.62488 0.06819 0.0
C229 C 0.71195 0.62722 0.08432 0.0
H230 H 0.72312 0.75128 0.10505 0.0
C231 C 0.7008 0.67361 0.09729 0.0
C232 C 0.7323 0.7167 0.0942 0.0
H233 H 0.66837 0.67634 0.11031 0.0
H234 H 0.95302 0.88469 0.05588 0.0
H235 H 0.90472 0.81788 0.07727 0.0
H236 H 0.75668 0.89657 0.05692 0.0
H237 H 0.80531 0.96399 0.03602 0.0
H238 H 0.75532 0.81615 0.08285 0.0
H239 H 0.84732 0.75139 0.06484 0.0
H240 H 0.8196 0.66486 0.05237 0.0
H241 H 0.76466 0.58984 0.05774 0.0
C242 C 0.92855 0.20197 0.01095 0.0
C243 C 0.95649 0.17617 0.99154 0.0
C244 C 0.91432 0.25285 0.00717 0.0
C245 C 0.92754 0.27839 0.9837 0.0
C246 C 0.9593 0.25344 0.96553 0.0
C247 C 0.97317 0.20247 0.96925 0.0
C248 C 0.90541 0.32905 0.97621 0.0
C249 C 0.85683 0.34427 0.98255 0.0
C250 C 0.82837 0.38911 0.97041 0.0
C251 C 0.78488 0.40895 0.98311 0.0
C252 C 0.75366 0.44766 0.97093 0.0
C253 C 0.76506 0.46721 0.94563 0.0
H254 H 0.87196 0.394 0.93416 0.0
C255 C 0.80897 0.4478 0.93308 0.0
C256 C 0.84018 0.4092 0.94524 0.0
H257 H 0.81821 0.46117 0.9133 0.0
H258 H 0.91537 0.18203 0.02828 0.0
H259 H 0.89153 0.27141 0.02213 0.0
H260 H 0.97051 0.27236 0.94746 0.0
H261 H 0.99454 0.1829 0.954 0.0
H262 H 0.92742 0.35167 0.96273 0.0
H263 H 0.83502 0.32134 0.99601 0.0
H264 H 0.77452 0.39395 0.00237 0.0
H265 H 0.72044 0.46208 0.98128 0.0
C266 C 0.59886 0.69095 0.53055 0.0
C267 C 0.62064 0.65511 0.51322 0.0
C268 C 0.62191 0.73956 0.53431 0.0
C269 C 0.66654 0.7528 0.52046 0.0
C270 C 0.68449 0.71835 0.50118 0.0
C271 C 0.66232 0.66974 0.49791 0.0
C272 C 0.69924 0.79924 0.52736 0.0
C273 C 0.70788 0.81798 0.55316 0.0
C274 C 0.75445 0.85112 0.56249 0.0
C275 C 0.77465 0.84944 0.59007 0.0
C276 C 0.82311 0.87294 0.59901 0.0
C277 C 0.85249 0.89911 0.58059 0.0
H278 H 0.76669 0.88457 0.5233 0.0
C279 C 0.83045 0.90397 0.55341 0.0
C280 C 0.78183 0.88049 0.54446 0.0
H281 H 0.85142 0.92495 0.53887 0.0
H282 H 0.56664 0.68029 0.54255 0.0
H283 H 0.6062 0.76581 0.54878 0.0
H284 H 0.71839 0.72765 0.49004 0.0
H285 H 0.67961 0.64261 0.48439 0.0
H286 H 0.72427 0.81185 0.51189 0.0
H287 H 0.68554 0.80208 0.56895 0.0
H288 H 0.75436 0.8275 0.60451 0.0
H289 H 0.83889 0.86812 0.62006 0.0
C290 C 0.62608 0.34824 0.46309 0.0
C291 C 0.63642 0.39971 0.45871 0.0
C292 C 0.65563 0.31053 0.45098 0.0
C293 C 0.6956 0.32398 0.43417 0.0
C294 C 0.70214 0.37525 0.4277 0.0
C295 C 0.67345 0.413 0.44033 0.0
C296 C 0.73512 0.28638 0.426 0.0
C297 C 0.75843 0.25404 0.44433 0.0
C298 C 0.80681 0.22468 0.43929 0.0
C299 C 0.84618 0.21802 0.46103 0.0
C300 C 0.89413 0.19397 0.45662 0.0
C301 C 0.90291 0.17493 0.43051 0.0
H302 H 0.78498 0.20825 0.39625 0.0
C303 C 0.86259 0.17957 0.409 0.0
C304 C 0.81505 0.20454 0.41328 0.0
H305 H 0.86856 0.16533 0.38864 0.0
H306 H 0.59829 0.33738 0.47761 0.0
H307 H 0.64931 0.27113 0.45594 0.0
H308 H 0.73263 0.38642 0.41473 0.0
H309 H 0.68269 0.45261 0.43717 0.0
H310 H 0.75127 0.29096 0.40638 0.0
H311 H 0.74597 0.25408 0.46499 0.0
H312 H 0.84057 0.23299 0.4813 0.0
H313 H 0.92454 0.19061 0.47354 0.0
C314 C 0.34899 0.4084 0.54695 0.0
C315 C 0.40411 0.41038 0.54462 0.0
C316 C 0.32636 0.36802 0.55994 0.0
C317 C 0.35846 0.32852 0.57109 0.0
C318 C 0.41399 0.33193 0.56999 0.0
C319 C 0.43666 0.37249 0.55692 0.0
C320 C 0.33506 0.2808 0.58092 0.0
C321 C 0.28423 0.2766 0.5873 0.0
C322 C 0.25804 0.22727 0.5924 0.0
C323 C 0.21206 0.22742 0.60661 0.0
C324 C 0.1842 0.18229 0.6102 0.0
C325 C 0.20146 0.13591 0.59943 0.0
H326 H 0.30925 0.17923 0.56955 0.0
C327 C 0.24737 0.13578 0.58508 0.0
C328 C 0.27527 0.18087 0.58153 0.0
H329 H 0.26117 0.10091 0.57604 0.0
H330 H 0.32285 0.43703 0.53759 0.0
H331 H 0.28343 0.36683 0.55964 0.0
H332 H 0.43974 0.30199 0.57824 0.0
H333 H 0.47917 0.37252 0.55506 0.0
H334 H 0.36052 0.24756 0.5821 0.0
H335 H 0.26013 0.31047 0.58875 0.0
H336 H 0.19751 0.26264 0.61493 0.0
H337 H 0.14939 0.18371 0.62164 0.0
C338 C 0.41642 0.68383 0.51418 0.0
C339 C 0.45538 0.66456 0.4982 0.0
C340 C 0.40179 0.73483 0.51272 0.0
C341 C 0.42456 0.76727 0.49437 0.0
C342 C 0.46702 0.74882 0.48023 0.0
C343 C 0.48248 0.69775 0.48218 0.0
C344 C 0.40211 0.81844 0.48763 0.0
C345 C 0.35177 0.83172 0.49203 0.0
C346 C 0.32418 0.87787 0.48103 0.0
C347 C 0.27809 0.89411 0.49273 0.0
C348 C 0.24648 0.93276 0.4809 0.0
C349 C 0.25997 0.95591 0.45687 0.0
H350 H 0.37311 0.89006 0.44737 0.0
C351 C 0.30706 0.94086 0.44562 0.0
C352 C 0.33881 0.90224 0.45751 0.0
H353 H 0.31822 0.95734 0.42688 0.0
H354 H 0.39565 0.65883 0.52702 0.0
H355 H 0.37125 0.74774 0.5253 0.0
H356 H 0.48608 0.77307 0.46635 0.0
H357 H 0.51279 0.68349 0.46973 0.0
H358 H 0.42621 0.84392 0.47664 0.0
H359 H 0.3275 0.80646 0.503 0.0
H360 H 0.26572 0.87594 0.51078 0.0
H361 H 0.21097 0.94394 0.49036 0.0
C362 C 0.96207 0.97219 0.10511 0.0
C363 C 0.01039 0.95157 0.09806 0.0
C364 C 0.94758 0.96833 0.13185 0.0
C365 C 0.98101 0.94375 0.15192 0.0
C366 C 0.02639 0.91833 0.14388 0.0
C367 C 0.04086 0.92234 0.11722 0.0
C368 C 0.97342 0.95427 0.18123 0.0
C369 C 1.00177 0.93188 0.20226 0.0
C370 C 0.00939 0.95562 0.23004 0.0
C371 C 0.02307 0.92515 0.25273 0.0
C372 C 0.03724 0.94732 0.27852 0.0
C373 C 0.03898 0.00058 0.28205 0.0
H374 H 1.00195 0.03374 0.21651 0.0
C375 C 0.02478 0.03095 0.2593 0.0
C376 C 0.01009 0.00883 0.23367 0.0
H377 H 0.02691 0.07203 0.26098 0.0
H378 H 0.93797 0.99523 0.09078 0.0
H379 H 0.91234 0.98816 0.13738 0.0
H380 H 0.05363 0.89903 0.15842 0.0
H381 H 0.07819 0.90581 0.11221 0.0
H382 H 0.94785 0.98606 0.1856 0.0
H383 H 0.02349 0.89713 0.19889 0.0
H384 H 0.02359 0.8841 0.25041 0.0
H385 H 0.04722 0.92269 0.29563 0.0
C386 C 0.07899 0.96253 0.92062 0.0
C387 C 0.02935 0.94666 0.92838 0.0
C388 C 0.09615 0.94623 0.89556 0.0
C389 C 0.06373 0.91385 0.8779 0.0
C390 C 0.01581 0.89548 0.88659 0.0
C391 C 0.99844 0.91222 0.91143 0.0
C392 C 0.07631 0.90126 0.84959 0.0
C393 C 0.09986 0.9349 0.83407 0.0
C394 C 0.10256 0.92888 0.80398 0.0
C395 C 0.1357 0.96205 0.79102 0.0
C396 C 0.1353 0.96189 0.76253 0.0
C397 C 0.10153 0.92859 0.74627 0.0
H398 H 0.04228 0.86928 0.79647 0.0
C399 C 0.06937 0.89441 0.75917 0.0
C400 C 0.06965 0.89462 0.78767 0.0
H401 H 0.04232 0.8688 0.74719 0.0
H402 H 0.10339 0.98933 0.93331 0.0
H403 H 0.13408 0.95994 0.88982 0.0
H404 H 0.99033 0.87021 0.87348 0.0
H405 H 0.96005 0.89934 0.91704 0.0
H406 H 0.0604 0.86575 0.84066 0.0
H407 H 0.11501 0.97047 0.8434 0.0
H408 H 0.1613 0.989 0.80296 0.0
H409 H 0.16108 0.98827 0.75322 0.0
C410 C 0.4954 0.46233 0.59982 0.0
C411 C 0.54472 0.44824 0.59079 0.0
C412 C 0.48576 0.4565 0.62724 0.0
C413 C 0.52557 0.43679 0.64606 0.0
C414 C 0.57276 0.41848 0.63637 0.0
C415 C 0.58246 0.42453 0.60907 0.0
C416 C 0.52244 0.43985 0.67614 0.0
C417 C 0.49712 0.47806 0.68822 0.0
C418 C 0.50839 0.49279 0.71759 0.0
C419 C 0.5009 0.54379 0.72522 0.0
C420 C 0.51779 0.56152 0.75155 0.0
C421 C 0.54219 0.52852 0.77099 0.0
H422 H 0.53466 0.41901 0.73277 0.0
C423 C 0.54663 0.47674 0.76399 0.0
C424 C 0.52983 0.45895 0.73754 0.0
H425 H 0.56487 0.45032 0.77864 0.0
H426 H 0.46555 0.48068 0.58617 0.0
H427 H 0.4481 0.46935 0.63379 0.0
H428 H 0.60382 0.40254 0.65031 0.0
H429 H 0.6206 0.41275 0.60257 0.0
H430 H 0.54928 0.41562 0.68853 0.0
H431 H 0.47375 0.50463 0.67549 0.0
H432 H 0.48393 0.57062 0.71043 0.0
H433 H 0.51258 0.60139 0.75654 0.0
C434 C 0.55327 0.45626 0.40606 0.0
C435 C 0.5023 0.44824 0.41468 0.0
C436 C 0.56425 0.44254 0.37947 0.0
C437 C 0.52416 0.42083 0.36096 0.0
C438 C 0.47401 0.41072 0.37006 0.0
C439 C 0.46298 0.42474 0.39656 0.0
C440 C 0.53227 0.40997 0.33181 0.0
C441 C 0.56488 0.43804 0.31767 0.0
C442 C 0.56841 0.43293 0.2876 0.0
C443 C 0.61143 0.4562 0.27628 0.0
C444 C 0.61462 0.45573 0.248 0.0
C445 C 0.57464 0.43209 0.23029 0.0
H446 H 0.49383 0.39167 0.27737 0.0
C447 C 0.53188 0.40821 0.24154 0.0
C448 C 0.52859 0.40877 0.26984 0.0
H449 H 0.49998 0.39042 0.22841 0.0
H450 H 0.58397 0.47512 0.41946 0.0
H451 H 0.60387 0.44957 0.37345 0.0
H452 H 0.44258 0.39365 0.35631 0.0
H453 H 0.42336 0.41796 0.40272 0.0
H454 H 0.50751 0.38042 0.32146 0.0
H455 H 0.58901 0.46781 0.32832 0.0
H456 H 0.64255 0.47531 0.28937 0.0
H457 H 0.64842 0.47398 0.24 0.0
loop_
_geom_bond_atom_site_label_1
_geom_bond_atom_site_label_2
_geom_bond_distance
_geom_bond_site_symmetry_2
_ccdc_geom_bond_type
Zn0 O6 1.920 1_545 S
Zn0 O12 1.898 . S
Zn0 O15 1.905 1_545 S
Zn1 O9 1.905 . S
Zn1 O10 1.898 1_545 S
Zn1 O18 1.920 1_545 S
Zn2 O5 2.080 1_445 S
Zn2 O8 2.114 . S
Zn2 O11 2.120 1_545 S
Zn2 O13 2.120 1_455 S
Zn2 O14 2.114 1_554 S
Zn2 O17 2.080 . S
C3 O8 1.166 . S
C3 O9 1.182 . S
C4 O10 1.167 . S
C4 O11 1.299 . S
O5 Zn2 2.080 1_665 S
O5 C19 1.305 . S
O6 Zn0 1.920 1_565 S
O6 C19 1.234 1_556 S
C7 O12 1.167 . S
C7 O13 1.299 1_556 S
O8 Zn2 2.114 . S
O8 C3 1.166 . S
O9 Zn1 1.905 . S
O9 C3 1.182 . S
O10 Zn1 1.898 1_565 S
O10 C4 1.167 . S
O11 Zn2 2.120 1_565 S
O11 C4 1.299 . S
O12 Zn0 1.898 . S
O12 C7 1.167 . S
O13 Zn2 2.120 1_655 S
O13 C7 1.299 1_554 S
O14 Zn2 2.114 1_556 S
O14 C16 1.166 1_545 S
O15 Zn0 1.905 1_565 S
O15 C16 1.182 1_655 S
C16 O14 1.166 1_565 S
C16 O15 1.182 1_455 S
O17 Zn2 2.080 . S
O17 C20 1.305 1_545 S
O18 Zn1 1.920 1_565 S
O18 C20 1.234 . S
C19 O5 1.305 . S
C19 O6 1.234 1_554 S
C20 O17 1.305 1_565 S
C20 O18 1.234 . S
Zn21 O27 1.920 . S
Zn21 O33 1.898 . S
Zn21 O36 1.905 . S
Zn22 O30 1.905 . S
Zn22 O31 1.898 . S
Zn22 O39 1.920 . S
Zn23 O26 2.080 . S
Zn23 O29 2.114 . S
Zn23 O32 2.120 . S
Zn23 O34 2.120 . S
Zn23 O35 2.114 . S
Zn23 O38 2.080 . S
C24 O29 1.166 . S
C24 O30 1.182 . S
C25 O31 1.167 . S
C25 O32 1.299 . S
O26 Zn23 2.080 . S
O26 C40 1.305 . S
O27 Zn21 1.920 . S
O27 C40 1.234 . S
C28 O33 1.167 . S
C28 O34 1.299 . S
O29 Zn23 2.114 . S
O29 C24 1.166 . S
O30 Zn22 1.905 . S
O30 C24 1.182 . S
O31 Zn22 1.898 . S
O31 C25 1.167 . S
O32 Zn23 2.120 . S
O32 C25 1.299 . S
O33 Zn21 1.898 . S
O33 C28 1.167 . S
O34 Zn23 2.120 . S
O34 C28 1.299 . S
O35 Zn23 2.114 . S
O35 C37 1.166 . S
O36 Zn21 1.905 . S
O36 C37 1.182 . S
C37 O35 1.166 . S
C37 O36 1.182 . S
O38 Zn23 2.080 . S
O38 C41 1.305 . S
O39 Zn22 1.920 . S
O39 C41 1.234 . S
C40 O26 1.305 . S
C40 O27 1.234 . S
C41 O38 1.305 . S
C41 O39 1.234 . S
P42 O53 1.490 . S
P42 C56 1.812 . S
P42 C62 1.803 . S
P42 C68 1.819 . S
H43 C57 0.941 . S
H44 C58 0.939 . S
H45 C60 0.940 . S
H46 C61 0.940 . S
H47 C63 0.939 . S
H48 C64 0.942 . S
H49 C66 0.940 . S
H50 C67 0.939 . S
H51 C69 0.941 . S
H52 C73 0.939 1_565 S
O53 P42 1.490 . S
H54 C70 0.939 . S
H55 C72 0.940 1_565 S
C56 P42 1.812 . S
C56 C57 1.389 . S
C56 C61 1.391 . S
C57 H43 0.941 . S
C57 C56 1.389 . S
C57 C58 1.397 . S
C58 H44 0.939 . S
C58 C57 1.397 . S
C58 C59 1.378 1_455 S
C59 C58 1.378 1_655 S
C59 C60 1.378 . S
C60 H45 0.940 . S
C60 C59 1.378 . S
C60 C61 1.396 1_655 S
C61 H46 0.940 . S
C61 C56 1.391 . S
C61 C60 1.396 1_455 S
C62 P42 1.803 . S
C62 C63 1.378 . S
C62 C67 1.400 1_545 S
C63 H47 0.939 . S
C63 C62 1.378 . S
C63 C64 1.361 1_545 S
C64 H48 0.942 . S
C64 C63 1.361 1_565 S
C64 C65 1.369 . S
C65 C64 1.369 . S
C65 C66 1.404 . S
C66 H49 0.940 . S
C66 C65 1.404 . S
C66 C67 1.389 . S
C67 H50 0.939 . S
C67 C62 1.400 1_565 S
C67 C66 1.389 . S
C68 P42 1.819 . S
C68 C69 1.391 . S
C68 C73 1.391 . S
C69 H51 0.941 . S
C69 C68 1.391 . S
C69 C70 1.396 . S
C70 H54 0.939 . S
C70 C69 1.396 . S
C70 C71 1.397 . S
C71 C70 1.397 . S
C71 C72 1.385 . S
C72 H55 0.940 1_545 S
C72 C71 1.385 . S
C72 C73 1.388 . S
C73 H52 0.939 1_545 S
C73 C68 1.391 . S
C73 C72 1.388 . S
P74 O85 1.490 . S
P74 C88 1.812 1_455 S
P74 C94 1.803 1_565 S
P74 C100 1.819 . S
H75 C89 0.941 1_455 S
H76 C90 0.939 . S
H77 C92 0.940 . S
H78 C93 0.940 1_545 S
H79 C95 0.939 . S
H80 C96 0.942 . S
H81 C98 0.940 . S
H82 C99 0.939 . S
H83 C101 0.941 . S
H84 C105 0.939 . S
O85 P74 1.490 . S
H86 C102 0.939 . S
H87 C104 0.940 . S
C88 P74 1.812 1_655 S
C88 C89 1.389 . S
C88 C93 1.391 . S
C89 H75 0.941 1_655 S
C89 C88 1.389 . S
C89 C90 1.397 . S
C90 H76 0.939 . S
C90 C89 1.397 . S
C90 C91 1.378 . S
C91 C90 1.378 . S
C91 C92 1.378 . S
C92 H77 0.940 . S
C92 C91 1.378 . S
C92 C93 1.396 . S
C93 H78 0.940 1_565 S
C93 C88 1.391 . S
C93 C92 1.396 . S
C94 P74 1.803 1_545 S
C94 C95 1.378 . S
C94 C99 1.400 . S
C95 H79 0.939 . S
C95 C94 1.378 . S
C95 C96 1.361 . S
C96 H80 0.942 . S
C96 C95 1.361 . S
C96 C97 1.369 . S
C97 C96 1.369 . S
C97 C98 1.404 . S
C98 H81 0.940 . S
C98 C97 1.404 . S
C98 C99 1.389 . S
C99 H82 0.939 . S
C99 C94 1.400 . S
C99 C98 1.389 . S
C100 P74 1.819 . S
C100 C101 1.391 . S
C100 C105 1.391 1_565 S
C101 H83 0.941 . S
C101 C100 1.391 . S
C101 C102 1.396 . S
C102 H86 0.939 . S
C102 C101 1.396 . S
C102 C103 1.397 1_565 S
C103 C102 1.397 1_545 S
C103 C104 1.385 . S
C104 H87 0.940 . S
C104 C103 1.385 . S
C104 C105 1.388 . S
C105 H84 0.939 . S
C105 C100 1.391 1_545 S
C105 C104 1.388 . S
P106 O117 1.490 . S
P106 C120 1.812 . S
P106 C126 1.803 . S
P106 C132 1.819 . S
H107 C121 0.941 . S
H108 C122 0.939 . S
H109 C124 0.940 . S
H110 C125 0.940 . S
H111 C127 0.939 . S
H112 C128 0.942 . S
H113 C130 0.940 . S
H114 C131 0.939 . S
H115 C133 0.941 . S
H116 C137 0.939 . S
O117 P106 1.490 . S
H118 C134 0.939 . S
H119 C136 0.940 . S
C120 P106 1.812 . S
C120 C121 1.389 . S
C120 C125 1.391 . S
C121 H107 0.941 . S
C121 C120 1.389 . S
C121 C122 1.397 . S
C122 H108 0.939 . S
C122 C121 1.397 . S
C122 C123 1.378 . S
C123 C122 1.378 . S
C123 C124 1.378 . S
C124 H109 0.940 . S
C124 C123 1.378 . S
C124 C125 1.396 . S
C125 H110 0.940 . S
C125 C120 1.391 . S
C125 C124 1.396 . S
C126 P106 1.803 . S
C126 C127 1.378 . S
C126 C131 1.400 . S
C127 H111 0.939 . S
C127 C126 1.378 . S
C127 C128 1.361 . S
C128 H112 0.942 . S
C128 C127 1.361 . S
C128 C129 1.369 . S
C129 C128 1.369 . S
C129 C130 1.404 . S
C130 H113 0.940 . S
C130 C129 1.404 . S
C130 C131 1.389 . S
C131 H114 0.939 . S
C131 C126 1.400 . S
C131 C130 1.389 . S
C132 P106 1.819 . S
C132 C133 1.391 . S
C132 C137 1.391 . S
C133 H115 0.941 . S
C133 C132 1.391 . S
C133 C134 1.396 . S
C134 H118 0.939 . S
C134 C133 1.396 . S
C134 C135 1.397 . S
C135 C134 1.397 . S
C135 C136 1.385 . S
C136 H119 0.940 . S
C136 C135 1.385 . S
C136 C137 1.388 . S
C137 H116 0.939 . S
C137 C132 1.391 . S
C137 C136 1.388 . S
P138 O149 1.490 . S
P138 C152 1.812 . S
P138 C158 1.803 . S
P138 C164 1.819 . S
H139 C153 0.941 . S
H140 C154 0.939 . S
H141 C156 0.940 . S
H142 C157 0.940 . S
H143 C159 0.939 . S
H144 C160 0.942 . S
H145 C162 0.940 . S
H146 C163 0.939 . S
H147 C165 0.941 . S
H148 C169 0.939 . S
O149 P138 1.490 . S
H150 C166 0.939 . S
H151 C168 0.940 . S
C152 P138 1.812 . S
C152 C153 1.389 . S
C152 C157 1.391 . S
C153 H139 0.941 . S
C153 C152 1.389 . S
C153 C154 1.397 . S
C154 H140 0.939 . S
C154 C153 1.397 . S
C154 C155 1.378 . S
C155 C154 1.378 . S
C155 C156 1.378 . S
C156 H141 0.940 . S
C156 C155 1.378 . S
C156 C157 1.396 . S
C157 H142 0.940 . S
C157 C152 1.391 . S
C157 C156 1.396 . S
C158 P138 1.803 . S
C158 C159 1.378 . S
C158 C163 1.400 . S
C159 H143 0.939 . S
C159 C158 1.378 . S
C159 C160 1.361 . S
C160 H144 0.942 . S
C160 C159 1.361 . S
C160 C161 1.369 . S
C161 C160 1.369 . S
C161 C162 1.404 . S
C162 H145 0.940 . S
C162 C161 1.404 . S
C162 C163 1.389 . S
C163 H146 0.939 . S
C163 C158 1.400 . S
C163 C162 1.389 . S
C164 P138 1.819 . S
C164 C165 1.391 . S
C164 C169 1.391 . S
C165 H147 0.941 . S
C165 C164 1.391 . S
C165 C166 1.396 . S
C166 H150 0.939 . S
C166 C165 1.396 . S
C166 C167 1.397 . S
C167 C166 1.397 . S
C167 C168 1.385 . S
C168 H151 0.940 . S
C168 C167 1.385 . S
C168 C169 1.388 . S
C169 H148 0.939 . S
C169 C164 1.391 . S
C169 C168 1.388 . S
C170 C171 1.386 . S
C170 C172 1.383 . S
C170 H186 0.951 1_554 S
C171 C170 1.386 . S
C171 C175 1.383 . S
C172 C170 1.383 . S
C172 C173 1.402 . S
C172 H187 0.951 . S
C173 C172 1.402 . S
C173 C174 1.375 . S
C173 C176 1.481 . S
C174 C173 1.375 . S
C174 C175 1.367 . S
C174 H188 0.951 . S
C175 C171 1.383 . S
C175 C174 1.367 . S
C175 H189 0.950 . S
C176 C173 1.481 . S
C176 C177 1.297 . S
C176 H190 0.950 . S
C177 C176 1.297 . S
C177 C178 1.479 . S
C177 H191 0.950 . S
C178 C177 1.479 . S
C178 C179 1.375 . S
C178 C184 1.404 . S
C179 C178 1.375 . S
C179 C180 1.369 . S
C179 H192 0.950 . S
C180 C179 1.369 . S
C180 C181 1.392 . S
C180 H193 0.951 . S
C181 C180 1.392 . S
C181 C183 1.384 . S
H182 C184 0.949 . S
C183 C181 1.384 . S
C183 C184 1.385 . S
C183 H185 0.950 . S
C184 C178 1.404 . S
C184 H182 0.949 . S
C184 C183 1.385 . S
H185 C183 0.950 . S
H186 C170 0.951 1_556 S
H187 C172 0.951 . S
H188 C174 0.951 . S
H189 C175 0.950 . S
H190 C176 0.950 . S
H191 C177 0.950 . S
H192 C179 0.950 . S
H193 C180 0.951 . S
C194 C195 1.386 . S
C194 C196 1.383 . S
C194 H210 0.951 1_556 S
C195 C194 1.386 . S
C195 C199 1.383 . S
C196 C194 1.383 . S
C196 C197 1.402 . S
C196 H211 0.951 . S
C197 C196 1.402 . S
C197 C198 1.375 . S
C197 C200 1.481 . S
C198 C197 1.375 . S
C198 C199 1.367 . S
C198 H212 0.951 . S
C199 C195 1.383 . S
C199 C198 1.367 . S
C199 H213 0.950 . S
C200 C197 1.481 . S
C200 C201 1.297 . S
C200 H214 0.950 . S
C201 C200 1.297 . S
C201 C202 1.479 . S
C201 H215 0.950 . S
C202 C201 1.479 . S
C202 C203 1.375 . S
C202 C208 1.404 . S
C203 C202 1.375 . S
C203 C204 1.369 . S
C203 H216 0.950 . S
C204 C203 1.369 . S
C204 C205 1.392 . S
C204 H217 0.951 . S
C205 C204 1.392 . S
C205 C207 1.384 . S
H206 C208 0.949 . S
C207 C205 1.384 . S
C207 C208 1.385 . S
C207 H209 0.950 . S
C208 C202 1.404 . S
C208 H206 0.949 . S
C208 C207 1.385 . S
H209 C207 0.950 . S
H210 C194 0.951 1_554 S
H211 C196 0.951 . S
H212 C198 0.951 . S
H213 C199 0.950 . S
H214 C200 0.950 . S
H215 C201 0.950 . S
H216 C203 0.950 . S
H217 C204 0.951 . S
C218 C219 1.386 . S
C218 C220 1.383 . S
C218 H234 0.951 . S
C219 C218 1.386 . S
C219 C223 1.383 . S
C220 C218 1.383 . S
C220 C221 1.402 . S
C220 H235 0.951 . S
C221 C220 1.402 . S
C221 C222 1.375 . S
C221 C224 1.481 . S
C222 C221 1.375 . S
C222 C223 1.367 . S
C222 H236 0.951 . S
C223 C219 1.383 . S
C223 C222 1.367 . S
C223 H237 0.950 . S
C224 C221 1.481 . S
C224 C225 1.297 . S
C224 H238 0.950 . S
C225 C224 1.297 . S
C225 C226 1.479 . S
C225 H239 0.950 . S
C226 C225 1.479 . S
C226 C227 1.375 . S
C226 C232 1.404 . S
C227 C226 1.375 . S
C227 C228 1.369 . S
C227 H240 0.950 . S
C228 C227 1.369 . S
C228 C229 1.392 . S
C228 H241 0.951 . S
C229 C228 1.392 . S
C229 C231 1.384 . S
H230 C232 0.949 . S
C231 C229 1.384 . S
C231 C232 1.385 . S
C231 H233 0.950 . S
C232 C226 1.404 . S
C232 H230 0.949 . S
C232 C231 1.385 . S
H233 C231 0.950 . S
H234 C218 0.951 . S
H235 C220 0.951 . S
H236 C222 0.951 . S
H237 C223 0.950 . S
H238 C224 0.950 . S
H239 C225 0.950 . S
H240 C227 0.950 . S
H241 C228 0.951 . S
C242 C243 1.386 1_554 S
C242 C244 1.383 . S
C242 H258 0.951 . S
C243 C242 1.386 1_556 S
C243 C247 1.383 . S
C244 C242 1.383 . S
C244 C245 1.402 1_554 S
C244 H259 0.951 . S
C245 C244 1.402 1_556 S
C245 C246 1.375 . S
C245 C248 1.481 . S
C246 C245 1.375 . S
C246 C247 1.367 . S
C246 H260 0.951 . S
C247 C243 1.383 . S
C247 C246 1.367 . S
C247 H261 0.950 . S
C248 C245 1.481 . S
C248 C249 1.297 . S
C248 H262 0.950 . S
C249 C248 1.297 . S
C249 C250 1.479 . S
C249 H263 0.950 1_556 S
C250 C249 1.479 . S
C250 C251 1.375 . S
C250 C256 1.404 . S
C251 C250 1.375 . S
C251 C252 1.369 . S
C251 H264 0.950 1_556 S
C252 C251 1.369 . S
C252 C253 1.392 . S
C252 H265 0.951 . S
C253 C252 1.392 . S
C253 C255 1.384 . S
H254 C256 0.949 . S
C255 C253 1.384 . S
C255 C256 1.385 . S
C255 H257 0.950 . S
C256 C250 1.404 . S
C256 H254 0.949 . S
C256 C255 1.385 . S
H257 C255 0.950 . S
H258 C242 0.951 . S
H259 C244 0.951 . S
H260 C246 0.951 . S
H261 C247 0.950 . S
H262 C248 0.950 . S
H263 C249 0.950 1_554 S
H264 C251 0.950 1_554 S
H265 C252 0.951 . S
C266 C267 1.386 . S
C266 C268 1.383 . S
C266 H282 0.951 . S
C267 C266 1.386 . S
C267 C271 1.383 . S
C268 C266 1.383 . S
C268 C269 1.402 . S
C268 H283 0.951 . S
C269 C268 1.402 . S
C269 C270 1.375 . S
C269 C272 1.481 . S
C270 C269 1.375 . S
C270 C271 1.367 . S
C270 H284 0.951 . S
C271 C267 1.383 . S
C271 C270 1.367 . S
C271 H285 0.950 . S
C272 C269 1.481 . S
C272 C273 1.297 . S
C272 H286 0.950 . S
C273 C272 1.297 . S
C273 C274 1.479 . S
C273 H287 0.950 . S
C274 C273 1.479 . S
C274 C275 1.375 . S
C274 C280 1.404 . S
C275 C274 1.375 . S
C275 C276 1.369 . S
C275 H288 0.950 . S
C276 C275 1.369 . S
C276 C277 1.392 . S
C276 H289 0.951 . S
C277 C276 1.392 . S
C277 C279 1.384 . S
H278 C280 0.949 . S
C279 C277 1.384 . S
C279 C280 1.385 . S
C279 H281 0.950 . S
C280 C274 1.404 . S
C280 H278 0.949 . S
C280 C279 1.385 . S
H281 C279 0.950 . S
H282 C266 0.951 . S
H283 C268 0.951 . S
H284 C270 0.951 . S
H285 C271 0.950 . S
H286 C272 0.950 . S
H287 C273 0.950 . S
H288 C275 0.950 . S
H289 C276 0.951 . S
C290 C291 1.386 . S
C290 C292 1.383 . S
C290 H306 0.951 . S
C291 C290 1.386 . S
C291 C295 1.383 . S
C292 C290 1.383 . S
C292 C293 1.402 . S
C292 H307 0.951 . S
C293 C292 1.402 . S
C293 C294 1.375 . S
C293 C296 1.481 . S
C294 C293 1.375 . S
C294 C295 1.367 . S
C294 H308 0.951 . S
C295 C291 1.383 . S
C295 C294 1.367 . S
C295 H309 0.950 . S
C296 C293 1.481 . S
C296 C297 1.297 . S
C296 H310 0.950 . S
C297 C296 1.297 . S
C297 C298 1.479 . S
C297 H311 0.950 . S
C298 C297 1.479 . S
C298 C299 1.375 . S
C298 C304 1.404 . S
C299 C298 1.375 . S
C299 C300 1.369 . S
C299 H312 0.950 . S
C300 C299 1.369 . S
C300 C301 1.392 . S
C300 H313 0.951 . S
C301 C300 1.392 . S
C301 C303 1.384 . S
H302 C304 0.949 . S
C303 C301 1.384 . S
C303 C304 1.385 . S
C303 H305 0.950 . S
C304 C298 1.404 . S
C304 H302 0.949 . S
C304 C303 1.385 . S
H305 C303 0.950 . S
H306 C290 0.951 . S
H307 C292 0.951 . S
H308 C294 0.951 . S
H309 C295 0.950 . S
H310 C296 0.950 . S
H311 C297 0.950 . S
H312 C299 0.950 . S
H313 C300 0.951 . S
C314 C315 1.386 . S
C314 C316 1.383 . S
C314 H330 0.951 . S
C315 C314 1.386 . S
C315 C319 1.383 . S
C316 C314 1.383 . S
C316 C317 1.402 . S
C316 H331 0.951 . S
C317 C316 1.402 . S
C317 C318 1.375 . S
C317 C320 1.481 . S
C318 C317 1.375 . S
C318 C319 1.367 . S
C318 H332 0.951 . S
C319 C315 1.383 . S
C319 C318 1.367 . S
C319 H333 0.950 . S
C320 C317 1.481 . S
C320 C321 1.297 . S
C320 H334 0.950 . S
C321 C320 1.297 . S
C321 C322 1.479 . S
C321 H335 0.950 . S
C322 C321 1.479 . S
C322 C323 1.375 . S
C322 C328 1.404 . S
C323 C322 1.375 . S
C323 C324 1.369 . S
C323 H336 0.950 . S
C324 C323 1.369 . S
C324 C325 1.392 . S
C324 H337 0.951 . S
C325 C324 1.392 . S
C325 C327 1.384 . S
H326 C328 0.949 . S
C327 C325 1.384 . S
C327 C328 1.385 . S
C327 H329 0.950 . S
C328 C322 1.404 . S
C328 H326 0.949 . S
C328 C327 1.385 . S
H329 C327 0.950 . S
H330 C314 0.951 . S
H331 C316 0.951 . S
H332 C318 0.951 . S
H333 C319 0.950 . S
H334 C320 0.950 . S
H335 C321 0.950 . S
H336 C323 0.950 . S
H337 C324 0.951 . S
C338 C339 1.386 . S
C338 C340 1.383 . S
C338 H354 0.951 . S
C339 C338 1.386 . S
C339 C343 1.383 . S
C340 C338 1.383 . S
C340 C341 1.402 . S
C340 H355 0.951 . S
C341 C340 1.402 . S
C341 C342 1.375 . S
C341 C344 1.481 . S
C342 C341 1.375 . S
C342 C343 1.367 . S
C342 H356 0.951 . S
C343 C339 1.383 . S
C343 C342 1.367 . S
C343 H357 0.950 . S
C344 C341 1.481 . S
C344 C345 1.297 . S
C344 H358 0.950 . S
C345 C344 1.297 . S
C345 C346 1.479 . S
C345 H359 0.950 . S
C346 C345 1.479 . S
C346 C347 1.375 . S
C346 C352 1.404 . S
C347 C346 1.375 . S
C347 C348 1.369 . S
C347 H360 0.950 . S
C348 C347 1.369 . S
C348 C349 1.392 . S
C348 H361 0.951 . S
C349 C348 1.392 . S
C349 C351 1.384 . S
H350 C352 0.949 . S
C351 C349 1.384 . S
C351 C352 1.385 . S
C351 H353 0.950 . S
C352 C346 1.404 . S
C352 H350 0.949 . S
C352 C351 1.385 . S
H353 C351 0.950 . S
H354 C338 0.951 . S
H355 C340 0.951 . S
H356 C342 0.951 . S
H357 C343 0.950 . S
H358 C344 0.950 . S
H359 C345 0.950 . S
H360 C347 0.950 . S
H361 C348 0.951 . S
C362 C363 1.386 . S
C362 C364 1.383 . S
C362 H378 0.951 1_455 S
C363 C362 1.386 . S
C363 C367 1.383 1_565 S
C364 C362 1.383 . S
C364 C365 1.402 . S
C364 H379 0.943 1_455 S
C365 C364 1.402 . S
C365 C366 1.375 1_565 S
C365 C368 1.481 1_565 S
C366 C365 1.375 1_545 S
C366 C367 1.367 . S
C366 H380 0.951 . S
C367 C363 1.383 1_545 S
C367 C366 1.367 . S
C367 H381 0.950 . S
C368 C365 1.481 1_545 S
C368 C369 1.297 1_545 S
C368 H382 0.950 . S
C369 C368 1.297 1_565 S
C369 C370 1.482 . S
C369 H383 0.950 . S
C370 C369 1.482 . S
C370 C371 1.379 . S
C370 C376 1.398 1_565 S
C371 C370 1.379 . S
C371 C372 1.369 1_565 S
C371 H384 0.950 1_455 S
C372 C371 1.369 1_545 S
C372 C373 1.392 . S
C372 H385 0.951 1_445 S
C373 C372 1.392 . S
C373 C375 1.384 . S
H374 C376 0.949 . S
C375 C373 1.384 . S
C375 C376 1.385 . S
C375 H377 0.950 . S
C376 C370 1.398 1_545 S
C376 H374 0.949 . S
C376 C375 1.385 . S
H377 C375 0.950 . S
H378 C362 0.951 1_655 S
H379 C364 0.943 1_655 S
H380 C366 0.951 . S
H381 C367 0.950 . S
H382 C368 0.950 . S
H383 C369 0.950 . S
H384 C371 0.950 1_655 S
H385 C372 0.951 1_665 S
C386 C387 1.386 . S
C386 C388 1.383 . S
C386 H402 0.951 . S
C387 C386 1.386 . S
C387 C391 1.383 1_455 S
C388 C386 1.383 . S
C388 C389 1.418 . S
C388 H403 0.951 . S
C389 C388 1.418 . S
C389 C390 1.361 1_455 S
C389 C392 1.478 1_455 S
C390 C389 1.361 1_655 S
C390 C391 1.367 . S
C390 H404 0.951 1_565 S
C391 C387 1.383 1_655 S
C391 C390 1.367 . S
C391 H405 0.950 . S
C392 C389 1.478 1_655 S
C392 C393 1.297 1_655 S
C392 H406 0.950 1_565 S
C393 C392 1.297 1_455 S
C393 C394 1.479 . S
C393 H407 0.950 . S
C394 C393 1.479 . S
C394 C395 1.375 . S
C394 C400 1.404 1_465 S
C395 C394 1.375 . S
C395 C396 1.369 1_565 S
C395 H408 0.950 . S
C396 C395 1.369 1_545 S
C396 C397 1.392 . S
C396 H409 0.951 . S
C397 C396 1.392 . S
C397 C399 1.384 1_455 S
H398 C400 0.949 . S
C399 C397 1.384 1_655 S
C399 C400 1.385 . S
C399 H401 0.950 . S
C400 C394 1.404 1_645 S
C400 H398 0.949 . S
C400 C399 1.385 . S
H401 C399 0.950 . S
H402 C386 0.951 . S
H403 C388 0.951 . S
H404 C390 0.951 1_545 S
H405 C391 0.950 . S
H406 C392 0.950 1_545 S
H407 C393 0.950 . S
H408 C395 0.950 . S
H409 C396 0.951 . S
C410 C411 1.386 . S
C410 C412 1.383 . S
C410 H426 0.951 . S
C411 C410 1.386 . S
C411 C415 1.383 . S
C412 C410 1.383 . S
C412 C413 1.402 . S
C412 H427 0.951 . S
C413 C412 1.402 . S
C413 C414 1.375 . S
C413 C416 1.481 . S
C414 C413 1.375 . S
C414 C415 1.367 . S
C414 H428 0.951 . S
C415 C411 1.383 . S
C415 C414 1.367 . S
C415 H429 0.950 . S
C416 C413 1.481 . S
C416 C417 1.297 . S
C416 H430 0.950 . S
C417 C416 1.297 . S
C417 C418 1.479 . S
C417 H431 0.950 . S
C418 C417 1.479 . S
C418 C419 1.375 . S
C418 C424 1.404 . S
C419 C418 1.375 . S
C419 C420 1.369 . S
C419 H432 0.950 . S
C420 C419 1.369 . S
C420 C421 1.392 . S
C420 H433 0.951 . S
C421 C420 1.392 . S
C421 C423 1.384 . S
H422 C424 0.949 . S
C423 C421 1.384 . S
C423 C424 1.385 . S
C423 H425 0.950 . S
C424 C418 1.404 . S
C424 H422 0.949 . S
C424 C423 1.385 . S
H425 C423 0.950 . S
H426 C410 0.951 . S
H427 C412 0.951 . S
H428 C414 0.951 . S
H429 C415 0.950 . S
H430 C416 0.950 . S
H431 C417 0.950 . S
H432 C419 0.950 . S
H433 C420 0.951 . S
C434 C435 1.386 . S
C434 C436 1.383 . S
C434 H450 0.951 . S
C435 C434 1.386 . S
C435 C439 1.383 . S
C436 C434 1.383 . S
C436 C437 1.402 . S
C436 H451 0.951 . S
C437 C436 1.402 . S
C437 C438 1.375 . S
C437 C440 1.481 . S
C438 C437 1.375 . S
C438 C439 1.367 . S
C438 H452 0.951 . S
C439 C435 1.383 . S
C439 C438 1.367 . S
C439 H453 0.950 . S
C440 C437 1.481 . S
C440 C441 1.297 . S
C440 H454 0.950 . S
C441 C440 1.297 . S
C441 C442 1.479 . S
C441 H455 0.950 . S
C442 C441 1.479 . S
C442 C443 1.375 . S
C442 C448 1.404 . S
C443 C442 1.375 . S
C443 C444 1.369 . S
C443 H456 0.950 . S
C444 C443 1.369 . S
C444 C445 1.392 . S
C444 H457 0.951 . S
C445 C444 1.392 . S
C445 C447 1.384 . S
H446 C448 0.949 . S
C447 C445 1.384 . S
C447 C448 1.385 . S
C447 H449 0.950 . S
C448 C442 1.404 . S
C448 H446 0.949 . S
C448 C447 1.385 . S
H449 C447 0.950 . S
H450 C434 0.951 . S
H451 C436 0.951 . S
H452 C438 0.951 . S
H453 C439 0.950 . S
H454 C440 0.950 . S
H455 C441 0.950 . S
H456 C443 0.950 . S
H457 C444 0.951 . S
C181 C155 1.209 . S
C171 C3 1.070 . S
C195 C4 1.493 1_556 S
C205 C123 1.589 . S
C219 C19 1.529 . S
C229 C161 1.534 . S
C243 C7 1.090 . S
C253 C129 1.146 . S
C267 C37 1.044 . S
C277 C91 1.115 . S
C291 C28 1.524 . S
C301 C59 1.595 . S
C325 C97 1.604 . S
C315 C41 1.486 . S
C349 C65 1.158 . S
C339 C25 1.108 . S
C363 C20 1.245 . S
C373 C71 1.417 . S
C387 C16 1.308 . S
C397 C103 1.409 . S
C421 C135 1.449 . S
C411 C40 1.307 . S
C435 C24 1.329 . S
C445 C167 1.394 . S
