# Generated by pormake.
# Topology tbo, (3,4)-cn, num edge types: 1
# Building blocks:
#     Node 0, Type 0, BuildingBlock: OLANEW_clean_sbu_2, # of connection points: 3
#     Node 1, Type 0, BuildingBlock: OLANEW_clean_sbu_2, # of connection points: 3
#     Node 2, Type 0, BuildingBlock: OLANEW_clean_sbu_2, # of connection points: 3
#     Node 3, Type 0, BuildingBlock: OLANEW_clean_sbu_2, # of connection points: 3
#     Node 4, Type 0, BuildingBlock: OLANEW_clean_sbu_2, # of connection points: 3
#     Node 5, Type 0, BuildingBlock: OLANEW_clean_sbu_2, # of connection points: 3
#     Node 6, Type 0, BuildingBlock: OLANEW_clean_sbu_2, # of connection points: 3
#     Node 7, Type 0, BuildingBlock: OLANEW_clean_sbu_2, # of connection points: 3
#     Node 8, Type 0, BuildingBlock: OLANEW_clean_sbu_2, # of connection points: 3
#     Node 9, Type 0, BuildingBlock: OLANEW_clean_sbu_2, # of connection points: 3
#     Node 10, Type 0, BuildingBlock: OLANEW_clean_sbu_2, # of connection points: 3
#     Node 11, Type 0, BuildingBlock: OLANEW_clean_sbu_2, # of connection points: 3
#     Node 12, Type 0, BuildingBlock: OLANEW_clean_sbu_2, # of connection points: 3
#     Node 13, Type 0, BuildingBlock: OLANEW_clean_sbu_2, # of connection points: 3
#     Node 14, Type 0, BuildingBlock: OLANEW_clean_sbu_2, # of connection points: 3
#     Node 15, Type 0, BuildingBlock: OLANEW_clean_sbu_2, # of connection points: 3
#     Node 16, Type 0, BuildingBlock: OLANEW_clean_sbu_2, # of connection points: 3
#     Node 17, Type 0, BuildingBlock: OLANEW_clean_sbu_2, # of connection points: 3
#     Node 18, Type 0, BuildingBlock: OLANEW_clean_sbu_2, # of connection points: 3
#     Node 19, Type 0, BuildingBlock: OLANEW_clean_sbu_2, # of connection points: 3
#     Node 20, Type 0, BuildingBlock: OLANEW_clean_sbu_2, # of connection points: 3
#     Node 21, Type 0, BuildingBlock: OLANEW_clean_sbu_2, # of connection points: 3
#     Node 22, Type 0, BuildingBlock: OLANEW_clean_sbu_2, # of connection points: 3
#     Node 23, Type 0, BuildingBlock: OLANEW_clean_sbu_2, # of connection points: 3
#     Node 24, Type 0, BuildingBlock: OLANEW_clean_sbu_2, # of connection points: 3
#     Node 25, Type 0, BuildingBlock: OLANEW_clean_sbu_2, # of connection points: 3
#     Node 26, Type 0, BuildingBlock: OLANEW_clean_sbu_2, # of connection points: 3
#     Node 27, Type 0, BuildingBlock: OLANEW_clean_sbu_2, # of connection points: 3
#     Node 28, Type 0, BuildingBlock: OLANEW_clean_sbu_2, # of connection points: 3
#     Node 29, Type 0, BuildingBlock: OLANEW_clean_sbu_2, # of connection points: 3
#     Node 30, Type 0, BuildingBlock: OLANEW_clean_sbu_2, # of connection points: 3
#     Node 31, Type 0, BuildingBlock: OLANEW_clean_sbu_2, # of connection points: 3
#     Node 32, Type 1, BuildingBlock: GIZVER_clean_linker_0, # of connection points: 4
#     Node 33, Type 1, BuildingBlock: GIZVER_clean_linker_0, # of connection points: 4
#     Node 34, Type 1, BuildingBlock: GIZVER_clean_linker_0, # of connection points: 4
#     Node 35, Type 1, BuildingBlock: GIZVER_clean_linker_0, # of connection points: 4
#     Node 36, Type 1, BuildingBlock: GIZVER_clean_linker_0, # of connection points: 4
#     Node 37, Type 1, BuildingBlock: GIZVER_clean_linker_0, # of connection points: 4
#     Node 38, Type 1, BuildingBlock: GIZVER_clean_linker_0, # of connection points: 4
#     Node 39, Type 1, BuildingBlock: GIZVER_clean_linker_0, # of connection points: 4
#     Node 40, Type 1, BuildingBlock: GIZVER_clean_linker_0, # of connection points: 4
#     Node 41, Type 1, BuildingBlock: GIZVER_clean_linker_0, # of connection points: 4
#     Node 42, Type 1, BuildingBlock: GIZVER_clean_linker_0, # of connection points: 4
#     Node 43, Type 1, BuildingBlock: GIZVER_clean_linker_0, # of connection points: 4
#     Node 44, Type 1, BuildingBlock: GIZVER_clean_linker_0, # of connection points: 4
#     Node 45, Type 1, BuildingBlock: GIZVER_clean_linker_0, # of connection points: 4
#     Node 46, Type 1, BuildingBlock: GIZVER_clean_linker_0, # of connection points: 4
#     Node 47, Type 1, BuildingBlock: GIZVER_clean_linker_0, # of connection points: 4
#     Node 48, Type 1, BuildingBlock: GIZVER_clean_linker_0, # of connection points: 4
#     Node 49, Type 1, BuildingBlock: GIZVER_clean_linker_0, # of connection points: 4
#     Node 50, Type 1, BuildingBlock: GIZVER_clean_linker_0, # of connection points: 4
#     Node 51, Type 1, BuildingBlock: GIZVER_clean_linker_0, # of connection points: 4
#     Node 52, Type 1, BuildingBlock: GIZVER_clean_linker_0, # of connection points: 4
#     Node 53, Type 1, BuildingBlock: GIZVER_clean_linker_0, # of connection points: 4
#     Node 54, Type 1, BuildingBlock: GIZVER_clean_linker_0, # of connection points: 4
#     Node 55, Type 1, BuildingBlock: GIZVER_clean_linker_0, # of connection points: 4
#     Edge 56, Type (0, 1), BuildingBlock: AJUNOK_clean_linker_0, # of connection points: 2
#     Edge 57, Type (0, 1), BuildingBlock: AJUNOK_clean_linker_0, # of connection points: 2
#     Edge 58, Type (0, 1), BuildingBlock: AJUNOK_clean_linker_0, # of connection points: 2
#     Edge 59, Type (0, 1), BuildingBlock: AJUNOK_clean_linker_0, # of connection points: 2
#     Edge 60, Type (0, 1), BuildingBlock: AJUNOK_clean_linker_0, # of connection points: 2
#     Edge 61, Type (0, 1), BuildingBlock: AJUNOK_clean_linker_0, # of connection points: 2
#     Edge 62, Type (0, 1), BuildingBlock: AJUNOK_clean_linker_0, # of connection points: 2
#     Edge 63, Type (0, 1), BuildingBlock: AJUNOK_clean_linker_0, # of connection points: 2
#     Edge 64, Type (0, 1), BuildingBlock: AJUNOK_clean_linker_0, # of connection points: 2
#     Edge 65, Type (0, 1), BuildingBlock: AJUNOK_clean_linker_0, # of connection points: 2
#     Edge 66, Type (0, 1), BuildingBlock: AJUNOK_clean_linker_0, # of connection points: 2
#     Edge 67, Type (0, 1), BuildingBlock: AJUNOK_clean_linker_0, # of connection points: 2
#     Edge 68, Type (0, 1), BuildingBlock: AJUNOK_clean_linker_0, # of connection points: 2
#     Edge 69, Type (0, 1), BuildingBlock: AJUNOK_clean_linker_0, # of connection points: 2
#     Edge 70, Type (0, 1), BuildingBlock: AJUNOK_clean_linker_0, # of connection points: 2
#     Edge 71, Type (0, 1), BuildingBlock: AJUNOK_clean_linker_0, # of connection points: 2
#     Edge 72, Type (0, 1), BuildingBlock: AJUNOK_clean_linker_0, # of connection points: 2
#     Edge 73, Type (0, 1), BuildingBlock: AJUNOK_clean_linker_0, # of connection points: 2
#     Edge 74, Type (0, 1), BuildingBlock: AJUNOK_clean_linker_0, # of connection points: 2
#     Edge 75, Type (0, 1), BuildingBlock: AJUNOK_clean_linker_0, # of connection points: 2
#     Edge 76, Type (0, 1), BuildingBlock: AJUNOK_clean_linker_0, # of connection points: 2
#     Edge 77, Type (0, 1), BuildingBlock: AJUNOK_clean_linker_0, # of connection points: 2
#     Edge 78, Type (0, 1), BuildingBlock: AJUNOK_clean_linker_0, # of connection points: 2
#     Edge 79, Type (0, 1), BuildingBlock: AJUNOK_clean_linker_0, # of connection points: 2
#     Edge 80, Type (0, 1), BuildingBlock: AJUNOK_clean_linker_0, # of connection points: 2
#     Edge 81, Type (0, 1), BuildingBlock: AJUNOK_clean_linker_0, # of connection points: 2
#     Edge 82, Type (0, 1), BuildingBlock: AJUNOK_clean_linker_0, # of connection points: 2
#     Edge 83, Type (0, 1), BuildingBlock: AJUNOK_clean_linker_0, # of connection points: 2
#     Edge 84, Type (0, 1), BuildingBlock: AJUNOK_clean_linker_0, # of connection points: 2
#     Edge 85, Type (0, 1), BuildingBlock: AJUNOK_clean_linker_0, # of connection points: 2
#     Edge 86, Type (0, 1), BuildingBlock: AJUNOK_clean_linker_0, # of connection points: 2
#     Edge 87, Type (0, 1), BuildingBlock: AJUNOK_clean_linker_0, # of connection points: 2
#     Edge 88, Type (0, 1), BuildingBlock: AJUNOK_clean_linker_0, # of connection points: 2
#     Edge 89, Type (0, 1), BuildingBlock: AJUNOK_clean_linker_0, # of connection points: 2
#     Edge 90, Type (0, 1), BuildingBlock: AJUNOK_clean_linker_0, # of connection points: 2
#     Edge 91, Type (0, 1), BuildingBlock: AJUNOK_clean_linker_0, # of connection points: 2
#     Edge 92, Type (0, 1), BuildingBlock: AJUNOK_clean_linker_0, # of connection points: 2
#     Edge 93, Type (0, 1), BuildingBlock: AJUNOK_clean_linker_0, # of connection points: 2
#     Edge 94, Type (0, 1), BuildingBlock: AJUNOK_clean_linker_0, # of connection points: 2
#     Edge 95, Type (0, 1), BuildingBlock: AJUNOK_clean_linker_0, # of connection points: 2
#     Edge 96, Type (0, 1), BuildingBlock: AJUNOK_clean_linker_0, # of connection points: 2
#     Edge 97, Type (0, 1), BuildingBlock: AJUNOK_clean_linker_0, # of connection points: 2
#     Edge 98, Type (0, 1), BuildingBlock: AJUNOK_clean_linker_0, # of connection points: 2
#     Edge 99, Type (0, 1), BuildingBlock: AJUNOK_clean_linker_0, # of connection points: 2
#     Edge 100, Type (0, 1), BuildingBlock: AJUNOK_clean_linker_0, # of connection points: 2
#     Edge 101, Type (0, 1), BuildingBlock: AJUNOK_clean_linker_0, # of connection points: 2
#     Edge 102, Type (0, 1), BuildingBlock: AJUNOK_clean_linker_0, # of connection points: 2
#     Edge 103, Type (0, 1), BuildingBlock: AJUNOK_clean_linker_0, # of connection points: 2
#     Edge 104, Type (0, 1), BuildingBlock: AJUNOK_clean_linker_0, # of connection points: 2
#     Edge 105, Type (0, 1), BuildingBlock: AJUNOK_clean_linker_0, # of connection points: 2
#     Edge 106, Type (0, 1), BuildingBlock: AJUNOK_clean_linker_0, # of connection points: 2
#     Edge 107, Type (0, 1), BuildingBlock: AJUNOK_clean_linker_0, # of connection points: 2
#     Edge 108, Type (0, 1), BuildingBlock: AJUNOK_clean_linker_0, # of connection points: 2
#     Edge 109, Type (0, 1), BuildingBlock: AJUNOK_clean_linker_0, # of connection points: 2
#     Edge 110, Type (0, 1), BuildingBlock: AJUNOK_clean_linker_0, # of connection points: 2
#     Edge 111, Type (0, 1), BuildingBlock: AJUNOK_clean_linker_0, # of connection points: 2
#     Edge 112, Type (0, 1), BuildingBlock: AJUNOK_clean_linker_0, # of connection points: 2
#     Edge 113, Type (0, 1), BuildingBlock: AJUNOK_clean_linker_0, # of connection points: 2
#     Edge 114, Type (0, 1), BuildingBlock: AJUNOK_clean_linker_0, # of connection points: 2
#     Edge 115, Type (0, 1), BuildingBlock: AJUNOK_clean_linker_0, # of connection points: 2
#     Edge 116, Type (0, 1), BuildingBlock: AJUNOK_clean_linker_0, # of connection points: 2
#     Edge 117, Type (0, 1), BuildingBlock: AJUNOK_clean_linker_0, # of connection points: 2
#     Edge 118, Type (0, 1), BuildingBlock: AJUNOK_clean_linker_0, # of connection points: 2
#     Edge 119, Type (0, 1), BuildingBlock: AJUNOK_clean_linker_0, # of connection points: 2
#     Edge 120, Type (0, 1), BuildingBlock: AJUNOK_clean_linker_0, # of connection points: 2
#     Edge 121, Type (0, 1), BuildingBlock: AJUNOK_clean_linker_0, # of connection points: 2
#     Edge 122, Type (0, 1), BuildingBlock: AJUNOK_clean_linker_0, # of connection points: 2
#     Edge 123, Type (0, 1), BuildingBlock: AJUNOK_clean_linker_0, # of connection points: 2
#     Edge 124, Type (0, 1), BuildingBlock: AJUNOK_clean_linker_0, # of connection points: 2
#     Edge 125, Type (0, 1), BuildingBlock: AJUNOK_clean_linker_0, # of connection points: 2
#     Edge 126, Type (0, 1), BuildingBlock: AJUNOK_clean_linker_0, # of connection points: 2
#     Edge 127, Type (0, 1), BuildingBlock: AJUNOK_clean_linker_0, # of connection points: 2
#     Edge 128, Type (0, 1), BuildingBlock: AJUNOK_clean_linker_0, # of connection points: 2
#     Edge 129, Type (0, 1), BuildingBlock: AJUNOK_clean_linker_0, # of connection points: 2
#     Edge 130, Type (0, 1), BuildingBlock: AJUNOK_clean_linker_0, # of connection points: 2
#     Edge 131, Type (0, 1), BuildingBlock: AJUNOK_clean_linker_0, # of connection points: 2
#     Edge 132, Type (0, 1), BuildingBlock: AJUNOK_clean_linker_0, # of connection points: 2
#     Edge 133, Type (0, 1), BuildingBlock: AJUNOK_clean_linker_0, # of connection points: 2
#     Edge 134, Type (0, 1), BuildingBlock: AJUNOK_clean_linker_0, # of connection points: 2
#     Edge 135, Type (0, 1), BuildingBlock: AJUNOK_clean_linker_0, # of connection points: 2
#     Edge 136, Type (0, 1), BuildingBlock: AJUNOK_clean_linker_0, # of connection points: 2
#     Edge 137, Type (0, 1), BuildingBlock: AJUNOK_clean_linker_0, # of connection points: 2
#     Edge 138, Type (0, 1), BuildingBlock: AJUNOK_clean_linker_0, # of connection points: 2
#     Edge 139, Type (0, 1), BuildingBlock: AJUNOK_clean_linker_0, # of connection points: 2
#     Edge 140, Type (0, 1), BuildingBlock: AJUNOK_clean_linker_0, # of connection points: 2
#     Edge 141, Type (0, 1), BuildingBlock: AJUNOK_clean_linker_0, # of connection points: 2
#     Edge 142, Type (0, 1), BuildingBlock: AJUNOK_clean_linker_0, # of connection points: 2
#     Edge 143, Type (0, 1), BuildingBlock: AJUNOK_clean_linker_0, # of connection points: 2
#     Edge 144, Type (0, 1), BuildingBlock: AJUNOK_clean_linker_0, # of connection points: 2
#     Edge 145, Type (0, 1), BuildingBlock: AJUNOK_clean_linker_0, # of connection points: 2
#     Edge 146, Type (0, 1), BuildingBlock: AJUNOK_clean_linker_0, # of connection points: 2
#     Edge 147, Type (0, 1), BuildingBlock: AJUNOK_clean_linker_0, # of connection points: 2
#     Edge 148, Type (0, 1), BuildingBlock: AJUNOK_clean_linker_0, # of connection points: 2
#     Edge 149, Type (0, 1), BuildingBlock: AJUNOK_clean_linker_0, # of connection points: 2
#     Edge 150, Type (0, 1), BuildingBlock: AJUNOK_clean_linker_0, # of connection points: 2
#     Edge 151, Type (0, 1), BuildingBlock: AJUNOK_clean_linker_0, # of connection points: 2
# Relax obj value: 0.020
# Max RMSD: 0.137
# Mean RMSD: 0.093
data_MOF--net-tbo--node1-OLANEW_clean_sbu_2--node2-GIZVER_clean_linker_0--edge1-AJUNOK_clean_linker_0
_symmetry_space_group_name_H-M    P1
_symmetry_Int_Tables_number       1
_symmetry_cell_setting            triclinic
loop_
_symmetry_equiv_pos_as_xyz
'x, y, z'
_cell_length_a     58.12957
_cell_length_b     60.149966
_cell_length_c     57.338224
_cell_angle_alpha  97.43389
_cell_angle_beta   87.288689
_cell_angle_gamma 99.138417
loop_
_atom_site_label
_atom_site_type_symbol
_atom_site_fract_x
_atom_site_fract_y
_atom_site_fract_z
_atom_type_partial_charge
O0 O 0.20878 0.16117 0.13791 0.0
Cd1 Cd 0.18272 0.13479 0.16037 0.0
O2 O 0.19242 0.19105 0.15195 0.0
Cd3 Cd 0.16406 0.17593 0.17422 0.0
O4 O 0.1363 0.18292 0.20016 0.0
C5 C 0.11746 0.18847 0.19397 0.0
O6 O 0.11404 0.18811 0.17142 0.0
C7 C 0.20782 0.18227 0.13897 0.0
C8 C 0.2057 0.11187 0.18968 0.0
O9 O 0.2017 0.10366 0.16825 0.0
O10 O 0.1991 0.13097 0.19707 0.0
O11 O 0.88551 0.17258 0.17639 0.0
Cd12 Cd 0.85988 0.14333 0.15189 0.0
O13 O 0.91645 0.1555 0.17112 0.0
Cd14 Cd 0.89399 0.12368 0.15923 0.0
O15 O 0.86877 0.10048 0.17766 0.0
C16 C 0.86611 0.10867 0.19901 0.0
O17 O 0.87818 0.12854 0.20622 0.0
C18 C 0.90712 0.17276 0.17926 0.0
C19 C 0.83136 0.16257 0.12464 0.0
O20 O 0.82473 0.15752 0.1452 0.0
O21 O 0.85148 0.1584 0.11692 0.0
O22 O 0.86872 0.82043 0.16822 0.0
Cd23 Cd 0.90029 0.84362 0.19142 0.0
O24 O 0.86725 0.84663 0.14501 0.0
Cd25 Cd 0.88078 0.87423 0.17191 0.0
O26 O 0.8681 0.89977 0.19818 0.0
C27 C 0.84671 0.90145 0.19645 0.0
O28 O 0.83497 0.88858 0.17935 0.0
C29 C 0.86152 0.82637 0.14969 0.0
C30 C 0.92867 0.81691 0.20986 0.0
O31 O 0.9127 0.82536 0.22258 0.0
O32 O 0.93123 0.82096 0.18842 0.0
O33 O 0.20106 0.89871 0.15149 0.0
Cd34 Cd 0.1769 0.86287 0.13674 0.0
O35 O 0.21754 0.88117 0.17612 0.0
Cd36 Cd 0.19136 0.85093 0.17303 0.0
O37 O 0.16306 0.82541 0.18302 0.0
C38 C 0.15305 0.83014 0.20281 0.0
O39 O 0.15999 0.84986 0.21513 0.0
C40 C 0.21646 0.89887 0.16657 0.0
C41 C 0.2011 0.83207 0.10885 0.0
O42 O 0.20333 0.83576 0.13113 0.0
O43 O 0.18765 0.84308 0.0994 0.0
O44 O 0.24539 0.90801 0.90126 0.0
Cd45 Cd 0.22939 0.8895 0.93545 0.0
O46 O 0.21084 0.90127 0.88586 0.0
Cd47 Cd 0.18459 0.89764 0.85886 0.0
O48 O 0.15375 0.87751 0.84189 0.0
C49 C 0.14847 0.87705 0.82055 0.0
O50 O 0.1619 0.89014 0.80713 0.0
C51 C 0.23226 0.90985 0.88471 0.0
C52 C 0.24529 0.84885 0.94058 0.0
O53 O 0.2268 0.84889 0.92926 0.0
O54 O 0.25651 0.86807 0.94903 0.0
O55 O 0.19866 0.1682 0.8964 0.0
Cd56 Cd 0.17812 0.14657 0.86242 0.0
O57 O 0.17486 0.19349 0.90348 0.0
Cd58 Cd 0.15187 0.18268 0.87366 0.0
O59 O 0.13018 0.19648 0.85056 0.0
C60 C 0.12338 0.21485 0.85961 0.0
O61 O 0.12894 0.22267 0.88141 0.0
C62 C 0.1927 0.1856 0.90876 0.0
C63 C 0.20772 0.11928 0.83702 0.0
O64 O 0.20793 0.13988 0.83336 0.0
O65 O 0.19302 0.11128 0.85236 0.0
O66 O 0.90447 0.21485 0.95214 0.0
Cd67 Cd 0.94177 0.20531 0.93651 0.0
O68 O 0.88912 0.18716 0.92648 0.0
Cd69 Cd 0.86311 0.16454 0.90479 0.0
O70 O 0.84394 0.13902 0.8793 0.0
C71 C 0.82497 0.14263 0.87149 0.0
O72 O 0.81727 0.1617 0.87925 0.0
C73 C 0.88642 0.2034 0.94243 0.0
C74 C 0.95435 0.22827 0.89748 0.0
O75 O 0.94257 0.20825 0.89509 0.0
O76 O 0.96045 0.2371 0.91826 0.0
O77 O 0.89344 0.8641 0.82738 0.0
Cd78 Cd 0.86357 0.88454 0.84876 0.0
O79 O 0.89757 0.84609 0.8577 0.0
Cd80 Cd 0.86996 0.85588 0.88234 0.0
O81 O 0.84714 0.84341 0.91104 0.0
C82 C 0.85188 0.82549 0.91812 0.0
O83 O 0.86992 0.81679 0.90843 0.0
C84 C 0.90365 0.85049 0.83697 0.0
C85 C 0.83977 0.91082 0.82363 0.0
O86 O 0.85892 0.9194 0.83376 0.0
O87 O 0.83234 0.88973 0.82476 0.0
O88 O 0.20937 0.65808 0.64288 0.0
Cd89 Cd 0.18813 0.63826 0.67403 0.0
O90 O 0.19006 0.687 0.64336 0.0
Cd91 Cd 0.16287 0.68116 0.67073 0.0
O92 O 0.13633 0.69647 0.69327 0.0
C93 C 0.1298 0.71365 0.68626 0.0
O94 O 0.13857 0.72005 0.66621 0.0
C95 C 0.20642 0.67625 0.63502 0.0
C96 C 0.21713 0.61369 0.69501 0.0
O97 O 0.20416 0.60414 0.67795 0.0
O98 O 0.21627 0.63465 0.7021 0.0
O99 O 0.89741 0.69265 0.67869 0.0
Cd100 Cd 0.87171 0.66451 0.65327 0.0
O101 O 0.90419 0.67 0.70395 0.0
Cd102 Cd 0.87819 0.64077 0.69215 0.0
O103 O 0.85275 0.61374 0.70484 0.0
C104 C 0.85951 0.60385 0.721 0.0
O105 O 0.88122 0.60948 0.7276 0.0
C106 C 0.90797 0.68933 0.69653 0.0
C107 C 0.85103 0.68697 0.62214 0.0
O108 O 0.83989 0.68068 0.64058 0.0
O109 O 0.8717 0.68227 0.61816 0.0
O110 O 0.87595 0.32127 0.65716 0.0
Cd111 Cd 0.89778 0.3486 0.68674 0.0
O112 O 0.84958 0.34311 0.6537 0.0
Cd113 Cd 0.86122 0.37051 0.68143 0.0
O114 O 0.85168 0.3963 0.70914 0.0
C115 C 0.83081 0.40011 0.70872 0.0
O116 O 0.81743 0.38897 0.69185 0.0
C117 C 0.85779 0.32479 0.64753 0.0
C118 C 0.92186 0.32896 0.71797 0.0
O119 O 0.90113 0.33319 0.72288 0.0
O120 O 0.93105 0.33361 0.69807 0.0
O121 O 0.21104 0.40417 0.6567 0.0
Cd122 Cd 0.18457 0.37224 0.63681 0.0
O123 O 0.22435 0.38035 0.67687 0.0
Cd124 Cd 0.19389 0.35404 0.67378 0.0
O125 O 0.17034 0.3314 0.69388 0.0
C126 C 0.14899 0.32403 0.69003 0.0
O127 O 0.13955 0.32935 0.67153 0.0
C128 C 0.22608 0.3999 0.6702 0.0
C129 C 0.21151 0.34327 0.60974 0.0
O130 O 0.20632 0.34129 0.63137 0.0
O131 O 0.20343 0.35859 0.60046 0.0
O132 O 0.22914 0.38282 0.36174 0.0
Cd133 Cd 0.20662 0.34877 0.3756 0.0
O134 O 0.20035 0.39919 0.35179 0.0
Cd135 Cd 0.17249 0.37147 0.35824 0.0
O136 O 0.14199 0.34653 0.34739 0.0
C137 C 0.13329 0.34872 0.32802 0.0
O138 O 0.14263 0.36576 0.31673 0.0
C139 C 0.22205 0.39932 0.35386 0.0
C140 C 0.23538 0.3267 0.39974 0.0
O141 O 0.23442 0.32339 0.37726 0.0
O142 O 0.22248 0.34017 0.41093 0.0
O143 O 0.19932 0.65743 0.396 0.0
Cd144 Cd 0.17853 0.63735 0.36158 0.0
O145 O 0.18476 0.68929 0.39871 0.0
Cd146 Cd 0.16033 0.67873 0.36994 0.0
O147 O 0.13748 0.68306 0.34201 0.0
C148 C 0.12875 0.70134 0.3445 0.0
O149 O 0.13341 0.71569 0.3636 0.0
C150 C 0.19863 0.67747 0.40596 0.0
C151 C 0.21037 0.61334 0.33524 0.0
O152 O 0.20904 0.6339 0.3325 0.0
O153 O 0.19588 0.60369 0.34976 0.0
O154 O 0.91387 0.71316 0.42787 0.0
Cd155 Cd 0.94802 0.69539 0.41583 0.0
O156 O 0.89136 0.68399 0.40978 0.0
Cd157 Cd 0.85987 0.66446 0.39378 0.0
O158 O 0.84502 0.6398 0.36488 0.0
C159 C 0.82436 0.62903 0.36428 0.0
O160 O 0.80995 0.6327 0.3822 0.0
C161 C 0.89371 0.70363 0.42143 0.0
C162 C 0.96115 0.70533 0.37057 0.0
O163 O 0.94802 0.68671 0.37388 0.0
O164 O 0.96844 0.71894 0.3887 0.0
O165 O 0.9031 0.36072 0.32568 0.0
Cd166 Cd 0.88187 0.38927 0.34826 0.0
O167 O 0.89048 0.33169 0.34563 0.0
Cd168 Cd 0.86877 0.34401 0.3753 0.0
O169 O 0.8509 0.32979 0.40605 0.0
C170 C 0.86148 0.31634 0.4154 0.0
O171 O 0.88234 0.31332 0.40704 0.0
C172 C 0.90254 0.34005 0.32883 0.0
C173 C 0.85997 0.41523 0.32095 0.0
O174 O 0.8815 0.42092 0.32608 0.0
O175 O 0.84899 0.39711 0.32828 0.0
O176 O 0.70686 0.15129 0.64148 0.0
Cd177 Cd 0.68063 0.12785 0.66675 0.0
O178 O 0.68543 0.17857 0.64219 0.0
Cd179 Cd 0.65658 0.16799 0.66633 0.0
O180 O 0.62801 0.17934 0.68895 0.0
C181 C 0.62242 0.1982 0.68533 0.0
O182 O 0.63349 0.20869 0.66838 0.0
C183 C 0.70354 0.16999 0.63501 0.0
C184 C 0.70381 0.10684 0.69772 0.0
O185 O 0.6992 0.0972 0.67685 0.0
O186 O 0.69768 0.12638 0.70375 0.0
O187 O 0.37059 0.19189 0.67413 0.0
Cd188 Cd 0.34666 0.1678 0.64377 0.0
O189 O 0.39826 0.17051 0.67 0.0
Cd190 Cd 0.37318 0.14068 0.65758 0.0
O191 O 0.3501 0.11347 0.67291 0.0
C192 C 0.35919 0.1044 0.68832 0.0
O193 O 0.38149 0.11079 0.69235 0.0
C194 C 0.3911 0.18891 0.67831 0.0
C195 C 0.33318 0.19548 0.61289 0.0
O196 O 0.3193 0.1886 0.62941 0.0
O197 O 0.35311 0.1888 0.61056 0.0
O198 O 0.37847 0.8178 0.65127 0.0
Cd199 Cd 0.39967 0.84404 0.68218 0.0
O200 O 0.35628 0.84259 0.64444 0.0
Cd201 Cd 0.36897 0.86965 0.67201 0.0
O202 O 0.36073 0.89677 0.69871 0.0
C203 C 0.33982 0.90059 0.69884 0.0
O204 O 0.32564 0.88847 0.68317 0.0
C205 C 0.36229 0.82304 0.63982 0.0
C206 C 0.42324 0.82333 0.71292 0.0
O207 O 0.40202 0.82634 0.71712 0.0
O208 O 0.43315 0.82974 0.69395 0.0
O209 O 0.70866 0.88535 0.67141 0.0
Cd210 Cd 0.68698 0.85089 0.65055 0.0
O211 O 0.67826 0.90318 0.67535 0.0
Cd212 Cd 0.65463 0.87244 0.66318 0.0
O213 O 0.63343 0.84853 0.68398 0.0
C214 C 0.63115 0.8574 0.70514 0.0
O215 O 0.64081 0.87858 0.71089 0.0
C216 C 0.69973 0.90308 0.67851 0.0
C217 C 0.71679 0.82493 0.62417 0.0
O218 O 0.71254 0.82319 0.64605 0.0
O219 O 0.70682 0.83894 0.61472 0.0
O220 O 0.73093 0.8944 0.38421 0.0
Cd221 Cd 0.71245 0.86962 0.4128 0.0
O222 O 0.6986 0.88771 0.36483 0.0
Cd223 Cd 0.67144 0.88746 0.33942 0.0
O224 O 0.6418 0.8684 0.31951 0.0
C225 C 0.63976 0.84709 0.31983 0.0
O226 O 0.65518 0.83927 0.33132 0.0
C227 C 0.71958 0.89767 0.36686 0.0
C228 C 0.74169 0.8423 0.42867 0.0
O229 O 0.72842 0.83488 0.41123 0.0
O230 O 0.74138 0.86271 0.4383 0.0
O231 O 0.69836 0.16227 0.40601 0.0
Cd232 Cd 0.67688 0.14164 0.37208 0.0
O233 O 0.686 0.19514 0.40637 0.0
Cd234 Cd 0.66132 0.18749 0.37768 0.0
O235 O 0.63987 0.20278 0.35558 0.0
C236 C 0.632 0.22029 0.36558 0.0
O237 O 0.63642 0.22679 0.38789 0.0
C238 C 0.69866 0.18286 0.4148 0.0
C239 C 0.70639 0.11496 0.34545 0.0
O240 O 0.70657 0.13578 0.34266 0.0
O241 O 0.69165 0.10632 0.36039 0.0
O242 O 0.40989 0.20364 0.42277 0.0
Cd243 Cd 0.43446 0.1778 0.40196 0.0
O244 O 0.38141 0.17669 0.41168 0.0
Cd245 Cd 0.34588 0.16172 0.40295 0.0
O246 O 0.32341 0.13868 0.37826 0.0
C247 C 0.33194 0.13517 0.35753 0.0
O248 O 0.35283 0.14581 0.35273 0.0
C249 C 0.38816 0.19679 0.42115 0.0
C250 C 0.45441 0.19896 0.36397 0.0
O251 O 0.43364 0.18799 0.36307 0.0
O252 O 0.46607 0.19922 0.38244 0.0
O253 O 0.38997 0.8638 0.32035 0.0
Cd254 Cd 0.36074 0.88352 0.34369 0.0
O255 O 0.39358 0.8418 0.34751 0.0
Cd256 Cd 0.36693 0.84956 0.37429 0.0
O257 O 0.34735 0.83278 0.40262 0.0
C258 C 0.35815 0.81956 0.41206 0.0
O259 O 0.37981 0.81826 0.4051 0.0
C260 C 0.39963 0.84847 0.32761 0.0
C261 C 0.33716 0.91082 0.31965 0.0
O262 O 0.35616 0.91909 0.33019 0.0
O263 O 0.32966 0.88964 0.32007 0.0
O264 O 0.70668 0.65605 0.14093 0.0
Cd265 Cd 0.68576 0.62731 0.16444 0.0
O266 O 0.67859 0.67638 0.13827 0.0
Cd267 Cd 0.65137 0.66332 0.16294 0.0
O268 O 0.62498 0.67577 0.18792 0.0
C269 C 0.60776 0.68335 0.18055 0.0
O270 O 0.60508 0.68185 0.15775 0.0
C271 C 0.69909 0.67216 0.1328 0.0
C272 C 0.71514 0.60525 0.18809 0.0
O273 O 0.71144 0.59962 0.16612 0.0
O274 O 0.70516 0.62131 0.19889 0.0
O275 O 0.37651 0.69543 0.17243 0.0
Cd276 Cd 0.34893 0.66601 0.15028 0.0
O277 O 0.40569 0.6759 0.1673 0.0
Cd278 Cd 0.38176 0.64431 0.15846 0.0
O279 O 0.36131 0.61724 0.17623 0.0
C280 C 0.37156 0.61159 0.19316 0.0
O281 O 0.39318 0.62117 0.1971 0.0
C282 C 0.39798 0.69429 0.1745 0.0
C283 C 0.32182 0.68424 0.12063 0.0
O284 O 0.31503 0.68143 0.14179 0.0
O285 O 0.34147 0.67838 0.11348 0.0
O286 O 0.38725 0.32718 0.15051 0.0
Cd287 Cd 0.41513 0.35146 0.17729 0.0
O288 O 0.3711 0.35665 0.14491 0.0
Cd289 Cd 0.38883 0.38161 0.17184 0.0
O290 O 0.37931 0.40744 0.19945 0.0
C291 C 0.35894 0.41201 0.19737 0.0
O292 O 0.34691 0.40181 0.17913 0.0
C293 C 0.37235 0.33562 0.14023 0.0
C294 C 0.43701 0.32874 0.20743 0.0
O295 O 0.41736 0.33533 0.21307 0.0
O296 O 0.44616 0.33254 0.18726 0.0
O297 O 0.72203 0.37869 0.17106 0.0
Cd298 Cd 0.69272 0.34542 0.16037 0.0
O299 O 0.69817 0.4039 0.17523 0.0
Cd300 Cd 0.66846 0.37688 0.17006 0.0
O301 O 0.64639 0.35198 0.18899 0.0
C302 C 0.65614 0.34667 0.20643 0.0
O303 O 0.678 0.35551 0.21021 0.0
C304 C 0.71869 0.39921 0.17573 0.0
C305 C 0.71081 0.31175 0.13044 0.0
O306 O 0.71469 0.31476 0.15251 0.0
O307 O 0.69846 0.32472 0.12234 0.0
O308 O 0.72296 0.3826 0.90162 0.0
Cd309 Cd 0.70086 0.35589 0.92648 0.0
O310 O 0.69123 0.37735 0.88135 0.0
Cd311 Cd 0.66898 0.37738 0.85159 0.0
O312 O 0.64124 0.35936 0.82857 0.0
C313 C 0.62482 0.34711 0.83858 0.0
O314 O 0.62525 0.34736 0.8615 0.0
C315 C 0.71214 0.38704 0.88444 0.0
C316 C 0.72479 0.32362 0.94144 0.0
O317 O 0.71562 0.32039 0.92115 0.0
O318 O 0.72327 0.34241 0.95436 0.0
O319 O 0.69269 0.67435 0.90064 0.0
Cd320 Cd 0.67039 0.64924 0.86969 0.0
O321 O 0.67143 0.70198 0.90413 0.0
Cd322 Cd 0.64918 0.69204 0.87362 0.0
O323 O 0.62908 0.70766 0.85049 0.0
C324 C 0.62278 0.72617 0.85987 0.0
O325 O 0.62802 0.73331 0.8819 0.0
C326 C 0.68798 0.69315 0.91107 0.0
C327 C 0.69574 0.61582 0.84832 0.0
O328 O 0.69439 0.63351 0.83847 0.0
O329 O 0.68511 0.61384 0.8682 0.0
O330 O 0.39951 0.70721 0.94643 0.0
Cd331 Cd 0.43085 0.68898 0.92643 0.0
O332 O 0.38023 0.68152 0.92146 0.0
Cd333 Cd 0.35255 0.66204 0.89945 0.0
O334 O 0.34139 0.63808 0.86875 0.0
C335 C 0.32325 0.62314 0.86791 0.0
O336 O 0.30904 0.62212 0.88638 0.0
C337 C 0.3802 0.69842 0.93727 0.0
C338 C 0.44537 0.71108 0.88733 0.0
O339 O 0.4268 0.6964 0.8868 0.0
O340 O 0.45737 0.71487 0.906 0.0
O341 O 0.4027 0.36508 0.82599 0.0
Cd342 Cd 0.37919 0.39198 0.84791 0.0
O343 O 0.40241 0.34244 0.85349 0.0
Cd344 Cd 0.3779 0.35438 0.88064 0.0
O345 O 0.35492 0.34083 0.90879 0.0
C346 C 0.35816 0.32145 0.91346 0.0
O347 O 0.37492 0.31202 0.90192 0.0
C348 C 0.40928 0.34806 0.83335 0.0
C349 C 0.36097 0.41969 0.8197 0.0
O350 O 0.38172 0.42506 0.82739 0.0
O351 O 0.34896 0.40122 0.82518 0.0
H352 H 0.29727 0.29374 0.00726 0.0
H353 H 0.23771 0.2411 0.00713 0.0
H354 H 0.27924 0.2491 0.94384 0.0
H355 H 0.26447 0.29634 0.03653 0.0
H356 H 0.24088 0.27363 0.03715 0.0
H357 H 0.30147 0.29508 0.05466 0.0
H358 H 0.29503 0.25404 0.1115 0.0
H359 H 0.24391 0.24087 0.05767 0.0
C360 C 0.28645 0.27912 -0.00177 0.0
C361 C 0.29116 0.27206 0.9744 0.0
C362 C 0.26726 0.26786 0.0102 0.0
C363 C 0.25282 0.24945 -0.00189 0.0
C364 C 0.25691 0.2427 0.9741 0.0
C365 C 0.27639 0.25377 0.96254 0.0
C366 C 0.26014 0.2775 0.03458 0.0
C367 C 0.27178 0.26858 0.05367 0.0
C368 C 0.29263 0.28078 0.06299 0.0
C369 C 0.30107 0.27584 0.08401 0.0
C370 C 0.28917 0.2575 0.09484 0.0
C371 C 0.26881 0.24454 0.08518 0.0
C372 C 0.26033 0.25 0.06444 0.0
H373 H 0.77259 0.1854 0.0397 0.0
H374 H 0.73321 0.24013 0.04042 0.0
H375 H 0.76583 0.23029 0.10346 0.0
H376 H 0.74725 0.18549 0.00766 0.0
H377 H 0.72619 0.20442 0.01063 0.0
H378 H 0.78792 0.19883 0.99363 0.0
H379 H 0.79619 0.2544 0.95194 0.0
H380 H 0.73424 0.24059 -0.00501 0.0
C381 C 0.76607 0.20006 0.04908 0.0
C382 C 0.7715 0.20694 0.07278 0.0
C383 C 0.75185 0.21174 0.03754 0.0
C384 C 0.7434 0.23071 0.04973 0.0
C385 C 0.74804 0.23746 0.07368 0.0
C386 C 0.76211 0.22537 0.085 0.0
C387 C 0.74499 0.20356 0.01248 0.0
C388 C 0.75936 0.2179 -0.00424 0.0
C389 C 0.7813 0.21289 0.98758 0.0
C390 C 0.79481 0.22604 0.97188 0.0
C391 C 0.78607 0.24434 0.96433 0.0
C392 C 0.7644 0.24991 0.9729 0.0
C393 C 0.75115 0.2366 0.98861 0.0
H394 H 0.73589 0.74127 0.05524 0.0
H395 H 0.79231 0.79652 0.06726 0.0
H396 H 0.78465 0.74137 0.10932 0.0
H397 H 0.73489 0.77965 0.04271 0.0
H398 H 0.76042 0.80045 0.04405 0.0
H399 H 0.73053 0.74723 0.01149 0.0
H400 H 0.77348 0.75556 0.94916 0.0
H401 H 0.79146 0.7986 0.01356 0.0
C402 C 0.75171 0.74887 0.06431 0.0
C403 C 0.75896 0.73868 0.08286 0.0
C404 C 0.76399 0.7695 0.05826 0.0
C405 C 0.78365 0.78001 0.07107 0.0
C406 C 0.79107 0.7702 0.08983 0.0
C407 C 0.7791 0.74909 0.09493 0.0
C408 C 0.75422 0.78187 0.0406 0.0
C409 C 0.76065 0.7734 0.01556 0.0
C410 C 0.74595 0.75551 0.00289 0.0
C411 C 0.75044 0.74904 0.97888 0.0
C412 C 0.77031 0.75999 0.96785 0.0
C413 C 0.78516 0.77783 0.98021 0.0
C414 C 0.78031 0.78447 0.00409 0.0
H415 H 0.26564 0.70188 0.03133 0.0
H416 H 0.22742 0.75658 0.02653 0.0
H417 H 0.25872 0.751 0.09169 0.0
H418 H 0.24066 0.70043 -0.002 0.0
H419 H 0.22193 0.72132 -0.00241 0.0
H420 H 0.28175 0.70819 0.98471 0.0
H421 H 0.30222 0.76426 0.94461 0.0
H422 H 0.23646 0.75776 0.98277 0.0
C423 C 0.25929 0.71714 0.03942 0.0
C424 C 0.26441 0.72557 0.06291 0.0
C425 C 0.24567 0.72812 0.02638 0.0
C426 C 0.2375 0.74789 0.03683 0.0
C427 C 0.2423 0.75653 0.06034 0.0
C428 C 0.25544 0.74497 0.07334 0.0
C429 C 0.23996 0.71896 0.00125 0.0
C430 C 0.25696 0.73125 0.98484 0.0
C431 C 0.27806 0.72341 0.97829 0.0
C432 C 0.29456 0.73523 0.96387 0.0
C433 C 0.28982 0.75528 0.95617 0.0
C434 C 0.26892 0.76358 0.963 0.0
C435 C 0.25252 0.75137 0.97722 0.0
H436 H 0.02756 0.21923 0.25916 0.0
H437 H 0.03339 0.28183 0.30622 0.0
H438 H 0.09296 0.2641 0.26503 0.0
H439 H -0.00111 0.22478 0.29199 0.0
H440 H 0.00126 0.2508 0.3111 0.0
H441 H 0.9825 0.22163 0.25253 0.0
H442 H 0.93269 0.26646 0.24686 0.0
H443 H 0.98168 0.28121 0.30256 0.0
C444 C 0.03771 0.23511 0.26641 0.0
C445 C 0.06144 0.23999 0.26009 0.0
C446 C 0.02743 0.25015 0.28313 0.0
C447 C 0.04102 0.27036 0.29302 0.0
C448 C 0.06458 0.27554 0.28629 0.0
C449 C 0.0746 0.26034 0.26983 0.0
C450 C 0.00287 0.24354 0.29234 0.0
C451 C 0.98503 0.2513 0.27816 0.0
C452 C 0.9759 0.2374 0.25806 0.0
C453 C 0.95704 0.24271 0.24646 0.0
C454 C 0.94761 0.2624 0.25517 0.0
C455 C 0.95632 0.27628 0.27538 0.0
C456 C 0.97544 0.27099 0.28646 0.0
H457 H 0.82538 0.03408 0.2663 0.0
H458 H 0.77064 0.03747 0.3193 0.0
H459 H 0.77992 0.08385 0.26721 0.0
H460 H 0.82678 0.01767 0.30304 0.0
H461 H 0.80386 0.0186 0.32464 0.0
H462 H 0.8216 0.98926 0.26643 0.0
H463 H 0.7795 0.92639 0.27912 0.0
H464 H 0.77214 0.98771 0.32469 0.0
C465 C 0.81004 0.04103 0.27341 0.0
C466 C 0.80386 0.05979 0.2644 0.0
C467 C 0.79787 0.03261 0.29303 0.0
C468 C 0.77917 0.04305 0.30339 0.0
C469 C 0.77285 0.06189 0.29448 0.0
C470 C 0.78467 0.06941 0.27434 0.0
C471 C 0.80746 0.01546 0.30535 0.0
C472 C 0.79763 -0.00874 0.29631 0.0
C473 C 0.80778 0.98002 0.27635 0.0
C474 C 0.80076 0.95671 0.2697 0.0
C475 C 0.7836 0.94465 0.28331 0.0
C476 C 0.77298 0.95562 0.3031 0.0
C477 C 0.77986 0.97908 0.30921 0.0
H478 H 0.01164 0.70974 0.27099 0.0
H479 H 0.00661 0.7527 0.21765 0.0
H480 H 0.96034 0.75424 0.27874 0.0
H481 H 0.02774 0.70119 0.22925 0.0
H482 H 0.03044 0.7227 0.21002 0.0
H483 H 0.05224 0.70634 0.26483 0.0
H484 H 0.11297 0.75758 0.26683 0.0
H485 H 0.06047 0.7561 0.21608 0.0
C486 C 0.00345 0.7225 0.26429 0.0
C487 C 0.98555 0.73162 0.27751 0.0
C488 C 0.01113 0.73 0.2427 0.0
C489 C 0.00055 0.74677 0.23425 0.0
C490 C 0.98222 0.75587 0.24717 0.0
C491 C 0.97484 0.74804 0.26881 0.0
C492 C 0.03049 0.71987 0.22881 0.0
C493 C 0.05379 0.72999 0.23917 0.0
C494 C 0.06226 0.72099 0.258 0.0
C495 C 0.08348 0.73107 0.26824 0.0
C496 C 0.09629 0.75008 0.25937 0.0
C497 C 0.08819 0.75907 0.24051 0.0
C498 C 0.06689 0.74904 0.23053 0.0
H499 H 0.24315 -0.00676 0.2359 0.0
H500 H 0.27859 0.98963 0.2991 0.0
H501 H 0.2832 0.93948 0.23949 0.0
H502 H 0.2277 0.0066 0.27655 0.0
H503 H 0.24653 0.01075 0.3008 0.0
H504 H 0.23195 0.03348 0.24728 0.0
H505 H 0.27261 0.09875 0.268 0.0
H506 H 0.27887 0.04222 0.30472 0.0
C507 C 0.25493 0.98537 0.24512 0.0
C508 C 0.2631 0.96567 0.2343 0.0
C509 C 0.26009 -0.00611 0.26856 0.0
C510 C 0.27508 0.98351 0.2808 0.0
C511 C 0.28394 0.96411 0.27011 0.0
C512 C 0.27769 0.9553 0.247 0.0
C513 C 0.2463 0.01119 0.28147 0.0
C514 C 0.25512 0.03499 0.276 0.0
C515 C 0.24533 0.04405 0.25798 0.0
C516 C 0.25161 0.06711 0.25491 0.0
C517 C 0.26809 0.08085 0.26979 0.0
C518 C 0.27794 0.072 0.28775 0.0
C519 C 0.27163 0.04901 0.29055 0.0
H520 H -0.00271 0.80398 0.80411 0.0
H521 H -0.00342 0.74488 0.75316 0.0
H522 H 0.93787 0.78083 0.76048 0.0
H523 H 0.02157 0.7756 0.80896 0.0
H524 H 0.01923 0.74981 0.78961 0.0
H525 H 0.04895 0.80888 0.8003 0.0
H526 H 0.10598 0.7954 0.75275 0.0
H527 H 0.0434 0.74662 0.75308 0.0
C528 C 0.98883 0.79253 0.78979 0.0
C529 C 0.96643 0.79503 0.78319 0.0
C530 C -0.0003 0.77432 0.77918 0.0
C531 C 0.98854 0.75927 0.76094 0.0
C532 C 0.96639 0.76173 0.75379 0.0
C533 C 0.95557 0.77976 0.76487 0.0
C534 C 0.02085 0.76854 0.79003 0.0
C535 C 0.04342 0.77708 0.77767 0.0
C536 C 0.05626 0.79816 0.78613 0.0
C537 C 0.07901 0.80478 0.77747 0.0
C538 C 0.08821 0.79074 0.75909 0.0
C539 C 0.0754 0.76989 0.74999 0.0
C540 C 0.05303 0.76307 0.75943 0.0
H541 H 0.2776 -0.00819 0.83101 0.0
H542 H 0.32001 -0.00809 0.76734 0.0
H543 H 0.28217 0.9293 0.78664 0.0
H544 H 0.30511 0.02468 0.82528 0.0
H545 H 0.32786 0.02204 0.80372 0.0
H546 H 0.27247 0.04307 0.81798 0.0
H547 H 0.27929 0.08145 0.75911 0.0
H548 H 0.32461 0.03236 0.76371 0.0
C549 C 0.28367 0.98291 0.8148 0.0
C550 C 0.27765 0.95922 0.81032 0.0
C551 C 0.29899 -0.00511 0.79935 0.0
C552 C 0.30778 0.98295 0.77904 0.0
C553 C 0.30154 0.95933 0.77424 0.0
C554 C 0.2864 0.94764 0.78987 0.0
C555 C 0.30856 0.01961 0.80623 0.0
C556 C 0.29884 0.03516 0.79185 0.0
C557 C 0.28039 0.04647 0.80105 0.0
C558 C 0.27349 0.06347 0.78951 0.0
C559 C 0.28436 0.06815 0.7679 0.0
C560 C 0.30285 0.05709 0.75843 0.0
C561 C 0.30986 0.04045 0.77045 0.0
H562 H 0.00973 0.31766 0.77125 0.0
H563 H 0.0189 0.28687 0.83293 0.0
H564 H 0.95161 0.27638 0.80203 0.0
H565 H 0.0449 0.32919 0.793 0.0
H566 H 0.04649 0.32065 0.82145 0.0
H567 H 0.06798 0.31378 0.76197 0.0
H568 H 0.10786 0.26178 0.77294 0.0
H569 H 0.056 0.28053 0.82436 0.0
C570 C 0.0027 0.30663 0.78425 0.0
C571 C 0.97881 0.29761 0.78448 0.0
C572 C 0.01734 0.30259 0.80153 0.0
C573 C 0.00793 0.28934 0.81904 0.0
C574 C 0.98438 0.27964 0.81921 0.0
C575 C 0.96991 0.28361 0.80174 0.0
C576 C 0.04234 0.31415 0.80282 0.0
C577 C 0.05921 0.29813 0.7936 0.0
C578 C 0.07138 0.30074 0.77216 0.0
C579 C 0.08926 0.28799 0.7648 0.0
C580 C 0.09401 0.27159 0.77849 0.0
C581 C 0.08235 0.26903 0.8002 0.0
C582 C 0.06473 0.28215 0.80745 0.0
H583 H 0.73649 -0.00625 0.75242 0.0
H584 H 0.78308 -0.00892 0.80761 0.0
H585 H 0.77537 0.93827 0.74914 0.0
H586 H 0.72938 0.0099 0.79463 0.0
H587 H 0.75213 0.01341 0.81497 0.0
H588 H 0.7338 0.03298 0.75985 0.0
H589 H 0.77034 0.1005 0.77835 0.0
H590 H 0.77881 0.04751 0.81917 0.0
C591 C 0.74951 0.98567 0.75951 0.0
C592 C 0.7547 0.96488 0.7481 0.0
C593 C 0.75944 -0.00486 0.78108 0.0
C594 C 0.77611 0.98438 0.79048 0.0
C595 C 0.78227 0.96397 0.77884 0.0
C596 C 0.77151 0.95448 0.75762 0.0
C597 C 0.74867 0.01363 0.79608 0.0
C598 C 0.75674 0.03715 0.78921 0.0
C599 C 0.74656 0.04462 0.77036 0.0
C600 C 0.75135 0.06752 0.7663 0.0
C601 C 0.76659 0.0828 0.78122 0.0
C602 C 0.77614 0.07583 0.80054 0.0
C603 C 0.77182 0.05285 0.80397 0.0
H604 H 0.27126 0.70095 0.49429 0.0
H605 H 0.33025 0.75421 0.49648 0.0
H606 H 0.27924 0.74811 0.4431 0.0
H607 H 0.30739 0.69738 0.51354 0.0
H608 H 0.33156 0.71981 0.51507 0.0
H609 H 0.27442 0.69841 0.54202 0.0
H610 H 0.28538 0.74595 0.60477 0.0
H611 H 0.33241 0.75307 0.54518 0.0
C612 C 0.28072 0.71584 0.48741 0.0
C613 C 0.27243 0.72359 0.46779 0.0
C614 C 0.30171 0.72666 0.49766 0.0
C615 C 0.31404 0.74589 0.4886 0.0
C616 C 0.30605 0.75381 0.46887 0.0
C617 C 0.28506 0.7427 0.45885 0.0
C618 C 0.31219 0.71618 0.51639 0.0
C619 C 0.30413 0.72494 0.54074 0.0
C620 C 0.28428 0.7134 0.5515 0.0
C621 C 0.27743 0.72091 0.57464 0.0
C622 C 0.29027 0.74034 0.58673 0.0
C623 C 0.31008 0.75194 0.57624 0.0
C624 C 0.31696 0.74423 0.55324 0.0
H625 H 0.79429 0.80188 0.54819 0.0
H626 H 0.83974 0.75168 0.54271 0.0
H627 H 0.78523 0.75185 0.59626 0.0
H628 H 0.83276 0.80838 0.52875 0.0
H629 H 0.85116 0.78707 0.52546 0.0
H630 H 0.80029 0.80624 0.50191 0.0
H631 H 0.80845 0.76701 0.43436 0.0
H632 H 0.84561 0.75578 0.49368 0.0
C633 C 0.79888 0.78666 0.55382 0.0
C634 C 0.78661 0.77714 0.57272 0.0
C635 C 0.81805 0.7776 0.54303 0.0
C636 C 0.82479 0.75853 0.55099 0.0
C637 C 0.81305 0.74899 0.57023 0.0
C638 C 0.79393 0.75844 0.58091 0.0
C639 C 0.8327 0.78976 0.52482 0.0
C640 C 0.82377 0.78178 0.50044 0.0
C641 C 0.80761 0.79289 0.49092 0.0
C642 C 0.80158 0.78751 0.46713 0.0
C643 C 0.8118 0.77053 0.45301 0.0
C644 C 0.8273 0.75876 0.46269 0.0
C645 C 0.8329 0.76422 0.48645 0.0
H646 H 0.83192 0.25366 0.553 0.0
H647 H 0.77585 0.19709 0.54819 0.0
H648 H 0.78369 0.24434 0.61135 0.0
H649 H 0.83309 0.22024 0.52287 0.0
H650 H 0.80914 0.19758 0.52004 0.0
H651 H 0.83348 0.25356 0.50289 0.0
H652 H 0.78149 0.25019 0.45103 0.0
H653 H 0.77243 0.20249 0.50159 0.0
C654 C 0.81658 0.24423 0.56065 0.0
C655 C 0.80891 0.2515 0.58352 0.0
C656 C 0.80462 0.22471 0.54768 0.0
C657 C 0.78497 0.21233 0.55794 0.0
C658 C 0.77716 0.21953 0.58082 0.0
C659 C 0.78923 0.2391 0.59342 0.0
C660 C 0.81372 0.21636 0.52358 0.0
C661 C 0.80393 0.22702 0.50453 0.0
C662 C 0.81689 0.24594 0.49535 0.0
C663 C 0.80898 0.2544 0.47591 0.0
C664 C 0.78736 0.24438 0.46654 0.0
C665 C 0.77398 0.22585 0.47581 0.0
C666 C 0.78238 0.2172 0.49478 0.0
H667 H 0.28892 0.3155 0.53528 0.0
H668 H 0.33192 0.26344 0.53247 0.0
H669 H 0.2767 0.26686 0.58496 0.0
H670 H 0.32503 0.31913 0.51319 0.0
H671 H 0.34518 0.3 0.51518 0.0
H672 H 0.29517 0.3108 0.48306 0.0
H673 H 0.30552 0.25955 0.42513 0.0
H674 H 0.34363 0.26482 0.48839 0.0
C675 C 0.29281 0.30036 0.54169 0.0
C676 C 0.27983 0.2918 0.56073 0.0
C677 C 0.31162 0.29025 0.53154 0.0
C678 C 0.31748 0.27129 0.5405 0.0
C679 C 0.30526 0.26291 0.56011 0.0
C680 C 0.2862 0.27307 0.56979 0.0
C681 C 0.32652 0.30083 0.51244 0.0
C682 C 0.31968 0.28877 0.48851 0.0
C683 C 0.30322 0.29635 0.4755 0.0
C684 C 0.29804 0.28615 0.45243 0.0
C685 C 0.30921 0.26775 0.44281 0.0
C686 C 0.32559 0.26009 0.45579 0.0
C687 C 0.33053 0.27043 0.47865 0.0
H688 H 0.81424 0.52681 0.78706 0.0
H689 H 0.75345 0.53041 0.83231 0.0
H690 H 0.77245 0.57871 0.78287 0.0
H691 H 0.81116 0.51175 0.8254 0.0
H692 H 0.78555 0.51264 0.84358 0.0
H693 H 0.80606 0.48565 0.78432 0.0
H694 H 0.76935 0.4199 0.79567 0.0
H695 H 0.76046 0.47806 0.84522 0.0
C696 C 0.79873 0.53429 0.79235 0.0
C697 C 0.79407 0.55274 0.78163 0.0
C698 C 0.78422 0.52622 0.81074 0.0
C699 C 0.76448 0.53645 0.81795 0.0
C700 C 0.75975 0.55524 0.80771 0.0
C701 C 0.7748 0.56327 0.78968 0.0
C702 C 0.79179 0.50931 0.825 0.0
C703 C 0.78343 0.48491 0.81533 0.0
C704 C 0.79357 0.47518 0.79448 0.0
C705 C 0.78832 0.45178 0.78716 0.0
C706 C 0.77287 0.43809 0.80085 0.0
C707 C 0.76273 0.44745 0.82172 0.0
C708 C 0.76772 0.47092 0.82869 0.0
H709 H 0.28905 0.54497 0.71318 0.0
H710 H 0.32507 0.54516 0.77705 0.0
H711 H 0.27369 0.5889 0.77545 0.0
H712 H 0.32413 0.5279 0.71209 0.0
H713 H 0.34181 0.53237 0.73734 0.0
H714 H 0.29273 0.49509 0.7064 0.0
H715 H 0.29914 0.43856 0.7431 0.0
H716 H 0.33778 0.50438 0.76553 0.0
C717 C 0.2913 0.55074 0.73174 0.0
C718 C 0.27878 0.56753 0.74296 0.0
C719 C 0.30792 0.54245 0.74405 0.0
C720 C 0.31183 0.551 0.76772 0.0
C721 C 0.29969 0.56792 0.77901 0.0
C722 C 0.28285 0.57563 0.76674 0.0
C723 C 0.32363 0.52681 0.73134 0.0
C724 C 0.31595 0.50245 0.73562 0.0
C725 C 0.29997 0.48826 0.72053 0.0
C726 C 0.29416 0.46512 0.72291 0.0
C727 C 0.3038 0.45641 0.74113 0.0
C728 C 0.31974 0.47023 0.75651 0.0
C729 C 0.32558 0.49341 0.75378 0.0
H730 H 0.33944 0.53886 0.26962 0.0
H731 H 0.2828 0.54472 0.31986 0.0
H732 H 0.29125 0.58458 0.26202 0.0
H733 H 0.34054 0.52709 0.30941 0.0
H734 H 0.31601 0.52784 0.32924 0.0
H735 H 0.33709 0.49819 0.27212 0.0
H736 H 0.29491 0.43468 0.28253 0.0
H737 H 0.28763 0.49445 0.33051 0.0
C738 C 0.32389 0.54602 0.27549 0.0
C739 C 0.31687 0.56259 0.26339 0.0
C740 C 0.31158 0.53937 0.29577 0.0
C741 C 0.29178 0.54917 0.30371 0.0
C742 C 0.28446 0.56572 0.29179 0.0
C743 C 0.29674 0.57179 0.27127 0.0
C744 C 0.32115 0.52395 0.31039 0.0
C745 C 0.31298 0.49924 0.30202 0.0
C746 C 0.32355 0.48854 0.28198 0.0
C747 C 0.31678 0.46535 0.2747 0.0
C748 C 0.29978 0.45273 0.28787 0.0
C749 C 0.28924 0.46305 0.30802 0.0
C750 C 0.29558 0.48643 0.31482 0.0
H751 H 0.7851 0.53696 0.21597 0.0
H752 H 0.82294 0.5467 0.28004 0.0
H753 H 0.77316 0.59025 0.27093 0.0
H754 H 0.82324 0.52383 0.21695 0.0
H755 H 0.83906 0.52846 0.24343 0.0
H756 H 0.78821 0.49318 0.21217 0.0
H757 H 0.79458 0.43476 0.24577 0.0
H758 H 0.83504 0.49936 0.26955 0.0
C759 C 0.78848 0.54598 0.23336 0.0
C760 C 0.77658 0.56423 0.24183 0.0
C761 C 0.80546 0.53976 0.24697 0.0
C762 C 0.80969 0.55122 0.26963 0.0
C763 C 0.79769 0.56912 0.27854 0.0
C764 C 0.78133 0.57555 0.26453 0.0
C765 C 0.82128 0.52323 0.23627 0.0
C766 C 0.81234 0.49908 0.24062 0.0
C767 C 0.79558 0.48572 0.22577 0.0
C768 C 0.78934 0.4625 0.22746 0.0
C769 C 0.79928 0.45279 0.24473 0.0
C770 C 0.81551 0.46591 0.2603 0.0
C771 C 0.82208 0.48914 0.25806 0.0
H772 H 0.52891 0.22441 0.74566 0.0
H773 H 0.5296 0.28117 0.79979 0.0
H774 H 0.59211 0.27135 0.7592 0.0
H775 H 0.49846 0.22416 0.77623 0.0
H776 H 0.5005 0.24579 0.80069 0.0
H777 H 0.47474 0.22601 0.74386 0.0
H778 H 0.43118 0.27812 0.74986 0.0
H779 H 0.48684 0.28276 0.79785 0.0
C780 C 0.53808 0.23977 0.75516 0.0
C781 C 0.56176 0.24681 0.74986 0.0
C782 C 0.52637 0.25214 0.7732 0.0
C783 C 0.53851 0.2718 0.7857 0.0
C784 C 0.56229 0.27881 0.78086 0.0
C785 C 0.57362 0.26643 0.76263 0.0
C786 C 0.50199 0.24288 0.78114 0.0
C787 C 0.48364 0.25383 0.77108 0.0
C788 C 0.4707 0.24231 0.75189 0.0
C789 C 0.45144 0.2507 0.74434 0.0
C790 C 0.44604 0.27156 0.75547 0.0
C791 C 0.4585 0.28315 0.77496 0.0
C792 C 0.47751 0.2743 0.78244 0.0
H793 H 0.50155 0.82258 0.78305 0.0
H794 H 0.50606 0.78548 0.84111 0.0
H795 H 0.44979 0.76461 0.79285 0.0
H796 H 0.52839 0.83781 0.81502 0.0
H797 H 0.5296 0.82255 0.83961 0.0
H798 H 0.5535 0.83191 0.78113 0.0
H799 H 0.60544 0.78856 0.78247 0.0
H800 H 0.54989 0.78794 0.83496 0.0
C801 C 0.49482 0.80839 0.79259 0.0
C802 C 0.47417 0.79402 0.78557 0.0
C803 C 0.50648 0.80508 0.8124 0.0
C804 C 0.49733 0.78741 0.82537 0.0
C805 C 0.47686 0.77265 0.81863 0.0
C806 C 0.46541 0.77599 0.79853 0.0
C807 C 0.52845 0.82059 0.82012 0.0
C808 C 0.54944 0.81096 0.80922 0.0
C809 C 0.56035 0.81893 0.78896 0.0
C810 C 0.58048 0.81086 0.77917 0.0
C811 C 0.58933 0.79409 0.78942 0.0
C812 C 0.57836 0.78563 0.80957 0.0
C813 C 0.55835 0.79414 0.81929 0.0
H814 H 0.52473 0.7287 0.24427 0.0
H815 H 0.5384 0.79082 0.2915 0.0
H816 H 0.59415 0.76601 0.24926 0.0
H817 H 0.49833 0.73681 0.27784 0.0
H818 H 0.50452 0.762 0.29783 0.0
H819 H 0.48066 0.73778 0.23947 0.0
H820 H 0.43304 0.7861 0.24281 0.0
H821 H 0.48663 0.79437 0.29374 0.0
C822 C 0.53661 0.74363 0.25111 0.0
C823 C 0.56034 0.74568 0.24436 0.0
C824 C 0.52851 0.75997 0.26806 0.0
C825 C 0.54432 0.77875 0.27772 0.0
C826 C 0.56807 0.7809 0.27111 0.0
C827 C 0.57578 0.76447 0.25424 0.0
C828 C 0.50423 0.75543 0.27877 0.0
C829 C 0.48658 0.76579 0.26685 0.0
C830 C 0.47543 0.7538 0.24679 0.0
C831 C 0.45618 0.76109 0.23775 0.0
C832 C 0.44848 0.78094 0.24896 0.0
C833 C 0.45909 0.79293 0.26935 0.0
C834 C 0.47862 0.78558 0.27774 0.0
H835 H 0.51627 0.3204 0.27416 0.0
H836 H 0.52029 0.27658 0.32661 0.0
H837 H 0.46441 0.2612 0.27775 0.0
H838 H 0.54482 0.33132 0.30424 0.0
H839 H 0.54158 0.31678 0.32974 0.0
H840 H 0.57303 0.32262 0.27362 0.0
H841 H 0.62092 0.27761 0.28499 0.0
H842 H 0.56086 0.28248 0.33101 0.0
C843 C 0.50965 0.30503 0.28187 0.0
C844 C 0.48867 0.29173 0.27406 0.0
C845 C 0.52139 0.29927 0.30053 0.0
C846 C 0.51211 0.28002 0.31118 0.0
C847 C 0.49195 0.26575 0.30276 0.0
C848 C 0.48027 0.27179 0.28415 0.0
C849 C 0.54301 0.31422 0.31019 0.0
C850 C 0.56442 0.30346 0.30286 0.0
C851 C 0.57801 0.30986 0.28329 0.0
C852 C 0.5986 0.30089 0.27693 0.0
C853 C 0.60503 0.28459 0.28982 0.0
C854 C 0.59167 0.27802 0.30955 0.0
C855 C 0.57125 0.28741 0.31581 0.0
C856 C 0.2309 0.22014 0.13414 0.0
C857 C 0.2246 0.19714 0.12526 0.0
C858 C 0.24571 0.23511 0.12127 0.0
C859 C 0.25446 0.22778 0.09881 0.0
H860 H 0.22428 0.2267 0.15121 0.0
H861 H 0.2499 0.25272 0.12871 0.0
S862 S 0.24347 0.16943 0.06747 0.0
N863 N 0.22867 0.16769 0.09267 0.0
N864 N 0.25609 0.19613 0.06821 0.0
C865 C 0.24847 0.20487 0.08969 0.0
C866 C 0.2337 0.18946 0.10301 0.0
C867 C 0.79416 0.17727 0.11961 0.0
C868 C 0.81625 0.17318 0.11052 0.0
C869 C 0.77973 0.18789 0.10717 0.0
C870 C 0.78674 0.19481 0.08508 0.0
H871 H 0.78793 0.17239 0.1366 0.0
H872 H 0.76292 0.19071 0.11493 0.0
S873 S 0.84284 0.18836 0.05334 0.0
N874 N 0.84434 0.17696 0.07781 0.0
N875 N 0.81723 0.19708 0.05463 0.0
C876 C 0.80863 0.19068 0.07561 0.0
C877 C 0.82338 0.17987 0.08828 0.0
C878 C 0.84677 0.80915 0.11009 0.0
C879 C 0.84466 0.81048 0.13473 0.0
C880 C 0.82982 0.79548 0.0957 0.0
C881 C 0.80982 0.7831 0.10542 0.0
H882 H 0.86159 0.8188 0.1019 0.0
H883 H 0.83228 0.79484 0.07679 0.0
S884 S 0.79537 0.78274 0.1693 0.0
N885 N 0.82106 0.79891 0.16837 0.0
N886 N 0.78846 0.77443 0.14161 0.0
C887 C 0.80751 0.78457 0.13018 0.0
C888 C 0.8251 0.79798 0.14474 0.0
C889 C 0.20001 0.79834 0.07855 0.0
C890 C 0.2127 0.81454 0.09486 0.0
C891 C 0.20982 0.77983 0.06724 0.0
C892 C 0.23287 0.77713 0.07147 0.0
H893 H 0.18203 0.79941 0.07531 0.0
H894 H 0.19898 0.76719 0.05568 0.0
S895 S 0.27437 0.81718 0.11009 0.0
N896 N 0.24982 0.82793 0.11345 0.0
N897 N 0.26889 0.79399 0.09114 0.0
C898 C 0.24611 0.79405 0.08682 0.0
C899 C 0.23588 0.81255 0.09876 0.0
C900 C 0.23728 0.80661 0.94003 0.0
C901 C 0.25266 0.82715 0.94479 0.0
C902 C 0.24287 0.78609 0.94555 0.0
C903 C 0.26417 0.78522 0.95578 0.0
H904 H 0.22049 0.80639 0.93251 0.0
H905 H 0.23031 0.77079 0.94197 0.0
S906 S 0.31096 0.83382 0.97104 0.0
N907 N 0.29053 0.84508 0.95978 0.0
N908 N 0.30092 0.80647 0.97007 0.0
C909 C 0.27999 0.80545 0.96006 0.0
C910 C 0.27425 0.82641 0.95462 0.0
C911 C 0.23106 0.19446 0.9289 0.0
C912 C 0.20778 0.19808 0.92796 0.0
C913 C 0.24665 0.20833 0.94459 0.0
C914 C 0.23948 0.22613 0.96018 0.0
H915 H 0.23765 0.18147 0.91671 0.0
H916 H 0.26464 0.20551 0.94409 0.0
S917 S 0.18004 0.2417 0.96617 0.0
N918 N 0.17801 0.21997 0.94523 0.0
N919 N 0.20735 0.24603 0.97449 0.0
C920 C 0.21602 0.22925 0.96025 0.0
C921 C 0.20017 0.21524 0.94421 0.0
C922 C 0.84313 0.19282 0.94797 0.0
C923 C 0.8631 0.2095 0.94933 0.0
C924 C 0.82108 0.19833 0.95508 0.0
C925 C 0.81818 0.22073 0.96375 0.0
H926 H 0.84456 0.17527 0.94201 0.0
H927 H 0.80619 0.18493 0.95383 0.0
S928 S 0.86491 0.27061 0.97128 0.0
N929 N 0.8785 0.24938 0.96012 0.0
N930 N 0.83717 0.25957 0.9738 0.0
C931 C 0.83798 0.23755 0.96521 0.0
C932 C 0.86041 0.23196 0.95801 0.0
C933 C 0.8196 0.82478 0.94893 0.0
C934 C 0.83657 0.81377 0.93579 0.0
C935 C 0.80384 0.81344 0.96442 0.0
C936 C 0.80433 0.79063 0.96713 0.0
H937 H 0.81815 0.84215 0.9469 0.0
H938 H 0.79054 0.82227 0.97355 0.0
S939 S 0.84591 0.75436 0.9382 0.0
N940 N 0.85351 0.77888 0.92776 0.0
N941 N 0.82362 0.75772 0.95654 0.0
C942 C 0.82158 0.77964 0.95479 0.0
C943 C 0.83779 0.79118 0.93923 0.0
C944 C 0.08133 0.20608 0.20449 0.0
C945 C 0.10123 0.19838 0.21179 0.0
C946 C 0.06756 0.21844 0.22047 0.0
C947 C 0.07329 0.22362 0.24426 0.0
H948 H 0.07679 0.20332 0.18613 0.0
H949 H 0.05306 0.22492 0.21396 0.0
S950 S 0.12146 0.20517 0.27321 0.0
N951 N 0.12433 0.19508 0.24522 0.0
N952 N 0.09856 0.21846 0.27495 0.0
C953 C 0.0922 0.21496 0.25209 0.0
C954 C 0.10613 0.20228 0.23595 0.0
C955 C 0.83969 0.07359 0.20925 0.0
C956 C 0.8501 0.09627 0.21566 0.0
C957 C 0.82485 0.06161 0.22507 0.0
C958 C 0.81973 0.07204 0.24767 0.0
H959 H 0.84311 0.06495 0.19196 0.0
H960 H 0.81717 0.04422 0.21953 0.0
S961 S 0.84286 0.13059 0.27358 0.0
N962 N 0.85432 0.12836 0.24665 0.0
N963 N 0.82676 0.1058 0.27607 0.0
C964 C 0.83013 0.09453 0.25436 0.0
C965 C 0.84521 0.10666 0.23843 0.0
C966 C 0.95115 0.78432 0.20485 0.0
C967 C 0.94338 0.80244 0.21946 0.0
C968 C 0.96406 0.76964 0.21383 0.0
C969 C 0.97005 0.77274 0.23769 0.0
H970 H 0.94662 0.78102 0.18648 0.0
H971 H 0.9688 0.75538 0.20208 0.0
S972 S 0.95674 0.81979 0.2824 0.0
N973 N 0.94408 0.82381 0.25843 0.0
N974 N 0.96926 0.79698 0.27509 0.0
C975 C 0.9633 0.79152 0.25219 0.0
C976 C 0.94975 0.80616 0.24314 0.0
C977 C 0.2173 0.93541 0.19162 0.0
C978 C 0.22958 0.92031 0.17732 0.0
C979 C 0.22869 0.95154 0.20878 0.0
C980 C 0.25289 0.95339 0.21194 0.0
H981 H 0.19845 0.93326 0.19118 0.0
H982 H 0.21801 0.96112 0.22092 0.0
S983 S 0.29344 0.92127 0.1745 0.0
N984 N 0.26731 0.91013 0.16471 0.0
N985 N 0.28924 0.9417 0.19572 0.0
C986 C 0.26567 0.94017 0.19562 0.0
C987 C 0.25389 0.92327 0.17864 0.0
C988 C 0.125 0.85749 0.78603 0.0
C989 C 0.12875 0.86024 0.8104 0.0
C990 C 0.1082 0.84013 0.77562 0.0
C991 C 0.09435 0.82492 0.78917 0.0
H992 H 0.1356 0.86836 0.77471 0.0
H993 H 0.1064 0.83827 0.75672 0.0
S994 S 0.09628 0.82532 0.85384 0.0
N995 N 0.11618 0.84681 0.84797 0.0
N996 N 0.08504 0.81406 0.82831 0.0
C997 C 0.09727 0.82796 0.81364 0.0
C998 C 0.11435 0.84563 0.82427 0.0
C999 C 0.21975 0.08148 0.82269 0.0
C1000 C 0.22437 0.10534 0.82437 0.0
C1001 C 0.23555 0.06802 0.81122 0.0
C1002 C 0.25663 0.07791 0.80113 0.0
H1003 H 0.20374 0.07312 0.83019 0.0
H1004 H 0.2312 0.04973 0.81016 0.0
S1005 S 0.27802 0.13963 0.80267 0.0
N1006 N 0.25209 0.13826 0.81591 0.0
N1007 N 0.28199 0.11308 0.79507 0.0
C1008 C 0.26163 0.10175 0.80308 0.0
C1009 C 0.24547 0.11542 0.8145 0.0
C1010 C 0.97284 0.26337 0.88081 0.0
C1011 C 0.9608 0.24104 0.87704 0.0
C1012 C 0.9798 0.27583 0.86204 0.0
C1013 C 0.97502 0.26652 0.83868 0.0
H1014 H 0.97715 0.27134 0.89843 0.0
H1015 H 0.98917 0.29289 0.86584 0.0
S1016 S 0.94372 0.20902 0.81902 0.0
N1017 N 0.94397 0.21029 0.84795 0.0
N1018 N 0.95736 0.23383 0.81265 0.0
C1019 C 0.96263 0.24443 0.83456 0.0
C1020 C 0.9555 0.23165 0.85372 0.0
C1021 C 0.80442 0.91494 0.80209 0.0
C1022 C 0.82606 0.92485 0.8117 0.0
C1023 C 0.79056 0.9277 0.79154 0.0
C1024 C 0.79768 0.95098 0.79004 0.0
H1025 H 0.7979 0.89715 0.80292 0.0
H1026 H 0.77389 0.91926 0.78481 0.0
S1027 S 0.85311 0.98515 0.81161 0.0
N1028 N 0.85414 0.95952 0.81854 0.0
N1029 N 0.82809 0.98336 0.79848 0.0
C1030 C 0.81931 0.96115 0.79938 0.0
C1031 C 0.83351 0.94814 0.81017 0.0
C1032 C 0.21996 0.1088 0.22949 0.0
C1033 C 0.21732 0.09974 0.2057 0.0
C1034 C 0.23082 0.098 0.24515 0.0
C1035 C 0.23959 0.07764 0.23777 0.0
H1036 H 0.21356 0.12442 0.2362 0.0
H1037 H 0.23223 0.10564 0.2633 0.0
S1038 S 0.23749 0.04678 0.1774 0.0
N1039 N 0.22449 0.06897 0.17553 0.0
N1040 N 0.24513 0.04886 0.20507 0.0
C1041 C 0.237 0.06824 0.21412 0.0
C1042 C 0.22589 0.07925 0.19807 0.0
C1043 C 0.26464 0.91802 0.85562 0.0
C1044 C 0.24232 0.92135 0.86446 0.0
C1045 C 0.2756 0.92999 0.83772 0.0
C1046 C 0.26486 0.9461 0.82835 0.0
H1047 H 0.2738 0.90615 0.8627 0.0
H1048 H 0.2929 0.92703 0.83158 0.0
S1049 S 0.20665 0.96145 0.84563 0.0
N1050 N 0.20983 0.94196 0.86256 0.0
N1051 N 0.23068 0.96474 0.82903 0.0
C1052 C 0.24253 0.94959 0.83694 0.0
C1053 C 0.23116 0.9371 0.85493 0.0
C1054 C 0.10482 0.21955 0.82218 0.0
C1055 C 0.11109 0.22816 0.84543 0.0
C1056 C 0.09482 0.23254 0.80789 0.0
C1057 C 0.09064 0.25462 0.8163 0.0
H1058 H 0.10802 0.2028 0.81475 0.0
H1059 H 0.09064 0.22536 0.79 0.0
S1060 S 0.10385 0.28523 0.87576 0.0
N1061 N 0.11195 0.26022 0.87624 0.0
N1062 N 0.09372 0.28462 0.84926 0.0
C1063 C 0.09642 0.26329 0.83961 0.0
C1064 C 0.1065 0.25008 0.85419 0.0
C1065 C 0.82194 0.1066 0.84353 0.0
C1066 C 0.8121 0.12575 0.85356 0.0
C1067 C 0.81029 0.0905 0.82639 0.0
C1068 C 0.78843 0.09301 0.81854 0.0
H1069 H 0.83886 0.10402 0.84885 0.0
H1070 H 0.81854 0.07611 0.81907 0.0
S1071 S 0.75421 0.13899 0.84015 0.0
N1072 N 0.77856 0.14559 0.85489 0.0
N1073 N 0.75671 0.11526 0.82293 0.0
C1074 C 0.77821 0.11181 0.82863 0.0
C1075 C 0.79002 0.12818 0.84606 0.0
C1076 C 0.92479 0.8381 0.79923 0.0
C1077 C 0.92178 0.83845 0.8238 0.0
C1078 C 0.93992 0.82471 0.78627 0.0
C1079 C 0.95283 0.81134 0.79738 0.0
H1080 H 0.9148 0.8476 0.78977 0.0
H1081 H 0.94115 0.82446 0.76733 0.0
S1082 S 0.9522 0.80696 0.86141 0.0
N1083 N 0.93407 0.82494 0.85881 0.0
N1084 N 0.9619 0.79963 0.83446 0.0
C1085 C 0.95059 0.81213 0.82199 0.0
C1086 C 0.93524 0.8257 0.83517 0.0
C1087 C 0.84776 0.9315 0.23144 0.0
C1088 C 0.83486 0.9167 0.21396 0.0
C1089 C 0.83675 0.94511 0.24889 0.0
C1090 C 0.81241 0.94428 0.24964 0.0
H1091 H 0.86649 0.93236 0.23191 0.0
H1092 H 0.84727 0.95577 0.26236 0.0
S1093 S 0.77067 0.90979 0.20734 0.0
N1094 N 0.79629 0.90313 0.198 0.0
N1095 N 0.77586 0.92859 0.23086 0.0
C1096 C 0.79938 0.93013 0.23198 0.0
C1097 C 0.81053 0.9164 0.21412 0.0
C1098 C 0.12588 0.79323 0.19797 0.0
C1099 C 0.13492 0.81319 0.21239 0.0
C1100 C 0.10996 0.77618 0.20697 0.0
C1101 C 0.10269 0.77838 0.23075 0.0
H1102 H 0.13142 0.79052 0.17965 0.0
H1103 H 0.10396 0.76081 0.19544 0.0
S1104 S 0.11955 0.82774 0.27559 0.0
N1105 N 0.13417 0.83457 0.25149 0.0
N1106 N 0.10438 0.80237 0.26825 0.0
C1107 C 0.11091 0.79846 0.24519 0.0
C1108 C 0.12697 0.81592 0.23604 0.0
C1109 C 0.9085 0.20466 0.21178 0.0
C1110 C 0.92049 0.19187 0.1944 0.0
C1111 C 0.92047 0.22128 0.22809 0.0
C1112 C 0.945 0.22617 0.22753 0.0
H1113 H 0.88967 0.20122 0.21347 0.0
H1114 H 0.91033 0.22978 0.24178 0.0
S1115 S 0.98456 0.19925 0.1838 0.0
N1116 N 0.95823 0.18609 0.17663 0.0
N1117 N 0.98078 0.21806 0.20676 0.0
C1118 C 0.95721 0.21415 0.20961 0.0
C1119 C 0.94497 0.19688 0.19318 0.0
C1120 C 0.22315 0.70872 0.61298 0.0
C1121 C 0.22313 0.68614 0.61722 0.0
C1122 C 0.24019 0.7195 0.59836 0.0
C1123 C 0.25773 0.70809 0.58709 0.0
H1124 H 0.21042 0.71853 0.62169 0.0
H1125 H 0.24 0.73713 0.59631 0.0
S1126 S 0.26478 0.64846 0.59071 0.0
N1127 N 0.24165 0.65236 0.60769 0.0
N1128 N 0.2736 0.67276 0.58016 0.0
C1129 C 0.2574 0.68526 0.59023 0.0
C1130 C 0.24015 0.67427 0.60531 0.0
C1131 C 0.85571 0.71796 0.59655 0.0
C1132 C 0.84104 0.70075 0.60682 0.0
C1133 C 0.84655 0.73295 0.58408 0.0
C1134 C 0.82238 0.73105 0.58097 0.0
H1135 H 0.87434 0.72054 0.59908 0.0
H1136 H 0.8585 0.7467 0.57769 0.0
S1137 S 0.77697 0.6864 0.60122 0.0
N1138 N 0.80148 0.68127 0.61137 0.0
N1139 N 0.78428 0.70868 0.58686 0.0
C1140 C 0.80768 0.71298 0.58996 0.0
C1141 C 0.81699 0.69803 0.60313 0.0
C1142 C 0.85689 0.28934 0.61889 0.0
C1143 C 0.84559 0.30721 0.62975 0.0
C1144 C 0.84525 0.27186 0.60306 0.0
C1145 C 0.82181 0.27147 0.59778 0.0
H1146 H 0.87478 0.28866 0.62284 0.0
H1147 H 0.85437 0.25813 0.59556 0.0
S1148 S 0.78449 0.31447 0.62034 0.0
N1149 N 0.80968 0.3237 0.6331 0.0
N1150 N 0.78797 0.29071 0.6036 0.0
C1151 C 0.81048 0.28942 0.60796 0.0
C1152 C 0.82232 0.30733 0.62386 0.0
C1153 C 0.2437 0.3204 0.60906 0.0
C1154 C 0.22764 0.32916 0.59659 0.0
C1155 C 0.26021 0.30812 0.59732 0.0
C1156 C 0.26112 0.30375 0.57261 0.0
H1157 H 0.24402 0.32364 0.62809 0.0
H1158 H 0.27276 0.30254 0.60774 0.0
S1159 S 0.22132 0.32098 0.53185 0.0
N1160 N 0.21279 0.33167 0.55825 0.0
N1161 N 0.24329 0.30775 0.53612 0.0
C1162 C 0.24462 0.31177 0.55993 0.0
C1163 C 0.22801 0.32465 0.57192 0.0
C1164 C 0.24606 0.31186 0.43599 0.0
C1165 C 0.25117 0.3156 0.41245 0.0
C1166 C 0.26101 0.30191 0.44857 0.0
C1167 C 0.28186 0.29557 0.43824 0.0
H1168 H 0.2303 0.31655 0.44476 0.0
H1169 H 0.25619 0.29919 0.46658 0.0
S1170 S 0.30411 0.30337 0.37756 0.0
N1171 N 0.27884 0.31279 0.37947 0.0
N1172 N 0.30737 0.29497 0.40332 0.0
C1173 C 0.28727 0.29944 0.41474 0.0
C1174 C 0.27185 0.30924 0.40182 0.0
C1175 C 0.21672 0.71103 0.43328 0.0
C1176 C 0.2156 0.6879 0.42445 0.0
C1177 C 0.23455 0.72219 0.44815 0.0
C1178 C 0.25189 0.71069 0.45496 0.0
H1179 H 0.20425 0.72088 0.428 0.0
H1180 H 0.23513 0.74017 0.45385 0.0
S1181 S 0.25626 0.6498 0.43819 0.0
N1182 N 0.23283 0.65358 0.42495 0.0
N1183 N 0.2664 0.67472 0.45261 0.0
C1184 C 0.25044 0.68737 0.44721 0.0
C1185 C 0.23229 0.67595 0.43204 0.0
C1186 C 0.8551 0.70679 0.44138 0.0
C1187 C 0.8738 0.71585 0.4273 0.0
C1188 C 0.8389 0.7204 0.4517 0.0
C1189 C 0.84065 0.7432 0.44766 0.0
H1190 H 0.85397 0.68966 0.44578 0.0
H1191 H 0.82565 0.71344 0.46382 0.0
S1192 S 0.88501 0.77395 0.41005 0.0
N1193 N 0.89222 0.74831 0.40848 0.0
N1194 N 0.86136 0.77362 0.42724 0.0
C1195 C 0.85827 0.75185 0.43224 0.0
C1196 C 0.87499 0.73822 0.42221 0.0
C1197 C 0.82663 0.30462 0.44125 0.0
C1198 C 0.84958 0.30235 0.43343 0.0
C1199 C 0.81406 0.28982 0.45601 0.0
C1200 C 0.82388 0.27212 0.46361 0.0
H1201 H 0.81798 0.31749 0.43536 0.0
H1202 H 0.79622 0.29184 0.46097 0.0
S1203 S 0.88377 0.2595 0.44936 0.0
N1204 N 0.88206 0.28167 0.43569 0.0
N1205 N 0.85823 0.25368 0.46286 0.0
C1206 C 0.84711 0.27024 0.45677 0.0
C1207 C 0.85998 0.28536 0.44183 0.0
C1208 C 0.10352 0.71967 0.72195 0.0
C1209 C 0.11397 0.72724 0.70111 0.0
C1210 C 0.09002 0.73305 0.73714 0.0
C1211 C 0.08665 0.75458 0.73217 0.0
H1212 H 0.10618 0.7035 0.72688 0.0
H1213 H 0.08298 0.72692 0.75336 0.0
S1214 S 0.10842 0.78172 0.67929 0.0
N1215 N 0.11853 0.75732 0.67575 0.0
N1216 N 0.09345 0.78232 0.70449 0.0
C1217 C 0.09622 0.76202 0.7111 0.0
C1218 C 0.10978 0.74839 0.69552 0.0
C1219 C 0.85033 0.58046 0.75426 0.0
C1220 C 0.84281 0.58838 0.73428 0.0
C1221 C 0.83464 0.56806 0.76887 0.0
C1222 C 0.81076 0.563 0.76408 0.0
H1223 H 0.8684 0.58452 0.75924 0.0
H1224 H 0.84114 0.56329 0.78461 0.0
S1225 S 0.78239 0.5771 0.71244 0.0
N1226 N 0.81001 0.58841 0.70938 0.0
N1227 N 0.78061 0.56488 0.73677 0.0
C1228 C 0.80314 0.56972 0.74351 0.0
C1229 C 0.81912 0.58242 0.72862 0.0
C1230 C 0.95608 0.31146 0.72766 0.0
C1231 C 0.93518 0.31966 0.73499 0.0
C1232 C 0.96973 0.30381 0.7436 0.0
C1233 C 0.9631 0.30411 0.76756 0.0
H1234 H 0.96211 0.3111 0.70947 0.0
H1235 H 0.98573 0.29777 0.73714 0.0
S1236 S 0.91031 0.32451 0.79598 0.0
N1237 N 0.90857 0.32763 0.76797 0.0
N1238 N 0.93446 0.31377 0.79793 0.0
C1239 C 0.94215 0.31207 0.7751 0.0
C1240 C 0.92815 0.31972 0.75884 0.0
C1241 C 0.24003 0.43957 0.68833 0.0
C1242 C 0.24481 0.41774 0.67982 0.0
C1243 C 0.25648 0.45531 0.70147 0.0
C1244 C 0.27825 0.44971 0.70629 0.0
H1245 H 0.22303 0.44405 0.68601 0.0
H1246 H 0.25171 0.47151 0.70885 0.0
S1247 S 0.30065 0.39629 0.6839 0.0
N1248 N 0.2737 0.39232 0.67457 0.0
N1249 N 0.30488 0.42207 0.69847 0.0
C1250 C 0.28381 0.42856 0.69623 0.0
C1251 C 0.26701 0.41252 0.6832 0.0
C1252 C 0.10153 0.3156 0.33127 0.0
C1253 C 0.11403 0.33159 0.31759 0.0
C1254 C 0.08449 0.29819 0.32133 0.0
C1255 C 0.07956 0.29603 0.29732 0.0
H1256 H 0.10522 0.31624 0.34971 0.0
H1257 H 0.07584 0.28578 0.33224 0.0
S1258 S 0.10603 0.33391 0.25405 0.0
N1259 N 0.11912 0.3446 0.27886 0.0
N1260 N 0.08741 0.31164 0.26035 0.0
C1261 C 0.09128 0.3122 0.28362 0.0
C1262 C 0.10842 0.33006 0.29372 0.0
C1263 C 0.22649 0.57762 0.32059 0.0
C1264 C 0.22885 0.60146 0.32296 0.0
C1265 C 0.24435 0.56614 0.31018 0.0
C1266 C 0.26531 0.57808 0.3019 0.0
H1267 H 0.21075 0.56772 0.32687 0.0
H1268 H 0.24174 0.54778 0.30864 0.0
S1269 S 0.28093 0.64074 0.30562 0.0
N1270 N 0.25415 0.63664 0.31686 0.0
N1271 N 0.28788 0.61518 0.29805 0.0
C1272 C 0.26796 0.60194 0.30438 0.0
C1273 C 0.2497 0.61359 0.3147 0.0
C1274 C 0.97462 0.73427 0.34335 0.0
C1275 C 0.96718 0.7114 0.34658 0.0
C1276 C 0.98003 0.7407 0.32087 0.0
C1277 C 0.97857 0.72445 0.30086 0.0
H1278 H 0.97608 0.7474 0.35828 0.0
H1279 H 0.98579 0.75847 0.31916 0.0
S1280 S 0.96 0.66246 0.2995 0.0
N1281 N 0.95845 0.6725 0.32765 0.0
N1282 N 0.96902 0.68467 0.28543 0.0
C1283 C 0.9712 0.70157 0.30374 0.0
C1284 C 0.96538 0.69502 0.32659 0.0
C1285 C 0.86151 0.44509 0.29369 0.0
C1286 C 0.84822 0.42907 0.30682 0.0
C1287 C 0.85084 0.45759 0.27938 0.0
C1288 C 0.82643 0.45468 0.27774 0.0
H1289 H 0.88037 0.44759 0.29395 0.0
H1290 H 0.86182 0.46904 0.26892 0.0
S1291 S 0.78356 0.41715 0.31083 0.0
N1292 N 0.80916 0.41245 0.31864 0.0
N1293 N 0.78923 0.43621 0.29221 0.0
C1294 C 0.81292 0.4395 0.29159 0.0
C1295 C 0.82376 0.42665 0.30598 0.0
C1296 C 0.25024 0.61341 0.72118 0.0
C1297 C 0.23285 0.60118 0.70625 0.0
C1298 C 0.26513 0.60235 0.73251 0.0
C1299 C 0.26319 0.57852 0.72965 0.0
H1300 H 0.2525 0.63177 0.72415 0.0
H1301 H 0.27834 0.61266 0.74363 0.0
S1302 S 0.22048 0.53841 0.69265 0.0
N1303 N 0.21467 0.56373 0.68904 0.0
N1304 N 0.24243 0.54297 0.71081 0.0
C1305 C 0.24606 0.56601 0.7146 0.0
C1306 C 0.23093 0.57731 0.70285 0.0
C1307 C 0.26273 0.41424 0.34118 0.0
C1308 C 0.23931 0.41751 0.3449 0.0
C1309 C 0.27888 0.42949 0.32995 0.0
C1310 C 0.27238 0.44881 0.32224 0.0
H1311 H 0.26854 0.3993 0.34613 0.0
H1312 H 0.29652 0.42589 0.3268 0.0
S1313 S 0.214 0.46649 0.32936 0.0
N1314 N 0.2109 0.44253 0.3412 0.0
N1315 N 0.2415 0.47123 0.32019 0.0
C1316 C 0.24943 0.45298 0.32681 0.0
C1317 C 0.23283 0.43732 0.33809 0.0
C1318 C 0.11012 0.72981 0.327 0.0
C1319 C 0.11526 0.70755 0.32555 0.0
C1320 C 0.09918 0.73698 0.30869 0.0
C1321 C 0.09265 0.72215 0.28828 0.0
H1322 H 0.11515 0.7421 0.34212 0.0
H1323 H 0.09614 0.75444 0.31034 0.0
S1324 S 0.10076 0.66183 0.27604 0.0
N1325 N 0.11193 0.67039 0.30224 0.0
N1326 N 0.09124 0.68402 0.26787 0.0
C1327 C 0.09683 0.69964 0.28686 0.0
C1328 C 0.10819 0.69232 0.30545 0.0
C1329 C 0.83374 0.60662 0.32611 0.0
C1330 C 0.81693 0.61266 0.3433 0.0
C1331 C 0.82742 0.59197 0.30564 0.0
C1332 C 0.804 0.58283 0.3014 0.0
H1333 H 0.85202 0.61345 0.32831 0.0
H1334 H 0.84093 0.5883 0.29269 0.0
S1335 S 0.75325 0.59203 0.34108 0.0
N1336 N 0.77577 0.60744 0.35496 0.0
N1337 N 0.76399 0.57989 0.31636 0.0
C1338 C 0.78702 0.58824 0.31856 0.0
C1339 C 0.79345 0.6031 0.33954 0.0
C1340 C 0.90664 0.30205 0.30753 0.0
C1341 C 0.9161 0.32505 0.31312 0.0
C1342 C 0.91961 0.28671 0.29462 0.0
C1343 C 0.94274 0.29363 0.2872 0.0
H1344 H 0.8891 0.29578 0.31343 0.0
H1345 H 0.91171 0.26909 0.29106 0.0
S1346 S 0.97566 0.3519 0.29696 0.0
N1347 N 0.94987 0.35414 0.30969 0.0
N1348 N 0.97453 0.32498 0.28592 0.0
C1349 C 0.9524 0.31658 0.29238 0.0
C1350 C 0.93898 0.33239 0.30515 0.0
C1351 C 0.79652 0.41459 0.7298 0.0
C1352 C 0.82086 0.41522 0.72781 0.0
C1353 C 0.78623 0.42708 0.74863 0.0
C1354 C 0.79985 0.44098 0.76604 0.0
H1355 H 0.78515 0.40381 0.71712 0.0
H1356 H 0.76739 0.42554 0.74983 0.0
S1357 S 0.86431 0.44981 0.76854 0.0
N1358 N 0.85839 0.43179 0.74453 0.0
N1359 N 0.83889 0.45538 0.77987 0.0
C1360 C 0.82421 0.4425 0.76391 0.0
C1361 C 0.83475 0.42958 0.74483 0.0
C1362 C 0.11009 0.30646 0.70542 0.0
C1363 C 0.13439 0.31201 0.70791 0.0
C1364 C 0.09563 0.29776 0.72346 0.0
C1365 C 0.10492 0.29419 0.74465 0.0
H1366 H 0.10202 0.30952 0.68973 0.0
H1367 H 0.07697 0.29431 0.72106 0.0
S1368 S 0.16746 0.30494 0.75974 0.0
N1369 N 0.16717 0.31206 0.73294 0.0
N1370 N 0.13996 0.29643 0.76693 0.0
C1371 C 0.12924 0.29888 0.74705 0.0
C1372 C 0.14397 0.3076 0.72868 0.0
C1373 C 0.93689 0.7035 0.7281 0.0
C1374 C 0.92411 0.70808 0.70947 0.0
C1375 C 0.95107 0.72086 0.74176 0.0
C1376 C 0.95308 0.74358 0.73742 0.0
H1377 H 0.93565 0.68638 0.73256 0.0
H1378 H 0.95993 0.71652 0.75634 0.0
S1379 S 0.92476 0.76474 0.68991 0.0
N1380 N 0.91543 0.73715 0.68674 0.0
N1381 N 0.94221 0.76972 0.71252 0.0
C1382 C 0.941 0.74842 0.71851 0.0
C1383 C 0.92656 0.73071 0.70447 0.0
C1384 C 0.7397 0.17185 0.6089 0.0
C1385 C 0.72117 0.18235 0.61961 0.0
C1386 C 0.75723 0.18362 0.5954 0.0
C1387 C 0.757 0.20638 0.59231 0.0
H1388 H 0.74093 0.15449 0.61123 0.0
H1389 H 0.77151 0.17511 0.58807 0.0
S1390 S 0.71195 0.24145 0.61509 0.0
N1391 N 0.70331 0.21679 0.62496 0.0
N1392 N 0.73631 0.23868 0.59978 0.0
C1393 C 0.73832 0.21689 0.60224 0.0
C1394 C 0.7204 0.20494 0.61581 0.0
C1395 C 0.30318 0.21142 0.593 0.0
C1396 C 0.32672 0.21152 0.59769 0.0
C1397 C 0.29651 0.22748 0.58002 0.0
C1398 C 0.31307 0.24459 0.57161 0.0
H1399 H 0.28976 0.19889 0.59951 0.0
H1400 H 0.27816 0.22667 0.57685 0.0
S1401 S 0.37698 0.25273 0.58016 0.0
N1402 N 0.36667 0.23002 0.59297 0.0
N1403 N 0.35414 0.26085 0.56962 0.0
C1404 C 0.33674 0.24473 0.57609 0.0
C1405 C 0.34354 0.22807 0.58889 0.0
C1406 C 0.35938 0.78696 0.61195 0.0
C1407 C 0.34953 0.80607 0.62193 0.0
C1408 C 0.34694 0.76998 0.59618 0.0
C1409 C 0.32411 0.77138 0.59014 0.0
H1410 H 0.37672 0.78493 0.61658 0.0
H1411 H 0.35488 0.75525 0.58936 0.0
S1412 S 0.29052 0.81799 0.61045 0.0
N1413 N 0.31567 0.82559 0.62371 0.0
N1414 N 0.29238 0.79344 0.59444 0.0
C1415 C 0.31424 0.79053 0.59947 0.0
C1416 C 0.32693 0.80795 0.61525 0.0
C1417 C 0.7505 0.80374 0.62245 0.0
C1418 C 0.73347 0.81177 0.61057 0.0
C1419 C 0.76734 0.79228 0.61009 0.0
C1420 C 0.76764 0.78811 0.58536 0.0
H1421 H 0.75126 0.80687 0.64145 0.0
H1422 H 0.7806 0.78718 0.62001 0.0
S1423 S 0.72538 0.80356 0.54604 0.0
N1424 N 0.71709 0.81366 0.57274 0.0
N1425 N 0.74835 0.79144 0.54952 0.0
C1426 C 0.75023 0.79539 0.57328 0.0
C1427 C 0.73324 0.80735 0.58588 0.0
C1428 C 0.77513 0.83787 0.45268 0.0
C1429 C 0.75685 0.82781 0.4377 0.0
C1430 C 0.78949 0.82473 0.46193 0.0
C1431 C 0.78609 0.80093 0.45678 0.0
H1432 H 0.77851 0.85612 0.45724 0.0
H1433 H 0.80353 0.83336 0.47308 0.0
S1434 S 0.74002 0.76606 0.41936 0.0
N1435 N 0.73587 0.79246 0.41845 0.0
N1436 N 0.76258 0.76775 0.4363 0.0
C1437 C 0.76783 0.7906 0.4419 0.0
C1438 C 0.75329 0.80402 0.43229 0.0
C1439 C 0.7323 0.18085 0.43997 0.0
C1440 C 0.71548 0.19323 0.43343 0.0
C1441 C 0.75045 0.19119 0.45488 0.0
C1442 C 0.7525 0.21429 0.46378 0.0
H1443 H 0.7321 0.16327 0.43275 0.0
H1444 H 0.76365 0.18132 0.45846 0.0
S1445 S 0.7114 0.25352 0.45513 0.0
N1446 N 0.70082 0.22941 0.43939 0.0
N1447 N 0.73502 0.24865 0.46723 0.0
C1448 C 0.73509 0.2265 0.45866 0.0
C1449 C 0.71656 0.21603 0.44356 0.0
C1450 C 0.3506 0.20532 0.44085 0.0
C1451 C 0.37137 0.21253 0.42849 0.0
C1452 C 0.33526 0.22063 0.44913 0.0
C1453 C 0.34001 0.24337 0.4447 0.0
H1454 H 0.34661 0.18799 0.44485 0.0
H1455 H 0.31989 0.21483 0.45942 0.0
S1456 S 0.3909 0.27015 0.41157 0.0
N1457 N 0.39521 0.24362 0.4113 0.0
N1458 N 0.36608 0.27212 0.42637 0.0
C1459 C 0.3602 0.25052 0.43165 0.0
C1460 C 0.37598 0.23515 0.42365 0.0
C1461 C 0.32249 0.80511 0.43552 0.0
C1462 C 0.34599 0.80426 0.42879 0.0
C1463 C 0.30999 0.78937 0.44933 0.0
C1464 C 0.32045 0.77213 0.45703 0.0
H1465 H 0.31344 0.81768 0.4296 0.0
H1466 H 0.2918 0.79039 0.45359 0.0
S1467 S 0.3817 0.76276 0.44499 0.0
N1468 N 0.37947 0.78513 0.43184 0.0
N1469 N 0.35582 0.75538 0.45722 0.0
C1470 C 0.34411 0.77151 0.45108 0.0
C1471 C 0.35689 0.78758 0.43711 0.0
C1472 C 0.60291 0.23198 0.69895 0.0
C1473 C 0.60515 0.20928 0.70083 0.0
C1474 C 0.58824 0.2437 0.71436 0.0
C1475 C 0.57493 0.23315 0.73211 0.0
H1476 H 0.61306 0.24109 0.68586 0.0
H1477 H 0.5876 0.26132 0.71264 0.0
S1478 S 0.57339 0.1738 0.74407 0.0
N1479 N 0.59196 0.17648 0.72153 0.0
N1480 N 0.56432 0.1986 0.75042 0.0
C1481 C 0.57631 0.21029 0.73378 0.0
C1482 C 0.59144 0.19835 0.71818 0.0
C1483 C 0.35485 0.083 0.72327 0.0
C1484 C 0.34467 0.08936 0.70382 0.0
C1485 C 0.34133 0.07144 0.74011 0.0
C1486 C 0.31703 0.06562 0.73819 0.0
H1487 H 0.37335 0.08779 0.72616 0.0
H1488 H 0.34989 0.0681 0.75539 0.0
S1489 S 0.28212 0.0752 0.68893 0.0
N1490 N 0.30896 0.08682 0.68243 0.0
N1491 N 0.28362 0.06478 0.71399 0.0
C1492 C 0.30677 0.07057 0.71811 0.0
C1493 C 0.32054 0.08246 0.70095 0.0
C1494 C 0.42509 0.80825 0.75149 0.0
C1495 C 0.43613 0.81374 0.73011 0.0
C1496 C 0.43727 0.80099 0.76891 0.0
C1497 C 0.46101 0.79897 0.76571 0.0
H1498 H 0.40699 0.81012 0.75513 0.0
H1499 H 0.42823 0.79776 0.78539 0.0
S1500 S 0.49759 0.80882 0.71216 0.0
N1501 N 0.47197 0.81494 0.70616 0.0
N1502 N 0.49469 0.80119 0.73891 0.0
C1503 C 0.47206 0.80345 0.7441 0.0
C1504 C 0.45967 0.81083 0.72631 0.0
C1505 C 0.73788 0.92536 0.69217 0.0
C1506 C 0.71337 0.92203 0.69359 0.0
C1507 C 0.75118 0.94034 0.70905 0.0
C1508 C 0.74048 0.9523 0.72821 0.0
H1509 H 0.74688 0.91574 0.67836 0.0
H1510 H 0.77 0.94194 0.70755 0.0
S1511 S 0.67671 0.94965 0.73983 0.0
N1512 N 0.67889 0.9326 0.71515 0.0
N1513 N 0.70373 0.95985 0.74736 0.0
C1514 C 0.71594 0.94971 0.72933 0.0
C1515 C 0.70243 0.9348 0.7119 0.0
C1516 C 0.62175 0.80757 0.30534 0.0
C1517 C 0.62084 0.831 0.30743 0.0
C1518 C 0.60454 0.79168 0.29372 0.0
C1519 C 0.58554 0.79846 0.28375 0.0
H1520 H 0.636 0.80132 0.31261 0.0
H1521 H 0.60607 0.77385 0.29261 0.0
S1522 S 0.57444 0.85753 0.28446 0.0
N1523 N 0.59901 0.86015 0.29864 0.0
N1524 N 0.56653 0.83004 0.27679 0.0
C1525 C 0.5841 0.82173 0.28588 0.0
C1526 C 0.60181 0.83805 0.29764 0.0
C1527 C 0.71827 0.07774 0.32807 0.0
C1528 C 0.72331 0.10159 0.33239 0.0
C1529 C 0.73428 0.06492 0.31582 0.0
C1530 C 0.75598 0.07549 0.30762 0.0
H1531 H 0.70173 0.06893 0.33396 0.0
H1532 H 0.72956 0.04666 0.31253 0.0
S1533 S 0.77877 0.1372 0.31712 0.0
N1534 N 0.75219 0.13505 0.32892 0.0
N1535 N 0.78245 0.11107 0.3068 0.0
C1536 C 0.76147 0.09926 0.31257 0.0
C1537 C 0.7451 0.11228 0.32468 0.0
C1538 C 0.4491 0.22546 0.33547 0.0
C1539 C 0.46377 0.21297 0.3454 0.0
C1540 C 0.45817 0.24178 0.32073 0.0
C1541 C 0.48218 0.24585 0.31504 0.0
H1542 H 0.43069 0.2236 0.34023 0.0
H1543 H 0.44644 0.25206 0.31481 0.0
S1544 S 0.52709 0.21437 0.33308 0.0
N1545 N 0.50287 0.20385 0.34664 0.0
N1546 N 0.51981 0.23351 0.31778 0.0
C1547 C 0.49668 0.23208 0.32339 0.0
C1548 C 0.48751 0.21591 0.33888 0.0
C1549 C 0.3037 0.91501 0.2954 0.0
C1550 C 0.32399 0.92513 0.30751 0.0
C1551 C 0.29082 0.9278 0.28371 0.0
C1552 C 0.29758 0.95133 0.28361 0.0
H1553 H 0.29765 0.89697 0.29482 0.0
H1554 H 0.27534 0.91915 0.27469 0.0
S1555 S 0.34908 0.98634 0.3127 0.0
N1556 N 0.35006 0.96042 0.31882 0.0
N1557 N 0.32578 0.98434 0.2967 0.0
C1558 C 0.31762 0.9618 0.29583 0.0
C1559 C 0.33085 0.94875 0.30774 0.0
C1560 C 0.71765 0.10588 0.73817 0.0
C1561 C 0.71563 0.09586 0.71464 0.0
C1562 C 0.72885 0.09635 0.75464 0.0
C1563 C 0.73871 0.07642 0.74834 0.0
H1564 H 0.71048 0.12128 0.74407 0.0
H1565 H 0.72973 0.10472 0.77255 0.0
S1566 S 0.73832 0.04332 0.68909 0.0
N1567 N 0.72432 0.06455 0.68592 0.0
N1568 N 0.74571 0.04688 0.71693 0.0
C1569 C 0.73665 0.066 0.72497 0.0
C1570 C 0.7251 0.07568 0.70812 0.0
C1571 C 0.74791 0.93154 0.35859 0.0
C1572 C 0.73102 0.91317 0.35015 0.0
C1573 C 0.76062 0.94567 0.34337 0.0
C1574 C 0.75705 0.94204 0.31899 0.0
H1575 H 0.75168 0.93483 0.37716 0.0
H1576 H 0.77401 0.95901 0.35074 0.0
S1577 S 0.71457 0.89651 0.28786 0.0
N1578 N 0.71152 0.89201 0.31572 0.0
N1579 N 0.73458 0.91924 0.28719 0.0
C1580 C 0.73974 0.9241 0.31034 0.0
C1581 C 0.7269 0.90955 0.32588 0.0
C1582 C 0.61725 0.22846 0.32752 0.0
C1583 C 0.61985 0.23424 0.35197 0.0
C1584 C 0.60761 0.24238 0.31401 0.0
C1585 C 0.60005 0.26257 0.32441 0.0
H1586 H 0.62315 0.2133 0.31859 0.0
H1587 H 0.60629 0.23742 0.29522 0.0
S1588 S 0.60243 0.28532 0.38771 0.0
N1589 N 0.61333 0.26144 0.38606 0.0
N1590 N 0.59567 0.28762 0.36059 0.0
C1591 C 0.60203 0.26831 0.34887 0.0
C1592 C 0.61181 0.25416 0.36265 0.0
C1593 C 0.29919 0.10397 0.34595 0.0
C1594 C 0.31886 0.11893 0.33933 0.0
C1595 C 0.28647 0.08842 0.32919 0.0
C1596 C 0.2928 0.08739 0.30516 0.0
H1597 H 0.29352 0.10422 0.36424 0.0
H1598 H 0.27123 0.07747 0.33502 0.0
S1599 S 0.34298 0.12229 0.27847 0.0
N1600 N 0.34426 0.13133 0.3069 0.0
N1601 N 0.32013 0.10209 0.27548 0.0
C1602 C 0.31247 0.10203 0.29824 0.0
C1603 C 0.32557 0.11778 0.31531 0.0
C1604 C 0.42802 0.82089 0.3221 0.0
C1605 C 0.41713 0.83698 0.31272 0.0
C1606 C 0.44253 0.80772 0.30822 0.0
C1607 C 0.44697 0.81002 0.28426 0.0
H1608 H 0.42476 0.81778 0.34025 0.0
H1609 H 0.44938 0.79482 0.31614 0.0
S1610 S 0.42525 0.85149 0.25153 0.0
N1611 N 0.41349 0.85575 0.27822 0.0
N1612 N 0.44108 0.83108 0.25217 0.0
C1613 C 0.43727 0.82684 0.27485 0.0
C1614 C 0.42237 0.84032 0.28905 0.0
C1615 C 0.30665 0.91701 0.72002 0.0
C1616 C 0.33088 0.91712 0.71715 0.0
C1617 C 0.29737 0.9312 0.73811 0.0
C1618 C 0.31193 0.9463 0.75384 0.0
H1619 H 0.29462 0.90543 0.70861 0.0
H1620 H 0.2786 0.93012 0.74004 0.0
S1621 S 0.3765 0.95414 0.75356 0.0
N1622 N 0.36929 0.93432 0.73126 0.0
N1623 N 0.3517 0.96106 0.76523 0.0
C1624 C 0.33617 0.94717 0.75083 0.0
C1625 C 0.34568 0.93255 0.73251 0.0
C1626 C 0.61165 0.85674 0.74468 0.0
C1627 C 0.61797 0.84468 0.72326 0.0
C1628 C 0.59953 0.84557 0.76251 0.0
C1629 C 0.59339 0.82186 0.75978 0.0
H1630 H 0.61599 0.87505 0.74777 0.0
H1631 H 0.59512 0.85561 0.77871 0.0
S1632 S 0.60573 0.78219 0.70736 0.0
N1633 N 0.6171 0.80751 0.70037 0.0
N1634 N 0.59434 0.78652 0.7342 0.0
C1635 C 0.59963 0.80947 0.7386 0.0
C1636 C 0.61184 0.82088 0.72024 0.0
C1637 C 0.43038 0.20938 0.69074 0.0
C1638 C 0.40602 0.20602 0.69418 0.0
C1639 C 0.44489 0.22445 0.70654 0.0
C1640 C 0.43561 0.23642 0.72663 0.0
H1641 H 0.4383 0.20023 0.67576 0.0
H1642 H 0.46355 0.22653 0.70314 0.0
S1643 S 0.37287 0.23216 0.74442 0.0
N1644 N 0.37322 0.21545 0.71924 0.0
N1645 N 0.40037 0.24279 0.74958 0.0
C1646 C 0.4112 0.23307 0.73026 0.0
C1647 C 0.39645 0.21812 0.7139 0.0
C1648 C 0.70568 0.70535 0.10971 0.0
C1649 C 0.71435 0.68717 0.1177 0.0
C1650 C 0.71995 0.72116 0.09737 0.0
C1651 C 0.74357 0.7195 0.09238 0.0
H1652 H 0.68779 0.70794 0.11363 0.0
H1653 H 0.71264 0.73539 0.09269 0.0
S1654 S 0.77447 0.67376 0.10667 0.0
N1655 N 0.74787 0.66747 0.11786 0.0
N1656 N 0.77459 0.69716 0.09443 0.0
C1657 C 0.75227 0.70084 0.09915 0.0
C1658 C 0.73773 0.68467 0.1118 0.0
C1659 C 0.28543 0.69942 0.11336 0.0
C1660 C 0.30737 0.69412 0.10512 0.0
C1661 C 0.27157 0.70927 0.0995 0.0
C1662 C 0.27902 0.71419 0.07679 0.0
H1663 H 0.27886 0.69605 0.13076 0.0
H1664 H 0.25484 0.71304 0.10665 0.0
S1665 S 0.33507 0.70409 0.04685 0.0
N1666 N 0.33587 0.69467 0.07255 0.0
N1667 N 0.30985 0.71339 0.04671 0.0
C1668 C 0.3008 0.70888 0.06819 0.0
C1669 C 0.31496 0.69883 0.0823 0.0
C1670 C 0.35579 0.2974 0.11932 0.0
C1671 C 0.35532 0.32092 0.12403 0.0
C1672 C 0.3386 0.28297 0.10582 0.0
C1673 C 0.32034 0.2915 0.09639 0.0
H1674 H 0.36923 0.28994 0.12653 0.0
H1675 H 0.33941 0.26495 0.103 0.0
S1676 S 0.31087 0.35162 0.10344 0.0
N1677 N 0.33496 0.352 0.11767 0.0
N1678 N 0.30263 0.32485 0.09288 0.0
C1679 C 0.31986 0.31497 0.10059 0.0
C1680 C 0.33734 0.32967 0.11423 0.0
C1681 C 0.74305 0.28984 0.11757 0.0
C1682 C 0.72016 0.2936 0.11491 0.0
C1683 C 0.75207 0.27212 0.10368 0.0
C1684 C 0.73831 0.25702 0.08707 0.0
H1685 H 0.75414 0.30079 0.13038 0.0
H1686 H 0.76999 0.27023 0.1061 0.0
S1687 S 0.67653 0.25905 0.07465 0.0
N1688 N 0.68376 0.28103 0.09474 0.0
N1689 N 0.70003 0.24675 0.06966 0.0
C1690 C 0.71523 0.26063 0.08441 0.0
C1691 C 0.70631 0.27912 0.09811 0.0
C1692 C 0.74331 0.28839 0.93366 0.0
C1693 C 0.73608 0.30577 0.94989 0.0
C1694 C 0.75298 0.27068 0.9412 0.0
C1695 C 0.75541 0.26947 0.96525 0.0
H1696 H 0.7414 0.28839 0.91496 0.0
H1697 H 0.75808 0.25754 0.92813 0.0
S1698 S 0.73979 0.31075 0.01491 0.0
N1699 N 0.73263 0.32079 0.99122 0.0
N1700 N 0.75052 0.28732 0.00526 0.0
C1701 C 0.74855 0.28679 0.98166 0.0
C1702 C 0.73899 0.305 0.97401 0.0
C1703 C 0.72554 0.7014 0.93264 0.0
C1704 C 0.70263 0.70564 0.93056 0.0
C1705 C 0.74064 0.71485 0.94908 0.0
C1706 C 0.73329 0.73279 0.96434 0.0
H1707 H 0.73222 0.68822 0.92081 0.0
H1708 H 0.75843 0.71162 0.94944 0.0
S1709 S 0.67454 0.74984 0.96746 0.0
N1710 N 0.67292 0.72826 0.94634 0.0
N1711 N 0.70133 0.75344 0.97714 0.0
C1712 C 0.71013 0.73653 0.96325 0.0
C1713 C 0.69481 0.723 0.94639 0.0
C1714 C 0.33674 0.69441 0.94205 0.0
C1715 C 0.35865 0.70817 0.94422 0.0
C1716 C 0.31615 0.70335 0.94827 0.0
C1717 C 0.31666 0.7264 0.95694 0.0
H1718 H 0.33541 0.67649 0.93593 0.0
H1719 H 0.29966 0.69211 0.94623 0.0
S1720 S 0.36955 0.76951 0.96688 0.0
N1721 N 0.37963 0.74602 0.95608 0.0
N1722 N 0.34091 0.76266 0.96818 0.0
C1723 C 0.33844 0.74032 0.95945 0.0
C1724 C 0.35943 0.73123 0.9531 0.0
C1725 C 0.32603 0.31995 0.94449 0.0
C1726 C 0.34255 0.30905 0.93048 0.0
C1727 C 0.31015 0.30815 0.95953 0.0
C1728 C 0.31003 0.28497 0.96096 0.0
H1729 H 0.32506 0.33764 0.94355 0.0
H1730 H 0.29729 0.31702 0.96944 0.0
S1731 S 0.35041 0.24874 0.92949 0.0
N1732 N 0.35845 0.27377 0.92025 0.0
N1733 N 0.32841 0.25181 0.94829 0.0
C1734 C 0.32681 0.27403 0.9477 0.0
C1735 C 0.34312 0.28601 0.93255 0.0
C1736 C 0.60026 0.7034 0.2206 0.0
C1737 C 0.59319 0.69671 0.19726 0.0
C1738 C 0.58892 0.71854 0.23589 0.0
C1739 C 0.56989 0.7275 0.22861 0.0
H1740 H 0.61527 0.69762 0.22694 0.0
H1741 H 0.59548 0.72373 0.25346 0.0
S1742 S 0.54282 0.71381 0.17026 0.0
N1743 N 0.56461 0.699 0.16824 0.0
N1744 N 0.54335 0.72746 0.19719 0.0
C1745 C 0.56175 0.72007 0.20583 0.0
C1746 C 0.57341 0.70471 0.19011 0.0
C1747 C 0.33488 0.58803 0.20663 0.0
C1748 C 0.35867 0.59666 0.20979 0.0
C1749 C 0.3217 0.57614 0.22352 0.0
C1750 C 0.33176 0.57233 0.24421 0.0
H1751 H 0.32614 0.59103 0.19133 0.0
H1752 H 0.30332 0.57034 0.22062 0.0
S1753 S 0.39352 0.5905 0.26066 0.0
N1754 N 0.39196 0.59949 0.23488 0.0
N1755 N 0.36705 0.57772 0.26671 0.0
C1756 C 0.35568 0.58014 0.24722 0.0
C1757 C 0.36915 0.59215 0.23001 0.0
C1758 C 0.47256 0.31447 0.21914 0.0
C1759 C 0.44929 0.3179 0.22404 0.0
C1760 C 0.48509 0.30565 0.23518 0.0
C1761 C 0.47476 0.29964 0.2566 0.0
H1762 H 0.48138 0.31905 0.20299 0.0
H1763 H 0.50305 0.30364 0.23087 0.0
S1764 S 0.41443 0.30498 0.27799 0.0
N1765 N 0.41644 0.31426 0.25199 0.0
N1766 N 0.44004 0.29772 0.28199 0.0
C1767 C 0.45145 0.30259 0.26159 0.0
C1768 C 0.43872 0.31171 0.24537 0.0
C1769 C 0.73302 0.43783 0.19666 0.0
C1770 C 0.738 0.41694 0.18499 0.0
C1771 C 0.75007 0.45311 0.20944 0.0
C1772 C 0.77265 0.44801 0.21104 0.0
H1773 H 0.71553 0.44197 0.19696 0.0
H1774 H 0.74523 0.46846 0.2191 0.0
S1775 S 0.79589 0.39772 0.18056 0.0
N1776 N 0.76819 0.39349 0.17353 0.0
N1777 N 0.80005 0.42224 0.19759 0.0
C1778 C 0.77835 0.42805 0.19814 0.0
C1779 C 0.76108 0.41252 0.18509 0.0
C1780 C 0.60709 0.33055 0.79984 0.0
C1781 C 0.60696 0.33114 0.82449 0.0
C1782 C 0.59198 0.31415 0.78593 0.0
C1783 C 0.57608 0.2977 0.79608 0.0
H1784 H 0.61936 0.34251 0.7911 0.0
H1785 H 0.59307 0.31406 0.767 0.0
S1786 S 0.56813 0.29206 0.85977 0.0
N1787 N 0.58877 0.31416 0.85849 0.0
N1788 N 0.56086 0.28315 0.83228 0.0
C1789 C 0.57524 0.29848 0.82072 0.0
C1790 C 0.59054 0.31522 0.83492 0.0
C1791 C 0.72258 0.58794 0.85194 0.0
C1792 C 0.71003 0.5987 0.83756 0.0
C1793 C 0.73794 0.57323 0.84216 0.0
C1794 C 0.74098 0.56835 0.8176 0.0
H1795 H 0.72132 0.59168 0.87091 0.0
H1796 H 0.74821 0.56642 0.85401 0.0
S1797 S 0.70906 0.58934 0.7724 0.0
N1798 N 0.69989 0.60194 0.79767 0.0
N1799 N 0.72778 0.57339 0.77923 0.0
C1800 C 0.72734 0.57794 0.80308 0.0
C1801 C 0.71212 0.59332 0.81306 0.0
C1802 C 0.47571 0.72806 0.86006 0.0
C1803 C 0.45226 0.72424 0.86751 0.0
C1804 C 0.48315 0.74257 0.84305 0.0
C1805 C 0.46755 0.75444 0.83344 0.0
H1806 H 0.48848 0.72003 0.86767 0.0
H1807 H 0.50148 0.74506 0.83796 0.0
S1808 S 0.40406 0.75001 0.84742 0.0
N1809 N 0.41319 0.73251 0.86359 0.0
N1810 N 0.4273 0.76094 0.83266 0.0
C1811 C 0.44384 0.7502 0.84035 0.0
C1812 C 0.43618 0.73488 0.85721 0.0
C1813 C 0.32674 0.43153 0.80238 0.0
C1814 C 0.35102 0.43422 0.8049 0.0
C1815 C 0.31679 0.44406 0.78764 0.0
C1816 C 0.33068 0.45969 0.77452 0.0
H1817 H 0.31524 0.41946 0.81173 0.0
H1818 H 0.29802 0.44114 0.78615 0.0
S1819 S 0.39523 0.47326 0.77488 0.0
N1820 N 0.38876 0.45421 0.79344 0.0
N1821 N 0.37008 0.47727 0.76521 0.0
C1822 C 0.35497 0.46298 0.77728 0.0
C1823 C 0.36512 0.45035 0.79253 0.0
C1824 C 0.7253 0.59049 0.22449 0.0
C1825 C 0.73034 0.5935 0.20079 0.0
C1826 C 0.73975 0.5801 0.23718 0.0
C1827 C 0.76021 0.57275 0.22691 0.0
H1828 H 0.70999 0.59616 0.23332 0.0
H1829 H 0.73497 0.57809 0.25537 0.0
S1830 S 0.78163 0.57765 0.16539 0.0
N1831 N 0.75701 0.58828 0.16736 0.0
N1832 N 0.78491 0.56988 0.19147 0.0
C1833 C 0.76536 0.57558 0.20308 0.0
C1834 C 0.75029 0.58571 0.19 0.0
C1835 C 0.74758 0.40102 0.86119 0.0
C1836 C 0.72422 0.4023 0.86795 0.0
C1837 C 0.75973 0.41553 0.846 0.0
C1838 C 0.74913 0.4322 0.83744 0.0
H1839 H 0.75649 0.38856 0.86755 0.0
H1840 H 0.77769 0.41393 0.84115 0.0
S1841 S 0.6887 0.44326 0.85067 0.0
N1842 N 0.6911 0.4219 0.86539 0.0
N1843 N 0.71416 0.44946 0.83705 0.0
C1844 C 0.7259 0.43389 0.84427 0.0
C1845 C 0.71337 0.41883 0.85944 0.0
C1846 C 0.60302 0.7599 0.85816 0.0
C1847 C 0.61062 0.74019 0.84641 0.0
C1848 C 0.59238 0.77419 0.84615 0.0
C1849 C 0.58889 0.76949 0.8218 0.0
H1850 H 0.60548 0.76455 0.87687 0.0
H1851 H 0.58727 0.78934 0.85597 0.0
S1852 S 0.60448 0.71966 0.78273 0.0
N1853 N 0.61319 0.71641 0.80892 0.0
N1854 N 0.59303 0.74335 0.78638 0.0
C1855 C 0.59605 0.74973 0.80979 0.0
C1856 C 0.60687 0.73505 0.82207 0.0
C1857 C 0.2951 0.59632 0.84183 0.0
C1858 C 0.31798 0.60752 0.84596 0.0
C1859 C 0.2894 0.58284 0.82042 0.0
C1860 C 0.30645 0.57976 0.80256 0.0
H1861 H 0.28131 0.59854 0.8549 0.0
H1862 H 0.27144 0.57509 0.81763 0.0
S1863 S 0.36913 0.60424 0.80497 0.0
N1864 N 0.358 0.6137 0.83068 0.0
N1865 N 0.34719 0.58845 0.79056 0.0
C1866 C 0.32951 0.5902 0.80675 0.0
C1867 C 0.33529 0.60406 0.82841 0.0
C1868 C 0.4328 0.31624 0.82787 0.0
C1869 C 0.42423 0.33367 0.8183 0.0
C1870 C 0.44492 0.30081 0.81393 0.0
C1871 C 0.44906 0.30205 0.78975 0.0
H1872 H 0.42958 0.314 0.84625 0.0
H1873 H 0.45014 0.28714 0.82201 0.0
S1874 S 0.43272 0.34573 0.75628 0.0
N1875 N 0.42245 0.35221 0.78323 0.0
N1876 N 0.44541 0.32316 0.7571 0.0
C1877 C 0.44164 0.31997 0.78008 0.0
C1878 C 0.42926 0.33579 0.79432 0.0
C1879 C 0.36183 0.43967 0.23431 0.0
C1880 C 0.34827 0.42719 0.21587 0.0
C1881 C 0.35174 0.45285 0.25284 0.0
C1882 C 0.32772 0.45381 0.2537 0.0
H1883 H 0.38031 0.43896 0.23469 0.0
H1884 H 0.36263 0.46168 0.26702 0.0
S1885 S 0.2847 0.42586 0.20932 0.0
N1886 N 0.30958 0.4179 0.19921 0.0
N1887 N 0.29084 0.44245 0.23419 0.0
C1888 C 0.3141 0.44209 0.23513 0.0
C1889 C 0.32432 0.42886 0.21616 0.0
C1890 C 0.61894 0.32394 0.21957 0.0
C1891 C 0.64254 0.33282 0.22351 0.0
C1892 C 0.60506 0.31285 0.23654 0.0
C1893 C 0.61423 0.31015 0.25808 0.0
H1894 H 0.6109 0.32604 0.20349 0.0
H1895 H 0.58686 0.30673 0.23297 0.0
S1896 S 0.67507 0.32962 0.27696 0.0
N1897 N 0.67466 0.3373 0.25039 0.0
N1898 N 0.6484 0.31693 0.28236 0.0
C1899 C 0.63794 0.3183 0.26199 0.0
C1900 C 0.65212 0.32951 0.24469 0.0
C1901 C 0.4033 0.72656 0.20666 0.0
C1902 C 0.41315 0.7132 0.18809 0.0
C1903 C 0.41732 0.74243 0.22207 0.0
C1904 C 0.44181 0.74604 0.21928 0.0
H1905 H 0.38465 0.72392 0.21013 0.0
H1906 H 0.40881 0.75117 0.23691 0.0
S1907 S 0.47595 0.71766 0.17122 0.0
N1908 N 0.44868 0.70577 0.1665 0.0
N1909 N 0.47506 0.73651 0.19477 0.0
C1910 C 0.45179 0.7337 0.1999 0.0
C1911 C 0.43748 0.71711 0.18447 0.0
loop_
_geom_bond_atom_site_label_1
_geom_bond_atom_site_label_2
_geom_bond_distance
_geom_bond_site_symmetry_2
_ccdc_geom_bond_type
O0 Cd1 2.300 . S
O0 C7 1.275 . S
Cd1 O0 2.300 . S
Cd1 O9 2.381 . S
Cd1 O10 2.378 . S
O2 Cd3 2.385 . S
O2 C7 1.255 . S
Cd3 O2 2.385 . S
Cd3 O4 2.317 . S
O4 Cd3 2.317 . S
O4 C5 1.232 . S
C5 O4 1.232 . S
C5 O6 1.218 . S
O6 C5 1.218 . S
C7 O0 1.275 . S
C7 O2 1.255 . S
C8 O9 1.258 . S
C8 O10 1.256 . S
O9 Cd1 2.381 . S
O9 C8 1.258 . S
O10 Cd1 2.378 . S
O10 C8 1.256 . S
O11 Cd12 2.300 . S
O11 C18 1.275 . S
Cd12 O11 2.300 . S
Cd12 O20 2.381 . S
Cd12 O21 2.378 . S
O13 Cd14 2.385 . S
O13 C18 1.255 . S
Cd14 O13 2.385 . S
Cd14 O15 2.317 . S
O15 Cd14 2.317 . S
O15 C16 1.232 . S
C16 O15 1.232 . S
C16 O17 1.218 . S
O17 C16 1.218 . S
C18 O11 1.275 . S
C18 O13 1.255 . S
C19 O20 1.258 . S
C19 O21 1.256 . S
O20 Cd12 2.381 . S
O20 C19 1.258 . S
O21 Cd12 2.378 . S
O21 C19 1.256 . S
O22 Cd23 2.300 . S
O22 C29 1.275 . S
Cd23 O22 2.300 . S
Cd23 O31 2.381 . S
Cd23 O32 2.378 . S
O24 Cd25 2.385 . S
O24 C29 1.255 . S
Cd25 O24 2.385 . S
Cd25 O26 2.317 . S
O26 Cd25 2.317 . S
O26 C27 1.232 . S
C27 O26 1.232 . S
C27 O28 1.218 . S
O28 C27 1.218 . S
C29 O22 1.275 . S
C29 O24 1.255 . S
C30 O31 1.258 . S
C30 O32 1.256 . S
O31 Cd23 2.381 . S
O31 C30 1.258 . S
O32 Cd23 2.378 . S
O32 C30 1.256 . S
O33 Cd34 2.300 . S
O33 C40 1.275 . S
Cd34 O33 2.300 . S
Cd34 O42 2.381 . S
Cd34 O43 2.378 . S
O35 Cd36 2.385 . S
O35 C40 1.255 . S
Cd36 O35 2.385 . S
Cd36 O37 2.317 . S
O37 Cd36 2.317 . S
O37 C38 1.232 . S
C38 O37 1.232 . S
C38 O39 1.218 . S
O39 C38 1.218 . S
C40 O33 1.275 . S
C40 O35 1.255 . S
C41 O42 1.258 . S
C41 O43 1.256 . S
O42 Cd34 2.381 . S
O42 C41 1.258 . S
O43 Cd34 2.378 . S
O43 C41 1.256 . S
O44 Cd45 2.300 . S
O44 C51 1.275 . S
Cd45 O44 2.300 . S
Cd45 O53 2.381 . S
Cd45 O54 2.378 . S
O46 Cd47 2.385 . S
O46 C51 1.255 . S
Cd47 O46 2.385 . S
Cd47 O48 2.317 . S
O48 Cd47 2.317 . S
O48 C49 1.232 . S
C49 O48 1.232 . S
C49 O50 1.218 . S
O50 C49 1.218 . S
C51 O44 1.275 . S
C51 O46 1.255 . S
C52 O53 1.258 . S
C52 O54 1.256 . S
O53 Cd45 2.381 . S
O53 C52 1.258 . S
O54 Cd45 2.378 . S
O54 C52 1.256 . S
O55 Cd56 2.300 . S
O55 C62 1.275 . S
Cd56 O55 2.300 . S
Cd56 O64 2.381 . S
Cd56 O65 2.378 . S
O57 Cd58 2.385 . S
O57 C62 1.255 . S
Cd58 O57 2.385 . S
Cd58 O59 2.317 . S
O59 Cd58 2.317 . S
O59 C60 1.232 . S
C60 O59 1.232 . S
C60 O61 1.218 . S
O61 C60 1.218 . S
C62 O55 1.275 . S
C62 O57 1.255 . S
C63 O64 1.258 . S
C63 O65 1.256 . S
O64 Cd56 2.381 . S
O64 C63 1.258 . S
O65 Cd56 2.378 . S
O65 C63 1.256 . S
O66 Cd67 2.300 . S
O66 C73 1.275 . S
Cd67 O66 2.300 . S
Cd67 O75 2.381 . S
Cd67 O76 2.378 . S
O68 Cd69 2.385 . S
O68 C73 1.255 . S
Cd69 O68 2.385 . S
Cd69 O70 2.317 . S
O70 Cd69 2.317 . S
O70 C71 1.232 . S
C71 O70 1.232 . S
C71 O72 1.218 . S
O72 C71 1.218 . S
C73 O66 1.275 . S
C73 O68 1.255 . S
C74 O75 1.258 . S
C74 O76 1.256 . S
O75 Cd67 2.381 . S
O75 C74 1.258 . S
O76 Cd67 2.378 . S
O76 C74 1.256 . S
O77 Cd78 2.300 . S
O77 C84 1.275 . S
Cd78 O77 2.300 . S
Cd78 O86 2.381 . S
Cd78 O87 2.378 . S
O79 Cd80 2.385 . S
O79 C84 1.255 . S
Cd80 O79 2.385 . S
Cd80 O81 2.317 . S
O81 Cd80 2.317 . S
O81 C82 1.232 . S
C82 O81 1.232 . S
C82 O83 1.218 . S
O83 C82 1.218 . S
C84 O77 1.275 . S
C84 O79 1.255 . S
C85 O86 1.258 . S
C85 O87 1.256 . S
O86 Cd78 2.381 . S
O86 C85 1.258 . S
O87 Cd78 2.378 . S
O87 C85 1.256 . S
O88 Cd89 2.300 . S
O88 C95 1.275 . S
Cd89 O88 2.300 . S
Cd89 O97 2.381 . S
Cd89 O98 2.378 . S
O90 Cd91 2.385 . S
O90 C95 1.255 . S
Cd91 O90 2.385 . S
Cd91 O92 2.317 . S
O92 Cd91 2.317 . S
O92 C93 1.232 . S
C93 O92 1.232 . S
C93 O94 1.218 . S
O94 C93 1.218 . S
C95 O88 1.275 . S
C95 O90 1.255 . S
C96 O97 1.258 . S
C96 O98 1.256 . S
O97 Cd89 2.381 . S
O97 C96 1.258 . S
O98 Cd89 2.378 . S
O98 C96 1.256 . S
O99 Cd100 2.300 . S
O99 C106 1.275 . S
Cd100 O99 2.300 . S
Cd100 O108 2.381 . S
Cd100 O109 2.378 . S
O101 Cd102 2.385 . S
O101 C106 1.255 . S
Cd102 O101 2.385 . S
Cd102 O103 2.317 . S
O103 Cd102 2.317 . S
O103 C104 1.232 . S
C104 O103 1.232 . S
C104 O105 1.218 . S
O105 C104 1.218 . S
C106 O99 1.275 . S
C106 O101 1.255 . S
C107 O108 1.258 . S
C107 O109 1.256 . S
O108 Cd100 2.381 . S
O108 C107 1.258 . S
O109 Cd100 2.378 . S
O109 C107 1.256 . S
O110 Cd111 2.300 . S
O110 C117 1.275 . S
Cd111 O110 2.300 . S
Cd111 O119 2.381 . S
Cd111 O120 2.378 . S
O112 Cd113 2.385 . S
O112 C117 1.255 . S
Cd113 O112 2.385 . S
Cd113 O114 2.317 . S
O114 Cd113 2.317 . S
O114 C115 1.232 . S
C115 O114 1.232 . S
C115 O116 1.218 . S
O116 C115 1.218 . S
C117 O110 1.275 . S
C117 O112 1.255 . S
C118 O119 1.258 . S
C118 O120 1.256 . S
O119 Cd111 2.381 . S
O119 C118 1.258 . S
O120 Cd111 2.378 . S
O120 C118 1.256 . S
O121 Cd122 2.300 . S
O121 C128 1.275 . S
Cd122 O121 2.300 . S
Cd122 O130 2.381 . S
Cd122 O131 2.378 . S
O123 Cd124 2.385 . S
O123 C128 1.255 . S
Cd124 O123 2.385 . S
Cd124 O125 2.317 . S
O125 Cd124 2.317 . S
O125 C126 1.232 . S
C126 O125 1.232 . S
C126 O127 1.218 . S
O127 C126 1.218 . S
C128 O121 1.275 . S
C128 O123 1.255 . S
C129 O130 1.258 . S
C129 O131 1.256 . S
O130 Cd122 2.381 . S
O130 C129 1.258 . S
O131 Cd122 2.378 . S
O131 C129 1.256 . S
O132 Cd133 2.300 . S
O132 C139 1.275 . S
Cd133 O132 2.300 . S
Cd133 O141 2.381 . S
Cd133 O142 2.378 . S
O134 Cd135 2.385 . S
O134 C139 1.255 . S
Cd135 O134 2.385 . S
Cd135 O136 2.317 . S
O136 Cd135 2.317 . S
O136 C137 1.232 . S
C137 O136 1.232 . S
C137 O138 1.218 . S
O138 C137 1.218 . S
C139 O132 1.275 . S
C139 O134 1.255 . S
C140 O141 1.258 . S
C140 O142 1.256 . S
O141 Cd133 2.381 . S
O141 C140 1.258 . S
O142 Cd133 2.378 . S
O142 C140 1.256 . S
O143 Cd144 2.300 . S
O143 C150 1.275 . S
Cd144 O143 2.300 . S
Cd144 O152 2.381 . S
Cd144 O153 2.378 . S
O145 Cd146 2.385 . S
O145 C150 1.255 . S
Cd146 O145 2.385 . S
Cd146 O147 2.317 . S
O147 Cd146 2.317 . S
O147 C148 1.232 . S
C148 O147 1.232 . S
C148 O149 1.218 . S
O149 C148 1.218 . S
C150 O143 1.275 . S
C150 O145 1.255 . S
C151 O152 1.258 . S
C151 O153 1.256 . S
O152 Cd144 2.381 . S
O152 C151 1.258 . S
O153 Cd144 2.378 . S
O153 C151 1.256 . S
O154 Cd155 2.300 . S
O154 C161 1.275 . S
Cd155 O154 2.300 . S
Cd155 O163 2.381 . S
Cd155 O164 2.378 . S
O156 Cd157 2.385 . S
O156 C161 1.255 . S
Cd157 O156 2.385 . S
Cd157 O158 2.317 . S
O158 Cd157 2.317 . S
O158 C159 1.232 . S
C159 O158 1.232 . S
C159 O160 1.218 . S
O160 C159 1.218 . S
C161 O154 1.275 . S
C161 O156 1.255 . S
C162 O163 1.258 . S
C162 O164 1.256 . S
O163 Cd155 2.381 . S
O163 C162 1.258 . S
O164 Cd155 2.378 . S
O164 C162 1.256 . S
O165 Cd166 2.300 . S
O165 C172 1.275 . S
Cd166 O165 2.300 . S
Cd166 O174 2.381 . S
Cd166 O175 2.378 . S
O167 Cd168 2.385 . S
O167 C172 1.255 . S
Cd168 O167 2.385 . S
Cd168 O169 2.317 . S
O169 Cd168 2.317 . S
O169 C170 1.232 . S
C170 O169 1.232 . S
C170 O171 1.218 . S
O171 C170 1.218 . S
C172 O165 1.275 . S
C172 O167 1.255 . S
C173 O174 1.258 . S
C173 O175 1.256 . S
O174 Cd166 2.381 . S
O174 C173 1.258 . S
O175 Cd166 2.378 . S
O175 C173 1.256 . S
O176 Cd177 2.300 . S
O176 C183 1.275 . S
Cd177 O176 2.300 . S
Cd177 O185 2.381 . S
Cd177 O186 2.378 . S
O178 Cd179 2.385 . S
O178 C183 1.255 . S
Cd179 O178 2.385 . S
Cd179 O180 2.317 . S
O180 Cd179 2.317 . S
O180 C181 1.232 . S
C181 O180 1.232 . S
C181 O182 1.218 . S
O182 C181 1.218 . S
C183 O176 1.275 . S
C183 O178 1.255 . S
C184 O185 1.258 . S
C184 O186 1.256 . S
O185 Cd177 2.381 . S
O185 C184 1.258 . S
O186 Cd177 2.378 . S
O186 C184 1.256 . S
O187 Cd188 2.300 . S
O187 C194 1.275 . S
Cd188 O187 2.300 . S
Cd188 O196 2.381 . S
Cd188 O197 2.378 . S
O189 Cd190 2.385 . S
O189 C194 1.255 . S
Cd190 O189 2.385 . S
Cd190 O191 2.317 . S
O191 Cd190 2.317 . S
O191 C192 1.232 . S
C192 O191 1.232 . S
C192 O193 1.218 . S
O193 C192 1.218 . S
C194 O187 1.275 . S
C194 O189 1.255 . S
C195 O196 1.258 . S
C195 O197 1.256 . S
O196 Cd188 2.381 . S
O196 C195 1.258 . S
O197 Cd188 2.378 . S
O197 C195 1.256 . S
O198 Cd199 2.300 . S
O198 C205 1.275 . S
Cd199 O198 2.300 . S
Cd199 O207 2.381 . S
Cd199 O208 2.378 . S
O200 Cd201 2.385 . S
O200 C205 1.255 . S
Cd201 O200 2.385 . S
Cd201 O202 2.317 . S
O202 Cd201 2.317 . S
O202 C203 1.232 . S
C203 O202 1.232 . S
C203 O204 1.218 . S
O204 C203 1.218 . S
C205 O198 1.275 . S
C205 O200 1.255 . S
C206 O207 1.258 . S
C206 O208 1.256 . S
O207 Cd199 2.381 . S
O207 C206 1.258 . S
O208 Cd199 2.378 . S
O208 C206 1.256 . S
O209 Cd210 2.300 . S
O209 C216 1.275 . S
Cd210 O209 2.300 . S
Cd210 O218 2.381 . S
Cd210 O219 2.378 . S
O211 Cd212 2.385 . S
O211 C216 1.255 . S
Cd212 O211 2.385 . S
Cd212 O213 2.317 . S
O213 Cd212 2.317 . S
O213 C214 1.232 . S
C214 O213 1.232 . S
C214 O215 1.218 . S
O215 C214 1.218 . S
C216 O209 1.275 . S
C216 O211 1.255 . S
C217 O218 1.258 . S
C217 O219 1.256 . S
O218 Cd210 2.381 . S
O218 C217 1.258 . S
O219 Cd210 2.378 . S
O219 C217 1.256 . S
O220 Cd221 2.300 . S
O220 C227 1.275 . S
Cd221 O220 2.300 . S
Cd221 O229 2.381 . S
Cd221 O230 2.378 . S
O222 Cd223 2.385 . S
O222 C227 1.255 . S
Cd223 O222 2.385 . S
Cd223 O224 2.317 . S
O224 Cd223 2.317 . S
O224 C225 1.232 . S
C225 O224 1.232 . S
C225 O226 1.218 . S
O226 C225 1.218 . S
C227 O220 1.275 . S
C227 O222 1.255 . S
C228 O229 1.258 . S
C228 O230 1.256 . S
O229 Cd221 2.381 . S
O229 C228 1.258 . S
O230 Cd221 2.378 . S
O230 C228 1.256 . S
O231 Cd232 2.300 . S
O231 C238 1.275 . S
Cd232 O231 2.300 . S
Cd232 O240 2.381 . S
Cd232 O241 2.378 . S
O233 Cd234 2.385 . S
O233 C238 1.255 . S
Cd234 O233 2.385 . S
Cd234 O235 2.317 . S
O235 Cd234 2.317 . S
O235 C236 1.232 . S
C236 O235 1.232 . S
C236 O237 1.218 . S
O237 C236 1.218 . S
C238 O231 1.275 . S
C238 O233 1.255 . S
C239 O240 1.258 . S
C239 O241 1.256 . S
O240 Cd232 2.381 . S
O240 C239 1.258 . S
O241 Cd232 2.378 . S
O241 C239 1.256 . S
O242 Cd243 2.300 . S
O242 C249 1.275 . S
Cd243 O242 2.300 . S
Cd243 O251 2.381 . S
Cd243 O252 2.378 . S
O244 Cd245 2.385 . S
O244 C249 1.255 . S
Cd245 O244 2.385 . S
Cd245 O246 2.317 . S
O246 Cd245 2.317 . S
O246 C247 1.232 . S
C247 O246 1.232 . S
C247 O248 1.218 . S
O248 C247 1.218 . S
C249 O242 1.275 . S
C249 O244 1.255 . S
C250 O251 1.258 . S
C250 O252 1.256 . S
O251 Cd243 2.381 . S
O251 C250 1.258 . S
O252 Cd243 2.378 . S
O252 C250 1.256 . S
O253 Cd254 2.300 . S
O253 C260 1.275 . S
Cd254 O253 2.300 . S
Cd254 O262 2.381 . S
Cd254 O263 2.378 . S
O255 Cd256 2.385 . S
O255 C260 1.255 . S
Cd256 O255 2.385 . S
Cd256 O257 2.317 . S
O257 Cd256 2.317 . S
O257 C258 1.232 . S
C258 O257 1.232 . S
C258 O259 1.218 . S
O259 C258 1.218 . S
C260 O253 1.275 . S
C260 O255 1.255 . S
C261 O262 1.258 . S
C261 O263 1.256 . S
O262 Cd254 2.381 . S
O262 C261 1.258 . S
O263 Cd254 2.378 . S
O263 C261 1.256 . S
O264 Cd265 2.300 . S
O264 C271 1.275 . S
Cd265 O264 2.300 . S
Cd265 O273 2.381 . S
Cd265 O274 2.378 . S
O266 Cd267 2.385 . S
O266 C271 1.255 . S
Cd267 O266 2.385 . S
Cd267 O268 2.317 . S
O268 Cd267 2.317 . S
O268 C269 1.232 . S
C269 O268 1.232 . S
C269 O270 1.218 . S
O270 C269 1.218 . S
C271 O264 1.275 . S
C271 O266 1.255 . S
C272 O273 1.258 . S
C272 O274 1.256 . S
O273 Cd265 2.381 . S
O273 C272 1.258 . S
O274 Cd265 2.378 . S
O274 C272 1.256 . S
O275 Cd276 2.300 . S
O275 C282 1.275 . S
Cd276 O275 2.300 . S
Cd276 O284 2.381 . S
Cd276 O285 2.378 . S
O277 Cd278 2.385 . S
O277 C282 1.255 . S
Cd278 O277 2.385 . S
Cd278 O279 2.317 . S
O279 Cd278 2.317 . S
O279 C280 1.232 . S
C280 O279 1.232 . S
C280 O281 1.218 . S
O281 C280 1.218 . S
C282 O275 1.275 . S
C282 O277 1.255 . S
C283 O284 1.258 . S
C283 O285 1.256 . S
O284 Cd276 2.381 . S
O284 C283 1.258 . S
O285 Cd276 2.378 . S
O285 C283 1.256 . S
O286 Cd287 2.300 . S
O286 C293 1.275 . S
Cd287 O286 2.300 . S
Cd287 O295 2.381 . S
Cd287 O296 2.378 . S
O288 Cd289 2.385 . S
O288 C293 1.255 . S
Cd289 O288 2.385 . S
Cd289 O290 2.317 . S
O290 Cd289 2.317 . S
O290 C291 1.232 . S
C291 O290 1.232 . S
C291 O292 1.218 . S
O292 C291 1.218 . S
C293 O286 1.275 . S
C293 O288 1.255 . S
C294 O295 1.258 . S
C294 O296 1.256 . S
O295 Cd287 2.381 . S
O295 C294 1.258 . S
O296 Cd287 2.378 . S
O296 C294 1.256 . S
O297 Cd298 2.300 . S
O297 C304 1.275 . S
Cd298 O297 2.300 . S
Cd298 O306 2.381 . S
Cd298 O307 2.378 . S
O299 Cd300 2.385 . S
O299 C304 1.255 . S
Cd300 O299 2.385 . S
Cd300 O301 2.317 . S
O301 Cd300 2.317 . S
O301 C302 1.232 . S
C302 O301 1.232 . S
C302 O303 1.218 . S
O303 C302 1.218 . S
C304 O297 1.275 . S
C304 O299 1.255 . S
C305 O306 1.258 . S
C305 O307 1.256 . S
O306 Cd298 2.381 . S
O306 C305 1.258 . S
O307 Cd298 2.378 . S
O307 C305 1.256 . S
O308 Cd309 2.300 . S
O308 C315 1.275 . S
Cd309 O308 2.300 . S
Cd309 O317 2.381 . S
Cd309 O318 2.378 . S
O310 Cd311 2.385 . S
O310 C315 1.255 . S
Cd311 O310 2.385 . S
Cd311 O312 2.317 . S
O312 Cd311 2.317 . S
O312 C313 1.232 . S
C313 O312 1.232 . S
C313 O314 1.218 . S
O314 C313 1.218 . S
C315 O308 1.275 . S
C315 O310 1.255 . S
C316 O317 1.258 . S
C316 O318 1.256 . S
O317 Cd309 2.381 . S
O317 C316 1.258 . S
O318 Cd309 2.378 . S
O318 C316 1.256 . S
O319 Cd320 2.300 . S
O319 C326 1.275 . S
Cd320 O319 2.300 . S
Cd320 O328 2.381 . S
Cd320 O329 2.378 . S
O321 Cd322 2.385 . S
O321 C326 1.255 . S
Cd322 O321 2.385 . S
Cd322 O323 2.317 . S
O323 Cd322 2.317 . S
O323 C324 1.232 . S
C324 O323 1.232 . S
C324 O325 1.218 . S
O325 C324 1.218 . S
C326 O319 1.275 . S
C326 O321 1.255 . S
C327 O328 1.258 . S
C327 O329 1.256 . S
O328 Cd320 2.381 . S
O328 C327 1.258 . S
O329 Cd320 2.378 . S
O329 C327 1.256 . S
O330 Cd331 2.300 . S
O330 C337 1.275 . S
Cd331 O330 2.300 . S
Cd331 O339 2.381 . S
Cd331 O340 2.378 . S
O332 Cd333 2.385 . S
O332 C337 1.255 . S
Cd333 O332 2.385 . S
Cd333 O334 2.317 . S
O334 Cd333 2.317 . S
O334 C335 1.232 . S
C335 O334 1.232 . S
C335 O336 1.218 . S
O336 C335 1.218 . S
C337 O330 1.275 . S
C337 O332 1.255 . S
C338 O339 1.258 . S
C338 O340 1.256 . S
O339 Cd331 2.381 . S
O339 C338 1.258 . S
O340 Cd331 2.378 . S
O340 C338 1.256 . S
O341 Cd342 2.300 . S
O341 C348 1.275 . S
Cd342 O341 2.300 . S
Cd342 O350 2.381 . S
Cd342 O351 2.378 . S
O343 Cd344 2.385 . S
O343 C348 1.255 . S
Cd344 O343 2.385 . S
Cd344 O345 2.317 . S
O345 Cd344 2.317 . S
O345 C346 1.232 . S
C346 O345 1.232 . S
C346 O347 1.218 . S
O347 C346 1.218 . S
C348 O341 1.275 . S
C348 O343 1.255 . S
C349 O350 1.258 . S
C349 O351 1.256 . S
O350 Cd342 2.381 . S
O350 C349 1.258 . S
O351 Cd342 2.378 . S
O351 C349 1.256 . S
H352 C360 0.930 . S
H353 C363 0.930 . S
H354 C365 0.930 . S
H355 C366 0.970 . S
H356 C366 0.970 . S
H357 C368 0.930 . S
H358 C370 0.930 . S
H359 C372 0.930 . S
C360 H352 0.930 . S
C360 C361 1.382 1_554 S
C360 C362 1.426 . S
C361 C360 1.382 1_556 S
C361 C365 1.389 . S
C362 C360 1.426 . S
C362 C363 1.375 . S
C362 C366 1.532 . S
C363 H353 0.930 . S
C363 C362 1.375 . S
C363 C364 1.416 1_554 S
C364 C363 1.416 1_556 S
C364 C365 1.371 . S
C365 H354 0.930 . S
C365 C361 1.389 . S
C365 C364 1.371 . S
C366 H355 0.970 . S
C366 H356 0.970 . S
C366 C362 1.532 . S
C366 C367 1.499 . S
C367 C366 1.499 . S
C367 C368 1.370 . S
C367 C372 1.415 . S
C368 H357 0.930 . S
C368 C367 1.370 . S
C368 C369 1.407 . S
C369 C368 1.407 . S
C369 C370 1.365 . S
C370 H358 0.930 . S
C370 C369 1.365 . S
C370 C371 1.393 . S
C371 C370 1.393 . S
C371 C372 1.387 . S
C372 H359 0.930 . S
C372 C367 1.415 . S
C372 C371 1.387 . S
H373 C381 0.930 . S
H374 C384 0.930 . S
H375 C386 0.930 . S
H376 C387 0.970 . S
H377 C387 0.970 1_554 S
H378 C389 0.930 . S
H379 C391 0.930 . S
H380 C393 0.930 . S
C381 H373 0.930 . S
C381 C382 1.382 . S
C381 C383 1.426 . S
C382 C381 1.382 . S
C382 C386 1.389 . S
C383 C381 1.426 . S
C383 C384 1.375 . S
C383 C387 1.532 1_554 S
C384 H374 0.930 . S
C384 C383 1.375 . S
C384 C385 1.416 . S
C385 C384 1.416 . S
C385 C386 1.371 . S
C386 H375 0.930 . S
C386 C382 1.389 . S
C386 C385 1.371 . S
C387 H376 0.970 . S
C387 H377 0.970 1_556 S
C387 C383 1.532 1_556 S
C387 C388 1.499 . S
C388 C387 1.499 . S
C388 C389 1.370 . S
C388 C393 1.415 . S
C389 H378 0.930 . S
C389 C388 1.370 . S
C389 C390 1.407 . S
C390 C389 1.407 . S
C390 C391 1.365 . S
C391 H379 0.930 . S
C391 C390 1.365 . S
C391 C392 1.393 . S
C392 C391 1.393 . S
C392 C393 1.387 . S
C393 H380 0.930 . S
C393 C388 1.415 . S
C393 C392 1.387 . S
H394 C402 0.930 . S
H395 C405 0.930 . S
H396 C407 0.930 . S
H397 C408 0.970 . S
H398 C408 0.970 . S
H399 C410 0.930 . S
H400 C412 0.930 . S
H401 C414 0.930 . S
C402 H394 0.930 . S
C402 C403 1.382 . S
C402 C404 1.426 . S
C403 C402 1.382 . S
C403 C407 1.389 . S
C404 C402 1.426 . S
C404 C405 1.375 . S
C404 C408 1.532 . S
C405 H395 0.930 . S
C405 C404 1.375 . S
C405 C406 1.416 . S
C406 C405 1.416 . S
C406 C407 1.371 . S
C407 H396 0.930 . S
C407 C403 1.389 . S
C407 C406 1.371 . S
C408 H397 0.970 . S
C408 H398 0.970 . S
C408 C404 1.532 . S
C408 C409 1.499 . S
C409 C408 1.499 . S
C409 C410 1.370 . S
C409 C414 1.415 . S
C410 H399 0.930 . S
C410 C409 1.370 . S
C410 C411 1.407 1_554 S
C411 C410 1.407 1_556 S
C411 C412 1.365 . S
C412 H400 0.930 . S
C412 C411 1.365 . S
C412 C413 1.393 . S
C413 C412 1.393 . S
C413 C414 1.387 1_556 S
C414 H401 0.930 . S
C414 C409 1.415 . S
C414 C413 1.387 1_554 S
H415 C423 0.930 . S
H416 C426 0.930 . S
H417 C428 0.930 . S
H418 C429 0.970 . S
H419 C429 0.970 . S
H420 C431 0.930 . S
H421 C433 0.930 . S
H422 C435 0.930 . S
C423 H415 0.930 . S
C423 C424 1.382 . S
C423 C425 1.426 . S
C424 C423 1.382 . S
C424 C428 1.389 . S
C425 C423 1.426 . S
C425 C426 1.375 . S
C425 C429 1.532 1_554 S
C426 H416 0.930 . S
C426 C425 1.375 . S
C426 C427 1.416 . S
C427 C426 1.416 . S
C427 C428 1.371 . S
C428 H417 0.930 . S
C428 C424 1.389 . S
C428 C427 1.371 . S
C429 H418 0.970 . S
C429 H419 0.970 . S
C429 C425 1.532 1_556 S
C429 C430 1.499 . S
C430 C429 1.499 . S
C430 C431 1.370 . S
C430 C435 1.415 . S
C431 H420 0.930 . S
C431 C430 1.370 . S
C431 C432 1.407 . S
C432 C431 1.407 . S
C432 C433 1.365 . S
C433 H421 0.930 . S
C433 C432 1.365 . S
C433 C434 1.393 . S
C434 C433 1.393 . S
C434 C435 1.387 . S
C435 H422 0.930 . S
C435 C430 1.415 . S
C435 C434 1.387 . S
H436 C444 0.930 . S
H437 C447 0.930 . S
H438 C449 0.930 . S
H439 C450 0.970 1_655 S
H440 C450 0.970 . S
H441 C452 0.930 . S
H442 C454 0.930 . S
H443 C456 0.930 . S
C444 H436 0.930 . S
C444 C445 1.382 . S
C444 C446 1.426 . S
C445 C444 1.382 . S
C445 C449 1.389 . S
C446 C444 1.426 . S
C446 C447 1.375 . S
C446 C450 1.532 . S
C447 H437 0.930 . S
C447 C446 1.375 . S
C447 C448 1.416 . S
C448 C447 1.416 . S
C448 C449 1.371 . S
C449 H438 0.930 . S
C449 C445 1.389 . S
C449 C448 1.371 . S
C450 H439 0.970 1_455 S
C450 H440 0.970 . S
C450 C446 1.532 . S
C450 C451 1.499 1_455 S
C451 C450 1.499 1_655 S
C451 C452 1.370 . S
C451 C456 1.415 . S
C452 H441 0.930 . S
C452 C451 1.370 . S
C452 C453 1.407 . S
C453 C452 1.407 . S
C453 C454 1.365 . S
C454 H442 0.930 . S
C454 C453 1.365 . S
C454 C455 1.393 . S
C455 C454 1.393 . S
C455 C456 1.387 . S
C456 H443 0.930 . S
C456 C451 1.415 . S
C456 C455 1.387 . S
H457 C465 0.930 . S
H458 C468 0.930 . S
H459 C470 0.930 . S
H460 C471 0.970 . S
H461 C471 0.970 . S
H462 C473 0.930 . S
H463 C475 0.930 . S
H464 C477 0.930 . S
C465 H457 0.930 . S
C465 C466 1.382 . S
C465 C467 1.426 . S
C466 C465 1.382 . S
C466 C470 1.389 . S
C467 C465 1.426 . S
C467 C468 1.375 . S
C467 C471 1.532 . S
C468 H458 0.930 . S
C468 C467 1.375 . S
C468 C469 1.416 . S
C469 C468 1.416 . S
C469 C470 1.371 . S
C470 H459 0.930 . S
C470 C466 1.389 . S
C470 C469 1.371 . S
C471 H460 0.970 . S
C471 H461 0.970 . S
C471 C467 1.532 . S
C471 C472 1.499 1_545 S
C472 C471 1.499 1_565 S
C472 C473 1.370 . S
C472 C477 1.415 . S
C473 H462 0.930 . S
C473 C472 1.370 . S
C473 C474 1.407 . S
C474 C473 1.407 . S
C474 C475 1.365 . S
C475 H463 0.930 . S
C475 C474 1.365 . S
C475 C476 1.393 . S
C476 C475 1.393 . S
C476 C477 1.387 . S
C477 H464 0.930 . S
C477 C472 1.415 . S
C477 C476 1.387 . S
H478 C486 0.930 . S
H479 C489 0.930 . S
H480 C491 0.930 1_655 S
H481 C492 0.970 . S
H482 C492 0.970 . S
H483 C494 0.930 . S
H484 C496 0.930 . S
H485 C498 0.930 . S
C486 H478 0.930 . S
C486 C487 1.382 . S
C486 C488 1.426 . S
C487 C486 1.382 . S
C487 C491 1.389 . S
C488 C486 1.426 . S
C488 C489 1.375 . S
C488 C492 1.532 . S
C489 H479 0.930 . S
C489 C488 1.375 . S
C489 C490 1.416 . S
C490 C489 1.416 . S
C490 C491 1.371 . S
C491 H480 0.930 1_455 S
C491 C487 1.389 . S
C491 C490 1.371 . S
C492 H481 0.970 . S
C492 H482 0.970 . S
C492 C488 1.532 . S
C492 C493 1.499 . S
C493 C492 1.499 . S
C493 C494 1.370 . S
C493 C498 1.415 . S
C494 H483 0.930 . S
C494 C493 1.370 . S
C494 C495 1.407 . S
C495 C494 1.407 . S
C495 C496 1.365 . S
C496 H484 0.930 . S
C496 C495 1.365 . S
C496 C497 1.393 . S
C497 C496 1.393 . S
C497 C498 1.387 . S
C498 H485 0.930 . S
C498 C493 1.415 . S
C498 C497 1.387 . S
H499 C507 0.930 . S
H500 C510 0.930 1_545 S
H501 C512 0.930 . S
H502 C513 0.970 . S
H503 C513 0.970 . S
H504 C515 0.930 . S
H505 C517 0.930 . S
H506 C519 0.930 . S
C507 H499 0.930 . S
C507 C508 1.382 . S
C507 C509 1.426 . S
C508 C507 1.382 . S
C508 C512 1.389 . S
C509 C507 1.426 . S
C509 C510 1.375 . S
C509 C513 1.532 1_565 S
C510 H500 0.930 1_565 S
C510 C509 1.375 . S
C510 C511 1.416 . S
C511 C510 1.416 . S
C511 C512 1.371 . S
C512 H501 0.930 . S
C512 C508 1.389 . S
C512 C511 1.371 . S
C513 H502 0.970 . S
C513 H503 0.970 . S
C513 C509 1.532 1_545 S
C513 C514 1.499 . S
C514 C513 1.499 . S
C514 C515 1.370 . S
C514 C519 1.415 . S
C515 H504 0.930 . S
C515 C514 1.370 . S
C515 C516 1.407 . S
C516 C515 1.407 . S
C516 C517 1.365 . S
C517 H505 0.930 . S
C517 C516 1.365 . S
C517 C518 1.393 . S
C518 C517 1.393 . S
C518 C519 1.387 . S
C519 H506 0.930 . S
C519 C514 1.415 . S
C519 C518 1.387 . S
H520 C528 0.930 . S
H521 C531 0.930 . S
H522 C533 0.930 . S
H523 C534 0.970 . S
H524 C534 0.970 1_655 S
H525 C536 0.930 . S
H526 C538 0.930 . S
H527 C540 0.930 . S
C528 H520 0.930 . S
C528 C529 1.382 . S
C528 C530 1.426 . S
C529 C528 1.382 . S
C529 C533 1.389 . S
C530 C528 1.426 . S
C530 C531 1.375 . S
C530 C534 1.532 1_655 S
C531 H521 0.930 . S
C531 C530 1.375 . S
C531 C532 1.416 . S
C532 C531 1.416 . S
C532 C533 1.371 . S
C533 H522 0.930 . S
C533 C529 1.389 . S
C533 C532 1.371 . S
C534 H523 0.970 . S
C534 H524 0.970 1_455 S
C534 C530 1.532 1_455 S
C534 C535 1.499 . S
C535 C534 1.499 . S
C535 C536 1.370 . S
C535 C540 1.415 . S
C536 H525 0.930 . S
C536 C535 1.370 . S
C536 C537 1.407 . S
C537 C536 1.407 . S
C537 C538 1.365 . S
C538 H526 0.930 . S
C538 C537 1.365 . S
C538 C539 1.393 . S
C539 C538 1.393 . S
C539 C540 1.387 . S
C540 H527 0.930 . S
C540 C535 1.415 . S
C540 C539 1.387 . S
H541 C549 0.930 . S
H542 C552 0.930 . S
H543 C554 0.930 . S
H544 C555 0.970 . S
H545 C555 0.970 . S
H546 C557 0.930 . S
H547 C559 0.930 . S
H548 C561 0.930 . S
C549 H541 0.930 . S
C549 C550 1.382 . S
C549 C551 1.426 . S
C550 C549 1.382 . S
C550 C554 1.389 . S
C551 C549 1.426 . S
C551 C552 1.375 . S
C551 C555 1.532 1_565 S
C552 H542 0.930 . S
C552 C551 1.375 . S
C552 C553 1.416 . S
C553 C552 1.416 . S
C553 C554 1.371 . S
C554 H543 0.930 . S
C554 C550 1.389 . S
C554 C553 1.371 . S
C555 H544 0.970 . S
C555 H545 0.970 . S
C555 C551 1.532 1_545 S
C555 C556 1.499 . S
C556 C555 1.499 . S
C556 C557 1.370 . S
C556 C561 1.415 . S
C557 H546 0.930 . S
C557 C556 1.370 . S
C557 C558 1.407 . S
C558 C557 1.407 . S
C558 C559 1.365 . S
C559 H547 0.930 . S
C559 C558 1.365 . S
C559 C560 1.393 . S
C560 C559 1.393 . S
C560 C561 1.387 . S
C561 H548 0.930 . S
C561 C556 1.415 . S
C561 C560 1.387 . S
H562 C570 0.930 . S
H563 C573 0.930 . S
H564 C575 0.930 1_655 S
H565 C576 0.970 . S
H566 C576 0.970 . S
H567 C578 0.930 . S
H568 C580 0.930 . S
H569 C582 0.930 . S
C570 H562 0.930 . S
C570 C571 1.382 . S
C570 C572 1.426 . S
C571 C570 1.382 . S
C571 C575 1.389 . S
C572 C570 1.426 . S
C572 C573 1.375 . S
C572 C576 1.532 . S
C573 H563 0.930 . S
C573 C572 1.375 . S
C573 C574 1.416 . S
C574 C573 1.416 . S
C574 C575 1.371 . S
C575 H564 0.930 1_455 S
C575 C571 1.389 . S
C575 C574 1.371 . S
C576 H565 0.970 . S
C576 H566 0.970 . S
C576 C572 1.532 . S
C576 C577 1.499 . S
C577 C576 1.499 . S
C577 C578 1.370 . S
C577 C582 1.415 . S
C578 H567 0.930 . S
C578 C577 1.370 . S
C578 C579 1.407 . S
C579 C578 1.407 . S
C579 C580 1.365 . S
C580 H568 0.930 . S
C580 C579 1.365 . S
C580 C581 1.393 . S
C581 C580 1.393 . S
C581 C582 1.387 . S
C582 H569 0.930 . S
C582 C577 1.415 . S
C582 C581 1.387 . S
H583 C591 0.930 . S
H584 C594 0.930 1_545 S
H585 C596 0.930 . S
H586 C597 0.970 . S
H587 C597 0.970 . S
H588 C599 0.930 . S
H589 C601 0.930 . S
H590 C603 0.930 . S
C591 H583 0.930 . S
C591 C592 1.382 . S
C591 C593 1.426 . S
C592 C591 1.382 . S
C592 C596 1.389 . S
C593 C591 1.426 . S
C593 C594 1.375 . S
C593 C597 1.532 1_565 S
C594 H584 0.930 1_565 S
C594 C593 1.375 . S
C594 C595 1.416 . S
C595 C594 1.416 . S
C595 C596 1.371 . S
C596 H585 0.930 . S
C596 C592 1.389 . S
C596 C595 1.371 . S
C597 H586 0.970 . S
C597 H587 0.970 . S
C597 C593 1.532 1_545 S
C597 C598 1.499 . S
C598 C597 1.499 . S
C598 C599 1.370 . S
C598 C603 1.415 . S
C599 H588 0.930 . S
C599 C598 1.370 . S
C599 C600 1.407 . S
C600 C599 1.407 . S
C600 C601 1.365 . S
C601 H589 0.930 . S
C601 C600 1.365 . S
C601 C602 1.393 . S
C602 C601 1.393 . S
C602 C603 1.387 . S
C603 H590 0.930 . S
C603 C598 1.415 . S
C603 C602 1.387 . S
H604 C612 0.930 . S
H605 C615 0.930 . S
H606 C617 0.930 . S
H607 C618 0.970 . S
H608 C618 0.970 . S
H609 C620 0.930 . S
H610 C622 0.930 . S
H611 C624 0.930 . S
C612 H604 0.930 . S
C612 C613 1.382 . S
C612 C614 1.426 . S
C613 C612 1.382 . S
C613 C617 1.389 . S
C614 C612 1.426 . S
C614 C615 1.375 . S
C614 C618 1.532 . S
C615 H605 0.930 . S
C615 C614 1.375 . S
C615 C616 1.416 . S
C616 C615 1.416 . S
C616 C617 1.371 . S
C617 H606 0.930 . S
C617 C613 1.389 . S
C617 C616 1.371 . S
C618 H607 0.970 . S
C618 H608 0.970 . S
C618 C614 1.532 . S
C618 C619 1.499 . S
C619 C618 1.499 . S
C619 C620 1.370 . S
C619 C624 1.415 . S
C620 H609 0.930 . S
C620 C619 1.370 . S
C620 C621 1.407 . S
C621 C620 1.407 . S
C621 C622 1.365 . S
C622 H610 0.930 . S
C622 C621 1.365 . S
C622 C623 1.393 . S
C623 C622 1.393 . S
C623 C624 1.387 . S
C624 H611 0.930 . S
C624 C619 1.415 . S
C624 C623 1.387 . S
H625 C633 0.930 . S
H626 C636 0.930 . S
H627 C638 0.930 . S
H628 C639 0.970 . S
H629 C639 0.970 . S
H630 C641 0.930 . S
H631 C643 0.930 . S
H632 C645 0.930 . S
C633 H625 0.930 . S
C633 C634 1.382 . S
C633 C635 1.426 . S
C634 C633 1.382 . S
C634 C638 1.389 . S
C635 C633 1.426 . S
C635 C636 1.375 . S
C635 C639 1.532 . S
C636 H626 0.930 . S
C636 C635 1.375 . S
C636 C637 1.416 . S
C637 C636 1.416 . S
C637 C638 1.371 . S
C638 H627 0.930 . S
C638 C634 1.389 . S
C638 C637 1.371 . S
C639 H628 0.970 . S
C639 H629 0.970 . S
C639 C635 1.532 . S
C639 C640 1.499 . S
C640 C639 1.499 . S
C640 C641 1.370 . S
C640 C645 1.415 . S
C641 H630 0.930 . S
C641 C640 1.370 . S
C641 C642 1.407 . S
C642 C641 1.407 . S
C642 C643 1.365 . S
C643 H631 0.930 . S
C643 C642 1.365 . S
C643 C644 1.393 . S
C644 C643 1.393 . S
C644 C645 1.387 . S
C645 H632 0.930 . S
C645 C640 1.415 . S
C645 C644 1.387 . S
H646 C654 0.930 . S
H647 C657 0.930 . S
H648 C659 0.930 . S
H649 C660 0.970 . S
H650 C660 0.970 . S
H651 C662 0.930 . S
H652 C664 0.930 . S
H653 C666 0.930 . S
C654 H646 0.930 . S
C654 C655 1.382 . S
C654 C656 1.426 . S
C655 C654 1.382 . S
C655 C659 1.389 . S
C656 C654 1.426 . S
C656 C657 1.375 . S
C656 C660 1.532 . S
C657 H647 0.930 . S
C657 C656 1.375 . S
C657 C658 1.416 . S
C658 C657 1.416 . S
C658 C659 1.371 . S
C659 H648 0.930 . S
C659 C655 1.389 . S
C659 C658 1.371 . S
C660 H649 0.970 . S
C660 H650 0.970 . S
C660 C656 1.532 . S
C660 C661 1.499 . S
C661 C660 1.499 . S
C661 C662 1.370 . S
C661 C666 1.415 . S
C662 H651 0.930 . S
C662 C661 1.370 . S
C662 C663 1.407 . S
C663 C662 1.407 . S
C663 C664 1.365 . S
C664 H652 0.930 . S
C664 C663 1.365 . S
C664 C665 1.393 . S
C665 C664 1.393 . S
C665 C666 1.387 . S
C666 H653 0.930 . S
C666 C661 1.415 . S
C666 C665 1.387 . S
H667 C675 0.930 . S
H668 C678 0.930 . S
H669 C680 0.930 . S
H670 C681 0.970 . S
H671 C681 0.970 . S
H672 C683 0.930 . S
H673 C685 0.930 . S
H674 C687 0.930 . S
C675 H667 0.930 . S
C675 C676 1.382 . S
C675 C677 1.426 . S
C676 C675 1.382 . S
C676 C680 1.389 . S
C677 C675 1.426 . S
C677 C678 1.375 . S
C677 C681 1.532 . S
C678 H668 0.930 . S
C678 C677 1.375 . S
C678 C679 1.416 . S
C679 C678 1.416 . S
C679 C680 1.371 . S
C680 H669 0.930 . S
C680 C676 1.389 . S
C680 C679 1.371 . S
C681 H670 0.970 . S
C681 H671 0.970 . S
C681 C677 1.532 . S
C681 C682 1.499 . S
C682 C681 1.499 . S
C682 C683 1.370 . S
C682 C687 1.415 . S
C683 H672 0.930 . S
C683 C682 1.370 . S
C683 C684 1.407 . S
C684 C683 1.407 . S
C684 C685 1.365 . S
C685 H673 0.930 . S
C685 C684 1.365 . S
C685 C686 1.393 . S
C686 C685 1.393 . S
C686 C687 1.387 . S
C687 H674 0.930 . S
C687 C682 1.415 . S
C687 C686 1.387 . S
H688 C696 0.930 . S
H689 C699 0.930 . S
H690 C701 0.930 . S
H691 C702 0.970 . S
H692 C702 0.970 . S
H693 C704 0.930 . S
H694 C706 0.930 . S
H695 C708 0.930 . S
C696 H688 0.930 . S
C696 C697 1.382 . S
C696 C698 1.426 . S
C697 C696 1.382 . S
C697 C701 1.389 . S
C698 C696 1.426 . S
C698 C699 1.375 . S
C698 C702 1.532 . S
C699 H689 0.930 . S
C699 C698 1.375 . S
C699 C700 1.416 . S
C700 C699 1.416 . S
C700 C701 1.371 . S
C701 H690 0.930 . S
C701 C697 1.389 . S
C701 C700 1.371 . S
C702 H691 0.970 . S
C702 H692 0.970 . S
C702 C698 1.532 . S
C702 C703 1.499 . S
C703 C702 1.499 . S
C703 C704 1.370 . S
C703 C708 1.415 . S
C704 H693 0.930 . S
C704 C703 1.370 . S
C704 C705 1.407 . S
C705 C704 1.407 . S
C705 C706 1.365 . S
C706 H694 0.930 . S
C706 C705 1.365 . S
C706 C707 1.393 . S
C707 C706 1.393 . S
C707 C708 1.387 . S
C708 H695 0.930 . S
C708 C703 1.415 . S
C708 C707 1.387 . S
H709 C717 0.930 . S
H710 C720 0.930 . S
H711 C722 0.930 . S
H712 C723 0.970 . S
H713 C723 0.970 . S
H714 C725 0.930 . S
H715 C727 0.930 . S
H716 C729 0.930 . S
C717 H709 0.930 . S
C717 C718 1.382 . S
C717 C719 1.426 . S
C718 C717 1.382 . S
C718 C722 1.389 . S
C719 C717 1.426 . S
C719 C720 1.375 . S
C719 C723 1.532 . S
C720 H710 0.930 . S
C720 C719 1.375 . S
C720 C721 1.416 . S
C721 C720 1.416 . S
C721 C722 1.371 . S
C722 H711 0.930 . S
C722 C718 1.389 . S
C722 C721 1.371 . S
C723 H712 0.970 . S
C723 H713 0.970 . S
C723 C719 1.532 . S
C723 C724 1.499 . S
C724 C723 1.499 . S
C724 C725 1.370 . S
C724 C729 1.415 . S
C725 H714 0.930 . S
C725 C724 1.370 . S
C725 C726 1.407 . S
C726 C725 1.407 . S
C726 C727 1.365 . S
C727 H715 0.930 . S
C727 C726 1.365 . S
C727 C728 1.393 . S
C728 C727 1.393 . S
C728 C729 1.387 . S
C729 H716 0.930 . S
C729 C724 1.415 . S
C729 C728 1.387 . S
H730 C738 0.930 . S
H731 C741 0.930 . S
H732 C743 0.930 . S
H733 C744 0.970 . S
H734 C744 0.970 . S
H735 C746 0.930 . S
H736 C748 0.930 . S
H737 C750 0.930 . S
C738 H730 0.930 . S
C738 C739 1.382 . S
C738 C740 1.426 . S
C739 C738 1.382 . S
C739 C743 1.389 . S
C740 C738 1.426 . S
C740 C741 1.375 . S
C740 C744 1.532 . S
C741 H731 0.930 . S
C741 C740 1.375 . S
C741 C742 1.416 . S
C742 C741 1.416 . S
C742 C743 1.371 . S
C743 H732 0.930 . S
C743 C739 1.389 . S
C743 C742 1.371 . S
C744 H733 0.970 . S
C744 H734 0.970 . S
C744 C740 1.532 . S
C744 C745 1.499 . S
C745 C744 1.499 . S
C745 C746 1.370 . S
C745 C750 1.415 . S
C746 H735 0.930 . S
C746 C745 1.370 . S
C746 C747 1.407 . S
C747 C746 1.407 . S
C747 C748 1.365 . S
C748 H736 0.930 . S
C748 C747 1.365 . S
C748 C749 1.393 . S
C749 C748 1.393 . S
C749 C750 1.387 . S
C750 H737 0.930 . S
C750 C745 1.415 . S
C750 C749 1.387 . S
H751 C759 0.930 . S
H752 C762 0.930 . S
H753 C764 0.930 . S
H754 C765 0.970 . S
H755 C765 0.970 . S
H756 C767 0.930 . S
H757 C769 0.930 . S
H758 C771 0.930 . S
C759 H751 0.930 . S
C759 C760 1.382 . S
C759 C761 1.426 . S
C760 C759 1.382 . S
C760 C764 1.389 . S
C761 C759 1.426 . S
C761 C762 1.375 . S
C761 C765 1.532 . S
C762 H752 0.930 . S
C762 C761 1.375 . S
C762 C763 1.416 . S
C763 C762 1.416 . S
C763 C764 1.371 . S
C764 H753 0.930 . S
C764 C760 1.389 . S
C764 C763 1.371 . S
C765 H754 0.970 . S
C765 H755 0.970 . S
C765 C761 1.532 . S
C765 C766 1.499 . S
C766 C765 1.499 . S
C766 C767 1.370 . S
C766 C771 1.415 . S
C767 H756 0.930 . S
C767 C766 1.370 . S
C767 C768 1.407 . S
C768 C767 1.407 . S
C768 C769 1.365 . S
C769 H757 0.930 . S
C769 C768 1.365 . S
C769 C770 1.393 . S
C770 C769 1.393 . S
C770 C771 1.387 . S
C771 H758 0.930 . S
C771 C766 1.415 . S
C771 C770 1.387 . S
H772 C780 0.930 . S
H773 C783 0.930 . S
H774 C785 0.930 . S
H775 C786 0.970 . S
H776 C786 0.970 . S
H777 C788 0.930 . S
H778 C790 0.930 . S
H779 C792 0.930 . S
C780 H772 0.930 . S
C780 C781 1.382 . S
C780 C782 1.426 . S
C781 C780 1.382 . S
C781 C785 1.389 . S
C782 C780 1.426 . S
C782 C783 1.375 . S
C782 C786 1.532 . S
C783 H773 0.930 . S
C783 C782 1.375 . S
C783 C784 1.416 . S
C784 C783 1.416 . S
C784 C785 1.371 . S
C785 H774 0.930 . S
C785 C781 1.389 . S
C785 C784 1.371 . S
C786 H775 0.970 . S
C786 H776 0.970 . S
C786 C782 1.532 . S
C786 C787 1.499 . S
C787 C786 1.499 . S
C787 C788 1.370 . S
C787 C792 1.415 . S
C788 H777 0.930 . S
C788 C787 1.370 . S
C788 C789 1.407 . S
C789 C788 1.407 . S
C789 C790 1.365 . S
C790 H778 0.930 . S
C790 C789 1.365 . S
C790 C791 1.393 . S
C791 C790 1.393 . S
C791 C792 1.387 . S
C792 H779 0.930 . S
C792 C787 1.415 . S
C792 C791 1.387 . S
H793 C801 0.930 . S
H794 C804 0.930 . S
H795 C806 0.930 . S
H796 C807 0.970 . S
H797 C807 0.970 . S
H798 C809 0.930 . S
H799 C811 0.930 . S
H800 C813 0.930 . S
C801 H793 0.930 . S
C801 C802 1.382 . S
C801 C803 1.426 . S
C802 C801 1.382 . S
C802 C806 1.389 . S
C803 C801 1.426 . S
C803 C804 1.375 . S
C803 C807 1.532 . S
C804 H794 0.930 . S
C804 C803 1.375 . S
C804 C805 1.416 . S
C805 C804 1.416 . S
C805 C806 1.371 . S
C806 H795 0.930 . S
C806 C802 1.389 . S
C806 C805 1.371 . S
C807 H796 0.970 . S
C807 H797 0.970 . S
C807 C803 1.532 . S
C807 C808 1.499 . S
C808 C807 1.499 . S
C808 C809 1.370 . S
C808 C813 1.415 . S
C809 H798 0.930 . S
C809 C808 1.370 . S
C809 C810 1.407 . S
C810 C809 1.407 . S
C810 C811 1.365 . S
C811 H799 0.930 . S
C811 C810 1.365 . S
C811 C812 1.393 . S
C812 C811 1.393 . S
C812 C813 1.387 . S
C813 H800 0.930 . S
C813 C808 1.415 . S
C813 C812 1.387 . S
H814 C822 0.930 . S
H815 C825 0.930 . S
H816 C827 0.930 . S
H817 C828 0.970 . S
H818 C828 0.970 . S
H819 C830 0.930 . S
H820 C832 0.930 . S
H821 C834 0.930 . S
C822 H814 0.930 . S
C822 C823 1.382 . S
C822 C824 1.426 . S
C823 C822 1.382 . S
C823 C827 1.389 . S
C824 C822 1.426 . S
C824 C825 1.375 . S
C824 C828 1.532 . S
C825 H815 0.930 . S
C825 C824 1.375 . S
C825 C826 1.416 . S
C826 C825 1.416 . S
C826 C827 1.371 . S
C827 H816 0.930 . S
C827 C823 1.389 . S
C827 C826 1.371 . S
C828 H817 0.970 . S
C828 H818 0.970 . S
C828 C824 1.532 . S
C828 C829 1.499 . S
C829 C828 1.499 . S
C829 C830 1.370 . S
C829 C834 1.415 . S
C830 H819 0.930 . S
C830 C829 1.370 . S
C830 C831 1.407 . S
C831 C830 1.407 . S
C831 C832 1.365 . S
C832 H820 0.930 . S
C832 C831 1.365 . S
C832 C833 1.393 . S
C833 C832 1.393 . S
C833 C834 1.387 . S
C834 H821 0.930 . S
C834 C829 1.415 . S
C834 C833 1.387 . S
H835 C843 0.930 . S
H836 C846 0.930 . S
H837 C848 0.930 . S
H838 C849 0.970 . S
H839 C849 0.970 . S
H840 C851 0.930 . S
H841 C853 0.930 . S
H842 C855 0.930 . S
C843 H835 0.930 . S
C843 C844 1.382 . S
C843 C845 1.426 . S
C844 C843 1.382 . S
C844 C848 1.389 . S
C845 C843 1.426 . S
C845 C846 1.375 . S
C845 C849 1.532 . S
C846 H836 0.930 . S
C846 C845 1.375 . S
C846 C847 1.416 . S
C847 C846 1.416 . S
C847 C848 1.371 . S
C848 H837 0.930 . S
C848 C844 1.389 . S
C848 C847 1.371 . S
C849 H838 0.970 . S
C849 H839 0.970 . S
C849 C845 1.532 . S
C849 C850 1.499 . S
C850 C849 1.499 . S
C850 C851 1.370 . S
C850 C855 1.415 . S
C851 H840 0.930 . S
C851 C850 1.370 . S
C851 C852 1.407 . S
C852 C851 1.407 . S
C852 C853 1.365 . S
C853 H841 0.930 . S
C853 C852 1.365 . S
C853 C854 1.393 . S
C854 C853 1.393 . S
C854 C855 1.387 . S
C855 H842 0.930 . S
C855 C850 1.415 . S
C855 C854 1.387 . S
C856 C857 1.369 . S
C856 C858 1.419 . S
C856 H860 0.930 . S
C857 C856 1.369 . S
C857 C866 1.429 . S
C858 C856 1.419 . S
C858 C859 1.363 . S
C858 H861 0.929 . S
C859 C858 1.363 . S
C859 C865 1.428 . S
H860 C856 0.930 . S
H861 C858 0.929 . S
S862 N863 1.613 . S
S862 N864 1.610 . S
N863 S862 1.613 . S
N863 C866 1.350 . S
N864 S862 1.610 . S
N864 C865 1.351 . S
C865 C859 1.428 . S
C865 N864 1.351 . S
C865 C866 1.434 . S
C866 C857 1.429 . S
C866 N863 1.350 . S
C866 C865 1.434 . S
C867 C868 1.369 . S
C867 C869 1.419 . S
C867 H871 0.930 . S
C868 C867 1.369 . S
C868 C877 1.429 . S
C869 C867 1.419 . S
C869 C870 1.363 . S
C869 H872 0.929 . S
C870 C869 1.363 . S
C870 C876 1.428 . S
H871 C867 0.930 . S
H872 C869 0.929 . S
S873 N874 1.613 . S
S873 N875 1.610 . S
N874 S873 1.613 . S
N874 C877 1.350 . S
N875 S873 1.610 . S
N875 C876 1.351 . S
C876 C870 1.428 . S
C876 N875 1.351 . S
C876 C877 1.434 . S
C877 C868 1.429 . S
C877 N874 1.350 . S
C877 C876 1.434 . S
C878 C879 1.369 . S
C878 C880 1.419 . S
C878 H882 0.930 . S
C879 C878 1.369 . S
C879 C888 1.429 . S
C880 C878 1.419 . S
C880 C881 1.363 . S
C880 H883 0.929 . S
C881 C880 1.363 . S
C881 C887 1.428 . S
H882 C878 0.930 . S
H883 C880 0.929 . S
S884 N885 1.613 . S
S884 N886 1.610 . S
N885 S884 1.613 . S
N885 C888 1.350 . S
N886 S884 1.610 . S
N886 C887 1.351 . S
C887 C881 1.428 . S
C887 N886 1.351 . S
C887 C888 1.434 . S
C888 C879 1.429 . S
C888 N885 1.350 . S
C888 C887 1.434 . S
C889 C890 1.369 . S
C889 C891 1.419 . S
C889 H893 0.930 . S
C890 C889 1.369 . S
C890 C899 1.429 . S
C891 C889 1.419 . S
C891 C892 1.363 . S
C891 H894 0.929 . S
C892 C891 1.363 . S
C892 C898 1.428 . S
H893 C889 0.930 . S
H894 C891 0.929 . S
S895 N896 1.613 . S
S895 N897 1.610 . S
N896 S895 1.613 . S
N896 C899 1.350 . S
N897 S895 1.610 . S
N897 C898 1.351 . S
C898 C892 1.428 . S
C898 N897 1.351 . S
C898 C899 1.434 . S
C899 C890 1.429 . S
C899 N896 1.350 . S
C899 C898 1.434 . S
C900 C901 1.369 . S
C900 C902 1.419 . S
C900 H904 0.930 . S
C901 C900 1.369 . S
C901 C910 1.429 . S
C902 C900 1.419 . S
C902 C903 1.363 . S
C902 H905 0.929 . S
C903 C902 1.363 . S
C903 C909 1.428 . S
H904 C900 0.930 . S
H905 C902 0.929 . S
S906 N907 1.613 . S
S906 N908 1.610 . S
N907 S906 1.613 . S
N907 C910 1.350 . S
N908 S906 1.610 . S
N908 C909 1.351 . S
C909 C903 1.428 . S
C909 N908 1.351 . S
C909 C910 1.434 . S
C910 C901 1.429 . S
C910 N907 1.350 . S
C910 C909 1.434 . S
C911 C912 1.369 . S
C911 C913 1.419 . S
C911 H915 0.930 . S
C912 C911 1.369 . S
C912 C921 1.429 . S
C913 C911 1.419 . S
C913 C914 1.363 . S
C913 H916 0.929 . S
C914 C913 1.363 . S
C914 C920 1.428 . S
H915 C911 0.930 . S
H916 C913 0.929 . S
S917 N918 1.613 . S
S917 N919 1.610 . S
N918 S917 1.613 . S
N918 C921 1.350 . S
N919 S917 1.610 . S
N919 C920 1.351 . S
C920 C914 1.428 . S
C920 N919 1.351 . S
C920 C921 1.434 . S
C921 C912 1.429 . S
C921 N918 1.350 . S
C921 C920 1.434 . S
C922 C923 1.369 . S
C922 C924 1.419 . S
C922 H926 0.930 . S
C923 C922 1.369 . S
C923 C932 1.429 . S
C924 C922 1.419 . S
C924 C925 1.363 . S
C924 H927 0.929 . S
C925 C924 1.363 . S
C925 C931 1.428 . S
H926 C922 0.930 . S
H927 C924 0.929 . S
S928 N929 1.613 . S
S928 N930 1.610 . S
N929 S928 1.613 . S
N929 C932 1.350 . S
N930 S928 1.610 . S
N930 C931 1.351 . S
C931 C925 1.428 . S
C931 N930 1.351 . S
C931 C932 1.434 . S
C932 C923 1.429 . S
C932 N929 1.350 . S
C932 C931 1.434 . S
C933 C934 1.369 . S
C933 C935 1.419 . S
C933 H937 0.930 . S
C934 C933 1.369 . S
C934 C943 1.429 . S
C935 C933 1.419 . S
C935 C936 1.363 . S
C935 H938 0.929 . S
C936 C935 1.363 . S
C936 C942 1.428 . S
H937 C933 0.930 . S
H938 C935 0.929 . S
S939 N940 1.613 . S
S939 N941 1.610 . S
N940 S939 1.613 . S
N940 C943 1.350 . S
N941 S939 1.610 . S
N941 C942 1.351 . S
C942 C936 1.428 . S
C942 N941 1.351 . S
C942 C943 1.434 . S
C943 C934 1.429 . S
C943 N940 1.350 . S
C943 C942 1.434 . S
C944 C945 1.369 . S
C944 C946 1.419 . S
C944 H948 0.930 . S
C945 C944 1.369 . S
C945 C954 1.429 . S
C946 C944 1.419 . S
C946 C947 1.363 . S
C946 H949 0.929 . S
C947 C946 1.363 . S
C947 C953 1.428 . S
H948 C944 0.930 . S
H949 C946 0.929 . S
S950 N951 1.613 . S
S950 N952 1.610 . S
N951 S950 1.613 . S
N951 C954 1.350 . S
N952 S950 1.610 . S
N952 C953 1.351 . S
C953 C947 1.428 . S
C953 N952 1.351 . S
C953 C954 1.434 . S
C954 C945 1.429 . S
C954 N951 1.350 . S
C954 C953 1.434 . S
C955 C956 1.369 . S
C955 C957 1.419 . S
C955 H959 0.930 . S
C956 C955 1.369 . S
C956 C965 1.429 . S
C957 C955 1.419 . S
C957 C958 1.363 . S
C957 H960 0.929 . S
C958 C957 1.363 . S
C958 C964 1.428 . S
H959 C955 0.930 . S
H960 C957 0.929 . S
S961 N962 1.613 . S
S961 N963 1.610 . S
N962 S961 1.613 . S
N962 C965 1.350 . S
N963 S961 1.610 . S
N963 C964 1.351 . S
C964 C958 1.428 . S
C964 N963 1.351 . S
C964 C965 1.434 . S
C965 C956 1.429 . S
C965 N962 1.350 . S
C965 C964 1.434 . S
C966 C967 1.369 . S
C966 C968 1.419 . S
C966 H970 0.930 . S
C967 C966 1.369 . S
C967 C976 1.429 . S
C968 C966 1.419 . S
C968 C969 1.363 1_655 S
C968 H971 0.929 1_655 S
C969 C968 1.363 1_455 S
C969 C975 1.428 1_455 S
H970 C966 0.930 . S
H971 C968 0.929 1_455 S
S972 N973 1.613 . S
S972 N974 1.610 . S
N973 S972 1.613 . S
N973 C976 1.350 . S
N974 S972 1.610 . S
N974 C975 1.351 . S
C975 C969 1.428 1_655 S
C975 N974 1.351 . S
C975 C976 1.434 . S
C976 C967 1.429 . S
C976 N973 1.350 . S
C976 C975 1.434 . S
C977 C978 1.369 . S
C977 C979 1.419 . S
C977 H981 0.930 . S
C978 C977 1.369 . S
C978 C987 1.429 . S
C979 C977 1.419 . S
C979 C980 1.363 . S
C979 H982 0.929 . S
C980 C979 1.363 . S
C980 C986 1.428 . S
H981 C977 0.930 . S
H982 C979 0.929 . S
S983 N984 1.613 . S
S983 N985 1.610 . S
N984 S983 1.613 . S
N984 C987 1.350 . S
N985 S983 1.610 . S
N985 C986 1.351 . S
C986 C980 1.428 . S
C986 N985 1.351 . S
C986 C987 1.434 . S
C987 C978 1.429 . S
C987 N984 1.350 . S
C987 C986 1.434 . S
C988 C989 1.369 . S
C988 C990 1.419 . S
C988 H992 0.930 . S
C989 C988 1.369 . S
C989 C998 1.429 . S
C990 C988 1.419 . S
C990 C991 1.363 . S
C990 H993 0.929 . S
C991 C990 1.363 . S
C991 C997 1.428 . S
H992 C988 0.930 . S
H993 C990 0.929 . S
S994 N995 1.613 . S
S994 N996 1.610 . S
N995 S994 1.613 . S
N995 C998 1.350 . S
N996 S994 1.610 . S
N996 C997 1.351 . S
C997 C991 1.428 . S
C997 N996 1.351 . S
C997 C998 1.434 . S
C998 C989 1.429 . S
C998 N995 1.350 . S
C998 C997 1.434 . S
C999 C1000 1.369 . S
C999 C1001 1.419 . S
C999 H1003 0.930 . S
C1000 C999 1.369 . S
C1000 C1009 1.429 . S
C1001 C999 1.419 . S
C1001 C1002 1.363 . S
C1001 H1004 0.929 . S
C1002 C1001 1.363 . S
C1002 C1008 1.428 . S
H1003 C999 0.930 . S
H1004 C1001 0.929 . S
S1005 N1006 1.613 . S
S1005 N1007 1.610 . S
N1006 S1005 1.613 . S
N1006 C1009 1.350 . S
N1007 S1005 1.610 . S
N1007 C1008 1.351 . S
C1008 C1002 1.428 . S
C1008 N1007 1.351 . S
C1008 C1009 1.434 . S
C1009 C1000 1.429 . S
C1009 N1006 1.350 . S
C1009 C1008 1.434 . S
C1010 C1011 1.369 . S
C1010 C1012 1.419 . S
C1010 H1014 0.930 . S
C1011 C1010 1.369 . S
C1011 C1020 1.429 . S
C1012 C1010 1.419 . S
C1012 C1013 1.363 . S
C1012 H1015 0.929 . S
C1013 C1012 1.363 . S
C1013 C1019 1.428 . S
H1014 C1010 0.930 . S
H1015 C1012 0.929 . S
S1016 N1017 1.613 . S
S1016 N1018 1.610 1_655 S
N1017 S1016 1.613 . S
N1017 C1020 1.350 . S
N1018 S1016 1.610 1_455 S
N1018 C1019 1.351 1_455 S
C1019 C1013 1.428 . S
C1019 N1018 1.351 1_655 S
C1019 C1020 1.434 . S
C1020 C1011 1.429 . S
C1020 N1017 1.350 . S
C1020 C1019 1.434 . S
C1021 C1022 1.369 . S
C1021 C1023 1.419 . S
C1021 H1025 0.930 . S
C1022 C1021 1.369 . S
C1022 C1031 1.429 . S
C1023 C1021 1.419 . S
C1023 C1024 1.363 . S
C1023 H1026 0.929 . S
C1024 C1023 1.363 . S
C1024 C1030 1.428 . S
H1025 C1021 0.930 . S
H1026 C1023 0.929 . S
S1027 N1028 1.613 . S
S1027 N1029 1.610 . S
N1028 S1027 1.613 . S
N1028 C1031 1.350 . S
N1029 S1027 1.610 . S
N1029 C1030 1.351 . S
C1030 C1024 1.428 . S
C1030 N1029 1.351 . S
C1030 C1031 1.434 . S
C1031 C1022 1.429 . S
C1031 N1028 1.350 . S
C1031 C1030 1.434 . S
C1032 C1033 1.369 . S
C1032 C1034 1.419 . S
C1032 H1036 0.930 . S
C1033 C1032 1.369 . S
C1033 C1042 1.429 . S
C1034 C1032 1.419 . S
C1034 C1035 1.363 . S
C1034 H1037 0.929 . S
C1035 C1034 1.363 . S
C1035 C1041 1.428 . S
H1036 C1032 0.930 . S
H1037 C1034 0.929 . S
S1038 N1039 1.613 . S
S1038 N1040 1.610 . S
N1039 S1038 1.613 . S
N1039 C1042 1.350 . S
N1040 S1038 1.610 . S
N1040 C1041 1.351 . S
C1041 C1035 1.428 . S
C1041 N1040 1.351 . S
C1041 C1042 1.434 . S
C1042 C1033 1.429 . S
C1042 N1039 1.350 . S
C1042 C1041 1.434 . S
C1043 C1044 1.369 . S
C1043 C1045 1.419 . S
C1043 H1047 0.930 . S
C1044 C1043 1.369 . S
C1044 C1053 1.429 . S
C1045 C1043 1.419 . S
C1045 C1046 1.363 . S
C1045 H1048 0.929 . S
C1046 C1045 1.363 . S
C1046 C1052 1.428 . S
H1047 C1043 0.930 . S
H1048 C1045 0.929 . S
S1049 N1050 1.613 . S
S1049 N1051 1.610 . S
N1050 S1049 1.613 . S
N1050 C1053 1.350 . S
N1051 S1049 1.610 . S
N1051 C1052 1.351 . S
C1052 C1046 1.428 . S
C1052 N1051 1.351 . S
C1052 C1053 1.434 . S
C1053 C1044 1.429 . S
C1053 N1050 1.350 . S
C1053 C1052 1.434 . S
C1054 C1055 1.369 . S
C1054 C1056 1.419 . S
C1054 H1058 0.930 . S
C1055 C1054 1.369 . S
C1055 C1064 1.429 . S
C1056 C1054 1.419 . S
C1056 C1057 1.363 . S
C1056 H1059 0.929 . S
C1057 C1056 1.363 . S
C1057 C1063 1.428 . S
H1058 C1054 0.930 . S
H1059 C1056 0.929 . S
S1060 N1061 1.613 . S
S1060 N1062 1.610 . S
N1061 S1060 1.613 . S
N1061 C1064 1.350 . S
N1062 S1060 1.610 . S
N1062 C1063 1.351 . S
C1063 C1057 1.428 . S
C1063 N1062 1.351 . S
C1063 C1064 1.434 . S
C1064 C1055 1.429 . S
C1064 N1061 1.350 . S
C1064 C1063 1.434 . S
C1065 C1066 1.369 . S
C1065 C1067 1.419 . S
C1065 H1069 0.930 . S
C1066 C1065 1.369 . S
C1066 C1075 1.429 . S
C1067 C1065 1.419 . S
C1067 C1068 1.363 . S
C1067 H1070 0.929 . S
C1068 C1067 1.363 . S
C1068 C1074 1.428 . S
H1069 C1065 0.930 . S
H1070 C1067 0.929 . S
S1071 N1072 1.613 . S
S1071 N1073 1.610 . S
N1072 S1071 1.613 . S
N1072 C1075 1.350 . S
N1073 S1071 1.610 . S
N1073 C1074 1.351 . S
C1074 C1068 1.428 . S
C1074 N1073 1.351 . S
C1074 C1075 1.434 . S
C1075 C1066 1.429 . S
C1075 N1072 1.350 . S
C1075 C1074 1.434 . S
C1076 C1077 1.369 . S
C1076 C1078 1.419 . S
C1076 H1080 0.930 . S
C1077 C1076 1.369 . S
C1077 C1086 1.429 . S
C1078 C1076 1.419 . S
C1078 C1079 1.363 . S
C1078 H1081 0.929 . S
C1079 C1078 1.363 . S
C1079 C1085 1.428 . S
H1080 C1076 0.930 . S
H1081 C1078 0.929 . S
S1082 N1083 1.613 . S
S1082 N1084 1.610 . S
N1083 S1082 1.613 . S
N1083 C1086 1.350 . S
N1084 S1082 1.610 . S
N1084 C1085 1.351 . S
C1085 C1079 1.428 . S
C1085 N1084 1.351 . S
C1085 C1086 1.434 . S
C1086 C1077 1.429 . S
C1086 N1083 1.350 . S
C1086 C1085 1.434 . S
C1087 C1088 1.369 . S
C1087 C1089 1.419 . S
C1087 H1091 0.930 . S
C1088 C1087 1.369 . S
C1088 C1097 1.429 . S
C1089 C1087 1.419 . S
C1089 C1090 1.363 . S
C1089 H1092 0.929 . S
C1090 C1089 1.363 . S
C1090 C1096 1.428 . S
H1091 C1087 0.930 . S
H1092 C1089 0.929 . S
S1093 N1094 1.613 . S
S1093 N1095 1.610 . S
N1094 S1093 1.613 . S
N1094 C1097 1.350 . S
N1095 S1093 1.610 . S
N1095 C1096 1.351 . S
C1096 C1090 1.428 . S
C1096 N1095 1.351 . S
C1096 C1097 1.434 . S
C1097 C1088 1.429 . S
C1097 N1094 1.350 . S
C1097 C1096 1.434 . S
C1098 C1099 1.369 . S
C1098 C1100 1.419 . S
C1098 H1102 0.930 . S
C1099 C1098 1.369 . S
C1099 C1108 1.429 . S
C1100 C1098 1.419 . S
C1100 C1101 1.363 . S
C1100 H1103 0.929 . S
C1101 C1100 1.363 . S
C1101 C1107 1.428 . S
H1102 C1098 0.930 . S
H1103 C1100 0.929 . S
S1104 N1105 1.613 . S
S1104 N1106 1.610 . S
N1105 S1104 1.613 . S
N1105 C1108 1.350 . S
N1106 S1104 1.610 . S
N1106 C1107 1.351 . S
C1107 C1101 1.428 . S
C1107 N1106 1.351 . S
C1107 C1108 1.434 . S
C1108 C1099 1.429 . S
C1108 N1105 1.350 . S
C1108 C1107 1.434 . S
C1109 C1110 1.369 . S
C1109 C1111 1.419 . S
C1109 H1113 0.930 . S
C1110 C1109 1.369 . S
C1110 C1119 1.429 . S
C1111 C1109 1.419 . S
C1111 C1112 1.363 . S
C1111 H1114 0.929 . S
C1112 C1111 1.363 . S
C1112 C1118 1.428 . S
H1113 C1109 0.930 . S
H1114 C1111 0.929 . S
S1115 N1116 1.613 . S
S1115 N1117 1.610 . S
N1116 S1115 1.613 . S
N1116 C1119 1.350 . S
N1117 S1115 1.610 . S
N1117 C1118 1.351 . S
C1118 C1112 1.428 . S
C1118 N1117 1.351 . S
C1118 C1119 1.434 . S
C1119 C1110 1.429 . S
C1119 N1116 1.350 . S
C1119 C1118 1.434 . S
C1120 C1121 1.369 . S
C1120 C1122 1.419 . S
C1120 H1124 0.930 . S
C1121 C1120 1.369 . S
C1121 C1130 1.429 . S
C1122 C1120 1.419 . S
C1122 C1123 1.363 . S
C1122 H1125 0.929 . S
C1123 C1122 1.363 . S
C1123 C1129 1.428 . S
H1124 C1120 0.930 . S
H1125 C1122 0.929 . S
S1126 N1127 1.613 . S
S1126 N1128 1.610 . S
N1127 S1126 1.613 . S
N1127 C1130 1.350 . S
N1128 S1126 1.610 . S
N1128 C1129 1.351 . S
C1129 C1123 1.428 . S
C1129 N1128 1.351 . S
C1129 C1130 1.434 . S
C1130 C1121 1.429 . S
C1130 N1127 1.350 . S
C1130 C1129 1.434 . S
C1131 C1132 1.369 . S
C1131 C1133 1.419 . S
C1131 H1135 0.930 . S
C1132 C1131 1.369 . S
C1132 C1141 1.429 . S
C1133 C1131 1.419 . S
C1133 C1134 1.363 . S
C1133 H1136 0.929 . S
C1134 C1133 1.363 . S
C1134 C1140 1.428 . S
H1135 C1131 0.930 . S
H1136 C1133 0.929 . S
S1137 N1138 1.613 . S
S1137 N1139 1.610 . S
N1138 S1137 1.613 . S
N1138 C1141 1.350 . S
N1139 S1137 1.610 . S
N1139 C1140 1.351 . S
C1140 C1134 1.428 . S
C1140 N1139 1.351 . S
C1140 C1141 1.434 . S
C1141 C1132 1.429 . S
C1141 N1138 1.350 . S
C1141 C1140 1.434 . S
C1142 C1143 1.369 . S
C1142 C1144 1.419 . S
C1142 H1146 0.930 . S
C1143 C1142 1.369 . S
C1143 C1152 1.429 . S
C1144 C1142 1.419 . S
C1144 C1145 1.363 . S
C1144 H1147 0.929 . S
C1145 C1144 1.363 . S
C1145 C1151 1.428 . S
H1146 C1142 0.930 . S
H1147 C1144 0.929 . S
S1148 N1149 1.613 . S
S1148 N1150 1.610 . S
N1149 S1148 1.613 . S
N1149 C1152 1.350 . S
N1150 S1148 1.610 . S
N1150 C1151 1.351 . S
C1151 C1145 1.428 . S
C1151 N1150 1.351 . S
C1151 C1152 1.434 . S
C1152 C1143 1.429 . S
C1152 N1149 1.350 . S
C1152 C1151 1.434 . S
C1153 C1154 1.369 . S
C1153 C1155 1.419 . S
C1153 H1157 0.930 . S
C1154 C1153 1.369 . S
C1154 C1163 1.429 . S
C1155 C1153 1.419 . S
C1155 C1156 1.363 . S
C1155 H1158 0.929 . S
C1156 C1155 1.363 . S
C1156 C1162 1.428 . S
H1157 C1153 0.930 . S
H1158 C1155 0.929 . S
S1159 N1160 1.613 . S
S1159 N1161 1.610 . S
N1160 S1159 1.613 . S
N1160 C1163 1.350 . S
N1161 S1159 1.610 . S
N1161 C1162 1.351 . S
C1162 C1156 1.428 . S
C1162 N1161 1.351 . S
C1162 C1163 1.434 . S
C1163 C1154 1.429 . S
C1163 N1160 1.350 . S
C1163 C1162 1.434 . S
C1164 C1165 1.369 . S
C1164 C1166 1.419 . S
C1164 H1168 0.930 . S
C1165 C1164 1.369 . S
C1165 C1174 1.429 . S
C1166 C1164 1.419 . S
C1166 C1167 1.363 . S
C1166 H1169 0.929 . S
C1167 C1166 1.363 . S
C1167 C1173 1.428 . S
H1168 C1164 0.930 . S
H1169 C1166 0.929 . S
S1170 N1171 1.613 . S
S1170 N1172 1.610 . S
N1171 S1170 1.613 . S
N1171 C1174 1.350 . S
N1172 S1170 1.610 . S
N1172 C1173 1.351 . S
C1173 C1167 1.428 . S
C1173 N1172 1.351 . S
C1173 C1174 1.434 . S
C1174 C1165 1.429 . S
C1174 N1171 1.350 . S
C1174 C1173 1.434 . S
C1175 C1176 1.369 . S
C1175 C1177 1.419 . S
C1175 H1179 0.930 . S
C1176 C1175 1.369 . S
C1176 C1185 1.429 . S
C1177 C1175 1.419 . S
C1177 C1178 1.363 . S
C1177 H1180 0.929 . S
C1178 C1177 1.363 . S
C1178 C1184 1.428 . S
H1179 C1175 0.930 . S
H1180 C1177 0.929 . S
S1181 N1182 1.613 . S
S1181 N1183 1.610 . S
N1182 S1181 1.613 . S
N1182 C1185 1.350 . S
N1183 S1181 1.610 . S
N1183 C1184 1.351 . S
C1184 C1178 1.428 . S
C1184 N1183 1.351 . S
C1184 C1185 1.434 . S
C1185 C1176 1.429 . S
C1185 N1182 1.350 . S
C1185 C1184 1.434 . S
C1186 C1187 1.369 . S
C1186 C1188 1.419 . S
C1186 H1190 0.930 . S
C1187 C1186 1.369 . S
C1187 C1196 1.429 . S
C1188 C1186 1.419 . S
C1188 C1189 1.363 . S
C1188 H1191 0.929 . S
C1189 C1188 1.363 . S
C1189 C1195 1.428 . S
H1190 C1186 0.930 . S
H1191 C1188 0.929 . S
S1192 N1193 1.613 . S
S1192 N1194 1.610 . S
N1193 S1192 1.613 . S
N1193 C1196 1.350 . S
N1194 S1192 1.610 . S
N1194 C1195 1.351 . S
C1195 C1189 1.428 . S
C1195 N1194 1.351 . S
C1195 C1196 1.434 . S
C1196 C1187 1.429 . S
C1196 N1193 1.350 . S
C1196 C1195 1.434 . S
C1197 C1198 1.369 . S
C1197 C1199 1.419 . S
C1197 H1201 0.930 . S
C1198 C1197 1.369 . S
C1198 C1207 1.429 . S
C1199 C1197 1.419 . S
C1199 C1200 1.363 . S
C1199 H1202 0.929 . S
C1200 C1199 1.363 . S
C1200 C1206 1.428 . S
H1201 C1197 0.930 . S
H1202 C1199 0.929 . S
S1203 N1204 1.613 . S
S1203 N1205 1.610 . S
N1204 S1203 1.613 . S
N1204 C1207 1.350 . S
N1205 S1203 1.610 . S
N1205 C1206 1.351 . S
C1206 C1200 1.428 . S
C1206 N1205 1.351 . S
C1206 C1207 1.434 . S
C1207 C1198 1.429 . S
C1207 N1204 1.350 . S
C1207 C1206 1.434 . S
C1208 C1209 1.369 . S
C1208 C1210 1.419 . S
C1208 H1212 0.930 . S
C1209 C1208 1.369 . S
C1209 C1218 1.429 . S
C1210 C1208 1.419 . S
C1210 C1211 1.363 . S
C1210 H1213 0.929 . S
C1211 C1210 1.363 . S
C1211 C1217 1.428 . S
H1212 C1208 0.930 . S
H1213 C1210 0.929 . S
S1214 N1215 1.613 . S
S1214 N1216 1.610 . S
N1215 S1214 1.613 . S
N1215 C1218 1.350 . S
N1216 S1214 1.610 . S
N1216 C1217 1.351 . S
C1217 C1211 1.428 . S
C1217 N1216 1.351 . S
C1217 C1218 1.434 . S
C1218 C1209 1.429 . S
C1218 N1215 1.350 . S
C1218 C1217 1.434 . S
C1219 C1220 1.369 . S
C1219 C1221 1.419 . S
C1219 H1223 0.930 . S
C1220 C1219 1.369 . S
C1220 C1229 1.429 . S
C1221 C1219 1.419 . S
C1221 C1222 1.363 . S
C1221 H1224 0.929 . S
C1222 C1221 1.363 . S
C1222 C1228 1.428 . S
H1223 C1219 0.930 . S
H1224 C1221 0.929 . S
S1225 N1226 1.613 . S
S1225 N1227 1.610 . S
N1226 S1225 1.613 . S
N1226 C1229 1.350 . S
N1227 S1225 1.610 . S
N1227 C1228 1.351 . S
C1228 C1222 1.428 . S
C1228 N1227 1.351 . S
C1228 C1229 1.434 . S
C1229 C1220 1.429 . S
C1229 N1226 1.350 . S
C1229 C1228 1.434 . S
C1230 C1231 1.369 . S
C1230 C1232 1.419 1_655 S
C1230 H1234 0.930 . S
C1231 C1230 1.369 . S
C1231 C1240 1.429 . S
C1232 C1230 1.419 1_455 S
C1232 C1233 1.363 . S
C1232 H1235 0.929 . S
C1233 C1232 1.363 . S
C1233 C1239 1.428 1_455 S
H1234 C1230 0.930 . S
H1235 C1232 0.929 . S
S1236 N1237 1.613 . S
S1236 N1238 1.610 . S
N1237 S1236 1.613 . S
N1237 C1240 1.350 . S
N1238 S1236 1.610 . S
N1238 C1239 1.351 . S
C1239 C1233 1.428 1_655 S
C1239 N1238 1.351 . S
C1239 C1240 1.434 . S
C1240 C1231 1.429 . S
C1240 N1237 1.350 . S
C1240 C1239 1.434 . S
C1241 C1242 1.369 . S
C1241 C1243 1.419 . S
C1241 H1245 0.930 . S
C1242 C1241 1.369 . S
C1242 C1251 1.429 . S
C1243 C1241 1.419 . S
C1243 C1244 1.363 . S
C1243 H1246 0.929 . S
C1244 C1243 1.363 . S
C1244 C1250 1.428 . S
H1245 C1241 0.930 . S
H1246 C1243 0.929 . S
S1247 N1248 1.613 . S
S1247 N1249 1.610 . S
N1248 S1247 1.613 . S
N1248 C1251 1.350 . S
N1249 S1247 1.610 . S
N1249 C1250 1.351 . S
C1250 C1244 1.428 . S
C1250 N1249 1.351 . S
C1250 C1251 1.434 . S
C1251 C1242 1.429 . S
C1251 N1248 1.350 . S
C1251 C1250 1.434 . S
C1252 C1253 1.369 . S
C1252 C1254 1.419 . S
C1252 H1256 0.930 . S
C1253 C1252 1.369 . S
C1253 C1262 1.429 . S
C1254 C1252 1.419 . S
C1254 C1255 1.363 . S
C1254 H1257 0.929 . S
C1255 C1254 1.363 . S
C1255 C1261 1.428 . S
H1256 C1252 0.930 . S
H1257 C1254 0.929 . S
S1258 N1259 1.613 . S
S1258 N1260 1.610 . S
N1259 S1258 1.613 . S
N1259 C1262 1.350 . S
N1260 S1258 1.610 . S
N1260 C1261 1.351 . S
C1261 C1255 1.428 . S
C1261 N1260 1.351 . S
C1261 C1262 1.434 . S
C1262 C1253 1.429 . S
C1262 N1259 1.350 . S
C1262 C1261 1.434 . S
C1263 C1264 1.369 . S
C1263 C1265 1.419 . S
C1263 H1267 0.930 . S
C1264 C1263 1.369 . S
C1264 C1273 1.429 . S
C1265 C1263 1.419 . S
C1265 C1266 1.363 . S
C1265 H1268 0.929 . S
C1266 C1265 1.363 . S
C1266 C1272 1.428 . S
H1267 C1263 0.930 . S
H1268 C1265 0.929 . S
S1269 N1270 1.613 . S
S1269 N1271 1.610 . S
N1270 S1269 1.613 . S
N1270 C1273 1.350 . S
N1271 S1269 1.610 . S
N1271 C1272 1.351 . S
C1272 C1266 1.428 . S
C1272 N1271 1.351 . S
C1272 C1273 1.434 . S
C1273 C1264 1.429 . S
C1273 N1270 1.350 . S
C1273 C1272 1.434 . S
C1274 C1275 1.369 . S
C1274 C1276 1.419 . S
C1274 H1278 0.930 . S
C1275 C1274 1.369 . S
C1275 C1284 1.429 . S
C1276 C1274 1.419 . S
C1276 C1277 1.363 . S
C1276 H1279 0.929 . S
C1277 C1276 1.363 . S
C1277 C1283 1.428 . S
H1278 C1274 0.930 . S
H1279 C1276 0.929 . S
S1280 N1281 1.613 . S
S1280 N1282 1.610 1_655 S
N1281 S1280 1.613 . S
N1281 C1284 1.350 . S
N1282 S1280 1.610 1_455 S
N1282 C1283 1.351 1_455 S
C1283 C1277 1.428 . S
C1283 N1282 1.351 1_655 S
C1283 C1284 1.434 . S
C1284 C1275 1.429 . S
C1284 N1281 1.350 . S
C1284 C1283 1.434 . S
C1285 C1286 1.369 . S
C1285 C1287 1.419 . S
C1285 H1289 0.930 . S
C1286 C1285 1.369 . S
C1286 C1295 1.429 . S
C1287 C1285 1.419 . S
C1287 C1288 1.363 . S
C1287 H1290 0.929 . S
C1288 C1287 1.363 . S
C1288 C1294 1.428 . S
H1289 C1285 0.930 . S
H1290 C1287 0.929 . S
S1291 N1292 1.613 . S
S1291 N1293 1.610 . S
N1292 S1291 1.613 . S
N1292 C1295 1.350 . S
N1293 S1291 1.610 . S
N1293 C1294 1.351 . S
C1294 C1288 1.428 . S
C1294 N1293 1.351 . S
C1294 C1295 1.434 . S
C1295 C1286 1.429 . S
C1295 N1292 1.350 . S
C1295 C1294 1.434 . S
C1296 C1297 1.369 . S
C1296 C1298 1.419 . S
C1296 H1300 0.930 . S
C1297 C1296 1.369 . S
C1297 C1306 1.429 . S
C1298 C1296 1.419 . S
C1298 C1299 1.363 . S
C1298 H1301 0.929 . S
C1299 C1298 1.363 . S
C1299 C1305 1.428 . S
H1300 C1296 0.930 . S
H1301 C1298 0.929 . S
S1302 N1303 1.613 . S
S1302 N1304 1.610 . S
N1303 S1302 1.613 . S
N1303 C1306 1.350 . S
N1304 S1302 1.610 . S
N1304 C1305 1.351 . S
C1305 C1299 1.428 . S
C1305 N1304 1.351 . S
C1305 C1306 1.434 . S
C1306 C1297 1.429 . S
C1306 N1303 1.350 . S
C1306 C1305 1.434 . S
C1307 C1308 1.369 . S
C1307 C1309 1.419 . S
C1307 H1311 0.930 . S
C1308 C1307 1.369 . S
C1308 C1317 1.429 . S
C1309 C1307 1.419 . S
C1309 C1310 1.363 . S
C1309 H1312 0.929 . S
C1310 C1309 1.363 . S
C1310 C1316 1.428 . S
H1311 C1307 0.930 . S
H1312 C1309 0.929 . S
S1313 N1314 1.613 . S
S1313 N1315 1.610 . S
N1314 S1313 1.613 . S
N1314 C1317 1.350 . S
N1315 S1313 1.610 . S
N1315 C1316 1.351 . S
C1316 C1310 1.428 . S
C1316 N1315 1.351 . S
C1316 C1317 1.434 . S
C1317 C1308 1.429 . S
C1317 N1314 1.350 . S
C1317 C1316 1.434 . S
C1318 C1319 1.369 . S
C1318 C1320 1.419 . S
C1318 H1322 0.930 . S
C1319 C1318 1.369 . S
C1319 C1328 1.429 . S
C1320 C1318 1.419 . S
C1320 C1321 1.363 . S
C1320 H1323 0.929 . S
C1321 C1320 1.363 . S
C1321 C1327 1.428 . S
H1322 C1318 0.930 . S
H1323 C1320 0.929 . S
S1324 N1325 1.613 . S
S1324 N1326 1.610 . S
N1325 S1324 1.613 . S
N1325 C1328 1.350 . S
N1326 S1324 1.610 . S
N1326 C1327 1.351 . S
C1327 C1321 1.428 . S
C1327 N1326 1.351 . S
C1327 C1328 1.434 . S
C1328 C1319 1.429 . S
C1328 N1325 1.350 . S
C1328 C1327 1.434 . S
C1329 C1330 1.369 . S
C1329 C1331 1.419 . S
C1329 H1333 0.930 . S
C1330 C1329 1.369 . S
C1330 C1339 1.429 . S
C1331 C1329 1.419 . S
C1331 C1332 1.363 . S
C1331 H1334 0.929 . S
C1332 C1331 1.363 . S
C1332 C1338 1.428 . S
H1333 C1329 0.930 . S
H1334 C1331 0.929 . S
S1335 N1336 1.613 . S
S1335 N1337 1.610 . S
N1336 S1335 1.613 . S
N1336 C1339 1.350 . S
N1337 S1335 1.610 . S
N1337 C1338 1.351 . S
C1338 C1332 1.428 . S
C1338 N1337 1.351 . S
C1338 C1339 1.434 . S
C1339 C1330 1.429 . S
C1339 N1336 1.350 . S
C1339 C1338 1.434 . S
C1340 C1341 1.369 . S
C1340 C1342 1.419 . S
C1340 H1344 0.930 . S
C1341 C1340 1.369 . S
C1341 C1350 1.429 . S
C1342 C1340 1.419 . S
C1342 C1343 1.363 . S
C1342 H1345 0.929 . S
C1343 C1342 1.363 . S
C1343 C1349 1.428 . S
H1344 C1340 0.930 . S
H1345 C1342 0.929 . S
S1346 N1347 1.613 . S
S1346 N1348 1.610 . S
N1347 S1346 1.613 . S
N1347 C1350 1.350 . S
N1348 S1346 1.610 . S
N1348 C1349 1.351 . S
C1349 C1343 1.428 . S
C1349 N1348 1.351 . S
C1349 C1350 1.434 . S
C1350 C1341 1.429 . S
C1350 N1347 1.350 . S
C1350 C1349 1.434 . S
C1351 C1352 1.369 . S
C1351 C1353 1.419 . S
C1351 H1355 0.930 . S
C1352 C1351 1.369 . S
C1352 C1361 1.429 . S
C1353 C1351 1.419 . S
C1353 C1354 1.363 . S
C1353 H1356 0.929 . S
C1354 C1353 1.363 . S
C1354 C1360 1.428 . S
H1355 C1351 0.930 . S
H1356 C1353 0.929 . S
S1357 N1358 1.613 . S
S1357 N1359 1.610 . S
N1358 S1357 1.613 . S
N1358 C1361 1.350 . S
N1359 S1357 1.610 . S
N1359 C1360 1.351 . S
C1360 C1354 1.428 . S
C1360 N1359 1.351 . S
C1360 C1361 1.434 . S
C1361 C1352 1.429 . S
C1361 N1358 1.350 . S
C1361 C1360 1.434 . S
C1362 C1363 1.369 . S
C1362 C1364 1.419 . S
C1362 H1366 0.930 . S
C1363 C1362 1.369 . S
C1363 C1372 1.429 . S
C1364 C1362 1.419 . S
C1364 C1365 1.363 . S
C1364 H1367 0.929 . S
C1365 C1364 1.363 . S
C1365 C1371 1.428 . S
H1366 C1362 0.930 . S
H1367 C1364 0.929 . S
S1368 N1369 1.613 . S
S1368 N1370 1.610 . S
N1369 S1368 1.613 . S
N1369 C1372 1.350 . S
N1370 S1368 1.610 . S
N1370 C1371 1.351 . S
C1371 C1365 1.428 . S
C1371 N1370 1.351 . S
C1371 C1372 1.434 . S
C1372 C1363 1.429 . S
C1372 N1369 1.350 . S
C1372 C1371 1.434 . S
C1373 C1374 1.369 . S
C1373 C1375 1.419 . S
C1373 H1377 0.930 . S
C1374 C1373 1.369 . S
C1374 C1383 1.429 . S
C1375 C1373 1.419 . S
C1375 C1376 1.363 . S
C1375 H1378 0.929 . S
C1376 C1375 1.363 . S
C1376 C1382 1.428 . S
H1377 C1373 0.930 . S
H1378 C1375 0.929 . S
S1379 N1380 1.613 . S
S1379 N1381 1.610 . S
N1380 S1379 1.613 . S
N1380 C1383 1.350 . S
N1381 S1379 1.610 . S
N1381 C1382 1.351 . S
C1382 C1376 1.428 . S
C1382 N1381 1.351 . S
C1382 C1383 1.434 . S
C1383 C1374 1.429 . S
C1383 N1380 1.350 . S
C1383 C1382 1.434 . S
C1384 C1385 1.369 . S
C1384 C1386 1.419 . S
C1384 H1388 0.930 . S
C1385 C1384 1.369 . S
C1385 C1394 1.429 . S
C1386 C1384 1.419 . S
C1386 C1387 1.363 . S
C1386 H1389 0.929 . S
C1387 C1386 1.363 . S
C1387 C1393 1.428 . S
H1388 C1384 0.930 . S
H1389 C1386 0.929 . S
S1390 N1391 1.613 . S
S1390 N1392 1.610 . S
N1391 S1390 1.613 . S
N1391 C1394 1.350 . S
N1392 S1390 1.610 . S
N1392 C1393 1.351 . S
C1393 C1387 1.428 . S
C1393 N1392 1.351 . S
C1393 C1394 1.434 . S
C1394 C1385 1.429 . S
C1394 N1391 1.350 . S
C1394 C1393 1.434 . S
C1395 C1396 1.369 . S
C1395 C1397 1.419 . S
C1395 H1399 0.930 . S
C1396 C1395 1.369 . S
C1396 C1405 1.429 . S
C1397 C1395 1.419 . S
C1397 C1398 1.363 . S
C1397 H1400 0.929 . S
C1398 C1397 1.363 . S
C1398 C1404 1.428 . S
H1399 C1395 0.930 . S
H1400 C1397 0.929 . S
S1401 N1402 1.613 . S
S1401 N1403 1.610 . S
N1402 S1401 1.613 . S
N1402 C1405 1.350 . S
N1403 S1401 1.610 . S
N1403 C1404 1.351 . S
C1404 C1398 1.428 . S
C1404 N1403 1.351 . S
C1404 C1405 1.434 . S
C1405 C1396 1.429 . S
C1405 N1402 1.350 . S
C1405 C1404 1.434 . S
C1406 C1407 1.369 . S
C1406 C1408 1.419 . S
C1406 H1410 0.930 . S
C1407 C1406 1.369 . S
C1407 C1416 1.429 . S
C1408 C1406 1.419 . S
C1408 C1409 1.363 . S
C1408 H1411 0.929 . S
C1409 C1408 1.363 . S
C1409 C1415 1.428 . S
H1410 C1406 0.930 . S
H1411 C1408 0.929 . S
S1412 N1413 1.613 . S
S1412 N1414 1.610 . S
N1413 S1412 1.613 . S
N1413 C1416 1.350 . S
N1414 S1412 1.610 . S
N1414 C1415 1.351 . S
C1415 C1409 1.428 . S
C1415 N1414 1.351 . S
C1415 C1416 1.434 . S
C1416 C1407 1.429 . S
C1416 N1413 1.350 . S
C1416 C1415 1.434 . S
C1417 C1418 1.369 . S
C1417 C1419 1.419 . S
C1417 H1421 0.930 . S
C1418 C1417 1.369 . S
C1418 C1427 1.429 . S
C1419 C1417 1.419 . S
C1419 C1420 1.363 . S
C1419 H1422 0.929 . S
C1420 C1419 1.363 . S
C1420 C1426 1.428 . S
H1421 C1417 0.930 . S
H1422 C1419 0.929 . S
S1423 N1424 1.613 . S
S1423 N1425 1.610 . S
N1424 S1423 1.613 . S
N1424 C1427 1.350 . S
N1425 S1423 1.610 . S
N1425 C1426 1.351 . S
C1426 C1420 1.428 . S
C1426 N1425 1.351 . S
C1426 C1427 1.434 . S
C1427 C1418 1.429 . S
C1427 N1424 1.350 . S
C1427 C1426 1.434 . S
C1428 C1429 1.369 . S
C1428 C1430 1.419 . S
C1428 H1432 0.930 . S
C1429 C1428 1.369 . S
C1429 C1438 1.429 . S
C1430 C1428 1.419 . S
C1430 C1431 1.363 . S
C1430 H1433 0.929 . S
C1431 C1430 1.363 . S
C1431 C1437 1.428 . S
H1432 C1428 0.930 . S
H1433 C1430 0.929 . S
S1434 N1435 1.613 . S
S1434 N1436 1.610 . S
N1435 S1434 1.613 . S
N1435 C1438 1.350 . S
N1436 S1434 1.610 . S
N1436 C1437 1.351 . S
C1437 C1431 1.428 . S
C1437 N1436 1.351 . S
C1437 C1438 1.434 . S
C1438 C1429 1.429 . S
C1438 N1435 1.350 . S
C1438 C1437 1.434 . S
C1439 C1440 1.369 . S
C1439 C1441 1.419 . S
C1439 H1443 0.930 . S
C1440 C1439 1.369 . S
C1440 C1449 1.429 . S
C1441 C1439 1.419 . S
C1441 C1442 1.363 . S
C1441 H1444 0.929 . S
C1442 C1441 1.363 . S
C1442 C1448 1.428 . S
H1443 C1439 0.930 . S
H1444 C1441 0.929 . S
S1445 N1446 1.613 . S
S1445 N1447 1.610 . S
N1446 S1445 1.613 . S
N1446 C1449 1.350 . S
N1447 S1445 1.610 . S
N1447 C1448 1.351 . S
C1448 C1442 1.428 . S
C1448 N1447 1.351 . S
C1448 C1449 1.434 . S
C1449 C1440 1.429 . S
C1449 N1446 1.350 . S
C1449 C1448 1.434 . S
C1450 C1451 1.369 . S
C1450 C1452 1.419 . S
C1450 H1454 0.930 . S
C1451 C1450 1.369 . S
C1451 C1460 1.429 . S
C1452 C1450 1.419 . S
C1452 C1453 1.363 . S
C1452 H1455 0.929 . S
C1453 C1452 1.363 . S
C1453 C1459 1.428 . S
H1454 C1450 0.930 . S
H1455 C1452 0.929 . S
S1456 N1457 1.613 . S
S1456 N1458 1.610 . S
N1457 S1456 1.613 . S
N1457 C1460 1.350 . S
N1458 S1456 1.610 . S
N1458 C1459 1.351 . S
C1459 C1453 1.428 . S
C1459 N1458 1.351 . S
C1459 C1460 1.434 . S
C1460 C1451 1.429 . S
C1460 N1457 1.350 . S
C1460 C1459 1.434 . S
C1461 C1462 1.369 . S
C1461 C1463 1.419 . S
C1461 H1465 0.930 . S
C1462 C1461 1.369 . S
C1462 C1471 1.429 . S
C1463 C1461 1.419 . S
C1463 C1464 1.363 . S
C1463 H1466 0.929 . S
C1464 C1463 1.363 . S
C1464 C1470 1.428 . S
H1465 C1461 0.930 . S
H1466 C1463 0.929 . S
S1467 N1468 1.613 . S
S1467 N1469 1.610 . S
N1468 S1467 1.613 . S
N1468 C1471 1.350 . S
N1469 S1467 1.610 . S
N1469 C1470 1.351 . S
C1470 C1464 1.428 . S
C1470 N1469 1.351 . S
C1470 C1471 1.434 . S
C1471 C1462 1.429 . S
C1471 N1468 1.350 . S
C1471 C1470 1.434 . S
C1472 C1473 1.369 . S
C1472 C1474 1.419 . S
C1472 H1476 0.930 . S
C1473 C1472 1.369 . S
C1473 C1482 1.429 . S
C1474 C1472 1.419 . S
C1474 C1475 1.363 . S
C1474 H1477 0.929 . S
C1475 C1474 1.363 . S
C1475 C1481 1.428 . S
H1476 C1472 0.930 . S
H1477 C1474 0.929 . S
S1478 N1479 1.613 . S
S1478 N1480 1.610 . S
N1479 S1478 1.613 . S
N1479 C1482 1.350 . S
N1480 S1478 1.610 . S
N1480 C1481 1.351 . S
C1481 C1475 1.428 . S
C1481 N1480 1.351 . S
C1481 C1482 1.434 . S
C1482 C1473 1.429 . S
C1482 N1479 1.350 . S
C1482 C1481 1.434 . S
C1483 C1484 1.369 . S
C1483 C1485 1.419 . S
C1483 H1487 0.930 . S
C1484 C1483 1.369 . S
C1484 C1493 1.429 . S
C1485 C1483 1.419 . S
C1485 C1486 1.363 . S
C1485 H1488 0.929 . S
C1486 C1485 1.363 . S
C1486 C1492 1.428 . S
H1487 C1483 0.930 . S
H1488 C1485 0.929 . S
S1489 N1490 1.613 . S
S1489 N1491 1.610 . S
N1490 S1489 1.613 . S
N1490 C1493 1.350 . S
N1491 S1489 1.610 . S
N1491 C1492 1.351 . S
C1492 C1486 1.428 . S
C1492 N1491 1.351 . S
C1492 C1493 1.434 . S
C1493 C1484 1.429 . S
C1493 N1490 1.350 . S
C1493 C1492 1.434 . S
C1494 C1495 1.369 . S
C1494 C1496 1.419 . S
C1494 H1498 0.930 . S
C1495 C1494 1.369 . S
C1495 C1504 1.429 . S
C1496 C1494 1.419 . S
C1496 C1497 1.363 . S
C1496 H1499 0.929 . S
C1497 C1496 1.363 . S
C1497 C1503 1.428 . S
H1498 C1494 0.930 . S
H1499 C1496 0.929 . S
S1500 N1501 1.613 . S
S1500 N1502 1.610 . S
N1501 S1500 1.613 . S
N1501 C1504 1.350 . S
N1502 S1500 1.610 . S
N1502 C1503 1.351 . S
C1503 C1497 1.428 . S
C1503 N1502 1.351 . S
C1503 C1504 1.434 . S
C1504 C1495 1.429 . S
C1504 N1501 1.350 . S
C1504 C1503 1.434 . S
C1505 C1506 1.369 . S
C1505 C1507 1.419 . S
C1505 H1509 0.930 . S
C1506 C1505 1.369 . S
C1506 C1515 1.429 . S
C1507 C1505 1.419 . S
C1507 C1508 1.363 . S
C1507 H1510 0.929 . S
C1508 C1507 1.363 . S
C1508 C1514 1.428 . S
H1509 C1505 0.930 . S
H1510 C1507 0.929 . S
S1511 N1512 1.613 . S
S1511 N1513 1.610 . S
N1512 S1511 1.613 . S
N1512 C1515 1.350 . S
N1513 S1511 1.610 . S
N1513 C1514 1.351 . S
C1514 C1508 1.428 . S
C1514 N1513 1.351 . S
C1514 C1515 1.434 . S
C1515 C1506 1.429 . S
C1515 N1512 1.350 . S
C1515 C1514 1.434 . S
C1516 C1517 1.369 . S
C1516 C1518 1.419 . S
C1516 H1520 0.930 . S
C1517 C1516 1.369 . S
C1517 C1526 1.429 . S
C1518 C1516 1.419 . S
C1518 C1519 1.363 . S
C1518 H1521 0.929 . S
C1519 C1518 1.363 . S
C1519 C1525 1.428 . S
H1520 C1516 0.930 . S
H1521 C1518 0.929 . S
S1522 N1523 1.613 . S
S1522 N1524 1.610 . S
N1523 S1522 1.613 . S
N1523 C1526 1.350 . S
N1524 S1522 1.610 . S
N1524 C1525 1.351 . S
C1525 C1519 1.428 . S
C1525 N1524 1.351 . S
C1525 C1526 1.434 . S
C1526 C1517 1.429 . S
C1526 N1523 1.350 . S
C1526 C1525 1.434 . S
C1527 C1528 1.369 . S
C1527 C1529 1.419 . S
C1527 H1531 0.930 . S
C1528 C1527 1.369 . S
C1528 C1537 1.429 . S
C1529 C1527 1.419 . S
C1529 C1530 1.363 . S
C1529 H1532 0.929 . S
C1530 C1529 1.363 . S
C1530 C1536 1.428 . S
H1531 C1527 0.930 . S
H1532 C1529 0.929 . S
S1533 N1534 1.613 . S
S1533 N1535 1.610 . S
N1534 S1533 1.613 . S
N1534 C1537 1.350 . S
N1535 S1533 1.610 . S
N1535 C1536 1.351 . S
C1536 C1530 1.428 . S
C1536 N1535 1.351 . S
C1536 C1537 1.434 . S
C1537 C1528 1.429 . S
C1537 N1534 1.350 . S
C1537 C1536 1.434 . S
C1538 C1539 1.369 . S
C1538 C1540 1.419 . S
C1538 H1542 0.930 . S
C1539 C1538 1.369 . S
C1539 C1548 1.429 . S
C1540 C1538 1.419 . S
C1540 C1541 1.363 . S
C1540 H1543 0.929 . S
C1541 C1540 1.363 . S
C1541 C1547 1.428 . S
H1542 C1538 0.930 . S
H1543 C1540 0.929 . S
S1544 N1545 1.613 . S
S1544 N1546 1.610 . S
N1545 S1544 1.613 . S
N1545 C1548 1.350 . S
N1546 S1544 1.610 . S
N1546 C1547 1.351 . S
C1547 C1541 1.428 . S
C1547 N1546 1.351 . S
C1547 C1548 1.434 . S
C1548 C1539 1.429 . S
C1548 N1545 1.350 . S
C1548 C1547 1.434 . S
C1549 C1550 1.369 . S
C1549 C1551 1.419 . S
C1549 H1553 0.930 . S
C1550 C1549 1.369 . S
C1550 C1559 1.429 . S
C1551 C1549 1.419 . S
C1551 C1552 1.363 . S
C1551 H1554 0.929 . S
C1552 C1551 1.363 . S
C1552 C1558 1.428 . S
H1553 C1549 0.930 . S
H1554 C1551 0.929 . S
S1555 N1556 1.613 . S
S1555 N1557 1.610 . S
N1556 S1555 1.613 . S
N1556 C1559 1.350 . S
N1557 S1555 1.610 . S
N1557 C1558 1.351 . S
C1558 C1552 1.428 . S
C1558 N1557 1.351 . S
C1558 C1559 1.434 . S
C1559 C1550 1.429 . S
C1559 N1556 1.350 . S
C1559 C1558 1.434 . S
C1560 C1561 1.369 . S
C1560 C1562 1.419 . S
C1560 H1564 0.930 . S
C1561 C1560 1.369 . S
C1561 C1570 1.429 . S
C1562 C1560 1.419 . S
C1562 C1563 1.363 . S
C1562 H1565 0.929 . S
C1563 C1562 1.363 . S
C1563 C1569 1.428 . S
H1564 C1560 0.930 . S
H1565 C1562 0.929 . S
S1566 N1567 1.613 . S
S1566 N1568 1.610 . S
N1567 S1566 1.613 . S
N1567 C1570 1.350 . S
N1568 S1566 1.610 . S
N1568 C1569 1.351 . S
C1569 C1563 1.428 . S
C1569 N1568 1.351 . S
C1569 C1570 1.434 . S
C1570 C1561 1.429 . S
C1570 N1567 1.350 . S
C1570 C1569 1.434 . S
C1571 C1572 1.369 . S
C1571 C1573 1.419 . S
C1571 H1575 0.930 . S
C1572 C1571 1.369 . S
C1572 C1581 1.429 . S
C1573 C1571 1.419 . S
C1573 C1574 1.363 . S
C1573 H1576 0.929 . S
C1574 C1573 1.363 . S
C1574 C1580 1.428 . S
H1575 C1571 0.930 . S
H1576 C1573 0.929 . S
S1577 N1578 1.613 . S
S1577 N1579 1.610 . S
N1578 S1577 1.613 . S
N1578 C1581 1.350 . S
N1579 S1577 1.610 . S
N1579 C1580 1.351 . S
C1580 C1574 1.428 . S
C1580 N1579 1.351 . S
C1580 C1581 1.434 . S
C1581 C1572 1.429 . S
C1581 N1578 1.350 . S
C1581 C1580 1.434 . S
C1582 C1583 1.369 . S
C1582 C1584 1.419 . S
C1582 H1586 0.930 . S
C1583 C1582 1.369 . S
C1583 C1592 1.429 . S
C1584 C1582 1.419 . S
C1584 C1585 1.363 . S
C1584 H1587 0.929 . S
C1585 C1584 1.363 . S
C1585 C1591 1.428 . S
H1586 C1582 0.930 . S
H1587 C1584 0.929 . S
S1588 N1589 1.613 . S
S1588 N1590 1.610 . S
N1589 S1588 1.613 . S
N1589 C1592 1.350 . S
N1590 S1588 1.610 . S
N1590 C1591 1.351 . S
C1591 C1585 1.428 . S
C1591 N1590 1.351 . S
C1591 C1592 1.434 . S
C1592 C1583 1.429 . S
C1592 N1589 1.350 . S
C1592 C1591 1.434 . S
C1593 C1594 1.369 . S
C1593 C1595 1.419 . S
C1593 H1597 0.930 . S
C1594 C1593 1.369 . S
C1594 C1603 1.429 . S
C1595 C1593 1.419 . S
C1595 C1596 1.363 . S
C1595 H1598 0.929 . S
C1596 C1595 1.363 . S
C1596 C1602 1.428 . S
H1597 C1593 0.930 . S
H1598 C1595 0.929 . S
S1599 N1600 1.613 . S
S1599 N1601 1.610 . S
N1600 S1599 1.613 . S
N1600 C1603 1.350 . S
N1601 S1599 1.610 . S
N1601 C1602 1.351 . S
C1602 C1596 1.428 . S
C1602 N1601 1.351 . S
C1602 C1603 1.434 . S
C1603 C1594 1.429 . S
C1603 N1600 1.350 . S
C1603 C1602 1.434 . S
C1604 C1605 1.369 . S
C1604 C1606 1.419 . S
C1604 H1608 0.930 . S
C1605 C1604 1.369 . S
C1605 C1614 1.429 . S
C1606 C1604 1.419 . S
C1606 C1607 1.363 . S
C1606 H1609 0.929 . S
C1607 C1606 1.363 . S
C1607 C1613 1.428 . S
H1608 C1604 0.930 . S
H1609 C1606 0.929 . S
S1610 N1611 1.613 . S
S1610 N1612 1.610 . S
N1611 S1610 1.613 . S
N1611 C1614 1.350 . S
N1612 S1610 1.610 . S
N1612 C1613 1.351 . S
C1613 C1607 1.428 . S
C1613 N1612 1.351 . S
C1613 C1614 1.434 . S
C1614 C1605 1.429 . S
C1614 N1611 1.350 . S
C1614 C1613 1.434 . S
C1615 C1616 1.369 . S
C1615 C1617 1.419 . S
C1615 H1619 0.930 . S
C1616 C1615 1.369 . S
C1616 C1625 1.429 . S
C1617 C1615 1.419 . S
C1617 C1618 1.363 . S
C1617 H1620 0.929 . S
C1618 C1617 1.363 . S
C1618 C1624 1.428 . S
H1619 C1615 0.930 . S
H1620 C1617 0.929 . S
S1621 N1622 1.613 . S
S1621 N1623 1.610 . S
N1622 S1621 1.613 . S
N1622 C1625 1.350 . S
N1623 S1621 1.610 . S
N1623 C1624 1.351 . S
C1624 C1618 1.428 . S
C1624 N1623 1.351 . S
C1624 C1625 1.434 . S
C1625 C1616 1.429 . S
C1625 N1622 1.350 . S
C1625 C1624 1.434 . S
C1626 C1627 1.369 . S
C1626 C1628 1.419 . S
C1626 H1630 0.930 . S
C1627 C1626 1.369 . S
C1627 C1636 1.429 . S
C1628 C1626 1.419 . S
C1628 C1629 1.363 . S
C1628 H1631 0.929 . S
C1629 C1628 1.363 . S
C1629 C1635 1.428 . S
H1630 C1626 0.930 . S
H1631 C1628 0.929 . S
S1632 N1633 1.613 . S
S1632 N1634 1.610 . S
N1633 S1632 1.613 . S
N1633 C1636 1.350 . S
N1634 S1632 1.610 . S
N1634 C1635 1.351 . S
C1635 C1629 1.428 . S
C1635 N1634 1.351 . S
C1635 C1636 1.434 . S
C1636 C1627 1.429 . S
C1636 N1633 1.350 . S
C1636 C1635 1.434 . S
C1637 C1638 1.369 . S
C1637 C1639 1.419 . S
C1637 H1641 0.930 . S
C1638 C1637 1.369 . S
C1638 C1647 1.429 . S
C1639 C1637 1.419 . S
C1639 C1640 1.363 . S
C1639 H1642 0.929 . S
C1640 C1639 1.363 . S
C1640 C1646 1.428 . S
H1641 C1637 0.930 . S
H1642 C1639 0.929 . S
S1643 N1644 1.613 . S
S1643 N1645 1.610 . S
N1644 S1643 1.613 . S
N1644 C1647 1.350 . S
N1645 S1643 1.610 . S
N1645 C1646 1.351 . S
C1646 C1640 1.428 . S
C1646 N1645 1.351 . S
C1646 C1647 1.434 . S
C1647 C1638 1.429 . S
C1647 N1644 1.350 . S
C1647 C1646 1.434 . S
C1648 C1649 1.369 . S
C1648 C1650 1.419 . S
C1648 H1652 0.930 . S
C1649 C1648 1.369 . S
C1649 C1658 1.429 . S
C1650 C1648 1.419 . S
C1650 C1651 1.363 . S
C1650 H1653 0.929 . S
C1651 C1650 1.363 . S
C1651 C1657 1.428 . S
H1652 C1648 0.930 . S
H1653 C1650 0.929 . S
S1654 N1655 1.613 . S
S1654 N1656 1.610 . S
N1655 S1654 1.613 . S
N1655 C1658 1.350 . S
N1656 S1654 1.610 . S
N1656 C1657 1.351 . S
C1657 C1651 1.428 . S
C1657 N1656 1.351 . S
C1657 C1658 1.434 . S
C1658 C1649 1.429 . S
C1658 N1655 1.350 . S
C1658 C1657 1.434 . S
C1659 C1660 1.369 . S
C1659 C1661 1.419 . S
C1659 H1663 0.930 . S
C1660 C1659 1.369 . S
C1660 C1669 1.429 . S
C1661 C1659 1.419 . S
C1661 C1662 1.363 . S
C1661 H1664 0.929 . S
C1662 C1661 1.363 . S
C1662 C1668 1.428 . S
H1663 C1659 0.930 . S
H1664 C1661 0.929 . S
S1665 N1666 1.613 . S
S1665 N1667 1.610 . S
N1666 S1665 1.613 . S
N1666 C1669 1.350 . S
N1667 S1665 1.610 . S
N1667 C1668 1.351 . S
C1668 C1662 1.428 . S
C1668 N1667 1.351 . S
C1668 C1669 1.434 . S
C1669 C1660 1.429 . S
C1669 N1666 1.350 . S
C1669 C1668 1.434 . S
C1670 C1671 1.369 . S
C1670 C1672 1.419 . S
C1670 H1674 0.930 . S
C1671 C1670 1.369 . S
C1671 C1680 1.429 . S
C1672 C1670 1.419 . S
C1672 C1673 1.363 . S
C1672 H1675 0.929 . S
C1673 C1672 1.363 . S
C1673 C1679 1.428 . S
H1674 C1670 0.930 . S
H1675 C1672 0.929 . S
S1676 N1677 1.613 . S
S1676 N1678 1.610 . S
N1677 S1676 1.613 . S
N1677 C1680 1.350 . S
N1678 S1676 1.610 . S
N1678 C1679 1.351 . S
C1679 C1673 1.428 . S
C1679 N1678 1.351 . S
C1679 C1680 1.434 . S
C1680 C1671 1.429 . S
C1680 N1677 1.350 . S
C1680 C1679 1.434 . S
C1681 C1682 1.369 . S
C1681 C1683 1.419 . S
C1681 H1685 0.930 . S
C1682 C1681 1.369 . S
C1682 C1691 1.429 . S
C1683 C1681 1.419 . S
C1683 C1684 1.363 . S
C1683 H1686 0.929 . S
C1684 C1683 1.363 . S
C1684 C1690 1.428 . S
H1685 C1681 0.930 . S
H1686 C1683 0.929 . S
S1687 N1688 1.613 . S
S1687 N1689 1.610 . S
N1688 S1687 1.613 . S
N1688 C1691 1.350 . S
N1689 S1687 1.610 . S
N1689 C1690 1.351 . S
C1690 C1684 1.428 . S
C1690 N1689 1.351 . S
C1690 C1691 1.434 . S
C1691 C1682 1.429 . S
C1691 N1688 1.350 . S
C1691 C1690 1.434 . S
C1692 C1693 1.369 . S
C1692 C1694 1.419 . S
C1692 H1696 0.930 . S
C1693 C1692 1.369 . S
C1693 C1702 1.429 . S
C1694 C1692 1.419 . S
C1694 C1695 1.363 . S
C1694 H1697 0.929 . S
C1695 C1694 1.363 . S
C1695 C1701 1.428 . S
H1696 C1692 0.930 . S
H1697 C1694 0.929 . S
S1698 N1699 1.613 . S
S1698 N1700 1.610 . S
N1699 S1698 1.613 . S
N1699 C1702 1.350 . S
N1700 S1698 1.610 . S
N1700 C1701 1.351 . S
C1701 C1695 1.428 . S
C1701 N1700 1.351 . S
C1701 C1702 1.434 . S
C1702 C1693 1.429 . S
C1702 N1699 1.350 . S
C1702 C1701 1.434 . S
C1703 C1704 1.369 . S
C1703 C1705 1.419 . S
C1703 H1707 0.930 . S
C1704 C1703 1.369 . S
C1704 C1713 1.429 . S
C1705 C1703 1.419 . S
C1705 C1706 1.363 . S
C1705 H1708 0.929 . S
C1706 C1705 1.363 . S
C1706 C1712 1.428 . S
H1707 C1703 0.930 . S
H1708 C1705 0.929 . S
S1709 N1710 1.613 . S
S1709 N1711 1.610 . S
N1710 S1709 1.613 . S
N1710 C1713 1.350 . S
N1711 S1709 1.610 . S
N1711 C1712 1.351 . S
C1712 C1706 1.428 . S
C1712 N1711 1.351 . S
C1712 C1713 1.434 . S
C1713 C1704 1.429 . S
C1713 N1710 1.350 . S
C1713 C1712 1.434 . S
C1714 C1715 1.369 . S
C1714 C1716 1.419 . S
C1714 H1718 0.930 . S
C1715 C1714 1.369 . S
C1715 C1724 1.429 . S
C1716 C1714 1.419 . S
C1716 C1717 1.363 . S
C1716 H1719 0.929 . S
C1717 C1716 1.363 . S
C1717 C1723 1.428 . S
H1718 C1714 0.930 . S
H1719 C1716 0.929 . S
S1720 N1721 1.613 . S
S1720 N1722 1.610 . S
N1721 S1720 1.613 . S
N1721 C1724 1.350 . S
N1722 S1720 1.610 . S
N1722 C1723 1.351 . S
C1723 C1717 1.428 . S
C1723 N1722 1.351 . S
C1723 C1724 1.434 . S
C1724 C1715 1.429 . S
C1724 N1721 1.350 . S
C1724 C1723 1.434 . S
C1725 C1726 1.369 . S
C1725 C1727 1.419 . S
C1725 H1729 0.930 . S
C1726 C1725 1.369 . S
C1726 C1735 1.429 . S
C1727 C1725 1.419 . S
C1727 C1728 1.363 . S
C1727 H1730 0.929 . S
C1728 C1727 1.363 . S
C1728 C1734 1.428 . S
H1729 C1725 0.930 . S
H1730 C1727 0.929 . S
S1731 N1732 1.613 . S
S1731 N1733 1.610 . S
N1732 S1731 1.613 . S
N1732 C1735 1.350 . S
N1733 S1731 1.610 . S
N1733 C1734 1.351 . S
C1734 C1728 1.428 . S
C1734 N1733 1.351 . S
C1734 C1735 1.434 . S
C1735 C1726 1.429 . S
C1735 N1732 1.350 . S
C1735 C1734 1.434 . S
C1736 C1737 1.369 . S
C1736 C1738 1.419 . S
C1736 H1740 0.930 . S
C1737 C1736 1.369 . S
C1737 C1746 1.429 . S
C1738 C1736 1.419 . S
C1738 C1739 1.363 . S
C1738 H1741 0.929 . S
C1739 C1738 1.363 . S
C1739 C1745 1.428 . S
H1740 C1736 0.930 . S
H1741 C1738 0.929 . S
S1742 N1743 1.613 . S
S1742 N1744 1.610 . S
N1743 S1742 1.613 . S
N1743 C1746 1.350 . S
N1744 S1742 1.610 . S
N1744 C1745 1.351 . S
C1745 C1739 1.428 . S
C1745 N1744 1.351 . S
C1745 C1746 1.434 . S
C1746 C1737 1.429 . S
C1746 N1743 1.350 . S
C1746 C1745 1.434 . S
C1747 C1748 1.369 . S
C1747 C1749 1.419 . S
C1747 H1751 0.930 . S
C1748 C1747 1.369 . S
C1748 C1757 1.429 . S
C1749 C1747 1.419 . S
C1749 C1750 1.363 . S
C1749 H1752 0.929 . S
C1750 C1749 1.363 . S
C1750 C1756 1.428 . S
H1751 C1747 0.930 . S
H1752 C1749 0.929 . S
S1753 N1754 1.613 . S
S1753 N1755 1.610 . S
N1754 S1753 1.613 . S
N1754 C1757 1.350 . S
N1755 S1753 1.610 . S
N1755 C1756 1.351 . S
C1756 C1750 1.428 . S
C1756 N1755 1.351 . S
C1756 C1757 1.434 . S
C1757 C1748 1.429 . S
C1757 N1754 1.350 . S
C1757 C1756 1.434 . S
C1758 C1759 1.369 . S
C1758 C1760 1.419 . S
C1758 H1762 0.930 . S
C1759 C1758 1.369 . S
C1759 C1768 1.429 . S
C1760 C1758 1.419 . S
C1760 C1761 1.363 . S
C1760 H1763 0.929 . S
C1761 C1760 1.363 . S
C1761 C1767 1.428 . S
H1762 C1758 0.930 . S
H1763 C1760 0.929 . S
S1764 N1765 1.613 . S
S1764 N1766 1.610 . S
N1765 S1764 1.613 . S
N1765 C1768 1.350 . S
N1766 S1764 1.610 . S
N1766 C1767 1.351 . S
C1767 C1761 1.428 . S
C1767 N1766 1.351 . S
C1767 C1768 1.434 . S
C1768 C1759 1.429 . S
C1768 N1765 1.350 . S
C1768 C1767 1.434 . S
C1769 C1770 1.369 . S
C1769 C1771 1.419 . S
C1769 H1773 0.930 . S
C1770 C1769 1.369 . S
C1770 C1779 1.429 . S
C1771 C1769 1.419 . S
C1771 C1772 1.363 . S
C1771 H1774 0.929 . S
C1772 C1771 1.363 . S
C1772 C1778 1.428 . S
H1773 C1769 0.930 . S
H1774 C1771 0.929 . S
S1775 N1776 1.613 . S
S1775 N1777 1.610 . S
N1776 S1775 1.613 . S
N1776 C1779 1.350 . S
N1777 S1775 1.610 . S
N1777 C1778 1.351 . S
C1778 C1772 1.428 . S
C1778 N1777 1.351 . S
C1778 C1779 1.434 . S
C1779 C1770 1.429 . S
C1779 N1776 1.350 . S
C1779 C1778 1.434 . S
C1780 C1781 1.369 . S
C1780 C1782 1.419 . S
C1780 H1784 0.930 . S
C1781 C1780 1.369 . S
C1781 C1790 1.429 . S
C1782 C1780 1.419 . S
C1782 C1783 1.363 . S
C1782 H1785 0.929 . S
C1783 C1782 1.363 . S
C1783 C1789 1.428 . S
H1784 C1780 0.930 . S
H1785 C1782 0.929 . S
S1786 N1787 1.613 . S
S1786 N1788 1.610 . S
N1787 S1786 1.613 . S
N1787 C1790 1.350 . S
N1788 S1786 1.610 . S
N1788 C1789 1.351 . S
C1789 C1783 1.428 . S
C1789 N1788 1.351 . S
C1789 C1790 1.434 . S
C1790 C1781 1.429 . S
C1790 N1787 1.350 . S
C1790 C1789 1.434 . S
C1791 C1792 1.369 . S
C1791 C1793 1.419 . S
C1791 H1795 0.930 . S
C1792 C1791 1.369 . S
C1792 C1801 1.429 . S
C1793 C1791 1.419 . S
C1793 C1794 1.363 . S
C1793 H1796 0.929 . S
C1794 C1793 1.363 . S
C1794 C1800 1.428 . S
H1795 C1791 0.930 . S
H1796 C1793 0.929 . S
S1797 N1798 1.613 . S
S1797 N1799 1.610 . S
N1798 S1797 1.613 . S
N1798 C1801 1.350 . S
N1799 S1797 1.610 . S
N1799 C1800 1.351 . S
C1800 C1794 1.428 . S
C1800 N1799 1.351 . S
C1800 C1801 1.434 . S
C1801 C1792 1.429 . S
C1801 N1798 1.350 . S
C1801 C1800 1.434 . S
C1802 C1803 1.369 . S
C1802 C1804 1.419 . S
C1802 H1806 0.930 . S
C1803 C1802 1.369 . S
C1803 C1812 1.429 . S
C1804 C1802 1.419 . S
C1804 C1805 1.363 . S
C1804 H1807 0.929 . S
C1805 C1804 1.363 . S
C1805 C1811 1.428 . S
H1806 C1802 0.930 . S
H1807 C1804 0.929 . S
S1808 N1809 1.613 . S
S1808 N1810 1.610 . S
N1809 S1808 1.613 . S
N1809 C1812 1.350 . S
N1810 S1808 1.610 . S
N1810 C1811 1.351 . S
C1811 C1805 1.428 . S
C1811 N1810 1.351 . S
C1811 C1812 1.434 . S
C1812 C1803 1.429 . S
C1812 N1809 1.350 . S
C1812 C1811 1.434 . S
C1813 C1814 1.369 . S
C1813 C1815 1.419 . S
C1813 H1817 0.930 . S
C1814 C1813 1.369 . S
C1814 C1823 1.429 . S
C1815 C1813 1.419 . S
C1815 C1816 1.363 . S
C1815 H1818 0.929 . S
C1816 C1815 1.363 . S
C1816 C1822 1.428 . S
H1817 C1813 0.930 . S
H1818 C1815 0.929 . S
S1819 N1820 1.613 . S
S1819 N1821 1.610 . S
N1820 S1819 1.613 . S
N1820 C1823 1.350 . S
N1821 S1819 1.610 . S
N1821 C1822 1.351 . S
C1822 C1816 1.428 . S
C1822 N1821 1.351 . S
C1822 C1823 1.434 . S
C1823 C1814 1.429 . S
C1823 N1820 1.350 . S
C1823 C1822 1.434 . S
C1824 C1825 1.369 . S
C1824 C1826 1.419 . S
C1824 H1828 0.930 . S
C1825 C1824 1.369 . S
C1825 C1834 1.429 . S
C1826 C1824 1.419 . S
C1826 C1827 1.363 . S
C1826 H1829 0.929 . S
C1827 C1826 1.363 . S
C1827 C1833 1.428 . S
H1828 C1824 0.930 . S
H1829 C1826 0.929 . S
S1830 N1831 1.613 . S
S1830 N1832 1.610 . S
N1831 S1830 1.613 . S
N1831 C1834 1.350 . S
N1832 S1830 1.610 . S
N1832 C1833 1.351 . S
C1833 C1827 1.428 . S
C1833 N1832 1.351 . S
C1833 C1834 1.434 . S
C1834 C1825 1.429 . S
C1834 N1831 1.350 . S
C1834 C1833 1.434 . S
C1835 C1836 1.369 . S
C1835 C1837 1.419 . S
C1835 H1839 0.930 . S
C1836 C1835 1.369 . S
C1836 C1845 1.429 . S
C1837 C1835 1.419 . S
C1837 C1838 1.363 . S
C1837 H1840 0.929 . S
C1838 C1837 1.363 . S
C1838 C1844 1.428 . S
H1839 C1835 0.930 . S
H1840 C1837 0.929 . S
S1841 N1842 1.613 . S
S1841 N1843 1.610 . S
N1842 S1841 1.613 . S
N1842 C1845 1.350 . S
N1843 S1841 1.610 . S
N1843 C1844 1.351 . S
C1844 C1838 1.428 . S
C1844 N1843 1.351 . S
C1844 C1845 1.434 . S
C1845 C1836 1.429 . S
C1845 N1842 1.350 . S
C1845 C1844 1.434 . S
C1846 C1847 1.369 . S
C1846 C1848 1.419 . S
C1846 H1850 0.930 . S
C1847 C1846 1.369 . S
C1847 C1856 1.429 . S
C1848 C1846 1.419 . S
C1848 C1849 1.363 . S
C1848 H1851 0.929 . S
C1849 C1848 1.363 . S
C1849 C1855 1.428 . S
H1850 C1846 0.930 . S
H1851 C1848 0.929 . S
S1852 N1853 1.613 . S
S1852 N1854 1.610 . S
N1853 S1852 1.613 . S
N1853 C1856 1.350 . S
N1854 S1852 1.610 . S
N1854 C1855 1.351 . S
C1855 C1849 1.428 . S
C1855 N1854 1.351 . S
C1855 C1856 1.434 . S
C1856 C1847 1.429 . S
C1856 N1853 1.350 . S
C1856 C1855 1.434 . S
C1857 C1858 1.369 . S
C1857 C1859 1.419 . S
C1857 H1861 0.930 . S
C1858 C1857 1.369 . S
C1858 C1867 1.429 . S
C1859 C1857 1.419 . S
C1859 C1860 1.363 . S
C1859 H1862 0.929 . S
C1860 C1859 1.363 . S
C1860 C1866 1.428 . S
H1861 C1857 0.930 . S
H1862 C1859 0.929 . S
S1863 N1864 1.613 . S
S1863 N1865 1.610 . S
N1864 S1863 1.613 . S
N1864 C1867 1.350 . S
N1865 S1863 1.610 . S
N1865 C1866 1.351 . S
C1866 C1860 1.428 . S
C1866 N1865 1.351 . S
C1866 C1867 1.434 . S
C1867 C1858 1.429 . S
C1867 N1864 1.350 . S
C1867 C1866 1.434 . S
C1868 C1869 1.369 . S
C1868 C1870 1.419 . S
C1868 H1872 0.930 . S
C1869 C1868 1.369 . S
C1869 C1878 1.429 . S
C1870 C1868 1.419 . S
C1870 C1871 1.363 . S
C1870 H1873 0.929 . S
C1871 C1870 1.363 . S
C1871 C1877 1.428 . S
H1872 C1868 0.930 . S
H1873 C1870 0.929 . S
S1874 N1875 1.613 . S
S1874 N1876 1.610 . S
N1875 S1874 1.613 . S
N1875 C1878 1.350 . S
N1876 S1874 1.610 . S
N1876 C1877 1.351 . S
C1877 C1871 1.428 . S
C1877 N1876 1.351 . S
C1877 C1878 1.434 . S
C1878 C1869 1.429 . S
C1878 N1875 1.350 . S
C1878 C1877 1.434 . S
C1879 C1880 1.369 . S
C1879 C1881 1.419 . S
C1879 H1883 0.930 . S
C1880 C1879 1.369 . S
C1880 C1889 1.429 . S
C1881 C1879 1.419 . S
C1881 C1882 1.363 . S
C1881 H1884 0.929 . S
C1882 C1881 1.363 . S
C1882 C1888 1.428 . S
H1883 C1879 0.930 . S
H1884 C1881 0.929 . S
S1885 N1886 1.613 . S
S1885 N1887 1.610 . S
N1886 S1885 1.613 . S
N1886 C1889 1.350 . S
N1887 S1885 1.610 . S
N1887 C1888 1.351 . S
C1888 C1882 1.428 . S
C1888 N1887 1.351 . S
C1888 C1889 1.434 . S
C1889 C1880 1.429 . S
C1889 N1886 1.350 . S
C1889 C1888 1.434 . S
C1890 C1891 1.369 . S
C1890 C1892 1.419 . S
C1890 H1894 0.930 . S
C1891 C1890 1.369 . S
C1891 C1900 1.429 . S
C1892 C1890 1.419 . S
C1892 C1893 1.363 . S
C1892 H1895 0.929 . S
C1893 C1892 1.363 . S
C1893 C1899 1.428 . S
H1894 C1890 0.930 . S
H1895 C1892 0.929 . S
S1896 N1897 1.613 . S
S1896 N1898 1.610 . S
N1897 S1896 1.613 . S
N1897 C1900 1.350 . S
N1898 S1896 1.610 . S
N1898 C1899 1.351 . S
C1899 C1893 1.428 . S
C1899 N1898 1.351 . S
C1899 C1900 1.434 . S
C1900 C1891 1.429 . S
C1900 N1897 1.350 . S
C1900 C1899 1.434 . S
C1901 C1902 1.369 . S
C1901 C1903 1.419 . S
C1901 H1905 0.930 . S
C1902 C1901 1.369 . S
C1902 C1911 1.429 . S
C1903 C1901 1.419 . S
C1903 C1904 1.363 . S
C1903 H1906 0.929 . S
C1904 C1903 1.363 . S
C1904 C1910 1.428 . S
H1905 C1901 0.930 . S
H1906 C1903 0.929 . S
S1907 N1908 1.613 . S
S1907 N1909 1.610 . S
N1908 S1907 1.613 . S
N1908 C1911 1.350 . S
N1909 S1907 1.610 . S
N1909 C1910 1.351 . S
C1910 C1904 1.428 . S
C1910 N1909 1.351 . S
C1910 C1911 1.434 . S
C1911 C1902 1.429 . S
C1911 N1908 1.350 . S
C1911 C1910 1.434 . S
C859 C371 1.802 . S
C857 C7 1.776 . S
C870 C382 1.260 . S
C868 C19 1.389 . S
C879 C29 1.716 . S
C881 C406 1.669 . S
C892 C427 1.352 . S
C890 C41 1.478 . S
C901 C52 1.451 . S
C903 C434 1.402 . S
C912 C62 1.534 . S
C914 C364 1.473 . S
C923 C73 1.265 . S
C925 C390 1.273 . S
C936 C413 1.610 . S
C934 C82 1.518 . S
C947 C445 1.610 . S
C945 C5 1.541 . S
C956 C16 1.318 . S
C958 C466 1.472 . S
C967 C30 1.727 . S
C969 C490 1.479 . S
C980 C508 1.357 . S
C978 C40 1.508 . S
C989 C49 1.218 . S
C991 C537 1.335 . S
C1002 C558 1.357 . S
C1000 C63 1.539 . S
C1011 C74 1.370 . S
C1013 C574 1.320 1_655 S
C1024 C595 1.436 . S
C1022 C85 1.560 . S
C1033 C8 1.584 . S
C1035 C516 1.465 . S
C1044 C51 1.508 . S
C1046 C550 1.510 . S
C1057 C581 1.714 . S
C1055 C60 1.503 . S
C1066 C71 1.149 . S
C1068 C602 1.451 . S
C1079 C529 1.805 . S
C1077 C84 1.813 . S
C1090 C474 1.400 . S
C1088 C27 1.286 . S
C1099 C38 1.406 . S
C1101 C497 1.349 . S
C1112 C453 1.543 . S
C1110 C18 1.533 . S
C1123 C621 1.813 . S
C1121 C95 1.776 . S
C1132 C107 1.383 . S
C1134 C637 1.274 . S
C1143 C117 1.705 . S
C1145 C655 1.660 . S
C1156 C676 1.306 . S
C1154 C129 1.482 . S
C1165 C140 1.452 . S
C1167 C684 1.377 . S
C1176 C150 1.537 . S
C1178 C613 1.506 . S
C1187 C161 1.267 . S
C1189 C644 1.284 . S
C1198 C170 1.519 . S
C1200 C663 1.570 . S
C1211 C539 1.625 . S
C1209 C93 1.540 . S
C1220 C104 1.321 . S
C1222 C697 1.478 . S
C1233 C571 1.639 . S
C1231 C118 1.728 . S
C1242 C128 1.495 . S
C1244 C726 1.229 . S
C1253 C137 1.206 . S
C1255 C448 1.343 . S
C1266 C742 1.342 . S
C1264 C151 1.535 . S
C1275 C162 1.363 . S
C1277 C487 1.206 1_655 S
C1288 C770 1.464 . S
C1286 C173 1.553 . S
C1297 C96 1.585 . S
C1299 C718 1.492 . S
C1310 C749 1.521 . S
C1308 C139 1.514 . S
C1319 C148 1.517 . S
C1321 C495 1.621 . S
C1332 C763 1.360 . S
C1330 C159 1.145 . S
C1341 C172 1.806 . S
C1343 C455 1.822 . S
C1352 C115 1.297 . S
C1354 C705 1.380 . S
C1363 C126 1.417 . S
C1365 C579 1.411 . S
C1374 C106 1.541 . S
C1376 C532 1.536 . S
C1385 C183 1.786 . S
C1387 C658 1.817 . S
C1398 C679 1.283 . S
C1396 C195 1.384 . S
C1407 C205 1.701 . S
C1409 C623 1.667 . S
C1418 C217 1.487 . S
C1420 C634 1.296 . S
C1429 C228 1.444 . S
C1431 C642 1.380 . S
C1440 C238 1.528 . S
C1442 C665 1.507 . S
C1453 C686 1.286 . S
C1451 C249 1.269 . S
C1462 C258 1.526 . S
C1464 C616 1.569 . S
C1475 C781 1.613 . S
C1473 C181 1.555 . S
C1484 C192 1.310 . S
C1486 C560 1.491 . S
C1497 C802 1.635 . S
C1495 C206 1.730 . S
C1506 C216 1.497 . S
C1508 C592 1.342 . S
C1517 C225 1.204 . S
C1519 C826 1.337 . S
C1528 C239 1.530 . S
C1530 C469 1.330 . S
C1541 C847 1.310 . S
C1539 C250 1.360 . S
C1550 C261 1.561 . S
C1552 C511 1.434 . S
C1563 C600 1.472 . S
C1561 C184 1.590 . S
C1574 C476 1.525 . S
C1572 C227 1.519 . S
C1583 C236 1.505 . S
C1585 C854 1.709 . S
C1594 C247 1.160 . S
C1596 C518 1.451 . S
C1607 C833 1.822 . S
C1605 C260 1.805 . S
C1618 C553 1.368 . S
C1616 C203 1.292 . S
C1629 C810 1.414 . S
C1627 C214 1.423 . S
C1640 C789 1.536 . S
C1638 C194 1.537 . S
C1649 C271 1.776 . S
C1651 C403 1.790 . S
C1660 C283 1.388 . S
C1662 C424 1.250 . S
C1673 C369 1.672 . S
C1671 C293 1.712 . S
C1684 C385 1.346 . S
C1682 C305 1.486 . S
C1695 C392 1.392 . S
C1693 C316 1.441 . S
C1706 C411 1.485 . S
C1704 C326 1.536 . S
C1717 C432 1.276 . S
C1715 C337 1.264 . S
C1726 C346 1.512 . S
C1728 C361 1.593 . S
C1737 C269 1.538 . S
C1739 C823 1.611 . S
C1750 C739 1.479 . S
C1748 C280 1.311 . S
C1761 C844 1.642 . S
C1759 C294 1.726 . S
C1772 C768 1.235 . S
C1770 C304 1.502 . S
C1781 C313 1.218 . S
C1783 C784 1.325 . S
C1794 C700 1.347 . S
C1792 C327 1.529 . S
C1805 C805 1.325 . S
C1803 C338 1.366 . S
C1814 C349 1.552 . S
C1816 C728 1.463 . S
C1827 C760 1.485 . S
C1825 C272 1.583 . S
C1838 C707 1.516 . S
C1836 C315 1.504 . S
C1849 C812 1.709 . S
C1847 C324 1.510 . S
C1858 C335 1.157 . S
C1860 C721 1.367 . S
C1869 C348 1.804 . S
C1871 C791 1.820 . S
C1880 C291 1.289 . S
C1882 C747 1.401 . S
C1891 C302 1.407 . S
C1893 C852 1.401 . S
C1904 C831 1.547 . S
C1902 C282 1.538 . S
