# Generated by pormake.
# Topology zzz, (3,6)-cn, num edge types: 1
# Building blocks:
#     Node 0, Type 0, BuildingBlock: PAMTOO_clean_linker_0, # of connection points: 3
#     Node 1, Type 0, BuildingBlock: PAMTOO_clean_linker_0, # of connection points: 3
#     Node 2, Type 0, BuildingBlock: PAMTOO_clean_linker_0, # of connection points: 3
#     Node 3, Type 0, BuildingBlock: PAMTOO_clean_linker_0, # of connection points: 3
#     Node 4, Type 0, BuildingBlock: PAMTOO_clean_linker_0, # of connection points: 3
#     Node 5, Type 0, BuildingBlock: PAMTOO_clean_linker_0, # of connection points: 3
#     Node 6, Type 0, BuildingBlock: PAMTOO_clean_linker_0, # of connection points: 3
#     Node 7, Type 0, BuildingBlock: PAMTOO_clean_linker_0, # of connection points: 3
#     Node 8, Type 1, BuildingBlock: KUMJIN_clean_sbu_1, # of connection points: 6
#     Node 9, Type 1, BuildingBlock: KUMJIN_clean_sbu_1, # of connection points: 6
#     Node 10, Type 1, BuildingBlock: KUMJIN_clean_sbu_1, # of connection points: 6
#     Node 11, Type 1, BuildingBlock: KUMJIN_clean_sbu_1, # of connection points: 6
#     Edge 12, Type (0, 1), BuildingBlock: AJUNOK_clean_linker_0, # of connection points: 2
#     Edge 13, Type (0, 1), BuildingBlock: AJUNOK_clean_linker_0, # of connection points: 2
#     Edge 14, Type (0, 1), BuildingBlock: AJUNOK_clean_linker_0, # of connection points: 2
#     Edge 15, Type (0, 1), BuildingBlock: AJUNOK_clean_linker_0, # of connection points: 2
#     Edge 16, Type (0, 1), BuildingBlock: AJUNOK_clean_linker_0, # of connection points: 2
#     Edge 17, Type (0, 1), BuildingBlock: AJUNOK_clean_linker_0, # of connection points: 2
#     Edge 18, Type (0, 1), BuildingBlock: AJUNOK_clean_linker_0, # of connection points: 2
#     Edge 19, Type (0, 1), BuildingBlock: AJUNOK_clean_linker_0, # of connection points: 2
#     Edge 20, Type (0, 1), BuildingBlock: AJUNOK_clean_linker_0, # of connection points: 2
#     Edge 21, Type (0, 1), BuildingBlock: AJUNOK_clean_linker_0, # of connection points: 2
#     Edge 22, Type (0, 1), BuildingBlock: AJUNOK_clean_linker_0, # of connection points: 2
#     Edge 23, Type (0, 1), BuildingBlock: AJUNOK_clean_linker_0, # of connection points: 2
#     Edge 24, Type (0, 1), BuildingBlock: AJUNOK_clean_linker_0, # of connection points: 2
#     Edge 25, Type (0, 1), BuildingBlock: AJUNOK_clean_linker_0, # of connection points: 2
#     Edge 26, Type (0, 1), BuildingBlock: AJUNOK_clean_linker_0, # of connection points: 2
#     Edge 27, Type (0, 1), BuildingBlock: AJUNOK_clean_linker_0, # of connection points: 2
#     Edge 28, Type (0, 1), BuildingBlock: AJUNOK_clean_linker_0, # of connection points: 2
#     Edge 29, Type (0, 1), BuildingBlock: AJUNOK_clean_linker_0, # of connection points: 2
#     Edge 30, Type (0, 1), BuildingBlock: AJUNOK_clean_linker_0, # of connection points: 2
#     Edge 31, Type (0, 1), BuildingBlock: AJUNOK_clean_linker_0, # of connection points: 2
#     Edge 32, Type (0, 1), BuildingBlock: AJUNOK_clean_linker_0, # of connection points: 2
#     Edge 33, Type (0, 1), BuildingBlock: AJUNOK_clean_linker_0, # of connection points: 2
#     Edge 34, Type (0, 1), BuildingBlock: AJUNOK_clean_linker_0, # of connection points: 2
#     Edge 35, Type (0, 1), BuildingBlock: AJUNOK_clean_linker_0, # of connection points: 2
# Relax obj value: 0.238
# Max RMSD: 0.124
# Mean RMSD: 0.083
data_MOF--net-zzz--node1-KUMJIN_clean_sbu_1--node2-PAMTOO_clean_linker_0--edge1-AJUNOK_clean_linker_0
_symmetry_space_group_name_H-M    P1
_symmetry_Int_Tables_number       1
_symmetry_cell_setting            triclinic
loop_
_symmetry_equiv_pos_as_xyz
'x, y, z'
_cell_length_a     36.625417
_cell_length_b     36.771515
_cell_length_c     11.642539
_cell_angle_alpha  90.162718
_cell_angle_beta   90.648688
_cell_angle_gamma 90.068695
loop_
_atom_site_label
_atom_site_type_symbol
_atom_site_fract_x
_atom_site_fract_y
_atom_site_fract_z
_atom_type_partial_charge
H0 H 0.86247 0.60303 0.28955 0.0
H1 H 0.75203 0.60366 0.1596 0.0
H2 H 0.78372 0.52788 0.42177 0.0
H3 H 0.72226 0.50055 0.18228 0.0
C4 C 0.71816 0.53001 0.16621 0.0
O5 O 0.72912 0.54897 0.26652 0.0
H6 H 0.73701 0.53648 0.09472 0.0
C7 C 0.83488 0.59289 0.29019 0.0
C8 C 0.82651 0.56652 0.37338 0.0
C9 C 0.8095 0.60385 0.20363 0.0
C10 C 0.77314 0.59273 0.21479 0.0
C11 C 0.76385 0.56326 0.28321 0.0
C12 C 0.79076 0.54993 0.36479 0.0
H13 H 0.09915 0.85934 0.35612 0.0
H14 H 0.08004 0.75834 0.18226 0.0
H15 H 1.00533 0.79439 0.44304 0.0
H16 H 1.0059 0.69421 0.34459 0.0
C17 C 0.02676 0.7057 0.28642 0.0
O18 O 1.01894 0.743 0.27181 0.0
H19 H 0.05309 0.70244 0.33382 0.0
C20 C 0.0837 0.83424 0.34971 0.0
C21 C 0.05273 0.83005 0.41861 0.0
C22 C 0.09421 0.80825 0.26787 0.0
C23 C 0.07268 0.77748 0.24893 0.0
C24 C 0.04063 0.77166 0.30931 0.0
C25 C 0.03037 0.79817 0.39607 0.0
H26 H 0.70992 0.96266 0.38359 0.0
H27 H 0.81289 0.96117 0.2107 0.0
H28 H 0.79077 0.0436 0.46617 0.0
H29 H 0.84242 0.06428 0.21825 0.0
C30 C 0.84919 0.03509 0.20666 0.0
O31 O 0.84115 1.01717 0.31019 0.0
H32 H 0.8304 0.02536 0.13733 0.0
C33 C 0.73729 0.97325 0.37381 0.0
C34 C 0.74714 1.00345 0.44069 0.0
C35 C 0.75984 0.9588 0.28771 0.0
C36 C 0.79524 0.97256 0.27566 0.0
C37 C 0.80685 1.00362 0.33578 0.0
C38 C 0.78233 1.01963 0.4187 0.0
H39 H 0.55051 0.69043 0.26561 0.0
H40 H 0.57259 0.79549 0.12064 0.0
H41 H 0.56291 0.78341 0.48745 0.0
H42 H 0.52498 0.86278 0.34525 0.0
C43 C 0.53958 0.85434 0.26653 0.0
O44 O 0.56889 0.83224 0.30357 0.0
H45 H 0.51965 0.83786 0.21559 0.0
C46 C 0.55742 0.71887 0.27725 0.0
C47 C 0.55954 0.73231 0.38973 0.0
C48 C 0.56137 0.74149 0.18052 0.0
C49 C 0.56919 0.77827 0.19526 0.0
C50 C 0.56749 0.79459 0.30269 0.0
C51 C 0.56332 0.77139 0.40262 0.0
H52 H 0.20764 0.53835 0.17516 0.0
H53 H 0.31332 0.5158 0.32267 0.0
H54 H 0.29856 0.51547 0.9546 0.0
H55 H 0.36086 0.56341 0.18457 0.0
C56 C 0.37475 0.5376 0.16067 0.0
O57 O 0.34848 0.51035 0.13775 0.0
H58 H 0.38884 0.54313 0.07852 0.0
C59 C 0.236 0.53073 0.16405 0.0
C60 C 0.24848 0.52512 0.05217 0.0
C61 C 0.25934 0.52859 0.26092 0.0
C62 C 0.29578 0.5189 0.24779 0.0
C63 C 0.31114 0.51597 0.13971 0.0
C64 C 0.28727 0.51862 0.03953 0.0
H65 H 0.98413 0.22113 0.19468 0.0
H66 H 1.00418 0.32708 0.33257 0.0
H67 H 0.06757 0.28944 0.04617 0.0
H68 H 1.01754 0.37898 0.16366 0.0
C69 C 0.04582 0.37945 0.19971 0.0
O70 O 0.05875 0.34352 0.2121 0.0
H71 H 0.0621 0.39293 0.13304 0.0
C72 C 0.99838 0.24682 0.18708 0.0
C73 C 0.02521 0.25098 0.10204 0.0
C74 C 0.99059 0.27402 0.26817 0.0
C75 C 1.01012 0.30639 0.26896 0.0
C76 C 0.03817 0.31251 0.19236 0.0
C77 C 0.04582 0.2848 0.10648 0.0
H78 H 0.37186 0.1095 0.1703 0.0
H79 H 0.26697 0.11425 0.3336 0.0
H80 H 0.28861 0.03185 0.08094 0.0
H81 H 0.24841 0.04729 0.40482 0.0
C82 C 0.22923 0.03985 0.33371 0.0
O83 O 0.23817 0.05942 0.23393 0.0
H84 H 0.23431 1.01062 0.31551 0.0
C85 C 0.34423 0.09971 0.18071 0.0
C86 C 0.33328 0.07048 0.11085 0.0
C87 C 0.32242 0.11306 0.27123 0.0
C88 C 0.28559 0.10204 0.27368 0.0
C89 C 0.27309 0.07191 0.21105 0.0
C90 C 0.2975 0.05541 0.12968 0.0
H91 H 0.45706 0.35227 0.15125 0.0
H92 H 0.47592 0.2544 0.34624 0.0
H93 H 0.54726 0.28175 0.07192 0.0
H94 H 0.53311 0.18361 0.16511 0.0
C95 C 0.51953 0.19645 0.23978 0.0
O96 O 0.53188 0.23284 0.24762 0.0
H97 H 0.48994 0.19631 0.21836 0.0
C98 C 0.47193 0.32735 0.16643 0.0
C99 C 0.50255 0.32048 0.09706 0.0
C100 C 0.46221 0.30479 0.25982 0.0
C101 C 0.48197 0.27237 0.27631 0.0
C102 C 0.51214 0.26306 0.21111 0.0
C103 C 0.52306 0.28768 0.12097 0.0
Eu104 Eu 1.002 0.05111 0.6571 0.0
C105 C 0.12176 0.09116 1.00397 0.0
N106 N 0.12261 0.07111 0.90515 0.0
C107 C 0.18021 0.0977 0.856 0.0
C108 C 0.1505 0.11539 0.03179 0.0
C109 C 0.15136 0.07393 0.83176 0.0
C110 C 0.17988 0.1184 0.95654 0.0
C111 C 0.09051 0.10894 0.17844 0.0
C112 C 0.09208 0.08741 0.07772 0.0
C113 C 0.11868 0.13362 0.20425 0.0
C114 C 0.14882 0.13641 0.13232 0.0
Eu115 Eu 0.07485 0.02822 0.88136 0.0
N116 N 0.06535 0.06246 0.05286 0.0
C117 C 0.06098 0.10465 0.25204 0.0
C118 C 0.03858 0.056 0.13105 0.0
C119 C 0.03503 0.07796 0.22842 0.0
H120 H 0.15301 0.05685 0.75677 0.0
H121 H 1.01279 0.0735 0.28721 0.0
H122 H 0.92014 0.03746 0.78694 0.0
H123 H 0.05583 0.98702 0.26538 0.0
H124 H 1.0204 0.0333 0.12272 0.0
H125 H 0.05864 0.12091 0.3294 0.0
H126 H 0.0573 0.02788 0.42961 0.0
H127 H 0.20297 0.09967 0.79781 0.0
H128 H 0.11759 0.15041 0.28071 0.0
H129 H 0.17051 0.15532 0.15443 0.0
H130 H 0.86429 1.0021 0.75433 0.0
H131 H 0.20237 0.13675 0.97507 0.0
H132 H 1.00012 0.95186 0.2199 0.0
N133 N 0.94747 1.01648 0.64002 0.0
C134 C 0.94444 0.99538 0.5437 0.0
C135 C 0.88674 0.99969 0.6951 0.0
C136 C 0.91216 0.97545 0.52049 0.0
C137 C 0.91897 1.01921 0.71453 0.0
C138 C 0.88329 0.97774 0.59779 0.0
N139 N 1.0047 1.01321 0.49088 0.0
C140 C 0.03361 1.0113 0.41794 0.0
C141 C 0.97095 0.97157 0.36827 0.0
C142 C 0.97357 0.99391 0.46717 0.0
C143 C 1.00101 0.96891 0.29596 0.0
C144 C 0.03255 0.98855 0.3217 0.0
H145 H 0.85807 0.96295 0.58252 0.0
H146 H 0.88477 0.93882 0.40151 0.0
H147 H 0.93634 0.93499 0.26943 0.0
O148 O 1.00202 0.10387 0.56891 0.0
O149 O 1.00985 0.98896 0.68345 0.0
O150 O 0.06973 0.98439 0.73746 0.0
O151 O 0.95359 0.07079 0.56729 0.0
O152 O 0.06181 0.06374 0.59734 0.0
O153 O 0.09773 0.02385 0.70054 0.0
O154 O 0.08277 0.97641 0.97344 0.0
O155 O 0.06761 0.08984 0.83725 0.0
O156 O 1.00669 0.09228 0.8072 0.0
O157 O 0.12629 1.01527 0.96587 0.0
O158 O 1.01544 1.0121 0.93542 0.0
O159 O 0.9807 0.05437 0.84064 0.0
C160 C 0.04022 0.9697 0.68915 0.0
C161 C 0.94507 0.13229 0.60052 0.0
C162 C 0.92211 0.1939 0.58884 0.0
C163 C 0.90617 0.1905 0.69701 0.0
C164 C 0.92863 0.12866 0.70871 0.0
C165 C 0.9091 0.15761 0.75622 0.0
C166 C 0.94122 0.16465 0.54073 0.0
C167 C 0.09317 0.04597 0.61288 0.0
C168 C 0.96682 0.10283 0.55076 0.0
C169 C 0.90944 0.95406 0.4208 0.0
C170 C 0.93877 0.95199 0.34533 0.0
C171 C 0.03697 0.10864 0.84173 0.0
C172 C 0.14364 0.95453 0.95407 0.0
C173 C 0.16933 0.89429 0.97932 0.0
C174 C 0.19443 0.90073 0.89206 0.0
C175 C 0.16884 0.96101 0.86572 0.0
C176 C 0.14427 0.92127 1.01047 0.0
C177 C 0.19426 0.93428 0.83575 0.0
C178 C 0.98444 0.03058 0.92402 0.0
C179 C 0.11745 0.98242 0.99113 0.0
H180 H 0.89234 0.21334 0.73614 0.0
H181 H 0.93124 0.1037 0.75704 0.0
H182 H 0.89699 0.15479 0.84011 0.0
H183 H 0.95462 0.16772 0.45856 0.0
H184 H 0.21357 0.87983 0.86678 0.0
H185 H 0.16896 0.98662 0.81998 0.0
H186 H 0.12479 0.91604 0.07811 0.0
H187 H 0.21347 0.9394 0.7677 0.0
Eu188 Eu 0.55005 0.06874 0.88463 0.0
C189 C 0.55039 0.91312 0.65316 0.0
N190 N 0.55426 0.94503 0.59547 0.0
C191 C 0.59216 0.91592 0.45674 0.0
C192 C 0.56905 0.88163 0.61732 0.0
C193 C 0.57312 0.94644 0.49533 0.0
C194 C 0.59084 0.88363 0.51948 0.0
C195 C 0.52065 0.87822 0.80283 0.0
C196 C 0.52626 0.91138 0.74498 0.0
C197 C 0.54053 0.84728 0.77046 0.0
C198 C 0.56466 0.84899 0.67807 0.0
Eu199 Eu 0.52322 0.99511 0.67343 0.0
N200 N 0.50761 0.94191 0.77581 0.0
C201 C 0.49477 0.877 0.89037 0.0
C202 C 0.48092 0.94035 0.8564 0.0
C203 C 0.4744 0.90803 0.91586 0.0
H204 H 0.57365 0.97128 0.44616 0.0
H205 H 0.45383 0.90714 0.98181 0.0
H206 H 0.49514 0.06871 0.1169 0.0
H207 H 0.59747 0.18646 0.64382 0.0
H208 H 0.46495 0.96398 0.87602 0.0
H209 H 0.4898 0.85207 0.93716 0.0
H210 H 0.59981 0.12352 0.71914 0.0
H211 H 0.60758 0.91718 0.3783 0.0
H212 H 0.53689 0.82169 0.8149 0.0
H213 H 0.57922 0.82469 0.65276 0.0
H214 H 0.44545 0.10633 0.19497 0.0
H215 H 0.60574 0.86007 0.48954 0.0
H216 H 0.54825 0.22814 0.70515 0.0
N217 N 0.50859 0.10655 0.98574 0.0
C218 C 0.50321 0.14046 0.94353 0.0
C219 C 0.46132 0.11619 0.12372 0.0
C220 C 0.47578 0.16332 0.98738 0.0
C221 C 0.48942 0.09491 0.07883 0.0
C222 C 0.45384 0.15019 0.07587 0.0
N223 N 0.55243 0.12982 0.8207 0.0
C224 C 0.57867 0.14183 0.74757 0.0
C225 C 0.52379 0.18876 0.81904 0.0
C226 C 0.52646 0.15283 0.85993 0.0
C227 C 0.5494 0.20075 0.73909 0.0
C228 C 0.57728 0.17732 0.70446 0.0
H229 H 0.4322 0.16672 0.11126 0.0
H230 H 0.4511 0.21681 0.97667 0.0
H231 H 0.49348 0.23926 0.83 0.0
O232 O 0.60766 0.06494 0.92654 0.0
O233 O 0.52244 0.08989 0.71863 0.0
O234 O 0.53981 0.04879 0.58277 0.0
O235 O 0.57066 0.08811 0.05115 0.0
O236 O 0.59802 0.05372 0.76058 0.0
O237 O 0.58358 1.00535 0.63965 0.0
O238 O 0.48044 0.96028 0.60311 0.0
O239 O 0.55744 0.9746 0.83059 0.0
O240 O 0.53806 1.01333 0.96794 0.0
O241 O 0.50208 1.00342 0.49886 0.0
O242 O 0.47568 0.02769 0.75692 0.0
O243 O 0.49936 0.03605 0.93385 0.0
C244 C 0.53058 0.08235 0.61123 0.0
C245 C 0.61372 0.04472 0.11687 0.0
C246 C 0.64382 0.9867 0.15698 0.0
C247 C 0.63528 0.99132 0.27414 0.0
C248 C 0.60594 0.04876 0.23347 0.0
C249 C 0.616 1.02181 0.31127 0.0
C250 C 0.63106 1.01278 0.07867 0.0
C251 C 0.60719 0.02933 0.68094 0.0
C252 C 0.60236 0.07292 0.03425 0.0
C253 C 0.47196 0.19877 0.94401 0.0
C254 C 0.4961 0.21157 0.86052 0.0
C255 C 0.55163 0.98136 0.9401 0.0
C256 C 0.43838 0.99162 0.4919 0.0
C257 C 0.39125 0.03813 0.5016 0.0
C258 C 0.36487 1.01133 0.47516 0.0
C259 C 0.41171 0.9654 0.46596 0.0
C260 C 0.4281 0.02799 0.51016 0.0
C261 C 0.3751 0.97526 0.45787 0.0
C262 C 0.47052 0.0343 0.86672 0.0
C263 C 0.47605 0.97962 0.51145 0.0
H264 H 0.645 0.97246 0.33866 0.0
H265 H 0.59185 0.07265 0.26367 0.0
H266 H 0.60982 0.02515 0.40125 0.0
H267 H 0.63544 1.00858 0.9879 0.0
H268 H 0.33638 1.01842 0.46324 0.0
H269 H 0.41923 0.93718 0.45344 0.0
H270 H 0.44861 0.04834 0.53085 0.0
H271 H 0.35462 0.95498 0.43703 0.0
Eu272 Eu 0.57316 0.50654 0.63129 0.0
C273 C 0.4494 0.47801 0.96939 0.0
N274 N 0.44624 0.49411 0.86522 0.0
C275 C 0.38863 0.46465 0.83211 0.0
C276 C 0.42286 0.45296 1.00669 0.0
C277 C 0.41605 0.48857 0.79756 0.0
C278 C 0.39218 0.44651 0.93677 0.0
C279 C 0.48214 0.4713 0.14962 0.0
C280 C 0.47838 0.4878 0.04074 0.0
C281 C 0.45729 0.44444 0.18356 0.0
C282 C 0.42739 0.43567 0.11301 0.0
Eu283 Eu 0.49253 0.53514 0.81326 0.0
N284 N 0.50115 0.51516 1.00759 0.0
C285 C 0.50983 0.48335 0.22351 0.0
C286 C 0.52447 0.53027 0.08699 0.0
C287 C 0.53043 0.51352 0.19303 0.0
H288 H 0.41288 0.50291 0.71722 0.0
H289 H 0.55083 0.52405 0.25136 0.0
H290 H 0.63214 0.45902 0.79333 0.0
H291 H 0.60311 0.59948 0.27833 0.0
H292 H 0.53864 0.55534 0.07103 0.0
H293 H 0.51405 0.47095 0.30678 0.0
H294 H 0.56497 0.55977 0.39841 0.0
H295 H 0.3648 0.4602 0.77802 0.0
H296 H 0.46012 0.43149 0.26645 0.0
H297 H 0.40754 0.41601 0.14219 0.0
H298 H 0.69753 0.46039 0.84781 0.0
H299 H 0.37101 0.4278 0.96312 0.0
H300 H 0.66862 0.60774 0.32657 0.0
N301 N 0.63649 0.50246 0.67398 0.0
C302 C 0.65908 0.52569 0.61945 0.0
C303 C 0.68707 0.47903 0.78366 0.0
C304 C 0.69662 0.52736 0.64705 0.0
C305 C 0.65003 0.47842 0.75285 0.0
C306 C 0.71044 0.50388 0.73135 0.0
N307 N 0.60871 0.54339 0.50738 0.0
C308 C 0.59381 0.56161 0.4161 0.0
C309 C 0.66731 0.5704 0.47007 0.0
C310 C 0.64474 0.54671 0.53247 0.0
C311 C 0.65212 0.58948 0.37731 0.0
C312 C 0.61523 0.58476 0.3495 0.0
H313 H 0.73913 0.50428 0.75519 0.0
H314 H 0.74788 0.55417 0.60947 0.0
H315 H 0.72167 0.59326 0.45849 0.0
O316 O 0.54157 0.47081 0.52124 0.0
O317 O 0.57207 0.56948 0.63889 0.0
O318 O 0.51415 0.58322 0.70191 0.0
O319 O 0.59957 0.46131 0.54079 0.0
O320 O 0.52206 0.52942 0.53122 0.0
O321 O 0.47628 0.50885 0.64237 0.0
O322 O 0.45654 0.56517 0.92703 0.0
O323 O 0.49738 0.47349 0.77792 0.0
O324 O 0.5587 0.46802 0.78439 0.0
O325 O 0.44833 0.56859 0.74378 0.0
O326 O 0.55099 0.55466 0.87775 0.0
O327 O 0.58167 0.50458 0.8236 0.0
C328 C 0.54519 0.59312 0.65265 0.0
C329 C 0.55851 0.41091 0.54899 0.0
C330 C 0.50775 0.36829 0.57703 0.0
C331 C 0.52931 0.35016 0.66041 0.0
C332 C 0.5792 0.39261 0.63263 0.0
C333 C 0.5648 0.36198 0.68634 0.0
C334 C 0.52392 0.39769 0.51887 0.0
C335 C 0.48705 0.52087 0.54273 0.0
C336 C 0.56808 0.44765 0.5092 0.0
C337 C 0.71903 0.55211 0.58898 0.0
C338 C 0.70423 0.57404 0.50195 0.0
C339 C 0.5262 0.45402 0.80661 0.0
C340 C 0.43151 0.61873 0.85527 0.0
C341 C 0.46074 0.67667 0.89143 0.0
C342 C 0.42748 0.69006 0.93485 0.0
C343 C 0.39872 0.6318 0.8998 0.0
C344 C 0.46093 0.64226 0.84094 0.0
C345 C 0.39636 0.66799 0.93542 0.0
C346 C 0.58051 0.53368 0.8873 0.0
C347 C 0.43757 0.57978 0.84388 0.0
H348 H 0.51946 0.32711 0.70761 0.0
H349 H 0.60578 0.40263 0.6595 0.0
H350 H 0.58073 0.34805 0.75153 0.0
H351 H 0.50963 0.41174 0.45056 0.0
H352 H 0.42591 0.71656 0.97519 0.0
H353 H 0.3756 0.61379 0.91102 0.0
H354 H 0.48538 0.63237 0.80152 0.0
H355 H 0.3712 0.67814 0.97133 0.0
Eu356 Eu 0.0455 0.58238 0.62584 0.0
C357 C 0.07081 0.43956 0.908 0.0
N358 N 0.04382 0.44735 0.83075 0.0
C359 C 0.04796 0.38707 0.75238 0.0
C360 C 0.08868 0.4056 0.90654 0.0
C361 C 0.03166 0.42143 0.75517 0.0
C362 C 0.07685 0.37923 0.82755 0.0
C363 C 0.1102 0.45954 0.06513 0.0
C364 C 0.0813 0.46604 0.98686 0.0
C365 C 0.12875 0.42615 0.06172 0.0
C366 C 0.11797 0.39921 0.98287 0.0
Eu367 Eu 1.02037 0.50748 0.83356 0.0
N368 N 0.06527 0.49937 0.98002 0.0
C369 C 0.12068 0.48746 0.14071 0.0
C370 C 0.07453 0.52623 0.05616 0.0
C371 C 0.10236 0.52072 0.13743 0.0
H372 H 1.00912 0.42707 0.69734 0.0
H373 H 0.11005 0.54232 0.19629 0.0
H374 H 1.00573 0.65381 0.75399 0.0
H375 H 1.01638 0.51964 0.20466 0.0
H376 H 0.0608 0.55207 0.05368 0.0
H377 H 0.14314 0.48383 0.20077 0.0
H378 H 0.05341 0.532 0.3763 0.0
H379 H 0.03834 0.36672 0.69181 0.0
H380 H 0.15159 0.42095 0.11923 0.0
H381 H 0.13233 0.37347 0.98199 0.0
H382 H 0.95668 0.69809 0.71119 0.0
H383 H 0.08969 0.35272 0.82428 0.0
H384 H 0.96194 0.55705 0.16263 0.0
N385 N 0.99664 0.62328 0.6009 0.0
C386 C 0.97826 0.62062 0.4988 0.0
C387 C 0.96229 0.67628 0.6514 0.0
C388 C 0.94976 0.64502 0.47211 0.0
C389 C 0.98978 0.65105 0.67575 0.0
C390 C 0.94208 0.67318 0.54936 0.0
N391 N 1.01577 0.57008 0.44754 0.0
C392 C 0.02785 0.54607 0.36636 0.0
C393 C 0.96724 0.5886 0.31912 0.0
C394 C 0.98725 0.59266 0.42251 0.0
C395 C 0.9771 0.56121 0.24211 0.0
C396 C 1.00777 0.54009 0.26542 0.0
H397 H 0.92056 0.69257 0.53126 0.0
H398 H 0.90766 0.65889 0.34781 0.0
H399 H 0.92342 0.60938 0.21476 0.0
O400 O 0.07764 0.60162 0.48173 0.0
O401 O 0.98435 0.57554 0.67803 0.0
O402 O 0.97815 0.51493 0.68512 0.0
O403 O 0.06662 0.63794 0.62211 0.0
O404 O 0.06362 0.52319 0.57312 0.0
O405 O 1.01575 0.49152 0.64518 0.0
O406 O 0.9852 0.51694 0.97906 0.0
O407 O 0.08348 0.51248 0.81358 0.0
O408 O 0.09628 0.56861 0.73807 0.0
O409 O 0.98231 0.4653 0.89029 0.0
O410 O 1.01088 0.5669 0.90082 0.0
O411 O 0.05364 0.60164 0.81083 0.0
C412 C 0.96419 0.54654 0.65551 0.0
C413 C 0.12229 0.64454 0.53045 0.0
C414 C 0.18513 0.62398 0.53372 0.0
C415 C 0.19587 0.65833 0.4914 0.0
C416 C 0.13299 0.67847 0.48865 0.0
C417 C 0.17 0.68575 0.47306 0.0
C418 C 0.14857 0.61911 0.56318 0.0
C419 C 0.0427 0.4935 0.57234 0.0
C420 C 0.08409 0.63344 0.52717 0.0
C421 C 0.92976 0.64057 0.36971 0.0
C422 C 0.93844 0.6123 0.29427 0.0
C423 C 0.10696 0.53901 0.79324 0.0
C424 C 0.92683 0.49243 0.94402 0.0
C425 C 0.8747 0.53339 0.92087 0.0
C426 C 0.85135 0.50284 0.92667 0.0
C427 C 0.90316 0.46261 0.94925 0.0
C428 C 0.91254 0.52735 0.92343 0.0
C429 C 0.86559 0.46779 0.93816 0.0
C430 C 0.03154 0.59655 0.89733 0.0
C431 C 0.96634 0.48734 0.96125 0.0
H432 H 0.22344 0.6635 0.46366 0.0
H433 H 0.11282 0.69866 0.46452 0.0
H434 H 0.17839 0.71171 0.43846 0.0
H435 H 0.13974 0.59344 0.59799 0.0
H436 H 0.822 0.50579 0.92934 0.0
H437 H 0.91372 0.43543 0.96309 0.0
H438 H 0.93098 0.55017 0.91487 0.0
H439 H 0.84731 0.44473 0.94375 0.0
C440 C 0.1687 1.01316 0.40713 0.0
C441 C 0.18964 0.04452 0.38148 0.0
C442 C 0.13708 1.01439 0.4767 0.0
C443 C 0.12367 0.04713 0.52399 0.0
H444 H 0.17798 0.98677 0.37818 0.0
H445 H 0.12348 0.98901 0.49651 0.0
S446 S 0.16782 0.13731 0.48799 0.0
N447 N 0.1941 0.10962 0.41332 0.0
N448 N 0.13442 0.11206 0.53937 0.0
C449 C 0.1434 0.07896 0.49629 0.0
C450 C 0.17619 0.07763 0.4268 0.0
C451 C 0.5542 0.14563 0.35299 0.0
C452 C 0.52531 0.17135 0.34798 0.0
C453 C 0.55585 0.11734 0.43704 0.0
C454 C 0.52873 0.1128 0.5213 0.0
H455 H 0.57527 0.14657 0.28857 0.0
H456 H 0.57884 0.09893 0.43687 0.0
S457 S 0.44731 0.17184 0.55026 0.0
N458 N 0.46869 0.18921 0.43881 0.0
N459 N 0.47256 0.13757 0.59565 0.0
C460 C 0.50042 0.13883 0.51985 0.0
C461 C 0.49848 0.1674 0.43399 0.0
C462 C 0.40153 0.50389 0.34375 0.0
C463 C 0.40466 0.53007 0.25547 0.0
C464 C 0.42818 0.50077 0.43427 0.0
C465 C 0.45949 0.52365 0.44237 0.0
H466 H 0.37817 0.48584 0.34386 0.0
H467 H 0.42409 0.48011 0.49899 0.0
S468 S 0.4791 0.59905 0.24032 0.0
N469 N 0.4412 0.58071 0.18805 0.0
N470 N 0.49002 0.57496 0.35513 0.0
C471 C 0.46252 0.55013 0.35555 0.0
C472 C 0.43559 0.55329 0.26392 0.0
C473 C 1.01398 0.41828 0.35441 0.0
C474 C 0.04687 0.40432 0.30939 0.0
C475 C 1.01332 0.4465 0.43807 0.0
C476 C 0.04545 0.46346 0.48097 0.0
H477 H 0.98812 0.40797 0.32206 0.0
H478 H 0.98698 0.45578 0.46751 0.0
S479 S 0.13932 0.43509 0.40344 0.0
N480 N 0.11294 0.40823 0.32404 0.0
N481 N 0.11161 0.46159 0.47712 0.0
C482 C 0.07865 0.44926 0.43941 0.0
C483 C 0.07935 0.41983 0.35547 0.0
C484 C 0.90088 0.99883 0.10409 0.0
C485 C 0.88897 0.03104 0.15981 0.0
C486 C 0.93288 0.99784 0.03452 0.0
C487 C 0.95437 0.02922 1.01465 0.0
H488 H 0.88421 0.97457 0.10933 0.0
H489 H 0.93958 0.97277 0.99063 0.0
S490 S 0.9378 0.11974 0.14698 0.0
N491 N 0.90423 0.09436 0.19611 0.0
N492 N 0.96211 0.09283 0.0638 0.0
C493 C 0.94355 0.06102 0.07344 0.0
C494 C 0.91175 0.06183 0.1461 0.0
C495 C 0.57312 0.88936 0.09951 0.0
C496 C 0.54829 0.88895 0.1923 0.0
C497 C 0.57508 0.91919 1.02029 0.0
C498 C 0.55226 0.95033 0.02893 0.0
H499 H 0.5904 0.86594 0.08558 0.0
H500 H 0.59419 0.91746 0.95022 0.0
S501 S 0.4787 0.96074 0.24237 0.0
N502 N 0.49786 0.92171 0.2775 0.0
N503 N 0.50233 0.97668 0.13426 0.0
C504 C 0.52748 0.94998 0.1207 0.0
C505 C 0.52515 0.91974 0.19968 0.0
C506 C 0.66991 0.56554 0.04314 0.0
C507 C 0.67825 0.53668 0.11997 0.0
C508 C 0.63709 0.5663 0.97492 0.0
C509 C 0.61067 0.53816 0.97903 0.0
H510 H 0.69005 0.58665 0.03002 0.0
H511 H 0.63362 0.58796 0.91295 0.0
S512 S 0.61783 0.45694 0.16764 0.0
N513 N 0.65517 0.48031 0.19896 0.0
N514 N 0.59582 0.48072 0.0688 0.0
C515 C 0.61828 0.50988 0.05786 0.0
C516 C 0.65106 0.50952 0.12884 0.0
C517 C 0.99576 0.66373 0.13221 0.0
C518 C 0.02748 0.68178 0.1743 0.0
C519 C 0.99704 0.63617 0.04528 0.0
C520 C 0.03007 0.62564 0.99248 0.0
H521 H 0.96965 0.67024 0.16946 0.0
H522 H 0.97178 0.62315 1.01878 0.0
S523 S 0.12122 0.66408 0.0684 0.0
N524 N 0.09319 0.68601 0.15431 0.0
N525 N 0.09541 0.63653 0.98991 0.0
C526 C 0.06177 0.64428 0.03124 0.0
C527 C 0.06054 0.67161 0.12139 0.0
C528 C 0.93094 0.24978 0.33407 0.0
C529 C 0.96456 0.2664 0.36097 0.0
C530 C 0.91151 0.23128 0.41835 0.0
C531 C 0.92544 0.22892 0.53091 0.0
H532 H 0.92161 0.24785 0.24559 0.0
H533 H 0.8886 0.21443 0.39185 0.0
S534 S 1.00677 0.27559 0.6511 0.0
N535 N 1.00694 0.28538 0.51279 0.0
N536 N 0.96966 0.25099 0.67095 0.0
C537 C 0.95531 0.25064 0.5627 0.0
C538 C 0.97543 0.26911 0.47709 0.0
C539 C 0.37905 0.13006 0.37672 0.0
C540 C 0.34051 0.1286 0.37846 0.0
C541 C 0.3986 0.10143 0.42842 0.0
C542 C 0.38033 0.07689 0.50075 0.0
H543 H 0.39269 0.14603 0.31198 0.0
H544 H 0.42626 0.09622 0.40094 0.0
S545 S 0.29023 0.09443 0.63041 0.0
N546 N 0.29305 0.12386 0.52373 0.0
N547 N 0.32874 0.07102 0.62959 0.0
C548 C 0.34602 0.08756 0.54129 0.0
C549 C 0.32672 0.11572 0.48346 0.0
C550 C 0.43355 0.35662 0.36345 0.0
C551 C 0.43781 0.31866 0.35469 0.0
C552 C 0.45055 0.37506 0.45521 0.0
C553 C 0.47062 0.35515 0.53851 0.0
H554 H 0.42317 0.37234 0.29207 0.0
H555 H 0.45143 0.40443 0.45278 0.0
S556 S 0.44131 0.26215 0.61726 0.0
N557 N 0.42747 0.26719 0.4825 0.0
N558 N 0.46269 0.30013 0.65307 0.0
C559 C 0.45878 0.31911 0.55406 0.0
C560 C 0.43987 0.30136 0.46238 0.0
C561 C 0.21019 0.53473 0.40369 0.0
C562 C 0.24628 0.54204 0.37297 0.0
C563 C 0.19118 0.55908 0.47216 0.0
C564 C 0.20811 0.59109 0.51503 0.0
H565 H 0.19512 0.51282 0.36234 0.0
H566 H 0.16206 0.55464 0.47707 0.0
S567 S 0.30709 0.61138 0.50817 0.0
N568 N 0.30164 0.57617 0.42137 0.0
N569 N 0.26627 0.61998 0.56039 0.0
C570 C 0.24626 0.59346 0.50786 0.0
C571 C 0.26544 0.56933 0.43418 0.0
C572 C 0.11745 0.81529 0.06928 0.0
C573 C 0.12429 0.81688 0.18849 0.0
C574 C 0.13822 0.83595 0.9936 0.0
C575 C 0.16586 0.859 0.03559 0.0
H576 H 0.09329 0.80184 0.03541 0.0
H577 H 0.12902 0.83811 0.90506 0.0
S578 S 0.20172 0.86371 0.33339 0.0
N579 N 0.16677 0.83537 0.33993 0.0
N580 N 0.20465 0.87585 0.19726 0.0
C581 C 0.17686 0.85599 0.15073 0.0
C582 C 0.15614 0.83454 0.22772 0.0
C583 C 0.71191 0.91623 0.22087 0.0
C584 C 0.74198 0.93819 0.19178 0.0
C585 C 0.6766 0.92777 0.18951 0.0
C586 C 0.67203 0.95949 0.12291 0.0
H587 H 0.71452 0.89704 0.29091 0.0
H588 H 0.65355 0.91593 0.23318 0.0
S589 S 0.74471 1.00088 0.9449 0.0
N590 N 0.7665 0.97361 0.03468 0.0
N591 N 0.70096 0.9962 0.97408 0.0
C592 C 0.70243 0.97077 0.05843 0.0
C593 C 0.7379 0.95851 0.09072 0.0
C594 C 0.52234 0.74942 1.00651 0.0
C595 C 0.54849 0.72852 0.06668 0.0
C596 C 0.49677 0.73278 0.9338 0.0
C597 C 0.49588 0.69477 0.92214 0.0
H598 H 0.51843 0.77796 0.02597 0.0
H599 H 0.47514 0.74936 0.89745 0.0
S600 S 0.56798 0.63093 0.02728 0.0
N601 N 0.58024 0.67096 0.07852 0.0
N602 N 0.53004 0.63815 0.95334 0.0
C603 C 0.52609 0.67471 0.96546 0.0
C604 C 0.55305 0.69217 0.03491 0.0
C605 C 0.86033 0.62139 0.07555 0.0
C606 C 0.82248 0.61719 0.08812 0.0
C607 C 0.87933 0.59614 1.00812 0.0
C608 C 0.85993 0.57087 0.93866 0.0
H609 H 0.87544 0.6382 0.13579 0.0
H610 H 0.90847 0.59409 1.02155 0.0
S611 S 0.76354 0.58371 0.84867 0.0
N612 N 0.76881 0.60997 0.96299 0.0
N613 N 0.80351 0.56412 0.82771 0.0
C614 C 0.8232 0.57919 0.91523 0.0
C615 C 0.80449 0.60373 0.98871 0.0
C616 C 0.9991 0.19625 0.98736 0.0
C617 C 0.02989 0.21816 1.01792 0.0
C618 C 1.00183 0.16228 0.92938 0.0
C619 C 0.03549 0.14731 0.89515 0.0
H620 H 0.97195 0.20505 1.01031 0.0
H621 H 0.97689 0.14728 0.91294 0.0
S622 S 0.12373 0.19762 0.91814 0.0
N623 N 0.09504 0.22422 0.98742 0.0
N624 N 0.09977 0.16207 0.87337 0.0
C625 C 0.06623 0.17041 0.91383 0.0
C626 C 0.06353 0.20511 0.97522 0.0
C627 C 0.38531 0.02647 0.06306 0.0
C628 C 0.36259 0.05581 0.02962 0.0
C629 C 0.4192 1.01902 1.00836 0.0
C630 C 0.43238 0.04019 0.91608 0.0
H631 H 0.37789 1.01033 0.13692 0.0
H632 H 0.43565 0.99683 0.04065 0.0
S633 S 0.3859 0.12214 0.8008 0.0
N634 N 0.35792 0.10755 0.90115 0.0
N635 N 0.42004 0.09285 0.79762 0.0
C636 C 0.4098 0.06921 0.88068 0.0
C637 C 0.37564 0.07719 0.93745 0.0
C638 C 0.54462 0.37076 1.0115 0.0
C639 C 0.51183 0.35015 1.00745 0.0
C640 C 0.54957 0.4032 0.94496 0.0
C641 C 0.52183 0.41763 0.87177 0.0
H642 H 0.56622 0.36261 0.07018 0.0
H643 H 0.57518 0.41767 0.95354 0.0
S644 S 0.43246 0.37213 0.81761 0.0
N645 N 0.45252 0.34571 0.91366 0.0
N646 N 0.46141 0.40559 0.79299 0.0
C647 C 0.48956 0.39649 0.86412 0.0
C648 C 0.48475 0.36339 0.93015 0.0
C649 C 0.19617 0.49775 0.92993 0.0
C650 C 0.21885 0.52793 0.95703 0.0
C651 C 0.1617 0.50137 0.87195 0.0
C652 C 0.14666 0.53555 0.84029 0.0
H653 H 0.2043 0.47097 0.959 0.0
H654 H 0.14613 0.47691 0.85478 0.0
S655 S 0.19511 0.62361 0.88567 0.0
N656 N 0.22357 0.59344 0.94139 0.0
N657 N 0.15962 0.60033 0.83643 0.0
C658 C 0.16974 0.56583 0.86272 0.0
C659 C 0.20509 0.56204 0.92042 0.0
C660 C 1.01365 0.88177 0.51125 0.0
C661 C 0.0462 0.86106 0.50693 0.0
C662 C 1.01138 0.91536 0.57402 0.0
C663 C 0.04177 0.93134 0.63294 0.0
H664 H 0.99002 0.87277 0.46219 0.0
H665 H 0.98544 0.92921 0.57431 0.0
S666 S 0.13209 0.88592 0.66314 0.0
N667 N 0.10818 0.85746 0.58246 0.0
N668 N 0.10463 0.92032 0.6908 0.0
C669 C 0.07377 0.90982 0.63401 0.0
C670 C 0.07575 0.87522 0.57374 0.0
C671 C 0.69654 0.04783 0.50853 0.0
C672 C 0.71772 1.01596 0.5261 0.0
C673 C 0.66215 0.05346 0.56383 0.0
C674 C 0.64649 0.02707 0.63726 0.0
H675 H 0.70544 0.06758 0.44599 0.0
H676 H 0.64666 0.07767 0.54304 0.0
S677 S 0.69053 0.93976 0.71728 0.0
N678 N 0.72018 0.95884 0.63009 0.0
N679 N 0.6562 0.96862 0.72724 0.0
C680 C 0.66787 0.99591 0.65824 0.0
C681 C 0.70301 0.99062 0.60494 0.0
C682 C 0.52173 0.68642 0.50633 0.0
C683 C 0.55592 0.70321 0.48465 0.0
C684 C 0.51843 0.65234 0.56467 0.0
C685 C 0.54916 0.63198 0.60278 0.0
H686 H 0.49713 0.69888 0.47232 0.0
H687 H 0.49137 0.64095 0.57452 0.0
S688 S 0.64523 0.66351 0.57273 0.0
N689 N 0.62123 0.69619 0.51079 0.0
N690 N 0.61533 0.63331 0.61845 0.0
C691 C 0.58343 0.64893 0.58451 0.0
C692 C 0.5867 0.68382 0.52627 0.0
C693 C 0.88248 0.52839 0.44075 0.0
C694 C 0.85731 0.55699 0.46062 0.0
C695 C 0.91574 0.52442 0.50593 0.0
C696 C 0.92665 0.54935 0.59333 0.0
H697 H 0.87717 0.50959 0.3708 0.0
H698 H 0.93392 0.50236 0.48383 0.0
S699 S 0.87043 0.6282 0.68498 0.0
N700 N 0.84608 0.61001 0.57917 0.0
N701 N 0.90737 0.60276 0.69897 0.0
C702 C 0.90136 0.57752 0.61555 0.0
C703 C 0.86742 0.58133 0.55019 0.0
loop_
_geom_bond_atom_site_label_1
_geom_bond_atom_site_label_2
_geom_bond_distance
_geom_bond_site_symmetry_2
_ccdc_geom_bond_type
H0 C7 0.929 . S
H1 C10 0.930 . S
H2 C12 0.929 . S
H3 C4 0.969 . S
C4 H3 0.969 . S
C4 O5 1.550 . S
C4 H6 0.973 . S
O5 C4 1.550 . S
O5 C11 1.412 . S
H6 C4 0.973 . S
C7 H0 0.929 . S
C7 C8 1.400 . S
C7 C9 1.364 . S
C8 C7 1.400 . S
C8 C12 1.377 . S
C9 C7 1.364 . S
C9 C10 1.374 . S
C10 H1 0.930 . S
C10 C9 1.374 . S
C10 C11 1.383 . S
C11 O5 1.412 . S
C11 C10 1.383 . S
C11 C12 1.394 . S
C12 H2 0.929 . S
C12 C8 1.377 . S
C12 C11 1.394 . S
H13 C20 0.929 . S
H14 C23 0.930 . S
H15 C25 0.929 . S
H16 C17 0.969 1_455 S
C17 H16 0.969 1_655 S
C17 O18 1.550 . S
C17 H19 0.973 . S
O18 C17 1.550 . S
O18 C24 1.412 . S
H19 C17 0.973 . S
C20 H13 0.929 . S
C20 C21 1.400 . S
C20 C22 1.364 . S
C21 C20 1.400 . S
C21 C25 1.377 . S
C22 C20 1.364 . S
C22 C23 1.374 . S
C23 H14 0.930 . S
C23 C22 1.374 . S
C23 C24 1.383 . S
C24 O18 1.412 . S
C24 C23 1.383 . S
C24 C25 1.394 . S
C25 H15 0.929 . S
C25 C21 1.377 . S
C25 C24 1.394 . S
H26 C33 0.929 . S
H27 C36 0.930 . S
H28 C38 0.929 . S
H29 C30 0.969 1_545 S
C30 H29 0.969 1_565 S
C30 O31 1.550 . S
C30 H32 0.973 . S
O31 C30 1.550 . S
O31 C37 1.412 . S
H32 C30 0.973 . S
C33 H26 0.929 . S
C33 C34 1.400 . S
C33 C35 1.364 . S
C34 C33 1.400 . S
C34 C38 1.377 . S
C35 C33 1.364 . S
C35 C36 1.374 . S
C36 H27 0.930 . S
C36 C35 1.374 . S
C36 C37 1.383 . S
C37 O31 1.412 . S
C37 C36 1.383 . S
C37 C38 1.394 . S
C38 H28 0.929 . S
C38 C34 1.377 . S
C38 C37 1.394 . S
H39 C46 0.929 . S
H40 C49 0.930 . S
H41 C51 0.929 . S
H42 C43 0.969 . S
C43 H42 0.969 . S
C43 O44 1.550 . S
C43 H45 0.973 . S
O44 C43 1.550 . S
O44 C50 1.412 . S
H45 C43 0.973 . S
C46 H39 0.929 . S
C46 C47 1.400 . S
C46 C48 1.364 . S
C47 C46 1.400 . S
C47 C51 1.377 . S
C48 C46 1.364 . S
C48 C49 1.374 . S
C49 H40 0.930 . S
C49 C48 1.374 . S
C49 C50 1.383 . S
C50 O44 1.412 . S
C50 C49 1.383 . S
C50 C51 1.394 . S
C51 H41 0.929 . S
C51 C47 1.377 . S
C51 C50 1.394 . S
H52 C59 0.929 . S
H53 C62 0.930 . S
H54 C64 0.929 . S
H55 C56 0.969 . S
C56 H55 0.969 . S
C56 O57 1.550 . S
C56 H58 0.973 . S
O57 C56 1.550 . S
O57 C63 1.412 . S
H58 C56 0.973 . S
C59 H52 0.929 . S
C59 C60 1.400 1_554 S
C59 C61 1.364 . S
C60 C59 1.400 1_556 S
C60 C64 1.377 . S
C61 C59 1.364 . S
C61 C62 1.374 . S
C62 H53 0.930 . S
C62 C61 1.374 . S
C62 C63 1.383 . S
C63 O57 1.412 . S
C63 C62 1.383 . S
C63 C64 1.394 1_554 S
C64 H54 0.929 . S
C64 C60 1.377 . S
C64 C63 1.394 1_556 S
H65 C72 0.929 . S
H66 C75 0.930 . S
H67 C77 0.929 . S
H68 C69 0.969 . S
C69 H68 0.969 . S
C69 O70 1.550 . S
C69 H71 0.973 . S
O70 C69 1.550 . S
O70 C76 1.412 . S
H71 C69 0.973 . S
C72 H65 0.929 . S
C72 C73 1.400 1_554 S
C72 C74 1.364 . S
C73 C72 1.400 1_556 S
C73 C77 1.377 . S
C74 C72 1.364 . S
C74 C75 1.374 . S
C75 H66 0.930 . S
C75 C74 1.374 . S
C75 C76 1.383 . S
C76 O70 1.412 . S
C76 C75 1.383 . S
C76 C77 1.394 1_554 S
C77 H67 0.929 . S
C77 C73 1.377 . S
C77 C76 1.394 1_556 S
H78 C85 0.929 . S
H79 C88 0.930 . S
H80 C90 0.929 . S
H81 C82 0.969 . S
C82 H81 0.969 . S
C82 O83 1.550 . S
C82 H84 0.973 . S
O83 C82 1.550 . S
O83 C89 1.412 . S
H84 C82 0.973 . S
C85 H78 0.929 . S
C85 C86 1.400 1_554 S
C85 C87 1.364 . S
C86 C85 1.400 1_556 S
C86 C90 1.377 . S
C87 C85 1.364 . S
C87 C88 1.374 . S
C88 H79 0.930 . S
C88 C87 1.374 . S
C88 C89 1.383 . S
C89 O83 1.412 . S
C89 C88 1.383 . S
C89 C90 1.394 1_554 S
C90 H80 0.929 . S
C90 C86 1.377 . S
C90 C89 1.394 1_556 S
H91 C98 0.929 . S
H92 C101 0.930 . S
H93 C103 0.929 . S
H94 C95 0.969 . S
C95 H94 0.969 . S
C95 O96 1.550 . S
C95 H97 0.973 . S
O96 C95 1.550 . S
O96 C102 1.412 . S
H97 C95 0.973 . S
C98 H91 0.929 . S
C98 C99 1.400 1_554 S
C98 C100 1.364 . S
C99 C98 1.400 1_556 S
C99 C103 1.377 . S
C100 C98 1.364 . S
C100 C101 1.374 . S
C101 H92 0.930 . S
C101 C100 1.374 . S
C101 C102 1.383 . S
C102 O96 1.412 . S
C102 C101 1.383 . S
C102 C103 1.394 1_554 S
C103 H93 0.929 . S
C103 C99 1.377 . S
C103 C102 1.394 1_556 S
Eu104 N133 2.600 . S
Eu104 N139 2.562 . S
Eu104 O148 2.462 . S
Eu104 O149 2.373 1_545 S
Eu104 O151 2.432 . S
Eu104 O152 2.291 1_655 S
Eu104 O156 2.335 1_655 S
Eu104 O159 2.372 . S
Eu104 C168 2.787 . S
C105 N106 1.365 1_554 S
C105 C108 1.405 . S
C105 C112 1.448 . S
N106 C105 1.365 1_556 S
N106 C109 1.319 . S
N106 Eu115 2.600 1_545 S
C107 C109 1.397 . S
C107 C110 1.367 . S
C107 H127 0.931 . S
C108 C105 1.405 . S
C108 C110 1.403 1_554 S
C108 C114 1.439 . S
C109 N106 1.319 . S
C109 C107 1.397 . S
C109 H120 0.930 1_545 S
C110 C107 1.367 . S
C110 C108 1.403 1_556 S
C110 H131 0.929 . S
C111 C112 1.430 . S
C111 C113 1.387 . S
C111 C117 1.404 . S
C112 C105 1.448 . S
C112 C111 1.430 . S
C112 N116 1.351 . S
C113 C111 1.387 . S
C113 C114 1.374 . S
C113 H128 0.931 . S
C114 C108 1.439 . S
C114 C113 1.374 . S
C114 H129 0.931 . S
Eu115 N106 2.600 1_565 S
Eu115 N116 2.562 1_566 S
Eu115 O150 2.335 . S
Eu115 O153 2.372 . S
Eu115 O154 2.462 . S
Eu115 O155 2.373 1_565 S
Eu115 O157 2.432 . S
Eu115 O158 2.291 1_465 S
Eu115 C179 2.787 . S
N116 C112 1.351 . S
N116 Eu115 2.562 1_544 S
N116 C118 1.325 . S
C117 C111 1.404 . S
C117 C119 1.366 . S
C117 H125 0.930 . S
C118 N116 1.325 . S
C118 C119 1.416 . S
C118 H124 0.958 . S
C119 C117 1.366 . S
C119 C118 1.416 . S
C119 H121 0.930 . S
H120 C109 0.930 1_565 S
H121 C119 0.930 . S
H122 C137 0.930 . S
H123 C144 0.930 1_455 S
H124 C118 0.958 . S
H125 C117 0.930 . S
H126 C140 0.929 1_455 S
H127 C107 0.931 . S
H128 C113 0.931 . S
H129 C114 0.931 . S
H130 C135 0.931 . S
H131 C110 0.929 . S
H132 C143 0.930 . S
N133 Eu104 2.600 . S
N133 C134 1.365 1_545 S
N133 C137 1.319 . S
C134 N133 1.365 1_565 S
C134 C136 1.405 . S
C134 C142 1.448 . S
C135 H130 0.931 . S
C135 C137 1.397 . S
C135 C138 1.367 1_545 S
C136 C134 1.405 . S
C136 C138 1.403 . S
C136 C169 1.439 . S
C137 H122 0.930 . S
C137 N133 1.319 . S
C137 C135 1.397 . S
C138 C135 1.367 1_565 S
C138 C136 1.403 . S
C138 H145 0.929 . S
N139 Eu104 2.562 . S
N139 C140 1.325 . S
N139 C142 1.351 1_545 S
C140 H126 0.929 1_655 S
C140 N139 1.325 . S
C140 C144 1.416 1_545 S
C141 C142 1.430 . S
C141 C143 1.404 . S
C141 C170 1.387 . S
C142 C134 1.448 . S
C142 N139 1.351 1_565 S
C142 C141 1.430 . S
C143 H132 0.930 . S
C143 C141 1.404 . S
C143 C144 1.366 . S
C144 H123 0.930 1_655 S
C144 C140 1.416 1_565 S
C144 C143 1.366 . S
H145 C138 0.929 . S
H146 C169 0.931 . S
H147 C170 0.931 . S
O148 Eu104 2.462 . S
O148 C168 1.252 . S
O149 Eu104 2.373 1_565 S
O149 C160 1.249 . S
O150 Eu115 2.335 . S
O150 C160 1.264 1_455 S
O151 Eu104 2.432 . S
O151 C168 1.268 . S
O152 Eu104 2.291 1_455 S
O152 C167 1.255 . S
O153 Eu115 2.372 . S
O153 C167 1.257 1_565 S
O154 Eu115 2.462 . S
O154 C179 1.252 . S
O155 Eu115 2.373 1_545 S
O155 C171 1.249 . S
O156 Eu104 2.335 1_455 S
O156 C171 1.264 . S
O157 Eu115 2.432 . S
O157 C179 1.268 . S
O158 Eu115 2.291 1_645 S
O158 C178 1.255 . S
O159 Eu104 2.372 . S
O159 C178 1.257 . S
C160 O149 1.249 . S
C160 O150 1.264 1_655 S
C161 C164 1.382 . S
C161 C166 1.390 . S
C161 C168 1.506 . S
C162 C163 1.398 . S
C162 C166 1.392 . S
C163 C162 1.398 . S
C163 C165 1.372 . S
C163 H180 0.931 . S
C164 C161 1.382 . S
C164 C165 1.390 . S
C164 H181 0.931 . S
C165 C163 1.372 . S
C165 C164 1.390 . S
C165 H182 0.929 . S
C166 C161 1.390 . S
C166 C162 1.392 . S
C166 H183 0.930 1_655 S
C167 O152 1.255 . S
C167 O153 1.257 1_545 S
C168 Eu104 2.787 . S
C168 O148 1.252 . S
C168 O151 1.268 . S
C168 C161 1.506 . S
C169 C136 1.439 . S
C169 H146 0.931 . S
C169 C170 1.374 . S
C170 C141 1.387 . S
C170 H147 0.931 . S
C170 C169 1.374 . S
C171 O155 1.249 . S
C171 O156 1.264 . S
C172 C175 1.382 . S
C172 C176 1.390 . S
C172 C179 1.506 1_554 S
C173 C174 1.398 . S
C173 C176 1.392 . S
C174 C173 1.398 . S
C174 C177 1.372 . S
C174 H184 0.931 . S
C175 C172 1.382 . S
C175 C177 1.390 . S
C175 H185 0.931 1_554 S
C176 C172 1.390 . S
C176 C173 1.392 . S
C176 H186 0.930 . S
C177 C174 1.372 . S
C177 C175 1.390 . S
C177 H187 0.929 . S
C178 O158 1.255 . S
C178 O159 1.257 . S
C179 Eu115 2.787 . S
C179 O154 1.252 . S
C179 O157 1.268 . S
C179 C172 1.506 1_556 S
H180 C163 0.931 . S
H181 C164 0.931 . S
H182 C165 0.929 . S
H183 C166 0.930 1_455 S
H184 C174 0.931 . S
H185 C175 0.931 1_556 S
H186 C176 0.930 . S
H187 C177 0.929 . S
Eu188 N217 2.600 . S
Eu188 N223 2.562 . S
Eu188 O232 2.462 . S
Eu188 O233 2.373 . S
Eu188 O235 2.432 1_556 S
Eu188 O236 2.291 . S
Eu188 O240 2.335 1_545 S
Eu188 O243 2.372 . S
Eu188 C252 2.787 1_556 S
C189 N190 1.365 . S
C189 C192 1.405 . S
C189 C196 1.448 . S
N190 C189 1.365 . S
N190 C193 1.319 . S
N190 Eu199 2.600 . S
C191 C193 1.397 . S
C191 C194 1.367 . S
C191 H211 0.931 . S
C192 C189 1.405 . S
C192 C194 1.403 . S
C192 C198 1.439 . S
C193 N190 1.319 . S
C193 C191 1.397 . S
C193 H204 0.930 . S
C194 C191 1.367 . S
C194 C192 1.403 . S
C194 H215 0.929 . S
C195 C196 1.430 . S
C195 C197 1.387 . S
C195 C201 1.404 . S
C196 C189 1.448 . S
C196 C195 1.430 . S
C196 N200 1.351 . S
C197 C195 1.387 . S
C197 C198 1.374 . S
C197 H212 0.931 . S
C198 C192 1.439 . S
C198 C197 1.374 . S
C198 H213 0.931 . S
Eu199 N190 2.600 . S
Eu199 N200 2.562 . S
Eu199 O234 2.335 1_565 S
Eu199 O237 2.372 . S
Eu199 O238 2.462 . S
Eu199 O239 2.373 . S
Eu199 O241 2.432 . S
Eu199 O242 2.291 1_565 S
Eu199 C263 2.787 . S
N200 C196 1.351 . S
N200 Eu199 2.562 . S
N200 C202 1.325 . S
C201 C195 1.404 . S
C201 C203 1.366 . S
C201 H209 0.930 . S
C202 N200 1.325 . S
C202 C203 1.416 . S
C202 H208 0.929 . S
C203 C201 1.366 . S
C203 C202 1.416 . S
C203 H205 0.930 . S
H204 C193 0.930 . S
H205 C203 0.930 . S
H206 C221 0.930 1_554 S
H207 C228 0.930 . S
H208 C202 0.929 . S
H209 C201 0.930 . S
H210 C224 0.929 . S
H211 C191 0.931 . S
H212 C197 0.931 . S
H213 C198 0.931 . S
H214 C219 0.931 . S
H215 C194 0.929 . S
H216 C227 0.930 . S
N217 Eu188 2.600 . S
N217 C218 1.365 . S
N217 C221 1.319 . S
C218 N217 1.365 . S
C218 C220 1.405 . S
C218 C226 1.448 . S
C219 H214 0.931 . S
C219 C221 1.397 1_554 S
C219 C222 1.367 1_554 S
C220 C218 1.405 . S
C220 C222 1.403 . S
C220 C253 1.439 . S
C221 H206 0.930 1_556 S
C221 N217 1.319 . S
C221 C219 1.397 1_556 S
C222 C219 1.367 1_556 S
C222 C220 1.403 . S
C222 H229 0.929 1_556 S
N223 Eu188 2.562 . S
N223 C224 1.325 . S
N223 C226 1.351 . S
C224 H210 0.929 . S
C224 N223 1.325 . S
C224 C228 1.416 . S
C225 C226 1.430 . S
C225 C227 1.404 . S
C225 C254 1.387 . S
C226 C218 1.448 . S
C226 N223 1.351 . S
C226 C225 1.430 . S
C227 H216 0.930 . S
C227 C225 1.404 . S
C227 C228 1.366 . S
C228 H207 0.930 . S
C228 C224 1.416 . S
C228 C227 1.366 . S
H229 C222 0.929 1_554 S
H230 C253 0.931 . S
H231 C254 0.931 . S
O232 Eu188 2.462 . S
O232 C252 1.252 1_556 S
O233 Eu188 2.373 . S
O233 C244 1.249 . S
O234 Eu199 2.335 1_545 S
O234 C244 1.264 . S
O235 Eu188 2.432 1_554 S
O235 C252 1.268 . S
O236 Eu188 2.291 . S
O236 C251 1.264 . S
O237 Eu199 2.372 . S
O237 C251 1.251 1_565 S
O238 Eu199 2.462 . S
O238 C263 1.252 . S
O239 Eu199 2.373 . S
O239 C255 1.249 . S
O240 Eu188 2.335 1_565 S
O240 C255 1.264 . S
O241 Eu199 2.432 . S
O241 C263 1.268 . S
O242 Eu199 2.291 1_545 S
O242 C262 1.255 . S
O243 Eu188 2.372 . S
O243 C262 1.257 . S
C244 O233 1.249 . S
C244 O234 1.264 . S
C245 C248 1.382 . S
C245 C250 1.390 . S
C245 C252 1.506 . S
C246 C247 1.398 . S
C246 C250 1.392 . S
C247 C246 1.398 . S
C247 C249 1.372 . S
C247 H264 0.931 . S
C248 C245 1.382 . S
C248 C249 1.390 . S
C248 H265 0.931 . S
C249 C247 1.372 . S
C249 C248 1.390 . S
C249 H266 0.929 . S
C250 C245 1.390 . S
C250 C246 1.392 . S
C250 H267 0.930 . S
C251 O236 1.264 . S
C251 O237 1.251 1_545 S
C252 Eu188 2.787 1_554 S
C252 O232 1.252 1_554 S
C252 O235 1.268 . S
C252 C245 1.506 . S
C253 C220 1.439 . S
C253 H230 0.931 . S
C253 C254 1.374 . S
C254 C225 1.387 . S
C254 H231 0.931 . S
C254 C253 1.374 . S
C255 O239 1.249 . S
C255 O240 1.264 . S
C256 C259 1.382 . S
C256 C260 1.390 . S
C256 C263 1.506 . S
C257 C258 1.398 . S
C257 C260 1.392 . S
C258 C257 1.398 . S
C258 C261 1.372 . S
C258 H268 0.931 . S
C259 C256 1.382 . S
C259 C261 1.390 . S
C259 H269 0.931 . S
C260 C256 1.390 . S
C260 C257 1.392 . S
C260 H270 0.930 1_565 S
C261 C258 1.372 . S
C261 C259 1.390 . S
C261 H271 0.929 . S
C262 O242 1.255 . S
C262 O243 1.257 . S
C263 Eu199 2.787 . S
C263 O238 1.252 . S
C263 O241 1.268 . S
C263 C256 1.506 . S
H264 C247 0.931 . S
H265 C248 0.931 . S
H266 C249 0.929 . S
H267 C250 0.930 . S
H268 C258 0.931 . S
H269 C259 0.931 . S
H270 C260 0.930 1_545 S
H271 C261 0.929 . S
Eu272 N301 2.600 . S
Eu272 N307 2.562 . S
Eu272 O316 2.462 . S
Eu272 O317 2.373 . S
Eu272 O319 2.432 . S
Eu272 O320 2.291 . S
Eu272 O324 2.335 . S
Eu272 O327 2.372 . S
Eu272 C336 2.787 . S
C273 N274 1.365 1_554 S
C273 C276 1.405 . S
C273 C280 1.448 . S
N274 C273 1.365 1_556 S
N274 C277 1.319 . S
N274 Eu283 2.600 . S
C275 C277 1.397 . S
C275 C278 1.367 . S
C275 H295 0.931 . S
C276 C273 1.405 . S
C276 C278 1.403 1_554 S
C276 C282 1.439 . S
C277 N274 1.319 . S
C277 C275 1.397 . S
C277 H288 0.930 . S
C278 C275 1.367 . S
C278 C276 1.403 1_556 S
C278 H299 0.929 . S
C279 C280 1.430 . S
C279 C281 1.387 . S
C279 C285 1.404 . S
C280 C273 1.448 . S
C280 C279 1.430 . S
C280 N284 1.351 . S
C281 C279 1.387 . S
C281 C282 1.374 . S
C281 H296 0.931 . S
C282 C276 1.439 . S
C282 C281 1.374 . S
C282 H297 0.931 . S
Eu283 N274 2.600 . S
Eu283 N284 2.562 1_556 S
Eu283 O318 2.335 . S
Eu283 O321 2.372 . S
Eu283 O322 2.462 . S
Eu283 O323 2.373 . S
Eu283 O325 2.432 . S
Eu283 O326 2.291 . S
Eu283 C347 2.787 . S
N284 C280 1.351 . S
N284 Eu283 2.562 1_554 S
N284 C286 1.325 . S
C285 C279 1.404 . S
C285 C287 1.366 . S
C285 H293 0.930 . S
C286 N284 1.325 . S
C286 C287 1.416 . S
C286 H292 0.929 . S
C287 C285 1.366 . S
C287 C286 1.416 . S
C287 H289 0.930 . S
H288 C277 0.930 . S
H289 C287 0.930 . S
H290 C305 0.930 . S
H291 C312 0.930 . S
H292 C286 0.929 . S
H293 C285 0.930 . S
H294 C308 0.929 . S
H295 C275 0.931 . S
H296 C281 0.931 . S
H297 C282 0.931 . S
H298 C303 0.931 . S
H299 C278 0.929 . S
H300 C311 0.930 . S
N301 Eu272 2.600 . S
N301 C302 1.365 . S
N301 C305 1.319 . S
C302 N301 1.365 . S
C302 C304 1.405 . S
C302 C310 1.448 . S
C303 H298 0.931 . S
C303 C305 1.397 . S
C303 C306 1.367 . S
C304 C302 1.405 . S
C304 C306 1.403 . S
C304 C337 1.439 . S
C305 H290 0.930 . S
C305 N301 1.319 . S
C305 C303 1.397 . S
C306 C303 1.367 . S
C306 C304 1.403 . S
C306 H313 0.929 . S
N307 Eu272 2.562 . S
N307 C308 1.325 . S
N307 C310 1.351 . S
C308 H294 0.929 . S
C308 N307 1.325 . S
C308 C312 1.416 . S
C309 C310 1.430 . S
C309 C311 1.404 . S
C309 C338 1.387 . S
C310 C302 1.448 . S
C310 N307 1.351 . S
C310 C309 1.430 . S
C311 H300 0.930 . S
C311 C309 1.404 . S
C311 C312 1.366 . S
C312 H291 0.930 . S
C312 C308 1.416 . S
C312 C311 1.366 . S
H313 C306 0.929 . S
H314 C337 0.931 . S
H315 C338 0.931 . S
O316 Eu272 2.462 . S
O316 C336 1.252 . S
O317 Eu272 2.373 . S
O317 C328 1.249 . S
O318 Eu283 2.335 . S
O318 C328 1.264 . S
O319 Eu272 2.432 . S
O319 C336 1.268 . S
O320 Eu272 2.291 . S
O320 C335 1.255 . S
O321 Eu283 2.372 . S
O321 C335 1.257 . S
O322 Eu283 2.462 . S
O322 C347 1.252 . S
O323 Eu283 2.373 . S
O323 C339 1.249 . S
O324 Eu272 2.335 . S
O324 C339 1.264 . S
O325 Eu283 2.432 . S
O325 C347 1.268 . S
O326 Eu283 2.291 . S
O326 C346 1.255 . S
O327 Eu272 2.372 . S
O327 C346 1.257 . S
C328 O317 1.249 . S
C328 O318 1.264 . S
C329 C332 1.382 . S
C329 C334 1.390 . S
C329 C336 1.506 . S
C330 C331 1.398 . S
C330 C334 1.392 . S
C331 C330 1.398 . S
C331 C333 1.372 . S
C331 H348 0.931 . S
C332 C329 1.382 . S
C332 C333 1.390 . S
C332 H349 0.931 . S
C333 C331 1.372 . S
C333 C332 1.390 . S
C333 H350 0.929 . S
C334 C329 1.390 . S
C334 C330 1.392 . S
C334 H351 0.930 . S
C335 O320 1.255 . S
C335 O321 1.257 . S
C336 Eu272 2.787 . S
C336 O316 1.252 . S
C336 O319 1.268 . S
C336 C329 1.506 . S
C337 C304 1.439 . S
C337 H314 0.931 . S
C337 C338 1.374 . S
C338 C309 1.387 . S
C338 H315 0.931 . S
C338 C337 1.374 . S
C339 O323 1.249 . S
C339 O324 1.264 . S
C340 C343 1.382 . S
C340 C344 1.390 . S
C340 C347 1.506 1_554 S
C341 C342 1.398 . S
C341 C344 1.392 . S
C342 C341 1.398 . S
C342 C345 1.372 . S
C342 H352 0.931 . S
C343 C340 1.382 . S
C343 C345 1.390 . S
C343 H353 0.931 1_554 S
C344 C340 1.390 . S
C344 C341 1.392 . S
C344 H354 0.930 . S
C345 C342 1.372 . S
C345 C343 1.390 . S
C345 H355 0.929 . S
C346 O326 1.255 . S
C346 O327 1.257 . S
C347 Eu283 2.787 . S
C347 O322 1.252 . S
C347 O325 1.268 . S
C347 C340 1.506 1_556 S
H348 C331 0.931 . S
H349 C332 0.931 . S
H350 C333 0.929 . S
H351 C334 0.930 . S
H352 C342 0.931 . S
H353 C343 0.931 1_556 S
H354 C344 0.930 . S
H355 C345 0.929 . S
Eu356 N385 2.600 . S
Eu356 N391 2.562 . S
Eu356 O400 2.462 . S
Eu356 O401 2.373 1_455 S
Eu356 O403 2.432 . S
Eu356 O404 2.291 . S
Eu356 O408 2.335 . S
Eu356 O411 2.372 . S
Eu356 C420 2.787 . S
C357 N358 1.365 1_554 S
C357 C360 1.405 . S
C357 C364 1.448 . S
N358 C357 1.365 1_556 S
N358 C361 1.320 . S
N358 Eu367 2.600 1_455 S
C359 C361 1.400 . S
C359 C362 1.367 . S
C359 H379 0.931 . S
C360 C357 1.405 . S
C360 C362 1.403 1_554 S
C360 C366 1.439 . S
C361 N358 1.320 . S
C361 C359 1.400 . S
C361 H372 0.926 1_455 S
C362 C359 1.367 . S
C362 C360 1.403 1_556 S
C362 H383 0.929 . S
C363 C364 1.430 . S
C363 C365 1.387 . S
C363 C369 1.404 . S
C364 C357 1.448 . S
C364 C363 1.430 . S
C364 N368 1.351 . S
C365 C363 1.387 . S
C365 C366 1.374 . S
C365 H380 0.931 . S
C366 C360 1.439 . S
C366 C365 1.374 . S
C366 H381 0.931 . S
Eu367 N358 2.600 1_655 S
Eu367 N368 2.562 1_656 S
Eu367 O402 2.335 . S
Eu367 O405 2.372 . S
Eu367 O406 2.462 . S
Eu367 O407 2.373 1_655 S
Eu367 O409 2.432 . S
Eu367 O410 2.291 1_655 S
Eu367 C431 2.787 . S
N368 C364 1.351 . S
N368 Eu367 2.562 1_454 S
N368 C370 1.325 . S
C369 C363 1.404 . S
C369 C371 1.366 . S
C369 H377 0.930 . S
C370 N368 1.325 . S
C370 C371 1.416 . S
C370 H376 0.929 . S
C371 C369 1.366 . S
C371 C370 1.416 . S
C371 H373 0.930 . S
H372 C361 0.926 1_655 S
H373 C371 0.930 . S
H374 C389 0.930 . S
H375 C396 0.930 . S
H376 C370 0.929 . S
H377 C369 0.930 . S
H378 C392 0.929 . S
H379 C359 0.931 . S
H380 C365 0.931 . S
H381 C366 0.931 . S
H382 C387 0.931 . S
H383 C362 0.929 . S
H384 C395 0.930 . S
N385 Eu356 2.600 . S
N385 C386 1.365 1_455 S
N385 C389 1.319 . S
C386 N385 1.365 1_655 S
C386 C388 1.405 . S
C386 C394 1.448 . S
C387 H382 0.931 . S
C387 C389 1.397 . S
C387 C390 1.367 1_455 S
C388 C386 1.405 . S
C388 C390 1.403 . S
C388 C421 1.439 . S
C389 H374 0.930 . S
C389 N385 1.319 . S
C389 C387 1.397 . S
C390 C387 1.367 1_655 S
C390 C388 1.403 . S
C390 H397 0.929 . S
N391 Eu356 2.562 . S
N391 C392 1.325 . S
N391 C394 1.351 1_455 S
C392 H378 0.929 . S
C392 N391 1.325 . S
C392 C396 1.416 1_455 S
C393 C394 1.430 . S
C393 C395 1.404 . S
C393 C422 1.387 . S
C394 C386 1.448 . S
C394 N391 1.351 1_655 S
C394 C393 1.430 . S
C395 H384 0.930 . S
C395 C393 1.404 . S
C395 C396 1.366 . S
C396 H375 0.930 . S
C396 C392 1.416 1_655 S
C396 C395 1.366 . S
H397 C390 0.929 . S
H398 C421 0.931 . S
H399 C422 0.931 . S
O400 Eu356 2.462 . S
O400 C420 1.252 . S
O401 Eu356 2.373 1_655 S
O401 C412 1.249 . S
O402 Eu367 2.335 . S
O402 C412 1.264 . S
O403 Eu356 2.432 . S
O403 C420 1.268 . S
O404 Eu356 2.291 . S
O404 C419 1.255 . S
O405 Eu367 2.372 . S
O405 C419 1.257 1_655 S
O406 Eu367 2.462 . S
O406 C431 1.252 . S
O407 Eu367 2.373 1_455 S
O407 C423 1.249 . S
O408 Eu356 2.335 . S
O408 C423 1.264 . S
O409 Eu367 2.432 . S
O409 C431 1.268 . S
O410 Eu367 2.291 1_455 S
O410 C430 1.255 . S
O411 Eu356 2.372 . S
O411 C430 1.257 . S
C412 O401 1.249 . S
C412 O402 1.264 . S
C413 C416 1.382 . S
C413 C418 1.390 . S
C413 C420 1.506 . S
C414 C415 1.398 . S
C414 C418 1.392 . S
C415 C414 1.398 . S
C415 C417 1.372 . S
C415 H432 0.931 . S
C416 C413 1.382 . S
C416 C417 1.390 . S
C416 H433 0.931 . S
C417 C415 1.372 . S
C417 C416 1.390 . S
C417 H434 0.929 . S
C418 C413 1.390 . S
C418 C414 1.392 . S
C418 H435 0.930 . S
C419 O404 1.255 . S
C419 O405 1.257 1_455 S
C420 Eu356 2.787 . S
C420 O400 1.252 . S
C420 O403 1.268 . S
C420 C413 1.506 . S
C421 C388 1.439 . S
C421 H398 0.931 . S
C421 C422 1.374 . S
C422 C393 1.387 . S
C422 H399 0.931 . S
C422 C421 1.374 . S
C423 O407 1.249 . S
C423 O408 1.264 . S
C424 C427 1.382 . S
C424 C428 1.390 . S
C424 C431 1.506 1_554 S
C425 C426 1.398 . S
C425 C428 1.392 . S
C426 C425 1.398 . S
C426 C429 1.372 . S
C426 H436 0.931 . S
C427 C424 1.382 . S
C427 C429 1.390 . S
C427 H437 0.931 1_554 S
C428 C424 1.390 . S
C428 C425 1.392 . S
C428 H438 0.930 . S
C429 C426 1.372 . S
C429 C427 1.390 . S
C429 H439 0.929 . S
C430 O410 1.255 . S
C430 O411 1.257 . S
C431 Eu367 2.787 . S
C431 O406 1.252 . S
C431 O409 1.268 . S
C431 C424 1.506 1_556 S
H432 C415 0.931 . S
H433 C416 0.931 . S
H434 C417 0.929 . S
H435 C418 0.930 . S
H436 C426 0.931 . S
H437 C427 0.931 1_556 S
H438 C428 0.930 . S
H439 C429 0.929 . S
C440 C441 1.369 . S
C440 C442 1.419 . S
C440 H444 0.930 . S
C441 C440 1.369 . S
C441 C450 1.429 . S
C442 C440 1.419 . S
C442 C443 1.363 . S
C442 H445 0.929 1_545 S
C443 C442 1.363 . S
C443 C449 1.428 . S
H444 C440 0.930 . S
H445 C442 0.929 1_565 S
S446 N447 1.613 . S
S446 N448 1.610 . S
N447 S446 1.613 . S
N447 C450 1.350 . S
N448 S446 1.610 . S
N448 C449 1.351 . S
C449 C443 1.428 . S
C449 N448 1.351 . S
C449 C450 1.434 . S
C450 C441 1.429 . S
C450 N447 1.350 . S
C450 C449 1.434 . S
C451 C452 1.369 . S
C451 C453 1.419 . S
C451 H455 0.930 . S
C452 C451 1.369 . S
C452 C461 1.429 . S
C453 C451 1.419 . S
C453 C454 1.363 . S
C453 H456 0.929 . S
C454 C453 1.363 . S
C454 C460 1.428 . S
H455 C451 0.930 . S
H456 C453 0.929 . S
S457 N458 1.613 . S
S457 N459 1.610 . S
N458 S457 1.613 . S
N458 C461 1.350 . S
N459 S457 1.610 . S
N459 C460 1.351 . S
C460 C454 1.428 . S
C460 N459 1.351 . S
C460 C461 1.434 . S
C461 C452 1.429 . S
C461 N458 1.350 . S
C461 C460 1.434 . S
C462 C463 1.369 . S
C462 C464 1.419 . S
C462 H466 0.930 . S
C463 C462 1.369 . S
C463 C472 1.429 . S
C464 C462 1.419 . S
C464 C465 1.363 . S
C464 H467 0.929 . S
C465 C464 1.363 . S
C465 C471 1.428 . S
H466 C462 0.930 . S
H467 C464 0.929 . S
S468 N469 1.613 . S
S468 N470 1.610 . S
N469 S468 1.613 . S
N469 C472 1.350 . S
N470 S468 1.610 . S
N470 C471 1.351 . S
C471 C465 1.428 . S
C471 N470 1.351 . S
C471 C472 1.434 . S
C472 C463 1.429 . S
C472 N469 1.350 . S
C472 C471 1.434 . S
C473 C474 1.366 . S
C473 C475 1.419 1_455 S
C473 H477 0.933 1_455 S
C474 C473 1.366 . S
C474 C483 1.429 . S
C475 C473 1.419 1_655 S
C475 C476 1.363 1_655 S
C475 H478 0.929 . S
C476 C475 1.363 1_455 S
C476 C482 1.428 . S
H477 C473 0.933 1_655 S
H478 C475 0.929 . S
S479 N480 1.613 . S
S479 N481 1.610 . S
N480 S479 1.613 . S
N480 C483 1.350 . S
N481 S479 1.610 . S
N481 C482 1.351 . S
C482 C476 1.428 . S
C482 N481 1.351 . S
C482 C483 1.434 . S
C483 C474 1.429 . S
C483 N480 1.350 . S
C483 C482 1.434 . S
C484 C485 1.369 . S
C484 C486 1.419 . S
C484 H488 0.930 . S
C485 C484 1.369 . S
C485 C494 1.429 1_565 S
C486 C484 1.419 . S
C486 C487 1.369 . S
C486 H489 0.929 1_554 S
C487 C486 1.369 . S
C487 C493 1.424 1_565 S
H488 C484 0.930 . S
H489 C486 0.929 1_556 S
S490 N491 1.613 . S
S490 N492 1.610 . S
N491 S490 1.613 . S
N491 C494 1.350 . S
N492 S490 1.610 . S
N492 C493 1.351 . S
C493 C487 1.424 1_545 S
C493 N492 1.351 . S
C493 C494 1.434 . S
C494 C485 1.429 1_545 S
C494 N491 1.350 . S
C494 C493 1.434 . S
C495 C496 1.369 . S
C495 C497 1.419 . S
C495 H499 0.930 . S
C496 C495 1.369 . S
C496 C505 1.429 . S
C497 C495 1.419 . S
C497 C498 1.363 . S
C497 H500 0.929 1_554 S
C498 C497 1.363 . S
C498 C504 1.428 . S
H499 C495 0.930 . S
H500 C497 0.929 1_556 S
S501 N502 1.613 . S
S501 N503 1.610 . S
N502 S501 1.613 . S
N502 C505 1.350 . S
N503 S501 1.610 . S
N503 C504 1.351 . S
C504 C498 1.428 . S
C504 N503 1.351 . S
C504 C505 1.434 . S
C505 C496 1.429 . S
C505 N502 1.350 . S
C505 C504 1.434 . S
C506 C507 1.369 . S
C506 C508 1.419 . S
C506 H510 0.930 . S
C507 C506 1.369 . S
C507 C516 1.429 . S
C508 C506 1.419 . S
C508 C509 1.363 . S
C508 H511 0.929 . S
C509 C508 1.363 . S
C509 C515 1.428 . S
H510 C506 0.930 . S
H511 C508 0.929 . S
S512 N513 1.613 . S
S512 N514 1.610 . S
N513 S512 1.613 . S
N513 C516 1.350 . S
N514 S512 1.610 . S
N514 C515 1.351 . S
C515 C509 1.428 . S
C515 N514 1.351 . S
C515 C516 1.434 . S
C516 C507 1.429 . S
C516 N513 1.350 . S
C516 C515 1.434 . S
C517 C518 1.369 . S
C517 C519 1.419 . S
C517 H521 0.930 . S
C518 C517 1.369 . S
C518 C527 1.429 1_655 S
C519 C517 1.419 . S
C519 C520 1.363 . S
C519 H522 0.929 . S
C520 C519 1.363 . S
C520 C526 1.428 1_655 S
H521 C517 0.930 . S
H522 C519 0.929 . S
S523 N524 1.613 . S
S523 N525 1.610 1_554 S
N524 S523 1.613 . S
N524 C527 1.350 . S
N525 S523 1.610 1_556 S
N525 C526 1.351 1_556 S
C526 C520 1.428 1_455 S
C526 N525 1.351 1_554 S
C526 C527 1.434 . S
C527 C518 1.429 1_455 S
C527 N524 1.350 . S
C527 C526 1.434 . S
C528 C529 1.369 . S
C528 C530 1.419 1_455 S
C528 H532 0.930 1_455 S
C529 C528 1.369 . S
C529 C538 1.429 . S
C530 C528 1.419 1_655 S
C530 C531 1.363 . S
C530 H533 0.929 . S
C531 C530 1.363 . S
C531 C537 1.428 1_655 S
H532 C528 0.930 1_655 S
H533 C530 0.929 . S
S534 N535 1.613 . S
S534 N536 1.610 . S
N535 S534 1.613 . S
N535 C538 1.350 . S
N536 S534 1.610 . S
N536 C537 1.351 . S
C537 C531 1.428 1_455 S
C537 N536 1.351 . S
C537 C538 1.434 . S
C538 C529 1.429 . S
C538 N535 1.350 . S
C538 C537 1.434 . S
C539 C540 1.369 . S
C539 C541 1.419 . S
C539 H543 0.930 . S
C540 C539 1.369 . S
C540 C549 1.429 . S
C541 C539 1.419 . S
C541 C542 1.363 . S
C541 H544 0.929 . S
C542 C541 1.363 . S
C542 C548 1.428 1_545 S
H543 C539 0.930 . S
H544 C541 0.929 . S
S545 N546 1.613 . S
S545 N547 1.610 . S
N546 S545 1.613 . S
N546 C549 1.350 1_565 S
N547 S545 1.610 . S
N547 C548 1.351 . S
C548 C542 1.428 1_565 S
C548 N547 1.351 . S
C548 C549 1.434 1_565 S
C549 C540 1.429 . S
C549 N546 1.350 1_545 S
C549 C548 1.434 1_545 S
C550 C551 1.369 . S
C550 C552 1.419 . S
C550 H554 0.930 . S
C551 C550 1.369 . S
C551 C560 1.429 . S
C552 C550 1.419 . S
C552 C553 1.363 . S
C552 H555 0.929 . S
C553 C552 1.363 . S
C553 C559 1.428 . S
H554 C550 0.930 . S
H555 C552 0.929 . S
S556 N557 1.613 . S
S556 N558 1.610 . S
N557 S556 1.613 . S
N557 C560 1.350 . S
N558 S556 1.610 . S
N558 C559 1.351 . S
C559 C553 1.428 . S
C559 N558 1.351 . S
C559 C560 1.434 . S
C560 C551 1.429 . S
C560 N557 1.350 . S
C560 C559 1.434 . S
C561 C562 1.369 . S
C561 C563 1.419 . S
C561 H565 0.930 . S
C562 C561 1.369 . S
C562 C571 1.429 . S
C563 C561 1.419 . S
C563 C564 1.363 . S
C563 H566 0.929 . S
C564 C563 1.363 . S
C564 C570 1.428 . S
H565 C561 0.930 . S
H566 C563 0.929 . S
S567 N568 1.613 . S
S567 N569 1.610 . S
N568 S567 1.613 . S
N568 C571 1.350 . S
N569 S567 1.610 . S
N569 C570 1.351 . S
C570 C564 1.428 . S
C570 N569 1.351 . S
C570 C571 1.434 . S
C571 C562 1.429 . S
C571 N568 1.350 . S
C571 C570 1.434 . S
C572 C573 1.369 . S
C572 C574 1.419 . S
C572 H576 0.930 . S
C573 C572 1.369 . S
C573 C582 1.429 1_655 S
C574 C572 1.419 . S
C574 C575 1.363 1_655 S
C574 H577 0.929 . S
C575 C574 1.363 1_455 S
C575 C581 1.428 . S
H576 C572 0.930 . S
H577 C574 0.929 . S
S578 N579 1.613 . S
S578 N580 1.610 . S
N579 S578 1.613 . S
N579 C582 1.350 . S
N580 S578 1.610 . S
N580 C581 1.351 . S
C581 C575 1.428 . S
C581 N580 1.351 . S
C581 C582 1.434 . S
C582 C573 1.429 1_455 S
C582 N579 1.350 . S
C582 C581 1.434 . S
C583 C584 1.369 . S
C583 C585 1.419 . S
C583 H587 0.930 . S
C584 C583 1.369 . S
C584 C593 1.429 1_565 S
C585 C583 1.419 . S
C585 C586 1.363 1_565 S
C585 H588 0.929 . S
C586 C585 1.363 1_545 S
C586 C592 1.428 . S
H587 C583 0.930 . S
H588 C585 0.929 . S
S589 N590 1.613 . S
S589 N591 1.610 . S
N590 S589 1.613 . S
N590 C593 1.350 . S
N591 S589 1.610 . S
N591 C592 1.351 . S
C592 C586 1.428 . S
C592 N591 1.351 . S
C592 C593 1.434 . S
C593 C584 1.429 1_545 S
C593 N590 1.350 . S
C593 C592 1.434 . S
C594 C595 1.369 . S
C594 C596 1.419 . S
C594 H598 0.930 . S
C595 C594 1.369 . S
C595 C604 1.429 . S
C596 C594 1.419 . S
C596 C597 1.363 . S
C596 H599 0.929 . S
C597 C596 1.363 . S
C597 C603 1.428 . S
H598 C594 0.930 . S
H599 C596 0.929 . S
S600 N601 1.613 . S
S600 N602 1.610 . S
N601 S600 1.613 . S
N601 C604 1.350 . S
N602 S600 1.610 . S
N602 C603 1.351 . S
C603 C597 1.428 . S
C603 N602 1.351 . S
C603 C604 1.434 . S
C604 C595 1.429 . S
C604 N601 1.350 . S
C604 C603 1.434 . S
C605 C606 1.369 . S
C605 C607 1.419 . S
C605 H609 0.930 . S
C606 C605 1.369 . S
C606 C615 1.429 . S
C607 C605 1.419 . S
C607 C608 1.363 . S
C607 H610 0.929 . S
C608 C607 1.363 . S
C608 C614 1.428 . S
H609 C605 0.930 . S
H610 C607 0.929 . S
S611 N612 1.613 . S
S611 N613 1.610 . S
N612 S611 1.613 . S
N612 C615 1.350 . S
N613 S611 1.610 . S
N613 C614 1.351 . S
C614 C608 1.428 . S
C614 N613 1.351 . S
C614 C615 1.434 . S
C615 C606 1.429 . S
C615 N612 1.350 . S
C615 C614 1.434 . S
C616 C617 1.369 . S
C616 C618 1.419 . S
C616 H620 0.930 1_455 S
C617 C616 1.369 . S
C617 C626 1.429 . S
C618 C616 1.419 . S
C618 C619 1.363 . S
C618 H621 0.929 1_455 S
C619 C618 1.363 . S
C619 C625 1.428 . S
H620 C616 0.930 1_655 S
H621 C618 0.929 1_655 S
S622 N623 1.613 . S
S622 N624 1.610 . S
N623 S622 1.613 . S
N623 C626 1.350 . S
N624 S622 1.610 . S
N624 C625 1.351 . S
C625 C619 1.428 . S
C625 N624 1.351 . S
C625 C626 1.434 . S
C626 C617 1.429 . S
C626 N623 1.350 . S
C626 C625 1.434 . S
C627 C628 1.369 . S
C627 C629 1.419 . S
C627 H631 0.930 1_556 S
C628 C627 1.369 . S
C628 C637 1.429 . S
C629 C627 1.419 . S
C629 C630 1.363 . S
C629 H632 0.929 . S
C630 C629 1.363 . S
C630 C636 1.428 . S
H631 C627 0.930 1_554 S
H632 C629 0.929 . S
S633 N634 1.613 . S
S633 N635 1.610 . S
N634 S633 1.613 . S
N634 C637 1.350 . S
N635 S633 1.610 . S
N635 C636 1.351 . S
C636 C630 1.428 . S
C636 N635 1.351 . S
C636 C637 1.434 . S
C637 C628 1.429 . S
C637 N634 1.350 . S
C637 C636 1.434 . S
C638 C639 1.369 . S
C638 C640 1.419 . S
C638 H642 0.930 . S
C639 C638 1.369 . S
C639 C648 1.429 . S
C640 C638 1.419 . S
C640 C641 1.363 . S
C640 H643 0.929 . S
C641 C640 1.363 . S
C641 C647 1.428 . S
H642 C638 0.930 . S
H643 C640 0.929 . S
S644 N645 1.613 . S
S644 N646 1.610 . S
N645 S644 1.613 . S
N645 C648 1.350 . S
N646 S644 1.610 . S
N646 C647 1.351 . S
C647 C641 1.428 . S
C647 N646 1.351 . S
C647 C648 1.434 . S
C648 C639 1.429 . S
C648 N645 1.350 . S
C648 C647 1.434 . S
C649 C650 1.369 . S
C649 C651 1.419 . S
C649 H653 0.930 . S
C650 C649 1.369 . S
C650 C659 1.429 . S
C651 C649 1.419 . S
C651 C652 1.363 . S
C651 H654 0.929 . S
C652 C651 1.363 . S
C652 C658 1.428 . S
H653 C649 0.930 . S
H654 C651 0.929 . S
S655 N656 1.613 . S
S655 N657 1.610 . S
N656 S655 1.613 . S
N656 C659 1.350 . S
N657 S655 1.610 . S
N657 C658 1.351 . S
C658 C652 1.428 . S
C658 N657 1.351 . S
C658 C659 1.434 . S
C659 C650 1.429 . S
C659 N656 1.350 . S
C659 C658 1.434 . S
C660 C661 1.369 . S
C660 C662 1.419 . S
C660 H664 0.930 . S
C661 C660 1.369 . S
C661 C670 1.429 1_655 S
C662 C660 1.419 . S
C662 C663 1.363 . S
C662 H665 0.929 . S
C663 C662 1.363 . S
C663 C669 1.428 1_655 S
H664 C660 0.930 . S
H665 C662 0.929 . S
S666 N667 1.613 . S
S666 N668 1.610 . S
N667 S666 1.613 . S
N667 C670 1.350 . S
N668 S666 1.610 . S
N668 C669 1.351 . S
C669 C663 1.428 1_455 S
C669 N668 1.351 . S
C669 C670 1.434 . S
C670 C661 1.429 1_455 S
C670 N667 1.350 . S
C670 C669 1.434 . S
C671 C672 1.369 1_545 S
C671 C673 1.419 . S
C671 H675 0.930 . S
C672 C671 1.369 1_565 S
C672 C681 1.429 . S
C673 C671 1.419 . S
C673 C674 1.363 1_545 S
C673 H676 0.929 . S
C674 C673 1.363 1_565 S
C674 C680 1.428 . S
H675 C671 0.930 . S
H676 C673 0.929 . S
S677 N678 1.613 . S
S677 N679 1.610 . S
N678 S677 1.613 . S
N678 C681 1.350 . S
N679 S677 1.610 . S
N679 C680 1.351 . S
C680 C674 1.428 . S
C680 N679 1.351 . S
C680 C681 1.434 . S
C681 C672 1.429 . S
C681 N678 1.350 . S
C681 C680 1.434 . S
C682 C683 1.369 . S
C682 C684 1.419 . S
C682 H686 0.930 . S
C683 C682 1.369 . S
C683 C692 1.429 . S
C684 C682 1.419 . S
C684 C685 1.363 . S
C684 H687 0.929 . S
C685 C684 1.363 . S
C685 C691 1.428 . S
H686 C682 0.930 . S
H687 C684 0.929 . S
S688 N689 1.613 . S
S688 N690 1.610 . S
N689 S688 1.613 . S
N689 C692 1.350 . S
N690 S688 1.610 . S
N690 C691 1.351 . S
C691 C685 1.428 . S
C691 N690 1.351 . S
C691 C692 1.434 . S
C692 C683 1.429 . S
C692 N689 1.350 . S
C692 C691 1.434 . S
C693 C694 1.369 . S
C693 C695 1.419 . S
C693 H697 0.930 . S
C694 C693 1.369 . S
C694 C703 1.429 . S
C695 C693 1.419 . S
C695 C696 1.363 . S
C695 H698 0.929 . S
C696 C695 1.363 . S
C696 C702 1.428 . S
H697 C693 0.930 . S
H698 C695 0.929 . S
S699 N700 1.613 . S
S699 N701 1.610 . S
N700 S699 1.613 . S
N700 C703 1.350 . S
N701 S699 1.610 . S
N701 C702 1.351 . S
C702 C696 1.428 . S
C702 N701 1.351 . S
C702 C703 1.434 . S
C703 C694 1.429 . S
C703 N700 1.350 . S
C703 C702 1.434 . S
C441 C82 1.798 . S
C443 C167 2.169 . S
C454 C244 2.172 . S
C452 C95 1.799 . S
C465 C335 2.166 . S
C463 C56 1.808 . S
C476 C419 2.158 . S
C474 C69 1.789 . S
C487 C178 2.163 1_564 S
C485 C30 1.771 . S
C496 C43 1.771 . S
C498 C255 2.169 1_554 S
C507 C4 1.762 . S
C509 C346 2.166 1_554 S
C518 C17 1.754 . S
C520 C430 2.157 1_654 S
C531 C162 0.766 . S
C529 C74 0.771 . S
C542 C257 0.757 1_545 S
C540 C87 0.754 . S
C553 C330 0.765 . S
C551 C100 0.775 . S
C562 C61 0.757 . S
C564 C414 0.745 . S
C573 C22 0.753 . S
C575 C173 0.760 . S
C586 C246 0.754 . S
C584 C35 0.744 . S
C597 C341 0.773 . S
C595 C48 0.764 . S
C606 C9 0.743 . S
C608 C425 0.744 . S
C617 C73 2.030 . S
C619 C171 2.277 . S
C628 C86 2.040 . S
C630 C262 2.327 . S
C641 C339 2.291 . S
C639 C99 2.038 . S
C652 C423 2.295 . S
C650 C60 2.044 . S
C661 C21 2.023 . S
C663 C160 2.278 . S
C674 C251 2.325 1_565 S
C672 C34 2.028 . S
C685 C328 2.292 . S
C683 C47 2.030 . S
C694 C8 2.041 . S
C696 C412 2.295 . S
