# Generated by pormake.
# Topology ssa, (4,4)-cn, num edge types: 1
# Building blocks:
#     Node 0, Type 0, BuildingBlock: KOZSID_clean_sbu_0, # of connection points: 4
#     Node 1, Type 0, BuildingBlock: KOZSID_clean_sbu_0, # of connection points: 4
#     Node 2, Type 0, BuildingBlock: KOZSID_clean_sbu_0, # of connection points: 4
#     Node 3, Type 0, BuildingBlock: KOZSID_clean_sbu_0, # of connection points: 4
#     Node 4, Type 0, BuildingBlock: KOZSID_clean_sbu_0, # of connection points: 4
#     Node 5, Type 0, BuildingBlock: KOZSID_clean_sbu_0, # of connection points: 4
#     Node 6, Type 1, BuildingBlock: AZAVOO_clean_linker_0, # of connection points: 4
#     Node 7, Type 1, BuildingBlock: AZAVOO_clean_linker_0, # of connection points: 4
#     Node 8, Type 1, BuildingBlock: AZAVOO_clean_linker_0, # of connection points: 4
#     Node 9, Type 1, BuildingBlock: AZAVOO_clean_linker_0, # of connection points: 4
#     Node 10, Type 1, BuildingBlock: AZAVOO_clean_linker_0, # of connection points: 4
#     Node 11, Type 1, BuildingBlock: AZAVOO_clean_linker_0, # of connection points: 4
#     Edge 12, Type (0, 1), BuildingBlock: MIFKUJ_clean_linker_0, # of connection points: 2
#     Edge 13, Type (0, 1), BuildingBlock: MIFKUJ_clean_linker_0, # of connection points: 2
#     Edge 14, Type (0, 1), BuildingBlock: MIFKUJ_clean_linker_0, # of connection points: 2
#     Edge 15, Type (0, 1), BuildingBlock: MIFKUJ_clean_linker_0, # of connection points: 2
#     Edge 16, Type (0, 1), BuildingBlock: MIFKUJ_clean_linker_0, # of connection points: 2
#     Edge 17, Type (0, 1), BuildingBlock: MIFKUJ_clean_linker_0, # of connection points: 2
#     Edge 18, Type (0, 1), BuildingBlock: MIFKUJ_clean_linker_0, # of connection points: 2
#     Edge 19, Type (0, 1), BuildingBlock: MIFKUJ_clean_linker_0, # of connection points: 2
#     Edge 20, Type (0, 1), BuildingBlock: MIFKUJ_clean_linker_0, # of connection points: 2
#     Edge 21, Type (0, 1), BuildingBlock: MIFKUJ_clean_linker_0, # of connection points: 2
#     Edge 22, Type (0, 1), BuildingBlock: MIFKUJ_clean_linker_0, # of connection points: 2
#     Edge 23, Type (0, 1), BuildingBlock: MIFKUJ_clean_linker_0, # of connection points: 2
#     Edge 24, Type (0, 1), BuildingBlock: MIFKUJ_clean_linker_0, # of connection points: 2
#     Edge 25, Type (0, 1), BuildingBlock: MIFKUJ_clean_linker_0, # of connection points: 2
#     Edge 26, Type (0, 1), BuildingBlock: MIFKUJ_clean_linker_0, # of connection points: 2
#     Edge 27, Type (0, 1), BuildingBlock: MIFKUJ_clean_linker_0, # of connection points: 2
#     Edge 28, Type (0, 1), BuildingBlock: MIFKUJ_clean_linker_0, # of connection points: 2
#     Edge 29, Type (0, 1), BuildingBlock: MIFKUJ_clean_linker_0, # of connection points: 2
#     Edge 30, Type (0, 1), BuildingBlock: MIFKUJ_clean_linker_0, # of connection points: 2
#     Edge 31, Type (0, 1), BuildingBlock: MIFKUJ_clean_linker_0, # of connection points: 2
#     Edge 32, Type (0, 1), BuildingBlock: MIFKUJ_clean_linker_0, # of connection points: 2
#     Edge 33, Type (0, 1), BuildingBlock: MIFKUJ_clean_linker_0, # of connection points: 2
#     Edge 34, Type (0, 1), BuildingBlock: MIFKUJ_clean_linker_0, # of connection points: 2
#     Edge 35, Type (0, 1), BuildingBlock: MIFKUJ_clean_linker_0, # of connection points: 2
# Relax obj value: 0.062
# Max RMSD: 0.231
# Mean RMSD: 0.119
data_MOF--net-ssa--node1-KOZSID_clean_sbu_0--node2-AZAVOO_clean_linker_0--edge1-MIFKUJ_clean_linker_0
_symmetry_space_group_name_H-M    P1
_symmetry_Int_Tables_number       1
_symmetry_cell_setting            triclinic
loop_
_symmetry_equiv_pos_as_xyz
'x, y, z'
_cell_length_a     66.01225
_cell_length_b     67.599766
_cell_length_c     63.863365
_cell_angle_alpha  87.941385
_cell_angle_beta   92.319498
_cell_angle_gamma 121.91841
loop_
_atom_site_label
_atom_site_type_symbol
_atom_site_fract_x
_atom_site_fract_y
_atom_site_fract_z
_atom_type_partial_charge
C0 C 0.0982 0.55781 0.00222 0.0
C1 C 0.07517 0.5496 0.00871 0.0
C2 C 0.07106 0.53459 0.0251 0.0
C3 C 0.09159 0.53432 0.02761 0.0
N4 N 0.10864 0.54819 0.01374 0.0
Co5 Co 0.14089 0.55225 0.01133 0.0
N6 N 0.13459 0.52996 0.03539 0.0
C7 C 0.11426 0.51766 0.04631 0.0
C8 C 0.11502 0.50332 0.0616 0.0
C9 C 0.13726 0.50682 0.0606 0.0
C10 C 0.14892 0.52336 0.0448 0.0
N11 N 0.17324 0.55646 0.00914 0.0
C12 C 0.18419 0.54792 0.0215 0.0
C13 C 0.2072 0.55609 0.01508 0.0
C14 C 0.21093 0.57025 0.99804 0.0
C15 C 0.19015 0.57006 0.9951 0.0
N16 N 0.14706 0.57441 0.98715 0.0
C17 C 0.16694 0.58577 0.97556 0.0
C18 C 0.16604 0.59983 0.96004 0.0
C19 C 0.14424 0.59727 0.96172 0.0
C20 C 0.13303 0.58165 0.9782 0.0
N21 N 0.15454 0.57849 0.03108 0.0
C22 C 0.17388 0.61576 0.05914 0.0
C23 C 0.1853 0.61772 0.04056 0.0
C24 C 0.17537 0.59905 0.02685 0.0
C25 C 0.15261 0.59484 0.06343 0.0
C26 C 0.14337 0.57656 0.04934 0.0
N27 N 0.12715 0.52599 0.99145 0.0
C28 C 0.12855 0.50967 0.95879 0.0
C29 C 0.10618 0.48967 0.96222 0.0
C30 C 0.09475 0.488 0.9807 0.0
C31 C 0.10549 0.50609 0.99498 0.0
C32 C 0.13863 0.52745 0.9735 0.0
H33 H 0.09567 0.50362 0.00859 0.0
H34 H 0.15562 0.54224 0.96988 0.0
H35 H 0.18488 0.60167 0.01293 0.0
H36 H 0.12723 0.56099 0.05359 0.0
C37 C 0.09502 0.5205 0.04229 0.0
C38 C 0.10913 0.57438 0.98481 0.0
C39 C 0.17381 0.53272 0.03983 0.0
C40 C 0.18635 0.58321 0.97989 0.0
H41 H 0.06244 0.55374 0.00216 0.0
H42 H 0.05488 0.52477 0.03394 0.0
H43 H 0.10115 0.4919 0.07235 0.0
H44 H 0.1442 0.49833 0.07057 0.0
H45 H 0.22013 0.55252 0.02216 0.0
H46 H 0.22706 0.57995 0.98912 0.0
H47 H 0.17967 0.61074 0.9489 0.0
H48 H 0.1374 0.60598 0.95196 0.0
H49 H 0.20173 0.63368 0.03648 0.0
H50 H 0.14331 0.59238 0.07781 0.0
H51 H 0.1383 0.51166 0.94483 0.0
H52 H 0.07722 0.47303 0.98401 0.0
C53 C 0.61029 0.02124 0.58963 0.0
C54 C 0.61008 0.00938 0.60791 0.0
C55 C 0.58878 0.98862 0.60784 0.0
C56 C 0.5773 0.98897 0.5896 0.0
N57 N 0.59003 0.00866 0.5779 0.0
Co58 Co 0.58015 0.01653 0.55024 0.0
N59 N 0.54821 0.98662 0.55077 0.0
C60 C 0.53983 0.97004 0.56612 0.0
C61 C 0.51705 0.95172 0.5623 0.0
C62 C 0.51047 0.95681 0.54334 0.0
C63 C 0.52979 0.97796 0.53658 0.0
N64 N 0.57044 0.02426 0.52242 0.0
C65 C 0.55019 0.01173 0.51065 0.0
C66 C 0.55122 0.02304 0.49174 0.0
C67 C 0.57274 0.04352 0.49165 0.0
C68 C 0.58368 0.0435 0.51031 0.0
N69 N 0.61195 0.04661 0.54985 0.0
C70 C 0.62011 0.06353 0.53482 0.0
C71 C 0.64236 0.08244 0.53919 0.0
C72 C 0.64878 0.07745 0.55827 0.0
C73 C 0.62998 0.05566 0.5644 0.0
N74 N 0.59369 0.00084 0.53555 0.0
C75 C 0.61147 0.97779 0.51391 0.0
C76 C 0.61718 0.00016 0.5078 0.0
C77 C 0.60828 0.01132 0.51882 0.0
C78 C 0.59707 0.9673 0.53123 0.0
C79 C 0.5884 0.979 0.54168 0.0
N80 N 0.5666 0.03217 0.56494 0.0
C81 C 0.56083 0.06442 0.56809 0.0
C82 C 0.54844 0.05492 0.58665 0.0
C83 C 0.54506 0.03367 0.59396 0.0
C84 C 0.55408 0.02267 0.58292 0.0
C85 C 0.56975 0.0529 0.55762 0.0
H86 H 0.55089 0.0066 0.58941 0.0
H87 H 0.57923 0.06117 0.54371 0.0
H88 H 0.61333 0.02834 0.51339 0.0
H89 H 0.5772 0.96985 0.5545 0.0
C90 C 0.55404 0.97177 0.58362 0.0
C91 C 0.62984 0.04465 0.58445 0.0
C92 C 0.52983 0.98892 0.51647 0.0
C93 C 0.60642 0.06122 0.51682 0.0
H94 H 0.62379 0.0153 0.62015 0.0
H95 H 0.58223 0.97508 0.61987 0.0
H96 H 0.50655 0.93639 0.57206 0.0
H97 H 0.49343 0.94608 0.53532 0.0
H98 H 0.53795 0.01708 0.47915 0.0
H99 H 0.57968 0.05675 0.47936 0.0
H100 H 0.65258 0.09809 0.52973 0.0
H101 H 0.66532 0.0887 0.56681 0.0
H102 H 0.62852 0.00907 0.49458 0.0
H103 H 0.59194 0.94985 0.53639 0.0
H104 H 0.56365 0.08067 0.56156 0.0
H105 H 0.53594 0.0257 0.60843 0.0
C106 C 0.62669 0.54068 0.04823 0.0
C107 C 0.6312 0.55781 0.03319 0.0
C108 C 0.61163 0.55972 0.03213 0.0
C109 C 0.59634 0.54372 0.04647 0.0
N110 N 0.60501 0.53179 0.05677 0.0
Co111 Co 0.58847 0.50665 0.0787 0.0
N112 N 0.55867 0.50756 0.07525 0.0
C113 C 0.55447 0.52041 0.06106 0.0
C114 C 0.53182 0.51628 0.0615 0.0
C115 C 0.52097 0.50002 0.07709 0.0
C116 C 0.53784 0.49544 0.08551 0.0
N117 N 0.57221 0.48215 0.10123 0.0
C118 C 0.55097 0.47412 0.11044 0.0
C119 C 0.54776 0.45912 0.1272 0.0
C120 C 0.56743 0.45739 0.12846 0.0
C121 C 0.58168 0.47161 0.11271 0.0
N122 N 0.61798 0.50506 0.08147 0.0
C123 C 0.62156 0.49088 0.09446 0.0
C124 C 0.64307 0.49281 0.09206 0.0
C125 C 0.65375 0.50889 0.0763 0.0
C126 C 0.63803 0.51584 0.07 0.0
N127 N 0.60097 0.5309 0.10052 0.0
C128 C 0.61734 0.56438 0.13228 0.0
C129 C 0.62142 0.54611 0.13381 0.0
C130 C 0.61322 0.52976 0.11791 0.0
C131 C 0.60507 0.56572 0.11446 0.0
C132 C 0.59711 0.54894 0.09891 0.0
N133 N 0.57595 0.48238 0.05693 0.0
C134 C 0.56635 0.44456 0.04547 0.0
C135 C 0.55943 0.44852 0.02558 0.0
C136 C 0.56069 0.4696 0.02174 0.0
C137 C 0.56887 0.4861 0.03749 0.0
C138 C 0.57452 0.46159 0.06077 0.0
H139 H 0.56939 0.50176 0.03348 0.0
H140 H 0.57979 0.45762 0.07551 0.0
H141 H 0.61698 0.51635 0.1201 0.0
H142 H 0.58772 0.55084 0.08581 0.0
C143 C 0.57267 0.53739 0.04861 0.0
C144 C 0.64277 0.53232 0.05276 0.0
C145 C 0.53381 0.48088 0.10424 0.0
C146 C 0.60434 0.47596 0.10874 0.0
H147 H 0.64664 0.56739 0.02345 0.0
H148 H 0.60847 0.57068 0.02147 0.0
H149 H 0.5243 0.52454 0.052 0.0
H150 H 0.50289 0.49287 0.08213 0.0
H151 H 0.53308 0.4506 0.13783 0.0
H152 H 0.57117 0.44743 0.13988 0.0
H153 H 0.65004 0.48344 0.10058 0.0
H154 H 0.67103 0.51469 0.06996 0.0
H155 H 0.6312 0.54452 0.14713 0.0
H156 H 0.60129 0.57945 0.11261 0.0
H157 H 0.56593 0.42858 0.04913 0.0
H158 H 0.55519 0.47334 0.00666 0.0
C159 C 0.9879 0.42775 0.55729 0.0
C160 C 0.96503 0.40967 0.55193 0.0
C161 C 0.95809 0.41683 0.53434 0.0
C162 C 0.97708 0.43872 0.52992 0.0
N163 N 0.9959 0.44587 0.54344 0.0
Co164 Co 0.02695 0.47666 0.54312 0.0
N165 N 0.01608 0.48786 0.51809 0.0
C166 C 0.99478 0.476 0.50769 0.0
C167 C 0.9928 0.48788 0.49069 0.0
C168 C 0.01423 0.50848 0.48999 0.0
C169 C 0.02804 0.50797 0.50674 0.0
N170 N 0.05796 0.50752 0.54292 0.0
C171 C 0.06582 0.52579 0.52928 0.0
C172 C 0.08862 0.54394 0.53473 0.0
C173 C 0.0956 0.53674 0.55226 0.0
C174 C 0.07673 0.51474 0.55652 0.0
N175 N 0.03791 0.46541 0.56806 0.0
C176 C 0.05938 0.47716 0.57824 0.0
C177 C 0.06137 0.46541 0.5953 0.0
C178 C 0.03982 0.44501 0.59629 0.0
C179 C 0.02587 0.44543 0.57959 0.0
N180 N 0.04044 0.46417 0.52404 0.0
C181 C 0.06187 0.45128 0.49453 0.0
C182 C 0.07408 0.4625 0.51296 0.0
C183 C 0.06313 0.46869 0.52736 0.0
C184 C 0.03829 0.44555 0.49165 0.0
C185 C 0.02797 0.45201 0.50653 0.0
N186 N 0.01357 0.48933 0.56211 0.0
C187 C 0.01706 0.51021 0.59334 0.0
C188 C 0.9949 0.50771 0.58905 0.0
C189 C 0.98217 0.49565 0.57107 0.0
C190 C 0.99169 0.48657 0.558 0.0
C191 C 0.02601 0.50111 0.57976 0.0
H192 H 0.98102 0.47742 0.54467 0.0
H193 H 0.04299 0.50376 0.58396 0.0
H194 H 0.07359 0.47755 0.54084 0.0
H195 H 0.01009 0.44745 0.50325 0.0
C196 C 0.97738 0.45332 0.51374 0.0
C197 C 0.0009 0.42715 0.57606 0.0
C198 C 0.05278 0.52646 0.51059 0.0
C199 C 0.07662 0.49999 0.57243 0.0
H200 H 0.95432 0.39317 0.56013 0.0
H201 H 0.94105 0.4074 0.52602 0.0
H202 H 0.97779 0.48202 0.4798 0.0
H203 H 0.01928 0.52211 0.47822 0.0
H204 H 0.09926 0.56053 0.52665 0.0
H205 H 0.11262 0.54619 0.56061 0.0
H206 H 0.0764 0.47133 0.60619 0.0
H207 H 0.03483 0.43172 0.60837 0.0
H208 H 0.09218 0.46678 0.51621 0.0
H209 H 0.02805 0.43686 0.47763 0.0
H210 H 0.02746 0.51891 0.6073 0.0
H211 H 0.965 0.49337 0.56689 0.0
C212 C 0.5348 0.03363 0.12168 0.0
C213 C 0.53529 0.04587 0.13889 0.0
C214 C 0.55593 0.0672 0.13789 0.0
C215 C 0.5668 0.06671 0.12025 0.0
N216 N 0.55416 0.04655 0.10966 0.0
Co217 Co 0.56433 0.03766 0.08427 0.0
N218 N 0.59549 0.06833 0.08367 0.0
C219 C 0.60222 0.08679 0.09599 0.0
C220 C 0.62391 0.10602 0.09111 0.0
C221 C 0.63144 0.09956 0.07456 0.0
C222 C 0.6139 0.07657 0.07039 0.0
N223 N 0.57511 0.02804 0.05982 0.0
C224 C 0.59609 0.03943 0.04975 0.0
C225 C 0.59687 0.02571 0.0345 0.0
C226 C 0.57543 0.0051 0.03466 0.0
C227 C 0.56295 0.00728 0.0501 0.0
N228 N 0.53261 0.00758 0.08411 0.0
C229 C 0.52418 0.99069 0.06965 0.0
C230 C 0.50171 0.97212 0.07359 0.0
C231 C 0.49547 0.97738 0.09174 0.0
C232 C 0.51462 0.99895 0.09784 0.0
N233 N 0.55037 0.05159 0.06515 0.0
C234 C 0.53481 0.07391 0.03661 0.0
C235 C 0.53511 0.05439 0.03079 0.0
C236 C 0.54257 0.04339 0.04525 0.0
C237 C 0.54146 0.08154 0.05716 0.0
C238 C 0.54924 0.0703 0.07104 0.0
N239 N 0.57838 0.02392 0.10318 0.0
C240 C 0.58125 0.99101 0.11461 0.0
C241 C 0.59936 0.00473 0.12913 0.0
C242 C 0.60663 0.02813 0.13065 0.0
C243 C 0.59579 0.03726 0.11777 0.0
C244 C 0.57118 0.00091 0.10179 0.0
H245 H 0.6018 0.05517 0.11985 0.0
H246 H 0.55771 0.98965 0.09077 0.0
H247 H 0.54213 0.02848 0.03977 0.0
H248 H 0.55462 0.07743 0.08629 0.0
C249 C 0.58857 0.08497 0.1129 0.0
C250 C 0.51565 0.00976 0.11751 0.0
C251 C 0.61532 0.06346 0.05346 0.0
C252 C 0.53917 0.99104 0.05467 0.0
H253 H 0.52213 0.03991 0.15095 0.0
H254 H 0.56232 0.08132 0.14879 0.0
H255 H 0.63325 0.12269 0.0988 0.0
H256 H 0.64797 0.11057 0.06648 0.0
H257 H 0.61129 0.03025 0.02406 0.0
H258 H 0.56947 0.99047 0.02446 0.0
H259 H 0.49159 0.95611 0.06494 0.0
H260 H 0.47906 0.96619 0.09993 0.0
H261 H 0.52967 0.04765 0.01507 0.0
H262 H 0.54147 0.09664 0.06232 0.0
H263 H 0.5752 0.9728 0.11284 0.0
H264 H 0.62042 0.03929 0.1419 0.0
C265 C 0.58182 0.58768 0.56162 0.0
C266 C 0.57907 0.60655 0.56342 0.0
C267 C 0.56235 0.60047 0.57825 0.0
C268 C 0.55586 0.57835 0.58463 0.0
N269 N 0.5676 0.56999 0.57492 0.0
Co270 Co 0.56329 0.53841 0.57917 0.0
N271 N 0.53715 0.52876 0.59951 0.0
C272 C 0.5273 0.54101 0.60475 0.0
C273 C 0.51001 0.53 0.61948 0.0
C274 C 0.50899 0.50963 0.62416 0.0
C275 C 0.52587 0.5095 0.61201 0.0
N276 N 0.55962 0.50717 0.58406 0.0
C277 C 0.54671 0.49031 0.5985 0.0
C278 C 0.55086 0.47221 0.59801 0.0
C279 C 0.56713 0.47793 0.58285 0.0
C280 C 0.57209 0.49915 0.57508 0.0
N281 N 0.5889 0.54779 0.5583 0.0
C282 C 0.5973 0.53472 0.55169 0.0
C283 C 0.61401 0.5454 0.53646 0.0
C284 C 0.6161 0.5664 0.5328 0.0
C285 C 0.60047 0.56728 0.54608 0.0
N286 N 0.58726 0.55071 0.60255 0.0
C287 C 0.61703 0.56178 0.63858 0.0
C288 C 0.62042 0.55191 0.62127 0.0
C289 C 0.6056 0.54675 0.6035 0.0
C290 C 0.5994 0.5673 0.63709 0.0
C291 C 0.58485 0.56171 0.61903 0.0
N292 N 0.53915 0.52588 0.55579 0.0
C293 C 0.52168 0.50137 0.52545 0.0
C294 C 0.50665 0.5098 0.52138 0.0
C295 C 0.50776 0.52604 0.535 0.0
C296 C 0.52382 0.5336 0.5521 0.0
C297 C 0.53778 0.5097 0.5425 0.0
H298 H 0.5236 0.54582 0.56197 0.0
H299 H 0.54911 0.50297 0.54436 0.0
H300 H 0.60897 0.53904 0.59093 0.0
H301 H 0.57134 0.56583 0.61899 0.0
C302 C 0.53697 0.56405 0.59783 0.0
C303 C 0.59674 0.58669 0.54599 0.0
C304 C 0.53151 0.4914 0.61378 0.0
C305 C 0.5891 0.51244 0.56004 0.0
H306 H 0.58764 0.62273 0.55445 0.0
H307 H 0.55505 0.61057 0.58313 0.0
H308 H 0.50017 0.53651 0.62672 0.0
H309 H 0.49772 0.4967 0.6357 0.0
H310 H 0.54345 0.45677 0.60796 0.0
H311 H 0.57499 0.46815 0.57849 0.0
H312 H 0.6233 0.53859 0.52873 0.0
H313 H 0.62758 0.57948 0.52144 0.0
H314 H 0.63432 0.54793 0.6215 0.0
H315 H 0.59621 0.5751 0.65008 0.0
H316 H 0.5215 0.48886 0.51518 0.0
H317 H 0.49618 0.53282 0.53253 0.0
H318 H 0.28162 0.44446 0.42894 0.0
H319 H 0.13493 0.40255 0.22677 0.0
H320 H 0.32256 0.47407 0.3191 0.0
H321 H 0.35535 0.48198 0.34323 0.0
H322 H 0.34313 0.4138 0.33157 0.0
H323 H 0.30952 0.40579 0.30775 0.0
H324 H 0.27715 0.46272 0.33919 0.0
H325 H 0.27959 0.46133 0.37749 0.0
H326 H 0.27233 0.39401 0.37495 0.0
H327 H 0.26961 0.39551 0.33665 0.0
H328 H 0.24211 0.46215 0.30549 0.0
H329 H 0.21295 0.46201 0.32801 0.0
H330 H 0.18963 0.39165 0.3485 0.0
H331 H 0.21865 0.39181 0.32553 0.0
H332 H 0.24918 0.46458 0.25873 0.0
H333 H 0.21527 0.46243 0.23951 0.0
H334 H 0.17123 0.38951 0.25699 0.0
H335 H 0.20542 0.39184 0.27588 0.0
H336 H 0.29803 0.47206 0.24547 0.0
H337 H 0.2913 0.48079 0.20934 0.0
H338 H 0.23326 0.40933 0.2022 0.0
H339 H 0.24024 0.40069 0.23843 0.0
H340 H 0.33578 0.47186 0.27581 0.0
H341 H 0.36803 0.47622 0.25473 0.0
H342 H 0.32052 0.4072 0.23024 0.0
H343 H 0.28881 0.40261 0.25222 0.0
O344 O 0.28048 0.44459 0.41379 0.0
O345 O 0.27682 0.41008 0.41162 0.0
O346 O 0.1721 0.44138 0.22558 0.0
O347 O 0.1486 0.40393 0.23437 0.0
C348 C 0.29133 0.43371 0.30028 0.0
C349 C 0.27183 0.4301 0.31191 0.0
C350 C 0.25159 0.42812 0.30149 0.0
C351 C 0.25068 0.42941 0.27941 0.0
C352 C 0.26988 0.43231 0.2677 0.0
C353 C 0.29016 0.43424 0.27813 0.0
C354 C 0.31371 0.43938 0.31172 0.0
C355 C 0.32728 0.46102 0.32144 0.0
C356 C 0.34612 0.46554 0.33516 0.0
C357 C 0.35193 0.44852 0.3394 0.0
C358 C 0.33895 0.42717 0.32884 0.0
C359 C 0.31994 0.42264 0.31508 0.0
C360 C 0.27303 0.42914 0.33519 0.0
C361 C 0.2759 0.44761 0.34695 0.0
C362 C 0.27738 0.44681 0.36882 0.0
C363 C 0.27614 0.42755 0.37929 0.0
C364 C 0.27333 0.40909 0.36739 0.0
C365 C 0.27177 0.40989 0.34553 0.0
C366 C 0.23242 0.42698 0.31385 0.0
C367 C 0.23044 0.44658 0.31459 0.0
C368 C 0.21394 0.44654 0.3276 0.0
C369 C 0.19913 0.42688 0.34014 0.0
C370 C 0.20068 0.40698 0.3389 0.0
C371 C 0.21726 0.40706 0.32588 0.0
C372 C 0.22977 0.42832 0.26856 0.0
C373 C 0.2322 0.44816 0.25835 0.0
C374 C 0.21279 0.44688 0.24741 0.0
C375 C 0.19054 0.42576 0.24666 0.0
C376 C 0.18812 0.40602 0.25722 0.0
C377 C 0.20758 0.40731 0.26807 0.0
C378 C 0.26953 0.43579 0.24461 0.0
C379 C 0.28445 0.45808 0.23587 0.0
C380 C 0.28054 0.46305 0.21523 0.0
C381 C 0.26155 0.4458 0.20304 0.0
C382 C 0.24781 0.42302 0.21134 0.0
C383 C 0.25186 0.41803 0.23194 0.0
C384 C 0.31002 0.43681 0.26575 0.0
C385 C 0.3325 0.45754 0.26617 0.0
C386 C 0.35081 0.4601 0.25388 0.0
C387 C 0.34691 0.44207 0.24071 0.0
C388 C 0.32433 0.4213 0.24041 0.0
C389 C 0.30611 0.41869 0.25285 0.0
C390 C 0.27782 0.42679 0.40253 0.0
C391 C 0.16992 0.42426 0.23489 0.0
H392 H 0.88884 0.26455 0.95481 0.0
H393 H 0.72098 0.06899 0.81027 0.0
H394 H 0.87335 0.27241 0.8454 0.0
H395 H 0.9101 0.3083 0.85607 0.0
H396 H 0.95184 0.28549 0.82667 0.0
H397 H 0.91493 0.24897 0.81671 0.0
H398 H 0.83865 0.23585 0.87356 0.0
H399 H 0.85439 0.24899 0.90904 0.0
H400 H 0.91127 0.23682 0.89876 0.0
H401 H 0.89511 0.22339 0.86339 0.0
H402 H 0.79379 0.19758 0.85033 0.0
H403 H 0.76761 0.17715 0.8796 0.0
H404 H 0.81366 0.15261 0.90105 0.0
H405 H 0.84015 0.17367 0.8717 0.0
H406 H 0.78411 0.18527 0.80439 0.0
H407 H 0.74653 0.14824 0.79851 0.0
H408 H 0.77925 0.11115 0.82375 0.0
H409 H 0.81681 0.14831 0.82929 0.0
H410 H 0.82077 0.22387 0.77549 0.0
H411 H 0.7996 0.20734 0.74224 0.0
H412 H 0.81386 0.15198 0.75004 0.0
H413 H 0.83561 0.16906 0.78294 0.0
H414 H 0.86697 0.2698 0.79701 0.0
H415 H 0.88572 0.29473 0.7664 0.0
H416 H 0.89942 0.24371 0.74303 0.0
H417 H 0.88193 0.21958 0.77445 0.0
O418 O 0.8828 0.25911 0.94077 0.0
O419 O 0.91183 0.25279 0.93461 0.0
O420 O 0.71968 0.10379 0.79947 0.0
O421 O 0.73563 0.0839 0.81241 0.0
C422 C 0.86934 0.23491 0.82693 0.0
C423 C 0.85632 0.22087 0.84429 0.0
C424 C 0.83437 0.19977 0.84098 0.0
C425 C 0.82613 0.19192 0.82042 0.0
C426 C 0.83934 0.20566 0.80307 0.0
C427 C 0.86071 0.22742 0.80627 0.0
C428 C 0.8915 0.25791 0.83063 0.0
C429 C 0.8904 0.27516 0.84118 0.0
C430 C 0.91131 0.29562 0.84718 0.0
C431 C 0.93362 0.29942 0.84223 0.0
C432 C 0.93475 0.28285 0.83055 0.0
C433 C 0.91377 0.26209 0.82489 0.0
C434 C 0.86561 0.22847 0.86599 0.0
C435 C 0.85435 0.23579 0.87909 0.0
C436 C 0.86346 0.24341 0.89931 0.0
C437 C 0.88408 0.24394 0.90675 0.0
C438 C 0.89534 0.2366 0.89353 0.0
C439 C 0.88615 0.22892 0.87334 0.0
C440 C 0.81874 0.18698 0.85887 0.0
C441 C 0.79815 0.1877 0.86131 0.0
C442 C 0.78317 0.17591 0.87798 0.0
C443 C 0.78842 0.16305 0.89257 0.0
C444 C 0.80921 0.16248 0.89016 0.0
C445 C 0.82428 0.17438 0.87341 0.0
C446 C 0.8032 0.16944 0.81711 0.0
C447 C 0.78314 0.16912 0.80852 0.0
C448 C 0.76169 0.14795 0.80524 0.0
C449 C 0.7599 0.12672 0.81063 0.0
C450 C 0.78002 0.12716 0.8194 0.0
C451 C 0.80148 0.14835 0.82261 0.0
C452 C 0.82967 0.19763 0.78159 0.0
C453 C 0.81981 0.20851 0.76973 0.0
C454 C 0.80754 0.19891 0.75088 0.0
C455 C 0.80485 0.17822 0.74364 0.0
C456 C 0.81579 0.16803 0.75509 0.0
C457 C 0.82812 0.17768 0.77391 0.0
C458 C 0.87316 0.24291 0.78802 0.0
C459 C 0.8744 0.26421 0.78544 0.0
C460 C 0.88482 0.27827 0.76776 0.0
C461 C 0.8939 0.27117 0.75207 0.0
C462 C 0.89288 0.2499 0.75486 0.0
C463 C 0.88272 0.23598 0.77272 0.0
C464 C 0.89381 0.25219 0.92819 0.0
C465 C 0.73716 0.10417 0.80714 0.0
H466 H 0.70128 0.77274 0.18395 0.0
H467 H 0.68851 0.94653 0.34054 0.0
H468 H 0.65725 0.75522 0.3077 0.0
H469 H 0.65684 0.72236 0.29244 0.0
H470 H 0.73123 0.76731 0.2777 0.0
H471 H 0.73192 0.8 0.29399 0.0
H472 H 0.66564 0.77996 0.26384 0.0
H473 H 0.67383 0.77127 0.22948 0.0
H474 H 0.74407 0.83401 0.23196 0.0
H475 H 0.73579 0.84227 0.26654 0.0
H476 H 0.65982 0.821 0.26111 0.0
H477 H 0.65391 0.84551 0.23578 0.0
H478 H 0.71822 0.90631 0.25951 0.0
H479 H 0.72454 0.88141 0.28423 0.0
H480 H 0.64996 0.84218 0.30047 0.0
H481 H 0.64378 0.87417 0.30646 0.0
H482 H 0.71212 0.91146 0.33934 0.0
H483 H 0.71822 0.8795 0.33295 0.0
H484 H 0.64086 0.81202 0.33983 0.0
H485 H 0.63049 0.82683 0.3693 0.0
H486 H 0.70286 0.85891 0.39383 0.0
H487 H 0.71306 0.84385 0.36421 0.0
H488 H 0.64421 0.77265 0.34177 0.0
H489 H 0.63521 0.74457 0.37057 0.0
H490 H 0.71024 0.76929 0.3781 0.0
H491 H 0.71911 0.79757 0.34924 0.0
O492 O 0.69831 0.7767 0.19744 0.0
O493 O 0.73384 0.80965 0.19903 0.0
O494 O 0.65555 0.91376 0.32085 0.0
O495 O 0.69056 0.93369 0.33786 0.0
C496 C 0.69321 0.80077 0.30614 0.0
C497 C 0.69574 0.81607 0.28921 0.0
C498 C 0.6931 0.83511 0.29251 0.0
C499 C 0.68815 0.83902 0.31272 0.0
C500 C 0.68509 0.82352 0.32946 0.0
C501 C 0.68744 0.80429 0.32621 0.0
C502 C 0.69463 0.78003 0.30201 0.0
C503 C 0.67378 0.75777 0.30217 0.0
C504 C 0.67352 0.73905 0.29331 0.0
C505 C 0.69397 0.74245 0.28381 0.0
C506 C 0.71525 0.76434 0.28492 0.0
C507 C 0.71567 0.78293 0.29426 0.0
C508 C 0.70021 0.81163 0.26775 0.0
C509 C 0.68279 0.79179 0.25694 0.0
C510 C 0.68751 0.78689 0.2373 0.0
C511 C 0.70965 0.8019 0.22801 0.0
C512 C 0.72686 0.82205 0.2387 0.0
C513 C 0.72216 0.82686 0.25841 0.0
C514 C 0.69257 0.84942 0.27454 0.0
C515 C 0.67307 0.8395 0.26035 0.0
C516 C 0.66956 0.85359 0.24609 0.0
C517 C 0.68536 0.87792 0.2459 0.0
C518 C 0.70578 0.88764 0.25918 0.0
C519 C 0.7094 0.87346 0.27335 0.0
C520 C 0.68458 0.85861 0.31619 0.0
C521 C 0.66363 0.85735 0.30884 0.0
C522 C 0.66012 0.8756 0.31234 0.0
C523 C 0.67747 0.89538 0.32339 0.0
C524 C 0.69842 0.89651 0.33077 0.0
C525 C 0.70195 0.87829 0.32716 0.0
C526 C 0.67769 0.82694 0.34992 0.0
C527 C 0.65424 0.82156 0.35195 0.0
C528 C 0.64844 0.83021 0.36865 0.0
C529 C 0.666 0.84433 0.38361 0.0
C530 C 0.68899 0.84802 0.38253 0.0
C531 C 0.69482 0.83939 0.3657 0.0
C532 C 0.68231 0.78716 0.3435 0.0
C533 C 0.6587 0.77202 0.34967 0.0
C534 C 0.65358 0.7559 0.36601 0.0
C535 C 0.67202 0.7547 0.37656 0.0
C536 C 0.69571 0.76995 0.37036 0.0
C537 C 0.70079 0.786 0.35386 0.0
C538 C 0.71474 0.79641 0.20729 0.0
C539 C 0.67378 0.91477 0.32724 0.0
H540 H 0.80954 0.60891 0.69631 0.0
H541 H 0.98844 0.57569 0.84056 0.0
H542 H 0.83849 0.63015 0.80666 0.0
H543 H 0.80117 0.62643 0.79442 0.0
H544 H 0.76197 0.55576 0.81896 0.0
H545 H 0.79963 0.55945 0.83049 0.0
H546 H 0.87003 0.62769 0.77167 0.0
H547 H 0.8499 0.62637 0.73823 0.0
H548 H 0.79246 0.55638 0.75343 0.0
H549 H 0.813 0.55777 0.78662 0.0
H550 H 0.91371 0.62603 0.78019 0.0
H551 H 0.92927 0.6189 0.74898 0.0
H552 H 0.87463 0.54561 0.75335 0.0
H553 H 0.85893 0.55314 0.784 0.0
H554 H 0.93247 0.63332 0.82399 0.0
H555 H 0.96964 0.63382 0.82978 0.0
H556 H 0.92941 0.55843 0.83082 0.0
H557 H 0.8924 0.55824 0.8251 0.0
H558 H 0.91073 0.63482 0.86162 0.0
H559 H 0.94069 0.63664 0.88677 0.0
H560 H 0.90134 0.56144 0.89062 0.0
H561 H 0.87167 0.5598 0.86535 0.0
H562 H 0.85094 0.62925 0.8584 0.0
H563 H 0.82786 0.62525 0.88913 0.0
H564 H 0.80725 0.55312 0.89626 0.0
H565 H 0.83082 0.55757 0.86598 0.0
O566 O 0.8174 0.60889 0.70944 0.0
O567 O 0.7874 0.57373 0.71881 0.0
O568 O 0.99396 0.61474 0.83685 0.0
O569 O 0.97412 0.576 0.83761 0.0
C570 C 0.8443 0.59516 0.82092 0.0
C571 C 0.85467 0.5942 0.80228 0.0
C572 C 0.87594 0.59404 0.80335 0.0
C573 C 0.88725 0.59558 0.8229 0.0
C574 C 0.87671 0.5961 0.84156 0.0
C575 C 0.85497 0.59543 0.84063 0.0
C576 C 0.82175 0.59503 0.81932 0.0
C577 C 0.82178 0.61415 0.81001 0.0
C578 C 0.80039 0.61198 0.80308 0.0
C579 C 0.77859 0.59067 0.80547 0.0
C580 C 0.77851 0.57226 0.81659 0.0
C581 C 0.79996 0.57442 0.82342 0.0
C582 C 0.84293 0.59287 0.78157 0.0
C583 C 0.85321 0.61202 0.76764 0.0
C584 C 0.84163 0.61125 0.7486 0.0
C585 C 0.81953 0.5913 0.74319 0.0
C586 C 0.80942 0.57203 0.75713 0.0
C587 C 0.8211 0.57278 0.7761 0.0
C588 C 0.8852 0.59009 0.78423 0.0
C589 C 0.9051 0.6085 0.77425 0.0
C590 C 0.914 0.60434 0.75653 0.0
C591 C 0.90318 0.58167 0.74861 0.0
C592 C 0.88315 0.56334 0.75873 0.0
C593 C 0.87422 0.56755 0.77633 0.0
C594 C 0.90985 0.59576 0.8241 0.0
C595 C 0.93181 0.61696 0.82521 0.0
C596 C 0.95296 0.61718 0.82861 0.0
C597 C 0.95248 0.59615 0.83087 0.0
C598 C 0.93042 0.57493 0.8292 0.0
C599 C 0.90928 0.57475 0.82582 0.0
C600 C 0.88899 0.59719 0.8618 0.0
C601 C 0.90802 0.61879 0.86866 0.0
C602 C 0.92525 0.61979 0.88277 0.0
C603 C 0.92347 0.59917 0.89039 0.0
C604 C 0.90308 0.57759 0.8851 0.0
C605 C 0.886 0.57661 0.87081 0.0
C606 C 0.8427 0.59376 0.86013 0.0
C607 C 0.84169 0.61272 0.86685 0.0
C608 C 0.82833 0.61032 0.88428 0.0
C609 C 0.81563 0.58884 0.8952 0.0
C610 C 0.8171 0.57002 0.88853 0.0
C611 C 0.83053 0.57249 0.87119 0.0
C612 C 0.80708 0.59068 0.72311 0.0
C613 C 0.97481 0.59629 0.83525 0.0
H614 H 0.25748 0.80935 0.45457 0.0
H615 H 0.15374 0.65236 0.26667 0.0
H616 H 0.28668 0.84628 0.34923 0.0
H617 H 0.32048 0.87431 0.37105 0.0
H618 H 0.36319 0.84901 0.34772 0.0
H619 H 0.32885 0.82001 0.32731 0.0
H620 H 0.23729 0.80072 0.3642 0.0
H621 H 0.23999 0.80505 0.40227 0.0
H622 H 0.30064 0.7967 0.40503 0.0
H623 H 0.29754 0.7921 0.36699 0.0
H624 H 0.19896 0.75787 0.33511 0.0
H625 H 0.16996 0.72462 0.35653 0.0
H626 H 0.22572 0.71287 0.37818 0.0
H627 H 0.25422 0.74553 0.35635 0.0
H628 H 0.20718 0.76605 0.28531 0.0
H629 H 0.17448 0.73078 0.26892 0.0
H630 H 0.20482 0.69165 0.29454 0.0
H631 H 0.23753 0.72711 0.31064 0.0
H632 H 0.24761 0.8037 0.26276 0.0
H633 H 0.2428 0.79186 0.22601 0.0
H634 H 0.27193 0.74908 0.24263 0.0
H635 H 0.27659 0.76094 0.27906 0.0
H636 H 0.29056 0.85085 0.29338 0.0
H637 H 0.32215 0.88021 0.27079 0.0
H638 H 0.34822 0.83419 0.26363 0.0
H639 H 0.31681 0.80514 0.28632 0.0
O640 O 0.25668 0.8075 0.43954 0.0
O641 O 0.28785 0.80321 0.44009 0.0
O642 O 0.15164 0.68749 0.26011 0.0
O643 O 0.16645 0.66656 0.27299 0.0
C644 C 0.28369 0.81107 0.32684 0.0
C645 C 0.26559 0.79371 0.33971 0.0
C646 C 0.24615 0.77345 0.33065 0.0
C647 C 0.24464 0.77062 0.30876 0.0
C648 C 0.26279 0.7878 0.29595 0.0
C649 C 0.28222 0.80809 0.30492 0.0
C650 C 0.30527 0.83107 0.3367 0.0
C651 C 0.30347 0.84707 0.34865 0.0
C652 C 0.32287 0.86316 0.36102 0.0
C653 C 0.34452 0.86373 0.36139 0.0
C654 C 0.34665 0.8487 0.34824 0.0
C655 C 0.32715 0.83237 0.33622 0.0
C656 C 0.26731 0.79627 0.36284 0.0
C657 C 0.25111 0.79979 0.37307 0.0
C658 C 0.25272 0.80229 0.39481 0.0
C659 C 0.27058 0.80128 0.40669 0.0
C660 C 0.28672 0.79762 0.39635 0.0
C661 C 0.28504 0.79505 0.37463 0.0
C662 C 0.22867 0.75411 0.34426 0.0
C663 C 0.20482 0.74808 0.34453 0.0
C664 C 0.18836 0.72919 0.35682 0.0
C665 C 0.19553 0.71604 0.36895 0.0
C666 C 0.21953 0.72239 0.36876 0.0
C667 C 0.2359 0.74118 0.35648 0.0
C668 C 0.22461 0.74907 0.29921 0.0
C669 C 0.2067 0.74983 0.28735 0.0
C670 C 0.18806 0.72967 0.27802 0.0
C671 C 0.18702 0.70837 0.28044 0.0
C672 C 0.20505 0.70773 0.29238 0.0
C673 C 0.22371 0.72792 0.30165 0.0
C674 C 0.26246 0.78316 0.27343 0.0
C675 C 0.25331 0.7921 0.25829 0.0
C676 C 0.25048 0.78525 0.23742 0.0
C677 C 0.25704 0.76959 0.23148 0.0
C678 C 0.26705 0.76143 0.24665 0.0
C679 C 0.26964 0.76809 0.26746 0.0
C680 C 0.30137 0.82587 0.29136 0.0
C681 C 0.30314 0.84718 0.28691 0.0
C682 C 0.32108 0.86384 0.27397 0.0
C683 C 0.33766 0.85948 0.26547 0.0
C684 C 0.33588 0.83814 0.27013 0.0
C685 C 0.31785 0.82147 0.28292 0.0
C686 C 0.2723 0.80404 0.42977 0.0
C687 C 0.16728 0.68691 0.27054 0.0
H688 H 0.49751 0.28244 0.65945 0.0
H689 H 0.45628 0.08635 0.81631 0.0
H690 H 0.52249 0.29139 0.78092 0.0
H691 H 0.52609 0.32673 0.76551 0.0
H692 H 0.44919 0.29173 0.76134 0.0
H693 H 0.44582 0.25642 0.77689 0.0
H694 H 0.51742 0.26326 0.74539 0.0
H695 H 0.51636 0.27533 0.70895 0.0
H696 H 0.43922 0.23258 0.7082 0.0
H697 H 0.4406 0.22077 0.74468 0.0
H698 H 0.51988 0.21831 0.76201 0.0
H699 H 0.52494 0.19724 0.73446 0.0
H700 H 0.4488 0.1588 0.72169 0.0
H701 H 0.44392 0.17993 0.74967 0.0
H702 H 0.51642 0.20259 0.81037 0.0
H703 H 0.51563 0.16663 0.81907 0.0
H704 H 0.44093 0.12632 0.80041 0.0
H705 H 0.44193 0.16245 0.79202 0.0
H706 H 0.52132 0.24085 0.83712 0.0
H707 H 0.52664 0.22603 0.8711 0.0
H708 H 0.45194 0.17154 0.86967 0.0
H709 H 0.44672 0.18678 0.83581 0.0
H710 H 0.52431 0.28187 0.819 0.0
H711 H 0.53078 0.30759 0.84782 0.0
H712 H 0.45608 0.26449 0.86265 0.0
H713 H 0.44986 0.23873 0.83372 0.0
O714 O 0.49754 0.27737 0.67381 0.0
O715 O 0.45793 0.25495 0.67418 0.0
O716 O 0.49549 0.12236 0.82247 0.0
O717 O 0.4571 0.10083 0.813 0.0
C718 C 0.48194 0.2491 0.78597 0.0
C719 C 0.47976 0.23436 0.76978 0.0
C720 C 0.47914 0.21357 0.77465 0.0
C721 C 0.47961 0.2069 0.79574 0.0
C722 C 0.48153 0.22148 0.81202 0.0
C723 C 0.48309 0.2428 0.80711 0.0
C724 C 0.4839 0.27151 0.78033 0.0
C725 C 0.50645 0.29163 0.77734 0.0
C726 C 0.50845 0.31176 0.76846 0.0
C727 C 0.48791 0.31199 0.76216 0.0
C728 C 0.46532 0.29201 0.7659 0.0
C729 C 0.46335 0.27194 0.77494 0.0
C730 C 0.4791 0.24119 0.74757 0.0
C731 C 0.50034 0.25653 0.73728 0.0
C732 C 0.49967 0.26338 0.71649 0.0
C733 C 0.4777 0.25494 0.70566 0.0
C734 C 0.45643 0.23942 0.71608 0.0
C735 C 0.45715 0.23262 0.73687 0.0
C736 C 0.48157 0.2006 0.75774 0.0
C737 C 0.50432 0.20536 0.75322 0.0
C738 C 0.50717 0.19342 0.7374 0.0
C739 C 0.48728 0.17648 0.7258 0.0
C740 C 0.46442 0.17167 0.73045 0.0
C741 C 0.4616 0.18374 0.7463 0.0
C742 C 0.4792 0.18507 0.8007 0.0
C743 C 0.4999 0.18597 0.80826 0.0
C744 C 0.4994 0.16541 0.81317 0.0
C745 C 0.47819 0.14358 0.81046 0.0
C746 C 0.45754 0.14282 0.80271 0.0
C747 C 0.45806 0.1634 0.79786 0.0
C748 C 0.48362 0.21494 0.83408 0.0
C749 C 0.50598 0.22612 0.84444 0.0
C750 C 0.50903 0.21748 0.8637 0.0
C751 C 0.48975 0.19748 0.87294 0.0
C752 C 0.46708 0.18707 0.86303 0.0
C753 C 0.46406 0.19571 0.84371 0.0
C754 C 0.48656 0.2587 0.82411 0.0
C755 C 0.50929 0.27821 0.82828 0.0
C756 C 0.51294 0.29285 0.84475 0.0
C757 C 0.4939 0.28815 0.85744 0.0
C758 C 0.47112 0.26848 0.85325 0.0
C759 C 0.46749 0.25386 0.83669 0.0
C760 C 0.47703 0.26235 0.68361 0.0
C761 C 0.47755 0.12169 0.81569 0.0
H762 H 0.19205 0.50598 0.03119 0.0
H763 H 0.21169 0.49232 0.05595 0.0
H764 H 0.20611 0.53127 0.10514 0.0
H765 H 0.18756 0.54571 0.08013 0.0
H766 H 0.24594 0.53285 0.1105 0.0
H767 H 0.16438 0.4725 0.09732 0.0
H768 H 0.1293 0.44571 0.07544 0.0
H769 H 0.16615 0.41375 0.05431 0.0
H770 H 0.20164 0.44064 0.07582 0.0
H771 H 0.21671 0.43342 0.18981 0.0
H772 H 0.20521 0.44812 0.15909 0.0
H773 H 0.27861 0.48805 0.14021 0.0
H774 H 0.29028 0.47349 0.17116 0.0
H775 H 0.2067 0.44701 0.11821 0.0
H776 H 0.29031 0.54058 0.1201 0.0
H777 H 0.32093 0.56748 0.14555 0.0
H778 H 0.27222 0.53258 0.19573 0.0
H779 H 0.24123 0.50574 0.17055 0.0
C780 C 0.19562 0.51199 0.04719 0.0
C781 C 0.18841 0.52683 0.05389 0.0
C782 C 0.20662 0.50407 0.06135 0.0
C783 C 0.20999 0.51042 0.08252 0.0
C784 C 0.20372 0.52612 0.08892 0.0
C785 C 0.19308 0.5343 0.0747 0.0
C786 C 0.2185 0.4996 0.09836 0.0
C787 C 0.2375 0.51409 0.11204 0.0
C788 C 0.20714 0.47508 0.10075 0.0
C789 C 0.18574 0.45873 0.08799 0.0
C790 C 0.16506 0.45985 0.0879 0.0
C791 C 0.1451 0.44465 0.07558 0.0
C792 C 0.14552 0.42807 0.06346 0.0
C793 C 0.16588 0.42663 0.06368 0.0
C794 C 0.18592 0.44184 0.07593 0.0
C795 C 0.23034 0.44489 0.17886 0.0
C796 C 0.25442 0.45231 0.18289 0.0
C797 C 0.22375 0.45335 0.16133 0.0
C798 C 0.24107 0.46941 0.14747 0.0
C799 C 0.26498 0.47597 0.15088 0.0
C800 C 0.27163 0.46762 0.16852 0.0
C801 C 0.23418 0.48027 0.13029 0.0
C802 C 0.21544 0.46578 0.1164 0.0
C803 C 0.24516 0.50476 0.12822 0.0
C804 C 0.26359 0.52098 0.14346 0.0
C805 C 0.28614 0.5387 0.13656 0.0
C806 C 0.30355 0.55394 0.15094 0.0
C807 C 0.29855 0.55168 0.17225 0.0
C808 C 0.2761 0.53425 0.17923 0.0
C809 C 0.25862 0.51902 0.16491 0.0
H810 H 0.31206 0.56347 0.18336 0.0
H811 H 0.13004 0.41631 0.05393 0.0
H812 H 0.67385 0.05047 0.5876 0.0
H813 H 0.70597 0.07408 0.61323 0.0
H814 H 0.66028 0.09255 0.64207 0.0
H815 H 0.62835 0.0691 0.61632 0.0
H816 H 0.70489 0.13031 0.63572 0.0
H817 H 0.66989 0.05249 0.66455 0.0
H818 H 0.6563 0.01082 0.66384 0.0
H819 H 0.72775 0.02867 0.65233 0.0
H820 H 0.7417 0.07049 0.65262 0.0
H821 H 0.76129 0.17201 0.73409 0.0
H822 H 0.73422 0.15055 0.70497 0.0
H823 H 0.78523 0.13527 0.68263 0.0
H824 H 0.8126 0.15692 0.71183 0.0
H825 H 0.74082 0.09685 0.68343 0.0
H826 H 0.77637 0.17476 0.65671 0.0
H827 H 0.78993 0.21644 0.65734 0.0
H828 H 0.71775 0.19858 0.66466 0.0
H829 H 0.70378 0.15678 0.66438 0.0
C830 C 0.67081 0.05954 0.59954 0.0
C831 C 0.64888 0.0581 0.60026 0.0
C832 C 0.68902 0.07293 0.61411 0.0
C833 C 0.68542 0.08494 0.6296 0.0
C834 C 0.66341 0.08344 0.63023 0.0
C835 C 0.64521 0.07004 0.61568 0.0
C836 C 0.7046 0.09925 0.64508 0.0
C837 C 0.7126 0.12297 0.6463 0.0
C838 C 0.71512 0.08976 0.6584 0.0
C839 C 0.70679 0.06462 0.65838 0.0
C840 C 0.68267 0.04754 0.66169 0.0
C841 C 0.67491 0.02389 0.66139 0.0
C842 C 0.69114 0.0171 0.65798 0.0
C843 C 0.71519 0.03396 0.65493 0.0
C844 C 0.72304 0.05764 0.65517 0.0
C845 C 0.76698 0.1645 0.72277 0.0
C846 C 0.78918 0.16633 0.72516 0.0
C847 C 0.75145 0.15216 0.70616 0.0
C848 C 0.75783 0.14155 0.6915 0.0
C849 C 0.77999 0.14337 0.69377 0.0
C850 C 0.79557 0.15571 0.71045 0.0
C851 C 0.74088 0.12787 0.67429 0.0
C852 C 0.73329 0.10427 0.67273 0.0
C853 C 0.73074 0.13747 0.66062 0.0
C854 C 0.73905 0.16262 0.66069 0.0
C855 C 0.7634 0.17972 0.65861 0.0
C856 C 0.77116 0.20337 0.65888 0.0
C857 C 0.75472 0.21016 0.66108 0.0
C858 C 0.73047 0.1933 0.66297 0.0
C859 C 0.72262 0.16962 0.66273 0.0
H860 H 0.76076 0.22848 0.66128 0.0
H861 H 0.6851 0.99878 0.65776 0.0
H862 H 0.61634 0.55702 0.17482 0.0
H863 H 0.63208 0.5862 0.20228 0.0
H864 H 0.65321 0.64062 0.15527 0.0
H865 H 0.63821 0.61163 0.12771 0.0
H866 H 0.6883 0.65231 0.18401 0.0
H867 H 0.60288 0.62091 0.1858 0.0
H868 H 0.56011 0.59187 0.19059 0.0
H869 H 0.57576 0.57411 0.25181 0.0
H870 H 0.61862 0.60294 0.24733 0.0
H871 H 0.70445 0.74657 0.24274 0.0
H872 H 0.69504 0.71531 0.21881 0.0
H873 H 0.66945 0.66578 0.27056 0.0
H874 H 0.67784 0.69706 0.29436 0.0
H875 H 0.63847 0.64962 0.24137 0.0
H876 H 0.72233 0.68226 0.24225 0.0
H877 H 0.76492 0.71302 0.24001 0.0
H878 H 0.75367 0.72786 0.17615 0.0
H879 H 0.71093 0.6974 0.17808 0.0
C880 C 0.62446 0.57522 0.17032 0.0
C881 C 0.62605 0.582 0.14905 0.0
C882 C 0.63324 0.59186 0.18605 0.0
C883 C 0.64366 0.6156 0.18086 0.0
C884 C 0.64521 0.6224 0.15966 0.0
C885 C 0.63644 0.60578 0.14392 0.0
C886 C 0.65341 0.63346 0.19742 0.0
C887 C 0.67737 0.65186 0.19647 0.0
C888 C 0.63947 0.63239 0.21418 0.0
C889 C 0.61395 0.61391 0.21615 0.0
C890 C 0.59723 0.61056 0.20015 0.0
C891 C 0.57295 0.59422 0.20286 0.0
C892 C 0.56523 0.5812 0.22153 0.0
C893 C 0.58177 0.58424 0.23739 0.0
C894 C 0.60603 0.60057 0.23477 0.0
C895 C 0.69738 0.72909 0.24905 0.0
C896 C 0.69199 0.72416 0.27036 0.0
C897 C 0.69208 0.71121 0.23538 0.0
C898 C 0.6818 0.68813 0.24286 0.0
C899 C 0.67737 0.68341 0.26439 0.0
C900 C 0.68223 0.70124 0.27799 0.0
C901 C 0.67336 0.6687 0.22795 0.0
C902 C 0.64962 0.64999 0.22914 0.0
C903 C 0.68763 0.66934 0.21165 0.0
C904 C 0.71337 0.68763 0.21037 0.0
C905 C 0.72889 0.69218 0.22777 0.0
C906 C 0.75307 0.70955 0.22655 0.0
C907 C 0.76199 0.72241 0.20796 0.0
C908 C 0.74674 0.71789 0.19054 0.0
C909 C 0.72254 0.70054 0.19168 0.0
H910 H 0.78071 0.73586 0.20705 0.0
H911 H 0.54643 0.56883 0.22381 0.0
H912 H 0.01944 0.54859 0.61067 0.0
H913 H 0.00391 0.56298 0.63621 0.0
H914 H 0.93283 0.50398 0.62505 0.0
H915 H 0.94826 0.48883 0.60008 0.0
H916 H 0.93678 0.54893 0.62703 0.0
H917 H 0.95952 0.50066 0.66585 0.0
H918 H 0.98727 0.48811 0.677 0.0
H919 H 0.03642 0.55595 0.70181 0.0
H920 H 0.00909 0.56901 0.6905 0.0
H921 H 0.87844 0.55168 0.71647 0.0
H922 H 0.89455 0.54157 0.6879 0.0
H923 H 0.96618 0.59135 0.70983 0.0
H924 H 0.95018 0.60062 0.73918 0.0
H925 H 0.96302 0.5525 0.70147 0.0
H926 H 0.94072 0.60104 0.66461 0.0
H927 H 0.91429 0.61501 0.65292 0.0
H928 H 0.86617 0.54935 0.62387 0.0
H929 H 0.89215 0.53485 0.63564 0.0
C930 C 0.00052 0.5385 0.61373 0.0
C931 C 0.98516 0.51736 0.60344 0.0
C932 C 0.99167 0.54689 0.6282 0.0
C933 C 0.96728 0.53445 0.63255 0.0
C934 C 0.95172 0.51384 0.62181 0.0
C935 C 0.96058 0.50527 0.60748 0.0
C936 C 0.95825 0.54244 0.64903 0.0
C937 C 0.94225 0.54951 0.64336 0.0
C938 C 0.96601 0.54376 0.67017 0.0
C939 C 0.98238 0.53589 0.67713 0.0
C940 C 0.97634 0.51296 0.67352 0.0
C941 C 0.99197 0.50574 0.6799 0.0
C942 C 0.01363 0.52124 0.69005 0.0
C943 C 0.01966 0.54398 0.69391 0.0
C944 C 0.00409 0.55129 0.68753 0.0
C945 C 0.89764 0.56042 0.7153 0.0
C946 C 0.913 0.5769 0.73021 0.0
C947 C 0.90683 0.55484 0.69876 0.0
C948 C 0.9316 0.56589 0.69654 0.0
C949 C 0.947 0.58264 0.71118 0.0
C950 C 0.93782 0.58809 0.72784 0.0
C951 C 0.94139 0.55908 0.6796 0.0
C952 C 0.95756 0.55214 0.68516 0.0
C953 C 0.93395 0.55812 0.65833 0.0
C954 C 0.91829 0.56679 0.65118 0.0
C955 C 0.92441 0.58951 0.65587 0.0
C956 C 0.90953 0.59753 0.6492 0.0
C957 C 0.88854 0.58306 0.63771 0.0
C958 C 0.88242 0.56054 0.6328 0.0
C959 C 0.89723 0.55242 0.63945 0.0
H960 H 0.87704 0.58931 0.63256 0.0
H961 H 0.02572 0.51562 0.69498 0.0
H962 H 0.46966 0.99881 0.11851 0.0
H963 H 0.4399 0.97479 0.14492 0.0
H964 H 0.49247 0.96617 0.17934 0.0
H965 H 0.52205 0.98993 0.15273 0.0
H966 H 0.45066 0.92522 0.17498 0.0
H967 H 0.47595 0.00241 0.19647 0.0
H968 H 0.48427 0.04236 0.1916 0.0
H969 H 0.4105 0.01518 0.17529 0.0
H970 H 0.40181 0.97503 0.17973 0.0
H971 H 0.3849 0.87387 0.26658 0.0
H972 H 0.41573 0.90112 0.24254 0.0
H973 H 0.36409 0.91165 0.20884 0.0
H974 H 0.33322 0.88456 0.23303 0.0
H975 H 0.40574 0.95208 0.21315 0.0
H976 H 0.38053 0.87524 0.19044 0.0
H977 H 0.37189 0.8351 0.19457 0.0
H978 H 0.44514 0.8615 0.21239 0.0
H979 H 0.45415 0.90182 0.20865 0.0
C980 C 0.47472 0.9918 0.13181 0.0
C981 C 0.49791 0.99601 0.13376 0.0
C982 C 0.45785 0.97821 0.14689 0.0
C983 C 0.46403 0.96884 0.16419 0.0
C984 C 0.48733 0.97323 0.16613 0.0
C985 C 0.50418 0.9868 0.15104 0.0
C986 C 0.44604 0.95393 0.17996 0.0
C987 C 0.4411 0.93121 0.18356 0.0
C988 C 0.43313 0.96156 0.19074 0.0
C989 C 0.43827 0.9857 0.18826 0.0
C990 C 0.46153 0.00494 0.1917 0.0
C991 C 0.46631 0.02762 0.18903 0.0
C992 C 0.44793 0.0313 0.1831 0.0
C993 C 0.42472 0.0123 0.17986 0.0
C994 C 0.41986 0.98957 0.18247 0.0
C995 C 0.38013 0.88198 0.25403 0.0
C996 C 0.35661 0.87695 0.25157 0.0
C997 C 0.39775 0.89755 0.24031 0.0
C998 C 0.39213 0.90813 0.22367 0.0
C999 C 0.36882 0.90366 0.22155 0.0
C1000 C 0.35122 0.88822 0.23538 0.0
C1001 C 0.41041 0.92339 0.2082 0.0
C1002 C 0.41537 0.94613 0.20461 0.0
C1003 C 0.4233 0.91576 0.19735 0.0
C1004 C 0.41796 0.89154 0.19946 0.0
C1005 C 0.39476 0.87248 0.19538 0.0
C1006 C 0.3898 0.8497 0.19763 0.0
C1007 C 0.40794 0.84575 0.20379 0.0
C1008 C 0.4311 0.86458 0.20765 0.0
C1009 C 0.43615 0.8874 0.20545 0.0
H1010 H 0.40407 0.8281 0.20552 0.0
H1011 H 0.45167 0.04888 0.18104 0.0
H1012 H 0.54926 0.50103 0.65365 0.0
H1013 H 0.53938 0.47328 0.68311 0.0
H1014 H 0.48642 0.41771 0.64403 0.0
H1015 H 0.49605 0.44562 0.61476 0.0
H1016 H 0.47147 0.41294 0.68425 0.0
H1017 H 0.54195 0.42803 0.64919 0.0
H1018 H 0.58228 0.45426 0.63552 0.0
H1019 H 0.60951 0.47802 0.69772 0.0
H1020 H 0.56915 0.45224 0.71177 0.0
H1021 H 0.46325 0.31132 0.72665 0.0
H1022 H 0.46888 0.34445 0.70532 0.0
H1023 H 0.52361 0.39171 0.74888 0.0
H1024 H 0.51818 0.35846 0.77025 0.0
H1025 H 0.53819 0.40398 0.71001 0.0
H1026 H 0.46787 0.38535 0.74563 0.0
H1027 H 0.42711 0.36006 0.75875 0.0
H1028 H 0.3994 0.34313 0.69561 0.0
H1029 H 0.44004 0.36807 0.68211 0.0
C1030 C 0.53522 0.48295 0.6516 0.0
C1031 C 0.52349 0.47521 0.6321 0.0
C1032 C 0.52963 0.46714 0.66833 0.0
C1033 C 0.51241 0.44337 0.66565 0.0
C1034 C 0.49977 0.43595 0.64643 0.0
C1035 C 0.50529 0.45178 0.62974 0.0
C1036 C 0.50894 0.4259 0.68213 0.0
C1037 C 0.48599 0.41087 0.68984 0.0
C1038 C 0.52806 0.42361 0.68974 0.0
C1039 C 0.55249 0.43839 0.6815 0.0
C1040 C 0.55651 0.43892 0.65996 0.0
C1041 C 0.57936 0.45372 0.65215 0.0
C1042 C 0.59842 0.46786 0.66576 0.0
C1043 C 0.59468 0.46712 0.68723 0.0
C1044 C 0.57183 0.45241 0.69512 0.0
C1045 C 0.47615 0.32877 0.73192 0.0
C1046 C 0.49015 0.33228 0.75022 0.0
C1047 C 0.47938 0.34772 0.7197 0.0
C1048 C 0.49645 0.37063 0.72563 0.0
C1049 C 0.5103 0.37421 0.74401 0.0
C1050 C 0.50719 0.35522 0.7562 0.0
C1051 C 0.50055 0.39067 0.71202 0.0
C1052 C 0.52367 0.4062 0.70475 0.0
C1053 C 0.48156 0.39339 0.70482 0.0
C1054 C 0.45705 0.37847 0.71287 0.0
C1055 C 0.45311 0.37612 0.73455 0.0
C1056 C 0.43002 0.36186 0.74205 0.0
C1057 C 0.41068 0.34996 0.72802 0.0
C1058 C 0.41439 0.35235 0.70646 0.0
C1059 C 0.43745 0.36657 0.69887 0.0
H1060 H 0.39282 0.33893 0.73386 0.0
H1061 H 0.61609 0.47936 0.65969 0.0
H1062 H 0.6111 0.97459 0.47145 0.0
H1063 H 0.62197 0.95149 0.45151 0.0
H1064 H 0.64061 0.9287 0.509 0.0
H1065 H 0.62997 0.95203 0.52911 0.0
H1066 H 0.67361 0.94096 0.47625 0.0
H1067 H 0.5893 0.8929 0.48773 0.0
H1068 H 0.54799 0.88416 0.48747 0.0
H1069 H 0.54944 0.89453 0.42069 0.0
H1070 H 0.59092 0.90368 0.42059 0.0
H1071 H 0.67634 0.84923 0.42589 0.0
H1072 H 0.66824 0.87134 0.45032 0.0
H1073 H 0.63721 0.89123 0.39939 0.0
H1074 H 0.64489 0.869 0.37518 0.0
H1075 H 0.61006 0.87837 0.43197 0.0
H1076 H 0.69417 0.92884 0.4199 0.0
H1077 H 0.73606 0.9394 0.41918 0.0
H1078 H 0.73575 0.92625 0.48549 0.0
H1079 H 0.69372 0.91531 0.48655 0.0
C1080 C 0.61785 0.96495 0.47983 0.0
C1081 C 0.6196 0.96503 0.50183 0.0
C1082 C 0.62391 0.95166 0.46844 0.0
C1083 C 0.63186 0.93824 0.47883 0.0
C1084 C 0.63444 0.93891 0.50074 0.0
C1085 C 0.62821 0.95208 0.51218 0.0
C1086 C 0.63648 0.92282 0.46675 0.0
C1087 C 0.65968 0.92701 0.4668 0.0
C1088 C 0.61834 0.90494 0.4542 0.0
C1089 C 0.59329 0.89916 0.45418 0.0
C1090 C 0.58087 0.89348 0.47301 0.0
C1091 C 0.55742 0.88843 0.47292 0.0
C1092 C 0.54612 0.88884 0.45408 0.0
C1093 C 0.55823 0.89423 0.43527 0.0
C1094 C 0.5817 0.89933 0.43528 0.0
C1095 C 0.66777 0.85833 0.42001 0.0
C1096 C 0.66097 0.85719 0.39874 0.0
C1097 C 0.66322 0.871 0.43391 0.0
C1098 C 0.65222 0.88304 0.42666 0.0
C1099 C 0.64554 0.88193 0.40539 0.0
C1100 C 0.64986 0.86916 0.39159 0.0
C1101 C 0.64737 0.89675 0.44104 0.0
C1102 C 0.62403 0.89218 0.4415 0.0
C1103 C 0.66546 0.91441 0.45387 0.0
C1104 C 0.69072 0.92099 0.45326 0.0
C1105 C 0.70297 0.92801 0.4343 0.0
C1106 C 0.72675 0.9341 0.43383 0.0
C1107 C 0.73854 0.93342 0.45226 0.0
C1108 C 0.72658 0.92672 0.47121 0.0
C1109 C 0.70279 0.92059 0.47176 0.0
H1110 H 0.75695 0.93815 0.45187 0.0
H1111 H 0.52796 0.88493 0.45405 0.0
H1112 H 0.68499 0.57399 0.05013 0.0
H1113 H 0.71646 0.58573 0.02457 0.0
H1114 H 0.67662 0.51688 0.99839 0.0
H1115 H 0.64504 0.50539 0.02367 0.0
H1116 H 0.7458 0.57106 0.0153 0.0
H1117 H 0.68132 0.52166 0.9455 0.0
H1118 H 0.63986 0.50793 0.93403 0.0
H1119 H 0.64167 0.5618 0.96924 0.0
H1120 H 0.68325 0.5761 0.9806 0.0
H1121 H 0.80885 0.56366 0.93175 0.0
H1122 H 0.78119 0.55617 0.9595 0.0
H1123 H 0.76023 0.59996 0.9271 0.0
H1124 H 0.78694 0.60654 0.89872 0.0
H1125 H 0.72235 0.56195 0.93979 0.0
H1126 H 0.79674 0.61787 0.97214 0.0
H1127 H 0.83867 0.63488 0.98398 0.0
H1128 H 0.81847 0.57492 0.02362 0.0
H1129 H 0.77646 0.5574 0.0118 0.0
C1130 C 0.68318 0.56143 0.03895 0.0
C1131 C 0.66269 0.53894 0.03856 0.0
C1132 C 0.70111 0.56807 0.02445 0.0
C1133 C 0.69873 0.55228 0.00939 0.0
C1134 C 0.67864 0.52945 0.00964 0.0
C1135 C 0.6607 0.52287 0.02407 0.0
C1136 C 0.7167 0.5599 0.99286 0.0
C1137 C 0.74071 0.56906 0.99879 0.0
C1138 C 0.71013 0.55785 0.9713 0.0
C1139 C 0.68533 0.5498 0.96405 0.0
C1140 C 0.67292 0.53066 0.95068 0.0
C1141 C 0.64939 0.52277 0.94421 0.0
C1142 C 0.63812 0.53394 0.95095 0.0
C1143 C 0.65039 0.55312 0.96408 0.0
C1144 C 0.67394 0.56112 0.97054 0.0
C1145 C 0.79829 0.57163 0.93045 0.0
C1146 C 0.80014 0.58569 0.91293 0.0
C1147 C 0.78266 0.56754 0.94648 0.0
C1148 C 0.76878 0.57769 0.94554 0.0
C1149 C 0.77079 0.59197 0.92822 0.0
C1150 C 0.78629 0.59593 0.9121 0.0
C1151 C 0.75149 0.5727 0.96219 0.0
C1152 C 0.72754 0.564 0.95629 0.0
C1153 C 0.75824 0.57571 0.98373 0.0
C1154 C 0.78348 0.58624 0.99095 0.0
C1155 C 0.80126 0.60823 0.98327 0.0
C1156 C 0.82504 0.61798 0.99 0.0
C1157 C 0.83124 0.60597 0.00451 0.0
C1158 C 0.81365 0.5842 0.01237 0.0
C1159 C 0.78985 0.57436 0.00568 0.0
H1160 H 0.84966 0.61354 0.00969 0.0
H1161 H 0.61988 0.52777 0.94597 0.0
H1162 H 0.04881 0.56414 0.50282 0.0
H1163 H 0.0712 0.59612 0.47747 0.0
H1164 H 0.10755 0.56266 0.45778 0.0
H1165 H 0.08533 0.5309 0.48331 0.0
H1166 H 0.13829 0.60811 0.46464 0.0
H1167 H 0.06362 0.56178 0.42749 0.0
H1168 H 0.01986 0.54068 0.42264 0.0
H1169 H 0.02143 0.60441 0.42975 0.0
H1170 H 0.0652 0.62584 0.435 0.0
H1171 H 0.19129 0.67371 0.37332 0.0
H1172 H 0.16495 0.64128 0.39647 0.0
H1173 H 0.13393 0.67958 0.41654 0.0
H1174 H 0.1605 0.71235 0.39351 0.0
H1175 H 0.10005 0.63254 0.40981 0.0
H1176 H 0.17475 0.67869 0.44704 0.0
H1177 H 0.21852 0.69966 0.45183 0.0
H1178 H 0.21666 0.63582 0.44449 0.0
H1179 H 0.17289 0.61452 0.43933 0.0
C1180 C 0.06148 0.56368 0.49291 0.0
C1181 C 0.06542 0.54524 0.49474 0.0
C1182 C 0.07417 0.58182 0.47845 0.0
C1183 C 0.09088 0.58164 0.46562 0.0
C1184 C 0.09473 0.56311 0.46751 0.0
C1185 C 0.08206 0.54502 0.48197 0.0
C1186 C 0.10493 0.60112 0.45066 0.0
C1187 C 0.12991 0.61324 0.45248 0.0
C1188 C 0.09397 0.6082 0.43516 0.0
C1189 C 0.06767 0.59538 0.43185 0.0
C1190 C 0.05462 0.57127 0.42819 0.0
C1191 C 0.02982 0.55925 0.42535 0.0
C1192 C 0.01787 0.57119 0.42594 0.0
C1193 C 0.03071 0.59518 0.42933 0.0
C1194 C 0.05552 0.60728 0.43223 0.0
C1195 C 0.17892 0.67529 0.3827 0.0
C1196 C 0.1782 0.69572 0.3818 0.0
C1197 C 0.16382 0.6567 0.39584 0.0
C1198 C 0.14775 0.65819 0.40841 0.0
C1199 C 0.14625 0.67814 0.40695 0.0
C1200 C 0.1614 0.6968 0.39378 0.0
C1201 C 0.13334 0.63928 0.4237 0.0
C1202 C 0.10835 0.62737 0.422 0.0
C1203 C 0.14426 0.63233 0.43932 0.0
C1204 C 0.17056 0.64505 0.4426 0.0
C1205 C 0.18369 0.66915 0.44629 0.0
C1206 C 0.2085 0.68109 0.44909 0.0
C1207 C 0.22037 0.66909 0.44841 0.0
C1208 C 0.20745 0.6451 0.44498 0.0
C1209 C 0.18263 0.63308 0.44213 0.0
H1210 H 0.23958 0.67836 0.45059 0.0
H1211 H 0.99866 0.56185 0.42373 0.0
H1212 H 0.50299 0.08776 0.04046 0.0
H1213 H 0.49354 0.10977 0.01462 0.0
H1214 H 0.54384 0.11161 0.97234 0.0
H1215 H 0.55303 0.08934 0.99789 0.0
H1216 H 0.54797 0.15615 0.97941 0.0
H1217 H 0.48981 0.07587 0.96155 0.0
H1218 H 0.4569 0.03573 0.96924 0.0
H1219 H 0.41294 0.06144 0.98684 0.0
H1220 H 0.44576 0.10179 0.97954 0.0
H1221 H 0.52587 0.18973 0.88045 0.0
H1222 H 0.53194 0.17029 0.91072 0.0
H1223 H 0.4686 0.16038 0.93845 0.0
H1224 H 0.46226 0.17971 0.90787 0.0
H1225 H 0.46926 0.12172 0.94234 0.0
H1226 H 0.52464 0.20117 0.95759 0.0
H1227 H 0.55697 0.24185 0.95105 0.0
H1228 H 0.60551 0.21933 0.94059 0.0
H1229 H 0.57338 0.17845 0.94676 0.0
C1230 C 0.51195 0.09286 0.02562 0.0
C1231 C 0.52864 0.08681 0.02108 0.0
C1232 C 0.50653 0.10534 0.01091 0.0
C1233 C 0.51801 0.11226 0.99162 0.0
C1234 C 0.53482 0.10641 0.98716 0.0
C1235 C 0.53993 0.0936 0.00167 0.0
C1236 C 0.5127 0.12571 0.97601 0.0
C1237 C 0.53084 0.14863 0.97117 0.0
C1238 C 0.49006 0.11609 0.96591 0.0
C1239 C 0.47034 0.09186 0.97027 0.0
C1240 C 0.47322 0.07298 0.96727 0.0
C1241 C 0.45456 0.05019 0.97151 0.0
C1242 C 0.43287 0.04604 0.9786 0.0
C1243 C 0.42977 0.06468 0.9814 0.0
C1244 C 0.44839 0.08751 0.9772 0.0
C1245 C 0.51343 0.18376 0.89314 0.0
C1246 C 0.49374 0.1865 0.8919 0.0
C1247 C 0.51691 0.17262 0.91044 0.0
C1248 C 0.50097 0.16422 0.92706 0.0
C1249 C 0.48118 0.1668 0.92586 0.0
C1250 C 0.47758 0.17783 0.90841 0.0
C1251 C 0.50475 0.15214 0.94529 0.0
C1252 C 0.48633 0.12946 0.95071 0.0
C1253 C 0.52707 0.16212 0.95616 0.0
C1254 C 0.54653 0.1867 0.9525 0.0
C1255 C 0.54216 0.20486 0.95375 0.0
C1256 C 0.56047 0.22797 0.95013 0.0
C1257 C 0.58327 0.23317 0.94537 0.0
C1258 C 0.58783 0.21527 0.94427 0.0
C1259 C 0.56959 0.19213 0.94785 0.0
H1260 H 0.59742 0.25107 0.94258 0.0
H1261 H 0.41844 0.02838 0.98186 0.0
H1262 H 0.50152 0.53714 0.49207 0.0
H1263 H 0.47553 0.52475 0.46075 0.0
H1264 H 0.44877 0.45275 0.47756 0.0
H1265 H 0.47555 0.46525 0.50854 0.0
H1266 H 0.45527 0.45789 0.43785 0.0
H1267 H 0.4157 0.47918 0.48427 0.0
H1268 H 0.41117 0.50381 0.50885 0.0
H1269 H 0.42962 0.55603 0.46055 0.0
H1270 H 0.43459 0.53185 0.43574 0.0
H1271 H 0.35068 0.41745 0.369 0.0
H1272 H 0.37807 0.42587 0.39908 0.0
H1273 H 0.42102 0.49748 0.3782 0.0
H1274 H 0.3944 0.48909 0.34765 0.0
H1275 H 0.40421 0.49012 0.42062 0.0
H1276 H 0.44351 0.46611 0.37447 0.0
H1277 H 0.44507 0.43874 0.35106 0.0
H1278 H 0.4225 0.38774 0.40099 0.0
H1279 H 0.42048 0.41469 0.42463 0.0
C1280 C 0.48996 0.51868 0.48912 0.0
C1281 C 0.49038 0.50213 0.50275 0.0
C1282 C 0.47506 0.51158 0.47126 0.0
C1283 C 0.45981 0.48777 0.46695 0.0
C1284 C 0.46032 0.47121 0.48053 0.0
C1285 C 0.47556 0.47834 0.49823 0.0
C1286 C 0.4436 0.48025 0.44814 0.0
C1287 C 0.44385 0.4647 0.43428 0.0
C1288 C 0.42873 0.48917 0.44333 0.0
C1289 C 0.42573 0.50378 0.45819 0.0
C1290 C 0.41896 0.49599 0.47893 0.0
C1291 C 0.41629 0.50986 0.4929 0.0
C1292 C 0.42016 0.53149 0.48628 0.0
C1293 C 0.42666 0.53928 0.46566 0.0
C1294 C 0.42938 0.52549 0.45163 0.0
C1295 C 0.36633 0.43483 0.37043 0.0
C1296 C 0.37021 0.45265 0.35596 0.0
C1297 C 0.38186 0.43963 0.38773 0.0
C1298 C 0.40142 0.46232 0.39088 0.0
C1299 C 0.40589 0.47989 0.37608 0.0
C1300 C 0.39058 0.47507 0.35869 0.0
C1301 C 0.41631 0.4682 0.41032 0.0
C1302 C 0.41564 0.48334 0.42431 0.0
C1303 C 0.43032 0.45849 0.41545 0.0
C1304 C 0.43159 0.44232 0.40125 0.0
C1305 C 0.43866 0.44897 0.3804 0.0
C1306 C 0.43968 0.43356 0.3671 0.0
C1307 C 0.43382 0.41149 0.37451 0.0
C1308 C 0.42699 0.40482 0.39526 0.0
C1309 C 0.42593 0.42017 0.40862 0.0
H1310 H 0.43462 0.39958 0.36419 0.0
H1311 H 0.41808 0.54221 0.49712 0.0
H1312 H 0.10569 0.49431 0.91935 0.0
H1313 H 0.08289 0.46354 0.89386 0.0
H1314 H 0.0561 0.41216 0.94403 0.0
H1315 H 0.07979 0.44256 0.96941 0.0
H1316 H 0.06406 0.39489 0.91174 0.0
H1317 H 0.02437 0.43641 0.92298 0.0
H1318 H 0.0212 0.47114 0.92366 0.0
H1319 H 0.03487 0.48279 0.85781 0.0
H1320 H 0.03843 0.44826 0.8568 0.0
H1321 H 0.94522 0.3095 0.88309 0.0
H1322 H 0.98093 0.34349 0.89806 0.0
H1323 H 0.00668 0.36933 0.83591 0.0
H1324 H 0.97101 0.33479 0.8208 0.0
H1325 H 0.00434 0.40172 0.86759 0.0
H1326 H 0.03638 0.35346 0.85745 0.0
H1327 H 0.03576 0.31666 0.85946 0.0
H1328 H 0.03245 0.3157 0.92652 0.0
H1329 H 0.03266 0.35233 0.92489 0.0
C1330 C 0.09539 0.4764 0.92491 0.0
C1331 C 0.09432 0.47094 0.94647 0.0
C1332 C 0.08218 0.45886 0.91033 0.0
C1333 C 0.06743 0.4356 0.91707 0.0
C1334 C 0.06726 0.42999 0.93845 0.0
C1335 C 0.0806 0.44745 0.95299 0.0
C1336 C 0.05098 0.41716 0.90223 0.0
C1337 C 0.05106 0.39644 0.90205 0.0
C1338 C 0.03422 0.41928 0.88931 0.0
C1339 C 0.03197 0.43995 0.88987 0.0
C1340 C 0.02688 0.44649 0.90868 0.0
C1341 C 0.02498 0.46611 0.90912 0.0
C1342 C 0.02791 0.47921 0.89081 0.0
C1343 C 0.03266 0.47266 0.872 0.0
C1344 C 0.03462 0.45306 0.87147 0.0
C1345 C 0.95858 0.32241 0.87266 0.0
C1346 C 0.95552 0.31973 0.85087 0.0
C1347 C 0.97891 0.3417 0.88119 0.0
C1348 C 0.99635 0.35877 0.86805 0.0
C1349 C 0.99336 0.35623 0.84623 0.0
C1350 C 0.97314 0.33659 0.83766 0.0
C1351 C 0.01724 0.37948 0.8775 0.0
C1352 C 0.01786 0.40053 0.87679 0.0
C1353 C 0.03428 0.3775 0.88995 0.0
C1354 C 0.03439 0.35558 0.89102 0.0
C1355 C 0.03532 0.34532 0.87261 0.0
C1356 C 0.03508 0.3245 0.87368 0.0
C1357 C 0.03403 0.31383 0.8931 0.0
C1358 C 0.03326 0.32399 0.91149 0.0
C1359 C 0.03348 0.3448 0.9105 0.0
H1360 H 0.03383 0.29771 0.8939 0.0
H1361 H 0.02645 0.4944 0.89118 0.0
H1362 H 0.09583 0.60343 0.99844 0.0
H1363 H 0.06653 0.61118 0.98172 0.0
H1364 H 0.06185 0.57178 0.92803 0.0
H1365 H 0.09042 0.56329 0.9452 0.0
H1366 H 0.061 0.63069 0.9471 0.0
H1367 H 0.00458 0.53906 0.91147 0.0
H1368 H 0.9983 0.49991 0.91726 0.0
H1369 H 0.017 0.51437 0.98251 0.0
H1370 H 0.02299 0.55341 0.97717 0.0
H1371 H 0.96988 0.624 0.87901 0.0
H1372 H 0.00342 0.62282 0.8951 0.0
H1373 H 0.95706 0.57452 0.94242 0.0
H1374 H 0.92326 0.57534 0.92605 0.0
H1375 H 0.98332 0.55994 0.92799 0.0
H1376 H 0.99891 0.63258 0.95333 0.0
H1377 H 0.005 0.67184 0.95072 0.0
H1378 H 0.0658 0.69514 0.91232 0.0
H1379 H 0.05988 0.65591 0.91447 0.0
C1380 C 0.08877 0.59682 0.98292 0.0
C1381 C 0.09501 0.58261 0.9731 0.0
C1382 C 0.07214 0.60127 0.97336 0.0
C1383 C 0.06165 0.59167 0.95382 0.0
C1384 C 0.06935 0.57897 0.94331 0.0
C1385 C 0.08574 0.57425 0.953 0.0
C1386 C 0.04127 0.59325 0.94534 0.0
C1387 C 0.04404 0.61525 0.94283 0.0
C1388 C 0.01894 0.57304 0.94029 0.0
C1389 C 0.01442 0.54923 0.94386 0.0
C1390 C 0.00717 0.53381 0.92707 0.0
C1391 C 0.0037 0.51165 0.93027 0.0
C1392 C 0.00731 0.50469 0.95022 0.0
C1393 C 0.01425 0.5198 0.96705 0.0
C1394 C 0.01767 0.54193 0.96395 0.0
C1395 C 0.96695 0.6135 0.8931 0.0
C1396 C 0.94404 0.59999 0.90147 0.0
C1397 C 0.98613 0.61279 0.90225 0.0
C1398 C 0.98286 0.5988 0.92014 0.0
C1399 C 0.96001 0.58545 0.92864 0.0
C1400 C 0.94075 0.58598 0.91935 0.0
C1401 C 0.00307 0.59744 0.92949 0.0
C1402 C 0.00027 0.57543 0.93218 0.0
C1403 C 0.02516 0.61761 0.93517 0.0
C1404 C 0.02882 0.64124 0.93391 0.0
C1405 C 0.01348 0.64603 0.9442 0.0
C1406 C 0.01691 0.66829 0.94283 0.0
C1407 C 0.03574 0.68596 0.93132 0.0
C1408 C 0.05121 0.68142 0.92121 0.0
C1409 C 0.04784 0.65919 0.92252 0.0
H1410 H 0.03837 0.70318 0.93028 0.0
H1411 H 0.00469 0.48756 0.95265 0.0
H1412 H 0.49745 0.00022 0.50302 0.0
H1413 H 0.46578 0.98071 0.47612 0.0
H1414 H 0.48496 0.9293 0.46958 0.0
H1415 H 0.5173 0.94951 0.49578 0.0
H1416 H 0.47881 0.94288 0.43274 0.0
H1417 H 0.43406 0.91801 0.49581 0.0
H1418 H 0.42057 0.92297 0.52958 0.0
H1419 H 0.39315 0.96182 0.49865 0.0
H1420 H 0.40678 0.95737 0.46471 0.0
H1421 H 0.37374 0.85283 0.38354 0.0
H1422 H 0.40547 0.87661 0.40879 0.0
H1423 H 0.3908 0.93143 0.40013 0.0
H1424 H 0.35946 0.90808 0.37401 0.0
H1425 H 0.39463 0.91869 0.44329 0.0
H1426 H 0.43804 0.94052 0.37943 0.0
H1427 H 0.45063 0.93324 0.34623 0.0
H1428 H 0.47959 0.89713 0.3798 0.0
H1429 H 0.46684 0.90388 0.41319 0.0
C1430 C 0.49472 0.98469 0.49581 0.0
C1431 C 0.50963 0.97626 0.50129 0.0
C1432 C 0.47661 0.9735 0.48058 0.0
C1433 C 0.47282 0.95339 0.47096 0.0
C1434 C 0.48757 0.9448 0.47674 0.0
C1435 C 0.50588 0.95619 0.49175 0.0
C1436 C 0.45395 0.94162 0.45444 0.0
C1437 C 0.46037 0.93737 0.43518 0.0
C1438 C 0.42997 0.93494 0.45738 0.0
C1439 C 0.42167 0.93757 0.47776 0.0
C1440 C 0.42532 0.92777 0.49623 0.0
C1441 C 0.41762 0.93046 0.5154 0.0
C1442 C 0.40607 0.94276 0.51627 0.0
C1443 C 0.40213 0.95233 0.49796 0.0
C1444 C 0.40983 0.94971 0.47875 0.0
C1445 C 0.37752 0.87013 0.38657 0.0
C1446 C 0.36417 0.87862 0.37649 0.0
C1447 C 0.39555 0.88361 0.40118 0.0
C1448 C 0.40051 0.90578 0.40618 0.0
C1449 C 0.38716 0.91432 0.39643 0.0
C1450 C 0.36923 0.90092 0.38158 0.0
C1451 C 0.41954 0.91975 0.42186 0.0
C1452 C 0.41314 0.9244 0.44091 0.0
C1453 C 0.44347 0.92651 0.41886 0.0
C1454 C 0.4513 0.92254 0.3988 0.0
C1455 C 0.44692 0.93086 0.37972 0.0
C1456 C 0.45411 0.92686 0.36087 0.0
C1457 C 0.46586 0.91469 0.3609 0.0
C1458 C 0.47048 0.90654 0.37979 0.0
C1459 C 0.46329 0.91047 0.39869 0.0
H1460 H 0.47142 0.91161 0.34629 0.0
H1461 H 0.40012 0.94482 0.53113 0.0
H1462 H 0.52944 0.40113 0.02913 0.0
H1463 H 0.5159 0.3724 0.0014 0.0
H1464 H 0.55727 0.42747 0.95662 0.0
H1465 H 0.57086 0.45625 0.98422 0.0
H1466 H 0.51351 0.39746 0.94103 0.0
H1467 H 0.57628 0.39217 0.97677 0.0
H1468 H 0.59684 0.38649 0.00733 0.0
H1469 H 0.5358 0.31779 0.01759 0.0
H1470 H 0.51474 0.3232 0.98724 0.0
H1471 H 0.52048 0.33575 0.85769 0.0
H1472 H 0.5288 0.36123 0.88717 0.0
H1473 H 0.48469 0.30127 0.92655 0.0
H1474 H 0.47682 0.27556 0.8972 0.0
H1475 H 0.52654 0.33156 0.94606 0.0
H1476 H 0.46472 0.3359 0.9089 0.0
H1477 H 0.44438 0.34148 0.87812 0.0
H1478 H 0.5035 0.41179 0.87041 0.0
H1479 H 0.52436 0.40653 0.90099 0.0
C1480 C 0.5358 0.40709 0.01341 0.0
C1481 C 0.55122 0.43096 0.00887 0.0
C1482 C 0.52802 0.39066 0.99758 0.0
C1483 C 0.53572 0.39778 0.97697 0.0
C1484 C 0.55103 0.4216 0.9724 0.0
C1485 C 0.55873 0.43802 0.98818 0.0
C1486 C 0.52782 0.3805 0.96007 0.0
C1487 C 0.51657 0.38319 0.94204 0.0
C1488 C 0.53118 0.36147 0.96166 0.0
C1489 C 0.54384 0.35819 0.97988 0.0
C1490 C 0.56717 0.37593 0.98565 0.0
C1491 C 0.57893 0.37275 0.00291 0.0
C1492 C 0.56761 0.35182 0.01443 0.0
C1493 C 0.54453 0.33401 0.00867 0.0
C1494 C 0.53268 0.33712 0.99144 0.0
C1495 C 0.51261 0.32797 0.87264 0.0
C1496 C 0.49801 0.30363 0.87512 0.0
C1497 C 0.5172 0.34256 0.88942 0.0
C1498 C 0.50716 0.33316 0.90899 0.0
C1499 C 0.49253 0.30888 0.91154 0.0
C1500 C 0.4879 0.29424 0.89473 0.0
C1501 C 0.51255 0.34874 0.92689 0.0
C1502 C 0.5233 0.34573 0.94512 0.0
C1503 C 0.50873 0.36748 0.92549 0.0
C1504 C 0.49619 0.37075 0.90715 0.0
C1505 C 0.47346 0.3525 0.90055 0.0
C1506 C 0.46183 0.35561 0.88315 0.0
C1507 C 0.47266 0.37696 0.87229 0.0
C1508 C 0.49514 0.39526 0.87883 0.0
C1509 C 0.50686 0.39223 0.89621 0.0
H1510 H 0.46362 0.37933 0.85882 0.0
H1511 H 0.57674 0.34939 0.02779 0.0
H1512 H 0.10767 0.47968 0.48168 0.0
H1513 H 0.12777 0.47275 0.45434 0.0
H1514 H 0.06383 0.40612 0.44199 0.0
H1515 H 0.04373 0.41256 0.47002 0.0
H1516 H 0.10354 0.40342 0.44231 0.0
H1517 H 0.07852 0.4519 0.40936 0.0
H1518 H 0.07398 0.48582 0.40605 0.0
H1519 H 0.15016 0.53193 0.40589 0.0
H1520 H 0.15519 0.4983 0.40951 0.0
H1521 H 0.15253 0.39326 0.34795 0.0
H1522 H 0.12612 0.39491 0.3728 0.0
H1523 H 0.18295 0.46365 0.39102 0.0
H1524 H 0.20925 0.46215 0.36622 0.0
H1525 H 0.14229 0.46244 0.38533 0.0
H1526 H 0.16736 0.41455 0.42151 0.0
H1527 H 0.17233 0.38093 0.42569 0.0
H1528 H 0.09639 0.334 0.42011 0.0
H1529 H 0.091 0.36737 0.41562 0.0
C1530 C 0.09793 0.46338 0.4734 0.0
C1531 C 0.07408 0.44665 0.47808 0.0
C1532 C 0.10938 0.45957 0.45758 0.0
C1533 C 0.09718 0.43908 0.44591 0.0
C1534 C 0.07351 0.42212 0.45074 0.0
C1535 C 0.06201 0.42591 0.46664 0.0
C1536 C 0.10932 0.43557 0.42869 0.0
C1537 C 0.11165 0.41609 0.42962 0.0
C1538 C 0.12018 0.45229 0.41232 0.0
C1539 C 0.11722 0.47256 0.40985 0.0
C1540 C 0.09431 0.46928 0.40874 0.0
C1541 C 0.09165 0.48845 0.4068 0.0
C1542 C 0.11177 0.51102 0.4058 0.0
C1543 C 0.1346 0.51444 0.40667 0.0
C1544 C 0.13736 0.49533 0.40864 0.0
C1545 C 0.15938 0.40865 0.35735 0.0
C1546 C 0.18292 0.42761 0.35509 0.0
C1547 C 0.14429 0.40958 0.37152 0.0
C1548 C 0.15261 0.42936 0.38387 0.0
C1549 C 0.1761 0.44828 0.38158 0.0
C1550 C 0.19109 0.44742 0.36736 0.0
C1551 C 0.13703 0.43058 0.39921 0.0
C1552 C 0.13398 0.44963 0.39789 0.0
C1553 C 0.12557 0.41349 0.41521 0.0
C1554 C 0.1288 0.39344 0.41799 0.0
C1555 C 0.15174 0.39706 0.42101 0.0
C1556 C 0.15463 0.37805 0.42346 0.0
C1557 C 0.1347 0.35534 0.4231 0.0
C1558 C 0.11182 0.3516 0.42034 0.0
C1559 C 0.10883 0.37055 0.41786 0.0
H1560 H 0.13697 0.34065 0.425 0.0
H1561 H 0.10967 0.52584 0.40431 0.0
H1562 H 0.61322 0.07461 0.0126 0.0
H1563 H 0.64541 0.09089 0.98728 0.0
H1564 H 0.69448 0.09462 0.03603 0.0
H1565 H 0.66206 0.07798 0.06136 0.0
H1566 H 0.71293 0.13526 0.0086 0.0
H1567 H 0.67416 0.05213 0.00535 0.0
H1568 H 0.6392 0.01211 0.0026 0.0
H1569 H 0.62146 0.0286 0.94171 0.0
H1570 H 0.65608 0.06889 0.94427 0.0
H1571 H 0.80042 0.15958 0.93362 0.0
H1572 H 0.77342 0.14105 0.96294 0.0
H1573 H 0.71297 0.12071 0.92089 0.0
H1574 H 0.73967 0.13812 0.89147 0.0
H1575 H 0.70286 0.0868 0.94783 0.0
H1576 H 0.73734 0.16979 0.95193 0.0
H1577 H 0.77025 0.21088 0.95435 0.0
H1578 H 0.79436 0.19572 0.0127 0.0
H1579 H 0.76175 0.15443 0.01047 0.0
C1580 C 0.63095 0.07908 0.01785 0.0
C1581 C 0.63534 0.07506 0.03875 0.0
C1582 C 0.64924 0.08831 0.00346 0.0
C1583 C 0.67221 0.09372 0.00981 0.0
C1584 C 0.67684 0.09052 0.03089 0.0
C1585 C 0.65843 0.08105 0.04527 0.0
C1586 C 0.69099 0.10189 0.99411 0.0
C1587 C 0.71103 0.12457 0.9955 0.0
C1588 C 0.68815 0.08799 0.97688 0.0
C1589 C 0.66764 0.0636 0.97507 0.0
C1590 C 0.66273 0.04728 0.99143 0.0
C1591 C 0.64297 0.02454 0.9899 0.0
C1592 C 0.6281 0.01783 0.972 0.0
C1593 C 0.633 0.03383 0.95557 0.0
C1594 C 0.6527 0.05662 0.95704 0.0
C1595 C 0.78135 0.15079 0.93057 0.0
C1596 C 0.7722 0.15055 0.91024 0.0
C1597 C 0.76596 0.14042 0.94738 0.0
C1598 C 0.74119 0.12985 0.94417 0.0
C1599 C 0.73201 0.12886 0.92378 0.0
C1600 C 0.74733 0.13905 0.90699 0.0
C1601 C 0.72471 0.12044 0.96201 0.0
C1602 C 0.70504 0.09745 0.96105 0.0
C1603 C 0.72776 0.13417 0.97951 0.0
C1604 C 0.7473 0.15898 0.98091 0.0
C1605 C 0.74977 0.17519 0.9652 0.0
C1606 C 0.76835 0.19851 0.96654 0.0
C1607 C 0.78443 0.20589 0.98363 0.0
C1608 C 0.78192 0.18997 0.99945 0.0
C1609 C 0.76339 0.1666 0.99816 0.0
H1610 H 0.7988 0.22396 0.98465 0.0
H1611 H 0.6128 0.00022 0.97086 0.0
H1612 H 0.63469 0.63145 0.54752 0.0
H1613 H 0.64982 0.66064 0.51886 0.0
H1614 H 0.59497 0.61022 0.47716 0.0
H1615 H 0.58012 0.58106 0.50579 0.0
H1616 H 0.63721 0.63421 0.4582 0.0
H1617 H 0.58962 0.65211 0.49886 0.0
H1618 H 0.57705 0.66125 0.53109 0.0
H1619 H 0.64613 0.72376 0.53798 0.0
H1620 H 0.65926 0.71477 0.50597 0.0
H1621 H 0.63627 0.70881 0.37779 0.0
H1622 H 0.62593 0.68098 0.407 0.0
H1623 H 0.68465 0.73393 0.44397 0.0
H1624 H 0.69491 0.76202 0.41483 0.0
H1625 H 0.64273 0.70973 0.46589 0.0
H1626 H 0.68947 0.69198 0.4239 0.0
H1627 H 0.70113 0.68234 0.3914 0.0
H1628 H 0.63233 0.61914 0.38658 0.0
H1629 H 0.62013 0.62857 0.4189 0.0
C1630 C 0.62601 0.62675 0.53218 0.0
C1631 C 0.60625 0.60426 0.5287 0.0
C1632 C 0.63456 0.64335 0.51588 0.0
C1633 C 0.62336 0.63768 0.49592 0.0
C1634 C 0.60387 0.61498 0.49242 0.0
C1635 C 0.59536 0.5984 0.50871 0.0
C1636 C 0.63169 0.65544 0.47874 0.0
C1637 C 0.63819 0.65063 0.45981 0.0
C1638 C 0.63344 0.67707 0.481 0.0
C1639 C 0.62551 0.68263 0.50014 0.0
C1640 C 0.6022 0.66771 0.50734 0.0
C1641 C 0.59496 0.67287 0.52556 0.0
C1642 C 0.6108 0.69304 0.53661 0.0
C1643 C 0.63389 0.70812 0.52942 0.0
C1644 C 0.64124 0.703 0.51124 0.0
C1645 C 0.64696 0.71454 0.39216 0.0
C1646 C 0.6664 0.7376 0.39403 0.0
C1647 C 0.64113 0.69858 0.40878 0.0
C1648 C 0.65463 0.70534 0.4276 0.0
C1649 C 0.67405 0.72835 0.42955 0.0
C1650 C 0.67999 0.74431 0.41286 0.0
C1651 C 0.64812 0.68842 0.44533 0.0
C1652 C 0.64192 0.69339 0.46435 0.0
C1653 C 0.64649 0.66687 0.44311 0.0
C1654 C 0.65382 0.66109 0.42373 0.0
C1655 C 0.67676 0.67611 0.41582 0.0
C1656 C 0.68348 0.67067 0.39745 0.0
C1657 C 0.66746 0.65017 0.38691 0.0
C1658 C 0.64471 0.63503 0.39475 0.0
C1659 C 0.63789 0.6404 0.41311 0.0
H1660 H 0.6727 0.64599 0.37268 0.0
H1661 H 0.60516 0.69702 0.5507 0.0
H1662 H 0.5704 0.10196 0.59246 0.0
H1663 H 0.55731 0.12208 0.61386 0.0
H1664 H 0.49461 0.05629 0.63064 0.0
H1665 H 0.50685 0.03609 0.60825 0.0
H1666 H 0.48343 0.08832 0.6248 0.0
H1667 H 0.54408 0.08326 0.66368 0.0
H1668 H 0.58347 0.08788 0.66983 0.0
H1669 H 0.6177 0.16202 0.66146 0.0
H1670 H 0.57851 0.1578 0.65495 0.0
H1671 H 0.46069 0.12971 0.71785 0.0
H1672 H 0.46852 0.10862 0.69218 0.0
H1673 H 0.52936 0.17344 0.67075 0.0
H1674 H 0.52159 0.19459 0.69623 0.0
H1675 H 0.54048 0.14085 0.67935 0.0
H1676 H 0.47816 0.14479 0.64102 0.0
H1677 H 0.43807 0.13884 0.63599 0.0
H1678 H 0.40613 0.06505 0.64521 0.0
H1679 H 0.44604 0.07061 0.65058 0.0
C1680 C 0.55357 0.09175 0.60032 0.0
C1681 C 0.5398 0.06734 0.59873 0.0
C1682 C 0.54625 0.10329 0.61278 0.0
C1683 C 0.52523 0.09065 0.62421 0.0
C1684 C 0.51099 0.06639 0.62209 0.0
C1685 C 0.51817 0.05484 0.60945 0.0
C1686 C 0.51856 0.10268 0.6389 0.0
C1687 C 0.4958 0.0996 0.63689 0.0
C1688 C 0.53477 0.11757 0.65456 0.0
C1689 C 0.55837 0.12018 0.65863 0.0
C1690 C 0.56001 0.10053 0.663 0.0
C1691 C 0.58231 0.10308 0.66658 0.0
C1692 C 0.60308 0.12523 0.66598 0.0
C1693 C 0.6016 0.14487 0.66188 0.0
C1694 C 0.57935 0.14242 0.65827 0.0
C1695 C 0.47547 0.13948 0.70741 0.0
C1696 C 0.49062 0.16378 0.70914 0.0
C1697 C 0.47994 0.12742 0.69277 0.0
C1698 C 0.49951 0.13948 0.67954 0.0
C1699 C 0.51425 0.16379 0.68089 0.0
C1700 C 0.50982 0.17583 0.69549 0.0
C1701 C 0.50551 0.12678 0.66505 0.0
C1702 C 0.52813 0.12963 0.66721 0.0
C1703 C 0.48907 0.1115 0.64974 0.0
C1704 C 0.46508 0.10815 0.6464 0.0
C1705 C 0.46258 0.12732 0.64214 0.0
C1706 C 0.43989 0.12401 0.6392 0.0
C1707 C 0.41957 0.10159 0.64033 0.0
C1708 C 0.42189 0.08242 0.64436 0.0
C1709 C 0.44454 0.08563 0.64733 0.0
H1710 H 0.40202 0.09906 0.63805 0.0
H1711 H 0.62032 0.12716 0.66875 0.0
H1712 H 0.52548 0.51169 0.122 0.0
H1713 H 0.49231 0.5035 0.14372 0.0
H1714 H 0.46477 0.42975 0.14077 0.0
H1715 H 0.49642 0.43795 0.11664 0.0
H1716 H 0.42943 0.4345 0.1407 0.0
H1717 H 0.49953 0.46666 0.18699 0.0
H1718 H 0.54161 0.49634 0.19552 0.0
H1719 H 0.52476 0.54969 0.19238 0.0
H1720 H 0.48269 0.52035 0.18438 0.0
H1721 H 0.35791 0.40956 0.2311 0.0
H1722 H 0.38886 0.41447 0.20785 0.0
H1723 H 0.41073 0.48626 0.19647 0.0
H1724 H 0.37946 0.4814 0.21917 0.0
H1725 H 0.44884 0.48039 0.20541 0.0
H1726 H 0.37817 0.44708 0.16034 0.0
H1727 H 0.33664 0.41746 0.15031 0.0
H1728 H 0.35471 0.36505 0.1505 0.0
H1729 H 0.39629 0.39431 0.16084 0.0
C1730 C 0.51222 0.49373 0.12588 0.0
C1731 C 0.51379 0.47546 0.11809 0.0
C1732 C 0.49343 0.48904 0.13857 0.0
C1733 C 0.47652 0.46603 0.14478 0.0
C1734 C 0.47775 0.44768 0.13655 0.0
C1735 C 0.496 0.45236 0.12302 0.0
C1736 C 0.4577 0.46126 0.15984 0.0
C1737 C 0.43378 0.44425 0.15503 0.0
C1738 C 0.46313 0.47408 0.1785 0.0
C1739 C 0.48802 0.49135 0.18512 0.0
C1740 C 0.50483 0.48471 0.1884 0.0
C1741 C 0.52868 0.50148 0.19317 0.0
C1742 C 0.5359 0.52491 0.19464 0.0
C1743 C 0.51921 0.53156 0.19156 0.0
C1744 C 0.49532 0.51485 0.18706 0.0
C1745 C 0.36912 0.42634 0.22349 0.0
C1746 C 0.36612 0.44508 0.22702 0.0
C1747 C 0.38686 0.42912 0.21027 0.0
C1748 C 0.40199 0.45069 0.20036 0.0
C1749 C 0.39929 0.46949 0.20404 0.0
C1750 C 0.38147 0.4667 0.21712 0.0
C1751 C 0.42072 0.45378 0.18617 0.0
C1752 C 0.44459 0.47044 0.19121 0.0
C1753 C 0.41523 0.44038 0.16793 0.0
C1754 C 0.39027 0.42283 0.16158 0.0
C1755 C 0.37324 0.4292 0.15842 0.0
C1756 C 0.3497 0.41249 0.15264 0.0
C1757 C 0.34302 0.38938 0.14983 0.0
C1758 C 0.35989 0.38295 0.15272 0.0
C1759 C 0.38345 0.39959 0.15852 0.0
H1760 H 0.32479 0.37646 0.14536 0.0
H1761 H 0.55443 0.5379 0.19807 0.0
H1762 H 0.00735 0.39177 0.58854 0.0
H1763 H 0.98794 0.36369 0.61741 0.0
H1764 H 0.94532 0.39331 0.62858 0.0
H1765 H 0.96565 0.42208 0.60037 0.0
H1766 H 0.96181 0.38765 0.66388 0.0
H1767 H 0.92224 0.33878 0.6051 0.0
H1768 H 0.91897 0.32062 0.57132 0.0
H1769 H 0.95565 0.28863 0.59831 0.0
H1770 H 0.95945 0.30688 0.63219 0.0
H1771 H 0.87819 0.2964 0.73022 0.0
H1772 H 0.89572 0.32158 0.69946 0.0
H1773 H 0.94923 0.30346 0.69866 0.0
H1774 H 0.93245 0.2789 0.73001 0.0
H1775 H 0.92676 0.30249 0.65824 0.0
H1776 H 0.96587 0.35275 0.71737 0.0
H1777 H 0.96695 0.37037 0.75086 0.0
H1778 H 0.92785 0.39905 0.72216 0.0
H1779 H 0.9262 0.38128 0.68855 0.0
C1780 C 0.99378 0.39213 0.59721 0.0
C1781 C 0.98804 0.40906 0.59252 0.0
C1782 C 0.98256 0.37602 0.61355 0.0
C1783 C 0.96496 0.37621 0.62509 0.0
C1784 C 0.95886 0.39284 0.61997 0.0
C1785 C 0.97034 0.40916 0.60385 0.0
C1786 C 0.95368 0.35979 0.64307 0.0
C1787 C 0.95383 0.369 0.66249 0.0
C1788 C 0.94366 0.33546 0.64147 0.0
C1789 C 0.94133 0.32439 0.62113 0.0
C1790 C 0.92977 0.32802 0.60379 0.0
C1791 C 0.9278 0.31768 0.58463 0.0
C1792 C 0.93715 0.30352 0.58266 0.0
C1793 C 0.94844 0.29963 0.59986 0.0
C1794 C 0.95049 0.30994 0.61905 0.0
C1795 C 0.89387 0.29794 0.72372 0.0
C1796 C 0.90404 0.28576 0.7328 0.0
C1797 C 0.90372 0.31219 0.70602 0.0
C1798 C 0.9238 0.31442 0.6969 0.0
C1799 C 0.93366 0.30186 0.70548 0.0
C1800 C 0.92398 0.28778 0.72335 0.0
C1801 C 0.93489 0.33044 0.67878 0.0
C1802 C 0.93472 0.32116 0.65945 0.0
C1803 C 0.94458 0.35465 0.68035 0.0
C1804 C 0.9457 0.36548 0.70051 0.0
C1805 C 0.95732 0.36264 0.71824 0.0
C1806 C 0.95807 0.37269 0.73724 0.0
C1807 C 0.94742 0.38577 0.73865 0.0
C1808 C 0.93606 0.38889 0.72105 0.0
C1809 C 0.93522 0.37884 0.70202 0.0
H1810 H 0.94803 0.39354 0.75337 0.0
H1811 H 0.93559 0.29554 0.56781 0.0
H1812 H 0.64697 0.02221 0.13583 0.0
H1813 H 0.66553 0.00437 0.15661 0.0
H1814 H 0.5958 0.94682 0.17315 0.0
H1815 H 0.57718 0.96445 0.15231 0.0
H1816 H 0.62984 0.96539 0.20743 0.0
H1817 H 0.6223 0.93895 0.13625 0.0
H1818 H 0.62899 0.94478 0.09823 0.0
H1819 H 0.70482 0.98321 0.1098 0.0
H1820 H 0.69856 0.97789 0.14794 0.0
H1821 H 0.64169 0.87283 0.24092 0.0
H1822 H 0.63141 0.89821 0.22171 0.0
H1823 H 0.70486 0.94359 0.20435 0.0
H1824 H 0.71522 0.91764 0.22308 0.0
H1825 H 0.67453 0.93666 0.17159 0.0
H1826 H 0.68286 0.95931 0.24231 0.0
H1827 H 0.67702 0.95402 0.28045 0.0
H1828 H 0.60178 0.92479 0.27057 0.0
H1829 H 0.60707 0.92947 0.23233 0.0
C1830 C 0.63565 0.00586 0.14407 0.0
C1831 C 0.61066 0.99463 0.14244 0.0
C1832 C 0.64625 0.99568 0.15583 0.0
C1833 C 0.63199 0.97427 0.16631 0.0
C1834 C 0.60707 0.96336 0.16517 0.0
C1835 C 0.59647 0.97335 0.15318 0.0
C1836 C 0.6429 0.96274 0.17799 0.0
C1837 C 0.6395 0.95897 0.19963 0.0
C1838 C 0.6562 0.95515 0.16784 0.0
C1839 C 0.65996 0.95828 0.14494 0.0
C1840 C 0.6404 0.94884 0.13069 0.0
C1841 C 0.64411 0.95201 0.10912 0.0
C1842 C 0.66731 0.96443 0.1016 0.0
C1843 C 0.68686 0.97364 0.11565 0.0
C1844 C 0.68324 0.97055 0.13724 0.0
C1845 C 0.65564 0.88798 0.23274 0.0
C1846 C 0.67927 0.89313 0.23342 0.0
C1847 C 0.64978 0.90265 0.22199 0.0
C1848 C 0.66744 0.92299 0.21189 0.0
C1849 C 0.69099 0.92805 0.21217 0.0
C1850 C 0.6969 0.91329 0.22294 0.0
C1851 C 0.66097 0.93873 0.20103 0.0
C1852 C 0.66521 0.94335 0.17953 0.0
C1853 C 0.64864 0.94732 0.21137 0.0
C1854 C 0.64535 0.94461 0.2344 0.0
C1855 C 0.66503 0.95159 0.24824 0.0
C1856 C 0.66183 0.94871 0.26989 0.0
C1857 C 0.63904 0.93906 0.27792 0.0
C1858 C 0.61942 0.93227 0.26432 0.0
C1859 C 0.62251 0.93504 0.24265 0.0
H1860 H 0.63659 0.93689 0.29468 0.0
H1861 H 0.67015 0.96685 0.0849 0.0
H1862 H 0.628 0.53186 0.65785 0.0
H1863 H 0.65177 0.53791 0.68999 0.0
H1864 H 0.66146 0.60576 0.69628 0.0
H1865 H 0.63802 0.59999 0.66378 0.0
H1866 H 0.70307 0.60708 0.70231 0.0
H1867 H 0.62392 0.56128 0.72717 0.0
H1868 H 0.58221 0.52823 0.72785 0.0
H1869 H 0.60615 0.48089 0.74026 0.0
H1870 H 0.64804 0.51356 0.73903 0.0
H1871 H 0.76228 0.62054 0.80053 0.0
H1872 H 0.73065 0.61644 0.77621 0.0
H1873 H 0.71455 0.54822 0.75959 0.0
H1874 H 0.74619 0.55227 0.78349 0.0
H1875 H 0.67393 0.54999 0.76163 0.0
H1876 H 0.7522 0.59464 0.73137 0.0
H1877 H 0.79414 0.62726 0.73035 0.0
H1878 H 0.77146 0.67627 0.72783 0.0
H1879 H 0.72936 0.64394 0.72938 0.0
C1880 C 0.63533 0.54814 0.666 0.0
C1881 C 0.63126 0.56551 0.65825 0.0
C1882 C 0.64868 0.55147 0.68448 0.0
C1883 C 0.65815 0.57218 0.69565 0.0
C1884 C 0.6542 0.58961 0.68794 0.0
C1885 C 0.64073 0.58624 0.66946 0.0
C1886 C 0.67287 0.57584 0.71497 0.0
C1887 C 0.69653 0.59486 0.71547 0.0
C1888 C 0.66443 0.55966 0.73198 0.0
C1889 C 0.63919 0.53991 0.73283 0.0
C1890 C 0.62033 0.54381 0.72983 0.0
C1891 C 0.59663 0.52512 0.73031 0.0
C1892 C 0.59153 0.50247 0.73404 0.0
C1893 C 0.61013 0.49846 0.73736 0.0
C1894 C 0.63386 0.51705 0.73673 0.0
C1895 C 0.75177 0.60454 0.7919 0.0
C1896 C 0.75684 0.58678 0.79389 0.0
C1897 C 0.73368 0.6022 0.77808 0.0
C1898 C 0.72047 0.58213 0.76594 0.0
C1899 C 0.72448 0.56381 0.76887 0.0
C1900 C 0.74254 0.56613 0.78264 0.0
C1901 C 0.70413 0.58097 0.74875 0.0
C1902 C 0.68025 0.5624 0.74861 0.0
C1903 C 0.71235 0.59748 0.732 0.0
C1904 C 0.73765 0.61689 0.73076 0.0
C1905 C 0.75616 0.61238 0.73077 0.0
C1906 C 0.77996 0.6308 0.73008 0.0
C1907 C 0.78546 0.65381 0.72904 0.0
C1908 C 0.76717 0.65844 0.72867 0.0
C1909 C 0.74334 0.64007 0.72949 0.0
H1910 H 0.8039 0.66805 0.72848 0.0
H1911 H 0.57318 0.48802 0.7344 0.0
H1912 H 0.22063 0.64333 0.07172 0.0
H1913 H 0.23748 0.67413 0.09774 0.0
H1914 H 0.16759 0.66258 0.10681 0.0
H1915 H 0.15067 0.63205 0.08047 0.0
H1916 H 0.20308 0.70962 0.10577 0.0
H1917 H 0.18827 0.63877 0.14033 0.0
H1918 H 0.19139 0.60412 0.14522 0.0
H1919 H 0.26767 0.64801 0.15135 0.0
H1920 H 0.26503 0.68295 0.14618 0.0
H1921 H 0.2158 0.75338 0.20833 0.0
H1922 H 0.20491 0.7323 0.17544 0.0
H1923 H 0.27524 0.74281 0.17355 0.0
H1924 H 0.28616 0.76381 0.20656 0.0
H1925 H 0.24204 0.69836 0.16921 0.0
H1926 H 0.25663 0.76966 0.13766 0.0
H1927 H 0.25328 0.80419 0.13295 0.0
H1928 H 0.17776 0.76 0.12135 0.0
H1929 H 0.18059 0.72517 0.12629 0.0
C1930 C 0.20891 0.64759 0.07902 0.0
C1931 C 0.1843 0.63518 0.07416 0.0
C1932 C 0.21854 0.66509 0.09395 0.0
C1933 C 0.20373 0.67046 0.10431 0.0
C1934 C 0.1793 0.65866 0.099 0.0
C1935 C 0.16963 0.64109 0.08411 0.0
C1936 C 0.21348 0.6875 0.12146 0.0
C1937 C 0.21145 0.70714 0.11973 0.0
C1938 C 0.22485 0.68443 0.13942 0.0
C1939 C 0.22647 0.66346 0.14263 0.0
C1940 C 0.20573 0.64103 0.14255 0.0
C1941 C 0.2074 0.62134 0.1454 0.0
C1942 C 0.22972 0.62386 0.14853 0.0
C1943 C 0.2504 0.64609 0.14888 0.0
C1944 C 0.24882 0.66584 0.146 0.0
C1945 C 0.22914 0.75175 0.2006 0.0
C1946 C 0.2518 0.76016 0.21002 0.0
C1947 C 0.2229 0.73968 0.18181 0.0
C1948 C 0.23929 0.73604 0.17199 0.0
C1949 C 0.26229 0.74536 0.18089 0.0
C1950 C 0.2685 0.75732 0.19974 0.0
C1951 C 0.2317 0.72063 0.15362 0.0
C1952 C 0.23399 0.70113 0.15516 0.0
C1953 C 0.22058 0.72388 0.13553 0.0
C1954 C 0.2188 0.74479 0.13252 0.0
C1955 C 0.23927 0.76729 0.13427 0.0
C1956 C 0.23747 0.78692 0.13153 0.0
C1957 C 0.21532 0.78429 0.1269 0.0
C1958 C 0.19491 0.76201 0.12496 0.0
C1959 C 0.19661 0.74232 0.1277 0.0
H1960 H 0.21396 0.79951 0.12478 0.0
H1961 H 0.23098 0.60859 0.15073 0.0
loop_
_geom_bond_atom_site_label_1
_geom_bond_atom_site_label_2
_geom_bond_distance
_geom_bond_site_symmetry_2
_ccdc_geom_bond_type
C0 C1 1.443 . S
C0 N4 1.376 . S
C0 C38 1.389 . S
C1 C0 1.443 . S
C1 C2 1.340 1_556 S
C1 H41 0.951 . S
C2 C1 1.340 1_554 S
C2 C3 1.439 . S
C2 H42 0.950 . S
C3 C2 1.439 . S
C3 N4 1.374 1_554 S
C3 C37 1.395 . S
N4 C0 1.376 . S
N4 C3 1.374 1_556 S
N4 Co5 2.008 1_556 S
Co5 N4 2.008 1_554 S
Co5 N6 1.995 . S
Co5 N11 2.008 . S
Co5 N16 1.995 1_554 S
Co5 N21 2.282 . S
Co5 N27 2.282 1_554 S
N6 Co5 1.995 . S
N6 C7 1.376 . S
N6 C10 1.383 . S
C7 N6 1.376 . S
C7 C8 1.446 . S
C7 C37 1.391 . S
C8 C7 1.446 . S
C8 C9 1.339 . S
C8 H43 0.949 . S
C9 C8 1.339 . S
C9 C10 1.439 . S
C9 H44 0.950 . S
C10 N6 1.383 . S
C10 C9 1.439 . S
C10 C39 1.392 . S
N11 Co5 2.008 . S
N11 C12 1.376 . S
N11 C15 1.374 1_554 S
C12 N11 1.376 . S
C12 C13 1.443 . S
C12 C39 1.389 . S
C13 C12 1.443 . S
C13 C14 1.340 1_554 S
C13 H45 0.951 . S
C14 C13 1.340 1_556 S
C14 C15 1.439 . S
C14 H46 0.950 . S
C15 N11 1.374 1_556 S
C15 C14 1.439 . S
C15 C40 1.395 . S
N16 Co5 1.995 1_556 S
N16 C17 1.376 . S
N16 C20 1.383 . S
C17 N16 1.376 . S
C17 C18 1.446 . S
C17 C40 1.391 . S
C18 C17 1.446 . S
C18 C19 1.339 . S
C18 H47 0.949 . S
C19 C18 1.339 . S
C19 C20 1.439 . S
C19 H48 0.950 . S
C20 N16 1.383 . S
C20 C19 1.439 . S
C20 C38 1.392 . S
N21 Co5 2.282 . S
N21 C24 1.332 . S
N21 C26 1.332 . S
C22 C23 1.386 . S
C22 C25 1.388 . S
C23 C22 1.386 . S
C23 C24 1.382 . S
C23 H49 0.950 . S
C24 N21 1.332 . S
C24 C23 1.382 . S
C24 H35 0.952 . S
C25 C22 1.388 . S
C25 C26 1.382 . S
C25 H50 0.950 . S
C26 N21 1.332 . S
C26 C25 1.382 . S
C26 H36 0.948 . S
N27 Co5 2.282 1_556 S
N27 C31 1.332 . S
N27 C32 1.332 . S
C28 C29 1.388 . S
C28 C32 1.382 . S
C28 H51 0.950 . S
C29 C28 1.388 . S
C29 C30 1.386 . S
C30 C29 1.386 . S
C30 C31 1.382 . S
C30 H52 0.950 . S
C31 N27 1.332 . S
C31 C30 1.382 . S
C31 H33 0.952 . S
C32 N27 1.332 . S
C32 C28 1.382 . S
C32 H34 0.948 . S
H33 C31 0.952 . S
H34 C32 0.948 . S
H35 C24 0.952 . S
H36 C26 0.948 . S
C37 C3 1.395 . S
C37 C7 1.391 . S
C38 C0 1.389 . S
C38 C20 1.392 . S
C39 C10 1.392 . S
C39 C12 1.389 . S
C40 C15 1.395 . S
C40 C17 1.391 . S
H41 C1 0.951 . S
H42 C2 0.950 . S
H43 C8 0.949 . S
H44 C9 0.950 . S
H45 C13 0.951 . S
H46 C14 0.950 . S
H47 C18 0.949 . S
H48 C19 0.950 . S
H49 C23 0.950 . S
H50 C25 0.950 . S
H51 C28 0.950 . S
H52 C30 0.950 . S
C53 C54 1.443 . S
C53 N57 1.376 . S
C53 C91 1.389 . S
C54 C53 1.443 . S
C54 C55 1.340 1_545 S
C54 H94 0.951 . S
C55 C54 1.340 1_565 S
C55 C56 1.439 . S
C55 H95 0.950 . S
C56 C55 1.439 . S
C56 N57 1.374 1_565 S
C56 C90 1.395 . S
N57 C53 1.376 . S
N57 C56 1.374 1_545 S
N57 Co58 2.008 . S
Co58 N57 2.008 . S
Co58 N59 1.995 1_545 S
Co58 N64 2.008 . S
Co58 N69 1.995 . S
Co58 N74 2.282 1_545 S
Co58 N80 2.282 . S
N59 Co58 1.995 1_565 S
N59 C60 1.376 . S
N59 C63 1.383 . S
C60 N59 1.376 . S
C60 C61 1.446 . S
C60 C90 1.391 . S
C61 C60 1.446 . S
C61 C62 1.339 . S
C61 H96 0.949 . S
C62 C61 1.339 . S
C62 C63 1.439 . S
C62 H97 0.950 . S
C63 N59 1.383 . S
C63 C62 1.439 . S
C63 C92 1.392 . S
N64 Co58 2.008 . S
N64 C65 1.376 . S
N64 C68 1.374 . S
C65 N64 1.376 . S
C65 C66 1.443 . S
C65 C92 1.389 1_545 S
C66 C65 1.443 . S
C66 C67 1.340 . S
C66 H98 0.951 . S
C67 C66 1.340 . S
C67 C68 1.439 . S
C67 H99 0.950 . S
C68 N64 1.374 . S
C68 C67 1.439 . S
C68 C93 1.395 . S
N69 Co58 1.995 . S
N69 C70 1.376 . S
N69 C73 1.383 . S
C70 N69 1.376 . S
C70 C71 1.446 . S
C70 C93 1.391 . S
C71 C70 1.446 . S
C71 C72 1.339 . S
C71 H100 0.949 . S
C72 C71 1.339 . S
C72 C73 1.439 . S
C72 H101 0.950 . S
C73 N69 1.383 . S
C73 C72 1.439 . S
C73 C91 1.392 . S
N74 Co58 2.282 1_565 S
N74 C77 1.332 1_565 S
N74 C79 1.332 . S
C75 C76 1.386 . S
C75 C78 1.388 . S
C76 C75 1.386 . S
C76 C77 1.382 1_565 S
C76 H102 0.950 1_565 S
C77 N74 1.332 1_545 S
C77 C76 1.382 1_545 S
C77 H88 0.952 . S
C78 C75 1.388 . S
C78 C79 1.382 . S
C78 H103 0.950 . S
C79 N74 1.332 . S
C79 C78 1.382 . S
C79 H89 0.948 . S
N80 Co58 2.282 . S
N80 C84 1.332 . S
N80 C85 1.332 . S
C81 C82 1.388 . S
C81 C85 1.382 . S
C81 H104 0.950 . S
C82 C81 1.388 . S
C82 C83 1.386 . S
C83 C82 1.386 . S
C83 C84 1.382 . S
C83 H105 0.950 . S
C84 N80 1.332 . S
C84 C83 1.382 . S
C84 H86 0.928 1_545 S
C85 N80 1.332 . S
C85 C81 1.382 . S
C85 H87 0.948 . S
H86 C84 0.928 1_565 S
H87 C85 0.948 . S
H88 C77 0.952 . S
H89 C79 0.948 . S
C90 C56 1.395 . S
C90 C60 1.391 . S
C91 C53 1.389 . S
C91 C73 1.392 . S
C92 C63 1.392 . S
C92 C65 1.389 1_565 S
C93 C68 1.395 . S
C93 C70 1.391 . S
H94 C54 0.951 . S
H95 C55 0.950 . S
H96 C61 0.949 . S
H97 C62 0.950 . S
H98 C66 0.951 . S
H99 C67 0.950 . S
H100 C71 0.949 . S
H101 C72 0.950 . S
H102 C76 0.950 1_545 S
H103 C78 0.950 . S
H104 C81 0.950 . S
H105 C83 0.950 . S
C106 C107 1.443 . S
C106 N110 1.376 . S
C106 C144 1.389 . S
C107 C106 1.443 . S
C107 C108 1.340 . S
C107 H147 0.951 . S
C108 C107 1.340 . S
C108 C109 1.439 . S
C108 H148 0.950 . S
C109 C108 1.439 . S
C109 N110 1.374 . S
C109 C143 1.395 . S
N110 C106 1.376 . S
N110 C109 1.374 . S
N110 Co111 2.008 . S
Co111 N110 2.008 . S
Co111 N112 1.995 . S
Co111 N117 2.008 . S
Co111 N122 1.995 . S
Co111 N127 2.282 . S
Co111 N133 2.282 . S
N112 Co111 1.995 . S
N112 C113 1.376 . S
N112 C116 1.383 . S
C113 N112 1.376 . S
C113 C114 1.446 . S
C113 C143 1.391 . S
C114 C113 1.446 . S
C114 C115 1.339 . S
C114 H149 0.949 . S
C115 C114 1.339 . S
C115 C116 1.439 . S
C115 H150 0.950 . S
C116 N112 1.383 . S
C116 C115 1.439 . S
C116 C145 1.392 . S
N117 Co111 2.008 . S
N117 C118 1.376 . S
N117 C121 1.374 . S
C118 N117 1.376 . S
C118 C119 1.443 . S
C118 C145 1.389 . S
C119 C118 1.443 . S
C119 C120 1.340 . S
C119 H151 0.951 . S
C120 C119 1.340 . S
C120 C121 1.439 . S
C120 H152 0.950 . S
C121 N117 1.374 . S
C121 C120 1.439 . S
C121 C146 1.395 . S
N122 Co111 1.995 . S
N122 C123 1.376 . S
N122 C126 1.383 . S
C123 N122 1.376 . S
C123 C124 1.446 . S
C123 C146 1.391 . S
C124 C123 1.446 . S
C124 C125 1.339 . S
C124 H153 0.949 . S
C125 C124 1.339 . S
C125 C126 1.439 . S
C125 H154 0.950 . S
C126 N122 1.383 . S
C126 C125 1.439 . S
C126 C144 1.392 . S
N127 Co111 2.282 . S
N127 C130 1.332 . S
N127 C132 1.332 . S
C128 C129 1.386 . S
C128 C131 1.388 . S
C129 C128 1.386 . S
C129 C130 1.382 . S
C129 H155 0.950 . S
C130 N127 1.332 . S
C130 C129 1.382 . S
C130 H141 0.952 . S
C131 C128 1.388 . S
C131 C132 1.382 . S
C131 H156 0.950 . S
C132 N127 1.332 . S
C132 C131 1.382 . S
C132 H142 0.948 . S
N133 Co111 2.282 . S
N133 C137 1.332 . S
N133 C138 1.332 . S
C134 C135 1.388 . S
C134 C138 1.382 . S
C134 H157 0.950 . S
C135 C134 1.388 . S
C135 C136 1.386 . S
C136 C135 1.386 . S
C136 C137 1.382 . S
C136 H158 0.950 . S
C137 N133 1.332 . S
C137 C136 1.382 . S
C137 H139 0.952 . S
C138 N133 1.332 . S
C138 C134 1.382 . S
C138 H140 0.948 . S
H139 C137 0.952 . S
H140 C138 0.948 . S
H141 C130 0.952 . S
H142 C132 0.948 . S
C143 C109 1.395 . S
C143 C113 1.391 . S
C144 C106 1.389 . S
C144 C126 1.392 . S
C145 C116 1.392 . S
C145 C118 1.389 . S
C146 C121 1.395 . S
C146 C123 1.391 . S
H147 C107 0.951 . S
H148 C108 0.950 . S
H149 C114 0.949 . S
H150 C115 0.950 . S
H151 C119 0.951 . S
H152 C120 0.950 . S
H153 C124 0.949 . S
H154 C125 0.950 . S
H155 C129 0.950 . S
H156 C131 0.950 . S
H157 C134 0.950 . S
H158 C136 0.950 . S
C159 C160 1.443 . S
C159 N163 1.376 . S
C159 C197 1.389 . S
C160 C159 1.443 . S
C160 C161 1.340 . S
C160 H200 0.951 . S
C161 C160 1.340 . S
C161 C162 1.439 . S
C161 H201 0.950 . S
C162 C161 1.439 . S
C162 N163 1.374 . S
C162 C196 1.395 . S
N163 C159 1.376 . S
N163 C162 1.374 . S
N163 Co164 2.008 1_655 S
Co164 N163 2.008 1_455 S
Co164 N165 1.995 1_455 S
Co164 N170 2.008 . S
Co164 N175 1.995 . S
Co164 N180 2.282 . S
Co164 N186 2.282 1_455 S
N165 Co164 1.995 1_655 S
N165 C166 1.376 . S
N165 C169 1.383 1_655 S
C166 N165 1.376 . S
C166 C167 1.446 . S
C166 C196 1.391 . S
C167 C166 1.446 . S
C167 C168 1.339 . S
C167 H202 0.949 . S
C168 C167 1.339 . S
C168 C169 1.439 1_655 S
C168 H203 0.950 . S
C169 N165 1.383 1_455 S
C169 C168 1.439 1_455 S
C169 C198 1.392 . S
N170 Co164 2.008 . S
N170 C171 1.376 . S
N170 C174 1.374 . S
C171 N170 1.376 . S
C171 C172 1.443 . S
C171 C198 1.389 . S
C172 C171 1.443 . S
C172 C173 1.340 . S
C172 H204 0.951 . S
C173 C172 1.340 . S
C173 C174 1.439 . S
C173 H205 0.950 . S
C174 N170 1.374 . S
C174 C173 1.439 . S
C174 C199 1.395 . S
N175 Co164 1.995 . S
N175 C176 1.376 . S
N175 C179 1.383 1_455 S
C176 N175 1.376 . S
C176 C177 1.446 . S
C176 C199 1.391 . S
C177 C176 1.446 . S
C177 C178 1.339 . S
C177 H206 0.949 . S
C178 C177 1.339 . S
C178 C179 1.439 1_455 S
C178 H207 0.950 . S
C179 N175 1.383 1_655 S
C179 C178 1.439 1_655 S
C179 C197 1.392 . S
N180 Co164 2.282 . S
N180 C183 1.332 . S
N180 C185 1.332 . S
C181 C182 1.386 . S
C181 C184 1.388 . S
C182 C181 1.386 . S
C182 C183 1.382 . S
C182 H208 0.950 . S
C183 N180 1.332 . S
C183 C182 1.382 . S
C183 H194 0.952 . S
C184 C181 1.388 . S
C184 C185 1.382 . S
C184 H209 0.950 . S
C185 N180 1.332 . S
C185 C184 1.382 . S
C185 H195 0.948 1_455 S
N186 Co164 2.282 1_655 S
N186 C190 1.332 . S
N186 C191 1.332 . S
C187 C188 1.388 . S
C187 C191 1.382 . S
C187 H210 0.950 . S
C188 C187 1.388 . S
C188 C189 1.386 . S
C189 C188 1.386 . S
C189 C190 1.382 . S
C189 H211 0.950 . S
C190 N186 1.332 . S
C190 C189 1.382 . S
C190 H192 0.952 . S
C191 N186 1.332 . S
C191 C187 1.382 . S
C191 H193 0.948 1_655 S
H192 C190 0.952 . S
H193 C191 0.948 1_455 S
H194 C183 0.952 . S
H195 C185 0.948 1_655 S
C196 C162 1.395 . S
C196 C166 1.391 . S
C197 C159 1.389 . S
C197 C179 1.392 . S
C198 C169 1.392 . S
C198 C171 1.389 . S
C199 C174 1.395 . S
C199 C176 1.391 . S
H200 C160 0.951 . S
H201 C161 0.950 . S
H202 C167 0.949 . S
H203 C168 0.950 . S
H204 C172 0.951 . S
H205 C173 0.950 . S
H206 C177 0.949 . S
H207 C178 0.950 . S
H208 C182 0.950 . S
H209 C184 0.950 . S
H210 C187 0.950 . S
H211 C189 0.950 . S
C212 C213 1.443 . S
C212 N216 1.376 . S
C212 C250 1.389 . S
C213 C212 1.443 . S
C213 C214 1.340 . S
C213 H253 0.951 . S
C214 C213 1.340 . S
C214 C215 1.439 . S
C214 H254 0.950 . S
C215 C214 1.439 . S
C215 N216 1.374 . S
C215 C249 1.395 . S
N216 C212 1.376 . S
N216 C215 1.374 . S
N216 Co217 2.008 . S
Co217 N216 2.008 . S
Co217 N218 1.995 . S
Co217 N223 2.008 . S
Co217 N228 1.995 . S
Co217 N233 2.282 . S
Co217 N239 2.282 . S
N218 Co217 1.995 . S
N218 C219 1.376 . S
N218 C222 1.383 . S
C219 N218 1.376 . S
C219 C220 1.446 . S
C219 C249 1.391 . S
C220 C219 1.446 . S
C220 C221 1.339 . S
C220 H255 0.949 . S
C221 C220 1.339 . S
C221 C222 1.439 . S
C221 H256 0.950 . S
C222 N218 1.383 . S
C222 C221 1.439 . S
C222 C251 1.392 . S
N223 Co217 2.008 . S
N223 C224 1.376 . S
N223 C227 1.374 . S
C224 N223 1.376 . S
C224 C225 1.443 . S
C224 C251 1.389 . S
C225 C224 1.443 . S
C225 C226 1.340 . S
C225 H257 0.951 . S
C226 C225 1.340 . S
C226 C227 1.439 . S
C226 H258 0.950 . S
C227 N223 1.374 . S
C227 C226 1.439 . S
C227 C252 1.395 . S
N228 Co217 1.995 . S
N228 C229 1.376 . S
N228 C232 1.383 . S
C229 N228 1.376 . S
C229 C230 1.446 1_545 S
C229 C252 1.391 . S
C230 C229 1.446 1_565 S
C230 C231 1.339 . S
C230 H259 0.949 . S
C231 C230 1.339 . S
C231 C232 1.439 1_565 S
C231 H260 0.950 . S
C232 N228 1.383 . S
C232 C231 1.439 1_545 S
C232 C250 1.392 . S
N233 Co217 2.282 . S
N233 C236 1.332 . S
N233 C238 1.332 . S
C234 C235 1.386 . S
C234 C237 1.388 . S
C235 C234 1.386 . S
C235 C236 1.382 . S
C235 H261 0.950 . S
C236 N233 1.332 . S
C236 C235 1.382 . S
C236 H247 0.952 . S
C237 C234 1.388 . S
C237 C238 1.382 . S
C237 H262 0.950 . S
C238 N233 1.332 . S
C238 C237 1.382 . S
C238 H248 0.948 . S
N239 Co217 2.282 . S
N239 C243 1.332 . S
N239 C244 1.332 . S
C240 C241 1.388 1_565 S
C240 C244 1.382 1_565 S
C240 H263 0.950 . S
C241 C240 1.388 1_545 S
C241 C242 1.386 . S
C242 C241 1.386 . S
C242 C243 1.382 . S
C242 H264 0.950 . S
C243 N239 1.332 . S
C243 C242 1.382 . S
C243 H245 0.952 . S
C244 N239 1.332 . S
C244 C240 1.382 1_545 S
C244 H246 0.960 . S
H245 C243 0.952 . S
H246 C244 0.960 . S
H247 C236 0.952 . S
H248 C238 0.948 . S
C249 C215 1.395 . S
C249 C219 1.391 . S
C250 C212 1.389 . S
C250 C232 1.392 . S
C251 C222 1.392 . S
C251 C224 1.389 . S
C252 C227 1.395 . S
C252 C229 1.391 . S
H253 C213 0.951 . S
H254 C214 0.950 . S
H255 C220 0.949 . S
H256 C221 0.950 . S
H257 C225 0.951 . S
H258 C226 0.950 . S
H259 C230 0.949 . S
H260 C231 0.950 . S
H261 C235 0.950 . S
H262 C237 0.950 . S
H263 C240 0.950 . S
H264 C242 0.950 . S
C265 C266 1.443 . S
C265 N269 1.376 . S
C265 C303 1.389 . S
C266 C265 1.443 . S
C266 C267 1.340 . S
C266 H306 0.951 . S
C267 C266 1.340 . S
C267 C268 1.439 . S
C267 H307 0.950 . S
C268 C267 1.439 . S
C268 N269 1.374 . S
C268 C302 1.395 . S
N269 C265 1.376 . S
N269 C268 1.374 . S
N269 Co270 2.008 . S
Co270 N269 2.008 . S
Co270 N271 1.995 . S
Co270 N276 2.008 . S
Co270 N281 1.995 . S
Co270 N286 2.282 . S
Co270 N292 2.282 . S
N271 Co270 1.995 . S
N271 C272 1.376 . S
N271 C275 1.383 . S
C272 N271 1.376 . S
C272 C273 1.446 . S
C272 C302 1.391 . S
C273 C272 1.446 . S
C273 C274 1.339 . S
C273 H308 0.949 . S
C274 C273 1.339 . S
C274 C275 1.439 . S
C274 H309 0.950 . S
C275 N271 1.383 . S
C275 C274 1.439 . S
C275 C304 1.392 . S
N276 Co270 2.008 . S
N276 C277 1.376 . S
N276 C280 1.374 . S
C277 N276 1.376 . S
C277 C278 1.443 . S
C277 C304 1.389 . S
C278 C277 1.443 . S
C278 C279 1.340 . S
C278 H310 0.951 . S
C279 C278 1.340 . S
C279 C280 1.439 . S
C279 H311 0.950 . S
C280 N276 1.374 . S
C280 C279 1.439 . S
C280 C305 1.395 . S
N281 Co270 1.995 . S
N281 C282 1.376 . S
N281 C285 1.383 . S
C282 N281 1.376 . S
C282 C283 1.446 . S
C282 C305 1.391 . S
C283 C282 1.446 . S
C283 C284 1.339 . S
C283 H312 0.949 . S
C284 C283 1.339 . S
C284 C285 1.439 . S
C284 H313 0.950 . S
C285 N281 1.383 . S
C285 C284 1.439 . S
C285 C303 1.392 . S
N286 Co270 2.282 . S
N286 C289 1.332 . S
N286 C291 1.332 . S
C287 C288 1.386 . S
C287 C290 1.388 . S
C288 C287 1.386 . S
C288 C289 1.382 . S
C288 H314 0.950 . S
C289 N286 1.332 . S
C289 C288 1.382 . S
C289 H300 0.952 . S
C290 C287 1.388 . S
C290 C291 1.382 . S
C290 H315 0.950 . S
C291 N286 1.332 . S
C291 C290 1.382 . S
C291 H301 0.948 . S
N292 Co270 2.282 . S
N292 C296 1.332 . S
N292 C297 1.332 . S
C293 C294 1.388 . S
C293 C297 1.382 . S
C293 H316 0.950 . S
C294 C293 1.388 . S
C294 C295 1.386 . S
C295 C294 1.386 . S
C295 C296 1.382 . S
C295 H317 0.950 . S
C296 N292 1.332 . S
C296 C295 1.382 . S
C296 H298 0.952 . S
C297 N292 1.332 . S
C297 C293 1.382 . S
C297 H299 0.948 . S
H298 C296 0.952 . S
H299 C297 0.948 . S
H300 C289 0.952 . S
H301 C291 0.948 . S
C302 C268 1.395 . S
C302 C272 1.391 . S
C303 C265 1.389 . S
C303 C285 1.392 . S
C304 C275 1.392 . S
C304 C277 1.389 . S
C305 C280 1.395 . S
C305 C282 1.391 . S
H306 C266 0.951 . S
H307 C267 0.950 . S
H308 C273 0.949 . S
H309 C274 0.950 . S
H310 C278 0.951 . S
H311 C279 0.950 . S
H312 C283 0.949 . S
H313 C284 0.950 . S
H314 C288 0.950 . S
H315 C290 0.950 . S
H316 C293 0.950 . S
H317 C295 0.950 . S
H318 O344 0.856 . S
H319 O347 0.854 . S
H320 C355 0.930 . S
H321 C356 0.930 . S
H322 C358 0.930 . S
H323 C359 0.930 . S
H324 C361 0.931 . S
H325 C362 0.930 . S
H326 C364 0.930 . S
H327 C365 0.929 . S
H328 C367 0.930 . S
H329 C368 0.931 . S
H330 C370 0.930 . S
H331 C371 0.929 . S
H332 C373 0.931 . S
H333 C374 0.930 . S
H334 C376 0.930 . S
H335 C377 0.932 . S
H336 C379 0.930 . S
H337 C380 0.929 . S
H338 C382 0.931 . S
H339 C383 0.930 . S
H340 C385 0.929 . S
H341 C386 0.931 . S
H342 C388 0.930 . S
H343 C389 0.929 . S
O344 H318 0.856 . S
O344 C390 1.300 . S
O345 C390 1.209 . S
O346 C391 1.199 . S
O347 H319 0.854 . S
O347 C391 1.297 . S
C348 C349 1.404 . S
C348 C353 1.397 . S
C348 C354 1.492 . S
C349 C348 1.404 . S
C349 C350 1.396 . S
C349 C360 1.492 . S
C350 C349 1.396 . S
C350 C351 1.397 . S
C350 C366 1.509 . S
C351 C350 1.397 . S
C351 C352 1.412 . S
C351 C372 1.485 . S
C352 C351 1.412 . S
C352 C353 1.388 . S
C352 C378 1.490 . S
C353 C348 1.397 . S
C353 C352 1.388 . S
C353 C384 1.519 . S
C354 C348 1.492 . S
C354 C355 1.363 . S
C354 C359 1.390 . S
C355 H320 0.930 . S
C355 C354 1.363 . S
C355 C356 1.372 . S
C356 H321 0.930 . S
C356 C355 1.372 . S
C356 C357 1.383 . S
C357 C356 1.383 . S
C357 C358 1.395 . S
C358 H322 0.930 . S
C358 C357 1.395 . S
C358 C359 1.362 . S
C359 H323 0.930 . S
C359 C354 1.390 . S
C359 C358 1.362 . S
C360 C349 1.492 . S
C360 C361 1.377 . S
C360 C365 1.397 . S
C361 H324 0.931 . S
C361 C360 1.377 . S
C361 C362 1.376 . S
C362 H325 0.930 . S
C362 C361 1.376 . S
C362 C363 1.376 . S
C363 C362 1.376 . S
C363 C364 1.378 . S
C363 C390 1.486 . S
C364 H326 0.930 . S
C364 C363 1.378 . S
C364 C365 1.376 . S
C365 H327 0.929 . S
C365 C360 1.397 . S
C365 C364 1.376 . S
C366 C350 1.509 . S
C366 C367 1.391 . S
C366 C371 1.386 . S
C367 H328 0.930 . S
C367 C366 1.391 . S
C367 C368 1.375 . S
C368 H329 0.931 . S
C368 C367 1.375 . S
C368 C369 1.375 . S
C369 C368 1.375 . S
C369 C370 1.361 . S
C370 H330 0.930 . S
C370 C369 1.361 . S
C370 C371 1.399 . S
C371 H331 0.929 . S
C371 C366 1.386 . S
C371 C370 1.399 . S
C372 C351 1.485 . S
C372 C373 1.394 . S
C372 C377 1.360 . S
C373 H332 0.931 . S
C373 C372 1.394 . S
C373 C374 1.372 . S
C374 H333 0.930 . S
C374 C373 1.372 . S
C374 C375 1.397 . S
C375 C374 1.397 . S
C375 C376 1.390 . S
C375 C391 1.476 . S
C376 H334 0.930 . S
C376 C375 1.390 . S
C376 C377 1.366 . S
C377 H335 0.932 . S
C377 C372 1.360 . S
C377 C376 1.366 . S
C378 C352 1.490 . S
C378 C379 1.380 . S
C378 C383 1.386 . S
C379 H336 0.930 . S
C379 C378 1.380 . S
C379 C380 1.381 . S
C380 H337 0.929 . S
C380 C379 1.381 . S
C380 C381 1.371 . S
C381 C380 1.371 . S
C381 C382 1.380 . S
C382 H338 0.931 . S
C382 C381 1.380 . S
C382 C383 1.387 . S
C383 H339 0.930 . S
C383 C378 1.386 . S
C383 C382 1.387 . S
C384 C353 1.519 . S
C384 C385 1.377 . S
C384 C389 1.361 . S
C385 H340 0.929 . S
C385 C384 1.377 . S
C385 C386 1.386 . S
C386 H341 0.931 . S
C386 C385 1.386 . S
C386 C387 1.363 . S
C387 C386 1.363 . S
C387 C388 1.385 . S
C388 H342 0.930 . S
C388 C387 1.385 . S
C388 C389 1.396 . S
C389 H343 0.929 . S
C389 C384 1.361 . S
C389 C388 1.396 . S
C390 O344 1.300 . S
C390 O345 1.209 . S
C390 C363 1.486 . S
C391 O346 1.199 . S
C391 O347 1.297 . S
C391 C375 1.476 . S
H392 O418 0.856 . S
H393 O421 0.854 . S
H394 C429 0.930 . S
H395 C430 0.930 . S
H396 C432 0.930 . S
H397 C433 0.930 . S
H398 C435 0.931 . S
H399 C436 0.930 . S
H400 C438 0.930 . S
H401 C439 0.929 . S
H402 C441 0.930 . S
H403 C442 0.931 . S
H404 C444 0.930 . S
H405 C445 0.929 . S
H406 C447 0.931 . S
H407 C448 0.930 . S
H408 C450 0.930 . S
H409 C451 0.932 . S
H410 C453 0.930 . S
H411 C454 0.929 . S
H412 C456 0.931 . S
H413 C457 0.930 . S
H414 C459 0.929 . S
H415 C460 0.931 . S
H416 C462 0.930 . S
H417 C463 0.929 . S
O418 H392 0.856 . S
O418 C464 1.300 . S
O419 C464 1.209 . S
O420 C465 1.199 . S
O421 H393 0.854 . S
O421 C465 1.297 . S
C422 C423 1.404 . S
C422 C427 1.397 . S
C422 C428 1.492 . S
C423 C422 1.404 . S
C423 C424 1.396 . S
C423 C434 1.492 . S
C424 C423 1.396 . S
C424 C425 1.397 . S
C424 C440 1.509 . S
C425 C424 1.397 . S
C425 C426 1.412 . S
C425 C446 1.485 . S
C426 C425 1.412 . S
C426 C427 1.388 . S
C426 C452 1.490 . S
C427 C422 1.397 . S
C427 C426 1.388 . S
C427 C458 1.519 . S
C428 C422 1.492 . S
C428 C429 1.363 . S
C428 C433 1.390 . S
C429 H394 0.930 . S
C429 C428 1.363 . S
C429 C430 1.372 . S
C430 H395 0.930 . S
C430 C429 1.372 . S
C430 C431 1.383 . S
C431 C430 1.383 . S
C431 C432 1.395 . S
C432 H396 0.930 . S
C432 C431 1.395 . S
C432 C433 1.362 . S
C433 H397 0.930 . S
C433 C428 1.390 . S
C433 C432 1.362 . S
C434 C423 1.492 . S
C434 C435 1.377 . S
C434 C439 1.397 . S
C435 H398 0.931 . S
C435 C434 1.377 . S
C435 C436 1.376 . S
C436 H399 0.930 . S
C436 C435 1.376 . S
C436 C437 1.376 . S
C437 C436 1.376 . S
C437 C438 1.378 . S
C437 C464 1.486 . S
C438 H400 0.930 . S
C438 C437 1.378 . S
C438 C439 1.376 . S
C439 H401 0.929 . S
C439 C434 1.397 . S
C439 C438 1.376 . S
C440 C424 1.509 . S
C440 C441 1.391 . S
C440 C445 1.386 . S
C441 H402 0.930 . S
C441 C440 1.391 . S
C441 C442 1.375 . S
C442 H403 0.931 . S
C442 C441 1.375 . S
C442 C443 1.375 . S
C443 C442 1.375 . S
C443 C444 1.361 . S
C444 H404 0.930 . S
C444 C443 1.361 . S
C444 C445 1.399 . S
C445 H405 0.929 . S
C445 C440 1.386 . S
C445 C444 1.399 . S
C446 C425 1.485 . S
C446 C447 1.394 . S
C446 C451 1.360 . S
C447 H406 0.931 . S
C447 C446 1.394 . S
C447 C448 1.372 . S
C448 H407 0.930 . S
C448 C447 1.372 . S
C448 C449 1.397 . S
C449 C448 1.397 . S
C449 C450 1.390 . S
C449 C465 1.476 . S
C450 H408 0.930 . S
C450 C449 1.390 . S
C450 C451 1.366 . S
C451 H409 0.932 . S
C451 C446 1.360 . S
C451 C450 1.366 . S
C452 C426 1.490 . S
C452 C453 1.380 . S
C452 C457 1.386 . S
C453 H410 0.930 . S
C453 C452 1.380 . S
C453 C454 1.381 . S
C454 H411 0.929 . S
C454 C453 1.381 . S
C454 C455 1.371 . S
C455 C454 1.371 . S
C455 C456 1.380 . S
C456 H412 0.931 . S
C456 C455 1.380 . S
C456 C457 1.387 . S
C457 H413 0.930 . S
C457 C452 1.386 . S
C457 C456 1.387 . S
C458 C427 1.519 . S
C458 C459 1.377 . S
C458 C463 1.361 . S
C459 H414 0.929 . S
C459 C458 1.377 . S
C459 C460 1.386 . S
C460 H415 0.931 . S
C460 C459 1.386 . S
C460 C461 1.363 . S
C461 C460 1.363 . S
C461 C462 1.385 . S
C462 H416 0.930 . S
C462 C461 1.385 . S
C462 C463 1.396 . S
C463 H417 0.929 . S
C463 C458 1.361 . S
C463 C462 1.396 . S
C464 O418 1.300 . S
C464 O419 1.209 . S
C464 C437 1.486 . S
C465 O420 1.199 . S
C465 O421 1.297 . S
C465 C449 1.476 . S
H466 O492 0.856 . S
H467 O495 0.854 . S
H468 C503 0.930 . S
H469 C504 0.930 . S
H470 C506 0.930 . S
H471 C507 0.930 . S
H472 C509 0.931 . S
H473 C510 0.930 . S
H474 C512 0.930 . S
H475 C513 0.929 . S
H476 C515 0.930 . S
H477 C516 0.931 . S
H478 C518 0.930 . S
H479 C519 0.929 . S
H480 C521 0.931 . S
H481 C522 0.930 . S
H482 C524 0.930 . S
H483 C525 0.932 . S
H484 C527 0.930 . S
H485 C528 0.929 . S
H486 C530 0.931 . S
H487 C531 0.930 . S
H488 C533 0.929 . S
H489 C534 0.931 . S
H490 C536 0.930 . S
H491 C537 0.929 . S
O492 H466 0.856 . S
O492 C538 1.300 . S
O493 C538 1.209 . S
O494 C539 1.199 . S
O495 H467 0.854 . S
O495 C539 1.297 . S
C496 C497 1.404 . S
C496 C501 1.397 . S
C496 C502 1.492 . S
C497 C496 1.404 . S
C497 C498 1.396 . S
C497 C508 1.492 . S
C498 C497 1.396 . S
C498 C499 1.397 . S
C498 C514 1.509 . S
C499 C498 1.397 . S
C499 C500 1.412 . S
C499 C520 1.485 . S
C500 C499 1.412 . S
C500 C501 1.388 . S
C500 C526 1.490 . S
C501 C496 1.397 . S
C501 C500 1.388 . S
C501 C532 1.519 . S
C502 C496 1.492 . S
C502 C503 1.363 . S
C502 C507 1.390 . S
C503 H468 0.930 . S
C503 C502 1.363 . S
C503 C504 1.372 . S
C504 H469 0.930 . S
C504 C503 1.372 . S
C504 C505 1.383 . S
C505 C504 1.383 . S
C505 C506 1.395 . S
C506 H470 0.930 . S
C506 C505 1.395 . S
C506 C507 1.362 . S
C507 H471 0.930 . S
C507 C502 1.390 . S
C507 C506 1.362 . S
C508 C497 1.492 . S
C508 C509 1.377 . S
C508 C513 1.397 . S
C509 H472 0.931 . S
C509 C508 1.377 . S
C509 C510 1.376 . S
C510 H473 0.930 . S
C510 C509 1.376 . S
C510 C511 1.376 . S
C511 C510 1.376 . S
C511 C512 1.378 . S
C511 C538 1.486 . S
C512 H474 0.930 . S
C512 C511 1.378 . S
C512 C513 1.376 . S
C513 H475 0.929 . S
C513 C508 1.397 . S
C513 C512 1.376 . S
C514 C498 1.509 . S
C514 C515 1.391 . S
C514 C519 1.386 . S
C515 H476 0.930 . S
C515 C514 1.391 . S
C515 C516 1.375 . S
C516 H477 0.931 . S
C516 C515 1.375 . S
C516 C517 1.375 . S
C517 C516 1.375 . S
C517 C518 1.361 . S
C518 H478 0.930 . S
C518 C517 1.361 . S
C518 C519 1.399 . S
C519 H479 0.929 . S
C519 C514 1.386 . S
C519 C518 1.399 . S
C520 C499 1.485 . S
C520 C521 1.394 . S
C520 C525 1.360 . S
C521 H480 0.931 . S
C521 C520 1.394 . S
C521 C522 1.372 . S
C522 H481 0.930 . S
C522 C521 1.372 . S
C522 C523 1.397 . S
C523 C522 1.397 . S
C523 C524 1.390 . S
C523 C539 1.476 . S
C524 H482 0.930 . S
C524 C523 1.390 . S
C524 C525 1.366 . S
C525 H483 0.932 . S
C525 C520 1.360 . S
C525 C524 1.366 . S
C526 C500 1.490 . S
C526 C527 1.380 . S
C526 C531 1.386 . S
C527 H484 0.930 . S
C527 C526 1.380 . S
C527 C528 1.381 . S
C528 H485 0.929 . S
C528 C527 1.381 . S
C528 C529 1.371 . S
C529 C528 1.371 . S
C529 C530 1.380 . S
C530 H486 0.931 . S
C530 C529 1.380 . S
C530 C531 1.387 . S
C531 H487 0.930 . S
C531 C526 1.386 . S
C531 C530 1.387 . S
C532 C501 1.519 . S
C532 C533 1.377 . S
C532 C537 1.361 . S
C533 H488 0.929 . S
C533 C532 1.377 . S
C533 C534 1.386 . S
C534 H489 0.931 . S
C534 C533 1.386 . S
C534 C535 1.363 . S
C535 C534 1.363 . S
C535 C536 1.385 . S
C536 H490 0.930 . S
C536 C535 1.385 . S
C536 C537 1.396 . S
C537 H491 0.929 . S
C537 C532 1.361 . S
C537 C536 1.396 . S
C538 O492 1.300 . S
C538 O493 1.209 . S
C538 C511 1.486 . S
C539 O494 1.199 . S
C539 O495 1.297 . S
C539 C523 1.476 . S
H540 O566 0.856 . S
H541 O569 0.854 1_455 S
H542 C577 0.930 . S
H543 C578 0.930 . S
H544 C580 0.930 . S
H545 C581 0.930 . S
H546 C583 0.931 . S
H547 C584 0.930 . S
H548 C586 0.930 . S
H549 C587 0.929 . S
H550 C589 0.930 . S
H551 C590 0.931 . S
H552 C592 0.930 . S
H553 C593 0.929 . S
H554 C595 0.931 . S
H555 C596 0.930 . S
H556 C598 0.930 . S
H557 C599 0.932 . S
H558 C601 0.930 . S
H559 C602 0.929 . S
H560 C604 0.931 . S
H561 C605 0.930 . S
H562 C607 0.929 . S
H563 C608 0.931 . S
H564 C610 0.930 . S
H565 C611 0.929 . S
O566 H540 0.856 . S
O566 C612 1.300 . S
O567 C612 1.209 . S
O568 C613 1.208 . S
O569 H541 0.854 1_655 S
O569 C613 1.304 1_655 S
C570 C571 1.404 . S
C570 C575 1.397 . S
C570 C576 1.492 . S
C571 C570 1.404 . S
C571 C572 1.396 . S
C571 C582 1.492 . S
C572 C571 1.396 . S
C572 C573 1.397 . S
C572 C588 1.509 . S
C573 C572 1.397 . S
C573 C574 1.412 . S
C573 C594 1.485 . S
C574 C573 1.412 . S
C574 C575 1.388 . S
C574 C600 1.490 . S
C575 C570 1.397 . S
C575 C574 1.388 . S
C575 C606 1.519 . S
C576 C570 1.492 . S
C576 C577 1.363 . S
C576 C581 1.390 . S
C577 H542 0.930 . S
C577 C576 1.363 . S
C577 C578 1.372 . S
C578 H543 0.930 . S
C578 C577 1.372 . S
C578 C579 1.383 . S
C579 C578 1.383 . S
C579 C580 1.395 . S
C580 H544 0.930 . S
C580 C579 1.395 . S
C580 C581 1.362 . S
C581 H545 0.930 . S
C581 C576 1.390 . S
C581 C580 1.362 . S
C582 C571 1.492 . S
C582 C583 1.377 . S
C582 C587 1.397 . S
C583 H546 0.931 . S
C583 C582 1.377 . S
C583 C584 1.376 . S
C584 H547 0.930 . S
C584 C583 1.376 . S
C584 C585 1.376 . S
C585 C584 1.376 . S
C585 C586 1.378 . S
C585 C612 1.486 . S
C586 H548 0.930 . S
C586 C585 1.378 . S
C586 C587 1.376 . S
C587 H549 0.929 . S
C587 C582 1.397 . S
C587 C586 1.376 . S
C588 C572 1.509 . S
C588 C589 1.391 . S
C588 C593 1.386 . S
C589 H550 0.930 . S
C589 C588 1.391 . S
C589 C590 1.375 . S
C590 H551 0.931 . S
C590 C589 1.375 . S
C590 C591 1.375 . S
C591 C590 1.375 . S
C591 C592 1.361 . S
C592 H552 0.930 . S
C592 C591 1.361 . S
C592 C593 1.399 . S
C593 H553 0.929 . S
C593 C588 1.386 . S
C593 C592 1.399 . S
C594 C573 1.485 . S
C594 C595 1.394 . S
C594 C599 1.360 . S
C595 H554 0.931 . S
C595 C594 1.394 . S
C595 C596 1.372 . S
C596 H555 0.930 . S
C596 C595 1.372 . S
C596 C597 1.397 . S
C597 C596 1.397 . S
C597 C598 1.390 . S
C597 C613 1.458 1_655 S
C598 H556 0.930 . S
C598 C597 1.390 . S
C598 C599 1.366 . S
C599 H557 0.932 . S
C599 C594 1.360 . S
C599 C598 1.366 . S
C600 C574 1.490 . S
C600 C601 1.380 . S
C600 C605 1.386 . S
C601 H558 0.930 . S
C601 C600 1.380 . S
C601 C602 1.381 . S
C602 H559 0.929 . S
C602 C601 1.381 . S
C602 C603 1.371 . S
C603 C602 1.371 . S
C603 C604 1.380 . S
C604 H560 0.931 . S
C604 C603 1.380 . S
C604 C605 1.387 . S
C605 H561 0.930 . S
C605 C600 1.386 . S
C605 C604 1.387 . S
C606 C575 1.519 . S
C606 C607 1.377 . S
C606 C611 1.361 . S
C607 H562 0.929 . S
C607 C606 1.377 . S
C607 C608 1.386 . S
C608 H563 0.931 . S
C608 C607 1.386 . S
C608 C609 1.363 . S
C609 C608 1.363 . S
C609 C610 1.385 . S
C610 H564 0.930 . S
C610 C609 1.385 . S
C610 C611 1.396 . S
C611 H565 0.929 . S
C611 C606 1.361 . S
C611 C610 1.396 . S
C612 O566 1.300 . S
C612 O567 1.209 . S
C612 C585 1.486 . S
C613 O568 1.208 . S
C613 O569 1.304 1_455 S
C613 C597 1.458 1_455 S
H614 O640 0.856 . S
H615 O643 0.854 . S
H616 C651 0.930 . S
H617 C652 0.930 . S
H618 C654 0.930 . S
H619 C655 0.930 . S
H620 C657 0.931 . S
H621 C658 0.930 . S
H622 C660 0.930 . S
H623 C661 0.929 . S
H624 C663 0.930 . S
H625 C664 0.931 . S
H626 C666 0.930 . S
H627 C667 0.929 . S
H628 C669 0.931 . S
H629 C670 0.930 . S
H630 C672 0.930 . S
H631 C673 0.932 . S
H632 C675 0.930 . S
H633 C676 0.929 . S
H634 C678 0.931 . S
H635 C679 0.930 . S
H636 C681 0.929 . S
H637 C682 0.931 . S
H638 C684 0.930 . S
H639 C685 0.929 . S
O640 H614 0.856 . S
O640 C686 1.300 . S
O641 C686 1.209 . S
O642 C687 1.199 . S
O643 H615 0.854 . S
O643 C687 1.297 . S
C644 C645 1.404 . S
C644 C649 1.397 . S
C644 C650 1.492 . S
C645 C644 1.404 . S
C645 C646 1.396 . S
C645 C656 1.492 . S
C646 C645 1.396 . S
C646 C647 1.397 . S
C646 C662 1.509 . S
C647 C646 1.397 . S
C647 C648 1.412 . S
C647 C668 1.485 . S
C648 C647 1.412 . S
C648 C649 1.388 . S
C648 C674 1.490 . S
C649 C644 1.397 . S
C649 C648 1.388 . S
C649 C680 1.519 . S
C650 C644 1.492 . S
C650 C651 1.363 . S
C650 C655 1.390 . S
C651 H616 0.930 . S
C651 C650 1.363 . S
C651 C652 1.372 . S
C652 H617 0.930 . S
C652 C651 1.372 . S
C652 C653 1.383 . S
C653 C652 1.383 . S
C653 C654 1.395 . S
C654 H618 0.930 . S
C654 C653 1.395 . S
C654 C655 1.362 . S
C655 H619 0.930 . S
C655 C650 1.390 . S
C655 C654 1.362 . S
C656 C645 1.492 . S
C656 C657 1.377 . S
C656 C661 1.397 . S
C657 H620 0.931 . S
C657 C656 1.377 . S
C657 C658 1.376 . S
C658 H621 0.930 . S
C658 C657 1.376 . S
C658 C659 1.376 . S
C659 C658 1.376 . S
C659 C660 1.378 . S
C659 C686 1.486 . S
C660 H622 0.930 . S
C660 C659 1.378 . S
C660 C661 1.376 . S
C661 H623 0.929 . S
C661 C656 1.397 . S
C661 C660 1.376 . S
C662 C646 1.509 . S
C662 C663 1.391 . S
C662 C667 1.386 . S
C663 H624 0.930 . S
C663 C662 1.391 . S
C663 C664 1.375 . S
C664 H625 0.931 . S
C664 C663 1.375 . S
C664 C665 1.375 . S
C665 C664 1.375 . S
C665 C666 1.361 . S
C666 H626 0.930 . S
C666 C665 1.361 . S
C666 C667 1.399 . S
C667 H627 0.929 . S
C667 C662 1.386 . S
C667 C666 1.399 . S
C668 C647 1.485 . S
C668 C669 1.394 . S
C668 C673 1.360 . S
C669 H628 0.931 . S
C669 C668 1.394 . S
C669 C670 1.372 . S
C670 H629 0.930 . S
C670 C669 1.372 . S
C670 C671 1.397 . S
C671 C670 1.397 . S
C671 C672 1.390 . S
C671 C687 1.476 . S
C672 H630 0.930 . S
C672 C671 1.390 . S
C672 C673 1.366 . S
C673 H631 0.932 . S
C673 C668 1.360 . S
C673 C672 1.366 . S
C674 C648 1.490 . S
C674 C675 1.380 . S
C674 C679 1.386 . S
C675 H632 0.930 . S
C675 C674 1.380 . S
C675 C676 1.381 . S
C676 H633 0.929 . S
C676 C675 1.381 . S
C676 C677 1.371 . S
C677 C676 1.371 . S
C677 C678 1.380 . S
C678 H634 0.931 . S
C678 C677 1.380 . S
C678 C679 1.387 . S
C679 H635 0.930 . S
C679 C674 1.386 . S
C679 C678 1.387 . S
C680 C649 1.519 . S
C680 C681 1.377 . S
C680 C685 1.361 . S
C681 H636 0.929 . S
C681 C680 1.377 . S
C681 C682 1.386 . S
C682 H637 0.931 . S
C682 C681 1.386 . S
C682 C683 1.363 . S
C683 C682 1.363 . S
C683 C684 1.385 . S
C684 H638 0.930 . S
C684 C683 1.385 . S
C684 C685 1.396 . S
C685 H639 0.929 . S
C685 C680 1.361 . S
C685 C684 1.396 . S
C686 O640 1.300 . S
C686 O641 1.209 . S
C686 C659 1.486 . S
C687 O642 1.199 . S
C687 O643 1.297 . S
C687 C671 1.476 . S
H688 O714 0.856 . S
H689 O717 0.854 . S
H690 C725 0.930 . S
H691 C726 0.930 . S
H692 C728 0.930 . S
H693 C729 0.930 . S
H694 C731 0.931 . S
H695 C732 0.930 . S
H696 C734 0.930 . S
H697 C735 0.929 . S
H698 C737 0.930 . S
H699 C738 0.931 . S
H700 C740 0.930 . S
H701 C741 0.929 . S
H702 C743 0.931 . S
H703 C744 0.930 . S
H704 C746 0.930 . S
H705 C747 0.932 . S
H706 C749 0.930 . S
H707 C750 0.929 . S
H708 C752 0.931 . S
H709 C753 0.930 . S
H710 C755 0.929 . S
H711 C756 0.931 . S
H712 C758 0.930 . S
H713 C759 0.929 . S
O714 H688 0.856 . S
O714 C760 1.300 . S
O715 C760 1.209 . S
O716 C761 1.199 . S
O717 H689 0.854 . S
O717 C761 1.297 . S
C718 C719 1.404 . S
C718 C723 1.397 . S
C718 C724 1.492 . S
C719 C718 1.404 . S
C719 C720 1.396 . S
C719 C730 1.492 . S
C720 C719 1.396 . S
C720 C721 1.397 . S
C720 C736 1.509 . S
C721 C720 1.397 . S
C721 C722 1.412 . S
C721 C742 1.485 . S
C722 C721 1.412 . S
C722 C723 1.388 . S
C722 C748 1.490 . S
C723 C718 1.397 . S
C723 C722 1.388 . S
C723 C754 1.519 . S
C724 C718 1.492 . S
C724 C725 1.363 . S
C724 C729 1.390 . S
C725 H690 0.930 . S
C725 C724 1.363 . S
C725 C726 1.372 . S
C726 H691 0.930 . S
C726 C725 1.372 . S
C726 C727 1.383 . S
C727 C726 1.383 . S
C727 C728 1.395 . S
C728 H692 0.930 . S
C728 C727 1.395 . S
C728 C729 1.362 . S
C729 H693 0.930 . S
C729 C724 1.390 . S
C729 C728 1.362 . S
C730 C719 1.492 . S
C730 C731 1.377 . S
C730 C735 1.397 . S
C731 H694 0.931 . S
C731 C730 1.377 . S
C731 C732 1.376 . S
C732 H695 0.930 . S
C732 C731 1.376 . S
C732 C733 1.376 . S
C733 C732 1.376 . S
C733 C734 1.378 . S
C733 C760 1.486 . S
C734 H696 0.930 . S
C734 C733 1.378 . S
C734 C735 1.376 . S
C735 H697 0.929 . S
C735 C730 1.397 . S
C735 C734 1.376 . S
C736 C720 1.509 . S
C736 C737 1.391 . S
C736 C741 1.386 . S
C737 H698 0.930 . S
C737 C736 1.391 . S
C737 C738 1.375 . S
C738 H699 0.931 . S
C738 C737 1.375 . S
C738 C739 1.375 . S
C739 C738 1.375 . S
C739 C740 1.361 . S
C740 H700 0.930 . S
C740 C739 1.361 . S
C740 C741 1.399 . S
C741 H701 0.929 . S
C741 C736 1.386 . S
C741 C740 1.399 . S
C742 C721 1.485 . S
C742 C743 1.394 . S
C742 C747 1.360 . S
C743 H702 0.931 . S
C743 C742 1.394 . S
C743 C744 1.372 . S
C744 H703 0.930 . S
C744 C743 1.372 . S
C744 C745 1.397 . S
C745 C744 1.397 . S
C745 C746 1.390 . S
C745 C761 1.476 . S
C746 H704 0.930 . S
C746 C745 1.390 . S
C746 C747 1.366 . S
C747 H705 0.932 . S
C747 C742 1.360 . S
C747 C746 1.366 . S
C748 C722 1.490 . S
C748 C749 1.380 . S
C748 C753 1.386 . S
C749 H706 0.930 . S
C749 C748 1.380 . S
C749 C750 1.381 . S
C750 H707 0.929 . S
C750 C749 1.381 . S
C750 C751 1.371 . S
C751 C750 1.371 . S
C751 C752 1.380 . S
C752 H708 0.931 . S
C752 C751 1.380 . S
C752 C753 1.387 . S
C753 H709 0.930 . S
C753 C748 1.386 . S
C753 C752 1.387 . S
C754 C723 1.519 . S
C754 C755 1.377 . S
C754 C759 1.361 . S
C755 H710 0.929 . S
C755 C754 1.377 . S
C755 C756 1.386 . S
C756 H711 0.931 . S
C756 C755 1.386 . S
C756 C757 1.363 . S
C757 C756 1.363 . S
C757 C758 1.385 . S
C758 H712 0.930 . S
C758 C757 1.385 . S
C758 C759 1.396 . S
C759 H713 0.929 . S
C759 C754 1.361 . S
C759 C758 1.396 . S
C760 O714 1.300 . S
C760 O715 1.209 . S
C760 C733 1.486 . S
C761 O716 1.199 . S
C761 O717 1.297 . S
C761 C745 1.476 . S
H762 C780 0.951 . S
H763 C782 0.951 . S
H764 C784 0.950 . S
H765 C785 0.950 . S
H766 C787 0.950 . S
H767 C790 0.950 . S
H768 C791 0.950 . S
H769 C793 0.950 . S
H770 C794 0.950 . S
H771 C795 0.951 . S
H772 C797 0.951 . S
H773 C799 0.950 . S
H774 C800 0.950 . S
H775 C802 0.950 . S
H776 C805 0.950 . S
H777 C806 0.950 . S
H778 C808 0.950 . S
H779 C809 0.950 . S
C780 H762 0.951 . S
C780 C781 1.366 . S
C780 C782 1.388 . S
C781 C780 1.366 . S
C781 C785 1.385 . S
C782 H763 0.951 . S
C782 C780 1.388 . S
C782 C783 1.366 . S
C783 C782 1.366 . S
C783 C784 1.414 . S
C783 C786 1.499 . S
C784 H764 0.950 . S
C784 C783 1.414 . S
C784 C785 1.374 . S
C785 H765 0.950 . S
C785 C781 1.385 . S
C785 C784 1.374 . S
C786 C783 1.499 . S
C786 C787 1.373 . S
C786 C788 1.389 . S
C787 H766 0.950 . S
C787 C786 1.373 . S
C787 C803 1.377 . S
C788 C786 1.389 . S
C788 C789 1.524 . S
C788 C802 1.377 . S
C789 C788 1.524 . S
C789 C790 1.397 . S
C789 C794 1.363 . S
C790 H767 0.950 . S
C790 C789 1.397 . S
C790 C791 1.334 . S
C791 H768 0.950 . S
C791 C790 1.334 . S
C791 C792 1.287 . S
C792 C791 1.287 . S
C792 C793 1.524 . S
C792 H811 0.913 . S
C793 H769 0.950 . S
C793 C792 1.524 . S
C793 C794 1.415 . S
C794 H770 0.950 . S
C794 C789 1.363 . S
C794 C793 1.415 . S
C795 H771 0.951 . S
C795 C796 1.366 . S
C795 C797 1.388 . S
C796 C795 1.366 . S
C796 C800 1.385 . S
C797 H772 0.951 . S
C797 C795 1.388 . S
C797 C798 1.366 . S
C798 C797 1.366 . S
C798 C799 1.414 . S
C798 C801 1.499 . S
C799 H773 0.950 . S
C799 C798 1.414 . S
C799 C800 1.374 . S
C800 H774 0.950 . S
C800 C796 1.385 . S
C800 C799 1.374 . S
C801 C798 1.499 . S
C801 C802 1.373 . S
C801 C803 1.389 . S
C802 H775 0.950 . S
C802 C788 1.377 . S
C802 C801 1.373 . S
C803 C787 1.377 . S
C803 C801 1.389 . S
C803 C804 1.524 . S
C804 C803 1.524 . S
C804 C805 1.397 . S
C804 C809 1.363 . S
C805 H776 0.950 . S
C805 C804 1.397 . S
C805 C806 1.334 . S
C806 H777 0.950 . S
C806 C805 1.334 . S
C806 C807 1.287 . S
C807 C806 1.287 . S
C807 C808 1.524 . S
C807 H810 0.999 . S
C808 H778 0.950 . S
C808 C807 1.524 . S
C808 C809 1.415 . S
C809 H779 0.950 . S
C809 C804 1.363 . S
C809 C808 1.415 . S
H810 C807 0.999 . S
H811 C792 0.913 . S
H812 C830 0.951 . S
H813 C832 0.951 . S
H814 C834 0.950 . S
H815 C835 0.950 . S
H816 C837 0.950 . S
H817 C840 0.950 . S
H818 C841 0.950 . S
H819 C843 0.950 . S
H820 C844 0.950 . S
H821 C845 0.951 . S
H822 C847 0.951 . S
H823 C849 0.950 . S
H824 C850 0.950 . S
H825 C852 0.950 . S
H826 C855 0.950 . S
H827 C856 0.950 . S
H828 C858 0.950 . S
H829 C859 0.950 . S
C830 H812 0.951 . S
C830 C831 1.366 . S
C830 C832 1.388 . S
C831 C830 1.366 . S
C831 C835 1.385 . S
C832 H813 0.951 . S
C832 C830 1.388 . S
C832 C833 1.366 . S
C833 C832 1.366 . S
C833 C834 1.414 . S
C833 C836 1.499 . S
C834 H814 0.950 . S
C834 C833 1.414 . S
C834 C835 1.374 . S
C835 H815 0.950 . S
C835 C831 1.385 . S
C835 C834 1.374 . S
C836 C833 1.499 . S
C836 C837 1.373 . S
C836 C838 1.389 . S
C837 H816 0.950 . S
C837 C836 1.373 . S
C837 C853 1.377 . S
C838 C836 1.389 . S
C838 C839 1.524 . S
C838 C852 1.377 . S
C839 C838 1.524 . S
C839 C840 1.397 . S
C839 C844 1.363 . S
C840 H817 0.950 . S
C840 C839 1.397 . S
C840 C841 1.334 . S
C841 H818 0.950 . S
C841 C840 1.334 . S
C841 C842 1.287 . S
C842 C841 1.287 . S
C842 C843 1.524 . S
C842 H861 0.913 1_545 S
C843 H819 0.950 . S
C843 C842 1.524 . S
C843 C844 1.415 . S
C844 H820 0.950 . S
C844 C839 1.363 . S
C844 C843 1.415 . S
C845 H821 0.951 . S
C845 C846 1.366 . S
C845 C847 1.388 . S
C846 C845 1.366 . S
C846 C850 1.385 . S
C847 H822 0.951 . S
C847 C845 1.388 . S
C847 C848 1.366 . S
C848 C847 1.366 . S
C848 C849 1.414 . S
C848 C851 1.499 . S
C849 H823 0.950 . S
C849 C848 1.414 . S
C849 C850 1.374 . S
C850 H824 0.950 . S
C850 C846 1.385 . S
C850 C849 1.374 . S
C851 C848 1.499 . S
C851 C852 1.373 . S
C851 C853 1.389 . S
C852 H825 0.950 . S
C852 C838 1.377 . S
C852 C851 1.373 . S
C853 C837 1.377 . S
C853 C851 1.389 . S
C853 C854 1.524 . S
C854 C853 1.524 . S
C854 C855 1.397 . S
C854 C859 1.363 . S
C855 H826 0.950 . S
C855 C854 1.397 . S
C855 C856 1.334 . S
C856 H827 0.950 . S
C856 C855 1.334 . S
C856 C857 1.287 . S
C857 C856 1.287 . S
C857 C858 1.524 . S
C857 H860 0.999 . S
C858 H828 0.950 . S
C858 C857 1.524 . S
C858 C859 1.415 . S
C859 H829 0.950 . S
C859 C854 1.363 . S
C859 C858 1.415 . S
H860 C857 0.999 . S
H861 C842 0.913 1_565 S
H862 C880 0.951 . S
H863 C882 0.951 . S
H864 C884 0.950 . S
H865 C885 0.950 . S
H866 C887 0.950 . S
H867 C890 0.950 . S
H868 C891 0.950 . S
H869 C893 0.950 . S
H870 C894 0.950 . S
H871 C895 0.951 . S
H872 C897 0.951 . S
H873 C899 0.950 . S
H874 C900 0.950 . S
H875 C902 0.950 . S
H876 C905 0.950 . S
H877 C906 0.950 . S
H878 C908 0.950 . S
H879 C909 0.950 . S
C880 H862 0.951 . S
C880 C881 1.366 . S
C880 C882 1.388 . S
C881 C880 1.366 . S
C881 C885 1.385 . S
C882 H863 0.951 . S
C882 C880 1.388 . S
C882 C883 1.366 . S
C883 C882 1.366 . S
C883 C884 1.414 . S
C883 C886 1.499 . S
C884 H864 0.950 . S
C884 C883 1.414 . S
C884 C885 1.374 . S
C885 H865 0.950 . S
C885 C881 1.385 . S
C885 C884 1.374 . S
C886 C883 1.499 . S
C886 C887 1.373 . S
C886 C888 1.389 . S
C887 H866 0.950 . S
C887 C886 1.373 . S
C887 C903 1.377 . S
C888 C886 1.389 . S
C888 C889 1.524 . S
C888 C902 1.377 . S
C889 C888 1.524 . S
C889 C890 1.397 . S
C889 C894 1.363 . S
C890 H867 0.950 . S
C890 C889 1.397 . S
C890 C891 1.334 . S
C891 H868 0.950 . S
C891 C890 1.334 . S
C891 C892 1.287 . S
C892 C891 1.287 . S
C892 C893 1.524 . S
C892 H911 0.913 . S
C893 H869 0.950 . S
C893 C892 1.524 . S
C893 C894 1.415 . S
C894 H870 0.950 . S
C894 C889 1.363 . S
C894 C893 1.415 . S
C895 H871 0.951 . S
C895 C896 1.366 . S
C895 C897 1.388 . S
C896 C895 1.366 . S
C896 C900 1.385 . S
C897 H872 0.951 . S
C897 C895 1.388 . S
C897 C898 1.366 . S
C898 C897 1.366 . S
C898 C899 1.414 . S
C898 C901 1.499 . S
C899 H873 0.950 . S
C899 C898 1.414 . S
C899 C900 1.374 . S
C900 H874 0.950 . S
C900 C896 1.385 . S
C900 C899 1.374 . S
C901 C898 1.499 . S
C901 C902 1.373 . S
C901 C903 1.389 . S
C902 H875 0.950 . S
C902 C888 1.377 . S
C902 C901 1.373 . S
C903 C887 1.377 . S
C903 C901 1.389 . S
C903 C904 1.524 . S
C904 C903 1.524 . S
C904 C905 1.397 . S
C904 C909 1.363 . S
C905 H876 0.950 . S
C905 C904 1.397 . S
C905 C906 1.334 . S
C906 H877 0.950 . S
C906 C905 1.334 . S
C906 C907 1.287 . S
C907 C906 1.287 . S
C907 C908 1.524 . S
C907 H910 0.999 . S
C908 H878 0.950 . S
C908 C907 1.524 . S
C908 C909 1.415 . S
C909 H879 0.950 . S
C909 C904 1.363 . S
C909 C908 1.415 . S
H910 C907 0.999 . S
H911 C892 0.913 . S
H912 C930 0.951 . S
H913 C932 0.951 . S
H914 C934 0.950 . S
H915 C935 0.950 . S
H916 C937 0.950 . S
H917 C940 0.950 . S
H918 C941 0.950 . S
H919 C943 0.950 . S
H920 C944 0.950 1_455 S
H921 C945 0.951 . S
H922 C947 0.951 . S
H923 C949 0.950 . S
H924 C950 0.950 . S
H925 C952 0.950 . S
H926 C955 0.950 . S
H927 C956 0.950 . S
H928 C958 0.950 . S
H929 C959 0.950 . S
C930 H912 0.951 . S
C930 C931 1.366 . S
C930 C932 1.388 . S
C931 C930 1.366 . S
C931 C935 1.385 . S
C932 H913 0.951 . S
C932 C930 1.388 . S
C932 C933 1.366 . S
C933 C932 1.366 . S
C933 C934 1.414 . S
C933 C936 1.499 . S
C934 H914 0.950 . S
C934 C933 1.414 . S
C934 C935 1.374 . S
C935 H915 0.950 . S
C935 C931 1.385 . S
C935 C934 1.374 . S
C936 C933 1.499 . S
C936 C937 1.373 . S
C936 C938 1.389 . S
C937 H916 0.950 . S
C937 C936 1.373 . S
C937 C953 1.377 . S
C938 C936 1.389 . S
C938 C939 1.524 . S
C938 C952 1.377 . S
C939 C938 1.524 . S
C939 C940 1.397 . S
C939 C944 1.363 . S
C940 H917 0.950 . S
C940 C939 1.397 . S
C940 C941 1.334 . S
C941 H918 0.950 . S
C941 C940 1.334 . S
C941 C942 1.287 . S
C942 C941 1.287 . S
C942 C943 1.524 1_655 S
C942 H961 0.913 . S
C943 H919 0.950 . S
C943 C942 1.524 1_455 S
C943 C944 1.415 1_455 S
C944 H920 0.950 1_655 S
C944 C939 1.363 . S
C944 C943 1.415 1_655 S
C945 H921 0.951 . S
C945 C946 1.366 . S
C945 C947 1.388 . S
C946 C945 1.366 . S
C946 C950 1.385 . S
C947 H922 0.951 . S
C947 C945 1.388 . S
C947 C948 1.366 . S
C948 C947 1.366 . S
C948 C949 1.414 . S
C948 C951 1.499 . S
C949 H923 0.950 . S
C949 C948 1.414 . S
C949 C950 1.374 . S
C950 H924 0.950 . S
C950 C946 1.385 . S
C950 C949 1.374 . S
C951 C948 1.499 . S
C951 C952 1.373 . S
C951 C953 1.389 . S
C952 H925 0.950 . S
C952 C938 1.377 . S
C952 C951 1.373 . S
C953 C937 1.377 . S
C953 C951 1.389 . S
C953 C954 1.524 . S
C954 C953 1.524 . S
C954 C955 1.397 . S
C954 C959 1.363 . S
C955 H926 0.950 . S
C955 C954 1.397 . S
C955 C956 1.334 . S
C956 H927 0.950 . S
C956 C955 1.334 . S
C956 C957 1.287 . S
C957 C956 1.287 . S
C957 C958 1.524 . S
C957 H960 0.999 . S
C958 H928 0.950 . S
C958 C957 1.524 . S
C958 C959 1.415 . S
C959 H929 0.950 . S
C959 C954 1.363 . S
C959 C958 1.415 . S
H960 C957 0.999 . S
H961 C942 0.913 . S
H962 C980 0.951 . S
H963 C982 0.951 . S
H964 C984 0.950 . S
H965 C985 0.950 1_545 S
H966 C987 0.950 . S
H967 C990 0.950 . S
H968 C991 0.950 . S
H969 C993 0.950 . S
H970 C994 0.950 . S
H971 C995 0.951 . S
H972 C997 0.951 . S
H973 C999 0.950 . S
H974 C1000 0.950 . S
H975 C1002 0.950 . S
H976 C1005 0.950 . S
H977 C1006 0.950 . S
H978 C1008 0.950 . S
H979 C1009 0.950 . S
C980 H962 0.951 . S
C980 C981 1.366 1_565 S
C980 C982 1.388 . S
C981 C980 1.366 1_545 S
C981 C985 1.383 1_545 S
C982 H963 0.951 . S
C982 C980 1.388 . S
C982 C983 1.366 . S
C983 C982 1.366 . S
C983 C984 1.414 . S
C983 C986 1.499 . S
C984 H964 0.950 . S
C984 C983 1.414 . S
C984 C985 1.375 . S
C985 H965 0.950 1_565 S
C985 C981 1.383 1_565 S
C985 C984 1.375 . S
C986 C983 1.499 . S
C986 C987 1.373 . S
C986 C988 1.389 . S
C987 H966 0.950 . S
C987 C986 1.373 . S
C987 C1003 1.377 . S
C988 C986 1.389 . S
C988 C989 1.524 . S
C988 C1002 1.377 . S
C989 C988 1.524 . S
C989 C990 1.397 1_565 S
C989 C994 1.363 . S
C990 H967 0.950 . S
C990 C989 1.397 1_545 S
C990 C991 1.334 . S
C991 H968 0.950 . S
C991 C990 1.334 . S
C991 C992 1.287 . S
C992 C991 1.287 . S
C992 C993 1.524 1_545 S
C992 H1011 0.913 . S
C993 H969 0.950 . S
C993 C992 1.524 1_565 S
C993 C994 1.415 . S
C994 H970 0.950 . S
C994 C989 1.363 . S
C994 C993 1.415 . S
C995 H971 0.951 . S
C995 C996 1.366 . S
C995 C997 1.388 . S
C996 C995 1.366 . S
C996 C1000 1.385 . S
C997 H972 0.951 . S
C997 C995 1.388 . S
C997 C998 1.366 . S
C998 C997 1.366 . S
C998 C999 1.414 . S
C998 C1001 1.499 . S
C999 H973 0.950 . S
C999 C998 1.414 . S
C999 C1000 1.374 . S
C1000 H974 0.950 . S
C1000 C996 1.385 . S
C1000 C999 1.374 . S
C1001 C998 1.499 . S
C1001 C1002 1.373 . S
C1001 C1003 1.389 . S
C1002 H975 0.950 . S
C1002 C988 1.377 . S
C1002 C1001 1.373 . S
C1003 C987 1.377 . S
C1003 C1001 1.389 . S
C1003 C1004 1.524 . S
C1004 C1003 1.524 . S
C1004 C1005 1.397 . S
C1004 C1009 1.363 . S
C1005 H976 0.950 . S
C1005 C1004 1.397 . S
C1005 C1006 1.334 . S
C1006 H977 0.950 . S
C1006 C1005 1.334 . S
C1006 C1007 1.287 . S
C1007 C1006 1.287 . S
C1007 C1008 1.524 . S
C1007 H1010 0.999 . S
C1008 H978 0.950 . S
C1008 C1007 1.524 . S
C1008 C1009 1.415 . S
C1009 H979 0.950 . S
C1009 C1004 1.363 . S
C1009 C1008 1.415 . S
H1010 C1007 0.999 . S
H1011 C992 0.913 . S
H1012 C1030 0.951 . S
H1013 C1032 0.951 . S
H1014 C1034 0.950 . S
H1015 C1035 0.950 . S
H1016 C1037 0.950 . S
H1017 C1040 0.950 . S
H1018 C1041 0.950 . S
H1019 C1043 0.950 . S
H1020 C1044 0.950 . S
H1021 C1045 0.951 . S
H1022 C1047 0.951 . S
H1023 C1049 0.950 . S
H1024 C1050 0.950 . S
H1025 C1052 0.950 . S
H1026 C1055 0.950 . S
H1027 C1056 0.950 . S
H1028 C1058 0.950 . S
H1029 C1059 0.950 . S
C1030 H1012 0.951 . S
C1030 C1031 1.366 . S
C1030 C1032 1.388 . S
C1031 C1030 1.366 . S
C1031 C1035 1.385 . S
C1032 H1013 0.951 . S
C1032 C1030 1.388 . S
C1032 C1033 1.366 . S
C1033 C1032 1.366 . S
C1033 C1034 1.414 . S
C1033 C1036 1.499 . S
C1034 H1014 0.950 . S
C1034 C1033 1.414 . S
C1034 C1035 1.374 . S
C1035 H1015 0.950 . S
C1035 C1031 1.385 . S
C1035 C1034 1.374 . S
C1036 C1033 1.499 . S
C1036 C1037 1.373 . S
C1036 C1038 1.389 . S
C1037 H1016 0.950 . S
C1037 C1036 1.373 . S
C1037 C1053 1.377 . S
C1038 C1036 1.389 . S
C1038 C1039 1.524 . S
C1038 C1052 1.377 . S
C1039 C1038 1.524 . S
C1039 C1040 1.397 . S
C1039 C1044 1.363 . S
C1040 H1017 0.950 . S
C1040 C1039 1.397 . S
C1040 C1041 1.334 . S
C1041 H1018 0.950 . S
C1041 C1040 1.334 . S
C1041 C1042 1.287 . S
C1042 C1041 1.287 . S
C1042 C1043 1.524 . S
C1042 H1061 0.913 . S
C1043 H1019 0.950 . S
C1043 C1042 1.524 . S
C1043 C1044 1.415 . S
C1044 H1020 0.950 . S
C1044 C1039 1.363 . S
C1044 C1043 1.415 . S
C1045 H1021 0.951 . S
C1045 C1046 1.366 . S
C1045 C1047 1.388 . S
C1046 C1045 1.366 . S
C1046 C1050 1.385 . S
C1047 H1022 0.951 . S
C1047 C1045 1.388 . S
C1047 C1048 1.366 . S
C1048 C1047 1.366 . S
C1048 C1049 1.414 . S
C1048 C1051 1.499 . S
C1049 H1023 0.950 . S
C1049 C1048 1.414 . S
C1049 C1050 1.374 . S
C1050 H1024 0.950 . S
C1050 C1046 1.385 . S
C1050 C1049 1.374 . S
C1051 C1048 1.499 . S
C1051 C1052 1.373 . S
C1051 C1053 1.389 . S
C1052 H1025 0.950 . S
C1052 C1038 1.377 . S
C1052 C1051 1.373 . S
C1053 C1037 1.377 . S
C1053 C1051 1.389 . S
C1053 C1054 1.524 . S
C1054 C1053 1.524 . S
C1054 C1055 1.397 . S
C1054 C1059 1.363 . S
C1055 H1026 0.950 . S
C1055 C1054 1.397 . S
C1055 C1056 1.334 . S
C1056 H1027 0.950 . S
C1056 C1055 1.334 . S
C1056 C1057 1.287 . S
C1057 C1056 1.287 . S
C1057 C1058 1.524 . S
C1057 H1060 0.999 . S
C1058 H1028 0.950 . S
C1058 C1057 1.524 . S
C1058 C1059 1.415 . S
C1059 H1029 0.950 . S
C1059 C1054 1.363 . S
C1059 C1058 1.415 . S
H1060 C1057 0.999 . S
H1061 C1042 0.913 . S
H1062 C1080 0.951 . S
H1063 C1082 0.951 . S
H1064 C1084 0.950 . S
H1065 C1085 0.950 . S
H1066 C1087 0.950 . S
H1067 C1090 0.950 . S
H1068 C1091 0.950 . S
H1069 C1093 0.950 . S
H1070 C1094 0.950 . S
H1071 C1095 0.951 . S
H1072 C1097 0.951 . S
H1073 C1099 0.950 . S
H1074 C1100 0.950 . S
H1075 C1102 0.950 . S
H1076 C1105 0.950 . S
H1077 C1106 0.950 . S
H1078 C1108 0.950 . S
H1079 C1109 0.950 . S
C1080 H1062 0.951 . S
C1080 C1081 1.366 . S
C1080 C1082 1.388 . S
C1081 C1080 1.366 . S
C1081 C1085 1.385 . S
C1082 H1063 0.951 . S
C1082 C1080 1.388 . S
C1082 C1083 1.366 . S
C1083 C1082 1.366 . S
C1083 C1084 1.414 . S
C1083 C1086 1.499 . S
C1084 H1064 0.950 . S
C1084 C1083 1.414 . S
C1084 C1085 1.374 . S
C1085 H1065 0.950 . S
C1085 C1081 1.385 . S
C1085 C1084 1.374 . S
C1086 C1083 1.499 . S
C1086 C1087 1.373 . S
C1086 C1088 1.389 . S
C1087 H1066 0.950 . S
C1087 C1086 1.373 . S
C1087 C1103 1.377 . S
C1088 C1086 1.389 . S
C1088 C1089 1.524 . S
C1088 C1102 1.377 . S
C1089 C1088 1.524 . S
C1089 C1090 1.397 . S
C1089 C1094 1.363 . S
C1090 H1067 0.950 . S
C1090 C1089 1.397 . S
C1090 C1091 1.334 . S
C1091 H1068 0.950 . S
C1091 C1090 1.334 . S
C1091 C1092 1.287 . S
C1092 C1091 1.287 . S
C1092 C1093 1.524 . S
C1092 H1111 0.913 . S
C1093 H1069 0.950 . S
C1093 C1092 1.524 . S
C1093 C1094 1.415 . S
C1094 H1070 0.950 . S
C1094 C1089 1.363 . S
C1094 C1093 1.415 . S
C1095 H1071 0.951 . S
C1095 C1096 1.366 . S
C1095 C1097 1.388 . S
C1096 C1095 1.366 . S
C1096 C1100 1.385 . S
C1097 H1072 0.951 . S
C1097 C1095 1.388 . S
C1097 C1098 1.366 . S
C1098 C1097 1.366 . S
C1098 C1099 1.414 . S
C1098 C1101 1.499 . S
C1099 H1073 0.950 . S
C1099 C1098 1.414 . S
C1099 C1100 1.374 . S
C1100 H1074 0.950 . S
C1100 C1096 1.385 . S
C1100 C1099 1.374 . S
C1101 C1098 1.499 . S
C1101 C1102 1.373 . S
C1101 C1103 1.389 . S
C1102 H1075 0.950 . S
C1102 C1088 1.377 . S
C1102 C1101 1.373 . S
C1103 C1087 1.377 . S
C1103 C1101 1.389 . S
C1103 C1104 1.524 . S
C1104 C1103 1.524 . S
C1104 C1105 1.397 . S
C1104 C1109 1.363 . S
C1105 H1076 0.950 . S
C1105 C1104 1.397 . S
C1105 C1106 1.334 . S
C1106 H1077 0.950 . S
C1106 C1105 1.334 . S
C1106 C1107 1.287 . S
C1107 C1106 1.287 . S
C1107 C1108 1.524 . S
C1107 H1110 0.999 . S
C1108 H1078 0.950 . S
C1108 C1107 1.524 . S
C1108 C1109 1.415 . S
C1109 H1079 0.950 . S
C1109 C1104 1.363 . S
C1109 C1108 1.415 . S
H1110 C1107 0.999 . S
H1111 C1092 0.913 . S
H1112 C1130 0.951 . S
H1113 C1132 0.937 1_556 S
H1114 C1134 0.950 . S
H1115 C1135 0.950 . S
H1116 C1137 0.903 1_554 S
H1117 C1140 0.950 . S
H1118 C1141 0.950 . S
H1119 C1143 0.950 . S
H1120 C1144 0.950 . S
H1121 C1145 0.951 . S
H1122 C1147 0.951 . S
H1123 C1149 0.950 . S
H1124 C1150 0.950 . S
H1125 C1152 0.950 . S
H1126 C1155 0.950 . S
H1127 C1156 0.950 . S
H1128 C1158 0.950 1_554 S
H1129 C1159 0.950 . S
C1130 H1112 0.951 . S
C1130 C1131 1.366 . S
C1130 C1132 1.388 . S
C1131 C1130 1.366 . S
C1131 C1135 1.385 . S
C1132 H1113 0.937 1_554 S
C1132 C1130 1.388 . S
C1132 C1133 1.377 . S
C1133 C1132 1.377 . S
C1133 C1134 1.431 . S
C1133 C1136 1.473 1_554 S
C1134 H1114 0.950 . S
C1134 C1133 1.431 . S
C1134 C1135 1.374 . S
C1135 H1115 0.950 . S
C1135 C1131 1.385 . S
C1135 C1134 1.374 . S
C1136 C1133 1.473 1_556 S
C1136 C1137 1.373 . S
C1136 C1138 1.389 . S
C1137 H1116 0.903 1_556 S
C1137 C1136 1.373 . S
C1137 C1153 1.377 . S
C1138 C1136 1.389 . S
C1138 C1139 1.524 . S
C1138 C1152 1.377 . S
C1139 C1138 1.524 . S
C1139 C1140 1.397 . S
C1139 C1144 1.363 . S
C1140 H1117 0.950 . S
C1140 C1139 1.397 . S
C1140 C1141 1.334 . S
C1141 H1118 0.950 . S
C1141 C1140 1.334 . S
C1141 C1142 1.287 . S
C1142 C1141 1.287 . S
C1142 C1143 1.524 . S
C1142 H1161 0.913 . S
C1143 H1119 0.950 . S
C1143 C1142 1.524 . S
C1143 C1144 1.415 . S
C1144 H1120 0.950 . S
C1144 C1139 1.363 . S
C1144 C1143 1.415 . S
C1145 H1121 0.951 . S
C1145 C1146 1.366 . S
C1145 C1147 1.388 . S
C1146 C1145 1.366 . S
C1146 C1150 1.385 . S
C1147 H1122 0.951 . S
C1147 C1145 1.388 . S
C1147 C1148 1.366 . S
C1148 C1147 1.366 . S
C1148 C1149 1.414 . S
C1148 C1151 1.499 . S
C1149 H1123 0.950 . S
C1149 C1148 1.414 . S
C1149 C1150 1.374 . S
C1150 H1124 0.950 . S
C1150 C1146 1.385 . S
C1150 C1149 1.374 . S
C1151 C1148 1.499 . S
C1151 C1152 1.373 . S
C1151 C1153 1.389 . S
C1152 H1125 0.950 . S
C1152 C1138 1.377 . S
C1152 C1151 1.373 . S
C1153 C1137 1.377 . S
C1153 C1151 1.389 . S
C1153 C1154 1.524 . S
C1154 C1153 1.524 . S
C1154 C1155 1.397 . S
C1154 C1159 1.363 . S
C1155 H1126 0.950 . S
C1155 C1154 1.397 . S
C1155 C1156 1.334 . S
C1156 H1127 0.950 . S
C1156 C1155 1.334 . S
C1156 C1157 1.287 . S
C1157 C1156 1.287 . S
C1157 C1158 1.524 . S
C1157 H1160 0.999 . S
C1158 H1128 0.950 1_556 S
C1158 C1157 1.524 . S
C1158 C1159 1.415 . S
C1159 H1129 0.950 . S
C1159 C1154 1.363 . S
C1159 C1158 1.415 . S
H1160 C1157 0.999 . S
H1161 C1142 0.913 . S
H1162 C1180 0.951 . S
H1163 C1182 0.951 . S
H1164 C1184 0.950 . S
H1165 C1185 0.950 . S
H1166 C1187 0.950 . S
H1167 C1190 0.950 . S
H1168 C1191 0.950 . S
H1169 C1193 0.950 . S
H1170 C1194 0.950 . S
H1171 C1195 0.951 . S
H1172 C1197 0.951 . S
H1173 C1199 0.950 . S
H1174 C1200 0.950 . S
H1175 C1202 0.950 . S
H1176 C1205 0.950 . S
H1177 C1206 0.950 . S
H1178 C1208 0.950 . S
H1179 C1209 0.950 . S
C1180 H1162 0.951 . S
C1180 C1181 1.366 . S
C1180 C1182 1.388 . S
C1181 C1180 1.366 . S
C1181 C1185 1.385 . S
C1182 H1163 0.951 . S
C1182 C1180 1.388 . S
C1182 C1183 1.366 . S
C1183 C1182 1.366 . S
C1183 C1184 1.414 . S
C1183 C1186 1.499 . S
C1184 H1164 0.950 . S
C1184 C1183 1.414 . S
C1184 C1185 1.374 . S
C1185 H1165 0.950 . S
C1185 C1181 1.385 . S
C1185 C1184 1.374 . S
C1186 C1183 1.499 . S
C1186 C1187 1.373 . S
C1186 C1188 1.389 . S
C1187 H1166 0.950 . S
C1187 C1186 1.373 . S
C1187 C1203 1.377 . S
C1188 C1186 1.389 . S
C1188 C1189 1.524 . S
C1188 C1202 1.377 . S
C1189 C1188 1.524 . S
C1189 C1190 1.397 . S
C1189 C1194 1.363 . S
C1190 H1167 0.950 . S
C1190 C1189 1.397 . S
C1190 C1191 1.334 . S
C1191 H1168 0.950 . S
C1191 C1190 1.334 . S
C1191 C1192 1.287 . S
C1192 C1191 1.287 . S
C1192 C1193 1.524 . S
C1192 H1211 0.913 . S
C1193 H1169 0.950 . S
C1193 C1192 1.524 . S
C1193 C1194 1.415 . S
C1194 H1170 0.950 . S
C1194 C1189 1.363 . S
C1194 C1193 1.415 . S
C1195 H1171 0.951 . S
C1195 C1196 1.366 . S
C1195 C1197 1.388 . S
C1196 C1195 1.366 . S
C1196 C1200 1.385 . S
C1197 H1172 0.951 . S
C1197 C1195 1.388 . S
C1197 C1198 1.366 . S
C1198 C1197 1.366 . S
C1198 C1199 1.414 . S
C1198 C1201 1.499 . S
C1199 H1173 0.950 . S
C1199 C1198 1.414 . S
C1199 C1200 1.374 . S
C1200 H1174 0.950 . S
C1200 C1196 1.385 . S
C1200 C1199 1.374 . S
C1201 C1198 1.499 . S
C1201 C1202 1.373 . S
C1201 C1203 1.389 . S
C1202 H1175 0.950 . S
C1202 C1188 1.377 . S
C1202 C1201 1.373 . S
C1203 C1187 1.377 . S
C1203 C1201 1.389 . S
C1203 C1204 1.524 . S
C1204 C1203 1.524 . S
C1204 C1205 1.397 . S
C1204 C1209 1.363 . S
C1205 H1176 0.950 . S
C1205 C1204 1.397 . S
C1205 C1206 1.334 . S
C1206 H1177 0.950 . S
C1206 C1205 1.334 . S
C1206 C1207 1.287 . S
C1207 C1206 1.287 . S
C1207 C1208 1.524 . S
C1207 H1210 0.999 . S
C1208 H1178 0.950 . S
C1208 C1207 1.524 . S
C1208 C1209 1.415 . S
C1209 H1179 0.950 . S
C1209 C1204 1.363 . S
C1209 C1208 1.415 . S
H1210 C1207 0.999 . S
H1211 C1192 0.913 . S
H1212 C1230 0.951 . S
H1213 C1232 0.951 . S
H1214 C1234 0.950 . S
H1215 C1235 0.950 . S
H1216 C1237 0.950 . S
H1217 C1240 0.950 . S
H1218 C1241 0.950 . S
H1219 C1243 0.950 . S
H1220 C1244 0.950 . S
H1221 C1245 0.951 . S
H1222 C1247 0.951 . S
H1223 C1249 0.950 . S
H1224 C1250 0.950 . S
H1225 C1252 0.950 . S
H1226 C1255 0.950 . S
H1227 C1256 0.950 . S
H1228 C1258 0.950 . S
H1229 C1259 0.950 . S
C1230 H1212 0.951 . S
C1230 C1231 1.366 . S
C1230 C1232 1.388 . S
C1231 C1230 1.366 . S
C1231 C1235 1.385 . S
C1232 H1213 0.951 . S
C1232 C1230 1.388 . S
C1232 C1233 1.366 1_554 S
C1233 C1232 1.366 1_556 S
C1233 C1234 1.414 . S
C1233 C1236 1.499 . S
C1234 H1214 0.950 . S
C1234 C1233 1.414 . S
C1234 C1235 1.374 1_556 S
C1235 H1215 0.950 . S
C1235 C1231 1.385 . S
C1235 C1234 1.374 1_554 S
C1236 C1233 1.499 . S
C1236 C1237 1.373 . S
C1236 C1238 1.389 . S
C1237 H1216 0.950 . S
C1237 C1236 1.373 . S
C1237 C1253 1.377 . S
C1238 C1236 1.389 . S
C1238 C1239 1.524 . S
C1238 C1252 1.377 . S
C1239 C1238 1.524 . S
C1239 C1240 1.397 . S
C1239 C1244 1.363 . S
C1240 H1217 0.950 . S
C1240 C1239 1.397 . S
C1240 C1241 1.334 . S
C1241 H1218 0.950 . S
C1241 C1240 1.334 . S
C1241 C1242 1.287 . S
C1242 C1241 1.287 . S
C1242 C1243 1.524 . S
C1242 H1261 0.913 . S
C1243 H1219 0.950 . S
C1243 C1242 1.524 . S
C1243 C1244 1.415 . S
C1244 H1220 0.950 . S
C1244 C1239 1.363 . S
C1244 C1243 1.415 . S
C1245 H1221 0.951 . S
C1245 C1246 1.366 . S
C1245 C1247 1.388 . S
C1246 C1245 1.366 . S
C1246 C1250 1.385 . S
C1247 H1222 0.951 . S
C1247 C1245 1.388 . S
C1247 C1248 1.366 . S
C1248 C1247 1.366 . S
C1248 C1249 1.414 . S
C1248 C1251 1.499 . S
C1249 H1223 0.950 . S
C1249 C1248 1.414 . S
C1249 C1250 1.374 . S
C1250 H1224 0.950 . S
C1250 C1246 1.385 . S
C1250 C1249 1.374 . S
C1251 C1248 1.499 . S
C1251 C1252 1.373 . S
C1251 C1253 1.389 . S
C1252 H1225 0.950 . S
C1252 C1238 1.377 . S
C1252 C1251 1.373 . S
C1253 C1237 1.377 . S
C1253 C1251 1.389 . S
C1253 C1254 1.524 . S
C1254 C1253 1.524 . S
C1254 C1255 1.397 . S
C1254 C1259 1.363 . S
C1255 H1226 0.950 . S
C1255 C1254 1.397 . S
C1255 C1256 1.334 . S
C1256 H1227 0.950 . S
C1256 C1255 1.334 . S
C1256 C1257 1.287 . S
C1257 C1256 1.287 . S
C1257 C1258 1.524 . S
C1257 H1260 0.999 . S
C1258 H1228 0.950 . S
C1258 C1257 1.524 . S
C1258 C1259 1.415 . S
C1259 H1229 0.950 . S
C1259 C1254 1.363 . S
C1259 C1258 1.415 . S
H1260 C1257 0.999 . S
H1261 C1242 0.913 . S
H1262 C1280 0.951 . S
H1263 C1282 0.951 . S
H1264 C1284 0.950 . S
H1265 C1285 0.950 . S
H1266 C1287 0.950 . S
H1267 C1290 0.950 . S
H1268 C1291 0.950 . S
H1269 C1293 0.950 . S
H1270 C1294 0.950 . S
H1271 C1295 0.951 . S
H1272 C1297 0.951 . S
H1273 C1299 0.950 . S
H1274 C1300 0.950 . S
H1275 C1302 0.950 . S
H1276 C1305 0.950 . S
H1277 C1306 0.950 . S
H1278 C1308 0.950 . S
H1279 C1309 0.950 . S
C1280 H1262 0.951 . S
C1280 C1281 1.366 . S
C1280 C1282 1.388 . S
C1281 C1280 1.366 . S
C1281 C1285 1.385 . S
C1282 H1263 0.951 . S
C1282 C1280 1.388 . S
C1282 C1283 1.366 . S
C1283 C1282 1.366 . S
C1283 C1284 1.414 . S
C1283 C1286 1.499 . S
C1284 H1264 0.950 . S
C1284 C1283 1.414 . S
C1284 C1285 1.374 . S
C1285 H1265 0.950 . S
C1285 C1281 1.385 . S
C1285 C1284 1.374 . S
C1286 C1283 1.499 . S
C1286 C1287 1.373 . S
C1286 C1288 1.389 . S
C1287 H1266 0.950 . S
C1287 C1286 1.373 . S
C1287 C1303 1.377 . S
C1288 C1286 1.389 . S
C1288 C1289 1.524 . S
C1288 C1302 1.377 . S
C1289 C1288 1.524 . S
C1289 C1290 1.397 . S
C1289 C1294 1.363 . S
C1290 H1267 0.950 . S
C1290 C1289 1.397 . S
C1290 C1291 1.334 . S
C1291 H1268 0.950 . S
C1291 C1290 1.334 . S
C1291 C1292 1.287 . S
C1292 C1291 1.287 . S
C1292 C1293 1.524 . S
C1292 H1311 0.913 . S
C1293 H1269 0.950 . S
C1293 C1292 1.524 . S
C1293 C1294 1.415 . S
C1294 H1270 0.950 . S
C1294 C1289 1.363 . S
C1294 C1293 1.415 . S
C1295 H1271 0.951 . S
C1295 C1296 1.366 . S
C1295 C1297 1.388 . S
C1296 C1295 1.366 . S
C1296 C1300 1.385 . S
C1297 H1272 0.951 . S
C1297 C1295 1.388 . S
C1297 C1298 1.366 . S
C1298 C1297 1.366 . S
C1298 C1299 1.414 . S
C1298 C1301 1.499 . S
C1299 H1273 0.950 . S
C1299 C1298 1.414 . S
C1299 C1300 1.374 . S
C1300 H1274 0.950 . S
C1300 C1296 1.385 . S
C1300 C1299 1.374 . S
C1301 C1298 1.499 . S
C1301 C1302 1.373 . S
C1301 C1303 1.389 . S
C1302 H1275 0.950 . S
C1302 C1288 1.377 . S
C1302 C1301 1.373 . S
C1303 C1287 1.377 . S
C1303 C1301 1.389 . S
C1303 C1304 1.524 . S
C1304 C1303 1.524 . S
C1304 C1305 1.397 . S
C1304 C1309 1.363 . S
C1305 H1276 0.950 . S
C1305 C1304 1.397 . S
C1305 C1306 1.334 . S
C1306 H1277 0.950 . S
C1306 C1305 1.334 . S
C1306 C1307 1.287 . S
C1307 C1306 1.287 . S
C1307 C1308 1.524 . S
C1307 H1310 0.999 . S
C1308 H1278 0.950 . S
C1308 C1307 1.524 . S
C1308 C1309 1.415 . S
C1309 H1279 0.950 . S
C1309 C1304 1.363 . S
C1309 C1308 1.415 . S
H1310 C1307 0.999 . S
H1311 C1292 0.913 . S
H1312 C1330 0.951 . S
H1313 C1332 0.951 . S
H1314 C1334 0.950 . S
H1315 C1335 0.950 . S
H1316 C1337 0.950 . S
H1317 C1340 0.950 . S
H1318 C1341 0.950 . S
H1319 C1343 0.950 . S
H1320 C1344 0.950 . S
H1321 C1345 0.951 . S
H1322 C1347 0.951 . S
H1323 C1349 0.950 . S
H1324 C1350 0.950 . S
H1325 C1352 0.965 . S
H1326 C1355 0.950 . S
H1327 C1356 0.950 . S
H1328 C1358 0.950 . S
H1329 C1359 0.950 . S
C1330 H1312 0.951 . S
C1330 C1331 1.366 . S
C1330 C1332 1.388 . S
C1331 C1330 1.366 . S
C1331 C1335 1.385 . S
C1332 H1313 0.951 . S
C1332 C1330 1.388 . S
C1332 C1333 1.366 . S
C1333 C1332 1.366 . S
C1333 C1334 1.414 . S
C1333 C1336 1.499 . S
C1334 H1314 0.950 . S
C1334 C1333 1.414 . S
C1334 C1335 1.374 . S
C1335 H1315 0.950 . S
C1335 C1331 1.385 . S
C1335 C1334 1.374 . S
C1336 C1333 1.499 . S
C1336 C1337 1.373 . S
C1336 C1338 1.389 . S
C1337 H1316 0.950 . S
C1337 C1336 1.373 . S
C1337 C1353 1.377 . S
C1338 C1336 1.389 . S
C1338 C1339 1.524 . S
C1338 C1352 1.377 . S
C1339 C1338 1.524 . S
C1339 C1340 1.397 . S
C1339 C1344 1.363 . S
C1340 H1317 0.950 . S
C1340 C1339 1.397 . S
C1340 C1341 1.334 . S
C1341 H1318 0.950 . S
C1341 C1340 1.334 . S
C1341 C1342 1.287 . S
C1342 C1341 1.287 . S
C1342 C1343 1.524 . S
C1342 H1361 0.913 . S
C1343 H1319 0.950 . S
C1343 C1342 1.524 . S
C1343 C1344 1.415 . S
C1344 H1320 0.950 . S
C1344 C1339 1.363 . S
C1344 C1343 1.415 . S
C1345 H1321 0.951 . S
C1345 C1346 1.366 . S
C1345 C1347 1.388 . S
C1346 C1345 1.366 . S
C1346 C1350 1.385 . S
C1347 H1322 0.951 . S
C1347 C1345 1.388 . S
C1347 C1348 1.366 . S
C1348 C1347 1.366 . S
C1348 C1349 1.414 . S
C1348 C1351 1.499 1_655 S
C1349 H1323 0.950 . S
C1349 C1348 1.414 . S
C1349 C1350 1.374 . S
C1350 H1324 0.950 . S
C1350 C1346 1.385 . S
C1350 C1349 1.374 . S
C1351 C1348 1.499 1_455 S
C1351 C1352 1.373 . S
C1351 C1353 1.389 . S
C1352 H1325 0.965 . S
C1352 C1338 1.377 . S
C1352 C1351 1.373 . S
C1353 C1337 1.377 . S
C1353 C1351 1.389 . S
C1353 C1354 1.524 . S
C1354 C1353 1.524 . S
C1354 C1355 1.397 . S
C1354 C1359 1.363 . S
C1355 H1326 0.950 . S
C1355 C1354 1.397 . S
C1355 C1356 1.334 . S
C1356 H1327 0.950 . S
C1356 C1355 1.334 . S
C1356 C1357 1.287 . S
C1357 C1356 1.287 . S
C1357 C1358 1.524 . S
C1357 H1360 0.999 . S
C1358 H1328 0.950 . S
C1358 C1357 1.524 . S
C1358 C1359 1.415 . S
C1359 H1329 0.950 . S
C1359 C1354 1.363 . S
C1359 C1358 1.415 . S
H1360 C1357 0.999 . S
H1361 C1342 0.913 . S
H1362 C1380 0.951 . S
H1363 C1382 0.951 . S
H1364 C1384 0.950 . S
H1365 C1385 0.950 . S
H1366 C1387 0.950 . S
H1367 C1390 0.950 . S
H1368 C1391 0.950 . S
H1369 C1393 0.950 . S
H1370 C1394 0.972 . S
H1371 C1395 0.951 . S
H1372 C1397 0.951 . S
H1373 C1399 0.950 . S
H1374 C1400 0.950 . S
H1375 C1402 0.950 1_655 S
H1376 C1405 0.950 . S
H1377 C1406 0.950 . S
H1378 C1408 0.950 . S
H1379 C1409 0.950 . S
C1380 H1362 0.951 . S
C1380 C1381 1.366 . S
C1380 C1382 1.388 . S
C1381 C1380 1.366 . S
C1381 C1385 1.385 . S
C1382 H1363 0.951 . S
C1382 C1380 1.388 . S
C1382 C1383 1.366 . S
C1383 C1382 1.366 . S
C1383 C1384 1.414 . S
C1383 C1386 1.499 . S
C1384 H1364 0.950 . S
C1384 C1383 1.414 . S
C1384 C1385 1.374 . S
C1385 H1365 0.950 . S
C1385 C1381 1.385 . S
C1385 C1384 1.374 . S
C1386 C1383 1.499 . S
C1386 C1387 1.373 . S
C1386 C1388 1.389 . S
C1387 H1366 0.950 . S
C1387 C1386 1.373 . S
C1387 C1403 1.377 . S
C1388 C1386 1.389 . S
C1388 C1389 1.524 . S
C1388 C1402 1.377 . S
C1389 C1388 1.524 . S
C1389 C1390 1.397 . S
C1389 C1394 1.347 1_455 S
C1390 H1367 0.950 . S
C1390 C1389 1.397 . S
C1390 C1391 1.334 . S
C1391 H1368 0.950 . S
C1391 C1390 1.334 . S
C1391 C1392 1.287 . S
C1392 C1391 1.287 . S
C1392 C1393 1.524 1_455 S
C1392 H1411 0.913 1_455 S
C1393 H1369 0.950 . S
C1393 C1392 1.524 1_655 S
C1393 C1394 1.410 . S
C1394 H1370 0.972 . S
C1394 C1389 1.347 1_655 S
C1394 C1393 1.410 . S
C1395 H1371 0.951 . S
C1395 C1396 1.366 . S
C1395 C1397 1.388 1_655 S
C1396 C1395 1.366 . S
C1396 C1400 1.385 . S
C1397 H1372 0.951 . S
C1397 C1395 1.388 1_455 S
C1397 C1398 1.373 1_455 S
C1398 C1397 1.373 1_655 S
C1398 C1399 1.442 . S
C1398 C1401 1.466 1_655 S
C1399 H1373 0.950 . S
C1399 C1398 1.442 . S
C1399 C1400 1.374 . S
C1400 H1374 0.950 . S
C1400 C1396 1.385 . S
C1400 C1399 1.374 . S
C1401 C1398 1.466 1_455 S
C1401 C1402 1.373 . S
C1401 C1403 1.389 . S
C1402 H1375 0.950 1_455 S
C1402 C1388 1.377 . S
C1402 C1401 1.373 . S
C1403 C1387 1.377 . S
C1403 C1401 1.389 . S
C1403 C1404 1.524 . S
C1404 C1403 1.524 . S
C1404 C1405 1.397 . S
C1404 C1409 1.363 . S
C1405 H1376 0.950 . S
C1405 C1404 1.397 . S
C1405 C1406 1.334 . S
C1406 H1377 0.950 . S
C1406 C1405 1.334 . S
C1406 C1407 1.287 . S
C1407 C1406 1.287 . S
C1407 C1408 1.524 . S
C1407 H1410 0.999 . S
C1408 H1378 0.950 . S
C1408 C1407 1.524 . S
C1408 C1409 1.415 . S
C1409 H1379 0.950 . S
C1409 C1404 1.363 . S
C1409 C1408 1.415 . S
H1410 C1407 0.999 . S
H1411 C1392 0.913 1_655 S
H1412 C1430 0.951 . S
H1413 C1432 0.951 . S
H1414 C1434 0.950 . S
H1415 C1435 0.950 . S
H1416 C1437 0.950 . S
H1417 C1440 0.950 . S
H1418 C1441 0.950 . S
H1419 C1443 0.950 . S
H1420 C1444 0.950 . S
H1421 C1445 0.951 . S
H1422 C1447 0.951 . S
H1423 C1449 0.950 . S
H1424 C1450 0.950 . S
H1425 C1452 0.950 . S
H1426 C1455 0.950 . S
H1427 C1456 0.950 . S
H1428 C1458 0.950 . S
H1429 C1459 0.950 . S
C1430 H1412 0.951 . S
C1430 C1431 1.366 . S
C1430 C1432 1.388 . S
C1431 C1430 1.366 . S
C1431 C1435 1.385 . S
C1432 H1413 0.951 . S
C1432 C1430 1.388 . S
C1432 C1433 1.366 . S
C1433 C1432 1.366 . S
C1433 C1434 1.414 . S
C1433 C1436 1.499 . S
C1434 H1414 0.950 . S
C1434 C1433 1.414 . S
C1434 C1435 1.374 . S
C1435 H1415 0.950 . S
C1435 C1431 1.385 . S
C1435 C1434 1.374 . S
C1436 C1433 1.499 . S
C1436 C1437 1.373 . S
C1436 C1438 1.389 . S
C1437 H1416 0.950 . S
C1437 C1436 1.373 . S
C1437 C1453 1.377 . S
C1438 C1436 1.389 . S
C1438 C1439 1.524 . S
C1438 C1452 1.377 . S
C1439 C1438 1.524 . S
C1439 C1440 1.397 . S
C1439 C1444 1.363 . S
C1440 H1417 0.950 . S
C1440 C1439 1.397 . S
C1440 C1441 1.334 . S
C1441 H1418 0.950 . S
C1441 C1440 1.334 . S
C1441 C1442 1.287 . S
C1442 C1441 1.287 . S
C1442 C1443 1.524 . S
C1442 H1461 0.913 . S
C1443 H1419 0.950 . S
C1443 C1442 1.524 . S
C1443 C1444 1.415 . S
C1444 H1420 0.950 . S
C1444 C1439 1.363 . S
C1444 C1443 1.415 . S
C1445 H1421 0.951 . S
C1445 C1446 1.366 . S
C1445 C1447 1.388 . S
C1446 C1445 1.366 . S
C1446 C1450 1.385 . S
C1447 H1422 0.951 . S
C1447 C1445 1.388 . S
C1447 C1448 1.366 . S
C1448 C1447 1.366 . S
C1448 C1449 1.414 . S
C1448 C1451 1.499 . S
C1449 H1423 0.950 . S
C1449 C1448 1.414 . S
C1449 C1450 1.374 . S
C1450 H1424 0.950 . S
C1450 C1446 1.385 . S
C1450 C1449 1.374 . S
C1451 C1448 1.499 . S
C1451 C1452 1.373 . S
C1451 C1453 1.389 . S
C1452 H1425 0.950 . S
C1452 C1438 1.377 . S
C1452 C1451 1.373 . S
C1453 C1437 1.377 . S
C1453 C1451 1.389 . S
C1453 C1454 1.524 . S
C1454 C1453 1.524 . S
C1454 C1455 1.397 . S
C1454 C1459 1.363 . S
C1455 H1426 0.950 . S
C1455 C1454 1.397 . S
C1455 C1456 1.334 . S
C1456 H1427 0.950 . S
C1456 C1455 1.334 . S
C1456 C1457 1.287 . S
C1457 C1456 1.287 . S
C1457 C1458 1.524 . S
C1457 H1460 0.999 . S
C1458 H1428 0.950 . S
C1458 C1457 1.524 . S
C1458 C1459 1.415 . S
C1459 H1429 0.950 . S
C1459 C1454 1.363 . S
C1459 C1458 1.415 . S
H1460 C1457 0.999 . S
H1461 C1442 0.913 . S
H1462 C1480 0.951 . S
H1463 C1482 0.962 . S
H1464 C1484 0.950 . S
H1465 C1485 0.950 . S
H1466 C1487 0.950 . S
H1467 C1490 0.950 . S
H1468 C1491 0.950 . S
H1469 C1493 0.950 . S
H1470 C1494 0.950 . S
H1471 C1495 0.951 . S
H1472 C1497 0.951 . S
H1473 C1499 0.950 . S
H1474 C1500 0.950 . S
H1475 C1502 0.950 . S
H1476 C1505 0.950 . S
H1477 C1506 0.950 . S
H1478 C1508 0.950 . S
H1479 C1509 0.950 . S
C1480 H1462 0.951 . S
C1480 C1481 1.366 . S
C1480 C1482 1.430 . S
C1481 C1480 1.366 . S
C1481 C1485 1.385 1_554 S
C1482 H1463 0.962 . S
C1482 C1480 1.430 . S
C1482 C1483 1.314 1_554 S
C1483 C1482 1.314 1_556 S
C1483 C1484 1.414 . S
C1483 C1486 1.499 . S
C1484 H1464 0.950 . S
C1484 C1483 1.414 . S
C1484 C1485 1.374 . S
C1485 H1465 0.950 . S
C1485 C1481 1.385 1_556 S
C1485 C1484 1.374 . S
C1486 C1483 1.499 . S
C1486 C1487 1.373 . S
C1486 C1488 1.389 . S
C1487 H1466 0.950 . S
C1487 C1486 1.373 . S
C1487 C1503 1.377 . S
C1488 C1486 1.389 . S
C1488 C1489 1.524 . S
C1488 C1502 1.377 . S
C1489 C1488 1.524 . S
C1489 C1490 1.397 . S
C1489 C1494 1.363 . S
C1490 H1467 0.950 . S
C1490 C1489 1.397 . S
C1490 C1491 1.334 1_556 S
C1491 H1468 0.950 . S
C1491 C1490 1.334 1_554 S
C1491 C1492 1.287 . S
C1492 C1491 1.287 . S
C1492 C1493 1.524 . S
C1492 H1511 0.913 . S
C1493 H1469 0.950 . S
C1493 C1492 1.524 . S
C1493 C1494 1.415 1_554 S
C1494 H1470 0.950 . S
C1494 C1489 1.363 . S
C1494 C1493 1.415 1_556 S
C1495 H1471 0.951 . S
C1495 C1496 1.366 . S
C1495 C1497 1.388 . S
C1496 C1495 1.366 . S
C1496 C1500 1.385 . S
C1497 H1472 0.951 . S
C1497 C1495 1.388 . S
C1497 C1498 1.366 . S
C1498 C1497 1.366 . S
C1498 C1499 1.414 . S
C1498 C1501 1.499 . S
C1499 H1473 0.950 . S
C1499 C1498 1.414 . S
C1499 C1500 1.374 . S
C1500 H1474 0.950 . S
C1500 C1496 1.385 . S
C1500 C1499 1.374 . S
C1501 C1498 1.499 . S
C1501 C1502 1.373 . S
C1501 C1503 1.389 . S
C1502 H1475 0.950 . S
C1502 C1488 1.377 . S
C1502 C1501 1.373 . S
C1503 C1487 1.377 . S
C1503 C1501 1.389 . S
C1503 C1504 1.524 . S
C1504 C1503 1.524 . S
C1504 C1505 1.397 . S
C1504 C1509 1.363 . S
C1505 H1476 0.950 . S
C1505 C1504 1.397 . S
C1505 C1506 1.334 . S
C1506 H1477 0.950 . S
C1506 C1505 1.334 . S
C1506 C1507 1.287 . S
C1507 C1506 1.287 . S
C1507 C1508 1.524 . S
C1507 H1510 0.999 . S
C1508 H1478 0.950 . S
C1508 C1507 1.524 . S
C1508 C1509 1.415 . S
C1509 H1479 0.950 . S
C1509 C1504 1.363 . S
C1509 C1508 1.415 . S
H1510 C1507 0.999 . S
H1511 C1492 0.913 . S
H1512 C1530 0.951 . S
H1513 C1532 0.951 . S
H1514 C1534 0.950 . S
H1515 C1535 0.950 . S
H1516 C1537 0.950 . S
H1517 C1540 0.950 . S
H1518 C1541 0.950 . S
H1519 C1543 0.950 . S
H1520 C1544 0.950 . S
H1521 C1545 0.951 . S
H1522 C1547 0.951 . S
H1523 C1549 0.950 . S
H1524 C1550 0.950 . S
H1525 C1552 0.950 . S
H1526 C1555 0.950 . S
H1527 C1556 0.950 . S
H1528 C1558 0.950 . S
H1529 C1559 0.950 . S
C1530 H1512 0.951 . S
C1530 C1531 1.366 . S
C1530 C1532 1.388 . S
C1531 C1530 1.366 . S
C1531 C1535 1.385 . S
C1532 H1513 0.951 . S
C1532 C1530 1.388 . S
C1532 C1533 1.366 . S
C1533 C1532 1.366 . S
C1533 C1534 1.414 . S
C1533 C1536 1.499 . S
C1534 H1514 0.950 . S
C1534 C1533 1.414 . S
C1534 C1535 1.374 . S
C1535 H1515 0.950 . S
C1535 C1531 1.385 . S
C1535 C1534 1.374 . S
C1536 C1533 1.499 . S
C1536 C1537 1.373 . S
C1536 C1538 1.389 . S
C1537 H1516 0.950 . S
C1537 C1536 1.373 . S
C1537 C1553 1.377 . S
C1538 C1536 1.389 . S
C1538 C1539 1.524 . S
C1538 C1552 1.377 . S
C1539 C1538 1.524 . S
C1539 C1540 1.397 . S
C1539 C1544 1.363 . S
C1540 H1517 0.950 . S
C1540 C1539 1.397 . S
C1540 C1541 1.334 . S
C1541 H1518 0.950 . S
C1541 C1540 1.334 . S
C1541 C1542 1.287 . S
C1542 C1541 1.287 . S
C1542 C1543 1.524 . S
C1542 H1561 0.913 . S
C1543 H1519 0.950 . S
C1543 C1542 1.524 . S
C1543 C1544 1.415 . S
C1544 H1520 0.950 . S
C1544 C1539 1.363 . S
C1544 C1543 1.415 . S
C1545 H1521 0.951 . S
C1545 C1546 1.366 . S
C1545 C1547 1.388 . S
C1546 C1545 1.366 . S
C1546 C1550 1.385 . S
C1547 H1522 0.951 . S
C1547 C1545 1.388 . S
C1547 C1548 1.366 . S
C1548 C1547 1.366 . S
C1548 C1549 1.414 . S
C1548 C1551 1.499 . S
C1549 H1523 0.950 . S
C1549 C1548 1.414 . S
C1549 C1550 1.374 . S
C1550 H1524 0.950 . S
C1550 C1546 1.385 . S
C1550 C1549 1.374 . S
C1551 C1548 1.499 . S
C1551 C1552 1.373 . S
C1551 C1553 1.389 . S
C1552 H1525 0.950 . S
C1552 C1538 1.377 . S
C1552 C1551 1.373 . S
C1553 C1537 1.377 . S
C1553 C1551 1.389 . S
C1553 C1554 1.524 . S
C1554 C1553 1.524 . S
C1554 C1555 1.397 . S
C1554 C1559 1.363 . S
C1555 H1526 0.950 . S
C1555 C1554 1.397 . S
C1555 C1556 1.334 . S
C1556 H1527 0.950 . S
C1556 C1555 1.334 . S
C1556 C1557 1.287 . S
C1557 C1556 1.287 . S
C1557 C1558 1.524 . S
C1557 H1560 0.999 . S
C1558 H1528 0.950 . S
C1558 C1557 1.524 . S
C1558 C1559 1.415 . S
C1559 H1529 0.950 . S
C1559 C1554 1.363 . S
C1559 C1558 1.415 . S
H1560 C1557 0.999 . S
H1561 C1542 0.913 . S
H1562 C1580 0.951 . S
H1563 C1582 0.951 . S
H1564 C1584 0.950 . S
H1565 C1585 0.950 . S
H1566 C1587 0.950 . S
H1567 C1590 0.950 1_554 S
H1568 C1591 0.950 1_554 S
H1569 C1593 0.950 . S
H1570 C1594 0.950 . S
H1571 C1595 0.951 . S
H1572 C1597 0.951 . S
H1573 C1599 0.950 . S
H1574 C1600 0.950 . S
H1575 C1602 0.950 . S
H1576 C1605 0.950 . S
H1577 C1606 0.950 . S
H1578 C1608 0.950 . S
H1579 C1609 0.945 1_554 S
C1580 H1562 0.951 . S
C1580 C1581 1.366 . S
C1580 C1582 1.388 1_554 S
C1581 C1580 1.366 . S
C1581 C1585 1.385 . S
C1582 H1563 0.951 . S
C1582 C1580 1.388 1_556 S
C1582 C1583 1.366 1_556 S
C1583 C1582 1.366 1_554 S
C1583 C1584 1.414 . S
C1583 C1586 1.499 1_554 S
C1584 H1564 0.950 . S
C1584 C1583 1.414 . S
C1584 C1585 1.374 . S
C1585 H1565 0.950 . S
C1585 C1581 1.385 . S
C1585 C1584 1.374 . S
C1586 C1583 1.499 1_556 S
C1586 C1587 1.373 . S
C1586 C1588 1.389 . S
C1587 H1566 0.950 . S
C1587 C1586 1.373 . S
C1587 C1603 1.377 . S
C1588 C1586 1.389 . S
C1588 C1589 1.524 . S
C1588 C1602 1.377 . S
C1589 C1588 1.524 . S
C1589 C1590 1.397 . S
C1589 C1594 1.363 . S
C1590 H1567 0.950 1_556 S
C1590 C1589 1.397 . S
C1590 C1591 1.334 . S
C1591 H1568 0.950 1_556 S
C1591 C1590 1.334 . S
C1591 C1592 1.287 . S
C1592 C1591 1.287 . S
C1592 C1593 1.524 . S
C1592 H1611 0.924 . S
C1593 H1569 0.950 . S
C1593 C1592 1.524 . S
C1593 C1594 1.415 . S
C1594 H1570 0.950 . S
C1594 C1589 1.363 . S
C1594 C1593 1.415 . S
C1595 H1571 0.951 . S
C1595 C1596 1.366 . S
C1595 C1597 1.388 . S
C1596 C1595 1.366 . S
C1596 C1600 1.385 . S
C1597 H1572 0.951 . S
C1597 C1595 1.388 . S
C1597 C1598 1.366 . S
C1598 C1597 1.366 . S
C1598 C1599 1.414 . S
C1598 C1601 1.499 . S
C1599 H1573 0.950 . S
C1599 C1598 1.414 . S
C1599 C1600 1.374 . S
C1600 H1574 0.950 . S
C1600 C1596 1.385 . S
C1600 C1599 1.374 . S
C1601 C1598 1.499 . S
C1601 C1602 1.373 . S
C1601 C1603 1.389 . S
C1602 H1575 0.950 . S
C1602 C1588 1.377 . S
C1602 C1601 1.373 . S
C1603 C1587 1.377 . S
C1603 C1601 1.389 . S
C1603 C1604 1.524 . S
C1604 C1603 1.524 . S
C1604 C1605 1.397 . S
C1604 C1609 1.363 . S
C1605 H1576 0.950 . S
C1605 C1604 1.397 . S
C1605 C1606 1.334 . S
C1606 H1577 0.950 . S
C1606 C1605 1.334 . S
C1606 C1607 1.287 . S
C1607 C1606 1.287 . S
C1607 C1608 1.524 . S
C1607 H1610 0.999 . S
C1608 H1578 0.950 . S
C1608 C1607 1.524 . S
C1608 C1609 1.415 . S
C1609 H1579 0.945 1_556 S
C1609 C1604 1.363 . S
C1609 C1608 1.415 . S
H1610 C1607 0.999 . S
H1611 C1592 0.924 . S
H1612 C1630 0.951 . S
H1613 C1632 0.951 . S
H1614 C1634 0.950 . S
H1615 C1635 0.950 . S
H1616 C1637 0.950 . S
H1617 C1640 0.950 . S
H1618 C1641 0.950 . S
H1619 C1643 0.950 . S
H1620 C1644 0.950 . S
H1621 C1645 0.951 . S
H1622 C1647 0.951 . S
H1623 C1649 0.950 . S
H1624 C1650 0.950 . S
H1625 C1652 0.950 . S
H1626 C1655 0.950 . S
H1627 C1656 0.950 . S
H1628 C1658 0.950 . S
H1629 C1659 0.950 . S
C1630 H1612 0.951 . S
C1630 C1631 1.366 . S
C1630 C1632 1.388 . S
C1631 C1630 1.366 . S
C1631 C1635 1.385 . S
C1632 H1613 0.951 . S
C1632 C1630 1.388 . S
C1632 C1633 1.366 . S
C1633 C1632 1.366 . S
C1633 C1634 1.414 . S
C1633 C1636 1.499 . S
C1634 H1614 0.950 . S
C1634 C1633 1.414 . S
C1634 C1635 1.374 . S
C1635 H1615 0.950 . S
C1635 C1631 1.385 . S
C1635 C1634 1.374 . S
C1636 C1633 1.499 . S
C1636 C1637 1.373 . S
C1636 C1638 1.389 . S
C1637 H1616 0.950 . S
C1637 C1636 1.373 . S
C1637 C1653 1.377 . S
C1638 C1636 1.389 . S
C1638 C1639 1.524 . S
C1638 C1652 1.377 . S
C1639 C1638 1.524 . S
C1639 C1640 1.397 . S
C1639 C1644 1.363 . S
C1640 H1617 0.950 . S
C1640 C1639 1.397 . S
C1640 C1641 1.334 . S
C1641 H1618 0.950 . S
C1641 C1640 1.334 . S
C1641 C1642 1.287 . S
C1642 C1641 1.287 . S
C1642 C1643 1.524 . S
C1642 H1661 0.913 . S
C1643 H1619 0.950 . S
C1643 C1642 1.524 . S
C1643 C1644 1.415 . S
C1644 H1620 0.950 . S
C1644 C1639 1.363 . S
C1644 C1643 1.415 . S
C1645 H1621 0.951 . S
C1645 C1646 1.366 . S
C1645 C1647 1.388 . S
C1646 C1645 1.366 . S
C1646 C1650 1.385 . S
C1647 H1622 0.951 . S
C1647 C1645 1.388 . S
C1647 C1648 1.366 . S
C1648 C1647 1.366 . S
C1648 C1649 1.414 . S
C1648 C1651 1.499 . S
C1649 H1623 0.950 . S
C1649 C1648 1.414 . S
C1649 C1650 1.374 . S
C1650 H1624 0.950 . S
C1650 C1646 1.385 . S
C1650 C1649 1.374 . S
C1651 C1648 1.499 . S
C1651 C1652 1.373 . S
C1651 C1653 1.389 . S
C1652 H1625 0.950 . S
C1652 C1638 1.377 . S
C1652 C1651 1.373 . S
C1653 C1637 1.377 . S
C1653 C1651 1.389 . S
C1653 C1654 1.524 . S
C1654 C1653 1.524 . S
C1654 C1655 1.397 . S
C1654 C1659 1.363 . S
C1655 H1626 0.950 . S
C1655 C1654 1.397 . S
C1655 C1656 1.334 . S
C1656 H1627 0.950 . S
C1656 C1655 1.334 . S
C1656 C1657 1.287 . S
C1657 C1656 1.287 . S
C1657 C1658 1.524 . S
C1657 H1660 0.999 . S
C1658 H1628 0.950 . S
C1658 C1657 1.524 . S
C1658 C1659 1.415 . S
C1659 H1629 0.950 . S
C1659 C1654 1.363 . S
C1659 C1658 1.415 . S
H1660 C1657 0.999 . S
H1661 C1642 0.913 . S
H1662 C1680 0.951 . S
H1663 C1682 0.951 . S
H1664 C1684 0.950 . S
H1665 C1685 0.950 . S
H1666 C1687 0.950 . S
H1667 C1690 0.950 . S
H1668 C1691 0.950 . S
H1669 C1693 0.950 . S
H1670 C1694 0.950 . S
H1671 C1695 0.951 . S
H1672 C1697 0.951 . S
H1673 C1699 0.950 . S
H1674 C1700 0.950 . S
H1675 C1702 0.950 . S
H1676 C1705 0.950 . S
H1677 C1706 0.950 . S
H1678 C1708 0.950 . S
H1679 C1709 0.950 . S
C1680 H1662 0.951 . S
C1680 C1681 1.366 . S
C1680 C1682 1.388 . S
C1681 C1680 1.366 . S
C1681 C1685 1.385 . S
C1682 H1663 0.951 . S
C1682 C1680 1.388 . S
C1682 C1683 1.366 . S
C1683 C1682 1.366 . S
C1683 C1684 1.414 . S
C1683 C1686 1.499 . S
C1684 H1664 0.950 . S
C1684 C1683 1.414 . S
C1684 C1685 1.374 . S
C1685 H1665 0.950 . S
C1685 C1681 1.385 . S
C1685 C1684 1.374 . S
C1686 C1683 1.499 . S
C1686 C1687 1.373 . S
C1686 C1688 1.389 . S
C1687 H1666 0.950 . S
C1687 C1686 1.373 . S
C1687 C1703 1.377 . S
C1688 C1686 1.389 . S
C1688 C1689 1.524 . S
C1688 C1702 1.377 . S
C1689 C1688 1.524 . S
C1689 C1690 1.397 . S
C1689 C1694 1.363 . S
C1690 H1667 0.950 . S
C1690 C1689 1.397 . S
C1690 C1691 1.334 . S
C1691 H1668 0.950 . S
C1691 C1690 1.334 . S
C1691 C1692 1.287 . S
C1692 C1691 1.287 . S
C1692 C1693 1.524 . S
C1692 H1711 0.913 . S
C1693 H1669 0.950 . S
C1693 C1692 1.524 . S
C1693 C1694 1.415 . S
C1694 H1670 0.950 . S
C1694 C1689 1.363 . S
C1694 C1693 1.415 . S
C1695 H1671 0.951 . S
C1695 C1696 1.366 . S
C1695 C1697 1.388 . S
C1696 C1695 1.366 . S
C1696 C1700 1.385 . S
C1697 H1672 0.951 . S
C1697 C1695 1.388 . S
C1697 C1698 1.366 . S
C1698 C1697 1.366 . S
C1698 C1699 1.414 . S
C1698 C1701 1.499 . S
C1699 H1673 0.950 . S
C1699 C1698 1.414 . S
C1699 C1700 1.374 . S
C1700 H1674 0.950 . S
C1700 C1696 1.385 . S
C1700 C1699 1.374 . S
C1701 C1698 1.499 . S
C1701 C1702 1.373 . S
C1701 C1703 1.389 . S
C1702 H1675 0.950 . S
C1702 C1688 1.377 . S
C1702 C1701 1.373 . S
C1703 C1687 1.377 . S
C1703 C1701 1.389 . S
C1703 C1704 1.524 . S
C1704 C1703 1.524 . S
C1704 C1705 1.397 . S
C1704 C1709 1.363 . S
C1705 H1676 0.950 . S
C1705 C1704 1.397 . S
C1705 C1706 1.334 . S
C1706 H1677 0.950 . S
C1706 C1705 1.334 . S
C1706 C1707 1.287 . S
C1707 C1706 1.287 . S
C1707 C1708 1.524 . S
C1707 H1710 0.999 . S
C1708 H1678 0.950 . S
C1708 C1707 1.524 . S
C1708 C1709 1.415 . S
C1709 H1679 0.950 . S
C1709 C1704 1.363 . S
C1709 C1708 1.415 . S
H1710 C1707 0.999 . S
H1711 C1692 0.913 . S
H1712 C1730 0.951 . S
H1713 C1732 0.951 . S
H1714 C1734 0.950 . S
H1715 C1735 0.950 . S
H1716 C1737 0.950 . S
H1717 C1740 0.950 . S
H1718 C1741 0.950 . S
H1719 C1743 0.950 . S
H1720 C1744 0.950 . S
H1721 C1745 0.951 . S
H1722 C1747 0.951 . S
H1723 C1749 0.950 . S
H1724 C1750 0.950 . S
H1725 C1752 0.950 . S
H1726 C1755 0.950 . S
H1727 C1756 0.950 . S
H1728 C1758 0.950 . S
H1729 C1759 0.950 . S
C1730 H1712 0.951 . S
C1730 C1731 1.366 . S
C1730 C1732 1.388 . S
C1731 C1730 1.366 . S
C1731 C1735 1.385 . S
C1732 H1713 0.951 . S
C1732 C1730 1.388 . S
C1732 C1733 1.366 . S
C1733 C1732 1.366 . S
C1733 C1734 1.414 . S
C1733 C1736 1.499 . S
C1734 H1714 0.950 . S
C1734 C1733 1.414 . S
C1734 C1735 1.374 . S
C1735 H1715 0.950 . S
C1735 C1731 1.385 . S
C1735 C1734 1.374 . S
C1736 C1733 1.499 . S
C1736 C1737 1.373 . S
C1736 C1738 1.389 . S
C1737 H1716 0.950 . S
C1737 C1736 1.373 . S
C1737 C1753 1.377 . S
C1738 C1736 1.389 . S
C1738 C1739 1.524 . S
C1738 C1752 1.377 . S
C1739 C1738 1.524 . S
C1739 C1740 1.397 . S
C1739 C1744 1.363 . S
C1740 H1717 0.950 . S
C1740 C1739 1.397 . S
C1740 C1741 1.334 . S
C1741 H1718 0.950 . S
C1741 C1740 1.334 . S
C1741 C1742 1.287 . S
C1742 C1741 1.287 . S
C1742 C1743 1.524 . S
C1742 H1761 0.913 . S
C1743 H1719 0.950 . S
C1743 C1742 1.524 . S
C1743 C1744 1.415 . S
C1744 H1720 0.950 . S
C1744 C1739 1.363 . S
C1744 C1743 1.415 . S
C1745 H1721 0.951 . S
C1745 C1746 1.366 . S
C1745 C1747 1.388 . S
C1746 C1745 1.366 . S
C1746 C1750 1.385 . S
C1747 H1722 0.951 . S
C1747 C1745 1.388 . S
C1747 C1748 1.366 . S
C1748 C1747 1.366 . S
C1748 C1749 1.414 . S
C1748 C1751 1.499 . S
C1749 H1723 0.950 . S
C1749 C1748 1.414 . S
C1749 C1750 1.374 . S
C1750 H1724 0.950 . S
C1750 C1746 1.385 . S
C1750 C1749 1.374 . S
C1751 C1748 1.499 . S
C1751 C1752 1.373 . S
C1751 C1753 1.389 . S
C1752 H1725 0.950 . S
C1752 C1738 1.377 . S
C1752 C1751 1.373 . S
C1753 C1737 1.377 . S
C1753 C1751 1.389 . S
C1753 C1754 1.524 . S
C1754 C1753 1.524 . S
C1754 C1755 1.397 . S
C1754 C1759 1.363 . S
C1755 H1726 0.950 . S
C1755 C1754 1.397 . S
C1755 C1756 1.334 . S
C1756 H1727 0.950 . S
C1756 C1755 1.334 . S
C1756 C1757 1.287 . S
C1757 C1756 1.287 . S
C1757 C1758 1.524 . S
C1757 H1760 0.999 . S
C1758 H1728 0.950 . S
C1758 C1757 1.524 . S
C1758 C1759 1.415 . S
C1759 H1729 0.950 . S
C1759 C1754 1.363 . S
C1759 C1758 1.415 . S
H1760 C1757 0.999 . S
H1761 C1742 0.913 . S
H1762 C1780 0.951 . S
H1763 C1782 0.951 . S
H1764 C1784 0.950 . S
H1765 C1785 0.950 . S
H1766 C1787 0.950 . S
H1767 C1790 0.950 . S
H1768 C1791 0.950 . S
H1769 C1793 0.950 . S
H1770 C1794 0.950 . S
H1771 C1795 0.951 . S
H1772 C1797 0.951 . S
H1773 C1799 0.950 . S
H1774 C1800 0.950 . S
H1775 C1802 0.950 . S
H1776 C1805 0.950 . S
H1777 C1806 0.950 . S
H1778 C1808 0.950 . S
H1779 C1809 0.950 . S
C1780 H1762 0.951 . S
C1780 C1781 1.366 . S
C1780 C1782 1.388 . S
C1781 C1780 1.366 . S
C1781 C1785 1.385 . S
C1782 H1763 0.951 . S
C1782 C1780 1.388 . S
C1782 C1783 1.366 . S
C1783 C1782 1.366 . S
C1783 C1784 1.414 . S
C1783 C1786 1.499 . S
C1784 H1764 0.950 . S
C1784 C1783 1.414 . S
C1784 C1785 1.374 . S
C1785 H1765 0.950 . S
C1785 C1781 1.385 . S
C1785 C1784 1.374 . S
C1786 C1783 1.499 . S
C1786 C1787 1.373 . S
C1786 C1788 1.389 . S
C1787 H1766 0.950 . S
C1787 C1786 1.373 . S
C1787 C1803 1.377 . S
C1788 C1786 1.389 . S
C1788 C1789 1.524 . S
C1788 C1802 1.377 . S
C1789 C1788 1.524 . S
C1789 C1790 1.397 . S
C1789 C1794 1.363 . S
C1790 H1767 0.950 . S
C1790 C1789 1.397 . S
C1790 C1791 1.334 . S
C1791 H1768 0.950 . S
C1791 C1790 1.334 . S
C1791 C1792 1.287 . S
C1792 C1791 1.287 . S
C1792 C1793 1.524 . S
C1792 H1811 0.913 . S
C1793 H1769 0.950 . S
C1793 C1792 1.524 . S
C1793 C1794 1.415 . S
C1794 H1770 0.950 . S
C1794 C1789 1.363 . S
C1794 C1793 1.415 . S
C1795 H1771 0.951 . S
C1795 C1796 1.366 . S
C1795 C1797 1.388 . S
C1796 C1795 1.366 . S
C1796 C1800 1.385 . S
C1797 H1772 0.951 . S
C1797 C1795 1.388 . S
C1797 C1798 1.366 . S
C1798 C1797 1.366 . S
C1798 C1799 1.414 . S
C1798 C1801 1.499 . S
C1799 H1773 0.950 . S
C1799 C1798 1.414 . S
C1799 C1800 1.374 . S
C1800 H1774 0.950 . S
C1800 C1796 1.385 . S
C1800 C1799 1.374 . S
C1801 C1798 1.499 . S
C1801 C1802 1.373 . S
C1801 C1803 1.389 . S
C1802 H1775 0.950 . S
C1802 C1788 1.377 . S
C1802 C1801 1.373 . S
C1803 C1787 1.377 . S
C1803 C1801 1.389 . S
C1803 C1804 1.524 . S
C1804 C1803 1.524 . S
C1804 C1805 1.397 . S
C1804 C1809 1.363 . S
C1805 H1776 0.950 . S
C1805 C1804 1.397 . S
C1805 C1806 1.334 . S
C1806 H1777 0.950 . S
C1806 C1805 1.334 . S
C1806 C1807 1.287 . S
C1807 C1806 1.287 . S
C1807 C1808 1.524 . S
C1807 H1810 0.999 . S
C1808 H1778 0.950 . S
C1808 C1807 1.524 . S
C1808 C1809 1.415 . S
C1809 H1779 0.950 . S
C1809 C1804 1.363 . S
C1809 C1808 1.415 . S
H1810 C1807 0.999 . S
H1811 C1792 0.913 . S
H1812 C1830 0.951 . S
H1813 C1832 0.936 . S
H1814 C1834 0.950 . S
H1815 C1835 0.950 . S
H1816 C1837 0.950 . S
H1817 C1840 0.950 . S
H1818 C1841 0.950 . S
H1819 C1843 0.950 . S
H1820 C1844 0.950 . S
H1821 C1845 0.951 . S
H1822 C1847 0.951 . S
H1823 C1849 0.950 . S
H1824 C1850 0.950 . S
H1825 C1852 0.950 . S
H1826 C1855 0.950 . S
H1827 C1856 0.950 . S
H1828 C1858 0.950 . S
H1829 C1859 0.950 . S
C1830 H1812 0.951 . S
C1830 C1831 1.367 1_545 S
C1830 C1832 1.388 1_545 S
C1831 C1830 1.367 1_565 S
C1831 C1835 1.387 . S
C1832 H1813 0.936 . S
C1832 C1830 1.388 1_565 S
C1832 C1833 1.366 . S
C1833 C1832 1.366 . S
C1833 C1834 1.414 . S
C1833 C1836 1.499 . S
C1834 H1814 0.950 . S
C1834 C1833 1.414 . S
C1834 C1835 1.374 . S
C1835 H1815 0.950 . S
C1835 C1831 1.387 . S
C1835 C1834 1.374 . S
C1836 C1833 1.499 . S
C1836 C1837 1.373 . S
C1836 C1838 1.389 . S
C1837 H1816 0.950 . S
C1837 C1836 1.373 . S
C1837 C1853 1.377 . S
C1838 C1836 1.389 . S
C1838 C1839 1.524 . S
C1838 C1852 1.377 . S
C1839 C1838 1.524 . S
C1839 C1840 1.397 . S
C1839 C1844 1.363 . S
C1840 H1817 0.950 . S
C1840 C1839 1.397 . S
C1840 C1841 1.334 . S
C1841 H1818 0.950 . S
C1841 C1840 1.334 . S
C1841 C1842 1.287 . S
C1842 C1841 1.287 . S
C1842 C1843 1.524 . S
C1842 H1861 0.913 . S
C1843 H1819 0.950 . S
C1843 C1842 1.524 . S
C1843 C1844 1.415 . S
C1844 H1820 0.950 . S
C1844 C1839 1.363 . S
C1844 C1843 1.415 . S
C1845 H1821 0.951 . S
C1845 C1846 1.366 . S
C1845 C1847 1.388 . S
C1846 C1845 1.366 . S
C1846 C1850 1.385 . S
C1847 H1822 0.951 . S
C1847 C1845 1.388 . S
C1847 C1848 1.366 . S
C1848 C1847 1.366 . S
C1848 C1849 1.414 . S
C1848 C1851 1.499 . S
C1849 H1823 0.950 . S
C1849 C1848 1.414 . S
C1849 C1850 1.374 . S
C1850 H1824 0.950 . S
C1850 C1846 1.385 . S
C1850 C1849 1.374 . S
C1851 C1848 1.499 . S
C1851 C1852 1.373 . S
C1851 C1853 1.389 . S
C1852 H1825 0.950 . S
C1852 C1838 1.377 . S
C1852 C1851 1.373 . S
C1853 C1837 1.377 . S
C1853 C1851 1.389 . S
C1853 C1854 1.524 . S
C1854 C1853 1.524 . S
C1854 C1855 1.397 . S
C1854 C1859 1.363 . S
C1855 H1826 0.950 . S
C1855 C1854 1.397 . S
C1855 C1856 1.334 . S
C1856 H1827 0.950 . S
C1856 C1855 1.334 . S
C1856 C1857 1.287 . S
C1857 C1856 1.287 . S
C1857 C1858 1.524 . S
C1857 H1860 0.999 . S
C1858 H1828 0.950 . S
C1858 C1857 1.524 . S
C1858 C1859 1.415 . S
C1859 H1829 0.950 . S
C1859 C1854 1.363 . S
C1859 C1858 1.415 . S
H1860 C1857 0.999 . S
H1861 C1842 0.913 . S
H1862 C1880 0.951 . S
H1863 C1882 0.951 . S
H1864 C1884 0.950 . S
H1865 C1885 0.950 . S
H1866 C1887 0.950 . S
H1867 C1890 0.950 . S
H1868 C1891 0.950 . S
H1869 C1893 0.950 . S
H1870 C1894 0.950 . S
H1871 C1895 0.951 . S
H1872 C1897 0.951 . S
H1873 C1899 0.950 . S
H1874 C1900 0.950 . S
H1875 C1902 0.950 . S
H1876 C1905 0.950 . S
H1877 C1906 0.950 . S
H1878 C1908 0.950 . S
H1879 C1909 0.950 . S
C1880 H1862 0.951 . S
C1880 C1881 1.366 . S
C1880 C1882 1.388 . S
C1881 C1880 1.366 . S
C1881 C1885 1.385 . S
C1882 H1863 0.951 . S
C1882 C1880 1.388 . S
C1882 C1883 1.366 . S
C1883 C1882 1.366 . S
C1883 C1884 1.414 . S
C1883 C1886 1.499 . S
C1884 H1864 0.950 . S
C1884 C1883 1.414 . S
C1884 C1885 1.374 . S
C1885 H1865 0.950 . S
C1885 C1881 1.385 . S
C1885 C1884 1.374 . S
C1886 C1883 1.499 . S
C1886 C1887 1.373 . S
C1886 C1888 1.389 . S
C1887 H1866 0.950 . S
C1887 C1886 1.373 . S
C1887 C1903 1.377 . S
C1888 C1886 1.389 . S
C1888 C1889 1.524 . S
C1888 C1902 1.377 . S
C1889 C1888 1.524 . S
C1889 C1890 1.397 . S
C1889 C1894 1.363 . S
C1890 H1867 0.950 . S
C1890 C1889 1.397 . S
C1890 C1891 1.334 . S
C1891 H1868 0.950 . S
C1891 C1890 1.334 . S
C1891 C1892 1.287 . S
C1892 C1891 1.287 . S
C1892 C1893 1.524 . S
C1892 H1911 0.913 . S
C1893 H1869 0.950 . S
C1893 C1892 1.524 . S
C1893 C1894 1.415 . S
C1894 H1870 0.950 . S
C1894 C1889 1.363 . S
C1894 C1893 1.415 . S
C1895 H1871 0.951 . S
C1895 C1896 1.366 . S
C1895 C1897 1.388 . S
C1896 C1895 1.366 . S
C1896 C1900 1.385 . S
C1897 H1872 0.951 . S
C1897 C1895 1.388 . S
C1897 C1898 1.366 . S
C1898 C1897 1.366 . S
C1898 C1899 1.414 . S
C1898 C1901 1.499 . S
C1899 H1873 0.950 . S
C1899 C1898 1.414 . S
C1899 C1900 1.374 . S
C1900 H1874 0.950 . S
C1900 C1896 1.385 . S
C1900 C1899 1.374 . S
C1901 C1898 1.499 . S
C1901 C1902 1.373 . S
C1901 C1903 1.389 . S
C1902 H1875 0.950 . S
C1902 C1888 1.377 . S
C1902 C1901 1.373 . S
C1903 C1887 1.377 . S
C1903 C1901 1.389 . S
C1903 C1904 1.524 . S
C1904 C1903 1.524 . S
C1904 C1905 1.397 . S
C1904 C1909 1.363 . S
C1905 H1876 0.950 . S
C1905 C1904 1.397 . S
C1905 C1906 1.334 . S
C1906 H1877 0.950 . S
C1906 C1905 1.334 . S
C1906 C1907 1.287 . S
C1907 C1906 1.287 . S
C1907 C1908 1.524 . S
C1907 H1910 0.999 . S
C1908 H1878 0.950 . S
C1908 C1907 1.524 . S
C1908 C1909 1.415 . S
C1909 H1879 0.950 . S
C1909 C1904 1.363 . S
C1909 C1908 1.415 . S
H1910 C1907 0.999 . S
H1911 C1892 0.913 . S
H1912 C1930 0.951 . S
H1913 C1932 0.951 . S
H1914 C1934 0.950 . S
H1915 C1935 0.950 . S
H1916 C1937 0.950 . S
H1917 C1940 0.950 . S
H1918 C1941 0.950 . S
H1919 C1943 0.950 . S
H1920 C1944 0.950 . S
H1921 C1945 0.951 . S
H1922 C1947 0.951 . S
H1923 C1949 0.950 . S
H1924 C1950 0.950 . S
H1925 C1952 0.950 . S
H1926 C1955 0.950 . S
H1927 C1956 0.950 . S
H1928 C1958 0.950 . S
H1929 C1959 0.950 . S
C1930 H1912 0.951 . S
C1930 C1931 1.366 . S
C1930 C1932 1.388 . S
C1931 C1930 1.366 . S
C1931 C1935 1.385 . S
C1932 H1913 0.951 . S
C1932 C1930 1.388 . S
C1932 C1933 1.366 . S
C1933 C1932 1.366 . S
C1933 C1934 1.414 . S
C1933 C1936 1.499 . S
C1934 H1914 0.950 . S
C1934 C1933 1.414 . S
C1934 C1935 1.374 . S
C1935 H1915 0.950 . S
C1935 C1931 1.385 . S
C1935 C1934 1.374 . S
C1936 C1933 1.499 . S
C1936 C1937 1.373 . S
C1936 C1938 1.389 . S
C1937 H1916 0.950 . S
C1937 C1936 1.373 . S
C1937 C1953 1.377 . S
C1938 C1936 1.389 . S
C1938 C1939 1.524 . S
C1938 C1952 1.377 . S
C1939 C1938 1.524 . S
C1939 C1940 1.397 . S
C1939 C1944 1.363 . S
C1940 H1917 0.950 . S
C1940 C1939 1.397 . S
C1940 C1941 1.334 . S
C1941 H1918 0.950 . S
C1941 C1940 1.334 . S
C1941 C1942 1.287 . S
C1942 C1941 1.287 . S
C1942 C1943 1.524 . S
C1942 H1961 0.913 . S
C1943 H1919 0.950 . S
C1943 C1942 1.524 . S
C1943 C1944 1.415 . S
C1944 H1920 0.950 . S
C1944 C1939 1.363 . S
C1944 C1943 1.415 . S
C1945 H1921 0.951 . S
C1945 C1946 1.366 . S
C1945 C1947 1.388 . S
C1946 C1945 1.366 . S
C1946 C1950 1.385 . S
C1947 H1922 0.951 . S
C1947 C1945 1.388 . S
C1947 C1948 1.366 . S
C1948 C1947 1.366 . S
C1948 C1949 1.414 . S
C1948 C1951 1.499 . S
C1949 H1923 0.950 . S
C1949 C1948 1.414 . S
C1949 C1950 1.374 . S
C1950 H1924 0.950 . S
C1950 C1946 1.385 . S
C1950 C1949 1.374 . S
C1951 C1948 1.499 . S
C1951 C1952 1.373 . S
C1951 C1953 1.389 . S
C1952 H1925 0.950 . S
C1952 C1938 1.377 . S
C1952 C1951 1.373 . S
C1953 C1937 1.377 . S
C1953 C1951 1.389 . S
C1953 C1954 1.524 . S
C1954 C1953 1.524 . S
C1954 C1955 1.397 . S
C1954 C1959 1.363 . S
C1955 H1926 0.950 . S
C1955 C1954 1.397 . S
C1955 C1956 1.334 . S
C1956 H1927 0.950 . S
C1956 C1955 1.334 . S
C1956 C1957 1.287 . S
C1957 C1956 1.287 . S
C1957 C1958 1.524 . S
C1957 H1960 0.999 . S
C1958 H1928 0.950 . S
C1958 C1957 1.524 . S
C1958 C1959 1.415 . S
C1959 H1929 0.950 . S
C1959 C1954 1.363 . S
C1959 C1958 1.415 . S
H1960 C1957 0.999 . S
H1961 C1942 0.913 . S
C781 C39 2.243 . S
C796 C381 2.189 . S
C831 C91 1.376 . S
C846 C455 1.350 . S
C896 C505 1.721 . S
C881 C128 1.769 . S
C946 C591 1.022 . S
C931 C188 1.021 . S
C996 C683 1.967 . S
C981 C250 1.965 . S
C1046 C727 1.931 . S
C1031 C304 1.972 . S
C1081 C75 1.036 . S
C1096 C529 0.997 . S
C1131 C144 2.620 . S
C1146 C609 2.603 . S
C1196 C665 1.407 . S
C1181 C198 1.402 . S
C1246 C751 1.246 . S
C1231 C234 1.269 . S
C1281 C294 2.061 . S
C1296 C357 1.972 . S
C1346 C431 1.883 . S
C1331 C29 1.901 . S
C1396 C603 1.921 . S
C1381 C38 2.067 . S
C1431 C92 2.140 . S
C1446 C653 2.018 . S
C1496 C757 2.280 . S
C1481 C135 2.365 . S
C1531 C181 1.240 . S
C1546 C369 1.220 . S
C1581 C251 1.820 . S
C1596 C443 1.765 . S
C1631 C303 2.490 . S
C1646 C535 2.403 . S
C1681 C82 1.763 . S
C1696 C739 1.692 . S
C1746 C387 2.357 . S
C1731 C145 2.379 . S
C1781 C197 2.342 . S
C1796 C461 2.261 . S
C1831 C241 1.432 1_565 S
C1846 C517 1.366 . S
C1881 C287 1.499 . S
C1896 C579 1.390 . S
C1931 C22 1.876 . S
C1946 C677 1.794 . S
