# Generated by pormake.
# Topology anh, (6,3)-cn, num edge types: 1
# Building blocks:
#     Node 0, Type 0, BuildingBlock: NUHQIS_clean_sbu_0, # of connection points: 6
#     Node 1, Type 0, BuildingBlock: NUHQIS_clean_sbu_0, # of connection points: 6
#     Node 2, Type 0, BuildingBlock: NUHQIS_clean_sbu_0, # of connection points: 6
#     Node 3, Type 1, BuildingBlock: KAKCAD_clean_linker_0, # of connection points: 3
#     Node 4, Type 1, BuildingBlock: KAKCAD_clean_linker_0, # of connection points: 3
#     Node 5, Type 1, BuildingBlock: KAKCAD_clean_linker_0, # of connection points: 3
#     Node 6, Type 1, BuildingBlock: KAKCAD_clean_linker_0, # of connection points: 3
#     Node 7, Type 1, BuildingBlock: KAKCAD_clean_linker_0, # of connection points: 3
#     Node 8, Type 1, BuildingBlock: KAKCAD_clean_linker_0, # of connection points: 3
#     Edge 9, Type (0, 1), BuildingBlock: XIVTED_clean_linker_0, # of connection points: 2
#     Edge 10, Type (0, 1), BuildingBlock: XIVTED_clean_linker_0, # of connection points: 2
#     Edge 11, Type (0, 1), BuildingBlock: XIVTED_clean_linker_0, # of connection points: 2
#     Edge 12, Type (0, 1), BuildingBlock: XIVTED_clean_linker_0, # of connection points: 2
#     Edge 13, Type (0, 1), BuildingBlock: XIVTED_clean_linker_0, # of connection points: 2
#     Edge 14, Type (0, 1), BuildingBlock: XIVTED_clean_linker_0, # of connection points: 2
#     Edge 15, Type (0, 1), BuildingBlock: XIVTED_clean_linker_0, # of connection points: 2
#     Edge 16, Type (0, 1), BuildingBlock: XIVTED_clean_linker_0, # of connection points: 2
#     Edge 17, Type (0, 1), BuildingBlock: XIVTED_clean_linker_0, # of connection points: 2
#     Edge 18, Type (0, 1), BuildingBlock: XIVTED_clean_linker_0, # of connection points: 2
#     Edge 19, Type (0, 1), BuildingBlock: XIVTED_clean_linker_0, # of connection points: 2
#     Edge 20, Type (0, 1), BuildingBlock: XIVTED_clean_linker_0, # of connection points: 2
#     Edge 21, Type (0, 1), BuildingBlock: XIVTED_clean_linker_0, # of connection points: 2
#     Edge 22, Type (0, 1), BuildingBlock: XIVTED_clean_linker_0, # of connection points: 2
#     Edge 23, Type (0, 1), BuildingBlock: XIVTED_clean_linker_0, # of connection points: 2
#     Edge 24, Type (0, 1), BuildingBlock: XIVTED_clean_linker_0, # of connection points: 2
#     Edge 25, Type (0, 1), BuildingBlock: XIVTED_clean_linker_0, # of connection points: 2
#     Edge 26, Type (0, 1), BuildingBlock: XIVTED_clean_linker_0, # of connection points: 2
# Relax obj value: 0.237
# Max RMSD: 0.188
# Mean RMSD: 0.155
data_MOF--net-anh--node1-NUHQIS_clean_sbu_0--node2-KAKCAD_clean_linker_0--edge1-XIVTED_clean_linker_0
_symmetry_space_group_name_H-M    P1
_symmetry_Int_Tables_number       1
_symmetry_cell_setting            triclinic
loop_
_symmetry_equiv_pos_as_xyz
'x, y, z'
_cell_length_a     35.952419
_cell_length_b     35.868366
_cell_length_c     67.16587
_cell_angle_alpha  92.638189
_cell_angle_beta   91.296581
_cell_angle_gamma 119.88525
loop_
_atom_site_label
_atom_site_type_symbol
_atom_site_fract_x
_atom_site_fract_y
_atom_site_fract_z
_atom_type_partial_charge
Tb0 Tb 0.20829 0.65318 0.16699 0.0
Eu1 Eu 0.16195 0.70988 0.15808 0.0
C2 C 0.17998 0.69128 0.20218 0.0
C3 C 1.10599 0.6071 0.16403 0.0
C4 C 0.27443 0.59756 0.17867 0.0
C5 C 0.29013 0.54893 0.19633 0.0
C6 C 0.26488 0.56795 0.1934 0.0
C7 C 0.31215 0.61113 0.16836 0.0
C8 C 0.33739 0.59211 0.17128 0.0
C9 C 0.32521 0.55904 0.18448 0.0
C10 C 0.24019 0.60518 0.17106 0.0
O11 O 0.18332 0.64027 0.13595 0.0
O12 O 0.19403 0.70662 0.13037 0.0
O13 O 0.23077 0.75998 0.16655 0.0
O14 O 0.26334 0.71842 0.16495 0.0
C15 C 0.19075 0.67029 0.12364 0.0
O16 O 0.12133 0.72349 0.13867 0.0
O17 O 0.14726 0.76018 0.16708 0.0
O18 O 0.15192 0.69225 0.18976 0.0
O19 O 0.21072 0.68472 0.19588 0.0
O20 O 0.14079 0.60859 0.17156 0.0
O21 O 1.10764 0.64016 0.15548 0.0
C22 C 0.26543 0.7563 0.16678 0.0
O23 O 0.2147 0.60834 0.18365 0.0
O24 O 0.24759 0.62981 0.15621 0.0
C25 C 1.07399 0.7333 0.15839 0.0
C26 C 0.98589 0.6817 0.1644 0.0
C27 C 0.99962 0.70636 0.1476 0.0
C28 C 1.04343 0.73191 0.14459 0.0
C29 C 1.06026 0.71163 0.17601 0.0
C30 C 1.01661 0.68617 0.17901 0.0
C31 C 0.11813 0.74841 0.15251 0.0
H32 H 0.28037 0.52408 0.20684 0.0
H33 H 0.23586 0.55674 0.2015 0.0
H34 H 0.32027 0.63373 0.15684 0.0
H35 H 0.36408 0.60054 0.16182 0.0
H36 H 0.97665 0.70329 0.136 0.0
H37 H 1.05334 0.74787 0.1308 0.0
H38 H 1.08312 0.71175 0.18685 0.0
H39 H 1.00693 0.668 0.19222 0.0
Tb40 Tb 0.72718 0.15307 0.5041 0.0
Eu41 Eu 0.62534 0.1043 0.49223 0.0
C42 C 0.66105 0.12097 0.53692 0.0
C43 C 0.6754 1.05171 0.50042 0.0
C44 C 0.82849 0.24817 0.50974 0.0
C45 C 0.83899 0.31786 0.52199 0.0
C46 C 0.83449 0.27782 0.52569 0.0
C47 C 0.83323 0.2618 0.49019 0.0
C48 C 0.83787 0.3018 0.48652 0.0
C49 C 0.83804 0.32903 0.50229 0.0
C50 C 0.80554 0.20154 0.51297 0.0
O51 O 0.72188 0.16567 0.47274 0.0
O52 O 0.65656 0.10692 0.46359 0.0
O53 O 0.64911 0.17412 0.4864 0.0
O54 O 0.70668 0.20082 0.5088 0.0
C55 C 0.69349 0.13877 0.45888 0.0
O56 O 0.56785 1.05234 0.47651 0.0
O57 O 0.56284 0.0989 0.49626 0.0
O58 O 0.63556 0.12591 0.52457 0.0
O59 O 0.69516 0.12068 0.53059 0.0
O60 O 0.71178 0.08664 0.49704 0.0
O61 O 0.63984 1.05324 0.50271 0.0
C62 C 0.67934 0.20635 0.49776 0.0
O63 O 0.77611 0.19015 0.52602 0.0
O64 O 0.79131 0.17518 0.49698 0.0
C65 C 0.50766 1.02709 0.49607 0.0
C66 C 0.44065 0.95853 0.51451 0.0
C67 C 0.43276 0.98679 0.50368 0.0
C68 C 0.46604 1.02077 0.4945 0.0
C69 C 0.51613 1.00012 0.50754 0.0
C70 C 0.48278 0.96587 0.51659 0.0
C71 C 0.54216 1.06206 0.48591 0.0
H72 H 0.83951 0.33834 0.53449 0.0
H73 H 0.83127 0.26836 0.54093 0.0
H74 H 0.82944 0.24017 0.47752 0.0
H75 H 0.83872 0.31028 0.4712 0.0
H76 H 0.40049 0.9815 0.50154 0.0
H77 H 0.45913 1.04158 0.48586 0.0
H78 H 0.54836 1.00507 0.50917 0.0
H79 H 0.48975 0.94468 0.52489 0.0
Tb80 Tb 0.69076 0.60823 0.83955 0.0
Eu81 Eu 0.64293 0.50805 0.82193 0.0
C82 C 0.65765 0.53219 0.86929 0.0
C83 C 0.7442 0.56185 0.83292 0.0
C84 C 0.71322 0.71853 0.84245 0.0
C85 C 0.69119 0.77196 0.84786 0.0
C86 C 0.70902 0.74811 0.85521 0.0
C87 C 0.70137 0.7146 0.82208 0.0
C88 C 0.68374 0.73844 0.81473 0.0
C89 C 0.67727 0.76645 0.82764 0.0
C90 C 0.72209 0.68649 0.85084 0.0
O91 O 0.7021 0.61121 0.80755 0.0
O92 O 0.64471 0.54642 0.79633 0.0
O93 O 0.59166 0.51959 0.8351 0.0
O94 O 0.62572 0.59075 0.8291 0.0
C95 C 0.67514 0.58527 0.79306 0.0
O96 O 0.63604 0.44382 0.82054 0.0
O97 O 0.59572 0.45723 0.80114 0.0
O98 O 0.65062 0.50386 0.85458 0.0
O99 O 0.66888 0.57246 0.86642 0.0
O100 O 0.73671 0.58662 0.84527 0.0
O101 O 0.71489 0.53603 0.81906 0.0
C102 C 0.59062 0.55536 0.83312 0.0
O103 O 0.68909 0.65526 0.85864 0.0
O104 O 0.74192 0.67206 0.83958 0.0
C105 C 0.56502 0.38709 0.81274 0.0
C106 C 0.49199 0.30698 0.81867 0.0
C107 C 0.53242 0.31037 0.8167 0.0
C108 C 0.56853 0.35003 0.81369 0.0
C109 C 0.52508 0.38426 0.81564 0.0
C110 C 0.48881 0.34445 0.81846 0.0
C111 C 0.60286 0.42776 0.80791 0.0
H112 H 0.68695 0.79359 0.85812 0.0
H113 H 0.71744 0.75111 0.87103 0.0
H114 H 0.70342 0.6913 0.812 0.0
H115 H 0.67276 0.73287 0.79916 0.0
H116 H 0.5358 0.28199 0.81648 0.0
H117 H 0.59902 0.35154 0.81153 0.0
H118 H 0.5216 0.41253 0.81522 0.0
H119 H 0.45812 0.3428 0.82004 0.0
C120 C 0.72325 0.21474 0.30325 0.0
C121 C 0.71743 0.17657 0.3111 0.0
C122 C 0.72088 0.21777 0.28255 0.0
C123 C 0.71256 0.18268 0.26926 0.0
C124 C 0.70839 0.1452 0.27713 0.0
C125 C 0.71083 0.14221 0.29773 0.0
C126 C 0.70654 0.18411 0.24731 0.0
C127 C 0.73413 0.22054 0.23723 0.0
C128 C 0.72917 0.22141 0.21639 0.0
C129 C 0.69522 0.18476 0.20562 0.0
C130 C 0.66683 0.1479 0.21562 0.0
C131 C 0.67301 0.14835 0.23639 0.0
C132 C 0.63004 0.10835 0.20514 0.0
C133 C 0.59961 0.11077 0.19256 0.0
C134 C 0.62224 1.06725 0.2098 0.0
C135 C 0.58428 1.02984 0.20297 0.0
C136 C 0.55266 1.03209 0.19119 0.0
C137 C 0.76101 0.26049 0.20637 0.0
C138 C 0.77281 0.30206 0.21449 0.0
C139 C 0.78327 0.25696 0.1901 0.0
C140 C 0.81779 0.29391 0.18283 0.0
C141 C 0.83059 0.33546 0.19145 0.0
C142 C 0.80686 0.33895 0.20708 0.0
C143 C 0.56135 1.07315 0.18573 0.0
H144 H 0.72809 0.24173 0.3131 0.0
H145 H 0.72405 0.24703 0.27698 0.0
H146 H 0.70294 0.11793 0.26732 0.0
H147 H 0.70723 0.11271 0.30319 0.0
H148 H 0.76057 0.24788 0.24556 0.0
H149 H 0.65083 0.12075 0.24426 0.0
H150 H 0.69105 0.18487 0.1896 0.0
H151 H 0.60441 0.14183 0.18876 0.0
H152 H 0.64504 1.06409 0.21937 0.0
H153 H 0.57903 0.99922 0.20773 0.0
H154 H 0.75632 0.30602 0.22701 0.0
H155 H 0.77528 0.2255 0.18358 0.0
H156 H 0.53825 0.07636 0.17643 0.0
H157 H 0.81576 0.37016 0.21422 0.0
H158 H 0.83492 0.28988 0.17063 0.0
C159 C 0.66197 0.64848 0.63662 0.0
C160 C 0.69161 0.64139 0.64744 0.0
C161 C 0.66222 0.64913 0.6158 0.0
C162 C 0.69194 0.64241 0.60525 0.0
C163 C 0.72212 0.63614 0.61608 0.0
C164 C 0.72206 0.63579 0.63693 0.0
C165 C 0.69075 0.64087 0.583 0.0
C166 C 0.68517 0.67097 0.57267 0.0
C167 C 0.68327 0.66954 0.55166 0.0
C168 C 0.68752 0.63703 0.54086 0.0
C169 C 0.69323 0.60629 0.55105 0.0
C170 C 0.6945 0.60873 0.57208 0.0
C171 C 0.69724 0.5707 0.54044 0.0
C172 C 0.66947 0.54533 0.52411 0.0
C173 C 0.72653 0.55904 0.54811 0.0
C174 C 0.72654 0.52204 0.54053 0.0
C175 C 0.69767 0.4954 0.52473 0.0
C176 C 0.67717 0.70286 0.54168 0.0
C177 C 0.6468 0.71358 0.54864 0.0
C178 C 0.70416 0.7273 0.52684 0.0
C179 C 0.70211 0.76274 0.51987 0.0
C180 C 0.67273 0.77445 0.52743 0.0
C181 C 0.64463 0.7487 0.54167 0.0
C182 C 0.66966 0.50818 0.51636 0.0
H183 H 0.63835 0.65332 0.64426 0.0
H184 H 0.63839 0.65381 0.60792 0.0
H185 H 0.74575 0.63133 0.60842 0.0
H186 H 0.74511 0.6299 0.64476 0.0
H187 H 0.68315 0.69634 0.58111 0.0
H188 H 0.69725 0.58459 0.58009 0.0
H189 H 0.6863 0.63563 0.5247 0.0
H190 H 0.64639 0.55316 0.51782 0.0
H191 H 0.74888 0.57798 0.5605 0.0
H192 H 0.74833 0.51361 0.54772 0.0
H193 H 0.62527 0.69536 0.55997 0.0
H194 H 0.72808 0.72014 0.52123 0.0
H195 H 0.64739 0.48923 0.50397 0.0
H196 H 0.62185 0.75657 0.54809 0.0
H197 H 0.72391 0.78127 0.50871 0.0
C198 C 0.22517 0.63431 0.96429 0.0
C199 C 0.19057 0.60817 0.97587 0.0
C200 C 0.22259 0.62611 0.94356 0.0
C201 C 0.18515 0.5919 0.93392 0.0
C202 C 0.1507 0.56565 0.94553 0.0
C203 C 0.15343 0.57359 0.96624 0.0
C204 C 0.18147 0.58391 0.91182 0.0
C205 C 0.21497 0.58411 0.90146 0.0
C206 C 0.21131 0.57549 0.8806 0.0
C207 C 0.17285 0.56671 0.87001 0.0
C208 C 0.13879 0.56671 0.88028 0.0
C209 C 0.14394 0.57556 0.9011 0.0
C210 C 1.0974 0.55814 0.87009 0.0
C211 C 1.09657 0.58032 0.85347 0.0
C212 C 1.05829 0.53178 0.8789 0.0
C213 C 1.02026 0.53019 0.87239 0.0
C214 C 1.01977 0.55446 0.85665 0.0
C215 C 0.24806 0.57505 0.87066 0.0
C216 C 0.29042 0.60836 0.87554 0.0
C217 C 0.24201 0.53947 0.85833 0.0
C218 C 0.27752 0.53644 0.85187 0.0
C219 C 0.31999 0.56916 0.85738 0.0
C220 C 0.32573 0.60553 0.86899 0.0
C221 C 1.05809 0.57838 0.84677 0.0
H222 H 0.25437 0.66098 0.97128 0.0
H223 H 0.24957 0.64705 0.93501 0.0
H224 H 0.12157 0.5388 0.93858 0.0
H225 H 0.12605 0.55307 0.97467 0.0
H226 H 0.24368 0.58974 0.9098 0.0
H227 H 0.11867 0.57681 0.9091 0.0
H228 H 0.16947 0.5599 0.85398 0.0
H229 H 0.12604 0.60108 0.84638 0.0
H230 H 1.05744 0.51361 0.8915 0.0
H231 H 0.99126 0.5107 0.88008 0.0
H232 H 0.29632 0.63627 0.88498 0.0
H233 H 0.20988 0.51309 0.85442 0.0
H234 H 1.05883 0.5974 0.83456 0.0
H235 H 0.35765 0.63126 0.87377 0.0
H236 H 0.27165 0.50818 0.84274 0.0
C237 C 1.06617 0.70016 0.34688 0.0
C238 C 1.09886 0.69023 0.34349 0.0
C239 C 1.05084 0.6987 0.36593 0.0
C240 C 1.06759 0.68698 0.38202 0.0
C241 C 1.09961 0.67614 0.37853 0.0
C242 C 0.11521 0.67797 0.35955 0.0
C243 C 1.05234 0.68663 0.40245 0.0
C244 C 1.00851 0.67105 0.40554 0.0
C245 C 0.99409 0.66911 0.42498 0.0
C246 C 1.02417 0.68392 0.44132 0.0
C247 C 1.06752 0.69877 0.43842 0.0
C248 C 1.08157 0.70045 0.41908 0.0
C249 C 1.09789 0.71014 0.45571 0.0
C250 C 1.10789 0.74597 0.46863 0.0
C251 C 0.11781 0.68575 0.45901 0.0
C252 C 0.14886 0.69815 0.47459 0.0
C253 C 0.16134 0.73588 0.48682 0.0
C254 C 0.94771 0.64457 0.42886 0.0
C255 C 0.92205 0.6033 0.41943 0.0
C256 C 0.93171 0.65734 0.44513 0.0
C257 C 0.89455 0.62713 0.45385 0.0
C258 C 0.87295 0.58386 0.44635 0.0
C259 C 0.88487 0.5732 0.42807 0.0
C260 C 0.13961 0.759 0.48394 0.0
H261 H 1.05221 0.70894 0.3348 0.0
H262 H 1.02633 0.70745 0.36809 0.0
H263 H 0.11269 0.66613 0.39049 0.0
H264 H 0.14059 0.67042 0.35757 0.0
H265 H 0.98537 0.6587 0.39291 0.0
H266 H 0.11545 0.71264 0.41707 0.0
H267 H 1.01362 0.68103 0.45645 0.0
H268 H 1.09258 0.76501 0.4663 0.0
H269 H 0.10979 0.65747 0.44933 0.0
H270 H 0.16404 0.67892 0.4766 0.0
H271 H 0.93325 0.59241 0.40682 0.0
H272 H 0.95027 0.68941 0.45237 0.0
H273 H 0.14862 0.78859 0.49273 0.0
H274 H 0.86897 0.54025 0.42177 0.0
H275 H 0.88547 0.63655 0.46763 0.0
C276 C 0.47035 0.94941 0.65672 0.0
C277 C 0.48962 0.99399 0.65458 0.0
C278 C 0.4437 0.93061 0.67246 0.0
C279 C 0.4357 0.95601 0.68635 0.0
C280 C 0.45416 1.00036 0.68389 0.0
C281 C 0.4808 1.0191 0.66825 0.0
C282 C 0.41261 0.93797 0.70466 0.0
C283 C 0.42358 0.91272 0.71599 0.0
C284 C 0.40978 0.90336 0.73544 0.0
C285 C 0.38458 0.91958 0.74355 0.0
C286 C 0.37272 0.94467 0.73235 0.0
C287 C 0.3854 0.95185 0.71254 0.0
C288 C 0.35376 0.96908 0.74229 0.0
C289 C 0.32823 0.95369 0.75891 0.0
C290 C 0.3657 1.01083 0.73672 0.0
C291 C 0.35485 1.03717 0.74802 0.0
C292 C 0.33268 1.02309 0.7655 0.0
C293 C 0.42732 0.88215 0.74799 0.0
C294 C 0.43075 0.84723 0.73989 0.0
C295 C 0.44534 0.89982 0.76728 0.0
C296 C 0.46856 0.88459 0.77773 0.0
C297 C 0.47436 0.8516 0.76904 0.0
C298 C 0.4541 0.83216 0.7503 0.0
C299 C 0.31841 0.98071 0.7706 0.0
H300 H 0.47596 0.92906 0.64626 0.0
H301 H 0.42984 0.89634 0.67396 0.0
H302 H 0.4496 1.02107 0.6946 0.0
H303 H 0.49565 1.05362 0.66728 0.0
H304 H 0.446 0.90344 0.71032 0.0
H305 H 0.37625 0.97047 0.70348 0.0
H306 H 0.3764 0.91454 0.75897 0.0
H307 H 0.31737 0.92144 0.76345 0.0
H308 H 0.38618 1.02482 0.72445 0.0
H309 H 0.36705 1.06999 0.74393 0.0
H310 H 0.41667 0.83261 0.72517 0.0
H311 H 0.44377 0.92713 0.77383 0.0
H312 H 0.30121 0.96914 0.78404 0.0
H313 H 0.45741 0.80613 0.74341 0.0
H314 H 0.48405 0.90035 0.7921 0.0
C315 C 0.59866 0.38145 0.01067 0.0
C316 C 0.58201 0.406 0.00264 0.0
C317 C 0.58661 0.3644 0.02929 0.0
C318 C 0.55755 0.3714 0.04024 0.0
C319 C 0.54008 0.395 0.03194 0.0
C320 C 0.55212 0.41202 0.01337 0.0
C321 C 0.54864 0.35809 0.06102 0.0
C322 C 0.58303 0.3675 0.07457 0.0
C323 C 0.57691 0.36335 0.09511 0.0
C324 C 0.53536 0.34745 0.10187 0.0
C325 C 0.50103 0.34002 0.08876 0.0
C326 C 0.50751 0.34339 0.06821 0.0
C327 C 0.46402 0.34173 0.09723 0.0
C328 C 0.44748 0.3231 0.11531 0.0
C329 C 0.45276 0.37111 0.08993 0.0
C330 C 0.43057 0.38578 0.1016 0.0
C331 C 0.41903 0.37128 0.12074 0.0
C332 C 0.61466 0.38471 0.10963 0.0
C333 C 0.65286 0.38442 0.10594 0.0
C334 C 0.6144 0.41052 0.12602 0.0
C335 C 0.65188 0.43733 0.13759 0.0
C336 C 0.69074 0.4396 0.13293 0.0
C337 C 0.69061 0.41167 0.11748 0.0
C338 C 0.42516 0.33788 0.12704 0.0
H339 H 0.62198 0.37643 0.00284 0.0
H340 H 0.60062 0.34638 0.03529 0.0
H341 H 0.51823 0.40173 0.04011 0.0
H342 H 0.5382 0.43022 0.00747 0.0
H343 H 0.61532 0.3823 0.06934 0.0
H344 H 0.48121 0.33789 0.05801 0.0
H345 H 0.53093 0.34582 0.11776 0.0
H346 H 0.45508 0.29991 0.12118 0.0
H347 H 0.46495 0.38642 0.07617 0.0
H348 H 0.42546 0.41107 0.09633 0.0
H349 H 0.65404 0.36464 0.09357 0.0
H350 H 0.58597 0.41237 0.12922 0.0
H351 H 0.41614 0.32598 0.14171 0.0
H352 H 0.72014 0.41277 0.11349 0.0
H353 H 0.65084 0.45795 0.14961 0.0
H354 H 0.40976 0.5815 0.18093 0.0
H355 H 0.34886 0.34159 0.14399 0.0
H356 H 0.28292 0.47106 0.18392 0.0
H357 H 0.46397 0.457 0.13011 0.0
H358 H 0.32975 0.38592 0.16583 0.0
H359 H 0.43612 0.53321 0.17018 0.0
C360 C 0.38765 0.54707 0.1797 0.0
C361 C 0.34396 0.53042 0.18301 0.0
C362 C 0.35937 0.40137 0.15812 0.0
C363 C 0.37371 0.47502 0.17054 0.0
C364 C 0.37014 0.37616 0.14569 0.0
C365 C 0.4074 0.39596 0.13495 0.0
C366 C 0.38648 0.44641 0.15993 0.0
C367 C 0.43435 0.44072 0.13778 0.0
C368 C 0.40265 0.51951 0.17354 0.0
C369 C 0.31688 0.48541 0.18155 0.0
N370 N 0.42324 0.46444 0.14988 0.0
N371 N 0.33204 0.4593 0.17508 0.0
H372 H 0.87769 0.40976 0.52171 0.0
H373 H 0.79991 0.50527 0.43715 0.0
H374 H 0.78529 0.333 0.47362 0.0
H375 H 0.89045 0.58182 0.48588 0.0
H376 H 0.77955 0.44072 0.45517 0.0
H377 H 0.87052 0.47147 0.51312 0.0
C378 C 0.85573 0.40582 0.50943 0.0
C379 C 0.83308 0.36655 0.49799 0.0
C380 C 0.8031 0.4718 0.46214 0.0
C381 C 0.82462 0.43691 0.48807 0.0
C382 C 0.8145 0.50869 0.4519 0.0
C383 C 0.84791 0.54886 0.45969 0.0
C384 C 0.82567 0.47525 0.48014 0.0
C385 C 0.86497 0.55154 0.47909 0.0
C386 C 0.85156 0.44101 0.50454 0.0
C387 C 0.80471 0.36316 0.48235 0.0
N388 N 0.85454 0.51508 0.4884 0.0
N389 N 0.80166 0.39798 0.47771 0.0
H390 H 0.68264 0.80261 0.79198 0.0
H391 H 0.48221 0.83801 0.80848 0.0
H392 H 0.61425 0.77427 0.84628 0.0
H393 H 0.53598 0.84055 0.75143 0.0
H394 H 0.53494 0.82222 0.82387 0.0
H395 H 0.63433 0.82548 0.77826 0.0
C396 C 0.65765 0.8015 0.80107 0.0
C397 C 0.65231 0.78622 0.82025 0.0
C398 C 0.53508 0.82617 0.80798 0.0
C399 C 0.59685 0.81234 0.80464 0.0
C400 C 0.50508 0.8352 0.79922 0.0
C401 C 0.50452 0.8402 0.77863 0.0
C402 C 0.56497 0.82263 0.79608 0.0
C403 C 0.53477 0.83616 0.76729 0.0
C404 C 0.63006 0.81453 0.79323 0.0
C405 C 0.61981 0.78618 0.8315 0.0
N406 N 0.56379 0.82771 0.77617 0.0
N407 N 0.5931 0.79874 0.82347 0.0
H408 H 0.95613 0.59905 0.17437 0.0
H409 H 0.71328 0.52361 0.14098 0.0
H410 H 0.91272 0.68519 0.15573 0.0
H411 H 0.7619 0.43581 0.14599 0.0
H412 H 0.78298 0.58289 0.15331 0.0
H413 H 0.8822 0.53939 0.17095 0.0
C414 C 0.93091 0.60559 0.16995 0.0
C415 C 0.94058 0.64712 0.1652 0.0
C416 C 0.77832 0.55062 0.15191 0.0
C417 C 0.85604 0.57888 0.16104 0.0
C418 C 0.73839 0.51662 0.14504 0.0
C419 C 0.73175 0.47462 0.14242 0.0
C420 C 0.81202 0.54272 0.15618 0.0
C421 C 0.7658 0.46775 0.14757 0.0
C422 C 0.88877 0.57143 0.16785 0.0
C423 C 0.9067 0.65359 0.1593 0.0
N424 N 0.80463 0.50156 0.15411 0.0
N425 N 0.86591 0.61974 0.15727 0.0
H426 H 0.42675 0.87649 0.51009 0.0
H427 H 0.17836 0.78341 0.52285 0.0
H428 H 0.37089 0.95008 0.534 0.0
H429 H 0.23481 0.73166 0.48185 0.0
H430 H 0.24956 0.83033 0.53903 0.0
H431 H 0.35824 0.81043 0.51278 0.0
C432 C 0.40049 0.87867 0.51654 0.0
C433 C 0.40403 0.91883 0.52132 0.0
C434 C 0.24592 0.80774 0.52684 0.0
C435 C 0.3256 0.84357 0.5241 0.0
C436 C 0.20538 0.78119 0.51746 0.0
C437 C 0.2006 0.75461 0.5004 0.0
C438 C 0.28173 0.80737 0.51921 0.0
C439 C 0.23657 0.75179 0.49473 0.0
C440 C 0.36134 0.84094 0.51796 0.0
C441 C 0.36899 0.91973 0.5296 0.0
N442 N 0.27571 0.7785 0.50386 0.0
N443 N 0.33086 0.88265 0.53035 0.0
H444 H 0.47927 0.23823 0.83977 0.0
H445 H 0.30668 0.08134 0.75829 0.0
H446 H 0.4163 0.27724 0.79691 0.0
H447 H 0.3599 1.03995 0.80471 0.0
H448 H 0.33055 0.14912 0.77795 0.0
H449 H 0.42225 0.16343 0.83307 0.0
C450 C 0.45294 0.23109 0.82924 0.0
C451 C 0.45302 0.2638 0.81854 0.0
C452 C 0.33596 0.12479 0.78416 0.0
C453 C 0.38792 0.17832 0.81059 0.0
C454 C 0.32211 0.08601 0.77296 0.0
C455 C 0.33215 1.05551 0.77974 0.0
C456 C 0.36083 0.13338 0.80202 0.0
C457 C 0.35184 1.06283 0.79888 0.0
C458 C 0.42028 0.1884 0.82546 0.0
C459 C 0.41771 0.25298 0.80539 0.0
N460 N 0.36664 0.10156 0.80913 0.0
N461 N 0.3871 0.21104 0.80144 0.0
H462 H 0.74335 1.03652 0.49931 0.0
H463 H 0.60312 0.7865 0.52179 0.0
H464 H 0.6069 0.97191 0.50723 0.0
H465 H 0.74113 0.85359 0.51915 0.0
H466 H 0.60348 0.85277 0.51446 0.0
H467 H 0.7426 0.96903 0.50446 0.0
C468 C 0.71313 1.00818 0.50204 0.0
C469 C 0.67512 1.01025 0.50283 0.0
C470 C 0.63371 0.85302 0.51542 0.0
C471 C 0.67411 0.9323 0.50879 0.0
C472 C 0.6336 0.81508 0.51971 0.0
C473 C 0.67222 0.81407 0.5213 0.0
C474 C 0.67271 0.8907 0.5126 0.0
C475 C 0.71045 0.8523 0.51793 0.0
C476 C 0.71278 0.96954 0.50502 0.0
C477 C 0.63706 0.97215 0.50648 0.0
N478 N 0.70972 0.88889 0.51386 0.0
N479 N 0.63757 0.93497 0.50933 0.0
H480 H 0.80251 0.59583 0.86483 0.0
H481 H 0.97924 0.54638 0.81974 0.0
H482 H 0.78123 0.52849 0.8071 0.0
H483 H 0.96975 0.56818 0.8826 0.0
H484 H 0.91255 0.54854 0.81303 0.0
H485 H 0.86954 0.59509 0.86971 0.0
C486 C 0.81194 0.58102 0.85308 0.0
C487 C 0.78581 0.5621 0.83551 0.0
C488 C 0.92514 0.55279 0.82827 0.0
C489 C 0.8635 0.56139 0.84106 0.0
C490 C 0.96331 0.5518 0.8321 0.0
C491 C 0.98006 0.55676 0.8518 0.0
C492 C 0.90406 0.55974 0.8442 0.0
C493 C 0.95787 0.5636 0.86722 0.0
C494 C 0.85032 0.58048 0.85594 0.0
C495 C 0.8001 0.54331 0.82093 0.0
N496 N 0.92139 0.56508 0.8631 0.0
N497 N 0.838 0.54358 0.82398 0.0
H498 H 0.34639 0.765 0.16755 0.0
H499 H 0.47157 1.02277 0.18854 0.0
H500 H 0.28313 0.84029 0.17188 0.0
H501 H 0.53607 0.94911 0.18139 0.0
H502 H 0.40266 0.95654 0.18167 0.0
H503 H 0.41599 0.83173 0.17222 0.0
C504 C 0.34698 0.79545 0.16944 0.0
C505 C 0.30845 0.79664 0.16931 0.0
C506 C 0.43188 0.95483 0.18153 0.0
C507 C 0.38858 0.87366 0.17472 0.0
C508 C 0.47149 0.99288 0.1853 0.0
C509 C 0.51021 0.99202 0.18564 0.0
C510 C 0.43051 0.91517 0.17806 0.0
C511 C 0.50736 0.95169 0.18166 0.0
C512 C 0.38687 0.83365 0.1721 0.0
C513 C 0.31169 0.83739 0.17185 0.0
N514 N 0.46842 0.91511 0.17812 0.0
N515 N 0.35081 0.874 0.17448 0.0
H516 H 0.62004 0.22867 0.48429 0.0
H517 H 0.76404 0.47718 0.52371 0.0
H518 H 0.74437 0.28243 0.51508 0.0
H519 H 0.6276 0.41777 0.50985 0.0
H520 H 0.75924 0.40777 0.51645 0.0
H521 H 0.62453 0.29931 0.48896 0.0
C522 C 0.6484 0.25528 0.49189 0.0
C523 C 0.68184 0.24932 0.49933 0.0
C524 C 0.73045 0.41003 0.51474 0.0
C525 C 0.68724 0.33046 0.50463 0.0
C526 C 0.73297 0.44977 0.51913 0.0
C527 C 0.696 0.45388 0.51784 0.0
C528 C 0.69093 0.37373 0.50845 0.0
C529 C 0.65716 0.41681 0.51103 0.0
C530 C 0.65085 0.29558 0.49461 0.0
C531 C 0.7177 0.28518 0.50912 0.0
N532 N 0.65565 0.37847 0.50664 0.0
N533 N 0.71943 0.32395 0.51144 0.0
H534 H 0.57784 0.62436 0.83037 0.0
H535 H 0.32862 0.49661 0.8559 0.0
H536 H 0.5099 0.48906 0.84107 0.0
H537 H 0.3994 0.63242 0.84643 0.0
H538 H 0.39293 0.49198 0.84898 0.0
H539 H 0.51185 0.6267 0.83495 0.0
C540 C 0.54903 0.59499 0.83361 0.0
C541 C 0.54976 0.5564 0.83533 0.0
C542 C 0.39434 0.52276 0.84835 0.0
C543 C 0.47333 0.55898 0.84068 0.0
C544 C 0.35742 0.52541 0.85216 0.0
C545 C 0.35823 0.56505 0.85186 0.0
C546 C 0.43266 0.55997 0.84413 0.0
C547 C 0.39706 0.60125 0.84718 0.0
C548 C 0.5112 0.5964 0.83625 0.0
C549 C 0.5111 0.51956 0.8396 0.0
N550 N 0.43245 0.59784 0.84357 0.0
N551 N 0.47463 0.52179 0.84215 0.0
H552 H 1.02357 0.59482 0.16011 0.0
H553 H 0.90871 0.34405 0.18263 0.0
H554 H 1.09183 0.52729 0.17264 0.0
H555 H 0.84296 0.41694 0.18606 0.0
H556 H 0.97404 0.4091 0.17443 0.0
H557 H 0.95553 0.52853 0.16524 0.0
C558 C 1.02434 0.56611 0.16378 0.0
C559 C 1.06377 0.56691 0.16597 0.0
C560 C 0.9453 0.41091 0.17689 0.0
C561 C 0.98582 0.49083 0.17186 0.0
C562 C 0.90774 0.37356 0.18142 0.0
C563 C 0.86996 0.37469 0.1851 0.0
C564 C 0.94544 0.45005 0.17578 0.0
C565 C 0.87129 0.41442 0.18358 0.0
C566 C 0.98546 0.52833 0.16682 0.0
C567 C 1.06249 0.52856 0.17087 0.0
N568 N 0.90825 0.45035 0.17903 0.0
N569 N 1.02441 0.49235 0.17359 0.0
H570 H 0.2112 0.72687 0.09418 0.0
H571 H 0.16422 0.55044 0.00506 0.0
H572 H 0.17441 0.59486 0.10352 0.0
H573 H 0.22156 0.68637 0.99683 0.0
H574 H 0.16538 0.56561 0.04102 0.0
H575 H 0.21295 0.71227 0.0584 0.0
C576 C 0.20349 0.6948 0.08873 0.0
C577 C 0.19254 0.66202 0.10192 0.0
C578 C 0.17787 0.59216 0.03137 0.0
C579 C 0.19439 0.64505 0.06086 0.0
C580 C 0.17702 0.58349 0.01082 0.0
C581 C 0.19273 0.61717 -0.00213 0.0
C582 C 0.19422 0.63483 0.03911 0.0
C583 C 0.20947 0.65944 0.00624 0.0
C584 C 0.2046 0.68652 0.06827 0.0
C585 C 0.18302 0.62114 0.09394 0.0
N586 N 0.20955 0.66703 0.02629 0.0
N587 N 0.18399 0.61379 0.07395 0.0
H588 H 0.75755 0.20908 0.44129 0.0
H589 H 0.66275 0.10568 0.33052 0.0
H590 H 0.64661 0.08341 0.42722 0.0
H591 H 0.76819 0.23572 0.34185 0.0
H592 H 0.65994 0.09677 0.36619 0.0
H593 H 0.76558 0.21926 0.40532 0.0
C594 C 0.7351 0.18356 0.4307 0.0
C595 C 0.70123 0.14539 0.43735 0.0
C596 C 0.68384 0.12731 0.36097 0.0
C597 C 0.71018 0.15686 0.39628 0.0
C598 C 0.68567 0.13233 0.3405 0.0
C599 C 0.71598 0.17143 0.33305 0.0
C600 C 0.71248 0.1616 0.37434 0.0
C601 C 0.74409 0.20509 0.34689 0.0
C602 C 0.7396 0.18947 0.41018 0.0
C603 C 0.67305 0.11351 0.42291 0.0
N604 N 0.74173 0.1994 0.36687 0.0
N605 N 0.67815 0.12001 0.40318 0.0
H606 H 0.74445 0.65156 0.776 0.0
H607 H 0.61986 0.59904 0.66878 0.0
H608 H 0.61361 0.54994 0.7628 0.0
H609 H 0.75802 0.67463 0.67628 0.0
H610 H 0.6162 0.58996 0.70457 0.0
H611 H 0.74922 0.66916 0.74078 0.0
C612 C 0.7167 0.63321 0.76577 0.0
C613 C 0.67871 0.59897 0.77234 0.0
C614 C 0.64737 0.60869 0.69844 0.0
C615 C 0.68382 0.61907 0.73223 0.0
C616 C 0.64946 0.61417 0.67798 0.0
C617 C 0.68931 0.6376 0.66945 0.0
C618 C 0.68537 0.62691 0.71062 0.0
C619 C 0.72662 0.65589 0.68218 0.0
C620 C 0.71949 0.64313 0.74569 0.0
C621 C 0.64373 0.57628 0.75843 0.0
N622 N 0.72377 0.65017 0.70213 0.0
N623 N 0.64715 0.58672 0.73913 0.0
H624 H 0.61904 0.15203 0.55861 0.0
H625 H 0.55137 0.9772 0.64026 0.0
H626 H 0.66949 1.06551 0.56111 0.0
H627 H 0.49579 1.05828 0.63206 0.0
H628 H 0.60049 1.01309 0.61383 0.0
H629 H 0.58185 0.12432 0.58894 0.0
C630 C 0.62285 0.12762 0.56581 0.0
C631 C 0.64709 0.11081 0.55735 0.0
C632 C 0.57765 1.02309 0.61793 0.0
C633 C 0.60359 0.07794 0.59185 0.0
C634 C 0.54933 1.00237 0.63287 0.0
C635 C 0.5193 1.01468 0.6384 0.0
C636 C 0.57592 1.05635 0.60849 0.0
C637 C 0.51868 1.04802 0.62854 0.0
C638 C 0.60138 0.11159 0.58307 0.0
C639 C 0.6512 0.0794 0.56728 0.0
N640 N 0.54645 1.06755 0.61409 0.0
N641 N 0.62903 1.06341 0.58393 0.0
H642 H 0.65505 0.57416 0.90425 0.0
H643 H 0.59574 0.37059 0.96853 0.0
H644 H 0.64508 0.45508 0.88092 0.0
H645 H 0.60075 0.48673 0.99268 0.0
H646 H 0.61812 0.4034 0.93677 0.0
H647 H 0.63948 0.54508 0.93731 0.0
C648 C 0.64989 0.5421 0.90607 0.0
C649 C 0.65109 0.51696 0.88972 0.0
C650 C 0.6144 0.4218 0.94901 0.0
C651 C 0.63319 0.48352 0.9274 0.0
C652 C 0.60181 0.40311 0.9672 0.0
C653 C 0.59615 0.42582 0.98329 0.0
C654 C 0.62146 0.4636 0.94683 0.0
C655 C 0.60402 0.46774 0.98058 0.0
C656 C 0.64089 0.52547 0.92492 0.0
C657 C 0.64414 0.4756 0.89299 0.0
N658 N 0.6162 0.48525 0.9627 0.0
N659 N 0.63539 0.46021 0.91138 0.0
H660 H 0.14462 0.73487 0.21978 0.0
H661 H 0.12449 0.63728 0.32487 0.0
H662 H 0.20347 0.65888 0.23333 0.0
H663 H 0.11277 0.74962 0.31605 0.0
H664 H 0.15088 0.64178 0.29132 0.0
H665 H 0.12971 0.7378 0.25483 0.0
C666 C 0.15469 0.71902 0.23021 0.0
C667 C 0.17515 0.69644 0.22368 0.0
C668 C 0.1428 0.66557 0.29684 0.0
C669 C 0.15765 0.69922 0.26382 0.0
C670 C 0.1278 0.66313 0.31601 0.0
C671 C 0.11598 0.69293 0.32332 0.0
C672 C 0.14549 0.69768 0.2848 0.0
C673 C 0.12044 0.7253 0.31096 0.0
C674 C 0.14627 0.72083 0.25023 0.0
C675 C 0.18774 0.67674 0.23783 0.0
N676 N 0.13449 0.72657 0.29228 0.0
N677 N 0.17825 0.67807 0.25727 0.0
loop_
_geom_bond_atom_site_label_1
_geom_bond_atom_site_label_2
_geom_bond_distance
_geom_bond_site_symmetry_2
_ccdc_geom_bond_type
Tb0 C10 2.825 . S
Tb0 O11 2.347 . S
Tb0 O14 2.366 . S
Tb0 O19 2.418 . S
Tb0 O20 2.384 1_455 S
Tb0 O23 2.479 . S
Tb0 O24 2.471 . S
Eu1 O12 2.409 1_655 S
Eu1 O13 2.375 1_655 S
Eu1 O16 2.488 . S
Eu1 O17 2.480 . S
Eu1 O18 2.342 1_655 S
Eu1 O21 2.368 . S
Eu1 C31 2.835 . S
C2 O18 1.259 . S
C2 O19 1.265 . S
C3 O20 1.255 . S
C3 O21 1.265 . S
C4 C6 1.380 . S
C4 C7 1.374 . S
C4 C10 1.507 . S
C5 C6 1.384 . S
C5 C9 1.387 . S
C5 H32 0.930 . S
C6 C4 1.380 . S
C6 C5 1.384 . S
C6 H33 0.931 . S
C7 C4 1.374 . S
C7 C8 1.390 . S
C7 H34 0.930 . S
C8 C7 1.390 . S
C8 C9 1.391 . S
C8 H35 0.930 . S
C9 C5 1.387 . S
C9 C8 1.391 . S
C10 Tb0 2.825 . S
C10 C4 1.507 . S
C10 O23 1.238 . S
C10 O24 1.247 . S
O11 Tb0 2.347 . S
O11 C15 1.259 . S
O12 Eu1 2.409 1_455 S
O12 C15 1.294 . S
O13 Eu1 2.375 1_455 S
O13 C22 1.255 . S
O14 Tb0 2.366 . S
O14 C22 1.265 . S
C15 O11 1.259 . S
C15 O12 1.294 . S
O16 Eu1 2.488 . S
O16 C31 1.238 . S
O17 Eu1 2.480 . S
O17 C31 1.247 . S
O18 Eu1 2.342 1_455 S
O18 C2 1.259 . S
O19 Tb0 2.418 . S
O19 C2 1.265 . S
O20 Tb0 2.384 1_655 S
O20 C3 1.255 . S
O21 Eu1 2.368 . S
O21 C3 1.265 . S
C22 O13 1.255 . S
C22 O14 1.265 . S
O23 Tb0 2.479 . S
O23 C10 1.238 . S
O24 Tb0 2.471 . S
O24 C10 1.247 . S
C25 C28 1.380 . S
C25 C29 1.374 . S
C25 C31 1.507 . S
C26 C27 1.387 . S
C26 C30 1.391 . S
C27 C26 1.387 . S
C27 C28 1.384 . S
C27 H36 0.930 . S
C28 C25 1.380 . S
C28 C27 1.384 . S
C28 H37 0.931 . S
C29 C25 1.374 . S
C29 C30 1.390 . S
C29 H38 0.930 . S
C30 C26 1.391 . S
C30 C29 1.390 . S
C30 H39 0.930 . S
C31 Eu1 2.835 . S
C31 O16 1.238 . S
C31 O17 1.247 . S
C31 C25 1.507 . S
H32 C5 0.930 . S
H33 C6 0.931 . S
H34 C7 0.930 . S
H35 C8 0.930 . S
H36 C27 0.930 . S
H37 C28 0.931 . S
H38 C29 0.930 . S
H39 C30 0.930 . S
Tb40 C50 2.825 . S
Tb40 O51 2.347 . S
Tb40 O54 2.366 . S
Tb40 O59 2.418 . S
Tb40 O60 2.384 1_545 S
Tb40 O63 2.479 . S
Tb40 O64 2.471 . S
Eu41 O52 2.418 . S
Eu41 O53 2.384 . S
Eu41 O56 2.479 1_545 S
Eu41 O57 2.471 1_545 S
Eu41 O58 2.347 . S
Eu41 O61 2.366 1_545 S
Eu41 C71 2.825 1_545 S
C42 O58 1.259 . S
C42 O59 1.265 . S
C43 O60 1.255 . S
C43 O61 1.265 . S
C44 C46 1.380 . S
C44 C47 1.374 . S
C44 C50 1.507 . S
C45 C46 1.384 . S
C45 C49 1.387 . S
C45 H72 0.930 . S
C46 C44 1.380 . S
C46 C45 1.384 . S
C46 H73 0.931 . S
C47 C44 1.374 . S
C47 C48 1.390 . S
C47 H74 0.930 . S
C48 C47 1.390 . S
C48 C49 1.391 . S
C48 H75 0.930 . S
C49 C45 1.387 . S
C49 C48 1.391 . S
C50 Tb40 2.825 . S
C50 C44 1.507 . S
C50 O63 1.238 . S
C50 O64 1.247 . S
O51 Tb40 2.347 . S
O51 C55 1.259 . S
O52 Eu41 2.418 . S
O52 C55 1.265 . S
O53 Eu41 2.384 . S
O53 C62 1.255 . S
O54 Tb40 2.366 . S
O54 C62 1.265 . S
C55 O51 1.259 . S
C55 O52 1.265 . S
O56 Eu41 2.479 1_565 S
O56 C71 1.238 . S
O57 Eu41 2.471 1_565 S
O57 C71 1.247 . S
O58 Eu41 2.347 . S
O58 C42 1.259 . S
O59 Tb40 2.418 . S
O59 C42 1.265 . S
O60 Tb40 2.384 1_565 S
O60 C43 1.255 . S
O61 Eu41 2.366 1_565 S
O61 C43 1.265 . S
C62 O53 1.255 . S
C62 O54 1.265 . S
O63 Tb40 2.479 . S
O63 C50 1.238 . S
O64 Tb40 2.471 . S
O64 C50 1.247 . S
C65 C68 1.380 . S
C65 C69 1.374 . S
C65 C71 1.507 . S
C66 C67 1.387 . S
C66 C70 1.391 . S
C67 C66 1.387 . S
C67 C68 1.384 . S
C67 H76 0.930 . S
C68 C65 1.380 . S
C68 C67 1.384 . S
C68 H77 0.931 . S
C69 C65 1.374 . S
C69 C70 1.390 . S
C69 H78 0.930 . S
C70 C66 1.391 . S
C70 C69 1.390 . S
C70 H79 0.930 . S
C71 Eu41 2.825 1_565 S
C71 O56 1.238 . S
C71 O57 1.247 . S
C71 C65 1.507 . S
H72 C45 0.930 . S
H73 C46 0.931 . S
H74 C47 0.930 . S
H75 C48 0.930 . S
H76 C67 0.930 . S
H77 C68 0.931 . S
H78 C69 0.930 . S
H79 C70 0.930 . S
Tb80 C90 2.825 . S
Tb80 O91 2.347 . S
Tb80 O94 2.366 . S
Tb80 O99 2.418 . S
Tb80 O100 2.384 . S
Tb80 O103 2.479 . S
Tb80 O104 2.471 . S
Eu81 O92 2.418 . S
Eu81 O93 2.384 . S
Eu81 O96 2.479 . S
Eu81 O97 2.471 . S
Eu81 O98 2.347 . S
Eu81 O101 2.366 . S
Eu81 C111 2.825 . S
C82 O98 1.259 . S
C82 O99 1.265 . S
C83 O100 1.255 . S
C83 O101 1.265 . S
C84 C86 1.380 . S
C84 C87 1.374 . S
C84 C90 1.507 . S
C85 C86 1.384 . S
C85 C89 1.387 . S
C85 H112 0.930 . S
C86 C84 1.380 . S
C86 C85 1.384 . S
C86 H113 0.931 . S
C87 C84 1.374 . S
C87 C88 1.390 . S
C87 H114 0.930 . S
C88 C87 1.390 . S
C88 C89 1.391 . S
C88 H115 0.930 . S
C89 C85 1.387 . S
C89 C88 1.391 . S
C90 Tb80 2.825 . S
C90 C84 1.507 . S
C90 O103 1.238 . S
C90 O104 1.247 . S
O91 Tb80 2.347 . S
O91 C95 1.259 . S
O92 Eu81 2.418 . S
O92 C95 1.265 . S
O93 Eu81 2.384 . S
O93 C102 1.255 . S
O94 Tb80 2.366 . S
O94 C102 1.265 . S
C95 O91 1.259 . S
C95 O92 1.265 . S
O96 Eu81 2.479 . S
O96 C111 1.238 . S
O97 Eu81 2.471 . S
O97 C111 1.247 . S
O98 Eu81 2.347 . S
O98 C82 1.259 . S
O99 Tb80 2.418 . S
O99 C82 1.265 . S
O100 Tb80 2.384 . S
O100 C83 1.255 . S
O101 Eu81 2.366 . S
O101 C83 1.265 . S
C102 O93 1.255 . S
C102 O94 1.265 . S
O103 Tb80 2.479 . S
O103 C90 1.238 . S
O104 Tb80 2.471 . S
O104 C90 1.247 . S
C105 C108 1.380 . S
C105 C109 1.374 . S
C105 C111 1.507 . S
C106 C107 1.387 . S
C106 C110 1.391 . S
C107 C106 1.387 . S
C107 C108 1.384 . S
C107 H116 0.930 . S
C108 C105 1.380 . S
C108 C107 1.384 . S
C108 H117 0.931 . S
C109 C105 1.374 . S
C109 C110 1.390 . S
C109 H118 0.930 . S
C110 C106 1.391 . S
C110 C109 1.390 . S
C110 H119 0.930 . S
C111 Eu81 2.825 . S
C111 O96 1.238 . S
C111 O97 1.247 . S
C111 C105 1.507 . S
H112 C85 0.930 . S
H113 C86 0.931 . S
H114 C87 0.930 . S
H115 C88 0.930 . S
H116 C107 0.930 . S
H117 C108 0.931 . S
H118 C109 0.930 . S
H119 C110 0.930 . S
C120 C121 1.386 . S
C120 C122 1.397 . S
C120 H144 0.931 . S
C121 C120 1.386 . S
C121 C125 1.397 1_545 S
C122 C120 1.397 . S
C122 C123 1.384 . S
C122 H145 0.930 . S
C123 C122 1.384 . S
C123 C124 1.377 1_545 S
C123 C126 1.481 . S
C124 C123 1.377 1_565 S
C124 C125 1.389 . S
C124 H146 0.929 . S
C125 C121 1.397 1_565 S
C125 C124 1.389 . S
C125 H147 0.931 . S
C126 C123 1.481 . S
C126 C127 1.387 . S
C126 C131 1.390 1_545 S
C127 C126 1.387 . S
C127 C128 1.401 . S
C127 H148 0.930 . S
C128 C127 1.401 . S
C128 C129 1.376 . S
C128 C137 1.511 . S
C129 C128 1.376 . S
C129 C130 1.392 1_545 S
C129 H150 0.931 . S
C130 C129 1.392 1_565 S
C130 C131 1.361 . S
C130 C132 1.500 . S
C131 C126 1.390 1_565 S
C131 C130 1.361 . S
C131 H149 0.931 . S
C132 C130 1.500 . S
C132 C133 1.371 . S
C132 C134 1.365 . S
C133 C132 1.371 . S
C133 C143 1.386 . S
C133 H151 0.931 . S
C134 C132 1.365 . S
C134 C135 1.409 . S
C134 H152 0.929 . S
C135 C134 1.409 . S
C135 C136 1.380 . S
C135 H153 0.930 . S
C136 C135 1.380 . S
C136 C143 1.357 . S
C137 C128 1.511 . S
C137 C138 1.341 . S
C137 C139 1.371 . S
C138 C137 1.341 . S
C138 C142 1.394 . S
C138 H154 0.930 . S
C139 C137 1.371 . S
C139 C140 1.392 . S
C139 H155 0.931 . S
C140 C139 1.392 . S
C140 C141 1.331 . S
C140 H158 0.932 . S
C141 C140 1.331 . S
C141 C142 1.336 . S
C142 C138 1.394 . S
C142 C141 1.336 . S
C142 H157 0.929 . S
C143 C133 1.386 . S
C143 C136 1.357 . S
C143 H156 0.928 . S
H144 C120 0.931 . S
H145 C122 0.930 . S
H146 C124 0.929 . S
H147 C125 0.931 . S
H148 C127 0.930 . S
H149 C131 0.931 . S
H150 C129 0.931 . S
H151 C133 0.931 . S
H152 C134 0.929 . S
H153 C135 0.930 . S
H154 C138 0.930 . S
H155 C139 0.931 . S
H156 C143 0.928 . S
H157 C142 0.929 . S
H158 C140 0.932 . S
C159 C160 1.386 . S
C159 C161 1.397 . S
C159 H183 0.931 . S
C160 C159 1.386 . S
C160 C164 1.397 . S
C161 C159 1.397 . S
C161 C162 1.384 . S
C161 H184 0.930 . S
C162 C161 1.384 . S
C162 C163 1.377 . S
C162 C165 1.481 . S
C163 C162 1.377 . S
C163 C164 1.389 . S
C163 H185 0.929 . S
C164 C160 1.397 . S
C164 C163 1.389 . S
C164 H186 0.931 . S
C165 C162 1.481 . S
C165 C166 1.387 . S
C165 C170 1.390 . S
C166 C165 1.387 . S
C166 C167 1.401 . S
C166 H187 0.930 . S
C167 C166 1.401 . S
C167 C168 1.376 . S
C167 C176 1.511 . S
C168 C167 1.376 . S
C168 C169 1.392 . S
C168 H189 0.931 . S
C169 C168 1.392 . S
C169 C170 1.361 . S
C169 C171 1.500 . S
C170 C165 1.390 . S
C170 C169 1.361 . S
C170 H188 0.931 . S
C171 C169 1.500 . S
C171 C172 1.371 . S
C171 C173 1.365 . S
C172 C171 1.371 . S
C172 C182 1.386 . S
C172 H190 0.931 . S
C173 C171 1.365 . S
C173 C174 1.409 . S
C173 H191 0.929 . S
C174 C173 1.409 . S
C174 C175 1.380 . S
C174 H192 0.930 . S
C175 C174 1.380 . S
C175 C182 1.357 . S
C176 C167 1.511 . S
C176 C177 1.341 . S
C176 C178 1.371 . S
C177 C176 1.341 . S
C177 C181 1.394 . S
C177 H193 0.930 . S
C178 C176 1.371 . S
C178 C179 1.392 . S
C178 H194 0.931 . S
C179 C178 1.392 . S
C179 C180 1.331 . S
C179 H197 0.932 . S
C180 C179 1.331 . S
C180 C181 1.336 . S
C181 C177 1.394 . S
C181 C180 1.336 . S
C181 H196 0.929 . S
C182 C172 1.386 . S
C182 C175 1.357 . S
C182 H195 0.928 . S
H183 C159 0.931 . S
H184 C161 0.930 . S
H185 C163 0.929 . S
H186 C164 0.931 . S
H187 C166 0.930 . S
H188 C170 0.931 . S
H189 C168 0.931 . S
H190 C172 0.931 . S
H191 C173 0.929 . S
H192 C174 0.930 . S
H193 C177 0.930 . S
H194 C178 0.931 . S
H195 C182 0.928 . S
H196 C181 0.929 . S
H197 C179 0.932 . S
C198 C199 1.386 . S
C198 C200 1.397 . S
C198 H222 0.931 . S
C199 C198 1.386 . S
C199 C203 1.397 1_455 S
C200 C198 1.397 . S
C200 C201 1.384 . S
C200 H223 0.930 . S
C201 C200 1.384 . S
C201 C202 1.377 1_455 S
C201 C204 1.481 . S
C202 C201 1.377 1_655 S
C202 C203 1.389 . S
C202 H224 0.929 . S
C203 C199 1.397 1_655 S
C203 C202 1.389 . S
C203 H225 0.931 . S
C204 C201 1.481 . S
C204 C205 1.387 . S
C204 C209 1.390 1_455 S
C205 C204 1.387 . S
C205 C206 1.401 . S
C205 H226 0.930 . S
C206 C205 1.401 . S
C206 C207 1.376 . S
C206 C215 1.511 . S
C207 C206 1.376 . S
C207 C208 1.392 1_455 S
C207 H228 0.931 . S
C208 C207 1.392 1_655 S
C208 C209 1.361 . S
C208 C210 1.500 . S
C209 C204 1.390 1_655 S
C209 C208 1.361 . S
C209 H227 0.931 . S
C210 C208 1.500 . S
C210 C211 1.371 . S
C210 C212 1.365 . S
C211 C210 1.371 . S
C211 C221 1.386 . S
C211 H229 0.931 . S
C212 C210 1.365 . S
C212 C213 1.409 . S
C212 H230 0.929 . S
C213 C212 1.409 . S
C213 C214 1.380 . S
C213 H231 0.930 . S
C214 C213 1.380 . S
C214 C221 1.357 . S
C215 C206 1.511 . S
C215 C216 1.341 . S
C215 C217 1.371 . S
C216 C215 1.341 . S
C216 C220 1.394 . S
C216 H232 0.930 . S
C217 C215 1.371 . S
C217 C218 1.392 . S
C217 H233 0.931 . S
C218 C217 1.392 . S
C218 C219 1.331 . S
C218 H236 0.932 . S
C219 C218 1.331 . S
C219 C220 1.336 . S
C220 C216 1.394 . S
C220 C219 1.336 . S
C220 H235 0.929 . S
C221 C211 1.386 . S
C221 C214 1.357 . S
C221 H234 0.928 . S
H222 C198 0.931 . S
H223 C200 0.930 . S
H224 C202 0.929 . S
H225 C203 0.931 . S
H226 C205 0.930 . S
H227 C209 0.931 . S
H228 C207 0.931 . S
H229 C211 0.931 . S
H230 C212 0.929 . S
H231 C213 0.930 . S
H232 C216 0.930 . S
H233 C217 0.931 . S
H234 C221 0.928 . S
H235 C220 0.929 . S
H236 C218 0.932 . S
C237 C238 1.386 1_655 S
C237 C239 1.397 . S
C237 H261 0.931 . S
C238 C237 1.386 1_455 S
C238 C242 1.397 . S
C239 C237 1.397 . S
C239 C240 1.384 1_655 S
C239 H262 0.930 . S
C240 C239 1.384 1_455 S
C240 C241 1.377 . S
C240 C243 1.481 . S
C241 C240 1.377 . S
C241 C242 1.389 . S
C241 H263 0.929 . S
C242 C238 1.397 . S
C242 C241 1.389 . S
C242 H264 0.931 . S
C243 C240 1.481 . S
C243 C244 1.387 1_455 S
C243 C248 1.390 . S
C244 C243 1.387 1_655 S
C244 C245 1.401 . S
C244 H265 0.930 . S
C245 C244 1.401 . S
C245 C246 1.376 1_655 S
C245 C254 1.511 . S
C246 C245 1.376 1_455 S
C246 C247 1.392 . S
C246 H267 0.931 . S
C247 C246 1.392 . S
C247 C248 1.361 . S
C247 C249 1.500 . S
C248 C243 1.390 . S
C248 C247 1.361 . S
C248 H266 0.931 . S
C249 C247 1.500 . S
C249 C250 1.371 . S
C249 C251 1.365 . S
C250 C249 1.371 . S
C250 C260 1.386 . S
C250 H268 0.931 . S
C251 C249 1.365 . S
C251 C252 1.409 . S
C251 H269 0.929 . S
C252 C251 1.409 . S
C252 C253 1.380 . S
C252 H270 0.930 . S
C253 C252 1.380 . S
C253 C260 1.357 . S
C254 C245 1.511 . S
C254 C255 1.341 . S
C254 C256 1.371 . S
C255 C254 1.341 . S
C255 C259 1.394 . S
C255 H271 0.930 . S
C256 C254 1.371 . S
C256 C257 1.392 . S
C256 H272 0.931 . S
C257 C256 1.392 . S
C257 C258 1.331 . S
C257 H275 0.932 . S
C258 C257 1.331 . S
C258 C259 1.336 . S
C259 C255 1.394 . S
C259 C258 1.336 . S
C259 H274 0.929 . S
C260 C250 1.386 . S
C260 C253 1.357 . S
C260 H273 0.928 . S
H261 C237 0.931 . S
H262 C239 0.930 . S
H263 C241 0.929 . S
H264 C242 0.931 . S
H265 C244 0.930 . S
H266 C248 0.931 . S
H267 C246 0.931 . S
H268 C250 0.931 . S
H269 C251 0.929 . S
H270 C252 0.930 . S
H271 C255 0.930 . S
H272 C256 0.931 . S
H273 C260 0.928 . S
H274 C259 0.929 . S
H275 C257 0.932 . S
C276 C277 1.386 1_565 S
C276 C278 1.397 . S
C276 H300 0.931 . S
C277 C276 1.386 1_545 S
C277 C281 1.397 . S
C278 C276 1.397 . S
C278 C279 1.373 1_565 S
C278 H301 0.930 . S
C279 C278 1.373 1_545 S
C279 C280 1.389 . S
C279 C282 1.480 1_545 S
C280 C279 1.389 . S
C280 C281 1.389 . S
C280 H302 0.929 . S
C281 C277 1.397 . S
C281 C280 1.389 . S
C281 H303 0.931 . S
C282 C279 1.480 1_565 S
C282 C283 1.397 . S
C282 C287 1.380 1_565 S
C283 C282 1.397 . S
C283 C284 1.401 . S
C283 H304 0.930 . S
C284 C283 1.401 . S
C284 C285 1.376 . S
C284 C293 1.511 . S
C285 C284 1.376 . S
C285 C286 1.392 1_565 S
C285 H306 0.931 . S
C286 C285 1.392 1_545 S
C286 C287 1.361 . S
C286 C288 1.500 . S
C287 C282 1.380 1_545 S
C287 C286 1.361 . S
C287 H305 0.931 . S
C288 C286 1.500 . S
C288 C289 1.371 . S
C288 C290 1.365 . S
C289 C288 1.371 . S
C289 C299 1.386 . S
C289 H307 0.931 . S
C290 C288 1.365 . S
C290 C291 1.409 . S
C290 H308 0.929 . S
C291 C290 1.409 . S
C291 C292 1.380 . S
C291 H309 0.930 . S
C292 C291 1.380 . S
C292 C299 1.357 . S
C293 C284 1.511 . S
C293 C294 1.341 . S
C293 C295 1.371 . S
C294 C293 1.341 . S
C294 C298 1.394 . S
C294 H310 0.930 . S
C295 C293 1.371 . S
C295 C296 1.392 . S
C295 H311 0.931 . S
C296 C295 1.392 . S
C296 C297 1.331 . S
C296 H314 0.932 . S
C297 C296 1.331 . S
C297 C298 1.336 . S
C298 C294 1.394 . S
C298 C297 1.336 . S
C298 H313 0.929 . S
C299 C289 1.386 . S
C299 C292 1.357 . S
C299 H312 0.928 . S
H300 C276 0.931 . S
H301 C278 0.930 . S
H302 C280 0.929 . S
H303 C281 0.931 . S
H304 C283 0.930 . S
H305 C287 0.931 . S
H306 C285 0.931 . S
H307 C289 0.931 . S
H308 C290 0.929 . S
H309 C291 0.930 . S
H310 C294 0.930 . S
H311 C295 0.931 . S
H312 C299 0.928 . S
H313 C298 0.929 . S
H314 C296 0.932 . S
C315 C316 1.386 . S
C315 C317 1.397 . S
C315 H339 0.931 . S
C316 C315 1.386 . S
C316 C320 1.397 . S
C317 C315 1.397 . S
C317 C318 1.384 . S
C317 H340 0.930 . S
C318 C317 1.384 . S
C318 C319 1.377 . S
C318 C321 1.481 . S
C319 C318 1.377 . S
C319 C320 1.389 . S
C319 H341 0.929 . S
C320 C316 1.397 . S
C320 C319 1.389 . S
C320 H342 0.931 . S
C321 C318 1.481 . S
C321 C322 1.387 . S
C321 C326 1.390 . S
C322 C321 1.387 . S
C322 C323 1.401 . S
C322 H343 0.930 . S
C323 C322 1.401 . S
C323 C324 1.376 . S
C323 C332 1.511 . S
C324 C323 1.376 . S
C324 C325 1.392 . S
C324 H345 0.931 . S
C325 C324 1.392 . S
C325 C326 1.361 . S
C325 C327 1.500 . S
C326 C321 1.390 . S
C326 C325 1.361 . S
C326 H344 0.931 . S
C327 C325 1.500 . S
C327 C328 1.371 . S
C327 C329 1.365 . S
C328 C327 1.371 . S
C328 C338 1.386 . S
C328 H346 0.931 . S
C329 C327 1.365 . S
C329 C330 1.409 . S
C329 H347 0.929 . S
C330 C329 1.409 . S
C330 C331 1.380 . S
C330 H348 0.930 . S
C331 C330 1.380 . S
C331 C338 1.357 . S
C332 C323 1.511 . S
C332 C333 1.341 . S
C332 C334 1.371 . S
C333 C332 1.341 . S
C333 C337 1.394 . S
C333 H349 0.930 . S
C334 C332 1.371 . S
C334 C335 1.392 . S
C334 H350 0.931 . S
C335 C334 1.392 . S
C335 C336 1.331 . S
C335 H353 0.932 . S
C336 C335 1.331 . S
C336 C337 1.336 . S
C337 C333 1.394 . S
C337 C336 1.336 . S
C337 H352 0.929 . S
C338 C328 1.386 . S
C338 C331 1.357 . S
C338 H351 0.928 . S
H339 C315 0.931 . S
H340 C317 0.930 . S
H341 C319 0.929 . S
H342 C320 0.931 . S
H343 C322 0.930 . S
H344 C326 0.931 . S
H345 C324 0.931 . S
H346 C328 0.931 . S
H347 C329 0.929 . S
H348 C330 0.930 . S
H349 C333 0.930 . S
H350 C334 0.931 . S
H351 C338 0.928 . S
H352 C337 0.929 . S
H353 C335 0.932 . S
H354 C360 0.930 . S
H355 C364 0.930 . S
H356 C369 0.929 . S
H357 C367 0.929 . S
H358 C362 0.929 . S
H359 C368 0.929 . S
C360 H354 0.930 . S
C360 C361 1.367 . S
C360 C368 1.378 . S
C361 C360 1.367 . S
C361 C369 1.433 . S
C362 H358 0.929 . S
C362 C364 1.378 . S
C362 C366 1.350 . S
C363 C366 1.463 . S
C363 C368 1.350 . S
C363 N371 1.427 . S
C364 H355 0.930 . S
C364 C362 1.378 . S
C364 C365 1.367 . S
C365 C364 1.367 . S
C365 C367 1.433 . S
C366 C362 1.350 . S
C366 C363 1.463 . S
C366 N370 1.427 . S
C367 H357 0.929 . S
C367 C365 1.433 . S
C367 N370 1.384 . S
C368 H359 0.929 . S
C368 C360 1.378 . S
C368 C363 1.350 . S
C369 H356 0.929 . S
C369 C361 1.433 . S
C369 N371 1.384 . S
N370 C366 1.427 . S
N370 C367 1.384 . S
N371 C363 1.427 . S
N371 C369 1.384 . S
H372 C378 0.930 . S
H373 C382 0.930 . S
H374 C387 0.929 . S
H375 C385 0.929 . S
H376 C380 0.929 . S
H377 C386 0.929 . S
C378 H372 0.930 . S
C378 C379 1.367 . S
C378 C386 1.378 . S
C379 C378 1.367 . S
C379 C387 1.433 . S
C380 H376 0.929 . S
C380 C382 1.378 . S
C380 C384 1.350 . S
C381 C384 1.463 . S
C381 C386 1.350 . S
C381 N389 1.427 . S
C382 H373 0.930 . S
C382 C380 1.378 . S
C382 C383 1.367 . S
C383 C382 1.367 . S
C383 C385 1.433 . S
C384 C380 1.350 . S
C384 C381 1.463 . S
C384 N388 1.427 . S
C385 H375 0.929 . S
C385 C383 1.433 . S
C385 N388 1.384 . S
C386 H377 0.929 . S
C386 C378 1.378 . S
C386 C381 1.350 . S
C387 H374 0.929 . S
C387 C379 1.433 . S
C387 N389 1.384 . S
N388 C384 1.427 . S
N388 C385 1.384 . S
N389 C381 1.427 . S
N389 C387 1.384 . S
H390 C396 0.930 . S
H391 C400 0.930 . S
H392 C405 0.929 . S
H393 C403 0.929 . S
H394 C398 0.929 . S
H395 C404 0.929 . S
C396 H390 0.930 . S
C396 C397 1.367 . S
C396 C404 1.378 . S
C397 C396 1.367 . S
C397 C405 1.433 . S
C398 H394 0.929 . S
C398 C400 1.378 . S
C398 C402 1.350 . S
C399 C402 1.463 . S
C399 C404 1.350 . S
C399 N407 1.427 . S
C400 H391 0.930 . S
C400 C398 1.378 . S
C400 C401 1.367 . S
C401 C400 1.367 . S
C401 C403 1.433 . S
C402 C398 1.350 . S
C402 C399 1.463 . S
C402 N406 1.427 . S
C403 H393 0.929 . S
C403 C401 1.433 . S
C403 N406 1.384 . S
C404 H395 0.929 . S
C404 C396 1.378 . S
C404 C399 1.350 . S
C405 H392 0.929 . S
C405 C397 1.433 . S
C405 N407 1.384 . S
N406 C402 1.427 . S
N406 C403 1.384 . S
N407 C399 1.427 . S
N407 C405 1.384 . S
H408 C414 0.930 . S
H409 C418 0.930 . S
H410 C423 0.929 . S
H411 C421 0.929 . S
H412 C416 0.929 . S
H413 C422 0.929 . S
C414 H408 0.930 . S
C414 C415 1.367 . S
C414 C422 1.378 . S
C415 C414 1.367 . S
C415 C423 1.433 . S
C416 H412 0.929 . S
C416 C418 1.378 . S
C416 C420 1.350 . S
C417 C420 1.463 . S
C417 C422 1.350 . S
C417 N425 1.427 . S
C418 H409 0.930 . S
C418 C416 1.378 . S
C418 C419 1.367 . S
C419 C418 1.367 . S
C419 C421 1.433 . S
C420 C416 1.350 . S
C420 C417 1.463 . S
C420 N424 1.427 . S
C421 H411 0.929 . S
C421 C419 1.433 . S
C421 N424 1.384 . S
C422 H413 0.929 . S
C422 C414 1.378 . S
C422 C417 1.350 . S
C423 H410 0.929 . S
C423 C415 1.433 . S
C423 N425 1.384 . S
N424 C420 1.427 . S
N424 C421 1.384 . S
N425 C417 1.427 . S
N425 C423 1.384 . S
H426 C432 0.930 . S
H427 C436 0.930 . S
H428 C441 0.929 . S
H429 C439 0.929 . S
H430 C434 0.929 . S
H431 C440 0.929 . S
C432 H426 0.930 . S
C432 C433 1.367 . S
C432 C440 1.378 . S
C433 C432 1.367 . S
C433 C441 1.433 . S
C434 H430 0.929 . S
C434 C436 1.378 . S
C434 C438 1.350 . S
C435 C438 1.463 . S
C435 C440 1.350 . S
C435 N443 1.427 . S
C436 H427 0.930 . S
C436 C434 1.378 . S
C436 C437 1.367 . S
C437 C436 1.367 . S
C437 C439 1.433 . S
C438 C434 1.350 . S
C438 C435 1.463 . S
C438 N442 1.427 . S
C439 H429 0.929 . S
C439 C437 1.433 . S
C439 N442 1.384 . S
C440 H431 0.929 . S
C440 C432 1.378 . S
C440 C435 1.350 . S
C441 H428 0.929 . S
C441 C433 1.433 . S
C441 N443 1.384 . S
N442 C438 1.427 . S
N442 C439 1.384 . S
N443 C435 1.427 . S
N443 C441 1.384 . S
H444 C450 0.930 . S
H445 C454 0.930 . S
H446 C459 0.929 . S
H447 C457 0.929 . S
H448 C452 0.929 . S
H449 C458 0.929 . S
C450 H444 0.930 . S
C450 C451 1.367 . S
C450 C458 1.378 . S
C451 C450 1.367 . S
C451 C459 1.433 . S
C452 H448 0.929 . S
C452 C454 1.378 . S
C452 C456 1.350 . S
C453 C456 1.463 . S
C453 C458 1.350 . S
C453 N461 1.427 . S
C454 H445 0.930 . S
C454 C452 1.378 . S
C454 C455 1.367 . S
C455 C454 1.367 . S
C455 C457 1.433 . S
C456 C452 1.350 . S
C456 C453 1.463 . S
C456 N460 1.427 . S
C457 H447 0.929 . S
C457 C455 1.433 . S
C457 N460 1.384 . S
C458 H449 0.929 . S
C458 C450 1.378 . S
C458 C453 1.350 . S
C459 H446 0.929 . S
C459 C451 1.433 . S
C459 N461 1.384 . S
N460 C456 1.427 . S
N460 C457 1.384 . S
N461 C453 1.427 . S
N461 C459 1.384 . S
H462 C468 0.930 . S
H463 C472 0.930 . S
H464 C477 0.929 . S
H465 C475 0.929 . S
H466 C470 0.929 . S
H467 C476 0.929 . S
C468 H462 0.930 . S
C468 C469 1.367 . S
C468 C476 1.378 . S
C469 C468 1.367 . S
C469 C477 1.433 . S
C470 H466 0.929 . S
C470 C472 1.378 . S
C470 C474 1.350 . S
C471 C474 1.463 . S
C471 C476 1.350 . S
C471 N479 1.427 . S
C472 H463 0.930 . S
C472 C470 1.378 . S
C472 C473 1.367 . S
C473 C472 1.367 . S
C473 C475 1.433 . S
C474 C470 1.350 . S
C474 C471 1.463 . S
C474 N478 1.427 . S
C475 H465 0.929 . S
C475 C473 1.433 . S
C475 N478 1.384 . S
C476 H467 0.929 . S
C476 C468 1.378 . S
C476 C471 1.350 . S
C477 H464 0.929 . S
C477 C469 1.433 . S
C477 N479 1.384 . S
N478 C474 1.427 . S
N478 C475 1.384 . S
N479 C471 1.427 . S
N479 C477 1.384 . S
H480 C486 0.930 . S
H481 C490 0.930 . S
H482 C495 0.929 . S
H483 C493 0.929 . S
H484 C488 0.929 . S
H485 C494 0.929 . S
C486 H480 0.930 . S
C486 C487 1.367 . S
C486 C494 1.378 . S
C487 C486 1.367 . S
C487 C495 1.433 . S
C488 H484 0.929 . S
C488 C490 1.378 . S
C488 C492 1.350 . S
C489 C492 1.463 . S
C489 C494 1.350 . S
C489 N497 1.427 . S
C490 H481 0.930 . S
C490 C488 1.378 . S
C490 C491 1.367 . S
C491 C490 1.367 . S
C491 C493 1.433 . S
C492 C488 1.350 . S
C492 C489 1.463 . S
C492 N496 1.427 . S
C493 H483 0.929 . S
C493 C491 1.433 . S
C493 N496 1.384 . S
C494 H485 0.929 . S
C494 C486 1.378 . S
C494 C489 1.350 . S
C495 H482 0.929 . S
C495 C487 1.433 . S
C495 N497 1.384 . S
N496 C492 1.427 . S
N496 C493 1.384 . S
N497 C489 1.427 . S
N497 C495 1.384 . S
H498 C504 0.930 . S
H499 C508 0.930 . S
H500 C513 0.929 . S
H501 C511 0.929 . S
H502 C506 0.929 . S
H503 C512 0.929 . S
C504 H498 0.930 . S
C504 C505 1.367 . S
C504 C512 1.378 . S
C505 C504 1.367 . S
C505 C513 1.433 . S
C506 H502 0.929 . S
C506 C508 1.378 . S
C506 C510 1.350 . S
C507 C510 1.463 . S
C507 C512 1.350 . S
C507 N515 1.427 . S
C508 H499 0.930 . S
C508 C506 1.378 . S
C508 C509 1.367 . S
C509 C508 1.367 . S
C509 C511 1.433 . S
C510 C506 1.350 . S
C510 C507 1.463 . S
C510 N514 1.427 . S
C511 H501 0.929 . S
C511 C509 1.433 . S
C511 N514 1.384 . S
C512 H503 0.929 . S
C512 C504 1.378 . S
C512 C507 1.350 . S
C513 H500 0.929 . S
C513 C505 1.433 . S
C513 N515 1.384 . S
N514 C510 1.427 . S
N514 C511 1.384 . S
N515 C507 1.427 . S
N515 C513 1.384 . S
H516 C522 0.930 . S
H517 C526 0.930 . S
H518 C531 0.929 . S
H519 C529 0.929 . S
H520 C524 0.929 . S
H521 C530 0.929 . S
C522 H516 0.930 . S
C522 C523 1.367 . S
C522 C530 1.378 . S
C523 C522 1.367 . S
C523 C531 1.433 . S
C524 H520 0.929 . S
C524 C526 1.378 . S
C524 C528 1.350 . S
C525 C528 1.463 . S
C525 C530 1.350 . S
C525 N533 1.427 . S
C526 H517 0.930 . S
C526 C524 1.378 . S
C526 C527 1.367 . S
C527 C526 1.367 . S
C527 C529 1.433 . S
C528 C524 1.350 . S
C528 C525 1.463 . S
C528 N532 1.427 . S
C529 H519 0.929 . S
C529 C527 1.433 . S
C529 N532 1.384 . S
C530 H521 0.929 . S
C530 C522 1.378 . S
C530 C525 1.350 . S
C531 H518 0.929 . S
C531 C523 1.433 . S
C531 N533 1.384 . S
N532 C528 1.427 . S
N532 C529 1.384 . S
N533 C525 1.427 . S
N533 C531 1.384 . S
H534 C540 0.930 . S
H535 C544 0.930 . S
H536 C549 0.929 . S
H537 C547 0.929 . S
H538 C542 0.929 . S
H539 C548 0.929 . S
C540 H534 0.930 . S
C540 C541 1.367 . S
C540 C548 1.378 . S
C541 C540 1.367 . S
C541 C549 1.433 . S
C542 H538 0.929 . S
C542 C544 1.378 . S
C542 C546 1.350 . S
C543 C546 1.463 . S
C543 C548 1.350 . S
C543 N551 1.427 . S
C544 H535 0.930 . S
C544 C542 1.378 . S
C544 C545 1.367 . S
C545 C544 1.367 . S
C545 C547 1.433 . S
C546 C542 1.350 . S
C546 C543 1.463 . S
C546 N550 1.427 . S
C547 H537 0.929 . S
C547 C545 1.433 . S
C547 N550 1.384 . S
C548 H539 0.929 . S
C548 C540 1.378 . S
C548 C543 1.350 . S
C549 H536 0.929 . S
C549 C541 1.433 . S
C549 N551 1.384 . S
N550 C546 1.427 . S
N550 C547 1.384 . S
N551 C543 1.427 . S
N551 C549 1.384 . S
H552 C558 0.930 . S
H553 C562 0.930 . S
H554 C567 0.929 . S
H555 C565 0.929 . S
H556 C560 0.929 . S
H557 C566 0.929 . S
C558 H552 0.930 . S
C558 C559 1.367 . S
C558 C566 1.378 . S
C559 C558 1.367 . S
C559 C567 1.433 . S
C560 H556 0.929 . S
C560 C562 1.378 . S
C560 C564 1.350 . S
C561 C564 1.463 . S
C561 C566 1.350 . S
C561 N569 1.427 . S
C562 H553 0.930 . S
C562 C560 1.378 . S
C562 C563 1.367 . S
C563 C562 1.367 . S
C563 C565 1.433 . S
C564 C560 1.350 . S
C564 C561 1.463 . S
C564 N568 1.427 . S
C565 H555 0.929 . S
C565 C563 1.433 . S
C565 N568 1.384 . S
C566 H557 0.929 . S
C566 C558 1.378 . S
C566 C561 1.350 . S
C567 H554 0.929 . S
C567 C559 1.433 . S
C567 N569 1.384 . S
N568 C564 1.427 . S
N568 C565 1.384 . S
N569 C561 1.427 . S
N569 C567 1.384 . S
H570 C576 0.930 . S
H571 C580 0.930 . S
H572 C585 0.929 . S
H573 C583 0.929 . S
H574 C578 0.929 . S
H575 C584 0.929 . S
C576 H570 0.930 . S
C576 C577 1.367 . S
C576 C584 1.378 . S
C577 C576 1.367 . S
C577 C585 1.433 . S
C578 H574 0.929 . S
C578 C580 1.378 . S
C578 C582 1.350 . S
C579 C582 1.463 . S
C579 C584 1.350 . S
C579 N587 1.427 . S
C580 H571 0.930 . S
C580 C578 1.378 . S
C580 C581 1.367 . S
C581 C580 1.367 . S
C581 C583 1.433 . S
C582 C578 1.350 . S
C582 C579 1.463 . S
C582 N586 1.427 . S
C583 H573 0.929 . S
C583 C581 1.433 . S
C583 N586 1.384 . S
C584 H575 0.929 . S
C584 C576 1.378 . S
C584 C579 1.350 . S
C585 H572 0.929 . S
C585 C577 1.433 . S
C585 N587 1.384 . S
N586 C582 1.427 . S
N586 C583 1.384 . S
N587 C579 1.427 . S
N587 C585 1.384 . S
H588 C594 0.930 . S
H589 C598 0.930 1_565 S
H590 C603 0.929 1_565 S
H591 C601 0.929 . S
H592 C596 0.929 1_565 S
H593 C602 0.929 . S
C594 H588 0.930 . S
C594 C595 1.367 . S
C594 C602 1.378 . S
C595 C594 1.367 . S
C595 C603 1.433 . S
C596 H592 0.929 1_545 S
C596 C598 1.378 . S
C596 C600 1.350 . S
C597 C600 1.463 . S
C597 C602 1.350 . S
C597 N605 1.427 . S
C598 H589 0.930 1_545 S
C598 C596 1.378 . S
C598 C599 1.367 . S
C599 C598 1.367 . S
C599 C601 1.433 . S
C600 C596 1.350 . S
C600 C597 1.463 . S
C600 N604 1.427 . S
C601 H591 0.929 . S
C601 C599 1.433 . S
C601 N604 1.384 . S
C602 H593 0.929 . S
C602 C594 1.378 . S
C602 C597 1.350 . S
C603 H590 0.929 1_545 S
C603 C595 1.433 . S
C603 N605 1.384 . S
N604 C600 1.427 . S
N604 C601 1.384 . S
N605 C597 1.427 . S
N605 C603 1.384 . S
H606 C612 0.930 . S
H607 C616 0.930 . S
H608 C621 0.929 . S
H609 C619 0.929 . S
H610 C614 0.929 . S
H611 C620 0.929 . S
C612 H606 0.930 . S
C612 C613 1.367 . S
C612 C620 1.378 . S
C613 C612 1.367 . S
C613 C621 1.433 . S
C614 H610 0.929 . S
C614 C616 1.378 . S
C614 C618 1.350 . S
C615 C618 1.463 . S
C615 C620 1.350 . S
C615 N623 1.427 . S
C616 H607 0.930 . S
C616 C614 1.378 . S
C616 C617 1.367 . S
C617 C616 1.367 . S
C617 C619 1.433 . S
C618 C614 1.350 . S
C618 C615 1.463 . S
C618 N622 1.427 . S
C619 H609 0.929 . S
C619 C617 1.433 . S
C619 N622 1.384 . S
C620 H611 0.929 . S
C620 C612 1.378 . S
C620 C615 1.350 . S
C621 H608 0.929 . S
C621 C613 1.433 . S
C621 N623 1.384 . S
N622 C618 1.427 . S
N622 C619 1.384 . S
N623 C615 1.427 . S
N623 C621 1.384 . S
H624 C630 0.930 . S
H625 C634 0.930 . S
H626 C639 0.929 1_565 S
H627 C637 0.929 . S
H628 C632 0.929 . S
H629 C638 0.929 . S
C630 H624 0.930 . S
C630 C631 1.367 . S
C630 C638 1.378 . S
C631 C630 1.367 . S
C631 C639 1.433 . S
C632 H628 0.929 . S
C632 C634 1.378 . S
C632 C636 1.350 1_565 S
C633 C636 1.463 . S
C633 C638 1.350 . S
C633 N641 1.427 1_545 S
C634 H625 0.930 . S
C634 C632 1.378 . S
C634 C635 1.367 1_565 S
C635 C634 1.367 1_545 S
C635 C637 1.433 . S
C636 C632 1.350 1_545 S
C636 C633 1.463 . S
C636 N640 1.427 . S
C637 H627 0.929 . S
C637 C635 1.433 . S
C637 N640 1.384 . S
C638 H629 0.929 . S
C638 C630 1.378 . S
C638 C633 1.350 . S
C639 H626 0.929 1_545 S
C639 C631 1.433 . S
C639 N641 1.384 1_545 S
N640 C636 1.427 . S
N640 C637 1.384 . S
N641 C633 1.427 1_565 S
N641 C639 1.384 1_565 S
H642 C648 0.930 . S
H643 C652 0.930 . S
H644 C657 0.929 . S
H645 C655 0.929 . S
H646 C650 0.929 . S
H647 C656 0.929 . S
C648 H642 0.930 . S
C648 C649 1.367 . S
C648 C656 1.378 . S
C649 C648 1.367 . S
C649 C657 1.433 . S
C650 H646 0.929 . S
C650 C652 1.378 . S
C650 C654 1.350 . S
C651 C654 1.463 . S
C651 C656 1.350 . S
C651 N659 1.427 . S
C652 H643 0.930 . S
C652 C650 1.378 . S
C652 C653 1.367 . S
C653 C652 1.367 . S
C653 C655 1.433 . S
C654 C650 1.350 . S
C654 C651 1.463 . S
C654 N658 1.427 . S
C655 H645 0.929 . S
C655 C653 1.433 . S
C655 N658 1.384 . S
C656 H647 0.929 . S
C656 C648 1.378 . S
C656 C651 1.350 . S
C657 H644 0.929 . S
C657 C649 1.433 . S
C657 N659 1.384 . S
N658 C654 1.427 . S
N658 C655 1.384 . S
N659 C651 1.427 . S
N659 C657 1.384 . S
H660 C666 0.909 1_655 S
H661 C670 0.930 . S
H662 C675 0.929 . S
H663 C673 0.929 . S
H664 C668 0.929 . S
H665 C674 0.929 . S
C666 H660 0.909 1_455 S
C666 C667 1.396 . S
C666 C674 1.371 1_455 S
C667 C666 1.396 . S
C667 C675 1.433 . S
C668 H664 0.929 . S
C668 C670 1.378 . S
C668 C672 1.350 . S
C669 C672 1.463 . S
C669 C674 1.350 1_455 S
C669 N677 1.427 . S
C670 H661 0.930 . S
C670 C668 1.378 . S
C670 C671 1.367 . S
C671 C670 1.367 . S
C671 C673 1.433 1_455 S
C672 C668 1.350 . S
C672 C669 1.463 . S
C672 N676 1.427 1_455 S
C673 H663 0.929 . S
C673 C671 1.433 1_655 S
C673 N676 1.384 . S
C674 H665 0.929 . S
C674 C666 1.371 1_655 S
C674 C669 1.350 1_655 S
C675 H662 0.929 . S
C675 C667 1.433 . S
C675 N677 1.384 . S
N676 C672 1.427 1_655 S
N676 C673 1.384 . S
N677 C669 1.427 . S
N677 C675 1.384 . S
C361 C9 0.520 . S
C365 C331 0.496 . S
C379 C49 0.313 . S
C383 C258 0.287 . S
C397 C89 0.298 . S
C401 C297 0.319 . S
C415 C26 0.403 . S
C419 C336 0.324 . S
C437 C253 0.418 . S
C433 C66 0.482 . S
C455 C292 0.464 . S
C451 C106 0.538 . S
C469 C43 2.968 . S
C473 C180 2.919 . S
C487 C83 3.114 . S
C491 C214 3.056 . S
C505 C22 3.160 . S
C509 C136 3.095 . S
C527 C175 3.089 . S
C523 C62 3.154 . S
C545 C219 2.952 . S
C541 C102 3.004 . S
C559 C3 2.962 . S
C563 C141 2.923 . S
C581 C199 1.790 1_554 S
C577 C15 1.724 . S
C595 C55 1.751 . S
C599 C121 1.791 . S
C613 C95 1.745 . S
C617 C160 1.786 . S
C635 C277 1.080 . S
C631 C42 1.070 . S
C653 C316 1.090 1_556 S
C649 C82 1.071 . S
C667 C2 1.070 . S
C671 C238 1.073 . S
