# Generated by pormake.
# Topology zzz, (3,6)-cn, num edge types: 1
# Building blocks:
#     Node 0, Type 0, BuildingBlock: BELTOD_clean_linker_0, # of connection points: 3
#     Node 1, Type 0, BuildingBlock: BELTOD_clean_linker_0, # of connection points: 3
#     Node 2, Type 0, BuildingBlock: BELTOD_clean_linker_0, # of connection points: 3
#     Node 3, Type 0, BuildingBlock: BELTOD_clean_linker_0, # of connection points: 3
#     Node 4, Type 0, BuildingBlock: BELTOD_clean_linker_0, # of connection points: 3
#     Node 5, Type 0, BuildingBlock: BELTOD_clean_linker_0, # of connection points: 3
#     Node 6, Type 0, BuildingBlock: BELTOD_clean_linker_0, # of connection points: 3
#     Node 7, Type 0, BuildingBlock: BELTOD_clean_linker_0, # of connection points: 3
#     Node 8, Type 1, BuildingBlock: VOLQOD_clean_sbu_1, # of connection points: 6
#     Node 9, Type 1, BuildingBlock: VOLQOD_clean_sbu_1, # of connection points: 6
#     Node 10, Type 1, BuildingBlock: VOLQOD_clean_sbu_1, # of connection points: 6
#     Node 11, Type 1, BuildingBlock: VOLQOD_clean_sbu_1, # of connection points: 6
#     Edge 12, Type (0, 1), BuildingBlock: MIFKUJ_clean_linker_0, # of connection points: 2
#     Edge 13, Type (0, 1), BuildingBlock: MIFKUJ_clean_linker_0, # of connection points: 2
#     Edge 14, Type (0, 1), BuildingBlock: MIFKUJ_clean_linker_0, # of connection points: 2
#     Edge 15, Type (0, 1), BuildingBlock: MIFKUJ_clean_linker_0, # of connection points: 2
#     Edge 16, Type (0, 1), BuildingBlock: MIFKUJ_clean_linker_0, # of connection points: 2
#     Edge 17, Type (0, 1), BuildingBlock: MIFKUJ_clean_linker_0, # of connection points: 2
#     Edge 18, Type (0, 1), BuildingBlock: MIFKUJ_clean_linker_0, # of connection points: 2
#     Edge 19, Type (0, 1), BuildingBlock: MIFKUJ_clean_linker_0, # of connection points: 2
#     Edge 20, Type (0, 1), BuildingBlock: MIFKUJ_clean_linker_0, # of connection points: 2
#     Edge 21, Type (0, 1), BuildingBlock: MIFKUJ_clean_linker_0, # of connection points: 2
#     Edge 22, Type (0, 1), BuildingBlock: MIFKUJ_clean_linker_0, # of connection points: 2
#     Edge 23, Type (0, 1), BuildingBlock: MIFKUJ_clean_linker_0, # of connection points: 2
#     Edge 24, Type (0, 1), BuildingBlock: MIFKUJ_clean_linker_0, # of connection points: 2
#     Edge 25, Type (0, 1), BuildingBlock: MIFKUJ_clean_linker_0, # of connection points: 2
#     Edge 26, Type (0, 1), BuildingBlock: MIFKUJ_clean_linker_0, # of connection points: 2
#     Edge 27, Type (0, 1), BuildingBlock: MIFKUJ_clean_linker_0, # of connection points: 2
#     Edge 28, Type (0, 1), BuildingBlock: MIFKUJ_clean_linker_0, # of connection points: 2
#     Edge 29, Type (0, 1), BuildingBlock: MIFKUJ_clean_linker_0, # of connection points: 2
#     Edge 30, Type (0, 1), BuildingBlock: MIFKUJ_clean_linker_0, # of connection points: 2
#     Edge 31, Type (0, 1), BuildingBlock: MIFKUJ_clean_linker_0, # of connection points: 2
#     Edge 32, Type (0, 1), BuildingBlock: MIFKUJ_clean_linker_0, # of connection points: 2
#     Edge 33, Type (0, 1), BuildingBlock: MIFKUJ_clean_linker_0, # of connection points: 2
#     Edge 34, Type (0, 1), BuildingBlock: MIFKUJ_clean_linker_0, # of connection points: 2
#     Edge 35, Type (0, 1), BuildingBlock: MIFKUJ_clean_linker_0, # of connection points: 2
# Relax obj value: 0.337
# Max RMSD: 0.254
# Mean RMSD: 0.197
data_MOF--net-zzz--node1-VOLQOD_clean_sbu_1--node2-BELTOD_clean_linker_0--edge1-MIFKUJ_clean_linker_0
_symmetry_space_group_name_H-M    P1
_symmetry_Int_Tables_number       1
_symmetry_cell_setting            triclinic
loop_
_symmetry_equiv_pos_as_xyz
'x, y, z'
_cell_length_a     67.914198
_cell_length_b     66.863869
_cell_length_c     26.445553
_cell_angle_alpha  90.167663
_cell_angle_beta   90.173834
_cell_angle_gamma 92.060965
loop_
_atom_site_label
_atom_site_type_symbol
_atom_site_fract_x
_atom_site_fract_y
_atom_site_fract_z
_atom_type_partial_charge
P0 P 0.77472 0.41906 0.18227 0.0
H1 H 0.77335 0.42783 0.29106 0.0
H2 H 0.79077 0.45305 0.34317 0.0
H3 H 0.81418 0.48123 0.20814 0.0
H4 H 0.79755 0.45548 0.1567 0.0
H5 H 0.73768 0.39747 0.15804 0.0
H6 H 0.70946 0.40588 0.10546 0.0
H7 H 0.73677 0.46402 0.0759 0.0
H8 H 0.76459 0.45568 0.12875 0.0
H9 H 0.81725 0.41664 0.1932 0.0
H10 H 0.77392 0.4056 0.07588 0.0
O11 O 0.76928 0.39951 0.2194 0.0
H12 H 0.84351 0.41209 0.13265 0.0
H13 H 0.80015 0.3998 0.01531 0.0
C14 C 0.78432 0.43966 0.22009 0.0
C15 C 0.78201 0.4396 0.2727 0.0
C16 C 0.79185 0.45416 0.30243 0.0
C17 C 0.80405 0.46905 0.27983 0.0
C18 C 0.80519 0.46978 0.2268 0.0
C19 C 0.79551 0.45516 0.19728 0.0
C20 C 0.75307 0.42609 0.14827 0.0
C21 C 0.7374 0.41215 0.14097 0.0
C22 C 0.72138 0.4169 0.11055 0.0
C23 C 0.72085 0.43565 0.0867 0.0
C24 C 0.73654 0.4496 0.09451 0.0
C25 C 0.75254 0.44482 0.12479 0.0
C26 C 0.79367 0.41218 0.1387 0.0
C27 C 0.81338 0.41293 0.15444 0.0
C28 C 0.82844 0.41006 0.1197 0.0
C29 C 0.82405 0.4058 0.06863 0.0
C30 C 0.80414 0.4036 0.05392 0.0
C31 C 0.78907 0.40681 0.08865 0.0
P32 P 0.04156 0.75429 0.18599 0.0
H33 H 0.02758 0.74475 0.28818 0.0
H34 H 0.0086 0.76373 0.34903 0.0
H35 H 0.99888 0.80847 0.23455 0.0
H36 H 0.01661 0.78886 0.17388 0.0
H37 H 0.05761 0.73398 0.09959 0.0
H38 H 0.04441 0.70825 0.04199 0.0
H39 H 0.98943 0.70662 0.12385 0.0
H40 H 0.0028 0.73262 0.1816 0.0
H41 H 0.07472 0.78228 0.20682 0.0
H42 H 0.03295 0.77066 0.08625 0.0
O43 O 0.05869 0.7437 0.22134 0.0
H44 H 0.08838 0.8113 0.16061 0.0
H45 H 0.04619 0.7996 0.04045 0.0
C46 C 0.02399 0.76568 0.22696 0.0
C47 C 0.02093 0.75842 0.27604 0.0
C48 C 0.0102 0.7694 0.31091 0.0
C49 C 0.00251 0.78795 0.2973 0.0
C50 C 0.00438 0.79427 0.24673 0.0
C51 C 0.01481 0.78312 0.21185 0.0
C52 C 0.03108 0.73543 0.14425 0.0
C53 C 0.04265 0.72823 0.10491 0.0
C54 C 0.03506 0.71359 0.07187 0.0
C55 C 0.01579 0.7056 0.078 0.0
C56 C 0.00431 0.71255 0.11818 0.0
C57 C 0.0119 0.72743 0.15105 0.0
C58 C 0.05322 0.774 0.14929 0.0
C59 C 0.06875 0.78576 0.16999 0.0
C60 C 0.07641 0.80244 0.14379 0.0
C61 C 0.0685 0.80768 0.09661 0.0
C62 C 0.05298 0.79572 0.07604 0.0
C63 C 0.04538 0.77912 0.10222 0.0
P64 P 0.76964 0.0684 0.18704 0.0
H65 H 0.77415 0.07066 0.29731 0.0
H66 H 0.75716 0.05262 0.36578 0.0
H67 H 0.7285 0.0133 0.25609 0.0
H68 H 0.74546 0.03135 0.1881 0.0
H69 H 0.80729 0.08576 0.15273 0.0
H70 H 0.83427 0.07241 0.10388 0.0
H71 H 0.80357 0.01471 0.09786 0.0
H72 H 0.77672 0.02813 0.14744 0.0
H73 H 0.72844 0.07598 0.206 0.0
H74 H 0.76578 0.06949 0.07566 0.0
O75 O 0.77659 0.09069 0.21093 0.0
H76 H 0.69972 0.07818 0.15065 0.0
H77 H 0.73703 0.07192 0.02006 0.0
C78 C 0.76096 0.05243 0.23762 0.0
C79 C 0.76457 0.05788 0.2881 0.0
C80 C 0.75481 0.0476 0.32719 0.0
C81 C 0.74139 0.03164 0.3163 0.0
C82 C 0.73892 0.02536 0.26582 0.0
C83 C 0.74861 0.0357 0.22683 0.0
C84 C 0.79011 0.05788 0.15444 0.0
C85 C 0.80645 0.07017 0.14153 0.0
C86 C 0.82182 0.06255 0.11321 0.0
C87 C 0.82106 0.04249 0.09692 0.0
C88 C 0.80473 0.03014 0.11044 0.0
C89 C 0.78933 0.03782 0.13874 0.0
C90 C 0.74915 0.07202 0.14503 0.0
C91 C 0.73048 0.07511 0.16546 0.0
C92 C 0.71409 0.07639 0.13386 0.0
C93 C 0.71616 0.07504 0.08116 0.0
C94 C 0.73506 0.07305 0.06058 0.0
C95 C 0.75146 0.07151 0.09235 0.0
P96 P 0.49625 0.74642 0.21292 0.0
H97 H 0.50251 0.74504 0.32255 0.0
H98 H 0.52281 0.72361 0.37365 0.0
H99 H 0.55344 0.70524 0.23917 0.0
H100 H 0.53225 0.72575 0.18806 0.0
H101 H 0.47507 0.7817 0.18448 0.0
H102 H 0.48188 0.80837 0.12374 0.0
H103 H 0.53891 0.7843 0.09382 0.0
H104 H 0.53219 0.75798 0.15575 0.0
H105 H 0.48696 0.70459 0.2345 0.0
H106 H 0.48787 0.74282 0.10317 0.0
O107 O 0.47743 0.75213 0.25005 0.0
H108 H 0.481 0.67534 0.18012 0.0
H109 H 0.48176 0.71361 0.04886 0.0
C110 C 0.51584 0.73707 0.25141 0.0
C111 C 0.514 0.73691 0.30418 0.0
C112 C 0.52574 0.72464 0.33351 0.0
C113 C 0.53958 0.71239 0.31048 0.0
C114 C 0.54267 0.71416 0.25807 0.0
C115 C 0.53078 0.72624 0.22878 0.0
C116 C 0.50322 0.76797 0.17537 0.0
C117 C 0.48924 0.78241 0.16583 0.0
C118 C 0.49306 0.79753 0.13054 0.0
C119 C 0.51087 0.79837 0.10352 0.0
C120 C 0.52512 0.78422 0.11431 0.0
C121 C 0.52128 0.7691 0.1498 0.0
C122 C 0.48828 0.72583 0.17289 0.0
C123 C 0.48559 0.70673 0.19408 0.0
C124 C 0.48222 0.69004 0.16305 0.0
C125 C 0.48113 0.69223 0.11033 0.0
C126 C 0.48249 0.71153 0.08942 0.0
C127 C 0.4861 0.72823 0.1205 0.0
P128 P 0.2508 0.46916 0.19382 0.0
H129 H 0.24522 0.449 0.09636 0.0
H130 H 0.2293 0.45996 0.01934 0.0
H131 H 0.23102 0.52075 0.07571 0.0
H132 H 0.24633 0.50947 0.15374 0.0
H133 H 0.27391 0.44796 0.26676 0.0
H134 H 0.30403 0.4568 0.31293 0.0
H135 H 0.31014 0.51175 0.22775 0.0
H136 H 0.28023 0.50235 0.18018 0.0
H137 H 0.20858 0.46182 0.20275 0.0
H138 H 0.25269 0.50224 0.26795 0.0
O139 O 0.24648 0.44442 0.19422 0.0
H140 H 0.18297 0.47859 0.2499 0.0
H141 H 0.22723 0.51921 0.31442 0.0
C142 C 0.24676 0.47837 0.13101 0.0
C143 C 0.24281 0.4648 0.09153 0.0
C144 C 0.23376 0.47114 0.04719 0.0
C145 C 0.22857 0.4912 0.04168 0.0
C146 C 0.23451 0.50513 0.07919 0.0
C147 C 0.24347 0.49874 0.12363 0.0
C148 C 0.27497 0.47435 0.21959 0.0
C149 C 0.28198 0.46167 0.25706 0.0
C150 C 0.29907 0.4669 0.28397 0.0
C151 C 0.30933 0.48514 0.27459 0.0
C152 C 0.30265 0.49753 0.23568 0.0
C153 C 0.28554 0.49218 0.20842 0.0
C154 C 0.23257 0.48043 0.23277 0.0
C155 C 0.21277 0.47414 0.22768 0.0
C156 C 0.19814 0.48391 0.25412 0.0
C157 C 0.20309 0.50025 0.28588 0.0
C158 C 0.22299 0.50651 0.29081 0.0
C159 C 0.23759 0.49675 0.26425 0.0
P160 P 0.12513 0.22915 0.23832 0.0
H161 H 0.13649 0.22911 0.13152 0.0
H162 H 0.12304 0.21118 0.05773 0.0
H163 H 0.07513 0.1872 0.14904 0.0
H164 H 0.08845 0.20552 0.22226 0.0
H165 H 0.13804 0.25872 0.31227 0.0
H166 H 0.12292 0.28803 0.34831 0.0
H167 H 0.07249 0.27821 0.25003 0.0
H168 H 0.08764 0.24853 0.21486 0.0
H169 H 0.14993 0.19581 0.26386 0.0
H170 H 0.09652 0.22108 0.31885 0.0
O171 O 0.14884 0.23452 0.22624 0.0
H172 H 0.14629 0.16862 0.32536 0.0
H173 H 0.09249 0.19387 0.37928 0.0
C174 C 0.11363 0.21842 0.18253 0.0
C175 C 0.12296 0.22019 0.13551 0.0
C176 C 0.11532 0.20983 0.0934 0.0
C177 C 0.09813 0.19754 0.09757 0.0
C178 C 0.08831 0.1966 0.14433 0.0
C179 C 0.09598 0.20698 0.18639 0.0
C180 C 0.11413 0.25166 0.26039 0.0
C181 C 0.12383 0.26303 0.29802 0.0
C182 C 0.11518 0.27984 0.31848 0.0
C183 C 0.09654 0.28562 0.30177 0.0
C184 C 0.08681 0.27412 0.26393 0.0
C185 C 0.09552 0.25724 0.24348 0.0
C186 C 0.12371 0.21064 0.28749 0.0
C187 C 0.13761 0.19568 0.28977 0.0
C188 C 0.13544 0.1801 0.3247 0.0
C189 C 0.11918 0.17913 0.35756 0.0
C190 C 0.10546 0.19439 0.35551 0.0
C191 C 0.10768 0.20995 0.32072 0.0
P192 P 0.28037 0.07264 0.18497 0.0
H193 H 0.28676 0.08998 0.08425 0.0
H194 H 0.30453 0.07716 0.01159 0.0
H195 H 0.30426 0.01863 0.08021 0.0
H196 H 0.2865 0.03155 0.15292 0.0
H197 H 0.25784 0.09212 0.26206 0.0
H198 H 0.22728 0.0829 0.30593 0.0
H199 H 0.21944 0.03103 0.20934 0.0
H200 H 0.25022 0.04034 0.16543 0.0
H201 H 0.32278 0.07167 0.17487 0.0
H202 H 0.27938 0.05303 0.28556 0.0
O203 O 0.28353 0.09747 0.18132 0.0
H204 H 0.34822 0.05568 0.22341 0.0
H205 H 0.30496 0.03813 0.33619 0.0
C206 C 0.2854 0.06174 0.12415 0.0
C207 C 0.28979 0.0742 0.08282 0.0
C208 C 0.3 0.06685 0.04123 0.0
C209 C 0.30609 0.04698 0.0407 0.0
C210 C 0.29998 0.03408 0.07996 0.0
C211 C 0.28962 0.0414 0.12126 0.0
C212 C 0.2562 0.06704 0.21017 0.0
C213 C 0.24937 0.07897 0.2496 0.0
C214 C 0.23199 0.07361 0.27492 0.0
C215 C 0.22105 0.05621 0.26118 0.0
C216 C 0.22753 0.04461 0.22043 0.0
C217 C 0.24512 0.04989 0.19537 0.0
C218 C 0.29915 0.06348 0.22626 0.0
C219 C 0.3188 0.0645 0.21025 0.0
C220 C 0.3334 0.05542 0.23837 0.0
C221 C 0.32873 0.04548 0.28387 0.0
C222 C 0.30908 0.04524 0.30086 0.0
C223 C 0.29441 0.05403 0.27212 0.0
P224 P 0.41511 0.25113 0.18274 0.0
H225 H 0.395 0.26321 0.09028 0.0
H226 H 0.40667 0.28389 0.01992 0.0
H227 H 0.46661 0.27822 0.07143 0.0
H228 H 0.45482 0.25761 0.14203 0.0
H229 H 0.40281 0.22948 0.27128 0.0
H230 H 0.41578 0.20111 0.31556 0.0
H231 H 0.45627 0.19173 0.19244 0.0
H232 H 0.4435 0.22093 0.14906 0.0
H233 H 0.40273 0.29102 0.21161 0.0
H234 H 0.45115 0.25291 0.24335 0.0
O235 O 0.39058 0.25194 0.18416 0.0
H236 H 0.41892 0.31792 0.26138 0.0
H237 H 0.46745 0.27959 0.29196 0.0
C238 C 0.42402 0.25878 0.12144 0.0
C239 C 0.41071 0.26572 0.08542 0.0
C240 C 0.41741 0.27763 0.04515 0.0
C241 C 0.43753 0.28297 0.04062 0.0
C242 C 0.45098 0.2746 0.07439 0.0
C243 C 0.44427 0.26259 0.11442 0.0
C244 C 0.42204 0.22721 0.20673 0.0
C245 C 0.41415 0.22102 0.25318 0.0
C246 C 0.42161 0.20467 0.27849 0.0
C247 C 0.43713 0.19397 0.25776 0.0
C248 C 0.4445 0.19975 0.20995 0.0
C249 C 0.43708 0.21633 0.18475 0.0
C250 C 0.42544 0.2698 0.22505 0.0
C251 C 0.41664 0.28832 0.23008 0.0
C252 C 0.42601 0.30372 0.25799 0.0
C253 C 0.44443 0.30084 0.28082 0.0
C254 C 0.4531 0.28217 0.27582 0.0
C255 C 0.44373 0.26685 0.24801 0.0
O256 O 0.06666 0.00461 0.64457 0.0
Zn257 Zn 0.05055 0.00403 0.70887 0.0
O258 O 0.02402 0.99713 0.69145 0.0
Zn259 Zn 0.00734 0.01912 0.69289 0.0
Zn260 Zn 0.01819 0.99868 0.62185 0.0
Zn261 Zn 0.01275 0.97378 0.72183 0.0
O262 O 0.98511 0.01256 0.74088 0.0
O263 O 0.98935 0.98109 0.76463 0.0
O264 O 0.05159 0.03175 0.73991 0.0
O265 O 0.02222 0.0436 0.72098 0.0
O266 O 0.99511 0.02195 0.61635 0.0
O267 O 0.99692 0.0216 0.61498 0.0
O268 O 0.00635 0.97211 0.59746 0.0
O269 O 0.06008 0.98317 0.75867 0.0
O270 O 0.00431 0.95396 0.66779 0.0
O271 O 0.03389 0.96199 0.76408 0.0
C272 C 0.06181 0.00514 0.59787 0.0
C273 C 0.97993 0.99725 0.76698 0.0
C274 C -0.00028 0.03034 0.57383 0.0
C275 C 0.03943 0.0459 0.74027 0.0
C276 C 0.0022 0.95566 0.62008 0.0
C277 C 0.0516 0.96718 0.77568 0.0
O278 O 0.04377 0.004 0.58393 0.0
O279 O 0.51142 0.04933 0.64507 0.0
Zn280 Zn 0.51525 0.02764 0.69751 0.0
O281 O 0.52129 0.00208 0.6644 0.0
Zn282 Zn 0.49949 0.98254 0.67331 0.0
Zn283 Zn 0.52574 0.0067 0.59251 0.0
Zn284 Zn 0.54492 0.99102 0.69318 0.0
O285 O 0.50782 0.95763 0.70965 0.0
O286 O 0.53938 0.96442 0.72631 0.0
O287 O 0.48945 0.02497 0.73625 0.0
O288 O 0.47834 0.99441 0.71529 0.0
O289 O 0.48647 0.9756 0.60692 0.0
O290 O 0.50499 0.99213 0.55089 0.0
O291 O 0.55278 0.99918 0.57069 0.0
O292 O 0.53748 0.03649 0.7458 0.0
O293 O 0.56635 0.98803 0.6411 0.0
O294 O 0.55583 0.00954 0.74625 0.0
C295 C 0.51574 0.05037 0.59826 0.0
C296 C 0.52411 0.9529 0.72957 0.0
C297 C 0.49012 0.98081 0.56154 0.0
C298 C 0.47619 0.01098 0.73805 0.0
C299 C 0.56736 0.99209 0.59413 0.0
C300 C 0.55213 0.02696 0.76229 0.0
O301 O 0.52255 0.03554 0.57468 0.0
O302 O 0.47519 0.49982 0.64416 0.0
Zn303 Zn 0.49572 0.49479 0.69827 0.0
O304 O 0.52237 0.49499 0.66848 0.0
Zn305 Zn 0.53388 0.46901 0.67733 0.0
Zn306 Zn 0.52104 0.50036 0.59638 0.0
Zn307 Zn 0.53948 0.51555 0.70011 0.0
O308 O 0.55969 0.47116 0.71437 0.0
O309 O 0.56289 0.50345 0.73368 0.0
O310 O 0.48899 0.46811 0.73302 0.0
O311 O 0.51588 0.45115 0.71785 0.0
O312 O 0.53701 0.45454 0.61154 0.0
O313 O 0.52733 0.47632 0.55454 0.0
O314 O 0.53836 0.52381 0.57643 0.0
O315 O 0.49392 0.51704 0.75014 0.0
O316 O 0.54917 0.53643 0.64953 0.0
O317 O 0.52462 0.5298 0.75371 0.0
C318 C 0.47687 0.50525 0.59812 0.0
C319 C 0.56909 0.48571 0.73566 0.0
C320 C 0.53337 0.45912 0.56589 0.0
C321 C 0.49879 0.45225 0.73699 0.0
C322 C 0.54796 0.53722 0.60148 0.0
C323 C 0.50682 0.5293 0.76875 0.0
O324 O 0.49361 0.50677 0.57678 0.0
O325 O 0.97808 0.52143 0.59228 0.0
Zn326 Zn 0.00349 0.52375 0.63276 0.0
O327 O 0.01088 0.49718 0.65795 0.0
Zn328 Zn 0.01082 0.49694 0.73197 0.0
Zn329 Zn 0.99268 0.47631 0.63205 0.0
Zn330 Zn 0.03707 0.49111 0.63495 0.0
O331 O 0.03802 0.4929 0.76077 0.0
O332 O 0.05595 0.48829 0.6921 0.0
O333 O 0.99923 0.54275 0.69137 0.0
O334 O 0.00239 0.52343 0.75892 0.0
O335 O 0.99179 0.4757 0.75871 0.0
O336 O 0.97791 0.46284 0.68906 0.0
O337 O 0.00628 0.45512 0.59105 0.0
O338 O 0.02488 0.53626 0.58784 0.0
O339 O 0.03746 0.46603 0.59325 0.0
O340 O 0.04789 0.51347 0.59336 0.0
C341 C 0.96777 0.50627 0.57702 0.0
C342 C 0.05447 0.48963 0.73986 0.0
C343 C 0.97934 0.4638 0.73703 0.0
C344 C 0.99881 0.54026 0.73915 0.0
C345 C 0.02427 0.45324 0.57893 0.0
C346 C 0.04193 0.53009 0.57738 0.0
O347 O 0.97229 0.48854 0.58852 0.0
H348 H 0.18421 0.04418 0.22754 0.0
H349 H 0.15556 0.03385 0.27926 0.0
H350 H 0.19034 0.043 0.41462 0.0
H351 H 0.21881 0.05338 0.36344 0.0
H352 H 0.16866 0.00606 0.41109 0.0
H353 H 0.15934 0.07685 0.383 0.0
H354 H 0.15532 0.10644 0.329 0.0
H355 H 0.10341 0.07885 0.26219 0.0
H356 H 0.10723 0.04899 0.31543 0.0
H357 H 0.10175 0.00728 0.61255 0.0
H358 H 0.12724 0.01454 0.55004 0.0
H359 H 0.0832 0.01441 0.43209 0.0
H360 H 0.05749 0.00775 0.49486 0.0
H361 H 0.10787 0.04494 0.41889 0.0
H362 H 0.11501 0.97531 0.44685 0.0
H363 H 0.11864 0.9444 0.4961 0.0
H364 H 0.17356 0.9676 0.5569 0.0
H365 H 0.17013 0.99878 0.50855 0.0
C366 C 0.18569 0.04392 0.26832 0.0
C367 C 0.20366 0.04968 0.29155 0.0
C368 C 0.16934 0.03813 0.29776 0.0
C369 C 0.17085 0.03778 0.35074 0.0
C370 C 0.18887 0.04322 0.37382 0.0
C371 C 0.20507 0.04924 0.34457 0.0
C372 C 0.1538 0.0316 0.38265 0.0
C373 C 0.1554 0.01461 0.41311 0.0
C374 C 0.13627 0.04241 0.38385 0.0
C375 C 0.13376 0.06055 0.35263 0.0
C376 C 0.14718 0.07701 0.35645 0.0
C377 C 0.14492 0.09384 0.326 0.0
C378 C 0.12919 0.09447 0.29193 0.0
C379 C 0.11561 0.07832 0.28849 0.0
C380 C 0.11781 0.06145 0.31882 0.0
C381 C 0.09742 0.0089 0.57339 0.0
C382 C 0.07746 0.00759 0.55908 0.0
C383 C 0.11208 0.01286 0.5375 0.0
C384 C 0.1072 0.01495 0.48618 0.0
C385 C 0.08734 0.01303 0.47148 0.0
C386 C 0.07264 0.00923 0.5075 0.0
C387 C 0.12283 0.0195 0.44822 0.0
C388 C 0.12099 0.03619 0.41658 0.0
C389 C 0.14006 0.00822 0.4453 0.0
C390 C 0.14223 0.98946 0.47434 0.0
C391 C 0.1278 0.97388 0.47099 0.0
C392 C 0.12983 0.9563 0.49871 0.0
C393 C 0.1463 0.95405 0.52969 0.0
C394 C 0.1608 0.96937 0.53291 0.0
C395 C 0.15883 0.98699 0.50531 0.0
H396 H 0.14784 0.94043 0.55112 0.0
H397 H 0.12743 0.10753 0.26849 0.0
H398 H 0.47627 0.18474 0.26344 0.0
H399 H 0.49141 0.16073 0.3199 0.0
H400 H 0.43428 0.14365 0.37932 0.0
H401 H 0.41882 0.16671 0.32127 0.0
H402 H 0.46599 0.15638 0.45355 0.0
H403 H 0.45195 0.11184 0.31119 0.0
H404 H 0.45394 0.10184 0.22157 0.0
H405 H 0.5171 0.10299 0.23131 0.0
H406 H 0.51548 0.11328 0.32086 0.0
H407 H 0.48367 0.07317 0.60924 0.0
H408 H 0.47225 0.09859 0.55116 0.0
H409 H 0.52521 0.09342 0.46273 0.0
H410 H 0.5359 0.06689 0.51894 0.0
H411 H 0.49756 0.09385 0.40167 0.0
H412 H 0.51361 0.13659 0.54129 0.0
H413 H 0.51391 0.14836 0.62976 0.0
H414 H 0.4511 0.1536 0.62527 0.0
H415 H 0.45038 0.14163 0.53695 0.0
C416 C 0.46682 0.17554 0.28747 0.0
C417 C 0.44628 0.17787 0.2879 0.0
C418 C 0.47555 0.16195 0.32008 0.0
C419 C 0.46395 0.15062 0.35404 0.0
C420 C 0.44348 0.15246 0.35372 0.0
C421 C 0.4347 0.16574 0.3206 0.0
C422 C 0.47317 0.13729 0.39119 0.0
C423 C 0.47277 0.14259 0.4425 0.0
C424 C 0.48264 0.11979 0.37627 0.0
C425 C 0.48359 0.11356 0.32252 0.0
C426 C 0.46626 0.11016 0.29408 0.0
C427 C 0.46733 0.10439 0.24333 0.0
C428 C 0.48564 0.10184 0.22071 0.0
C429 C 0.50293 0.105 0.24885 0.0
C430 C 0.50194 0.11079 0.2996 0.0
C431 C 0.49304 0.07779 0.57799 0.0
C432 C 0.51072 0.06818 0.5687 0.0
C433 C 0.48655 0.09241 0.54478 0.0
C434 C 0.49795 0.09827 0.50262 0.0
C435 C 0.51605 0.0892 0.4947 0.0
C436 C 0.52225 0.07414 0.52704 0.0
C437 C 0.49038 0.11273 0.46496 0.0
C438 C 0.49103 0.10769 0.41327 0.0
C439 C 0.48156 0.13076 0.47951 0.0
C440 C 0.48193 0.13806 0.53259 0.0
C441 C 0.49984 0.14013 0.55926 0.0
C442 C 0.50009 0.14686 0.60937 0.0
C443 C 0.48254 0.15168 0.63315 0.0
C444 C 0.46469 0.14985 0.60681 0.0
C445 C 0.46436 0.14312 0.5567 0.0
H446 H 0.48276 0.15688 0.67195 0.0
H447 H 0.48643 0.09737 0.18143 0.0
H448 H 0.34429 0.50372 0.24604 0.0
H449 H 0.3726 0.51279 0.30009 0.0
H450 H 0.34125 0.48936 0.42996 0.0
H451 H 0.31271 0.48112 0.37684 0.0
H452 H 0.36099 0.5229 0.45453 0.0
H453 H 0.37526 0.46174 0.36602 0.0
H454 H 0.37976 0.44054 0.29072 0.0
H455 H 0.4257 0.48101 0.23801 0.0
H456 H 0.4213 0.50258 0.31273 0.0
H457 H 0.43822 0.49639 0.6218 0.0
H458 H 0.40959 0.49862 0.56601 0.0
H459 H 0.4467 0.52425 0.44909 0.0
H460 H 0.47535 0.52189 0.50417 0.0
H461 H 0.42498 0.49325 0.41404 0.0
H462 H 0.41305 0.55236 0.50941 0.0
H463 H 0.40867 0.57262 0.58633 0.0
H464 H 0.35853 0.5354 0.62805 0.0
H465 H 0.36276 0.51473 0.55172 0.0
C466 C 0.34335 0.50076 0.28622 0.0
C467 C 0.32636 0.49141 0.307 0.0
C468 C 0.35957 0.50582 0.31699 0.0
C469 C 0.35914 0.50146 0.36895 0.0
C470 C 0.34195 0.49278 0.38997 0.0
C471 C 0.32574 0.48784 0.35938 0.0
C472 C 0.37677 0.50505 0.40136 0.0
C473 C 0.37497 0.51634 0.44587 0.0
C474 C 0.39512 0.49685 0.38949 0.0
C475 C 0.39779 0.48388 0.34462 0.0
C476 C 0.38622 0.46619 0.33816 0.0
C477 C 0.38876 0.4541 0.29563 0.0
C478 C 0.40296 0.45946 0.25952 0.0
C479 C 0.41468 0.4769 0.26595 0.0
C480 C 0.41217 0.48905 0.30838 0.0
C481 C 0.44023 0.5028 0.58453 0.0
C482 C 0.4591 0.50876 0.56729 0.0
C483 C 0.42385 0.50413 0.55272 0.0
C484 C 0.42602 0.51163 0.5034 0.0
C485 C 0.4447 0.51834 0.48691 0.0
C486 C 0.46107 0.51696 0.51852 0.0
C487 C 0.40917 0.51092 0.4676 0.0
C488 C 0.41111 0.50009 0.42244 0.0
C489 C 0.39096 0.51945 0.4791 0.0
C490 C 0.38833 0.53189 0.52501 0.0
C491 C 0.40118 0.54839 0.53518 0.0
C492 C 0.3987 0.55997 0.57865 0.0
C493 C 0.38335 0.55527 0.61211 0.0
C494 C 0.37042 0.53901 0.60211 0.0
C495 C 0.37283 0.52737 0.55872 0.0
H496 H 0.38146 0.56426 0.64575 0.0
H497 H 0.40492 0.45008 0.22663 0.0
H498 H 0.1143 0.32161 0.32759 0.0
H499 H 0.09988 0.34945 0.37248 0.0
H500 H 0.0434 0.31788 0.37275 0.0
H501 H 0.0578 0.28969 0.32845 0.0
H502 H 0.04072 0.35873 0.35125 0.0
H503 H 0.06996 0.31737 0.47643 0.0
H504 H 0.09645 0.29821 0.51497 0.0
H505 H 0.13292 0.35181 0.52712 0.0
H506 H 0.10675 0.37126 0.48792 0.0
H507 H 0.00087 0.42197 0.54247 0.0
H508 H 0.01115 0.39316 0.49301 0.0
H509 H 0.07116 0.4166 0.49539 0.0
H510 H 0.06116 0.44509 0.54543 0.0
H511 H 0.06999 0.37807 0.51725 0.0
H512 H 0.04169 0.41926 0.38905 0.0
H513 H 0.01564 0.43863 0.34916 0.0
H514 H 0.97778 0.38586 0.34195 0.0
H515 H 0.00352 0.36622 0.38245 0.0
C516 C 0.09881 0.32051 0.33727 0.0
C517 C 0.08727 0.30328 0.32493 0.0
C518 C 0.09058 0.33649 0.36276 0.0
C519 C 0.07064 0.3356 0.37657 0.0
C520 C 0.05883 0.31884 0.36248 0.0
C521 C 0.06708 0.30278 0.33703 0.0
C522 C 0.06245 0.35189 0.40745 0.0
C523 C 0.04689 0.3628 0.3879 0.0
C524 C 0.07072 0.35736 0.4549 0.0
C525 C 0.08645 0.34573 0.47882 0.0
C526 C 0.08368 0.32505 0.48696 0.0
C527 C 0.09863 0.31414 0.50898 0.0
C528 C 0.11638 0.32378 0.52338 0.0
C529 C 0.11918 0.34436 0.5159 0.0
C530 C 0.10429 0.35534 0.49382 0.0
C531 C 0.01624 0.42102 0.53236 0.0
C532 C 0.03017 0.4359 0.54797 0.0
C533 C 0.02209 0.40458 0.50386 0.0
C534 C 0.04192 0.40278 0.4901 0.0
C535 C 0.05579 0.41763 0.50557 0.0
C536 C 0.05 0.43398 0.53411 0.0
C537 C 0.04848 0.38525 0.46072 0.0
C538 C 0.06371 0.374 0.4807 0.0
C539 C 0.03993 0.37955 0.41366 0.0
C540 C 0.02445 0.39132 0.3893 0.0
C541 C 0.02775 0.41182 0.37935 0.0
C542 C 0.01305 0.42284 0.35656 0.0
C543 C 0.99504 0.4135 0.34317 0.0
C544 C 0.99172 0.39309 0.35243 0.0
C545 C 0.00636 0.382 0.37527 0.0
H546 H 0.98369 0.42205 0.32552 0.0
H547 H 0.12793 0.31531 0.54042 0.0
H548 H 0.83904 0.06131 0.01721 0.0
H549 H 0.86493 0.04891 0.96307 0.0
H550 H 0.86452 0.99369 0.04705 0.0
H551 H 0.8388 0.00628 0.10254 0.0
H552 H 0.90214 0.00798 0.02761 0.0
H553 H 0.84369 0.99374 0.93315 0.0
H554 H 0.81155 0.00045 0.89438 0.0
H555 H 0.83887 0.04588 0.80097 0.0
H556 H 0.87114 0.03965 0.83974 0.0
H557 H 0.96579 0.96941 0.83552 0.0
H558 H 0.93766 0.97242 0.89259 0.0
H559 H 0.92721 0.03104 0.83272 0.0
H560 H 0.95499 0.02816 0.77559 0.0
H561 H 0.89329 0.00861 0.84128 0.0
H562 H 0.95086 0.02529 0.94506 0.0
H563 H 0.98294 0.01818 0.98376 0.0
H564 H 0.95689 0.96699 0.05905 0.0
H565 H 0.92468 0.97367 0.02026 0.0
C566 C 0.84457 0.04661 0.02458 0.0
C567 C 0.83688 0.03479 0.06425 0.0
C568 C 0.85924 0.03945 0.99325 0.0
C569 C 0.86647 0.02027 0.00062 0.0
C570 C 0.85906 0.00849 0.04058 0.0
C571 C 0.84429 0.01565 0.07198 0.0
C572 C 0.88185 0.01279 0.9664 0.0
C573 C 0.90009 0.00771 0.9869 0.0
C574 C 0.8792 0.01255 0.9133 0.0
C575 C 0.85983 0.01631 0.88963 0.0
C576 C 0.84283 0.00526 0.90461 0.0
C577 C 0.82458 0.00896 0.88259 0.0
C578 C 0.82316 0.0236 0.84529 0.0
C579 C 0.83999 0.03454 0.82988 0.0
C580 C 0.85827 0.03092 0.85182 0.0
C581 C 0.95745 0.98291 0.83439 0.0
C582 C 0.96271 0.99857 0.80102 0.0
C583 C 0.94143 0.98462 0.86714 0.0
C584 C 0.93042 0.00201 0.86708 0.0
C585 C 0.93547 0.01747 0.83332 0.0
C586 C 0.95144 0.01582 0.80079 0.0
C587 C 0.91375 0.00448 0.90238 0.0
C588 C 0.89523 0.00856 0.88202 0.0
C589 C 0.91614 0.0037 0.95552 0.0
C590 C 0.93543 0.99984 0.97932 0.0
C591 C 0.95201 0.01244 0.96959 0.0
C592 C 0.9702 0.0085 0.99158 0.0
C593 C 0.97197 0.9921 0.02371 0.0
C594 C 0.95551 0.97966 0.03408 0.0
C595 C 0.93728 0.98352 0.01213 0.0
H596 H 0.98607 0.98907 0.04068 0.0
H597 H 0.80902 0.02645 0.82829 0.0
H598 H 0.54471 0.82024 0.08087 0.0
H599 H 0.54963 0.84462 0.01273 0.0
H600 H 0.48912 0.83484 0.96608 0.0
H601 H 0.48429 0.81001 0.03273 0.0
H602 H 0.51296 0.83646 0.88576 0.0
H603 H 0.50376 0.8758 0.03656 0.0
H604 H 0.51102 0.88705 0.12375 0.0
H605 H 0.56974 0.90541 0.0799 0.0
H606 H 0.5629 0.89401 0.99254 0.0
H607 H 0.49443 0.92503 0.74828 0.0
H608 H 0.49507 0.89688 0.80683 0.0
H609 H 0.55622 0.91097 0.84017 0.0
H610 H 0.55571 0.93926 0.78208 0.0
H611 H 0.53508 0.90629 0.92521 0.0
H612 H 0.54323 0.8695 0.77224 0.0
H613 H 0.53564 0.85859 0.68499 0.0
H614 H 0.47878 0.83569 0.73232 0.0
H615 H 0.48592 0.84672 0.81978 0.0
C616 C 0.53251 0.82317 0.05583 0.0
C617 C 0.51405 0.81331 0.06257 0.0
C618 C 0.5353 0.83721 0.01714 0.0
C619 C 0.51967 0.84171 0.98464 0.0
C620 C 0.50137 0.83165 0.99077 0.0
C621 C 0.49857 0.81762 0.0293 0.0
C622 C 0.52218 0.85711 0.94462 0.0
C623 C 0.51764 0.85177 0.89441 0.0
C624 C 0.52878 0.87696 0.95571 0.0
C625 C 0.5329 0.88384 0.00818 0.0
C626 C 0.51828 0.88208 0.04562 0.0
C627 C 0.5223 0.88852 0.09504 0.0
C628 C 0.54085 0.89689 0.10739 0.0
C629 C 0.5554 0.89889 0.0703 0.0
C630 C 0.55145 0.89246 0.02082 0.0
C631 C 0.5081 0.92201 0.76749 0.0
C632 C 0.52499 0.93449 0.76054 0.0
C633 C 0.50846 0.90584 0.80087 0.0
C634 C 0.52572 0.90177 0.82774 0.0
C635 C 0.54274 0.91386 0.81987 0.0
C636 C 0.54242 0.93 0.78647 0.0
C637 C 0.52564 0.88571 0.86637 0.0
C638 C 0.53061 0.89093 0.91638 0.0
C639 C 0.5194 0.86578 0.85507 0.0
C640 C 0.51505 0.8591 0.80251 0.0
C641 C 0.52904 0.86228 0.76398 0.0
C642 C 0.52483 0.85605 0.71449 0.0
C643 C 0.50672 0.84649 0.7031 0.0
C644 C 0.4928 0.84311 0.7412 0.0
C645 C 0.49693 0.84933 0.79075 0.0
H646 H 0.50349 0.84167 0.66476 0.0
H647 H 0.54394 0.90186 0.14568 0.0
H648 H 0.70176 0.47085 0.07942 0.0
H649 H 0.67639 0.47946 0.01834 0.0
H650 H 0.67733 0.41992 0.95523 0.0
H651 H 0.70319 0.4114 0.01519 0.0
H652 H 0.67825 0.44771 0.88223 0.0
H653 H 0.63947 0.43369 0.02949 0.0
H654 H 0.62967 0.43643 0.11886 0.0
H655 H 0.61993 0.49902 0.09918 0.0
H656 H 0.62994 0.49672 0.0098 0.0
H657 H 0.58842 0.45063 0.74257 0.0
H658 H 0.6152 0.4429 0.80029 0.0
H659 H 0.61619 0.50347 0.85703 0.0
H660 H 0.58933 0.51138 0.79955 0.0
H661 H 0.61441 0.4754 0.93278 0.0
H662 H 0.65285 0.48881 0.78403 0.0
H663 H 0.66208 0.48532 0.69443 0.0
H664 H 0.67178 0.42286 0.71688 0.0
H665 H 0.66233 0.42592 0.80651 0.0
C666 C 0.69658 0.4596 0.05249 0.0
C667 C 0.70447 0.44044 0.05211 0.0
C668 C 0.68197 0.46449 0.0179 0.0
C669 C 0.67488 0.45027 0.98252 0.0
C670 C 0.68259 0.43109 0.98231 0.0
C671 C 0.69721 0.42619 0.0169 0.0
C672 C 0.65981 0.45563 0.94481 0.0
C673 C 0.66417 0.45351 0.89327 0.0
C674 C 0.64165 0.46362 0.95929 0.0
C675 C 0.63565 0.46507 0.01307 0.0
C676 C 0.63541 0.44808 0.04432 0.0
C677 C 0.62978 0.44954 0.09496 0.0
C678 C 0.62423 0.4679 0.11472 0.0
C679 C 0.62426 0.48482 0.08384 0.0
C680 C 0.62989 0.48344 0.03317 0.0
C681 C 0.59447 0.4624 0.76686 0.0
C682 C 0.58668 0.48162 0.76654 0.0
C683 C 0.60982 0.45796 0.79972 0.0
C684 C 0.61767 0.47264 0.83279 0.0
C685 C 0.61028 0.49195 0.83177 0.0
C686 C 0.595 0.49645 0.79873 0.0
C687 C 0.63288 0.46751 0.87028 0.0
C688 C 0.62851 0.46965 0.92178 0.0
C689 C 0.65097 0.45943 0.85576 0.0
C690 C 0.6567 0.45756 0.80189 0.0
C691 C 0.65678 0.47429 0.76977 0.0
C692 C 0.66209 0.4724 0.71899 0.0
C693 C 0.66746 0.45387 0.69994 0.0
C694 C 0.66759 0.4372 0.73168 0.0
C695 C 0.66228 0.43901 0.78248 0.0
H696 H 0.67157 0.45243 0.66062 0.0
H697 H 0.61987 0.469 0.15393 0.0
H698 H 0.99623 0.67044 0.10222 0.0
H699 H 0.98742 0.64252 0.04523 0.0
H700 H 0.00978 0.67674 0.91849 0.0
H701 H 0.01838 0.70474 0.97508 0.0
H702 H 0.97542 0.65437 0.89491 0.0
H703 H 0.03881 0.64499 0.97448 0.0
H704 H 0.06119 0.642 0.04747 0.0
H705 H 0.0264 0.59169 0.10185 0.0
H706 H 0.00364 0.59458 0.02949 0.0
H707 H 0.00136 0.58023 0.71649 0.0
H708 H 0.99867 0.60837 0.7749 0.0
H709 H 0.98478 0.56731 0.89637 0.0
H710 H 0.98813 0.53912 0.83858 0.0
H711 H 0.01163 0.59249 0.92659 0.0
H712 H 0.94994 0.59923 0.84295 0.0
H713 H 0.92718 0.60207 0.77072 0.0
H714 H 0.95733 0.65655 0.7249 0.0
H715 H 0.98045 0.6539 0.79647 0.0
C716 C 0.99887 0.67215 0.06207 0.0
C717 C 0.00818 0.68967 0.04314 0.0
C718 C 0.99392 0.65617 0.02962 0.0
C719 C 0.99816 0.65749 0.97774 0.0
C720 C 0.00642 0.6754 0.95839 0.0
C721 C 0.01147 0.6913 0.9908 0.0
C722 C 0.99561 0.63975 0.94424 0.0
C723 C 0.98336 0.64084 0.90156 0.0
C724 C 0.00566 0.62198 0.95365 0.0
C725 C 0.01941 0.62015 0.99693 0.0
C726 C 0.03585 0.6334 0.00222 0.0
C727 C 0.04861 0.6317 0.04343 0.0
C728 C 0.04519 0.6167 0.07936 0.0
C729 C 0.02902 0.60333 0.07405 0.0
C730 C 0.01618 0.60498 0.03295 0.0
C731 C 0.99747 0.57721 0.75548 0.0
C732 C 0.99508 0.55743 0.77293 0.0
C733 C 0.99582 0.59333 0.78885 0.0
C734 C 0.99135 0.59002 0.8401 0.0
C735 C 0.9883 0.57028 0.85711 0.0
C736 C 0.99021 0.55417 0.82397 0.0
C737 C 0.9914 0.60696 0.87675 0.0
C738 C 0.00334 0.60581 0.92005 0.0
C739 C 0.98094 0.62459 0.86795 0.0
C740 C 0.96704 0.62627 0.82488 0.0
C741 C 0.95181 0.61174 0.81726 0.0
C742 C 0.93883 0.61333 0.77647 0.0
C743 C 0.94083 0.62946 0.74318 0.0
C744 C 0.9558 0.64406 0.75069 0.0
C745 C 0.96884 0.64253 0.79141 0.0
H746 H 0.93077 0.63066 0.71162 0.0
H747 H 0.05509 0.61541 0.11123 0.0
H748 H 0.12444 0.1397 0.33491 0.0
H749 H 0.11219 0.1106 0.38244 0.0
H750 H 0.09218 0.14918 0.50091 0.0
H751 H 0.10502 0.17845 0.45464 0.0
H752 H 0.10478 0.11147 0.53671 0.0
H753 H 0.06203 0.1384 0.40649 0.0
H754 H 0.05501 0.14895 0.31916 0.0
H755 H 0.0666 0.08996 0.26482 0.0
H756 H 0.07408 0.07917 0.35179 0.0
H757 H 0.01961 0.05873 0.63052 0.0
H758 H 0.04717 0.08032 0.60237 0.0
H759 H 0.05008 0.04598 0.46397 0.0
H760 H 0.02146 0.02566 0.49075 0.0
H761 H 0.0497 0.08001 0.43796 0.0
H762 H 0.08973 0.05094 0.56546 0.0
H763 H 0.09985 0.03961 0.65042 0.0
H764 H 0.09567 0.09922 0.7079 0.0
H765 H 0.08544 0.11095 0.62349 0.0
C766 C 0.11812 0.14203 0.3719 0.0
C767 C 0.11537 0.16146 0.39056 0.0
C768 C 0.11109 0.12535 0.39889 0.0
C769 C 0.10103 0.1278 0.44459 0.0
C770 C 0.09983 0.147 0.46554 0.0
C771 C 0.10695 0.16371 0.43873 0.0
C772 C 0.08907 0.11095 0.466 0.0
C773 C 0.0927 0.10449 0.51543 0.0
C774 C 0.07363 0.10164 0.43762 0.0
C775 C 0.06877 0.10804 0.38551 0.0
C776 C 0.06319 0.12772 0.37586 0.0
C777 C 0.05915 0.13374 0.32644 0.0
C778 C 0.06041 0.12015 0.28644 0.0
C779 C 0.06567 0.10048 0.29582 0.0
C780 C 0.06982 0.09441 0.34515 0.0
C781 C 0.02669 0.05542 0.59502 0.0
C782 C 0.01882 0.04034 0.56313 0.0
C783 C 0.04252 0.06775 0.57881 0.0
C784 C 0.05107 0.06478 0.53103 0.0
C785 C 0.04377 0.04882 0.50076 0.0
C786 C 0.02751 0.03708 0.51613 0.0
C787 C 0.06542 0.0798 0.50922 0.0
C788 C 0.06205 0.08632 0.45951 0.0
C789 C 0.08126 0.08881 0.53723 0.0
C790 C 0.08678 0.08176 0.58829 0.0
C791 C 0.09082 0.06156 0.59636 0.0
C792 C 0.09663 0.05511 0.64421 0.0
C793 C 0.09853 0.06873 0.68417 0.0
C794 C 0.09435 0.08878 0.67666 0.0
C795 C 0.08858 0.09534 0.62887 0.0
H796 H 0.10333 0.06374 0.72093 0.0
H797 H 0.05727 0.12483 0.24819 0.0
H798 H 0.36786 0.05659 0.29509 0.0
H799 H 0.39356 0.03813 0.33695 0.0
H800 H 0.35063 0.99266 0.38185 0.0
H801 H 0.32486 0.01032 0.33742 0.0
H802 H 0.37976 0.01138 0.46125 0.0
H803 H 0.37524 0.97724 0.30008 0.0
H804 H 0.37384 0.97601 0.20694 0.0
H805 H 0.43065 0.00614 0.19887 0.0
H806 H 0.43224 0.00784 0.29201 0.0
H807 H 0.45555 0.95853 0.56969 0.0
H808 H 0.42642 0.96163 0.51629 0.0
H809 H 0.46004 0.99931 0.41352 0.0
H810 H 0.48928 0.99583 0.46556 0.0
H811 H 0.43233 0.97938 0.36295 0.0
H812 H 0.43598 0.0191 0.51516 0.0
H813 H 0.43883 0.02497 0.60709 0.0
H814 H 0.38568 0.98964 0.63146 0.0
H815 H 0.38267 0.98332 0.53965 0.0
C816 C 0.36382 0.04253 0.31311 0.0
C817 C 0.3442 0.03494 0.31239 0.0
C818 C 0.37854 0.03208 0.33733 0.0
C819 C 0.37393 0.01403 0.36204 0.0
C820 C 0.35439 0.0066 0.36285 0.0
C821 C 0.33967 0.01685 0.33779 0.0
C822 C 0.3897 0.0031 0.38719 0.0
C823 C 0.39102 0.00391 0.44001 0.0
C824 C 0.40461 0.99399 0.35904 0.0
C825 C 0.40378 0.99281 0.30303 0.0
C826 C 0.38735 0.98376 0.27845 0.0
C827 C 0.38654 0.98295 0.22565 0.0
C828 C 0.40213 0.99103 0.197 0.0
C829 C 0.41858 0.99989 0.22111 0.0
C830 C 0.41946 0.00076 0.27391 0.0
C831 C 0.45694 0.96691 0.53482 0.0
C832 C 0.47464 0.97735 0.5226 0.0
C833 C 0.44022 0.96876 0.50447 0.0
C834 C 0.44091 0.98126 0.4619 0.0
C835 C 0.4591 0.98977 0.44653 0.0
C836 C 0.47585 0.98776 0.47649 0.0
C837 C 0.42255 0.9877 0.4373 0.0
C838 C 0.42081 0.98629 0.3845 0.0
C839 C 0.40748 0.99675 0.46542 0.0
C840 C 0.40924 0.00052 0.52063 0.0
C841 C 0.42498 0.01245 0.54017 0.0
C842 C 0.42662 0.01588 0.59224 0.0
C843 C 0.41247 0.00764 0.62511 0.0
C844 C 0.39665 0.99598 0.60596 0.0
C845 C 0.39497 0.99246 0.55392 0.0
H846 H 0.41373 0.01035 0.66539 0.0
H847 H 0.40147 0.99038 0.15612 0.0
H848 H 0.46506 0.29859 0.36935 0.0
H849 H 0.48406 0.32531 0.41213 0.0
H850 H 0.4665 0.36722 0.29822 0.0
H851 H 0.44806 0.34032 0.25397 0.0
H852 H 0.50508 0.37225 0.31989 0.0
H853 H 0.44506 0.3668 0.41351 0.0
H854 H 0.41824 0.34984 0.46137 0.0
H855 H 0.45975 0.33164 0.57352 0.0
H856 H 0.48687 0.34826 0.52591 0.0
H857 H 0.52179 0.4618 0.46688 0.0
H858 H 0.51165 0.43395 0.41181 0.0
H859 H 0.53227 0.39216 0.52223 0.0
H860 H 0.54237 0.41986 0.57777 0.0
H861 H 0.4932 0.38675 0.50106 0.0
H862 H 0.55321 0.39485 0.40714 0.0
H863 H 0.57891 0.41332 0.35874 0.0
H864 H 0.5361 0.42857 0.2468 0.0
H865 H 0.51007 0.41042 0.2949 0.0
C866 C 0.46533 0.31346 0.35321 0.0
C867 C 0.45502 0.31734 0.30832 0.0
C868 C 0.47608 0.32875 0.3779 0.0
C869 C 0.47655 0.34828 0.35857 0.0
C870 C 0.4663 0.35224 0.31377 0.0
C871 C 0.45559 0.33692 0.28889 0.0
C872 C 0.48766 0.36455 0.38546 0.0
C873 C 0.50237 0.3756 0.35937 0.0
C874 C 0.48431 0.36865 0.43715 0.0
C875 C 0.46803 0.35859 0.46584 0.0
C876 C 0.4485 0.35903 0.44814 0.0
C877 C 0.43324 0.3495 0.47527 0.0
C878 C 0.4373 0.33962 0.52038 0.0
C879 C 0.45663 0.33928 0.53852 0.0
C880 C 0.47195 0.34876 0.51149 0.0
C881 C 0.52477 0.44673 0.47885 0.0
C882 C 0.53255 0.44306 0.5272 0.0
C883 C 0.51899 0.43081 0.44719 0.0
C884 C 0.52104 0.41101 0.46321 0.0
C885 C 0.53045 0.40736 0.50938 0.0
C886 C 0.53626 0.42324 0.54102 0.0
C887 C 0.5108 0.39434 0.43575 0.0
C888 C 0.4961 0.3833 0.46172 0.0
C889 C 0.51402 0.39048 0.3839 0.0
C890 C 0.52965 0.40141 0.35489 0.0
C891 C 0.54923 0.40229 0.37244 0.0
C892 C 0.56387 0.41267 0.345 0.0
C893 C 0.55913 0.42215 0.29978 0.0
C894 C 0.53975 0.42124 0.28185 0.0
C895 C 0.52505 0.41088 0.30916 0.0
H896 H 0.57049 0.43018 0.27859 0.0
H897 H 0.42546 0.33227 0.54135 0.0
H898 H 0.16683 0.51071 0.25151 0.0
H899 H 0.14038 0.5254 0.30011 0.0
H900 H 0.17789 0.52824 0.43207 0.0
H901 H 0.20421 0.51303 0.38413 0.0
H902 H 0.1431 0.51023 0.4519 0.0
H903 H 0.16511 0.57086 0.37133 0.0
H904 H 0.17471 0.59262 0.29981 0.0
H905 H 0.11676 0.58467 0.23591 0.0
H906 H 0.10687 0.56261 0.30669 0.0
H907 H 0.0755 0.54884 0.60812 0.0
H908 H 0.10426 0.5551 0.55449 0.0
H909 H 0.06888 0.5417 0.42217 0.0
H910 H 0.03992 0.53574 0.47602 0.0
H911 H 0.10389 0.56867 0.40477 0.0
H912 H 0.0843 0.50391 0.47343 0.0
H913 H 0.07342 0.48148 0.54244 0.0
H914 H 0.12652 0.49618 0.62504 0.0
H915 H 0.13753 0.51914 0.55683 0.0
C916 C 0.16945 0.51451 0.29086 0.0
C917 C 0.18756 0.51057 0.31411 0.0
C918 C 0.15442 0.52315 0.31838 0.0
C919 C 0.15724 0.52809 0.36957 0.0
C920 C 0.17546 0.52465 0.39251 0.0
C921 C 0.19051 0.51603 0.36502 0.0
C922 C 0.14059 0.53495 0.40039 0.0
C923 C 0.13486 0.5233 0.44216 0.0
C924 C 0.12942 0.55163 0.38675 0.0
C925 C 0.1353 0.56494 0.34416 0.0
C926 C 0.15445 0.57361 0.34183 0.0
C927 C 0.15994 0.58603 0.30145 0.0
C928 C 0.14637 0.59 0.26329 0.0
C929 C 0.12726 0.58158 0.26548 0.0
C930 C 0.1217 0.56913 0.30576 0.0
C931 C 0.07363 0.54846 0.5674 0.0
C932 C 0.05564 0.5419 0.5459 0.0
C933 C 0.09006 0.55197 0.53682 0.0
C934 C 0.08871 0.54851 0.48456 0.0
C935 C 0.07016 0.54451 0.46243 0.0
C936 C 0.05363 0.54114 0.49313 0.0
C937 C 0.10672 0.54404 0.45608 0.0
C938 C 0.1125 0.55591 0.41477 0.0
C939 C 0.11793 0.52742 0.46962 0.0
C940 C 0.11162 0.5134 0.51035 0.0
C941 C 0.09358 0.50249 0.5065 0.0
C942 C 0.0874 0.48968 0.54544 0.0
C943 C 0.09924 0.48746 0.58818 0.0
C944 C 0.11733 0.49801 0.59199 0.0
C945 C 0.12356 0.51093 0.5532 0.0
H946 H 0.09444 0.47749 0.6182 0.0
H947 H 0.15065 0.59962 0.23206 0.0
H948 H 0.07464 0.81237 0.99524 0.0
H949 H 0.08154 0.84339 0.9498 0.0
H950 H 0.08594 0.87564 0.09124 0.0
H951 H 0.078 0.84464 0.13702 0.0
H952 H 0.06302 0.89419 0.03101 0.0
H953 H 0.12697 0.87057 0.01259 0.0
H954 H 0.15297 0.84664 0.99601 0.0
H955 H 0.1334 0.84037 0.84206 0.0
H956 H 0.10708 0.86403 0.85784 0.0
H957 H 0.07389 0.97743 0.85881 0.0
H958 H 0.08681 0.95424 0.9221 0.0
H959 H 0.06623 0.90409 0.83095 0.0
H960 H 0.05278 0.92703 0.76904 0.0
H961 H 0.10578 0.90077 0.87974 0.0
H962 H 0.03657 0.91714 0.91228 0.0
H963 H 0.01084 0.9413 0.93006 0.0
H964 H 0.04283 0.96216 0.06142 0.0
H965 H 0.06891 0.93829 0.04389 0.0
C966 C 0.0772 0.82603 0.01677 0.0
C967 C 0.07558 0.82604 0.06973 0.0
C968 C 0.08145 0.84375 0.99074 0.0
C969 C 0.08453 0.86189 0.01705 0.0
C970 C 0.08373 0.86183 0.07012 0.0
C971 C 0.07933 0.84406 0.09625 0.0
C972 C 0.08634 0.88097 0.9885 0.0
C973 C 0.07286 0.89588 0.99894 0.0
C974 C 0.09911 0.88329 0.94647 0.0
C975 C 0.11498 0.86907 0.9365 0.0
C976 C 0.12812 0.86401 0.97526 0.0
C977 C 0.14293 0.85049 0.96599 0.0
C978 C 0.14483 0.84198 0.91803 0.0
C979 C 0.13193 0.84699 0.87919 0.0
C980 C 0.11708 0.86049 0.88826 0.0
C981 C 0.07256 0.96146 0.852 0.0
C982 C 0.06232 0.95391 0.80944 0.0
C983 C 0.07991 0.94829 0.888 0.0
C984 C 0.07747 0.92751 0.88095 0.0
C985 C 0.06836 0.92007 0.8368 0.0
C986 C 0.06061 0.93315 0.80168 0.0
C987 C 0.08206 0.91328 0.92157 0.0
C988 C 0.09662 0.89932 0.91313 0.0
C989 C 0.07049 0.91193 0.9658 0.0
C990 C 0.0548 0.92617 0.97639 0.0
C991 C 0.0382 0.92702 0.94466 0.0
C992 C 0.02354 0.94063 0.95474 0.0
C993 C 0.02524 0.95331 0.99673 0.0
C994 C 0.04157 0.95237 0.02882 0.0
C995 C 0.05629 0.93881 0.01883 0.0
H996 H 0.01386 0.96382 0.0045 0.0
H997 H 0.1563 0.83151 0.91093 0.0
H998 H 0.68305 0.05161 0.09295 0.0
H999 H 0.65454 0.04849 0.03635 0.0
H1000 H 0.68065 0.09349 0.9385 0.0
H1001 H 0.70956 0.09647 0.99484 0.0
H1002 H 0.63411 0.09347 0.97087 0.0
H1003 H 0.6861 0.05712 0.88846 0.0
H1004 H 0.71325 0.03359 0.88865 0.0
H1005 H 0.67393 0.98688 0.94353 0.0
H1006 H 0.64662 0.01025 0.94443 0.0
H1007 H 0.5664 0.06581 0.7674 0.0
H1008 H 0.59373 0.07865 0.82079 0.0
H1009 H 0.59562 0.02134 0.89518 0.0
H1010 H 0.56916 0.00835 0.84054 0.0
H1011 H 0.63032 0.03151 0.86711 0.0
H1012 H 0.57876 0.06593 0.95284 0.0
H1013 H 0.55092 0.08847 0.95965 0.0
H1014 H 0.58759 0.13748 0.90573 0.0
H1015 H 0.6156 0.11516 0.898 0.0
C1016 C 0.6826 0.06105 0.05977 0.0
C1017 C 0.69847 0.07429 0.04821 0.0
C1018 C 0.66634 0.05925 0.02755 0.0
C1019 C 0.66553 0.07083 0.98356 0.0
C1020 C 0.68103 0.08454 0.97255 0.0
C1021 C 0.69752 0.08612 0.00444 0.0
C1022 C 0.64912 0.06721 0.94757 0.0
C1023 C 0.63333 0.08015 0.9473 0.0
C1024 C 0.64805 0.0496 0.91802 0.0
C1025 C 0.66439 0.03548 0.91699 0.0
C1026 C 0.6833 0.04188 0.90103 0.0
C1027 C 0.6987 0.02857 0.90084 0.0
C1028 C 0.69533 0.00876 0.91622 0.0
C1029 C 0.67653 0.00223 0.93168 0.0
C1030 C 0.66108 0.0155 0.932 0.0
C1031 C 0.57245 0.05617 0.79594 0.0
C1032 C 0.5658 0.0361 0.79985 0.0
C1033 C 0.58805 0.06349 0.82643 0.0
C1034 C 0.59683 0.05095 0.86201 0.0
C1035 C 0.58929 0.03125 0.86768 0.0
C1036 C 0.5741 0.02386 0.83664 0.0
C1037 C 0.61476 0.0575 0.89091 0.0
C1038 C 0.63099 0.04503 0.88991 0.0
C1039 C 0.61602 0.07542 0.9197 0.0
C1040 C 0.5992 0.08882 0.92427 0.0
C1041 C 0.58084 0.08147 0.94202 0.0
C1042 C 0.56504 0.09421 0.94614 0.0
C1043 C 0.56747 0.11438 0.93297 0.0
C1044 C 0.58572 0.12185 0.91581 0.0
C1045 C 0.60156 0.10917 0.91159 0.0
H1046 H 0.55522 0.12422 0.9362 0.0
H1047 H 0.70728 0.99848 0.91604 0.0
H1048 H 0.45671 0.6842 0.02946 0.0
H1049 H 0.45766 0.6554 0.97147 0.0
H1050 H 0.50554 0.63184 0.05765 0.0
H1051 H 0.50451 0.66029 0.11579 0.0
H1052 H 0.51141 0.63682 0.94769 0.0
H1053 H 0.46496 0.60925 0.07129 0.0
H1054 H 0.43416 0.6094 0.1204 0.0
H1055 H 0.40041 0.60914 0.98281 0.0
H1056 H 0.43105 0.60928 0.93286 0.0
H1057 H 0.52916 0.54363 0.84677 0.0
H1058 H 0.52139 0.57028 0.90583 0.0
H1059 H 0.46443 0.57552 0.83512 0.0
H1060 H 0.4718 0.54792 0.77758 0.0
H1061 H 0.46073 0.58182 0.93118 0.0
H1062 H 0.50458 0.60795 0.80614 0.0
H1063 H 0.53411 0.60952 0.75206 0.0
H1064 H 0.57109 0.61558 0.8836 0.0
H1065 H 0.54179 0.61375 0.93854 0.0
C1066 C 0.46728 0.67274 0.03615 0.0
C1067 C 0.48048 0.67437 0.07713 0.0
C1068 C 0.46776 0.65633 0.00324 0.0
C1069 C 0.48164 0.64156 0.01053 0.0
C1070 C 0.49469 0.64309 0.05163 0.0
C1071 C 0.49401 0.65926 0.08489 0.0
C1072 C 0.48343 0.62498 0.97401 0.0
C1073 C 0.50045 0.62467 0.94429 0.0
C1074 C 0.46869 0.60969 0.96831 0.0
C1075 C 0.4503 0.60951 0.99836 0.0
C1076 C 0.45098 0.60942 0.05151 0.0
C1077 C 0.43355 0.60941 0.0795 0.0
C1078 C 0.41534 0.60935 0.05475 0.0
C1079 C 0.41452 0.60923 0.00194 0.0
C1080 C 0.43192 0.60926 0.97378 0.0
C1081 C 0.51489 0.55032 0.84425 0.0
C1082 C 0.50114 0.54391 0.80739 0.0
C1083 C 0.5105 0.56563 0.87777 0.0
C1084 C 0.49257 0.57537 0.8739 0.0
C1085 C 0.47843 0.56835 0.83858 0.0
C1086 C 0.48263 0.55261 0.80575 0.0
C1087 C 0.48907 0.59328 0.90557 0.0
C1088 C 0.4717 0.59397 0.93415 0.0
C1089 C 0.5033 0.60925 0.90941 0.0
C1090 C 0.52098 0.61057 0.87648 0.0
C1091 C 0.51902 0.60951 0.82356 0.0
C1092 C 0.53571 0.61045 0.79275 0.0
C1093 C 0.55446 0.61261 0.81439 0.0
C1094 C 0.55655 0.61389 0.86689 0.0
C1095 C 0.53991 0.61293 0.89789 0.0
H1096 H 0.56737 0.61333 0.79047 0.0
H1097 H 0.40186 0.60934 0.07648 0.0
H1098 H 0.82354 0.41917 0.97059 0.0
H1099 H 0.85114 0.42225 0.91205 0.0
H1100 H 0.88913 0.39591 0.02225 0.0
H1101 H 0.86137 0.39162 0.0803 0.0
H1102 H 0.90026 0.43667 0.9827 0.0
H1103 H 0.88175 0.36963 0.92806 0.0
H1104 H 0.8584 0.34329 0.8969 0.0
H1105 H 0.84749 0.37788 0.76382 0.0
H1106 H 0.87056 0.40457 0.79455 0.0
H1107 H 0.98459 0.44965 0.83268 0.0
H1108 H 0.95971 0.43351 0.88713 0.0
H1109 H 0.91669 0.4371 0.7672 0.0
H1110 H 0.94182 0.45204 0.71184 0.0
H1111 H 0.90911 0.40495 0.81486 0.0
H1112 H 0.92175 0.47277 0.86705 0.0
H1113 H 0.94178 0.50231 0.89481 0.0
H1114 H 0.95951 0.47087 0.02781 0.0
H1115 H 0.93978 0.44104 0.00046 0.0
C1116 C 0.83754 0.41337 0.982 0.0
C1117 C 0.84018 0.40528 0.03059 0.0
C1118 C 0.85335 0.41528 0.94848 0.0
C1119 C 0.8721 0.40936 0.96303 0.0
C1120 C 0.87472 0.40062 0.01054 0.0
C1121 C 0.85885 0.39835 0.04378 0.0
C1122 C 0.88928 0.41414 0.93058 0.0
C1123 C 0.9025 0.42948 0.94643 0.0
C1124 C 0.89155 0.40528 0.88251 0.0
C1125 C 0.87777 0.38918 0.86384 0.0
C1126 C 0.87424 0.37171 0.89237 0.0
C1127 C 0.86108 0.35669 0.87473 0.0
C1128 C 0.85143 0.35893 0.82846 0.0
C1129 C 0.85496 0.37617 0.79967 0.0
C1130 C 0.8681 0.39123 0.81715 0.0
C1131 C 0.96989 0.44669 0.81781 0.0
C1132 C 0.96507 0.45221 0.76825 0.0
C1133 C 0.95564 0.43758 0.84899 0.0
C1134 C 0.93614 0.43456 0.8318 0.0
C1135 C 0.93158 0.43929 0.78149 0.0
C1136 C 0.94595 0.44788 0.74987 0.0
C1137 C 0.92026 0.4276 0.86683 0.0
C1138 C 0.90715 0.41199 0.85142 0.0
C1139 C 0.91765 0.43667 0.91477 0.0
C1140 C 0.92948 0.4546 0.93142 0.0
C1141 C 0.93003 0.47212 0.90204 0.0
C1142 C 0.94132 0.48892 0.91771 0.0
C1143 C 0.95196 0.48845 0.96297 0.0
C1144 C 0.95129 0.4712 0.99271 0.0
C1145 C 0.94006 0.45434 0.97716 0.0
H1146 H 0.96069 0.50147 0.97505 0.0
H1147 H 0.84125 0.34729 0.81487 0.0
H1148 H 0.06007 0.1898 0.0657 0.0
H1149 H 0.04873 0.16701 0.99821 0.0
H1150 H 0.10896 0.15365 0.96448 0.0
H1151 H 0.12038 0.1763 0.03182 0.0
H1152 H 0.08827 0.15784 0.87904 0.0
H1153 H 0.08007 0.12197 0.03508 0.0
H1154 H 0.06806 0.11645 0.12203 0.0
H1155 H 0.00825 0.11842 0.06969 0.0
H1156 H 0.01992 0.12425 0.98248 0.0
H1157 H 0.07569 0.05796 0.77664 0.0
H1158 H 0.08422 0.08777 0.82699 0.0
H1159 H 0.02399 0.10574 0.81892 0.0
H1160 H 0.01549 0.07645 0.7663 0.0
H1161 H 0.04227 0.10109 0.92147 0.0
H1162 H 0.05139 0.13408 0.76292 0.0
H1163 H 0.06418 0.14066 0.67724 0.0
H1164 H 0.12335 0.14345 0.73509 0.0
H1165 H 0.11095 0.13655 0.82108 0.0
C1166 C 0.0709 0.18201 0.0439 0.0
C1167 C 0.09114 0.18485 0.05431 0.0
C1168 C 0.06439 0.16901 0.00529 0.0
C1169 C 0.07798 0.15843 0.97662 0.0
C1170 C 0.0982 0.16168 0.98597 0.0
C1171 C 0.10471 0.1747 0.02443 0.0
C1172 C 0.07121 0.14349 0.93803 0.0
C1173 C 0.07835 0.14533 0.88841 0.0
C1174 C 0.05793 0.12739 0.95 0.0
C1175 C 0.05087 0.12378 0.00235 0.0
C1176 C 0.06436 0.12139 0.04218 0.0
C1177 C 0.05762 0.11818 0.09149 0.0
C1178 C 0.03741 0.11715 0.1014 0.0
C1179 C 0.0239 0.11926 0.06197 0.0
C1180 C 0.03057 0.12251 0.01259 0.0
C1181 C 0.06436 0.06852 0.78427 0.0
C1182 C 0.04495 0.06486 0.76696 0.0
C1183 C 0.06925 0.08552 0.81321 0.0
C1184 C 0.05474 0.09895 0.82649 0.0
C1185 C 0.03541 0.09558 0.80877 0.0
C1186 C 0.03061 0.07883 0.77869 0.0
C1187 C 0.05946 0.11539 0.86268 0.0
C1188 C 0.05203 0.11373 0.91199 0.0
C1189 C 0.07263 0.1315 0.85052 0.0
C1190 C 0.08023 0.1346 0.79845 0.0
C1191 C 0.06715 0.13579 0.75732 0.0
C1192 C 0.07432 0.13972 0.70872 0.0
C1193 C 0.09456 0.14257 0.70077 0.0
C1194 C 0.10768 0.14132 0.74134 0.0
C1195 C 0.10058 0.13739 0.79001 0.0
H1196 H 0.10008 0.14564 0.66313 0.0
H1197 H 0.03222 0.11466 0.13961 0.0
H1198 H 0.30662 0.05268 0.93779 0.0
H1199 H 0.3331 0.0446 0.87891 0.0
H1200 H 0.36635 0.02051 0.00255 0.0
H1201 H 0.33985 0.02793 0.06066 0.0
H1202 H 0.36893 0.05771 0.87149 0.0
H1203 H 0.39588 0.98503 0.96705 0.0
H1204 H 0.38172 0.95568 0.01212 0.0
H1205 H 0.32598 0.96352 0.93909 0.0
H1206 H 0.33987 0.99275 0.89308 0.0
H1207 H 0.46769 0.04117 0.80428 0.0
H1208 H 0.43668 0.04594 0.84891 0.0
H1209 H 0.41132 0.99295 0.77717 0.0
H1210 H 0.44231 0.9878 0.73362 0.0
H1211 H 0.40171 0.99259 0.87143 0.0
H1212 H 0.39905 0.04012 0.73947 0.0
H1213 H 0.41091 0.06789 0.68515 0.0
H1214 H 0.4133 0.10739 0.81352 0.0
H1215 H 0.40174 0.07976 0.86882 0.0
C1216 C 0.31948 0.04537 0.95206 0.0
C1217 C 0.32103 0.04065 0.00364 0.0
C1218 C 0.33462 0.04083 0.91851 0.0
C1219 C 0.35166 0.03167 0.93604 0.0
C1220 C 0.35318 0.02703 0.98764 0.0
C1221 C 0.33798 0.03128 0.02091 0.0
C1222 C 0.36828 0.0277 0.90124 0.0
C1223 C 0.37601 0.04342 0.87131 0.0
C1224 C 0.37731 0.00893 0.89984 0.0
C1225 C 0.3689 0.99119 0.9269 0.0
C1226 C 0.38064 0.98043 0.9604 0.0
C1227 C 0.37265 0.96383 0.98617 0.0
C1228 C 0.35295 0.95777 0.97857 0.0
C1229 C 0.34122 0.96827 0.94507 0.0
C1230 C 0.34914 0.98487 0.91919 0.0
C1231 C 0.45551 0.03054 0.79805 0.0
C1232 C 0.45754 0.01407 0.76553 0.0
C1233 C 0.43775 0.03333 0.82337 0.0
C1234 C 0.42157 0.0199 0.81604 0.0
C1235 C 0.42359 0.00347 0.78362 0.0
C1236 C 0.44136 0.00056 0.75872 0.0
C1237 C 0.40265 0.02275 0.8429 0.0
C1238 C 0.39452 0.00682 0.87134 0.0
C1239 C 0.39288 0.04109 0.84151 0.0
C1240 C 0.39967 0.05782 0.80838 0.0
C1241 C 0.40223 0.0547 0.7562 0.0
C1242 C 0.40888 0.07042 0.72522 0.0
C1243 C 0.41289 0.08939 0.74589 0.0
C1244 C 0.4102 0.09268 0.79758 0.0
C1245 C 0.40358 0.077 0.82876 0.0
H1246 H 0.41805 0.10154 0.72184 0.0
H1247 H 0.34679 0.94492 0.99858 0.0
H1248 H 0.42678 0.28791 0.94124 0.0
H1249 H 0.43632 0.31577 0.88516 0.0
H1250 H 0.47165 0.3426 0.00492 0.0
H1251 H 0.46248 0.3148 0.06046 0.0
H1252 H 0.43057 0.35449 0.88887 0.0
H1253 H 0.51112 0.36746 0.95925 0.0
H1254 H 0.53825 0.34787 0.9932 0.0
H1255 H 0.51438 0.29509 0.91925 0.0
H1256 H 0.48727 0.31441 0.88431 0.0
H1257 H 0.46919 0.45032 0.808 0.0
H1258 H 0.45757 0.42074 0.85556 0.0
H1259 H 0.49763 0.3844 0.77233 0.0
H1260 H 0.50968 0.41379 0.72637 0.0
H1261 H 0.50064 0.37578 0.86533 0.0
H1262 H 0.4462 0.38258 0.75223 0.0
H1263 H 0.41924 0.39985 0.70996 0.0
H1264 H 0.39132 0.40889 0.85328 0.0
H1265 H 0.41825 0.39189 0.89649 0.0
C1266 C 0.4367 0.2997 0.95536 0.0
C1267 C 0.44412 0.299 0.00501 0.0
C1268 C 0.44208 0.31563 0.92339 0.0
C1269 C 0.4549 0.33119 0.94056 0.0
C1270 C 0.46212 0.33058 0.99032 0.0
C1271 C 0.45692 0.31461 0.02202 0.0
C1272 C 0.46068 0.34818 0.90686 0.0
C1273 C 0.44589 0.35912 0.88358 0.0
C1274 C 0.48067 0.35407 0.89921 0.0
C1275 C 0.49707 0.34236 0.91957 0.0
C1276 C 0.51171 0.3517 0.95007 0.0
C1277 C 0.52708 0.34064 0.96952 0.0
C1278 C 0.52801 0.32024 0.95852 0.0
C1279 C 0.51361 0.31087 0.92789 0.0
C1280 C 0.49823 0.32187 0.90831 0.0
C1281 C 0.47538 0.43598 0.7997 0.0
C1282 C 0.49046 0.43444 0.76372 0.0
C1283 C 0.46869 0.41905 0.82673 0.0
C1284 C 0.47667 0.40025 0.81748 0.0
C1285 C 0.49133 0.3987 0.78057 0.0
C1286 C 0.4982 0.41557 0.75422 0.0
C1287 C 0.47055 0.38227 0.84747 0.0
C1288 C 0.4853 0.37116 0.87036 0.0
C1289 C 0.45057 0.37593 0.85349 0.0
C1290 C 0.43434 0.38614 0.82763 0.0
C1291 C 0.43438 0.38839 0.77477 0.0
C1292 C 0.41909 0.3981 0.75064 0.0
C1293 C 0.4036 0.40551 0.77893 0.0
C1294 C 0.40334 0.40317 0.83142 0.0
C1295 C 0.4186 0.39348 0.85575 0.0
H1296 H 0.39178 0.41303 0.76018 0.0
H1297 H 0.5399 0.3117 0.97364 0.0
H1298 H 0.19701 0.51487 0.05262 0.0
H1299 H 0.1692 0.51753 0.99518 0.0
H1300 H 0.19841 0.48139 0.88514 0.0
H1301 H 0.22678 0.47906 0.94212 0.0
H1302 H 0.17474 0.51267 0.84268 0.0
H1303 H 0.17 0.45796 0.96189 0.0
H1304 H 0.17148 0.44351 0.04744 0.0
H1305 H 0.12497 0.48089 0.09584 0.0
H1306 H 0.12346 0.49583 0.01074 0.0
H1307 H 0.09015 0.47584 0.71178 0.0
H1308 H 0.12095 0.4779 0.7595 0.0
H1309 H 0.09088 0.50463 0.88486 0.0
H1310 H 0.05986 0.50217 0.83769 0.0
H1311 H 0.11571 0.4786 0.91817 0.0
H1312 H 0.11914 0.53283 0.80036 0.0
H1313 H 0.11764 0.54854 0.71626 0.0
H1314 H 0.16596 0.51394 0.66619 0.0
H1315 H 0.16755 0.49775 0.74978 0.0
C1316 C 0.19797 0.50813 0.01547 0.0
C1317 C 0.2141 0.49658 0.00217 0.0
C1318 C 0.18194 0.50955 0.98282 0.0
C1319 C 0.18165 0.49936 0.93643 0.0
C1320 C 0.19836 0.48927 0.92099 0.0
C1321 C 0.21448 0.48784 0.9537 0.0
C1322 C 0.16301 0.49707 0.9076 0.0
C1323 C 0.16187 0.50505 0.85877 0.0
C1324 C 0.14617 0.48744 0.92924 0.0
C1325 C 0.14674 0.47813 0.98009 0.0
C1326 C 0.16018 0.46319 0.99086 0.0
C1327 C 0.16102 0.4549 0.03926 0.0
C1328 C 0.14836 0.46131 0.07709 0.0
C1329 C 0.13478 0.47596 0.06652 0.0
C1330 C 0.13392 0.48433 0.01821 0.0
C1331 C 0.09005 0.48204 0.74963 0.0
C1332 C 0.07259 0.48898 0.77082 0.0
C1333 C 0.1077 0.48331 0.77675 0.0
C1334 C 0.10831 0.49185 0.82529 0.0
C1335 C 0.09077 0.49811 0.84731 0.0
C1336 C 0.07304 0.49665 0.82036 0.0
C1337 C 0.12725 0.49432 0.85305 0.0
C1338 C 0.1285 0.48629 0.90182 0.0
C1339 C 0.14409 0.50405 0.83138 0.0
C1340 C 0.14335 0.51395 0.78125 0.0
C1341 C 0.12937 0.52847 0.77133 0.0
C1342 C 0.12852 0.53748 0.72376 0.0
C1343 C 0.1417 0.53224 0.68592 0.0
C1344 C 0.15578 0.518 0.69559 0.0
C1345 C 0.15667 0.5089 0.74305 0.0
H1346 H 0.14099 0.53921 0.64909 0.0
H1347 H 0.14904 0.45489 0.11455 0.0
H1348 H 0.97276 0.81474 0.28767 0.0
H1349 H 0.96557 0.84212 0.34544 0.0
H1350 H 0.00676 0.81967 0.45375 0.0
H1351 H 0.01494 0.79298 0.39556 0.0
H1352 H 0.96928 0.83644 0.49503 0.0
H1353 H 0.02513 0.85117 0.38224 0.0
H1354 H 0.03999 0.85361 0.29739 0.0
H1355 H 0.99659 0.89532 0.25277 0.0
H1356 H 0.98127 0.89282 0.33718 0.0
H1357 H 0.00576 0.91648 0.64542 0.0
H1358 H 0.99877 0.88715 0.5927 0.0
H1359 H 0.97703 0.92499 0.47445 0.0
H1360 H 0.98507 0.95456 0.52628 0.0
H1361 H 0.99927 0.90067 0.43398 0.0
H1362 H 0.94622 0.89114 0.54843 0.0
H1363 H 0.9293 0.88859 0.63063 0.0
H1364 H 0.96338 0.83803 0.66988 0.0
H1365 H 0.98072 0.84043 0.5882 0.0
C1366 C 0.98022 0.81548 0.32389 0.0
C1367 C 0.99474 0.80176 0.33631 0.0
C1368 C 0.9759 0.83103 0.35706 0.0
C1369 C 0.98574 0.83293 0.40359 0.0
C1370 C 0.99894 0.81835 0.41805 0.0
C1371 C 0.00353 0.80301 0.38462 0.0
C1372 C 0.98447 0.85143 0.434 0.0
C1373 C 0.97583 0.85053 0.48202 0.0
C1374 C 0.9925 0.86986 0.41608 0.0
C1375 C 0.00193 0.87162 0.36573 0.0
C1376 C 0.01867 0.86072 0.35418 0.0
C1377 C 0.02718 0.86214 0.30621 0.0
C1378 C 0.0192 0.87457 0.26965 0.0
C1379 C 0.00273 0.88566 0.28108 0.0
C1380 C 0.99413 0.88426 0.32897 0.0
C1381 C 0.99924 0.91855 0.60845 0.0
C1382 C 0.99599 0.93784 0.58997 0.0
C1383 C 0.99509 0.9017 0.57838 0.0
C1384 C 0.98704 0.90371 0.5297 0.0
C1385 C 0.98323 0.92298 0.51181 0.0
C1386 C 0.9878 0.93988 0.54147 0.0
C1387 C 0.98422 0.8859 0.49609 0.0
C1388 C 0.99226 0.88683 0.4472 0.0
C1389 C 0.97528 0.86762 0.51305 0.0
C1390 C 0.96487 0.86606 0.56226 0.0
C1391 C 0.95021 0.87956 0.57472 0.0
C1392 C 0.94053 0.87813 0.62121 0.0
C1393 C 0.94529 0.86318 0.65549 0.0
C1394 C 0.95972 0.8496 0.6433 0.0
C1395 C 0.96945 0.85098 0.59686 0.0
H1396 H 0.93778 0.8621 0.69147 0.0
H1397 H 0.02582 0.87564 0.23253 0.0
H1398 H 0.73059 0.99226 0.33339 0.0
H1399 H 0.70433 0.97953 0.38934 0.0
H1400 H 0.69544 0.03954 0.44293 0.0
H1401 H 0.72172 0.05222 0.38797 0.0
H1402 H 0.68947 0.01424 0.51762 0.0
H1403 H 0.66872 0.01902 0.34305 0.0
H1404 H 0.67034 0.0115 0.25181 0.0
H1405 H 0.66065 0.94889 0.28241 0.0
H1406 H 0.65925 0.95603 0.37397 0.0
H1407 H 0.57672 0.00544 0.4995 0.0
H1408 H 0.60887 0.00628 0.45918 0.0
H1409 H 0.63316 0.975 0.58614 0.0
H1410 H 0.601 0.97469 0.62775 0.0
H1411 H 0.63351 0.98089 0.42574 0.0
H1412 H 0.68074 0.99218 0.60517 0.0
H1413 H 0.67762 0.00439 0.69288 0.0
H1414 H 0.63134 0.04257 0.64694 0.0
H1415 H 0.63437 0.03077 0.55892 0.0
C1416 C 0.72325 0.00265 0.35784 0.0
C1417 C 0.72812 0.02325 0.35604 0.0
C1418 C 0.70826 0.99537 0.38975 0.0
C1419 C 0.69768 0.00863 0.41969 0.0
C1420 C 0.70341 0.029 0.42029 0.0
C1421 C 0.71848 0.03625 0.38884 0.0
C1422 C 0.67942 0.00188 0.44637 0.0
C1423 C 0.67732 0.0067 0.49773 0.0
C1424 C 0.66343 0.99233 0.42029 0.0
C1425 C 0.66413 0.98803 0.36531 0.0
C1426 C 0.66707 0.00364 0.33031 0.0
C1427 C 0.66794 0.99945 0.27857 0.0
C1428 C 0.66566 0.97972 0.26134 0.0
C1429 C 0.66246 0.96415 0.29583 0.0
C1430 C 0.66163 0.96826 0.34764 0.0
C1431 C 0.58881 0.99853 0.51876 0.0
C1432 C 0.5863 0.99019 0.56716 0.0
C1433 C 0.60722 0.99897 0.49551 0.0
C1434 C 0.62354 0.99097 0.51988 0.0
C1435 C 0.62088 0.98162 0.56701 0.0
C1436 C 0.60246 0.98138 0.59065 0.0
C1437 C 0.64338 0.99358 0.4968 0.0
C1438 C 0.64581 0.98795 0.44608 0.0
C1439 C 0.65942 0.003 0.52304 0.0
C1440 C 0.65762 0.01038 0.57568 0.0
C1441 C 0.66993 0.00321 0.61383 0.0
C1442 C 0.66818 0.01006 0.66357 0.0
C1443 C 0.65423 0.02419 0.67551 0.0
C1444 C 0.64208 0.03157 0.63768 0.0
C1445 C 0.6438 0.02479 0.58788 0.0
H1446 H 0.65288 0.02945 0.71405 0.0
H1447 H 0.66633 0.97651 0.22126 0.0
H1448 H 0.553 0.7125 0.40912 0.0
H1449 H 0.56124 0.68331 0.45975 0.0
H1450 H 0.55414 0.64556 0.32799 0.0
H1451 H 0.54518 0.67424 0.27789 0.0
H1452 H 0.53182 0.63222 0.404 0.0
H1453 H 0.59928 0.65445 0.38275 0.0
H1454 H 0.62773 0.67838 0.38659 0.0
H1455 H 0.62119 0.68328 0.54755 0.0
H1456 H 0.59252 0.65957 0.54459 0.0
H1457 H 0.55536 0.54052 0.50063 0.0
H1458 H 0.5613 0.57129 0.45294 0.0
H1459 H 0.56347 0.60528 0.59179 0.0
H1460 H 0.55782 0.57439 0.64016 0.0
H1461 H 0.58928 0.62115 0.51558 0.0
H1462 H 0.52123 0.6003 0.53629 0.0
H1463 H 0.49306 0.57599 0.53336 0.0
H1464 H 0.50062 0.56907 0.37319 0.0
H1465 H 0.52906 0.5931 0.37533 0.0
C1466 C 0.55344 0.69802 0.39081 0.0
C1467 C 0.54832 0.69577 0.33941 0.0
C1468 C 0.55833 0.68138 0.41971 0.0
C1469 C 0.55828 0.66224 0.39764 0.0
C1470 C 0.55427 0.66018 0.34581 0.0
C1471 C 0.54933 0.67671 0.31704 0.0
C1472 C 0.56014 0.64407 0.42914 0.0
C1473 C 0.54456 0.62971 0.42773 0.0
C1474 C 0.57642 0.64109 0.46151 0.0
C1475 C 0.59361 0.6554 0.46336 0.0
C1476 C 0.60379 0.66078 0.41891 0.0
C1477 C 0.61998 0.67427 0.42094 0.0
C1478 C 0.62623 0.68239 0.46726 0.0
C1479 C 0.61632 0.677 0.51168 0.0
C1480 C 0.6001 0.66352 0.50985 0.0
C1481 C 0.55757 0.55446 0.52121 0.0
C1482 C 0.55576 0.55507 0.57413 0.0
C1483 C 0.561 0.57203 0.49387 0.0
C1484 C 0.56241 0.59057 0.51882 0.0
C1485 C 0.56235 0.5911 0.57187 0.0
C1486 C 0.55907 0.57344 0.59941 0.0
C1487 C 0.56119 0.60928 0.48927 0.0
C1488 C 0.57667 0.62374 0.49151 0.0
C1489 C 0.54477 0.6125 0.45765 0.0
C1490 C 0.52739 0.59836 0.45606 0.0
C1491 C 0.51696 0.5935 0.5005 0.0
C1492 C 0.50094 0.57978 0.49898 0.0
C1493 C 0.49508 0.57095 0.45314 0.0
C1494 C 0.50519 0.5759 0.40869 0.0
C1495 C 0.52125 0.58958 0.41003 0.0
H1496 H 0.48269 0.56031 0.45206 0.0
H1497 H 0.63878 0.69283 0.46876 0.0
H1498 H 0.79585 0.48779 0.36984 0.0
H1499 H 0.81944 0.50524 0.42649 0.0
H1500 H 0.86573 0.49672 0.31793 0.0
H1501 H 0.8425 0.47942 0.2618 0.0
H1502 H 0.84886 0.48901 0.47025 0.0
H1503 H 0.90211 0.53007 0.32613 0.0
H1504 H 0.89936 0.5509 0.24988 0.0
H1505 H 0.84111 0.56672 0.29364 0.0
H1506 H 0.84359 0.54625 0.37058 0.0
H1507 H 0.94577 0.47755 0.52766 0.0
H1508 H 0.91447 0.48104 0.48457 0.0
H1509 H 0.91666 0.54442 0.51602 0.0
H1510 H 0.94847 0.54111 0.5592 0.0
H1511 H 0.90349 0.53599 0.41968 0.0
H1512 H 0.88632 0.51602 0.58496 0.0
H1513 H 0.88849 0.49671 0.66394 0.0
H1514 H 0.87212 0.4427 0.58369 0.0
H1515 H 0.87016 0.46161 0.50406 0.0
C1516 C 0.811 0.48996 0.35781 0.0
C1517 C 0.81728 0.4822 0.31129 0.0
C1518 C 0.82443 0.50002 0.39006 0.0
C1519 C 0.84433 0.50254 0.37626 0.0
C1520 C 0.85038 0.49551 0.32895 0.0
C1521 C 0.83703 0.48553 0.2968 0.0
C1522 C 0.85944 0.50974 0.41335 0.0
C1523 C 0.8606 0.49958 0.45955 0.0
C1524 C 0.8745 0.52398 0.40023 0.0
C1525 C 0.87303 0.53654 0.3542 0.0
C1526 C 0.88877 0.53811 0.31977 0.0
C1527 C 0.88724 0.54983 0.27633 0.0
C1528 C 0.87006 0.56011 0.26689 0.0
C1529 C 0.85439 0.55871 0.30093 0.0
C1530 C 0.85584 0.54703 0.34443 0.0
C1531 C 0.93972 0.49229 0.52542 0.0
C1532 C 0.94955 0.50903 0.54738 0.0
C1533 C 0.92175 0.49424 0.5009 0.0
C1534 C 0.91303 0.5129 0.49819 0.0
C1535 C 0.92308 0.52985 0.51821 0.0
C1536 C 0.94124 0.52793 0.54276 0.0
C1537 C 0.89337 0.51421 0.47435 0.0
C1538 C 0.8914 0.52595 0.43091 0.0
C1539 C 0.87733 0.50174 0.49047 0.0
C1540 C 0.87812 0.49027 0.53846 0.0
C1541 C 0.88326 0.50001 0.58409 0.0
C1542 C 0.88445 0.48913 0.62899 0.0
C1543 C 0.88045 0.46849 0.62883 0.0
C1544 C 0.87519 0.45869 0.58377 0.0
C1545 C 0.874 0.4695 0.53875 0.0
H1546 H 0.88141 0.46008 0.66362 0.0
H1547 H 0.86891 0.56916 0.23322 0.0
loop_
_geom_bond_atom_site_label_1
_geom_bond_atom_site_label_2
_geom_bond_distance
_geom_bond_site_symmetry_2
_ccdc_geom_bond_type
P0 O11 1.490 . S
P0 C14 1.812 . S
P0 C20 1.803 . S
P0 C26 1.819 1_554 S
H1 C15 0.941 . S
H2 C16 0.939 . S
H3 C18 0.940 . S
H4 C19 0.940 . S
H5 C21 0.939 . S
H6 C22 0.942 . S
H7 C24 0.940 . S
H8 C25 0.939 . S
H9 C27 0.941 1_554 S
H10 C31 0.939 . S
O11 P0 1.490 . S
H12 C28 0.939 . S
H13 C30 0.940 . S
C14 P0 1.812 . S
C14 C15 1.389 . S
C14 C19 1.391 . S
C15 H1 0.941 . S
C15 C14 1.389 . S
C15 C16 1.397 . S
C16 H2 0.939 . S
C16 C15 1.397 . S
C16 C17 1.378 . S
C17 C16 1.378 . S
C17 C18 1.378 . S
C18 H3 0.940 . S
C18 C17 1.378 . S
C18 C19 1.396 . S
C19 H4 0.940 . S
C19 C14 1.391 . S
C19 C18 1.396 . S
C20 P0 1.803 . S
C20 C21 1.378 1_554 S
C20 C25 1.400 . S
C21 H5 0.939 . S
C21 C20 1.378 1_556 S
C21 C22 1.361 . S
C22 H6 0.942 . S
C22 C21 1.361 . S
C22 C23 1.369 . S
C23 C22 1.369 . S
C23 C24 1.404 1_556 S
C24 H7 0.940 . S
C24 C23 1.404 1_554 S
C24 C25 1.389 . S
C25 H8 0.939 . S
C25 C20 1.400 . S
C25 C24 1.389 . S
C26 P0 1.819 1_556 S
C26 C27 1.391 . S
C26 C31 1.391 . S
C27 H9 0.941 1_556 S
C27 C26 1.391 . S
C27 C28 1.396 . S
C28 H12 0.939 . S
C28 C27 1.396 . S
C28 C29 1.397 . S
C29 C28 1.397 . S
C29 C30 1.385 . S
C30 H13 0.940 . S
C30 C29 1.385 . S
C30 C31 1.388 . S
C31 H10 0.939 . S
C31 C26 1.391 . S
C31 C30 1.388 . S
P32 O43 1.490 . S
P32 C46 1.812 . S
P32 C52 1.803 . S
P32 C58 1.819 . S
H33 C47 0.941 . S
H34 C48 0.939 . S
H35 C50 0.940 . S
H36 C51 0.940 . S
H37 C53 0.939 . S
H38 C54 0.942 . S
H39 C56 0.940 . S
H40 C57 0.939 . S
H41 C59 0.941 . S
H42 C63 0.933 1_655 S
O43 P32 1.490 . S
H44 C60 0.939 . S
H45 C62 0.940 . S
C46 P32 1.812 . S
C46 C47 1.389 . S
C46 C51 1.391 1_455 S
C47 H33 0.941 . S
C47 C46 1.389 . S
C47 C48 1.397 . S
C48 H34 0.939 . S
C48 C47 1.397 . S
C48 C49 1.376 . S
C49 C48 1.376 . S
C49 C50 1.379 1_455 S
C50 H35 0.940 . S
C50 C49 1.379 1_655 S
C50 C51 1.396 . S
C51 H36 0.940 . S
C51 C46 1.391 1_655 S
C51 C50 1.396 . S
C52 P32 1.803 . S
C52 C53 1.378 . S
C52 C57 1.400 1_455 S
C53 H37 0.939 . S
C53 C52 1.378 . S
C53 C54 1.361 . S
C54 H38 0.942 . S
C54 C53 1.361 . S
C54 C55 1.369 1_455 S
C55 C54 1.369 1_655 S
C55 C56 1.404 . S
C56 H39 0.940 . S
C56 C55 1.404 . S
C56 C57 1.389 . S
C57 H40 0.939 . S
C57 C52 1.400 1_655 S
C57 C56 1.389 . S
C58 P32 1.819 . S
C58 C59 1.391 . S
C58 C63 1.403 . S
C59 H41 0.941 . S
C59 C58 1.391 . S
C59 C60 1.396 . S
C60 H44 0.939 . S
C60 C59 1.396 . S
C60 C61 1.397 1_554 S
C61 C60 1.397 1_556 S
C61 C62 1.385 1_455 S
C62 H45 0.940 . S
C62 C61 1.385 1_655 S
C62 C63 1.382 1_656 S
C63 H42 0.933 1_455 S
C63 C58 1.403 . S
C63 C62 1.382 1_454 S
P64 O75 1.490 . S
P64 C78 1.812 . S
P64 C84 1.803 . S
P64 C90 1.819 . S
H65 C79 0.941 . S
H66 C80 0.939 . S
H67 C82 0.940 . S
H68 C83 0.948 . S
H69 C85 0.939 . S
H70 C86 0.941 1_556 S
H71 C88 0.940 . S
H72 C89 0.962 . S
H73 C91 0.941 . S
H74 C95 0.928 1_565 S
O75 P64 1.490 . S
H76 C92 0.939 . S
H77 C94 0.940 . S
C78 P64 1.812 . S
C78 C79 1.389 . S
C78 C83 1.378 1_545 S
C79 H65 0.941 . S
C79 C78 1.389 . S
C79 C80 1.397 . S
C80 H66 0.939 . S
C80 C79 1.397 . S
C80 C81 1.378 . S
C81 C80 1.378 . S
C81 C82 1.378 1_545 S
C82 H67 0.940 . S
C82 C81 1.378 1_565 S
C82 C83 1.401 . S
C83 H68 0.948 . S
C83 C78 1.378 1_565 S
C83 C82 1.401 . S
C84 P64 1.803 . S
C84 C85 1.378 . S
C84 C89 1.362 1_545 S
C85 H69 0.939 . S
C85 C84 1.378 . S
C85 C86 1.361 . S
C86 H70 0.941 1_554 S
C86 C85 1.361 . S
C86 C87 1.369 . S
C87 C86 1.369 . S
C87 C88 1.404 1_545 S
C88 H71 0.940 . S
C88 C87 1.404 1_565 S
C88 C89 1.406 . S
C89 H72 0.962 . S
C89 C84 1.362 1_565 S
C89 C88 1.406 . S
C90 P64 1.819 . S
C90 C91 1.391 . S
C90 C95 1.391 1_554 S
C91 H73 0.941 . S
C91 C90 1.391 . S
C91 C92 1.396 1_554 S
C92 H76 0.939 . S
C92 C91 1.396 1_556 S
C92 C93 1.397 . S
C93 C92 1.397 . S
C93 C94 1.385 1_545 S
C94 H77 0.940 . S
C94 C93 1.385 1_565 S
C94 C95 1.388 1_565 S
C95 H74 0.928 1_545 S
C95 C90 1.391 1_556 S
C95 C94 1.388 1_545 S
P96 O107 1.490 . S
P96 C110 1.812 . S
P96 C116 1.803 . S
P96 C122 1.819 . S
H97 C111 0.941 . S
H98 C112 0.939 . S
H99 C114 0.940 . S
H100 C115 0.940 . S
H101 C117 0.939 . S
H102 C118 0.934 1_556 S
H103 C120 0.940 . S
H104 C121 0.939 . S
H105 C123 0.941 . S
H106 C127 0.939 . S
O107 P96 1.490 . S
H108 C124 0.939 . S
H109 C126 0.940 . S
C110 P96 1.812 . S
C110 C111 1.389 . S
C110 C115 1.391 . S
C111 H97 0.941 . S
C111 C110 1.389 . S
C111 C112 1.397 . S
C112 H98 0.939 . S
C112 C111 1.397 . S
C112 C113 1.378 . S
C113 C112 1.378 . S
C113 C114 1.378 . S
C114 H99 0.940 . S
C114 C113 1.378 . S
C114 C115 1.396 . S
C115 H100 0.940 . S
C115 C110 1.391 . S
C115 C114 1.396 . S
C116 P96 1.803 . S
C116 C117 1.378 . S
C116 C121 1.400 . S
C117 H101 0.939 . S
C117 C116 1.378 . S
C117 C118 1.365 . S
C118 H102 0.934 1_554 S
C118 C117 1.365 . S
C118 C119 1.374 . S
C119 C118 1.374 . S
C119 C120 1.404 . S
C120 H103 0.940 . S
C120 C119 1.404 . S
C120 C121 1.389 . S
C121 H104 0.939 . S
C121 C116 1.400 . S
C121 C120 1.389 . S
C122 P96 1.819 . S
C122 C123 1.391 . S
C122 C127 1.391 1_554 S
C123 H105 0.941 . S
C123 C122 1.391 . S
C123 C124 1.396 1_554 S
C124 H108 0.939 . S
C124 C123 1.396 1_556 S
C124 C125 1.397 . S
C125 C124 1.397 . S
C125 C126 1.385 . S
C126 H109 0.940 . S
C126 C125 1.385 . S
C126 C127 1.388 . S
C127 H106 0.939 . S
C127 C122 1.391 1_556 S
C127 C126 1.388 . S
P128 O139 1.490 . S
P128 C142 1.812 . S
P128 C148 1.803 . S
P128 C154 1.819 . S
H129 C143 0.941 . S
H130 C144 0.939 . S
H131 C146 0.940 . S
H132 C147 0.940 . S
H133 C149 0.939 . S
H134 C150 0.942 . S
H135 C152 0.940 . S
H136 C153 0.939 . S
H137 C155 0.941 . S
H138 C159 0.939 . S
O139 P128 1.490 . S
H140 C156 0.939 . S
H141 C158 0.940 . S
C142 P128 1.812 . S
C142 C143 1.389 . S
C142 C147 1.391 . S
C143 H129 0.941 . S
C143 C142 1.389 . S
C143 C144 1.397 . S
C144 H130 0.939 . S
C144 C143 1.397 . S
C144 C145 1.378 . S
C145 C144 1.378 . S
C145 C146 1.378 . S
C146 H131 0.940 . S
C146 C145 1.378 . S
C146 C147 1.396 . S
C147 H132 0.940 . S
C147 C142 1.391 . S
C147 C146 1.396 . S
C148 P128 1.803 . S
C148 C149 1.378 . S
C148 C153 1.400 . S
C149 H133 0.939 . S
C149 C148 1.378 . S
C149 C150 1.361 . S
C150 H134 0.942 . S
C150 C149 1.361 . S
C150 C151 1.369 . S
C151 C150 1.369 . S
C151 C152 1.404 . S
C152 H135 0.940 . S
C152 C151 1.404 . S
C152 C153 1.389 . S
C153 H136 0.939 . S
C153 C148 1.400 . S
C153 C152 1.389 . S
C154 P128 1.819 . S
C154 C155 1.391 . S
C154 C159 1.391 . S
C155 H137 0.941 . S
C155 C154 1.391 . S
C155 C156 1.396 . S
C156 H140 0.939 . S
C156 C155 1.396 . S
C156 C157 1.397 . S
C157 C156 1.397 . S
C157 C158 1.385 . S
C158 H141 0.940 . S
C158 C157 1.385 . S
C158 C159 1.388 . S
C159 H138 0.939 . S
C159 C154 1.391 . S
C159 C158 1.388 . S
P160 O171 1.490 . S
P160 C174 1.812 . S
P160 C180 1.803 . S
P160 C186 1.819 . S
H161 C175 0.941 . S
H162 C176 0.939 . S
H163 C178 0.940 . S
H164 C179 0.940 . S
H165 C181 0.939 . S
H166 C182 0.942 . S
H167 C184 0.940 . S
H168 C185 0.939 . S
H169 C187 0.941 . S
H170 C191 0.939 . S
O171 P160 1.490 . S
H172 C188 0.939 . S
H173 C190 0.940 . S
C174 P160 1.812 . S
C174 C175 1.389 . S
C174 C179 1.391 . S
C175 H161 0.941 . S
C175 C174 1.389 . S
C175 C176 1.397 . S
C176 H162 0.939 . S
C176 C175 1.397 . S
C176 C177 1.378 . S
C177 C176 1.378 . S
C177 C178 1.378 . S
C178 H163 0.940 . S
C178 C177 1.378 . S
C178 C179 1.396 . S
C179 H164 0.940 . S
C179 C174 1.391 . S
C179 C178 1.396 . S
C180 P160 1.803 . S
C180 C181 1.378 . S
C180 C185 1.400 . S
C181 H165 0.939 . S
C181 C180 1.378 . S
C181 C182 1.361 . S
C182 H166 0.942 . S
C182 C181 1.361 . S
C182 C183 1.369 . S
C183 C182 1.369 . S
C183 C184 1.404 . S
C184 H167 0.940 . S
C184 C183 1.404 . S
C184 C185 1.389 . S
C185 H168 0.939 . S
C185 C180 1.400 . S
C185 C184 1.389 . S
C186 P160 1.819 . S
C186 C187 1.391 . S
C186 C191 1.391 . S
C187 H169 0.941 . S
C187 C186 1.391 . S
C187 C188 1.396 . S
C188 H172 0.939 . S
C188 C187 1.396 . S
C188 C189 1.397 . S
C189 C188 1.397 . S
C189 C190 1.385 . S
C190 H173 0.940 . S
C190 C189 1.385 . S
C190 C191 1.388 . S
C191 H170 0.939 . S
C191 C186 1.391 . S
C191 C190 1.388 . S
P192 O203 1.490 . S
P192 C206 1.812 . S
P192 C212 1.803 . S
P192 C218 1.819 . S
H193 C207 0.941 . S
H194 C208 0.939 . S
H195 C210 0.940 . S
H196 C211 0.941 . S
H197 C213 0.939 . S
H198 C214 0.942 . S
H199 C216 0.940 . S
H200 C217 0.956 . S
H201 C219 0.941 . S
H202 C223 0.934 1_565 S
O203 P192 1.490 . S
H204 C220 0.939 . S
H205 C222 0.940 . S
C206 P192 1.812 . S
C206 C207 1.389 . S
C206 C211 1.390 1_545 S
C207 H193 0.941 . S
C207 C206 1.389 . S
C207 C208 1.397 . S
C208 H194 0.939 . S
C208 C207 1.397 . S
C208 C209 1.378 . S
C209 C208 1.378 . S
C209 C210 1.378 1_545 S
C210 H195 0.940 . S
C210 C209 1.378 1_565 S
C210 C211 1.397 . S
C211 H196 0.941 . S
C211 C206 1.390 1_565 S
C211 C210 1.397 . S
C212 P192 1.803 . S
C212 C213 1.378 . S
C212 C217 1.374 1_545 S
C213 H197 0.939 . S
C213 C212 1.378 . S
C213 C214 1.361 . S
C214 H198 0.942 . S
C214 C213 1.361 . S
C214 C215 1.369 . S
C215 C214 1.369 . S
C215 C216 1.404 1_545 S
C216 H199 0.940 . S
C216 C215 1.404 1_565 S
C216 C217 1.399 . S
C217 H200 0.956 . S
C217 C212 1.374 1_565 S
C217 C216 1.399 . S
C218 P192 1.819 . S
C218 C219 1.391 . S
C218 C223 1.391 . S
C219 H201 0.941 . S
C219 C218 1.391 . S
C219 C220 1.396 . S
C220 H204 0.939 . S
C220 C219 1.396 . S
C220 C221 1.397 . S
C221 C220 1.397 . S
C221 C222 1.385 1_545 S
C222 H205 0.940 . S
C222 C221 1.385 1_565 S
C222 C223 1.388 1_565 S
C223 H202 0.934 1_545 S
C223 C218 1.391 . S
C223 C222 1.388 1_545 S
P224 O235 1.490 . S
P224 C238 1.812 . S
P224 C244 1.803 . S
P224 C250 1.819 . S
H225 C239 0.941 . S
H226 C240 0.939 . S
H227 C242 0.940 . S
H228 C243 0.940 . S
H229 C245 0.939 . S
H230 C246 0.942 . S
H231 C248 0.940 . S
H232 C249 0.939 . S
H233 C251 0.941 . S
H234 C255 0.939 . S
O235 P224 1.490 . S
H236 C252 0.939 . S
H237 C254 0.940 . S
C238 P224 1.812 . S
C238 C239 1.389 . S
C238 C243 1.391 . S
C239 H225 0.941 . S
C239 C238 1.389 . S
C239 C240 1.397 . S
C240 H226 0.939 . S
C240 C239 1.397 . S
C240 C241 1.378 . S
C241 C240 1.378 . S
C241 C242 1.378 . S
C242 H227 0.940 . S
C242 C241 1.378 . S
C242 C243 1.396 . S
C243 H228 0.940 . S
C243 C238 1.391 . S
C243 C242 1.396 . S
C244 P224 1.803 . S
C244 C245 1.378 . S
C244 C249 1.400 . S
C245 H229 0.939 . S
C245 C244 1.378 . S
C245 C246 1.361 . S
C246 H230 0.942 . S
C246 C245 1.361 . S
C246 C247 1.369 . S
C247 C246 1.369 . S
C247 C248 1.404 . S
C248 H231 0.940 . S
C248 C247 1.404 . S
C248 C249 1.389 . S
C249 H232 0.939 . S
C249 C244 1.400 . S
C249 C248 1.389 . S
C250 P224 1.819 . S
C250 C251 1.391 . S
C250 C255 1.391 . S
C251 H233 0.941 . S
C251 C250 1.391 . S
C251 C252 1.396 . S
C252 H236 0.939 . S
C252 C251 1.396 . S
C252 C253 1.397 . S
C253 C252 1.397 . S
C253 C254 1.385 . S
C254 H237 0.940 . S
C254 C253 1.385 . S
C254 C255 1.388 . S
C255 H234 0.939 . S
C255 C250 1.391 . S
C255 C254 1.388 . S
O256 Zn257 1.954 . S
O256 C272 1.227 . S
Zn257 O256 1.954 . S
Zn257 O258 1.948 . S
Zn257 O264 1.893 1_565 S
Zn257 O269 1.956 . S
O258 Zn257 1.948 . S
O258 Zn259 1.904 1_565 S
O258 Zn260 1.953 . S
O258 Zn261 1.961 . S
Zn259 O258 1.904 1_545 S
Zn259 O262 1.933 1_455 S
Zn259 O265 1.941 . S
Zn259 O266 1.965 . S
Zn260 O258 1.953 . S
Zn260 O267 1.938 1_565 S
Zn260 O268 1.906 . S
Zn260 O278 1.953 . S
Zn261 O258 1.961 . S
Zn261 O263 1.932 1_455 S
Zn261 O270 1.977 . S
Zn261 O271 1.910 . S
O262 Zn259 1.933 1_655 S
O262 C273 1.226 . S
O263 Zn261 1.932 1_655 S
O263 C273 1.307 1_565 S
O264 Zn257 1.893 1_545 S
O264 C275 1.253 . S
O265 Zn259 1.941 . S
O265 C275 1.283 . S
O266 Zn259 1.965 . S
O266 C274 1.303 . S
O267 Zn260 1.938 1_545 S
O267 C274 1.247 . S
O268 Zn260 1.906 . S
O268 C276 1.304 . S
O269 Zn257 1.956 . S
O269 C277 1.311 . S
O270 Zn261 1.977 . S
O270 C276 1.272 . S
O271 Zn261 1.910 . S
O271 C277 1.231 . S
C272 O256 1.227 . S
C272 O278 1.298 . S
C273 O262 1.226 . S
C273 O263 1.307 1_545 S
C274 O266 1.303 . S
C274 O267 1.247 . S
C275 O264 1.253 . S
C275 O265 1.283 . S
C276 O268 1.304 . S
C276 O270 1.272 . S
C277 O269 1.311 . S
C277 O271 1.231 . S
O278 Zn260 1.953 . S
O278 C272 1.298 . S
O279 Zn280 1.953 . S
O279 C295 1.225 . S
Zn280 O279 1.953 . S
Zn280 O281 1.949 . S
Zn280 O287 1.919 . S
Zn280 O292 1.924 . S
O281 Zn280 1.949 . S
O281 Zn282 1.923 1_545 S
O281 Zn283 1.950 . S
O281 Zn284 1.945 1_545 S
Zn282 O281 1.923 1_565 S
Zn282 O285 1.933 . S
Zn282 O288 1.941 . S
Zn282 O289 1.965 . S
Zn283 O281 1.950 . S
Zn283 O290 1.938 . S
Zn283 O291 1.897 1_545 S
Zn283 O301 1.953 . S
Zn284 O281 1.945 1_565 S
Zn284 O286 1.932 . S
Zn284 O293 1.977 . S
Zn284 O294 1.910 1_565 S
O285 Zn282 1.933 . S
O285 C296 1.226 . S
O286 Zn284 1.932 . S
O286 C296 1.307 . S
O287 Zn280 1.919 . S
O287 C298 1.253 . S
O288 Zn282 1.941 . S
O288 C298 1.283 1_565 S
O289 Zn282 1.965 . S
O289 C297 1.303 . S
O290 Zn283 1.938 . S
O290 C297 1.247 1_545 S
O291 Zn283 1.897 1_565 S
O291 C299 1.317 . S
O292 Zn280 1.924 . S
O292 C300 1.311 . S
O293 Zn284 1.977 . S
O293 C299 1.272 . S
O294 Zn284 1.910 1_545 S
O294 C300 1.231 . S
C295 O279 1.225 . S
C295 O301 1.298 . S
C296 O285 1.226 . S
C296 O286 1.307 . S
C297 O289 1.303 . S
C297 O290 1.247 1_565 S
C298 O287 1.253 . S
C298 O288 1.283 1_545 S
C299 O291 1.317 . S
C299 O293 1.272 . S
C300 O292 1.311 . S
C300 O294 1.231 . S
O301 Zn283 1.953 . S
O301 C295 1.298 . S
O302 Zn303 1.953 . S
O302 C318 1.225 . S
Zn303 O302 1.953 . S
Zn303 O304 1.949 . S
Zn303 O310 1.919 . S
Zn303 O315 1.924 . S
O304 Zn303 1.949 . S
O304 Zn305 1.923 . S
O304 Zn306 1.950 . S
O304 Zn307 1.945 . S
Zn305 O304 1.923 . S
Zn305 O308 1.933 . S
Zn305 O311 1.941 . S
Zn305 O312 1.965 . S
Zn306 O304 1.950 . S
Zn306 O313 1.938 . S
Zn306 O314 1.906 . S
Zn306 O324 1.953 . S
Zn307 O304 1.945 . S
Zn307 O309 1.932 . S
Zn307 O316 1.977 . S
Zn307 O317 1.910 . S
O308 Zn305 1.933 . S
O308 C319 1.226 . S
O309 Zn307 1.932 . S
O309 C319 1.307 . S
O310 Zn303 1.919 . S
O310 C321 1.253 . S
O311 Zn305 1.941 . S
O311 C321 1.283 . S
O312 Zn305 1.965 . S
O312 C320 1.303 . S
O313 Zn306 1.938 . S
O313 C320 1.247 . S
O314 Zn306 1.906 . S
O314 C322 1.304 . S
O315 Zn303 1.924 . S
O315 C323 1.311 . S
O316 Zn307 1.977 . S
O316 C322 1.272 . S
O317 Zn307 1.910 . S
O317 C323 1.231 . S
C318 O302 1.225 . S
C318 O324 1.298 . S
C319 O308 1.226 . S
C319 O309 1.307 . S
C320 O312 1.303 . S
C320 O313 1.247 . S
C321 O310 1.253 . S
C321 O311 1.283 . S
C322 O314 1.304 . S
C322 O316 1.272 . S
C323 O315 1.311 . S
C323 O317 1.231 . S
O324 Zn306 1.953 . S
O324 C318 1.298 . S
O325 Zn326 1.953 1_655 S
O325 C341 1.225 . S
Zn326 O325 1.953 1_455 S
Zn326 O327 1.949 . S
Zn326 O333 1.919 . S
Zn326 O338 1.924 . S
O327 Zn326 1.949 . S
O327 Zn328 1.923 . S
O327 Zn329 1.950 1_455 S
O327 Zn330 1.945 . S
Zn328 O327 1.923 . S
Zn328 O331 1.933 . S
Zn328 O334 1.941 . S
Zn328 O335 1.965 1_455 S
Zn329 O327 1.950 1_655 S
Zn329 O336 1.938 . S
Zn329 O337 1.906 1_655 S
Zn329 O347 1.953 . S
Zn330 O327 1.945 . S
Zn330 O332 1.932 . S
Zn330 O339 1.977 . S
Zn330 O340 1.910 . S
O331 Zn328 1.933 . S
O331 C342 1.226 . S
O332 Zn330 1.932 . S
O332 C342 1.307 . S
O333 Zn326 1.919 . S
O333 C344 1.253 . S
O334 Zn328 1.941 . S
O334 C344 1.283 . S
O335 Zn328 1.965 1_655 S
O335 C343 1.303 . S
O336 Zn329 1.938 . S
O336 C343 1.247 . S
O337 Zn329 1.906 1_455 S
O337 C345 1.304 . S
O338 Zn326 1.924 . S
O338 C346 1.311 . S
O339 Zn330 1.977 . S
O339 C345 1.272 . S
O340 Zn330 1.910 . S
O340 C346 1.231 . S
C341 O325 1.225 . S
C341 O347 1.298 . S
C342 O331 1.226 . S
C342 O332 1.307 . S
C343 O335 1.303 . S
C343 O336 1.247 . S
C344 O333 1.253 . S
C344 O334 1.283 . S
C345 O337 1.304 . S
C345 O339 1.272 . S
C346 O338 1.311 . S
C346 O340 1.231 . S
O347 Zn329 1.953 . S
O347 C341 1.298 . S
H348 C366 0.951 . S
H349 C368 0.951 . S
H350 C370 0.950 . S
H351 C371 0.950 . S
H352 C373 0.953 . S
H353 C376 0.950 . S
H354 C377 0.950 . S
H355 C379 0.950 . S
H356 C380 0.950 . S
H357 C381 0.951 . S
H358 C383 0.951 . S
H359 C385 0.950 . S
H360 C386 0.950 . S
H361 C388 0.950 . S
H362 C391 0.950 . S
H363 C392 0.950 . S
H364 C394 0.950 . S
H365 C395 0.950 . S
C366 H348 0.951 . S
C366 C367 1.383 . S
C366 C368 1.388 . S
C367 C366 1.383 . S
C367 C371 1.367 1_565 S
C368 H349 0.951 . S
C368 C366 1.388 . S
C368 C369 1.406 . S
C369 C368 1.406 . S
C369 C370 1.376 1_565 S
C369 C372 1.499 . S
C370 H350 0.950 . S
C370 C369 1.376 1_545 S
C370 C371 1.374 . S
C371 H351 0.950 . S
C371 C367 1.367 1_545 S
C371 C370 1.374 . S
C372 C369 1.499 . S
C372 C373 1.371 1_565 S
C372 C374 1.397 . S
C373 H352 0.953 . S
C373 C372 1.371 1_545 S
C373 C389 1.375 1_545 S
C374 C372 1.397 . S
C374 C375 1.524 . S
C374 C388 1.377 . S
C375 C374 1.524 . S
C375 C376 1.397 1_565 S
C375 C380 1.363 . S
C376 H353 0.950 . S
C376 C375 1.397 1_545 S
C376 C377 1.334 . S
C377 H354 0.950 . S
C377 C376 1.334 . S
C377 C378 1.305 . S
C378 C377 1.305 . S
C378 C379 1.503 1_545 S
C378 H397 0.915 . S
C379 H355 0.950 . S
C379 C378 1.503 1_565 S
C379 C380 1.415 . S
C380 H356 0.950 . S
C380 C375 1.363 . S
C380 C379 1.415 . S
C381 H357 0.951 . S
C381 C382 1.366 1_545 S
C381 C383 1.388 . S
C382 C381 1.366 1_565 S
C382 C386 1.385 . S
C383 H358 0.951 . S
C383 C381 1.388 . S
C383 C384 1.366 1_545 S
C384 C383 1.366 1_565 S
C384 C385 1.414 . S
C384 C387 1.499 . S
C385 H359 0.950 . S
C385 C384 1.414 . S
C385 C386 1.374 . S
C386 H360 0.950 . S
C386 C382 1.385 . S
C386 C385 1.374 . S
C387 C384 1.499 . S
C387 C388 1.373 . S
C387 C389 1.389 . S
C388 H361 0.950 . S
C388 C374 1.377 . S
C388 C387 1.373 . S
C389 C373 1.375 1_565 S
C389 C387 1.389 . S
C389 C390 1.524 . S
C390 C389 1.524 . S
C390 C391 1.397 . S
C390 C395 1.363 1_565 S
C391 H362 0.950 . S
C391 C390 1.397 . S
C391 C392 1.334 . S
C392 H363 0.950 . S
C392 C391 1.334 . S
C392 C393 1.287 . S
C393 C392 1.287 . S
C393 C394 1.524 1_565 S
C393 H396 0.999 . S
C394 H364 0.950 . S
C394 C393 1.524 1_545 S
C394 C395 1.415 . S
C395 H365 0.950 . S
C395 C390 1.363 1_545 S
C395 C394 1.415 . S
H396 C393 0.999 . S
H397 C378 0.915 . S
H398 C416 0.951 . S
H399 C418 0.951 . S
H400 C420 0.950 . S
H401 C421 0.950 . S
H402 C423 0.950 . S
H403 C426 0.950 . S
H404 C427 0.950 . S
H405 C429 0.950 . S
H406 C430 0.950 . S
H407 C431 0.951 . S
H408 C433 0.951 . S
H409 C435 0.950 . S
H410 C436 0.950 . S
H411 C438 0.950 . S
H412 C441 0.950 . S
H413 C442 0.950 . S
H414 C444 0.950 . S
H415 C445 0.950 . S
C416 H398 0.951 . S
C416 C417 1.366 . S
C416 C418 1.388 . S
C417 C416 1.366 . S
C417 C421 1.385 . S
C418 H399 0.951 . S
C418 C416 1.388 . S
C418 C419 1.366 . S
C419 C418 1.366 . S
C419 C420 1.414 . S
C419 C422 1.499 . S
C420 H400 0.950 . S
C420 C419 1.414 . S
C420 C421 1.374 . S
C421 H401 0.950 . S
C421 C417 1.385 . S
C421 C420 1.374 . S
C422 C419 1.499 . S
C422 C423 1.373 . S
C422 C424 1.389 . S
C423 H402 0.950 . S
C423 C422 1.373 . S
C423 C439 1.377 . S
C424 C422 1.389 . S
C424 C425 1.524 . S
C424 C438 1.377 . S
C425 C424 1.524 . S
C425 C426 1.397 . S
C425 C430 1.363 . S
C426 H403 0.950 . S
C426 C425 1.397 . S
C426 C427 1.334 . S
C427 H404 0.950 . S
C427 C426 1.334 . S
C427 C428 1.287 . S
C428 C427 1.287 . S
C428 C429 1.524 . S
C428 H447 0.913 . S
C429 H405 0.950 . S
C429 C428 1.524 . S
C429 C430 1.415 . S
C430 H406 0.950 . S
C430 C425 1.363 . S
C430 C429 1.415 . S
C431 H407 0.951 . S
C431 C432 1.366 . S
C431 C433 1.388 . S
C432 C431 1.366 . S
C432 C436 1.385 . S
C433 H408 0.951 . S
C433 C431 1.388 . S
C433 C434 1.366 . S
C434 C433 1.366 . S
C434 C435 1.414 . S
C434 C437 1.499 . S
C435 H409 0.950 . S
C435 C434 1.414 . S
C435 C436 1.374 . S
C436 H410 0.950 . S
C436 C432 1.385 . S
C436 C435 1.374 . S
C437 C434 1.499 . S
C437 C438 1.373 . S
C437 C439 1.389 . S
C438 H411 0.950 . S
C438 C424 1.377 . S
C438 C437 1.373 . S
C439 C423 1.377 . S
C439 C437 1.389 . S
C439 C440 1.524 . S
C440 C439 1.524 . S
C440 C441 1.397 . S
C440 C445 1.363 . S
C441 H412 0.950 . S
C441 C440 1.397 . S
C441 C442 1.334 . S
C442 H413 0.950 . S
C442 C441 1.334 . S
C442 C443 1.287 . S
C443 C442 1.287 . S
C443 C444 1.524 . S
C443 H446 0.999 . S
C444 H414 0.950 . S
C444 C443 1.524 . S
C444 C445 1.415 . S
C445 H415 0.950 . S
C445 C440 1.363 . S
C445 C444 1.415 . S
H446 C443 0.999 . S
H447 C428 0.913 . S
H448 C466 0.951 . S
H449 C468 0.951 . S
H450 C470 0.950 . S
H451 C471 0.950 . S
H452 C473 0.950 . S
H453 C476 0.950 . S
H454 C477 0.950 . S
H455 C479 0.950 . S
H456 C480 0.950 . S
H457 C481 0.951 . S
H458 C483 0.951 . S
H459 C485 0.950 . S
H460 C486 0.950 . S
H461 C488 0.950 . S
H462 C491 0.950 . S
H463 C492 0.950 . S
H464 C494 0.950 . S
H465 C495 0.950 . S
C466 H448 0.951 . S
C466 C467 1.366 . S
C466 C468 1.388 . S
C467 C466 1.366 . S
C467 C471 1.385 . S
C468 H449 0.951 . S
C468 C466 1.388 . S
C468 C469 1.366 . S
C469 C468 1.366 . S
C469 C470 1.414 . S
C469 C472 1.499 . S
C470 H450 0.950 . S
C470 C469 1.414 . S
C470 C471 1.374 . S
C471 H451 0.950 . S
C471 C467 1.385 . S
C471 C470 1.374 . S
C472 C469 1.499 . S
C472 C473 1.373 . S
C472 C474 1.389 . S
C473 H452 0.950 . S
C473 C472 1.373 . S
C473 C489 1.377 . S
C474 C472 1.389 . S
C474 C475 1.524 . S
C474 C488 1.377 . S
C475 C474 1.524 . S
C475 C476 1.397 . S
C475 C480 1.363 . S
C476 H453 0.950 . S
C476 C475 1.397 . S
C476 C477 1.334 . S
C477 H454 0.950 . S
C477 C476 1.334 . S
C477 C478 1.287 . S
C478 C477 1.287 . S
C478 C479 1.524 . S
C478 H497 0.913 . S
C479 H455 0.950 . S
C479 C478 1.524 . S
C479 C480 1.415 . S
C480 H456 0.950 . S
C480 C475 1.363 . S
C480 C479 1.415 . S
C481 H457 0.951 . S
C481 C482 1.366 . S
C481 C483 1.388 . S
C482 C481 1.366 . S
C482 C486 1.385 . S
C483 H458 0.951 . S
C483 C481 1.388 . S
C483 C484 1.366 . S
C484 C483 1.366 . S
C484 C485 1.414 . S
C484 C487 1.499 . S
C485 H459 0.950 . S
C485 C484 1.414 . S
C485 C486 1.374 . S
C486 H460 0.950 . S
C486 C482 1.385 . S
C486 C485 1.374 . S
C487 C484 1.499 . S
C487 C488 1.373 . S
C487 C489 1.389 . S
C488 H461 0.950 . S
C488 C474 1.377 . S
C488 C487 1.373 . S
C489 C473 1.377 . S
C489 C487 1.389 . S
C489 C490 1.524 . S
C490 C489 1.524 . S
C490 C491 1.397 . S
C490 C495 1.363 . S
C491 H462 0.950 . S
C491 C490 1.397 . S
C491 C492 1.334 . S
C492 H463 0.950 . S
C492 C491 1.334 . S
C492 C493 1.287 . S
C493 C492 1.287 . S
C493 C494 1.524 . S
C493 H496 0.999 . S
C494 H464 0.950 . S
C494 C493 1.524 . S
C494 C495 1.415 . S
C495 H465 0.950 . S
C495 C490 1.363 . S
C495 C494 1.415 . S
H496 C493 0.999 . S
H497 C478 0.913 . S
H498 C516 0.951 . S
H499 C518 0.951 . S
H500 C520 0.950 . S
H501 C521 0.950 . S
H502 C523 0.950 . S
H503 C526 0.950 . S
H504 C527 0.950 . S
H505 C529 0.950 . S
H506 C530 0.950 . S
H507 C531 0.951 . S
H508 C533 0.951 . S
H509 C535 0.950 . S
H510 C536 0.950 . S
H511 C538 0.950 . S
H512 C541 0.950 . S
H513 C542 0.950 . S
H514 C544 0.950 . S
H515 C545 0.950 . S
C516 H498 0.951 . S
C516 C517 1.366 . S
C516 C518 1.388 . S
C517 C516 1.366 . S
C517 C521 1.385 . S
C518 H499 0.951 . S
C518 C516 1.388 . S
C518 C519 1.366 . S
C519 C518 1.366 . S
C519 C520 1.414 . S
C519 C522 1.499 . S
C520 H500 0.950 . S
C520 C519 1.414 . S
C520 C521 1.374 . S
C521 H501 0.950 . S
C521 C517 1.385 . S
C521 C520 1.374 . S
C522 C519 1.499 . S
C522 C523 1.373 . S
C522 C524 1.389 . S
C523 H502 0.950 . S
C523 C522 1.373 . S
C523 C539 1.377 . S
C524 C522 1.389 . S
C524 C525 1.524 . S
C524 C538 1.377 . S
C525 C524 1.524 . S
C525 C526 1.397 . S
C525 C530 1.363 . S
C526 H503 0.950 . S
C526 C525 1.397 . S
C526 C527 1.334 . S
C527 H504 0.950 . S
C527 C526 1.334 . S
C527 C528 1.287 . S
C528 C527 1.287 . S
C528 C529 1.524 . S
C528 H547 0.913 . S
C529 H505 0.950 . S
C529 C528 1.524 . S
C529 C530 1.415 . S
C530 H506 0.950 . S
C530 C525 1.363 . S
C530 C529 1.415 . S
C531 H507 0.951 . S
C531 C532 1.366 . S
C531 C533 1.388 . S
C532 C531 1.366 . S
C532 C536 1.385 . S
C533 H508 0.951 . S
C533 C531 1.388 . S
C533 C534 1.366 . S
C534 C533 1.366 . S
C534 C535 1.414 . S
C534 C537 1.499 . S
C535 H509 0.950 . S
C535 C534 1.414 . S
C535 C536 1.374 . S
C536 H510 0.950 . S
C536 C532 1.385 . S
C536 C535 1.374 . S
C537 C534 1.499 . S
C537 C538 1.373 . S
C537 C539 1.389 . S
C538 H511 0.950 . S
C538 C524 1.377 . S
C538 C537 1.373 . S
C539 C523 1.377 . S
C539 C537 1.389 . S
C539 C540 1.524 . S
C540 C539 1.524 . S
C540 C541 1.397 . S
C540 C545 1.363 . S
C541 H512 0.950 . S
C541 C540 1.397 . S
C541 C542 1.334 . S
C542 H513 0.950 . S
C542 C541 1.334 . S
C542 C543 1.287 . S
C543 C542 1.287 . S
C543 C544 1.524 1_455 S
C543 H546 0.999 1_455 S
C544 H514 0.950 . S
C544 C543 1.524 1_655 S
C544 C545 1.415 1_655 S
C545 H515 0.950 . S
C545 C540 1.363 . S
C545 C544 1.415 1_455 S
H546 C543 0.999 1_655 S
H547 C528 0.913 . S
H548 C566 0.951 . S
H549 C568 0.951 . S
H550 C570 0.950 . S
H551 C571 0.950 . S
H552 C573 0.949 1_565 S
H553 C576 0.950 . S
H554 C577 0.950 . S
H555 C579 0.950 . S
H556 C580 0.950 . S
H557 C581 0.951 . S
H558 C583 0.951 . S
H559 C585 0.950 . S
H560 C586 0.950 . S
H561 C588 0.950 . S
H562 C591 0.950 . S
H563 C592 0.950 . S
H564 C594 0.950 . S
H565 C595 0.950 . S
C566 H548 0.951 . S
C566 C567 1.371 1_556 S
C566 C568 1.388 . S
C567 C566 1.371 1_554 S
C567 C571 1.379 1_545 S
C568 H549 0.951 . S
C568 C566 1.388 . S
C568 C569 1.396 . S
C569 C568 1.396 . S
C569 C570 1.386 1_545 S
C569 C572 1.499 . S
C570 H550 0.950 . S
C570 C569 1.386 1_565 S
C570 C571 1.374 1_556 S
C571 H551 0.950 . S
C571 C567 1.379 1_565 S
C571 C570 1.374 1_554 S
C572 C569 1.499 . S
C572 C573 1.372 . S
C572 C574 1.396 . S
C573 H552 0.949 1_545 S
C573 C572 1.372 . S
C573 C589 1.377 . S
C574 C572 1.396 . S
C574 C575 1.524 . S
C574 C588 1.377 . S
C575 C574 1.524 . S
C575 C576 1.397 1_545 S
C575 C580 1.363 . S
C576 H553 0.950 . S
C576 C575 1.397 1_565 S
C576 C577 1.334 . S
C577 H554 0.950 . S
C577 C576 1.334 . S
C577 C578 1.287 . S
C578 C577 1.287 . S
C578 C579 1.524 1_565 S
C578 H597 0.913 . S
C579 H555 0.950 . S
C579 C578 1.524 1_545 S
C579 C580 1.415 . S
C580 H556 0.950 . S
C580 C575 1.363 . S
C580 C579 1.415 . S
C581 H557 0.951 . S
C581 C582 1.366 1_565 S
C581 C583 1.388 . S
C582 C581 1.366 1_545 S
C582 C586 1.385 . S
C583 H558 0.951 . S
C583 C581 1.388 . S
C583 C584 1.366 1_565 S
C584 C583 1.366 1_545 S
C584 C585 1.414 . S
C584 C587 1.499 . S
C585 H559 0.950 . S
C585 C584 1.414 . S
C585 C586 1.374 . S
C586 H560 0.950 . S
C586 C582 1.385 . S
C586 C585 1.374 . S
C587 C584 1.499 . S
C587 C588 1.373 . S
C587 C589 1.389 . S
C588 H561 0.950 . S
C588 C574 1.377 . S
C588 C587 1.373 . S
C589 C573 1.377 . S
C589 C587 1.389 . S
C589 C590 1.524 . S
C590 C589 1.524 . S
C590 C591 1.397 . S
C590 C595 1.363 1_545 S
C591 H562 0.950 . S
C591 C590 1.397 . S
C591 C592 1.334 . S
C592 H563 0.950 . S
C592 C591 1.334 . S
C592 C593 1.287 . S
C593 C592 1.287 . S
C593 C594 1.524 1_546 S
C593 H596 0.999 1_556 S
C594 H564 0.950 . S
C594 C593 1.524 1_564 S
C594 C595 1.415 1_554 S
C595 H565 0.950 . S
C595 C590 1.363 1_565 S
C595 C594 1.415 1_556 S
H596 C593 0.999 1_554 S
H597 C578 0.913 . S
H598 C616 0.951 . S
H599 C618 0.951 . S
H600 C620 0.950 . S
H601 C621 0.950 . S
H602 C623 0.950 . S
H603 C626 0.950 . S
H604 C627 0.950 . S
H605 C629 0.950 . S
H606 C630 0.950 . S
H607 C631 0.951 . S
H608 C633 0.951 . S
H609 C635 0.950 . S
H610 C636 0.950 . S
H611 C638 0.950 . S
H612 C641 0.950 . S
H613 C642 0.950 . S
H614 C644 0.950 . S
H615 C645 0.950 . S
C616 H598 0.951 . S
C616 C617 1.366 1_554 S
C616 C618 1.388 1_554 S
C617 C616 1.366 1_556 S
C617 C621 1.385 . S
C618 H599 0.951 . S
C618 C616 1.388 1_556 S
C618 C619 1.366 . S
C619 C618 1.366 . S
C619 C620 1.414 . S
C619 C622 1.499 . S
C620 H600 0.950 . S
C620 C619 1.414 . S
C620 C621 1.374 . S
C621 H601 0.950 . S
C621 C617 1.385 . S
C621 C620 1.374 . S
C622 C619 1.499 . S
C622 C623 1.373 . S
C622 C624 1.389 . S
C623 H602 0.950 . S
C623 C622 1.373 . S
C623 C639 1.377 . S
C624 C622 1.389 . S
C624 C625 1.524 . S
C624 C638 1.377 . S
C625 C624 1.524 . S
C625 C626 1.397 . S
C625 C630 1.363 . S
C626 H603 0.950 . S
C626 C625 1.397 . S
C626 C627 1.334 1_556 S
C627 H604 0.950 . S
C627 C626 1.334 1_554 S
C627 C628 1.287 . S
C628 C627 1.287 . S
C628 C629 1.524 . S
C628 H647 0.913 . S
C629 H605 0.950 . S
C629 C628 1.524 . S
C629 C630 1.415 1_554 S
C630 H606 0.950 . S
C630 C625 1.363 . S
C630 C629 1.415 1_556 S
C631 H607 0.951 . S
C631 C632 1.366 . S
C631 C633 1.388 . S
C632 C631 1.366 . S
C632 C636 1.385 . S
C633 H608 0.951 . S
C633 C631 1.388 . S
C633 C634 1.366 . S
C634 C633 1.366 . S
C634 C635 1.414 . S
C634 C637 1.499 . S
C635 H609 0.950 . S
C635 C634 1.414 . S
C635 C636 1.374 . S
C636 H610 0.950 . S
C636 C632 1.385 . S
C636 C635 1.374 . S
C637 C634 1.499 . S
C637 C638 1.373 . S
C637 C639 1.389 . S
C638 H611 0.950 . S
C638 C624 1.377 . S
C638 C637 1.373 . S
C639 C623 1.377 . S
C639 C637 1.389 . S
C639 C640 1.524 . S
C640 C639 1.524 . S
C640 C641 1.397 . S
C640 C645 1.363 . S
C641 H612 0.950 . S
C641 C640 1.397 . S
C641 C642 1.334 . S
C642 H613 0.950 . S
C642 C641 1.334 . S
C642 C643 1.287 . S
C643 C642 1.287 . S
C643 C644 1.524 . S
C643 H646 0.999 . S
C644 H614 0.950 . S
C644 C643 1.524 . S
C644 C645 1.415 . S
C645 H615 0.950 . S
C645 C640 1.363 . S
C645 C644 1.415 . S
H646 C643 0.999 . S
H647 C628 0.913 . S
H648 C666 0.951 1_554 S
H649 C668 0.951 . S
H650 C670 0.950 . S
H651 C671 0.950 . S
H652 C673 0.950 . S
H653 C676 0.950 . S
H654 C677 0.950 . S
H655 C679 0.950 . S
H656 C680 0.950 . S
H657 C681 0.951 . S
H658 C683 0.951 . S
H659 C685 0.950 . S
H660 C686 0.950 . S
H661 C688 0.950 . S
H662 C691 0.950 . S
H663 C692 0.950 . S
H664 C694 0.950 . S
H665 C695 0.950 . S
C666 H648 0.951 1_556 S
C666 C667 1.366 . S
C666 C668 1.388 . S
C667 C666 1.366 . S
C667 C671 1.385 . S
C668 H649 0.951 . S
C668 C666 1.388 . S
C668 C669 1.366 . S
C669 C668 1.366 . S
C669 C670 1.414 . S
C669 C672 1.499 . S
C670 H650 0.950 . S
C670 C669 1.414 . S
C670 C671 1.374 . S
C671 H651 0.950 . S
C671 C667 1.385 . S
C671 C670 1.374 . S
C672 C669 1.499 . S
C672 C673 1.373 . S
C672 C674 1.389 . S
C673 H652 0.950 . S
C673 C672 1.373 . S
C673 C689 1.377 . S
C674 C672 1.389 . S
C674 C675 1.524 . S
C674 C688 1.377 . S
C675 C674 1.524 . S
C675 C676 1.397 . S
C675 C680 1.363 . S
C676 H653 0.950 . S
C676 C675 1.397 . S
C676 C677 1.334 . S
C677 H654 0.950 . S
C677 C676 1.334 . S
C677 C678 1.287 1_556 S
C678 C677 1.287 1_554 S
C678 C679 1.524 . S
C678 H697 0.913 . S
C679 H655 0.950 . S
C679 C678 1.524 . S
C679 C680 1.415 1_554 S
C680 H656 0.950 . S
C680 C675 1.363 . S
C680 C679 1.415 1_556 S
C681 H657 0.951 . S
C681 C682 1.366 . S
C681 C683 1.388 . S
C682 C681 1.366 . S
C682 C686 1.385 . S
C683 H658 0.951 . S
C683 C681 1.388 . S
C683 C684 1.366 . S
C684 C683 1.366 . S
C684 C685 1.414 . S
C684 C687 1.499 . S
C685 H659 0.950 . S
C685 C684 1.414 . S
C685 C686 1.374 . S
C686 H660 0.950 . S
C686 C682 1.385 . S
C686 C685 1.374 . S
C687 C684 1.499 . S
C687 C688 1.373 . S
C687 C689 1.389 . S
C688 H661 0.950 . S
C688 C674 1.377 . S
C688 C687 1.373 . S
C689 C673 1.377 . S
C689 C687 1.389 . S
C689 C690 1.524 . S
C690 C689 1.524 . S
C690 C691 1.397 . S
C690 C695 1.363 . S
C691 H662 0.950 . S
C691 C690 1.397 . S
C691 C692 1.334 . S
C692 H663 0.950 . S
C692 C691 1.334 . S
C692 C693 1.287 . S
C693 C692 1.287 . S
C693 C694 1.524 . S
C693 H696 0.999 . S
C694 H664 0.950 . S
C694 C693 1.524 . S
C694 C695 1.415 . S
C695 H665 0.950 . S
C695 C690 1.363 . S
C695 C694 1.415 . S
H696 C693 0.999 . S
H697 C678 0.913 . S
H698 C716 0.951 . S
H699 C718 0.951 . S
H700 C720 0.950 . S
H701 C721 0.950 . S
H702 C723 0.950 . S
H703 C726 0.950 1_556 S
H704 C727 0.950 . S
H705 C729 0.950 . S
H706 C730 0.947 . S
H707 C731 0.951 . S
H708 C733 0.951 . S
H709 C735 0.950 . S
H710 C736 0.938 1_655 S
H711 C738 0.950 . S
H712 C741 0.950 . S
H713 C742 0.950 . S
H714 C744 0.950 . S
H715 C745 0.950 1_455 S
C716 H698 0.951 . S
C716 C717 1.366 . S
C716 C718 1.388 . S
C717 C716 1.366 . S
C717 C721 1.385 1_654 S
C718 H699 0.951 . S
C718 C716 1.388 . S
C718 C719 1.396 1_554 S
C719 C718 1.396 1_556 S
C719 C720 1.396 1_655 S
C719 C722 1.491 1_655 S
C720 H700 0.950 . S
C720 C719 1.396 1_455 S
C720 C721 1.374 . S
C721 H701 0.950 . S
C721 C717 1.385 1_456 S
C721 C720 1.374 . S
C722 C719 1.491 1_455 S
C722 C723 1.373 1_455 S
C722 C724 1.389 . S
C723 H702 0.950 . S
C723 C722 1.373 1_655 S
C723 C739 1.377 . S
C724 C722 1.389 . S
C724 C725 1.524 . S
C724 C738 1.377 . S
C725 C724 1.524 . S
C725 C726 1.397 1_556 S
C725 C730 1.363 1_556 S
C726 H703 0.950 1_554 S
C726 C725 1.397 1_554 S
C726 C727 1.334 . S
C727 H704 0.950 . S
C727 C726 1.334 . S
C727 C728 1.287 . S
C728 C727 1.287 . S
C728 C729 1.524 . S
C728 H747 0.913 . S
C729 H705 0.950 . S
C729 C728 1.524 . S
C729 C730 1.415 . S
C730 H706 0.947 . S
C730 C725 1.363 1_554 S
C730 C729 1.415 . S
C731 H707 0.951 . S
C731 C732 1.366 . S
C731 C733 1.388 . S
C732 C731 1.366 . S
C732 C736 1.403 . S
C733 H708 0.951 . S
C733 C731 1.388 . S
C733 C734 1.366 . S
C734 C733 1.366 . S
C734 C735 1.414 1_455 S
C734 C737 1.499 . S
C735 H709 0.950 . S
C735 C734 1.414 1_655 S
C735 C736 1.369 1_655 S
C736 H710 0.938 1_455 S
C736 C732 1.403 . S
C736 C735 1.369 1_455 S
C737 C734 1.499 . S
C737 C738 1.373 . S
C737 C739 1.389 1_455 S
C738 H711 0.950 . S
C738 C724 1.377 . S
C738 C737 1.373 . S
C739 C723 1.377 . S
C739 C737 1.389 1_655 S
C739 C740 1.524 . S
C740 C739 1.524 . S
C740 C741 1.397 . S
C740 C745 1.363 . S
C741 H712 0.950 . S
C741 C740 1.397 . S
C741 C742 1.334 . S
C742 H713 0.950 . S
C742 C741 1.334 . S
C742 C743 1.287 . S
C743 C742 1.287 . S
C743 C744 1.524 . S
C743 H746 0.999 . S
C744 H714 0.950 . S
C744 C743 1.524 . S
C744 C745 1.415 . S
C745 H715 0.950 1_655 S
C745 C740 1.363 . S
C745 C744 1.415 . S
H746 C743 0.999 . S
H747 C728 0.913 . S
H748 C766 0.951 . S
H749 C768 0.951 . S
H750 C770 0.950 . S
H751 C771 0.950 . S
H752 C773 0.950 . S
H753 C776 0.950 . S
H754 C777 0.950 . S
H755 C779 0.950 . S
H756 C780 0.950 . S
H757 C781 0.951 . S
H758 C783 0.951 . S
H759 C785 0.950 . S
H760 C786 0.950 . S
H761 C788 0.950 . S
H762 C791 0.950 . S
H763 C792 0.950 . S
H764 C794 0.950 . S
H765 C795 0.950 . S
C766 H748 0.951 . S
C766 C767 1.366 . S
C766 C768 1.388 . S
C767 C766 1.366 . S
C767 C771 1.385 . S
C768 H749 0.951 . S
C768 C766 1.388 . S
C768 C769 1.366 . S
C769 C768 1.366 . S
C769 C770 1.414 . S
C769 C772 1.499 . S
C770 H750 0.950 . S
C770 C769 1.414 . S
C770 C771 1.374 . S
C771 H751 0.950 . S
C771 C767 1.385 . S
C771 C770 1.374 . S
C772 C769 1.499 . S
C772 C773 1.373 . S
C772 C774 1.389 . S
C773 H752 0.950 . S
C773 C772 1.373 . S
C773 C789 1.377 . S
C774 C772 1.389 . S
C774 C775 1.524 . S
C774 C788 1.377 . S
C775 C774 1.524 . S
C775 C776 1.397 . S
C775 C780 1.363 . S
C776 H753 0.950 . S
C776 C775 1.397 . S
C776 C777 1.334 . S
C777 H754 0.950 . S
C777 C776 1.334 . S
C777 C778 1.287 . S
C778 C777 1.287 . S
C778 C779 1.524 . S
C778 H797 0.913 . S
C779 H755 0.950 . S
C779 C778 1.524 . S
C779 C780 1.415 . S
C780 H756 0.950 . S
C780 C775 1.363 . S
C780 C779 1.415 . S
C781 H757 0.951 . S
C781 C782 1.366 . S
C781 C783 1.388 . S
C782 C781 1.366 . S
C782 C786 1.385 . S
C783 H758 0.951 . S
C783 C781 1.388 . S
C783 C784 1.366 . S
C784 C783 1.366 . S
C784 C785 1.414 . S
C784 C787 1.499 . S
C785 H759 0.950 . S
C785 C784 1.414 . S
C785 C786 1.374 . S
C786 H760 0.950 . S
C786 C782 1.385 . S
C786 C785 1.374 . S
C787 C784 1.499 . S
C787 C788 1.373 . S
C787 C789 1.389 . S
C788 H761 0.950 . S
C788 C774 1.377 . S
C788 C787 1.373 . S
C789 C773 1.377 . S
C789 C787 1.389 . S
C789 C790 1.524 . S
C790 C789 1.524 . S
C790 C791 1.397 . S
C790 C795 1.363 . S
C791 H762 0.950 . S
C791 C790 1.397 . S
C791 C792 1.334 . S
C792 H763 0.950 . S
C792 C791 1.334 . S
C792 C793 1.287 . S
C793 C792 1.287 . S
C793 C794 1.524 . S
C793 H796 0.999 . S
C794 H764 0.950 . S
C794 C793 1.524 . S
C794 C795 1.415 . S
C795 H765 0.950 . S
C795 C790 1.363 . S
C795 C794 1.415 . S
H796 C793 0.999 . S
H797 C778 0.913 . S
H798 C816 0.951 . S
H799 C818 0.951 . S
H800 C820 0.950 . S
H801 C821 0.950 . S
H802 C823 0.950 . S
H803 C826 0.950 . S
H804 C827 0.950 . S
H805 C829 0.950 . S
H806 C830 0.950 . S
H807 C831 0.951 . S
H808 C833 0.951 . S
H809 C835 0.950 . S
H810 C836 0.950 . S
H811 C838 0.950 . S
H812 C841 0.950 . S
H813 C842 0.950 . S
H814 C844 0.950 . S
H815 C845 0.950 . S
C816 H798 0.951 . S
C816 C817 1.379 . S
C816 C818 1.388 . S
C817 C816 1.379 . S
C817 C821 1.371 1_545 S
C818 H799 0.951 . S
C818 C816 1.388 . S
C818 C819 1.381 . S
C819 C818 1.381 . S
C819 C820 1.399 1_545 S
C819 C822 1.497 1_545 S
C820 H800 0.950 . S
C820 C819 1.399 1_565 S
C820 C821 1.374 . S
C821 H801 0.950 . S
C821 C817 1.371 1_565 S
C821 C820 1.374 . S
C822 C819 1.497 1_565 S
C822 C823 1.386 . S
C822 C824 1.377 1_565 S
C823 H802 0.950 . S
C823 C822 1.386 . S
C823 C839 1.377 . S
C824 C822 1.377 1_545 S
C824 C825 1.524 . S
C824 C838 1.377 . S
C825 C824 1.524 . S
C825 C826 1.397 . S
C825 C830 1.363 . S
C826 H803 0.950 . S
C826 C825 1.397 . S
C826 C827 1.334 . S
C827 H804 0.950 . S
C827 C826 1.334 . S
C827 C828 1.287 . S
C828 C827 1.287 . S
C828 C829 1.524 . S
C828 H847 0.913 . S
C829 H805 0.950 . S
C829 C828 1.524 . S
C829 C830 1.415 . S
C830 H806 0.950 . S
C830 C825 1.363 . S
C830 C829 1.415 . S
C831 H807 0.951 . S
C831 C832 1.366 . S
C831 C833 1.388 . S
C832 C831 1.366 . S
C832 C836 1.385 1_565 S
C833 H808 0.951 . S
C833 C831 1.388 . S
C833 C834 1.366 . S
C834 C833 1.366 . S
C834 C835 1.414 1_565 S
C834 C837 1.503 . S
C835 H809 0.950 . S
C835 C834 1.414 1_545 S
C835 C836 1.374 . S
C836 H810 0.950 . S
C836 C832 1.385 1_545 S
C836 C835 1.374 . S
C837 C834 1.503 . S
C837 C838 1.331 1_565 S
C837 C839 1.429 . S
C838 H811 0.950 . S
C838 C824 1.377 . S
C838 C837 1.331 1_545 S
C839 C823 1.377 . S
C839 C837 1.429 . S
C839 C840 1.524 . S
C840 C839 1.524 . S
C840 C841 1.397 . S
C840 C845 1.363 . S
C841 H812 0.950 . S
C841 C840 1.397 . S
C841 C842 1.334 . S
C842 H813 0.950 . S
C842 C841 1.334 . S
C842 C843 1.287 . S
C843 C842 1.287 . S
C843 C844 1.524 . S
C843 H846 0.999 . S
C844 H814 0.950 . S
C844 C843 1.524 . S
C844 C845 1.415 . S
C845 H815 0.950 . S
C845 C840 1.363 . S
C845 C844 1.415 . S
H846 C843 0.999 . S
H847 C828 0.913 . S
H848 C866 0.951 . S
H849 C868 0.951 . S
H850 C870 0.950 . S
H851 C871 0.950 . S
H852 C873 0.950 . S
H853 C876 0.950 . S
H854 C877 0.950 . S
H855 C879 0.950 . S
H856 C880 0.950 . S
H857 C881 0.951 . S
H858 C883 0.951 . S
H859 C885 0.950 . S
H860 C886 0.950 . S
H861 C888 0.950 . S
H862 C891 0.950 . S
H863 C892 0.950 . S
H864 C894 0.950 . S
H865 C895 0.950 . S
C866 H848 0.951 . S
C866 C867 1.366 . S
C866 C868 1.388 . S
C867 C866 1.366 . S
C867 C871 1.385 . S
C868 H849 0.951 . S
C868 C866 1.388 . S
C868 C869 1.366 . S
C869 C868 1.366 . S
C869 C870 1.414 . S
C869 C872 1.499 . S
C870 H850 0.950 . S
C870 C869 1.414 . S
C870 C871 1.374 . S
C871 H851 0.950 . S
C871 C867 1.385 . S
C871 C870 1.374 . S
C872 C869 1.499 . S
C872 C873 1.373 . S
C872 C874 1.389 . S
C873 H852 0.950 . S
C873 C872 1.373 . S
C873 C889 1.377 . S
C874 C872 1.389 . S
C874 C875 1.524 . S
C874 C888 1.377 . S
C875 C874 1.524 . S
C875 C876 1.397 . S
C875 C880 1.363 . S
C876 H853 0.950 . S
C876 C875 1.397 . S
C876 C877 1.334 . S
C877 H854 0.950 . S
C877 C876 1.334 . S
C877 C878 1.287 . S
C878 C877 1.287 . S
C878 C879 1.524 . S
C878 H897 0.913 . S
C879 H855 0.950 . S
C879 C878 1.524 . S
C879 C880 1.415 . S
C880 H856 0.950 . S
C880 C875 1.363 . S
C880 C879 1.415 . S
C881 H857 0.951 . S
C881 C882 1.366 . S
C881 C883 1.388 . S
C882 C881 1.366 . S
C882 C886 1.385 . S
C883 H858 0.951 . S
C883 C881 1.388 . S
C883 C884 1.366 . S
C884 C883 1.366 . S
C884 C885 1.414 . S
C884 C887 1.499 . S
C885 H859 0.950 . S
C885 C884 1.414 . S
C885 C886 1.374 . S
C886 H860 0.950 . S
C886 C882 1.385 . S
C886 C885 1.374 . S
C887 C884 1.499 . S
C887 C888 1.373 . S
C887 C889 1.389 . S
C888 H861 0.950 . S
C888 C874 1.377 . S
C888 C887 1.373 . S
C889 C873 1.377 . S
C889 C887 1.389 . S
C889 C890 1.524 . S
C890 C889 1.524 . S
C890 C891 1.397 . S
C890 C895 1.363 . S
C891 H862 0.950 . S
C891 C890 1.397 . S
C891 C892 1.334 . S
C892 H863 0.950 . S
C892 C891 1.334 . S
C892 C893 1.287 . S
C893 C892 1.287 . S
C893 C894 1.524 . S
C893 H896 0.999 . S
C894 H864 0.950 . S
C894 C893 1.524 . S
C894 C895 1.415 . S
C895 H865 0.950 . S
C895 C890 1.363 . S
C895 C894 1.415 . S
H896 C893 0.999 . S
H897 C878 0.913 . S
H898 C916 0.951 . S
H899 C918 0.951 . S
H900 C920 0.950 . S
H901 C921 0.950 . S
H902 C923 0.950 . S
H903 C926 0.950 . S
H904 C927 0.950 . S
H905 C929 0.950 . S
H906 C930 0.950 . S
H907 C931 0.951 . S
H908 C933 0.951 . S
H909 C935 0.950 . S
H910 C936 0.950 . S
H911 C938 0.950 . S
H912 C941 0.950 . S
H913 C942 0.950 . S
H914 C944 0.950 . S
H915 C945 0.950 . S
C916 H898 0.951 . S
C916 C917 1.366 . S
C916 C918 1.388 . S
C917 C916 1.366 . S
C917 C921 1.385 . S
C918 H899 0.951 . S
C918 C916 1.388 . S
C918 C919 1.366 . S
C919 C918 1.366 . S
C919 C920 1.414 . S
C919 C922 1.499 . S
C920 H900 0.950 . S
C920 C919 1.414 . S
C920 C921 1.374 . S
C921 H901 0.950 . S
C921 C917 1.385 . S
C921 C920 1.374 . S
C922 C919 1.499 . S
C922 C923 1.373 . S
C922 C924 1.389 . S
C923 H902 0.950 . S
C923 C922 1.373 . S
C923 C939 1.377 . S
C924 C922 1.389 . S
C924 C925 1.524 . S
C924 C938 1.377 . S
C925 C924 1.524 . S
C925 C926 1.397 . S
C925 C930 1.363 . S
C926 H903 0.950 . S
C926 C925 1.397 . S
C926 C927 1.334 . S
C927 H904 0.950 . S
C927 C926 1.334 . S
C927 C928 1.287 . S
C928 C927 1.287 . S
C928 C929 1.524 . S
C928 H947 0.913 . S
C929 H905 0.950 . S
C929 C928 1.524 . S
C929 C930 1.415 . S
C930 H906 0.950 . S
C930 C925 1.363 . S
C930 C929 1.415 . S
C931 H907 0.951 . S
C931 C932 1.366 . S
C931 C933 1.388 . S
C932 C931 1.366 . S
C932 C936 1.385 . S
C933 H908 0.951 . S
C933 C931 1.388 . S
C933 C934 1.366 . S
C934 C933 1.366 . S
C934 C935 1.414 . S
C934 C937 1.499 . S
C935 H909 0.950 . S
C935 C934 1.414 . S
C935 C936 1.374 . S
C936 H910 0.950 . S
C936 C932 1.385 . S
C936 C935 1.374 . S
C937 C934 1.499 . S
C937 C938 1.373 . S
C937 C939 1.389 . S
C938 H911 0.950 . S
C938 C924 1.377 . S
C938 C937 1.373 . S
C939 C923 1.377 . S
C939 C937 1.389 . S
C939 C940 1.524 . S
C940 C939 1.524 . S
C940 C941 1.397 . S
C940 C945 1.363 . S
C941 H912 0.950 . S
C941 C940 1.397 . S
C941 C942 1.334 . S
C942 H913 0.950 . S
C942 C941 1.334 . S
C942 C943 1.287 . S
C943 C942 1.287 . S
C943 C944 1.524 . S
C943 H946 0.999 . S
C944 H914 0.950 . S
C944 C943 1.524 . S
C944 C945 1.415 . S
C945 H915 0.950 . S
C945 C940 1.363 . S
C945 C944 1.415 . S
H946 C943 0.999 . S
H947 C928 0.913 . S
H948 C966 0.951 . S
H949 C968 0.951 . S
H950 C970 0.950 1_554 S
H951 C971 0.950 . S
H952 C973 0.950 . S
H953 C976 0.950 . S
H954 C977 0.950 . S
H955 C979 0.950 . S
H956 C980 0.950 . S
H957 C981 0.951 . S
H958 C983 0.951 . S
H959 C985 0.950 . S
H960 C986 0.950 . S
H961 C988 0.950 . S
H962 C991 0.950 . S
H963 C992 0.950 . S
H964 C994 0.950 1_554 S
H965 C995 0.950 . S
C966 H948 0.951 . S
C966 C967 1.366 . S
C966 C968 1.388 . S
C967 C966 1.366 . S
C967 C971 1.385 1_656 S
C968 H949 0.951 . S
C968 C966 1.388 . S
C968 C969 1.366 1_655 S
C969 C968 1.366 1_455 S
C969 C970 1.414 . S
C969 C972 1.499 . S
C970 H950 0.950 1_556 S
C970 C969 1.414 . S
C970 C971 1.374 1_556 S
C971 H951 0.950 . S
C971 C967 1.385 1_454 S
C971 C970 1.374 1_554 S
C972 C969 1.499 . S
C972 C973 1.373 . S
C972 C974 1.389 . S
C973 H952 0.950 . S
C973 C972 1.373 . S
C973 C989 1.377 . S
C974 C972 1.389 . S
C974 C975 1.524 . S
C974 C988 1.377 . S
C975 C974 1.524 . S
C975 C976 1.397 . S
C975 C980 1.363 . S
C976 H953 0.950 . S
C976 C975 1.397 . S
C976 C977 1.334 . S
C977 H954 0.950 . S
C977 C976 1.334 . S
C977 C978 1.287 . S
C978 C977 1.287 . S
C978 C979 1.524 . S
C978 H997 0.913 . S
C979 H955 0.950 . S
C979 C978 1.524 . S
C979 C980 1.415 . S
C980 H956 0.950 . S
C980 C975 1.363 . S
C980 C979 1.415 . S
C981 H957 0.951 . S
C981 C982 1.366 . S
C981 C983 1.388 . S
C982 C981 1.366 . S
C982 C986 1.385 . S
C983 H958 0.951 . S
C983 C981 1.388 . S
C983 C984 1.366 . S
C984 C983 1.366 . S
C984 C985 1.414 . S
C984 C987 1.499 . S
C985 H959 0.950 . S
C985 C984 1.414 . S
C985 C986 1.374 . S
C986 H960 0.950 . S
C986 C982 1.385 . S
C986 C985 1.374 . S
C987 C984 1.499 . S
C987 C988 1.373 . S
C987 C989 1.389 . S
C988 H961 0.950 . S
C988 C974 1.377 . S
C988 C987 1.373 . S
C989 C973 1.377 . S
C989 C987 1.389 . S
C989 C990 1.524 . S
C990 C989 1.524 . S
C990 C991 1.397 1_455 S
C990 C995 1.363 . S
C991 H962 0.950 . S
C991 C990 1.397 1_655 S
C991 C992 1.334 . S
C992 H963 0.950 . S
C992 C991 1.334 . S
C992 C993 1.287 . S
C993 C992 1.287 . S
C993 C994 1.524 1_655 S
C993 H996 0.999 . S
C994 H964 0.950 1_556 S
C994 C993 1.524 1_455 S
C994 C995 1.415 . S
C995 H965 0.950 . S
C995 C990 1.363 . S
C995 C994 1.415 . S
H996 C993 0.999 . S
H997 C978 0.913 . S
H998 C1016 0.951 . S
H999 C1018 0.951 . S
H1000 C1020 0.950 . S
H1001 C1021 0.950 . S
H1002 C1023 0.950 . S
H1003 C1026 0.950 . S
H1004 C1027 0.950 . S
H1005 C1029 0.950 . S
H1006 C1030 0.950 . S
H1007 C1031 0.951 . S
H1008 C1033 0.951 . S
H1009 C1035 0.950 1_565 S
H1010 C1036 0.950 . S
H1011 C1038 0.950 . S
H1012 C1041 0.950 . S
H1013 C1042 0.950 . S
H1014 C1044 0.950 . S
H1015 C1045 0.950 . S
C1016 H998 0.951 . S
C1016 C1017 1.366 . S
C1016 C1018 1.388 . S
C1017 C1016 1.366 . S
C1017 C1021 1.385 1_565 S
C1018 H999 0.951 . S
C1018 C1016 1.388 . S
C1018 C1019 1.366 1_565 S
C1019 C1018 1.366 1_545 S
C1019 C1020 1.414 . S
C1019 C1022 1.499 . S
C1020 H1000 0.950 . S
C1020 C1019 1.414 . S
C1020 C1021 1.374 . S
C1021 H1001 0.950 . S
C1021 C1017 1.385 1_545 S
C1021 C1020 1.374 . S
C1022 C1019 1.499 . S
C1022 C1023 1.373 . S
C1022 C1024 1.389 1_545 S
C1023 H1002 0.950 . S
C1023 C1022 1.373 . S
C1023 C1039 1.377 . S
C1024 C1022 1.389 1_565 S
C1024 C1025 1.524 . S
C1024 C1038 1.377 . S
C1025 C1024 1.524 . S
C1025 C1026 1.397 . S
C1025 C1030 1.363 . S
C1026 H1003 0.950 . S
C1026 C1025 1.397 . S
C1026 C1027 1.334 . S
C1027 H1004 0.950 . S
C1027 C1026 1.334 . S
C1027 C1028 1.287 . S
C1028 C1027 1.287 . S
C1028 C1029 1.524 . S
C1028 H1047 0.913 . S
C1029 H1005 0.950 . S
C1029 C1028 1.524 . S
C1029 C1030 1.415 . S
C1030 H1006 0.950 . S
C1030 C1025 1.363 . S
C1030 C1029 1.415 . S
C1031 H1007 0.951 . S
C1031 C1032 1.366 . S
C1031 C1033 1.388 . S
C1032 C1031 1.366 . S
C1032 C1036 1.385 . S
C1033 H1008 0.951 . S
C1033 C1031 1.388 . S
C1033 C1034 1.366 . S
C1034 C1033 1.366 . S
C1034 C1035 1.414 . S
C1034 C1037 1.499 . S
C1035 H1009 0.950 1_545 S
C1035 C1034 1.414 . S
C1035 C1036 1.374 . S
C1036 H1010 0.950 . S
C1036 C1032 1.385 . S
C1036 C1035 1.374 . S
C1037 C1034 1.499 . S
C1037 C1038 1.373 1_545 S
C1037 C1039 1.389 . S
C1038 H1011 0.950 . S
C1038 C1024 1.377 . S
C1038 C1037 1.373 1_565 S
C1039 C1023 1.377 . S
C1039 C1037 1.389 . S
C1039 C1040 1.524 . S
C1040 C1039 1.524 . S
C1040 C1041 1.397 . S
C1040 C1045 1.363 . S
C1041 H1012 0.950 . S
C1041 C1040 1.397 . S
C1041 C1042 1.334 . S
C1042 H1013 0.950 . S
C1042 C1041 1.334 . S
C1042 C1043 1.287 . S
C1043 C1042 1.287 . S
C1043 C1044 1.524 . S
C1043 H1046 0.999 . S
C1044 H1014 0.950 . S
C1044 C1043 1.524 . S
C1044 C1045 1.415 . S
C1045 H1015 0.950 . S
C1045 C1040 1.363 . S
C1045 C1044 1.415 . S
H1046 C1043 0.999 . S
H1047 C1028 0.913 . S
H1048 C1066 0.951 . S
H1049 C1068 0.951 . S
H1050 C1070 0.950 . S
H1051 C1071 0.950 . S
H1052 C1073 0.950 . S
H1053 C1076 0.950 . S
H1054 C1077 0.950 . S
H1055 C1079 0.950 . S
H1056 C1080 0.950 . S
H1057 C1081 0.951 . S
H1058 C1083 0.951 . S
H1059 C1085 0.950 . S
H1060 C1086 0.950 . S
H1061 C1088 0.950 . S
H1062 C1091 0.950 . S
H1063 C1092 0.950 . S
H1064 C1094 0.950 . S
H1065 C1095 0.950 . S
C1066 H1048 0.951 . S
C1066 C1067 1.366 . S
C1066 C1068 1.388 . S
C1067 C1066 1.366 . S
C1067 C1071 1.385 . S
C1068 H1049 0.951 . S
C1068 C1066 1.388 . S
C1068 C1069 1.366 . S
C1069 C1068 1.366 . S
C1069 C1070 1.414 . S
C1069 C1072 1.499 . S
C1070 H1050 0.950 . S
C1070 C1069 1.414 . S
C1070 C1071 1.374 . S
C1071 H1051 0.950 . S
C1071 C1067 1.385 . S
C1071 C1070 1.374 . S
C1072 C1069 1.499 . S
C1072 C1073 1.373 . S
C1072 C1074 1.389 . S
C1073 H1052 0.950 . S
C1073 C1072 1.373 . S
C1073 C1089 1.377 . S
C1074 C1072 1.389 . S
C1074 C1075 1.524 . S
C1074 C1088 1.377 . S
C1075 C1074 1.524 . S
C1075 C1076 1.397 . S
C1075 C1080 1.363 . S
C1076 H1053 0.950 . S
C1076 C1075 1.397 . S
C1076 C1077 1.334 . S
C1077 H1054 0.950 . S
C1077 C1076 1.334 . S
C1077 C1078 1.287 . S
C1078 C1077 1.287 . S
C1078 C1079 1.524 . S
C1078 H1097 0.913 . S
C1079 H1055 0.950 . S
C1079 C1078 1.524 . S
C1079 C1080 1.415 . S
C1080 H1056 0.950 . S
C1080 C1075 1.363 . S
C1080 C1079 1.415 . S
C1081 H1057 0.951 . S
C1081 C1082 1.366 . S
C1081 C1083 1.388 . S
C1082 C1081 1.366 . S
C1082 C1086 1.385 . S
C1083 H1058 0.951 . S
C1083 C1081 1.388 . S
C1083 C1084 1.366 . S
C1084 C1083 1.366 . S
C1084 C1085 1.414 . S
C1084 C1087 1.499 . S
C1085 H1059 0.950 . S
C1085 C1084 1.414 . S
C1085 C1086 1.374 . S
C1086 H1060 0.950 . S
C1086 C1082 1.385 . S
C1086 C1085 1.374 . S
C1087 C1084 1.499 . S
C1087 C1088 1.373 . S
C1087 C1089 1.389 . S
C1088 H1061 0.950 . S
C1088 C1074 1.377 . S
C1088 C1087 1.373 . S
C1089 C1073 1.377 . S
C1089 C1087 1.389 . S
C1089 C1090 1.524 . S
C1090 C1089 1.524 . S
C1090 C1091 1.397 . S
C1090 C1095 1.363 . S
C1091 H1062 0.950 . S
C1091 C1090 1.397 . S
C1091 C1092 1.334 . S
C1092 H1063 0.950 . S
C1092 C1091 1.334 . S
C1092 C1093 1.287 . S
C1093 C1092 1.287 . S
C1093 C1094 1.524 . S
C1093 H1096 0.999 . S
C1094 H1064 0.950 . S
C1094 C1093 1.524 . S
C1094 C1095 1.415 . S
C1095 H1065 0.950 . S
C1095 C1090 1.363 . S
C1095 C1094 1.415 . S
H1096 C1093 0.999 . S
H1097 C1078 0.913 . S
H1098 C1116 0.951 . S
H1099 C1118 0.951 . S
H1100 C1120 0.950 . S
H1101 C1121 0.950 . S
H1102 C1123 0.950 . S
H1103 C1126 0.950 . S
H1104 C1127 0.950 . S
H1105 C1129 0.950 . S
H1106 C1130 0.950 . S
H1107 C1131 0.951 . S
H1108 C1133 0.951 . S
H1109 C1135 0.950 . S
H1110 C1136 0.950 . S
H1111 C1138 0.950 . S
H1112 C1141 0.950 . S
H1113 C1142 0.950 . S
H1114 C1144 0.950 . S
H1115 C1145 0.950 . S
C1116 H1098 0.951 . S
C1116 C1117 1.366 . S
C1116 C1118 1.388 . S
C1117 C1116 1.366 . S
C1117 C1121 1.385 . S
C1118 H1099 0.951 . S
C1118 C1116 1.388 . S
C1118 C1119 1.366 . S
C1119 C1118 1.366 . S
C1119 C1120 1.414 . S
C1119 C1122 1.499 . S
C1120 H1100 0.950 . S
C1120 C1119 1.414 . S
C1120 C1121 1.374 . S
C1121 H1101 0.950 . S
C1121 C1117 1.385 . S
C1121 C1120 1.374 . S
C1122 C1119 1.499 . S
C1122 C1123 1.373 . S
C1122 C1124 1.389 . S
C1123 H1102 0.950 . S
C1123 C1122 1.373 . S
C1123 C1139 1.377 . S
C1124 C1122 1.389 . S
C1124 C1125 1.524 . S
C1124 C1138 1.377 . S
C1125 C1124 1.524 . S
C1125 C1126 1.397 . S
C1125 C1130 1.363 . S
C1126 H1103 0.950 . S
C1126 C1125 1.397 . S
C1126 C1127 1.334 . S
C1127 H1104 0.950 . S
C1127 C1126 1.334 . S
C1127 C1128 1.287 . S
C1128 C1127 1.287 . S
C1128 C1129 1.524 . S
C1128 H1147 0.913 . S
C1129 H1105 0.950 . S
C1129 C1128 1.524 . S
C1129 C1130 1.415 . S
C1130 H1106 0.950 . S
C1130 C1125 1.363 . S
C1130 C1129 1.415 . S
C1131 H1107 0.951 . S
C1131 C1132 1.366 . S
C1131 C1133 1.388 . S
C1132 C1131 1.366 . S
C1132 C1136 1.385 . S
C1133 H1108 0.951 . S
C1133 C1131 1.388 . S
C1133 C1134 1.366 . S
C1134 C1133 1.366 . S
C1134 C1135 1.414 . S
C1134 C1137 1.499 . S
C1135 H1109 0.950 . S
C1135 C1134 1.414 . S
C1135 C1136 1.374 . S
C1136 H1110 0.950 . S
C1136 C1132 1.385 . S
C1136 C1135 1.374 . S
C1137 C1134 1.499 . S
C1137 C1138 1.373 . S
C1137 C1139 1.389 . S
C1138 H1111 0.950 . S
C1138 C1124 1.377 . S
C1138 C1137 1.373 . S
C1139 C1123 1.377 . S
C1139 C1137 1.389 . S
C1139 C1140 1.524 . S
C1140 C1139 1.524 . S
C1140 C1141 1.397 . S
C1140 C1145 1.363 . S
C1141 H1112 0.950 . S
C1141 C1140 1.397 . S
C1141 C1142 1.334 . S
C1142 H1113 0.950 . S
C1142 C1141 1.334 . S
C1142 C1143 1.287 . S
C1143 C1142 1.287 . S
C1143 C1144 1.524 . S
C1143 H1146 0.999 . S
C1144 H1114 0.950 . S
C1144 C1143 1.524 . S
C1144 C1145 1.415 . S
C1145 H1115 0.950 . S
C1145 C1140 1.363 . S
C1145 C1144 1.415 . S
H1146 C1143 0.999 . S
H1147 C1128 0.913 . S
H1148 C1166 0.951 . S
H1149 C1168 0.951 . S
H1150 C1170 0.950 . S
H1151 C1171 0.950 . S
H1152 C1173 0.950 . S
H1153 C1176 0.950 . S
H1154 C1177 0.950 . S
H1155 C1179 0.989 . S
H1156 C1180 0.950 . S
H1157 C1181 0.951 . S
H1158 C1183 0.951 . S
H1159 C1185 0.950 . S
H1160 C1186 0.950 . S
H1161 C1188 0.950 . S
H1162 C1191 0.950 . S
H1163 C1192 0.950 . S
H1164 C1194 0.950 . S
H1165 C1195 0.950 . S
C1166 H1148 0.951 . S
C1166 C1167 1.366 . S
C1166 C1168 1.388 . S
C1167 C1166 1.366 . S
C1167 C1171 1.385 . S
C1168 H1149 0.951 . S
C1168 C1166 1.388 . S
C1168 C1169 1.366 . S
C1169 C1168 1.366 . S
C1169 C1170 1.414 . S
C1169 C1172 1.499 . S
C1170 H1150 0.950 . S
C1170 C1169 1.414 . S
C1170 C1171 1.374 . S
C1171 H1151 0.950 . S
C1171 C1167 1.385 . S
C1171 C1170 1.374 . S
C1172 C1169 1.499 . S
C1172 C1173 1.373 1_554 S
C1172 C1174 1.389 . S
C1173 H1152 0.950 . S
C1173 C1172 1.373 1_556 S
C1173 C1189 1.377 . S
C1174 C1172 1.389 . S
C1174 C1175 1.524 . S
C1174 C1188 1.377 . S
C1175 C1174 1.524 . S
C1175 C1176 1.397 . S
C1175 C1180 1.363 . S
C1176 H1153 0.950 . S
C1176 C1175 1.397 . S
C1176 C1177 1.334 . S
C1177 H1154 0.950 . S
C1177 C1176 1.334 . S
C1177 C1178 1.287 . S
C1178 C1177 1.287 . S
C1178 C1179 1.524 . S
C1178 H1197 0.913 . S
C1179 H1155 0.989 . S
C1179 C1178 1.524 . S
C1179 C1180 1.415 . S
C1180 H1156 0.950 . S
C1180 C1175 1.363 . S
C1180 C1179 1.415 . S
C1181 H1157 0.951 . S
C1181 C1182 1.366 . S
C1181 C1183 1.388 . S
C1182 C1181 1.366 . S
C1182 C1186 1.385 . S
C1183 H1158 0.951 . S
C1183 C1181 1.388 . S
C1183 C1184 1.366 . S
C1184 C1183 1.366 . S
C1184 C1185 1.414 . S
C1184 C1187 1.499 . S
C1185 H1159 0.950 . S
C1185 C1184 1.414 . S
C1185 C1186 1.374 . S
C1186 H1160 0.950 . S
C1186 C1182 1.385 . S
C1186 C1185 1.374 . S
C1187 C1184 1.499 . S
C1187 C1188 1.373 1_556 S
C1187 C1189 1.389 . S
C1188 H1161 0.950 . S
C1188 C1174 1.377 . S
C1188 C1187 1.373 1_554 S
C1189 C1173 1.377 . S
C1189 C1187 1.389 . S
C1189 C1190 1.524 . S
C1190 C1189 1.524 . S
C1190 C1191 1.397 . S
C1190 C1195 1.363 . S
C1191 H1162 0.950 . S
C1191 C1190 1.397 . S
C1191 C1192 1.334 . S
C1192 H1163 0.950 . S
C1192 C1191 1.334 . S
C1192 C1193 1.287 . S
C1193 C1192 1.287 . S
C1193 C1194 1.524 . S
C1193 H1196 0.999 . S
C1194 H1164 0.950 . S
C1194 C1193 1.524 . S
C1194 C1195 1.415 . S
C1195 H1165 0.950 . S
C1195 C1190 1.363 . S
C1195 C1194 1.415 . S
H1196 C1193 0.999 . S
H1197 C1178 0.913 . S
H1198 C1216 0.951 . S
H1199 C1218 0.951 1_556 S
H1200 C1220 0.950 . S
H1201 C1221 0.950 . S
H1202 C1223 0.950 1_554 S
H1203 C1226 0.958 . S
H1204 C1227 0.950 . S
H1205 C1229 0.950 . S
H1206 C1230 0.950 . S
H1207 C1231 0.951 . S
H1208 C1233 0.951 . S
H1209 C1235 0.950 . S
H1210 C1236 0.950 . S
H1211 C1238 0.950 . S
H1212 C1241 0.950 . S
H1213 C1242 0.950 . S
H1214 C1244 0.950 1_554 S
H1215 C1245 0.950 1_554 S
C1216 H1198 0.951 . S
C1216 C1217 1.364 1_565 S
C1216 C1218 1.388 . S
C1217 C1216 1.364 1_545 S
C1217 C1221 1.386 . S
C1218 H1199 0.951 1_554 S
C1218 C1216 1.388 . S
C1218 C1219 1.374 . S
C1219 C1218 1.374 . S
C1219 C1220 1.403 1_565 S
C1219 C1222 1.499 1_554 S
C1220 H1200 0.950 . S
C1220 C1219 1.403 1_545 S
C1220 C1221 1.374 . S
C1221 H1201 0.950 . S
C1221 C1217 1.386 . S
C1221 C1220 1.374 . S
C1222 C1219 1.499 1_556 S
C1222 C1223 1.337 1_565 S
C1222 C1224 1.425 . S
C1223 H1202 0.950 1_556 S
C1223 C1222 1.337 1_545 S
C1223 C1239 1.377 . S
C1224 C1222 1.425 . S
C1224 C1225 1.524 . S
C1224 C1238 1.377 . S
C1225 C1224 1.524 . S
C1225 C1226 1.388 1_556 S
C1225 C1230 1.363 . S
C1226 H1203 0.958 . S
C1226 C1225 1.388 1_554 S
C1226 C1227 1.335 . S
C1227 H1204 0.950 . S
C1227 C1226 1.335 . S
C1227 C1228 1.287 1_554 S
C1228 C1227 1.287 1_556 S
C1228 C1229 1.524 . S
C1228 H1247 0.913 . S
C1229 H1205 0.950 . S
C1229 C1228 1.524 . S
C1229 C1230 1.415 . S
C1230 H1206 0.950 . S
C1230 C1225 1.363 . S
C1230 C1229 1.415 . S
C1231 H1207 0.951 . S
C1231 C1232 1.366 . S
C1231 C1233 1.388 . S
C1232 C1231 1.366 . S
C1232 C1236 1.384 1_545 S
C1233 H1208 0.951 . S
C1233 C1231 1.388 . S
C1233 C1234 1.366 . S
C1234 C1233 1.366 . S
C1234 C1235 1.414 1_545 S
C1234 C1237 1.499 . S
C1235 H1209 0.950 . S
C1235 C1234 1.414 1_565 S
C1235 C1236 1.374 . S
C1236 H1210 0.950 . S
C1236 C1232 1.384 1_565 S
C1236 C1235 1.374 . S
C1237 C1234 1.499 . S
C1237 C1238 1.373 1_545 S
C1237 C1239 1.389 . S
C1238 H1211 0.950 . S
C1238 C1224 1.377 . S
C1238 C1237 1.373 1_565 S
C1239 C1223 1.377 . S
C1239 C1237 1.389 . S
C1239 C1240 1.524 . S
C1240 C1239 1.524 . S
C1240 C1241 1.397 . S
C1240 C1245 1.363 . S
C1241 H1212 0.950 . S
C1241 C1240 1.397 . S
C1241 C1242 1.334 . S
C1242 H1213 0.950 . S
C1242 C1241 1.334 . S
C1242 C1243 1.287 . S
C1243 C1242 1.287 . S
C1243 C1244 1.524 . S
C1243 H1246 0.999 . S
C1244 H1214 0.950 1_556 S
C1244 C1243 1.524 . S
C1244 C1245 1.415 . S
C1245 H1215 0.950 1_556 S
C1245 C1240 1.363 . S
C1245 C1244 1.415 . S
H1246 C1243 0.999 . S
H1247 C1228 0.913 . S
H1248 C1266 0.951 . S
H1249 C1268 0.951 . S
H1250 C1270 0.950 . S
H1251 C1271 0.950 . S
H1252 C1273 0.950 . S
H1253 C1276 0.950 . S
H1254 C1277 0.950 . S
H1255 C1279 0.950 . S
H1256 C1280 0.950 . S
H1257 C1281 0.951 . S
H1258 C1283 0.951 . S
H1259 C1285 0.950 . S
H1260 C1286 0.950 . S
H1261 C1288 0.950 . S
H1262 C1291 0.950 . S
H1263 C1292 0.950 . S
H1264 C1294 0.950 . S
H1265 C1295 0.950 . S
C1266 H1248 0.951 . S
C1266 C1267 1.366 . S
C1266 C1268 1.388 1_554 S
C1267 C1266 1.366 . S
C1267 C1271 1.385 . S
C1268 H1249 0.951 . S
C1268 C1266 1.388 1_556 S
C1268 C1269 1.366 . S
C1269 C1268 1.366 . S
C1269 C1270 1.414 1_556 S
C1269 C1272 1.499 . S
C1270 H1250 0.950 . S
C1270 C1269 1.414 1_554 S
C1270 C1271 1.374 . S
C1271 H1251 0.950 . S
C1271 C1267 1.385 . S
C1271 C1270 1.374 . S
C1272 C1269 1.499 . S
C1272 C1273 1.373 . S
C1272 C1274 1.389 . S
C1273 H1252 0.950 . S
C1273 C1272 1.373 . S
C1273 C1289 1.377 . S
C1274 C1272 1.389 . S
C1274 C1275 1.524 . S
C1274 C1288 1.377 . S
C1275 C1274 1.524 . S
C1275 C1276 1.397 1_556 S
C1275 C1280 1.363 . S
C1276 H1253 0.950 . S
C1276 C1275 1.397 1_554 S
C1276 C1277 1.334 . S
C1277 H1254 0.950 . S
C1277 C1276 1.334 . S
C1277 C1278 1.287 1_554 S
C1278 C1277 1.287 1_556 S
C1278 C1279 1.524 . S
C1278 H1297 0.913 1_556 S
C1279 H1255 0.950 . S
C1279 C1278 1.524 . S
C1279 C1280 1.415 . S
C1280 H1256 0.950 . S
C1280 C1275 1.363 . S
C1280 C1279 1.415 . S
C1281 H1257 0.951 . S
C1281 C1282 1.366 . S
C1281 C1283 1.388 . S
C1282 C1281 1.366 . S
C1282 C1286 1.385 . S
C1283 H1258 0.951 . S
C1283 C1281 1.388 . S
C1283 C1284 1.366 . S
C1284 C1283 1.366 . S
C1284 C1285 1.414 . S
C1284 C1287 1.499 . S
C1285 H1259 0.950 . S
C1285 C1284 1.414 . S
C1285 C1286 1.374 . S
C1286 H1260 0.950 . S
C1286 C1282 1.385 . S
C1286 C1285 1.374 . S
C1287 C1284 1.499 . S
C1287 C1288 1.373 . S
C1287 C1289 1.389 . S
C1288 H1261 0.950 . S
C1288 C1274 1.377 . S
C1288 C1287 1.373 . S
C1289 C1273 1.377 . S
C1289 C1287 1.389 . S
C1289 C1290 1.524 . S
C1290 C1289 1.524 . S
C1290 C1291 1.397 . S
C1290 C1295 1.363 . S
C1291 H1262 0.950 . S
C1291 C1290 1.397 . S
C1291 C1292 1.334 . S
C1292 H1263 0.950 . S
C1292 C1291 1.334 . S
C1292 C1293 1.287 . S
C1293 C1292 1.287 . S
C1293 C1294 1.524 . S
C1293 H1296 0.999 . S
C1294 H1264 0.950 . S
C1294 C1293 1.524 . S
C1294 C1295 1.415 . S
C1295 H1265 0.950 . S
C1295 C1290 1.363 . S
C1295 C1294 1.415 . S
H1296 C1293 0.999 . S
H1297 C1278 0.913 1_554 S
H1298 C1316 0.951 . S
H1299 C1318 0.951 . S
H1300 C1320 0.950 . S
H1301 C1321 0.953 . S
H1302 C1323 0.950 . S
H1303 C1326 0.950 . S
H1304 C1327 0.950 1_556 S
H1305 C1329 0.950 . S
H1306 C1330 0.950 . S
H1307 C1331 0.951 . S
H1308 C1333 0.951 . S
H1309 C1335 0.950 . S
H1310 C1336 0.950 . S
H1311 C1338 0.950 . S
H1312 C1341 0.950 . S
H1313 C1342 0.950 . S
H1314 C1344 0.950 . S
H1315 C1345 0.950 . S
C1316 H1298 0.951 . S
C1316 C1317 1.366 . S
C1316 C1318 1.388 . S
C1317 C1316 1.366 . S
C1317 C1321 1.385 . S
C1318 H1299 0.951 . S
C1318 C1316 1.388 . S
C1318 C1319 1.366 1_554 S
C1319 C1318 1.366 1_556 S
C1319 C1320 1.414 . S
C1319 C1322 1.499 . S
C1320 H1300 0.950 . S
C1320 C1319 1.414 . S
C1320 C1321 1.374 1_556 S
C1321 H1301 0.953 . S
C1321 C1317 1.385 . S
C1321 C1320 1.374 1_554 S
C1322 C1319 1.499 . S
C1322 C1323 1.373 . S
C1322 C1324 1.389 . S
C1323 H1302 0.950 . S
C1323 C1322 1.373 . S
C1323 C1339 1.377 . S
C1324 C1322 1.389 . S
C1324 C1325 1.524 . S
C1324 C1338 1.377 . S
C1325 C1324 1.524 . S
C1325 C1326 1.397 . S
C1325 C1330 1.363 1_556 S
C1326 H1303 0.950 . S
C1326 C1325 1.397 . S
C1326 C1327 1.334 1_556 S
C1327 H1304 0.950 1_554 S
C1327 C1326 1.334 1_554 S
C1327 C1328 1.287 . S
C1328 C1327 1.287 . S
C1328 C1329 1.524 . S
C1328 H1347 0.913 . S
C1329 H1305 0.950 . S
C1329 C1328 1.524 . S
C1329 C1330 1.415 . S
C1330 H1306 0.950 . S
C1330 C1325 1.363 1_554 S
C1330 C1329 1.415 . S
C1331 H1307 0.951 . S
C1331 C1332 1.366 . S
C1331 C1333 1.388 . S
C1332 C1331 1.366 . S
C1332 C1336 1.385 . S
C1333 H1308 0.951 . S
C1333 C1331 1.388 . S
C1333 C1334 1.366 . S
C1334 C1333 1.366 . S
C1334 C1335 1.414 . S
C1334 C1337 1.499 . S
C1335 H1309 0.950 . S
C1335 C1334 1.414 . S
C1335 C1336 1.374 . S
C1336 H1310 0.950 . S
C1336 C1332 1.385 . S
C1336 C1335 1.374 . S
C1337 C1334 1.499 . S
C1337 C1338 1.373 . S
C1337 C1339 1.389 . S
C1338 H1311 0.950 . S
C1338 C1324 1.377 . S
C1338 C1337 1.373 . S
C1339 C1323 1.377 . S
C1339 C1337 1.389 . S
C1339 C1340 1.524 . S
C1340 C1339 1.524 . S
C1340 C1341 1.397 . S
C1340 C1345 1.363 . S
C1341 H1312 0.950 . S
C1341 C1340 1.397 . S
C1341 C1342 1.334 . S
C1342 H1313 0.950 . S
C1342 C1341 1.334 . S
C1342 C1343 1.287 . S
C1343 C1342 1.287 . S
C1343 C1344 1.524 . S
C1343 H1346 0.999 . S
C1344 H1314 0.950 . S
C1344 C1343 1.524 . S
C1344 C1345 1.415 . S
C1345 H1315 0.950 . S
C1345 C1340 1.363 . S
C1345 C1344 1.415 . S
H1346 C1343 0.999 . S
H1347 C1328 0.913 . S
H1348 C1366 0.951 . S
H1349 C1368 0.951 . S
H1350 C1370 0.950 . S
H1351 C1371 0.950 . S
H1352 C1373 0.950 . S
H1353 C1376 0.950 . S
H1354 C1377 0.950 . S
H1355 C1379 0.950 . S
H1356 C1380 0.950 . S
H1357 C1381 0.951 . S
H1358 C1383 0.951 . S
H1359 C1385 0.950 . S
H1360 C1386 0.950 . S
H1361 C1388 0.950 . S
H1362 C1391 0.950 . S
H1363 C1392 0.950 . S
H1364 C1394 0.950 . S
H1365 C1395 0.950 . S
C1366 H1348 0.951 . S
C1366 C1367 1.366 . S
C1366 C1368 1.388 . S
C1367 C1366 1.366 . S
C1367 C1371 1.385 1_655 S
C1368 H1349 0.951 . S
C1368 C1366 1.388 . S
C1368 C1369 1.412 . S
C1369 C1368 1.412 . S
C1369 C1370 1.370 1_655 S
C1369 C1372 1.498 1_655 S
C1370 H1350 0.950 . S
C1370 C1369 1.370 1_455 S
C1370 C1371 1.374 . S
C1371 H1351 0.950 . S
C1371 C1367 1.385 1_455 S
C1371 C1370 1.374 . S
C1372 C1369 1.498 1_455 S
C1372 C1373 1.379 . S
C1372 C1374 1.383 1_455 S
C1373 H1352 0.950 . S
C1373 C1372 1.379 . S
C1373 C1389 1.377 . S
C1374 C1372 1.383 1_655 S
C1374 C1375 1.524 . S
C1374 C1388 1.377 . S
C1375 C1374 1.524 . S
C1375 C1376 1.397 1_655 S
C1375 C1380 1.363 . S
C1376 H1353 0.950 . S
C1376 C1375 1.397 1_455 S
C1376 C1377 1.334 . S
C1377 H1354 0.950 . S
C1377 C1376 1.334 . S
C1377 C1378 1.287 1_455 S
C1378 C1377 1.287 1_655 S
C1378 C1379 1.524 . S
C1378 H1397 0.913 . S
C1379 H1355 0.950 . S
C1379 C1378 1.524 . S
C1379 C1380 1.415 . S
C1380 H1356 0.950 . S
C1380 C1375 1.363 . S
C1380 C1379 1.415 . S
C1381 H1357 0.951 . S
C1381 C1382 1.366 . S
C1381 C1383 1.388 . S
C1382 C1381 1.366 . S
C1382 C1386 1.385 1_455 S
C1383 H1358 0.951 . S
C1383 C1381 1.388 . S
C1383 C1384 1.366 . S
C1384 C1383 1.366 . S
C1384 C1385 1.414 1_455 S
C1384 C1387 1.498 1_455 S
C1385 H1359 0.950 . S
C1385 C1384 1.414 1_655 S
C1385 C1386 1.374 . S
C1386 H1360 0.950 . S
C1386 C1382 1.385 1_655 S
C1386 C1385 1.374 . S
C1387 C1384 1.498 1_655 S
C1387 C1388 1.374 . S
C1387 C1389 1.388 1_655 S
C1388 H1361 0.950 . S
C1388 C1374 1.377 . S
C1388 C1387 1.374 . S
C1389 C1373 1.377 . S
C1389 C1387 1.388 1_455 S
C1389 C1390 1.524 . S
C1390 C1389 1.524 . S
C1390 C1391 1.397 1_455 S
C1390 C1395 1.363 . S
C1391 H1362 0.950 . S
C1391 C1390 1.397 1_655 S
C1391 C1392 1.334 . S
C1392 H1363 0.950 . S
C1392 C1391 1.334 . S
C1392 C1393 1.287 1_655 S
C1393 C1392 1.287 1_455 S
C1393 C1394 1.524 . S
C1393 H1396 0.999 . S
C1394 H1364 0.950 . S
C1394 C1393 1.524 . S
C1394 C1395 1.415 . S
C1395 H1365 0.950 . S
C1395 C1390 1.363 . S
C1395 C1394 1.415 . S
H1396 C1393 0.999 . S
H1397 C1378 0.913 . S
H1398 C1416 0.951 . S
H1399 C1418 0.951 . S
H1400 C1420 0.950 . S
H1401 C1421 0.950 . S
H1402 C1423 0.948 1_545 S
H1403 C1426 0.950 1_545 S
H1404 C1427 0.917 1_545 S
H1405 C1429 0.950 . S
H1406 C1430 0.950 . S
H1407 C1431 0.986 . S
H1408 C1433 0.951 . S
H1409 C1435 0.950 . S
H1410 C1436 0.950 . S
H1411 C1438 0.950 . S
H1412 C1441 0.950 . S
H1413 C1442 0.950 . S
H1414 C1444 0.950 . S
H1415 C1445 0.950 . S
C1416 H1398 0.951 . S
C1416 C1417 1.366 . S
C1416 C1418 1.388 . S
C1417 C1416 1.366 . S
C1417 C1421 1.385 1_565 S
C1418 H1399 0.951 . S
C1418 C1416 1.388 . S
C1418 C1419 1.366 . S
C1419 C1418 1.366 . S
C1419 C1420 1.414 1_565 S
C1419 C1422 1.499 . S
C1420 H1400 0.950 . S
C1420 C1419 1.414 1_545 S
C1420 C1421 1.374 . S
C1421 H1401 0.950 . S
C1421 C1417 1.385 1_545 S
C1421 C1420 1.374 . S
C1422 C1419 1.499 . S
C1422 C1423 1.375 . S
C1422 C1424 1.389 . S
C1423 H1402 0.948 1_565 S
C1423 C1422 1.375 . S
C1423 C1439 1.377 . S
C1424 C1422 1.389 . S
C1424 C1425 1.524 . S
C1424 C1438 1.377 . S
C1425 C1424 1.524 . S
C1425 C1426 1.397 . S
C1425 C1430 1.363 . S
C1426 H1403 0.950 1_565 S
C1426 C1425 1.397 . S
C1426 C1427 1.334 . S
C1427 H1404 0.917 1_565 S
C1427 C1426 1.334 . S
C1427 C1428 1.287 . S
C1428 C1427 1.287 . S
C1428 C1429 1.524 . S
C1428 H1447 0.913 . S
C1429 H1405 0.950 . S
C1429 C1428 1.524 . S
C1429 C1430 1.415 . S
C1430 H1406 0.950 . S
C1430 C1425 1.363 . S
C1430 C1429 1.415 . S
C1431 H1407 0.986 . S
C1431 C1432 1.329 1_545 S
C1431 C1433 1.391 . S
C1432 C1431 1.329 1_565 S
C1432 C1436 1.385 . S
C1433 H1408 0.951 . S
C1433 C1431 1.391 . S
C1433 C1434 1.366 1_545 S
C1434 C1433 1.366 1_565 S
C1434 C1435 1.414 . S
C1434 C1437 1.499 . S
C1435 H1409 0.950 . S
C1435 C1434 1.414 . S
C1435 C1436 1.374 . S
C1436 H1410 0.950 . S
C1436 C1432 1.385 . S
C1436 C1435 1.374 . S
C1437 C1434 1.499 . S
C1437 C1438 1.373 . S
C1437 C1439 1.389 . S
C1438 H1411 0.950 . S
C1438 C1424 1.377 . S
C1438 C1437 1.373 . S
C1439 C1423 1.377 . S
C1439 C1437 1.389 . S
C1439 C1440 1.524 1_565 S
C1440 C1439 1.524 1_545 S
C1440 C1441 1.397 1_545 S
C1440 C1445 1.363 . S
C1441 H1412 0.950 . S
C1441 C1440 1.397 1_565 S
C1441 C1442 1.334 . S
C1442 H1413 0.950 . S
C1442 C1441 1.334 . S
C1442 C1443 1.287 1_565 S
C1443 C1442 1.287 1_545 S
C1443 C1444 1.524 . S
C1443 H1446 0.999 . S
C1444 H1414 0.950 . S
C1444 C1443 1.524 . S
C1444 C1445 1.415 . S
C1445 H1415 0.950 . S
C1445 C1440 1.363 . S
C1445 C1444 1.415 . S
H1446 C1443 0.999 . S
H1447 C1428 0.913 . S
H1448 C1466 0.951 . S
H1449 C1468 0.951 . S
H1450 C1470 0.950 . S
H1451 C1471 0.950 . S
H1452 C1473 0.950 . S
H1453 C1476 0.950 . S
H1454 C1477 0.950 . S
H1455 C1479 0.950 . S
H1456 C1480 0.950 . S
H1457 C1481 0.951 . S
H1458 C1483 0.951 . S
H1459 C1485 0.950 . S
H1460 C1486 0.950 . S
H1461 C1488 0.950 . S
H1462 C1491 0.950 . S
H1463 C1492 0.950 . S
H1464 C1494 0.950 . S
H1465 C1495 0.950 . S
C1466 H1448 0.951 . S
C1466 C1467 1.366 . S
C1466 C1468 1.388 . S
C1467 C1466 1.366 . S
C1467 C1471 1.385 . S
C1468 H1449 0.951 . S
C1468 C1466 1.388 . S
C1468 C1469 1.366 . S
C1469 C1468 1.366 . S
C1469 C1470 1.414 . S
C1469 C1472 1.499 . S
C1470 H1450 0.950 . S
C1470 C1469 1.414 . S
C1470 C1471 1.374 . S
C1471 H1451 0.950 . S
C1471 C1467 1.385 . S
C1471 C1470 1.374 . S
C1472 C1469 1.499 . S
C1472 C1473 1.373 . S
C1472 C1474 1.389 . S
C1473 H1452 0.950 . S
C1473 C1472 1.373 . S
C1473 C1489 1.377 . S
C1474 C1472 1.389 . S
C1474 C1475 1.524 . S
C1474 C1488 1.377 . S
C1475 C1474 1.524 . S
C1475 C1476 1.397 . S
C1475 C1480 1.363 . S
C1476 H1453 0.950 . S
C1476 C1475 1.397 . S
C1476 C1477 1.334 . S
C1477 H1454 0.950 . S
C1477 C1476 1.334 . S
C1477 C1478 1.287 . S
C1478 C1477 1.287 . S
C1478 C1479 1.524 . S
C1478 H1497 0.913 . S
C1479 H1455 0.950 . S
C1479 C1478 1.524 . S
C1479 C1480 1.415 . S
C1480 H1456 0.950 . S
C1480 C1475 1.363 . S
C1480 C1479 1.415 . S
C1481 H1457 0.951 . S
C1481 C1482 1.366 . S
C1481 C1483 1.388 . S
C1482 C1481 1.366 . S
C1482 C1486 1.385 . S
C1483 H1458 0.951 . S
C1483 C1481 1.388 . S
C1483 C1484 1.366 . S
C1484 C1483 1.366 . S
C1484 C1485 1.414 . S
C1484 C1487 1.499 . S
C1485 H1459 0.950 . S
C1485 C1484 1.414 . S
C1485 C1486 1.374 . S
C1486 H1460 0.950 . S
C1486 C1482 1.385 . S
C1486 C1485 1.374 . S
C1487 C1484 1.499 . S
C1487 C1488 1.373 . S
C1487 C1489 1.389 . S
C1488 H1461 0.950 . S
C1488 C1474 1.377 . S
C1488 C1487 1.373 . S
C1489 C1473 1.377 . S
C1489 C1487 1.389 . S
C1489 C1490 1.524 . S
C1490 C1489 1.524 . S
C1490 C1491 1.397 . S
C1490 C1495 1.363 . S
C1491 H1462 0.950 . S
C1491 C1490 1.397 . S
C1491 C1492 1.334 . S
C1492 H1463 0.950 . S
C1492 C1491 1.334 . S
C1492 C1493 1.287 . S
C1493 C1492 1.287 . S
C1493 C1494 1.524 . S
C1493 H1496 0.999 . S
C1494 H1464 0.950 . S
C1494 C1493 1.524 . S
C1494 C1495 1.415 . S
C1495 H1465 0.950 . S
C1495 C1490 1.363 . S
C1495 C1494 1.415 . S
H1496 C1493 0.999 . S
H1497 C1478 0.913 . S
H1498 C1516 0.951 . S
H1499 C1518 0.951 . S
H1500 C1520 0.950 . S
H1501 C1521 0.950 . S
H1502 C1523 0.950 . S
H1503 C1526 0.950 . S
H1504 C1527 0.950 . S
H1505 C1529 0.950 . S
H1506 C1530 0.950 . S
H1507 C1531 0.951 . S
H1508 C1533 0.951 . S
H1509 C1535 0.950 . S
H1510 C1536 0.950 . S
H1511 C1538 0.950 . S
H1512 C1541 0.950 . S
H1513 C1542 0.950 . S
H1514 C1544 0.950 . S
H1515 C1545 0.950 . S
C1516 H1498 0.951 . S
C1516 C1517 1.366 . S
C1516 C1518 1.388 . S
C1517 C1516 1.366 . S
C1517 C1521 1.385 . S
C1518 H1499 0.951 . S
C1518 C1516 1.388 . S
C1518 C1519 1.366 . S
C1519 C1518 1.366 . S
C1519 C1520 1.414 . S
C1519 C1522 1.499 . S
C1520 H1500 0.950 . S
C1520 C1519 1.414 . S
C1520 C1521 1.374 . S
C1521 H1501 0.950 . S
C1521 C1517 1.385 . S
C1521 C1520 1.374 . S
C1522 C1519 1.499 . S
C1522 C1523 1.373 . S
C1522 C1524 1.389 . S
C1523 H1502 0.950 . S
C1523 C1522 1.373 . S
C1523 C1539 1.377 . S
C1524 C1522 1.389 . S
C1524 C1525 1.524 . S
C1524 C1538 1.377 . S
C1525 C1524 1.524 . S
C1525 C1526 1.397 . S
C1525 C1530 1.363 . S
C1526 H1503 0.950 . S
C1526 C1525 1.397 . S
C1526 C1527 1.334 . S
C1527 H1504 0.950 . S
C1527 C1526 1.334 . S
C1527 C1528 1.287 . S
C1528 C1527 1.287 . S
C1528 C1529 1.524 . S
C1528 H1547 0.913 . S
C1529 H1505 0.950 . S
C1529 C1528 1.524 . S
C1529 C1530 1.415 . S
C1530 H1506 0.950 . S
C1530 C1525 1.363 . S
C1530 C1529 1.415 . S
C1531 H1507 0.951 . S
C1531 C1532 1.366 . S
C1531 C1533 1.388 . S
C1532 C1531 1.366 . S
C1532 C1536 1.385 . S
C1533 H1508 0.951 . S
C1533 C1531 1.388 . S
C1533 C1534 1.366 . S
C1534 C1533 1.366 . S
C1534 C1535 1.414 . S
C1534 C1537 1.499 . S
C1535 H1509 0.950 . S
C1535 C1534 1.414 . S
C1535 C1536 1.374 . S
C1536 H1510 0.950 . S
C1536 C1532 1.385 . S
C1536 C1535 1.374 . S
C1537 C1534 1.499 . S
C1537 C1538 1.373 . S
C1537 C1539 1.389 . S
C1538 H1511 0.950 . S
C1538 C1524 1.377 . S
C1538 C1537 1.373 . S
C1539 C1523 1.377 . S
C1539 C1537 1.389 . S
C1539 C1540 1.524 . S
C1540 C1539 1.524 . S
C1540 C1541 1.397 . S
C1540 C1545 1.363 . S
C1541 H1512 0.950 . S
C1541 C1540 1.397 . S
C1541 C1542 1.334 . S
C1542 H1513 0.950 . S
C1542 C1541 1.334 . S
C1542 C1543 1.287 . S
C1543 C1542 1.287 . S
C1543 C1544 1.524 . S
C1543 H1546 0.999 . S
C1544 H1514 0.950 . S
C1544 C1543 1.524 . S
C1544 C1545 1.415 . S
C1545 H1515 0.950 . S
C1545 C1540 1.363 . S
C1545 C1544 1.415 . S
H1546 C1543 0.999 . S
H1547 C1528 0.913 . S
C367 C215 1.512 1_565 S
C382 C272 1.530 . S
C432 C295 1.696 . S
C417 C247 1.707 . S
C482 C318 1.629 . S
C467 C151 1.591 . S
C532 C345 1.513 . S
C517 C183 1.601 . S
C582 C273 1.517 . S
C567 C87 1.484 . S
C617 C119 1.438 1_556 S
C632 C296 1.500 . S
C667 C23 1.344 . S
C682 C319 1.362 . S
C717 C55 1.545 . S
C732 C344 1.584 . S
C782 C274 0.366 . S
C767 C189 0.432 . S
C832 C297 0.553 . S
C817 C221 0.677 . S
C882 C320 0.342 . S
C867 C253 0.358 . S
C917 C157 0.520 . S
C932 C346 0.634 . S
C967 C61 0.566 1_655 S
C982 C277 0.609 . S
C1032 C300 0.687 . S
C1017 C93 0.539 1_565 S
C1082 C323 0.660 . S
C1067 C125 0.653 . S
C1117 C29 0.542 . S
C1132 C343 0.440 . S
C1167 C177 1.803 . S
C1182 C275 1.768 . S
C1217 C209 1.658 . S
C1232 C298 1.678 . S
C1282 C321 1.701 . S
C1267 C241 1.703 . S
C1332 C342 1.386 . S
C1317 C145 1.313 . S
C1367 C49 1.712 1_655 S
C1382 C276 1.681 . S
C1432 C299 1.592 . S
C1417 C81 1.637 1_565 S
C1482 C322 1.576 . S
C1467 C113 1.592 . S
C1517 C17 1.812 . S
C1532 C341 1.859 . S
