# Generated by pormake.
# Topology pth, (4,4)-cn, num edge types: 1
# Building blocks:
#     Node 0, Type 0, BuildingBlock: AZAVOO_clean_sbu_0, # of connection points: 4
#     Node 1, Type 0, BuildingBlock: AZAVOO_clean_sbu_0, # of connection points: 4
#     Node 2, Type 0, BuildingBlock: AZAVOO_clean_sbu_0, # of connection points: 4
#     Node 3, Type 1, BuildingBlock: NAHDIM_clean_linker_0, # of connection points: 4
#     Node 4, Type 1, BuildingBlock: NAHDIM_clean_linker_0, # of connection points: 4
#     Node 5, Type 1, BuildingBlock: NAHDIM_clean_linker_0, # of connection points: 4
#     Edge 6, Type (0, 1), BuildingBlock: UVAHIK_clean_linker_0, # of connection points: 2
#     Edge 7, Type (0, 1), BuildingBlock: UVAHIK_clean_linker_0, # of connection points: 2
#     Edge 8, Type (0, 1), BuildingBlock: UVAHIK_clean_linker_0, # of connection points: 2
#     Edge 9, Type (0, 1), BuildingBlock: UVAHIK_clean_linker_0, # of connection points: 2
#     Edge 10, Type (0, 1), BuildingBlock: UVAHIK_clean_linker_0, # of connection points: 2
#     Edge 11, Type (0, 1), BuildingBlock: UVAHIK_clean_linker_0, # of connection points: 2
#     Edge 12, Type (0, 1), BuildingBlock: UVAHIK_clean_linker_0, # of connection points: 2
#     Edge 13, Type (0, 1), BuildingBlock: UVAHIK_clean_linker_0, # of connection points: 2
#     Edge 14, Type (0, 1), BuildingBlock: UVAHIK_clean_linker_0, # of connection points: 2
#     Edge 15, Type (0, 1), BuildingBlock: UVAHIK_clean_linker_0, # of connection points: 2
#     Edge 16, Type (0, 1), BuildingBlock: UVAHIK_clean_linker_0, # of connection points: 2
#     Edge 17, Type (0, 1), BuildingBlock: UVAHIK_clean_linker_0, # of connection points: 2
# Relax obj value: 0.085
# Max RMSD: 0.220
# Mean RMSD: 0.131
data_MOF--net-pth--node1-AZAVOO_clean_sbu_0--node2-NAHDIM_clean_linker_0--edge1-UVAHIK_clean_linker_0
_symmetry_space_group_name_H-M    P1
_symmetry_Int_Tables_number       1
_symmetry_cell_setting            triclinic
loop_
_symmetry_equiv_pos_as_xyz
'x, y, z'
_cell_length_a     37.997527
_cell_length_b     38.682435
_cell_length_c     95.852606
_cell_angle_alpha  90.492416
_cell_angle_beta   92.976727
_cell_angle_gamma 121.81064
loop_
_atom_site_label
_atom_site_type_symbol
_atom_site_fract_x
_atom_site_fract_y
_atom_site_fract_z
_atom_type_partial_charge
Mg0 Mg 0.11933 0.10936 0.0677 0.0
O1 O 0.06555 0.07278 0.05128 0.0
O2 O 0.05839 0.11607 0.03801 0.0
Mg3 Mg 0.10805 0.18084 0.04597 0.0
C4 C 0.0473 0.07986 0.04119 0.0
C5 C 0.11441 0.03054 0.07893 0.0
O6 O 0.14458 0.04137 0.07058 0.0
O7 O 0.07962 0.1252 0.08019 0.0
O8 O 0.07742 0.17109 0.06677 0.0
O9 O 0.16466 0.11349 0.05242 0.0
O10 O 0.14646 0.1586 0.055 0.0
C11 C 0.06872 0.15088 0.07788 0.0
C12 C 0.16738 0.1468 0.0486 0.0
O13 O 0.09805 0.05184 0.07975 0.0
Mg14 Mg 0.98763 0.05746 0.38714 0.0
O15 O 0.04283 0.07377 0.40261 0.0
O16 O 0.06204 0.13269 0.41373 0.0
Mg17 Mg 0.01924 0.15394 0.40549 0.0
C18 C 0.06633 0.10252 0.41158 0.0
C19 C 0.98582 0.97649 0.38178 0.0
O20 O 0.9717 0.96988 0.39432 0.0
O21 O 0.03032 0.10582 0.37249 0.0
O22 O 0.04514 0.16322 0.38377 0.0
O23 O 0.94373 0.0256 0.40393 0.0
O24 O 0.97121 0.09046 0.39947 0.0
C25 C 0.04771 0.1445 0.37319 0.0
C26 C 0.94856 0.0605 0.40714 0.0
O27 O 0.99555 0.00977 0.37617 0.0
Mg28 Mg 0.99816 0.01368 0.72222 0.0
O29 O 0.03634 0.0712 0.73651 0.0
O30 O 0.99168 0.07569 0.7496 0.0
Mg31 Mg 0.92673 0.01924 0.74505 0.0
C32 C 0.02836 0.0896 0.74578 0.0
C33 C 0.04429 0.01752 0.69616 0.0
O34 O 0.00581 0.98952 0.6921 0.0
O35 O 0.97116 0.04451 0.7091 0.0
O36 O 0.92416 0.04092 0.72309 0.0
O37 O 0.0073 0.97631 0.73804 0.0
O38 O 0.95564 0.98701 0.73745 0.0
C39 C 0.94133 0.04954 0.71146 0.0
C40 C 0.97489 0.9717 0.74364 0.0
O41 O 0.05178 0.0349 0.7082 0.0
C42 C 0.93189 0.60577 0.31355 0.0
C43 C 0.96736 0.64242 0.30677 0.0
C44 C 0.97421 0.6272 0.28291 0.0
C45 C 0.01723 0.64561 0.28245 0.0
C46 C 0.03381 0.6303 0.27325 0.0
C47 C 0.00667 0.59567 0.26445 0.0
C48 C 0.9632 0.57807 0.26452 0.0
C49 C 0.94756 0.59463 0.27363 0.0
C50 C 0.08028 0.65032 0.27325 0.0
C51 C 0.93328 0.54083 0.25542 0.0
C52 C 0.05183 0.33984 0.28702 0.0
C53 C 0.03732 0.36417 0.27967 0.0
C54 C 0.05788 0.43475 0.27632 0.0
C55 C 0.02343 0.42488 0.26716 0.0
C56 C 0.01937 0.45543 0.26102 0.0
C57 C 0.05095 0.49677 0.26376 0.0
C58 C 0.08551 0.50692 0.27304 0.0
C59 C 0.08836 0.47568 0.27929 0.0
C60 C 0.98146 0.44335 0.25143 0.0
C61 C 0.11973 0.55068 0.27614 0.0
C62 C 0.11528 0.47665 0.18089 0.0
C63 C 0.07343 0.45712 0.18386 0.0
C64 C 0.05678 0.47972 0.18851 0.0
C65 C 0.08292 0.52255 0.19055 0.0
C66 C 0.12444 0.54241 0.18671 0.0
C67 C 0.1399 0.5191 0.1817 0.0
C68 C 0.01179 0.4576 0.19186 0.0
C69 C 0.15303 0.58799 0.18859 0.0
C70 C 0.93226 0.6977 0.17713 0.0
C71 C 0.97472 0.70466 0.17429 0.0
C72 C 0.98836 0.64984 0.1754 0.0
C73 C 0.96551 0.60752 0.17601 0.0
C74 C 0.98221 0.58712 0.183 0.0
C75 C 0.02325 0.60975 0.18918 0.0
C76 C 0.04751 0.6524 0.18777 0.0
C77 C 0.0297 0.6721 0.18095 0.0
C78 C 0.95559 0.54154 0.18414 0.0
C79 C 0.09187 0.6772 0.19375 0.0
C80 C 0.02363 0.57563 0.25625 0.0
C81 C 0.03263 0.54937 0.26329 0.0
C82 C 0.04822 0.52889 0.25636 0.0
C83 C 0.05638 0.53558 0.24211 0.0
C84 C 0.07423 0.51715 0.23507 0.0
C85 C 0.07944 0.52149 0.22083 0.0
C86 C 0.06628 0.54378 0.21302 0.0
C87 C 0.06844 0.54564 0.19834 0.0
C88 C 0.05524 0.56816 0.1909 0.0
C89 C 0.03972 0.58897 0.19776 0.0
C90 C 0.03738 0.58749 0.21247 0.0
C91 C 0.02195 0.60801 0.21975 0.0
C92 C 0.01857 0.60523 0.23415 0.0
C93 C 0.02933 0.58086 0.24177 0.0
C94 C 0.04567 0.5606 0.23469 0.0
C95 C 0.05015 0.56429 0.22007 0.0
C96 C 0.16726 0.42484 0.18778 0.0
C97 C 0.12547 0.41986 0.18345 0.0
O98 O 0.95784 0.63977 0.29249 0.0
O99 O 0.96956 0.66826 0.16949 0.0
O100 O 0.1329 0.45537 0.1774 0.0
O101 O 0.06284 0.40581 0.28241 0.0
H102 H 0.99575 0.64117 0.30899 0.0
H103 H 0.92803 0.5772 0.30917 0.0
H104 H 0.9022 0.60459 0.31151 0.0
H105 H 0.93885 0.60745 0.32503 0.0
H106 H 0.03774 0.67161 0.28943 0.0
H107 H 0.91436 0.581 0.27401 0.0
H108 H 0.0895 0.62987 0.27795 0.0
H109 H 0.09711 0.67992 0.2793 0.0
H110 H 0.0901 0.65539 0.26236 0.0
H111 H 0.90038 0.52973 0.25721 0.0
H112 H 0.939 0.51595 0.25749 0.0
H113 H 0.9383 0.54795 0.24424 0.0
H114 H 0.00377 0.35264 0.28062 0.0
H115 H 0.0272 0.32113 0.29443 0.0
H116 H 0.07559 0.36052 0.29553 0.0
H117 H 0.06583 0.31353 0.27076 0.0
H118 H 0.99952 0.39342 0.26469 0.0
H119 H 0.11478 0.48306 0.28637 0.0
H120 H 0.99035 0.44847 0.24045 0.0
H121 H 0.96842 0.46233 0.25391 0.0
H122 H 0.95683 0.41078 0.25221 0.0
H123 H 0.14547 0.55346 0.28311 0.0
H124 H 0.10698 0.5673 0.28121 0.0
H125 H 0.13238 0.56567 0.26622 0.0
H126 H 0.10867 0.41476 0.19315 0.0
H127 H 0.05397 0.42425 0.18272 0.0
H128 H 0.17198 0.5338 0.1791 0.0
H129 H 0.00976 0.45508 0.20335 0.0
H130 H 0.99382 0.42638 0.18694 0.0
H131 H 0.9972 0.4747 0.18828 0.0
H132 H 0.18451 0.59876 0.1851 0.0
H133 H 0.15592 0.59739 0.19978 0.0
H134 H 0.13971 0.60327 0.18254 0.0
H135 H 0.99355 0.71515 0.18446 0.0
H136 H 0.93558 0.72651 0.181 0.0
H137 H 0.91799 0.6748 0.18526 0.0
H138 H 0.91113 0.68628 0.1675 0.0
H139 H 0.93388 0.59064 0.17146 0.0
H140 H 0.04796 0.7048 0.17999 0.0
H141 H 0.95329 0.53371 0.19531 0.0
H142 H 0.97025 0.52687 0.179 0.0
H143 H 0.92377 0.52863 0.17921 0.0
H144 H 0.10801 0.70912 0.19038 0.0
H145 H 0.10928 0.66305 0.19051 0.0
H146 H 0.09244 0.67762 0.20534 0.0
H147 H 0.02632 0.54396 0.27423 0.0
H148 H 0.08414 0.49894 0.24047 0.0
H149 H 0.09325 0.50644 0.216 0.0
H150 H 0.05631 0.56888 0.17961 0.0
H151 H 0.01215 0.62637 0.21439 0.0
H152 H 0.0065 0.62164 0.2392 0.0
H153 H 0.18537 0.42945 0.17849 0.0
H154 H 0.16267 0.39755 0.19316 0.0
H155 H 0.18548 0.45171 0.19513 0.0
C156 C 0.38977 0.99845 0.65073 0.0
C157 C 0.39022 0.02894 0.64058 0.0
C158 C 0.41773 0.03457 0.61778 0.0
C159 C 0.43716 0.07662 0.61613 0.0
C160 C 0.4689 0.09648 0.60691 0.0
C161 C 0.4817 0.07379 0.59937 0.0
C162 C 0.46126 0.03111 0.60078 0.0
C163 C 0.42886 0.01198 0.60977 0.0
C164 C 0.4891 0.14174 0.60538 0.0
C165 C 0.4744 0.0058 0.59317 0.0
C166 C 0.77774 0.26905 0.64304 0.0
C167 C 0.75124 0.22603 0.6364 0.0
C168 C 0.71056 0.20456 0.61428 0.0
C169 C 0.6874 0.16217 0.61536 0.0
C170 C 0.64974 0.138 0.60737 0.0
C171 C 0.6344 0.15688 0.59847 0.0
C172 C 0.65781 0.19982 0.59748 0.0
C173 C 0.6962 0.22293 0.60512 0.0
C174 C 0.62644 0.09235 0.60848 0.0
C175 C 0.64215 0.22161 0.58857 0.0
C176 C 0.6936 0.14528 0.51403 0.0
C177 C 0.66544 0.10444 0.51685 0.0
C178 C 0.62645 0.09237 0.52161 0.0
C179 C 0.61542 0.12173 0.52345 0.0
C180 C 0.64231 0.16212 0.51944 0.0
C181 C 0.68112 0.17333 0.51468 0.0
C182 C 0.59789 0.04874 0.52538 0.0
C183 C 0.63109 0.19392 0.521 0.0
C184 C 0.28285 0.99349 0.51694 0.0
C185 C 0.31703 0.03134 0.51024 0.0
C186 C 0.38487 0.03889 0.51056 0.0
C187 C 0.40034 0.01333 0.51204 0.0
C188 C 0.43989 0.02773 0.51854 0.0
C189 C 0.46472 0.06896 0.52336 0.0
C190 C 0.4502 0.09559 0.52106 0.0
C191 C 0.41034 0.08024 0.51468 0.0
C192 C 0.45464 0.99867 0.52067 0.0
C193 C 0.47645 0.14005 0.52561 0.0
C194 C 0.51822 0.09475 0.59078 0.0
C195 C 0.55763 0.11562 0.59778 0.0
C196 C 0.59357 0.1321 0.59046 0.0
C197 C 0.59014 0.12621 0.57576 0.0
C198 C 0.62529 0.13863 0.56818 0.0
C199 C 0.6217 0.13352 0.5537 0.0
C200 C 0.58287 0.11636 0.5462 0.0
C201 C 0.57902 0.11159 0.53145 0.0
C202 C 0.54029 0.096 0.52427 0.0
C203 C 0.50476 0.08379 0.53152 0.0
C204 C 0.50769 0.08635 0.54633 0.0
C205 C 0.47231 0.07232 0.55399 0.0
C206 C 0.4756 0.0749 0.56855 0.0
C207 C 0.51444 0.09221 0.57599 0.0
C208 C 0.55053 0.10731 0.56848 0.0
C209 C 0.54702 0.10338 0.55365 0.0
C210 C 0.79255 0.18151 0.52649 0.0
C211 C 0.75841 0.14652 0.51704 0.0
O212 O 0.38822 0.01494 0.62703 0.0
O213 O 0.34531 0.02284 0.50516 0.0
O214 O 0.73304 0.15865 0.51083 0.0
O215 O 0.74659 0.22845 0.62209 0.0
H216 H 0.41989 0.05852 0.64301 0.0
H217 H 0.41675 0.99526 0.64925 0.0
H218 H 0.36084 0.96807 0.64886 0.0
H219 H 0.39197 0.00917 0.66172 0.0
H220 H 0.42746 0.09385 0.62203 0.0
H221 H 0.41319 0.97942 0.61103 0.0
H222 H 0.52067 0.15773 0.61072 0.0
H223 H 0.47112 0.15359 0.61004 0.0
H224 H 0.49242 0.14915 0.59417 0.0
H225 H 0.45903 0.97419 0.59683 0.0
H226 H 0.50855 0.02 0.59462 0.0
H227 H 0.46626 0.0043 0.58181 0.0
H228 H 0.72035 0.21192 0.64093 0.0
H229 H 0.78171 0.26781 0.65456 0.0
H230 H 0.76219 0.2862 0.64088 0.0
H231 H 0.8088 0.28575 0.63871 0.0
H232 H 0.69899 0.14796 0.62232 0.0
H233 H 0.71448 0.25573 0.60439 0.0
H234 H 0.61513 0.07694 0.59795 0.0
H235 H 0.59897 0.08248 0.61465 0.0
H236 H 0.64597 0.08213 0.61374 0.0
H237 H 0.65927 0.25476 0.59132 0.0
H238 H 0.60857 0.2087 0.58971 0.0
H239 H 0.64633 0.21775 0.57741 0.0
H240 H 0.74092 0.12059 0.52394 0.0
H241 H 0.67412 0.08211 0.51558 0.0
H242 H 0.70273 0.20457 0.51212 0.0
H243 H 0.59522 0.04736 0.53687 0.0
H244 H 0.60925 0.02885 0.52214 0.0
H245 H 0.56633 0.03661 0.52035 0.0
H246 H 0.65316 0.22266 0.51603 0.0
H247 H 0.6312 0.20075 0.53229 0.0
H248 H 0.59927 0.18218 0.51628 0.0
H249 H 0.33196 0.05572 0.51868 0.0
H250 H 0.25961 0.99952 0.52098 0.0
H251 H 0.29661 0.98532 0.52585 0.0
H252 H 0.26693 0.96716 0.50927 0.0
H253 H 0.38066 0.98163 0.50856 0.0
H254 H 0.39905 0.10048 0.51296 0.0
H255 H 0.4618 0.99765 0.53198 0.0
H256 H 0.48371 0.00968 0.51531 0.0
H257 H 0.43125 0.96732 0.51657 0.0
H258 H 0.46268 0.15761 0.52169 0.0
H259 H 0.50806 0.15373 0.52182 0.0
H260 H 0.47973 0.14302 0.53721 0.0
H261 H 0.56034 0.11888 0.6091 0.0
H262 H 0.65597 0.1522 0.57337 0.0
H263 H 0.64993 0.14365 0.54847 0.0
H264 H 0.53775 0.09318 0.51294 0.0
H265 H 0.4416 0.05883 0.54883 0.0
H266 H 0.44737 0.06353 0.57392 0.0
H267 H 0.81363 0.17262 0.5314 0.0
H268 H 0.77837 0.18896 0.53495 0.0
H269 H 0.81099 0.20925 0.52048 0.0
C270 C 0.71974 0.60784 0.81414 0.0
C271 C 0.70924 0.63667 0.82114 0.0
C272 C 0.6784 0.62386 0.84348 0.0
C273 C 0.65744 0.64468 0.84225 0.0
C274 C 0.62344 0.63409 0.85023 0.0
C275 C 0.60972 0.60141 0.85936 0.0
C276 C 0.63126 0.58068 0.86067 0.0
C277 C 0.66606 0.59299 0.85295 0.0
C278 C 0.60192 0.65747 0.84877 0.0
C279 C 0.61699 0.54476 0.86989 0.0
C280 C 0.27762 0.41377 0.85327 0.0
C281 C 0.30693 0.41023 0.84378 0.0
C282 C 0.37588 0.47184 0.84453 0.0
C283 C 0.40013 0.45517 0.84798 0.0
C284 C 0.44018 0.47948 0.85445 0.0
C285 C 0.45646 0.52137 0.85728 0.0
C286 C 0.43321 0.53877 0.85291 0.0
C287 C 0.39317 0.51369 0.84651 0.0
C288 C 0.46458 0.46018 0.85868 0.0
C289 C 0.45006 0.58351 0.85551 0.0
C290 C 0.38181 0.48083 0.94116 0.0
C291 C 0.40683 0.46536 0.93814 0.0
C292 C 0.44712 0.49113 0.93388 0.0
C293 C 0.46242 0.53307 0.93248 0.0
C294 C 0.43838 0.54915 0.93649 0.0
C295 C 0.39841 0.52274 0.94092 0.0
C296 C 0.47252 0.47318 0.93018 0.0
C297 C 0.45398 0.59376 0.93529 0.0
C298 C 0.79423 0.72991 0.9418 0.0
C299 C 0.76433 0.74013 0.94802 0.0
C300 C 0.69378 0.68192 0.94815 0.0
C301 C 0.67586 0.63977 0.94743 0.0
C302 C 0.63667 0.61409 0.94051 0.0
C303 C 0.6147 0.63116 0.93449 0.0
C304 C 0.63163 0.67361 0.936 0.0
C305 C 0.67113 0.6986 0.94279 0.0
C306 C 0.61936 0.56893 0.93921 0.0
C307 C 0.60841 0.69265 0.93014 0.0
C308 C 0.57156 0.58724 0.86692 0.0
C309 C 0.53328 0.56424 0.85927 0.0
C310 C 0.49608 0.54611 0.86589 0.0
C311 C 0.49682 0.55017 0.88059 0.0
C312 C 0.46002 0.53055 0.88764 0.0
C313 C 0.46112 0.53348 0.90213 0.0
C314 C 0.49903 0.5565 0.91015 0.0
C315 C 0.50047 0.55841 0.92493 0.0
C316 C 0.5384 0.58301 0.93259 0.0
C317 C 0.57537 0.60512 0.92585 0.0
C318 C 0.57473 0.60197 0.91109 0.0
C319 C 0.61149 0.62222 0.90399 0.0
C320 C 0.61053 0.61798 0.88951 0.0
C321 C 0.5728 0.5934 0.88156 0.0
C322 C 0.53531 0.574 0.88844 0.0
C323 C 0.53635 0.5777 0.90323 0.0
C324 C 0.27203 0.40811 0.93578 0.0
C325 C 0.31532 0.41591 0.93949 0.0
O326 O 0.71018 0.63249 0.83547 0.0
O327 O 0.73299 0.70582 0.95399 0.0
O328 O 0.34144 0.45628 0.94404 0.0
O329 O 0.33584 0.44846 0.83933 0.0
H330 H 0.67733 0.62733 0.81698 0.0
H331 H 0.69675 0.57593 0.81664 0.0
H332 H 0.75118 0.61514 0.81792 0.0
H333 H 0.71866 0.61021 0.8026 0.0
H334 H 0.66775 0.6692 0.83507 0.0
H335 H 0.68273 0.57734 0.85382 0.0
H336 H 0.57135 0.63812 0.84293 0.0
H337 H 0.62026 0.68588 0.84307 0.0
H338 H 0.59622 0.66539 0.85923 0.0
H339 H 0.63246 0.52777 0.8678 0.0
H340 H 0.58288 0.52342 0.86832 0.0
H341 H 0.62429 0.55562 0.88102 0.0
H342 H 0.32192 0.39744 0.8504 0.0
H343 H 0.25204 0.38307 0.85595 0.0
H344 H 0.26432 0.43051 0.84824 0.0
H345 H 0.29512 0.43086 0.86314 0.0
H346 H 0.3878 0.42317 0.84573 0.0
H347 H 0.37454 0.52642 0.84351 0.0
H348 H 0.47085 0.4633 0.87021 0.0
H349 H 0.49502 0.47625 0.85393 0.0
H350 H 0.44795 0.42737 0.85543 0.0
H351 H 0.42991 0.59308 0.85031 0.0
H352 H 0.48169 0.60191 0.85169 0.0
H353 H 0.45265 0.59026 0.86693 0.0
H354 H 0.32611 0.4098 0.9297 0.0
H355 H 0.39476 0.43311 0.93885 0.0
H356 H 0.3791 0.53446 0.94355 0.0
H357 H 0.47342 0.47177 0.91864 0.0
H358 H 0.45933 0.44193 0.93399 0.0
H359 H 0.50497 0.49275 0.93466 0.0
H360 H 0.43243 0.60188 0.93949 0.0
H361 H 0.45796 0.6017 0.92414 0.0
H362 H 0.48484 0.61244 0.94104 0.0
H363 H 0.75151 0.74971 0.93921 0.0
H364 H 0.81976 0.75711 0.93704 0.0
H365 H 0.77735 0.7054 0.93352 0.0
H366 H 0.80773 0.7192 0.94997 0.0
H367 H 0.69341 0.62722 0.95184 0.0
H368 H 0.68441 0.73116 0.94387 0.0
H369 H 0.61339 0.55883 0.92799 0.0
H370 H 0.58923 0.55217 0.94413 0.0
H371 H 0.64068 0.56053 0.94424 0.0
H372 H 0.62355 0.7252 0.93357 0.0
H373 H 0.57606 0.67583 0.93342 0.0
H374 H 0.60683 0.69054 0.91855 0.0
H375 H 0.53245 0.55955 0.84805 0.0
H376 H 0.42991 0.51219 0.88207 0.0
H377 H 0.43174 0.51736 0.90693 0.0
H378 H 0.53921 0.58466 0.94392 0.0
H379 H 0.64151 0.64119 0.90955 0.0
H380 H 0.63977 0.63404 0.88461 0.0
H381 H 0.2594 0.41422 0.94505 0.0
H382 H 0.25055 0.37604 0.93192 0.0
H383 H 0.27361 0.42843 0.92739 0.0
C384 C 0.04519 0.14496 0.1023 0.0
C385 C 0.05057 0.16203 0.0891 0.0
C386 C 0.03625 0.16167 0.11359 0.0
C387 C 0.01338 0.24223 0.12322 0.0
H388 H 0.08517 0.25814 0.15605 0.0
C389 C 0.09954 0.38726 0.15889 0.0
C390 C 0.10041 0.38317 0.17345 0.0
C391 C 0.08019 0.35283 0.14982 0.0
C392 C 0.06433 0.25338 0.14707 0.0
H393 H 0.04689 0.20764 0.07717 0.0
H394 H 0.03304 0.23735 0.0967 0.0
H395 H 0.07324 0.2085 0.13779 0.0
H396 H 0.08147 0.33991 0.18987 0.0
H397 H 0.04873 0.27959 0.17393 0.0
H398 H 0.00764 0.28992 0.13217 0.0
C399 C 0.03499 0.2108 0.09846 0.0
C400 C 0.05722 0.22469 0.13659 0.0
C401 C 0.04341 0.19388 0.0872 0.0
C402 C 0.0809 0.34387 0.17871 0.0
C403 C 0.06226 0.30946 0.16962 0.0
C404 C 0.02119 0.27149 0.13359 0.0
C405 C 0.03289 0.196 0.11194 0.0
C406 C 0.03286 0.21976 0.12428 0.0
C407 C 0.06222 0.3137 0.1551 0.0
C408 C 0.04774 0.27813 0.1454 0.0
H409 H 0.04993 0.12006 0.1041 0.0
H410 H 0.03378 0.14876 0.12373 0.0
H411 H 0.99353 0.23855 0.11408 0.0
H412 H 0.1148 0.41701 0.15445 0.0
H413 H 0.08114 0.35689 0.13865 0.0
C414 C 0.93202 0.10364 0.42141 0.0
C415 C 0.93008 0.06666 0.41939 0.0
C416 C 0.91436 0.10996 0.43277 0.0
C417 C 0.83586 0.05642 0.45831 0.0
H418 H 0.8929 0.16343 0.47699 0.0
C419 C 0.77544 0.09731 0.50639 0.0
C420 C 0.77704 0.13441 0.50589 0.0
C421 C 0.79424 0.08695 0.49639 0.0
C422 C 0.8765 0.13347 0.47182 0.0
H423 H 0.90782 0.00709 0.42767 0.0
H424 H 0.87706 0.01833 0.44772 0.0
H425 H 0.9265 0.14883 0.4589 0.0
H426 H 0.79917 0.18959 0.49452 0.0
H427 H 0.83213 0.17162 0.47707 0.0
H428 H 0.78575 0.04128 0.47129 0.0
C429 C 0.89212 0.04232 0.44041 0.0
C430 C 0.89571 0.12509 0.46146 0.0
C431 C 0.90986 0.03595 0.42897 0.0
C432 C 0.79755 0.16084 0.49515 0.0
C433 C 0.81657 0.15064 0.48524 0.0
C434 C 0.81667 0.06478 0.46876 0.0
C435 C 0.89432 0.0795 0.44243 0.0
C436 C 0.8753 0.08676 0.45437 0.0
C437 C 0.81536 0.11373 0.4858 0.0
C438 C 0.83652 0.10366 0.47541 0.0
H439 H 0.94669 0.12769 0.4141 0.0
H440 H 0.91578 0.13858 0.43382 0.0
H441 H 0.81918 0.0267 0.45297 0.0
H442 H 0.75998 0.07648 0.5146 0.0
H443 H 0.79304 0.05843 0.49713 0.0
C444 C 0.93721 0.95694 0.7655 0.0
C445 C 0.95925 0.94819 0.75628 0.0
C446 C 0.91686 0.93089 0.77623 0.0
C447 C 0.90112 0.83838 0.79412 0.0
H448 H 0.79005 0.81714 0.79698 0.0
C449 C 0.77941 0.70283 0.82438 0.0
C450 C 0.73968 0.68007 0.81747 0.0
C451 C 0.8089 0.74117 0.8198 0.0
C452 C 0.82094 0.82262 0.79631 0.0
H453 H 0.9796 0.90689 0.75151 0.0
H454 H 0.9428 0.86042 0.76983 0.0
H455 H 0.83905 0.874 0.78382 0.0
H456 H 0.69977 0.67935 0.80037 0.0
H457 H 0.75109 0.74565 0.79222 0.0
H458 H 0.88177 0.78505 0.80579 0.0
C459 C 0.9418 0.88779 0.76907 0.0
C460 C 0.8494 0.85573 0.78892 0.0
C461 C 0.96278 0.91432 0.75849 0.0
C462 C 0.72989 0.69657 0.80604 0.0
C463 C 0.75932 0.7347 0.80142 0.0
C464 C 0.87244 0.80494 0.8014 0.0
C465 C 0.91746 0.89506 0.7778 0.0
C466 C 0.88956 0.86347 0.78741 0.0
C467 C 0.79939 0.75729 0.80812 0.0
C468 C 0.83162 0.796 0.80223 0.0
H469 H 0.93495 0.98347 0.76429 0.0
H470 H 0.89956 0.93821 0.78301 0.0
H471 H 0.93198 0.84383 0.79341 0.0
H472 H 0.78796 0.69055 0.8331 0.0
H473 H 0.83932 0.75787 0.82526 0.0
C474 C 0.11988 0.97232 0.08756 0.0
C475 C 0.10078 0.99508 0.08782 0.0
C476 C 0.10811 0.94 0.09645 0.0
C477 C 0.05867 0.90188 0.12961 0.0
H478 H 0.04583 0.80007 0.11701 0.0
C479 C 0.02645 0.77679 0.16801 0.0
C480 C 0.99522 0.73692 0.16363 0.0
C481 C 0.04254 0.80779 0.15848 0.0
C482 C 0.04919 0.82829 0.12067 0.0
H483 H 0.05359 0.00103 0.09739 0.0
H484 H 0.03291 0.9446 0.11275 0.0
H485 H 0.06595 0.85469 0.10067 0.0
H486 H 0.95659 0.69805 0.14585 0.0
H487 H 0.98443 0.75229 0.12916 0.0
H488 H 0.04096 0.87537 0.14947 0.0
C489 C 0.05745 0.95211 0.10585 0.0
C490 C 0.06107 0.85969 0.11135 0.0
C491 C 0.06915 0.98433 0.09697 0.0
C492 C 0.981 0.72846 0.14945 0.0
C493 C 0.99704 0.75949 0.13991 0.0
C494 C 0.0469 0.8706 0.13891 0.0
C495 C 0.07707 0.92984 0.1058 0.0
C496 C 0.0656 0.89671 0.1157 0.0
C497 C 0.0275 0.79966 0.14437 0.0
C498 C 0.0418 0.83336 0.13454 0.0
H499 H 0.14434 0.9798 0.08063 0.0
H500 H 0.12401 0.9236 0.09623 0.0
H501 H 0.06244 0.93021 0.13335 0.0
H502 H 0.03783 0.78417 0.17889 0.0
H503 H 0.06641 0.83828 0.16221 0.0
C504 C 0.12216 0.12928 0.43105 0.0
C505 C 0.09824 0.09988 0.42027 0.0
C506 C 0.15014 0.12535 0.43989 0.0
C507 C 0.20852 0.0736 0.44353 0.0
H508 H 0.20443 0.09004 0.48323 0.0
C509 C 0.28127 0.0203 0.48608 0.0
C510 C 0.29865 0.04424 0.49854 0.0
C511 C 0.26071 0.03017 0.47587 0.0
C512 C 0.20659 0.086 0.47218 0.0
H513 H 0.08611 0.04391 0.4101 0.0
H514 H 0.13492 0.0371 0.42558 0.0
H515 H 0.16181 0.10186 0.46656 0.0
H516 H 0.30925 0.0979 0.5099 0.0
H517 H 0.27433 0.11579 0.49196 0.0
H518 H 0.25321 0.05753 0.44919 0.0
C519 C 0.1321 0.06329 0.42712 0.0
C520 C 0.18204 0.09272 0.46262 0.0
C521 C 0.10395 0.06711 0.4183 0.0
C522 C 0.29613 0.0789 0.5004 0.0
C523 C 0.27581 0.08892 0.49017 0.0
C524 C 0.23328 0.06705 0.45312 0.0
C525 C 0.15503 0.09204 0.43815 0.0
C526 C 0.18253 0.08638 0.44819 0.0
C527 C 0.25717 0.06427 0.47788 0.0
C528 C 0.23242 0.07294 0.46757 0.0
H529 H 0.11878 0.15503 0.43285 0.0
H530 H 0.1678 0.14831 0.44817 0.0
H531 H 0.2099 0.06889 0.43247 0.0
H532 H 0.2826 0.99329 0.48442 0.0
H533 H 0.24634 0.01023 0.46662 0.0
C534 C 0.10315 0.13443 0.7542 0.0
C535 C 0.06285 0.12743 0.75282 0.0
C536 C 0.13479 0.16834 0.76203 0.0
C537 C 0.16853 0.27006 0.77598 0.0
H538 H 0.2175 0.245 0.80772 0.0
C539 C 0.25325 0.38319 0.82305 0.0
C540 C 0.28409 0.38147 0.8312 0.0
C541 C 0.23104 0.35497 0.81195 0.0
C542 C 0.20507 0.25294 0.79875 0.0
H543 H 0.02458 0.15139 0.75794 0.0
H544 H 0.08021 0.21119 0.77131 0.0
H545 H 0.17086 0.19124 0.79058 0.0
H546 H 0.31898 0.3518 0.8331 0.0
H547 H 0.28155 0.30366 0.81338 0.0
H548 H 0.20293 0.33179 0.78393 0.0
C549 C 0.0871 0.1902 0.76646 0.0
C550 C 0.17815 0.22197 0.78897 0.0
C551 C 0.05527 0.15589 0.7589 0.0
C552 C 0.29441 0.35296 0.8273 0.0
C553 C 0.27275 0.32523 0.81603 0.0
C554 C 0.19611 0.30127 0.78561 0.0
C555 C 0.12689 0.19628 0.76833 0.0
C556 C 0.159 0.2301 0.77767 0.0
C557 C 0.24001 0.32514 0.80841 0.0
C558 C 0.21405 0.29297 0.79732 0.0
H559 H 0.10986 0.11294 0.74967 0.0
H560 H 0.16531 0.17249 0.76333 0.0
H561 H 0.15432 0.27706 0.76726 0.0
H562 H 0.24549 0.40569 0.82542 0.0
H563 H 0.206 0.35594 0.80643 0.0
C564 C 0.88497 0.05843 0.70139 0.0
C565 C 0.92446 0.06419 0.70033 0.0
C566 C 0.86814 0.07164 0.69108 0.0
C567 C 0.89546 0.14761 0.66522 0.0
H568 H 0.77828 0.07999 0.65365 0.0
C569 C 0.80783 0.21039 0.63396 0.0
C570 C 0.77092 0.20155 0.6398 0.0
C571 C 0.82766 0.18993 0.63817 0.0
C572 C 0.81106 0.09922 0.65674 0.0
H573 H 0.97727 0.08836 0.68753 0.0
H574 H 0.94786 0.11252 0.66948 0.0
H575 H 0.81224 0.05082 0.66694 0.0
H576 H 0.72544 0.16401 0.65439 0.0
H577 H 0.75978 0.12833 0.66172 0.0
H578 H 0.89378 0.19655 0.65561 0.0
C579 C 0.93003 0.09734 0.67834 0.0
C580 C 0.8305 0.0825 0.66431 0.0
C581 C 0.94677 0.0835 0.68863 0.0
C582 C 0.75368 0.17122 0.64964 0.0
C583 C 0.77325 0.15062 0.65377 0.0
C584 C 0.87595 0.16442 0.65765 0.0
C585 C 0.89043 0.09131 0.67946 0.0
C586 C 0.87247 0.10691 0.66908 0.0
C587 C 0.81075 0.1601 0.64823 0.0
C588 C 0.83316 0.14073 0.65381 0.0
H589 H 0.86677 0.04349 0.7102 0.0
H590 H 0.83787 0.06719 0.69235 0.0
H591 H 0.92782 0.16713 0.66882 0.0
H592 H 0.82177 0.23375 0.62637 0.0
H593 H 0.85642 0.19774 0.63369 0.0
C594 C 2e-05 0.00472 0.03591 0.0
C595 C 0.01321 0.04499 0.0326 0.0
C596 C 0.96945 0.97191 0.0274 0.0
C597 C 0.92336 0.94675 0.9913 0.0
H598 H 0.83818 0.84651 0.00666 0.0
C599 C 0.79693 0.81411 0.95564 0.0
C600 C 0.78723 0.77481 0.95886 0.0
C601 C 0.82112 0.84701 0.96513 0.0
C602 C 0.86198 0.87418 0.00221 0.0
H603 H 0.00362 0.08213 0.01791 0.0
H604 H 0.95021 0.02487 0.00314 0.0
H605 H 0.88664 0.90423 0.02239 0.0
H606 H 0.79504 0.73902 0.97456 0.0
H607 H 0.83783 0.79657 0.99111 0.0
H608 H 0.89939 0.91669 0.97118 0.0
C609 C 0.96392 0.01876 0.01223 0.0
C610 C 0.88971 0.90725 0.01122 0.0
C611 C 0.99441 0.05157 0.02075 0.0
C612 C 0.80172 0.76896 0.97188 0.0
C613 C 0.82607 0.8019 0.98136 0.0
C614 C 0.89575 0.91371 0.98231 0.0
C615 C 0.95141 0.97858 0.01538 0.0
C616 C 0.92083 0.94385 0.00586 0.0
C617 C 0.83652 0.84143 0.97802 0.0
C618 C 0.86482 0.87695 0.98765 0.0
H619 H 0.01376 0.99845 0.04495 0.0
H620 H 0.96081 0.94136 0.03004 0.0
H621 H 0.94741 0.97425 0.98684 0.0
H622 H 0.78632 0.81954 0.94566 0.0
H623 H 0.82804 0.87691 0.9623 0.0
C624 C 0.0047 0.9523 0.36073 0.0
C625 C 0.98856 0.94486 0.37399 0.0
C626 C 0.00576 0.92188 0.35314 0.0
C627 C 0.00015 0.82388 0.35697 0.0
H628 H 0.96937 0.80935 0.31717 0.0
C629 C 0.00788 0.70505 0.3229 0.0
C630 C 0.97432 0.68167 0.3131 0.0
C631 C 0.01258 0.73945 0.32971 0.0
C632 C 0.97786 0.81288 0.32829 0.0
H633 H 0.9613 0.89971 0.38975 0.0
H634 H 0.9626 0.84652 0.37645 0.0
H635 H 0.97144 0.86434 0.33056 0.0
H636 H 0.91939 0.67592 0.3027 0.0
H637 H 0.92722 0.73581 0.3147 0.0
H638 H 0.00519 0.77163 0.35482 0.0
C639 C 0.97501 0.87606 0.37198 0.0
C640 C 0.97953 0.84471 0.33593 0.0
C641 C 0.97404 0.90651 0.37958 0.0
C642 C 0.94581 0.6937 0.3101 0.0
C643 C 0.95042 0.72806 0.31694 0.0
C644 C 0.99841 0.79204 0.34933 0.0
C645 C 0.99065 0.88329 0.35863 0.0
C646 C 0.99042 0.85042 0.35039 0.0
C647 C 0.9836 0.75106 0.32696 0.0
C648 C 0.98701 0.78599 0.33492 0.0
H649 H 0.01634 0.9816 0.35614 0.0
H650 H 0.01858 0.92867 0.34298 0.0
H651 H 0.00914 0.82769 0.36805 0.0
H652 H 0.03018 0.69634 0.32547 0.0
H653 H 0.0388 0.75679 0.33721 0.0
C654 C 0.07071 0.00253 0.67498 0.0
C655 C 0.07874 0.02551 0.68748 0.0
C656 C 0.10338 0.00692 0.66753 0.0
C657 C 0.21613 0.07318 0.66336 0.0
H658 H 0.20793 0.9716 0.65357 0.0
C659 C 0.35861 0.06356 0.65253 0.0
C660 C 0.354 0.034 0.64274 0.0
C661 C 0.3244 0.06557 0.65591 0.0
C662 C 0.21053 0.00031 0.65594 0.0
H663 H 0.12737 0.07261 0.70157 0.0
H664 H 0.18436 0.08018 0.68857 0.0
H665 H 0.14916 0.9703 0.66303 0.0
H666 H 0.30987 0.9833 0.6288 0.0
H667 H 0.25031 0.98759 0.63432 0.0
H668 H 0.27777 0.1032 0.65642 0.0
C669 C 0.15279 0.05885 0.68452 0.0
C670 C 0.17678 0.99953 0.6614 0.0
C671 C 0.12012 0.05434 0.69201 0.0
C672 C 0.31451 0.00684 0.63622 0.0
C673 C 0.28033 0.00904 0.63951 0.0
C674 C 0.24986 0.07399 0.6578 0.0
C675 C 0.14478 0.03455 0.67237 0.0
C676 C 0.17942 0.03591 0.66538 0.0
C677 C 0.28469 0.03795 0.64959 0.0
C678 C 0.24771 0.03752 0.65424 0.0
H679 H 0.0392 0.98024 0.67114 0.0
H680 H 0.09626 0.98817 0.6581 0.0
H681 H 0.21887 0.10172 0.66618 0.0
H682 H 0.38856 0.08433 0.6579 0.0
H683 H 0.32886 0.08772 0.6639 0.0
C684 C 0.20395 0.15396 0.0266 0.0
C685 C 0.19287 0.17103 0.03722 0.0
C686 C 0.22655 0.17778 0.01561 0.0
C687 C 0.29479 0.28448 0.00617 0.0
H688 H 0.24311 0.24901 0.96863 0.0
C689 C 0.3115 0.39638 0.96477 0.0
C690 C 0.31323 0.38762 0.95066 0.0
C691 C 0.30561 0.36844 0.9749 0.0
C692 C 0.25858 0.2591 0.97898 0.0
H693 H 0.19792 0.22644 0.04499 0.0
H694 H 0.23747 0.26765 0.02612 0.0
H695 H 0.21735 0.20112 0.98745 0.0
H696 H 0.30989 0.34277 0.93608 0.0
H697 H 0.29969 0.29373 0.95385 0.0
H698 H 0.3349 0.34282 0.9979 0.0
C699 C 0.22878 0.2361 0.02617 0.0
C700 C 0.24383 0.23162 0.98974 0.0
C701 C 0.20575 0.21233 0.03691 0.0
C702 C 0.3092 0.35043 0.94691 0.0
C703 C 0.30314 0.32234 0.95706 0.0
C704 C 0.30961 0.31183 0.99543 0.0
C705 C 0.23916 0.21911 0.01535 0.0
C706 C 0.26072 0.2446 0.00353 0.0
C707 C 0.30088 0.33089 0.97115 0.0
C708 C 0.29056 0.29994 0.98184 0.0
H709 H 0.19431 0.12216 0.02661 0.0
H710 H 0.23409 0.164 0.00734 0.0
H711 H 0.3087 0.29506 0.01669 0.0
H712 H 0.31364 0.42443 0.96791 0.0
H713 H 0.3031 0.37563 0.9856 0.0
C714 C 0.08136 0.20981 0.36072 0.0
C715 C 0.06698 0.16806 0.36074 0.0
C716 C 0.09186 0.2306 0.34833 0.0
C717 C 0.06263 0.20803 0.31086 0.0
H718 H 0.13472 0.32517 0.30955 0.0
C719 C 0.00761 0.29576 0.26886 0.0
C720 C 0.04756 0.35068 0.26777 0.0
C721 C 0.02229 0.26851 0.28045 0.0
C722 C 0.11502 0.29235 0.30955 0.0
H723 H 0.05641 0.11645 0.34795 0.0
H724 H 0.07569 0.15307 0.32634 0.0
H725 H 0.14166 0.29039 0.32953 0.0
H726 H 0.12726 0.40318 0.26972 0.0
H727 H 0.14731 0.35505 0.28751 0.0
H728 H 0.03608 0.20992 0.29093 0.0
C729 C 0.07763 0.16941 0.33587 0.0
C730 C 0.11865 0.27242 0.32112 0.0
C731 C 0.06681 0.14847 0.34828 0.0
C732 C 0.10405 0.37197 0.2717 0.0
C733 C 0.11578 0.34228 0.28324 0.0
C734 C 0.05929 0.22791 0.29926 0.0
C735 C 0.08863 0.21029 0.33564 0.0
C736 C 0.09131 0.23023 0.32219 0.0
C737 C 0.07513 0.29204 0.28792 0.0
C738 C 0.08424 0.27043 0.29876 0.0
H739 H 0.08223 0.22605 0.37012 0.0
H740 H 0.0998 0.26191 0.3486 0.0
H741 H 0.04089 0.17555 0.31128 0.0
H742 H 0.97539 0.28351 0.26553 0.0
H743 H 0.9986 0.23844 0.28335 0.0
loop_
_geom_bond_atom_site_label_1
_geom_bond_atom_site_label_2
_geom_bond_distance
_geom_bond_site_symmetry_2
_ccdc_geom_bond_type
Mg0 O1 2.028 . S
Mg0 O7 1.986 . S
Mg0 O9 2.114 . S
Mg0 O10 2.251 . S
Mg0 O13 2.010 . S
O1 Mg0 2.028 . S
O1 C4 1.250 . S
O2 Mg3 2.028 . S
O2 C4 1.248 . S
Mg3 O2 2.028 . S
Mg3 O8 2.032 . S
Mg3 O10 2.079 . S
C4 O1 1.250 . S
C4 O2 1.248 . S
C5 O6 1.264 . S
C5 O13 1.249 . S
O6 C5 1.264 . S
O7 Mg0 1.986 . S
O7 C11 1.246 . S
O8 Mg3 2.032 . S
O8 C11 1.259 . S
O9 Mg0 2.114 . S
O9 C12 1.252 . S
O10 Mg0 2.251 . S
O10 Mg3 2.079 . S
O10 C12 1.273 . S
C11 O7 1.246 . S
C11 O8 1.259 . S
C12 O9 1.252 . S
C12 O10 1.273 . S
O13 Mg0 2.010 . S
O13 C5 1.249 . S
Mg14 O15 2.028 1_655 S
Mg14 O21 1.986 1_655 S
Mg14 O23 2.114 . S
Mg14 O24 2.251 . S
Mg14 O27 1.996 1_545 S
O15 Mg14 2.028 1_455 S
O15 C18 1.250 . S
O16 Mg17 2.028 . S
O16 C18 1.248 . S
Mg17 O16 2.028 . S
Mg17 O22 2.032 . S
Mg17 O24 2.079 1_455 S
C18 O15 1.250 . S
C18 O16 1.248 . S
C19 O20 1.264 . S
C19 O27 1.266 . S
O20 C19 1.264 . S
O21 Mg14 1.986 1_455 S
O21 C25 1.246 . S
O22 Mg17 2.032 . S
O22 C25 1.259 . S
O23 Mg14 2.114 . S
O23 C26 1.252 . S
O24 Mg14 2.251 . S
O24 Mg17 2.079 1_655 S
O24 C26 1.273 . S
C25 O21 1.246 . S
C25 O22 1.259 . S
C26 O23 1.252 . S
C26 O24 1.273 . S
O27 Mg14 1.996 1_565 S
O27 C19 1.266 . S
Mg28 O29 2.028 . S
Mg28 O35 1.987 . S
Mg28 O37 2.114 1_545 S
Mg28 O38 2.251 1_455 S
Mg28 O41 2.010 . S
O29 Mg28 2.028 . S
O29 C32 1.250 . S
O30 Mg31 2.028 1_455 S
O30 C32 1.248 . S
Mg31 O30 2.028 1_655 S
Mg31 O36 2.032 . S
Mg31 O38 2.079 . S
C32 O29 1.250 . S
C32 O30 1.248 . S
C33 O34 1.264 1_545 S
C33 O41 1.249 . S
O34 C33 1.264 1_565 S
O35 Mg28 1.987 . S
O35 C39 1.245 1_455 S
O36 Mg31 2.032 . S
O36 C39 1.259 . S
O37 Mg28 2.114 1_565 S
O37 C40 1.252 1_455 S
O38 Mg28 2.251 1_655 S
O38 Mg31 2.079 . S
O38 C40 1.273 1_545 S
C39 O35 1.245 1_655 S
C39 O36 1.259 . S
C40 O37 1.252 1_655 S
C40 O38 1.273 1_565 S
O41 Mg28 2.010 . S
O41 C33 1.249 . S
C42 C43 1.560 1_655 S
C42 H103 0.959 . S
C42 H104 0.959 . S
C42 H105 0.960 . S
C43 C42 1.560 1_455 S
C43 O98 1.426 1_455 S
C43 H102 0.980 . S
C44 C45 1.407 . S
C44 C49 1.418 1_455 S
C44 O98 1.334 1_455 S
C45 C44 1.407 . S
C45 C46 1.360 . S
C45 H106 0.929 . S
C46 C45 1.360 . S
C46 C47 1.401 . S
C46 C50 1.527 . S
C47 C46 1.401 . S
C47 C48 1.405 1_455 S
C47 C80 1.587 . S
C48 C47 1.405 1_655 S
C48 C49 1.332 . S
C48 C51 1.496 . S
C49 C44 1.418 1_655 S
C49 C48 1.332 . S
C49 H107 0.929 . S
C50 C46 1.527 . S
C50 H108 0.959 . S
C50 H109 0.961 . S
C50 H110 0.961 . S
C51 C48 1.496 . S
C51 H111 0.960 . S
C51 H112 0.960 . S
C51 H113 0.961 . S
C52 C53 1.517 . S
C52 H115 0.961 . S
C52 H116 0.960 . S
C52 H117 0.959 . S
C53 C52 1.517 . S
C53 O101 1.468 . S
C53 H114 0.980 . S
C54 C55 1.349 . S
C54 C59 1.367 . S
C54 O101 1.408 . S
C55 C54 1.349 . S
C55 C56 1.407 . S
C55 H118 0.930 . S
C56 C55 1.407 . S
C56 C57 1.449 . S
C56 C60 1.535 1_455 S
C57 C56 1.449 . S
C57 C58 1.384 . S
C57 C82 1.553 . S
C58 C57 1.384 . S
C58 C59 1.364 . S
C58 C61 1.450 . S
C59 C54 1.367 . S
C59 C58 1.364 . S
C59 H119 0.931 . S
C60 C56 1.535 1_655 S
C60 H120 0.959 . S
C60 H121 0.961 . S
C60 H122 0.959 . S
C61 C58 1.450 . S
C61 H123 0.960 . S
C61 H124 0.960 . S
C61 H125 0.960 . S
C62 C63 1.309 . S
C62 C67 1.304 . S
C62 O100 1.435 . S
C63 C62 1.309 . S
C63 C64 1.476 . S
C63 H127 0.930 . S
C64 C63 1.476 . S
C64 C65 1.400 . S
C64 C68 1.567 1_455 S
C65 C64 1.400 . S
C65 C66 1.373 . S
C65 C87 1.432 . S
C66 C65 1.373 . S
C66 C67 1.339 . S
C66 C69 1.530 . S
C67 C62 1.304 . S
C67 C66 1.339 . S
C67 H128 0.930 . S
C68 C64 1.567 1_655 S
C68 H129 0.961 . S
C68 H130 0.960 . S
C68 H131 0.958 . S
C69 C66 1.530 . S
C69 H132 0.961 . S
C69 H133 0.960 . S
C69 H134 0.960 . S
C70 C71 1.530 . S
C70 H136 0.961 . S
C70 H137 0.961 1_455 S
C70 H138 0.959 1_455 S
C71 C70 1.530 . S
C71 O99 1.412 . S
C71 H135 0.980 . S
C72 C73 1.288 1_455 S
C72 C77 1.377 . S
C72 O99 1.393 . S
C73 C72 1.288 1_655 S
C73 C74 1.369 1_655 S
C73 H139 0.932 . S
C74 C73 1.369 1_455 S
C74 C75 1.398 . S
C74 C78 1.527 1_455 S
C75 C74 1.398 . S
C75 C76 1.380 . S
C75 C89 1.497 . S
C76 C75 1.380 . S
C76 C77 1.383 . S
C76 C79 1.603 . S
C77 C72 1.377 . S
C77 C76 1.383 . S
C77 H140 0.929 . S
C78 C74 1.527 1_655 S
C78 H141 0.961 . S
C78 H142 0.959 . S
C78 H143 0.959 . S
C79 C76 1.603 . S
C79 H144 0.960 . S
C79 H145 0.962 . S
C79 H146 0.961 . S
C80 C47 1.587 . S
C80 C81 1.360 . S
C80 C93 1.412 . S
C81 C80 1.360 . S
C81 C82 1.365 . S
C81 H147 0.929 . S
C82 C57 1.553 . S
C82 C81 1.365 . S
C82 C83 1.404 . S
C83 C82 1.404 . S
C83 C84 1.395 . S
C83 C94 1.451 . S
C84 C83 1.395 . S
C84 C85 1.322 . S
C84 H148 0.930 . S
C85 C84 1.322 . S
C85 C86 1.459 . S
C85 H149 0.929 . S
C86 C85 1.459 . S
C86 C87 1.445 . S
C86 C95 1.395 . S
C87 C65 1.432 . S
C87 C86 1.445 . S
C87 C88 1.370 . S
C88 C87 1.370 . S
C88 C89 1.438 . S
C88 H150 0.930 . S
C89 C75 1.497 . S
C89 C88 1.438 . S
C89 C90 1.360 . S
C90 C89 1.360 . S
C90 C91 1.401 . S
C90 C95 1.446 . S
C91 C90 1.401 . S
C91 C92 1.347 . S
C91 H151 0.929 . S
C92 C91 1.347 . S
C92 C93 1.455 . S
C92 H152 0.930 . S
C93 C80 1.412 . S
C93 C92 1.455 . S
C93 C94 1.331 . S
C94 C83 1.451 . S
C94 C93 1.331 . S
C94 C95 1.497 . S
C95 C86 1.395 . S
C95 C90 1.446 . S
C95 C94 1.497 . S
C96 C97 1.582 . S
C96 H153 0.962 . S
C96 H154 0.959 . S
C96 H155 0.958 . S
C97 C96 1.582 . S
C97 O100 1.458 . S
C97 H126 0.980 . S
O98 C43 1.426 1_655 S
O98 C44 1.334 1_655 S
O99 C71 1.412 . S
O99 C72 1.393 . S
O100 C62 1.435 . S
O100 C97 1.458 . S
O101 C53 1.468 . S
O101 C54 1.408 . S
H102 C43 0.980 . S
H103 C42 0.959 . S
H104 C42 0.959 . S
H105 C42 0.960 . S
H106 C45 0.929 . S
H107 C49 0.929 . S
H108 C50 0.959 . S
H109 C50 0.961 . S
H110 C50 0.961 . S
H111 C51 0.960 . S
H112 C51 0.960 . S
H113 C51 0.961 . S
H114 C53 0.980 . S
H115 C52 0.961 . S
H116 C52 0.960 . S
H117 C52 0.959 . S
H118 C55 0.930 . S
H119 C59 0.931 . S
H120 C60 0.959 . S
H121 C60 0.961 . S
H122 C60 0.959 . S
H123 C61 0.960 . S
H124 C61 0.960 . S
H125 C61 0.960 . S
H126 C97 0.980 . S
H127 C63 0.930 . S
H128 C67 0.930 . S
H129 C68 0.961 . S
H130 C68 0.960 . S
H131 C68 0.958 . S
H132 C69 0.961 . S
H133 C69 0.960 . S
H134 C69 0.960 . S
H135 C71 0.980 . S
H136 C70 0.961 . S
H137 C70 0.961 1_655 S
H138 C70 0.959 1_655 S
H139 C73 0.932 . S
H140 C77 0.929 . S
H141 C78 0.961 . S
H142 C78 0.959 . S
H143 C78 0.959 . S
H144 C79 0.960 . S
H145 C79 0.962 . S
H146 C79 0.961 . S
H147 C81 0.929 . S
H148 C84 0.930 . S
H149 C85 0.929 . S
H150 C88 0.930 . S
H151 C91 0.929 . S
H152 C92 0.930 . S
H153 C96 0.962 . S
H154 C96 0.959 . S
H155 C96 0.958 . S
C156 C157 1.560 . S
C156 H217 0.959 . S
C156 H218 0.959 . S
C156 H219 0.960 . S
C157 C156 1.560 . S
C157 O212 1.426 . S
C157 H216 0.980 . S
C158 C159 1.407 . S
C158 C163 1.418 . S
C158 O212 1.334 . S
C159 C158 1.407 . S
C159 C160 1.360 . S
C159 H220 0.929 . S
C160 C159 1.360 . S
C160 C161 1.401 . S
C160 C164 1.527 . S
C161 C160 1.401 . S
C161 C162 1.405 . S
C161 C194 1.587 . S
C162 C161 1.405 . S
C162 C163 1.332 . S
C162 C165 1.496 . S
C163 C158 1.418 . S
C163 C162 1.332 . S
C163 H221 0.929 . S
C164 C160 1.527 . S
C164 H222 0.959 . S
C164 H223 0.961 . S
C164 H224 0.961 . S
C165 C162 1.496 . S
C165 H225 0.960 1_545 S
C165 H226 0.960 . S
C165 H227 0.961 . S
C166 C167 1.517 . S
C166 H229 0.961 . S
C166 H230 0.960 . S
C166 H231 0.959 . S
C167 C166 1.517 . S
C167 O215 1.468 . S
C167 H228 0.980 . S
C168 C169 1.349 . S
C168 C173 1.367 . S
C168 O215 1.408 . S
C169 C168 1.349 . S
C169 C170 1.407 . S
C169 H232 0.930 . S
C170 C169 1.407 . S
C170 C171 1.449 . S
C170 C174 1.535 . S
C171 C170 1.449 . S
C171 C172 1.384 . S
C171 C196 1.553 . S
C172 C171 1.384 . S
C172 C173 1.364 . S
C172 C175 1.450 . S
C173 C168 1.367 . S
C173 C172 1.364 . S
C173 H233 0.931 . S
C174 C170 1.535 . S
C174 H234 0.959 . S
C174 H235 0.961 . S
C174 H236 0.959 . S
C175 C172 1.450 . S
C175 H237 0.960 . S
C175 H238 0.960 . S
C175 H239 0.960 . S
C176 C177 1.309 . S
C176 C181 1.304 . S
C176 O214 1.435 . S
C177 C176 1.309 . S
C177 C178 1.476 . S
C177 H241 0.930 . S
C178 C177 1.476 . S
C178 C179 1.400 . S
C178 C182 1.567 . S
C179 C178 1.400 . S
C179 C180 1.373 . S
C179 C201 1.432 . S
C180 C179 1.373 . S
C180 C181 1.339 . S
C180 C183 1.530 . S
C181 C176 1.304 . S
C181 C180 1.339 . S
C181 H242 0.930 . S
C182 C178 1.567 . S
C182 H243 0.961 . S
C182 H244 0.960 . S
C182 H245 0.958 . S
C183 C180 1.530 . S
C183 H246 0.961 . S
C183 H247 0.960 . S
C183 H248 0.960 . S
C184 C185 1.530 . S
C184 H250 0.961 . S
C184 H251 0.961 . S
C184 H252 0.959 . S
C185 C184 1.530 . S
C185 O213 1.412 . S
C185 H249 0.980 . S
C186 C187 1.288 . S
C186 C191 1.377 . S
C186 O213 1.393 . S
C187 C186 1.288 . S
C187 C188 1.369 . S
C187 H253 0.932 . S
C188 C187 1.369 . S
C188 C189 1.398 . S
C188 C192 1.527 . S
C189 C188 1.398 . S
C189 C190 1.380 . S
C189 C203 1.497 . S
C190 C189 1.380 . S
C190 C191 1.383 . S
C190 C193 1.603 . S
C191 C186 1.377 . S
C191 C190 1.383 . S
C191 H254 0.929 . S
C192 C188 1.527 . S
C192 H255 0.961 . S
C192 H256 0.959 . S
C192 H257 0.959 1_545 S
C193 C190 1.603 . S
C193 H258 0.960 . S
C193 H259 0.962 . S
C193 H260 0.961 . S
C194 C161 1.587 . S
C194 C195 1.360 . S
C194 C207 1.412 . S
C195 C194 1.360 . S
C195 C196 1.365 . S
C195 H261 0.929 . S
C196 C171 1.553 . S
C196 C195 1.365 . S
C196 C197 1.404 . S
C197 C196 1.404 . S
C197 C198 1.395 . S
C197 C208 1.451 . S
C198 C197 1.395 . S
C198 C199 1.322 . S
C198 H262 0.930 . S
C199 C198 1.322 . S
C199 C200 1.459 . S
C199 H263 0.929 . S
C200 C199 1.459 . S
C200 C201 1.445 . S
C200 C209 1.395 . S
C201 C179 1.432 . S
C201 C200 1.445 . S
C201 C202 1.370 . S
C202 C201 1.370 . S
C202 C203 1.438 . S
C202 H264 0.930 . S
C203 C189 1.497 . S
C203 C202 1.438 . S
C203 C204 1.360 . S
C204 C203 1.360 . S
C204 C205 1.401 . S
C204 C209 1.446 . S
C205 C204 1.401 . S
C205 C206 1.347 . S
C205 H265 0.929 . S
C206 C205 1.347 . S
C206 C207 1.455 . S
C206 H266 0.930 . S
C207 C194 1.412 . S
C207 C206 1.455 . S
C207 C208 1.331 . S
C208 C197 1.451 . S
C208 C207 1.331 . S
C208 C209 1.497 . S
C209 C200 1.395 . S
C209 C204 1.446 . S
C209 C208 1.497 . S
C210 C211 1.582 . S
C210 H267 0.962 . S
C210 H268 0.959 . S
C210 H269 0.958 . S
C211 C210 1.582 . S
C211 O214 1.458 . S
C211 H240 0.980 . S
O212 C157 1.426 . S
O212 C158 1.334 . S
O213 C185 1.412 . S
O213 C186 1.393 . S
O214 C176 1.435 . S
O214 C211 1.458 . S
O215 C167 1.468 . S
O215 C168 1.408 . S
H216 C157 0.980 . S
H217 C156 0.959 . S
H218 C156 0.959 . S
H219 C156 0.960 . S
H220 C159 0.929 . S
H221 C163 0.929 . S
H222 C164 0.959 . S
H223 C164 0.961 . S
H224 C164 0.961 . S
H225 C165 0.960 1_565 S
H226 C165 0.960 . S
H227 C165 0.961 . S
H228 C167 0.980 . S
H229 C166 0.961 . S
H230 C166 0.960 . S
H231 C166 0.959 . S
H232 C169 0.930 . S
H233 C173 0.931 . S
H234 C174 0.959 . S
H235 C174 0.961 . S
H236 C174 0.959 . S
H237 C175 0.960 . S
H238 C175 0.960 . S
H239 C175 0.960 . S
H240 C211 0.980 . S
H241 C177 0.930 . S
H242 C181 0.930 . S
H243 C182 0.961 . S
H244 C182 0.960 . S
H245 C182 0.958 . S
H246 C183 0.961 . S
H247 C183 0.960 . S
H248 C183 0.960 . S
H249 C185 0.980 . S
H250 C184 0.961 . S
H251 C184 0.961 . S
H252 C184 0.959 . S
H253 C187 0.932 . S
H254 C191 0.929 . S
H255 C192 0.961 . S
H256 C192 0.959 . S
H257 C192 0.959 1_565 S
H258 C193 0.960 . S
H259 C193 0.962 . S
H260 C193 0.961 . S
H261 C195 0.929 . S
H262 C198 0.930 . S
H263 C199 0.929 . S
H264 C202 0.930 . S
H265 C205 0.929 . S
H266 C206 0.930 . S
H267 C210 0.962 . S
H268 C210 0.959 . S
H269 C210 0.958 . S
C270 C271 1.560 . S
C270 H331 0.959 . S
C270 H332 0.959 . S
C270 H333 0.960 . S
C271 C270 1.560 . S
C271 O326 1.426 . S
C271 H330 0.980 . S
C272 C273 1.407 . S
C272 C277 1.418 . S
C272 O326 1.334 . S
C273 C272 1.407 . S
C273 C274 1.360 . S
C273 H334 0.929 . S
C274 C273 1.360 . S
C274 C275 1.401 . S
C274 C278 1.527 . S
C275 C274 1.401 . S
C275 C276 1.405 . S
C275 C308 1.587 . S
C276 C275 1.405 . S
C276 C277 1.332 . S
C276 C279 1.496 . S
C277 C272 1.418 . S
C277 C276 1.332 . S
C277 H335 0.929 . S
C278 C274 1.527 . S
C278 H336 0.959 . S
C278 H337 0.961 . S
C278 H338 0.961 . S
C279 C276 1.496 . S
C279 H339 0.960 . S
C279 H340 0.960 . S
C279 H341 0.961 . S
C280 C281 1.517 . S
C280 H343 0.961 . S
C280 H344 0.960 . S
C280 H345 0.959 . S
C281 C280 1.517 . S
C281 O329 1.468 . S
C281 H342 0.980 . S
C282 C283 1.349 . S
C282 C287 1.367 . S
C282 O329 1.408 . S
C283 C282 1.349 . S
C283 C284 1.407 . S
C283 H346 0.930 . S
C284 C283 1.407 . S
C284 C285 1.449 . S
C284 C288 1.535 . S
C285 C284 1.449 . S
C285 C286 1.384 . S
C285 C310 1.553 . S
C286 C285 1.384 . S
C286 C287 1.364 . S
C286 C289 1.450 . S
C287 C282 1.367 . S
C287 C286 1.364 . S
C287 H347 0.931 . S
C288 C284 1.535 . S
C288 H348 0.959 . S
C288 H349 0.961 . S
C288 H350 0.959 . S
C289 C286 1.450 . S
C289 H351 0.960 . S
C289 H352 0.960 . S
C289 H353 0.960 . S
C290 C291 1.309 . S
C290 C295 1.304 . S
C290 O328 1.435 . S
C291 C290 1.309 . S
C291 C292 1.476 . S
C291 H355 0.930 . S
C292 C291 1.476 . S
C292 C293 1.400 . S
C292 C296 1.567 . S
C293 C292 1.400 . S
C293 C294 1.373 . S
C293 C315 1.432 . S
C294 C293 1.373 . S
C294 C295 1.339 . S
C294 C297 1.530 . S
C295 C290 1.304 . S
C295 C294 1.339 . S
C295 H356 0.930 . S
C296 C292 1.567 . S
C296 H357 0.961 . S
C296 H358 0.960 . S
C296 H359 0.958 . S
C297 C294 1.530 . S
C297 H360 0.961 . S
C297 H361 0.960 . S
C297 H362 0.960 . S
C298 C299 1.530 . S
C298 H364 0.961 . S
C298 H365 0.961 . S
C298 H366 0.959 . S
C299 C298 1.530 . S
C299 O327 1.412 . S
C299 H363 0.980 . S
C300 C301 1.288 . S
C300 C305 1.377 . S
C300 O327 1.393 . S
C301 C300 1.288 . S
C301 C302 1.369 . S
C301 H367 0.932 . S
C302 C301 1.369 . S
C302 C303 1.398 . S
C302 C306 1.527 . S
C303 C302 1.398 . S
C303 C304 1.380 . S
C303 C317 1.497 . S
C304 C303 1.380 . S
C304 C305 1.383 . S
C304 C307 1.603 . S
C305 C300 1.377 . S
C305 C304 1.383 . S
C305 H368 0.929 . S
C306 C302 1.527 . S
C306 H369 0.961 . S
C306 H370 0.959 . S
C306 H371 0.959 . S
C307 C304 1.603 . S
C307 H372 0.960 . S
C307 H373 0.962 . S
C307 H374 0.961 . S
C308 C275 1.587 . S
C308 C309 1.360 . S
C308 C321 1.412 . S
C309 C308 1.360 . S
C309 C310 1.365 . S
C309 H375 0.929 . S
C310 C285 1.553 . S
C310 C309 1.365 . S
C310 C311 1.404 . S
C311 C310 1.404 . S
C311 C312 1.395 . S
C311 C322 1.451 . S
C312 C311 1.395 . S
C312 C313 1.322 . S
C312 H376 0.930 . S
C313 C312 1.322 . S
C313 C314 1.459 . S
C313 H377 0.929 . S
C314 C313 1.459 . S
C314 C315 1.445 . S
C314 C323 1.395 . S
C315 C293 1.432 . S
C315 C314 1.445 . S
C315 C316 1.370 . S
C316 C315 1.370 . S
C316 C317 1.438 . S
C316 H378 0.930 . S
C317 C303 1.497 . S
C317 C316 1.438 . S
C317 C318 1.360 . S
C318 C317 1.360 . S
C318 C319 1.401 . S
C318 C323 1.446 . S
C319 C318 1.401 . S
C319 C320 1.347 . S
C319 H379 0.929 . S
C320 C319 1.347 . S
C320 C321 1.455 . S
C320 H380 0.930 . S
C321 C308 1.412 . S
C321 C320 1.455 . S
C321 C322 1.331 . S
C322 C311 1.451 . S
C322 C321 1.331 . S
C322 C323 1.497 . S
C323 C314 1.395 . S
C323 C318 1.446 . S
C323 C322 1.497 . S
C324 C325 1.582 . S
C324 H381 0.962 . S
C324 H382 0.959 . S
C324 H383 0.958 . S
C325 C324 1.582 . S
C325 O328 1.458 . S
C325 H354 0.980 . S
O326 C271 1.426 . S
O326 C272 1.334 . S
O327 C299 1.412 . S
O327 C300 1.393 . S
O328 C290 1.435 . S
O328 C325 1.458 . S
O329 C281 1.468 . S
O329 C282 1.408 . S
H330 C271 0.980 . S
H331 C270 0.959 . S
H332 C270 0.959 . S
H333 C270 0.960 . S
H334 C273 0.929 . S
H335 C277 0.929 . S
H336 C278 0.959 . S
H337 C278 0.961 . S
H338 C278 0.961 . S
H339 C279 0.960 . S
H340 C279 0.960 . S
H341 C279 0.961 . S
H342 C281 0.980 . S
H343 C280 0.961 . S
H344 C280 0.960 . S
H345 C280 0.959 . S
H346 C283 0.930 . S
H347 C287 0.931 . S
H348 C288 0.959 . S
H349 C288 0.961 . S
H350 C288 0.959 . S
H351 C289 0.960 . S
H352 C289 0.960 . S
H353 C289 0.960 . S
H354 C325 0.980 . S
H355 C291 0.930 . S
H356 C295 0.930 . S
H357 C296 0.961 . S
H358 C296 0.960 . S
H359 C296 0.958 . S
H360 C297 0.961 . S
H361 C297 0.960 . S
H362 C297 0.960 . S
H363 C299 0.980 . S
H364 C298 0.961 . S
H365 C298 0.961 . S
H366 C298 0.959 . S
H367 C301 0.932 . S
H368 C305 0.929 . S
H369 C306 0.961 . S
H370 C306 0.959 . S
H371 C306 0.959 . S
H372 C307 0.960 . S
H373 C307 0.962 . S
H374 C307 0.961 . S
H375 C309 0.929 . S
H376 C312 0.930 . S
H377 C313 0.929 . S
H378 C316 0.930 . S
H379 C319 0.929 . S
H380 C320 0.930 . S
H381 C324 0.962 . S
H382 C324 0.959 . S
H383 C324 0.958 . S
C384 C385 1.349 . S
C384 C386 1.327 . S
C384 H409 0.950 . S
C385 C384 1.349 . S
C385 C401 1.349 . S
C386 C384 1.327 . S
C386 C405 1.429 . S
C386 H410 0.950 . S
C387 C404 1.574 . S
C387 C406 1.368 . S
C387 H411 0.949 . S
H388 C392 0.949 . S
C389 C390 1.349 . S
C389 C391 1.327 . S
C389 H412 0.950 . S
C390 C389 1.349 . S
C390 C402 1.349 . S
C391 C389 1.327 . S
C391 C407 1.429 . S
C391 H413 0.950 . S
C392 H388 0.949 . S
C392 C400 1.574 . S
C392 C408 1.368 . S
H393 C401 0.950 . S
H394 C399 0.950 . S
H395 C400 0.949 . S
H396 C402 0.950 . S
H397 C403 0.950 . S
H398 C404 0.949 . S
C399 H394 0.950 . S
C399 C401 1.327 . S
C399 C405 1.429 . S
C400 C392 1.574 . S
C400 H395 0.949 . S
C400 C406 1.368 . S
C401 C385 1.349 . S
C401 H393 0.950 . S
C401 C399 1.327 . S
C402 C390 1.349 . S
C402 H396 0.950 . S
C402 C403 1.327 . S
C403 H397 0.950 . S
C403 C402 1.327 . S
C403 C407 1.429 . S
C404 C387 1.574 . S
C404 H398 0.949 . S
C404 C408 1.368 . S
C405 C386 1.429 . S
C405 C399 1.429 . S
C405 C406 1.523 . S
C406 C387 1.368 . S
C406 C400 1.368 . S
C406 C405 1.523 . S
C407 C391 1.429 . S
C407 C403 1.429 . S
C407 C408 1.523 . S
C408 C392 1.368 . S
C408 C404 1.368 . S
C408 C407 1.523 . S
H409 C384 0.950 . S
H410 C386 0.950 . S
H411 C387 0.949 . S
H412 C389 0.950 . S
H413 C391 0.950 . S
C414 C415 1.349 . S
C414 C416 1.327 . S
C414 H439 0.950 . S
C415 C414 1.349 . S
C415 C431 1.349 . S
C416 C414 1.327 . S
C416 C435 1.429 . S
C416 H440 0.950 . S
C417 C434 1.574 . S
C417 C436 1.368 . S
C417 H441 0.949 . S
H418 C422 0.949 . S
C419 C420 1.349 . S
C419 C421 1.327 . S
C419 H442 0.950 . S
C420 C419 1.349 . S
C420 C432 1.349 . S
C421 C419 1.327 . S
C421 C437 1.429 . S
C421 H443 0.950 . S
C422 H418 0.949 . S
C422 C430 1.574 . S
C422 C438 1.368 . S
H423 C431 0.950 1_565 S
H424 C429 0.950 1_565 S
H425 C430 0.949 . S
H426 C432 0.950 . S
H427 C433 0.950 . S
H428 C434 0.949 . S
C429 H424 0.950 1_545 S
C429 C431 1.327 . S
C429 C435 1.429 . S
C430 C422 1.574 . S
C430 H425 0.949 . S
C430 C436 1.368 . S
C431 C415 1.349 . S
C431 H423 0.950 1_545 S
C431 C429 1.327 . S
C432 C420 1.349 . S
C432 H426 0.950 . S
C432 C433 1.327 . S
C433 H427 0.950 . S
C433 C432 1.327 . S
C433 C437 1.429 . S
C434 C417 1.574 . S
C434 H428 0.949 . S
C434 C438 1.368 . S
C435 C416 1.429 . S
C435 C429 1.429 . S
C435 C436 1.523 . S
C436 C417 1.368 . S
C436 C430 1.368 . S
C436 C435 1.523 . S
C437 C421 1.429 . S
C437 C433 1.429 . S
C437 C438 1.523 . S
C438 C422 1.368 . S
C438 C434 1.368 . S
C438 C437 1.523 . S
H439 C414 0.950 . S
H440 C416 0.950 . S
H441 C417 0.949 . S
H442 C419 0.950 . S
H443 C421 0.950 . S
C444 C445 1.349 . S
C444 C446 1.327 . S
C444 H469 0.950 1_565 S
C445 C444 1.349 . S
C445 C461 1.349 . S
C446 C444 1.327 . S
C446 C465 1.429 . S
C446 H470 0.950 . S
C447 C464 1.574 . S
C447 C466 1.368 . S
C447 H471 0.949 . S
H448 C452 0.949 . S
C449 C450 1.349 . S
C449 C451 1.327 . S
C449 H472 0.950 . S
C450 C449 1.349 . S
C450 C462 1.349 . S
C451 C449 1.327 . S
C451 C467 1.429 . S
C451 H473 0.950 . S
C452 H448 0.949 . S
C452 C460 1.574 . S
C452 C468 1.368 . S
H453 C461 0.950 . S
H454 C459 0.950 . S
H455 C460 0.949 . S
H456 C462 0.950 . S
H457 C463 0.950 . S
H458 C464 0.949 . S
C459 H454 0.950 . S
C459 C461 1.327 . S
C459 C465 1.429 . S
C460 C452 1.574 . S
C460 H455 0.949 . S
C460 C466 1.368 . S
C461 C445 1.349 . S
C461 H453 0.950 . S
C461 C459 1.327 . S
C462 C450 1.349 . S
C462 H456 0.950 . S
C462 C463 1.327 . S
C463 H457 0.950 . S
C463 C462 1.327 . S
C463 C467 1.429 . S
C464 C447 1.574 . S
C464 H458 0.949 . S
C464 C468 1.368 . S
C465 C446 1.429 . S
C465 C459 1.429 . S
C465 C466 1.523 . S
C466 C447 1.368 . S
C466 C460 1.368 . S
C466 C465 1.523 . S
C467 C451 1.429 . S
C467 C463 1.429 . S
C467 C468 1.523 . S
C468 C452 1.368 . S
C468 C464 1.368 . S
C468 C467 1.523 . S
H469 C444 0.950 1_545 S
H470 C446 0.950 . S
H471 C447 0.949 . S
H472 C449 0.950 . S
H473 C451 0.950 . S
C474 C475 1.349 . S
C474 C476 1.327 . S
C474 H499 0.950 . S
C475 C474 1.349 . S
C475 C491 1.349 . S
C476 C474 1.327 . S
C476 C495 1.429 . S
C476 H500 0.950 . S
C477 C494 1.574 . S
C477 C496 1.368 . S
C477 H501 0.949 . S
H478 C482 0.949 . S
C479 C480 1.349 . S
C479 C481 1.327 . S
C479 H502 0.950 . S
C480 C479 1.349 . S
C480 C492 1.349 . S
C481 C479 1.327 . S
C481 C497 1.429 . S
C481 H503 0.950 . S
C482 H478 0.949 . S
C482 C490 1.574 . S
C482 C498 1.368 . S
H483 C491 0.950 1_545 S
H484 C489 0.950 . S
H485 C490 0.949 . S
H486 C492 0.950 . S
H487 C493 0.950 . S
H488 C494 0.949 . S
C489 H484 0.950 . S
C489 C491 1.327 . S
C489 C495 1.429 . S
C490 C482 1.574 . S
C490 H485 0.949 . S
C490 C496 1.368 . S
C491 C475 1.349 . S
C491 H483 0.950 1_565 S
C491 C489 1.327 . S
C492 C480 1.349 . S
C492 H486 0.950 . S
C492 C493 1.327 . S
C493 H487 0.950 . S
C493 C492 1.327 . S
C493 C497 1.429 . S
C494 C477 1.574 . S
C494 H488 0.949 . S
C494 C498 1.368 . S
C495 C476 1.429 . S
C495 C489 1.429 . S
C495 C496 1.523 . S
C496 C477 1.368 . S
C496 C490 1.368 . S
C496 C495 1.523 . S
C497 C481 1.429 . S
C497 C493 1.429 . S
C497 C498 1.523 . S
C498 C482 1.368 . S
C498 C494 1.368 . S
C498 C497 1.523 . S
H499 C474 0.950 . S
H500 C476 0.950 . S
H501 C477 0.949 . S
H502 C479 0.950 . S
H503 C481 0.950 . S
C504 C505 1.349 . S
C504 C506 1.327 . S
C504 H529 0.950 . S
C505 C504 1.349 . S
C505 C521 1.349 . S
C506 C504 1.327 . S
C506 C525 1.429 . S
C506 H530 0.950 . S
C507 C524 1.574 . S
C507 C526 1.368 . S
C507 H531 0.949 . S
H508 C512 0.949 . S
C509 C510 1.349 . S
C509 C511 1.327 . S
C509 H532 0.950 . S
C510 C509 1.349 . S
C510 C522 1.349 . S
C511 C509 1.327 . S
C511 C527 1.429 . S
C511 H533 0.950 . S
C512 H508 0.949 . S
C512 C520 1.574 . S
C512 C528 1.368 . S
H513 C521 0.950 . S
H514 C519 0.950 . S
H515 C520 0.949 . S
H516 C522 0.950 . S
H517 C523 0.950 . S
H518 C524 0.949 . S
C519 H514 0.950 . S
C519 C521 1.327 . S
C519 C525 1.429 . S
C520 C512 1.574 . S
C520 H515 0.949 . S
C520 C526 1.368 . S
C521 C505 1.349 . S
C521 H513 0.950 . S
C521 C519 1.327 . S
C522 C510 1.349 . S
C522 H516 0.950 . S
C522 C523 1.327 . S
C523 H517 0.950 . S
C523 C522 1.327 . S
C523 C527 1.429 . S
C524 C507 1.574 . S
C524 H518 0.949 . S
C524 C528 1.368 . S
C525 C506 1.429 . S
C525 C519 1.429 . S
C525 C526 1.523 . S
C526 C507 1.368 . S
C526 C520 1.368 . S
C526 C525 1.523 . S
C527 C511 1.429 . S
C527 C523 1.429 . S
C527 C528 1.523 . S
C528 C512 1.368 . S
C528 C524 1.368 . S
C528 C527 1.523 . S
H529 C504 0.950 . S
H530 C506 0.950 . S
H531 C507 0.949 . S
H532 C509 0.950 . S
H533 C511 0.950 . S
C534 C535 1.349 . S
C534 C536 1.327 . S
C534 H559 0.950 . S
C535 C534 1.349 . S
C535 C551 1.349 . S
C536 C534 1.327 . S
C536 C555 1.429 . S
C536 H560 0.950 . S
C537 C554 1.574 . S
C537 C556 1.368 . S
C537 H561 0.949 . S
H538 C542 0.949 . S
C539 C540 1.349 . S
C539 C541 1.327 . S
C539 H562 0.950 . S
C540 C539 1.349 . S
C540 C552 1.349 . S
C541 C539 1.327 . S
C541 C557 1.429 . S
C541 H563 0.950 . S
C542 H538 0.949 . S
C542 C550 1.574 . S
C542 C558 1.368 . S
H543 C551 0.950 . S
H544 C549 0.950 . S
H545 C550 0.949 . S
H546 C552 0.950 . S
H547 C553 0.950 . S
H548 C554 0.949 . S
C549 H544 0.950 . S
C549 C551 1.327 . S
C549 C555 1.429 . S
C550 C542 1.574 . S
C550 H545 0.949 . S
C550 C556 1.368 . S
C551 C535 1.349 . S
C551 H543 0.950 . S
C551 C549 1.327 . S
C552 C540 1.349 . S
C552 H546 0.950 . S
C552 C553 1.327 . S
C553 H547 0.950 . S
C553 C552 1.327 . S
C553 C557 1.429 . S
C554 C537 1.574 . S
C554 H548 0.949 . S
C554 C558 1.368 . S
C555 C536 1.429 . S
C555 C549 1.429 . S
C555 C556 1.523 . S
C556 C537 1.368 . S
C556 C550 1.368 . S
C556 C555 1.523 . S
C557 C541 1.429 . S
C557 C553 1.429 . S
C557 C558 1.523 . S
C558 C542 1.368 . S
C558 C554 1.368 . S
C558 C557 1.523 . S
H559 C534 0.950 . S
H560 C536 0.950 . S
H561 C537 0.949 . S
H562 C539 0.950 . S
H563 C541 0.950 . S
C564 C565 1.349 . S
C564 C566 1.327 . S
C564 H589 0.950 . S
C565 C564 1.349 . S
C565 C581 1.349 . S
C566 C564 1.327 . S
C566 C585 1.429 . S
C566 H590 0.950 . S
C567 C584 1.574 . S
C567 C586 1.368 . S
C567 H591 0.949 . S
H568 C572 0.949 . S
C569 C570 1.349 . S
C569 C571 1.327 . S
C569 H592 0.950 . S
C570 C569 1.349 . S
C570 C582 1.349 . S
C571 C569 1.327 . S
C571 C587 1.429 . S
C571 H593 0.950 . S
C572 H568 0.949 . S
C572 C580 1.574 . S
C572 C588 1.368 . S
H573 C581 0.965 . S
H574 C579 0.950 . S
H575 C580 0.949 . S
H576 C582 0.950 . S
H577 C583 0.950 . S
H578 C584 0.949 . S
C579 H574 0.950 . S
C579 C581 1.327 . S
C579 C585 1.429 . S
C580 C572 1.574 . S
C580 H575 0.949 . S
C580 C586 1.368 . S
C581 C565 1.349 . S
C581 H573 0.965 . S
C581 C579 1.327 . S
C582 C570 1.349 . S
C582 H576 0.950 . S
C582 C583 1.327 . S
C583 H577 0.950 . S
C583 C582 1.327 . S
C583 C587 1.429 . S
C584 C567 1.574 . S
C584 H578 0.949 . S
C584 C588 1.368 . S
C585 C566 1.429 . S
C585 C579 1.429 . S
C585 C586 1.523 . S
C586 C567 1.368 . S
C586 C580 1.368 . S
C586 C585 1.523 . S
C587 C571 1.429 . S
C587 C583 1.429 . S
C587 C588 1.523 . S
C588 C572 1.368 . S
C588 C584 1.368 . S
C588 C587 1.523 . S
H589 C564 0.950 . S
H590 C566 0.950 . S
H591 C567 0.949 . S
H592 C569 0.950 . S
H593 C571 0.950 . S
C594 C595 1.349 1_565 S
C594 C596 1.327 . S
C594 H619 0.950 . S
C595 C594 1.349 1_545 S
C595 C611 1.348 . S
C596 C594 1.327 . S
C596 C615 1.429 . S
C596 H620 0.950 . S
C597 C614 1.577 1_554 S
C597 C616 1.363 . S
C597 H621 0.951 1_554 S
H598 C602 0.949 . S
C599 C600 1.349 . S
C599 C601 1.327 . S
C599 H622 0.950 . S
C600 C599 1.349 . S
C600 C612 1.349 . S
C601 C599 1.327 . S
C601 C617 1.429 . S
C601 H623 0.950 . S
C602 H598 0.949 . S
C602 C610 1.574 . S
C602 C618 1.368 1_554 S
H603 C611 0.949 1_455 S
H604 C609 0.950 . S
H605 C610 0.949 . S
H606 C612 0.950 . S
H607 C613 1.005 . S
H608 C614 0.949 . S
C609 H604 0.950 . S
C609 C611 1.329 1_565 S
C609 C615 1.429 . S
C610 C602 1.574 . S
C610 H605 0.949 . S
C610 C616 1.368 . S
C611 C595 1.348 . S
C611 H603 0.949 1_655 S
C611 C609 1.329 1_545 S
C612 C600 1.349 . S
C612 H606 0.950 . S
C612 C613 1.327 . S
C613 H607 1.005 . S
C613 C612 1.327 . S
C613 C617 1.429 . S
C614 C597 1.577 1_556 S
C614 H608 0.949 . S
C614 C618 1.368 . S
C615 C596 1.429 . S
C615 C609 1.429 . S
C615 C616 1.523 . S
C616 C597 1.363 . S
C616 C610 1.368 . S
C616 C615 1.523 . S
C617 C601 1.429 . S
C617 C613 1.429 . S
C617 C618 1.523 . S
C618 C602 1.368 1_556 S
C618 C614 1.368 . S
C618 C617 1.523 . S
H619 C594 0.950 . S
H620 C596 0.950 . S
H621 C597 0.951 1_556 S
H622 C599 0.950 . S
H623 C601 0.950 . S
C624 C625 1.349 . S
C624 C626 1.327 . S
C624 H649 0.950 . S
C625 C624 1.349 . S
C625 C641 1.349 . S
C626 C624 1.327 . S
C626 C645 1.429 . S
C626 H650 0.949 1_655 S
C627 C644 1.574 1_655 S
C627 C646 1.369 . S
C627 H651 0.949 . S
H628 C632 0.949 . S
C629 C630 1.349 . S
C629 C631 1.327 . S
C629 H652 0.950 . S
C630 C629 1.349 . S
C630 C642 1.349 . S
C631 C629 1.327 . S
C631 C647 1.429 . S
C631 H653 0.950 . S
C632 H628 0.949 . S
C632 C640 1.574 . S
C632 C648 1.368 . S
H633 C641 0.950 . S
H634 C639 0.950 . S
H635 C640 0.949 . S
H636 C642 0.950 . S
H637 C643 0.950 . S
H638 C644 0.949 . S
C639 H634 0.950 . S
C639 C641 1.327 . S
C639 C645 1.429 . S
C640 C632 1.574 . S
C640 H635 0.949 . S
C640 C646 1.368 1_455 S
C641 C625 1.349 . S
C641 H633 0.950 . S
C641 C639 1.327 . S
C642 C630 1.349 . S
C642 H636 0.950 . S
C642 C643 1.327 . S
C643 H637 0.950 . S
C643 C642 1.327 . S
C643 C647 1.429 . S
C644 C627 1.574 1_455 S
C644 H638 0.949 . S
C644 C648 1.368 . S
C645 C626 1.429 . S
C645 C639 1.429 . S
C645 C646 1.522 . S
C646 C627 1.369 . S
C646 C640 1.368 1_655 S
C646 C645 1.522 . S
C647 C631 1.429 . S
C647 C643 1.429 . S
C647 C648 1.523 . S
C648 C632 1.368 . S
C648 C644 1.368 . S
C648 C647 1.523 . S
H649 C624 0.950 . S
H650 C626 0.949 1_455 S
H651 C627 0.949 . S
H652 C629 0.950 . S
H653 C631 0.950 . S
C654 C655 1.349 . S
C654 C656 1.327 . S
C654 H679 0.950 1_545 S
C655 C654 1.349 . S
C655 C671 1.349 . S
C656 C654 1.327 . S
C656 C675 1.429 . S
C656 H680 0.950 . S
C657 C674 1.574 . S
C657 C676 1.368 . S
C657 H681 0.949 . S
H658 C662 0.949 . S
C659 C660 1.349 . S
C659 C661 1.327 . S
C659 H682 0.950 . S
C660 C659 1.349 . S
C660 C672 1.349 . S
C661 C659 1.327 . S
C661 C677 1.429 . S
C661 H683 0.950 . S
C662 H658 0.949 . S
C662 C670 1.574 . S
C662 C678 1.368 . S
H663 C671 0.950 . S
H664 C669 0.950 . S
H665 C670 0.949 . S
H666 C672 0.950 . S
H667 C673 0.950 . S
H668 C674 0.949 . S
C669 H664 0.950 . S
C669 C671 1.327 . S
C669 C675 1.429 . S
C670 C662 1.574 . S
C670 H665 0.949 . S
C670 C676 1.368 . S
C671 C655 1.349 . S
C671 H663 0.950 . S
C671 C669 1.327 . S
C672 C660 1.349 . S
C672 H666 0.950 . S
C672 C673 1.327 . S
C673 H667 0.950 . S
C673 C672 1.327 . S
C673 C677 1.429 . S
C674 C657 1.574 . S
C674 H668 0.949 . S
C674 C678 1.368 . S
C675 C656 1.429 . S
C675 C669 1.429 . S
C675 C676 1.523 . S
C676 C657 1.368 . S
C676 C670 1.368 . S
C676 C675 1.523 . S
C677 C661 1.429 . S
C677 C673 1.429 . S
C677 C678 1.523 . S
C678 C662 1.368 . S
C678 C674 1.368 . S
C678 C677 1.523 . S
H679 C654 0.950 1_565 S
H680 C656 0.950 . S
H681 C657 0.949 . S
H682 C659 0.950 . S
H683 C661 0.950 . S
C684 C685 1.349 . S
C684 C686 1.327 . S
C684 H709 0.950 . S
C685 C684 1.349 . S
C685 C701 1.349 . S
C686 C684 1.327 . S
C686 C705 1.429 . S
C686 H710 0.950 . S
C687 C704 1.574 . S
C687 C706 1.368 . S
C687 H711 0.949 . S
H688 C692 0.949 . S
C689 C690 1.349 . S
C689 C691 1.327 . S
C689 H712 0.950 . S
C690 C689 1.349 . S
C690 C702 1.349 . S
C691 C689 1.327 . S
C691 C707 1.429 . S
C691 H713 0.950 . S
C692 H688 0.949 . S
C692 C700 1.574 . S
C692 C708 1.368 . S
H693 C701 0.950 . S
H694 C699 0.950 . S
H695 C700 0.949 . S
H696 C702 0.950 . S
H697 C703 0.950 . S
H698 C704 0.949 . S
C699 H694 0.950 . S
C699 C701 1.327 . S
C699 C705 1.429 . S
C700 C692 1.574 . S
C700 H695 0.949 . S
C700 C706 1.368 1_556 S
C701 C685 1.349 . S
C701 H693 0.950 . S
C701 C699 1.327 . S
C702 C690 1.349 . S
C702 H696 0.950 . S
C702 C703 1.327 . S
C703 H697 0.950 . S
C703 C702 1.327 . S
C703 C707 1.429 . S
C704 C687 1.574 . S
C704 H698 0.949 . S
C704 C708 1.368 1_554 S
C705 C686 1.429 . S
C705 C699 1.429 . S
C705 C706 1.523 . S
C706 C687 1.368 . S
C706 C700 1.368 1_554 S
C706 C705 1.523 . S
C707 C691 1.429 . S
C707 C703 1.429 . S
C707 C708 1.523 . S
C708 C692 1.368 . S
C708 C704 1.368 1_556 S
C708 C707 1.523 . S
H709 C684 0.950 . S
H710 C686 0.950 . S
H711 C687 0.949 . S
H712 C689 0.950 . S
H713 C691 0.950 . S
C714 C715 1.349 . S
C714 C716 1.327 . S
C714 H739 0.950 . S
C715 C714 1.349 . S
C715 C731 1.349 1_455 S
C716 C714 1.327 . S
C716 C735 1.429 . S
C716 H740 0.950 . S
C717 C734 1.574 . S
C717 C736 1.368 1_655 S
C717 H741 0.949 . S
H718 C722 0.949 . S
C719 C720 1.349 1_655 S
C719 C721 1.327 . S
C719 H742 0.950 . S
C720 C719 1.349 1_455 S
C720 C732 1.349 . S
C721 C719 1.327 . S
C721 C737 1.429 1_655 S
C721 H743 0.950 . S
C722 H718 0.949 . S
C722 C730 1.574 . S
C722 C738 1.368 . S
H723 C731 0.950 . S
H724 C729 0.950 . S
H725 C730 0.949 . S
H726 C732 0.950 . S
H727 C733 0.950 . S
H728 C734 0.949 . S
C729 H724 0.950 . S
C729 C731 1.327 . S
C729 C735 1.429 1_655 S
C730 C722 1.574 . S
C730 H725 0.949 . S
C730 C736 1.368 . S
C731 C715 1.349 1_655 S
C731 H723 0.950 . S
C731 C729 1.327 . S
C732 C720 1.349 . S
C732 H726 0.950 . S
C732 C733 1.327 . S
C733 H727 0.950 . S
C733 C732 1.327 . S
C733 C737 1.429 . S
C734 C717 1.574 . S
C734 H728 0.949 . S
C734 C738 1.368 1_655 S
C735 C716 1.429 . S
C735 C729 1.429 1_455 S
C735 C736 1.523 . S
C736 C717 1.368 1_455 S
C736 C730 1.368 . S
C736 C735 1.523 . S
C737 C721 1.429 1_455 S
C737 C733 1.429 . S
C737 C738 1.523 . S
C738 C722 1.368 . S
C738 C734 1.368 1_455 S
C738 C737 1.523 . S
H739 C714 0.950 . S
H740 C716 0.950 . S
H741 C717 0.949 . S
H742 C719 0.950 . S
H743 C721 0.950 . S
C390 C97 1.060 . S
C385 C11 1.419 . S
C415 C26 1.567 . S
C420 C211 1.206 . S
C445 C40 1.174 . S
C450 C271 0.933 . S
C475 C5 1.090 1_565 S
C480 C71 1.012 . S
C510 C185 1.132 . S
C505 C18 1.414 . S
C535 C32 1.338 . S
C540 C281 0.843 . S
C570 C167 0.782 . S
C565 C39 1.194 . S
C595 C4 1.274 1_655 S
C600 C299 1.041 . S
C630 C43 0.922 . S
C625 C19 1.017 . S
C660 C157 0.856 . S
C655 C33 0.950 . S
C690 C325 1.100 . S
C685 C12 1.438 . S
C715 C25 1.328 . S
C720 C53 0.820 . S
