# Generated by pormake.
# Topology tsx, (6,3)-cn, num edge types: 1
# Building blocks:
#     Node 0, Type 0, BuildingBlock: FUNLAD_clean_sbu_0, # of connection points: 6
#     Node 1, Type 0, BuildingBlock: FUNLAD_clean_sbu_0, # of connection points: 6
#     Node 2, Type 1, BuildingBlock: QEWDON_clean_linker_0, # of connection points: 3
#     Node 3, Type 1, BuildingBlock: QEWDON_clean_linker_0, # of connection points: 3
#     Node 4, Type 1, BuildingBlock: QEWDON_clean_linker_0, # of connection points: 3
#     Node 5, Type 1, BuildingBlock: QEWDON_clean_linker_0, # of connection points: 3
#     Edge 6, Type (0, 1), BuildingBlock: FUNLAD_clean_linker_0, # of connection points: 2
#     Edge 7, Type (0, 1), BuildingBlock: FUNLAD_clean_linker_0, # of connection points: 2
#     Edge 8, Type (0, 1), BuildingBlock: FUNLAD_clean_linker_0, # of connection points: 2
#     Edge 9, Type (0, 1), BuildingBlock: FUNLAD_clean_linker_0, # of connection points: 2
#     Edge 10, Type (0, 1), BuildingBlock: FUNLAD_clean_linker_0, # of connection points: 2
#     Edge 11, Type (0, 1), BuildingBlock: FUNLAD_clean_linker_0, # of connection points: 2
#     Edge 12, Type (0, 1), BuildingBlock: FUNLAD_clean_linker_0, # of connection points: 2
#     Edge 13, Type (0, 1), BuildingBlock: FUNLAD_clean_linker_0, # of connection points: 2
#     Edge 14, Type (0, 1), BuildingBlock: FUNLAD_clean_linker_0, # of connection points: 2
#     Edge 15, Type (0, 1), BuildingBlock: FUNLAD_clean_linker_0, # of connection points: 2
#     Edge 16, Type (0, 1), BuildingBlock: FUNLAD_clean_linker_0, # of connection points: 2
#     Edge 17, Type (0, 1), BuildingBlock: FUNLAD_clean_linker_0, # of connection points: 2
# Relax obj value: 0.117
# Max RMSD: 0.175
# Mean RMSD: 0.150
data_MOF--net-tsx--node1-FUNLAD_clean_sbu_0--node2-QEWDON_clean_linker_0--edge1-FUNLAD_clean_linker_0
_symmetry_space_group_name_H-M    P1
_symmetry_Int_Tables_number       1
_symmetry_cell_setting            triclinic
loop_
_symmetry_equiv_pos_as_xyz
'x, y, z'
_cell_length_a     23.948979
_cell_length_b     26.652347
_cell_length_c     44.565225
_cell_angle_alpha  90.811417
_cell_angle_beta   107.20694
_cell_angle_gamma 90.316047
loop_
_atom_site_label
_atom_site_type_symbol
_atom_site_fract_x
_atom_site_fract_y
_atom_site_fract_z
_atom_type_partial_charge
C0 C 0.94777 0.94292 -0.00386 0.0
N1 N 0.05104 0.00665 0.08087 0.0
C2 C 0.00372 -0.00523 0.09043 0.0
C3 C 0.00995 0.98621 0.12197 0.0
C4 C 0.06528 0.99053 0.1441 0.0
C5 C 0.11341 0.00374 0.13386 0.0
C6 C 0.10531 0.01133 0.10183 0.0
Zn7 Zn 0.03638 0.01713 0.03383 0.0
C8 C 0.11561 0.95815 0.00772 0.0
N9 N -0.0009 0.03708 0.93544 0.0
C10 C 0.94255 0.03892 0.91714 0.0
C11 C 0.04419 0.04201 0.92296 0.0
C12 C 0.03318 0.04836 0.89074 0.0
C13 C 0.97519 0.04983 0.8712 0.0
C14 C 0.92954 0.04543 0.88483 0.0
Zn15 Zn 0.01599 0.02663 0.98233 0.0
O16 O 0.97786 0.95497 0.02391 0.0
C17 C 0.93852 0.08722 0.00884 0.0
O18 O 0.95388 0.96776 0.97324 0.0
H19 H 0.08881 0.04052 0.93799 0.0
H20 H 0.96081 -0.00808 0.07354 0.0
H21 H 0.90738 0.03507 0.92759 0.0
O22 O 0.96681 0.06558 0.03384 0.0
O23 O 0.95097 0.0786 0.9835 0.0
H24 H 0.14233 0.02082 0.09372 0.0
O25 O 0.07791 0.08474 0.99149 0.0
O26 O 0.09607 0.07876 0.04256 0.0
O27 O 0.0828 0.97515 0.98207 0.0
O28 O 0.10553 0.96953 0.0334 0.0
C29 C 0.10612 0.09933 0.01906 0.0
H30 H 0.97166 0.97683 0.12906 0.0
H31 H 0.15679 0.0073 0.15033 0.0
H32 H 0.06972 0.05087 0.88118 0.0
H33 H 0.88423 0.04699 0.87071 0.0
C34 C 0.46826 0.43252 0.49992 0.0
N35 N 0.54776 0.51951 0.58082 0.0
C36 C 0.49735 0.51244 0.58845 0.0
C37 C 0.49804 0.51128 0.61981 0.0
C38 C 0.55116 0.51729 0.64374 0.0
C39 C 0.60254 0.5252 0.63523 0.0
C40 C 0.59984 0.52613 0.60346 0.0
Zn41 Zn 0.5429 0.51858 0.53421 0.0
C42 C 0.63648 0.45877 0.52099 0.0
N43 N 0.52701 0.51517 0.43652 0.0
C44 C 0.47384 0.50887 0.41481 0.0
C45 C 0.57604 0.52335 0.42775 0.0
C46 C 0.57264 0.52605 0.39604 0.0
C47 C 0.51818 0.52056 0.37308 0.0
C48 C 0.46839 0.51155 0.38283 0.0
Zn49 Zn 0.53314 0.5155 0.48307 0.0
O50 O 0.48667 0.45429 0.52666 0.0
C51 C 0.4391 0.57458 0.49704 0.0
O52 O 0.48301 0.44954 0.4769 0.0
H53 H 0.61786 0.52833 0.44541 0.0
H54 H 0.45635 0.50741 0.57015 0.0
H55 H 0.43541 0.5025 0.42231 0.0
O56 O 0.46917 0.56476 0.52488 0.0
O57 O 0.45578 0.55861 0.47413 0.0
H58 H 0.6394 0.53163 0.59687 0.0
O59 O 0.58293 0.58145 0.4892 0.0
O60 O 0.59917 0.58298 0.54036 0.0
O61 O 0.61059 0.47224 0.49309 0.0
O62 O 0.61624 0.47209 0.54316 0.0
C63 C 0.6071 0.60177 0.51581 0.0
H64 H 0.45723 0.50596 0.62524 0.0
H65 H 0.64451 0.52959 0.65291 0.0
H66 H 0.61231 0.53221 0.38961 0.0
H67 H 0.42543 0.50766 0.36598 0.0
H68 H 0.04212 0.03264 0.43129 0.0
C69 C 0.05259 -0.00493 0.43996 0.0
C70 C 0.06268 0.95787 0.41965 0.0
C71 C 0.05833 0.98437 0.47152 0.0
H72 H 0.08957 0.88177 0.41601 0.0
C73 C 0.07866 0.90974 0.43121 0.0
C74 C 0.08535 0.89858 0.46276 0.0
C75 C 0.07446 0.93604 0.48271 0.0
C76 C 0.05196 0.02449 0.4933 0.0
H77 H 0.07931 0.9276 0.50706 0.0
C78 C 0.00507 0.07556 0.47815 0.0
C79 C 0.00962 0.14511 0.5244 0.0
C80 C 0.09514 0.02147 0.53309 0.0
H81 H 0.09994 0.04412 0.55111 0.0
C82 C 0.09891 0.06848 0.56449 0.0
H83 H 0.97912 0.07367 0.4534 0.0
C84 C 0.05917 0.12546 0.56053 0.0
H85 H 0.06493 0.149 0.58122 0.0
H86 H 0.12741 0.0667 0.59109 0.0
H87 H 0.99278 0.07691 0.5852 0.0
C88 C 0.98837 0.038 0.57769 0.0
C89 C 0.97753 0.00234 0.59803 0.0
C90 C 0.99184 0.02398 0.54776 0.0
H91 H 0.95563 0.92522 0.60286 0.0
C92 C 0.96567 0.95266 0.58744 0.0
C93 C 0.96289 0.93877 0.55654 0.0
C94 C 0.97622 0.9746 0.53676 0.0
C95 C 0.00096 0.06391 0.52563 0.0
H96 H 0.97297 0.96441 0.51269 0.0
C97 C 0.08306 0.10945 0.51203 0.0
C98 C 0.05631 0.15323 0.48433 0.0
C99 C 0.93377 0.08575 0.50411 0.0
H100 H 0.8944 0.06991 0.50749 0.0
C101 C 0.92773 0.13187 0.47766 0.0
H102 H 0.0661 0.09286 0.51875 0.0
C103 C 0.98332 0.16244 0.46884 0.0
H104 H 0.96989 0.19078 0.45111 0.0
H105 H 0.88387 0.1433 0.46513 0.0
H106 H 0.52856 0.52494 0.92699 0.0
C107 C 0.53924 0.48848 0.93741 0.0
C108 C 0.54759 0.44802 0.91865 0.0
C109 C 0.54642 0.48217 0.96956 0.0
H110 H 0.57331 0.37064 0.91859 0.0
C111 C 0.56354 0.40117 0.9325 0.0
C112 C 0.57165 0.39463 0.96471 0.0
C113 C 0.56183 0.43503 0.98285 0.0
C114 C 0.54051 0.5247 0.98988 0.0
H115 H 0.56716 0.42962 0.00759 0.0
C116 C 0.49369 0.5752 0.97327 0.0
C117 C 0.49089 0.64425 0.01869 0.0
C118 C 0.57962 0.52212 0.03039 0.0
H119 H 0.58175 0.54465 0.04817 0.0
C120 C 0.57844 0.56879 0.06119 0.0
H121 H 0.46947 0.57256 0.94828 0.0
C122 C 0.53718 0.62495 0.05586 0.0
H123 H 0.53947 0.64803 0.07636 0.0
H124 H 0.60412 0.56723 0.08825 0.0
H125 H 0.47018 0.57148 0.07864 0.0
C126 C 0.46644 0.53314 0.07003 0.0
C127 C 0.45449 0.4954 0.08885 0.0
C128 C 0.4726 0.52162 0.04026 0.0
H129 H 0.43476 0.41711 0.09121 0.0
C130 C 0.44506 0.44623 0.07691 0.0
C131 C 0.44594 0.4347 0.04623 0.0
C132 C 0.45931 0.47271 0.02793 0.0
C133 C 0.48367 0.56291 0.01954 0.0
H134 H 0.45848 0.46437 0.00397 0.0
C135 C 0.568 0.61 0.00936 0.0
C136 C 0.5435 0.65377 0.98145 0.0
C137 C 0.41753 0.58386 -0.00402 0.0
H138 H 0.37733 0.56723 -0.00225 0.0
C139 C 0.4139 0.63022 0.9699 0.0
H140 H 0.55008 0.59299 0.01523 0.0
C141 C 0.47113 0.66182 0.96343 0.0
H142 H 0.45948 0.69123 0.94629 0.0
H143 H 0.37064 0.64123 0.9561 0.0
C144 C 0.16079 0.16137 -0.00305 0.0
C145 C 0.15367 0.1366 0.02322 0.0
C146 C 0.20868 0.19301 -0.00013 0.0
C147 C 0.25102 0.20029 0.02918 0.0
C148 C 0.24303 0.17655 0.05559 0.0
C149 C 0.19488 0.14494 0.05268 0.0
C150 C 0.30196 0.23459 0.03359 0.0
C151 C 0.32077 0.25212 0.00999 0.0
C152 C 0.36364 0.29385 0.01553 0.0
C153 C 0.35231 0.33435 0.99492 0.0
C154 C 0.38314 0.37949 0.00359 0.0
C155 C 0.4262 0.38427 0.03281 0.0
H156 H 0.4222 0.26526 0.05867 0.0
C157 C 0.44253 0.34157 0.05142 0.0
C158 C 0.41127 0.29671 0.04293 0.0
H159 H 0.4768 0.34386 0.07363 0.0
H160 H 0.1295 0.15603 0.97393 0.0
H161 H 0.21147 0.21192 0.97907 0.0
H162 H 0.27446 0.18209 0.07856 0.0
H163 H 0.19071 0.12623 0.07335 0.0
H164 H 0.32324 0.24786 0.05745 0.0
H165 H 0.29993 0.24049 0.98584 0.0
H166 H 0.31622 0.33257 0.97344 0.0
H167 H 0.36969 0.41168 0.98869 0.0
C168 C 0.20702 0.91445 0.03672 0.0
C169 C 0.16708 0.92784 0.00801 0.0
C170 C 0.25659 0.88692 0.03728 0.0
C171 C 0.2669 0.87158 0.00908 0.0
C172 C 0.22792 0.88614 0.98039 0.0
C173 C 0.17832 0.91392 0.97982 0.0
C174 C 0.31674 0.83904 0.00888 0.0
C175 C 0.33775 0.80504 0.03132 0.0
C176 C 0.38014 0.76634 0.02893 0.0
C177 C 0.37531 0.71898 0.04117 0.0
C178 C 0.41167 0.68027 0.03771 0.0
C179 C 0.45353 0.68805 0.02188 0.0
H180 H 0.43081 0.81218 0.00637 0.0
C181 C 0.46187 0.73655 0.0119 0.0
C182 C 0.42455 0.77531 0.01483 0.0
H183 H 0.49661 0.74446 0.00165 0.0
H184 H 0.20031 0.92553 0.05887 0.0
H185 H 0.28679 0.87796 0.05987 0.0
H186 H 0.23518 0.8751 0.95836 0.0
H187 H 0.14873 0.92427 0.95732 0.0
H188 H 0.33203 0.83927 0.98822 0.0
H189 H 0.31814 0.80126 0.05026 0.0
H190 H 0.34227 0.7115 0.05275 0.0
H191 H 0.4064 0.6438 0.04701 0.0
C192 C 0.86099 0.89539 0.96207 0.0
C193 C 0.90545 0.90093 0.99076 0.0
C194 C 0.81914 0.85702 0.95783 0.0
C195 C 0.8216 0.82332 0.98217 0.0
C196 C 0.86733 0.82785 0.0103 0.0
C197 C 0.90848 0.86651 0.01471 0.0
C198 C 0.77692 0.78372 0.97988 0.0
C199 C 0.72037 0.78777 0.9629 0.0
C200 C 0.67499 0.7528 0.96717 0.0
C201 C 0.62404 0.7427 0.94233 0.0
C202 C 0.58061 0.71045 0.9466 0.0
C203 C 0.58756 0.68827 0.97586 0.0
H204 H 0.71765 0.74046 0.01682 0.0
C205 C 0.63776 0.69958 0.0008 0.0
C206 C 0.68069 0.73158 -0.00339 0.0
H207 H 0.64368 0.68458 0.02398 0.0
H208 H 0.85783 0.92129 0.94313 0.0
H209 H 0.78523 0.85386 0.93557 0.0
H210 H 0.87034 0.80219 0.02935 0.0
H211 H 0.94253 0.86954 0.03697 0.0
H212 H 0.79033 0.75196 0.99529 0.0
H213 H 0.70618 0.81858 0.94682 0.0
H214 H 0.61815 0.75935 0.91958 0.0
H215 H 0.54233 0.70238 0.92694 0.0
C216 C 0.85811 0.11721 0.02947 0.0
C217 C 0.89297 0.12349 0.00936 0.0
C218 C 0.8149 0.15216 0.02972 0.0
C219 C 0.80746 0.19437 0.01051 0.0
C220 C 0.84296 0.20092 0.99086 0.0
C221 C 0.88472 0.16533 0.98987 0.0
C222 C 0.76433 0.2332 0.01095 0.0
C223 C 0.7087 0.22248 0.00951 0.0
C224 C 0.66535 0.26307 0.00299 0.0
C225 C 0.61499 0.25842 0.97719 0.0
C226 C 0.58177 0.30077 0.96566 0.0
C227 C 0.59821 0.34801 0.98012 0.0
H228 H 0.71689 0.31339 0.03939 0.0
C229 C 0.64533 0.35133 0.00782 0.0
C230 C 0.67857 0.30921 0.01916 0.0
H231 H 0.6593 0.38713 0.01951 0.0
H232 H 0.86389 0.0851 0.0447 0.0
H233 H 0.78831 0.14682 0.04533 0.0
H234 H 0.83792 0.23343 0.97598 0.0
H235 H 0.91145 0.1711 0.97437 0.0
H236 H 0.77686 0.27183 0.00832 0.0
H237 H 0.69377 0.1837 0.00822 0.0
H238 H 0.604 0.22298 0.96453 0.0
H239 H 0.54505 0.29706 0.94457 0.0
C240 C 0.69463 0.65393 0.54407 0.0
C241 C 0.64633 0.64516 0.51755 0.0
C242 C 0.73537 0.69162 0.54377 0.0
C243 C 0.72781 0.7215 0.51708 0.0
C244 C 0.67817 0.71409 0.49122 0.0
C245 C 0.63824 0.67586 0.49125 0.0
C246 C 0.76949 0.76211 0.51601 0.0
C247 C 0.82758 0.75832 0.52934 0.0
C248 C 0.86878 0.80103 0.53152 0.0
C249 C 0.85582 0.84165 0.51077 0.0
C250 C 0.89018 0.88527 0.5173 0.0
C251 C 0.93816 0.88886 0.5445 0.0
H252 H 0.9323 0.77151 0.57256 0.0
C253 C 0.95485 0.84626 0.56315 0.0
C254 C 0.9205 0.80269 0.55664 0.0
H255 H 0.99231 0.84779 0.58398 0.0
H256 H 0.70187 0.63068 0.5646 0.0
H257 H 0.7724 0.69756 0.56446 0.0
H258 H 0.67099 0.73718 0.47062 0.0
H259 H 0.60118 0.67002 0.47053 0.0
H260 H 0.75107 0.79592 0.50385 0.0
H261 H 0.84504 0.72401 0.54131 0.0
H262 H 0.81794 0.84088 0.49022 0.0
H263 H 0.8765 0.91742 0.50239 0.0
C264 C 0.71426 0.41494 0.50379 0.0
C265 C 0.68917 0.42731 0.52767 0.0
C266 C 0.76258 0.3834 0.50988 0.0
C267 C 0.78684 0.36369 0.54005 0.0
C268 C 0.76221 0.37666 0.56396 0.0
C269 C 0.71415 0.4084 0.55793 0.0
C270 C 0.83364 0.32566 0.5465 0.0
C271 C 0.87154 0.32086 0.52959 0.0
C272 C 0.91067 0.27715 0.53228 0.0
C273 C 0.89569 0.22998 0.54163 0.0
C274 C 0.92918 0.18801 0.54006 0.0
C275 C 0.97695 0.19186 0.52808 0.0
H276 H 0.97439 0.31766 0.51592 0.0
C277 C -0.00499 0.23945 0.52139 0.0
C278 C 0.96131 0.28162 0.52273 0.0
H279 H 0.03435 0.24389 0.51455 0.0
H280 H 0.69597 0.42888 0.48022 0.0
H281 H 0.77918 0.37312 0.49057 0.0
H282 H 0.77968 0.36158 0.58729 0.0
H283 H 0.69586 0.41724 0.57687 0.0
H284 H 0.83612 0.30021 0.56566 0.0
H285 H 0.87323 0.3492 0.5126 0.0
H286 H 0.85683 0.22465 0.54892 0.0
H287 H 0.91644 0.15215 0.54724 0.0
C288 C 0.39059 0.38487 0.51455 0.0
C289 C 0.42617 0.39045 0.4948 0.0
C290 C 0.34614 0.34864 0.50767 0.0
C291 C 0.3371 0.31688 0.48117 0.0
C292 C 0.37446 0.32074 0.46232 0.0
C293 C 0.41814 0.35776 0.46879 0.0
C294 C 0.28937 0.27912 0.4733 0.0
C295 C 0.23612 0.28994 0.47578 0.0
C296 C 0.18885 0.25214 0.47196 0.0
C297 C 0.20111 0.20134 0.47878 0.0
C298 C 0.1568 0.16841 0.48059 0.0
C299 C 0.09942 0.18548 0.4757 0.0
H300 H 0.12031 0.3074 0.45967 0.0
C301 C 0.08637 0.23529 0.46645 0.0
C302 C 0.13087 0.26842 0.465 0.0
H303 H 0.04283 0.24997 0.46238 0.0
H304 H 0.39578 0.40958 0.53473 0.0
H305 H 0.31882 0.34549 0.52308 0.0
H306 H 0.36868 0.29615 0.44203 0.0
H307 H 0.44522 0.36114 0.45327 0.0
H308 H 0.2979 0.24259 0.46458 0.0
H309 H 0.22696 0.32825 0.48149 0.0
H310 H 0.24534 0.18743 0.48467 0.0
H311 H 0.16827 0.13001 0.48716 0.0
C312 C 0.36084 0.61209 0.51654 0.0
C313 C 0.38446 0.60309 0.49163 0.0
C314 C 0.30962 0.63953 0.51183 0.0
C315 C 0.28137 0.65929 0.48214 0.0
C316 C 0.30391 0.64873 0.45702 0.0
C317 C 0.35495 0.6209 0.46168 0.0
C318 C 0.22998 0.69266 0.47663 0.0
C319 C 0.21789 0.71989 0.49963 0.0
C320 C 0.17583 0.76177 0.49277 0.0
C321 C 0.18814 0.80454 0.51241 0.0
C322 C 0.15608 0.84828 0.50369 0.0
C323 C 0.11057 0.84978 0.47531 0.0
H324 H 0.11482 0.72871 0.4509 0.0
C325 C 0.09464 0.80545 0.45723 0.0
C326 C 0.12696 0.76178 0.46587 0.0
H327 H 0.05872 0.80515 0.43568 0.0
H328 H 0.38185 0.59784 0.53976 0.0
H329 H 0.29261 0.64503 0.53156 0.0
H330 H 0.28277 0.66309 0.43384 0.0
H331 H 0.37175 0.61408 0.44195 0.0
H332 H 0.20563 0.69946 0.45231 0.0
H333 H 0.24528 0.71681 0.52373 0.0
H334 H 0.22514 0.80523 0.53348 0.0
H335 H 0.16962 0.88176 0.51814 0.0
C336 C 0.10096 0.01594 0.20106 0.0
C337 C 0.0718 0.98118 0.17761 0.0
C338 C 0.10219 0.00894 0.23232 0.0
C339 C 0.07458 0.96677 0.24059 0.0
C340 C 0.04784 0.93105 0.21728 0.0
C341 C 0.04599 0.93835 0.18609 0.0
C342 C 0.07262 0.95835 0.27309 0.0
C343 C 0.07295 -0.00428 0.29383 0.0
C344 C 0.06716 0.98656 0.3256 0.0
C345 C 0.09089 0.02166 0.34989 0.0
C346 C 0.08803 0.01321 0.3803 0.0
C347 C 0.06089 0.9696 0.38693 0.0
H348 H 0.01643 0.91722 0.31369 0.0
C349 C 0.03492 0.93558 0.36235 0.0
C350 C 0.03772 0.94402 0.332 0.0
H351 H 0.01262 0.90219 0.36665 0.0
H352 H 0.12132 0.04921 0.19509 0.0
H353 H 0.12482 0.03647 0.24984 0.0
H354 H 0.02693 0.89793 0.22308 0.0
H355 H 0.02389 0.91066 0.16848 0.0
H356 H 0.06809 0.91971 0.27948 0.0
H357 H 0.07798 0.03437 0.28762 0.0
H358 H 0.11307 0.05507 0.34551 0.0
H359 H 0.10875 0.03999 0.39881 0.0
C360 C -0.00306 0.08489 0.82386 0.0
C361 C 0.96257 0.0538 0.83669 0.0
C362 C 0.98799 0.08546 0.79145 0.0
C363 C 0.94449 0.05478 0.77127 0.0
C364 C 0.90828 0.02571 0.78394 0.0
C365 C 0.91742 0.02492 0.81632 0.0
C366 C 0.9369 0.0506 0.73713 0.0
C367 C 0.98194 0.05495 0.72501 0.0
C368 C 0.97733 0.0435 0.69168 0.0
C369 C 0.0207 0.06217 0.67933 0.0
C370 C 0.0203 0.04946 0.64876 0.0
C371 C 0.9767 0.01738 0.63002 0.0
H372 H 0.9001 -0.00492 0.68152 0.0
C373 C 0.93297 -0.00099 0.64223 0.0
C374 C 0.93337 0.01167 0.67276 0.0
H375 H 0.89849 0.97458 0.62822 0.0
H376 H 0.03105 0.1086 0.83888 0.0
H377 H 0.01528 0.1098 0.78237 0.0
H378 H 0.87423 0.00201 0.76884 0.0
H379 H 0.89041 0.00028 0.82542 0.0
H380 H 0.89381 0.0399 0.72213 0.0
H381 H 0.02493 0.06555 0.74028 0.0
H382 H 0.05543 0.08626 0.69349 0.0
H383 H 0.0549 0.06379 0.64006 0.0
C384 C 0.51812 0.47891 0.68676 0.0
C385 C 0.5527 0.51453 0.67727 0.0
C386 C 0.51846 0.47659 0.71809 0.0
C387 C 0.55398 0.50959 0.74085 0.0
C388 C 0.58819 0.54544 0.73132 0.0
C389 C 0.58784 0.54776 0.69992 0.0
C390 C 0.55509 0.50876 0.77442 0.0
C391 C 0.54133 0.46765 0.78821 0.0
C392 C 0.54177 0.46541 0.82168 0.0
C393 C 0.51549 0.42367 0.83114 0.0
C394 C 0.5163 0.41856 0.8624 0.0
C395 C 0.54358 0.45511 0.88508 0.0
H396 H 0.59085 0.53453 0.83861 0.0
C397 C 0.56944 0.4972 0.8757 0.0
C398 C 0.56878 0.50229 0.84441 0.0
H399 H 0.59182 0.52552 0.89276 0.0
H400 H 0.4908 0.45253 0.66996 0.0
H401 H 0.48992 0.44946 0.72408 0.0
H402 H 0.61547 0.5717 0.74825 0.0
H403 H 0.61433 0.57613 0.69331 0.0
H404 H 0.56861 0.54314 0.78795 0.0
H405 H 0.52913 0.43326 0.77444 0.0
H406 H 0.49439 0.39461 0.81428 0.0
H407 H 0.49565 0.38586 0.86886 0.0
C408 C 0.47509 0.49273 0.31688 0.0
C409 C 0.51329 0.52457 0.3392 0.0
C410 C 0.47052 0.49639 0.28504 0.0
C411 C 0.50404 0.5321 0.27479 0.0
C412 C 0.54267 0.56349 0.29706 0.0
C413 C 0.54696 0.56008 0.32891 0.0
C414 C 0.50218 0.53542 0.24134 0.0
C415 C 0.45404 0.52378 0.21754 0.0
C416 C 0.45279 0.52119 0.18403 0.0
C417 C 0.40847 0.49248 0.16307 0.0
C418 C 0.40798 0.48532 0.13193 0.0
C419 C 0.45175 0.50699 0.121 0.0
H420 H 0.52865 0.56904 0.18762 0.0
C421 C 0.49444 0.53789 0.14146 0.0
C422 C 0.49494 0.54508 0.17266 0.0
H423 H 0.52857 0.55527 0.13363 0.0
H424 H 0.44955 0.46419 0.32407 0.0
H425 H 0.44194 0.47021 0.2687 0.0
H426 H 0.56933 0.59098 0.28978 0.0
H427 H 0.57632 0.5856 0.34542 0.0
H428 H 0.54215 0.54712 0.23662 0.0
H429 H 0.41425 0.51292 0.22286 0.0
H430 H 0.37495 0.47425 0.17102 0.0
H431 H 0.3737 0.46226 0.1165 0.0
loop_
_geom_bond_atom_site_label_1
_geom_bond_atom_site_label_2
_geom_bond_distance
_geom_bond_site_symmetry_2
_ccdc_geom_bond_type
C0 O16 1.251 . S
C0 O18 1.254 1_554 S
N1 C2 1.335 . S
N1 C6 1.307 . S
N1 Zn7 2.020 . S
C2 N1 1.335 . S
C2 C3 1.379 1_545 S
C2 H20 0.949 1_445 S
C3 C2 1.379 1_565 S
C3 C4 1.384 1_565 S
C3 H30 0.956 1_455 S
C4 C3 1.384 1_545 S
C4 C5 1.357 . S
C5 C4 1.357 . S
C5 C6 1.370 . S
C5 H31 0.950 . S
C6 N1 1.307 . S
C6 C5 1.370 . S
C6 H24 0.948 . S
Zn7 N1 2.020 . S
Zn7 O16 2.039 1_445 S
Zn7 O22 2.034 1_455 S
Zn7 O26 2.025 . S
Zn7 O28 2.024 1_545 S
C8 O27 1.246 1_554 S
C8 O28 1.249 . S
N9 C10 1.311 1_455 S
N9 C11 1.333 . S
N9 Zn15 2.020 . S
C10 N9 1.311 1_655 S
C10 C14 1.371 . S
C10 H21 0.944 1_545 S
C11 N9 1.333 . S
C11 C12 1.379 . S
C11 H19 0.952 . S
C12 C11 1.379 . S
C12 C13 1.390 1_455 S
C12 H32 0.949 . S
C13 C12 1.390 1_655 S
C13 C14 1.357 . S
C14 C10 1.371 . S
C14 C13 1.357 . S
C14 H33 0.950 1_545 S
Zn15 N9 2.020 . S
Zn15 O18 2.025 1_445 S
Zn15 O23 2.024 1_455 S
Zn15 O25 2.039 . S
Zn15 O27 2.034 1_545 S
O16 C0 1.251 . S
O16 Zn7 2.039 1_665 S
C17 O22 1.246 . S
C17 O23 1.249 1_554 S
O18 C0 1.254 1_556 S
O18 Zn15 2.025 1_665 S
H19 C11 0.952 . S
H20 C2 0.949 1_665 S
H21 C10 0.944 1_565 S
O22 Zn7 2.034 1_655 S
O22 C17 1.246 . S
O23 Zn15 2.024 1_655 S
O23 C17 1.249 1_556 S
H24 C6 0.948 . S
O25 Zn15 2.039 . S
O25 C29 1.251 1_556 S
O26 Zn7 2.025 . S
O26 C29 1.254 . S
O27 C8 1.246 1_556 S
O27 Zn15 2.034 1_565 S
O28 Zn7 2.024 1_565 S
O28 C8 1.249 . S
C29 O25 1.251 1_554 S
C29 O26 1.254 . S
H30 C3 0.956 1_655 S
H31 C5 0.950 . S
H32 C12 0.949 . S
H33 C14 0.950 1_565 S
C34 O50 1.251 . S
C34 O52 1.254 . S
N35 C36 1.333 . S
N35 C40 1.307 . S
N35 Zn41 2.020 . S
C36 N35 1.333 . S
C36 C37 1.379 . S
C36 H54 0.952 . S
C37 C36 1.379 . S
C37 C38 1.390 . S
C37 H64 0.949 . S
C38 C37 1.390 . S
C38 C39 1.357 . S
C39 C38 1.357 . S
C39 C40 1.370 . S
C39 H65 0.950 . S
C40 N35 1.307 . S
C40 C39 1.370 . S
C40 H58 0.948 . S
Zn41 N35 2.020 . S
Zn41 O50 2.039 . S
Zn41 O56 2.034 . S
Zn41 O60 2.025 . S
Zn41 O62 2.024 . S
C42 O61 1.246 . S
C42 O62 1.249 . S
N43 C44 1.307 . S
N43 C45 1.333 . S
N43 Zn49 2.020 . S
C44 N43 1.307 . S
C44 C48 1.370 . S
C44 H55 0.948 . S
C45 N43 1.333 . S
C45 C46 1.379 . S
C45 H53 0.952 . S
C46 C45 1.379 . S
C46 C47 1.390 . S
C46 H66 0.949 . S
C47 C46 1.390 . S
C47 C48 1.357 . S
C48 C44 1.370 . S
C48 C47 1.357 . S
C48 H67 0.950 . S
Zn49 N43 2.020 . S
Zn49 O52 2.025 . S
Zn49 O57 2.024 . S
Zn49 O59 2.039 . S
Zn49 O61 2.034 . S
O50 C34 1.251 . S
O50 Zn41 2.039 . S
C51 O56 1.246 . S
C51 O57 1.249 . S
O52 C34 1.254 . S
O52 Zn49 2.025 . S
H53 C45 0.952 . S
H54 C36 0.952 . S
H55 C44 0.948 . S
O56 Zn41 2.034 . S
O56 C51 1.246 . S
O57 Zn49 2.024 . S
O57 C51 1.249 . S
H58 C40 0.948 . S
O59 Zn49 2.039 . S
O59 C63 1.251 . S
O60 Zn41 2.025 . S
O60 C63 1.254 . S
O61 C42 1.246 . S
O61 Zn49 2.034 . S
O62 Zn41 2.024 . S
O62 C42 1.249 . S
C63 O59 1.251 . S
C63 O60 1.254 . S
H64 C37 0.949 . S
H65 C39 0.950 . S
H66 C46 0.949 . S
H67 C48 0.950 . S
H68 C69 0.949 . S
C69 H68 0.949 . S
C69 C70 1.395 . S
C69 C71 1.391 . S
C70 C69 1.395 . S
C70 C73 1.390 1_545 S
C71 C69 1.391 . S
C71 C75 1.387 1_545 S
C71 C76 1.491 . S
H72 C73 0.950 . S
C73 C70 1.390 1_565 S
C73 H72 0.950 . S
C73 C74 1.378 . S
C74 C73 1.378 . S
C74 C75 1.409 . S
C75 C71 1.387 1_565 S
C75 C74 1.409 . S
C75 H77 0.951 . S
C76 C71 1.491 . S
C76 C78 1.382 1_455 S
C76 C80 1.404 . S
H77 C75 0.951 . S
C78 C76 1.382 1_655 S
C78 C79 1.390 . S
C78 H83 0.949 . S
C79 C78 1.390 . S
C79 C84 1.399 1_655 S
C80 C76 1.404 . S
C80 H81 0.950 . S
C80 C82 1.375 . S
H81 C80 0.950 . S
C82 C80 1.375 . S
C82 C84 1.382 . S
C82 H86 0.950 . S
H83 C78 0.949 . S
C84 C79 1.399 1_455 S
C84 C82 1.382 . S
C84 H85 0.952 . S
H85 C84 0.952 . S
H86 C82 0.950 . S
H87 C88 0.950 1_455 S
C88 H87 0.950 1_655 S
C88 C89 1.394 . S
C88 C90 1.391 . S
C89 C88 1.394 . S
C89 C92 1.390 1_545 S
C90 C88 1.391 . S
C90 C94 1.387 1_545 S
C90 C95 1.491 1_655 S
H91 C92 0.950 . S
C92 C89 1.390 1_565 S
C92 H91 0.950 . S
C92 C93 1.378 . S
C93 C92 1.378 . S
C93 C94 1.409 . S
C94 C90 1.387 1_565 S
C94 C93 1.409 . S
C94 H96 0.951 . S
C95 C90 1.491 1_455 S
C95 C97 1.382 . S
C95 C99 1.404 1_455 S
H96 C94 0.951 . S
C97 C95 1.382 . S
C97 C98 1.390 . S
C97 H102 0.949 . S
C98 C97 1.390 . S
C98 C103 1.399 . S
C99 C95 1.404 1_655 S
C99 H100 0.950 . S
C99 C101 1.375 . S
H100 C99 0.950 . S
C101 C99 1.375 . S
C101 C103 1.382 1_655 S
C101 H105 0.950 . S
H102 C97 0.949 . S
C103 C98 1.399 . S
C103 C101 1.382 1_455 S
C103 H104 0.952 . S
H104 C103 0.952 . S
H105 C101 0.950 . S
H106 C107 0.949 . S
C107 H106 0.949 . S
C107 C108 1.395 . S
C107 C109 1.391 . S
C108 C107 1.395 . S
C108 C111 1.390 . S
C109 C107 1.391 . S
C109 C113 1.387 1_556 S
C109 C114 1.491 1_556 S
H110 C111 0.950 . S
C111 C108 1.390 . S
C111 H110 0.950 . S
C111 C112 1.378 . S
C112 C111 1.378 . S
C112 C113 1.409 1_556 S
C113 C109 1.387 1_554 S
C113 C112 1.409 1_554 S
C113 H115 0.951 . S
C114 C109 1.491 1_554 S
C114 C116 1.382 . S
C114 C118 1.404 . S
H115 C113 0.951 . S
C116 C114 1.382 . S
C116 C117 1.390 . S
C116 H121 0.949 1_554 S
C117 C116 1.390 . S
C117 C122 1.399 . S
C118 C114 1.404 . S
C118 H119 0.950 . S
C118 C120 1.375 . S
H119 C118 0.950 . S
C120 C118 1.375 . S
C120 C122 1.382 . S
C120 H124 0.950 . S
H121 C116 0.949 1_556 S
C122 C117 1.399 . S
C122 C120 1.382 . S
C122 H123 0.952 . S
H123 C122 0.952 . S
H124 C120 0.950 . S
H125 C126 0.949 . S
C126 H125 0.949 . S
C126 C127 1.395 . S
C126 C128 1.391 . S
C127 C126 1.395 . S
C127 C130 1.390 . S
C128 C126 1.391 . S
C128 C132 1.387 . S
C128 C133 1.491 . S
H129 C130 0.950 . S
C130 C127 1.390 . S
C130 H129 0.950 . S
C130 C131 1.378 . S
C131 C130 1.378 . S
C131 C132 1.409 . S
C132 C128 1.387 . S
C132 C131 1.409 . S
C132 H134 0.951 1_554 S
C133 C128 1.491 . S
C133 C135 1.382 . S
C133 C137 1.404 1_554 S
H134 C132 0.951 1_556 S
C135 C133 1.382 . S
C135 C136 1.390 . S
C135 H140 0.949 . S
C136 C135 1.390 . S
C136 C141 1.399 1_554 S
C137 C133 1.404 1_556 S
C137 H138 0.950 . S
C137 C139 1.375 . S
H138 C137 0.950 . S
C139 C137 1.375 . S
C139 C141 1.382 . S
C139 H143 0.950 . S
H140 C135 0.949 . S
C141 C136 1.399 1_556 S
C141 C139 1.382 . S
C141 H142 0.952 . S
H142 C141 0.952 . S
H143 C139 0.950 . S
C144 C145 1.386 . S
C144 C146 1.383 . S
C144 H160 0.951 1_554 S
C145 C144 1.386 . S
C145 C149 1.383 . S
C146 C144 1.383 . S
C146 C147 1.402 . S
C146 H161 0.951 . S
C147 C146 1.402 . S
C147 C148 1.375 . S
C147 C150 1.481 . S
C148 C147 1.375 . S
C148 C149 1.367 . S
C148 H162 0.951 . S
C149 C145 1.383 . S
C149 C148 1.367 . S
C149 H163 0.950 . S
C150 C147 1.481 . S
C150 C151 1.297 . S
C150 H164 0.950 . S
C151 C150 1.297 . S
C151 C152 1.479 . S
C151 H165 0.950 . S
C152 C151 1.479 . S
C152 C153 1.375 . S
C152 C158 1.404 . S
C153 C152 1.375 . S
C153 C154 1.369 . S
C153 H166 0.950 . S
C154 C153 1.369 . S
C154 C155 1.392 . S
C154 H167 0.951 . S
C155 C154 1.392 . S
C155 C157 1.384 . S
H156 C158 0.949 . S
C157 C155 1.384 . S
C157 C158 1.385 . S
C157 H159 0.950 . S
C158 C152 1.404 . S
C158 H156 0.949 . S
C158 C157 1.385 . S
H159 C157 0.950 . S
H160 C144 0.951 1_556 S
H161 C146 0.951 . S
H162 C148 0.951 . S
H163 C149 0.950 . S
H164 C150 0.950 . S
H165 C151 0.950 . S
H166 C153 0.950 . S
H167 C154 0.951 . S
C168 C169 1.386 . S
C168 C170 1.383 . S
C168 H184 0.951 . S
C169 C168 1.386 . S
C169 C173 1.383 1_554 S
C170 C168 1.383 . S
C170 C171 1.402 . S
C170 H185 0.951 . S
C171 C170 1.402 . S
C171 C172 1.375 1_554 S
C171 C174 1.481 1_554 S
C172 C171 1.375 1_556 S
C172 C173 1.367 . S
C172 H186 0.951 . S
C173 C169 1.383 1_556 S
C173 C172 1.367 . S
C173 H187 0.950 . S
C174 C171 1.481 1_556 S
C174 C175 1.297 1_556 S
C174 H188 0.950 . S
C175 C174 1.297 1_554 S
C175 C176 1.479 . S
C175 H189 0.950 . S
C176 C175 1.479 . S
C176 C177 1.375 . S
C176 C182 1.404 1_554 S
C177 C176 1.375 . S
C177 C178 1.369 . S
C177 H190 0.950 . S
C178 C177 1.369 . S
C178 C179 1.392 . S
C178 H191 0.951 . S
C179 C178 1.392 . S
C179 C181 1.384 1_554 S
H180 C182 0.949 . S
C181 C179 1.384 1_556 S
C181 C182 1.385 . S
C181 H183 0.950 . S
C182 C176 1.404 1_556 S
C182 H180 0.949 . S
C182 C181 1.385 . S
H183 C181 0.950 . S
H184 C168 0.951 . S
H185 C170 0.951 . S
H186 C172 0.951 . S
H187 C173 0.950 . S
H188 C174 0.950 . S
H189 C175 0.950 . S
H190 C177 0.950 . S
H191 C178 0.951 . S
C192 C193 1.386 1_556 S
C192 C194 1.383 . S
C192 H208 0.951 . S
C193 C192 1.386 1_554 S
C193 C197 1.383 . S
C194 C192 1.383 . S
C194 C195 1.402 1_556 S
C194 H209 0.951 . S
C195 C194 1.402 1_554 S
C195 C196 1.375 . S
C195 C198 1.481 . S
C196 C195 1.375 . S
C196 C197 1.367 . S
C196 H210 0.951 . S
C197 C193 1.383 . S
C197 C196 1.367 . S
C197 H211 0.950 . S
C198 C195 1.481 . S
C198 C199 1.297 . S
C198 H212 0.950 . S
C199 C198 1.297 . S
C199 C200 1.479 . S
C199 H213 0.950 1_554 S
C200 C199 1.479 . S
C200 C201 1.375 1_554 S
C200 C206 1.404 . S
C201 C200 1.375 1_556 S
C201 C202 1.369 . S
C201 H214 0.950 . S
C202 C201 1.369 . S
C202 C203 1.392 1_556 S
C202 H215 0.951 . S
C203 C202 1.392 1_554 S
C203 C205 1.384 . S
H204 C206 0.949 . S
C205 C203 1.384 . S
C205 C206 1.385 . S
C205 H207 0.950 . S
C206 C200 1.404 . S
C206 H204 0.949 . S
C206 C205 1.385 . S
H207 C205 0.950 . S
H208 C192 0.951 . S
H209 C194 0.951 . S
H210 C196 0.951 . S
H211 C197 0.950 . S
H212 C198 0.950 . S
H213 C199 0.950 1_556 S
H214 C201 0.950 . S
H215 C202 0.951 . S
C216 C217 1.386 . S
C216 C218 1.383 . S
C216 H232 0.951 . S
C217 C216 1.386 . S
C217 C221 1.383 1_554 S
C218 C216 1.383 . S
C218 C219 1.402 . S
C218 H233 0.951 . S
C219 C218 1.402 . S
C219 C220 1.375 1_554 S
C219 C222 1.481 . S
C220 C219 1.375 1_556 S
C220 C221 1.367 . S
C220 H234 0.951 . S
C221 C217 1.383 1_556 S
C221 C220 1.367 . S
C221 H235 0.950 . S
C222 C219 1.481 . S
C222 C223 1.297 . S
C222 H236 0.950 1_554 S
C223 C222 1.297 . S
C223 C224 1.479 . S
C223 H237 0.950 . S
C224 C223 1.479 . S
C224 C225 1.375 . S
C224 C230 1.388 1_554 S
C225 C224 1.375 . S
C225 C226 1.369 . S
C225 H238 0.950 . S
C226 C225 1.369 . S
C226 C227 1.392 1_554 S
C226 H239 0.951 . S
C227 C226 1.392 1_556 S
C227 C229 1.384 . S
H228 C230 0.965 . S
C229 C227 1.384 . S
C229 C230 1.386 . S
C229 H231 0.950 . S
C230 C224 1.388 1_556 S
C230 H228 0.965 . S
C230 C229 1.386 . S
H231 C229 0.950 . S
H232 C216 0.951 . S
H233 C218 0.951 . S
H234 C220 0.951 . S
H235 C221 0.950 . S
H236 C222 0.950 1_556 S
H237 C223 0.950 . S
H238 C225 0.950 . S
H239 C226 0.951 . S
C240 C241 1.386 . S
C240 C242 1.383 . S
C240 H256 0.951 . S
C241 C240 1.386 . S
C241 C245 1.383 . S
C242 C240 1.383 . S
C242 C243 1.402 . S
C242 H257 0.951 . S
C243 C242 1.402 . S
C243 C244 1.375 . S
C243 C246 1.481 . S
C244 C243 1.375 . S
C244 C245 1.367 . S
C244 H258 0.951 . S
C245 C241 1.383 . S
C245 C244 1.367 . S
C245 H259 0.950 . S
C246 C243 1.481 . S
C246 C247 1.297 . S
C246 H260 0.950 . S
C247 C246 1.297 . S
C247 C248 1.479 . S
C247 H261 0.950 . S
C248 C247 1.479 . S
C248 C249 1.375 . S
C248 C254 1.404 . S
C249 C248 1.375 . S
C249 C250 1.369 . S
C249 H262 0.950 . S
C250 C249 1.369 . S
C250 C251 1.392 . S
C250 H263 0.951 . S
C251 C250 1.392 . S
C251 C253 1.384 . S
H252 C254 0.949 . S
C253 C251 1.384 . S
C253 C254 1.385 . S
C253 H255 0.950 . S
C254 C248 1.404 . S
C254 H252 0.949 . S
C254 C253 1.385 . S
H255 C253 0.950 . S
H256 C240 0.951 . S
H257 C242 0.951 . S
H258 C244 0.951 . S
H259 C245 0.950 . S
H260 C246 0.950 . S
H261 C247 0.950 . S
H262 C249 0.950 . S
H263 C250 0.951 . S
C264 C265 1.386 . S
C264 C266 1.383 . S
C264 H280 0.951 . S
C265 C264 1.386 . S
C265 C269 1.383 . S
C266 C264 1.383 . S
C266 C267 1.402 . S
C266 H281 0.951 . S
C267 C266 1.402 . S
C267 C268 1.375 . S
C267 C270 1.481 . S
C268 C267 1.375 . S
C268 C269 1.367 . S
C268 H282 0.951 . S
C269 C265 1.383 . S
C269 C268 1.367 . S
C269 H283 0.950 . S
C270 C267 1.481 . S
C270 C271 1.297 . S
C270 H284 0.950 . S
C271 C270 1.297 . S
C271 C272 1.479 . S
C271 H285 0.950 . S
C272 C271 1.479 . S
C272 C273 1.375 . S
C272 C278 1.404 . S
C273 C272 1.375 . S
C273 C274 1.369 . S
C273 H286 0.950 . S
C274 C273 1.369 . S
C274 C275 1.392 . S
C274 H287 0.951 . S
C275 C274 1.392 . S
C275 C277 1.384 . S
H276 C278 0.949 . S
C277 C275 1.384 . S
C277 C278 1.385 . S
C277 H279 0.950 . S
C278 C272 1.404 . S
C278 H276 0.949 . S
C278 C277 1.385 . S
H279 C277 0.950 . S
H280 C264 0.951 . S
H281 C266 0.951 . S
H282 C268 0.951 . S
H283 C269 0.950 . S
H284 C270 0.950 . S
H285 C271 0.950 . S
H286 C273 0.950 . S
H287 C274 0.951 . S
C288 C289 1.386 . S
C288 C290 1.383 . S
C288 H304 0.951 . S
C289 C288 1.386 . S
C289 C293 1.383 . S
C290 C288 1.383 . S
C290 C291 1.402 . S
C290 H305 0.951 . S
C291 C290 1.402 . S
C291 C292 1.375 . S
C291 C294 1.481 . S
C292 C291 1.375 . S
C292 C293 1.367 . S
C292 H306 0.951 . S
C293 C289 1.383 . S
C293 C292 1.367 . S
C293 H307 0.950 . S
C294 C291 1.481 . S
C294 C295 1.297 . S
C294 H308 0.950 . S
C295 C294 1.297 . S
C295 C296 1.479 . S
C295 H309 0.950 . S
C296 C295 1.479 . S
C296 C297 1.375 . S
C296 C302 1.404 . S
C297 C296 1.375 . S
C297 C298 1.369 . S
C297 H310 0.950 . S
C298 C297 1.369 . S
C298 C299 1.392 . S
C298 H311 0.951 . S
C299 C298 1.392 . S
C299 C301 1.384 . S
H300 C302 0.949 . S
C301 C299 1.384 . S
C301 C302 1.385 . S
C301 H303 0.950 . S
C302 C296 1.404 . S
C302 H300 0.949 . S
C302 C301 1.385 . S
H303 C301 0.950 . S
H304 C288 0.951 . S
H305 C290 0.951 . S
H306 C292 0.951 . S
H307 C293 0.950 . S
H308 C294 0.950 . S
H309 C295 0.950 . S
H310 C297 0.950 . S
H311 C298 0.951 . S
C312 C313 1.386 . S
C312 C314 1.383 . S
C312 H328 0.951 . S
C313 C312 1.386 . S
C313 C317 1.383 . S
C314 C312 1.383 . S
C314 C315 1.402 . S
C314 H329 0.951 . S
C315 C314 1.402 . S
C315 C316 1.375 . S
C315 C318 1.481 . S
C316 C315 1.375 . S
C316 C317 1.367 . S
C316 H330 0.951 . S
C317 C313 1.383 . S
C317 C316 1.367 . S
C317 H331 0.950 . S
C318 C315 1.481 . S
C318 C319 1.297 . S
C318 H332 0.950 . S
C319 C318 1.297 . S
C319 C320 1.479 . S
C319 H333 0.950 . S
C320 C319 1.479 . S
C320 C321 1.375 . S
C320 C326 1.404 . S
C321 C320 1.375 . S
C321 C322 1.369 . S
C321 H334 0.950 . S
C322 C321 1.369 . S
C322 C323 1.392 . S
C322 H335 0.951 . S
C323 C322 1.392 . S
C323 C325 1.384 . S
H324 C326 0.949 . S
C325 C323 1.384 . S
C325 C326 1.385 . S
C325 H327 0.950 . S
C326 C320 1.404 . S
C326 H324 0.949 . S
C326 C325 1.385 . S
H327 C325 0.950 . S
H328 C312 0.951 . S
H329 C314 0.951 . S
H330 C316 0.951 . S
H331 C317 0.950 . S
H332 C318 0.950 . S
H333 C319 0.950 . S
H334 C321 0.950 . S
H335 C322 0.951 . S
C336 C337 1.386 . S
C336 C338 1.383 . S
C336 H352 0.951 . S
C337 C336 1.386 . S
C337 C341 1.383 1_545 S
C338 C336 1.383 . S
C338 C339 1.402 . S
C338 H353 0.951 . S
C339 C338 1.402 . S
C339 C340 1.375 1_545 S
C339 C342 1.481 . S
C340 C339 1.375 1_565 S
C340 C341 1.367 . S
C340 H354 0.951 1_455 S
C341 C337 1.383 1_565 S
C341 C340 1.367 . S
C341 H355 0.950 . S
C342 C339 1.481 . S
C342 C343 1.297 . S
C342 H356 0.950 1_545 S
C343 C342 1.297 . S
C343 C344 1.479 . S
C343 H357 0.950 . S
C344 C343 1.479 . S
C344 C345 1.375 . S
C344 C350 1.404 1_545 S
C345 C344 1.375 . S
C345 C346 1.369 . S
C345 H358 0.950 . S
C346 C345 1.369 . S
C346 C347 1.392 . S
C346 H359 0.951 . S
C347 C346 1.392 . S
C347 C349 1.384 1_545 S
H348 C350 0.949 1_655 S
C349 C347 1.384 1_565 S
C349 C350 1.385 . S
C349 H351 0.950 . S
C350 C344 1.404 1_565 S
C350 H348 0.949 1_455 S
C350 C349 1.385 . S
H351 C349 0.950 . S
H352 C336 0.951 . S
H353 C338 0.951 . S
H354 C340 0.951 1_655 S
H355 C341 0.950 . S
H356 C342 0.950 1_565 S
H357 C343 0.950 . S
H358 C345 0.950 . S
H359 C346 0.951 . S
C360 C361 1.386 1_455 S
C360 C362 1.383 . S
C360 H376 0.951 . S
C361 C360 1.386 1_655 S
C361 C365 1.383 1_545 S
C362 C360 1.383 . S
C362 C363 1.402 1_445 S
C362 H377 0.951 . S
C363 C362 1.402 1_665 S
C363 C364 1.375 . S
C363 C366 1.481 . S
C364 C363 1.375 . S
C364 C365 1.367 . S
C364 H378 0.951 . S
C365 C361 1.383 1_565 S
C365 C364 1.367 . S
C365 H379 0.950 . S
C366 C363 1.481 . S
C366 C367 1.297 1_665 S
C366 H380 0.950 . S
C367 C366 1.297 1_445 S
C367 C368 1.479 . S
C367 H381 0.950 . S
C368 C367 1.479 . S
C368 C369 1.375 . S
C368 C374 1.404 1_445 S
C369 C368 1.375 . S
C369 C370 1.369 . S
C369 H382 0.950 . S
C370 C369 1.369 . S
C370 C371 1.392 1_455 S
C370 H383 0.951 . S
C371 C370 1.392 1_655 S
C371 C373 1.384 1_545 S
H372 C374 0.949 . S
C373 C371 1.384 1_565 S
C373 C374 1.385 . S
C373 H375 0.950 . S
C374 C368 1.404 1_665 S
C374 H372 0.949 . S
C374 C373 1.385 . S
H375 C373 0.950 . S
H376 C360 0.951 . S
H377 C362 0.951 . S
H378 C364 0.951 . S
H379 C365 0.950 . S
H380 C366 0.950 . S
H381 C367 0.950 . S
H382 C369 0.950 . S
H383 C370 0.951 . S
C384 C385 1.386 . S
C384 C386 1.383 . S
C384 H400 0.951 . S
C385 C384 1.386 . S
C385 C389 1.383 . S
C386 C384 1.383 . S
C386 C387 1.402 . S
C386 H401 0.951 . S
C387 C386 1.402 . S
C387 C388 1.375 . S
C387 C390 1.481 . S
C388 C387 1.375 . S
C388 C389 1.367 . S
C388 H402 0.951 . S
C389 C385 1.383 . S
C389 C388 1.367 . S
C389 H403 0.950 . S
C390 C387 1.481 . S
C390 C391 1.297 . S
C390 H404 0.950 . S
C391 C390 1.297 . S
C391 C392 1.479 . S
C391 H405 0.950 . S
C392 C391 1.479 . S
C392 C393 1.375 . S
C392 C398 1.404 . S
C393 C392 1.375 . S
C393 C394 1.369 . S
C393 H406 0.950 . S
C394 C393 1.369 . S
C394 C395 1.392 . S
C394 H407 0.951 . S
C395 C394 1.392 . S
C395 C397 1.384 . S
H396 C398 0.949 . S
C397 C395 1.384 . S
C397 C398 1.385 . S
C397 H399 0.950 . S
C398 C392 1.404 . S
C398 H396 0.949 . S
C398 C397 1.385 . S
H399 C397 0.950 . S
H400 C384 0.951 . S
H401 C386 0.951 . S
H402 C388 0.951 . S
H403 C389 0.950 . S
H404 C390 0.950 . S
H405 C391 0.950 . S
H406 C393 0.950 . S
H407 C394 0.951 . S
C408 C409 1.386 . S
C408 C410 1.383 . S
C408 H424 0.951 . S
C409 C408 1.386 . S
C409 C413 1.383 . S
C410 C408 1.383 . S
C410 C411 1.402 . S
C410 H425 0.951 . S
C411 C410 1.402 . S
C411 C412 1.375 . S
C411 C414 1.481 . S
C412 C411 1.375 . S
C412 C413 1.367 . S
C412 H426 0.951 . S
C413 C409 1.383 . S
C413 C412 1.367 . S
C413 H427 0.950 . S
C414 C411 1.481 . S
C414 C415 1.297 . S
C414 H428 0.950 . S
C415 C414 1.297 . S
C415 C416 1.479 . S
C415 H429 0.950 . S
C416 C415 1.479 . S
C416 C417 1.375 . S
C416 C422 1.404 . S
C417 C416 1.375 . S
C417 C418 1.369 . S
C417 H430 0.950 . S
C418 C417 1.369 . S
C418 C419 1.392 . S
C418 H431 0.951 . S
C419 C418 1.392 . S
C419 C421 1.384 . S
H420 C422 0.949 . S
C421 C419 1.384 . S
C421 C422 1.385 . S
C421 H423 0.950 . S
C422 C416 1.404 . S
C422 H420 0.949 . S
C422 C421 1.385 . S
H423 C421 0.950 . S
H424 C408 0.951 . S
H425 C410 0.951 . S
H426 C412 0.951 . S
H427 C413 0.950 . S
H428 C414 0.950 . S
H429 C415 0.950 . S
H430 C417 0.950 . S
H431 C418 0.951 . S
C155 C131 1.489 . S
C145 C29 1.557 . S
C169 C8 1.385 . S
C179 C117 1.391 . S
C193 C0 1.392 . S
C203 C136 1.395 . S
C217 C17 1.562 . S
C227 C112 1.556 . S
C241 C63 1.558 . S
C251 C93 1.506 . S
C265 C42 1.375 . S
C275 C79 1.365 . S
C299 C98 1.342 . S
C289 C34 1.390 . S
C323 C74 1.491 . S
C313 C51 1.558 . S
C337 C4 1.547 . S
C347 C70 1.554 . S
C361 C13 1.535 . S
C371 C89 1.518 . S
C395 C108 1.508 . S
C385 C38 1.549 . S
C409 C47 1.541 . S
C419 C127 1.529 . S
