# Generated by pormake.
# Topology pyr, (3,6)-cn, num edge types: 1
# Building blocks:
#     Node 0, Type 0, BuildingBlock: CUQRIR_clean_linker_1, # of connection points: 3
#     Node 1, Type 0, BuildingBlock: CUQRIR_clean_linker_1, # of connection points: 3
#     Node 2, Type 0, BuildingBlock: CUQRIR_clean_linker_1, # of connection points: 3
#     Node 3, Type 0, BuildingBlock: CUQRIR_clean_linker_1, # of connection points: 3
#     Node 4, Type 0, BuildingBlock: CUQRIR_clean_linker_1, # of connection points: 3
#     Node 5, Type 0, BuildingBlock: CUQRIR_clean_linker_1, # of connection points: 3
#     Node 6, Type 0, BuildingBlock: CUQRIR_clean_linker_1, # of connection points: 3
#     Node 7, Type 0, BuildingBlock: CUQRIR_clean_linker_1, # of connection points: 3
#     Node 8, Type 1, BuildingBlock: BETDEL_clean_sbu_0, # of connection points: 6
#     Node 9, Type 1, BuildingBlock: BETDEL_clean_sbu_0, # of connection points: 6
#     Node 10, Type 1, BuildingBlock: BETDEL_clean_sbu_0, # of connection points: 6
#     Node 11, Type 1, BuildingBlock: BETDEL_clean_sbu_0, # of connection points: 6
#     Edge 12, Type (0, 1), BuildingBlock: CIFDUS_clean_linker_0, # of connection points: 2
#     Edge 13, Type (0, 1), BuildingBlock: CIFDUS_clean_linker_0, # of connection points: 2
#     Edge 14, Type (0, 1), BuildingBlock: CIFDUS_clean_linker_0, # of connection points: 2
#     Edge 15, Type (0, 1), BuildingBlock: CIFDUS_clean_linker_0, # of connection points: 2
#     Edge 16, Type (0, 1), BuildingBlock: CIFDUS_clean_linker_0, # of connection points: 2
#     Edge 17, Type (0, 1), BuildingBlock: CIFDUS_clean_linker_0, # of connection points: 2
#     Edge 18, Type (0, 1), BuildingBlock: CIFDUS_clean_linker_0, # of connection points: 2
#     Edge 19, Type (0, 1), BuildingBlock: CIFDUS_clean_linker_0, # of connection points: 2
#     Edge 20, Type (0, 1), BuildingBlock: CIFDUS_clean_linker_0, # of connection points: 2
#     Edge 21, Type (0, 1), BuildingBlock: CIFDUS_clean_linker_0, # of connection points: 2
#     Edge 22, Type (0, 1), BuildingBlock: CIFDUS_clean_linker_0, # of connection points: 2
#     Edge 23, Type (0, 1), BuildingBlock: CIFDUS_clean_linker_0, # of connection points: 2
#     Edge 24, Type (0, 1), BuildingBlock: CIFDUS_clean_linker_0, # of connection points: 2
#     Edge 25, Type (0, 1), BuildingBlock: CIFDUS_clean_linker_0, # of connection points: 2
#     Edge 26, Type (0, 1), BuildingBlock: CIFDUS_clean_linker_0, # of connection points: 2
#     Edge 27, Type (0, 1), BuildingBlock: CIFDUS_clean_linker_0, # of connection points: 2
#     Edge 28, Type (0, 1), BuildingBlock: CIFDUS_clean_linker_0, # of connection points: 2
#     Edge 29, Type (0, 1), BuildingBlock: CIFDUS_clean_linker_0, # of connection points: 2
#     Edge 30, Type (0, 1), BuildingBlock: CIFDUS_clean_linker_0, # of connection points: 2
#     Edge 31, Type (0, 1), BuildingBlock: CIFDUS_clean_linker_0, # of connection points: 2
#     Edge 32, Type (0, 1), BuildingBlock: CIFDUS_clean_linker_0, # of connection points: 2
#     Edge 33, Type (0, 1), BuildingBlock: CIFDUS_clean_linker_0, # of connection points: 2
#     Edge 34, Type (0, 1), BuildingBlock: CIFDUS_clean_linker_0, # of connection points: 2
#     Edge 35, Type (0, 1), BuildingBlock: CIFDUS_clean_linker_0, # of connection points: 2
# Relax obj value: 0.107
# Max RMSD: 0.231
# Mean RMSD: 0.155
data_MOF--net-pyr--node1-BETDEL_clean_sbu_0--node2-CUQRIR_clean_linker_1--edge1-CIFDUS_clean_linker_0
_symmetry_space_group_name_H-M    P1
_symmetry_Int_Tables_number       1
_symmetry_cell_setting            triclinic
loop_
_symmetry_equiv_pos_as_xyz
'x, y, z'
_cell_length_a     29.363767
_cell_length_b     30.435387
_cell_length_c     27.551118
_cell_angle_alpha  90.683512
_cell_angle_beta   90.095871
_cell_angle_gamma 101.16609
loop_
_atom_site_label
_atom_site_type_symbol
_atom_site_fract_x
_atom_site_fract_y
_atom_site_fract_z
_atom_type_partial_charge
C0 C 0.23038 0.28666 0.20638 0.0
N1 N 0.25602 0.25441 0.2076 0.0
N2 N 0.22906 0.30301 0.16111 0.0
C3 C 0.20157 0.29785 0.24824 0.0
C4 C 0.2565 0.28076 0.13498 0.0
N5 N 0.27253 0.25113 0.16327 0.0
C6 C 0.26326 0.28448 0.08094 0.0
H7 H 0.16923 0.27215 0.25057 0.0
H8 H 0.19231 0.33122 0.24355 0.0
H9 H 0.22093 0.29738 0.2828 0.0
H10 H 0.26749 0.31981 0.06959 0.0
H11 H 0.23207 0.2651 0.06233 0.0
H12 H 0.29425 0.2714 0.06917 0.0
C13 C 0.29014 0.85611 0.63854 0.0
N14 N 0.28493 0.89275 0.66478 0.0
N15 N 0.31734 0.83225 0.66255 0.0
C16 C 0.27125 0.84534 0.58808 0.0
C17 C 0.3282 0.85559 0.70456 0.0
N18 N 0.30857 0.89238 0.70595 0.0
C19 C 0.35933 0.84326 0.74362 0.0
H20 H 0.23679 0.82283 0.59059 0.0
H21 H 0.29451 0.82799 0.56654 0.0
H22 H 0.2668 0.87612 0.56897 0.0
H23 H 0.39441 0.86447 0.74006 0.0
H24 H 0.36216 0.80752 0.74092 0.0
H25 H 0.34621 0.84934 0.78023 0.0
C26 C 0.60542 0.35559 0.84318 0.0
N27 N 0.63479 0.34575 0.87759 0.0
N28 N 0.61551 0.39963 0.83248 0.0
C29 C 0.56665 0.32233 0.82013 0.0
C30 C 0.65232 0.41631 0.86121 0.0
N31 N 0.66373 0.38367 0.88933 0.0
C32 C 0.68038 0.46316 0.85734 0.0
H33 H 0.58091 0.30491 0.7898 0.0
H34 H 0.53948 0.33929 0.8054 0.0
H35 H 0.55091 0.29683 0.8468 0.0
H36 H 0.67067 0.48404 0.88742 0.0
H37 H 0.67383 0.4788 0.82251 0.0
H38 H 0.71805 0.46305 0.86037 0.0
C39 C 0.83083 0.66416 0.31987 0.0
N40 N 0.87074 0.69289 0.30855 0.0
N41 N 0.80942 0.67972 0.35811 0.0
C42 C 0.81428 0.6195 0.2953 0.0
C43 C 0.83788 0.71888 0.37006 0.0
N44 N 0.87559 0.72671 0.34059 0.0
C45 C 0.82994 0.74853 0.41216 0.0
H46 H 0.77871 0.60387 0.30681 0.0
H47 H 0.83846 0.59687 0.30419 0.0
H48 H 0.81456 0.62357 0.25535 0.0
H49 H 0.79271 0.74409 0.42156 0.0
H50 H 0.84325 0.78428 0.40382 0.0
H51 H 0.84888 0.73973 0.44439 0.0
C52 C 0.78701 0.85653 0.91184 0.0
N53 N 0.8211 0.85222 0.8805 0.0
N54 N 0.76994 0.89335 0.90139 0.0
C55 C 0.77029 0.82493 0.95241 0.0
C56 C 0.79484 0.91148 0.86298 0.0
N57 N 0.82607 0.88632 0.8504 0.0
C58 C 0.79006 0.95477 0.8396 0.0
H59 H 0.73343 0.82518 0.96099 0.0
H60 H 0.7915 0.83585 0.98531 0.0
H61 H 0.77421 0.79035 0.94276 0.0
H62 H 0.78422 0.97954 0.86765 0.0
H63 H 0.7593 0.94841 0.81523 0.0
H64 H 0.82107 0.96898 0.81787 0.0
C65 C 0.76654 0.25661 0.43391 0.0
N66 N 0.78147 0.2244 0.40716 0.0
N67 N 0.73657 0.27601 0.40802 0.0
C68 C 0.78051 0.26862 0.48558 0.0
C69 C 0.73342 0.25411 0.36473 0.0
N70 N 0.76111 0.22321 0.36391 0.0
C71 C 0.69735 0.25738 0.32632 0.0
H72 H 0.75667 0.24661 0.51022 0.0
H73 H 0.77819 0.30391 0.49379 0.0
H74 H 0.81637 0.26358 0.49253 0.0
H75 H 0.71447 0.2773 0.29564 0.0
H76 H 0.66901 0.2733 0.34016 0.0
H77 H 0.68114 0.22375 0.31206 0.0
C78 C 0.33663 0.68057 0.2042 0.0
N79 N 0.37567 0.71043 0.21659 0.0
N80 N 0.30623 0.701 0.18068 0.0
C81 C 0.32786 0.63145 0.21627 0.0
C82 C 0.32776 0.74424 0.17902 0.0
N83 N 0.37016 0.7502 0.2003 0.0
C84 C 0.30575 0.78152 0.16011 0.0
H85 H 0.29793 0.61201 0.19588 0.0
H86 H 0.32141 0.62746 0.2558 0.0
H87 H 0.35868 0.61698 0.20725 0.0
H88 H 0.26781 0.77439 0.16695 0.0
H89 H 0.31112 0.78432 0.12034 0.0
H90 H 0.32141 0.81403 0.17751 0.0
C91 C 0.13162 0.37118 0.70333 0.0
N92 N 0.1626 0.35865 0.67184 0.0
N93 N 0.14928 0.41145 0.72457 0.0
C94 C 0.08347 0.34457 0.71159 0.0
C95 C 0.19217 0.42283 0.70467 0.0
N96 N 0.20045 0.39091 0.67292 0.0
C97 C 0.22634 0.46528 0.71635 0.0
H98 H 0.06207 0.34623 0.67871 0.0
H99 H 0.06583 0.35728 0.74265 0.0
H100 H 0.085 0.30886 0.71744 0.0
H101 H 0.22003 0.47834 0.75298 0.0
H102 H 0.2226 0.4909 0.68909 0.0
H103 H 0.2625 0.45964 0.71461 0.0
Dy104 Dy 0.0665 0.0522 0.45996 0.0
C105 C 0.96394 0.97563 0.61899 0.0
C106 C 0.11391 0.07968 0.37787 0.0
Dy107 Dy 1.00644 0.02306 0.5441 0.0
O108 O 0.13194 0.07933 0.42063 0.0
O109 O 0.06934 0.06527 0.3796 0.0
O110 O 0.1288 0.05219 0.50787 0.0
O111 O 0.06906 1.00378 0.5177 0.0
C112 C 0.10923 0.01871 0.53382 0.0
C113 C 0.95753 0.07095 0.49057 0.0
O114 O 0.05029 0.0877 0.57316 0.0
O115 O 0.06487 0.11772 0.49693 0.0
O116 O 1.0024 1.00521 0.62349 0.0
O117 O 0.94908 0.97332 0.57466 0.0
O118 O 0.94377 0.0519 0.53104 0.0
O119 O 0.99755 0.06379 0.47975 0.0
O120 O 0.03282 0.98496 0.42846 0.0
O121 O 0.9963 0.95938 0.49965 0.0
C122 C 0.06481 0.12256 0.5447 0.0
C123 C 1.00745 0.95269 0.454 0.0
Dy124 Dy 0.55098 0.06793 0.09534 0.0
C125 C 0.40698 1.00913 0.94665 0.0
C126 C 0.62512 0.10739 0.14977 0.0
Dy127 Dy 0.47749 0.03971 1.01096 0.0
O128 O 0.58602 0.08588 0.16683 0.0
O129 O 0.62331 0.10917 0.10263 0.0
O130 O 0.53523 1.00538 0.13994 0.0
O131 O 0.499 1.00999 0.07601 0.0
C132 C 0.50358 0.98442 0.11062 0.0
C133 C 0.54375 0.11342 0.99717 0.0
O134 O 0.43611 0.07084 0.06464 0.0
O135 O 0.49482 0.10335 0.11893 0.0
O136 O 0.43726 0.04606 0.94278 0.0
O137 O 0.41465 0.98899 0.98639 0.0
O138 O 0.52707 0.08517 0.96293 0.0
O139 O 0.5229 0.1019 0.03631 0.0
O140 O 0.58934 0.03687 0.03844 0.0
O141 O 0.52706 0.9958 0.99452 0.0
C142 C 0.45126 0.09648 0.10295 0.0
C143 C 0.5716 1.00578 1.00583 0.0
Dy144 Dy 0.5088 0.49871 0.47766 0.0
C145 C 0.45166 0.64005 0.58407 0.0
C146 C 0.55787 0.43917 0.43816 0.0
Dy147 Dy 0.48974 0.57519 0.5392 0.0
O148 O 0.52749 0.43023 0.47258 0.0
O149 O 0.55932 0.47976 0.42352 0.0
O150 O 0.43257 0.47046 0.4699 0.0
O151 O 0.45759 0.50372 0.53485 0.0
C152 C 0.42133 0.48539 0.51185 0.0
C153 C 0.57694 0.5875 0.50269 0.0
O154 O 0.50674 0.53128 0.59839 0.0
O155 O 0.54914 0.49534 0.54636 0.0
O156 O 0.4953 0.63771 0.58481 0.0
O157 O 0.42836 0.60613 0.55981 0.0
O158 O 0.56658 0.60397 0.544 0.0
O159 O 0.53962 0.56936 0.48228 0.0
O160 O 0.48924 0.53954 0.41686 0.0
O161 O 0.4621 0.59131 0.46598 0.0
C162 C 0.53668 0.50455 0.59085 0.0
C163 C 0.46925 0.57482 0.42233 0.0
Dy164 Dy 1.00462 0.50565 0.03813 0.0
C165 C 0.95021 0.66308 0.95822 0.0
C166 C 0.05975 0.44538 0.04786 0.0
Dy167 Dy 0.98047 0.58823 0.98203 0.0
O168 O 0.01914 0.44156 0.06862 0.0
O169 O 0.06865 0.48076 0.02121 0.0
O170 O 0.98634 0.52675 0.11471 0.0
O171 O 0.98004 0.56534 0.05493 0.0
C172 C 0.97492 0.56386 0.10018 0.0
C173 C 0.02654 0.53542 0.93 0.0
O174 O 0.0479 0.62101 0.01493 0.0
O175 O 0.06984 0.55681 0.04455 0.0
O176 O 0.94493 0.62735 0.93066 0.0
O177 O 0.97096 0.65733 0.99852 0.0
O178 O 0.02915 0.57786 0.922 0.0
O179 O 0.99608 0.5229 0.96205 0.0
O180 O 0.93329 0.47495 0.01214 0.0
O181 O 0.91109 0.54245 0.99148 0.0
C182 C 0.07789 0.60021 0.0361 0.0
C183 C 0.90149 0.49853 0.99965 0.0
H184 H 0.18504 0.18832 0.19363 0.0
H185 H 0.29899 0.23796 0.29007 0.0
H186 H 0.26781 0.18035 0.34968 0.0
H187 H 0.202 0.1245 0.378 0.0
H188 H 0.08285 0.08199 0.28494 0.0
H189 H 0.12209 0.12791 0.21929 0.0
C190 C 0.20327 0.18538 0.22736 0.0
C191 C 0.24376 0.21654 0.23833 0.0
C192 C 0.18384 0.15411 0.26173 0.0
C193 C 0.2677 0.2138 0.28169 0.0
C194 C 0.24972 0.18124 0.31549 0.0
C195 C 0.18503 0.12466 0.34301 0.0
C196 C 0.13962 0.10051 0.33605 0.0
C197 C 0.20689 0.15248 0.30657 0.0
C198 C 0.11778 0.10071 0.29084 0.0
C199 C 0.1401 0.12695 0.25353 0.0
H200 H 0.27736 0.88631 0.79702 0.0
H201 H 0.36367 0.97324 0.69807 0.0
H202 H 0.39593 0.02291 0.76513 0.0
H203 H 0.40964 0.03379 0.85272 0.0
H204 H 0.33315 0.93947 0.95268 0.0
H205 H 0.28731 0.90013 0.88528 0.0
C206 C 0.30202 0.91707 0.7904 0.0
C207 C 0.31723 0.92698 0.74273 0.0
C208 C 0.32318 0.94324 0.82968 0.0
C209 C 0.3501 0.96606 0.73416 0.0
C210 C 0.36931 0.99382 0.77272 0.0
C211 C 0.38224 1.00518 0.85982 0.0
C212 C 0.37473 0.98941 0.90748 0.0
C213 C 0.35758 0.98168 0.82074 0.0
C214 C 0.33956 0.95206 0.91621 0.0
C215 C 0.31343 0.92958 0.8777 0.0
H216 H 0.62279 0.38468 0.73769 0.0
H217 H 0.56743 0.46591 0.8422 0.0
H218 H 0.53743 0.50662 0.77651 0.0
H219 H 0.52764 0.51884 0.68868 0.0
H220 H 0.58697 0.4385 0.58499 0.0
H221 H 0.61492 0.39802 0.65056 0.0
C222 C 0.60379 0.41109 0.74567 0.0
C223 C 0.59653 0.42221 0.79411 0.0
C224 C 0.58772 0.43466 0.70786 0.0
C225 C 0.57277 0.45689 0.8048 0.0
C226 C 0.55587 0.48009 0.76735 0.0
C227 C 0.54677 0.49258 0.68049 0.0
C228 C 0.55505 0.48189 0.63184 0.0
C229 C 0.56324 0.46932 0.71862 0.0
C230 C 0.58011 0.44776 0.62196 0.0
C231 C 0.59607 0.42432 0.65948 0.0
H232 H 0.86853 0.6967 0.21131 0.0
H233 H 0.94643 0.66039 0.33144 0.0
H234 H 0.98806 0.61787 0.27656 0.0
H235 H 0.99427 0.58273 0.19578 0.0
H236 H 0.91721 0.62022 0.07501 0.0
H237 H 0.88328 0.67043 0.12808 0.0
C238 C 0.89606 0.68098 0.22489 0.0
C239 C 0.90502 0.68215 0.2752 0.0
C240 C 0.91897 0.65577 0.19305 0.0
C241 C 0.93983 0.66074 0.29277 0.0
C242 C 0.96295 0.63579 0.26145 0.0
C243 C 0.97041 0.60229 0.18106 0.0
C244 C 0.95786 0.59736 0.13158 0.0
C245 C 0.95152 0.63163 0.2118 0.0
C246 C 0.92745 0.6234 0.11286 0.0
C247 C 0.90795 0.65206 0.14329 0.0
H248 H 0.35002 0.23687 0.20357 0.0
H249 H 0.24918 0.18874 0.09233 0.0
H250 H 0.29423 0.13278 0.06627 0.0
H251 H 0.36466 0.10162 0.0723 0.0
H252 H 0.46632 0.15041 0.18375 0.0
H253 H 0.41796 0.20153 0.21366 0.0
C254 C 0.33823 0.21387 0.17374 0.0
C255 C 0.29774 0.21743 0.14858 0.0
C256 C 0.36413 0.18201 0.15943 0.0
C257 C 0.28145 0.18729 0.11071 0.0
C258 C 0.30687 0.15521 0.09628 0.0
C259 C 0.37612 0.123 0.10349 0.0
C260 C 0.41933 0.1226 0.12534 0.0
C261 C 0.3487 0.15288 0.11986 0.0
C262 C 0.4334 0.15035 0.16594 0.0
C263 C 0.40587 0.1797 0.18301 0.0
H264 H 0.19267 0.88213 0.66146 0.0
H265 H 0.3189 0.97469 0.62991 0.0
H266 H 0.27482 0.02504 0.5908 0.0
H267 H 0.20079 0.03859 0.55789 0.0
H268 H 0.07451 0.94318 0.5843 0.0
H269 H 0.1176 0.89807 0.63292 0.0
C270 C 0.21005 0.91403 0.64719 0.0
C271 C 0.25867 0.92572 0.65011 0.0
C272 C 0.18442 0.94174 0.62295 0.0
C273 C 0.28142 0.96618 0.6301 0.0
C274 C 0.2562 0.99449 0.60692 0.0
C275 C 0.18264 1.0082 0.57479 0.0
C276 C 0.13461 0.99403 0.56718 0.0
C277 C 0.20778 0.9821 0.6021 0.0
C278 C 0.11153 0.95463 0.58937 0.0
C279 C 0.13615 0.92882 0.61715 0.0
H280 H 0.68765 0.44322 0.96102 0.0
H281 H 0.7322 0.33594 0.88308 0.0
H282 H 0.81034 0.35805 0.91792 0.0
H283 H 0.86896 0.41643 0.95882 0.0
H284 H 0.82508 0.52977 0.02632 0.0
H285 H 0.74421 0.49769 1.00702 0.0
C286 C 0.7144 0.42425 0.95268 0.0
C287 C 0.70458 0.38835 0.91947 0.0
C288 C 0.75971 0.43915 0.97006 0.0
C289 C 0.739 0.36348 0.90897 0.0
C290 C 0.78382 0.37662 0.92827 0.0
C291 C 0.84147 0.43347 0.9701 0.0
C292 C 0.85276 0.47546 0.99364 0.0
C293 C 0.7951 0.41567 0.95706 0.0
C294 C 0.81708 0.49761 1.00772 0.0
C295 C 0.77089 0.47926 0.9968 0.0
H296 H 0.72661 0.70352 0.36794 0.0
H297 H 0.805 0.6043 0.40917 0.0
H298 H 0.73979 0.56614 0.45843 0.0
H299 H 0.66022 0.56206 0.49093 0.0
H300 H 0.58241 0.66204 0.44957 0.0
H301 H 0.64722 0.69923 0.3997 0.0
C302 C 0.72909 0.67354 0.38782 0.0
C303 C 0.77023 0.6566 0.38529 0.0
C304 C 0.69165 0.65225 0.41629 0.0
C305 C 0.7734 0.61763 0.41074 0.0
C306 C 0.73626 0.59603 0.43895 0.0
C307 C 0.65783 0.59212 0.47112 0.0
C308 C 0.61709 0.60976 0.47412 0.0
C309 C 0.69525 0.61319 0.44229 0.0
C310 C 0.6138 0.64832 0.44797 0.0
C311 C 0.65073 0.66945 0.4194 0.0
H312 H 0.23906 0.37802 0.11016 0.0
H313 H 0.13758 0.27038 0.16794 0.0
H314 H 0.07452 0.30448 0.13717 0.0
H315 H 0.04879 0.36644 0.09519 0.0
H316 H 0.1512 0.46942 0.02966 0.0
H317 H 0.21346 0.43497 0.06038 0.0
C318 C 0.20309 0.36201 0.11526 0.0
C319 C 0.19255 0.3227 0.14189 0.0
C320 C 0.16736 0.38066 0.09565 0.0
C321 C 0.14604 0.30168 0.14866 0.0
C322 C 0.11015 0.3208 0.13068 0.0
C323 C 0.08473 0.38078 0.08719 0.0
C324 C 0.09559 0.42028 0.06068 0.0
C325 C 0.12043 0.3605 0.10436 0.0
C326 C 0.14212 0.43877 0.05007 0.0
C327 C 0.17779 0.41935 0.06782 0.0
H328 H 0.61381 0.32059 0.96917 0.0
H329 H 0.65152 0.27338 0.83008 0.0
H330 H 0.63152 0.19568 0.85726 0.0
H331 H 0.59267 0.1414 0.91651 0.0
H332 H 0.55317 0.1879 0.05572 0.0
H333 H 0.58472 0.26545 0.03326 0.0
C334 C 0.61887 0.29315 0.94564 0.0
C335 C 0.63386 0.30217 0.89777 0.0
C336 C 0.60615 0.24853 0.96133 0.0
C337 C 0.63995 0.26673 0.86704 0.0
C338 C 0.62822 0.22247 0.88249 0.0
C339 C 0.59172 0.16848 0.94222 0.0
C340 C 0.57001 0.15907 0.98734 0.0
C341 C 0.60957 0.21291 0.92888 0.0
C342 C 0.56947 0.19435 0.0206 0.0
C343 C 0.58736 0.23873 1.00769 0.0
H344 H 0.93291 0.7468 0.41613 0.0
H345 H 0.89958 0.7939 0.27674 0.0
H346 H 0.94327 0.86938 0.29704 0.0
H347 H 0.98014 0.92457 0.36056 0.0
H348 H 1.00429 0.87613 0.50303 0.0
H349 H 0.97494 0.79939 0.47617 0.0
C350 C 0.9367 0.77338 0.38971 0.0
C351 C 0.91335 0.7649 0.34499 0.0
C352 C 0.95915 0.817 0.40302 0.0
C353 C 0.91788 0.79954 0.31108 0.0
C354 C 0.94214 0.84286 0.32316 0.0
C355 C 0.97966 0.89707 0.38532 0.0
C356 C 0.99407 0.90626 0.43394 0.0
C357 C 0.96122 0.85251 0.36992 0.0
C358 C 0.9929 0.8702 0.46567 0.0
C359 C 0.97626 0.82615 0.4503 0.0
H360 H 0.40629 0.82357 0.65783 0.0
H361 H 0.26656 0.75431 0.62899 0.0
H362 H 0.29553 0.6877 0.60175 0.0
H363 H 0.36119 0.64909 0.58729 0.0
H364 H 0.50044 0.71784 0.62146 0.0
H365 H 0.47123 0.78431 0.64685 0.0
C366 C 0.38229 0.79364 0.64607 0.0
C367 C 0.33445 0.7935 0.64559 0.0
C368 C 0.39915 0.75535 0.63194 0.0
C369 C 0.30356 0.75502 0.62934 0.0
C370 C 0.32011 0.71698 0.61413 0.0
C371 C 0.38498 0.67855 0.60065 0.0
C372 C 0.43285 0.67861 0.60258 0.0
C373 C 0.36787 0.71667 0.61552 0.0
C374 C 0.46341 0.71694 0.61986 0.0
C375 C 0.44677 0.75504 0.63417 0.0
H376 H 0.81731 0.86599 0.75729 0.0
H377 H 0.91251 0.93184 0.86571 0.0
H378 H 0.96815 0.96319 0.80252 0.0
H379 H 0.98421 0.97867 0.71563 0.0
H380 H 0.88638 0.91286 0.60809 0.0
H381 H 0.83724 0.87414 0.67128 0.0
C382 C 0.85086 0.88631 0.76654 0.0
C383 C 0.86159 0.89704 0.81499 0.0
C384 C 0.88161 0.90453 0.73026 0.0
C385 C 0.90447 0.92347 0.82795 0.0
C386 C 0.93581 0.94147 0.79201 0.0
C387 C 0.95246 0.95539 0.70628 0.0
C388 C 0.93838 0.94914 0.65768 0.0
C389 C 0.92402 0.93339 0.7429 0.0
C390 C 0.8975 0.91863 0.64554 0.0
C391 C 0.86937 0.8964 0.68153 0.0
H392 H 0.78213 0.22873 0.26982 0.0
H393 H 0.7229 0.13754 0.38104 0.0
H394 H 0.67881 0.08776 0.32016 0.0
H395 H 0.64299 0.08107 0.23929 0.0
H396 H 0.6976 0.175 0.12812 0.0
H397 H 0.75731 0.21344 0.1846 0.0
C398 C 0.76146 0.19669 0.28001 0.0
C399 C 0.75528 0.18673 0.32951 0.0
C400 C 0.73381 0.17002 0.24506 0.0
C401 C 0.72835 0.1455 0.34305 0.0
C402 C 0.70229 0.11766 0.30832 0.0
C403 C 0.66853 0.10951 0.22727 0.0
C404 C 0.66542 0.12618 0.18034 0.0
C405 C 0.70232 0.13134 0.25988 0.0
C406 C 0.69914 0.16221 0.16449 0.0
C407 C 0.73323 0.18405 0.1967 0.0
H408 H 0.43797 0.65657 0.2172 0.0
H409 H 0.37333 0.74319 0.30686 0.0
H410 H 0.3994 0.71045 0.38007 0.0
H411 H 0.43037 0.64952 0.41808 0.0
H412 H 0.48724 0.55684 0.32745 0.0
H413 H 0.47298 0.59807 0.25544 0.0
C414 C 0.43115 0.66914 0.25291 0.0
C415 C 0.4047 0.70291 0.25671 0.0
C416 C 0.44302 0.64754 0.29468 0.0
C417 C 0.39509 0.71842 0.30307 0.0
C418 C 0.40893 0.69881 0.34488 0.0
C419 C 0.43972 0.63827 0.38263 0.0
C420 C 0.45929 0.59958 0.37844 0.0
C421 C 0.43113 0.66202 0.34108 0.0
C422 C 0.47152 0.586 0.33201 0.0
C423 C 0.46374 0.60982 0.29068 0.0
H424 H 0.11007 0.38812 0.81223 0.0
H425 H 0.13833 0.49594 0.71013 0.0
H426 H 0.10508 0.54438 0.76573 0.0
H427 H 0.06809 0.55635 0.84333 0.0
H428 H 0.02944 0.44612 0.94122 0.0
H429 H 0.06604 0.39828 0.88762 0.0
C430 C 0.10814 0.42198 0.80194 0.0
C431 C 0.12679 0.43848 0.75703 0.0
C432 C 0.08735 0.44925 0.83358 0.0
C433 C 0.12471 0.48267 0.74458 0.0
C434 C 0.10554 0.51029 0.77632 0.0
C435 C 0.06766 0.52185 0.85306 0.0
C436 C 0.04713 0.50529 0.89706 0.0
C437 C 0.0869 0.49404 0.82098 0.0
C438 C 0.04606 0.46018 0.90837 0.0
C439 C 0.06672 0.43268 0.87745 0.0
H440 H 0.68804 0.90408 0.86916 0.0
H441 H 0.77957 0.92412 0.99272 0.0
H442 H 0.72504 0.96118 0.03743 0.0
H443 H 0.6527 0.98966 0.0393 0.0
H444 H 0.55981 0.96767 0.91599 0.0
H445 H 0.61344 0.92923 0.87259 0.0
C446 C 0.6954 0.9165 0.90597 0.0
C447 C 0.73691 0.91201 0.92821 0.0
C448 C 0.66402 0.93731 0.93096 0.0
C449 C 0.74717 0.92752 0.97574 0.0
C450 C 0.7163 0.94868 1.00091 0.0
C451 C 0.64434 0.97646 1.00292 0.0
C452 C 0.60291 0.98159 0.98053 0.0
C453 C 0.67487 0.95412 0.9786 0.0
C454 C 0.59173 0.96387 0.93378 0.0
C455 C 0.62229 0.94206 0.90897 0.0
H456 H 0.86297 0.20848 0.37247 0.0
H457 H 0.75792 0.16749 0.4803 0.0
H458 H 0.80269 0.11496 0.51371 0.0
H459 H 0.8724 0.08306 0.51451 0.0
H460 H 0.98047 0.12379 0.40942 0.0
H461 H 0.93403 0.17393 0.37225 0.0
C462 C 0.85014 0.18777 0.40312 0.0
C463 C 0.80762 0.19211 0.42457 0.0
C464 C 0.8766 0.15784 0.4225 0.0
C465 C 0.79093 0.16515 0.46405 0.0
C466 C 0.81643 0.13507 0.48292 0.0
C467 C 0.88595 0.10271 0.48329 0.0
C468 C 0.92995 0.0997 0.4648 0.0
C469 C 0.85948 0.13157 0.46287 0.0
C470 C 0.9467 0.1254 0.42429 0.0
C471 C 0.92016 0.15413 0.40318 0.0
H472 H 0.27615 0.70822 0.09013 0.0
H473 H 0.2355 0.652 0.22976 0.0
H474 H 0.15976 0.61594 0.19674 0.0
H475 H 0.10685 0.59858 0.12735 0.0
H476 H 0.14398 0.65994 0.9892 0.0
H477 H 0.21954 0.69733 0.02249 0.0
C478 C 0.25028 0.68856 0.11323 0.0
C479 C 0.26116 0.68175 0.16183 0.0
C480 C 0.20661 0.66929 0.09431 0.0
C481 C 0.22781 0.65645 0.19189 0.0
C482 C 0.18466 0.63622 0.17314 0.0
C483 C 0.13155 0.62044 0.10478 0.0
C484 C 0.12082 0.62643 0.05606 0.0
C485 C 0.174 0.64203 0.12431 0.0
C486 C 0.1521 0.65515 0.02691 0.0
C487 C 0.19512 0.6762 0.04584 0.0
H488 H 0.21346 0.4286 0.58515 0.0
H489 H 0.2805 0.36621 0.69645 0.0
H490 H 0.35605 0.39096 0.65725 0.0
H491 H 0.40397 0.43582 0.59424 0.0
H492 H 0.3363 0.49509 0.48041 0.0
H493 H 0.26044 0.46699 0.51742 0.0
C494 C 0.24451 0.41919 0.59964 0.0
C495 C 0.24141 0.39468 0.64296 0.0
C496 C 0.28788 0.4342 0.57708 0.0
C497 C 0.282 0.38389 0.66244 0.0
C498 C 0.32522 0.39872 0.64041 0.0
C499 C 0.37253 0.44253 0.57767 0.0
C500 C 0.37573 0.46822 0.53511 0.0
C501 C 0.32881 0.42488 0.59835 0.0
C502 C 0.33471 0.47584 0.5134 0.0
C503 C 0.29133 0.45959 0.53447 0.0
H504 H 0.87848 0.84305 0.95154 0.0
H505 H 0.82634 0.78908 0.81312 0.0
H506 H 0.86586 0.7254 0.82277 0.0
H507 H 0.9081 0.68187 0.87563 0.0
H508 H 0.9576 0.73635 0.01569 0.0
H509 H 0.92627 0.8034 1.00082 0.0
C510 C 0.87666 0.81746 0.92347 0.0
C511 C 0.84979 0.81958 0.88216 0.0
C512 C 0.89834 0.78115 0.92997 0.0
C513 C 0.84723 0.78726 0.84519 0.0
C514 C 0.8694 0.75102 0.85093 0.0
C515 C 0.91225 0.70869 0.90254 0.0
C516 C 0.93433 0.70428 0.94682 0.0
C517 C 0.89388 0.74699 0.89392 0.0
C518 C 0.94019 0.73911 0.98146 0.0
C519 C 0.92241 0.7774 0.97305 0.0
H520 H 0.39588 0.78413 0.11373 0.0
H521 H 0.42396 0.80383 0.2667 0.0
H522 H 0.47081 0.87796 0.25108 0.0
H523 H 0.49586 0.94024 0.19488 0.0
H524 H 0.45736 0.92468 0.04362 0.0
H525 H 0.42029 0.84638 0.05757 0.0
C526 C 0.41274 0.80463 0.14354 0.0
C527 C 0.40638 0.78856 0.19135 0.0
C528 C 0.43619 0.8484 0.13459 0.0
C529 C 0.42871 0.81496 0.22967 0.0
C530 C 0.45478 0.85772 0.22073 0.0
C531 C 0.47931 0.91966 0.16496 0.0
C532 C 0.47897 0.93805 0.1183 0.0
C533 C 0.45734 0.87527 0.17358 0.0
C534 C 0.45745 0.91128 0.07985 0.0
C535 C 0.43671 0.86653 0.08781 0.0
H536 H 0.09839 0.32811 0.60355 0.0
H537 H 0.21129 0.29304 0.68416 0.0
H538 H 0.19048 0.21545 0.6536 0.0
H539 H 0.13631 0.15607 0.60738 0.0
H540 H 0.02448 0.19284 0.52569 0.0
H541 H 0.0474 0.27052 0.55408 0.0
C542 C 0.1187 0.30349 0.61378 0.0
C543 C 0.15641 0.3162 0.64591 0.0
C544 C 0.10579 0.25887 0.59683 0.0
C545 C 0.18263 0.28414 0.65888 0.0
C546 C 0.17024 0.23966 0.64195 0.0
C547 C 0.11685 0.18114 0.5963 0.0
C548 C 0.07811 0.16862 0.56529 0.0
C549 C 0.13118 0.2263 0.61173 0.0
C550 C 0.05396 0.2016 0.55004 0.0
C551 C 0.06725 0.24607 0.56602 0.0
H552 H 0.72522 0.35242 0.36716 0.0
H553 H 0.67832 0.26315 0.48446 0.0
H554 H 0.61749 0.30543 0.50403 0.0
H555 H 0.57494 0.36556 0.48447 0.0
H556 H 0.62054 0.45318 0.36489 0.0
H557 H 0.68356 0.41314 0.34832 0.0
C558 C 0.70206 0.34294 0.39749 0.0
C559 C 0.70644 0.30523 0.42475 0.0
C560 C 0.66614 0.36629 0.40709 0.0
C561 C 0.67613 0.29264 0.4637 0.0
C562 C 0.64092 0.31637 0.47431 0.0
C563 C 0.59839 0.3755 0.45447 0.0
C564 C 0.59278 0.41188 0.4255 0.0
C565 C 0.635 0.3527 0.4456 0.0
C566 C 0.62387 0.42496 0.38731 0.0
C567 C 0.66012 0.40232 0.37808 0.0
loop_
_geom_bond_atom_site_label_1
_geom_bond_atom_site_label_2
_geom_bond_distance
_geom_bond_site_symmetry_2
_ccdc_geom_bond_type
C0 N1 1.317 . S
C0 N2 1.348 . S
C0 C3 1.485 . S
N1 C0 1.317 . S
N1 N5 1.370 . S
N2 C0 1.348 . S
N2 C4 1.346 . S
C3 C0 1.485 . S
C3 H7 0.960 . S
C3 H8 0.961 . S
C3 H9 0.960 . S
C4 N2 1.346 . S
C4 N5 1.307 . S
C4 C6 1.486 . S
N5 N1 1.370 . S
N5 C4 1.307 . S
C6 C4 1.486 . S
C6 H10 0.960 . S
C6 H11 0.960 . S
C6 H12 0.959 . S
H7 C3 0.960 . S
H8 C3 0.961 . S
H9 C3 0.960 . S
H10 C6 0.960 . S
H11 C6 0.960 . S
H12 C6 0.959 . S
C13 N14 1.317 . S
C13 N15 1.348 . S
C13 C16 1.485 . S
N14 C13 1.317 . S
N14 N18 1.370 . S
N15 C13 1.348 . S
N15 C17 1.346 . S
C16 C13 1.485 . S
C16 H20 0.960 . S
C16 H21 0.961 . S
C16 H22 0.960 . S
C17 N15 1.346 . S
C17 N18 1.307 . S
C17 C19 1.486 . S
N18 N14 1.370 . S
N18 C17 1.307 . S
C19 C17 1.486 . S
C19 H23 0.960 . S
C19 H24 0.960 . S
C19 H25 0.959 . S
H20 C16 0.960 . S
H21 C16 0.961 . S
H22 C16 0.960 . S
H23 C19 0.960 . S
H24 C19 0.960 . S
H25 C19 0.959 . S
C26 N27 1.317 . S
C26 N28 1.348 . S
C26 C29 1.485 . S
N27 C26 1.317 . S
N27 N31 1.370 . S
N28 C26 1.348 . S
N28 C30 1.346 . S
C29 C26 1.485 . S
C29 H33 0.960 . S
C29 H34 0.961 . S
C29 H35 0.960 . S
C30 N28 1.346 . S
C30 N31 1.307 . S
C30 C32 1.486 . S
N31 N27 1.370 . S
N31 C30 1.307 . S
C32 C30 1.486 . S
C32 H36 0.960 . S
C32 H37 0.960 . S
C32 H38 0.959 . S
H33 C29 0.960 . S
H34 C29 0.961 . S
H35 C29 0.960 . S
H36 C32 0.960 . S
H37 C32 0.960 . S
H38 C32 0.959 . S
C39 N40 1.317 . S
C39 N41 1.348 . S
C39 C42 1.485 . S
N40 C39 1.317 . S
N40 N44 1.370 . S
N41 C39 1.348 . S
N41 C43 1.346 . S
C42 C39 1.485 . S
C42 H46 0.960 . S
C42 H47 0.961 . S
C42 H48 0.960 . S
C43 N41 1.346 . S
C43 N44 1.307 . S
C43 C45 1.486 . S
N44 N40 1.370 . S
N44 C43 1.307 . S
C45 C43 1.486 . S
C45 H49 0.960 . S
C45 H50 0.960 . S
C45 H51 0.959 . S
H46 C42 0.960 . S
H47 C42 0.961 . S
H48 C42 0.960 . S
H49 C45 0.960 . S
H50 C45 0.960 . S
H51 C45 0.959 . S
C52 N53 1.317 . S
C52 N54 1.348 . S
C52 C55 1.485 . S
N53 C52 1.317 . S
N53 N57 1.370 . S
N54 C52 1.348 . S
N54 C56 1.346 . S
C55 C52 1.485 . S
C55 H59 0.960 . S
C55 H60 0.961 . S
C55 H61 0.960 . S
C56 N54 1.346 . S
C56 N57 1.307 . S
C56 C58 1.486 . S
N57 N53 1.370 . S
N57 C56 1.307 . S
C58 C56 1.486 . S
C58 H62 0.960 . S
C58 H63 0.960 . S
C58 H64 0.959 . S
H59 C55 0.960 . S
H60 C55 0.961 . S
H61 C55 0.960 . S
H62 C58 0.960 . S
H63 C58 0.960 . S
H64 C58 0.959 . S
C65 N66 1.317 . S
C65 N67 1.348 . S
C65 C68 1.485 . S
N66 C65 1.317 . S
N66 N70 1.370 . S
N67 C65 1.348 . S
N67 C69 1.346 . S
C68 C65 1.485 . S
C68 H72 0.960 . S
C68 H73 0.961 . S
C68 H74 0.960 . S
C69 N67 1.346 . S
C69 N70 1.307 . S
C69 C71 1.486 . S
N70 N66 1.370 . S
N70 C69 1.307 . S
C71 C69 1.486 . S
C71 H75 0.960 . S
C71 H76 0.960 . S
C71 H77 0.959 . S
H72 C68 0.960 . S
H73 C68 0.961 . S
H74 C68 0.960 . S
H75 C71 0.960 . S
H76 C71 0.960 . S
H77 C71 0.959 . S
C78 N79 1.317 . S
C78 N80 1.348 . S
C78 C81 1.485 . S
N79 C78 1.317 . S
N79 N83 1.370 . S
N80 C78 1.348 . S
N80 C82 1.346 . S
C81 C78 1.485 . S
C81 H85 0.960 . S
C81 H86 0.961 . S
C81 H87 0.960 . S
C82 N80 1.346 . S
C82 N83 1.307 . S
C82 C84 1.486 . S
N83 N79 1.370 . S
N83 C82 1.307 . S
C84 C82 1.486 . S
C84 H88 0.960 . S
C84 H89 0.960 . S
C84 H90 0.959 . S
H85 C81 0.960 . S
H86 C81 0.961 . S
H87 C81 0.960 . S
H88 C84 0.960 . S
H89 C84 0.960 . S
H90 C84 0.959 . S
C91 N92 1.317 . S
C91 N93 1.348 . S
C91 C94 1.485 . S
N92 C91 1.317 . S
N92 N96 1.370 . S
N93 C91 1.348 . S
N93 C95 1.346 . S
C94 C91 1.485 . S
C94 H98 0.960 . S
C94 H99 0.961 . S
C94 H100 0.960 . S
C95 N93 1.346 . S
C95 N96 1.307 . S
C95 C97 1.486 . S
N96 N92 1.370 . S
N96 C95 1.307 . S
C97 C95 1.486 . S
C97 H101 0.960 . S
C97 H102 0.960 . S
C97 H103 0.959 . S
H98 C94 0.960 . S
H99 C94 0.961 . S
H100 C94 0.960 . S
H101 C97 0.960 . S
H102 C97 0.960 . S
H103 C97 0.959 . S
Dy104 O108 2.398 . S
Dy104 O109 2.491 . S
Dy104 O110 2.403 1_545 S
Dy104 O111 2.664 1_545 S
Dy104 O115 2.326 . S
Dy104 O119 2.310 . S
Dy104 O120 2.351 1_545 S
C105 O116 1.185 . S
C105 O117 1.355 . S
C106 O108 1.185 . S
C106 O109 1.355 . S
Dy107 O111 2.310 1_545 S
Dy107 O114 2.351 . S
Dy107 O116 2.398 1_445 S
Dy107 O117 2.491 1_445 S
Dy107 O118 2.403 1_455 S
Dy107 O119 2.664 . S
Dy107 O121 2.326 1_445 S
O108 Dy104 2.398 . S
O108 C106 1.185 . S
O109 Dy104 2.491 . S
O109 C106 1.355 . S
O110 Dy104 2.403 1_565 S
O110 C112 1.254 . S
O111 Dy104 2.664 1_565 S
O111 Dy107 2.310 1_565 S
O111 C112 1.268 . S
C112 O110 1.254 . S
C112 O111 1.268 . S
C113 O118 1.254 . S
C113 O119 1.268 1_655 S
O114 Dy107 2.351 . S
O114 C122 1.249 . S
O115 Dy104 2.326 . S
O115 C122 1.267 . S
O116 C105 1.185 . S
O116 Dy107 2.398 1_665 S
O117 C105 1.355 . S
O117 Dy107 2.491 1_665 S
O118 Dy107 2.403 1_655 S
O118 C113 1.254 . S
O119 Dy104 2.310 . S
O119 Dy107 2.664 . S
O119 C113 1.268 1_455 S
O120 Dy104 2.351 1_565 S
O120 C123 1.249 1_455 S
O121 Dy107 2.326 1_665 S
O121 C123 1.267 . S
C122 O114 1.249 . S
C122 O115 1.267 . S
C123 O120 1.249 1_655 S
C123 O121 1.267 . S
Dy124 O128 2.398 . S
Dy124 O129 2.491 . S
Dy124 O130 2.403 1_545 S
Dy124 O131 2.664 1_545 S
Dy124 O135 2.326 . S
Dy124 O139 2.310 . S
Dy124 O140 2.351 1_545 S
C125 O136 1.185 1_565 S
C125 O137 1.355 . S
C126 O128 1.185 . S
C126 O129 1.355 . S
Dy127 O131 2.310 1_546 S
Dy127 O134 2.351 1_556 S
Dy127 O136 2.398 . S
Dy127 O137 2.491 1_545 S
Dy127 O138 2.403 . S
Dy127 O139 2.664 1_556 S
Dy127 O141 2.326 . S
O128 Dy124 2.398 . S
O128 C126 1.185 . S
O129 Dy124 2.491 . S
O129 C126 1.355 . S
O130 Dy124 2.403 1_565 S
O130 C132 1.254 . S
O131 Dy124 2.664 1_565 S
O131 Dy127 2.310 1_564 S
O131 C132 1.268 . S
C132 O130 1.254 . S
C132 O131 1.268 . S
C133 O138 1.254 . S
C133 O139 1.268 1_556 S
O134 Dy127 2.351 1_554 S
O134 C142 1.249 . S
O135 Dy124 2.326 . S
O135 C142 1.267 . S
O136 C125 1.185 1_545 S
O136 Dy127 2.398 . S
O137 C125 1.355 . S
O137 Dy127 2.491 1_565 S
O138 Dy127 2.403 . S
O138 C133 1.254 . S
O139 Dy124 2.310 . S
O139 Dy127 2.664 1_554 S
O139 C133 1.268 1_554 S
O140 Dy124 2.351 1_565 S
O140 C143 1.249 1_554 S
O141 Dy127 2.326 . S
O141 C143 1.267 1_545 S
C142 O134 1.249 . S
C142 O135 1.267 . S
C143 O140 1.249 1_556 S
C143 O141 1.267 1_565 S
Dy144 O148 2.398 . S
Dy144 O149 2.491 . S
Dy144 O150 2.403 . S
Dy144 O151 2.664 . S
Dy144 O155 2.326 . S
Dy144 O159 2.310 . S
Dy144 O160 2.351 . S
C145 O156 1.185 . S
C145 O157 1.355 . S
C146 O148 1.185 . S
C146 O149 1.355 . S
Dy147 O151 2.310 . S
Dy147 O154 2.351 . S
Dy147 O156 2.398 . S
Dy147 O157 2.491 . S
Dy147 O158 2.403 . S
Dy147 O159 2.664 . S
Dy147 O161 2.326 . S
O148 Dy144 2.398 . S
O148 C146 1.185 . S
O149 Dy144 2.491 . S
O149 C146 1.355 . S
O150 Dy144 2.403 . S
O150 C152 1.254 . S
O151 Dy144 2.664 . S
O151 Dy147 2.310 . S
O151 C152 1.268 . S
C152 O150 1.254 . S
C152 O151 1.268 . S
C153 O158 1.254 . S
C153 O159 1.268 . S
O154 Dy147 2.351 . S
O154 C162 1.249 . S
O155 Dy144 2.326 . S
O155 C162 1.267 . S
O156 C145 1.185 . S
O156 Dy147 2.398 . S
O157 C145 1.355 . S
O157 Dy147 2.491 . S
O158 Dy147 2.403 . S
O158 C153 1.254 . S
O159 Dy144 2.310 . S
O159 Dy147 2.664 . S
O159 C153 1.268 . S
O160 Dy144 2.351 . S
O160 C163 1.249 . S
O161 Dy147 2.326 . S
O161 C163 1.267 . S
C162 O154 1.249 . S
C162 O155 1.267 . S
C163 O160 1.249 . S
C163 O161 1.267 . S
Dy164 O168 2.398 . S
Dy164 O169 2.491 . S
Dy164 O170 2.403 1_455 S
Dy164 O171 2.664 1_455 S
Dy164 O175 2.326 . S
Dy164 O179 2.310 1_554 S
Dy164 O180 2.351 1_454 S
C165 O176 1.185 . S
C165 O177 1.355 . S
C166 O168 1.185 . S
C166 O169 1.355 . S
Dy167 O171 2.310 1_556 S
Dy167 O174 2.351 1_656 S
Dy167 O176 2.398 . S
Dy167 O177 2.491 . S
Dy167 O178 2.403 1_655 S
Dy167 O179 2.664 1_655 S
Dy167 O181 2.326 . S
O168 Dy164 2.398 . S
O168 C166 1.185 . S
O169 Dy164 2.491 . S
O169 C166 1.355 . S
O170 Dy164 2.403 1_655 S
O170 C172 1.254 . S
O171 Dy164 2.664 1_655 S
O171 Dy167 2.310 1_554 S
O171 C172 1.268 . S
C172 O170 1.254 . S
C172 O171 1.268 . S
C173 O178 1.254 . S
C173 O179 1.268 . S
O174 Dy167 2.351 1_454 S
O174 C182 1.249 . S
O175 Dy164 2.326 . S
O175 C182 1.267 . S
O176 C165 1.185 . S
O176 Dy167 2.398 . S
O177 C165 1.355 . S
O177 Dy167 2.491 . S
O178 Dy167 2.403 1_455 S
O178 C173 1.254 . S
O179 Dy164 2.310 1_556 S
O179 Dy167 2.664 1_455 S
O179 C173 1.268 . S
O180 Dy164 2.351 1_656 S
O180 C183 1.249 . S
O181 Dy167 2.326 . S
O181 C183 1.267 . S
C182 O174 1.249 . S
C182 O175 1.267 . S
C183 O180 1.249 . S
C183 O181 1.267 . S
H184 C190 0.930 . S
H185 C193 0.930 . S
H186 C194 0.930 . S
H187 C195 0.930 . S
H188 C198 0.930 . S
H189 C199 0.930 . S
C190 H184 0.930 . S
C190 C191 1.355 . S
C190 C192 1.415 . S
C191 C190 1.355 . S
C191 C193 1.419 . S
C192 C190 1.415 . S
C192 C197 1.425 . S
C192 C199 1.409 . S
C193 H185 0.930 . S
C193 C191 1.419 . S
C193 C194 1.362 . S
C194 H186 0.930 . S
C194 C193 1.362 . S
C194 C197 1.409 . S
C195 H187 0.930 . S
C195 C196 1.355 . S
C195 C197 1.415 . S
C196 C195 1.355 . S
C196 C198 1.419 . S
C197 C192 1.425 . S
C197 C194 1.409 . S
C197 C195 1.415 . S
C198 H188 0.930 . S
C198 C196 1.419 . S
C198 C199 1.362 . S
C199 H189 0.930 . S
C199 C192 1.409 . S
C199 C198 1.362 . S
H200 C206 0.930 . S
H201 C209 0.930 . S
H202 C210 0.930 . S
H203 C211 0.930 . S
H204 C214 0.930 . S
H205 C215 0.930 . S
C206 H200 0.930 . S
C206 C207 1.355 . S
C206 C208 1.415 . S
C207 C206 1.355 . S
C207 C209 1.419 . S
C208 C206 1.415 . S
C208 C213 1.425 . S
C208 C215 1.409 . S
C209 H201 0.930 . S
C209 C207 1.419 . S
C209 C210 1.362 . S
C210 H202 0.930 . S
C210 C209 1.362 . S
C210 C213 1.409 . S
C211 H203 0.930 . S
C211 C212 1.355 . S
C211 C213 1.415 . S
C212 C211 1.355 . S
C212 C214 1.419 . S
C213 C208 1.425 . S
C213 C210 1.409 . S
C213 C211 1.415 . S
C214 H204 0.930 . S
C214 C212 1.419 . S
C214 C215 1.362 . S
C215 H205 0.930 . S
C215 C208 1.409 . S
C215 C214 1.362 . S
H216 C222 0.930 . S
H217 C225 0.930 . S
H218 C226 0.930 . S
H219 C227 0.930 . S
H220 C230 0.930 . S
H221 C231 0.930 . S
C222 H216 0.930 . S
C222 C223 1.355 . S
C222 C224 1.415 . S
C223 C222 1.355 . S
C223 C225 1.419 . S
C224 C222 1.415 . S
C224 C229 1.425 . S
C224 C231 1.409 . S
C225 H217 0.930 . S
C225 C223 1.419 . S
C225 C226 1.362 . S
C226 H218 0.930 . S
C226 C225 1.362 . S
C226 C229 1.409 . S
C227 H219 0.930 . S
C227 C228 1.355 . S
C227 C229 1.415 . S
C228 C227 1.355 . S
C228 C230 1.419 . S
C229 C224 1.425 . S
C229 C226 1.409 . S
C229 C227 1.415 . S
C230 H220 0.930 . S
C230 C228 1.419 . S
C230 C231 1.362 . S
C231 H221 0.930 . S
C231 C224 1.409 . S
C231 C230 1.362 . S
H232 C238 0.930 . S
H233 C241 0.930 . S
H234 C242 0.930 . S
H235 C243 0.930 . S
H236 C246 0.930 . S
H237 C247 0.930 . S
C238 H232 0.930 . S
C238 C239 1.355 . S
C238 C240 1.415 . S
C239 C238 1.355 . S
C239 C241 1.419 . S
C240 C238 1.415 . S
C240 C245 1.425 . S
C240 C247 1.409 . S
C241 H233 0.930 . S
C241 C239 1.419 . S
C241 C242 1.362 . S
C242 H234 0.930 . S
C242 C241 1.362 . S
C242 C245 1.409 . S
C243 H235 0.930 . S
C243 C244 1.355 . S
C243 C245 1.415 . S
C244 C243 1.355 . S
C244 C246 1.419 . S
C245 C240 1.425 . S
C245 C242 1.409 . S
C245 C243 1.415 . S
C246 H236 0.930 . S
C246 C244 1.419 . S
C246 C247 1.362 . S
C247 H237 0.930 . S
C247 C240 1.409 . S
C247 C246 1.362 . S
H248 C254 0.930 . S
H249 C257 0.930 . S
H250 C258 0.930 . S
H251 C259 0.930 . S
H252 C262 0.930 . S
H253 C263 0.930 . S
C254 H248 0.930 . S
C254 C255 1.355 . S
C254 C256 1.415 . S
C255 C254 1.355 . S
C255 C257 1.419 . S
C256 C254 1.415 . S
C256 C261 1.425 . S
C256 C263 1.409 . S
C257 H249 0.930 . S
C257 C255 1.419 . S
C257 C258 1.362 . S
C258 H250 0.930 . S
C258 C257 1.362 . S
C258 C261 1.409 . S
C259 H251 0.930 . S
C259 C260 1.355 . S
C259 C261 1.415 . S
C260 C259 1.355 . S
C260 C262 1.419 . S
C261 C256 1.425 . S
C261 C258 1.409 . S
C261 C259 1.415 . S
C262 H252 0.930 . S
C262 C260 1.419 . S
C262 C263 1.362 . S
C263 H253 0.930 . S
C263 C256 1.409 . S
C263 C262 1.362 . S
H264 C270 0.930 . S
H265 C273 0.930 . S
H266 C274 0.930 . S
H267 C275 0.930 . S
H268 C278 0.930 . S
H269 C279 0.930 . S
C270 H264 0.930 . S
C270 C271 1.355 . S
C270 C272 1.415 . S
C271 C270 1.355 . S
C271 C273 1.419 . S
C272 C270 1.415 . S
C272 C277 1.425 . S
C272 C279 1.409 . S
C273 H265 0.930 . S
C273 C271 1.419 . S
C273 C274 1.362 . S
C274 H266 0.930 . S
C274 C273 1.362 . S
C274 C277 1.409 . S
C275 H267 0.930 . S
C275 C276 1.355 . S
C275 C277 1.415 . S
C276 C275 1.355 . S
C276 C278 1.419 . S
C277 C272 1.425 . S
C277 C274 1.409 . S
C277 C275 1.415 . S
C278 H268 0.930 . S
C278 C276 1.419 . S
C278 C279 1.362 . S
C279 H269 0.930 . S
C279 C272 1.409 . S
C279 C278 1.362 . S
H280 C286 0.930 . S
H281 C289 0.930 . S
H282 C290 0.930 . S
H283 C291 0.930 . S
H284 C294 0.930 . S
H285 C295 0.930 . S
C286 H280 0.930 . S
C286 C287 1.355 . S
C286 C288 1.415 . S
C287 C286 1.355 . S
C287 C289 1.419 . S
C288 C286 1.415 . S
C288 C293 1.425 . S
C288 C295 1.409 . S
C289 H281 0.930 . S
C289 C287 1.419 . S
C289 C290 1.362 . S
C290 H282 0.930 . S
C290 C289 1.362 . S
C290 C293 1.409 . S
C291 H283 0.930 . S
C291 C292 1.355 . S
C291 C293 1.415 . S
C292 C291 1.355 . S
C292 C294 1.419 . S
C293 C288 1.425 . S
C293 C290 1.409 . S
C293 C291 1.415 . S
C294 H284 0.930 . S
C294 C292 1.419 . S
C294 C295 1.362 . S
C295 H285 0.930 . S
C295 C288 1.409 . S
C295 C294 1.362 . S
H296 C302 0.930 . S
H297 C305 0.930 . S
H298 C306 0.930 . S
H299 C307 0.930 . S
H300 C310 0.930 . S
H301 C311 0.930 . S
C302 H296 0.930 . S
C302 C303 1.355 . S
C302 C304 1.415 . S
C303 C302 1.355 . S
C303 C305 1.419 . S
C304 C302 1.415 . S
C304 C309 1.425 . S
C304 C311 1.409 . S
C305 H297 0.930 . S
C305 C303 1.419 . S
C305 C306 1.362 . S
C306 H298 0.930 . S
C306 C305 1.362 . S
C306 C309 1.409 . S
C307 H299 0.930 . S
C307 C308 1.355 . S
C307 C309 1.415 . S
C308 C307 1.355 . S
C308 C310 1.419 . S
C309 C304 1.425 . S
C309 C306 1.409 . S
C309 C307 1.415 . S
C310 H300 0.930 . S
C310 C308 1.419 . S
C310 C311 1.362 . S
C311 H301 0.930 . S
C311 C304 1.409 . S
C311 C310 1.362 . S
H312 C318 0.930 . S
H313 C321 0.930 . S
H314 C322 0.930 . S
H315 C323 0.930 . S
H316 C326 0.930 . S
H317 C327 0.930 . S
C318 H312 0.930 . S
C318 C319 1.355 . S
C318 C320 1.415 . S
C319 C318 1.355 . S
C319 C321 1.419 . S
C320 C318 1.415 . S
C320 C325 1.425 . S
C320 C327 1.409 . S
C321 H313 0.930 . S
C321 C319 1.419 . S
C321 C322 1.362 . S
C322 H314 0.930 . S
C322 C321 1.362 . S
C322 C325 1.409 . S
C323 H315 0.930 . S
C323 C324 1.355 . S
C323 C325 1.415 . S
C324 C323 1.355 . S
C324 C326 1.419 . S
C325 C320 1.425 . S
C325 C322 1.409 . S
C325 C323 1.415 . S
C326 H316 0.930 . S
C326 C324 1.419 . S
C326 C327 1.362 . S
C327 H317 0.930 . S
C327 C320 1.409 . S
C327 C326 1.362 . S
H328 C334 0.930 . S
H329 C337 0.930 . S
H330 C338 0.930 . S
H331 C339 0.930 . S
H332 C342 0.930 . S
H333 C343 0.930 1_554 S
C334 H328 0.930 . S
C334 C335 1.355 . S
C334 C336 1.415 . S
C335 C334 1.355 . S
C335 C337 1.419 . S
C336 C334 1.415 . S
C336 C341 1.425 . S
C336 C343 1.409 . S
C337 H329 0.930 . S
C337 C335 1.419 . S
C337 C338 1.362 . S
C338 H330 0.930 . S
C338 C337 1.362 . S
C338 C341 1.409 . S
C339 H331 0.930 . S
C339 C340 1.355 . S
C339 C341 1.415 . S
C340 C339 1.355 . S
C340 C342 1.419 1_556 S
C341 C336 1.425 . S
C341 C338 1.409 . S
C341 C339 1.415 . S
C342 H332 0.930 . S
C342 C340 1.419 1_554 S
C342 C343 1.362 1_554 S
C343 H333 0.930 1_556 S
C343 C336 1.409 . S
C343 C342 1.362 1_556 S
H344 C350 0.930 . S
H345 C353 0.930 . S
H346 C354 0.930 . S
H347 C355 0.930 . S
H348 C358 0.930 . S
H349 C359 0.930 1_455 S
C350 H344 0.930 . S
C350 C351 1.355 . S
C350 C352 1.415 . S
C351 C350 1.355 . S
C351 C353 1.419 . S
C352 C350 1.415 . S
C352 C357 1.425 . S
C352 C359 1.409 . S
C353 H345 0.930 . S
C353 C351 1.419 . S
C353 C354 1.362 . S
C354 H346 0.930 . S
C354 C353 1.362 . S
C354 C357 1.409 . S
C355 H347 0.930 . S
C355 C356 1.355 . S
C355 C357 1.415 . S
C356 C355 1.355 . S
C356 C358 1.419 1_655 S
C357 C352 1.425 . S
C357 C354 1.409 . S
C357 C355 1.415 . S
C358 H348 0.930 . S
C358 C356 1.419 1_455 S
C358 C359 1.362 1_455 S
C359 H349 0.930 1_655 S
C359 C352 1.409 . S
C359 C358 1.362 1_655 S
H360 C366 0.930 . S
H361 C369 0.930 . S
H362 C370 0.930 . S
H363 C371 0.930 . S
H364 C374 0.930 . S
H365 C375 0.930 . S
C366 H360 0.930 . S
C366 C367 1.355 . S
C366 C368 1.415 . S
C367 C366 1.355 . S
C367 C369 1.419 . S
C368 C366 1.415 . S
C368 C373 1.425 . S
C368 C375 1.409 . S
C369 H361 0.930 . S
C369 C367 1.419 . S
C369 C370 1.362 . S
C370 H362 0.930 . S
C370 C369 1.362 . S
C370 C373 1.409 . S
C371 H363 0.930 . S
C371 C372 1.355 . S
C371 C373 1.415 . S
C372 C371 1.355 . S
C372 C374 1.419 . S
C373 C368 1.425 . S
C373 C370 1.409 . S
C373 C371 1.415 . S
C374 H364 0.930 . S
C374 C372 1.419 . S
C374 C375 1.362 . S
C375 H365 0.930 . S
C375 C368 1.409 . S
C375 C374 1.362 . S
H376 C382 0.930 . S
H377 C385 0.930 . S
H378 C386 0.930 . S
H379 C387 0.930 . S
H380 C390 0.930 . S
H381 C391 0.930 . S
C382 H376 0.930 . S
C382 C383 1.355 . S
C382 C384 1.415 . S
C383 C382 1.355 . S
C383 C385 1.419 . S
C384 C382 1.415 . S
C384 C389 1.425 . S
C384 C391 1.409 . S
C385 H377 0.930 . S
C385 C383 1.419 . S
C385 C386 1.362 . S
C386 H378 0.930 . S
C386 C385 1.362 . S
C386 C389 1.409 . S
C387 H379 0.930 . S
C387 C388 1.355 . S
C387 C389 1.415 . S
C388 C387 1.355 . S
C388 C390 1.419 . S
C389 C384 1.425 . S
C389 C386 1.409 . S
C389 C387 1.415 . S
C390 H380 0.930 . S
C390 C388 1.419 . S
C390 C391 1.362 . S
C391 H381 0.930 . S
C391 C384 1.409 . S
C391 C390 1.362 . S
H392 C398 0.930 . S
H393 C401 0.930 . S
H394 C402 0.930 . S
H395 C403 0.930 . S
H396 C406 0.930 . S
H397 C407 0.930 . S
C398 H392 0.930 . S
C398 C399 1.355 . S
C398 C400 1.415 . S
C399 C398 1.355 . S
C399 C401 1.419 . S
C400 C398 1.415 . S
C400 C405 1.425 . S
C400 C407 1.409 . S
C401 H393 0.930 . S
C401 C399 1.419 . S
C401 C402 1.362 . S
C402 H394 0.930 . S
C402 C401 1.362 . S
C402 C405 1.409 . S
C403 H395 0.930 . S
C403 C404 1.355 . S
C403 C405 1.415 . S
C404 C403 1.355 . S
C404 C406 1.419 . S
C405 C400 1.425 . S
C405 C402 1.409 . S
C405 C403 1.415 . S
C406 H396 0.930 . S
C406 C404 1.419 . S
C406 C407 1.362 . S
C407 H397 0.930 . S
C407 C400 1.409 . S
C407 C406 1.362 . S
H408 C414 0.930 . S
H409 C417 0.930 . S
H410 C418 0.930 . S
H411 C419 0.930 . S
H412 C422 0.930 . S
H413 C423 0.930 . S
C414 H408 0.930 . S
C414 C415 1.355 . S
C414 C416 1.415 . S
C415 C414 1.355 . S
C415 C417 1.419 . S
C416 C414 1.415 . S
C416 C421 1.425 . S
C416 C423 1.409 . S
C417 H409 0.930 . S
C417 C415 1.419 . S
C417 C418 1.362 . S
C418 H410 0.930 . S
C418 C417 1.362 . S
C418 C421 1.409 . S
C419 H411 0.930 . S
C419 C420 1.355 . S
C419 C421 1.415 . S
C420 C419 1.355 . S
C420 C422 1.419 . S
C421 C416 1.425 . S
C421 C418 1.409 . S
C421 C419 1.415 . S
C422 H412 0.930 . S
C422 C420 1.419 . S
C422 C423 1.362 . S
C423 H413 0.930 . S
C423 C416 1.409 . S
C423 C422 1.362 . S
H424 C430 0.930 . S
H425 C433 0.930 . S
H426 C434 0.930 . S
H427 C435 0.930 . S
H428 C438 0.930 . S
H429 C439 0.930 . S
C430 H424 0.930 . S
C430 C431 1.355 . S
C430 C432 1.415 . S
C431 C430 1.355 . S
C431 C433 1.419 . S
C432 C430 1.415 . S
C432 C437 1.425 . S
C432 C439 1.409 . S
C433 H425 0.930 . S
C433 C431 1.419 . S
C433 C434 1.362 . S
C434 H426 0.930 . S
C434 C433 1.362 . S
C434 C437 1.409 . S
C435 H427 0.930 . S
C435 C436 1.355 . S
C435 C437 1.415 . S
C436 C435 1.355 . S
C436 C438 1.419 . S
C437 C432 1.425 . S
C437 C434 1.409 . S
C437 C435 1.415 . S
C438 H428 0.930 . S
C438 C436 1.419 . S
C438 C439 1.362 . S
C439 H429 0.930 . S
C439 C432 1.409 . S
C439 C438 1.362 . S
H440 C446 0.930 . S
H441 C449 0.930 . S
H442 C450 0.930 . S
H443 C451 0.930 . S
H444 C454 0.930 . S
H445 C455 0.930 . S
C446 H440 0.930 . S
C446 C447 1.355 . S
C446 C448 1.415 . S
C447 C446 1.355 . S
C447 C449 1.419 . S
C448 C446 1.415 . S
C448 C453 1.425 . S
C448 C455 1.409 . S
C449 H441 0.930 . S
C449 C447 1.419 . S
C449 C450 1.362 . S
C450 H442 0.930 . S
C450 C449 1.362 . S
C450 C453 1.409 . S
C451 H443 0.930 . S
C451 C452 1.355 . S
C451 C453 1.415 . S
C452 C451 1.355 . S
C452 C454 1.419 . S
C453 C448 1.425 . S
C453 C450 1.409 . S
C453 C451 1.415 . S
C454 H444 0.930 . S
C454 C452 1.419 . S
C454 C455 1.362 . S
C455 H445 0.930 . S
C455 C448 1.409 . S
C455 C454 1.362 . S
H456 C462 0.930 . S
H457 C465 0.930 . S
H458 C466 0.930 . S
H459 C467 0.930 . S
H460 C470 0.930 . S
H461 C471 0.930 . S
C462 H456 0.930 . S
C462 C463 1.355 . S
C462 C464 1.415 . S
C463 C462 1.355 . S
C463 C465 1.419 . S
C464 C462 1.415 . S
C464 C469 1.425 . S
C464 C471 1.409 . S
C465 H457 0.930 . S
C465 C463 1.419 . S
C465 C466 1.362 . S
C466 H458 0.930 . S
C466 C465 1.362 . S
C466 C469 1.409 . S
C467 H459 0.930 . S
C467 C468 1.355 . S
C467 C469 1.415 . S
C468 C467 1.355 . S
C468 C470 1.419 . S
C469 C464 1.425 . S
C469 C466 1.409 . S
C469 C467 1.415 . S
C470 H460 0.930 . S
C470 C468 1.419 . S
C470 C471 1.362 . S
C471 H461 0.930 . S
C471 C464 1.409 . S
C471 C470 1.362 . S
H472 C478 0.930 . S
H473 C481 0.930 . S
H474 C482 0.930 . S
H475 C483 0.930 . S
H476 C486 0.930 1_556 S
H477 C487 0.930 . S
C478 H472 0.930 . S
C478 C479 1.355 . S
C478 C480 1.415 . S
C479 C478 1.355 . S
C479 C481 1.419 . S
C480 C478 1.415 . S
C480 C485 1.425 . S
C480 C487 1.409 . S
C481 H473 0.930 . S
C481 C479 1.419 . S
C481 C482 1.362 . S
C482 H474 0.930 . S
C482 C481 1.362 . S
C482 C485 1.409 . S
C483 H475 0.930 . S
C483 C484 1.355 . S
C483 C485 1.415 . S
C484 C483 1.355 . S
C484 C486 1.419 . S
C485 C480 1.425 . S
C485 C482 1.409 . S
C485 C483 1.415 . S
C486 H476 0.930 1_554 S
C486 C484 1.419 . S
C486 C487 1.362 . S
C487 H477 0.930 . S
C487 C480 1.409 . S
C487 C486 1.362 . S
H488 C494 0.930 . S
H489 C497 0.930 . S
H490 C498 0.930 . S
H491 C499 0.930 . S
H492 C502 0.930 . S
H493 C503 0.930 . S
C494 H488 0.930 . S
C494 C495 1.355 . S
C494 C496 1.415 . S
C495 C494 1.355 . S
C495 C497 1.419 . S
C496 C494 1.415 . S
C496 C501 1.425 . S
C496 C503 1.409 . S
C497 H489 0.930 . S
C497 C495 1.419 . S
C497 C498 1.362 . S
C498 H490 0.930 . S
C498 C497 1.362 . S
C498 C501 1.409 . S
C499 H491 0.930 . S
C499 C500 1.355 . S
C499 C501 1.415 . S
C500 C499 1.355 . S
C500 C502 1.419 . S
C501 C496 1.425 . S
C501 C498 1.409 . S
C501 C499 1.415 . S
C502 H492 0.930 . S
C502 C500 1.419 . S
C502 C503 1.362 . S
C503 H493 0.930 . S
C503 C496 1.409 . S
C503 C502 1.362 . S
H504 C510 0.930 . S
H505 C513 0.930 . S
H506 C514 0.930 . S
H507 C515 0.930 . S
H508 C518 0.930 . S
H509 C519 0.930 . S
C510 H504 0.930 . S
C510 C511 1.355 . S
C510 C512 1.415 . S
C511 C510 1.355 . S
C511 C513 1.419 . S
C512 C510 1.415 . S
C512 C517 1.425 . S
C512 C519 1.409 . S
C513 H505 0.930 . S
C513 C511 1.419 . S
C513 C514 1.362 . S
C514 H506 0.930 . S
C514 C513 1.362 . S
C514 C517 1.409 . S
C515 H507 0.930 . S
C515 C516 1.355 . S
C515 C517 1.415 . S
C516 C515 1.355 . S
C516 C518 1.419 . S
C517 C512 1.425 . S
C517 C514 1.409 . S
C517 C515 1.415 . S
C518 H508 0.930 . S
C518 C516 1.419 . S
C518 C519 1.362 . S
C519 H509 0.930 . S
C519 C512 1.409 . S
C519 C518 1.362 . S
H520 C526 0.930 . S
H521 C529 0.930 . S
H522 C530 0.930 . S
H523 C531 0.930 . S
H524 C534 0.930 . S
H525 C535 0.930 . S
C526 H520 0.930 . S
C526 C527 1.355 . S
C526 C528 1.415 . S
C527 C526 1.355 . S
C527 C529 1.419 . S
C528 C526 1.415 . S
C528 C533 1.425 . S
C528 C535 1.409 . S
C529 H521 0.930 . S
C529 C527 1.419 . S
C529 C530 1.362 . S
C530 H522 0.930 . S
C530 C529 1.362 . S
C530 C533 1.409 . S
C531 H523 0.930 . S
C531 C532 1.355 . S
C531 C533 1.415 . S
C532 C531 1.355 . S
C532 C534 1.419 . S
C533 C528 1.425 . S
C533 C530 1.409 . S
C533 C531 1.415 . S
C534 H524 0.930 . S
C534 C532 1.419 . S
C534 C535 1.362 . S
C535 H525 0.930 . S
C535 C528 1.409 . S
C535 C534 1.362 . S
H536 C542 0.930 . S
H537 C545 0.930 . S
H538 C546 0.930 . S
H539 C547 0.930 . S
H540 C550 0.930 . S
H541 C551 0.930 . S
C542 H536 0.930 . S
C542 C543 1.355 . S
C542 C544 1.415 . S
C543 C542 1.355 . S
C543 C545 1.419 . S
C544 C542 1.415 . S
C544 C549 1.425 . S
C544 C551 1.409 . S
C545 H537 0.930 . S
C545 C543 1.419 . S
C545 C546 1.362 . S
C546 H538 0.930 . S
C546 C545 1.362 . S
C546 C549 1.409 . S
C547 H539 0.930 . S
C547 C548 1.355 . S
C547 C549 1.415 . S
C548 C547 1.355 . S
C548 C550 1.419 . S
C549 C544 1.425 . S
C549 C546 1.409 . S
C549 C547 1.415 . S
C550 H540 0.930 . S
C550 C548 1.419 . S
C550 C551 1.362 . S
C551 H541 0.930 . S
C551 C544 1.409 . S
C551 C550 1.362 . S
H552 C558 0.930 . S
H553 C561 0.930 . S
H554 C562 0.930 . S
H555 C563 0.930 . S
H556 C566 0.930 . S
H557 C567 0.930 . S
C558 H552 0.930 . S
C558 C559 1.355 . S
C558 C560 1.415 . S
C559 C558 1.355 . S
C559 C561 1.419 . S
C560 C558 1.415 . S
C560 C565 1.425 . S
C560 C567 1.409 . S
C561 H553 0.930 . S
C561 C559 1.419 . S
C561 C562 1.362 . S
C562 H554 0.930 . S
C562 C561 1.362 . S
C562 C565 1.409 . S
C563 H555 0.930 . S
C563 C564 1.355 . S
C563 C565 1.415 . S
C564 C563 1.355 . S
C564 C566 1.419 . S
C565 C560 1.425 . S
C565 C562 1.409 . S
C565 C563 1.415 . S
C566 H556 0.930 . S
C566 C564 1.419 . S
C566 C567 1.362 . S
C567 H557 0.930 . S
C567 C560 1.409 . S
C567 C566 1.362 . S
C191 N1 1.359 . S
C196 C106 1.361 . S
C207 N18 1.510 . S
C212 C125 1.520 . S
C228 C162 1.443 . S
C223 N28 1.454 . S
C239 N40 1.834 . S
C244 C172 1.868 . S
C260 C142 2.073 . S
C255 N5 2.030 . S
C276 C112 1.445 . S
C271 N14 1.426 . S
C292 C183 1.623 . S
C287 N31 1.587 . S
C308 C153 1.175 . S
C303 N41 1.219 . S
C319 N2 1.474 . S
C324 C166 1.496 . S
C340 C133 1.771 . S
C335 N27 1.828 . S
C351 N44 1.762 . S
C356 C123 1.816 . S
C367 N15 1.122 . S
C372 C145 1.068 . S
C388 C105 1.582 . S
C383 N57 1.633 . S
C399 N70 1.179 . S
C404 C126 1.203 . S
C415 N79 1.614 . S
C420 C163 1.653 . S
C431 N93 1.664 . S
C436 C173 1.658 . S
C447 N54 1.618 . S
C452 C143 1.674 . S
C468 C113 1.799 . S
C463 N66 1.850 . S
C484 C182 1.144 . S
C479 N80 1.133 . S
C500 C152 1.510 . S
C495 N96 1.512 . S
C511 N53 1.521 . S
C516 C165 1.531 . S
C532 C132 1.634 . S
C527 N83 1.634 . S
C548 C122 1.926 . S
C543 N92 1.910 . S
C559 N67 1.218 . S
C564 C146 1.218 . S
