# Generated by pormake.
# Topology apo, (3,6)-cn, num edge types: 1
# Building blocks:
#     Node 0, Type 0, BuildingBlock: QEWDON_clean_linker_0, # of connection points: 3
#     Node 1, Type 0, BuildingBlock: QEWDON_clean_linker_0, # of connection points: 3
#     Node 2, Type 0, BuildingBlock: QEWDON_clean_linker_0, # of connection points: 3
#     Node 3, Type 0, BuildingBlock: QEWDON_clean_linker_0, # of connection points: 3
#     Node 4, Type 0, BuildingBlock: QEWDON_clean_linker_0, # of connection points: 3
#     Node 5, Type 0, BuildingBlock: QEWDON_clean_linker_0, # of connection points: 3
#     Node 6, Type 0, BuildingBlock: QEWDON_clean_linker_0, # of connection points: 3
#     Node 7, Type 0, BuildingBlock: QEWDON_clean_linker_0, # of connection points: 3
#     Node 8, Type 1, BuildingBlock: KUMJIN_clean_sbu_1, # of connection points: 6
#     Node 9, Type 1, BuildingBlock: KUMJIN_clean_sbu_1, # of connection points: 6
#     Node 10, Type 1, BuildingBlock: KUMJIN_clean_sbu_1, # of connection points: 6
#     Node 11, Type 1, BuildingBlock: KUMJIN_clean_sbu_1, # of connection points: 6
#     Edge 12, Type (0, 1), BuildingBlock: TEMPAE_clean_linker_10, # of connection points: 2
#     Edge 13, Type (0, 1), BuildingBlock: TEMPAE_clean_linker_10, # of connection points: 2
#     Edge 14, Type (0, 1), BuildingBlock: TEMPAE_clean_linker_10, # of connection points: 2
#     Edge 15, Type (0, 1), BuildingBlock: TEMPAE_clean_linker_10, # of connection points: 2
#     Edge 16, Type (0, 1), BuildingBlock: TEMPAE_clean_linker_10, # of connection points: 2
#     Edge 17, Type (0, 1), BuildingBlock: TEMPAE_clean_linker_10, # of connection points: 2
#     Edge 18, Type (0, 1), BuildingBlock: TEMPAE_clean_linker_10, # of connection points: 2
#     Edge 19, Type (0, 1), BuildingBlock: TEMPAE_clean_linker_10, # of connection points: 2
#     Edge 20, Type (0, 1), BuildingBlock: TEMPAE_clean_linker_10, # of connection points: 2
#     Edge 21, Type (0, 1), BuildingBlock: TEMPAE_clean_linker_10, # of connection points: 2
#     Edge 22, Type (0, 1), BuildingBlock: TEMPAE_clean_linker_10, # of connection points: 2
#     Edge 23, Type (0, 1), BuildingBlock: TEMPAE_clean_linker_10, # of connection points: 2
#     Edge 24, Type (0, 1), BuildingBlock: TEMPAE_clean_linker_10, # of connection points: 2
#     Edge 25, Type (0, 1), BuildingBlock: TEMPAE_clean_linker_10, # of connection points: 2
#     Edge 26, Type (0, 1), BuildingBlock: TEMPAE_clean_linker_10, # of connection points: 2
#     Edge 27, Type (0, 1), BuildingBlock: TEMPAE_clean_linker_10, # of connection points: 2
#     Edge 28, Type (0, 1), BuildingBlock: TEMPAE_clean_linker_10, # of connection points: 2
#     Edge 29, Type (0, 1), BuildingBlock: TEMPAE_clean_linker_10, # of connection points: 2
#     Edge 30, Type (0, 1), BuildingBlock: TEMPAE_clean_linker_10, # of connection points: 2
#     Edge 31, Type (0, 1), BuildingBlock: TEMPAE_clean_linker_10, # of connection points: 2
#     Edge 32, Type (0, 1), BuildingBlock: TEMPAE_clean_linker_10, # of connection points: 2
#     Edge 33, Type (0, 1), BuildingBlock: TEMPAE_clean_linker_10, # of connection points: 2
#     Edge 34, Type (0, 1), BuildingBlock: TEMPAE_clean_linker_10, # of connection points: 2
#     Edge 35, Type (0, 1), BuildingBlock: TEMPAE_clean_linker_10, # of connection points: 2
# Relax obj value: 0.074
# Max RMSD: 0.259
# Mean RMSD: 0.207
data_MOF--net-apo--node1-KUMJIN_clean_sbu_1--node2-QEWDON_clean_linker_0--edge1-TEMPAE_clean_linker_10
_symmetry_space_group_name_H-M    P1
_symmetry_Int_Tables_number       1
_symmetry_cell_setting            triclinic
loop_
_symmetry_equiv_pos_as_xyz
'x, y, z'
_cell_length_a     30.320162
_cell_length_b     43.821008
_cell_length_c     52.523074
_cell_angle_alpha  89.857934
_cell_angle_beta   89.892155
_cell_angle_gamma 90.121715
loop_
_atom_site_label
_atom_site_type_symbol
_atom_site_fract_x
_atom_site_fract_y
_atom_site_fract_z
_atom_type_partial_charge
H0 H 0.27204 0.39869 0.3757 0.0
C1 C 0.2888 0.39835 0.39389 0.0
C2 C 0.32825 0.41513 0.39727 0.0
C3 C 0.26989 0.38215 0.4144 0.0
H4 H 0.37755 0.4289 0.42481 0.0
C5 C 0.34832 0.41521 0.4215 0.0
C6 C 0.33032 0.39855 0.44186 0.0
C7 C 0.29161 0.38177 0.438 0.0
C8 C 0.22496 0.36863 0.41281 0.0
H9 H 0.27696 0.36957 0.45391 0.0
C10 C 0.21323 0.34701 0.39409 0.0
C11 C 0.17122 0.33272 0.39477 0.0
C12 C 0.19391 0.37666 0.43152 0.0
H13 H 0.20183 0.39351 0.44588 0.0
C14 C 0.1527 0.36279 0.43228 0.0
H15 H 0.2369 0.34107 0.37946 0.0
C16 C 0.14162 0.34076 0.41438 0.0
H17 H 0.10987 0.32965 0.4163 0.0
H18 H 0.12943 0.3688 0.44709 0.0
H19 H 0.23888 0.10528 0.87563 0.0
C20 C 0.22322 0.10793 0.89404 0.0
C21 C 0.18424 0.09161 0.89995 0.0
C22 C 0.24422 0.12588 0.91263 0.0
H23 H 0.13594 0.08286 0.92968 0.0
C24 C 0.16617 0.0946 0.92457 0.0
C25 C 0.18762 0.11161 0.94334 0.0
C26 C 0.22633 0.12745 0.93728 0.0
C27 C 0.28847 0.13903 0.90789 0.0
H28 H 0.24371 0.13981 0.95207 0.0
C29 C 0.29473 0.16467 0.89199 0.0
C30 C 0.33686 0.17822 0.88992 0.0
C31 C 0.32467 0.12653 0.92084 0.0
H32 H 0.32044 0.10684 0.93314 0.0
C33 C 0.36647 0.13943 0.91826 0.0
H34 H 0.26684 0.17471 0.88221 0.0
C35 C 0.37253 0.16522 0.90308 0.0
H36 H 0.40522 0.17514 0.90162 0.0
H37 H 0.39418 0.12965 0.92834 0.0
H38 H 0.75288 0.11512 0.65061 0.0
C39 C 0.76604 0.11636 0.63144 0.0
C40 C 0.8031 0.09878 0.62467 0.0
C41 C 0.74455 0.13441 0.61322 0.0
H42 H 0.84558 0.08501 0.59374 0.0
C43 C 0.8186 0.09973 0.59931 0.0
C44 C 0.79755 0.11794 0.58081 0.0
C45 C 0.76133 0.13579 0.58834 0.0
C46 C 0.70116 0.14854 0.6188 0.0
H47 H 0.74496 0.15035 0.5746 0.0
C48 C 0.69485 0.16857 0.63948 0.0
C49 C 0.65309 0.18191 0.6438 0.0
C50 C 0.66539 0.14167 0.60282 0.0
H51 H 0.6693 0.1261 0.58697 0.0
C52 C 0.62419 0.1546 0.6071 0.0
H53 H 0.72228 0.17394 0.65189 0.0
C54 C 0.61805 0.17464 0.6273 0.0
H55 H 0.58589 0.18497 0.62968 0.0
H56 H 0.59696 0.14926 0.59457 0.0
H57 H 0.73967 0.39585 0.156 0.0
C58 C 0.7245 0.39416 0.13739 0.0
C59 C 0.68589 0.41078 0.132 0.0
C60 C 0.74518 0.37689 0.11836 0.0
H61 H 0.63906 0.42304 0.1028 0.0
C62 C 0.6675 0.40916 0.10742 0.0
C63 C 0.6878 0.39187 0.08817 0.0
C64 C 0.72624 0.37545 0.09403 0.0
C65 C 0.78972 0.36395 0.12253 0.0
H66 H 0.74244 0.36218 0.07935 0.0
C67 C 0.79862 0.34369 0.14277 0.0
C68 C 0.84154 0.33197 0.14619 0.0
C69 C 0.82404 0.37248 0.10594 0.0
H70 H 0.81807 0.38822 0.09039 0.0
C71 C 0.86646 0.36113 0.10938 0.0
H72 H 0.7723 0.33696 0.15562 0.0
C73 C 0.87522 0.34101 0.12929 0.0
H74 H 0.90831 0.33201 0.13116 0.0
H75 H 0.89263 0.36782 0.09647 0.0
H76 H 0.68368 0.6363 0.65141 0.0
C77 C 0.67833 0.6313 0.63152 0.0
C78 C 0.66314 0.60225 0.62355 0.0
C79 C 0.68502 0.65498 0.61388 0.0
H80 H 0.64555 0.57589 0.58998 0.0
C81 C 0.65769 0.59741 0.59705 0.0
C82 C 0.66725 0.62038 0.57911 0.0
C83 C 0.68003 0.64924 0.58784 0.0
C84 C 0.69198 0.6868 0.62239 0.0
H85 H 0.68506 0.66771 0.57436 0.0
C86 C 0.72999 0.69571 0.63592 0.0
C87 C 0.73687 0.72675 0.6417 0.0
C88 C 0.66054 0.70889 0.61564 0.0
H89 H 0.63102 0.70246 0.60534 0.0
C90 C 0.66691 0.73944 0.62193 0.0
H91 H 0.75468 0.67893 0.64099 0.0
C92 C 0.70498 0.74839 0.6347 0.0
H93 H 0.70969 0.77233 0.63911 0.0
H94 H 0.64252 0.75628 0.61662 0.0
H95 H 0.84147 0.87406 0.15798 0.0
C96 C 0.83974 0.87964 0.1379 0.0
C97 C 0.85081 0.90928 0.12931 0.0
C98 C 0.83004 0.85629 0.12043 0.0
H99 H 0.85884 0.93772 0.09589 0.0
C100 C 0.85055 0.91517 0.10285 0.0
C101 C 0.84217 0.8919 0.08512 0.0
C102 C 0.83113 0.86271 0.0942 0.0
C103 C 0.82576 0.82403 0.12886 0.0
H104 H 0.82456 0.84449 0.08079 0.0
C105 C 0.79166 0.81404 0.14529 0.0
C106 C 0.78749 0.78269 0.15163 0.0
C107 C 0.856 0.80268 0.11932 0.0
H108 H 0.88254 0.80984 0.10679 0.0
C109 C 0.85228 0.77195 0.12561 0.0
H110 H 0.76834 0.83047 0.15274 0.0
C111 C 0.81825 0.76196 0.1414 0.0
H112 H 0.81557 0.73771 0.14513 0.0
H113 H 0.87557 0.75569 0.11793 0.0
H114 H 0.18595 0.87218 0.36853 0.0
C115 C 0.18417 0.87607 0.38888 0.0
C116 C 0.17218 0.90499 0.39809 0.0
C117 C 0.19014 0.85156 0.40582 0.0
H118 H 0.15855 0.93178 0.43162 0.0
C119 C 0.16771 0.90948 0.42447 0.0
C120 C 0.17487 0.88543 0.44165 0.0
C121 C 0.18616 0.85657 0.43215 0.0
C122 C 0.19504 0.82 0.39618 0.0
H123 H 0.19029 0.83762 0.44524 0.0
C124 C 0.22808 0.8122 0.37843 0.0
C125 C 0.23172 0.78192 0.3696 0.0
C126 C 0.16564 0.79738 0.40481 0.0
H127 H 0.1397 0.8029 0.41824 0.0
C128 C 0.16898 0.76754 0.39602 0.0
H129 H 0.25091 0.82951 0.37171 0.0
C130 C 0.20176 0.75979 0.37861 0.0
H131 H 0.20419 0.73624 0.37255 0.0
H132 H 0.14621 0.75029 0.40283 0.0
H133 H 0.32451 0.65097 0.86429 0.0
C134 C 0.32686 0.6457 0.88442 0.0
C135 C 0.34089 0.61657 0.89225 0.0
C136 C 0.31937 0.6687 0.90255 0.0
H137 H 0.35698 0.58788 0.92436 0.0
C138 C 0.34608 0.61032 0.91834 0.0
C139 C 0.33714 0.63273 0.93667 0.0
C140 C 0.32373 0.6618 0.92858 0.0
C141 C 0.31277 0.70091 0.89468 0.0
H142 H 0.31832 0.67956 0.94258 0.0
C143 C 0.27833 0.70976 0.87822 0.0
C144 C 0.27244 0.74086 0.87184 0.0
C145 C 0.34152 0.72326 0.9043 0.0
H146 H 0.36846 0.71699 0.91678 0.0
C147 C 0.33601 0.75384 0.89795 0.0
H148 H 0.25611 0.69263 0.8707 0.0
C149 C 0.30169 0.76265 0.882 0.0
H150 H 0.2976 0.78674 0.87799 0.0
H151 H 0.35822 0.77086 0.90561 0.0
Eu152 Eu 0.06228 0.11916 0.2369 0.0
C153 C 0.89259 0.0655 0.27787 0.0
N154 N 0.9031 0.09561 0.27625 0.0
C155 C 0.83452 0.10604 0.2554 0.0
C156 C 0.85308 0.05428 0.2673 0.0
C157 C 0.87435 0.11607 0.26588 0.0
C158 C 0.82401 0.07498 0.2559 0.0
C159 C 0.91266 0.0144 0.29111 0.0
C160 C 0.92219 0.04587 0.28953 0.0
C161 C 0.87388 1.00294 0.28004 0.0
C162 C 0.8441 0.02285 0.26823 0.0
Eu163 Eu 0.97148 0.11068 0.2937 0.0
N164 N 0.95973 0.0576 0.29981 0.0
C165 C 0.942 0.99547 0.30421 0.0
C166 C 0.98611 0.0397 0.31459 0.0
C167 C 0.97842 0.00829 0.31641 0.0
H168 H 0.88233 0.14009 0.2656 0.0
H169 H 1.00027 0.99404 0.32743 0.0
H170 H 0.13999 0.06618 0.25322 0.0
H171 H 0.09158 0.23742 0.2104 0.0
H172 H 0.01267 0.0496 0.32541 0.0
H173 H 0.93602 0.97115 0.30579 0.0
H174 H 0.05059 0.18836 0.21239 0.0
H175 H 0.81203 0.12225 0.24689 0.0
H176 H 0.86628 0.97879 0.28085 0.0
H177 H 0.81412 0.01373 0.25999 0.0
H178 H 0.21342 0.06533 0.27297 0.0
H179 H 0.79333 0.06724 0.24753 0.0
H180 H 0.16406 0.24213 0.23174 0.0
N181 N 0.13538 0.11475 0.25292 0.0
C182 C 0.15824 0.14135 0.25517 0.0
C183 C 0.19799 0.08693 0.26847 0.0
C184 C 0.20127 0.14185 0.26535 0.0
C185 C 0.15581 0.08757 0.25775 0.0
C186 C 0.22048 0.11424 0.2728 0.0
N187 N 0.09928 0.16632 0.23478 0.0
C188 C 0.08231 0.19045 0.2216 0.0
C189 C 0.16432 0.19527 0.24497 0.0
C190 C 0.14005 0.1678 0.24527 0.0
C191 C 0.14633 0.22066 0.23251 0.0
C192 C 0.10542 0.2181 0.22043 0.0
H193 H 0.25342 0.11365 0.28075 0.0
H194 H 0.25731 0.17048 0.27477 0.0
H195 H 0.22495 0.21727 0.25682 0.0
O196 O 0.04025 0.12111 0.19734 0.0
O197 O 0.05361 0.15846 0.26467 0.0
O198 O 0.03659 0.13441 0.3022 0.0
O199 O 0.10719 0.1081 0.20572 0.0
O200 O 0.99545 0.14215 0.23118 0.0
O201 O 0.96536 0.15452 0.27078 0.0
O202 O 0.95792 0.10305 0.33395 0.0
O203 O 0.95937 0.09467 0.25285 0.0
O204 O 0.02501 0.07458 0.24038 0.0
O205 O 0.9301 0.14245 0.31549 0.0
O206 O 0.04139 0.09423 0.30134 0.0
O207 O 0.06449 0.07686 0.26219 0.0
C208 C 0.0542 0.15736 0.28964 0.0
C209 C 0.07578 0.08858 0.16818 0.0
C210 C 0.08597 0.07459 0.12362 0.0
C211 C 0.07302 0.04457 0.1296 0.0
C212 C 0.06323 0.05852 0.17389 0.0
C213 C 0.06215 0.03661 0.15464 0.0
C214 C 0.08729 0.09649 0.14313 0.0
C215 C 0.96954 0.15885 0.24594 0.0
C216 C 0.07774 0.11196 0.18806 0.0
C217 C 0.22446 0.16961 0.26671 0.0
C218 C 0.20609 0.19625 0.25644 0.0
C219 C 0.9819 0.07318 0.24141 0.0
C220 C 0.89097 0.12043 0.35055 0.0
C221 C 0.85406 0.11247 0.39145 0.0
C222 C 0.81627 0.10243 0.37848 0.0
C223 C 0.85277 0.11057 0.33796 0.0
C224 C 0.89127 0.12173 0.37734 0.0
C225 C 0.81558 0.10176 0.35189 0.0
C226 C 0.06581 0.07618 0.28721 0.0
C227 C 0.9321 0.12643 0.33641 0.0
H228 H 0.0723 0.02713 0.11502 0.0
H229 H 0.05468 0.05201 0.19318 0.0
H230 H 0.05338 0.0133 0.15919 0.0
H231 H 0.09705 0.11976 0.1388 0.0
H232 H 0.7872 0.09526 0.38894 0.0
H233 H 0.85185 0.10916 0.31745 0.0
H234 H 0.92088 0.12892 0.38722 0.0
H235 H 0.7863 0.09401 0.34205 0.0
Eu236 Eu 0.44707 0.39519 0.73904 0.0
C237 C 0.63025 0.43842 0.77981 0.0
N238 N 0.61402 0.40949 0.78105 0.0
C239 C 0.68371 0.38946 0.76763 0.0
C240 C 0.67413 0.44396 0.77213 0.0
C241 C 0.64 0.38508 0.77536 0.0
C242 C 0.70084 0.41902 0.76593 0.0
C243 C 0.61852 0.49285 0.78491 0.0
C244 C 0.60255 0.46261 0.78593 0.0
C245 C 0.66199 0.49847 0.77686 0.0
C246 C 0.68976 0.47409 0.77059 0.0
Eu247 Eu 0.53977 0.40424 0.79379 0.0
N248 N 0.56053 0.45648 0.79369 0.0
C249 C 0.59069 0.5165 0.79267 0.0
C250 C 0.53509 0.47914 0.80362 0.0
C251 C 0.54911 0.50953 0.80255 0.0
H252 H 0.62715 0.36219 0.77706 0.0
H253 H 0.52825 0.52749 0.80987 0.0
H254 H 0.36631 0.44555 0.75111 0.0
H255 H 0.44264 0.27034 0.73756 0.0
H256 H 0.50481 0.4739 0.81331 0.0
H257 H 0.60167 0.54004 0.79212 0.0
H258 H 0.47572 0.32118 0.73161 0.0
H259 H 0.70421 0.37003 0.76305 0.0
H260 H 0.67466 0.52157 0.77576 0.0
H261 H 0.72328 0.4788 0.76454 0.0
H262 H 0.28806 0.44492 0.76423 0.0
H263 H 0.73469 0.42233 0.75987 0.0
H264 H 0.36471 0.26562 0.75106 0.0
N265 N 0.37195 0.39721 0.75051 0.0
C266 C 0.35104 0.36988 0.75319 0.0
C267 C 0.30546 0.42367 0.7613 0.0
C268 C 0.30635 0.36848 0.76059 0.0
C269 C 0.34987 0.42395 0.75408 0.0
C270 C 0.28364 0.39583 0.76467 0.0
N271 N 0.41837 0.34515 0.74311 0.0
C272 C 0.44226 0.31952 0.73815 0.0
C273 C 0.35426 0.31446 0.75256 0.0
C274 C 0.37478 0.34312 0.74924 0.0
C275 C 0.37924 0.28806 0.74863 0.0
C276 C 0.4233 0.29062 0.74116 0.0
H277 H 0.24928 0.39571 0.77038 0.0
H278 H 0.25164 0.33845 0.76973 0.0
H279 H 0.29356 0.29123 0.76274 0.0
O280 O 0.45498 0.37957 0.69985 0.0
O281 O 0.43317 0.37622 0.77881 0.0
O282 O 0.50038 0.36028 0.79374 0.0
O283 O 0.40611 0.41367 0.70837 0.0
O284 O 0.51476 0.37386 0.73254 0.0
O285 O 0.54389 0.36 0.77166 0.0
O286 O 0.52958 0.41207 0.83453 0.0
O287 O 0.555 0.42222 0.75381 0.0
O288 O 0.48834 0.4384 0.73817 0.0
O289 O 0.58461 0.38489 0.82214 0.0
O290 O 0.47099 0.42459 0.79968 0.0
O291 O 0.44667 0.44018 0.76005 0.0
C292 C 0.45731 0.35772 0.79266 0.0
C293 C 0.44024 0.41575 0.66793 0.0
C294 C 0.44026 0.42424 0.62191 0.0
C295 C 0.47111 0.44792 0.62522 0.0
C296 C 0.47119 0.43923 0.67064 0.0
C297 C 0.48627 0.45539 0.64946 0.0
C298 C 0.42456 0.40833 0.64351 0.0
C299 C 0.54069 0.35672 0.74677 0.0
C300 C 0.42589 0.39832 0.69049 0.0
C301 C 0.28589 0.33995 0.76394 0.0
C302 C 0.30977 0.31304 0.75994 0.0
C303 C 0.5315 0.44058 0.73944 0.0
C304 C 0.59389 0.41385 0.85971 0.0
C305 C 0.61755 0.42354 0.90346 0.0
C306 C 0.64715 0.44577 0.89425 0.0
C307 C 0.62393 0.43596 0.85111 0.0
C308 C 0.59093 0.40753 0.88596 0.0
C309 C 0.65028 0.45184 0.86827 0.0
C310 C 0.4473 0.4427 0.785 0.0
C311 C 0.56523 0.39777 0.84144 0.0
H312 H 0.48322 0.46086 0.60904 0.0
H313 H 0.48379 0.44478 0.68918 0.0
H314 H 0.50987 0.47369 0.65182 0.0
H315 H 0.40102 0.38987 0.64129 0.0
H316 H 0.66858 0.45808 0.90714 0.0
H317 H 0.62723 0.44089 0.83115 0.0
H318 H 0.56775 0.39046 0.89274 0.0
H319 H 0.67341 0.46882 0.86137 0.0
Eu320 Eu 0.03912 0.90035 0.73371 0.0
C321 C 0.84494 0.87724 0.77391 0.0
N322 N 0.86839 0.90368 0.77525 0.0
C323 C 0.80489 0.93236 0.76258 0.0
C324 C 0.8003 0.87742 0.7664 0.0
C325 C 0.8491 0.93107 0.76999 0.0
C326 C 0.7804 0.90542 0.76071 0.0
C327 C 0.84292 0.82192 0.77702 0.0
C328 C 0.86611 0.84974 0.77914 0.0
C329 C 0.79839 0.82209 0.76971 0.0
C330 C 0.77716 0.84974 0.76443 0.0
Eu331 Eu 0.94297 0.89911 0.78715 0.0
N332 N 0.9098 0.85014 0.78525 0.0
C333 C 0.86529 0.79468 0.78206 0.0
C334 C 0.93114 0.82374 0.79132 0.0
C335 C 0.90945 0.79564 0.78948 0.0
H336 H 0.86765 0.95201 0.77185 0.0
H337 H 0.92675 0.77473 0.79395 0.0
H338 H 0.12273 0.86154 0.75939 0.0
H339 H 0.03049 0.02079 0.7052 0.0
H340 H 0.96466 0.82406 0.79789 0.0
H341 H 0.84867 0.77285 0.78054 0.0
H342 H 0.00745 0.96708 0.70571 0.0
H343 H 0.78972 0.95412 0.75834 0.0
H344 H 0.78012 0.80093 0.76793 0.0
H345 H 0.74289 0.84944 0.75862 0.0
H346 H 0.1974 0.87174 0.77636 0.0
H347 H 0.74619 0.90649 0.75484 0.0
H348 H 0.10025 0.0361 0.72595 0.0
N349 N 0.11021 0.90799 0.75057 0.0
C350 C 0.12626 0.937 0.74963 0.0
C351 C 0.17757 0.89029 0.76911 0.0
C352 C 0.16858 0.94385 0.75916 0.0
C353 C 0.13526 0.88461 0.75969 0.0
C354 C 0.19421 0.92005 0.76899 0.0
N355 N 0.05934 0.95257 0.73008 0.0
C356 C 0.03594 0.97365 0.71655 0.0
C357 C 0.11553 0.99029 0.73863 0.0
C358 C 0.09981 0.95996 0.73954 0.0
C359 C 0.08937 0.01256 0.72702 0.0
C360 C 0.04982 1.00407 0.71546 0.0
H361 H 0.2269 0.92438 0.77647 0.0
H362 H 0.21589 0.97991 0.7664 0.0
H363 H 0.16955 0.02053 0.7484 0.0
O364 O 0.04254 0.90628 0.69227 0.0
O365 O 0.05249 0.91773 0.77398 0.0
O366 O 0.98767 0.94035 0.78555 0.0
O367 O 0.08573 0.87422 0.71079 0.0
O368 O 0.97272 0.92208 0.72449 0.0
O369 O 0.94776 0.9418 0.76267 0.0
O370 O 0.95143 0.8891 0.82772 0.0
O371 O 0.92769 0.87856 0.74851 0.0
O372 O 0.99276 0.85954 0.73233 0.0
O373 O 0.90041 0.92012 0.81574 0.0
O374 O 0.00677 0.87313 0.79547 0.0
O375 O 0.035 0.85689 0.75678 0.0
C376 C 0.03084 0.93923 0.78603 0.0
C377 C 0.11323 0.89929 0.67405 0.0
C378 C 0.14617 0.909 0.6322 0.0
C379 C 0.1843 0.92008 0.64436 0.0
C380 C 0.1518 0.91026 0.68563 0.0
C381 C 0.18693 0.92074 0.67085 0.0
C382 C 0.11053 0.89875 0.64731 0.0
C383 C 0.94861 0.94162 0.73757 0.0
C384 C 0.07595 0.88797 0.68957 0.0
C385 C 0.1837 0.97415 0.75887 0.0
C386 C 0.1572 0.99731 0.74872 0.0
C387 C 0.94954 0.85924 0.73423 0.0
C388 C 0.93077 0.92785 0.85657 0.0
C389 C 0.9267 0.939 0.90221 0.0
C390 C 0.94911 0.96668 0.89759 0.0
C391 C 0.95305 0.95548 0.85252 0.0
C392 C 0.91773 0.91964 0.88139 0.0
C393 C 0.96219 0.97475 0.87295 0.0
C394 C 0.0324 0.85517 0.78174 0.0
C395 C 0.92038 0.90766 0.83502 0.0
H396 H 0.21262 0.9276 0.63341 0.0
H397 H 0.15517 0.91039 0.70605 0.0
H398 H 0.21659 0.92904 0.67998 0.0
H399 H 0.08071 0.89037 0.63835 0.0
H400 H 0.95594 0.98241 0.91296 0.0
H401 H 0.96292 0.9622 0.83354 0.0
H402 H 0.90091 0.89808 0.88444 0.0
H403 H 0.9791 0.99617 0.86965 0.0
Eu404 Eu 0.4623 0.61378 0.23125 0.0
C405 C 0.63189 0.66063 0.29225 0.0
N406 N 0.61827 0.63369 0.28206 0.0
C407 C 0.68888 0.62683 0.26236 0.0
C408 C 0.67433 0.67227 0.287 0.0
C409 C 0.64634 0.61632 0.26789 0.0
C410 C 0.70284 0.65501 0.27179 0.0
C411 C 0.61511 0.70557 0.31736 0.0
C412 C 0.6025 0.67712 0.30718 0.0
C413 C 0.65731 0.71731 0.31206 0.0
C414 C 0.68682 0.70071 0.29693 0.0
Eu415 Eu 0.54598 0.61786 0.29263 0.0
N416 N 0.56159 0.66544 0.31164 0.0
C417 C 0.58491 0.72137 0.33258 0.0
C418 C 0.53265 0.68019 0.32721 0.0
C419 C 0.54363 0.7085 0.33768 0.0
H420 H 0.6361 0.59433 0.26086 0.0
H421 H 0.52039 0.72026 0.34985 0.0
H422 H 0.38072 0.65932 0.25487 0.0
H423 H 0.45109 0.49475 0.20219 0.0
H424 H 0.50139 0.66988 0.33199 0.0
H425 H 0.59333 0.7433 0.34074 0.0
H426 H 0.48491 0.54618 0.2052 0.0
H427 H 0.71092 0.61317 0.25086 0.0
H428 H 0.66747 0.73922 0.3196 0.0
H429 H 0.71921 0.71011 0.29298 0.0
H430 H 0.30969 0.6532 0.27683 0.0
H431 H 0.73575 0.66314 0.26736 0.0
H432 H 0.3795 0.48438 0.22329 0.0
N433 N 0.39179 0.61163 0.25091 0.0
C434 C 0.37225 0.58355 0.25113 0.0
C435 C 0.32745 0.63332 0.27031 0.0
C436 C 0.33053 0.57911 0.26252 0.0
C437 C 0.36856 0.63664 0.25854 0.0
C438 C 0.3088 0.60434 0.27288 0.0
N439 N 0.43302 0.56413 0.2278 0.0
C440 C 0.45357 0.54168 0.21432 0.0
C441 C 0.37258 0.53041 0.23768 0.0
C442 C 0.39279 0.55938 0.23867 0.0
C443 C 0.39398 0.50695 0.22446 0.0
C444 C 0.43449 0.51268 0.21258 0.0
H445 H 0.27669 0.60191 0.28175 0.0
H446 H 0.27934 0.54612 0.27139 0.0
H447 H 0.31627 0.5035 0.24978 0.0
O448 O 0.46482 0.60473 0.19018 0.0
O449 O 0.47059 0.57407 0.25935 0.0
O450 O 0.47615 0.60091 0.29581 0.0
O451 O 0.41823 0.63724 0.20491 0.0
O452 O 0.53271 0.59849 0.22525 0.0
O453 O 0.55627 0.57924 0.26409 0.0
O454 O 0.55575 0.61504 0.33377 0.0
O455 O 0.56414 0.64965 0.26024 0.0
O456 O 0.51532 0.64987 0.2258 0.0
O457 O 0.57404 0.57691 0.30997 0.0
O458 O 0.47751 0.63816 0.29501 0.0
O459 O 0.46026 0.65709 0.25539 0.0
C460 C 0.46451 0.57605 0.284 0.0
C461 C 0.39659 0.6091 0.16872 0.0
C462 C 0.36622 0.59928 0.12634 0.0
C463 C 0.3293 0.58541 0.1379 0.0
C464 C 0.35927 0.59535 0.17968 0.0
C465 C 0.32605 0.5834 0.16434 0.0
C466 C 0.40003 0.61095 0.14204 0.0
C467 C 0.5551 0.57871 0.23893 0.0
C468 C 0.43142 0.62221 0.18497 0.0
C469 C 0.31108 0.54998 0.26242 0.0
C470 C 0.332 0.52572 0.24999 0.0
C471 C 0.5505 0.65977 0.23804 0.0
C472 C 0.61626 0.58572 0.34748 0.0
C473 C 0.65367 0.58623 0.3887 0.0
C474 C 0.69383 0.58035 0.37622 0.0
C475 C 0.65679 0.58013 0.33539 0.0
C476 C 0.61495 0.58888 0.37411 0.0
C477 C 0.69529 0.57743 0.34975 0.0
C478 C 0.46129 0.65979 0.28037 0.0
C479 C 0.57504 0.58861 0.3328 0.0
H480 H 0.30228 0.57675 0.12655 0.0
H481 H 0.35539 0.59426 0.20008 0.0
H482 H 0.29729 0.57296 0.173 0.0
H483 H 0.42891 0.62153 0.13359 0.0
H484 H 0.72423 0.57851 0.38691 0.0
H485 H 0.65878 0.57786 0.31489 0.0
H486 H 0.58368 0.59314 0.38349 0.0
H487 H 0.72644 0.57315 0.34033 0.0
C488 C 0.11984 0.94469 0.38283 0.0
C489 C 0.1605 0.92995 0.38026 0.0
C490 C 0.1077 0.96848 0.36644 0.0
C491 C 0.1371 0.97789 0.3469 0.0
C492 C 0.17844 0.96315 0.34429 0.0
C493 C 0.18948 0.93907 0.36085 0.0
C494 C 0.0627 0.98255 0.3701 0.0
C495 C 0.21125 0.97318 0.32429 0.0
C496 C 0.08651 0.02148 0.29156 0.0
C497 C 0.09027 0.0516 0.3001 0.0
C498 C 0.10257 0.99715 0.3063 0.0
C499 C 0.12466 1.00333 0.32949 0.0
C500 C 0.13114 0.03397 0.33721 0.0
C501 C 0.11313 0.05774 0.32264 0.0
C502 C 0.09296 0.96486 0.29805 0.0
C503 C 0.15461 0.04153 0.36171 0.0
H504 H 0.09707 0.93732 0.39758 0.0
H505 H 0.22106 0.92774 0.35897 0.0
H506 H 0.05956 1.00556 0.3615 0.0
H507 H 0.03772 0.96733 0.36134 0.0
H508 H 0.05458 0.98423 0.39069 0.0
H509 H 0.24225 0.95974 0.32502 0.0
H510 H 0.19664 0.97081 0.30505 0.0
H511 H 0.21941 0.99767 0.32695 0.0
H512 H 0.06815 0.01681 0.27429 0.0
H513 H 0.11599 0.08112 0.32916 0.0
H514 H 0.06974 0.95415 0.3118 0.0
H515 H 0.12358 0.95107 0.29809 0.0
H516 H 0.07804 0.96389 0.27876 0.0
H517 H 0.13366 0.03456 0.37808 0.0
H518 H 0.16182 0.06631 0.36338 0.0
H519 H 0.18603 0.02869 0.36306 0.0
C520 C 0.32223 0.58124 0.85632 0.0
C521 C 0.35334 0.59305 0.87336 0.0
C522 C 0.33328 0.55713 0.83984 0.0
C523 C 0.37667 0.54514 0.84012 0.0
C524 C 0.40853 0.55789 0.85671 0.0
C525 C 0.39633 0.58145 0.8733 0.0
C526 C 0.2982 0.54377 0.82281 0.0
C527 C 0.45543 0.54635 0.85718 0.0
C528 C 0.40442 0.46383 0.82139 0.0
C529 C 0.42295 0.46794 0.79718 0.0
C530 C 0.3866 0.48853 0.83487 0.0
C531 C 0.38861 0.51823 0.82419 0.0
C532 C 0.40588 0.52229 0.79931 0.0
C533 C 0.4223 0.49696 0.78593 0.0
C534 C 0.36756 0.48303 0.86107 0.0
C535 C 0.40968 0.55359 0.78746 0.0
H536 H 0.28892 0.59018 0.85652 0.0
H537 H 0.42042 0.59081 0.88638 0.0
H538 H 0.3096 0.54374 0.80273 0.0
H539 H 0.29195 0.51968 0.8283 0.0
H540 H 0.26666 0.55655 0.82399 0.0
H541 H 0.47654 0.55941 0.87059 0.0
H542 H 0.45596 0.52195 0.86284 0.0
H543 H 0.47001 0.54799 0.83785 0.0
H544 H 0.40473 0.44133 0.83002 0.0
H545 H 0.43715 0.5002 0.76732 0.0
H546 H 0.33497 0.4943 0.8629 0.0
H547 H 0.38963 0.49314 0.87562 0.0
H548 H 0.36357 0.45833 0.86532 0.0
H549 H 0.37808 0.56612 0.78917 0.0
H550 H 0.41916 0.55252 0.76704 0.0
H551 H 0.43508 0.56697 0.79777 0.0
C552 C 0.64009 0.58494 0.66807 0.0
C553 C 0.65048 0.57774 0.64258 0.0
C554 C 0.62586 0.5625 0.68544 0.0
C555 C 0.61812 0.53241 0.67685 0.0
C556 C 0.62868 0.52469 0.65142 0.0
C557 C 0.64663 0.54695 0.63513 0.0
C558 C 0.6182 0.57139 0.71287 0.0
C559 C 0.62026 0.49306 0.64104 0.0
C560 C 0.59993 0.4639 0.72042 0.0
C561 C 0.55414 0.46464 0.72422 0.0
C562 C 0.62156 0.48667 0.70619 0.0
C563 C 0.59643 0.50954 0.69387 0.0
C564 C 0.55003 0.50999 0.69714 0.0
C565 C 0.52978 0.48833 0.71307 0.0
C566 C 0.67132 0.48673 0.70506 0.0
C567 C 0.52142 0.53281 0.68333 0.0
H568 H 0.64194 0.60819 0.67477 0.0
H569 H 0.65677 0.53982 0.61634 0.0
H570 H 0.58292 0.577 0.71574 0.0
H571 H 0.6268 0.55248 0.72606 0.0
H572 H 0.6379 0.59182 0.71811 0.0
H573 H 0.62069 0.49273 0.61989 0.0
H574 H 0.64613 0.47723 0.64789 0.0
H575 H 0.58797 0.48412 0.64764 0.0
H576 H 0.619 0.44544 0.72845 0.0
H577 H 0.49445 0.48944 0.7161 0.0
H578 H 0.68391 0.50677 0.71572 0.0
H579 H 0.68332 0.489 0.68522 0.0
H580 H 0.68573 0.46574 0.7135 0.0
H581 H 0.52555 0.55568 0.69195 0.0
H582 H 0.4859 0.5266 0.68428 0.0
H583 H 0.53124 0.5345 0.66299 0.0
C584 C 0.84987 0.93545 0.17243 0.0
C585 C 0.86658 0.93336 0.14748 0.0
C586 C 0.86595 0.95749 0.18962 0.0
C587 C 0.89865 0.97856 0.18153 0.0
C588 C 0.915 0.97695 0.15633 0.0
C589 C 0.8996 0.95412 0.13992 0.0
C590 C 0.84818 0.95812 0.21648 0.0
C591 C 0.94961 0.99901 0.14678 0.0
C592 C 0.91873 0.05413 0.2153 0.0
C593 C 0.95881 0.0485 0.22764 0.0
C594 C 0.89772 0.03122 0.20105 0.0
C595 C 0.91707 1.00187 0.19935 0.0
C596 C 0.95664 0.99579 0.21275 0.0
C597 C 0.97731 0.01929 0.22646 0.0
C598 C 0.85594 0.03888 0.18686 0.0
C599 C 0.97786 0.96468 0.21206 0.0
H600 H 0.82415 0.91989 0.17858 0.0
H601 H 0.9143 0.95234 0.12119 0.0
H602 H 0.87572 0.95733 0.23035 0.0
H603 H 0.83018 0.97976 0.21973 0.0
H604 H 0.82542 0.93878 0.22042 0.0
H605 H 0.95604 0.99654 0.12605 0.0
H606 H 0.93946 0.02289 0.1506 0.0
H607 H 0.98081 0.99494 0.15713 0.0
H608 H 0.90449 0.07678 0.21613 0.0
H609 H 0.00804 0.01481 0.2363 0.0
H610 H 0.82993 0.02177 0.19106 0.0
H611 H 0.86239 0.03814 0.16606 0.0
H612 H 0.84325 0.06188 0.19181 0.0
H613 H 0.95305 0.94668 0.21621 0.0
H614 H 0.00528 0.96263 0.22596 0.0
H615 H 0.99115 0.96029 0.19273 0.0
C616 C 0.86944 0.07511 0.64548 0.0
C617 C 0.82344 0.07756 0.64351 0.0
C618 C 0.88892 0.05412 0.66233 0.0
C619 C 0.86177 0.0349 0.67745 0.0
C620 C 0.81534 0.03766 0.67589 0.0
C621 C 0.79676 0.05896 0.659 0.0
C622 C 0.93858 0.05205 0.66357 0.0
C623 C 0.78522 0.01742 0.69148 0.0
C624 C 0.91147 0.95914 0.6978 0.0
C625 C 0.92338 0.96486 0.72313 0.0
C626 C 0.89073 0.98154 0.68295 0.0
C627 C 0.88192 0.01056 0.69358 0.0
C628 C 0.89309 0.01631 0.71933 0.0
C629 C 0.91352 0.99331 0.73386 0.0
C630 C 0.87893 0.97429 0.6557 0.0
C631 C 0.88448 0.04699 0.73132 0.0
H632 H 0.89025 0.0896 0.63376 0.0
H633 H 0.7612 0.06038 0.65736 0.0
H634 H 0.94989 0.05437 0.68355 0.0
H635 H 0.94945 0.02932 0.65677 0.0
H636 H 0.95503 0.06987 0.65182 0.0
H637 H 0.74995 0.02369 0.68927 0.0
H638 H 0.78944 0.99331 0.68555 0.0
H639 H 0.79402 0.01876 0.71193 0.0
H640 H 0.91875 0.93712 0.68945 0.0
H641 H 0.92299 0.99793 0.75337 0.0
H642 H 0.89748 0.98956 0.64262 0.0
H643 H 0.8433 0.97843 0.65244 0.0
H644 H 0.88646 0.95025 0.65062 0.0
H645 H 0.9037 0.06485 0.72117 0.0
H646 H 0.89358 0.04745 0.7518 0.0
H647 H 0.84911 0.05302 0.72948 0.0
C648 C 0.62184 0.43503 0.15463 0.0
C649 C 0.66754 0.43254 0.15098 0.0
C650 C 0.60409 0.45751 0.17069 0.0
C651 C 0.63272 0.47817 0.18322 0.0
C652 C 0.67891 0.47517 0.18021 0.0
C653 C 0.69575 0.45239 0.16418 0.0
C654 C 0.55465 0.45979 0.1736 0.0
C655 C 0.71052 0.49686 0.19307 0.0
C656 C 0.5862 0.55626 0.19909 0.0
C657 C 0.57756 0.5536 0.22525 0.0
C658 C 0.6046 0.53202 0.18533 0.0
C659 C 0.61429 0.50424 0.19795 0.0
C660 C 0.60612 0.50148 0.22442 0.0
C661 C 0.58808 0.52627 0.2378 0.0
C662 C 0.61323 0.53604 0.15718 0.0
C663 C 0.61562 0.47216 0.23848 0.0
H664 H 0.59992 0.4196 0.14464 0.0
H665 H 0.73105 0.45094 0.16116 0.0
H666 H 0.54545 0.46005 0.19405 0.0
H667 H 0.54293 0.48153 0.16514 0.0
H668 H 0.53713 0.44061 0.16418 0.0
H669 H 0.7455 0.49015 0.19026 0.0
H670 H 0.70592 0.52021 0.1853 0.0
H671 H 0.70362 0.4979 0.2138 0.0
H672 H 0.57835 0.57734 0.18926 0.0
H673 H 0.58111 0.52393 0.25796 0.0
H674 H 0.59338 0.51933 0.14623 0.0
H675 H 0.64845 0.53149 0.1529 0.0
H676 H 0.60499 0.55936 0.15039 0.0
H677 H 0.59555 0.45336 0.23036 0.0
H678 H 0.60827 0.47389 0.25916 0.0
H679 H 0.65078 0.46581 0.23607 0.0
C680 C 0.32017 0.45183 0.36038 0.0
C681 C 0.34739 0.43445 0.37645 0.0
C682 C 0.33822 0.47296 0.34297 0.0
C683 C 0.38452 0.47721 0.34187 0.0
C684 C 0.41219 0.45877 0.35715 0.0
C685 C 0.39336 0.43744 0.37398 0.0
C686 C 0.30764 0.49171 0.32657 0.0
C687 C 0.46171 0.46257 0.35665 0.0
C688 C 0.43968 0.52148 0.28785 0.0
C689 C 0.444 0.55062 0.29855 0.0
C690 C 0.41923 0.49755 0.30136 0.0
C691 C 0.40397 0.50263 0.3265 0.0
C692 C 0.4089 0.53191 0.33752 0.0
C693 C 0.42853 0.55555 0.32338 0.0
C694 C 0.4138 0.46692 0.28867 0.0
C695 C 0.39387 0.53823 0.36443 0.0
H696 H 0.28466 0.44994 0.36213 0.0
H697 H 0.4148 0.42362 0.38577 0.0
H698 H 0.3083 0.51583 0.33293 0.0
H699 H 0.31879 0.49138 0.30644 0.0
H700 H 0.27307 0.48334 0.3275 0.0
H701 H 0.47875 0.44532 0.36862 0.0
H702 H 0.47427 0.46075 0.33687 0.0
H703 H 0.4706 0.48563 0.36369 0.0
H704 H 0.45249 0.51731 0.26894 0.0
H705 H 0.43179 0.57797 0.33185 0.0
H706 H 0.37818 0.46156 0.28675 0.0
H707 H 0.42867 0.44869 0.30054 0.0
H708 H 0.42915 0.46631 0.26945 0.0
H709 H 0.35807 0.53346 0.36631 0.0
H710 H 0.40009 0.56223 0.37021 0.0
H711 H 0.41132 0.52287 0.37787 0.0
C712 C 0.16573 0.07469 0.85506 0.0
C713 C 0.16405 0.06961 0.8815 0.0
C714 C 0.1466 0.05388 0.8379 0.0
C715 C 0.12389 0.02796 0.84738 0.0
C716 C 0.12201 0.02268 0.87392 0.0
C717 C 0.14302 0.04301 0.8905 0.0
C718 C 0.15069 0.05959 0.80963 0.0
C719 C 0.09738 0.99564 0.88491 0.0
C720 C 0.03502 0.98999 0.80754 0.0
C721 C 0.05537 0.96248 0.80077 0.0
C722 C 0.05712 0.01171 0.82243 0.0
C723 C 0.10133 1.00637 0.82981 0.0
C724 C 0.12261 0.97915 0.8222 0.0
C725 C 0.09899 0.9572 0.80835 0.0
C726 C 0.03265 0.03988 0.83094 0.0
C727 C 0.17017 0.97303 0.82894 0.0
H728 H 0.18161 0.09505 0.8477 0.0
H729 H 0.14294 0.03778 0.91065 0.0
H730 H 0.16511 0.0393 0.80016 0.0
H731 H 0.11759 0.06325 0.80124 0.0
H732 H 0.17161 0.07978 0.80525 0.0
H733 H 0.09665 0.99587 0.90606 0.0
H734 H 0.06292 0.99543 0.87785 0.0
H735 H 0.11304 0.97409 0.87861 0.0
H736 H 1.00142 0.99438 0.80155 0.0
H737 H 0.11457 0.9357 0.80374 0.0
H738 H 0.04972 0.06065 0.82388 0.0
H739 H 0.03234 0.04106 0.85205 0.0
H740 H 0.99802 0.04024 0.82406 0.0
H741 H 0.19126 0.99197 0.82184 0.0
H742 H 0.18235 0.95128 0.82073 0.0
H743 H 0.17414 0.97206 0.8499 0.0
C744 C 0.14916 0.13201 0.98195 0.0
C745 C 0.17302 0.10875 0.97007 0.0
C746 C 0.13365 0.12835 1.00705 0.0
C747 C 0.14289 0.10098 0.02048 0.0
C748 C 0.16765 0.07769 1.0085 0.0
C749 C 0.18212 0.08179 0.98336 0.0
C750 C 0.1069 0.1535 0.01907 0.0
C751 C 0.17873 0.04834 0.0222 0.0
C752 C 0.13881 0.09864 0.09281 0.0
C753 C 0.09927 0.08282 0.09725 0.0
C754 C 0.15294 0.10533 0.06793 0.0
C755 C 0.12659 0.09635 0.047 0.0
C756 C 0.08598 0.08116 0.05143 0.0
C757 C 0.07299 0.07435 0.0765 0.0
C758 C 0.19677 0.1211 0.06403 0.0
C759 C 0.05665 0.07159 0.02965 0.0
H760 H 0.14205 0.15275 0.97145 0.0
H761 H 0.20062 0.06388 0.97397 0.0
H762 H 0.07379 0.14471 0.02441 0.0
H763 H 0.12304 0.16138 0.03682 0.0
H764 H 0.10273 0.17338 1.00613 0.0
H765 H 0.19941 0.03293 1.01042 0.0
H766 H 0.19658 0.05342 0.04012 0.0
H767 H 0.14796 0.0361 0.02745 0.0
H768 H 0.15938 0.10498 0.10882 0.0
H769 H 0.04217 0.06242 0.07991 0.0
H770 H 0.19255 0.14177 0.05206 0.0
H771 H 0.21963 0.10565 0.05376 0.0
H772 H 0.21231 0.12787 0.0823 0.0
H773 H 0.0499 0.09138 0.01704 0.0
H774 H 0.02472 0.06198 0.03635 0.0
H775 H 0.07364 0.05411 0.01798 0.0
C776 C 0.35856 0.42914 0.4786 0.0
C777 C 0.34959 0.40058 0.46781 0.0
C778 C 0.37358 0.43164 0.50379 0.0
C779 C 0.38034 0.40488 0.51846 0.0
C780 C 0.37224 0.37593 0.50747 0.0
C781 C 0.35662 0.37414 0.48233 0.0
C782 C 0.38139 0.46295 0.51486 0.0
C783 C 0.37978 0.34687 0.52232 0.0
C784 C 0.45534 0.41367 0.57589 0.0
C785 C 0.42482 0.41658 0.59585 0.0
C786 C 0.44137 0.40892 0.55075 0.0
C787 C 0.3957 0.40735 0.54534 0.0
C788 C 0.36473 0.40949 0.56551 0.0
C789 C 0.37969 0.41389 0.59057 0.0
C790 C 0.47548 0.40629 0.52989 0.0
C791 C 0.31576 0.40818 0.56051 0.0
H792 H 0.35255 0.44964 0.46755 0.0
H793 H 0.34987 0.35202 0.47398 0.0
H794 H 0.35995 0.46629 0.53176 0.0
H795 H 0.41605 0.46507 0.52135 0.0
H796 H 0.37461 0.48147 0.50093 0.0
H797 H 0.37328 0.32616 0.51075 0.0
H798 H 0.4143 0.34605 0.52926 0.0
H799 H 0.35799 0.34634 0.5393 0.0
H800 H 0.49031 0.41536 0.57996 0.0
H801 H 0.35601 0.41636 0.60591 0.0
H802 H 0.47231 0.4258 0.51652 0.0
H803 H 0.46995 0.38513 0.51876 0.0
H804 H 0.50967 0.40602 0.53746 0.0
H805 H 0.30601 0.4277 0.54826 0.0
H806 H 0.29606 0.40896 0.57835 0.0
H807 H 0.30729 0.38699 0.55008 0.0
C808 C 0.62662 0.39272 0.05565 0.0
C809 C 0.67184 0.3935 0.06136 0.0
C810 C 0.61168 0.39565 0.03039 0.0
C811 C 0.64267 0.39958 1.01043 0.0
C812 C 0.68831 0.39992 0.01607 0.0
C813 C 0.70226 0.39698 0.04138 0.0
C814 C 0.56278 0.39509 0.02512 0.0
C815 C 0.72253 0.40423 0.99541 0.0
C816 C 0.61853 0.38676 0.94023 0.0
C817 C 0.61614 0.41687 0.93124 0.0
C818 C 0.62444 0.38059 0.96631 0.0
C819 C 0.62797 0.40512 0.98373 0.0
C820 C 0.6226 0.43544 0.97491 0.0
C821 C 0.61675 0.44092 0.94881 0.0
C822 C 0.62974 0.34794 0.97495 0.0
C823 C 0.62578 0.46228 0.99281 0.0
H824 H 0.60292 0.38984 0.07095 0.0
H825 H 0.73719 0.39828 0.0456 0.0
H826 H 0.55227 0.41751 0.01739 0.0
H827 H 0.55511 0.37768 1.01048 0.0
H828 H 0.54309 0.39007 0.0425 0.0
H829 H 0.75674 0.40259 1.00282 0.0
H830 H 0.71811 0.38679 0.98035 0.0
H831 H 0.71833 0.42694 0.98635 0.0
H832 H 0.61821 0.36807 0.92674 0.0
H833 H 0.61412 0.46422 0.942 0.0
H834 H 0.60959 0.34345 0.99221 0.0
H835 H 0.66472 0.34378 0.98005 0.0
H836 H 0.62012 0.33145 0.9599 0.0
H837 H 0.60443 0.45863 1.00971 0.0
H838 H 0.61617 0.48404 0.98348 0.0
H839 H 0.6602 0.46454 0.99971 0.0
C840 C 0.85509 0.1136 0.54589 0.0
C841 C 0.81076 0.11684 0.5533 0.0
C842 C 0.86715 0.11243 0.51996 0.0
C843 C 0.83427 0.11517 0.50095 0.0
C844 C 0.78964 0.11859 0.50829 0.0
C845 C 0.77843 0.11883 0.5342 0.0
C846 C 0.91498 0.10804 0.51291 0.0
C847 C 0.75347 0.1219 0.48872 0.0
C848 C 0.86031 0.14005 0.433 0.0
C849 C 0.85439 0.11269 0.41969 0.0
C850 C 0.85562 0.14105 0.45965 0.0
C851 C 0.84579 0.11389 0.4733 0.0
C852 C 0.84233 0.08592 0.45996 0.0
C853 C 0.84606 0.08574 0.43329 0.0
C854 C 0.85869 0.17143 0.47301 0.0
C855 C 0.83296 0.05633 0.47374 0.0
H856 H 0.88048 0.11221 0.56032 0.0
H857 H 0.74393 0.12027 0.53942 0.0
H858 H 0.91861 0.08735 0.50097 0.0
H859 H 0.92679 0.12771 0.50142 0.0
H860 H 0.93646 0.10567 0.52991 0.0
H861 H 0.72074 0.12611 0.49755 0.0
H862 H 0.76116 0.14108 0.4756 0.0
H863 H 0.75127 0.10088 0.47706 0.0
H864 H 0.86657 0.1609 0.42243 0.0
H865 H 0.84186 0.06454 0.42296 0.0
H866 H 0.88153 0.16996 0.48943 0.0
H867 H 0.82576 0.1777 0.48061 0.0
H868 H 0.87016 0.18993 0.46009 0.0
H869 H 0.85541 0.05369 0.49026 0.0
H870 H 0.83673 0.0362 0.46111 0.0
H871 H 0.79873 0.05653 0.48124 0.0
C872 C 0.87151 0.87552 0.04244 0.0
C873 C 0.84945 0.89737 0.05729 0.0
C874 C 0.88198 0.88116 0.01678 0.0
C875 C 0.87063 0.90949 1.00559 0.0
C876 C 0.84751 0.93139 0.02023 0.0
C877 C 0.83708 0.92504 0.04582 0.0
C878 C 0.90646 0.85711 1.00186 0.0
C879 C 0.83485 0.9619 1.00905 0.0
C880 C 0.9399 0.93713 0.94949 0.0
C881 C 0.91252 0.93071 0.92863 0.0
C882 C 0.92657 0.93047 0.97454 0.0
C883 C 0.88491 0.91676 0.97899 0.0
C884 C 0.85727 0.90986 0.95805 0.0
C885 C 0.87132 0.91699 0.93317 0.0
C886 C 0.95712 0.93819 0.99628 0.0
C887 C 0.81273 0.8951 0.96195 0.0
H888 H 0.88201 0.85429 0.05112 0.0
H889 H 0.81956 0.94193 0.05695 0.0
H890 H 0.88893 0.85213 0.98382 0.0
H891 H 0.93978 0.86567 0.99675 0.0
H892 H 0.91015 0.83549 0.01274 0.0
H893 H 0.8153 0.97593 0.02255 0.0
H894 H 0.86503 0.97479 1.0037 0.0
H895 H 0.81532 0.9586 0.99143 0.0
H896 H 0.97209 0.94723 0.94625 0.0
H897 H 0.84961 0.91228 0.91729 0.0
H898 H 0.96558 0.91717 1.00702 0.0
H899 H 0.94039 0.95385 1.00975 0.0
H900 H 0.98819 0.94914 0.98967 0.0
H901 H 0.81657 0.87311 0.97222 0.0
H902 H 0.79544 0.89075 0.94368 0.0
H903 H 0.79166 0.90994 0.97395 0.0
C904 C 0.62818 0.59743 0.5413 0.0
C905 C 0.66332 0.61461 0.55119 0.0
C906 C 0.62455 0.59193 0.51501 0.0
C907 C 0.65654 0.60418 0.49813 0.0
C908 C 0.69188 0.62169 0.50796 0.0
C909 C 0.69498 0.62651 0.53431 0.0
C910 C 0.58651 0.57302 0.50528 0.0
C911 C 0.72659 0.63529 0.49063 0.0
C912 C 0.67498 0.56946 0.43268 0.0
C913 C 0.65244 0.58996 0.41684 0.0
C914 C 0.67558 0.57336 0.45922 0.0
C915 C 0.65348 0.59856 0.47019 0.0
C916 C 0.6301 0.61909 0.45433 0.0
C917 C 0.62969 0.61446 0.42786 0.0
C918 C 0.70042 0.55074 0.47548 0.0
C919 C 0.60651 0.64641 0.46525 0.0
H920 H 0.60313 0.58854 0.55407 0.0
H921 H 0.72261 0.63942 0.54174 0.0
H922 H 0.56646 0.58666 0.49179 0.0
H923 H 0.59918 0.55299 0.49467 0.0
H924 H 0.56475 0.56476 0.52089 0.0
H925 H 0.75135 0.64898 0.50122 0.0
H926 H 0.744 0.61686 0.48026 0.0
H927 H 0.71081 0.65015 0.47616 0.0
H928 H 0.69215 0.55027 0.42428 0.0
H929 H 0.61256 0.63053 0.41568 0.0
H930 H 0.67838 0.54128 0.49044 0.0
H931 H 0.72807 0.56242 0.48528 0.0
H932 H 0.71401 0.53156 0.46414 0.0
H933 H 0.58277 0.63904 0.48014 0.0
H934 H 0.5884 0.65952 0.45047 0.0
H935 H 0.63072 0.66184 0.47447 0.0
C936 C 0.38251 0.6127 0.97295 0.0
C937 C 0.34355 0.62637 0.96423 0.0
C938 C 0.38956 0.60763 0.99907 0.0
C939 C 0.35661 0.61608 0.01685 0.0
C940 C 0.31701 0.62958 1.00808 0.0
C941 C 0.31109 0.63474 0.98191 0.0
C942 C 0.43244 0.59355 1.00768 0.0
C943 C 0.28078 0.63853 0.02635 0.0
C944 C 0.35215 0.57904 0.08233 0.0
C945 C 0.36807 0.60249 0.09805 0.0
C946 C 0.34924 0.58288 0.05583 0.0
C947 C 0.36316 0.61069 0.04463 0.0
C948 C 0.38112 0.63394 0.06021 0.0
C949 C 0.38315 0.62963 0.08672 0.0
C950 C 0.32984 0.55753 0.03993 0.0
C951 C 0.39681 0.66379 0.04897 0.0
H952 H 0.40791 0.60655 0.95936 0.0
H953 H 0.28081 0.6451 0.97521 0.0
H954 H 0.44972 0.60931 0.02083 0.0
H955 H 0.42585 0.57215 0.01835 0.0
H956 H 0.45474 0.58833 0.99146 0.0
H957 H 0.25179 0.64844 0.01644 0.0
H958 H 0.26976 0.61827 0.03739 0.0
H959 H 0.29342 0.6555 0.04019 0.0
H960 H 0.34129 0.55773 0.09079 0.0
H961 H 0.3951 0.64802 0.09864 0.0
H962 H 0.35292 0.55123 0.02441 0.0
H963 H 0.29889 0.5655 0.03086 0.0
H964 H 0.32238 0.53681 0.05139 0.0
H965 H 0.42016 0.65954 0.03308 0.0
H966 H 0.41333 0.67847 0.0633 0.0
H967 H 0.36834 0.67646 0.04099 0.0
C968 C 0.13076 0.90463 0.47872 0.0
C969 C 0.16859 0.88997 0.46944 0.0
C970 C 0.12391 0.90836 0.50499 0.0
C971 C 0.15591 0.89747 0.52237 0.0
C972 C 0.1943 0.88284 0.51307 0.0
C973 C 0.20004 0.87911 0.48674 0.0
C974 C 0.08231 0.92374 0.51416 0.0
C975 C 0.22946 0.87125 0.53096 0.0
C976 C 0.16319 0.9307 0.58897 0.0
C977 C 0.14471 0.90728 0.60387 0.0
C978 C 0.16609 0.92813 0.56239 0.0
C979 C 0.14969 0.90161 0.5503 0.0
C980 C 0.12933 0.87844 0.56508 0.0
C981 C 0.12724 0.88149 0.59169 0.0
C982 C 0.18798 0.95337 0.54733 0.0
C983 C 0.11105 0.84995 0.55286 0.0
H984 H 0.10608 0.91269 0.4654 0.0
H985 H 0.22946 0.86798 0.47961 0.0
H986 H 0.06367 0.90808 0.52688 0.0
H987 H 0.09075 0.94428 0.52546 0.0
H988 H 0.06053 0.9307 0.49819 0.0
H989 H 0.25745 0.86051 0.52067 0.0
H990 H 0.24241 0.89036 0.5426 0.0
H991 H 0.21512 0.85422 0.54428 0.0
H992 H 0.17599 0.95099 0.59815 0.0
H993 H 0.11328 0.86314 0.603 0.0
H994 H 0.16566 0.96155 0.53207 0.0
H995 H 0.21816 0.94452 0.53794 0.0
H996 H 0.19732 0.97308 0.55946 0.0
H997 H 0.08819 0.85607 0.5372 0.0
H998 H 0.09319 0.83523 0.56672 0.0
H999 H 0.13836 0.83655 0.54438 0.0
C1000 C 0.18818 0.28723 0.36671 0.0
C1001 C 0.15784 0.30871 0.37604 0.0
C1002 C 0.17429 0.26279 0.35125 0.0
C1003 C 0.12889 0.25918 0.34564 0.0
C1004 C 0.0984 0.28121 0.35435 0.0
C1005 C 0.11335 0.30596 0.36882 0.0
C1006 C 0.20803 0.2405 0.34132 0.0
C1007 C 0.04966 0.27829 0.34886 0.0
C1008 C 0.08559 0.21028 0.2915 0.0
C1009 C 0.07447 0.183 0.30399 0.0
C1010 C 0.10533 0.23465 0.30451 0.0
C1011 C 0.11263 0.23226 0.33103 0.0
C1012 C 0.10088 0.20496 0.34393 0.0
C1013 C 0.0824 0.18055 0.33022 0.0
C1014 C 0.11843 0.26292 0.28978 0.0
C1015 C 0.10659 0.20187 0.37237 0.0
H1016 H 0.22257 0.2889 0.37207 0.0
H1017 H 0.08972 0.32294 0.37494 0.0
H1018 H 0.20259 0.21777 0.35012 0.0
H1019 H 0.20431 0.23773 0.32043 0.0
H1020 H 0.24233 0.24792 0.34544 0.0
H1021 H 0.03006 0.29684 0.35773 0.0
H1022 H 0.0439 0.27876 0.32801 0.0
H1023 H 0.03718 0.25606 0.35608 0.0
H1024 H 0.07822 0.21286 0.27153 0.0
H1025 H 0.0737 0.15967 0.34015 0.0
H1026 H 0.15495 0.26435 0.2889 0.0
H1027 H 0.10651 0.28385 0.29939 0.0
H1028 H 0.10544 0.26276 0.27003 0.0
H1029 H 0.14151 0.20591 0.37764 0.0
H1030 H 0.09654 0.179 0.37949 0.0
H1031 H 0.0865 0.21942 0.38221 0.0
C1032 C 0.36323 0.23195 0.88703 0.0
C1033 C 0.34449 0.20654 0.87501 0.0
C1034 C 0.37707 0.2575 0.87297 0.0
C1035 C 0.3727 0.25748 0.84613 0.0
C1036 C 0.35195 0.23241 0.83398 0.0
C1037 C 0.33779 0.20723 0.84863 0.0
C1038 C 0.39828 0.28391 0.88677 0.0
C1039 C 0.34683 0.23151 0.80541 0.0
C1040 C 0.39051 0.33363 0.81249 0.0
C1041 C 0.43533 0.33197 0.80594 0.0
C1042 C 0.36919 0.30923 0.82487 0.0
C1043 C 0.39331 0.28254 0.8309 0.0
C1044 C 0.43838 0.28056 0.82388 0.0
C1045 C 0.45887 0.30534 0.81162 0.0
C1046 C 0.32116 0.3123 0.83198 0.0
C1047 C 0.46521 0.25241 0.82967 0.0
H1048 H 0.36819 0.23143 0.90747 0.0
H1049 H 0.32354 0.18747 0.83934 0.0
H1050 H 0.43373 0.28528 0.88161 0.0
H1051 H 0.38277 0.30573 0.88093 0.0
H1052 H 0.39557 0.2816 0.90779 0.0
H1053 H 0.32704 0.21158 0.79906 0.0
H1054 H 0.33083 0.25269 0.79849 0.0
H1055 H 0.37985 0.23033 0.79632 0.0
H1056 H 0.37216 0.3542 0.8082 0.0
H1057 H 0.49335 0.30375 0.80628 0.0
H1058 H 0.3175 0.31136 0.85299 0.0
H1059 H 0.30195 0.293 0.82402 0.0
H1060 H 0.30665 0.334 0.82496 0.0
H1061 H 0.46776 0.24927 0.85058 0.0
H1062 H 0.49906 0.25375 0.8216 0.0
H1063 H 0.4486 0.23187 0.82189 0.0
C1064 C 0.67521 0.22859 0.66858 0.0
C1065 C 0.64546 0.20453 0.66447 0.0
C1066 C 0.6642 0.25302 0.68473 0.0
C1067 C 0.62235 0.25349 0.69678 0.0
C1068 C 0.59357 0.22824 0.69407 0.0
C1069 C 0.60566 0.204 0.67816 0.0
C1070 C 0.6962 0.2792 0.68759 0.0
C1071 C 0.54861 0.22776 0.70652 0.0
C1072 C 0.58917 0.31012 0.74825 0.0
C1073 C 0.56552 0.33178 0.73405 0.0
C1074 C 0.60989 0.28526 0.73629 0.0
C1075 C 0.60613 0.28166 0.70959 0.0
C1076 C 0.58338 0.30391 0.69513 0.0
C1077 C 0.56372 0.32874 0.70748 0.0
C1078 C 0.63448 0.26232 0.75233 0.0
C1079 C 0.57815 0.30085 0.66664 0.0
H1080 H 0.70602 0.22923 0.65808 0.0
H1081 H 0.58295 0.18513 0.67556 0.0
H1082 H 0.68417 0.29913 0.67656 0.0
H1083 H 0.69856 0.28629 0.70781 0.0
H1084 H 0.72968 0.27324 0.68059 0.0
H1085 H 0.53169 0.20543 0.70422 0.0
H1086 H 0.55138 0.23281 0.72713 0.0
H1087 H 0.52761 0.24576 0.69793 0.0
H1088 H 0.5907 0.31212 0.76878 0.0
H1089 H 0.54578 0.34534 0.69624 0.0
H1090 H 0.66702 0.25714 0.74368 0.0
H1091 H 0.61554 0.24066 0.75317 0.0
H1092 H 0.63967 0.27054 0.77209 0.0
H1093 H 0.61088 0.29836 0.65743 0.0
H1094 H 0.56111 0.32077 0.65804 0.0
H1095 H 0.55882 0.27998 0.66227 0.0
C1096 C 0.89089 0.31197 0.18046 0.0
C1097 C 0.8518 0.30925 0.1664 0.0
C1098 C 0.90566 0.28816 0.19614 0.0
C1099 C 0.88065 0.26092 0.19788 0.0
C1100 C 0.8395 0.2589 0.18523 0.0
C1101 C 0.82553 0.28313 0.1696 0.0
C1102 C 0.94958 0.29138 0.2094 0.0
C1103 C 0.81168 0.23036 0.18679 0.0
C1104 C 0.94875 0.18931 0.20744 0.0
C1105 C 0.9445 0.18404 0.2337 0.0
C1106 C 0.92722 0.21376 0.19556 0.0
C1107 C 0.90038 0.23348 0.2102 0.0
C1108 C 0.8948 0.22786 0.23657 0.0
C1109 C 0.91705 0.20327 0.24805 0.0
C1110 C 0.93421 0.21894 0.16738 0.0
C1111 C 0.86619 0.24824 0.25276 0.0
H1112 H 0.91093 0.33235 0.17838 0.0
H1113 H 0.79536 0.28085 0.15872 0.0
H1114 H 0.94665 0.2847 0.22971 0.0
H1115 H 0.97392 0.27585 0.20044 0.0
H1116 H 0.96263 0.31506 0.20833 0.0
H1117 H 0.77794 0.23405 0.17919 0.0
H1118 H 0.82758 0.21196 0.17559 0.0
H1119 H 0.8091 0.22225 0.20676 0.0
H1120 H 0.96957 0.17459 0.19605 0.0
H1121 H 0.91329 0.19937 0.26832 0.0
H1122 H 0.95066 0.24128 0.16425 0.0
H1123 H 0.902 0.2197 0.15743 0.0
H1124 H 0.95476 0.20086 0.15854 0.0
H1125 H 0.88103 0.27136 0.25376 0.0
H1126 H 0.86222 0.23932 0.27245 0.0
H1127 H 0.83307 0.25072 0.24406 0.0
C1128 C 0.80559 0.75756 0.64095 0.0
C1129 C 0.77755 0.73766 0.6542 0.0
C1130 C 0.83889 0.77372 0.65361 0.0
C1131 C 0.84378 0.77018 0.68026 0.0
C1132 C 0.81741 0.74851 0.69344 0.0
C1133 C 0.78452 0.73239 0.68018 0.0
C1134 C 0.86637 0.79642 0.63879 0.0
C1135 C 0.82146 0.74416 0.72185 0.0
C1136 C 0.94228 0.80872 0.712 0.0
C1137 C 0.92354 0.83634 0.71995 0.0
C1138 C 0.91667 0.7866 0.69938 0.0
C1139 C 0.87145 0.79236 0.69463 0.0
C1140 C 0.85255 0.82024 0.70266 0.0
C1141 C 0.87885 0.84189 0.715 0.0
C1142 C 0.93791 0.75713 0.69111 0.0
C1143 C 0.80446 0.82737 0.6981 0.0
H1144 H 0.79992 0.76164 0.62084 0.0
H1145 H 0.76243 0.71719 0.69041 0.0
H1146 H 0.85597 0.81993 0.64377 0.0
H1147 H 0.90174 0.79423 0.64382 0.0
H1148 H 0.86277 0.79344 0.6179 0.0
H1149 H 0.80427 0.72317 0.72847 0.0
H1150 H 0.85659 0.74295 0.72761 0.0
H1151 H 0.80666 0.76403 0.7317 0.0
H1152 H 0.97675 0.80423 0.71592 0.0
H1153 H 0.86427 0.86337 0.72072 0.0
H1154 H 0.93549 0.75475 0.67013 0.0
H1155 H 0.92016 0.73746 0.69969 0.0
H1156 H 0.97321 0.75588 0.69664 0.0
H1157 H 0.79728 0.8269 0.6774 0.0
H1158 H 0.7949 0.85008 0.70566 0.0
H1159 H 0.78344 0.80977 0.70732 0.0
C1160 C 0.75811 0.74605 0.18446 0.0
C1161 C 0.75058 0.77063 0.16778 0.0
C1162 C 0.72315 0.73077 0.19659 0.0
C1163 C 0.67934 0.74082 0.1927 0.0
C1164 C 0.67164 0.767 0.17743 0.0
C1165 C 0.70727 0.78142 0.16495 0.0
C1166 C 0.73303 0.703 0.2127 0.0
C1167 C 0.62558 0.77909 0.17354 0.0
C1168 C 0.59104 0.67943 0.19995 0.0
C1169 C 0.5788 0.68285 0.22548 0.0
C1170 C 0.62279 0.69877 0.18881 0.0
C1171 C 0.64184 0.72261 0.20339 0.0
C1172 C 0.62764 0.72712 0.22882 0.0
C1173 C 0.59676 0.70692 0.23965 0.0
C1174 C 0.63775 0.69258 0.16189 0.0
C1175 C 0.64602 0.75265 0.24488 0.0
H1176 H 0.7915 0.73805 0.18747 0.0
H1177 H 0.70088 0.80033 0.15215 0.0
H1178 H 0.7206 0.70641 0.23234 0.0
H1179 H 0.71579 0.68276 0.20483 0.0
H1180 H 0.76889 0.69797 0.21366 0.0
H1181 H 0.62562 0.80169 0.1639 0.0
H1182 H 0.6064 0.76285 0.16174 0.0
H1183 H 0.60828 0.7812 0.19209 0.0
H1184 H 0.57749 0.66062 0.18908 0.0
H1185 H 0.58686 0.7098 0.25933 0.0
H1186 H 0.67306 0.68595 0.16194 0.0
H1187 H 0.63479 0.71351 0.15011 0.0
H1188 H 0.6184 0.67404 0.15276 0.0
H1189 H 0.68062 0.74748 0.25012 0.0
H1190 H 0.62681 0.75591 0.2627 0.0
H1191 H 0.64623 0.7744 0.234 0.0
C1192 C 0.25801 0.75241 0.33188 0.0
C1193 C 0.2675 0.77241 0.35195 0.0
C1194 C 0.29182 0.73828 0.31805 0.0
C1195 C 0.33635 0.74436 0.32436 0.0
C1196 C 0.34617 0.76647 0.34317 0.0
C1197 C 0.31156 0.78025 0.35681 0.0
C1198 C 0.27954 0.71481 0.29829 0.0
C1199 C 0.39321 0.77392 0.3502 0.0
C1200 C 0.41252 0.67668 0.3159 0.0
C1201 C 0.43258 0.68302 0.29239 0.0
C1202 C 0.38228 0.69696 0.32678 0.0
C1203 C 0.37181 0.72443 0.31394 0.0
C1204 C 0.39292 0.73147 0.29055 0.0
C1205 C 0.42296 0.71057 0.27997 0.0
C1206 C 0.36026 0.68833 0.35162 0.0
C1207 C 0.38263 0.76054 0.27634 0.0
H1208 H 0.22396 0.74669 0.32775 0.0
H1209 H 0.31913 0.79568 0.3723 0.0
H1210 H 0.30189 0.71591 0.28158 0.0
H1211 H 0.28252 0.69174 0.30685 0.0
H1212 H 0.24504 0.71772 0.29164 0.0
H1213 H 0.39545 0.79477 0.36212 0.0
H1214 H 0.40754 0.75456 0.36102 0.0
H1215 H 0.41361 0.77723 0.33285 0.0
H1216 H 0.4193 0.65527 0.32549 0.0
H1217 H 0.43841 0.71555 0.26179 0.0
H1218 H 0.32431 0.68533 0.34856 0.0
H1219 H 0.36456 0.70683 0.36578 0.0
H1220 H 0.37365 0.66686 0.35977 0.0
H1221 H 0.34805 0.75985 0.2695 0.0
H1222 H 0.40476 0.76402 0.2597 0.0
H1223 H 0.38566 0.78048 0.28921 0.0
C1224 C 0.19224 0.74041 0.85926 0.0
C1225 C 0.23527 0.75144 0.85552 0.0
C1226 C 0.1562 0.75367 0.84651 0.0
C1227 C 0.16337 0.77869 0.82984 0.0
C1228 C 0.20695 0.78884 0.82505 0.0
C1229 C 0.24227 0.77494 0.83774 0.0
C1230 C 0.1103 0.74182 0.85175 0.0
C1231 C 0.21617 0.81549 0.80753 0.0
C1232 C 0.07869 0.80786 0.78234 0.0
C1233 C 0.06186 0.83344 0.79506 0.0
C1234 C 0.11006 0.7888 0.79394 0.0
C1235 C 0.12552 0.7958 0.81867 0.0
C1236 C 0.10749 0.82102 0.83191 0.0
C1237 C 0.07562 0.83937 0.82003 0.0
C1238 C 0.12789 0.76188 0.77933 0.0
C1239 C 0.12344 0.82957 0.85817 0.0
H1240 H 0.18646 0.72235 0.87301 0.0
H1241 H 0.2755 0.78318 0.8343 0.0
H1242 H 0.09156 0.75899 0.86283 0.0
H1243 H 0.09231 0.73812 0.83363 0.0
H1244 H 0.11069 0.72009 0.86268 0.0
H1245 H 0.25205 0.81934 0.80457 0.0
H1246 H 0.20049 0.81177 0.78873 0.0
H1247 H 0.20168 0.83653 0.81572 0.0
H1248 H 0.06789 0.80301 0.7631 0.0
H1249 H 0.06295 0.85921 0.82992 0.0
H1250 H 0.12741 0.74106 0.79139 0.0
H1251 H 0.16272 0.7663 0.77394 0.0
H1252 H 0.10876 0.75737 0.76171 0.0
H1253 H 0.12133 0.80963 0.87115 0.0
H1254 H 0.10416 0.84863 0.86652 0.0
H1255 H 0.15861 0.83655 0.85717 0.0
loop_
_geom_bond_atom_site_label_1
_geom_bond_atom_site_label_2
_geom_bond_distance
_geom_bond_site_symmetry_2
_ccdc_geom_bond_type
H0 C1 0.949 . S
C1 H0 0.949 . S
C1 C2 1.395 . S
C1 C3 1.391 . S
C2 C1 1.395 . S
C2 C5 1.390 . S
C3 C1 1.391 . S
C3 C7 1.387 . S
C3 C8 1.491 . S
H4 C5 0.950 . S
C5 C2 1.390 . S
C5 H4 0.950 . S
C5 C6 1.378 . S
C6 C5 1.378 . S
C6 C7 1.409 . S
C7 C3 1.387 . S
C7 C6 1.409 . S
C7 H9 0.951 . S
C8 C3 1.491 . S
C8 C10 1.382 . S
C8 C12 1.404 . S
H9 C7 0.951 . S
C10 C8 1.382 . S
C10 C11 1.390 . S
C10 H15 0.949 . S
C11 C10 1.390 . S
C11 C16 1.399 . S
C12 C8 1.404 . S
C12 H13 0.950 . S
C12 C14 1.375 . S
H13 C12 0.950 . S
C14 C12 1.375 . S
C14 C16 1.382 . S
C14 H18 0.950 . S
H15 C10 0.949 . S
C16 C11 1.399 . S
C16 C14 1.382 . S
C16 H17 0.952 . S
H17 C16 0.952 . S
H18 C14 0.950 . S
H19 C20 0.949 . S
C20 H19 0.949 . S
C20 C21 1.395 . S
C20 C22 1.391 . S
C21 C20 1.395 . S
C21 C24 1.390 . S
C22 C20 1.391 . S
C22 C26 1.387 . S
C22 C27 1.491 . S
H23 C24 0.950 . S
C24 C21 1.390 . S
C24 H23 0.950 . S
C24 C25 1.378 . S
C25 C24 1.378 . S
C25 C26 1.409 . S
C26 C22 1.387 . S
C26 C25 1.409 . S
C26 H28 0.951 . S
C27 C22 1.491 . S
C27 C29 1.382 . S
C27 C31 1.404 . S
H28 C26 0.951 . S
C29 C27 1.382 . S
C29 C30 1.390 . S
C29 H34 0.949 . S
C30 C29 1.390 . S
C30 C35 1.399 . S
C31 C27 1.404 . S
C31 H32 0.950 . S
C31 C33 1.375 . S
H32 C31 0.950 . S
C33 C31 1.375 . S
C33 C35 1.382 . S
C33 H37 0.950 . S
H34 C29 0.949 . S
C35 C30 1.399 . S
C35 C33 1.382 . S
C35 H36 0.952 . S
H36 C35 0.952 . S
H37 C33 0.950 . S
H38 C39 0.949 . S
C39 H38 0.949 . S
C39 C40 1.395 . S
C39 C41 1.391 . S
C40 C39 1.395 . S
C40 C43 1.390 . S
C41 C39 1.391 . S
C41 C45 1.387 . S
C41 C46 1.491 . S
H42 C43 0.950 . S
C43 C40 1.390 . S
C43 H42 0.950 . S
C43 C44 1.378 . S
C44 C43 1.378 . S
C44 C45 1.409 . S
C45 C41 1.387 . S
C45 C44 1.409 . S
C45 H47 0.951 . S
C46 C41 1.491 . S
C46 C48 1.382 . S
C46 C50 1.404 . S
H47 C45 0.951 . S
C48 C46 1.382 . S
C48 C49 1.390 . S
C48 H53 0.949 . S
C49 C48 1.390 . S
C49 C54 1.399 . S
C50 C46 1.404 . S
C50 H51 0.950 . S
C50 C52 1.375 . S
H51 C50 0.950 . S
C52 C50 1.375 . S
C52 C54 1.382 . S
C52 H56 0.950 . S
H53 C48 0.949 . S
C54 C49 1.399 . S
C54 C52 1.382 . S
C54 H55 0.952 . S
H55 C54 0.952 . S
H56 C52 0.950 . S
H57 C58 0.949 . S
C58 H57 0.949 . S
C58 C59 1.395 . S
C58 C60 1.391 . S
C59 C58 1.395 . S
C59 C62 1.390 . S
C60 C58 1.391 . S
C60 C64 1.387 . S
C60 C65 1.491 . S
H61 C62 0.950 . S
C62 C59 1.390 . S
C62 H61 0.950 . S
C62 C63 1.378 . S
C63 C62 1.378 . S
C63 C64 1.409 . S
C64 C60 1.387 . S
C64 C63 1.409 . S
C64 H66 0.951 . S
C65 C60 1.491 . S
C65 C67 1.382 . S
C65 C69 1.404 . S
H66 C64 0.951 . S
C67 C65 1.382 . S
C67 C68 1.390 . S
C67 H72 0.949 . S
C68 C67 1.390 . S
C68 C73 1.399 . S
C69 C65 1.404 . S
C69 H70 0.950 . S
C69 C71 1.375 . S
H70 C69 0.950 . S
C71 C69 1.375 . S
C71 C73 1.382 . S
C71 H75 0.950 . S
H72 C67 0.949 . S
C73 C68 1.399 . S
C73 C71 1.382 . S
C73 H74 0.952 . S
H74 C73 0.952 . S
H75 C71 0.950 . S
H76 C77 0.949 . S
C77 H76 0.949 . S
C77 C78 1.395 . S
C77 C79 1.391 . S
C78 C77 1.395 . S
C78 C81 1.390 . S
C79 C77 1.391 . S
C79 C83 1.387 . S
C79 C84 1.491 . S
H80 C81 0.950 . S
C81 C78 1.390 . S
C81 H80 0.950 . S
C81 C82 1.378 . S
C82 C81 1.378 . S
C82 C83 1.409 . S
C83 C79 1.387 . S
C83 C82 1.409 . S
C83 H85 0.951 . S
C84 C79 1.491 . S
C84 C86 1.382 . S
C84 C88 1.404 . S
H85 C83 0.951 . S
C86 C84 1.382 . S
C86 C87 1.390 . S
C86 H91 0.949 . S
C87 C86 1.390 . S
C87 C92 1.399 . S
C88 C84 1.404 . S
C88 H89 0.950 . S
C88 C90 1.375 . S
H89 C88 0.950 . S
C90 C88 1.375 . S
C90 C92 1.382 . S
C90 H94 0.950 . S
H91 C86 0.949 . S
C92 C87 1.399 . S
C92 C90 1.382 . S
C92 H93 0.952 . S
H93 C92 0.952 . S
H94 C90 0.950 . S
H95 C96 0.949 . S
C96 H95 0.949 . S
C96 C97 1.395 . S
C96 C98 1.391 . S
C97 C96 1.395 . S
C97 C100 1.390 . S
C98 C96 1.391 . S
C98 C102 1.387 . S
C98 C103 1.491 . S
H99 C100 0.950 . S
C100 C97 1.390 . S
C100 H99 0.950 . S
C100 C101 1.378 . S
C101 C100 1.378 . S
C101 C102 1.409 . S
C102 C98 1.387 . S
C102 C101 1.409 . S
C102 H104 0.951 . S
C103 C98 1.491 . S
C103 C105 1.382 . S
C103 C107 1.404 . S
H104 C102 0.951 . S
C105 C103 1.382 . S
C105 C106 1.390 . S
C105 H110 0.949 . S
C106 C105 1.390 . S
C106 C111 1.399 . S
C107 C103 1.404 . S
C107 H108 0.950 . S
C107 C109 1.375 . S
H108 C107 0.950 . S
C109 C107 1.375 . S
C109 C111 1.382 . S
C109 H113 0.950 . S
H110 C105 0.949 . S
C111 C106 1.399 . S
C111 C109 1.382 . S
C111 H112 0.952 . S
H112 C111 0.952 . S
H113 C109 0.950 . S
H114 C115 0.949 . S
C115 H114 0.949 . S
C115 C116 1.395 . S
C115 C117 1.391 . S
C116 C115 1.395 . S
C116 C119 1.390 . S
C117 C115 1.391 . S
C117 C121 1.387 . S
C117 C122 1.491 . S
H118 C119 0.950 . S
C119 C116 1.390 . S
C119 H118 0.950 . S
C119 C120 1.378 . S
C120 C119 1.378 . S
C120 C121 1.409 . S
C121 C117 1.387 . S
C121 C120 1.409 . S
C121 H123 0.951 . S
C122 C117 1.491 . S
C122 C124 1.382 . S
C122 C126 1.404 . S
H123 C121 0.951 . S
C124 C122 1.382 . S
C124 C125 1.390 . S
C124 H129 0.949 . S
C125 C124 1.390 . S
C125 C130 1.399 . S
C126 C122 1.404 . S
C126 H127 0.950 . S
C126 C128 1.375 . S
H127 C126 0.950 . S
C128 C126 1.375 . S
C128 C130 1.382 . S
C128 H132 0.950 . S
H129 C124 0.949 . S
C130 C125 1.399 . S
C130 C128 1.382 . S
C130 H131 0.952 . S
H131 C130 0.952 . S
H132 C128 0.950 . S
H133 C134 0.949 . S
C134 H133 0.949 . S
C134 C135 1.395 . S
C134 C136 1.391 . S
C135 C134 1.395 . S
C135 C138 1.390 . S
C136 C134 1.391 . S
C136 C140 1.387 . S
C136 C141 1.491 . S
H137 C138 0.950 . S
C138 C135 1.390 . S
C138 H137 0.950 . S
C138 C139 1.378 . S
C139 C138 1.378 . S
C139 C140 1.409 . S
C140 C136 1.387 . S
C140 C139 1.409 . S
C140 H142 0.951 . S
C141 C136 1.491 . S
C141 C143 1.382 . S
C141 C145 1.404 . S
H142 C140 0.951 . S
C143 C141 1.382 . S
C143 C144 1.390 . S
C143 H148 0.949 . S
C144 C143 1.390 . S
C144 C149 1.399 . S
C145 C141 1.404 . S
C145 H146 0.950 . S
C145 C147 1.375 . S
H146 C145 0.950 . S
C147 C145 1.375 . S
C147 C149 1.382 . S
C147 H151 0.950 . S
H148 C143 0.949 . S
C149 C144 1.399 . S
C149 C147 1.382 . S
C149 H150 0.952 . S
H150 C149 0.952 . S
H151 C147 0.950 . S
Eu152 N181 2.600 . S
Eu152 N187 2.562 . S
Eu152 O196 2.462 . S
Eu152 O197 2.373 . S
Eu152 O199 2.432 . S
Eu152 O200 2.273 1_455 S
Eu152 O204 2.328 1_455 S
Eu152 O207 2.372 . S
Eu152 C216 2.787 . S
C153 N154 1.365 . S
C153 C156 1.405 . S
C153 C160 1.448 . S
N154 C153 1.365 . S
N154 C157 1.319 . S
N154 Eu163 2.600 . S
C155 C157 1.397 . S
C155 C158 1.367 . S
C155 H175 0.931 . S
C156 C153 1.405 . S
C156 C158 1.403 . S
C156 C162 1.439 . S
C157 N154 1.319 . S
C157 C155 1.397 . S
C157 H168 0.930 . S
C158 C155 1.367 . S
C158 C156 1.403 . S
C158 H179 0.929 . S
C159 C160 1.430 . S
C159 C161 1.387 . S
C159 C165 1.404 1_545 S
C160 C153 1.448 . S
C160 C159 1.430 . S
C160 N164 1.351 . S
C161 C159 1.387 . S
C161 C162 1.374 . S
C161 H176 0.931 1_545 S
C162 C156 1.439 . S
C162 C161 1.374 . S
C162 H177 0.931 . S
Eu163 N154 2.600 . S
Eu163 N164 2.562 . S
Eu163 O198 2.335 1_655 S
Eu163 O201 2.372 . S
Eu163 O202 2.462 . S
Eu163 O203 2.373 . S
Eu163 O205 2.432 . S
Eu163 O206 2.291 1_655 S
Eu163 C227 2.787 . S
N164 C160 1.351 . S
N164 Eu163 2.562 . S
N164 C166 1.325 . S
C165 C159 1.404 1_565 S
C165 C167 1.366 . S
C165 H173 0.930 . S
C166 N164 1.325 . S
C166 C167 1.416 1_545 S
C166 H172 0.929 . S
C167 C165 1.366 . S
C167 C166 1.416 1_565 S
C167 H169 0.930 . S
H168 C157 0.930 . S
H169 C167 0.930 . S
H170 C185 0.930 . S
H171 C192 0.930 . S
H172 C166 0.929 . S
H173 C165 0.930 . S
H174 C188 0.929 . S
H175 C155 0.931 . S
H176 C161 0.931 1_565 S
H177 C162 0.931 . S
H178 C183 0.931 . S
H179 C158 0.929 . S
H180 C191 0.930 . S
N181 Eu152 2.600 . S
N181 C182 1.365 . S
N181 C185 1.319 . S
C182 N181 1.365 . S
C182 C184 1.405 . S
C182 C190 1.448 . S
C183 H178 0.931 . S
C183 C185 1.397 . S
C183 C186 1.367 . S
C184 C182 1.405 . S
C184 C186 1.403 . S
C184 C217 1.439 . S
C185 H170 0.930 . S
C185 N181 1.319 . S
C185 C183 1.397 . S
C186 C183 1.367 . S
C186 C184 1.403 . S
C186 H193 0.929 . S
N187 Eu152 2.562 . S
N187 C188 1.325 . S
N187 C190 1.351 . S
C188 H174 0.929 . S
C188 N187 1.325 . S
C188 C192 1.416 . S
C189 C190 1.430 . S
C189 C191 1.404 . S
C189 C218 1.387 . S
C190 C182 1.448 . S
C190 N187 1.351 . S
C190 C189 1.430 . S
C191 H180 0.930 . S
C191 C189 1.404 . S
C191 C192 1.366 . S
C192 H171 0.930 . S
C192 C188 1.416 . S
C192 C191 1.366 . S
H193 C186 0.929 . S
H194 C217 0.931 . S
H195 C218 0.931 . S
O196 Eu152 2.462 . S
O196 C216 1.252 . S
O197 Eu152 2.373 . S
O197 C208 1.249 . S
O198 Eu163 2.335 1_455 S
O198 C208 1.264 . S
O199 Eu152 2.432 . S
O199 C216 1.268 . S
O200 Eu152 2.273 1_655 S
O200 C215 1.277 . S
O201 Eu163 2.372 . S
O201 C215 1.257 . S
O202 Eu163 2.462 . S
O202 C227 1.252 . S
O203 Eu163 2.373 . S
O203 C219 1.249 . S
O204 Eu152 2.328 1_655 S
O204 C219 1.272 . S
O205 Eu163 2.432 . S
O205 C227 1.268 . S
O206 Eu163 2.291 1_455 S
O206 C226 1.255 . S
O207 Eu152 2.372 . S
O207 C226 1.257 . S
C208 O197 1.249 . S
C208 O198 1.264 . S
C209 C212 1.382 . S
C209 C214 1.390 . S
C209 C216 1.506 . S
C210 C211 1.398 . S
C210 C214 1.392 . S
C211 C210 1.398 . S
C211 C213 1.372 . S
C211 H228 0.931 . S
C212 C209 1.382 . S
C212 C213 1.390 . S
C212 H229 0.931 . S
C213 C211 1.372 . S
C213 C212 1.390 . S
C213 H230 0.929 . S
C214 C209 1.390 . S
C214 C210 1.392 . S
C214 H231 0.930 . S
C215 O200 1.277 . S
C215 O201 1.257 . S
C216 Eu152 2.787 . S
C216 O196 1.252 . S
C216 O199 1.268 . S
C216 C209 1.506 . S
C217 C184 1.439 . S
C217 H194 0.931 . S
C217 C218 1.374 . S
C218 C189 1.387 . S
C218 H195 0.931 . S
C218 C217 1.374 . S
C219 O203 1.249 . S
C219 O204 1.272 . S
C220 C223 1.382 . S
C220 C224 1.390 . S
C220 C227 1.506 . S
C221 C222 1.398 . S
C221 C224 1.392 . S
C222 C221 1.398 . S
C222 C225 1.372 . S
C222 H232 0.931 . S
C223 C220 1.382 . S
C223 C225 1.390 . S
C223 H233 0.931 . S
C224 C220 1.390 . S
C224 C221 1.392 . S
C224 H234 0.930 . S
C225 C222 1.372 . S
C225 C223 1.390 . S
C225 H235 0.929 . S
C226 O206 1.255 . S
C226 O207 1.257 . S
C227 Eu163 2.787 . S
C227 O202 1.252 . S
C227 O205 1.268 . S
C227 C220 1.506 . S
H228 C211 0.931 . S
H229 C212 0.931 . S
H230 C213 0.929 . S
H231 C214 0.930 . S
H232 C222 0.931 . S
H233 C223 0.931 . S
H234 C224 0.930 . S
H235 C225 0.929 . S
Eu236 N265 2.600 . S
Eu236 N271 2.562 . S
Eu236 O280 2.462 . S
Eu236 O281 2.373 . S
Eu236 O283 2.432 . S
Eu236 O284 2.291 . S
Eu236 O288 2.335 . S
Eu236 O291 2.372 . S
Eu236 C300 2.787 . S
C237 N238 1.365 . S
C237 C240 1.405 . S
C237 C244 1.448 . S
N238 C237 1.365 . S
N238 C241 1.319 . S
N238 Eu247 2.600 . S
C239 C241 1.397 . S
C239 C242 1.367 . S
C239 H259 0.931 . S
C240 C237 1.405 . S
C240 C242 1.403 . S
C240 C246 1.439 . S
C241 N238 1.319 . S
C241 C239 1.397 . S
C241 H252 0.930 . S
C242 C239 1.367 . S
C242 C240 1.403 . S
C242 H263 0.929 . S
C243 C244 1.430 . S
C243 C245 1.387 . S
C243 C249 1.404 . S
C244 C237 1.448 . S
C244 C243 1.430 . S
C244 N248 1.351 . S
C245 C243 1.387 . S
C245 C246 1.374 . S
C245 H260 0.931 . S
C246 C240 1.439 . S
C246 C245 1.374 . S
C246 H261 0.931 . S
Eu247 N238 2.600 . S
Eu247 N248 2.562 . S
Eu247 O282 2.335 . S
Eu247 O285 2.372 . S
Eu247 O286 2.462 . S
Eu247 O287 2.373 . S
Eu247 O289 2.432 . S
Eu247 O290 2.291 . S
Eu247 C311 2.787 . S
N248 C244 1.351 . S
N248 Eu247 2.562 . S
N248 C250 1.325 . S
C249 C243 1.404 . S
C249 C251 1.366 . S
C249 H257 0.930 . S
C250 N248 1.325 . S
C250 C251 1.416 . S
C250 H256 0.929 . S
C251 C249 1.366 . S
C251 C250 1.416 . S
C251 H253 0.930 . S
H252 C241 0.930 . S
H253 C251 0.930 . S
H254 C269 0.930 . S
H255 C276 0.930 . S
H256 C250 0.929 . S
H257 C249 0.930 . S
H258 C272 0.929 . S
H259 C239 0.931 . S
H260 C245 0.931 . S
H261 C246 0.931 . S
H262 C267 0.931 . S
H263 C242 0.929 . S
H264 C275 0.930 . S
N265 Eu236 2.600 . S
N265 C266 1.365 . S
N265 C269 1.319 . S
C266 N265 1.365 . S
C266 C268 1.405 . S
C266 C274 1.448 . S
C267 H262 0.931 . S
C267 C269 1.397 . S
C267 C270 1.367 . S
C268 C266 1.405 . S
C268 C270 1.403 . S
C268 C301 1.439 . S
C269 H254 0.930 . S
C269 N265 1.319 . S
C269 C267 1.397 . S
C270 C267 1.367 . S
C270 C268 1.403 . S
C270 H277 0.929 . S
N271 Eu236 2.562 . S
N271 C272 1.325 . S
N271 C274 1.351 . S
C272 H258 0.929 . S
C272 N271 1.325 . S
C272 C276 1.416 . S
C273 C274 1.430 . S
C273 C275 1.404 . S
C273 C302 1.387 . S
C274 C266 1.448 . S
C274 N271 1.351 . S
C274 C273 1.430 . S
C275 H264 0.930 . S
C275 C273 1.404 . S
C275 C276 1.366 . S
C276 H255 0.930 . S
C276 C272 1.416 . S
C276 C275 1.366 . S
H277 C270 0.929 . S
H278 C301 0.931 . S
H279 C302 0.931 . S
O280 Eu236 2.462 . S
O280 C300 1.252 . S
O281 Eu236 2.373 . S
O281 C292 1.249 . S
O282 Eu247 2.335 . S
O282 C292 1.264 . S
O283 Eu236 2.432 . S
O283 C300 1.268 . S
O284 Eu236 2.291 . S
O284 C299 1.255 . S
O285 Eu247 2.372 . S
O285 C299 1.257 . S
O286 Eu247 2.462 . S
O286 C311 1.252 . S
O287 Eu247 2.373 . S
O287 C303 1.249 . S
O288 Eu236 2.335 . S
O288 C303 1.264 . S
O289 Eu247 2.432 . S
O289 C311 1.268 . S
O290 Eu247 2.291 . S
O290 C310 1.255 . S
O291 Eu236 2.372 . S
O291 C310 1.257 . S
C292 O281 1.249 . S
C292 O282 1.264 . S
C293 C296 1.382 . S
C293 C298 1.390 . S
C293 C300 1.506 . S
C294 C295 1.398 . S
C294 C298 1.392 . S
C295 C294 1.398 . S
C295 C297 1.372 . S
C295 H312 0.931 . S
C296 C293 1.382 . S
C296 C297 1.390 . S
C296 H313 0.931 . S
C297 C295 1.372 . S
C297 C296 1.390 . S
C297 H314 0.929 . S
C298 C293 1.390 . S
C298 C294 1.392 . S
C298 H315 0.930 . S
C299 O284 1.255 . S
C299 O285 1.257 . S
C300 Eu236 2.787 . S
C300 O280 1.252 . S
C300 O283 1.268 . S
C300 C293 1.506 . S
C301 C268 1.439 . S
C301 H278 0.931 . S
C301 C302 1.374 . S
C302 C273 1.387 . S
C302 H279 0.931 . S
C302 C301 1.374 . S
C303 O287 1.249 . S
C303 O288 1.264 . S
C304 C307 1.382 . S
C304 C308 1.390 . S
C304 C311 1.506 . S
C305 C306 1.398 . S
C305 C308 1.392 . S
C306 C305 1.398 . S
C306 C309 1.372 . S
C306 H316 0.931 . S
C307 C304 1.382 . S
C307 C309 1.390 . S
C307 H317 0.931 . S
C308 C304 1.390 . S
C308 C305 1.392 . S
C308 H318 0.930 . S
C309 C306 1.372 . S
C309 C307 1.390 . S
C309 H319 0.929 . S
C310 O290 1.255 . S
C310 O291 1.257 . S
C311 Eu247 2.787 . S
C311 O286 1.252 . S
C311 O289 1.268 . S
C311 C304 1.506 . S
H312 C295 0.931 . S
H313 C296 0.931 . S
H314 C297 0.929 . S
H315 C298 0.930 . S
H316 C306 0.931 . S
H317 C307 0.931 . S
H318 C308 0.930 . S
H319 C309 0.929 . S
Eu320 N349 2.600 . S
Eu320 N355 2.562 . S
Eu320 O364 2.462 . S
Eu320 O365 2.373 . S
Eu320 O367 2.432 . S
Eu320 O368 2.310 . S
Eu320 O372 2.335 . S
Eu320 O375 2.372 . S
Eu320 C384 2.787 . S
C321 N322 1.365 . S
C321 C324 1.405 . S
C321 C328 1.448 . S
N322 C321 1.365 . S
N322 C325 1.319 . S
N322 Eu331 2.600 . S
C323 C325 1.397 . S
C323 C326 1.367 . S
C323 H343 0.931 . S
C324 C321 1.405 . S
C324 C326 1.403 . S
C324 C330 1.439 . S
C325 N322 1.319 . S
C325 C323 1.397 . S
C325 H336 0.930 . S
C326 C323 1.367 . S
C326 C324 1.403 . S
C326 H347 0.929 . S
C327 C328 1.430 . S
C327 C329 1.387 . S
C327 C333 1.404 . S
C328 C321 1.448 . S
C328 C327 1.430 . S
C328 N332 1.351 . S
C329 C327 1.387 . S
C329 C330 1.374 . S
C329 H344 0.931 . S
C330 C324 1.439 . S
C330 C329 1.374 . S
C330 H345 0.931 . S
Eu331 N322 2.600 . S
Eu331 N332 2.562 . S
Eu331 O366 2.335 1_655 S
Eu331 O369 2.372 . S
Eu331 O370 2.462 . S
Eu331 O371 2.373 . S
Eu331 O373 2.432 . S
Eu331 O374 2.291 1_655 S
Eu331 C395 2.787 . S
N332 C328 1.351 . S
N332 Eu331 2.562 . S
N332 C334 1.325 . S
C333 C327 1.404 . S
C333 C335 1.366 . S
C333 H341 0.930 . S
C334 N332 1.325 . S
C334 C335 1.416 . S
C334 H340 0.929 . S
C335 C333 1.366 . S
C335 C334 1.416 . S
C335 H337 0.930 . S
H336 C325 0.930 . S
H337 C335 0.930 . S
H338 C353 0.930 . S
H339 C360 0.930 . S
H340 C334 0.929 . S
H341 C333 0.930 . S
H342 C356 0.929 . S
H343 C323 0.931 . S
H344 C329 0.931 . S
H345 C330 0.931 . S
H346 C351 0.931 . S
H347 C326 0.929 . S
H348 C359 0.930 . S
N349 Eu320 2.600 . S
N349 C350 1.365 . S
N349 C353 1.319 . S
C350 N349 1.365 . S
C350 C352 1.405 . S
C350 C358 1.448 . S
C351 H346 0.931 . S
C351 C353 1.397 . S
C351 C354 1.367 . S
C352 C350 1.405 . S
C352 C354 1.403 . S
C352 C385 1.439 . S
C353 H338 0.930 . S
C353 N349 1.319 . S
C353 C351 1.397 . S
C354 C351 1.367 . S
C354 C352 1.403 . S
C354 H361 0.929 . S
N355 Eu320 2.562 . S
N355 C356 1.325 . S
N355 C358 1.351 . S
C356 H342 0.929 . S
C356 N355 1.325 . S
C356 C360 1.416 1_565 S
C357 C358 1.430 . S
C357 C359 1.404 1_565 S
C357 C386 1.387 . S
C358 C350 1.448 . S
C358 N355 1.351 . S
C358 C357 1.430 . S
C359 H348 0.930 . S
C359 C357 1.404 1_545 S
C359 C360 1.366 . S
C360 H339 0.930 . S
C360 C356 1.416 1_545 S
C360 C359 1.366 . S
H361 C354 0.929 . S
H362 C385 0.931 . S
H363 C386 0.931 1_545 S
O364 Eu320 2.462 . S
O364 C384 1.252 . S
O365 Eu320 2.373 . S
O365 C376 1.249 . S
O366 Eu331 2.335 1_455 S
O366 C376 1.264 . S
O367 Eu320 2.432 . S
O367 C384 1.268 . S
O368 Eu320 2.310 . S
O368 C383 1.232 1_455 S
O369 Eu331 2.372 . S
O369 C383 1.257 . S
O370 Eu331 2.462 . S
O370 C395 1.252 . S
O371 Eu331 2.373 . S
O371 C387 1.249 . S
O372 Eu320 2.335 . S
O372 C387 1.264 1_455 S
O373 Eu331 2.432 . S
O373 C395 1.268 . S
O374 Eu331 2.291 1_455 S
O374 C394 1.255 . S
O375 Eu320 2.372 . S
O375 C394 1.257 . S
C376 O365 1.249 . S
C376 O366 1.264 . S
C377 C380 1.382 . S
C377 C382 1.390 . S
C377 C384 1.506 . S
C378 C379 1.398 . S
C378 C382 1.392 . S
C379 C378 1.398 . S
C379 C381 1.372 . S
C379 H396 0.931 . S
C380 C377 1.382 . S
C380 C381 1.390 . S
C380 H397 0.931 . S
C381 C379 1.372 . S
C381 C380 1.390 . S
C381 H398 0.929 . S
C382 C377 1.390 . S
C382 C378 1.392 . S
C382 H399 0.930 . S
C383 O368 1.232 1_655 S
C383 O369 1.257 . S
C384 Eu320 2.787 . S
C384 O364 1.252 . S
C384 O367 1.268 . S
C384 C377 1.506 . S
C385 C352 1.439 . S
C385 H362 0.931 . S
C385 C386 1.374 . S
C386 C357 1.387 . S
C386 H363 0.931 1_565 S
C386 C385 1.374 . S
C387 O371 1.249 . S
C387 O372 1.264 1_655 S
C388 C391 1.382 . S
C388 C392 1.390 . S
C388 C395 1.506 . S
C389 C390 1.398 . S
C389 C392 1.392 . S
C390 C389 1.398 . S
C390 C393 1.372 . S
C390 H400 0.931 . S
C391 C388 1.382 . S
C391 C393 1.390 . S
C391 H401 0.931 . S
C392 C388 1.390 . S
C392 C389 1.392 . S
C392 H402 0.930 . S
C393 C390 1.372 . S
C393 C391 1.390 . S
C393 H403 0.929 . S
C394 O374 1.255 . S
C394 O375 1.257 . S
C395 Eu331 2.787 . S
C395 O370 1.252 . S
C395 O373 1.268 . S
C395 C388 1.506 . S
H396 C379 0.931 . S
H397 C380 0.931 . S
H398 C381 0.929 . S
H399 C382 0.930 . S
H400 C390 0.931 . S
H401 C391 0.931 . S
H402 C392 0.930 . S
H403 C393 0.929 . S
Eu404 N433 2.600 . S
Eu404 N439 2.562 . S
Eu404 O448 2.462 . S
Eu404 O449 2.373 . S
Eu404 O451 2.432 . S
Eu404 O452 2.291 . S
Eu404 O456 2.335 . S
Eu404 O459 2.372 . S
Eu404 C468 2.787 . S
C405 N406 1.365 . S
C405 C408 1.405 . S
C405 C412 1.448 . S
N406 C405 1.365 . S
N406 C409 1.319 . S
N406 Eu415 2.600 . S
C407 C409 1.397 . S
C407 C410 1.367 . S
C407 H427 0.931 . S
C408 C405 1.405 . S
C408 C410 1.403 . S
C408 C414 1.439 . S
C409 N406 1.319 . S
C409 C407 1.397 . S
C409 H420 0.930 . S
C410 C407 1.367 . S
C410 C408 1.403 . S
C410 H431 0.929 . S
C411 C412 1.430 . S
C411 C413 1.387 . S
C411 C417 1.404 . S
C412 C405 1.448 . S
C412 C411 1.430 . S
C412 N416 1.351 . S
C413 C411 1.387 . S
C413 C414 1.374 . S
C413 H428 0.931 . S
C414 C408 1.439 . S
C414 C413 1.374 . S
C414 H429 0.931 . S
Eu415 N406 2.600 . S
Eu415 N416 2.562 . S
Eu415 O450 2.335 . S
Eu415 O453 2.372 . S
Eu415 O454 2.462 . S
Eu415 O455 2.373 . S
Eu415 O457 2.432 . S
Eu415 O458 2.291 . S
Eu415 C479 2.787 . S
N416 C412 1.351 . S
N416 Eu415 2.562 . S
N416 C418 1.325 . S
C417 C411 1.404 . S
C417 C419 1.366 . S
C417 H425 0.930 . S
C418 N416 1.325 . S
C418 C419 1.416 . S
C418 H424 0.929 . S
C419 C417 1.366 . S
C419 C418 1.416 . S
C419 H421 0.930 . S
H420 C409 0.930 . S
H421 C419 0.930 . S
H422 C437 0.930 . S
H423 C444 0.930 . S
H424 C418 0.929 . S
H425 C417 0.930 . S
H426 C440 0.929 . S
H427 C407 0.931 . S
H428 C413 0.931 . S
H429 C414 0.931 . S
H430 C435 0.931 . S
H431 C410 0.929 . S
H432 C443 0.930 . S
N433 Eu404 2.600 . S
N433 C434 1.365 . S
N433 C437 1.319 . S
C434 N433 1.365 . S
C434 C436 1.405 . S
C434 C442 1.448 . S
C435 H430 0.931 . S
C435 C437 1.397 . S
C435 C438 1.367 . S
C436 C434 1.405 . S
C436 C438 1.403 . S
C436 C469 1.439 . S
C437 H422 0.930 . S
C437 N433 1.319 . S
C437 C435 1.397 . S
C438 C435 1.367 . S
C438 C436 1.403 . S
C438 H445 0.929 . S
N439 Eu404 2.562 . S
N439 C440 1.325 . S
N439 C442 1.351 . S
C440 H426 0.929 . S
C440 N439 1.325 . S
C440 C444 1.416 . S
C441 C442 1.430 . S
C441 C443 1.404 . S
C441 C470 1.387 . S
C442 C434 1.448 . S
C442 N439 1.351 . S
C442 C441 1.430 . S
C443 H432 0.930 . S
C443 C441 1.404 . S
C443 C444 1.366 . S
C444 H423 0.930 . S
C444 C440 1.416 . S
C444 C443 1.366 . S
H445 C438 0.929 . S
H446 C469 0.931 . S
H447 C470 0.931 . S
O448 Eu404 2.462 . S
O448 C468 1.252 . S
O449 Eu404 2.373 . S
O449 C460 1.249 . S
O450 Eu415 2.335 . S
O450 C460 1.264 . S
O451 Eu404 2.432 . S
O451 C468 1.268 . S
O452 Eu404 2.291 . S
O452 C467 1.255 . S
O453 Eu415 2.372 . S
O453 C467 1.257 . S
O454 Eu415 2.462 . S
O454 C479 1.252 . S
O455 Eu415 2.373 . S
O455 C471 1.249 . S
O456 Eu404 2.335 . S
O456 C471 1.264 . S
O457 Eu415 2.432 . S
O457 C479 1.268 . S
O458 Eu415 2.291 . S
O458 C478 1.255 . S
O459 Eu404 2.372 . S
O459 C478 1.257 . S
C460 O449 1.249 . S
C460 O450 1.264 . S
C461 C464 1.382 . S
C461 C466 1.390 . S
C461 C468 1.506 . S
C462 C463 1.398 . S
C462 C466 1.392 . S
C463 C462 1.398 . S
C463 C465 1.372 . S
C463 H480 0.931 . S
C464 C461 1.382 . S
C464 C465 1.390 . S
C464 H481 0.931 . S
C465 C463 1.372 . S
C465 C464 1.390 . S
C465 H482 0.929 . S
C466 C461 1.390 . S
C466 C462 1.392 . S
C466 H483 0.930 . S
C467 O452 1.255 . S
C467 O453 1.257 . S
C468 Eu404 2.787 . S
C468 O448 1.252 . S
C468 O451 1.268 . S
C468 C461 1.506 . S
C469 C436 1.439 . S
C469 H446 0.931 . S
C469 C470 1.374 . S
C470 C441 1.387 . S
C470 H447 0.931 . S
C470 C469 1.374 . S
C471 O455 1.249 . S
C471 O456 1.264 . S
C472 C475 1.382 . S
C472 C476 1.390 . S
C472 C479 1.506 . S
C473 C474 1.398 . S
C473 C476 1.392 . S
C474 C473 1.398 . S
C474 C477 1.372 . S
C474 H484 0.931 . S
C475 C472 1.382 . S
C475 C477 1.390 . S
C475 H485 0.931 . S
C476 C472 1.390 . S
C476 C473 1.392 . S
C476 H486 0.930 . S
C477 C474 1.372 . S
C477 C475 1.390 . S
C477 H487 0.929 . S
C478 O458 1.255 . S
C478 O459 1.257 . S
C479 Eu415 2.787 . S
C479 O454 1.252 . S
C479 O457 1.268 . S
C479 C472 1.506 . S
H480 C463 0.931 . S
H481 C464 0.931 . S
H482 C465 0.929 . S
H483 C466 0.930 . S
H484 C474 0.931 . S
H485 C475 0.931 . S
H486 C476 0.930 . S
H487 C477 0.929 . S
C488 C489 1.391 . S
C488 C490 1.394 . S
C488 H504 0.931 . S
C489 C488 1.391 . S
C489 C493 1.376 . S
C490 C488 1.394 . S
C490 C491 1.369 . S
C490 C494 1.531 . S
C491 C490 1.369 . S
C491 C492 1.410 . S
C491 C499 1.503 . S
C492 C491 1.410 . S
C492 C493 1.392 . S
C492 C495 1.511 . S
C493 C489 1.376 . S
C493 C492 1.392 . S
C493 H505 0.929 . S
C494 C490 1.531 . S
C494 H506 0.960 . S
C494 H507 0.962 . S
C494 H508 0.960 . S
C495 C492 1.511 . S
C495 H509 0.961 . S
C495 H510 0.961 . S
C495 H511 0.961 . S
C496 C497 1.370 1_565 S
C496 C498 1.363 . S
C496 H512 0.931 . S
C497 C496 1.370 1_545 S
C497 C501 1.408 . S
C498 C496 1.363 . S
C498 C499 1.370 . S
C498 C502 1.524 . S
C499 C491 1.503 . S
C499 C498 1.370 . S
C499 C500 1.403 1_565 S
C500 C499 1.403 1_545 S
C500 C501 1.404 . S
C500 C503 1.539 . S
C501 C497 1.408 . S
C501 C500 1.404 . S
C501 H513 0.930 . S
C502 C498 1.524 . S
C502 H514 0.956 . S
C502 H515 0.961 . S
C502 H516 0.961 . S
C503 C500 1.539 . S
C503 H517 0.958 . S
C503 H518 0.961 . S
C503 H519 0.960 . S
H504 C488 0.931 . S
H505 C493 0.929 . S
H506 C494 0.960 . S
H507 C494 0.962 . S
H508 C494 0.960 . S
H509 C495 0.961 . S
H510 C495 0.961 . S
H511 C495 0.961 . S
H512 C496 0.931 . S
H513 C501 0.930 . S
H514 C502 0.956 . S
H515 C502 0.961 . S
H516 C502 0.961 . S
H517 C503 0.958 . S
H518 C503 0.961 . S
H519 C503 0.960 . S
C520 C521 1.391 . S
C520 C522 1.394 . S
C520 H536 0.931 . S
C521 C520 1.391 . S
C521 C525 1.376 . S
C522 C520 1.394 . S
C522 C523 1.369 . S
C522 C526 1.531 . S
C523 C522 1.369 . S
C523 C524 1.410 . S
C523 C531 1.503 . S
C524 C523 1.410 . S
C524 C525 1.392 . S
C524 C527 1.511 . S
C525 C521 1.376 . S
C525 C524 1.392 . S
C525 H537 0.929 . S
C526 C522 1.531 . S
C526 H538 0.960 . S
C526 H539 0.962 . S
C526 H540 0.960 . S
C527 C524 1.511 . S
C527 H541 0.961 . S
C527 H542 0.961 . S
C527 H543 0.961 . S
C528 C529 1.370 . S
C528 C530 1.363 . S
C528 H544 0.931 . S
C529 C528 1.370 . S
C529 C533 1.408 . S
C530 C528 1.363 . S
C530 C531 1.370 . S
C530 C534 1.524 . S
C531 C523 1.503 . S
C531 C530 1.370 . S
C531 C532 1.403 . S
C532 C531 1.403 . S
C532 C533 1.404 . S
C532 C535 1.539 . S
C533 C529 1.408 . S
C533 C532 1.404 . S
C533 H545 0.930 . S
C534 C530 1.524 . S
C534 H546 0.956 . S
C534 H547 0.961 . S
C534 H548 0.961 . S
C535 C532 1.539 . S
C535 H549 0.958 . S
C535 H550 0.961 . S
C535 H551 0.960 . S
H536 C520 0.931 . S
H537 C525 0.929 . S
H538 C526 0.960 . S
H539 C526 0.962 . S
H540 C526 0.960 . S
H541 C527 0.961 . S
H542 C527 0.961 . S
H543 C527 0.961 . S
H544 C528 0.931 . S
H545 C533 0.930 . S
H546 C534 0.956 . S
H547 C534 0.961 . S
H548 C534 0.961 . S
H549 C535 0.958 . S
H550 C535 0.961 . S
H551 C535 0.960 . S
C552 C553 1.391 . S
C552 C554 1.394 . S
C552 H568 0.931 . S
C553 C552 1.391 . S
C553 C557 1.376 . S
C554 C552 1.394 . S
C554 C555 1.369 . S
C554 C558 1.531 . S
C555 C554 1.369 . S
C555 C556 1.410 . S
C555 C563 1.503 . S
C556 C555 1.410 . S
C556 C557 1.392 . S
C556 C559 1.511 . S
C557 C553 1.376 . S
C557 C556 1.392 . S
C557 H569 0.929 . S
C558 C554 1.531 . S
C558 H570 0.960 . S
C558 H571 0.962 . S
C558 H572 0.960 . S
C559 C556 1.511 . S
C559 H573 0.961 . S
C559 H574 0.961 . S
C559 H575 0.961 . S
C560 C561 1.370 . S
C560 C562 1.363 . S
C560 H576 0.931 . S
C561 C560 1.370 . S
C561 C565 1.408 . S
C562 C560 1.363 . S
C562 C563 1.370 . S
C562 C566 1.524 . S
C563 C555 1.503 . S
C563 C562 1.370 . S
C563 C564 1.403 . S
C564 C563 1.403 . S
C564 C565 1.404 . S
C564 C567 1.539 . S
C565 C561 1.408 . S
C565 C564 1.404 . S
C565 H577 0.930 . S
C566 C562 1.524 . S
C566 H578 0.956 . S
C566 H579 0.961 . S
C566 H580 0.961 . S
C567 C564 1.539 . S
C567 H581 0.958 . S
C567 H582 0.961 . S
C567 H583 0.960 . S
H568 C552 0.931 . S
H569 C557 0.929 . S
H570 C558 0.960 . S
H571 C558 0.962 . S
H572 C558 0.960 . S
H573 C559 0.961 . S
H574 C559 0.961 . S
H575 C559 0.961 . S
H576 C560 0.931 . S
H577 C565 0.930 . S
H578 C566 0.956 . S
H579 C566 0.961 . S
H580 C566 0.961 . S
H581 C567 0.958 . S
H582 C567 0.961 . S
H583 C567 0.960 . S
C584 C585 1.391 . S
C584 C586 1.394 . S
C584 H600 0.931 . S
C585 C584 1.391 . S
C585 C589 1.376 . S
C586 C584 1.394 . S
C586 C587 1.369 . S
C586 C590 1.531 . S
C587 C586 1.369 . S
C587 C588 1.410 . S
C587 C595 1.503 . S
C588 C587 1.410 . S
C588 C589 1.392 . S
C588 C591 1.511 . S
C589 C585 1.376 . S
C589 C588 1.392 . S
C589 H601 0.929 . S
C590 C586 1.531 . S
C590 H602 0.960 . S
C590 H603 0.962 . S
C590 H604 0.960 . S
C591 C588 1.511 . S
C591 H605 0.961 . S
C591 H606 0.961 . S
C591 H607 0.961 . S
C592 C593 1.370 . S
C592 C594 1.363 1_545 S
C592 H608 0.931 . S
C593 C592 1.370 . S
C593 C597 1.408 1_545 S
C594 C592 1.363 1_565 S
C594 C595 1.370 . S
C594 C598 1.524 1_565 S
C595 C587 1.503 . S
C595 C594 1.370 . S
C595 C596 1.403 . S
C596 C595 1.403 . S
C596 C597 1.404 . S
C596 C599 1.539 . S
C597 C593 1.408 1_565 S
C597 C596 1.404 . S
C597 H609 0.930 . S
C598 C594 1.524 1_545 S
C598 H610 0.956 1_545 S
C598 H611 0.961 . S
C598 H612 0.961 . S
C599 C596 1.539 . S
C599 H613 0.958 . S
C599 H614 0.961 . S
C599 H615 0.960 . S
H600 C584 0.931 . S
H601 C589 0.929 . S
H602 C590 0.960 . S
H603 C590 0.962 . S
H604 C590 0.960 . S
H605 C591 0.961 . S
H606 C591 0.961 . S
H607 C591 0.961 . S
H608 C592 0.931 . S
H609 C597 0.930 . S
H610 C598 0.956 1_565 S
H611 C598 0.961 . S
H612 C598 0.961 . S
H613 C599 0.958 . S
H614 C599 0.961 . S
H615 C599 0.960 . S
C616 C617 1.391 . S
C616 C618 1.394 . S
C616 H632 0.931 . S
C617 C616 1.391 . S
C617 C621 1.376 . S
C618 C616 1.394 . S
C618 C619 1.369 . S
C618 C622 1.531 . S
C619 C618 1.369 . S
C619 C620 1.410 . S
C619 C627 1.503 . S
C620 C619 1.410 . S
C620 C621 1.392 . S
C620 C623 1.511 . S
C621 C617 1.376 . S
C621 C620 1.392 . S
C621 H633 0.929 . S
C622 C618 1.531 . S
C622 H634 0.960 . S
C622 H635 0.962 . S
C622 H636 0.960 . S
C623 C620 1.511 . S
C623 H637 0.961 . S
C623 H638 0.961 . S
C623 H639 0.961 . S
C624 C625 1.370 . S
C624 C626 1.363 1_565 S
C624 H640 0.931 . S
C625 C624 1.370 . S
C625 C629 1.408 1_565 S
C626 C624 1.363 1_545 S
C626 C627 1.370 . S
C626 C630 1.524 1_545 S
C627 C619 1.503 . S
C627 C626 1.370 . S
C627 C628 1.403 . S
C628 C627 1.403 . S
C628 C629 1.404 . S
C628 C631 1.539 . S
C629 C625 1.408 1_545 S
C629 C628 1.404 . S
C629 H641 0.930 . S
C630 C626 1.524 1_565 S
C630 H642 0.956 . S
C630 H643 0.961 1_565 S
C630 H644 0.961 . S
C631 C628 1.539 . S
C631 H645 0.958 . S
C631 H646 0.961 . S
C631 H647 0.960 . S
H632 C616 0.931 . S
H633 C621 0.929 . S
H634 C622 0.960 . S
H635 C622 0.962 . S
H636 C622 0.960 . S
H637 C623 0.961 . S
H638 C623 0.961 . S
H639 C623 0.961 . S
H640 C624 0.931 . S
H641 C629 0.930 . S
H642 C630 0.956 . S
H643 C630 0.961 1_545 S
H644 C630 0.961 . S
H645 C631 0.958 . S
H646 C631 0.961 . S
H647 C631 0.960 . S
C648 C649 1.391 . S
C648 C650 1.394 . S
C648 H664 0.931 . S
C649 C648 1.391 . S
C649 C653 1.376 . S
C650 C648 1.394 . S
C650 C651 1.369 . S
C650 C654 1.531 . S
C651 C650 1.369 . S
C651 C652 1.410 . S
C651 C659 1.503 . S
C652 C651 1.410 . S
C652 C653 1.392 . S
C652 C655 1.511 . S
C653 C649 1.376 . S
C653 C652 1.392 . S
C653 H665 0.929 . S
C654 C650 1.531 . S
C654 H666 0.960 . S
C654 H667 0.962 . S
C654 H668 0.960 . S
C655 C652 1.511 . S
C655 H669 0.961 . S
C655 H670 0.961 . S
C655 H671 0.961 . S
C656 C657 1.370 . S
C656 C658 1.363 . S
C656 H672 0.931 . S
C657 C656 1.370 . S
C657 C661 1.408 . S
C658 C656 1.363 . S
C658 C659 1.370 . S
C658 C662 1.524 . S
C659 C651 1.503 . S
C659 C658 1.370 . S
C659 C660 1.403 . S
C660 C659 1.403 . S
C660 C661 1.404 . S
C660 C663 1.539 . S
C661 C657 1.408 . S
C661 C660 1.404 . S
C661 H673 0.930 . S
C662 C658 1.524 . S
C662 H674 0.956 . S
C662 H675 0.961 . S
C662 H676 0.961 . S
C663 C660 1.539 . S
C663 H677 0.958 . S
C663 H678 0.961 . S
C663 H679 0.960 . S
H664 C648 0.931 . S
H665 C653 0.929 . S
H666 C654 0.960 . S
H667 C654 0.962 . S
H668 C654 0.960 . S
H669 C655 0.961 . S
H670 C655 0.961 . S
H671 C655 0.961 . S
H672 C656 0.931 . S
H673 C661 0.930 . S
H674 C662 0.956 . S
H675 C662 0.961 . S
H676 C662 0.961 . S
H677 C663 0.958 . S
H678 C663 0.961 . S
H679 C663 0.960 . S
C680 C681 1.391 . S
C680 C682 1.394 . S
C680 H696 0.931 . S
C681 C680 1.391 . S
C681 C685 1.376 . S
C682 C680 1.394 . S
C682 C683 1.369 . S
C682 C686 1.531 . S
C683 C682 1.369 . S
C683 C684 1.410 . S
C683 C691 1.503 . S
C684 C683 1.410 . S
C684 C685 1.392 . S
C684 C687 1.511 . S
C685 C681 1.376 . S
C685 C684 1.392 . S
C685 H697 0.929 . S
C686 C682 1.531 . S
C686 H698 0.960 . S
C686 H699 0.962 . S
C686 H700 0.960 . S
C687 C684 1.511 . S
C687 H701 0.961 . S
C687 H702 0.961 . S
C687 H703 0.961 . S
C688 C689 1.370 . S
C688 C690 1.363 . S
C688 H704 0.931 . S
C689 C688 1.370 . S
C689 C693 1.408 . S
C690 C688 1.363 . S
C690 C691 1.370 . S
C690 C694 1.524 . S
C691 C683 1.503 . S
C691 C690 1.370 . S
C691 C692 1.403 . S
C692 C691 1.403 . S
C692 C693 1.404 . S
C692 C695 1.539 . S
C693 C689 1.408 . S
C693 C692 1.404 . S
C693 H705 0.930 . S
C694 C690 1.524 . S
C694 H706 0.956 . S
C694 H707 0.961 . S
C694 H708 0.961 . S
C695 C692 1.539 . S
C695 H709 0.958 . S
C695 H710 0.961 . S
C695 H711 0.960 . S
H696 C680 0.931 . S
H697 C685 0.929 . S
H698 C686 0.960 . S
H699 C686 0.962 . S
H700 C686 0.960 . S
H701 C687 0.961 . S
H702 C687 0.961 . S
H703 C687 0.961 . S
H704 C688 0.931 . S
H705 C693 0.930 . S
H706 C694 0.956 . S
H707 C694 0.961 . S
H708 C694 0.961 . S
H709 C695 0.958 . S
H710 C695 0.961 . S
H711 C695 0.960 . S
C712 C713 1.391 . S
C712 C714 1.394 . S
C712 H728 0.931 . S
C713 C712 1.391 . S
C713 C717 1.376 . S
C714 C712 1.394 . S
C714 C715 1.369 . S
C714 C718 1.531 . S
C715 C714 1.369 . S
C715 C716 1.410 . S
C715 C723 1.503 . S
C716 C715 1.410 . S
C716 C717 1.392 . S
C716 C719 1.511 . S
C717 C713 1.376 . S
C717 C716 1.392 . S
C717 H729 0.929 . S
C718 C714 1.531 . S
C718 H730 0.960 . S
C718 H731 0.962 . S
C718 H732 0.960 . S
C719 C716 1.511 . S
C719 H733 0.961 . S
C719 H734 0.961 1_545 S
C719 H735 0.961 1_545 S
C720 C721 1.370 1_545 S
C720 C722 1.363 . S
C720 H736 0.931 . S
C721 C720 1.370 1_565 S
C721 C725 1.408 . S
C722 C720 1.363 . S
C722 C723 1.370 . S
C722 C726 1.524 . S
C723 C715 1.503 . S
C723 C722 1.370 . S
C723 C724 1.403 . S
C724 C723 1.403 . S
C724 C725 1.404 1_545 S
C724 C727 1.539 1_545 S
C725 C721 1.408 . S
C725 C724 1.404 1_565 S
C725 H737 0.930 . S
C726 C722 1.524 . S
C726 H738 0.956 . S
C726 H739 0.961 . S
C726 H740 0.961 . S
C727 C724 1.539 1_565 S
C727 H741 0.958 1_565 S
C727 H742 0.961 . S
C727 H743 0.960 1_565 S
H728 C712 0.931 . S
H729 C717 0.929 . S
H730 C718 0.960 . S
H731 C718 0.962 . S
H732 C718 0.960 . S
H733 C719 0.961 . S
H734 C719 0.961 1_565 S
H735 C719 0.961 1_565 S
H736 C720 0.931 . S
H737 C725 0.930 . S
H738 C726 0.956 . S
H739 C726 0.961 . S
H740 C726 0.961 . S
H741 C727 0.958 1_545 S
H742 C727 0.961 . S
H743 C727 0.960 1_545 S
C744 C745 1.391 . S
C744 C746 1.394 . S
C744 H760 0.931 . S
C745 C744 1.391 . S
C745 C749 1.376 . S
C746 C744 1.394 . S
C746 C747 1.369 1_556 S
C746 C750 1.530 . S
C747 C746 1.369 1_554 S
C747 C748 1.410 . S
C747 C755 1.503 . S
C748 C747 1.410 . S
C748 C749 1.392 1_554 S
C748 C751 1.511 . S
C749 C745 1.376 . S
C749 C748 1.392 1_556 S
C749 H761 0.929 . S
C750 C746 1.530 . S
C750 H762 0.962 1_556 S
C750 H763 0.963 1_556 S
C750 H764 0.958 . S
C751 C748 1.511 . S
C751 H765 0.961 . S
C751 H766 0.961 . S
C751 H767 0.961 . S
C752 C753 1.370 . S
C752 C754 1.363 . S
C752 H768 0.931 . S
C753 C752 1.370 . S
C753 C757 1.408 . S
C754 C752 1.363 . S
C754 C755 1.370 . S
C754 C758 1.524 . S
C755 C747 1.503 . S
C755 C754 1.370 . S
C755 C756 1.403 . S
C756 C755 1.403 . S
C756 C757 1.404 . S
C756 C759 1.539 . S
C757 C753 1.408 . S
C757 C756 1.404 . S
C757 H769 0.930 . S
C758 C754 1.524 . S
C758 H770 0.956 . S
C758 H771 0.961 . S
C758 H772 0.961 . S
C759 C756 1.539 . S
C759 H773 0.958 . S
C759 H774 0.961 . S
C759 H775 0.960 . S
H760 C744 0.931 . S
H761 C749 0.929 . S
H762 C750 0.962 1_554 S
H763 C750 0.963 1_554 S
H764 C750 0.958 . S
H765 C751 0.961 . S
H766 C751 0.961 . S
H767 C751 0.961 . S
H768 C752 0.931 . S
H769 C757 0.930 . S
H770 C758 0.956 . S
H771 C758 0.961 . S
H772 C758 0.961 . S
H773 C759 0.958 . S
H774 C759 0.961 . S
H775 C759 0.960 . S
C776 C777 1.391 . S
C776 C778 1.394 . S
C776 H792 0.931 . S
C777 C776 1.391 . S
C777 C781 1.376 . S
C778 C776 1.394 . S
C778 C779 1.369 . S
C778 C782 1.531 . S
C779 C778 1.369 . S
C779 C780 1.410 . S
C779 C787 1.503 . S
C780 C779 1.410 . S
C780 C781 1.392 . S
C780 C783 1.511 . S
C781 C777 1.376 . S
C781 C780 1.392 . S
C781 H793 0.929 . S
C782 C778 1.531 . S
C782 H794 0.960 . S
C782 H795 0.962 . S
C782 H796 0.960 . S
C783 C780 1.511 . S
C783 H797 0.961 . S
C783 H798 0.961 . S
C783 H799 0.961 . S
C784 C785 1.370 . S
C784 C786 1.363 . S
C784 H800 0.931 . S
C785 C784 1.370 . S
C785 C789 1.408 . S
C786 C784 1.363 . S
C786 C787 1.370 . S
C786 C790 1.524 . S
C787 C779 1.503 . S
C787 C786 1.370 . S
C787 C788 1.403 . S
C788 C787 1.403 . S
C788 C789 1.404 . S
C788 C791 1.539 . S
C789 C785 1.408 . S
C789 C788 1.404 . S
C789 H801 0.930 . S
C790 C786 1.524 . S
C790 H802 0.956 . S
C790 H803 0.961 . S
C790 H804 0.961 . S
C791 C788 1.539 . S
C791 H805 0.958 . S
C791 H806 0.961 . S
C791 H807 0.960 . S
H792 C776 0.931 . S
H793 C781 0.929 . S
H794 C782 0.960 . S
H795 C782 0.962 . S
H796 C782 0.960 . S
H797 C783 0.961 . S
H798 C783 0.961 . S
H799 C783 0.961 . S
H800 C784 0.931 . S
H801 C789 0.930 . S
H802 C790 0.956 . S
H803 C790 0.961 . S
H804 C790 0.961 . S
H805 C791 0.958 . S
H806 C791 0.961 . S
H807 C791 0.960 . S
C808 C809 1.391 . S
C808 C810 1.394 . S
C808 H824 0.931 . S
C809 C808 1.391 . S
C809 C813 1.376 . S
C810 C808 1.394 . S
C810 C811 1.369 1_554 S
C810 C814 1.531 . S
C811 C810 1.369 1_556 S
C811 C812 1.410 . S
C811 C819 1.503 . S
C812 C811 1.410 . S
C812 C813 1.392 1_556 S
C812 C815 1.511 . S
C813 C809 1.376 . S
C813 C812 1.392 1_554 S
C813 H825 0.929 . S
C814 C810 1.531 . S
C814 H826 0.960 1_554 S
C814 H827 0.962 . S
C814 H828 0.960 . S
C815 C812 1.511 . S
C815 H829 0.961 . S
C815 H830 0.961 . S
C815 H831 0.961 . S
C816 C817 1.370 . S
C816 C818 1.363 . S
C816 H832 0.931 . S
C817 C816 1.370 . S
C817 C821 1.408 . S
C818 C816 1.363 . S
C818 C819 1.370 . S
C818 C822 1.524 . S
C819 C811 1.503 . S
C819 C818 1.370 . S
C819 C820 1.403 . S
C820 C819 1.403 . S
C820 C821 1.404 . S
C820 C823 1.539 . S
C821 C817 1.408 . S
C821 C820 1.404 . S
C821 H833 0.930 . S
C822 C818 1.524 . S
C822 H834 0.956 . S
C822 H835 0.961 . S
C822 H836 0.961 . S
C823 C820 1.539 . S
C823 H837 0.958 . S
C823 H838 0.961 . S
C823 H839 0.960 . S
H824 C808 0.931 . S
H825 C813 0.929 . S
H826 C814 0.960 1_556 S
H827 C814 0.962 . S
H828 C814 0.960 . S
H829 C815 0.961 . S
H830 C815 0.961 . S
H831 C815 0.961 . S
H832 C816 0.931 . S
H833 C821 0.930 . S
H834 C822 0.956 . S
H835 C822 0.961 . S
H836 C822 0.961 . S
H837 C823 0.958 . S
H838 C823 0.961 . S
H839 C823 0.960 . S
C840 C841 1.391 . S
C840 C842 1.394 . S
C840 H856 0.931 . S
C841 C840 1.391 . S
C841 C845 1.376 . S
C842 C840 1.394 . S
C842 C843 1.369 . S
C842 C846 1.531 . S
C843 C842 1.369 . S
C843 C844 1.410 . S
C843 C851 1.503 . S
C844 C843 1.410 . S
C844 C845 1.392 . S
C844 C847 1.511 . S
C845 C841 1.376 . S
C845 C844 1.392 . S
C845 H857 0.929 . S
C846 C842 1.531 . S
C846 H858 0.960 . S
C846 H859 0.962 . S
C846 H860 0.960 . S
C847 C844 1.511 . S
C847 H861 0.961 . S
C847 H862 0.961 . S
C847 H863 0.961 . S
C848 C849 1.370 . S
C848 C850 1.363 . S
C848 H864 0.931 . S
C849 C848 1.370 . S
C849 C853 1.408 . S
C850 C848 1.363 . S
C850 C851 1.370 . S
C850 C854 1.524 . S
C851 C843 1.503 . S
C851 C850 1.370 . S
C851 C852 1.403 . S
C852 C851 1.403 . S
C852 C853 1.404 . S
C852 C855 1.539 . S
C853 C849 1.408 . S
C853 C852 1.404 . S
C853 H865 0.930 . S
C854 C850 1.524 . S
C854 H866 0.956 . S
C854 H867 0.961 . S
C854 H868 0.961 . S
C855 C852 1.539 . S
C855 H869 0.958 . S
C855 H870 0.961 . S
C855 H871 0.960 . S
H856 C840 0.931 . S
H857 C845 0.929 . S
H858 C846 0.960 . S
H859 C846 0.962 . S
H860 C846 0.960 . S
H861 C847 0.961 . S
H862 C847 0.961 . S
H863 C847 0.961 . S
H864 C848 0.931 . S
H865 C853 0.930 . S
H866 C854 0.956 . S
H867 C854 0.961 . S
H868 C854 0.961 . S
H869 C855 0.958 . S
H870 C855 0.961 . S
H871 C855 0.960 . S
C872 C873 1.391 . S
C872 C874 1.394 1_554 S
C872 H888 0.931 . S
C873 C872 1.391 . S
C873 C877 1.376 . S
C874 C872 1.394 1_556 S
C874 C875 1.369 . S
C874 C878 1.531 . S
C875 C874 1.369 . S
C875 C876 1.410 . S
C875 C883 1.503 . S
C876 C875 1.410 . S
C876 C877 1.392 1_556 S
C876 C879 1.511 . S
C877 C873 1.376 . S
C877 C876 1.392 1_554 S
C877 H889 0.929 . S
C878 C874 1.531 . S
C878 H890 0.960 . S
C878 H891 0.962 . S
C878 H892 0.960 . S
C879 C876 1.511 . S
C879 H893 0.936 1_556 S
C879 H894 0.961 . S
C879 H895 0.961 . S
C880 C881 1.370 . S
C880 C882 1.363 . S
C880 H896 0.931 . S
C881 C880 1.370 . S
C881 C885 1.408 . S
C882 C880 1.363 . S
C882 C883 1.370 . S
C882 C886 1.524 . S
C883 C875 1.503 . S
C883 C882 1.370 . S
C883 C884 1.403 . S
C884 C883 1.403 . S
C884 C885 1.404 . S
C884 C887 1.539 . S
C885 C881 1.408 . S
C885 C884 1.404 . S
C885 H897 0.930 . S
C886 C882 1.524 . S
C886 H898 0.956 . S
C886 H899 0.961 . S
C886 H900 0.961 . S
C887 C884 1.539 . S
C887 H901 0.958 . S
C887 H902 0.961 . S
C887 H903 0.960 . S
H888 C872 0.931 . S
H889 C877 0.929 . S
H890 C878 0.960 . S
H891 C878 0.962 . S
H892 C878 0.960 . S
H893 C879 0.936 1_554 S
H894 C879 0.961 . S
H895 C879 0.961 . S
H896 C880 0.931 . S
H897 C885 0.930 . S
H898 C886 0.956 . S
H899 C886 0.961 . S
H900 C886 0.961 . S
H901 C887 0.958 . S
H902 C887 0.961 . S
H903 C887 0.960 . S
C904 C905 1.391 . S
C904 C906 1.394 . S
C904 H920 0.931 . S
C905 C904 1.391 . S
C905 C909 1.376 . S
C906 C904 1.394 . S
C906 C907 1.369 . S
C906 C910 1.531 . S
C907 C906 1.369 . S
C907 C908 1.410 . S
C907 C915 1.503 . S
C908 C907 1.410 . S
C908 C909 1.392 . S
C908 C911 1.511 . S
C909 C905 1.376 . S
C909 C908 1.392 . S
C909 H921 0.929 . S
C910 C906 1.531 . S
C910 H922 0.960 . S
C910 H923 0.962 . S
C910 H924 0.960 . S
C911 C908 1.511 . S
C911 H925 0.961 . S
C911 H926 0.961 . S
C911 H927 0.961 . S
C912 C913 1.370 . S
C912 C914 1.363 . S
C912 H928 0.931 . S
C913 C912 1.370 . S
C913 C917 1.408 . S
C914 C912 1.363 . S
C914 C915 1.370 . S
C914 C918 1.524 . S
C915 C907 1.503 . S
C915 C914 1.370 . S
C915 C916 1.403 . S
C916 C915 1.403 . S
C916 C917 1.404 . S
C916 C919 1.539 . S
C917 C913 1.408 . S
C917 C916 1.404 . S
C917 H929 0.930 . S
C918 C914 1.524 . S
C918 H930 0.956 . S
C918 H931 0.961 . S
C918 H932 0.961 . S
C919 C916 1.539 . S
C919 H933 0.958 . S
C919 H934 0.961 . S
C919 H935 0.960 . S
H920 C904 0.931 . S
H921 C909 0.929 . S
H922 C910 0.960 . S
H923 C910 0.962 . S
H924 C910 0.960 . S
H925 C911 0.961 . S
H926 C911 0.961 . S
H927 C911 0.961 . S
H928 C912 0.931 . S
H929 C917 0.930 . S
H930 C918 0.956 . S
H931 C918 0.961 . S
H932 C918 0.961 . S
H933 C919 0.958 . S
H934 C919 0.961 . S
H935 C919 0.960 . S
C936 C937 1.391 . S
C936 C938 1.394 . S
C936 H952 0.931 . S
C937 C936 1.391 . S
C937 C941 1.376 . S
C938 C936 1.394 . S
C938 C939 1.369 1_556 S
C938 C942 1.531 . S
C939 C938 1.369 1_554 S
C939 C940 1.410 . S
C939 C947 1.503 . S
C940 C939 1.410 . S
C940 C941 1.392 1_554 S
C940 C943 1.511 . S
C941 C937 1.376 . S
C941 C940 1.392 1_556 S
C941 H953 0.929 . S
C942 C938 1.531 . S
C942 H954 0.960 1_556 S
C942 H955 0.962 . S
C942 H956 0.960 . S
C943 C940 1.511 . S
C943 H957 0.961 . S
C943 H958 0.961 . S
C943 H959 0.961 . S
C944 C945 1.370 . S
C944 C946 1.363 . S
C944 H960 0.931 . S
C945 C944 1.370 . S
C945 C949 1.408 . S
C946 C944 1.363 . S
C946 C947 1.370 . S
C946 C950 1.524 . S
C947 C939 1.503 . S
C947 C946 1.370 . S
C947 C948 1.403 . S
C948 C947 1.403 . S
C948 C949 1.404 . S
C948 C951 1.539 . S
C949 C945 1.408 . S
C949 C948 1.404 . S
C949 H961 0.930 . S
C950 C946 1.524 . S
C950 H962 0.956 . S
C950 H963 0.961 . S
C950 H964 0.961 . S
C951 C948 1.539 . S
C951 H965 0.958 . S
C951 H966 0.961 . S
C951 H967 0.960 . S
H952 C936 0.931 . S
H953 C941 0.929 . S
H954 C942 0.960 1_554 S
H955 C942 0.962 . S
H956 C942 0.960 . S
H957 C943 0.961 . S
H958 C943 0.961 . S
H959 C943 0.961 . S
H960 C944 0.931 . S
H961 C949 0.930 . S
H962 C950 0.956 . S
H963 C950 0.961 . S
H964 C950 0.961 . S
H965 C951 0.958 . S
H966 C951 0.961 . S
H967 C951 0.960 . S
C968 C969 1.391 . S
C968 C970 1.394 . S
C968 H984 0.931 . S
C969 C968 1.391 . S
C969 C973 1.376 . S
C970 C968 1.394 . S
C970 C971 1.369 . S
C970 C974 1.531 . S
C971 C970 1.369 . S
C971 C972 1.410 . S
C971 C979 1.503 . S
C972 C971 1.410 . S
C972 C973 1.392 . S
C972 C975 1.511 . S
C973 C969 1.376 . S
C973 C972 1.392 . S
C973 H985 0.929 . S
C974 C970 1.531 . S
C974 H986 0.960 . S
C974 H987 0.962 . S
C974 H988 0.960 . S
C975 C972 1.511 . S
C975 H989 0.961 . S
C975 H990 0.961 . S
C975 H991 0.961 . S
C976 C977 1.370 . S
C976 C978 1.363 . S
C976 H992 0.931 . S
C977 C976 1.370 . S
C977 C981 1.408 . S
C978 C976 1.363 . S
C978 C979 1.370 . S
C978 C982 1.524 . S
C979 C971 1.503 . S
C979 C978 1.370 . S
C979 C980 1.403 . S
C980 C979 1.403 . S
C980 C981 1.404 . S
C980 C983 1.539 . S
C981 C977 1.408 . S
C981 C980 1.404 . S
C981 H993 0.930 . S
C982 C978 1.524 . S
C982 H994 0.956 . S
C982 H995 0.961 . S
C982 H996 0.961 . S
C983 C980 1.539 . S
C983 H997 0.958 . S
C983 H998 0.961 . S
C983 H999 0.960 . S
H984 C968 0.931 . S
H985 C973 0.929 . S
H986 C974 0.960 . S
H987 C974 0.962 . S
H988 C974 0.960 . S
H989 C975 0.961 . S
H990 C975 0.961 . S
H991 C975 0.961 . S
H992 C976 0.931 . S
H993 C981 0.930 . S
H994 C982 0.956 . S
H995 C982 0.961 . S
H996 C982 0.961 . S
H997 C983 0.958 . S
H998 C983 0.961 . S
H999 C983 0.960 . S
C1000 C1001 1.391 . S
C1000 C1002 1.394 . S
C1000 H1016 0.931 . S
C1001 C1000 1.391 . S
C1001 C1005 1.376 . S
C1002 C1000 1.394 . S
C1002 C1003 1.369 . S
C1002 C1006 1.531 . S
C1003 C1002 1.369 . S
C1003 C1004 1.410 . S
C1003 C1011 1.503 . S
C1004 C1003 1.410 . S
C1004 C1005 1.392 . S
C1004 C1007 1.511 . S
C1005 C1001 1.376 . S
C1005 C1004 1.392 . S
C1005 H1017 0.929 . S
C1006 C1002 1.531 . S
C1006 H1018 0.960 . S
C1006 H1019 0.962 . S
C1006 H1020 0.960 . S
C1007 C1004 1.511 . S
C1007 H1021 0.961 . S
C1007 H1022 0.961 . S
C1007 H1023 0.961 . S
C1008 C1009 1.370 . S
C1008 C1010 1.363 . S
C1008 H1024 0.931 . S
C1009 C1008 1.370 . S
C1009 C1013 1.408 . S
C1010 C1008 1.363 . S
C1010 C1011 1.370 . S
C1010 C1014 1.524 . S
C1011 C1003 1.503 . S
C1011 C1010 1.370 . S
C1011 C1012 1.403 . S
C1012 C1011 1.403 . S
C1012 C1013 1.404 . S
C1012 C1015 1.539 . S
C1013 C1009 1.408 . S
C1013 C1012 1.404 . S
C1013 H1025 0.930 . S
C1014 C1010 1.524 . S
C1014 H1026 0.956 . S
C1014 H1027 0.961 . S
C1014 H1028 0.961 . S
C1015 C1012 1.539 . S
C1015 H1029 0.958 . S
C1015 H1030 0.961 . S
C1015 H1031 0.960 . S
H1016 C1000 0.931 . S
H1017 C1005 0.929 . S
H1018 C1006 0.960 . S
H1019 C1006 0.962 . S
H1020 C1006 0.960 . S
H1021 C1007 0.961 . S
H1022 C1007 0.961 . S
H1023 C1007 0.961 . S
H1024 C1008 0.931 . S
H1025 C1013 0.930 . S
H1026 C1014 0.956 . S
H1027 C1014 0.961 . S
H1028 C1014 0.961 . S
H1029 C1015 0.958 . S
H1030 C1015 0.961 . S
H1031 C1015 0.960 . S
C1032 C1033 1.391 . S
C1032 C1034 1.394 . S
C1032 H1048 0.931 . S
C1033 C1032 1.391 . S
C1033 C1037 1.376 . S
C1034 C1032 1.394 . S
C1034 C1035 1.369 . S
C1034 C1038 1.531 . S
C1035 C1034 1.369 . S
C1035 C1036 1.410 . S
C1035 C1043 1.503 . S
C1036 C1035 1.410 . S
C1036 C1037 1.392 . S
C1036 C1039 1.511 . S
C1037 C1033 1.376 . S
C1037 C1036 1.392 . S
C1037 H1049 0.929 . S
C1038 C1034 1.531 . S
C1038 H1050 0.960 . S
C1038 H1051 0.962 . S
C1038 H1052 0.960 . S
C1039 C1036 1.511 . S
C1039 H1053 0.961 . S
C1039 H1054 0.961 . S
C1039 H1055 0.961 . S
C1040 C1041 1.370 . S
C1040 C1042 1.363 . S
C1040 H1056 0.931 . S
C1041 C1040 1.370 . S
C1041 C1045 1.408 . S
C1042 C1040 1.363 . S
C1042 C1043 1.370 . S
C1042 C1046 1.524 . S
C1043 C1035 1.503 . S
C1043 C1042 1.370 . S
C1043 C1044 1.403 . S
C1044 C1043 1.403 . S
C1044 C1045 1.404 . S
C1044 C1047 1.539 . S
C1045 C1041 1.408 . S
C1045 C1044 1.404 . S
C1045 H1057 0.930 . S
C1046 C1042 1.524 . S
C1046 H1058 0.956 . S
C1046 H1059 0.961 . S
C1046 H1060 0.961 . S
C1047 C1044 1.539 . S
C1047 H1061 0.958 . S
C1047 H1062 0.961 . S
C1047 H1063 0.960 . S
H1048 C1032 0.931 . S
H1049 C1037 0.929 . S
H1050 C1038 0.960 . S
H1051 C1038 0.962 . S
H1052 C1038 0.960 . S
H1053 C1039 0.961 . S
H1054 C1039 0.961 . S
H1055 C1039 0.961 . S
H1056 C1040 0.931 . S
H1057 C1045 0.930 . S
H1058 C1046 0.956 . S
H1059 C1046 0.961 . S
H1060 C1046 0.961 . S
H1061 C1047 0.958 . S
H1062 C1047 0.961 . S
H1063 C1047 0.960 . S
C1064 C1065 1.391 . S
C1064 C1066 1.394 . S
C1064 H1080 0.931 . S
C1065 C1064 1.391 . S
C1065 C1069 1.376 . S
C1066 C1064 1.394 . S
C1066 C1067 1.369 . S
C1066 C1070 1.531 . S
C1067 C1066 1.369 . S
C1067 C1068 1.410 . S
C1067 C1075 1.503 . S
C1068 C1067 1.410 . S
C1068 C1069 1.392 . S
C1068 C1071 1.511 . S
C1069 C1065 1.376 . S
C1069 C1068 1.392 . S
C1069 H1081 0.929 . S
C1070 C1066 1.531 . S
C1070 H1082 0.960 . S
C1070 H1083 0.962 . S
C1070 H1084 0.960 . S
C1071 C1068 1.511 . S
C1071 H1085 0.961 . S
C1071 H1086 0.961 . S
C1071 H1087 0.961 . S
C1072 C1073 1.370 . S
C1072 C1074 1.363 . S
C1072 H1088 0.931 . S
C1073 C1072 1.370 . S
C1073 C1077 1.408 . S
C1074 C1072 1.363 . S
C1074 C1075 1.370 . S
C1074 C1078 1.524 . S
C1075 C1067 1.503 . S
C1075 C1074 1.370 . S
C1075 C1076 1.403 . S
C1076 C1075 1.403 . S
C1076 C1077 1.404 . S
C1076 C1079 1.539 . S
C1077 C1073 1.408 . S
C1077 C1076 1.404 . S
C1077 H1089 0.930 . S
C1078 C1074 1.524 . S
C1078 H1090 0.956 . S
C1078 H1091 0.961 . S
C1078 H1092 0.961 . S
C1079 C1076 1.539 . S
C1079 H1093 0.958 . S
C1079 H1094 0.961 . S
C1079 H1095 0.960 . S
H1080 C1064 0.931 . S
H1081 C1069 0.929 . S
H1082 C1070 0.960 . S
H1083 C1070 0.962 . S
H1084 C1070 0.960 . S
H1085 C1071 0.961 . S
H1086 C1071 0.961 . S
H1087 C1071 0.961 . S
H1088 C1072 0.931 . S
H1089 C1077 0.930 . S
H1090 C1078 0.956 . S
H1091 C1078 0.961 . S
H1092 C1078 0.961 . S
H1093 C1079 0.958 . S
H1094 C1079 0.961 . S
H1095 C1079 0.960 . S
C1096 C1097 1.391 . S
C1096 C1098 1.394 . S
C1096 H1112 0.931 . S
C1097 C1096 1.391 . S
C1097 C1101 1.376 . S
C1098 C1096 1.394 . S
C1098 C1099 1.369 . S
C1098 C1102 1.531 . S
C1099 C1098 1.369 . S
C1099 C1100 1.410 . S
C1099 C1107 1.503 . S
C1100 C1099 1.410 . S
C1100 C1101 1.392 . S
C1100 C1103 1.511 . S
C1101 C1097 1.376 . S
C1101 C1100 1.392 . S
C1101 H1113 0.929 . S
C1102 C1098 1.531 . S
C1102 H1114 0.960 . S
C1102 H1115 0.962 . S
C1102 H1116 0.960 . S
C1103 C1100 1.511 . S
C1103 H1117 0.961 . S
C1103 H1118 0.961 . S
C1103 H1119 0.961 . S
C1104 C1105 1.370 . S
C1104 C1106 1.363 . S
C1104 H1120 0.931 . S
C1105 C1104 1.370 . S
C1105 C1109 1.408 . S
C1106 C1104 1.363 . S
C1106 C1107 1.370 . S
C1106 C1110 1.524 . S
C1107 C1099 1.503 . S
C1107 C1106 1.370 . S
C1107 C1108 1.403 . S
C1108 C1107 1.403 . S
C1108 C1109 1.404 . S
C1108 C1111 1.539 . S
C1109 C1105 1.408 . S
C1109 C1108 1.404 . S
C1109 H1121 0.930 . S
C1110 C1106 1.524 . S
C1110 H1122 0.956 . S
C1110 H1123 0.961 . S
C1110 H1124 0.961 . S
C1111 C1108 1.539 . S
C1111 H1125 0.958 . S
C1111 H1126 0.961 . S
C1111 H1127 0.960 . S
H1112 C1096 0.931 . S
H1113 C1101 0.929 . S
H1114 C1102 0.960 . S
H1115 C1102 0.962 . S
H1116 C1102 0.960 . S
H1117 C1103 0.961 . S
H1118 C1103 0.961 . S
H1119 C1103 0.961 . S
H1120 C1104 0.931 . S
H1121 C1109 0.930 . S
H1122 C1110 0.956 . S
H1123 C1110 0.961 . S
H1124 C1110 0.961 . S
H1125 C1111 0.958 . S
H1126 C1111 0.961 . S
H1127 C1111 0.960 . S
C1128 C1129 1.391 . S
C1128 C1130 1.394 . S
C1128 H1144 0.931 . S
C1129 C1128 1.391 . S
C1129 C1133 1.376 . S
C1130 C1128 1.394 . S
C1130 C1131 1.369 . S
C1130 C1134 1.531 . S
C1131 C1130 1.369 . S
C1131 C1132 1.410 . S
C1131 C1139 1.503 . S
C1132 C1131 1.410 . S
C1132 C1133 1.392 . S
C1132 C1135 1.511 . S
C1133 C1129 1.376 . S
C1133 C1132 1.392 . S
C1133 H1145 0.929 . S
C1134 C1130 1.531 . S
C1134 H1146 0.960 . S
C1134 H1147 0.962 . S
C1134 H1148 0.960 . S
C1135 C1132 1.511 . S
C1135 H1149 0.961 . S
C1135 H1150 0.961 . S
C1135 H1151 0.961 . S
C1136 C1137 1.370 . S
C1136 C1138 1.363 . S
C1136 H1152 0.931 . S
C1137 C1136 1.370 . S
C1137 C1141 1.408 . S
C1138 C1136 1.363 . S
C1138 C1139 1.370 . S
C1138 C1142 1.524 . S
C1139 C1131 1.503 . S
C1139 C1138 1.370 . S
C1139 C1140 1.403 . S
C1140 C1139 1.403 . S
C1140 C1141 1.404 . S
C1140 C1143 1.539 . S
C1141 C1137 1.408 . S
C1141 C1140 1.404 . S
C1141 H1153 0.930 . S
C1142 C1138 1.524 . S
C1142 H1154 0.956 . S
C1142 H1155 0.961 . S
C1142 H1156 0.961 . S
C1143 C1140 1.539 . S
C1143 H1157 0.958 . S
C1143 H1158 0.961 . S
C1143 H1159 0.960 . S
H1144 C1128 0.931 . S
H1145 C1133 0.929 . S
H1146 C1134 0.960 . S
H1147 C1134 0.962 . S
H1148 C1134 0.960 . S
H1149 C1135 0.961 . S
H1150 C1135 0.961 . S
H1151 C1135 0.961 . S
H1152 C1136 0.931 . S
H1153 C1141 0.930 . S
H1154 C1142 0.956 . S
H1155 C1142 0.961 . S
H1156 C1142 0.961 . S
H1157 C1143 0.958 . S
H1158 C1143 0.961 . S
H1159 C1143 0.960 . S
C1160 C1161 1.391 . S
C1160 C1162 1.394 . S
C1160 H1176 0.931 . S
C1161 C1160 1.391 . S
C1161 C1165 1.376 . S
C1162 C1160 1.394 . S
C1162 C1163 1.369 . S
C1162 C1166 1.531 . S
C1163 C1162 1.369 . S
C1163 C1164 1.410 . S
C1163 C1171 1.503 . S
C1164 C1163 1.410 . S
C1164 C1165 1.392 . S
C1164 C1167 1.511 . S
C1165 C1161 1.376 . S
C1165 C1164 1.392 . S
C1165 H1177 0.929 . S
C1166 C1162 1.531 . S
C1166 H1178 0.960 . S
C1166 H1179 0.962 . S
C1166 H1180 0.960 . S
C1167 C1164 1.511 . S
C1167 H1181 0.961 . S
C1167 H1182 0.961 . S
C1167 H1183 0.961 . S
C1168 C1169 1.370 . S
C1168 C1170 1.363 . S
C1168 H1184 0.931 . S
C1169 C1168 1.370 . S
C1169 C1173 1.408 . S
C1170 C1168 1.363 . S
C1170 C1171 1.370 . S
C1170 C1174 1.524 . S
C1171 C1163 1.503 . S
C1171 C1170 1.370 . S
C1171 C1172 1.403 . S
C1172 C1171 1.403 . S
C1172 C1173 1.404 . S
C1172 C1175 1.539 . S
C1173 C1169 1.408 . S
C1173 C1172 1.404 . S
C1173 H1185 0.930 . S
C1174 C1170 1.524 . S
C1174 H1186 0.956 . S
C1174 H1187 0.961 . S
C1174 H1188 0.961 . S
C1175 C1172 1.539 . S
C1175 H1189 0.958 . S
C1175 H1190 0.961 . S
C1175 H1191 0.960 . S
H1176 C1160 0.931 . S
H1177 C1165 0.929 . S
H1178 C1166 0.960 . S
H1179 C1166 0.962 . S
H1180 C1166 0.960 . S
H1181 C1167 0.961 . S
H1182 C1167 0.961 . S
H1183 C1167 0.961 . S
H1184 C1168 0.931 . S
H1185 C1173 0.930 . S
H1186 C1174 0.956 . S
H1187 C1174 0.961 . S
H1188 C1174 0.961 . S
H1189 C1175 0.958 . S
H1190 C1175 0.961 . S
H1191 C1175 0.960 . S
C1192 C1193 1.391 . S
C1192 C1194 1.394 . S
C1192 H1208 0.931 . S
C1193 C1192 1.391 . S
C1193 C1197 1.376 . S
C1194 C1192 1.394 . S
C1194 C1195 1.369 . S
C1194 C1198 1.531 . S
C1195 C1194 1.369 . S
C1195 C1196 1.410 . S
C1195 C1203 1.503 . S
C1196 C1195 1.410 . S
C1196 C1197 1.392 . S
C1196 C1199 1.511 . S
C1197 C1193 1.376 . S
C1197 C1196 1.392 . S
C1197 H1209 0.929 . S
C1198 C1194 1.531 . S
C1198 H1210 0.960 . S
C1198 H1211 0.962 . S
C1198 H1212 0.960 . S
C1199 C1196 1.511 . S
C1199 H1213 0.961 . S
C1199 H1214 0.961 . S
C1199 H1215 0.961 . S
C1200 C1201 1.370 . S
C1200 C1202 1.363 . S
C1200 H1216 0.931 . S
C1201 C1200 1.370 . S
C1201 C1205 1.408 . S
C1202 C1200 1.363 . S
C1202 C1203 1.370 . S
C1202 C1206 1.524 . S
C1203 C1195 1.503 . S
C1203 C1202 1.370 . S
C1203 C1204 1.403 . S
C1204 C1203 1.403 . S
C1204 C1205 1.404 . S
C1204 C1207 1.539 . S
C1205 C1201 1.408 . S
C1205 C1204 1.404 . S
C1205 H1217 0.930 . S
C1206 C1202 1.524 . S
C1206 H1218 0.956 . S
C1206 H1219 0.961 . S
C1206 H1220 0.961 . S
C1207 C1204 1.539 . S
C1207 H1221 0.958 . S
C1207 H1222 0.961 . S
C1207 H1223 0.960 . S
H1208 C1192 0.931 . S
H1209 C1197 0.929 . S
H1210 C1198 0.960 . S
H1211 C1198 0.962 . S
H1212 C1198 0.960 . S
H1213 C1199 0.961 . S
H1214 C1199 0.961 . S
H1215 C1199 0.961 . S
H1216 C1200 0.931 . S
H1217 C1205 0.930 . S
H1218 C1206 0.956 . S
H1219 C1206 0.961 . S
H1220 C1206 0.961 . S
H1221 C1207 0.958 . S
H1222 C1207 0.961 . S
H1223 C1207 0.960 . S
C1224 C1225 1.391 . S
C1224 C1226 1.394 . S
C1224 H1240 0.931 . S
C1225 C1224 1.391 . S
C1225 C1229 1.376 . S
C1226 C1224 1.394 . S
C1226 C1227 1.369 . S
C1226 C1230 1.531 . S
C1227 C1226 1.369 . S
C1227 C1228 1.410 . S
C1227 C1235 1.503 . S
C1228 C1227 1.410 . S
C1228 C1229 1.392 . S
C1228 C1231 1.511 . S
C1229 C1225 1.376 . S
C1229 C1228 1.392 . S
C1229 H1241 0.929 . S
C1230 C1226 1.531 . S
C1230 H1242 0.960 . S
C1230 H1243 0.962 . S
C1230 H1244 0.960 . S
C1231 C1228 1.511 . S
C1231 H1245 0.961 . S
C1231 H1246 0.961 . S
C1231 H1247 0.961 . S
C1232 C1233 1.370 . S
C1232 C1234 1.363 . S
C1232 H1248 0.931 . S
C1233 C1232 1.370 . S
C1233 C1237 1.408 . S
C1234 C1232 1.363 . S
C1234 C1235 1.370 . S
C1234 C1238 1.524 . S
C1235 C1227 1.503 . S
C1235 C1234 1.370 . S
C1235 C1236 1.403 . S
C1236 C1235 1.403 . S
C1236 C1237 1.404 . S
C1236 C1239 1.539 . S
C1237 C1233 1.408 . S
C1237 C1236 1.404 . S
C1237 H1249 0.930 . S
C1238 C1234 1.524 . S
C1238 H1250 0.956 . S
C1238 H1251 0.961 . S
C1238 H1252 0.961 . S
C1239 C1236 1.539 . S
C1239 H1253 0.958 . S
C1239 H1254 0.961 . S
C1239 H1255 0.960 . S
H1240 C1224 0.931 . S
H1241 C1229 0.929 . S
H1242 C1230 0.960 . S
H1243 C1230 0.962 . S
H1244 C1230 0.960 . S
H1245 C1231 0.961 . S
H1246 C1231 0.961 . S
H1247 C1231 0.961 . S
H1248 C1232 0.931 . S
H1249 C1237 0.930 . S
H1250 C1238 0.956 . S
H1251 C1238 0.961 . S
H1252 C1238 0.961 . S
H1253 C1239 0.958 . S
H1254 C1239 0.961 . S
H1255 C1239 0.960 . S
C489 C116 1.817 . S
C497 C226 1.810 . S
C529 C310 1.804 . S
C521 C135 1.822 . S
C561 C303 1.814 . S
C553 C78 1.794 . S
C585 C97 1.801 . S
C593 C219 1.819 . S
C625 C383 1.809 . S
C617 C40 1.809 . S
C657 C467 1.804 . S
C649 C59 1.823 . S
C681 C2 1.798 . S
C689 C460 1.813 . S
C713 C21 1.819 . S
C721 C376 1.810 . S
C753 C210 1.572 . S
C745 C25 1.729 . S
C785 C294 1.586 . S
C777 C6 1.737 . S
C817 C305 1.492 . S
C809 C63 1.733 . S
C849 C221 1.477 . S
C841 C44 1.738 . S
C881 C389 1.556 . S
C873 C101 1.743 . S
C905 C82 1.737 . S
C913 C473 1.573 . S
C945 C462 1.456 . S
C937 C139 1.738 . S
C969 C120 1.740 . S
C977 C378 1.454 . S
C1009 C208 1.522 . S
C1001 C11 1.411 . S
C1041 C292 1.523 . S
C1033 C30 1.410 . S
C1065 C49 1.403 . S
C1073 C299 1.498 . S
C1105 C215 1.485 . S
C1097 C68 1.474 . S
C1137 C387 1.519 . S
C1129 C87 1.366 . S
C1161 C106 1.395 . S
C1169 C471 1.521 . S
C1193 C125 1.416 . S
C1201 C478 1.495 . S
C1225 C144 1.393 . S
C1233 C394 1.498 . S
