# Generated by pormake.
# Topology pto, (3,4)-cn, num edge types: 1
# Building blocks:
#     Node 0, Type 0, BuildingBlock: QEWDON_clean_linker_0, # of connection points: 3
#     Node 1, Type 0, BuildingBlock: QEWDON_clean_linker_0, # of connection points: 3
#     Node 2, Type 0, BuildingBlock: QEWDON_clean_linker_0, # of connection points: 3
#     Node 3, Type 0, BuildingBlock: QEWDON_clean_linker_0, # of connection points: 3
#     Node 4, Type 0, BuildingBlock: QEWDON_clean_linker_0, # of connection points: 3
#     Node 5, Type 0, BuildingBlock: QEWDON_clean_linker_0, # of connection points: 3
#     Node 6, Type 0, BuildingBlock: QEWDON_clean_linker_0, # of connection points: 3
#     Node 7, Type 0, BuildingBlock: QEWDON_clean_linker_0, # of connection points: 3
#     Node 8, Type 1, BuildingBlock: KOZSID_clean_sbu_0, # of connection points: 4
#     Node 9, Type 1, BuildingBlock: KOZSID_clean_sbu_0, # of connection points: 4
#     Node 10, Type 1, BuildingBlock: KOZSID_clean_sbu_0, # of connection points: 4
#     Node 11, Type 1, BuildingBlock: KOZSID_clean_sbu_0, # of connection points: 4
#     Node 12, Type 1, BuildingBlock: KOZSID_clean_sbu_0, # of connection points: 4
#     Node 13, Type 1, BuildingBlock: KOZSID_clean_sbu_0, # of connection points: 4
#     Edge 14, Type (0, 1), BuildingBlock: KIFKEQ_clean_linker_1, # of connection points: 2
#     Edge 15, Type (0, 1), BuildingBlock: KIFKEQ_clean_linker_1, # of connection points: 2
#     Edge 16, Type (0, 1), BuildingBlock: KIFKEQ_clean_linker_1, # of connection points: 2
#     Edge 17, Type (0, 1), BuildingBlock: KIFKEQ_clean_linker_1, # of connection points: 2
#     Edge 18, Type (0, 1), BuildingBlock: KIFKEQ_clean_linker_1, # of connection points: 2
#     Edge 19, Type (0, 1), BuildingBlock: KIFKEQ_clean_linker_1, # of connection points: 2
#     Edge 20, Type (0, 1), BuildingBlock: KIFKEQ_clean_linker_1, # of connection points: 2
#     Edge 21, Type (0, 1), BuildingBlock: KIFKEQ_clean_linker_1, # of connection points: 2
#     Edge 22, Type (0, 1), BuildingBlock: KIFKEQ_clean_linker_1, # of connection points: 2
#     Edge 23, Type (0, 1), BuildingBlock: KIFKEQ_clean_linker_1, # of connection points: 2
#     Edge 24, Type (0, 1), BuildingBlock: KIFKEQ_clean_linker_1, # of connection points: 2
#     Edge 25, Type (0, 1), BuildingBlock: KIFKEQ_clean_linker_1, # of connection points: 2
#     Edge 26, Type (0, 1), BuildingBlock: KIFKEQ_clean_linker_1, # of connection points: 2
#     Edge 27, Type (0, 1), BuildingBlock: KIFKEQ_clean_linker_1, # of connection points: 2
#     Edge 28, Type (0, 1), BuildingBlock: KIFKEQ_clean_linker_1, # of connection points: 2
#     Edge 29, Type (0, 1), BuildingBlock: KIFKEQ_clean_linker_1, # of connection points: 2
#     Edge 30, Type (0, 1), BuildingBlock: KIFKEQ_clean_linker_1, # of connection points: 2
#     Edge 31, Type (0, 1), BuildingBlock: KIFKEQ_clean_linker_1, # of connection points: 2
#     Edge 32, Type (0, 1), BuildingBlock: KIFKEQ_clean_linker_1, # of connection points: 2
#     Edge 33, Type (0, 1), BuildingBlock: KIFKEQ_clean_linker_1, # of connection points: 2
#     Edge 34, Type (0, 1), BuildingBlock: KIFKEQ_clean_linker_1, # of connection points: 2
#     Edge 35, Type (0, 1), BuildingBlock: KIFKEQ_clean_linker_1, # of connection points: 2
#     Edge 36, Type (0, 1), BuildingBlock: KIFKEQ_clean_linker_1, # of connection points: 2
#     Edge 37, Type (0, 1), BuildingBlock: KIFKEQ_clean_linker_1, # of connection points: 2
# Relax obj value: 0.016
# Max RMSD: 0.201
# Mean RMSD: 0.077
data_MOF--net-pto--node1-KOZSID_clean_sbu_0--node2-QEWDON_clean_linker_0--edge1-KIFKEQ_clean_linker_1
_symmetry_space_group_name_H-M    P1
_symmetry_Int_Tables_number       1
_symmetry_cell_setting            triclinic
loop_
_symmetry_equiv_pos_as_xyz
'x, y, z'
_cell_length_a     34.324782
_cell_length_b     52.834269
_cell_length_c     47.849902
_cell_angle_alpha  92.450861
_cell_angle_beta   110.11191
_cell_angle_gamma 103.56992
loop_
_atom_site_label
_atom_site_type_symbol
_atom_site_fract_x
_atom_site_fract_y
_atom_site_fract_z
_atom_type_partial_charge
H0 H 0.28724 0.30668 0.28836 0.0
C1 C 0.27996 0.287 0.29426 0.0
C2 C 0.27812 0.26531 0.27517 0.0
C3 C 0.27428 0.28347 0.32165 0.0
H4 H 0.26887 0.2232 0.26952 0.0
C5 C 0.2694 0.23998 0.28361 0.0
C6 C 0.26292 0.23622 0.31071 0.0
C7 C 0.2653 0.25807 0.32949 0.0
C8 C 0.28135 0.30619 0.34365 0.0
H9 H 0.2617 0.25546 0.35091 0.0
C10 C 0.25693 0.32461 0.33635 0.0
C11 C 0.26136 0.34445 0.35868 0.0
C12 C 0.31137 0.30853 0.37297 0.0
H13 H 0.33069 0.29466 0.37898 0.0
C14 C 0.31652 0.3286 0.39484 0.0
H15 H 0.23331 0.32279 0.31392 0.0
C16 C 0.29139 0.34632 0.38786 0.0
H17 H 0.29536 0.36156 0.40528 0.0
H18 H 0.33963 0.33019 0.41738 0.0
H19 H 0.27996 0.82065 0.71615 0.0
C20 C 0.2624 0.80006 0.71119 0.0
C21 C 0.27653 0.78245 0.73107 0.0
C22 C 0.22347 0.79144 0.68641 0.0
H23 H 0.26283 0.74285 0.74135 0.0
C24 C 0.25246 0.75609 0.72537 0.0
C25 C 0.21401 0.74711 0.70042 0.0
C26 C 0.19998 0.76491 0.68092 0.0
C27 C 0.20399 0.81033 0.66819 0.0
H28 H 0.17 0.75832 0.66177 0.0
C29 C 0.22582 0.82698 0.65302 0.0
C30 C 0.20485 0.84314 0.63393 0.0
C31 C 0.16193 0.81083 0.66509 0.0
H32 H 0.14471 0.79837 0.67681 0.0
C33 C 0.14164 0.82732 0.64683 0.0
H34 H 0.25808 0.82653 0.65503 0.0
C35 C 0.16277 0.84324 0.63116 0.0
H36 H 0.14623 0.85574 0.61684 0.0
H37 H 0.10926 0.82756 0.64459 0.0
H38 H 0.90097 0.80258 0.42782 0.0
C39 C 0.8935 0.81076 0.40681 0.0
C40 C 0.90606 0.80179 0.38407 0.0
C41 C 0.87006 0.82964 0.40233 0.0
H42 H 0.90245 0.80406 0.33851 0.0
C43 C 0.89498 0.81208 0.35668 0.0
C44 C 0.87107 0.83086 0.35166 0.0
C45 C 0.85936 0.8399 0.37496 0.0
C46 C 0.85142 0.83546 0.42462 0.0
H47 H 0.84026 0.85397 0.37139 0.0
C48 C 0.86611 0.86005 0.44259 0.0
C49 C 0.84924 0.86445 0.46485 0.0
C50 C 0.81923 0.81559 0.42845 0.0
H51 H 0.80761 0.79656 0.41475 0.0
C52 C 0.80172 0.82008 0.44987 0.0
H53 H 0.89144 0.87526 0.43994 0.0
C54 C 0.81659 0.84428 0.46799 0.0
H55 H 0.80233 0.84726 0.48443 0.0
H56 H 0.77668 0.80471 0.45255 0.0
H57 H 0.85554 0.34365 0.94041 0.0
C58 C 0.8602 0.32755 0.92821 0.0
C59 C 0.86617 0.33072 0.90081 0.0
C60 C 0.86109 0.30374 0.94018 0.0
H61 H 0.87818 0.31225 0.86462 0.0
C62 C 0.87297 0.30986 0.88557 0.0
C63 C 0.87366 0.28601 0.89716 0.0
C64 C 0.86754 0.28299 0.92444 0.0
C65 C 0.85709 0.30073 0.96973 0.0
H66 H 0.86832 0.26462 0.93361 0.0
C67 C 0.82057 0.30405 0.97493 0.0
C68 C 0.81629 0.30016 0.00281 0.0
C69 C 0.88968 0.29387 0.99271 0.0
H70 H 0.91808 0.29126 0.98914 0.0
C71 C 0.88602 0.29049 0.02052 0.0
H72 H 0.79535 0.30927 0.95715 0.0
C73 C 0.84959 0.29352 0.02557 0.0
H74 H 0.84706 0.29003 0.0471 0.0
H75 H 0.9113 0.2852 0.03813 0.0
H76 H 0.97654 0.80481 0.84067 0.0
C77 C 0.95341 0.80742 0.85054 0.0
C78 C 0.92625 0.78534 0.85575 0.0
C79 C 0.9505 0.8328 0.85745 0.0
H80 H 0.87642 0.77177 0.87345 0.0
C81 C 0.89625 0.78881 0.86843 0.0
C82 C 0.89353 0.8142 0.87618 0.0
C83 C 0.92029 0.83607 0.87 0.0
C84 C 0.98012 0.85587 0.85236 0.0
H85 H 0.91831 0.85572 0.87552 0.0
C86 C 0.96422 0.87521 0.83618 0.0
C87 C 0.99241 0.89655 0.83036 0.0
C88 C 0.02458 0.85828 0.86319 0.0
H89 H 0.03758 0.84372 0.87587 0.0
C90 C 0.05272 0.87963 0.85802 0.0
H91 H 0.92984 0.8731 0.82724 0.0
C92 C 0.03684 0.89862 0.84168 0.0
H93 H 0.05941 0.91504 0.83804 0.0
H94 H 0.08696 0.88143 0.86662 0.0
H95 H 0.9012 0.32412 0.43572 0.0
C96 C 0.87063 0.322 0.41764 0.0
C97 C 0.85895 0.34441 0.4063 0.0
C98 C 0.84415 0.29672 0.40433 0.0
H99 H 0.8115 0.35803 0.37199 0.0
C100 C 0.82006 0.34108 0.38187 0.0
C101 C 0.79336 0.31595 0.36859 0.0
C102 C 0.80532 0.29385 0.38012 0.0
C103 C 0.86012 0.27335 0.41198 0.0
H104 H 0.78579 0.27434 0.36907 0.0
C105 C 0.86465 0.26412 0.43977 0.0
C106 C 0.87912 0.24137 0.44608 0.0
C107 C 0.87039 0.25993 0.39067 0.0
H108 H 0.86708 0.2668 0.36916 0.0
C109 C 0.8851 0.23763 0.39692 0.0
H110 H 0.85667 0.27448 0.45621 0.0
C111 C 0.88937 0.22834 0.42435 0.0
H112 H 0.89988 0.21058 0.42829 0.0
H113 H 0.89287 0.22736 0.38033 0.0
H114 H 0.25068 0.26714 0.72258 0.0
C115 C 0.22817 0.27909 0.71939 0.0
C116 C 0.21979 0.28827 0.74415 0.0
C117 C 0.21088 0.2875 0.69124 0.0
H118 H 0.18611 0.31202 0.75943 0.0
C119 C 0.19249 0.30489 0.74028 0.0
C120 C 0.17546 0.31374 0.71265 0.0
C121 C 0.18396 0.30454 0.688 0.0
C122 C 0.22589 0.28174 0.66659 0.0
H123 H 0.17165 0.31183 0.66675 0.0
C124 C 0.22819 0.25627 0.65856 0.0
C125 C 0.24482 0.25169 0.63623 0.0
C126 C 0.24008 0.30239 0.65183 0.0
H127 H 0.23946 0.32225 0.65786 0.0
C128 C 0.25635 0.29786 0.62968 0.0
H129 H 0.21743 0.24016 0.66975 0.0
C130 C 0.25887 0.27274 0.62196 0.0
H131 H 0.27138 0.26968 0.60453 0.0
H132 H 0.26729 0.31394 0.61856 0.0
H133 H 0.28714 0.83109 0.21034 0.0
C134 C 0.28035 0.81333 0.22033 0.0
C135 C 0.27491 0.81479 0.24807 0.0
C136 C 0.27351 0.78873 0.20441 0.0
H137 H 0.25899 0.79301 0.2813 0.0
C138 C 0.26424 0.79166 0.26026 0.0
C139 C 0.25863 0.76695 0.24511 0.0
C140 C 0.2632 0.76571 0.21703 0.0
C141 C 0.27169 0.7866 0.17306 0.0
H142 H 0.25824 0.74683 0.20466 0.0
C143 C 0.30807 0.79737 0.16586 0.0
C144 C 0.30555 0.79463 0.13577 0.0
C145 C 0.23277 0.77333 0.15008 0.0
H146 H 0.20442 0.76495 0.15521 0.0
C147 C 0.22996 0.7709 0.1203 0.0
H148 H 0.33818 0.80755 0.1836 0.0
C149 C 0.26602 0.7814 0.11314 0.0
H150 H 0.26319 0.77861 0.08989 0.0
H151 H 0.19982 0.76062 0.10272 0.0
C152 C 0.15582 0.60982 0.36524 0.0
C153 C 0.19707 0.62426 0.38331 0.0
C154 C 0.20306 0.61859 0.41178 0.0
C155 C 0.16544 0.60096 0.40949 0.0
N156 N 0.13595 0.59469 0.38115 0.0
Co157 Co 0.07682 0.56996 0.3677 0.0
N158 N 0.08527 0.56212 0.40977 0.0
C159 C 0.11999 0.57278 0.43496 0.0
C160 C 0.11751 0.56216 0.46014 0.0
C161 C 0.07935 0.54316 0.45037 0.0
C162 C 0.06071 0.54339 0.4197 0.0
N163 N 0.01773 0.54528 0.35434 0.0
C164 C 0.99953 0.5286 0.36983 0.0
C165 C 0.95826 0.51405 0.35207 0.0
C166 C 0.95055 0.52126 0.32403 0.0
C167 C 0.98736 0.53976 0.32635 0.0
N168 N 0.0684 0.57755 0.32557 0.0
C169 C 0.03292 0.5674 0.30064 0.0
C170 C 0.03581 0.57706 0.27513 0.0
C171 C 0.07531 0.59462 0.28426 0.0
C172 C 0.09451 0.59457 0.31499 0.0
N173 N 0.10005 0.54017 0.36103 0.0
C174 C 0.12965 0.49565 0.35435 0.0
C175 C 0.09276 0.49927 0.33249 0.0
C176 C 0.07875 0.52156 0.33619 0.0
C177 C 0.15223 0.51522 0.37902 0.0
C178 C 0.13696 0.53703 0.38193 0.0
N179 N 0.05349 0.59987 0.37439 0.0
C180 C 0.00147 0.62511 0.35668 0.0
C181 C 0.02306 0.64387 0.38214 0.0
C182 C 0.05973 0.64003 0.40393 0.0
C183 C 0.07409 0.61801 0.39972 0.0
C184 C 0.01711 0.60351 0.35327 0.0
H185 H 0.10213 0.61629 0.4172 0.0
H186 H 0.99945 0.59029 0.33313 0.0
H187 H 0.05015 0.52308 0.31896 0.0
H188 H 0.15525 0.5509 0.40153 0.0
C189 C 0.15641 0.59047 0.43361 0.0
C190 C 0.13645 0.61205 0.33341 0.0
C191 C 0.02143 0.52422 0.40044 0.0
C192 C 0.99621 0.55019 0.30219 0.0
H193 H 0.22017 0.63785 0.37666 0.0
H194 H 0.23123 0.62667 0.43185 0.0
H195 H 0.14157 0.56674 0.48264 0.0
H196 H 0.06739 0.52998 0.46403 0.0
H197 H 0.93674 0.49902 0.35849 0.0
H198 H 0.92233 0.51306 0.30403 0.0
H199 H 0.01154 0.5725 0.25271 0.0
H200 H 0.08785 0.60659 0.26991 0.0
H201 H 0.07402 0.48466 0.31298 0.0
H202 H 0.1816 0.51372 0.39623 0.0
H203 H 0.97309 0.62734 0.33901 0.0
H204 H 0.07722 0.65387 0.42427 0.0
C205 C 0.0766 0.56905 0.76011 0.0
C206 C 0.12014 0.5812 0.77476 0.0
C207 C 0.13164 0.57354 0.80265 0.0
C208 C 0.09466 0.55722 0.80341 0.0
N209 N 0.06027 0.55371 0.77755 0.0
Co210 Co 1.00004 0.53181 0.76886 0.0
N211 N 0.01595 0.52255 0.81087 0.0
C212 C 0.05479 0.53103 0.83347 0.0
C213 C 0.05613 0.52105 0.85962 0.0
C214 C 0.01588 0.50509 0.8534 0.0
C215 C 0.9921 0.50632 0.82366 0.0
N216 N 0.94009 0.5095 0.76004 0.0
C217 C 0.92364 0.4943 0.77756 0.0
C218 C 0.88039 0.48161 0.76259 0.0
C219 C 0.86928 0.48862 0.73438 0.0
C220 C 0.90617 0.50519 0.73378 0.0
N221 N 0.98401 0.54152 0.72709 0.0
C222 C 0.94506 0.53354 0.70462 0.0
C223 C 0.9435 0.54442 0.67888 0.0
C224 C 0.9837 0.56064 0.68541 0.0
C225 C 0.00744 0.55866 0.71486 0.0
N226 N 0.0157 0.50069 0.75557 0.0
C227 C 0.04229 0.45922 0.73528 0.0
C228 C 0.00326 0.46409 0.71841 0.0
C229 C 0.99073 0.48489 0.72887 0.0
C230 C 0.06678 0.47468 0.76293 0.0
C231 C 0.05286 0.49491 0.77266 0.0
N232 N 0.98467 0.56307 0.78199 0.0
C233 C 0.93632 0.59113 0.77426 0.0
C234 C 0.96647 0.60966 0.7981 0.0
C235 C 0.00517 0.60415 0.81431 0.0
C236 C 0.01334 0.58084 0.80615 0.0
C237 C 0.94614 0.56819 0.7665 0.0
H238 H 0.04339 0.57786 0.81953 0.0
H239 H 0.92239 0.55514 0.74759 0.0
H240 H 0.961 0.48796 0.71483 0.0
H241 H 0.07299 0.50571 0.79401 0.0
C242 C 0.0903 0.54671 0.8288 0.0
C243 C 0.05156 0.57421 0.73058 0.0
C244 C 0.94787 0.49057 0.80805 0.0
C245 C 0.91012 0.51677 0.70885 0.0
H246 H 0.14111 0.59479 0.76645 0.0
H247 H 0.16287 0.57983 0.82059 0.0
H248 H 0.08351 0.52433 0.88046 0.0
H249 H 0.00568 0.49338 0.86888 0.0
H250 H 0.85924 0.46837 0.7711 0.0
H251 H 0.83816 0.48217 0.71634 0.0
H252 H 0.91611 0.54139 0.65808 0.0
H253 H 0.99424 0.57292 0.67045 0.0
H254 H 0.98307 0.45239 0.69693 0.0
H255 H 0.09673 0.47113 0.77715 0.0
H256 H 0.90588 0.59468 0.76108 0.0
H257 H 0.02916 0.61782 0.83328 0.0
C258 C 0.31624 0.99619 0.50966 0.0
C259 C 0.35713 0.9962 0.52884 0.0
C260 C 0.38531 0.01615 0.52296 0.0
C261 C 0.36015 0.0271 0.5006 0.0
N262 N 0.3175 0.0154 0.49181 0.0
Co263 Co 0.26953 0.02489 0.45972 0.0
N264 N 0.3112 0.05399 0.45083 0.0
C265 C 0.35463 0.06098 0.46407 0.0
C266 C 0.37455 0.08184 0.45341 0.0
C267 C 0.34194 0.08872 0.43215 0.0
C268 C 0.30386 0.07155 0.4311 0.0
N269 N 0.22152 0.03443 0.42774 0.0
C270 C 0.22276 0.05396 0.41034 0.0
C271 C 0.18189 0.05395 0.3911 0.0
C272 C 0.15371 0.03381 0.39668 0.0
C273 C 0.17887 0.02272 0.41888 0.0
N274 N 0.22785 0.9957 0.46847 0.0
C275 C 0.18442 0.98859 0.45504 0.0
C276 C 0.16439 0.96795 0.4659 0.0
C277 C 0.19689 0.96134 0.48751 0.0
C278 C 0.23511 0.97834 0.48847 0.0
N279 N 0.26514 0.0499 0.49007 0.0
C280 C 0.25824 0.08789 0.53029 0.0
C281 C 0.22191 0.06879 0.5112 0.0
C282 C 0.22603 0.05023 0.49144 0.0
C283 C 0.29828 0.08702 0.52949 0.0
C284 C 0.30099 0.06795 0.50958 0.0
N285 N 0.27386 1.0 0.42922 0.0
C286 C 0.23974 0.96548 0.38688 0.0
C287 C 0.27944 0.96522 0.38507 0.0
C288 C 0.31637 0.98261 0.40597 0.0
C289 C 0.31289 0.99958 0.42771 0.0
C290 C 0.23771 0.98287 0.4088 0.0
H291 H 0.34224 0.01221 0.44299 0.0
H292 H 0.20646 0.982 0.40879 0.0
H293 H 0.19699 0.03657 0.47725 0.0
H294 H 0.33239 0.0685 0.51003 0.0
C295 C 0.37567 0.04801 0.48704 0.0
C296 C 0.27735 0.97718 0.50883 0.0
C297 C 0.26158 0.0732 0.41155 0.0
C298 C 0.16333 0.00166 0.43222 0.0
H299 H 0.36572 0.98299 0.5452 0.0
H300 H 0.42005 0.02185 0.53354 0.0
H301 H 0.40869 0.09114 0.46051 0.0
H302 H 0.3457 0.10473 0.41911 0.0
H303 H 0.17336 0.06728 0.37487 0.0
H304 H 0.11898 0.02809 0.38604 0.0
H305 H 0.13022 0.95881 0.45894 0.0
H306 H 0.19284 0.94574 0.50103 0.0
H307 H 0.19019 0.06813 0.51132 0.0
H308 H 0.32751 0.10144 0.54354 0.0
H309 H 0.21016 0.95203 0.37172 0.0
H310 H 0.34793 0.98339 0.40547 0.0
C311 C 0.5722 0.85093 0.05398 0.0
C312 C 0.56397 0.87459 0.06035 0.0
C313 C 0.59175 0.89369 0.05301 0.0
C314 C 0.61519 0.88067 0.04256 0.0
N315 N 0.604 0.85435 0.04266 0.0
Co316 Co 0.63008 0.82797 0.02951 0.0
N317 N 0.67079 0.85611 0.01858 0.0
C318 C 0.67454 0.88224 0.02154 0.0
C319 C 0.70434 0.89654 0.0112 0.0
C320 C 0.72029 0.87844 1.00067 0.0
C321 C 0.6992 0.85407 0.00525 0.0
N322 N 0.65617 0.80158 0.01643 0.0
C323 C 0.68605 0.80479 0.0034 0.0
C324 C 0.69464 0.78119 0.99727 0.0
C325 C 0.66883 0.7623 0.00637 0.0
C326 C 0.64612 0.77538 0.01752 0.0
N327 N 0.5892 0.79977 0.04023 0.0
C328 C 0.58628 0.77371 0.03796 0.0
C329 C 0.5555 0.75923 0.0473 0.0
C330 C 0.53764 0.77706 0.05614 0.0
C331 C 0.5586 0.80151 0.05158 0.0
N332 N 0.58719 0.82331 0.98806 0.0
C333 C 0.52435 0.81649 0.9298 0.0
C334 C 0.53567 0.79496 0.94325 0.0
C335 C 0.56671 0.79877 0.97213 0.0
C336 C 0.54587 0.84156 0.94586 0.0
C337 C 0.57702 0.8445 0.97463 0.0
N338 N 0.67289 0.83269 0.07117 0.0
C339 C 0.70841 0.81421 0.11528 0.0
C340 C 0.72739 0.83913 0.13203 0.0
C341 C 0.71993 0.86085 0.11752 0.0
C342 C 0.69314 0.85722 0.08729 0.0
C343 C 0.68154 0.81146 0.08519 0.0
H344 H 0.68889 0.87459 0.07765 0.0
H345 H 0.66753 0.79191 0.07399 0.0
H346 H 0.57345 0.78154 0.98118 0.0
H347 H 0.59212 0.86409 0.98567 0.0
C348 C 0.64799 0.8926 0.03261 0.0
C349 C 0.54879 0.82578 0.05896 0.0
C350 C 0.7061 0.82952 0.99555 0.0
C351 C 0.61337 0.76343 0.02745 0.0
H352 H 0.54032 0.87771 0.06939 0.0
H353 H 0.59458 0.91458 0.05509 0.0
H354 H 0.71271 0.91754 0.0107 0.0
H355 H 0.74415 0.88263 0.99028 0.0
H356 H 0.71675 0.77793 0.98681 0.0
H357 H 0.66615 0.74142 0.0044 0.0
H358 H 0.54729 0.73824 0.04786 0.0
H359 H 0.51229 0.77259 0.06518 0.0
H360 H 0.52067 0.77513 0.93159 0.0
H361 H 0.5381 0.8589 0.93667 0.0
H362 H 0.7131 0.79674 0.12556 0.0
H363 H 0.73461 0.88061 0.12945 0.0
C364 C 0.94679 0.06315 0.7177 0.0
C365 C 0.98809 0.06341 0.73641 0.0
C366 C 0.01534 0.08473 0.7318 0.0
C367 C 0.98925 0.09624 0.71069 0.0
N368 N 0.94696 0.08362 0.7016 0.0
Co369 Co 0.89798 0.09403 0.67183 0.0
N370 N 0.93845 0.12281 0.66156 0.0
C371 C 0.98196 0.1294 0.6734 0.0
C372 C 0.00109 0.14941 0.66125 0.0
C373 C 0.96782 0.15574 0.64 0.0
C374 C 0.93018 0.13912 0.64045 0.0
N375 N 0.84898 0.10526 0.64304 0.0
C376 C 0.84919 0.12393 0.62445 0.0
C377 C 0.80784 0.12557 0.60837 0.0
C378 C 0.78057 0.10729 0.6171 0.0
C379 C 0.80664 0.09553 0.63791 0.0
N380 N 0.85752 0.06419 0.68076 0.0
C381 C 0.814 0.05752 0.66879 0.0
C382 C 0.795 0.03523 0.67787 0.0
C383 C 0.82839 0.02692 0.69643 0.0
C384 C 0.86591 0.04479 0.69766 0.0
N385 N 0.8975 0.11833 0.70475 0.0
C386 C 0.89586 0.15259 0.75119 0.0
C387 C 0.86055 0.13143 0.73552 0.0
C388 C 0.8619 0.11492 0.71255 0.0
C389 C 0.93228 0.15613 0.74337 0.0
C390 C 0.9325 0.13887 0.72046 0.0
N391 N 0.89825 0.06972 0.63931 0.0
C392 C 0.85879 0.03526 0.59751 0.0
C393 C 0.89683 0.02977 0.59794 0.0
C394 C 0.93589 0.0458 0.61813 0.0
C395 C 0.93588 0.06562 0.63853 0.0
C396 C 0.86023 0.05525 0.61807 0.0
H397 H 0.9665 0.07693 0.65407 0.0
H398 H 0.83004 0.05814 0.61694 0.0
H399 H 0.8335 0.09957 0.70159 0.0
H400 H 0.96141 0.14275 0.71591 0.0
C401 C 0.00378 0.11695 0.69656 0.0
C402 C 0.90872 0.04251 0.71518 0.0
C403 C 0.88744 0.13956 0.62031 0.0
C404 C 0.7921 0.07312 0.64983 0.0
H405 H 0.99762 0.04933 0.75136 0.0
H406 H 0.05012 0.0906 0.74185 0.0
H407 H 0.03515 0.15834 0.66715 0.0
H408 H 0.9709 0.17088 0.62576 0.0
H409 H 0.79823 0.13819 0.5915 0.0
H410 H 0.74576 0.10239 0.60838 0.0
H411 H 0.76095 0.0261 0.67171 0.0
H412 H 0.82552 0.00968 0.70777 0.0
H413 H 0.83177 0.12736 0.74098 0.0
H414 H 0.96041 0.17239 0.75451 0.0
H415 H 0.82783 0.02377 0.58173 0.0
H416 H 0.96618 0.04234 0.61908 0.0
C417 C 0.39496 0.30036 0.09189 0.0
C418 C 0.38321 0.32268 0.09826 0.0
C419 C 0.40765 0.34301 0.08988 0.0
C420 C 0.43272 0.33193 0.07889 0.0
N421 N 0.42512 0.30565 0.07918 0.0
Co422 Co 0.45541 0.28168 0.0667 0.0
N423 N 0.49743 0.31215 0.06024 0.0
C424 C 0.49868 0.3379 0.06417 0.0
C425 C 0.53218 0.35434 0.05911 0.0
C426 C 0.55384 0.3382 0.05168 0.0
C427 C 0.53203 0.31269 0.05247 0.0
N428 N 0.48518 0.25764 0.0537 0.0
C429 C 0.52042 0.26331 0.04597 0.0
C430 C 0.53003 0.24065 0.03778 0.0
C431 C 0.50002 0.21994 0.04071 0.0
C432 C 0.47378 0.23104 0.05033 0.0
N433 N 0.41417 0.25138 0.0741 0.0
C434 C 0.41172 0.22554 0.06932 0.0
C435 C 0.38226 0.2096 0.07874 0.0
C436 C 0.36561 0.2263 0.0909 0.0
C437 C 0.3859 0.2515 0.08806 0.0
N438 N 0.41596 0.27845 0.02409 0.0
C439 C 0.36549 0.2744 0.96258 0.0
C440 C 0.37079 0.25198 0.97615 0.0
C441 C 0.39559 0.25442 0.00672 0.0
C442 C 0.38496 0.29881 0.98042 0.0
C443 C 0.40975 0.30036 0.01075 0.0
N444 N 0.49478 0.28484 0.10889 0.0
C445 C 0.53689 0.26551 0.14947 0.0
C446 C 0.55322 0.28957 0.16802 0.0
C447 C 0.53911 0.3111 0.15684 0.0
C448 C 0.51034 0.30838 0.12729 0.0
C449 C 0.50748 0.26351 0.1203 0.0
H450 H 0.50151 0.32563 0.11966 0.0
H451 H 0.49567 0.24457 0.10726 0.0
H452 H 0.39793 0.23654 0.01556 0.0
H453 H 0.42398 0.3196 0.0227 0.0
C454 C 0.46777 0.34602 0.07243 0.0
C455 C 0.3794 0.27506 0.10061 0.0
C456 C 0.54579 0.2897 0.04608 0.0
C457 C 0.43993 0.21712 0.0582 0.0
H458 H 0.36062 0.32421 0.109 0.0
H459 H 0.40879 0.36362 0.09305 0.0
H460 H 0.54005 0.37556 0.06078 0.0
H461 H 0.58257 0.34452 0.04642 0.0
H462 H 0.55621 0.23925 0.03061 0.0
H463 H 0.498 0.19926 0.03676 0.0
H464 H 0.37504 0.18845 0.07798 0.0
H465 H 0.34218 0.22067 0.10147 0.0
H466 H 0.35571 0.23259 0.96331 0.0
H467 H 0.38205 0.31682 0.97088 0.0
H468 H 0.54678 0.24829 0.15746 0.0
H469 H 0.55128 0.33014 0.17053 0.0
H470 H 0.25624 0.38002 0.31868 0.0
H471 H 0.20559 0.35039 0.38527 0.0
H472 H 0.21981 0.41516 0.31494 0.0
H473 H 0.1676 0.3845 0.38075 0.0
H474 H 0.16231 0.46809 0.39965 0.0
H475 H 0.18932 0.42999 0.39714 0.0
H476 H 0.1543 0.4288 0.30116 0.0
H477 H 0.12939 0.4682 0.304 0.0
C478 C 0.23635 0.38071 0.3319 0.0
C479 C 0.23393 0.36283 0.35247 0.0
C480 C 0.21539 0.40073 0.32975 0.0
C481 C 0.19133 0.40298 0.34795 0.0
C482 C 0.1868 0.38387 0.36703 0.0
C483 C 0.20821 0.36419 0.36947 0.0
C484 C 0.16074 0.45995 0.37801 0.0
C485 C 0.1441 0.47145 0.3521 0.0
C486 C 0.17559 0.43773 0.37647 0.0
C487 C 0.17378 0.42612 0.34889 0.0
C488 C 0.15651 0.43734 0.32281 0.0
C489 C 0.14181 0.45976 0.32439 0.0
H490 H 0.12661 0.73134 0.68483 0.0
H491 H 0.23914 0.70156 0.70854 0.0
H492 H 0.08267 0.68799 0.68522 0.0
H493 H 0.19552 0.65848 0.71036 0.0
H494 H 0.10265 0.57896 0.69732 0.0
H495 H 0.13829 0.61963 0.68321 0.0
H496 H 0.07652 0.66323 0.72538 0.0
H497 H 0.04058 0.62252 0.73867 0.0
C498 C 0.14188 0.71545 0.68959 0.0
C499 C 0.18649 0.71997 0.69685 0.0
C500 C 0.11675 0.69066 0.69019 0.0
C501 C 0.13564 0.66985 0.69819 0.0
C502 C 0.17984 0.67402 0.70392 0.0
C503 C 0.20497 0.69879 0.70322 0.0
C504 C 0.09631 0.59729 0.70292 0.0
C505 C 0.06908 0.59794 0.71889 0.0
C506 C 0.1168 0.62052 0.6951 0.0
C507 C 0.11033 0.6447 0.70322 0.0
C508 C 0.08172 0.64495 0.71833 0.0
C509 C 0.06129 0.62176 0.72609 0.0
H510 H 0.88513 0.75667 0.40772 0.0
H511 H 0.97359 0.79711 0.36804 0.0
H512 H 0.91579 0.71924 0.41039 0.0
H513 H 0.00353 0.75928 0.36996 0.0
H514 H 0.07112 0.69488 0.40145 0.0
H515 H 0.04541 0.73385 0.40513 0.0
H516 H 0.91458 0.68506 0.37337 0.0
H517 H 0.94032 0.64613 0.37039 0.0
C518 C 0.91152 0.75771 0.39993 0.0
C519 C 0.92698 0.77987 0.38768 0.0
C520 C 0.92875 0.73613 0.40115 0.0
C521 C 0.96189 0.73623 0.39022 0.0
C522 C 0.97822 0.75869 0.37876 0.0
C523 C 0.96085 0.78025 0.37742 0.0
C524 C 0.03693 0.69248 0.39565 0.0
C525 C 0.00772 0.66745 0.38558 0.0
C526 C 0.02219 0.7148 0.39748 0.0
C527 C 0.97797 0.71254 0.38951 0.0
C528 C 0.94888 0.68744 0.37996 0.0
C529 C 0.96358 0.66517 0.37796 0.0
H530 H 0.82584 0.33823 0.84312 0.0
H531 H 0.91109 0.38016 0.93028 0.0
H532 H 0.83965 0.37822 0.82042 0.0
H533 H 0.92498 0.4203 0.90754 0.0
H534 H 0.92192 0.49205 0.856 0.0
H535 H 0.89469 0.45454 0.87907 0.0
H536 H 0.90578 0.4015 0.8126 0.0
H537 H 0.93293 0.43891 0.78993 0.0
C538 C 0.84705 0.35613 0.85747 0.0
C539 C 0.86789 0.35602 0.88838 0.0
C540 C 0.85503 0.37898 0.84448 0.0
C541 C 0.88397 0.40225 0.86213 0.0
C542 C 0.90241 0.40267 0.89339 0.0
C543 C 0.89442 0.37972 0.90642 0.0
C544 C 0.91824 0.47228 0.84644 0.0
C545 C 0.9296 0.46814 0.82144 0.0
C546 C 0.9028 0.45091 0.85957 0.0
C547 C 0.89794 0.4251 0.84757 0.0
C548 C 0.90851 0.42111 0.8221 0.0
C549 C 0.92425 0.44244 0.8092 0.0
H550 H 0.30858 0.20047 0.30967 0.0
H551 H 0.20474 0.21287 0.33518 0.0
H552 H 0.30482 0.15966 0.33179 0.0
H553 H 0.20052 0.17187 0.35701 0.0
H554 H 0.24811 0.11899 0.4282 0.0
H555 H 0.24453 0.15698 0.40087 0.0
H556 H 0.26245 0.11518 0.32846 0.0
H557 H 0.267 0.07748 0.35649 0.0
C558 C 0.2843 0.19415 0.31941 0.0
C559 C 0.2571 0.20991 0.32084 0.0
C560 C 0.28214 0.17076 0.33211 0.0
C561 C 0.25262 0.1626 0.34642 0.0
C562 C 0.22421 0.17786 0.34671 0.0
C563 C 0.2265 0.20128 0.33412 0.0
C564 C 0.25107 0.11807 0.40638 0.0
C565 C 0.2579 0.09565 0.39428 0.0
C566 C 0.24872 0.13964 0.39061 0.0
C567 C 0.25308 0.13909 0.3624 0.0
C568 C 0.25942 0.11634 0.35024 0.0
C569 C 0.26183 0.09478 0.36609 0.0
H570 H 0.36107 0.80503 0.73982 0.0
H571 H 0.27462 0.78013 0.78677 0.0
H572 H 0.42259 0.81446 0.78769 0.0
H573 H 0.33516 0.79031 0.83443 0.0
H574 H 0.44928 0.77734 0.90747 0.0
H575 H 0.39147 0.77111 0.85913 0.0
H576 H 0.46018 0.84165 0.83614 0.0
H577 H 0.51963 0.84707 0.88413 0.0
C578 C 0.35533 0.8021 0.76049 0.0
C579 C 0.31342 0.79165 0.75977 0.0
C580 C 0.3904 0.8075 0.78786 0.0
C581 C 0.38391 0.80269 0.8149 0.0
C582 C 0.34154 0.79353 0.81404 0.0
C583 C 0.3068 0.78791 0.7868 0.0
C584 C 0.45258 0.79133 0.892 0.0
C585 C 0.48929 0.8127 0.89982 0.0
C586 C 0.41898 0.78799 0.86437 0.0
C587 C 0.42081 0.80608 0.84382 0.0
C588 C 0.45773 0.8273 0.85137 0.0
C589 C 0.4916 0.83057 0.87905 0.0
H590 H 0.86922 0.87118 0.52532 0.0
H591 H 0.86599 0.91475 0.45059 0.0
H592 H 0.88619 0.91191 0.55809 0.0
H593 H 0.88334 0.95582 0.48369 0.0
H594 H 0.94436 0.02586 0.56264 0.0
H595 H 0.93937 0.98649 0.53085 0.0
H596 H 0.84003 0.94175 0.55889 0.0
H597 H 0.84524 0.9806 0.5905 0.0
C598 C 0.87236 0.88951 0.51593 0.0
C599 C 0.86539 0.88971 0.48524 0.0
C600 C 0.88217 0.91284 0.53472 0.0
C601 C 0.88539 0.93699 0.52334 0.0
C602 C 0.88112 0.93747 0.49307 0.0
C603 C 0.87118 0.914 0.47415 0.0
C604 C 0.92169 0.00752 0.56202 0.0
C605 C 0.89499 0.0063 0.57887 0.0
C606 C 0.91867 0.9851 0.54375 0.0
C607 C 0.88947 0.96104 0.54252 0.0
C608 C 0.8632 0.95991 0.55963 0.0
C609 C 0.86587 0.98223 0.5775 0.0
H610 H 0.8099 0.32258 0.05315 0.0
H611 H 0.7327 0.28111 0.9642 0.0
H612 H 0.74466 0.3217 0.06325 0.0
H613 H 0.66745 0.28027 0.97428 0.0
H614 H 0.55788 0.3028 0.99471 0.0
H615 H 0.62363 0.3078 0.98348 0.0
H616 H 0.68832 0.28845 0.07143 0.0
H617 H 0.62269 0.28396 0.08253 0.0
C618 C 0.779 0.3133 0.03574 0.0
C619 C 0.77653 0.30177 0.00793 0.0
C620 C 0.74162 0.31277 0.04154 0.0
C621 C 0.70086 0.30073 0.01966 0.0
C622 C 0.69833 0.28994 0.99151 0.0
C623 C 0.73575 0.29045 0.98571 0.0
C624 C 0.58639 0.29978 0.01154 0.0
C625 C 0.5857 0.2931 0.03944 0.0
C626 C 0.62386 0.30249 0.00514 0.0
C627 C 0.66126 0.29858 0.02659 0.0
C628 C 0.66032 0.29199 0.05459 0.0
C629 C 0.62284 0.28924 0.06093 0.0
H630 H 0.28284 0.87994 0.65372 0.0
H631 H 0.17281 0.84353 0.57382 0.0
H632 H 0.31107 0.91141 0.62445 0.0
H633 H 0.20049 0.87472 0.54474 0.0
H634 H 0.26613 0.92512 0.49393 0.0
H635 H 0.25842 0.89019 0.52528 0.0
H636 H 0.28531 0.94858 0.60025 0.0
H637 H 0.29336 0.98334 0.56877 0.0
C638 C 0.26526 0.87837 0.62981 0.0
C639 C 0.22557 0.85954 0.61598 0.0
C640 C 0.28119 0.89641 0.61313 0.0
C641 C 0.25794 0.89558 0.58231 0.0
C642 C 0.21945 0.87573 0.56832 0.0
C643 C 0.20339 0.85799 0.58499 0.0
C644 C 0.27136 0.93034 0.51733 0.0
C645 C 0.2801 0.95667 0.5291 0.0
C646 C 0.2668 0.91046 0.53521 0.0
C647 C 0.27091 0.91663 0.56516 0.0
C648 C 0.28237 0.9432 0.57738 0.0
C649 C 0.2868 0.96308 0.55942 0.0
H650 H 0.79072 0.83683 0.32141 0.0
H651 H 0.91288 0.84119 0.31206 0.0
H652 H 0.75996 0.84286 0.26895 0.0
H653 H 0.88165 0.84675 0.25927 0.0
H654 H 0.78876 0.81429 0.16038 0.0
H655 H 0.82684 0.81672 0.21432 0.0
H656 H 0.76283 0.87362 0.23135 0.0
H657 H 0.72413 0.87084 0.17738 0.0
C658 C 0.81138 0.83973 0.30842 0.0
C659 C 0.85428 0.83838 0.32099 0.0
C660 C 0.79363 0.8431 0.27826 0.0
C661 C 0.81827 0.84505 0.2599 0.0
C662 C 0.86168 0.84488 0.27275 0.0
C663 C 0.87953 0.8417 0.30298 0.0
C664 C 0.78297 0.82739 0.17565 0.0
C665 C 0.75331 0.84227 0.16464 0.0
C666 C 0.8051 0.82899 0.20652 0.0
C667 C 0.79781 0.84536 0.22709 0.0
C668 C 0.76891 0.86071 0.21606 0.0
C669 C 0.74703 0.85928 0.18515 0.0
H670 H 0.9385 0.28834 0.87614 0.0
H671 H 0.82421 0.23539 0.87989 0.0
H672 H 0.94561 0.25437 0.84327 0.0
H673 H 0.83118 0.20134 0.84684 0.0
H674 H 0.82671 0.16941 0.75256 0.0
H675 H 0.8236 0.19918 0.79142 0.0
H676 H 0.95816 0.20829 0.84233 0.0
H677 H 0.9612 0.17756 0.80398 0.0
C678 C 0.91523 0.26929 0.87017 0.0
C679 C 0.88069 0.26444 0.88034 0.0
C680 C 0.91943 0.24984 0.85155 0.0
C681 C 0.88882 0.22532 0.84242 0.0
C682 C 0.85503 0.22017 0.8534 0.0
C683 C 0.8512 0.23952 0.87241 0.0
C684 C 0.85552 0.17724 0.77227 0.0
C685 C 0.8942 0.1709 0.77507 0.0
C686 C 0.85368 0.19437 0.79452 0.0
C687 C 0.89056 0.2059 0.81992 0.0
C688 C 0.92929 0.19973 0.82285 0.0
C689 C 0.93104 0.18227 0.80076 0.0
H690 H 0.34197 0.30376 0.26837 0.0
H691 H 0.23896 0.23504 0.22002 0.0
H692 H 0.36396 0.30743 0.22513 0.0
H693 H 0.26224 0.23798 0.17727 0.0
H694 H 0.29556 0.26341 0.09601 0.0
H695 H 0.26821 0.26306 0.13716 0.0
H696 H 0.39893 0.28391 0.20144 0.0
H697 H 0.4257 0.28482 0.16017 0.0
C698 C 0.32364 0.28962 0.24839 0.0
C699 C 0.28878 0.26904 0.24774 0.0
C700 C 0.33666 0.2915 0.22373 0.0
C701 C 0.31523 0.27281 0.19784 0.0
C702 C 0.27937 0.25279 0.19676 0.0
C703 C 0.26628 0.25095 0.2214 0.0
C704 C 0.31812 0.26786 0.11903 0.0
C705 C 0.3625 0.27402 0.12524 0.0
C706 C 0.30263 0.2676 0.14255 0.0
C707 C 0.33137 0.27354 0.17264 0.0
C708 C 0.3759 0.27969 0.17859 0.0
C709 C 0.39129 0.27998 0.15509 0.0
H710 H 0.86282 0.74226 0.82203 0.0
H711 H 0.99908 0.76871 0.87336 0.0
H712 H 0.871 0.69949 0.80726 0.0
H713 H 0.00731 0.72584 0.85998 0.0
H714 H 0.01927 0.65856 0.80563 0.0
H715 H 0.00796 0.70039 0.81926 0.0
H716 H 0.88491 0.65961 0.82253 0.0
H717 H 0.89578 0.61777 0.80747 0.0
C718 C 0.89439 0.73871 0.83049 0.0
C719 C 0.93038 0.75877 0.84858 0.0
C720 C 0.89914 0.7142 0.82215 0.0
C721 C 0.93994 0.70916 0.83212 0.0
C722 C 0.97559 0.72912 0.85112 0.0
C723 C 0.97092 0.75366 0.85901 0.0
C724 C 0.98983 0.65861 0.80927 0.0
C725 C 0.95851 0.63498 0.80569 0.0
C726 C 0.98338 0.68257 0.81729 0.0
C727 C 0.94572 0.6835 0.82245 0.0
C728 C 0.9141 0.65977 0.81846 0.0
C729 C 0.92032 0.63577 0.80995 0.0
H730 H 0.94584 0.35844 0.41883 0.0
H731 H 0.84049 0.39081 0.41644 0.0
H732 H 0.99229 0.40269 0.42574 0.0
H733 H 0.8862 0.43495 0.42187 0.0
H734 H 0.97976 0.51405 0.43982 0.0
H735 H 0.94697 0.47079 0.4503 0.0
H736 H 0.99457 0.43391 0.39106 0.0
H737 H 0.02807 0.47709 0.38158 0.0
C738 C 0.93285 0.375 0.42052 0.0
C739 C 0.88929 0.37108 0.41672 0.0
C740 C 0.95934 0.40038 0.42407 0.0
C741 C 0.94282 0.4224 0.42379 0.0
C742 C 0.90016 0.41853 0.4223 0.0
C743 C 0.87376 0.39318 0.41889 0.0
C744 C 0.98389 0.4966 0.42975 0.0
C745 C 0.00642 0.49864 0.41009 0.0
C746 C 0.96494 0.47187 0.4355 0.0
C747 C 0.96802 0.44881 0.42149 0.0
C748 C 0.99212 0.45116 0.40269 0.0
C749 C 0.01107 0.47583 0.39704 0.0
H750 H 0.20424 0.35873 0.75129 0.0
H751 H 0.09905 0.31761 0.67076 0.0
H752 H 0.16952 0.39368 0.75156 0.0
H753 H 0.06412 0.35336 0.67062 0.0
H754 H 0.99879 0.4077 0.71267 0.0
H755 H 0.02937 0.37243 0.70224 0.0
H756 H 0.15216 0.42908 0.72289 0.0
H757 H 0.1219 0.46395 0.73373 0.0
C758 C 0.17357 0.3572 0.73357 0.0
C759 C 0.15408 0.33529 0.7112 0.0
C760 C 0.15389 0.37742 0.7335 0.0
C761 C 0.11417 0.37641 0.71099 0.0
C762 C 0.09466 0.35462 0.68832 0.0
C763 C 0.11468 0.33429 0.68828 0.0
C764 C 0.03207 0.41257 0.7144 0.0
C765 C 0.05824 0.43842 0.72455 0.0
C766 C 0.04954 0.39243 0.70837 0.0
C767 C 0.09337 0.39792 0.71226 0.0
C768 C 0.11855 0.42412 0.72038 0.0
C769 C 0.10125 0.44409 0.72656 0.0
H770 H 0.28571 0.75879 0.30416 0.0
H771 H 0.20116 0.71992 0.21525 0.0
H772 H 0.25835 0.72074 0.32574 0.0
H773 H 0.1753 0.68151 0.23697 0.0
H774 H 0.17094 0.60921 0.29003 0.0
H775 H 0.2037 0.64584 0.26833 0.0
H776 H 0.18285 0.7008 0.32758 0.0
H777 H 0.14922 0.66418 0.34858 0.0
C778 C 0.26145 0.74215 0.28918 0.0
C779 C 0.24537 0.74262 0.25794 0.0
C780 C 0.24598 0.72033 0.30157 0.0
C781 C 0.2146 0.69831 0.28301 0.0
C782 C 0.19977 0.6982 0.25175 0.0
C783 C 0.21478 0.72019 0.23933 0.0
C784 C 0.17333 0.62916 0.2982 0.0
C785 C 0.15738 0.63405 0.32068 0.0
C786 C 0.19198 0.65003 0.28587 0.0
C787 C 0.19581 0.67609 0.29635 0.0
C788 C 0.18063 0.6809 0.3193 0.0
C789 C 0.16134 0.66005 0.33123 0.0
H790 H 0.92992 0.91982 0.83289 0.0
H791 H 0.0171 0.91799 0.78623 0.0
H792 H 0.90418 0.95325 0.80337 0.0
H793 H 0.99255 0.95188 0.75758 0.0
H794 H 0.91541 0.03656 0.77262 0.0
H795 H 0.93183 0.99967 0.79956 0.0
H796 H 0.93049 0.9593 0.71856 0.0
H797 H 0.9149 0.99655 0.69209 0.0
C798 C 0.94341 0.92645 0.81624 0.0
C799 C 0.97572 0.91636 0.81202 0.0
C800 C 0.92896 0.94575 0.79953 0.0
C801 C 0.94632 0.95524 0.77813 0.0
C802 C 0.97811 0.9448 0.77361 0.0
C803 C 0.9926 0.92561 0.79033 0.0
C804 C 0.91812 0.01956 0.76069 0.0
C805 C 0.914 0.01911 0.73049 0.0
C806 C 0.92732 0.99844 0.77596 0.0
C807 C 0.93267 0.97659 0.76124 0.0
C808 C 0.92716 0.97598 0.73065 0.0
C809 C 0.91796 0.9971 0.71543 0.0
H810 H 0.70962 0.28869 0.35595 0.0
H811 H 0.79393 0.33556 0.31732 0.0
H812 H 0.64906 0.28209 0.30771 0.0
H813 H 0.73395 0.3285 0.26921 0.0
H814 H 0.62873 0.27624 0.1826 0.0
H815 H 0.68567 0.28284 0.2322 0.0
H816 H 0.60936 0.31576 0.27131 0.0
H817 H 0.55253 0.30968 0.22139 0.0
C818 C 0.71502 0.29761 0.33717 0.0
C819 C 0.75617 0.31273 0.34024 0.0
C820 C 0.68055 0.29392 0.30975 0.0
C821 C 0.68712 0.30476 0.28492 0.0
C822 C 0.72824 0.3199 0.28807 0.0
C823 C 0.76237 0.32404 0.31555 0.0
C824 C 0.62405 0.28472 0.20184 0.0
C825 C 0.58641 0.29248 0.19831 0.0
C826 C 0.65659 0.28857 0.23009 0.0
C827 C 0.6517 0.29979 0.25539 0.0
C828 C 0.61364 0.30698 0.25206 0.0
C829 C 0.58139 0.30363 0.22363 0.0
H830 H 0.31436 0.23793 0.63208 0.0
H831 H 0.18064 0.20584 0.61901 0.0
H832 H 0.31633 0.19591 0.61012 0.0
H833 H 0.18251 0.16355 0.59695 0.0
H834 H 0.19413 0.1132 0.51785 0.0
H835 H 0.19008 0.14994 0.5482 0.0
H836 H 0.30986 0.14847 0.61708 0.0
H837 H 0.3135 0.11111 0.58716 0.0
C838 C 0.28557 0.2217 0.62491 0.0
C839 C 0.24729 0.22512 0.62707 0.0
C840 C 0.28675 0.1976 0.61251 0.0
C841 C 0.24951 0.17647 0.60167 0.0
C842 C 0.2116 0.17957 0.60491 0.0
C843 C 0.2106 0.20365 0.61772 0.0
C844 C 0.21915 0.1202 0.53977 0.0
C845 C 0.25429 0.10915 0.54989 0.0
C846 C 0.21679 0.14133 0.55716 0.0
C847 C 0.24969 0.15213 0.58499 0.0
C848 C 0.28425 0.14072 0.59555 0.0
C849 C 0.28642 0.1194 0.5783 0.0
H850 H 0.31085 0.82093 0.08872 0.0
H851 H 0.38708 0.78973 0.16422 0.0
H852 H 0.37103 0.83146 0.07139 0.0
H853 H 0.44735 0.80016 0.14681 0.0
H854 H 0.55815 0.8388 0.11701 0.0
H855 H 0.50111 0.83502 0.13775 0.0
H856 H 0.40541 0.80564 0.04897 0.0
H857 H 0.46255 0.80993 0.02854 0.0
C858 C 0.34059 0.81646 0.10171 0.0
C859 C 0.34406 0.80425 0.12768 0.0
C860 C 0.37503 0.82243 0.09174 0.0
C861 C 0.41382 0.81634 0.10748 0.0
C862 C 0.41804 0.8053 0.13427 0.0
C863 C 0.38352 0.79934 0.14428 0.0
C864 C 0.5248 0.83179 0.10209 0.0
C865 C 0.51435 0.82469 0.0713 0.0
C866 C 0.49223 0.82946 0.11389 0.0
C867 C 0.44868 0.82007 0.09502 0.0
C868 C 0.43852 0.81334 0.06407 0.0
C869 C 0.47108 0.81562 0.05235 0.0
H870 H 0.82127 0.23507 0.47471 0.0
H871 H 0.94393 0.22242 0.48171 0.0
H872 H 0.82246 0.21149 0.51782 0.0
H873 H 0.94503 0.19889 0.52452 0.0
H874 H 0.90466 0.12915 0.57063 0.0
H875 H 0.90335 0.15593 0.53005 0.0
H876 H 0.86127 0.21226 0.57291 0.0
H877 H 0.86251 0.18511 0.6135 0.0
C878 C 0.84883 0.2277 0.48579 0.0
C879 C 0.88224 0.23031 0.47458 0.0
C880 C 0.84946 0.21414 0.51041 0.0
C881 C 0.88348 0.20293 0.52422 0.0
C882 C 0.91784 0.20673 0.5139 0.0
C883 C 0.91726 0.22026 0.48942 0.0
C884 C 0.89485 0.14717 0.57112 0.0
C885 C 0.88343 0.15512 0.59485 0.0
C886 C 0.89442 0.16261 0.54813 0.0
C887 C 0.88256 0.18634 0.54842 0.0
C888 C 0.8703 0.19402 0.57198 0.0
C889 C 0.87098 0.17857 0.59513 0.0
H890 H 0.26559 0.32542 0.79215 0.0
H891 H 0.22801 0.24151 0.76578 0.0
H892 H 0.29905 0.31943 0.84419 0.0
H893 H 0.26158 0.23533 0.8186 0.0
H894 H 0.36794 0.2437 0.91582 0.0
H895 H 0.33261 0.24469 0.86197 0.0
H896 H 0.27157 0.30208 0.88227 0.0
H897 H 0.30687 0.30121 0.93574 0.0
C898 C 0.26447 0.30563 0.79759 0.0
C899 C 0.24354 0.28388 0.77507 0.0
C900 C 0.28347 0.30218 0.82743 0.0
C901 C 0.28206 0.27688 0.83562 0.0
C902 C 0.26297 0.25507 0.81294 0.0
C903 C 0.24385 0.25856 0.78281 0.0
C904 C 0.34642 0.2562 0.90868 0.0
C905 C 0.34065 0.27268 0.92999 0.0
C906 C 0.32622 0.25675 0.87788 0.0
C907 C 0.29993 0.27379 0.86791 0.0
C908 C 0.29253 0.28922 0.88926 0.0
C909 C 0.31271 0.28873 0.9199 0.0
H910 H 0.21006 0.82758 0.26005 0.0
H911 H 0.34338 0.85825 0.2714 0.0
H912 H 0.21345 0.8669 0.29047 0.0
H913 H 0.34713 0.89784 0.30232 0.0
H914 H 0.34093 0.93846 0.39095 0.0
H915 H 0.34184 0.90533 0.35422 0.0
H916 H 0.22442 0.9159 0.29039 0.0
H917 H 0.22396 0.94956 0.32665 0.0
C918 C 0.23993 0.84301 0.2688 0.0
C919 C 0.27647 0.84003 0.26352 0.0
C920 C 0.24186 0.86553 0.28607 0.0
C921 C 0.28056 0.88542 0.29878 0.0
C922 C 0.31695 0.88273 0.29289 0.0
C923 C 0.31479 0.86027 0.27512 0.0
C924 C 0.31581 0.93421 0.36887 0.0
C925 C 0.28208 0.94653 0.36196 0.0
C926 C 0.31637 0.9152 0.34784 0.0
C927 C 0.28307 0.90794 0.31953 0.0
C928 C 0.25022 0.92088 0.31219 0.0
C929 C 0.24985 0.94004 0.33308 0.0
H930 H 0.81121 0.78502 0.86597 0.0
H931 H 0.9107 0.85174 0.92313 0.0
H932 H 0.76597 0.78973 0.89451 0.0
H933 H 0.86475 0.85721 0.95066 0.0
H934 H 0.793 0.83847 0.01572 0.0
H935 H 0.83775 0.83556 0.98602 0.0
H936 H 0.7244 0.81748 0.90475 0.0
H937 H 0.67993 0.8198 0.93488 0.0
C938 C 0.82334 0.80078 0.8845 0.0
C939 C 0.86464 0.81797 0.89224 0.0
C940 C 0.7972 0.80368 0.90066 0.0
C941 C 0.81172 0.82384 0.92494 0.0
C942 C 0.85273 0.84127 0.93235 0.0
C943 C 0.87887 0.83834 0.91626 0.0
C944 C 0.77802 0.83409 0.99149 0.0
C945 C 0.7334 0.82947 0.97738 0.0
C946 C 0.80347 0.83252 0.97444 0.0
C947 C 0.78469 0.8263 0.94295 0.0
C948 C 0.73985 0.82198 0.92894 0.0
C949 C 0.71444 0.8235 0.94605 0.0
loop_
_geom_bond_atom_site_label_1
_geom_bond_atom_site_label_2
_geom_bond_distance
_geom_bond_site_symmetry_2
_ccdc_geom_bond_type
H0 C1 0.949 . S
C1 H0 0.949 . S
C1 C2 1.395 . S
C1 C3 1.391 . S
C2 C1 1.395 . S
C2 C5 1.390 . S
C3 C1 1.391 . S
C3 C7 1.387 . S
C3 C8 1.491 . S
H4 C5 0.950 . S
C5 C2 1.390 . S
C5 H4 0.950 . S
C5 C6 1.378 . S
C6 C5 1.378 . S
C6 C7 1.409 . S
C7 C3 1.387 . S
C7 C6 1.409 . S
C7 H9 0.951 . S
C8 C3 1.491 . S
C8 C10 1.382 . S
C8 C12 1.404 . S
H9 C7 0.951 . S
C10 C8 1.382 . S
C10 C11 1.390 . S
C10 H15 0.949 . S
C11 C10 1.390 . S
C11 C16 1.399 . S
C12 C8 1.404 . S
C12 H13 0.950 . S
C12 C14 1.375 . S
H13 C12 0.950 . S
C14 C12 1.375 . S
C14 C16 1.382 . S
C14 H18 0.950 . S
H15 C10 0.949 . S
C16 C11 1.399 . S
C16 C14 1.382 . S
C16 H17 0.952 . S
H17 C16 0.952 . S
H18 C14 0.950 . S
H19 C20 0.949 . S
C20 H19 0.949 . S
C20 C21 1.395 . S
C20 C22 1.391 . S
C21 C20 1.395 . S
C21 C24 1.390 . S
C22 C20 1.391 . S
C22 C26 1.387 . S
C22 C27 1.491 . S
H23 C24 0.950 . S
C24 C21 1.390 . S
C24 H23 0.950 . S
C24 C25 1.378 . S
C25 C24 1.378 . S
C25 C26 1.409 . S
C26 C22 1.387 . S
C26 C25 1.409 . S
C26 H28 0.951 . S
C27 C22 1.491 . S
C27 C29 1.382 . S
C27 C31 1.404 . S
H28 C26 0.951 . S
C29 C27 1.382 . S
C29 C30 1.390 . S
C29 H34 0.949 . S
C30 C29 1.390 . S
C30 C35 1.399 . S
C31 C27 1.404 . S
C31 H32 0.950 . S
C31 C33 1.375 . S
H32 C31 0.950 . S
C33 C31 1.375 . S
C33 C35 1.382 . S
C33 H37 0.950 . S
H34 C29 0.949 . S
C35 C30 1.399 . S
C35 C33 1.382 . S
C35 H36 0.952 . S
H36 C35 0.952 . S
H37 C33 0.950 . S
H38 C39 0.949 . S
C39 H38 0.949 . S
C39 C40 1.395 . S
C39 C41 1.391 . S
C40 C39 1.395 . S
C40 C43 1.390 . S
C41 C39 1.391 . S
C41 C45 1.387 . S
C41 C46 1.491 . S
H42 C43 0.950 . S
C43 C40 1.390 . S
C43 H42 0.950 . S
C43 C44 1.378 . S
C44 C43 1.378 . S
C44 C45 1.409 . S
C45 C41 1.387 . S
C45 C44 1.409 . S
C45 H47 0.951 . S
C46 C41 1.491 . S
C46 C48 1.382 . S
C46 C50 1.404 . S
H47 C45 0.951 . S
C48 C46 1.382 . S
C48 C49 1.390 . S
C48 H53 0.949 . S
C49 C48 1.390 . S
C49 C54 1.399 . S
C50 C46 1.404 . S
C50 H51 0.950 . S
C50 C52 1.375 . S
H51 C50 0.950 . S
C52 C50 1.375 . S
C52 C54 1.382 . S
C52 H56 0.950 . S
H53 C48 0.949 . S
C54 C49 1.399 . S
C54 C52 1.382 . S
C54 H55 0.952 . S
H55 C54 0.952 . S
H56 C52 0.950 . S
H57 C58 0.949 . S
C58 H57 0.949 . S
C58 C59 1.395 . S
C58 C60 1.391 . S
C59 C58 1.395 . S
C59 C62 1.390 . S
C60 C58 1.391 . S
C60 C64 1.387 . S
C60 C65 1.491 . S
H61 C62 0.950 . S
C62 C59 1.390 . S
C62 H61 0.950 . S
C62 C63 1.378 . S
C63 C62 1.378 . S
C63 C64 1.409 . S
C64 C60 1.387 . S
C64 C63 1.409 . S
C64 H66 0.951 . S
C65 C60 1.491 . S
C65 C67 1.382 . S
C65 C69 1.404 . S
H66 C64 0.951 . S
C67 C65 1.382 . S
C67 C68 1.390 . S
C67 H72 0.949 . S
C68 C67 1.390 . S
C68 C73 1.399 . S
C69 C65 1.404 . S
C69 H70 0.950 . S
C69 C71 1.375 . S
H70 C69 0.950 . S
C71 C69 1.375 . S
C71 C73 1.382 . S
C71 H75 0.950 1_556 S
H72 C67 0.949 . S
C73 C68 1.399 . S
C73 C71 1.382 . S
C73 H74 0.952 1_556 S
H74 C73 0.952 1_554 S
H75 C71 0.950 1_554 S
H76 C77 0.965 . S
C77 H76 0.965 . S
C77 C78 1.395 . S
C77 C79 1.391 . S
C78 C77 1.395 . S
C78 C81 1.390 . S
C79 C77 1.391 . S
C79 C83 1.387 . S
C79 C84 1.491 . S
H80 C81 0.950 . S
C81 C78 1.390 . S
C81 H80 0.950 . S
C81 C82 1.378 . S
C82 C81 1.378 . S
C82 C83 1.409 . S
C83 C79 1.387 . S
C83 C82 1.409 . S
C83 H85 0.951 . S
C84 C79 1.491 . S
C84 C86 1.382 . S
C84 C88 1.404 . S
H85 C83 0.951 . S
C86 C84 1.382 . S
C86 C87 1.390 . S
C86 H91 0.949 . S
C87 C86 1.390 . S
C87 C92 1.399 1_655 S
C88 C84 1.404 . S
C88 H89 0.950 . S
C88 C90 1.375 1_655 S
H89 C88 0.950 . S
C90 C88 1.375 1_455 S
C90 C92 1.382 . S
C90 H94 0.950 . S
H91 C86 0.949 . S
C92 C87 1.399 1_455 S
C92 C90 1.382 . S
C92 H93 0.952 . S
H93 C92 0.952 . S
H94 C90 0.950 . S
H95 C96 0.949 . S
C96 H95 0.949 . S
C96 C97 1.395 . S
C96 C98 1.391 . S
C97 C96 1.395 . S
C97 C100 1.390 . S
C98 C96 1.391 . S
C98 C102 1.387 . S
C98 C103 1.491 . S
H99 C100 0.950 . S
C100 C97 1.390 . S
C100 H99 0.950 . S
C100 C101 1.378 . S
C101 C100 1.378 . S
C101 C102 1.409 . S
C102 C98 1.387 . S
C102 C101 1.409 . S
C102 H104 0.951 . S
C103 C98 1.491 . S
C103 C105 1.382 . S
C103 C107 1.404 . S
H104 C102 0.951 . S
C105 C103 1.382 . S
C105 C106 1.390 . S
C105 H110 0.949 . S
C106 C105 1.390 . S
C106 C111 1.399 . S
C107 C103 1.404 . S
C107 H108 0.950 . S
C107 C109 1.375 . S
H108 C107 0.950 . S
C109 C107 1.375 . S
C109 C111 1.382 . S
C109 H113 0.950 . S
H110 C105 0.949 . S
C111 C106 1.399 . S
C111 C109 1.382 . S
C111 H112 0.952 . S
H112 C111 0.952 . S
H113 C109 0.950 . S
H114 C115 0.949 . S
C115 H114 0.949 . S
C115 C116 1.395 . S
C115 C117 1.391 . S
C116 C115 1.395 . S
C116 C119 1.390 . S
C117 C115 1.391 . S
C117 C121 1.387 . S
C117 C122 1.491 . S
H118 C119 0.950 . S
C119 C116 1.390 . S
C119 H118 0.950 . S
C119 C120 1.378 . S
C120 C119 1.378 . S
C120 C121 1.409 . S
C121 C117 1.387 . S
C121 C120 1.409 . S
C121 H123 0.951 . S
C122 C117 1.491 . S
C122 C124 1.382 . S
C122 C126 1.404 . S
H123 C121 0.951 . S
C124 C122 1.382 . S
C124 C125 1.390 . S
C124 H129 0.949 . S
C125 C124 1.390 . S
C125 C130 1.399 . S
C126 C122 1.404 . S
C126 H127 0.950 . S
C126 C128 1.375 . S
H127 C126 0.950 . S
C128 C126 1.375 . S
C128 C130 1.382 . S
C128 H132 0.950 . S
H129 C124 0.949 . S
C130 C125 1.399 . S
C130 C128 1.382 . S
C130 H131 0.952 . S
H131 C130 0.952 . S
H132 C128 0.950 . S
H133 C134 0.949 . S
C134 H133 0.949 . S
C134 C135 1.395 . S
C134 C136 1.391 . S
C135 C134 1.395 . S
C135 C138 1.390 . S
C136 C134 1.391 . S
C136 C140 1.387 . S
C136 C141 1.491 . S
H137 C138 0.950 . S
C138 C135 1.390 . S
C138 H137 0.950 . S
C138 C139 1.378 . S
C139 C138 1.378 . S
C139 C140 1.409 . S
C140 C136 1.387 . S
C140 C139 1.409 . S
C140 H142 0.951 . S
C141 C136 1.491 . S
C141 C143 1.382 . S
C141 C145 1.404 . S
H142 C140 0.951 . S
C143 C141 1.382 . S
C143 C144 1.390 . S
C143 H148 0.949 . S
C144 C143 1.390 . S
C144 C149 1.399 . S
C145 C141 1.404 . S
C145 H146 0.950 . S
C145 C147 1.375 . S
H146 C145 0.950 . S
C147 C145 1.375 . S
C147 C149 1.382 . S
C147 H151 0.950 . S
H148 C143 0.949 . S
C149 C144 1.399 . S
C149 C147 1.382 . S
C149 H150 0.952 . S
H150 C149 0.952 . S
H151 C147 0.950 . S
C152 C153 1.443 . S
C152 N156 1.376 . S
C152 C190 1.389 . S
C153 C152 1.443 . S
C153 C154 1.340 . S
C153 H193 0.951 . S
C154 C153 1.340 . S
C154 C155 1.439 . S
C154 H194 0.950 . S
C155 C154 1.439 . S
C155 N156 1.374 . S
C155 C189 1.395 . S
N156 C152 1.376 . S
N156 C155 1.374 . S
N156 Co157 2.008 . S
Co157 N156 2.008 . S
Co157 N158 1.995 . S
Co157 N163 2.008 1_455 S
Co157 N168 1.995 . S
Co157 N173 2.282 . S
Co157 N179 2.282 1_455 S
N158 Co157 1.995 . S
N158 C159 1.376 . S
N158 C162 1.383 1_455 S
C159 N158 1.376 . S
C159 C160 1.446 . S
C159 C189 1.391 . S
C160 C159 1.446 . S
C160 C161 1.339 . S
C160 H195 0.949 . S
C161 C160 1.339 . S
C161 C162 1.439 1_455 S
C161 H196 0.950 . S
C162 N158 1.383 1_655 S
C162 C161 1.439 1_655 S
C162 C191 1.392 . S
N163 Co157 2.008 1_655 S
N163 C164 1.376 . S
N163 C167 1.374 . S
C164 N163 1.376 . S
C164 C165 1.443 . S
C164 C191 1.389 . S
C165 C164 1.443 . S
C165 C166 1.340 . S
C165 H197 0.951 . S
C166 C165 1.340 . S
C166 C167 1.439 . S
C166 H198 0.950 . S
C167 N163 1.374 . S
C167 C166 1.439 . S
C167 C192 1.395 . S
N168 Co157 1.995 . S
N168 C169 1.376 1_455 S
N168 C172 1.383 . S
C169 N168 1.376 1_655 S
C169 C170 1.446 . S
C169 C192 1.391 . S
C170 C169 1.446 . S
C170 C171 1.339 1_655 S
C170 H199 0.949 . S
C171 C170 1.339 1_455 S
C171 C172 1.439 . S
C171 H200 0.950 . S
C172 N168 1.383 . S
C172 C171 1.439 . S
C172 C190 1.392 . S
N173 Co157 2.282 . S
N173 C176 1.332 . S
N173 C178 1.332 . S
C174 C175 1.386 . S
C174 C177 1.388 . S
C175 C174 1.386 . S
C175 C176 1.382 . S
C175 H201 0.950 . S
C176 N173 1.332 . S
C176 C175 1.382 . S
C176 H187 0.952 1_455 S
C177 C174 1.388 . S
C177 C178 1.382 . S
C177 H202 0.950 . S
C178 N173 1.332 . S
C178 C177 1.382 . S
C178 H188 0.948 . S
N179 Co157 2.282 1_655 S
N179 C183 1.332 1_655 S
N179 C184 1.332 . S
C180 C181 1.388 . S
C180 C184 1.382 . S
C180 H203 0.950 . S
C181 C180 1.388 . S
C181 C182 1.386 1_655 S
C182 C181 1.386 1_455 S
C182 C183 1.382 . S
C182 H204 0.950 . S
C183 N179 1.332 1_455 S
C183 C182 1.382 . S
C183 H185 0.952 . S
C184 N179 1.332 . S
C184 C180 1.382 . S
C184 H186 0.948 . S
H185 C183 0.952 . S
H186 C184 0.948 . S
H187 C176 0.952 1_655 S
H188 C178 0.948 . S
C189 C155 1.395 . S
C189 C159 1.391 . S
C190 C152 1.389 . S
C190 C172 1.392 . S
C191 C162 1.392 . S
C191 C164 1.389 . S
C192 C167 1.395 . S
C192 C169 1.391 . S
H193 C153 0.951 . S
H194 C154 0.950 . S
H195 C160 0.949 . S
H196 C161 0.950 . S
H197 C165 0.951 . S
H198 C166 0.950 . S
H199 C170 0.949 . S
H200 C171 0.950 . S
H201 C175 0.950 . S
H202 C177 0.950 . S
H203 C180 0.950 . S
H204 C182 0.950 . S
C205 C206 1.443 . S
C205 N209 1.376 . S
C205 C243 1.389 . S
C206 C205 1.443 . S
C206 C207 1.340 . S
C206 H246 0.951 . S
C207 C206 1.340 . S
C207 C208 1.439 . S
C207 H247 0.950 . S
C208 C207 1.439 . S
C208 N209 1.374 . S
C208 C242 1.395 . S
N209 C205 1.376 . S
N209 C208 1.374 . S
N209 Co210 2.008 . S
Co210 N209 2.008 . S
Co210 N211 1.995 . S
Co210 N216 2.008 1_455 S
Co210 N221 1.995 . S
Co210 N226 2.282 . S
Co210 N232 2.282 . S
N211 Co210 1.995 . S
N211 C212 1.376 . S
N211 C215 1.383 . S
C212 N211 1.376 . S
C212 C213 1.446 . S
C212 C242 1.391 . S
C213 C212 1.446 . S
C213 C214 1.339 . S
C213 H248 0.949 . S
C214 C213 1.339 . S
C214 C215 1.439 . S
C214 H249 0.950 . S
C215 N211 1.383 . S
C215 C214 1.439 . S
C215 C244 1.392 1_455 S
N216 Co210 2.008 1_655 S
N216 C217 1.376 . S
N216 C220 1.374 . S
C217 N216 1.376 . S
C217 C218 1.443 . S
C217 C244 1.389 . S
C218 C217 1.443 . S
C218 C219 1.340 . S
C218 H250 0.951 . S
C219 C218 1.340 . S
C219 C220 1.439 . S
C219 H251 0.950 . S
C220 N216 1.374 . S
C220 C219 1.439 . S
C220 C245 1.395 . S
N221 Co210 1.995 . S
N221 C222 1.376 1_455 S
N221 C225 1.383 . S
C222 N221 1.376 1_655 S
C222 C223 1.446 . S
C222 C245 1.391 . S
C223 C222 1.446 . S
C223 C224 1.339 1_655 S
C223 H252 0.949 . S
C224 C223 1.339 1_455 S
C224 C225 1.439 . S
C224 H253 0.950 . S
C225 N221 1.383 . S
C225 C224 1.439 . S
C225 C243 1.392 . S
N226 Co210 2.282 . S
N226 C229 1.332 . S
N226 C231 1.332 . S
C227 C228 1.386 . S
C227 C230 1.388 . S
C228 C227 1.386 . S
C228 C229 1.382 . S
C228 H254 0.950 . S
C229 N226 1.332 . S
C229 C228 1.382 . S
C229 H240 0.952 . S
C230 C227 1.388 . S
C230 C231 1.382 . S
C230 H255 0.950 . S
C231 N226 1.332 . S
C231 C230 1.382 . S
C231 H241 0.948 . S
N232 Co210 2.282 . S
N232 C236 1.332 . S
N232 C237 1.332 1_455 S
C233 C234 1.388 1_655 S
C233 C237 1.382 . S
C233 H256 0.950 . S
C234 C233 1.388 1_455 S
C234 C235 1.386 . S
C235 C234 1.386 . S
C235 C236 1.382 . S
C235 H257 0.950 . S
C236 N232 1.332 . S
C236 C235 1.382 . S
C236 H238 0.952 . S
C237 N232 1.332 1_655 S
C237 C233 1.382 . S
C237 H239 0.948 . S
H238 C236 0.952 . S
H239 C237 0.948 . S
H240 C229 0.952 . S
H241 C231 0.948 . S
C242 C208 1.395 . S
C242 C212 1.391 . S
C243 C205 1.389 . S
C243 C225 1.392 . S
C244 C215 1.392 1_655 S
C244 C217 1.389 . S
C245 C220 1.395 . S
C245 C222 1.391 . S
H246 C206 0.951 . S
H247 C207 0.950 . S
H248 C213 0.949 . S
H249 C214 0.950 . S
H250 C218 0.951 . S
H251 C219 0.950 . S
H252 C223 0.949 . S
H253 C224 0.950 . S
H254 C228 0.950 . S
H255 C230 0.950 . S
H256 C233 0.950 . S
H257 C235 0.950 . S
C258 C259 1.443 . S
C258 N262 1.376 1_565 S
C258 C296 1.389 . S
C259 C258 1.443 . S
C259 C260 1.340 1_565 S
C259 H299 0.951 . S
C260 C259 1.340 1_545 S
C260 C261 1.439 . S
C260 H300 0.950 . S
C261 C260 1.439 . S
C261 N262 1.374 . S
C261 C295 1.395 . S
N262 C258 1.376 1_545 S
N262 C261 1.374 . S
N262 Co263 2.008 . S
Co263 N262 2.008 . S
Co263 N264 1.995 . S
Co263 N269 2.008 . S
Co263 N274 1.995 1_545 S
Co263 N279 2.282 . S
Co263 N285 2.282 1_545 S
N264 Co263 1.995 . S
N264 C265 1.376 . S
N264 C268 1.383 . S
C265 N264 1.376 . S
C265 C266 1.446 . S
C265 C295 1.391 . S
C266 C265 1.446 . S
C266 C267 1.339 . S
C266 H301 0.949 . S
C267 C266 1.339 . S
C267 C268 1.439 . S
C267 H302 0.950 . S
C268 N264 1.383 . S
C268 C267 1.439 . S
C268 C297 1.392 . S
N269 Co263 2.008 . S
N269 C270 1.376 . S
N269 C273 1.374 . S
C270 N269 1.376 . S
C270 C271 1.443 . S
C270 C297 1.389 . S
C271 C270 1.443 . S
C271 C272 1.340 . S
C271 H303 0.951 . S
C272 C271 1.340 . S
C272 C273 1.439 . S
C272 H304 0.950 . S
C273 N269 1.374 . S
C273 C272 1.439 . S
C273 C298 1.395 1_545 S
N274 Co263 1.995 1_565 S
N274 C275 1.376 . S
N274 C278 1.383 . S
C275 N274 1.376 . S
C275 C276 1.446 . S
C275 C298 1.391 . S
C276 C275 1.446 . S
C276 C277 1.339 . S
C276 H305 0.949 . S
C277 C276 1.339 . S
C277 C278 1.439 . S
C277 H306 0.950 . S
C278 N274 1.383 . S
C278 C277 1.439 . S
C278 C296 1.392 . S
N279 Co263 2.282 . S
N279 C282 1.332 . S
N279 C284 1.332 . S
C280 C281 1.386 . S
C280 C283 1.388 . S
C281 C280 1.386 . S
C281 C282 1.382 . S
C281 H307 0.950 . S
C282 N279 1.332 . S
C282 C281 1.382 . S
C282 H293 0.952 . S
C283 C280 1.388 . S
C283 C284 1.382 . S
C283 H308 0.950 . S
C284 N279 1.332 . S
C284 C283 1.382 . S
C284 H294 0.948 . S
N285 Co263 2.282 1_565 S
N285 C289 1.332 . S
N285 C290 1.332 . S
C286 C287 1.388 . S
C286 C290 1.382 . S
C286 H309 0.950 . S
C287 C286 1.388 . S
C287 C288 1.386 . S
C288 C287 1.386 . S
C288 C289 1.382 . S
C288 H310 0.950 . S
C289 N285 1.332 . S
C289 C288 1.382 . S
C289 H291 0.952 1_565 S
C290 N285 1.332 . S
C290 C286 1.382 . S
C290 H292 0.948 . S
H291 C289 0.952 1_545 S
H292 C290 0.948 . S
H293 C282 0.952 . S
H294 C284 0.948 . S
C295 C261 1.395 . S
C295 C265 1.391 . S
C296 C258 1.389 . S
C296 C278 1.392 . S
C297 C268 1.392 . S
C297 C270 1.389 . S
C298 C273 1.395 1_565 S
C298 C275 1.391 . S
H299 C259 0.951 . S
H300 C260 0.950 . S
H301 C266 0.949 . S
H302 C267 0.950 . S
H303 C271 0.951 . S
H304 C272 0.950 . S
H305 C276 0.949 . S
H306 C277 0.950 . S
H307 C281 0.950 . S
H308 C283 0.950 . S
H309 C286 0.950 . S
H310 C288 0.950 . S
C311 C312 1.443 . S
C311 N315 1.376 . S
C311 C349 1.389 . S
C312 C311 1.443 . S
C312 C313 1.340 . S
C312 H352 0.951 . S
C313 C312 1.340 . S
C313 C314 1.439 . S
C313 H353 0.950 . S
C314 C313 1.439 . S
C314 N315 1.374 . S
C314 C348 1.395 . S
N315 C311 1.376 . S
N315 C314 1.374 . S
N315 Co316 2.008 . S
Co316 N315 2.008 . S
Co316 N317 2.000 . S
Co316 N322 2.008 1_554 S
Co316 N327 1.995 . S
Co316 N332 2.282 1_554 S
Co316 N338 2.282 . S
N317 Co316 2.000 . S
N317 C318 1.377 . S
N317 C321 1.374 1_554 S
C318 N317 1.377 . S
C318 C319 1.446 1_554 S
C318 C348 1.391 . S
C319 C318 1.446 1_556 S
C319 C320 1.339 . S
C319 H354 0.949 . S
C320 C319 1.339 . S
C320 C321 1.439 . S
C320 H355 0.950 . S
C321 N317 1.374 1_556 S
C321 C320 1.439 . S
C321 C350 1.392 . S
N322 Co316 2.008 1_556 S
N322 C323 1.376 . S
N322 C326 1.374 . S
C323 N322 1.376 . S
C323 C324 1.443 . S
C323 C350 1.389 . S
C324 C323 1.443 . S
C324 C325 1.340 . S
C324 H356 0.951 . S
C325 C324 1.340 . S
C325 C326 1.439 . S
C325 H357 0.950 . S
C326 N322 1.374 . S
C326 C325 1.439 . S
C326 C351 1.395 1_556 S
N327 Co316 1.995 . S
N327 C328 1.376 . S
N327 C331 1.383 . S
C328 N327 1.376 . S
C328 C329 1.446 . S
C328 C351 1.391 . S
C329 C328 1.446 . S
C329 C330 1.339 . S
C329 H358 0.949 . S
C330 C329 1.339 . S
C330 C331 1.439 . S
C330 H359 0.950 . S
C331 N327 1.383 . S
C331 C330 1.439 . S
C331 C349 1.392 . S
N332 Co316 2.282 1_556 S
N332 C335 1.332 . S
N332 C337 1.332 . S
C333 C334 1.386 . S
C333 C336 1.388 . S
C334 C333 1.386 . S
C334 C335 1.382 . S
C334 H360 0.950 . S
C335 N332 1.332 . S
C335 C334 1.382 . S
C335 H346 0.952 . S
C336 C333 1.388 . S
C336 C337 1.382 . S
C336 H361 0.950 . S
C337 N332 1.332 . S
C337 C336 1.382 . S
C337 H347 0.948 . S
N338 Co316 2.282 . S
N338 C342 1.332 . S
N338 C343 1.332 . S
C339 C340 1.388 . S
C339 C343 1.382 . S
C339 H362 0.950 . S
C340 C339 1.388 . S
C340 C341 1.386 . S
C341 C340 1.386 . S
C341 C342 1.382 . S
C341 H363 0.950 . S
C342 N338 1.332 . S
C342 C341 1.382 . S
C342 H344 0.952 . S
C343 N338 1.332 . S
C343 C339 1.382 . S
C343 H345 0.948 . S
H344 C342 0.952 . S
H345 C343 0.948 . S
H346 C335 0.952 . S
H347 C337 0.948 . S
C348 C314 1.395 . S
C348 C318 1.391 . S
C349 C311 1.389 . S
C349 C331 1.392 . S
C350 C321 1.392 . S
C350 C323 1.389 . S
C351 C326 1.395 1_554 S
C351 C328 1.391 . S
H352 C312 0.951 . S
H353 C313 0.950 . S
H354 C319 0.949 . S
H355 C320 0.950 . S
H356 C324 0.951 . S
H357 C325 0.950 . S
H358 C329 0.949 . S
H359 C330 0.950 . S
H360 C334 0.950 . S
H361 C336 0.950 . S
H362 C339 0.950 . S
H363 C341 0.950 . S
C364 C365 1.443 . S
C364 N368 1.376 . S
C364 C402 1.389 . S
C365 C364 1.443 . S
C365 C366 1.340 . S
C365 H405 0.951 . S
C366 C365 1.340 . S
C366 C367 1.439 . S
C366 H406 0.950 . S
C367 C366 1.439 . S
C367 N368 1.374 . S
C367 C401 1.395 . S
N368 C364 1.376 . S
N368 C367 1.374 . S
N368 Co369 1.991 1_455 S
Co369 N368 1.991 1_655 S
Co369 N370 1.983 1_655 S
Co369 N375 2.026 . S
Co369 N380 2.007 . S
Co369 N385 2.292 . S
Co369 N391 2.271 1_655 S
N370 Co369 1.983 1_455 S
N370 C371 1.376 . S
N370 C374 1.383 . S
C371 N370 1.376 . S
C371 C372 1.446 . S
C371 C401 1.391 . S
C372 C371 1.446 . S
C372 C373 1.339 . S
C372 H407 0.949 . S
C373 C372 1.339 . S
C373 C374 1.439 . S
C373 H408 0.950 . S
C374 N370 1.383 . S
C374 C373 1.439 . S
C374 C403 1.392 1_455 S
N375 Co369 2.026 . S
N375 C376 1.376 . S
N375 C379 1.374 . S
C376 N375 1.376 . S
C376 C377 1.443 . S
C376 C403 1.389 . S
C377 C376 1.443 . S
C377 C378 1.340 . S
C377 H409 0.951 . S
C378 C377 1.340 . S
C378 C379 1.439 . S
C378 H410 0.950 . S
C379 N375 1.374 . S
C379 C378 1.439 . S
C379 C404 1.395 . S
N380 Co369 2.007 . S
N380 C381 1.376 . S
N380 C384 1.383 . S
C381 N380 1.376 . S
C381 C382 1.446 . S
C381 C404 1.391 . S
C382 C381 1.446 . S
C382 C383 1.339 . S
C382 H411 0.949 . S
C383 C382 1.339 . S
C383 C384 1.439 . S
C383 H412 0.950 . S
C384 N380 1.383 . S
C384 C383 1.439 . S
C384 C402 1.392 1_655 S
N385 Co369 2.292 . S
N385 C388 1.332 . S
N385 C390 1.332 1_655 S
C386 C387 1.386 . S
C386 C389 1.388 1_655 S
C387 C386 1.386 . S
C387 C388 1.382 . S
C387 H413 0.950 . S
C388 N385 1.332 . S
C388 C387 1.382 . S
C388 H399 0.952 . S
C389 C386 1.388 1_455 S
C389 C390 1.382 . S
C389 H414 0.950 . S
C390 N385 1.332 1_455 S
C390 C389 1.382 . S
C390 H400 0.948 . S
N391 Co369 2.271 1_455 S
N391 C395 1.336 . S
N391 C396 1.330 1_455 S
C392 C393 1.388 1_655 S
C392 C396 1.382 . S
C392 H415 0.950 . S
C393 C392 1.388 1_455 S
C393 C394 1.386 . S
C394 C393 1.386 . S
C394 C395 1.382 . S
C394 H416 0.950 . S
C395 N391 1.336 . S
C395 C394 1.382 . S
C395 H397 0.952 . S
C396 N391 1.330 1_655 S
C396 C392 1.382 . S
C396 H398 0.948 . S
H397 C395 0.952 . S
H398 C396 0.948 . S
H399 C388 0.952 . S
H400 C390 0.948 . S
C401 C367 1.395 . S
C401 C371 1.391 . S
C402 C364 1.389 . S
C402 C384 1.392 1_455 S
C403 C374 1.392 1_655 S
C403 C376 1.389 . S
C404 C379 1.395 . S
C404 C381 1.391 . S
H405 C365 0.951 . S
H406 C366 0.950 . S
H407 C372 0.949 . S
H408 C373 0.950 . S
H409 C377 0.951 . S
H410 C378 0.950 . S
H411 C382 0.949 . S
H412 C383 0.950 . S
H413 C387 0.950 . S
H414 C389 0.950 . S
H415 C392 0.950 . S
H416 C394 0.950 . S
C417 C418 1.443 . S
C417 N421 1.376 . S
C417 C455 1.389 . S
C418 C417 1.443 . S
C418 C419 1.340 . S
C418 H458 0.951 . S
C419 C418 1.340 . S
C419 C420 1.439 . S
C419 H459 0.950 . S
C420 C419 1.439 . S
C420 N421 1.374 . S
C420 C454 1.395 . S
N421 C417 1.376 . S
N421 C420 1.374 . S
N421 Co422 2.008 . S
Co422 N421 2.008 . S
Co422 N423 1.995 . S
Co422 N428 2.008 . S
Co422 N433 1.995 . S
Co422 N438 2.282 . S
Co422 N444 2.282 . S
N423 Co422 1.995 . S
N423 C424 1.376 . S
N423 C427 1.383 . S
C424 N423 1.376 . S
C424 C425 1.446 . S
C424 C454 1.391 . S
C425 C424 1.446 . S
C425 C426 1.339 . S
C425 H460 0.949 . S
C426 C425 1.339 . S
C426 C427 1.439 . S
C426 H461 0.950 . S
C427 N423 1.383 . S
C427 C426 1.439 . S
C427 C456 1.392 . S
N428 Co422 2.008 . S
N428 C429 1.376 . S
N428 C432 1.374 . S
C429 N428 1.376 . S
C429 C430 1.443 . S
C429 C456 1.389 . S
C430 C429 1.443 . S
C430 C431 1.340 . S
C430 H462 0.951 . S
C431 C430 1.340 . S
C431 C432 1.439 . S
C431 H463 0.950 . S
C432 N428 1.374 . S
C432 C431 1.439 . S
C432 C457 1.395 . S
N433 Co422 1.995 . S
N433 C434 1.376 . S
N433 C437 1.383 . S
C434 N433 1.376 . S
C434 C435 1.446 . S
C434 C457 1.391 . S
C435 C434 1.446 . S
C435 C436 1.339 . S
C435 H464 0.949 . S
C436 C435 1.339 . S
C436 C437 1.439 . S
C436 H465 0.950 . S
C437 N433 1.383 . S
C437 C436 1.439 . S
C437 C455 1.392 . S
N438 Co422 2.282 . S
N438 C441 1.332 . S
N438 C443 1.332 . S
C439 C440 1.386 1_556 S
C439 C442 1.388 1_556 S
C440 C439 1.386 1_554 S
C440 C441 1.382 . S
C440 H466 0.950 1_554 S
C441 N438 1.332 . S
C441 C440 1.382 . S
C441 H452 0.952 . S
C442 C439 1.388 1_554 S
C442 C443 1.382 . S
C442 H467 0.950 1_554 S
C443 N438 1.332 . S
C443 C442 1.382 . S
C443 H453 0.948 . S
N444 Co422 2.282 . S
N444 C448 1.332 . S
N444 C449 1.332 . S
C445 C446 1.388 . S
C445 C449 1.382 . S
C445 H468 0.950 . S
C446 C445 1.388 . S
C446 C447 1.386 . S
C447 C446 1.386 . S
C447 C448 1.382 . S
C447 H469 0.950 . S
C448 N444 1.332 . S
C448 C447 1.382 . S
C448 H450 0.952 . S
C449 N444 1.332 . S
C449 C445 1.382 . S
C449 H451 0.948 . S
H450 C448 0.952 . S
H451 C449 0.948 . S
H452 C441 0.952 . S
H453 C443 0.948 . S
C454 C420 1.395 . S
C454 C424 1.391 . S
C455 C417 1.389 . S
C455 C437 1.392 . S
C456 C427 1.392 . S
C456 C429 1.389 . S
C457 C432 1.395 . S
C457 C434 1.391 . S
H458 C418 0.951 . S
H459 C419 0.950 . S
H460 C425 0.949 . S
H461 C426 0.950 . S
H462 C430 0.951 . S
H463 C431 0.950 . S
H464 C435 0.949 . S
H465 C436 0.950 . S
H466 C440 0.950 1_556 S
H467 C442 0.950 1_556 S
H468 C445 0.950 . S
H469 C447 0.950 . S
H470 C478 0.950 . S
H471 C483 0.950 . S
H472 C480 0.950 . S
H473 C482 0.950 . S
H474 C484 0.950 . S
H475 C486 0.950 . S
H476 C488 0.950 . S
H477 C489 0.950 . S
C478 H470 0.950 . S
C478 C479 1.386 . S
C478 C480 1.391 . S
C479 C478 1.386 . S
C479 C483 1.393 . S
C480 H472 0.950 . S
C480 C478 1.391 . S
C480 C481 1.400 . S
C481 C480 1.400 . S
C481 C482 1.398 . S
C481 C487 1.491 . S
C482 H473 0.950 . S
C482 C481 1.398 . S
C482 C483 1.391 . S
C483 H471 0.950 . S
C483 C479 1.393 . S
C483 C482 1.391 . S
C484 H474 0.950 . S
C484 C485 1.386 . S
C484 C486 1.391 . S
C485 C484 1.386 . S
C485 C489 1.393 . S
C486 H475 0.950 . S
C486 C484 1.391 . S
C486 C487 1.400 . S
C487 C481 1.491 . S
C487 C486 1.400 . S
C487 C488 1.398 . S
C488 H476 0.950 . S
C488 C487 1.398 . S
C488 C489 1.391 . S
C489 H477 0.950 . S
C489 C485 1.393 . S
C489 C488 1.391 . S
H490 C498 0.950 . S
H491 C503 0.950 . S
H492 C500 0.950 . S
H493 C502 0.950 . S
H494 C504 0.950 . S
H495 C506 0.950 . S
H496 C508 0.950 . S
H497 C509 0.950 . S
C498 H490 0.950 . S
C498 C499 1.386 . S
C498 C500 1.391 . S
C499 C498 1.386 . S
C499 C503 1.393 . S
C500 H492 0.950 . S
C500 C498 1.391 . S
C500 C501 1.400 . S
C501 C500 1.400 . S
C501 C502 1.398 . S
C501 C507 1.491 . S
C502 H493 0.950 . S
C502 C501 1.398 . S
C502 C503 1.391 . S
C503 H491 0.950 . S
C503 C499 1.393 . S
C503 C502 1.391 . S
C504 H494 0.950 . S
C504 C505 1.386 . S
C504 C506 1.391 . S
C505 C504 1.386 . S
C505 C509 1.393 . S
C506 H495 0.950 . S
C506 C504 1.391 . S
C506 C507 1.400 . S
C507 C501 1.491 . S
C507 C506 1.400 . S
C507 C508 1.398 . S
C508 H496 0.950 . S
C508 C507 1.398 . S
C508 C509 1.391 . S
C509 H497 0.950 . S
C509 C505 1.393 . S
C509 C508 1.391 . S
H510 C518 0.950 . S
H511 C523 0.950 . S
H512 C520 0.950 . S
H513 C522 0.950 1_455 S
H514 C524 0.950 . S
H515 C526 0.950 1_455 S
H516 C528 0.950 . S
H517 C529 0.950 . S
C518 H510 0.950 . S
C518 C519 1.386 . S
C518 C520 1.391 . S
C519 C518 1.386 . S
C519 C523 1.393 . S
C520 H512 0.950 . S
C520 C518 1.391 . S
C520 C521 1.400 . S
C521 C520 1.400 . S
C521 C522 1.398 . S
C521 C527 1.491 . S
C522 H513 0.950 1_655 S
C522 C521 1.398 . S
C522 C523 1.391 . S
C523 H511 0.950 . S
C523 C519 1.393 . S
C523 C522 1.391 . S
C524 H514 0.950 . S
C524 C525 1.386 1_455 S
C524 C526 1.391 1_455 S
C525 C524 1.386 1_655 S
C525 C529 1.393 . S
C526 H515 0.950 1_655 S
C526 C524 1.391 1_655 S
C526 C527 1.400 . S
C527 C521 1.491 . S
C527 C526 1.400 . S
C527 C528 1.398 . S
C528 H516 0.950 . S
C528 C527 1.398 . S
C528 C529 1.391 . S
C529 H517 0.950 . S
C529 C525 1.393 . S
C529 C528 1.391 . S
H530 C538 0.950 . S
H531 C543 0.950 . S
H532 C540 0.950 . S
H533 C542 0.950 . S
H534 C544 0.950 . S
H535 C546 0.950 . S
H536 C548 0.950 . S
H537 C549 0.950 . S
C538 H530 0.950 . S
C538 C539 1.386 . S
C538 C540 1.391 . S
C539 C538 1.386 . S
C539 C543 1.393 . S
C540 H532 0.950 . S
C540 C538 1.391 . S
C540 C541 1.400 . S
C541 C540 1.400 . S
C541 C542 1.398 . S
C541 C547 1.491 . S
C542 H533 0.950 . S
C542 C541 1.398 . S
C542 C543 1.391 . S
C543 H531 0.950 . S
C543 C539 1.393 . S
C543 C542 1.391 . S
C544 H534 0.950 . S
C544 C545 1.386 . S
C544 C546 1.391 . S
C545 C544 1.386 . S
C545 C549 1.393 . S
C546 H535 0.950 . S
C546 C544 1.391 . S
C546 C547 1.400 . S
C547 C541 1.491 . S
C547 C546 1.400 . S
C547 C548 1.398 . S
C548 H536 0.950 . S
C548 C547 1.398 . S
C548 C549 1.391 . S
C549 H537 0.950 . S
C549 C545 1.393 . S
C549 C548 1.391 . S
H550 C558 0.950 . S
H551 C563 0.950 . S
H552 C560 0.950 . S
H553 C562 0.950 . S
H554 C564 0.950 . S
H555 C566 0.950 . S
H556 C568 0.950 . S
H557 C569 0.950 . S
C558 H550 0.950 . S
C558 C559 1.386 . S
C558 C560 1.391 . S
C559 C558 1.386 . S
C559 C563 1.393 . S
C560 H552 0.950 . S
C560 C558 1.391 . S
C560 C561 1.400 . S
C561 C560 1.400 . S
C561 C562 1.398 . S
C561 C567 1.491 . S
C562 H553 0.950 . S
C562 C561 1.398 . S
C562 C563 1.391 . S
C563 H551 0.950 . S
C563 C559 1.393 . S
C563 C562 1.391 . S
C564 H554 0.950 . S
C564 C565 1.386 . S
C564 C566 1.391 . S
C565 C564 1.386 . S
C565 C569 1.393 . S
C566 H555 0.950 . S
C566 C564 1.391 . S
C566 C567 1.400 . S
C567 C561 1.491 . S
C567 C566 1.400 . S
C567 C568 1.398 . S
C568 H556 0.950 . S
C568 C567 1.398 . S
C568 C569 1.391 . S
C569 H557 0.950 . S
C569 C565 1.393 . S
C569 C568 1.391 . S
H570 C578 0.950 . S
H571 C583 0.950 . S
H572 C580 0.950 . S
H573 C582 0.950 . S
H574 C584 0.950 . S
H575 C586 0.950 . S
H576 C588 0.950 . S
H577 C589 0.950 . S
C578 H570 0.950 . S
C578 C579 1.386 . S
C578 C580 1.391 . S
C579 C578 1.386 . S
C579 C583 1.393 . S
C580 H572 0.950 . S
C580 C578 1.391 . S
C580 C581 1.400 . S
C581 C580 1.400 . S
C581 C582 1.398 . S
C581 C587 1.491 . S
C582 H573 0.950 . S
C582 C581 1.398 . S
C582 C583 1.391 . S
C583 H571 0.950 . S
C583 C579 1.393 . S
C583 C582 1.391 . S
C584 H574 0.950 . S
C584 C585 1.386 . S
C584 C586 1.391 . S
C585 C584 1.386 . S
C585 C589 1.393 . S
C586 H575 0.950 . S
C586 C584 1.391 . S
C586 C587 1.400 . S
C587 C581 1.491 . S
C587 C586 1.400 . S
C587 C588 1.398 . S
C588 H576 0.950 . S
C588 C587 1.398 . S
C588 C589 1.391 . S
C589 H577 0.950 . S
C589 C585 1.393 . S
C589 C588 1.391 . S
H590 C598 0.950 . S
H591 C603 0.950 1_455 S
H592 C600 0.950 . S
H593 C602 0.950 1_455 S
H594 C604 0.950 . S
H595 C606 0.950 . S
H596 C608 0.969 . S
H597 C609 0.950 . S
C598 H590 0.950 . S
C598 C599 1.386 . S
C598 C600 1.391 . S
C599 C598 1.386 . S
C599 C603 1.393 . S
C600 H592 0.950 . S
C600 C598 1.391 . S
C600 C601 1.400 . S
C601 C600 1.400 . S
C601 C602 1.398 . S
C601 C607 1.491 1_565 S
C602 H593 0.950 1_655 S
C602 C601 1.398 . S
C602 C603 1.391 . S
C603 H591 0.950 1_655 S
C603 C599 1.393 . S
C603 C602 1.391 . S
C604 H594 0.950 . S
C604 C605 1.386 . S
C604 C606 1.391 . S
C605 C604 1.386 . S
C605 C609 1.393 1_455 S
C606 H595 0.950 . S
C606 C604 1.391 . S
C606 C607 1.400 1_455 S
C607 C601 1.491 1_545 S
C607 C606 1.400 1_655 S
C607 C608 1.398 . S
C608 H596 0.969 . S
C608 C607 1.398 . S
C608 C609 1.391 . S
C609 H597 0.950 . S
C609 C605 1.393 1_655 S
C609 C608 1.391 . S
H610 C618 0.950 . S
H611 C623 0.950 . S
H612 C620 0.950 . S
H613 C622 0.950 . S
H614 C624 0.950 . S
H615 C626 0.950 . S
H616 C628 0.950 . S
H617 C629 0.950 . S
C618 H610 0.950 . S
C618 C619 1.386 1_554 S
C618 C620 1.391 . S
C619 C618 1.386 1_556 S
C619 C623 1.393 . S
C620 H612 0.950 . S
C620 C618 1.391 . S
C620 C621 1.400 . S
C621 C620 1.400 . S
C621 C622 1.398 1_554 S
C621 C627 1.491 . S
C622 H613 0.950 . S
C622 C621 1.398 1_556 S
C622 C623 1.391 . S
C623 H611 0.950 . S
C623 C619 1.393 . S
C623 C622 1.391 . S
C624 H614 0.950 . S
C624 C625 1.386 . S
C624 C626 1.391 . S
C625 C624 1.386 . S
C625 C629 1.393 . S
C626 H615 0.950 . S
C626 C624 1.391 . S
C626 C627 1.400 . S
C627 C621 1.491 . S
C627 C626 1.400 . S
C627 C628 1.398 . S
C628 H616 0.950 . S
C628 C627 1.398 . S
C628 C629 1.391 . S
C629 H617 0.950 . S
C629 C625 1.393 . S
C629 C628 1.391 . S
H630 C638 0.950 . S
H631 C643 0.950 . S
H632 C640 0.950 . S
H633 C642 0.950 . S
H634 C644 0.950 . S
H635 C646 0.950 . S
H636 C648 0.950 . S
H637 C649 0.950 . S
C638 H630 0.950 . S
C638 C639 1.386 . S
C638 C640 1.391 . S
C639 C638 1.386 . S
C639 C643 1.393 . S
C640 H632 0.950 . S
C640 C638 1.391 . S
C640 C641 1.400 . S
C641 C640 1.400 . S
C641 C642 1.398 . S
C641 C647 1.491 . S
C642 H633 0.950 . S
C642 C641 1.398 . S
C642 C643 1.391 . S
C643 H631 0.950 . S
C643 C639 1.393 . S
C643 C642 1.391 . S
C644 H634 0.950 . S
C644 C645 1.386 . S
C644 C646 1.391 . S
C645 C644 1.386 . S
C645 C649 1.393 . S
C646 H635 0.950 . S
C646 C644 1.391 . S
C646 C647 1.400 . S
C647 C641 1.491 . S
C647 C646 1.400 . S
C647 C648 1.398 . S
C648 H636 0.950 . S
C648 C647 1.398 . S
C648 C649 1.391 . S
C649 H637 0.950 . S
C649 C645 1.393 . S
C649 C648 1.391 . S
H650 C658 0.950 . S
H651 C663 0.950 . S
H652 C660 0.950 . S
H653 C662 0.950 . S
H654 C664 0.950 . S
H655 C666 0.950 . S
H656 C668 0.950 . S
H657 C669 0.950 . S
C658 H650 0.950 . S
C658 C659 1.386 . S
C658 C660 1.391 . S
C659 C658 1.386 . S
C659 C663 1.393 . S
C660 H652 0.950 . S
C660 C658 1.391 . S
C660 C661 1.400 . S
C661 C660 1.400 . S
C661 C662 1.398 . S
C661 C667 1.491 . S
C662 H653 0.950 . S
C662 C661 1.398 . S
C662 C663 1.391 . S
C663 H651 0.950 . S
C663 C659 1.393 . S
C663 C662 1.391 . S
C664 H654 0.950 . S
C664 C665 1.386 . S
C664 C666 1.391 . S
C665 C664 1.386 . S
C665 C669 1.393 . S
C666 H655 0.950 . S
C666 C664 1.391 . S
C666 C667 1.400 . S
C667 C661 1.491 . S
C667 C666 1.400 . S
C667 C668 1.398 . S
C668 H656 0.950 . S
C668 C667 1.398 . S
C668 C669 1.391 . S
C669 H657 0.950 . S
C669 C665 1.393 . S
C669 C668 1.391 . S
H670 C678 0.950 . S
H671 C683 0.950 . S
H672 C680 0.950 . S
H673 C682 0.950 . S
H674 C684 0.950 . S
H675 C686 0.950 . S
H676 C688 0.950 . S
H677 C689 0.950 1_455 S
C678 H670 0.950 . S
C678 C679 1.386 . S
C678 C680 1.391 . S
C679 C678 1.386 . S
C679 C683 1.393 . S
C680 H672 0.950 . S
C680 C678 1.391 . S
C680 C681 1.400 . S
C681 C680 1.400 . S
C681 C682 1.398 . S
C681 C687 1.491 . S
C682 H673 0.950 . S
C682 C681 1.398 . S
C682 C683 1.391 . S
C683 H671 0.950 . S
C683 C679 1.393 . S
C683 C682 1.391 . S
C684 H674 0.950 . S
C684 C685 1.386 . S
C684 C686 1.391 . S
C685 C684 1.386 . S
C685 C689 1.393 . S
C686 H675 0.950 . S
C686 C684 1.391 . S
C686 C687 1.400 . S
C687 C681 1.491 . S
C687 C686 1.400 . S
C687 C688 1.398 . S
C688 H676 0.950 . S
C688 C687 1.398 . S
C688 C689 1.391 . S
C689 H677 0.950 1_655 S
C689 C685 1.393 . S
C689 C688 1.391 . S
H690 C698 0.950 . S
H691 C703 0.950 . S
H692 C700 0.950 . S
H693 C702 0.950 . S
H694 C704 0.950 . S
H695 C706 0.950 . S
H696 C708 0.950 . S
H697 C709 0.950 . S
C698 H690 0.950 . S
C698 C699 1.386 . S
C698 C700 1.391 . S
C699 C698 1.386 . S
C699 C703 1.393 . S
C700 H692 0.950 . S
C700 C698 1.391 . S
C700 C701 1.400 . S
C701 C700 1.400 . S
C701 C702 1.398 . S
C701 C707 1.491 . S
C702 H693 0.950 . S
C702 C701 1.398 . S
C702 C703 1.391 . S
C703 H691 0.950 . S
C703 C699 1.393 . S
C703 C702 1.391 . S
C704 H694 0.950 . S
C704 C705 1.386 . S
C704 C706 1.391 . S
C705 C704 1.386 . S
C705 C709 1.393 . S
C706 H695 0.950 . S
C706 C704 1.391 . S
C706 C707 1.400 . S
C707 C701 1.491 . S
C707 C706 1.400 . S
C707 C708 1.398 . S
C708 H696 0.950 . S
C708 C707 1.398 . S
C708 C709 1.391 . S
C709 H697 0.950 . S
C709 C705 1.393 . S
C709 C708 1.391 . S
H710 C718 0.950 . S
H711 C723 0.950 . S
H712 C720 0.950 . S
H713 C722 0.950 . S
H714 C724 0.950 . S
H715 C726 0.950 . S
H716 C728 0.950 . S
H717 C729 0.950 . S
C718 H710 0.950 . S
C718 C719 1.386 . S
C718 C720 1.391 . S
C719 C718 1.386 . S
C719 C723 1.393 1_655 S
C720 H712 0.950 . S
C720 C718 1.391 . S
C720 C721 1.400 . S
C721 C720 1.400 . S
C721 C722 1.398 1_655 S
C721 C727 1.491 . S
C722 H713 0.950 . S
C722 C721 1.398 1_455 S
C722 C723 1.391 . S
C723 H711 0.950 . S
C723 C719 1.393 1_455 S
C723 C722 1.391 . S
C724 H714 0.950 . S
C724 C725 1.386 1_455 S
C724 C726 1.391 . S
C725 C724 1.386 1_655 S
C725 C729 1.393 . S
C726 H715 0.950 . S
C726 C724 1.391 . S
C726 C727 1.400 1_455 S
C727 C721 1.491 . S
C727 C726 1.400 1_655 S
C727 C728 1.398 . S
C728 H716 0.950 . S
C728 C727 1.398 . S
C728 C729 1.391 . S
C729 H717 0.950 . S
C729 C725 1.393 . S
C729 C728 1.391 . S
H730 C738 0.950 . S
H731 C743 0.950 . S
H732 C740 0.950 . S
H733 C742 0.950 . S
H734 C744 0.950 . S
H735 C746 0.950 . S
H736 C748 0.950 . S
H737 C749 0.950 . S
C738 H730 0.950 . S
C738 C739 1.386 . S
C738 C740 1.391 . S
C739 C738 1.386 . S
C739 C743 1.393 . S
C740 H732 0.950 . S
C740 C738 1.391 . S
C740 C741 1.400 . S
C741 C740 1.400 . S
C741 C742 1.398 . S
C741 C747 1.491 . S
C742 H733 0.950 . S
C742 C741 1.398 . S
C742 C743 1.391 . S
C743 H731 0.950 . S
C743 C739 1.393 . S
C743 C742 1.391 . S
C744 H734 0.950 . S
C744 C745 1.386 . S
C744 C746 1.391 . S
C745 C744 1.386 . S
C745 C749 1.393 . S
C746 H735 0.950 . S
C746 C744 1.391 . S
C746 C747 1.400 . S
C747 C741 1.491 . S
C747 C746 1.400 . S
C747 C748 1.398 . S
C748 H736 0.950 . S
C748 C747 1.398 . S
C748 C749 1.391 . S
C749 H737 0.950 . S
C749 C745 1.393 . S
C749 C748 1.391 . S
H750 C758 0.950 . S
H751 C763 0.950 . S
H752 C760 0.950 . S
H753 C762 0.950 . S
H754 C764 0.950 . S
H755 C766 0.950 . S
H756 C768 0.950 . S
H757 C769 0.950 . S
C758 H750 0.950 . S
C758 C759 1.386 . S
C758 C760 1.391 . S
C759 C758 1.386 . S
C759 C763 1.393 . S
C760 H752 0.950 . S
C760 C758 1.391 . S
C760 C761 1.400 . S
C761 C760 1.400 . S
C761 C762 1.398 . S
C761 C767 1.491 . S
C762 H753 0.950 . S
C762 C761 1.398 . S
C762 C763 1.391 . S
C763 H751 0.950 . S
C763 C759 1.393 . S
C763 C762 1.391 . S
C764 H754 0.950 . S
C764 C765 1.386 . S
C764 C766 1.391 . S
C765 C764 1.386 . S
C765 C769 1.393 . S
C766 H755 0.950 . S
C766 C764 1.391 . S
C766 C767 1.400 . S
C767 C761 1.491 . S
C767 C766 1.400 . S
C767 C768 1.398 . S
C768 H756 0.950 . S
C768 C767 1.398 . S
C768 C769 1.391 . S
C769 H757 0.950 . S
C769 C765 1.393 . S
C769 C768 1.391 . S
H770 C778 0.950 . S
H771 C783 0.950 . S
H772 C780 0.950 . S
H773 C782 0.950 . S
H774 C784 0.950 . S
H775 C786 0.950 . S
H776 C788 0.950 . S
H777 C789 0.950 . S
C778 H770 0.950 . S
C778 C779 1.386 . S
C778 C780 1.391 . S
C779 C778 1.386 . S
C779 C783 1.393 . S
C780 H772 0.950 . S
C780 C778 1.391 . S
C780 C781 1.400 . S
C781 C780 1.400 . S
C781 C782 1.398 . S
C781 C787 1.491 . S
C782 H773 0.950 . S
C782 C781 1.398 . S
C782 C783 1.391 . S
C783 H771 0.950 . S
C783 C779 1.393 . S
C783 C782 1.391 . S
C784 H774 0.950 . S
C784 C785 1.386 . S
C784 C786 1.391 . S
C785 C784 1.386 . S
C785 C789 1.393 . S
C786 H775 0.950 . S
C786 C784 1.391 . S
C786 C787 1.400 . S
C787 C781 1.491 . S
C787 C786 1.400 . S
C787 C788 1.398 . S
C788 H776 0.950 . S
C788 C787 1.398 . S
C788 C789 1.391 . S
C789 H777 0.950 . S
C789 C785 1.393 . S
C789 C788 1.391 . S
H790 C798 0.950 . S
H791 C803 0.950 . S
H792 C800 0.950 . S
H793 C802 0.950 . S
H794 C804 0.950 . S
H795 C806 0.950 . S
H796 C808 0.950 . S
H797 C809 0.950 . S
C798 H790 0.950 . S
C798 C799 1.386 1_655 S
C798 C800 1.391 . S
C799 C798 1.386 1_455 S
C799 C803 1.393 . S
C800 H792 0.950 . S
C800 C798 1.391 . S
C800 C801 1.400 1_655 S
C801 C800 1.400 1_455 S
C801 C802 1.398 . S
C801 C807 1.491 1_565 S
C802 H793 0.950 . S
C802 C801 1.398 . S
C802 C803 1.391 . S
C803 H791 0.950 . S
C803 C799 1.393 . S
C803 C802 1.391 . S
C804 H794 0.950 . S
C804 C805 1.386 . S
C804 C806 1.391 . S
C805 C804 1.386 . S
C805 C809 1.393 1_455 S
C806 H795 0.950 . S
C806 C804 1.391 . S
C806 C807 1.400 . S
C807 C801 1.491 1_545 S
C807 C806 1.400 . S
C807 C808 1.398 1_455 S
C808 H796 0.950 . S
C808 C807 1.398 1_655 S
C808 C809 1.391 . S
C809 H797 0.950 . S
C809 C805 1.393 1_655 S
C809 C808 1.391 . S
H810 C818 0.950 . S
H811 C823 0.950 . S
H812 C820 0.950 . S
H813 C822 0.950 . S
H814 C824 0.950 . S
H815 C826 0.950 . S
H816 C828 0.950 . S
H817 C829 0.950 . S
C818 H810 0.950 . S
C818 C819 1.386 . S
C818 C820 1.391 . S
C819 C818 1.386 . S
C819 C823 1.393 . S
C820 H812 0.950 . S
C820 C818 1.391 . S
C820 C821 1.400 . S
C821 C820 1.400 . S
C821 C822 1.398 . S
C821 C827 1.491 . S
C822 H813 0.950 . S
C822 C821 1.398 . S
C822 C823 1.391 . S
C823 H811 0.950 . S
C823 C819 1.393 . S
C823 C822 1.391 . S
C824 H814 0.950 . S
C824 C825 1.386 . S
C824 C826 1.391 . S
C825 C824 1.386 . S
C825 C829 1.393 . S
C826 H815 0.950 . S
C826 C824 1.391 . S
C826 C827 1.400 . S
C827 C821 1.491 . S
C827 C826 1.400 . S
C827 C828 1.398 . S
C828 H816 0.950 . S
C828 C827 1.398 . S
C828 C829 1.391 . S
C829 H817 0.950 . S
C829 C825 1.393 . S
C829 C828 1.391 . S
H830 C838 0.950 . S
H831 C843 0.950 . S
H832 C840 0.950 . S
H833 C842 0.950 . S
H834 C844 0.950 . S
H835 C846 0.950 . S
H836 C848 0.950 . S
H837 C849 0.950 . S
C838 H830 0.950 . S
C838 C839 1.386 . S
C838 C840 1.391 . S
C839 C838 1.386 . S
C839 C843 1.393 . S
C840 H832 0.950 . S
C840 C838 1.391 . S
C840 C841 1.400 . S
C841 C840 1.400 . S
C841 C842 1.398 . S
C841 C847 1.491 . S
C842 H833 0.950 . S
C842 C841 1.398 . S
C842 C843 1.391 . S
C843 H831 0.950 . S
C843 C839 1.393 . S
C843 C842 1.391 . S
C844 H834 0.950 . S
C844 C845 1.386 . S
C844 C846 1.391 . S
C845 C844 1.386 . S
C845 C849 1.393 . S
C846 H835 0.950 . S
C846 C844 1.391 . S
C846 C847 1.400 . S
C847 C841 1.491 . S
C847 C846 1.400 . S
C847 C848 1.398 . S
C848 H836 0.950 . S
C848 C847 1.398 . S
C848 C849 1.391 . S
C849 H837 0.950 . S
C849 C845 1.393 . S
C849 C848 1.391 . S
H850 C858 0.950 . S
H851 C863 0.950 . S
H852 C860 0.950 . S
H853 C862 0.950 . S
H854 C864 0.950 . S
H855 C866 0.950 . S
H856 C868 0.950 . S
H857 C869 0.950 . S
C858 H850 0.950 . S
C858 C859 1.386 . S
C858 C860 1.391 . S
C859 C858 1.386 . S
C859 C863 1.393 . S
C860 H852 0.950 . S
C860 C858 1.391 . S
C860 C861 1.400 . S
C861 C860 1.400 . S
C861 C862 1.398 . S
C861 C867 1.491 . S
C862 H853 0.950 . S
C862 C861 1.398 . S
C862 C863 1.391 . S
C863 H851 0.950 . S
C863 C859 1.393 . S
C863 C862 1.391 . S
C864 H854 0.950 . S
C864 C865 1.386 . S
C864 C866 1.391 . S
C865 C864 1.386 . S
C865 C869 1.393 . S
C866 H855 0.950 . S
C866 C864 1.391 . S
C866 C867 1.400 . S
C867 C861 1.491 . S
C867 C866 1.400 . S
C867 C868 1.398 . S
C868 H856 0.950 . S
C868 C867 1.398 . S
C868 C869 1.391 . S
C869 H857 0.950 . S
C869 C865 1.393 . S
C869 C868 1.391 . S
H870 C878 0.950 . S
H871 C883 0.950 . S
H872 C880 0.950 . S
H873 C882 0.950 . S
H874 C884 0.950 1_455 S
H875 C886 0.950 . S
H876 C888 0.950 . S
H877 C889 0.950 . S
C878 H870 0.950 . S
C878 C879 1.386 . S
C878 C880 1.391 . S
C879 C878 1.386 . S
C879 C883 1.393 . S
C880 H872 0.950 . S
C880 C878 1.391 . S
C880 C881 1.400 . S
C881 C880 1.400 . S
C881 C882 1.398 . S
C881 C887 1.491 . S
C882 H873 0.950 . S
C882 C881 1.398 . S
C882 C883 1.391 . S
C883 H871 0.950 . S
C883 C879 1.393 . S
C883 C882 1.391 . S
C884 H874 0.950 1_655 S
C884 C885 1.386 . S
C884 C886 1.391 . S
C885 C884 1.386 . S
C885 C889 1.393 . S
C886 H875 0.950 . S
C886 C884 1.391 . S
C886 C887 1.400 . S
C887 C881 1.491 . S
C887 C886 1.400 . S
C887 C888 1.398 . S
C888 H876 0.950 . S
C888 C887 1.398 . S
C888 C889 1.391 . S
C889 H877 0.950 . S
C889 C885 1.393 . S
C889 C888 1.391 . S
H890 C898 0.950 . S
H891 C903 0.950 . S
H892 C900 0.950 . S
H893 C902 0.950 . S
H894 C904 0.950 . S
H895 C906 0.950 . S
H896 C908 0.950 . S
H897 C909 0.950 . S
C898 H890 0.950 . S
C898 C899 1.386 . S
C898 C900 1.391 . S
C899 C898 1.386 . S
C899 C903 1.393 . S
C900 H892 0.950 . S
C900 C898 1.391 . S
C900 C901 1.400 . S
C901 C900 1.400 . S
C901 C902 1.398 . S
C901 C907 1.491 . S
C902 H893 0.950 . S
C902 C901 1.398 . S
C902 C903 1.391 . S
C903 H891 0.950 . S
C903 C899 1.393 . S
C903 C902 1.391 . S
C904 H894 0.950 . S
C904 C905 1.386 . S
C904 C906 1.391 . S
C905 C904 1.386 . S
C905 C909 1.393 . S
C906 H895 0.950 . S
C906 C904 1.391 . S
C906 C907 1.400 . S
C907 C901 1.491 . S
C907 C906 1.400 . S
C907 C908 1.398 . S
C908 H896 0.950 . S
C908 C907 1.398 . S
C908 C909 1.391 . S
C909 H897 0.950 . S
C909 C905 1.393 . S
C909 C908 1.391 . S
H910 C918 0.950 . S
H911 C923 0.950 . S
H912 C920 0.950 . S
H913 C922 0.950 . S
H914 C924 0.950 . S
H915 C926 0.950 . S
H916 C928 0.950 . S
H917 C929 0.950 . S
C918 H910 0.950 . S
C918 C919 1.386 . S
C918 C920 1.391 . S
C919 C918 1.386 . S
C919 C923 1.393 . S
C920 H912 0.950 . S
C920 C918 1.391 . S
C920 C921 1.400 . S
C921 C920 1.400 . S
C921 C922 1.398 . S
C921 C927 1.491 . S
C922 H913 0.950 . S
C922 C921 1.398 . S
C922 C923 1.391 . S
C923 H911 0.950 . S
C923 C919 1.393 . S
C923 C922 1.391 . S
C924 H914 0.950 . S
C924 C925 1.386 . S
C924 C926 1.391 . S
C925 C924 1.386 . S
C925 C929 1.393 . S
C926 H915 0.950 . S
C926 C924 1.391 . S
C926 C927 1.400 . S
C927 C921 1.491 . S
C927 C926 1.400 . S
C927 C928 1.398 . S
C928 H916 0.950 . S
C928 C927 1.398 . S
C928 C929 1.391 . S
C929 H917 0.950 . S
C929 C925 1.393 . S
C929 C928 1.391 . S
H930 C938 0.950 . S
H931 C943 0.950 . S
H932 C940 0.950 . S
H933 C942 0.950 . S
H934 C944 0.950 . S
H935 C946 0.950 . S
H936 C948 0.950 . S
H937 C949 0.950 . S
C938 H930 0.950 . S
C938 C939 1.386 . S
C938 C940 1.391 . S
C939 C938 1.386 . S
C939 C943 1.393 . S
C940 H932 0.950 . S
C940 C938 1.391 . S
C940 C941 1.400 . S
C941 C940 1.400 . S
C941 C942 1.398 . S
C941 C947 1.491 . S
C942 H933 0.950 . S
C942 C941 1.398 . S
C942 C943 1.391 . S
C943 H931 0.950 . S
C943 C939 1.393 . S
C943 C942 1.391 . S
C944 H934 0.950 . S
C944 C945 1.386 . S
C944 C946 1.391 . S
C945 C944 1.386 . S
C945 C949 1.393 . S
C946 H935 0.950 . S
C946 C944 1.391 . S
C946 C947 1.400 . S
C947 C941 1.491 . S
C947 C946 1.400 . S
C947 C948 1.398 . S
C948 H936 0.950 . S
C948 C947 1.398 . S
C948 C949 1.391 . S
C949 H937 0.950 . S
C949 C945 1.393 . S
C949 C948 1.391 . S
C485 C174 1.517 . S
C479 C11 1.379 . S
C505 C243 1.672 . S
C499 C25 1.641 . S
C525 C181 1.234 . S
C519 C40 1.192 . S
C545 C244 1.434 . S
C539 C59 1.386 . S
C565 C297 1.857 . S
C559 C6 1.840 . S
C585 C333 1.780 . S
C579 C21 1.704 . S
C599 C49 1.579 . S
C605 C393 1.627 . S
C625 C456 1.515 . S
C619 C68 1.432 . S
C645 C296 1.814 . S
C639 C30 1.624 . S
C659 C44 1.666 . S
C665 C340 1.676 . S
C685 C386 1.746 . S
C679 C63 1.759 . S
C705 C455 1.688 . S
C699 C2 1.663 . S
C719 C78 1.698 . S
C725 C234 1.737 1_655 S
C745 C191 1.555 . S
C739 C97 1.468 . S
C759 C120 1.667 . S
C765 C227 1.675 . S
C779 C139 1.688 . S
C785 C190 1.696 . S
C805 C402 1.579 . S
C799 C87 1.435 1_455 S
C825 C446 1.632 . S
C819 C101 1.596 . S
C845 C280 1.628 . S
C839 C125 1.496 . S
C859 C144 1.688 . S
C865 C349 1.771 . S
C885 C403 1.767 . S
C879 C106 1.513 . S
C905 C439 1.628 . S
C899 C116 1.603 . S
C925 C287 1.631 . S
C919 C135 1.591 . S
C939 C82 1.766 . S
C945 C350 1.751 . S
