# Generated by pormake.
# Topology zzz, (3,6)-cn, num edge types: 1
# Building blocks:
#     Node 0, Type 0, BuildingBlock: BETDAH_clean_linker_0, # of connection points: 3
#     Node 1, Type 0, BuildingBlock: BETDAH_clean_linker_0, # of connection points: 3
#     Node 2, Type 0, BuildingBlock: BETDAH_clean_linker_0, # of connection points: 3
#     Node 3, Type 0, BuildingBlock: BETDAH_clean_linker_0, # of connection points: 3
#     Node 4, Type 0, BuildingBlock: BETDAH_clean_linker_0, # of connection points: 3
#     Node 5, Type 0, BuildingBlock: BETDAH_clean_linker_0, # of connection points: 3
#     Node 6, Type 0, BuildingBlock: BETDAH_clean_linker_0, # of connection points: 3
#     Node 7, Type 0, BuildingBlock: BETDAH_clean_linker_0, # of connection points: 3
#     Node 8, Type 1, BuildingBlock: CUKXOW_clean_sbu_0, # of connection points: 6
#     Node 9, Type 1, BuildingBlock: CUKXOW_clean_sbu_0, # of connection points: 6
#     Node 10, Type 1, BuildingBlock: CUKXOW_clean_sbu_0, # of connection points: 6
#     Node 11, Type 1, BuildingBlock: CUKXOW_clean_sbu_0, # of connection points: 6
#     Edge 12, Type (0, 1), BuildingBlock: ZUJKAS_clean_linker_0, # of connection points: 2
#     Edge 13, Type (0, 1), BuildingBlock: ZUJKAS_clean_linker_0, # of connection points: 2
#     Edge 14, Type (0, 1), BuildingBlock: ZUJKAS_clean_linker_0, # of connection points: 2
#     Edge 15, Type (0, 1), BuildingBlock: ZUJKAS_clean_linker_0, # of connection points: 2
#     Edge 16, Type (0, 1), BuildingBlock: ZUJKAS_clean_linker_0, # of connection points: 2
#     Edge 17, Type (0, 1), BuildingBlock: ZUJKAS_clean_linker_0, # of connection points: 2
#     Edge 18, Type (0, 1), BuildingBlock: ZUJKAS_clean_linker_0, # of connection points: 2
#     Edge 19, Type (0, 1), BuildingBlock: ZUJKAS_clean_linker_0, # of connection points: 2
#     Edge 20, Type (0, 1), BuildingBlock: ZUJKAS_clean_linker_0, # of connection points: 2
#     Edge 21, Type (0, 1), BuildingBlock: ZUJKAS_clean_linker_0, # of connection points: 2
#     Edge 22, Type (0, 1), BuildingBlock: ZUJKAS_clean_linker_0, # of connection points: 2
#     Edge 23, Type (0, 1), BuildingBlock: ZUJKAS_clean_linker_0, # of connection points: 2
#     Edge 24, Type (0, 1), BuildingBlock: ZUJKAS_clean_linker_0, # of connection points: 2
#     Edge 25, Type (0, 1), BuildingBlock: ZUJKAS_clean_linker_0, # of connection points: 2
#     Edge 26, Type (0, 1), BuildingBlock: ZUJKAS_clean_linker_0, # of connection points: 2
#     Edge 27, Type (0, 1), BuildingBlock: ZUJKAS_clean_linker_0, # of connection points: 2
#     Edge 28, Type (0, 1), BuildingBlock: ZUJKAS_clean_linker_0, # of connection points: 2
#     Edge 29, Type (0, 1), BuildingBlock: ZUJKAS_clean_linker_0, # of connection points: 2
#     Edge 30, Type (0, 1), BuildingBlock: ZUJKAS_clean_linker_0, # of connection points: 2
#     Edge 31, Type (0, 1), BuildingBlock: ZUJKAS_clean_linker_0, # of connection points: 2
#     Edge 32, Type (0, 1), BuildingBlock: ZUJKAS_clean_linker_0, # of connection points: 2
#     Edge 33, Type (0, 1), BuildingBlock: ZUJKAS_clean_linker_0, # of connection points: 2
#     Edge 34, Type (0, 1), BuildingBlock: ZUJKAS_clean_linker_0, # of connection points: 2
#     Edge 35, Type (0, 1), BuildingBlock: ZUJKAS_clean_linker_0, # of connection points: 2
# Relax obj value: 0.071
# Max RMSD: 0.117
# Mean RMSD: 0.084
data_MOF--net-zzz--node1-CUKXOW_clean_sbu_0--node2-BETDAH_clean_linker_0--edge1-ZUJKAS_clean_linker_0
_symmetry_space_group_name_H-M    P1
_symmetry_Int_Tables_number       1
_symmetry_cell_setting            triclinic
loop_
_symmetry_equiv_pos_as_xyz
'x, y, z'
_cell_length_a     65.97603
_cell_length_b     67.906484
_cell_length_c     20.218458
_cell_angle_alpha  92.824643
_cell_angle_beta   86.996103
_cell_angle_gamma 93.813459
loop_
_atom_site_label
_atom_site_type_symbol
_atom_site_fract_x
_atom_site_fract_y
_atom_site_fract_z
_atom_type_partial_charge
H0 H 0.81238 0.50563 0.10369 0.0
H1 H 0.76202 0.52527 0.00416 0.0
H2 H 0.76296 0.53101 0.21718 0.0
C3 C 0.79741 0.51141 0.10601 0.0
C4 C 0.78859 0.51735 0.16768 0.0
C5 C 0.788 0.51418 0.04688 0.0
C6 C 0.7692 0.5228 0.04972 0.0
C7 C 0.76008 0.52872 0.11155 0.0
C8 C 0.76997 0.52622 0.16995 0.0
N9 N 0.74123 0.53766 0.11671 0.0
C10 C 0.72682 0.53477 0.06907 0.0
H11 H 0.97477 0.82065 0.05401 0.0
H12 H 0.96673 0.76578 0.94034 0.0
H13 H 0.94632 0.76965 0.14658 0.0
C14 C 0.96955 0.80515 0.05107 0.0
C15 C 0.96024 0.79649 0.10718 0.0
C16 C 0.97204 0.79421 0.99099 0.0
C17 C 0.96515 0.77419 0.98705 0.0
C18 C 0.956 0.76526 0.04375 0.0
C19 C 0.95352 0.77651 0.10331 0.0
N20 N 0.94873 0.74515 0.0426 0.0
C21 C 0.95598 0.73079 -0.00199 0.0
H22 H 0.67999 0.97859 0.06217 0.0
H23 H 0.74057 0.97191 0.98038 0.0
H24 H 0.72788 0.9699 0.19181 0.0
C25 C 0.69586 0.97647 0.06955 0.0
C26 C 0.7023 0.97472 0.13368 0.0
C27 C 0.70951 0.97533 0.01447 0.0
C28 C 0.73005 0.97267 0.02326 0.0
C29 C 0.73673 0.97065 0.08768 0.0
C30 C 0.72271 0.97135 0.14238 0.0
N31 N 0.75735 0.96795 0.09936 0.0
C32 C 0.77336 0.97208 0.05375 0.0
H33 H 0.56302 0.68476 0.08641 0.0
H34 H 0.56028 0.74126 0.002 0.0
H35 H 0.5784 0.7378 0.20274 0.0
C36 C 0.56555 0.70072 0.09072 0.0
C37 C 0.57135 0.70983 0.15104 0.0
C38 C 0.56162 0.71189 0.03693 0.0
C39 C 0.56357 0.73263 0.04331 0.0
C40 C 0.56998 0.74198 0.10326 0.0
C41 C 0.57379 0.7305 0.15652 0.0
N42 N 0.57268 0.76281 0.11272 0.0
C43 C 0.56692 0.77647 0.06953 0.0
H44 H 0.20204 0.50832 0.24675 0.0
H45 H 0.24939 0.48561 0.35349 0.0
H46 H 0.24836 0.47624 0.1412 0.0
C47 C 0.21621 0.50109 0.24696 0.0
C48 C 0.22454 0.49324 0.18709 0.0
C49 C 0.22485 0.49823 0.30736 0.0
C50 C 0.24269 0.48801 0.30701 0.0
C51 C 0.2514 0.48034 0.24669 0.0
C52 C 0.24196 0.48258 0.18728 0.0
N53 N 0.26936 0.46993 0.24436 0.0
C54 C 0.28361 0.47265 0.29256 0.0
H55 H 0.03631 0.19355 0.28709 0.0
H56 H 0.05985 0.24276 0.40804 0.0
H57 H 0.0508 0.24961 0.20097 0.0
C58 C 0.04144 0.20905 0.29243 0.0
C59 C 0.04209 0.22077 0.2373 0.0
C60 C 0.0482 0.21662 0.35361 0.0
C61 C 0.05462 0.23669 0.3609 0.0
C62 C 0.05553 0.24859 0.30546 0.0
C63 C 0.04974 0.24046 0.2436 0.0
N64 N 0.06314 0.26853 0.30996 0.0
C65 C 0.05564 0.28187 0.35766 0.0
H66 H 0.32681 0.02868 0.26762 0.0
H67 H 0.27267 0.04399 0.38058 0.0
H68 H 0.27895 0.05389 0.17102 0.0
C69 C 0.31168 0.03414 0.26984 0.0
C70 C 0.30404 0.04069 0.21222 0.0
C71 C 0.30061 0.03539 0.33072 0.0
C72 C 0.2813 0.04298 0.33356 0.0
C73 C 0.2733 0.04943 0.2755 0.0
C74 C 0.28498 0.04873 0.21544 0.0
N75 N 0.25361 0.05663 0.2759 0.0
C76 C 0.23809 0.05111 0.32164 0.0
H77 H 0.46813 0.31939 0.26944 0.0
H78 H 0.44719 0.26845 0.37753 0.0
H79 H 0.43616 0.27031 0.16967 0.0
C80 C 0.46098 0.30453 0.26982 0.0
C81 C 0.45287 0.29589 0.21186 0.0
C82 C 0.45885 0.29485 0.32953 0.0
C83 C 0.44908 0.27586 0.33114 0.0
C84 C 0.4411 0.26688 0.27281 0.0
C85 C 0.44265 0.27714 0.21401 0.0
N86 N 0.43075 0.2479 0.2719 0.0
C87 C 0.43491 0.23305 0.31306 0.0
Tb88 Tb 0.00278 0.99164 0.62424 0.0
C89 C 0.04902 0.00334 0.65931 0.0
Tb90 Tb 0.01193 0.01878 0.74811 0.0
O91 O 0.99635 0.01711 0.56663 0.0
O92 O 0.01562 0.02021 0.64469 0.0
O93 O 0.03612 0.99117 0.62564 0.0
C94 C 0.0136 0.05276 0.81922 0.0
O95 O 0.04271 0.01688 0.7043 0.0
C96 C 0.00924 0.98087 0.7664 0.0
C97 C 0.96572 0.00664 0.71437 0.0
O98 O 0.02126 0.03666 0.83623 0.0
O99 O 0.00479 0.04947 0.76373 0.0
O100 O 0.01939 0.99353 0.80476 0.0
O101 O 0.99948 0.99011 0.72779 0.0
O102 O 0.97863 0.01872 0.74797 0.0
O103 O 0.972 0.99329 0.66882 0.0
C104 C 0.9988 0.95886 0.54722 0.0
O105 O 0.99168 0.97565 0.53524 0.0
O106 O 0.00854 0.96073 0.60143 0.0
C107 C 0.00652 0.02966 0.60509 0.0
Tb108 Tb 0.5029 0.02489 0.65258 0.0
C109 C 0.52955 0.99334 0.58151 0.0
Tb110 Tb 0.5044 0.98457 0.7175 0.0
O111 O 0.53508 0.03273 0.6661 0.0
O112 O 0.51868 0.0133 0.72934 0.0
O113 O 0.51886 0.00883 0.57256 0.0
C114 C 0.51385 0.95117 0.76946 0.0
O115 O 0.52761 0.98323 0.6364 0.0
C116 C 0.47117 0.98962 0.65702 0.0
C117 C 0.4786 0.01678 0.79008 0.0
O118 O 0.50771 0.95269 0.71011 0.0
O119 O 0.51463 0.96848 0.79993 0.0
O120 O 0.47198 0.97783 0.70517 0.0
O121 O 0.48895 0.99608 0.64035 0.0
O122 O 0.48866 0.0008 0.79795 0.0
O123 O 0.48078 0.02714 0.73592 0.0
C124 C 0.49137 0.05722 0.59894 0.0
O125 O 0.4868 0.03918 0.57763 0.0
O126 O 0.50249 0.05699 0.6499 0.0
C127 C 0.5363 0.02048 0.71283 0.0
Tb128 Tb 0.50973 0.52053 0.63655 0.0
C129 C 0.46399 0.50479 0.64672 0.0
Tb130 Tb 0.4967 0.49147 0.74494 0.0
O131 O 0.50511 0.49692 0.56011 0.0
O132 O 0.51392 0.49063 0.65428 0.0
O133 O 0.4772 0.51859 0.62253 0.0
C134 C 0.48333 0.45882 0.80594 0.0
O135 O 0.46864 0.49248 0.69208 0.0
C136 C 0.49692 0.52898 0.78222 0.0
C137 C 0.54207 0.50702 0.73362 0.0
O138 O 0.48344 0.46108 0.74267 0.0
O139 O 0.4907 0.47498 0.83512 0.0
O140 O 0.49948 0.51515 0.82259 0.0
O141 O 0.49232 0.52117 0.72699 0.0
O142 O 0.52955 0.49163 0.74906 0.0
O143 O 0.53655 0.52116 0.69642 0.0
C144 C 0.52351 0.55268 0.57326 0.0
O145 O 0.5272 0.53466 0.55439 0.0
O146 O 0.51193 0.5525 0.62694 0.0
C147 C 0.50837 0.48303 0.59958 0.0
Tb148 Tb 0.99303 0.50897 0.61748 0.0
C149 C 0.00483 0.46592 0.65352 0.0
Tb150 Tb 0.01994 0.50434 0.73578 0.0
O151 O 0.01951 0.51956 0.55535 0.0
O152 O 0.02244 0.50058 0.63201 0.0
O153 O 0.99268 0.47659 0.62109 0.0
C154 C 0.05312 0.5055 0.80536 0.0
O155 O 0.0184 0.47409 0.69466 0.0
C156 C 0.98071 0.50276 0.7625 0.0
C157 C 0.00896 0.54755 0.69743 0.0
O158 O 0.03571 0.49667 0.82275 0.0
O159 O 0.05165 0.51396 0.7499 0.0
O160 O 0.99318 0.49427 0.79811 0.0
O161 O 0.99078 0.51306 0.72116 0.0
O162 O 0.02039 0.53671 0.73199 0.0
O163 O 0.99577 0.53962 0.65454 0.0
C164 C 0.95866 0.50775 0.55399 0.0
O165 O 0.96034 0.50279 0.61433 0.0
O166 O 0.97653 0.51316 0.52817 0.0
C167 C 0.03221 0.51123 0.59076 0.0
H168 H 0.20844 0.02378 0.29136 0.0
H169 H 0.17851 0.01368 0.36198 0.0
H170 H 0.20003 0.05362 0.51949 0.0
H171 H 0.22992 0.06388 0.4483 0.0
H172 H 0.17539 0.99737 0.48961 0.0
H173 H 0.14252 0.07074 0.48998 0.0
H174 H 0.16288 0.06375 0.43229 0.0
H175 H 0.16809 0.07098 0.51666 0.0
C176 C 0.20673 0.03029 0.34121 0.0
C177 C 0.22118 0.04462 0.36478 0.0
C178 C 0.18974 0.02451 0.38145 0.0
C179 C 0.18696 0.03307 0.44562 0.0
C180 C 0.20176 0.04706 0.46976 0.0
H181 H 0.08014 0.02542 0.7167 0.0
H182 H 0.11508 0.03081 0.67235 0.0
C183 C 0.21879 0.05285 0.42939 0.0
C184 C 0.1682 0.02776 0.48605 0.0
H185 H 0.12443 0.04637 0.55212 0.0
C186 C 0.16427 0.00808 0.50367 0.0
C187 C 0.15376 0.04178 0.50419 0.0
C188 C 0.15685 0.06297 0.48448 0.0
C189 C 0.14619 0.00202 0.53892 0.0
C190 C 0.13157 0.01597 0.55585 0.0
C191 C 0.13571 0.03572 0.53932 0.0
C192 C 0.11138 0.01038 0.58769 0.0
C193 C 0.14298 0.9808 0.55795 0.0
C194 C 0.09779 0.99679 0.55551 0.0
C195 C 0.07778 0.9936 0.58086 0.0
C196 C 0.07092 0.00415 0.63844 0.0
C197 C 0.08485 0.0171 0.67209 0.0
C198 C 0.10486 0.02022 0.64684 0.0
H199 H 0.15766 0.97378 0.55983 0.0
H200 H 0.13464 0.97965 0.60691 0.0
H201 H 0.13385 0.97236 0.52027 0.0
H202 H 0.10236 0.98933 0.50908 0.0
H203 H 0.06746 0.98358 0.55349 0.0
H204 H 0.46247 0.23075 0.40642 0.0
H205 H 0.47108 0.20053 0.45851 0.0
H206 H 0.42524 0.16673 0.34875 0.0
H207 H 0.41673 0.19684 0.29674 0.0
H208 H 0.44452 0.17215 0.53372 0.0
H209 H 0.47908 0.13927 0.30057 0.0
H210 H 0.47474 0.16524 0.3114 0.0
H211 H 0.45393 0.14756 0.29498 0.0
C212 C 0.45417 0.21685 0.39419 0.0
C213 C 0.43899 0.21589 0.34802 0.0
C214 C 0.45908 0.19966 0.42371 0.0
C215 C 0.44896 0.1814 0.40673 0.0
C216 C 0.4334 0.18064 0.36176 0.0
H217 H 0.46454 0.05979 0.50183 0.0
H218 H 0.4533 0.09001 0.4572 0.0
C219 C 0.42848 0.19779 0.33246 0.0
C220 C 0.45487 0.16303 0.43497 0.0
H221 H 0.47565 0.11914 0.39305 0.0
C222 C 0.45139 0.16056 0.50315 0.0
C223 C 0.4637 0.14794 0.39471 0.0
C224 C 0.46827 0.1501 0.32141 0.0
C225 C 0.45625 0.14321 0.53215 0.0
C226 C 0.46529 0.12817 0.49199 0.0
C227 C 0.4687 0.13066 0.42372 0.0
C228 C 0.47175 0.10991 0.51992 0.0
C229 C 0.45124 0.14099 0.60519 0.0
C230 C 0.48603 0.11106 0.56926 0.0
C231 C 0.49234 0.09389 0.59494 0.0
C232 C 0.48472 0.07523 0.57104 0.0
C233 C 0.47065 0.07402 0.521 0.0
C234 C 0.46423 0.09124 0.4956 0.0
H235 H 0.43911 0.15072 0.62391 0.0
H236 H 0.44623 0.12548 0.61579 0.0
H237 H 0.46501 0.14525 0.63315 0.0
H238 H 0.49246 0.12526 0.58751 0.0
H239 H 0.50331 0.09521 0.6332 0.0
H240 H 0.29228 0.44972 0.3913 0.0
H241 H 0.32037 0.45587 0.46662 0.0
H242 H 0.33825 0.51028 0.37132 0.0
H243 H 0.31006 0.50424 0.29708 0.0
H244 H 0.36098 0.45934 0.42822 0.0
H245 H 0.33892 0.52768 0.5666 0.0
H246 H 0.32125 0.51212 0.51888 0.0
H247 H 0.33889 0.52956 0.47839 0.0
C248 C 0.30211 0.46308 0.38743 0.0
C249 C 0.29922 0.47659 0.33921 0.0
C250 C 0.31807 0.46659 0.43022 0.0
C251 C 0.33117 0.4837 0.42523 0.0
C252 C 0.32803 0.49726 0.37713 0.0
H253 H 0.44788 0.52711 0.55568 0.0
H254 H 0.41457 0.52176 0.50784 0.0
C255 C 0.31208 0.49375 0.33453 0.0
C256 C 0.3491 0.48664 0.46638 0.0
H257 H 0.37373 0.51986 0.57164 0.0
C258 C 0.36365 0.47242 0.46037 0.0
C259 C 0.35252 0.50376 0.50806 0.0
C260 C 0.33697 0.51906 0.51896 0.0
C261 C 0.38193 0.47521 0.49295 0.0
C262 C 0.38557 0.49257 0.53322 0.0
C263 C 0.37086 0.50661 0.54047 0.0
C264 C 0.40495 0.49666 0.56622 0.0
C265 C 0.39753 0.45994 0.48212 0.0
C266 C 0.41028 0.48458 0.61591 0.0
C267 C 0.42928 0.48756 0.64333 0.0
C268 C 0.44326 0.50273 0.62159 0.0
C269 C 0.43754 0.51525 0.57339 0.0
C270 C 0.4185 0.51226 0.54607 0.0
H271 H 0.39409 0.44947 0.43961 0.0
H272 H 0.41297 0.46714 0.47308 0.0
H273 H 0.39773 0.45131 0.52725 0.0
H274 H 0.39986 0.47263 0.63266 0.0
H275 H 0.43312 0.47768 0.68056 0.0
H276 H 0.06888 0.29577 0.47631 0.0
H277 H 0.05654 0.32438 0.54229 0.0
H278 H 0.01199 0.33134 0.39765 0.0
H279 H 0.02409 0.30263 0.3327 0.0
H280 H 0.05785 0.36166 0.4966 0.0
H281 H 0.97827 0.33781 0.57017 0.0
H282 H 0.99675 0.32058 0.54035 0.0
H283 H 0.98404 0.33431 0.48284 0.0
C284 C 0.05617 0.30323 0.45975 0.0
C285 C 0.04724 0.29717 0.4002 0.0
C286 C 0.04915 0.3195 0.4972 0.0
C287 C 0.03313 0.32978 0.47541 0.0
C288 C 0.02398 0.32333 0.41634 0.0
H289 H 0.9866 0.44449 0.55167 0.0
H290 H 0.99228 0.41034 0.51446 0.0
C291 C 0.03097 0.30707 0.37909 0.0
C292 C 0.02743 0.34845 0.51022 0.0
H293 H 0.98716 0.37266 0.57922 0.0
C294 C 0.04247 0.36397 0.51556 0.0
C295 C 0.00729 0.35147 0.5343 0.0
C296 C 0.9907 0.33509 0.53224 0.0
C297 C 0.03781 0.38263 0.54251 0.0
C298 C 0.01763 0.38573 0.56577 0.0
C299 C 0.00261 0.37018 0.5613 0.0
C300 C 0.01194 0.40527 0.59342 0.0
C301 C 0.05439 0.39906 0.54381 0.0
C302 C 0.0205 0.41337 0.65145 0.0
C303 C 0.01737 0.43284 0.67267 0.0
C304 C 0.00551 0.44453 0.63639 0.0
C305 C 0.99588 0.43593 0.58059 0.0
C306 C 0.99909 0.41643 0.55925 0.0
H307 H 0.0678 0.39545 0.51099 0.0
H308 H 0.04868 0.41306 0.52826 0.0
H309 H 0.05952 0.40157 0.59512 0.0
H310 H 0.03017 0.40484 0.67907 0.0
H311 H 0.0248 0.4389 0.71638 0.0
H312 H 0.78809 0.95025 0.94899 0.0
H313 H 0.81956 0.95798 0.88166 0.0
H314 H 0.82909 0.01292 0.99564 0.0
H315 H 0.7978 0.00512 0.06303 0.0
H316 H 0.83245 0.99238 0.80494 0.0
H317 H 0.88112 0.98297 0.01591 0.0
H318 H 0.85476 0.97393 0.01583 0.0
H319 H 0.86132 0.99971 0.03293 0.0
C320 C 0.7969 0.96402 0.95897 0.0
C321 C 0.79083 0.97711 0.01085 0.0
C322 C 0.81477 0.96843 0.92065 0.0
C323 C 0.82673 0.9859 0.93431 0.0
C324 C 0.82019 0.99926 0.98496 0.0
H325 H 0.94673 0.03179 0.80361 0.0
H326 H 0.91192 0.02798 0.85066 0.0
C327 C 0.80237 0.99485 0.02314 0.0
C328 C 0.84647 0.98984 0.89765 0.0
H329 H 0.89754 0.99526 0.91838 0.0
C330 C 0.84672 0.99298 0.82952 0.0
C331 C 0.865 0.99055 0.93003 0.0
C332 C 0.86567 0.98645 0.00257 0.0
C333 C 0.86509 0.99724 0.79307 0.0
C334 C 0.88361 0.99805 0.82561 0.0
C335 C 0.8833 0.9948 0.89368 0.0
C336 C 0.90365 0.00178 0.7903 0.0
C337 C 0.86449 0.00122 0.72048 0.0
C338 C 0.91044 0.98849 0.73987 0.0
C339 C 0.93034 0.99065 0.71266 0.0
C340 C 0.94389 0.00601 0.73596 0.0
C341 C 0.93676 0.01974 0.78465 0.0
C342 C 0.91686 0.0176 0.81165 0.0
H343 H 0.84921 0.00534 0.70757 0.0
H344 H 0.87591 0.01324 0.70646 0.0
H345 H 0.8681 0.98766 0.69051 0.0
H346 H 0.90064 0.97596 0.72355 0.0
H347 H 0.93533 0.97975 0.67545 0.0
H348 H 0.56845 0.81406 0.11466 0.0
H349 H 0.5594 0.84281 0.05646 0.0
H350 H 0.54473 0.80496 0.88554 0.0
H351 H 0.5536 0.77604 0.94454 0.0
H352 H 0.57631 0.85698 0.93695 0.0
H353 H 0.49366 0.83617 0.92137 0.0
H354 H 0.50953 0.82442 0.97573 0.0
H355 H 0.51047 0.81793 0.88848 0.0
C356 C 0.56323 0.81195 0.06471 0.0
C357 C 0.56159 0.79304 0.03377 0.0
C358 C 0.55811 0.82832 0.03154 0.0
C359 C 0.55119 0.82599 0.967 0.0
C360 C 0.54971 0.80702 0.93575 0.0
H361 H 0.5119 0.91432 0.71 0.0
H362 H 0.52163 0.88364 0.7551 0.0
C363 C 0.55485 0.79058 0.96913 0.0
C364 C 0.54585 0.84361 0.93276 0.0
H365 H 0.50616 0.86545 0.87087 0.0
C366 C 0.56098 0.85883 0.92232 0.0
C367 C 0.52586 0.84594 0.91368 0.0
C368 C 0.50885 0.83035 0.92573 0.0
C369 C 0.55666 0.87636 0.89349 0.0
C370 C 0.53658 0.87885 0.87565 0.0
C371 C 0.52153 0.86349 0.88481 0.0
C372 C 0.53081 0.89745 0.84848 0.0
C373 C 0.57365 0.89198 0.88187 0.0
C374 C 0.53251 0.91532 0.88642 0.0
C375 C 0.52696 0.93284 0.86081 0.0
C376 C 0.51951 0.93272 0.797 0.0
C377 C 0.51763 0.9148 0.75933 0.0
C378 C 0.52316 0.89729 0.78499 0.0
H379 H 0.58882 0.88578 0.88156 0.0
H380 H 0.57222 0.89906 0.83412 0.0
H381 H 0.57292 0.9036 0.92235 0.0
H382 H 0.53802 0.9157 0.93603 0.0
H383 H 0.52849 0.94645 0.89089 0.0
H384 H 0.71143 0.56077 0.99169 0.0
H385 H 0.68137 0.55465 0.92457 0.0
H386 H 0.67587 0.49397 0.98075 0.0
H387 H 0.70582 0.50011 0.04787 0.0
H388 H 0.67228 0.52404 0.81765 0.0
H389 H 0.62102 0.51842 0.0443 0.0
H390 H 0.64662 0.52955 0.04599 0.0
H391 H 0.64233 0.50315 0.04007 0.0
C392 C 0.70388 0.54611 0.98873 0.0
C393 C 0.71065 0.53087 0.02447 0.0
C394 C 0.68682 0.54263 0.95057 0.0
C395 C 0.67637 0.52393 0.94845 0.0
C396 C 0.68367 0.50853 0.98241 0.0
H397 H 0.56014 0.47983 0.80238 0.0
H398 H 0.5937 0.48319 0.84885 0.0
C399 C 0.70072 0.51201 0.02038 0.0
C400 C 0.65719 0.52077 0.91382 0.0
H401 H 0.60607 0.51173 0.94155 0.0
C402 C 0.65777 0.52136 0.84452 0.0
C403 C 0.63837 0.5173 0.94933 0.0
C404 C 0.6369 0.5172 0.02408 0.0
C405 C 0.63992 0.51823 0.80949 0.0
C406 C 0.62108 0.51483 0.84509 0.0
C407 C 0.62057 0.51425 0.91442 0.0
C408 C 0.60155 0.51223 0.81195 0.0
C409 C 0.64144 0.51823 0.73478 0.0
C410 C 0.59487 0.52745 0.77577 0.0
C411 C 0.57571 0.52557 0.74898 0.0
C412 C 0.56281 0.5085 0.7585 0.0
C413 C 0.56967 0.49318 0.79414 0.0
C414 C 0.58885 0.49505 0.82069 0.0
H415 H 0.65706 0.51549 0.71477 0.0
H416 H 0.6306 0.50685 0.71276 0.0
H417 H 0.63765 0.53289 0.71878 0.0
H418 H 0.60423 0.54102 0.76979 0.0
H419 H 0.57086 0.53771 0.72218 0.0
H420 H 0.95147 0.69319 0.03111 0.0
H421 H 0.96358 0.66433 0.96713 0.0
H422 H 0.9883 0.70207 0.81302 0.0
H423 H 0.97633 0.73111 0.87795 0.0
H424 H 0.95301 0.6511 0.8405 0.0
H425 H 0.03632 0.66904 0.85168 0.0
H426 H 0.01791 0.68118 0.90589 0.0
H427 H 0.02178 0.68785 0.82113 0.0
C428 C 0.95953 0.69525 0.98361 0.0
C429 C 0.96305 0.71413 0.95896 0.0
C430 C 0.96643 0.67884 0.9472 0.0
C431 C 0.97701 0.68111 0.88572 0.0
C432 C 0.98046 0.70007 0.86086 0.0
H433 H 0.99255 0.5755 0.62768 0.0
H434 H 0.98685 0.60958 0.6647 0.0
C435 C 0.97354 0.71656 0.89752 0.0
C436 C 0.98377 0.66337 0.84752 0.0
H437 H 0.0259 0.63965 0.79211 0.0
C438 C 0.96893 0.64864 0.82934 0.0
C439 C 0.00457 0.66021 0.83378 0.0
C440 C 0.02114 0.67529 0.85446 0.0
C441 C 0.9743 0.6306 0.79905 0.0
C442 C 0.99511 0.6274 0.78512 0.0
C443 C 0.00997 0.64226 0.80227 0.0
C444 C 0.0016 0.60812 0.75725 0.0
C445 C 0.95766 0.61481 0.78493 0.0
C446 C 0.01286 0.59644 0.79524 0.0
C447 C 0.01637 0.57702 0.77389 0.0
C448 C 0.00856 0.56896 0.71434 0.0
C449 C 0.9985 0.58117 0.6743 0.0
C450 C 0.99517 0.60063 0.69541 0.0
H451 H 0.94309 0.61799 0.81221 0.0
H452 H 0.95496 0.61403 0.73113 0.0
H453 H 0.96207 0.60011 0.79867 0.0
H454 H 0.01804 0.60201 0.843 0.0
H455 H 0.02424 0.56805 0.80581 0.0
H456 H 0.06826 0.18332 0.34479 0.0
H457 H 0.06245 0.15523 0.41445 0.0
H458 H 0.02586 0.18985 0.55355 0.0
H459 H 0.0306 0.21789 0.48024 0.0
H460 H 0.06802 0.14453 0.52978 0.0
H461 H 0.9845 0.14711 0.50804 0.0
H462 H 0.0025 0.16351 0.46448 0.0
H463 H 0.99651 0.168 0.5516 0.0
C464 C 0.05926 0.18506 0.39087 0.0
C465 C 0.04948 0.20255 0.40654 0.0
C466 C 0.05596 0.16899 0.43088 0.0
C467 C 0.0431 0.17011 0.48829 0.0
C468 C 0.03519 0.18836 0.50818 0.0
H469 H 0.03217 0.05516 0.67332 0.0
H470 H 0.03922 0.09031 0.65911 0.0
C471 C 0.03818 0.20448 0.46704 0.0
C472 C 0.03691 0.15153 0.52217 0.0
H473 H 0.99587 0.11958 0.55604 0.0
C474 C 0.05222 0.13913 0.53606 0.0
C475 C 0.01627 0.14436 0.52973 0.0
C476 C 0.99898 0.15632 0.51223 0.0
C477 C 0.04765 0.11944 0.55246 0.0
C478 C 0.02702 0.11225 0.5598 0.0
C479 C 0.01166 0.12503 0.55016 0.0
C480 C 0.02102 0.09125 0.57334 0.0
C481 C 0.06513 0.10634 0.55686 0.0
C482 C 0.00728 0.08015 0.53286 0.0
C483 C 0.00217 0.06019 0.54375 0.0
C484 C 0.01098 0.0509 0.59457 0.0
C485 C 0.0247 0.06199 0.63481 0.0
C486 C 0.02916 0.08206 0.62569 0.0
H487 H 0.07908 0.11231 0.52957 0.0
H488 H 0.0688 0.10553 0.60953 0.0
H489 H 0.06131 0.09116 0.53635 0.0
H490 H 0.00074 0.08685 0.49207 0.0
H491 H 0.99165 0.05196 0.51174 0.0
H492 H 0.3061 0.05734 0.44635 0.0
H493 H 0.3308 0.05169 0.52918 0.0
H494 H 0.34314 0.99591 0.42853 0.0
H495 H 0.31802 0.00111 0.34812 0.0
H496 H 0.34609 0.99384 0.55838 0.0
H497 H 0.38985 0.06134 0.47074 0.0
H498 H 0.36514 0.06517 0.5088 0.0
H499 H 0.36739 0.05106 0.43144 0.0
C500 C 0.31354 0.04355 0.4437 0.0
C501 C 0.31044 0.02977 0.39049 0.0
C502 C 0.32786 0.04047 0.49031 0.0
C503 C 0.33933 0.0237 0.48361 0.0
C504 C 0.33467 0.00907 0.43434 0.0
H505 H 0.46318 0.00391 0.53791 0.0
H506 H 0.43032 0.01405 0.50435 0.0
C507 C 0.32031 0.01204 0.38838 0.0
C508 C 0.35753 0.02194 0.52248 0.0
H509 H 0.40575 0.04215 0.54309 0.0
C510 C 0.35906 0.00452 0.55589 0.0
C511 C 0.37456 0.03578 0.51812 0.0
C512 C 0.37432 0.05432 0.47995 0.0
C513 C 0.37737 1.00006 0.58233 0.0
C514 C 0.39444 0.01383 0.57756 0.0
C515 C 0.39264 0.03166 0.54678 0.0
C516 C 0.41465 0.00937 0.59981 0.0
C517 C 0.37849 0.98011 0.61133 0.0
C518 C 0.41693 0.00401 0.66499 0.0
C519 C 0.43546 0.99777 0.68343 0.0
C520 C 0.45222 0.99744 0.63769 0.0
C521 C 0.4504 0.00399 0.57379 0.0
C522 C 0.43168 0.0098 0.5548 0.0
H523 H 0.36602 0.96947 0.59494 0.0
H524 H 0.39322 0.97368 0.59705 0.0
H525 H 0.37704 0.98178 0.66621 0.0
H526 H 0.40428 0.00426 0.70128 0.0
H527 H 0.43666 0.99316 0.73355 0.0
H528 H 0.43481 0.31528 0.41617 0.0
H529 H 0.44628 0.34417 0.48475 0.0
H530 H 0.50861 0.33 0.44383 0.0
H531 H 0.49709 0.30151 0.37293 0.0
H532 H 0.4704 0.35596 0.58915 0.0
H533 H 0.50548 0.38091 0.34895 0.0
H534 H 0.48905 0.35873 0.35478 0.0
H535 H 0.51512 0.35883 0.37688 0.0
C536 C 0.45089 0.31783 0.42449 0.0
C537 C 0.4651 0.30622 0.38981 0.0
C538 C 0.45746 0.33441 0.46328 0.0
C539 C 0.47832 0.33954 0.46788 0.0
C540 C 0.49245 0.32655 0.43972 0.0
H541 H 0.52067 0.45242 0.66712 0.0
H542 H 0.51436 0.41694 0.64084 0.0
C543 C 0.48588 0.31013 0.40008 0.0
C544 C 0.48505 0.35975 0.49261 0.0
H545 H 0.5081 0.40321 0.44059 0.0
C546 C 0.47885 0.36626 0.55706 0.0
C547 C 0.49567 0.37331 0.44998 0.0
C548 C 0.50158 0.36772 0.37863 0.0
C549 C 0.48272 0.38602 0.5797 0.0
C550 C 0.49342 0.39949 0.53709 0.0
C551 C 0.49999 0.39284 0.47327 0.0
C552 C 0.49684 0.42088 0.55536 0.0
C553 C 0.47439 0.39253 0.64756 0.0
C554 C 0.48953 0.43491 0.51526 0.0
C555 C 0.49339 0.4551 0.52958 0.0
C556 C 0.50456 0.46167 0.58447 0.0
C557 C 0.51188 0.44769 0.62474 0.0
C558 C 0.50813 0.42744 0.61012 0.0
H559 H 0.46298 0.38144 0.66845 0.0
H560 H 0.48699 0.3947 0.68196 0.0
H561 H 0.46718 0.40678 0.64538 0.0
H562 H 0.48084 0.43021 0.47263 0.0
H563 H 0.48751 0.46557 0.49788 0.0
H564 H 0.20732 0.53289 0.3399 0.0
H565 H 0.17882 0.53707 0.41962 0.0
H566 H 0.18731 0.48008 0.49567 0.0
H567 H 0.21533 0.47546 0.41354 0.0
H568 H 0.15123 0.48091 0.44805 0.0
H569 H 0.16267 0.54805 0.60979 0.0
H570 H 0.16851 0.55361 0.52496 0.0
H571 H 0.18357 0.53681 0.56447 0.0
C572 C 0.20357 0.52156 0.37526 0.0
C573 C 0.21328 0.5037 0.3697 0.0
C574 C 0.18737 0.52405 0.42141 0.0
C575 C 0.18084 0.50888 0.46376 0.0
C576 C 0.19207 0.49199 0.46345 0.0
H577 H 0.05833 0.48794 0.64428 0.0
H578 H 0.09517 0.48799 0.62399 0.0
C579 C 0.2082 0.48941 0.41678 0.0
C580 C 0.1602 0.50886 0.49679 0.0
H581 H 0.12741 0.53795 0.58662 0.0
C582 C 0.14618 0.49317 0.47973 0.0
C583 C 0.15349 0.52494 0.5375 0.0
C584 C 0.16795 0.54168 0.56072 0.0
C585 C 0.12554 0.49358 0.49934 0.0
C586 C 0.11871 0.51004 0.53752 0.0
C587 C 0.13273 0.52543 0.55677 0.0
C588 C 0.09686 0.51162 0.55562 0.0
C589 C 0.111 0.47679 0.47655 0.0
C590 C 0.08572 0.52521 0.52491 0.0
C591 C 0.06463 0.52528 0.53665 0.0
C592 C 0.05448 0.51183 0.57949 0.0
C593 C 0.06578 0.49856 0.61127 0.0
C594 C 0.0868 0.49854 0.59972 0.0
H595 H 0.11815 0.4669 0.43798 0.0
H596 H 0.10585 0.46784 0.51947 0.0
H597 H 0.09735 0.48257 0.45635 0.0
H598 H 0.09328 0.53536 0.49047 0.0
H599 H 0.05625 0.53568 0.51173 0.0
H600 H 0.95342 0.80031 0.87757 0.0
H601 H 0.96244 0.82765 0.80448 0.0
H602 H 0.01805 0.84075 0.90579 0.0
H603 H 0.00923 0.81334 0.97745 0.0
H604 H 0.96388 0.8635 0.86539 0.0
H605 H 0.03657 0.8559 0.72162 0.0
H606 H 0.022 0.83496 0.75572 0.0
H607 H 0.03891 0.85033 0.80652 0.0
C608 C 0.96808 0.80835 0.88149 0.0
C609 C 0.98065 0.80482 0.93292 0.0
C610 C 0.97317 0.82405 0.84012 0.0
C611 C 0.99094 0.83629 0.84956 0.0
C612 C 0.00449 0.83136 0.89645 0.0
H613 H 0.0315 0.95812 0.83933 0.0
H614 H 0.02704 0.92217 0.85012 0.0
C615 C 0.99941 0.81571 0.93763 0.0
C616 C 0.99316 0.85625 0.82224 0.0
H617 H 0.02771 0.88958 0.75114 0.0
C618 C 0.97764 0.86906 0.8389 0.0
C619 C 0.01122 0.86359 0.78854 0.0
C620 C 0.02802 0.85038 0.76653 0.0
C621 C 0.98008 0.88919 0.82608 0.0
C622 C 0.99845 0.89669 0.79469 0.0
C623 C 0.0137 0.88379 0.77565 0.0
C624 C 0.00223 0.91805 0.78384 0.0
C625 C 0.96339 0.90246 0.84938 0.0
C626 C 0.98992 0.92752 0.74253 0.0
C627 C 0.99224 0.94796 0.73717 0.0
C628 C 0.00718 0.95926 0.77202 0.0
C629 C 0.01986 0.94973 0.81211 0.0
C630 C 0.01742 0.92924 0.81787 0.0
H631 H 0.95228 0.89519 0.88513 0.0
H632 H 0.96982 0.9164 0.87329 0.0
H633 H 0.95503 0.9063 0.80609 0.0
H634 H 0.97826 0.91913 0.71532 0.0
H635 H 0.98215 0.95493 0.70626 0.0
H636 H 0.6902 0.9463 0.94151 0.0
H637 H 0.66422 0.95158 0.86325 0.0
H638 H 0.68233 0.0138 0.86775 0.0
H639 H 0.70831 0.00849 0.94614 0.0
H640 H 0.63576 0.97905 0.92472 0.0
H641 H 0.664 1.00007 0.67223 0.0
H642 H 0.67771 0.9846 0.72229 0.0
H643 H 0.67796 0.01071 0.74091 0.0
C644 C 0.68943 0.96086 0.92248 0.0
C645 C 0.7013 0.97698 0.94891 0.0
C646 C 0.67453 0.96389 0.8782 0.0
C647 C 0.6714 0.98306 0.85974 0.0
C648 C 0.68475 0.99885 0.8805 0.0
H649 H 0.57161 0.04302 0.71946 0.0
H650 H 0.60452 0.03318 0.753 0.0
C651 C 0.69964 0.99582 0.92501 0.0
C652 C 0.6517 0.98718 0.83349 0.0
H653 H 0.6295 0.00554 0.70299 0.0
C654 C 0.63431 0.98461 0.87589 0.0
C655 C 0.65004 0.99478 0.77047 0.0
C656 C 0.66836 0.99764 0.72339 0.0
C657 C 0.61528 0.98986 0.85765 0.0
C658 C 0.61348 0.99733 0.79425 0.0
C659 C 0.63089 0.99974 0.75146 0.0
C660 C 0.5937 0.00311 0.77237 0.0
C661 C 0.5975 0.98807 0.90769 0.0
C662 C 0.57677 0.98945 0.77138 0.0
C663 C 0.55794 0.99522 0.75377 0.0
C664 C 0.55576 0.01457 0.73561 0.0
C665 C 0.57284 0.02806 0.73439 0.0
C666 C 0.59164 0.02242 0.75304 0.0
H667 H 0.60262 0.98773 0.9591 0.0
H668 H 0.58752 1.00053 0.90539 0.0
H669 H 0.58836 0.97408 0.89702 0.0
H670 H 0.57813 0.97428 0.78385 0.0
H671 H 0.54535 0.98435 0.75191 0.0
H672 H 0.58186 0.68628 0.95565 0.0
H673 H 0.56628 0.65998 0.88487 0.0
H674 H 0.50824 0.68558 0.91678 0.0
H675 H 0.52394 0.71193 0.98843 0.0
H676 H 0.50772 0.64862 0.96027 0.0
H677 H 0.54243 0.64809 0.70584 0.0
H678 H 0.56152 0.65102 0.76612 0.0
H679 H 0.54374 0.66985 0.76109 0.0
C680 C 0.56601 0.68682 0.94471 0.0
C681 C 0.55409 0.70111 0.97697 0.0
C682 C 0.55709 0.6718 0.90414 0.0
C683 C 0.53608 0.67082 0.89514 0.0
C684 C 0.5245 0.68613 0.92263 0.0
H685 H 0.48277 0.55905 0.7167 0.0
H686 H 0.48983 0.5947 0.73871 0.0
C687 C 0.53348 0.70126 0.9631 0.0
C688 C 0.52596 0.65202 0.86939 0.0
H689 H 0.5297 0.61607 0.74587 0.0
C690 C 0.51215 0.64173 0.91263 0.0
C691 C 0.53165 0.64299 0.80723 0.0
C692 C 0.54549 0.65367 0.75717 0.0
C693 C 0.50499 0.62222 0.89735 0.0
C694 C 0.51198 0.61267 0.83763 0.0
C695 C 0.52463 0.62335 0.79219 0.0
C696 C 0.50749 0.59124 0.82407 0.0
C697 C 0.4905 0.61176 0.94624 0.0
C698 C 0.51517 0.57757 0.8646 0.0
C699 C 0.5114 0.55729 0.8516 0.0
C700 C 0.5 0.55037 0.79761 0.0
C701 C 0.49201 0.56406 0.75774 0.0
C702 C 0.49592 0.58437 0.77043 0.0
H703 H 0.48236 0.62241 0.97971 0.0
H704 H 0.47912 0.60183 0.92026 0.0
H705 H 0.49921 0.60264 0.9773 0.0
H706 H 0.52433 0.58259 0.90582 0.0
H707 H 0.51775 0.54704 0.88302 0.0
H708 H 0.80628 0.48049 0.0077 0.0
H709 H 0.83512 0.47837 0.92763 0.0
H710 H 0.82501 0.53631 0.86269 0.0
H711 H 0.79652 0.53882 0.94487 0.0
H712 H 0.84717 0.48285 0.79439 0.0
H713 H 0.87817 0.54493 0.95783 0.0
H714 H 0.85436 0.53144 0.97767 0.0
H715 H 0.85583 0.54964 0.91566 0.0
C716 C 0.80978 0.49249 0.97472 0.0
C717 C 0.79954 0.51001 0.98347 0.0
C718 C 0.82623 0.49125 0.92887 0.0
C719 C 0.83259 0.50745 0.89083 0.0
C720 C 0.82061 0.52384 0.89285 0.0
H721 H 0.95633 0.53029 0.72443 0.0
H722 H 0.9195 0.53122 0.74406 0.0
C723 C 0.8042 0.52518 0.93927 0.0
C724 C 0.85341 0.50838 0.85939 0.0
H725 H 0.90058 0.53131 0.87781 0.0
C726 C 0.8588 0.4936 0.81185 0.0
C727 C 0.86864 0.5223 0.88301 0.0
C728 C 0.8641 0.53789 0.9367 0.0
C729 C 0.87911 0.49219 0.78826 0.0
C730 C 0.89428 0.50576 0.81339 0.0
C731 C 0.88881 0.52094 0.85886 0.0
C732 C 0.91614 0.50404 0.79606 0.0
C733 C 0.8843 0.47612 0.73729 0.0
C734 C 0.92642 0.48852 0.81954 0.0
C735 C 0.94753 0.48805 0.80897 0.0
C736 C 0.95852 0.50302 0.77441 0.0
C737 C 0.94816 0.51847 0.75077 0.0
C738 C 0.92715 0.51901 0.76172 0.0
H739 H 0.87058 0.46942 0.71316 0.0
H740 H 0.89531 0.48202 0.69854 0.0
H741 H 0.89155 0.46431 0.76178 0.0
H742 H 0.91818 0.47706 0.8474 0.0
H743 H 0.95522 0.47603 0.82771 0.0
H744 H 0.00759 0.19816 0.21356 0.0
H745 H 0.00269 0.1744 0.12078 0.0
H746 H 0.0577 0.19858 0.02193 0.0
H747 H 0.06328 0.22179 0.11717 0.0
H748 H 0.99921 0.17199 0.99115 0.0
H749 H 0.07287 0.14358 0.0525 0.0
H750 H 0.06105 0.16273 0.10243 0.0
H751 H 0.07449 0.16841 0.02527 0.0
C752 C 0.01841 0.19868 0.17137 0.0
C753 C 0.03609 0.21139 0.17314 0.0
C754 C 0.01557 0.18515 0.11823 0.0
C755 C 0.03022 0.18426 0.06553 0.0
C756 C 0.04657 0.19862 0.06322 0.0
H757 H 0.0085 0.08784 0.76704 0.0
H758 H 0.01358 0.12076 0.81985 0.0
C759 C 0.04959 0.21205 0.11712 0.0
C760 C 0.0294 0.16678 0.01871 0.0
H761 H 0.05408 0.12522 0.9734 0.0
C762 C 0.01129 0.16184 0.98653 0.0
C763 C 0.04505 0.15338 0.01399 0.0
C764 C 0.06439 0.15713 0.05074 0.0
C765 C 0.00804 0.14357 0.95201 0.0
C766 C 0.0237 0.1302 0.94732 0.0
C767 C 0.04211 0.13549 0.97717 0.0
C768 C 0.02103 0.11028 0.91448 0.0
C769 C 0.98745 0.13839 0.92425 0.0
C770 C 0.02437 0.09342 0.9492 0.0
C771 C 0.02204 0.07457 0.91842 0.0
C772 C 0.01607 0.07235 0.85287 0.0
C773 C 0.01283 0.08918 0.8181 0.0
C774 C 0.01558 0.108 0.84832 0.0
H775 H 0.97559 0.14755 0.94852 0.0
H776 H 0.98825 0.14118 0.87054 0.0
H777 H 0.98262 0.12259 0.93049 0.0
H778 H 0.0287 0.09485 0.00025 0.0
H779 H 0.02471 0.06178 0.94596 0.0
H780 H 0.31785 0.07062 0.1329 0.0
H781 H 0.34553 0.06927 0.04678 0.0
H782 H 0.34739 0.0066 0.07014 0.0
H783 H 0.31973 0.00789 0.15482 0.0
H784 H 0.38312 0.05848 0.07648 0.0
H785 H 0.3543 0.00951 0.87111 0.0
H786 H 0.33756 0.02094 0.93302 0.0
H787 H 0.34919 0.99857 0.94966 0.0
C788 C 0.32368 0.05648 0.11751 0.0
C789 C 0.31674 0.03935 0.15007 0.0
C790 C 0.33954 0.05573 0.06883 0.0
C791 C 0.34841 0.0378 0.05172 0.0
C792 C 0.34052 0.0205 0.08141 0.0
H793 H 0.4588 0.99333 0.88238 0.0
H794 H 0.42749 1.0002 0.94761 0.0
C795 C 0.32479 0.02126 0.12999 0.0
C796 C 0.36758 0.0374 0.01037 0.0
H797 H 0.39076 0.01216 0.88057 0.0
C798 C 0.38473 0.04864 0.03286 0.0
C799 C 0.36965 0.02447 0.95375 0.0
C800 C 0.35163 0.01285 0.9251 0.0
C801 C 0.40407 0.04661 0.002 0.0
C802 C 0.40622 0.03306 0.94728 0.0
C803 C 0.38902 0.02232 0.92332 0.0
C804 C 0.42623 0.0298 0.91386 0.0
C805 C 0.4222 0.05838 0.02942 0.0
C806 C 0.43599 0.04437 0.87468 0.0
C807 C 0.45382 0.04052 0.8375 0.0
C808 C 0.46219 0.02203 0.83897 0.0
C809 C 0.45287 0.00779 0.88078 0.0
C810 C 0.43492 0.01161 0.91759 0.0
H811 H 0.41844 0.06591 0.07813 0.0
H812 H 0.4348 0.04863 0.03517 0.0
H813 H 0.42774 0.06979 0.99416 0.0
H814 H 0.42939 0.05844 0.87088 0.0
H815 H 0.46061 0.05179 0.80569 0.0
H816 H 0.48629 0.31595 0.15793 0.0
H817 H 0.48727 0.33984 0.0712 0.0
H818 H 0.42362 0.3256 0.04127 0.0
H819 H 0.42244 0.30188 0.12943 0.0
H820 H 0.47697 0.33851 0.93598 0.0
H821 H 0.42702 0.38484 0.10076 0.0
H822 H 0.43904 0.36408 0.1303 0.0
H823 H 0.41734 0.36004 0.0802 0.0
C824 C 0.47257 0.31771 0.13221 0.0
C825 C 0.45422 0.30729 0.15099 0.0
C826 C 0.47317 0.33127 0.08248 0.0
C827 C 0.45544 0.3347 0.05071 0.0
C828 C 0.4374 0.32332 0.06595 0.0
H829 H 0.46506 0.42543 0.75054 0.0
H830 H 0.45581 0.39415 0.80374 0.0
C831 C 0.43678 0.30968 0.11584 0.0
C832 C 0.4557 0.35151 0.00678 0.0
H833 H 0.4405 0.39849 0.00251 0.0
C834 C 0.46876 0.35153 0.94973 0.0
C835 C 0.44513 0.36853 0.0256 0.0
C836 C 0.43143 0.36957 0.08773 0.0
C837 C 0.47208 0.36839 0.91211 0.0
C838 C 0.46187 0.38555 0.93192 0.0
C839 C 0.44824 0.38527 0.98753 0.0
C840 C 0.46652 0.40451 0.89951 0.0
C841 C 0.48727 0.36805 0.85362 0.0
C842 C 0.47501 0.42082 0.93623 0.0
C843 C 0.48016 0.43865 0.90607 0.0
C844 C 0.47689 0.44041 0.83871 0.0
C845 C 0.46795 0.42426 0.80234 0.0
C846 C 0.46273 0.40643 0.83257 0.0
H847 H 0.49662 0.35501 0.85267 0.0
H848 H 0.47904 0.36745 0.80701 0.0
H849 H 0.49759 0.38165 0.85446 0.0
H850 H 0.47799 0.41965 0.98804 0.0
H851 H 0.48701 0.45092 0.93516 0.0
H852 H 0.20947 0.46345 0.10516 0.0
H853 H 0.18348 0.46605 0.02428 0.0
H854 H 0.18827 0.52953 0.05357 0.0
H855 H 0.21391 0.52692 0.13529 0.0
H856 H 0.15017 0.51317 0.08234 0.0
H857 H 0.179 0.48429 0.83609 0.0
H858 H 0.18208 0.46834 0.90262 0.0
H859 H 0.19563 0.49219 0.90187 0.0
C860 C 0.20552 0.47796 0.09219 0.0
C861 C 0.21355 0.495 0.12622 0.0
C862 C 0.1907 0.47944 0.04603 0.0
C863 C 0.18399 0.49799 0.0329 0.0
C864 C 0.19326 0.51509 0.06301 0.0
H865 H 0.09006 0.52283 0.76975 0.0
H866 H 0.12204 0.52094 0.82461 0.0
C867 C 0.2079 0.51361 0.10943 0.0
C868 C 0.16529 0.49944 0.99671 0.0
H869 H 0.14323 0.48796 0.84969 0.0
C870 C 0.14871 0.50781 0.03125 0.0
C871 C 0.16347 0.49243 0.93021 0.0
C872 C 0.18104 0.48396 0.89022 0.0
C873 C 0.13025 0.50922 0.00132 0.0
C874 C 0.12819 0.50168 0.93547 0.0
C875 C 0.14484 0.49355 0.90045 0.0
C876 C 0.10891 0.50242 0.90193 0.0
C877 C 0.11321 0.51901 0.04025 0.0
C878 C 0.09101 0.49251 0.92711 0.0
C879 C 0.07271 0.49373 0.89631 0.0
C880 C 0.07213 0.50473 0.83959 0.0
C881 C 0.0901 0.5144 0.81389 0.0
C882 C 0.10837 0.51324 0.84483 0.0
H883 H 0.1189 0.52845 0.08265 0.0
H884 H 0.10494 0.52824 0.0082 0.0
H885 H 0.10224 0.50746 0.06047 0.0
H886 H 0.09123 0.48378 0.97046 0.0
H887 H 0.05908 0.48595 0.91648 0.0
H888 H 0.97292 0.78869 0.22896 0.0
H889 H 0.97569 0.81207 0.32525 0.0
H890 H 0.94657 0.85521 0.21972 0.0
H891 H 0.94359 0.83192 0.12438 0.0
H892 H 0.99852 0.8474 0.31292 0.0
H893 H 0.92036 0.86196 0.40526 0.0
H894 H 0.92609 0.84026 0.35418 0.0
H895 H 0.92347 0.86344 0.31695 0.0
C896 C 0.9665 0.80292 0.2275 0.0
C897 C 0.95813 0.80862 0.16948 0.0
C898 C 0.96815 0.81626 0.28223 0.0
C899 C 0.96117 0.83529 0.27978 0.0
C900 C 0.95167 0.84048 0.22325 0.0
H901 H 0.97845 0.95292 0.43362 0.0
H902 H 0.96952 0.92123 0.37562 0.0
C903 C 0.95013 0.82725 0.16863 0.0
C904 C 0.96645 0.85079 0.33104 0.0
H905 H 0.94636 0.88798 0.42756 0.0
C906 C 0.98713 0.85602 0.33931 0.0
C907 C 0.95155 0.86202 0.36494 0.0
C908 C 0.92912 0.85651 0.3604 0.0
C909 C 0.99335 0.87296 0.37732 0.0
C910 C 0.97843 0.88473 0.40858 0.0
C911 C 0.95774 0.87897 0.40298 0.0
C912 C 0.98398 0.90371 0.444 0.0
C913 C 0.01578 0.87872 0.38064 0.0
C914 C 0.99505 0.90427 0.50148 0.0
C915 C 0.0003 0.92233 0.53422 0.0
C916 C 0.99441 0.94004 0.51016 0.0
C917 C 0.98328 0.93946 0.45278 0.0
C918 C 0.97809 0.9214 0.41995 0.0
H919 H 0.02506 0.87023 0.34327 0.0
H920 H 0.01887 0.89473 0.37271 0.0
H921 H 0.02081 0.87579 0.43052 0.0
H922 H 0.99944 0.89074 0.52133 0.0
H923 H 0.00866 0.9224 0.57896 0.0
H924 H 0.67614 0.00366 0.15791 0.0
H925 H 0.64763 0.00428 0.2399 0.0
H926 H 0.66563 0.95053 0.31845 0.0
H927 H 0.69436 0.94981 0.23588 0.0
H928 H 0.61686 0.97197 0.24468 0.0
H929 H 0.65364 0.98797 0.48501 0.0
H930 H 0.66636 0.99387 0.40646 0.0
H931 H 0.66352 0.96873 0.43051 0.0
C932 C 0.67419 0.99212 0.1933 0.0
C933 C 0.68731 0.97659 0.19037 0.0
C934 C 0.65794 0.99251 0.24004 0.0
C935 C 0.65455 0.97745 0.28501 0.0
C936 C 0.66816 0.96239 0.28449 0.0
H937 H 0.55492 0.96315 0.58336 0.0
H938 H 0.58448 0.95722 0.50918 0.0
C939 C 0.68454 0.96201 0.23754 0.0
C940 C 0.63578 0.97688 0.3283 0.0
H941 H 0.6179 0.98333 0.48872 0.0
C942 C 0.61705 0.97435 0.29811 0.0
C943 C 0.63617 0.97982 0.39785 0.0
C944 C 0.65595 0.98287 0.43225 0.0
C945 C 0.59861 0.975 0.33561 0.0
C946 C 0.59897 0.97867 0.40496 0.0
C947 C 0.61771 0.9806 0.43543 0.0
C948 C 0.58013 0.98134 0.44654 0.0
C949 C 0.57894 0.9717 0.30063 0.0
C950 C 0.56777 0.99679 0.43548 0.0
C951 C 0.55076 1.0002 0.47759 0.0
C952 C 0.54593 0.98832 0.53193 0.0
C953 C 0.55812 0.97257 0.5419 0.0
C954 C 0.57509 0.96918 0.49972 0.0
H955 H 0.58111 0.96338 0.25234 0.0
H956 H 0.56714 0.9635 0.33158 0.0
H957 H 0.57324 0.98622 0.29061 0.0
H958 H 0.57163 0.0066 0.39543 0.0
H959 H 0.54184 0.01255 0.46876 0.0
H960 H 0.556 0.71672 0.27764 0.0
H961 H 0.55277 0.69348 0.36686 0.0
H962 H 0.58567 0.65155 0.24332 0.0
H963 H 0.58958 0.67495 0.15504 0.0
H964 H 0.53152 0.6584 0.35059 0.0
H965 H 0.60916 0.64507 0.42076 0.0
H966 H 0.60377 0.66615 0.37502 0.0
H967 H 0.60666 0.64245 0.33282 0.0
C968 C 0.56321 0.70285 0.27044 0.0
C969 C 0.57293 0.6976 0.20917 0.0
C970 C 0.56125 0.68954 0.32131 0.0
C971 C 0.56908 0.67082 0.31196 0.0
C972 C 0.57984 0.66603 0.25226 0.0
H973 H 0.54679 0.555 0.45815 0.0
H974 H 0.55865 0.58501 0.40106 0.0
C975 C 0.58186 0.67933 0.20151 0.0
C976 C 0.56352 0.65533 0.35997 0.0
H977 H 0.58296 0.61973 0.44716 0.0
C978 C 0.54277 0.65019 0.37276 0.0
C979 C 0.57822 0.64454 0.38839 0.0
C980 C 0.60069 0.64996 0.37907 0.0
C981 C 0.5363 0.63403 0.4108 0.0
C982 C 0.551 0.62288 0.43749 0.0
C983 C 0.57175 0.62831 0.42634 0.0
C984 C 0.545 0.605 0.47454 0.0
C985 C 0.51381 0.62849 0.41967 0.0
C986 C 0.53372 0.6064 0.53515 0.0
C987 C 0.52685 0.58933 0.5675 0.0
C988 C 0.53128 0.57062 0.53985 0.0
C989 C 0.54308 0.56926 0.48019 0.0
C990 C 0.54992 0.58635 0.44779 0.0
H991 H 0.50479 0.63612 0.38501 0.0
H992 H 0.5107 0.6123 0.41185 0.0
H993 H 0.50848 0.63273 0.47105 0.0
H994 H 0.53003 0.62069 0.55702 0.0
H995 H 0.51795 0.59077 0.61387 0.0
H996 H 0.80894 0.48587 0.20026 0.0
H997 H 0.83345 0.48524 0.28569 0.0
H998 H 0.81801 0.54337 0.35933 0.0
H999 H 0.79421 0.54455 0.27089 0.0
H1000 H 0.85705 0.54276 0.33738 0.0
H1001 H 0.83275 0.47733 0.47854 0.0
H1002 H 0.83448 0.47034 0.39199 0.0
H1003 H 0.81624 0.48767 0.4228 0.0
C1004 C 0.81053 0.49841 0.23525 0.0
C1005 C 0.79986 0.51537 0.2283 0.0
C1006 C 0.82436 0.49792 0.2848 0.0
C1007 C 0.82744 0.51416 0.32954 0.0
C1008 C 0.8158 0.53062 0.3255 0.0
H1009 H 0.92114 0.50436 0.61479 0.0
H1010 H 0.88849 0.50775 0.56628 0.0
C1011 C 0.8021 0.53122 0.27527 0.0
C1012 C 0.84471 0.5149 0.3738 0.0
H1013 H 0.86911 0.4868 0.47578 0.0
C1014 C 0.85947 0.53071 0.36876 0.0
C1015 C 0.84781 0.49938 0.4156 0.0
C1016 C 0.83182 0.48287 0.42806 0.0
C1017 C 0.87771 0.53088 0.40139 0.0
C1018 C 0.8816 0.51444 0.43807 0.0
C1019 C 0.86636 0.49919 0.44631 0.0
C1020 C 0.90148 0.5126 0.46735 0.0
C1021 C 0.89258 0.54867 0.39594 0.0
C1022 C 0.91963 0.51386 0.42766 0.0
C1023 C 0.93836 0.51224 0.45556 0.0
C1024 C 0.93911 0.50883 0.52316 0.0
C1025 C 0.92094 0.50698 0.56241 0.0
C1026 C 0.90229 0.50893 0.5348 0.0
H1027 H 0.88468 0.56217 0.38692 0.0
H1028 H 0.90121 0.55142 0.44153 0.0
H1029 H 0.90352 0.54615 0.35328 0.0
H1030 H 0.91933 0.51604 0.37505 0.0
H1031 H 0.95218 0.51355 0.42432 0.0
loop_
_geom_bond_atom_site_label_1
_geom_bond_atom_site_label_2
_geom_bond_distance
_geom_bond_site_symmetry_2
_ccdc_geom_bond_type
H0 C3 0.929 . S
H1 C6 0.929 1_556 S
H2 C8 0.930 . S
C3 H0 0.929 . S
C3 C4 1.398 . S
C3 C5 1.396 . S
C4 C3 1.398 . S
C4 C8 1.407 . S
C5 C3 1.396 . S
C5 C6 1.394 . S
C6 H1 0.929 1_554 S
C6 C5 1.394 . S
C6 C7 1.382 . S
C7 C6 1.382 . S
C7 C8 1.392 . S
C7 N9 1.420 . S
C8 H2 0.930 . S
C8 C4 1.407 . S
C8 C7 1.392 . S
N9 C7 1.420 . S
N9 C10 1.244 . S
C10 N9 1.244 . S
H11 C14 0.929 . S
H12 C17 0.929 . S
H13 C19 0.930 . S
C14 H11 0.929 . S
C14 C15 1.398 . S
C14 C16 1.396 1_554 S
C15 C14 1.398 . S
C15 C19 1.407 . S
C16 C14 1.396 1_556 S
C16 C17 1.394 . S
C17 H12 0.929 . S
C17 C16 1.394 . S
C17 C18 1.382 1_556 S
C18 C17 1.382 1_554 S
C18 C19 1.392 . S
C18 N20 1.420 . S
C19 H13 0.930 . S
C19 C15 1.407 . S
C19 C18 1.392 . S
N20 C18 1.420 . S
N20 C21 1.244 1_554 S
C21 N20 1.244 1_556 S
H22 C25 0.929 . S
H23 C28 0.929 1_556 S
H24 C30 0.930 . S
C25 H22 0.929 . S
C25 C26 1.398 . S
C25 C27 1.396 . S
C26 C25 1.398 . S
C26 C30 1.407 . S
C27 C25 1.396 . S
C27 C28 1.394 . S
C28 H23 0.929 1_554 S
C28 C27 1.394 . S
C28 C29 1.382 . S
C29 C28 1.382 . S
C29 C30 1.392 . S
C29 N31 1.420 . S
C30 H24 0.930 . S
C30 C26 1.407 . S
C30 C29 1.392 . S
N31 C29 1.420 . S
N31 C32 1.244 . S
C32 N31 1.244 . S
H33 C36 0.929 . S
H34 C39 0.929 1_556 S
H35 C41 0.930 . S
C36 H33 0.929 . S
C36 C37 1.398 . S
C36 C38 1.396 . S
C37 C36 1.398 . S
C37 C41 1.407 . S
C38 C36 1.396 . S
C38 C39 1.394 . S
C39 H34 0.929 1_554 S
C39 C38 1.394 . S
C39 C40 1.382 . S
C40 C39 1.382 . S
C40 C41 1.392 . S
C40 N42 1.420 . S
C41 H35 0.930 . S
C41 C37 1.407 . S
C41 C40 1.392 . S
N42 C40 1.420 . S
N42 C43 1.244 . S
C43 N42 1.244 . S
H44 C47 0.929 . S
H45 C50 0.929 . S
H46 C52 0.930 . S
C47 H44 0.929 . S
C47 C48 1.398 . S
C47 C49 1.396 . S
C48 C47 1.398 . S
C48 C52 1.407 . S
C49 C47 1.396 . S
C49 C50 1.394 . S
C50 H45 0.929 . S
C50 C49 1.394 . S
C50 C51 1.382 . S
C51 C50 1.382 . S
C51 C52 1.392 . S
C51 N53 1.420 . S
C52 H46 0.930 . S
C52 C48 1.407 . S
C52 C51 1.392 . S
N53 C51 1.420 . S
N53 C54 1.244 . S
C54 N53 1.244 . S
H55 C58 0.929 . S
H56 C61 0.929 . S
H57 C63 0.930 . S
C58 H55 0.929 . S
C58 C59 1.398 . S
C58 C60 1.396 . S
C59 C58 1.398 . S
C59 C63 1.407 . S
C60 C58 1.396 . S
C60 C61 1.394 . S
C61 H56 0.929 . S
C61 C60 1.394 . S
C61 C62 1.382 . S
C62 C61 1.382 . S
C62 C63 1.392 . S
C62 N64 1.420 . S
C63 H57 0.930 . S
C63 C59 1.407 . S
C63 C62 1.392 . S
N64 C62 1.420 . S
N64 C65 1.244 . S
C65 N64 1.244 . S
H66 C69 0.929 . S
H67 C72 0.929 . S
H68 C74 0.930 . S
C69 H66 0.929 . S
C69 C70 1.398 . S
C69 C71 1.396 . S
C70 C69 1.398 . S
C70 C74 1.407 . S
C71 C69 1.396 . S
C71 C72 1.394 . S
C72 H67 0.929 . S
C72 C71 1.394 . S
C72 C73 1.382 . S
C73 C72 1.382 . S
C73 C74 1.392 . S
C73 N75 1.420 . S
C74 H68 0.930 . S
C74 C70 1.407 . S
C74 C73 1.392 . S
N75 C73 1.420 . S
N75 C76 1.244 . S
C76 N75 1.244 . S
H77 C80 0.929 . S
H78 C83 0.929 . S
H79 C85 0.930 . S
C80 H77 0.929 . S
C80 C81 1.398 . S
C80 C82 1.396 . S
C81 C80 1.398 . S
C81 C85 1.407 . S
C82 C80 1.396 . S
C82 C83 1.394 . S
C83 H78 0.929 . S
C83 C82 1.394 . S
C83 C84 1.382 . S
C84 C83 1.382 . S
C84 C85 1.392 . S
C84 N86 1.420 . S
C85 H79 0.930 . S
C85 C81 1.407 . S
C85 C84 1.392 . S
N86 C84 1.420 . S
N86 C87 1.244 . S
C87 N86 1.244 . S
Tb88 O91 2.453 1_565 S
Tb88 O92 2.596 1_665 S
Tb88 O93 2.374 1_665 S
Tb88 O101 2.343 1_655 S
Tb88 O103 2.353 1_565 S
Tb88 O105 2.427 . S
Tb88 O106 2.513 1_655 S
C89 O93 1.251 . S
C89 O95 1.263 . S
Tb90 O92 2.343 . S
Tb90 O95 2.353 . S
Tb90 O98 2.427 . S
Tb90 O99 2.513 . S
Tb90 O100 2.453 1_545 S
Tb90 O101 2.596 1_545 S
Tb90 O102 2.374 1_455 S
O91 Tb88 2.453 1_545 S
O91 C107 1.245 1_655 S
O92 Tb88 2.596 1_445 S
O92 Tb90 2.343 . S
O92 C107 1.259 . S
O93 Tb88 2.374 1_445 S
O93 C89 1.251 . S
C94 O98 1.275 . S
C94 O99 1.246 . S
O95 C89 1.263 . S
O95 Tb90 2.353 . S
C96 O100 1.245 . S
C96 O101 1.259 . S
C97 O102 1.250 . S
C97 O103 1.263 . S
O98 Tb90 2.427 . S
O98 C94 1.275 . S
O99 Tb90 2.513 . S
O99 C94 1.246 . S
O100 Tb90 2.453 1_565 S
O100 C96 1.245 . S
O101 Tb88 2.343 1_455 S
O101 Tb90 2.596 1_565 S
O101 C96 1.259 . S
O102 Tb90 2.374 1_655 S
O102 C97 1.250 . S
O103 Tb88 2.353 1_545 S
O103 C97 1.263 . S
C104 O105 1.275 . S
C104 O106 1.246 1_655 S
O105 Tb88 2.427 . S
O105 C104 1.275 . S
O106 Tb88 2.513 1_455 S
O106 C104 1.246 1_455 S
C107 O91 1.245 1_455 S
C107 O92 1.259 . S
Tb108 O111 2.453 . S
Tb108 O112 2.596 1_545 S
Tb108 O113 2.374 . S
Tb108 O121 2.343 . S
Tb108 O123 2.353 . S
Tb108 O125 2.427 . S
Tb108 O126 2.513 . S
C109 O113 1.203 1_565 S
C109 O115 1.300 . S
Tb110 O112 2.343 . S
Tb110 O115 2.353 . S
Tb110 O118 2.427 . S
Tb110 O119 2.513 . S
Tb110 O120 2.453 . S
Tb110 O121 2.596 1_565 S
Tb110 O122 2.374 . S
O111 Tb108 2.453 . S
O111 C127 1.245 . S
O112 Tb108 2.596 1_565 S
O112 Tb110 2.343 . S
O112 C127 1.259 1_565 S
O113 Tb108 2.374 . S
O113 C109 1.203 1_545 S
C114 O118 1.275 . S
C114 O119 1.246 . S
O115 C109 1.300 . S
O115 Tb110 2.353 . S
C116 O120 1.245 1_545 S
C116 O121 1.259 . S
C117 O122 1.250 1_545 S
C117 O123 1.263 . S
O118 Tb110 2.427 . S
O118 C114 1.275 . S
O119 Tb110 2.513 . S
O119 C114 1.246 . S
O120 Tb110 2.453 . S
O120 C116 1.245 1_565 S
O121 Tb108 2.343 . S
O121 Tb110 2.596 1_545 S
O121 C116 1.259 . S
O122 Tb110 2.374 . S
O122 C117 1.250 1_565 S
O123 Tb108 2.353 . S
O123 C117 1.263 . S
C124 O125 1.275 . S
C124 O126 1.246 . S
O125 Tb108 2.427 . S
O125 C124 1.275 . S
O126 Tb108 2.513 . S
O126 C124 1.246 . S
C127 O111 1.245 . S
C127 O112 1.259 1_545 S
Tb128 O131 2.453 . S
Tb128 O132 2.596 . S
Tb128 O133 2.374 . S
Tb128 O141 2.343 . S
Tb128 O143 2.353 . S
Tb128 O145 2.427 . S
Tb128 O146 2.513 . S
C129 O133 1.251 . S
C129 O135 1.263 . S
Tb130 O132 2.343 . S
Tb130 O135 2.353 . S
Tb130 O138 2.427 . S
Tb130 O139 2.513 . S
Tb130 O140 2.453 . S
Tb130 O141 2.596 . S
Tb130 O142 2.374 . S
O131 Tb128 2.453 . S
O131 C147 1.245 . S
O132 Tb128 2.596 . S
O132 Tb130 2.343 . S
O132 C147 1.259 . S
O133 Tb128 2.374 . S
O133 C129 1.251 . S
C134 O138 1.275 . S
C134 O139 1.246 . S
O135 C129 1.263 . S
O135 Tb130 2.353 . S
C136 O140 1.245 . S
C136 O141 1.259 . S
C137 O142 1.250 . S
C137 O143 1.263 . S
O138 Tb130 2.427 . S
O138 C134 1.275 . S
O139 Tb130 2.513 . S
O139 C134 1.246 . S
O140 Tb130 2.453 . S
O140 C136 1.245 . S
O141 Tb128 2.343 . S
O141 Tb130 2.596 . S
O141 C136 1.259 . S
O142 Tb130 2.374 . S
O142 C137 1.250 . S
O143 Tb128 2.353 . S
O143 C137 1.263 . S
C144 O145 1.275 . S
C144 O146 1.246 . S
O145 Tb128 2.427 . S
O145 C144 1.275 . S
O146 Tb128 2.513 . S
O146 C144 1.246 . S
C147 O131 1.245 . S
C147 O132 1.259 . S
Tb148 O151 2.453 1_655 S
Tb148 O152 2.596 1_655 S
Tb148 O153 2.374 1_655 S
Tb148 O161 2.343 . S
Tb148 O163 2.353 1_655 S
Tb148 O165 2.427 . S
Tb148 O166 2.513 . S
C149 O153 1.251 . S
C149 O155 1.263 . S
Tb150 O152 2.343 . S
Tb150 O155 2.353 . S
Tb150 O158 2.427 . S
Tb150 O159 2.513 . S
Tb150 O160 2.453 1_455 S
Tb150 O161 2.596 1_455 S
Tb150 O162 2.374 . S
O151 Tb148 2.453 1_455 S
O151 C167 1.245 . S
O152 Tb148 2.596 1_455 S
O152 Tb150 2.343 . S
O152 C167 1.259 . S
O153 Tb148 2.374 1_455 S
O153 C149 1.251 . S
C154 O158 1.275 . S
C154 O159 1.246 . S
O155 C149 1.263 . S
O155 Tb150 2.353 . S
C156 O160 1.245 . S
C156 O161 1.259 . S
C157 O162 1.250 . S
C157 O163 1.263 . S
O158 Tb150 2.427 . S
O158 C154 1.275 . S
O159 Tb150 2.513 . S
O159 C154 1.246 . S
O160 Tb150 2.453 1_655 S
O160 C156 1.245 . S
O161 Tb148 2.343 . S
O161 Tb150 2.596 1_655 S
O161 C156 1.259 . S
O162 Tb150 2.374 . S
O162 C157 1.250 . S
O163 Tb148 2.353 1_455 S
O163 C157 1.263 . S
C164 O165 1.275 . S
C164 O166 1.246 . S
O165 Tb148 2.427 . S
O165 C164 1.275 . S
O166 Tb148 2.513 . S
O166 C164 1.246 . S
C167 O151 1.245 . S
C167 O152 1.259 . S
H168 C176 0.929 . S
H169 C178 0.930 . S
H170 C180 0.930 . S
H171 C183 0.929 . S
H172 C186 0.930 . S
H173 C188 0.960 . S
H174 C188 0.960 . S
H175 C188 0.960 . S
C176 H168 0.929 . S
C176 C177 1.377 . S
C176 C178 1.384 . S
C177 C176 1.377 . S
C177 C183 1.390 . S
C178 H169 0.930 . S
C178 C176 1.384 . S
C178 C179 1.372 . S
C179 C178 1.372 . S
C179 C180 1.400 . S
C179 C184 1.490 . S
C180 H170 0.930 . S
C180 C179 1.400 . S
C180 C183 1.386 . S
H181 C197 0.930 . S
H182 C198 0.931 . S
C183 H171 0.929 . S
C183 C177 1.390 . S
C183 C180 1.386 . S
C184 C179 1.490 . S
C184 C186 1.395 . S
C184 C187 1.403 . S
H185 C191 0.930 . S
C186 H172 0.930 . S
C186 C184 1.395 . S
C186 C189 1.403 . S
C187 C184 1.403 . S
C187 C188 1.524 . S
C187 C191 1.400 . S
C188 H173 0.960 . S
C188 H174 0.960 . S
C188 H175 0.960 . S
C188 C187 1.524 . S
C189 C186 1.403 . S
C189 C190 1.392 . S
C189 C193 1.495 1_545 S
C190 C189 1.392 . S
C190 C191 1.385 . S
C190 C192 1.478 . S
C191 H185 0.930 . S
C191 C187 1.400 . S
C191 C190 1.385 . S
C192 C190 1.478 . S
C192 C194 1.381 . S
C192 C198 1.383 . S
C193 C189 1.495 1_565 S
C193 H199 0.959 . S
C193 H200 0.961 . S
C193 H201 0.960 . S
C194 C192 1.381 . S
C194 C195 1.394 . S
C194 H202 0.930 . S
C195 C194 1.394 . S
C195 C196 1.383 . S
C195 H203 0.929 1_545 S
C196 C195 1.383 . S
C196 C197 1.377 . S
C197 H181 0.930 . S
C197 C196 1.377 . S
C197 C198 1.379 . S
C198 H182 0.931 . S
C198 C192 1.383 . S
C198 C197 1.379 . S
H199 C193 0.959 . S
H200 C193 0.961 . S
H201 C193 0.960 . S
H202 C194 0.930 . S
H203 C195 0.929 1_565 S
H204 C212 0.929 . S
H205 C214 0.930 . S
H206 C216 0.930 . S
H207 C219 0.929 . S
H208 C222 0.930 . S
H209 C224 0.960 . S
H210 C224 0.960 . S
H211 C224 0.960 . S
C212 H204 0.929 . S
C212 C213 1.377 . S
C212 C214 1.384 . S
C213 C212 1.377 . S
C213 C219 1.390 . S
C214 H205 0.930 . S
C214 C212 1.384 . S
C214 C215 1.372 . S
C215 C214 1.372 . S
C215 C216 1.400 . S
C215 C220 1.490 . S
C216 H206 0.930 . S
C216 C215 1.400 . S
C216 C219 1.386 . S
H217 C233 0.930 . S
H218 C234 0.931 . S
C219 H207 0.929 . S
C219 C213 1.390 . S
C219 C216 1.386 . S
C220 C215 1.490 . S
C220 C222 1.395 . S
C220 C223 1.403 . S
H221 C227 0.930 . S
C222 H208 0.930 . S
C222 C220 1.395 . S
C222 C225 1.403 . S
C223 C220 1.403 . S
C223 C224 1.524 . S
C223 C227 1.400 . S
C224 H209 0.960 . S
C224 H210 0.960 . S
C224 H211 0.960 . S
C224 C223 1.524 . S
C225 C222 1.403 . S
C225 C226 1.392 . S
C225 C229 1.495 . S
C226 C225 1.392 . S
C226 C227 1.385 . S
C226 C228 1.478 . S
C227 H221 0.930 . S
C227 C223 1.400 . S
C227 C226 1.385 . S
C228 C226 1.478 . S
C228 C230 1.381 . S
C228 C234 1.383 . S
C229 C225 1.495 . S
C229 H235 0.959 . S
C229 H236 0.961 . S
C229 H237 0.960 . S
C230 C228 1.381 . S
C230 C231 1.394 . S
C230 H238 0.930 . S
C231 C230 1.394 . S
C231 C232 1.383 . S
C231 H239 0.929 . S
C232 C231 1.383 . S
C232 C233 1.377 . S
C233 H217 0.930 . S
C233 C232 1.377 . S
C233 C234 1.379 . S
C234 H218 0.931 . S
C234 C228 1.383 . S
C234 C233 1.379 . S
H235 C229 0.959 . S
H236 C229 0.961 . S
H237 C229 0.960 . S
H238 C230 0.930 . S
H239 C231 0.929 . S
H240 C248 0.929 . S
H241 C250 0.930 . S
H242 C252 0.930 . S
H243 C255 0.929 . S
H244 C258 0.930 . S
H245 C260 0.960 . S
H246 C260 0.960 . S
H247 C260 0.960 . S
C248 H240 0.929 . S
C248 C249 1.377 . S
C248 C250 1.384 . S
C249 C248 1.377 . S
C249 C255 1.390 . S
C250 H241 0.930 . S
C250 C248 1.384 . S
C250 C251 1.372 . S
C251 C250 1.372 . S
C251 C252 1.400 . S
C251 C256 1.490 . S
C252 H242 0.930 . S
C252 C251 1.400 . S
C252 C255 1.386 . S
H253 C269 0.930 . S
H254 C270 0.931 . S
C255 H243 0.929 . S
C255 C249 1.390 . S
C255 C252 1.386 . S
C256 C251 1.490 . S
C256 C258 1.395 . S
C256 C259 1.403 . S
H257 C263 0.930 . S
C258 H244 0.930 . S
C258 C256 1.395 . S
C258 C261 1.403 . S
C259 C256 1.403 . S
C259 C260 1.524 . S
C259 C263 1.400 . S
C260 H245 0.960 . S
C260 H246 0.960 . S
C260 H247 0.960 . S
C260 C259 1.524 . S
C261 C258 1.403 . S
C261 C262 1.392 . S
C261 C265 1.495 . S
C262 C261 1.392 . S
C262 C263 1.385 . S
C262 C264 1.478 . S
C263 H257 0.930 . S
C263 C259 1.400 . S
C263 C262 1.385 . S
C264 C262 1.478 . S
C264 C266 1.381 . S
C264 C270 1.383 . S
C265 C261 1.495 . S
C265 H271 0.959 . S
C265 H272 0.961 . S
C265 H273 0.960 . S
C266 C264 1.381 . S
C266 C267 1.394 . S
C266 H274 0.930 . S
C267 C266 1.394 . S
C267 C268 1.383 . S
C267 H275 0.929 . S
C268 C267 1.383 . S
C268 C269 1.377 . S
C269 H253 0.930 . S
C269 C268 1.377 . S
C269 C270 1.379 . S
C270 H254 0.931 . S
C270 C264 1.383 . S
C270 C269 1.379 . S
H271 C265 0.959 . S
H272 C265 0.961 . S
H273 C265 0.960 . S
H274 C266 0.930 . S
H275 C267 0.929 . S
H276 C284 0.929 . S
H277 C286 0.930 . S
H278 C288 0.930 . S
H279 C291 0.929 . S
H280 C294 0.930 . S
H281 C296 0.960 1_655 S
H282 C296 0.957 1_655 S
H283 C296 0.960 . S
C284 H276 0.929 . S
C284 C285 1.377 . S
C284 C286 1.384 . S
C285 C284 1.377 . S
C285 C291 1.390 . S
C286 H277 0.930 . S
C286 C284 1.384 . S
C286 C287 1.372 . S
C287 C286 1.372 . S
C287 C288 1.400 . S
C287 C292 1.490 . S
C288 H278 0.930 . S
C288 C287 1.400 . S
C288 C291 1.386 . S
H289 C305 0.930 . S
H290 C306 0.931 . S
C291 H279 0.929 . S
C291 C285 1.390 . S
C291 C288 1.386 . S
C292 C287 1.490 . S
C292 C294 1.395 . S
C292 C295 1.403 . S
H293 C299 0.930 . S
C294 H280 0.930 . S
C294 C292 1.395 . S
C294 C297 1.403 . S
C295 C292 1.403 . S
C295 C296 1.524 . S
C295 C299 1.400 . S
C296 H281 0.960 1_455 S
C296 H282 0.957 1_455 S
C296 H283 0.960 . S
C296 C295 1.524 . S
C297 C294 1.403 . S
C297 C298 1.392 . S
C297 C301 1.495 . S
C298 C297 1.392 . S
C298 C299 1.385 . S
C298 C300 1.478 . S
C299 H293 0.930 . S
C299 C295 1.400 . S
C299 C298 1.385 . S
C300 C298 1.478 . S
C300 C302 1.381 . S
C300 C306 1.383 . S
C301 C297 1.495 . S
C301 H307 0.959 . S
C301 H308 0.961 . S
C301 H309 0.960 . S
C302 C300 1.381 . S
C302 C303 1.394 . S
C302 H310 0.930 . S
C303 C302 1.394 . S
C303 C304 1.383 . S
C303 H311 0.929 . S
C304 C303 1.383 . S
C304 C305 1.377 . S
C305 H289 0.930 . S
C305 C304 1.377 . S
C305 C306 1.379 . S
C306 H290 0.931 . S
C306 C300 1.383 . S
C306 C305 1.379 . S
H307 C301 0.959 . S
H308 C301 0.961 . S
H309 C301 0.960 . S
H310 C302 0.930 . S
H311 C303 0.929 . S
H312 C320 0.929 . S
H313 C322 0.930 . S
H314 C324 0.930 1_554 S
H315 C327 0.929 . S
H316 C330 0.930 . S
H317 C332 0.960 1_554 S
H318 C332 0.960 . S
H319 C332 0.960 1_554 S
C320 H312 0.929 . S
C320 C321 1.377 . S
C320 C322 1.384 . S
C321 C320 1.377 . S
C321 C327 1.390 1_556 S
C322 H313 0.930 . S
C322 C320 1.384 . S
C322 C323 1.372 . S
C323 C322 1.372 . S
C323 C324 1.400 . S
C323 C328 1.490 . S
C324 H314 0.930 1_556 S
C324 C323 1.400 . S
C324 C327 1.386 1_556 S
H325 C341 0.930 . S
H326 C342 0.931 . S
C327 H315 0.929 . S
C327 C321 1.390 1_554 S
C327 C324 1.386 1_554 S
C328 C323 1.490 . S
C328 C330 1.395 . S
C328 C331 1.403 . S
H329 C335 0.930 . S
C330 H316 0.930 . S
C330 C328 1.395 . S
C330 C333 1.403 . S
C331 C328 1.403 . S
C331 C332 1.524 . S
C331 C335 1.400 . S
C332 H317 0.960 1_556 S
C332 H318 0.960 . S
C332 H319 0.960 1_556 S
C332 C331 1.524 . S
C333 C330 1.403 . S
C333 C334 1.392 . S
C333 C337 1.495 . S
C334 C333 1.392 . S
C334 C335 1.385 . S
C334 C336 1.478 . S
C335 H329 0.930 . S
C335 C331 1.400 . S
C335 C334 1.385 . S
C336 C334 1.478 . S
C336 C338 1.381 . S
C336 C342 1.383 1_565 S
C337 C333 1.495 . S
C337 H343 0.959 . S
C337 H344 0.961 1_565 S
C337 H345 0.960 . S
C338 C336 1.381 . S
C338 C339 1.394 . S
C338 H346 0.930 . S
C339 C338 1.394 . S
C339 C340 1.383 . S
C339 H347 0.929 . S
C340 C339 1.383 . S
C340 C341 1.377 1_565 S
C341 H325 0.930 . S
C341 C340 1.377 1_545 S
C341 C342 1.379 . S
C342 H326 0.931 . S
C342 C336 1.383 1_545 S
C342 C341 1.379 . S
H343 C337 0.959 . S
H344 C337 0.961 1_545 S
H345 C337 0.960 . S
H346 C338 0.930 . S
H347 C339 0.929 . S
H348 C356 0.929 . S
H349 C358 0.930 . S
H350 C360 0.930 . S
H351 C363 0.929 . S
H352 C366 0.930 . S
H353 C368 0.960 . S
H354 C368 0.960 . S
H355 C368 0.960 . S
C356 H348 0.929 . S
C356 C357 1.377 . S
C356 C358 1.384 . S
C357 C356 1.377 . S
C357 C363 1.390 1_554 S
C358 H349 0.930 . S
C358 C356 1.384 . S
C358 C359 1.372 1_554 S
C359 C358 1.372 1_556 S
C359 C360 1.400 . S
C359 C364 1.490 . S
C360 H350 0.930 . S
C360 C359 1.400 . S
C360 C363 1.386 . S
H361 C377 0.930 . S
H362 C378 0.931 . S
C363 H351 0.929 . S
C363 C357 1.390 1_556 S
C363 C360 1.386 . S
C364 C359 1.490 . S
C364 C366 1.395 . S
C364 C367 1.403 . S
H365 C371 0.930 . S
C366 H352 0.930 . S
C366 C364 1.395 . S
C366 C369 1.403 . S
C367 C364 1.403 . S
C367 C368 1.524 . S
C367 C371 1.400 . S
C368 H353 0.960 . S
C368 H354 0.960 . S
C368 H355 0.960 . S
C368 C367 1.524 . S
C369 C366 1.403 . S
C369 C370 1.392 . S
C369 C373 1.495 . S
C370 C369 1.392 . S
C370 C371 1.385 . S
C370 C372 1.478 . S
C371 H365 0.930 . S
C371 C367 1.400 . S
C371 C370 1.385 . S
C372 C370 1.478 . S
C372 C374 1.381 . S
C372 C378 1.383 . S
C373 C369 1.495 . S
C373 H379 0.959 . S
C373 H380 0.961 . S
C373 H381 0.960 . S
C374 C372 1.381 . S
C374 C375 1.394 . S
C374 H382 0.930 . S
C375 C374 1.394 . S
C375 C376 1.383 . S
C375 H383 0.929 . S
C376 C375 1.383 . S
C376 C377 1.377 . S
C377 H361 0.930 . S
C377 C376 1.377 . S
C377 C378 1.379 . S
C378 H362 0.931 . S
C378 C372 1.383 . S
C378 C377 1.379 . S
H379 C373 0.959 . S
H380 C373 0.961 . S
H381 C373 0.960 . S
H382 C374 0.930 . S
H383 C375 0.929 . S
H384 C392 0.929 . S
H385 C394 0.930 . S
H386 C396 0.930 1_554 S
H387 C399 0.929 . S
H388 C402 0.930 . S
H389 C404 0.960 . S
H390 C404 0.960 . S
H391 C404 0.960 . S
C392 H384 0.929 . S
C392 C393 1.377 1_556 S
C392 C394 1.384 . S
C393 C392 1.377 1_554 S
C393 C399 1.390 . S
C394 H385 0.930 . S
C394 C392 1.384 . S
C394 C395 1.372 . S
C395 C394 1.372 . S
C395 C396 1.400 . S
C395 C400 1.490 . S
C396 H386 0.930 1_556 S
C396 C395 1.400 . S
C396 C399 1.386 1_556 S
H397 C413 0.930 . S
H398 C414 0.931 . S
C399 H387 0.929 . S
C399 C393 1.390 . S
C399 C396 1.386 1_554 S
C400 C395 1.490 . S
C400 C402 1.395 . S
C400 C403 1.403 . S
H401 C407 0.930 . S
C402 H388 0.930 . S
C402 C400 1.395 . S
C402 C405 1.403 . S
C403 C400 1.403 . S
C403 C404 1.524 1_556 S
C403 C407 1.400 . S
C404 H389 0.960 . S
C404 H390 0.960 . S
C404 H391 0.960 . S
C404 C403 1.524 1_554 S
C405 C402 1.403 . S
C405 C406 1.392 . S
C405 C409 1.495 . S
C406 C405 1.392 . S
C406 C407 1.385 . S
C406 C408 1.478 . S
C407 H401 0.930 . S
C407 C403 1.400 . S
C407 C406 1.385 . S
C408 C406 1.478 . S
C408 C410 1.381 . S
C408 C414 1.383 . S
C409 C405 1.495 . S
C409 H415 0.959 . S
C409 H416 0.961 . S
C409 H417 0.960 . S
C410 C408 1.381 . S
C410 C411 1.394 . S
C410 H418 0.930 . S
C411 C410 1.394 . S
C411 C412 1.383 . S
C411 H419 0.929 . S
C412 C411 1.383 . S
C412 C413 1.377 . S
C413 H397 0.930 . S
C413 C412 1.377 . S
C413 C414 1.379 . S
C414 H398 0.931 . S
C414 C408 1.383 . S
C414 C413 1.379 . S
H415 C409 0.959 . S
H416 C409 0.961 . S
H417 C409 0.960 . S
H418 C410 0.930 . S
H419 C411 0.929 . S
H420 C428 0.929 . S
H421 C430 0.930 . S
H422 C432 0.930 . S
H423 C435 0.929 . S
H424 C438 0.930 . S
H425 C440 0.960 . S
H426 C440 0.960 1_655 S
H427 C440 0.960 . S
C428 H420 0.929 . S
C428 C429 1.377 . S
C428 C430 1.384 . S
C429 C428 1.377 . S
C429 C435 1.390 . S
C430 H421 0.930 . S
C430 C428 1.384 . S
C430 C431 1.372 . S
C431 C430 1.372 . S
C431 C432 1.400 . S
C431 C436 1.490 . S
C432 H422 0.930 . S
C432 C431 1.400 . S
C432 C435 1.386 . S
H433 C449 0.930 . S
H434 C450 0.946 . S
C435 H423 0.929 . S
C435 C429 1.390 . S
C435 C432 1.386 . S
C436 C431 1.490 . S
C436 C438 1.395 . S
C436 C439 1.403 . S
H437 C443 0.930 1_455 S
C438 H424 0.930 . S
C438 C436 1.395 . S
C438 C441 1.403 . S
C439 C436 1.403 . S
C439 C440 1.524 1_655 S
C439 C443 1.400 . S
C440 H425 0.960 . S
C440 H426 0.960 1_455 S
C440 H427 0.960 . S
C440 C439 1.524 1_455 S
C441 C438 1.403 . S
C441 C442 1.392 . S
C441 C445 1.495 . S
C442 C441 1.392 . S
C442 C443 1.385 . S
C442 C444 1.478 . S
C443 H437 0.930 1_655 S
C443 C439 1.400 . S
C443 C442 1.385 . S
C444 C442 1.478 . S
C444 C446 1.381 . S
C444 C450 1.358 1_655 S
C445 C441 1.495 . S
C445 H451 0.959 . S
C445 H452 0.961 . S
C445 H453 0.960 . S
C446 C444 1.381 . S
C446 C447 1.394 . S
C446 H454 0.930 . S
C447 C446 1.394 . S
C447 C448 1.383 . S
C447 H455 0.929 . S
C448 C447 1.383 . S
C448 C449 1.377 1_655 S
C449 H433 0.930 . S
C449 C448 1.377 1_455 S
C449 C450 1.390 . S
C450 H434 0.946 . S
C450 C444 1.358 1_455 S
C450 C449 1.390 . S
H451 C445 0.959 . S
H452 C445 0.961 . S
H453 C445 0.960 . S
H454 C446 0.930 . S
H455 C447 0.929 . S
H456 C464 0.929 . S
H457 C466 0.930 . S
H458 C468 0.930 . S
H459 C471 0.929 . S
H460 C474 0.930 . S
H461 C476 0.960 1_655 S
H462 C476 0.952 1_655 S
H463 C476 0.960 . S
C464 H456 0.929 . S
C464 C465 1.377 . S
C464 C466 1.384 . S
C465 C464 1.377 . S
C465 C471 1.390 . S
C466 H457 0.930 . S
C466 C464 1.384 . S
C466 C467 1.372 . S
C467 C466 1.372 . S
C467 C468 1.400 . S
C467 C472 1.490 . S
C468 H458 0.930 . S
C468 C467 1.400 . S
C468 C471 1.386 . S
H469 C485 0.930 . S
H470 C486 0.931 . S
C471 H459 0.929 . S
C471 C465 1.390 . S
C471 C468 1.386 . S
C472 C467 1.490 . S
C472 C474 1.395 . S
C472 C475 1.403 . S
H473 C479 0.930 . S
C474 H460 0.930 . S
C474 C472 1.395 . S
C474 C477 1.403 . S
C475 C472 1.403 . S
C475 C476 1.524 . S
C475 C479 1.400 . S
C476 H461 0.960 1_455 S
C476 H462 0.952 1_455 S
C476 H463 0.960 . S
C476 C475 1.524 . S
C477 C474 1.403 . S
C477 C478 1.392 . S
C477 C481 1.495 . S
C478 C477 1.392 . S
C478 C479 1.385 . S
C478 C480 1.478 . S
C479 H473 0.930 . S
C479 C475 1.400 . S
C479 C478 1.385 . S
C480 C478 1.478 . S
C480 C482 1.381 . S
C480 C486 1.383 . S
C481 C477 1.495 . S
C481 H487 0.959 . S
C481 H488 0.961 . S
C481 H489 0.960 . S
C482 C480 1.381 . S
C482 C483 1.394 . S
C482 H490 0.930 . S
C483 C482 1.394 . S
C483 C484 1.383 . S
C483 H491 0.929 . S
C484 C483 1.383 . S
C484 C485 1.377 . S
C485 H469 0.930 . S
C485 C484 1.377 . S
C485 C486 1.379 . S
C486 H470 0.931 . S
C486 C480 1.383 . S
C486 C485 1.379 . S
H487 C481 0.959 . S
H488 C481 0.961 . S
H489 C481 0.960 . S
H490 C482 0.930 . S
H491 C483 0.929 . S
H492 C500 0.929 . S
H493 C502 0.930 . S
H494 C504 0.930 . S
H495 C507 0.929 . S
H496 C510 0.930 . S
H497 C512 0.960 . S
H498 C512 0.960 . S
H499 C512 0.960 . S
C500 H492 0.929 . S
C500 C501 1.377 . S
C500 C502 1.384 . S
C501 C500 1.377 . S
C501 C507 1.390 . S
C502 H493 0.930 . S
C502 C500 1.384 . S
C502 C503 1.372 . S
C503 C502 1.372 . S
C503 C504 1.400 . S
C503 C508 1.490 . S
C504 H494 0.930 . S
C504 C503 1.400 . S
C504 C507 1.386 . S
H505 C521 0.930 . S
H506 C522 0.931 . S
C507 H495 0.929 . S
C507 C501 1.390 . S
C507 C504 1.386 . S
C508 C503 1.490 . S
C508 C510 1.395 . S
C508 C511 1.403 . S
H509 C515 0.930 . S
C510 H496 0.930 . S
C510 C508 1.395 . S
C510 C513 1.403 . S
C511 C508 1.403 . S
C511 C512 1.524 . S
C511 C515 1.400 . S
C512 H497 0.960 . S
C512 H498 0.960 . S
C512 H499 0.960 . S
C512 C511 1.524 . S
C513 C510 1.403 . S
C513 C514 1.392 . S
C513 C517 1.495 1_545 S
C514 C513 1.392 . S
C514 C515 1.385 . S
C514 C516 1.478 . S
C515 H509 0.930 . S
C515 C511 1.400 . S
C515 C514 1.385 . S
C516 C514 1.478 . S
C516 C518 1.381 . S
C516 C522 1.383 . S
C517 C513 1.495 1_565 S
C517 H523 0.959 . S
C517 H524 0.961 . S
C517 H525 0.955 1_565 S
C518 C516 1.381 . S
C518 C519 1.394 . S
C518 H526 0.930 . S
C519 C518 1.394 . S
C519 C520 1.383 . S
C519 H527 0.929 . S
C520 C519 1.383 . S
C520 C521 1.377 . S
C521 H505 0.930 . S
C521 C520 1.377 . S
C521 C522 1.379 . S
C522 H506 0.931 . S
C522 C516 1.383 . S
C522 C521 1.379 . S
H523 C517 0.959 . S
H524 C517 0.961 . S
H525 C517 0.955 1_545 S
H526 C518 0.930 . S
H527 C519 0.929 . S
H528 C536 0.929 . S
H529 C538 0.930 . S
H530 C540 0.930 . S
H531 C543 0.929 . S
H532 C546 0.930 . S
H533 C548 0.960 . S
H534 C548 0.960 . S
H535 C548 0.960 . S
C536 H528 0.929 . S
C536 C537 1.377 . S
C536 C538 1.384 . S
C537 C536 1.377 . S
C537 C543 1.390 . S
C538 H529 0.930 . S
C538 C536 1.384 . S
C538 C539 1.372 . S
C539 C538 1.372 . S
C539 C540 1.400 . S
C539 C544 1.490 . S
C540 H530 0.930 . S
C540 C539 1.400 . S
C540 C543 1.386 . S
H541 C557 0.930 . S
H542 C558 0.931 . S
C543 H531 0.929 . S
C543 C537 1.390 . S
C543 C540 1.386 . S
C544 C539 1.490 . S
C544 C546 1.395 . S
C544 C547 1.403 . S
H545 C551 0.930 . S
C546 H532 0.930 . S
C546 C544 1.395 . S
C546 C549 1.403 . S
C547 C544 1.403 . S
C547 C548 1.524 . S
C547 C551 1.400 . S
C548 H533 0.960 . S
C548 H534 0.960 . S
C548 H535 0.960 . S
C548 C547 1.524 . S
C549 C546 1.403 . S
C549 C550 1.392 . S
C549 C553 1.495 . S
C550 C549 1.392 . S
C550 C551 1.385 . S
C550 C552 1.478 . S
C551 H545 0.930 . S
C551 C547 1.400 . S
C551 C550 1.385 . S
C552 C550 1.478 . S
C552 C554 1.381 . S
C552 C558 1.383 . S
C553 C549 1.495 . S
C553 H559 0.959 . S
C553 H560 0.961 . S
C553 H561 0.960 . S
C554 C552 1.381 . S
C554 C555 1.394 . S
C554 H562 0.930 . S
C555 C554 1.394 . S
C555 C556 1.383 . S
C555 H563 0.929 . S
C556 C555 1.383 . S
C556 C557 1.377 . S
C557 H541 0.930 . S
C557 C556 1.377 . S
C557 C558 1.379 . S
C558 H542 0.931 . S
C558 C552 1.383 . S
C558 C557 1.379 . S
H559 C553 0.959 . S
H560 C553 0.961 . S
H561 C553 0.960 . S
H562 C554 0.930 . S
H563 C555 0.929 . S
H564 C572 0.929 . S
H565 C574 0.930 . S
H566 C576 0.930 . S
H567 C579 0.929 . S
H568 C582 0.930 . S
H569 C584 0.960 . S
H570 C584 0.960 . S
H571 C584 0.960 . S
C572 H564 0.929 . S
C572 C573 1.377 . S
C572 C574 1.384 . S
C573 C572 1.377 . S
C573 C579 1.390 . S
C574 H565 0.930 . S
C574 C572 1.384 . S
C574 C575 1.372 . S
C575 C574 1.372 . S
C575 C576 1.400 . S
C575 C580 1.490 . S
C576 H566 0.930 . S
C576 C575 1.400 . S
C576 C579 1.386 . S
H577 C593 0.930 . S
H578 C594 0.931 . S
C579 H567 0.929 . S
C579 C573 1.390 . S
C579 C576 1.386 . S
C580 C575 1.490 . S
C580 C582 1.395 . S
C580 C583 1.403 . S
H581 C587 0.930 . S
C582 H568 0.930 . S
C582 C580 1.395 . S
C582 C585 1.403 . S
C583 C580 1.403 . S
C583 C584 1.524 . S
C583 C587 1.400 . S
C584 H569 0.960 . S
C584 H570 0.960 . S
C584 H571 0.960 . S
C584 C583 1.524 . S
C585 C582 1.403 . S
C585 C586 1.392 . S
C585 C589 1.495 . S
C586 C585 1.392 . S
C586 C587 1.385 . S
C586 C588 1.478 . S
C587 H581 0.930 . S
C587 C583 1.400 . S
C587 C586 1.385 . S
C588 C586 1.478 . S
C588 C590 1.381 . S
C588 C594 1.383 . S
C589 C585 1.495 . S
C589 H595 0.959 . S
C589 H596 0.961 . S
C589 H597 0.960 . S
C590 C588 1.381 . S
C590 C591 1.394 . S
C590 H598 0.930 . S
C591 C590 1.394 . S
C591 C592 1.383 . S
C591 H599 0.929 . S
C592 C591 1.383 . S
C592 C593 1.377 . S
C593 H577 0.930 . S
C593 C592 1.377 . S
C593 C594 1.379 . S
C594 H578 0.931 . S
C594 C588 1.383 . S
C594 C593 1.379 . S
H595 C589 0.959 . S
H596 C589 0.961 . S
H597 C589 0.960 . S
H598 C590 0.930 . S
H599 C591 0.929 . S
H600 C608 0.929 . S
H601 C610 0.930 . S
H602 C612 0.930 . S
H603 C615 0.929 1_554 S
H604 C618 0.930 . S
H605 C620 0.960 . S
H606 C620 0.960 . S
H607 C620 0.960 . S
C608 H600 0.929 . S
C608 C609 1.377 . S
C608 C610 1.384 . S
C609 C608 1.377 . S
C609 C615 1.390 . S
C610 H601 0.930 . S
C610 C608 1.384 . S
C610 C611 1.372 . S
C611 C610 1.372 . S
C611 C612 1.400 . S
C611 C616 1.490 . S
C612 H602 0.930 . S
C612 C611 1.400 . S
C612 C615 1.386 . S
H613 C629 0.930 1_455 S
H614 C630 0.931 . S
C615 H603 0.929 1_556 S
C615 C609 1.390 . S
C615 C612 1.386 . S
C616 C611 1.490 . S
C616 C618 1.395 . S
C616 C619 1.403 . S
H617 C623 0.930 1_455 S
C618 H604 0.930 . S
C618 C616 1.395 . S
C618 C621 1.403 . S
C619 C616 1.403 . S
C619 C620 1.524 1_655 S
C619 C623 1.400 . S
C620 H605 0.960 . S
C620 H606 0.960 . S
C620 H607 0.960 . S
C620 C619 1.524 1_455 S
C621 C618 1.403 . S
C621 C622 1.392 . S
C621 C625 1.495 . S
C622 C621 1.392 . S
C622 C623 1.385 . S
C622 C624 1.478 . S
C623 H617 0.930 1_655 S
C623 C619 1.400 . S
C623 C622 1.385 . S
C624 C622 1.478 . S
C624 C626 1.381 . S
C624 C630 1.383 . S
C625 C621 1.495 . S
C625 H631 0.959 . S
C625 H632 0.961 . S
C625 H633 0.960 . S
C626 C624 1.381 . S
C626 C627 1.394 . S
C626 H634 0.930 . S
C627 C626 1.394 . S
C627 C628 1.383 . S
C627 H635 0.929 . S
C628 C627 1.383 . S
C628 C629 1.377 . S
C629 H613 0.930 1_655 S
C629 C628 1.377 . S
C629 C630 1.379 . S
C630 H614 0.931 . S
C630 C624 1.383 . S
C630 C629 1.379 . S
H631 C625 0.959 . S
H632 C625 0.961 . S
H633 C625 0.960 . S
H634 C626 0.930 . S
H635 C627 0.929 . S
H636 C644 0.929 . S
H637 C646 0.930 . S
H638 C648 0.930 . S
H639 C651 0.929 . S
H640 C654 0.930 . S
H641 C656 0.960 . S
H642 C656 0.960 . S
H643 C656 0.960 . S
C644 H636 0.929 . S
C644 C645 1.377 . S
C644 C646 1.384 . S
C645 C644 1.377 . S
C645 C651 1.390 . S
C646 H637 0.930 . S
C646 C644 1.384 . S
C646 C647 1.372 . S
C647 C646 1.372 . S
C647 C648 1.400 . S
C647 C652 1.490 . S
C648 H638 0.930 . S
C648 C647 1.400 . S
C648 C651 1.386 . S
H649 C665 0.930 . S
H650 C666 0.931 . S
C651 H639 0.929 . S
C651 C645 1.390 . S
C651 C648 1.386 . S
C652 C647 1.490 . S
C652 C654 1.395 . S
C652 C655 1.403 . S
H653 C659 0.930 . S
C654 H640 0.930 . S
C654 C652 1.395 . S
C654 C657 1.403 . S
C655 C652 1.403 . S
C655 C656 1.524 . S
C655 C659 1.400 . S
C656 H641 0.960 . S
C656 H642 0.960 . S
C656 H643 0.960 . S
C656 C655 1.524 . S
C657 C654 1.403 . S
C657 C658 1.392 . S
C657 C661 1.495 . S
C658 C657 1.392 . S
C658 C659 1.385 . S
C658 C660 1.478 . S
C659 H653 0.930 . S
C659 C655 1.400 . S
C659 C658 1.385 . S
C660 C658 1.478 . S
C660 C662 1.381 . S
C660 C666 1.383 1_565 S
C661 C657 1.495 . S
C661 H667 0.963 . S
C661 H668 0.961 . S
C661 H669 0.960 . S
C662 C660 1.381 . S
C662 C663 1.394 . S
C662 H670 0.930 . S
C663 C662 1.394 . S
C663 C664 1.383 . S
C663 H671 0.929 . S
C664 C663 1.383 . S
C664 C665 1.377 1_565 S
C665 H649 0.930 . S
C665 C664 1.377 1_545 S
C665 C666 1.379 . S
C666 H650 0.931 . S
C666 C660 1.383 1_545 S
C666 C665 1.379 . S
H667 C661 0.963 . S
H668 C661 0.961 . S
H669 C661 0.960 . S
H670 C662 0.930 . S
H671 C663 0.929 . S
H672 C680 0.929 . S
H673 C682 0.930 . S
H674 C684 0.930 . S
H675 C687 0.929 . S
H676 C690 0.930 . S
H677 C692 0.960 . S
H678 C692 0.960 . S
H679 C692 0.960 . S
C680 H672 0.929 . S
C680 C681 1.377 1_554 S
C680 C682 1.384 1_554 S
C681 C680 1.377 1_556 S
C681 C687 1.390 . S
C682 H673 0.930 . S
C682 C680 1.384 1_556 S
C682 C683 1.372 . S
C683 C682 1.372 . S
C683 C684 1.400 . S
C683 C688 1.490 . S
C684 H674 0.930 . S
C684 C683 1.400 . S
C684 C687 1.386 . S
H685 C701 0.930 . S
H686 C702 0.931 . S
C687 H675 0.929 . S
C687 C681 1.390 . S
C687 C684 1.386 . S
C688 C683 1.490 . S
C688 C690 1.395 . S
C688 C691 1.403 . S
H689 C695 0.930 . S
C690 H676 0.930 . S
C690 C688 1.395 . S
C690 C693 1.403 . S
C691 C688 1.403 . S
C691 C692 1.524 . S
C691 C695 1.400 . S
C692 H677 0.960 . S
C692 H678 0.960 . S
C692 H679 0.960 . S
C692 C691 1.524 . S
C693 C690 1.403 . S
C693 C694 1.392 . S
C693 C697 1.495 . S
C694 C693 1.392 . S
C694 C695 1.385 . S
C694 C696 1.478 . S
C695 H689 0.930 . S
C695 C691 1.400 . S
C695 C694 1.385 . S
C696 C694 1.478 . S
C696 C698 1.381 . S
C696 C702 1.383 . S
C697 C693 1.495 . S
C697 H703 0.959 1_556 S
C697 H704 0.961 . S
C697 H705 0.960 . S
C698 C696 1.381 . S
C698 C699 1.394 . S
C698 H706 0.930 . S
C699 C698 1.394 . S
C699 C700 1.383 . S
C699 H707 0.929 . S
C700 C699 1.383 . S
C700 C701 1.377 . S
C701 H685 0.930 . S
C701 C700 1.377 . S
C701 C702 1.379 . S
C702 H686 0.931 . S
C702 C696 1.383 . S
C702 C701 1.379 . S
H703 C697 0.959 1_554 S
H704 C697 0.961 . S
H705 C697 0.960 . S
H706 C698 0.930 . S
H707 C699 0.929 . S
H708 C716 0.929 1_554 S
H709 C718 0.930 . S
H710 C720 0.930 . S
H711 C723 0.929 . S
H712 C726 0.930 . S
H713 C728 0.960 . S
H714 C728 0.960 1_554 S
H715 C728 0.960 . S
C716 H708 0.929 1_556 S
C716 C717 1.377 . S
C716 C718 1.384 . S
C717 C716 1.377 . S
C717 C723 1.390 . S
C718 H709 0.930 . S
C718 C716 1.384 . S
C718 C719 1.372 . S
C719 C718 1.372 . S
C719 C720 1.400 . S
C719 C724 1.490 . S
C720 H710 0.930 . S
C720 C719 1.400 . S
C720 C723 1.386 . S
H721 C737 0.930 . S
H722 C738 0.931 . S
C723 H711 0.929 . S
C723 C717 1.390 . S
C723 C720 1.386 . S
C724 C719 1.490 . S
C724 C726 1.395 . S
C724 C727 1.403 . S
H725 C731 0.930 . S
C726 H712 0.930 . S
C726 C724 1.395 . S
C726 C729 1.403 . S
C727 C724 1.403 . S
C727 C728 1.524 . S
C727 C731 1.400 . S
C728 H713 0.960 . S
C728 H714 0.960 1_556 S
C728 H715 0.960 . S
C728 C727 1.524 . S
C729 C726 1.403 . S
C729 C730 1.392 . S
C729 C733 1.495 . S
C730 C729 1.392 . S
C730 C731 1.385 . S
C730 C732 1.478 . S
C731 H725 0.930 . S
C731 C727 1.400 . S
C731 C730 1.385 . S
C732 C730 1.478 . S
C732 C734 1.381 . S
C732 C738 1.383 . S
C733 C729 1.495 . S
C733 H739 0.959 . S
C733 H740 0.961 . S
C733 H741 0.960 . S
C734 C732 1.381 . S
C734 C735 1.394 . S
C734 H742 0.930 . S
C735 C734 1.394 . S
C735 C736 1.383 . S
C735 H743 0.929 . S
C736 C735 1.383 . S
C736 C737 1.377 . S
C737 H721 0.930 . S
C737 C736 1.377 . S
C737 C738 1.379 . S
C738 H722 0.931 . S
C738 C732 1.383 . S
C738 C737 1.379 . S
H739 C733 0.959 . S
H740 C733 0.961 . S
H741 C733 0.960 . S
H742 C734 0.930 . S
H743 C735 0.929 . S
H744 C752 0.929 . S
H745 C754 0.930 . S
H746 C756 0.930 . S
H747 C759 0.929 . S
H748 C762 0.930 . S
H749 C764 0.960 . S
H750 C764 0.960 . S
H751 C764 0.960 . S
C752 H744 0.929 . S
C752 C753 1.377 . S
C752 C754 1.384 . S
C753 C752 1.377 . S
C753 C759 1.390 . S
C754 H745 0.930 . S
C754 C752 1.384 . S
C754 C755 1.372 . S
C755 C754 1.372 . S
C755 C756 1.400 . S
C755 C760 1.490 . S
C756 H746 0.930 . S
C756 C755 1.400 . S
C756 C759 1.386 . S
H757 C773 0.930 . S
H758 C774 0.931 . S
C759 H747 0.929 . S
C759 C753 1.390 . S
C759 C756 1.386 . S
C760 C755 1.490 . S
C760 C762 1.395 . S
C760 C763 1.403 . S
H761 C767 0.930 1_556 S
C762 H748 0.930 . S
C762 C760 1.395 . S
C762 C765 1.403 . S
C763 C760 1.403 . S
C763 C764 1.524 . S
C763 C767 1.400 . S
C764 H749 0.960 . S
C764 H750 0.960 . S
C764 H751 0.960 . S
C764 C763 1.524 . S
C765 C762 1.403 . S
C765 C766 1.392 1_554 S
C765 C769 1.495 1_455 S
C766 C765 1.392 1_556 S
C766 C767 1.385 1_556 S
C766 C768 1.478 . S
C767 H761 0.930 1_554 S
C767 C763 1.400 . S
C767 C766 1.385 1_554 S
C768 C766 1.478 . S
C768 C770 1.381 . S
C768 C774 1.383 . S
C769 C765 1.495 1_655 S
C769 H775 0.959 . S
C769 H776 0.961 1_554 S
C769 H777 0.960 . S
C770 C768 1.381 . S
C770 C771 1.394 . S
C770 H778 0.930 1_556 S
C771 C770 1.394 . S
C771 C772 1.383 . S
C771 H779 0.929 . S
C772 C771 1.383 . S
C772 C773 1.377 . S
C773 H757 0.930 . S
C773 C772 1.377 . S
C773 C774 1.379 . S
C774 H758 0.931 . S
C774 C768 1.383 . S
C774 C773 1.379 . S
H775 C769 0.959 . S
H776 C769 0.961 1_556 S
H777 C769 0.960 . S
H778 C770 0.930 1_554 S
H779 C771 0.929 . S
H780 C788 0.929 . S
H781 C790 0.930 . S
H782 C792 0.930 . S
H783 C795 0.929 . S
H784 C798 0.930 . S
H785 C800 0.960 . S
H786 C800 0.960 . S
H787 C800 0.960 . S
C788 H780 0.929 . S
C788 C789 1.377 . S
C788 C790 1.384 . S
C789 C788 1.377 . S
C789 C795 1.390 . S
C790 H781 0.930 . S
C790 C788 1.384 . S
C790 C791 1.372 . S
C791 C790 1.372 . S
C791 C792 1.400 . S
C791 C796 1.490 . S
C792 H782 0.930 . S
C792 C791 1.400 . S
C792 C795 1.386 . S
H793 C809 0.930 1_565 S
H794 C810 0.931 1_565 S
C795 H783 0.929 . S
C795 C789 1.390 . S
C795 C792 1.386 . S
C796 C791 1.490 . S
C796 C798 1.395 . S
C796 C799 1.403 1_554 S
H797 C803 0.930 . S
C798 H784 0.930 . S
C798 C796 1.395 . S
C798 C801 1.403 . S
C799 C796 1.403 1_556 S
C799 C800 1.524 . S
C799 C803 1.400 . S
C800 H785 0.960 . S
C800 H786 0.960 . S
C800 H787 0.960 . S
C800 C799 1.524 . S
C801 C798 1.403 . S
C801 C802 1.392 1_554 S
C801 C805 1.495 . S
C802 C801 1.392 1_556 S
C802 C803 1.385 . S
C802 C804 1.478 . S
C803 H797 0.930 . S
C803 C799 1.400 . S
C803 C802 1.385 . S
C804 C802 1.478 . S
C804 C806 1.381 . S
C804 C810 1.383 . S
C805 C801 1.495 . S
C805 H811 0.959 . S
C805 H812 0.961 . S
C805 H813 0.960 . S
C806 C804 1.381 . S
C806 C807 1.394 . S
C806 H814 0.930 . S
C807 C806 1.394 . S
C807 C808 1.383 . S
C807 H815 0.929 . S
C808 C807 1.383 . S
C808 C809 1.377 . S
C809 H793 0.930 1_545 S
C809 C808 1.377 . S
C809 C810 1.379 . S
C810 H794 0.931 1_545 S
C810 C804 1.383 . S
C810 C809 1.379 . S
H811 C805 0.959 . S
H812 C805 0.961 . S
H813 C805 0.960 . S
H814 C806 0.930 . S
H815 C807 0.929 . S
H816 C824 0.929 . S
H817 C826 0.930 . S
H818 C828 0.930 . S
H819 C831 0.929 . S
H820 C834 0.930 . S
H821 C836 0.960 . S
H822 C836 0.960 . S
H823 C836 0.960 . S
C824 H816 0.929 . S
C824 C825 1.377 . S
C824 C826 1.384 . S
C825 C824 1.377 . S
C825 C831 1.390 . S
C826 H817 0.930 . S
C826 C824 1.384 . S
C826 C827 1.372 . S
C827 C826 1.372 . S
C827 C828 1.400 . S
C827 C832 1.490 . S
C828 H818 0.930 . S
C828 C827 1.400 . S
C828 C831 1.386 . S
H829 C845 0.930 . S
H830 C846 0.931 . S
C831 H819 0.929 . S
C831 C825 1.390 . S
C831 C828 1.386 . S
C832 C827 1.490 . S
C832 C834 1.395 1_554 S
C832 C835 1.403 . S
H833 C839 0.930 . S
C834 H820 0.930 . S
C834 C832 1.395 1_556 S
C834 C837 1.403 . S
C835 C832 1.403 . S
C835 C836 1.524 . S
C835 C839 1.400 1_554 S
C836 H821 0.960 . S
C836 H822 0.960 . S
C836 H823 0.960 . S
C836 C835 1.524 . S
C837 C834 1.403 . S
C837 C838 1.392 . S
C837 C841 1.495 . S
C838 C837 1.392 . S
C838 C839 1.385 . S
C838 C840 1.478 . S
C839 H833 0.930 . S
C839 C835 1.400 1_556 S
C839 C838 1.385 . S
C840 C838 1.478 . S
C840 C842 1.381 . S
C840 C846 1.383 . S
C841 C837 1.495 . S
C841 H847 0.959 . S
C841 H848 0.961 . S
C841 H849 0.960 . S
C842 C840 1.381 . S
C842 C843 1.394 . S
C842 H850 0.930 . S
C843 C842 1.394 . S
C843 C844 1.383 . S
C843 H851 0.929 . S
C844 C843 1.383 . S
C844 C845 1.377 . S
C845 H829 0.930 . S
C845 C844 1.377 . S
C845 C846 1.379 . S
C846 H830 0.931 . S
C846 C840 1.383 . S
C846 C845 1.379 . S
H847 C841 0.959 . S
H848 C841 0.961 . S
H849 C841 0.960 . S
H850 C842 0.930 . S
H851 C843 0.929 . S
H852 C860 0.929 . S
H853 C862 0.930 . S
H854 C864 0.930 . S
H855 C867 0.929 . S
H856 C870 0.930 . S
H857 C872 0.960 1_556 S
H858 C872 0.958 1_556 S
H859 C872 0.960 . S
C860 H852 0.929 . S
C860 C861 1.377 . S
C860 C862 1.384 . S
C861 C860 1.377 . S
C861 C867 1.390 . S
C862 H853 0.930 . S
C862 C860 1.384 . S
C862 C863 1.372 . S
C863 C862 1.372 . S
C863 C864 1.400 . S
C863 C868 1.490 . S
C864 H854 0.930 . S
C864 C863 1.400 . S
C864 C867 1.386 . S
H865 C881 0.930 . S
H866 C882 0.931 . S
C867 H855 0.929 . S
C867 C861 1.390 . S
C867 C864 1.386 . S
C868 C863 1.490 . S
C868 C870 1.395 . S
C868 C871 1.403 . S
H869 C875 0.930 . S
C870 H856 0.930 . S
C870 C868 1.395 . S
C870 C873 1.403 1_554 S
C871 C868 1.403 . S
C871 C872 1.524 . S
C871 C875 1.400 1_554 S
C872 H857 0.960 1_554 S
C872 H858 0.958 1_554 S
C872 H859 0.960 . S
C872 C871 1.524 . S
C873 C870 1.403 1_556 S
C873 C874 1.392 . S
C873 C877 1.495 . S
C874 C873 1.392 . S
C874 C875 1.385 . S
C874 C876 1.478 . S
C875 H869 0.930 . S
C875 C871 1.400 1_556 S
C875 C874 1.385 . S
C876 C874 1.478 . S
C876 C878 1.381 . S
C876 C882 1.383 . S
C877 C873 1.495 . S
C877 H883 0.959 1_556 S
C877 H884 0.964 . S
C877 H885 0.960 . S
C878 C876 1.381 . S
C878 C879 1.394 . S
C878 H886 0.930 . S
C879 C878 1.394 . S
C879 C880 1.383 . S
C879 H887 0.929 . S
C880 C879 1.383 . S
C880 C881 1.377 . S
C881 H865 0.930 . S
C881 C880 1.377 . S
C881 C882 1.379 . S
C882 H866 0.931 . S
C882 C876 1.383 . S
C882 C881 1.379 . S
H883 C877 0.959 1_554 S
H884 C877 0.964 . S
H885 C877 0.960 . S
H886 C878 0.930 . S
H887 C879 0.929 . S
H888 C896 0.929 . S
H889 C898 0.930 . S
H890 C900 0.930 . S
H891 C903 0.929 . S
H892 C906 0.930 . S
H893 C908 0.960 . S
H894 C908 0.960 . S
H895 C908 0.960 . S
C896 H888 0.929 . S
C896 C897 1.377 . S
C896 C898 1.384 . S
C897 C896 1.377 . S
C897 C903 1.390 . S
C898 H889 0.930 . S
C898 C896 1.384 . S
C898 C899 1.372 . S
C899 C898 1.372 . S
C899 C900 1.400 . S
C899 C904 1.490 . S
C900 H890 0.930 . S
C900 C899 1.400 . S
C900 C903 1.386 . S
H901 C917 0.930 . S
H902 C918 0.931 . S
C903 H891 0.929 . S
C903 C897 1.390 . S
C903 C900 1.386 . S
C904 C899 1.490 . S
C904 C906 1.395 . S
C904 C907 1.403 . S
H905 C911 0.930 . S
C906 H892 0.930 . S
C906 C904 1.395 . S
C906 C909 1.403 . S
C907 C904 1.403 . S
C907 C908 1.524 . S
C907 C911 1.400 . S
C908 H893 0.960 . S
C908 H894 0.960 . S
C908 H895 0.960 . S
C908 C907 1.524 . S
C909 C906 1.403 . S
C909 C910 1.392 . S
C909 C913 1.495 1_655 S
C910 C909 1.392 . S
C910 C911 1.385 . S
C910 C912 1.478 . S
C911 H905 0.930 . S
C911 C907 1.400 . S
C911 C910 1.385 . S
C912 C910 1.478 . S
C912 C914 1.381 . S
C912 C918 1.383 . S
C913 C909 1.495 1_455 S
C913 H919 0.959 . S
C913 H920 0.961 . S
C913 H921 0.960 . S
C914 C912 1.381 . S
C914 C915 1.394 1_655 S
C914 H922 0.930 1_655 S
C915 C914 1.394 1_455 S
C915 C916 1.383 1_455 S
C915 H923 0.929 . S
C916 C915 1.383 1_655 S
C916 C917 1.377 . S
C917 H901 0.930 . S
C917 C916 1.377 . S
C917 C918 1.379 . S
C918 H902 0.931 . S
C918 C912 1.383 . S
C918 C917 1.379 . S
H919 C913 0.959 . S
H920 C913 0.961 . S
H921 C913 0.960 . S
H922 C914 0.930 1_455 S
H923 C915 0.929 . S
H924 C932 0.929 . S
H925 C934 0.930 . S
H926 C936 0.930 . S
H927 C939 0.929 . S
H928 C942 0.930 . S
H929 C944 0.960 . S
H930 C944 0.960 . S
H931 C944 0.960 . S
C932 H924 0.929 . S
C932 C933 1.377 . S
C932 C934 1.384 . S
C933 C932 1.377 . S
C933 C939 1.390 . S
C934 H925 0.930 . S
C934 C932 1.384 . S
C934 C935 1.372 . S
C935 C934 1.372 . S
C935 C936 1.400 . S
C935 C940 1.490 . S
C936 H926 0.930 . S
C936 C935 1.400 . S
C936 C939 1.386 . S
H937 C953 0.930 . S
H938 C954 0.931 . S
C939 H927 0.929 . S
C939 C933 1.390 . S
C939 C936 1.386 . S
C940 C935 1.490 . S
C940 C942 1.395 . S
C940 C943 1.403 . S
H941 C947 0.930 . S
C942 H928 0.930 . S
C942 C940 1.395 . S
C942 C945 1.403 . S
C943 C940 1.403 . S
C943 C944 1.524 . S
C943 C947 1.400 . S
C944 H929 0.960 . S
C944 H930 0.960 . S
C944 H931 0.960 . S
C944 C943 1.524 . S
C945 C942 1.403 . S
C945 C946 1.392 . S
C945 C949 1.495 . S
C946 C945 1.392 . S
C946 C947 1.385 . S
C946 C948 1.478 . S
C947 H941 0.930 . S
C947 C943 1.400 . S
C947 C946 1.385 . S
C948 C946 1.478 . S
C948 C950 1.381 1_565 S
C948 C954 1.383 . S
C949 C945 1.495 . S
C949 H955 0.959 . S
C949 H956 0.961 . S
C949 H957 0.960 . S
C950 C948 1.381 1_545 S
C950 C951 1.394 . S
C950 H958 0.930 . S
C951 C950 1.394 . S
C951 C952 1.383 1_545 S
C951 H959 0.929 . S
C952 C951 1.383 1_565 S
C952 C953 1.377 . S
C953 H937 0.930 . S
C953 C952 1.377 . S
C953 C954 1.379 . S
C954 H938 0.931 . S
C954 C948 1.383 . S
C954 C953 1.379 . S
H955 C949 0.959 . S
H956 C949 0.961 . S
H957 C949 0.960 . S
H958 C950 0.930 . S
H959 C951 0.929 . S
H960 C968 0.929 . S
H961 C970 0.930 . S
H962 C972 0.930 . S
H963 C975 0.929 . S
H964 C978 0.930 . S
H965 C980 0.960 . S
H966 C980 0.960 . S
H967 C980 0.960 . S
C968 H960 0.929 . S
C968 C969 1.377 . S
C968 C970 1.384 . S
C969 C968 1.377 . S
C969 C975 1.390 . S
C970 H961 0.930 . S
C970 C968 1.384 . S
C970 C971 1.372 . S
C971 C970 1.372 . S
C971 C972 1.400 . S
C971 C976 1.490 . S
C972 H962 0.930 . S
C972 C971 1.400 . S
C972 C975 1.386 . S
H973 C989 0.930 . S
H974 C990 0.931 . S
C975 H963 0.929 . S
C975 C969 1.390 . S
C975 C972 1.386 . S
C976 C971 1.490 . S
C976 C978 1.395 . S
C976 C979 1.403 . S
H977 C983 0.930 . S
C978 H964 0.930 . S
C978 C976 1.395 . S
C978 C981 1.403 . S
C979 C976 1.403 . S
C979 C980 1.524 . S
C979 C983 1.400 . S
C980 H965 0.960 . S
C980 H966 0.960 . S
C980 H967 0.960 . S
C980 C979 1.524 . S
C981 C978 1.403 . S
C981 C982 1.392 . S
C981 C985 1.495 . S
C982 C981 1.392 . S
C982 C983 1.385 . S
C982 C984 1.478 . S
C983 H977 0.930 . S
C983 C979 1.400 . S
C983 C982 1.385 . S
C984 C982 1.478 . S
C984 C986 1.381 . S
C984 C990 1.383 . S
C985 C981 1.495 . S
C985 H991 0.959 . S
C985 H992 0.961 . S
C985 H993 0.960 . S
C986 C984 1.381 . S
C986 C987 1.394 . S
C986 H994 0.930 . S
C987 C986 1.394 . S
C987 C988 1.383 . S
C987 H995 0.929 . S
C988 C987 1.383 . S
C988 C989 1.377 . S
C989 H973 0.930 . S
C989 C988 1.377 . S
C989 C990 1.379 . S
C990 H974 0.931 . S
C990 C984 1.383 . S
C990 C989 1.379 . S
H991 C985 0.959 . S
H992 C985 0.961 . S
H993 C985 0.960 . S
H994 C986 0.930 . S
H995 C987 0.929 . S
H996 C1004 0.929 . S
H997 C1006 0.930 . S
H998 C1008 0.930 . S
H999 C1011 0.929 . S
H1000 C1014 0.930 . S
H1001 C1016 0.960 . S
H1002 C1016 0.960 . S
H1003 C1016 0.960 . S
C1004 H996 0.929 . S
C1004 C1005 1.377 . S
C1004 C1006 1.384 . S
C1005 C1004 1.377 . S
C1005 C1011 1.390 . S
C1006 H997 0.930 . S
C1006 C1004 1.384 . S
C1006 C1007 1.372 . S
C1007 C1006 1.372 . S
C1007 C1008 1.400 . S
C1007 C1012 1.490 . S
C1008 H998 0.930 . S
C1008 C1007 1.400 . S
C1008 C1011 1.386 . S
H1009 C1025 0.930 . S
H1010 C1026 0.931 . S
C1011 H999 0.929 . S
C1011 C1005 1.390 . S
C1011 C1008 1.386 . S
C1012 C1007 1.490 . S
C1012 C1014 1.395 . S
C1012 C1015 1.403 . S
H1013 C1019 0.930 . S
C1014 H1000 0.930 . S
C1014 C1012 1.395 . S
C1014 C1017 1.403 . S
C1015 C1012 1.403 . S
C1015 C1016 1.524 . S
C1015 C1019 1.400 . S
C1016 H1001 0.960 . S
C1016 H1002 0.960 . S
C1016 H1003 0.960 . S
C1016 C1015 1.524 . S
C1017 C1014 1.403 . S
C1017 C1018 1.392 . S
C1017 C1021 1.495 . S
C1018 C1017 1.392 . S
C1018 C1019 1.385 . S
C1018 C1020 1.478 . S
C1019 H1013 0.930 . S
C1019 C1015 1.400 . S
C1019 C1018 1.385 . S
C1020 C1018 1.478 . S
C1020 C1022 1.381 . S
C1020 C1026 1.383 . S
C1021 C1017 1.495 . S
C1021 H1027 0.959 . S
C1021 H1028 0.961 . S
C1021 H1029 0.960 . S
C1022 C1020 1.381 . S
C1022 C1023 1.394 . S
C1022 H1030 0.930 . S
C1023 C1022 1.394 . S
C1023 C1024 1.383 . S
C1023 H1031 0.929 . S
C1024 C1023 1.383 . S
C1024 C1025 1.377 . S
C1025 H1009 0.930 . S
C1025 C1024 1.377 . S
C1025 C1026 1.379 . S
C1026 H1010 0.931 . S
C1026 C1020 1.383 . S
C1026 C1025 1.379 . S
H1027 C1021 0.959 . S
H1028 C1021 0.961 . S
H1029 C1021 0.960 . S
H1030 C1022 0.930 . S
H1031 C1023 0.929 . S
C177 C76 1.588 . S
C196 C89 1.600 . S
C232 C124 1.622 . S
C213 C87 1.596 . S
C268 C129 1.283 . S
C249 C54 1.264 . S
C304 C149 1.409 . S
C285 C65 1.378 . S
C340 C97 1.606 1_565 S
C321 C32 1.592 1_556 S
C357 C43 1.605 . S
C376 C114 1.641 . S
C393 C10 1.271 . S
C412 C137 1.286 . S
C429 C21 1.392 . S
C448 C157 1.408 1_655 S
C484 C107 1.090 . S
C465 C60 1.076 . S
C520 C116 0.751 . S
C501 C71 0.789 . S
C556 C147 1.233 . S
C537 C82 1.198 . S
C573 C49 0.834 . S
C592 C167 0.821 . S
C609 C16 1.083 . S
C628 C96 1.104 1_655 S
C664 C127 0.791 1_565 S
C645 C27 0.791 1_556 S
C700 C136 1.173 . S
C681 C38 1.197 1_556 S
C717 C5 0.828 1_556 S
C736 C156 0.860 . S
C753 C59 1.462 . S
C772 C94 1.480 . S
C789 C70 1.410 . S
C808 C117 1.447 . S
C844 C134 1.608 . S
C825 C81 1.556 . S
C880 C154 1.596 . S
C861 C48 1.582 . S
C897 C15 1.463 . S
C916 C104 1.466 . S
C952 C109 1.460 . S
C933 C26 1.396 . S
C988 C144 1.589 . S
C969 C37 1.555 . S
C1005 C4 1.572 . S
C1024 C164 1.586 . S
